# Generated by pormake.
# Topology ech, (8)-cn, num edge types: 1
# Building blocks:
#     Node 0, Type 0, BuildingBlock: TAGTUT_clean_sbu_1, # of connection points: 8
#     Node 1, Type 0, BuildingBlock: TAGTUT_clean_sbu_1, # of connection points: 8
#     Node 2, Type 0, BuildingBlock: TAGTUT_clean_sbu_1, # of connection points: 8
#     Node 3, Type 0, BuildingBlock: TAGTUT_clean_sbu_1, # of connection points: 8
#     Node 4, Type 0, BuildingBlock: TAGTUT_clean_sbu_1, # of connection points: 8
#     Node 5, Type 0, BuildingBlock: TAGTUT_clean_sbu_1, # of connection points: 8
#     Node 6, Type 0, BuildingBlock: TAGTUT_clean_sbu_1, # of connection points: 8
#     Node 7, Type 0, BuildingBlock: TAGTUT_clean_sbu_1, # of connection points: 8
#     Node 8, Type 0, BuildingBlock: TAGTUT_clean_sbu_1, # of connection points: 8
#     Node 9, Type 0, BuildingBlock: TAGTUT_clean_sbu_1, # of connection points: 8
#     Node 10, Type 0, BuildingBlock: TAGTUT_clean_sbu_1, # of connection points: 8
#     Node 11, Type 0, BuildingBlock: TAGTUT_clean_sbu_1, # of connection points: 8
#     Node 12, Type 0, BuildingBlock: TAGTUT_clean_sbu_1, # of connection points: 8
#     Node 13, Type 0, BuildingBlock: TAGTUT_clean_sbu_1, # of connection points: 8
#     Node 14, Type 0, BuildingBlock: TAGTUT_clean_sbu_1, # of connection points: 8
#     Node 15, Type 0, BuildingBlock: TAGTUT_clean_sbu_1, # of connection points: 8
#     Node 16, Type 0, BuildingBlock: TAGTUT_clean_sbu_1, # of connection points: 8
#     Node 17, Type 0, BuildingBlock: TAGTUT_clean_sbu_1, # of connection points: 8
#     Node 18, Type 0, BuildingBlock: TAGTUT_clean_sbu_1, # of connection points: 8
#     Node 19, Type 0, BuildingBlock: TAGTUT_clean_sbu_1, # of connection points: 8
#     Node 20, Type 0, BuildingBlock: TAGTUT_clean_sbu_1, # of connection points: 8
#     Node 21, Type 0, BuildingBlock: TAGTUT_clean_sbu_1, # of connection points: 8
#     Node 22, Type 0, BuildingBlock: TAGTUT_clean_sbu_1, # of connection points: 8
#     Node 23, Type 0, BuildingBlock: TAGTUT_clean_sbu_1, # of connection points: 8
#     Edge 24, Type (0, 0), None
#     Edge 25, Type (0, 0), None
#     Edge 26, Type (0, 0), None
#     Edge 27, Type (0, 0), None
#     Edge 28, Type (0, 0), None
#     Edge 29, Type (0, 0), None
#     Edge 30, Type (0, 0), None
#     Edge 31, Type (0, 0), None
#     Edge 32, Type (0, 0), None
#     Edge 33, Type (0, 0), None
#     Edge 34, Type (0, 0), None
#     Edge 35, Type (0, 0), None
#     Edge 36, Type (0, 0), None
#     Edge 37, Type (0, 0), None
#     Edge 38, Type (0, 0), None
#     Edge 39, Type (0, 0), None
#     Edge 40, Type (0, 0), None
#     Edge 41, Type (0, 0), None
#     Edge 42, Type (0, 0), None
#     Edge 43, Type (0, 0), None
#     Edge 44, Type (0, 0), None
#     Edge 45, Type (0, 0), None
#     Edge 46, Type (0, 0), None
#     Edge 47, Type (0, 0), None
#     Edge 48, Type (0, 0), None
#     Edge 49, Type (0, 0), None
#     Edge 50, Type (0, 0), None
#     Edge 51, Type (0, 0), None
#     Edge 52, Type (0, 0), None
#     Edge 53, Type (0, 0), None
#     Edge 54, Type (0, 0), None
#     Edge 55, Type (0, 0), None
#     Edge 56, Type (0, 0), None
#     Edge 57, Type (0, 0), None
#     Edge 58, Type (0, 0), None
#     Edge 59, Type (0, 0), None
#     Edge 60, Type (0, 0), None
#     Edge 61, Type (0, 0), None
#     Edge 62, Type (0, 0), None
#     Edge 63, Type (0, 0), None
#     Edge 64, Type (0, 0), None
#     Edge 65, Type (0, 0), None
#     Edge 66, Type (0, 0), None
#     Edge 67, Type (0, 0), None
#     Edge 68, Type (0, 0), None
#     Edge 69, Type (0, 0), None
#     Edge 70, Type (0, 0), None
#     Edge 71, Type (0, 0), None
#     Edge 72, Type (0, 0), None
#     Edge 73, Type (0, 0), None
#     Edge 74, Type (0, 0), None
#     Edge 75, Type (0, 0), None
#     Edge 76, Type (0, 0), None
#     Edge 77, Type (0, 0), None
#     Edge 78, Type (0, 0), None
#     Edge 79, Type (0, 0), None
#     Edge 80, Type (0, 0), None
#     Edge 81, Type (0, 0), None
#     Edge 82, Type (0, 0), None
#     Edge 83, Type (0, 0), None
#     Edge 84, Type (0, 0), None
#     Edge 85, Type (0, 0), None
#     Edge 86, Type (0, 0), None
#     Edge 87, Type (0, 0), None
#     Edge 88, Type (0, 0), None
#     Edge 89, Type (0, 0), None
#     Edge 90, Type (0, 0), None
#     Edge 91, Type (0, 0), None
#     Edge 92, Type (0, 0), None
#     Edge 93, Type (0, 0), None
#     Edge 94, Type (0, 0), None
#     Edge 95, Type (0, 0), None
#     Edge 96, Type (0, 0), None
#     Edge 97, Type (0, 0), None
#     Edge 98, Type (0, 0), None
#     Edge 99, Type (0, 0), None
#     Edge 100, Type (0, 0), None
#     Edge 101, Type (0, 0), None
#     Edge 102, Type (0, 0), None
#     Edge 103, Type (0, 0), None
#     Edge 104, Type (0, 0), None
#     Edge 105, Type (0, 0), None
#     Edge 106, Type (0, 0), None
#     Edge 107, Type (0, 0), None
#     Edge 108, Type (0, 0), None
#     Edge 109, Type (0, 0), None
#     Edge 110, Type (0, 0), None
#     Edge 111, Type (0, 0), None
#     Edge 112, Type (0, 0), None
#     Edge 113, Type (0, 0), None
#     Edge 114, Type (0, 0), None
#     Edge 115, Type (0, 0), None
#     Edge 116, Type (0, 0), None
#     Edge 117, Type (0, 0), None
#     Edge 118, Type (0, 0), None
#     Edge 119, Type (0, 0), None
# Relax obj value: 0.256
# Max RMSD: 0.219
# Mean RMSD: 0.219
data_MOF--net-ech--node1-TAGTUT_clean_sbu_1--edge1-none
_symmetry_space_group_name_H-M    P1
_symmetry_Int_Tables_number       1
_symmetry_cell_setting            triclinic
loop_
_symmetry_equiv_pos_as_xyz
'x, y, z'
_cell_length_a     24.501776
_cell_length_b     24.501961
_cell_length_c     24.501134
_cell_angle_alpha  90.0
_cell_angle_beta   90.0
_cell_angle_gamma 90.0
loop_
_atom_site_label
_atom_site_type_symbol
_atom_site_fract_x
_atom_site_fract_y
_atom_site_fract_z
_atom_type_partial_charge
C0 C 0.9064 0.34652 0.48207 0.0
C1 C -0.00382 0.28632 0.61824 0.0
C2 C 0.18353 0.31866 0.47584 0.0
Mg3 Mg 0.95548 0.23735 0.50405 0.0
O4 O 0.02036 0.26927 0.48312 0.0
Mg5 Mg 0.04347 0.34327 0.50958 0.0
Mg6 Mg 0.07495 0.24653 0.43055 0.0
O7 O 0.12957 0.22309 0.38012 0.0
Mg8 Mg 0.20073 0.24 0.37241 0.0
Mg9 Mg 0.09341 0.16724 0.33502 0.0
C10 C 0.98177 0.15702 0.40476 0.0
C11 C 0.11817 0.12234 0.45547 0.0
O12 O 0.94894 0.36606 0.50691 0.0
O13 O 0.90034 0.29589 0.47261 0.0
O14 O 0.03652 0.31117 0.59633 0.0
O15 O 0.96354 0.25529 0.59108 0.0
O16 O 0.95763 0.16535 0.45079 0.0
O17 O 0.01671 0.19086 0.38523 0.0
C18 C 0.031 0.36727 0.38531 0.0
O19 O 0.04211 0.31768 0.37341 0.0
O20 O 0.03894 0.3853 0.43247 0.0
O21 O 0.17416 0.1397 0.2946 0.0
O22 O 0.23366 0.16004 0.3596 0.0
O23 O 0.09647 0.23986 0.27221 0.0
C24 C 0.22231 0.13692 0.31432 0.0
O25 O 0.1772 0.27789 0.29838 0.0
O26 O 0.21503 0.29483 0.44136 0.0
C27 C 0.13525 0.27552 0.26713 0.0
O28 O 0.1322 0.30621 0.48007 0.0
O29 O 0.10861 0.16987 0.47639 0.0
O30 O 0.10767 0.11079 0.40552 0.0
C31 C 0.58332 0.6432 0.98207 0.0
C32 C 0.49354 0.70339 0.11824 0.0
C33 C 0.3062 0.67106 0.97584 0.0
Mg34 Mg 0.53424 0.75236 0.00405 0.0
O35 O 0.46936 0.72044 0.98312 0.0
Mg36 Mg 0.44625 0.64645 0.00958 0.0
Mg37 Mg 0.41477 0.74319 0.93055 0.0
O38 O 0.36016 0.76662 0.88012 0.0
Mg39 Mg 0.28899 0.74972 0.87241 0.0
Mg40 Mg 0.39631 0.82248 0.83502 0.0
C41 C 0.50796 0.8327 0.90476 0.0
C42 C 0.37155 0.86738 0.95547 0.0
O43 O 0.54079 0.62365 0.00691 0.0
O44 O 0.58939 0.69383 0.97261 0.0
O45 O 0.4532 0.67855 0.09633 0.0
O46 O 0.52618 0.73443 0.09108 0.0
O47 O 0.53209 0.82436 0.95079 0.0
O48 O 0.47301 0.79886 0.88523 0.0
C49 C 0.45873 0.62245 0.88531 0.0
O50 O 0.44761 0.67204 0.87341 0.0
O51 O 0.45078 0.60441 0.93247 0.0
O52 O 0.31556 0.85002 0.7946 0.0
O53 O 0.25607 0.82967 0.8596 0.0
O54 O 0.39326 0.74985 0.77221 0.0
C55 C 0.26741 0.8528 0.81432 0.0
O56 O 0.31252 0.71183 0.79838 0.0
O57 O 0.27469 0.69489 0.94136 0.0
C58 C 0.35448 0.7142 0.76713 0.0
O59 O 0.35752 0.6835 0.98007 0.0
O60 O 0.38111 0.81985 0.97639 0.0
O61 O 0.38206 0.87893 0.90552 0.0
C62 C 0.4064 0.1432 0.50768 0.0
C63 C 0.49618 0.20339 0.37151 0.0
C64 C 0.68353 0.17106 0.51391 0.0
Mg65 Mg 0.45548 0.25236 0.4857 0.0
O66 O 0.52036 0.22044 0.50663 0.0
Mg67 Mg 0.54347 0.14645 0.48017 0.0
Mg68 Mg 0.57495 0.24319 0.5592 0.0
O69 O 0.62957 0.26662 0.60963 0.0
Mg70 Mg 0.70073 0.24972 0.61734 0.0
Mg71 Mg 0.59341 0.32248 0.65473 0.0
C72 C 0.48177 0.3327 0.58499 0.0
C73 C 0.61817 0.36738 0.53428 0.0
O74 O 0.44894 0.12365 0.48284 0.0
O75 O 0.40034 0.19383 0.51714 0.0
O76 O 0.53652 0.17855 0.39342 0.0
O77 O 0.46354 0.23443 0.39867 0.0
O78 O 0.45763 0.32436 0.53896 0.0
O79 O 0.51671 0.29886 0.60452 0.0
C80 C 0.531 0.12245 0.60444 0.0
O81 O 0.54211 0.17204 0.61634 0.0
O82 O 0.53894 0.10441 0.55728 0.0
O83 O 0.67416 0.35002 0.69515 0.0
O84 O 0.73366 0.32967 0.63015 0.0
O85 O 0.59647 0.24985 0.71754 0.0
C86 C 0.72231 0.3528 0.67543 0.0
O87 O 0.6772 0.21183 0.69137 0.0
O88 O 0.71503 0.19489 0.54839 0.0
C89 C 0.63525 0.2142 0.72262 0.0
O90 O 0.6322 0.1835 0.50968 0.0
O91 O 0.60861 0.31985 0.51336 0.0
O92 O 0.60767 0.37893 0.58423 0.0
C93 C 0.08332 0.84652 0.00768 0.0
C94 C 0.99354 0.78632 0.87151 0.0
C95 C 0.8062 0.81866 0.01391 0.0
Mg96 Mg 0.03424 0.73735 0.9857 0.0
O97 O 0.96936 0.76927 0.00663 0.0
Mg98 Mg 0.94625 0.84327 0.98017 0.0
Mg99 Mg 0.91477 0.74653 0.0592 0.0
O100 O 0.86016 0.72309 0.10963 0.0
Mg101 Mg 0.78899 0.74 0.11734 0.0
Mg102 Mg 0.89631 0.66724 0.15473 0.0
C103 C 0.00796 0.65702 0.08499 0.0
C104 C 0.87155 0.62234 0.03428 0.0
O105 O 0.04079 0.86606 0.98284 0.0
O106 O 0.08939 0.79589 0.01714 0.0
O107 O 0.9532 0.81117 0.89342 0.0
O108 O 0.02618 0.75529 0.89867 0.0
O109 O 0.03209 0.66535 0.03896 0.0
O110 O 0.97301 0.69086 0.10452 0.0
C111 C 0.95873 0.86727 0.10444 0.0
O112 O 0.94761 0.81768 0.11634 0.0
O113 O 0.95078 0.8853 0.05728 0.0
O114 O 0.81556 0.6397 0.19515 0.0
O115 O 0.75607 0.66004 0.13015 0.0
O116 O 0.89326 0.73986 0.21754 0.0
C117 C 0.76741 0.63692 0.17543 0.0
O118 O 0.81252 0.77789 0.19137 0.0
O119 O 0.77469 0.79483 0.04839 0.0
C120 C 0.85448 0.77552 0.22262 0.0
O121 O 0.85752 0.80621 0.00968 0.0
O122 O 0.88111 0.66987 0.01336 0.0
O123 O 0.88206 0.61079 0.08423 0.0
C124 C 0.4821 0.90638 0.34651 0.0
C125 C 0.61824 -0.00382 0.28631 0.0
C126 C 0.47587 0.1835 0.31865 0.0
Mg127 Mg 0.50406 0.95547 0.23734 0.0
O128 O 0.48312 0.02033 0.26927 0.0
Mg129 Mg 0.50959 0.04345 0.34327 0.0
Mg130 Mg 0.43056 0.07494 0.24653 0.0
O131 O 0.38015 0.12956 0.22308 0.0
Mg132 Mg 0.37244 0.20072 0.24002 0.0
Mg133 Mg 0.33503 0.09341 0.16724 0.0
C134 C 0.40476 0.98175 0.15702 0.0
C135 C 0.45548 0.11815 0.12233 0.0
O136 O 0.50693 0.94892 0.36606 0.0
O137 O 0.47263 0.90032 0.29588 0.0
O138 O 0.59634 0.03652 0.31115 0.0
O139 O 0.59109 0.96353 0.25528 0.0
O140 O 0.45078 0.95762 0.16535 0.0
O141 O 0.38523 0.0167 0.19086 0.0
C142 C 0.38533 0.03099 0.36728 0.0
O143 O 0.37342 0.04211 0.31769 0.0
O144 O 0.43249 0.03892 0.3853 0.0
O145 O 0.29462 0.17417 0.13971 0.0
O146 O 0.3596 0.23368 0.16008 0.0
O147 O 0.27221 0.09647 0.23985 0.0
C148 C 0.31432 0.22232 0.13695 0.0
O149 O 0.29842 0.17718 0.27792 0.0
O150 O 0.44139 0.21502 0.29485 0.0
C151 C 0.26715 0.13524 0.27553 0.0
O152 O 0.48009 0.13218 0.30621 0.0
O153 O 0.4764 0.10858 0.16986 0.0
O154 O 0.40553 0.10765 0.11078 0.0
C155 C 0.00763 0.08333 0.84651 0.0
C156 C 0.87148 0.99354 0.78631 0.0
C157 C 0.01386 0.80621 0.81865 0.0
Mg158 Mg 0.98566 0.03425 0.73734 0.0
O159 O 0.00661 0.96938 0.76927 0.0
Mg160 Mg 0.98013 0.94627 0.84327 0.0
Mg161 Mg 0.05916 0.91478 0.74653 0.0
O162 O 0.10957 0.86015 0.72308 0.0
Mg163 Mg 0.11729 0.78899 0.74002 0.0
Mg164 Mg 0.1547 0.8963 0.66724 0.0
C165 C 0.08497 0.00796 0.65702 0.0
C166 C 0.03424 0.87157 0.62233 0.0
O167 O 0.98279 0.0408 0.86606 0.0
O168 O 0.01709 0.0894 0.79588 0.0
O169 O 0.89339 0.9532 0.81115 0.0
O170 O 0.89864 0.02618 0.75528 0.0
O171 O 0.03894 0.0321 0.66535 0.0
O172 O 0.10449 0.97302 0.69086 0.0
C173 C 0.1044 0.95873 0.86728 0.0
O174 O 0.1163 0.9476 0.81769 0.0
O175 O 0.05724 0.9508 0.8853 0.0
O176 O 0.1951 0.81555 0.63971 0.0
O177 O 0.13013 0.75603 0.66008 0.0
O178 O 0.21751 0.89324 0.73985 0.0
C179 C 0.1754 0.76739 0.63695 0.0
O180 O 0.1913 0.81254 0.77792 0.0
O181 O 0.04834 0.7747 0.79485 0.0
C182 C 0.22257 0.85448 0.77553 0.0
O183 O 0.00963 0.85754 0.80621 0.0
O184 O 0.01332 0.88114 0.66986 0.0
O185 O 0.0842 0.88206 0.61078 0.0
C186 C 0.9821 0.58333 0.64324 0.0
C187 C 0.11824 0.49354 0.70344 0.0
C188 C 0.97587 0.30621 0.6711 0.0
Mg189 Mg 0.00406 0.53425 0.75241 0.0
O190 O 0.98312 0.46938 0.72048 0.0
Mg191 Mg 0.00959 0.44627 0.64648 0.0
Mg192 Mg 0.93056 0.41478 0.74322 0.0
O193 O 0.88015 0.36015 0.76667 0.0
Mg194 Mg 0.87244 0.28899 0.74973 0.0
Mg195 Mg 0.83503 0.3963 0.82251 0.0
C196 C 0.90476 0.50796 0.83273 0.0
C197 C 0.95548 0.37157 0.86742 0.0
O198 O 0.00693 0.5408 0.62369 0.0
O199 O 0.97263 0.5894 0.69387 0.0
O200 O 0.09634 0.4532 0.6786 0.0
O201 O 0.09109 0.52618 0.73448 0.0
O202 O 0.95078 0.5321 0.8244 0.0
O203 O 0.88523 0.47302 0.79889 0.0
C204 C 0.88533 0.45873 0.62247 0.0
O205 O 0.87342 0.4476 0.67206 0.0
O206 O 0.93249 0.4508 0.60445 0.0
O207 O 0.79462 0.31555 0.85004 0.0
O208 O 0.8596 0.25603 0.82967 0.0
O209 O 0.77221 0.39324 0.7499 0.0
C210 C 0.81432 0.26739 0.8528 0.0
O211 O 0.79842 0.31254 0.71183 0.0
O212 O 0.94139 0.2747 0.6949 0.0
C213 C 0.76715 0.35448 0.71422 0.0
O214 O 0.98009 0.35754 0.68354 0.0
O215 O 0.9764 0.38114 0.81989 0.0
O216 O 0.90553 0.38206 0.87897 0.0
C217 C 0.50763 0.40638 0.14324 0.0
C218 C 0.37148 0.49618 0.20344 0.0
C219 C 0.51386 0.6835 0.1711 0.0
Mg220 Mg 0.48566 0.45547 0.25241 0.0
O221 O 0.50661 0.52033 0.22048 0.0
Mg222 Mg 0.48013 0.54345 0.14648 0.0
Mg223 Mg 0.55916 0.57494 0.24322 0.0
O224 O 0.60957 0.62956 0.26667 0.0
Mg225 Mg 0.61729 0.70072 0.24973 0.0
Mg226 Mg 0.6547 0.59341 0.32251 0.0
C227 C 0.58497 0.48175 0.33273 0.0
C228 C 0.53424 0.61815 0.36742 0.0
O229 O 0.48279 0.44892 0.12369 0.0
O230 O 0.51709 0.40032 0.19387 0.0
O231 O 0.39339 0.53652 0.1786 0.0
O232 O 0.39864 0.46353 0.23448 0.0
O233 O 0.53894 0.45762 0.3244 0.0
O234 O 0.60449 0.5167 0.29889 0.0
C235 C 0.6044 0.53099 0.12247 0.0
O236 O 0.6163 0.54211 0.17206 0.0
O237 O 0.55724 0.53892 0.10445 0.0
O238 O 0.6951 0.67417 0.35004 0.0
O239 O 0.63013 0.73368 0.32967 0.0
O240 O 0.71751 0.59647 0.2499 0.0
C241 C 0.6754 0.72232 0.3528 0.0
O242 O 0.6913 0.67718 0.21183 0.0
O243 O 0.54834 0.71502 0.1949 0.0
C244 C 0.72257 0.63524 0.21422 0.0
O245 O 0.50963 0.63218 0.18354 0.0
O246 O 0.51332 0.60858 0.31989 0.0
O247 O 0.5842 0.60765 0.37897 0.0
C248 C 0.34652 0.48209 0.9064 0.0
C249 C 0.28626 0.61823 -0.00379 0.0
C250 C 0.31862 0.47586 0.18354 0.0
Mg251 Mg 0.23735 0.50404 0.95548 0.0
O252 O 0.26928 0.4831 0.02035 0.0
Mg253 Mg 0.34326 0.50959 0.04348 0.0
Mg254 Mg 0.24652 0.43055 0.07496 0.0
O255 O 0.22306 0.38015 0.12959 0.0
Mg256 Mg 0.23999 0.37243 0.20076 0.0
Mg257 Mg 0.16723 0.33501 0.09342 0.0
C258 C 0.15703 0.40473 0.98176 0.0
C259 C 0.12232 0.45547 0.11815 0.0
O260 O 0.36607 0.50691 0.94895 0.0
O261 O 0.29589 0.47263 0.90032 0.0
O262 O 0.31116 0.59633 0.03652 0.0
O263 O 0.25524 0.59107 0.96355 0.0
O264 O 0.16536 0.45075 0.95762 0.0
O265 O 0.19087 0.38521 0.01672 0.0
C266 C 0.36728 0.38532 0.03104 0.0
O267 O 0.31769 0.37341 0.04215 0.0
O268 O 0.3853 0.43248 0.03896 0.0
O269 O 0.13968 0.2946 0.17417 0.0
O270 O 0.16005 0.35959 0.23372 0.0
O271 O 0.23986 0.27221 0.0965 0.0
C272 C 0.13688 0.31435 0.22231 0.0
O273 O 0.2779 0.29842 0.17721 0.0
O274 O 0.29481 0.44138 0.21506 0.0
C275 C 0.27553 0.26716 0.13526 0.0
O276 O 0.30619 0.48009 0.13221 0.0
O277 O 0.16985 0.47639 0.10859 0.0
O278 O 0.11077 0.40551 0.10765 0.0
C279 C 0.84652 0.00763 0.08335 0.0
C280 C 0.78626 0.87148 0.99354 0.0
C281 C 0.81862 0.01385 0.80621 0.0
Mg282 Mg 0.73735 0.98567 0.03427 0.0
O283 O 0.76928 0.00662 0.9694 0.0
Mg284 Mg 0.84326 0.98013 0.94627 0.0
Mg285 Mg 0.74652 0.05917 0.91479 0.0
O286 O 0.72306 0.10957 0.86016 0.0
Mg287 Mg 0.73999 0.11729 0.78899 0.0
Mg288 Mg 0.66723 0.1547 0.89633 0.0
C289 C 0.65703 0.08498 0.00799 0.0
C290 C 0.62232 0.03425 0.8716 0.0
O291 O 0.86607 0.98281 0.0408 0.0
O292 O 0.79589 0.01709 0.08943 0.0
O293 O 0.81116 0.89339 0.95323 0.0
O294 O 0.75524 0.89865 0.0262 0.0
O295 O 0.66536 0.03896 0.03213 0.0
O296 O 0.69087 0.1045 0.97303 0.0
C297 C 0.86728 0.1044 0.95871 0.0
O298 O 0.81769 0.11631 0.9476 0.0
O299 O 0.8853 0.05724 0.95079 0.0
O300 O 0.63968 0.19511 0.81558 0.0
O301 O 0.66005 0.13013 0.75603 0.0
O302 O 0.73986 0.21751 0.89325 0.0
C303 C 0.63688 0.17537 0.76744 0.0
O304 O 0.7779 0.19129 0.81254 0.0
O305 O 0.79481 0.04833 0.77469 0.0
C306 C 0.77553 0.22256 0.85449 0.0
O307 O 0.80619 0.00963 0.85754 0.0
O308 O 0.66985 0.01333 0.88116 0.0
O309 O 0.61077 0.08421 0.8821 0.0
C310 C 0.6432 0.98209 0.58335 0.0
C311 C 0.70347 0.11823 0.49354 0.0
C312 C 0.6711 0.97586 0.30621 0.0
Mg313 Mg 0.75238 0.00404 0.53427 0.0
O314 O 0.72044 0.9831 0.4694 0.0
Mg315 Mg 0.64646 0.00959 0.44627 0.0
Mg316 Mg 0.74321 0.93055 0.41479 0.0
O317 O 0.76666 0.88015 0.36016 0.0
Mg318 Mg 0.74973 0.87243 0.28899 0.0
Mg319 Mg 0.82249 0.83501 0.39633 0.0
C320 C 0.83269 0.90473 0.50799 0.0
C321 C 0.86741 0.95547 0.3716 0.0
O322 O 0.62365 0.00691 0.5408 0.0
O323 O 0.69383 0.97263 0.58943 0.0
O324 O 0.67857 0.09633 0.45323 0.0
O325 O 0.73449 0.09107 0.5262 0.0
O326 O 0.82436 0.95075 0.53213 0.0
O327 O 0.79886 0.88521 0.47303 0.0
C328 C 0.62245 0.88532 0.45871 0.0
O329 O 0.67203 0.87341 0.4476 0.0
O330 O 0.60442 0.93248 0.45079 0.0
O331 O 0.85004 0.7946 0.31558 0.0
O332 O 0.82967 0.85959 0.25603 0.0
O333 O 0.74987 0.77221 0.39325 0.0
C334 C 0.85284 0.81435 0.26744 0.0
O335 O 0.71182 0.79842 0.31254 0.0
O336 O 0.69491 0.94138 0.27469 0.0
C337 C 0.7142 0.76716 0.35449 0.0
O338 O 0.68354 0.98009 0.35754 0.0
O339 O 0.81988 0.97639 0.38116 0.0
O340 O 0.87895 0.90551 0.3821 0.0
C341 C 0.1432 0.50763 0.4064 0.0
C342 C 0.20347 0.37148 0.49621 0.0
C343 C 0.1711 0.51385 0.68354 0.0
Mg344 Mg 0.25238 0.48567 0.45548 0.0
O345 O 0.22044 0.50662 0.52035 0.0
Mg346 Mg 0.14646 0.48013 0.54348 0.0
Mg347 Mg 0.24321 0.55917 0.57496 0.0
O348 O 0.26666 0.60957 0.62959 0.0
Mg349 Mg 0.24973 0.61729 0.70076 0.0
Mg350 Mg 0.32249 0.6547 0.59342 0.0
C351 C 0.33269 0.58498 0.48176 0.0
C352 C 0.36741 0.53425 0.61815 0.0
O353 O 0.12365 0.48281 0.44895 0.0
O354 O 0.19383 0.51709 0.40032 0.0
O355 O 0.17857 0.39339 0.53652 0.0
O356 O 0.23449 0.39865 0.46355 0.0
O357 O 0.32436 0.53896 0.45762 0.0
O358 O 0.29886 0.6045 0.51672 0.0
C359 C 0.12245 0.6044 0.53104 0.0
O360 O 0.17203 0.61631 0.54215 0.0
O361 O 0.10442 0.55724 0.53896 0.0
O362 O 0.35004 0.69511 0.67417 0.0
O363 O 0.32967 0.63013 0.73372 0.0
O364 O 0.24987 0.71751 0.5965 0.0
C365 C 0.35284 0.67537 0.72231 0.0
O366 O 0.21182 0.69129 0.67721 0.0
O367 O 0.19491 0.54833 0.71506 0.0
C368 C 0.2142 0.72256 0.63526 0.0
O369 O 0.18354 0.50963 0.63221 0.0
O370 O 0.31988 0.51333 0.60859 0.0
O371 O 0.37895 0.58421 0.60765 0.0
C372 C 0.76751 0.85302 0.67561 0.0
C373 C 0.85462 0.71444 0.72275 0.0
C374 C 0.00799 0.83279 0.58503 0.0
Mg375 Mg 0.789 0.74988 0.61755 0.0
O376 O 0.86013 0.76682 0.60964 0.0
Mg377 Mg 0.89638 0.8227 0.65472 0.0
Mg378 Mg 0.91469 0.74332 0.55914 0.0
O379 O 0.96927 0.72063 0.50655 0.0
Mg380 Mg 0.03423 0.75252 0.48572 0.0
Mg381 Mg 0.94616 0.64664 0.48009 0.0
C382 C 0.80615 0.67106 0.51413 0.0
C383 C 0.95862 0.62255 0.60434 0.0
O384 O 0.81569 0.85027 0.69527 0.0
O385 O 0.75613 0.82988 0.63034 0.0
O386 O 0.89341 0.75007 0.71759 0.0
O387 O 0.81261 0.71208 0.69157 0.0
O388 O 0.77476 0.69481 0.54878 0.0
O389 O 0.85737 0.68378 0.50941 0.0
C390 C 0.87158 0.86756 0.53424 0.0
O391 O 0.8811 0.82001 0.51335 0.0
O392 O 0.88205 0.87914 0.5842 0.0
O393 O 0.04067 0.62381 0.48284 0.0
O394 O 0.08931 0.69394 0.51718 0.0
O395 O 0.9533 0.67873 0.39334 0.0
C396 C 0.08323 0.64333 0.50764 0.0
O397 O 0.02637 0.73449 0.39869 0.0
O398 O 0.03222 0.82451 0.53904 0.0
C399 C 0.99375 0.70346 0.3715 0.0
O400 O 0.97293 0.79897 0.60436 0.0
O401 O 0.94756 0.67215 0.61624 0.0
O402 O 0.95056 0.60452 0.55719 0.0
C403 C 0.72222 0.1367 0.17561 0.0
C404 C 0.63511 0.27528 0.22275 0.0
C405 C 0.48173 0.15692 0.08503 0.0
Mg406 Mg 0.70072 0.23983 0.11755 0.0
O407 O 0.62959 0.2229 0.10964 0.0
Mg408 Mg 0.59335 0.16702 0.15472 0.0
Mg409 Mg 0.57503 0.24639 0.05914 0.0
O410 O 0.52045 0.26909 0.00655 0.0
Mg411 Mg 0.45549 0.2372 0.98572 0.0
Mg412 Mg 0.54356 0.34308 0.98009 0.0
C413 C 0.68358 0.31866 0.01413 0.0
C414 C 0.5311 0.36717 0.10434 0.0
O415 O 0.67404 0.13944 0.19527 0.0
O416 O 0.7336 0.15983 0.13034 0.0
O417 O 0.59632 0.23964 0.21759 0.0
O418 O 0.67711 0.27763 0.19157 0.0
O419 O 0.71496 0.29491 0.04878 0.0
O420 O 0.63235 0.30594 0.00941 0.0
C421 C 0.61814 0.12216 0.03424 0.0
O422 O 0.60862 0.16971 0.01335 0.0
O423 O 0.60768 0.11057 0.0842 0.0
O424 O 0.44906 0.36591 0.98284 0.0
O425 O 0.40042 0.29577 0.01718 0.0
O426 O 0.53643 0.31099 0.89334 0.0
C427 C 0.40649 0.34639 0.00764 0.0
O428 O 0.46336 0.25522 0.89869 0.0
O429 O 0.45751 0.1652 0.03904 0.0
C430 C 0.49598 0.28626 0.8715 0.0
O431 O 0.5168 0.19075 0.10436 0.0
O432 O 0.54216 0.31757 0.11624 0.0
O433 O 0.53917 0.3852 0.05719 0.0
C434 C 0.26751 0.6367 0.31414 0.0
C435 C 0.35462 0.77528 0.267 0.0
C436 C 0.50799 0.65692 0.40472 0.0
Mg437 Mg 0.289 0.73983 0.3722 0.0
O438 O 0.36013 0.7229 0.38011 0.0
Mg439 Mg 0.39638 0.66702 0.33503 0.0
Mg440 Mg 0.41469 0.74639 0.43061 0.0
O441 O 0.46927 0.76909 0.4832 0.0
Mg442 Mg 0.53423 0.7372 0.50403 0.0
Mg443 Mg 0.44616 0.84308 0.50966 0.0
C444 C 0.30615 0.81866 0.47562 0.0
C445 C 0.45862 0.86717 0.38541 0.0
O446 O 0.31569 0.63944 0.29448 0.0
O447 O 0.25613 0.65983 0.35941 0.0
O448 O 0.39341 0.73964 0.27216 0.0
O449 O 0.31261 0.77763 0.29818 0.0
O450 O 0.27476 0.79491 0.44097 0.0
O451 O 0.35737 0.80594 0.48034 0.0
C452 C 0.37158 0.62216 0.45551 0.0
O453 O 0.3811 0.66971 0.4764 0.0
O454 O 0.38205 0.61057 0.40555 0.0
O455 O 0.54067 0.86591 0.50691 0.0
O456 O 0.58931 0.79577 0.47257 0.0
O457 O 0.4533 0.81099 0.59641 0.0
C458 C 0.58323 0.84639 0.48211 0.0
O459 O 0.52637 0.75522 0.59106 0.0
O460 O 0.53222 0.6652 0.45071 0.0
C461 C 0.49375 0.78626 0.61825 0.0
O462 O 0.47293 0.69075 0.38539 0.0
O463 O 0.44756 0.81757 0.37351 0.0
O464 O 0.45056 0.8852 0.43256 0.0
C465 C 0.22222 0.35302 0.81414 0.0
C466 C 0.13511 0.21444 0.767 0.0
C467 C 0.98173 0.33279 0.90472 0.0
Mg468 Mg 0.20072 0.24988 0.8722 0.0
O469 O 0.12959 0.26682 0.88011 0.0
Mg470 Mg 0.09335 0.3227 0.83503 0.0
Mg471 Mg 0.07503 0.24332 0.93061 0.0
O472 O 0.02045 0.22063 0.9832 0.0
Mg473 Mg 0.95549 0.25252 0.00403 0.0
Mg474 Mg 0.04356 0.14664 0.00966 0.0
C475 C 0.18358 0.17106 0.97562 0.0
C476 C 0.0311 0.12255 0.88541 0.0
O477 O 0.17404 0.35027 0.79448 0.0
O478 O 0.2336 0.32988 0.85941 0.0
O479 O 0.09632 0.25007 0.77216 0.0
O480 O 0.17711 0.21208 0.79818 0.0
O481 O 0.21496 0.19481 0.94097 0.0
O482 O 0.13235 0.18378 0.98034 0.0
C483 C 0.11814 0.36756 0.95551 0.0
O484 O 0.10862 0.32001 0.9764 0.0
O485 O 0.10768 0.37914 0.90555 0.0
O486 O 0.94906 0.12381 0.00691 0.0
O487 O 0.90042 0.19394 0.97257 0.0
O488 O 0.03643 0.17873 0.09641 0.0
C489 C 0.90649 0.14333 0.98211 0.0
O490 O 0.96336 0.23449 0.09106 0.0
O491 O 0.95751 0.32451 0.95071 0.0
C492 C -0.00402 0.20346 0.11825 0.0
O493 O 0.0168 0.29897 0.88539 0.0
O494 O 0.04216 0.17215 0.87351 0.0
O495 O 0.03917 0.10452 0.93256 0.0
C496 C 0.67558 0.76749 0.85302 0.0
C497 C 0.7227 0.85462 0.71446 0.0
C498 C 0.58501 0.008 0.83283 0.0
Mg499 Mg 0.61749 0.78901 0.74989 0.0
O500 O 0.60959 0.86013 0.76686 0.0
Mg501 Mg 0.65468 0.89637 0.82274 0.0
Mg502 Mg 0.5591 0.9147 0.74336 0.0
O503 O 0.50653 0.9693 0.72066 0.0
Mg504 Mg 0.48569 0.03424 0.75256 0.0
Mg505 Mg 0.48005 0.94618 0.64667 0.0
C506 C 0.51408 0.80617 0.67111 0.0
C507 C 0.6043 0.95862 0.62257 0.0
O508 O 0.69522 0.81567 0.8503 0.0
O509 O 0.63032 0.7561 0.82988 0.0
O510 O 0.71756 0.8934 0.75011 0.0
O511 O 0.69151 0.81263 0.71209 0.0
O512 O 0.54873 0.77477 0.69482 0.0
O513 O 0.50937 0.85739 0.68382 0.0
C514 C 0.53421 0.8716 0.8676 0.0
O515 O 0.51331 0.88113 0.82005 0.0
O516 O 0.58416 0.88206 0.87918 0.0
O517 O 0.48279 0.04068 0.62385 0.0
O518 O 0.51713 0.08932 0.69398 0.0
O519 O 0.39331 0.9533 0.67877 0.0
C520 C 0.50759 0.08324 0.64337 0.0
O521 O 0.39866 0.02637 0.73454 0.0
O522 O 0.53902 0.03222 0.82455 0.0
C523 C 0.37147 0.99375 0.7035 0.0
O524 O 0.60433 0.97293 0.79901 0.0
O525 O 0.61621 0.94756 0.67217 0.0
O526 O 0.55715 0.95058 0.60455 0.0
C527 C 0.81414 0.22223 0.35302 0.0
C528 C 0.76702 0.1351 0.21446 0.0
C529 C 0.90471 0.98172 0.33283 0.0
Mg530 Mg 0.87223 0.20071 0.24989 0.0
O531 O 0.88013 0.12959 0.26686 0.0
Mg532 Mg 0.83504 0.09335 0.32274 0.0
Mg533 Mg 0.93062 0.07501 0.24336 0.0
O534 O 0.9832 0.02042 0.22066 0.0
Mg535 Mg 0.00403 0.95548 0.25256 0.0
Mg536 Mg 0.00967 0.04354 0.14667 0.0
C537 C 0.97565 0.18355 0.17111 0.0
C538 C 0.88543 0.03109 0.12257 0.0
O539 O 0.7945 0.17405 0.3503 0.0
O540 O 0.85941 0.23362 0.32988 0.0
O541 O 0.77217 0.09632 0.25011 0.0
O542 O 0.79822 0.17709 0.21209 0.0
O543 O 0.941 0.21495 0.19482 0.0
O544 O 0.98036 0.13232 0.18382 0.0
C545 C 0.95552 0.11812 0.3676 0.0
O546 O 0.97641 0.10859 0.32005 0.0
O547 O 0.90556 0.10766 0.37918 0.0
O548 O 0.00694 0.94904 0.12385 0.0
O549 O 0.97259 0.9004 0.19398 0.0
O550 O 0.09641 0.03642 0.17877 0.0
C551 C 0.98214 0.90648 0.14337 0.0
O552 O 0.09106 0.96335 0.23454 0.0
O553 O 0.9507 0.95749 0.32455 0.0
C554 C 0.11825 -0.00403 0.2035 0.0
O555 O 0.88539 0.01679 0.29901 0.0
O556 O 0.87351 0.04216 0.17217 0.0
O557 O 0.93257 0.03914 0.10455 0.0
C558 C 0.17558 0.72223 0.13673 0.0
C559 C 0.2227 0.6351 0.27529 0.0
C560 C 0.08501 0.48172 0.15692 0.0
Mg561 Mg 0.11749 0.70071 0.23986 0.0
O562 O 0.10959 0.62959 0.22289 0.0
Mg563 Mg 0.15468 0.59335 0.16701 0.0
Mg564 Mg 0.0591 0.57501 0.24639 0.0
O565 O 0.00653 0.52042 0.26909 0.0
Mg566 Mg 0.98569 0.45548 0.23719 0.0
Mg567 Mg 0.98005 0.54354 0.34308 0.0
C568 C 0.01408 0.68355 0.31864 0.0
C569 C 0.1043 0.53109 0.36718 0.0
O570 O 0.19522 0.67405 0.13945 0.0
O571 O 0.13032 0.73362 0.15987 0.0
O572 O 0.21756 0.59632 0.23964 0.0
O573 O 0.19151 0.67709 0.27766 0.0
O574 O 0.04873 0.71495 0.29493 0.0
O575 O 0.00937 0.63232 0.30593 0.0
C576 C 0.03421 0.61812 0.12215 0.0
O577 O 0.01331 0.60859 0.1697 0.0
O578 O 0.08416 0.60766 0.11057 0.0
O579 O 0.98279 0.44904 0.3659 0.0
O580 O 0.01713 0.4004 0.29577 0.0
O581 O 0.89331 0.53642 0.31098 0.0
C582 C 0.00759 0.40648 0.34638 0.0
O583 O 0.89866 0.46335 0.25521 0.0
O584 O 0.03902 0.45749 0.1652 0.0
C585 C 0.87147 0.49597 0.28625 0.0
O586 O 0.10433 0.51679 0.19074 0.0
O587 O 0.11621 0.54216 0.31758 0.0
O588 O 0.05715 0.53914 0.3852 0.0
C589 C 0.31414 0.26749 0.63673 0.0
C590 C 0.26702 0.35462 0.77529 0.0
C591 C 0.40471 0.508 0.65692 0.0
Mg592 Mg 0.37223 0.28901 0.73986 0.0
O593 O 0.38013 0.36013 0.72289 0.0
Mg594 Mg 0.33504 0.39637 0.66701 0.0
Mg595 Mg 0.43062 0.4147 0.74639 0.0
O596 O 0.4832 0.4693 0.76909 0.0
Mg597 Mg 0.50403 0.53424 0.73719 0.0
Mg598 Mg 0.50967 0.44618 0.84308 0.0
C599 C 0.47565 0.30617 0.81864 0.0
C600 C 0.38543 0.45862 0.86718 0.0
O601 O 0.2945 0.31567 0.63945 0.0
O602 O 0.35941 0.2561 0.65987 0.0
O603 O 0.27217 0.3934 0.73964 0.0
O604 O 0.29822 0.31263 0.77766 0.0
O605 O 0.441 0.27477 0.79493 0.0
O606 O 0.48036 0.35739 0.80593 0.0
C607 C 0.45552 0.3716 0.62215 0.0
O608 O 0.47641 0.38113 0.6697 0.0
O609 O 0.40556 0.38206 0.61057 0.0
O610 O 0.50694 0.54068 0.8659 0.0
O611 O 0.47259 0.58932 0.79577 0.0
O612 O 0.59641 0.4533 0.81098 0.0
C613 C 0.48214 0.58324 0.84638 0.0
O614 O 0.59106 0.52637 0.75521 0.0
O615 O 0.4507 0.53222 0.6652 0.0
C616 C 0.61825 0.49375 0.78625 0.0
O617 O 0.38539 0.47293 0.69074 0.0
O618 O 0.37351 0.44756 0.81758 0.0
O619 O 0.43257 0.45058 0.8852 0.0
C620 C 0.85306 0.67555 0.76753 0.0
C621 C 0.71444 0.72269 0.85463 0.0
C622 C 0.83279 0.58503 0.00803 0.0
Mg623 Mg 0.7499 0.61749 0.78901 0.0
O624 O 0.76686 0.60959 0.86013 0.0
Mg625 Mg 0.82271 0.65469 0.89639 0.0
Mg626 Mg 0.74334 0.55911 0.91471 0.0
O627 O 0.72063 0.50654 0.96931 0.0
Mg628 Mg 0.75253 0.4857 0.03426 0.0
Mg629 Mg 0.64665 0.48005 0.94618 0.0
C630 C 0.67111 0.51407 0.80616 0.0
C631 C 0.62255 0.6043 0.95861 0.0
O632 O 0.8503 0.69523 0.8157 0.0
O633 O 0.82988 0.63032 0.75609 0.0
O634 O 0.75009 0.71755 0.89341 0.0
O635 O 0.71208 0.6915 0.81263 0.0
O636 O 0.69483 0.54873 0.77477 0.0
O637 O 0.68381 0.50936 0.85739 0.0
C638 C 0.86758 0.53421 0.87163 0.0
O639 O 0.82004 0.51332 0.88116 0.0
O640 O 0.87917 0.58417 0.88209 0.0
O641 O 0.62381 0.48281 0.04068 0.0
O642 O 0.69395 0.51713 0.08935 0.0
O643 O 0.67875 0.39331 0.95333 0.0
C644 C 0.64333 0.50759 0.08326 0.0
O645 O 0.73455 0.39867 0.02638 0.0
O646 O 0.82451 0.53904 0.03225 0.0
C647 C 0.70353 0.37148 0.99375 0.0
O648 O 0.79897 0.60434 0.97295 0.0
O649 O 0.67214 0.61621 0.94755 0.0
O650 O 0.60453 0.55715 0.95056 0.0
C651 C 0.35306 0.81417 0.22222 0.0
C652 C 0.21444 0.76703 0.13512 0.0
C653 C 0.33279 0.90468 0.98172 0.0
Mg654 Mg 0.2499 0.87222 0.20074 0.0
O655 O 0.26686 0.88013 0.12962 0.0
Mg656 Mg 0.32271 0.83503 0.09336 0.0
Mg657 Mg 0.24334 0.93061 0.07504 0.0
O658 O 0.22063 0.98318 0.02044 0.0
Mg659 Mg 0.25253 0.00401 0.95549 0.0
Mg660 Mg 0.14665 0.00967 0.04357 0.0
C661 C 0.17111 0.97564 0.18359 0.0
C662 C 0.12255 0.88542 0.03114 0.0
O663 O 0.3503 0.79448 0.17405 0.0
O664 O 0.32988 0.8594 0.23366 0.0
O665 O 0.25009 0.77217 0.09634 0.0
O666 O 0.21208 0.79822 0.17712 0.0
O667 O 0.19483 0.94099 0.21498 0.0
O668 O 0.18381 0.98036 0.13236 0.0
C669 C 0.36758 0.9555 0.11812 0.0
O670 O 0.32004 0.9764 0.1086 0.0
O671 O 0.37917 0.90555 0.10766 0.0
O672 O 0.12381 0.00691 0.94907 0.0
O673 O 0.19395 0.97259 0.9004 0.0
O674 O 0.17875 0.09641 0.03642 0.0
C675 C 0.14333 0.98213 0.90649 0.0
O676 O 0.23455 0.09105 0.96337 0.0
O677 O 0.32451 0.95067 0.9575 0.0
C678 C 0.20353 0.11824 -0.004 0.0
O679 O 0.29897 0.88537 0.0168 0.0
O680 O 0.17214 0.8735 0.0422 0.0
O681 O 0.10453 0.93256 0.03919 0.0
C682 C 0.13666 0.17555 0.72222 0.0
C683 C 0.27529 0.22269 0.63512 0.0
C684 C 0.15694 0.08503 0.48172 0.0
Mg685 Mg 0.23983 0.11749 0.70074 0.0
O686 O 0.22287 0.10959 0.62962 0.0
Mg687 Mg 0.16701 0.15469 0.59336 0.0
Mg688 Mg 0.24638 0.05911 0.57504 0.0
O689 O 0.2691 0.00654 0.52044 0.0
Mg690 Mg 0.23719 0.9857 0.45549 0.0
Mg691 Mg 0.34307 0.98005 0.54357 0.0
C692 C 0.31862 0.01407 0.68359 0.0
C693 C 0.36718 0.1043 0.53114 0.0
O694 O 0.13943 0.19523 0.67405 0.0
O695 O 0.15984 0.13032 0.73366 0.0
O696 O 0.23964 0.21755 0.59634 0.0
O697 O 0.27765 0.1915 0.67712 0.0
O698 O 0.29489 0.04873 0.71498 0.0
O699 O 0.30591 0.00936 0.63236 0.0
C700 C 0.12214 0.03421 0.61812 0.0
O701 O 0.16969 0.01332 0.6086 0.0
O702 O 0.11056 0.08417 0.60766 0.0
O703 O 0.36591 0.98281 0.44907 0.0
O704 O 0.29578 0.01713 0.4004 0.0
O705 O 0.31098 0.89331 0.53642 0.0
C706 C 0.34639 0.00759 0.40649 0.0
O707 O 0.25518 0.89867 0.46337 0.0
O708 O 0.16521 0.03904 0.4575 0.0
C709 C 0.28619 0.87148 0.496 0.0
O710 O 0.19075 0.10434 0.5168 0.0
O711 O 0.31758 0.11621 0.5422 0.0
O712 O 0.38519 0.05715 0.53919 0.0
C713 C 0.63666 0.31417 0.26753 0.0
C714 C 0.77529 0.26703 0.35463 0.0
C715 C 0.65694 0.40468 0.50803 0.0
Mg716 Mg 0.73983 0.37222 0.28901 0.0
O717 O 0.72287 0.38013 0.36013 0.0
Mg718 Mg 0.66701 0.33503 0.39639 0.0
Mg719 Mg 0.74638 0.43061 0.41471 0.0
O720 O 0.7691 0.48318 0.46931 0.0
Mg721 Mg 0.73719 0.50401 0.53426 0.0
Mg722 Mg 0.84307 0.50967 0.44618 0.0
C723 C 0.81862 0.47564 0.30616 0.0
C724 C 0.86718 0.38542 0.45861 0.0
O725 O 0.63943 0.29448 0.3157 0.0
O726 O 0.65984 0.3594 0.25609 0.0
O727 O 0.73964 0.27217 0.39341 0.0
O728 O 0.77765 0.29822 0.31263 0.0
O729 O 0.79489 0.44099 0.27477 0.0
O730 O 0.80591 0.48036 0.35739 0.0
C731 C 0.62214 0.4555 0.37163 0.0
O732 O 0.66969 0.4764 0.38116 0.0
O733 O 0.61056 0.40555 0.38209 0.0
O734 O 0.86591 0.50691 0.54068 0.0
O735 O 0.79578 0.47259 0.58935 0.0
O736 O 0.81098 0.59641 0.45333 0.0
C737 C 0.84639 0.48213 0.58326 0.0
O738 O 0.75518 0.59105 0.52638 0.0
O739 O 0.66521 0.45067 0.53225 0.0
C740 C 0.78619 0.61824 0.49375 0.0
O741 O 0.69075 0.38537 0.47295 0.0
O742 O 0.81758 0.3735 0.44755 0.0
O743 O 0.88519 0.43256 0.45056 0.0
loop_
_geom_bond_atom_site_label_1
_geom_bond_atom_site_label_2
_geom_bond_distance
_geom_bond_site_symmetry_2
_ccdc_geom_bond_type
C0 O12 1.241 . S
C0 O13 1.280 . S
C1 O14 1.277 . S
C1 O15 1.245 1_455 S
C2 O26 1.247 . S
C2 O28 1.289 . S
Mg3 O4 1.926 1_655 S
Mg3 O13 1.984 . S
Mg3 O15 1.988 . S
Mg3 O16 2.061 1_655 S
O4 Mg3 1.926 1_455 S
O4 Mg5 1.986 . S
O4 Mg6 1.917 . S
Mg5 O4 1.986 . S
Mg5 O12 2.042 1_455 S
Mg5 O14 2.041 . S
Mg5 O20 2.038 . S
Mg5 O28 2.238 . S
Mg6 O4 1.917 . S
Mg6 O7 1.917 . S
Mg6 O17 2.106 . S
Mg6 O19 2.079 . S
Mg6 O28 2.106 . S
Mg6 O29 2.079 . S
O7 Mg6 1.917 . S
O7 Mg8 1.926 . S
O7 Mg9 1.986 . S
Mg8 O7 1.926 . S
Mg8 O22 1.984 . S
Mg8 O25 1.988 . S
Mg8 O26 2.061 . S
Mg9 O7 1.986 . S
Mg9 O17 2.238 . S
Mg9 O21 2.042 . S
Mg9 O23 2.041 . S
Mg9 O30 2.038 . S
C10 O16 1.247 . S
C10 O17 1.289 . S
C11 O29 1.245 . S
C11 O30 1.274 . S
O12 C0 1.241 . S
O12 Mg5 2.042 1_655 S
O13 C0 1.280 . S
O13 Mg3 1.984 . S
O14 C1 1.277 . S
O14 Mg5 2.041 . S
O15 C1 1.245 1_655 S
O15 Mg3 1.988 . S
O16 Mg3 2.061 1_455 S
O16 C10 1.247 . S
O17 Mg6 2.106 . S
O17 Mg9 2.238 . S
O17 C10 1.289 . S
C18 O19 1.245 . S
C18 O20 1.274 . S
O19 Mg6 2.079 . S
O19 C18 1.245 . S
O20 Mg5 2.038 . S
O20 C18 1.274 . S
O21 Mg9 2.042 . S
O21 C24 1.241 . S
O22 Mg8 1.984 . S
O22 C24 1.280 . S
O23 Mg9 2.041 . S
O23 C27 1.277 . S
C24 O21 1.241 . S
C24 O22 1.280 . S
O25 Mg8 1.988 . S
O25 C27 1.245 . S
O26 C2 1.247 . S
O26 Mg8 2.061 . S
C27 O23 1.277 . S
C27 O25 1.245 . S
O28 C2 1.289 . S
O28 Mg5 2.238 . S
O28 Mg6 2.106 . S
O29 Mg6 2.079 . S
O29 C11 1.245 . S
O30 Mg9 2.038 . S
O30 C11 1.274 . S
C31 O43 1.241 . S
C31 O44 1.280 . S
C32 O45 1.277 . S
C32 O46 1.245 . S
C33 O57 1.247 1_554 S
C33 O59 1.289 1_554 S
Mg34 O35 1.926 . S
Mg34 O44 1.984 . S
Mg34 O46 1.988 1_556 S
Mg34 O47 2.061 . S
O35 Mg34 1.926 . S
O35 Mg36 1.986 . S
O35 Mg37 1.917 . S
Mg36 O35 1.986 . S
Mg36 O43 2.042 . S
Mg36 O45 2.041 1_556 S
Mg36 O51 2.038 . S
Mg36 O59 2.238 . S
Mg37 O35 1.917 . S
Mg37 O38 1.917 . S
Mg37 O48 2.106 . S
Mg37 O50 2.079 . S
Mg37 O59 2.106 . S
Mg37 O60 2.079 . S
O38 Mg37 1.917 . S
O38 Mg39 1.926 . S
O38 Mg40 1.986 . S
Mg39 O38 1.926 . S
Mg39 O53 1.984 . S
Mg39 O56 1.988 . S
Mg39 O57 2.061 . S
Mg40 O38 1.986 . S
Mg40 O48 2.238 . S
Mg40 O52 2.042 . S
Mg40 O54 2.041 . S
Mg40 O61 2.038 . S
C41 O47 1.247 . S
C41 O48 1.289 . S
C42 O60 1.245 . S
C42 O61 1.274 . S
O43 C31 1.241 . S
O43 Mg36 2.042 . S
O44 C31 1.280 . S
O44 Mg34 1.984 . S
O45 C32 1.277 . S
O45 Mg36 2.041 1_554 S
O46 C32 1.245 . S
O46 Mg34 1.988 1_554 S
O47 Mg34 2.061 . S
O47 C41 1.247 . S
O48 Mg37 2.106 . S
O48 Mg40 2.238 . S
O48 C41 1.289 . S
C49 O50 1.245 . S
C49 O51 1.274 . S
O50 Mg37 2.079 . S
O50 C49 1.245 . S
O51 Mg36 2.038 . S
O51 C49 1.274 . S
O52 Mg40 2.042 . S
O52 C55 1.241 . S
O53 Mg39 1.984 . S
O53 C55 1.280 . S
O54 Mg40 2.041 . S
O54 C58 1.277 . S
C55 O52 1.241 . S
C55 O53 1.280 . S
O56 Mg39 1.988 . S
O56 C58 1.245 . S
O57 C33 1.247 1_556 S
O57 Mg39 2.061 . S
C58 O54 1.277 . S
C58 O56 1.245 . S
O59 C33 1.289 1_556 S
O59 Mg36 2.238 . S
O59 Mg37 2.106 . S
O60 Mg37 2.079 . S
O60 C42 1.245 . S
O61 Mg40 2.038 . S
O61 C42 1.274 . S
C62 O74 1.241 . S
C62 O75 1.280 . S
C63 O76 1.277 . S
C63 O77 1.245 . S
C64 O88 1.247 . S
C64 O90 1.289 . S
Mg65 O66 1.926 . S
Mg65 O75 1.984 . S
Mg65 O77 1.988 . S
Mg65 O78 2.061 . S
O66 Mg65 1.926 . S
O66 Mg67 1.986 . S
O66 Mg68 1.917 . S
Mg67 O66 1.986 . S
Mg67 O74 2.042 . S
Mg67 O76 2.041 . S
Mg67 O82 2.038 . S
Mg67 O90 2.238 . S
Mg68 O66 1.917 . S
Mg68 O69 1.917 . S
Mg68 O79 2.106 . S
Mg68 O81 2.079 . S
Mg68 O90 2.106 . S
Mg68 O91 2.079 . S
O69 Mg68 1.917 . S
O69 Mg70 1.926 . S
O69 Mg71 1.986 . S
Mg70 O69 1.926 . S
Mg70 O84 1.984 . S
Mg70 O87 1.988 . S
Mg70 O88 2.061 . S
Mg71 O69 1.986 . S
Mg71 O79 2.238 . S
Mg71 O83 2.042 . S
Mg71 O85 2.041 . S
Mg71 O92 2.038 . S
C72 O78 1.247 . S
C72 O79 1.289 . S
C73 O91 1.245 . S
C73 O92 1.274 . S
O74 C62 1.241 . S
O74 Mg67 2.042 . S
O75 C62 1.280 . S
O75 Mg65 1.984 . S
O76 C63 1.277 . S
O76 Mg67 2.041 . S
O77 C63 1.245 . S
O77 Mg65 1.988 . S
O78 Mg65 2.061 . S
O78 C72 1.247 . S
O79 Mg68 2.106 . S
O79 Mg71 2.238 . S
O79 C72 1.289 . S
C80 O81 1.245 . S
C80 O82 1.274 . S
O81 Mg68 2.079 . S
O81 C80 1.245 . S
O82 Mg67 2.038 . S
O82 C80 1.274 . S
O83 Mg71 2.042 . S
O83 C86 1.241 . S
O84 Mg70 1.984 . S
O84 C86 1.280 . S
O85 Mg71 2.041 . S
O85 C89 1.277 . S
C86 O83 1.241 . S
C86 O84 1.280 . S
O87 Mg70 1.988 . S
O87 C89 1.245 . S
O88 C64 1.247 . S
O88 Mg70 2.061 . S
C89 O85 1.277 . S
C89 O87 1.245 . S
O90 C64 1.289 . S
O90 Mg67 2.238 . S
O90 Mg68 2.106 . S
O91 Mg68 2.079 . S
O91 C73 1.245 . S
O92 Mg71 2.038 . S
O92 C73 1.274 . S
C93 O105 1.241 . S
C93 O106 1.280 . S
C94 O107 1.277 . S
C94 O108 1.245 1_655 S
C95 O119 1.247 1_556 S
C95 O121 1.289 1_556 S
Mg96 O97 1.926 1_455 S
Mg96 O106 1.984 . S
Mg96 O108 1.988 1_554 S
Mg96 O109 2.061 1_455 S
O97 Mg96 1.926 1_655 S
O97 Mg98 1.986 . S
O97 Mg99 1.917 . S
Mg98 O97 1.986 . S
Mg98 O105 2.042 1_655 S
Mg98 O107 2.041 1_554 S
Mg98 O113 2.038 . S
Mg98 O121 2.238 . S
Mg99 O97 1.917 . S
Mg99 O100 1.917 . S
Mg99 O110 2.106 . S
Mg99 O112 2.079 . S
Mg99 O121 2.106 . S
Mg99 O122 2.079 . S
O100 Mg99 1.917 . S
O100 Mg101 1.926 . S
O100 Mg102 1.986 . S
Mg101 O100 1.926 . S
Mg101 O115 1.984 . S
Mg101 O118 1.988 . S
Mg101 O119 2.061 . S
Mg102 O100 1.986 . S
Mg102 O110 2.238 . S
Mg102 O114 2.042 . S
Mg102 O116 2.041 . S
Mg102 O123 2.038 . S
C103 O109 1.247 . S
C103 O110 1.289 . S
C104 O122 1.245 . S
C104 O123 1.274 . S
O105 C93 1.241 . S
O105 Mg98 2.042 1_455 S
O106 C93 1.280 . S
O106 Mg96 1.984 . S
O107 C94 1.277 . S
O107 Mg98 2.041 1_556 S
O108 C94 1.245 1_455 S
O108 Mg96 1.988 1_556 S
O109 Mg96 2.061 1_655 S
O109 C103 1.247 . S
O110 Mg99 2.106 . S
O110 Mg102 2.238 . S
O110 C103 1.289 . S
C111 O112 1.245 . S
C111 O113 1.274 . S
O112 Mg99 2.079 . S
O112 C111 1.245 . S
O113 Mg98 2.038 . S
O113 C111 1.274 . S
O114 Mg102 2.042 . S
O114 C117 1.241 . S
O115 Mg101 1.984 . S
O115 C117 1.280 . S
O116 Mg102 2.041 . S
O116 C120 1.277 . S
C117 O114 1.241 . S
C117 O115 1.280 . S
O118 Mg101 1.988 . S
O118 C120 1.245 . S
O119 C95 1.247 1_554 S
O119 Mg101 2.061 . S
C120 O116 1.277 . S
C120 O118 1.245 . S
O121 C95 1.289 1_554 S
O121 Mg98 2.238 . S
O121 Mg99 2.106 . S
O122 Mg99 2.079 . S
O122 C104 1.245 . S
O123 Mg102 2.038 . S
O123 C104 1.274 . S
C124 O136 1.241 . S
C124 O137 1.280 . S
C125 O138 1.277 . S
C125 O139 1.245 1_545 S
C126 O150 1.247 . S
C126 O152 1.289 . S
Mg127 O128 1.926 1_565 S
Mg127 O137 1.984 . S
Mg127 O139 1.988 . S
Mg127 O140 2.061 1_565 S
O128 Mg127 1.926 1_545 S
O128 Mg129 1.986 . S
O128 Mg130 1.917 . S
Mg129 O128 1.986 . S
Mg129 O136 2.042 1_545 S
Mg129 O138 2.041 . S
Mg129 O144 2.038 . S
Mg129 O152 2.238 . S
Mg130 O128 1.917 . S
Mg130 O131 1.917 . S
Mg130 O141 2.106 . S
Mg130 O143 2.079 . S
Mg130 O152 2.106 . S
Mg130 O153 2.079 . S
O131 Mg130 1.917 . S
O131 Mg132 1.926 . S
O131 Mg133 1.986 . S
Mg132 O131 1.926 . S
Mg132 O146 1.984 . S
Mg132 O149 1.988 . S
Mg132 O150 2.061 . S
Mg133 O131 1.986 . S
Mg133 O141 2.238 . S
Mg133 O145 2.042 . S
Mg133 O147 2.041 . S
Mg133 O154 2.038 . S
C134 O140 1.247 . S
C134 O141 1.289 . S
C135 O153 1.245 . S
C135 O154 1.274 . S
O136 C124 1.241 . S
O136 Mg129 2.042 1_565 S
O137 C124 1.280 . S
O137 Mg127 1.984 . S
O138 C125 1.277 . S
O138 Mg129 2.041 . S
O139 C125 1.245 1_565 S
O139 Mg127 1.988 . S
O140 Mg127 2.061 1_545 S
O140 C134 1.247 . S
O141 Mg130 2.106 . S
O141 Mg133 2.238 . S
O141 C134 1.289 . S
C142 O143 1.245 . S
C142 O144 1.274 . S
O143 Mg130 2.079 . S
O143 C142 1.245 . S
O144 Mg129 2.038 . S
O144 C142 1.274 . S
O145 Mg133 2.042 . S
O145 C148 1.241 . S
O146 Mg132 1.984 . S
O146 C148 1.280 . S
O147 Mg133 2.041 . S
O147 C151 1.277 . S
C148 O145 1.241 . S
C148 O146 1.280 . S
O149 Mg132 1.988 . S
O149 C151 1.245 . S
O150 C126 1.247 . S
O150 Mg132 2.061 . S
C151 O147 1.277 . S
C151 O149 1.245 . S
O152 C126 1.289 . S
O152 Mg129 2.238 . S
O152 Mg130 2.106 . S
O153 Mg130 2.079 . S
O153 C135 1.245 . S
O154 Mg133 2.038 . S
O154 C135 1.274 . S
C155 O167 1.241 . S
C155 O168 1.280 . S
C156 O169 1.277 . S
C156 O170 1.245 1_565 S
C157 O181 1.247 1_655 S
C157 O183 1.289 1_655 S
Mg158 O159 1.926 1_545 S
Mg158 O168 1.984 . S
Mg158 O170 1.988 1_455 S
Mg158 O171 2.061 1_545 S
O159 Mg158 1.926 1_565 S
O159 Mg160 1.986 . S
O159 Mg161 1.917 . S
Mg160 O159 1.986 . S
Mg160 O167 2.042 1_565 S
Mg160 O169 2.041 1_455 S
Mg160 O175 2.038 . S
Mg160 O183 2.238 . S
Mg161 O159 1.917 . S
Mg161 O162 1.917 . S
Mg161 O172 2.106 . S
Mg161 O174 2.079 . S
Mg161 O183 2.106 . S
Mg161 O184 2.079 . S
O162 Mg161 1.917 . S
O162 Mg163 1.926 . S
O162 Mg164 1.986 . S
Mg163 O162 1.926 . S
Mg163 O177 1.984 . S
Mg163 O180 1.988 . S
Mg163 O181 2.061 . S
Mg164 O162 1.986 . S
Mg164 O172 2.238 . S
Mg164 O176 2.042 . S
Mg164 O178 2.041 . S
Mg164 O185 2.038 . S
C165 O171 1.247 . S
C165 O172 1.289 . S
C166 O184 1.245 . S
C166 O185 1.274 . S
O167 C155 1.241 . S
O167 Mg160 2.042 1_545 S
O168 C155 1.280 . S
O168 Mg158 1.984 . S
O169 C156 1.277 . S
O169 Mg160 2.041 1_655 S
O170 C156 1.245 1_545 S
O170 Mg158 1.988 1_655 S
O171 Mg158 2.061 1_565 S
O171 C165 1.247 . S
O172 Mg161 2.106 . S
O172 Mg164 2.238 . S
O172 C165 1.289 . S
C173 O174 1.245 . S
C173 O175 1.274 . S
O174 Mg161 2.079 . S
O174 C173 1.245 . S
O175 Mg160 2.038 . S
O175 C173 1.274 . S
O176 Mg164 2.042 . S
O176 C179 1.241 . S
O177 Mg163 1.984 . S
O177 C179 1.280 . S
O178 Mg164 2.041 . S
O178 C182 1.277 . S
C179 O176 1.241 . S
C179 O177 1.280 . S
O180 Mg163 1.988 . S
O180 C182 1.245 . S
O181 C157 1.247 1_455 S
O181 Mg163 2.061 . S
C182 O178 1.277 . S
C182 O180 1.245 . S
O183 C157 1.289 1_455 S
O183 Mg160 2.238 . S
O183 Mg161 2.106 . S
O184 Mg161 2.079 . S
O184 C166 1.245 . S
O185 Mg164 2.038 . S
O185 C166 1.274 . S
C186 O198 1.241 . S
C186 O199 1.280 . S
C187 O200 1.277 . S
C187 O201 1.245 . S
C188 O212 1.247 1_455 S
C188 O214 1.289 1_455 S
Mg189 O190 1.926 . S
Mg189 O199 1.984 . S
Mg189 O201 1.988 1_655 S
Mg189 O202 2.061 . S
O190 Mg189 1.926 . S
O190 Mg191 1.986 . S
O190 Mg192 1.917 . S
Mg191 O190 1.986 . S
Mg191 O198 2.042 . S
Mg191 O200 2.041 1_655 S
Mg191 O206 2.038 . S
Mg191 O214 2.238 . S
Mg192 O190 1.917 . S
Mg192 O193 1.917 . S
Mg192 O203 2.106 . S
Mg192 O205 2.079 . S
Mg192 O214 2.106 . S
Mg192 O215 2.079 . S
O193 Mg192 1.917 . S
O193 Mg194 1.926 . S
O193 Mg195 1.986 . S
Mg194 O193 1.926 . S
Mg194 O208 1.984 . S
Mg194 O211 1.988 . S
Mg194 O212 2.061 . S
Mg195 O193 1.986 . S
Mg195 O203 2.238 . S
Mg195 O207 2.042 . S
Mg195 O209 2.041 . S
Mg195 O216 2.038 . S
C196 O202 1.247 . S
C196 O203 1.289 . S
C197 O215 1.245 . S
C197 O216 1.274 . S
O198 C186 1.241 . S
O198 Mg191 2.042 . S
O199 C186 1.280 . S
O199 Mg189 1.984 . S
O200 C187 1.277 . S
O200 Mg191 2.041 1_455 S
O201 C187 1.245 . S
O201 Mg189 1.988 1_455 S
O202 Mg189 2.061 . S
O202 C196 1.247 . S
O203 Mg192 2.106 . S
O203 Mg195 2.238 . S
O203 C196 1.289 . S
C204 O205 1.245 . S
C204 O206 1.274 . S
O205 Mg192 2.079 . S
O205 C204 1.245 . S
O206 Mg191 2.038 . S
O206 C204 1.274 . S
O207 Mg195 2.042 . S
O207 C210 1.241 . S
O208 Mg194 1.984 . S
O208 C210 1.280 . S
O209 Mg195 2.041 . S
O209 C213 1.277 . S
C210 O207 1.241 . S
C210 O208 1.280 . S
O211 Mg194 1.988 . S
O211 C213 1.245 . S
O212 C188 1.247 1_655 S
O212 Mg194 2.061 . S
C213 O209 1.277 . S
C213 O211 1.245 . S
O214 C188 1.289 1_655 S
O214 Mg191 2.238 . S
O214 Mg192 2.106 . S
O215 Mg192 2.079 . S
O215 C197 1.245 . S
O216 Mg195 2.038 . S
O216 C197 1.274 . S
C217 O229 1.241 . S
C217 O230 1.280 . S
C218 O231 1.277 . S
C218 O232 1.245 . S
C219 O243 1.247 . S
C219 O245 1.289 . S
Mg220 O221 1.926 . S
Mg220 O230 1.984 . S
Mg220 O232 1.988 . S
Mg220 O233 2.061 . S
O221 Mg220 1.926 . S
O221 Mg222 1.986 . S
O221 Mg223 1.917 . S
Mg222 O221 1.986 . S
Mg222 O229 2.042 . S
Mg222 O231 2.041 . S
Mg222 O237 2.038 . S
Mg222 O245 2.238 . S
Mg223 O221 1.917 . S
Mg223 O224 1.917 . S
Mg223 O234 2.106 . S
Mg223 O236 2.079 . S
Mg223 O245 2.106 . S
Mg223 O246 2.079 . S
O224 Mg223 1.917 . S
O224 Mg225 1.926 . S
O224 Mg226 1.986 . S
Mg225 O224 1.926 . S
Mg225 O239 1.984 . S
Mg225 O242 1.988 . S
Mg225 O243 2.061 . S
Mg226 O224 1.986 . S
Mg226 O234 2.238 . S
Mg226 O238 2.042 . S
Mg226 O240 2.041 . S
Mg226 O247 2.038 . S
C227 O233 1.247 . S
C227 O234 1.289 . S
C228 O246 1.245 . S
C228 O247 1.274 . S
O229 C217 1.241 . S
O229 Mg222 2.042 . S
O230 C217 1.280 . S
O230 Mg220 1.984 . S
O231 C218 1.277 . S
O231 Mg222 2.041 . S
O232 C218 1.245 . S
O232 Mg220 1.988 . S
O233 Mg220 2.061 . S
O233 C227 1.247 . S
O234 Mg223 2.106 . S
O234 Mg226 2.238 . S
O234 C227 1.289 . S
C235 O236 1.245 . S
C235 O237 1.274 . S
O236 Mg223 2.079 . S
O236 C235 1.245 . S
O237 Mg222 2.038 . S
O237 C235 1.274 . S
O238 Mg226 2.042 . S
O238 C241 1.241 . S
O239 Mg225 1.984 . S
O239 C241 1.280 . S
O240 Mg226 2.041 . S
O240 C244 1.277 . S
C241 O238 1.241 . S
C241 O239 1.280 . S
O242 Mg225 1.988 . S
O242 C244 1.245 . S
O243 C219 1.247 . S
O243 Mg225 2.061 . S
C244 O240 1.277 . S
C244 O242 1.245 . S
O245 C219 1.289 . S
O245 Mg222 2.238 . S
O245 Mg223 2.106 . S
O246 Mg223 2.079 . S
O246 C228 1.245 . S
O247 Mg226 2.038 . S
O247 C228 1.274 . S
C248 O260 1.241 . S
C248 O261 1.280 . S
C249 O262 1.277 . S
C249 O263 1.245 1_554 S
C250 O274 1.247 . S
C250 O276 1.289 . S
Mg251 O252 1.926 1_556 S
Mg251 O261 1.984 . S
Mg251 O263 1.988 . S
Mg251 O264 2.061 1_556 S
O252 Mg251 1.926 1_554 S
O252 Mg253 1.986 . S
O252 Mg254 1.917 . S
Mg253 O252 1.986 . S
Mg253 O260 2.042 1_554 S
Mg253 O262 2.041 . S
Mg253 O268 2.038 . S
Mg253 O276 2.238 . S
Mg254 O252 1.917 . S
Mg254 O255 1.917 . S
Mg254 O265 2.106 . S
Mg254 O267 2.079 . S
Mg254 O276 2.106 . S
Mg254 O277 2.079 . S
O255 Mg254 1.917 . S
O255 Mg256 1.926 . S
O255 Mg257 1.986 . S
Mg256 O255 1.926 . S
Mg256 O270 1.984 . S
Mg256 O273 1.988 . S
Mg256 O274 2.061 . S
Mg257 O255 1.986 . S
Mg257 O265 2.238 . S
Mg257 O269 2.042 . S
Mg257 O271 2.041 . S
Mg257 O278 2.038 . S
C258 O264 1.247 . S
C258 O265 1.289 . S
C259 O277 1.245 . S
C259 O278 1.274 . S
O260 C248 1.241 . S
O260 Mg253 2.042 1_556 S
O261 C248 1.280 . S
O261 Mg251 1.984 . S
O262 C249 1.277 . S
O262 Mg253 2.041 . S
O263 C249 1.245 1_556 S
O263 Mg251 1.988 . S
O264 Mg251 2.061 1_554 S
O264 C258 1.247 . S
O265 Mg254 2.106 . S
O265 Mg257 2.238 . S
O265 C258 1.289 . S
C266 O267 1.245 . S
C266 O268 1.274 . S
O267 Mg254 2.079 . S
O267 C266 1.245 . S
O268 Mg253 2.038 . S
O268 C266 1.274 . S
O269 Mg257 2.042 . S
O269 C272 1.241 . S
O270 Mg256 1.984 . S
O270 C272 1.280 . S
O271 Mg257 2.041 . S
O271 C275 1.277 . S
C272 O269 1.241 . S
C272 O270 1.280 . S
O273 Mg256 1.988 . S
O273 C275 1.245 . S
O274 C250 1.247 . S
O274 Mg256 2.061 . S
C275 O271 1.277 . S
C275 O273 1.245 . S
O276 C250 1.289 . S
O276 Mg253 2.238 . S
O276 Mg254 2.106 . S
O277 Mg254 2.079 . S
O277 C259 1.245 . S
O278 Mg257 2.038 . S
O278 C259 1.274 . S
C279 O291 1.241 . S
C279 O292 1.280 . S
C280 O293 1.277 . S
C280 O294 1.245 1_556 S
C281 O305 1.247 1_565 S
C281 O307 1.289 1_565 S
Mg282 O283 1.926 1_554 S
Mg282 O292 1.984 . S
Mg282 O294 1.988 1_545 S
Mg282 O295 2.061 1_554 S
O283 Mg282 1.926 1_556 S
O283 Mg284 1.986 . S
O283 Mg285 1.917 . S
Mg284 O283 1.986 . S
Mg284 O291 2.042 1_556 S
Mg284 O293 2.041 1_545 S
Mg284 O299 2.038 . S
Mg284 O307 2.238 . S
Mg285 O283 1.917 . S
Mg285 O286 1.917 . S
Mg285 O296 2.106 . S
Mg285 O298 2.079 . S
Mg285 O307 2.106 . S
Mg285 O308 2.079 . S
O286 Mg285 1.917 . S
O286 Mg287 1.926 . S
O286 Mg288 1.986 . S
Mg287 O286 1.926 . S
Mg287 O301 1.984 . S
Mg287 O304 1.988 . S
Mg287 O305 2.061 . S
Mg288 O286 1.986 . S
Mg288 O296 2.238 . S
Mg288 O300 2.042 . S
Mg288 O302 2.041 . S
Mg288 O309 2.038 . S
C289 O295 1.247 . S
C289 O296 1.289 . S
C290 O308 1.245 . S
C290 O309 1.274 . S
O291 C279 1.241 . S
O291 Mg284 2.042 1_554 S
O292 C279 1.280 . S
O292 Mg282 1.984 . S
O293 C280 1.277 . S
O293 Mg284 2.041 1_565 S
O294 C280 1.245 1_554 S
O294 Mg282 1.988 1_565 S
O295 Mg282 2.061 1_556 S
O295 C289 1.247 . S
O296 Mg285 2.106 . S
O296 Mg288 2.238 . S
O296 C289 1.289 . S
C297 O298 1.245 . S
C297 O299 1.274 . S
O298 Mg285 2.079 . S
O298 C297 1.245 . S
O299 Mg284 2.038 . S
O299 C297 1.274 . S
O300 Mg288 2.042 . S
O300 C303 1.241 . S
O301 Mg287 1.984 . S
O301 C303 1.280 . S
O302 Mg288 2.041 . S
O302 C306 1.277 . S
C303 O300 1.241 . S
C303 O301 1.280 . S
O304 Mg287 1.988 . S
O304 C306 1.245 . S
O305 C281 1.247 1_545 S
O305 Mg287 2.061 . S
C306 O302 1.277 . S
C306 O304 1.245 . S
O307 C281 1.289 1_545 S
O307 Mg284 2.238 . S
O307 Mg285 2.106 . S
O308 Mg285 2.079 . S
O308 C290 1.245 . S
O309 Mg288 2.038 . S
O309 C290 1.274 . S
C310 O322 1.241 . S
C310 O323 1.280 . S
C311 O324 1.277 . S
C311 O325 1.245 . S
C312 O336 1.247 1_545 S
C312 O338 1.289 1_545 S
Mg313 O314 1.926 . S
Mg313 O323 1.984 . S
Mg313 O325 1.988 1_565 S
Mg313 O326 2.061 . S
O314 Mg313 1.926 . S
O314 Mg315 1.986 . S
O314 Mg316 1.917 . S
Mg315 O314 1.986 . S
Mg315 O322 2.042 . S
Mg315 O324 2.041 1_565 S
Mg315 O330 2.038 . S
Mg315 O338 2.238 . S
Mg316 O314 1.917 . S
Mg316 O317 1.917 . S
Mg316 O327 2.106 . S
Mg316 O329 2.079 . S
Mg316 O338 2.106 . S
Mg316 O339 2.079 . S
O317 Mg316 1.917 . S
O317 Mg318 1.926 . S
O317 Mg319 1.986 . S
Mg318 O317 1.926 . S
Mg318 O332 1.984 . S
Mg318 O335 1.988 . S
Mg318 O336 2.061 . S
Mg319 O317 1.986 . S
Mg319 O327 2.238 . S
Mg319 O331 2.042 . S
Mg319 O333 2.041 . S
Mg319 O340 2.038 . S
C320 O326 1.247 . S
C320 O327 1.289 . S
C321 O339 1.245 . S
C321 O340 1.274 . S
O322 C310 1.241 . S
O322 Mg315 2.042 . S
O323 C310 1.280 . S
O323 Mg313 1.984 . S
O324 C311 1.277 . S
O324 Mg315 2.041 1_545 S
O325 C311 1.245 . S
O325 Mg313 1.988 1_545 S
O326 Mg313 2.061 . S
O326 C320 1.247 . S
O327 Mg316 2.106 . S
O327 Mg319 2.238 . S
O327 C320 1.289 . S
C328 O329 1.245 . S
C328 O330 1.274 . S
O329 Mg316 2.079 . S
O329 C328 1.245 . S
O330 Mg315 2.038 . S
O330 C328 1.274 . S
O331 Mg319 2.042 . S
O331 C334 1.241 . S
O332 Mg318 1.984 . S
O332 C334 1.280 . S
O333 Mg319 2.041 . S
O333 C337 1.277 . S
C334 O331 1.241 . S
C334 O332 1.280 . S
O335 Mg318 1.988 . S
O335 C337 1.245 . S
O336 C312 1.247 1_565 S
O336 Mg318 2.061 . S
C337 O333 1.277 . S
C337 O335 1.245 . S
O338 C312 1.289 1_565 S
O338 Mg315 2.238 . S
O338 Mg316 2.106 . S
O339 Mg316 2.079 . S
O339 C321 1.245 . S
O340 Mg319 2.038 . S
O340 C321 1.274 . S
C341 O353 1.241 . S
C341 O354 1.280 . S
C342 O355 1.277 . S
C342 O356 1.245 . S
C343 O367 1.247 . S
C343 O369 1.289 . S
Mg344 O345 1.926 . S
Mg344 O354 1.984 . S
Mg344 O356 1.988 . S
Mg344 O357 2.061 . S
O345 Mg344 1.926 . S
O345 Mg346 1.986 . S
O345 Mg347 1.917 . S
Mg346 O345 1.986 . S
Mg346 O353 2.042 . S
Mg346 O355 2.041 . S
Mg346 O361 2.038 . S
Mg346 O369 2.238 . S
Mg347 O345 1.917 . S
Mg347 O348 1.917 . S
Mg347 O358 2.106 . S
Mg347 O360 2.079 . S
Mg347 O369 2.106 . S
Mg347 O370 2.079 . S
O348 Mg347 1.917 . S
O348 Mg349 1.926 . S
O348 Mg350 1.986 . S
Mg349 O348 1.926 . S
Mg349 O363 1.984 . S
Mg349 O366 1.988 . S
Mg349 O367 2.061 . S
Mg350 O348 1.986 . S
Mg350 O358 2.238 . S
Mg350 O362 2.042 . S
Mg350 O364 2.041 . S
Mg350 O371 2.038 . S
C351 O357 1.247 . S
C351 O358 1.289 . S
C352 O370 1.245 . S
C352 O371 1.274 . S
O353 C341 1.241 . S
O353 Mg346 2.042 . S
O354 C341 1.280 . S
O354 Mg344 1.984 . S
O355 C342 1.277 . S
O355 Mg346 2.041 . S
O356 C342 1.245 . S
O356 Mg344 1.988 . S
O357 Mg344 2.061 . S
O357 C351 1.247 . S
O358 Mg347 2.106 . S
O358 Mg350 2.238 . S
O358 C351 1.289 . S
C359 O360 1.245 . S
C359 O361 1.274 . S
O360 Mg347 2.079 . S
O360 C359 1.245 . S
O361 Mg346 2.038 . S
O361 C359 1.274 . S
O362 Mg350 2.042 . S
O362 C365 1.241 . S
O363 Mg349 1.984 . S
O363 C365 1.280 . S
O364 Mg350 2.041 . S
O364 C368 1.277 . S
C365 O362 1.241 . S
C365 O363 1.280 . S
O366 Mg349 1.988 . S
O366 C368 1.245 . S
O367 C343 1.247 . S
O367 Mg349 2.061 . S
C368 O364 1.277 . S
C368 O366 1.245 . S
O369 C343 1.289 . S
O369 Mg346 2.238 . S
O369 Mg347 2.106 . S
O370 Mg347 2.079 . S
O370 C352 1.245 . S
O371 Mg350 2.038 . S
O371 C352 1.274 . S
C372 O384 1.241 . S
C372 O385 1.280 . S
C373 O386 1.277 . S
C373 O387 1.245 . S
C374 O398 1.247 . S
C374 O400 1.289 . S
Mg375 O376 1.926 . S
Mg375 O385 1.984 . S
Mg375 O387 1.988 . S
Mg375 O388 2.061 . S
O376 Mg375 1.926 . S
O376 Mg377 1.986 . S
O376 Mg378 1.917 . S
Mg377 O376 1.986 . S
Mg377 O384 2.042 . S
Mg377 O386 2.041 . S
Mg377 O392 2.038 . S
Mg377 O400 2.238 . S
Mg378 O376 1.917 . S
Mg378 O379 1.917 . S
Mg378 O389 2.106 . S
Mg378 O391 2.079 . S
Mg378 O400 2.106 . S
Mg378 O401 2.079 . S
O379 Mg378 1.917 . S
O379 Mg380 1.926 1_655 S
O379 Mg381 1.986 . S
Mg380 O379 1.926 1_455 S
Mg380 O394 1.984 . S
Mg380 O397 1.988 . S
Mg380 O398 2.061 1_455 S
Mg381 O379 1.986 . S
Mg381 O389 2.238 . S
Mg381 O393 2.042 1_655 S
Mg381 O395 2.041 . S
Mg381 O402 2.038 . S
C382 O388 1.247 . S
C382 O389 1.289 . S
C383 O401 1.245 . S
C383 O402 1.274 . S
O384 C372 1.241 . S
O384 Mg377 2.042 . S
O385 C372 1.280 . S
O385 Mg375 1.984 . S
O386 C373 1.277 . S
O386 Mg377 2.041 . S
O387 C373 1.245 . S
O387 Mg375 1.988 . S
O388 Mg375 2.061 . S
O388 C382 1.247 . S
O389 Mg378 2.106 . S
O389 Mg381 2.238 . S
O389 C382 1.289 . S
C390 O391 1.245 . S
C390 O392 1.274 . S
O391 Mg378 2.079 . S
O391 C390 1.245 . S
O392 Mg377 2.038 . S
O392 C390 1.274 . S
O393 Mg381 2.042 1_455 S
O393 C396 1.241 . S
O394 Mg380 1.984 . S
O394 C396 1.280 . S
O395 Mg381 2.041 . S
O395 C399 1.277 . S
C396 O393 1.241 . S
C396 O394 1.280 . S
O397 Mg380 1.988 . S
O397 C399 1.245 1_455 S
O398 C374 1.247 . S
O398 Mg380 2.061 1_655 S
C399 O395 1.277 . S
C399 O397 1.245 1_655 S
O400 C374 1.289 . S
O400 Mg377 2.238 . S
O400 Mg378 2.106 . S
O401 Mg378 2.079 . S
O401 C383 1.245 . S
O402 Mg381 2.038 . S
O402 C383 1.274 . S
C403 O415 1.241 . S
C403 O416 1.280 . S
C404 O417 1.277 . S
C404 O418 1.245 . S
C405 O429 1.247 . S
C405 O431 1.289 . S
Mg406 O407 1.926 . S
Mg406 O416 1.984 . S
Mg406 O418 1.988 . S
Mg406 O419 2.061 . S
O407 Mg406 1.926 . S
O407 Mg408 1.986 . S
O407 Mg409 1.917 . S
Mg408 O407 1.986 . S
Mg408 O415 2.042 . S
Mg408 O417 2.041 . S
Mg408 O423 2.038 . S
Mg408 O431 2.238 . S
Mg409 O407 1.917 . S
Mg409 O410 1.917 . S
Mg409 O420 2.106 . S
Mg409 O422 2.079 . S
Mg409 O431 2.106 . S
Mg409 O432 2.079 . S
O410 Mg409 1.917 . S
O410 Mg411 1.926 . S
O410 Mg412 1.986 . S
Mg411 O410 1.926 . S
Mg411 O425 1.984 . S
Mg411 O428 1.988 1_554 S
Mg411 O429 2.061 . S
Mg412 O410 1.986 . S
Mg412 O420 2.238 . S
Mg412 O424 2.042 . S
Mg412 O426 2.041 1_554 S
Mg412 O433 2.038 . S
C413 O419 1.247 1_556 S
C413 O420 1.289 1_556 S
C414 O432 1.245 . S
C414 O433 1.274 . S
O415 C403 1.241 . S
O415 Mg408 2.042 . S
O416 C403 1.280 . S
O416 Mg406 1.984 . S
O417 C404 1.277 . S
O417 Mg408 2.041 . S
O418 C404 1.245 . S
O418 Mg406 1.988 . S
O419 Mg406 2.061 . S
O419 C413 1.247 1_554 S
O420 Mg409 2.106 . S
O420 Mg412 2.238 . S
O420 C413 1.289 1_554 S
C421 O422 1.245 . S
C421 O423 1.274 . S
O422 Mg409 2.079 . S
O422 C421 1.245 . S
O423 Mg408 2.038 . S
O423 C421 1.274 . S
O424 Mg412 2.042 . S
O424 C427 1.241 . S
O425 Mg411 1.984 . S
O425 C427 1.280 . S
O426 Mg412 2.041 1_556 S
O426 C430 1.277 . S
C427 O424 1.241 . S
C427 O425 1.280 . S
O428 Mg411 1.988 1_556 S
O428 C430 1.245 . S
O429 C405 1.247 . S
O429 Mg411 2.061 . S
C430 O426 1.277 . S
C430 O428 1.245 . S
O431 C405 1.289 . S
O431 Mg408 2.238 . S
O431 Mg409 2.106 . S
O432 Mg409 2.079 . S
O432 C414 1.245 . S
O433 Mg412 2.038 . S
O433 C414 1.274 . S
C434 O446 1.241 . S
C434 O447 1.280 . S
C435 O448 1.277 . S
C435 O449 1.245 . S
C436 O460 1.247 . S
C436 O462 1.289 . S
Mg437 O438 1.926 . S
Mg437 O447 1.984 . S
Mg437 O449 1.988 . S
Mg437 O450 2.061 . S
O438 Mg437 1.926 . S
O438 Mg439 1.986 . S
O438 Mg440 1.917 . S
Mg439 O438 1.986 . S
Mg439 O446 2.042 . S
Mg439 O448 2.041 . S
Mg439 O454 2.038 . S
Mg439 O462 2.238 . S
Mg440 O438 1.917 . S
Mg440 O441 1.917 . S
Mg440 O451 2.106 . S
Mg440 O453 2.079 . S
Mg440 O462 2.106 . S
Mg440 O463 2.079 . S
O441 Mg440 1.917 . S
O441 Mg442 1.926 . S
O441 Mg443 1.986 . S
Mg442 O441 1.926 . S
Mg442 O456 1.984 . S
Mg442 O459 1.988 . S
Mg442 O460 2.061 . S
Mg443 O441 1.986 . S
Mg443 O451 2.238 . S
Mg443 O455 2.042 . S
Mg443 O457 2.041 . S
Mg443 O464 2.038 . S
C444 O450 1.247 . S
C444 O451 1.289 . S
C445 O463 1.245 . S
C445 O464 1.274 . S
O446 C434 1.241 . S
O446 Mg439 2.042 . S
O447 C434 1.280 . S
O447 Mg437 1.984 . S
O448 C435 1.277 . S
O448 Mg439 2.041 . S
O449 C435 1.245 . S
O449 Mg437 1.988 . S
O450 Mg437 2.061 . S
O450 C444 1.247 . S
O451 Mg440 2.106 . S
O451 Mg443 2.238 . S
O451 C444 1.289 . S
C452 O453 1.245 . S
C452 O454 1.274 . S
O453 Mg440 2.079 . S
O453 C452 1.245 . S
O454 Mg439 2.038 . S
O454 C452 1.274 . S
O455 Mg443 2.042 . S
O455 C458 1.241 . S
O456 Mg442 1.984 . S
O456 C458 1.280 . S
O457 Mg443 2.041 . S
O457 C461 1.277 . S
C458 O455 1.241 . S
C458 O456 1.280 . S
O459 Mg442 1.988 . S
O459 C461 1.245 . S
O460 C436 1.247 . S
O460 Mg442 2.061 . S
C461 O457 1.277 . S
C461 O459 1.245 . S
O462 C436 1.289 . S
O462 Mg439 2.238 . S
O462 Mg440 2.106 . S
O463 Mg440 2.079 . S
O463 C445 1.245 . S
O464 Mg443 2.038 . S
O464 C445 1.274 . S
C465 O477 1.241 . S
C465 O478 1.280 . S
C466 O479 1.277 . S
C466 O480 1.245 . S
C467 O491 1.247 . S
C467 O493 1.289 . S
Mg468 O469 1.926 . S
Mg468 O478 1.984 . S
Mg468 O480 1.988 . S
Mg468 O481 2.061 . S
O469 Mg468 1.926 . S
O469 Mg470 1.986 . S
O469 Mg471 1.917 . S
Mg470 O469 1.986 . S
Mg470 O477 2.042 . S
Mg470 O479 2.041 . S
Mg470 O485 2.038 . S
Mg470 O493 2.238 . S
Mg471 O469 1.917 . S
Mg471 O472 1.917 . S
Mg471 O482 2.106 . S
Mg471 O484 2.079 . S
Mg471 O493 2.106 . S
Mg471 O494 2.079 . S
O472 Mg471 1.917 . S
O472 Mg473 1.926 1_455 S
O472 Mg474 1.986 . S
Mg473 O472 1.926 1_655 S
Mg473 O487 1.984 . S
Mg473 O490 1.988 1_556 S
Mg473 O491 2.061 1_655 S
Mg474 O472 1.986 . S
Mg474 O482 2.238 . S
Mg474 O486 2.042 1_455 S
Mg474 O488 2.041 1_556 S
Mg474 O495 2.038 . S
C475 O481 1.247 1_554 S
C475 O482 1.289 1_554 S
C476 O494 1.245 . S
C476 O495 1.274 . S
O477 C465 1.241 . S
O477 Mg470 2.042 . S
O478 C465 1.280 . S
O478 Mg468 1.984 . S
O479 C466 1.277 . S
O479 Mg470 2.041 . S
O480 C466 1.245 . S
O480 Mg468 1.988 . S
O481 Mg468 2.061 . S
O481 C475 1.247 1_556 S
O482 Mg471 2.106 . S
O482 Mg474 2.238 . S
O482 C475 1.289 1_556 S
C483 O484 1.245 . S
C483 O485 1.274 . S
O484 Mg471 2.079 . S
O484 C483 1.245 . S
O485 Mg470 2.038 . S
O485 C483 1.274 . S
O486 Mg474 2.042 1_655 S
O486 C489 1.241 . S
O487 Mg473 1.984 . S
O487 C489 1.280 . S
O488 Mg474 2.041 1_554 S
O488 C492 1.277 . S
C489 O486 1.241 . S
C489 O487 1.280 . S
O490 Mg473 1.988 1_554 S
O490 C492 1.245 1_655 S
O491 C467 1.247 . S
O491 Mg473 2.061 1_455 S
C492 O488 1.277 . S
C492 O490 1.245 1_455 S
O493 C467 1.289 . S
O493 Mg470 2.238 . S
O493 Mg471 2.106 . S
O494 Mg471 2.079 . S
O494 C476 1.245 . S
O495 Mg474 2.038 . S
O495 C476 1.274 . S
C496 O508 1.241 . S
C496 O509 1.280 . S
C497 O510 1.277 . S
C497 O511 1.245 . S
C498 O522 1.247 . S
C498 O524 1.289 . S
Mg499 O500 1.926 . S
Mg499 O509 1.984 . S
Mg499 O511 1.988 . S
Mg499 O512 2.061 . S
O500 Mg499 1.926 . S
O500 Mg501 1.986 . S
O500 Mg502 1.917 . S
Mg501 O500 1.986 . S
Mg501 O508 2.042 . S
Mg501 O510 2.041 . S
Mg501 O516 2.038 . S
Mg501 O524 2.238 . S
Mg502 O500 1.917 . S
Mg502 O503 1.917 . S
Mg502 O513 2.106 . S
Mg502 O515 2.079 . S
Mg502 O524 2.106 . S
Mg502 O525 2.079 . S
O503 Mg502 1.917 . S
O503 Mg504 1.926 1_565 S
O503 Mg505 1.986 . S
Mg504 O503 1.926 1_545 S
Mg504 O518 1.984 . S
Mg504 O521 1.988 . S
Mg504 O522 2.061 1_545 S
Mg505 O503 1.986 . S
Mg505 O513 2.238 . S
Mg505 O517 2.042 1_565 S
Mg505 O519 2.041 . S
Mg505 O526 2.038 . S
C506 O512 1.247 . S
C506 O513 1.289 . S
C507 O525 1.245 . S
C507 O526 1.274 . S
O508 C496 1.241 . S
O508 Mg501 2.042 . S
O509 C496 1.280 . S
O509 Mg499 1.984 . S
O510 C497 1.277 . S
O510 Mg501 2.041 . S
O511 C497 1.245 . S
O511 Mg499 1.988 . S
O512 Mg499 2.061 . S
O512 C506 1.247 . S
O513 Mg502 2.106 . S
O513 Mg505 2.238 . S
O513 C506 1.289 . S
C514 O515 1.245 . S
C514 O516 1.274 . S
O515 Mg502 2.079 . S
O515 C514 1.245 . S
O516 Mg501 2.038 . S
O516 C514 1.274 . S
O517 Mg505 2.042 1_545 S
O517 C520 1.241 . S
O518 Mg504 1.984 . S
O518 C520 1.280 . S
O519 Mg505 2.041 . S
O519 C523 1.277 . S
C520 O517 1.241 . S
C520 O518 1.280 . S
O521 Mg504 1.988 . S
O521 C523 1.245 1_545 S
O522 C498 1.247 . S
O522 Mg504 2.061 1_565 S
C523 O519 1.277 . S
C523 O521 1.245 1_565 S
O524 C498 1.289 . S
O524 Mg501 2.238 . S
O524 Mg502 2.106 . S
O525 Mg502 2.079 . S
O525 C507 1.245 . S
O526 Mg505 2.038 . S
O526 C507 1.274 . S
C527 O539 1.241 . S
C527 O540 1.280 . S
C528 O541 1.277 . S
C528 O542 1.245 . S
C529 O553 1.247 . S
C529 O555 1.289 . S
Mg530 O531 1.926 . S
Mg530 O540 1.984 . S
Mg530 O542 1.988 . S
Mg530 O543 2.061 . S
O531 Mg530 1.926 . S
O531 Mg532 1.986 . S
O531 Mg533 1.917 . S
Mg532 O531 1.986 . S
Mg532 O539 2.042 . S
Mg532 O541 2.041 . S
Mg532 O547 2.038 . S
Mg532 O555 2.238 . S
Mg533 O531 1.917 . S
Mg533 O534 1.917 . S
Mg533 O544 2.106 . S
Mg533 O546 2.079 . S
Mg533 O555 2.106 . S
Mg533 O556 2.079 . S
O534 Mg533 1.917 . S
O534 Mg535 1.926 1_545 S
O534 Mg536 1.986 . S
Mg535 O534 1.926 1_565 S
Mg535 O549 1.984 . S
Mg535 O552 1.988 1_655 S
Mg535 O553 2.061 1_565 S
Mg536 O534 1.986 . S
Mg536 O544 2.238 . S
Mg536 O548 2.042 1_545 S
Mg536 O550 2.041 1_655 S
Mg536 O557 2.038 . S
C537 O543 1.247 1_455 S
C537 O544 1.289 1_455 S
C538 O556 1.245 . S
C538 O557 1.274 . S
O539 C527 1.241 . S
O539 Mg532 2.042 . S
O540 C527 1.280 . S
O540 Mg530 1.984 . S
O541 C528 1.277 . S
O541 Mg532 2.041 . S
O542 C528 1.245 . S
O542 Mg530 1.988 . S
O543 Mg530 2.061 . S
O543 C537 1.247 1_655 S
O544 Mg533 2.106 . S
O544 Mg536 2.238 . S
O544 C537 1.289 1_655 S
C545 O546 1.245 . S
C545 O547 1.274 . S
O546 Mg533 2.079 . S
O546 C545 1.245 . S
O547 Mg532 2.038 . S
O547 C545 1.274 . S
O548 Mg536 2.042 1_565 S
O548 C551 1.241 . S
O549 Mg535 1.984 . S
O549 C551 1.280 . S
O550 Mg536 2.041 1_455 S
O550 C554 1.277 . S
C551 O548 1.241 . S
C551 O549 1.280 . S
O552 Mg535 1.988 1_455 S
O552 C554 1.245 1_565 S
O553 C529 1.247 . S
O553 Mg535 2.061 1_545 S
C554 O550 1.277 . S
C554 O552 1.245 1_545 S
O555 C529 1.289 . S
O555 Mg532 2.238 . S
O555 Mg533 2.106 . S
O556 Mg533 2.079 . S
O556 C538 1.245 . S
O557 Mg536 2.038 . S
O557 C538 1.274 . S
C558 O570 1.241 . S
C558 O571 1.280 . S
C559 O572 1.277 . S
C559 O573 1.245 . S
C560 O584 1.247 . S
C560 O586 1.289 . S
Mg561 O562 1.926 . S
Mg561 O571 1.984 . S
Mg561 O573 1.988 . S
Mg561 O574 2.061 . S
O562 Mg561 1.926 . S
O562 Mg563 1.986 . S
O562 Mg564 1.917 . S
Mg563 O562 1.986 . S
Mg563 O570 2.042 . S
Mg563 O572 2.041 . S
Mg563 O578 2.038 . S
Mg563 O586 2.238 . S
Mg564 O562 1.917 . S
Mg564 O565 1.917 . S
Mg564 O575 2.106 . S
Mg564 O577 2.079 . S
Mg564 O586 2.106 . S
Mg564 O587 2.079 . S
O565 Mg564 1.917 . S
O565 Mg566 1.926 . S
O565 Mg567 1.986 . S
Mg566 O565 1.926 . S
Mg566 O580 1.984 . S
Mg566 O583 1.988 1_455 S
Mg566 O584 2.061 . S
Mg567 O565 1.986 . S
Mg567 O575 2.238 . S
Mg567 O579 2.042 . S
Mg567 O581 2.041 1_455 S
Mg567 O588 2.038 . S
C568 O574 1.247 1_655 S
C568 O575 1.289 1_655 S
C569 O587 1.245 . S
C569 O588 1.274 . S
O570 C558 1.241 . S
O570 Mg563 2.042 . S
O571 C558 1.280 . S
O571 Mg561 1.984 . S
O572 C559 1.277 . S
O572 Mg563 2.041 . S
O573 C559 1.245 . S
O573 Mg561 1.988 . S
O574 Mg561 2.061 . S
O574 C568 1.247 1_455 S
O575 Mg564 2.106 . S
O575 Mg567 2.238 . S
O575 C568 1.289 1_455 S
C576 O577 1.245 . S
C576 O578 1.274 . S
O577 Mg564 2.079 . S
O577 C576 1.245 . S
O578 Mg563 2.038 . S
O578 C576 1.274 . S
O579 Mg567 2.042 . S
O579 C582 1.241 . S
O580 Mg566 1.984 . S
O580 C582 1.280 . S
O581 Mg567 2.041 1_655 S
O581 C585 1.277 . S
C582 O579 1.241 . S
C582 O580 1.280 . S
O583 Mg566 1.988 1_655 S
O583 C585 1.245 . S
O584 C560 1.247 . S
O584 Mg566 2.061 . S
C585 O581 1.277 . S
C585 O583 1.245 . S
O586 C560 1.289 . S
O586 Mg563 2.238 . S
O586 Mg564 2.106 . S
O587 Mg564 2.079 . S
O587 C569 1.245 . S
O588 Mg567 2.038 . S
O588 C569 1.274 . S
C589 O601 1.241 . S
C589 O602 1.280 . S
C590 O603 1.277 . S
C590 O604 1.245 . S
C591 O615 1.247 . S
C591 O617 1.289 . S
Mg592 O593 1.926 . S
Mg592 O602 1.984 . S
Mg592 O604 1.988 . S
Mg592 O605 2.061 . S
O593 Mg592 1.926 . S
O593 Mg594 1.986 . S
O593 Mg595 1.917 . S
Mg594 O593 1.986 . S
Mg594 O601 2.042 . S
Mg594 O603 2.041 . S
Mg594 O609 2.038 . S
Mg594 O617 2.238 . S
Mg595 O593 1.917 . S
Mg595 O596 1.917 . S
Mg595 O606 2.106 . S
Mg595 O608 2.079 . S
Mg595 O617 2.106 . S
Mg595 O618 2.079 . S
O596 Mg595 1.917 . S
O596 Mg597 1.926 . S
O596 Mg598 1.986 . S
Mg597 O596 1.926 . S
Mg597 O611 1.984 . S
Mg597 O614 1.988 . S
Mg597 O615 2.061 . S
Mg598 O596 1.986 . S
Mg598 O606 2.238 . S
Mg598 O610 2.042 . S
Mg598 O612 2.041 . S
Mg598 O619 2.038 . S
C599 O605 1.247 . S
C599 O606 1.289 . S
C600 O618 1.245 . S
C600 O619 1.274 . S
O601 C589 1.241 . S
O601 Mg594 2.042 . S
O602 C589 1.280 . S
O602 Mg592 1.984 . S
O603 C590 1.277 . S
O603 Mg594 2.041 . S
O604 C590 1.245 . S
O604 Mg592 1.988 . S
O605 Mg592 2.061 . S
O605 C599 1.247 . S
O606 Mg595 2.106 . S
O606 Mg598 2.238 . S
O606 C599 1.289 . S
C607 O608 1.245 . S
C607 O609 1.274 . S
O608 Mg595 2.079 . S
O608 C607 1.245 . S
O609 Mg594 2.038 . S
O609 C607 1.274 . S
O610 Mg598 2.042 . S
O610 C613 1.241 . S
O611 Mg597 1.984 . S
O611 C613 1.280 . S
O612 Mg598 2.041 . S
O612 C616 1.277 . S
C613 O610 1.241 . S
C613 O611 1.280 . S
O614 Mg597 1.988 . S
O614 C616 1.245 . S
O615 C591 1.247 . S
O615 Mg597 2.061 . S
C616 O612 1.277 . S
C616 O614 1.245 . S
O617 C591 1.289 . S
O617 Mg594 2.238 . S
O617 Mg595 2.106 . S
O618 Mg595 2.079 . S
O618 C600 1.245 . S
O619 Mg598 2.038 . S
O619 C600 1.274 . S
C620 O632 1.241 . S
C620 O633 1.280 . S
C621 O634 1.277 . S
C621 O635 1.245 . S
C622 O646 1.247 . S
C622 O648 1.289 . S
Mg623 O624 1.926 . S
Mg623 O633 1.984 . S
Mg623 O635 1.988 . S
Mg623 O636 2.061 . S
O624 Mg623 1.926 . S
O624 Mg625 1.986 . S
O624 Mg626 1.917 . S
Mg625 O624 1.986 . S
Mg625 O632 2.042 . S
Mg625 O634 2.041 . S
Mg625 O640 2.038 . S
Mg625 O648 2.238 . S
Mg626 O624 1.917 . S
Mg626 O627 1.917 . S
Mg626 O637 2.106 . S
Mg626 O639 2.079 . S
Mg626 O648 2.106 . S
Mg626 O649 2.079 . S
O627 Mg626 1.917 . S
O627 Mg628 1.926 1_556 S
O627 Mg629 1.986 . S
Mg628 O627 1.926 1_554 S
Mg628 O642 1.984 . S
Mg628 O645 1.988 . S
Mg628 O646 2.061 1_554 S
Mg629 O627 1.986 . S
Mg629 O637 2.238 . S
Mg629 O641 2.042 1_556 S
Mg629 O643 2.041 . S
Mg629 O650 2.038 . S
C630 O636 1.247 . S
C630 O637 1.289 . S
C631 O649 1.245 . S
C631 O650 1.274 . S
O632 C620 1.241 . S
O632 Mg625 2.042 . S
O633 C620 1.280 . S
O633 Mg623 1.984 . S
O634 C621 1.277 . S
O634 Mg625 2.041 . S
O635 C621 1.245 . S
O635 Mg623 1.988 . S
O636 Mg623 2.061 . S
O636 C630 1.247 . S
O637 Mg626 2.106 . S
O637 Mg629 2.238 . S
O637 C630 1.289 . S
C638 O639 1.245 . S
C638 O640 1.274 . S
O639 Mg626 2.079 . S
O639 C638 1.245 . S
O640 Mg625 2.038 . S
O640 C638 1.274 . S
O641 Mg629 2.042 1_554 S
O641 C644 1.241 . S
O642 Mg628 1.984 . S
O642 C644 1.280 . S
O643 Mg629 2.041 . S
O643 C647 1.277 . S
C644 O641 1.241 . S
C644 O642 1.280 . S
O645 Mg628 1.988 . S
O645 C647 1.245 1_554 S
O646 C622 1.247 . S
O646 Mg628 2.061 1_556 S
C647 O643 1.277 . S
C647 O645 1.245 1_556 S
O648 C622 1.289 . S
O648 Mg625 2.238 . S
O648 Mg626 2.106 . S
O649 Mg626 2.079 . S
O649 C631 1.245 . S
O650 Mg629 2.038 . S
O650 C631 1.274 . S
C651 O663 1.241 . S
C651 O664 1.280 . S
C652 O665 1.277 . S
C652 O666 1.245 . S
C653 O677 1.247 . S
C653 O679 1.289 . S
Mg654 O655 1.926 . S
Mg654 O664 1.984 . S
Mg654 O666 1.988 . S
Mg654 O667 2.061 . S
O655 Mg654 1.926 . S
O655 Mg656 1.986 . S
O655 Mg657 1.917 . S
Mg656 O655 1.986 . S
Mg656 O663 2.042 . S
Mg656 O665 2.041 . S
Mg656 O671 2.038 . S
Mg656 O679 2.238 . S
Mg657 O655 1.917 . S
Mg657 O658 1.917 . S
Mg657 O668 2.106 . S
Mg657 O670 2.079 . S
Mg657 O679 2.106 . S
Mg657 O680 2.079 . S
O658 Mg657 1.917 . S
O658 Mg659 1.926 1_554 S
O658 Mg660 1.986 . S
Mg659 O658 1.926 1_556 S
Mg659 O673 1.984 . S
Mg659 O676 1.988 1_565 S
Mg659 O677 2.061 1_556 S
Mg660 O658 1.986 . S
Mg660 O668 2.238 . S
Mg660 O672 2.042 1_554 S
Mg660 O674 2.041 1_565 S
Mg660 O681 2.038 . S
C661 O667 1.247 1_545 S
C661 O668 1.289 1_545 S
C662 O680 1.245 . S
C662 O681 1.274 . S
O663 C651 1.241 . S
O663 Mg656 2.042 . S
O664 C651 1.280 . S
O664 Mg654 1.984 . S
O665 C652 1.277 . S
O665 Mg656 2.041 . S
O666 C652 1.245 . S
O666 Mg654 1.988 . S
O667 Mg654 2.061 . S
O667 C661 1.247 1_565 S
O668 Mg657 2.106 . S
O668 Mg660 2.238 . S
O668 C661 1.289 1_565 S
C669 O670 1.245 . S
C669 O671 1.274 . S
O670 Mg657 2.079 . S
O670 C669 1.245 . S
O671 Mg656 2.038 . S
O671 C669 1.274 . S
O672 Mg660 2.042 1_556 S
O672 C675 1.241 . S
O673 Mg659 1.984 . S
O673 C675 1.280 . S
O674 Mg660 2.041 1_545 S
O674 C678 1.277 . S
C675 O672 1.241 . S
C675 O673 1.280 . S
O676 Mg659 1.988 1_545 S
O676 C678 1.245 1_556 S
O677 C653 1.247 . S
O677 Mg659 2.061 1_554 S
C678 O674 1.277 . S
C678 O676 1.245 1_554 S
O679 C653 1.289 . S
O679 Mg656 2.238 . S
O679 Mg657 2.106 . S
O680 Mg657 2.079 . S
O680 C662 1.245 . S
O681 Mg660 2.038 . S
O681 C662 1.274 . S
C682 O694 1.241 . S
C682 O695 1.280 . S
C683 O696 1.277 . S
C683 O697 1.245 . S
C684 O708 1.247 . S
C684 O710 1.289 . S
Mg685 O686 1.926 . S
Mg685 O695 1.984 . S
Mg685 O697 1.988 . S
Mg685 O698 2.061 . S
O686 Mg685 1.926 . S
O686 Mg687 1.986 . S
O686 Mg688 1.917 . S
Mg687 O686 1.986 . S
Mg687 O694 2.042 . S
Mg687 O696 2.041 . S
Mg687 O702 2.038 . S
Mg687 O710 2.238 . S
Mg688 O686 1.917 . S
Mg688 O689 1.917 . S
Mg688 O699 2.106 . S
Mg688 O701 2.079 . S
Mg688 O710 2.106 . S
Mg688 O711 2.079 . S
O689 Mg688 1.917 . S
O689 Mg690 1.926 . S
O689 Mg691 1.986 . S
Mg690 O689 1.926 . S
Mg690 O704 1.984 . S
Mg690 O707 1.988 1_545 S
Mg690 O708 2.061 . S
Mg691 O689 1.986 . S
Mg691 O699 2.238 . S
Mg691 O703 2.042 . S
Mg691 O705 2.041 1_545 S
Mg691 O712 2.038 . S
C692 O698 1.247 1_565 S
C692 O699 1.289 1_565 S
C693 O711 1.245 . S
C693 O712 1.274 . S
O694 C682 1.241 . S
O694 Mg687 2.042 . S
O695 C682 1.280 . S
O695 Mg685 1.984 . S
O696 C683 1.277 . S
O696 Mg687 2.041 . S
O697 C683 1.245 . S
O697 Mg685 1.988 . S
O698 Mg685 2.061 . S
O698 C692 1.247 1_545 S
O699 Mg688 2.106 . S
O699 Mg691 2.238 . S
O699 C692 1.289 1_545 S
C700 O701 1.245 . S
C700 O702 1.274 . S
O701 Mg688 2.079 . S
O701 C700 1.245 . S
O702 Mg687 2.038 . S
O702 C700 1.274 . S
O703 Mg691 2.042 . S
O703 C706 1.241 . S
O704 Mg690 1.984 . S
O704 C706 1.280 . S
O705 Mg691 2.041 1_565 S
O705 C709 1.277 . S
C706 O703 1.241 . S
C706 O704 1.280 . S
O707 Mg690 1.988 1_565 S
O707 C709 1.245 . S
O708 C684 1.247 . S
O708 Mg690 2.061 . S
C709 O705 1.277 . S
C709 O707 1.245 . S
O710 C684 1.289 . S
O710 Mg687 2.238 . S
O710 Mg688 2.106 . S
O711 Mg688 2.079 . S
O711 C693 1.245 . S
O712 Mg691 2.038 . S
O712 C693 1.274 . S
C713 O725 1.241 . S
C713 O726 1.280 . S
C714 O727 1.277 . S
C714 O728 1.245 . S
C715 O739 1.247 . S
C715 O741 1.289 . S
Mg716 O717 1.926 . S
Mg716 O726 1.984 . S
Mg716 O728 1.988 . S
Mg716 O729 2.061 . S
O717 Mg716 1.926 . S
O717 Mg718 1.986 . S
O717 Mg719 1.917 . S
Mg718 O717 1.986 . S
Mg718 O725 2.042 . S
Mg718 O727 2.041 . S
Mg718 O733 2.038 . S
Mg718 O741 2.238 . S
Mg719 O717 1.917 . S
Mg719 O720 1.917 . S
Mg719 O730 2.106 . S
Mg719 O732 2.079 . S
Mg719 O741 2.106 . S
Mg719 O742 2.079 . S
O720 Mg719 1.917 . S
O720 Mg721 1.926 . S
O720 Mg722 1.986 . S
Mg721 O720 1.926 . S
Mg721 O735 1.984 . S
Mg721 O738 1.988 . S
Mg721 O739 2.061 . S
Mg722 O720 1.986 . S
Mg722 O730 2.238 . S
Mg722 O734 2.042 . S
Mg722 O736 2.041 . S
Mg722 O743 2.038 . S
C723 O729 1.247 . S
C723 O730 1.289 . S
C724 O742 1.245 . S
C724 O743 1.274 . S
O725 C713 1.241 . S
O725 Mg718 2.042 . S
O726 C713 1.280 . S
O726 Mg716 1.984 . S
O727 C714 1.277 . S
O727 Mg718 2.041 . S
O728 C714 1.245 . S
O728 Mg716 1.988 . S
O729 Mg716 2.061 . S
O729 C723 1.247 . S
O730 Mg719 2.106 . S
O730 Mg722 2.238 . S
O730 C723 1.289 . S
C731 O732 1.245 . S
C731 O733 1.274 . S
O732 Mg719 2.079 . S
O732 C731 1.245 . S
O733 Mg718 2.038 . S
O733 C731 1.274 . S
O734 Mg722 2.042 . S
O734 C737 1.241 . S
O735 Mg721 1.984 . S
O735 C737 1.280 . S
O736 Mg722 2.041 . S
O736 C740 1.277 . S
C737 O734 1.241 . S
C737 O735 1.280 . S
O738 Mg721 1.988 . S
O738 C740 1.245 . S
O739 C715 1.247 . S
O739 Mg721 2.061 . S
C740 O736 1.277 . S
C740 O738 1.245 . S
O741 C715 1.289 . S
O741 Mg718 2.238 . S
O741 Mg719 2.106 . S
O742 Mg719 2.079 . S
O742 C724 1.245 . S
O743 Mg722 2.038 . S
O743 C724 1.274 . S
C582 C18 1.255 . S
C49 C613 1.255 . S
C520 C80 1.255 . S
C111 C551 1.255 . S
C706 C142 1.255 . S
C675 C173 1.255 . S
C737 C204 1.255 . S
C644 C235 1.255 . S
C266 C427 1.255 . S
C489 C297 1.255 . S
C328 C458 1.255 . S
C396 C359 1.255 . S
C186 C383 1.255 . S
C217 C414 1.255 . S
C124 C445 1.255 . S
C476 C155 1.255 . S
C310 C507 1.255 . S
C538 C279 1.255 . S
C341 C569 1.255 . S
C248 C600 1.255 . S
C631 C31 1.255 . S
C93 C662 1.255 . S
C693 C62 1.255 . S
C724 C0 1.255 . S
C272 C27 2.775 . S
C58 C365 2.775 . S
C89 C303 2.775 . S
C120 C334 2.775 . S
C151 C24 2.775 . S
C182 C55 2.775 . S
C86 C213 2.775 . S
C244 C117 2.775 . S
C148 C275 2.775 . S
C306 C210 2.775 . S
C241 C337 2.775 . S
C179 C368 2.775 . S
C620 C373 2.775 . S
C404 C713 2.775 . S
C651 C435 2.775 . S
C466 C682 2.775 . S
C372 C497 2.775 . S
C403 C528 2.775 . S
C559 C434 2.775 . S
C465 C590 2.775 . S
C496 C621 2.775 . S
C652 C558 2.775 . S
C683 C589 2.775 . S
C714 C527 2.775 . S
C2 C342 1.611 . S
C249 C33 1.611 . S
C64 C311 1.611 . S
C95 C280 1.611 . S
C63 C126 1.611 . S
C94 C157 1.611 . S
C1 C188 1.611 . S
C219 C32 1.611 . S
C218 C250 1.611 . S
C281 C156 1.611 . S
C125 C312 1.611 . S
C343 C187 1.611 . S
C740 C382 1.611 . S
C647 C413 1.611 . S
C709 C444 1.611 . S
C678 C475 1.611 . S
C506 C461 1.611 . S
C537 C492 1.611 . S
C568 C399 1.611 . S
C599 C430 1.611 . S
C616 C630 1.611 . S
C554 C661 1.611 . S
C523 C692 1.611 . S
C585 C723 1.611 . S
C684 C11 2.314 . S
C653 C42 2.314 1_554 S
C73 C715 2.314 . S
C622 C104 2.314 1_556 S
C135 C405 2.314 . S
C374 C166 2.314 1_655 S
C197 C467 2.314 1_655 S
C228 C436 2.314 . S
C560 C259 2.314 . S
C498 C290 2.314 1_565 S
C321 C529 2.314 1_565 S
C352 C591 2.314 . S
C390 C320 2.314 . S
C421 C289 2.314 1_554 S
C351 C452 2.314 . S
C258 C483 2.314 1_554 S
C514 C41 2.314 . S
C545 C10 2.314 1_655 S
C576 C103 2.314 1_455 S
C607 C72 2.314 . S
C638 C196 2.314 . S
C669 C134 2.314 1_565 S
C700 C165 2.314 1_545 S
C227 C731 2.314 . S
