# Generated by pormake.
# Topology vmc, (5)-cn, num edge types: 1
# Building blocks:
#     Node 0, Type 0, BuildingBlock: BEQFEK_clean_sbu_0, # of connection points: 5
#     Node 1, Type 0, BuildingBlock: BEQFEK_clean_sbu_0, # of connection points: 5
#     Node 2, Type 0, BuildingBlock: BEQFEK_clean_sbu_0, # of connection points: 5
#     Node 3, Type 0, BuildingBlock: BEQFEK_clean_sbu_0, # of connection points: 5
#     Node 4, Type 0, BuildingBlock: BEQFEK_clean_sbu_0, # of connection points: 5
#     Node 5, Type 0, BuildingBlock: BEQFEK_clean_sbu_0, # of connection points: 5
#     Node 6, Type 0, BuildingBlock: BEQFEK_clean_sbu_0, # of connection points: 5
#     Node 7, Type 0, BuildingBlock: BEQFEK_clean_sbu_0, # of connection points: 5
#     Edge 8, Type (0, 0), BuildingBlock: ZUJKAS_clean_linker_0, # of connection points: 2
#     Edge 9, Type (0, 0), BuildingBlock: ZUJKAS_clean_linker_0, # of connection points: 2
#     Edge 10, Type (0, 0), BuildingBlock: ZUJKAS_clean_linker_0, # of connection points: 2
#     Edge 11, Type (0, 0), BuildingBlock: ZUJKAS_clean_linker_0, # of connection points: 2
#     Edge 12, Type (0, 0), BuildingBlock: ZUJKAS_clean_linker_0, # of connection points: 2
#     Edge 13, Type (0, 0), BuildingBlock: ZUJKAS_clean_linker_0, # of connection points: 2
#     Edge 14, Type (0, 0), BuildingBlock: ZUJKAS_clean_linker_0, # of connection points: 2
#     Edge 15, Type (0, 0), BuildingBlock: ZUJKAS_clean_linker_0, # of connection points: 2
#     Edge 16, Type (0, 0), BuildingBlock: ZUJKAS_clean_linker_0, # of connection points: 2
#     Edge 17, Type (0, 0), BuildingBlock: ZUJKAS_clean_linker_0, # of connection points: 2
#     Edge 18, Type (0, 0), BuildingBlock: ZUJKAS_clean_linker_0, # of connection points: 2
#     Edge 19, Type (0, 0), BuildingBlock: ZUJKAS_clean_linker_0, # of connection points: 2
#     Edge 20, Type (0, 0), BuildingBlock: ZUJKAS_clean_linker_0, # of connection points: 2
#     Edge 21, Type (0, 0), BuildingBlock: ZUJKAS_clean_linker_0, # of connection points: 2
#     Edge 22, Type (0, 0), BuildingBlock: ZUJKAS_clean_linker_0, # of connection points: 2
#     Edge 23, Type (0, 0), BuildingBlock: ZUJKAS_clean_linker_0, # of connection points: 2
#     Edge 24, Type (0, 0), BuildingBlock: ZUJKAS_clean_linker_0, # of connection points: 2
#     Edge 25, Type (0, 0), BuildingBlock: ZUJKAS_clean_linker_0, # of connection points: 2
#     Edge 26, Type (0, 0), BuildingBlock: ZUJKAS_clean_linker_0, # of connection points: 2
#     Edge 27, Type (0, 0), BuildingBlock: ZUJKAS_clean_linker_0, # of connection points: 2
# Relax obj value: 0.490
# Max RMSD: 0.270
# Mean RMSD: 0.270
data_MOF--net-vmc--node1-BEQFEK_clean_sbu_0--edge1-ZUJKAS_clean_linker_0
_symmetry_space_group_name_H-M    P1
_symmetry_Int_Tables_number       1
_symmetry_cell_setting            triclinic
loop_
_symmetry_equiv_pos_as_xyz
'x, y, z'
_cell_length_a     60.237663
_cell_length_b     59.521985
_cell_length_c     35.029429
_cell_angle_alpha  90.01774
_cell_angle_beta   104.47021
_cell_angle_gamma 90.04338
loop_
_atom_site_label
_atom_site_type_symbol
_atom_site_fract_x
_atom_site_fract_y
_atom_site_fract_z
_atom_type_partial_charge
Co0 Co 0.37299 0.44996 0.09684 0.0
Co1 Co 0.33936 0.40995 0.09974 0.0
C2 C 0.3901 0.40508 0.13108 0.0
O3 O 0.39273 0.42509 0.12059 0.0
O4 O 0.37019 0.3965 0.12609 0.0
C5 C 0.41449 0.47461 0.10611 0.0
O6 O 0.42032 0.46382 0.13987 0.0
C7 C 0.3168 0.3657 0.07894 0.0
C8 C 0.28269 0.37202 0.08949 0.0
C9 C 0.29554 0.35583 0.07634 0.0
N10 N 0.31634 0.38688 0.09236 0.0
N11 N 0.29593 0.39044 0.09881 0.0
C12 C 0.33752 0.35478 0.0707 0.0
H13 H 0.35341 0.36314 0.08722 0.0
H14 H 0.33679 0.35604 0.03886 0.0
H15 H 0.33811 0.3367 0.07867 0.0
C16 C 0.35005 0.44856 0.01313 0.0
N17 N 0.35291 0.44051 0.04981 0.0
N18 N 0.33891 0.42349 0.04952 0.0
C19 C 0.32649 0.42029 0.01192 0.0
C20 C 0.33348 0.4359 0.98765 0.0
C21 C 0.36209 0.46896 0.00322 0.0
H22 H 0.36212 0.48233 0.02529 0.0
H23 H 0.38012 0.46455 0.00424 0.0
H24 H 0.3537 0.47563 0.97357 0.0
O25 O 0.35576 0.46163 0.1333 0.0
O26 O 0.33177 0.43354 0.13591 0.0
H27 H 0.29633 0.40326 0.01842 0.0
H28 H 0.29902 0.40453 0.96813 0.0
C29 C 0.30852 0.40257 0.99941 0.0
H30 H 0.3168 0.38586 0.00299 0.0
H31 H 0.29092 0.40559 0.10911 0.0
O32 O 0.39419 0.47259 0.08472 0.0
C33 C 0.33964 0.45317 0.14632 0.0
Co34 Co 0.62435 0.45114 0.40545 0.0
Co35 Co 0.65874 0.41257 0.39967 0.0
C36 C 0.60767 0.40656 0.37094 0.0
O37 O 0.60447 0.42624 0.38227 0.0
O38 O 0.62779 0.3988 0.37447 0.0
C39 C 0.58344 0.47621 0.39748 0.0
O40 O 0.57767 0.46609 0.36307 0.0
C41 C 0.68106 0.36903 0.42272 0.0
C42 C 0.71288 0.37216 0.40264 0.0
C43 C 0.70109 0.35772 0.42166 0.0
N44 N 0.68123 0.38927 0.40564 0.0
N45 N 0.70028 0.39099 0.39361 0.0
C46 C 0.66147 0.36039 0.43777 0.0
H47 H 0.64559 0.36989 0.42488 0.0
H48 H 0.66541 0.36246 0.4702 0.0
H49 H 0.65865 0.34225 0.43088 0.0
C50 C 0.64847 0.44922 0.48882 0.0
N51 N 0.64502 0.4415 0.45177 0.0
N52 N 0.66018 0.42582 0.45036 0.0
C53 C 0.67439 0.42367 0.48686 0.0
C54 C 0.66706 0.43815 0.51234 0.0
C55 C 0.63502 0.46791 0.50085 0.0
H56 H 0.63576 0.48291 0.48242 0.0
H57 H 0.61683 0.46269 0.49563 0.0
H58 H 0.64165 0.47251 0.53234 0.0
O59 O 0.64089 0.4634 0.36782 0.0
O60 O 0.66555 0.43625 0.36355 0.0
H61 H 0.70409 0.4096 0.47255 0.0
H62 H 0.70738 0.41487 0.52461 0.0
C63 C 0.69533 0.40921 0.49686 0.0
H64 H 0.69027 0.39167 0.50099 0.0
H65 H 0.70473 0.40507 0.3794 0.0
O66 O 0.60362 0.47366 0.41905 0.0
C67 C 0.65697 0.45567 0.35382 0.0
Co68 Co 0.62416 0.55411 0.90521 0.0
Co69 Co 0.65712 0.59403 0.89887 0.0
C70 C 0.60605 0.59821 0.86876 0.0
O71 O 0.60397 0.57819 0.87974 0.0
O72 O 0.62579 0.60725 0.87378 0.0
C73 C 0.5834 0.52867 0.89871 0.0
O74 O 0.57706 0.53864 0.86424 0.0
C75 C 0.68005 0.63781 0.92025 0.0
C76 C 0.71235 0.63293 0.90227 0.0
C77 C 0.70071 0.64821 0.91997 0.0
N78 N 0.67977 0.61724 0.90409 0.0
N79 N 0.69908 0.61452 0.8932 0.0
C80 C 0.66042 0.64755 0.93383 0.0
H81 H 0.64415 0.63914 0.91906 0.0
H82 H 0.66325 0.64499 0.96602 0.0
H83 H 0.65902 0.66587 0.92781 0.0
C84 C 0.64782 0.5573 0.98861 0.0
N85 N 0.64425 0.56481 0.95142 0.0
N86 N 0.65886 0.58103 0.94987 0.0
C87 C 0.67283 0.58377 0.98645 0.0
C88 C 0.66591 0.56908 0.01209 0.0
C89 C 0.63504 0.53812 1.00085 0.0
H90 H 0.63627 0.52318 0.98255 0.0
H91 H 0.61668 0.54271 0.99567 0.0
H92 H 0.64184 0.53372 0.03238 0.0
O93 O 0.64131 0.54174 0.86889 0.0
O94 O 0.66424 0.57017 0.86308 0.0
H95 H 0.70245 0.59839 0.97271 0.0
H96 H 0.70515 0.59406 0.02484 0.0
C97 C 0.69326 0.59894 0.99643 0.0
H98 H 0.68754 0.6164 0.99921 0.0
H99 H 0.70335 0.59995 0.88008 0.0
O100 O 0.60374 0.53146 0.91952 0.0
C101 C 0.6568 0.55023 0.85431 0.0
Co102 Co 0.37179 0.54881 0.59377 0.0
Co103 Co 0.34097 0.59009 0.60098 0.0
C104 C 0.39171 0.59263 0.63109 0.0
O105 O 0.39274 0.57224 0.621 0.0
O106 O 0.3725 0.60281 0.62468 0.0
C107 C 0.4115 0.52186 0.60104 0.0
O108 O 0.41731 0.53069 0.63653 0.0
C109 C 0.31972 0.63439 0.5816 0.0
C110 C 0.28628 0.62981 0.59578 0.0
C111 C 0.29907 0.64518 0.58048 0.0
N112 N 0.31899 0.61369 0.59664 0.0
N113 N 0.29906 0.61115 0.60547 0.0
C114 C 0.33902 0.64252 0.56536 0.0
H115 H 0.34925 0.62812 0.55903 0.0
H116 H 0.33238 0.65245 0.53809 0.0
H117 H 0.35044 0.65343 0.58754 0.0
C118 C 0.34827 0.55283 0.51051 0.0
N119 N 0.35234 0.56033 0.54777 0.0
N120 N 0.33853 0.57718 0.54967 0.0
C121 C 0.32473 0.58055 0.51314 0.0
C122 C 0.33078 0.56539 0.48728 0.0
C123 C 0.35999 0.53298 0.49797 0.0
H124 H 0.35827 0.51826 0.51646 0.0
H125 H 0.37852 0.53676 0.50267 0.0
H126 H 0.35275 0.52865 0.46651 0.0
O127 O 0.35353 0.53635 0.62806 0.0
O128 O 0.33368 0.56658 0.6374 0.0
H129 H 0.2955 0.59639 0.526 0.0
H130 H 0.29389 0.59356 0.47389 0.0
C131 C 0.30544 0.59704 0.50333 0.0
H132 H 0.31253 0.61421 0.50307 0.0
H133 H 0.2939 0.59643 0.61697 0.0
O134 O 0.39171 0.52587 0.57907 0.0
C135 C 0.33925 0.54598 0.64401 0.0
Co136 Co 0.87783 0.95052 0.10268 0.0
Co137 Co 0.8461 0.90997 0.11085 0.0
C138 C 0.89736 0.90633 0.13694 0.0
O139 O 0.89885 0.92662 0.12673 0.0
O140 O 0.87784 0.89691 0.13251 0.0
C141 C 0.91748 0.97738 0.10778 0.0
O142 O 0.92437 0.96782 0.14253 0.0
C143 C 0.82351 0.86593 0.09032 0.0
C144 C 0.79164 0.87041 0.10983 0.0
C145 C 0.80307 0.85532 0.09137 0.0
N146 N 0.82385 0.88644 0.10674 0.0
N147 N 0.80481 0.88891 0.11857 0.0
C148 C 0.84286 0.85643 0.07563 0.0
H149 H 0.85927 0.86455 0.09047 0.0
H150 H 0.83978 0.85957 0.04356 0.0
H151 H 0.84419 0.83801 0.08065 0.0
C152 C 0.85262 0.94746 0.02009 0.0
N153 N 0.857 0.93989 0.05732 0.0
N154 N 0.84278 0.92345 0.05969 0.0
C155 C 0.8283 0.92057 0.02358 0.0
C156 C 0.83441 0.93548 0.99742 0.0
C157 C 0.86496 0.96669 0.00697 0.0
H158 H 0.86381 0.98169 0.02517 0.0
H159 H 0.88334 0.96229 0.01157 0.0
H160 H 0.85775 0.97089 0.97546 0.0
O161 O 0.86158 0.96237 0.14044 0.0
O162 O 0.84008 0.93327 0.14897 0.0
H163 H 0.79958 0.90497 0.03884 0.0
H164 H 0.79586 0.90958 0.98651 0.0
C165 C 0.80829 0.90486 0.01446 0.0
H166 H 0.81441 0.8876 0.0112 0.0
H167 H 0.80063 0.90339 0.13204 0.0
O168 O 0.89723 0.97373 0.08729 0.0
C169 C 0.84716 0.95341 0.15693 0.0
Co170 Co 0.12609 0.94495 0.39816 0.0
Co171 Co 0.16135 0.90757 0.39042 0.0
C172 C 0.11139 0.8996 0.3609 0.0
O173 O 0.10833 0.91952 0.3713 0.0
O174 O 0.13152 0.89151 0.36654 0.0
C175 C 0.08972 0.95293 0.42981 0.0
O176 O 0.0933 0.93127 0.43536 0.0
C177 C 0.18648 0.86535 0.40902 0.0
C178 C 0.21957 0.87303 0.3955 0.0
C179 C 0.20792 0.85629 0.41012 0.0
N180 N 0.18563 0.88634 0.39457 0.0
N181 N 0.20537 0.89076 0.38615 0.0
C182 C 0.16779 0.85534 0.42485 0.0
H183 H 0.15661 0.86874 0.43181 0.0
H184 H 0.1751 0.84527 0.4517 0.0
H185 H 0.15712 0.84417 0.40216 0.0
C186 C 0.15259 0.94439 0.48044 0.0
N187 N 0.14789 0.93589 0.44375 0.0
N188 N 0.16269 0.91991 0.44187 0.0
C189 C 0.17727 0.91768 0.47805 0.0
C190 C 0.17117 0.93309 0.50342 0.0
C191 C 0.14018 0.96377 0.49297 0.0
H192 H 0.1359 0.97647 0.46913 0.0
H193 H 0.12408 0.95758 0.49921 0.0
H194 H 0.15048 0.97189 0.52013 0.0
O195 O 0.14173 0.95982 0.3621 0.0
O196 O 0.16576 0.93272 0.35426 0.0
H197 H 0.20764 0.90432 0.46537 0.0
H198 H 0.20877 0.90609 0.5174 0.0
C199 C 0.19759 0.90241 0.48771 0.0
H200 H 0.19165 0.88477 0.48715 0.0
H201 H 0.20939 0.9061 0.37508 0.0
O202 O 0.10276 0.96408 0.41327 0.0
C203 C 0.15729 0.95241 0.34651 0.0
Co204 Co 0.12221 0.05217 0.8951 0.0
Co205 Co 0.15675 0.0907 0.88919 0.0
C206 C 0.10567 0.0972 0.86197 0.0
O207 O 0.1026 0.07731 0.87254 0.0
O208 O 0.12581 0.10504 0.86572 0.0
C209 C 0.0809 0.0278 0.88881 0.0
O210 O 0.07437 0.03869 0.85525 0.0
C211 C 0.18038 0.13377 0.91275 0.0
C212 C 0.21207 0.12963 0.8926 0.0
C213 C 0.20085 0.14441 0.91203 0.0
N214 N 0.17978 0.11358 0.89514 0.0
N215 N 0.19874 0.11128 0.88303 0.0
C216 C 0.16116 0.14296 0.92817 0.0
H217 H 0.14483 0.13437 0.91437 0.0
H218 H 0.16483 0.14012 0.96041 0.0
H219 H 0.15931 0.1613 0.92263 0.0
C220 C 0.14762 0.0528 0.97771 0.0
N221 N 0.1435 0.06128 0.94111 0.0
N222 N 0.15863 0.07702 0.93974 0.0
C223 C 0.17333 0.07863 0.97591 0.0
C224 C 0.1667 0.06334 1.00095 0.0
C225 C 0.13338 0.0349 0.9901 0.0
H226 H 0.13462 0.0192 0.97367 0.0
H227 H 0.11518 0.04029 0.98258 0.0
H228 H 0.13883 0.0315 0.02221 0.0
O229 O 0.13819 0.03994 0.85704 0.0
O230 O 0.16271 0.06707 0.85181 0.0
H231 H 0.203 0.0924 0.96105 0.0
H232 H 0.20661 0.08708 0.01316 0.0
C233 C 0.19446 0.09288 0.98563 0.0
H234 H 0.18965 0.11048 0.98992 0.0
H235 H 0.20269 0.09708 0.86855 0.0
O236 O 0.10151 0.02966 0.90891 0.0
C237 C 0.154 0.04764 0.84236 0.0
Co238 Co 0.87963 0.06074 0.61778 0.0
Co239 Co 0.83965 0.09516 0.61383 0.0
C240 C 0.88804 0.10685 0.65348 0.0
O241 O 0.89417 0.08726 0.6465 0.0
O242 O 0.86728 0.11317 0.64194 0.0
C243 C 0.92067 0.05397 0.59836 0.0
O244 O 0.91773 0.07575 0.59365 0.0
C245 C 0.81253 0.13522 0.58416 0.0
C246 C 0.78022 0.12907 0.60147 0.0
C247 C 0.79111 0.14442 0.58251 0.0
N248 N 0.81406 0.11528 0.60274 0.0
N249 N 0.79468 0.11171 0.61301 0.0
C250 C 0.83182 0.14576 0.57061 0.0
H251 H 0.84828 0.13728 0.58393 0.0
H252 H 0.82857 0.1442 0.53816 0.0
H253 H 0.83311 0.16391 0.57815 0.0
C254 C 0.85835 0.05816 0.53276 0.0
N255 N 0.86011 0.06783 0.56813 0.0
N256 N 0.84298 0.08194 0.56566 0.0
C257 C 0.82964 0.08148 0.52828 0.0
C258 C 0.83914 0.06656 0.50634 0.0
C259 C 0.87392 0.04003 0.52504 0.0
H260 H 0.89082 0.04748 0.52531 0.0
H261 H 0.86716 0.03189 0.49599 0.0
H262 H 0.87638 0.02713 0.54855 0.0
O263 O 0.86184 0.04544 0.65034 0.0
O264 O 0.83412 0.07039 0.64961 0.0
H265 H 0.79665 0.08544 0.48675 0.0
H266 H 0.80936 0.11082 0.51031 0.0
C267 C 0.8068 0.0927 0.51493 0.0
H268 H 0.79707 0.0909 0.53776 0.0
H269 H 0.79137 0.09747 0.62807 0.0
O270 O 0.90562 0.04254 0.60967 0.0
C271 C 0.84402 0.05167 0.66103 0.0
H272 H 0.32062 0.50421 0.63311 0.0
H273 H 0.30787 0.48105 0.68135 0.0
H274 H 0.32639 0.53441 0.76711 0.0
H275 H 0.33711 0.55814 0.7177 0.0
H276 H 0.33002 0.46328 0.74133 0.0
H277 H 0.27005 0.51704 0.79396 0.0
H278 H 0.27969 0.52432 0.7508 0.0
H279 H 0.29601 0.53266 0.79938 0.0
C280 C 0.32131 0.51111 0.66202 0.0
C281 C 0.32962 0.53294 0.67178 0.0
C282 C 0.31411 0.49787 0.68965 0.0
C283 C 0.31573 0.50597 0.72799 0.0
C284 C 0.32397 0.52794 0.73748 0.0
H285 H 0.36129 0.43591 0.93829 0.0
H286 H 0.35234 0.449 0.87053 0.0
C287 C 0.33037 0.54147 0.70937 0.0
C288 C 0.31139 0.49071 0.75918 0.0
H289 H 0.29206 0.49049 0.8428 0.0
C290 C 0.32117 0.46912 0.76288 0.0
C291 C 0.29917 0.49763 0.78686 0.0
C292 C 0.28542 0.51908 0.78214 0.0
C293 C 0.32069 0.45518 0.79494 0.0
C294 C 0.31135 0.46347 0.82546 0.0
C295 C 0.29984 0.48422 0.82013 0.0
C296 C 0.31581 0.45242 0.86482 0.0
C297 C 0.3305 0.43181 0.79575 0.0
C298 C 0.29841 0.45017 0.88496 0.0
C299 C 0.30374 0.44332 0.92453 0.0
C300 C 0.3265 0.43846 0.94431 0.0
C301 C 0.34358 0.43943 0.92352 0.0
C302 C 0.33838 0.44669 0.88451 0.0
H303 H 0.32687 0.42468 0.7655 0.0
H304 H 0.34942 0.43259 0.80703 0.0
H305 H 0.3234 0.42027 0.8146 0.0
H306 H 0.28087 0.45462 0.87063 0.0
H307 H 0.29035 0.44306 0.94019 0.0
H308 H 0.64989 0.42558 0.57315 0.0
H309 H 0.65909 0.4424 0.6391 0.0
H310 H 0.71459 0.47941 0.61123 0.0
H311 H 0.70524 0.46257 0.54496 0.0
H312 H 0.70008 0.44815 0.70472 0.0
H313 H 0.66694 0.52737 0.6261 0.0
H314 H 0.66271 0.50035 0.602 0.0
H315 H 0.69029 0.51369 0.612 0.0
C316 C 0.66463 0.43659 0.5818 0.0
C317 C 0.67704 0.44271 0.55446 0.0
C318 C 0.66982 0.44626 0.61932 0.0
C319 C 0.68731 0.46235 0.6298 0.0
C320 C 0.70091 0.46713 0.60354 0.0
H321 H 0.68948 0.56218 0.81548 0.0
H322 H 0.70194 0.54061 0.76498 0.0
C323 C 0.69575 0.45739 0.56596 0.0
C324 C 0.68899 0.47611 0.66568 0.0
H325 H 0.67486 0.52774 0.69489 0.0
C326 C 0.69493 0.46566 0.70273 0.0
C327 C 0.68223 0.49894 0.66293 0.0
C328 C 0.67502 0.51083 0.62369 0.0
C329 C 0.6937 0.4773 0.73706 0.0
C330 C 0.68582 0.4998 0.73403 0.0
C331 C 0.68091 0.51052 0.69719 0.0
C332 C 0.68034 0.51188 0.76765 0.0
C333 C 0.7006 0.4653 0.77615 0.0
C334 C 0.66404 0.50294 0.78589 0.0
C335 C 0.65689 0.51517 0.81467 0.0
C336 C 0.66569 0.53679 0.82562 0.0
C337 C 0.68232 0.5456 0.80778 0.0
C338 C 0.68951 0.53328 0.77896 0.0
H339 H 0.71344 0.45197 0.77571 0.0
H340 H 0.70786 0.47713 0.8006 0.0
H341 H 0.68529 0.4571 0.7822 0.0
H342 H 0.65621 0.48676 0.77693 0.0
H343 H 0.64401 0.50785 0.82761 0.0
H344 H 0.69007 0.44499 0.31519 0.0
H345 H 0.7019 0.4671 0.26467 0.0
H346 H 0.65421 0.51921 0.27575 0.0
H347 H 0.64257 0.49755 0.32643 0.0
H348 H 0.67433 0.47939 0.19411 0.0
H349 H 0.71077 0.55584 0.27565 0.0
H350 H 0.70594 0.53031 0.30026 0.0
H351 H 0.68275 0.54965 0.28186 0.0
C352 C 0.68233 0.46129 0.30728 0.0
C353 C 0.66532 0.46944 0.3249 0.0
C354 C 0.68915 0.47393 0.27844 0.0
C355 C 0.67926 0.49501 0.26692 0.0
C356 C 0.66256 0.50329 0.28488 0.0
H357 H 0.64836 0.58159 0.07252 0.0
H358 H 0.65745 0.56484 0.13849 0.0
C359 C 0.65574 0.49073 0.31365 0.0
C360 C 0.68454 0.5074 0.23345 0.0
H361 H 0.69798 0.55949 0.2047 0.0
C362 C 0.68002 0.49674 0.19657 0.0
C363 C 0.69194 0.53007 0.2367 0.0
C364 C 0.69836 0.54205 0.27587 0.0
C365 C 0.6813 0.5085 0.16246 0.0
C366 C 0.68765 0.53146 0.16543 0.0
C367 C 0.69315 0.54188 0.20254 0.0
C368 C 0.68603 0.54529 0.12967 0.0
C369 C 0.67449 0.49662 0.12315 0.0
C370 C 0.69988 0.54077 0.10372 0.0
C371 C 0.69477 0.55047 0.06612 0.0
C372 C 0.67589 0.56488 0.05432 0.0
C373 C 0.66325 0.57081 0.08142 0.0
C374 C 0.66837 0.56117 0.11894 0.0
H375 H 0.66656 0.47996 0.12532 0.0
H376 H 0.66218 0.50697 0.10129 0.0
H377 H 0.68993 0.49398 0.11184 0.0
H378 H 0.71369 0.52867 0.11161 0.0
H379 H 0.70445 0.54542 0.04532 0.0
H380 H 0.30711 0.44068 0.18526 0.0
H381 H 0.29435 0.4621 0.2357 0.0
H382 H 0.33926 0.51658 0.22327 0.0
H383 H 0.35176 0.49567 0.17281 0.0
H384 H 0.32143 0.47561 0.30584 0.0
H385 H 0.28142 0.55051 0.22401 0.0
H386 H 0.28725 0.52531 0.19947 0.0
H387 H 0.30953 0.54576 0.21704 0.0
C388 C 0.314 0.45736 0.19285 0.0
C389 C 0.33051 0.4664 0.17496 0.0
C390 C 0.30666 0.4696 0.22163 0.0
C391 C 0.31551 0.49114 0.23275 0.0
C392 C 0.33167 0.50028 0.21445 0.0
H393 H 0.34745 0.57786 0.42581 0.0
H394 H 0.33756 0.56089 0.35996 0.0
C395 C 0.339 0.48814 0.1858 0.0
C396 C 0.3099 0.50323 0.26624 0.0
H397 H 0.29554 0.555 0.29489 0.0
C398 C 0.3152 0.49277 0.30331 0.0
C399 C 0.30179 0.52565 0.26291 0.0
C400 C 0.29445 0.53736 0.22359 0.0
C401 C 0.31412 0.50458 0.33748 0.0
C402 C 0.30722 0.52738 0.3344 0.0
C403 C 0.30082 0.53753 0.29714 0.0
C404 C 0.30924 0.54139 0.37006 0.0
C405 C 0.32176 0.49301 0.37695 0.0
C406 C 0.2958 0.53694 0.39669 0.0
C407 C 0.30134 0.54681 0.43418 0.0
C408 C 0.32027 0.56127 0.44521 0.0
C409 C 0.33251 0.56708 0.41749 0.0
C410 C 0.32695 0.55731 0.38004 0.0
H411 H 0.32965 0.47636 0.37464 0.0
H412 H 0.33436 0.50358 0.39795 0.0
H413 H 0.30674 0.49044 0.38943 0.0
H414 H 0.28201 0.52478 0.38942 0.0
H415 H 0.292 0.5418 0.45551 0.0
H416 H 0.79601 0.95941 0.96487 0.0
H417 H 0.78609 0.97552 0.89817 0.0
H418 H 0.84139 0.93826 0.87018 0.0
H419 H 0.85102 0.92212 0.93645 0.0
H420 H 0.81715 0.0023 0.87637 0.0
H421 H 0.79301 0.93415 0.76681 0.0
H422 H 0.79227 0.93072 0.81774 0.0
H423 H 0.81882 0.92764 0.80341 0.0
C424 C 0.80523 0.95389 0.94368 0.0
C425 C 0.82397 0.9393 0.95521 0.0
C426 C 0.7997 0.96319 0.90576 0.0
C427 C 0.81284 0.95794 0.87895 0.0
C428 C 0.83061 0.94214 0.88983 0.0
H429 H 0.8621 0.01203 0.69419 0.0
H430 H 0.84992 0.98969 0.74359 0.0
C431 C 0.83613 0.9329 0.92768 0.0
C432 C 0.81085 0.97162 0.8428 0.0
H433 H 0.80904 0.9677 0.7448 0.0
C434 C 0.81479 0.99484 0.84737 0.0
C435 C 0.80793 0.96186 0.80506 0.0
C436 C 0.80254 0.93725 0.79787 0.0
C437 C 0.81741 0.0083 0.81589 0.0
C438 C 0.81558 0.99834 0.77854 0.0
C439 C 0.81049 0.97532 0.77346 0.0
C440 C 0.82121 0.01104 0.7457 0.0
C441 C 0.82357 0.03277 0.82357 0.0
C442 C 0.80878 0.03025 0.72972 0.0
C443 C 0.81583 0.04326 0.70155 0.0
C444 C 0.83533 0.03717 0.68863 0.0
C445 C 0.84709 0.01736 0.70354 0.0
C446 C 0.8401 0.00447 0.73173 0.0
H447 H 0.82872 0.03671 0.85558 0.0
H448 H 0.83784 0.03756 0.81033 0.0
H449 H 0.8085 0.0433 0.80988 0.0
H450 H 0.79389 0.0354 0.73955 0.0
H451 H 0.80623 0.05827 0.69043 0.0
H452 H 0.14179 0.00441 0.82092 0.0
H453 H 0.15241 0.98197 0.77013 0.0
H454 H 0.19423 0.03635 0.74604 0.0
H455 H 0.1839 0.05904 0.79747 0.0
H456 H 0.14238 0.99462 0.69153 0.0
H457 H 0.236 0.98102 0.74997 0.0
H458 H 0.21764 0.98977 0.78088 0.0
H459 H 0.22659 0.00971 0.74927 0.0
C460 C 0.15346 0.01162 0.80522 0.0
C461 C 0.16187 0.03364 0.81319 0.0
C462 C 0.15956 0.99868 0.77622 0.0
C463 C 0.17428 0.00737 0.75456 0.0
C464 C 0.18319 0.02914 0.76294 0.0
H465 H 0.20051 0.9667 0.53424 0.0
H466 H 0.20521 0.9828 0.60028 0.0
C467 C 0.17713 0.04215 0.79214 0.0
C468 C 0.17833 0.99433 0.72083 0.0
H469 H 0.21958 0.96898 0.68418 0.0
C470 C 0.15925 0.98889 0.69008 0.0
C471 C 0.20038 0.98705 0.71889 0.0
C472 C 0.22135 0.99199 0.75161 0.0
C473 C 0.16157 0.97655 0.65725 0.0
C474 C 0.18355 0.96898 0.65544 0.0
C475 C 0.20274 0.97456 0.68597 0.0
C476 C 0.18661 0.9562 0.62081 0.0
C477 C 0.14048 0.97218 0.62424 0.0
C478 C 0.17595 0.93521 0.61151 0.0
C479 C 0.1733 0.92604 0.57389 0.0
C480 C 0.18153 0.93763 0.54542 0.0
C481 C 0.19439 0.95734 0.55611 0.0
C482 C 0.19694 0.96659 0.59367 0.0
H483 H 0.12594 0.9832 0.6263 0.0
H484 H 0.14418 0.97485 0.59506 0.0
H485 H 0.13499 0.95448 0.62573 0.0
H486 H 0.16803 0.92686 0.63223 0.0
H487 H 0.16304 0.91099 0.56596 0.0
H488 H 0.18834 0.02479 0.02907 0.0
H489 H 0.19504 0.01088 0.09681 0.0
H490 H 0.17456 0.07511 0.13364 0.0
H491 H 0.16772 0.089 0.06557 0.0
H492 H 0.2194 0.02533 0.17728 0.0
H493 H 0.12411 0.02887 0.14472 0.0
H494 H 0.13936 0.03165 0.10673 0.0
H495 H 0.13849 0.05471 0.13937 0.0
C496 C 0.18621 0.03618 0.05203 0.0
C497 C 0.17753 0.05789 0.04246 0.0
C498 C 0.18998 0.02823 0.09062 0.0
C499 C 0.18496 0.04186 0.12003 0.0
C500 C 0.17836 0.0643 0.11122 0.0
H501 H 0.14918 0.99721 0.3332 0.0
H502 H 0.1591 0.02052 0.28264 0.0
C503 C 0.17463 0.07227 0.07253 0.0
C504 C 0.18313 0.03148 0.15755 0.0
H505 H 0.14349 0.01361 0.2054 0.0
C506 C 0.20287 0.02295 0.18377 0.0
C507 C 0.16149 0.0282 0.16561 0.0
C508 C 0.13958 0.03615 0.1376 0.0
C509 C 0.20151 0.01125 0.21803 0.0
C510 C 0.17979 0.0076 0.22564 0.0
C511 C 0.16015 0.01648 0.19966 0.0
C512 C 0.17661 0.99405 0.2595 0.0
C513 C 0.22333 0.00305 0.24578 0.0
C514 C 0.18338 0.9714 0.2637 0.0
C515 C 0.17783 0.95799 0.29285 0.0
C516 C 0.16508 0.9669 0.31792 0.0
C517 C 0.15886 0.98973 0.31423 0.0
C518 C 0.16457 0.00313 0.28539 0.0
H519 H 0.23841 0.01295 0.24259 0.0
H520 H 0.22227 0.00398 0.27694 0.0
H521 H 0.22624 0.98527 0.23882 0.0
H522 H 0.19218 0.96384 0.24349 0.0
H523 H 0.18281 0.94047 0.29478 0.0
H524 H 0.84074 0.08847 0.43923 0.0
H525 H 0.8342 0.07195 0.37303 0.0
H526 H 0.81211 0.01016 0.41641 0.0
H527 H 0.81848 0.02677 0.48232 0.0
H528 H 0.85965 0.03447 0.36314 0.0
H529 H 0.76681 0.01637 0.30803 0.0
H530 H 0.77784 0.03646 0.34684 0.0
H531 H 0.77906 0.00688 0.35747 0.0
C532 C 0.83365 0.07168 0.43407 0.0
C533 C 0.82994 0.05885 0.46543 0.0
C534 C 0.83002 0.06222 0.39643 0.0
C535 C 0.82249 0.03987 0.38968 0.0
C536 C 0.81744 0.02755 0.42064 0.0
H537 H 0.82709 0.93805 0.21439 0.0
H538 H 0.81916 0.95978 0.26908 0.0
C539 C 0.82111 0.037 0.45825 0.0
C540 C 0.82339 0.02838 0.35249 0.0
H541 H 0.79193 0.99789 0.27491 0.0
C542 C 0.84478 0.02674 0.34357 0.0
C543 C 0.80405 0.01796 0.32741 0.0
C544 C 0.78058 0.01962 0.33515 0.0
C545 C 0.8475 0.0146 0.31075 0.0
C546 C 0.82816 0.00423 0.28547 0.0
C547 C 0.80671 0.00591 0.29425 0.0
C548 C 0.83018 0.99155 0.25 0.0
C549 C 0.87126 0.01239 0.30423 0.0
C550 C 0.83819 0.00233 0.22044 0.0
C551 C 0.84296 0.98998 0.18957 0.0
C552 C 0.83948 0.96659 0.18721 0.0
C553 C 0.83005 0.95601 0.21546 0.0
C554 C 0.82549 0.96841 0.24669 0.0
H555 H 0.88478 0.01597 0.33155 0.0
H556 H 0.87411 0.99526 0.29382 0.0
H557 H 0.87327 0.02463 0.28144 0.0
H558 H 0.8414 0.02026 0.22189 0.0
H559 H 0.84985 0.99874 0.16797 0.0
H560 H 0.40852 0.49656 0.03574 0.0
H561 H 0.43811 0.50583 0.00172 0.0
H562 H 0.4904 0.48437 0.10315 0.0
H563 H 0.46091 0.47462 0.13727 0.0
H564 H 0.47721 0.53375 0.01997 0.0
H565 H 0.50003 0.44357 0.01361 0.0
H566 H 0.47437 0.45271 0.02681 0.0
H567 H 0.50166 0.45424 0.06221 0.0
C568 C 0.42632 0.49408 0.05108 0.0
C569 C 0.43234 0.48448 0.08897 0.0
C570 C 0.4432 0.49939 0.03157 0.0
C571 C 0.46634 0.49521 0.04959 0.0
C572 C 0.47255 0.48719 0.08845 0.0
H573 H 0.59054 0.50768 0.97018 0.0
H574 H 0.56162 0.49845 0.00573 0.0
C575 C 0.45568 0.48183 0.108 0.0
C576 C 0.48378 0.49827 0.02692 0.0
H577 H 0.52236 0.46972 0.98849 0.0
C578 C 0.48708 0.51978 0.01302 0.0
C579 C 0.4965 0.47992 0.01781 0.0
C580 C 0.49289 0.45626 0.03054 0.0
C581 C 0.50308 0.52354 0.9907 0.0
C582 C 0.51574 0.50519 0.98151 0.0
C583 C 0.51252 0.48369 0.99552 0.0
C584 C 0.53284 0.5082 0.95815 0.0
C585 C 0.50662 0.54718 0.97776 0.0
C586 C 0.52608 0.51572 0.91902 0.0
C587 C 0.54255 0.52102 0.89858 0.0
C588 C 0.56603 0.51884 0.91701 0.0
C589 C 0.57261 0.50978 0.95528 0.0
C590 C 0.55613 0.5045 0.97566 0.0
H591 H 0.49951 0.5599 0.99468 0.0
H592 H 0.52512 0.55073 0.98133 0.0
H593 H 0.49779 0.54912 0.9461 0.0
H594 H 0.50811 0.5182 0.90476 0.0
H595 H 0.53689 0.52782 0.86907 0.0
H596 H 0.53714 0.477 0.36555 0.0
H597 H 0.50747 0.48592 0.3997 0.0
H598 H 0.55954 0.50484 0.5034 0.0
H599 H 0.58927 0.49642 0.46938 0.0
H600 H 0.50426 0.46323 0.46742 0.0
H601 H 0.51262 0.55502 0.49494 0.0
H602 H 0.52469 0.54112 0.45895 0.0
H603 H 0.53919 0.54001 0.51045 0.0
C604 C 0.54228 0.48364 0.39526 0.0
C605 C 0.56558 0.48582 0.41487 0.0
C606 C 0.5253 0.48862 0.41476 0.0
C607 C 0.53132 0.49605 0.45401 0.0
C608 C 0.5545 0.49943 0.47293 0.0
H609 H 0.45775 0.52005 0.63307 0.0
H610 H 0.48729 0.5111 0.59864 0.0
C611 C 0.57149 0.49449 0.45346 0.0
C612 C 0.51362 0.49814 0.4764 0.0
H613 H 0.49029 0.53466 0.53052 0.0
C614 C 0.50106 0.47889 0.48099 0.0
C615 C 0.50969 0.51853 0.49431 0.0
C616 C 0.5221 0.53991 0.48918 0.0
C617 C 0.48484 0.47939 0.50356 0.0
C618 C 0.48094 0.49976 0.52152 0.0
C619 C 0.49349 0.51901 0.51692 0.0
C620 C 0.46327 0.50182 0.54396 0.0
C621 C 0.47233 0.45805 0.5086 0.0
C622 C 0.44005 0.49894 0.52488 0.0
C623 C 0.42314 0.50393 0.54448 0.0
C624 C 0.42918 0.51212 0.58339 0.0
C625 C 0.45251 0.51376 0.60314 0.0
C626 C 0.46942 0.50877 0.58347 0.0
H627 H 0.48156 0.4429 0.50221 0.0
H628 H 0.47004 0.45669 0.539 0.0
H629 H 0.45509 0.4582 0.48779 0.0
H630 H 0.43495 0.49388 0.49422 0.0
H631 H 0.40532 0.50242 0.52847 0.0
H632 H 0.08846 0.00553 0.95911 0.0
H633 H 0.06005 0.99639 0.99573 0.0
H634 H 0.00602 0.01948 0.89826 0.0
H635 H 0.03425 0.02864 0.8613 0.0
H636 H 0.03138 0.02992 0.01526 0.0
H637 H 0.98087 0.95998 0.93048 0.0
H638 H 0.0091 0.96751 0.92571 0.0
H639 H 0.98461 0.98391 0.90146 0.0
C640 C 0.0705 0.00823 0.94508 0.0
C641 C 0.06363 0.01802 0.90742 0.0
C642 C 0.05431 0.00303 0.9661 0.0
C643 C 0.03099 0.00727 0.94967 0.0
C644 C 0.02393 0.01584 0.91124 0.0
H645 H 0.90891 0.99879 0.03662 0.0
H646 H 0.93687 0.00874 0.99955 0.0
C647 C 0.04011 0.02108 0.89018 0.0
C648 C 0.01436 0.00473 0.97403 0.0
H649 H 0.96589 0.97689 0.98005 0.0
C650 C 0.0171 0.01825 0.00775 0.0
C651 C 0.99572 0.98963 0.96384 0.0
C652 C 0.99242 0.97427 0.92859 0.0
C653 C 0.00148 0.01726 0.03141 0.0
C654 C 0.98288 0.00209 0.02132 0.0
C655 C 0.98012 0.9886 0.98754 0.0
C656 C 0.9664 0.9993 0.04595 0.0
C657 C 0.00476 0.03272 0.06652 0.0
C658 C 0.97384 0.99131 0.08473 0.0
C659 C 0.95791 0.98569 0.10609 0.0
C660 C 0.93429 0.98771 0.08878 0.0
C661 C 0.92698 0.9969 0.05072 0.0
C662 C 0.94292 0.00256 0.02944 0.0
H663 H 0.01573 0.04736 0.06385 0.0
H664 H 0.98804 0.03897 0.07013 0.0
H665 H 0.01331 0.02336 0.09358 0.0
H666 H 0.99188 0.98835 0.09778 0.0
H667 H 0.9641 0.97856 0.13526 0.0
H668 H 0.92788 0.00891 0.59037 0.0
H669 H 0.95792 0.99152 0.56422 0.0
H670 H 0.98586 0.05699 0.55123 0.0
H671 H 0.95632 0.07442 0.57775 0.0
H672 H 0.96471 0.99987 0.48917 0.0
H673 H 0.04264 0.02112 0.60614 0.0
H674 H 0.01414 0.02259 0.61388 0.0
H675 H 0.02461 0.04482 0.58832 0.0
C676 C 0.94068 0.01954 0.58259 0.0
C677 C 0.93976 0.04302 0.58615 0.0
C678 C 0.95775 0.0096 0.56757 0.0
C679 C 0.97423 0.02298 0.55628 0.0
C680 C 0.97358 0.04636 0.56052 0.0
H681 H 0.08259 0.99808 0.43729 0.0
H682 H 0.05381 0.0157 0.46641 0.0
C683 C 0.95657 0.05628 0.57545 0.0
C684 C 0.99116 0.01276 0.53746 0.0
H685 H 0.04856 0.00754 0.54548 0.0
C686 C 0.98305 0.00138 0.5016 0.0
C687 C 0.01504 0.01499 0.55364 0.0
C688 C 0.02467 0.02637 0.59279 0.0
C689 C 0.99823 0.99238 0.48114 0.0
C690 C 0.02208 0.99462 0.49731 0.0
C691 C 0.03022 0.00603 0.53312 0.0
C692 C 0.03888 0.98423 0.47846 0.0
C693 C 0.98865 0.98085 0.44211 0.0
C694 C 0.03996 0.9608 0.47588 0.0
C695 C 0.05628 0.95076 0.45943 0.0
C696 C 0.07188 0.96397 0.44533 0.0
C697 C 0.07069 0.9875 0.44768 0.0
C698 C 0.05435 0.99756 0.46438 0.0
H699 H 0.97045 0.98549 0.42917 0.0
H700 H 0.99883 0.98514 0.4207 0.0
H701 H 0.98947 0.96239 0.44658 0.0
H702 H 0.02838 0.95026 0.48717 0.0
H703 H 0.05676 0.93259 0.4581 0.0
H704 H 0.26691 0.32828 0.10362 0.0
H705 H 0.25112 0.292 0.07656 0.0
H706 H 0.28844 0.29682 0.98668 0.0
H707 H 0.30382 0.33325 0.01295 0.0
H708 H 0.241 0.28576 0.95863 0.0
H709 H 0.28487 0.23093 0.083 0.0
H710 H 0.27013 0.25476 0.09639 0.0
H711 H 0.29456 0.25907 0.07654 0.0
C712 C 0.27192 0.32148 0.07833 0.0
C713 C 0.28711 0.33334 0.0611 0.0
C714 C 0.26299 0.30072 0.06305 0.0
C715 C 0.26896 0.29154 0.03007 0.0
C716 C 0.28389 0.30347 0.01251 0.0
H717 H 0.22749 0.17337 0.88294 0.0
H718 H 0.24382 0.20916 0.91104 0.0
C719 C 0.29291 0.32417 0.02789 0.0
C720 C 0.25886 0.26996 0.01285 0.0
H721 H 0.25636 0.21392 0.03224 0.0
C722 C 0.24442 0.27002 0.97461 0.0
C723 C 0.26326 0.24951 0.0339 0.0
C724 C 0.27919 0.24839 0.07462 0.0
C725 C 0.23394 0.2502 0.95702 0.0
C726 C 0.23846 0.22969 0.97794 0.0
C727 C 0.2529 0.22965 0.01624 0.0
C728 C 0.22843 0.20805 0.96064 0.0
C729 C 0.21769 0.25154 0.91659 0.0
C730 C 0.21495 0.19515 0.97978 0.0
C731 C 0.20581 0.17457 0.964 0.0
C732 C 0.20987 0.16651 0.92861 0.0
C733 C 0.22375 0.17927 0.90991 0.0
C734 C 0.23295 0.19982 0.92577 0.0
H735 H 0.21115 0.26889 0.90953 0.0
H736 H 0.22688 0.2465 0.89416 0.0
H737 H 0.20285 0.24007 0.91412 0.0
H738 H 0.21157 0.20099 0.00708 0.0
H739 H 0.19613 0.16478 0.98021 0.0
H740 H 0.72546 0.32748 0.39045 0.0
H741 H 0.7398 0.29068 0.41692 0.0
H742 H 0.71017 0.30082 0.51563 0.0
H743 H 0.6962 0.33763 0.48982 0.0
H744 H 0.76974 0.28149 0.4908 0.0
H745 H 0.68609 0.23836 0.47445 0.0
H746 H 0.68897 0.26418 0.44903 0.0
H747 H 0.68871 0.26472 0.50021 0.0
C748 C 0.72186 0.32178 0.41765 0.0
C749 C 0.70907 0.33521 0.43737 0.0
C750 C 0.73003 0.30076 0.43269 0.0
C751 C 0.7256 0.29281 0.46777 0.0
C752 C 0.71317 0.30633 0.48788 0.0
H753 H 0.76431 0.17326 0.61146 0.0
H754 H 0.74861 0.20943 0.58377 0.0
C755 C 0.70502 0.32734 0.47287 0.0
C756 C 0.73484 0.27081 0.48422 0.0
H757 H 0.71914 0.21904 0.5105 0.0
C758 C 0.75869 0.26778 0.49493 0.0
C759 C 0.72037 0.25302 0.48974 0.0
C760 C 0.6946 0.25507 0.47747 0.0
C761 C 0.76851 0.24755 0.51162 0.0
C762 C 0.75405 0.22971 0.51703 0.0
C763 C 0.73019 0.23275 0.50636 0.0
C764 C 0.76338 0.20774 0.53352 0.0
C765 C 0.7943 0.24562 0.52415 0.0
C766 C 0.77645 0.19459 0.51402 0.0
C767 C 0.78544 0.17399 0.52979 0.0
C768 C 0.78153 0.16615 0.56538 0.0
C769 C 0.76782 0.17901 0.58421 0.0
C770 C 0.75886 0.19965 0.56846 0.0
H771 H 0.8027 0.26239 0.52774 0.0
H772 H 0.7999 0.23629 0.55236 0.0
H773 H 0.80036 0.23631 0.50123 0.0
H774 H 0.77952 0.20016 0.48635 0.0
H775 H 0.79498 0.16404 0.51355 0.0
H776 H 0.77649 0.82651 0.12085 0.0
H777 H 0.75917 0.79121 0.09202 0.0
H778 H 0.79084 0.79933 0.99527 0.0
H779 H 0.80747 0.83498 0.02309 0.0
H780 H 0.74471 0.78848 0.97131 0.0
H781 H 0.7899 0.73033 0.089 0.0
H782 H 0.7757 0.75322 0.10642 0.0
H783 H 0.79935 0.75883 0.08508 0.0
C784 C 0.77995 0.82065 0.09363 0.0
C785 C 0.79393 0.83325 0.0749 0.0
C786 C 0.77017 0.8004 0.07733 0.0
C787 C 0.77413 0.79237 0.04194 0.0
C788 C 0.78786 0.80504 0.02293 0.0
H789 H 0.72781 0.67671 0.89104 0.0
H790 H 0.74509 0.71204 0.91984 0.0
C791 C 0.79765 0.82529 0.03922 0.0
C792 C 0.76309 0.77131 0.0238 0.0
H793 H 0.75902 0.71504 0.03994 0.0
C794 C 0.74793 0.7724 0.9862 0.0
C795 C 0.76726 0.75036 0.04335 0.0
C796 C 0.78409 0.74798 0.08304 0.0
C797 C 0.73651 0.75316 0.9679 0.0
C798 C 0.74065 0.73222 0.98747 0.0
C799 C 0.75581 0.73113 0.02506 0.0
C800 C 0.72961 0.71117 0.96932 0.0
C801 C 0.71974 0.75549 0.92813 0.0
C802 C 0.71555 0.69871 0.98797 0.0
C803 C 0.70574 0.67847 0.97166 0.0
C804 C 0.70981 0.67031 0.93635 0.0
C805 C 0.72409 0.68272 0.91797 0.0
C806 C 0.73387 0.70297 0.93426 0.0
H807 H 0.71409 0.77317 0.92191 0.0
H808 H 0.72812 0.75001 0.90486 0.0
H809 H 0.70439 0.74479 0.92619 0.0
H810 H 0.71233 0.70457 0.01537 0.0
H811 H 0.69565 0.66894 0.9875 0.0
H812 H 0.25215 0.84774 0.44893 0.0
H813 H 0.26871 0.8122 0.47769 0.0
H814 H 0.20294 0.77993 0.43683 0.0
H815 H 0.18634 0.8153 0.40747 0.0
H816 H 0.22493 0.77168 0.51735 0.0
H817 H 0.28325 0.75602 0.41987 0.0
H818 H 0.28612 0.7832 0.44291 0.0
H819 H 0.25994 0.77592 0.40761 0.0
C820 C 0.24123 0.83304 0.44583 0.0
C821 C 0.2178 0.83448 0.42658 0.0
C822 C 0.25075 0.81273 0.46219 0.0
C823 C 0.23709 0.7934 0.4592 0.0
C824 C 0.21375 0.7947 0.43963 0.0
H825 H 0.25552 0.65597 0.54166 0.0
H826 H 0.24093 0.69216 0.51328 0.0
C827 C 0.20423 0.81501 0.42321 0.0
C828 C 0.24694 0.77197 0.47748 0.0
H829 H 0.28669 0.73155 0.47437 0.0
C830 C 0.23838 0.76286 0.50789 0.0
C831 C 0.2646 0.7606 0.46525 0.0
C832 C 0.27394 0.76928 0.43191 0.0
C833 C 0.24714 0.74275 0.52666 0.0
C834 C 0.2646 0.73121 0.51412 0.0
C835 C 0.27331 0.74043 0.48394 0.0
C836 C 0.27361 0.70924 0.53124 0.0
C837 C 0.23788 0.73425 0.56024 0.0
C838 C 0.29696 0.70665 0.54999 0.0
C839 C 0.3054 0.68589 0.5661 0.0
C840 C 0.29066 0.6673 0.56332 0.0
C841 C 0.26731 0.66999 0.54444 0.0
C842 C 0.25891 0.69068 0.5283 0.0
H843 H 0.22966 0.74791 0.57344 0.0
H844 H 0.2247 0.7212 0.54899 0.0
H845 H 0.25168 0.72662 0.58373 0.0
H846 H 0.30859 0.72078 0.55262 0.0
H847 H 0.32332 0.68459 0.58137 0.0
H848 H 0.56989 0.40092 0.39791 0.0
H849 H 0.53223 0.38826 0.36025 0.0
H850 H 0.56058 0.37237 0.26188 0.0
H851 H 0.59865 0.38415 0.3005 0.0
H852 H 0.51171 0.41112 0.29801 0.0
H853 H 0.5145 0.32232 0.25255 0.0
H854 H 0.53645 0.33461 0.2918 0.0
H855 H 0.53686 0.33892 0.24111 0.0
C856 C 0.56824 0.39383 0.36883 0.0
C857 C 0.5871 0.39342 0.35207 0.0
C858 C 0.5467 0.38666 0.34726 0.0
C859 C 0.54345 0.37932 0.30815 0.0
C860 C 0.56265 0.37747 0.29223 0.0
H861 H 0.43176 0.40747 0.11555 0.0
H862 H 0.46833 0.3957 0.15852 0.0
C863 C 0.58442 0.38426 0.31425 0.0
C864 C 0.51973 0.37756 0.28253 0.0
H865 H 0.48304 0.34461 0.21486 0.0
C866 C 0.50537 0.39635 0.28051 0.0
C867 C 0.51139 0.35839 0.25936 0.0
C868 C 0.52553 0.33733 0.26156 0.0
C869 C 0.4833 0.39677 0.25537 0.0
C870 C 0.4753 0.37801 0.23116 0.0
C871 C 0.48928 0.35894 0.23359 0.0
C872 C 0.45324 0.37929 0.20098 0.0
C873 C 0.46885 0.41764 0.25374 0.0
C874 C 0.43259 0.37306 0.20988 0.0
C875 C 0.4115 0.37963 0.18505 0.0
C876 C 0.41099 0.39278 0.15152 0.0
C877 C 0.43166 0.3974 0.1413 0.0
C878 C 0.45257 0.39062 0.1657 0.0
H879 H 0.47654 0.4298 0.27743 0.0
H880 H 0.46697 0.42606 0.22482 0.0
H881 H 0.45142 0.41311 0.25641 0.0
H882 H 0.43284 0.36451 0.23727 0.0
H883 H 0.39583 0.37603 0.19375 0.0
H884 H 0.39842 0.63478 0.66588 0.0
H885 H 0.43509 0.6512 0.7027 0.0
H886 H 0.47051 0.59173 0.67962 0.0
H887 H 0.43475 0.57576 0.64252 0.0
H888 H 0.46364 0.63673 0.7685 0.0
H889 H 0.51246 0.63826 0.65577 0.0
H890 H 0.48169 0.63483 0.64304 0.0
H891 H 0.50036 0.61079 0.65574 0.0
C892 C 0.41412 0.62544 0.66813 0.0
C893 C 0.41354 0.60392 0.65122 0.0
C894 C 0.43506 0.63484 0.68915 0.0
C895 C 0.45573 0.62296 0.69319 0.0
C896 C 0.45504 0.60165 0.6759 0.0
H897 H 0.5627 0.58733 0.87068 0.0
H898 H 0.52715 0.60185 0.83014 0.0
C899 C 0.43436 0.59236 0.655 0.0
C900 C 0.47787 0.63124 0.71859 0.0
H901 H 0.53516 0.62969 0.72356 0.0
C902 C 0.47924 0.63589 0.7584 0.0
C903 C 0.49832 0.63102 0.70553 0.0
C904 C 0.49804 0.62872 0.66253 0.0
C905 C 0.50054 0.63761 0.78609 0.0
C906 C 0.52095 0.63386 0.77385 0.0
C907 C 0.5196 0.63198 0.73338 0.0
C908 C 0.54293 0.62778 0.80238 0.0
C909 C 0.50085 0.64242 0.82849 0.0
C910 C 0.56404 0.63722 0.80026 0.0
C911 C 0.58481 0.62858 0.82336 0.0
C912 C 0.58472 0.61016 0.84849 0.0
C913 C 0.56351 0.60146 0.85157 0.0
C914 C 0.54299 0.61001 0.82868 0.0
H915 H 0.4869 0.65429 0.83021 0.0
H916 H 0.49771 0.6266 0.84306 0.0
H917 H 0.51749 0.64965 0.84495 0.0
H918 H 0.56449 0.65079 0.77986 0.0
H919 H 0.60085 0.63559 0.8202 0.0
H920 H 0.06812 0.90709 0.36661 0.0
H921 H 0.03293 0.8913 0.32713 0.0
H922 H 0.07143 0.8466 0.27092 0.0
H923 H 0.10743 0.86316 0.31032 0.0
H924 H 0.04044 0.86716 0.21738 0.0
H925 H 0.99514 0.83693 0.32446 0.0
H926 H 0.00496 0.86466 0.33966 0.0
H927 H 0.02554 0.84273 0.33855 0.0
C928 C 0.06929 0.89359 0.34646 0.0
C929 C 0.09065 0.88655 0.34139 0.0
C930 C 0.04899 0.88427 0.32418 0.0
C931 C 0.04933 0.86735 0.29646 0.0
C932 C 0.07069 0.85946 0.29245 0.0
H933 H 0.90365 0.8631 0.16745 0.0
H934 H 0.94034 0.84521 0.20022 0.0
C935 C 0.09124 0.86888 0.315 0.0
C936 C 0.02732 0.86092 0.26833 0.0
H937 H 0.97044 0.85663 0.26572 0.0
C938 C 0.02523 0.86405 0.22786 0.0
C939 C 0.00735 0.85602 0.28128 0.0
C940 C 0.0085 0.84963 0.32338 0.0
C941 C 0.0036 0.8654 0.20108 0.0
C942 C 0.98358 0.86437 0.21535 0.0
C943 C 0.9857 0.8582 0.25477 0.0
C944 C 0.96128 0.87357 0.1922 0.0
C945 C 0.00251 0.86912 0.15807 0.0
C946 C 0.96075 0.89545 0.17721 0.0
C947 C 0.94007 0.90555 0.15857 0.0
C948 C 0.91909 0.89428 0.1549 0.0
C949 C 0.91947 0.87224 0.16968 0.0
C950 C 0.94043 0.862 0.18836 0.0
H951 H 0.01648 0.8598 0.14946 0.0
H952 H 0.98581 0.86369 0.13878 0.0
H953 H 0.00506 0.88724 0.15296 0.0
H954 H 0.97637 0.90515 0.18101 0.0
H955 H 0.94063 0.92254 0.14779 0.0
H956 H 0.06331 0.09199 0.87399 0.0
H957 H 0.02761 0.10897 0.83748 0.0
H958 H 0.0647 0.14945 0.77211 0.0
H959 H 0.10097 0.13228 0.80893 0.0
H960 H 0.01128 0.15483 0.82327 0.0
H961 H 0.0202 0.1099 0.68807 0.0
H962 H 0.03763 0.10266 0.73627 0.0
H963 H 0.04301 0.12823 0.71301 0.0
C964 C 0.06402 0.10476 0.85228 0.0
C965 C 0.08496 0.11059 0.84398 0.0
C966 C 0.04355 0.11454 0.83156 0.0
C967 C 0.04344 0.13027 0.80178 0.0
C968 C 0.06442 0.13717 0.79478 0.0
H969 H 0.91257 0.13816 0.62519 0.0
H970 H 0.95033 0.15274 0.66035 0.0
C971 C 0.08511 0.12746 0.81592 0.0
C972 C 0.021 0.13731 0.77614 0.0
H973 H 0.98422 0.12428 0.6879 0.0
C974 C 0.00548 0.14869 0.79327 0.0
C975 C 0.01345 0.12937 0.73697 0.0
C976 C 0.0293 0.11676 0.71729 0.0
C977 C 0.98229 0.1511 0.77312 0.0
C978 C 0.97433 0.14145 0.73522 0.0
C979 C 0.99025 0.13166 0.71696 0.0
C980 C 0.9495 0.13805 0.71652 0.0
C981 C 0.96642 0.16327 0.79324 0.0
C982 C 0.93609 0.12566 0.73663 0.0
C983 C 0.91454 0.11756 0.71666 0.0
C984 C 0.90597 0.12173 0.67628 0.0
C985 C 0.91859 0.13534 0.65664 0.0
C986 C 0.94022 0.14347 0.67663 0.0
H987 H 0.9757 0.17677 0.81279 0.0
H988 H 0.95164 0.1708 0.77157 0.0
H989 H 0.95982 0.15125 0.81198 0.0
H990 H 0.94303 0.12061 0.76696 0.0
H991 H 0.90539 0.1065 0.73203 0.0
loop_
_geom_bond_atom_site_label_1
_geom_bond_atom_site_label_2
_geom_bond_distance
_geom_bond_site_symmetry_2
_ccdc_geom_bond_type
Co0 O3 1.970 . S
Co0 N17 1.989 1_554 S
Co0 O25 1.967 . S
Co0 O32 1.920 . S
Co1 O4 1.966 . S
Co1 N10 2.022 . S
Co1 N18 1.993 1_554 S
Co1 O26 1.941 . S
C2 O3 1.258 . S
C2 O4 1.263 . S
O3 Co0 1.970 . S
O3 C2 1.258 . S
O4 Co1 1.966 . S
O4 C2 1.263 . S
C5 O6 1.235 . S
C5 O32 1.289 . S
O6 C5 1.235 . S
C7 C9 1.400 . S
C7 N10 1.351 . S
C7 C12 1.501 . S
C8 C9 1.387 . S
C8 N11 1.341 . S
C9 C7 1.400 . S
C9 C8 1.387 . S
N10 Co1 2.022 . S
N10 C7 1.351 . S
N10 N11 1.365 . S
N11 C8 1.341 . S
N11 N10 1.365 . S
N11 H31 0.862 . S
C12 C7 1.501 . S
C12 H13 0.961 . S
C12 H14 0.961 . S
C12 H15 0.960 . S
H13 C12 0.961 . S
H14 C12 0.961 . S
H15 C12 0.960 . S
C16 N17 1.342 . S
C16 C20 1.401 . S
C16 C21 1.499 . S
N17 Co0 1.989 1_556 S
N17 C16 1.342 . S
N17 N18 1.388 . S
N18 Co1 1.993 1_556 S
N18 N17 1.388 . S
N18 C19 1.346 . S
C19 N18 1.346 . S
C19 C20 1.396 . S
C19 C29 1.510 . S
C20 C16 1.401 . S
C20 C19 1.396 . S
C21 C16 1.499 . S
C21 H22 0.959 . S
C21 H23 0.960 . S
C21 H24 0.961 . S
H22 C21 0.959 . S
H23 C21 0.960 . S
H24 C21 0.961 . S
O25 Co0 1.967 . S
O25 C33 1.258 . S
O26 Co1 1.941 . S
O26 C33 1.266 . S
H27 C29 0.959 . S
H28 C29 0.961 . S
C29 C19 1.510 . S
C29 H27 0.959 . S
C29 H28 0.961 . S
C29 H30 0.960 . S
H30 C29 0.960 . S
H31 N11 0.862 . S
O32 Co0 1.920 . S
O32 C5 1.289 . S
C33 O25 1.258 . S
C33 O26 1.266 . S
Co34 O37 1.970 . S
Co34 N51 1.989 . S
Co34 O59 1.967 . S
Co34 O66 1.920 . S
Co35 O38 1.966 . S
Co35 N44 2.022 . S
Co35 N52 1.993 . S
Co35 O60 1.941 . S
C36 O37 1.258 . S
C36 O38 1.263 . S
O37 Co34 1.970 . S
O37 C36 1.258 . S
O38 Co35 1.966 . S
O38 C36 1.263 . S
C39 O40 1.235 . S
C39 O66 1.289 . S
O40 C39 1.235 . S
C41 C43 1.400 . S
C41 N44 1.351 . S
C41 C46 1.501 . S
C42 C43 1.387 . S
C42 N45 1.341 . S
C43 C41 1.400 . S
C43 C42 1.387 . S
N44 Co35 2.022 . S
N44 C41 1.351 . S
N44 N45 1.365 . S
N45 C42 1.341 . S
N45 N44 1.365 . S
N45 H65 0.862 . S
C46 C41 1.501 . S
C46 H47 0.961 . S
C46 H48 0.961 . S
C46 H49 0.960 . S
H47 C46 0.961 . S
H48 C46 0.961 . S
H49 C46 0.960 . S
C50 N51 1.342 . S
C50 C54 1.401 . S
C50 C55 1.499 . S
N51 Co34 1.989 . S
N51 C50 1.342 . S
N51 N52 1.388 . S
N52 Co35 1.993 . S
N52 N51 1.388 . S
N52 C53 1.346 . S
C53 N52 1.346 . S
C53 C54 1.396 . S
C53 C63 1.510 . S
C54 C50 1.401 . S
C54 C53 1.396 . S
C55 C50 1.499 . S
C55 H56 0.959 . S
C55 H57 0.960 . S
C55 H58 0.961 . S
H56 C55 0.959 . S
H57 C55 0.960 . S
H58 C55 0.961 . S
O59 Co34 1.967 . S
O59 C67 1.258 . S
O60 Co35 1.941 . S
O60 C67 1.266 . S
H61 C63 0.959 . S
H62 C63 0.961 . S
C63 C53 1.510 . S
C63 H61 0.959 . S
C63 H62 0.961 . S
C63 H64 0.960 . S
H64 C63 0.960 . S
H65 N45 0.862 . S
O66 Co34 1.920 . S
O66 C39 1.289 . S
C67 O59 1.258 . S
C67 O60 1.266 . S
Co68 O71 1.970 . S
Co68 N85 1.989 1_556 S
Co68 O93 1.967 . S
Co68 O100 1.920 . S
Co69 O72 1.966 . S
Co69 N78 2.022 . S
Co69 N86 1.993 1_556 S
Co69 O94 1.941 . S
C70 O71 1.258 . S
C70 O72 1.263 . S
O71 Co68 1.970 . S
O71 C70 1.258 . S
O72 Co69 1.966 . S
O72 C70 1.263 . S
C73 O74 1.235 . S
C73 O100 1.289 . S
O74 C73 1.235 . S
C75 C77 1.400 . S
C75 N78 1.351 . S
C75 C80 1.501 . S
C76 C77 1.387 . S
C76 N79 1.341 . S
C77 C75 1.400 . S
C77 C76 1.387 . S
N78 Co69 2.022 . S
N78 C75 1.351 . S
N78 N79 1.365 . S
N79 C76 1.341 . S
N79 N78 1.365 . S
N79 H99 0.862 . S
C80 C75 1.501 . S
C80 H81 0.961 . S
C80 H82 0.961 . S
C80 H83 0.960 . S
H81 C80 0.961 . S
H82 C80 0.961 . S
H83 C80 0.960 . S
C84 N85 1.342 . S
C84 C88 1.401 . S
C84 C89 1.499 . S
N85 Co68 1.989 1_554 S
N85 C84 1.342 . S
N85 N86 1.388 . S
N86 Co69 1.993 1_554 S
N86 N85 1.388 . S
N86 C87 1.346 . S
C87 N86 1.346 . S
C87 C88 1.396 . S
C87 C97 1.510 . S
C88 C84 1.401 . S
C88 C87 1.396 . S
C89 C84 1.499 . S
C89 H90 0.959 . S
C89 H91 0.960 . S
C89 H92 0.961 . S
H90 C89 0.959 . S
H91 C89 0.960 . S
H92 C89 0.961 . S
O93 Co68 1.967 . S
O93 C101 1.258 . S
O94 Co69 1.941 . S
O94 C101 1.266 . S
H95 C97 0.959 . S
H96 C97 0.961 . S
C97 C87 1.510 . S
C97 H95 0.959 . S
C97 H96 0.961 . S
C97 H98 0.960 . S
H98 C97 0.960 . S
H99 N79 0.862 . S
O100 Co68 1.920 . S
O100 C73 1.289 . S
C101 O93 1.258 . S
C101 O94 1.266 . S
Co102 O105 1.970 . S
Co102 N119 1.989 . S
Co102 O127 1.967 . S
Co102 O134 1.920 . S
Co103 O106 1.966 . S
Co103 N112 2.022 . S
Co103 N120 1.993 . S
Co103 O128 1.941 . S
C104 O105 1.258 . S
C104 O106 1.263 . S
O105 Co102 1.970 . S
O105 C104 1.258 . S
O106 Co103 1.966 . S
O106 C104 1.263 . S
C107 O108 1.235 . S
C107 O134 1.289 . S
O108 C107 1.235 . S
C109 C111 1.400 . S
C109 N112 1.351 . S
C109 C114 1.501 . S
C110 C111 1.387 . S
C110 N113 1.341 . S
C111 C109 1.400 . S
C111 C110 1.387 . S
N112 Co103 2.022 . S
N112 C109 1.351 . S
N112 N113 1.365 . S
N113 C110 1.341 . S
N113 N112 1.365 . S
N113 H133 0.862 . S
C114 C109 1.501 . S
C114 H115 0.961 . S
C114 H116 0.961 . S
C114 H117 0.960 . S
H115 C114 0.961 . S
H116 C114 0.961 . S
H117 C114 0.960 . S
C118 N119 1.342 . S
C118 C122 1.401 . S
C118 C123 1.499 . S
N119 Co102 1.989 . S
N119 C118 1.342 . S
N119 N120 1.388 . S
N120 Co103 1.993 . S
N120 N119 1.388 . S
N120 C121 1.346 . S
C121 N120 1.346 . S
C121 C122 1.396 . S
C121 C131 1.510 . S
C122 C118 1.401 . S
C122 C121 1.396 . S
C123 C118 1.499 . S
C123 H124 0.959 . S
C123 H125 0.960 . S
C123 H126 0.961 . S
H124 C123 0.959 . S
H125 C123 0.960 . S
H126 C123 0.961 . S
O127 Co102 1.967 . S
O127 C135 1.258 . S
O128 Co103 1.941 . S
O128 C135 1.266 . S
H129 C131 0.959 . S
H130 C131 0.961 . S
C131 C121 1.510 . S
C131 H129 0.959 . S
C131 H130 0.961 . S
C131 H132 0.960 . S
H132 C131 0.960 . S
H133 N113 0.862 . S
O134 Co102 1.920 . S
O134 C107 1.289 . S
C135 O127 1.258 . S
C135 O128 1.266 . S
Co136 O139 1.970 . S
Co136 N153 1.989 1_554 S
Co136 O161 1.967 . S
Co136 O168 1.920 . S
Co137 O140 1.966 . S
Co137 N146 2.022 . S
Co137 N154 1.993 1_554 S
Co137 O162 1.941 . S
C138 O139 1.258 . S
C138 O140 1.263 . S
O139 Co136 1.970 . S
O139 C138 1.258 . S
O140 Co137 1.966 . S
O140 C138 1.263 . S
C141 O142 1.235 . S
C141 O168 1.289 . S
O142 C141 1.235 . S
C143 C145 1.400 . S
C143 N146 1.351 . S
C143 C148 1.501 . S
C144 C145 1.387 . S
C144 N147 1.341 . S
C145 C143 1.400 . S
C145 C144 1.387 . S
N146 Co137 2.022 . S
N146 C143 1.351 . S
N146 N147 1.365 . S
N147 C144 1.341 . S
N147 N146 1.365 . S
N147 H167 0.862 . S
C148 C143 1.501 . S
C148 H149 0.961 . S
C148 H150 0.961 . S
C148 H151 0.960 . S
H149 C148 0.961 . S
H150 C148 0.961 . S
H151 C148 0.960 . S
C152 N153 1.342 . S
C152 C156 1.401 . S
C152 C157 1.499 . S
N153 Co136 1.989 1_556 S
N153 C152 1.342 . S
N153 N154 1.388 . S
N154 Co137 1.993 1_556 S
N154 N153 1.388 . S
N154 C155 1.346 . S
C155 N154 1.346 . S
C155 C156 1.396 . S
C155 C165 1.510 . S
C156 C152 1.401 . S
C156 C155 1.396 . S
C157 C152 1.499 . S
C157 H158 0.959 . S
C157 H159 0.960 . S
C157 H160 0.961 . S
H158 C157 0.959 . S
H159 C157 0.960 . S
H160 C157 0.961 . S
O161 Co136 1.967 . S
O161 C169 1.258 . S
O162 Co137 1.941 . S
O162 C169 1.266 . S
H163 C165 0.959 . S
H164 C165 0.961 . S
C165 C155 1.510 . S
C165 H163 0.959 . S
C165 H164 0.961 . S
C165 H166 0.960 . S
H166 C165 0.960 . S
H167 N147 0.862 . S
O168 Co136 1.920 . S
O168 C141 1.289 . S
C169 O161 1.258 . S
C169 O162 1.266 . S
Co170 O173 1.970 . S
Co170 N187 1.989 . S
Co170 O195 1.967 . S
Co170 O202 1.920 . S
Co171 O174 1.966 . S
Co171 N180 2.022 . S
Co171 N188 1.993 . S
Co171 O196 1.941 . S
C172 O173 1.258 . S
C172 O174 1.263 . S
O173 Co170 1.970 . S
O173 C172 1.258 . S
O174 Co171 1.966 . S
O174 C172 1.263 . S
C175 O176 1.235 . S
C175 O202 1.289 . S
O176 C175 1.235 . S
C177 C179 1.400 . S
C177 N180 1.351 . S
C177 C182 1.501 . S
C178 C179 1.387 . S
C178 N181 1.341 . S
C179 C177 1.400 . S
C179 C178 1.387 . S
N180 Co171 2.022 . S
N180 C177 1.351 . S
N180 N181 1.365 . S
N181 C178 1.341 . S
N181 N180 1.365 . S
N181 H201 0.862 . S
C182 C177 1.501 . S
C182 H183 0.961 . S
C182 H184 0.961 . S
C182 H185 0.960 . S
H183 C182 0.961 . S
H184 C182 0.961 . S
H185 C182 0.960 . S
C186 N187 1.342 . S
C186 C190 1.401 . S
C186 C191 1.499 . S
N187 Co170 1.989 . S
N187 C186 1.342 . S
N187 N188 1.388 . S
N188 Co171 1.993 . S
N188 N187 1.388 . S
N188 C189 1.346 . S
C189 N188 1.346 . S
C189 C190 1.396 . S
C189 C199 1.510 . S
C190 C186 1.401 . S
C190 C189 1.396 . S
C191 C186 1.499 . S
C191 H192 0.959 . S
C191 H193 0.960 . S
C191 H194 0.961 . S
H192 C191 0.959 . S
H193 C191 0.960 . S
H194 C191 0.961 . S
O195 Co170 1.967 . S
O195 C203 1.258 . S
O196 Co171 1.941 . S
O196 C203 1.266 . S
H197 C199 0.959 . S
H198 C199 0.961 . S
C199 C189 1.510 . S
C199 H197 0.959 . S
C199 H198 0.961 . S
C199 H200 0.960 . S
H200 C199 0.960 . S
H201 N181 0.862 . S
O202 Co170 1.920 . S
O202 C175 1.289 . S
C203 O195 1.258 . S
C203 O196 1.266 . S
Co204 O207 1.970 . S
Co204 N221 1.989 1_556 S
Co204 O229 1.967 . S
Co204 O236 1.920 . S
Co205 O208 1.966 . S
Co205 N214 2.022 . S
Co205 N222 1.993 1_556 S
Co205 O230 1.941 . S
C206 O207 1.258 . S
C206 O208 1.263 . S
O207 Co204 1.970 . S
O207 C206 1.258 . S
O208 Co205 1.966 . S
O208 C206 1.263 . S
C209 O210 1.235 . S
C209 O236 1.289 . S
O210 C209 1.235 . S
C211 C213 1.400 . S
C211 N214 1.351 . S
C211 C216 1.501 . S
C212 C213 1.387 . S
C212 N215 1.341 . S
C213 C211 1.400 . S
C213 C212 1.387 . S
N214 Co205 2.022 . S
N214 C211 1.351 . S
N214 N215 1.365 . S
N215 C212 1.341 . S
N215 N214 1.365 . S
N215 H235 0.862 . S
C216 C211 1.501 . S
C216 H217 0.961 . S
C216 H218 0.961 . S
C216 H219 0.960 . S
H217 C216 0.961 . S
H218 C216 0.961 . S
H219 C216 0.960 . S
C220 N221 1.342 . S
C220 C224 1.401 . S
C220 C225 1.499 . S
N221 Co204 1.989 1_554 S
N221 C220 1.342 . S
N221 N222 1.388 . S
N222 Co205 1.993 1_554 S
N222 N221 1.388 . S
N222 C223 1.346 . S
C223 N222 1.346 . S
C223 C224 1.396 . S
C223 C233 1.510 . S
C224 C220 1.401 . S
C224 C223 1.396 . S
C225 C220 1.499 . S
C225 H226 0.959 . S
C225 H227 0.960 . S
C225 H228 0.961 . S
H226 C225 0.959 . S
H227 C225 0.960 . S
H228 C225 0.961 . S
O229 Co204 1.967 . S
O229 C237 1.258 . S
O230 Co205 1.941 . S
O230 C237 1.266 . S
H231 C233 0.959 . S
H232 C233 0.961 . S
C233 C223 1.510 . S
C233 H231 0.959 . S
C233 H232 0.961 . S
C233 H234 0.960 . S
H234 C233 0.960 . S
H235 N215 0.862 . S
O236 Co204 1.920 . S
O236 C209 1.289 . S
C237 O229 1.258 . S
C237 O230 1.266 . S
Co238 O241 1.970 . S
Co238 N255 1.989 . S
Co238 O263 1.967 . S
Co238 O270 1.920 . S
Co239 O242 1.966 . S
Co239 N248 2.022 . S
Co239 N256 1.993 . S
Co239 O264 1.941 . S
C240 O241 1.258 . S
C240 O242 1.263 . S
O241 Co238 1.970 . S
O241 C240 1.258 . S
O242 Co239 1.966 . S
O242 C240 1.263 . S
C243 O244 1.235 . S
C243 O270 1.289 . S
O244 C243 1.235 . S
C245 C247 1.400 . S
C245 N248 1.351 . S
C245 C250 1.501 . S
C246 C247 1.387 . S
C246 N249 1.341 . S
C247 C245 1.400 . S
C247 C246 1.387 . S
N248 Co239 2.022 . S
N248 C245 1.351 . S
N248 N249 1.365 . S
N249 C246 1.341 . S
N249 N248 1.365 . S
N249 H269 0.862 . S
C250 C245 1.501 . S
C250 H251 0.961 . S
C250 H252 0.961 . S
C250 H253 0.960 . S
H251 C250 0.961 . S
H252 C250 0.961 . S
H253 C250 0.960 . S
C254 N255 1.342 . S
C254 C258 1.401 . S
C254 C259 1.499 . S
N255 Co238 1.989 . S
N255 C254 1.342 . S
N255 N256 1.388 . S
N256 Co239 1.993 . S
N256 N255 1.388 . S
N256 C257 1.346 . S
C257 N256 1.346 . S
C257 C258 1.396 . S
C257 C267 1.510 . S
C258 C254 1.401 . S
C258 C257 1.396 . S
C259 C254 1.499 . S
C259 H260 0.959 . S
C259 H261 0.960 . S
C259 H262 0.961 . S
H260 C259 0.959 . S
H261 C259 0.960 . S
H262 C259 0.961 . S
O263 Co238 1.967 . S
O263 C271 1.258 . S
O264 Co239 1.941 . S
O264 C271 1.266 . S
H265 C267 0.959 . S
H266 C267 0.961 . S
C267 C257 1.510 . S
C267 H265 0.959 . S
C267 H266 0.961 . S
C267 H268 0.960 . S
H268 C267 0.960 . S
H269 N249 0.862 . S
O270 Co238 1.920 . S
O270 C243 1.289 . S
C271 O263 1.258 . S
C271 O264 1.266 . S
H272 C280 0.929 . S
H273 C282 0.930 . S
H274 C284 0.930 . S
H275 C287 0.929 . S
H276 C290 0.930 . S
H277 C292 0.960 . S
H278 C292 0.960 . S
H279 C292 0.960 . S
C280 H272 0.929 . S
C280 C281 1.377 . S
C280 C282 1.384 . S
C281 C280 1.377 . S
C281 C287 1.390 . S
C282 H273 0.930 . S
C282 C280 1.384 . S
C282 C283 1.372 . S
C283 C282 1.372 . S
C283 C284 1.400 . S
C283 C288 1.490 . S
C284 H274 0.930 . S
C284 C283 1.400 . S
C284 C287 1.386 . S
H285 C301 0.930 . S
H286 C302 0.931 . S
C287 H275 0.929 . S
C287 C281 1.390 . S
C287 C284 1.386 . S
C288 C283 1.490 . S
C288 C290 1.395 . S
C288 C291 1.403 . S
H289 C295 0.930 . S
C290 H276 0.930 . S
C290 C288 1.395 . S
C290 C293 1.403 . S
C291 C288 1.403 . S
C291 C292 1.524 . S
C291 C295 1.400 . S
C292 H277 0.960 . S
C292 H278 0.960 . S
C292 H279 0.960 . S
C292 C291 1.524 . S
C293 C290 1.403 . S
C293 C294 1.392 . S
C293 C297 1.495 . S
C294 C293 1.392 . S
C294 C295 1.385 . S
C294 C296 1.478 . S
C295 H289 0.930 . S
C295 C291 1.400 . S
C295 C294 1.385 . S
C296 C294 1.478 . S
C296 C298 1.381 . S
C296 C302 1.383 . S
C297 C293 1.495 . S
C297 H303 0.959 . S
C297 H304 0.961 . S
C297 H305 0.960 . S
C298 C296 1.381 . S
C298 C299 1.394 . S
C298 H306 0.930 . S
C299 C298 1.394 . S
C299 C300 1.383 . S
C299 H307 0.929 . S
C300 C299 1.383 . S
C300 C301 1.377 . S
C301 H285 0.930 . S
C301 C300 1.377 . S
C301 C302 1.379 . S
C302 H286 0.931 . S
C302 C296 1.383 . S
C302 C301 1.379 . S
H303 C297 0.959 . S
H304 C297 0.961 . S
H305 C297 0.960 . S
H306 C298 0.930 . S
H307 C299 0.929 . S
H308 C316 0.929 . S
H309 C318 0.930 . S
H310 C320 0.930 . S
H311 C323 0.929 . S
H312 C326 0.930 . S
H313 C328 0.960 . S
H314 C328 0.960 . S
H315 C328 0.960 . S
C316 H308 0.929 . S
C316 C317 1.377 . S
C316 C318 1.384 . S
C317 C316 1.377 . S
C317 C323 1.390 . S
C318 H309 0.930 . S
C318 C316 1.384 . S
C318 C319 1.372 . S
C319 C318 1.372 . S
C319 C320 1.400 . S
C319 C324 1.490 . S
C320 H310 0.930 . S
C320 C319 1.400 . S
C320 C323 1.386 . S
H321 C337 0.930 . S
H322 C338 0.931 . S
C323 H311 0.929 . S
C323 C317 1.390 . S
C323 C320 1.386 . S
C324 C319 1.490 . S
C324 C326 1.395 . S
C324 C327 1.403 . S
H325 C331 0.930 . S
C326 H312 0.930 . S
C326 C324 1.395 . S
C326 C329 1.403 . S
C327 C324 1.403 . S
C327 C328 1.524 . S
C327 C331 1.400 . S
C328 H313 0.960 . S
C328 H314 0.960 . S
C328 H315 0.960 . S
C328 C327 1.524 . S
C329 C326 1.403 . S
C329 C330 1.392 . S
C329 C333 1.495 . S
C330 C329 1.392 . S
C330 C331 1.385 . S
C330 C332 1.478 . S
C331 H325 0.930 . S
C331 C327 1.400 . S
C331 C330 1.385 . S
C332 C330 1.478 . S
C332 C334 1.381 . S
C332 C338 1.383 . S
C333 C329 1.495 . S
C333 H339 0.959 . S
C333 H340 0.961 . S
C333 H341 0.960 . S
C334 C332 1.381 . S
C334 C335 1.394 . S
C334 H342 0.930 . S
C335 C334 1.394 . S
C335 C336 1.383 . S
C335 H343 0.929 . S
C336 C335 1.383 . S
C336 C337 1.377 . S
C337 H321 0.930 . S
C337 C336 1.377 . S
C337 C338 1.379 . S
C338 H322 0.931 . S
C338 C332 1.383 . S
C338 C337 1.379 . S
H339 C333 0.959 . S
H340 C333 0.961 . S
H341 C333 0.960 . S
H342 C334 0.930 . S
H343 C335 0.929 . S
H344 C352 0.929 . S
H345 C354 0.930 . S
H346 C356 0.930 . S
H347 C359 0.929 . S
H348 C362 0.930 . S
H349 C364 0.960 . S
H350 C364 0.960 . S
H351 C364 0.960 . S
C352 H344 0.929 . S
C352 C353 1.377 . S
C352 C354 1.384 . S
C353 C352 1.377 . S
C353 C359 1.390 . S
C354 H345 0.930 . S
C354 C352 1.384 . S
C354 C355 1.372 . S
C355 C354 1.372 . S
C355 C356 1.400 . S
C355 C360 1.490 . S
C356 H346 0.930 . S
C356 C355 1.400 . S
C356 C359 1.386 . S
H357 C373 0.930 . S
H358 C374 0.931 . S
C359 H347 0.929 . S
C359 C353 1.390 . S
C359 C356 1.386 . S
C360 C355 1.490 . S
C360 C362 1.395 . S
C360 C363 1.403 . S
H361 C367 0.930 . S
C362 H348 0.930 . S
C362 C360 1.395 . S
C362 C365 1.403 . S
C363 C360 1.403 . S
C363 C364 1.524 . S
C363 C367 1.400 . S
C364 H349 0.960 . S
C364 H350 0.960 . S
C364 H351 0.960 . S
C364 C363 1.524 . S
C365 C362 1.403 . S
C365 C366 1.392 . S
C365 C369 1.495 . S
C366 C365 1.392 . S
C366 C367 1.385 . S
C366 C368 1.478 . S
C367 H361 0.930 . S
C367 C363 1.400 . S
C367 C366 1.385 . S
C368 C366 1.478 . S
C368 C370 1.381 . S
C368 C374 1.383 . S
C369 C365 1.495 . S
C369 H375 0.959 . S
C369 H376 0.961 . S
C369 H377 0.960 . S
C370 C368 1.381 . S
C370 C371 1.394 . S
C370 H378 0.930 . S
C371 C370 1.394 . S
C371 C372 1.383 . S
C371 H379 0.929 . S
C372 C371 1.383 . S
C372 C373 1.377 . S
C373 H357 0.930 . S
C373 C372 1.377 . S
C373 C374 1.379 . S
C374 H358 0.931 . S
C374 C368 1.383 . S
C374 C373 1.379 . S
H375 C369 0.959 . S
H376 C369 0.961 . S
H377 C369 0.960 . S
H378 C370 0.930 . S
H379 C371 0.929 . S
H380 C388 0.929 . S
H381 C390 0.930 . S
H382 C392 0.930 . S
H383 C395 0.929 . S
H384 C398 0.930 . S
H385 C400 0.960 . S
H386 C400 0.960 . S
H387 C400 0.960 . S
C388 H380 0.929 . S
C388 C389 1.377 . S
C388 C390 1.384 . S
C389 C388 1.377 . S
C389 C395 1.390 . S
C390 H381 0.930 . S
C390 C388 1.384 . S
C390 C391 1.372 . S
C391 C390 1.372 . S
C391 C392 1.400 . S
C391 C396 1.490 . S
C392 H382 0.930 . S
C392 C391 1.400 . S
C392 C395 1.386 . S
H393 C409 0.930 . S
H394 C410 0.931 . S
C395 H383 0.929 . S
C395 C389 1.390 . S
C395 C392 1.386 . S
C396 C391 1.490 . S
C396 C398 1.395 . S
C396 C399 1.403 . S
H397 C403 0.930 . S
C398 H384 0.930 . S
C398 C396 1.395 . S
C398 C401 1.403 . S
C399 C396 1.403 . S
C399 C400 1.524 . S
C399 C403 1.400 . S
C400 H385 0.960 . S
C400 H386 0.960 . S
C400 H387 0.960 . S
C400 C399 1.524 . S
C401 C398 1.403 . S
C401 C402 1.392 . S
C401 C405 1.495 . S
C402 C401 1.392 . S
C402 C403 1.385 . S
C402 C404 1.478 . S
C403 H397 0.930 . S
C403 C399 1.400 . S
C403 C402 1.385 . S
C404 C402 1.478 . S
C404 C406 1.381 . S
C404 C410 1.383 . S
C405 C401 1.495 . S
C405 H411 0.959 . S
C405 H412 0.961 . S
C405 H413 0.960 . S
C406 C404 1.381 . S
C406 C407 1.394 . S
C406 H414 0.930 . S
C407 C406 1.394 . S
C407 C408 1.383 . S
C407 H415 0.929 . S
C408 C407 1.383 . S
C408 C409 1.377 . S
C409 H393 0.930 . S
C409 C408 1.377 . S
C409 C410 1.379 . S
C410 H394 0.931 . S
C410 C404 1.383 . S
C410 C409 1.379 . S
H411 C405 0.959 . S
H412 C405 0.961 . S
H413 C405 0.960 . S
H414 C406 0.930 . S
H415 C407 0.929 . S
H416 C424 0.929 . S
H417 C426 0.930 . S
H418 C428 0.930 . S
H419 C431 0.929 . S
H420 C434 0.945 . S
H421 C436 0.960 . S
H422 C436 0.960 . S
H423 C436 0.960 . S
C424 H416 0.929 . S
C424 C425 1.377 . S
C424 C426 1.384 . S
C425 C424 1.377 . S
C425 C431 1.390 . S
C426 H417 0.930 . S
C426 C424 1.384 . S
C426 C427 1.372 . S
C427 C426 1.372 . S
C427 C428 1.400 . S
C427 C432 1.490 . S
C428 H418 0.930 . S
C428 C427 1.400 . S
C428 C431 1.386 . S
H429 C445 0.930 . S
H430 C446 0.931 . S
C431 H419 0.929 . S
C431 C425 1.390 . S
C431 C428 1.386 . S
C432 C427 1.490 . S
C432 C434 1.360 1_565 S
C432 C435 1.403 . S
H433 C439 0.930 . S
C434 H420 0.945 . S
C434 C432 1.360 1_545 S
C434 C437 1.424 . S
C435 C432 1.403 . S
C435 C436 1.524 . S
C435 C439 1.400 . S
C436 H421 0.960 . S
C436 H422 0.960 . S
C436 H423 0.960 . S
C436 C435 1.524 . S
C437 C434 1.424 . S
C437 C438 1.392 . S
C437 C441 1.495 . S
C438 C437 1.392 . S
C438 C439 1.385 1_545 S
C438 C440 1.478 . S
C439 H433 0.930 . S
C439 C435 1.400 . S
C439 C438 1.385 1_565 S
C440 C438 1.478 . S
C440 C442 1.381 . S
C440 C446 1.383 . S
C441 C437 1.495 . S
C441 H447 0.959 . S
C441 H448 0.961 . S
C441 H449 0.960 . S
C442 C440 1.381 . S
C442 C443 1.394 . S
C442 H450 0.930 . S
C443 C442 1.394 . S
C443 C444 1.383 . S
C443 H451 0.929 . S
C444 C443 1.383 . S
C444 C445 1.377 . S
C445 H429 0.930 . S
C445 C444 1.377 . S
C445 C446 1.379 . S
C446 H430 0.931 . S
C446 C440 1.383 . S
C446 C445 1.379 . S
H447 C441 0.959 . S
H448 C441 0.961 . S
H449 C441 0.960 . S
H450 C442 0.930 . S
H451 C443 0.929 . S
H452 C460 0.929 . S
H453 C462 0.892 1_565 S
H454 C464 0.930 . S
H455 C467 0.929 . S
H456 C470 0.930 . S
H457 C472 0.960 . S
H458 C472 0.960 . S
H459 C472 0.960 . S
C460 H452 0.929 . S
C460 C461 1.377 . S
C460 C462 1.404 . S
C461 C460 1.377 . S
C461 C467 1.390 . S
C462 H453 0.892 1_545 S
C462 C460 1.404 . S
C462 C463 1.390 . S
C463 C462 1.390 . S
C463 C464 1.400 . S
C463 C468 1.490 1_545 S
C464 H454 0.930 . S
C464 C463 1.400 . S
C464 C467 1.386 . S
H465 C481 0.930 . S
H466 C482 0.931 . S
C467 H455 0.929 . S
C467 C461 1.390 . S
C467 C464 1.386 . S
C468 C463 1.490 1_565 S
C468 C470 1.395 . S
C468 C471 1.403 1_565 S
H469 C475 0.930 . S
C470 H456 0.930 . S
C470 C468 1.395 . S
C470 C473 1.403 . S
C471 C468 1.403 1_545 S
C471 C472 1.524 . S
C471 C475 1.400 1_545 S
C472 H457 0.960 . S
C472 H458 0.960 . S
C472 H459 0.960 . S
C472 C471 1.524 . S
C473 C470 1.403 . S
C473 C474 1.392 . S
C473 C477 1.495 . S
C474 C473 1.392 . S
C474 C475 1.385 . S
C474 C476 1.478 . S
C475 H469 0.930 . S
C475 C471 1.400 1_565 S
C475 C474 1.385 . S
C476 C474 1.478 . S
C476 C478 1.381 . S
C476 C482 1.383 . S
C477 C473 1.495 . S
C477 H483 0.959 . S
C477 H484 0.961 . S
C477 H485 0.960 . S
C478 C476 1.381 . S
C478 C479 1.394 . S
C478 H486 0.930 . S
C479 C478 1.394 . S
C479 C480 1.383 . S
C479 H487 0.929 . S
C480 C479 1.383 . S
C480 C481 1.377 . S
C481 H465 0.930 . S
C481 C480 1.377 . S
C481 C482 1.379 . S
C482 H466 0.931 . S
C482 C476 1.383 . S
C482 C481 1.379 . S
H483 C477 0.959 . S
H484 C477 0.961 . S
H485 C477 0.960 . S
H486 C478 0.930 . S
H487 C479 0.929 . S
H488 C496 0.929 . S
H489 C498 0.930 . S
H490 C500 0.930 . S
H491 C503 0.929 . S
H492 C506 0.939 . S
H493 C508 0.960 . S
H494 C508 0.960 . S
H495 C508 0.960 . S
C496 H488 0.929 . S
C496 C497 1.377 . S
C496 C498 1.384 . S
C497 C496 1.377 . S
C497 C503 1.390 . S
C498 H489 0.930 . S
C498 C496 1.384 . S
C498 C499 1.372 . S
C499 C498 1.372 . S
C499 C500 1.400 . S
C499 C504 1.490 . S
C500 H490 0.930 . S
C500 C499 1.400 . S
C500 C503 1.386 . S
H501 C517 0.930 . S
H502 C518 0.931 1_545 S
C503 H491 0.929 . S
C503 C497 1.390 . S
C503 C500 1.386 . S
C504 C499 1.490 . S
C504 C506 1.374 1_545 S
C504 C507 1.403 . S
H505 C511 0.930 . S
C506 H492 0.939 . S
C506 C504 1.374 1_565 S
C506 C509 1.416 . S
C507 C504 1.403 . S
C507 C508 1.524 . S
C507 C511 1.400 . S
C508 H493 0.960 . S
C508 H494 0.960 . S
C508 H495 0.960 . S
C508 C507 1.524 . S
C509 C506 1.416 . S
C509 C510 1.392 . S
C509 C513 1.495 . S
C510 C509 1.392 . S
C510 C511 1.385 1_565 S
C510 C512 1.478 . S
C511 H505 0.930 . S
C511 C507 1.400 . S
C511 C510 1.385 1_545 S
C512 C510 1.478 . S
C512 C514 1.381 . S
C512 C518 1.383 . S
C513 C509 1.495 . S
C513 H519 0.959 . S
C513 H520 0.961 . S
C513 H521 0.960 . S
C514 C512 1.381 . S
C514 C515 1.394 . S
C514 H522 0.930 . S
C515 C514 1.394 . S
C515 C516 1.383 . S
C515 H523 0.929 . S
C516 C515 1.383 . S
C516 C517 1.377 . S
C517 H501 0.930 . S
C517 C516 1.377 . S
C517 C518 1.379 . S
C518 H502 0.931 1_565 S
C518 C512 1.383 . S
C518 C517 1.379 . S
H519 C513 0.959 . S
H520 C513 0.961 . S
H521 C513 0.960 . S
H522 C514 0.930 . S
H523 C515 0.929 . S
H524 C532 0.929 . S
H525 C534 0.930 . S
H526 C536 0.930 . S
H527 C539 0.929 . S
H528 C542 0.930 . S
H529 C544 0.960 . S
H530 C544 0.960 . S
H531 C544 0.960 . S
C532 H524 0.929 . S
C532 C533 1.377 . S
C532 C534 1.384 . S
C533 C532 1.377 . S
C533 C539 1.390 . S
C534 H525 0.930 . S
C534 C532 1.384 . S
C534 C535 1.372 . S
C535 C534 1.372 . S
C535 C536 1.400 . S
C535 C540 1.490 . S
C536 H526 0.930 . S
C536 C535 1.400 . S
C536 C539 1.386 . S
H537 C553 0.930 . S
H538 C554 0.931 . S
C539 H527 0.929 . S
C539 C533 1.390 . S
C539 C536 1.386 . S
C540 C535 1.490 . S
C540 C542 1.395 . S
C540 C543 1.403 . S
H541 C547 0.930 . S
C542 H528 0.930 . S
C542 C540 1.395 . S
C542 C545 1.403 . S
C543 C540 1.403 . S
C543 C544 1.524 1_545 S
C543 C547 1.400 1_545 S
C544 H529 0.960 . S
C544 H530 0.960 . S
C544 H531 0.960 . S
C544 C543 1.524 1_565 S
C545 C542 1.403 . S
C545 C546 1.392 . S
C545 C549 1.495 . S
C546 C545 1.392 . S
C546 C547 1.385 1_545 S
C546 C548 1.478 1_545 S
C547 H541 0.930 . S
C547 C543 1.400 1_565 S
C547 C546 1.385 1_565 S
C548 C546 1.478 1_565 S
C548 C550 1.381 . S
C548 C554 1.383 . S
C549 C545 1.495 . S
C549 H555 0.959 . S
C549 H556 0.961 . S
C549 H557 0.960 . S
C550 C548 1.381 . S
C550 C551 1.394 . S
C550 H558 0.930 1_565 S
C551 C550 1.394 . S
C551 C552 1.383 . S
C551 H559 0.929 . S
C552 C551 1.383 . S
C552 C553 1.377 . S
C553 H537 0.930 . S
C553 C552 1.377 . S
C553 C554 1.379 . S
C554 H538 0.931 . S
C554 C548 1.383 . S
C554 C553 1.379 . S
H555 C549 0.959 . S
H556 C549 0.961 . S
H557 C549 0.960 . S
H558 C550 0.930 1_545 S
H559 C551 0.929 . S
H560 C568 0.928 1_556 S
H561 C570 0.930 . S
H562 C572 0.930 . S
H563 C575 0.929 . S
H564 C578 0.930 . S
H565 C580 0.960 . S
H566 C580 0.960 . S
H567 C580 0.960 . S
C568 H560 0.928 1_554 S
C568 C569 1.381 . S
C568 C570 1.382 1_554 S
C569 C568 1.381 . S
C569 C575 1.390 . S
C570 H561 0.930 . S
C570 C568 1.382 1_556 S
C570 C571 1.372 1_556 S
C571 C570 1.372 1_554 S
C571 C572 1.400 . S
C571 C576 1.490 . S
C572 H562 0.930 . S
C572 C571 1.400 . S
C572 C575 1.386 . S
H573 C589 0.930 1_554 S
H574 C590 0.928 1_554 S
C575 H563 0.929 . S
C575 C569 1.390 . S
C575 C572 1.386 . S
C576 C571 1.490 . S
C576 C578 1.395 1_554 S
C576 C579 1.403 . S
H577 C583 0.930 . S
C578 H564 0.930 . S
C578 C576 1.395 1_556 S
C578 C581 1.403 . S
C579 C576 1.403 . S
C579 C580 1.524 . S
C579 C583 1.400 . S
C580 H565 0.960 . S
C580 H566 0.960 . S
C580 H567 0.960 . S
C580 C579 1.524 . S
C581 C578 1.403 . S
C581 C582 1.392 . S
C581 C585 1.495 . S
C582 C581 1.392 . S
C582 C583 1.385 1_556 S
C582 C584 1.478 . S
C583 H577 0.930 . S
C583 C579 1.400 . S
C583 C582 1.385 1_554 S
C584 C582 1.478 . S
C584 C586 1.381 . S
C584 C590 1.384 . S
C585 C581 1.495 . S
C585 H591 0.959 . S
C585 H592 0.961 . S
C585 H593 0.960 . S
C586 C584 1.381 . S
C586 C587 1.394 . S
C586 H594 0.930 . S
C587 C586 1.394 . S
C587 C588 1.383 . S
C587 H595 0.929 . S
C588 C587 1.383 . S
C588 C589 1.377 . S
C589 H573 0.930 1_556 S
C589 C588 1.377 . S
C589 C590 1.381 . S
C590 H574 0.928 1_556 S
C590 C584 1.384 . S
C590 C589 1.381 . S
H591 C585 0.959 . S
H592 C585 0.961 . S
H593 C585 0.960 . S
H594 C586 0.930 . S
H595 C587 0.929 . S
H596 C604 0.929 . S
H597 C606 0.930 . S
H598 C608 0.930 . S
H599 C611 0.929 . S
H600 C614 0.930 . S
H601 C616 0.960 . S
H602 C616 0.960 . S
H603 C616 0.960 . S
C604 H596 0.929 . S
C604 C605 1.377 . S
C604 C606 1.384 . S
C605 C604 1.377 . S
C605 C611 1.390 . S
C606 H597 0.930 . S
C606 C604 1.384 . S
C606 C607 1.372 . S
C607 C606 1.372 . S
C607 C608 1.400 . S
C607 C612 1.490 . S
C608 H598 0.930 . S
C608 C607 1.400 . S
C608 C611 1.386 . S
H609 C625 0.930 . S
H610 C626 0.931 . S
C611 H599 0.929 . S
C611 C605 1.390 . S
C611 C608 1.386 . S
C612 C607 1.490 . S
C612 C614 1.395 . S
C612 C615 1.403 . S
H613 C619 0.930 . S
C614 H600 0.930 . S
C614 C612 1.395 . S
C614 C617 1.403 . S
C615 C612 1.403 . S
C615 C616 1.524 . S
C615 C619 1.400 . S
C616 H601 0.960 . S
C616 H602 0.960 . S
C616 H603 0.960 . S
C616 C615 1.524 . S
C617 C614 1.403 . S
C617 C618 1.392 . S
C617 C621 1.495 . S
C618 C617 1.392 . S
C618 C619 1.385 . S
C618 C620 1.478 . S
C619 H613 0.930 . S
C619 C615 1.400 . S
C619 C618 1.385 . S
C620 C618 1.478 . S
C620 C622 1.381 . S
C620 C626 1.383 . S
C621 C617 1.495 . S
C621 H627 0.959 . S
C621 H628 0.961 . S
C621 H629 0.960 . S
C622 C620 1.381 . S
C622 C623 1.394 . S
C622 H630 0.930 . S
C623 C622 1.394 . S
C623 C624 1.383 . S
C623 H631 0.929 . S
C624 C623 1.383 . S
C624 C625 1.377 . S
C625 H609 0.930 . S
C625 C624 1.377 . S
C625 C626 1.379 . S
C626 H610 0.931 . S
C626 C620 1.383 . S
C626 C625 1.379 . S
H627 C621 0.959 . S
H628 C621 0.961 . S
H629 C621 0.960 . S
H630 C622 0.930 . S
H631 C623 0.929 . S
H632 C640 0.929 . S
H633 C642 0.930 . S
H634 C644 0.930 . S
H635 C647 0.929 . S
H636 C650 0.930 . S
H637 C652 0.960 . S
H638 C652 0.960 . S
H639 C652 0.960 . S
C640 H632 0.929 . S
C640 C641 1.377 1_554 S
C640 C642 1.384 . S
C641 C640 1.377 1_556 S
C641 C647 1.390 . S
C642 H633 0.930 . S
C642 C640 1.384 . S
C642 C643 1.372 1_554 S
C643 C642 1.372 1_556 S
C643 C644 1.400 . S
C643 C648 1.490 . S
C644 H634 0.930 . S
C644 C643 1.400 . S
C644 C647 1.386 . S
H645 C661 0.930 . S
H646 C662 0.931 . S
C647 H635 0.929 . S
C647 C641 1.390 . S
C647 C644 1.386 . S
C648 C643 1.490 . S
C648 C650 1.395 1_556 S
C648 C651 1.403 1_545 S
H649 C655 0.930 . S
C650 H636 0.930 . S
C650 C648 1.395 1_554 S
C650 C653 1.403 1_455 S
C651 C648 1.403 1_565 S
C651 C652 1.524 . S
C651 C655 1.400 1_455 S
C652 H637 0.960 . S
C652 H638 0.960 . S
C652 H639 0.960 . S
C652 C651 1.524 . S
C653 C650 1.403 1_655 S
C653 C654 1.392 1_545 S
C653 C657 1.495 . S
C654 C653 1.392 1_565 S
C654 C655 1.385 1_554 S
C654 C656 1.478 . S
C655 H649 0.930 . S
C655 C651 1.400 1_655 S
C655 C654 1.385 1_556 S
C656 C654 1.478 . S
C656 C658 1.381 . S
C656 C662 1.383 1_554 S
C657 C653 1.495 . S
C657 H663 0.959 . S
C657 H664 0.961 . S
C657 H665 0.960 . S
C658 C656 1.381 . S
C658 C659 1.394 . S
C658 H666 0.930 . S
C659 C658 1.394 . S
C659 C660 1.383 . S
C659 H667 0.929 . S
C660 C659 1.383 . S
C660 C661 1.377 1_554 S
C661 H645 0.930 . S
C661 C660 1.377 1_556 S
C661 C662 1.379 . S
C662 H646 0.931 . S
C662 C656 1.383 1_556 S
C662 C661 1.379 . S
H663 C657 0.959 . S
H664 C657 0.961 . S
H665 C657 0.960 . S
H666 C658 0.930 . S
H667 C659 0.929 . S
H668 C676 0.929 1_565 S
H669 C678 0.930 . S
H670 C680 0.930 . S
H671 C683 0.929 . S
H672 C686 0.930 . S
H673 C688 0.960 . S
H674 C688 0.960 1_655 S
H675 C688 0.960 1_655 S
C676 H668 0.929 1_545 S
C676 C677 1.377 . S
C676 C678 1.384 1_545 S
C677 C676 1.377 . S
C677 C683 1.390 . S
C678 H669 0.930 . S
C678 C676 1.384 1_565 S
C678 C679 1.372 1_565 S
C679 C678 1.372 1_545 S
C679 C680 1.400 . S
C679 C684 1.490 . S
C680 H670 0.930 . S
C680 C679 1.400 . S
C680 C683 1.386 . S
H681 C697 0.930 1_545 S
H682 C698 0.963 . S
C683 H671 0.929 . S
C683 C677 1.390 . S
C683 C680 1.386 . S
C684 C679 1.490 . S
C684 C686 1.395 1_545 S
C684 C687 1.419 . S
H685 C691 0.930 . S
C686 H672 0.930 . S
C686 C684 1.395 1_565 S
C686 C689 1.403 . S
C687 C684 1.419 . S
C687 C688 1.526 1_655 S
C687 C691 1.380 1_655 S
C688 H673 0.960 . S
C688 H674 0.960 1_455 S
C688 H675 0.960 1_455 S
C688 C687 1.526 1_455 S
C689 C686 1.403 . S
C689 C690 1.392 1_655 S
C689 C693 1.495 . S
C690 C689 1.392 1_455 S
C690 C691 1.385 1_565 S
C690 C692 1.478 . S
C691 H685 0.930 . S
C691 C687 1.380 1_455 S
C691 C690 1.385 1_545 S
C692 C690 1.478 . S
C692 C694 1.381 . S
C692 C698 1.358 1_565 S
C693 C689 1.495 . S
C693 H699 0.959 . S
C693 H700 0.961 1_655 S
C693 H701 0.960 1_655 S
C694 C692 1.381 . S
C694 C695 1.394 . S
C694 H702 0.930 . S
C695 C694 1.394 . S
C695 C696 1.383 . S
C695 H703 0.929 . S
C696 C695 1.383 . S
C696 C697 1.377 . S
C697 H681 0.930 1_565 S
C697 C696 1.377 . S
C697 C698 1.373 1_565 S
C698 H682 0.963 . S
C698 C692 1.358 1_545 S
C698 C697 1.373 1_545 S
H699 C693 0.959 . S
H700 C693 0.961 1_455 S
H701 C693 0.960 1_455 S
H702 C694 0.930 . S
H703 C695 0.929 . S
H704 C712 0.929 . S
H705 C714 0.930 . S
H706 C716 0.930 . S
H707 C719 0.929 . S
H708 C722 0.930 . S
H709 C724 0.960 . S
H710 C724 0.960 . S
H711 C724 0.960 . S
C712 H704 0.929 . S
C712 C713 1.377 . S
C712 C714 1.384 . S
C713 C712 1.377 . S
C713 C719 1.390 . S
C714 H705 0.930 . S
C714 C712 1.384 . S
C714 C715 1.372 . S
C715 C714 1.372 . S
C715 C716 1.400 . S
C715 C720 1.490 . S
C716 H706 0.930 . S
C716 C715 1.400 . S
C716 C719 1.386 . S
H717 C733 0.930 . S
H718 C734 0.931 . S
C719 H707 0.929 . S
C719 C713 1.390 . S
C719 C716 1.386 . S
C720 C715 1.490 . S
C720 C722 1.395 1_554 S
C720 C723 1.403 . S
H721 C727 0.930 . S
C722 H708 0.930 . S
C722 C720 1.395 1_556 S
C722 C725 1.403 . S
C723 C720 1.403 . S
C723 C724 1.524 . S
C723 C727 1.400 . S
C724 H709 0.960 . S
C724 H710 0.960 . S
C724 H711 0.960 . S
C724 C723 1.524 . S
C725 C722 1.403 . S
C725 C726 1.392 . S
C725 C729 1.495 . S
C726 C725 1.392 . S
C726 C727 1.385 1_556 S
C726 C728 1.478 . S
C727 H721 0.930 . S
C727 C723 1.400 . S
C727 C726 1.385 1_554 S
C728 C726 1.478 . S
C728 C730 1.381 . S
C728 C734 1.383 . S
C729 C725 1.495 . S
C729 H735 0.959 . S
C729 H736 0.961 . S
C729 H737 0.960 . S
C730 C728 1.381 . S
C730 C731 1.394 . S
C730 H738 0.930 . S
C731 C730 1.394 . S
C731 C732 1.383 . S
C731 H739 0.929 . S
C732 C731 1.383 . S
C732 C733 1.377 . S
C733 H717 0.930 . S
C733 C732 1.377 . S
C733 C734 1.379 . S
C734 H718 0.931 . S
C734 C728 1.383 . S
C734 C733 1.379 . S
H735 C729 0.959 . S
H736 C729 0.961 . S
H737 C729 0.960 . S
H738 C730 0.930 . S
H739 C731 0.929 . S
H740 C748 0.929 . S
H741 C750 0.930 . S
H742 C752 0.930 . S
H743 C755 0.929 . S
H744 C758 0.930 . S
H745 C760 0.960 . S
H746 C760 0.960 . S
H747 C760 0.960 . S
C748 H740 0.929 . S
C748 C749 1.377 . S
C748 C750 1.384 . S
C749 C748 1.377 . S
C749 C755 1.390 . S
C750 H741 0.930 . S
C750 C748 1.384 . S
C750 C751 1.372 . S
C751 C750 1.372 . S
C751 C752 1.400 . S
C751 C756 1.490 . S
C752 H742 0.930 . S
C752 C751 1.400 . S
C752 C755 1.386 . S
H753 C769 0.930 . S
H754 C770 0.931 . S
C755 H743 0.929 . S
C755 C749 1.390 . S
C755 C752 1.386 . S
C756 C751 1.490 . S
C756 C758 1.395 . S
C756 C759 1.403 . S
H757 C763 0.930 . S
C758 H744 0.930 . S
C758 C756 1.395 . S
C758 C761 1.403 . S
C759 C756 1.403 . S
C759 C760 1.524 . S
C759 C763 1.400 . S
C760 H745 0.960 . S
C760 H746 0.960 . S
C760 H747 0.960 . S
C760 C759 1.524 . S
C761 C758 1.403 . S
C761 C762 1.392 . S
C761 C765 1.495 . S
C762 C761 1.392 . S
C762 C763 1.385 . S
C762 C764 1.478 . S
C763 H757 0.930 . S
C763 C759 1.400 . S
C763 C762 1.385 . S
C764 C762 1.478 . S
C764 C766 1.381 . S
C764 C770 1.383 . S
C765 C761 1.495 . S
C765 H771 0.959 . S
C765 H772 0.961 . S
C765 H773 0.960 . S
C766 C764 1.381 . S
C766 C767 1.394 . S
C766 H774 0.930 . S
C767 C766 1.394 . S
C767 C768 1.383 . S
C767 H775 0.929 . S
C768 C767 1.383 . S
C768 C769 1.377 . S
C769 H753 0.930 . S
C769 C768 1.377 . S
C769 C770 1.379 . S
C770 H754 0.931 . S
C770 C764 1.383 . S
C770 C769 1.379 . S
H771 C765 0.959 . S
H772 C765 0.961 . S
H773 C765 0.960 . S
H774 C766 0.930 . S
H775 C767 0.929 . S
H776 C784 0.929 . S
H777 C786 0.930 . S
H778 C788 0.930 . S
H779 C791 0.929 . S
H780 C794 0.930 . S
H781 C796 0.960 . S
H782 C796 0.960 . S
H783 C796 0.960 . S
C784 H776 0.929 . S
C784 C785 1.377 . S
C784 C786 1.384 . S
C785 C784 1.377 . S
C785 C791 1.390 . S
C786 H777 0.930 . S
C786 C784 1.384 . S
C786 C787 1.372 . S
C787 C786 1.372 . S
C787 C788 1.400 . S
C787 C792 1.490 . S
C788 H778 0.930 . S
C788 C787 1.400 . S
C788 C791 1.386 . S
H789 C805 0.930 . S
H790 C806 0.931 . S
C791 H779 0.929 . S
C791 C785 1.390 . S
C791 C788 1.386 . S
C792 C787 1.490 . S
C792 C794 1.395 1_554 S
C792 C795 1.403 . S
H793 C799 0.930 . S
C794 H780 0.930 . S
C794 C792 1.395 1_556 S
C794 C797 1.403 . S
C795 C792 1.403 . S
C795 C796 1.524 . S
C795 C799 1.400 . S
C796 H781 0.960 . S
C796 H782 0.960 . S
C796 H783 0.960 . S
C796 C795 1.524 . S
C797 C794 1.403 . S
C797 C798 1.392 . S
C797 C801 1.495 . S
C798 C797 1.392 . S
C798 C799 1.385 1_556 S
C798 C800 1.478 . S
C799 H793 0.930 . S
C799 C795 1.400 . S
C799 C798 1.385 1_554 S
C800 C798 1.478 . S
C800 C802 1.381 . S
C800 C806 1.383 . S
C801 C797 1.495 . S
C801 H807 0.959 . S
C801 H808 0.961 . S
C801 H809 0.960 . S
C802 C800 1.381 . S
C802 C803 1.394 . S
C802 H810 0.930 . S
C803 C802 1.394 . S
C803 C804 1.383 . S
C803 H811 0.929 . S
C804 C803 1.383 . S
C804 C805 1.377 . S
C805 H789 0.930 . S
C805 C804 1.377 . S
C805 C806 1.379 . S
C806 H790 0.931 . S
C806 C800 1.383 . S
C806 C805 1.379 . S
H807 C801 0.959 . S
H808 C801 0.961 . S
H809 C801 0.960 . S
H810 C802 0.930 . S
H811 C803 0.929 . S
H812 C820 0.929 . S
H813 C822 0.930 . S
H814 C824 0.930 . S
H815 C827 0.929 . S
H816 C830 0.930 . S
H817 C832 0.960 . S
H818 C832 0.960 . S
H819 C832 0.960 . S
C820 H812 0.929 . S
C820 C821 1.377 . S
C820 C822 1.384 . S
C821 C820 1.377 . S
C821 C827 1.390 . S
C822 H813 0.930 . S
C822 C820 1.384 . S
C822 C823 1.372 . S
C823 C822 1.372 . S
C823 C824 1.400 . S
C823 C828 1.490 . S
C824 H814 0.930 . S
C824 C823 1.400 . S
C824 C827 1.386 . S
H825 C841 0.930 . S
H826 C842 0.931 . S
C827 H815 0.929 . S
C827 C821 1.390 . S
C827 C824 1.386 . S
C828 C823 1.490 . S
C828 C830 1.395 . S
C828 C831 1.403 . S
H829 C835 0.930 . S
C830 H816 0.930 . S
C830 C828 1.395 . S
C830 C833 1.403 . S
C831 C828 1.403 . S
C831 C832 1.524 . S
C831 C835 1.400 . S
C832 H817 0.960 . S
C832 H818 0.960 . S
C832 H819 0.960 . S
C832 C831 1.524 . S
C833 C830 1.403 . S
C833 C834 1.392 . S
C833 C837 1.495 . S
C834 C833 1.392 . S
C834 C835 1.385 . S
C834 C836 1.478 . S
C835 H829 0.930 . S
C835 C831 1.400 . S
C835 C834 1.385 . S
C836 C834 1.478 . S
C836 C838 1.381 . S
C836 C842 1.383 . S
C837 C833 1.495 . S
C837 H843 0.959 . S
C837 H844 0.961 . S
C837 H845 0.960 . S
C838 C836 1.381 . S
C838 C839 1.394 . S
C838 H846 0.930 . S
C839 C838 1.394 . S
C839 C840 1.383 . S
C839 H847 0.929 . S
C840 C839 1.383 . S
C840 C841 1.377 . S
C841 H825 0.930 . S
C841 C840 1.377 . S
C841 C842 1.379 . S
C842 H826 0.931 . S
C842 C836 1.383 . S
C842 C841 1.379 . S
H843 C837 0.959 . S
H844 C837 0.961 . S
H845 C837 0.960 . S
H846 C838 0.930 . S
H847 C839 0.929 . S
H848 C856 0.929 . S
H849 C858 0.930 . S
H850 C860 0.930 . S
H851 C863 0.929 . S
H852 C866 0.930 . S
H853 C868 0.960 . S
H854 C868 0.960 . S
H855 C868 0.960 . S
C856 H848 0.929 . S
C856 C857 1.377 . S
C856 C858 1.384 . S
C857 C856 1.377 . S
C857 C863 1.390 . S
C858 H849 0.930 . S
C858 C856 1.384 . S
C858 C859 1.372 . S
C859 C858 1.372 . S
C859 C860 1.400 . S
C859 C864 1.490 . S
C860 H850 0.930 . S
C860 C859 1.400 . S
C860 C863 1.386 . S
H861 C877 0.930 . S
H862 C878 0.931 . S
C863 H851 0.929 . S
C863 C857 1.390 . S
C863 C860 1.386 . S
C864 C859 1.490 . S
C864 C866 1.395 . S
C864 C867 1.403 . S
H865 C871 0.930 . S
C866 H852 0.930 . S
C866 C864 1.395 . S
C866 C869 1.403 . S
C867 C864 1.403 . S
C867 C868 1.524 . S
C867 C871 1.400 . S
C868 H853 0.960 . S
C868 H854 0.960 . S
C868 H855 0.960 . S
C868 C867 1.524 . S
C869 C866 1.403 . S
C869 C870 1.392 . S
C869 C873 1.495 . S
C870 C869 1.392 . S
C870 C871 1.385 . S
C870 C872 1.478 . S
C871 H865 0.930 . S
C871 C867 1.400 . S
C871 C870 1.385 . S
C872 C870 1.478 . S
C872 C874 1.381 . S
C872 C878 1.383 . S
C873 C869 1.495 . S
C873 H879 0.959 . S
C873 H880 0.961 . S
C873 H881 0.960 . S
C874 C872 1.381 . S
C874 C875 1.394 . S
C874 H882 0.930 . S
C875 C874 1.394 . S
C875 C876 1.383 . S
C875 H883 0.929 . S
C876 C875 1.383 . S
C876 C877 1.377 . S
C877 H861 0.930 . S
C877 C876 1.377 . S
C877 C878 1.379 . S
C878 H862 0.931 . S
C878 C872 1.383 . S
C878 C877 1.379 . S
H879 C873 0.959 . S
H880 C873 0.961 . S
H881 C873 0.960 . S
H882 C874 0.930 . S
H883 C875 0.929 . S
H884 C892 0.929 . S
H885 C894 0.930 . S
H886 C896 0.930 . S
H887 C899 0.929 . S
H888 C902 0.930 . S
H889 C904 0.960 . S
H890 C904 0.960 . S
H891 C904 0.960 . S
C892 H884 0.929 . S
C892 C893 1.377 . S
C892 C894 1.384 . S
C893 C892 1.377 . S
C893 C899 1.390 . S
C894 H885 0.930 . S
C894 C892 1.384 . S
C894 C895 1.372 . S
C895 C894 1.372 . S
C895 C896 1.400 . S
C895 C900 1.490 . S
C896 H886 0.930 . S
C896 C895 1.400 . S
C896 C899 1.386 . S
H897 C913 0.930 . S
H898 C914 0.931 . S
C899 H887 0.929 . S
C899 C893 1.390 . S
C899 C896 1.386 . S
C900 C895 1.490 . S
C900 C902 1.395 . S
C900 C903 1.403 . S
H901 C907 0.930 . S
C902 H888 0.930 . S
C902 C900 1.395 . S
C902 C905 1.403 . S
C903 C900 1.403 . S
C903 C904 1.524 . S
C903 C907 1.400 . S
C904 H889 0.960 . S
C904 H890 0.960 . S
C904 H891 0.960 . S
C904 C903 1.524 . S
C905 C902 1.403 . S
C905 C906 1.392 . S
C905 C909 1.495 . S
C906 C905 1.392 . S
C906 C907 1.385 . S
C906 C908 1.478 . S
C907 H901 0.930 . S
C907 C903 1.400 . S
C907 C906 1.385 . S
C908 C906 1.478 . S
C908 C910 1.381 . S
C908 C914 1.383 . S
C909 C905 1.495 . S
C909 H915 0.959 . S
C909 H916 0.961 . S
C909 H917 0.960 . S
C910 C908 1.381 . S
C910 C911 1.394 . S
C910 H918 0.930 . S
C911 C910 1.394 . S
C911 C912 1.383 . S
C911 H919 0.929 . S
C912 C911 1.383 . S
C912 C913 1.377 . S
C913 H897 0.930 . S
C913 C912 1.377 . S
C913 C914 1.379 . S
C914 H898 0.931 . S
C914 C908 1.383 . S
C914 C913 1.379 . S
H915 C909 0.959 . S
H916 C909 0.961 . S
H917 C909 0.960 . S
H918 C910 0.930 . S
H919 C911 0.929 . S
H920 C928 0.929 . S
H921 C930 0.930 . S
H922 C932 0.930 . S
H923 C935 0.929 . S
H924 C938 0.930 . S
H925 C940 0.960 1_655 S
H926 C940 0.960 . S
H927 C940 0.960 . S
C928 H920 0.929 . S
C928 C929 1.377 . S
C928 C930 1.384 . S
C929 C928 1.377 . S
C929 C935 1.390 . S
C930 H921 0.930 . S
C930 C928 1.384 . S
C930 C931 1.372 . S
C931 C930 1.372 . S
C931 C932 1.400 . S
C931 C936 1.490 . S
C932 H922 0.930 . S
C932 C931 1.400 . S
C932 C935 1.386 . S
H933 C949 0.930 . S
H934 C950 0.931 . S
C935 H923 0.929 . S
C935 C929 1.390 . S
C935 C932 1.386 . S
C936 C931 1.490 . S
C936 C938 1.395 . S
C936 C939 1.403 . S
H937 C943 0.930 . S
C938 H924 0.930 . S
C938 C936 1.395 . S
C938 C941 1.403 1_455 S
C939 C936 1.403 . S
C939 C940 1.524 . S
C939 C943 1.400 1_455 S
C940 H925 0.960 1_455 S
C940 H926 0.960 . S
C940 H927 0.960 . S
C940 C939 1.524 . S
C941 C938 1.403 1_655 S
C941 C942 1.392 . S
C941 C945 1.495 . S
C942 C941 1.392 . S
C942 C943 1.385 . S
C942 C944 1.478 . S
C943 H937 0.930 . S
C943 C939 1.400 1_655 S
C943 C942 1.385 . S
C944 C942 1.478 . S
C944 C946 1.381 . S
C944 C950 1.383 . S
C945 C941 1.495 . S
C945 H951 0.959 1_655 S
C945 H952 0.961 . S
C945 H953 0.960 . S
C946 C944 1.381 . S
C946 C947 1.394 . S
C946 H954 0.930 . S
C947 C946 1.394 . S
C947 C948 1.383 . S
C947 H955 0.929 . S
C948 C947 1.383 . S
C948 C949 1.377 . S
C949 H933 0.930 . S
C949 C948 1.377 . S
C949 C950 1.379 . S
C950 H934 0.931 . S
C950 C944 1.383 . S
C950 C949 1.379 . S
H951 C945 0.959 1_455 S
H952 C945 0.961 . S
H953 C945 0.960 . S
H954 C946 0.930 . S
H955 C947 0.929 . S
H956 C964 0.929 . S
H957 C966 0.930 . S
H958 C968 0.930 . S
H959 C971 0.929 . S
H960 C974 0.930 . S
H961 C976 0.960 . S
H962 C976 0.960 . S
H963 C976 0.960 . S
C964 H956 0.929 . S
C964 C965 1.377 . S
C964 C966 1.384 . S
C965 C964 1.377 . S
C965 C971 1.390 . S
C966 H957 0.930 . S
C966 C964 1.384 . S
C966 C967 1.372 . S
C967 C966 1.372 . S
C967 C968 1.400 . S
C967 C972 1.490 . S
C968 H958 0.930 . S
C968 C967 1.400 . S
C968 C971 1.386 . S
H969 C985 0.930 . S
H970 C986 0.931 . S
C971 H959 0.929 . S
C971 C965 1.390 . S
C971 C968 1.386 . S
C972 C967 1.490 . S
C972 C974 1.395 1_455 S
C972 C975 1.403 . S
H973 C979 0.930 . S
C974 H960 0.930 . S
C974 C972 1.395 1_655 S
C974 C977 1.403 . S
C975 C972 1.403 . S
C975 C976 1.524 . S
C975 C979 1.400 1_455 S
C976 H961 0.960 . S
C976 H962 0.960 . S
C976 H963 0.960 . S
C976 C975 1.524 . S
C977 C974 1.403 . S
C977 C978 1.392 . S
C977 C981 1.495 . S
C978 C977 1.392 . S
C978 C979 1.385 . S
C978 C980 1.478 . S
C979 H973 0.930 . S
C979 C975 1.400 1_655 S
C979 C978 1.385 . S
C980 C978 1.478 . S
C980 C982 1.381 . S
C980 C986 1.383 . S
C981 C977 1.495 . S
C981 H987 0.959 . S
C981 H988 0.961 . S
C981 H989 0.960 . S
C982 C980 1.381 . S
C982 C983 1.394 . S
C982 H990 0.930 . S
C983 C982 1.394 . S
C983 C984 1.383 . S
C983 H991 0.929 . S
C984 C983 1.383 . S
C984 C985 1.377 . S
C985 H969 0.930 . S
C985 C984 1.377 . S
C985 C986 1.379 . S
C986 H970 0.931 . S
C986 C980 1.383 . S
C986 C985 1.379 . S
H987 C981 0.959 . S
H988 C981 0.961 . S
H989 C981 0.960 . S
H990 C982 0.930 . S
H991 C983 0.929 . S
C281 C135 1.353 . S
C300 C20 1.316 . S
C317 C54 1.295 . S
C336 C101 1.353 . S
C353 C67 1.354 . S
C372 C88 1.267 . S
C389 C33 1.354 . S
C408 C122 1.268 . S
C425 C156 1.309 . S
C444 C271 1.340 . S
C461 C237 1.355 . S
C480 C190 1.282 . S
C497 C224 1.296 . S
C516 C203 1.345 . S
C533 C258 1.307 . S
C552 C169 1.354 . S
C569 C5 0.558 . S
C588 C73 0.561 . S
C605 C39 0.594 . S
C624 C107 0.596 . S
C641 C209 0.590 . S
C660 C141 0.670 . S
C677 C243 0.587 . S
C696 C175 0.543 . S
C713 C9 1.270 . S
C732 C213 1.275 . S
C749 C43 1.270 . S
C768 C247 1.278 . S
C785 C145 1.270 . S
C804 C77 1.276 . S
C821 C179 1.271 . S
C840 C111 1.247 . S
C857 C36 1.794 . S
C876 C2 1.770 . S
C893 C104 1.793 . S
C912 C70 1.791 . S
C929 C172 1.789 . S
C948 C138 1.765 . S
C965 C206 1.785 . S
C984 C240 1.795 . S
