# Generated by pormake.
# Topology fny, (5)-cn, num edge types: 1
# Building blocks:
#     Node 0, Type 0, BuildingBlock: BEQFEK_clean_sbu_0, # of connection points: 5
#     Node 1, Type 0, BuildingBlock: BEQFEK_clean_sbu_0, # of connection points: 5
#     Node 2, Type 0, BuildingBlock: BEQFEK_clean_sbu_0, # of connection points: 5
#     Node 3, Type 0, BuildingBlock: BEQFEK_clean_sbu_0, # of connection points: 5
#     Node 4, Type 0, BuildingBlock: BEQFEK_clean_sbu_0, # of connection points: 5
#     Node 5, Type 0, BuildingBlock: BEQFEK_clean_sbu_0, # of connection points: 5
#     Node 6, Type 0, BuildingBlock: BEQFEK_clean_sbu_0, # of connection points: 5
#     Node 7, Type 0, BuildingBlock: BEQFEK_clean_sbu_0, # of connection points: 5
#     Node 8, Type 0, BuildingBlock: BEQFEK_clean_sbu_0, # of connection points: 5
#     Node 9, Type 0, BuildingBlock: BEQFEK_clean_sbu_0, # of connection points: 5
#     Node 10, Type 0, BuildingBlock: BEQFEK_clean_sbu_0, # of connection points: 5
#     Node 11, Type 0, BuildingBlock: BEQFEK_clean_sbu_0, # of connection points: 5
#     Edge 12, Type (0, 0), BuildingBlock: KIFKEQ_clean_linker_1, # of connection points: 2
#     Edge 13, Type (0, 0), BuildingBlock: KIFKEQ_clean_linker_1, # of connection points: 2
#     Edge 14, Type (0, 0), BuildingBlock: KIFKEQ_clean_linker_1, # of connection points: 2
#     Edge 15, Type (0, 0), BuildingBlock: KIFKEQ_clean_linker_1, # of connection points: 2
#     Edge 16, Type (0, 0), BuildingBlock: KIFKEQ_clean_linker_1, # of connection points: 2
#     Edge 17, Type (0, 0), BuildingBlock: KIFKEQ_clean_linker_1, # of connection points: 2
#     Edge 18, Type (0, 0), BuildingBlock: KIFKEQ_clean_linker_1, # of connection points: 2
#     Edge 19, Type (0, 0), BuildingBlock: KIFKEQ_clean_linker_1, # of connection points: 2
#     Edge 20, Type (0, 0), BuildingBlock: KIFKEQ_clean_linker_1, # of connection points: 2
#     Edge 21, Type (0, 0), BuildingBlock: KIFKEQ_clean_linker_1, # of connection points: 2
#     Edge 22, Type (0, 0), BuildingBlock: KIFKEQ_clean_linker_1, # of connection points: 2
#     Edge 23, Type (0, 0), BuildingBlock: KIFKEQ_clean_linker_1, # of connection points: 2
#     Edge 24, Type (0, 0), BuildingBlock: KIFKEQ_clean_linker_1, # of connection points: 2
#     Edge 25, Type (0, 0), BuildingBlock: KIFKEQ_clean_linker_1, # of connection points: 2
#     Edge 26, Type (0, 0), BuildingBlock: KIFKEQ_clean_linker_1, # of connection points: 2
#     Edge 27, Type (0, 0), BuildingBlock: KIFKEQ_clean_linker_1, # of connection points: 2
#     Edge 28, Type (0, 0), BuildingBlock: KIFKEQ_clean_linker_1, # of connection points: 2
#     Edge 29, Type (0, 0), BuildingBlock: KIFKEQ_clean_linker_1, # of connection points: 2
#     Edge 30, Type (0, 0), BuildingBlock: KIFKEQ_clean_linker_1, # of connection points: 2
#     Edge 31, Type (0, 0), BuildingBlock: KIFKEQ_clean_linker_1, # of connection points: 2
#     Edge 32, Type (0, 0), BuildingBlock: KIFKEQ_clean_linker_1, # of connection points: 2
#     Edge 33, Type (0, 0), BuildingBlock: KIFKEQ_clean_linker_1, # of connection points: 2
#     Edge 34, Type (0, 0), BuildingBlock: KIFKEQ_clean_linker_1, # of connection points: 2
#     Edge 35, Type (0, 0), BuildingBlock: KIFKEQ_clean_linker_1, # of connection points: 2
#     Edge 36, Type (0, 0), BuildingBlock: KIFKEQ_clean_linker_1, # of connection points: 2
#     Edge 37, Type (0, 0), BuildingBlock: KIFKEQ_clean_linker_1, # of connection points: 2
#     Edge 38, Type (0, 0), BuildingBlock: KIFKEQ_clean_linker_1, # of connection points: 2
#     Edge 39, Type (0, 0), BuildingBlock: KIFKEQ_clean_linker_1, # of connection points: 2
#     Edge 40, Type (0, 0), BuildingBlock: KIFKEQ_clean_linker_1, # of connection points: 2
#     Edge 41, Type (0, 0), BuildingBlock: KIFKEQ_clean_linker_1, # of connection points: 2
# Relax obj value: 0.259
# Max RMSD: 0.110
# Mean RMSD: 0.110
data_MOF--net-fny--node1-BEQFEK_clean_sbu_0--edge1-KIFKEQ_clean_linker_1
_symmetry_space_group_name_H-M    P1
_symmetry_Int_Tables_number       1
_symmetry_cell_setting            triclinic
loop_
_symmetry_equiv_pos_as_xyz
'x, y, z'
_cell_length_a     61.846474
_cell_length_b     62.019522
_cell_length_c     24.113237
_cell_angle_alpha  90.048695
_cell_angle_beta   89.94552
_cell_angle_gamma 120.06153
loop_
_atom_site_label
_atom_site_type_symbol
_atom_site_fract_x
_atom_site_fract_y
_atom_site_fract_z
_atom_type_partial_charge
Co0 Co 0.42656 0.54251 0.31387 0.0
Co1 Co 0.38334 0.50887 0.23922 0.0
C2 C 0.42378 0.55694 0.19477 0.0
O3 O 0.43435 0.56021 0.24171 0.0
O4 O 0.40247 0.53766 0.18591 0.0
C5 C 0.47407 0.56688 0.35643 0.0
O6 O 0.47776 0.55498 0.31581 0.0
C7 C 0.34173 0.48279 0.1616 0.0
C8 C 0.3196 0.44659 0.20457 0.0
C9 C 0.32044 0.45958 0.15734 0.0
N10 N 0.35324 0.48338 0.20903 0.0
N11 N 0.34009 0.46167 0.2343 0.0
C12 C 0.35012 0.50469 0.12379 0.0
H13 H 0.35719 0.52199 0.14863 0.0
H14 H 0.33474 0.50265 0.09664 0.0
H15 H 0.36568 0.50646 0.09755 0.0
C16 C 0.38516 0.53718 0.38954 0.0
N17 N 0.39416 0.53325 0.34173 0.0
N18 N 0.37546 0.51944 0.30851 0.0
C19 C 0.3539 0.5149 0.33331 0.0
C20 C 0.35906 0.52569 0.38633 0.0
C21 C 0.40126 0.55019 0.43863 0.0
H22 H 0.41804 0.54809 0.43867 0.0
H23 H 0.40751 0.57034 0.43618 0.0
H24 H 0.3908 0.54263 0.47792 0.0
O25 O 0.43134 0.5135 0.31017 0.0
O26 O 0.40255 0.49079 0.2487 0.0
H27 H 0.32016 0.48165 0.31177 0.0
H28 H 0.31651 0.50849 0.32162 0.0
C29 C 0.32903 0.50202 0.30499 0.0
H30 H 0.33139 0.50569 0.25978 0.0
H31 H 0.34501 0.45728 0.27228 0.0
O32 O 0.45279 0.56499 0.36274 0.0
C33 C 0.42074 0.49441 0.27948 0.0
Co34 Co 0.90204 0.39852 0.77985 0.0
Co35 Co 0.89603 0.3569 0.70319 0.0
C36 C 0.88863 0.39837 0.6599 0.0
O37 O 0.89358 0.40772 0.70832 0.0
O38 O 0.88798 0.37776 0.65013 0.0
C39 C 0.92289 0.44392 0.83012 0.0
O40 O 0.93855 0.44953 0.78853 0.0
C41 C 0.87334 0.31093 0.63634 0.0
C42 C 0.9004 0.29805 0.65074 0.0
C43 C 0.87809 0.29174 0.62474 0.0
N44 N 0.89184 0.32758 0.66865 0.0
N45 N 0.90799 0.31983 0.67687 0.0
C46 C 0.85233 0.31408 0.61516 0.0
H47 H 0.85775 0.33402 0.61466 0.0
H48 H 0.83591 0.30415 0.64283 0.0
H49 H 0.84682 0.30618 0.5728 0.0
C50 C 0.8653 0.35642 0.85008 0.0
N51 N 0.87908 0.36571 0.80352 0.0
N52 N 0.87615 0.34733 0.77135 0.0
C53 C 0.86003 0.32553 0.79677 0.0
C54 C 0.85254 0.3305 0.8477 0.0
C55 C 0.86451 0.37227 0.89594 0.0
H56 H 0.88315 0.38239 0.916 0.0
H57 H 0.86045 0.3864 0.87846 0.0
H58 H 0.85019 0.36101 0.92749 0.0
O59 O 0.93651 0.40443 0.77841 0.0
O60 O 0.93313 0.37634 0.71771 0.0
H61 H 0.87017 0.30007 0.76187 0.0
H62 H 0.8429 0.28556 0.80613 0.0
C63 C 0.85309 0.30033 0.77472 0.0
H64 H 0.84102 0.29631 0.7378 0.0
H65 H 0.92406 0.32925 0.70105 0.0
O66 O 0.90367 0.4224 0.83281 0.0
C67 C 0.94645 0.39459 0.74964 0.0
Co68 Co 0.5214 0.8871 0.3071 0.0
Co69 Co 0.56343 0.88794 0.23768 0.0
C70 C 0.51562 0.87358 0.18335 0.0
O71 O 0.50876 0.87793 0.22968 0.0
O72 O 0.53699 0.87539 0.17844 0.0
C73 C 0.47562 0.85094 0.34083 0.0
O74 O 0.48164 0.83953 0.3032 0.0
C75 C 0.59498 0.87514 0.17243 0.0
C76 C 0.63238 0.89959 0.20855 0.0
C77 C 0.61962 0.88068 0.1705 0.0
N78 N 0.59309 0.88976 0.21071 0.0
N79 N 0.61553 0.90458 0.23171 0.0
C80 C 0.57343 0.8565 0.1383 0.0
H81 H 0.56569 0.86634 0.1143 0.0
H82 H 0.5584 0.84301 0.16599 0.0
H83 H 0.57899 0.84646 0.10871 0.0
C84 C 0.535 0.858 0.38423 0.0
N85 N 0.53755 0.87004 0.33583 0.0
N86 N 0.55347 0.86775 0.30403 0.0
C87 C 0.5606 0.85293 0.33019 0.0
C88 C 0.54904 0.84602 0.3824 0.0
C89 C 0.5223 0.86092 0.43421 0.0
H90 H 0.5205 0.87777 0.43038 0.0
H91 H 0.50346 0.84445 0.43857 0.0
H92 H 0.53298 0.8623 0.47232 0.0
O93 O 0.54398 0.92393 0.30897 0.0
O94 O 0.57238 0.9234 0.25328 0.0
H95 H 0.59714 0.85956 0.31086 0.0
H96 H 0.57445 0.82719 0.32338 0.0
C97 C 0.57741 0.84479 0.30466 0.0
H98 H 0.5738 0.8419 0.25958 0.0
H99 H 0.61917 0.91753 0.26314 0.0
O100 O 0.4903 0.87413 0.3494 0.0
C101 C 0.56413 0.9354 0.28079 0.0
Co102 Co 0.67733 0.52354 0.79079 0.0
Co103 Co 0.71909 0.56372 0.7219 0.0
C104 C 0.68086 0.51789 0.66589 0.0
O105 O 0.67095 0.51187 0.71351 0.0
O106 O 0.7016 0.53813 0.65975 0.0
C107 C 0.65428 0.4736 0.81464 0.0
O108 O 0.67229 0.47486 0.78343 0.0
C109 C 0.75914 0.59589 0.64594 0.0
C110 C 0.77911 0.63084 0.69433 0.0
C111 C 0.77886 0.62015 0.64384 0.0
N112 N 0.74779 0.59247 0.69508 0.0
N113 N 0.75966 0.61343 0.72375 0.0
C114 C 0.75235 0.57563 0.60414 0.0
H115 H 0.73581 0.57288 0.58032 0.0
H116 H 0.74735 0.55792 0.62565 0.0
H117 H 0.76791 0.58019 0.57489 0.0
C118 C 0.71986 0.52886 0.86023 0.0
N119 N 0.71043 0.53432 0.81538 0.0
N120 N 0.72878 0.55074 0.78455 0.0
C121 C 0.75072 0.5558 0.80825 0.0
C122 C 0.74599 0.54216 0.85771 0.0
C123 C 0.70394 0.51276 0.90679 0.0
H124 H 0.68629 0.51328 0.90913 0.0
H125 H 0.69919 0.49323 0.89906 0.0
H126 H 0.71389 0.51898 0.94701 0.0
O127 O 0.66767 0.54917 0.8004 0.0
O128 O 0.69686 0.57733 0.74565 0.0
H129 H 0.78239 0.59205 0.7966 0.0
H130 H 0.78953 0.56717 0.79528 0.0
C131 C 0.77569 0.57265 0.78272 0.0
H132 H 0.77414 0.57205 0.73686 0.0
H133 H 0.75461 0.61575 0.76366 0.0
O134 O 0.65394 0.49327 0.82777 0.0
C135 C 0.6777 0.57028 0.77649 0.0
Co136 Co 0.19084 0.6721 0.26467 0.0
Co137 Co 0.19391 0.71475 0.19637 0.0
C138 C 0.19965 0.67509 0.1403 0.0
O139 O 0.19553 0.6651 0.18778 0.0
O140 O 0.2011 0.69624 0.13463 0.0
C141 C 0.21311 0.64402 0.28936 0.0
O142 O 0.23088 0.6598 0.25627 0.0
C143 C 0.21437 0.76129 0.13421 0.0
C144 C 0.1887 0.77494 0.15765 0.0
C145 C 0.21008 0.78105 0.12763 0.0
N146 N 0.19663 0.74449 0.16768 0.0
N147 N 0.18122 0.75261 0.18124 0.0
C148 C 0.23425 0.7577 0.10755 0.0
H149 H 0.22569 0.73881 0.0892 0.0
H150 H 0.24777 0.75906 0.1395 0.0
H151 H 0.24426 0.77155 0.07437 0.0
C152 C 0.22925 0.71322 0.33439 0.0
N153 N 0.2144 0.7046 0.2892 0.0
N154 N 0.21559 0.72338 0.26141 0.0
C155 C 0.23111 0.74473 0.28912 0.0
C156 C 0.24051 0.73907 0.33628 0.0
C157 C 0.231 0.69676 0.37735 0.0
H158 H 0.2123 0.68023 0.38454 0.0
H159 H 0.24358 0.69013 0.36198 0.0
H160 H 0.23851 0.70683 0.41706 0.0
O161 O 0.15606 0.66485 0.27465 0.0
O162 O 0.15769 0.69372 0.21793 0.0
H163 H 0.21863 0.77017 0.26765 0.0
H164 H 0.24882 0.78465 0.30149 0.0
C165 C 0.23645 0.77007 0.2716 0.0
H166 H 0.24564 0.77452 0.23045 0.0
H167 H 0.16584 0.74311 0.20739 0.0
O168 O 0.19505 0.64722 0.30272 0.0
C169 C 0.14536 0.67508 0.24986 0.0
Co170 Co 0.57135 0.17316 0.80381 0.0
Co171 Co 0.52572 0.16764 0.74116 0.0
C172 C 0.57296 0.18504 0.6804 0.0
O173 O 0.58167 0.18201 0.72541 0.0
O174 O 0.55084 0.18146 0.6788 0.0
C175 C 0.61798 0.21126 0.82884 0.0
O176 O 0.61017 0.22162 0.79252 0.0
C177 C 0.49309 0.18176 0.6878 0.0
C178 C 0.45672 0.14673 0.68485 0.0
C179 C 0.46869 0.17163 0.67006 0.0
N180 N 0.4955 0.16388 0.71305 0.0
N181 N 0.47369 0.14296 0.7116 0.0
C182 C 0.51446 0.20735 0.6762 0.0
H183 H 0.51827 0.20941 0.63095 0.0
H184 H 0.53148 0.21063 0.69874 0.0
H185 H 0.50964 0.22163 0.68879 0.0
C186 C 0.5558 0.20002 0.88599 0.0
N187 N 0.55373 0.18847 0.83677 0.0
N188 N 0.53499 0.18736 0.80875 0.0
C189 C 0.52489 0.19867 0.83891 0.0
C190 C 0.53799 0.20759 0.88882 0.0
C191 C 0.57303 0.20207 0.93192 0.0
H192 H 0.58696 0.19714 0.91838 0.0
H193 H 0.58243 0.22113 0.94978 0.0
H194 H 0.56203 0.18869 0.96515 0.0
O195 O 0.55071 0.13581 0.80691 0.0
O196 O 0.51962 0.13336 0.7558 0.0
H197 H 0.49258 0.20182 0.86044 0.0
H198 H 0.5053 0.21277 0.79224 0.0
C199 C 0.5012 0.19824 0.82382 0.0
H200 H 0.48759 0.17984 0.80638 0.0
H201 H 0.47057 0.12601 0.72755 0.0
O202 O 0.60428 0.18808 0.83929 0.0
C203 C 0.52998 0.1229 0.78135 0.0
Co204 Co 0.53702 0.66399 0.75785 0.0
Co205 Co 0.57642 0.70761 0.8249 0.0
C206 C 0.52873 0.66916 0.87892 0.0
O207 O 0.52231 0.65875 0.83181 0.0
O208 O 0.54971 0.68924 0.88483 0.0
C209 C 0.50666 0.61583 0.72921 0.0
O210 O 0.51725 0.61325 0.77396 0.0
C211 C 0.60565 0.74929 0.90068 0.0
C212 C 0.64061 0.77113 0.8529 0.0
C213 C 0.6291 0.77042 0.90256 0.0
N214 N 0.60347 0.73773 0.8523 0.0
N215 N 0.62448 0.75074 0.8241 0.0
C216 C 0.58493 0.74109 0.94204 0.0
H217 H 0.56699 0.73485 0.9201 0.0
H218 H 0.58827 0.75626 0.97131 0.0
H219 H 0.58332 0.72503 0.96582 0.0
C220 C 0.54177 0.70445 0.68198 0.0
N221 N 0.54734 0.69615 0.72857 0.0
N222 N 0.56341 0.7152 0.75837 0.0
C223 C 0.56796 0.73645 0.73225 0.0
C224 C 0.55454 0.73054 0.68224 0.0
C225 C 0.52588 0.68752 0.63643 0.0
H226 H 0.52739 0.67044 0.63544 0.0
H227 H 0.50608 0.68192 0.64435 0.0
H228 H 0.53154 0.69692 0.59553 0.0
O229 O 0.56433 0.65642 0.7583 0.0
O230 O 0.59295 0.68724 0.80831 0.0
H231 H 0.6034 0.76927 0.74414 0.0
H232 H 0.57747 0.77485 0.74134 0.0
C233 C 0.58364 0.7619 0.75647 0.0
H234 H 0.58246 0.76103 0.80236 0.0
H235 H 0.62769 0.74579 0.78487 0.0
O236 O 0.51143 0.63744 0.71442 0.0
C237 C 0.58561 0.6671 0.78128 0.0
Co238 Co 0.91473 0.52743 0.2318 0.0
Co239 Co 0.90546 0.56238 0.30302 0.0
C240 C 0.89824 0.51501 0.3517 0.0
O241 O 0.90529 0.51123 0.30504 0.0
O242 O 0.89621 0.53434 0.35921 0.0
C243 C 0.9366 0.50085 0.20008 0.0
O244 O 0.95111 0.51328 0.2419 0.0
C245 C 0.88266 0.58747 0.36384 0.0
C246 C 0.90892 0.6267 0.34091 0.0
C247 C 0.88729 0.61168 0.37021 0.0
N248 N 0.90062 0.58818 0.3313 0.0
N249 N 0.91624 0.61166 0.31789 0.0
C250 C 0.86235 0.56426 0.39022 0.0
H251 H 0.85783 0.56839 0.43206 0.0
H252 H 0.86791 0.54991 0.39348 0.0
H253 H 0.84526 0.55662 0.36435 0.0
C254 C 0.87807 0.53044 0.15526 0.0
N255 N 0.89124 0.53568 0.20295 0.0
N256 N 0.88689 0.55067 0.23348 0.0
C257 C 0.87039 0.55517 0.20607 0.0
C258 C 0.86419 0.54253 0.15537 0.0
C259 C 0.87896 0.51421 0.11049 0.0
H260 H 0.89765 0.52392 0.09057 0.0
H261 H 0.87648 0.49673 0.12894 0.0
H262 H 0.86438 0.50976 0.07862 0.0
O263 O 0.94846 0.55672 0.2325 0.0
O264 O 0.9429 0.58048 0.29197 0.0
H265 H 0.87812 0.5909 0.23529 0.0
H266 H 0.84963 0.57452 0.19559 0.0
C267 C 0.86171 0.57236 0.22641 0.0
H268 H 0.85113 0.56491 0.26549 0.0
H269 H 0.93187 0.61744 0.29251 0.0
O270 O 0.91841 0.50388 0.1868 0.0
C271 C 0.95721 0.57642 0.26122 0.0
Co272 Co 0.42531 0.88497 0.72751 0.0
Co273 Co 0.38521 0.89032 0.79199 0.0
C274 C 0.41557 0.87317 0.85123 0.0
O275 O 0.42695 0.87595 0.80563 0.0
O276 O 0.39718 0.877 0.85399 0.0
C277 C 0.43431 0.84752 0.69825 0.0
O278 O 0.41595 0.83611 0.73398 0.0
C279 C 0.34565 0.88738 0.86348 0.0
C280 C 0.3312 0.9076 0.81446 0.0
C281 C 0.32816 0.89506 0.86382 0.0
N282 N 0.35887 0.89538 0.81642 0.0
N283 N 0.35033 0.90766 0.78747 0.0
C284 C 0.34848 0.87098 0.90487 0.0
H285 H 0.35018 0.85618 0.88285 0.0
H286 H 0.33242 0.8622 0.93389 0.0
H287 H 0.36587 0.88229 0.92897 0.0
C288 C 0.38227 0.85639 0.64968 0.0
N289 N 0.39221 0.86921 0.69719 0.0
N290 N 0.37451 0.86973 0.72623 0.0
C291 C 0.35254 0.85654 0.69865 0.0
C292 C 0.35666 0.84744 0.64906 0.0
C293 C 0.39723 0.85509 0.60234 0.0
H294 H 0.41724 0.86936 0.60645 0.0
H295 H 0.39512 0.83631 0.60089 0.0
H296 H 0.38999 0.8579 0.5625 0.0
O297 O 0.44199 0.92216 0.72382 0.0
O298 O 0.41364 0.92453 0.77603 0.0
H299 H 0.32573 0.86835 0.70748 0.0
H300 H 0.31229 0.83512 0.70165 0.0
C301 C 0.32798 0.85234 0.71967 0.0
H302 H 0.32734 0.85099 0.76557 0.0
H303 H 0.35726 0.91567 0.74876 0.0
O304 O 0.44308 0.87067 0.68905 0.0
C305 C 0.43435 0.93503 0.74982 0.0
Co306 Co 0.55685 0.39569 0.23958 0.0
Co307 Co 0.52043 0.35813 0.32287 0.0
C308 C 0.57256 0.40116 0.35669 0.0
O309 O 0.57748 0.40885 0.30677 0.0
O310 O 0.55177 0.38155 0.36891 0.0
C311 C 0.56075 0.40519 0.13104 0.0
O312 O 0.53655 0.39097 0.1385 0.0
C313 C 0.4984 0.3141 0.39481 0.0
C314 C 0.45974 0.30701 0.40348 0.0
C315 C 0.47529 0.29792 0.41819 0.0
N316 N 0.49639 0.33171 0.36691 0.0
N317 N 0.47328 0.3274 0.37229 0.0
C318 C 0.52235 0.31387 0.40096 0.0
H319 H 0.53854 0.33265 0.39259 0.0
H320 H 0.52283 0.3007 0.37057 0.0
H321 H 0.52384 0.30767 0.44324 0.0
C322 C 0.5515 0.34971 0.18677 0.0
N323 N 0.54603 0.36123 0.22744 0.0
N324 N 0.52762 0.34451 0.25756 0.0
C325 C 0.51942 0.32177 0.23395 0.0
C326 C 0.53425 0.32428 0.18755 0.0
C327 C 0.57513 0.36208 0.15342 0.0
H328 H 0.58924 0.37965 0.17347 0.0
H329 H 0.58289 0.34943 0.14916 0.0
H330 H 0.57126 0.36616 0.11117 0.0
O331 O 0.52938 0.404 0.24274 0.0
O332 O 0.50349 0.37701 0.30381 0.0
H333 H 0.48682 0.28633 0.21666 0.0
H334 H 0.50241 0.288 0.28067 0.0
C335 C 0.4967 0.29843 0.25269 0.0
H336 H 0.48382 0.30288 0.27535 0.0
H337 H 0.46664 0.33825 0.35431 0.0
O338 O 0.57507 0.4123 0.17305 0.0
C339 C 0.50938 0.39508 0.27097 0.0
Co340 Co 0.18051 0.54127 0.71425 0.0
Co341 Co 0.1848 0.50794 0.80086 0.0
C342 C 0.19326 0.5595 0.83101 0.0
O343 O 0.18888 0.56301 0.7811 0.0
O344 O 0.19289 0.53934 0.84471 0.0
C345 C 0.17183 0.54469 0.6059 0.0
O346 O 0.1615 0.52048 0.61249 0.0
C347 C 0.207 0.48808 0.87819 0.0
C348 C 0.18049 0.4476 0.87 0.0
C349 C 0.20272 0.46481 0.8946 0.0
N350 N 0.1884 0.48465 0.84425 0.0
N351 N 0.17248 0.46048 0.84002 0.0
C352 C 0.22777 0.51318 0.89549 0.0
H353 H 0.22127 0.52688 0.89589 0.0
H354 H 0.24335 0.51975 0.86533 0.0
H355 H 0.23483 0.51233 0.93726 0.0
C356 C 0.2216 0.53589 0.65953 0.0
N357 N 0.20477 0.53103 0.70059 0.0
N358 N 0.20557 0.51523 0.73557 0.0
C359 C 0.22232 0.50885 0.71644 0.0
C360 C 0.23299 0.52171 0.66729 0.0
C361 C 0.22874 0.55542 0.61586 0.0
H362 H 0.22486 0.57016 0.62984 0.0
H363 H 0.24893 0.56409 0.60589 0.0
H364 H 0.21825 0.54656 0.57737 0.0
O365 O 0.14524 0.5132 0.71989 0.0
O366 O 0.14841 0.48965 0.78384 0.0
H367 H 0.20956 0.4738 0.75713 0.0
H368 H 0.23684 0.48361 0.7138 0.0
C369 C 0.22733 0.49002 0.74301 0.0
H370 H 0.23955 0.4985 0.77956 0.0
H371 H 0.15651 0.45271 0.81527 0.0
O372 O 0.18035 0.55878 0.64808 0.0
C373 C 0.13519 0.49392 0.75032 0.0
Co374 Co 0.66271 0.17187 0.21834 0.0
Co375 Co 0.70388 0.17076 0.28697 0.0
C376 C 0.67019 0.18441 0.34275 0.0
O377 O 0.659 0.18041 0.29645 0.0
O378 O 0.68977 0.18263 0.34705 0.0
C379 C 0.6529 0.20799 0.18619 0.0
O380 O 0.67022 0.21926 0.22418 0.0
C381 C 0.74386 0.17673 0.36078 0.0
C382 C 0.76131 0.15901 0.31278 0.0
C383 C 0.7628 0.17102 0.36216 0.0
N384 N 0.7313 0.16803 0.31317 0.0
N385 N 0.74164 0.15725 0.2848 0.0
C386 C 0.73922 0.19234 0.40117 0.0
H387 H 0.72207 0.18013 0.42527 0.0
H388 H 0.73612 0.20607 0.37831 0.0
H389 H 0.75506 0.20244 0.43024 0.0
C390 C 0.70596 0.20194 0.14221 0.0
N391 N 0.69618 0.18941 0.19004 0.0
N392 N 0.71429 0.19153 0.22188 0.0
C393 C 0.73642 0.20672 0.19655 0.0
C394 C 0.73205 0.21406 0.1446 0.0
C395 C 0.6905 0.19934 0.09218 0.0
H396 H 0.67184 0.18233 0.09527 0.0
H397 H 0.68797 0.2157 0.08877 0.0
H398 H 0.70002 0.19845 0.05392 0.0
O399 O 0.64835 0.135 0.21474 0.0
O400 O 0.67734 0.13556 0.26998 0.0
H401 H 0.76762 0.20157 0.21065 0.0
H402 H 0.77534 0.23373 0.20892 0.0
C403 C 0.76123 0.21473 0.22279 0.0
H404 H 0.75961 0.21453 0.26862 0.0
H405 H 0.7356 0.14921 0.24575 0.0
O406 O 0.64458 0.18492 0.17668 0.0
C407 C 0.65712 0.12354 0.24237 0.0
H408 H 0.47269 0.59396 0.19488 0.0
H409 H 0.40644 0.56224 0.09292 0.0
H410 H 0.49653 0.62269 0.12127 0.0
H411 H 0.43008 0.59201 0.01963 0.0
H412 H 0.48514 0.62477 0.87632 0.0
H413 H 0.45947 0.59992 0.95221 0.0
H414 H 0.50704 0.65778 0.06753 0.0
H415 H 0.53387 0.6825 0.99042 0.0
C416 C 0.46303 0.59334 0.15694 0.0
C417 C 0.43755 0.57552 0.14994 0.0
C418 C 0.47679 0.61012 0.11458 0.0
C419 C 0.46552 0.60992 0.06378 0.0
C420 C 0.43976 0.59257 0.05744 0.0
C421 C 0.42604 0.57549 0.09971 0.0
C422 C 0.49022 0.6325 0.91771 0.0
C423 C 0.51186 0.65579 0.92686 0.0
C424 C 0.47516 0.61813 0.96166 0.0
C425 C 0.48088 0.62656 0.01672 0.0
C426 C 0.5021 0.6503 0.02597 0.0
C427 C 0.51745 0.66468 0.98165 0.0
H428 H 0.89392 0.44473 0.66782 0.0
H429 H 0.87708 0.38627 0.54896 0.0
H430 H 0.8937 0.4713 0.59472 0.0
H431 H 0.87574 0.41269 0.47533 0.0
H432 H 0.90733 0.4763 0.34949 0.0
H433 H 0.90213 0.44734 0.42222 0.0
H434 H 0.87242 0.48188 0.53029 0.0
H435 H 0.87868 0.51188 0.45716 0.0
C436 C 0.88971 0.43728 0.62608 0.0
C437 C 0.88568 0.41323 0.61457 0.0
C438 C 0.8894 0.45263 0.58387 0.0
C439 C 0.88483 0.44447 0.52845 0.0
C440 C 0.87987 0.42002 0.51714 0.0
C441 C 0.88041 0.40467 0.55952 0.0
C442 C 0.89955 0.4778 0.3886 0.0
C443 C 0.89352 0.49668 0.39716 0.0
C444 C 0.89633 0.46085 0.43053 0.0
C445 C 0.88673 0.4619 0.4827 0.0
C446 C 0.88022 0.48053 0.49111 0.0
C447 C 0.88367 0.49774 0.44902 0.0
H448 H 0.46597 0.85902 0.18356 0.0
H449 H 0.52744 0.877 0.07233 0.0
H450 H 0.43954 0.85519 0.10519 0.0
H451 H 0.50128 0.87407 0.99372 0.0
H452 H 0.44543 0.85251 0.85584 0.0
H453 H 0.46755 0.84898 0.93543 0.0
H454 H 0.43288 0.87959 0.04052 0.0
H455 H 0.40999 0.88221 0.96074 0.0
C456 C 0.47386 0.86206 0.14224 0.0
C457 C 0.49894 0.8684 0.13442 0.0
C458 C 0.45869 0.86007 0.09714 0.0
C459 C 0.46815 0.86457 0.04268 0.0
C460 C 0.49306 0.87014 0.03474 0.0
C461 C 0.5082 0.8719 0.07994 0.0
C462 C 0.44221 0.85815 0.89611 0.0
C463 C 0.42593 0.86773 0.90173 0.0
C464 C 0.45516 0.85636 0.94186 0.0
C465 C 0.45248 0.86434 0.99475 0.0
C466 C 0.43538 0.873 1.00078 0.0
C467 C 0.42218 0.87455 0.95493 0.0
H468 H 0.57307 0.39016 0.46765 0.0
H469 H 0.61311 0.44812 0.3468 0.0
H470 H 0.60105 0.41728 0.54005 0.0
H471 H 0.64018 0.47559 0.41909 0.0
H472 H 0.69659 0.51726 0.55773 0.0
H473 H 0.67253 0.48792 0.48335 0.0
H474 H 0.60892 0.45127 0.59313 0.0
H475 H 0.63295 0.4794 0.66672 0.0
C476 C 0.58782 0.40866 0.45642 0.0
C477 C 0.59062 0.4168 0.40113 0.0
C478 C 0.60385 0.42444 0.49816 0.0
C479 C 0.62296 0.44905 0.48619 0.0
C480 C 0.62608 0.45685 0.4305 0.0
C481 C 0.6103 0.44099 0.38877 0.0
C482 C 0.67751 0.50284 0.56583 0.0
C483 C 0.66692 0.5008 0.61859 0.0
C484 C 0.66356 0.48599 0.52305 0.0
C485 C 0.63857 0.46679 0.53173 0.0
C486 C 0.62815 0.4651 0.58451 0.0
C487 C 0.64204 0.48161 0.62701 0.0
H488 H 0.21046 0.68828 0.02868 0.0
H489 H 0.19244 0.62809 0.14327 0.0
H490 H 0.21187 0.6625 0.95287 0.0
H491 H 0.19274 0.60245 0.06876 0.0
H492 H 0.21143 0.56394 0.93716 0.0
H493 H 0.21619 0.59389 1.00834 0.0
H494 H 0.18812 0.62795 0.89468 0.0
H495 H 0.18456 0.59871 0.82284 0.0
C496 C 0.20681 0.66966 0.03783 0.0
C497 C 0.20144 0.66051 0.09249 0.0
C498 C 0.20744 0.65471 0.99425 0.0
C499 C 0.20259 0.63018 1.00413 0.0
C500 C 0.19726 0.62128 0.05892 0.0
C501 C 0.19685 0.63613 0.10207 0.0
C502 C 0.20645 0.57793 0.92718 0.0
C503 C 0.19747 0.57867 0.87409 0.0
C504 C 0.20899 0.59512 0.9683 0.0
C505 C 0.20221 0.61341 0.95816 0.0
C506 C 0.19382 0.6145 0.90448 0.0
C507 C 0.19161 0.59751 0.86312 0.0
H508 H 0.67919 0.18087 0.45326 0.0
H509 H 0.63475 0.19848 0.34465 0.0
H510 H 0.65654 0.18378 0.53309 0.0
H511 H 0.61276 0.20236 0.4243 0.0
H512 H 0.55747 0.1761 0.57149 0.0
H513 H 0.58225 0.17849 0.49036 0.0
H514 H 0.64848 0.20871 0.59255 0.0
H515 H 0.62352 0.20534 0.67352 0.0
C516 C 0.66494 0.18587 0.44646 0.0
C517 C 0.65878 0.1893 0.39234 0.0
C518 C 0.65191 0.18763 0.4924 0.0
C519 C 0.63251 0.19316 0.48565 0.0
C520 C 0.62708 0.19751 0.43151 0.0
C521 C 0.63992 0.1955 0.38565 0.0
C522 C 0.57738 0.18363 0.57639 0.0
C523 C 0.5884 0.19038 0.62919 0.0
C524 C 0.59171 0.18505 0.52974 0.0
C525 C 0.61752 0.19352 0.5345 0.0
C526 C 0.62865 0.20145 0.58703 0.0
C527 C 0.61431 0.19977 0.63359 0.0
H528 H 0.53545 0.38622 0.03423 0.0
H529 H 0.60986 0.42836 0.10311 0.0
H530 H 0.55335 0.38842 0.94266 0.0
H531 H 0.62752 0.43062 0.01223 0.0
H532 H 0.66097 0.43767 0.8621 0.0
H533 H 0.63243 0.4078 0.93049 0.0
H534 H 0.57672 0.42751 0.88707 0.0
H535 H 0.60511 0.4571 0.81954 0.0
C536 C 0.55558 0.39593 0.02983 0.0
C537 C 0.57131 0.40765 0.07543 0.0
C538 C 0.56574 0.39675 0.97776 0.0
C539 C 0.59173 0.40925 0.97068 0.0
C540 C 0.60738 0.42022 0.01673 0.0
C541 C 0.59728 0.41951 0.06855 0.0
C542 C 0.64213 0.43454 0.86542 0.0
C543 C 0.63525 0.45001 0.83772 0.0
C544 C 0.62584 0.41749 0.90426 0.0
C545 C 0.6028 0.41606 0.91506 0.0
C546 C 0.59444 0.42838 0.87992 0.0
C547 C 0.61076 0.44554 0.84175 0.0
H548 H 0.1759 0.59657 0.28921 0.0
H549 H 0.25171 0.64458 0.344 0.0
H550 H 0.17049 0.56581 0.35829 0.0
H551 H 0.24638 0.61365 0.41384 0.0
H552 H 0.1994 0.59374 0.57976 0.0
H553 H 0.21669 0.6116 0.49013 0.0
H554 H 0.18066 0.53813 0.41684 0.0
H555 H 0.16318 0.51995 0.50735 0.0
C556 C 0.19178 0.59986 0.31439 0.0
C557 C 0.21393 0.62293 0.31308 0.0
C558 C 0.18879 0.58219 0.35356 0.0
C559 C 0.20781 0.58783 0.39223 0.0
C560 C 0.23138 0.6092 0.38473 0.0
C561 C 0.23445 0.62683 0.34498 0.0
C562 C 0.19509 0.58133 0.54466 0.0
C563 C 0.17972 0.55549 0.55041 0.0
C564 C 0.20551 0.59151 0.49359 0.0
C565 C 0.20058 0.57611 0.44708 0.0
C566 C 0.18507 0.55026 0.45249 0.0
C567 C 0.17475 0.53999 0.50392 0.0
H568 H 0.68754 0.25397 0.15004 0.0
H569 H 0.61133 0.19509 0.12525 0.0
H570 H 0.68805 0.26968 0.05684 0.0
H571 H 0.61138 0.21197 0.03389 0.0
H572 H 0.65186 0.20328 0.88262 0.0
H573 H 0.66697 0.21824 0.97617 0.0
H574 H 0.63632 0.26713 0.96777 0.0
H575 H 0.62271 0.25353 0.87278 0.0
C576 C 0.67039 0.24541 0.1262 0.0
C577 C 0.64954 0.22295 0.14377 0.0
C578 C 0.67077 0.25448 0.07305 0.0
C579 C 0.64983 0.24187 0.03887 0.0
C580 C 0.62767 0.22196 0.06017 0.0
C581 C 0.62764 0.21226 0.11216 0.0
C582 C 0.64991 0.21844 0.89934 0.0
C583 C 0.63587 0.227 0.87128 0.0
C584 C 0.65859 0.22706 0.95262 0.0
C585 C 0.65249 0.24359 0.97859 0.0
C586 C 0.64143 0.25463 0.94795 0.0
C587 C 0.63363 0.24674 0.89373 0.0
H588 H 0.52849 0.58969 0.69558 0.0
H589 H 0.46624 0.60119 0.6646 0.0
H590 H 0.52623 0.57544 0.59992 0.0
H591 H 0.46341 0.58615 0.57003 0.0
H592 H 0.49415 0.61134 0.40691 0.0
H593 H 0.50261 0.61686 0.50612 0.0
H594 H 0.49545 0.54403 0.51571 0.0
H595 H 0.4878 0.53887 0.41552 0.0
C596 C 0.5134 0.58769 0.6693 0.0
C597 C 0.49775 0.59683 0.68635 0.0
C598 C 0.5123 0.57979 0.61468 0.0
C599 C 0.49533 0.58078 0.57793 0.0
C600 C 0.47712 0.58602 0.59783 0.0
C601 C 0.47846 0.59425 0.65185 0.0
C602 C 0.49589 0.59722 0.4297 0.0
C603 C 0.49024 0.57471 0.40455 0.0
C604 C 0.5003 0.60014 0.48629 0.0
C605 C 0.49859 0.58036 0.51799 0.0
C606 C 0.49648 0.55927 0.49169 0.0
C607 C 0.49243 0.5565 0.43459 0.0
H608 H 0.9125 0.45288 0.16838 0.0
H609 H 0.97821 0.52422 0.13823 0.0
H610 H 0.9155 0.43948 0.07505 0.0
H611 H 0.98058 0.51136 0.04365 0.0
H612 H 0.97006 0.46927 0.87155 0.0
H613 H 0.98057 0.48091 0.96919 0.0
H614 H 0.90405 0.46126 1.0009 0.0
H615 H 0.89353 0.44924 0.90443 0.0
C616 C 0.92831 0.46512 0.14259 0.0
C617 C 0.94496 0.4895 0.15929 0.0
C618 C 0.92991 0.45765 0.08924 0.0
C619 C 0.94765 0.47487 0.05209 0.0
C620 C 0.96663 0.49793 0.07164 0.0
C621 C 0.96534 0.50521 0.12564 0.0
C622 C 0.95577 0.46827 0.89925 0.0
C623 C 0.93096 0.45826 0.88125 0.0
C624 C 0.96171 0.47454 0.95494 0.0
C625 C 0.94283 0.47083 0.99245 0.0
C626 C 0.91866 0.46321 0.97295 0.0
C627 C 0.91273 0.45683 0.91778 0.0
H628 H 0.44701 0.86391 0.40162 0.0
H629 H 0.46465 0.80533 0.37857 0.0
H630 H 0.43079 0.84776 0.49385 0.0
H631 H 0.45006 0.79037 0.4726 0.0
H632 H 0.40029 0.80238 0.65663 0.0
H633 H 0.40201 0.78938 0.56182 0.0
H634 H 0.47978 0.84596 0.55186 0.0
H635 H 0.47765 0.86028 0.6448 0.0
C636 C 0.44635 0.84696 0.41532 0.0
C637 C 0.45751 0.83618 0.38392 0.0
C638 C 0.43706 0.83768 0.46782 0.0
C639 C 0.43962 0.81812 0.4898 0.0
C640 C 0.44778 0.80532 0.45591 0.0
C641 C 0.45612 0.81397 0.40228 0.0
C642 C 0.41811 0.81117 0.6353 0.0
C643 C 0.43867 0.83286 0.65676 0.0
C644 C 0.41902 0.80361 0.5812 0.0
C645 C 0.4409 0.81695 0.55012 0.0
C646 C 0.46273 0.83551 0.57565 0.0
C647 C 0.46152 0.84375 0.62859 0.0
H648 H 0.18814 0.42659 0.96732 0.0
H649 H 0.25356 0.48795 0.89286 0.0
H650 H 0.2149 0.41716 0.02477 0.0
H651 H 0.28015 0.47979 0.95225 0.0
H652 H 0.32642 0.45903 0.04619 0.0
H653 H 0.29568 0.45296 0.97528 0.0
H654 H 0.24071 0.43692 0.10372 0.0
H655 H 0.27122 0.44185 0.1738 0.0
C656 C 0.20824 0.4381 0.9635 0.0
C657 C 0.21885 0.45865 0.92757 0.0
C658 C 0.22352 0.43275 0.99634 0.0
C659 C 0.24963 0.44787 0.9935 0.0
C660 C 0.26012 0.46762 0.95528 0.0
C661 C 0.24487 0.47279 0.92226 0.0
C662 C 0.30752 0.45358 0.0587 0.0
C663 C 0.30107 0.45136 0.1149 0.0
C664 C 0.29 0.45021 0.0184 0.0
C665 C 0.26596 0.44506 0.03401 0.0
C666 C 0.25901 0.44075 0.09023 0.0
C667 C 0.27645 0.44371 0.13042 0.0
H668 H 0.89446 0.26873 0.55431 0.0
H669 H 0.82744 0.2624 0.62545 0.0
H670 H 0.86901 0.23219 0.49631 0.0
H671 H 0.80212 0.22692 0.56632 0.0
H672 H 0.81218 0.20171 0.34492 0.0
H673 H 0.84284 0.22617 0.41592 0.0
H674 H 0.78864 0.18433 0.54344 0.0
H675 H 0.75779 0.16061 0.47187 0.0
C676 C 0.8743 0.25946 0.55757 0.0
C677 C 0.86282 0.26886 0.59264 0.0
C678 C 0.85978 0.23862 0.52446 0.0
C679 C 0.83358 0.22676 0.52646 0.0
C680 C 0.82225 0.23544 0.56404 0.0
C681 C 0.83673 0.25618 0.597 0.0
C682 C 0.80725 0.19722 0.38819 0.0
C683 C 0.78276 0.17975 0.40347 0.0
C684 C 0.82477 0.21114 0.4289 0.0
C685 C 0.81793 0.20754 0.48526 0.0
C686 C 0.79421 0.18791 0.5003 0.0
C687 C 0.77665 0.17423 0.45958 0.0
H688 H 0.66016 0.89915 0.10218 0.0
H689 H 0.60159 0.83117 0.17399 0.0
H690 H 0.67254 0.87485 0.0432 0.0
H691 H 0.61304 0.80691 0.11466 0.0
H692 H 0.63386 0.76405 1.0121 0.0
H693 H 0.64144 0.79394 0.08612 0.0
H694 H 0.65236 0.84929 0.96315 0.0
H695 H 0.64594 0.81963 0.88967 0.0
C696 C 0.65024 0.87903 0.10574 0.0
C697 C 0.62952 0.86681 0.14094 0.0
C698 C 0.65722 0.86515 0.07207 0.0
C699 C 0.64363 0.83893 0.07376 0.0
C700 C 0.62414 0.82702 0.1125 0.0
C701 C 0.61727 0.84086 0.14592 0.0
C702 C 0.63864 0.78288 1.00129 0.0
C703 C 0.63884 0.7896 0.94579 0.0
C704 C 0.6429 0.79995 0.04343 0.0
C705 C 0.64688 0.82379 0.03056 0.0
C706 C 0.64946 0.83115 0.97462 0.0
C707 C 0.64561 0.81416 0.93247 0.0
H708 H 0.82878 0.63991 0.65383 0.0
H709 H 0.77058 0.62428 0.53524 0.0
H710 H 0.8576 0.64612 0.57837 0.0
H711 H 0.79954 0.63134 0.45921 0.0
H712 H 0.90526 0.65312 0.43446 0.0
H713 H 0.88118 0.66545 0.49396 0.0
H714 H 0.8128 0.602 0.43513 0.0
H715 H 0.83674 0.59051 0.37463 0.0
C716 C 0.82257 0.63891 0.61141 0.0
C717 C 0.79755 0.63111 0.59977 0.0
C718 C 0.83904 0.64255 0.56815 0.0
C719 C 0.83061 0.63862 0.51291 0.0
C720 C 0.80633 0.63389 0.50146 0.0
C721 C 0.78983 0.62996 0.54472 0.0
C722 C 0.88504 0.64214 0.43382 0.0
C723 C 0.87278 0.62036 0.40177 0.0
C724 C 0.87132 0.64917 0.46776 0.0
C725 C 0.84514 0.63462 0.46955 0.0
C726 C 0.83293 0.61378 0.43445 0.0
C727 C 0.84664 0.6068 0.40071 0.0
H728 H 0.19464 0.80461 0.05625 0.0
H729 H 0.26029 0.81052 0.13339 0.0
H730 H 0.22117 0.84064 0.99756 0.0
H731 H 0.28675 0.84555 0.07409 0.0
H732 H 0.33359 0.90787 0.97223 0.0
H733 H 0.30218 0.88731 0.04472 0.0
H734 H 0.24724 0.84443 0.91931 0.0
H735 H 0.27848 0.86597 0.8473 0.0
C736 C 0.21474 0.81386 0.06096 0.0
C737 C 0.2256 0.80446 0.09761 0.0
C738 C 0.2299 0.83437 0.02744 0.0
C739 C 0.25608 0.84582 0.03065 0.0
C740 C 0.2667 0.83742 0.07067 0.0
C741 C 0.25159 0.81704 0.104 0.0
C742 C 0.3145 0.89476 0.96048 0.0
C743 C 0.30828 0.88815 0.90481 0.0
C744 C 0.29658 0.88287 1.00176 0.0
C745 C 0.27239 0.86378 0.98786 0.0
C746 C 0.26564 0.8591 0.93154 0.0
C747 C 0.2835 0.87132 0.89022 0.0
H748 H 0.46591 0.21243 0.69704 0.0
H749 H 0.4504 0.15943 0.56562 0.0
H750 H 0.46065 0.23971 0.63254 0.0
H751 H 0.44472 0.18656 0.50062 0.0
H752 H 0.4444 0.28262 0.50732 0.0
H753 H 0.43379 0.2469 0.56738 0.0
H754 H 0.47857 0.22721 0.46458 0.0
H755 H 0.48849 0.26234 0.40396 0.0
C756 C 0.46059 0.20636 0.65457 0.0
C757 C 0.45888 0.18421 0.63566 0.0
C758 C 0.45742 0.22184 0.61775 0.0
C759 C 0.45262 0.21537 0.56144 0.0
C760 C 0.44872 0.19208 0.54372 0.0
C761 C 0.45175 0.17651 0.58079 0.0
C762 C 0.45172 0.27045 0.4974 0.0
C763 C 0.46795 0.27565 0.45225 0.0
C764 C 0.44564 0.25006 0.53164 0.0
C765 C 0.45544 0.23439 0.52075 0.0
C766 C 0.47059 0.23887 0.47377 0.0
C767 C 0.47675 0.25931 0.43977 0.0
H768 H 0.79095 0.58178 0.89377 0.0
H769 H 0.74276 0.5027 0.91734 0.0
H770 H 0.81986 0.58174 0.96306 0.0
H771 H 0.7708 0.5031 0.98919 0.0
H772 H 0.81372 0.52409 0.1609 0.0
H773 H 0.78572 0.52372 0.08809 0.0
H774 H 0.84852 0.56142 0.97717 0.0
H775 H 0.87632 0.56101 0.0496 0.0
C776 C 0.78651 0.56432 0.91318 0.0
C777 C 0.76426 0.54225 0.89949 0.0
C778 C 0.80307 0.56436 0.9534 0.0
C779 C 0.79764 0.54245 0.98219 0.0
C780 C 0.77547 0.52039 0.96851 0.0
C781 C 0.75925 0.52023 0.92739 0.0
C782 C 0.82149 0.5322 0.12087 0.0
C783 C 0.84722 0.54254 0.11097 0.0
C784 C 0.80546 0.53194 0.07908 0.0
C785 C 0.81481 0.54257 0.02661 0.0
C786 C 0.84066 0.5532 0.01706 0.0
C787 C 0.85658 0.5529 0.05845 0.0
H788 H 0.23361 0.77037 0.4056 0.0
H789 H 0.28583 0.74578 0.3679 0.0
H790 H 0.26023 0.79579 0.48188 0.0
H791 H 0.31338 0.77215 0.44147 0.0
H792 H 0.34982 0.80368 0.60653 0.0
H793 H 0.32181 0.77805 0.53309 0.0
H794 H 0.29497 0.83009 0.5159 0.0
H795 H 0.32229 0.85489 0.59199 0.0
C796 C 0.25108 0.77079 0.4131 0.0
C797 C 0.25763 0.75612 0.38051 0.0
C798 C 0.26655 0.7855 0.45692 0.0
C799 C 0.28931 0.78631 0.46916 0.0
C800 C 0.29591 0.77186 0.4353 0.0
C801 C 0.28022 0.75684 0.39229 0.0
C802 C 0.33787 0.80959 0.58709 0.0
C803 C 0.33839 0.8314 0.60519 0.0
C804 C 0.3218 0.79494 0.54423 0.0
C805 C 0.30595 0.8018 0.51686 0.0
C806 C 0.3064 0.82365 0.53567 0.0
C807 C 0.32221 0.83808 0.57941 0.0
H808 H 0.53985 0.33023 0.07494 0.0
H809 H 0.52214 0.27493 0.20171 0.0
H810 H 0.54075 0.30259 1.00606 0.0
H811 H 0.5199 0.24559 0.13134 0.0
H812 H 0.53926 0.20365 1.00381 0.0
H813 H 0.53802 0.2308 0.07413 0.0
H814 H 0.5236 0.27119 0.94706 0.0
H815 H 0.52817 0.24589 0.87657 0.0
C816 C 0.53618 0.31208 0.08837 0.0
C817 C 0.53173 0.30534 0.14474 0.0
C818 C 0.536 0.29566 0.04801 0.0
C819 C 0.53044 0.27128 0.06172 0.0
C820 C 0.52491 0.26417 0.11813 0.0
C821 C 0.52574 0.28096 0.15891 0.0
C822 C 0.53663 0.21877 0.99045 0.0
C823 C 0.5345 0.22271 0.93363 0.0
C824 C 0.53523 0.23421 0.03151 0.0
C825 C 0.53093 0.25388 0.01766 0.0
C826 C 0.52773 0.25705 0.96069 0.0
C827 C 0.52983 0.24203 0.91964 0.0
H828 H 0.31245 0.48626 0.41249 0.0
H829 H 0.36401 0.56224 0.45986 0.0
H830 H 0.28228 0.48466 0.48027 0.0
H831 H 0.33439 0.55994 0.53037 0.0
H832 H 0.28136 0.53315 0.68868 0.0
H833 H 0.31226 0.53417 0.62246 0.0
H834 H 0.25674 0.50797 0.493 0.0
H835 H 0.2263 0.50775 0.55862 0.0
C836 C 0.31743 0.50272 0.437 0.0
C837 C 0.34083 0.52447 0.42978 0.0
C838 C 0.30012 0.50168 0.4764 0.0
C839 C 0.30585 0.52214 0.51106 0.0
C840 C 0.32941 0.54372 0.50488 0.0
C841 C 0.3465 0.54497 0.46448 0.0
C842 C 0.27578 0.52743 0.64617 0.0
C843 C 0.25134 0.52023 0.62898 0.0
C844 C 0.2935 0.52818 0.60812 0.0
C845 C 0.28704 0.52114 0.55224 0.0
C846 C 0.26238 0.51337 0.53563 0.0
C847 C 0.24492 0.51324 0.57324 0.0
H848 H 0.72888 0.24841 0.07781 0.0
H849 H 0.77755 0.21898 0.11294 0.0
H850 H 0.75736 0.27469 1.00522 0.0
H851 H 0.80701 0.24681 0.04278 0.0
H852 H 0.86351 0.32425 0.95458 0.0
H853 H 0.83511 0.29569 0.02579 0.0
H854 H 0.77407 0.2682 0.90943 0.0
H855 H 0.80271 0.29621 0.83786 0.0
C856 C 0.74549 0.24726 0.06997 0.0
C857 C 0.75049 0.23109 0.10146 0.0
C858 C 0.76201 0.26262 0.02843 0.0
C859 C 0.78453 0.26291 0.0178 0.0
C860 C 0.78993 0.24722 0.04996 0.0
C861 C 0.77305 0.23135 0.09067 0.0
C862 C 0.84407 0.31192 0.94416 0.0
C863 C 0.83538 0.31246 0.89053 0.0
C864 C 0.8278 0.29551 0.9849 0.0
C865 C 0.80222 0.27961 0.97357 0.0
C866 C 0.79358 0.28022 0.91981 0.0
C867 C 0.80999 0.29619 0.8787 0.0
H868 H 0.58988 0.84235 0.41694 0.0
H869 H 0.51113 0.81129 0.44761 0.0
H870 H 0.59129 0.81448 0.48608 0.0
H871 H 0.51288 0.78553 0.52067 0.0
H872 H 0.51455 0.72519 0.62091 0.0
H873 H 0.51381 0.75157 0.54788 0.0
H874 H 0.5923 0.80345 0.57512 0.0
H875 H 0.59337 0.77543 0.64413 0.0
C876 C 0.57281 0.82963 0.43846 0.0
C877 C 0.55038 0.82926 0.42605 0.0
C878 C 0.57368 0.8138 0.47934 0.0
C879 C 0.55221 0.7973 0.51023 0.0
C880 C 0.52987 0.79728 0.49792 0.0
C881 C 0.52894 0.81267 0.45633 0.0
C882 C 0.53181 0.74196 0.61066 0.0
C883 C 0.55404 0.74786 0.6388 0.0
C884 C 0.53132 0.7576 0.56904 0.0
C885 C 0.55296 0.78023 0.55462 0.0
C886 C 0.57518 0.78624 0.58347 0.0
C887 C 0.57574 0.77026 0.62432 0.0
H888 H 0.41688 0.46265 0.19572 0.0
H889 H 0.44777 0.48743 0.35943 0.0
H890 H 0.43667 0.43686 0.191 0.0
H891 H 0.46692 0.46128 0.35507 0.0
H892 H 0.47466 0.39111 0.3466 0.0
H893 H 0.45124 0.4132 0.34754 0.0
H894 H 0.4846 0.44786 0.19143 0.0
H895 H 0.50858 0.42614 0.19079 0.0
C896 C 0.42756 0.46231 0.23095 0.0
C897 C 0.43072 0.47706 0.27798 0.0
C898 C 0.439 0.4477 0.22807 0.0
C899 C 0.45331 0.44708 0.27268 0.0
C900 C 0.45586 0.46127 0.32023 0.0
C901 C 0.44493 0.47628 0.32263 0.0
C902 C 0.47688 0.40324 0.31214 0.0
C903 C 0.4936 0.40692 0.26869 0.0
C904 C 0.46351 0.41596 0.31286 0.0
C905 C 0.46614 0.43226 0.26964 0.0
C906 C 0.48212 0.43528 0.22513 0.0
C907 C 0.49591 0.42294 0.22492 0.0
H908 H 0.1055 0.46028 0.82906 0.0
H909 H 0.10246 0.489 0.6679 0.0
H910 H 0.05996 0.43414 0.82905 0.0
H911 H 0.05691 0.4624 0.66761 0.0
H912 H 0.97704 0.39207 0.67039 0.0
H913 H 1.02288 0.41443 0.66928 0.0
H914 H 1.02412 0.44498 0.83081 0.0
H915 H 0.97849 0.42321 0.83155 0.0
C916 C 0.09517 0.46082 0.79335 0.0
C917 C 0.10766 0.47684 0.74856 0.0
C918 C 0.06908 0.4459 0.79349 0.0
C919 C 0.05488 0.44622 0.74834 0.0
C920 C 0.06738 0.46163 0.7028 0.0
C921 C 0.09345 0.47696 0.70313 0.0
C922 C 0.9871 0.40333 0.70592 0.0
C923 C 0.97408 0.40584 0.75106 0.0
C924 C 1.01332 0.41625 0.70509 0.0
C925 C 1.02707 0.43147 0.74993 0.0
C926 C 1.01404 0.43327 0.79583 0.0
C927 C 0.9879 0.42083 0.79615 0.0
H928 H 0.6588 0.09519 0.32654 0.0
H929 H 0.62325 0.08919 0.16869 0.0
H930 H 0.63531 0.04993 0.33634 0.0
H931 H 0.60021 0.04355 0.17802 0.0
H932 H 0.59413 0.96388 0.19625 0.0
H933 H 0.61529 1.00914 0.18585 0.0
H934 H 0.58604 1.01511 0.34392 0.0
H935 H 0.5641 0.96956 0.35384 0.0
C936 C 0.64609 0.08421 0.29367 0.0
C937 C 0.643 0.09586 0.24664 0.0
C938 C 0.63252 0.05828 0.29959 0.0
C939 C 0.6159 0.04324 0.25808 0.0
C940 C 0.61293 0.05474 0.21066 0.0
C941 C 0.62608 0.08083 0.20534 0.0
C942 C 0.59217 0.97479 0.22892 0.0
C943 C 0.57748 0.96306 0.27608 0.0
C944 C 0.60415 1.0007 0.22265 0.0
C945 C 0.60224 1.01562 0.26393 0.0
C946 C 0.58782 1.00402 0.31144 0.0
C947 C 0.57528 0.97798 0.31711 0.0
H948 H 0.57125 0.62026 0.74429 0.0
H949 H 0.63451 0.68543 0.8146 0.0
H950 H 0.59463 0.59836 0.74593 0.0
H951 H 0.65812 0.66326 0.81569 0.0
H952 H 0.69687 0.61915 0.74484 0.0
H953 H 0.67599 0.64388 0.74707 0.0
H954 H 0.61104 0.58196 0.82111 0.0
H955 H 0.63178 0.55733 0.81935 0.0
C956 C 0.59023 0.63004 0.75979 0.0
C957 C 0.60093 0.65468 0.77944 0.0
C958 C 0.60358 0.61736 0.76106 0.0
C959 C 0.62815 0.62897 0.78141 0.0
C960 C 0.63922 0.65383 0.7997 0.0
C961 C 0.62568 0.66649 0.79917 0.0
C962 C 0.67822 0.61088 0.76207 0.0
C963 C 0.666 0.58616 0.7817 0.0
C964 C 0.66632 0.6251 0.76352 0.0
C965 C 0.64179 0.61481 0.78384 0.0
C966 C 0.62983 0.59033 0.80458 0.0
C967 C 0.6418 0.57625 0.80384 0.0
H968 H 0.11471 0.64494 0.33266 0.0
H969 H 0.11366 0.67992 0.17864 0.0
H970 H 0.06902 0.62396 0.33688 0.0
H971 H 0.068 0.65845 0.18241 0.0
H972 H 0.98969 0.58315 0.17772 0.0
H973 H 1.03508 0.60982 0.1772 0.0
H974 H 1.03239 0.63563 0.34185 0.0
H975 H 0.98665 0.60934 0.34195 0.0
C976 C 0.10477 0.64833 0.29998 0.0
C977 C 0.11786 0.66408 0.25524 0.0
C978 C 0.07864 0.6364 0.30257 0.0
C979 C 0.065 0.63955 0.25991 0.0
C980 C 0.07806 0.65565 0.21577 0.0
C981 C 0.10421 0.668 0.21377 0.0
C982 C 0.9987 0.59473 0.21359 0.0
C983 C 0.98455 0.59415 0.25986 0.0
C984 C 1.02469 0.61005 0.21318 0.0
C985 C 1.03724 0.62477 0.25948 0.0
C986 C 1.02315 0.62442 0.30566 0.0
C987 C 0.99701 0.60949 0.30557 0.0
H988 H 0.46965 0.96761 0.67588 0.0
H989 H 0.43518 0.96481 0.83357 0.0
H990 H 0.49485 1.01324 0.68373 0.0
H991 H 0.46078 1.01001 0.84194 0.0
H992 H 0.53191 0.09002 0.8555 0.0
H993 H 0.51047 0.04431 0.8478 0.0
H994 H 0.48064 0.04821 0.68894 0.0
H995 H 0.50121 0.09345 0.69715 0.0
C996 C 0.4676 0.97667 0.71228 0.0
C997 C 0.45025 0.96259 0.7538 0.0
C998 C 0.482 1.00273 0.7168 0.0
C999 C 0.47986 1.0151 0.76366 0.0
C1000 C 0.46299 1.00096 0.80567 0.0
C1001 C 0.44818 0.97509 0.80053 0.0
C1002 C 0.52083 0.08108 0.81895 0.0
C1003 C 0.51811 0.09535 0.77721 0.0
C1004 C 0.50857 0.05498 0.81455 0.0
C1005 C 0.49401 0.04277 0.76758 0.0
C1006 C 0.4919 0.05712 0.7253 0.0
C1007 C 0.50354 0.08302 0.73033 0.0
loop_
_geom_bond_atom_site_label_1
_geom_bond_atom_site_label_2
_geom_bond_distance
_geom_bond_site_symmetry_2
_ccdc_geom_bond_type
Co0 O3 1.970 . S
Co0 N17 1.989 . S
Co0 O25 1.967 . S
Co0 O32 1.920 . S
Co1 O4 1.966 . S
Co1 N10 2.022 . S
Co1 N18 1.993 . S
Co1 O26 1.941 . S
C2 O3 1.258 . S
C2 O4 1.263 . S
O3 Co0 1.970 . S
O3 C2 1.258 . S
O4 Co1 1.966 . S
O4 C2 1.263 . S
C5 O6 1.235 . S
C5 O32 1.289 . S
O6 C5 1.235 . S
C7 C9 1.400 . S
C7 N10 1.351 . S
C7 C12 1.501 . S
C8 C9 1.387 . S
C8 N11 1.341 . S
C9 C7 1.400 . S
C9 C8 1.387 . S
N10 Co1 2.022 . S
N10 C7 1.351 . S
N10 N11 1.365 . S
N11 C8 1.341 . S
N11 N10 1.365 . S
N11 H31 0.862 . S
C12 C7 1.501 . S
C12 H13 0.961 . S
C12 H14 0.961 . S
C12 H15 0.960 . S
H13 C12 0.961 . S
H14 C12 0.961 . S
H15 C12 0.960 . S
C16 N17 1.342 . S
C16 C20 1.401 . S
C16 C21 1.499 . S
N17 Co0 1.989 . S
N17 C16 1.342 . S
N17 N18 1.388 . S
N18 Co1 1.993 . S
N18 N17 1.388 . S
N18 C19 1.346 . S
C19 N18 1.346 . S
C19 C20 1.396 . S
C19 C29 1.510 . S
C20 C16 1.401 . S
C20 C19 1.396 . S
C21 C16 1.499 . S
C21 H22 0.959 . S
C21 H23 0.960 . S
C21 H24 0.961 . S
H22 C21 0.959 . S
H23 C21 0.960 . S
H24 C21 0.961 . S
O25 Co0 1.967 . S
O25 C33 1.258 . S
O26 Co1 1.941 . S
O26 C33 1.266 . S
H27 C29 0.959 . S
H28 C29 0.961 . S
C29 C19 1.510 . S
C29 H27 0.959 . S
C29 H28 0.961 . S
C29 H30 0.960 . S
H30 C29 0.960 . S
H31 N11 0.862 . S
O32 Co0 1.920 . S
O32 C5 1.289 . S
C33 O25 1.258 . S
C33 O26 1.266 . S
Co34 O37 1.970 . S
Co34 N51 1.989 . S
Co34 O59 1.967 . S
Co34 O66 1.920 . S
Co35 O38 1.966 . S
Co35 N44 2.022 . S
Co35 N52 1.993 . S
Co35 O60 1.941 . S
C36 O37 1.258 . S
C36 O38 1.263 . S
O37 Co34 1.970 . S
O37 C36 1.258 . S
O38 Co35 1.966 . S
O38 C36 1.263 . S
C39 O40 1.235 . S
C39 O66 1.289 . S
O40 C39 1.235 . S
C41 C43 1.400 . S
C41 N44 1.351 . S
C41 C46 1.501 . S
C42 C43 1.387 . S
C42 N45 1.341 . S
C43 C41 1.400 . S
C43 C42 1.387 . S
N44 Co35 2.022 . S
N44 C41 1.351 . S
N44 N45 1.365 . S
N45 C42 1.341 . S
N45 N44 1.365 . S
N45 H65 0.862 . S
C46 C41 1.501 . S
C46 H47 0.961 . S
C46 H48 0.961 . S
C46 H49 0.960 . S
H47 C46 0.961 . S
H48 C46 0.961 . S
H49 C46 0.960 . S
C50 N51 1.342 . S
C50 C54 1.401 . S
C50 C55 1.499 . S
N51 Co34 1.989 . S
N51 C50 1.342 . S
N51 N52 1.388 . S
N52 Co35 1.993 . S
N52 N51 1.388 . S
N52 C53 1.346 . S
C53 N52 1.346 . S
C53 C54 1.396 . S
C53 C63 1.510 . S
C54 C50 1.401 . S
C54 C53 1.396 . S
C55 C50 1.499 . S
C55 H56 0.959 . S
C55 H57 0.960 . S
C55 H58 0.961 . S
H56 C55 0.959 . S
H57 C55 0.960 . S
H58 C55 0.961 . S
O59 Co34 1.967 . S
O59 C67 1.258 . S
O60 Co35 1.941 . S
O60 C67 1.266 . S
H61 C63 0.959 . S
H62 C63 0.961 . S
C63 C53 1.510 . S
C63 H61 0.959 . S
C63 H62 0.961 . S
C63 H64 0.960 . S
H64 C63 0.960 . S
H65 N45 0.862 . S
O66 Co34 1.920 . S
O66 C39 1.289 . S
C67 O59 1.258 . S
C67 O60 1.266 . S
Co68 O71 1.970 . S
Co68 N85 1.989 . S
Co68 O93 1.967 . S
Co68 O100 1.920 . S
Co69 O72 1.966 . S
Co69 N78 2.022 . S
Co69 N86 1.993 . S
Co69 O94 1.941 . S
C70 O71 1.258 . S
C70 O72 1.263 . S
O71 Co68 1.970 . S
O71 C70 1.258 . S
O72 Co69 1.966 . S
O72 C70 1.263 . S
C73 O74 1.235 . S
C73 O100 1.289 . S
O74 C73 1.235 . S
C75 C77 1.400 . S
C75 N78 1.351 . S
C75 C80 1.501 . S
C76 C77 1.387 . S
C76 N79 1.341 . S
C77 C75 1.400 . S
C77 C76 1.387 . S
N78 Co69 2.022 . S
N78 C75 1.351 . S
N78 N79 1.365 . S
N79 C76 1.341 . S
N79 N78 1.365 . S
N79 H99 0.862 . S
C80 C75 1.501 . S
C80 H81 0.961 . S
C80 H82 0.961 . S
C80 H83 0.960 . S
H81 C80 0.961 . S
H82 C80 0.961 . S
H83 C80 0.960 . S
C84 N85 1.342 . S
C84 C88 1.401 . S
C84 C89 1.499 . S
N85 Co68 1.989 . S
N85 C84 1.342 . S
N85 N86 1.388 . S
N86 Co69 1.993 . S
N86 N85 1.388 . S
N86 C87 1.346 . S
C87 N86 1.346 . S
C87 C88 1.396 . S
C87 C97 1.510 . S
C88 C84 1.401 . S
C88 C87 1.396 . S
C89 C84 1.499 . S
C89 H90 0.959 . S
C89 H91 0.960 . S
C89 H92 0.961 . S
H90 C89 0.959 . S
H91 C89 0.960 . S
H92 C89 0.961 . S
O93 Co68 1.967 . S
O93 C101 1.258 . S
O94 Co69 1.941 . S
O94 C101 1.266 . S
H95 C97 0.959 . S
H96 C97 0.961 . S
C97 C87 1.510 . S
C97 H95 0.959 . S
C97 H96 0.961 . S
C97 H98 0.960 . S
H98 C97 0.960 . S
H99 N79 0.862 . S
O100 Co68 1.920 . S
O100 C73 1.289 . S
C101 O93 1.258 . S
C101 O94 1.266 . S
Co102 O105 1.970 . S
Co102 N119 1.989 . S
Co102 O127 1.967 . S
Co102 O134 1.920 . S
Co103 O106 1.966 . S
Co103 N112 2.022 . S
Co103 N120 1.993 . S
Co103 O128 1.941 . S
C104 O105 1.258 . S
C104 O106 1.263 . S
O105 Co102 1.970 . S
O105 C104 1.258 . S
O106 Co103 1.966 . S
O106 C104 1.263 . S
C107 O108 1.235 . S
C107 O134 1.289 . S
O108 C107 1.235 . S
C109 C111 1.400 . S
C109 N112 1.351 . S
C109 C114 1.501 . S
C110 C111 1.387 . S
C110 N113 1.341 . S
C111 C109 1.400 . S
C111 C110 1.387 . S
N112 Co103 2.022 . S
N112 C109 1.351 . S
N112 N113 1.365 . S
N113 C110 1.341 . S
N113 N112 1.365 . S
N113 H133 0.862 . S
C114 C109 1.501 . S
C114 H115 0.961 . S
C114 H116 0.961 . S
C114 H117 0.960 . S
H115 C114 0.961 . S
H116 C114 0.961 . S
H117 C114 0.960 . S
C118 N119 1.342 . S
C118 C122 1.401 . S
C118 C123 1.499 . S
N119 Co102 1.989 . S
N119 C118 1.342 . S
N119 N120 1.388 . S
N120 Co103 1.993 . S
N120 N119 1.388 . S
N120 C121 1.346 . S
C121 N120 1.346 . S
C121 C122 1.396 . S
C121 C131 1.510 . S
C122 C118 1.401 . S
C122 C121 1.396 . S
C123 C118 1.499 . S
C123 H124 0.959 . S
C123 H125 0.960 . S
C123 H126 0.961 . S
H124 C123 0.959 . S
H125 C123 0.960 . S
H126 C123 0.961 . S
O127 Co102 1.967 . S
O127 C135 1.258 . S
O128 Co103 1.941 . S
O128 C135 1.266 . S
H129 C131 0.959 . S
H130 C131 0.961 . S
C131 C121 1.510 . S
C131 H129 0.959 . S
C131 H130 0.961 . S
C131 H132 0.960 . S
H132 C131 0.960 . S
H133 N113 0.862 . S
O134 Co102 1.920 . S
O134 C107 1.289 . S
C135 O127 1.258 . S
C135 O128 1.266 . S
Co136 O139 1.970 . S
Co136 N153 1.989 . S
Co136 O161 1.967 . S
Co136 O168 1.920 . S
Co137 O140 1.966 . S
Co137 N146 2.022 . S
Co137 N154 1.993 . S
Co137 O162 1.941 . S
C138 O139 1.258 . S
C138 O140 1.263 . S
O139 Co136 1.970 . S
O139 C138 1.258 . S
O140 Co137 1.966 . S
O140 C138 1.263 . S
C141 O142 1.235 . S
C141 O168 1.289 . S
O142 C141 1.235 . S
C143 C145 1.400 . S
C143 N146 1.351 . S
C143 C148 1.501 . S
C144 C145 1.387 . S
C144 N147 1.341 . S
C145 C143 1.400 . S
C145 C144 1.387 . S
N146 Co137 2.022 . S
N146 C143 1.351 . S
N146 N147 1.365 . S
N147 C144 1.341 . S
N147 N146 1.365 . S
N147 H167 0.862 . S
C148 C143 1.501 . S
C148 H149 0.961 . S
C148 H150 0.961 . S
C148 H151 0.960 . S
H149 C148 0.961 . S
H150 C148 0.961 . S
H151 C148 0.960 . S
C152 N153 1.342 . S
C152 C156 1.401 . S
C152 C157 1.499 . S
N153 Co136 1.989 . S
N153 C152 1.342 . S
N153 N154 1.388 . S
N154 Co137 1.993 . S
N154 N153 1.388 . S
N154 C155 1.346 . S
C155 N154 1.346 . S
C155 C156 1.396 . S
C155 C165 1.510 . S
C156 C152 1.401 . S
C156 C155 1.396 . S
C157 C152 1.499 . S
C157 H158 0.959 . S
C157 H159 0.960 . S
C157 H160 0.961 . S
H158 C157 0.959 . S
H159 C157 0.960 . S
H160 C157 0.961 . S
O161 Co136 1.967 . S
O161 C169 1.258 . S
O162 Co137 1.941 . S
O162 C169 1.266 . S
H163 C165 0.959 . S
H164 C165 0.961 . S
C165 C155 1.510 . S
C165 H163 0.959 . S
C165 H164 0.961 . S
C165 H166 0.960 . S
H166 C165 0.960 . S
H167 N147 0.862 . S
O168 Co136 1.920 . S
O168 C141 1.289 . S
C169 O161 1.258 . S
C169 O162 1.266 . S
Co170 O173 1.970 . S
Co170 N187 1.989 . S
Co170 O195 1.967 . S
Co170 O202 1.920 . S
Co171 O174 1.966 . S
Co171 N180 2.022 . S
Co171 N188 1.993 . S
Co171 O196 1.941 . S
C172 O173 1.258 . S
C172 O174 1.263 . S
O173 Co170 1.970 . S
O173 C172 1.258 . S
O174 Co171 1.966 . S
O174 C172 1.263 . S
C175 O176 1.235 . S
C175 O202 1.289 . S
O176 C175 1.235 . S
C177 C179 1.400 . S
C177 N180 1.351 . S
C177 C182 1.501 . S
C178 C179 1.387 . S
C178 N181 1.341 . S
C179 C177 1.400 . S
C179 C178 1.387 . S
N180 Co171 2.022 . S
N180 C177 1.351 . S
N180 N181 1.365 . S
N181 C178 1.341 . S
N181 N180 1.365 . S
N181 H201 0.862 . S
C182 C177 1.501 . S
C182 H183 0.961 . S
C182 H184 0.961 . S
C182 H185 0.960 . S
H183 C182 0.961 . S
H184 C182 0.961 . S
H185 C182 0.960 . S
C186 N187 1.342 . S
C186 C190 1.401 . S
C186 C191 1.499 . S
N187 Co170 1.989 . S
N187 C186 1.342 . S
N187 N188 1.388 . S
N188 Co171 1.993 . S
N188 N187 1.388 . S
N188 C189 1.346 . S
C189 N188 1.346 . S
C189 C190 1.396 . S
C189 C199 1.510 . S
C190 C186 1.401 . S
C190 C189 1.396 . S
C191 C186 1.499 . S
C191 H192 0.959 . S
C191 H193 0.960 . S
C191 H194 0.961 . S
H192 C191 0.959 . S
H193 C191 0.960 . S
H194 C191 0.961 . S
O195 Co170 1.967 . S
O195 C203 1.258 . S
O196 Co171 1.941 . S
O196 C203 1.266 . S
H197 C199 0.959 . S
H198 C199 0.961 . S
C199 C189 1.510 . S
C199 H197 0.959 . S
C199 H198 0.961 . S
C199 H200 0.960 . S
H200 C199 0.960 . S
H201 N181 0.862 . S
O202 Co170 1.920 . S
O202 C175 1.289 . S
C203 O195 1.258 . S
C203 O196 1.266 . S
Co204 O207 1.970 . S
Co204 N221 1.989 . S
Co204 O229 1.967 . S
Co204 O236 1.920 . S
Co205 O208 1.966 . S
Co205 N214 2.022 . S
Co205 N222 1.993 . S
Co205 O230 1.941 . S
C206 O207 1.258 . S
C206 O208 1.263 . S
O207 Co204 1.970 . S
O207 C206 1.258 . S
O208 Co205 1.966 . S
O208 C206 1.263 . S
C209 O210 1.235 . S
C209 O236 1.289 . S
O210 C209 1.235 . S
C211 C213 1.400 . S
C211 N214 1.351 . S
C211 C216 1.501 . S
C212 C213 1.387 . S
C212 N215 1.341 . S
C213 C211 1.400 . S
C213 C212 1.387 . S
N214 Co205 2.022 . S
N214 C211 1.351 . S
N214 N215 1.365 . S
N215 C212 1.341 . S
N215 N214 1.365 . S
N215 H235 0.862 . S
C216 C211 1.501 . S
C216 H217 0.961 . S
C216 H218 0.961 . S
C216 H219 0.960 . S
H217 C216 0.961 . S
H218 C216 0.961 . S
H219 C216 0.960 . S
C220 N221 1.342 . S
C220 C224 1.401 . S
C220 C225 1.499 . S
N221 Co204 1.989 . S
N221 C220 1.342 . S
N221 N222 1.388 . S
N222 Co205 1.993 . S
N222 N221 1.388 . S
N222 C223 1.346 . S
C223 N222 1.346 . S
C223 C224 1.396 . S
C223 C233 1.510 . S
C224 C220 1.401 . S
C224 C223 1.396 . S
C225 C220 1.499 . S
C225 H226 0.959 . S
C225 H227 0.960 . S
C225 H228 0.961 . S
H226 C225 0.959 . S
H227 C225 0.960 . S
H228 C225 0.961 . S
O229 Co204 1.967 . S
O229 C237 1.258 . S
O230 Co205 1.941 . S
O230 C237 1.266 . S
H231 C233 0.959 . S
H232 C233 0.961 . S
C233 C223 1.510 . S
C233 H231 0.959 . S
C233 H232 0.961 . S
C233 H234 0.960 . S
H234 C233 0.960 . S
H235 N215 0.862 . S
O236 Co204 1.920 . S
O236 C209 1.289 . S
C237 O229 1.258 . S
C237 O230 1.266 . S
Co238 O241 1.970 . S
Co238 N255 1.989 . S
Co238 O263 1.967 . S
Co238 O270 1.920 . S
Co239 O242 1.966 . S
Co239 N248 2.022 . S
Co239 N256 1.993 . S
Co239 O264 1.941 . S
C240 O241 1.258 . S
C240 O242 1.263 . S
O241 Co238 1.970 . S
O241 C240 1.258 . S
O242 Co239 1.966 . S
O242 C240 1.263 . S
C243 O244 1.235 . S
C243 O270 1.289 . S
O244 C243 1.235 . S
C245 C247 1.400 . S
C245 N248 1.351 . S
C245 C250 1.501 . S
C246 C247 1.387 . S
C246 N249 1.341 . S
C247 C245 1.400 . S
C247 C246 1.387 . S
N248 Co239 2.022 . S
N248 C245 1.351 . S
N248 N249 1.365 . S
N249 C246 1.341 . S
N249 N248 1.365 . S
N249 H269 0.862 . S
C250 C245 1.501 . S
C250 H251 0.961 . S
C250 H252 0.961 . S
C250 H253 0.960 . S
H251 C250 0.961 . S
H252 C250 0.961 . S
H253 C250 0.960 . S
C254 N255 1.342 . S
C254 C258 1.401 . S
C254 C259 1.499 . S
N255 Co238 1.989 . S
N255 C254 1.342 . S
N255 N256 1.388 . S
N256 Co239 1.993 . S
N256 N255 1.388 . S
N256 C257 1.346 . S
C257 N256 1.346 . S
C257 C258 1.396 . S
C257 C267 1.510 . S
C258 C254 1.401 . S
C258 C257 1.396 . S
C259 C254 1.499 . S
C259 H260 0.959 . S
C259 H261 0.960 . S
C259 H262 0.961 . S
H260 C259 0.959 . S
H261 C259 0.960 . S
H262 C259 0.961 . S
O263 Co238 1.967 . S
O263 C271 1.258 . S
O264 Co239 1.941 . S
O264 C271 1.266 . S
H265 C267 0.959 . S
H266 C267 0.961 . S
C267 C257 1.510 . S
C267 H265 0.959 . S
C267 H266 0.961 . S
C267 H268 0.960 . S
H268 C267 0.960 . S
H269 N249 0.862 . S
O270 Co238 1.920 . S
O270 C243 1.289 . S
C271 O263 1.258 . S
C271 O264 1.266 . S
Co272 O275 1.970 . S
Co272 N289 1.989 . S
Co272 O297 1.967 . S
Co272 O304 1.920 . S
Co273 O276 1.966 . S
Co273 N282 2.022 . S
Co273 N290 1.993 . S
Co273 O298 1.941 . S
C274 O275 1.258 . S
C274 O276 1.263 . S
O275 Co272 1.970 . S
O275 C274 1.258 . S
O276 Co273 1.966 . S
O276 C274 1.263 . S
C277 O278 1.235 . S
C277 O304 1.289 . S
O278 C277 1.235 . S
C279 C281 1.400 . S
C279 N282 1.351 . S
C279 C284 1.501 . S
C280 C281 1.387 . S
C280 N283 1.341 . S
C281 C279 1.400 . S
C281 C280 1.387 . S
N282 Co273 2.022 . S
N282 C279 1.351 . S
N282 N283 1.365 . S
N283 C280 1.341 . S
N283 N282 1.365 . S
N283 H303 0.862 . S
C284 C279 1.501 . S
C284 H285 0.961 . S
C284 H286 0.961 . S
C284 H287 0.960 . S
H285 C284 0.961 . S
H286 C284 0.961 . S
H287 C284 0.960 . S
C288 N289 1.342 . S
C288 C292 1.401 . S
C288 C293 1.499 . S
N289 Co272 1.989 . S
N289 C288 1.342 . S
N289 N290 1.388 . S
N290 Co273 1.993 . S
N290 N289 1.388 . S
N290 C291 1.346 . S
C291 N290 1.346 . S
C291 C292 1.396 . S
C291 C301 1.510 . S
C292 C288 1.401 . S
C292 C291 1.396 . S
C293 C288 1.499 . S
C293 H294 0.959 . S
C293 H295 0.960 . S
C293 H296 0.961 . S
H294 C293 0.959 . S
H295 C293 0.960 . S
H296 C293 0.961 . S
O297 Co272 1.967 . S
O297 C305 1.258 . S
O298 Co273 1.941 . S
O298 C305 1.266 . S
H299 C301 0.959 . S
H300 C301 0.961 . S
C301 C291 1.510 . S
C301 H299 0.959 . S
C301 H300 0.961 . S
C301 H302 0.960 . S
H302 C301 0.960 . S
H303 N283 0.862 . S
O304 Co272 1.920 . S
O304 C277 1.289 . S
C305 O297 1.258 . S
C305 O298 1.266 . S
Co306 O309 1.970 . S
Co306 N323 1.989 . S
Co306 O331 1.967 . S
Co306 O338 1.920 . S
Co307 O310 1.966 . S
Co307 N316 2.022 . S
Co307 N324 1.993 . S
Co307 O332 1.941 . S
C308 O309 1.258 . S
C308 O310 1.263 . S
O309 Co306 1.970 . S
O309 C308 1.258 . S
O310 Co307 1.966 . S
O310 C308 1.263 . S
C311 O312 1.235 . S
C311 O338 1.289 . S
O312 C311 1.235 . S
C313 C315 1.400 . S
C313 N316 1.351 . S
C313 C318 1.501 . S
C314 C315 1.387 . S
C314 N317 1.341 . S
C315 C313 1.400 . S
C315 C314 1.387 . S
N316 Co307 2.022 . S
N316 C313 1.351 . S
N316 N317 1.365 . S
N317 C314 1.341 . S
N317 N316 1.365 . S
N317 H337 0.862 . S
C318 C313 1.501 . S
C318 H319 0.961 . S
C318 H320 0.961 . S
C318 H321 0.960 . S
H319 C318 0.961 . S
H320 C318 0.961 . S
H321 C318 0.960 . S
C322 N323 1.342 . S
C322 C326 1.401 . S
C322 C327 1.499 . S
N323 Co306 1.989 . S
N323 C322 1.342 . S
N323 N324 1.388 . S
N324 Co307 1.993 . S
N324 N323 1.388 . S
N324 C325 1.346 . S
C325 N324 1.346 . S
C325 C326 1.396 . S
C325 C335 1.510 . S
C326 C322 1.401 . S
C326 C325 1.396 . S
C327 C322 1.499 . S
C327 H328 0.959 . S
C327 H329 0.960 . S
C327 H330 0.961 . S
H328 C327 0.959 . S
H329 C327 0.960 . S
H330 C327 0.961 . S
O331 Co306 1.967 . S
O331 C339 1.258 . S
O332 Co307 1.941 . S
O332 C339 1.266 . S
H333 C335 0.959 . S
H334 C335 0.961 . S
C335 C325 1.510 . S
C335 H333 0.959 . S
C335 H334 0.961 . S
C335 H336 0.960 . S
H336 C335 0.960 . S
H337 N317 0.862 . S
O338 Co306 1.920 . S
O338 C311 1.289 . S
C339 O331 1.258 . S
C339 O332 1.266 . S
Co340 O343 1.970 . S
Co340 N357 1.989 . S
Co340 O365 1.967 . S
Co340 O372 1.920 . S
Co341 O344 1.966 . S
Co341 N350 2.022 . S
Co341 N358 1.993 . S
Co341 O366 1.941 . S
C342 O343 1.258 . S
C342 O344 1.263 . S
O343 Co340 1.970 . S
O343 C342 1.258 . S
O344 Co341 1.966 . S
O344 C342 1.263 . S
C345 O346 1.235 . S
C345 O372 1.289 . S
O346 C345 1.235 . S
C347 C349 1.400 . S
C347 N350 1.351 . S
C347 C352 1.501 . S
C348 C349 1.387 . S
C348 N351 1.341 . S
C349 C347 1.400 . S
C349 C348 1.387 . S
N350 Co341 2.022 . S
N350 C347 1.351 . S
N350 N351 1.365 . S
N351 C348 1.341 . S
N351 N350 1.365 . S
N351 H371 0.862 . S
C352 C347 1.501 . S
C352 H353 0.961 . S
C352 H354 0.961 . S
C352 H355 0.960 . S
H353 C352 0.961 . S
H354 C352 0.961 . S
H355 C352 0.960 . S
C356 N357 1.342 . S
C356 C360 1.401 . S
C356 C361 1.499 . S
N357 Co340 1.989 . S
N357 C356 1.342 . S
N357 N358 1.388 . S
N358 Co341 1.993 . S
N358 N357 1.388 . S
N358 C359 1.346 . S
C359 N358 1.346 . S
C359 C360 1.396 . S
C359 C369 1.510 . S
C360 C356 1.401 . S
C360 C359 1.396 . S
C361 C356 1.499 . S
C361 H362 0.959 . S
C361 H363 0.960 . S
C361 H364 0.961 . S
H362 C361 0.959 . S
H363 C361 0.960 . S
H364 C361 0.961 . S
O365 Co340 1.967 . S
O365 C373 1.258 . S
O366 Co341 1.941 . S
O366 C373 1.266 . S
H367 C369 0.959 . S
H368 C369 0.961 . S
C369 C359 1.510 . S
C369 H367 0.959 . S
C369 H368 0.961 . S
C369 H370 0.960 . S
H370 C369 0.960 . S
H371 N351 0.862 . S
O372 Co340 1.920 . S
O372 C345 1.289 . S
C373 O365 1.258 . S
C373 O366 1.266 . S
Co374 O377 1.970 . S
Co374 N391 1.989 . S
Co374 O399 1.967 . S
Co374 O406 1.920 . S
Co375 O378 1.966 . S
Co375 N384 2.022 . S
Co375 N392 1.993 . S
Co375 O400 1.941 . S
C376 O377 1.258 . S
C376 O378 1.263 . S
O377 Co374 1.970 . S
O377 C376 1.258 . S
O378 Co375 1.966 . S
O378 C376 1.263 . S
C379 O380 1.235 . S
C379 O406 1.289 . S
O380 C379 1.235 . S
C381 C383 1.400 . S
C381 N384 1.351 . S
C381 C386 1.501 . S
C382 C383 1.387 . S
C382 N385 1.341 . S
C383 C381 1.400 . S
C383 C382 1.387 . S
N384 Co375 2.022 . S
N384 C381 1.351 . S
N384 N385 1.365 . S
N385 C382 1.341 . S
N385 N384 1.365 . S
N385 H405 0.862 . S
C386 C381 1.501 . S
C386 H387 0.961 . S
C386 H388 0.961 . S
C386 H389 0.960 . S
H387 C386 0.961 . S
H388 C386 0.961 . S
H389 C386 0.960 . S
C390 N391 1.342 . S
C390 C394 1.401 . S
C390 C395 1.499 . S
N391 Co374 1.989 . S
N391 C390 1.342 . S
N391 N392 1.388 . S
N392 Co375 1.993 . S
N392 N391 1.388 . S
N392 C393 1.346 . S
C393 N392 1.346 . S
C393 C394 1.396 . S
C393 C403 1.510 . S
C394 C390 1.401 . S
C394 C393 1.396 . S
C395 C390 1.499 . S
C395 H396 0.959 . S
C395 H397 0.960 . S
C395 H398 0.961 . S
H396 C395 0.959 . S
H397 C395 0.960 . S
H398 C395 0.961 . S
O399 Co374 1.967 . S
O399 C407 1.258 . S
O400 Co375 1.941 . S
O400 C407 1.266 . S
H401 C403 0.959 . S
H402 C403 0.961 . S
C403 C393 1.510 . S
C403 H401 0.959 . S
C403 H402 0.961 . S
C403 H404 0.960 . S
H404 C403 0.960 . S
H405 N385 0.862 . S
O406 Co374 1.920 . S
O406 C379 1.289 . S
C407 O399 1.258 . S
C407 O400 1.266 . S
H408 C416 0.950 . S
H409 C421 0.950 . S
H410 C418 0.950 . S
H411 C420 0.950 1_556 S
H412 C422 0.950 . S
H413 C424 0.950 . S
H414 C426 0.950 1_554 S
H415 C427 0.950 . S
C416 H408 0.950 . S
C416 C417 1.386 . S
C416 C418 1.391 . S
C417 C416 1.386 . S
C417 C421 1.393 . S
C418 H410 0.950 . S
C418 C416 1.391 . S
C418 C419 1.400 . S
C419 C418 1.400 . S
C419 C420 1.398 . S
C419 C425 1.491 1_554 S
C420 H411 0.950 1_554 S
C420 C419 1.398 . S
C420 C421 1.391 . S
C421 H409 0.950 . S
C421 C417 1.393 . S
C421 C420 1.391 . S
C422 H412 0.950 . S
C422 C423 1.386 . S
C422 C424 1.391 . S
C423 C422 1.386 . S
C423 C427 1.393 . S
C424 H413 0.950 . S
C424 C422 1.391 . S
C424 C425 1.400 . S
C425 C419 1.491 1_556 S
C425 C424 1.400 . S
C425 C426 1.398 . S
C426 H414 0.950 1_556 S
C426 C425 1.398 . S
C426 C427 1.391 . S
C427 H415 0.950 . S
C427 C423 1.393 . S
C427 C426 1.391 . S
H428 C436 0.950 . S
H429 C441 0.950 . S
H430 C438 0.950 . S
H431 C440 0.950 . S
H432 C442 0.950 . S
H433 C444 0.950 . S
H434 C446 0.950 . S
H435 C447 0.950 . S
C436 H428 0.950 . S
C436 C437 1.386 . S
C436 C438 1.391 . S
C437 C436 1.386 . S
C437 C441 1.393 . S
C438 H430 0.950 . S
C438 C436 1.391 . S
C438 C439 1.400 . S
C439 C438 1.400 . S
C439 C440 1.398 . S
C439 C445 1.491 . S
C440 H431 0.950 . S
C440 C439 1.398 . S
C440 C441 1.391 . S
C441 H429 0.950 . S
C441 C437 1.393 . S
C441 C440 1.391 . S
C442 H432 0.950 . S
C442 C443 1.386 . S
C442 C444 1.391 . S
C443 C442 1.386 . S
C443 C447 1.393 . S
C444 H433 0.950 . S
C444 C442 1.391 . S
C444 C445 1.400 . S
C445 C439 1.491 . S
C445 C444 1.400 . S
C445 C446 1.398 . S
C446 H434 0.950 . S
C446 C445 1.398 . S
C446 C447 1.391 . S
C447 H435 0.950 . S
C447 C443 1.393 . S
C447 C446 1.391 . S
H448 C456 0.950 . S
H449 C461 0.950 . S
H450 C458 0.950 . S
H451 C460 0.950 . S
H452 C462 0.950 . S
H453 C464 0.950 . S
H454 C466 0.950 . S
H455 C467 0.950 . S
C456 H448 0.950 . S
C456 C457 1.386 . S
C456 C458 1.391 . S
C457 C456 1.386 . S
C457 C461 1.393 . S
C458 H450 0.950 . S
C458 C456 1.391 . S
C458 C459 1.400 . S
C459 C458 1.400 . S
C459 C460 1.398 . S
C459 C465 1.491 1_554 S
C460 H451 0.950 . S
C460 C459 1.398 . S
C460 C461 1.391 . S
C461 H449 0.950 . S
C461 C457 1.393 . S
C461 C460 1.391 . S
C462 H452 0.950 . S
C462 C463 1.386 . S
C462 C464 1.391 . S
C463 C462 1.386 . S
C463 C467 1.393 . S
C464 H453 0.950 . S
C464 C462 1.391 . S
C464 C465 1.400 . S
C465 C459 1.491 1_556 S
C465 C464 1.400 . S
C465 C466 1.398 . S
C466 H454 0.950 . S
C466 C465 1.398 . S
C466 C467 1.391 . S
C467 H455 0.950 . S
C467 C463 1.393 . S
C467 C466 1.391 . S
H468 C476 0.950 . S
H469 C481 0.950 . S
H470 C478 0.950 . S
H471 C480 0.950 . S
H472 C482 0.950 . S
H473 C484 0.950 . S
H474 C486 0.950 . S
H475 C487 0.950 . S
C476 H468 0.950 . S
C476 C477 1.386 . S
C476 C478 1.391 . S
C477 C476 1.386 . S
C477 C481 1.393 . S
C478 H470 0.950 . S
C478 C476 1.391 . S
C478 C479 1.400 . S
C479 C478 1.400 . S
C479 C480 1.398 . S
C479 C485 1.491 . S
C480 H471 0.950 . S
C480 C479 1.398 . S
C480 C481 1.391 . S
C481 H469 0.950 . S
C481 C477 1.393 . S
C481 C480 1.391 . S
C482 H472 0.950 . S
C482 C483 1.386 . S
C482 C484 1.391 . S
C483 C482 1.386 . S
C483 C487 1.393 . S
C484 H473 0.950 . S
C484 C482 1.391 . S
C484 C485 1.400 . S
C485 C479 1.491 . S
C485 C484 1.400 . S
C485 C486 1.398 . S
C486 H474 0.950 . S
C486 C485 1.398 . S
C486 C487 1.391 . S
C487 H475 0.950 . S
C487 C483 1.393 . S
C487 C486 1.391 . S
H488 C496 0.950 . S
H489 C501 0.950 . S
H490 C498 0.950 1_556 S
H491 C500 0.950 . S
H492 C502 0.950 . S
H493 C504 0.950 1_554 S
H494 C506 0.950 . S
H495 C507 0.950 . S
C496 H488 0.950 . S
C496 C497 1.386 . S
C496 C498 1.391 . S
C497 C496 1.386 . S
C497 C501 1.393 . S
C498 H490 0.950 1_554 S
C498 C496 1.391 . S
C498 C499 1.400 . S
C499 C498 1.400 . S
C499 C500 1.398 . S
C499 C505 1.491 1_554 S
C500 H491 0.950 . S
C500 C499 1.398 . S
C500 C501 1.391 . S
C501 H489 0.950 . S
C501 C497 1.393 . S
C501 C500 1.391 . S
C502 H492 0.950 . S
C502 C503 1.386 . S
C502 C504 1.391 . S
C503 C502 1.386 . S
C503 C507 1.393 . S
C504 H493 0.950 1_556 S
C504 C502 1.391 . S
C504 C505 1.400 . S
C505 C499 1.491 1_556 S
C505 C504 1.400 . S
C505 C506 1.398 . S
C506 H494 0.950 . S
C506 C505 1.398 . S
C506 C507 1.391 . S
C507 H495 0.950 . S
C507 C503 1.393 . S
C507 C506 1.391 . S
H508 C516 0.950 . S
H509 C521 0.950 . S
H510 C518 0.950 . S
H511 C520 0.950 . S
H512 C522 0.950 . S
H513 C524 0.950 . S
H514 C526 0.950 . S
H515 C527 0.950 . S
C516 H508 0.950 . S
C516 C517 1.386 . S
C516 C518 1.391 . S
C517 C516 1.386 . S
C517 C521 1.393 . S
C518 H510 0.950 . S
C518 C516 1.391 . S
C518 C519 1.400 . S
C519 C518 1.400 . S
C519 C520 1.398 . S
C519 C525 1.491 . S
C520 H511 0.950 . S
C520 C519 1.398 . S
C520 C521 1.391 . S
C521 H509 0.950 . S
C521 C517 1.393 . S
C521 C520 1.391 . S
C522 H512 0.950 . S
C522 C523 1.386 . S
C522 C524 1.391 . S
C523 C522 1.386 . S
C523 C527 1.393 . S
C524 H513 0.950 . S
C524 C522 1.391 . S
C524 C525 1.400 . S
C525 C519 1.491 . S
C525 C524 1.400 . S
C525 C526 1.398 . S
C526 H514 0.950 . S
C526 C525 1.398 . S
C526 C527 1.391 . S
C527 H515 0.950 . S
C527 C523 1.393 . S
C527 C526 1.391 . S
H528 C536 0.950 . S
H529 C541 0.950 . S
H530 C538 0.950 1_556 S
H531 C540 0.950 . S
H532 C542 0.950 . S
H533 C544 0.950 1_554 S
H534 C546 0.950 . S
H535 C547 0.950 . S
C536 H528 0.950 . S
C536 C537 1.386 . S
C536 C538 1.391 . S
C537 C536 1.386 . S
C537 C541 1.393 . S
C538 H530 0.950 1_554 S
C538 C536 1.391 . S
C538 C539 1.400 . S
C539 C538 1.400 . S
C539 C540 1.398 . S
C539 C545 1.491 1_554 S
C540 H531 0.950 . S
C540 C539 1.398 . S
C540 C541 1.391 . S
C541 H529 0.950 . S
C541 C537 1.393 . S
C541 C540 1.391 . S
C542 H532 0.950 . S
C542 C543 1.386 . S
C542 C544 1.391 . S
C543 C542 1.386 . S
C543 C547 1.393 . S
C544 H533 0.950 1_556 S
C544 C542 1.391 . S
C544 C545 1.400 . S
C545 C539 1.491 1_556 S
C545 C544 1.400 . S
C545 C546 1.398 . S
C546 H534 0.950 . S
C546 C545 1.398 . S
C546 C547 1.391 . S
C547 H535 0.950 . S
C547 C543 1.393 . S
C547 C546 1.391 . S
H548 C556 0.950 . S
H549 C561 0.950 . S
H550 C558 0.950 . S
H551 C560 0.950 . S
H552 C562 0.950 . S
H553 C564 0.950 . S
H554 C566 0.950 . S
H555 C567 0.950 . S
C556 H548 0.950 . S
C556 C557 1.386 . S
C556 C558 1.391 . S
C557 C556 1.386 . S
C557 C561 1.393 . S
C558 H550 0.950 . S
C558 C556 1.391 . S
C558 C559 1.400 . S
C559 C558 1.400 . S
C559 C560 1.398 . S
C559 C565 1.491 . S
C560 H551 0.950 . S
C560 C559 1.398 . S
C560 C561 1.391 . S
C561 H549 0.950 . S
C561 C557 1.393 . S
C561 C560 1.391 . S
C562 H552 0.950 . S
C562 C563 1.386 . S
C562 C564 1.391 . S
C563 C562 1.386 . S
C563 C567 1.393 . S
C564 H553 0.950 . S
C564 C562 1.391 . S
C564 C565 1.400 . S
C565 C559 1.491 . S
C565 C564 1.400 . S
C565 C566 1.398 . S
C566 H554 0.950 . S
C566 C565 1.398 . S
C566 C567 1.391 . S
C567 H555 0.950 . S
C567 C563 1.393 . S
C567 C566 1.391 . S
H568 C576 0.950 . S
H569 C581 0.950 . S
H570 C578 0.950 . S
H571 C580 0.950 . S
H572 C582 0.950 . S
H573 C584 0.950 . S
H574 C586 0.950 . S
H575 C587 0.950 . S
C576 H568 0.950 . S
C576 C577 1.386 . S
C576 C578 1.391 . S
C577 C576 1.386 . S
C577 C581 1.393 . S
C578 H570 0.950 . S
C578 C576 1.391 . S
C578 C579 1.400 . S
C579 C578 1.400 . S
C579 C580 1.398 . S
C579 C585 1.491 1_554 S
C580 H571 0.950 . S
C580 C579 1.398 . S
C580 C581 1.391 . S
C581 H569 0.950 . S
C581 C577 1.393 . S
C581 C580 1.391 . S
C582 H572 0.950 . S
C582 C583 1.386 . S
C582 C584 1.391 . S
C583 C582 1.386 . S
C583 C587 1.393 . S
C584 H573 0.950 . S
C584 C582 1.391 . S
C584 C585 1.400 . S
C585 C579 1.491 1_556 S
C585 C584 1.400 . S
C585 C586 1.398 . S
C586 H574 0.950 . S
C586 C585 1.398 . S
C586 C587 1.391 . S
C587 H575 0.950 . S
C587 C583 1.393 . S
C587 C586 1.391 . S
H588 C596 0.950 . S
H589 C601 0.950 . S
H590 C598 0.950 . S
H591 C600 0.950 . S
H592 C602 0.950 . S
H593 C604 0.950 . S
H594 C606 0.950 . S
H595 C607 0.950 . S
C596 H588 0.950 . S
C596 C597 1.386 . S
C596 C598 1.391 . S
C597 C596 1.386 . S
C597 C601 1.393 . S
C598 H590 0.950 . S
C598 C596 1.391 . S
C598 C599 1.400 . S
C599 C598 1.400 . S
C599 C600 1.398 . S
C599 C605 1.491 . S
C600 H591 0.950 . S
C600 C599 1.398 . S
C600 C601 1.391 . S
C601 H589 0.950 . S
C601 C597 1.393 . S
C601 C600 1.391 . S
C602 H592 0.950 . S
C602 C603 1.386 . S
C602 C604 1.391 . S
C603 C602 1.386 . S
C603 C607 1.393 . S
C604 H593 0.950 . S
C604 C602 1.391 . S
C604 C605 1.400 . S
C605 C599 1.491 . S
C605 C604 1.400 . S
C605 C606 1.398 . S
C606 H594 0.950 . S
C606 C605 1.398 . S
C606 C607 1.391 . S
C607 H595 0.950 . S
C607 C603 1.393 . S
C607 C606 1.391 . S
H608 C616 0.950 . S
H609 C621 0.950 . S
H610 C618 0.950 1_556 S
H611 C620 0.950 . S
H612 C622 0.950 . S
H613 C624 0.950 1_554 S
H614 C626 0.950 . S
H615 C627 0.950 . S
C616 H608 0.950 . S
C616 C617 1.386 . S
C616 C618 1.391 . S
C617 C616 1.386 . S
C617 C621 1.393 . S
C618 H610 0.950 1_554 S
C618 C616 1.391 . S
C618 C619 1.400 . S
C619 C618 1.400 . S
C619 C620 1.398 . S
C619 C625 1.491 1_554 S
C620 H611 0.950 . S
C620 C619 1.398 . S
C620 C621 1.391 . S
C621 H609 0.950 . S
C621 C617 1.393 . S
C621 C620 1.391 . S
C622 H612 0.950 . S
C622 C623 1.386 . S
C622 C624 1.391 . S
C623 C622 1.386 . S
C623 C627 1.393 . S
C624 H613 0.950 1_556 S
C624 C622 1.391 . S
C624 C625 1.400 . S
C625 C619 1.491 1_556 S
C625 C624 1.400 . S
C625 C626 1.398 . S
C626 H614 0.950 . S
C626 C625 1.398 . S
C626 C627 1.391 . S
C627 H615 0.950 . S
C627 C623 1.393 . S
C627 C626 1.391 . S
H628 C636 0.950 . S
H629 C641 0.950 . S
H630 C638 0.950 . S
H631 C640 0.950 . S
H632 C642 0.950 . S
H633 C644 0.950 . S
H634 C646 0.950 . S
H635 C647 0.950 . S
C636 H628 0.950 . S
C636 C637 1.386 . S
C636 C638 1.391 . S
C637 C636 1.386 . S
C637 C641 1.393 . S
C638 H630 0.950 . S
C638 C636 1.391 . S
C638 C639 1.400 . S
C639 C638 1.400 . S
C639 C640 1.398 . S
C639 C645 1.491 . S
C640 H631 0.950 . S
C640 C639 1.398 . S
C640 C641 1.391 . S
C641 H629 0.950 . S
C641 C637 1.393 . S
C641 C640 1.391 . S
C642 H632 0.950 . S
C642 C643 1.386 . S
C642 C644 1.391 . S
C643 C642 1.386 . S
C643 C647 1.393 . S
C644 H633 0.950 . S
C644 C642 1.391 . S
C644 C645 1.400 . S
C645 C639 1.491 . S
C645 C644 1.400 . S
C645 C646 1.398 . S
C646 H634 0.950 . S
C646 C645 1.398 . S
C646 C647 1.391 . S
C647 H635 0.950 . S
C647 C643 1.393 . S
C647 C646 1.391 . S
H648 C656 0.950 . S
H649 C661 0.950 . S
H650 C658 0.950 1_554 S
H651 C660 0.950 . S
H652 C662 0.950 . S
H653 C664 0.950 1_556 S
H654 C666 0.950 . S
H655 C667 0.950 . S
C656 H648 0.950 . S
C656 C657 1.386 . S
C656 C658 1.391 . S
C657 C656 1.386 . S
C657 C661 1.393 . S
C658 H650 0.950 1_556 S
C658 C656 1.391 . S
C658 C659 1.400 . S
C659 C658 1.400 . S
C659 C660 1.398 . S
C659 C665 1.491 1_556 S
C660 H651 0.950 . S
C660 C659 1.398 . S
C660 C661 1.391 . S
C661 H649 0.950 . S
C661 C657 1.393 . S
C661 C660 1.391 . S
C662 H652 0.950 . S
C662 C663 1.386 . S
C662 C664 1.391 . S
C663 C662 1.386 . S
C663 C667 1.393 . S
C664 H653 0.950 1_554 S
C664 C662 1.391 . S
C664 C665 1.400 . S
C665 C659 1.491 1_554 S
C665 C664 1.400 . S
C665 C666 1.398 . S
C666 H654 0.950 . S
C666 C665 1.398 . S
C666 C667 1.391 . S
C667 H655 0.950 . S
C667 C663 1.393 . S
C667 C666 1.391 . S
H668 C676 0.950 . S
H669 C681 0.950 . S
H670 C678 0.950 . S
H671 C680 0.950 . S
H672 C682 0.950 . S
H673 C684 0.950 . S
H674 C686 0.950 . S
H675 C687 0.950 . S
C676 H668 0.950 . S
C676 C677 1.386 . S
C676 C678 1.391 . S
C677 C676 1.386 . S
C677 C681 1.393 . S
C678 H670 0.950 . S
C678 C676 1.391 . S
C678 C679 1.400 . S
C679 C678 1.400 . S
C679 C680 1.398 . S
C679 C685 1.491 . S
C680 H671 0.950 . S
C680 C679 1.398 . S
C680 C681 1.391 . S
C681 H669 0.950 . S
C681 C677 1.393 . S
C681 C680 1.391 . S
C682 H672 0.950 . S
C682 C683 1.386 . S
C682 C684 1.391 . S
C683 C682 1.386 . S
C683 C687 1.393 . S
C684 H673 0.950 . S
C684 C682 1.391 . S
C684 C685 1.400 . S
C685 C679 1.491 . S
C685 C684 1.400 . S
C685 C686 1.398 . S
C686 H674 0.950 . S
C686 C685 1.398 . S
C686 C687 1.391 . S
C687 H675 0.950 . S
C687 C683 1.393 . S
C687 C686 1.391 . S
H688 C696 0.950 . S
H689 C701 0.950 . S
H690 C698 0.950 1_556 S
H691 C700 0.950 . S
H692 C702 0.950 . S
H693 C704 0.950 1_554 S
H694 C706 0.950 . S
H695 C707 0.950 . S
C696 H688 0.950 . S
C696 C697 1.386 . S
C696 C698 1.391 . S
C697 C696 1.386 . S
C697 C701 1.393 . S
C698 H690 0.950 1_554 S
C698 C696 1.391 . S
C698 C699 1.400 . S
C699 C698 1.400 . S
C699 C700 1.398 . S
C699 C705 1.491 1_554 S
C700 H691 0.950 . S
C700 C699 1.398 . S
C700 C701 1.391 . S
C701 H689 0.950 . S
C701 C697 1.393 . S
C701 C700 1.391 . S
C702 H692 0.950 . S
C702 C703 1.386 . S
C702 C704 1.391 . S
C703 C702 1.386 . S
C703 C707 1.393 . S
C704 H693 0.950 1_556 S
C704 C702 1.391 . S
C704 C705 1.400 . S
C705 C699 1.491 1_556 S
C705 C704 1.400 . S
C705 C706 1.398 . S
C706 H694 0.950 . S
C706 C705 1.398 . S
C706 C707 1.391 . S
C707 H695 0.950 . S
C707 C703 1.393 . S
C707 C706 1.391 . S
H708 C716 0.950 . S
H709 C721 0.950 . S
H710 C718 0.950 . S
H711 C720 0.950 . S
H712 C722 0.950 . S
H713 C724 0.950 . S
H714 C726 0.950 . S
H715 C727 0.950 . S
C716 H708 0.950 . S
C716 C717 1.386 . S
C716 C718 1.391 . S
C717 C716 1.386 . S
C717 C721 1.393 . S
C718 H710 0.950 . S
C718 C716 1.391 . S
C718 C719 1.400 . S
C719 C718 1.400 . S
C719 C720 1.398 . S
C719 C725 1.491 . S
C720 H711 0.950 . S
C720 C719 1.398 . S
C720 C721 1.391 . S
C721 H709 0.950 . S
C721 C717 1.393 . S
C721 C720 1.391 . S
C722 H712 0.950 . S
C722 C723 1.386 . S
C722 C724 1.391 . S
C723 C722 1.386 . S
C723 C727 1.393 . S
C724 H713 0.950 . S
C724 C722 1.391 . S
C724 C725 1.400 . S
C725 C719 1.491 . S
C725 C724 1.400 . S
C725 C726 1.398 . S
C726 H714 0.950 . S
C726 C725 1.398 . S
C726 C727 1.391 . S
C727 H715 0.950 . S
C727 C723 1.393 . S
C727 C726 1.391 . S
H728 C736 0.950 . S
H729 C741 0.950 . S
H730 C738 0.950 . S
H731 C740 0.950 . S
H732 C742 0.950 . S
H733 C744 0.950 . S
H734 C746 0.950 . S
H735 C747 0.950 . S
C736 H728 0.950 . S
C736 C737 1.386 . S
C736 C738 1.391 1_554 S
C737 C736 1.386 . S
C737 C741 1.393 . S
C738 H730 0.950 . S
C738 C736 1.391 1_556 S
C738 C739 1.400 1_556 S
C739 C738 1.400 1_554 S
C739 C740 1.398 . S
C739 C745 1.491 1_554 S
C740 H731 0.950 . S
C740 C739 1.398 . S
C740 C741 1.391 . S
C741 H729 0.950 . S
C741 C737 1.393 . S
C741 C740 1.391 . S
C742 H732 0.950 . S
C742 C743 1.386 . S
C742 C744 1.391 1_556 S
C743 C742 1.386 . S
C743 C747 1.393 . S
C744 H733 0.950 . S
C744 C742 1.391 1_554 S
C744 C745 1.400 1_554 S
C745 C739 1.491 1_556 S
C745 C744 1.400 1_556 S
C745 C746 1.398 . S
C746 H734 0.950 . S
C746 C745 1.398 . S
C746 C747 1.391 . S
C747 H735 0.950 . S
C747 C743 1.393 . S
C747 C746 1.391 . S
H748 C756 0.950 . S
H749 C761 0.950 . S
H750 C758 0.950 . S
H751 C760 0.950 . S
H752 C762 0.950 . S
H753 C764 0.950 . S
H754 C766 0.950 . S
H755 C767 0.950 . S
C756 H748 0.950 . S
C756 C757 1.386 . S
C756 C758 1.391 . S
C757 C756 1.386 . S
C757 C761 1.393 . S
C758 H750 0.950 . S
C758 C756 1.391 . S
C758 C759 1.400 . S
C759 C758 1.400 . S
C759 C760 1.398 . S
C759 C765 1.491 . S
C760 H751 0.950 . S
C760 C759 1.398 . S
C760 C761 1.391 . S
C761 H749 0.950 . S
C761 C757 1.393 . S
C761 C760 1.391 . S
C762 H752 0.950 . S
C762 C763 1.386 . S
C762 C764 1.391 . S
C763 C762 1.386 . S
C763 C767 1.393 . S
C764 H753 0.950 . S
C764 C762 1.391 . S
C764 C765 1.400 . S
C765 C759 1.491 . S
C765 C764 1.400 . S
C765 C766 1.398 . S
C766 H754 0.950 . S
C766 C765 1.398 . S
C766 C767 1.391 . S
C767 H755 0.950 . S
C767 C763 1.393 . S
C767 C766 1.391 . S
H768 C776 0.950 . S
H769 C781 0.950 . S
H770 C778 0.950 . S
H771 C780 0.950 1_554 S
H772 C782 0.950 . S
H773 C784 0.950 . S
H774 C786 0.950 1_556 S
H775 C787 0.950 . S
C776 H768 0.950 . S
C776 C777 1.386 . S
C776 C778 1.391 . S
C777 C776 1.386 . S
C777 C781 1.393 . S
C778 H770 0.950 . S
C778 C776 1.391 . S
C778 C779 1.400 . S
C779 C778 1.400 . S
C779 C780 1.398 . S
C779 C785 1.491 1_556 S
C780 H771 0.950 1_556 S
C780 C779 1.398 . S
C780 C781 1.391 . S
C781 H769 0.950 . S
C781 C777 1.393 . S
C781 C780 1.391 . S
C782 H772 0.950 . S
C782 C783 1.386 . S
C782 C784 1.391 . S
C783 C782 1.386 . S
C783 C787 1.393 . S
C784 H773 0.950 . S
C784 C782 1.391 . S
C784 C785 1.400 . S
C785 C779 1.491 1_554 S
C785 C784 1.400 . S
C785 C786 1.398 . S
C786 H774 0.950 1_554 S
C786 C785 1.398 . S
C786 C787 1.391 . S
C787 H775 0.950 . S
C787 C783 1.393 . S
C787 C786 1.391 . S
H788 C796 0.950 . S
H789 C801 0.950 . S
H790 C798 0.950 . S
H791 C800 0.950 . S
H792 C802 0.950 . S
H793 C804 0.950 . S
H794 C806 0.950 . S
H795 C807 0.950 . S
C796 H788 0.950 . S
C796 C797 1.386 . S
C796 C798 1.391 . S
C797 C796 1.386 . S
C797 C801 1.393 . S
C798 H790 0.950 . S
C798 C796 1.391 . S
C798 C799 1.400 . S
C799 C798 1.400 . S
C799 C800 1.398 . S
C799 C805 1.491 . S
C800 H791 0.950 . S
C800 C799 1.398 . S
C800 C801 1.391 . S
C801 H789 0.950 . S
C801 C797 1.393 . S
C801 C800 1.391 . S
C802 H792 0.950 . S
C802 C803 1.386 . S
C802 C804 1.391 . S
C803 C802 1.386 . S
C803 C807 1.393 . S
C804 H793 0.950 . S
C804 C802 1.391 . S
C804 C805 1.400 . S
C805 C799 1.491 . S
C805 C804 1.400 . S
C805 C806 1.398 . S
C806 H794 0.950 . S
C806 C805 1.398 . S
C806 C807 1.391 . S
C807 H795 0.950 . S
C807 C803 1.393 . S
C807 C806 1.391 . S
H808 C816 0.950 . S
H809 C821 0.950 . S
H810 C818 0.950 1_556 S
H811 C820 0.950 . S
H812 C822 0.950 . S
H813 C824 0.950 1_554 S
H814 C826 0.950 . S
H815 C827 0.950 . S
C816 H808 0.950 . S
C816 C817 1.386 . S
C816 C818 1.391 . S
C817 C816 1.386 . S
C817 C821 1.393 . S
C818 H810 0.950 1_554 S
C818 C816 1.391 . S
C818 C819 1.400 . S
C819 C818 1.400 . S
C819 C820 1.398 . S
C819 C825 1.491 1_554 S
C820 H811 0.950 . S
C820 C819 1.398 . S
C820 C821 1.391 . S
C821 H809 0.950 . S
C821 C817 1.393 . S
C821 C820 1.391 . S
C822 H812 0.950 . S
C822 C823 1.386 . S
C822 C824 1.391 . S
C823 C822 1.386 . S
C823 C827 1.393 . S
C824 H813 0.950 1_556 S
C824 C822 1.391 . S
C824 C825 1.400 . S
C825 C819 1.491 1_556 S
C825 C824 1.400 . S
C825 C826 1.398 . S
C826 H814 0.950 . S
C826 C825 1.398 . S
C826 C827 1.391 . S
C827 H815 0.950 . S
C827 C823 1.393 . S
C827 C826 1.391 . S
H828 C836 0.950 . S
H829 C841 0.950 . S
H830 C838 0.950 . S
H831 C840 0.950 . S
H832 C842 0.950 . S
H833 C844 0.950 . S
H834 C846 0.950 . S
H835 C847 0.950 . S
C836 H828 0.950 . S
C836 C837 1.386 . S
C836 C838 1.391 . S
C837 C836 1.386 . S
C837 C841 1.393 . S
C838 H830 0.950 . S
C838 C836 1.391 . S
C838 C839 1.400 . S
C839 C838 1.400 . S
C839 C840 1.398 . S
C839 C845 1.491 . S
C840 H831 0.950 . S
C840 C839 1.398 . S
C840 C841 1.391 . S
C841 H829 0.950 . S
C841 C837 1.393 . S
C841 C840 1.391 . S
C842 H832 0.950 . S
C842 C843 1.386 . S
C842 C844 1.391 . S
C843 C842 1.386 . S
C843 C847 1.393 . S
C844 H833 0.950 . S
C844 C842 1.391 . S
C844 C845 1.400 . S
C845 C839 1.491 . S
C845 C844 1.400 . S
C845 C846 1.398 . S
C846 H834 0.950 . S
C846 C845 1.398 . S
C846 C847 1.391 . S
C847 H835 0.950 . S
C847 C843 1.393 . S
C847 C846 1.391 . S
H848 C856 0.950 . S
H849 C861 0.950 . S
H850 C858 0.950 1_556 S
H851 C860 0.950 . S
H852 C862 0.950 . S
H853 C864 0.950 1_554 S
H854 C866 0.950 . S
H855 C867 0.950 . S
C856 H848 0.950 . S
C856 C857 1.386 . S
C856 C858 1.391 . S
C857 C856 1.386 . S
C857 C861 1.393 . S
C858 H850 0.950 1_554 S
C858 C856 1.391 . S
C858 C859 1.400 . S
C859 C858 1.400 . S
C859 C860 1.398 . S
C859 C865 1.491 1_554 S
C860 H851 0.950 . S
C860 C859 1.398 . S
C860 C861 1.391 . S
C861 H849 0.950 . S
C861 C857 1.393 . S
C861 C860 1.391 . S
C862 H852 0.950 . S
C862 C863 1.386 . S
C862 C864 1.391 . S
C863 C862 1.386 . S
C863 C867 1.393 . S
C864 H853 0.950 1_556 S
C864 C862 1.391 . S
C864 C865 1.400 . S
C865 C859 1.491 1_556 S
C865 C864 1.400 . S
C865 C866 1.398 . S
C866 H854 0.950 . S
C866 C865 1.398 . S
C866 C867 1.391 . S
C867 H855 0.950 . S
C867 C863 1.393 . S
C867 C866 1.391 . S
H868 C876 0.950 . S
H869 C881 0.950 . S
H870 C878 0.950 . S
H871 C880 0.950 . S
H872 C882 0.950 . S
H873 C884 0.950 . S
H874 C886 0.950 . S
H875 C887 0.950 . S
C876 H868 0.950 . S
C876 C877 1.386 . S
C876 C878 1.391 . S
C877 C876 1.386 . S
C877 C881 1.393 . S
C878 H870 0.950 . S
C878 C876 1.391 . S
C878 C879 1.400 . S
C879 C878 1.400 . S
C879 C880 1.398 . S
C879 C885 1.491 . S
C880 H871 0.950 . S
C880 C879 1.398 . S
C880 C881 1.391 . S
C881 H869 0.950 . S
C881 C877 1.393 . S
C881 C880 1.391 . S
C882 H872 0.950 . S
C882 C883 1.386 . S
C882 C884 1.391 . S
C883 C882 1.386 . S
C883 C887 1.393 . S
C884 H873 0.950 . S
C884 C882 1.391 . S
C884 C885 1.400 . S
C885 C879 1.491 . S
C885 C884 1.400 . S
C885 C886 1.398 . S
C886 H874 0.950 . S
C886 C885 1.398 . S
C886 C887 1.391 . S
C887 H875 0.950 . S
C887 C883 1.393 . S
C887 C886 1.391 . S
H888 C896 0.950 . S
H889 C901 0.950 . S
H890 C898 0.950 . S
H891 C900 0.950 . S
H892 C902 0.950 . S
H893 C904 0.950 . S
H894 C906 0.950 . S
H895 C907 0.950 . S
C896 H888 0.950 . S
C896 C897 1.386 . S
C896 C898 1.391 . S
C897 C896 1.386 . S
C897 C901 1.393 . S
C898 H890 0.950 . S
C898 C896 1.391 . S
C898 C899 1.400 . S
C899 C898 1.400 . S
C899 C900 1.398 . S
C899 C905 1.491 . S
C900 H891 0.950 . S
C900 C899 1.398 . S
C900 C901 1.391 . S
C901 H889 0.950 . S
C901 C897 1.393 . S
C901 C900 1.391 . S
C902 H892 0.950 . S
C902 C903 1.386 . S
C902 C904 1.391 . S
C903 C902 1.386 . S
C903 C907 1.393 . S
C904 H893 0.950 . S
C904 C902 1.391 . S
C904 C905 1.400 . S
C905 C899 1.491 . S
C905 C904 1.400 . S
C905 C906 1.398 . S
C906 H894 0.950 . S
C906 C905 1.398 . S
C906 C907 1.391 . S
C907 H895 0.950 . S
C907 C903 1.393 . S
C907 C906 1.391 . S
H908 C916 0.950 . S
H909 C921 0.950 . S
H910 C918 0.950 . S
H911 C920 0.950 . S
H912 C922 0.950 . S
H913 C924 0.950 . S
H914 C926 0.950 . S
H915 C927 0.950 . S
C916 H908 0.950 . S
C916 C917 1.386 . S
C916 C918 1.391 . S
C917 C916 1.386 . S
C917 C921 1.393 . S
C918 H910 0.950 . S
C918 C916 1.391 . S
C918 C919 1.400 . S
C919 C918 1.400 . S
C919 C920 1.398 . S
C919 C925 1.491 1_455 S
C920 H911 0.950 . S
C920 C919 1.398 . S
C920 C921 1.391 . S
C921 H909 0.950 . S
C921 C917 1.393 . S
C921 C920 1.391 . S
C922 H912 0.950 . S
C922 C923 1.386 . S
C922 C924 1.391 . S
C923 C922 1.386 . S
C923 C927 1.393 . S
C924 H913 0.950 . S
C924 C922 1.391 . S
C924 C925 1.400 . S
C925 C919 1.491 1_655 S
C925 C924 1.400 . S
C925 C926 1.398 . S
C926 H914 0.950 . S
C926 C925 1.398 . S
C926 C927 1.391 . S
C927 H915 0.950 . S
C927 C923 1.393 . S
C927 C926 1.391 . S
H928 C936 0.950 . S
H929 C941 0.950 . S
H930 C938 0.950 . S
H931 C940 0.950 . S
H932 C942 0.950 . S
H933 C944 0.950 . S
H934 C946 0.950 . S
H935 C947 0.950 . S
C936 H928 0.950 . S
C936 C937 1.386 . S
C936 C938 1.391 . S
C937 C936 1.386 . S
C937 C941 1.393 . S
C938 H930 0.950 . S
C938 C936 1.391 . S
C938 C939 1.400 . S
C939 C938 1.400 . S
C939 C940 1.398 . S
C939 C945 1.491 1_545 S
C940 H931 0.950 . S
C940 C939 1.398 . S
C940 C941 1.391 . S
C941 H929 0.950 . S
C941 C937 1.393 . S
C941 C940 1.391 . S
C942 H932 0.950 . S
C942 C943 1.386 . S
C942 C944 1.391 . S
C943 C942 1.386 . S
C943 C947 1.393 . S
C944 H933 0.950 . S
C944 C942 1.391 . S
C944 C945 1.400 . S
C945 C939 1.491 1_565 S
C945 C944 1.400 . S
C945 C946 1.398 . S
C946 H934 0.950 . S
C946 C945 1.398 . S
C946 C947 1.391 . S
C947 H935 0.950 . S
C947 C943 1.393 . S
C947 C946 1.391 . S
H948 C956 0.950 . S
H949 C961 0.950 . S
H950 C958 0.950 . S
H951 C960 0.950 . S
H952 C962 0.950 . S
H953 C964 0.950 . S
H954 C966 0.950 . S
H955 C967 0.950 . S
C956 H948 0.950 . S
C956 C957 1.386 . S
C956 C958 1.391 . S
C957 C956 1.386 . S
C957 C961 1.393 . S
C958 H950 0.950 . S
C958 C956 1.391 . S
C958 C959 1.400 . S
C959 C958 1.400 . S
C959 C960 1.398 . S
C959 C965 1.491 . S
C960 H951 0.950 . S
C960 C959 1.398 . S
C960 C961 1.391 . S
C961 H949 0.950 . S
C961 C957 1.393 . S
C961 C960 1.391 . S
C962 H952 0.950 . S
C962 C963 1.386 . S
C962 C964 1.391 . S
C963 C962 1.386 . S
C963 C967 1.393 . S
C964 H953 0.950 . S
C964 C962 1.391 . S
C964 C965 1.400 . S
C965 C959 1.491 . S
C965 C964 1.400 . S
C965 C966 1.398 . S
C966 H954 0.950 . S
C966 C965 1.398 . S
C966 C967 1.391 . S
C967 H955 0.950 . S
C967 C963 1.393 . S
C967 C966 1.391 . S
H968 C976 0.950 . S
H969 C981 0.950 . S
H970 C978 0.950 . S
H971 C980 0.950 . S
H972 C982 0.950 . S
H973 C984 0.950 . S
H974 C986 0.950 . S
H975 C987 0.950 . S
C976 H968 0.950 . S
C976 C977 1.386 . S
C976 C978 1.391 . S
C977 C976 1.386 . S
C977 C981 1.393 . S
C978 H970 0.950 . S
C978 C976 1.391 . S
C978 C979 1.400 . S
C979 C978 1.400 . S
C979 C980 1.398 . S
C979 C985 1.491 1_455 S
C980 H971 0.950 . S
C980 C979 1.398 . S
C980 C981 1.391 . S
C981 H969 0.950 . S
C981 C977 1.393 . S
C981 C980 1.391 . S
C982 H972 0.950 . S
C982 C983 1.386 . S
C982 C984 1.391 . S
C983 C982 1.386 . S
C983 C987 1.393 . S
C984 H973 0.950 . S
C984 C982 1.391 . S
C984 C985 1.400 . S
C985 C979 1.491 1_655 S
C985 C984 1.400 . S
C985 C986 1.398 . S
C986 H974 0.950 . S
C986 C985 1.398 . S
C986 C987 1.391 . S
C987 H975 0.950 . S
C987 C983 1.393 . S
C987 C986 1.391 . S
H988 C996 0.950 . S
H989 C1001 0.950 . S
H990 C998 0.950 . S
H991 C1000 0.950 . S
H992 C1002 0.950 . S
H993 C1004 0.950 . S
H994 C1006 0.950 . S
H995 C1007 0.950 . S
C996 H988 0.950 . S
C996 C997 1.386 . S
C996 C998 1.391 . S
C997 C996 1.386 . S
C997 C1001 1.393 . S
C998 H990 0.950 . S
C998 C996 1.391 . S
C998 C999 1.400 . S
C999 C998 1.400 . S
C999 C1000 1.398 . S
C999 C1005 1.491 1_565 S
C1000 H991 0.950 . S
C1000 C999 1.398 . S
C1000 C1001 1.391 . S
C1001 H989 0.950 . S
C1001 C997 1.393 . S
C1001 C1000 1.391 . S
C1002 H992 0.950 . S
C1002 C1003 1.386 . S
C1002 C1004 1.391 . S
C1003 C1002 1.386 . S
C1003 C1007 1.393 . S
C1004 H993 0.950 . S
C1004 C1002 1.391 . S
C1004 C1005 1.400 . S
C1005 C999 1.491 1_545 S
C1005 C1004 1.400 . S
C1005 C1006 1.398 . S
C1006 H994 0.950 . S
C1006 C1005 1.398 . S
C1006 C1007 1.391 . S
C1007 H995 0.950 . S
C1007 C1003 1.393 . S
C1007 C1006 1.391 . S
C417 C2 2.956 . S
C423 C206 2.955 . S
C437 C36 2.956 . S
C443 C240 2.955 . S
C457 C70 2.956 . S
C463 C274 2.956 . S
C477 C308 2.955 . S
C483 C104 2.955 . S
C497 C138 2.955 . S
C503 C342 2.955 . S
C517 C376 2.955 . S
C523 C172 2.955 . S
C537 C311 1.108 . S
C543 C107 1.087 . S
C557 C141 1.088 . S
C563 C345 1.106 . S
C577 C379 1.114 . S
C583 C175 1.103 . S
C597 C209 1.108 . S
C603 C5 1.087 . S
C617 C243 1.117 . S
C623 C39 1.091 . S
C637 C73 1.096 . S
C643 C277 1.095 . S
C657 C349 0.748 . S
C663 C9 0.757 . S
C677 C43 0.751 . S
C683 C383 0.753 . S
C697 C77 0.747 . S
C703 C213 0.758 . S
C717 C111 0.771 . S
C723 C247 0.768 . S
C737 C145 0.746 . S
C743 C281 0.767 . S
C757 C179 0.766 . S
C763 C315 0.772 . S
C777 C122 2.257 . S
C783 C258 2.254 . S
C797 C156 2.257 . S
C803 C292 2.254 . S
C817 C326 2.252 . S
C823 C190 2.258 . S
C837 C20 2.258 . S
C843 C360 2.253 . S
C857 C394 2.253 . S
C863 C54 2.257 . S
C877 C88 2.255 . S
C883 C224 2.256 . S
C897 C33 0.721 . S
C903 C339 0.744 . S
C917 C373 0.727 . S
C923 C67 0.740 . S
C937 C407 0.721 . S
C943 C101 0.744 . S
C957 C237 0.742 . S
C963 C135 0.723 . S
C977 C169 0.743 . S
C983 C271 0.722 . S
C997 C305 0.741 . S
C1003 C203 0.725 . S
