# Generated by pormake.
# Topology ukb, (4)-cn, num edge types: 1
# Building blocks:
#     Node 0, Type 0, BuildingBlock: QUQFOY_clean_sbu_3, # of connection points: 4
#     Node 1, Type 0, BuildingBlock: QUQFOY_clean_sbu_3, # of connection points: 4
#     Node 2, Type 0, BuildingBlock: QUQFOY_clean_sbu_3, # of connection points: 4
#     Node 3, Type 0, BuildingBlock: QUQFOY_clean_sbu_3, # of connection points: 4
#     Node 4, Type 0, BuildingBlock: QUQFOY_clean_sbu_3, # of connection points: 4
#     Node 5, Type 0, BuildingBlock: QUQFOY_clean_sbu_3, # of connection points: 4
#     Node 6, Type 0, BuildingBlock: QUQFOY_clean_sbu_3, # of connection points: 4
#     Node 7, Type 0, BuildingBlock: QUQFOY_clean_sbu_3, # of connection points: 4
#     Node 8, Type 0, BuildingBlock: QUQFOY_clean_sbu_3, # of connection points: 4
#     Node 9, Type 0, BuildingBlock: QUQFOY_clean_sbu_3, # of connection points: 4
#     Node 10, Type 0, BuildingBlock: QUQFOY_clean_sbu_3, # of connection points: 4
#     Node 11, Type 0, BuildingBlock: QUQFOY_clean_sbu_3, # of connection points: 4
#     Node 12, Type 0, BuildingBlock: QUQFOY_clean_sbu_3, # of connection points: 4
#     Node 13, Type 0, BuildingBlock: QUQFOY_clean_sbu_3, # of connection points: 4
#     Node 14, Type 0, BuildingBlock: QUQFOY_clean_sbu_3, # of connection points: 4
#     Node 15, Type 0, BuildingBlock: QUQFOY_clean_sbu_3, # of connection points: 4
#     Edge 16, Type (0, 0), BuildingBlock: EYOCIG_clean_linker_4, # of connection points: 2
#     Edge 17, Type (0, 0), BuildingBlock: EYOCIG_clean_linker_4, # of connection points: 2
#     Edge 18, Type (0, 0), BuildingBlock: EYOCIG_clean_linker_4, # of connection points: 2
#     Edge 19, Type (0, 0), BuildingBlock: EYOCIG_clean_linker_4, # of connection points: 2
#     Edge 20, Type (0, 0), BuildingBlock: EYOCIG_clean_linker_4, # of connection points: 2
#     Edge 21, Type (0, 0), BuildingBlock: EYOCIG_clean_linker_4, # of connection points: 2
#     Edge 22, Type (0, 0), BuildingBlock: EYOCIG_clean_linker_4, # of connection points: 2
#     Edge 23, Type (0, 0), BuildingBlock: EYOCIG_clean_linker_4, # of connection points: 2
#     Edge 24, Type (0, 0), BuildingBlock: EYOCIG_clean_linker_4, # of connection points: 2
#     Edge 25, Type (0, 0), BuildingBlock: EYOCIG_clean_linker_4, # of connection points: 2
#     Edge 26, Type (0, 0), BuildingBlock: EYOCIG_clean_linker_4, # of connection points: 2
#     Edge 27, Type (0, 0), BuildingBlock: EYOCIG_clean_linker_4, # of connection points: 2
#     Edge 28, Type (0, 0), BuildingBlock: EYOCIG_clean_linker_4, # of connection points: 2
#     Edge 29, Type (0, 0), BuildingBlock: EYOCIG_clean_linker_4, # of connection points: 2
#     Edge 30, Type (0, 0), BuildingBlock: EYOCIG_clean_linker_4, # of connection points: 2
#     Edge 31, Type (0, 0), BuildingBlock: EYOCIG_clean_linker_4, # of connection points: 2
#     Edge 32, Type (0, 0), BuildingBlock: EYOCIG_clean_linker_4, # of connection points: 2
#     Edge 33, Type (0, 0), BuildingBlock: EYOCIG_clean_linker_4, # of connection points: 2
#     Edge 34, Type (0, 0), BuildingBlock: EYOCIG_clean_linker_4, # of connection points: 2
#     Edge 35, Type (0, 0), BuildingBlock: EYOCIG_clean_linker_4, # of connection points: 2
#     Edge 36, Type (0, 0), BuildingBlock: EYOCIG_clean_linker_4, # of connection points: 2
#     Edge 37, Type (0, 0), BuildingBlock: EYOCIG_clean_linker_4, # of connection points: 2
#     Edge 38, Type (0, 0), BuildingBlock: EYOCIG_clean_linker_4, # of connection points: 2
#     Edge 39, Type (0, 0), BuildingBlock: EYOCIG_clean_linker_4, # of connection points: 2
#     Edge 40, Type (0, 0), BuildingBlock: EYOCIG_clean_linker_4, # of connection points: 2
#     Edge 41, Type (0, 0), BuildingBlock: EYOCIG_clean_linker_4, # of connection points: 2
#     Edge 42, Type (0, 0), BuildingBlock: EYOCIG_clean_linker_4, # of connection points: 2
#     Edge 43, Type (0, 0), BuildingBlock: EYOCIG_clean_linker_4, # of connection points: 2
#     Edge 44, Type (0, 0), BuildingBlock: EYOCIG_clean_linker_4, # of connection points: 2
#     Edge 45, Type (0, 0), BuildingBlock: EYOCIG_clean_linker_4, # of connection points: 2
#     Edge 46, Type (0, 0), BuildingBlock: EYOCIG_clean_linker_4, # of connection points: 2
#     Edge 47, Type (0, 0), BuildingBlock: EYOCIG_clean_linker_4, # of connection points: 2
# Relax obj value: 0.083
# Max RMSD: 0.049
# Mean RMSD: 0.049
data_MOF--net-ukb--node1-QUQFOY_clean_sbu_3--edge1-EYOCIG_clean_linker_4
_symmetry_space_group_name_H-M    P1
_symmetry_Int_Tables_number       1
_symmetry_cell_setting            triclinic
loop_
_symmetry_equiv_pos_as_xyz
'x, y, z'
_cell_length_a     37.2083
_cell_length_b     37.217739
_cell_length_c     31.939922
_cell_angle_alpha  89.956371
_cell_angle_beta   90.040558
_cell_angle_gamma 89.99001
loop_
_atom_site_label
_atom_site_type_symbol
_atom_site_fract_x
_atom_site_fract_y
_atom_site_fract_z
_atom_type_partial_charge
C0 C 0.49932 0.20489 0.07094 0.0
O1 O 0.53331 0.20281 0.07036 0.0
Cd2 Cd 0.57043 0.18912 0.12883 0.0
O3 O 0.48142 0.19864 0.10413 0.0
Cd4 Cd 0.49557 0.17907 0.17716 0.0
C5 C 0.54222 0.25541 0.19642 0.0
O6 O 0.54395 0.1375 0.15985 0.0
O7 O 0.53803 0.15005 0.22558 0.0
O8 O 0.4477 0.13545 0.16865 0.0
C9 C 0.55296 0.13139 0.19736 0.0
O10 O 0.56649 0.24136 0.17378 0.0
C11 C 0.43106 0.14337 0.20193 0.0
O12 O 0.51194 0.24009 0.20206 0.0
O13 O 0.44337 0.16909 0.22381 0.0
C14 C 0.24751 0.49894 0.57059 0.0
O15 O 0.25018 0.53288 0.56981 0.0
Cd16 Cd 0.26398 0.56982 0.6284 0.0
O17 O 0.25328 0.48108 0.60394 0.0
Cd18 Cd 0.27277 0.49502 0.677 0.0
C19 C 0.19672 0.54248 0.69521 0.0
O20 O 0.31514 0.54296 0.66022 0.0
O21 O 0.30209 0.53693 0.72581 0.0
O22 O 0.3156 0.44651 0.66829 0.0
C23 C 0.32107 0.55179 0.69782 0.0
O24 O 0.21122 0.56658 0.67268 0.0
C25 C 0.30741 0.42985 0.70149 0.0
O26 O 0.21171 0.51208 0.70117 0.0
O27 O 0.28192 0.4425 0.72347 0.0
C28 C 0.95273 0.24603 0.07104 0.0
O29 O 0.91877 0.24858 0.07013 0.0
Cd30 Cd 0.88178 0.26209 0.12876 0.0
O31 O 0.97048 0.25206 0.10437 0.0
Cd32 Cd 0.95644 0.27205 0.17707 0.0
C33 C 0.91046 0.19531 0.19561 0.0
O34 O 0.90779 0.31366 0.16051 0.0
O35 O 0.9142 0.30051 0.22608 0.0
O36 O 0.00406 0.31568 0.16711 0.0
C37 C 0.89901 0.31937 0.19817 0.0
O38 O 0.8861 0.20945 0.17311 0.0
C39 C 0.02112 0.30814 0.20027 0.0
O40 O 0.94064 0.21076 0.20152 0.0
O41 O 0.00909 0.28268 0.2228 0.0
C42 C 0.20421 0.95195 0.57078 0.0
O43 O 0.20209 0.91797 0.57035 0.0
Cd44 Cd 0.18904 0.88128 0.62937 0.0
O45 O 0.19822 0.96992 0.60395 0.0
Cd46 Cd 0.17911 0.95603 0.67714 0.0
C47 C 0.25602 0.91017 0.69571 0.0
O48 O 0.13742 0.90746 0.66082 0.0
O49 O 0.15069 0.91388 0.72634 0.0
O50 O 0.13532 0.00363 0.66789 0.0
C51 C 0.13167 0.89882 0.69852 0.0
O52 O 0.24183 0.88571 0.67347 0.0
C53 C 0.14306 0.02052 0.70106 0.0
O54 O 0.24056 0.94036 0.70141 0.0
O55 O 0.16878 0.00849 0.72321 0.0
C56 C 0.49959 0.24582 0.88032 0.0
O57 O 0.53357 0.2482 0.8809 0.0
Cd58 Cd 0.57023 0.26248 0.82224 0.0
O59 O 0.4816 0.25219 0.84722 0.0
Cd60 Cd 0.49522 0.27244 0.77437 0.0
C61 C 0.54184 0.19618 0.75478 0.0
O62 O 0.5435 0.3143 0.7917 0.0
O63 O 0.5371 0.30228 0.7259 0.0
O64 O 0.44671 0.31518 0.78403 0.0
C65 C 0.55217 0.32078 0.75418 0.0
O66 O 0.5662 0.21023 0.7773 0.0
C67 C 0.43 0.30745 0.7507 0.0
O68 O 0.51155 0.21152 0.74923 0.0
O69 O 0.44265 0.28229 0.72821 0.0
C70 C 0.2059 0.49867 0.38026 0.0
O71 O 0.20355 0.53264 0.38101 0.0
Cd72 Cd 0.18954 0.5698 0.32266 0.0
O73 O 0.19961 0.48086 0.34703 0.0
Cd74 Cd 0.17953 0.49518 0.2742 0.0
C75 C 0.25582 0.54179 0.25494 0.0
O76 O 0.13787 0.54357 0.29142 0.0
O77 O 0.15069 0.53776 0.22575 0.0
O78 O 0.13585 0.44735 0.28269 0.0
C79 C 0.13192 0.55265 0.25389 0.0
O80 O 0.24177 0.56601 0.27764 0.0
C81 C 0.14383 0.43068 0.24945 0.0
O82 O 0.24051 0.51153 0.24924 0.0
O83 O 0.16959 0.44297 0.22759 0.0
C84 C 0.95302 0.20466 0.88118 0.0
O85 O 0.91904 0.2025 0.88218 0.0
Cd86 Cd 0.88159 0.18914 0.82394 0.0
O87 O 0.97062 0.19851 0.84778 0.0
Cd88 Cd 0.95587 0.17895 0.77501 0.0
C89 C 0.90978 0.25583 0.75681 0.0
O90 O 0.90747 0.13736 0.79255 0.0
O91 O 0.91313 0.15009 0.72681 0.0
O92 O 0.00375 0.13541 0.784 0.0
C93 C 0.89835 0.13133 0.75507 0.0
O94 O 0.88556 0.24175 0.77952 0.0
C95 C 0.02026 0.14296 0.7505 0.0
O96 O 0.93987 0.2403 0.75067 0.0
O97 O 0.00784 0.16841 0.72822 0.0
C98 C 0.24567 0.95179 0.38033 0.0
O99 O 0.24836 0.91785 0.38101 0.0
Cd100 Cd 0.26249 0.88112 0.32236 0.0
O101 O 0.25186 0.96976 0.34718 0.0
Cd102 Cd 0.27239 0.95605 0.27452 0.0
C103 C 0.19614 0.90961 0.25483 0.0
O104 O 0.31408 0.90749 0.29111 0.0
O105 O 0.30106 0.91399 0.22553 0.0
O106 O 0.31608 0.00363 0.28447 0.0
C107 C 0.3199 0.8988 0.25345 0.0
O108 O 0.21023 0.88526 0.27738 0.0
C109 C 0.30846 0.02075 0.25138 0.0
O110 O 0.21142 0.93992 0.2493 0.0
O111 O 0.2829 0.00881 0.22893 0.0
C112 C 0.45277 0.7471 0.88082 0.0
O113 O 0.41877 0.74912 0.88154 0.0
Cd114 Cd 0.38171 0.76229 0.82282 0.0
O115 O 0.47051 0.75317 0.84749 0.0
Cd116 Cd 0.45611 0.77227 0.77441 0.0
C117 C 0.41002 0.69541 0.75619 0.0
O118 O 0.40771 0.81406 0.79135 0.0
O119 O 0.4137 0.80111 0.72573 0.0
O120 O 0.50409 0.81573 0.783 0.0
C121 C 0.39885 0.82003 0.75376 0.0
O122 O 0.38568 0.70954 0.77864 0.0
C123 C 0.52063 0.80788 0.74963 0.0
O124 O 0.44017 0.7109 0.75026 0.0
O125 O 0.50821 0.78227 0.72766 0.0
C126 C 0.70556 0.45228 0.3807 0.0
O127 O 0.70276 0.41835 0.38161 0.0
Cd128 Cd 0.68853 0.38121 0.32344 0.0
O129 O 0.69953 0.47013 0.3474 0.0
Cd130 Cd 0.6793 0.45626 0.27461 0.0
C131 C 0.75549 0.40896 0.25636 0.0
O132 O 0.63731 0.40821 0.29206 0.0
O133 O 0.64984 0.41401 0.22631 0.0
O134 O 0.63639 0.50471 0.28377 0.0
C135 C 0.63116 0.39916 0.25459 0.0
O136 O 0.74112 0.38484 0.27898 0.0
C137 C 0.64421 0.52137 0.25044 0.0
O138 O 0.74036 0.43928 0.25029 0.0
O139 O 0.66952 0.50874 0.22814 0.0
C140 C -0.00063 0.70407 0.88074 0.0
O141 O 0.03335 0.70176 0.88145 0.0
Cd142 Cd 0.07036 0.68862 0.82281 0.0
O143 O -0.0185 0.69819 0.84743 0.0
Cd144 Cd -0.00458 0.67913 0.77428 0.0
C145 C 0.04169 0.75588 0.7566 0.0
O146 O 0.04391 0.63738 0.79091 0.0
O147 O 0.03783 0.6507 0.72537 0.0
O148 O 0.94736 0.63572 0.78279 0.0
C149 C 0.05287 0.63176 0.7533 0.0
O150 O 0.06606 0.74153 0.7789 0.0
C151 C 0.93066 0.64383 0.74956 0.0
O152 O 0.01147 0.74056 0.75059 0.0
O153 O 0.94307 0.66951 0.72767 0.0
C154 C 0.74666 -0.00054 0.38027 0.0
O155 O 0.74929 0.0334 0.38082 0.0
Cd156 Cd 0.7635 0.07013 0.32219 0.0
O157 O 0.75275 -0.01855 0.34714 0.0
Cd158 Cd 0.77277 -0.00479 0.27422 0.0
C159 C 0.69676 0.04223 0.25499 0.0
O160 O 0.81492 0.04325 0.29113 0.0
O161 O 0.8019 0.03731 0.22551 0.0
O162 O 0.81591 0.94693 0.28299 0.0
C163 C 0.82091 0.05207 0.25355 0.0
O164 O 0.71106 0.06648 0.27744 0.0
C165 C 0.80787 0.93035 0.24969 0.0
O166 O 0.71185 0.01184 0.24941 0.0
O167 O 0.78228 0.94288 0.22771 0.0
C168 C 0.45309 0.70545 0.07083 0.0
O169 O 0.41917 0.70261 0.06971 0.0
Cd170 Cd 0.38178 0.68828 0.12769 0.0
O171 O 0.4708 0.69938 0.10423 0.0
Cd172 Cd 0.45657 0.67904 0.17688 0.0
C173 C 0.40916 0.75513 0.19505 0.0
O174 O 0.40859 0.63701 0.15923 0.0
O175 O 0.41415 0.64963 0.22499 0.0
O176 O 0.50506 0.63615 0.16801 0.0
C177 C 0.39942 0.6309 0.19667 0.0
O178 O 0.38512 0.7408 0.17228 0.0
C179 C 0.52158 0.64398 0.20142 0.0
O180 O 0.43948 0.74001 0.20122 0.0
O181 O 0.50887 0.66929 0.22364 0.0
C182 C 0.74705 0.45173 0.57107 0.0
O183 O 0.74922 0.41775 0.57069 0.0
Cd184 Cd 0.7625 0.38122 0.62985 0.0
O185 O 0.7531 0.46975 0.6042 0.0
Cd186 Cd 0.77241 0.45629 0.67739 0.0
C187 C 0.69566 0.41012 0.69634 0.0
O188 O 0.81411 0.40771 0.66107 0.0
O189 O 0.80149 0.41454 0.72667 0.0
O190 O 0.81584 0.50414 0.66751 0.0
C191 C 0.82018 0.39922 0.69876 0.0
O192 O 0.70982 0.38564 0.67409 0.0
C193 C 0.80803 0.52129 0.70047 0.0
O194 O 0.71109 0.44034 0.70191 0.0
O195 O 0.7825 0.50922 0.72284 0.0
C196 C -0.00052 0.7458 0.07083 0.0
O197 O 0.03342 0.74857 0.06999 0.0
Cd198 Cd 0.07049 0.76296 0.12827 0.0
O199 O -0.01837 0.75195 0.10405 0.0
Cd200 Cd -0.00454 0.77247 0.17666 0.0
C201 C 0.04263 0.69645 0.19594 0.0
O202 O 0.04357 0.81434 0.15924 0.0
O203 O 0.03756 0.80198 0.22503 0.0
O204 O 0.9472 0.81548 0.16674 0.0
C205 C 0.05249 0.82058 0.19674 0.0
O206 O 0.06678 0.71067 0.17325 0.0
C207 C 0.93047 0.80794 0.2001 0.0
O208 O 0.01228 0.71159 0.20171 0.0
O209 O 0.94294 0.78273 0.22271 0.0
C210 C 0.70529 -0.00023 0.57083 0.0
O211 O 0.70317 0.03376 0.57035 0.0
Cd212 Cd 0.68928 0.07045 0.62905 0.0
O213 O 0.69889 -0.01823 0.6039 0.0
Cd214 Cd 0.67888 -0.00457 0.67679 0.0
C215 C 0.75537 0.0416 0.69674 0.0
O216 O 0.63738 0.04397 0.65949 0.0
O217 O 0.64941 0.03744 0.72531 0.0
O218 O 0.63558 0.94748 0.66679 0.0
C219 C 0.63098 0.05263 0.69702 0.0
O220 O 0.74143 0.06603 0.67418 0.0
C221 C 0.64303 0.93063 0.70012 0.0
O222 O 0.73992 0.01137 0.7022 0.0
O223 O 0.66832 0.94289 0.72274 0.0
C224 C 0.37615 0.10227 0.22308 0.0
C225 C 0.40092 0.12209 0.21525 0.0
C226 C 0.34978 0.07585 0.23141 0.0
C227 C 0.32994 0.05098 0.23883 0.0
C228 C 0.34791 0.37438 0.72229 0.0
C229 C 0.32831 0.39939 0.71469 0.0
C230 C 0.37439 0.34801 0.73047 0.0
C231 C 0.3995 0.32847 0.73791 0.0
C232 C 0.07629 0.34939 0.22011 0.0
C233 C 0.05139 0.32959 0.21276 0.0
C234 C 0.10275 0.37575 0.22836 0.0
C235 C 0.12258 0.40052 0.23615 0.0
C236 C 0.10165 0.07538 0.72152 0.0
C237 C 0.12158 0.05064 0.71395 0.0
C238 C 0.0752 0.10173 0.72978 0.0
C239 C 0.05039 0.12156 0.73744 0.0
C240 C 0.57554 0.84898 0.7285 0.0
C241 C 0.55076 0.82915 0.73631 0.0
C242 C 0.60186 0.87545 0.72018 0.0
C243 C 0.62161 0.90037 0.71273 0.0
C244 C 0.57704 0.60331 0.22202 0.0
C245 C 0.55202 0.62296 0.21451 0.0
C246 C 0.60349 0.57686 0.23008 0.0
C247 C 0.62315 0.55182 0.2375 0.0
C248 C 0.87547 0.60303 0.72855 0.0
C249 C 0.90037 0.62274 0.73628 0.0
C250 C 0.84907 0.57662 0.72033 0.0
C251 C 0.82933 0.55166 0.71301 0.0
C252 C 0.8487 0.87524 0.22859 0.0
C253 C 0.82899 0.90011 0.23638 0.0
C254 C 0.87515 0.8489 0.22025 0.0
C255 C 0.90014 0.82923 0.21279 0.0
C256 C 0.56394 0.31697 0.22714 0.0
C257 C 0.55027 0.28938 0.21542 0.0
C258 C 0.58544 0.34695 0.23745 0.0
C259 C 0.60634 0.3708 0.24513 0.0
C260 C 0.13503 0.56469 0.72518 0.0
C261 C 0.16264 0.55088 0.71376 0.0
C262 C 0.10506 0.58624 0.73543 0.0
C263 C 0.08121 0.60707 0.74333 0.0
C264 C 0.86721 0.10359 0.23581 0.0
C265 C 0.84603 0.08005 0.24368 0.0
C266 C 0.88892 0.13344 0.2256 0.0
C267 C 0.90257 0.16114 0.21424 0.0
C268 C 0.31789 0.88859 0.72574 0.0
C269 C 0.29022 0.90233 0.71436 0.0
C270 C 0.34762 0.86669 0.73597 0.0
C271 C 0.37103 0.84534 0.74385 0.0
C272 C 0.56337 0.13447 0.72439 0.0
C273 C 0.54974 0.16212 0.73594 0.0
C274 C 0.58496 0.10453 0.71424 0.0
C275 C 0.60601 0.08081 0.7066 0.0
C276 C 0.34731 0.58508 0.21381 0.0
C277 C 0.37111 0.60602 0.20608 0.0
C278 C 0.31736 0.56355 0.22418 0.0
C279 C 0.28978 0.54988 0.23592 0.0
C280 C 0.86637 0.34763 0.71682 0.0
C281 C 0.84522 0.37122 0.70891 0.0
C282 C 0.88809 0.31774 0.72695 0.0
C283 C 0.9018 0.29002 0.73822 0.0
C284 C 0.10456 0.86642 0.21394 0.0
C285 C 0.08077 0.84546 0.20626 0.0
C286 C 0.13451 0.88796 0.2242 0.0
C287 C 0.16211 0.90163 0.23587 0.0
C288 C 0.3671 0.60354 0.71573 0.0
C289 C 0.34605 0.57989 0.70774 0.0
C290 C 0.38862 0.63349 0.72611 0.0
C291 C 0.40214 0.66123 0.73756 0.0
C292 C 0.84716 0.36521 0.21631 0.0
C293 C 0.87086 0.34422 0.20831 0.0
C294 C 0.81727 0.38685 0.22655 0.0
C295 C 0.78962 0.40066 0.23786 0.0
C296 C 0.06341 0.81782 0.72698 0.0
C297 C 0.04967 0.79012 0.73819 0.0
C298 C 0.08524 0.84756 0.71678 0.0
C299 C 0.10651 0.871 0.70877 0.0
C300 C 0.60509 0.08563 0.21457 0.0
C301 C 0.58126 0.10657 0.20693 0.0
C302 C 0.63506 0.06408 0.22471 0.0
C303 C 0.66268 0.05036 0.23625 0.0
C304 C 0.38706 0.81685 0.22499 0.0
C305 C 0.40081 0.78921 0.21361 0.0
C306 C 0.36554 0.8468 0.23531 0.0
C307 C 0.34465 0.87057 0.24335 0.0
C308 C 0.63379 0.38867 0.72654 0.0
C309 C 0.66149 0.40229 0.71505 0.0
C310 C 0.60388 0.36703 0.73681 0.0
C311 C 0.58025 0.34589 0.74458 0.0
C312 C 0.08624 0.60484 0.23646 0.0
C313 C 0.10714 0.58099 0.24421 0.0
C314 C 0.06467 0.63481 0.22626 0.0
C315 C 0.05088 0.66241 0.21474 0.0
C316 C 0.84671 0.085 0.73783 0.0
C317 C 0.8703 0.10619 0.74553 0.0
C318 C 0.81693 0.06321 0.72756 0.0
C319 C 0.78936 0.04947 0.71586 0.0
C320 C 0.47349 0.22079 -0.003 0.0
C321 C 0.48133 0.21344 0.03255 0.0
C322 C 0.47366 0.22926 0.95402 0.0
C323 C 0.48169 0.23689 0.91861 0.0
C324 C 0.22257 0.47274 0.45393 0.0
C325 C 0.21489 0.48063 0.41848 0.0
C326 C 0.2312 0.47288 0.49688 0.0
C327 C 0.23868 0.48094 0.53232 0.0
C328 C -0.02088 0.22941 -0.00236 0.0
C329 C 0.97089 0.23705 0.03295 0.0
C330 C -0.02066 0.2208 0.95473 0.0
C331 C 0.97133 0.21334 0.91929 0.0
C332 C 0.22862 -0.02235 0.45387 0.0
C333 C 0.23644 0.96968 0.41852 0.0
C334 C 0.22001 -0.02227 0.49679 0.0
C335 C 0.2127 0.96984 0.53233 0.0
C336 C 0.47909 0.73129 0.95457 0.0
C337 C 0.47094 0.73862 0.91911 0.0
C338 C 0.47923 0.72263 -0.00251 0.0
C339 C 0.47126 0.71476 0.03284 0.0
C340 C 0.7312 0.47776 0.49716 0.0
C341 C 0.73853 0.46962 0.53262 0.0
C342 C 0.72259 0.47806 0.45423 0.0
C343 C 0.71479 0.47027 0.41882 0.0
C344 C 0.97342 0.72873 -0.00261 0.0
C345 C -0.01855 0.73655 0.03273 0.0
C346 C 0.97338 0.72007 0.9545 0.0
C347 C -0.01865 0.71269 0.91903 0.0
C348 C 0.72145 0.97393 0.49701 0.0
C349 C 0.71397 -0.01811 0.53246 0.0
C350 C 0.73 0.97382 0.45407 0.0
C351 C 0.73764 -0.01837 0.4186 0.0
loop_
_geom_bond_atom_site_label_1
_geom_bond_atom_site_label_2
_geom_bond_distance
_geom_bond_site_symmetry_2
_ccdc_geom_bond_type
C0 O1 1.306 . S
C0 O3 1.160 . S
O1 C0 1.306 . S
O1 Cd2 2.228 . S
Cd2 O1 2.228 . S
Cd2 O6 2.273 . S
Cd2 O10 2.277 . S
O3 C0 1.160 . S
O3 Cd4 2.203 . S
Cd4 O3 2.203 . S
Cd4 O6 2.411 . S
Cd4 O7 2.333 . S
Cd4 O8 2.352 . S
Cd4 O12 2.277 . S
Cd4 O13 2.356 . S
C5 O10 1.209 . S
C5 O12 1.226 . S
O6 Cd2 2.273 . S
O6 Cd4 2.411 . S
O6 C9 1.320 . S
O7 Cd4 2.333 . S
O7 C9 1.214 . S
O8 Cd4 2.352 . S
O8 C11 1.258 . S
C9 O6 1.320 . S
C9 O7 1.214 . S
O10 Cd2 2.277 . S
O10 C5 1.209 . S
C11 O8 1.258 . S
C11 O13 1.282 . S
O12 Cd4 2.277 . S
O12 C5 1.226 . S
O13 Cd4 2.356 . S
O13 C11 1.282 . S
C14 O15 1.306 . S
C14 O17 1.160 . S
O15 C14 1.306 . S
O15 Cd16 2.228 . S
Cd16 O15 2.228 . S
Cd16 O20 2.273 . S
Cd16 O24 2.277 . S
O17 C14 1.160 . S
O17 Cd18 2.203 . S
Cd18 O17 2.203 . S
Cd18 O20 2.411 . S
Cd18 O21 2.333 . S
Cd18 O22 2.352 . S
Cd18 O26 2.277 . S
Cd18 O27 2.356 . S
C19 O24 1.209 . S
C19 O26 1.226 . S
O20 Cd16 2.273 . S
O20 Cd18 2.411 . S
O20 C23 1.320 . S
O21 Cd18 2.333 . S
O21 C23 1.214 . S
O22 Cd18 2.352 . S
O22 C25 1.258 . S
C23 O20 1.320 . S
C23 O21 1.214 . S
O24 Cd16 2.277 . S
O24 C19 1.209 . S
C25 O22 1.258 . S
C25 O27 1.282 . S
O26 Cd18 2.277 . S
O26 C19 1.226 . S
O27 Cd18 2.356 . S
O27 C25 1.282 . S
C28 O29 1.306 . S
C28 O31 1.160 1_655 S
O29 C28 1.306 . S
O29 Cd30 2.228 . S
Cd30 O29 2.228 . S
Cd30 O34 2.273 . S
Cd30 O38 2.277 . S
O31 C28 1.160 1_455 S
O31 Cd32 2.203 1_455 S
Cd32 O31 2.203 1_655 S
Cd32 O34 2.411 . S
Cd32 O35 2.333 . S
Cd32 O36 2.352 1_655 S
Cd32 O40 2.277 . S
Cd32 O41 2.356 1_655 S
C33 O38 1.209 . S
C33 O40 1.226 . S
O34 Cd30 2.273 . S
O34 Cd32 2.411 . S
O34 C37 1.320 . S
O35 Cd32 2.333 . S
O35 C37 1.214 . S
O36 Cd32 2.352 1_455 S
O36 C39 1.258 . S
C37 O34 1.320 . S
C37 O35 1.214 . S
O38 Cd30 2.277 . S
O38 C33 1.209 . S
C39 O36 1.258 . S
C39 O41 1.282 . S
O40 Cd32 2.277 . S
O40 C33 1.226 . S
O41 Cd32 2.356 1_455 S
O41 C39 1.282 . S
C42 O43 1.306 . S
C42 O45 1.160 1_565 S
O43 C42 1.306 . S
O43 Cd44 2.228 . S
Cd44 O43 2.228 . S
Cd44 O48 2.273 . S
Cd44 O52 2.277 . S
O45 C42 1.160 1_545 S
O45 Cd46 2.203 1_545 S
Cd46 O45 2.203 1_565 S
Cd46 O48 2.411 . S
Cd46 O49 2.333 . S
Cd46 O50 2.352 1_565 S
Cd46 O54 2.277 . S
Cd46 O55 2.356 1_565 S
C47 O52 1.209 . S
C47 O54 1.226 . S
O48 Cd44 2.273 . S
O48 Cd46 2.411 . S
O48 C51 1.320 . S
O49 Cd46 2.333 . S
O49 C51 1.214 . S
O50 Cd46 2.352 1_545 S
O50 C53 1.258 . S
C51 O48 1.320 . S
C51 O49 1.214 . S
O52 Cd44 2.277 . S
O52 C47 1.209 . S
C53 O50 1.258 . S
C53 O55 1.282 . S
O54 Cd46 2.277 . S
O54 C47 1.226 . S
O55 Cd46 2.356 1_545 S
O55 C53 1.282 . S
C56 O57 1.306 . S
C56 O59 1.160 . S
O57 C56 1.306 . S
O57 Cd58 2.228 . S
Cd58 O57 2.228 . S
Cd58 O62 2.273 . S
Cd58 O66 2.277 . S
O59 C56 1.160 . S
O59 Cd60 2.203 . S
Cd60 O59 2.203 . S
Cd60 O62 2.411 . S
Cd60 O63 2.333 . S
Cd60 O64 2.352 . S
Cd60 O68 2.277 . S
Cd60 O69 2.356 . S
C61 O66 1.209 . S
C61 O68 1.226 . S
O62 Cd58 2.273 . S
O62 Cd60 2.411 . S
O62 C65 1.320 . S
O63 Cd60 2.333 . S
O63 C65 1.214 . S
O64 Cd60 2.352 . S
O64 C67 1.258 . S
C65 O62 1.320 . S
C65 O63 1.214 . S
O66 Cd58 2.277 . S
O66 C61 1.209 . S
C67 O64 1.258 . S
C67 O69 1.282 . S
O68 Cd60 2.277 . S
O68 C61 1.226 . S
O69 Cd60 2.356 . S
O69 C67 1.282 . S
C70 O71 1.306 . S
C70 O73 1.160 . S
O71 C70 1.306 . S
O71 Cd72 2.228 . S
Cd72 O71 2.228 . S
Cd72 O76 2.273 . S
Cd72 O80 2.277 . S
O73 C70 1.160 . S
O73 Cd74 2.203 . S
Cd74 O73 2.203 . S
Cd74 O76 2.411 . S
Cd74 O77 2.333 . S
Cd74 O78 2.352 . S
Cd74 O82 2.277 . S
Cd74 O83 2.356 . S
C75 O80 1.209 . S
C75 O82 1.226 . S
O76 Cd72 2.273 . S
O76 Cd74 2.411 . S
O76 C79 1.320 . S
O77 Cd74 2.333 . S
O77 C79 1.214 . S
O78 Cd74 2.352 . S
O78 C81 1.258 . S
C79 O76 1.320 . S
C79 O77 1.214 . S
O80 Cd72 2.277 . S
O80 C75 1.209 . S
C81 O78 1.258 . S
C81 O83 1.282 . S
O82 Cd74 2.277 . S
O82 C75 1.226 . S
O83 Cd74 2.356 . S
O83 C81 1.282 . S
C84 O85 1.306 . S
C84 O87 1.160 1_655 S
O85 C84 1.306 . S
O85 Cd86 2.228 . S
Cd86 O85 2.228 . S
Cd86 O90 2.273 . S
Cd86 O94 2.277 . S
O87 C84 1.160 1_455 S
O87 Cd88 2.203 1_455 S
Cd88 O87 2.203 1_655 S
Cd88 O90 2.411 . S
Cd88 O91 2.333 . S
Cd88 O92 2.352 1_655 S
Cd88 O96 2.277 . S
Cd88 O97 2.356 1_655 S
C89 O94 1.209 . S
C89 O96 1.226 . S
O90 Cd86 2.273 . S
O90 Cd88 2.411 . S
O90 C93 1.320 . S
O91 Cd88 2.333 . S
O91 C93 1.214 . S
O92 Cd88 2.352 1_455 S
O92 C95 1.258 . S
C93 O90 1.320 . S
C93 O91 1.214 . S
O94 Cd86 2.277 . S
O94 C89 1.209 . S
C95 O92 1.258 . S
C95 O97 1.282 . S
O96 Cd88 2.277 . S
O96 C89 1.226 . S
O97 Cd88 2.356 1_455 S
O97 C95 1.282 . S
C98 O99 1.306 . S
C98 O101 1.160 1_565 S
O99 C98 1.306 . S
O99 Cd100 2.228 . S
Cd100 O99 2.228 . S
Cd100 O104 2.273 . S
Cd100 O108 2.277 . S
O101 C98 1.160 1_545 S
O101 Cd102 2.203 1_545 S
Cd102 O101 2.203 1_565 S
Cd102 O104 2.411 . S
Cd102 O105 2.333 . S
Cd102 O106 2.352 1_565 S
Cd102 O110 2.277 . S
Cd102 O111 2.356 1_565 S
C103 O108 1.209 . S
C103 O110 1.226 . S
O104 Cd100 2.273 . S
O104 Cd102 2.411 . S
O104 C107 1.320 . S
O105 Cd102 2.333 . S
O105 C107 1.214 . S
O106 Cd102 2.352 1_545 S
O106 C109 1.258 . S
C107 O104 1.320 . S
C107 O105 1.214 . S
O108 Cd100 2.277 . S
O108 C103 1.209 . S
C109 O106 1.258 . S
C109 O111 1.282 . S
O110 Cd102 2.277 . S
O110 C103 1.226 . S
O111 Cd102 2.356 1_545 S
O111 C109 1.282 . S
C112 O113 1.306 . S
C112 O115 1.160 . S
O113 C112 1.306 . S
O113 Cd114 2.228 . S
Cd114 O113 2.228 . S
Cd114 O118 2.273 . S
Cd114 O122 2.277 . S
O115 C112 1.160 . S
O115 Cd116 2.203 . S
Cd116 O115 2.203 . S
Cd116 O118 2.411 . S
Cd116 O119 2.333 . S
Cd116 O120 2.352 . S
Cd116 O124 2.277 . S
Cd116 O125 2.356 . S
C117 O122 1.209 . S
C117 O124 1.226 . S
O118 Cd114 2.273 . S
O118 Cd116 2.411 . S
O118 C121 1.320 . S
O119 Cd116 2.333 . S
O119 C121 1.214 . S
O120 Cd116 2.352 . S
O120 C123 1.258 . S
C121 O118 1.320 . S
C121 O119 1.214 . S
O122 Cd114 2.277 . S
O122 C117 1.209 . S
C123 O120 1.258 . S
C123 O125 1.282 . S
O124 Cd116 2.277 . S
O124 C117 1.226 . S
O125 Cd116 2.356 . S
O125 C123 1.282 . S
C126 O127 1.306 . S
C126 O129 1.160 . S
O127 C126 1.306 . S
O127 Cd128 2.228 . S
Cd128 O127 2.228 . S
Cd128 O132 2.273 . S
Cd128 O136 2.277 . S
O129 C126 1.160 . S
O129 Cd130 2.203 . S
Cd130 O129 2.203 . S
Cd130 O132 2.411 . S
Cd130 O133 2.333 . S
Cd130 O134 2.352 . S
Cd130 O138 2.277 . S
Cd130 O139 2.356 . S
C131 O136 1.209 . S
C131 O138 1.226 . S
O132 Cd128 2.273 . S
O132 Cd130 2.411 . S
O132 C135 1.320 . S
O133 Cd130 2.333 . S
O133 C135 1.214 . S
O134 Cd130 2.352 . S
O134 C137 1.258 . S
C135 O132 1.320 . S
C135 O133 1.214 . S
O136 Cd128 2.277 . S
O136 C131 1.209 . S
C137 O134 1.258 . S
C137 O139 1.282 . S
O138 Cd130 2.277 . S
O138 C131 1.226 . S
O139 Cd130 2.356 . S
O139 C137 1.282 . S
C140 O141 1.306 . S
C140 O143 1.160 1_455 S
O141 C140 1.306 . S
O141 Cd142 2.228 . S
Cd142 O141 2.228 . S
Cd142 O146 2.273 . S
Cd142 O150 2.277 . S
O143 C140 1.160 1_655 S
O143 Cd144 2.203 1_655 S
Cd144 O143 2.203 1_455 S
Cd144 O146 2.411 . S
Cd144 O147 2.333 . S
Cd144 O148 2.352 1_455 S
Cd144 O152 2.277 . S
Cd144 O153 2.356 1_455 S
C145 O150 1.209 . S
C145 O152 1.226 . S
O146 Cd142 2.273 . S
O146 Cd144 2.411 . S
O146 C149 1.320 . S
O147 Cd144 2.333 . S
O147 C149 1.214 . S
O148 Cd144 2.352 1_655 S
O148 C151 1.258 . S
C149 O146 1.320 . S
C149 O147 1.214 . S
O150 Cd142 2.277 . S
O150 C145 1.209 . S
C151 O148 1.258 . S
C151 O153 1.282 . S
O152 Cd144 2.277 . S
O152 C145 1.226 . S
O153 Cd144 2.356 1_655 S
O153 C151 1.282 . S
C154 O155 1.306 . S
C154 O157 1.160 1_545 S
O155 C154 1.306 . S
O155 Cd156 2.228 . S
Cd156 O155 2.228 . S
Cd156 O160 2.273 . S
Cd156 O164 2.277 . S
O157 C154 1.160 1_565 S
O157 Cd158 2.203 1_565 S
Cd158 O157 2.203 1_545 S
Cd158 O160 2.411 . S
Cd158 O161 2.333 . S
Cd158 O162 2.352 1_545 S
Cd158 O166 2.277 . S
Cd158 O167 2.356 1_545 S
C159 O164 1.209 . S
C159 O166 1.226 . S
O160 Cd156 2.273 . S
O160 Cd158 2.411 . S
O160 C163 1.320 . S
O161 Cd158 2.333 . S
O161 C163 1.214 . S
O162 Cd158 2.352 1_565 S
O162 C165 1.258 . S
C163 O160 1.320 . S
C163 O161 1.214 . S
O164 Cd156 2.277 . S
O164 C159 1.209 . S
C165 O162 1.258 . S
C165 O167 1.282 . S
O166 Cd158 2.277 . S
O166 C159 1.226 . S
O167 Cd158 2.356 1_565 S
O167 C165 1.282 . S
C168 O169 1.306 . S
C168 O171 1.160 . S
O169 C168 1.306 . S
O169 Cd170 2.228 . S
Cd170 O169 2.228 . S
Cd170 O174 2.273 . S
Cd170 O178 2.277 . S
O171 C168 1.160 . S
O171 Cd172 2.203 . S
Cd172 O171 2.203 . S
Cd172 O174 2.411 . S
Cd172 O175 2.333 . S
Cd172 O176 2.352 . S
Cd172 O180 2.277 . S
Cd172 O181 2.356 . S
C173 O178 1.209 . S
C173 O180 1.226 . S
O174 Cd170 2.273 . S
O174 Cd172 2.411 . S
O174 C177 1.320 . S
O175 Cd172 2.333 . S
O175 C177 1.214 . S
O176 Cd172 2.352 . S
O176 C179 1.258 . S
C177 O174 1.320 . S
C177 O175 1.214 . S
O178 Cd170 2.277 . S
O178 C173 1.209 . S
C179 O176 1.258 . S
C179 O181 1.282 . S
O180 Cd172 2.277 . S
O180 C173 1.226 . S
O181 Cd172 2.356 . S
O181 C179 1.282 . S
C182 O183 1.306 . S
C182 O185 1.160 . S
O183 C182 1.306 . S
O183 Cd184 2.228 . S
Cd184 O183 2.228 . S
Cd184 O188 2.273 . S
Cd184 O192 2.277 . S
O185 C182 1.160 . S
O185 Cd186 2.203 . S
Cd186 O185 2.203 . S
Cd186 O188 2.411 . S
Cd186 O189 2.333 . S
Cd186 O190 2.352 . S
Cd186 O194 2.277 . S
Cd186 O195 2.356 . S
C187 O192 1.209 . S
C187 O194 1.226 . S
O188 Cd184 2.273 . S
O188 Cd186 2.411 . S
O188 C191 1.320 . S
O189 Cd186 2.333 . S
O189 C191 1.214 . S
O190 Cd186 2.352 . S
O190 C193 1.258 . S
C191 O188 1.320 . S
C191 O189 1.214 . S
O192 Cd184 2.277 . S
O192 C187 1.209 . S
C193 O190 1.258 . S
C193 O195 1.282 . S
O194 Cd186 2.277 . S
O194 C187 1.226 . S
O195 Cd186 2.356 . S
O195 C193 1.282 . S
C196 O197 1.306 . S
C196 O199 1.160 1_455 S
O197 C196 1.306 . S
O197 Cd198 2.228 . S
Cd198 O197 2.228 . S
Cd198 O202 2.273 . S
Cd198 O206 2.277 . S
O199 C196 1.160 1_655 S
O199 Cd200 2.203 1_655 S
Cd200 O199 2.203 1_455 S
Cd200 O202 2.411 . S
Cd200 O203 2.333 . S
Cd200 O204 2.352 1_455 S
Cd200 O208 2.277 . S
Cd200 O209 2.356 1_455 S
C201 O206 1.209 . S
C201 O208 1.226 . S
O202 Cd198 2.273 . S
O202 Cd200 2.411 . S
O202 C205 1.320 . S
O203 Cd200 2.333 . S
O203 C205 1.214 . S
O204 Cd200 2.352 1_655 S
O204 C207 1.258 . S
C205 O202 1.320 . S
C205 O203 1.214 . S
O206 Cd198 2.277 . S
O206 C201 1.209 . S
C207 O204 1.258 . S
C207 O209 1.282 . S
O208 Cd200 2.277 . S
O208 C201 1.226 . S
O209 Cd200 2.356 1_655 S
O209 C207 1.282 . S
C210 O211 1.306 . S
C210 O213 1.160 1_545 S
O211 C210 1.306 . S
O211 Cd212 2.228 . S
Cd212 O211 2.228 . S
Cd212 O216 2.273 . S
Cd212 O220 2.277 . S
O213 C210 1.160 1_565 S
O213 Cd214 2.203 1_565 S
Cd214 O213 2.203 1_545 S
Cd214 O216 2.411 . S
Cd214 O217 2.333 . S
Cd214 O218 2.352 1_545 S
Cd214 O222 2.277 . S
Cd214 O223 2.356 1_545 S
C215 O220 1.209 . S
C215 O222 1.226 . S
O216 Cd212 2.273 . S
O216 Cd214 2.411 . S
O216 C219 1.320 . S
O217 Cd214 2.333 . S
O217 C219 1.214 . S
O218 Cd214 2.352 1_565 S
O218 C221 1.258 . S
C219 O216 1.320 . S
C219 O217 1.214 . S
O220 Cd212 2.277 . S
O220 C215 1.209 . S
C221 O218 1.258 . S
C221 O223 1.282 . S
O222 Cd214 2.277 . S
O222 C215 1.226 . S
O223 Cd214 2.356 1_565 S
O223 C221 1.282 . S
C224 C225 1.170 . S
C224 C226 1.380 . S
C225 C224 1.170 . S
C226 C224 1.380 . S
C226 C227 1.170 . S
C227 C226 1.170 . S
C228 C229 1.170 . S
C228 C230 1.380 . S
C229 C228 1.170 . S
C230 C228 1.380 . S
C230 C231 1.170 . S
C231 C230 1.170 . S
C232 C233 1.170 . S
C232 C234 1.380 . S
C233 C232 1.170 . S
C234 C232 1.380 . S
C234 C235 1.170 . S
C235 C234 1.170 . S
C236 C237 1.170 . S
C236 C238 1.380 . S
C237 C236 1.170 . S
C238 C236 1.380 . S
C238 C239 1.170 . S
C239 C238 1.170 . S
C240 C241 1.170 . S
C240 C242 1.380 . S
C241 C240 1.170 . S
C242 C240 1.380 . S
C242 C243 1.170 . S
C243 C242 1.170 . S
C244 C245 1.170 . S
C244 C246 1.380 . S
C245 C244 1.170 . S
C246 C244 1.380 . S
C246 C247 1.170 . S
C247 C246 1.170 . S
C248 C249 1.170 . S
C248 C250 1.380 . S
C249 C248 1.170 . S
C250 C248 1.380 . S
C250 C251 1.170 . S
C251 C250 1.170 . S
C252 C253 1.170 . S
C252 C254 1.380 . S
C253 C252 1.170 . S
C254 C252 1.380 . S
C254 C255 1.170 . S
C255 C254 1.170 . S
C256 C257 1.170 . S
C256 C258 1.380 . S
C257 C256 1.170 . S
C258 C256 1.380 . S
C258 C259 1.170 . S
C259 C258 1.170 . S
C260 C261 1.170 . S
C260 C262 1.380 . S
C261 C260 1.170 . S
C262 C260 1.380 . S
C262 C263 1.170 . S
C263 C262 1.170 . S
C264 C265 1.170 . S
C264 C266 1.380 . S
C265 C264 1.170 . S
C266 C264 1.380 . S
C266 C267 1.170 . S
C267 C266 1.170 . S
C268 C269 1.170 . S
C268 C270 1.380 . S
C269 C268 1.170 . S
C270 C268 1.380 . S
C270 C271 1.170 . S
C271 C270 1.170 . S
C272 C273 1.170 . S
C272 C274 1.380 . S
C273 C272 1.170 . S
C274 C272 1.380 . S
C274 C275 1.170 . S
C275 C274 1.170 . S
C276 C277 1.170 . S
C276 C278 1.380 . S
C277 C276 1.170 . S
C278 C276 1.380 . S
C278 C279 1.170 . S
C279 C278 1.170 . S
C280 C281 1.170 . S
C280 C282 1.380 . S
C281 C280 1.170 . S
C282 C280 1.380 . S
C282 C283 1.170 . S
C283 C282 1.170 . S
C284 C285 1.170 . S
C284 C286 1.380 . S
C285 C284 1.170 . S
C286 C284 1.380 . S
C286 C287 1.170 . S
C287 C286 1.170 . S
C288 C289 1.170 . S
C288 C290 1.380 . S
C289 C288 1.170 . S
C290 C288 1.380 . S
C290 C291 1.170 . S
C291 C290 1.170 . S
C292 C293 1.170 . S
C292 C294 1.380 . S
C293 C292 1.170 . S
C294 C292 1.380 . S
C294 C295 1.170 . S
C295 C294 1.170 . S
C296 C297 1.170 . S
C296 C298 1.380 . S
C297 C296 1.170 . S
C298 C296 1.380 . S
C298 C299 1.170 . S
C299 C298 1.170 . S
C300 C301 1.170 . S
C300 C302 1.380 . S
C301 C300 1.170 . S
C302 C300 1.380 . S
C302 C303 1.170 . S
C303 C302 1.170 . S
C304 C305 1.170 . S
C304 C306 1.380 . S
C305 C304 1.170 . S
C306 C304 1.380 . S
C306 C307 1.170 . S
C307 C306 1.170 . S
C308 C309 1.170 . S
C308 C310 1.380 . S
C309 C308 1.170 . S
C310 C308 1.380 . S
C310 C311 1.170 . S
C311 C310 1.170 . S
C312 C313 1.170 . S
C312 C314 1.380 . S
C313 C312 1.170 . S
C314 C312 1.380 . S
C314 C315 1.170 . S
C315 C314 1.170 . S
C316 C317 1.170 . S
C316 C318 1.380 . S
C317 C316 1.170 . S
C318 C316 1.380 . S
C318 C319 1.170 . S
C319 C318 1.170 . S
C320 C321 1.170 . S
C320 C322 1.380 1_554 S
C321 C320 1.170 . S
C322 C320 1.380 1_556 S
C322 C323 1.170 . S
C323 C322 1.170 . S
C324 C325 1.170 . S
C324 C326 1.380 . S
C325 C324 1.170 . S
C326 C324 1.380 . S
C326 C327 1.170 . S
C327 C326 1.170 . S
C328 C329 1.170 . S
C328 C330 1.380 1_554 S
C329 C328 1.170 . S
C330 C328 1.380 1_556 S
C330 C331 1.170 . S
C331 C330 1.170 . S
C332 C333 1.170 . S
C332 C334 1.380 . S
C333 C332 1.170 . S
C334 C332 1.380 . S
C334 C335 1.170 . S
C335 C334 1.170 . S
C336 C337 1.170 . S
C336 C338 1.380 1_556 S
C337 C336 1.170 . S
C338 C336 1.380 1_554 S
C338 C339 1.170 . S
C339 C338 1.170 . S
C340 C341 1.170 . S
C340 C342 1.380 . S
C341 C340 1.170 . S
C342 C340 1.380 . S
C342 C343 1.170 . S
C343 C342 1.170 . S
C344 C345 1.170 . S
C344 C346 1.380 1_554 S
C345 C344 1.170 . S
C346 C344 1.380 1_556 S
C346 C347 1.170 . S
C347 C346 1.170 . S
C348 C349 1.170 . S
C348 C350 1.380 . S
C349 C348 1.170 . S
C350 C348 1.380 . S
C350 C351 1.170 . S
C351 C350 1.170 . S
C225 C11 1.355 . S
C227 C109 1.361 . S
C229 C25 1.371 . S
C231 C67 1.372 . S
C233 C39 1.366 . S
C235 C81 1.358 . S
C237 C53 1.355 . S
C239 C95 1.355 . S
C241 C123 1.354 . S
C243 C221 1.368 . S
C245 C179 1.367 . S
C247 C137 1.368 . S
C249 C151 1.356 . S
C251 C193 1.373 . S
C253 C165 1.355 . S
C255 C207 1.371 . S
C257 C5 1.460 . S
C259 C135 1.489 . S
C261 C19 1.450 . S
C263 C149 1.494 . S
C265 C163 1.485 . S
C267 C33 1.477 . S
C269 C47 1.478 . S
C271 C121 1.484 . S
C273 C61 1.471 . S
C275 C219 1.486 . S
C277 C177 1.486 . S
C279 C75 1.468 . S
C281 C191 1.487 . S
C283 C89 1.472 . S
C285 C205 1.488 . S
C287 C103 1.462 . S
C289 C23 1.484 . S
C291 C117 1.474 . S
C293 C37 1.488 . S
C295 C131 1.454 . S
C297 C145 1.462 . S
C299 C51 1.485 . S
C301 C9 1.493 . S
C303 C159 1.462 . S
C305 C173 1.453 . S
C307 C107 1.488 . S
C309 C187 1.478 . S
C311 C65 1.486 . S
C313 C79 1.493 . S
C315 C201 1.451 . S
C317 C93 1.489 . S
C319 C215 1.476 . S
C321 C0 1.555 . S
C323 C56 1.552 . S
C325 C70 1.562 . S
C327 C14 1.568 . S
C329 C28 1.573 . S
C331 C84 1.576 . S
C333 C98 1.558 . S
C335 C42 1.564 . S
C337 C112 1.565 . S
C339 C168 1.573 . S
C341 C182 1.554 . S
C343 C126 1.562 . S
C345 C196 1.556 . S
C347 C140 1.552 . S
C349 C210 1.552 . S
C351 C154 1.554 . S
