# Generated by pormake.
# Topology zfc, (5)-cn, num edge types: 1
# Building blocks:
#     Node 0, Type 0, BuildingBlock: XOMCOT_clean_sbu_0, # of connection points: 5
#     Node 1, Type 0, BuildingBlock: XOMCOT_clean_sbu_0, # of connection points: 5
#     Node 2, Type 0, BuildingBlock: XOMCOT_clean_sbu_0, # of connection points: 5
#     Node 3, Type 0, BuildingBlock: XOMCOT_clean_sbu_0, # of connection points: 5
#     Node 4, Type 0, BuildingBlock: XOMCOT_clean_sbu_0, # of connection points: 5
#     Node 5, Type 0, BuildingBlock: XOMCOT_clean_sbu_0, # of connection points: 5
#     Node 6, Type 0, BuildingBlock: XOMCOT_clean_sbu_0, # of connection points: 5
#     Node 7, Type 0, BuildingBlock: XOMCOT_clean_sbu_0, # of connection points: 5
#     Node 8, Type 0, BuildingBlock: XOMCOT_clean_sbu_0, # of connection points: 5
#     Node 9, Type 0, BuildingBlock: XOMCOT_clean_sbu_0, # of connection points: 5
#     Node 10, Type 0, BuildingBlock: XOMCOT_clean_sbu_0, # of connection points: 5
#     Node 11, Type 0, BuildingBlock: XOMCOT_clean_sbu_0, # of connection points: 5
#     Node 12, Type 0, BuildingBlock: XOMCOT_clean_sbu_0, # of connection points: 5
#     Node 13, Type 0, BuildingBlock: XOMCOT_clean_sbu_0, # of connection points: 5
#     Node 14, Type 0, BuildingBlock: XOMCOT_clean_sbu_0, # of connection points: 5
#     Node 15, Type 0, BuildingBlock: XOMCOT_clean_sbu_0, # of connection points: 5
#     Edge 16, Type (0, 0), BuildingBlock: EZIPEK_clean_linker_0, # of connection points: 2
#     Edge 17, Type (0, 0), BuildingBlock: EZIPEK_clean_linker_0, # of connection points: 2
#     Edge 18, Type (0, 0), BuildingBlock: EZIPEK_clean_linker_0, # of connection points: 2
#     Edge 19, Type (0, 0), BuildingBlock: EZIPEK_clean_linker_0, # of connection points: 2
#     Edge 20, Type (0, 0), BuildingBlock: EZIPEK_clean_linker_0, # of connection points: 2
#     Edge 21, Type (0, 0), BuildingBlock: EZIPEK_clean_linker_0, # of connection points: 2
#     Edge 22, Type (0, 0), BuildingBlock: EZIPEK_clean_linker_0, # of connection points: 2
#     Edge 23, Type (0, 0), BuildingBlock: EZIPEK_clean_linker_0, # of connection points: 2
#     Edge 24, Type (0, 0), BuildingBlock: EZIPEK_clean_linker_0, # of connection points: 2
#     Edge 25, Type (0, 0), BuildingBlock: EZIPEK_clean_linker_0, # of connection points: 2
#     Edge 26, Type (0, 0), BuildingBlock: EZIPEK_clean_linker_0, # of connection points: 2
#     Edge 27, Type (0, 0), BuildingBlock: EZIPEK_clean_linker_0, # of connection points: 2
#     Edge 28, Type (0, 0), BuildingBlock: EZIPEK_clean_linker_0, # of connection points: 2
#     Edge 29, Type (0, 0), BuildingBlock: EZIPEK_clean_linker_0, # of connection points: 2
#     Edge 30, Type (0, 0), BuildingBlock: EZIPEK_clean_linker_0, # of connection points: 2
#     Edge 31, Type (0, 0), BuildingBlock: EZIPEK_clean_linker_0, # of connection points: 2
#     Edge 32, Type (0, 0), BuildingBlock: EZIPEK_clean_linker_0, # of connection points: 2
#     Edge 33, Type (0, 0), BuildingBlock: EZIPEK_clean_linker_0, # of connection points: 2
#     Edge 34, Type (0, 0), BuildingBlock: EZIPEK_clean_linker_0, # of connection points: 2
#     Edge 35, Type (0, 0), BuildingBlock: EZIPEK_clean_linker_0, # of connection points: 2
#     Edge 36, Type (0, 0), BuildingBlock: EZIPEK_clean_linker_0, # of connection points: 2
#     Edge 37, Type (0, 0), BuildingBlock: EZIPEK_clean_linker_0, # of connection points: 2
#     Edge 38, Type (0, 0), BuildingBlock: EZIPEK_clean_linker_0, # of connection points: 2
#     Edge 39, Type (0, 0), BuildingBlock: EZIPEK_clean_linker_0, # of connection points: 2
#     Edge 40, Type (0, 0), BuildingBlock: EZIPEK_clean_linker_0, # of connection points: 2
#     Edge 41, Type (0, 0), BuildingBlock: EZIPEK_clean_linker_0, # of connection points: 2
#     Edge 42, Type (0, 0), BuildingBlock: EZIPEK_clean_linker_0, # of connection points: 2
#     Edge 43, Type (0, 0), BuildingBlock: EZIPEK_clean_linker_0, # of connection points: 2
#     Edge 44, Type (0, 0), BuildingBlock: EZIPEK_clean_linker_0, # of connection points: 2
#     Edge 45, Type (0, 0), BuildingBlock: EZIPEK_clean_linker_0, # of connection points: 2
#     Edge 46, Type (0, 0), BuildingBlock: EZIPEK_clean_linker_0, # of connection points: 2
#     Edge 47, Type (0, 0), BuildingBlock: EZIPEK_clean_linker_0, # of connection points: 2
#     Edge 48, Type (0, 0), BuildingBlock: EZIPEK_clean_linker_0, # of connection points: 2
#     Edge 49, Type (0, 0), BuildingBlock: EZIPEK_clean_linker_0, # of connection points: 2
#     Edge 50, Type (0, 0), BuildingBlock: EZIPEK_clean_linker_0, # of connection points: 2
#     Edge 51, Type (0, 0), BuildingBlock: EZIPEK_clean_linker_0, # of connection points: 2
#     Edge 52, Type (0, 0), BuildingBlock: EZIPEK_clean_linker_0, # of connection points: 2
#     Edge 53, Type (0, 0), BuildingBlock: EZIPEK_clean_linker_0, # of connection points: 2
#     Edge 54, Type (0, 0), BuildingBlock: EZIPEK_clean_linker_0, # of connection points: 2
#     Edge 55, Type (0, 0), BuildingBlock: EZIPEK_clean_linker_0, # of connection points: 2
# Relax obj value: 0.132
# Max RMSD: 0.149
# Mean RMSD: 0.149
data_MOF--net-zfc--node1-XOMCOT_clean_sbu_0--edge1-EZIPEK_clean_linker_0
_symmetry_space_group_name_H-M    P1
_symmetry_Int_Tables_number       1
_symmetry_cell_setting            triclinic
loop_
_symmetry_equiv_pos_as_xyz
'x, y, z'
_cell_length_a     56.428681
_cell_length_b     56.525354
_cell_length_c     13.551274
_cell_angle_alpha  89.970021
_cell_angle_beta   90.059002
_cell_angle_gamma 89.997967
loop_
_atom_site_label
_atom_site_type_symbol
_atom_site_fract_x
_atom_site_fract_y
_atom_site_fract_z
_atom_type_partial_charge
Co0 Co 0.27948 0.08499 0.11767 0.0
C1 C 0.27891 0.0908 0.89645 0.0
C2 C 0.31375 0.09226 0.95877 0.0
C3 C 0.31583 0.09247 0.85751 0.0
N4 N 0.2906 0.09148 0.98384 0.0
N5 N 0.2939 0.09137 0.8189 0.0
H6 H 0.26014 0.08818 0.88802 0.0
H7 H 0.32827 0.09128 1.01079 0.0
C8 C 0.30871 0.12892 0.14169 0.0
O9 O 0.29742 0.13752 0.06473 0.0
N10 N 0.26924 0.07812 0.2508 0.0
C11 C 0.24693 0.07342 0.28054 0.0
C12 C 0.24653 0.07269 0.38233 0.0
C13 C 0.28217 0.07984 0.33438 0.0
N14 N 0.26865 0.07687 0.41546 0.0
C15 C 0.236 0.10531 0.04677 0.0
C16 C 0.23667 0.14541 0.16304 0.0
C17 C 0.21874 0.14277 0.09261 0.0
C18 C 0.21806 0.12211 0.0361 0.0
C19 C 0.25407 0.12797 0.17199 0.0
N20 N 0.25467 0.10908 0.10906 0.0
H21 H 0.23452 0.08904 1.00602 0.0
H22 H 0.26694 0.12976 0.22981 0.0
H23 H 0.23184 0.07173 0.23179 0.0
H24 H 0.30087 0.08404 0.33631 0.0
O25 O 0.26144 0.05821 0.07012 0.0
O26 O 0.29895 0.05672 0.11698 0.0
O27 O 0.30382 0.1081 0.17252 0.0
C28 C 0.28056 0.04569 0.0812 0.0
H29 H 0.33212 0.092 0.81545 0.0
H30 H 0.23108 0.07033 0.42859 0.0
H31 H 0.23714 0.16077 0.21079 0.0
H32 H 0.20382 0.11907 0.98392 0.0
Co33 Co 0.91355 0.27803 0.09502 0.0
C34 C 0.91031 0.27832 0.87623 0.0
C35 C 0.9076 0.31337 0.93595 0.0
C36 C 0.90843 0.31495 0.83411 0.0
N37 N 0.90885 0.2904 0.96234 0.0
N38 N 0.91037 0.2929 0.79713 0.0
H39 H 0.91249 0.25935 0.87135 0.0
H40 H 0.90722 0.32802 0.98723 0.0
C41 C 0.87636 0.30131 0.22463 0.0
O42 O 0.87353 0.28095 0.26958 0.0
N43 N 0.91898 0.26545 0.22763 0.0
C44 C 0.91782 0.24272 0.25785 0.0
C45 C 0.91969 0.24201 0.35942 0.0
C46 C 0.92275 0.27804 0.31108 0.0
N47 N 0.92199 0.26433 0.39311 0.0
C48 C 0.89547 0.23287 0.03271 0.0
C49 C 0.84791 0.24204 0.05897 0.0
C50 C 0.85465 0.21968 0.02444 0.0
C51 C 0.8788 0.21559 1.00752 0.0
C52 C 0.86502 0.25948 0.0747 0.0
N53 N 0.88867 0.25446 0.06862 0.0
H54 H 0.91393 0.22876 0.02213 0.0
H55 H 0.85874 0.27694 0.08971 0.0
H56 H 0.91482 0.22766 0.21063 0.0
H57 H 0.92502 0.29701 0.31156 0.0
O58 O 0.94084 0.26033 0.04899 0.0
O59 O 0.9422 0.29685 0.10605 0.0
O60 O 0.8905 0.30284 0.15048 0.0
C61 C 0.9535 0.27895 0.06817 0.0
H62 H 0.90844 0.33102 0.79066 0.0
H63 H 0.91776 0.22648 0.40553 0.0
H64 H 0.82942 0.24632 0.07075 0.0
H65 H 0.88483 0.19888 0.97761 0.0
Co66 Co 0.71542 0.91052 0.09864 0.0
C67 C 0.71387 0.91306 0.88101 0.0
C68 C 0.6794 0.90601 0.94167 0.0
C69 C 0.67745 0.90726 0.84021 0.0
N70 N 0.70222 0.90963 0.96686 0.0
N71 N 0.69912 0.91172 0.8028 0.0
H72 H 0.73275 0.91619 0.87569 0.0
H73 H 0.66518 0.90277 0.99336 0.0
C74 C 0.69549 0.8679 0.20091 0.0
O75 O 0.71716 0.86255 0.22812 0.0
N76 N 0.72827 0.91176 0.23354 0.0
C77 C 0.749 0.90344 0.27047 0.0
C78 C 0.74857 0.9047 0.37175 0.0
C79 C 0.71584 0.91838 0.31457 0.0
N80 N 0.72767 0.91388 0.39926 0.0
C81 C 0.76189 0.89333 0.04838 0.0
C82 C 0.74796 0.84829 0.99438 0.0
C83 C 0.77217 0.85354 0.99994 0.0
C84 C 0.77911 0.87661 0.02347 0.0
C85 C 0.7314 0.86562 0.02027 0.0
N86 N 0.73859 0.88703 0.05602 0.0
H87 H 0.76746 0.91103 0.06755 0.0
H88 H 0.71278 0.8619 1.01173 0.0
H89 H 0.76312 0.89527 0.23006 0.0
H90 H 0.69809 0.9255 0.31207 0.0
O91 O 0.73279 0.93875 0.06334 0.0
O92 O 0.69648 0.93841 0.12613 0.0
O93 O 0.69168 0.88565 0.14423 0.0
C94 C 0.71416 0.95053 0.0908 0.0
H95 H 0.66151 0.90474 0.797 0.0
H96 H 0.76193 0.89794 0.42177 0.0
H97 H 0.74198 0.83092 0.9717 0.0
H98 H 0.79767 0.88146 0.02501 0.0
Co99 Co 0.08515 0.72389 0.11098 0.0
C100 C 0.07799 0.71062 0.89743 0.0
C101 C 0.11448 0.71691 0.93073 0.0
C102 C 0.11238 0.71372 0.83078 0.0
N103 N 0.09293 0.71507 0.97401 0.0
N104 N 0.08946 0.71001 0.80985 0.0
H105 H 0.05897 0.70933 0.90343 0.0
H106 H 0.13044 0.72302 0.96587 0.0
C107 C 0.12771 0.69132 0.16345 0.0
O108 O 0.14274 0.70233 0.1061 0.0
N109 N 0.0776 0.73242 0.24611 0.0
C110 C 0.08269 0.753 0.29111 0.0
C111 C 0.08044 0.74993 0.39102 0.0
C112 C 0.07076 0.71759 0.31922 0.0
N113 N 0.07305 0.72761 0.40971 0.0
C114 C 0.10912 0.76477 0.03745 0.0
C115 C 0.14736 0.76423 0.16516 0.0
C116 C 0.14667 0.78112 0.08983 0.0
C117 C 0.12707 0.78162 0.02652 0.0
C118 C 0.12895 0.74785 0.17387 0.0
N119 N 0.11058 0.74755 0.10808 0.0
H120 H 0.09434 0.76501 0.98669 0.0
H121 H 0.12957 0.73555 0.23365 0.0
H122 H 0.08888 0.76885 0.25467 0.0
H123 H 0.06442 0.69987 0.30539 0.0
O124 O 0.05929 0.7439 0.06608 0.0
O125 O 0.05576 0.70608 0.10298 0.0
O126 O 0.10588 0.69749 0.16776 0.0
C127 C 0.04551 0.72554 0.07382 0.0
H128 H 0.12626 0.71611 0.77654 0.0
H129 H 0.08456 0.76309 0.44651 0.0
H130 H 0.16206 0.76368 0.21659 0.0
H131 H 0.12588 0.79465 0.96809 0.0
Co132 Co 0.28094 0.90642 0.95418 0.0
C133 C 0.28156 0.90674 0.17195 0.0
C134 C 0.31501 0.89518 0.11374 0.0
C135 C 0.31637 0.89519 0.21555 0.0
N136 N 0.29315 0.90234 0.08674 0.0
N137 N 0.29538 0.90258 0.25137 0.0
H138 H 0.2634 0.91283 0.17596 0.0
H139 H 0.32906 0.89047 0.06323 0.0
C140 C 0.30143 0.86682 0.83517 0.0
O141 O 0.28001 0.86302 0.80052 0.0
N142 N 0.26881 0.91111 0.81986 0.0
C143 C 0.24624 0.91439 0.78891 0.0
C144 C 0.24582 0.91557 0.68736 0.0
C145 C 0.28183 0.9115 0.73591 0.0
N146 N 0.26818 0.91345 0.65454 0.0
C147 C 0.23416 0.88875 0.99468 0.0
C148 C 0.24698 0.84228 0.02842 0.0
C149 C 0.22294 0.8484 0.02948 0.0
C150 C 0.21661 0.87204 0.01475 0.0
C151 C 0.26394 0.85961 1.00731 0.0
N152 N 0.2573 0.88219 0.98364 0.0
H153 H 0.22907 0.90708 0.98983 0.0
H154 H 0.28243 0.85487 1.01144 0.0
H155 H 0.23087 0.91605 0.8351 0.0
H156 H 0.30084 0.90953 0.73367 0.0
O157 O 0.26366 0.93398 0.99809 0.0
O158 O 0.30031 0.93449 0.93887 0.0
O159 O 0.30466 0.88235 0.90254 0.0
C160 C 0.28254 0.94607 0.97645 0.0
H161 H 0.33158 0.89034 0.25994 0.0
H162 H 0.23029 0.91726 0.64095 0.0
H163 H 0.25254 0.82432 0.04393 0.0
H164 H 0.19826 0.87756 0.01961 0.0
Co165 Co 0.09467 0.2791 0.96657 0.0
C166 C 0.09988 0.27865 0.18339 0.0
C167 C 0.09622 0.31407 0.12842 0.0
C168 C 0.09595 0.31481 0.23016 0.0
N169 N 0.09896 0.29143 0.09905 0.0
N170 N 0.09823 0.29254 0.26407 0.0
H171 H 0.10025 0.25952 0.18593 0.0
H172 H 0.09331 0.32886 0.07921 0.0
C173 C 0.13498 0.31556 0.93721 0.0
O174 O 0.13951 0.31789 0.03171 0.0
N175 N 0.09017 0.26685 0.8335 0.0
C176 C 0.08463 0.24466 0.8044 0.0
C177 C 0.08429 0.24382 0.70267 0.0
C178 C 0.09289 0.2792 0.74865 0.0
N179 N 0.08956 0.26552 0.66831 0.0
C180 C 0.10986 0.2318 1.01141 0.0
C181 C 0.15791 0.24056 0.02126 0.0
C182 C 0.1498 0.21741 0.03295 0.0
C183 C 0.12545 0.21306 0.02908 0.0
C184 C 0.14175 0.2587 1.00277 0.0
N185 N 0.11801 0.25424 0.99431 0.0
H186 H 0.09113 0.22812 1.01182 0.0
H187 H 0.14875 0.27613 0.99668 0.0
H188 H 0.08052 0.23007 0.8526 0.0
H189 H 0.09734 0.29781 0.74521 0.0
O190 O 0.06633 0.26305 1.01207 0.0
O191 O 0.0669 0.29922 0.94949 0.0
O192 O 0.11908 0.30125 0.90659 0.0
C193 C 0.05468 0.28199 0.98776 0.0
H194 H 0.09313 0.33028 0.2757 0.0
H195 H 0.08046 0.22854 0.65731 0.0
H196 H 0.17666 0.24456 0.02596 0.0
H197 H 0.11857 0.19536 0.03985 0.0
Co198 Co 0.7191 0.09072 0.97303 0.0
C199 C 0.71926 0.09506 0.19481 0.0
C200 C 0.68564 0.10363 0.13177 0.0
C201 C 0.68339 0.10369 0.23317 0.0
N202 N 0.70833 0.09875 0.10681 0.0
N203 N 0.70458 0.0982 0.27208 0.0
H204 H 0.73694 0.0884 0.2042 0.0
H205 H 0.67125 0.10563 0.07996 0.0
C206 C 0.69164 0.13566 0.93604 0.0
O207 O 0.70093 0.1449 0.01617 0.0
N208 N 0.72872 0.08218 0.84006 0.0
C209 C 0.75048 0.07537 0.81028 0.0
C210 C 0.75082 0.07461 0.70833 0.0
C211 C 0.71605 0.08514 0.7561 0.0
N212 N 0.72919 0.08081 0.67495 0.0
C213 C 0.76082 0.11433 0.04934 0.0
C214 C 0.76574 0.14607 0.89626 0.0
C215 C 0.78111 0.1479 0.97739 0.0
C216 C 0.7783 0.13172 0.0549 0.0
C217 C 0.74713 0.12971 0.89822 0.0
N218 N 0.74435 0.11446 0.97574 0.0
H219 H 0.76132 0.10034 0.10233 0.0
H220 H 0.73507 0.12914 0.83649 0.0
H221 H 0.76538 0.07243 0.85901 0.0
H222 H 0.69796 0.09145 0.75371 0.0
O223 O 0.73634 0.06373 0.02502 0.0
O224 O 0.69877 0.06316 0.97792 0.0
O225 O 0.69629 0.11429 0.9123 0.0
C226 C 0.71689 0.05164 1.01345 0.0
H227 H 0.66725 0.10628 0.2749 0.0
H228 H 0.76599 0.07082 0.66215 0.0
H229 H 0.76772 0.1576 0.83292 0.0
H230 H 0.79018 0.13185 0.11774 0.0
Co231 Co 0.90559 0.72386 0.93177 0.0
C232 C 0.90155 0.7244 0.15206 0.0
C233 C 0.8997 0.68938 0.09245 0.0
C234 C 0.90018 0.68772 0.1939 0.0
N235 N 0.90017 0.71242 0.06573 0.0
N236 N 0.90131 0.70977 0.23065 0.0
H237 H 0.90451 0.74313 0.15885 0.0
H238 H 0.90032 0.67469 0.04155 0.0
C239 C 0.86278 0.69225 0.91077 0.0
O240 O 0.85508 0.70001 0.99628 0.0
N241 N 0.91148 0.73474 0.799 0.0
C242 C 0.91482 0.75731 0.76978 0.0
C243 C 0.91531 0.75794 0.66806 0.0
C244 C 0.91003 0.72193 0.71525 0.0
N245 N 0.91222 0.73572 0.63458 0.0
C246 C 0.8834 0.76658 1.00401 0.0
C247 C 0.84404 0.76456 0.88281 0.0
C248 C 0.8457 0.78271 0.9524 0.0
C249 C 0.86589 0.78398 1.0121 0.0
C250 C 0.86195 0.74754 0.87746 0.0
N251 N 0.88059 0.7477 0.94216 0.0
H252 H 0.89957 0.76883 0.04512 0.0
H253 H 0.86094 0.73449 0.81958 0.0
H254 H 0.91594 0.77233 0.81894 0.0
H255 H 0.90654 0.70311 0.71294 0.0
O256 O 0.93228 0.74218 0.97963 0.0
O257 O 0.93446 0.70513 0.92749 0.0
O258 O 0.88256 0.69961 0.87618 0.0
C259 C 0.94523 0.72351 0.96423 0.0
H260 H 0.90068 0.67164 0.23728 0.0
H261 H 0.917 0.77352 0.6221 0.0
H262 H 0.82909 0.76364 0.83273 0.0
H263 H 0.8682 0.79844 0.06362 0.0
Co264 Co 0.78018 0.58885 0.58259 0.0
C265 C 0.78095 0.58832 0.36486 0.0
C266 C 0.8142 0.60038 0.4237 0.0
C267 C 0.81562 0.60041 0.32193 0.0
N268 N 0.79243 0.5929 0.45026 0.0
N269 N 0.79475 0.59272 0.28572 0.0
H270 H 0.76287 0.58201 0.36054 0.0
H271 H 0.82812 0.60534 0.47452 0.0
C272 C 0.79871 0.6298 0.69896 0.0
O273 O 0.777 0.63224 0.73255 0.0
N274 N 0.76813 0.58416 0.71687 0.0
C275 C 0.74571 0.58016 0.74801 0.0
C276 C 0.74543 0.57901 0.84956 0.0
C277 C 0.78124 0.58427 0.80072 0.0
N278 N 0.76773 0.58186 0.88218 0.0
C279 C 0.73294 0.60561 0.54229 0.0
C280 C 0.74513 0.65204 0.50393 0.0
C281 C 0.72118 0.64569 0.50558 0.0
C282 C 0.71513 0.62206 0.52217 0.0
C283 C 0.76235 0.63496 0.52473 0.0
N284 N 0.75604 0.61248 0.55144 0.0
H285 H 0.7281 0.58725 0.54857 0.0
H286 H 0.78078 0.63984 0.51873 0.0
H287 H 0.73037 0.57786 0.70196 0.0
H288 H 0.80018 0.58686 0.80272 0.0
O289 O 0.76341 0.56092 0.5393 0.0
O290 O 0.80003 0.56102 0.59904 0.0
O291 O 0.80312 0.61391 0.63401 0.0
C292 C 0.7824 0.5491 0.56165 0.0
H293 H 0.83076 0.60552 0.27783 0.0
H294 H 0.73001 0.57673 0.89611 0.0
H295 H 0.75043 0.66999 0.48678 0.0
H296 H 0.69681 0.61638 0.51908 0.0
Co297 Co 0.40519 0.77628 0.55603 0.0
C298 C 0.39975 0.77617 0.33944 0.0
C299 C 0.4046 0.81143 0.39433 0.0
C300 C 0.40494 0.81216 0.29257 0.0
N301 N 0.40111 0.7889 0.42378 0.0
N302 N 0.40193 0.78999 0.25867 0.0
H303 H 0.39876 0.75706 0.33704 0.0
H304 H 0.40811 0.8261 0.44346 0.0
C305 C 0.36673 0.81481 0.59034 0.0
O306 O 0.3626 0.81877 0.49646 0.0
N307 N 0.4095 0.76379 0.68912 0.0
C308 C 0.4145 0.74148 0.71848 0.0
C309 C 0.41482 0.74066 0.82024 0.0
C310 C 0.40723 0.77624 0.77398 0.0
N311 N 0.41018 0.7625 0.85452 0.0
C312 C 0.38694 0.72967 0.51572 0.0
C313 C 0.33981 0.74205 0.49768 0.0
C314 C 0.34609 0.71823 0.49143 0.0
C315 C 0.37001 0.71204 0.4988 0.0
C316 C 0.35727 0.75903 0.51502 0.0
N317 N 0.38044 0.75277 0.52886 0.0
H318 H 0.40536 0.72465 0.51715 0.0
H319 H 0.35178 0.77706 0.5156 0.0
H320 H 0.41826 0.72677 0.67054 0.0
H321 H 0.40337 0.79497 0.77738 0.0
O322 O 0.43262 0.75888 0.50883 0.0
O323 O 0.43401 0.79495 0.57181 0.0
O324 O 0.38185 0.79933 0.61793 0.0
C325 C 0.4453 0.77719 0.53272 0.0
H326 H 0.40836 0.82752 0.24702 0.0
H327 H 0.41823 0.72528 0.8657 0.0
H328 H 0.3215 0.74749 0.48934 0.0
H329 H 0.37554 0.69378 0.49138 0.0
Co330 Co 0.22449 0.40749 0.58881 0.0
C331 C 0.22585 0.40284 0.37146 0.0
C332 C 0.19045 0.39957 0.42796 0.0
C333 C 0.1894 0.39977 0.32625 0.0
N334 N 0.21328 0.4016 0.45604 0.0
N335 N 0.21163 0.40201 0.29139 0.0
H336 H 0.24483 0.40553 0.36853 0.0
H337 H 0.17552 0.39932 0.4779 0.0
C338 C 0.20231 0.36797 0.70426 0.0
O339 O 0.22346 0.36322 0.73991 0.0
N340 N 0.23536 0.4144 0.7237 0.0
C341 C 0.25567 0.42536 0.75123 0.0
C342 C 0.25648 0.4271 0.85267 0.0
C343 C 0.22348 0.41126 0.80963 0.0
N344 N 0.23629 0.41801 0.88865 0.0
C345 C 0.27131 0.38695 0.58239 0.0
C346 C 0.25701 0.3423 0.524 0.0
C347 C 0.28108 0.3466 0.54068 0.0
C348 C 0.28827 0.36926 0.56889 0.0
C349 C 0.24063 0.36053 0.53843 0.0
N350 N 0.24771 0.38223 0.57205 0.0
H351 H 0.27735 0.40455 0.59792 0.0
H352 H 0.22219 0.35722 0.52208 0.0
H353 H 0.26887 0.43239 0.70175 0.0
H354 H 0.20575 0.40444 0.81578 0.0
O355 O 0.24303 0.43389 0.54036 0.0
O356 O 0.20581 0.43611 0.59083 0.0
O357 O 0.19971 0.38458 0.64093 0.0
C358 C 0.22421 0.44681 0.55361 0.0
H359 H 0.17352 0.39955 0.28136 0.0
H360 H 0.27071 0.43445 0.89664 0.0
H361 H 0.25098 0.3251 0.49932 0.0
H362 H 0.30688 0.37332 0.57884 0.0
Co363 Co 0.59361 0.21722 0.57778 0.0
C364 C 0.59297 0.21628 0.36002 0.0
C365 C 0.60504 0.18309 0.41892 0.0
C366 C 0.60514 0.18171 0.31708 0.0
N367 N 0.59749 0.2048 0.44551 0.0
N368 N 0.59743 0.20254 0.2808 0.0
H369 H 0.5867 0.23434 0.35569 0.0
H370 H 0.61007 0.16921 0.46973 0.0
C371 C 0.6342 0.19854 0.69603 0.0
O372 O 0.63726 0.22034 0.72717 0.0
N373 N 0.58913 0.22953 0.71188 0.0
C374 C 0.58608 0.25208 0.7429 0.0
C375 C 0.58505 0.25246 0.84452 0.0
C376 C 0.58882 0.21651 0.7959 0.0
N377 N 0.58705 0.23011 0.87734 0.0
C378 C 0.61064 0.26412 0.5344 0.0
C379 C 0.65702 0.25151 0.49601 0.0
C380 C 0.65079 0.27546 0.49512 0.0
C381 C 0.62717 0.2817 0.51202 0.0
C382 C 0.6399 0.23453 0.51935 0.0
N383 N 0.61743 0.24108 0.54558 0.0
H384 H 0.59228 0.26908 0.54095 0.0
H385 H 0.64472 0.21609 0.51525 0.0
H386 H 0.58452 0.26746 0.69679 0.0
H387 H 0.59065 0.19753 0.79806 0.0
O388 O 0.56559 0.23396 0.53442 0.0
O389 O 0.56576 0.19751 0.59528 0.0
O390 O 0.61846 0.19421 0.63019 0.0
C391 C 0.55378 0.21505 0.55779 0.0
H392 H 0.61036 0.16662 0.27299 0.0
H393 H 0.58351 0.26796 0.89095 0.0
H394 H 0.67495 0.24602 0.47896 0.0
H395 H 0.62155 0.29999 0.50735 0.0
Co396 Co 0.77815 0.41033 0.41542 0.0
C397 C 0.77735 0.4044 0.63676 0.0
C398 C 0.81203 0.40131 0.57443 0.0
C399 C 0.81417 0.40112 0.67568 0.0
N400 N 0.78892 0.40306 0.54927 0.0
N401 N 0.79235 0.40324 0.71432 0.0
H402 H 0.75875 0.40797 0.64529 0.0
H403 H 0.82657 0.40172 0.52254 0.0
C404 C 0.80689 0.36615 0.38661 0.0
O405 O 0.79422 0.35637 0.45703 0.0
N406 N 0.76834 0.41797 0.28225 0.0
C407 C 0.74612 0.42292 0.25193 0.0
C408 C 0.74582 0.42372 0.15014 0.0
C409 C 0.78135 0.41623 0.19897 0.0
N410 N 0.76794 0.41935 0.1175 0.0
C411 C 0.73514 0.38834 0.48478 0.0
C412 C 0.73587 0.35015 0.35762 0.0
C413 C 0.71867 0.351 0.43168 0.0
C414 C 0.71787 0.37075 0.4937 0.0
C415 C 0.75265 0.36827 0.35102 0.0
N416 N 0.7534 0.38605 0.41945 0.0
H417 H 0.73347 0.40401 0.52921 0.0
H418 H 0.76522 0.36775 0.29156 0.0
H419 H 0.73096 0.42456 0.30023 0.0
H420 H 0.79999 0.41182 0.19749 0.0
O421 O 0.76001 0.43698 0.46455 0.0
O422 O 0.79765 0.43852 0.41994 0.0
O423 O 0.80273 0.38752 0.36054 0.0
C424 C 0.77923 0.4495 0.45537 0.0
H425 H 0.8305 0.40097 0.71767 0.0
H426 H 0.73042 0.42611 0.10352 0.0
H427 H 0.7364 0.33558 0.30579 0.0
H428 H 0.70408 0.37248 0.54878 0.0
Co429 Co 0.58596 0.77269 0.41326 0.0
C430 C 0.59083 0.77255 0.63415 0.0
C431 C 0.59138 0.80741 0.57233 0.0
C432 C 0.59133 0.80939 0.67374 0.0
N433 N 0.59145 0.78431 0.54699 0.0
N434 N 0.59084 0.78744 0.71198 0.0
H435 H 0.5887 0.75373 0.64206 0.0
H436 H 0.58995 0.82187 0.52042 0.0
C437 C 0.62869 0.80445 0.38799 0.0
O438 O 0.63784 0.79543 0.46888 0.0
N439 N 0.58005 0.76177 0.28023 0.0
C440 C 0.57619 0.7393 0.25101 0.0
C441 C 0.57538 0.73875 0.14918 0.0
C442 C 0.58123 0.77463 0.19636 0.0
N443 N 0.57869 0.76094 0.11554 0.0
C444 C 0.60738 0.72986 0.48723 0.0
C445 C 0.6486 0.7324 0.37803 0.0
C446 C 0.64601 0.71418 0.44676 0.0
C447 C 0.62489 0.71262 0.5003 0.0
C448 C 0.6306 0.74915 0.36724 0.0
N449 N 0.61093 0.74875 0.42598 0.0
H450 H 0.59077 0.72766 0.5252 0.0
H451 H 0.63253 0.76212 0.31051 0.0
H452 H 0.57497 0.72427 0.30013 0.0
H453 H 0.58465 0.79345 0.19402 0.0
O454 O 0.5592 0.75423 0.45989 0.0
O455 O 0.55722 0.79137 0.40931 0.0
O456 O 0.60844 0.79746 0.35732 0.0
C457 C 0.5463 0.77297 0.44512 0.0
H458 H 0.59036 0.82559 0.71608 0.0
H459 H 0.57345 0.72321 0.10323 0.0
H460 H 0.66435 0.73357 0.3326 0.0
H461 H 0.62195 0.69815 0.55127 0.0
Co462 Co 0.21591 0.58574 0.41682 0.0
C463 C 0.21626 0.58986 0.63688 0.0
C464 C 0.18107 0.58964 0.57729 0.0
C465 C 0.17951 0.58909 0.67876 0.0
N466 N 0.20413 0.59031 0.55066 0.0
N467 N 0.20165 0.58923 0.71553 0.0
H468 H 0.23519 0.58828 0.64349 0.0
H469 H 0.16638 0.58825 0.52631 0.0
C470 C 0.18124 0.62578 0.39892 0.0
O471 O 0.19176 0.63547 0.47546 0.0
N472 N 0.22728 0.58085 0.28413 0.0
C473 C 0.2501 0.57965 0.25501 0.0
C474 C 0.25079 0.57933 0.15331 0.0
C475 C 0.21439 0.58103 0.20033 0.0
N476 N 0.22834 0.5803 0.11974 0.0
C477 C 0.25801 0.60853 0.48807 0.0
C478 C 0.25405 0.64946 0.37772 0.0
C479 C 0.27324 0.64687 0.44233 0.0
C480 C 0.27533 0.626 0.49678 0.0
C481 C 0.23715 0.63141 0.3708 0.0
N482 N 0.23851 0.61177 0.42974 0.0
H483 H 0.26085 0.59202 0.5259 0.0
H484 H 0.22337 0.63309 0.31604 0.0
H485 H 0.2652 0.57985 0.30421 0.0
H486 H 0.19532 0.58251 0.19786 0.0
O487 O 0.23559 0.55997 0.4634 0.0
O488 O 0.19858 0.55615 0.41072 0.0
O489 O 0.19006 0.60691 0.36267 0.0
C490 C 0.21749 0.54628 0.44719 0.0
H491 H 0.16347 0.58775 0.72218 0.0
H492 H 0.26648 0.57917 0.10743 0.0
H493 H 0.25239 0.66509 0.33198 0.0
H494 H 0.29044 0.62311 0.54469 0.0
Co495 Co 0.41361 0.21791 0.43132 0.0
C496 C 0.40891 0.21875 0.64857 0.0
C497 C 0.40523 0.18352 0.59139 0.0
C498 C 0.40539 0.18241 0.69325 0.0
N499 N 0.40756 0.20629 0.56365 0.0
N500 N 0.408 0.20455 0.72866 0.0
H501 H 0.41186 0.23766 0.65171 0.0
H502 H 0.40476 0.16866 0.54119 0.0
C503 C 0.37241 0.19821 0.31652 0.0
O504 O 0.3675 0.22003 0.29001 0.0
N505 N 0.42064 0.22908 0.29729 0.0
C506 C 0.43156 0.24932 0.2693 0.0
C507 C 0.43336 0.24988 0.16778 0.0
C508 C 0.41773 0.21693 0.21198 0.0
N509 N 0.42435 0.2296 0.1322 0.0
C510 C 0.39359 0.26506 0.44054 0.0
C511 C 0.34911 0.25116 0.5035 0.0
C512 C 0.35344 0.27512 0.48573 0.0
C513 C 0.37606 0.28214 0.45555 0.0
C514 C 0.36717 0.23471 0.48767 0.0
N515 N 0.38874 0.24154 0.45122 0.0
H516 H 0.41118 0.27095 0.42342 0.0
H517 H 0.36371 0.21634 0.50389 0.0
H518 H 0.43861 0.26258 0.31844 0.0
H519 H 0.41138 0.19894 0.20774 0.0
O520 O 0.44043 0.23566 0.48152 0.0
O521 O 0.44209 0.19878 0.42724 0.0
O522 O 0.38999 0.19409 0.37447 0.0
C523 C 0.45313 0.21682 0.4658 0.0
H524 H 0.40494 0.16652 0.73784 0.0
H525 H 0.44068 0.26403 0.12343 0.0
H526 H 0.33197 0.24526 0.52963 0.0
H527 H 0.38017 0.30068 0.44483 0.0
C528 C 0.27952 0.10706 0.65973 0.0
C529 C 0.28792 0.08776 0.71647 0.0
C530 C 0.28522 0.0617 0.57174 0.0
C531 C 0.27562 0.08068 0.51657 0.0
N532 N 0.26233 0.12094 0.50534 0.0
N533 N 0.29759 0.04653 0.7318 0.0
C534 C 0.27244 0.10329 0.55995 0.0
C535 C 0.29055 0.065 0.67368 0.0
N536 N 0.27898 0.12905 0.70145 0.0
N537 N 0.28938 0.04064 0.52544 0.0
H538 H 0.30189 0.0486 0.80613 0.0
H539 H 0.29797 0.02899 0.70887 0.0
H540 H 0.285 0.03778 0.45155 0.0
H541 H 0.29814 0.0264 0.55769 0.0
H542 H 0.27496 0.1445 0.66322 0.0
H543 H 0.28395 0.13205 0.7746 0.0
H544 H 0.25746 0.13734 0.53356 0.0
H545 H 0.25786 0.11882 0.43117 0.0
C546 C 0.93578 0.28841 0.64837 0.0
C547 C 0.91329 0.28634 0.69449 0.0
C548 C 0.89655 0.26979 0.54188 0.0
C549 C 0.919 0.27212 0.4946 0.0
N550 N 0.95957 0.28469 0.49878 0.0
N551 N 0.87166 0.27866 0.68398 0.0
C552 C 0.93849 0.28188 0.54685 0.0
C553 C 0.89353 0.27794 0.64075 0.0
N554 N 0.95458 0.29617 0.70309 0.0
N555 N 0.87811 0.25958 0.49227 0.0
H556 H 0.86914 0.28435 0.75647 0.0
H557 H 0.85586 0.27529 0.64704 0.0
H558 H 0.87902 0.25479 0.41836 0.0
H559 H 0.86217 0.25475 0.525 0.0
H560 H 0.972 0.29661 0.67831 0.0
H561 H 0.95284 0.30141 0.7765 0.0
H562 H 0.97426 0.29326 0.52824 0.0
H563 H 0.9622 0.27894 0.42649 0.0
C564 C 0.71165 0.89215 0.54263 0.0
C565 C 0.71845 0.91388 0.49855 0.0
C566 C 0.71033 0.9346 0.65401 0.0
C567 C 0.70553 0.91257 0.6999 0.0
N568 N 0.70454 0.87014 0.69353 0.0
N569 N 0.72599 0.95551 0.51098 0.0
C570 C 0.70686 0.89126 0.64548 0.0
C571 C 0.71812 0.9351 0.55389 0.0
N572 N 0.70941 0.87247 0.48517 0.0
N573 N 0.70699 0.95496 0.70628 0.0
H574 H 0.73135 0.95621 0.43735 0.0
H575 H 0.72839 0.97133 0.54889 0.0
H576 H 0.70161 0.95482 0.77982 0.0
H577 H 0.70809 0.97183 0.6759 0.0
H578 H 0.70211 0.85661 0.50974 0.0
H579 H 0.71301 0.87268 0.40991 0.0
H580 H 0.70768 0.8538 0.66061 0.0
H581 H 0.70131 0.86899 0.76916 0.0
C582 C 0.06029 0.7336 0.58057 0.0
C583 C 0.06979 0.71808 0.5088 0.0
C584 C 0.08328 0.69245 0.64527 0.0
C585 C 0.0795 0.71127 0.71194 0.0
N586 N 0.06824 0.75188 0.73749 0.0
N587 N 0.0892 0.68038 0.47608 0.0
C588 C 0.06858 0.73231 0.67882 0.0
C589 C 0.08054 0.69648 0.54163 0.0
N590 N 0.04404 0.75019 0.55322 0.0
N591 N 0.09002 0.67096 0.68179 0.0
H592 H 0.08773 0.68187 0.40037 0.0
H593 H 0.09903 0.66561 0.4966 0.0
H594 H 0.09241 0.66812 0.75729 0.0
H595 H 0.09107 0.65564 0.63944 0.0
H596 H 0.03551 0.76112 0.60402 0.0
H597 H 0.0374 0.75097 0.48129 0.0
H598 H 0.06219 0.76829 0.71289 0.0
H599 H 0.07639 0.75229 0.8065 0.0
C600 C 0.27619 0.88689 0.4014 0.0
C601 C 0.28891 0.90519 0.35374 0.0
C602 C 0.28719 0.92934 0.50426 0.0
C603 C 0.27551 0.91058 0.55333 0.0
N604 N 0.26174 0.87034 0.55545 0.0
N605 N 0.30915 0.9425 0.36011 0.0
C606 C 0.27074 0.88901 0.50359 0.0
C607 C 0.29522 0.92605 0.40554 0.0
N608 N 0.26913 0.86763 0.34804 0.0
N609 N 0.28984 0.95051 0.5516 0.0
H610 H 0.31495 0.94045 0.28771 0.0
H611 H 0.31623 0.95724 0.39538 0.0
H612 H 0.28412 0.95319 0.62395 0.0
H613 H 0.29618 0.96578 0.51786 0.0
H614 H 0.25762 0.85475 0.37464 0.0
H615 H 0.27379 0.86523 0.27422 0.0
H616 H 0.25999 0.85335 0.52688 0.0
H617 H 0.25755 0.87145 0.63018 0.0
C618 C 0.11459 0.27486 0.52376 0.0
C619 C 0.09178 0.2724 0.56626 0.0
C620 C 0.07334 0.28098 0.40617 0.0
C621 C 0.09609 0.28504 0.36538 0.0
N622 N 0.13822 0.28818 0.38426 0.0
N623 N 0.04948 0.27557 0.55392 0.0
C624 C 0.11671 0.28262 0.42408 0.0
C625 C 0.07112 0.27609 0.50889 0.0
N626 N 0.13408 0.269 0.57832 0.0
N627 N 0.05398 0.28137 0.34566 0.0
H628 H 0.04753 0.27204 0.62907 0.0
H629 H 0.0337 0.28019 0.51914 0.0
H630 H 0.05528 0.28491 0.27037 0.0
H631 H 0.03699 0.27659 0.36787 0.0
H632 H 0.15121 0.26835 0.55012 0.0
H633 H 0.13287 0.26313 0.65114 0.0
H634 H 0.15387 0.2891 0.42481 0.0
H635 H 0.14015 0.29327 0.31065 0.0
C636 C 0.72543 0.10827 0.53336 0.0
C637 C 0.72257 0.08527 0.5736 0.0
C638 C 0.70639 0.07114 0.41577 0.0
C639 C 0.71007 0.09393 0.37465 0.0
N640 N 0.72425 0.13374 0.38834 0.0
N641 N 0.71189 0.04447 0.55556 0.0
C642 C 0.71986 0.11241 0.43214 0.0
C643 C 0.71342 0.06659 0.51528 0.0
N644 N 0.7333 0.1261 0.59297 0.0
N645 N 0.69596 0.05406 0.35915 0.0
H646 H 0.71645 0.04104 0.62885 0.0
H647 H 0.7071 0.02937 0.51662 0.0
H648 H 0.6912 0.05694 0.28572 0.0
H649 H 0.69116 0.0374 0.38478 0.0
H650 H 0.73381 0.14383 0.57266 0.0
H651 H 0.73858 0.12318 0.66564 0.0
H652 H 0.73322 0.14763 0.42206 0.0
H653 H 0.71971 0.13725 0.3151 0.0
C654 C 0.92979 0.72623 0.473 0.0
C655 C 0.90948 0.72868 0.53317 0.0
C656 C 0.88389 0.7174 0.39447 0.0
C657 C 0.9041 0.71625 0.33283 0.0
N658 N 0.94591 0.72155 0.30797 0.0
N659 N 0.86718 0.7293 0.55226 0.0
C660 C 0.927 0.72126 0.37069 0.0
C661 C 0.88647 0.72488 0.49424 0.0
N662 N 0.95173 0.72809 0.51511 0.0
N663 N 0.86229 0.71121 0.35688 0.0
H664 H 0.86868 0.73485 0.62539 0.0
H665 H 0.84977 0.72895 0.527 0.0
H666 H 0.85988 0.7067 0.28289 0.0
H667 H 0.84704 0.70934 0.39923 0.0
H668 H 0.96749 0.72448 0.47835 0.0
H669 H 0.95407 0.73179 0.58993 0.0
H670 H 0.96283 0.72713 0.32777 0.0
H671 H 0.9443 0.71747 0.23338 0.0
C672 C 0.7752 0.60821 0.13598 0.0
C673 C 0.78835 0.59013 0.18323 0.0
C674 C 0.78723 0.5662 0.03199 0.0
C675 C 0.77508 0.58476 0.9834 0.0
N676 N 0.76033 0.62464 0.98226 0.0
N677 N 0.80942 0.55329 0.17612 0.0
C678 C 0.76979 0.60612 0.0337 0.0
C679 C 0.79515 0.5695 0.13092 0.0
N680 N 0.76771 0.62722 0.18979 0.0
N681 N 0.79042 0.5452 0.98396 0.0
H682 H 0.8151 0.55529 0.2488 0.0
H683 H 0.81687 0.53878 0.14052 0.0
H684 H 0.78479 0.54252 0.91144 0.0
H685 H 0.79716 0.53003 0.01722 0.0
H686 H 0.75589 0.63988 0.16347 0.0
H687 H 0.77235 0.62963 0.26366 0.0
H688 H 0.75812 0.64153 1.01128 0.0
H689 H 0.75618 0.62355 0.90743 0.0
C690 C 0.38354 0.78225 0.09639 0.0
C691 C 0.40392 0.78243 0.15734 0.0
C692 C 0.42868 0.77112 0.01609 0.0
C693 C 0.40808 0.76948 0.9566 0.0
N694 N 0.3657 0.77012 0.94108 0.0
N695 N 0.44536 0.77459 0.18098 0.0
C696 C 0.38541 0.77422 0.99702 0.0
C697 C 0.42637 0.7761 0.11872 0.0
N698 N 0.36249 0.79008 0.13384 0.0
N699 N 0.45043 0.76869 0.97312 0.0
H700 H 0.44407 0.77842 0.256 0.0
H701 H 0.46186 0.76803 0.16036 0.0
H702 H 0.45249 0.76527 0.89795 0.0
H703 H 0.46637 0.77176 1.00962 0.0
H704 H 0.34736 0.79279 0.09137 0.0
H705 H 0.36063 0.79528 0.20733 0.0
H706 H 0.34846 0.77124 0.96787 0.0
H707 H 0.36667 0.76379 0.86891 0.0
C708 C 0.21441 0.42882 0.14749 0.0
C709 C 0.21834 0.40624 0.19027 0.0
C710 C 0.23561 0.39204 0.03519 0.0
C711 C 0.23042 0.41417 0.99087 0.0
N712 N 0.21325 0.4529 0.99849 0.0
N713 N 0.23045 0.36574 0.17586 0.0
C714 C 0.21938 0.43241 0.0455 0.0
C715 C 0.22843 0.38767 0.13432 0.0
N716 N 0.20646 0.44689 0.20559 0.0
N717 N 0.24782 0.37547 0.98233 0.0
H718 H 0.2255 0.36231 0.24866 0.0
H719 H 0.23565 0.35068 0.13746 0.0
H720 H 0.25294 0.3782 0.90925 0.0
H721 H 0.25413 0.35969 1.0118 0.0
H722 H 0.20523 0.46439 0.18239 0.0
H723 H 0.20255 0.44463 0.2802 0.0
H724 H 0.20323 0.46629 0.03056 0.0
H725 H 0.21714 0.45593 0.92425 0.0
C726 C 0.57437 0.20243 0.12521 0.0
C727 C 0.59501 0.20901 0.17824 0.0
C728 C 0.61128 0.22757 0.02934 0.0
C729 C 0.58983 0.22267 0.9786 0.0
N730 N 0.54999 0.2079 0.97869 0.0
N731 N 0.63229 0.22938 0.18593 0.0
C732 C 0.57111 0.21067 0.02669 0.0
C733 C 0.61324 0.22207 0.13161 0.0
N734 N 0.55811 0.188 0.16917 0.0
N735 N 0.63004 0.23669 0.97832 0.0
H736 H 0.6346 0.22468 0.25978 0.0
H737 H 0.64503 0.24114 0.16002 0.0
H738 H 0.6291 0.24079 0.90343 0.0
H739 H 0.64698 0.23855 1.00776 0.0
H740 H 0.54359 0.18074 0.1328 0.0
H741 H 0.56019 0.18192 0.2412 0.0
H742 H 0.53473 0.20131 1.01189 0.0
H743 H 0.5473 0.2138 0.90656 0.0
C744 C 0.77125 0.39241 0.97446 0.0
C745 C 0.77485 0.41509 0.01662 0.0
C746 C 0.78982 0.43005 0.85843 0.0
C747 C 0.78663 0.40724 0.81673 0.0
N748 N 0.77695 0.36618 0.83381 0.0
N749 N 0.7892 0.45489 1.00543 0.0
C750 C 0.77802 0.38825 0.8746 0.0
C751 C 0.78467 0.43375 0.9603 0.0
N752 N 0.76105 0.37504 0.03028 0.0
N753 N 0.79727 0.44817 0.79935 0.0
H754 H 0.78501 0.458 0.0793 0.0
H755 H 0.79802 0.46894 0.97227 0.0
H756 H 0.80144 0.44578 0.72508 0.0
H757 H 0.79821 0.46576 0.82144 0.0
H758 H 0.75592 0.35862 1.00314 0.0
H759 H 0.75678 0.37744 0.10446 0.0
H760 H 0.77271 0.3509 0.87274 0.0
H761 H 0.78163 0.36293 0.76056 0.0
C762 C 0.56245 0.77758 0.96113 0.0
C763 C 0.58185 0.76805 1.01418 0.0
C764 C 0.60751 0.77278 0.8691 0.0
C765 C 0.58781 0.78116 0.81447 0.0
N766 N 0.5463 0.79013 0.80296 0.0
N767 N 0.62235 0.75514 0.02099 0.0
C768 C 0.56519 0.78328 0.85924 0.0
C769 C 0.60429 0.76525 0.96864 0.0
N770 N 0.54152 0.7813 1.00932 0.0
N771 N 0.62936 0.77276 0.82578 0.0
H772 H 0.62068 0.75043 0.09509 0.0
H773 H 0.63864 0.75049 0.9909 0.0
H774 H 0.63199 0.77812 0.7529 0.0
H775 H 0.64505 0.76881 0.86262 0.0
H776 H 0.52705 0.79005 0.97883 0.0
H777 H 0.53901 0.77653 0.08298 0.0
H778 H 0.52883 0.79014 0.82734 0.0
H779 H 0.54794 0.79463 0.72866 0.0
C780 C 0.2142 0.60488 0.98089 0.0
C781 C 0.22102 0.58248 0.0184 0.0
C782 C 0.21627 0.5648 0.85454 0.0
C783 C 0.20832 0.58694 0.81782 0.0
N784 N 0.19768 0.62755 0.84461 0.0
N785 N 0.22577 0.54064 0.99784 0.0
C786 C 0.20659 0.60683 0.88096 0.0
C787 C 0.22133 0.56229 0.9569 0.0
N788 N 0.21593 0.62433 0.04028 0.0
N789 N 0.21921 0.54632 0.7909 0.0
H790 H 0.22949 0.53849 0.07277 0.0
H791 H 0.22417 0.5247 0.96 0.0
H792 H 0.21501 0.54752 0.71631 0.0
H793 H 0.22708 0.53031 0.81005 0.0
H794 H 0.21325 0.6416 0.01618 0.0
H795 H 0.22163 0.62334 0.11341 0.0
H796 H 0.19353 0.64214 0.88809 0.0
H797 H 0.1933 0.62978 0.77038 0.0
C798 C 0.43718 0.20938 0.97935 0.0
C799 C 0.42052 0.22364 0.02973 0.0
C800 C 0.3952 0.22459 0.88197 0.0
C801 C 0.41238 0.21126 0.83003 0.0
N802 N 0.45145 0.19435 0.8223 0.0
N803 N 0.38531 0.24754 0.02787 0.0
C804 C 0.43386 0.20451 0.87699 0.0
C805 C 0.40005 0.23216 0.98029 0.0
N806 N 0.45604 0.20039 0.0302 0.0
N807 N 0.37386 0.22911 0.83818 0.0
H808 H 0.38782 0.25244 0.10133 0.0
H809 H 0.3714 0.25641 0.99353 0.0
H810 H 0.36988 0.2236 0.76658 0.0
H811 H 0.35953 0.23671 0.87458 0.0
H812 H 0.46769 0.1879 1.00141 0.0
H813 H 0.45922 0.20448 0.10414 0.0
H814 H 0.46841 0.19101 0.84907 0.0
H815 H 0.44969 0.19104 0.74697 0.0
C816 C 0.34343 0.15629 0.13005 0.0
C817 C 0.32733 0.14373 0.19065 0.0
C818 C 0.34519 0.16287 0.33653 0.0
C819 C 0.35806 0.17843 0.27385 0.0
N820 N 0.36604 0.19184 0.1068 0.0
N821 N 0.31106 0.13744 0.354 0.0
C822 C 0.35619 0.17571 0.16953 0.0
C823 C 0.32791 0.14735 0.29481 0.0
N824 N 0.34724 0.1492 0.03493 0.0
N825 N 0.34886 0.16319 0.43622 0.0
H826 H 0.29792 0.12626 0.32812 0.0
H827 H 0.30879 0.14193 0.42793 0.0
H828 H 0.35992 0.17525 0.47139 0.0
H829 H 0.34224 0.15025 0.48354 0.0
H830 H 0.3606 0.15622 0.99062 0.0
H831 H 0.33906 0.13441 1.00424 0.0
H832 H 0.36262 0.19205 0.03119 0.0
H833 H 0.37582 0.20629 0.13017 0.0
C834 C 0.82794 0.34894 0.23656 0.0
C835 C 0.82668 0.35235 0.34082 0.0
C836 C 0.86225 0.32773 0.36132 0.0
C837 C 0.86173 0.32181 0.25935 0.0
N838 N 0.84404 0.32686 0.09844 0.0
N839 N 0.84283 0.34481 0.50318 0.0
C840 C 0.84489 0.33283 0.19615 0.0
C841 C 0.84393 0.34172 0.40313 0.0
N842 N 0.81267 0.36072 0.17565 0.0
N843 N 0.88106 0.32087 0.41787 0.0
H844 H 0.832 0.35724 0.53724 0.0
H845 H 0.85201 0.33431 0.5535 0.0
H846 H 0.89506 0.31127 0.38943 0.0
H847 H 0.88418 0.32667 0.4896 0.0
H848 H 0.81486 0.36205 0.0996 0.0
H849 H 0.79819 0.37017 0.2011 0.0
H850 H 0.83003 0.33108 0.05168 0.0
H851 H 0.85698 0.31681 0.06355 0.0
C852 C 0.65207 0.81679 0.23693 0.0
C853 C 0.64251 0.82242 0.33112 0.0
C854 C 0.66222 0.86106 0.32134 0.0
C855 C 0.67552 0.85323 0.23874 0.0
N856 N 0.6854 0.82147 0.12706 0.0
N857 N 0.6402 0.84993 0.46726 0.0
C858 C 0.67113 0.83046 0.19912 0.0
C859 C 0.64814 0.84457 0.37475 0.0
N860 N 0.64276 0.79889 0.18177 0.0
N861 N 0.66259 0.88433 0.34759 0.0
H862 H 0.62882 0.83899 0.50691 0.0
H863 H 0.64621 0.86453 0.50702 0.0
H864 H 0.67141 0.89694 0.30574 0.0
H865 H 0.6519 0.89144 0.40276 0.0
H866 H 0.64802 0.79546 0.10946 0.0
H867 H 0.62764 0.78975 0.20235 0.0
H868 H 0.68443 0.80395 0.10341 0.0
H869 H 0.69961 0.83078 0.09759 0.0
C870 C 0.15456 0.63278 0.24887 0.0
C871 C 0.16157 0.63882 0.34651 0.0
C872 C 0.13975 0.67623 0.33185 0.0
C873 C 0.1368 0.67215 0.2289 0.0
N874 N 0.14194 0.64664 0.08794 0.0
N875 N 0.14963 0.65995 0.49225 0.0
C876 C 0.14429 0.6504 0.18709 0.0
C877 C 0.15098 0.65882 0.39161 0.0
N878 N 0.15523 0.60976 0.21867 0.0
N879 N 0.13259 0.69712 0.37237 0.0
H880 H 0.15422 0.64567 0.5372 0.0
H881 H 0.14108 0.67338 0.53078 0.0
H882 H 0.12107 0.70856 0.33658 0.0
H883 H 0.13796 0.70301 0.44167 0.0
H884 H 0.14905 0.60409 0.15023 0.0
H885 H 0.15809 0.59586 0.26778 0.0
H886 H 0.14996 0.63253 0.05142 0.0
H887 H 0.13319 0.65842 0.04113 0.0
C888 C 0.33663 0.81525 0.72874 0.0
C889 C 0.35257 0.8277 0.66603 0.0
C890 C 0.34039 0.86521 0.74279 0.0
C891 C 0.32161 0.85323 0.79199 0.0
N892 N 0.3023 0.81671 0.83619 0.0
N893 N 0.36979 0.86454 0.61227 0.0
C894 C 0.32002 0.82818 0.78668 0.0
C895 C 0.35454 0.85268 0.67316 0.0
N896 N 0.33734 0.7911 0.73366 0.0
N897 N 0.34514 0.88841 0.76339 0.0
H898 H 0.38192 0.85603 0.56643 0.0
H899 H 0.36958 0.88283 0.60307 0.0
H900 H 0.33578 0.89834 0.81467 0.0
H901 H 0.36004 0.89729 0.73745 0.0
H902 H 0.32798 0.78117 0.78521 0.0
H903 H 0.34875 0.78076 0.69192 0.0
H904 H 0.29768 0.79913 0.82404 0.0
H905 H 0.29145 0.82511 0.88757 0.0
C906 C 0.14877 0.35396 0.8638 0.0
C907 C 0.14955 0.32886 0.8643 0.0
C908 C 0.18196 0.32962 0.74328 0.0
C909 C 0.18157 0.35475 0.74453 0.0
N910 N 0.15966 0.39048 0.78227 0.0
N911 N 0.16267 0.29273 0.78559 0.0
C912 C 0.16339 0.36684 0.79702 0.0
C913 C 0.16472 0.31666 0.7977 0.0
N914 N 0.13422 0.3656 0.92826 0.0
N915 N 0.19918 0.31809 0.69109 0.0
H916 H 0.15076 0.28231 0.82456 0.0
H917 H 0.17138 0.28328 0.73063 0.0
H918 H 0.21056 0.32673 0.64245 0.0
H919 H 0.20287 0.30014 0.69865 0.0
H920 H 0.13533 0.38368 0.94209 0.0
H921 H 0.12177 0.357 0.97231 0.0
H922 H 0.14518 0.39961 0.81075 0.0
H923 H 0.16942 0.40073 0.73338 0.0
C924 C 0.68693 0.17133 0.82501 0.0
C925 C 0.67703 0.15058 0.86801 0.0
C926 C 0.63913 0.15887 0.78374 0.0
C927 C 0.64925 0.17948 0.74037 0.0
N928 N 0.68465 0.20044 0.69415 0.0
N929 N 0.64499 0.12219 0.87327 0.0
C930 C 0.67373 0.18419 0.7535 0.0
C931 C 0.65361 0.14352 0.84197 0.0
N932 N 0.7089 0.17907 0.85256 0.0
N933 N 0.61542 0.15442 0.77434 0.0
H934 H 0.65384 0.11127 0.92293 0.0
H935 H 0.6296 0.11455 0.84532 0.0
H936 H 0.60432 0.16352 0.72643 0.0
H937 H 0.60637 0.14216 0.81755 0.0
H938 H 0.71556 0.19564 0.83351 0.0
H939 H 0.71997 0.16986 0.90024 0.0
H940 H 0.70292 0.20297 0.69242 0.0
H941 H 0.67573 0.20944 0.63818 0.0
C942 C 0.81155 0.67029 0.75059 0.0
C943 C 0.81747 0.6461 0.73758 0.0
C944 C 0.85545 0.65349 0.82239 0.0
C945 C 0.84745 0.67644 0.84974 0.0
N946 N 0.81585 0.70549 0.84921 0.0
N947 N 0.84491 0.61399 0.76916 0.0
C948 C 0.82491 0.68447 0.81675 0.0
C949 C 0.83954 0.63753 0.77431 0.0
N950 N 0.79358 0.68007 0.69648 0.0
N951 N 0.87815 0.64668 0.84336 0.0
H952 H 0.83461 0.6016 0.73229 0.0
H953 H 0.859 0.60634 0.80724 0.0
H954 H 0.88989 0.65694 0.88436 0.0
H955 H 0.8859 0.6315 0.81416 0.0
H956 H 0.79002 0.69815 0.69518 0.0
H957 H 0.78411 0.67058 0.64372 0.0
H958 H 0.79838 0.71064 0.83651 0.0
H959 H 0.82485 0.71693 0.89594 0.0
C960 C 0.27016 0.01222 0.9638 0.0
C961 C 0.28146 0.02019 0.05207 0.0
C962 C 0.29751 0.98024 0.07685 0.0
C963 C 0.28367 0.97179 0.99698 0.0
N964 N 0.25465 0.97917 0.8701 0.0
N965 N 0.30081 0.00964 0.20536 0.0
C966 C 0.26921 0.9876 0.94266 0.0
C967 C 0.29391 0.00366 0.11187 0.0
N968 N 0.26147 0.02807 0.89681 0.0
N969 N 0.31404 0.96596 0.12004 0.0
H970 H 0.29681 0.02587 0.23778 0.0
H971 H 0.30788 0.99747 0.2551 0.0
H972 H 0.31678 0.94846 0.09899 0.0
H973 H 0.32646 0.97225 0.1706 0.0
H974 H 0.25538 0.0233 0.82703 0.0
H975 H 0.26277 0.04624 0.90529 0.0
H976 H 0.24137 0.98928 0.83722 0.0
H977 H 0.25484 0.96161 0.84681 0.0
C978 C 0.01337 0.27014 0.93895 0.0
C979 C 0.02855 0.2833 1.00158 0.0
C980 C 0.99521 0.29116 0.11263 0.0
C981 C 0.97942 0.27999 0.04547 0.0
N982 N 0.97344 0.26317 0.88262 0.0
N983 N 0.03247 0.31163 0.13331 0.0
C984 C 0.98848 0.27054 0.9554 0.0
C985 C 0.019 0.29554 0.0836 0.0
N986 N 0.02268 0.25738 0.86274 0.0
N987 N 0.98808 0.29626 0.20662 0.0
H988 H 0.04965 0.31578 0.11193 0.0
H989 H 0.02571 0.32258 0.18836 0.0
H990 H 0.97143 0.29174 0.23393 0.0
H991 H -0.00034 0.3023 0.26103 0.0
H992 H 0.01312 0.24476 0.8233 0.0
H993 H 0.04038 0.25859 0.84214 0.0
H994 H 0.97902 0.25848 0.81209 0.0
H995 H 0.95515 0.26414 0.88801 0.0
C996 C 0.72673 0.99148 0.13921 0.0
C997 C 0.71302 0.97656 0.07785 0.0
C998 C 0.70398 0.01016 0.96987 0.0
C999 C 0.71564 0.02574 0.03642 0.0
N1000 N 0.73369 0.03122 0.197 0.0
N1001 N 0.68385 0.97276 0.9486 0.0
C1002 C 0.72589 0.0164 0.12453 0.0
C1003 C 0.70002 0.98627 0.998 0.0
N1004 N 0.74056 0.9819 0.21188 0.0
N1005 N 0.69817 0.01753 0.87682 0.0
H1006 H 0.68052 0.95517 0.96647 0.0
H1007 H 0.67222 0.9797 0.89627 0.0
H1008 H 0.70244 0.03423 0.84951 0.0
H1009 H 0.69178 0.00611 0.82262 0.0
H1010 H 0.75317 0.99158 0.25094 0.0
H1011 H 0.74053 0.9639 0.22894 0.0
H1012 H 0.73887 0.02546 0.2668 0.0
H1013 H 0.73253 0.04944 0.1916 0.0
C1014 C 0.97996 0.70851 0.06423 0.0
C1015 C 0.97106 0.72341 0.98842 0.0
C1016 C 0.01127 0.73912 0.96289 0.0
C1017 C 0.01964 0.72614 0.04646 0.0
N1018 N 0.00918 0.7042 0.19322 0.0
N1019 N 0.97781 0.75515 0.87281 0.0
C1020 C 0.00322 0.71234 0.10152 0.0
C1021 C 0.98656 0.73953 0.94072 0.0
N1022 N 0.96631 0.69071 0.10165 0.0
N1023 N 0.0268 0.75 0.90045 0.0
H1024 H 0.96047 0.75458 0.84677 0.0
H1025 H 0.98744 0.76955 0.8464 0.0
H1026 H 0.04495 0.75039 0.91147 0.0
H1027 H 0.02192 0.75688 0.83207 0.0
H1028 H 0.97295 0.67782 0.14927 0.0
H1029 H 0.94893 0.68765 0.07952 0.0
H1030 H 0.99711 0.69602 0.24033 0.0
H1031 H 0.02516 0.70839 0.22754 0.0
C1032 C 0.7928 0.49148 0.42525 0.0
C1033 C 0.78028 0.47501 0.48509 0.0
C1034 C 0.76925 0.50756 0.59707 0.0
C1035 C 0.78365 0.52329 0.54214 0.0
N1036 N 0.81333 0.529 0.41662 0.0
N1037 N 0.7604 0.46712 0.64031 0.0
C1038 C 0.79689 0.51481 0.46077 0.0
C1039 C 0.76944 0.48298 0.57427 0.0
N1040 N 0.79927 0.48555 0.33123 0.0
N1041 N 0.75536 0.51607 0.67162 0.0
H1042 H 0.76083 0.44898 0.62977 0.0
H1043 H 0.75473 0.47172 0.71083 0.0
H1044 H 0.75629 0.53349 0.69635 0.0
H1045 H 0.74201 0.50622 0.70521 0.0
H1046 H 0.80634 0.49769 0.28139 0.0
H1047 H 0.79492 0.46943 0.29863 0.0
H1048 H 0.82538 0.52272 0.36463 0.0
H1049 H 0.81644 0.5464 0.43846 0.0
C1050 C 0.48096 0.7899 0.43408 0.0
C1051 C 0.47143 0.7775 0.51588 0.0
C1052 C 0.51151 0.76375 0.55828 0.0
C1053 C 0.52041 0.77361 0.46877 0.0
N1054 N 0.51142 0.79046 0.30905 0.0
N1055 N 0.47733 0.75047 0.65122 0.0
C1056 C 0.50453 0.78518 0.40321 0.0
C1057 C 0.48662 0.76363 0.5761 0.0
N1058 N 0.46772 0.80654 0.38646 0.0
N1059 N 0.52672 0.75569 0.62923 0.0
H1060 H 0.45962 0.75152 0.67189 0.0
H1061 H 0.4869 0.73759 0.68921 0.0
H1062 H 0.54503 0.7563 0.62245 0.0
H1063 H 0.52131 0.75068 0.69966 0.0
H1064 H 0.47455 0.81756 0.33173 0.0
H1065 H 0.45078 0.81108 0.40941 0.0
H1066 H 0.49973 0.79683 0.25567 0.0
H1067 H 0.52791 0.78576 0.28053 0.0
C1068 C 0.21056 0.48842 0.58672 0.0
C1069 C 0.22343 0.47243 0.52628 0.0
C1070 C 0.23394 0.50563 0.4169 0.0
C1071 C 0.21849 0.52063 0.4705 0.0
N1072 N 0.18764 0.52442 0.59297 0.0
N1073 N 0.24356 0.46561 0.37048 0.0
C1074 C 0.20529 0.51141 0.55075 0.0
C1075 C 0.23426 0.48096 0.43794 0.0
N1076 N 0.20463 0.48234 0.68117 0.0
N1077 N 0.24809 0.51479 0.34454 0.0
H1078 H 0.24331 0.4474 0.37875 0.0
H1079 H 0.24919 0.47077 0.30052 0.0
H1080 H 0.24703 0.53231 0.32108 0.0
H1081 H 0.2619 0.50535 0.31214 0.0
H1082 H 0.19714 0.49425 0.73087 0.0
H1083 H 0.20996 0.46652 0.71402 0.0
H1084 H 0.17605 0.51748 0.64538 0.0
H1085 H 0.18328 0.5414 0.56977 0.0
C1086 C 0.51908 0.20131 0.45697 0.0
C1087 C 0.52787 0.2137 0.54014 0.0
C1088 C 0.48735 0.22549 0.58259 0.0
C1089 C 0.47892 0.21587 0.49169 0.0
N1090 N 0.48865 0.1996 0.33164 0.0
N1091 N 0.52084 0.23985 0.67729 0.0
C1092 C 0.49527 0.20497 0.4261 0.0
C1093 C 0.51215 0.22658 0.60113 0.0
N1094 N 0.53341 0.18598 0.40717 0.0
N1095 N 0.47181 0.23237 0.65414 0.0
H1096 H 0.53864 0.23975 0.69772 0.0
H1097 H 0.51064 0.25205 0.71617 0.0
H1098 H 0.45361 0.23099 0.64654 0.0
H1099 H 0.47696 0.23698 0.72542 0.0
H1100 H 0.52701 0.17445 0.35334 0.0
H1101 H 0.55107 0.1831 0.42633 0.0
H1102 H 0.50058 0.19376 0.27829 0.0
H1103 H 0.472 0.20363 0.30283 0.0
C1104 C 0.20074 0.17475 0.98807 0.0
C1105 C 0.20077 0.16164 0.07746 0.0
C1106 C 0.16844 0.18627 0.14095 0.0
C1107 C 0.16693 0.19779 0.04805 0.0
N1108 N 0.17841 0.19978 0.87672 0.0
N1109 N 0.18187 0.15184 0.2318 0.0
C1110 C 0.18215 0.19108 0.96962 0.0
C1111 C 0.18381 0.16652 0.152 0.0
N1112 N 0.21895 0.17227 0.92237 0.0
N1113 N 0.15585 0.19471 0.21954 0.0
H1114 H 0.19263 0.13703 0.24189 0.0
H1115 H 0.16822 0.15309 0.28323 0.0
H1116 H 0.14454 0.20927 0.21462 0.0
H1117 H 0.15819 0.18862 0.29144 0.0
H1118 H 0.22114 0.1832 0.86117 0.0
H1119 H 0.23315 0.16076 0.93369 0.0
H1120 H 0.18737 0.19359 0.81472 0.0
H1121 H 0.16478 0.21158 0.85985 0.0
C1122 C 0.81515 0.20634 0.95425 0.0
C1123 C 0.83645 0.20086 1.00555 0.0
C1124 C 0.82367 0.15954 1.01122 0.0
C1125 C 0.80045 0.1661 0.98107 0.0
N1126 N 0.77324 0.19843 0.94849 0.0
N1127 N 0.85725 0.17218 0.1071 0.0
C1128 C 0.79586 0.19028 0.95909 0.0
C1129 C 0.83976 0.1774 0.0409 0.0
N1130 N 0.8134 0.22638 0.89848 0.0
N1131 N 0.83071 0.13644 1.00912 0.0
H1132 H 0.86804 0.18504 0.13911 0.0
H1133 H 0.85892 0.15549 0.13924 0.0
H1134 H 0.82009 0.123 0.98038 0.0
H1135 H 0.84809 0.13132 0.02454 0.0
H1136 H 0.79862 0.23002 0.85478 0.0
H1137 H 0.82773 0.23767 0.88655 0.0
H1138 H 0.76938 0.21635 0.93944 0.0
H1139 H 0.75837 0.18794 0.96113 0.0
C1140 C 0.81094 0.79932 0.04487 0.0
C1141 C 0.82639 0.80049 0.96245 0.0
C1142 C 0.80413 0.83446 0.89773 0.0
C1143 C 0.79031 0.83477 0.98514 0.0
N1144 N 0.78282 0.81986 0.14914 0.0
N1145 N 0.83997 0.82088 0.81676 0.0
C1146 C 0.79429 0.8178 0.06068 0.0
C1147 C 0.82358 0.81851 0.89034 0.0
N1148 N 0.81174 0.78018 0.10657 0.0
N1149 N 0.79826 0.84901 0.82088 0.0
H1150 H 0.85441 0.80952 0.80889 0.0
H1151 H 0.84037 0.83518 0.7683 0.0
H1152 H 0.78414 0.8609 0.82394 0.0
H1153 H 0.80604 0.84792 0.75139 0.0
H1154 H 0.79923 0.77702 0.16143 0.0
H1155 H 0.82373 0.76629 0.09758 0.0
H1156 H 0.78698 0.80967 0.21082 0.0
H1157 H 0.77044 0.83309 0.16389 0.0
C1158 C 0.17086 0.81605 0.14653 0.0
C1159 C 0.16669 0.79794 0.07603 0.0
C1160 C 0.19895 0.81337 0.97323 0.0
C1161 C 0.2043 0.83029 0.04739 0.0
N1162 N 0.19859 0.84467 0.21315 0.0
N1163 N 0.17981 0.77625 0.93278 0.0
C1164 C 0.1912 0.83071 0.13671 0.0
C1165 C 0.18164 0.79569 0.99234 0.0
N1166 N 0.15492 0.81981 0.22077 0.0
N1167 N 0.20973 0.81473 0.88308 0.0
H1168 H 0.16753 0.76277 0.94481 0.0
H1169 H 0.19188 0.7724 0.87695 0.0
H1170 H 0.22248 0.82744 0.86583 0.0
H1171 H 0.2046 0.80456 0.82266 0.0
H1172 H 0.15569 0.83432 0.26803 0.0
H1173 H 0.13968 0.80961 0.22988 0.0
H1174 H 0.19122 0.84393 0.2835 0.0
H1175 H 0.21358 0.85543 0.20896 0.0
C1176 C 0.66985 0.6793 0.38829 0.0
C1177 C 0.66531 0.69664 0.46165 0.0
C1178 C 0.69657 0.67974 0.56605 0.0
C1179 C 0.70237 0.66367 0.48931 0.0
N1180 N 0.6975 0.65067 0.32113 0.0
N1181 N 0.67682 0.71615 0.61258 0.0
C1182 C 0.68985 0.66417 0.3985 0.0
C1183 C 0.67938 0.69765 0.54846 0.0
N1184 N 0.6546 0.67679 0.31054 0.0
N1185 N 0.70693 0.67741 0.65682 0.0
H1186 H 0.6644 0.7296 0.60245 0.0
H1187 H 0.68831 0.71929 0.6713 0.0
H1188 H 0.71975 0.66465 0.67254 0.0
H1189 H 0.7015 0.68684 0.71879 0.0
H1190 H 0.65551 0.66288 0.26038 0.0
H1191 H 0.63972 0.6875 0.30075 0.0
H1192 H 0.69069 0.65212 0.24994 0.0
H1193 H 0.71211 0.63942 0.32593 0.0
C1194 C 0.31207 0.69446 0.5575 0.0
C1195 C 0.32748 0.6999 0.47797 0.0
C1196 C 0.30815 0.66967 0.37605 0.0
C1197 C 0.29145 0.66572 0.45264 0.0
N1198 N 0.27472 0.67731 0.60904 0.0
N1199 N 0.33776 0.69584 0.3061 0.0
C1200 C 0.29261 0.67898 0.54138 0.0
C1201 C 0.32484 0.68839 0.38555 0.0
N1202 N 0.3165 0.70346 0.64936 0.0
N1203 N 0.30862 0.65499 0.29592 0.0
H1204 H 0.35017 0.70949 0.31025 0.0
H1205 H 0.33477 0.68991 0.23442 0.0
H1206 H 0.29672 0.64106 0.28629 0.0
H1207 H 0.322 0.65536 0.24306 0.0
H1208 H 0.30744 0.69809 0.71243 0.0
H1209 H 0.33066 0.71476 0.66438 0.0
H1210 H 0.27329 0.68838 0.67013 0.0
H1211 H 0.26007 0.66628 0.59953 0.0
C1212 C 0.32287 0.3028 0.41639 0.0
C1213 C 0.3344 0.29294 0.49999 0.0
C1214 C 0.3088 0.31607 0.60983 0.0
C1215 C 0.29894 0.32761 0.52631 0.0
N1216 N 0.2985 0.33446 0.35064 0.0
N1217 N 0.3408 0.29216 0.67595 0.0
C1218 C 0.30646 0.32163 0.42959 0.0
C1219 C 0.328 0.30007 0.59678 0.0
N1220 N 0.32714 0.2937 0.32462 0.0
N1221 N 0.29939 0.31999 0.70134 0.0
H1222 H 0.35488 0.2803 0.66939 0.0
H1223 H 0.33873 0.29869 0.74723 0.0
H1224 H 0.28542 0.33171 0.71374 0.0
H1225 H 0.30404 0.31026 0.76365 0.0
H1226 H 0.31743 0.29832 0.26217 0.0
H1227 H 0.33913 0.27998 0.31199 0.0
H1228 H 0.30534 0.33277 0.27968 0.0
H1229 H 0.28624 0.34819 0.35719 0.0
C1230 C 0.70384 0.31638 0.53005 0.0
C1231 C 0.70172 0.3311 0.44557 0.0
C1232 C 0.66848 0.30695 0.38649 0.0
C1233 C 0.66887 0.29407 0.47641 0.0
N1234 N 0.68455 0.28883 0.6408 0.0
N1235 N 0.67997 0.3427 0.30001 0.0
C1236 C 0.68594 0.29937 0.55014 0.0
C1237 C 0.6835 0.32699 0.37532 0.0
N1238 N 0.72336 0.31816 0.58952 0.0
N1239 N 0.65422 0.29962 0.31081 0.0
H1240 H 0.69051 0.35767 0.28977 0.0
H1241 H 0.66542 0.34204 0.25277 0.0
H1242 H 0.64315 0.28489 0.31616 0.0
H1243 H 0.65495 0.30678 0.24006 0.0
H1244 H 0.72712 0.30622 0.64596 0.0
H1245 H 0.73699 0.33025 0.57688 0.0
H1246 H 0.69484 0.29397 0.70091 0.0
H1247 H 0.67169 0.2763 0.65879 0.0
loop_
_geom_bond_atom_site_label_1
_geom_bond_atom_site_label_2
_geom_bond_distance
_geom_bond_site_symmetry_2
_ccdc_geom_bond_type
Co0 N4 2.148 1_554 S
Co0 N10 2.128 . S
Co0 N20 2.194 . S
Co0 O25 2.351 . S
Co0 O26 2.155 . S
Co0 O27 2.096 . S
C1 N4 1.301 . S
C1 N5 1.328 . S
C1 H6 0.930 . S
C2 C3 1.333 . S
C2 N4 1.317 . S
C2 H7 0.930 . S
C3 C2 1.333 . S
C3 N5 1.350 . S
C3 H29 0.931 . S
N4 Co0 2.148 1_556 S
N4 C1 1.301 . S
N4 C2 1.317 . S
N5 C1 1.328 . S
N5 C3 1.350 . S
H6 C1 0.930 . S
H7 C2 0.930 . S
C8 O9 1.224 . S
C8 O27 1.247 . S
O9 C8 1.224 . S
N10 Co0 2.128 . S
N10 C11 1.355 . S
N10 C13 1.311 . S
C11 N10 1.355 . S
C11 C12 1.363 . S
C11 H23 0.929 . S
C12 C11 1.363 . S
C12 N14 1.375 . S
C12 H30 0.931 . S
C13 N10 1.311 . S
C13 N14 1.347 . S
C13 H24 0.929 . S
N14 C12 1.375 . S
N14 C13 1.347 . S
C15 C18 1.365 . S
C15 N20 1.328 . S
C15 H21 0.929 . S
C16 C17 1.362 . S
C16 C19 1.378 . S
C16 H31 0.929 . S
C17 C16 1.362 . S
C17 C18 1.366 . S
C18 C15 1.365 . S
C18 C17 1.366 . S
C18 H32 0.930 1_554 S
C19 C16 1.378 . S
C19 N20 1.315 . S
C19 H22 0.930 . S
N20 Co0 2.194 . S
N20 C15 1.328 . S
N20 C19 1.315 . S
H21 C15 0.929 . S
H22 C19 0.930 . S
H23 C11 0.929 . S
H24 C13 0.929 . S
O25 Co0 2.351 . S
O25 C28 1.244 . S
O26 Co0 2.155 . S
O26 C28 1.240 . S
O27 Co0 2.096 . S
O27 C8 1.247 . S
C28 O25 1.244 . S
C28 O26 1.240 . S
H29 C3 0.931 . S
H30 C12 0.931 . S
H31 C16 0.929 . S
H32 C18 0.930 1_556 S
Co33 N37 2.148 1_554 S
Co33 N43 2.128 . S
Co33 N53 2.194 . S
Co33 O58 2.351 . S
Co33 O59 2.155 . S
Co33 O60 2.096 . S
C34 N37 1.301 . S
C34 N38 1.328 . S
C34 H39 0.930 . S
C35 C36 1.333 . S
C35 N37 1.317 . S
C35 H40 0.930 . S
C36 C35 1.333 . S
C36 N38 1.350 . S
C36 H62 0.931 . S
N37 Co33 2.148 1_556 S
N37 C34 1.301 . S
N37 C35 1.317 . S
N38 C34 1.328 . S
N38 C36 1.350 . S
H39 C34 0.930 . S
H40 C35 0.930 . S
C41 O42 1.224 . S
C41 O60 1.247 . S
O42 C41 1.224 . S
N43 Co33 2.128 . S
N43 C44 1.355 . S
N43 C46 1.311 . S
C44 N43 1.355 . S
C44 C45 1.363 . S
C44 H56 0.929 . S
C45 C44 1.363 . S
C45 N47 1.375 . S
C45 H63 0.931 . S
C46 N43 1.311 . S
C46 N47 1.347 . S
C46 H57 0.929 . S
N47 C45 1.375 . S
N47 C46 1.347 . S
C48 C51 1.365 . S
C48 N53 1.328 . S
C48 H54 0.929 . S
C49 C50 1.362 . S
C49 C52 1.378 . S
C49 H64 0.929 . S
C50 C49 1.362 . S
C50 C51 1.366 . S
C51 C48 1.365 . S
C51 C50 1.366 . S
C51 H65 0.930 1_554 S
C52 C49 1.378 . S
C52 N53 1.315 . S
C52 H55 0.930 . S
N53 Co33 2.194 . S
N53 C48 1.328 . S
N53 C52 1.315 . S
H54 C48 0.929 . S
H55 C52 0.930 . S
H56 C44 0.929 . S
H57 C46 0.929 . S
O58 Co33 2.351 . S
O58 C61 1.244 . S
O59 Co33 2.155 . S
O59 C61 1.240 . S
O60 Co33 2.096 . S
O60 C41 1.247 . S
C61 O58 1.244 . S
C61 O59 1.240 . S
H62 C36 0.931 . S
H63 C45 0.931 . S
H64 C49 0.929 . S
H65 C51 0.930 1_556 S
Co66 N70 2.148 1_554 S
Co66 N76 2.128 . S
Co66 N86 2.194 . S
Co66 O91 2.351 . S
Co66 O92 2.155 . S
Co66 O93 2.096 . S
C67 N70 1.301 . S
C67 N71 1.328 . S
C67 H72 0.930 . S
C68 C69 1.333 . S
C68 N70 1.317 . S
C68 H73 0.930 . S
C69 C68 1.333 . S
C69 N71 1.350 . S
C69 H95 0.931 . S
N70 Co66 2.148 1_556 S
N70 C67 1.301 . S
N70 C68 1.317 . S
N71 C67 1.328 . S
N71 C69 1.350 . S
H72 C67 0.930 . S
H73 C68 0.930 . S
C74 O75 1.224 . S
C74 O93 1.247 . S
O75 C74 1.224 . S
N76 Co66 2.128 . S
N76 C77 1.355 . S
N76 C79 1.311 . S
C77 N76 1.355 . S
C77 C78 1.363 . S
C77 H89 0.929 . S
C78 C77 1.363 . S
C78 N80 1.375 . S
C78 H96 0.931 . S
C79 N76 1.311 . S
C79 N80 1.347 . S
C79 H90 0.929 . S
N80 C78 1.375 . S
N80 C79 1.347 . S
C81 C84 1.365 . S
C81 N86 1.328 . S
C81 H87 0.929 . S
C82 C83 1.362 . S
C82 C85 1.378 . S
C82 H97 0.929 . S
C83 C82 1.362 . S
C83 C84 1.366 . S
C84 C81 1.365 . S
C84 C83 1.366 . S
C84 H98 0.930 1_554 S
C85 C82 1.378 . S
C85 N86 1.315 . S
C85 H88 0.930 . S
N86 Co66 2.194 . S
N86 C81 1.328 . S
N86 C85 1.315 . S
H87 C81 0.929 . S
H88 C85 0.930 . S
H89 C77 0.929 . S
H90 C79 0.929 . S
O91 Co66 2.351 . S
O91 C94 1.244 . S
O92 Co66 2.155 . S
O92 C94 1.240 . S
O93 Co66 2.096 . S
O93 C74 1.247 . S
C94 O91 1.244 . S
C94 O92 1.240 . S
H95 C69 0.931 . S
H96 C78 0.931 . S
H97 C82 0.929 . S
H98 C84 0.930 1_556 S
Co99 N103 2.148 1_554 S
Co99 N109 2.128 . S
Co99 N119 2.194 . S
Co99 O124 2.351 . S
Co99 O125 2.155 . S
Co99 O126 2.096 . S
C100 N103 1.301 . S
C100 N104 1.328 . S
C100 H105 0.930 . S
C101 C102 1.333 . S
C101 N103 1.317 . S
C101 H106 0.930 . S
C102 C101 1.333 . S
C102 N104 1.350 . S
C102 H128 0.931 . S
N103 Co99 2.148 1_556 S
N103 C100 1.301 . S
N103 C101 1.317 . S
N104 C100 1.328 . S
N104 C102 1.350 . S
H105 C100 0.930 . S
H106 C101 0.930 . S
C107 O108 1.224 . S
C107 O126 1.247 . S
O108 C107 1.224 . S
N109 Co99 2.128 . S
N109 C110 1.355 . S
N109 C112 1.311 . S
C110 N109 1.355 . S
C110 C111 1.363 . S
C110 H122 0.929 . S
C111 C110 1.363 . S
C111 N113 1.375 . S
C111 H129 0.931 . S
C112 N109 1.311 . S
C112 N113 1.347 . S
C112 H123 0.929 . S
N113 C111 1.375 . S
N113 C112 1.347 . S
C114 C117 1.365 . S
C114 N119 1.328 . S
C114 H120 0.929 . S
C115 C116 1.362 . S
C115 C118 1.378 . S
C115 H130 0.929 . S
C116 C115 1.362 . S
C116 C117 1.366 . S
C117 C114 1.365 . S
C117 C116 1.366 . S
C117 H131 0.930 1_554 S
C118 C115 1.378 . S
C118 N119 1.315 . S
C118 H121 0.930 . S
N119 Co99 2.194 . S
N119 C114 1.328 . S
N119 C118 1.315 . S
H120 C114 0.929 . S
H121 C118 0.930 . S
H122 C110 0.929 . S
H123 C112 0.929 . S
O124 Co99 2.351 . S
O124 C127 1.244 . S
O125 Co99 2.155 . S
O125 C127 1.240 . S
O126 Co99 2.096 . S
O126 C107 1.247 . S
C127 O124 1.244 . S
C127 O125 1.240 . S
H128 C102 0.931 . S
H129 C111 0.931 . S
H130 C115 0.929 . S
H131 C117 0.930 1_556 S
Co132 N136 2.148 1_556 S
Co132 N142 2.128 . S
Co132 N152 2.194 . S
Co132 O157 2.351 . S
Co132 O158 2.155 . S
Co132 O159 2.096 . S
C133 N136 1.301 . S
C133 N137 1.328 . S
C133 H138 0.930 . S
C134 C135 1.333 . S
C134 N136 1.317 . S
C134 H139 0.930 . S
C135 C134 1.333 . S
C135 N137 1.350 . S
C135 H161 0.931 . S
N136 Co132 2.148 1_554 S
N136 C133 1.301 . S
N136 C134 1.317 . S
N137 C133 1.328 . S
N137 C135 1.350 . S
H138 C133 0.930 . S
H139 C134 0.930 . S
C140 O141 1.224 . S
C140 O159 1.247 . S
O141 C140 1.224 . S
N142 Co132 2.128 . S
N142 C143 1.355 . S
N142 C145 1.311 . S
C143 N142 1.355 . S
C143 C144 1.363 . S
C143 H155 0.929 . S
C144 C143 1.363 . S
C144 N146 1.375 . S
C144 H162 0.931 . S
C145 N142 1.311 . S
C145 N146 1.347 . S
C145 H156 0.929 . S
N146 C144 1.375 . S
N146 C145 1.347 . S
C147 C150 1.365 . S
C147 N152 1.328 . S
C147 H153 0.929 . S
C148 C149 1.362 . S
C148 C151 1.378 . S
C148 H163 0.929 . S
C149 C148 1.362 . S
C149 C150 1.366 . S
C150 C147 1.365 . S
C150 C149 1.366 . S
C150 H164 0.930 1_556 S
C151 C148 1.378 . S
C151 N152 1.315 . S
C151 H154 0.930 . S
N152 Co132 2.194 . S
N152 C147 1.328 . S
N152 C151 1.315 . S
H153 C147 0.929 . S
H154 C151 0.930 . S
H155 C143 0.929 . S
H156 C145 0.929 . S
O157 Co132 2.351 . S
O157 C160 1.244 . S
O158 Co132 2.155 . S
O158 C160 1.240 . S
O159 Co132 2.096 . S
O159 C140 1.247 . S
C160 O157 1.244 . S
C160 O158 1.240 . S
H161 C135 0.931 . S
H162 C144 0.931 . S
H163 C148 0.929 . S
H164 C150 0.930 1_554 S
Co165 N169 2.148 1_556 S
Co165 N175 2.128 . S
Co165 N185 2.194 . S
Co165 O190 2.351 . S
Co165 O191 2.155 . S
Co165 O192 2.096 . S
C166 N169 1.301 . S
C166 N170 1.328 . S
C166 H171 0.930 . S
C167 C168 1.333 . S
C167 N169 1.317 . S
C167 H172 0.930 . S
C168 C167 1.333 . S
C168 N170 1.350 . S
C168 H194 0.931 . S
N169 Co165 2.148 1_554 S
N169 C166 1.301 . S
N169 C167 1.317 . S
N170 C166 1.328 . S
N170 C168 1.350 . S
H171 C166 0.930 . S
H172 C167 0.930 . S
C173 O174 1.224 . S
C173 O192 1.247 . S
O174 C173 1.224 . S
N175 Co165 2.128 . S
N175 C176 1.355 . S
N175 C178 1.311 . S
C176 N175 1.355 . S
C176 C177 1.363 . S
C176 H188 0.929 . S
C177 C176 1.363 . S
C177 N179 1.375 . S
C177 H195 0.931 . S
C178 N175 1.311 . S
C178 N179 1.347 . S
C178 H189 0.929 . S
N179 C177 1.375 . S
N179 C178 1.347 . S
C180 C183 1.365 . S
C180 N185 1.328 . S
C180 H186 0.929 . S
C181 C182 1.362 . S
C181 C184 1.378 . S
C181 H196 0.929 . S
C182 C181 1.362 . S
C182 C183 1.366 . S
C183 C180 1.365 . S
C183 C182 1.366 . S
C183 H197 0.930 1_556 S
C184 C181 1.378 . S
C184 N185 1.315 . S
C184 H187 0.930 . S
N185 Co165 2.194 . S
N185 C180 1.328 . S
N185 C184 1.315 . S
H186 C180 0.929 . S
H187 C184 0.930 . S
H188 C176 0.929 . S
H189 C178 0.929 . S
O190 Co165 2.351 . S
O190 C193 1.244 . S
O191 Co165 2.155 . S
O191 C193 1.240 . S
O192 Co165 2.096 . S
O192 C173 1.247 . S
C193 O190 1.244 . S
C193 O191 1.240 . S
H194 C168 0.931 . S
H195 C177 0.931 . S
H196 C181 0.929 . S
H197 C183 0.930 1_554 S
Co198 N202 2.148 1_556 S
Co198 N208 2.128 . S
Co198 N218 2.194 . S
Co198 O223 2.351 . S
Co198 O224 2.155 . S
Co198 O225 2.096 . S
C199 N202 1.301 . S
C199 N203 1.328 . S
C199 H204 0.930 . S
C200 C201 1.333 . S
C200 N202 1.317 . S
C200 H205 0.930 . S
C201 C200 1.333 . S
C201 N203 1.350 . S
C201 H227 0.931 . S
N202 Co198 2.148 1_554 S
N202 C199 1.301 . S
N202 C200 1.317 . S
N203 C199 1.328 . S
N203 C201 1.350 . S
H204 C199 0.930 . S
H205 C200 0.930 . S
C206 O207 1.224 . S
C206 O225 1.247 . S
O207 C206 1.224 . S
N208 Co198 2.128 . S
N208 C209 1.355 . S
N208 C211 1.311 . S
C209 N208 1.355 . S
C209 C210 1.363 . S
C209 H221 0.929 . S
C210 C209 1.363 . S
C210 N212 1.375 . S
C210 H228 0.931 . S
C211 N208 1.311 . S
C211 N212 1.347 . S
C211 H222 0.929 . S
N212 C210 1.375 . S
N212 C211 1.347 . S
C213 C216 1.365 . S
C213 N218 1.328 . S
C213 H219 0.929 . S
C214 C215 1.362 . S
C214 C217 1.378 . S
C214 H229 0.929 . S
C215 C214 1.362 . S
C215 C216 1.366 . S
C216 C213 1.365 . S
C216 C215 1.366 . S
C216 H230 0.930 1_556 S
C217 C214 1.378 . S
C217 N218 1.315 . S
C217 H220 0.930 . S
N218 Co198 2.194 . S
N218 C213 1.328 . S
N218 C217 1.315 . S
H219 C213 0.929 . S
H220 C217 0.930 . S
H221 C209 0.929 . S
H222 C211 0.929 . S
O223 Co198 2.351 . S
O223 C226 1.244 . S
O224 Co198 2.155 . S
O224 C226 1.240 . S
O225 Co198 2.096 . S
O225 C206 1.247 . S
C226 O223 1.244 . S
C226 O224 1.240 . S
H227 C201 0.931 . S
H228 C210 0.931 . S
H229 C214 0.929 . S
H230 C216 0.930 1_554 S
Co231 N235 2.148 1_556 S
Co231 N241 2.128 . S
Co231 N251 2.194 . S
Co231 O256 2.351 . S
Co231 O257 2.155 . S
Co231 O258 2.096 . S
C232 N235 1.301 . S
C232 N236 1.328 . S
C232 H237 0.930 . S
C233 C234 1.333 . S
C233 N235 1.317 . S
C233 H238 0.930 . S
C234 C233 1.333 . S
C234 N236 1.350 . S
C234 H260 0.931 . S
N235 Co231 2.148 1_554 S
N235 C232 1.301 . S
N235 C233 1.317 . S
N236 C232 1.328 . S
N236 C234 1.350 . S
H237 C232 0.930 . S
H238 C233 0.930 . S
C239 O240 1.224 . S
C239 O258 1.247 . S
O240 C239 1.224 . S
N241 Co231 2.128 . S
N241 C242 1.355 . S
N241 C244 1.311 . S
C242 N241 1.355 . S
C242 C243 1.363 . S
C242 H254 0.929 . S
C243 C242 1.363 . S
C243 N245 1.375 . S
C243 H261 0.931 . S
C244 N241 1.311 . S
C244 N245 1.347 . S
C244 H255 0.929 . S
N245 C243 1.375 . S
N245 C244 1.347 . S
C246 C249 1.365 . S
C246 N251 1.328 . S
C246 H252 0.929 . S
C247 C248 1.362 . S
C247 C250 1.378 . S
C247 H262 0.929 . S
C248 C247 1.362 . S
C248 C249 1.366 . S
C249 C246 1.365 . S
C249 C248 1.366 . S
C249 H263 0.930 1_556 S
C250 C247 1.378 . S
C250 N251 1.315 . S
C250 H253 0.930 . S
N251 Co231 2.194 . S
N251 C246 1.328 . S
N251 C250 1.315 . S
H252 C246 0.929 . S
H253 C250 0.930 . S
H254 C242 0.929 . S
H255 C244 0.929 . S
O256 Co231 2.351 . S
O256 C259 1.244 . S
O257 Co231 2.155 . S
O257 C259 1.240 . S
O258 Co231 2.096 . S
O258 C239 1.247 . S
C259 O256 1.244 . S
C259 O257 1.240 . S
H260 C234 0.931 . S
H261 C243 0.931 . S
H262 C247 0.929 . S
H263 C249 0.930 1_554 S
Co264 N268 2.148 . S
Co264 N274 2.128 . S
Co264 N284 2.194 . S
Co264 O289 2.351 . S
Co264 O290 2.155 . S
Co264 O291 2.096 . S
C265 N268 1.301 . S
C265 N269 1.328 . S
C265 H270 0.930 . S
C266 C267 1.333 . S
C266 N268 1.317 . S
C266 H271 0.930 . S
C267 C266 1.333 . S
C267 N269 1.350 . S
C267 H293 0.931 . S
N268 Co264 2.148 . S
N268 C265 1.301 . S
N268 C266 1.317 . S
N269 C265 1.328 . S
N269 C267 1.350 . S
H270 C265 0.930 . S
H271 C266 0.930 . S
C272 O273 1.224 . S
C272 O291 1.247 . S
O273 C272 1.224 . S
N274 Co264 2.128 . S
N274 C275 1.355 . S
N274 C277 1.311 . S
C275 N274 1.355 . S
C275 C276 1.363 . S
C275 H287 0.929 . S
C276 C275 1.363 . S
C276 N278 1.375 . S
C276 H294 0.931 . S
C277 N274 1.311 . S
C277 N278 1.347 . S
C277 H288 0.929 . S
N278 C276 1.375 . S
N278 C277 1.347 . S
C279 C282 1.365 . S
C279 N284 1.328 . S
C279 H285 0.929 . S
C280 C281 1.362 . S
C280 C283 1.378 . S
C280 H295 0.929 . S
C281 C280 1.362 . S
C281 C282 1.366 . S
C282 C279 1.365 . S
C282 C281 1.366 . S
C282 H296 0.930 . S
C283 C280 1.378 . S
C283 N284 1.315 . S
C283 H286 0.930 . S
N284 Co264 2.194 . S
N284 C279 1.328 . S
N284 C283 1.315 . S
H285 C279 0.929 . S
H286 C283 0.930 . S
H287 C275 0.929 . S
H288 C277 0.929 . S
O289 Co264 2.351 . S
O289 C292 1.244 . S
O290 Co264 2.155 . S
O290 C292 1.240 . S
O291 Co264 2.096 . S
O291 C272 1.247 . S
C292 O289 1.244 . S
C292 O290 1.240 . S
H293 C267 0.931 . S
H294 C276 0.931 . S
H295 C280 0.929 . S
H296 C282 0.930 . S
Co297 N301 2.148 . S
Co297 N307 2.128 . S
Co297 N317 2.194 . S
Co297 O322 2.351 . S
Co297 O323 2.155 . S
Co297 O324 2.096 . S
C298 N301 1.301 . S
C298 N302 1.328 . S
C298 H303 0.930 . S
C299 C300 1.333 . S
C299 N301 1.317 . S
C299 H304 0.930 . S
C300 C299 1.333 . S
C300 N302 1.350 . S
C300 H326 0.931 . S
N301 Co297 2.148 . S
N301 C298 1.301 . S
N301 C299 1.317 . S
N302 C298 1.328 . S
N302 C300 1.350 . S
H303 C298 0.930 . S
H304 C299 0.930 . S
C305 O306 1.224 . S
C305 O324 1.247 . S
O306 C305 1.224 . S
N307 Co297 2.128 . S
N307 C308 1.355 . S
N307 C310 1.311 . S
C308 N307 1.355 . S
C308 C309 1.363 . S
C308 H320 0.929 . S
C309 C308 1.363 . S
C309 N311 1.375 . S
C309 H327 0.931 . S
C310 N307 1.311 . S
C310 N311 1.347 . S
C310 H321 0.929 . S
N311 C309 1.375 . S
N311 C310 1.347 . S
C312 C315 1.365 . S
C312 N317 1.328 . S
C312 H318 0.929 . S
C313 C314 1.362 . S
C313 C316 1.378 . S
C313 H328 0.929 . S
C314 C313 1.362 . S
C314 C315 1.366 . S
C315 C312 1.365 . S
C315 C314 1.366 . S
C315 H329 0.930 . S
C316 C313 1.378 . S
C316 N317 1.315 . S
C316 H319 0.930 . S
N317 Co297 2.194 . S
N317 C312 1.328 . S
N317 C316 1.315 . S
H318 C312 0.929 . S
H319 C316 0.930 . S
H320 C308 0.929 . S
H321 C310 0.929 . S
O322 Co297 2.351 . S
O322 C325 1.244 . S
O323 Co297 2.155 . S
O323 C325 1.240 . S
O324 Co297 2.096 . S
O324 C305 1.247 . S
C325 O322 1.244 . S
C325 O323 1.240 . S
H326 C300 0.931 . S
H327 C309 0.931 . S
H328 C313 0.929 . S
H329 C315 0.930 . S
Co330 N334 2.148 . S
Co330 N340 2.128 . S
Co330 N350 2.194 . S
Co330 O355 2.351 . S
Co330 O356 2.155 . S
Co330 O357 2.096 . S
C331 N334 1.301 . S
C331 N335 1.328 . S
C331 H336 0.930 . S
C332 C333 1.333 . S
C332 N334 1.317 . S
C332 H337 0.930 . S
C333 C332 1.333 . S
C333 N335 1.350 . S
C333 H359 0.931 . S
N334 Co330 2.148 . S
N334 C331 1.301 . S
N334 C332 1.317 . S
N335 C331 1.328 . S
N335 C333 1.350 . S
H336 C331 0.930 . S
H337 C332 0.930 . S
C338 O339 1.224 . S
C338 O357 1.247 . S
O339 C338 1.224 . S
N340 Co330 2.128 . S
N340 C341 1.355 . S
N340 C343 1.311 . S
C341 N340 1.355 . S
C341 C342 1.363 . S
C341 H353 0.929 . S
C342 C341 1.363 . S
C342 N344 1.375 . S
C342 H360 0.931 . S
C343 N340 1.311 . S
C343 N344 1.347 . S
C343 H354 0.929 . S
N344 C342 1.375 . S
N344 C343 1.347 . S
C345 C348 1.365 . S
C345 N350 1.328 . S
C345 H351 0.929 . S
C346 C347 1.362 . S
C346 C349 1.378 . S
C346 H361 0.929 . S
C347 C346 1.362 . S
C347 C348 1.366 . S
C348 C345 1.365 . S
C348 C347 1.366 . S
C348 H362 0.930 . S
C349 C346 1.378 . S
C349 N350 1.315 . S
C349 H352 0.930 . S
N350 Co330 2.194 . S
N350 C345 1.328 . S
N350 C349 1.315 . S
H351 C345 0.929 . S
H352 C349 0.930 . S
H353 C341 0.929 . S
H354 C343 0.929 . S
O355 Co330 2.351 . S
O355 C358 1.244 . S
O356 Co330 2.155 . S
O356 C358 1.240 . S
O357 Co330 2.096 . S
O357 C338 1.247 . S
C358 O355 1.244 . S
C358 O356 1.240 . S
H359 C333 0.931 . S
H360 C342 0.931 . S
H361 C346 0.929 . S
H362 C348 0.930 . S
Co363 N367 2.148 . S
Co363 N373 2.128 . S
Co363 N383 2.194 . S
Co363 O388 2.351 . S
Co363 O389 2.155 . S
Co363 O390 2.096 . S
C364 N367 1.301 . S
C364 N368 1.328 . S
C364 H369 0.930 . S
C365 C366 1.333 . S
C365 N367 1.317 . S
C365 H370 0.930 . S
C366 C365 1.333 . S
C366 N368 1.350 . S
C366 H392 0.931 . S
N367 Co363 2.148 . S
N367 C364 1.301 . S
N367 C365 1.317 . S
N368 C364 1.328 . S
N368 C366 1.350 . S
H369 C364 0.930 . S
H370 C365 0.930 . S
C371 O372 1.224 . S
C371 O390 1.247 . S
O372 C371 1.224 . S
N373 Co363 2.128 . S
N373 C374 1.355 . S
N373 C376 1.311 . S
C374 N373 1.355 . S
C374 C375 1.363 . S
C374 H386 0.929 . S
C375 C374 1.363 . S
C375 N377 1.375 . S
C375 H393 0.931 . S
C376 N373 1.311 . S
C376 N377 1.347 . S
C376 H387 0.929 . S
N377 C375 1.375 . S
N377 C376 1.347 . S
C378 C381 1.365 . S
C378 N383 1.328 . S
C378 H384 0.929 . S
C379 C380 1.362 . S
C379 C382 1.378 . S
C379 H394 0.929 . S
C380 C379 1.362 . S
C380 C381 1.366 . S
C381 C378 1.365 . S
C381 C380 1.366 . S
C381 H395 0.930 . S
C382 C379 1.378 . S
C382 N383 1.315 . S
C382 H385 0.930 . S
N383 Co363 2.194 . S
N383 C378 1.328 . S
N383 C382 1.315 . S
H384 C378 0.929 . S
H385 C382 0.930 . S
H386 C374 0.929 . S
H387 C376 0.929 . S
O388 Co363 2.351 . S
O388 C391 1.244 . S
O389 Co363 2.155 . S
O389 C391 1.240 . S
O390 Co363 2.096 . S
O390 C371 1.247 . S
C391 O388 1.244 . S
C391 O389 1.240 . S
H392 C366 0.931 . S
H393 C375 0.931 . S
H394 C379 0.929 . S
H395 C381 0.930 . S
Co396 N400 2.148 . S
Co396 N406 2.128 . S
Co396 N416 2.194 . S
Co396 O421 2.351 . S
Co396 O422 2.155 . S
Co396 O423 2.096 . S
C397 N400 1.301 . S
C397 N401 1.328 . S
C397 H402 0.930 . S
C398 C399 1.333 . S
C398 N400 1.317 . S
C398 H403 0.930 . S
C399 C398 1.333 . S
C399 N401 1.350 . S
C399 H425 0.931 . S
N400 Co396 2.148 . S
N400 C397 1.301 . S
N400 C398 1.317 . S
N401 C397 1.328 . S
N401 C399 1.350 . S
H402 C397 0.930 . S
H403 C398 0.930 . S
C404 O405 1.224 . S
C404 O423 1.247 . S
O405 C404 1.224 . S
N406 Co396 2.128 . S
N406 C407 1.355 . S
N406 C409 1.311 . S
C407 N406 1.355 . S
C407 C408 1.363 . S
C407 H419 0.929 . S
C408 C407 1.363 . S
C408 N410 1.375 . S
C408 H426 0.931 . S
C409 N406 1.311 . S
C409 N410 1.347 . S
C409 H420 0.929 . S
N410 C408 1.375 . S
N410 C409 1.347 . S
C411 C414 1.365 . S
C411 N416 1.328 . S
C411 H417 0.929 . S
C412 C413 1.362 . S
C412 C415 1.378 . S
C412 H427 0.929 . S
C413 C412 1.362 . S
C413 C414 1.366 . S
C414 C411 1.365 . S
C414 C413 1.366 . S
C414 H428 0.930 . S
C415 C412 1.378 . S
C415 N416 1.315 . S
C415 H418 0.930 . S
N416 Co396 2.194 . S
N416 C411 1.328 . S
N416 C415 1.315 . S
H417 C411 0.929 . S
H418 C415 0.930 . S
H419 C407 0.929 . S
H420 C409 0.929 . S
O421 Co396 2.351 . S
O421 C424 1.244 . S
O422 Co396 2.155 . S
O422 C424 1.240 . S
O423 Co396 2.096 . S
O423 C404 1.247 . S
C424 O421 1.244 . S
C424 O422 1.240 . S
H425 C399 0.931 . S
H426 C408 0.931 . S
H427 C412 0.929 . S
H428 C414 0.930 . S
Co429 N433 2.148 . S
Co429 N439 2.128 . S
Co429 N449 2.194 . S
Co429 O454 2.351 . S
Co429 O455 2.155 . S
Co429 O456 2.096 . S
C430 N433 1.301 . S
C430 N434 1.328 . S
C430 H435 0.930 . S
C431 C432 1.333 . S
C431 N433 1.317 . S
C431 H436 0.930 . S
C432 C431 1.333 . S
C432 N434 1.350 . S
C432 H458 0.931 . S
N433 Co429 2.148 . S
N433 C430 1.301 . S
N433 C431 1.317 . S
N434 C430 1.328 . S
N434 C432 1.350 . S
H435 C430 0.930 . S
H436 C431 0.930 . S
C437 O438 1.224 . S
C437 O456 1.247 . S
O438 C437 1.224 . S
N439 Co429 2.128 . S
N439 C440 1.355 . S
N439 C442 1.311 . S
C440 N439 1.355 . S
C440 C441 1.363 . S
C440 H452 0.929 . S
C441 C440 1.363 . S
C441 N443 1.375 . S
C441 H459 0.931 . S
C442 N439 1.311 . S
C442 N443 1.347 . S
C442 H453 0.929 . S
N443 C441 1.375 . S
N443 C442 1.347 . S
C444 C447 1.365 . S
C444 N449 1.328 . S
C444 H450 0.929 . S
C445 C446 1.362 . S
C445 C448 1.378 . S
C445 H460 0.929 . S
C446 C445 1.362 . S
C446 C447 1.366 . S
C447 C444 1.365 . S
C447 C446 1.366 . S
C447 H461 0.930 . S
C448 C445 1.378 . S
C448 N449 1.315 . S
C448 H451 0.930 . S
N449 Co429 2.194 . S
N449 C444 1.328 . S
N449 C448 1.315 . S
H450 C444 0.929 . S
H451 C448 0.930 . S
H452 C440 0.929 . S
H453 C442 0.929 . S
O454 Co429 2.351 . S
O454 C457 1.244 . S
O455 Co429 2.155 . S
O455 C457 1.240 . S
O456 Co429 2.096 . S
O456 C437 1.247 . S
C457 O454 1.244 . S
C457 O455 1.240 . S
H458 C432 0.931 . S
H459 C441 0.931 . S
H460 C445 0.929 . S
H461 C447 0.930 . S
Co462 N466 2.148 . S
Co462 N472 2.128 . S
Co462 N482 2.194 . S
Co462 O487 2.351 . S
Co462 O488 2.155 . S
Co462 O489 2.096 . S
C463 N466 1.301 . S
C463 N467 1.328 . S
C463 H468 0.930 . S
C464 C465 1.333 . S
C464 N466 1.317 . S
C464 H469 0.930 . S
C465 C464 1.333 . S
C465 N467 1.350 . S
C465 H491 0.931 . S
N466 Co462 2.148 . S
N466 C463 1.301 . S
N466 C464 1.317 . S
N467 C463 1.328 . S
N467 C465 1.350 . S
H468 C463 0.930 . S
H469 C464 0.930 . S
C470 O471 1.224 . S
C470 O489 1.247 . S
O471 C470 1.224 . S
N472 Co462 2.128 . S
N472 C473 1.355 . S
N472 C475 1.311 . S
C473 N472 1.355 . S
C473 C474 1.363 . S
C473 H485 0.929 . S
C474 C473 1.363 . S
C474 N476 1.375 . S
C474 H492 0.931 . S
C475 N472 1.311 . S
C475 N476 1.347 . S
C475 H486 0.929 . S
N476 C474 1.375 . S
N476 C475 1.347 . S
C477 C480 1.365 . S
C477 N482 1.328 . S
C477 H483 0.929 . S
C478 C479 1.362 . S
C478 C481 1.378 . S
C478 H493 0.929 . S
C479 C478 1.362 . S
C479 C480 1.366 . S
C480 C477 1.365 . S
C480 C479 1.366 . S
C480 H494 0.930 . S
C481 C478 1.378 . S
C481 N482 1.315 . S
C481 H484 0.930 . S
N482 Co462 2.194 . S
N482 C477 1.328 . S
N482 C481 1.315 . S
H483 C477 0.929 . S
H484 C481 0.930 . S
H485 C473 0.929 . S
H486 C475 0.929 . S
O487 Co462 2.351 . S
O487 C490 1.244 . S
O488 Co462 2.155 . S
O488 C490 1.240 . S
O489 Co462 2.096 . S
O489 C470 1.247 . S
C490 O487 1.244 . S
C490 O488 1.240 . S
H491 C465 0.931 . S
H492 C474 0.931 . S
H493 C478 0.929 . S
H494 C480 0.930 . S
Co495 N499 2.148 . S
Co495 N505 2.128 . S
Co495 N515 2.194 . S
Co495 O520 2.351 . S
Co495 O521 2.155 . S
Co495 O522 2.096 . S
C496 N499 1.301 . S
C496 N500 1.328 . S
C496 H501 0.930 . S
C497 C498 1.333 . S
C497 N499 1.317 . S
C497 H502 0.930 . S
C498 C497 1.333 . S
C498 N500 1.350 . S
C498 H524 0.931 . S
N499 Co495 2.148 . S
N499 C496 1.301 . S
N499 C497 1.317 . S
N500 C496 1.328 . S
N500 C498 1.350 . S
H501 C496 0.930 . S
H502 C497 0.930 . S
C503 O504 1.224 . S
C503 O522 1.247 . S
O504 C503 1.224 . S
N505 Co495 2.128 . S
N505 C506 1.355 . S
N505 C508 1.311 . S
C506 N505 1.355 . S
C506 C507 1.363 . S
C506 H518 0.929 . S
C507 C506 1.363 . S
C507 N509 1.375 . S
C507 H525 0.931 . S
C508 N505 1.311 . S
C508 N509 1.347 . S
C508 H519 0.929 . S
N509 C507 1.375 . S
N509 C508 1.347 . S
C510 C513 1.365 . S
C510 N515 1.328 . S
C510 H516 0.929 . S
C511 C512 1.362 . S
C511 C514 1.378 . S
C511 H526 0.929 . S
C512 C511 1.362 . S
C512 C513 1.366 . S
C513 C510 1.365 . S
C513 C512 1.366 . S
C513 H527 0.930 . S
C514 C511 1.378 . S
C514 N515 1.315 . S
C514 H517 0.930 . S
N515 Co495 2.194 . S
N515 C510 1.328 . S
N515 C514 1.315 . S
H516 C510 0.929 . S
H517 C514 0.930 . S
H518 C506 0.929 . S
H519 C508 0.929 . S
O520 Co495 2.351 . S
O520 C523 1.244 . S
O521 Co495 2.155 . S
O521 C523 1.240 . S
O522 Co495 2.096 . S
O522 C503 1.247 . S
C523 O520 1.244 . S
C523 O521 1.240 . S
H524 C498 0.931 . S
H525 C507 0.931 . S
H526 C511 0.929 . S
H527 C513 0.930 . S
C528 C529 1.363 . S
C528 C534 1.379 . S
C528 N536 1.356 . S
C529 C528 1.363 . S
C529 C535 1.363 . S
C530 C531 1.363 . S
C530 C535 1.379 . S
C530 N537 1.356 . S
C531 C530 1.363 . S
C531 C534 1.363 . S
N532 C534 1.356 . S
N532 H544 0.984 . S
N532 H545 0.985 . S
N533 C535 1.356 . S
N533 H538 0.984 . S
N533 H539 0.985 . S
C534 C528 1.379 . S
C534 C531 1.363 . S
C534 N532 1.356 . S
C535 C529 1.363 . S
C535 C530 1.379 . S
C535 N533 1.356 . S
N536 C528 1.356 . S
N536 H542 0.984 . S
N536 H543 0.984 . S
N537 C530 1.356 . S
N537 H540 0.984 . S
N537 H541 0.985 . S
H538 N533 0.984 . S
H539 N533 0.985 . S
H540 N537 0.984 . S
H541 N537 0.985 . S
H542 N536 0.984 . S
H543 N536 0.984 . S
H544 N532 0.984 . S
H545 N532 0.985 . S
C546 C547 1.363 . S
C546 C552 1.379 . S
C546 N554 1.356 . S
C547 C546 1.363 . S
C547 C553 1.363 . S
C548 C549 1.363 . S
C548 C553 1.379 . S
C548 N555 1.356 . S
C549 C548 1.363 . S
C549 C552 1.363 . S
N550 C552 1.356 . S
N550 H562 0.984 . S
N550 H563 0.985 . S
N551 C553 1.356 . S
N551 H556 0.984 . S
N551 H557 0.985 . S
C552 C546 1.379 . S
C552 C549 1.363 . S
C552 N550 1.356 . S
C553 C547 1.363 . S
C553 C548 1.379 . S
C553 N551 1.356 . S
N554 C546 1.356 . S
N554 H560 0.984 . S
N554 H561 0.984 . S
N555 C548 1.356 . S
N555 H558 0.984 . S
N555 H559 0.985 . S
H556 N551 0.984 . S
H557 N551 0.985 . S
H558 N555 0.984 . S
H559 N555 0.985 . S
H560 N554 0.984 . S
H561 N554 0.984 . S
H562 N550 0.984 . S
H563 N550 0.985 . S
C564 C565 1.363 . S
C564 C570 1.379 . S
C564 N572 1.356 . S
C565 C564 1.363 . S
C565 C571 1.363 . S
C566 C567 1.363 . S
C566 C571 1.379 . S
C566 N573 1.356 . S
C567 C566 1.363 . S
C567 C570 1.363 . S
N568 C570 1.356 . S
N568 H580 0.984 . S
N568 H581 0.985 . S
N569 C571 1.356 . S
N569 H574 0.984 . S
N569 H575 0.985 . S
C570 C564 1.379 . S
C570 C567 1.363 . S
C570 N568 1.356 . S
C571 C565 1.363 . S
C571 C566 1.379 . S
C571 N569 1.356 . S
N572 C564 1.356 . S
N572 H578 0.984 . S
N572 H579 0.984 . S
N573 C566 1.356 . S
N573 H576 0.984 . S
N573 H577 0.985 . S
H574 N569 0.984 . S
H575 N569 0.985 . S
H576 N573 0.984 . S
H577 N573 0.985 . S
H578 N572 0.984 . S
H579 N572 0.984 . S
H580 N568 0.984 . S
H581 N568 0.985 . S
C582 C583 1.363 . S
C582 C588 1.379 . S
C582 N590 1.356 . S
C583 C582 1.363 . S
C583 C589 1.363 . S
C584 C585 1.363 . S
C584 C589 1.379 . S
C584 N591 1.356 . S
C585 C584 1.363 . S
C585 C588 1.363 . S
N586 C588 1.356 . S
N586 H598 0.984 . S
N586 H599 0.985 . S
N587 C589 1.356 . S
N587 H592 0.984 . S
N587 H593 0.985 . S
C588 C582 1.379 . S
C588 C585 1.363 . S
C588 N586 1.356 . S
C589 C583 1.363 . S
C589 C584 1.379 . S
C589 N587 1.356 . S
N590 C582 1.356 . S
N590 H596 0.984 . S
N590 H597 0.984 . S
N591 C584 1.356 . S
N591 H594 0.984 . S
N591 H595 0.985 . S
H592 N587 0.984 . S
H593 N587 0.985 . S
H594 N591 0.984 . S
H595 N591 0.985 . S
H596 N590 0.984 . S
H597 N590 0.984 . S
H598 N586 0.984 . S
H599 N586 0.985 . S
C600 C601 1.363 . S
C600 C606 1.379 . S
C600 N608 1.356 . S
C601 C600 1.363 . S
C601 C607 1.363 . S
C602 C603 1.363 . S
C602 C607 1.379 . S
C602 N609 1.356 . S
C603 C602 1.363 . S
C603 C606 1.363 . S
N604 C606 1.356 . S
N604 H616 0.984 . S
N604 H617 0.985 . S
N605 C607 1.356 . S
N605 H610 0.984 . S
N605 H611 0.985 . S
C606 C600 1.379 . S
C606 C603 1.363 . S
C606 N604 1.356 . S
C607 C601 1.363 . S
C607 C602 1.379 . S
C607 N605 1.356 . S
N608 C600 1.356 . S
N608 H614 0.984 . S
N608 H615 0.984 . S
N609 C602 1.356 . S
N609 H612 0.984 . S
N609 H613 0.985 . S
H610 N605 0.984 . S
H611 N605 0.985 . S
H612 N609 0.984 . S
H613 N609 0.985 . S
H614 N608 0.984 . S
H615 N608 0.984 . S
H616 N604 0.984 . S
H617 N604 0.985 . S
C618 C619 1.363 . S
C618 C624 1.379 . S
C618 N626 1.356 . S
C619 C618 1.363 . S
C619 C625 1.363 . S
C620 C621 1.363 . S
C620 C625 1.379 . S
C620 N627 1.356 . S
C621 C620 1.363 . S
C621 C624 1.363 . S
N622 C624 1.356 . S
N622 H634 0.984 . S
N622 H635 0.985 . S
N623 C625 1.356 . S
N623 H628 0.984 . S
N623 H629 0.985 . S
C624 C618 1.379 . S
C624 C621 1.363 . S
C624 N622 1.356 . S
C625 C619 1.363 . S
C625 C620 1.379 . S
C625 N623 1.356 . S
N626 C618 1.356 . S
N626 H632 0.984 . S
N626 H633 0.984 . S
N627 C620 1.356 . S
N627 H630 0.984 . S
N627 H631 0.985 . S
H628 N623 0.984 . S
H629 N623 0.985 . S
H630 N627 0.984 . S
H631 N627 0.985 . S
H632 N626 0.984 . S
H633 N626 0.984 . S
H634 N622 0.984 . S
H635 N622 0.985 . S
C636 C637 1.363 . S
C636 C642 1.379 . S
C636 N644 1.356 . S
C637 C636 1.363 . S
C637 C643 1.363 . S
C638 C639 1.363 . S
C638 C643 1.379 . S
C638 N645 1.356 . S
C639 C638 1.363 . S
C639 C642 1.363 . S
N640 C642 1.356 . S
N640 H652 0.984 . S
N640 H653 0.985 . S
N641 C643 1.356 . S
N641 H646 0.984 . S
N641 H647 0.985 . S
C642 C636 1.379 . S
C642 C639 1.363 . S
C642 N640 1.356 . S
C643 C637 1.363 . S
C643 C638 1.379 . S
C643 N641 1.356 . S
N644 C636 1.356 . S
N644 H650 0.984 . S
N644 H651 0.984 . S
N645 C638 1.356 . S
N645 H648 0.984 . S
N645 H649 0.985 . S
H646 N641 0.984 . S
H647 N641 0.985 . S
H648 N645 0.984 . S
H649 N645 0.985 . S
H650 N644 0.984 . S
H651 N644 0.984 . S
H652 N640 0.984 . S
H653 N640 0.985 . S
C654 C655 1.363 . S
C654 C660 1.379 . S
C654 N662 1.356 . S
C655 C654 1.363 . S
C655 C661 1.363 . S
C656 C657 1.363 . S
C656 C661 1.379 . S
C656 N663 1.356 . S
C657 C656 1.363 . S
C657 C660 1.363 . S
N658 C660 1.356 . S
N658 H670 0.984 . S
N658 H671 0.985 . S
N659 C661 1.356 . S
N659 H664 0.984 . S
N659 H665 0.985 . S
C660 C654 1.379 . S
C660 C657 1.363 . S
C660 N658 1.356 . S
C661 C655 1.363 . S
C661 C656 1.379 . S
C661 N659 1.356 . S
N662 C654 1.356 . S
N662 H668 0.984 . S
N662 H669 0.984 . S
N663 C656 1.356 . S
N663 H666 0.984 . S
N663 H667 0.985 . S
H664 N659 0.984 . S
H665 N659 0.985 . S
H666 N663 0.984 . S
H667 N663 0.985 . S
H668 N662 0.984 . S
H669 N662 0.984 . S
H670 N658 0.984 . S
H671 N658 0.985 . S
C672 C673 1.363 . S
C672 C678 1.379 . S
C672 N680 1.356 . S
C673 C672 1.363 . S
C673 C679 1.363 . S
C674 C675 1.363 1_554 S
C674 C679 1.379 . S
C674 N681 1.356 1_554 S
C675 C674 1.363 1_556 S
C675 C678 1.363 1_556 S
N676 C678 1.356 1_556 S
N676 H688 0.984 1_556 S
N676 H689 0.985 . S
N677 C679 1.356 . S
N677 H682 0.984 . S
N677 H683 0.985 . S
C678 C672 1.379 . S
C678 C675 1.363 1_554 S
C678 N676 1.356 1_554 S
C679 C673 1.363 . S
C679 C674 1.379 . S
C679 N677 1.356 . S
N680 C672 1.356 . S
N680 H686 0.984 . S
N680 H687 0.984 . S
N681 C674 1.356 1_556 S
N681 H684 0.984 . S
N681 H685 0.985 . S
H682 N677 0.984 . S
H683 N677 0.985 . S
H684 N681 0.984 . S
H685 N681 0.985 . S
H686 N680 0.984 . S
H687 N680 0.984 . S
H688 N676 0.984 1_554 S
H689 N676 0.985 . S
C690 C691 1.363 . S
C690 C696 1.379 . S
C690 N698 1.356 . S
C691 C690 1.363 . S
C691 C697 1.363 . S
C692 C693 1.363 1_554 S
C692 C697 1.379 . S
C692 N699 1.356 . S
C693 C692 1.363 1_556 S
C693 C696 1.363 1_556 S
N694 C696 1.356 1_556 S
N694 H706 0.984 . S
N694 H707 0.985 . S
N695 C697 1.356 . S
N695 H700 0.984 . S
N695 H701 0.985 . S
C696 C690 1.379 . S
C696 C693 1.363 1_554 S
C696 N694 1.356 1_554 S
C697 C691 1.363 . S
C697 C692 1.379 . S
C697 N695 1.356 . S
N698 C690 1.356 . S
N698 H704 0.984 . S
N698 H705 0.984 . S
N699 C692 1.356 . S
N699 H702 0.984 1_554 S
N699 H703 0.985 . S
H700 N695 0.984 . S
H701 N695 0.985 . S
H702 N699 0.984 1_556 S
H703 N699 0.985 . S
H704 N698 0.984 . S
H705 N698 0.984 . S
H706 N694 0.984 . S
H707 N694 0.985 . S
C708 C709 1.363 . S
C708 C714 1.379 . S
C708 N716 1.356 . S
C709 C708 1.363 . S
C709 C715 1.363 . S
C710 C711 1.363 1_554 S
C710 C715 1.379 . S
C710 N717 1.356 1_554 S
C711 C710 1.363 1_556 S
C711 C714 1.363 1_556 S
N712 C714 1.356 1_556 S
N712 H724 0.984 . S
N712 H725 0.985 . S
N713 C715 1.356 . S
N713 H718 0.984 . S
N713 H719 0.985 . S
C714 C708 1.379 . S
C714 C711 1.363 1_554 S
C714 N712 1.356 1_554 S
C715 C709 1.363 . S
C715 C710 1.379 . S
C715 N713 1.356 . S
N716 C708 1.356 . S
N716 H722 0.984 . S
N716 H723 0.984 . S
N717 C710 1.356 1_556 S
N717 H720 0.984 . S
N717 H721 0.985 1_556 S
H718 N713 0.984 . S
H719 N713 0.985 . S
H720 N717 0.984 . S
H721 N717 0.985 1_554 S
H722 N716 0.984 . S
H723 N716 0.984 . S
H724 N712 0.984 . S
H725 N712 0.985 . S
C726 C727 1.363 . S
C726 C732 1.379 . S
C726 N734 1.356 . S
C727 C726 1.363 . S
C727 C733 1.363 . S
C728 C729 1.363 1_554 S
C728 C733 1.379 . S
C728 N735 1.356 1_554 S
C729 C728 1.363 1_556 S
C729 C732 1.363 1_556 S
N730 C732 1.356 1_556 S
N730 H742 0.984 1_556 S
N730 H743 0.985 . S
N731 C733 1.356 . S
N731 H736 0.984 . S
N731 H737 0.985 . S
C732 C726 1.379 . S
C732 C729 1.363 1_554 S
C732 N730 1.356 1_554 S
C733 C727 1.363 . S
C733 C728 1.379 . S
C733 N731 1.356 . S
N734 C726 1.356 . S
N734 H740 0.984 . S
N734 H741 0.984 . S
N735 C728 1.356 1_556 S
N735 H738 0.984 . S
N735 H739 0.985 . S
H736 N731 0.984 . S
H737 N731 0.985 . S
H738 N735 0.984 . S
H739 N735 0.985 . S
H740 N734 0.984 . S
H741 N734 0.984 . S
H742 N730 0.984 1_554 S
H743 N730 0.985 . S
C744 C745 1.363 1_556 S
C744 C750 1.379 . S
C744 N752 1.356 1_556 S
C745 C744 1.363 1_554 S
C745 C751 1.363 1_554 S
C746 C747 1.363 . S
C746 C751 1.379 . S
C746 N753 1.356 . S
C747 C746 1.363 . S
C747 C750 1.363 . S
N748 C750 1.356 . S
N748 H760 0.984 . S
N748 H761 0.985 . S
N749 C751 1.356 1_554 S
N749 H754 0.984 . S
N749 H755 0.985 1_554 S
C750 C744 1.379 . S
C750 C747 1.363 . S
C750 N748 1.356 . S
C751 C745 1.363 1_556 S
C751 C746 1.379 . S
C751 N749 1.356 1_556 S
N752 C744 1.356 1_554 S
N752 H758 0.984 . S
N752 H759 0.984 . S
N753 C746 1.356 . S
N753 H756 0.984 . S
N753 H757 0.985 . S
H754 N749 0.984 . S
H755 N749 0.985 1_556 S
H756 N753 0.984 . S
H757 N753 0.985 . S
H758 N752 0.984 . S
H759 N752 0.984 . S
H760 N748 0.984 . S
H761 N748 0.985 . S
C762 C763 1.363 1_556 S
C762 C768 1.379 . S
C762 N770 1.356 1_556 S
C763 C762 1.363 1_554 S
C763 C769 1.363 1_554 S
C764 C765 1.363 . S
C764 C769 1.379 . S
C764 N771 1.356 . S
C765 C764 1.363 . S
C765 C768 1.363 . S
N766 C768 1.356 . S
N766 H778 0.984 . S
N766 H779 0.985 . S
N767 C769 1.356 1_554 S
N767 H772 0.984 . S
N767 H773 0.985 1_554 S
C768 C762 1.379 . S
C768 C765 1.363 . S
C768 N766 1.356 . S
C769 C763 1.363 1_556 S
C769 C764 1.379 . S
C769 N767 1.356 1_556 S
N770 C762 1.356 1_554 S
N770 H776 0.984 . S
N770 H777 0.984 . S
N771 C764 1.356 . S
N771 H774 0.984 . S
N771 H775 0.985 . S
H772 N767 0.984 . S
H773 N767 0.985 1_556 S
H774 N771 0.984 . S
H775 N771 0.985 . S
H776 N770 0.984 . S
H777 N770 0.984 . S
H778 N766 0.984 . S
H779 N766 0.985 . S
C780 C781 1.363 1_556 S
C780 C786 1.379 . S
C780 N788 1.356 1_556 S
C781 C780 1.363 1_554 S
C781 C787 1.363 1_554 S
C782 C783 1.363 . S
C782 C787 1.379 . S
C782 N789 1.356 . S
C783 C782 1.363 . S
C783 C786 1.363 . S
N784 C786 1.356 . S
N784 H796 0.984 . S
N784 H797 0.985 . S
N785 C787 1.356 1_554 S
N785 H790 0.984 . S
N785 H791 0.985 1_554 S
C786 C780 1.379 . S
C786 C783 1.363 . S
C786 N784 1.356 . S
C787 C781 1.363 1_556 S
C787 C782 1.379 . S
C787 N785 1.356 1_556 S
N788 C780 1.356 1_554 S
N788 H794 0.984 . S
N788 H795 0.984 . S
N789 C782 1.356 . S
N789 H792 0.984 . S
N789 H793 0.985 . S
H790 N785 0.984 . S
H791 N785 0.985 1_556 S
H792 N789 0.984 . S
H793 N789 0.985 . S
H794 N788 0.984 . S
H795 N788 0.984 . S
H796 N784 0.984 . S
H797 N784 0.985 . S
C798 C799 1.363 1_556 S
C798 C804 1.379 . S
C798 N806 1.356 1_556 S
C799 C798 1.363 1_554 S
C799 C805 1.363 1_554 S
C800 C801 1.363 . S
C800 C805 1.379 . S
C800 N807 1.356 . S
C801 C800 1.363 . S
C801 C804 1.363 . S
N802 C804 1.356 . S
N802 H814 0.984 . S
N802 H815 0.985 . S
N803 C805 1.356 1_554 S
N803 H808 0.984 . S
N803 H809 0.985 1_554 S
C804 C798 1.379 . S
C804 C801 1.363 . S
C804 N802 1.356 . S
C805 C799 1.363 1_556 S
C805 C800 1.379 . S
C805 N803 1.356 1_556 S
N806 C798 1.356 1_554 S
N806 H812 0.984 . S
N806 H813 0.984 . S
N807 C800 1.356 . S
N807 H810 0.984 . S
N807 H811 0.985 . S
H808 N803 0.984 . S
H809 N803 0.985 1_556 S
H810 N807 0.984 . S
H811 N807 0.985 . S
H812 N806 0.984 . S
H813 N806 0.984 . S
H814 N802 0.984 . S
H815 N802 0.985 . S
C816 C817 1.363 . S
C816 C822 1.379 . S
C816 N824 1.356 . S
C817 C816 1.363 . S
C817 C823 1.363 . S
C818 C819 1.363 . S
C818 C823 1.379 . S
C818 N825 1.356 . S
C819 C818 1.363 . S
C819 C822 1.363 . S
N820 C822 1.356 . S
N820 H832 0.984 . S
N820 H833 0.985 . S
N821 C823 1.356 . S
N821 H826 0.984 . S
N821 H827 0.985 . S
C822 C816 1.379 . S
C822 C819 1.363 . S
C822 N820 1.356 . S
C823 C817 1.363 . S
C823 C818 1.379 . S
C823 N821 1.356 . S
N824 C816 1.356 . S
N824 H830 0.984 . S
N824 H831 0.984 . S
N825 C818 1.356 . S
N825 H828 0.984 . S
N825 H829 0.985 . S
H826 N821 0.984 . S
H827 N821 0.985 . S
H828 N825 0.984 . S
H829 N825 0.985 . S
H830 N824 0.984 . S
H831 N824 0.984 . S
H832 N820 0.984 . S
H833 N820 0.985 . S
C834 C835 1.363 . S
C834 C840 1.379 . S
C834 N842 1.356 . S
C835 C834 1.363 . S
C835 C841 1.363 . S
C836 C837 1.363 . S
C836 C841 1.379 . S
C836 N843 1.356 . S
C837 C836 1.363 . S
C837 C840 1.363 . S
N838 C840 1.356 . S
N838 H850 0.984 . S
N838 H851 0.985 . S
N839 C841 1.356 . S
N839 H844 0.984 . S
N839 H845 0.985 . S
C840 C834 1.379 . S
C840 C837 1.363 . S
C840 N838 1.356 . S
C841 C835 1.363 . S
C841 C836 1.379 . S
C841 N839 1.356 . S
N842 C834 1.356 . S
N842 H848 0.984 . S
N842 H849 0.984 . S
N843 C836 1.356 . S
N843 H846 0.984 . S
N843 H847 0.985 . S
H844 N839 0.984 . S
H845 N839 0.985 . S
H846 N843 0.984 . S
H847 N843 0.985 . S
H848 N842 0.984 . S
H849 N842 0.984 . S
H850 N838 0.984 . S
H851 N838 0.985 . S
C852 C853 1.363 . S
C852 C858 1.379 . S
C852 N860 1.356 . S
C853 C852 1.363 . S
C853 C859 1.363 . S
C854 C855 1.363 . S
C854 C859 1.379 . S
C854 N861 1.356 . S
C855 C854 1.363 . S
C855 C858 1.363 . S
N856 C858 1.356 . S
N856 H868 0.984 . S
N856 H869 0.985 . S
N857 C859 1.356 . S
N857 H862 0.984 . S
N857 H863 0.985 . S
C858 C852 1.379 . S
C858 C855 1.363 . S
C858 N856 1.356 . S
C859 C853 1.363 . S
C859 C854 1.379 . S
C859 N857 1.356 . S
N860 C852 1.356 . S
N860 H866 0.984 . S
N860 H867 0.984 . S
N861 C854 1.356 . S
N861 H864 0.984 . S
N861 H865 0.985 . S
H862 N857 0.984 . S
H863 N857 0.985 . S
H864 N861 0.984 . S
H865 N861 0.985 . S
H866 N860 0.984 . S
H867 N860 0.984 . S
H868 N856 0.984 . S
H869 N856 0.985 . S
C870 C871 1.363 . S
C870 C876 1.379 . S
C870 N878 1.356 . S
C871 C870 1.363 . S
C871 C877 1.363 . S
C872 C873 1.363 . S
C872 C877 1.379 . S
C872 N879 1.356 . S
C873 C872 1.363 . S
C873 C876 1.363 . S
N874 C876 1.356 . S
N874 H886 0.984 . S
N874 H887 0.985 . S
N875 C877 1.356 . S
N875 H880 0.984 . S
N875 H881 0.985 . S
C876 C870 1.379 . S
C876 C873 1.363 . S
C876 N874 1.356 . S
C877 C871 1.363 . S
C877 C872 1.379 . S
C877 N875 1.356 . S
N878 C870 1.356 . S
N878 H884 0.984 . S
N878 H885 0.984 . S
N879 C872 1.356 . S
N879 H882 0.984 . S
N879 H883 0.985 . S
H880 N875 0.984 . S
H881 N875 0.985 . S
H882 N879 0.984 . S
H883 N879 0.985 . S
H884 N878 0.984 . S
H885 N878 0.984 . S
H886 N874 0.984 . S
H887 N874 0.985 . S
C888 C889 1.363 . S
C888 C894 1.379 . S
C888 N896 1.356 . S
C889 C888 1.363 . S
C889 C895 1.363 . S
C890 C891 1.363 . S
C890 C895 1.379 . S
C890 N897 1.356 . S
C891 C890 1.363 . S
C891 C894 1.363 . S
N892 C894 1.356 . S
N892 H904 0.984 . S
N892 H905 0.985 . S
N893 C895 1.356 . S
N893 H898 0.984 . S
N893 H899 0.985 . S
C894 C888 1.379 . S
C894 C891 1.363 . S
C894 N892 1.356 . S
C895 C889 1.363 . S
C895 C890 1.379 . S
C895 N893 1.356 . S
N896 C888 1.356 . S
N896 H902 0.984 . S
N896 H903 0.984 . S
N897 C890 1.356 . S
N897 H900 0.984 . S
N897 H901 0.985 . S
H898 N893 0.984 . S
H899 N893 0.985 . S
H900 N897 0.984 . S
H901 N897 0.985 . S
H902 N896 0.984 . S
H903 N896 0.984 . S
H904 N892 0.984 . S
H905 N892 0.985 . S
C906 C907 1.363 . S
C906 C912 1.379 . S
C906 N914 1.356 . S
C907 C906 1.363 . S
C907 C913 1.363 . S
C908 C909 1.363 . S
C908 C913 1.379 . S
C908 N915 1.356 . S
C909 C908 1.363 . S
C909 C912 1.363 . S
N910 C912 1.356 . S
N910 H922 0.984 . S
N910 H923 0.985 . S
N911 C913 1.356 . S
N911 H916 0.984 . S
N911 H917 0.985 . S
C912 C906 1.379 . S
C912 C909 1.363 . S
C912 N910 1.356 . S
C913 C907 1.363 . S
C913 C908 1.379 . S
C913 N911 1.356 . S
N914 C906 1.356 . S
N914 H920 0.984 . S
N914 H921 0.984 . S
N915 C908 1.356 . S
N915 H918 0.984 . S
N915 H919 0.985 . S
H916 N911 0.984 . S
H917 N911 0.985 . S
H918 N915 0.984 . S
H919 N915 0.985 . S
H920 N914 0.984 . S
H921 N914 0.984 . S
H922 N910 0.984 . S
H923 N910 0.985 . S
C924 C925 1.363 . S
C924 C930 1.379 . S
C924 N932 1.356 . S
C925 C924 1.363 . S
C925 C931 1.363 . S
C926 C927 1.363 . S
C926 C931 1.379 . S
C926 N933 1.356 . S
C927 C926 1.363 . S
C927 C930 1.363 . S
N928 C930 1.356 . S
N928 H940 0.984 . S
N928 H941 0.985 . S
N929 C931 1.356 . S
N929 H934 0.984 . S
N929 H935 0.985 . S
C930 C924 1.379 . S
C930 C927 1.363 . S
C930 N928 1.356 . S
C931 C925 1.363 . S
C931 C926 1.379 . S
C931 N929 1.356 . S
N932 C924 1.356 . S
N932 H938 0.984 . S
N932 H939 0.984 . S
N933 C926 1.356 . S
N933 H936 0.984 . S
N933 H937 0.985 . S
H934 N929 0.984 . S
H935 N929 0.985 . S
H936 N933 0.984 . S
H937 N933 0.985 . S
H938 N932 0.984 . S
H939 N932 0.984 . S
H940 N928 0.984 . S
H941 N928 0.985 . S
C942 C943 1.363 . S
C942 C948 1.379 . S
C942 N950 1.356 . S
C943 C942 1.363 . S
C943 C949 1.363 . S
C944 C945 1.363 . S
C944 C949 1.379 . S
C944 N951 1.356 . S
C945 C944 1.363 . S
C945 C948 1.363 . S
N946 C948 1.356 . S
N946 H958 0.984 . S
N946 H959 0.985 . S
N947 C949 1.356 . S
N947 H952 0.984 . S
N947 H953 0.985 . S
C948 C942 1.379 . S
C948 C945 1.363 . S
C948 N946 1.356 . S
C949 C943 1.363 . S
C949 C944 1.379 . S
C949 N947 1.356 . S
N950 C942 1.356 . S
N950 H956 0.984 . S
N950 H957 0.984 . S
N951 C944 1.356 . S
N951 H954 0.984 . S
N951 H955 0.985 . S
H952 N947 0.984 . S
H953 N947 0.985 . S
H954 N951 0.984 . S
H955 N951 0.985 . S
H956 N950 0.984 . S
H957 N950 0.984 . S
H958 N946 0.984 . S
H959 N946 0.985 . S
C960 C961 1.363 1_556 S
C960 C966 1.379 1_545 S
C960 N968 1.356 . S
C961 C960 1.363 1_554 S
C961 C967 1.363 . S
C962 C963 1.363 1_554 S
C962 C967 1.379 1_565 S
C962 N969 1.356 . S
C963 C962 1.363 1_556 S
C963 C966 1.363 . S
N964 C966 1.356 . S
N964 H976 0.984 . S
N964 H977 0.985 . S
N965 C967 1.356 . S
N965 H970 0.984 . S
N965 H971 0.985 . S
C966 C960 1.379 1_565 S
C966 C963 1.363 . S
C966 N964 1.356 . S
C967 C961 1.363 . S
C967 C962 1.379 1_545 S
C967 N965 1.356 . S
N968 C960 1.356 . S
N968 H974 0.984 . S
N968 H975 0.984 . S
N969 C962 1.356 . S
N969 H972 0.984 . S
N969 H973 0.985 . S
H970 N965 0.984 . S
H971 N965 0.985 . S
H972 N969 0.984 . S
H973 N969 0.985 . S
H974 N968 0.984 . S
H975 N968 0.984 . S
H976 N964 0.984 . S
H977 N964 0.985 . S
C978 C979 1.363 . S
C978 C984 1.379 1_455 S
C978 N986 1.356 . S
C979 C978 1.363 . S
C979 C985 1.363 1_556 S
C980 C981 1.363 . S
C980 C985 1.379 1_655 S
C980 N987 1.356 . S
C981 C980 1.363 . S
C981 C984 1.363 1_554 S
N982 C984 1.356 . S
N982 H994 0.984 . S
N982 H995 0.985 . S
N983 C985 1.356 . S
N983 H988 0.984 . S
N983 H989 0.985 . S
C984 C978 1.379 1_655 S
C984 C981 1.363 1_556 S
C984 N982 1.356 . S
C985 C979 1.363 1_554 S
C985 C980 1.379 1_455 S
C985 N983 1.356 . S
N986 C978 1.356 . S
N986 H992 0.984 . S
N986 H993 0.984 . S
N987 C980 1.356 . S
N987 H990 0.984 . S
N987 H991 0.985 . S
H988 N983 0.984 . S
H989 N983 0.985 . S
H990 N987 0.984 . S
H991 N987 0.985 . S
H992 N986 0.984 . S
H993 N986 0.984 . S
H994 N982 0.984 . S
H995 N982 0.985 . S
C996 C997 1.363 . S
C996 C1002 1.379 1_565 S
C996 N1004 1.356 . S
C997 C996 1.363 . S
C997 C1003 1.363 1_554 S
C998 C999 1.363 . S
C998 C1003 1.379 1_545 S
C998 N1005 1.356 . S
C999 C998 1.363 . S
C999 C1002 1.363 1_556 S
N1000 C1002 1.356 . S
N1000 H1012 0.984 . S
N1000 H1013 0.985 . S
N1001 C1003 1.356 . S
N1001 H1006 0.984 . S
N1001 H1007 0.985 . S
C1002 C996 1.379 1_545 S
C1002 C999 1.363 1_554 S
C1002 N1000 1.356 . S
C1003 C997 1.363 1_556 S
C1003 C998 1.379 1_565 S
C1003 N1001 1.356 . S
N1004 C996 1.356 . S
N1004 H1010 0.984 . S
N1004 H1011 0.984 . S
N1005 C998 1.356 . S
N1005 H1008 0.984 . S
N1005 H1009 0.985 . S
H1006 N1001 0.984 . S
H1007 N1001 0.985 . S
H1008 N1005 0.984 . S
H1009 N1005 0.985 . S
H1010 N1004 0.984 . S
H1011 N1004 0.984 . S
H1012 N1000 0.984 . S
H1013 N1000 0.985 . S
C1014 C1015 1.363 1_554 S
C1014 C1020 1.379 1_655 S
C1014 N1022 1.356 . S
C1015 C1014 1.363 1_556 S
C1015 C1021 1.363 . S
C1016 C1017 1.363 1_556 S
C1016 C1021 1.379 1_455 S
C1016 N1023 1.356 . S
C1017 C1016 1.363 1_554 S
C1017 C1020 1.363 . S
N1018 C1020 1.356 . S
N1018 H1030 0.984 . S
N1018 H1031 0.985 . S
N1019 C1021 1.356 . S
N1019 H1024 0.984 . S
N1019 H1025 0.985 . S
C1020 C1014 1.379 1_455 S
C1020 C1017 1.363 . S
C1020 N1018 1.356 . S
C1021 C1015 1.363 . S
C1021 C1016 1.379 1_655 S
C1021 N1019 1.356 . S
N1022 C1014 1.356 . S
N1022 H1028 0.984 . S
N1022 H1029 0.984 . S
N1023 C1016 1.356 . S
N1023 H1026 0.984 . S
N1023 H1027 0.985 . S
H1024 N1019 0.984 . S
H1025 N1019 0.985 . S
H1026 N1023 0.984 . S
H1027 N1023 0.985 . S
H1028 N1022 0.984 . S
H1029 N1022 0.984 . S
H1030 N1018 0.984 . S
H1031 N1018 0.985 . S
C1032 C1033 1.363 . S
C1032 C1038 1.379 . S
C1032 N1040 1.356 . S
C1033 C1032 1.363 . S
C1033 C1039 1.363 . S
C1034 C1035 1.363 . S
C1034 C1039 1.379 . S
C1034 N1041 1.356 . S
C1035 C1034 1.363 . S
C1035 C1038 1.363 . S
N1036 C1038 1.356 . S
N1036 H1048 0.984 . S
N1036 H1049 0.985 . S
N1037 C1039 1.356 . S
N1037 H1042 0.984 . S
N1037 H1043 0.985 . S
C1038 C1032 1.379 . S
C1038 C1035 1.363 . S
C1038 N1036 1.356 . S
C1039 C1033 1.363 . S
C1039 C1034 1.379 . S
C1039 N1037 1.356 . S
N1040 C1032 1.356 . S
N1040 H1046 0.984 . S
N1040 H1047 0.984 . S
N1041 C1034 1.356 . S
N1041 H1044 0.984 . S
N1041 H1045 0.985 . S
H1042 N1037 0.984 . S
H1043 N1037 0.985 . S
H1044 N1041 0.984 . S
H1045 N1041 0.985 . S
H1046 N1040 0.984 . S
H1047 N1040 0.984 . S
H1048 N1036 0.984 . S
H1049 N1036 0.985 . S
C1050 C1051 1.363 . S
C1050 C1056 1.379 . S
C1050 N1058 1.356 . S
C1051 C1050 1.363 . S
C1051 C1057 1.363 . S
C1052 C1053 1.363 . S
C1052 C1057 1.379 . S
C1052 N1059 1.356 . S
C1053 C1052 1.363 . S
C1053 C1056 1.363 . S
N1054 C1056 1.356 . S
N1054 H1066 0.984 . S
N1054 H1067 0.985 . S
N1055 C1057 1.356 . S
N1055 H1060 0.984 . S
N1055 H1061 0.985 . S
C1056 C1050 1.379 . S
C1056 C1053 1.363 . S
C1056 N1054 1.356 . S
C1057 C1051 1.363 . S
C1057 C1052 1.379 . S
C1057 N1055 1.356 . S
N1058 C1050 1.356 . S
N1058 H1064 0.984 . S
N1058 H1065 0.984 . S
N1059 C1052 1.356 . S
N1059 H1062 0.984 . S
N1059 H1063 0.985 . S
H1060 N1055 0.984 . S
H1061 N1055 0.985 . S
H1062 N1059 0.984 . S
H1063 N1059 0.985 . S
H1064 N1058 0.984 . S
H1065 N1058 0.984 . S
H1066 N1054 0.984 . S
H1067 N1054 0.985 . S
C1068 C1069 1.363 . S
C1068 C1074 1.379 . S
C1068 N1076 1.356 . S
C1069 C1068 1.363 . S
C1069 C1075 1.363 . S
C1070 C1071 1.363 . S
C1070 C1075 1.379 . S
C1070 N1077 1.356 . S
C1071 C1070 1.363 . S
C1071 C1074 1.363 . S
N1072 C1074 1.356 . S
N1072 H1084 0.984 . S
N1072 H1085 0.985 . S
N1073 C1075 1.356 . S
N1073 H1078 0.984 . S
N1073 H1079 0.985 . S
C1074 C1068 1.379 . S
C1074 C1071 1.363 . S
C1074 N1072 1.356 . S
C1075 C1069 1.363 . S
C1075 C1070 1.379 . S
C1075 N1073 1.356 . S
N1076 C1068 1.356 . S
N1076 H1082 0.984 . S
N1076 H1083 0.984 . S
N1077 C1070 1.356 . S
N1077 H1080 0.984 . S
N1077 H1081 0.985 . S
H1078 N1073 0.984 . S
H1079 N1073 0.985 . S
H1080 N1077 0.984 . S
H1081 N1077 0.985 . S
H1082 N1076 0.984 . S
H1083 N1076 0.984 . S
H1084 N1072 0.984 . S
H1085 N1072 0.985 . S
C1086 C1087 1.363 . S
C1086 C1092 1.379 . S
C1086 N1094 1.356 . S
C1087 C1086 1.363 . S
C1087 C1093 1.363 . S
C1088 C1089 1.363 . S
C1088 C1093 1.379 . S
C1088 N1095 1.356 . S
C1089 C1088 1.363 . S
C1089 C1092 1.363 . S
N1090 C1092 1.356 . S
N1090 H1102 0.984 . S
N1090 H1103 0.985 . S
N1091 C1093 1.356 . S
N1091 H1096 0.984 . S
N1091 H1097 0.985 . S
C1092 C1086 1.379 . S
C1092 C1089 1.363 . S
C1092 N1090 1.356 . S
C1093 C1087 1.363 . S
C1093 C1088 1.379 . S
C1093 N1091 1.356 . S
N1094 C1086 1.356 . S
N1094 H1100 0.984 . S
N1094 H1101 0.984 . S
N1095 C1088 1.356 . S
N1095 H1098 0.984 . S
N1095 H1099 0.985 . S
H1096 N1091 0.984 . S
H1097 N1091 0.985 . S
H1098 N1095 0.984 . S
H1099 N1095 0.985 . S
H1100 N1094 0.984 . S
H1101 N1094 0.984 . S
H1102 N1090 0.984 . S
H1103 N1090 0.985 . S
C1104 C1105 1.363 1_556 S
C1104 C1110 1.379 . S
C1104 N1112 1.356 . S
C1105 C1104 1.363 1_554 S
C1105 C1111 1.363 . S
C1106 C1107 1.363 1_554 S
C1106 C1111 1.379 . S
C1106 N1113 1.356 . S
C1107 C1106 1.363 1_556 S
C1107 C1110 1.363 . S
N1108 C1110 1.356 . S
N1108 H1120 0.984 . S
N1108 H1121 0.985 . S
N1109 C1111 1.356 . S
N1109 H1114 0.984 . S
N1109 H1115 0.985 . S
C1110 C1104 1.379 . S
C1110 C1107 1.363 . S
C1110 N1108 1.356 . S
C1111 C1105 1.363 . S
C1111 C1106 1.379 . S
C1111 N1109 1.356 . S
N1112 C1104 1.356 . S
N1112 H1118 0.984 . S
N1112 H1119 0.984 . S
N1113 C1106 1.356 . S
N1113 H1116 0.984 . S
N1113 H1117 0.985 . S
H1114 N1109 0.984 . S
H1115 N1109 0.985 . S
H1116 N1113 0.984 . S
H1117 N1113 0.985 . S
H1118 N1112 0.984 . S
H1119 N1112 0.984 . S
H1120 N1108 0.984 . S
H1121 N1108 0.985 . S
C1122 C1123 1.363 . S
C1122 C1128 1.379 1_554 S
C1122 N1130 1.356 . S
C1123 C1122 1.363 . S
C1123 C1129 1.363 . S
C1124 C1125 1.363 . S
C1124 C1129 1.379 1_556 S
C1124 N1131 1.356 . S
C1125 C1124 1.363 . S
C1125 C1128 1.363 . S
N1126 C1128 1.356 . S
N1126 H1138 0.984 . S
N1126 H1139 0.985 . S
N1127 C1129 1.356 . S
N1127 H1132 0.984 . S
N1127 H1133 0.985 . S
C1128 C1122 1.379 1_556 S
C1128 C1125 1.363 . S
C1128 N1126 1.356 . S
C1129 C1123 1.363 . S
C1129 C1124 1.379 1_554 S
C1129 N1127 1.356 . S
N1130 C1122 1.356 . S
N1130 H1136 0.986 . S
N1130 H1137 0.984 . S
N1131 C1124 1.356 . S
N1131 H1134 0.984 . S
N1131 H1135 0.986 . S
H1132 N1127 0.984 . S
H1133 N1127 0.985 . S
H1134 N1131 0.984 . S
H1135 N1131 0.986 . S
H1136 N1130 0.986 . S
H1137 N1130 0.984 . S
H1138 N1126 0.984 . S
H1139 N1126 0.985 . S
C1140 C1141 1.363 1_554 S
C1140 C1146 1.379 . S
C1140 N1148 1.356 . S
C1141 C1140 1.363 1_556 S
C1141 C1147 1.363 . S
C1142 C1143 1.363 1_556 S
C1142 C1147 1.379 . S
C1142 N1149 1.356 . S
C1143 C1142 1.363 1_554 S
C1143 C1146 1.363 . S
N1144 C1146 1.356 . S
N1144 H1156 0.984 . S
N1144 H1157 0.985 . S
N1145 C1147 1.356 . S
N1145 H1150 0.984 . S
N1145 H1151 0.985 . S
C1146 C1140 1.379 . S
C1146 C1143 1.363 . S
C1146 N1144 1.356 . S
C1147 C1141 1.363 . S
C1147 C1142 1.379 . S
C1147 N1145 1.356 . S
N1148 C1140 1.356 . S
N1148 H1154 0.984 . S
N1148 H1155 0.984 . S
N1149 C1142 1.356 . S
N1149 H1152 0.984 . S
N1149 H1153 0.985 . S
H1150 N1145 0.984 . S
H1151 N1145 0.985 . S
H1152 N1149 0.984 . S
H1153 N1149 0.985 . S
H1154 N1148 0.984 . S
H1155 N1148 0.984 . S
H1156 N1144 0.984 . S
H1157 N1144 0.985 . S
C1158 C1159 1.363 . S
C1158 C1164 1.379 . S
C1158 N1166 1.356 . S
C1159 C1158 1.363 . S
C1159 C1165 1.363 1_554 S
C1160 C1161 1.363 . S
C1160 C1165 1.379 . S
C1160 N1167 1.356 . S
C1161 C1160 1.363 . S
C1161 C1164 1.363 1_556 S
N1162 C1164 1.356 . S
N1162 H1174 0.984 . S
N1162 H1175 0.985 . S
N1163 C1165 1.356 . S
N1163 H1168 0.984 . S
N1163 H1169 0.985 . S
C1164 C1158 1.379 . S
C1164 C1161 1.363 1_554 S
C1164 N1162 1.356 . S
C1165 C1159 1.363 1_556 S
C1165 C1160 1.379 . S
C1165 N1163 1.356 . S
N1166 C1158 1.356 . S
N1166 H1172 0.984 . S
N1166 H1173 0.984 . S
N1167 C1160 1.356 . S
N1167 H1170 0.984 . S
N1167 H1171 0.985 . S
H1168 N1163 0.984 . S
H1169 N1163 0.985 . S
H1170 N1167 0.984 . S
H1171 N1167 0.985 . S
H1172 N1166 0.984 . S
H1173 N1166 0.984 . S
H1174 N1162 0.984 . S
H1175 N1162 0.985 . S
C1176 C1177 1.363 . S
C1176 C1182 1.379 . S
C1176 N1184 1.356 . S
C1177 C1176 1.363 . S
C1177 C1183 1.363 . S
C1178 C1179 1.363 . S
C1178 C1183 1.379 . S
C1178 N1185 1.356 . S
C1179 C1178 1.363 . S
C1179 C1182 1.363 . S
N1180 C1182 1.356 . S
N1180 H1192 0.984 . S
N1180 H1193 0.985 . S
N1181 C1183 1.356 . S
N1181 H1186 0.984 . S
N1181 H1187 0.985 . S
C1182 C1176 1.379 . S
C1182 C1179 1.363 . S
C1182 N1180 1.356 . S
C1183 C1177 1.363 . S
C1183 C1178 1.379 . S
C1183 N1181 1.356 . S
N1184 C1176 1.356 . S
N1184 H1190 0.984 . S
N1184 H1191 0.984 . S
N1185 C1178 1.356 . S
N1185 H1188 0.984 . S
N1185 H1189 0.985 . S
H1186 N1181 0.984 . S
H1187 N1181 0.985 . S
H1188 N1185 0.984 . S
H1189 N1185 0.985 . S
H1190 N1184 0.984 . S
H1191 N1184 0.984 . S
H1192 N1180 0.984 . S
H1193 N1180 0.985 . S
C1194 C1195 1.363 . S
C1194 C1200 1.379 . S
C1194 N1202 1.356 . S
C1195 C1194 1.363 . S
C1195 C1201 1.363 . S
C1196 C1197 1.363 . S
C1196 C1201 1.379 . S
C1196 N1203 1.356 . S
C1197 C1196 1.363 . S
C1197 C1200 1.363 . S
N1198 C1200 1.356 . S
N1198 H1210 0.984 . S
N1198 H1211 0.985 . S
N1199 C1201 1.356 . S
N1199 H1204 0.984 . S
N1199 H1205 0.985 . S
C1200 C1194 1.379 . S
C1200 C1197 1.363 . S
C1200 N1198 1.356 . S
C1201 C1195 1.363 . S
C1201 C1196 1.379 . S
C1201 N1199 1.356 . S
N1202 C1194 1.356 . S
N1202 H1208 0.984 . S
N1202 H1209 0.984 . S
N1203 C1196 1.356 . S
N1203 H1206 0.984 . S
N1203 H1207 0.985 . S
H1204 N1199 0.984 . S
H1205 N1199 0.985 . S
H1206 N1203 0.984 . S
H1207 N1203 0.985 . S
H1208 N1202 0.984 . S
H1209 N1202 0.984 . S
H1210 N1198 0.984 . S
H1211 N1198 0.985 . S
C1212 C1213 1.363 . S
C1212 C1218 1.379 . S
C1212 N1220 1.356 . S
C1213 C1212 1.363 . S
C1213 C1219 1.363 . S
C1214 C1215 1.363 . S
C1214 C1219 1.379 . S
C1214 N1221 1.356 . S
C1215 C1214 1.363 . S
C1215 C1218 1.363 . S
N1216 C1218 1.356 . S
N1216 H1228 0.984 . S
N1216 H1229 0.985 . S
N1217 C1219 1.356 . S
N1217 H1222 0.984 . S
N1217 H1223 0.985 . S
C1218 C1212 1.379 . S
C1218 C1215 1.363 . S
C1218 N1216 1.356 . S
C1219 C1213 1.363 . S
C1219 C1214 1.379 . S
C1219 N1217 1.356 . S
N1220 C1212 1.356 . S
N1220 H1226 0.984 . S
N1220 H1227 0.984 . S
N1221 C1214 1.356 . S
N1221 H1224 0.984 . S
N1221 H1225 0.985 . S
H1222 N1217 0.984 . S
H1223 N1217 0.985 . S
H1224 N1221 0.984 . S
H1225 N1221 0.985 . S
H1226 N1220 0.984 . S
H1227 N1220 0.984 . S
H1228 N1216 0.984 . S
H1229 N1216 0.985 . S
C1230 C1231 1.363 . S
C1230 C1236 1.379 . S
C1230 N1238 1.356 . S
C1231 C1230 1.363 . S
C1231 C1237 1.363 . S
C1232 C1233 1.363 . S
C1232 C1237 1.379 . S
C1232 N1239 1.356 . S
C1233 C1232 1.363 . S
C1233 C1236 1.363 . S
N1234 C1236 1.356 . S
N1234 H1246 0.984 . S
N1234 H1247 0.985 . S
N1235 C1237 1.356 . S
N1235 H1240 0.984 . S
N1235 H1241 0.985 . S
C1236 C1230 1.379 . S
C1236 C1233 1.363 . S
C1236 N1234 1.356 . S
C1237 C1231 1.363 . S
C1237 C1232 1.379 . S
C1237 N1235 1.356 . S
N1238 C1230 1.356 . S
N1238 H1244 0.984 . S
N1238 H1245 0.984 . S
N1239 C1232 1.356 . S
N1239 H1242 0.984 . S
N1239 H1243 0.985 . S
H1240 N1235 0.984 . S
H1241 N1235 0.985 . S
H1242 N1239 0.984 . S
H1243 N1239 0.985 . S
H1244 N1238 0.984 . S
H1245 N1238 0.984 . S
H1246 N1234 0.984 . S
H1247 N1234 0.985 . S
C529 N5 1.443 . S
C531 N14 1.444 . S
C547 N38 1.443 . S
C549 N47 1.444 . S
C565 N80 1.444 . S
C567 N71 1.443 . S
C583 N113 1.444 . S
C585 N104 1.443 . S
C601 N137 1.443 . S
C603 N146 1.444 . S
C619 N179 1.444 . S
C621 N170 1.443 . S
C637 N212 1.444 . S
C639 N203 1.443 . S
C655 N245 1.444 . S
C657 N236 1.443 . S
C673 N269 1.443 . S
C675 N278 1.444 . S
C691 N302 1.443 . S
C693 N311 1.444 . S
C709 N335 1.443 . S
C711 N344 1.444 . S
C727 N368 1.443 . S
C729 N377 1.444 . S
C745 N410 1.444 . S
C747 N401 1.443 . S
C763 N443 1.444 . S
C765 N434 1.443 . S
C781 N476 1.444 . S
C783 N467 1.443 . S
C799 N509 1.444 . S
C801 N500 1.443 . S
C817 C8 1.441 . S
C819 C503 1.441 . S
C835 C404 1.441 . S
C837 C41 1.441 . S
C853 C437 1.441 . S
C855 C74 1.441 . S
C871 C470 1.441 . S
C873 C107 1.441 . S
C889 C305 1.441 . S
C891 C140 1.441 . S
C907 C173 1.441 . S
C909 C338 1.441 . S
C925 C206 1.441 . S
C927 C371 1.441 . S
C943 C272 1.441 . S
C945 C239 1.441 . S
C961 C28 1.193 . S
C963 C160 1.193 . S
C979 C193 1.193 . S
C981 C61 1.193 . S
C997 C94 1.193 . S
C999 C226 1.193 . S
C1015 C259 1.193 . S
C1017 C127 1.193 . S
C1033 C424 1.193 . S
C1035 C292 1.193 . S
C1051 C325 1.193 . S
C1053 C457 1.193 . S
C1069 C358 1.193 . S
C1071 C490 1.193 . S
C1087 C391 1.193 . S
C1089 C523 1.193 . S
C1105 C17 1.552 . S
C1107 C182 1.552 . S
C1123 C50 1.552 . S
C1125 C215 1.552 . S
C1141 C248 1.552 . S
C1143 C83 1.552 . S
C1159 C116 1.552 . S
C1161 C149 1.552 . S
C1177 C446 1.552 . S
C1179 C281 1.552 . S
C1195 C314 1.552 . S
C1197 C479 1.552 . S
C1213 C512 1.552 . S
C1215 C347 1.552 . S
C1231 C413 1.552 . S
C1233 C380 1.552 . S
