# Generated by pormake.
# Topology wjd, (6)-cn, num edge types: 1
# Building blocks:
#     Node 0, Type 0, BuildingBlock: BETDEL_clean_sbu_0, # of connection points: 6
#     Node 1, Type 0, BuildingBlock: BETDEL_clean_sbu_0, # of connection points: 6
#     Node 2, Type 0, BuildingBlock: BETDEL_clean_sbu_0, # of connection points: 6
#     Node 3, Type 0, BuildingBlock: BETDEL_clean_sbu_0, # of connection points: 6
#     Node 4, Type 0, BuildingBlock: BETDEL_clean_sbu_0, # of connection points: 6
#     Node 5, Type 0, BuildingBlock: BETDEL_clean_sbu_0, # of connection points: 6
#     Node 6, Type 0, BuildingBlock: BETDEL_clean_sbu_0, # of connection points: 6
#     Node 7, Type 0, BuildingBlock: BETDEL_clean_sbu_0, # of connection points: 6
#     Node 8, Type 0, BuildingBlock: BETDEL_clean_sbu_0, # of connection points: 6
#     Node 9, Type 0, BuildingBlock: BETDEL_clean_sbu_0, # of connection points: 6
#     Node 10, Type 0, BuildingBlock: BETDEL_clean_sbu_0, # of connection points: 6
#     Node 11, Type 0, BuildingBlock: BETDEL_clean_sbu_0, # of connection points: 6
#     Edge 12, Type (0, 0), BuildingBlock: EZIPEK_clean_linker_0, # of connection points: 2
#     Edge 13, Type (0, 0), BuildingBlock: EZIPEK_clean_linker_0, # of connection points: 2
#     Edge 14, Type (0, 0), BuildingBlock: EZIPEK_clean_linker_0, # of connection points: 2
#     Edge 15, Type (0, 0), BuildingBlock: EZIPEK_clean_linker_0, # of connection points: 2
#     Edge 16, Type (0, 0), BuildingBlock: EZIPEK_clean_linker_0, # of connection points: 2
#     Edge 17, Type (0, 0), BuildingBlock: EZIPEK_clean_linker_0, # of connection points: 2
#     Edge 18, Type (0, 0), BuildingBlock: EZIPEK_clean_linker_0, # of connection points: 2
#     Edge 19, Type (0, 0), BuildingBlock: EZIPEK_clean_linker_0, # of connection points: 2
#     Edge 20, Type (0, 0), BuildingBlock: EZIPEK_clean_linker_0, # of connection points: 2
#     Edge 21, Type (0, 0), BuildingBlock: EZIPEK_clean_linker_0, # of connection points: 2
#     Edge 22, Type (0, 0), BuildingBlock: EZIPEK_clean_linker_0, # of connection points: 2
#     Edge 23, Type (0, 0), BuildingBlock: EZIPEK_clean_linker_0, # of connection points: 2
#     Edge 24, Type (0, 0), BuildingBlock: EZIPEK_clean_linker_0, # of connection points: 2
#     Edge 25, Type (0, 0), BuildingBlock: EZIPEK_clean_linker_0, # of connection points: 2
#     Edge 26, Type (0, 0), BuildingBlock: EZIPEK_clean_linker_0, # of connection points: 2
#     Edge 27, Type (0, 0), BuildingBlock: EZIPEK_clean_linker_0, # of connection points: 2
#     Edge 28, Type (0, 0), BuildingBlock: EZIPEK_clean_linker_0, # of connection points: 2
#     Edge 29, Type (0, 0), BuildingBlock: EZIPEK_clean_linker_0, # of connection points: 2
#     Edge 30, Type (0, 0), BuildingBlock: EZIPEK_clean_linker_0, # of connection points: 2
#     Edge 31, Type (0, 0), BuildingBlock: EZIPEK_clean_linker_0, # of connection points: 2
#     Edge 32, Type (0, 0), BuildingBlock: EZIPEK_clean_linker_0, # of connection points: 2
#     Edge 33, Type (0, 0), BuildingBlock: EZIPEK_clean_linker_0, # of connection points: 2
#     Edge 34, Type (0, 0), BuildingBlock: EZIPEK_clean_linker_0, # of connection points: 2
#     Edge 35, Type (0, 0), BuildingBlock: EZIPEK_clean_linker_0, # of connection points: 2
#     Edge 36, Type (0, 0), BuildingBlock: EZIPEK_clean_linker_0, # of connection points: 2
#     Edge 37, Type (0, 0), BuildingBlock: EZIPEK_clean_linker_0, # of connection points: 2
#     Edge 38, Type (0, 0), BuildingBlock: EZIPEK_clean_linker_0, # of connection points: 2
#     Edge 39, Type (0, 0), BuildingBlock: EZIPEK_clean_linker_0, # of connection points: 2
#     Edge 40, Type (0, 0), BuildingBlock: EZIPEK_clean_linker_0, # of connection points: 2
#     Edge 41, Type (0, 0), BuildingBlock: EZIPEK_clean_linker_0, # of connection points: 2
#     Edge 42, Type (0, 0), BuildingBlock: EZIPEK_clean_linker_0, # of connection points: 2
#     Edge 43, Type (0, 0), BuildingBlock: EZIPEK_clean_linker_0, # of connection points: 2
#     Edge 44, Type (0, 0), BuildingBlock: EZIPEK_clean_linker_0, # of connection points: 2
#     Edge 45, Type (0, 0), BuildingBlock: EZIPEK_clean_linker_0, # of connection points: 2
#     Edge 46, Type (0, 0), BuildingBlock: EZIPEK_clean_linker_0, # of connection points: 2
#     Edge 47, Type (0, 0), BuildingBlock: EZIPEK_clean_linker_0, # of connection points: 2
# Relax obj value: 0.092
# Max RMSD: 0.187
# Mean RMSD: 0.187
data_MOF--net-wjd--node1-BETDEL_clean_sbu_0--edge1-EZIPEK_clean_linker_0
_symmetry_space_group_name_H-M    P1
_symmetry_Int_Tables_number       1
_symmetry_cell_setting            triclinic
loop_
_symmetry_equiv_pos_as_xyz
'x, y, z'
_cell_length_a     24.606991
_cell_length_b     24.692579
_cell_length_c     38.235874
_cell_angle_alpha  89.78777
_cell_angle_beta   90.116105
_cell_angle_gamma 119.9205
loop_
_atom_site_label
_atom_site_type_symbol
_atom_site_fract_x
_atom_site_fract_y
_atom_site_fract_z
_atom_type_partial_charge
Dy0 Dy 0.38885 0.20089 0.12952 0.0
C1 C 0.19472 0.94919 0.14755 0.0
C2 C 0.47105 0.32742 0.12989 0.0
Dy3 Dy 0.29316 0.0685 0.15093 0.0
O4 O 0.42512 0.2986 0.10778 0.0
O5 O 0.47254 0.28684 0.15092 0.0
O6 O 0.39035 0.16468 0.07475 0.0
O7 O 0.3091 0.12172 0.10409 0.0
C8 C 0.33382 0.11661 0.07639 0.0
C9 C 0.34045 0.14447 0.20656 0.0
O10 O 0.38225 0.0607 0.14544 0.0
O11 O 0.45482 0.16554 0.13444 0.0
O12 O 0.21682 0.98121 0.17606 0.0
O13 O 0.23009 0.98036 0.12131 0.0
O14 O 0.28424 0.09662 0.20454 0.0
O15 O 0.3708 0.14666 0.17904 0.0
O16 O 0.31277 0.21718 0.14787 0.0
O17 O 0.23331 0.1142 0.14548 0.0
C18 C 0.44115 0.10726 0.13996 0.0
C19 C 0.25302 0.17469 0.14884 0.0
Dy20 Dy 0.79509 0.72639 0.41123 0.0
C21 C 0.87372 0.54809 0.43519 0.0
C22 C 0.78435 0.83077 0.41059 0.0
Dy23 Dy 0.84175 0.63986 0.43388 0.0
O24 O 0.78657 0.80178 0.38283 0.0
O25 O 0.78316 0.79995 0.43829 0.0
O26 O 0.75976 0.67605 0.36141 0.0
O27 O 0.84239 0.68407 0.38311 0.0
C28 C 0.80327 0.66112 0.35797 0.0
C29 C 0.8236 0.70485 0.48567 0.0
O30 O 0.93209 0.71668 0.41483 0.0
O31 O 0.90047 0.78992 0.41817 0.0
O32 O 0.90473 0.60202 0.45048 0.0
O33 O 0.82397 0.54364 0.4206 0.0
O34 O 0.8636 0.6852 0.48839 0.0
O35 O 0.79118 0.6803 0.45912 0.0
O36 O 0.70131 0.64184 0.42238 0.0
O37 O 0.73934 0.57234 0.42662 0.0
C38 C 0.94533 0.7751 0.41608 0.0
C39 C 0.69252 0.58424 0.42463 0.0
Dy40 Dy 0.81459 0.18051 0.13303 0.0
C41 C 0.06809 0.25276 0.155 0.0
C42 C 0.68727 0.1352 0.12837 0.0
Dy43 Dy 0.94926 0.23289 0.15856 0.0
O44 O 0.72988 0.18155 0.11002 0.0
O45 O 0.71453 0.11431 0.14897 0.0
O46 O 0.84997 0.16217 0.0805 0.0
O47 O 0.90764 0.23671 0.11056 0.0
C48 C 0.90731 0.20878 0.08354 0.0
C49 C 0.86619 0.18415 0.21175 0.0
O50 O 0.94546 0.32331 0.15589 0.0
O51 O 0.83783 0.27755 0.14404 0.0
O52 O 0.04904 0.27797 0.17861 0.0
O53 O 0.02395 0.22172 0.13253 0.0
O54 O 0.91881 0.18432 0.20964 0.0
O55 O 0.86143 0.21242 0.18502 0.0
O56 O 0.80962 0.09541 0.15395 0.0
O57 O 0.91374 0.13173 0.14428 0.0
C58 C 0.89345 0.32683 0.1505 0.0
C59 C 0.85669 0.08533 0.15097 0.0
Dy60 Dy 0.30643 0.08142 0.41135 0.0
C61 C 0.48712 0.33614 0.43221 0.0
C62 C 0.20828 0.96233 0.41399 0.0
Dy63 Dy 0.40403 0.21062 0.42909 0.0
O64 O 0.24192 0.9886 0.38631 0.0
O65 O 0.23157 0.99951 0.44035 0.0
O66 O 0.29171 0.10954 0.35873 0.0
O67 O 0.38238 0.15593 0.37982 0.0
C68 C 0.34902 0.15371 0.35369 0.0
C69 C 0.35307 0.13047 0.48489 0.0
O70 O 0.3283 0.2293 0.41225 0.0
O71 O 0.24756 0.12746 0.41717 0.0
O72 O 0.44075 0.30563 0.45371 0.0
O73 O 0.48824 0.29797 0.4094 0.0
O74 O 0.41157 0.1738 0.48249 0.0
O75 O 0.32593 0.13561 0.45818 0.0
O76 O 0.39151 0.06906 0.42063 0.0
O77 O 0.46833 0.17407 0.42131 0.0
C78 C 0.26816 0.18792 0.41323 0.0
C79 C 0.45149 0.1144 0.4216 0.0
Dy80 Dy 0.81922 0.6254 0.13516 0.0
C81 C 0.79184 0.8288 0.16427 0.0
C82 C 0.84556 0.53098 0.13861 0.0
Dy83 Dy 0.78415 0.71541 0.16073 0.0
O84 O 0.83932 0.55491 0.10946 0.0
O85 O 0.83587 0.55743 0.16511 0.0
O86 O 0.83384 0.66954 0.08088 0.0
O87 O 0.76379 0.66462 0.11266 0.0
C88 C 0.79055 0.68509 0.08392 0.0
C89 C 0.80212 0.65542 0.21356 0.0
O90 O 0.68672 0.63342 0.14934 0.0
O91 O 0.71844 0.55953 0.14677 0.0
O92 O 0.75297 0.78055 0.18285 0.0
O93 O 0.824 0.81437 0.14353 0.0
O94 O 0.76082 0.67348 0.21342 0.0
O95 O 0.83482 0.67428 0.1858 0.0
O96 O 0.91706 0.70087 0.13801 0.0
O97 O 0.88944 0.775 0.15109 0.0
C98 C 0.67372 0.5741 0.14858 0.0
C99 C 0.93227 0.75891 0.14395 0.0
Dy100 Dy 0.95789 0.23743 0.41069 0.0
C101 C 0.69803 0.15492 0.438 0.0
C102 C 0.07683 0.25772 0.41276 0.0
Dy103 Dy 0.82368 0.19246 0.43518 0.0
O104 O 0.05629 0.28159 0.38912 0.0
O105 O 0.034 0.22761 0.43614 0.0
O106 O 0.92623 0.18861 0.35963 0.0
O107 O 0.87107 0.21936 0.38352 0.0
C108 C 0.8739 0.18903 0.35752 0.0
C109 C 0.911 0.21425 0.48592 0.0
O110 O 0.8156 0.10578 0.41388 0.0
O111 O 0.91804 0.13657 0.42628 0.0
O112 O 0.72352 0.12437 0.45115 0.0
O113 O 0.74157 0.20692 0.4246 0.0
O114 O 0.85159 0.17453 0.48996 0.0
O115 O 0.91655 0.2434 0.45833 0.0
O116 O 0.96187 0.33115 0.41444 0.0
O117 O 0.85734 0.29443 0.43142 0.0
C118 C 0.86017 0.09234 0.41922 0.0
C119 C 0.91409 0.34018 0.42265 0.0
Dy120 Dy 0.08233 0.30573 0.65161 0.0
C121 C 0.33887 0.47674 0.62846 0.0
C122 C 0.96702 0.20132 0.65183 0.0
Dy123 Dy 0.21503 0.38842 0.62943 0.0
O124 O 1.00524 0.22122 0.6782 0.0
O125 O 0.98986 0.24094 0.62614 0.0
O126 O 0.10143 0.34868 0.70413 0.0
O127 O 0.17212 0.33906 0.67897 0.0
C128 C 0.15903 0.3601 0.70614 0.0
C129 C 0.12942 0.33222 0.57727 0.0
O130 O 0.22426 0.30678 0.64267 0.0
O131 O 0.11877 0.24122 0.63535 0.0
O132 O 0.30847 0.44127 0.60211 0.0
O133 O 0.30144 0.46516 0.65471 0.0
O134 O 0.18671 0.34287 0.57514 0.0
O135 O 0.12435 0.35655 0.60478 0.0
O136 O 0.07684 0.39372 0.64691 0.0
O137 O 0.18465 0.45852 0.63997 0.0
C138 C 0.17626 0.25041 0.63864 0.0
C139 C 0.12746 0.45014 0.64423 0.0
Dy140 Dy 0.19451 0.81186 0.92988 0.0
C141 C 0.24434 0.05403 0.91123 0.0
C142 C 0.15891 0.68701 0.92761 0.0
Dy143 Dy 0.23971 0.94238 0.90794 0.0
O144 O 0.17848 0.72163 0.95559 0.0
O145 O 0.15958 0.72093 0.90156 0.0
O146 O 0.17678 0.83999 0.98424 0.0
O147 O 0.25314 0.90299 0.95479 0.0
C148 C 0.22377 0.89714 0.98259 0.0
C149 C 0.21846 0.8682 0.85239 0.0
O150 O 0.33399 0.95095 0.91649 0.0
O151 O 0.29406 0.8437 0.91503 0.0
O152 O 0.26733 0.03716 0.88558 0.0
O153 O 0.22354 0.0121 0.93562 0.0
O154 O 0.26135 0.92679 0.85393 0.0
O155 O 0.18515 0.85338 0.88009 0.0
O156 O 0.1005 0.79995 0.92186 0.0
O157 O 0.13623 0.90532 0.91845 0.0
C158 C 0.34204 0.90167 0.91482 0.0
C159 C 0.08965 0.84684 0.91996 0.0
Dy160 Dy 0.73335 0.78827 0.65349 0.0
C161 C 0.56291 0.88143 0.62876 0.0
C162 C 0.8391 0.78165 0.64568 0.0
Dy163 Dy 0.64403 0.83776 0.62466 0.0
O164 O 0.79162 0.74317 0.66515 0.0
O165 O 0.82619 0.81999 0.62923 0.0
O166 O 0.72305 0.79425 0.71097 0.0
O167 O 0.67803 0.82465 0.67545 0.0
C168 C 0.68816 0.82003 0.70767 0.0
C169 C 0.70553 0.80549 0.57683 0.0
O170 O 0.72861 0.92866 0.62844 0.0
O171 O 0.79395 0.89447 0.65173 0.0
O172 O 0.56013 0.84255 0.60476 0.0
O173 O 0.60922 0.89573 0.64997 0.0
O174 O 0.686 0.84486 0.56968 0.0
O175 O 0.68486 0.78324 0.60641 0.0
O176 O 0.64122 0.69817 0.64315 0.0
O177 O 0.57502 0.74113 0.64023 0.0
C178 C 0.78212 0.93935 0.64176 0.0
C179 C 0.58414 0.69267 0.64124 0.0
Dy180 Dy 0.19622 0.37318 0.92806 0.0
C181 C 0.9531 0.18114 0.90324 0.0
C182 C 0.32009 0.46008 0.92393 0.0
Dy183 Dy 0.06525 0.28932 0.90342 0.0
O184 O 0.28728 0.44603 0.95267 0.0
O185 O 0.28508 0.4281 0.89801 0.0
O186 O 0.16961 0.32407 0.98116 0.0
O187 O 0.10335 0.33332 0.9522 0.0
C188 C 0.11032 0.30683 0.97852 0.0
C189 C 0.14196 0.35106 0.85065 0.0
O190 O 0.05841 0.37634 0.91397 0.0
O191 O 0.16618 0.44316 0.91865 0.0
O192 O 0.97698 0.21756 0.87617 0.0
O193 O 0.98768 0.20699 0.9304 0.0
O194 O 0.0838 0.33798 0.85258 0.0
O195 O 0.15543 0.32809 0.87705 0.0
O196 O 0.21092 0.29377 0.92337 0.0
O197 O 0.10813 0.22561 0.90726 0.0
C198 C 0.10847 0.43355 0.91638 0.0
C199 C 0.1658 0.23779 0.91546 0.0
Dy200 Dy 0.24918 0.95499 0.65313 0.0
C201 C 0.17811 0.70209 0.63427 0.0
C202 C 0.25336 0.0661 0.64616 0.0
Dy203 Dy 0.20957 0.82477 0.6307 0.0
O204 O 0.26499 0.04594 0.67516 0.0
O205 O 0.24281 0.02717 0.62098 0.0
O206 O 0.27106 0.93981 0.70714 0.0
O207 O 0.197 0.86485 0.67996 0.0
C208 C 0.22938 0.88054 0.70812 0.0
C209 C 0.24049 0.91038 0.57805 0.0
O210 O 0.11345 0.80871 0.63433 0.0
O211 O 0.14381 0.91167 0.64649 0.0
O212 O 0.19238 0.73465 0.60545 0.0
O213 O 0.18238 0.73683 0.66054 0.0
O214 O 0.19689 0.85198 0.57496 0.0
O215 O 0.26644 0.91666 0.60718 0.0
O216 O 0.34537 0.96635 0.6487 0.0
O217 O 0.30963 0.8598 0.64554 0.0
C218 C 0.1001 0.85303 0.64031 0.0
C219 C 0.35577 0.91845 0.64866 0.0
Dy220 Dy 0.63244 0.81728 0.92582 0.0
C221 C 0.82578 0.76153 0.9082 0.0
C222 C 0.54741 0.85679 0.92356 0.0
Dy223 Dy 0.71951 0.76651 0.89755 0.0
O224 O 0.55765 0.83165 0.95105 0.0
O225 O 0.58338 0.86015 0.89796 0.0
O226 O 0.67749 0.82578 0.97937 0.0
O227 O 0.67002 0.75912 0.94478 0.0
C228 C 0.69355 0.78337 0.97364 0.0
C229 C 0.68016 0.80449 0.84324 0.0
O230 O 0.62417 0.6761 0.90025 0.0
O231 O 0.56121 0.71952 0.91519 0.0
O232 O 0.78494 0.73053 0.8836 0.0
O233 O 0.80687 0.79226 0.92719 0.0
O234 O 0.71548 0.77927 0.84015 0.0
O235 O 0.66805 0.80703 0.8753 0.0
O236 O 0.71562 0.90836 0.91727 0.0
O237 O 0.7837 0.87146 0.90448 0.0
C238 C 0.56828 0.67149 0.90672 0.0
C239 C 0.77171 0.9176 0.91012 0.0
C240 C 0.16091 0.25665 0.12663 0.0
C241 C 0.12366 0.24427 0.15708 0.0
C242 C 0.17664 0.19229 0.18377 0.0
C243 C 0.20743 0.19725 0.15161 0.0
N244 N 0.22541 0.22947 0.09113 0.0
N245 N 0.08928 0.19154 0.21298 0.0
C246 C 0.19888 0.22851 0.1227 0.0
C247 C 0.13011 0.21037 0.18543 0.0
N248 N 0.16042 0.29619 0.10166 0.0
N249 N 0.1928 0.17163 0.21303 0.0
H250 H 0.05457 0.20355 0.21582 0.0
H251 H 0.08669 0.1598 0.23185 0.0
H252 H 0.22603 0.15728 0.21275 0.0
H253 H 0.1774 0.17398 0.23804 0.0
H254 H 0.19024 0.31161 0.08011 0.0
H255 H 0.13415 0.3185 0.10438 0.0
H256 H 0.2153 0.24518 0.06805 0.0
H257 H 0.25403 0.20998 0.08733 0.0
C258 C 0.11948 0.86335 0.4379 0.0
C259 C 0.14185 0.91285 0.41329 0.0
C260 C 0.03612 0.87126 0.38968 0.0
C261 C 1.01247 0.82442 0.41594 0.0
N262 N 0.03003 0.78464 0.47006 0.0
N263 N 0.11733 0.97467 0.37368 0.0
C264 C 0.05375 0.82278 0.44149 0.0
C265 C 0.0992 0.91994 0.3913 0.0
N266 N 0.16104 0.85467 0.45752 0.0
N267 N 0.99919 0.86838 0.36237 0.0
H268 H 0.16191 0.01374 0.37554 0.0
H269 H 0.08579 0.98393 0.36041 0.0
H270 H 0.95296 0.83316 0.36028 0.0
H271 H 0.01616 0.89732 0.34044 0.0
H272 H 0.14785 0.81578 0.47346 0.0
H273 H 0.2095 0.88383 0.45565 0.0
H274 H 0.05728 0.78625 0.49133 0.0
H275 H 0.98212 0.7558 0.47421 0.0
C276 C 0.78681 0.97182 0.13917 0.0
C277 C 0.84292 0.01988 0.15445 0.0
C278 C 0.86302 0.94023 0.17975 0.0
C279 C 0.80384 0.89314 0.16728 0.0
N280 N 0.70236 0.86494 0.14398 0.0
N281 N 0.92819 0.04874 0.19557 0.0
C282 C 0.76327 0.90927 0.15005 0.0
C283 C 0.87963 1.004 0.17646 0.0
N284 N 0.75789 0.98532 0.11276 0.0
N285 N 0.90353 0.924 0.19455 0.0
H286 H 0.94189 0.0959 0.19465 0.0
H287 H 0.95172 0.03836 0.21478 0.0
H288 H 0.89113 0.87775 0.19988 0.0
H289 H 0.95032 0.95618 0.19987 0.0
H290 H 0.7199 0.95097 0.09885 0.0
H291 H 0.77651 0.02988 0.10186 0.0
H292 H 0.66937 0.87554 0.13387 0.0
H293 H 0.68366 0.81884 0.1525 0.0
C294 C 0.19256 0.20897 0.38006 0.0
C295 C 0.22301 0.21103 0.41189 0.0
C296 C 0.17023 0.26102 0.44055 0.0
C297 C 0.13318 0.25069 0.41011 0.0
N298 N 0.10172 0.20383 0.35263 0.0
N299 N 0.2387 0.23505 0.47343 0.0
C300 C 0.14275 0.22244 0.3801 0.0
C301 C 0.21154 0.23632 0.44242 0.0
N302 N 0.21172 0.19497 0.34959 0.0
N303 N 0.16645 0.29535 0.46746 0.0
H304 H 0.27054 0.21896 0.47559 0.0
H305 H 0.22657 0.24582 0.49743 0.0
H306 H 0.13746 0.31499 0.46656 0.0
H307 H 0.19586 0.30925 0.48919 0.0
H308 H 0.19592 0.19948 0.32504 0.0
H309 H 0.24795 0.18476 0.34859 0.0
H310 H 0.10238 0.17621 0.33229 0.0
H311 H 0.06333 0.21063 0.35135 0.0
C312 C 0.10741 0.84297 0.16429 0.0
C313 C 0.12868 0.89822 0.14425 0.0
C314 C 0.02236 0.85861 0.12097 0.0
C315 C 0.9998 0.80685 0.14403 0.0
N316 N 0.01932 0.75388 0.19158 0.0
N317 N 0.1033 0.96474 0.10925 0.0
C318 C 0.04194 0.79991 0.16669 0.0
C319 C 0.08549 0.9077 0.12395 0.0
N320 N 0.14997 0.83103 0.18044 0.0
N321 N 0.98413 0.86016 0.09546 0.0
H322 H 0.14801 1.00334 0.11182 0.0
H323 H 0.07183 0.97578 0.09747 0.0
H324 H 0.93768 0.82486 0.09218 0.0
H325 H 1.00026 0.89334 0.07545 0.0
H326 H 0.13798 0.78853 0.19236 0.0
H327 H 0.19824 0.86167 0.17917 0.0
H328 H 0.04696 0.75106 0.21135 0.0
H329 H 0.97184 0.72145 0.19454 0.0
C330 C 0.76806 0.91683 0.43254 0.0
C331 C 0.80285 0.89753 0.41175 0.0
C332 C 0.8758 1.00626 0.39555 0.0
C333 C 0.84359 0.02599 0.41825 0.0
N334 N 0.76896 1.00118 0.46506 0.0
N335 N 0.90081 0.9259 0.38241 0.0
C336 C 0.79241 0.98156 0.43868 0.0
C337 C 0.85973 0.94266 0.39563 0.0
N338 N 0.71116 0.87344 0.44583 0.0
N339 N 0.92056 0.04748 0.37308 0.0
H340 H 0.89327 0.8806 0.38337 0.0
H341 H 0.94589 0.95829 0.37407 0.0
H342 H 0.93536 0.0949 0.37247 0.0
H343 H 0.93947 0.03354 0.35302 0.0
H344 H 0.68081 0.88518 0.45824 0.0
H345 H 0.69173 0.82556 0.44169 0.0
H346 H 0.73597 0.97087 0.48305 0.0
H347 H 0.78735 0.04818 0.47136 0.0
C348 C 0.26412 0.16437 0.62141 0.0
C349 C 0.23278 0.1126 0.64417 0.0
C350 C 0.15706 0.14545 0.65996 0.0
C351 C 0.18862 0.19762 0.63713 0.0
N352 N 0.25916 0.24563 0.58846 0.0
N353 N 0.13986 0.04391 0.67748 0.0
C354 C 0.23838 0.20378 0.61555 0.0
C355 C 0.1765 0.10021 0.66129 0.0
N356 N 0.31927 0.17665 0.60601 0.0
N357 N 0.11009 0.1398 0.6814 0.0
H358 H 0.15213 0.00933 0.67958 0.0
H359 H 0.09447 0.02898 0.68621 0.0
H360 H 0.0906 0.16862 0.68013 0.0
H361 H 0.09251 0.10826 0.70217 0.0
H362 H 0.34788 0.21747 0.5921 0.0
H363 H 0.3391 0.14822 0.60947 0.0
H364 H 0.29086 0.24806 0.56966 0.0
H365 H 0.23952 0.27343 0.58251 0.0
C366 C 1.00103 0.85884 0.89334 0.0
C367 C 0.02284 0.83137 0.91863 0.0
C368 C 0.91425 0.7506 0.93112 0.0
C369 C 0.89257 0.77962 0.90758 0.0
N370 N 0.91342 0.86692 0.87032 0.0
N371 N 0.99859 0.76412 0.96914 0.0
C372 C 0.93545 0.83536 0.88985 0.0
C373 C 0.97886 0.78091 0.93972 0.0
N374 N 0.04187 0.9056 0.87165 0.0
N375 N 0.87302 0.69361 0.94497 0.0
H376 H 0.04497 0.78845 0.97778 0.0
H377 H 0.96798 0.73132 0.98712 0.0
H378 H 0.82566 0.66992 0.9381 0.0
H379 H 0.88684 0.66738 0.96009 0.0
H380 H 0.02766 0.92038 0.84969 0.0
H381 H 0.0903 0.92779 0.8737 0.0
H382 H 0.94169 0.91242 0.86125 0.0
H383 H 0.86598 0.84905 0.86482 0.0
C384 C 0.81641 0.04699 0.66462 0.0
C385 C 0.83065 1.00586 0.64561 0.0
C386 C 0.9318 0.09448 0.62806 0.0
C387 C 0.91816 0.13512 0.64776 0.0
N388 N 0.85303 0.15035 0.68871 0.0
N389 N 0.89647 0.99117 0.60456 0.0
C390 C 0.86194 0.11143 0.66706 0.0
C391 C 0.88726 0.02968 0.62642 0.0
N392 N 0.75838 0.02513 0.67923 0.0
N393 N 0.98877 0.11745 0.61213 0.0
H394 H 0.86579 0.94325 0.60285 0.0
H395 H 0.93218 1.00678 0.58608 0.0
H396 H 0.02039 0.16485 0.60982 0.0
H397 H 1.00632 0.08983 0.60253 0.0
H398 H 0.74217 0.0539 0.68879 0.0
H399 H 0.72417 0.97813 0.6802 0.0
H400 H 0.8175 0.13484 0.70731 0.0
H401 H 0.88376 0.19846 0.68972 0.0
C402 C 0.18335 0.16107 0.88182 0.0
C403 C 0.18309 0.18859 0.91417 0.0
C404 C 0.23744 0.13917 0.94156 0.0
C405 C 0.22931 0.10479 0.91048 0.0
N406 N 0.17902 0.07202 0.85368 0.0
N407 N 0.20184 0.1969 0.97647 0.0
C408 C 0.19805 0.11254 0.88123 0.0
C409 C 0.2078 0.1756 0.94459 0.0
N410 N 0.17304 0.18345 0.85136 0.0
N411 N 0.27492 0.13842 0.96781 0.0
H412 H 0.18027 0.22365 0.97974 0.0
H413 H 0.21299 0.18325 0.99998 0.0
H414 H 0.29909 0.1138 0.96602 0.0
H415 H 0.28716 0.16711 0.98972 0.0
H416 H 0.17824 0.16849 0.82676 0.0
H417 H 0.16714 0.2223 0.85074 0.0
H418 H 0.1505 0.07285 0.83373 0.0
H419 H 0.18546 0.03352 0.85236 0.0
C420 C 1.00303 0.84258 0.61369 0.0
C421 C 0.03331 0.83457 0.64291 0.0
C422 C 0.93435 0.78695 0.67549 0.0
C423 C 0.90284 0.78909 0.64467 0.0
N424 N 0.90581 0.80026 0.58196 0.0
N425 N 0.02571 0.78716 0.69941 0.0
C426 C 0.93688 0.81114 0.61298 0.0
C427 C 0.99824 0.80257 0.67306 0.0
N428 N 0.03723 0.88128 0.58697 0.0
N429 N 0.90562 0.77434 0.7074 0.0
H430 H 0.07277 0.79923 0.69905 0.0
H431 H 1.00048 0.75813 0.72021 0.0
H432 H 0.85962 0.76391 0.71123 0.0
H433 H 0.92957 0.77974 0.73081 0.0
H434 H 0.017 0.89221 0.56612 0.0
H435 H 0.08594 0.90804 0.58803 0.0
H436 H 0.92853 0.81089 0.55783 0.0
H437 H 0.85713 0.77333 0.58057 0.0
C438 C 0.90735 0.07264 0.87785 0.0
C439 C 0.9047 0.11406 0.90275 0.0
C440 C 0.82717 0.02415 0.93629 0.0
C441 C 0.82259 0.98369 0.90873 0.0
N442 N 0.85118 0.97169 0.84994 0.0
N443 N 0.85406 0.12903 0.9528 0.0
C444 C 0.86061 1.00844 0.87852 0.0
C445 C 0.86217 0.08968 0.93114 0.0
N446 N 0.95647 0.093 0.85506 0.0
N447 N 0.7998 0.99993 0.9679 0.0
H448 H 0.87743 0.17737 0.94922 0.0
H449 H 0.8195 0.11331 0.97204 0.0
H450 H 0.77589 0.9521 0.97308 0.0
H451 H 0.80676 0.0273 0.98996 0.0
H452 H 0.96337 0.06282 0.8391 0.0
H453 H 0.99421 0.13838 0.85476 0.0
H454 H 0.873 0.98968 0.82597 0.0
H455 H 0.81757 0.92444 0.849 0.0
C456 C 0.37767 0.1185 0.29851 0.0
C457 C 0.37187 0.16551 0.31671 0.0
C458 C 0.36633 0.21152 0.26045 0.0
C459 C 0.36843 0.16245 0.24238 0.0
N460 N 0.3924 0.07906 0.24339 0.0
N461 N 0.37637 0.26476 0.31575 0.0
C462 C 0.38045 0.11983 0.26124 0.0
C463 C 0.37201 0.21506 0.29777 0.0
N464 N 0.37524 0.06956 0.31673 0.0
N465 N 0.35535 0.25253 0.24198 0.0
H466 H 0.3803 0.2676 0.34296 0.0
H467 H 0.38129 0.30495 0.30388 0.0
H468 H 0.35342 0.25209 0.21472 0.0
H469 H 0.34602 0.28519 0.25342 0.0
H470 H 0.37048 0.02943 0.30504 0.0
H471 H 0.37444 0.06725 0.34396 0.0
H472 H 0.40824 0.05147 0.25526 0.0
H473 H 0.39172 0.07663 0.21621 0.0
C474 C 0.79965 0.59944 0.30512 0.0
C475 C 0.82278 0.65816 0.3217 0.0
C476 C 0.86356 0.71064 0.26554 0.0
C477 C 0.82787 0.65302 0.24819 0.0
N478 N 0.76436 0.54132 0.25057 0.0
N479 N 0.86697 0.76995 0.31595 0.0
C480 C 0.79783 0.59673 0.26778 0.0
C481 C 0.85357 0.71406 0.30164 0.0
N482 N 0.77739 0.54662 0.32504 0.0
N483 N 0.90363 0.76294 0.24711 0.0
H484 H 0.85691 0.77454 0.34182 0.0
H485 H 0.88249 0.81074 0.30133 0.0
H486 H 0.91059 0.76214 0.22034 0.0
H487 H 0.9345 0.80523 0.25907 0.0
H488 H 0.7639 0.50269 0.31478 0.0
H489 H 0.77718 0.54795 0.35232 0.0
H490 H 0.73542 0.49892 0.26301 0.0
H491 H 0.76423 0.53872 0.22332 0.0
C492 C 0.88732 0.24976 0.26526 0.0
C493 C 0.84826 0.19243 0.24775 0.0
C494 C 0.806 0.14192 0.30462 0.0
C495 C 0.85384 0.19537 0.32171 0.0
N496 N 0.94011 0.30136 0.31875 0.0
N497 N 0.7664 0.08517 0.24987 0.0
C498 C 0.89314 0.2503 0.30223 0.0
C499 C 0.80532 0.13915 0.26724 0.0
N500 N 0.92106 0.30346 0.24644 0.0
N501 N 0.76223 0.09371 0.32434 0.0
H502 H 0.76339 0.08335 0.22262 0.0
H503 H 0.73853 0.04233 0.26212 0.0
H504 H 0.76224 0.09576 0.3516 0.0
H505 H 0.72346 0.05458 0.31399 0.0
H506 H 0.94391 0.34784 0.2575 0.0
H507 H 0.92191 0.30442 0.21935 0.0
H508 H 0.97637 0.33923 0.30576 0.0
H509 H 0.94529 0.30481 0.3458 0.0
C510 C 0.21325 0.41476 0.76162 0.0
C511 C 0.18315 0.35907 0.74177 0.0
C512 C 0.14062 0.29733 0.79488 0.0
C513 C 0.16704 0.35301 0.81504 0.0
N514 N 0.24 0.46317 0.81931 0.0
N515 N 0.14465 0.24883 0.74088 0.0
C516 C 0.20799 0.41136 0.79895 0.0
C517 C 0.15621 0.30085 0.75904 0.0
N518 N 0.245 0.4705 0.74444 0.0
N519 N 0.09663 0.24166 0.80903 0.0
H520 H 0.15926 0.25183 0.71507 0.0
H521 H 0.12882 0.20533 0.75263 0.0
H522 H 0.08332 0.23643 0.83522 0.0
H523 H 0.07051 0.20146 0.7942 0.0
H524 H 0.26366 0.51387 0.75649 0.0
H525 H 0.25164 0.47256 0.7174 0.0
H526 H 0.27336 0.50678 0.8098 0.0
H527 H 0.23566 0.46121 0.84648 0.0
C528 C 0.15721 0.85947 0.79844 0.0
C529 C 0.19512 0.84097 0.81688 0.0
C530 C 0.22834 0.8184 0.76073 0.0
C531 C 0.20377 0.85225 0.74313 0.0
N532 N 0.14193 0.90336 0.74509 0.0
N533 N 0.25604 0.78997 0.81651 0.0
C534 C 0.166 0.87097 0.76181 0.0
C535 C 0.22657 0.81537 0.79816 0.0
N536 N 0.11281 0.86583 0.81616 0.0
N537 N 0.25417 0.79048 0.74152 0.0
H538 H 0.25205 0.78512 0.84368 0.0
H539 H 0.28435 0.77451 0.80533 0.0
H540 H 0.25528 0.79244 0.71426 0.0
H541 H 0.27051 0.76235 0.75203 0.0
H542 H 0.08023 0.87495 0.80408 0.0
H543 H 0.10392 0.85366 0.84248 0.0
H544 H 0.12076 0.92498 0.75811 0.0
H545 H 0.14593 0.91136 0.71819 0.0
C546 C 0.60955 0.77695 0.75401 0.0
C547 C 0.65925 0.83099 0.73875 0.0
C548 C 0.68705 0.87753 0.79718 0.0
C549 C 0.6528 0.81728 0.81199 0.0
N550 N 0.58367 0.70676 0.80309 0.0
N551 N 0.74823 0.93397 0.74665 0.0
C552 C 0.6126 0.76628 0.79023 0.0
C553 C 0.69744 0.88287 0.76045 0.0
N554 N 0.56355 0.73344 0.73329 0.0
N555 N 0.71397 0.92841 0.81846 0.0
H556 H 0.75951 0.93668 0.72023 0.0
H557 H 0.78143 0.97059 0.76182 0.0
H558 H 0.70693 0.92401 0.84547 0.0
H559 H 0.73747 0.97412 0.80896 0.0
H560 H 0.52439 0.69388 0.74324 0.0
H561 H 0.5622 0.74134 0.70658 0.0
H562 H 0.55889 0.66742 0.78742 0.0
H563 H 0.58935 0.6968 0.8289 0.0
C564 C 0.30814 0.97116 1.02408 0.0
C565 C 0.24693 0.94764 1.01039 0.0
C566 C 0.24113 0.03363 0.04057 0.0
C567 C 0.30465 0.05964 0.05234 0.0
N568 N 0.4018 0.0574 0.04831 0.0
N569 N 0.1508 0.95027 1.00974 0.0
C570 C 0.33892 0.02966 0.04208 0.0
C571 C 0.21204 0.97703 1.02003 0.0
N572 N 0.33549 0.93481 1.02227 0.0
N573 N 0.21023 0.0658 0.04682 0.0
H574 H 0.12922 0.91006 0.99446 0.0
H575 H 0.11988 0.96489 1.0178 0.0
H576 H 0.23075 0.10854 0.05976 0.0
H577 H 0.16597 0.05329 0.03725 0.0
H578 H 0.37611 0.94482 0.03593 0.0
H579 H 0.31401 0.89117 1.01016 0.0
H580 H 0.43028 0.04282 0.03628 0.0
H581 H 0.42684 0.09696 0.06358 0.0
C582 C 0.82467 0.79879 0.5132 0.0
C583 C 0.80362 0.73366 0.51363 0.0
C584 C 0.71713 0.71615 0.55227 0.0
C585 C 0.73808 0.78157 0.553 0.0
N586 N 0.81698 0.8863 0.53691 0.0
N587 N 0.74259 0.63452 0.54195 0.0
C588 C 0.79328 0.82331 0.53402 0.0
C589 C 0.75405 0.69388 0.53593 0.0
N590 N 0.87559 0.83714 0.49324 0.0
N591 N 0.65915 0.67414 0.56465 0.0
H592 H 0.7688 0.61686 0.53027 0.0
H593 H 0.71154 0.60525 0.56104 0.0
H594 H 0.62804 0.68746 0.57378 0.0
H595 H 0.63878 0.62597 0.5616 0.0
H596 H 0.88989 0.88365 0.48778 0.0
H597 H 0.90327 0.82127 0.48153 0.0
H598 H 0.85979 0.91981 0.52655 0.0
H599 H 0.79531 0.90577 0.55147 0.0
C600 C 0.05666 0.32012 0.03105 0.0
C601 C 0.06279 0.2797 1.0075 0.0
C602 C 0.96914 0.19029 0.03455 0.0
C603 C 0.96376 0.23103 0.05889 0.0
N604 N 0.02775 0.32994 0.08913 0.0
N605 N 0.02907 0.17256 0.99149 0.0
C606 C 1.01435 0.29471 0.05967 0.0
C607 C 0.02081 0.21414 1.01069 0.0
N608 N 0.0921 0.38344 1.02682 0.0
N609 N 0.92746 0.12763 0.03516 0.0
H610 H 0.06621 0.18542 0.97413 0.0
H611 H 0.06621 0.18542 0.97413 0.0
H612 H 0.9292 0.09688 1.01711 0.0
H613 H 0.89293 0.10604 0.05417 0.0
H614 H 0.08358 0.41464 0.04081 0.0
H615 H 0.12648 0.40461 1.00759 0.0
H616 H 0.06666 0.37459 0.09137 0.0
H617 H 1.00898 0.31137 0.11327 0.0
C618 C 0.25725 0.03947 0.51456 0.0
C619 C 0.32387 0.07666 0.51128 0.0
C620 C 0.33286 0.99683 0.54613 0.0
C621 C 0.26689 0.96077 0.5501 0.0
N622 N 0.16585 0.94373 0.53073 0.0
N623 N 0.42295 0.09899 0.53729 0.0
C624 C 0.22919 0.98056 0.53219 0.0
C625 C 0.36121 0.05777 0.53077 0.0
N626 N 0.21957 0.06136 0.50237 0.0
N627 N 0.36875 0.97105 0.55516 0.0
H628 H 0.4446 0.14622 0.53116 0.0
H629 H 0.45036 0.08845 0.55364 0.0
H630 H 0.34957 0.92561 0.56489 0.0
H631 H 0.41602 0.99154 0.5487 0.0
H632 H 0.17073 0.03526 0.50381 0.0
H633 H 0.23699 0.10708 0.49364 0.0
H634 H 0.14166 0.89832 0.54063 0.0
H635 H 0.14166 0.89832 0.54063 0.0
C636 C 0.74743 0.75353 0.06112 0.0
C637 C 0.76386 0.70689 0.0549 0.0
C638 C 0.73078 0.70506 0.99357 0.0
C639 C 0.72499 0.75979 0.9994 0.0
N640 N 0.75583 0.84786 0.03816 0.0
N641 N 0.76612 0.63414 1.01407 0.0
C642 C 0.7424 0.78783 0.03283 0.0
C643 C 0.7548 0.68203 1.02063 0.0
N644 N 0.73071 0.76231 0.09349 0.0
N645 N 0.71219 0.67324 0.96285 0.0
H646 H 0.77293 0.60879 0.03368 0.0
H647 H 0.76883 0.61909 0.98911 0.0
H648 H 0.70549 0.69152 0.94011 0.0
H649 H 0.70316 0.62761 0.95975 0.0
H650 H 0.71304 0.79231 0.0976 0.0
H651 H 0.72474 0.73317 0.11446 0.0
H652 H 0.77112 0.86988 0.06235 0.0
H653 H 0.76133 0.8781 1.01771 0.0
C654 C 0.04445 0.33278 0.5414 0.0
C655 C 0.07714 0.30129 0.551 0.0
C656 C 0.99677 0.2076 0.51971 0.0
C657 C 0.96175 0.23825 0.51314 0.0
N658 N 0.94532 0.32434 0.52559 0.0
N659 N 0.0849 0.20787 0.54936 0.0
C660 C 0.98365 0.29912 0.52636 0.0
C661 C 0.05362 0.23839 0.53997 0.0
N662 N 0.07341 0.39622 0.5445 0.0
N663 N 0.97582 0.14938 0.50619 0.0
H664 H 0.12725 0.22959 0.56289 0.0
H665 H 0.06814 0.16057 0.54511 0.0
H666 H 0.93234 0.12438 0.49388 0.0
H667 H 1.00156 0.1264 0.50624 0.0
H668 H 0.05484 0.42248 0.53397 0.0
H669 H 0.11904 0.42309 0.55398 0.0
H670 H 0.95616 0.36572 0.53841 0.0
H671 H 0.90008 0.30068 0.51518 0.0
C672 C 0.57013 0.06857 0.11798 0.0
C673 C 0.62157 0.12158 0.13367 0.0
C674 C 0.548 0.14477 0.16417 0.0
C675 C 0.49766 0.09945 0.14364 0.0
N676 N 0.45863 0.01279 0.10383 0.0
N677 N 0.6601 0.21132 0.1715 0.0
C678 C 0.50787 0.05901 0.12171 0.0
C679 C 0.61058 0.15968 0.15692 0.0
N680 N 0.58105 0.02748 0.09968 0.0
N681 N 0.53537 0.17276 0.19129 0.0
H682 H 0.70668 0.22275 0.16818 0.0
H683 H 0.65548 0.24536 0.18499 0.0
H684 H 0.4899 0.16206 0.19764 0.0
H685 H 0.56867 0.20142 0.20957 0.0
H686 H 0.54588 0.98501 0.09001 0.0
H687 H 0.62603 0.03434 0.09584 0.0
H688 H 0.46317 0.9859 0.08443 0.0
H689 H 0.4125 1.00209 0.10794 0.0
C690 C 0.60669 0.50209 0.46032 0.0
C691 C 0.62863 0.52966 0.42709 0.0
C692 C 0.54349 0.43707 0.39927 0.0
C693 C 0.53035 0.40476 0.43174 0.0
N694 N 0.5524 0.40603 0.49356 0.0
N695 N 0.61912 0.52425 0.36438 0.0
C696 C 0.56176 0.43735 0.46261 0.0
C697 C 0.59686 0.49771 0.39637 0.0
N698 N 0.62943 0.53803 0.48959 0.0
N699 N 0.5039 0.4105 0.37153 0.0
H700 H 0.65609 0.56987 0.3615 0.0
H701 H 0.60299 0.50006 0.34092 0.0
H702 H 0.46266 0.36746 0.37329 0.0
H703 H 0.50818 0.43396 0.3481 0.0
H704 H 0.61176 0.52229 0.5146 0.0
H705 H 0.66145 0.58582 0.48809 0.0
H706 H 0.57931 0.42631 0.51583 0.0
H707 H 0.52138 0.35835 0.49644 0.0
C708 C 0.84621 0.3877 0.17331 0.0
C709 C 0.89337 0.38675 0.15243 0.0
C710 C 0.91543 0.48611 0.12557 0.0
C711 C 0.86159 0.48099 0.14226 0.0
N712 N 0.76902 0.42053 0.17751 0.0
N713 N 0.96813 0.43171 0.10526 0.0
C714 C 0.82542 0.43037 0.16519 0.0
C715 C 0.9273 0.43542 0.12785 0.0
N716 N 0.82067 0.34709 0.20076 0.0
N717 N 0.95635 0.53995 0.1085 0.0
H718 H 0.9785 0.39584 0.10633 0.0
H719 H 0.98812 0.4617 0.08399 0.0
H720 H 0.94998 0.57856 0.10671 0.0
H721 H 0.99958 0.54846 0.09901 0.0
H722 H 0.79083 0.3499 0.21904 0.0
H723 H 0.83391 0.31425 0.20714 0.0
H724 H 0.73774 0.38057 0.19134 0.0
H725 H 0.75006 0.44863 0.17073 0.0
C726 C 0.52166 0.08526 0.45399 0.0
C727 C 0.50424 0.10126 0.42197 0.0
C728 C 0.60798 0.13119 0.39804 0.0
C729 C 0.62954 0.12924 0.43225 0.0
N730 N 0.60656 0.10371 0.49344 0.0
N731 N 0.52994 0.13814 0.36263 0.0
C732 C 0.58602 0.10471 0.46035 0.0
C733 C 0.54697 0.12297 0.39356 0.0
N734 N 0.47671 0.05203 0.47834 0.0
N735 N 0.64509 0.13899 0.36973 0.0
H736 H 0.48458 0.12962 0.35798 0.0
H737 H 0.56135 0.1618 0.34241 0.0
H738 H 0.68888 0.14223 0.37191 0.0
H739 H 0.62976 0.13524 0.34398 0.0
H740 H 0.48536 0.03374 0.50086 0.0
H741 H 0.42947 0.03712 0.47395 0.0
H742 H 0.57833 0.09305 0.51555 0.0
H743 H 0.65319 0.11794 0.49922 0.0
C744 C 0.54464 0.43465 0.10412 0.0
C745 C 0.51256 0.39647 0.13345 0.0
C746 C 0.57609 0.48412 0.17296 0.0
C747 C 0.60898 0.52144 0.14382 0.0
N748 N 0.61342 0.53962 0.08188 0.0
N749 N 0.48333 0.39166 0.19409 0.0
C750 C 0.58892 0.49913 0.10943 0.0
C751 C 0.52377 0.42343 0.1674 0.0
N752 N 0.53654 0.40878 0.07164 0.0
N753 N 0.59654 0.50576 0.20598 0.0
H754 H 0.44279 0.34862 0.19045 0.0
H755 H 0.4861 0.41084 0.21869 0.0
H756 H 0.63279 0.5512 0.21076 0.0
H757 H 0.57973 0.4779 0.22828 0.0
H758 H 0.56395 0.43282 0.05012 0.0
H759 H 0.50569 0.36178 0.06654 0.0
H760 H 0.5973 0.52798 0.05629 0.0
H761 H 0.64566 0.58695 0.08537 0.0
C762 C 0.88729 0.47325 0.39692 0.0
C763 C 0.89601 0.50247 0.43006 0.0
C764 C 0.94387 0.44191 0.45142 0.0
C765 C 0.92148 0.40349 0.42148 0.0
N766 N 0.86854 0.38037 0.3658 0.0
N767 N 0.92958 0.51084 0.49035 0.0
C768 C 0.89258 0.41878 0.39411 0.0
C769 C 0.92458 0.48669 0.45765 0.0
N770 N 0.87679 0.49901 0.36781 0.0
N771 N 0.98318 0.43526 0.47395 0.0
H772 H 0.9138 0.54164 0.49665 0.0
H773 H 0.94412 0.49576 0.51207 0.0
H774 H 0.99846 0.40334 0.46944 0.0
H775 H 1.00561 0.46574 0.49464 0.0
H776 H 0.87496 0.48213 0.34264 0.0
H777 H 0.87804 0.54183 0.36819 0.0
H778 H 0.84042 0.3853 0.3471 0.0
H779 H 0.87351 0.34122 0.36225 0.0
C780 C 0.18796 0.61729 0.66416 0.0
C781 C 0.1594 0.63518 0.63774 0.0
C782 C 0.09439 0.52515 0.6204 0.0
C783 C 0.12364 0.50814 0.64683 0.0
N784 N 0.17844 0.53374 0.70154 0.0
N785 N 0.07428 0.60497 0.59675 0.0
C786 C 0.16389 0.55306 0.67126 0.0
C787 C 0.10923 0.58876 0.61753 0.0
N788 N 0.24047 0.66127 0.68111 0.0
N789 N 0.05357 0.48099 0.59773 0.0
H790 H 0.08289 0.65067 0.59452 0.0
H791 H 0.03348 0.57262 0.58403 0.0
H792 H 0.03776 0.43356 0.60111 0.0
H793 H 0.03667 0.49141 0.57522 0.0
H794 H 0.26626 0.64991 0.69826 0.0
H795 H 0.26241 0.70884 0.67526 0.0
H796 H 0.20345 0.56395 0.72191 0.0
H797 H 0.15859 0.48639 0.7077 0.0
C798 C 0.41568 0.87613 0.88583 0.0
C799 C 0.40531 0.9085 0.91295 0.0
C800 C 0.49745 0.91875 0.94393 0.0
C801 C 0.49902 0.87535 0.92024 0.0
N802 N 0.45352 0.80609 0.87074 0.0
N803 N 0.43863 0.96558 0.96705 0.0
C804 C 0.45703 0.85278 0.89145 0.0
C805 C 0.44739 0.93206 0.94164 0.0
N806 N 0.38608 0.8684 0.8545 0.0
N807 N 0.54468 0.9486 0.96774 0.0
H808 H 0.40585 0.98032 0.96473 0.0
H809 H 0.46264 0.97744 0.99076 0.0
H810 H 0.58225 0.94042 0.96982 0.0
H811 H 0.54964 0.98514 0.98343 0.0
H812 H 0.39584 0.84988 0.83253 0.0
H813 H 0.35737 0.88759 0.84965 0.0
H814 H 0.41921 0.78396 0.85162 0.0
H815 H 0.4803 0.78467 0.87498 0.0
C816 C 0.50638 0.58172 0.65899 0.0
C817 C 0.52693 0.63157 0.63464 0.0
C818 C 0.42488 0.57753 0.60473 0.0
C819 C 0.40525 0.52688 0.62826 0.0
N820 N 0.43055 0.47382 0.67286 0.0
N821 N 0.51023 0.67084 0.57968 0.0
C822 C 0.44716 0.52679 0.65384 0.0
C823 C 0.48773 0.62722 0.60593 0.0
N824 N 0.54128 0.58829 0.68818 0.0
N825 N 0.38238 0.58081 0.58294 0.0
H826 H 0.55435 0.71072 0.57993 0.0
H827 H 0.48678 0.66504 0.55606 0.0
H828 H 0.3355 0.54595 0.58124 0.0
H829 H 0.39202 0.62067 0.56871 0.0
H830 H 0.52519 0.55669 0.70895 0.0
H831 H 0.58465 0.62781 0.69297 0.0
H832 H 0.46126 0.46869 0.6895 0.0
H833 H 0.38771 0.43277 0.66953 0.0
C834 C 0.09816 0.57397 0.94867 0.0
C835 C 0.14046 0.61957 0.92448 0.0
C836 C 0.13777 0.53566 0.88909 0.0
C837 C 0.10373 0.49135 0.91561 0.0
N838 N 0.05401 0.46853 0.97205 0.0
N839 N 0.20534 0.64254 0.87272 0.0
C840 C 0.08395 0.51042 0.94568 0.0
C841 C 0.16114 0.59993 0.89497 0.0
N842 N 0.06946 0.59059 0.97355 0.0
N843 N 0.15089 0.51783 0.85805 0.0
H844 H 0.23002 0.69037 0.87765 0.0
H845 H 0.2209 0.62933 0.85068 0.0
H846 H 0.13378 0.47127 0.85104 0.0
H847 H 0.13378 0.47127 0.85104 0.0
H848 H 0.03366 0.55841 0.9896 0.0
H849 H 0.07723 0.63592 0.97608 0.0
H850 H 0.0456 0.4811 0.99656 0.0
H851 H 0.04028 0.42132 0.96985 0.0
C852 C 0.42784 0.88578 0.67319 0.0
C853 C 0.41995 0.92722 0.65098 0.0
C854 C 0.51195 0.94586 0.61688 0.0
C855 C 0.51389 0.89755 0.63606 0.0
N856 N 0.47338 0.81953 0.68184 0.0
N857 N 0.46894 0.01525 0.61179 0.0
C858 C 0.47243 0.86764 0.66448 0.0
C859 C 0.46639 0.96311 0.62576 0.0
N860 N 0.39346 0.86568 0.70327 0.0
N861 N 0.55219 0.97355 0.58947 0.0
H862 H 0.43834 0.03078 0.61907 0.0
H863 H 0.50508 0.04682 0.59573 0.0
H864 H 0.58704 0.96301 0.58295 0.0
H865 H 0.54881 1.00395 0.57184 0.0
H866 H 0.39947 0.83901 0.72239 0.0
H867 H 0.3634 0.88203 0.7107 0.0
H868 H 0.43986 0.7913 0.70018 0.0
H869 H 0.50509 0.80441 0.67612 0.0
C870 C 0.45613 0.60944 0.8889 0.0
C871 C 0.50822 0.61081 0.90621 0.0
C872 C 0.43644 0.50898 0.93314 0.0
C873 C 0.38475 0.51225 0.9192 0.0
N874 N 0.34429 0.57019 0.88864 0.0
N875 N 0.54607 0.56553 0.9493 0.0
C876 C 0.39429 0.56343 0.89813 0.0
C877 C 0.49809 0.56115 0.92924 0.0
N878 N 0.46564 0.65288 0.8638 0.0
N879 N 0.42675 0.45571 0.94966 0.0
H880 H 0.59163 0.60276 0.94759 0.0
H881 H 0.53976 0.53463 0.96957 0.0
H882 H 0.38212 0.41734 0.95369 0.0
H883 H 0.46301 0.44776 0.95692 0.0
H884 H 0.43044 0.64928 0.84714 0.0
H885 H 0.50952 0.69042 0.8578 0.0
H886 H 0.34881 0.61026 0.87676 0.0
H887 H 0.29816 0.53851 0.89574 0.0
loop_
_geom_bond_atom_site_label_1
_geom_bond_atom_site_label_2
_geom_bond_distance
_geom_bond_site_symmetry_2
_ccdc_geom_bond_type
Dy0 O4 2.398 . S
Dy0 O5 2.491 . S
Dy0 O6 2.403 . S
Dy0 O7 2.664 . S
Dy0 O11 2.326 . S
Dy0 O15 2.310 . S
Dy0 O16 2.351 . S
C1 O12 1.185 . S
C1 O13 1.355 . S
C2 O4 1.185 . S
C2 O5 1.355 . S
Dy3 O7 2.310 . S
Dy3 O10 2.351 . S
Dy3 O12 2.398 1_545 S
Dy3 O13 2.491 1_545 S
Dy3 O14 2.403 . S
Dy3 O15 2.664 . S
Dy3 O17 2.326 . S
O4 Dy0 2.398 . S
O4 C2 1.185 . S
O5 Dy0 2.491 . S
O5 C2 1.355 . S
O6 Dy0 2.403 . S
O6 C8 1.254 . S
O7 Dy0 2.664 . S
O7 Dy3 2.310 . S
O7 C8 1.268 . S
C8 O6 1.254 . S
C8 O7 1.268 . S
C9 O14 1.254 . S
C9 O15 1.268 . S
O10 Dy3 2.351 . S
O10 C18 1.249 . S
O11 Dy0 2.326 . S
O11 C18 1.267 . S
O12 C1 1.185 . S
O12 Dy3 2.398 1_565 S
O13 C1 1.355 . S
O13 Dy3 2.491 1_565 S
O14 Dy3 2.403 . S
O14 C9 1.254 . S
O15 Dy0 2.310 . S
O15 Dy3 2.664 . S
O15 C9 1.268 . S
O16 Dy0 2.351 . S
O16 C19 1.249 . S
O17 Dy3 2.326 . S
O17 C19 1.267 . S
C18 O10 1.249 . S
C18 O11 1.267 . S
C19 O16 1.249 . S
C19 O17 1.267 . S
Dy20 O24 2.398 . S
Dy20 O25 2.491 . S
Dy20 O26 2.403 . S
Dy20 O27 2.664 . S
Dy20 O31 2.326 . S
Dy20 O35 2.310 . S
Dy20 O36 2.351 . S
C21 O32 1.185 . S
C21 O33 1.355 . S
C22 O24 1.185 . S
C22 O25 1.355 . S
Dy23 O27 2.310 . S
Dy23 O30 2.351 . S
Dy23 O32 2.398 . S
Dy23 O33 2.491 . S
Dy23 O34 2.403 . S
Dy23 O35 2.664 . S
Dy23 O37 2.326 . S
O24 Dy20 2.398 . S
O24 C22 1.185 . S
O25 Dy20 2.491 . S
O25 C22 1.355 . S
O26 Dy20 2.403 . S
O26 C28 1.254 . S
O27 Dy20 2.664 . S
O27 Dy23 2.310 . S
O27 C28 1.268 . S
C28 O26 1.254 . S
C28 O27 1.268 . S
C29 O34 1.254 . S
C29 O35 1.268 . S
O30 Dy23 2.351 . S
O30 C38 1.249 . S
O31 Dy20 2.326 . S
O31 C38 1.267 . S
O32 C21 1.185 . S
O32 Dy23 2.398 . S
O33 C21 1.355 . S
O33 Dy23 2.491 . S
O34 Dy23 2.403 . S
O34 C29 1.254 . S
O35 Dy20 2.310 . S
O35 Dy23 2.664 . S
O35 C29 1.268 . S
O36 Dy20 2.351 . S
O36 C39 1.249 . S
O37 Dy23 2.326 . S
O37 C39 1.267 . S
C38 O30 1.249 . S
C38 O31 1.267 . S
C39 O36 1.249 . S
C39 O37 1.267 . S
Dy40 O44 2.398 . S
Dy40 O45 2.491 . S
Dy40 O46 2.403 . S
Dy40 O47 2.664 . S
Dy40 O51 2.326 . S
Dy40 O55 2.310 . S
Dy40 O56 2.351 . S
C41 O52 1.185 . S
C41 O53 1.355 . S
C42 O44 1.185 . S
C42 O45 1.355 . S
Dy43 O47 2.310 . S
Dy43 O50 2.351 . S
Dy43 O52 2.398 1_655 S
Dy43 O53 2.491 1_655 S
Dy43 O54 2.403 . S
Dy43 O55 2.664 . S
Dy43 O57 2.326 . S
O44 Dy40 2.398 . S
O44 C42 1.185 . S
O45 Dy40 2.491 . S
O45 C42 1.355 . S
O46 Dy40 2.403 . S
O46 C48 1.254 . S
O47 Dy40 2.664 . S
O47 Dy43 2.310 . S
O47 C48 1.268 . S
C48 O46 1.254 . S
C48 O47 1.268 . S
C49 O54 1.254 . S
C49 O55 1.268 . S
O50 Dy43 2.351 . S
O50 C58 1.249 . S
O51 Dy40 2.326 . S
O51 C58 1.267 . S
O52 C41 1.185 . S
O52 Dy43 2.398 1_455 S
O53 C41 1.355 . S
O53 Dy43 2.491 1_455 S
O54 Dy43 2.403 . S
O54 C49 1.254 . S
O55 Dy40 2.310 . S
O55 Dy43 2.664 . S
O55 C49 1.268 . S
O56 Dy40 2.351 . S
O56 C59 1.249 . S
O57 Dy43 2.326 . S
O57 C59 1.267 . S
C58 O50 1.249 . S
C58 O51 1.267 . S
C59 O56 1.249 . S
C59 O57 1.267 . S
Dy60 O64 2.398 1_545 S
Dy60 O65 2.491 1_545 S
Dy60 O66 2.403 . S
Dy60 O67 2.664 . S
Dy60 O71 2.326 . S
Dy60 O75 2.310 . S
Dy60 O76 2.351 . S
C61 O72 1.185 . S
C61 O73 1.355 . S
C62 O64 1.185 . S
C62 O65 1.355 . S
Dy63 O67 2.310 . S
Dy63 O70 2.351 . S
Dy63 O72 2.398 . S
Dy63 O73 2.491 . S
Dy63 O74 2.403 . S
Dy63 O75 2.664 . S
Dy63 O77 2.326 . S
O64 Dy60 2.398 1_565 S
O64 C62 1.185 . S
O65 Dy60 2.491 1_565 S
O65 C62 1.355 . S
O66 Dy60 2.403 . S
O66 C68 1.254 . S
O67 Dy60 2.664 . S
O67 Dy63 2.310 . S
O67 C68 1.268 . S
C68 O66 1.254 . S
C68 O67 1.268 . S
C69 O74 1.254 . S
C69 O75 1.268 . S
O70 Dy63 2.351 . S
O70 C78 1.249 . S
O71 Dy60 2.326 . S
O71 C78 1.267 . S
O72 C61 1.185 . S
O72 Dy63 2.398 . S
O73 C61 1.355 . S
O73 Dy63 2.491 . S
O74 Dy63 2.403 . S
O74 C69 1.254 . S
O75 Dy60 2.310 . S
O75 Dy63 2.664 . S
O75 C69 1.268 . S
O76 Dy60 2.351 . S
O76 C79 1.249 . S
O77 Dy63 2.326 . S
O77 C79 1.267 . S
C78 O70 1.249 . S
C78 O71 1.267 . S
C79 O76 1.249 . S
C79 O77 1.267 . S
Dy80 O84 2.398 . S
Dy80 O85 2.491 . S
Dy80 O86 2.403 . S
Dy80 O87 2.664 . S
Dy80 O91 2.326 . S
Dy80 O95 2.310 . S
Dy80 O96 2.351 . S
C81 O92 1.185 . S
C81 O93 1.355 . S
C82 O84 1.185 . S
C82 O85 1.355 . S
Dy83 O87 2.310 . S
Dy83 O90 2.351 . S
Dy83 O92 2.398 . S
Dy83 O93 2.491 . S
Dy83 O94 2.403 . S
Dy83 O95 2.664 . S
Dy83 O97 2.326 . S
O84 Dy80 2.398 . S
O84 C82 1.185 . S
O85 Dy80 2.491 . S
O85 C82 1.355 . S
O86 Dy80 2.403 . S
O86 C88 1.254 . S
O87 Dy80 2.664 . S
O87 Dy83 2.310 . S
O87 C88 1.268 . S
C88 O86 1.254 . S
C88 O87 1.268 . S
C89 O94 1.254 . S
C89 O95 1.268 . S
O90 Dy83 2.351 . S
O90 C98 1.249 . S
O91 Dy80 2.326 . S
O91 C98 1.267 . S
O92 C81 1.185 . S
O92 Dy83 2.398 . S
O93 C81 1.355 . S
O93 Dy83 2.491 . S
O94 Dy83 2.403 . S
O94 C89 1.254 . S
O95 Dy80 2.310 . S
O95 Dy83 2.664 . S
O95 C89 1.268 . S
O96 Dy80 2.351 . S
O96 C99 1.249 . S
O97 Dy83 2.326 . S
O97 C99 1.267 . S
C98 O90 1.249 . S
C98 O91 1.267 . S
C99 O96 1.249 . S
C99 O97 1.267 . S
Dy100 O104 2.398 1_655 S
Dy100 O105 2.491 1_655 S
Dy100 O106 2.403 . S
Dy100 O107 2.664 . S
Dy100 O111 2.326 . S
Dy100 O115 2.310 . S
Dy100 O116 2.351 . S
C101 O112 1.185 . S
C101 O113 1.355 . S
C102 O104 1.185 . S
C102 O105 1.355 . S
Dy103 O107 2.310 . S
Dy103 O110 2.351 . S
Dy103 O112 2.398 . S
Dy103 O113 2.491 . S
Dy103 O114 2.403 . S
Dy103 O115 2.664 . S
Dy103 O117 2.326 . S
O104 Dy100 2.398 1_455 S
O104 C102 1.185 . S
O105 Dy100 2.491 1_455 S
O105 C102 1.355 . S
O106 Dy100 2.403 . S
O106 C108 1.254 . S
O107 Dy100 2.664 . S
O107 Dy103 2.310 . S
O107 C108 1.268 . S
C108 O106 1.254 . S
C108 O107 1.268 . S
C109 O114 1.254 . S
C109 O115 1.268 . S
O110 Dy103 2.351 . S
O110 C118 1.249 . S
O111 Dy100 2.326 . S
O111 C118 1.267 . S
O112 C101 1.185 . S
O112 Dy103 2.398 . S
O113 C101 1.355 . S
O113 Dy103 2.491 . S
O114 Dy103 2.403 . S
O114 C109 1.254 . S
O115 Dy100 2.310 . S
O115 Dy103 2.664 . S
O115 C109 1.268 . S
O116 Dy100 2.351 . S
O116 C119 1.249 . S
O117 Dy103 2.326 . S
O117 C119 1.267 . S
C118 O110 1.249 . S
C118 O111 1.267 . S
C119 O116 1.249 . S
C119 O117 1.267 . S
Dy120 O124 2.398 1_455 S
Dy120 O125 2.491 1_455 S
Dy120 O126 2.403 . S
Dy120 O127 2.664 . S
Dy120 O131 2.326 . S
Dy120 O135 2.310 . S
Dy120 O136 2.351 . S
C121 O132 1.185 . S
C121 O133 1.355 . S
C122 O124 1.185 . S
C122 O125 1.355 . S
Dy123 O127 2.310 . S
Dy123 O130 2.351 . S
Dy123 O132 2.398 . S
Dy123 O133 2.491 . S
Dy123 O134 2.403 . S
Dy123 O135 2.664 . S
Dy123 O137 2.326 . S
O124 Dy120 2.398 1_655 S
O124 C122 1.185 . S
O125 Dy120 2.491 1_655 S
O125 C122 1.355 . S
O126 Dy120 2.403 . S
O126 C128 1.254 . S
O127 Dy120 2.664 . S
O127 Dy123 2.310 . S
O127 C128 1.268 . S
C128 O126 1.254 . S
C128 O127 1.268 . S
C129 O134 1.254 . S
C129 O135 1.268 . S
O130 Dy123 2.351 . S
O130 C138 1.249 . S
O131 Dy120 2.326 . S
O131 C138 1.267 . S
O132 C121 1.185 . S
O132 Dy123 2.398 . S
O133 C121 1.355 . S
O133 Dy123 2.491 . S
O134 Dy123 2.403 . S
O134 C129 1.254 . S
O135 Dy120 2.310 . S
O135 Dy123 2.664 . S
O135 C129 1.268 . S
O136 Dy120 2.351 . S
O136 C139 1.249 . S
O137 Dy123 2.326 . S
O137 C139 1.267 . S
C138 O130 1.249 . S
C138 O131 1.267 . S
C139 O136 1.249 . S
C139 O137 1.267 . S
Dy140 O144 2.398 . S
Dy140 O145 2.491 . S
Dy140 O146 2.403 . S
Dy140 O147 2.664 . S
Dy140 O151 2.326 . S
Dy140 O155 2.310 . S
Dy140 O156 2.351 . S
C141 O152 1.185 . S
C141 O153 1.355 . S
C142 O144 1.185 . S
C142 O145 1.355 . S
Dy143 O147 2.310 . S
Dy143 O150 2.351 . S
Dy143 O152 2.398 1_565 S
Dy143 O153 2.491 1_565 S
Dy143 O154 2.403 . S
Dy143 O155 2.664 . S
Dy143 O157 2.326 . S
O144 Dy140 2.398 . S
O144 C142 1.185 . S
O145 Dy140 2.491 . S
O145 C142 1.355 . S
O146 Dy140 2.403 . S
O146 C148 1.254 . S
O147 Dy140 2.664 . S
O147 Dy143 2.310 . S
O147 C148 1.268 . S
C148 O146 1.254 . S
C148 O147 1.268 . S
C149 O154 1.254 . S
C149 O155 1.268 . S
O150 Dy143 2.351 . S
O150 C158 1.249 . S
O151 Dy140 2.326 . S
O151 C158 1.267 . S
O152 C141 1.185 . S
O152 Dy143 2.398 1_545 S
O153 C141 1.355 . S
O153 Dy143 2.491 1_545 S
O154 Dy143 2.403 . S
O154 C149 1.254 . S
O155 Dy140 2.310 . S
O155 Dy143 2.664 . S
O155 C149 1.268 . S
O156 Dy140 2.351 . S
O156 C159 1.249 . S
O157 Dy143 2.326 . S
O157 C159 1.267 . S
C158 O150 1.249 . S
C158 O151 1.267 . S
C159 O156 1.249 . S
C159 O157 1.267 . S
Dy160 O164 2.398 . S
Dy160 O165 2.491 . S
Dy160 O166 2.403 . S
Dy160 O167 2.664 . S
Dy160 O171 2.326 . S
Dy160 O175 2.310 . S
Dy160 O176 2.351 . S
C161 O172 1.185 . S
C161 O173 1.355 . S
C162 O164 1.185 . S
C162 O165 1.355 . S
Dy163 O167 2.310 . S
Dy163 O170 2.351 . S
Dy163 O172 2.398 . S
Dy163 O173 2.491 . S
Dy163 O174 2.403 . S
Dy163 O175 2.664 . S
Dy163 O177 2.326 . S
O164 Dy160 2.398 . S
O164 C162 1.185 . S
O165 Dy160 2.491 . S
O165 C162 1.355 . S
O166 Dy160 2.403 . S
O166 C168 1.254 . S
O167 Dy160 2.664 . S
O167 Dy163 2.310 . S
O167 C168 1.268 . S
C168 O166 1.254 . S
C168 O167 1.268 . S
C169 O174 1.254 . S
C169 O175 1.268 . S
O170 Dy163 2.351 . S
O170 C178 1.249 . S
O171 Dy160 2.326 . S
O171 C178 1.267 . S
O172 C161 1.185 . S
O172 Dy163 2.398 . S
O173 C161 1.355 . S
O173 Dy163 2.491 . S
O174 Dy163 2.403 . S
O174 C169 1.254 . S
O175 Dy160 2.310 . S
O175 Dy163 2.664 . S
O175 C169 1.268 . S
O176 Dy160 2.351 . S
O176 C179 1.249 . S
O177 Dy163 2.326 . S
O177 C179 1.267 . S
C178 O170 1.249 . S
C178 O171 1.267 . S
C179 O176 1.249 . S
C179 O177 1.267 . S
Dy180 O184 2.398 . S
Dy180 O185 2.491 . S
Dy180 O186 2.403 . S
Dy180 O187 2.664 . S
Dy180 O191 2.326 . S
Dy180 O195 2.310 . S
Dy180 O196 2.351 . S
C181 O192 1.185 . S
C181 O193 1.355 . S
C182 O184 1.185 . S
C182 O185 1.355 . S
Dy183 O187 2.310 . S
Dy183 O190 2.351 . S
Dy183 O192 2.398 1_455 S
Dy183 O193 2.491 1_455 S
Dy183 O194 2.403 . S
Dy183 O195 2.664 . S
Dy183 O197 2.326 . S
O184 Dy180 2.398 . S
O184 C182 1.185 . S
O185 Dy180 2.491 . S
O185 C182 1.355 . S
O186 Dy180 2.403 . S
O186 C188 1.254 . S
O187 Dy180 2.664 . S
O187 Dy183 2.310 . S
O187 C188 1.268 . S
C188 O186 1.254 . S
C188 O187 1.268 . S
C189 O194 1.254 . S
C189 O195 1.268 . S
O190 Dy183 2.351 . S
O190 C198 1.249 . S
O191 Dy180 2.326 . S
O191 C198 1.267 . S
O192 C181 1.185 . S
O192 Dy183 2.398 1_655 S
O193 C181 1.355 . S
O193 Dy183 2.491 1_655 S
O194 Dy183 2.403 . S
O194 C189 1.254 . S
O195 Dy180 2.310 . S
O195 Dy183 2.664 . S
O195 C189 1.268 . S
O196 Dy180 2.351 . S
O196 C199 1.249 . S
O197 Dy183 2.326 . S
O197 C199 1.267 . S
C198 O190 1.249 . S
C198 O191 1.267 . S
C199 O196 1.249 . S
C199 O197 1.267 . S
Dy200 O204 2.398 1_565 S
Dy200 O205 2.491 1_565 S
Dy200 O206 2.403 . S
Dy200 O207 2.664 . S
Dy200 O211 2.326 . S
Dy200 O215 2.310 . S
Dy200 O216 2.351 . S
C201 O212 1.185 . S
C201 O213 1.355 . S
C202 O204 1.185 . S
C202 O205 1.355 . S
Dy203 O207 2.310 . S
Dy203 O210 2.351 . S
Dy203 O212 2.398 . S
Dy203 O213 2.491 . S
Dy203 O214 2.403 . S
Dy203 O215 2.664 . S
Dy203 O217 2.326 . S
O204 Dy200 2.398 1_545 S
O204 C202 1.185 . S
O205 Dy200 2.491 1_545 S
O205 C202 1.355 . S
O206 Dy200 2.403 . S
O206 C208 1.254 . S
O207 Dy200 2.664 . S
O207 Dy203 2.310 . S
O207 C208 1.268 . S
C208 O206 1.254 . S
C208 O207 1.268 . S
C209 O214 1.254 . S
C209 O215 1.268 . S
O210 Dy203 2.351 . S
O210 C218 1.249 . S
O211 Dy200 2.326 . S
O211 C218 1.267 . S
O212 C201 1.185 . S
O212 Dy203 2.398 . S
O213 C201 1.355 . S
O213 Dy203 2.491 . S
O214 Dy203 2.403 . S
O214 C209 1.254 . S
O215 Dy200 2.310 . S
O215 Dy203 2.664 . S
O215 C209 1.268 . S
O216 Dy200 2.351 . S
O216 C219 1.249 . S
O217 Dy203 2.326 . S
O217 C219 1.267 . S
C218 O210 1.249 . S
C218 O211 1.267 . S
C219 O216 1.249 . S
C219 O217 1.267 . S
Dy220 O224 2.398 . S
Dy220 O225 2.491 . S
Dy220 O226 2.403 . S
Dy220 O227 2.664 . S
Dy220 O231 2.326 . S
Dy220 O235 2.310 . S
Dy220 O236 2.351 . S
C221 O232 1.185 . S
C221 O233 1.355 . S
C222 O224 1.185 . S
C222 O225 1.355 . S
Dy223 O227 2.310 . S
Dy223 O230 2.351 . S
Dy223 O232 2.398 . S
Dy223 O233 2.491 . S
Dy223 O234 2.403 . S
Dy223 O235 2.664 . S
Dy223 O237 2.326 . S
O224 Dy220 2.398 . S
O224 C222 1.185 . S
O225 Dy220 2.491 . S
O225 C222 1.355 . S
O226 Dy220 2.403 . S
O226 C228 1.254 . S
O227 Dy220 2.664 . S
O227 Dy223 2.310 . S
O227 C228 1.268 . S
C228 O226 1.254 . S
C228 O227 1.268 . S
C229 O234 1.254 . S
C229 O235 1.268 . S
O230 Dy223 2.351 . S
O230 C238 1.249 . S
O231 Dy220 2.326 . S
O231 C238 1.267 . S
O232 C221 1.185 . S
O232 Dy223 2.398 . S
O233 C221 1.355 . S
O233 Dy223 2.491 . S
O234 Dy223 2.403 . S
O234 C229 1.254 . S
O235 Dy220 2.310 . S
O235 Dy223 2.664 . S
O235 C229 1.268 . S
O236 Dy220 2.351 . S
O236 C239 1.249 . S
O237 Dy223 2.326 . S
O237 C239 1.267 . S
C238 O230 1.249 . S
C238 O231 1.267 . S
C239 O236 1.249 . S
C239 O237 1.267 . S
C240 C241 1.363 . S
C240 C246 1.379 . S
C240 N248 1.356 . S
C241 C240 1.363 . S
C241 C247 1.363 . S
C242 C243 1.363 . S
C242 C247 1.379 . S
C242 N249 1.356 . S
C243 C242 1.363 . S
C243 C246 1.363 . S
N244 C246 1.356 . S
N244 H256 0.984 . S
N244 H257 0.985 . S
N245 C247 1.356 . S
N245 H250 0.984 . S
N245 H251 0.985 . S
C246 C240 1.379 . S
C246 C243 1.363 . S
C246 N244 1.356 . S
C247 C241 1.363 . S
C247 C242 1.379 . S
C247 N245 1.356 . S
N248 C240 1.356 . S
N248 H254 0.984 . S
N248 H255 0.984 . S
N249 C242 1.356 . S
N249 H252 0.984 . S
N249 H253 0.985 . S
H250 N245 0.984 . S
H251 N245 0.985 . S
H252 N249 0.984 . S
H253 N249 0.985 . S
H254 N248 0.984 . S
H255 N248 0.984 . S
H256 N244 0.984 . S
H257 N244 0.985 . S
C258 C259 1.363 . S
C258 C264 1.379 . S
C258 N266 1.356 . S
C259 C258 1.363 . S
C259 C265 1.363 . S
C260 C261 1.363 . S
C260 C265 1.379 1_655 S
C260 N267 1.356 . S
C261 C260 1.363 . S
C261 C264 1.363 1_655 S
N262 C264 1.356 1_655 S
N262 H274 0.984 . S
N262 H275 0.985 . S
N263 C265 1.356 . S
N263 H268 0.984 . S
N263 H269 0.985 . S
C264 C258 1.379 . S
C264 C261 1.363 1_455 S
C264 N262 1.356 1_455 S
C265 C259 1.363 . S
C265 C260 1.379 1_455 S
C265 N263 1.356 . S
N266 C258 1.356 . S
N266 H272 0.984 . S
N266 H273 0.984 . S
N267 C260 1.356 . S
N267 H270 0.984 . S
N267 H271 0.985 . S
H268 N263 0.984 . S
H269 N263 0.985 . S
H270 N267 0.984 . S
H271 N267 0.985 . S
H272 N266 0.984 . S
H273 N266 0.984 . S
H274 N262 0.984 . S
H275 N262 0.985 . S
C276 C277 1.363 1_565 S
C276 C282 1.379 . S
C276 N284 1.356 1_565 S
C277 C276 1.363 1_545 S
C277 C283 1.363 . S
C278 C279 1.363 . S
C278 C283 1.379 1_565 S
C278 N285 1.356 . S
C279 C278 1.363 . S
C279 C282 1.363 . S
N280 C282 1.356 . S
N280 H292 0.984 . S
N280 H293 0.985 . S
N281 C283 1.356 . S
N281 H286 0.984 . S
N281 H287 0.985 . S
C282 C276 1.379 . S
C282 C279 1.363 . S
C282 N280 1.356 . S
C283 C277 1.363 . S
C283 C278 1.379 1_545 S
C283 N281 1.356 . S
N284 C276 1.356 1_545 S
N284 H290 0.984 1_545 S
N284 H291 0.984 . S
N285 C278 1.356 . S
N285 H288 0.984 . S
N285 H289 0.985 . S
H286 N281 0.984 . S
H287 N281 0.985 . S
H288 N285 0.984 . S
H289 N285 0.985 . S
H290 N284 0.984 1_565 S
H291 N284 0.984 . S
H292 N280 0.984 . S
H293 N280 0.985 . S
C294 C295 1.363 . S
C294 C300 1.379 . S
C294 N302 1.356 . S
C295 C294 1.363 . S
C295 C301 1.363 . S
C296 C297 1.363 . S
C296 C301 1.379 . S
C296 N303 1.356 . S
C297 C296 1.363 . S
C297 C300 1.363 . S
N298 C300 1.356 . S
N298 H310 0.984 . S
N298 H311 0.985 . S
N299 C301 1.356 . S
N299 H304 0.984 . S
N299 H305 0.985 . S
C300 C294 1.379 . S
C300 C297 1.363 . S
C300 N298 1.356 . S
C301 C295 1.363 . S
C301 C296 1.379 . S
C301 N299 1.356 . S
N302 C294 1.356 . S
N302 H308 0.984 . S
N302 H309 0.984 . S
N303 C296 1.356 . S
N303 H306 0.984 . S
N303 H307 0.985 . S
H304 N299 0.984 . S
H305 N299 0.985 . S
H306 N303 0.984 . S
H307 N303 0.985 . S
H308 N302 0.984 . S
H309 N302 0.984 . S
H310 N298 0.984 . S
H311 N298 0.985 . S
C312 C313 1.363 . S
C312 C318 1.379 . S
C312 N320 1.356 . S
C313 C312 1.363 . S
C313 C319 1.363 . S
C314 C315 1.362 1_455 S
C314 C319 1.386 . S
C314 N321 1.349 1_455 S
C315 C314 1.362 1_655 S
C315 C318 1.363 1_655 S
N316 C318 1.356 1_655 S
N316 H328 0.984 . S
N316 H329 0.985 . S
N317 C319 1.356 . S
N317 H322 0.984 . S
N317 H323 0.985 . S
C318 C312 1.379 . S
C318 C315 1.363 1_455 S
C318 N316 1.356 1_455 S
C319 C313 1.363 . S
C319 C314 1.386 . S
C319 N317 1.356 . S
N320 C312 1.356 . S
N320 H326 0.984 . S
N320 H327 0.984 . S
N321 C314 1.349 1_655 S
N321 H324 0.984 . S
N321 H325 0.985 . S
H322 N317 0.984 . S
H323 N317 0.985 . S
H324 N321 0.984 . S
H325 N321 0.985 . S
H326 N320 0.984 . S
H327 N320 0.984 . S
H328 N316 0.984 . S
H329 N316 0.985 . S
C330 C331 1.363 . S
C330 C336 1.379 . S
C330 N338 1.356 . S
C331 C330 1.363 . S
C331 C337 1.363 . S
C332 C333 1.363 . S
C332 C337 1.379 1_545 S
C332 N339 1.356 . S
C333 C332 1.363 . S
C333 C336 1.363 1_545 S
N334 C336 1.356 1_545 S
N334 H346 0.984 1_545 S
N334 H347 0.985 . S
N335 C337 1.356 . S
N335 H340 0.984 . S
N335 H341 0.985 . S
C336 C330 1.379 . S
C336 C333 1.363 1_565 S
C336 N334 1.356 1_565 S
C337 C331 1.363 . S
C337 C332 1.379 1_565 S
C337 N335 1.356 . S
N338 C330 1.356 . S
N338 H344 0.984 . S
N338 H345 0.984 . S
N339 C332 1.356 . S
N339 H342 0.984 . S
N339 H343 0.985 . S
H340 N335 0.984 . S
H341 N335 0.985 . S
H342 N339 0.984 . S
H343 N339 0.985 . S
H344 N338 0.984 . S
H345 N338 0.984 . S
H346 N334 0.984 1_565 S
H347 N334 0.985 . S
C348 C349 1.363 . S
C348 C354 1.379 . S
C348 N356 1.356 . S
C349 C348 1.363 . S
C349 C355 1.363 . S
C350 C351 1.363 . S
C350 C355 1.379 . S
C350 N357 1.356 . S
C351 C350 1.363 . S
C351 C354 1.363 . S
N352 C354 1.356 . S
N352 H364 0.984 . S
N352 H365 0.985 . S
N353 C355 1.356 . S
N353 H358 0.984 . S
N353 H359 0.985 . S
C354 C348 1.379 . S
C354 C351 1.363 . S
C354 N352 1.356 . S
C355 C349 1.363 . S
C355 C350 1.379 . S
C355 N353 1.356 . S
N356 C348 1.356 . S
N356 H362 0.984 . S
N356 H363 0.984 . S
N357 C350 1.356 . S
N357 H360 0.984 . S
N357 H361 0.985 . S
H358 N353 0.984 . S
H359 N353 0.985 . S
H360 N357 0.984 . S
H361 N357 0.985 . S
H362 N356 0.984 . S
H363 N356 0.984 . S
H364 N352 0.984 . S
H365 N352 0.985 . S
C366 C367 1.363 . S
C366 C372 1.379 1_455 S
C366 N374 1.356 . S
C367 C366 1.363 . S
C367 C373 1.363 1_455 S
C368 C369 1.363 . S
C368 C373 1.379 . S
C368 N375 1.356 . S
C369 C368 1.363 . S
C369 C372 1.363 . S
N370 C372 1.356 . S
N370 H382 0.984 . S
N370 H383 0.985 . S
N371 C373 1.356 1_455 S
N371 H376 0.984 . S
N371 H377 0.985 1_455 S
C372 C366 1.379 1_655 S
C372 C369 1.363 . S
C372 N370 1.356 . S
C373 C367 1.363 1_655 S
C373 C368 1.379 . S
C373 N371 1.356 1_655 S
N374 C366 1.356 . S
N374 H380 0.984 . S
N374 H381 0.984 . S
N375 C368 1.356 . S
N375 H378 0.984 . S
N375 H379 0.985 . S
H376 N371 0.984 . S
H377 N371 0.985 1_655 S
H378 N375 0.984 . S
H379 N375 0.985 . S
H380 N374 0.984 . S
H381 N374 0.984 . S
H382 N370 0.984 . S
H383 N370 0.985 . S
C384 C385 1.375 . S
C384 C390 1.363 1_565 S
C384 N392 1.365 . S
C385 C384 1.375 . S
C385 C391 1.363 1_565 S
C386 C387 1.363 . S
C386 C391 1.379 . S
C386 N393 1.356 . S
C387 C386 1.363 . S
C387 C390 1.363 . S
N388 C390 1.356 . S
N388 H400 0.984 . S
N388 H401 0.985 . S
N389 C391 1.356 1_565 S
N389 H394 0.984 . S
N389 H395 0.985 . S
C390 C384 1.363 1_545 S
C390 C387 1.363 . S
C390 N388 1.356 . S
C391 C385 1.363 1_545 S
C391 C386 1.379 . S
C391 N389 1.356 1_545 S
N392 C384 1.365 . S
N392 H398 0.984 . S
N392 H399 0.984 . S
N393 C386 1.356 . S
N393 H396 0.984 . S
N393 H397 0.985 . S
H394 N389 0.984 . S
H395 N389 0.985 . S
H396 N393 0.984 . S
H397 N393 0.985 . S
H398 N392 0.984 . S
H399 N392 0.984 . S
H400 N388 0.984 . S
H401 N388 0.985 . S
C402 C403 1.363 . S
C402 C408 1.379 . S
C402 N410 1.356 . S
C403 C402 1.363 . S
C403 C409 1.363 . S
C404 C405 1.363 . S
C404 C409 1.379 . S
C404 N411 1.356 . S
C405 C404 1.363 . S
C405 C408 1.363 . S
N406 C408 1.356 . S
N406 H418 0.984 . S
N406 H419 0.985 . S
N407 C409 1.356 . S
N407 H412 0.984 . S
N407 H413 0.985 . S
C408 C402 1.379 . S
C408 C405 1.363 . S
C408 N406 1.356 . S
C409 C403 1.363 . S
C409 C404 1.379 . S
C409 N407 1.356 . S
N410 C402 1.356 . S
N410 H416 0.984 . S
N410 H417 0.984 . S
N411 C404 1.356 . S
N411 H414 0.984 . S
N411 H415 0.985 . S
H412 N407 0.984 . S
H413 N407 0.985 . S
H414 N411 0.984 . S
H415 N411 0.985 . S
H416 N410 0.984 . S
H417 N410 0.984 . S
H418 N406 0.984 . S
H419 N406 0.985 . S
C420 C421 1.363 1_655 S
C420 C426 1.379 . S
C420 N428 1.356 1_655 S
C421 C420 1.363 1_455 S
C421 C427 1.363 . S
C422 C423 1.363 . S
C422 C427 1.379 1_655 S
C422 N429 1.356 . S
C423 C422 1.363 . S
C423 C426 1.363 . S
N424 C426 1.356 . S
N424 H436 0.984 . S
N424 H437 0.985 . S
N425 C427 1.356 . S
N425 H430 0.984 . S
N425 H431 0.985 . S
C426 C420 1.379 . S
C426 C423 1.363 . S
C426 N424 1.356 . S
C427 C421 1.363 . S
C427 C422 1.379 1_455 S
C427 N425 1.356 . S
N428 C420 1.356 1_455 S
N428 H434 0.984 . S
N428 H435 0.984 . S
N429 C422 1.356 . S
N429 H432 0.984 . S
N429 H433 0.985 . S
H430 N425 0.984 . S
H431 N425 0.985 . S
H432 N429 0.984 . S
H433 N429 0.985 . S
H434 N428 0.984 . S
H435 N428 0.984 . S
H436 N424 0.984 . S
H437 N424 0.985 . S
C438 C439 1.363 . S
C438 C444 1.379 1_545 S
C438 N446 1.356 . S
C439 C438 1.363 . S
C439 C445 1.363 . S
C440 C441 1.363 1_545 S
C440 C445 1.379 . S
C440 N447 1.356 1_545 S
C441 C440 1.363 1_565 S
C441 C444 1.363 . S
N442 C444 1.356 . S
N442 H454 0.984 . S
N442 H455 0.985 . S
N443 C445 1.356 . S
N443 H448 0.984 . S
N443 H449 0.985 . S
C444 C438 1.379 1_565 S
C444 C441 1.363 . S
C444 N442 1.356 . S
C445 C439 1.363 . S
C445 C440 1.379 . S
C445 N443 1.356 . S
N446 C438 1.356 . S
N446 H452 0.984 . S
N446 H453 0.984 . S
N447 C440 1.356 1_565 S
N447 H450 0.984 . S
N447 H451 0.985 . S
H448 N443 0.984 . S
H449 N443 0.985 . S
H450 N447 0.984 . S
H451 N447 0.985 . S
H452 N446 0.984 . S
H453 N446 0.984 . S
H454 N442 0.984 . S
H455 N442 0.985 . S
C456 C457 1.363 . S
C456 C462 1.379 . S
C456 N464 1.356 . S
C457 C456 1.363 . S
C457 C463 1.363 . S
C458 C459 1.363 . S
C458 C463 1.379 . S
C458 N465 1.356 . S
C459 C458 1.363 . S
C459 C462 1.363 . S
N460 C462 1.356 . S
N460 H472 0.984 . S
N460 H473 0.985 . S
N461 C463 1.356 . S
N461 H466 0.984 . S
N461 H467 0.985 . S
C462 C456 1.379 . S
C462 C459 1.363 . S
C462 N460 1.356 . S
C463 C457 1.363 . S
C463 C458 1.379 . S
C463 N461 1.356 . S
N464 C456 1.356 . S
N464 H470 0.984 . S
N464 H471 0.984 . S
N465 C458 1.356 . S
N465 H468 0.984 . S
N465 H469 0.985 . S
H466 N461 0.984 . S
H467 N461 0.985 . S
H468 N465 0.984 . S
H469 N465 0.985 . S
H470 N464 0.984 . S
H471 N464 0.984 . S
H472 N460 0.984 . S
H473 N460 0.985 . S
C474 C475 1.363 . S
C474 C480 1.379 . S
C474 N482 1.356 . S
C475 C474 1.363 . S
C475 C481 1.363 . S
C476 C477 1.363 . S
C476 C481 1.379 . S
C476 N483 1.356 . S
C477 C476 1.363 . S
C477 C480 1.363 . S
N478 C480 1.356 . S
N478 H490 0.984 . S
N478 H491 0.985 . S
N479 C481 1.356 . S
N479 H484 0.984 . S
N479 H485 0.985 . S
C480 C474 1.379 . S
C480 C477 1.363 . S
C480 N478 1.356 . S
C481 C475 1.363 . S
C481 C476 1.379 . S
C481 N479 1.356 . S
N482 C474 1.356 . S
N482 H488 0.984 . S
N482 H489 0.984 . S
N483 C476 1.356 . S
N483 H486 0.984 . S
N483 H487 0.985 . S
H484 N479 0.984 . S
H485 N479 0.985 . S
H486 N483 0.984 . S
H487 N483 0.985 . S
H488 N482 0.984 . S
H489 N482 0.984 . S
H490 N478 0.984 . S
H491 N478 0.985 . S
C492 C493 1.363 . S
C492 C498 1.379 . S
C492 N500 1.356 . S
C493 C492 1.363 . S
C493 C499 1.363 . S
C494 C495 1.363 . S
C494 C499 1.379 . S
C494 N501 1.356 . S
C495 C494 1.363 . S
C495 C498 1.363 . S
N496 C498 1.356 . S
N496 H508 0.984 . S
N496 H509 0.985 . S
N497 C499 1.356 . S
N497 H502 0.984 . S
N497 H503 0.985 . S
C498 C492 1.379 . S
C498 C495 1.363 . S
C498 N496 1.356 . S
C499 C493 1.363 . S
C499 C494 1.379 . S
C499 N497 1.356 . S
N500 C492 1.356 . S
N500 H506 0.984 . S
N500 H507 0.984 . S
N501 C494 1.356 . S
N501 H504 0.984 . S
N501 H505 0.985 . S
H502 N497 0.984 . S
H503 N497 0.985 . S
H504 N501 0.984 . S
H505 N501 0.985 . S
H506 N500 0.984 . S
H507 N500 0.984 . S
H508 N496 0.984 . S
H509 N496 0.985 . S
C510 C511 1.363 . S
C510 C516 1.379 . S
C510 N518 1.356 . S
C511 C510 1.363 . S
C511 C517 1.363 . S
C512 C513 1.363 . S
C512 C517 1.379 . S
C512 N519 1.356 . S
C513 C512 1.363 . S
C513 C516 1.363 . S
N514 C516 1.356 . S
N514 H526 0.984 . S
N514 H527 0.985 . S
N515 C517 1.356 . S
N515 H520 0.984 . S
N515 H521 0.985 . S
C516 C510 1.379 . S
C516 C513 1.363 . S
C516 N514 1.356 . S
C517 C511 1.363 . S
C517 C512 1.379 . S
C517 N515 1.356 . S
N518 C510 1.356 . S
N518 H524 0.984 . S
N518 H525 0.984 . S
N519 C512 1.356 . S
N519 H522 0.984 . S
N519 H523 0.985 . S
H520 N515 0.984 . S
H521 N515 0.985 . S
H522 N519 0.984 . S
H523 N519 0.985 . S
H524 N518 0.984 . S
H525 N518 0.984 . S
H526 N514 0.984 . S
H527 N514 0.985 . S
C528 C529 1.363 . S
C528 C534 1.379 . S
C528 N536 1.356 . S
C529 C528 1.363 . S
C529 C535 1.363 . S
C530 C531 1.363 . S
C530 C535 1.379 . S
C530 N537 1.356 . S
C531 C530 1.363 . S
C531 C534 1.363 . S
N532 C534 1.356 . S
N532 H544 0.984 . S
N532 H545 0.985 . S
N533 C535 1.356 . S
N533 H538 0.984 . S
N533 H539 0.985 . S
C534 C528 1.379 . S
C534 C531 1.363 . S
C534 N532 1.356 . S
C535 C529 1.363 . S
C535 C530 1.379 . S
C535 N533 1.356 . S
N536 C528 1.356 . S
N536 H542 0.984 . S
N536 H543 0.984 . S
N537 C530 1.356 . S
N537 H540 0.984 . S
N537 H541 0.985 . S
H538 N533 0.984 . S
H539 N533 0.985 . S
H540 N537 0.984 . S
H541 N537 0.985 . S
H542 N536 0.984 . S
H543 N536 0.984 . S
H544 N532 0.984 . S
H545 N532 0.985 . S
C546 C547 1.363 . S
C546 C552 1.379 . S
C546 N554 1.356 . S
C547 C546 1.363 . S
C547 C553 1.363 . S
C548 C549 1.363 . S
C548 C553 1.379 . S
C548 N555 1.356 . S
C549 C548 1.363 . S
C549 C552 1.363 . S
N550 C552 1.356 . S
N550 H562 0.984 . S
N550 H563 0.985 . S
N551 C553 1.356 . S
N551 H556 0.984 . S
N551 H557 0.985 . S
C552 C546 1.379 . S
C552 C549 1.363 . S
C552 N550 1.356 . S
C553 C547 1.363 . S
C553 C548 1.379 . S
C553 N551 1.356 . S
N554 C546 1.356 . S
N554 H560 0.984 . S
N554 H561 0.984 . S
N555 C548 1.356 . S
N555 H558 0.984 . S
N555 H559 0.985 . S
H556 N551 0.984 . S
H557 N551 0.985 . S
H558 N555 0.984 . S
H559 N555 0.985 . S
H560 N554 0.984 . S
H561 N554 0.984 . S
H562 N550 0.984 . S
H563 N550 0.985 . S
C564 C565 1.363 . S
C564 C570 1.379 1_565 S
C564 N572 1.356 . S
C565 C564 1.363 . S
C565 C571 1.363 1_556 S
C566 C567 1.363 . S
C566 C571 1.379 1_545 S
C566 N573 1.356 . S
C567 C566 1.363 . S
C567 C570 1.363 1_554 S
N568 C570 1.356 . S
N568 H580 0.984 . S
N568 H581 0.985 1_556 S
N569 C571 1.356 . S
N569 H574 0.984 1_554 S
N569 H575 0.985 . S
C570 C564 1.379 1_545 S
C570 C567 1.363 1_556 S
C570 N568 1.356 . S
C571 C565 1.363 1_554 S
C571 C566 1.379 1_565 S
C571 N569 1.356 . S
N572 C564 1.356 . S
N572 H578 0.984 . S
N572 H579 0.984 . S
N573 C566 1.356 . S
N573 H576 0.984 . S
N573 H577 0.985 . S
H574 N569 0.984 1_556 S
H575 N569 0.985 . S
H576 N573 0.984 . S
H577 N573 0.985 . S
H578 N572 0.984 . S
H579 N572 0.984 . S
H580 N568 0.984 . S
H581 N568 0.985 1_554 S
C582 C583 1.363 . S
C582 C588 1.379 . S
C582 N590 1.356 . S
C583 C582 1.363 . S
C583 C589 1.363 . S
C584 C585 1.363 . S
C584 C589 1.379 . S
C584 N591 1.356 . S
C585 C584 1.363 . S
C585 C588 1.363 . S
N586 C588 1.356 . S
N586 H598 0.984 . S
N586 H599 0.985 . S
N587 C589 1.356 . S
N587 H592 0.984 . S
N587 H593 0.985 . S
C588 C582 1.379 . S
C588 C585 1.363 . S
C588 N586 1.356 . S
C589 C583 1.363 . S
C589 C584 1.379 . S
C589 N587 1.356 . S
N590 C582 1.356 . S
N590 H596 0.984 . S
N590 H597 0.984 . S
N591 C584 1.356 . S
N591 H594 0.984 . S
N591 H595 0.985 . S
H592 N587 0.984 . S
H593 N587 0.985 . S
H594 N591 0.984 . S
H595 N591 0.985 . S
H596 N590 0.984 . S
H597 N590 0.984 . S
H598 N586 0.984 . S
H599 N586 0.985 . S
C600 C601 1.363 1_554 S
C600 C606 1.379 1_455 S
C600 N608 1.356 . S
C601 C600 1.363 1_556 S
C601 C607 1.363 . S
C602 C603 1.363 1_556 S
C602 C607 1.379 1_655 S
C602 N609 1.356 . S
C603 C602 1.363 1_554 S
C603 C606 1.363 . S
N604 C606 1.356 . S
N604 H616 0.984 1_655 S
N604 H617 0.985 . S
N605 C607 1.356 . S
N605 H610 0.984 . S
N605 H611 0.985 1_455 S
C606 C600 1.379 1_655 S
C606 C603 1.363 . S
C606 N604 1.356 . S
C607 C601 1.363 . S
C607 C602 1.379 1_455 S
C607 N605 1.356 . S
N608 C600 1.356 . S
N608 H614 0.984 . S
N608 H615 0.984 1_554 S
N609 C602 1.356 . S
N609 H612 0.984 1_556 S
N609 H613 0.985 . S
H610 N605 0.984 . S
H611 N605 0.985 1_655 S
H612 N609 0.984 1_554 S
H613 N609 0.985 . S
H614 N608 0.984 . S
H615 N608 0.984 1_556 S
H616 N604 0.984 1_455 S
H617 N604 0.985 . S
C618 C619 1.363 . S
C618 C624 1.379 1_545 S
C618 N626 1.356 . S
C619 C618 1.363 . S
C619 C625 1.363 . S
C620 C621 1.363 . S
C620 C625 1.379 1_565 S
C620 N627 1.356 . S
C621 C620 1.363 . S
C621 C624 1.363 . S
N622 C624 1.356 . S
N622 H634 0.984 . S
N622 H635 0.985 . S
N623 C625 1.356 . S
N623 H628 0.984 . S
N623 H629 0.985 . S
C624 C618 1.379 1_565 S
C624 C621 1.363 . S
C624 N622 1.356 . S
C625 C619 1.363 . S
C625 C620 1.379 1_545 S
C625 N623 1.356 . S
N626 C618 1.356 . S
N626 H632 0.984 1_545 S
N626 H633 0.984 . S
N627 C620 1.356 . S
N627 H630 0.984 . S
N627 H631 0.985 1_565 S
H628 N623 0.984 . S
H629 N623 0.985 . S
H630 N627 0.984 . S
H631 N627 0.985 1_545 S
H632 N626 0.984 1_565 S
H633 N626 0.984 . S
H634 N622 0.984 . S
H635 N622 0.985 . S
C636 C637 1.363 . S
C636 C642 1.379 . S
C636 N644 1.356 . S
C637 C636 1.363 . S
C637 C643 1.363 1_554 S
C638 C639 1.363 . S
C638 C643 1.379 . S
C638 N645 1.356 . S
C639 C638 1.363 . S
C639 C642 1.363 1_556 S
N640 C642 1.356 . S
N640 H652 0.984 . S
N640 H653 1.008 . S
N641 C643 1.356 . S
N641 H646 1.008 . S
N641 H647 0.985 . S
C642 C636 1.379 . S
C642 C639 1.363 1_554 S
C642 N640 1.356 . S
C643 C637 1.363 1_556 S
C643 C638 1.379 . S
C643 N641 1.356 . S
N644 C636 1.356 . S
N644 H650 0.984 . S
N644 H651 0.984 . S
N645 C638 1.356 . S
N645 H648 0.984 . S
N645 H649 0.985 . S
H646 N641 1.008 . S
H647 N641 0.985 . S
H648 N645 0.984 . S
H649 N645 0.985 . S
H650 N644 0.984 . S
H651 N644 0.984 . S
H652 N640 0.984 . S
H653 N640 1.008 . S
C654 C655 1.363 . S
C654 C660 1.379 1_455 S
C654 N662 1.356 . S
C655 C654 1.363 . S
C655 C661 1.363 . S
C656 C657 1.363 . S
C656 C661 1.379 1_655 S
C656 N663 1.356 . S
C657 C656 1.363 . S
C657 C660 1.363 . S
N658 C660 1.356 . S
N658 H670 0.984 . S
N658 H671 0.985 . S
N659 C661 1.356 . S
N659 H664 0.984 . S
N659 H665 0.985 . S
C660 C654 1.379 1_655 S
C660 C657 1.363 . S
C660 N658 1.356 . S
C661 C655 1.363 . S
C661 C656 1.379 1_455 S
C661 N659 1.356 . S
N662 C654 1.356 . S
N662 H668 0.984 . S
N662 H669 0.984 . S
N663 C656 1.356 . S
N663 H666 0.984 . S
N663 H667 0.985 . S
H664 N659 0.984 . S
H665 N659 0.985 . S
H666 N663 0.984 . S
H667 N663 0.985 . S
H668 N662 0.984 . S
H669 N662 0.984 . S
H670 N658 0.984 . S
H671 N658 0.985 . S
C672 C673 1.363 . S
C672 C678 1.379 . S
C672 N680 1.356 . S
C673 C672 1.363 . S
C673 C679 1.363 . S
C674 C675 1.363 . S
C674 C679 1.379 . S
C674 N681 1.356 . S
C675 C674 1.363 . S
C675 C678 1.363 . S
N676 C678 1.356 . S
N676 H688 0.984 . S
N676 H689 0.985 . S
N677 C679 1.356 . S
N677 H682 0.984 . S
N677 H683 0.985 . S
C678 C672 1.379 . S
C678 C675 1.363 . S
C678 N676 1.356 . S
C679 C673 1.363 . S
C679 C674 1.379 . S
C679 N677 1.356 . S
N680 C672 1.356 . S
N680 H686 0.984 . S
N680 H687 0.984 . S
N681 C674 1.356 . S
N681 H684 0.984 . S
N681 H685 0.985 . S
H682 N677 0.984 . S
H683 N677 0.985 . S
H684 N681 0.984 . S
H685 N681 0.985 . S
H686 N680 0.984 . S
H687 N680 0.984 . S
H688 N676 0.984 . S
H689 N676 0.985 . S
C690 C691 1.363 . S
C690 C696 1.379 . S
C690 N698 1.356 . S
C691 C690 1.363 . S
C691 C697 1.363 . S
C692 C693 1.363 . S
C692 C697 1.379 . S
C692 N699 1.356 . S
C693 C692 1.363 . S
C693 C696 1.363 . S
N694 C696 1.356 . S
N694 H706 0.984 . S
N694 H707 0.985 . S
N695 C697 1.356 . S
N695 H700 0.984 . S
N695 H701 0.985 . S
C696 C690 1.379 . S
C696 C693 1.363 . S
C696 N694 1.356 . S
C697 C691 1.363 . S
C697 C692 1.379 . S
C697 N695 1.356 . S
N698 C690 1.356 . S
N698 H704 0.984 . S
N698 H705 0.984 . S
N699 C692 1.356 . S
N699 H702 0.984 . S
N699 H703 0.985 . S
H700 N695 0.984 . S
H701 N695 0.985 . S
H702 N699 0.984 . S
H703 N699 0.985 . S
H704 N698 0.984 . S
H705 N698 0.984 . S
H706 N694 0.984 . S
H707 N694 0.985 . S
C708 C709 1.363 . S
C708 C714 1.379 . S
C708 N716 1.356 . S
C709 C708 1.363 . S
C709 C715 1.363 . S
C710 C711 1.363 . S
C710 C715 1.379 . S
C710 N717 1.356 . S
C711 C710 1.363 . S
C711 C714 1.363 . S
N712 C714 1.356 . S
N712 H724 0.984 . S
N712 H725 0.985 . S
N713 C715 1.356 . S
N713 H718 0.984 . S
N713 H719 0.985 . S
C714 C708 1.379 . S
C714 C711 1.363 . S
C714 N712 1.356 . S
C715 C709 1.363 . S
C715 C710 1.379 . S
C715 N713 1.356 . S
N716 C708 1.356 . S
N716 H722 0.984 . S
N716 H723 0.984 . S
N717 C710 1.356 . S
N717 H720 0.984 . S
N717 H721 0.985 . S
H718 N713 0.984 . S
H719 N713 0.985 . S
H720 N717 0.984 . S
H721 N717 0.985 . S
H722 N716 0.984 . S
H723 N716 0.984 . S
H724 N712 0.984 . S
H725 N712 0.985 . S
C726 C727 1.363 . S
C726 C732 1.379 . S
C726 N734 1.356 . S
C727 C726 1.363 . S
C727 C733 1.363 . S
C728 C729 1.363 . S
C728 C733 1.379 . S
C728 N735 1.356 . S
C729 C728 1.363 . S
C729 C732 1.363 . S
N730 C732 1.356 . S
N730 H742 0.984 . S
N730 H743 0.985 . S
N731 C733 1.356 . S
N731 H736 0.984 . S
N731 H737 0.985 . S
C732 C726 1.379 . S
C732 C729 1.363 . S
C732 N730 1.356 . S
C733 C727 1.363 . S
C733 C728 1.379 . S
C733 N731 1.356 . S
N734 C726 1.356 . S
N734 H740 0.984 . S
N734 H741 0.984 . S
N735 C728 1.356 . S
N735 H738 0.984 . S
N735 H739 0.985 . S
H736 N731 0.984 . S
H737 N731 0.985 . S
H738 N735 0.984 . S
H739 N735 0.985 . S
H740 N734 0.984 . S
H741 N734 0.984 . S
H742 N730 0.984 . S
H743 N730 0.985 . S
C744 C745 1.363 . S
C744 C750 1.379 . S
C744 N752 1.356 . S
C745 C744 1.363 . S
C745 C751 1.363 . S
C746 C747 1.363 . S
C746 C751 1.379 . S
C746 N753 1.356 . S
C747 C746 1.363 . S
C747 C750 1.363 . S
N748 C750 1.356 . S
N748 H760 0.984 . S
N748 H761 0.985 . S
N749 C751 1.356 . S
N749 H754 0.984 . S
N749 H755 0.985 . S
C750 C744 1.379 . S
C750 C747 1.363 . S
C750 N748 1.356 . S
C751 C745 1.363 . S
C751 C746 1.379 . S
C751 N749 1.356 . S
N752 C744 1.356 . S
N752 H758 0.984 . S
N752 H759 0.984 . S
N753 C746 1.356 . S
N753 H756 0.984 . S
N753 H757 0.985 . S
H754 N749 0.984 . S
H755 N749 0.985 . S
H756 N753 0.984 . S
H757 N753 0.985 . S
H758 N752 0.984 . S
H759 N752 0.984 . S
H760 N748 0.984 . S
H761 N748 0.985 . S
C762 C763 1.363 . S
C762 C768 1.379 . S
C762 N770 1.356 . S
C763 C762 1.363 . S
C763 C769 1.363 . S
C764 C765 1.363 . S
C764 C769 1.379 . S
C764 N771 1.356 . S
C765 C764 1.363 . S
C765 C768 1.363 . S
N766 C768 1.356 . S
N766 H778 0.984 . S
N766 H779 0.985 . S
N767 C769 1.356 . S
N767 H772 0.984 . S
N767 H773 0.985 . S
C768 C762 1.379 . S
C768 C765 1.363 . S
C768 N766 1.356 . S
C769 C763 1.363 . S
C769 C764 1.379 . S
C769 N767 1.356 . S
N770 C762 1.356 . S
N770 H776 0.984 . S
N770 H777 0.984 . S
N771 C764 1.356 . S
N771 H774 0.984 . S
N771 H775 0.985 . S
H772 N767 0.984 . S
H773 N767 0.985 . S
H774 N771 0.984 . S
H775 N771 0.985 . S
H776 N770 0.984 . S
H777 N770 0.984 . S
H778 N766 0.984 . S
H779 N766 0.985 . S
C780 C781 1.363 . S
C780 C786 1.379 . S
C780 N788 1.356 . S
C781 C780 1.363 . S
C781 C787 1.363 . S
C782 C783 1.363 . S
C782 C787 1.379 . S
C782 N789 1.356 . S
C783 C782 1.363 . S
C783 C786 1.363 . S
N784 C786 1.356 . S
N784 H796 0.984 . S
N784 H797 0.985 . S
N785 C787 1.356 . S
N785 H790 0.984 . S
N785 H791 0.985 . S
C786 C780 1.379 . S
C786 C783 1.363 . S
C786 N784 1.356 . S
C787 C781 1.363 . S
C787 C782 1.379 . S
C787 N785 1.356 . S
N788 C780 1.356 . S
N788 H794 0.984 . S
N788 H795 0.984 . S
N789 C782 1.356 . S
N789 H792 0.984 . S
N789 H793 0.985 . S
H790 N785 0.984 . S
H791 N785 0.985 . S
H792 N789 0.984 . S
H793 N789 0.985 . S
H794 N788 0.984 . S
H795 N788 0.984 . S
H796 N784 0.984 . S
H797 N784 0.985 . S
C798 C799 1.363 . S
C798 C804 1.379 . S
C798 N806 1.356 . S
C799 C798 1.363 . S
C799 C805 1.363 . S
C800 C801 1.363 . S
C800 C805 1.379 . S
C800 N807 1.356 . S
C801 C800 1.363 . S
C801 C804 1.363 . S
N802 C804 1.356 . S
N802 H814 0.984 . S
N802 H815 0.985 . S
N803 C805 1.356 . S
N803 H808 0.984 . S
N803 H809 0.985 . S
C804 C798 1.379 . S
C804 C801 1.363 . S
C804 N802 1.356 . S
C805 C799 1.363 . S
C805 C800 1.379 . S
C805 N803 1.356 . S
N806 C798 1.356 . S
N806 H812 0.984 . S
N806 H813 0.984 . S
N807 C800 1.356 . S
N807 H810 0.984 . S
N807 H811 0.985 . S
H808 N803 0.984 . S
H809 N803 0.985 . S
H810 N807 0.984 . S
H811 N807 0.985 . S
H812 N806 0.984 . S
H813 N806 0.984 . S
H814 N802 0.984 . S
H815 N802 0.985 . S
C816 C817 1.363 . S
C816 C822 1.379 . S
C816 N824 1.356 . S
C817 C816 1.363 . S
C817 C823 1.363 . S
C818 C819 1.363 . S
C818 C823 1.379 . S
C818 N825 1.356 . S
C819 C818 1.363 . S
C819 C822 1.363 . S
N820 C822 1.356 . S
N820 H832 0.984 . S
N820 H833 0.985 . S
N821 C823 1.356 . S
N821 H826 0.984 . S
N821 H827 0.985 . S
C822 C816 1.379 . S
C822 C819 1.363 . S
C822 N820 1.356 . S
C823 C817 1.363 . S
C823 C818 1.379 . S
C823 N821 1.356 . S
N824 C816 1.356 . S
N824 H830 0.984 . S
N824 H831 0.984 . S
N825 C818 1.356 . S
N825 H828 0.984 . S
N825 H829 0.985 . S
H826 N821 0.984 . S
H827 N821 0.985 . S
H828 N825 0.984 . S
H829 N825 0.985 . S
H830 N824 0.984 . S
H831 N824 0.984 . S
H832 N820 0.984 . S
H833 N820 0.985 . S
C834 C835 1.363 . S
C834 C840 1.379 . S
C834 N842 1.356 . S
C835 C834 1.363 . S
C835 C841 1.363 . S
C836 C837 1.363 . S
C836 C841 1.379 . S
C836 N843 1.356 . S
C837 C836 1.363 . S
C837 C840 1.363 . S
N838 C840 1.356 . S
N838 H850 0.984 . S
N838 H851 0.985 . S
N839 C841 1.356 . S
N839 H844 0.984 . S
N839 H845 0.985 . S
C840 C834 1.379 . S
C840 C837 1.363 . S
C840 N838 1.356 . S
C841 C835 1.363 . S
C841 C836 1.379 . S
C841 N839 1.356 . S
N842 C834 1.356 . S
N842 H848 0.984 . S
N842 H849 0.984 . S
N843 C836 1.356 . S
N843 H846 0.984 . S
N843 H847 0.985 . S
H844 N839 0.984 . S
H845 N839 0.985 . S
H846 N843 0.984 . S
H847 N843 0.985 . S
H848 N842 0.984 . S
H849 N842 0.984 . S
H850 N838 0.984 . S
H851 N838 0.985 . S
C852 C853 1.363 . S
C852 C858 1.379 . S
C852 N860 1.356 . S
C853 C852 1.363 . S
C853 C859 1.363 . S
C854 C855 1.363 . S
C854 C859 1.379 . S
C854 N861 1.356 . S
C855 C854 1.363 . S
C855 C858 1.363 . S
N856 C858 1.356 . S
N856 H868 0.984 . S
N856 H869 0.985 . S
N857 C859 1.356 . S
N857 H862 0.984 . S
N857 H863 0.985 . S
C858 C852 1.379 . S
C858 C855 1.363 . S
C858 N856 1.356 . S
C859 C853 1.363 . S
C859 C854 1.379 . S
C859 N857 1.356 . S
N860 C852 1.356 . S
N860 H866 0.984 . S
N860 H867 0.984 . S
N861 C854 1.356 . S
N861 H864 0.984 . S
N861 H865 0.985 . S
H862 N857 0.984 . S
H863 N857 0.985 . S
H864 N861 0.984 . S
H865 N861 0.985 . S
H866 N860 0.984 . S
H867 N860 0.984 . S
H868 N856 0.984 . S
H869 N856 0.985 . S
C870 C871 1.363 . S
C870 C876 1.379 . S
C870 N878 1.356 . S
C871 C870 1.363 . S
C871 C877 1.363 . S
C872 C873 1.363 . S
C872 C877 1.379 . S
C872 N879 1.356 . S
C873 C872 1.363 . S
C873 C876 1.363 . S
N874 C876 1.356 . S
N874 H886 0.984 . S
N874 H887 0.985 . S
N875 C877 1.356 . S
N875 H880 0.984 . S
N875 H881 0.985 . S
C876 C870 1.379 . S
C876 C873 1.363 . S
C876 N874 1.356 . S
C877 C871 1.363 . S
C877 C872 1.379 . S
C877 N875 1.356 . S
N878 C870 1.356 . S
N878 H884 0.984 . S
N878 H885 0.984 . S
N879 C872 1.356 . S
N879 H882 0.984 . S
N879 H883 0.985 . S
H880 N875 0.984 . S
H881 N875 0.985 . S
H882 N879 0.984 . S
H883 N879 0.985 . S
H884 N878 0.984 . S
H885 N878 0.984 . S
H886 N874 0.984 . S
H887 N874 0.985 . S
C241 C41 1.342 . S
C243 C19 1.290 . S
C259 C62 1.342 . S
C261 C38 1.290 . S
C277 C59 1.290 . S
C279 C81 1.342 . S
C295 C78 1.290 . S
C297 C102 1.342 . S
C313 C1 1.342 . S
C315 C99 1.290 . S
C331 C22 1.342 . S
C333 C118 1.290 . S
C349 C202 1.342 . S
C351 C138 1.290 . S
C367 C159 1.290 . S
C369 C221 1.342 . S
C385 C178 1.290 . S
C387 C122 1.342 . S
C403 C199 1.290 . S
C405 C141 1.342 . S
C421 C218 1.290 . S
C423 C162 1.342 . S
C439 C181 1.342 . S
C441 C239 1.290 . S
C457 C68 1.588 . S
C459 C9 1.588 . S
C475 C28 1.588 . S
C477 C89 1.588 . S
C493 C49 1.588 . S
C495 C108 1.588 . S
C511 C128 1.588 . S
C513 C189 1.588 . S
C529 C149 1.588 . S
C531 C208 1.588 . S
C547 C168 1.588 . S
C549 C229 1.588 . S
C565 C148 2.105 . S
C567 C8 2.105 . S
C583 C29 2.105 . S
C585 C169 2.105 . S
C601 C188 2.105 . S
C603 C48 2.105 . S
C619 C69 2.105 . S
C621 C209 2.105 . S
C637 C88 2.105 . S
C639 C228 2.105 . S
C655 C129 2.105 . S
C657 C109 2.105 . S
C673 C42 1.517 . S
C675 C18 1.552 . S
C691 C39 1.552 . S
C693 C61 1.517 . S
C709 C58 1.552 . S
C711 C82 1.517 . S
C727 C79 1.552 . S
C729 C101 1.517 . S
C745 C2 1.517 . S
C747 C98 1.552 . S
C763 C21 1.517 . S
C765 C119 1.552 . S
C781 C201 1.517 . S
C783 C139 1.552 . S
C799 C158 1.552 . S
C801 C222 1.517 . S
C817 C179 1.552 . S
C819 C121 1.517 . S
C835 C142 1.517 . S
C837 C198 1.552 . S
C853 C219 1.552 . S
C855 C161 1.517 . S
C871 C238 1.552 . S
C873 C182 1.517 . S
