# Generated by pormake.
# Topology sml, (6)-cn, num edge types: 1
# Building blocks:
#     Node 0, Type 0, BuildingBlock: JUFBIX_clean_sbu_0, # of connection points: 6
#     Node 1, Type 0, BuildingBlock: JUFBIX_clean_sbu_0, # of connection points: 6
#     Node 2, Type 0, BuildingBlock: JUFBIX_clean_sbu_0, # of connection points: 6
#     Node 3, Type 0, BuildingBlock: JUFBIX_clean_sbu_0, # of connection points: 6
#     Node 4, Type 0, BuildingBlock: JUFBIX_clean_sbu_0, # of connection points: 6
#     Node 5, Type 0, BuildingBlock: JUFBIX_clean_sbu_0, # of connection points: 6
#     Edge 6, Type (0, 0), BuildingBlock: OJICUG_clean_linker_0, # of connection points: 2
#     Edge 7, Type (0, 0), BuildingBlock: OJICUG_clean_linker_0, # of connection points: 2
#     Edge 8, Type (0, 0), BuildingBlock: OJICUG_clean_linker_0, # of connection points: 2
#     Edge 9, Type (0, 0), BuildingBlock: OJICUG_clean_linker_0, # of connection points: 2
#     Edge 10, Type (0, 0), BuildingBlock: OJICUG_clean_linker_0, # of connection points: 2
#     Edge 11, Type (0, 0), BuildingBlock: OJICUG_clean_linker_0, # of connection points: 2
#     Edge 12, Type (0, 0), BuildingBlock: OJICUG_clean_linker_0, # of connection points: 2
#     Edge 13, Type (0, 0), BuildingBlock: OJICUG_clean_linker_0, # of connection points: 2
#     Edge 14, Type (0, 0), BuildingBlock: OJICUG_clean_linker_0, # of connection points: 2
#     Edge 15, Type (0, 0), BuildingBlock: OJICUG_clean_linker_0, # of connection points: 2
#     Edge 16, Type (0, 0), BuildingBlock: OJICUG_clean_linker_0, # of connection points: 2
#     Edge 17, Type (0, 0), BuildingBlock: OJICUG_clean_linker_0, # of connection points: 2
#     Edge 18, Type (0, 0), BuildingBlock: OJICUG_clean_linker_0, # of connection points: 2
#     Edge 19, Type (0, 0), BuildingBlock: OJICUG_clean_linker_0, # of connection points: 2
#     Edge 20, Type (0, 0), BuildingBlock: OJICUG_clean_linker_0, # of connection points: 2
#     Edge 21, Type (0, 0), BuildingBlock: OJICUG_clean_linker_0, # of connection points: 2
#     Edge 22, Type (0, 0), BuildingBlock: OJICUG_clean_linker_0, # of connection points: 2
#     Edge 23, Type (0, 0), BuildingBlock: OJICUG_clean_linker_0, # of connection points: 2
# Relax obj value: 0.313
# Max RMSD: 0.201
# Mean RMSD: 0.201
data_MOF--net-sml--node1-JUFBIX_clean_sbu_0--edge1-OJICUG_clean_linker_0
_symmetry_space_group_name_H-M    P1
_symmetry_Int_Tables_number       1
_symmetry_cell_setting            triclinic
loop_
_symmetry_equiv_pos_as_xyz
'x, y, z'
_cell_length_a     34.022062
_cell_length_b     34.019453
_cell_length_c     10.801929
_cell_angle_alpha  90.005467
_cell_angle_beta   89.988184
_cell_angle_gamma 119.99098
loop_
_atom_site_label
_atom_site_type_symbol
_atom_site_fract_x
_atom_site_fract_y
_atom_site_fract_z
_atom_type_partial_charge
Co0 Co 0.33716 0.49788 0.04611 0.0
C1 C 0.27247 0.52243 0.07924 0.0
Co2 Co 0.26783 0.43813 0.04724 0.0
C3 C 0.4136 0.58211 0.96142 0.0
C4 C 0.43219 0.55139 0.10547 0.0
N5 N 0.39627 0.54642 0.03993 0.0
N6 N 0.459 0.60901 -0.02557 0.0
C7 C 0.4707 0.58977 0.06563 0.0
H8 H 0.39336 0.58739 0.89334 0.0
H9 H 0.43062 0.52806 0.17594 0.0
C10 C 0.33476 0.41533 0.01415 0.0
N11 N 0.20879 0.38902 0.05407 0.0
C12 C 0.17532 0.38242 0.13387 0.0
C13 C 0.19137 0.35043 -0.01277 0.0
N14 N 0.13804 0.34104 0.12046 0.0
C15 C 0.14806 0.32081 0.02833 0.0
C16 C 0.29812 0.47151 0.81306 0.0
O17 O 0.35955 0.4579 0.028 0.0
O18 O 0.29182 0.39761 0.02196 0.0
O19 O 0.26369 0.44197 0.87263 0.0
O20 O 0.33326 0.4997 0.87218 0.0
O21 O 0.24544 0.47968 0.07261 0.0
H22 H 0.20946 0.34377 0.91545 0.0
H23 H 0.17895 0.40671 0.20416 0.0
O24 O 0.3147 0.53793 0.06411 0.0
O25 O 0.34016 0.4953 0.22126 0.0
O26 O 0.27245 0.43466 0.22073 0.0
C27 C 0.30662 0.46431 0.28034 0.0
H28 H 0.50462 0.6025 0.10161 0.0
H29 H 0.12582 0.2868 -0.00588 0.0
Co30 Co 0.77773 0.21812 0.48965 0.0
C31 C 0.84241 0.30736 0.45653 0.0
Co32 Co 0.84706 0.2277 0.48851 0.0
C33 C 0.70129 0.22591 0.57438 0.0
C34 C 0.6827 0.17661 0.43029 0.0
N35 N 0.71862 0.20755 0.49584 0.0
N36 N 0.65589 0.20742 0.56137 0.0
C37 C 0.64419 0.17647 0.47014 0.0
H38 H 0.72152 0.25142 0.64246 0.0
H39 H 0.68428 0.15485 0.3598 0.0
C40 C 0.78015 0.13798 0.52159 0.0
N41 N 0.90611 0.23764 0.48166 0.0
C42 C 0.93958 0.26451 0.40188 0.0
C43 C 0.92354 0.21646 0.54846 0.0
N44 N 0.97687 0.26043 0.41527 0.0
C45 C 0.96685 0.23016 0.50736 0.0
C46 C 0.81678 0.2308 0.72269 0.0
O47 O 0.75535 0.15576 0.50774 0.0
O48 O 0.82308 0.16319 0.51379 0.0
O49 O 0.85121 0.23569 0.66312 0.0
O50 O 0.78163 0.22385 0.66359 0.0
O51 O 0.86944 0.29164 0.46315 0.0
H52 H 0.90545 0.19171 0.62022 0.0
H53 H 0.93595 0.28518 0.33164 0.0
O54 O 0.80018 0.28063 0.47167 0.0
O55 O 0.77474 0.21255 0.3145 0.0
O56 O 0.84245 0.21961 0.31502 0.0
C57 C 0.80827 0.21509 0.25541 0.0
H58 H 0.61027 0.15529 0.43416 0.0
H59 H 0.9891 0.21841 0.54154 0.0
Co60 Co 0.60346 0.86966 0.71262 0.0
C61 C 0.57889 0.78042 0.74573 0.0
Co62 Co 0.66319 0.86005 0.71369 0.0
C63 C 0.51922 0.86188 0.62802 0.0
C64 C 0.54996 0.91122 0.77199 0.0
N65 N 0.55492 0.88026 0.70646 0.0
N66 N 0.49231 0.88039 0.64106 0.0
C67 C 0.51158 0.91136 0.73222 0.0
H68 H 0.51393 0.83635 0.55998 0.0
H69 H 0.5733 0.933 0.84242 0.0
C70 C 0.68601 0.94977 0.68061 0.0
N71 N 0.71229 0.85007 0.72053 0.0
C72 C 0.71888 0.82322 0.80036 0.0
C73 C 0.75089 0.87123 0.6537 0.0
N74 N 0.76026 0.82729 0.78699 0.0
C75 C 0.7805 0.85753 0.69484 0.0
C76 C 0.62982 0.85696 0.47955 0.0
O77 O 0.64345 0.93203 0.69449 0.0
O78 O 0.70372 0.92454 0.68841 0.0
O79 O 0.65936 0.85206 0.53908 0.0
O80 O 0.60164 0.86393 0.53869 0.0
O81 O 0.62163 0.79612 0.73907 0.0
H82 H 0.75756 0.89597 0.58191 0.0
H83 H 0.69458 0.80257 0.87065 0.0
O84 O 0.5634 0.80716 0.73063 0.0
O85 O 0.60604 0.87525 0.88778 0.0
O86 O 0.66666 0.86814 0.88718 0.0
C87 C 0.63702 0.87269 0.94683 0.0
H88 H 0.49885 0.93256 0.76821 0.0
H89 H 0.81451 0.86927 0.66066 0.0
Co90 Co 0.88323 0.58997 0.15645 0.0
C91 C 0.79399 0.5654 0.12335 0.0
Co92 Co 0.87361 0.64971 0.15537 0.0
C93 C 0.87545 0.50573 0.24109 0.0
C94 C 0.92479 0.53647 0.09709 0.0
N95 N 0.89382 0.54143 0.16263 0.0
N96 N 0.89395 0.47882 0.22807 0.0
C97 C 0.92492 0.49808 0.13689 0.0
H98 H 0.84992 0.50044 0.30914 0.0
H99 H 0.94656 0.55981 0.02665 0.0
C100 C 0.96333 0.67253 0.18844 0.0
N101 N 0.86363 0.6988 0.14851 0.0
C102 C 0.83677 0.70539 0.0687 0.0
C103 C 0.88479 0.73741 0.2153 0.0
N104 N 0.84083 0.74676 0.08205 0.0
C105 C 0.87108 0.76702 0.17415 0.0
C106 C 0.87052 0.61633 0.38953 0.0
O107 O 0.94559 0.62997 0.17456 0.0
O108 O 0.93811 0.69024 0.18064 0.0
O109 O 0.86562 0.64587 0.32999 0.0
O110 O 0.87749 0.58814 0.33038 0.0
O111 O 0.80969 0.60814 0.13 0.0
H112 H 0.90953 0.74409 0.28707 0.0
H113 H 0.81612 0.68108 -0.00156 0.0
O114 O 0.82073 0.5499 0.13846 0.0
O115 O 0.88882 0.59255 -0.01871 0.0
O116 O 0.88171 0.65318 -0.01812 0.0
C117 C 0.88626 0.62353 0.92223 0.0
H118 H 0.94612 0.48535 0.1009 0.0
H119 H 0.88282 0.80103 0.20831 0.0
Co120 Co 0.23163 0.7642 0.37957 0.0
C121 C 0.32086 0.82886 0.41267 0.0
Co122 Co 0.24123 0.83354 0.38068 0.0
C123 C 0.23942 0.68774 0.29487 0.0
C124 C 0.1901 0.66915 0.43892 0.0
N125 N 0.22105 0.70508 0.37338 0.0
N126 N 0.22092 0.64234 0.30788 0.0
C127 C 0.18996 0.63063 0.39909 0.0
H128 H 0.26494 0.70798 0.2268 0.0
H129 H 0.16833 0.67072 0.50939 0.0
C130 C 0.15151 0.76663 0.3476 0.0
N131 N 0.25119 0.8926 0.38755 0.0
C132 C 0.27806 0.92606 0.46733 0.0
C133 C 0.23002 0.91005 0.32077 0.0
N134 N 0.27399 0.96336 0.45398 0.0
C135 C 0.24373 0.95336 0.3619 0.0
C136 C 0.24433 0.80326 0.14651 0.0
O137 O 0.16927 0.74183 0.36147 0.0
O138 O 0.17673 0.80957 0.35541 0.0
O139 O 0.24922 0.83769 0.20607 0.0
O140 O 0.23737 0.76811 0.20563 0.0
O141 O 0.30515 0.8559 0.40604 0.0
H142 H 0.20527 0.89198 0.24903 0.0
H143 H 0.29872 0.92241 0.53757 0.0
O144 O 0.29413 0.78663 0.39755 0.0
O145 O 0.22604 0.76119 0.55472 0.0
O146 O 0.23312 0.82891 0.55418 0.0
C147 C 0.22859 0.79473 0.61381 0.0
H148 H 0.16877 0.59671 0.43507 0.0
H149 H 0.23198 0.97563 0.32775 0.0
Co150 Co 0.51143 0.32363 0.82326 0.0
C151 C 0.53599 0.25894 0.79014 0.0
Co152 Co 0.4517 0.2543 0.82217 0.0
C153 C 0.59567 0.40008 0.90789 0.0
C154 C 0.56494 0.41867 0.76388 0.0
N155 N 0.55997 0.38275 0.82942 0.0
N156 N 0.62257 0.44548 0.89485 0.0
C157 C 0.60332 0.45719 0.80367 0.0
H158 H 0.60096 0.37984 -0.02405 0.0
H159 H 0.5416 0.4171 0.69343 0.0
C160 C 0.42889 0.32122 0.85524 0.0
N161 N 0.40259 0.19524 0.81534 0.0
C162 C 0.39599 0.16178 0.73551 0.0
C163 C 0.364 0.17782 0.8822 0.0
N164 N 0.35461 0.1245 0.74892 0.0
C165 C 0.33438 0.13451 0.84107 0.0
C166 C 0.48506 0.28458 0.05632 0.0
O167 O 0.47145 0.34602 0.84138 0.0
O168 O 0.41117 0.27828 0.84745 0.0
O169 O 0.45553 0.25015 -0.00322 0.0
O170 O 0.51325 0.31973 -0.00281 0.0
O171 O 0.49325 0.23191 0.79679 0.0
H172 H 0.35734 0.1959 0.95399 0.0
H173 H 0.42028 0.16542 0.66521 0.0
O174 O 0.55149 0.30118 0.80525 0.0
O175 O 0.50886 0.32663 0.64811 0.0
O176 O 0.44823 0.25892 0.64868 0.0
C177 C 0.47788 0.2931 0.58904 0.0
H178 H 0.61605 0.49111 0.76768 0.0
H179 H 0.30038 0.11226 0.87528 0.0
C180 C 0.42622 0.39045 0.91345 0.0
C181 C 0.40251 0.34341 0.89207 0.0
H182 H 0.42407 0.44899 0.97055 0.0
C183 C 0.35536 0.31911 0.91392 0.0
H184 H 0.46253 0.41053 0.89877 0.0
C185 C 0.33266 0.3418 0.9555 0.0
C186 C 0.35695 0.38896 -0.02269 0.0
H187 H 0.33616 0.28277 0.89926 0.0
H188 H 0.29632 0.3226 0.9702 0.0
C189 C 0.40399 0.41268 0.95591 0.0
C190 C 0.07744 0.34666 0.23256 0.0
C191 C 0.09743 0.32105 0.1951 0.0
H192 H 1.02248 0.34693 0.33043 0.0
C193 C 0.07706 0.27533 0.2313 0.0
H194 H 0.0924 0.3819 0.2054 0.0
C195 C 1.03787 0.25573 0.3044 0.0
C196 C 1.01749 0.28106 0.34065 0.0
H197 H 0.09192 0.25493 0.20449 0.0
H198 H 1.02303 0.22047 0.33118 0.0
C199 C 1.03745 0.32666 0.30324 0.0
C200 C 0.78225 0.06656 0.58032 0.0
C201 C 0.75795 0.08942 0.55844 0.0
H202 H 0.77874 1.00403 0.63665 0.0
C203 C 0.71092 0.06611 0.5798 0.0
H204 H 0.81859 0.08369 0.56567 0.0
C205 C 0.68868 1.02166 0.62229 0.0
C206 C 0.71239 0.99833 0.64375 0.0
H207 H 0.69083 0.08234 0.56509 0.0
H208 H 0.65237 1.00544 0.63692 0.0
C209 C 0.75954 1.02117 0.62194 0.0
C210 C 0.75463 0.76109 0.89918 0.0
C211 C 0.78024 0.80668 0.86169 0.0
H212 H 0.75435 0.70587 -0.00287 0.0
C213 C 0.82594 0.83202 0.89792 0.0
H214 H 0.7194 0.74081 0.872 0.0
C215 C 0.84554 0.81244 0.97108 0.0
C216 C 0.82021 0.76674 0.00736 0.0
H217 H 0.84635 0.86728 0.87108 0.0
H218 H 0.88079 0.83286 -0.00212 0.0
C219 C 0.77462 0.74111 0.96991 0.0
C220 C 0.0801 0.76875 0.28885 0.0
C221 C 0.10296 0.74445 0.31071 0.0
H222 H 1.01758 0.76526 0.23252 0.0
C223 C 0.07965 0.69742 0.28927 0.0
H224 H 0.09723 0.80509 0.30356 0.0
C225 C 1.03521 0.67519 0.24675 0.0
C226 C 1.01189 0.69891 0.22533 0.0
H227 H 0.09588 0.67733 0.30395 0.0
H228 H 1.019 0.63888 0.23206 0.0
C229 C 1.03472 0.74606 0.24721 0.0
C230 C 0.28891 0.06354 0.63805 0.0
C231 C 0.33461 0.08389 0.67424 0.0
H232 H 0.23404 1.00952 0.53815 0.0
C233 C 0.36022 0.06391 0.63674 0.0
H234 H 0.26851 0.07841 0.66489 0.0
C235 C 0.34021 1.02392 0.56603 0.0
C236 C 0.29462 1.00397 0.52863 0.0
H237 H 0.39546 0.07885 0.66389 0.0
H238 H 0.36048 1.00894 0.53881 0.0
C239 C 0.2693 1.02436 0.56491 0.0
C240 C 0.33841 0.50242 0.61226 0.0
C241 C 0.29939 0.47056 0.67645 0.0
H242 H 0.37163 0.52505 0.43719 0.0
C243 C 0.26323 0.43603 0.60951 0.0
H244 H 0.36703 0.5293 0.6612 0.0
C245 C 0.26608 0.43339 0.48108 0.0
C246 C 0.30514 0.46523 0.41694 0.0
H247 H 0.23288 0.41075 0.65632 0.0
H248 H 0.23745 0.40655 0.43206 0.0
C249 C 0.34125 0.49978 0.48391 0.0
C250 C 0.84882 0.22471 0.05466 0.0
C251 C 0.80976 0.21749 0.11881 0.0
H252 H 0.88202 0.23528 0.87942 0.0
C253 C 0.77364 0.21593 0.05186 0.0
H254 H 0.87745 0.2265 0.10367 0.0
C255 C 0.77648 0.22141 0.9235 0.0
C256 C 0.81551 0.22858 0.8593 0.0
H257 H 0.74326 0.21082 0.09858 0.0
H258 H 0.74786 0.21968 0.87458 0.0
C259 C 0.85167 0.23021 0.92624 0.0
C260 C 0.66529 0.85754 0.27595 0.0
C261 C 0.63077 0.85918 0.34294 0.0
H262 H 0.69478 0.86125 0.09847 0.0
C263 C 0.59891 0.86636 0.27879 0.0
H264 H 0.69057 0.85247 0.32272 0.0
C265 C 0.60155 0.87185 0.15044 0.0
C266 C 0.6361 0.87028 0.08343 0.0
H267 H 0.57203 0.8681 0.32776 0.0
H268 H 0.57629 0.87697 0.10376 0.0
C269 C 0.66794 0.86305 0.14753 0.0
C270 C 0.88542 0.58806 0.71864 0.0
C271 C 0.88385 0.62262 0.78564 0.0
H272 H 0.88166 0.55853 0.54133 0.0
C273 C 0.87661 0.65446 0.72153 0.0
H274 H 0.89054 0.5628 0.76533 0.0
C275 C 0.87111 0.65181 0.59311 0.0
C276 C 0.87274 0.61728 0.52613 0.0
H277 H 0.87482 0.6813 0.77058 0.0
H278 H 0.86603 0.67709 0.54633 0.0
C279 C 0.87993 0.58542 0.59029 0.0
C280 C 0.22944 0.7601 0.81737 0.0
C281 C 0.231 0.79622 0.7504 0.0
H282 H 0.2332 0.73433 -0.00534 0.0
C283 C 0.23823 0.83529 0.81453 0.0
H284 H 0.22432 0.72971 0.77066 0.0
C285 C 0.24373 0.83814 0.94295 0.0
C286 C 0.2421 0.80198 0.0099 0.0
H287 H 0.24002 0.86392 0.7655 0.0
H288 H 0.2488 0.8685 -0.01025 0.0
C289 C 0.23493 0.76295 0.94572 0.0
C290 C 0.51334 0.32772 0.38545 0.0
C291 C 0.47879 0.29161 0.45245 0.0
H292 H 0.54286 0.3535 0.20814 0.0
C293 C 0.44695 0.25254 0.38833 0.0
H294 H 0.53861 0.35811 0.43215 0.0
C295 C 0.4496 0.24969 0.2599 0.0
C296 C 0.48412 0.28585 0.19293 0.0
H297 H 0.42011 0.22392 0.43737 0.0
H298 H 0.42431 0.21934 0.21311 0.0
C299 C 0.51598 0.32488 0.2571 0.0
C300 C 0.28703 0.60062 0.12617 0.0
C301 C 0.25652 0.55358 0.1214 0.0
H302 H 0.30003 0.66543 0.19029 0.0
C303 C 0.21284 0.53664 0.17129 0.0
H304 H 0.32102 0.61488 0.08885 0.0
C305 C 0.20077 0.56584 0.2298 0.0
C306 C 0.23205 0.61265 0.23951 0.0
H307 H 0.18855 0.5006 0.16952 0.0
H308 H 0.1671 0.55157 0.26893 0.0
C309 C 0.27496 0.62974 0.18436 0.0
C310 C 0.5794 0.18725 0.6395 0.0
C311 C 0.62621 0.21854 0.62979 0.0
H312 H 0.51416 0.17502 0.69982 0.0
C313 C 0.6433 0.26145 0.68496 0.0
H314 H 0.56513 0.15359 0.60036 0.0
C315 C 0.61417 0.27351 0.74318 0.0
C316 C 0.56714 0.24299 0.74796 0.0
H317 H 0.67898 0.28652 0.67902 0.0
H318 H 0.62843 0.30749 0.78051 0.0
C319 C 0.5502 0.19932 0.69805 0.0
C320 C 0.47159 0.67564 0.85091 0.0
C321 C 0.48868 0.64982 0.90604 0.0
H322 H 0.48644 0.73655 0.75541 0.0
C323 C 0.53548 0.66533 0.8963 0.0
H324 H 0.4359 0.66503 0.85687 0.0
C325 C 0.56468 0.70659 0.83777 0.0
C326 C 0.54774 0.73333 0.78791 0.0
H327 H 0.54976 0.64593 0.93541 0.0
H328 H 0.60072 0.71832 0.83598 0.0
C329 C 0.50071 0.71682 0.79271 0.0
C330 C 0.90204 0.38119 0.36454 0.0
C331 C 0.85835 0.35446 0.4144 0.0
H332 H 0.94778 0.44186 0.26698 0.0
C333 C 0.82784 0.37098 0.40964 0.0
H334 H 0.92633 0.36944 0.36631 0.0
C335 C 0.83991 0.41218 0.3515 0.0
C336 C 0.88282 0.438 0.29639 0.0
H337 H 0.79385 0.35126 0.44694 0.0
H338 H 0.81484 0.4228 0.34559 0.0
C339 C 0.91411 0.42247 0.30608 0.0
C340 C 0.3947 0.88848 0.50462 0.0
C341 C 0.36796 0.8448 0.45479 0.0
H342 H 0.45537 0.93423 0.60213 0.0
C343 C 0.38447 0.81427 0.45957 0.0
H344 H 0.38296 0.91279 0.50284 0.0
C345 C 0.42567 0.82634 0.51768 0.0
C346 C 0.4515 0.86926 0.57276 0.0
H347 H 0.36475 0.78028 0.4223 0.0
H348 H 0.43628 0.80126 0.52361 0.0
C349 C 0.43597 0.90055 0.56306 0.0
C350 C 0.7304 0.48721 0.07642 0.0
C351 C 0.7469 0.53424 0.08122 0.0
H352 H 0.6786 0.42239 0.01233 0.0
C353 C 0.72016 0.55118 0.03138 0.0
H354 H 0.75012 0.47294 0.11369 0.0
C355 C 0.67889 0.52198 0.97291 0.0
C356 C 0.66338 0.47517 0.96319 0.0
H357 H 0.73189 0.58722 0.03317 0.0
H358 H 0.65949 0.53625 0.93383 0.0
C359 C 0.6892 0.45808 0.01828 0.0
loop_
_geom_bond_atom_site_label_1
_geom_bond_atom_site_label_2
_geom_bond_distance
_geom_bond_site_symmetry_2
_ccdc_geom_bond_type
Co0 N5 2.057 . S
Co0 O17 2.021 . S
Co0 O20 2.062 . S
Co0 O24 2.117 1_556 S
Co0 O25 2.020 1_556 S
C1 O21 1.259 . S
C1 O24 1.258 . S
Co2 N11 2.057 . S
Co2 O18 2.117 . S
Co2 O19 2.020 1_554 S
Co2 O21 2.021 . S
Co2 O26 2.062 . S
C3 N5 1.316 . S
C3 N6 1.347 . S
C3 H8 0.931 . S
C4 N5 1.375 . S
C4 C7 1.350 . S
C4 H9 0.930 1_556 S
N5 Co0 2.057 . S
N5 C3 1.316 . S
N5 C4 1.375 . S
N6 C3 1.347 . S
N6 C7 1.373 . S
C7 C4 1.350 . S
C7 N6 1.373 . S
C7 H28 0.931 . S
H8 C3 0.931 . S
H9 C4 0.930 1_554 S
C10 O17 1.259 . S
C10 O18 1.258 1_556 S
N11 Co2 2.057 . S
N11 C12 1.316 . S
N11 C13 1.375 . S
C12 N11 1.316 . S
C12 N14 1.347 . S
C12 H23 0.931 . S
C13 N11 1.375 . S
C13 C15 1.350 . S
C13 H22 0.930 . S
N14 C12 1.347 . S
N14 C15 1.373 . S
C15 C13 1.350 . S
C15 N14 1.373 . S
C15 H29 0.931 . S
C16 O19 1.256 . S
C16 O20 1.255 . S
O17 Co0 2.021 . S
O17 C10 1.259 . S
O18 Co2 2.117 . S
O18 C10 1.258 1_554 S
O19 Co2 2.020 1_556 S
O19 C16 1.256 . S
O20 Co0 2.062 . S
O20 C16 1.255 . S
O21 C1 1.259 . S
O21 Co2 2.021 . S
H22 C13 0.930 . S
H23 C12 0.931 . S
O24 Co0 2.117 1_554 S
O24 C1 1.258 . S
O25 Co0 2.020 1_554 S
O25 C27 1.256 . S
O26 Co2 2.062 . S
O26 C27 1.255 . S
C27 O25 1.256 . S
C27 O26 1.255 . S
H28 C7 0.931 . S
H29 C15 0.931 . S
Co30 N35 2.057 . S
Co30 O47 2.021 . S
Co30 O50 2.062 . S
Co30 O54 2.117 . S
Co30 O55 2.020 . S
C31 O51 1.259 . S
C31 O54 1.258 . S
Co32 N41 2.057 . S
Co32 O48 2.117 . S
Co32 O49 2.020 . S
Co32 O51 2.021 . S
Co32 O56 2.062 . S
C33 N35 1.316 . S
C33 N36 1.347 . S
C33 H38 0.931 . S
C34 N35 1.375 . S
C34 C37 1.350 . S
C34 H39 0.930 . S
N35 Co30 2.057 . S
N35 C33 1.316 . S
N35 C34 1.375 . S
N36 C33 1.347 . S
N36 C37 1.373 . S
C37 C34 1.350 . S
C37 N36 1.373 . S
C37 H58 0.931 . S
H38 C33 0.931 . S
H39 C34 0.930 . S
C40 O47 1.259 . S
C40 O48 1.258 . S
N41 Co32 2.057 . S
N41 C42 1.316 . S
N41 C43 1.375 . S
C42 N41 1.316 . S
C42 N44 1.347 . S
C42 H53 0.931 . S
C43 N41 1.375 . S
C43 C45 1.350 . S
C43 H52 0.930 . S
N44 C42 1.347 . S
N44 C45 1.373 . S
C45 C43 1.350 . S
C45 N44 1.373 . S
C45 H59 0.931 . S
C46 O49 1.256 . S
C46 O50 1.255 . S
O47 Co30 2.021 . S
O47 C40 1.259 . S
O48 Co32 2.117 . S
O48 C40 1.258 . S
O49 Co32 2.020 . S
O49 C46 1.256 . S
O50 Co30 2.062 . S
O50 C46 1.255 . S
O51 C31 1.259 . S
O51 Co32 2.021 . S
H52 C43 0.930 . S
H53 C42 0.931 . S
O54 Co30 2.117 . S
O54 C31 1.258 . S
O55 Co30 2.020 . S
O55 C57 1.256 . S
O56 Co32 2.062 . S
O56 C57 1.255 . S
C57 O55 1.256 . S
C57 O56 1.255 . S
H58 C37 0.931 . S
H59 C45 0.931 . S
Co60 N65 2.057 . S
Co60 O77 2.021 . S
Co60 O80 2.062 . S
Co60 O84 2.117 . S
Co60 O85 2.020 . S
C61 O81 1.259 . S
C61 O84 1.258 . S
Co62 N71 2.057 . S
Co62 O78 2.117 . S
Co62 O79 2.020 . S
Co62 O81 2.021 . S
Co62 O86 2.062 . S
C63 N65 1.316 . S
C63 N66 1.347 . S
C63 H68 0.931 . S
C64 N65 1.375 . S
C64 C67 1.350 . S
C64 H69 0.930 . S
N65 Co60 2.057 . S
N65 C63 1.316 . S
N65 C64 1.375 . S
N66 C63 1.347 . S
N66 C67 1.373 . S
C67 C64 1.350 . S
C67 N66 1.373 . S
C67 H88 0.931 . S
H68 C63 0.931 . S
H69 C64 0.930 . S
C70 O77 1.259 . S
C70 O78 1.258 . S
N71 Co62 2.057 . S
N71 C72 1.316 . S
N71 C73 1.375 . S
C72 N71 1.316 . S
C72 N74 1.347 . S
C72 H83 0.931 . S
C73 N71 1.375 . S
C73 C75 1.350 . S
C73 H82 0.930 . S
N74 C72 1.347 . S
N74 C75 1.373 . S
C75 C73 1.350 . S
C75 N74 1.373 . S
C75 H89 0.931 . S
C76 O79 1.256 . S
C76 O80 1.255 . S
O77 Co60 2.021 . S
O77 C70 1.259 . S
O78 Co62 2.117 . S
O78 C70 1.258 . S
O79 Co62 2.020 . S
O79 C76 1.256 . S
O80 Co60 2.062 . S
O80 C76 1.255 . S
O81 C61 1.259 . S
O81 Co62 2.021 . S
H82 C73 0.930 . S
H83 C72 0.931 . S
O84 Co60 2.117 . S
O84 C61 1.258 . S
O85 Co60 2.020 . S
O85 C87 1.256 . S
O86 Co62 2.062 . S
O86 C87 1.255 . S
C87 O85 1.256 . S
C87 O86 1.255 . S
H88 C67 0.931 . S
H89 C75 0.931 . S
Co90 N95 2.057 . S
Co90 O107 2.021 . S
Co90 O110 2.062 . S
Co90 O114 2.117 . S
Co90 O115 2.020 . S
C91 O111 1.259 . S
C91 O114 1.258 . S
Co92 N101 2.057 . S
Co92 O108 2.117 . S
Co92 O109 2.020 . S
Co92 O111 2.021 . S
Co92 O116 2.062 . S
C93 N95 1.316 . S
C93 N96 1.347 . S
C93 H98 0.931 . S
C94 N95 1.375 . S
C94 C97 1.350 . S
C94 H99 0.930 . S
N95 Co90 2.057 . S
N95 C93 1.316 . S
N95 C94 1.375 . S
N96 C93 1.347 . S
N96 C97 1.373 . S
C97 C94 1.350 . S
C97 N96 1.373 . S
C97 H118 0.931 . S
H98 C93 0.931 . S
H99 C94 0.930 . S
C100 O107 1.259 . S
C100 O108 1.258 . S
N101 Co92 2.057 . S
N101 C102 1.316 . S
N101 C103 1.375 . S
C102 N101 1.316 . S
C102 N104 1.347 . S
C102 H113 0.931 . S
C103 N101 1.375 . S
C103 C105 1.350 . S
C103 H112 0.930 . S
N104 C102 1.347 . S
N104 C105 1.373 . S
C105 C103 1.350 . S
C105 N104 1.373 . S
C105 H119 0.931 . S
C106 O109 1.256 . S
C106 O110 1.255 . S
O107 Co90 2.021 . S
O107 C100 1.259 . S
O108 Co92 2.117 . S
O108 C100 1.258 . S
O109 Co92 2.020 . S
O109 C106 1.256 . S
O110 Co90 2.062 . S
O110 C106 1.255 . S
O111 C91 1.259 . S
O111 Co92 2.021 . S
H112 C103 0.930 . S
H113 C102 0.931 . S
O114 Co90 2.117 . S
O114 C91 1.258 . S
O115 Co90 2.020 . S
O115 C117 1.256 1_554 S
O116 Co92 2.062 . S
O116 C117 1.255 1_554 S
C117 O115 1.256 1_556 S
C117 O116 1.255 1_556 S
H118 C97 0.931 . S
H119 C105 0.931 . S
Co120 N125 2.057 . S
Co120 O137 2.021 . S
Co120 O140 2.062 . S
Co120 O144 2.117 . S
Co120 O145 2.020 . S
C121 O141 1.259 . S
C121 O144 1.258 . S
Co122 N131 2.057 . S
Co122 O138 2.117 . S
Co122 O139 2.020 . S
Co122 O141 2.021 . S
Co122 O146 2.062 . S
C123 N125 1.316 . S
C123 N126 1.347 . S
C123 H128 0.931 . S
C124 N125 1.375 . S
C124 C127 1.350 . S
C124 H129 0.930 . S
N125 Co120 2.057 . S
N125 C123 1.316 . S
N125 C124 1.375 . S
N126 C123 1.347 . S
N126 C127 1.373 . S
C127 C124 1.350 . S
C127 N126 1.373 . S
C127 H148 0.931 . S
H128 C123 0.931 . S
H129 C124 0.930 . S
C130 O137 1.259 . S
C130 O138 1.258 . S
N131 Co122 2.057 . S
N131 C132 1.316 . S
N131 C133 1.375 . S
C132 N131 1.316 . S
C132 N134 1.347 . S
C132 H143 0.931 . S
C133 N131 1.375 . S
C133 C135 1.350 . S
C133 H142 0.930 . S
N134 C132 1.347 . S
N134 C135 1.373 . S
C135 C133 1.350 . S
C135 N134 1.373 . S
C135 H149 0.931 . S
C136 O139 1.256 . S
C136 O140 1.255 . S
O137 Co120 2.021 . S
O137 C130 1.259 . S
O138 Co122 2.117 . S
O138 C130 1.258 . S
O139 Co122 2.020 . S
O139 C136 1.256 . S
O140 Co120 2.062 . S
O140 C136 1.255 . S
O141 C121 1.259 . S
O141 Co122 2.021 . S
H142 C133 0.930 . S
H143 C132 0.931 . S
O144 Co120 2.117 . S
O144 C121 1.258 . S
O145 Co120 2.020 . S
O145 C147 1.256 . S
O146 Co122 2.062 . S
O146 C147 1.255 . S
C147 O145 1.256 . S
C147 O146 1.255 . S
H148 C127 0.931 . S
H149 C135 0.931 . S
Co150 N155 2.057 . S
Co150 O167 2.021 . S
Co150 O170 2.062 1_556 S
Co150 O174 2.117 . S
Co150 O175 2.020 . S
C151 O171 1.259 . S
C151 O174 1.258 . S
Co152 N161 2.057 . S
Co152 O168 2.117 . S
Co152 O169 2.020 1_556 S
Co152 O171 2.021 . S
Co152 O176 2.062 . S
C153 N155 1.316 1_554 S
C153 N156 1.347 . S
C153 H158 0.931 . S
C154 N155 1.375 . S
C154 C157 1.350 . S
C154 H159 0.930 . S
N155 Co150 2.057 . S
N155 C153 1.316 1_556 S
N155 C154 1.375 . S
N156 C153 1.347 . S
N156 C157 1.373 1_554 S
C157 C154 1.350 . S
C157 N156 1.373 1_556 S
C157 H178 0.931 . S
H158 C153 0.931 . S
H159 C154 0.930 . S
C160 O167 1.259 . S
C160 O168 1.258 . S
N161 Co152 2.057 . S
N161 C162 1.316 . S
N161 C163 1.375 . S
C162 N161 1.316 . S
C162 N164 1.347 . S
C162 H173 0.931 . S
C163 N161 1.375 . S
C163 C165 1.350 . S
C163 H172 0.930 . S
N164 C162 1.347 . S
N164 C165 1.373 . S
C165 C163 1.350 . S
C165 N164 1.373 . S
C165 H179 0.931 . S
C166 O169 1.256 . S
C166 O170 1.255 . S
O167 Co150 2.021 . S
O167 C160 1.259 . S
O168 Co152 2.117 . S
O168 C160 1.258 . S
O169 Co152 2.020 1_554 S
O169 C166 1.256 . S
O170 Co150 2.062 1_554 S
O170 C166 1.255 . S
O171 C151 1.259 . S
O171 Co152 2.021 . S
H172 C163 0.930 . S
H173 C162 0.931 . S
O174 Co150 2.117 . S
O174 C151 1.258 . S
O175 Co150 2.020 . S
O175 C177 1.256 . S
O176 Co152 2.062 . S
O176 C177 1.255 . S
C177 O175 1.256 . S
C177 O176 1.255 . S
H178 C157 0.931 . S
H179 C165 0.931 . S
C180 C181 1.387 . S
C180 H184 0.950 . S
C180 C189 1.390 . S
C181 C180 1.387 . S
C181 C183 1.387 1_556 S
H182 C189 0.950 . S
C183 C181 1.387 1_554 S
C183 C185 1.390 . S
C183 H187 0.950 . S
H184 C180 0.950 . S
C185 C183 1.390 . S
C185 C186 1.387 1_554 S
C185 H188 0.950 . S
C186 C185 1.387 1_556 S
C186 C189 1.387 . S
H187 C183 0.950 . S
H188 C185 0.950 . S
C189 C180 1.390 . S
C189 H182 0.950 . S
C189 C186 1.387 . S
C190 C191 1.387 . S
C190 H194 0.950 . S
C190 C199 1.390 . S
C191 C190 1.387 . S
C191 C193 1.387 . S
H192 C199 0.950 . S
C193 C191 1.387 . S
C193 C195 1.390 1_455 S
C193 H197 0.950 . S
H194 C190 0.950 . S
C195 C193 1.390 1_655 S
C195 C196 1.387 . S
C195 H198 0.950 . S
C196 C195 1.387 . S
C196 C199 1.387 1_655 S
H197 C193 0.950 . S
H198 C195 0.950 . S
C199 C190 1.390 . S
C199 H192 0.950 . S
C199 C196 1.387 1_455 S
C200 C201 1.387 . S
C200 H204 0.950 . S
C200 C209 1.390 1_545 S
C201 C200 1.387 . S
C201 C203 1.387 . S
H202 C209 0.950 . S
C203 C201 1.387 . S
C203 C205 1.390 1_545 S
C203 H207 0.950 . S
H204 C200 0.950 . S
C205 C203 1.390 1_565 S
C205 C206 1.387 . S
C205 H208 0.950 . S
C206 C205 1.387 . S
C206 C209 1.387 . S
H207 C203 0.950 . S
H208 C205 0.950 . S
C209 C200 1.390 1_565 S
C209 H202 0.950 . S
C209 C206 1.387 . S
C210 C211 1.387 . S
C210 H214 0.950 . S
C210 C219 1.390 . S
C211 C210 1.387 . S
C211 C213 1.387 . S
H212 C219 0.950 . S
C213 C211 1.387 . S
C213 C215 1.390 1_556 S
C213 H217 0.950 1_556 S
H214 C210 0.950 . S
C215 C213 1.390 1_554 S
C215 C216 1.387 . S
C215 H218 0.950 . S
C216 C215 1.387 . S
C216 C219 1.387 1_554 S
H217 C213 0.950 1_554 S
H218 C215 0.950 . S
C219 C210 1.390 . S
C219 H212 0.950 . S
C219 C216 1.387 1_556 S
C220 C221 1.387 . S
C220 H224 0.950 . S
C220 C229 1.390 1_455 S
C221 C220 1.387 . S
C221 C223 1.387 . S
H222 C229 0.950 . S
C223 C221 1.387 . S
C223 C225 1.390 1_455 S
C223 H227 0.950 . S
H224 C220 0.950 . S
C225 C223 1.390 1_655 S
C225 C226 1.387 . S
C225 H228 0.950 . S
C226 C225 1.387 . S
C226 C229 1.387 . S
H227 C223 0.950 . S
H228 C225 0.950 . S
C229 C220 1.390 1_655 S
C229 H222 0.950 . S
C229 C226 1.387 . S
C230 C231 1.387 . S
C230 H234 0.950 . S
C230 C239 1.390 1_545 S
C231 C230 1.387 . S
C231 C233 1.387 . S
H232 C239 0.950 . S
C233 C231 1.387 . S
C233 C235 1.390 1_545 S
C233 H237 0.950 . S
H234 C230 0.950 . S
C235 C233 1.390 1_565 S
C235 C236 1.387 . S
C235 H238 0.950 . S
C236 C235 1.387 . S
C236 C239 1.387 . S
H237 C233 0.950 . S
H238 C235 0.950 . S
C239 C230 1.390 1_565 S
C239 H232 0.950 . S
C239 C236 1.387 . S
C240 C241 1.387 . S
C240 H244 0.950 . S
C240 C249 1.390 . S
C241 C240 1.387 . S
C241 C243 1.387 . S
H242 C249 0.950 . S
C243 C241 1.387 . S
C243 C245 1.390 . S
C243 H247 0.950 . S
H244 C240 0.950 . S
C245 C243 1.390 . S
C245 C246 1.387 . S
C245 H248 0.950 . S
C246 C245 1.387 . S
C246 C249 1.387 . S
H247 C243 0.950 . S
H248 C245 0.950 . S
C249 C240 1.390 . S
C249 H242 0.950 . S
C249 C246 1.387 . S
C250 C251 1.387 . S
C250 H254 0.950 . S
C250 C259 1.390 . S
C251 C250 1.387 . S
C251 C253 1.387 . S
H252 C259 0.950 . S
C253 C251 1.387 . S
C253 C255 1.390 1_554 S
C253 H257 0.950 . S
H254 C250 0.950 . S
C255 C253 1.390 1_556 S
C255 C256 1.387 . S
C255 H258 0.950 . S
C256 C255 1.387 . S
C256 C259 1.387 1_556 S
H257 C253 0.950 . S
H258 C255 0.950 . S
C259 C250 1.390 . S
C259 H252 0.950 . S
C259 C256 1.387 1_554 S
C260 C261 1.387 . S
C260 H264 0.950 . S
C260 C269 1.390 . S
C261 C260 1.387 . S
C261 C263 1.387 . S
H262 C269 0.950 . S
C263 C261 1.387 . S
C263 C265 1.390 . S
C263 H267 0.950 . S
H264 C260 0.950 . S
C265 C263 1.390 . S
C265 C266 1.387 . S
C265 H268 0.950 . S
C266 C265 1.387 . S
C266 C269 1.387 . S
H267 C263 0.950 . S
H268 C265 0.950 . S
C269 C260 1.390 . S
C269 H262 0.950 . S
C269 C266 1.387 . S
C270 C271 1.387 . S
C270 H274 0.950 . S
C270 C279 1.390 . S
C271 C270 1.387 . S
C271 C273 1.387 . S
H272 C279 0.950 . S
C273 C271 1.387 . S
C273 C275 1.390 . S
C273 H277 0.950 . S
H274 C270 0.950 . S
C275 C273 1.390 . S
C275 C276 1.387 . S
C275 H278 0.950 . S
C276 C275 1.387 . S
C276 C279 1.387 . S
H277 C273 0.950 . S
H278 C275 0.950 . S
C279 C270 1.390 . S
C279 H272 0.950 . S
C279 C276 1.387 . S
C280 C281 1.387 . S
C280 H284 0.950 . S
C280 C289 1.390 . S
C281 C280 1.387 . S
C281 C283 1.387 . S
H282 C289 0.950 . S
C283 C281 1.387 . S
C283 C285 1.390 . S
C283 H287 0.950 . S
H284 C280 0.950 . S
C285 C283 1.390 . S
C285 C286 1.387 . S
C285 H288 0.950 . S
C286 C285 1.387 . S
C286 C289 1.387 . S
H287 C283 0.950 . S
H288 C285 0.950 . S
C289 C280 1.390 . S
C289 H282 0.950 . S
C289 C286 1.387 . S
C290 C291 1.387 . S
C290 H294 0.950 . S
C290 C299 1.390 . S
C291 C290 1.387 . S
C291 C293 1.387 . S
H292 C299 0.950 . S
C293 C291 1.387 . S
C293 C295 1.390 . S
C293 H297 0.950 . S
H294 C290 0.950 . S
C295 C293 1.390 . S
C295 C296 1.387 . S
C295 H298 0.950 . S
C296 C295 1.387 . S
C296 C299 1.387 . S
H297 C293 0.950 . S
H298 C295 0.950 . S
C299 C290 1.390 . S
C299 H292 0.950 . S
C299 C296 1.387 . S
C300 C301 1.387 . S
C300 H304 0.950 . S
C300 C309 1.390 . S
C301 C300 1.387 . S
C301 C303 1.387 . S
H302 C309 0.950 . S
C303 C301 1.387 . S
C303 C305 1.390 . S
C303 H307 0.950 . S
H304 C300 0.950 . S
C305 C303 1.390 . S
C305 C306 1.387 . S
C305 H308 0.950 . S
C306 C305 1.387 . S
C306 C309 1.387 . S
H307 C303 0.950 . S
H308 C305 0.950 . S
C309 C300 1.390 . S
C309 H302 0.950 . S
C309 C306 1.387 . S
C310 C311 1.387 . S
C310 H314 0.950 . S
C310 C319 1.390 . S
C311 C310 1.387 . S
C311 C313 1.387 . S
H312 C319 0.950 . S
C313 C311 1.387 . S
C313 C315 1.390 . S
C313 H317 0.950 . S
H314 C310 0.950 . S
C315 C313 1.390 . S
C315 C316 1.387 . S
C315 H318 0.950 . S
C316 C315 1.387 . S
C316 C319 1.387 . S
H317 C313 0.950 . S
H318 C315 0.950 . S
C319 C310 1.390 . S
C319 H312 0.950 . S
C319 C316 1.387 . S
C320 C321 1.387 . S
C320 H324 0.950 . S
C320 C329 1.390 . S
C321 C320 1.387 . S
C321 C323 1.387 . S
H322 C329 0.950 . S
C323 C321 1.387 . S
C323 C325 1.390 . S
C323 H327 0.950 . S
H324 C320 0.950 . S
C325 C323 1.390 . S
C325 C326 1.387 . S
C325 H328 0.950 . S
C326 C325 1.387 . S
C326 C329 1.387 . S
H327 C323 0.950 . S
H328 C325 0.950 . S
C329 C320 1.390 . S
C329 H322 0.950 . S
C329 C326 1.387 . S
C330 C331 1.387 . S
C330 H334 0.950 . S
C330 C339 1.390 . S
C331 C330 1.387 . S
C331 C333 1.387 . S
H332 C339 0.950 . S
C333 C331 1.387 . S
C333 C335 1.390 . S
C333 H337 0.950 . S
H334 C330 0.950 . S
C335 C333 1.390 . S
C335 C336 1.387 . S
C335 H338 0.950 . S
C336 C335 1.387 . S
C336 C339 1.387 . S
H337 C333 0.950 . S
H338 C335 0.950 . S
C339 C330 1.390 . S
C339 H332 0.950 . S
C339 C336 1.387 . S
C340 C341 1.387 . S
C340 H344 0.950 . S
C340 C349 1.390 . S
C341 C340 1.387 . S
C341 C343 1.387 . S
H342 C349 0.950 . S
C343 C341 1.387 . S
C343 C345 1.390 . S
C343 H347 0.950 . S
H344 C340 0.950 . S
C345 C343 1.390 . S
C345 C346 1.387 . S
C345 H348 0.950 . S
C346 C345 1.387 . S
C346 C349 1.387 . S
H347 C343 0.950 . S
H348 C345 0.950 . S
C349 C340 1.390 . S
C349 H342 0.950 . S
C349 C346 1.387 . S
C350 C351 1.387 . S
C350 H354 0.950 . S
C350 C359 1.390 . S
C351 C350 1.387 . S
C351 C353 1.387 . S
H352 C359 0.950 . S
C353 C351 1.387 . S
C353 C355 1.390 . S
C353 H357 0.950 . S
H354 C350 0.950 . S
C355 C353 1.390 . S
C355 C356 1.387 . S
C355 H358 0.950 1_554 S
C356 C355 1.387 . S
C356 C359 1.387 . S
H357 C353 0.950 . S
H358 C355 0.950 1_556 S
C359 C350 1.390 . S
C359 H352 0.950 . S
C359 C356 1.387 . S
C181 C160 1.691 . S
C186 C10 1.692 . S
C191 N14 1.615 . S
C196 N44 1.615 . S
C201 C40 1.691 . S
C206 C70 1.691 . S
C211 N74 1.615 . S
C216 N104 1.615 . S
C221 C130 1.693 . S
C226 C100 1.691 . S
C231 N164 1.616 . S
C236 N134 1.616 . S
C241 C16 1.188 . S
C246 C27 1.188 . S
C251 C57 1.187 . S
C256 C46 1.187 . S
C261 C76 1.187 . S
C266 C87 1.187 1_554 S
C271 C117 1.188 . S
C276 C106 1.188 . S
C281 C147 1.188 . S
C286 C136 1.188 1_556 S
C291 C177 1.188 . S
C296 C166 1.188 . S
C301 C1 1.741 . S
C306 N126 1.550 . S
C311 N36 1.548 . S
C316 C151 1.741 . S
C321 N6 1.550 . S
C326 C61 1.741 . S
C331 C31 1.741 . S
C336 N96 1.547 . S
C341 C121 1.741 . S
C346 N66 1.548 . S
C351 C91 1.742 . S
C356 N156 1.550 . S
