# Generated by pormake.
# Topology uod, (4)-cn, num edge types: 1
# Building blocks:
#     Node 0, Type 0, BuildingBlock: QUQFOY_clean_sbu_1, # of connection points: 4
#     Node 1, Type 0, BuildingBlock: QUQFOY_clean_sbu_1, # of connection points: 4
#     Node 2, Type 0, BuildingBlock: QUQFOY_clean_sbu_1, # of connection points: 4
#     Node 3, Type 0, BuildingBlock: QUQFOY_clean_sbu_1, # of connection points: 4
#     Node 4, Type 0, BuildingBlock: QUQFOY_clean_sbu_1, # of connection points: 4
#     Node 5, Type 0, BuildingBlock: QUQFOY_clean_sbu_1, # of connection points: 4
#     Node 6, Type 0, BuildingBlock: QUQFOY_clean_sbu_1, # of connection points: 4
#     Node 7, Type 0, BuildingBlock: QUQFOY_clean_sbu_1, # of connection points: 4
#     Node 8, Type 0, BuildingBlock: QUQFOY_clean_sbu_1, # of connection points: 4
#     Node 9, Type 0, BuildingBlock: QUQFOY_clean_sbu_1, # of connection points: 4
#     Node 10, Type 0, BuildingBlock: QUQFOY_clean_sbu_1, # of connection points: 4
#     Node 11, Type 0, BuildingBlock: QUQFOY_clean_sbu_1, # of connection points: 4
#     Node 12, Type 0, BuildingBlock: QUQFOY_clean_sbu_1, # of connection points: 4
#     Node 13, Type 0, BuildingBlock: QUQFOY_clean_sbu_1, # of connection points: 4
#     Node 14, Type 0, BuildingBlock: QUQFOY_clean_sbu_1, # of connection points: 4
#     Node 15, Type 0, BuildingBlock: QUQFOY_clean_sbu_1, # of connection points: 4
#     Node 16, Type 0, BuildingBlock: QUQFOY_clean_sbu_1, # of connection points: 4
#     Node 17, Type 0, BuildingBlock: QUQFOY_clean_sbu_1, # of connection points: 4
#     Node 18, Type 0, BuildingBlock: QUQFOY_clean_sbu_1, # of connection points: 4
#     Node 19, Type 0, BuildingBlock: QUQFOY_clean_sbu_1, # of connection points: 4
#     Node 20, Type 0, BuildingBlock: QUQFOY_clean_sbu_1, # of connection points: 4
#     Node 21, Type 0, BuildingBlock: QUQFOY_clean_sbu_1, # of connection points: 4
#     Node 22, Type 0, BuildingBlock: QUQFOY_clean_sbu_1, # of connection points: 4
#     Node 23, Type 0, BuildingBlock: QUQFOY_clean_sbu_1, # of connection points: 4
#     Node 24, Type 0, BuildingBlock: QUQFOY_clean_sbu_1, # of connection points: 4
#     Node 25, Type 0, BuildingBlock: QUQFOY_clean_sbu_1, # of connection points: 4
#     Node 26, Type 0, BuildingBlock: QUQFOY_clean_sbu_1, # of connection points: 4
#     Node 27, Type 0, BuildingBlock: QUQFOY_clean_sbu_1, # of connection points: 4
#     Node 28, Type 0, BuildingBlock: QUQFOY_clean_sbu_1, # of connection points: 4
#     Node 29, Type 0, BuildingBlock: QUQFOY_clean_sbu_1, # of connection points: 4
#     Node 30, Type 0, BuildingBlock: QUQFOY_clean_sbu_1, # of connection points: 4
#     Node 31, Type 0, BuildingBlock: QUQFOY_clean_sbu_1, # of connection points: 4
#     Edge 32, Type (0, 0), BuildingBlock: UVAHIK_clean_linker_0, # of connection points: 2
#     Edge 33, Type (0, 0), BuildingBlock: UVAHIK_clean_linker_0, # of connection points: 2
#     Edge 34, Type (0, 0), BuildingBlock: UVAHIK_clean_linker_0, # of connection points: 2
#     Edge 35, Type (0, 0), BuildingBlock: UVAHIK_clean_linker_0, # of connection points: 2
#     Edge 36, Type (0, 0), BuildingBlock: UVAHIK_clean_linker_0, # of connection points: 2
#     Edge 37, Type (0, 0), BuildingBlock: UVAHIK_clean_linker_0, # of connection points: 2
#     Edge 38, Type (0, 0), BuildingBlock: UVAHIK_clean_linker_0, # of connection points: 2
#     Edge 39, Type (0, 0), BuildingBlock: UVAHIK_clean_linker_0, # of connection points: 2
#     Edge 40, Type (0, 0), BuildingBlock: UVAHIK_clean_linker_0, # of connection points: 2
#     Edge 41, Type (0, 0), BuildingBlock: UVAHIK_clean_linker_0, # of connection points: 2
#     Edge 42, Type (0, 0), BuildingBlock: UVAHIK_clean_linker_0, # of connection points: 2
#     Edge 43, Type (0, 0), BuildingBlock: UVAHIK_clean_linker_0, # of connection points: 2
#     Edge 44, Type (0, 0), BuildingBlock: UVAHIK_clean_linker_0, # of connection points: 2
#     Edge 45, Type (0, 0), BuildingBlock: UVAHIK_clean_linker_0, # of connection points: 2
#     Edge 46, Type (0, 0), BuildingBlock: UVAHIK_clean_linker_0, # of connection points: 2
#     Edge 47, Type (0, 0), BuildingBlock: UVAHIK_clean_linker_0, # of connection points: 2
#     Edge 48, Type (0, 0), BuildingBlock: UVAHIK_clean_linker_0, # of connection points: 2
#     Edge 49, Type (0, 0), BuildingBlock: UVAHIK_clean_linker_0, # of connection points: 2
#     Edge 50, Type (0, 0), BuildingBlock: UVAHIK_clean_linker_0, # of connection points: 2
#     Edge 51, Type (0, 0), BuildingBlock: UVAHIK_clean_linker_0, # of connection points: 2
#     Edge 52, Type (0, 0), BuildingBlock: UVAHIK_clean_linker_0, # of connection points: 2
#     Edge 53, Type (0, 0), BuildingBlock: UVAHIK_clean_linker_0, # of connection points: 2
#     Edge 54, Type (0, 0), BuildingBlock: UVAHIK_clean_linker_0, # of connection points: 2
#     Edge 55, Type (0, 0), BuildingBlock: UVAHIK_clean_linker_0, # of connection points: 2
#     Edge 56, Type (0, 0), BuildingBlock: UVAHIK_clean_linker_0, # of connection points: 2
#     Edge 57, Type (0, 0), BuildingBlock: UVAHIK_clean_linker_0, # of connection points: 2
#     Edge 58, Type (0, 0), BuildingBlock: UVAHIK_clean_linker_0, # of connection points: 2
#     Edge 59, Type (0, 0), BuildingBlock: UVAHIK_clean_linker_0, # of connection points: 2
#     Edge 60, Type (0, 0), BuildingBlock: UVAHIK_clean_linker_0, # of connection points: 2
#     Edge 61, Type (0, 0), BuildingBlock: UVAHIK_clean_linker_0, # of connection points: 2
#     Edge 62, Type (0, 0), BuildingBlock: UVAHIK_clean_linker_0, # of connection points: 2
#     Edge 63, Type (0, 0), BuildingBlock: UVAHIK_clean_linker_0, # of connection points: 2
#     Edge 64, Type (0, 0), BuildingBlock: UVAHIK_clean_linker_0, # of connection points: 2
#     Edge 65, Type (0, 0), BuildingBlock: UVAHIK_clean_linker_0, # of connection points: 2
#     Edge 66, Type (0, 0), BuildingBlock: UVAHIK_clean_linker_0, # of connection points: 2
#     Edge 67, Type (0, 0), BuildingBlock: UVAHIK_clean_linker_0, # of connection points: 2
#     Edge 68, Type (0, 0), BuildingBlock: UVAHIK_clean_linker_0, # of connection points: 2
#     Edge 69, Type (0, 0), BuildingBlock: UVAHIK_clean_linker_0, # of connection points: 2
#     Edge 70, Type (0, 0), BuildingBlock: UVAHIK_clean_linker_0, # of connection points: 2
#     Edge 71, Type (0, 0), BuildingBlock: UVAHIK_clean_linker_0, # of connection points: 2
#     Edge 72, Type (0, 0), BuildingBlock: UVAHIK_clean_linker_0, # of connection points: 2
#     Edge 73, Type (0, 0), BuildingBlock: UVAHIK_clean_linker_0, # of connection points: 2
#     Edge 74, Type (0, 0), BuildingBlock: UVAHIK_clean_linker_0, # of connection points: 2
#     Edge 75, Type (0, 0), BuildingBlock: UVAHIK_clean_linker_0, # of connection points: 2
#     Edge 76, Type (0, 0), BuildingBlock: UVAHIK_clean_linker_0, # of connection points: 2
#     Edge 77, Type (0, 0), BuildingBlock: UVAHIK_clean_linker_0, # of connection points: 2
#     Edge 78, Type (0, 0), BuildingBlock: UVAHIK_clean_linker_0, # of connection points: 2
#     Edge 79, Type (0, 0), BuildingBlock: UVAHIK_clean_linker_0, # of connection points: 2
#     Edge 80, Type (0, 0), BuildingBlock: UVAHIK_clean_linker_0, # of connection points: 2
#     Edge 81, Type (0, 0), BuildingBlock: UVAHIK_clean_linker_0, # of connection points: 2
#     Edge 82, Type (0, 0), BuildingBlock: UVAHIK_clean_linker_0, # of connection points: 2
#     Edge 83, Type (0, 0), BuildingBlock: UVAHIK_clean_linker_0, # of connection points: 2
#     Edge 84, Type (0, 0), BuildingBlock: UVAHIK_clean_linker_0, # of connection points: 2
#     Edge 85, Type (0, 0), BuildingBlock: UVAHIK_clean_linker_0, # of connection points: 2
#     Edge 86, Type (0, 0), BuildingBlock: UVAHIK_clean_linker_0, # of connection points: 2
#     Edge 87, Type (0, 0), BuildingBlock: UVAHIK_clean_linker_0, # of connection points: 2
#     Edge 88, Type (0, 0), BuildingBlock: UVAHIK_clean_linker_0, # of connection points: 2
#     Edge 89, Type (0, 0), BuildingBlock: UVAHIK_clean_linker_0, # of connection points: 2
#     Edge 90, Type (0, 0), BuildingBlock: UVAHIK_clean_linker_0, # of connection points: 2
#     Edge 91, Type (0, 0), BuildingBlock: UVAHIK_clean_linker_0, # of connection points: 2
#     Edge 92, Type (0, 0), BuildingBlock: UVAHIK_clean_linker_0, # of connection points: 2
#     Edge 93, Type (0, 0), BuildingBlock: UVAHIK_clean_linker_0, # of connection points: 2
#     Edge 94, Type (0, 0), BuildingBlock: UVAHIK_clean_linker_0, # of connection points: 2
#     Edge 95, Type (0, 0), BuildingBlock: UVAHIK_clean_linker_0, # of connection points: 2
# Relax obj value: 0.048
# Max RMSD: 0.088
# Mean RMSD: 0.088
data_MOF--net-uod--node1-QUQFOY_clean_sbu_1--edge1-UVAHIK_clean_linker_0
_symmetry_space_group_name_H-M    P1
_symmetry_Int_Tables_number       1
_symmetry_cell_setting            triclinic
loop_
_symmetry_equiv_pos_as_xyz
'x, y, z'
_cell_length_a     116.85945
_cell_length_b     36.634858
_cell_length_c     86.553463
_cell_angle_alpha  89.994113
_cell_angle_beta   89.972802
_cell_angle_gamma 90.0055
loop_
_atom_site_label
_atom_site_type_symbol
_atom_site_fract_x
_atom_site_fract_y
_atom_site_fract_z
_atom_type_partial_charge
O0 O 0.04565 0.44535 0.09243 0.0
Cd1 Cd 0.05366 0.4053 0.07995 0.0
Cd2 Cd 0.04774 0.36841 0.10726 0.0
O3 O 0.03763 0.41357 0.11121 0.0
O4 O 0.05459 0.43027 0.05949 0.0
O5 O 0.04325 0.38315 0.0639 0.0
C6 C 0.04632 0.40964 0.05493 0.0
C7 C 0.0408 0.30989 0.11258 0.0
C8 C 0.03887 0.44326 0.10384 0.0
C9 C 0.07293 0.38122 0.10012 0.0
O10 O 0.06518 0.37417 0.10999 0.0
O11 O 0.07025 0.39058 0.0864 0.0
O12 O 0.0434 0.33238 0.12347 0.0
O13 O 0.04175 0.32114 0.09848 0.0
O14 O 0.22037 0.80581 0.09306 0.0
Cd15 Cd 0.21171 0.84296 0.07975 0.0
Cd16 Cd 0.21733 0.88385 0.1066 0.0
O17 O 0.22764 0.83986 0.1117 0.0
O18 O 0.21081 0.81482 0.06 0.0
O19 O 0.22163 0.8638 0.06279 0.0
C20 C 0.21874 0.83574 0.05461 0.0
C21 C 0.22396 0.94332 0.11066 0.0
C22 C 0.22688 0.80955 0.10468 0.0
C23 C 0.19224 0.8678 0.09968 0.0
O24 O 0.19993 0.87721 0.10928 0.0
O25 O 0.19499 0.85661 0.08622 0.0
O26 O 0.22131 0.9222 0.12202 0.0
O27 O 0.22321 0.93019 0.09684 0.0
O28 O 0.04993 0.79151 0.16208 0.0
Cd29 Cd 0.05673 0.83267 0.1752 0.0
Cd30 Cd 0.05004 0.87051 0.14979 0.0
O31 O 0.03995 0.82522 0.14589 0.0
O32 O 0.05705 0.80903 0.19597 0.0
O33 O 0.04529 0.8542 0.19005 0.0
C34 C 0.04831 0.82878 0.19959 0.0
C35 C 0.04264 0.92918 0.14628 0.0
C36 C 0.04229 0.79431 0.15173 0.0
C37 C 0.07544 0.86 0.15541 0.0
O38 O 0.06741 0.86589 0.1458 0.0
O39 O 0.07308 0.85063 0.16924 0.0
O40 O 0.04493 0.90823 0.13472 0.0
O41 O 0.04417 0.91624 0.16002 0.0
O42 O 0.21459 0.46047 0.1625 0.0
Cd43 Cd 0.20821 0.41784 0.17515 0.0
Cd44 Cd 0.21524 0.38205 0.14947 0.0
O45 O 0.22518 0.42814 0.14652 0.0
O46 O 0.20777 0.43969 0.19624 0.0
O47 O 0.2199 0.39613 0.18953 0.0
C48 C 0.2167 0.42046 0.19947 0.0
C49 C 0.22282 0.32411 0.14464 0.0
C50 C 0.22248 0.45866 0.15245 0.0
C51 C 0.18977 0.39042 0.15511 0.0
O52 O 0.19785 0.38615 0.14542 0.0
O53 O 0.19205 0.39873 0.16907 0.0
O54 O 0.22058 0.34656 0.13358 0.0
O55 O 0.22118 0.33515 0.15865 0.0
O56 O 0.96529 0.54213 0.91362 0.0
Cd57 Cd 0.95883 0.58425 0.92648 0.0
Cd58 Cd 0.966 0.62083 0.90102 0.0
O59 O 0.97597 0.57488 0.89789 0.0
O60 O 0.9582 0.56125 0.94734 0.0
O61 O 0.9704 0.60513 0.94126 0.0
C62 C 0.96711 0.58023 0.9509 0.0
C63 C 0.97357 0.67889 0.89644 0.0
C64 C 0.97323 0.54421 0.90365 0.0
C65 C 0.9405 0.61228 0.90643 0.0
O66 O 0.94863 0.61682 0.89684 0.0
O67 O 0.9427 0.60355 0.92037 0.0
O68 O 0.97137 0.65665 0.8853 0.0
O69 O 0.97189 0.66756 0.91041 0.0
O70 O 0.79673 0.20541 0.9125 0.0
Cd71 Cd 0.80447 0.16439 0.92473 0.0
Cd72 Cd 0.79862 0.12898 0.89733 0.0
O73 O 0.78851 0.17427 0.89371 0.0
O74 O 0.80512 0.18786 0.94553 0.0
O75 O 0.79374 0.14139 0.94018 0.0
C76 C 0.79671 0.16716 0.94957 0.0
C77 C 0.79159 0.07058 0.89204 0.0
C78 C 0.78986 0.20377 0.90117 0.0
C79 C 0.8238 0.1409 0.90454 0.0
O80 O 0.81606 0.13477 0.89454 0.0
O81 O 0.82107 0.14934 0.91836 0.0
O82 O 0.79416 0.09309 0.88113 0.0
O83 O 0.79264 0.08174 0.90614 0.0
O84 O 0.96978 0.19612 0.845 0.0
Cd85 Cd 0.96108 0.15816 0.83215 0.0
Cd86 Cd 0.96651 0.11919 0.85937 0.0
O87 O 0.97683 0.16334 0.86418 0.0
O88 O 0.96019 0.1852 0.81214 0.0
O89 O 0.97091 0.13616 0.81534 0.0
C90 C 0.96805 0.16383 0.80691 0.0
C91 C 0.97326 0.0599 0.86336 0.0
C92 C 0.9762 0.19313 0.85674 0.0
C93 C 0.94148 0.1347 0.8522 0.0
O94 O 0.94911 0.12579 0.86197 0.0
O95 O 0.94433 0.14516 0.83867 0.0
O96 O 0.9706 0.0809 0.87475 0.0
O97 O 0.97244 0.07305 0.84954 0.0
O98 O 0.79838 0.55201 0.84259 0.0
Cd99 Cd 0.80547 0.59271 0.82948 0.0
Cd100 Cd 0.7989 0.63095 0.85502 0.0
O101 O 0.78879 0.58582 0.85918 0.0
O102 O 0.80604 0.56837 0.80888 0.0
O103 O 0.79438 0.61424 0.81415 0.0
C104 C 0.79748 0.58842 0.80485 0.0
C105 C 0.79163 0.68976 0.85852 0.0
C106 C 0.79092 0.55494 0.85317 0.0
C107 C 0.82427 0.6197 0.84923 0.0
O108 O 0.81629 0.6262 0.85883 0.0
O109 O 0.82186 0.60989 0.83548 0.0
O110 O 0.79394 0.66886 0.87008 0.0
O111 O 0.79305 0.67667 0.84478 0.0
O112 O 0.0469 0.95836 0.59572 0.0
Cd113 Cd 0.05576 0.92315 0.58167 0.0
Cd114 Cd 0.05048 0.87811 0.60716 0.0
O115 O 0.0398 0.92043 0.61313 0.0
O116 O 0.05613 0.95198 0.56208 0.0
O117 O 0.04587 0.90174 0.56486 0.0
C118 C 0.0484 0.93026 0.55673 0.0
C119 C 0.04406 0.81815 0.61034 0.0
C120 C 0.04035 0.95191 0.60709 0.0
C121 C 0.07543 0.89702 0.60086 0.0
O122 O 0.06781 0.88556 0.61017 0.0
O123 O 0.0726 0.90999 0.58773 0.0
O124 O 0.04666 0.83839 0.62199 0.0
O125 O 0.04483 0.83233 0.59671 0.0
O126 O 0.21675 0.2954 0.59281 0.0
Cd127 Cd 0.20929 0.33521 0.57962 0.0
Cd128 Cd 0.21554 0.37409 0.60542 0.0
O129 O 0.22616 0.32992 0.60933 0.0
O130 O 0.20869 0.30979 0.55923 0.0
O131 O 0.22012 0.35659 0.56387 0.0
C132 C 0.21711 0.33009 0.55486 0.0
C133 C 0.22216 0.43375 0.60909 0.0
C134 C 0.22425 0.2989 0.6033 0.0
C135 C 0.19028 0.36018 0.59957 0.0
O136 O 0.1982 0.36719 0.60921 0.0
O137 O 0.19278 0.35106 0.58576 0.0
O138 O 0.2201 0.4124 0.6206 0.0
O139 O 0.22087 0.42071 0.59533 0.0
O140 O 0.04402 0.2975 0.65944 0.0
Cd141 Cd 0.05318 0.3327 0.67314 0.0
Cd142 Cd 0.04822 0.37601 0.64628 0.0
O143 O 0.0376 0.33321 0.64076 0.0
O144 O 0.05387 0.30309 0.69252 0.0
O145 O 0.04366 0.35358 0.69053 0.0
C146 C 0.0463 0.32468 0.69832 0.0
C147 C 0.04209 0.43564 0.64134 0.0
C148 C 0.03779 0.30266 0.64764 0.0
C149 C 0.07305 0.357 0.65362 0.0
O150 O 0.06556 0.36791 0.64402 0.0
O151 O 0.07006 0.34502 0.66687 0.0
O152 O 0.04482 0.41364 0.63033 0.0
O153 O 0.04254 0.42344 0.65533 0.0
O154 O 0.22109 0.95289 0.66222 0.0
Cd155 Cd 0.21228 0.91511 0.67501 0.0
Cd156 Cd 0.21773 0.87639 0.6474 0.0
O157 O 0.2285 0.91997 0.64332 0.0
O158 O 0.21128 0.94244 0.69496 0.0
O159 O 0.22204 0.89343 0.69195 0.0
C160 C 0.21914 0.92123 0.70028 0.0
C161 C 0.22374 0.81665 0.64223 0.0
C162 C 0.22777 0.94977 0.65074 0.0
C163 C 0.19276 0.89345 0.65457 0.0
O164 O 0.20041 0.88509 0.64473 0.0
O165 O 0.19555 0.90247 0.6683 0.0
O166 O 0.22146 0.83933 0.63128 0.0
O167 O 0.223 0.82831 0.65629 0.0
O168 O 0.966 0.04721 0.41306 0.0
Cd169 Cd 0.95939 0.08941 0.42578 0.0
Cd170 Cd 0.96651 0.12556 0.40042 0.0
O171 O 0.9765 0.07978 0.39705 0.0
O172 O 0.95899 0.0672 0.44682 0.0
O173 O 0.97093 0.11149 0.44031 0.0
C174 C 0.96782 0.08684 0.45017 0.0
C175 C 0.97388 0.18421 0.39683 0.0
C176 C 0.97383 0.04918 0.40294 0.0
C177 C 0.94102 0.11659 0.40555 0.0
O178 O 0.94919 0.12127 0.39604 0.0
O179 O 0.94317 0.10803 0.41953 0.0
O180 O 0.97186 0.16286 0.38531 0.0
O181 O 0.97219 0.17155 0.41059 0.0
O182 O 0.79412 0.70192 0.40947 0.0
Cd183 Cd 0.80268 0.66192 0.42134 0.0
Cd184 Cd 0.79708 0.62759 0.3934 0.0
O185 O 0.78658 0.67201 0.38982 0.0
O186 O 0.80373 0.68652 0.44189 0.0
O187 O 0.79273 0.63854 0.43769 0.0
C188 C 0.79572 0.6651 0.44665 0.0
C189 C 0.79046 0.56829 0.38925 0.0
C190 C 0.78745 0.70074 0.39792 0.0
C191 C 0.82214 0.64122 0.40058 0.0
O192 O 0.81445 0.63478 0.39055 0.0
O193 O 0.81936 0.64892 0.41446 0.0
O194 O 0.79277 0.58987 0.37789 0.0
O195 O 0.79152 0.58094 0.40312 0.0
O196 O 0.96809 0.70122 0.34244 0.0
Cd197 Cd 0.9598 0.66267 0.32944 0.0
Cd198 Cd 0.96514 0.62367 0.35684 0.0
O199 O 0.97535 0.66829 0.36143 0.0
O200 O 0.95924 0.68891 0.30922 0.0
O201 O 0.97012 0.64054 0.31323 0.0
C202 C 0.96734 0.66776 0.3045 0.0
C203 C 0.97192 0.56496 0.36233 0.0
C204 C 0.97456 0.69824 0.35413 0.0
C205 C 0.9401 0.63858 0.3491 0.0
O206 O 0.94768 0.63001 0.35901 0.0
O207 O 0.94303 0.64899 0.3356 0.0
O208 O 0.96905 0.58732 0.37314 0.0
O209 O 0.97127 0.57633 0.34822 0.0
O210 O 0.80278 0.04857 0.3438 0.0
Cd211 Cd 0.80749 0.08745 0.32807 0.0
Cd212 Cd 0.79982 0.1294 0.35103 0.0
O213 O 0.79006 0.0833 0.3554 0.0
O214 O 0.80712 0.06036 0.30806 0.0
O215 O 0.79479 0.104 0.31401 0.0
C216 C 0.79786 0.07798 0.30479 0.0
C217 C 0.79202 0.18731 0.35559 0.0
C218 C 0.79422 0.05192 0.3527 0.0
C219 C 0.82549 0.12164 0.34581 0.0
O220 O 0.8173 0.12686 0.35526 0.0
O221 O 0.82336 0.11069 0.33215 0.0
O222 O 0.79453 0.16544 0.36673 0.0
O223 O 0.7935 0.17572 0.34163 0.0
O224 O 0.54897 0.45964 0.59225 0.0
Cd225 Cd 0.55585 0.41775 0.57964 0.0
Cd226 Cd 0.54915 0.38159 0.60545 0.0
O227 O 0.53869 0.42657 0.60833 0.0
O228 O 0.55636 0.44031 0.55868 0.0
O229 O 0.54453 0.39549 0.56486 0.0
C230 C 0.54763 0.42042 0.55513 0.0
C231 C 0.54221 0.32267 0.60994 0.0
C232 C 0.5411 0.45723 0.6023 0.0
C233 C 0.5745 0.39267 0.59987 0.0
O234 O 0.56647 0.38779 0.60957 0.0
O235 O 0.57216 0.40033 0.58586 0.0
O236 O 0.54414 0.34507 0.62113 0.0
O237 O 0.54379 0.33428 0.596 0.0
O238 O 0.7188 0.7947 0.59458 0.0
Cd239 Cd 0.70986 0.83 0.58065 0.0
Cd240 Cd 0.71501 0.87444 0.60696 0.0
O241 O 0.72548 0.83148 0.61271 0.0
O242 O 0.70934 0.80075 0.56117 0.0
O243 O 0.71962 0.85101 0.56357 0.0
C244 C 0.71702 0.82232 0.55561 0.0
C245 C 0.72148 0.93376 0.61184 0.0
C246 C 0.72511 0.80046 0.60624 0.0
C247 C 0.69008 0.85579 0.59992 0.0
O248 O 0.69762 0.8671 0.60936 0.0
O249 O 0.693 0.84299 0.58679 0.0
O250 O 0.71859 0.91201 0.62285 0.0
O251 O 0.72094 0.92156 0.59785 0.0
O252 O 0.5436 0.80265 0.65999 0.0
Cd253 Cd 0.55285 0.83867 0.67314 0.0
Cd254 Cd 0.54767 0.87952 0.64589 0.0
O255 O 0.53683 0.8367 0.64101 0.0
O256 O 0.55387 0.80964 0.69266 0.0
O257 O 0.54346 0.85968 0.69064 0.0
C258 C 0.54627 0.83105 0.69851 0.0
C259 C 0.54168 0.93975 0.64202 0.0
C260 C 0.53717 0.80668 0.64831 0.0
C261 C 0.57254 0.86079 0.65287 0.0
O262 O 0.56497 0.87064 0.64317 0.0
O263 O 0.56965 0.85054 0.66642 0.0
O264 O 0.54405 0.91851 0.63058 0.0
O265 O 0.54236 0.92636 0.6558 0.0
O266 O 0.72002 0.45416 0.6598 0.0
Cd267 Cd 0.71123 0.41796 0.67349 0.0
Cd268 Cd 0.71653 0.37499 0.64733 0.0
O269 O 0.72689 0.41821 0.64151 0.0
O270 O 0.7106 0.44633 0.69317 0.0
O271 O 0.72109 0.39659 0.69036 0.0
C272 C 0.71838 0.42484 0.69854 0.0
C273 C 0.72313 0.3154 0.64379 0.0
C274 C 0.72638 0.44904 0.64812 0.0
C275 C 0.69156 0.39209 0.65419 0.0
O276 O 0.69916 0.38156 0.64466 0.0
O277 O 0.69443 0.40452 0.6674 0.0
O278 O 0.72042 0.33588 0.63226 0.0
O279 O 0.72243 0.32923 0.6575 0.0
O280 O 0.46519 0.54399 0.41358 0.0
Cd281 Cd 0.4587 0.58635 0.42627 0.0
Cd282 Cd 0.46563 0.62239 0.40054 0.0
O283 O 0.47565 0.57645 0.39748 0.0
O284 O 0.45829 0.5642 0.44731 0.0
O285 O 0.47031 0.60819 0.44074 0.0
C286 C 0.46717 0.58364 0.45061 0.0
C287 C 0.47303 0.68059 0.39573 0.0
C288 C 0.47302 0.54591 0.40346 0.0
C289 C 0.44018 0.61335 0.40628 0.0
O290 O 0.44824 0.61796 0.39659 0.0
O291 O 0.44248 0.60494 0.42022 0.0
O292 O 0.47083 0.65812 0.38467 0.0
O293 O 0.47147 0.66941 0.40974 0.0
O294 O 0.29475 0.19946 0.40992 0.0
Cd295 Cd 0.30347 0.16181 0.4229 0.0
Cd296 Cd 0.29818 0.12252 0.39567 0.0
O297 O 0.28768 0.16623 0.39089 0.0
O298 O 0.30429 0.18913 0.44286 0.0
O299 O 0.2936 0.13999 0.4397 0.0
C300 C 0.29642 0.16779 0.44808 0.0
C301 C 0.29171 0.06288 0.39168 0.0
C302 C 0.28828 0.19615 0.39823 0.0
C303 C 0.32315 0.13884 0.40291 0.0
O304 O 0.31556 0.12998 0.39307 0.0
O305 O 0.32026 0.14889 0.41647 0.0
O306 O 0.29427 0.08404 0.38029 0.0
O307 O 0.29248 0.07605 0.40549 0.0
O308 O 0.46928 0.199 0.34391 0.0
Cd309 Cd 0.46046 0.16213 0.33065 0.0
Cd310 Cd 0.46588 0.12133 0.35775 0.0
O311 O 0.4763 0.16513 0.36278 0.0
O312 O 0.45947 0.19063 0.31099 0.0
O313 O 0.47021 0.1414 0.31347 0.0
C314 C 0.4673 0.16965 0.30542 0.0
C315 C 0.47243 0.06177 0.36183 0.0
C316 C 0.47571 0.19529 0.3556 0.0
C317 C 0.44087 0.13793 0.35061 0.0
O318 O 0.44849 0.12841 0.3603 0.0
O319 O 0.44371 0.14892 0.33715 0.0
O320 O 0.46978 0.0829 0.37318 0.0
O321 O 0.47171 0.07491 0.348 0.0
O322 O 0.2989 0.54426 0.34114 0.0
Cd323 Cd 0.3056 0.58628 0.32843 0.0
Cd324 Cd 0.29858 0.6228 0.35401 0.0
O325 O 0.28843 0.57718 0.35706 0.0
O326 O 0.30612 0.56383 0.30745 0.0
O327 O 0.29414 0.60815 0.31375 0.0
C328 C 0.2973 0.5834 0.30398 0.0
C329 C 0.29129 0.6812 0.35861 0.0
C330 C 0.29101 0.54651 0.35117 0.0
C331 C 0.32405 0.61309 0.3486 0.0
O332 O 0.31593 0.61798 0.35818 0.0
O333 O 0.32182 0.60458 0.33464 0.0
O334 O 0.29337 0.65882 0.36975 0.0
O335 O 0.2929 0.66983 0.34464 0.0
O336 O 0.55029 0.9537 0.09239 0.0
Cd337 Cd 0.55596 0.91102 0.07924 0.0
Cd338 Cd 0.54868 0.87565 0.10484 0.0
O339 O 0.53877 0.92221 0.10742 0.0
O340 O 0.55646 0.93407 0.05833 0.0
O341 O 0.54391 0.89155 0.06477 0.0
C342 C 0.5473 0.91604 0.05502 0.0
C343 C 0.54114 0.81768 0.11002 0.0
C344 C 0.5421 0.95265 0.102 0.0
C345 C 0.57424 0.88305 0.09909 0.0
O346 O 0.56613 0.87973 0.10882 0.0
O347 O 0.57199 0.89058 0.08504 0.0
O348 O 0.54336 0.84055 0.12094 0.0
O349 O 0.54274 0.82835 0.09595 0.0
O350 O 0.71407 0.293 0.09155 0.0
Cd351 Cd 0.70756 0.33453 0.07838 0.0
Cd352 Cd 0.71452 0.37229 0.10365 0.0
O353 O 0.72434 0.32633 0.10754 0.0
O354 O 0.70723 0.31119 0.05756 0.0
O355 O 0.7192 0.35564 0.06373 0.0
C356 C 0.7161 0.33053 0.05409 0.0
C357 C 0.72217 0.43059 0.10732 0.0
C358 C 0.72177 0.29548 0.10183 0.0
C359 C 0.68904 0.36344 0.09804 0.0
O360 O 0.69712 0.36889 0.10761 0.0
O361 O 0.69132 0.3536 0.08425 0.0
O362 O 0.71981 0.40954 0.11882 0.0
O363 O 0.72063 0.41788 0.09355 0.0
O364 O 0.54889 0.30125 0.16243 0.0
Cd365 Cd 0.55451 0.34424 0.17543 0.0
Cd366 Cd 0.5473 0.37873 0.1499 0.0
O367 O 0.53744 0.33215 0.14711 0.0
O368 O 0.55498 0.32145 0.19636 0.0
O369 O 0.54246 0.364 0.18985 0.0
C370 C 0.54583 0.33957 0.19964 0.0
C371 C 0.53985 0.43718 0.1458 0.0
C372 C 0.54078 0.3019 0.1527 0.0
C373 C 0.57283 0.37174 0.15557 0.0
O374 O 0.56473 0.37477 0.14582 0.0
O375 O 0.57056 0.36451 0.16964 0.0
O376 O 0.54193 0.41533 0.13446 0.0
O377 O 0.54148 0.4251 0.15966 0.0
O378 O 0.71836 0.94655 0.16242 0.0
Cd379 Cd 0.7103 0.90692 0.17511 0.0
Cd380 Cd 0.71619 0.86917 0.1478 0.0
O381 O 0.72623 0.9144 0.14363 0.0
O382 O 0.70955 0.93209 0.19557 0.0
O383 O 0.72072 0.88458 0.19113 0.0
C384 C 0.71776 0.91119 0.20011 0.0
C385 C 0.72315 0.81073 0.14224 0.0
C386 C 0.72506 0.94422 0.15092 0.0
C387 C 0.69098 0.88235 0.15501 0.0
O388 O 0.69875 0.87481 0.14521 0.0
O389 O 0.69366 0.89226 0.16867 0.0
O390 O 0.72043 0.83334 0.13145 0.0
O391 O 0.7223 0.82179 0.15638 0.0
O392 O 0.4643 0.05107 0.91362 0.0
Cd393 Cd 0.45905 0.09408 0.92689 0.0
Cd394 Cd 0.46631 0.12915 0.90119 0.0
O395 O 0.47581 0.08184 0.89829 0.0
O396 O 0.45872 0.07122 0.94784 0.0
O397 O 0.47141 0.11302 0.94102 0.0
C398 C 0.46802 0.08881 0.9509 0.0
C399 C 0.47414 0.18655 0.89569 0.0
C400 C 0.47235 0.05161 0.90377 0.0
C401 C 0.44076 0.12358 0.90746 0.0
O402 O 0.44879 0.12649 0.8976 0.0
O403 O 0.44309 0.11558 0.92144 0.0
O404 O 0.47164 0.1637 0.88489 0.0
O405 O 0.47269 0.17613 0.90983 0.0
O406 O 0.30087 0.70236 0.91248 0.0
Cd407 Cd 0.30626 0.65919 0.92557 0.0
Cd408 Cd 0.29873 0.62453 0.90035 0.0
O409 O 0.28913 0.67161 0.89752 0.0
O410 O 0.30668 0.6817 0.94655 0.0
O411 O 0.29403 0.63978 0.93977 0.0
C412 C 0.29743 0.66394 0.94966 0.0
C413 C 0.29084 0.56665 0.89639 0.0
C414 C 0.29267 0.70184 0.9029 0.0
C415 C 0.32433 0.62988 0.90577 0.0
O416 O 0.31616 0.62713 0.89611 0.0
O417 O 0.32218 0.63775 0.91981 0.0
O418 O 0.29304 0.58824 0.88501 0.0
O419 O 0.29261 0.5787 0.91023 0.0
O420 O 0.464 0.70119 0.84191 0.0
Cd421 Cd 0.45878 0.65788 0.82879 0.0
Cd422 Cd 0.46608 0.62347 0.85428 0.0
O423 O 0.47557 0.67077 0.85725 0.0
O424 O 0.45847 0.68037 0.80779 0.0
O425 O 0.47112 0.63855 0.81471 0.0
C426 C 0.46775 0.66264 0.80477 0.0
C427 C 0.47398 0.56569 0.85855 0.0
C428 C 0.47206 0.7009 0.85173 0.0
C429 C 0.44054 0.6286 0.84833 0.0
O430 O 0.4486 0.62592 0.85815 0.0
O431 O 0.44283 0.6364 0.83431 0.0
O432 O 0.47163 0.58742 0.86983 0.0
O433 O 0.47236 0.57754 0.84465 0.0
O434 O 0.30095 0.0516 0.84328 0.0
Cd435 Cd 0.30642 0.09486 0.83031 0.0
Cd436 Cd 0.29889 0.12943 0.85576 0.0
O437 O 0.28922 0.08238 0.85827 0.0
O438 O 0.30688 0.07249 0.80929 0.0
O439 O 0.29425 0.1145 0.81607 0.0
C440 C 0.29765 0.09038 0.80616 0.0
C441 C 0.29105 0.18693 0.86089 0.0
C442 C 0.29271 0.05216 0.85282 0.0
C443 C 0.3245 0.12364 0.85022 0.0
O444 O 0.31634 0.12641 0.85989 0.0
O445 O 0.32235 0.116 0.83615 0.0
O446 O 0.29331 0.16416 0.87182 0.0
O447 O 0.29275 0.17637 0.84682 0.0
C448 C 0.03061 0.75961 0.13233 0.0
C449 C 0.03623 0.76109 0.14665 0.0
C450 C 0.02591 0.72671 0.12711 0.0
C451 C 0.02788 0.64869 0.11529 0.0
H452 H 0.0138 0.576 0.14178 0.0
C453 C 0.02876 0.50036 0.09689 0.0
C454 C 0.0326 0.47631 0.10838 0.0
C455 C 0.02457 0.53472 0.10083 0.0
C456 C 0.01771 0.59598 0.13422 0.0
H457 H 0.04061 0.73022 0.16723 0.0
H458 H 0.03249 0.67316 0.15813 0.0
H459 H 0.01477 0.63957 0.15026 0.0
H460 H 0.03439 0.46786 0.13299 0.0
H461 H 0.02764 0.52874 0.13997 0.0
H462 H 0.03164 0.60532 0.09977 0.0
C463 C 0.03167 0.69719 0.15091 0.0
C464 C 0.0182 0.63237 0.13904 0.0
C465 C 0.03646 0.72981 0.15604 0.0
C466 C 0.03147 0.48607 0.12396 0.0
C467 C 0.02752 0.52089 0.12791 0.0
C468 C 0.02749 0.61238 0.11054 0.0
C469 C 0.02663 0.69503 0.13623 0.0
C470 C 0.02366 0.65878 0.12985 0.0
C471 C 0.02445 0.54614 0.11633 0.0
C472 C 0.02277 0.58532 0.12018 0.0
H473 H 0.03025 0.78339 0.12491 0.0
H474 H 0.02203 0.72574 0.11575 0.0
H475 H 0.03228 0.66831 0.10805 0.0
H476 H 0.02937 0.49306 0.08478 0.0
H477 H 0.02196 0.55299 0.09165 0.0
C478 C 0.23802 0.75369 0.09895 0.0
C479 C 0.23333 0.7775 0.10995 0.0
C480 C 0.24217 0.71962 0.10339 0.0
C481 C 0.24702 0.65847 0.13747 0.0
H482 H 0.23427 0.58595 0.10974 0.0
C483 C 0.22749 0.52375 0.1572 0.0
C484 C 0.22845 0.49249 0.14788 0.0
C485 C 0.23236 0.55667 0.15257 0.0
C486 C 0.23816 0.60563 0.11746 0.0
H487 H 0.22999 0.78594 0.13426 0.0
H488 H 0.23668 0.72555 0.14205 0.0
H489 H 0.23535 0.64894 0.10155 0.0
H490 H 0.23575 0.47069 0.12678 0.0
H491 H 0.2441 0.52883 0.11847 0.0
H492 H 0.249 0.61491 0.1538 0.0
C493 C 0.2375 0.73337 0.13004 0.0
C494 C 0.23881 0.64194 0.11276 0.0
C495 C 0.2336 0.76793 0.12561 0.0
C496 C 0.23481 0.49442 0.13413 0.0
C497 C 0.23959 0.52761 0.1294 0.0
C498 C 0.24627 0.62208 0.14223 0.0
C499 C 0.24137 0.70823 0.11886 0.0
C500 C 0.24288 0.66907 0.1229 0.0
C501 C 0.23822 0.55919 0.13845 0.0
C502 C 0.24145 0.59559 0.13245 0.0
H503 H 0.23805 0.76086 0.0868 0.0
H504 H 0.24542 0.70146 0.09455 0.0
H505 H 0.25041 0.67851 0.14545 0.0
H506 H 0.22276 0.52304 0.16796 0.0
H507 H 0.23101 0.58061 0.15969 0.0
C508 C 0.9833 0.23529 0.87727 0.0
C509 C 0.98271 0.22539 0.86166 0.0
C510 C 0.98739 0.26981 0.88142 0.0
C511 C 0.98875 0.36089 0.86382 0.0
H512 H 0.99986 0.38804 0.9044 0.0
C513 C 0.97842 0.47931 0.90837 0.0
C514 C 0.97921 0.51051 0.89899 0.0
C515 C 0.98323 0.44639 0.90365 0.0
C516 C 0.99688 0.38084 0.89295 0.0
H517 H 0.98705 0.24141 0.83829 0.0
H518 H 0.99472 0.30076 0.84555 0.0
H519 H 1.00088 0.3243 0.89616 0.0
H520 H 0.98619 0.53227 0.87769 0.0
H521 H 0.99445 0.47409 0.86921 0.0
H522 H 0.98434 0.41699 0.86083 0.0
C523 C 0.99158 0.28288 0.85457 0.0
C524 C 0.9974 0.34436 0.88826 0.0
C525 C 0.98725 0.24885 0.85041 0.0
C526 C 0.98539 0.50857 0.88509 0.0
C527 C 0.99011 0.47537 0.88026 0.0
C528 C 0.98833 0.39727 0.86845 0.0
C529 C 0.99114 0.29459 0.87002 0.0
C530 C 0.99291 0.33374 0.87387 0.0
C531 C 0.98887 0.44382 0.88937 0.0
C532 C 0.99194 0.40737 0.88329 0.0
H533 H 0.97983 0.21755 0.88612 0.0
H534 H 0.98684 0.27789 0.89343 0.0
H535 H 0.98504 0.35387 0.85276 0.0
H536 H 0.97384 0.48005 0.91926 0.0
H537 H 0.98199 0.42248 0.91083 0.0
C538 C 0.78487 0.49062 0.84895 0.0
C539 C 0.7849 0.52179 0.85841 0.0
C540 C 0.78029 0.45788 0.85429 0.0
C541 C 0.77785 0.40928 0.89011 0.0
H542 H 0.76346 0.33565 0.86443 0.0
C543 C 0.77998 0.261 0.90856 0.0
C544 C 0.78356 0.23697 0.8969 0.0
C545 C 0.77559 0.29522 0.90481 0.0
C546 C 0.76747 0.35589 0.87176 0.0
H547 H 0.7795 0.54383 0.88048 0.0
H548 H 0.77165 0.48598 0.89 0.0
H549 H 0.76377 0.39925 0.8559 0.0
H550 H 0.78472 0.22847 0.87222 0.0
H551 H 0.77761 0.28915 0.86554 0.0
H552 H 0.78234 0.3662 0.90542 0.0
C553 C 0.77518 0.48711 0.87843 0.0
C554 C 0.76758 0.3923 0.86692 0.0
C555 C 0.77967 0.52013 0.873 0.0
C556 C 0.78201 0.24667 0.88139 0.0
C557 C 0.77786 0.28136 0.8776 0.0
C558 C 0.77783 0.37297 0.89488 0.0
C559 C 0.77571 0.45548 0.86924 0.0
C560 C 0.77314 0.41908 0.8758 0.0
C561 C 0.775 0.30654 0.88931 0.0
C562 C 0.773 0.3456 0.88552 0.0
H563 H 0.7887 0.49119 0.83756 0.0
H564 H 0.78096 0.43392 0.84701 0.0
H565 H 0.78234 0.42918 0.89711 0.0
H566 H 0.7809 0.25374 0.92064 0.0
H567 H 0.77316 0.31342 0.9141 0.0
C568 C 0.02529 0.99867 0.60376 0.0
C569 C 0.03349 0.98196 0.6132 0.0
C570 C 0.02029 0.03163 0.60821 0.0
C571 C 0.02004 0.10125 0.64019 0.0
H572 H 0.01846 0.16858 0.60573 0.0
C573 C 0.02369 0.25331 0.6519 0.0
C574 C 0.03107 0.27189 0.64185 0.0
C575 C 0.01907 0.21964 0.64766 0.0
C576 C 0.01891 0.15026 0.61552 0.0
H577 H 0.04268 0.985 0.6348 0.0
H578 H 0.03455 0.04347 0.64229 0.0
H579 H 0.01982 0.10385 0.6008 0.0
H580 H 0.03906 0.2715 0.61935 0.0
H581 H 0.0317 0.21179 0.61221 0.0
H582 H 0.02048 0.14774 0.65486 0.0
C583 C 0.03149 0.0309 0.63176 0.0
C584 C 0.01947 0.11279 0.6127 0.0
C585 C 0.03624 0.99743 0.62748 0.0
C586 C 0.03327 0.2576 0.62717 0.0
C587 C 0.02897 0.22337 0.6231 0.0
C588 C 0.01981 0.13874 0.64299 0.0
C589 C 0.02373 0.0491 0.62193 0.0
C590 C 0.02054 0.08783 0.62499 0.0
C591 C 0.02216 0.20325 0.63355 0.0
C592 C 0.01975 0.16385 0.63067 0.0
H593 H 0.02308 0.9869 0.59267 0.0
H594 H 0.01412 0.04414 0.60053 0.0
H595 H 0.02045 0.08292 0.64998 0.0
H596 H 0.02185 0.26419 0.66328 0.0
H597 H 0.01357 0.20572 0.65582 0.0
C598 C 0.23543 0.99194 0.63053 0.0
C599 C 0.23444 0.98199 0.6461 0.0
C600 C 0.23956 0.02657 0.62658 0.0
C601 C 0.24002 0.11757 0.64419 0.0
H602 H 0.25251 0.14533 0.60441 0.0
C603 C 0.23615 0.26481 0.6227 0.0
C604 C 0.23064 0.26621 0.6083 0.0
C605 C 0.24104 0.23212 0.62787 0.0
C606 C 0.24913 0.13799 0.61564 0.0
H607 H 0.23813 0.99809 0.66966 0.0
H608 H 0.24582 0.05766 0.66278 0.0
H609 H 0.25346 0.08161 0.61268 0.0
H610 H 0.22671 0.2355 0.58751 0.0
H611 H 0.23511 0.17888 0.59652 0.0
H612 H 0.23521 0.17342 0.64687 0.0
C613 C 0.24299 0.03969 0.65361 0.0
C614 C 0.24962 0.10151 0.62035 0.0
C615 C 0.23864 0.00553 0.65756 0.0
C616 C 0.23076 0.23515 0.59878 0.0
C617 C 0.23572 0.20277 0.60385 0.0
C618 C 0.23958 0.15395 0.63953 0.0
C619 C 0.24293 0.05142 0.63815 0.0
C620 C 0.24466 0.09065 0.63442 0.0
C621 C 0.24062 0.20056 0.61862 0.0
C622 C 0.2437 0.16428 0.62494 0.0
H623 H 0.23221 0.97416 0.62152 0.0
H624 H 0.23931 0.03468 0.61455 0.0
H625 H 0.23594 0.11033 0.655 0.0
H626 H 0.23625 0.28842 0.63023 0.0
H627 H 0.24481 0.23119 0.63929 0.0
C628 C 0.9789 0.98409 0.40745 0.0
C629 C 0.97967 0.01535 0.3981 0.0
C630 C 0.98342 0.95094 0.40247 0.0
C631 C 0.9874 0.90228 0.36688 0.0
H632 H 0.99996 0.82758 0.39374 0.0
C633 C 0.98539 0.75446 0.34788 0.0
C634 C 0.98102 0.73057 0.35909 0.0
C635 C 0.98982 0.78828 0.35215 0.0
C636 C 0.99647 0.84812 0.38608 0.0
H637 H 0.98636 0.03699 0.37661 0.0
H638 H 0.9941 0.97848 0.3677 0.0
H639 H 0.99953 0.89111 0.40236 0.0
H640 H 0.97851 0.72182 0.38357 0.0
H641 H 0.98569 0.78183 0.3911 0.0
H642 H 0.98353 0.85962 0.35106 0.0
C643 C 0.99 0.97985 0.37891 0.0
C644 C 0.99629 0.88448 0.39098 0.0
C645 C 0.98558 0.01325 0.384 0.0
C646 C 0.98184 0.7399 0.37475 0.0
C647 C 0.98603 0.77422 0.37903 0.0
C648 C 0.98749 0.86602 0.36203 0.0
C649 C 0.98873 0.94822 0.38797 0.0
C650 C 0.99138 0.91167 0.38163 0.0
C651 C 0.98965 0.79937 0.3677 0.0
C652 C 0.99166 0.83828 0.37178 0.0
H653 H 0.97453 0.98494 0.41849 0.0
H654 H 0.98217 0.927 0.40963 0.0
H655 H 0.98342 0.92251 0.3595 0.0
H656 H 0.98502 0.74746 0.33572 0.0
H657 H 0.99286 0.80645 0.34317 0.0
C658 C 0.77698 0.75615 0.40614 0.0
C659 C 0.78096 0.73387 0.39409 0.0
C660 C 0.77304 0.79129 0.40309 0.0
C661 C 0.76756 0.85962 0.37192 0.0
H662 H 0.78535 0.92223 0.39894 0.0
C663 C 0.7776 0.01661 0.36343 0.0
C664 C 0.78932 0.01899 0.35983 0.0
C665 C 0.77304 0.98394 0.36919 0.0
C666 C 0.78009 0.90525 0.39154 0.0
H667 H 0.78302 0.72918 0.36933 0.0
H668 H 0.7766 0.79144 0.36395 0.0
H669 H 0.78261 0.85856 0.40574 0.0
H670 H 0.80548 0.98989 0.35982 0.0
H671 H 0.79759 0.9336 0.37033 0.0
H672 H 0.76587 0.90654 0.35719 0.0
C673 C 0.77626 0.78157 0.37574 0.0
C674 C 0.77847 0.86876 0.39542 0.0
C675 C 0.78 0.746 0.37879 0.0
C676 C 0.79642 0.98875 0.36245 0.0
C677 C 0.79193 0.95664 0.36848 0.0
C678 C 0.76914 0.8964 0.36809 0.0
C679 C 0.77329 0.80515 0.38796 0.0
C680 C 0.77258 0.84513 0.38536 0.0
C681 C 0.78022 0.95388 0.37176 0.0
C682 C 0.77581 0.91894 0.3776 0.0
H683 H 0.77745 0.74703 0.41804 0.0
H684 H 0.77054 0.80845 0.41271 0.0
H685 H 0.76291 0.84215 0.36401 0.0
H686 H 0.77196 0.03955 0.36139 0.0
H687 H 0.76397 0.98214 0.37167 0.0
C688 C 0.52548 0.75217 0.65442 0.0
C689 C 0.53036 0.77517 0.64326 0.0
C690 C 0.52106 0.71828 0.65022 0.0
C691 C 0.51579 0.65607 0.61661 0.0
H692 H 0.52859 0.58419 0.64461 0.0
C693 C 0.53546 0.52162 0.59724 0.0
C694 C 0.53482 0.49059 0.60674 0.0
C695 C 0.5304 0.55432 0.60178 0.0
C696 C 0.52467 0.60367 0.63682 0.0
H697 H 0.53372 0.78244 0.61888 0.0
H698 H 0.52652 0.72235 0.61151 0.0
H699 H 0.5276 0.6474 0.65249 0.0
H700 H 0.52784 0.46883 0.62805 0.0
H701 H 0.51913 0.52659 0.63618 0.0
H702 H 0.51369 0.61209 0.60053 0.0
C703 C 0.52578 0.73069 0.62347 0.0
C704 C 0.52408 0.64011 0.64134 0.0
C705 C 0.52997 0.76507 0.62766 0.0
C706 C 0.52853 0.49241 0.62055 0.0
C707 C 0.52355 0.52539 0.62519 0.0
C708 C 0.51647 0.61952 0.61204 0.0
C709 C 0.52175 0.70625 0.63483 0.0
C710 C 0.52004 0.66702 0.63109 0.0
C711 C 0.52466 0.55684 0.61598 0.0
C712 C 0.52133 0.59326 0.6219 0.0
H713 H 0.52555 0.75976 0.66652 0.0
H714 H 0.51771 0.70066 0.6592 0.0
H715 H 0.51242 0.67594 0.60855 0.0
H716 H 0.54011 0.52097 0.58642 0.0
H717 H 0.53155 0.57814 0.59452 0.0
C718 C 0.73967 0.75218 0.60268 0.0
C719 C 0.73182 0.77 0.6123 0.0
C720 C 0.74451 0.71904 0.60722 0.0
C721 C 0.74469 0.65051 0.63968 0.0
H722 H 0.74546 0.58211 0.60556 0.0
C723 C 0.74043 0.49866 0.65213 0.0
C724 C 0.73296 0.48001 0.64223 0.0
C725 C 0.74504 0.53223 0.64774 0.0
C726 C 0.74521 0.60073 0.61526 0.0
H727 H 0.72311 0.76877 0.63431 0.0
H728 H 0.73087 0.70992 0.64193 0.0
H729 H 0.74445 0.6467 0.6003 0.0
H730 H 0.72475 0.48024 0.61989 0.0
H731 H 0.7321 0.5398 0.6125 0.0
H732 H 0.74409 0.60448 0.65461 0.0
C733 C 0.73381 0.72174 0.63119 0.0
C734 C 0.74487 0.63813 0.61225 0.0
C735 C 0.72927 0.75545 0.62683 0.0
C736 C 0.73061 0.4942 0.62759 0.0
C737 C 0.73492 0.52833 0.62336 0.0
C738 C 0.74468 0.6131 0.64268 0.0
C739 C 0.7412 0.70243 0.6212 0.0
C740 C 0.74411 0.66353 0.62442 0.0
C741 C 0.74188 0.54844 0.63362 0.0
C742 C 0.74445 0.58763 0.63049 0.0
H743 H 0.74176 0.76328 0.59142 0.0
H744 H 0.75043 0.70574 0.59942 0.0
H745 H 0.74453 0.66913 0.64939 0.0
H746 H 0.74237 0.48785 0.66348 0.0
H747 H 0.75065 0.54615 0.65575 0.0
C748 C 0.48514 0.51006 0.38491 0.0
C749 C 0.47897 0.51211 0.39881 0.0
C750 C 0.48981 0.47678 0.38007 0.0
C751 C 0.49635 0.382 0.39275 0.0
H752 H 0.48479 0.35568 0.35233 0.0
C753 C 0.48274 0.23678 0.37642 0.0
C754 C 0.48229 0.22718 0.36076 0.0
C755 C 0.48684 0.27117 0.38076 0.0
C756 C 0.48842 0.36251 0.36347 0.0
H757 H 0.47356 0.48173 0.41908 0.0
H758 H 0.4816 0.42403 0.41064 0.0
H759 H 0.4841 0.4187 0.36054 0.0
H760 H 0.48689 0.24358 0.33753 0.0
H761 H 0.49457 0.30268 0.34513 0.0
H762 H 0.50025 0.32536 0.39589 0.0
C763 C 0.48289 0.44791 0.40346 0.0
C764 C 0.488 0.39885 0.36818 0.0
C765 C 0.47814 0.48092 0.4082 0.0
C766 C 0.48699 0.25077 0.34968 0.0
C767 C 0.49132 0.28467 0.35403 0.0
C768 C 0.49686 0.34556 0.38799 0.0
C769 C 0.48851 0.44524 0.38918 0.0
C770 C 0.49153 0.40873 0.38308 0.0
C771 C 0.49073 0.29611 0.36951 0.0
C772 C 0.49248 0.33519 0.37351 0.0
H773 H 0.48599 0.53374 0.3775 0.0
H774 H 0.49415 0.47545 0.36903 0.0
H775 H 0.49926 0.38901 0.40425 0.0
H776 H 0.47914 0.21894 0.38514 0.0
H777 H 0.48617 0.27905 0.39279 0.0
C778 C 0.28562 0.48178 0.34639 0.0
C779 C 0.28493 0.51294 0.3558 0.0
C780 C 0.28078 0.44892 0.35113 0.0
C781 C 0.27578 0.39989 0.38641 0.0
H782 H 0.26328 0.3267 0.35876 0.0
C783 C 0.27708 0.25157 0.40453 0.0
C784 C 0.28167 0.22819 0.39329 0.0
C785 C 0.27267 0.28549 0.40035 0.0
C786 C 0.26674 0.34682 0.36665 0.0
H787 H 0.27806 0.53473 0.37717 0.0
H788 H 0.26974 0.47667 0.38566 0.0
H789 H 0.26422 0.39042 0.35048 0.0
H790 H 0.28457 0.22034 0.36884 0.0
H791 H 0.27742 0.2805 0.36149 0.0
H792 H 0.27912 0.35656 0.40212 0.0
C793 C 0.27403 0.47791 0.37458 0.0
C794 C 0.26722 0.38329 0.36194 0.0
C795 C 0.27879 0.51105 0.36974 0.0
C796 C 0.28105 0.23803 0.37768 0.0
C797 C 0.27688 0.27244 0.3735 0.0
C798 C 0.27539 0.36351 0.39106 0.0
C799 C 0.2752 0.44636 0.36545 0.0
C800 C 0.27214 0.40991 0.37157 0.0
C801 C 0.27309 0.29716 0.38489 0.0
C802 C 0.27126 0.33628 0.38103 0.0
H803 H 0.29017 0.48249 0.33548 0.0
H804 H 0.28196 0.42502 0.34393 0.0
H805 H 0.27975 0.41966 0.39401 0.0
H806 H 0.27731 0.24418 0.41665 0.0
H807 H 0.2695 0.30333 0.40936 0.0
C808 C 0.52679 0.26531 0.13683 0.0
C809 C 0.53536 0.267 0.14819 0.0
C810 C 0.52221 0.23155 0.13235 0.0
C811 C 0.52198 0.13239 0.14317 0.0
H812 H 0.52258 0.11725 0.0989 0.0
C813 C 0.54008 0.02002 0.09955 0.0
C814 C 0.53652 0.98729 0.1065 0.0
C815 C 0.53532 0.05321 0.10394 0.0
C816 C 0.52229 0.12101 0.1113 0.0
H817 H 0.54548 0.23472 0.16421 0.0
H818 H 0.53785 0.17664 0.15621 0.0
H819 H 0.52271 0.17904 0.10907 0.0
H820 H 0.52476 0.96361 0.12311 0.0
H821 H 0.51637 0.02213 0.13087 0.0
H822 H 0.52276 0.07439 0.14541 0.0
C823 C 0.53442 0.20106 0.1509 0.0
C824 C 0.52221 0.15652 0.11715 0.0
C825 C 0.53895 0.23453 0.15535 0.0
C826 C 0.52776 0.98842 0.11764 0.0
C827 C 0.52296 0.0219 0.12207 0.0
C828 C 0.52225 0.09688 0.13732 0.0
C829 C 0.52611 0.19898 0.1392 0.0
C830 C 0.52274 0.16257 0.13315 0.0
C831 C 0.5268 0.05473 0.11538 0.0
C832 C 0.5231 0.09089 0.12134 0.0
H833 H 0.52377 0.2899 0.1312 0.0
H834 H 0.51578 0.23089 0.12335 0.0
H835 H 0.52203 0.13616 0.15558 0.0
H836 H 0.54676 0.02025 0.09087 0.0
H837 H 0.53872 0.07786 0.09878 0.0
C838 C 0.73223 0.98661 0.13049 0.0
C839 C 0.73127 0.9772 0.14613 0.0
C840 C 0.7361 0.02137 0.12631 0.0
C841 C 0.73634 0.11331 0.14331 0.0
H842 H 0.74859 0.13963 0.10322 0.0
C843 C 0.73343 0.26042 0.12115 0.0
C844 C 0.72766 0.26196 0.10693 0.0
C845 C 0.73802 0.22737 0.12638 0.0
C846 C 0.74529 0.13266 0.11453 0.0
H847 H 0.73474 0.99452 0.16959 0.0
H848 H 0.74205 0.05433 0.16232 0.0
H849 H 0.7496 0.0762 0.11189 0.0
H850 H 0.7229 0.23096 0.08654 0.0
H851 H 0.73084 0.17365 0.09566 0.0
H852 H 0.73166 0.16936 0.14573 0.0
C853 C 0.73934 0.03584 0.15327 0.0
C854 C 0.7458 0.09636 0.11946 0.0
C855 C 0.73522 0.00155 0.15744 0.0
C856 C 0.72716 0.23052 0.09766 0.0
C857 C 0.73185 0.19775 0.10279 0.0
C858 C 0.73593 0.14954 0.13845 0.0
C859 C 0.73928 0.04691 0.13772 0.0
C860 C 0.74092 0.08602 0.13366 0.0
C861 C 0.73706 0.19558 0.11736 0.0
C862 C 0.73999 0.15932 0.12377 0.0
H863 H 0.72921 0.96818 0.12159 0.0
H864 H 0.73585 0.02893 0.11422 0.0
H865 H 0.73232 0.1065 0.1542 0.0
H866 H 0.734 0.28431 0.12848 0.0
H867 H 0.74202 0.2264 0.13766 0.0
C868 C 0.47334 0.76853 0.84958 0.0
C869 C 0.47726 0.73603 0.85638 0.0
C870 C 0.47778 0.8021 0.85408 0.0
C871 C 0.49063 0.84652 0.88745 0.0
H872 H 0.48967 0.92896 0.85936 0.0
C873 C 0.48606 0.01495 0.8875 0.0
C874 C 0.47759 0.01662 0.89901 0.0
C875 C 0.4905 0.98118 0.8828 0.0
C876 C 0.4903 0.90637 0.86738 0.0
H877 H 0.48928 0.71326 0.87286 0.0
H878 H 0.4971 0.77244 0.88078 0.0
H879 H 0.48997 0.86726 0.84906 0.0
H880 H 0.46749 0.98426 0.91504 0.0
H881 H 0.4749 0.92613 0.90667 0.0
H882 H 0.4908 0.88563 0.90577 0.0
C883 C 0.49049 0.77171 0.87202 0.0
C884 C 0.49031 0.87091 0.86147 0.0
C885 C 0.48602 0.73785 0.8675 0.0
C886 C 0.47395 0.98408 0.90607 0.0
C887 C 0.47835 0.95059 0.9014 0.0
C888 C 0.49078 0.88198 0.89335 0.0
C889 C 0.48631 0.80426 0.86546 0.0
C890 C 0.48973 0.84066 0.87146 0.0
C891 C 0.48657 0.94857 0.88958 0.0
C892 C 0.48987 0.91223 0.88341 0.0
H893 H 0.46665 0.76824 0.84093 0.0
H894 H 0.47413 0.82651 0.84902 0.0
H895 H 0.49027 0.82392 0.8955 0.0
H896 H 0.48911 0.03959 0.88193 0.0
H897 H 0.49686 0.98055 0.8737 0.0
C898 C 0.29104 0.76931 0.90536 0.0
C899 C 0.28729 0.7368 0.8984 0.0
C900 C 0.28645 0.80276 0.90101 0.0
C901 C 0.27366 0.84734 0.8677 0.0
H902 H 0.27428 0.92917 0.89612 0.0
C903 C 0.27858 0.0156 0.86848 0.0
C904 C 0.28727 0.01725 0.85725 0.0
C905 C 0.27394 0.98188 0.87287 0.0
C906 C 0.27374 0.90675 0.888 0.0
H907 H 0.27541 0.71384 0.88179 0.0
H908 H 0.26734 0.77284 0.87408 0.0
H909 H 0.27391 0.86725 0.90617 0.0
H910 H 0.29753 0.98495 0.84139 0.0
H911 H 0.28975 0.92689 0.84924 0.0
H912 H 0.2737 0.88684 0.84952 0.0
C913 C 0.27392 0.7722 0.88288 0.0
C914 C 0.27368 0.87117 0.89377 0.0
C915 C 0.27854 0.73846 0.88727 0.0
C916 C 0.2909 0.98477 0.85016 0.0
C917 C 0.28629 0.95133 0.85451 0.0
C918 C 0.27356 0.88292 0.86193 0.0
C919 C 0.27794 0.80478 0.88959 0.0
C920 C 0.27441 0.84115 0.88368 0.0
C921 C 0.27787 0.94931 0.86606 0.0
C922 C 0.27438 0.91294 0.87201 0.0
H923 H 0.29772 0.76914 0.91403 0.0
H924 H 0.28997 0.82722 0.90618 0.0
H925 H 0.27414 0.82491 0.85958 0.0
H926 H 0.27553 0.0402 0.87406 0.0
H927 H 0.26742 0.98124 0.88176 0.0
C928 C 0.97107 0.53966 0.97358 0.0
C929 C 0.97443 0.56897 0.96411 0.0
C930 C 0.97886 0.52324 0.9837 0.0
C931 C 0.01006 0.50994 0.9884 0.0
H932 H 1.00136 0.46863 0.02793 0.0
C933 C 0.04265 0.45047 0.03224 0.0
C934 C 0.03927 0.42064 0.04142 0.0
C935 C 0.03496 0.46677 0.02194 0.0
C936 C 1.0039 0.47951 0.01681 0.0
H937 H 0.98847 0.60546 0.95862 0.0
H938 H 1.00198 0.57737 0.97655 0.0
H939 H 0.98744 0.50376 0.01315 0.0
H940 H 0.02536 0.38312 0.04617 0.0
H941 H 0.01201 0.41119 0.028 0.0
H942 H 0.02653 0.48581 0.99212 0.0
C943 C 0.99338 0.56651 0.97588 0.0
C944 C 0.99591 0.49984 0.00835 0.0
C945 C 0.98557 0.58297 0.96575 0.0
C946 C 0.02827 0.40599 0.03927 0.0
C947 C 0.02055 0.42241 0.029 0.0
C948 C 0.01805 0.48967 0.99688 0.0
C949 C 0.99023 0.5357 0.98464 0.0
C950 C 0.99887 0.51534 0.99402 0.0
C951 C 0.02369 0.45373 0.02057 0.0
C952 C 0.01507 0.47412 0.01119 0.0
H953 H 0.96258 0.52805 0.9726 0.0
H954 H 0.97611 0.49952 0.99018 0.0
H955 H 0.0126 0.52077 0.97728 0.0
H956 H 0.05104 0.46256 0.03361 0.0
H957 H 0.03768 0.49087 0.01569 0.0
C958 C 0.29335 0.70503 0.97215 0.0
C959 C 0.29 0.67564 0.96272 0.0
C960 C 0.28556 0.72149 0.98228 0.0
C961 C 0.25428 0.73372 0.98765 0.0
H962 H 0.26345 0.77655 0.02668 0.0
C963 C 0.22225 0.79302 0.03248 0.0
C964 C 0.22561 0.82384 0.04106 0.0
C965 C 0.22981 0.77649 0.02205 0.0
C966 C 0.26077 0.76519 0.0157 0.0
H967 H 0.27596 0.63918 0.95727 0.0
H968 H 0.26246 0.66719 0.97526 0.0
H969 H 0.27727 0.74166 0.01164 0.0
H970 H 0.23936 0.86264 0.04468 0.0
H971 H 0.2525 0.83402 0.02637 0.0
H972 H 0.23773 0.757 0.99186 0.0
C973 C 0.27105 0.67815 0.97454 0.0
C974 C 0.26871 0.74504 0.00708 0.0
C975 C 0.27885 0.66173 0.96436 0.0
C976 C 0.23646 0.83903 0.03824 0.0
C977 C 0.24406 0.82233 0.02788 0.0
C978 C 0.24632 0.75373 0.99633 0.0
C979 C 0.2742 0.70894 0.98332 0.0
C980 C 0.2656 0.72907 0.99289 0.0
C981 C 0.24095 0.79022 0.01999 0.0
C982 C 0.24948 0.76985 0.01044 0.0
H983 H 0.30184 0.71664 0.97116 0.0
H984 H 0.28833 0.74523 0.98872 0.0
H985 H 0.25159 0.72252 0.97666 0.0
H986 H 0.21397 0.7805 0.03437 0.0
H987 H 0.22712 0.75178 0.01622 0.0
C988 C 0.0299 0.83324 0.21454 0.0
C989 C 0.04087 0.81803 0.21278 0.0
C990 C 0.02195 0.8176 0.22474 0.0
C991 C 0.01543 0.72862 0.24301 0.0
H992 H 0.99365 0.78439 0.26713 0.0
C993 C 0.98532 0.66293 0.28869 0.0
C994 C 0.97448 0.67863 0.29104 0.0
C995 C 0.99313 0.6787 0.27835 0.0
C996 C 0.99955 0.76832 0.26028 0.0
H997 H 0.05232 0.77585 0.22118 0.0
H998 H 0.03859 0.74913 0.23909 0.0
H999 H 0.00813 0.81616 0.25194 0.0
H1000 H 0.96308 0.72179 0.28349 0.0
H1001 H 0.97652 0.74858 0.26521 0.0
H1002 H 1.00684 0.68079 0.25128 0.0
C1003 C 0.03601 0.77262 0.23234 0.0
C1004 C 0.0079 0.78662 0.25161 0.0
C1005 C 0.04394 0.78825 0.22218 0.0
C1006 C 0.97137 0.70902 0.28204 0.0
C1007 C 0.97914 0.7247 0.27167 0.0
C1008 C 1.00707 0.71032 0.25165 0.0
C1009 C 0.0248 0.78635 0.23341 0.0
C1010 C 0.01598 0.76703 0.24289 0.0
C1011 C 0.99027 0.71051 0.27005 0.0
C1012 C 0.999 0.72989 0.26043 0.0
H1013 H 0.02721 0.85601 0.20743 0.0
H1014 H 0.0134 0.82889 0.22522 0.0
H1015 H 0.02136 0.71259 0.23619 0.0
H1016 H 0.98805 0.63972 0.29551 0.0
H1017 H 1.00162 0.66702 0.27748 0.0
C1018 C 0.22074 0.45908 0.22273 0.0
C1019 C 0.22412 0.43084 0.21271 0.0
C1020 C 0.22858 0.4749 0.23296 0.0
C1021 C 0.25731 0.46373 0.2509 0.0
H1022 H 0.25655 0.56953 0.25261 0.0
C1023 C 0.29334 0.54456 0.28076 0.0
C1024 C 0.28995 0.57296 0.29069 0.0
C1025 C 0.28553 0.52872 0.2705 0.0
C1026 C 0.25684 0.53999 0.25239 0.0
H1027 H 0.23826 0.39567 0.20628 0.0
H1028 H 0.25192 0.42315 0.22414 0.0
H1029 H 0.24221 0.53682 0.23756 0.0
H1030 H 0.27582 0.60838 0.29692 0.0
H1031 H 0.26221 0.58083 0.27902 0.0
H1032 H 0.27192 0.46689 0.26574 0.0
C1033 C 0.24319 0.43307 0.22413 0.0
C1034 C 0.24858 0.52116 0.24379 0.0
C1035 C 0.23534 0.4172 0.21389 0.0
C1036 C 0.27875 0.58672 0.28938 0.0
C1037 C 0.27093 0.57082 0.27911 0.0
C1038 C 0.26557 0.48256 0.25951 0.0
C1039 C 0.24001 0.46292 0.23344 0.0
C1040 C 0.24869 0.48276 0.24294 0.0
C1041 C 0.27412 0.54081 0.26989 0.0
C1042 C 0.26546 0.52096 0.26036 0.0
H1043 H 0.21217 0.47022 0.22219 0.0
H1044 H 0.22574 0.49722 0.24022 0.0
H1045 H 0.25759 0.43419 0.25067 0.0
H1046 H 0.3019 0.53332 0.28141 0.0
H1047 H 0.28838 0.50629 0.26331 0.0
C1048 C 0.77848 0.16227 0.96483 0.0
C1049 C 0.78946 0.17737 0.96301 0.0
C1050 C 0.77061 0.17787 0.97514 0.0
C1051 C 0.76765 0.24343 0.00788 0.0
H1052 H 0.737 0.25644 0.99164 0.0
C1053 C 0.73463 0.3342 0.03939 0.0
C1054 C 0.72355 0.31963 0.04094 0.0
C1055 C 0.74254 0.31832 0.02923 0.0
C1056 C 0.74549 0.25281 0.99643 0.0
H1057 H 0.80101 0.21927 0.9714 0.0
H1058 H 0.78739 0.24619 0.98935 0.0
H1059 H 0.75115 0.22275 0.97663 0.0
H1060 H 0.71193 0.27822 0.03229 0.0
H1061 H 0.72566 0.25072 0.01465 0.0
H1062 H 0.76199 0.27346 0.02768 0.0
C1063 C 0.7848 0.22233 0.98284 0.0
C1064 C 0.7536 0.2333 0.98784 0.0
C1065 C 0.79264 0.20683 0.97252 0.0
C1066 C 0.72037 0.29027 0.03138 0.0
C1067 C 0.72827 0.27445 0.02123 0.0
C1068 C 0.75953 0.26291 0.01648 0.0
C1069 C 0.77356 0.20882 0.98393 0.0
C1070 C 0.7648 0.22833 0.99344 0.0
C1071 C 0.73957 0.28754 0.02035 0.0
C1072 C 0.74833 0.26791 0.01087 0.0
H1073 H 0.77572 0.13966 0.95769 0.0
H1074 H 0.76211 0.16627 0.97591 0.0
H1075 H 0.77614 0.23985 0.01265 0.0
H1076 H 0.73739 0.35673 0.04658 0.0
H1077 H 0.75109 0.32963 0.02863 0.0
C1078 C 0.98541 0.15788 0.78991 0.0
C1079 C 0.97488 0.17481 0.79318 0.0
C1080 C 0.99304 0.17344 0.77927 0.0
C1081 C 1.00018 0.26354 0.76246 0.0
H1082 H 0.01962 0.20754 0.73504 0.0
C1083 C 0.0291 0.33011 0.71562 0.0
C1084 C 0.03954 0.31301 0.71201 0.0
C1085 C 0.02151 0.31426 0.72624 0.0
C1086 C 0.01439 0.22361 0.74279 0.0
H1087 H 0.96381 0.22004 0.78698 0.0
H1088 H 0.97697 0.2466 0.76827 0.0
H1089 H 1.00541 0.17625 0.75084 0.0
H1090 H 0.0505 0.2671 0.71757 0.0
H1091 H 0.03746 0.2401 0.73632 0.0
H1092 H 0.00917 0.31089 0.75447 0.0
C1093 C 0.97948 0.22181 0.7742 0.0
C1094 C 1.00618 0.20561 0.75182 0.0
C1095 C 0.97186 0.2063 0.78481 0.0
C1096 C 0.04252 0.28097 0.72001 0.0
C1097 C 0.03496 0.2652 0.73064 0.0
C1098 C 0.00839 0.28154 0.75346 0.0
C1099 C 0.99032 0.20628 0.77165 0.0
C1100 C 0.99894 0.22533 0.76176 0.0
C1101 C 0.0242 0.28098 0.73354 0.0
C1102 C 0.01562 0.26184 0.74349 0.0
H1103 H 0.98805 0.13377 0.79621 0.0
H1104 H 1.00132 0.16072 0.77763 0.0
H1105 H 0.99492 0.2796 0.77021 0.0
H1106 H 0.02648 0.35464 0.7096 0.0
H1107 H 0.0133 0.32718 0.72811 0.0
C1108 C 0.72219 0.46731 0.72064 0.0
C1109 C 0.72528 0.4361 0.71214 0.0
C1110 C 0.72983 0.48309 0.73114 0.0
C1111 C 0.76085 0.49078 0.73797 0.0
H1112 H 0.7517 0.53565 0.7766 0.0
C1113 C 0.79339 0.54741 0.78236 0.0
C1114 C 0.79028 0.57767 0.79144 0.0
C1115 C 0.78562 0.53186 0.77199 0.0
C1116 C 0.75438 0.5238 0.76572 0.0
H1117 H 0.73862 0.39577 0.70875 0.0
H1118 H 0.75191 0.42302 0.72723 0.0
H1119 H 0.73763 0.50238 0.76129 0.0
H1120 H 0.77675 0.6167 0.79597 0.0
H1121 H 0.76326 0.59012 0.77759 0.0
H1122 H 0.77757 0.51235 0.74232 0.0
C1123 C 0.74362 0.43565 0.72557 0.0
C1124 C 0.74631 0.5045 0.75698 0.0
C1125 C 0.73594 0.41973 0.71511 0.0
C1126 C 0.77944 0.59343 0.78916 0.0
C1127 C 0.77165 0.57786 0.77876 0.0
C1128 C 0.76892 0.51017 0.74668 0.0
C1129 C 0.74079 0.46815 0.73336 0.0
C1130 C 0.74944 0.48765 0.74301 0.0
C1131 C 0.77451 0.54619 0.77038 0.0
C1132 C 0.76581 0.52692 0.7607 0.0
H1133 H 0.71406 0.48071 0.71862 0.0
H1134 H 0.72736 0.50814 0.73689 0.0
H1135 H 0.76353 0.47882 0.72711 0.0
H1136 H 0.80165 0.53445 0.78383 0.0
H1137 H 0.78814 0.50742 0.76583 0.0
C1138 C 0.98614 0.09244 0.46525 0.0
C1139 C 0.97523 0.07673 0.46346 0.0
C1140 C 0.99407 0.07742 0.47561 0.0
C1141 C 1.00095 0.98921 0.4941 0.0
H1142 H 0.02192 0.04637 0.51891 0.0
C1143 C 0.03075 0.92478 0.54033 0.0
C1144 C 0.0414 0.94136 0.5432 0.0
C1145 C 0.02303 0.94028 0.52983 0.0
C1146 C 0.01626 0.02992 0.51187 0.0
H1147 H 0.96391 0.03427 0.47194 0.0
H1148 H 0.97765 0.00854 0.49008 0.0
H1149 H 0.00748 0.07719 0.50332 0.0
H1150 H 0.05255 0.9859 0.53644 0.0
H1151 H 0.03927 0.01219 0.51782 0.0
H1152 H 0.00975 0.94195 0.50252 0.0
C1153 C 0.98016 0.032 0.48326 0.0
C1154 C 0.00793 0.04767 0.50298 0.0
C1155 C 0.97223 0.04706 0.47296 0.0
C1156 C 0.04441 0.97246 0.53457 0.0
C1157 C 0.03672 0.98783 0.52402 0.0
C1158 C 0.00931 0.97145 0.50293 0.0
C1159 C 0.9913 0.04627 0.48438 0.0
C1160 C 1.00013 0.02755 0.49403 0.0
C1161 C 0.02577 0.97266 0.52186 0.0
C1162 C 0.01708 0.99153 0.51198 0.0
H1163 H 0.98877 0.11515 0.45807 0.0
H1164 H 1.00258 0.0891 0.47615 0.0
H1165 H 0.99523 0.97283 0.48711 0.0
H1166 H 0.02811 0.901 0.54686 0.0
H1167 H 0.01467 0.92785 0.52857 0.0
C1168 C 0.27882 0.16281 0.46465 0.0
C1169 C 0.28952 0.17895 0.46173 0.0
C1170 C 0.27116 0.17869 0.47518 0.0
C1171 C 0.26467 0.26886 0.49263 0.0
H1172 H 0.24378 0.21332 0.51825 0.0
C1173 C 0.23509 0.33477 0.539 0.0
C1174 C 0.22427 0.319 0.54145 0.0
C1175 C 0.24287 0.31898 0.52861 0.0
C1176 C 0.24945 0.22929 0.51101 0.0
H1177 H 0.30087 0.22304 0.46843 0.0
H1178 H 0.2877 0.25005 0.48701 0.0
H1179 H 0.2581 0.18147 0.50283 0.0
H1180 H 0.21288 0.2756 0.53408 0.0
H1181 H 0.2263 0.24863 0.51582 0.0
H1182 H 0.25603 0.31668 0.50086 0.0
C1183 C 0.28506 0.22572 0.48087 0.0
C1184 C 0.2577 0.21096 0.50219 0.0
C1185 C 0.29268 0.20992 0.47033 0.0
C1186 C 0.22115 0.28845 0.53255 0.0
C1187 C 0.22891 0.27268 0.52219 0.0
C1188 C 0.25644 0.28719 0.50148 0.0
C1189 C 0.27405 0.21104 0.48307 0.0
C1190 C 0.26543 0.23048 0.49286 0.0
C1191 C 0.24 0.28703 0.52044 0.0
C1192 C 0.24869 0.26765 0.51076 0.0
H1193 H 0.27606 0.13913 0.45815 0.0
H1194 H 0.26276 0.16663 0.4765 0.0
H1195 H 0.27031 0.28485 0.48537 0.0
H1196 H 0.23782 0.35814 0.54573 0.0
H1197 H 0.25133 0.33077 0.5276 0.0
C1198 C 0.22262 0.96323 0.72267 0.0
C1199 C 0.22597 0.93262 0.71395 0.0
C1200 C 0.23016 0.97942 0.7332 0.0
C1201 C 0.26113 0.99026 0.73971 0.0
H1202 H 0.25186 0.03237 0.77883 0.0
C1203 C 0.29361 0.04953 0.78358 0.0
C1204 C 0.29026 0.07885 0.79305 0.0
C1205 C 0.28585 0.03325 0.77338 0.0
C1206 C 0.25457 0.02132 0.76782 0.0
H1207 H 0.23969 0.8938 0.71019 0.0
H1208 H 0.25281 0.9218 0.7287 0.0
H1209 H 0.23801 0.99827 0.76347 0.0
H1210 H 0.27623 0.11536 0.7985 0.0
H1211 H 0.26277 0.08765 0.7804 0.0
H1212 H 0.27763 0.01356 0.74392 0.0
C1213 C 0.24438 0.93361 0.7272 0.0
C1214 C 0.24662 0.00153 0.75905 0.0
C1215 C 0.2368 0.91725 0.71673 0.0
C1216 C 0.27912 0.09286 0.79139 0.0
C1217 C 0.27135 0.07661 0.78114 0.0
C1218 C 0.26905 0.01019 0.74843 0.0
C1219 C 0.24128 0.96555 0.73523 0.0
C1220 C 0.24981 0.98563 0.74489 0.0
C1221 C 0.2745 0.04589 0.77231 0.0
C1222 C 0.26591 0.02596 0.76264 0.0
H1223 H 0.21436 0.97589 0.72079 0.0
H1224 H 0.22748 0.00401 0.73913 0.0
H1225 H 0.26382 0.97907 0.72871 0.0
H1226 H 0.30209 0.03784 0.78458 0.0
H1227 H 0.28861 0.00956 0.7669 0.0
C1228 C 0.77823 0.65846 0.46336 0.0
C1229 C 0.78885 0.67517 0.46048 0.0
C1230 C 0.77057 0.67353 0.47409 0.0
C1231 C 0.76361 0.76271 0.49181 0.0
H1232 H 0.74373 0.70579 0.51832 0.0
C1233 C 0.73442 0.82786 0.53868 0.0
C1234 C 0.72391 0.81088 0.54199 0.0
C1235 C 0.74206 0.81223 0.52808 0.0
C1236 C 0.74909 0.72214 0.51082 0.0
H1237 H 0.80006 0.71941 0.46748 0.0
H1238 H 0.78683 0.74513 0.48631 0.0
H1239 H 0.75798 0.67494 0.50241 0.0
H1240 H 0.71289 0.76542 0.53596 0.0
H1241 H 0.72604 0.73884 0.51723 0.0
H1242 H 0.7547 0.80988 0.50012 0.0
C1243 C 0.78429 0.7209 0.48002 0.0
C1244 C 0.75731 0.70438 0.50173 0.0
C1245 C 0.79193 0.70585 0.46933 0.0
C1246 C 0.72093 0.77919 0.53375 0.0
C1247 C 0.72855 0.76366 0.52313 0.0
C1248 C 0.75537 0.78045 0.50086 0.0
C1249 C 0.77335 0.70568 0.48218 0.0
C1250 C 0.76471 0.72443 0.49213 0.0
C1251 C 0.73937 0.77931 0.52049 0.0
C1252 C 0.74799 0.76044 0.5105 0.0
H1253 H 0.77553 0.63497 0.45669 0.0
H1254 H 0.76222 0.66107 0.47542 0.0
H1255 H 0.769 0.77903 0.48432 0.0
H1256 H 0.73704 0.85211 0.5449 0.0
H1257 H 0.75032 0.82505 0.52643 0.0
C1258 C 0.73566 0.90597 0.21607 0.0
C1259 C 0.72483 0.92176 0.21367 0.0
C1260 C 0.7434 0.9215 0.22655 0.0
C1261 C 0.74612 0.98834 0.25886 0.0
H1262 H 0.77718 0.99854 0.24369 0.0
C1263 C 0.77914 0.07944 0.29042 0.0
C1264 C 0.79022 0.06502 0.29218 0.0
C1265 C 0.77125 0.06283 0.28045 0.0
C1266 C 0.76859 0.99567 0.2482 0.0
H1267 H 0.71343 0.96496 0.2212 0.0
H1268 H 0.72684 0.99177 0.23947 0.0
H1269 H 0.76315 0.96509 0.22844 0.0
H1270 H 0.8018 0.02268 0.28426 0.0
H1271 H 0.7881 0.99385 0.26699 0.0
H1272 H 0.75157 0.01891 0.27863 0.0
C1273 C 0.72939 0.96741 0.23327 0.0
C1274 C 0.76053 0.97631 0.23947 0.0
C1275 C 0.72167 0.95198 0.22276 0.0
C1276 C 0.79337 0.03468 0.28316 0.0
C1277 C 0.78549 0.01811 0.27321 0.0
C1278 C 0.75419 0.00765 0.26762 0.0
C1279 C 0.74049 0.9531 0.23495 0.0
C1280 C 0.74918 0.97239 0.24466 0.0
C1281 C 0.77422 0.03141 0.27197 0.0
C1282 C 0.76554 0.01164 0.26241 0.0
H1283 H 0.7384 0.88277 0.20925 0.0
H1284 H 0.75179 0.90931 0.22777 0.0
H1285 H 0.73751 0.98558 0.26332 0.0
H1286 H 0.77641 0.10271 0.29719 0.0
H1287 H 0.76273 0.0743 0.27958 0.0
C1288 C 0.48575 0.58741 0.46514 0.0
C1289 C 0.4746 0.57329 0.46384 0.0
C1290 C 0.49364 0.57167 0.47536 0.0
C1291 C 0.49649 0.50773 0.50869 0.0
H1292 H 0.52686 0.49168 0.49195 0.0
C1293 C 0.52917 0.41636 0.54039 0.0
C1294 C 0.54028 0.43066 0.54181 0.0
C1295 C 0.5213 0.43205 0.53013 0.0
C1296 C 0.51846 0.49614 0.49687 0.0
H1297 H 0.46282 0.533 0.47304 0.0
H1298 H 0.4765 0.50578 0.4908 0.0
H1299 H 0.51279 0.52554 0.47691 0.0
H1300 H 0.55205 0.47122 0.53279 0.0
H1301 H 0.53841 0.49833 0.51492 0.0
H1302 H 0.50216 0.4783 0.52865 0.0
C1303 C 0.47919 0.529 0.48396 0.0
C1304 C 0.51038 0.51576 0.48826 0.0
C1305 C 0.47132 0.54467 0.47374 0.0
C1306 C 0.54357 0.45941 0.53198 0.0
C1307 C 0.53572 0.47501 0.5217 0.0
C1308 C 0.50456 0.48809 0.51729 0.0
C1309 C 0.49056 0.54153 0.48456 0.0
C1310 C 0.49928 0.52185 0.49405 0.0
C1311 C 0.52437 0.46233 0.521 0.0
C1312 C 0.51566 0.482 0.5115 0.0
H1313 H 0.48858 0.60937 0.45768 0.0
H1314 H 0.50225 0.58254 0.47574 0.0
H1315 H 0.48809 0.51221 0.51362 0.0
H1316 H 0.52632 0.3943 0.54779 0.0
H1317 H 0.5127 0.42108 0.52965 0.0
C1318 C 0.54306 0.78839 0.72074 0.0
C1319 C 0.53961 0.81927 0.71227 0.0
C1320 C 0.53566 0.77202 0.73142 0.0
C1321 C 0.50818 0.78473 0.75294 0.0
H1322 H 0.50765 0.67886 0.75222 0.0
C1323 C 0.47191 0.70373 0.7823 0.0
C1324 C 0.47522 0.67428 0.79174 0.0
C1325 C 0.47974 0.7201 0.7722 0.0
C1326 C 0.50774 0.7084 0.75266 0.0
H1327 H 0.52587 0.85824 0.70905 0.0
H1328 H 0.51294 0.82965 0.72753 0.0
H1329 H 0.52166 0.71172 0.73666 0.0
H1330 H 0.48922 0.63773 0.79726 0.0
H1331 H 0.50284 0.66605 0.77949 0.0
H1332 H 0.49414 0.78131 0.76878 0.0
C1333 C 0.52141 0.81816 0.72607 0.0
C1334 C 0.51583 0.72734 0.74379 0.0
C1335 C 0.52885 0.83468 0.71545 0.0
C1336 C 0.48635 0.66021 0.79012 0.0
C1337 C 0.49418 0.67653 0.77994 0.0
C1338 C 0.50005 0.76579 0.76173 0.0
C1339 C 0.52457 0.78592 0.73386 0.0
C1340 C 0.51617 0.76581 0.74378 0.0
C1341 C 0.49107 0.7074 0.77121 0.0
C1342 C 0.4997 0.72738 0.76168 0.0
H1343 H 0.5513 0.77584 0.71863 0.0
H1344 H 0.53854 0.74785 0.73747 0.0
H1345 H 0.50826 0.81426 0.75345 0.0
H1346 H 0.46341 0.7153 0.7832 0.0
H1347 H 0.47697 0.74332 0.76541 0.0
C1348 C 0.48489 0.16651 0.28878 0.0
C1349 C 0.47405 0.18159 0.29176 0.0
C1350 C 0.49237 0.18321 0.27827 0.0
C1351 C 0.49786 0.27407 0.2606 0.0
H1352 H 0.51976 0.22061 0.23574 0.0
C1353 C 0.52731 0.34196 0.21446 0.0
C1354 C 0.53845 0.32795 0.21276 0.0
C1355 C 0.51952 0.32552 0.22465 0.0
C1356 C 0.51379 0.23599 0.24276 0.0
H1357 H 0.46228 0.22461 0.28516 0.0
H1358 H 0.47513 0.25292 0.26652 0.0
H1359 H 0.50565 0.18734 0.25097 0.0
H1360 H 0.5503 0.28698 0.2212 0.0
H1361 H 0.53682 0.25878 0.23903 0.0
H1362 H 0.50598 0.32275 0.25225 0.0
C1363 C 0.47803 0.22887 0.27264 0.0
C1364 C 0.50567 0.21687 0.25149 0.0
C1365 C 0.47059 0.21231 0.28321 0.0
C1366 C 0.5418 0.29849 0.22216 0.0
C1367 C 0.53401 0.28201 0.23228 0.0
C1368 C 0.50595 0.2932 0.2518 0.0
C1369 C 0.48917 0.2153 0.2704 0.0
C1370 C 0.4976 0.2356 0.26058 0.0
C1371 C 0.52267 0.2946 0.23333 0.0
C1372 C 0.51407 0.27442 0.24283 0.0
H1373 H 0.48788 0.14308 0.29525 0.0
H1374 H 0.50089 0.17198 0.27694 0.0
H1375 H 0.49196 0.28955 0.26768 0.0
H1376 H 0.5244 0.36445 0.20735 0.0
H1377 H 0.51085 0.33592 0.22515 0.0
C1378 C 0.47185 0.04873 0.97382 0.0
C1379 C 0.47546 0.0769 0.9639 0.0
C1380 C 0.47956 0.03191 0.98394 0.0
C1381 C 0.5084 0.04033 1.00193 0.0
H1382 H 0.50656 0.93471 0.00392 0.0
C1383 C 0.5436 0.95599 0.03203 0.0
C1384 C 0.53995 0.92778 0.0419 0.0
C1385 C 0.53593 0.97274 0.02181 0.0
C1386 C 0.50715 0.9642 0.00362 0.0
H1387 H 0.48994 0.11068 0.95749 0.0
H1388 H 0.50338 0.08145 0.97516 0.0
H1389 H 0.49259 0.96866 0.98873 0.0
H1390 H 0.52547 0.89381 0.04812 0.0
H1391 H 0.51212 0.92293 0.03031 0.0
H1392 H 0.52294 0.03588 0.01683 0.0
C1393 C 0.49456 0.07239 0.97516 0.0
C1394 C 0.4991 0.98375 0.99494 0.0
C1395 C 0.48683 0.08926 0.96502 0.0
C1396 C 0.52861 0.91527 0.04062 0.0
C1397 C 0.52093 0.93208 0.0304 0.0
C1398 C 0.51644 0.02078 0.01062 0.0
C1399 C 0.49111 0.04276 0.98443 0.0
C1400 C 0.49959 0.02211 0.99398 0.0
C1401 C 0.5244 0.96179 0.02119 0.0
C1402 C 0.51594 0.98242 0.01159 0.0
H1403 H 0.46316 0.03853 0.97332 0.0
H1404 H 0.47652 0.00978 0.99116 0.0
H1405 H 0.50898 0.06982 1.00163 0.0
H1406 H 0.55227 0.96631 0.03265 0.0
H1407 H 0.539 0.99491 0.01464 0.0
C1408 C 0.16848 0.38757 0.16007 0.0
C1409 C 0.17774 0.38722 0.14968 0.0
C1410 C 0.15719 0.38553 0.15462 0.0
C1411 C 0.13967 0.40407 0.12009 0.0
H1412 H 0.11767 0.33879 0.13904 0.0
C1413 C 0.09416 0.38388 0.09457 0.0
C1414 C 0.0851 0.3798 0.10513 0.0
C1415 C 0.10556 0.38344 0.09969 0.0
C1416 C 0.12364 0.35757 0.13372 0.0
H1417 H 0.18231 0.38435 0.12537 0.0
H1418 H 0.16273 0.38114 0.11599 0.0
H1419 H 0.13715 0.34157 0.14905 0.0
H1420 H 0.08101 0.37227 0.1294 0.0
H1421 H 0.10065 0.37251 0.13826 0.0
H1422 H 0.12616 0.42078 0.10498 0.0
C1423 C 0.16418 0.38307 0.12832 0.0
C1424 C 0.13483 0.35907 0.13946 0.0
C1425 C 0.17542 0.38467 0.13375 0.0
C1426 C 0.08773 0.37519 0.12088 0.0
C1427 C 0.09906 0.37508 0.12598 0.0
C1428 C 0.12845 0.40288 0.11444 0.0
C1429 C 0.15492 0.38359 0.13866 0.0
C1430 C 0.14297 0.38232 0.13272 0.0
C1431 C 0.10817 0.37919 0.1155 0.0
C1432 C 0.12025 0.37965 0.12118 0.0
H1433 H 0.16995 0.38952 0.17239 0.0
H1434 H 0.15022 0.38619 0.16287 0.0
H1435 H 0.14572 0.42257 0.11474 0.0
H1436 H 0.09246 0.38738 0.08237 0.0
H1437 H 0.11233 0.38619 0.09122 0.0
C1438 C 0.09676 0.86162 0.16034 0.0
C1439 C 0.0875 0.86253 0.14997 0.0
C1440 C 0.10806 0.86319 0.15486 0.0
C1441 C 0.12554 0.84402 0.12035 0.0
H1442 H 0.1476 0.9097 0.13885 0.0
C1443 C 0.17099 0.86357 0.09435 0.0
C1444 C 0.18007 0.86866 0.10478 0.0
C1445 C 0.15961 0.86383 0.09958 0.0
C1446 C 0.14162 0.89076 0.13365 0.0
H1447 H 0.08293 0.86573 0.12568 0.0
H1448 H 0.10252 0.86802 0.11625 0.0
H1449 H 0.12817 0.90712 0.14904 0.0
H1450 H 0.18424 0.87753 0.12894 0.0
H1451 H 0.16466 0.87684 0.13799 0.0
H1452 H 0.13898 0.82692 0.1052 0.0
C1453 C 0.10107 0.86611 0.12858 0.0
C1454 C 0.13046 0.88939 0.13951 0.0
C1455 C 0.08982 0.86504 0.13404 0.0
C1456 C 0.17749 0.8739 0.1205 0.0
C1457 C 0.16618 0.87376 0.12572 0.0
C1458 C 0.13674 0.84503 0.11461 0.0
C1459 C 0.11033 0.86513 0.1389 0.0
C1460 C 0.12228 0.86606 0.13291 0.0
C1461 C 0.15704 0.86882 0.11537 0.0
C1462 C 0.14497 0.8684 0.12118 0.0
H1463 H 0.09529 0.85968 0.17266 0.0
H1464 H 0.11503 0.86222 0.16309 0.0
H1465 H 0.11945 0.82548 0.11511 0.0
H1466 H 0.17266 0.85955 0.08216 0.0
H1467 H 0.15282 0.86042 0.09119 0.0
C1468 C 0.83873 0.62653 0.87039 0.0
C1469 C 0.83635 0.62192 0.85457 0.0
C1470 C 0.84999 0.62697 0.8758 0.0
C1471 C 0.87957 0.59989 0.86486 0.0
H1472 H 0.88777 0.66049 0.89991 0.0
C1473 C 0.92629 0.61879 0.88495 0.0
C1474 C 0.9285 0.61561 0.90089 0.0
C1475 C 0.91508 0.62041 0.87939 0.0
C1476 C 0.88558 0.64319 0.89021 0.0
H1477 H 0.84406 0.61488 0.83199 0.0
H1478 H 0.86378 0.61673 0.84136 0.0
H1479 H 0.86839 0.6631 0.88954 0.0
H1480 H 0.92056 0.61228 0.92348 0.0
H1481 H 0.90089 0.61564 0.91373 0.0
H1482 H 0.89688 0.5806 0.86541 0.0
C1483 C 0.85689 0.61914 0.84966 0.0
C1484 C 0.87445 0.64459 0.88424 0.0
C1485 C 0.84557 0.61835 0.84425 0.0
C1486 C 0.91917 0.61471 0.91116 0.0
C1487 C 0.90792 0.61676 0.90557 0.0
C1488 C 0.89073 0.59881 0.87073 0.0
C1489 C 0.85925 0.62321 0.86555 0.0
C1490 C 0.87126 0.62279 0.87153 0.0
C1491 C 0.90576 0.61926 0.88961 0.0
C1492 C 0.89385 0.62034 0.8835 0.0
H1493 H 0.83186 0.62909 0.87873 0.0
H1494 H 0.85138 0.62943 0.88812 0.0
H1495 H 0.87743 0.58217 0.85528 0.0
H1496 H 0.93324 0.61957 0.87666 0.0
H1497 H 0.91372 0.62278 0.86705 0.0
C1498 C 0.92654 0.12928 0.87283 0.0
C1499 C 0.92928 0.13408 0.85712 0.0
C1500 C 0.91518 0.12965 0.87785 0.0
C1501 C 0.88589 0.15838 0.86606 0.0
H1502 H 0.8768 0.09644 0.9003 0.0
C1503 C 0.83868 0.13745 0.88376 0.0
C1504 C 0.83599 0.1394 0.8996 0.0
C1505 C 0.85004 0.13692 0.87876 0.0
C1506 C 0.87924 0.11415 0.89083 0.0
H1507 H 0.92208 0.14265 0.83434 0.0
H1508 H 0.90217 0.14222 0.84303 0.0
H1509 H 0.8964 0.09397 0.8907 0.0
H1510 H 0.84325 0.14194 0.92261 0.0
H1511 H 0.86321 0.14043 0.91384 0.0
H1512 H 0.86859 0.17782 0.86602 0.0
C1513 C 0.90887 0.13897 0.85155 0.0
C1514 C 0.8905 0.11283 0.88531 0.0
C1515 C 0.9203 0.13897 0.84652 0.0
C1516 C 0.84501 0.14043 0.91034 0.0
C1517 C 0.85643 0.13943 0.90532 0.0
C1518 C 0.8746 0.15937 0.87147 0.0
C1519 C 0.90615 0.13442 0.86732 0.0
C1520 C 0.89402 0.13505 0.87288 0.0
C1521 C 0.85907 0.13793 0.88945 0.0
C1522 C 0.87114 0.13733 0.88394 0.0
H1523 H 0.93321 0.12579 0.88139 0.0
H1524 H 0.91352 0.12686 0.8901 0.0
H1525 H 0.88827 0.17641 0.85668 0.0
H1526 H 0.83198 0.13667 0.87511 0.0
H1527 H 0.85177 0.13532 0.86648 0.0
C1528 C 0.17152 0.89544 0.66018 0.0
C1529 C 0.18059 0.89381 0.64951 0.0
C1530 C 0.16013 0.89582 0.65505 0.0
C1531 C 0.14228 0.91887 0.62132 0.0
H1532 H 0.12005 0.85301 0.63938 0.0
C1533 C 0.09666 0.90229 0.59556 0.0
C1534 C 0.0876 0.8963 0.60594 0.0
C1535 C 0.10805 0.90175 0.60073 0.0
C1536 C 0.12607 0.87205 0.63433 0.0
H1537 H 0.18472 0.89172 0.62505 0.0
H1538 H 0.16497 0.89288 0.61623 0.0
H1539 H 0.13958 0.85392 0.64925 0.0
H1540 H 0.08347 0.88575 0.62999 0.0
H1541 H 0.10307 0.88602 0.63898 0.0
H1542 H 0.12879 0.93768 0.60662 0.0
C1543 C 0.16664 0.89378 0.62853 0.0
C1544 C 0.13729 0.87245 0.64 0.0
C1545 C 0.17798 0.89286 0.63363 0.0
C1546 C 0.09021 0.89005 0.62159 0.0
C1547 C 0.10152 0.88996 0.62677 0.0
C1548 C 0.13102 0.91884 0.61577 0.0
C1549 C 0.15758 0.89521 0.63915 0.0
C1550 C 0.14553 0.89575 0.63353 0.0
C1551 C 0.11064 0.89562 0.61644 0.0
C1552 C 0.12274 0.89537 0.62217 0.0
H1553 H 0.17323 0.89621 0.67247 0.0
H1554 H 0.1533 0.89709 0.66351 0.0
H1555 H 0.14843 0.93738 0.61618 0.0
H1556 H 0.09497 0.90709 0.58342 0.0
H1557 H 0.11482 0.90574 0.59235 0.0
C1558 C 0.08803 0.36205 0.63307 0.0
C1559 C 0.08527 0.35726 0.64878 0.0
C1560 C 0.0994 0.3618 0.6281 0.0
C1561 C 0.12879 0.37833 0.64068 0.0
H1562 H 0.13696 0.32163 0.60448 0.0
C1563 C 0.17577 0.36352 0.62085 0.0
C1564 C 0.17819 0.36107 0.60495 0.0
C1565 C 0.1645 0.36301 0.62623 0.0
C1566 C 0.13483 0.33812 0.61445 0.0
H1567 H 0.0924 0.34877 0.6716 0.0
H1568 H 0.11241 0.34903 0.6629 0.0
H1569 H 0.11736 0.32033 0.61409 0.0
H1570 H 0.17054 0.35672 0.58223 0.0
H1571 H 0.1508 0.35705 0.59157 0.0
H1572 H 0.14612 0.39704 0.64086 0.0
C1573 C 0.10567 0.35279 0.65446 0.0
C1574 C 0.12359 0.33715 0.62002 0.0
C1575 C 0.09422 0.35251 0.65944 0.0
C1576 C 0.16899 0.35853 0.59454 0.0
C1577 C 0.15767 0.35844 0.59994 0.0
C1578 C 0.14001 0.37968 0.635 0.0
C1579 C 0.10836 0.3572 0.63871 0.0
C1580 C 0.12043 0.35725 0.63319 0.0
C1581 C 0.15526 0.36048 0.61589 0.0
C1582 C 0.14321 0.35955 0.6218 0.0
H1583 H 0.08138 0.36569 0.62448 0.0
H1584 H 0.10118 0.36569 0.61593 0.0
H1585 H 0.12659 0.39452 0.65072 0.0
H1586 H 0.18262 0.36517 0.62925 0.0
H1587 H 0.16308 0.36388 0.63859 0.0
C1588 C 0.84686 0.12135 0.34136 0.0
C1589 C 0.83748 0.12559 0.35137 0.0
C1590 C 0.85809 0.12261 0.34707 0.0
C1591 C 0.87525 0.14948 0.38189 0.0
H1592 H 0.89763 0.08339 0.36429 0.0
C1593 C 0.91964 0.11938 0.40999 0.0
C1594 C 0.92905 0.11964 0.39984 0.0
C1595 C 0.90842 0.1214 0.40423 0.0
C1596 C 0.89149 0.10217 0.36927 0.0
H1597 H 0.83263 0.13489 0.37528 0.0
H1598 H 0.85201 0.13607 0.38519 0.0
H1599 H 0.87834 0.08527 0.35366 0.0
H1600 H 0.93396 0.12232 0.37566 0.0
H1601 H 0.91454 0.12544 0.36575 0.0
H1602 H 0.88843 0.16562 0.39774 0.0
C1603 C 0.8508 0.13263 0.37287 0.0
C1604 C 0.88043 0.10345 0.36311 0.0
C1605 C 0.83962 0.13172 0.36716 0.0
C1606 C 0.92696 0.12207 0.38385 0.0
C1607 C 0.9158 0.12363 0.37813 0.0
C1608 C 0.88629 0.14788 0.38816 0.0
C1609 C 0.86022 0.12781 0.36296 0.0
C1610 C 0.87213 0.12717 0.3693 0.0
C1611 C 0.90639 0.12319 0.38821 0.0
C1612 C 0.89455 0.12429 0.38189 0.0
H1613 H 0.84553 0.1167 0.32913 0.0
H1614 H 0.8651 0.11944 0.339 0.0
H1615 H 0.8692 0.16857 0.38683 0.0
H1616 H 0.92093 0.11754 0.42235 0.0
H1617 H 0.90133 0.12085 0.41228 0.0
C1618 C 0.92502 0.63228 0.36951 0.0
C1619 C 0.92786 0.63764 0.35386 0.0
C1620 C 0.91363 0.63241 0.3744 0.0
C1621 C 0.88439 0.66146 0.3625 0.0
H1622 H 0.87515 0.59819 0.39622 0.0
C1623 C 0.83708 0.63976 0.3798 0.0
C1624 C 0.83435 0.64064 0.39565 0.0
C1625 C 0.84846 0.63971 0.37484 0.0
C1626 C 0.87762 0.61628 0.3869 0.0
H1627 H 0.9208 0.64697 0.33106 0.0
H1628 H 0.90083 0.64616 0.33951 0.0
H1629 H 0.89479 0.59611 0.38678 0.0
H1630 H 0.84156 0.64195 0.41871 0.0
H1631 H 0.86154 0.6413 0.41 0.0
H1632 H 0.86709 0.68092 0.36246 0.0
C1633 C 0.90747 0.64263 0.34808 0.0
C1634 C 0.88891 0.61518 0.38147 0.0
C1635 C 0.91894 0.64284 0.34319 0.0
C1636 C 0.84334 0.64125 0.40643 0.0
C1637 C 0.85478 0.64074 0.40145 0.0
C1638 C 0.87307 0.66225 0.36783 0.0
C1639 C 0.90466 0.63751 0.36379 0.0
C1640 C 0.89249 0.63788 0.36923 0.0
C1641 C 0.85746 0.64015 0.38558 0.0
C1642 C 0.86956 0.63975 0.38013 0.0
H1643 H 0.93163 0.62852 0.37813 0.0
H1644 H 0.91189 0.62917 0.38661 0.0
H1645 H 0.88681 0.67984 0.35327 0.0
H1646 H 0.8304 0.63936 0.37113 0.0
H1647 H 0.85021 0.63884 0.36256 0.0
C1648 C 0.59579 0.39079 0.59489 0.0
C1649 C 0.58656 0.39096 0.60532 0.0
C1650 C 0.6071 0.38996 0.60033 0.0
C1651 C 0.62467 0.41305 0.63426 0.0
H1652 H 0.6467 0.34571 0.61674 0.0
C1653 C 0.67037 0.3968 0.65982 0.0
C1654 C 0.67936 0.39085 0.64932 0.0
C1655 C 0.65894 0.3959 0.65482 0.0
C1656 C 0.64073 0.36511 0.62165 0.0
H1657 H 0.58203 0.39048 0.62967 0.0
H1658 H 0.60166 0.38944 0.63903 0.0
H1659 H 0.62719 0.34686 0.60682 0.0
H1660 H 0.68332 0.37986 0.62524 0.0
H1661 H 0.66365 0.37942 0.61655 0.0
H1662 H 0.63821 0.432 0.64884 0.0
C1663 C 0.60017 0.38995 0.62668 0.0
C1664 C 0.62953 0.36565 0.61595 0.0
C1665 C 0.58891 0.3903 0.62127 0.0
C1666 C 0.67664 0.38418 0.63373 0.0
C1667 C 0.66529 0.38367 0.62873 0.0
C1668 C 0.63592 0.41283 0.63984 0.0
C1669 C 0.6094 0.38982 0.6163 0.0
C1670 C 0.62137 0.38961 0.62219 0.0
C1671 C 0.65625 0.38937 0.63917 0.0
C1672 C 0.64413 0.38891 0.6336 0.0
H1673 H 0.59429 0.39131 0.58255 0.0
H1674 H 0.61405 0.39007 0.59205 0.0
H1675 H 0.6186 0.43207 0.63921 0.0
H1676 H 0.67215 0.40193 0.6719 0.0
H1677 H 0.65223 0.39997 0.66326 0.0
C1678 C 0.58737 0.86201 0.63199 0.0
C1679 C 0.58471 0.86016 0.64785 0.0
C1680 C 0.59871 0.86087 0.62692 0.0
C1681 C 0.6281 0.88035 0.6387 0.0
H1682 H 0.6365 0.81655 0.60478 0.0
C1683 C 0.67519 0.86207 0.62054 0.0
C1684 C 0.67788 0.85648 0.60486 0.0
C1685 C 0.66385 0.86224 0.6256 0.0
C1686 C 0.6343 0.835 0.61409 0.0
H1687 H 0.592 0.85589 0.6708 0.0
H1688 H 0.61194 0.85469 0.66189 0.0
H1689 H 0.61683 0.8171 0.61422 0.0
H1690 H 0.67063 0.8469 0.5822 0.0
H1691 H 0.65072 0.84843 0.59094 0.0
H1692 H 0.6454 0.89921 0.63837 0.0
C1693 C 0.60515 0.85681 0.65343 0.0
C1694 C 0.62302 0.8351 0.61957 0.0
C1695 C 0.59374 0.85737 0.65852 0.0
C1696 C 0.66887 0.85119 0.59435 0.0
C1697 C 0.65745 0.85183 0.59941 0.0
C1698 C 0.63934 0.88064 0.6331 0.0
C1699 C 0.60774 0.85835 0.63755 0.0
C1700 C 0.6198 0.85768 0.63197 0.0
C1701 C 0.65477 0.85735 0.61514 0.0
C1702 C 0.64265 0.8578 0.62076 0.0
H1703 H 0.58066 0.86402 0.62341 0.0
H1704 H 0.60043 0.86248 0.61464 0.0
H1705 H 0.62584 0.89848 0.64811 0.0
H1706 H 0.68189 0.8658 0.62904 0.0
H1707 H 0.66224 0.86566 0.63784 0.0
C1708 C 0.41887 0.61423 0.41117 0.0
C1709 C 0.42814 0.61622 0.40085 0.0
C1710 C 0.40757 0.61569 0.40569 0.0
C1711 C 0.39032 0.64067 0.3708 0.0
H1712 H 0.36729 0.57975 0.39013 0.0
C1713 C 0.3454 0.6138 0.34396 0.0
C1714 C 0.33606 0.61574 0.35418 0.0
C1715 C 0.35666 0.61512 0.34957 0.0
C1716 C 0.37361 0.59713 0.38467 0.0
H1717 H 0.43273 0.62129 0.37662 0.0
H1718 H 0.41324 0.62285 0.36715 0.0
H1719 H 0.38672 0.58011 0.40033 0.0
H1720 H 0.33131 0.62085 0.37836 0.0
H1721 H 0.35082 0.62287 0.38803 0.0
H1722 H 0.37718 0.65699 0.35493 0.0
C1723 C 0.41459 0.62108 0.3795 0.0
C1724 C 0.38475 0.5975 0.39057 0.0
C1725 C 0.42583 0.61993 0.38496 0.0
C1726 C 0.33826 0.61926 0.3701 0.0
C1727 C 0.34946 0.62019 0.3757 0.0
C1728 C 0.37919 0.64 0.36481 0.0
C1729 C 0.40528 0.61891 0.38975 0.0
C1730 C 0.39329 0.61927 0.38372 0.0
C1731 C 0.3588 0.61796 0.36554 0.0
C1732 C 0.3707 0.61828 0.37169 0.0
H1733 H 0.42032 0.61148 0.42347 0.0
H1734 H 0.40064 0.61448 0.41398 0.0
H1735 H 0.39656 0.65831 0.36535 0.0
H1736 H 0.34402 0.61106 0.33164 0.0
H1737 H 0.36369 0.61316 0.34146 0.0
C1738 C 0.42598 0.13294 0.37132 0.0
C1739 C 0.42868 0.13737 0.35558 0.0
C1740 C 0.41463 0.13317 0.37638 0.0
C1741 C 0.38517 0.16022 0.36447 0.0
H1742 H 0.37644 0.09909 0.39914 0.0
C1743 C 0.3381 0.13595 0.38221 0.0
C1744 C 0.33536 0.13855 0.39802 0.0
C1745 C 0.34948 0.13634 0.37726 0.0
C1746 C 0.37878 0.11658 0.38955 0.0
H1747 H 0.42143 0.14521 0.33279 0.0
H1748 H 0.40152 0.14445 0.34153 0.0
H1749 H 0.39604 0.09736 0.38955 0.0
H1750 H 0.34253 0.14331 0.42102 0.0
H1751 H 0.36253 0.1433 0.41232 0.0
H1752 H 0.36775 0.17856 0.36429 0.0
C1753 C 0.40825 0.14164 0.35005 0.0
C1754 C 0.39004 0.1157 0.38403 0.0
C1755 C 0.41967 0.14182 0.34499 0.0
C1756 C 0.34433 0.14126 0.40878 0.0
C1757 C 0.35578 0.14113 0.4038 0.0
C1758 C 0.37387 0.16073 0.36988 0.0
C1759 C 0.40556 0.13739 0.36585 0.0
C1760 C 0.39343 0.13763 0.37145 0.0
C1761 C 0.35846 0.1389 0.38796 0.0
C1762 C 0.37055 0.13898 0.3825 0.0
H1763 H 0.43267 0.12983 0.37987 0.0
H1764 H 0.41301 0.13067 0.38865 0.0
H1765 H 0.38744 0.17802 0.35497 0.0
H1766 H 0.33144 0.13394 0.37356 0.0
H1767 H 0.35126 0.13418 0.36501 0.0
C1768 C 0.6697 0.8847 0.16042 0.0
C1769 C 0.67882 0.88081 0.14993 0.0
C1770 C 0.65832 0.88397 0.15519 0.0
C1771 C 0.64088 0.89988 0.12028 0.0
H1772 H 0.61787 0.84147 0.14095 0.0
C1773 C 0.59556 0.88112 0.09429 0.0
C1774 C 0.58627 0.88015 0.1046 0.0
C1775 C 0.60684 0.88002 0.0998 0.0
C1776 C 0.62412 0.85836 0.13513 0.0
H1777 H 0.68303 0.87303 0.12569 0.0
H1778 H 0.66335 0.87208 0.11673 0.0
H1779 H 0.63733 0.84317 0.15111 0.0
H1780 H 0.58165 0.87719 0.12888 0.0
H1781 H 0.60114 0.87627 0.13841 0.0
H1782 H 0.62772 0.91574 0.10448 0.0
C1783 C 0.66496 0.8758 0.12895 0.0
C1784 C 0.6353 0.85926 0.14097 0.0
C1785 C 0.67626 0.8761 0.13415 0.0
C1786 C 0.58856 0.87773 0.12054 0.0
C1787 C 0.5998 0.87697 0.12604 0.0
C1788 C 0.62969 0.8993 0.11452 0.0
C1789 C 0.65584 0.87985 0.13936 0.0
C1790 C 0.64383 0.87988 0.13357 0.0
C1791 C 0.60913 0.87824 0.11579 0.0
C1792 C 0.62114 0.87843 0.12182 0.0
H1793 H 0.67134 0.88838 0.17263 0.0
H1794 H 0.65146 0.88732 0.1635 0.0
H1795 H 0.64722 0.91641 0.11441 0.0
H1796 H 0.59412 0.88285 0.08195 0.0
H1797 H 0.61378 0.88044 0.0915 0.0
C1798 C 0.6677 0.36447 0.09325 0.0
C1799 C 0.67701 0.36706 0.10348 0.0
C1800 C 0.65642 0.36673 0.09878 0.0
C1801 C 0.63932 0.35265 0.13411 0.0
H1802 H 0.61658 0.41267 0.11374 0.0
C1803 C 0.59415 0.37339 0.16037 0.0
C1804 C 0.58486 0.37457 0.15006 0.0
C1805 C 0.60544 0.37424 0.15484 0.0
C1806 C 0.62276 0.39536 0.11949 0.0
H1807 H 0.68169 0.37435 0.12758 0.0
H1808 H 0.66216 0.37798 0.13709 0.0
H1809 H 0.63596 0.40967 0.10334 0.0
H1810 H 0.58025 0.37776 0.12579 0.0
H1811 H 0.59974 0.37828 0.11624 0.0
H1812 H 0.62615 0.33762 0.15005 0.0
C1813 C 0.66354 0.37407 0.12483 0.0
C1814 C 0.63389 0.39372 0.11351 0.0
C1815 C 0.67476 0.37221 0.11931 0.0
C1816 C 0.58716 0.37703 0.13412 0.0
C1817 C 0.5984 0.37757 0.12861 0.0
C1818 C 0.62817 0.35398 0.14 0.0
C1819 C 0.65423 0.37117 0.11467 0.0
C1820 C 0.64231 0.37242 0.12077 0.0
C1821 C 0.60772 0.37602 0.13885 0.0
C1822 C 0.61972 0.37537 0.13279 0.0
H1823 H 0.66911 0.3605 0.08099 0.0
H1824 H 0.64941 0.36423 0.09066 0.0
H1825 H 0.64558 0.33561 0.13987 0.0
H1826 H 0.5927 0.3716 0.17271 0.0
H1827 H 0.61237 0.37359 0.16313 0.0
C1828 C 0.41947 0.12597 0.91257 0.0
C1829 C 0.42871 0.12759 0.90217 0.0
C1830 C 0.40816 0.128 0.9072 0.0
C1831 C 0.39077 0.15355 0.87246 0.0
H1832 H 0.36776 0.09261 0.89184 0.0
C1833 C 0.34585 0.12628 0.8456 0.0
C1834 C 0.33649 0.12739 0.85582 0.0
C1835 C 0.3571 0.12812 0.85125 0.0
C1836 C 0.37407 0.11003 0.88637 0.0
H1837 H 0.43319 0.13283 0.87791 0.0
H1838 H 0.41366 0.13542 0.86863 0.0
H1839 H 0.38721 0.0929 0.90197 0.0
H1840 H 0.3317 0.1318 0.88 0.0
H1841 H 0.35119 0.13479 0.88971 0.0
H1842 H 0.3776 0.16997 0.85665 0.0
C1843 C 0.41507 0.13344 0.88096 0.0
C1844 C 0.38523 0.11035 0.89223 0.0
C1845 C 0.42633 0.1317 0.88632 0.0
C1846 C 0.33866 0.1308 0.87175 0.0
C1847 C 0.34986 0.13229 0.87737 0.0
C1848 C 0.37962 0.15295 0.86652 0.0
C1849 C 0.40579 0.13145 0.89129 0.0
C1850 C 0.39376 0.13207 0.88536 0.0
C1851 C 0.35923 0.13071 0.86722 0.0
C1852 C 0.37113 0.1312 0.8734 0.0
H1853 H 0.42098 0.12292 0.92485 0.0
H1854 H 0.40127 0.12693 0.91555 0.0
H1855 H 0.39701 0.17116 0.86699 0.0
H1856 H 0.3445 0.12363 0.83328 0.0
H1857 H 0.36414 0.12664 0.84313 0.0
C1858 C 0.41926 0.62589 0.8433 0.0
C1859 C 0.4285 0.6246 0.85368 0.0
C1860 C 0.40795 0.62393 0.84871 0.0
C1861 C 0.39059 0.59922 0.8836 0.0
H1862 H 0.36757 0.65965 0.86399 0.0
C1863 C 0.34567 0.62717 0.91038 0.0
C1864 C 0.33631 0.62586 0.90018 0.0
C1865 C 0.35692 0.62513 0.90474 0.0
C1866 C 0.37388 0.64237 0.86952 0.0
H1867 H 0.43301 0.61999 0.87794 0.0
H1868 H 0.41348 0.61751 0.88729 0.0
H1869 H 0.38702 0.65915 0.85384 0.0
H1870 H 0.33152 0.62082 0.87602 0.0
H1871 H 0.35101 0.61748 0.86631 0.0
H1872 H 0.37742 0.58316 0.8995 0.0
C1873 C 0.41488 0.61919 0.87495 0.0
C1874 C 0.38504 0.64193 0.86365 0.0
C1875 C 0.42614 0.62087 0.86955 0.0
C1876 C 0.33848 0.622 0.88426 0.0
C1877 C 0.34968 0.62031 0.87864 0.0
C1878 C 0.37944 0.59993 0.88956 0.0
C1879 C 0.4056 0.62087 0.86464 0.0
C1880 C 0.39358 0.62038 0.8706 0.0
C1881 C 0.35904 0.62213 0.88877 0.0
C1882 C 0.37095 0.6215 0.88258 0.0
H1883 H 0.42075 0.62864 0.831 0.0
H1884 H 0.40105 0.62475 0.84037 0.0
H1885 H 0.39683 0.58176 0.88913 0.0
H1886 H 0.34432 0.63015 0.9227 0.0
H1887 H 0.36396 0.6268 0.91284 0.0
C1888 C 0.03784 0.99186 0.15612 0.0
C1889 C 0.03915 0.96758 0.14368 0.0
C1890 C 0.03579 0.02899 0.15345 0.0
C1891 C 0.02728 0.09599 0.12311 0.0
H1892 H 0.04573 0.16279 0.14728 0.0
C1893 C 0.03675 0.24518 0.10463 0.0
C1894 C 0.03763 0.27172 0.11629 0.0
C1895 C 0.0351 0.20839 0.10844 0.0
C1896 C 0.04036 0.14465 0.14058 0.0
H1897 H 0.03886 0.96301 0.11869 0.0
H1898 H 0.03542 0.02751 0.11404 0.0
H1899 H 0.04596 0.09802 0.15335 0.0
H1900 H 0.03686 0.2807 0.14105 0.0
H1901 H 0.03384 0.21685 0.14764 0.0
H1902 H 0.0219 0.14276 0.1101 0.0
C1903 C 0.03585 0.01798 0.12588 0.0
C1904 C 0.04048 0.10743 0.14408 0.0
C1905 C 0.0379 0.98095 0.12855 0.0
C1906 C 0.03632 0.26092 0.13178 0.0
C1907 C 0.03466 0.22426 0.13558 0.0
C1908 C 0.02717 0.13329 0.11958 0.0
C1909 C 0.03499 0.04262 0.13827 0.0
C1910 C 0.03405 0.08255 0.13529 0.0
C1911 C 0.0343 0.19741 0.12399 0.0
C1912 C 0.0338 0.15802 0.12819 0.0
H1913 H 0.03871 0.98242 0.16792 0.0
H1914 H 0.03499 0.04713 0.16327 0.0
H1915 H 0.0221 0.07765 0.11623 0.0
H1916 H 0.03774 0.2526 0.09259 0.0
H1917 H 0.03494 0.18839 0.09923 0.0
C1918 C 0.22752 0.99541 0.12872 0.0
C1919 C 0.22703 0.98199 0.11352 0.0
C1920 C 0.22926 0.03254 0.13155 0.0
C1921 C 0.22517 0.12192 0.11303 0.0
H1922 H 0.24216 0.15762 0.14843 0.0
C1923 C 0.22834 0.27551 0.12577 0.0
C1924 C 0.22633 0.28613 0.14114 0.0
C1925 C 0.23028 0.23892 0.12207 0.0
C1926 C 0.23734 0.14805 0.13855 0.0
H1927 H 0.22848 0.99689 0.08936 0.0
H1928 H 0.23166 0.06178 0.0943 0.0
H1929 H 0.24239 0.09254 0.14228 0.0
H1930 H 0.22527 0.26681 0.16477 0.0
H1931 H 0.22856 0.20277 0.15829 0.0
H1932 H 0.21993 0.17716 0.10944 0.0
C1933 C 0.23051 0.04359 0.10404 0.0
C1934 C 0.23747 0.11077 0.13501 0.0
C1935 C 0.22876 0.00637 0.1012 0.0
C1936 C 0.22681 0.25953 0.15282 0.0
C1937 C 0.22873 0.22283 0.14911 0.0
C1938 C 0.22505 0.15914 0.11655 0.0
C1939 C 0.23057 0.05723 0.11925 0.0
C1940 C 0.23128 0.09718 0.12231 0.0
C1941 C 0.23023 0.21199 0.13363 0.0
C1942 C 0.23103 0.17264 0.12944 0.0
H1943 H 0.22622 0.9774 0.1385 0.0
H1944 H 0.22912 0.04206 0.1434 0.0
H1945 H 0.22013 0.1124 0.10334 0.0
H1946 H 0.22812 0.29533 0.11649 0.0
H1947 H 0.23163 0.23164 0.11007 0.0
C1948 C 0.97736 0.74342 0.90484 0.0
C1949 C 0.97703 0.71698 0.89309 0.0
C1950 C 0.97918 0.78024 0.90123 0.0
C1951 C 0.97537 0.84412 0.8688 0.0
H1952 H 0.99228 0.91125 0.89481 0.0
C1953 C 0.97837 0.99719 0.85381 0.0
C1954 C 0.97648 0.02134 0.86616 0.0
C1955 C 0.9803 0.96004 0.85658 0.0
C1956 C 0.98748 0.89287 0.88746 0.0
H1957 H 0.97902 0.70817 0.86844 0.0
H1958 H 0.98236 0.77207 0.86222 0.0
H1959 H 0.99234 0.84608 0.90082 0.0
H1960 H 0.97556 0.0256 0.89114 0.0
H1961 H 0.97876 0.96104 0.89594 0.0
H1962 H 0.97027 0.89076 0.85566 0.0
C1963 C 0.98096 0.76457 0.87418 0.0
C1964 C 0.98752 0.85553 0.89091 0.0
C1965 C 0.97912 0.72787 0.87777 0.0
C1966 C 0.97698 0.00777 0.88135 0.0
C1967 C 0.97889 0.97071 0.88411 0.0
C1968 C 0.97532 0.88137 0.86537 0.0
C1969 C 0.98074 0.79133 0.8858 0.0
C1970 C 0.98137 0.83075 0.88171 0.0
C1971 C 0.98038 0.94624 0.87177 0.0
C1972 C 0.98127 0.9063 0.87475 0.0
H1973 H 0.97576 0.73592 0.91675 0.0
H1974 H 0.97888 0.80017 0.91047 0.0
H1975 H 0.97037 0.82593 0.86161 0.0
H1976 H 0.97809 0.0068 0.84198 0.0
H1977 H 0.98157 0.94203 0.84681 0.0
C1978 C 0.78694 0.02175 0.87285 0.0
C1979 C 0.78831 0.03251 0.88833 0.0
C1980 C 0.78511 0.98515 0.86907 0.0
C1981 C 0.77716 0.89465 0.88513 0.0
H1982 H 0.7957 0.85826 0.8513 0.0
C1983 C 0.7871 0.74177 0.87622 0.0
C1984 C 0.78827 0.72828 0.86109 0.0
C1985 C 0.78523 0.7789 0.87887 0.0
C1986 C 0.79029 0.868 0.86058 0.0
H1987 H 0.78836 0.0134 0.91204 0.0
H1988 H 0.78528 0.94932 0.90543 0.0
H1989 H 0.79584 0.92305 0.85734 0.0
H1990 H 0.78784 0.74303 0.83684 0.0
H1991 H 0.78442 0.80793 0.84146 0.0
H1992 H 0.77179 0.83931 0.88854 0.0
C1993 C 0.78552 0.9693 0.89621 0.0
C1994 C 0.79038 0.90522 0.86407 0.0
C1995 C 0.78733 0.00601 0.9 0.0
C1996 C 0.78703 0.75256 0.84864 0.0
C1997 C 0.78515 0.78979 0.8513 0.0
C1998 C 0.77706 0.85735 0.88163 0.0
C1999 C 0.78463 0.95834 0.88067 0.0
C2000 C 0.78391 0.91899 0.87649 0.0
C2001 C 0.78446 0.80352 0.86646 0.0
C2002 C 0.78373 0.8435 0.86942 0.0
H2003 H 0.78755 0.04149 0.86357 0.0
H2004 H 0.78425 0.97778 0.85701 0.0
H2005 H 0.77197 0.90442 0.89464 0.0
H2006 H 0.78801 0.72382 0.88609 0.0
H2007 H 0.78487 0.78849 0.8907 0.0
C2008 C 0.03995 0.76526 0.62773 0.0
C2009 C 0.0409 0.77939 0.61268 0.0
C2010 C 0.038 0.72809 0.63014 0.0
C2011 C 0.04244 0.63957 0.61127 0.0
H2012 H 0.02382 0.60298 0.645 0.0
C2013 C 0.03811 0.48565 0.62245 0.0
C2014 C 0.03923 0.47415 0.63788 0.0
C2015 C 0.03658 0.52251 0.61892 0.0
C2016 C 0.02911 0.61279 0.63559 0.0
H2017 H 0.04012 0.76574 0.58834 0.0
H2018 H 0.03664 0.70069 0.59255 0.0
H2019 H 0.02408 0.66832 0.63936 0.0
H2020 H 0.03919 0.49221 0.66172 0.0
H2021 H 0.03667 0.55678 0.65555 0.0
H2022 H 0.04768 0.58434 0.60767 0.0
C2023 C 0.03754 0.7184 0.60249 0.0
C2024 C 0.02924 0.65021 0.63234 0.0
C2025 C 0.03947 0.75569 0.60007 0.0
C2026 C 0.03834 0.5002 0.64973 0.0
C2027 C 0.03685 0.53719 0.64618 0.0
C2028 C 0.04231 0.60223 0.61451 0.0
C2029 C 0.03697 0.70408 0.61756 0.0
C2030 C 0.03601 0.66408 0.62025 0.0
C2031 C 0.03618 0.54885 0.63071 0.0
C2032 C 0.03573 0.58839 0.62681 0.0
H2033 H 0.04099 0.78276 0.63772 0.0
H2034 H 0.03774 0.71799 0.6419 0.0
H2035 H 0.04791 0.64936 0.60205 0.0
H2036 H 0.03865 0.46625 0.61304 0.0
H2037 H 0.03587 0.53043 0.6069 0.0
C2038 C 0.22622 0.49712 0.59937 0.0
C2039 C 0.22517 0.47257 0.61177 0.0
C2040 C 0.22791 0.53442 0.60211 0.0
C2041 C 0.23611 0.60169 0.63247 0.0
H2042 H 0.21747 0.66791 0.60827 0.0
C2043 C 0.22721 0.75169 0.65041 0.0
C2044 C 0.22639 0.77798 0.63863 0.0
C2045 C 0.22854 0.71467 0.64677 0.0
C2046 C 0.22288 0.64993 0.61499 0.0
H2047 H 0.22548 0.46783 0.63675 0.0
H2048 H 0.2283 0.53262 0.6415 0.0
H2049 H 0.21733 0.60304 0.60233 0.0
H2050 H 0.22686 0.78612 0.61381 0.0
H2051 H 0.22934 0.72188 0.6075 0.0
H2052 H 0.24149 0.64869 0.64531 0.0
C2053 C 0.22794 0.52317 0.62966 0.0
C2054 C 0.22281 0.61265 0.61156 0.0
C2055 C 0.22625 0.48596 0.62692 0.0
C2056 C 0.22737 0.76659 0.62318 0.0
C2057 C 0.22872 0.72968 0.61955 0.0
C2058 C 0.23618 0.63904 0.63591 0.0
C2059 C 0.2286 0.54799 0.6173 0.0
C2060 C 0.22935 0.58798 0.62033 0.0
C2061 C 0.2291 0.70315 0.63127 0.0
C2062 C 0.2295 0.66359 0.62728 0.0
H2063 H 0.22546 0.4877 0.58755 0.0
H2064 H 0.22855 0.55271 0.59231 0.0
H2065 H 0.24137 0.58353 0.63933 0.0
H2066 H 0.22646 0.75955 0.66244 0.0
H2067 H 0.22871 0.69495 0.65609 0.0
C2068 C 0.97624 0.51611 0.38164 0.0
C2069 C 0.97517 0.5269 0.36612 0.0
C2070 C 0.97816 0.4796 0.38547 0.0
C2071 C 0.98706 0.38972 0.36971 0.0
H2072 H 0.96828 0.35209 0.40306 0.0
C2073 C 0.97843 0.23598 0.37899 0.0
C2074 C 0.9771 0.22282 0.39415 0.0
C2075 C 0.98002 0.2732 0.37621 0.0
C2076 C 0.97376 0.36219 0.39391 0.0
H2077 H 0.97572 0.50792 0.34241 0.0
H2078 H 0.97897 0.44393 0.34911 0.0
H2079 H 0.96766 0.41674 0.39684 0.0
H2080 H 0.97698 0.23829 0.41833 0.0
H2081 H 0.97991 0.30331 0.41348 0.0
H2082 H 0.99299 0.33485 0.36664 0.0
C2083 C 0.97842 0.46385 0.35832 0.0
C2084 C 0.97339 0.39934 0.39031 0.0
C2085 C 0.97651 0.5005 0.35448 0.0
C2086 C 0.97793 0.24755 0.40651 0.0
C2087 C 0.97952 0.28485 0.40372 0.0
C2088 C 0.98744 0.35248 0.37332 0.0
C2089 C 0.97904 0.45287 0.37389 0.0
C2090 C 0.97995 0.41355 0.37809 0.0
C2091 C 0.98034 0.29823 0.38851 0.0
C2092 C 0.9807 0.3382 0.38538 0.0
H2093 H 0.97535 0.53578 0.39091 0.0
H2094 H 0.97882 0.47223 0.39756 0.0
H2095 H 0.99234 0.39985 0.36036 0.0
H2096 H 0.97784 0.2177 0.36919 0.0
H2097 H 0.9805 0.28251 0.36435 0.0
C2098 C 0.78787 0.25162 0.34715 0.0
C2099 C 0.78842 0.22528 0.35893 0.0
C2100 C 0.78593 0.2884 0.35075 0.0
C2101 C 0.78979 0.35259 0.38308 0.0
H2102 H 0.77219 0.41884 0.35751 0.0
C2103 C 0.78586 0.50504 0.39861 0.0
C2104 C 0.78743 0.52962 0.38632 0.0
C2105 C 0.78418 0.46783 0.39572 0.0
C2106 C 0.77718 0.40071 0.36473 0.0
H2107 H 0.78671 0.21656 0.38363 0.0
H2108 H 0.78318 0.28034 0.38983 0.0
H2109 H 0.77247 0.35373 0.3514 0.0
H2110 H 0.78802 0.53456 0.36135 0.0
H2111 H 0.78524 0.46987 0.35634 0.0
H2112 H 0.79474 0.39942 0.3962 0.0
C2113 C 0.78449 0.27283 0.37786 0.0
C2114 C 0.77735 0.36341 0.36121 0.0
C2115 C 0.78645 0.2362 0.37427 0.0
C2116 C 0.78684 0.51639 0.37109 0.0
C2117 C 0.78517 0.47924 0.36821 0.0
C2118 C 0.78964 0.3898 0.38657 0.0
C2119 C 0.78449 0.29953 0.3662 0.0
C2120 C 0.78373 0.33894 0.37028 0.0
C2121 C 0.78404 0.45437 0.38048 0.0
C2122 C 0.78343 0.41442 0.37737 0.0
H2123 H 0.78938 0.2441 0.33522 0.0
H2124 H 0.78605 0.30829 0.34149 0.0
H2125 H 0.79498 0.33466 0.39015 0.0
H2126 H 0.78622 0.51437 0.41047 0.0
H2127 H 0.78316 0.4495 0.40544 0.0
C2128 C 0.53731 0.00296 0.65167 0.0
C2129 C 0.53891 0.97871 0.63928 0.0
C2130 C 0.53573 0.04031 0.64896 0.0
C2131 C 0.52879 0.10811 0.61824 0.0
H2132 H 0.54626 0.17406 0.64411 0.0
C2133 C 0.53876 0.25805 0.60136 0.0
C2134 C 0.53909 0.28423 0.61322 0.0
C2135 C 0.5371 0.22107 0.60483 0.0
C2136 C 0.54117 0.15615 0.63691 0.0
H2137 H 0.53971 0.97455 0.61429 0.0
H2138 H 0.53708 0.03944 0.6096 0.0
H2139 H 0.54619 0.10909 0.64986 0.0
H2140 H 0.53736 0.29229 0.63795 0.0
H2141 H 0.53434 0.2281 0.64394 0.0
H2142 H 0.52398 0.15528 0.60511 0.0
C2143 C 0.53692 0.02971 0.62141 0.0
C2144 C 0.54112 0.11882 0.64023 0.0
C2145 C 0.5385 0.99245 0.62412 0.0
C2146 C 0.53725 0.27282 0.62853 0.0
C2147 C 0.53559 0.23595 0.63199 0.0
C2148 C 0.52885 0.14551 0.61491 0.0
C2149 C 0.53569 0.05422 0.63379 0.0
C2150 C 0.53502 0.09425 0.63086 0.0
C2151 C 0.53574 0.2095 0.62023 0.0
C2152 C 0.53512 0.16995 0.62413 0.0
H2153 H 0.53754 0.99325 0.66349 0.0
H2154 H 0.53465 0.05836 0.65876 0.0
H2155 H 0.52387 0.09003 0.61091 0.0
H2156 H 0.54017 0.26592 0.58945 0.0
H2157 H 0.53735 0.2014 0.59549 0.0
C2158 C 0.727 0.26281 0.62615 0.0
C2159 C 0.72622 0.27667 0.64126 0.0
C2160 C 0.72868 0.22557 0.62358 0.0
C2161 C 0.72351 0.13728 0.64227 0.0
H2162 H 0.74139 0.09921 0.60811 0.0
C2163 C 0.72607 0.98321 0.63071 0.0
C2164 C 0.7247 0.97198 0.61529 0.0
C2165 C 0.72802 0.01984 0.63427 0.0
C2166 C 0.73631 0.10945 0.61764 0.0
H2167 H 0.7271 0.26248 0.66555 0.0
H2168 H 0.73013 0.19732 0.66107 0.0
H2169 H 0.74191 0.16446 0.61394 0.0
H2170 H 0.72472 0.99022 0.59147 0.0
H2171 H 0.72797 0.05446 0.5977 0.0
H2172 H 0.71769 0.08263 0.64579 0.0
C2173 C 0.72929 0.21529 0.6512 0.0
C2174 C 0.73662 0.14681 0.62099 0.0
C2175 C 0.72762 0.25264 0.65377 0.0
C2176 C 0.72575 0.99802 0.60346 0.0
C2177 C 0.72766 0.03481 0.60703 0.0
C2178 C 0.72319 0.10001 0.63892 0.0
C2179 C 0.72961 0.20123 0.63607 0.0
C2180 C 0.73012 0.16121 0.63325 0.0
C2181 C 0.72859 0.04624 0.62251 0.0
C2182 C 0.7295 0.08566 0.62647 0.0
H2183 H 0.72597 0.28057 0.61624 0.0
H2184 H 0.72877 0.21567 0.61179 0.0
H2185 H 0.71823 0.14751 0.6516 0.0
H2186 H 0.72542 0.96379 0.64011 0.0
H2187 H 0.72893 0.02757 0.64628 0.0
C2188 C 0.47826 0.72957 0.37687 0.0
C2189 C 0.47635 0.71876 0.39224 0.0
C2190 C 0.47998 0.76629 0.37318 0.0
C2191 C 0.48655 0.8575 0.38971 0.0
H2192 H 0.46912 0.89228 0.35455 0.0
C2193 C 0.47603 0.0097 0.3799 0.0
C2194 C 0.47554 0.02312 0.3647 0.0
C2195 C 0.47789 0.97263 0.38274 0.0
C2196 C 0.47422 0.88302 0.36423 0.0
H2197 H 0.47524 0.73792 0.41589 0.0
H2198 H 0.47816 0.80217 0.40945 0.0
H2199 H 0.46928 0.8275 0.36062 0.0
H2200 H 0.47705 0.00826 0.34054 0.0
H2201 H 0.48042 0.94346 0.34549 0.0
H2202 H 0.49131 0.91328 0.39346 0.0
C2203 C 0.47842 0.78216 0.40024 0.0
C2204 C 0.4743 0.84579 0.36773 0.0
C2205 C 0.47671 0.74534 0.40394 0.0
C2206 C 0.47734 0.99879 0.35238 0.0
C2207 C 0.4792 0.96162 0.35523 0.0
C2208 C 0.48648 0.8948 0.38619 0.0
C2209 C 0.47981 0.79316 0.38477 0.0
C2210 C 0.48037 0.83257 0.38061 0.0
C2211 C 0.47931 0.94799 0.37044 0.0
C2212 C 0.4802 0.90807 0.37351 0.0
H2213 H 0.47812 0.70978 0.36758 0.0
H2214 H 0.48126 0.7737 0.36119 0.0
H2215 H 0.49144 0.84818 0.39958 0.0
H2216 H 0.47468 0.02768 0.38967 0.0
H2217 H 0.47778 0.96311 0.39458 0.0
C2218 C 0.28607 0.7305 0.37731 0.0
C2219 C 0.28801 0.71946 0.36198 0.0
C2220 C 0.28436 0.76728 0.38089 0.0
C2221 C 0.27784 0.85822 0.36411 0.0
H2222 H 0.29522 0.8935 0.39923 0.0
C2223 C 0.28819 0.01064 0.37367 0.0
C2224 C 0.28866 0.02418 0.38886 0.0
C2225 C 0.28638 0.97352 0.37089 0.0
C2226 C 0.29014 0.8841 0.38956 0.0
H2227 H 0.28919 0.73826 0.33828 0.0
H2228 H 0.28631 0.80263 0.34454 0.0
H2229 H 0.2951 0.82865 0.3933 0.0
H2230 H 0.28717 0.00949 0.41304 0.0
H2231 H 0.28388 0.94462 0.40819 0.0
H2232 H 0.27305 0.91392 0.36024 0.0
C2233 C 0.28601 0.78276 0.3538 0.0
C2234 C 0.29007 0.84683 0.38614 0.0
C2235 C 0.2877 0.74586 0.35021 0.0
C2236 C 0.28689 0.99992 0.40121 0.0
C2237 C 0.28508 0.9627 0.39842 0.0
C2238 C 0.27789 0.89556 0.36756 0.0
C2239 C 0.28458 0.79398 0.36923 0.0
C2240 C 0.28402 0.83344 0.37329 0.0
C2241 C 0.285 0.94896 0.38323 0.0
C2242 C 0.28415 0.90901 0.38023 0.0
H2243 H 0.28616 0.71084 0.38666 0.0
H2244 H 0.28306 0.77487 0.39286 0.0
H2245 H 0.27297 0.84876 0.35426 0.0
H2246 H 0.28952 0.02855 0.36388 0.0
H2247 H 0.28651 0.9639 0.35906 0.0
C2248 C 0.53543 0.50072 0.15501 0.0
C2249 C 0.53663 0.47571 0.14281 0.0
C2250 C 0.53378 0.53791 0.15199 0.0
C2251 C 0.52636 0.60447 0.12087 0.0
H2252 H 0.54478 0.67069 0.14538 0.0
C2253 C 0.53703 0.75289 0.10215 0.0
C2254 C 0.53775 0.77966 0.11375 0.0
C2255 C 0.53517 0.71621 0.10602 0.0
C2256 C 0.53943 0.65272 0.13856 0.0
H2257 H 0.53654 0.47002 0.11785 0.0
H2258 H 0.5338 0.53461 0.11261 0.0
H2259 H 0.54444 0.6061 0.15178 0.0
H2260 H 0.5365 0.7891 0.13844 0.0
H2261 H 0.53314 0.72547 0.14513 0.0
H2262 H 0.52159 0.65123 0.10743 0.0
C2263 C 0.53401 0.52563 0.12453 0.0
C2264 C 0.53922 0.61559 0.14226 0.0
C2265 C 0.53565 0.4885 0.12755 0.0
C2266 C 0.53608 0.76918 0.12922 0.0
C2267 C 0.53422 0.73261 0.13307 0.0
C2268 C 0.52659 0.64168 0.11714 0.0
C2269 C 0.53329 0.55095 0.1367 0.0
C2270 C 0.53277 0.59088 0.13339 0.0
C2271 C 0.53399 0.70554 0.12157 0.0
C2272 C 0.5332 0.66622 0.12588 0.0
H2273 H 0.53611 0.49176 0.1669 0.0
H2274 H 0.53306 0.55654 0.16165 0.0
H2275 H 0.52118 0.58633 0.1139 0.0
H2276 H 0.5383 0.76003 0.09013 0.0
H2277 H 0.53512 0.69605 0.09688 0.0
C2278 C 0.7269 0.49349 0.09766 0.0
C2279 C 0.72569 0.46894 0.11002 0.0
C2280 C 0.72887 0.53062 0.10045 0.0
C2281 C 0.73723 0.59738 0.13096 0.0
H2282 H 0.71841 0.66387 0.10715 0.0
C2283 C 0.72737 0.74596 0.14996 0.0
C2284 C 0.72635 0.77266 0.13838 0.0
C2285 C 0.72909 0.70927 0.14603 0.0
C2286 C 0.72388 0.64582 0.11375 0.0
H2287 H 0.72609 0.46388 0.135 0.0
H2288 H 0.72938 0.52837 0.13984 0.0
H2289 H 0.71841 0.59922 0.10086 0.0
H2290 H 0.72692 0.78203 0.11364 0.0
H2291 H 0.73006 0.71838 0.10684 0.0
H2292 H 0.74248 0.64412 0.14408 0.0
C2293 C 0.72894 0.51907 0.12798 0.0
C2294 C 0.72389 0.60867 0.11012 0.0
C2295 C 0.72697 0.48204 0.12519 0.0
C2296 C 0.72757 0.76213 0.12285 0.0
C2297 C 0.7293 0.72557 0.11894 0.0
C2298 C 0.73721 0.63462 0.13461 0.0
C2299 C 0.72967 0.54398 0.11566 0.0
C2300 C 0.73047 0.58389 0.11878 0.0
C2301 C 0.72983 0.69855 0.13044 0.0
C2302 C 0.73044 0.65924 0.12613 0.0
H2303 H 0.726 0.48427 0.08583 0.0
H2304 H 0.72957 0.54898 0.09069 0.0
H2305 H 0.74251 0.57912 0.13774 0.0
H2306 H 0.72645 0.75318 0.16203 0.0
H2307 H 0.72937 0.68914 0.15519 0.0
C2308 C 0.47838 0.25144 0.90326 0.0
C2309 C 0.47762 0.22439 0.89179 0.0
C2310 C 0.48021 0.28803 0.89922 0.0
C2311 C 0.4757 0.3505 0.86639 0.0
H2312 H 0.49367 0.4182 0.89079 0.0
C2313 C 0.47888 0.50239 0.84949 0.0
C2314 C 0.47749 0.52746 0.86164 0.0
C2315 C 0.48078 0.46536 0.85261 0.0
C2316 C 0.48857 0.39968 0.88389 0.0
H2317 H 0.47882 0.2143 0.86714 0.0
H2318 H 0.48215 0.27777 0.86015 0.0
H2319 H 0.49356 0.35341 0.89749 0.0
H2320 H 0.47753 0.5335 0.88658 0.0
H2321 H 0.48071 0.46918 0.89198 0.0
H2322 H 0.47047 0.39663 0.85303 0.0
C2323 C 0.4811 0.27093 0.87224 0.0
C2324 C 0.48851 0.36254 0.88775 0.0
C2325 C 0.47927 0.23447 0.87627 0.0
C2326 C 0.47855 0.51495 0.87693 0.0
C2327 C 0.48044 0.478 0.88004 0.0
C2328 C 0.47575 0.38756 0.86257 0.0
C2329 C 0.48132 0.29831 0.88362 0.0
C2330 C 0.48199 0.33753 0.87912 0.0
C2331 C 0.48134 0.45257 0.86793 0.0
C2332 C 0.48209 0.41273 0.87135 0.0
H2333 H 0.47712 0.24461 0.91532 0.0
H2334 H 0.48025 0.30842 0.90827 0.0
H2335 H 0.47041 0.33218 0.85966 0.0
H2336 H 0.47815 0.51113 0.83758 0.0
H2337 H 0.48162 0.44664 0.84299 0.0
C2338 C 0.28684 0.25163 0.85302 0.0
C2339 C 0.28751 0.2248 0.86459 0.0
C2340 C 0.28494 0.28826 0.8569 0.0
C2341 C 0.28917 0.35137 0.88951 0.0
H2342 H 0.27122 0.41837 0.86476 0.0
C2343 C 0.28596 0.50358 0.90574 0.0
C2344 C 0.28732 0.52837 0.89348 0.0
C2345 C 0.28405 0.46649 0.90279 0.0
C2346 C 0.27632 0.40005 0.87175 0.0
H2347 H 0.28607 0.21516 0.88926 0.0
H2348 H 0.28263 0.27873 0.89597 0.0
H2349 H 0.27142 0.35345 0.85829 0.0
H2350 H 0.28726 0.53383 0.86852 0.0
H2351 H 0.2841 0.46939 0.8634 0.0
H2352 H 0.29434 0.39781 0.90272 0.0
C2353 C 0.2838 0.27166 0.88392 0.0
C2354 C 0.27643 0.36284 0.86804 0.0
C2355 C 0.2857 0.23514 0.88005 0.0
C2356 C 0.28624 0.51551 0.87825 0.0
C2357 C 0.28436 0.47848 0.8753 0.0
C2358 C 0.28909 0.3885 0.89319 0.0
C2359 C 0.28367 0.29881 0.87245 0.0
C2360 C 0.28294 0.33809 0.8768 0.0
C2361 C 0.28348 0.45334 0.88752 0.0
C2362 C 0.28276 0.41342 0.88428 0.0
H2363 H 0.28822 0.24459 0.84101 0.0
H2364 H 0.28496 0.3085 0.84778 0.0
H2365 H 0.29445 0.33322 0.89635 0.0
H2366 H 0.2867 0.51261 0.91761 0.0
H2367 H 0.28321 0.448 0.91248 0.0
loop_
_geom_bond_atom_site_label_1
_geom_bond_atom_site_label_2
_geom_bond_distance
_geom_bond_site_symmetry_2
_ccdc_geom_bond_type
O0 Cd1 2.223 . S
O0 C8 1.315 . S
Cd1 O0 2.223 . S
Cd1 O4 2.297 . S
Cd1 O5 2.439 . S
Cd1 O11 2.240 . S
Cd2 O3 2.240 . S
Cd2 O10 2.223 . S
Cd2 O12 2.297 . S
Cd2 O13 2.439 . S
O3 Cd2 2.240 . S
O3 C8 1.279 . S
O4 Cd1 2.297 . S
O4 C6 1.247 . S
O5 Cd1 2.439 . S
O5 C6 1.208 . S
C6 O4 1.247 . S
C6 O5 1.208 . S
C7 O12 1.247 . S
C7 O13 1.208 . S
C8 O0 1.315 . S
C8 O3 1.279 . S
C9 O10 1.315 . S
C9 O11 1.279 . S
O10 Cd2 2.223 . S
O10 C9 1.315 . S
O11 Cd1 2.240 . S
O11 C9 1.279 . S
O12 Cd2 2.297 . S
O12 C7 1.247 . S
O13 Cd2 2.439 . S
O13 C7 1.208 . S
O14 Cd15 2.223 . S
O14 C22 1.315 . S
Cd15 O14 2.223 . S
Cd15 O18 2.297 . S
Cd15 O19 2.439 . S
Cd15 O25 2.240 . S
Cd16 O17 2.240 . S
Cd16 O24 2.223 . S
Cd16 O26 2.297 . S
Cd16 O27 2.439 . S
O17 Cd16 2.240 . S
O17 C22 1.279 . S
O18 Cd15 2.297 . S
O18 C20 1.247 . S
O19 Cd15 2.439 . S
O19 C20 1.208 . S
C20 O18 1.247 . S
C20 O19 1.208 . S
C21 O26 1.247 . S
C21 O27 1.208 . S
C22 O14 1.315 . S
C22 O17 1.279 . S
C23 O24 1.315 . S
C23 O25 1.279 . S
O24 Cd16 2.223 . S
O24 C23 1.315 . S
O25 Cd15 2.240 . S
O25 C23 1.279 . S
O26 Cd16 2.297 . S
O26 C21 1.247 . S
O27 Cd16 2.439 . S
O27 C21 1.208 . S
O28 Cd29 2.223 . S
O28 C36 1.315 . S
Cd29 O28 2.223 . S
Cd29 O32 2.297 . S
Cd29 O33 2.439 . S
Cd29 O39 2.240 . S
Cd30 O31 2.240 . S
Cd30 O38 2.223 . S
Cd30 O40 2.297 . S
Cd30 O41 2.439 . S
O31 Cd30 2.240 . S
O31 C36 1.279 . S
O32 Cd29 2.297 . S
O32 C34 1.247 . S
O33 Cd29 2.439 . S
O33 C34 1.208 . S
C34 O32 1.247 . S
C34 O33 1.208 . S
C35 O40 1.247 . S
C35 O41 1.208 . S
C36 O28 1.315 . S
C36 O31 1.279 . S
C37 O38 1.315 . S
C37 O39 1.279 . S
O38 Cd30 2.223 . S
O38 C37 1.315 . S
O39 Cd29 2.240 . S
O39 C37 1.279 . S
O40 Cd30 2.297 . S
O40 C35 1.247 . S
O41 Cd30 2.439 . S
O41 C35 1.208 . S
O42 Cd43 2.223 . S
O42 C50 1.315 . S
Cd43 O42 2.223 . S
Cd43 O46 2.297 . S
Cd43 O47 2.439 . S
Cd43 O53 2.240 . S
Cd44 O45 2.240 . S
Cd44 O52 2.223 . S
Cd44 O54 2.297 . S
Cd44 O55 2.439 . S
O45 Cd44 2.240 . S
O45 C50 1.279 . S
O46 Cd43 2.297 . S
O46 C48 1.247 . S
O47 Cd43 2.439 . S
O47 C48 1.208 . S
C48 O46 1.247 . S
C48 O47 1.208 . S
C49 O54 1.247 . S
C49 O55 1.208 . S
C50 O42 1.315 . S
C50 O45 1.279 . S
C51 O52 1.315 . S
C51 O53 1.279 . S
O52 Cd44 2.223 . S
O52 C51 1.315 . S
O53 Cd43 2.240 . S
O53 C51 1.279 . S
O54 Cd44 2.297 . S
O54 C49 1.247 . S
O55 Cd44 2.439 . S
O55 C49 1.208 . S
O56 Cd57 2.223 . S
O56 C64 1.315 . S
Cd57 O56 2.223 . S
Cd57 O60 2.297 . S
Cd57 O61 2.439 . S
Cd57 O67 2.240 . S
Cd58 O59 2.240 . S
Cd58 O66 2.223 . S
Cd58 O68 2.297 . S
Cd58 O69 2.439 . S
O59 Cd58 2.240 . S
O59 C64 1.279 . S
O60 Cd57 2.297 . S
O60 C62 1.247 . S
O61 Cd57 2.439 . S
O61 C62 1.208 . S
C62 O60 1.247 . S
C62 O61 1.208 . S
C63 O68 1.247 . S
C63 O69 1.208 . S
C64 O56 1.315 . S
C64 O59 1.279 . S
C65 O66 1.315 . S
C65 O67 1.279 . S
O66 Cd58 2.223 . S
O66 C65 1.315 . S
O67 Cd57 2.240 . S
O67 C65 1.279 . S
O68 Cd58 2.297 . S
O68 C63 1.247 . S
O69 Cd58 2.439 . S
O69 C63 1.208 . S
O70 Cd71 2.223 . S
O70 C78 1.315 . S
Cd71 O70 2.223 . S
Cd71 O74 2.297 . S
Cd71 O75 2.439 . S
Cd71 O81 2.240 . S
Cd72 O73 2.240 . S
Cd72 O80 2.223 . S
Cd72 O82 2.297 . S
Cd72 O83 2.439 . S
O73 Cd72 2.240 . S
O73 C78 1.279 . S
O74 Cd71 2.297 . S
O74 C76 1.247 . S
O75 Cd71 2.439 . S
O75 C76 1.208 . S
C76 O74 1.247 . S
C76 O75 1.208 . S
C77 O82 1.247 . S
C77 O83 1.208 . S
C78 O70 1.315 . S
C78 O73 1.279 . S
C79 O80 1.315 . S
C79 O81 1.279 . S
O80 Cd72 2.223 . S
O80 C79 1.315 . S
O81 Cd71 2.240 . S
O81 C79 1.279 . S
O82 Cd72 2.297 . S
O82 C77 1.247 . S
O83 Cd72 2.439 . S
O83 C77 1.208 . S
O84 Cd85 2.223 . S
O84 C92 1.315 . S
Cd85 O84 2.223 . S
Cd85 O88 2.297 . S
Cd85 O89 2.439 . S
Cd85 O95 2.240 . S
Cd86 O87 2.240 . S
Cd86 O94 2.223 . S
Cd86 O96 2.297 . S
Cd86 O97 2.439 . S
O87 Cd86 2.240 . S
O87 C92 1.279 . S
O88 Cd85 2.297 . S
O88 C90 1.247 . S
O89 Cd85 2.439 . S
O89 C90 1.208 . S
C90 O88 1.247 . S
C90 O89 1.208 . S
C91 O96 1.247 . S
C91 O97 1.208 . S
C92 O84 1.315 . S
C92 O87 1.279 . S
C93 O94 1.315 . S
C93 O95 1.279 . S
O94 Cd86 2.223 . S
O94 C93 1.315 . S
O95 Cd85 2.240 . S
O95 C93 1.279 . S
O96 Cd86 2.297 . S
O96 C91 1.247 . S
O97 Cd86 2.439 . S
O97 C91 1.208 . S
O98 Cd99 2.223 . S
O98 C106 1.315 . S
Cd99 O98 2.223 . S
Cd99 O102 2.297 . S
Cd99 O103 2.439 . S
Cd99 O109 2.240 . S
Cd100 O101 2.240 . S
Cd100 O108 2.223 . S
Cd100 O110 2.297 . S
Cd100 O111 2.439 . S
O101 Cd100 2.240 . S
O101 C106 1.279 . S
O102 Cd99 2.297 . S
O102 C104 1.247 . S
O103 Cd99 2.439 . S
O103 C104 1.208 . S
C104 O102 1.247 . S
C104 O103 1.208 . S
C105 O110 1.247 . S
C105 O111 1.208 . S
C106 O98 1.315 . S
C106 O101 1.279 . S
C107 O108 1.315 . S
C107 O109 1.279 . S
O108 Cd100 2.223 . S
O108 C107 1.315 . S
O109 Cd99 2.240 . S
O109 C107 1.279 . S
O110 Cd100 2.297 . S
O110 C105 1.247 . S
O111 Cd100 2.439 . S
O111 C105 1.208 . S
O112 Cd113 2.223 . S
O112 C120 1.315 . S
Cd113 O112 2.223 . S
Cd113 O116 2.297 . S
Cd113 O117 2.439 . S
Cd113 O123 2.240 . S
Cd114 O115 2.240 . S
Cd114 O122 2.223 . S
Cd114 O124 2.297 . S
Cd114 O125 2.439 . S
O115 Cd114 2.240 . S
O115 C120 1.279 . S
O116 Cd113 2.297 . S
O116 C118 1.247 . S
O117 Cd113 2.439 . S
O117 C118 1.208 . S
C118 O116 1.247 . S
C118 O117 1.208 . S
C119 O124 1.247 . S
C119 O125 1.208 . S
C120 O112 1.315 . S
C120 O115 1.279 . S
C121 O122 1.315 . S
C121 O123 1.279 . S
O122 Cd114 2.223 . S
O122 C121 1.315 . S
O123 Cd113 2.240 . S
O123 C121 1.279 . S
O124 Cd114 2.297 . S
O124 C119 1.247 . S
O125 Cd114 2.439 . S
O125 C119 1.208 . S
O126 Cd127 2.223 . S
O126 C134 1.315 . S
Cd127 O126 2.223 . S
Cd127 O130 2.297 . S
Cd127 O131 2.439 . S
Cd127 O137 2.240 . S
Cd128 O129 2.240 . S
Cd128 O136 2.223 . S
Cd128 O138 2.297 . S
Cd128 O139 2.439 . S
O129 Cd128 2.240 . S
O129 C134 1.279 . S
O130 Cd127 2.297 . S
O130 C132 1.247 . S
O131 Cd127 2.439 . S
O131 C132 1.208 . S
C132 O130 1.247 . S
C132 O131 1.208 . S
C133 O138 1.247 . S
C133 O139 1.208 . S
C134 O126 1.315 . S
C134 O129 1.279 . S
C135 O136 1.315 . S
C135 O137 1.279 . S
O136 Cd128 2.223 . S
O136 C135 1.315 . S
O137 Cd127 2.240 . S
O137 C135 1.279 . S
O138 Cd128 2.297 . S
O138 C133 1.247 . S
O139 Cd128 2.439 . S
O139 C133 1.208 . S
O140 Cd141 2.223 . S
O140 C148 1.315 . S
Cd141 O140 2.223 . S
Cd141 O144 2.297 . S
Cd141 O145 2.439 . S
Cd141 O151 2.240 . S
Cd142 O143 2.240 . S
Cd142 O150 2.223 . S
Cd142 O152 2.297 . S
Cd142 O153 2.439 . S
O143 Cd142 2.240 . S
O143 C148 1.279 . S
O144 Cd141 2.297 . S
O144 C146 1.247 . S
O145 Cd141 2.439 . S
O145 C146 1.208 . S
C146 O144 1.247 . S
C146 O145 1.208 . S
C147 O152 1.247 . S
C147 O153 1.208 . S
C148 O140 1.315 . S
C148 O143 1.279 . S
C149 O150 1.315 . S
C149 O151 1.279 . S
O150 Cd142 2.223 . S
O150 C149 1.315 . S
O151 Cd141 2.240 . S
O151 C149 1.279 . S
O152 Cd142 2.297 . S
O152 C147 1.247 . S
O153 Cd142 2.439 . S
O153 C147 1.208 . S
O154 Cd155 2.223 . S
O154 C162 1.315 . S
Cd155 O154 2.223 . S
Cd155 O158 2.297 . S
Cd155 O159 2.439 . S
Cd155 O165 2.240 . S
Cd156 O157 2.240 . S
Cd156 O164 2.223 . S
Cd156 O166 2.297 . S
Cd156 O167 2.439 . S
O157 Cd156 2.240 . S
O157 C162 1.279 . S
O158 Cd155 2.297 . S
O158 C160 1.247 . S
O159 Cd155 2.439 . S
O159 C160 1.208 . S
C160 O158 1.247 . S
C160 O159 1.208 . S
C161 O166 1.247 . S
C161 O167 1.208 . S
C162 O154 1.315 . S
C162 O157 1.279 . S
C163 O164 1.315 . S
C163 O165 1.279 . S
O164 Cd156 2.223 . S
O164 C163 1.315 . S
O165 Cd155 2.240 . S
O165 C163 1.279 . S
O166 Cd156 2.297 . S
O166 C161 1.247 . S
O167 Cd156 2.439 . S
O167 C161 1.208 . S
O168 Cd169 2.223 . S
O168 C176 1.315 . S
Cd169 O168 2.223 . S
Cd169 O172 2.297 . S
Cd169 O173 2.439 . S
Cd169 O179 2.240 . S
Cd170 O171 2.240 . S
Cd170 O178 2.223 . S
Cd170 O180 2.297 . S
Cd170 O181 2.439 . S
O171 Cd170 2.240 . S
O171 C176 1.279 . S
O172 Cd169 2.297 . S
O172 C174 1.247 . S
O173 Cd169 2.439 . S
O173 C174 1.208 . S
C174 O172 1.247 . S
C174 O173 1.208 . S
C175 O180 1.247 . S
C175 O181 1.208 . S
C176 O168 1.315 . S
C176 O171 1.279 . S
C177 O178 1.315 . S
C177 O179 1.279 . S
O178 Cd170 2.223 . S
O178 C177 1.315 . S
O179 Cd169 2.240 . S
O179 C177 1.279 . S
O180 Cd170 2.297 . S
O180 C175 1.247 . S
O181 Cd170 2.439 . S
O181 C175 1.208 . S
O182 Cd183 2.223 . S
O182 C190 1.315 . S
Cd183 O182 2.223 . S
Cd183 O186 2.297 . S
Cd183 O187 2.439 . S
Cd183 O193 2.240 . S
Cd184 O185 2.240 . S
Cd184 O192 2.223 . S
Cd184 O194 2.297 . S
Cd184 O195 2.439 . S
O185 Cd184 2.240 . S
O185 C190 1.279 . S
O186 Cd183 2.297 . S
O186 C188 1.247 . S
O187 Cd183 2.439 . S
O187 C188 1.208 . S
C188 O186 1.247 . S
C188 O187 1.208 . S
C189 O194 1.247 . S
C189 O195 1.208 . S
C190 O182 1.315 . S
C190 O185 1.279 . S
C191 O192 1.315 . S
C191 O193 1.279 . S
O192 Cd184 2.223 . S
O192 C191 1.315 . S
O193 Cd183 2.240 . S
O193 C191 1.279 . S
O194 Cd184 2.297 . S
O194 C189 1.247 . S
O195 Cd184 2.439 . S
O195 C189 1.208 . S
O196 Cd197 2.223 . S
O196 C204 1.315 . S
Cd197 O196 2.223 . S
Cd197 O200 2.297 . S
Cd197 O201 2.439 . S
Cd197 O207 2.240 . S
Cd198 O199 2.240 . S
Cd198 O206 2.223 . S
Cd198 O208 2.297 . S
Cd198 O209 2.439 . S
O199 Cd198 2.240 . S
O199 C204 1.279 . S
O200 Cd197 2.297 . S
O200 C202 1.247 . S
O201 Cd197 2.439 . S
O201 C202 1.208 . S
C202 O200 1.247 . S
C202 O201 1.208 . S
C203 O208 1.247 . S
C203 O209 1.208 . S
C204 O196 1.315 . S
C204 O199 1.279 . S
C205 O206 1.315 . S
C205 O207 1.279 . S
O206 Cd198 2.223 . S
O206 C205 1.315 . S
O207 Cd197 2.240 . S
O207 C205 1.279 . S
O208 Cd198 2.297 . S
O208 C203 1.247 . S
O209 Cd198 2.439 . S
O209 C203 1.208 . S
O210 Cd211 2.223 . S
O210 C218 1.315 . S
Cd211 O210 2.223 . S
Cd211 O214 2.297 . S
Cd211 O215 2.439 . S
Cd211 O221 2.240 . S
Cd212 O213 2.240 . S
Cd212 O220 2.223 . S
Cd212 O222 2.297 . S
Cd212 O223 2.439 . S
O213 Cd212 2.240 . S
O213 C218 1.279 . S
O214 Cd211 2.297 . S
O214 C216 1.247 . S
O215 Cd211 2.439 . S
O215 C216 1.208 . S
C216 O214 1.247 . S
C216 O215 1.208 . S
C217 O222 1.247 . S
C217 O223 1.208 . S
C218 O210 1.315 . S
C218 O213 1.279 . S
C219 O220 1.315 . S
C219 O221 1.279 . S
O220 Cd212 2.223 . S
O220 C219 1.315 . S
O221 Cd211 2.240 . S
O221 C219 1.279 . S
O222 Cd212 2.297 . S
O222 C217 1.247 . S
O223 Cd212 2.439 . S
O223 C217 1.208 . S
O224 Cd225 2.223 . S
O224 C232 1.315 . S
Cd225 O224 2.223 . S
Cd225 O228 2.297 . S
Cd225 O229 2.439 . S
Cd225 O235 2.240 . S
Cd226 O227 2.240 . S
Cd226 O234 2.223 . S
Cd226 O236 2.297 . S
Cd226 O237 2.439 . S
O227 Cd226 2.240 . S
O227 C232 1.279 . S
O228 Cd225 2.297 . S
O228 C230 1.247 . S
O229 Cd225 2.439 . S
O229 C230 1.208 . S
C230 O228 1.247 . S
C230 O229 1.208 . S
C231 O236 1.247 . S
C231 O237 1.208 . S
C232 O224 1.315 . S
C232 O227 1.279 . S
C233 O234 1.315 . S
C233 O235 1.279 . S
O234 Cd226 2.223 . S
O234 C233 1.315 . S
O235 Cd225 2.240 . S
O235 C233 1.279 . S
O236 Cd226 2.297 . S
O236 C231 1.247 . S
O237 Cd226 2.439 . S
O237 C231 1.208 . S
O238 Cd239 2.223 . S
O238 C246 1.315 . S
Cd239 O238 2.223 . S
Cd239 O242 2.297 . S
Cd239 O243 2.439 . S
Cd239 O249 2.240 . S
Cd240 O241 2.240 . S
Cd240 O248 2.223 . S
Cd240 O250 2.297 . S
Cd240 O251 2.439 . S
O241 Cd240 2.240 . S
O241 C246 1.279 . S
O242 Cd239 2.297 . S
O242 C244 1.247 . S
O243 Cd239 2.439 . S
O243 C244 1.208 . S
C244 O242 1.247 . S
C244 O243 1.208 . S
C245 O250 1.247 . S
C245 O251 1.208 . S
C246 O238 1.315 . S
C246 O241 1.279 . S
C247 O248 1.315 . S
C247 O249 1.279 . S
O248 Cd240 2.223 . S
O248 C247 1.315 . S
O249 Cd239 2.240 . S
O249 C247 1.279 . S
O250 Cd240 2.297 . S
O250 C245 1.247 . S
O251 Cd240 2.439 . S
O251 C245 1.208 . S
O252 Cd253 2.223 . S
O252 C260 1.315 . S
Cd253 O252 2.223 . S
Cd253 O256 2.297 . S
Cd253 O257 2.439 . S
Cd253 O263 2.240 . S
Cd254 O255 2.240 . S
Cd254 O262 2.223 . S
Cd254 O264 2.297 . S
Cd254 O265 2.439 . S
O255 Cd254 2.240 . S
O255 C260 1.279 . S
O256 Cd253 2.297 . S
O256 C258 1.247 . S
O257 Cd253 2.439 . S
O257 C258 1.208 . S
C258 O256 1.247 . S
C258 O257 1.208 . S
C259 O264 1.247 . S
C259 O265 1.208 . S
C260 O252 1.315 . S
C260 O255 1.279 . S
C261 O262 1.315 . S
C261 O263 1.279 . S
O262 Cd254 2.223 . S
O262 C261 1.315 . S
O263 Cd253 2.240 . S
O263 C261 1.279 . S
O264 Cd254 2.297 . S
O264 C259 1.247 . S
O265 Cd254 2.439 . S
O265 C259 1.208 . S
O266 Cd267 2.223 . S
O266 C274 1.315 . S
Cd267 O266 2.223 . S
Cd267 O270 2.297 . S
Cd267 O271 2.439 . S
Cd267 O277 2.240 . S
Cd268 O269 2.240 . S
Cd268 O276 2.223 . S
Cd268 O278 2.297 . S
Cd268 O279 2.439 . S
O269 Cd268 2.240 . S
O269 C274 1.279 . S
O270 Cd267 2.297 . S
O270 C272 1.247 . S
O271 Cd267 2.439 . S
O271 C272 1.208 . S
C272 O270 1.247 . S
C272 O271 1.208 . S
C273 O278 1.247 . S
C273 O279 1.208 . S
C274 O266 1.315 . S
C274 O269 1.279 . S
C275 O276 1.315 . S
C275 O277 1.279 . S
O276 Cd268 2.223 . S
O276 C275 1.315 . S
O277 Cd267 2.240 . S
O277 C275 1.279 . S
O278 Cd268 2.297 . S
O278 C273 1.247 . S
O279 Cd268 2.439 . S
O279 C273 1.208 . S
O280 Cd281 2.223 . S
O280 C288 1.315 . S
Cd281 O280 2.223 . S
Cd281 O284 2.297 . S
Cd281 O285 2.439 . S
Cd281 O291 2.240 . S
Cd282 O283 2.240 . S
Cd282 O290 2.223 . S
Cd282 O292 2.297 . S
Cd282 O293 2.439 . S
O283 Cd282 2.240 . S
O283 C288 1.279 . S
O284 Cd281 2.297 . S
O284 C286 1.247 . S
O285 Cd281 2.439 . S
O285 C286 1.208 . S
C286 O284 1.247 . S
C286 O285 1.208 . S
C287 O292 1.247 . S
C287 O293 1.208 . S
C288 O280 1.315 . S
C288 O283 1.279 . S
C289 O290 1.315 . S
C289 O291 1.279 . S
O290 Cd282 2.223 . S
O290 C289 1.315 . S
O291 Cd281 2.240 . S
O291 C289 1.279 . S
O292 Cd282 2.297 . S
O292 C287 1.247 . S
O293 Cd282 2.439 . S
O293 C287 1.208 . S
O294 Cd295 2.223 . S
O294 C302 1.315 . S
Cd295 O294 2.223 . S
Cd295 O298 2.297 . S
Cd295 O299 2.439 . S
Cd295 O305 2.240 . S
Cd296 O297 2.240 . S
Cd296 O304 2.223 . S
Cd296 O306 2.297 . S
Cd296 O307 2.439 . S
O297 Cd296 2.240 . S
O297 C302 1.279 . S
O298 Cd295 2.297 . S
O298 C300 1.247 . S
O299 Cd295 2.439 . S
O299 C300 1.208 . S
C300 O298 1.247 . S
C300 O299 1.208 . S
C301 O306 1.247 . S
C301 O307 1.208 . S
C302 O294 1.315 . S
C302 O297 1.279 . S
C303 O304 1.315 . S
C303 O305 1.279 . S
O304 Cd296 2.223 . S
O304 C303 1.315 . S
O305 Cd295 2.240 . S
O305 C303 1.279 . S
O306 Cd296 2.297 . S
O306 C301 1.247 . S
O307 Cd296 2.439 . S
O307 C301 1.208 . S
O308 Cd309 2.223 . S
O308 C316 1.315 . S
Cd309 O308 2.223 . S
Cd309 O312 2.297 . S
Cd309 O313 2.439 . S
Cd309 O319 2.240 . S
Cd310 O311 2.240 . S
Cd310 O318 2.223 . S
Cd310 O320 2.297 . S
Cd310 O321 2.439 . S
O311 Cd310 2.240 . S
O311 C316 1.279 . S
O312 Cd309 2.297 . S
O312 C314 1.247 . S
O313 Cd309 2.439 . S
O313 C314 1.208 . S
C314 O312 1.247 . S
C314 O313 1.208 . S
C315 O320 1.247 . S
C315 O321 1.208 . S
C316 O308 1.315 . S
C316 O311 1.279 . S
C317 O318 1.315 . S
C317 O319 1.279 . S
O318 Cd310 2.223 . S
O318 C317 1.315 . S
O319 Cd309 2.240 . S
O319 C317 1.279 . S
O320 Cd310 2.297 . S
O320 C315 1.247 . S
O321 Cd310 2.439 . S
O321 C315 1.208 . S
O322 Cd323 2.223 . S
O322 C330 1.315 . S
Cd323 O322 2.223 . S
Cd323 O326 2.297 . S
Cd323 O327 2.439 . S
Cd323 O333 2.240 . S
Cd324 O325 2.240 . S
Cd324 O332 2.223 . S
Cd324 O334 2.297 . S
Cd324 O335 2.439 . S
O325 Cd324 2.240 . S
O325 C330 1.279 . S
O326 Cd323 2.297 . S
O326 C328 1.247 . S
O327 Cd323 2.439 . S
O327 C328 1.208 . S
C328 O326 1.247 . S
C328 O327 1.208 . S
C329 O334 1.247 . S
C329 O335 1.208 . S
C330 O322 1.315 . S
C330 O325 1.279 . S
C331 O332 1.315 . S
C331 O333 1.279 . S
O332 Cd324 2.223 . S
O332 C331 1.315 . S
O333 Cd323 2.240 . S
O333 C331 1.279 . S
O334 Cd324 2.297 . S
O334 C329 1.247 . S
O335 Cd324 2.439 . S
O335 C329 1.208 . S
O336 Cd337 2.223 . S
O336 C344 1.315 . S
Cd337 O336 2.223 . S
Cd337 O340 2.297 . S
Cd337 O341 2.439 . S
Cd337 O347 2.240 . S
Cd338 O339 2.240 . S
Cd338 O346 2.223 . S
Cd338 O348 2.297 . S
Cd338 O349 2.439 . S
O339 Cd338 2.240 . S
O339 C344 1.279 . S
O340 Cd337 2.297 . S
O340 C342 1.247 . S
O341 Cd337 2.439 . S
O341 C342 1.208 . S
C342 O340 1.247 . S
C342 O341 1.208 . S
C343 O348 1.247 . S
C343 O349 1.208 . S
C344 O336 1.315 . S
C344 O339 1.279 . S
C345 O346 1.315 . S
C345 O347 1.279 . S
O346 Cd338 2.223 . S
O346 C345 1.315 . S
O347 Cd337 2.240 . S
O347 C345 1.279 . S
O348 Cd338 2.297 . S
O348 C343 1.247 . S
O349 Cd338 2.439 . S
O349 C343 1.208 . S
O350 Cd351 2.223 . S
O350 C358 1.315 . S
Cd351 O350 2.223 . S
Cd351 O354 2.297 . S
Cd351 O355 2.439 . S
Cd351 O361 2.240 . S
Cd352 O353 2.240 . S
Cd352 O360 2.223 . S
Cd352 O362 2.297 . S
Cd352 O363 2.439 . S
O353 Cd352 2.240 . S
O353 C358 1.279 . S
O354 Cd351 2.297 . S
O354 C356 1.247 . S
O355 Cd351 2.439 . S
O355 C356 1.208 . S
C356 O354 1.247 . S
C356 O355 1.208 . S
C357 O362 1.247 . S
C357 O363 1.208 . S
C358 O350 1.315 . S
C358 O353 1.279 . S
C359 O360 1.315 . S
C359 O361 1.279 . S
O360 Cd352 2.223 . S
O360 C359 1.315 . S
O361 Cd351 2.240 . S
O361 C359 1.279 . S
O362 Cd352 2.297 . S
O362 C357 1.247 . S
O363 Cd352 2.439 . S
O363 C357 1.208 . S
O364 Cd365 2.223 . S
O364 C372 1.315 . S
Cd365 O364 2.223 . S
Cd365 O368 2.297 . S
Cd365 O369 2.439 . S
Cd365 O375 2.240 . S
Cd366 O367 2.240 . S
Cd366 O374 2.223 . S
Cd366 O376 2.297 . S
Cd366 O377 2.439 . S
O367 Cd366 2.240 . S
O367 C372 1.279 . S
O368 Cd365 2.297 . S
O368 C370 1.247 . S
O369 Cd365 2.439 . S
O369 C370 1.208 . S
C370 O368 1.247 . S
C370 O369 1.208 . S
C371 O376 1.247 . S
C371 O377 1.208 . S
C372 O364 1.315 . S
C372 O367 1.279 . S
C373 O374 1.315 . S
C373 O375 1.279 . S
O374 Cd366 2.223 . S
O374 C373 1.315 . S
O375 Cd365 2.240 . S
O375 C373 1.279 . S
O376 Cd366 2.297 . S
O376 C371 1.247 . S
O377 Cd366 2.439 . S
O377 C371 1.208 . S
O378 Cd379 2.223 . S
O378 C386 1.315 . S
Cd379 O378 2.223 . S
Cd379 O382 2.297 . S
Cd379 O383 2.439 . S
Cd379 O389 2.240 . S
Cd380 O381 2.240 . S
Cd380 O388 2.223 . S
Cd380 O390 2.297 . S
Cd380 O391 2.439 . S
O381 Cd380 2.240 . S
O381 C386 1.279 . S
O382 Cd379 2.297 . S
O382 C384 1.247 . S
O383 Cd379 2.439 . S
O383 C384 1.208 . S
C384 O382 1.247 . S
C384 O383 1.208 . S
C385 O390 1.247 . S
C385 O391 1.208 . S
C386 O378 1.315 . S
C386 O381 1.279 . S
C387 O388 1.315 . S
C387 O389 1.279 . S
O388 Cd380 2.223 . S
O388 C387 1.315 . S
O389 Cd379 2.240 . S
O389 C387 1.279 . S
O390 Cd380 2.297 . S
O390 C385 1.247 . S
O391 Cd380 2.439 . S
O391 C385 1.208 . S
O392 Cd393 2.223 . S
O392 C400 1.315 . S
Cd393 O392 2.223 . S
Cd393 O396 2.297 . S
Cd393 O397 2.439 . S
Cd393 O403 2.240 . S
Cd394 O395 2.240 . S
Cd394 O402 2.223 . S
Cd394 O404 2.297 . S
Cd394 O405 2.439 . S
O395 Cd394 2.240 . S
O395 C400 1.279 . S
O396 Cd393 2.297 . S
O396 C398 1.247 . S
O397 Cd393 2.439 . S
O397 C398 1.208 . S
C398 O396 1.247 . S
C398 O397 1.208 . S
C399 O404 1.247 . S
C399 O405 1.208 . S
C400 O392 1.315 . S
C400 O395 1.279 . S
C401 O402 1.315 . S
C401 O403 1.279 . S
O402 Cd394 2.223 . S
O402 C401 1.315 . S
O403 Cd393 2.240 . S
O403 C401 1.279 . S
O404 Cd394 2.297 . S
O404 C399 1.247 . S
O405 Cd394 2.439 . S
O405 C399 1.208 . S
O406 Cd407 2.223 . S
O406 C414 1.315 . S
Cd407 O406 2.223 . S
Cd407 O410 2.297 . S
Cd407 O411 2.439 . S
Cd407 O417 2.240 . S
Cd408 O409 2.240 . S
Cd408 O416 2.223 . S
Cd408 O418 2.297 . S
Cd408 O419 2.439 . S
O409 Cd408 2.240 . S
O409 C414 1.279 . S
O410 Cd407 2.297 . S
O410 C412 1.247 . S
O411 Cd407 2.439 . S
O411 C412 1.208 . S
C412 O410 1.247 . S
C412 O411 1.208 . S
C413 O418 1.247 . S
C413 O419 1.208 . S
C414 O406 1.315 . S
C414 O409 1.279 . S
C415 O416 1.315 . S
C415 O417 1.279 . S
O416 Cd408 2.223 . S
O416 C415 1.315 . S
O417 Cd407 2.240 . S
O417 C415 1.279 . S
O418 Cd408 2.297 . S
O418 C413 1.247 . S
O419 Cd408 2.439 . S
O419 C413 1.208 . S
O420 Cd421 2.223 . S
O420 C428 1.315 . S
Cd421 O420 2.223 . S
Cd421 O424 2.297 . S
Cd421 O425 2.439 . S
Cd421 O431 2.240 . S
Cd422 O423 2.240 . S
Cd422 O430 2.223 . S
Cd422 O432 2.297 . S
Cd422 O433 2.439 . S
O423 Cd422 2.240 . S
O423 C428 1.279 . S
O424 Cd421 2.297 . S
O424 C426 1.247 . S
O425 Cd421 2.439 . S
O425 C426 1.208 . S
C426 O424 1.247 . S
C426 O425 1.208 . S
C427 O432 1.247 . S
C427 O433 1.208 . S
C428 O420 1.315 . S
C428 O423 1.279 . S
C429 O430 1.315 . S
C429 O431 1.279 . S
O430 Cd422 2.223 . S
O430 C429 1.315 . S
O431 Cd421 2.240 . S
O431 C429 1.279 . S
O432 Cd422 2.297 . S
O432 C427 1.247 . S
O433 Cd422 2.439 . S
O433 C427 1.208 . S
O434 Cd435 2.223 . S
O434 C442 1.315 . S
Cd435 O434 2.223 . S
Cd435 O438 2.297 . S
Cd435 O439 2.439 . S
Cd435 O445 2.240 . S
Cd436 O437 2.240 . S
Cd436 O444 2.223 . S
Cd436 O446 2.297 . S
Cd436 O447 2.439 . S
O437 Cd436 2.240 . S
O437 C442 1.279 . S
O438 Cd435 2.297 . S
O438 C440 1.247 . S
O439 Cd435 2.439 . S
O439 C440 1.208 . S
C440 O438 1.247 . S
C440 O439 1.208 . S
C441 O446 1.247 . S
C441 O447 1.208 . S
C442 O434 1.315 . S
C442 O437 1.279 . S
C443 O444 1.315 . S
C443 O445 1.279 . S
O444 Cd436 2.223 . S
O444 C443 1.315 . S
O445 Cd435 2.240 . S
O445 C443 1.279 . S
O446 Cd436 2.297 . S
O446 C441 1.247 . S
O447 Cd436 2.439 . S
O447 C441 1.208 . S
C448 C449 1.349 . S
C448 C450 1.327 . S
C448 H473 0.950 . S
C449 C448 1.349 . S
C449 C465 1.349 . S
C450 C448 1.327 . S
C450 C469 1.429 . S
C450 H474 0.950 . S
C451 C468 1.574 . S
C451 C470 1.368 . S
C451 H475 0.949 . S
H452 C456 0.949 . S
C453 C454 1.349 . S
C453 C455 1.327 . S
C453 H476 0.950 . S
C454 C453 1.349 . S
C454 C466 1.349 . S
C455 C453 1.327 . S
C455 C471 1.429 . S
C455 H477 0.950 . S
C456 H452 0.949 . S
C456 C464 1.574 . S
C456 C472 1.368 . S
H457 C465 0.950 . S
H458 C463 0.950 . S
H459 C464 0.949 . S
H460 C466 0.950 . S
H461 C467 0.950 . S
H462 C468 0.949 . S
C463 H458 0.950 . S
C463 C465 1.327 . S
C463 C469 1.429 . S
C464 C456 1.574 . S
C464 H459 0.949 . S
C464 C470 1.368 . S
C465 C449 1.349 . S
C465 H457 0.950 . S
C465 C463 1.327 . S
C466 C454 1.349 . S
C466 H460 0.950 . S
C466 C467 1.327 . S
C467 H461 0.950 . S
C467 C466 1.327 . S
C467 C471 1.429 . S
C468 C451 1.574 . S
C468 H462 0.949 . S
C468 C472 1.368 . S
C469 C450 1.429 . S
C469 C463 1.429 . S
C469 C470 1.523 . S
C470 C451 1.368 . S
C470 C464 1.368 . S
C470 C469 1.523 . S
C471 C455 1.429 . S
C471 C467 1.429 . S
C471 C472 1.523 . S
C472 C456 1.368 . S
C472 C468 1.368 . S
C472 C471 1.523 . S
H473 C448 0.950 . S
H474 C450 0.950 . S
H475 C451 0.949 . S
H476 C453 0.950 . S
H477 C455 0.950 . S
C478 C479 1.349 . S
C478 C480 1.327 . S
C478 H503 0.950 . S
C479 C478 1.349 . S
C479 C495 1.349 . S
C480 C478 1.327 . S
C480 C499 1.429 . S
C480 H504 0.950 . S
C481 C498 1.574 . S
C481 C500 1.368 . S
C481 H505 0.949 . S
H482 C486 0.949 . S
C483 C484 1.349 . S
C483 C485 1.327 . S
C483 H506 0.950 . S
C484 C483 1.349 . S
C484 C496 1.349 . S
C485 C483 1.327 . S
C485 C501 1.429 . S
C485 H507 0.950 . S
C486 H482 0.949 . S
C486 C494 1.574 . S
C486 C502 1.368 . S
H487 C495 0.950 . S
H488 C493 0.950 . S
H489 C494 0.949 . S
H490 C496 0.950 . S
H491 C497 0.950 . S
H492 C498 0.949 . S
C493 H488 0.950 . S
C493 C495 1.327 . S
C493 C499 1.429 . S
C494 C486 1.574 . S
C494 H489 0.949 . S
C494 C500 1.368 . S
C495 C479 1.349 . S
C495 H487 0.950 . S
C495 C493 1.327 . S
C496 C484 1.349 . S
C496 H490 0.950 . S
C496 C497 1.327 . S
C497 H491 0.950 . S
C497 C496 1.327 . S
C497 C501 1.429 . S
C498 C481 1.574 . S
C498 H492 0.949 . S
C498 C502 1.368 . S
C499 C480 1.429 . S
C499 C493 1.429 . S
C499 C500 1.523 . S
C500 C481 1.368 . S
C500 C494 1.368 . S
C500 C499 1.523 . S
C501 C485 1.429 . S
C501 C497 1.429 . S
C501 C502 1.523 . S
C502 C486 1.368 . S
C502 C498 1.368 . S
C502 C501 1.523 . S
H503 C478 0.950 . S
H504 C480 0.950 . S
H505 C481 0.949 . S
H506 C483 0.950 . S
H507 C485 0.950 . S
C508 C509 1.349 . S
C508 C510 1.327 . S
C508 H533 0.950 . S
C509 C508 1.349 . S
C509 C525 1.349 . S
C510 C508 1.327 . S
C510 C529 1.429 . S
C510 H534 0.950 . S
C511 C528 1.574 . S
C511 C530 1.368 . S
C511 H535 0.949 . S
H512 C516 0.949 . S
C513 C514 1.349 . S
C513 C515 1.327 . S
C513 H536 0.950 . S
C514 C513 1.349 . S
C514 C526 1.349 . S
C515 C513 1.327 . S
C515 C531 1.429 . S
C515 H537 0.950 . S
C516 H512 0.949 . S
C516 C524 1.574 . S
C516 C532 1.368 . S
H517 C525 0.950 . S
H518 C523 0.950 . S
H519 C524 0.949 . S
H520 C526 0.950 . S
H521 C527 0.950 . S
H522 C528 0.949 . S
C523 H518 0.950 . S
C523 C525 1.327 . S
C523 C529 1.429 . S
C524 C516 1.574 . S
C524 H519 0.949 . S
C524 C530 1.368 . S
C525 C509 1.349 . S
C525 H517 0.950 . S
C525 C523 1.327 . S
C526 C514 1.349 . S
C526 H520 0.950 . S
C526 C527 1.327 . S
C527 H521 0.950 . S
C527 C526 1.327 . S
C527 C531 1.429 . S
C528 C511 1.574 . S
C528 H522 0.949 . S
C528 C532 1.368 . S
C529 C510 1.429 . S
C529 C523 1.429 . S
C529 C530 1.523 . S
C530 C511 1.368 . S
C530 C524 1.368 . S
C530 C529 1.523 . S
C531 C515 1.429 . S
C531 C527 1.429 . S
C531 C532 1.523 . S
C532 C516 1.368 . S
C532 C528 1.368 . S
C532 C531 1.523 . S
H533 C508 0.950 . S
H534 C510 0.950 . S
H535 C511 0.949 . S
H536 C513 0.950 . S
H537 C515 0.950 . S
C538 C539 1.349 . S
C538 C540 1.327 . S
C538 H563 0.950 . S
C539 C538 1.349 . S
C539 C555 1.349 . S
C540 C538 1.327 . S
C540 C559 1.429 . S
C540 H564 0.950 . S
C541 C558 1.574 . S
C541 C560 1.368 . S
C541 H565 0.949 . S
H542 C546 0.949 . S
C543 C544 1.349 . S
C543 C545 1.327 . S
C543 H566 0.950 . S
C544 C543 1.349 . S
C544 C556 1.349 . S
C545 C543 1.327 . S
C545 C561 1.429 . S
C545 H567 0.950 . S
C546 H542 0.949 . S
C546 C554 1.574 . S
C546 C562 1.368 . S
H547 C555 0.950 . S
H548 C553 0.950 . S
H549 C554 0.949 . S
H550 C556 0.950 . S
H551 C557 0.950 . S
H552 C558 0.949 . S
C553 H548 0.950 . S
C553 C555 1.327 . S
C553 C559 1.429 . S
C554 C546 1.574 . S
C554 H549 0.949 . S
C554 C560 1.368 . S
C555 C539 1.349 . S
C555 H547 0.950 . S
C555 C553 1.327 . S
C556 C544 1.349 . S
C556 H550 0.950 . S
C556 C557 1.327 . S
C557 H551 0.950 . S
C557 C556 1.327 . S
C557 C561 1.429 . S
C558 C541 1.574 . S
C558 H552 0.949 . S
C558 C562 1.368 . S
C559 C540 1.429 . S
C559 C553 1.429 . S
C559 C560 1.523 . S
C560 C541 1.368 . S
C560 C554 1.368 . S
C560 C559 1.523 . S
C561 C545 1.429 . S
C561 C557 1.429 . S
C561 C562 1.523 . S
C562 C546 1.368 . S
C562 C558 1.368 . S
C562 C561 1.523 . S
H563 C538 0.950 . S
H564 C540 0.950 . S
H565 C541 0.949 . S
H566 C543 0.950 . S
H567 C545 0.950 . S
C568 C569 1.349 1_545 S
C568 C570 1.327 . S
C568 H593 0.950 1_545 S
C569 C568 1.349 1_565 S
C569 C585 1.349 . S
C570 C568 1.327 . S
C570 C589 1.429 . S
C570 H594 0.950 . S
C571 C588 1.574 . S
C571 C590 1.368 . S
C571 H595 0.949 . S
H572 C576 0.949 . S
C573 C574 1.349 . S
C573 C575 1.327 . S
C573 H596 0.950 . S
C574 C573 1.349 . S
C574 C586 1.349 . S
C575 C573 1.327 . S
C575 C591 1.429 . S
C575 H597 0.950 . S
C576 H572 0.949 . S
C576 C584 1.574 . S
C576 C592 1.368 . S
H577 C585 0.950 . S
H578 C583 0.950 . S
H579 C584 0.949 . S
H580 C586 0.950 . S
H581 C587 0.950 . S
H582 C588 0.949 . S
C583 H578 0.950 . S
C583 C585 1.327 1_545 S
C583 C589 1.429 . S
C584 C576 1.574 . S
C584 H579 0.949 . S
C584 C590 1.368 . S
C585 C569 1.349 . S
C585 H577 0.950 . S
C585 C583 1.327 1_565 S
C586 C574 1.349 . S
C586 H580 0.950 . S
C586 C587 1.327 . S
C587 H581 0.950 . S
C587 C586 1.327 . S
C587 C591 1.429 . S
C588 C571 1.574 . S
C588 H582 0.949 . S
C588 C592 1.368 . S
C589 C570 1.429 . S
C589 C583 1.429 . S
C589 C590 1.523 . S
C590 C571 1.368 . S
C590 C584 1.368 . S
C590 C589 1.523 . S
C591 C575 1.429 . S
C591 C587 1.429 . S
C591 C592 1.523 . S
C592 C576 1.368 . S
C592 C588 1.368 . S
C592 C591 1.523 . S
H593 C568 0.950 1_565 S
H594 C570 0.950 . S
H595 C571 0.949 . S
H596 C573 0.950 . S
H597 C575 0.950 . S
C598 C599 1.349 . S
C598 C600 1.327 1_565 S
C598 H623 0.950 . S
C599 C598 1.349 . S
C599 C615 1.348 . S
C600 C598 1.327 1_545 S
C600 C619 1.429 . S
C600 H624 0.950 . S
C601 C618 1.574 . S
C601 C620 1.368 . S
C601 H625 0.949 . S
H602 C606 0.949 . S
C603 C604 1.349 . S
C603 C605 1.327 . S
C603 H626 0.950 . S
C604 C603 1.349 . S
C604 C616 1.349 . S
C605 C603 1.327 . S
C605 C621 1.429 . S
C605 H627 0.950 . S
C606 H602 0.949 . S
C606 C614 1.574 . S
C606 C622 1.368 . S
H607 C615 0.949 . S
H608 C613 0.950 . S
H609 C614 0.949 . S
H610 C616 0.950 . S
H611 C617 0.950 . S
H612 C618 0.949 . S
C613 H608 0.950 . S
C613 C615 1.328 1_545 S
C613 C619 1.429 . S
C614 C606 1.574 . S
C614 H609 0.949 . S
C614 C620 1.368 . S
C615 C599 1.348 . S
C615 H607 0.949 . S
C615 C613 1.328 1_565 S
C616 C604 1.349 . S
C616 H610 0.950 . S
C616 C617 1.327 . S
C617 H611 0.950 . S
C617 C616 1.327 . S
C617 C621 1.429 . S
C618 C601 1.574 . S
C618 H612 0.949 . S
C618 C622 1.368 . S
C619 C600 1.429 . S
C619 C613 1.429 . S
C619 C620 1.523 . S
C620 C601 1.368 . S
C620 C614 1.368 . S
C620 C619 1.523 . S
C621 C605 1.429 . S
C621 C617 1.429 . S
C621 C622 1.523 . S
C622 C606 1.368 . S
C622 C618 1.368 . S
C622 C621 1.523 . S
H623 C598 0.950 . S
H624 C600 0.950 . S
H625 C601 0.949 . S
H626 C603 0.950 . S
H627 C605 0.950 . S
C628 C629 1.349 1_565 S
C628 C630 1.327 . S
C628 H653 0.950 1_565 S
C629 C628 1.349 1_545 S
C629 C645 1.349 . S
C630 C628 1.327 . S
C630 C649 1.429 . S
C630 H654 0.950 . S
C631 C648 1.574 . S
C631 C650 1.368 . S
C631 H655 0.949 . S
H632 C636 0.949 . S
C633 C634 1.349 . S
C633 C635 1.327 . S
C633 H656 0.950 . S
C634 C633 1.349 . S
C634 C646 1.349 . S
C635 C633 1.327 . S
C635 C651 1.429 . S
C635 H657 0.950 . S
C636 H632 0.949 . S
C636 C644 1.574 . S
C636 C652 1.368 . S
H637 C645 0.950 . S
H638 C643 0.950 . S
H639 C644 0.949 . S
H640 C646 0.950 . S
H641 C647 0.950 . S
H642 C648 0.949 . S
C643 H638 0.950 . S
C643 C645 1.327 1_565 S
C643 C649 1.429 . S
C644 C636 1.574 . S
C644 H639 0.949 . S
C644 C650 1.368 . S
C645 C629 1.349 . S
C645 H637 0.950 . S
C645 C643 1.327 1_545 S
C646 C634 1.349 . S
C646 H640 0.950 . S
C646 C647 1.327 . S
C647 H641 0.950 . S
C647 C646 1.327 . S
C647 C651 1.429 . S
C648 C631 1.574 . S
C648 H642 0.949 . S
C648 C652 1.368 . S
C649 C630 1.429 . S
C649 C643 1.429 . S
C649 C650 1.523 . S
C650 C631 1.368 . S
C650 C644 1.368 . S
C650 C649 1.523 . S
C651 C635 1.429 . S
C651 C647 1.429 . S
C651 C652 1.523 . S
C652 C636 1.368 . S
C652 C648 1.368 . S
C652 C651 1.523 . S
H653 C628 0.950 1_545 S
H654 C630 0.950 . S
H655 C631 0.949 . S
H656 C633 0.950 . S
H657 C635 0.950 . S
C658 C659 1.349 . S
C658 C660 1.327 . S
C658 H683 0.950 . S
C659 C658 1.349 . S
C659 C675 1.349 . S
C660 C658 1.327 . S
C660 C679 1.429 . S
C660 H684 0.950 . S
C661 C678 1.574 . S
C661 C680 1.368 . S
C661 H685 0.949 . S
H662 C666 0.949 . S
C663 C664 1.349 1_565 S
C663 C665 1.327 . S
C663 H686 0.950 1_565 S
C664 C663 1.349 1_545 S
C664 C676 1.349 . S
C665 C663 1.327 . S
C665 C681 1.429 . S
C665 H687 0.950 . S
C666 H662 0.949 . S
C666 C674 1.574 . S
C666 C682 1.368 . S
H667 C675 0.950 . S
H668 C673 0.950 . S
H669 C674 0.949 . S
H670 C676 0.950 . S
H671 C677 0.950 . S
H672 C678 0.949 . S
C673 H668 0.950 . S
C673 C675 1.327 . S
C673 C679 1.429 . S
C674 C666 1.574 . S
C674 H669 0.949 . S
C674 C680 1.368 . S
C675 C659 1.349 . S
C675 H667 0.950 . S
C675 C673 1.327 . S
C676 C664 1.349 . S
C676 H670 0.950 . S
C676 C677 1.327 1_545 S
C677 H671 0.950 . S
C677 C676 1.327 1_565 S
C677 C681 1.429 . S
C678 C661 1.574 . S
C678 H672 0.949 . S
C678 C682 1.368 . S
C679 C660 1.429 . S
C679 C673 1.429 . S
C679 C680 1.523 . S
C680 C661 1.368 . S
C680 C674 1.368 . S
C680 C679 1.523 . S
C681 C665 1.429 . S
C681 C677 1.429 . S
C681 C682 1.523 . S
C682 C666 1.368 . S
C682 C678 1.368 . S
C682 C681 1.523 . S
H683 C658 0.950 . S
H684 C660 0.950 . S
H685 C661 0.949 . S
H686 C663 0.950 1_545 S
H687 C665 0.950 . S
C688 C689 1.349 . S
C688 C690 1.327 . S
C688 H713 0.950 . S
C689 C688 1.349 . S
C689 C705 1.349 . S
C690 C688 1.327 . S
C690 C709 1.429 . S
C690 H714 0.950 . S
C691 C708 1.574 . S
C691 C710 1.368 . S
C691 H715 0.949 . S
H692 C696 0.949 . S
C693 C694 1.349 . S
C693 C695 1.327 . S
C693 H716 0.950 . S
C694 C693 1.349 . S
C694 C706 1.349 . S
C695 C693 1.327 . S
C695 C711 1.429 . S
C695 H717 0.950 . S
C696 H692 0.949 . S
C696 C704 1.574 . S
C696 C712 1.368 . S
H697 C705 0.950 . S
H698 C703 0.950 . S
H699 C704 0.949 . S
H700 C706 0.950 . S
H701 C707 0.950 . S
H702 C708 0.949 . S
C703 H698 0.950 . S
C703 C705 1.327 . S
C703 C709 1.429 . S
C704 C696 1.574 . S
C704 H699 0.949 . S
C704 C710 1.368 . S
C705 C689 1.349 . S
C705 H697 0.950 . S
C705 C703 1.327 . S
C706 C694 1.349 . S
C706 H700 0.950 . S
C706 C707 1.327 . S
C707 H701 0.950 . S
C707 C706 1.327 . S
C707 C711 1.429 . S
C708 C691 1.574 . S
C708 H702 0.949 . S
C708 C712 1.368 . S
C709 C690 1.429 . S
C709 C703 1.429 . S
C709 C710 1.523 . S
C710 C691 1.368 . S
C710 C704 1.368 . S
C710 C709 1.523 . S
C711 C695 1.429 . S
C711 C707 1.429 . S
C711 C712 1.523 . S
C712 C696 1.368 . S
C712 C708 1.368 . S
C712 C711 1.523 . S
H713 C688 0.950 . S
H714 C690 0.950 . S
H715 C691 0.949 . S
H716 C693 0.950 . S
H717 C695 0.950 . S
C718 C719 1.349 . S
C718 C720 1.327 . S
C718 H743 0.950 . S
C719 C718 1.349 . S
C719 C735 1.349 . S
C720 C718 1.327 . S
C720 C739 1.429 . S
C720 H744 0.950 . S
C721 C738 1.574 . S
C721 C740 1.368 . S
C721 H745 0.949 . S
H722 C726 0.949 . S
C723 C724 1.349 . S
C723 C725 1.327 . S
C723 H746 0.950 . S
C724 C723 1.349 . S
C724 C736 1.349 . S
C725 C723 1.327 . S
C725 C741 1.429 . S
C725 H747 0.950 . S
C726 H722 0.949 . S
C726 C734 1.574 . S
C726 C742 1.368 . S
H727 C735 0.950 . S
H728 C733 0.950 . S
H729 C734 0.949 . S
H730 C736 0.950 . S
H731 C737 0.950 . S
H732 C738 0.949 . S
C733 H728 0.950 . S
C733 C735 1.327 . S
C733 C739 1.429 . S
C734 C726 1.574 . S
C734 H729 0.949 . S
C734 C740 1.368 . S
C735 C719 1.349 . S
C735 H727 0.950 . S
C735 C733 1.327 . S
C736 C724 1.349 . S
C736 H730 0.950 . S
C736 C737 1.327 . S
C737 H731 0.950 . S
C737 C736 1.327 . S
C737 C741 1.429 . S
C738 C721 1.574 . S
C738 H732 0.949 . S
C738 C742 1.368 . S
C739 C720 1.429 . S
C739 C733 1.429 . S
C739 C740 1.523 . S
C740 C721 1.368 . S
C740 C734 1.368 . S
C740 C739 1.523 . S
C741 C725 1.429 . S
C741 C737 1.429 . S
C741 C742 1.523 . S
C742 C726 1.368 . S
C742 C738 1.368 . S
C742 C741 1.523 . S
H743 C718 0.950 . S
H744 C720 0.950 . S
H745 C721 0.949 . S
H746 C723 0.950 . S
H747 C725 0.950 . S
C748 C749 1.349 . S
C748 C750 1.327 . S
C748 H773 0.950 . S
C749 C748 1.349 . S
C749 C765 1.349 . S
C750 C748 1.327 . S
C750 C769 1.429 . S
C750 H774 0.950 . S
C751 C768 1.574 . S
C751 C770 1.368 . S
C751 H775 0.949 . S
H752 C756 0.949 . S
C753 C754 1.349 . S
C753 C755 1.327 . S
C753 H776 0.950 . S
C754 C753 1.349 . S
C754 C766 1.349 . S
C755 C753 1.327 . S
C755 C771 1.429 . S
C755 H777 0.950 . S
C756 H752 0.949 . S
C756 C764 1.574 . S
C756 C772 1.368 . S
H757 C765 0.950 . S
H758 C763 0.950 . S
H759 C764 0.949 . S
H760 C766 0.950 . S
H761 C767 0.950 . S
H762 C768 0.949 . S
C763 H758 0.950 . S
C763 C765 1.327 . S
C763 C769 1.429 . S
C764 C756 1.574 . S
C764 H759 0.949 . S
C764 C770 1.368 . S
C765 C749 1.349 . S
C765 H757 0.950 . S
C765 C763 1.327 . S
C766 C754 1.349 . S
C766 H760 0.950 . S
C766 C767 1.327 . S
C767 H761 0.950 . S
C767 C766 1.327 . S
C767 C771 1.429 . S
C768 C751 1.574 . S
C768 H762 0.949 . S
C768 C772 1.368 . S
C769 C750 1.429 . S
C769 C763 1.429 . S
C769 C770 1.523 . S
C770 C751 1.368 . S
C770 C764 1.368 . S
C770 C769 1.523 . S
C771 C755 1.429 . S
C771 C767 1.429 . S
C771 C772 1.523 . S
C772 C756 1.368 . S
C772 C768 1.368 . S
C772 C771 1.523 . S
H773 C748 0.950 . S
H774 C750 0.950 . S
H775 C751 0.949 . S
H776 C753 0.950 . S
H777 C755 0.950 . S
C778 C779 1.349 . S
C778 C780 1.327 . S
C778 H803 0.950 . S
C779 C778 1.349 . S
C779 C795 1.349 . S
C780 C778 1.327 . S
C780 C799 1.429 . S
C780 H804 0.950 . S
C781 C798 1.574 . S
C781 C800 1.368 . S
C781 H805 0.949 . S
H782 C786 0.949 . S
C783 C784 1.349 . S
C783 C785 1.327 . S
C783 H806 0.950 . S
C784 C783 1.349 . S
C784 C796 1.349 . S
C785 C783 1.327 . S
C785 C801 1.429 . S
C785 H807 0.950 . S
C786 H782 0.949 . S
C786 C794 1.574 . S
C786 C802 1.368 . S
H787 C795 0.950 . S
H788 C793 0.950 . S
H789 C794 0.949 . S
H790 C796 0.950 . S
H791 C797 0.950 . S
H792 C798 0.949 . S
C793 H788 0.950 . S
C793 C795 1.327 . S
C793 C799 1.429 . S
C794 C786 1.574 . S
C794 H789 0.949 . S
C794 C800 1.368 . S
C795 C779 1.349 . S
C795 H787 0.950 . S
C795 C793 1.327 . S
C796 C784 1.349 . S
C796 H790 0.950 . S
C796 C797 1.327 . S
C797 H791 0.950 . S
C797 C796 1.327 . S
C797 C801 1.429 . S
C798 C781 1.574 . S
C798 H792 0.949 . S
C798 C802 1.368 . S
C799 C780 1.429 . S
C799 C793 1.429 . S
C799 C800 1.523 . S
C800 C781 1.368 . S
C800 C794 1.368 . S
C800 C799 1.523 . S
C801 C785 1.429 . S
C801 C797 1.429 . S
C801 C802 1.523 . S
C802 C786 1.368 . S
C802 C798 1.368 . S
C802 C801 1.523 . S
H803 C778 0.950 . S
H804 C780 0.950 . S
H805 C781 0.949 . S
H806 C783 0.950 . S
H807 C785 0.950 . S
C808 C809 1.349 . S
C808 C810 1.327 . S
C808 H833 0.950 . S
C809 C808 1.349 . S
C809 C825 1.349 . S
C810 C808 1.327 . S
C810 C829 1.429 . S
C810 H834 0.950 . S
C811 C828 1.574 . S
C811 C830 1.368 . S
C811 H835 0.949 . S
H812 C816 0.949 . S
C813 C814 1.349 . S
C813 C815 1.327 1_565 S
C813 H836 0.950 . S
C814 C813 1.349 . S
C814 C826 1.349 . S
C815 C813 1.327 1_545 S
C815 C831 1.429 . S
C815 H837 0.950 . S
C816 H812 0.949 . S
C816 C824 1.574 . S
C816 C832 1.368 . S
H817 C825 0.950 . S
H818 C823 0.950 . S
H819 C824 0.949 . S
H820 C826 0.950 . S
H821 C827 0.950 . S
H822 C828 0.949 . S
C823 H818 0.950 . S
C823 C825 1.327 . S
C823 C829 1.429 . S
C824 C816 1.574 . S
C824 H819 0.949 . S
C824 C830 1.368 . S
C825 C809 1.349 . S
C825 H817 0.950 . S
C825 C823 1.327 . S
C826 C814 1.349 . S
C826 H820 0.950 . S
C826 C827 1.327 1_565 S
C827 H821 0.950 . S
C827 C826 1.327 1_545 S
C827 C831 1.429 . S
C828 C811 1.574 . S
C828 H822 0.949 . S
C828 C832 1.368 . S
C829 C810 1.429 . S
C829 C823 1.429 . S
C829 C830 1.523 . S
C830 C811 1.368 . S
C830 C824 1.368 . S
C830 C829 1.523 . S
C831 C815 1.429 . S
C831 C827 1.429 . S
C831 C832 1.523 . S
C832 C816 1.368 . S
C832 C828 1.368 . S
C832 C831 1.523 . S
H833 C808 0.950 . S
H834 C810 0.950 . S
H835 C811 0.949 . S
H836 C813 0.950 . S
H837 C815 0.950 . S
C838 C839 1.349 . S
C838 C840 1.327 1_565 S
C838 H863 0.950 . S
C839 C838 1.349 . S
C839 C855 1.349 1_565 S
C840 C838 1.327 1_545 S
C840 C859 1.429 . S
C840 H864 0.950 . S
C841 C858 1.574 . S
C841 C860 1.368 . S
C841 H865 0.949 . S
H842 C846 0.949 . S
C843 C844 1.349 . S
C843 C845 1.327 . S
C843 H866 0.950 . S
C844 C843 1.349 . S
C844 C856 1.349 . S
C845 C843 1.327 . S
C845 C861 1.429 . S
C845 H867 0.950 . S
C846 H842 0.949 . S
C846 C854 1.574 . S
C846 C862 1.368 . S
H847 C855 0.950 1_565 S
H848 C853 0.950 . S
H849 C854 0.949 . S
H850 C856 0.950 . S
H851 C857 0.950 . S
H852 C858 0.949 . S
C853 H848 0.950 . S
C853 C855 1.327 . S
C853 C859 1.429 . S
C854 C846 1.574 . S
C854 H849 0.949 . S
C854 C860 1.368 . S
C855 C839 1.349 1_545 S
C855 H847 0.950 1_545 S
C855 C853 1.327 . S
C856 C844 1.349 . S
C856 H850 0.950 . S
C856 C857 1.327 . S
C857 H851 0.950 . S
C857 C856 1.327 . S
C857 C861 1.429 . S
C858 C841 1.574 . S
C858 H852 0.949 . S
C858 C862 1.368 . S
C859 C840 1.429 . S
C859 C853 1.429 . S
C859 C860 1.523 . S
C860 C841 1.368 . S
C860 C854 1.368 . S
C860 C859 1.523 . S
C861 C845 1.429 . S
C861 C857 1.429 . S
C861 C862 1.523 . S
C862 C846 1.368 . S
C862 C858 1.368 . S
C862 C861 1.523 . S
H863 C838 0.950 . S
H864 C840 0.950 . S
H865 C841 0.949 . S
H866 C843 0.950 . S
H867 C845 0.950 . S
C868 C869 1.349 . S
C868 C870 1.327 . S
C868 H893 0.950 . S
C869 C868 1.349 . S
C869 C885 1.349 . S
C870 C868 1.327 . S
C870 C889 1.429 . S
C870 H894 0.950 . S
C871 C888 1.574 . S
C871 C890 1.368 . S
C871 H895 0.949 . S
H872 C876 0.949 . S
C873 C874 1.349 . S
C873 C875 1.327 1_545 S
C873 H896 0.950 . S
C874 C873 1.349 . S
C874 C886 1.349 . S
C875 C873 1.327 1_565 S
C875 C891 1.429 . S
C875 H897 0.950 . S
C876 H872 0.949 . S
C876 C884 1.574 . S
C876 C892 1.368 . S
H877 C885 0.950 . S
H878 C883 0.950 . S
H879 C884 0.949 . S
H880 C886 0.950 . S
H881 C887 0.950 . S
H882 C888 0.949 . S
C883 H878 0.950 . S
C883 C885 1.327 . S
C883 C889 1.429 . S
C884 C876 1.574 . S
C884 H879 0.949 . S
C884 C890 1.368 . S
C885 C869 1.349 . S
C885 H877 0.950 . S
C885 C883 1.327 . S
C886 C874 1.349 . S
C886 H880 0.950 . S
C886 C887 1.327 1_545 S
C887 H881 0.950 . S
C887 C886 1.327 1_565 S
C887 C891 1.429 . S
C888 C871 1.574 . S
C888 H882 0.949 . S
C888 C892 1.368 . S
C889 C870 1.429 . S
C889 C883 1.429 . S
C889 C890 1.523 . S
C890 C871 1.368 . S
C890 C884 1.368 . S
C890 C889 1.523 . S
C891 C875 1.429 . S
C891 C887 1.429 . S
C891 C892 1.523 . S
C892 C876 1.368 . S
C892 C888 1.368 . S
C892 C891 1.523 . S
H893 C868 0.950 . S
H894 C870 0.950 . S
H895 C871 0.949 . S
H896 C873 0.950 . S
H897 C875 0.950 . S
C898 C899 1.349 . S
C898 C900 1.327 . S
C898 H923 0.950 . S
C899 C898 1.349 . S
C899 C915 1.349 . S
C900 C898 1.327 . S
C900 C919 1.429 . S
C900 H924 0.950 . S
C901 C918 1.574 . S
C901 C920 1.368 . S
C901 H925 0.949 . S
H902 C906 0.949 . S
C903 C904 1.349 . S
C903 C905 1.327 1_545 S
C903 H926 0.950 . S
C904 C903 1.349 . S
C904 C916 1.349 . S
C905 C903 1.327 1_565 S
C905 C921 1.429 . S
C905 H927 0.950 . S
C906 H902 0.949 . S
C906 C914 1.574 . S
C906 C922 1.368 . S
H907 C915 0.950 . S
H908 C913 0.950 . S
H909 C914 0.949 . S
H910 C916 0.950 . S
H911 C917 0.950 . S
H912 C918 0.949 . S
C913 H908 0.950 . S
C913 C915 1.327 . S
C913 C919 1.429 . S
C914 C906 1.574 . S
C914 H909 0.949 . S
C914 C920 1.368 . S
C915 C899 1.349 . S
C915 H907 0.950 . S
C915 C913 1.327 . S
C916 C904 1.349 . S
C916 H910 0.950 . S
C916 C917 1.327 1_545 S
C917 H911 0.950 . S
C917 C916 1.327 1_565 S
C917 C921 1.429 . S
C918 C901 1.574 . S
C918 H912 0.949 . S
C918 C922 1.368 . S
C919 C900 1.429 . S
C919 C913 1.429 . S
C919 C920 1.523 . S
C920 C901 1.368 . S
C920 C914 1.368 . S
C920 C919 1.523 . S
C921 C905 1.429 . S
C921 C917 1.429 . S
C921 C922 1.523 . S
C922 C906 1.368 . S
C922 C918 1.368 . S
C922 C921 1.523 . S
H923 C898 0.950 . S
H924 C900 0.950 . S
H925 C901 0.949 . S
H926 C903 0.950 . S
H927 C905 0.950 . S
C928 C929 1.349 . S
C928 C930 1.327 . S
C928 H953 0.950 . S
C929 C928 1.349 . S
C929 C945 1.349 . S
C930 C928 1.327 . S
C930 C949 1.429 . S
C930 H954 0.950 . S
C931 C948 1.574 . S
C931 C950 1.368 1_455 S
C931 H955 0.949 . S
H932 C936 0.949 . S
C933 C934 1.349 . S
C933 C935 1.327 . S
C933 H956 0.950 . S
C934 C933 1.349 . S
C934 C946 1.349 . S
C935 C933 1.327 . S
C935 C951 1.429 . S
C935 H957 0.950 . S
C936 H932 0.949 . S
C936 C944 1.574 . S
C936 C952 1.368 1_655 S
H937 C945 0.950 . S
H938 C943 0.950 . S
H939 C944 0.949 . S
H940 C946 0.950 . S
H941 C947 0.950 . S
H942 C948 0.949 . S
C943 H938 0.950 . S
C943 C945 1.327 . S
C943 C949 1.429 . S
C944 C936 1.574 . S
C944 H939 0.949 . S
C944 C950 1.368 1_554 S
C945 C929 1.349 . S
C945 H937 0.950 . S
C945 C943 1.327 . S
C946 C934 1.349 . S
C946 H940 0.950 . S
C946 C947 1.327 . S
C947 H941 0.950 . S
C947 C946 1.327 . S
C947 C951 1.429 . S
C948 C931 1.574 . S
C948 H942 0.949 . S
C948 C952 1.368 1_556 S
C949 C930 1.429 . S
C949 C943 1.429 . S
C949 C950 1.523 . S
C950 C931 1.368 1_655 S
C950 C944 1.368 1_556 S
C950 C949 1.523 . S
C951 C935 1.429 . S
C951 C947 1.429 . S
C951 C952 1.523 . S
C952 C936 1.368 1_455 S
C952 C948 1.368 1_554 S
C952 C951 1.523 . S
H953 C928 0.950 . S
H954 C930 0.950 . S
H955 C931 0.949 . S
H956 C933 0.950 . S
H957 C935 0.950 . S
C958 C959 1.349 . S
C958 C960 1.327 . S
C958 H983 0.950 . S
C959 C958 1.349 . S
C959 C975 1.349 . S
C960 C958 1.327 . S
C960 C979 1.429 . S
C960 H984 0.950 . S
C961 C978 1.574 1_556 S
C961 C980 1.368 . S
C961 H985 0.949 . S
H962 C966 0.949 . S
C963 C964 1.349 . S
C963 C965 1.327 . S
C963 H986 0.950 . S
C964 C963 1.349 . S
C964 C976 1.349 . S
C965 C963 1.327 . S
C965 C981 1.429 . S
C965 H987 0.950 . S
C966 H962 0.949 . S
C966 C974 1.574 1_554 S
C966 C982 1.368 . S
H967 C975 0.950 . S
H968 C973 0.950 . S
H969 C974 0.949 . S
H970 C976 0.950 . S
H971 C977 0.950 . S
H972 C978 0.949 . S
C973 H968 0.950 . S
C973 C975 1.327 . S
C973 C979 1.429 . S
C974 C966 1.574 1_556 S
C974 H969 0.949 . S
C974 C980 1.368 . S
C975 C959 1.349 . S
C975 H967 0.950 . S
C975 C973 1.327 . S
C976 C964 1.349 . S
C976 H970 0.950 . S
C976 C977 1.327 . S
C977 H971 0.950 . S
C977 C976 1.327 . S
C977 C981 1.429 . S
C978 C961 1.574 1_554 S
C978 H972 0.949 . S
C978 C982 1.368 . S
C979 C960 1.429 . S
C979 C973 1.429 . S
C979 C980 1.523 . S
C980 C961 1.368 . S
C980 C974 1.368 . S
C980 C979 1.523 . S
C981 C965 1.429 . S
C981 C977 1.429 . S
C981 C982 1.523 . S
C982 C966 1.368 . S
C982 C978 1.368 . S
C982 C981 1.523 . S
H983 C958 0.950 . S
H984 C960 0.950 . S
H985 C961 0.949 . S
H986 C963 0.950 . S
H987 C965 0.950 . S
C988 C989 1.349 . S
C988 C990 1.327 . S
C988 H1013 0.950 . S
C989 C988 1.349 . S
C989 C1005 1.349 . S
C990 C988 1.327 . S
C990 C1009 1.429 . S
C990 H1014 0.950 . S
C991 C1008 1.574 . S
C991 C1010 1.368 . S
C991 H1015 0.949 . S
H992 C996 0.949 . S
C993 C994 1.349 . S
C993 C995 1.327 . S
C993 H1016 0.950 . S
C994 C993 1.349 . S
C994 C1006 1.349 . S
C995 C993 1.327 . S
C995 C1011 1.429 . S
C995 H1017 0.950 . S
C996 H992 0.949 . S
C996 C1004 1.574 . S
C996 C1012 1.368 . S
H997 C1005 0.950 . S
H998 C1003 0.950 . S
H999 C1004 0.949 . S
H1000 C1006 0.950 . S
H1001 C1007 0.950 . S
H1002 C1008 0.949 . S
C1003 H998 0.950 . S
C1003 C1005 1.327 . S
C1003 C1009 1.429 . S
C1004 C996 1.574 . S
C1004 H999 0.949 . S
C1004 C1010 1.368 1_655 S
C1005 C989 1.349 . S
C1005 H997 0.950 . S
C1005 C1003 1.327 . S
C1006 C994 1.349 . S
C1006 H1000 0.950 . S
C1006 C1007 1.327 . S
C1007 H1001 0.950 . S
C1007 C1006 1.327 . S
C1007 C1011 1.429 . S
C1008 C991 1.574 . S
C1008 H1002 0.949 . S
C1008 C1012 1.368 1_455 S
C1009 C990 1.429 . S
C1009 C1003 1.429 . S
C1009 C1010 1.523 . S
C1010 C991 1.368 . S
C1010 C1004 1.368 1_455 S
C1010 C1009 1.523 . S
C1011 C995 1.429 . S
C1011 C1007 1.429 . S
C1011 C1012 1.523 . S
C1012 C996 1.368 . S
C1012 C1008 1.368 1_655 S
C1012 C1011 1.523 . S
H1013 C988 0.950 . S
H1014 C990 0.950 . S
H1015 C991 0.949 . S
H1016 C993 0.950 . S
H1017 C995 0.950 . S
C1018 C1019 1.349 . S
C1018 C1020 1.327 . S
C1018 H1043 0.950 . S
C1019 C1018 1.349 . S
C1019 C1035 1.349 . S
C1020 C1018 1.327 . S
C1020 C1039 1.429 . S
C1020 H1044 0.950 . S
C1021 C1038 1.574 . S
C1021 C1040 1.368 . S
C1021 H1045 0.949 . S
H1022 C1026 0.949 . S
C1023 C1024 1.349 . S
C1023 C1025 1.327 . S
C1023 H1046 0.950 . S
C1024 C1023 1.349 . S
C1024 C1036 1.349 . S
C1025 C1023 1.327 . S
C1025 C1041 1.429 . S
C1025 H1047 0.950 . S
C1026 H1022 0.949 . S
C1026 C1034 1.574 . S
C1026 C1042 1.368 . S
H1027 C1035 0.950 . S
H1028 C1033 0.950 . S
H1029 C1034 0.949 . S
H1030 C1036 0.950 . S
H1031 C1037 0.950 . S
H1032 C1038 0.949 . S
C1033 H1028 0.950 . S
C1033 C1035 1.327 . S
C1033 C1039 1.429 . S
C1034 C1026 1.574 . S
C1034 H1029 0.949 . S
C1034 C1040 1.368 . S
C1035 C1019 1.349 . S
C1035 H1027 0.950 . S
C1035 C1033 1.327 . S
C1036 C1024 1.349 . S
C1036 H1030 0.950 . S
C1036 C1037 1.327 . S
C1037 H1031 0.950 . S
C1037 C1036 1.327 . S
C1037 C1041 1.429 . S
C1038 C1021 1.574 . S
C1038 H1032 0.949 . S
C1038 C1042 1.368 . S
C1039 C1020 1.429 . S
C1039 C1033 1.429 . S
C1039 C1040 1.523 . S
C1040 C1021 1.368 . S
C1040 C1034 1.368 . S
C1040 C1039 1.523 . S
C1041 C1025 1.429 . S
C1041 C1037 1.429 . S
C1041 C1042 1.523 . S
C1042 C1026 1.368 . S
C1042 C1038 1.368 . S
C1042 C1041 1.523 . S
H1043 C1018 0.950 . S
H1044 C1020 0.950 . S
H1045 C1021 0.949 . S
H1046 C1023 0.950 . S
H1047 C1025 0.950 . S
C1048 C1049 1.349 . S
C1048 C1050 1.327 . S
C1048 H1073 0.950 . S
C1049 C1048 1.349 . S
C1049 C1065 1.349 . S
C1050 C1048 1.327 . S
C1050 C1069 1.429 . S
C1050 H1074 0.950 . S
C1051 C1068 1.574 . S
C1051 C1070 1.368 1_554 S
C1051 H1075 0.949 . S
H1052 C1056 0.949 . S
C1053 C1054 1.349 . S
C1053 C1055 1.327 . S
C1053 H1076 0.950 . S
C1054 C1053 1.349 . S
C1054 C1066 1.349 . S
C1055 C1053 1.327 . S
C1055 C1071 1.429 . S
C1055 H1077 0.950 . S
C1056 H1052 0.949 . S
C1056 C1064 1.574 . S
C1056 C1072 1.368 1_556 S
H1057 C1065 0.950 . S
H1058 C1063 0.950 . S
H1059 C1064 0.949 . S
H1060 C1066 0.950 . S
H1061 C1067 0.950 . S
H1062 C1068 0.949 . S
C1063 H1058 0.950 . S
C1063 C1065 1.327 . S
C1063 C1069 1.429 . S
C1064 C1056 1.574 . S
C1064 H1059 0.949 . S
C1064 C1070 1.368 . S
C1065 C1049 1.349 . S
C1065 H1057 0.950 . S
C1065 C1063 1.327 . S
C1066 C1054 1.349 . S
C1066 H1060 0.950 . S
C1066 C1067 1.327 . S
C1067 H1061 0.950 . S
C1067 C1066 1.327 . S
C1067 C1071 1.429 . S
C1068 C1051 1.574 . S
C1068 H1062 0.949 . S
C1068 C1072 1.368 . S
C1069 C1050 1.429 . S
C1069 C1063 1.429 . S
C1069 C1070 1.523 . S
C1070 C1051 1.368 1_556 S
C1070 C1064 1.368 . S
C1070 C1069 1.523 . S
C1071 C1055 1.429 . S
C1071 C1067 1.429 . S
C1071 C1072 1.523 . S
C1072 C1056 1.368 1_554 S
C1072 C1068 1.368 . S
C1072 C1071 1.523 . S
H1073 C1048 0.950 . S
H1074 C1050 0.950 . S
H1075 C1051 0.949 . S
H1076 C1053 0.950 . S
H1077 C1055 0.950 . S
C1078 C1079 1.349 . S
C1078 C1080 1.327 . S
C1078 H1103 0.950 . S
C1079 C1078 1.349 . S
C1079 C1095 1.349 . S
C1080 C1078 1.327 . S
C1080 C1099 1.429 . S
C1080 H1104 0.950 . S
C1081 C1098 1.578 1_655 S
C1081 C1100 1.365 . S
C1081 H1105 0.949 . S
H1082 C1086 0.949 . S
C1083 C1084 1.349 . S
C1083 C1085 1.327 . S
C1083 H1106 0.950 . S
C1084 C1083 1.349 . S
C1084 C1096 1.349 . S
C1085 C1083 1.327 . S
C1085 C1101 1.429 . S
C1085 H1107 0.950 . S
C1086 H1082 0.949 . S
C1086 C1094 1.578 1_455 S
C1086 C1102 1.365 . S
H1087 C1095 0.950 . S
H1088 C1093 0.950 . S
H1089 C1094 0.949 . S
H1090 C1096 0.950 . S
H1091 C1097 0.950 . S
H1092 C1098 0.949 . S
C1093 H1088 0.950 . S
C1093 C1095 1.327 . S
C1093 C1099 1.429 . S
C1094 C1086 1.578 1_655 S
C1094 H1089 0.949 . S
C1094 C1100 1.368 . S
C1095 C1079 1.349 . S
C1095 H1087 0.950 . S
C1095 C1093 1.327 . S
C1096 C1084 1.349 . S
C1096 H1090 0.950 . S
C1096 C1097 1.327 . S
C1097 H1091 0.950 . S
C1097 C1096 1.327 . S
C1097 C1101 1.429 . S
C1098 C1081 1.578 1_455 S
C1098 H1092 0.949 . S
C1098 C1102 1.368 . S
C1099 C1080 1.429 . S
C1099 C1093 1.429 . S
C1099 C1100 1.523 . S
C1100 C1081 1.365 . S
C1100 C1094 1.368 . S
C1100 C1099 1.523 . S
C1101 C1085 1.429 . S
C1101 C1097 1.429 . S
C1101 C1102 1.523 . S
C1102 C1086 1.365 . S
C1102 C1098 1.368 . S
C1102 C1101 1.523 . S
H1103 C1078 0.950 . S
H1104 C1080 0.950 . S
H1105 C1081 0.949 . S
H1106 C1083 0.950 . S
H1107 C1085 0.950 . S
C1108 C1109 1.349 . S
C1108 C1110 1.327 . S
C1108 H1133 0.950 . S
C1109 C1108 1.349 . S
C1109 C1125 1.349 . S
C1110 C1108 1.327 . S
C1110 C1129 1.429 . S
C1110 H1134 0.950 . S
C1111 C1128 1.574 . S
C1111 C1130 1.368 . S
C1111 H1135 0.949 . S
H1112 C1116 0.949 . S
C1113 C1114 1.349 . S
C1113 C1115 1.327 . S
C1113 H1136 0.950 . S
C1114 C1113 1.349 . S
C1114 C1126 1.349 . S
C1115 C1113 1.327 . S
C1115 C1131 1.429 . S
C1115 H1137 0.950 . S
C1116 H1112 0.949 . S
C1116 C1124 1.574 . S
C1116 C1132 1.368 . S
H1117 C1125 0.950 . S
H1118 C1123 0.950 . S
H1119 C1124 0.949 . S
H1120 C1126 0.950 . S
H1121 C1127 0.950 . S
H1122 C1128 0.949 . S
C1123 H1118 0.950 . S
C1123 C1125 1.327 . S
C1123 C1129 1.429 . S
C1124 C1116 1.574 . S
C1124 H1119 0.949 . S
C1124 C1130 1.368 . S
C1125 C1109 1.349 . S
C1125 H1117 0.950 . S
C1125 C1123 1.327 . S
C1126 C1114 1.349 . S
C1126 H1120 0.950 . S
C1126 C1127 1.327 . S
C1127 H1121 0.950 . S
C1127 C1126 1.327 . S
C1127 C1131 1.429 . S
C1128 C1111 1.574 . S
C1128 H1122 0.949 . S
C1128 C1132 1.368 . S
C1129 C1110 1.429 . S
C1129 C1123 1.429 . S
C1129 C1130 1.523 . S
C1130 C1111 1.368 . S
C1130 C1124 1.368 . S
C1130 C1129 1.523 . S
C1131 C1115 1.429 . S
C1131 C1127 1.429 . S
C1131 C1132 1.523 . S
C1132 C1116 1.368 . S
C1132 C1128 1.368 . S
C1132 C1131 1.523 . S
H1133 C1108 0.950 . S
H1134 C1110 0.950 . S
H1135 C1111 0.949 . S
H1136 C1113 0.950 . S
H1137 C1115 0.950 . S
C1138 C1139 1.349 . S
C1138 C1140 1.327 . S
C1138 H1163 0.950 . S
C1139 C1138 1.349 . S
C1139 C1155 1.349 . S
C1140 C1138 1.327 . S
C1140 C1159 1.429 . S
C1140 H1164 0.950 . S
C1141 C1158 1.574 . S
C1141 C1160 1.368 1_565 S
C1141 H1165 0.949 . S
H1142 C1146 0.949 . S
C1143 C1144 1.349 . S
C1143 C1145 1.327 . S
C1143 H1166 0.950 . S
C1144 C1143 1.349 . S
C1144 C1156 1.349 . S
C1145 C1143 1.327 . S
C1145 C1161 1.429 . S
C1145 H1167 0.950 . S
C1146 H1142 0.949 . S
C1146 C1154 1.574 . S
C1146 C1162 1.368 1_545 S
H1147 C1155 0.950 . S
H1148 C1153 0.950 1_565 S
H1149 C1154 0.949 . S
H1150 C1156 0.950 . S
H1151 C1157 0.950 1_545 S
H1152 C1158 0.949 . S
C1153 H1148 0.950 1_545 S
C1153 C1155 1.327 . S
C1153 C1159 1.429 . S
C1154 C1146 1.574 . S
C1154 H1149 0.949 . S
C1154 C1160 1.368 1_455 S
C1155 C1139 1.349 . S
C1155 H1147 0.950 . S
C1155 C1153 1.327 . S
C1156 C1144 1.349 . S
C1156 H1150 0.950 . S
C1156 C1157 1.327 . S
C1157 H1151 0.950 1_565 S
C1157 C1156 1.327 . S
C1157 C1161 1.429 . S
C1158 C1141 1.574 . S
C1158 H1152 0.949 . S
C1158 C1162 1.368 1_655 S
C1159 C1140 1.429 . S
C1159 C1153 1.429 . S
C1159 C1160 1.523 . S
C1160 C1141 1.368 1_545 S
C1160 C1154 1.368 1_655 S
C1160 C1159 1.523 . S
C1161 C1145 1.429 . S
C1161 C1157 1.429 . S
C1161 C1162 1.523 . S
C1162 C1146 1.368 1_565 S
C1162 C1158 1.368 1_455 S
C1162 C1161 1.523 . S
H1163 C1138 0.950 . S
H1164 C1140 0.950 . S
H1165 C1141 0.949 . S
H1166 C1143 0.950 . S
H1167 C1145 0.950 . S
C1168 C1169 1.349 . S
C1168 C1170 1.327 . S
C1168 H1193 0.950 . S
C1169 C1168 1.349 . S
C1169 C1185 1.349 . S
C1170 C1168 1.327 . S
C1170 C1189 1.429 . S
C1170 H1194 0.950 . S
C1171 C1188 1.574 . S
C1171 C1190 1.368 . S
C1171 H1195 0.949 . S
H1172 C1176 0.949 . S
C1173 C1174 1.349 . S
C1173 C1175 1.327 . S
C1173 H1196 0.950 . S
C1174 C1173 1.349 . S
C1174 C1186 1.349 . S
C1175 C1173 1.327 . S
C1175 C1191 1.429 . S
C1175 H1197 0.950 . S
C1176 H1172 0.949 . S
C1176 C1184 1.574 . S
C1176 C1192 1.368 . S
H1177 C1185 0.950 . S
H1178 C1183 0.950 . S
H1179 C1184 0.949 . S
H1180 C1186 0.950 . S
H1181 C1187 0.950 . S
H1182 C1188 0.949 . S
C1183 H1178 0.950 . S
C1183 C1185 1.327 . S
C1183 C1189 1.429 . S
C1184 C1176 1.574 . S
C1184 H1179 0.949 . S
C1184 C1190 1.368 . S
C1185 C1169 1.349 . S
C1185 H1177 0.950 . S
C1185 C1183 1.327 . S
C1186 C1174 1.349 . S
C1186 H1180 0.950 . S
C1186 C1187 1.327 . S
C1187 H1181 0.950 . S
C1187 C1186 1.327 . S
C1187 C1191 1.429 . S
C1188 C1171 1.574 . S
C1188 H1182 0.949 . S
C1188 C1192 1.368 . S
C1189 C1170 1.429 . S
C1189 C1183 1.429 . S
C1189 C1190 1.523 . S
C1190 C1171 1.368 . S
C1190 C1184 1.368 . S
C1190 C1189 1.523 . S
C1191 C1175 1.429 . S
C1191 C1187 1.429 . S
C1191 C1192 1.523 . S
C1192 C1176 1.368 . S
C1192 C1188 1.368 . S
C1192 C1191 1.523 . S
H1193 C1168 0.950 . S
H1194 C1170 0.950 . S
H1195 C1171 0.949 . S
H1196 C1173 0.950 . S
H1197 C1175 0.950 . S
C1198 C1199 1.349 . S
C1198 C1200 1.327 . S
C1198 H1223 0.950 . S
C1199 C1198 1.349 . S
C1199 C1215 1.349 . S
C1200 C1198 1.327 . S
C1200 C1219 1.429 . S
C1200 H1224 0.950 1_565 S
C1201 C1218 1.574 . S
C1201 C1220 1.368 . S
C1201 H1225 0.949 . S
H1202 C1206 0.949 . S
C1203 C1204 1.349 . S
C1203 C1205 1.327 . S
C1203 H1226 0.950 . S
C1204 C1203 1.349 . S
C1204 C1216 1.349 . S
C1205 C1203 1.327 . S
C1205 C1221 1.429 . S
C1205 H1227 0.950 1_545 S
C1206 H1202 0.949 . S
C1206 C1214 1.574 . S
C1206 C1222 1.368 . S
H1207 C1215 0.950 . S
H1208 C1213 0.950 . S
H1209 C1214 0.949 . S
H1210 C1216 0.950 . S
H1211 C1217 0.950 . S
H1212 C1218 0.949 . S
C1213 H1208 0.950 . S
C1213 C1215 1.327 . S
C1213 C1219 1.429 . S
C1214 C1206 1.574 . S
C1214 H1209 0.949 . S
C1214 C1220 1.368 1_545 S
C1215 C1199 1.349 . S
C1215 H1207 0.950 . S
C1215 C1213 1.327 . S
C1216 C1204 1.349 . S
C1216 H1210 0.950 . S
C1216 C1217 1.327 . S
C1217 H1211 0.950 . S
C1217 C1216 1.327 . S
C1217 C1221 1.429 . S
C1218 C1201 1.574 . S
C1218 H1212 0.949 . S
C1218 C1222 1.368 1_565 S
C1219 C1200 1.429 . S
C1219 C1213 1.429 . S
C1219 C1220 1.523 . S
C1220 C1201 1.368 . S
C1220 C1214 1.368 1_565 S
C1220 C1219 1.523 . S
C1221 C1205 1.429 . S
C1221 C1217 1.429 . S
C1221 C1222 1.523 . S
C1222 C1206 1.368 . S
C1222 C1218 1.368 1_545 S
C1222 C1221 1.523 . S
H1223 C1198 0.950 . S
H1224 C1200 0.950 1_545 S
H1225 C1201 0.949 . S
H1226 C1203 0.950 . S
H1227 C1205 0.950 1_565 S
C1228 C1229 1.349 . S
C1228 C1230 1.327 . S
C1228 H1253 0.950 . S
C1229 C1228 1.349 . S
C1229 C1245 1.349 . S
C1230 C1228 1.327 . S
C1230 C1249 1.429 . S
C1230 H1254 0.950 . S
C1231 C1248 1.574 . S
C1231 C1250 1.368 . S
C1231 H1255 0.949 . S
H1232 C1236 0.949 . S
C1233 C1234 1.349 . S
C1233 C1235 1.327 . S
C1233 H1256 0.950 . S
C1234 C1233 1.349 . S
C1234 C1246 1.349 . S
C1235 C1233 1.327 . S
C1235 C1251 1.429 . S
C1235 H1257 0.950 . S
C1236 H1232 0.949 . S
C1236 C1244 1.574 . S
C1236 C1252 1.368 . S
H1237 C1245 0.950 . S
H1238 C1243 0.950 . S
H1239 C1244 0.949 . S
H1240 C1246 0.950 . S
H1241 C1247 0.950 . S
H1242 C1248 0.949 . S
C1243 H1238 0.950 . S
C1243 C1245 1.327 . S
C1243 C1249 1.429 . S
C1244 C1236 1.574 . S
C1244 H1239 0.949 . S
C1244 C1250 1.368 . S
C1245 C1229 1.349 . S
C1245 H1237 0.950 . S
C1245 C1243 1.327 . S
C1246 C1234 1.349 . S
C1246 H1240 0.950 . S
C1246 C1247 1.327 . S
C1247 H1241 0.950 . S
C1247 C1246 1.327 . S
C1247 C1251 1.429 . S
C1248 C1231 1.574 . S
C1248 H1242 0.949 . S
C1248 C1252 1.368 . S
C1249 C1230 1.429 . S
C1249 C1243 1.429 . S
C1249 C1250 1.523 . S
C1250 C1231 1.368 . S
C1250 C1244 1.368 . S
C1250 C1249 1.523 . S
C1251 C1235 1.429 . S
C1251 C1247 1.429 . S
C1251 C1252 1.523 . S
C1252 C1236 1.368 . S
C1252 C1248 1.368 . S
C1252 C1251 1.523 . S
H1253 C1228 0.950 . S
H1254 C1230 0.950 . S
H1255 C1231 0.949 . S
H1256 C1233 0.950 . S
H1257 C1235 0.950 . S
C1258 C1259 1.349 . S
C1258 C1260 1.327 . S
C1258 H1283 0.950 . S
C1259 C1258 1.349 . S
C1259 C1275 1.349 . S
C1260 C1258 1.327 . S
C1260 C1279 1.429 . S
C1260 H1284 0.950 . S
C1261 C1278 1.574 . S
C1261 C1280 1.368 1_545 S
C1261 H1285 0.949 . S
H1262 C1266 0.949 . S
C1263 C1264 1.349 . S
C1263 C1265 1.327 . S
C1263 H1286 0.950 . S
C1264 C1263 1.349 . S
C1264 C1276 1.349 . S
C1265 C1263 1.327 . S
C1265 C1281 1.429 . S
C1265 H1287 0.950 . S
C1266 H1262 0.949 . S
C1266 C1274 1.574 . S
C1266 C1282 1.368 1_565 S
H1267 C1275 0.950 . S
H1268 C1273 0.950 1_545 S
H1269 C1274 0.949 . S
H1270 C1276 0.950 . S
H1271 C1277 0.950 1_565 S
H1272 C1278 0.949 . S
C1273 H1268 0.950 1_565 S
C1273 C1275 1.327 . S
C1273 C1279 1.429 . S
C1274 C1266 1.574 . S
C1274 H1269 0.949 . S
C1274 C1280 1.368 . S
C1275 C1259 1.349 . S
C1275 H1267 0.950 . S
C1275 C1273 1.327 . S
C1276 C1264 1.349 . S
C1276 H1270 0.950 . S
C1276 C1277 1.327 . S
C1277 H1271 0.950 1_545 S
C1277 C1276 1.327 . S
C1277 C1281 1.429 . S
C1278 C1261 1.574 . S
C1278 H1272 0.949 . S
C1278 C1282 1.368 . S
C1279 C1260 1.429 . S
C1279 C1273 1.429 . S
C1279 C1280 1.523 . S
C1280 C1261 1.368 1_565 S
C1280 C1274 1.368 . S
C1280 C1279 1.523 . S
C1281 C1265 1.429 . S
C1281 C1277 1.429 . S
C1281 C1282 1.523 . S
C1282 C1266 1.368 1_545 S
C1282 C1278 1.368 . S
C1282 C1281 1.523 . S
H1283 C1258 0.950 . S
H1284 C1260 0.950 . S
H1285 C1261 0.949 . S
H1286 C1263 0.950 . S
H1287 C1265 0.950 . S
C1288 C1289 1.349 . S
C1288 C1290 1.327 . S
C1288 H1313 0.950 . S
C1289 C1288 1.349 . S
C1289 C1305 1.349 . S
C1290 C1288 1.327 . S
C1290 C1309 1.429 . S
C1290 H1314 0.950 . S
C1291 C1308 1.574 . S
C1291 C1310 1.368 . S
C1291 H1315 0.949 . S
H1292 C1296 0.949 . S
C1293 C1294 1.349 . S
C1293 C1295 1.327 . S
C1293 H1316 0.950 . S
C1294 C1293 1.349 . S
C1294 C1306 1.349 . S
C1295 C1293 1.327 . S
C1295 C1311 1.429 . S
C1295 H1317 0.950 . S
C1296 H1292 0.949 . S
C1296 C1304 1.574 . S
C1296 C1312 1.368 . S
H1297 C1305 0.950 . S
H1298 C1303 0.950 . S
H1299 C1304 0.949 . S
H1300 C1306 0.950 . S
H1301 C1307 0.950 . S
H1302 C1308 0.949 . S
C1303 H1298 0.950 . S
C1303 C1305 1.327 . S
C1303 C1309 1.429 . S
C1304 C1296 1.574 . S
C1304 H1299 0.949 . S
C1304 C1310 1.368 . S
C1305 C1289 1.349 . S
C1305 H1297 0.950 . S
C1305 C1303 1.327 . S
C1306 C1294 1.349 . S
C1306 H1300 0.950 . S
C1306 C1307 1.327 . S
C1307 H1301 0.950 . S
C1307 C1306 1.327 . S
C1307 C1311 1.429 . S
C1308 C1291 1.574 . S
C1308 H1302 0.949 . S
C1308 C1312 1.368 . S
C1309 C1290 1.429 . S
C1309 C1303 1.429 . S
C1309 C1310 1.523 . S
C1310 C1291 1.368 . S
C1310 C1304 1.368 . S
C1310 C1309 1.523 . S
C1311 C1295 1.429 . S
C1311 C1307 1.429 . S
C1311 C1312 1.523 . S
C1312 C1296 1.368 . S
C1312 C1308 1.368 . S
C1312 C1311 1.523 . S
H1313 C1288 0.950 . S
H1314 C1290 0.950 . S
H1315 C1291 0.949 . S
H1316 C1293 0.950 . S
H1317 C1295 0.950 . S
C1318 C1319 1.349 . S
C1318 C1320 1.327 . S
C1318 H1343 0.950 . S
C1319 C1318 1.349 . S
C1319 C1335 1.349 . S
C1320 C1318 1.327 . S
C1320 C1339 1.429 . S
C1320 H1344 0.950 . S
C1321 C1338 1.574 . S
C1321 C1340 1.368 . S
C1321 H1345 0.949 . S
H1322 C1326 0.949 . S
C1323 C1324 1.349 . S
C1323 C1325 1.327 . S
C1323 H1346 0.950 . S
C1324 C1323 1.349 . S
C1324 C1336 1.349 . S
C1325 C1323 1.327 . S
C1325 C1341 1.429 . S
C1325 H1347 0.950 . S
C1326 H1322 0.949 . S
C1326 C1334 1.574 . S
C1326 C1342 1.368 . S
H1327 C1335 0.950 . S
H1328 C1333 0.950 . S
H1329 C1334 0.949 . S
H1330 C1336 0.950 . S
H1331 C1337 0.950 . S
H1332 C1338 0.949 . S
C1333 H1328 0.950 . S
C1333 C1335 1.327 . S
C1333 C1339 1.429 . S
C1334 C1326 1.574 . S
C1334 H1329 0.949 . S
C1334 C1340 1.368 . S
C1335 C1319 1.349 . S
C1335 H1327 0.950 . S
C1335 C1333 1.327 . S
C1336 C1324 1.349 . S
C1336 H1330 0.950 . S
C1336 C1337 1.327 . S
C1337 H1331 0.950 . S
C1337 C1336 1.327 . S
C1337 C1341 1.429 . S
C1338 C1321 1.574 . S
C1338 H1332 0.949 . S
C1338 C1342 1.368 . S
C1339 C1320 1.429 . S
C1339 C1333 1.429 . S
C1339 C1340 1.523 . S
C1340 C1321 1.368 . S
C1340 C1334 1.368 . S
C1340 C1339 1.523 . S
C1341 C1325 1.429 . S
C1341 C1337 1.429 . S
C1341 C1342 1.523 . S
C1342 C1326 1.368 . S
C1342 C1338 1.368 . S
C1342 C1341 1.523 . S
H1343 C1318 0.950 . S
H1344 C1320 0.950 . S
H1345 C1321 0.949 . S
H1346 C1323 0.950 . S
H1347 C1325 0.950 . S
C1348 C1349 1.349 . S
C1348 C1350 1.327 . S
C1348 H1373 0.950 . S
C1349 C1348 1.349 . S
C1349 C1365 1.349 . S
C1350 C1348 1.327 . S
C1350 C1369 1.429 . S
C1350 H1374 0.950 . S
C1351 C1368 1.574 . S
C1351 C1370 1.368 . S
C1351 H1375 0.949 . S
H1352 C1356 0.949 . S
C1353 C1354 1.349 . S
C1353 C1355 1.327 . S
C1353 H1376 0.950 . S
C1354 C1353 1.349 . S
C1354 C1366 1.349 . S
C1355 C1353 1.327 . S
C1355 C1371 1.429 . S
C1355 H1377 0.950 . S
C1356 H1352 0.949 . S
C1356 C1364 1.574 . S
C1356 C1372 1.368 . S
H1357 C1365 0.950 . S
H1358 C1363 0.950 . S
H1359 C1364 0.949 . S
H1360 C1366 0.950 . S
H1361 C1367 0.950 . S
H1362 C1368 0.949 . S
C1363 H1358 0.950 . S
C1363 C1365 1.327 . S
C1363 C1369 1.429 . S
C1364 C1356 1.574 . S
C1364 H1359 0.949 . S
C1364 C1370 1.368 . S
C1365 C1349 1.349 . S
C1365 H1357 0.950 . S
C1365 C1363 1.327 . S
C1366 C1354 1.349 . S
C1366 H1360 0.950 . S
C1366 C1367 1.327 . S
C1367 H1361 0.950 . S
C1367 C1366 1.327 . S
C1367 C1371 1.429 . S
C1368 C1351 1.574 . S
C1368 H1362 0.949 . S
C1368 C1372 1.368 . S
C1369 C1350 1.429 . S
C1369 C1363 1.429 . S
C1369 C1370 1.523 . S
C1370 C1351 1.368 . S
C1370 C1364 1.368 . S
C1370 C1369 1.523 . S
C1371 C1355 1.429 . S
C1371 C1367 1.429 . S
C1371 C1372 1.523 . S
C1372 C1356 1.368 . S
C1372 C1368 1.368 . S
C1372 C1371 1.523 . S
H1373 C1348 0.950 . S
H1374 C1350 0.950 . S
H1375 C1351 0.949 . S
H1376 C1353 0.950 . S
H1377 C1355 0.950 . S
C1378 C1379 1.349 . S
C1378 C1380 1.327 . S
C1378 H1403 0.950 . S
C1379 C1378 1.349 . S
C1379 C1395 1.349 . S
C1380 C1378 1.327 . S
C1380 C1399 1.429 . S
C1380 H1404 0.973 . S
C1381 C1398 1.574 . S
C1381 C1400 1.368 1_554 S
C1381 H1405 0.949 . S
H1382 C1386 0.949 . S
C1383 C1384 1.349 . S
C1383 C1385 1.327 . S
C1383 H1406 0.950 . S
C1384 C1383 1.349 . S
C1384 C1396 1.349 . S
C1385 C1383 1.327 . S
C1385 C1401 1.429 . S
C1385 H1407 0.973 . S
C1386 H1382 0.949 . S
C1386 C1394 1.574 . S
C1386 C1402 1.368 1_556 S
H1387 C1395 0.950 . S
H1388 C1393 0.950 . S
H1389 C1394 0.949 . S
H1390 C1396 0.950 . S
H1391 C1397 0.950 . S
H1392 C1398 0.949 . S
C1393 H1388 0.950 . S
C1393 C1395 1.327 . S
C1393 C1399 1.429 . S
C1394 C1386 1.574 . S
C1394 H1389 0.949 . S
C1394 C1400 1.368 1_565 S
C1395 C1379 1.349 . S
C1395 H1387 0.950 . S
C1395 C1393 1.327 . S
C1396 C1384 1.349 . S
C1396 H1390 0.950 . S
C1396 C1397 1.327 . S
C1397 H1391 0.950 . S
C1397 C1396 1.327 . S
C1397 C1401 1.429 . S
C1398 C1381 1.574 . S
C1398 H1392 0.949 . S
C1398 C1402 1.368 1_545 S
C1399 C1380 1.429 . S
C1399 C1393 1.429 . S
C1399 C1400 1.523 . S
C1400 C1381 1.368 1_556 S
C1400 C1394 1.368 1_545 S
C1400 C1399 1.523 . S
C1401 C1385 1.429 . S
C1401 C1397 1.429 . S
C1401 C1402 1.523 . S
C1402 C1386 1.368 1_554 S
C1402 C1398 1.368 1_565 S
C1402 C1401 1.523 . S
H1403 C1378 0.950 . S
H1404 C1380 0.973 . S
H1405 C1381 0.949 . S
H1406 C1383 0.950 . S
H1407 C1385 0.973 . S
C1408 C1409 1.349 . S
C1408 C1410 1.327 . S
C1408 H1433 0.950 . S
C1409 C1408 1.349 . S
C1409 C1425 1.349 . S
C1410 C1408 1.327 . S
C1410 C1429 1.429 . S
C1410 H1434 0.950 . S
C1411 C1428 1.574 . S
C1411 C1430 1.368 . S
C1411 H1435 0.949 . S
H1412 C1416 0.949 . S
C1413 C1414 1.349 . S
C1413 C1415 1.327 . S
C1413 H1436 0.950 . S
C1414 C1413 1.349 . S
C1414 C1426 1.349 . S
C1415 C1413 1.327 . S
C1415 C1431 1.429 . S
C1415 H1437 0.950 . S
C1416 H1412 0.949 . S
C1416 C1424 1.574 . S
C1416 C1432 1.368 . S
H1417 C1425 0.950 . S
H1418 C1423 0.950 . S
H1419 C1424 0.949 . S
H1420 C1426 0.950 . S
H1421 C1427 0.950 . S
H1422 C1428 0.949 . S
C1423 H1418 0.950 . S
C1423 C1425 1.327 . S
C1423 C1429 1.429 . S
C1424 C1416 1.574 . S
C1424 H1419 0.949 . S
C1424 C1430 1.368 . S
C1425 C1409 1.349 . S
C1425 H1417 0.950 . S
C1425 C1423 1.327 . S
C1426 C1414 1.349 . S
C1426 H1420 0.950 . S
C1426 C1427 1.327 . S
C1427 H1421 0.950 . S
C1427 C1426 1.327 . S
C1427 C1431 1.429 . S
C1428 C1411 1.574 . S
C1428 H1422 0.949 . S
C1428 C1432 1.368 . S
C1429 C1410 1.429 . S
C1429 C1423 1.429 . S
C1429 C1430 1.523 . S
C1430 C1411 1.368 . S
C1430 C1424 1.368 . S
C1430 C1429 1.523 . S
C1431 C1415 1.429 . S
C1431 C1427 1.429 . S
C1431 C1432 1.523 . S
C1432 C1416 1.368 . S
C1432 C1428 1.368 . S
C1432 C1431 1.523 . S
H1433 C1408 0.950 . S
H1434 C1410 0.950 . S
H1435 C1411 0.949 . S
H1436 C1413 0.950 . S
H1437 C1415 0.950 . S
C1438 C1439 1.349 . S
C1438 C1440 1.327 . S
C1438 H1463 0.950 . S
C1439 C1438 1.349 . S
C1439 C1455 1.349 . S
C1440 C1438 1.327 . S
C1440 C1459 1.429 . S
C1440 H1464 0.950 . S
C1441 C1458 1.574 . S
C1441 C1460 1.368 . S
C1441 H1465 0.949 . S
H1442 C1446 0.949 . S
C1443 C1444 1.349 . S
C1443 C1445 1.327 . S
C1443 H1466 0.950 . S
C1444 C1443 1.349 . S
C1444 C1456 1.349 . S
C1445 C1443 1.327 . S
C1445 C1461 1.429 . S
C1445 H1467 0.950 . S
C1446 H1442 0.949 . S
C1446 C1454 1.574 . S
C1446 C1462 1.368 . S
H1447 C1455 0.950 . S
H1448 C1453 0.950 . S
H1449 C1454 0.949 . S
H1450 C1456 0.950 . S
H1451 C1457 0.950 . S
H1452 C1458 0.949 . S
C1453 H1448 0.950 . S
C1453 C1455 1.327 . S
C1453 C1459 1.429 . S
C1454 C1446 1.574 . S
C1454 H1449 0.949 . S
C1454 C1460 1.368 . S
C1455 C1439 1.349 . S
C1455 H1447 0.950 . S
C1455 C1453 1.327 . S
C1456 C1444 1.349 . S
C1456 H1450 0.950 . S
C1456 C1457 1.327 . S
C1457 H1451 0.950 . S
C1457 C1456 1.327 . S
C1457 C1461 1.429 . S
C1458 C1441 1.574 . S
C1458 H1452 0.949 . S
C1458 C1462 1.368 . S
C1459 C1440 1.429 . S
C1459 C1453 1.429 . S
C1459 C1460 1.523 . S
C1460 C1441 1.368 . S
C1460 C1454 1.368 . S
C1460 C1459 1.523 . S
C1461 C1445 1.429 . S
C1461 C1457 1.429 . S
C1461 C1462 1.523 . S
C1462 C1446 1.368 . S
C1462 C1458 1.368 . S
C1462 C1461 1.523 . S
H1463 C1438 0.950 . S
H1464 C1440 0.950 . S
H1465 C1441 0.949 . S
H1466 C1443 0.950 . S
H1467 C1445 0.950 . S
C1468 C1469 1.349 . S
C1468 C1470 1.327 . S
C1468 H1493 0.950 . S
C1469 C1468 1.349 . S
C1469 C1485 1.349 . S
C1470 C1468 1.327 . S
C1470 C1489 1.429 . S
C1470 H1494 0.950 . S
C1471 C1488 1.574 . S
C1471 C1490 1.368 . S
C1471 H1495 0.949 . S
H1472 C1476 0.949 . S
C1473 C1474 1.349 . S
C1473 C1475 1.327 . S
C1473 H1496 0.950 . S
C1474 C1473 1.349 . S
C1474 C1486 1.349 . S
C1475 C1473 1.327 . S
C1475 C1491 1.429 . S
C1475 H1497 0.950 . S
C1476 H1472 0.949 . S
C1476 C1484 1.574 . S
C1476 C1492 1.368 . S
H1477 C1485 0.950 . S
H1478 C1483 0.950 . S
H1479 C1484 0.949 . S
H1480 C1486 0.950 . S
H1481 C1487 0.950 . S
H1482 C1488 0.949 . S
C1483 H1478 0.950 . S
C1483 C1485 1.327 . S
C1483 C1489 1.429 . S
C1484 C1476 1.574 . S
C1484 H1479 0.949 . S
C1484 C1490 1.368 . S
C1485 C1469 1.349 . S
C1485 H1477 0.950 . S
C1485 C1483 1.327 . S
C1486 C1474 1.349 . S
C1486 H1480 0.950 . S
C1486 C1487 1.327 . S
C1487 H1481 0.950 . S
C1487 C1486 1.327 . S
C1487 C1491 1.429 . S
C1488 C1471 1.574 . S
C1488 H1482 0.949 . S
C1488 C1492 1.368 . S
C1489 C1470 1.429 . S
C1489 C1483 1.429 . S
C1489 C1490 1.523 . S
C1490 C1471 1.368 . S
C1490 C1484 1.368 . S
C1490 C1489 1.523 . S
C1491 C1475 1.429 . S
C1491 C1487 1.429 . S
C1491 C1492 1.523 . S
C1492 C1476 1.368 . S
C1492 C1488 1.368 . S
C1492 C1491 1.523 . S
H1493 C1468 0.950 . S
H1494 C1470 0.950 . S
H1495 C1471 0.949 . S
H1496 C1473 0.950 . S
H1497 C1475 0.950 . S
C1498 C1499 1.349 . S
C1498 C1500 1.327 . S
C1498 H1523 0.950 . S
C1499 C1498 1.349 . S
C1499 C1515 1.349 . S
C1500 C1498 1.327 . S
C1500 C1519 1.429 . S
C1500 H1524 0.950 . S
C1501 C1518 1.574 . S
C1501 C1520 1.368 . S
C1501 H1525 0.949 . S
H1502 C1506 0.949 . S
C1503 C1504 1.349 . S
C1503 C1505 1.327 . S
C1503 H1526 0.950 . S
C1504 C1503 1.349 . S
C1504 C1516 1.349 . S
C1505 C1503 1.327 . S
C1505 C1521 1.429 . S
C1505 H1527 0.950 . S
C1506 H1502 0.949 . S
C1506 C1514 1.574 . S
C1506 C1522 1.368 . S
H1507 C1515 0.950 . S
H1508 C1513 0.950 . S
H1509 C1514 0.949 . S
H1510 C1516 0.950 . S
H1511 C1517 0.950 . S
H1512 C1518 0.949 . S
C1513 H1508 0.950 . S
C1513 C1515 1.327 . S
C1513 C1519 1.429 . S
C1514 C1506 1.574 . S
C1514 H1509 0.949 . S
C1514 C1520 1.368 . S
C1515 C1499 1.349 . S
C1515 H1507 0.950 . S
C1515 C1513 1.327 . S
C1516 C1504 1.349 . S
C1516 H1510 0.950 . S
C1516 C1517 1.327 . S
C1517 H1511 0.950 . S
C1517 C1516 1.327 . S
C1517 C1521 1.429 . S
C1518 C1501 1.574 . S
C1518 H1512 0.949 . S
C1518 C1522 1.368 . S
C1519 C1500 1.429 . S
C1519 C1513 1.429 . S
C1519 C1520 1.523 . S
C1520 C1501 1.368 . S
C1520 C1514 1.368 . S
C1520 C1519 1.523 . S
C1521 C1505 1.429 . S
C1521 C1517 1.429 . S
C1521 C1522 1.523 . S
C1522 C1506 1.368 . S
C1522 C1518 1.368 . S
C1522 C1521 1.523 . S
H1523 C1498 0.950 . S
H1524 C1500 0.950 . S
H1525 C1501 0.949 . S
H1526 C1503 0.950 . S
H1527 C1505 0.950 . S
C1528 C1529 1.349 . S
C1528 C1530 1.327 . S
C1528 H1553 0.950 . S
C1529 C1528 1.349 . S
C1529 C1545 1.349 . S
C1530 C1528 1.327 . S
C1530 C1549 1.429 . S
C1530 H1554 0.950 . S
C1531 C1548 1.574 . S
C1531 C1550 1.368 . S
C1531 H1555 0.949 . S
H1532 C1536 0.949 . S
C1533 C1534 1.349 . S
C1533 C1535 1.327 . S
C1533 H1556 0.950 . S
C1534 C1533 1.349 . S
C1534 C1546 1.349 . S
C1535 C1533 1.327 . S
C1535 C1551 1.429 . S
C1535 H1557 0.950 . S
C1536 H1532 0.949 . S
C1536 C1544 1.574 . S
C1536 C1552 1.368 . S
H1537 C1545 0.950 . S
H1538 C1543 0.950 . S
H1539 C1544 0.949 . S
H1540 C1546 0.950 . S
H1541 C1547 0.950 . S
H1542 C1548 0.949 . S
C1543 H1538 0.950 . S
C1543 C1545 1.327 . S
C1543 C1549 1.429 . S
C1544 C1536 1.574 . S
C1544 H1539 0.949 . S
C1544 C1550 1.368 . S
C1545 C1529 1.349 . S
C1545 H1537 0.950 . S
C1545 C1543 1.327 . S
C1546 C1534 1.349 . S
C1546 H1540 0.950 . S
C1546 C1547 1.327 . S
C1547 H1541 0.950 . S
C1547 C1546 1.327 . S
C1547 C1551 1.429 . S
C1548 C1531 1.574 . S
C1548 H1542 0.949 . S
C1548 C1552 1.368 . S
C1549 C1530 1.429 . S
C1549 C1543 1.429 . S
C1549 C1550 1.523 . S
C1550 C1531 1.368 . S
C1550 C1544 1.368 . S
C1550 C1549 1.523 . S
C1551 C1535 1.429 . S
C1551 C1547 1.429 . S
C1551 C1552 1.523 . S
C1552 C1536 1.368 . S
C1552 C1548 1.368 . S
C1552 C1551 1.523 . S
H1553 C1528 0.950 . S
H1554 C1530 0.950 . S
H1555 C1531 0.949 . S
H1556 C1533 0.950 . S
H1557 C1535 0.950 . S
C1558 C1559 1.349 . S
C1558 C1560 1.327 . S
C1558 H1583 0.950 . S
C1559 C1558 1.349 . S
C1559 C1575 1.349 . S
C1560 C1558 1.327 . S
C1560 C1579 1.429 . S
C1560 H1584 0.950 . S
C1561 C1578 1.574 . S
C1561 C1580 1.368 . S
C1561 H1585 0.949 . S
H1562 C1566 0.949 . S
C1563 C1564 1.349 . S
C1563 C1565 1.327 . S
C1563 H1586 0.950 . S
C1564 C1563 1.349 . S
C1564 C1576 1.349 . S
C1565 C1563 1.327 . S
C1565 C1581 1.429 . S
C1565 H1587 0.950 . S
C1566 H1562 0.949 . S
C1566 C1574 1.574 . S
C1566 C1582 1.368 . S
H1567 C1575 0.950 . S
H1568 C1573 0.950 . S
H1569 C1574 0.949 . S
H1570 C1576 0.950 . S
H1571 C1577 0.950 . S
H1572 C1578 0.949 . S
C1573 H1568 0.950 . S
C1573 C1575 1.327 . S
C1573 C1579 1.429 . S
C1574 C1566 1.574 . S
C1574 H1569 0.949 . S
C1574 C1580 1.368 . S
C1575 C1559 1.349 . S
C1575 H1567 0.950 . S
C1575 C1573 1.327 . S
C1576 C1564 1.349 . S
C1576 H1570 0.950 . S
C1576 C1577 1.327 . S
C1577 H1571 0.950 . S
C1577 C1576 1.327 . S
C1577 C1581 1.429 . S
C1578 C1561 1.574 . S
C1578 H1572 0.949 . S
C1578 C1582 1.368 . S
C1579 C1560 1.429 . S
C1579 C1573 1.429 . S
C1579 C1580 1.523 . S
C1580 C1561 1.368 . S
C1580 C1574 1.368 . S
C1580 C1579 1.523 . S
C1581 C1565 1.429 . S
C1581 C1577 1.429 . S
C1581 C1582 1.523 . S
C1582 C1566 1.368 . S
C1582 C1578 1.368 . S
C1582 C1581 1.523 . S
H1583 C1558 0.950 . S
H1584 C1560 0.950 . S
H1585 C1561 0.949 . S
H1586 C1563 0.950 . S
H1587 C1565 0.950 . S
C1588 C1589 1.349 . S
C1588 C1590 1.327 . S
C1588 H1613 0.950 . S
C1589 C1588 1.349 . S
C1589 C1605 1.349 . S
C1590 C1588 1.327 . S
C1590 C1609 1.429 . S
C1590 H1614 0.950 . S
C1591 C1608 1.574 . S
C1591 C1610 1.368 . S
C1591 H1615 0.949 . S
H1592 C1596 0.949 . S
C1593 C1594 1.349 . S
C1593 C1595 1.327 . S
C1593 H1616 0.950 . S
C1594 C1593 1.349 . S
C1594 C1606 1.349 . S
C1595 C1593 1.327 . S
C1595 C1611 1.429 . S
C1595 H1617 0.950 . S
C1596 H1592 0.949 . S
C1596 C1604 1.574 . S
C1596 C1612 1.368 . S
H1597 C1605 0.950 . S
H1598 C1603 0.950 . S
H1599 C1604 0.949 . S
H1600 C1606 0.950 . S
H1601 C1607 0.950 . S
H1602 C1608 0.949 . S
C1603 H1598 0.950 . S
C1603 C1605 1.327 . S
C1603 C1609 1.429 . S
C1604 C1596 1.574 . S
C1604 H1599 0.949 . S
C1604 C1610 1.368 . S
C1605 C1589 1.349 . S
C1605 H1597 0.950 . S
C1605 C1603 1.327 . S
C1606 C1594 1.349 . S
C1606 H1600 0.950 . S
C1606 C1607 1.327 . S
C1607 H1601 0.950 . S
C1607 C1606 1.327 . S
C1607 C1611 1.429 . S
C1608 C1591 1.574 . S
C1608 H1602 0.949 . S
C1608 C1612 1.368 . S
C1609 C1590 1.429 . S
C1609 C1603 1.429 . S
C1609 C1610 1.523 . S
C1610 C1591 1.368 . S
C1610 C1604 1.368 . S
C1610 C1609 1.523 . S
C1611 C1595 1.429 . S
C1611 C1607 1.429 . S
C1611 C1612 1.523 . S
C1612 C1596 1.368 . S
C1612 C1608 1.368 . S
C1612 C1611 1.523 . S
H1613 C1588 0.950 . S
H1614 C1590 0.950 . S
H1615 C1591 0.949 . S
H1616 C1593 0.950 . S
H1617 C1595 0.950 . S
C1618 C1619 1.349 . S
C1618 C1620 1.327 . S
C1618 H1643 0.950 . S
C1619 C1618 1.349 . S
C1619 C1635 1.349 . S
C1620 C1618 1.327 . S
C1620 C1639 1.429 . S
C1620 H1644 0.950 . S
C1621 C1638 1.574 . S
C1621 C1640 1.368 . S
C1621 H1645 0.949 . S
H1622 C1626 0.949 . S
C1623 C1624 1.349 . S
C1623 C1625 1.327 . S
C1623 H1646 0.950 . S
C1624 C1623 1.349 . S
C1624 C1636 1.349 . S
C1625 C1623 1.327 . S
C1625 C1641 1.429 . S
C1625 H1647 0.950 . S
C1626 H1622 0.949 . S
C1626 C1634 1.574 . S
C1626 C1642 1.368 . S
H1627 C1635 0.950 . S
H1628 C1633 0.950 . S
H1629 C1634 0.949 . S
H1630 C1636 0.950 . S
H1631 C1637 0.950 . S
H1632 C1638 0.949 . S
C1633 H1628 0.950 . S
C1633 C1635 1.327 . S
C1633 C1639 1.429 . S
C1634 C1626 1.574 . S
C1634 H1629 0.949 . S
C1634 C1640 1.368 . S
C1635 C1619 1.349 . S
C1635 H1627 0.950 . S
C1635 C1633 1.327 . S
C1636 C1624 1.349 . S
C1636 H1630 0.950 . S
C1636 C1637 1.327 . S
C1637 H1631 0.950 . S
C1637 C1636 1.327 . S
C1637 C1641 1.429 . S
C1638 C1621 1.574 . S
C1638 H1632 0.949 . S
C1638 C1642 1.368 . S
C1639 C1620 1.429 . S
C1639 C1633 1.429 . S
C1639 C1640 1.523 . S
C1640 C1621 1.368 . S
C1640 C1634 1.368 . S
C1640 C1639 1.523 . S
C1641 C1625 1.429 . S
C1641 C1637 1.429 . S
C1641 C1642 1.523 . S
C1642 C1626 1.368 . S
C1642 C1638 1.368 . S
C1642 C1641 1.523 . S
H1643 C1618 0.950 . S
H1644 C1620 0.950 . S
H1645 C1621 0.949 . S
H1646 C1623 0.950 . S
H1647 C1625 0.950 . S
C1648 C1649 1.349 . S
C1648 C1650 1.327 . S
C1648 H1673 0.950 . S
C1649 C1648 1.349 . S
C1649 C1665 1.349 . S
C1650 C1648 1.327 . S
C1650 C1669 1.429 . S
C1650 H1674 0.950 . S
C1651 C1668 1.574 . S
C1651 C1670 1.368 . S
C1651 H1675 0.949 . S
H1652 C1656 0.949 . S
C1653 C1654 1.349 . S
C1653 C1655 1.327 . S
C1653 H1676 0.950 . S
C1654 C1653 1.349 . S
C1654 C1666 1.349 . S
C1655 C1653 1.327 . S
C1655 C1671 1.429 . S
C1655 H1677 0.950 . S
C1656 H1652 0.949 . S
C1656 C1664 1.574 . S
C1656 C1672 1.368 . S
H1657 C1665 0.950 . S
H1658 C1663 0.950 . S
H1659 C1664 0.949 . S
H1660 C1666 0.950 . S
H1661 C1667 0.950 . S
H1662 C1668 0.949 . S
C1663 H1658 0.950 . S
C1663 C1665 1.327 . S
C1663 C1669 1.429 . S
C1664 C1656 1.574 . S
C1664 H1659 0.949 . S
C1664 C1670 1.368 . S
C1665 C1649 1.349 . S
C1665 H1657 0.950 . S
C1665 C1663 1.327 . S
C1666 C1654 1.349 . S
C1666 H1660 0.950 . S
C1666 C1667 1.327 . S
C1667 H1661 0.950 . S
C1667 C1666 1.327 . S
C1667 C1671 1.429 . S
C1668 C1651 1.574 . S
C1668 H1662 0.949 . S
C1668 C1672 1.368 . S
C1669 C1650 1.429 . S
C1669 C1663 1.429 . S
C1669 C1670 1.523 . S
C1670 C1651 1.368 . S
C1670 C1664 1.368 . S
C1670 C1669 1.523 . S
C1671 C1655 1.429 . S
C1671 C1667 1.429 . S
C1671 C1672 1.523 . S
C1672 C1656 1.368 . S
C1672 C1668 1.368 . S
C1672 C1671 1.523 . S
H1673 C1648 0.950 . S
H1674 C1650 0.950 . S
H1675 C1651 0.949 . S
H1676 C1653 0.950 . S
H1677 C1655 0.950 . S
C1678 C1679 1.349 . S
C1678 C1680 1.327 . S
C1678 H1703 0.950 . S
C1679 C1678 1.349 . S
C1679 C1695 1.349 . S
C1680 C1678 1.327 . S
C1680 C1699 1.429 . S
C1680 H1704 0.950 . S
C1681 C1698 1.574 . S
C1681 C1700 1.368 . S
C1681 H1705 0.949 . S
H1682 C1686 0.949 . S
C1683 C1684 1.349 . S
C1683 C1685 1.327 . S
C1683 H1706 0.950 . S
C1684 C1683 1.349 . S
C1684 C1696 1.349 . S
C1685 C1683 1.327 . S
C1685 C1701 1.429 . S
C1685 H1707 0.950 . S
C1686 H1682 0.949 . S
C1686 C1694 1.574 . S
C1686 C1702 1.368 . S
H1687 C1695 0.950 . S
H1688 C1693 0.950 . S
H1689 C1694 0.949 . S
H1690 C1696 0.950 . S
H1691 C1697 0.950 . S
H1692 C1698 0.949 . S
C1693 H1688 0.950 . S
C1693 C1695 1.327 . S
C1693 C1699 1.429 . S
C1694 C1686 1.574 . S
C1694 H1689 0.949 . S
C1694 C1700 1.368 . S
C1695 C1679 1.349 . S
C1695 H1687 0.950 . S
C1695 C1693 1.327 . S
C1696 C1684 1.349 . S
C1696 H1690 0.950 . S
C1696 C1697 1.327 . S
C1697 H1691 0.950 . S
C1697 C1696 1.327 . S
C1697 C1701 1.429 . S
C1698 C1681 1.574 . S
C1698 H1692 0.949 . S
C1698 C1702 1.368 . S
C1699 C1680 1.429 . S
C1699 C1693 1.429 . S
C1699 C1700 1.523 . S
C1700 C1681 1.368 . S
C1700 C1694 1.368 . S
C1700 C1699 1.523 . S
C1701 C1685 1.429 . S
C1701 C1697 1.429 . S
C1701 C1702 1.523 . S
C1702 C1686 1.368 . S
C1702 C1698 1.368 . S
C1702 C1701 1.523 . S
H1703 C1678 0.950 . S
H1704 C1680 0.950 . S
H1705 C1681 0.949 . S
H1706 C1683 0.950 . S
H1707 C1685 0.950 . S
C1708 C1709 1.349 . S
C1708 C1710 1.327 . S
C1708 H1733 0.950 . S
C1709 C1708 1.349 . S
C1709 C1725 1.349 . S
C1710 C1708 1.327 . S
C1710 C1729 1.429 . S
C1710 H1734 0.950 . S
C1711 C1728 1.574 . S
C1711 C1730 1.368 . S
C1711 H1735 0.949 . S
H1712 C1716 0.949 . S
C1713 C1714 1.349 . S
C1713 C1715 1.327 . S
C1713 H1736 0.950 . S
C1714 C1713 1.349 . S
C1714 C1726 1.349 . S
C1715 C1713 1.327 . S
C1715 C1731 1.429 . S
C1715 H1737 0.950 . S
C1716 H1712 0.949 . S
C1716 C1724 1.574 . S
C1716 C1732 1.368 . S
H1717 C1725 0.950 . S
H1718 C1723 0.950 . S
H1719 C1724 0.949 . S
H1720 C1726 0.950 . S
H1721 C1727 0.950 . S
H1722 C1728 0.949 . S
C1723 H1718 0.950 . S
C1723 C1725 1.327 . S
C1723 C1729 1.429 . S
C1724 C1716 1.574 . S
C1724 H1719 0.949 . S
C1724 C1730 1.368 . S
C1725 C1709 1.349 . S
C1725 H1717 0.950 . S
C1725 C1723 1.327 . S
C1726 C1714 1.349 . S
C1726 H1720 0.950 . S
C1726 C1727 1.327 . S
C1727 H1721 0.950 . S
C1727 C1726 1.327 . S
C1727 C1731 1.429 . S
C1728 C1711 1.574 . S
C1728 H1722 0.949 . S
C1728 C1732 1.368 . S
C1729 C1710 1.429 . S
C1729 C1723 1.429 . S
C1729 C1730 1.523 . S
C1730 C1711 1.368 . S
C1730 C1724 1.368 . S
C1730 C1729 1.523 . S
C1731 C1715 1.429 . S
C1731 C1727 1.429 . S
C1731 C1732 1.523 . S
C1732 C1716 1.368 . S
C1732 C1728 1.368 . S
C1732 C1731 1.523 . S
H1733 C1708 0.950 . S
H1734 C1710 0.950 . S
H1735 C1711 0.949 . S
H1736 C1713 0.950 . S
H1737 C1715 0.950 . S
C1738 C1739 1.349 . S
C1738 C1740 1.327 . S
C1738 H1763 0.950 . S
C1739 C1738 1.349 . S
C1739 C1755 1.349 . S
C1740 C1738 1.327 . S
C1740 C1759 1.429 . S
C1740 H1764 0.950 . S
C1741 C1758 1.574 . S
C1741 C1760 1.368 . S
C1741 H1765 0.949 . S
H1742 C1746 0.949 . S
C1743 C1744 1.349 . S
C1743 C1745 1.327 . S
C1743 H1766 0.950 . S
C1744 C1743 1.349 . S
C1744 C1756 1.349 . S
C1745 C1743 1.327 . S
C1745 C1761 1.429 . S
C1745 H1767 0.950 . S
C1746 H1742 0.949 . S
C1746 C1754 1.574 . S
C1746 C1762 1.368 . S
H1747 C1755 0.950 . S
H1748 C1753 0.950 . S
H1749 C1754 0.949 . S
H1750 C1756 0.950 . S
H1751 C1757 0.950 . S
H1752 C1758 0.949 . S
C1753 H1748 0.950 . S
C1753 C1755 1.327 . S
C1753 C1759 1.429 . S
C1754 C1746 1.574 . S
C1754 H1749 0.949 . S
C1754 C1760 1.368 . S
C1755 C1739 1.349 . S
C1755 H1747 0.950 . S
C1755 C1753 1.327 . S
C1756 C1744 1.349 . S
C1756 H1750 0.950 . S
C1756 C1757 1.327 . S
C1757 H1751 0.950 . S
C1757 C1756 1.327 . S
C1757 C1761 1.429 . S
C1758 C1741 1.574 . S
C1758 H1752 0.949 . S
C1758 C1762 1.368 . S
C1759 C1740 1.429 . S
C1759 C1753 1.429 . S
C1759 C1760 1.523 . S
C1760 C1741 1.368 . S
C1760 C1754 1.368 . S
C1760 C1759 1.523 . S
C1761 C1745 1.429 . S
C1761 C1757 1.429 . S
C1761 C1762 1.523 . S
C1762 C1746 1.368 . S
C1762 C1758 1.368 . S
C1762 C1761 1.523 . S
H1763 C1738 0.950 . S
H1764 C1740 0.950 . S
H1765 C1741 0.949 . S
H1766 C1743 0.950 . S
H1767 C1745 0.950 . S
C1768 C1769 1.349 . S
C1768 C1770 1.327 . S
C1768 H1793 0.950 . S
C1769 C1768 1.349 . S
C1769 C1785 1.349 . S
C1770 C1768 1.327 . S
C1770 C1789 1.429 . S
C1770 H1794 0.950 . S
C1771 C1788 1.574 . S
C1771 C1790 1.368 . S
C1771 H1795 0.949 . S
H1772 C1776 0.949 . S
C1773 C1774 1.349 . S
C1773 C1775 1.327 . S
C1773 H1796 0.950 . S
C1774 C1773 1.349 . S
C1774 C1786 1.349 . S
C1775 C1773 1.327 . S
C1775 C1791 1.429 . S
C1775 H1797 0.950 . S
C1776 H1772 0.949 . S
C1776 C1784 1.574 . S
C1776 C1792 1.368 . S
H1777 C1785 0.950 . S
H1778 C1783 0.950 . S
H1779 C1784 0.949 . S
H1780 C1786 0.950 . S
H1781 C1787 0.950 . S
H1782 C1788 0.949 . S
C1783 H1778 0.950 . S
C1783 C1785 1.327 . S
C1783 C1789 1.429 . S
C1784 C1776 1.574 . S
C1784 H1779 0.949 . S
C1784 C1790 1.368 . S
C1785 C1769 1.349 . S
C1785 H1777 0.950 . S
C1785 C1783 1.327 . S
C1786 C1774 1.349 . S
C1786 H1780 0.950 . S
C1786 C1787 1.327 . S
C1787 H1781 0.950 . S
C1787 C1786 1.327 . S
C1787 C1791 1.429 . S
C1788 C1771 1.574 . S
C1788 H1782 0.949 . S
C1788 C1792 1.368 . S
C1789 C1770 1.429 . S
C1789 C1783 1.429 . S
C1789 C1790 1.523 . S
C1790 C1771 1.368 . S
C1790 C1784 1.368 . S
C1790 C1789 1.523 . S
C1791 C1775 1.429 . S
C1791 C1787 1.429 . S
C1791 C1792 1.523 . S
C1792 C1776 1.368 . S
C1792 C1788 1.368 . S
C1792 C1791 1.523 . S
H1793 C1768 0.950 . S
H1794 C1770 0.950 . S
H1795 C1771 0.949 . S
H1796 C1773 0.950 . S
H1797 C1775 0.950 . S
C1798 C1799 1.349 . S
C1798 C1800 1.327 . S
C1798 H1823 0.950 . S
C1799 C1798 1.349 . S
C1799 C1815 1.349 . S
C1800 C1798 1.327 . S
C1800 C1819 1.429 . S
C1800 H1824 0.950 . S
C1801 C1818 1.574 . S
C1801 C1820 1.368 . S
C1801 H1825 0.949 . S
H1802 C1806 0.949 . S
C1803 C1804 1.349 . S
C1803 C1805 1.327 . S
C1803 H1826 0.950 . S
C1804 C1803 1.349 . S
C1804 C1816 1.349 . S
C1805 C1803 1.327 . S
C1805 C1821 1.429 . S
C1805 H1827 0.950 . S
C1806 H1802 0.949 . S
C1806 C1814 1.574 . S
C1806 C1822 1.368 . S
H1807 C1815 0.950 . S
H1808 C1813 0.950 . S
H1809 C1814 0.949 . S
H1810 C1816 0.950 . S
H1811 C1817 0.950 . S
H1812 C1818 0.949 . S
C1813 H1808 0.950 . S
C1813 C1815 1.327 . S
C1813 C1819 1.429 . S
C1814 C1806 1.574 . S
C1814 H1809 0.949 . S
C1814 C1820 1.368 . S
C1815 C1799 1.349 . S
C1815 H1807 0.950 . S
C1815 C1813 1.327 . S
C1816 C1804 1.349 . S
C1816 H1810 0.950 . S
C1816 C1817 1.327 . S
C1817 H1811 0.950 . S
C1817 C1816 1.327 . S
C1817 C1821 1.429 . S
C1818 C1801 1.574 . S
C1818 H1812 0.949 . S
C1818 C1822 1.368 . S
C1819 C1800 1.429 . S
C1819 C1813 1.429 . S
C1819 C1820 1.523 . S
C1820 C1801 1.368 . S
C1820 C1814 1.368 . S
C1820 C1819 1.523 . S
C1821 C1805 1.429 . S
C1821 C1817 1.429 . S
C1821 C1822 1.523 . S
C1822 C1806 1.368 . S
C1822 C1818 1.368 . S
C1822 C1821 1.523 . S
H1823 C1798 0.950 . S
H1824 C1800 0.950 . S
H1825 C1801 0.949 . S
H1826 C1803 0.950 . S
H1827 C1805 0.950 . S
C1828 C1829 1.349 . S
C1828 C1830 1.327 . S
C1828 H1853 0.950 . S
C1829 C1828 1.349 . S
C1829 C1845 1.349 . S
C1830 C1828 1.327 . S
C1830 C1849 1.429 . S
C1830 H1854 0.950 . S
C1831 C1848 1.574 . S
C1831 C1850 1.368 . S
C1831 H1855 0.949 . S
H1832 C1836 0.949 . S
C1833 C1834 1.349 . S
C1833 C1835 1.327 . S
C1833 H1856 0.950 . S
C1834 C1833 1.349 . S
C1834 C1846 1.349 . S
C1835 C1833 1.327 . S
C1835 C1851 1.429 . S
C1835 H1857 0.950 . S
C1836 H1832 0.949 . S
C1836 C1844 1.574 . S
C1836 C1852 1.368 . S
H1837 C1845 0.950 . S
H1838 C1843 0.950 . S
H1839 C1844 0.949 . S
H1840 C1846 0.950 . S
H1841 C1847 0.950 . S
H1842 C1848 0.949 . S
C1843 H1838 0.950 . S
C1843 C1845 1.327 . S
C1843 C1849 1.429 . S
C1844 C1836 1.574 . S
C1844 H1839 0.949 . S
C1844 C1850 1.368 . S
C1845 C1829 1.349 . S
C1845 H1837 0.950 . S
C1845 C1843 1.327 . S
C1846 C1834 1.349 . S
C1846 H1840 0.950 . S
C1846 C1847 1.327 . S
C1847 H1841 0.950 . S
C1847 C1846 1.327 . S
C1847 C1851 1.429 . S
C1848 C1831 1.574 . S
C1848 H1842 0.949 . S
C1848 C1852 1.368 . S
C1849 C1830 1.429 . S
C1849 C1843 1.429 . S
C1849 C1850 1.523 . S
C1850 C1831 1.368 . S
C1850 C1844 1.368 . S
C1850 C1849 1.523 . S
C1851 C1835 1.429 . S
C1851 C1847 1.429 . S
C1851 C1852 1.523 . S
C1852 C1836 1.368 . S
C1852 C1848 1.368 . S
C1852 C1851 1.523 . S
H1853 C1828 0.950 . S
H1854 C1830 0.950 . S
H1855 C1831 0.949 . S
H1856 C1833 0.950 . S
H1857 C1835 0.950 . S
C1858 C1859 1.349 . S
C1858 C1860 1.327 . S
C1858 H1883 0.950 . S
C1859 C1858 1.349 . S
C1859 C1875 1.349 . S
C1860 C1858 1.327 . S
C1860 C1879 1.429 . S
C1860 H1884 0.950 . S
C1861 C1878 1.574 . S
C1861 C1880 1.368 . S
C1861 H1885 0.949 . S
H1862 C1866 0.949 . S
C1863 C1864 1.349 . S
C1863 C1865 1.327 . S
C1863 H1886 0.950 . S
C1864 C1863 1.349 . S
C1864 C1876 1.349 . S
C1865 C1863 1.327 . S
C1865 C1881 1.429 . S
C1865 H1887 0.950 . S
C1866 H1862 0.949 . S
C1866 C1874 1.574 . S
C1866 C1882 1.368 . S
H1867 C1875 0.950 . S
H1868 C1873 0.950 . S
H1869 C1874 0.949 . S
H1870 C1876 0.950 . S
H1871 C1877 0.950 . S
H1872 C1878 0.949 . S
C1873 H1868 0.950 . S
C1873 C1875 1.327 . S
C1873 C1879 1.429 . S
C1874 C1866 1.574 . S
C1874 H1869 0.949 . S
C1874 C1880 1.368 . S
C1875 C1859 1.349 . S
C1875 H1867 0.950 . S
C1875 C1873 1.327 . S
C1876 C1864 1.349 . S
C1876 H1870 0.950 . S
C1876 C1877 1.327 . S
C1877 H1871 0.950 . S
C1877 C1876 1.327 . S
C1877 C1881 1.429 . S
C1878 C1861 1.574 . S
C1878 H1872 0.949 . S
C1878 C1882 1.368 . S
C1879 C1860 1.429 . S
C1879 C1873 1.429 . S
C1879 C1880 1.523 . S
C1880 C1861 1.368 . S
C1880 C1874 1.368 . S
C1880 C1879 1.523 . S
C1881 C1865 1.429 . S
C1881 C1877 1.429 . S
C1881 C1882 1.523 . S
C1882 C1866 1.368 . S
C1882 C1878 1.368 . S
C1882 C1881 1.523 . S
H1883 C1858 0.950 . S
H1884 C1860 0.950 . S
H1885 C1861 0.949 . S
H1886 C1863 0.950 . S
H1887 C1865 0.950 . S
C1888 C1889 1.347 . S
C1888 C1890 1.330 1_565 S
C1888 H1913 0.949 . S
C1889 C1888 1.347 . S
C1889 C1905 1.349 . S
C1890 C1888 1.330 1_545 S
C1890 C1909 1.429 . S
C1890 H1914 0.950 . S
C1891 C1908 1.574 . S
C1891 C1910 1.368 . S
C1891 H1915 0.949 . S
H1892 C1896 0.949 . S
C1893 C1894 1.349 . S
C1893 C1895 1.327 . S
C1893 H1916 0.950 . S
C1894 C1893 1.349 . S
C1894 C1906 1.349 . S
C1895 C1893 1.327 . S
C1895 C1911 1.429 . S
C1895 H1917 0.950 . S
C1896 H1892 0.949 . S
C1896 C1904 1.574 . S
C1896 C1912 1.368 . S
H1897 C1905 0.950 . S
H1898 C1903 0.950 . S
H1899 C1904 0.949 . S
H1900 C1906 0.950 . S
H1901 C1907 0.950 . S
H1902 C1908 0.949 . S
C1903 H1898 0.950 . S
C1903 C1905 1.327 1_545 S
C1903 C1909 1.429 . S
C1904 C1896 1.574 . S
C1904 H1899 0.949 . S
C1904 C1910 1.368 . S
C1905 C1889 1.349 . S
C1905 H1897 0.950 . S
C1905 C1903 1.327 1_565 S
C1906 C1894 1.349 . S
C1906 H1900 0.950 . S
C1906 C1907 1.327 . S
C1907 H1901 0.950 . S
C1907 C1906 1.327 . S
C1907 C1911 1.429 . S
C1908 C1891 1.574 . S
C1908 H1902 0.949 . S
C1908 C1912 1.368 . S
C1909 C1890 1.429 . S
C1909 C1903 1.429 . S
C1909 C1910 1.523 . S
C1910 C1891 1.368 . S
C1910 C1904 1.368 . S
C1910 C1909 1.523 . S
C1911 C1895 1.429 . S
C1911 C1907 1.429 . S
C1911 C1912 1.523 . S
C1912 C1896 1.368 . S
C1912 C1908 1.368 . S
C1912 C1911 1.523 . S
H1913 C1888 0.949 . S
H1914 C1890 0.950 . S
H1915 C1891 0.949 . S
H1916 C1893 0.950 . S
H1917 C1895 0.950 . S
C1918 C1919 1.349 . S
C1918 C1920 1.327 1_565 S
C1918 H1943 0.950 . S
C1919 C1918 1.349 . S
C1919 C1935 1.334 1_565 S
C1920 C1918 1.327 1_545 S
C1920 C1939 1.429 . S
C1920 H1944 0.950 . S
C1921 C1938 1.574 . S
C1921 C1940 1.368 . S
C1921 H1945 0.949 . S
H1922 C1926 0.949 . S
C1923 C1924 1.349 . S
C1923 C1925 1.327 . S
C1923 H1946 0.950 . S
C1924 C1923 1.349 . S
C1924 C1936 1.349 . S
C1925 C1923 1.327 . S
C1925 C1941 1.429 . S
C1925 H1947 0.950 . S
C1926 H1922 0.949 . S
C1926 C1934 1.574 . S
C1926 C1942 1.368 . S
H1927 C1935 0.942 1_565 S
H1928 C1933 0.950 . S
H1929 C1934 0.949 . S
H1930 C1936 0.950 . S
H1931 C1937 0.950 . S
H1932 C1938 0.949 . S
C1933 H1928 0.950 . S
C1933 C1935 1.350 . S
C1933 C1939 1.429 . S
C1934 C1926 1.574 . S
C1934 H1929 0.949 . S
C1934 C1940 1.368 . S
C1935 C1919 1.334 1_545 S
C1935 H1927 0.942 1_545 S
C1935 C1933 1.350 . S
C1936 C1924 1.349 . S
C1936 H1930 0.950 . S
C1936 C1937 1.327 . S
C1937 H1931 0.950 . S
C1937 C1936 1.327 . S
C1937 C1941 1.429 . S
C1938 C1921 1.574 . S
C1938 H1932 0.949 . S
C1938 C1942 1.368 . S
C1939 C1920 1.429 . S
C1939 C1933 1.429 . S
C1939 C1940 1.523 . S
C1940 C1921 1.368 . S
C1940 C1934 1.368 . S
C1940 C1939 1.523 . S
C1941 C1925 1.429 . S
C1941 C1937 1.429 . S
C1941 C1942 1.523 . S
C1942 C1926 1.368 . S
C1942 C1938 1.368 . S
C1942 C1941 1.523 . S
H1943 C1918 0.950 . S
H1944 C1920 0.950 . S
H1945 C1921 0.949 . S
H1946 C1923 0.950 . S
H1947 C1925 0.950 . S
C1948 C1949 1.349 . S
C1948 C1950 1.327 . S
C1948 H1973 0.950 . S
C1949 C1948 1.349 . S
C1949 C1965 1.349 . S
C1950 C1948 1.327 . S
C1950 C1969 1.429 . S
C1950 H1974 0.950 . S
C1951 C1968 1.574 . S
C1951 C1970 1.368 . S
C1951 H1975 0.949 . S
H1952 C1956 0.949 . S
C1953 C1954 1.347 . S
C1953 C1955 1.330 1_545 S
C1953 H1976 0.949 . S
C1954 C1953 1.347 . S
C1954 C1966 1.349 . S
C1955 C1953 1.330 1_565 S
C1955 C1971 1.429 . S
C1955 H1977 0.950 . S
C1956 H1952 0.949 . S
C1956 C1964 1.574 . S
C1956 C1972 1.368 . S
H1957 C1965 0.950 . S
H1958 C1963 0.950 . S
H1959 C1964 0.949 . S
H1960 C1966 0.950 . S
H1961 C1967 0.950 . S
H1962 C1968 0.949 . S
C1963 H1958 0.950 . S
C1963 C1965 1.327 . S
C1963 C1969 1.429 . S
C1964 C1956 1.574 . S
C1964 H1959 0.949 . S
C1964 C1970 1.368 . S
C1965 C1949 1.349 . S
C1965 H1957 0.950 . S
C1965 C1963 1.327 . S
C1966 C1954 1.349 . S
C1966 H1960 0.950 . S
C1966 C1967 1.327 1_545 S
C1967 H1961 0.950 . S
C1967 C1966 1.327 1_565 S
C1967 C1971 1.429 . S
C1968 C1951 1.574 . S
C1968 H1962 0.949 . S
C1968 C1972 1.368 . S
C1969 C1950 1.429 . S
C1969 C1963 1.429 . S
C1969 C1970 1.523 . S
C1970 C1951 1.368 . S
C1970 C1964 1.368 . S
C1970 C1969 1.523 . S
C1971 C1955 1.429 . S
C1971 C1967 1.429 . S
C1971 C1972 1.523 . S
C1972 C1956 1.368 . S
C1972 C1968 1.368 . S
C1972 C1971 1.523 . S
H1973 C1948 0.950 . S
H1974 C1950 0.950 . S
H1975 C1951 0.949 . S
H1976 C1953 0.949 . S
H1977 C1955 0.950 . S
C1978 C1979 1.349 . S
C1978 C1980 1.327 1_545 S
C1978 H2003 0.950 . S
C1979 C1978 1.349 . S
C1979 C1995 1.345 1_545 S
C1980 C1978 1.327 1_565 S
C1980 C1999 1.429 . S
C1980 H2004 0.950 . S
C1981 C1998 1.574 . S
C1981 C2000 1.368 . S
C1981 H2005 0.949 . S
H1982 C1986 0.949 . S
C1983 C1984 1.349 . S
C1983 C1985 1.327 . S
C1983 H2006 0.950 . S
C1984 C1983 1.349 . S
C1984 C1996 1.349 . S
C1985 C1983 1.327 . S
C1985 C2001 1.429 . S
C1985 H2007 0.950 . S
C1986 H1982 0.949 . S
C1986 C1994 1.574 . S
C1986 C2002 1.368 . S
H1987 C1995 0.948 1_545 S
H1988 C1993 0.950 . S
H1989 C1994 0.949 . S
H1990 C1996 0.950 . S
H1991 C1997 0.950 . S
H1992 C1998 0.949 . S
C1993 H1988 0.950 . S
C1993 C1995 1.333 . S
C1993 C1999 1.429 . S
C1994 C1986 1.574 . S
C1994 H1989 0.949 . S
C1994 C2000 1.368 . S
C1995 C1979 1.345 1_565 S
C1995 H1987 0.948 1_565 S
C1995 C1993 1.333 . S
C1996 C1984 1.349 . S
C1996 H1990 0.950 . S
C1996 C1997 1.327 . S
C1997 H1991 0.950 . S
C1997 C1996 1.327 . S
C1997 C2001 1.429 . S
C1998 C1981 1.574 . S
C1998 H1992 0.949 . S
C1998 C2002 1.368 . S
C1999 C1980 1.429 . S
C1999 C1993 1.429 . S
C1999 C2000 1.523 . S
C2000 C1981 1.368 . S
C2000 C1994 1.368 . S
C2000 C1999 1.523 . S
C2001 C1985 1.429 . S
C2001 C1997 1.429 . S
C2001 C2002 1.523 . S
C2002 C1986 1.368 . S
C2002 C1998 1.368 . S
C2002 C2001 1.523 . S
H2003 C1978 0.950 . S
H2004 C1980 0.950 . S
H2005 C1981 0.949 . S
H2006 C1983 0.950 . S
H2007 C1985 0.950 . S
C2008 C2009 1.349 . S
C2008 C2010 1.327 . S
C2008 H2033 0.950 . S
C2009 C2008 1.349 . S
C2009 C2025 1.349 . S
C2010 C2008 1.327 . S
C2010 C2029 1.429 . S
C2010 H2034 0.950 . S
C2011 C2028 1.574 . S
C2011 C2030 1.368 . S
C2011 H2035 0.949 . S
H2012 C2016 0.949 . S
C2013 C2014 1.349 . S
C2013 C2015 1.327 . S
C2013 H2036 0.950 . S
C2014 C2013 1.349 . S
C2014 C2026 1.349 . S
C2015 C2013 1.327 . S
C2015 C2031 1.429 . S
C2015 H2037 0.950 . S
C2016 H2012 0.949 . S
C2016 C2024 1.574 . S
C2016 C2032 1.368 . S
H2017 C2025 0.950 . S
H2018 C2023 0.950 . S
H2019 C2024 0.949 . S
H2020 C2026 0.950 . S
H2021 C2027 0.950 . S
H2022 C2028 0.949 . S
C2023 H2018 0.950 . S
C2023 C2025 1.327 . S
C2023 C2029 1.429 . S
C2024 C2016 1.574 . S
C2024 H2019 0.949 . S
C2024 C2030 1.368 . S
C2025 C2009 1.349 . S
C2025 H2017 0.950 . S
C2025 C2023 1.327 . S
C2026 C2014 1.349 . S
C2026 H2020 0.950 . S
C2026 C2027 1.327 . S
C2027 H2021 0.950 . S
C2027 C2026 1.327 . S
C2027 C2031 1.429 . S
C2028 C2011 1.574 . S
C2028 H2022 0.949 . S
C2028 C2032 1.368 . S
C2029 C2010 1.429 . S
C2029 C2023 1.429 . S
C2029 C2030 1.523 . S
C2030 C2011 1.368 . S
C2030 C2024 1.368 . S
C2030 C2029 1.523 . S
C2031 C2015 1.429 . S
C2031 C2027 1.429 . S
C2031 C2032 1.523 . S
C2032 C2016 1.368 . S
C2032 C2028 1.368 . S
C2032 C2031 1.523 . S
H2033 C2008 0.950 . S
H2034 C2010 0.950 . S
H2035 C2011 0.949 . S
H2036 C2013 0.950 . S
H2037 C2015 0.950 . S
C2038 C2039 1.349 . S
C2038 C2040 1.327 . S
C2038 H2063 0.950 . S
C2039 C2038 1.349 . S
C2039 C2055 1.349 . S
C2040 C2038 1.327 . S
C2040 C2059 1.429 . S
C2040 H2064 0.950 . S
C2041 C2058 1.574 . S
C2041 C2060 1.368 . S
C2041 H2065 0.949 . S
H2042 C2046 0.949 . S
C2043 C2044 1.349 . S
C2043 C2045 1.327 . S
C2043 H2066 0.950 . S
C2044 C2043 1.349 . S
C2044 C2056 1.349 . S
C2045 C2043 1.327 . S
C2045 C2061 1.429 . S
C2045 H2067 0.950 . S
C2046 H2042 0.949 . S
C2046 C2054 1.574 . S
C2046 C2062 1.368 . S
H2047 C2055 0.950 . S
H2048 C2053 0.950 . S
H2049 C2054 0.949 . S
H2050 C2056 0.950 . S
H2051 C2057 0.950 . S
H2052 C2058 0.949 . S
C2053 H2048 0.950 . S
C2053 C2055 1.327 . S
C2053 C2059 1.429 . S
C2054 C2046 1.574 . S
C2054 H2049 0.949 . S
C2054 C2060 1.368 . S
C2055 C2039 1.349 . S
C2055 H2047 0.950 . S
C2055 C2053 1.327 . S
C2056 C2044 1.349 . S
C2056 H2050 0.950 . S
C2056 C2057 1.327 . S
C2057 H2051 0.950 . S
C2057 C2056 1.327 . S
C2057 C2061 1.429 . S
C2058 C2041 1.574 . S
C2058 H2052 0.949 . S
C2058 C2062 1.368 . S
C2059 C2040 1.429 . S
C2059 C2053 1.429 . S
C2059 C2060 1.523 . S
C2060 C2041 1.368 . S
C2060 C2054 1.368 . S
C2060 C2059 1.523 . S
C2061 C2045 1.429 . S
C2061 C2057 1.429 . S
C2061 C2062 1.523 . S
C2062 C2046 1.368 . S
C2062 C2058 1.368 . S
C2062 C2061 1.523 . S
H2063 C2038 0.950 . S
H2064 C2040 0.950 . S
H2065 C2041 0.949 . S
H2066 C2043 0.950 . S
H2067 C2045 0.950 . S
C2068 C2069 1.349 . S
C2068 C2070 1.327 . S
C2068 H2093 0.950 . S
C2069 C2068 1.349 . S
C2069 C2085 1.349 . S
C2070 C2068 1.327 . S
C2070 C2089 1.429 . S
C2070 H2094 0.950 . S
C2071 C2088 1.574 . S
C2071 C2090 1.368 . S
C2071 H2095 0.949 . S
H2072 C2076 0.949 . S
C2073 C2074 1.349 . S
C2073 C2075 1.327 . S
C2073 H2096 0.950 . S
C2074 C2073 1.349 . S
C2074 C2086 1.349 . S
C2075 C2073 1.327 . S
C2075 C2091 1.429 . S
C2075 H2097 0.950 . S
C2076 H2072 0.949 . S
C2076 C2084 1.574 . S
C2076 C2092 1.368 . S
H2077 C2085 0.950 . S
H2078 C2083 0.950 . S
H2079 C2084 0.949 . S
H2080 C2086 0.950 . S
H2081 C2087 0.950 . S
H2082 C2088 0.949 . S
C2083 H2078 0.950 . S
C2083 C2085 1.327 . S
C2083 C2089 1.429 . S
C2084 C2076 1.574 . S
C2084 H2079 0.949 . S
C2084 C2090 1.368 . S
C2085 C2069 1.349 . S
C2085 H2077 0.950 . S
C2085 C2083 1.327 . S
C2086 C2074 1.349 . S
C2086 H2080 0.950 . S
C2086 C2087 1.327 . S
C2087 H2081 0.950 . S
C2087 C2086 1.327 . S
C2087 C2091 1.429 . S
C2088 C2071 1.574 . S
C2088 H2082 0.949 . S
C2088 C2092 1.368 . S
C2089 C2070 1.429 . S
C2089 C2083 1.429 . S
C2089 C2090 1.523 . S
C2090 C2071 1.368 . S
C2090 C2084 1.368 . S
C2090 C2089 1.523 . S
C2091 C2075 1.429 . S
C2091 C2087 1.429 . S
C2091 C2092 1.523 . S
C2092 C2076 1.368 . S
C2092 C2088 1.368 . S
C2092 C2091 1.523 . S
H2093 C2068 0.950 . S
H2094 C2070 0.950 . S
H2095 C2071 0.949 . S
H2096 C2073 0.950 . S
H2097 C2075 0.950 . S
C2098 C2099 1.349 . S
C2098 C2100 1.327 . S
C2098 H2123 0.950 . S
C2099 C2098 1.349 . S
C2099 C2115 1.349 . S
C2100 C2098 1.327 . S
C2100 C2119 1.429 . S
C2100 H2124 0.950 . S
C2101 C2118 1.574 . S
C2101 C2120 1.368 . S
C2101 H2125 0.949 . S
H2102 C2106 0.949 . S
C2103 C2104 1.349 . S
C2103 C2105 1.327 . S
C2103 H2126 0.950 . S
C2104 C2103 1.349 . S
C2104 C2116 1.349 . S
C2105 C2103 1.327 . S
C2105 C2121 1.429 . S
C2105 H2127 0.950 . S
C2106 H2102 0.949 . S
C2106 C2114 1.574 . S
C2106 C2122 1.368 . S
H2107 C2115 0.950 . S
H2108 C2113 0.950 . S
H2109 C2114 0.949 . S
H2110 C2116 0.950 . S
H2111 C2117 0.950 . S
H2112 C2118 0.949 . S
C2113 H2108 0.950 . S
C2113 C2115 1.327 . S
C2113 C2119 1.429 . S
C2114 C2106 1.574 . S
C2114 H2109 0.949 . S
C2114 C2120 1.368 . S
C2115 C2099 1.349 . S
C2115 H2107 0.950 . S
C2115 C2113 1.327 . S
C2116 C2104 1.349 . S
C2116 H2110 0.950 . S
C2116 C2117 1.327 . S
C2117 H2111 0.950 . S
C2117 C2116 1.327 . S
C2117 C2121 1.429 . S
C2118 C2101 1.574 . S
C2118 H2112 0.949 . S
C2118 C2122 1.368 . S
C2119 C2100 1.429 . S
C2119 C2113 1.429 . S
C2119 C2120 1.523 . S
C2120 C2101 1.368 . S
C2120 C2114 1.368 . S
C2120 C2119 1.523 . S
C2121 C2105 1.429 . S
C2121 C2117 1.429 . S
C2121 C2122 1.523 . S
C2122 C2106 1.368 . S
C2122 C2118 1.368 . S
C2122 C2121 1.523 . S
H2123 C2098 0.950 . S
H2124 C2100 0.950 . S
H2125 C2101 0.949 . S
H2126 C2103 0.950 . S
H2127 C2105 0.950 . S
C2128 C2129 1.332 1_545 S
C2128 C2130 1.353 . S
C2128 H2153 0.942 1_545 S
C2129 C2128 1.332 1_565 S
C2129 C2145 1.349 . S
C2130 C2128 1.353 . S
C2130 C2149 1.429 . S
C2130 H2154 0.950 . S
C2131 C2148 1.574 . S
C2131 C2150 1.368 . S
C2131 H2155 0.949 . S
H2132 C2136 0.949 . S
C2133 C2134 1.349 . S
C2133 C2135 1.327 . S
C2133 H2156 0.950 . S
C2134 C2133 1.349 . S
C2134 C2146 1.349 . S
C2135 C2133 1.327 . S
C2135 C2151 1.429 . S
C2135 H2157 0.950 . S
C2136 H2132 0.949 . S
C2136 C2144 1.574 . S
C2136 C2152 1.368 . S
H2137 C2145 0.950 . S
H2138 C2143 0.950 . S
H2139 C2144 0.949 . S
H2140 C2146 0.950 . S
H2141 C2147 0.950 . S
H2142 C2148 0.949 . S
C2143 H2138 0.950 . S
C2143 C2145 1.327 1_545 S
C2143 C2149 1.429 . S
C2144 C2136 1.574 . S
C2144 H2139 0.949 . S
C2144 C2150 1.368 . S
C2145 C2129 1.349 . S
C2145 H2137 0.950 . S
C2145 C2143 1.327 1_565 S
C2146 C2134 1.349 . S
C2146 H2140 0.950 . S
C2146 C2147 1.327 . S
C2147 H2141 0.950 . S
C2147 C2146 1.327 . S
C2147 C2151 1.429 . S
C2148 C2131 1.574 . S
C2148 H2142 0.949 . S
C2148 C2152 1.368 . S
C2149 C2130 1.429 . S
C2149 C2143 1.429 . S
C2149 C2150 1.523 . S
C2150 C2131 1.368 . S
C2150 C2144 1.368 . S
C2150 C2149 1.523 . S
C2151 C2135 1.429 . S
C2151 C2147 1.429 . S
C2151 C2152 1.523 . S
C2152 C2136 1.368 . S
C2152 C2148 1.368 . S
C2152 C2151 1.523 . S
H2153 C2128 0.942 1_565 S
H2154 C2130 0.950 . S
H2155 C2131 0.949 . S
H2156 C2133 0.950 . S
H2157 C2135 0.950 . S
C2158 C2159 1.349 . S
C2158 C2160 1.327 . S
C2158 H2183 0.950 . S
C2159 C2158 1.349 . S
C2159 C2175 1.349 . S
C2160 C2158 1.327 . S
C2160 C2179 1.429 . S
C2160 H2184 0.950 . S
C2161 C2178 1.574 . S
C2161 C2180 1.368 . S
C2161 H2185 0.949 . S
H2162 C2166 0.949 . S
C2163 C2164 1.349 . S
C2163 C2165 1.327 1_565 S
C2163 H2186 0.950 . S
C2164 C2163 1.349 . S
C2164 C2176 1.340 1_565 S
C2165 C2163 1.327 1_545 S
C2165 C2181 1.429 . S
C2165 H2187 0.950 . S
C2166 H2162 0.949 . S
C2166 C2174 1.574 . S
C2166 C2182 1.368 . S
H2167 C2175 0.950 . S
H2168 C2173 0.950 . S
H2169 C2174 0.949 . S
H2170 C2176 0.945 1_565 S
H2171 C2177 0.950 . S
H2172 C2178 0.949 . S
C2173 H2168 0.950 . S
C2173 C2175 1.327 . S
C2173 C2179 1.429 . S
C2174 C2166 1.574 . S
C2174 H2169 0.949 . S
C2174 C2180 1.368 . S
C2175 C2159 1.349 . S
C2175 H2167 0.950 . S
C2175 C2173 1.327 . S
C2176 C2164 1.340 1_545 S
C2176 H2170 0.945 1_545 S
C2176 C2177 1.341 . S
C2177 H2171 0.950 . S
C2177 C2176 1.341 . S
C2177 C2181 1.429 . S
C2178 C2161 1.574 . S
C2178 H2172 0.949 . S
C2178 C2182 1.368 . S
C2179 C2160 1.429 . S
C2179 C2173 1.429 . S
C2179 C2180 1.523 . S
C2180 C2161 1.368 . S
C2180 C2174 1.368 . S
C2180 C2179 1.523 . S
C2181 C2165 1.429 . S
C2181 C2177 1.429 . S
C2181 C2182 1.523 . S
C2182 C2166 1.368 . S
C2182 C2178 1.368 . S
C2182 C2181 1.523 . S
H2183 C2158 0.950 . S
H2184 C2160 0.950 . S
H2185 C2161 0.949 . S
H2186 C2163 0.950 . S
H2187 C2165 0.950 . S
C2188 C2189 1.349 . S
C2188 C2190 1.327 . S
C2188 H2213 0.950 . S
C2189 C2188 1.349 . S
C2189 C2205 1.349 . S
C2190 C2188 1.327 . S
C2190 C2209 1.429 . S
C2190 H2214 0.950 . S
C2191 C2208 1.574 . S
C2191 C2210 1.368 . S
C2191 H2215 0.949 . S
H2192 C2196 0.949 . S
C2193 C2194 1.349 . S
C2193 C2195 1.327 1_545 S
C2193 H2216 0.950 . S
C2194 C2193 1.349 . S
C2194 C2206 1.346 1_545 S
C2195 C2193 1.327 1_565 S
C2195 C2211 1.429 . S
C2195 H2217 0.950 . S
C2196 H2192 0.949 . S
C2196 C2204 1.574 . S
C2196 C2212 1.368 . S
H2197 C2205 0.950 . S
H2198 C2203 0.950 . S
H2199 C2204 0.949 . S
H2200 C2206 0.948 1_545 S
H2201 C2207 0.950 . S
H2202 C2208 0.949 . S
C2203 H2198 0.950 . S
C2203 C2205 1.327 . S
C2203 C2209 1.429 . S
C2204 C2196 1.574 . S
C2204 H2199 0.949 . S
C2204 C2210 1.368 . S
C2205 C2189 1.349 . S
C2205 H2197 0.950 . S
C2205 C2203 1.327 . S
C2206 C2194 1.346 1_565 S
C2206 H2200 0.948 1_565 S
C2206 C2207 1.332 . S
C2207 H2201 0.950 . S
C2207 C2206 1.332 . S
C2207 C2211 1.429 . S
C2208 C2191 1.574 . S
C2208 H2202 0.949 . S
C2208 C2212 1.368 . S
C2209 C2190 1.429 . S
C2209 C2203 1.429 . S
C2209 C2210 1.523 . S
C2210 C2191 1.368 . S
C2210 C2204 1.368 . S
C2210 C2209 1.523 . S
C2211 C2195 1.429 . S
C2211 C2207 1.429 . S
C2211 C2212 1.523 . S
C2212 C2196 1.368 . S
C2212 C2208 1.368 . S
C2212 C2211 1.523 . S
H2213 C2188 0.950 . S
H2214 C2190 0.950 . S
H2215 C2191 0.949 . S
H2216 C2193 0.950 . S
H2217 C2195 0.950 . S
C2218 C2219 1.349 . S
C2218 C2220 1.327 . S
C2218 H2243 0.950 . S
C2219 C2218 1.349 . S
C2219 C2235 1.349 . S
C2220 C2218 1.327 . S
C2220 C2239 1.429 . S
C2220 H2244 0.950 . S
C2221 C2238 1.574 . S
C2221 C2240 1.368 . S
C2221 H2245 0.949 . S
H2222 C2226 0.949 . S
C2223 C2224 1.349 . S
C2223 C2225 1.327 1_545 S
C2223 H2246 0.950 . S
C2224 C2223 1.349 . S
C2224 C2236 1.342 1_545 S
C2225 C2223 1.327 1_565 S
C2225 C2241 1.429 . S
C2225 H2247 0.950 . S
C2226 H2222 0.949 . S
C2226 C2234 1.574 . S
C2226 C2242 1.368 . S
H2227 C2235 0.950 . S
H2228 C2233 0.950 . S
H2229 C2234 0.949 . S
H2230 C2236 0.946 1_545 S
H2231 C2237 0.950 . S
H2232 C2238 0.949 . S
C2233 H2228 0.950 . S
C2233 C2235 1.327 . S
C2233 C2239 1.429 . S
C2234 C2226 1.574 . S
C2234 H2229 0.949 . S
C2234 C2240 1.368 . S
C2235 C2219 1.349 . S
C2235 H2227 0.950 . S
C2235 C2233 1.327 . S
C2236 C2224 1.342 1_565 S
C2236 H2230 0.946 1_565 S
C2236 C2237 1.338 . S
C2237 H2231 0.950 . S
C2237 C2236 1.338 . S
C2237 C2241 1.429 . S
C2238 C2221 1.574 . S
C2238 H2232 0.949 . S
C2238 C2242 1.368 . S
C2239 C2220 1.429 . S
C2239 C2233 1.429 . S
C2239 C2240 1.523 . S
C2240 C2221 1.368 . S
C2240 C2234 1.368 . S
C2240 C2239 1.523 . S
C2241 C2225 1.429 . S
C2241 C2237 1.429 . S
C2241 C2242 1.523 . S
C2242 C2226 1.368 . S
C2242 C2238 1.368 . S
C2242 C2241 1.523 . S
H2243 C2218 0.950 . S
H2244 C2220 0.950 . S
H2245 C2221 0.949 . S
H2246 C2223 0.950 . S
H2247 C2225 0.950 . S
C2248 C2249 1.349 . S
C2248 C2250 1.327 . S
C2248 H2273 0.950 . S
C2249 C2248 1.349 . S
C2249 C2265 1.349 . S
C2250 C2248 1.327 . S
C2250 C2269 1.429 . S
C2250 H2274 0.950 . S
C2251 C2268 1.574 . S
C2251 C2270 1.368 . S
C2251 H2275 0.949 . S
H2252 C2256 0.949 . S
C2253 C2254 1.349 . S
C2253 C2255 1.327 . S
C2253 H2276 0.950 . S
C2254 C2253 1.349 . S
C2254 C2266 1.349 . S
C2255 C2253 1.327 . S
C2255 C2271 1.429 . S
C2255 H2277 0.950 . S
C2256 H2252 0.949 . S
C2256 C2264 1.574 . S
C2256 C2272 1.368 . S
H2257 C2265 0.950 . S
H2258 C2263 0.950 . S
H2259 C2264 0.949 . S
H2260 C2266 0.950 . S
H2261 C2267 0.950 . S
H2262 C2268 0.949 . S
C2263 H2258 0.950 . S
C2263 C2265 1.327 . S
C2263 C2269 1.429 . S
C2264 C2256 1.574 . S
C2264 H2259 0.949 . S
C2264 C2270 1.368 . S
C2265 C2249 1.349 . S
C2265 H2257 0.950 . S
C2265 C2263 1.327 . S
C2266 C2254 1.349 . S
C2266 H2260 0.950 . S
C2266 C2267 1.327 . S
C2267 H2261 0.950 . S
C2267 C2266 1.327 . S
C2267 C2271 1.429 . S
C2268 C2251 1.574 . S
C2268 H2262 0.949 . S
C2268 C2272 1.368 . S
C2269 C2250 1.429 . S
C2269 C2263 1.429 . S
C2269 C2270 1.523 . S
C2270 C2251 1.368 . S
C2270 C2264 1.368 . S
C2270 C2269 1.523 . S
C2271 C2255 1.429 . S
C2271 C2267 1.429 . S
C2271 C2272 1.523 . S
C2272 C2256 1.368 . S
C2272 C2268 1.368 . S
C2272 C2271 1.523 . S
H2273 C2248 0.950 . S
H2274 C2250 0.950 . S
H2275 C2251 0.949 . S
H2276 C2253 0.950 . S
H2277 C2255 0.950 . S
C2278 C2279 1.349 . S
C2278 C2280 1.327 . S
C2278 H2303 0.950 . S
C2279 C2278 1.349 . S
C2279 C2295 1.349 . S
C2280 C2278 1.327 . S
C2280 C2299 1.429 . S
C2280 H2304 0.950 . S
C2281 C2298 1.574 . S
C2281 C2300 1.368 . S
C2281 H2305 0.949 . S
H2282 C2286 0.949 . S
C2283 C2284 1.349 . S
C2283 C2285 1.327 . S
C2283 H2306 0.950 . S
C2284 C2283 1.349 . S
C2284 C2296 1.349 . S
C2285 C2283 1.327 . S
C2285 C2301 1.429 . S
C2285 H2307 0.950 . S
C2286 H2282 0.949 . S
C2286 C2294 1.574 . S
C2286 C2302 1.368 . S
H2287 C2295 0.950 . S
H2288 C2293 0.950 . S
H2289 C2294 0.949 . S
H2290 C2296 0.950 . S
H2291 C2297 0.950 . S
H2292 C2298 0.949 . S
C2293 H2288 0.950 . S
C2293 C2295 1.327 . S
C2293 C2299 1.429 . S
C2294 C2286 1.574 . S
C2294 H2289 0.949 . S
C2294 C2300 1.368 . S
C2295 C2279 1.349 . S
C2295 H2287 0.950 . S
C2295 C2293 1.327 . S
C2296 C2284 1.349 . S
C2296 H2290 0.950 . S
C2296 C2297 1.327 . S
C2297 H2291 0.950 . S
C2297 C2296 1.327 . S
C2297 C2301 1.429 . S
C2298 C2281 1.574 . S
C2298 H2292 0.949 . S
C2298 C2302 1.368 . S
C2299 C2280 1.429 . S
C2299 C2293 1.429 . S
C2299 C2300 1.523 . S
C2300 C2281 1.368 . S
C2300 C2294 1.368 . S
C2300 C2299 1.523 . S
C2301 C2285 1.429 . S
C2301 C2297 1.429 . S
C2301 C2302 1.523 . S
C2302 C2286 1.368 . S
C2302 C2298 1.368 . S
C2302 C2301 1.523 . S
H2303 C2278 0.950 . S
H2304 C2280 0.950 . S
H2305 C2281 0.949 . S
H2306 C2283 0.950 . S
H2307 C2285 0.950 . S
C2308 C2309 1.349 . S
C2308 C2310 1.327 . S
C2308 H2333 0.950 . S
C2309 C2308 1.349 . S
C2309 C2325 1.349 . S
C2310 C2308 1.327 . S
C2310 C2329 1.429 . S
C2310 H2334 0.950 . S
C2311 C2328 1.574 . S
C2311 C2330 1.368 . S
C2311 H2335 0.949 . S
H2312 C2316 0.949 . S
C2313 C2314 1.349 . S
C2313 C2315 1.327 . S
C2313 H2336 0.950 . S
C2314 C2313 1.349 . S
C2314 C2326 1.349 . S
C2315 C2313 1.327 . S
C2315 C2331 1.429 . S
C2315 H2337 0.950 . S
C2316 H2312 0.949 . S
C2316 C2324 1.574 . S
C2316 C2332 1.368 . S
H2317 C2325 0.950 . S
H2318 C2323 0.950 . S
H2319 C2324 0.949 . S
H2320 C2326 0.950 . S
H2321 C2327 0.950 . S
H2322 C2328 0.949 . S
C2323 H2318 0.950 . S
C2323 C2325 1.327 . S
C2323 C2329 1.429 . S
C2324 C2316 1.574 . S
C2324 H2319 0.949 . S
C2324 C2330 1.368 . S
C2325 C2309 1.349 . S
C2325 H2317 0.950 . S
C2325 C2323 1.327 . S
C2326 C2314 1.349 . S
C2326 H2320 0.950 . S
C2326 C2327 1.327 . S
C2327 H2321 0.950 . S
C2327 C2326 1.327 . S
C2327 C2331 1.429 . S
C2328 C2311 1.574 . S
C2328 H2322 0.949 . S
C2328 C2332 1.368 . S
C2329 C2310 1.429 . S
C2329 C2323 1.429 . S
C2329 C2330 1.523 . S
C2330 C2311 1.368 . S
C2330 C2324 1.368 . S
C2330 C2329 1.523 . S
C2331 C2315 1.429 . S
C2331 C2327 1.429 . S
C2331 C2332 1.523 . S
C2332 C2316 1.368 . S
C2332 C2328 1.368 . S
C2332 C2331 1.523 . S
H2333 C2308 0.950 . S
H2334 C2310 0.950 . S
H2335 C2311 0.949 . S
H2336 C2313 0.950 . S
H2337 C2315 0.950 . S
C2338 C2339 1.349 . S
C2338 C2340 1.327 . S
C2338 H2363 0.950 . S
C2339 C2338 1.349 . S
C2339 C2355 1.349 . S
C2340 C2338 1.327 . S
C2340 C2359 1.429 . S
C2340 H2364 0.950 . S
C2341 C2358 1.574 . S
C2341 C2360 1.368 . S
C2341 H2365 0.949 . S
H2342 C2346 0.949 . S
C2343 C2344 1.349 . S
C2343 C2345 1.327 . S
C2343 H2366 0.950 . S
C2344 C2343 1.349 . S
C2344 C2356 1.349 . S
C2345 C2343 1.327 . S
C2345 C2361 1.429 . S
C2345 H2367 0.950 . S
C2346 H2342 0.949 . S
C2346 C2354 1.574 . S
C2346 C2362 1.368 . S
H2347 C2355 0.950 . S
H2348 C2353 0.950 . S
H2349 C2354 0.949 . S
H2350 C2356 0.950 . S
H2351 C2357 0.950 . S
H2352 C2358 0.949 . S
C2353 H2348 0.950 . S
C2353 C2355 1.327 . S
C2353 C2359 1.429 . S
C2354 C2346 1.574 . S
C2354 H2349 0.949 . S
C2354 C2360 1.368 . S
C2355 C2339 1.349 . S
C2355 H2347 0.950 . S
C2355 C2353 1.327 . S
C2356 C2344 1.349 . S
C2356 H2350 0.950 . S
C2356 C2357 1.327 . S
C2357 H2351 0.950 . S
C2357 C2356 1.327 . S
C2357 C2361 1.429 . S
C2358 C2341 1.574 . S
C2358 H2352 0.949 . S
C2358 C2362 1.368 . S
C2359 C2340 1.429 . S
C2359 C2353 1.429 . S
C2359 C2360 1.523 . S
C2360 C2341 1.368 . S
C2360 C2354 1.368 . S
C2360 C2359 1.523 . S
C2361 C2345 1.429 . S
C2361 C2357 1.429 . S
C2361 C2362 1.523 . S
C2362 C2346 1.368 . S
C2362 C2358 1.368 . S
C2362 C2361 1.523 . S
H2363 C2338 0.950 . S
H2364 C2340 0.950 . S
H2365 C2341 0.949 . S
H2366 C2343 0.950 . S
H2367 C2345 0.950 . S
C449 C36 0.613 . S
C454 C8 0.613 . S
C479 C22 0.613 . S
C484 C50 0.613 . S
C509 C92 0.613 . S
C514 C64 0.613 . S
C539 C106 0.613 . S
C544 C78 0.613 . S
C569 C120 0.613 . S
C574 C148 0.613 . S
C599 C162 0.613 . S
C604 C134 0.613 . S
C629 C176 0.613 . S
C634 C204 0.613 . S
C659 C190 0.613 . S
C664 C218 0.613 . S
C689 C260 0.613 . S
C694 C232 0.613 . S
C719 C246 0.613 . S
C724 C274 0.613 . S
C749 C288 0.613 . S
C754 C316 0.613 . S
C779 C330 0.613 . S
C784 C302 0.613 . S
C809 C372 0.613 . S
C814 C344 0.613 . S
C839 C386 0.613 . S
C844 C358 0.613 . S
C869 C428 0.613 . S
C874 C400 0.613 . S
C899 C414 0.613 . S
C904 C442 0.613 . S
C929 C62 1.476 . S
C934 C6 1.476 . S
C959 C412 1.476 . S
C964 C20 1.476 . S
C989 C34 1.476 . S
C994 C202 1.476 . S
C1019 C48 1.476 . S
C1024 C328 1.476 . S
C1049 C76 1.476 . S
C1054 C356 1.476 . S
C1079 C90 1.476 . S
C1084 C146 1.476 . S
C1109 C272 1.476 . S
C1114 C104 1.476 . S
C1139 C174 1.476 . S
C1144 C118 1.476 . S
C1169 C300 1.476 . S
C1174 C132 1.476 . S
C1199 C160 1.476 . S
C1204 C440 1.476 . S
C1229 C188 1.476 . S
C1234 C244 1.476 . S
C1259 C384 1.476 . S
C1264 C216 1.476 . S
C1289 C286 1.476 . S
C1294 C230 1.476 . S
C1319 C258 1.476 . S
C1324 C426 1.476 . S
C1349 C314 1.476 . S
C1354 C370 1.476 . S
C1379 C398 1.476 . S
C1384 C342 1.476 . S
C1409 C51 1.465 . S
C1414 C9 1.465 . S
C1439 C37 1.465 . S
C1444 C23 1.465 . S
C1469 C107 1.465 . S
C1474 C65 1.465 . S
C1499 C93 1.465 . S
C1504 C79 1.465 . S
C1529 C163 1.465 . S
C1534 C121 1.465 . S
C1559 C149 1.465 . S
C1564 C135 1.465 . S
C1589 C219 1.465 . S
C1594 C177 1.465 . S
C1619 C205 1.465 . S
C1624 C191 1.465 . S
C1649 C233 1.465 . S
C1654 C275 1.465 . S
C1679 C261 1.465 . S
C1684 C247 1.465 . S
C1709 C289 1.465 . S
C1714 C331 1.465 . S
C1739 C317 1.465 . S
C1744 C303 1.465 . S
C1769 C387 1.465 . S
C1774 C345 1.465 . S
C1799 C359 1.465 . S
C1804 C373 1.465 . S
C1829 C401 1.465 . S
C1834 C443 1.465 . S
C1859 C429 1.465 . S
C1864 C415 1.465 . S
C1889 C35 1.507 . S
C1894 C7 1.507 . S
C1919 C21 1.507 . S
C1924 C49 1.507 . S
C1949 C63 1.507 . S
C1954 C91 1.507 . S
C1979 C77 1.507 . S
C1984 C105 1.507 . S
C2009 C119 1.507 . S
C2014 C147 1.507 . S
C2039 C133 1.507 . S
C2044 C161 1.507 . S
C2069 C203 1.507 . S
C2074 C175 1.507 . S
C2099 C217 1.507 . S
C2104 C189 1.507 . S
C2129 C259 1.507 . S
C2134 C231 1.507 . S
C2159 C273 1.507 . S
C2164 C245 1.507 . S
C2189 C287 1.507 . S
C2194 C315 1.507 . S
C2219 C329 1.507 . S
C2224 C301 1.507 . S
C2249 C371 1.507 . S
C2254 C343 1.507 . S
C2279 C357 1.507 . S
C2284 C385 1.507 . S
C2309 C399 1.507 . S
C2314 C427 1.507 . S
C2339 C441 1.507 . S
C2344 C413 1.507 . S
