# Generated by pormake.
# Topology acs-h, (5)-cn, num edge types: 1
# Building blocks:
#     Node 0, Type 0, BuildingBlock: BEQFEK_clean_sbu_0, # of connection points: 5
#     Node 1, Type 0, BuildingBlock: BEQFEK_clean_sbu_0, # of connection points: 5
#     Node 2, Type 0, BuildingBlock: BEQFEK_clean_sbu_0, # of connection points: 5
#     Node 3, Type 0, BuildingBlock: BEQFEK_clean_sbu_0, # of connection points: 5
#     Node 4, Type 0, BuildingBlock: BEQFEK_clean_sbu_0, # of connection points: 5
#     Node 5, Type 0, BuildingBlock: BEQFEK_clean_sbu_0, # of connection points: 5
#     Node 6, Type 0, BuildingBlock: BEQFEK_clean_sbu_0, # of connection points: 5
#     Node 7, Type 0, BuildingBlock: BEQFEK_clean_sbu_0, # of connection points: 5
#     Node 8, Type 0, BuildingBlock: BEQFEK_clean_sbu_0, # of connection points: 5
#     Node 9, Type 0, BuildingBlock: BEQFEK_clean_sbu_0, # of connection points: 5
#     Node 10, Type 0, BuildingBlock: BEQFEK_clean_sbu_0, # of connection points: 5
#     Node 11, Type 0, BuildingBlock: BEQFEK_clean_sbu_0, # of connection points: 5
#     Edge 12, Type (0, 0), BuildingBlock: ZUJKAS_clean_linker_0, # of connection points: 2
#     Edge 13, Type (0, 0), BuildingBlock: ZUJKAS_clean_linker_0, # of connection points: 2
#     Edge 14, Type (0, 0), BuildingBlock: ZUJKAS_clean_linker_0, # of connection points: 2
#     Edge 15, Type (0, 0), BuildingBlock: ZUJKAS_clean_linker_0, # of connection points: 2
#     Edge 16, Type (0, 0), BuildingBlock: ZUJKAS_clean_linker_0, # of connection points: 2
#     Edge 17, Type (0, 0), BuildingBlock: ZUJKAS_clean_linker_0, # of connection points: 2
#     Edge 18, Type (0, 0), BuildingBlock: ZUJKAS_clean_linker_0, # of connection points: 2
#     Edge 19, Type (0, 0), BuildingBlock: ZUJKAS_clean_linker_0, # of connection points: 2
#     Edge 20, Type (0, 0), BuildingBlock: ZUJKAS_clean_linker_0, # of connection points: 2
#     Edge 21, Type (0, 0), BuildingBlock: ZUJKAS_clean_linker_0, # of connection points: 2
#     Edge 22, Type (0, 0), BuildingBlock: ZUJKAS_clean_linker_0, # of connection points: 2
#     Edge 23, Type (0, 0), BuildingBlock: ZUJKAS_clean_linker_0, # of connection points: 2
#     Edge 24, Type (0, 0), BuildingBlock: ZUJKAS_clean_linker_0, # of connection points: 2
#     Edge 25, Type (0, 0), BuildingBlock: ZUJKAS_clean_linker_0, # of connection points: 2
#     Edge 26, Type (0, 0), BuildingBlock: ZUJKAS_clean_linker_0, # of connection points: 2
#     Edge 27, Type (0, 0), BuildingBlock: ZUJKAS_clean_linker_0, # of connection points: 2
#     Edge 28, Type (0, 0), BuildingBlock: ZUJKAS_clean_linker_0, # of connection points: 2
#     Edge 29, Type (0, 0), BuildingBlock: ZUJKAS_clean_linker_0, # of connection points: 2
#     Edge 30, Type (0, 0), BuildingBlock: ZUJKAS_clean_linker_0, # of connection points: 2
#     Edge 31, Type (0, 0), BuildingBlock: ZUJKAS_clean_linker_0, # of connection points: 2
#     Edge 32, Type (0, 0), BuildingBlock: ZUJKAS_clean_linker_0, # of connection points: 2
#     Edge 33, Type (0, 0), BuildingBlock: ZUJKAS_clean_linker_0, # of connection points: 2
#     Edge 34, Type (0, 0), BuildingBlock: ZUJKAS_clean_linker_0, # of connection points: 2
#     Edge 35, Type (0, 0), BuildingBlock: ZUJKAS_clean_linker_0, # of connection points: 2
#     Edge 36, Type (0, 0), BuildingBlock: ZUJKAS_clean_linker_0, # of connection points: 2
#     Edge 37, Type (0, 0), BuildingBlock: ZUJKAS_clean_linker_0, # of connection points: 2
#     Edge 38, Type (0, 0), BuildingBlock: ZUJKAS_clean_linker_0, # of connection points: 2
#     Edge 39, Type (0, 0), BuildingBlock: ZUJKAS_clean_linker_0, # of connection points: 2
#     Edge 40, Type (0, 0), BuildingBlock: ZUJKAS_clean_linker_0, # of connection points: 2
#     Edge 41, Type (0, 0), BuildingBlock: ZUJKAS_clean_linker_0, # of connection points: 2
# Relax obj value: 1.202
# Max RMSD: 0.212
# Mean RMSD: 0.212
data_MOF--net-acs-h--node1-BEQFEK_clean_sbu_0--edge1-ZUJKAS_clean_linker_0
_symmetry_space_group_name_H-M    P1
_symmetry_Int_Tables_number       1
_symmetry_cell_setting            triclinic
loop_
_symmetry_equiv_pos_as_xyz
'x, y, z'
_cell_length_a     54.112561
_cell_length_b     54.109848
_cell_length_c     46.990303
_cell_angle_alpha  89.990911
_cell_angle_beta   90.002628
_cell_angle_gamma 120.02148
loop_
_atom_site_label
_atom_site_type_symbol
_atom_site_fract_x
_atom_site_fract_y
_atom_site_fract_z
_atom_type_partial_charge
Co0 Co 0.44106 0.08017 0.0954 0.0
Co1 Co 0.44953 0.12629 0.05015 0.0
C2 C 0.49932 0.12554 0.07492 0.0
O3 O 0.48305 0.10295 0.08878 0.0
O4 O 0.48928 0.13809 0.06008 0.0
C5 C 0.45364 0.06689 0.14821 0.0
O6 O 0.47021 0.09478 0.14775 0.0
C7 C 0.47149 0.18328 0.0273 0.0
C8 C 0.4391 0.17858 0.99585 0.0
C9 C 0.46466 0.19838 0.00826 0.0
N10 N 0.45121 0.15563 0.0261 0.0
N11 N 0.432 0.15285 0.00701 0.0
C12 C 0.49541 0.19552 0.04847 0.0
H13 H 0.51357 0.19387 0.03974 0.0
H14 H 0.4885 0.18345 0.06875 0.0
H15 H 0.50282 0.21833 0.05285 0.0
C16 C 0.41162 0.10616 0.12602 0.0
N17 N 0.42439 0.10308 0.10273 0.0
N18 N 0.42795 0.12251 0.08379 0.0
C19 C 0.41808 0.13897 0.09483 0.0
C20 C 0.40766 0.12936 0.12204 0.0
C21 C 0.40636 0.08938 0.15288 0.0
H22 H 0.40096 0.06722 0.14791 0.0
H23 H 0.42586 0.09964 0.16626 0.0
H24 H 0.38865 0.08868 0.16532 0.0
O25 O 0.42495 0.05687 0.06155 0.0
O26 O 0.43652 0.09 0.02822 0.0
H27 H 0.4124 0.15943 0.05844 0.0
H28 H 0.40758 0.17256 0.09204 0.0
C29 C 0.42029 0.16474 0.08059 0.0
H30 H 0.44291 0.182 0.08014 0.0
H31 H 0.41362 0.13357 0.00226 0.0
O32 O 0.43685 0.05475 0.12746 0.0
C33 C 0.42764 0.06413 0.03549 0.0
Co34 Co 0.91596 0.36405 0.09528 0.0
Co35 Co 0.87239 0.32002 0.05106 0.0
C36 C 0.86912 0.37124 0.07116 0.0
O37 O 0.88979 0.37912 0.08843 0.0
O38 O 0.86074 0.34905 0.05595 0.0
C39 C 0.93076 0.39346 0.14638 0.0
O40 O 0.90278 0.38066 0.14767 0.0
C41 C 0.81402 0.27972 0.03543 0.0
C42 C 0.81731 0.2478 0.00896 0.0
C43 C 0.79783 0.25341 0.02239 0.0
N44 N 0.84178 0.2888 0.03092 0.0
N45 N 0.84365 0.26996 0.01449 0.0
C46 C 0.80345 0.29623 0.05209 0.0
H47 H 0.81032 0.31679 0.04119 0.0
H48 H 0.813 0.30084 0.0737 0.0
H49 H 0.77989 0.28516 0.05359 0.0
C50 C 0.89556 0.31172 0.12975 0.0
N51 N 0.89641 0.32515 0.10533 0.0
N52 N 0.87784 0.30654 0.08723 0.0
C53 C 0.86425 0.28067 0.10004 0.0
C54 C 0.87493 0.28324 0.12743 0.0
C55 C 0.9137 0.32579 0.15532 0.0
H56 H 0.93532 0.34255 0.14869 0.0
H57 H 0.90375 0.33561 0.16826 0.0
H58 H 0.91549 0.30991 0.16882 0.0
O59 O 0.93762 0.3703 0.06033 0.0
O60 O 0.90805 0.3403 0.02765 0.0
H61 H 0.84496 0.2505 0.06626 0.0
H62 H 0.83269 0.23553 0.10109 0.0
C63 C 0.83934 0.25468 0.08767 0.0
H64 H 0.82104 0.25836 0.0858 0.0
H65 H 0.86288 0.2714 0.00838 0.0
O66 O 0.94234 0.38867 0.12523 0.0
C67 C 0.93254 0.36079 0.03497 0.0
Co68 Co 0.6307 0.54656 0.09469 0.0
Co69 Co 0.67963 0.55334 0.05392 0.0
C70 C 0.62991 0.49586 0.06854 0.0
O71 O 0.61868 0.50677 0.0841 0.0
O72 O 0.65374 0.51143 0.05634 0.0
C73 C 0.59104 0.52303 0.13899 0.0
O74 O 0.59918 0.50392 0.1373 0.0
C75 C 0.72571 0.54275 0.04325 0.0
C76 C 0.74667 0.56725 0.00438 0.0
C77 C 0.74757 0.54886 0.02434 0.0
N78 N 0.71265 0.55718 0.03532 0.0
N79 N 0.72528 0.57192 0.01209 0.0
C80 C 0.71548 0.52131 0.06692 0.0
H81 H 0.70334 0.49954 0.05772 0.0
H82 H 0.7014 0.52464 0.08165 0.0
H83 H 0.73368 0.52266 0.07904 0.0
C84 C 0.67883 0.57675 0.13419 0.0
N85 N 0.66838 0.5664 0.10821 0.0
N86 N 0.68942 0.57072 0.09109 0.0
C87 C 0.7142 0.58456 0.10583 0.0
C88 C 0.70818 0.58838 0.13374 0.0
C89 C 0.66082 0.57473 0.15924 0.0
H90 H 0.64559 0.58181 0.153 0.0
H91 H 0.64837 0.55215 0.16625 0.0
H92 H 0.67405 0.58807 0.17724 0.0
O93 O 0.62639 0.56458 0.06071 0.0
O94 O 0.65849 0.56708 0.02953 0.0
H95 H 0.74414 0.5972 0.07126 0.0
H96 H 0.76017 0.61063 0.10552 0.0
C97 C 0.74287 0.59206 0.09421 0.0
H98 H 0.74644 0.57377 0.09725 0.0
H99 H 0.71891 0.58459 0.00115 0.0
O100 O 0.60291 0.5449 0.12308 0.0
C101 C 0.63727 0.57022 0.03593 0.0
Co102 Co 0.91832 0.56574 0.39951 0.0
Co103 Co 0.87404 0.55894 0.44624 0.0
C104 C 0.87306 0.50815 0.42094 0.0
O105 O 0.89497 0.52376 0.40588 0.0
O106 O 0.86181 0.51895 0.43663 0.0
C107 C 0.93134 0.55436 0.34572 0.0
O108 O 0.90342 0.53799 0.34568 0.0
C109 C 0.81718 0.53809 0.46867 0.0
C110 C 0.82287 0.56858 0.50275 0.0
C111 C 0.80247 0.54432 0.48881 0.0
N112 N 0.84507 0.55743 0.4707 0.0
N113 N 0.84844 0.57552 0.49129 0.0
C114 C 0.80452 0.51586 0.44582 0.0
H115 H 0.81813 0.52292 0.42651 0.0
H116 H 0.78276 0.51136 0.44007 0.0
H117 H 0.80299 0.49584 0.45376 0.0
C118 C 0.89332 0.59692 0.37031 0.0
N119 N 0.89609 0.58333 0.39309 0.0
N120 N 0.8774 0.58047 0.41263 0.0
C121 C 0.86174 0.59166 0.40248 0.0
C122 C 0.87114 0.60224 0.37528 0.0
C123 C 0.90966 0.60219 0.34314 0.0
H124 H 0.93176 0.60715 0.34769 0.0
H125 H 0.89894 0.58284 0.3296 0.0
H126 H 0.91054 0.62018 0.33105 0.0
O127 O 0.94221 0.5813 0.43307 0.0
O128 O 0.91073 0.57234 0.46757 0.0
H129 H 0.8432 0.59788 0.44015 0.0
H130 H 0.83089 0.60559 0.40745 0.0
C131 C 0.83723 0.59114 0.41776 0.0
H132 H 0.8187 0.56916 0.41751 0.0
H133 H 0.86806 0.59299 0.49705 0.0
O134 O 0.94338 0.57013 0.36713 0.0
C135 C 0.93614 0.58031 0.45934 0.0
Co136 Co 0.45238 0.36786 0.40781 0.0
Co137 Co 0.44977 0.32009 0.44791 0.0
C138 C 0.50462 0.37418 0.43688 0.0
O139 O 0.4921 0.38367 0.42121 0.0
O140 O 0.49098 0.34938 0.44776 0.0
C141 C 0.47534 0.4118 0.36693 0.0
O142 O 0.49823 0.41011 0.37246 0.0
C143 C 0.46676 0.27881 0.46075 0.0
C144 C 0.43267 0.24703 0.48839 0.0
C145 C 0.45794 0.25329 0.47487 0.0
N146 N 0.44789 0.28749 0.4658 0.0
N147 N 0.42765 0.26859 0.48262 0.0
C148 C 0.49074 0.29288 0.43976 0.0
H149 H 0.48597 0.30486 0.42361 0.0
H150 H 0.49448 0.27688 0.42878 0.0
H151 H 0.51054 0.30803 0.45119 0.0
C152 C 0.42886 0.32076 0.36666 0.0
N153 N 0.43727 0.33093 0.39313 0.0
N154 N 0.43465 0.31028 0.40989 0.0
C155 C 0.42391 0.28598 0.39442 0.0
C156 C 0.42018 0.29195 0.36648 0.0
C157 C 0.42995 0.33865 0.34186 0.0
H158 H 0.41896 0.35063 0.34749 0.0
H159 H 0.45255 0.3544 0.337 0.0
H160 H 0.41967 0.32545 0.32272 0.0
O161 O 0.43056 0.36815 0.44051 0.0
O162 O 0.43207 0.33797 0.47167 0.0
H163 H 0.41022 0.25409 0.42706 0.0
H164 H 0.40527 0.2401 0.39142 0.0
C165 C 0.41956 0.25811 0.40543 0.0
H166 H 0.4404 0.25891 0.4064 0.0
H167 H 0.40994 0.26988 0.48932 0.0
O168 O 0.45202 0.39467 0.37919 0.0
C169 C 0.42598 0.35728 0.4653 0.0
Co170 Co 0.63942 0.08047 0.39926 0.0
Co171 Co 0.67852 0.13173 0.43962 0.0
C172 C 0.62808 0.12887 0.41241 0.0
O173 O 0.6212 0.10468 0.40172 0.0
O174 O 0.6511 0.14296 0.42638 0.0
C175 C 0.61446 0.06354 0.3467 0.0
O176 O 0.62802 0.09151 0.34456 0.0
C177 C 0.71474 0.19057 0.45875 0.0
C178 C 0.74978 0.18915 0.48121 0.0
C179 C 0.74146 0.20778 0.47063 0.0
N180 N 0.70806 0.16314 0.46091 0.0
N181 N 0.72873 0.16236 0.47519 0.0
C182 C 0.69559 0.20007 0.44582 0.0
H183 H 0.67404 0.18755 0.45533 0.0
H184 H 0.69402 0.19614 0.42254 0.0
H185 H 0.70328 0.22296 0.44994 0.0
C186 C 0.69413 0.1016 0.3684 0.0
N187 N 0.67888 0.10168 0.39107 0.0
N188 N 0.69508 0.12384 0.40724 0.0
C189 C 0.72073 0.13928 0.39447 0.0
C190 C 0.72097 0.12572 0.36946 0.0
C191 C 0.6824 0.08063 0.34443 0.0
H192 H 0.66512 0.05972 0.35213 0.0
H193 H 0.67402 0.08892 0.32768 0.0
H194 H 0.69938 0.07761 0.33472 0.0
O195 O 0.63248 0.06106 0.43556 0.0
O196 O 0.65472 0.09795 0.46501 0.0
H197 H 0.76196 0.17765 0.38935 0.0
H198 H 0.73476 0.18244 0.40658 0.0
C199 C 0.74365 0.16801 0.4043 0.0
H200 H 0.75167 0.16577 0.42524 0.0
H201 H 0.72945 0.14374 0.47907 0.0
O202 O 0.61728 0.05239 0.36934 0.0
C203 C 0.63749 0.07139 0.46058 0.0
Co204 Co 0.54758 0.9122 0.90243 0.0
Co205 Co 0.54888 0.86866 0.94568 0.0
C206 C 0.49424 0.86666 0.92997 0.0
O207 O 0.507 0.88785 0.91329 0.0
O208 O 0.50788 0.85673 0.94316 0.0
C209 C 0.5281 0.92471 0.85334 0.0
O210 O 0.51178 0.89682 0.85457 0.0
C211 C 0.53062 0.8109 0.96241 0.0
C212 C 0.56396 0.81414 0.99175 0.0
C213 C 0.53865 0.7948 0.97857 0.0
N214 N 0.54992 0.83861 0.96597 0.0
N215 N 0.56974 0.84052 0.98379 0.0
C216 C 0.50675 0.79984 0.9412 0.0
H217 H 0.48708 0.79644 0.952 0.0
H218 H 0.51194 0.81532 0.92358 0.0
H219 H 0.50248 0.77909 0.93222 0.0
C220 C 0.57545 0.88918 0.86549 0.0
N221 N 0.5647 0.891 0.89072 0.0
N222 N 0.56572 0.87289 0.90871 0.0
C223 C 0.5771 0.85882 0.8952 0.0
C224 C 0.58335 0.86854 0.86732 0.0
C225 C 0.57774 0.90645 0.83972 0.0
H226 H 0.58408 0.92859 0.84599 0.0
H227 H 0.55674 0.89673 0.82888 0.0
H228 H 0.59367 0.90695 0.82449 0.0
O229 O 0.56678 0.93534 0.93562 0.0
O230 O 0.56557 0.90492 0.96823 0.0
H231 H 0.58877 0.84059 0.92948 0.0
H232 H 0.59324 0.82937 0.89467 0.0
C233 C 0.57959 0.83476 0.90781 0.0
H234 H 0.55811 0.81556 0.90923 0.0
H235 H 0.58763 0.85971 0.9898 0.0
O236 O 0.54734 0.93723 0.87205 0.0
C237 C 0.57095 0.9299 0.96094 0.0
Co238 Co 0.08529 0.63971 0.89658 0.0
Co239 Co 0.12631 0.68107 0.94366 0.0
C240 C 0.13315 0.63328 0.91959 0.0
O241 O 0.11266 0.62573 0.9021 0.0
O242 O 0.14028 0.65418 0.9364 0.0
C243 C 0.07118 0.61247 0.84367 0.0
O244 O 0.0991 0.62431 0.84255 0.0
C245 C 0.18272 0.71988 0.96546 0.0
C246 C 0.17603 0.74638 0.9968 0.0
C247 C 0.19685 0.74228 0.98424 0.0
N248 N 0.15466 0.71067 0.96692 0.0
N249 N 0.15069 0.72644 0.98587 0.0
C250 C 0.19609 0.70936 0.94434 0.0
H251 H 0.19731 0.69121 0.95377 0.0
H252 H 0.18312 0.70201 0.92463 0.0
H253 H 0.21807 0.72635 0.93884 0.0
C254 C 0.10557 0.694 0.86589 0.0
N255 N 0.10391 0.67927 0.88956 0.0
N256 N 0.12174 0.69687 0.90876 0.0
C257 C 0.13581 0.72341 0.89744 0.0
C258 C 0.1262 0.72234 0.86976 0.0
C259 C 0.08846 0.68114 0.83945 0.0
H260 H 0.06652 0.66427 0.84506 0.0
H261 H 0.09872 0.67158 0.82659 0.0
H262 H 0.08738 0.69765 0.82634 0.0
O263 O 0.0621 0.62965 0.93083 0.0
O264 O 0.09008 0.65759 0.96548 0.0
H265 H 0.15419 0.75102 0.93334 0.0
H266 H 0.16717 0.76855 0.89952 0.0
C267 C 0.16034 0.74852 0.9115 0.0
H268 H 0.17868 0.74485 0.9129 0.0
H269 H 0.13082 0.72406 0.99084 0.0
O270 O 0.05987 0.61704 0.86518 0.0
C271 C 0.0662 0.63709 0.95684 0.0
Co272 Co 0.36411 0.44662 0.88485 0.0
Co273 Co 0.32127 0.44499 0.93088 0.0
C274 C 0.37004 0.50017 0.90669 0.0
O275 O 0.37837 0.48778 0.88939 0.0
O276 O 0.34873 0.4859 0.92296 0.0
C277 C 0.41048 0.44309 0.86046 0.0
O278 O 0.41808 0.44431 0.8872 0.0
C279 C 0.27754 0.45906 0.94163 0.0
C280 C 0.26259 0.44365 0.98523 0.0
C281 C 0.25898 0.45789 0.96249 0.0
N282 N 0.2912 0.44574 0.95121 0.0
N283 N 0.28211 0.4364 0.97727 0.0
C284 C 0.28454 0.47531 0.91417 0.0
H285 H 0.29387 0.49841 0.91878 0.0
H286 H 0.29979 0.47193 0.90138 0.0
H287 H 0.26492 0.46843 0.90146 0.0
C288 C 0.31078 0.41407 0.85236 0.0
N289 N 0.32497 0.42638 0.87651 0.0
N290 N 0.30671 0.42348 0.8965 0.0
C291 C 0.28005 0.40821 0.88587 0.0
C292 C 0.28171 0.40206 0.85743 0.0
C293 C 0.32517 0.4168 0.82438 0.0
H294 H 0.32967 0.39901 0.82217 0.0
H295 H 0.34572 0.43722 0.82346 0.0
H296 H 0.31156 0.41596 0.80633 0.0
O297 O 0.3723 0.43372 0.92076 0.0
O298 O 0.34316 0.43226 0.95485 0.0
H299 H 0.25693 0.39615 0.92542 0.0
H300 H 0.23569 0.37855 0.89421 0.0
C301 C 0.25333 0.39893 0.9027 0.0
H302 H 0.24676 0.41525 0.90103 0.0
H303 H 0.28983 0.42588 0.98991 0.0
O304 O 0.38728 0.44259 0.85461 0.0
C305 C 0.36413 0.42954 0.94656 0.0
Co306 Co 0.07524 0.43766 0.59395 0.0
Co307 Co 0.1268 0.44792 0.55559 0.0
C308 C 0.12562 0.49678 0.58085 0.0
O309 O 0.10075 0.48011 0.59069 0.0
O310 O 0.13977 0.48702 0.56836 0.0
C311 C 0.05805 0.4456 0.64649 0.0
O312 O 0.08593 0.45877 0.64947 0.0
C313 C 0.18452 0.46801 0.53441 0.0
C314 C 0.18183 0.42854 0.51806 0.0
C315 C 0.20103 0.45672 0.52478 0.0
N316 N 0.157 0.44725 0.53466 0.0
N317 N 0.15543 0.4239 0.52396 0.0
C318 C 0.19488 0.49801 0.54393 0.0
H319 H 0.18127 0.50579 0.53442 0.0
H320 H 0.19338 0.49851 0.56745 0.0
H321 H 0.21728 0.51254 0.53727 0.0
C322 C 0.09352 0.40252 0.62625 0.0
N323 N 0.09511 0.41842 0.60351 0.0
N324 N 0.1176 0.42373 0.58822 0.0
C325 C 0.1319 0.41263 0.6017 0.0
C326 C 0.11697 0.39863 0.62613 0.0
C327 C 0.07014 0.39129 0.64794 0.0
H328 H 0.04991 0.38754 0.63813 0.0
H329 H 0.07598 0.40697 0.66546 0.0
H330 H 0.06703 0.37107 0.65725 0.0
O331 O 0.05603 0.42474 0.55764 0.0
O332 O 0.09391 0.43966 0.52965 0.0
H333 H 0.16047 0.40524 0.5766 0.0
H334 H 0.17267 0.4164 0.61241 0.0
C335 C 0.16154 0.41946 0.59411 0.0
H336 H 0.17418 0.44192 0.58698 0.0
H337 H 0.13662 0.40421 0.52275 0.0
O338 O 0.04712 0.43279 0.62329 0.0
C339 C 0.06733 0.43079 0.53306 0.0
Co340 Co 0.55717 0.63794 0.59527 0.0
Co341 Co 0.54958 0.67678 0.5507 0.0
C342 C 0.49926 0.62642 0.57548 0.0
O343 O 0.51525 0.6197 0.58929 0.0
O344 O 0.5097 0.64914 0.56077 0.0
C345 C 0.54517 0.61159 0.64807 0.0
O346 O 0.52795 0.62214 0.64805 0.0
C347 C 0.52921 0.71417 0.53119 0.0
C348 C 0.56038 0.74117 0.49852 0.0
C349 C 0.53613 0.73669 0.5129 0.0
N350 N 0.54817 0.7053 0.52774 0.0
N351 N 0.56663 0.72131 0.50791 0.0
C352 C 0.50682 0.70349 0.55395 0.0
H353 H 0.48696 0.68523 0.54543 0.0
H354 H 0.51387 0.69629 0.57278 0.0
H355 H 0.50201 0.72031 0.56067 0.0
C356 C 0.58882 0.69303 0.62587 0.0
N357 N 0.575 0.67748 0.60275 0.0
N358 N 0.57201 0.69395 0.58413 0.0
C359 C 0.58344 0.72047 0.59521 0.0
C360 C 0.59423 0.72072 0.62209 0.0
C361 C 0.59378 0.68084 0.65242 0.0
H362 H 0.59925 0.66424 0.64695 0.0
H363 H 0.5741 0.67116 0.66552 0.0
H364 H 0.61133 0.69749 0.66535 0.0
O365 O 0.57222 0.63039 0.56086 0.0
O366 O 0.56126 0.65284 0.52793 0.0
H367 H 0.59706 0.76536 0.59233 0.0
H368 H 0.56065 0.74134 0.58204 0.0
C369 C 0.58269 0.74497 0.58131 0.0
H370 H 0.58943 0.74673 0.55881 0.0
H371 H 0.58407 0.71939 0.50154 0.0
O372 O 0.56165 0.61655 0.62696 0.0
C373 C 0.56934 0.63514 0.5349 0.0
Co374 Co 0.36508 0.91752 0.59722 0.0
Co375 Co 0.3203 0.87269 0.55487 0.0
C376 C 0.3722 0.87021 0.57576 0.0
O377 O 0.38082 0.8918 0.59197 0.0
O378 O 0.34953 0.86121 0.56108 0.0
C379 C 0.41562 0.96066 0.62043 0.0
O380 O 0.42545 0.95575 0.59681 0.0
C381 C 0.27993 0.81348 0.54447 0.0
C382 C 0.25232 0.81352 0.50992 0.0
C383 C 0.25659 0.79565 0.52789 0.0
N384 N 0.28932 0.8406 0.53661 0.0
N385 N 0.27285 0.84058 0.51581 0.0
C386 C 0.29131 0.80519 0.56953 0.0
H387 H 0.30164 0.82311 0.58487 0.0
H388 H 0.27395 0.78624 0.58043 0.0
H389 H 0.30744 0.79972 0.56209 0.0
C390 C 0.31431 0.89666 0.63341 0.0
N391 N 0.32676 0.89763 0.60835 0.0
N392 N 0.30747 0.8799 0.59029 0.0
C393 C 0.28178 0.8674 0.60331 0.0
C394 C 0.28528 0.87744 0.63111 0.0
C395 C 0.33066 0.91134 0.65975 0.0
H396 H 0.33645 0.93411 0.65897 0.0
H397 H 0.3507 0.91048 0.66063 0.0
H398 H 0.31809 0.90148 0.67932 0.0
O399 O 0.36993 0.93729 0.56124 0.0
O400 O 0.33959 0.90687 0.5294 0.0
H401 H 0.25406 0.85164 0.56702 0.0
H402 H 0.2358 0.84511 0.6008 0.0
C403 C 0.25432 0.84601 0.58965 0.0
H404 H 0.25222 0.82457 0.59073 0.0
H405 H 0.27525 0.85897 0.50604 0.0
O406 O 0.38899 0.94661 0.62537 0.0
C407 C 0.36001 0.93161 0.53608 0.0
H408 H 0.61047 0.0801 0.29335 0.0
H409 H 0.57111 0.0553 0.26021 0.0
H410 H 0.53209 0.98244 0.31632 0.0
H411 H 0.57159 0.00757 0.35014 0.0
H412 H 0.5438 0.00197 0.23149 0.0
H413 H 0.47438 0.01097 0.31389 0.0
H414 H 0.51262 0.02961 0.3181 0.0
H415 H 0.49247 0.99149 0.32175 0.0
C416 C 0.59383 0.0586 0.29847 0.0
C417 C 0.5938 0.046 0.32456 0.0
C418 C 0.57141 0.04434 0.2794 0.0
C419 C 0.54848 0.01722 0.28603 0.0
C420 C 0.54943 0.00352 0.31102 0.0
H421 H 0.4342 0.00927 0.14932 0.0
H422 H 0.4469 0.98365 0.18423 0.0
C423 C 0.57204 0.01785 0.33022 0.0
C424 C 0.52249 0.00599 0.26832 0.0
H425 H 0.46175 0.01021 0.26632 0.0
C426 C 0.52514 0.00251 0.2391 0.0
C427 C 0.49813 0.00649 0.27849 0.0
C428 C 0.49401 0.00986 0.30973 0.0
C429 C 0.5062 0.00356 0.21942 0.0
C430 C 0.48395 0.00778 0.22947 0.0
C431 C 0.47899 0.00716 0.25882 0.0
C432 C 0.47141 0.02066 0.21088 0.0
C433 C 0.51219 0.00367 0.18804 0.0
C434 C 0.47999 0.04952 0.21505 0.0
C435 C 0.47285 0.0641 0.19534 0.0
C436 C 0.4569 0.05007 0.17107 0.0
C437 C 0.44663 0.02064 0.16782 0.0
C438 C 0.45393 0.006 0.18763 0.0
H439 H 0.53085 0.00086 0.18387 0.0
H440 H 0.49327 0.98613 0.17731 0.0
H441 H 0.51636 0.02412 0.17833 0.0
H442 H 0.49354 0.06122 0.23287 0.0
H443 H 0.48082 0.08667 0.19859 0.0
H444 H 0.98571 0.4377 0.14168 0.0
H445 H 0.01106 0.47702 0.17565 0.0
H446 H 0.93991 0.43603 0.23362 0.0
H447 H 0.91465 0.39712 0.20001 0.0
H448 H 0.98837 0.51104 0.19132 0.0
H449 H 0.00791 0.46542 0.28751 0.0
H450 H 0.00312 0.44914 0.25281 0.0
H451 H 0.97265 0.44176 0.27445 0.0
C452 C 0.9759 0.43678 0.16204 0.0
C453 C 0.94815 0.41454 0.16822 0.0
C454 C 0.99041 0.45919 0.18138 0.0
C455 C 0.97757 0.4592 0.20731 0.0
C456 C 0.95054 0.43613 0.21405 0.0
H457 H 0.91314 0.53435 0.29245 0.0
H458 H 0.93811 0.52255 0.25672 0.0
C459 C 0.93595 0.41405 0.19468 0.0
C460 C 0.9894 0.4849 0.22546 0.0
H461 H 0.99231 0.50083 0.29583 0.0
C462 C 0.99047 0.50941 0.21411 0.0
C463 C 0.99295 0.48323 0.25504 0.0
C464 C 0.99443 0.45854 0.26807 0.0
C465 C 0.99056 0.53016 0.23203 0.0
C466 C 0.98924 0.52592 0.26178 0.0
C467 C 0.99269 0.50378 0.27297 0.0
C468 C 0.97741 0.53918 0.2808 0.0
C469 C 0.98954 0.55508 0.21898 0.0
C470 C 0.99127 0.5527 0.30615 0.0
C471 C 0.97691 0.55948 0.32673 0.0
C472 C 0.94833 0.55222 0.32238 0.0
C473 C 0.9351 0.54006 0.2964 0.0
C474 C 0.94951 0.53363 0.2758 0.0
H475 H 0.00191 0.56178 0.19882 0.0
H476 H 0.96708 0.54856 0.2138 0.0
H477 H 0.99811 0.57358 0.23374 0.0
H478 H 0.01264 0.55677 0.31055 0.0
H479 H 0.98758 0.56879 0.34666 0.0
H480 H 0.5584 0.47595 0.17078 0.0
H481 H 0.52201 0.46864 0.20512 0.0
H482 H 0.53444 0.55226 0.1867 0.0
H483 H 0.57169 0.56 0.15206 0.0
H484 H 0.53602 0.54456 0.24258 0.0
H485 H 0.44057 0.45041 0.20258 0.0
H486 H 0.46943 0.44345 0.1987 0.0
H487 H 0.47023 0.47278 0.17949 0.0
C488 C 0.55326 0.49273 0.17367 0.0
C489 C 0.56803 0.5186 0.1588 0.0
C490 C 0.53203 0.48833 0.19303 0.0
C491 C 0.52483 0.50955 0.19788 0.0
C492 C 0.53928 0.53539 0.18285 0.0
H493 H 0.43141 0.41748 0.34464 0.0
H494 H 0.43483 0.4502 0.30661 0.0
C495 C 0.56063 0.53982 0.16325 0.0
C496 C 0.50536 0.50558 0.22175 0.0
H497 H 0.45074 0.44872 0.25498 0.0
C498 C 0.51659 0.52415 0.24505 0.0
C499 C 0.4792 0.47976 0.22488 0.0
C500 C 0.46407 0.46072 0.19984 0.0
C501 C 0.50536 0.51499 0.27239 0.0
C502 C 0.4832 0.48646 0.27624 0.0
C503 C 0.46854 0.47023 0.2523 0.0
C504 C 0.48081 0.47088 0.30296 0.0
C505 C 0.51923 0.53491 0.29717 0.0
C506 C 0.50545 0.47166 0.31357 0.0
C507 C 0.50356 0.45307 0.33497 0.0
C508 C 0.47693 0.43296 0.34612 0.0
C509 C 0.45224 0.43276 0.33637 0.0
C510 C 0.45417 0.45152 0.31479 0.0
H511 H 0.52413 0.55683 0.29146 0.0
H512 H 0.50541 0.52779 0.31637 0.0
H513 H 0.53981 0.53604 0.30226 0.0
H514 H 0.52616 0.48552 0.30416 0.0
H515 H 0.52301 0.45387 0.34204 0.0
H516 H 0.55024 0.98272 0.85007 0.0
H517 H 0.53756 0.00856 0.81533 0.0
H518 H 0.48225 0.92926 0.77232 0.0
H519 H 0.49434 0.90345 0.80678 0.0
H520 H 0.54132 0.01219 0.75475 0.0
H521 H 0.42973 0.96162 0.79103 0.0
H522 H 0.4576 0.96173 0.81232 0.0
H523 H 0.43969 0.93501 0.78521 0.0
C524 C 0.53551 0.97089 0.83307 0.0
C525 C 0.52297 0.94102 0.83131 0.0
C526 C 0.52829 0.98566 0.81335 0.0
C527 C 0.50845 0.97066 0.7918 0.0
C528 C 0.49703 0.94109 0.78931 0.0
H529 H 0.46918 0.97013 0.62917 0.0
H530 H 0.49635 0.98642 0.67292 0.0
C531 C 0.50407 0.92638 0.80894 0.0
C532 C 0.49907 0.98516 0.77155 0.0
H533 H 0.43765 0.97403 0.74065 0.0
C534 C 0.51874 0.00462 0.75198 0.0
C535 C 0.46984 0.97635 0.76872 0.0
C536 C 0.44808 0.95779 0.7907 0.0
C537 C 0.50938 0.01258 0.7276 0.0
C538 C 0.47969 0.99987 0.72241 0.0
C539 C 0.46044 0.98344 0.74398 0.0
C540 C 0.46783 0.99824 0.6935 0.0
C541 C 0.5314 0.03355 0.70721 0.0
C542 C 0.44278 0.9997 0.68992 0.0
C543 C 0.42646 0.98908 0.6652 0.0
C544 C 0.43538 0.9776 0.64337 0.0
C545 C 0.46188 0.97898 0.64564 0.0
C546 C 0.47772 0.98875 0.67065 0.0
H547 H 0.54957 0.05081 0.71915 0.0
H548 H 0.54011 0.0225 0.69427 0.0
H549 H 0.52238 0.04331 0.69282 0.0
H550 H 0.4347 0.00699 0.70712 0.0
H551 H 0.40618 0.98846 0.66379 0.0
H552 H 0.07209 0.45956 0.70179 0.0
H553 H 0.04818 0.47429 0.73582 0.0
H554 H 0.98057 0.45388 0.67538 0.0
H555 H 0.00472 0.43909 0.64088 0.0
H556 H 0.00604 0.50868 0.69211 0.0
H557 H 0.98035 0.44284 0.78828 0.0
H558 H 0.01533 0.45159 0.7767 0.0
H559 H 0.985 0.43047 0.75402 0.0
C560 C 0.05172 0.45741 0.696 0.0
C561 C 0.04043 0.44854 0.66863 0.0
C562 C 0.03782 0.46549 0.71563 0.0
C563 C 0.01234 0.46482 0.70831 0.0
C564 C 2e-05 0.45421 0.68156 0.0
H565 H 0.0142 0.5728 0.84605 0.0
H566 H 0.9868 0.53505 0.8112 0.0
C567 C 0.01385 0.44583 0.6619 0.0
C568 C 0.00255 0.48059 0.72643 0.0
H569 H 0.00196 0.49533 0.79674 0.0
C570 C 0.00389 0.50518 0.71493 0.0
C571 C 0.99887 0.47577 0.75608 0.0
C572 C 0.99447 0.4485 0.76936 0.0
C573 C 0.00623 0.52705 0.73268 0.0
C574 C 0.0076 0.52421 0.76243 0.0
C575 C 0.00167 0.49783 0.77385 0.0
C576 C 0.02157 0.54953 0.7811 0.0
C577 C 0.00974 0.55398 0.7194 0.0
C578 C 0.05006 0.57023 0.77557 0.0
C579 C 0.06577 0.59147 0.79543 0.0
C580 C 0.0533 0.59243 0.82126 0.0
C581 C 0.02433 0.57259 0.82624 0.0
C582 C 0.00863 0.55107 0.80639 0.0
H583 H 0.99718 0.54908 0.6994 0.0
H584 H 0.00291 0.56547 0.73414 0.0
H585 H 0.03252 0.56829 0.71387 0.0
H586 H 0.06072 0.56902 0.75655 0.0
H587 H 0.088 0.60651 0.79097 0.0
H588 H 0.51927 0.60461 0.69922 0.0
H589 H 0.51249 0.57037 0.7362 0.0
H590 H 0.56149 0.54218 0.68762 0.0
H591 H 0.56829 0.5766 0.65006 0.0
H592 H 0.50913 0.49797 0.70416 0.0
H593 H 0.56307 0.56547 0.79702 0.0
H594 H 0.54174 0.57797 0.77999 0.0
H595 H 0.5712 0.57897 0.761 0.0
C596 C 0.52905 0.59151 0.69654 0.0
C597 C 0.54419 0.59319 0.67169 0.0
C598 C 0.52542 0.57213 0.71786 0.0
C599 C 0.53694 0.5541 0.71488 0.0
C600 C 0.55276 0.55619 0.69044 0.0
H601 H 0.46475 0.45202 0.86572 0.0
H602 H 0.50186 0.47072 0.82913 0.0
C603 C 0.55659 0.57582 0.66906 0.0
C604 C 0.52904 0.53101 0.73589 0.0
H605 H 0.51847 0.52055 0.80721 0.0
C606 C 0.51194 0.50269 0.72676 0.0
C607 C 0.53344 0.53694 0.7653 0.0
C608 C 0.55367 0.56651 0.77634 0.0
C609 C 0.49609 0.4808 0.74632 0.0
C610 C 0.49702 0.4877 0.77548 0.0
C611 C 0.51715 0.51523 0.7848 0.0
C612 C 0.47387 0.46921 0.79543 0.0
C613 C 0.47721 0.4509 0.73536 0.0
C614 C 0.44558 0.46114 0.78843 0.0
C615 C 0.42436 0.4504 0.80921 0.0
C616 C 0.43111 0.44794 0.83753 0.0
C617 C 0.45892 0.45386 0.8441 0.0
C618 C 0.48016 0.4645 0.82321 0.0
H619 H 0.48768 0.44639 0.71736 0.0
H620 H 0.47207 0.43468 0.75225 0.0
H621 H 0.45703 0.44885 0.72717 0.0
H622 H 0.44023 0.46523 0.76741 0.0
H623 H 0.40313 0.44592 0.80341 0.0
H624 H 0.40455 0.00633 0.03959 0.0
H625 H 0.43081 0.98256 0.02541 0.0
H626 H 0.48602 0.05465 0.97289 0.0
H627 H 0.46015 0.07879 0.9872 0.0
H628 H 0.45437 0.96915 0.97646 0.0
H629 H 0.53572 0.05793 0.04249 0.0
H630 H 0.49916 0.04994 0.04032 0.0
H631 H 0.5236 0.06873 0.01184 0.0
C632 C 0.42131 0.01654 0.02383 0.0
C633 C 0.43097 0.04491 0.01542 0.0
C634 C 0.43647 0.00298 0.01593 0.0
C635 C 0.46108 0.01747 -0.00084 0.0
C636 C 0.46752 0.04353 0.98655 0.0
H637 H 0.59694 0.98791 0.95793 0.0
H638 H 0.57169 0.01223 0.97368 0.0
C639 C 0.45237 0.05713 0.99446 0.0
C640 C 0.48227 0.00778 -0.00094 0.0
H641 H 0.54869 0.02562 0.0236 0.0
C642 C 0.47498 0.98144 0.98673 0.0
C643 C 0.509 0.02377 0.01291 0.0
C644 C 0.51736 0.05156 0.02788 0.0
C645 C 0.49403 0.97095 0.98721 0.0
C646 C 0.52079 0.987 0.001 0.0
C647 C 0.52806 0.01331 0.01337 0.0
C648 C 0.54215 0.97755 0.00061 0.0
C649 C 0.48566 0.9431 0.97231 0.0
C650 C 0.53609 0.95164 0.0133 0.0
C651 C 0.55083 0.93785 0.00461 0.0
C652 C 0.57117 0.94967 0.98267 0.0
C653 C 0.58101 0.97813 0.97452 0.0
C654 C 0.5663 0.9919 0.98321 0.0
H655 H 0.4669 0.93629 0.95815 0.0
H656 H 0.50368 0.94488 0.95939 0.0
H657 H 0.48009 0.92612 0.98843 0.0
H658 H 0.51797 0.94065 0.02745 0.0
H659 H 0.54297 0.9161 0.01164 0.0
H660 H 0.91835 0.37652 0.98559 0.0
H661 H 0.94396 0.42587 0.96945 0.0
H662 H 0.01624 0.44144 0.02106 0.0
H663 H 0.99047 0.39208 0.03758 0.0
H664 H 0.98817 0.47021 0.03932 0.0
H665 H 0.01139 0.48687 0.92369 0.0
H666 H 0.97597 0.45867 0.93198 0.0
H667 H 0.00618 0.45529 0.9421 0.0
C668 C 0.94042 0.38981 0.99196 0.0
C669 C 0.95218 0.38067 0.01338 0.0
C670 C 0.955 0.41825 0.98291 0.0
C671 C 0.98175 0.43748 0.99458 0.0
C672 C 0.99546 0.427 0.01207 0.0
H673 H 0.08006 0.61959 0.00535 0.0
H674 H 0.05533 0.56972 0.01996 0.0
C675 C 0.98086 0.39864 0.02118 0.0
C676 C 0.9922 0.46855 0.99378 0.0
H677 H 0.01182 0.52509 0.94928 0.0
C678 C 0.99363 0.48232 0.01965 0.0
C679 C 0.99879 0.4841 0.96812 0.0
C680 C 0.99827 0.47058 0.9399 0.0
C681 C 0.00119 0.51119 0.02048 0.0
C682 C 0.00778 0.52676 0.99482 0.0
C683 C 0.00639 0.51299 0.96896 0.0
C684 C 0.01794 0.55778 0.99405 0.0
C685 C 0.00151 0.52461 0.04872 0.0
C686 C 0.00418 0.5681 0.97643 0.0
C687 C 0.01828 0.59672 0.96814 0.0
C688 C 0.0465 0.61522 0.97702 0.0
C689 C 0.05829 0.60592 -0.00175 0.0
C690 C 0.04423 0.57722 0.00643 0.0
H691 H 0.98815 0.50827 0.06478 0.0
H692 H 0.02372 0.53632 0.05689 0.0
H693 H 0.99378 0.54004 0.04648 0.0
H694 H 0.98374 0.5535 0.9669 0.0
H695 H 0.00865 0.60335 0.95183 0.0
H696 H 0.39812 0.40608 0.94177 0.0
H697 H 0.44748 0.4305 0.95839 0.0
H698 H 0.42969 0.48446 0.01194 0.0
H699 H 0.38031 0.45981 0.99577 0.0
H700 H 0.47714 0.48709 0.94263 0.0
H701 H 0.48882 0.47704 0.05858 0.0
H702 H 0.45754 0.45182 0.039 0.0
H703 H 0.46158 0.48549 0.04997 0.0
C704 C 0.40427 0.42188 0.95849 0.0
C705 C 0.38551 0.43134 0.96715 0.0
C706 C 0.43261 0.43612 0.96767 0.0
C707 C 0.44239 0.45967 0.98595 0.0
C708 C 0.42261 0.46626 -0.00206 0.0
H709 H 0.60566 0.59652 0.03722 0.0
H710 H 0.55721 0.57329 0.01824 0.0
C711 C 0.39418 0.45189 0.98886 0.0
C712 C 0.4734 0.48032 0.98806 0.0
H713 H 0.52792 0.51606 0.03503 0.0
C714 C 0.48834 0.49326 0.96283 0.0
C715 C 0.48784 0.48861 0.01438 0.0
C716 C 0.4732 0.47484 0.042 0.0
C717 C 0.51726 0.5145 0.96329 0.0
C718 C 0.53164 0.52288 0.98963 0.0
C719 C 0.51672 0.5099 0.01483 0.0
C720 C 0.56261 0.54358 0.99188 0.0
C721 C 0.53207 0.52811 0.9357 0.0
C722 C 0.58245 0.53645 0.98113 0.0
C723 C 0.61041 0.55015 0.99157 0.0
C724 C 0.61841 0.57045 0.01346 0.0
C725 C 0.59999 0.58084 0.02046 0.0
C726 C 0.57213 0.56728 0.00992 0.0
H727 H 0.51655 0.52525 0.91873 0.0
H728 H 0.54721 0.55128 0.93856 0.0
H729 H 0.54438 0.51794 0.9284 0.0
H730 H 0.57557 0.51817 0.96727 0.0
H731 H 0.62407 0.54161 0.98582 0.0
H732 H 0.09039 0.46984 0.48996 0.0
H733 H 0.06975 0.4986 0.47427 0.0
H734 H 0.98965 0.43882 0.51327 0.0
H735 H 0.00988 0.40961 0.52854 0.0
H736 H 0.98318 0.4664 0.46639 0.0
H737 H 0.06406 0.54342 0.54222 0.0
H738 H 0.07835 0.53382 0.51247 0.0
H739 H 0.05695 0.50728 0.53845 0.0
C740 C 0.06792 0.4619 0.49388 0.0
C741 C 0.05204 0.43794 0.51141 0.0
C742 C 0.05631 0.47871 0.48531 0.0
C743 C 0.02868 0.47153 0.49392 0.0
C744 C 0.01128 0.44508 0.50703 0.0
H745 H 0.92336 0.54799 0.50744 0.0
H746 H 0.94965 0.52412 0.52115 0.0
C747 C 0.02282 0.42823 0.51551 0.0
C748 C 0.01918 0.49289 0.49305 0.0
H749 H 0.03314 0.55705 0.52097 0.0
C750 C 0.99415 0.48625 0.47821 0.0
C751 C 0.03337 0.51863 0.50892 0.0
C752 C 0.05952 0.52621 0.52664 0.0
C753 C 0.98303 0.50475 0.47853 0.0
C754 C 0.99715 0.53038 0.49445 0.0
C755 C 0.02234 0.53726 0.50904 0.0
C756 C 0.98631 0.55061 0.49484 0.0
C757 C 0.95635 0.49688 0.46162 0.0
C758 C 0.99962 0.57523 0.47796 0.0
C759 C 0.98476 0.58916 0.47029 0.0
C760 C 0.95629 0.57827 0.47911 0.0
C761 C 0.94513 0.5568 0.50005 0.0
C762 C 0.95999 0.54283 0.50765 0.0
H763 H 0.95098 0.47904 0.44659 0.0
H764 H 0.9381 0.49016 0.47642 0.0
H765 H 0.95882 0.51554 0.44935 0.0
H766 H 0.02014 0.58178 0.46823 0.0
H767 H 0.99406 0.60589 0.4544 0.0
H768 H 0.39739 0.38687 0.46433 0.0
H769 H 0.42187 0.43651 0.47988 0.0
H770 H 0.47854 0.42094 0.53143 0.0
H771 H 0.45429 0.37134 0.51579 0.0
H772 H 0.4468 0.47428 0.52922 0.0
H773 H 0.52591 0.46657 0.45957 0.0
H774 H 0.48938 0.43809 0.46248 0.0
H775 H 0.51443 0.44374 0.4903 0.0
C776 C 0.41377 0.39347 0.48051 0.0
C777 C 0.42474 0.37559 0.48786 0.0
C778 C 0.42806 0.42203 0.48906 0.0
C779 C 0.45283 0.43257 0.50565 0.0
C780 C 0.45991 0.41327 0.51791 0.0
H781 H 0.59241 0.60036 0.53699 0.0
H782 H 0.56491 0.54988 0.52457 0.0
C783 C 0.4456 0.38468 0.50933 0.0
C784 C 0.47386 0.46351 0.50515 0.0
H785 H 0.53881 0.51212 0.47752 0.0
C786 C 0.46693 0.4826 0.518 0.0
C787 C 0.49995 0.47423 0.49005 0.0
C788 C 0.50789 0.4547 0.47458 0.0
C789 C 0.48573 0.5122 0.51678 0.0
C790 C 0.5118 0.52292 0.50165 0.0
C791 C 0.51871 0.50381 0.4888 0.0
C792 C 0.53284 0.55388 0.50083 0.0
C793 C 0.47783 0.5317 0.53231 0.0
C794 C 0.52562 0.57321 0.48892 0.0
C795 C 0.54153 0.60223 0.49574 0.0
C796 C 0.56452 0.61201 0.51494 0.0
C797 C 0.57454 0.59339 0.52252 0.0
C798 C 0.55863 0.56441 0.5157 0.0
H799 H 0.46029 0.51987 0.54783 0.0
H800 H 0.49653 0.54871 0.54385 0.0
H801 H 0.47056 0.54211 0.5167 0.0
H802 H 0.5062 0.56552 0.47664 0.0
H803 H 0.53334 0.61598 0.48922 0.0
H804 H 0.61895 0.09137 0.50417 0.0
H805 H 0.56936 0.06739 0.51986 0.0
H806 H 0.55463 0.98992 0.47875 0.0
H807 H 0.60422 0.01349 0.46364 0.0
H808 H 0.531 0.05194 0.47706 0.0
H809 H 0.5014 0.95786 0.54523 0.0
H810 H 0.53802 0.98566 0.54032 0.0
H811 H 0.52067 0.95773 0.51426 0.0
C812 C 0.6057 0.06874 0.49998 0.0
C813 C 0.61535 0.05451 0.48202 0.0
C814 C 0.57715 0.05515 0.50865 0.0
C815 C 0.55811 0.02704 0.49999 0.0
C816 C 0.56885 0.01156 0.48584 0.0
H817 H 0.37706 0.91724 0.48768 0.0
H818 H 0.4265 0.94452 0.47165 0.0
C819 C 0.59737 0.02509 0.47726 0.0
C820 C 0.52685 0.01586 0.50073 0.0
H821 H 0.46323 0.95808 0.51938 0.0
C822 C 0.51619 0.03155 0.48664 0.0
C823 C 0.50751 0.98912 0.51282 0.0
C824 C 0.51751 0.97177 0.52924 0.0
C825 C 0.48673 0.021 0.48391 0.0
C826 C 0.46746 0.99409 0.49561 0.0
C827 C 0.47809 0.9785 0.50988 0.0
C828 C 0.43617 0.98239 0.49569 0.0
C829 C 0.47645 0.03846 0.46815 0.0
C830 C 0.42457 0.99565 0.51227 0.0
C831 C 0.39617 0.98017 0.52119 0.0
C832 C 0.37932 0.95112 0.5141 0.0
C833 C 0.38948 0.93958 0.49348 0.0
C834 C 0.41796 0.95503 0.48465 0.0
H835 H 0.49329 0.05458 0.45404 0.0
H836 H 0.4573 0.02456 0.45515 0.0
H837 H 0.47051 0.04996 0.48378 0.0
H838 H 0.43821 0.01668 0.52113 0.0
H839 H 0.38884 0.98956 0.53708 0.0
H840 H 0.45598 0.30234 0.32224 0.0
H841 H 0.44834 0.27229 0.28045 0.0
H842 H 0.36518 0.21045 0.31226 0.0
H843 H 0.37267 0.24089 0.35403 0.0
H844 H 0.43704 0.2148 0.28215 0.0
H845 H 0.35041 0.2242 0.22835 0.0
H846 H 0.37303 0.24917 0.25522 0.0
H847 H 0.34517 0.21424 0.26533 0.0
C848 C 0.43598 0.28246 0.32011 0.0
C849 C 0.41488 0.2738 0.34118 0.0
C850 C 0.43166 0.26532 0.29635 0.0
C851 C 0.4061 0.23931 0.29317 0.0
C852 C 0.38488 0.23065 0.31415 0.0
H853 H 0.36142 0.11277 0.15688 0.0
H854 H 0.3587 0.13827 0.19909 0.0
C855 C 0.38924 0.24785 0.33803 0.0
C856 C 0.40253 0.22092 0.2684 0.0
H857 H 0.36574 0.19501 0.20621 0.0
C858 C 0.42137 0.21036 0.26561 0.0
C859 C 0.3819 0.21501 0.24702 0.0
C860 C 0.36153 0.22634 0.24886 0.0
C861 C 0.42047 0.1944 0.24175 0.0
C862 C 0.40055 0.18935 0.21985 0.0
C863 C 0.38106 0.1991 0.22301 0.0
C864 C 0.40071 0.17506 0.19306 0.0
C865 C 0.44092 0.18312 0.24014 0.0
C866 C 0.42479 0.18777 0.17533 0.0
C867 C 0.42639 0.17327 0.15152 0.0
C868 C 0.40386 0.1459 0.14491 0.0
C869 C 0.37914 0.13376 0.1618 0.0
C870 C 0.37755 0.1483 0.18575 0.0
H871 H 0.44919 0.18211 0.2615 0.0
H872 H 0.43053 0.16149 0.23049 0.0
H873 H 0.45941 0.19756 0.22664 0.0
H874 H 0.4427 0.20861 0.1804 0.0
H875 H 0.44574 0.18299 0.13888 0.0
H876 H 0.73094 0.17374 0.34222 0.0
H877 H 0.759 0.19437 0.29899 0.0
H878 H 0.78059 0.12769 0.297 0.0
H879 H 0.75273 0.10718 0.34087 0.0
H880 H 0.82757 0.18515 0.28607 0.0
H881 H 0.73266 0.15737 0.21948 0.0
H882 H 0.73367 0.17576 0.25164 0.0
H883 H 0.73024 0.14098 0.25364 0.0
C884 C 0.74201 0.16374 0.33275 0.0
C885 C 0.73988 0.13902 0.34475 0.0
C886 C 0.75776 0.17534 0.30797 0.0
C887 C 0.77142 0.16224 0.2946 0.0
C888 C 0.77 0.13794 0.30696 0.0
H889 H 0.86771 0.22966 0.13362 0.0
H890 H 0.84353 0.19612 0.17324 0.0
C891 C 0.75415 0.12627 0.33187 0.0
C892 C 0.78692 0.17418 0.26762 0.0
H893 H 0.77785 0.19376 0.20113 0.0
C894 C 0.81672 0.18651 0.26724 0.0
C895 C 0.7726 0.17569 0.24308 0.0
C896 C 0.74049 0.16149 0.2418 0.0
C897 C 0.83274 0.20201 0.24348 0.0
C898 C 0.81849 0.20504 0.21974 0.0
C899 C 0.78863 0.19138 0.21951 0.0
C900 C 0.83422 0.22504 0.19643 0.0
C901 C 0.86485 0.21644 0.24433 0.0
C902 C 0.83683 0.25213 0.19662 0.0
C903 C 0.85045 0.27106 0.17426 0.0
C904 C 0.86156 0.26313 0.15129 0.0
C905 C 0.85918 0.23608 0.15116 0.0
C906 C 0.84554 0.21706 0.17368 0.0
H907 H 0.87271 0.21145 0.26412 0.0
H908 H 0.87263 0.20963 0.22572 0.0
H909 H 0.87412 0.23992 0.24282 0.0
H910 H 0.82805 0.25851 0.21398 0.0
H911 H 0.85183 0.29173 0.17464 0.0
H912 H 0.81674 0.56743 0.35826 0.0
H913 H 0.79198 0.57427 0.31811 0.0
H914 H 0.86523 0.6573 0.30247 0.0
H915 H 0.89013 0.6504 0.34284 0.0
H916 H 0.77786 0.61645 0.30551 0.0
H917 H 0.85405 0.61524 0.22657 0.0
H918 H 0.85287 0.60433 0.26306 0.0
H919 H 0.86925 0.64154 0.2543 0.0
C920 C 0.82733 0.58733 0.34654 0.0
C921 C 0.85534 0.60833 0.35337 0.0
C922 C 0.81325 0.59119 0.32358 0.0
C923 C 0.82696 0.61608 0.30703 0.0
C924 C 0.85451 0.6377 0.31464 0.0
H925 H 0.75789 0.63833 0.14465 0.0
H926 H 0.78862 0.64962 0.18695 0.0
C927 C 0.86864 0.63381 0.33766 0.0
C928 C 0.81257 0.61847 0.28121 0.0
H929 H 0.8148 0.61761 0.20856 0.0
C930 C 0.78611 0.61707 0.28431 0.0
C931 C 0.82341 0.61934 0.25358 0.0
C932 C 0.85134 0.61999 0.24898 0.0
C933 C 0.76977 0.61561 0.26052 0.0
C934 C 0.78002 0.61519 0.23296 0.0
C935 C 0.80706 0.61797 0.22977 0.0
C936 C 0.76177 0.60896 0.20747 0.0
C937 C 0.74136 0.61392 0.26506 0.0
C938 C 0.73694 0.58224 0.20488 0.0
C939 C 0.71974 0.57572 0.1808 0.0
C940 C 0.72705 0.59577 0.15883 0.0
C941 C 0.75202 0.62246 0.16123 0.0
C942 C 0.76941 0.62896 0.18537 0.0
H943 H 0.74031 0.62262 0.28615 0.0
H944 H 0.73719 0.62577 0.2482 0.0
H945 H 0.72414 0.59124 0.2642 0.0
H946 H 0.731 0.5663 0.22143 0.0
H947 H 0.70075 0.55487 0.17924 0.0
H948 H 0.54931 0.84388 0.82192 0.0
H949 H 0.55776 0.82085 0.78128 0.0
H950 H 0.63845 0.83903 0.81738 0.0
H951 H 0.63008 0.86253 0.85825 0.0
H952 H 0.63804 0.85211 0.75572 0.0
H953 H 0.55507 0.74232 0.78601 0.0
H954 H 0.54308 0.76786 0.78672 0.0
H955 H 0.57032 0.77153 0.81111 0.0
C956 C 0.56888 0.84302 0.82111 0.0
C957 C 0.58903 0.85476 0.8431 0.0
C958 C 0.57362 0.82978 0.79802 0.0
C959 C 0.59856 0.828 0.79656 0.0
C960 C 0.61901 0.84011 0.81829 0.0
H961 H 0.64167 0.74863 0.65575 0.0
H962 H 0.64667 0.77685 0.69866 0.0
C963 C 0.61419 0.85334 0.84157 0.0
C964 C 0.60279 0.81331 0.77214 0.0
H965 H 0.57164 0.74912 0.738 0.0
C966 C 0.6239 0.8295 0.75196 0.0
C967 C 0.58431 0.78384 0.76749 0.0
C968 C 0.56207 0.76526 0.78909 0.0
C969 C 0.62596 0.81717 0.72638 0.0
C970 C 0.60656 0.78797 0.7212 0.0
C971 C 0.58631 0.77159 0.74198 0.0
C972 C 0.60559 0.7741 0.69379 0.0
C973 C 0.64786 0.83562 0.70451 0.0
C974 C 0.58103 0.76355 0.67683 0.0
C975 C 0.57812 0.7474 0.65264 0.0
C976 C 0.59968 0.74144 0.64507 0.0
C977 C 0.62478 0.75296 0.66133 0.0
C978 C 0.6277 0.76915 0.68565 0.0
H979 H 0.65832 0.85867 0.70994 0.0
H980 H 0.66458 0.82951 0.70313 0.0
H981 H 0.63781 0.83228 0.68319 0.0
H982 H 0.56371 0.76707 0.68285 0.0
H983 H 0.55844 0.73847 0.64058 0.0
H984 H 0.13613 0.77726 0.86601 0.0
H985 H 0.1595 0.81107 0.82637 0.0
H986 H 0.17128 0.74781 0.78233 0.0
H987 H 0.1489 0.7146 0.82182 0.0
H988 H 0.21892 0.82724 0.80087 0.0
H989 H 0.12743 0.7755 0.72613 0.0
H990 H 0.12316 0.77235 0.76437 0.0
H991 H 0.13521 0.7515 0.74545 0.0
C992 C 0.14394 0.77082 0.84789 0.0
C993 C 0.1406 0.74337 0.84674 0.0
C994 C 0.1571 0.78998 0.82532 0.0
C995 C 0.16665 0.78166 0.80136 0.0
C996 C 0.16361 0.7544 0.80047 0.0
H997 H 0.25179 0.82184 0.64582 0.0
H998 H 0.22078 0.80267 0.68743 0.0
C999 C 0.15078 0.73547 0.82297 0.0
C1000 C 0.18048 0.8012 0.77716 0.0
H1001 H 0.1733 0.80592 0.70557 0.0
C1002 C 0.20885 0.8232 0.78012 0.0
C1003 C 0.16717 0.7956 0.75023 0.0
C1004 C 0.13646 0.7726 0.74625 0.0
C1005 C 0.22496 0.83849 0.75631 0.0
C1006 C 0.21205 0.83184 0.72905 0.0
C1007 C 0.18314 0.81095 0.72647 0.0
C1008 C 0.22893 0.84382 0.70271 0.0
C1009 C 0.25615 0.8602 0.76024 0.0
C1010 C 0.24322 0.87326 0.69712 0.0
C1011 C 0.26093 0.88423 0.67325 0.0
C1012 C 0.26436 0.86588 0.6546 0.0
C1013 C 0.24919 0.83638 0.65966 0.0
C1014 C 0.2316 0.82545 0.68348 0.0
H1015 H 0.26395 0.85912 0.78183 0.0
H1016 H 0.26938 0.85699 0.74423 0.0
H1017 H 0.25936 0.88195 0.75722 0.0
H1018 H 0.24105 0.88774 0.71143 0.0
H1019 H 0.27234 0.90707 0.66961 0.0
H1020 H 0.12307 0.41607 0.68108 0.0
H1021 H 0.14523 0.40423 0.71998 0.0
H1022 H 0.15811 0.34832 0.66423 0.0
H1023 H 0.13581 0.36028 0.62498 0.0
H1024 H 0.13323 0.35252 0.74588 0.0
H1025 H 0.23892 0.40562 0.6915 0.0
H1026 H 0.20957 0.40983 0.67951 0.0
H1027 H 0.20979 0.37736 0.67225 0.0
C1028 C 0.12998 0.40072 0.67729 0.0
C1029 C 0.12764 0.38893 0.65015 0.0
C1030 C 0.14278 0.39409 0.69948 0.0
C1031 C 0.15358 0.37565 0.69491 0.0
C1032 C 0.15028 0.36293 0.66807 0.0
H1033 H 0.27057 0.36246 0.81587 0.0
H1034 H 0.23624 0.34923 0.77657 0.0
C1035 C 0.13749 0.36964 0.64577 0.0
C1036 C 0.16972 0.37139 0.718 0.0
H1037 H 0.23727 0.38905 0.73789 0.0
C1038 C 0.1559 0.36011 0.74403 0.0
C1039 C 0.19928 0.38127 0.7155 0.0
C1040 C 0.21543 0.3944 0.6883 0.0
C1041 C 0.17107 0.35941 0.76795 0.0
C1042 C 0.20086 0.37059 0.76581 0.0
C1043 C 0.2144 0.38045 0.73941 0.0
C1044 C 0.21893 0.3754 0.7912 0.0
C1045 C 0.15522 0.3473 0.79547 0.0
C1046 C 0.22046 0.39438 0.81239 0.0
C1047 C 0.24011 0.4021 0.83456 0.0
C1048 C 0.25862 0.39099 0.83594 0.0
C1049 C 0.25652 0.37132 0.81522 0.0
C1050 C 0.23692 0.3637 0.79288 0.0
H1051 H 0.13233 0.33171 0.79156 0.0
H1052 H 0.16476 0.33666 0.80782 0.0
H1053 H 0.15637 0.36491 0.80858 0.0
H1054 H 0.20736 0.40428 0.81108 0.0
H1055 H 0.24177 0.41789 0.84976 0.0
H1056 H 0.51951 0.23248 0.99202 0.0
H1057 H 0.54792 0.28442 0.99746 0.0
H1058 H 0.47285 0.28617 0.02539 0.0
H1059 H 0.44421 0.2342 0.01901 0.0
H1060 H 0.5087 0.33324 0.99271 0.0
H1061 H 0.56929 0.3154 0.07776 0.0
H1062 H 0.57101 0.30097 0.04393 0.0
H1063 H 0.53736 0.28665 0.06216 0.0
C1064 C 0.50902 0.24416 -0.00149 0.0
C1065 C 0.47984 0.22961 0.00518 0.0
C1066 C 0.52525 0.2737 0.00191 0.0
C1067 C 0.51264 0.28899 0.01264 0.0
C1068 C 0.48302 0.27471 0.0173 0.0
H1069 H 0.57467 0.4577 0.08291 0.0
H1070 H 0.54648 0.40766 0.06863 0.0
C1071 C 0.46667 0.24514 0.01352 0.0
C1072 C 0.53062 0.31931 0.021 0.0
H1073 H 0.58549 0.36346 0.06489 0.0
C1074 C 0.52546 0.33986 0.0085 0.0
C1075 C 0.55231 0.32783 0.04186 0.0
C1076 C 0.55769 0.30655 0.05743 0.0
C1077 C 0.54176 0.3688 0.01599 0.0
C1078 C 0.5636 0.37726 0.03654 0.0
C1079 C 0.56881 0.3568 0.049 0.0
C1080 C 0.58096 0.40726 0.04579 0.0
C1081 C 0.53576 0.39025 0.00175 0.0
C1082 C 0.60988 0.42324 0.03832 0.0
C1083 C 0.62611 0.45188 0.0464 0.0
C1084 C 0.61371 0.46487 0.06237 0.0
C1085 C 0.58492 0.44839 0.07063 0.0
C1086 C 0.5687 0.41986 0.06234 0.0
H1087 H 0.52169 0.38112 0.98288 0.0
H1088 H 0.52507 0.39739 0.01715 0.0
H1089 H 0.556 0.40933 0.99502 0.0
H1090 H 0.61972 0.4137 0.02574 0.0
H1091 H 0.64821 0.46392 0.03973 0.0
H1092 H 0.75803 0.22035 0.98239 0.0
H1093 H 0.70619 0.19055 0.98947 0.0
H1094 H 0.71717 0.21203 0.07884 0.0
H1095 H 0.76856 0.23929 0.07221 0.0
H1096 H 0.67746 0.16087 0.07402 0.0
H1097 H 0.65605 0.224 0.9947 0.0
H1098 H 0.67247 0.20522 0.97986 0.0
H1099 H 0.69172 0.23349 0.00517 0.0
C1100 C 0.74922 0.2183 0.00352 0.0
C1101 C 0.76704 0.23321 0.02651 0.0
C1102 C 0.71963 0.20159 0.00753 0.0
C1103 C 0.70754 0.2 0.03449 0.0
C1104 C 0.72575 0.21325 0.05772 0.0
H1105 H 0.54309 0.1803 0.06986 0.0
H1106 H 0.59337 0.19613 0.061 0.0
C1107 C 0.75515 0.22924 0.05384 0.0
C1108 C 0.67613 0.18577 0.0389 0.0
H1109 H 0.61641 0.18721 0.01814 0.0
C1110 C 0.6641 0.16662 0.06176 0.0
C1111 C 0.65869 0.19347 0.02313 0.0
C1112 C 0.67038 0.21536 -0.00046 0.0
C1113 C 0.6356 0.15592 0.07006 0.0
C1114 C 0.61808 0.16335 0.05407 0.0
C1115 C 0.6298 0.18156 0.03049 0.0
C1116 C 0.58792 0.15362 0.06189 0.0
C1117 C 0.62521 0.13805 0.09675 0.0
C1118 C 0.56809 0.12453 0.06596 0.0
C1119 C 0.53956 0.11564 0.07209 0.0
C1120 C 0.53009 0.13551 0.07307 0.0
C1121 C 0.54986 0.16456 0.06916 0.0
C1122 C 0.57855 0.17356 0.06394 0.0
H1123 H 0.64321 0.14213 0.11107 0.0
H1124 H 0.6101 0.14235 0.10878 0.0
H1125 H 0.61417 0.11512 0.09088 0.0
H1126 H 0.57443 0.10858 0.06364 0.0
H1127 H 0.52462 0.09305 0.07465 0.0
H1128 H 0.83312 0.36738 0.02843 0.0
H1129 H 0.81561 0.40006 0.01807 0.0
H1130 H 0.85893 0.44973 0.09235 0.0
H1131 H 0.87696 0.41725 0.10277 0.0
H1132 H 0.78213 0.41426 0.04905 0.0
H1133 H 0.88803 0.51012 0.03022 0.0
H1134 H 0.88311 0.47464 0.03257 0.0
H1135 H 0.88481 0.49392 0.06438 0.0
C1136 C 0.83871 0.38503 0.04282 0.0
C1137 C 0.85642 0.38963 0.06651 0.0
C1138 C 0.8288 0.40382 0.03672 0.0
C1139 C 0.83644 0.42764 0.05409 0.0
C1140 C 0.85339 0.43187 0.07824 0.0
H1141 H 0.78433 0.55319 0.06575 0.0
H1142 H 0.80821 0.52498 0.07023 0.0
C1143 C 0.86345 0.41314 0.08432 0.0
C1144 C 0.82612 0.44765 0.04708 0.0
H1145 H 0.8482 0.51756 0.03252 0.0
C1146 C 0.79657 0.4368 0.04521 0.0
C1147 C 0.84505 0.47703 0.04193 0.0
C1148 C 0.87702 0.48962 0.04208 0.0
C1149 C 0.7854 0.45465 0.03909 0.0
C1150 C 0.8043 0.48407 0.03442 0.0
C1151 C 0.83384 0.49495 0.03603 0.0
C1152 C 0.7935 0.50397 0.02953 0.0
C1153 C 0.75343 0.4421 0.03842 0.0
C1154 C 0.77832 0.50225 0.00465 0.0
C1155 C 0.76477 0.51841 0.00205 0.0
C1156 C 0.76615 0.53624 0.02439 0.0
C1157 C 0.78282 0.53928 0.04843 0.0
C1158 C 0.79647 0.52329 0.05096 0.0
H1159 H 0.74191 0.42008 0.04719 0.0
H1160 H 0.74717 0.45562 0.05074 0.0
H1161 H 0.74641 0.44133 0.01609 0.0
H1162 H 0.77607 0.48762 0.98778 0.0
H1163 H 0.75196 0.51578 0.98336 0.0
H1164 H 0.76653 0.48755 0.49578 0.0
H1165 H 0.71435 0.46204 0.49244 0.0
H1166 H 0.71589 0.54227 0.48562 0.0
H1167 H 0.76831 0.56797 0.48908 0.0
H1168 H 0.66862 0.47136 0.52519 0.0
H1169 H 0.68099 0.49211 0.40832 0.0
H1170 H 0.70915 0.49289 0.42963 0.0
H1171 H 0.70131 0.52129 0.43242 0.0
C1172 C 0.75565 0.49971 0.49416 0.0
C1173 C 0.77125 0.52962 0.49239 0.0
C1174 C 0.72593 0.48517 0.49234 0.0
C1175 C 0.71145 0.50033 0.48856 0.0
C1176 C 0.72683 0.53029 0.4885 0.0
H1177 H 0.53754 0.43128 0.42609 0.0
H1178 H 0.58689 0.46319 0.44052 0.0
C1179 C 0.75664 0.5449 0.49059 0.0
C1180 C 0.68068 0.48456 0.4818 0.0
H1181 H 0.63457 0.46297 0.42567 0.0
C1182 C 0.66103 0.46967 0.50352 0.0
C1183 C 0.67105 0.48253 0.4535 0.0
C1184 C 0.6916 0.4979 0.42946 0.0
C1185 C 0.63179 0.45253 0.49757 0.0
C1186 C 0.62224 0.44963 0.46905 0.0
C1187 C 0.64193 0.46512 0.44748 0.0
C1188 C 0.59207 0.43019 0.4609 0.0
C1189 C 0.61143 0.43792 0.52192 0.0
C1190 C 0.57871 0.40091 0.46711 0.0
C1191 C 0.5504 0.38259 0.45904 0.0
C1192 C 0.53507 0.39314 0.44414 0.0
C1193 C 0.54874 0.42239 0.4374 0.0
C1194 C 0.57694 0.44071 0.44573 0.0
H1195 H 0.6204 0.44914 0.5424 0.0
H1196 H 0.59063 0.4368 0.51819 0.0
H1197 H 0.60755 0.41584 0.52409 0.0
H1198 H 0.59022 0.39217 0.47807 0.0
H1199 H 0.54056 0.36019 0.46449 0.0
H1200 H 0.57028 0.09756 0.40453 0.0
H1201 H 0.53561 0.1136 0.41153 0.0
H1202 H 0.60445 0.1991 0.4275 0.0
H1203 H 0.63908 0.18345 0.42006 0.0
H1204 H 0.52922 0.13729 0.46201 0.0
H1205 H 0.55417 0.21218 0.37213 0.0
H1206 H 0.56554 0.18598 0.37295 0.0
H1207 H 0.58548 0.21924 0.39175 0.0
C1208 C 0.57805 0.11994 0.40881 0.0
C1209 C 0.60746 0.13925 0.41187 0.0
C1210 C 0.55819 0.12899 0.41299 0.0
C1211 C 0.56746 0.15756 0.41983 0.0
C1212 C 0.59683 0.17705 0.4218 0.0
H1213 H 0.51383 0.26962 0.48146 0.0
H1214 H 0.53711 0.24232 0.46891 0.0
C1215 C 0.61662 0.16802 0.41777 0.0
C1216 C 0.54673 0.16688 0.42704 0.0
H1217 H 0.52978 0.21827 0.41195 0.0
C1218 C 0.52889 0.15464 0.45079 0.0
C1219 C 0.54629 0.18941 0.41227 0.0
C1220 C 0.56369 0.20227 0.38568 0.0
C1221 C 0.51189 0.16555 0.46116 0.0
C1222 C 0.5127 0.18909 0.44725 0.0
C1223 C 0.52948 0.20039 0.42274 0.0
C1224 C 0.49783 0.20367 0.45857 0.0
C1225 C 0.49426 0.15284 0.48763 0.0
C1226 C 0.46795 0.19064 0.45772 0.0
C1227 C 0.45459 0.20627 0.46492 0.0
C1228 C 0.47104 0.23512 0.4727 0.0
C1229 C 0.50076 0.24752 0.47512 0.0
C1230 C 0.51404 0.23197 0.46799 0.0
H1231 H 0.49886 0.13712 0.49799 0.0
H1232 H 0.4983 0.16992 0.50317 0.0
H1233 H 0.47127 0.14186 0.48199 0.0
H1234 H 0.45512 0.16889 0.45025 0.0
H1235 H 0.43164 0.19635 0.46278 0.0
H1236 H 0.90407 0.48117 0.41919 0.0
H1237 H 0.88729 0.43089 0.42943 0.0
H1238 H 0.8011 0.41513 0.4373 0.0
H1239 H 0.81812 0.46569 0.42855 0.0
H1240 H 0.81249 0.39146 0.47958 0.0
H1241 H 0.84743 0.36227 0.38048 0.0
H1242 H 0.87626 0.39094 0.39944 0.0
H1243 H 0.84837 0.39585 0.38447 0.0
C1244 C 0.88147 0.46681 0.42259 0.0
C1245 C 0.86232 0.47721 0.42291 0.0
C1246 C 0.87188 0.43805 0.42839 0.0
C1247 C 0.84283 0.41902 0.43374 0.0
C1248 C 0.82362 0.42935 0.43329 0.0
H1249 H 0.74796 0.23845 0.42261 0.0
H1250 H 0.77508 0.2899 0.41656 0.0
C1251 C 0.8333 0.4582 0.42817 0.0
C1252 C 0.83236 0.38859 0.44097 0.0
H1253 H 0.82889 0.32742 0.41685 0.0
C1254 C 0.81605 0.37743 0.46583 0.0
C1255 C 0.83704 0.37029 0.42307 0.0
C1256 C 0.85299 0.38035 0.39525 0.0
C1257 C 0.80344 0.34837 0.47279 0.0
C1258 C 0.8082 0.33007 0.45495 0.0
C1259 C 0.8254 0.34147 0.43064 0.0
C1260 C 0.79291 0.2986 0.45909 0.0
C1261 C 0.78398 0.33739 0.49836 0.0
C1262 C 0.79427 0.28604 0.48485 0.0
C1263 C 0.77783 0.25639 0.48868 0.0
C1264 C 0.75999 0.23897 0.46676 0.0
C1265 C 0.76027 0.25145 0.44045 0.0
C1266 C 0.77621 0.28089 0.43679 0.0
H1267 H 0.77729 0.35272 0.50559 0.0
H1268 H 0.76452 0.3167 0.49359 0.0
H1269 H 0.79542 0.33409 0.51623 0.0
H1270 H 0.80778 0.29914 0.50204 0.0
H1271 H 0.7786 0.24718 0.50889 0.0
H1272 H 0.42424 0.53631 0.8875 0.0
H1273 H 0.45511 0.58656 0.90024 0.0
H1274 H 0.38638 0.58493 0.94815 0.0
H1275 H 0.35532 0.53471 0.93565 0.0
H1276 H 0.42017 0.63475 0.90929 0.0
H1277 H 0.48533 0.61154 0.98482 0.0
H1278 H 0.47952 0.59618 0.94976 0.0
H1279 H 0.44999 0.58456 0.97377 0.0
C1280 C 0.41551 0.54673 0.90037 0.0
C1281 C 0.38734 0.53146 0.91067 0.0
C1282 C 0.43327 0.57536 0.90781 0.0
C1283 C 0.42309 0.58918 0.92549 0.0
C1284 C 0.39463 0.57446 0.93467 0.0
H1285 H 0.48421 0.75769 0.99366 0.0
H1286 H 0.45718 0.7066 0.98279 0.0
C1287 C 0.37692 0.54581 0.92745 0.0
C1288 C 0.44216 0.61888 0.93488 0.0
H1289 H 0.49805 0.6598 0.97912 0.0
C1290 C 0.43723 0.64029 0.92451 0.0
C1291 C 0.46447 0.62591 0.9546 0.0
C1292 C 0.47021 0.60341 0.96662 0.0
C1293 C 0.45411 0.66873 0.93331 0.0
C1294 C 0.47592 0.6757 0.95369 0.0
C1295 C 0.48118 0.65433 0.9637 0.0
C1296 C 0.49326 0.70513 0.96483 0.0
C1297 C 0.44866 0.69109 0.92033 0.0
C1298 C 0.52288 0.72067 0.96026 0.0
C1299 C 0.53847 0.74974 0.96708 0.0
C1300 C 0.5245 0.76346 0.97842 0.0
C1301 C 0.49533 0.74742 0.9849 0.0
C1302 C 0.47987 0.7184 0.97842 0.0
H1303 H 0.43726 0.6839 0.89966 0.0
H1304 H 0.4351 0.69532 0.93495 0.0
H1305 H 0.46893 0.71144 0.91685 0.0
H1306 H 0.53363 0.71072 0.95 0.0
H1307 H 0.56092 0.76187 0.96167 0.0
H1308 H 0.2321 0.72333 0.00117 0.0
H1309 H 0.28412 0.74842 0.99666 0.0
H1310 H 0.2834 0.82386 0.96804 0.0
H1311 H 0.23128 0.79889 0.97348 0.0
H1312 H 0.30889 0.76607 0.94556 0.0
H1313 H 0.35271 0.85842 0.01948 0.0
H1314 H 0.31671 0.82877 0.02244 0.0
H1315 H 0.32528 0.8562 0.99634 0.0
C1316 C 0.24325 0.7456 0.99492 0.0
C1317 C 0.22798 0.75937 0.98783 0.0
C1318 C 0.27288 0.75986 0.9922 0.0
C1319 C 0.28769 0.78805 0.98209 0.0
C1320 C 0.27253 0.80234 0.97644 0.0
H1321 H 0.45993 0.88781 0.91309 0.0
H1322 H 0.40973 0.8695 0.9254 0.0
C1323 C 0.24281 0.78812 0.97953 0.0
C1324 C 0.31817 0.80085 0.97409 0.0
H1325 H 0.38492 0.85777 0.98526 0.0
C1326 C 0.3255 0.78604 0.9544 0.0
C1327 C 0.33979 0.82707 0.98539 0.0
C1328 C 0.33334 0.84345 0.00728 0.0
C1329 C 0.35382 0.79662 0.94579 0.0
C1330 C 0.3754 0.82265 0.95723 0.0
C1331 C 0.36818 0.83779 0.97656 0.0
C1332 C 0.40573 0.83388 0.94995 0.0
C1333 C 0.3605 0.78 0.92437 0.0
C1334 C 0.41994 0.81986 0.95978 0.0
C1335 C 0.44855 0.83022 0.95287 0.0
C1336 C 0.46344 0.85473 0.93584 0.0
C1337 C 0.44903 0.86868 0.92596 0.0
C1338 C 0.42043 0.85841 0.9331 0.0
H1339 H 0.34099 0.76343 0.91346 0.0
H1340 H 0.37574 0.79452 0.90811 0.0
H1341 H 0.37064 0.76923 0.93545 0.0
H1342 H 0.40893 0.80101 0.973 0.0
H1343 H 0.45902 0.81915 0.96113 0.0
H1344 H 0.12534 0.58786 0.88687 0.0
H1345 H 0.14531 0.55664 0.89505 0.0
H1346 H 0.19176 0.60741 0.96765 0.0
H1347 H 0.17229 0.63882 0.95955 0.0
H1348 H 0.22427 0.59345 0.93366 0.0
H1349 H 0.12015 0.49731 0.95848 0.0
H1350 H 0.12135 0.51311 0.92452 0.0
H1351 H 0.12462 0.53264 0.95659 0.0
C1352 C 0.13998 0.59252 0.90444 0.0
C1353 C 0.14717 0.61587 0.92255 0.0
C1354 C 0.15118 0.57451 0.90923 0.0
C1355 C 0.16954 0.57938 0.93232 0.0
C1356 C 0.17748 0.60317 0.94982 0.0
H1357 H 0.25926 0.49588 0.00059 0.0
H1358 H 0.23591 0.52463 0.99523 0.0
C1359 C 0.1664 0.6212 0.94504 0.0
C1360 C 0.18064 0.55982 0.93835 0.0
H1361 H 0.16026 0.4907 0.95484 0.0
C1362 C 0.21029 0.57102 0.93843 0.0
C1363 C 0.16232 0.53059 0.94471 0.0
C1364 C 0.13035 0.51768 0.94636 0.0
C1365 C 0.22214 0.55365 0.9441 0.0
C1366 C 0.20383 0.52441 0.95022 0.0
C1367 C 0.17418 0.51317 0.95022 0.0
C1368 C 0.21519 0.505 0.95546 0.0
C1369 C 0.25413 0.56655 0.94286 0.0
C1370 C 0.21017 0.48367 0.93557 0.0
C1371 C 0.22336 0.4673 0.93866 0.0
C1372 C 0.24168 0.47197 0.96172 0.0
C1373 C 0.24528 0.49204 0.98259 0.0
C1374 C 0.23217 0.50855 0.97943 0.0
H1375 H 0.26475 0.58785 0.93246 0.0
H1376 H 0.26263 0.56914 0.96482 0.0
H1377 H 0.25989 0.55234 0.93111 0.0
H1378 H 0.19688 0.48042 0.91711 0.0
H1379 H 0.21973 0.4514 0.92269 0.0
H1380 H 0.47253 0.56866 0.58241 0.0
H1381 H 0.42287 0.53386 0.57113 0.0
H1382 H 0.40656 0.60255 0.55276 0.0
H1383 H 0.4564 0.63733 0.56286 0.0
H1384 H 0.37345 0.52175 0.59187 0.0
H1385 H 0.37797 0.55744 0.48106 0.0
H1386 H 0.40955 0.56988 0.50268 0.0
H1387 H 0.38799 0.58662 0.50512 0.0
C1388 C 0.45828 0.57633 0.57621 0.0
C1389 C 0.46841 0.60573 0.57321 0.0
C1390 C 0.42994 0.55642 0.56961 0.0
C1391 C 0.4112 0.56556 0.56018 0.0
C1392 C 0.42089 0.59495 0.55887 0.0
H1393 H 0.23238 0.48544 0.57101 0.0
H1394 H 0.28362 0.5079 0.57746 0.0
C1395 C 0.44931 0.61484 0.56497 0.0
C1396 C 0.38138 0.54452 0.5522 0.0
H1397 H 0.33079 0.52993 0.50141 0.0
C1398 C 0.36425 0.52329 0.57189 0.0
C1399 C 0.36951 0.54575 0.52572 0.0
C1400 C 0.38735 0.56594 0.50233 0.0
C1401 C 0.33517 0.50458 0.56665 0.0
C1402 C 0.32268 0.50786 0.5415 0.0
C1403 C 0.3402 0.52775 0.52095 0.0
C1404 C 0.29129 0.49304 0.53743 0.0
C1405 C 0.31815 0.48169 0.58832 0.0
C1406 C 0.27845 0.47787 0.51231 0.0
C1407 C 0.24896 0.46575 0.50811 0.0
C1408 C 0.2321 0.46904 0.52879 0.0
C1409 C 0.24495 0.48354 0.55415 0.0
C1410 C 0.27423 0.49581 0.55819 0.0
H1411 H 0.33178 0.47467 0.59931 0.0
H1412 H 0.30991 0.49044 0.60475 0.0
H1413 H 0.29983 0.46277 0.57839 0.0
H1414 H 0.29124 0.47558 0.49593 0.0
H1415 H 0.23944 0.45427 0.48858 0.0
H1416 H 0.42724 0.89008 0.59361 0.0
H1417 H 0.45819 0.8704 0.58216 0.0
H1418 H 0.38907 0.80114 0.53669 0.0
H1419 H 0.35807 0.82062 0.54771 0.0
H1420 H 0.42308 0.78755 0.57918 0.0
H1421 H 0.48745 0.86948 0.49748 0.0
H1422 H 0.48133 0.88131 0.53123 0.0
H1423 H 0.45202 0.86174 0.50739 0.0
C1424 C 0.4185 0.87048 0.58145 0.0
C1425 C 0.39012 0.85689 0.57163 0.0
C1426 C 0.43629 0.85943 0.57476 0.0
C1427 C 0.42593 0.83456 0.55832 0.0
C1428 C 0.39744 0.82046 0.54928 0.0
H1429 H 0.48091 0.71894 0.50078 0.0
H1430 H 0.4554 0.74488 0.50987 0.0
C1431 C 0.37973 0.83159 0.55571 0.0
C1432 C 0.44463 0.82301 0.55047 0.0
H1433 H 0.49849 0.83306 0.5055 0.0
C1434 C 0.43965 0.79751 0.56317 0.0
C1435 C 0.46632 0.83629 0.52975 0.0
C1436 C 0.4722 0.86367 0.51546 0.0
C1437 C 0.45573 0.78473 0.55558 0.0
C1438 C 0.47674 0.79736 0.53401 0.0
C1439 C 0.48219 0.82329 0.52179 0.0
C1440 C 0.49291 0.78361 0.52388 0.0
C1441 C 0.45028 0.75799 0.57104 0.0
C1442 C 0.52274 0.79751 0.52671 0.0
C1443 C 0.53742 0.78289 0.52084 0.0
C1444 C 0.52236 0.75424 0.5122 0.0
C1445 C 0.49287 0.74105 0.50746 0.0
C1446 C 0.4783 0.75573 0.51295 0.0
H1447 H 0.44013 0.75609 0.59209 0.0
H1448 H 0.43555 0.73905 0.55822 0.0
H1449 H 0.47039 0.75757 0.57432 0.0
H1450 H 0.53444 0.8191 0.53489 0.0
H1451 H 0.56016 0.79331 0.52487 0.0
H1452 H 0.19845 0.76272 0.52916 0.0
H1453 H 0.17017 0.71087 0.53745 0.0
H1454 H 0.24755 0.70646 0.53935 0.0
H1455 H 0.27568 0.75791 0.53093 0.0
H1456 H 0.19903 0.66257 0.50506 0.0
H1457 H 0.17146 0.6737 0.61686 0.0
H1458 H 0.16547 0.69328 0.58931 0.0
H1459 H 0.20124 0.70255 0.59846 0.0
C1460 C 0.20928 0.75053 0.53106 0.0
C1461 C 0.23921 0.76425 0.52992 0.0
C1462 C 0.19319 0.72107 0.53597 0.0
C1463 C 0.20688 0.70502 0.53945 0.0
C1464 C 0.23665 0.71856 0.537 0.0
H1465 H 0.18073 0.53916 0.57284 0.0
H1466 H 0.1977 0.58946 0.56321 0.0
C1467 C 0.25268 0.74791 0.53234 0.0
C1468 C 0.19059 0.67419 0.54619 0.0
H1469 H 0.15754 0.62736 0.60082 0.0
C1470 C 0.18967 0.65479 0.52587 0.0
C1471 C 0.17831 0.6642 0.57333 0.0
C1472 C 0.17915 0.6844 0.59593 0.0
C1473 C 0.17736 0.62565 0.53219 0.0
C1474 C 0.16637 0.61584 0.55981 0.0
C1475 C 0.16621 0.63503 0.57977 0.0
C1476 C 0.15637 0.586 0.56859 0.0
C1477 C 0.17641 0.60563 0.5093 0.0
C1478 C 0.12781 0.56773 0.57633 0.0
C1479 C 0.11806 0.5389 0.5821 0.0
C1480 C 0.13676 0.52796 0.5802 0.0
C1481 C 0.1657 0.54678 0.57408 0.0
C1482 C 0.17541 0.57552 0.56844 0.0
H1483 H 0.17798 0.61467 0.4877 0.0
H1484 H 0.19473 0.60204 0.5121 0.0
H1485 H 0.15642 0.58466 0.51061 0.0
H1486 H 0.11285 0.5755 0.57679 0.0
H1487 H 0.09561 0.52495 0.58663 0.0
loop_
_geom_bond_atom_site_label_1
_geom_bond_atom_site_label_2
_geom_bond_distance
_geom_bond_site_symmetry_2
_ccdc_geom_bond_type
Co0 O3 1.970 . S
Co0 N17 1.989 . S
Co0 O25 1.967 . S
Co0 O32 1.920 . S
Co1 O4 1.966 . S
Co1 N10 2.022 . S
Co1 N18 1.993 . S
Co1 O26 1.941 . S
C2 O3 1.258 . S
C2 O4 1.263 . S
O3 Co0 1.970 . S
O3 C2 1.258 . S
O4 Co1 1.966 . S
O4 C2 1.263 . S
C5 O6 1.235 . S
C5 O32 1.289 . S
O6 C5 1.235 . S
C7 C9 1.400 . S
C7 N10 1.351 . S
C7 C12 1.501 . S
C8 C9 1.387 . S
C8 N11 1.341 . S
C9 C7 1.400 . S
C9 C8 1.387 . S
N10 Co1 2.022 . S
N10 C7 1.351 . S
N10 N11 1.365 . S
N11 C8 1.341 . S
N11 N10 1.365 . S
N11 H31 0.862 . S
C12 C7 1.501 . S
C12 H13 0.961 . S
C12 H14 0.961 . S
C12 H15 0.984 . S
H13 C12 0.961 . S
H14 C12 0.961 . S
H15 C12 0.984 . S
C16 N17 1.342 . S
C16 C20 1.401 . S
C16 C21 1.499 . S
N17 Co0 1.989 . S
N17 C16 1.342 . S
N17 N18 1.388 . S
N18 Co1 1.993 . S
N18 N17 1.388 . S
N18 C19 1.346 . S
C19 N18 1.346 . S
C19 C20 1.396 . S
C19 C29 1.510 . S
C20 C16 1.401 . S
C20 C19 1.396 . S
C21 C16 1.499 . S
C21 H22 0.959 . S
C21 H23 0.960 . S
C21 H24 0.961 . S
H22 C21 0.959 . S
H23 C21 0.960 . S
H24 C21 0.961 . S
O25 Co0 1.967 . S
O25 C33 1.258 . S
O26 Co1 1.941 . S
O26 C33 1.266 . S
H27 C29 0.959 . S
H28 C29 0.961 . S
C29 C19 1.510 . S
C29 H27 0.959 . S
C29 H28 0.961 . S
C29 H30 0.960 . S
H30 C29 0.960 . S
H31 N11 0.862 . S
O32 Co0 1.920 . S
O32 C5 1.289 . S
C33 O25 1.258 . S
C33 O26 1.266 . S
Co34 O37 1.970 . S
Co34 N51 1.989 . S
Co34 O59 1.967 . S
Co34 O66 1.920 . S
Co35 O38 1.966 . S
Co35 N44 2.022 . S
Co35 N52 1.993 . S
Co35 O60 1.941 . S
C36 O37 1.258 . S
C36 O38 1.263 . S
O37 Co34 1.970 . S
O37 C36 1.258 . S
O38 Co35 1.966 . S
O38 C36 1.263 . S
C39 O40 1.235 . S
C39 O66 1.289 . S
O40 C39 1.235 . S
C41 C43 1.400 . S
C41 N44 1.351 . S
C41 C46 1.501 . S
C42 C43 1.387 . S
C42 N45 1.341 . S
C43 C41 1.400 . S
C43 C42 1.387 . S
N44 Co35 2.022 . S
N44 C41 1.351 . S
N44 N45 1.365 . S
N45 C42 1.341 . S
N45 N44 1.365 . S
N45 H65 0.862 . S
C46 C41 1.501 . S
C46 H47 0.961 . S
C46 H48 0.961 . S
C46 H49 0.984 . S
H47 C46 0.961 . S
H48 C46 0.961 . S
H49 C46 0.984 . S
C50 N51 1.342 . S
C50 C54 1.401 . S
C50 C55 1.499 . S
N51 Co34 1.989 . S
N51 C50 1.342 . S
N51 N52 1.388 . S
N52 Co35 1.993 . S
N52 N51 1.388 . S
N52 C53 1.346 . S
C53 N52 1.346 . S
C53 C54 1.396 . S
C53 C63 1.510 . S
C54 C50 1.401 . S
C54 C53 1.396 . S
C55 C50 1.499 . S
C55 H56 0.959 . S
C55 H57 0.960 . S
C55 H58 0.961 . S
H56 C55 0.959 . S
H57 C55 0.960 . S
H58 C55 0.961 . S
O59 Co34 1.967 . S
O59 C67 1.258 . S
O60 Co35 1.941 . S
O60 C67 1.266 . S
H61 C63 0.959 . S
H62 C63 0.961 . S
C63 C53 1.510 . S
C63 H61 0.959 . S
C63 H62 0.961 . S
C63 H64 0.960 . S
H64 C63 0.960 . S
H65 N45 0.862 . S
O66 Co34 1.920 . S
O66 C39 1.289 . S
C67 O59 1.258 . S
C67 O60 1.266 . S
Co68 O71 1.970 . S
Co68 N85 1.989 . S
Co68 O93 1.967 . S
Co68 O100 1.920 . S
Co69 O72 1.966 . S
Co69 N78 2.022 . S
Co69 N86 1.993 . S
Co69 O94 1.941 . S
C70 O71 1.258 . S
C70 O72 1.263 . S
O71 Co68 1.970 . S
O71 C70 1.258 . S
O72 Co69 1.966 . S
O72 C70 1.263 . S
C73 O74 1.235 . S
C73 O100 1.289 . S
O74 C73 1.235 . S
C75 C77 1.400 . S
C75 N78 1.351 . S
C75 C80 1.501 . S
C76 C77 1.387 . S
C76 N79 1.341 . S
C77 C75 1.400 . S
C77 C76 1.387 . S
N78 Co69 2.022 . S
N78 C75 1.351 . S
N78 N79 1.365 . S
N79 C76 1.341 . S
N79 N78 1.365 . S
N79 H99 0.862 . S
C80 C75 1.501 . S
C80 H81 0.961 . S
C80 H82 0.961 . S
C80 H83 0.984 . S
H81 C80 0.961 . S
H82 C80 0.961 . S
H83 C80 0.984 . S
C84 N85 1.342 . S
C84 C88 1.401 . S
C84 C89 1.499 . S
N85 Co68 1.989 . S
N85 C84 1.342 . S
N85 N86 1.388 . S
N86 Co69 1.993 . S
N86 N85 1.388 . S
N86 C87 1.346 . S
C87 N86 1.346 . S
C87 C88 1.396 . S
C87 C97 1.510 . S
C88 C84 1.401 . S
C88 C87 1.396 . S
C89 C84 1.499 . S
C89 H90 0.959 . S
C89 H91 0.960 . S
C89 H92 0.961 . S
H90 C89 0.959 . S
H91 C89 0.960 . S
H92 C89 0.961 . S
O93 Co68 1.967 . S
O93 C101 1.258 . S
O94 Co69 1.941 . S
O94 C101 1.266 . S
H95 C97 0.959 . S
H96 C97 0.961 . S
C97 C87 1.510 . S
C97 H95 0.959 . S
C97 H96 0.961 . S
C97 H98 0.960 . S
H98 C97 0.960 . S
H99 N79 0.862 . S
O100 Co68 1.920 . S
O100 C73 1.289 . S
C101 O93 1.258 . S
C101 O94 1.266 . S
Co102 O105 1.970 . S
Co102 N119 1.989 . S
Co102 O127 1.967 . S
Co102 O134 1.920 . S
Co103 O106 1.966 . S
Co103 N112 2.022 . S
Co103 N120 1.993 . S
Co103 O128 1.941 . S
C104 O105 1.258 . S
C104 O106 1.263 . S
O105 Co102 1.970 . S
O105 C104 1.258 . S
O106 Co103 1.966 . S
O106 C104 1.263 . S
C107 O108 1.235 . S
C107 O134 1.289 . S
O108 C107 1.235 . S
C109 C111 1.400 . S
C109 N112 1.351 . S
C109 C114 1.501 . S
C110 C111 1.387 . S
C110 N113 1.341 . S
C111 C109 1.400 . S
C111 C110 1.387 . S
N112 Co103 2.022 . S
N112 C109 1.351 . S
N112 N113 1.365 . S
N113 C110 1.341 . S
N113 N112 1.365 . S
N113 H133 0.862 . S
C114 C109 1.501 . S
C114 H115 0.961 . S
C114 H116 0.961 . S
C114 H117 0.960 . S
H115 C114 0.961 . S
H116 C114 0.961 . S
H117 C114 0.960 . S
C118 N119 1.342 . S
C118 C122 1.401 . S
C118 C123 1.499 . S
N119 Co102 1.989 . S
N119 C118 1.342 . S
N119 N120 1.388 . S
N120 Co103 1.993 . S
N120 N119 1.388 . S
N120 C121 1.346 . S
C121 N120 1.346 . S
C121 C122 1.396 . S
C121 C131 1.510 . S
C122 C118 1.401 . S
C122 C121 1.396 . S
C123 C118 1.499 . S
C123 H124 0.959 . S
C123 H125 0.960 . S
C123 H126 0.961 . S
H124 C123 0.959 . S
H125 C123 0.960 . S
H126 C123 0.961 . S
O127 Co102 1.967 . S
O127 C135 1.258 . S
O128 Co103 1.941 . S
O128 C135 1.266 . S
H129 C131 0.959 . S
H130 C131 0.961 . S
C131 C121 1.510 . S
C131 H129 0.959 . S
C131 H130 0.961 . S
C131 H132 0.960 . S
H132 C131 0.960 . S
H133 N113 0.862 . S
O134 Co102 1.920 . S
O134 C107 1.289 . S
C135 O127 1.258 . S
C135 O128 1.266 . S
Co136 O139 1.970 . S
Co136 N153 1.989 . S
Co136 O161 1.967 . S
Co136 O168 1.920 . S
Co137 O140 1.966 . S
Co137 N146 2.022 . S
Co137 N154 1.993 . S
Co137 O162 1.941 . S
C138 O139 1.258 . S
C138 O140 1.263 . S
O139 Co136 1.970 . S
O139 C138 1.258 . S
O140 Co137 1.966 . S
O140 C138 1.263 . S
C141 O142 1.235 . S
C141 O168 1.289 . S
O142 C141 1.235 . S
C143 C145 1.400 . S
C143 N146 1.351 . S
C143 C148 1.501 . S
C144 C145 1.387 . S
C144 N147 1.341 . S
C145 C143 1.400 . S
C145 C144 1.387 . S
N146 Co137 2.022 . S
N146 C143 1.351 . S
N146 N147 1.365 . S
N147 C144 1.341 . S
N147 N146 1.365 . S
N147 H167 0.862 . S
C148 C143 1.501 . S
C148 H149 0.961 . S
C148 H150 0.961 . S
C148 H151 0.960 . S
H149 C148 0.961 . S
H150 C148 0.961 . S
H151 C148 0.960 . S
C152 N153 1.342 . S
C152 C156 1.401 . S
C152 C157 1.499 . S
N153 Co136 1.989 . S
N153 C152 1.342 . S
N153 N154 1.388 . S
N154 Co137 1.993 . S
N154 N153 1.388 . S
N154 C155 1.346 . S
C155 N154 1.346 . S
C155 C156 1.396 . S
C155 C165 1.510 . S
C156 C152 1.401 . S
C156 C155 1.396 . S
C157 C152 1.499 . S
C157 H158 0.959 . S
C157 H159 0.960 . S
C157 H160 0.961 . S
H158 C157 0.959 . S
H159 C157 0.960 . S
H160 C157 0.961 . S
O161 Co136 1.967 . S
O161 C169 1.258 . S
O162 Co137 1.941 . S
O162 C169 1.266 . S
H163 C165 0.959 . S
H164 C165 0.961 . S
C165 C155 1.510 . S
C165 H163 0.959 . S
C165 H164 0.961 . S
C165 H166 0.960 . S
H166 C165 0.960 . S
H167 N147 0.862 . S
O168 Co136 1.920 . S
O168 C141 1.289 . S
C169 O161 1.258 . S
C169 O162 1.266 . S
Co170 O173 1.970 . S
Co170 N187 1.989 . S
Co170 O195 1.967 . S
Co170 O202 1.920 . S
Co171 O174 1.966 . S
Co171 N180 2.022 . S
Co171 N188 1.993 . S
Co171 O196 1.941 . S
C172 O173 1.258 . S
C172 O174 1.263 . S
O173 Co170 1.970 . S
O173 C172 1.258 . S
O174 Co171 1.966 . S
O174 C172 1.263 . S
C175 O176 1.235 . S
C175 O202 1.289 . S
O176 C175 1.235 . S
C177 C179 1.400 . S
C177 N180 1.351 . S
C177 C182 1.501 . S
C178 C179 1.387 . S
C178 N181 1.341 . S
C179 C177 1.400 . S
C179 C178 1.387 . S
N180 Co171 2.022 . S
N180 C177 1.351 . S
N180 N181 1.365 . S
N181 C178 1.341 . S
N181 N180 1.365 . S
N181 H201 0.862 . S
C182 C177 1.501 . S
C182 H183 0.961 . S
C182 H184 0.961 . S
C182 H185 0.960 . S
H183 C182 0.961 . S
H184 C182 0.961 . S
H185 C182 0.960 . S
C186 N187 1.342 . S
C186 C190 1.401 . S
C186 C191 1.499 . S
N187 Co170 1.989 . S
N187 C186 1.342 . S
N187 N188 1.388 . S
N188 Co171 1.993 . S
N188 N187 1.388 . S
N188 C189 1.346 . S
C189 N188 1.346 . S
C189 C190 1.396 . S
C189 C199 1.510 . S
C190 C186 1.401 . S
C190 C189 1.396 . S
C191 C186 1.499 . S
C191 H192 0.959 . S
C191 H193 0.960 . S
C191 H194 0.961 . S
H192 C191 0.959 . S
H193 C191 0.960 . S
H194 C191 0.961 . S
O195 Co170 1.967 . S
O195 C203 1.258 . S
O196 Co171 1.941 . S
O196 C203 1.266 . S
H197 C199 0.959 . S
H198 C199 0.961 . S
C199 C189 1.510 . S
C199 H197 0.959 . S
C199 H198 0.961 . S
C199 H200 0.960 . S
H200 C199 0.960 . S
H201 N181 0.862 . S
O202 Co170 1.920 . S
O202 C175 1.289 . S
C203 O195 1.258 . S
C203 O196 1.266 . S
Co204 O207 1.970 . S
Co204 N221 1.989 . S
Co204 O229 1.967 . S
Co204 O236 1.920 . S
Co205 O208 1.966 . S
Co205 N214 2.022 . S
Co205 N222 1.993 . S
Co205 O230 1.941 . S
C206 O207 1.258 . S
C206 O208 1.263 . S
O207 Co204 1.970 . S
O207 C206 1.258 . S
O208 Co205 1.966 . S
O208 C206 1.263 . S
C209 O210 1.235 . S
C209 O236 1.289 . S
O210 C209 1.235 . S
C211 C213 1.400 . S
C211 N214 1.351 . S
C211 C216 1.501 . S
C212 C213 1.387 . S
C212 N215 1.341 . S
C213 C211 1.400 . S
C213 C212 1.387 . S
N214 Co205 2.022 . S
N214 C211 1.351 . S
N214 N215 1.365 . S
N215 C212 1.341 . S
N215 N214 1.365 . S
N215 H235 0.862 . S
C216 C211 1.501 . S
C216 H217 0.961 . S
C216 H218 0.961 . S
C216 H219 0.984 . S
H217 C216 0.961 . S
H218 C216 0.961 . S
H219 C216 0.984 . S
C220 N221 1.342 . S
C220 C224 1.401 . S
C220 C225 1.499 . S
N221 Co204 1.989 . S
N221 C220 1.342 . S
N221 N222 1.388 . S
N222 Co205 1.993 . S
N222 N221 1.388 . S
N222 C223 1.346 . S
C223 N222 1.346 . S
C223 C224 1.396 . S
C223 C233 1.510 . S
C224 C220 1.401 . S
C224 C223 1.396 . S
C225 C220 1.499 . S
C225 H226 0.959 . S
C225 H227 0.960 . S
C225 H228 0.961 . S
H226 C225 0.959 . S
H227 C225 0.960 . S
H228 C225 0.961 . S
O229 Co204 1.967 . S
O229 C237 1.258 . S
O230 Co205 1.941 . S
O230 C237 1.266 . S
H231 C233 0.959 . S
H232 C233 0.961 . S
C233 C223 1.510 . S
C233 H231 0.959 . S
C233 H232 0.961 . S
C233 H234 0.960 . S
H234 C233 0.960 . S
H235 N215 0.862 . S
O236 Co204 1.920 . S
O236 C209 1.289 . S
C237 O229 1.258 . S
C237 O230 1.266 . S
Co238 O241 1.970 . S
Co238 N255 1.989 . S
Co238 O263 1.967 . S
Co238 O270 1.920 . S
Co239 O242 1.966 . S
Co239 N248 2.022 . S
Co239 N256 1.993 . S
Co239 O264 1.941 . S
C240 O241 1.258 . S
C240 O242 1.263 . S
O241 Co238 1.970 . S
O241 C240 1.258 . S
O242 Co239 1.966 . S
O242 C240 1.263 . S
C243 O244 1.235 . S
C243 O270 1.289 . S
O244 C243 1.235 . S
C245 C247 1.400 . S
C245 N248 1.351 . S
C245 C250 1.501 . S
C246 C247 1.387 . S
C246 N249 1.341 . S
C247 C245 1.400 . S
C247 C246 1.387 . S
N248 Co239 2.022 . S
N248 C245 1.351 . S
N248 N249 1.365 . S
N249 C246 1.341 . S
N249 N248 1.365 . S
N249 H269 0.862 . S
C250 C245 1.501 . S
C250 H251 0.961 . S
C250 H252 0.961 . S
C250 H253 0.984 . S
H251 C250 0.961 . S
H252 C250 0.961 . S
H253 C250 0.984 . S
C254 N255 1.342 . S
C254 C258 1.401 . S
C254 C259 1.499 . S
N255 Co238 1.989 . S
N255 C254 1.342 . S
N255 N256 1.388 . S
N256 Co239 1.993 . S
N256 N255 1.388 . S
N256 C257 1.346 . S
C257 N256 1.346 . S
C257 C258 1.396 . S
C257 C267 1.510 . S
C258 C254 1.401 . S
C258 C257 1.396 . S
C259 C254 1.499 . S
C259 H260 0.959 . S
C259 H261 0.960 . S
C259 H262 0.961 . S
H260 C259 0.959 . S
H261 C259 0.960 . S
H262 C259 0.961 . S
O263 Co238 1.967 . S
O263 C271 1.258 . S
O264 Co239 1.941 . S
O264 C271 1.266 . S
H265 C267 0.959 . S
H266 C267 0.961 . S
C267 C257 1.510 . S
C267 H265 0.959 . S
C267 H266 0.961 . S
C267 H268 0.960 . S
H268 C267 0.960 . S
H269 N249 0.862 . S
O270 Co238 1.920 . S
O270 C243 1.289 . S
C271 O263 1.258 . S
C271 O264 1.266 . S
Co272 O275 1.970 . S
Co272 N289 1.989 . S
Co272 O297 1.967 . S
Co272 O304 1.920 . S
Co273 O276 1.966 . S
Co273 N282 2.022 . S
Co273 N290 1.993 . S
Co273 O298 1.941 . S
C274 O275 1.258 . S
C274 O276 1.263 . S
O275 Co272 1.970 . S
O275 C274 1.258 . S
O276 Co273 1.966 . S
O276 C274 1.263 . S
C277 O278 1.235 . S
C277 O304 1.289 . S
O278 C277 1.235 . S
C279 C281 1.400 . S
C279 N282 1.351 . S
C279 C284 1.501 . S
C280 C281 1.387 . S
C280 N283 1.341 . S
C281 C279 1.400 . S
C281 C280 1.387 . S
N282 Co273 2.022 . S
N282 C279 1.351 . S
N282 N283 1.365 . S
N283 C280 1.341 . S
N283 N282 1.365 . S
N283 H303 0.862 . S
C284 C279 1.501 . S
C284 H285 0.961 . S
C284 H286 0.961 . S
C284 H287 0.984 . S
H285 C284 0.961 . S
H286 C284 0.961 . S
H287 C284 0.984 . S
C288 N289 1.342 . S
C288 C292 1.401 . S
C288 C293 1.499 . S
N289 Co272 1.989 . S
N289 C288 1.342 . S
N289 N290 1.388 . S
N290 Co273 1.993 . S
N290 N289 1.388 . S
N290 C291 1.346 . S
C291 N290 1.346 . S
C291 C292 1.396 . S
C291 C301 1.510 . S
C292 C288 1.401 . S
C292 C291 1.396 . S
C293 C288 1.499 . S
C293 H294 0.959 . S
C293 H295 0.960 . S
C293 H296 0.961 . S
H294 C293 0.959 . S
H295 C293 0.960 . S
H296 C293 0.961 . S
O297 Co272 1.967 . S
O297 C305 1.258 . S
O298 Co273 1.941 . S
O298 C305 1.266 . S
H299 C301 0.959 . S
H300 C301 0.961 . S
C301 C291 1.510 . S
C301 H299 0.959 . S
C301 H300 0.961 . S
C301 H302 0.960 . S
H302 C301 0.960 . S
H303 N283 0.862 . S
O304 Co272 1.920 . S
O304 C277 1.289 . S
C305 O297 1.258 . S
C305 O298 1.266 . S
Co306 O309 1.970 . S
Co306 N323 1.989 . S
Co306 O331 1.967 . S
Co306 O338 1.920 . S
Co307 O310 1.966 . S
Co307 N316 2.022 . S
Co307 N324 1.993 . S
Co307 O332 1.941 . S
C308 O309 1.258 . S
C308 O310 1.263 . S
O309 Co306 1.970 . S
O309 C308 1.258 . S
O310 Co307 1.966 . S
O310 C308 1.263 . S
C311 O312 1.235 . S
C311 O338 1.289 . S
O312 C311 1.235 . S
C313 C315 1.400 . S
C313 N316 1.351 . S
C313 C318 1.501 . S
C314 C315 1.387 . S
C314 N317 1.341 . S
C315 C313 1.400 . S
C315 C314 1.387 . S
N316 Co307 2.022 . S
N316 C313 1.351 . S
N316 N317 1.365 . S
N317 C314 1.341 . S
N317 N316 1.365 . S
N317 H337 0.862 . S
C318 C313 1.501 . S
C318 H319 0.961 . S
C318 H320 0.961 . S
C318 H321 0.960 . S
H319 C318 0.961 . S
H320 C318 0.961 . S
H321 C318 0.960 . S
C322 N323 1.342 . S
C322 C326 1.401 . S
C322 C327 1.499 . S
N323 Co306 1.989 . S
N323 C322 1.342 . S
N323 N324 1.388 . S
N324 Co307 1.993 . S
N324 N323 1.388 . S
N324 C325 1.346 . S
C325 N324 1.346 . S
C325 C326 1.396 . S
C325 C335 1.510 . S
C326 C322 1.401 . S
C326 C325 1.396 . S
C327 C322 1.499 . S
C327 H328 0.959 . S
C327 H329 0.960 . S
C327 H330 0.961 . S
H328 C327 0.959 . S
H329 C327 0.960 . S
H330 C327 0.961 . S
O331 Co306 1.967 . S
O331 C339 1.258 . S
O332 Co307 1.941 . S
O332 C339 1.266 . S
H333 C335 0.959 . S
H334 C335 0.961 . S
C335 C325 1.510 . S
C335 H333 0.959 . S
C335 H334 0.961 . S
C335 H336 0.960 . S
H336 C335 0.960 . S
H337 N317 0.862 . S
O338 Co306 1.920 . S
O338 C311 1.289 . S
C339 O331 1.258 . S
C339 O332 1.266 . S
Co340 O343 1.970 . S
Co340 N357 1.989 . S
Co340 O365 1.967 . S
Co340 O372 1.920 . S
Co341 O344 1.966 . S
Co341 N350 2.022 . S
Co341 N358 1.993 . S
Co341 O366 1.941 . S
C342 O343 1.258 . S
C342 O344 1.263 . S
O343 Co340 1.970 . S
O343 C342 1.258 . S
O344 Co341 1.966 . S
O344 C342 1.263 . S
C345 O346 1.235 . S
C345 O372 1.289 . S
O346 C345 1.235 . S
C347 C349 1.400 . S
C347 N350 1.351 . S
C347 C352 1.501 . S
C348 C349 1.387 . S
C348 N351 1.341 . S
C349 C347 1.400 . S
C349 C348 1.387 . S
N350 Co341 2.022 . S
N350 C347 1.351 . S
N350 N351 1.365 . S
N351 C348 1.341 . S
N351 N350 1.365 . S
N351 H371 0.862 . S
C352 C347 1.501 . S
C352 H353 0.961 . S
C352 H354 0.961 . S
C352 H355 0.960 . S
H353 C352 0.961 . S
H354 C352 0.961 . S
H355 C352 0.960 . S
C356 N357 1.342 . S
C356 C360 1.401 . S
C356 C361 1.499 . S
N357 Co340 1.989 . S
N357 C356 1.342 . S
N357 N358 1.388 . S
N358 Co341 1.993 . S
N358 N357 1.388 . S
N358 C359 1.346 . S
C359 N358 1.346 . S
C359 C360 1.396 . S
C359 C369 1.510 . S
C360 C356 1.401 . S
C360 C359 1.396 . S
C361 C356 1.499 . S
C361 H362 0.959 . S
C361 H363 0.960 . S
C361 H364 0.961 . S
H362 C361 0.959 . S
H363 C361 0.960 . S
H364 C361 0.961 . S
O365 Co340 1.967 . S
O365 C373 1.258 . S
O366 Co341 1.941 . S
O366 C373 1.266 . S
H367 C369 0.959 . S
H368 C369 0.961 . S
C369 C359 1.510 . S
C369 H367 0.959 . S
C369 H368 0.961 . S
C369 H370 0.960 . S
H370 C369 0.960 . S
H371 N351 0.862 . S
O372 Co340 1.920 . S
O372 C345 1.289 . S
C373 O365 1.258 . S
C373 O366 1.266 . S
Co374 O377 1.970 . S
Co374 N391 1.989 . S
Co374 O399 1.967 . S
Co374 O406 1.920 . S
Co375 O378 1.966 . S
Co375 N384 2.022 . S
Co375 N392 1.993 . S
Co375 O400 1.941 . S
C376 O377 1.258 . S
C376 O378 1.263 . S
O377 Co374 1.970 . S
O377 C376 1.258 . S
O378 Co375 1.966 . S
O378 C376 1.263 . S
C379 O380 1.235 . S
C379 O406 1.289 . S
O380 C379 1.235 . S
C381 C383 1.400 . S
C381 N384 1.351 . S
C381 C386 1.501 . S
C382 C383 1.387 . S
C382 N385 1.341 . S
C383 C381 1.400 . S
C383 C382 1.387 . S
N384 Co375 2.022 . S
N384 C381 1.351 . S
N384 N385 1.365 . S
N385 C382 1.341 . S
N385 N384 1.365 . S
N385 H405 0.862 . S
C386 C381 1.501 . S
C386 H387 0.961 . S
C386 H388 0.961 . S
C386 H389 0.960 . S
H387 C386 0.961 . S
H388 C386 0.961 . S
H389 C386 0.960 . S
C390 N391 1.342 . S
C390 C394 1.401 . S
C390 C395 1.499 . S
N391 Co374 1.989 . S
N391 C390 1.342 . S
N391 N392 1.388 . S
N392 Co375 1.993 . S
N392 N391 1.388 . S
N392 C393 1.346 . S
C393 N392 1.346 . S
C393 C394 1.396 . S
C393 C403 1.510 . S
C394 C390 1.401 . S
C394 C393 1.396 . S
C395 C390 1.499 . S
C395 H396 0.959 . S
C395 H397 0.960 . S
C395 H398 0.961 . S
H396 C395 0.959 . S
H397 C395 0.960 . S
H398 C395 0.961 . S
O399 Co374 1.967 . S
O399 C407 1.258 . S
O400 Co375 1.941 . S
O400 C407 1.266 . S
H401 C403 0.959 . S
H402 C403 0.961 . S
C403 C393 1.510 . S
C403 H401 0.959 . S
C403 H402 0.961 . S
C403 H404 0.960 . S
H404 C403 0.960 . S
H405 N385 0.862 . S
O406 Co374 1.920 . S
O406 C379 1.289 . S
C407 O399 1.258 . S
C407 O400 1.266 . S
H408 C416 0.929 . S
H409 C418 0.930 . S
H410 C420 0.930 . S
H411 C423 0.929 . S
H412 C426 0.930 . S
H413 C428 0.960 . S
H414 C428 0.960 . S
H415 C428 0.960 . S
C416 H408 0.929 . S
C416 C417 1.377 . S
C416 C418 1.384 . S
C417 C416 1.377 . S
C417 C423 1.390 . S
C418 H409 0.930 . S
C418 C416 1.384 . S
C418 C419 1.372 . S
C419 C418 1.372 . S
C419 C420 1.400 . S
C419 C424 1.490 . S
C420 H410 0.930 . S
C420 C419 1.400 . S
C420 C423 1.386 . S
H421 C437 0.930 . S
H422 C438 0.931 . S
C423 H411 0.929 . S
C423 C417 1.390 . S
C423 C420 1.386 . S
C424 C419 1.490 . S
C424 C426 1.395 . S
C424 C427 1.403 . S
H425 C431 0.930 . S
C426 H412 0.930 . S
C426 C424 1.395 . S
C426 C429 1.403 . S
C427 C424 1.403 . S
C427 C428 1.524 . S
C427 C431 1.400 . S
C428 H413 0.960 . S
C428 H414 0.960 . S
C428 H415 0.960 . S
C428 C427 1.524 . S
C429 C426 1.403 . S
C429 C430 1.392 . S
C429 C433 1.495 . S
C430 C429 1.392 . S
C430 C431 1.385 . S
C430 C432 1.478 . S
C431 H425 0.930 . S
C431 C427 1.400 . S
C431 C430 1.385 . S
C432 C430 1.478 . S
C432 C434 1.381 . S
C432 C438 1.383 . S
C433 C429 1.495 . S
C433 H439 0.959 . S
C433 H440 0.961 . S
C433 H441 0.960 . S
C434 C432 1.381 . S
C434 C435 1.394 . S
C434 H442 0.930 . S
C435 C434 1.394 . S
C435 C436 1.383 . S
C435 H443 0.929 . S
C436 C435 1.383 . S
C436 C437 1.377 . S
C437 H421 0.930 . S
C437 C436 1.377 . S
C437 C438 1.379 . S
C438 H422 0.931 . S
C438 C432 1.383 . S
C438 C437 1.379 . S
H439 C433 0.959 . S
H440 C433 0.961 . S
H441 C433 0.960 . S
H442 C434 0.930 . S
H443 C435 0.929 . S
H444 C452 0.929 . S
H445 C454 0.930 . S
H446 C456 0.930 . S
H447 C459 0.929 . S
H448 C462 0.930 . S
H449 C464 0.960 . S
H450 C464 0.960 . S
H451 C464 0.960 . S
C452 H444 0.929 . S
C452 C453 1.377 . S
C452 C454 1.384 . S
C453 C452 1.377 . S
C453 C459 1.390 . S
C454 H445 0.930 . S
C454 C452 1.384 . S
C454 C455 1.372 . S
C455 C454 1.372 . S
C455 C456 1.400 . S
C455 C460 1.490 . S
C456 H446 0.930 . S
C456 C455 1.400 . S
C456 C459 1.386 . S
H457 C473 0.930 . S
H458 C474 0.931 . S
C459 H447 0.929 . S
C459 C453 1.390 . S
C459 C456 1.386 . S
C460 C455 1.490 . S
C460 C462 1.395 . S
C460 C463 1.403 . S
H461 C467 0.930 . S
C462 H448 0.930 . S
C462 C460 1.395 . S
C462 C465 1.403 . S
C463 C460 1.403 . S
C463 C464 1.524 . S
C463 C467 1.400 . S
C464 H449 0.960 . S
C464 H450 0.960 . S
C464 H451 0.960 . S
C464 C463 1.524 . S
C465 C462 1.403 . S
C465 C466 1.392 . S
C465 C469 1.495 . S
C466 C465 1.392 . S
C466 C467 1.385 . S
C466 C468 1.478 . S
C467 H461 0.930 . S
C467 C463 1.400 . S
C467 C466 1.385 . S
C468 C466 1.478 . S
C468 C470 1.381 . S
C468 C474 1.383 . S
C469 C465 1.495 . S
C469 H475 0.942 1_655 S
C469 H476 0.961 . S
C469 H477 0.960 . S
C470 C468 1.381 . S
C470 C471 1.394 . S
C470 H478 0.930 . S
C471 C470 1.394 . S
C471 C472 1.383 . S
C471 H479 0.929 . S
C472 C471 1.383 . S
C472 C473 1.377 . S
C473 H457 0.930 . S
C473 C472 1.377 . S
C473 C474 1.379 . S
C474 H458 0.931 . S
C474 C468 1.383 . S
C474 C473 1.379 . S
H475 C469 0.942 1_455 S
H476 C469 0.961 . S
H477 C469 0.960 . S
H478 C470 0.930 . S
H479 C471 0.929 . S
H480 C488 0.929 . S
H481 C490 0.930 . S
H482 C492 0.930 . S
H483 C495 0.929 . S
H484 C498 0.930 . S
H485 C500 0.960 . S
H486 C500 0.960 . S
H487 C500 0.960 . S
C488 H480 0.929 . S
C488 C489 1.377 . S
C488 C490 1.384 . S
C489 C488 1.377 . S
C489 C495 1.390 . S
C490 H481 0.930 . S
C490 C488 1.384 . S
C490 C491 1.372 . S
C491 C490 1.372 . S
C491 C492 1.400 . S
C491 C496 1.490 . S
C492 H482 0.930 . S
C492 C491 1.400 . S
C492 C495 1.386 . S
H493 C509 0.930 . S
H494 C510 0.931 . S
C495 H483 0.929 . S
C495 C489 1.390 . S
C495 C492 1.386 . S
C496 C491 1.490 . S
C496 C498 1.395 . S
C496 C499 1.403 . S
H497 C503 0.930 . S
C498 H484 0.930 . S
C498 C496 1.395 . S
C498 C501 1.403 . S
C499 C496 1.403 . S
C499 C500 1.524 . S
C499 C503 1.400 . S
C500 H485 0.960 . S
C500 H486 0.960 . S
C500 H487 0.960 . S
C500 C499 1.524 . S
C501 C498 1.403 . S
C501 C502 1.392 . S
C501 C505 1.495 . S
C502 C501 1.392 . S
C502 C503 1.385 . S
C502 C504 1.478 . S
C503 H497 0.930 . S
C503 C499 1.400 . S
C503 C502 1.385 . S
C504 C502 1.478 . S
C504 C506 1.381 . S
C504 C510 1.383 . S
C505 C501 1.495 . S
C505 H511 0.959 . S
C505 H512 0.961 . S
C505 H513 0.960 . S
C506 C504 1.381 . S
C506 C507 1.394 . S
C506 H514 0.930 . S
C507 C506 1.394 . S
C507 C508 1.383 . S
C507 H515 0.929 . S
C508 C507 1.383 . S
C508 C509 1.377 . S
C509 H493 0.930 . S
C509 C508 1.377 . S
C509 C510 1.379 . S
C510 H494 0.931 . S
C510 C504 1.383 . S
C510 C509 1.379 . S
H511 C505 0.959 . S
H512 C505 0.961 . S
H513 C505 0.960 . S
H514 C506 0.930 . S
H515 C507 0.929 . S
H516 C524 0.929 . S
H517 C526 0.930 . S
H518 C528 0.930 . S
H519 C531 0.929 . S
H520 C534 0.930 . S
H521 C536 0.960 . S
H522 C536 0.960 . S
H523 C536 0.960 . S
C524 H516 0.929 . S
C524 C525 1.377 . S
C524 C526 1.384 . S
C525 C524 1.377 . S
C525 C531 1.390 . S
C526 H517 0.930 . S
C526 C524 1.384 . S
C526 C527 1.372 . S
C527 C526 1.372 . S
C527 C528 1.400 . S
C527 C532 1.490 . S
C528 H518 0.930 . S
C528 C527 1.400 . S
C528 C531 1.386 . S
H529 C545 0.930 . S
H530 C546 0.931 . S
C531 H519 0.929 . S
C531 C525 1.390 . S
C531 C528 1.386 . S
C532 C527 1.490 . S
C532 C534 1.395 . S
C532 C535 1.403 . S
H533 C539 0.930 . S
C534 H520 0.930 . S
C534 C532 1.395 . S
C534 C537 1.403 . S
C535 C532 1.403 . S
C535 C536 1.524 . S
C535 C539 1.400 . S
C536 H521 0.960 . S
C536 H522 0.960 . S
C536 H523 0.960 . S
C536 C535 1.524 . S
C537 C534 1.403 . S
C537 C538 1.392 . S
C537 C541 1.495 . S
C538 C537 1.392 . S
C538 C539 1.385 . S
C538 C540 1.478 . S
C539 H533 0.930 . S
C539 C535 1.400 . S
C539 C538 1.385 . S
C540 C538 1.478 . S
C540 C542 1.381 . S
C540 C546 1.383 . S
C541 C537 1.495 . S
C541 H547 0.959 . S
C541 H548 0.961 . S
C541 H549 0.960 . S
C542 C540 1.381 . S
C542 C543 1.394 . S
C542 H550 0.930 . S
C543 C542 1.394 . S
C543 C544 1.383 . S
C543 H551 0.929 . S
C544 C543 1.383 . S
C544 C545 1.377 . S
C545 H529 0.930 . S
C545 C544 1.377 . S
C545 C546 1.379 . S
C546 H530 0.931 . S
C546 C540 1.383 . S
C546 C545 1.379 . S
H547 C541 0.959 . S
H548 C541 0.961 . S
H549 C541 0.960 . S
H550 C542 0.930 . S
H551 C543 0.929 . S
H552 C560 0.929 . S
H553 C562 0.930 . S
H554 C564 0.930 . S
H555 C567 0.929 . S
H556 C570 0.930 . S
H557 C572 0.960 . S
H558 C572 0.960 . S
H559 C572 0.960 . S
C560 H552 0.929 . S
C560 C561 1.377 . S
C560 C562 1.384 . S
C561 C560 1.377 . S
C561 C567 1.390 . S
C562 H553 0.930 . S
C562 C560 1.384 . S
C562 C563 1.372 . S
C563 C562 1.372 . S
C563 C564 1.400 . S
C563 C568 1.490 . S
C564 H554 0.930 . S
C564 C563 1.400 . S
C564 C567 1.386 . S
H565 C581 0.930 . S
H566 C582 0.931 . S
C567 H555 0.929 . S
C567 C561 1.390 . S
C567 C564 1.386 . S
C568 C563 1.490 . S
C568 C570 1.395 . S
C568 C571 1.403 . S
H569 C575 0.930 . S
C570 H556 0.930 . S
C570 C568 1.395 . S
C570 C573 1.403 . S
C571 C568 1.403 . S
C571 C572 1.524 . S
C571 C575 1.400 . S
C572 H557 0.960 . S
C572 H558 0.960 . S
C572 H559 0.960 . S
C572 C571 1.524 . S
C573 C570 1.403 . S
C573 C574 1.392 . S
C573 C577 1.495 . S
C574 C573 1.392 . S
C574 C575 1.385 . S
C574 C576 1.478 . S
C575 H569 0.930 . S
C575 C571 1.400 . S
C575 C574 1.385 . S
C576 C574 1.478 . S
C576 C578 1.381 . S
C576 C582 1.383 . S
C577 C573 1.495 . S
C577 H583 0.959 . S
C577 H584 0.961 . S
C577 H585 0.960 . S
C578 C576 1.381 . S
C578 C579 1.394 . S
C578 H586 0.930 . S
C579 C578 1.394 . S
C579 C580 1.383 . S
C579 H587 0.929 . S
C580 C579 1.383 . S
C580 C581 1.377 . S
C581 H565 0.930 . S
C581 C580 1.377 . S
C581 C582 1.379 . S
C582 H566 0.931 . S
C582 C576 1.383 . S
C582 C581 1.379 . S
H583 C577 0.959 . S
H584 C577 0.961 . S
H585 C577 0.960 . S
H586 C578 0.930 . S
H587 C579 0.929 . S
H588 C596 0.929 . S
H589 C598 0.930 . S
H590 C600 0.930 . S
H591 C603 0.929 . S
H592 C606 0.930 . S
H593 C608 0.960 . S
H594 C608 0.960 . S
H595 C608 0.960 . S
C596 H588 0.929 . S
C596 C597 1.377 . S
C596 C598 1.384 . S
C597 C596 1.377 . S
C597 C603 1.390 . S
C598 H589 0.930 . S
C598 C596 1.384 . S
C598 C599 1.372 . S
C599 C598 1.372 . S
C599 C600 1.400 . S
C599 C604 1.490 . S
C600 H590 0.930 . S
C600 C599 1.400 . S
C600 C603 1.386 . S
H601 C617 0.930 . S
H602 C618 0.931 . S
C603 H591 0.929 . S
C603 C597 1.390 . S
C603 C600 1.386 . S
C604 C599 1.490 . S
C604 C606 1.395 . S
C604 C607 1.403 . S
H605 C611 0.930 . S
C606 H592 0.930 . S
C606 C604 1.395 . S
C606 C609 1.403 . S
C607 C604 1.403 . S
C607 C608 1.524 . S
C607 C611 1.400 . S
C608 H593 0.960 . S
C608 H594 0.960 . S
C608 H595 0.960 . S
C608 C607 1.524 . S
C609 C606 1.403 . S
C609 C610 1.392 . S
C609 C613 1.495 . S
C610 C609 1.392 . S
C610 C611 1.385 . S
C610 C612 1.478 . S
C611 H605 0.930 . S
C611 C607 1.400 . S
C611 C610 1.385 . S
C612 C610 1.478 . S
C612 C614 1.381 . S
C612 C618 1.383 . S
C613 C609 1.495 . S
C613 H619 0.959 . S
C613 H620 0.961 . S
C613 H621 0.960 . S
C614 C612 1.381 . S
C614 C615 1.394 . S
C614 H622 0.930 . S
C615 C614 1.394 . S
C615 C616 1.383 . S
C615 H623 0.929 . S
C616 C615 1.383 . S
C616 C617 1.377 . S
C617 H601 0.930 . S
C617 C616 1.377 . S
C617 C618 1.379 . S
C618 H602 0.931 . S
C618 C612 1.383 . S
C618 C617 1.379 . S
H619 C613 0.959 . S
H620 C613 0.961 . S
H621 C613 0.960 . S
H622 C614 0.930 . S
H623 C615 0.929 . S
H624 C632 0.929 . S
H625 C634 0.930 1_565 S
H626 C636 0.930 1_556 S
H627 C639 0.929 . S
H628 C642 0.930 . S
H629 C644 0.960 . S
H630 C644 0.960 . S
H631 C644 0.960 . S
C632 H624 0.929 . S
C632 C633 1.377 . S
C632 C634 1.384 . S
C633 C632 1.377 . S
C633 C639 1.390 . S
C634 H625 0.930 1_545 S
C634 C632 1.384 . S
C634 C635 1.372 . S
C635 C634 1.372 . S
C635 C636 1.400 . S
C635 C640 1.490 . S
C636 H626 0.930 1_554 S
C636 C635 1.400 . S
C636 C639 1.386 . S
H637 C653 0.930 . S
H638 C654 0.927 . S
C639 H627 0.929 . S
C639 C633 1.390 . S
C639 C636 1.386 . S
C640 C635 1.490 . S
C640 C642 1.395 1_544 S
C640 C643 1.403 . S
H641 C647 0.930 . S
C642 H628 0.930 . S
C642 C640 1.395 1_566 S
C642 C645 1.403 . S
C643 C640 1.403 . S
C643 C644 1.524 . S
C643 C647 1.400 . S
C644 H629 0.960 . S
C644 H630 0.960 . S
C644 H631 0.960 . S
C644 C643 1.524 . S
C645 C642 1.403 . S
C645 C646 1.392 . S
C645 C649 1.495 . S
C646 C645 1.392 . S
C646 C647 1.385 1_566 S
C646 C648 1.478 . S
C647 H641 0.930 . S
C647 C643 1.400 . S
C647 C646 1.385 1_544 S
C648 C646 1.478 . S
C648 C650 1.381 . S
C648 C654 1.383 . S
C649 C645 1.495 . S
C649 H655 0.959 . S
C649 H656 0.961 . S
C649 H657 0.960 . S
C650 C648 1.381 . S
C650 C651 1.394 . S
C650 H658 0.930 1_556 S
C651 C650 1.394 . S
C651 C652 1.383 . S
C651 H659 0.929 . S
C652 C651 1.383 . S
C652 C653 1.377 . S
C653 H637 0.930 . S
C653 C652 1.377 . S
C653 C654 1.379 . S
C654 H638 0.927 . S
C654 C648 1.383 . S
C654 C653 1.379 . S
H655 C649 0.959 . S
H656 C649 0.961 . S
H657 C649 0.960 . S
H658 C650 0.930 1_554 S
H659 C651 0.929 . S
H660 C668 0.929 . S
H661 C670 0.930 . S
H662 C672 0.930 1_556 S
H663 C675 0.929 1_556 S
H664 C678 0.930 . S
H665 C680 0.960 . S
H666 C680 0.960 . S
H667 C680 0.960 . S
C668 H660 0.929 . S
C668 C669 1.377 . S
C668 C670 1.384 . S
C669 C668 1.377 . S
C669 C675 1.390 . S
C670 H661 0.930 . S
C670 C668 1.384 . S
C670 C671 1.372 . S
C671 C670 1.372 . S
C671 C672 1.400 . S
C671 C676 1.490 . S
C672 H662 0.930 1_554 S
C672 C671 1.400 . S
C672 C675 1.386 . S
H673 C689 0.930 . S
H674 C690 0.931 . S
C675 H663 0.929 1_554 S
C675 C669 1.390 . S
C675 C672 1.386 . S
C676 C671 1.490 . S
C676 C678 1.395 . S
C676 C679 1.403 1_554 S
H677 C683 0.930 . S
C678 H664 0.930 . S
C678 C676 1.395 . S
C678 C681 1.403 1_655 S
C679 C676 1.403 1_556 S
C679 C680 1.524 . S
C679 C683 1.400 1_655 S
C680 H665 0.960 . S
C680 H666 0.960 . S
C680 H667 0.960 . S
C680 C679 1.524 . S
C681 C678 1.403 1_455 S
C681 C682 1.382 1_554 S
C681 C685 1.495 . S
C682 C681 1.382 1_556 S
C682 C683 1.393 . S
C682 C684 1.480 . S
C683 H677 0.930 . S
C683 C679 1.400 1_455 S
C683 C682 1.393 . S
C684 C682 1.480 . S
C684 C686 1.381 1_556 S
C684 C690 1.383 . S
C685 C681 1.495 . S
C685 H691 0.959 . S
C685 H692 0.961 . S
C685 H693 0.960 . S
C686 C684 1.381 1_554 S
C686 C687 1.394 1_554 S
C686 H694 0.930 . S
C687 C686 1.394 1_556 S
C687 C688 1.383 . S
C687 H695 0.929 . S
C688 C687 1.383 . S
C688 C689 1.377 . S
C689 H673 0.930 . S
C689 C688 1.377 . S
C689 C690 1.379 . S
C690 H674 0.931 . S
C690 C684 1.383 . S
C690 C689 1.379 . S
H691 C685 0.959 . S
H692 C685 0.961 . S
H693 C685 0.960 . S
H694 C686 0.930 . S
H695 C687 0.929 . S
H696 C704 0.929 . S
H697 C706 0.930 . S
H698 C708 0.930 . S
H699 C711 0.939 . S
H700 C714 0.930 . S
H701 C716 0.960 . S
H702 C716 0.960 . S
H703 C716 0.960 . S
C704 H696 0.929 . S
C704 C705 1.377 . S
C704 C706 1.384 . S
C705 C704 1.377 . S
C705 C711 1.377 1_556 S
C706 H697 0.930 . S
C706 C704 1.384 . S
C706 C707 1.372 . S
C707 C706 1.372 . S
C707 C708 1.400 1_556 S
C707 C712 1.490 . S
C708 H698 0.930 . S
C708 C707 1.400 1_554 S
C708 C711 1.388 . S
H709 C725 0.930 . S
H710 C726 0.931 . S
C711 H699 0.939 . S
C711 C705 1.377 1_554 S
C711 C708 1.388 . S
C712 C707 1.490 . S
C712 C714 1.395 . S
C712 C715 1.403 1_556 S
H713 C719 0.930 . S
C714 H700 0.930 . S
C714 C712 1.395 . S
C714 C717 1.403 . S
C715 C712 1.403 1_554 S
C715 C716 1.524 . S
C715 C719 1.400 . S
C716 H701 0.960 . S
C716 H702 0.960 . S
C716 H703 0.960 . S
C716 C715 1.524 . S
C717 C714 1.403 . S
C717 C718 1.368 1_556 S
C717 C721 1.495 . S
C718 C717 1.368 1_554 S
C718 C719 1.405 . S
C718 C720 1.484 . S
C719 H713 0.930 . S
C719 C715 1.400 . S
C719 C718 1.405 . S
C720 C718 1.484 . S
C720 C722 1.381 1_554 S
C720 C726 1.383 . S
C721 C717 1.495 . S
C721 H727 0.959 . S
C721 H728 0.961 . S
C721 H729 0.960 . S
C722 C720 1.381 1_556 S
C722 C723 1.394 . S
C722 H730 0.930 . S
C723 C722 1.394 . S
C723 C724 1.383 1_556 S
C723 H731 0.929 . S
C724 C723 1.383 1_554 S
C724 C725 1.377 . S
C725 H709 0.930 . S
C725 C724 1.377 . S
C725 C726 1.379 . S
C726 H710 0.931 . S
C726 C720 1.383 . S
C726 C725 1.379 . S
H727 C721 0.959 . S
H728 C721 0.961 . S
H729 C721 0.960 . S
H730 C722 0.930 . S
H731 C723 0.929 . S
H732 C740 0.929 . S
H733 C742 0.930 . S
H734 C744 0.930 . S
H735 C747 0.929 . S
H736 C750 0.930 . S
H737 C752 0.960 . S
H738 C752 0.960 . S
H739 C752 0.960 . S
C740 H732 0.929 . S
C740 C741 1.377 . S
C740 C742 1.384 . S
C741 C740 1.377 . S
C741 C747 1.390 . S
C742 H733 0.930 . S
C742 C740 1.384 . S
C742 C743 1.372 . S
C743 C742 1.372 . S
C743 C744 1.400 . S
C743 C748 1.490 . S
C744 H734 0.930 . S
C744 C743 1.400 . S
C744 C747 1.386 . S
H745 C761 0.930 . S
H746 C762 0.931 . S
C747 H735 0.929 . S
C747 C741 1.390 . S
C747 C744 1.386 . S
C748 C743 1.490 . S
C748 C750 1.395 1_455 S
C748 C751 1.403 . S
H749 C755 0.930 . S
C750 H736 0.930 . S
C750 C748 1.395 1_655 S
C750 C753 1.403 . S
C751 C748 1.403 . S
C751 C752 1.524 . S
C751 C755 1.400 . S
C752 H737 0.960 . S
C752 H738 0.960 . S
C752 H739 0.960 . S
C752 C751 1.524 . S
C753 C750 1.403 . S
C753 C754 1.392 . S
C753 C757 1.495 . S
C754 C753 1.392 . S
C754 C755 1.385 1_655 S
C754 C756 1.478 . S
C755 H749 0.930 . S
C755 C751 1.400 . S
C755 C754 1.385 1_455 S
C756 C754 1.478 . S
C756 C758 1.381 . S
C756 C762 1.383 . S
C757 C753 1.495 . S
C757 H763 0.959 . S
C757 H764 0.961 . S
C757 H765 0.960 . S
C758 C756 1.381 . S
C758 C759 1.394 . S
C758 H766 0.930 . S
C759 C758 1.394 . S
C759 C760 1.383 . S
C759 H767 0.929 . S
C760 C759 1.383 . S
C760 C761 1.377 . S
C761 H745 0.930 . S
C761 C760 1.377 . S
C761 C762 1.379 . S
C762 H746 0.931 . S
C762 C756 1.383 . S
C762 C761 1.379 . S
H763 C757 0.959 . S
H764 C757 0.961 . S
H765 C757 0.960 . S
H766 C758 0.930 . S
H767 C759 0.929 . S
H768 C776 0.929 . S
H769 C778 0.930 . S
H770 C780 0.930 . S
H771 C783 0.929 . S
H772 C786 0.930 . S
H773 C788 0.960 . S
H774 C788 0.960 . S
H775 C788 0.960 . S
C776 H768 0.929 . S
C776 C777 1.377 . S
C776 C778 1.384 . S
C777 C776 1.377 . S
C777 C783 1.390 . S
C778 H769 0.930 . S
C778 C776 1.384 . S
C778 C779 1.372 . S
C779 C778 1.372 . S
C779 C780 1.400 . S
C779 C784 1.490 . S
C780 H770 0.930 . S
C780 C779 1.400 . S
C780 C783 1.386 . S
H781 C797 0.930 . S
H782 C798 0.931 . S
C783 H771 0.929 . S
C783 C777 1.390 . S
C783 C780 1.386 . S
C784 C779 1.490 . S
C784 C786 1.395 . S
C784 C787 1.403 . S
H785 C791 0.930 . S
C786 H772 0.930 . S
C786 C784 1.395 . S
C786 C789 1.403 . S
C787 C784 1.403 . S
C787 C788 1.524 . S
C787 C791 1.400 . S
C788 H773 0.960 . S
C788 H774 0.960 . S
C788 H775 0.960 . S
C788 C787 1.524 . S
C789 C786 1.403 . S
C789 C790 1.392 . S
C789 C793 1.495 . S
C790 C789 1.392 . S
C790 C791 1.385 . S
C790 C792 1.478 . S
C791 H785 0.930 . S
C791 C787 1.400 . S
C791 C790 1.385 . S
C792 C790 1.478 . S
C792 C794 1.381 . S
C792 C798 1.383 . S
C793 C789 1.495 . S
C793 H799 0.959 . S
C793 H800 0.961 . S
C793 H801 0.960 . S
C794 C792 1.381 . S
C794 C795 1.394 . S
C794 H802 0.930 . S
C795 C794 1.394 . S
C795 C796 1.383 . S
C795 H803 0.929 . S
C796 C795 1.383 . S
C796 C797 1.377 . S
C797 H781 0.930 . S
C797 C796 1.377 . S
C797 C798 1.379 . S
C798 H782 0.931 . S
C798 C792 1.383 . S
C798 C797 1.379 . S
H799 C793 0.959 . S
H800 C793 0.961 . S
H801 C793 0.960 . S
H802 C794 0.930 . S
H803 C795 0.929 . S
H804 C812 0.929 . S
H805 C814 0.930 . S
H806 C816 0.930 1_565 S
H807 C819 0.929 . S
H808 C822 0.930 . S
H809 C824 0.960 . S
H810 C824 0.960 . S
H811 C824 0.960 . S
C812 H804 0.929 . S
C812 C813 1.377 . S
C812 C814 1.384 . S
C813 C812 1.377 . S
C813 C819 1.390 . S
C814 H805 0.930 . S
C814 C812 1.384 . S
C814 C815 1.372 . S
C815 C814 1.372 . S
C815 C816 1.400 . S
C815 C820 1.490 . S
C816 H806 0.930 1_545 S
C816 C815 1.400 . S
C816 C819 1.386 . S
H817 C833 0.930 . S
H818 C834 0.931 . S
C819 H807 0.929 . S
C819 C813 1.390 . S
C819 C816 1.386 . S
C820 C815 1.490 . S
C820 C822 1.395 . S
C820 C823 1.403 1_545 S
H821 C827 0.930 . S
C822 H808 0.930 . S
C822 C820 1.395 . S
C822 C825 1.403 . S
C823 C820 1.403 1_565 S
C823 C824 1.524 . S
C823 C827 1.400 . S
C824 H809 0.960 . S
C824 H810 0.960 . S
C824 H811 0.960 . S
C824 C823 1.524 . S
C825 C822 1.403 . S
C825 C826 1.392 1_545 S
C825 C829 1.495 . S
C826 C825 1.392 1_565 S
C826 C827 1.385 . S
C826 C828 1.478 . S
C827 H821 0.930 . S
C827 C823 1.400 . S
C827 C826 1.385 . S
C828 C826 1.478 . S
C828 C830 1.381 . S
C828 C834 1.383 . S
C829 C825 1.495 . S
C829 H835 0.959 . S
C829 H836 0.961 . S
C829 H837 0.960 . S
C830 C828 1.381 . S
C830 C831 1.394 . S
C830 H838 0.930 1_565 S
C831 C830 1.394 . S
C831 C832 1.383 . S
C831 H839 0.929 . S
C832 C831 1.383 . S
C832 C833 1.377 . S
C833 H817 0.930 . S
C833 C832 1.377 . S
C833 C834 1.379 . S
C834 H818 0.931 . S
C834 C828 1.383 . S
C834 C833 1.379 . S
H835 C829 0.959 . S
H836 C829 0.961 . S
H837 C829 0.960 . S
H838 C830 0.930 1_545 S
H839 C831 0.929 . S
H840 C848 0.929 . S
H841 C850 0.930 . S
H842 C852 0.930 . S
H843 C855 0.929 . S
H844 C858 0.930 . S
H845 C860 0.960 . S
H846 C860 0.960 . S
H847 C860 0.960 . S
C848 H840 0.929 . S
C848 C849 1.377 . S
C848 C850 1.384 . S
C849 C848 1.377 . S
C849 C855 1.390 . S
C850 H841 0.930 . S
C850 C848 1.384 . S
C850 C851 1.372 . S
C851 C850 1.372 . S
C851 C852 1.400 . S
C851 C856 1.490 . S
C852 H842 0.930 . S
C852 C851 1.400 . S
C852 C855 1.386 . S
H853 C869 0.930 . S
H854 C870 0.931 . S
C855 H843 0.929 . S
C855 C849 1.390 . S
C855 C852 1.386 . S
C856 C851 1.490 . S
C856 C858 1.395 . S
C856 C859 1.403 . S
H857 C863 0.930 . S
C858 H844 0.930 . S
C858 C856 1.395 . S
C858 C861 1.403 . S
C859 C856 1.403 . S
C859 C860 1.524 . S
C859 C863 1.400 . S
C860 H845 0.960 . S
C860 H846 0.960 . S
C860 H847 0.960 . S
C860 C859 1.524 . S
C861 C858 1.403 . S
C861 C862 1.392 . S
C861 C865 1.495 . S
C862 C861 1.392 . S
C862 C863 1.385 . S
C862 C864 1.478 . S
C863 H857 0.930 . S
C863 C859 1.400 . S
C863 C862 1.385 . S
C864 C862 1.478 . S
C864 C866 1.381 . S
C864 C870 1.383 . S
C865 C861 1.495 . S
C865 H871 0.959 . S
C865 H872 0.961 . S
C865 H873 0.960 . S
C866 C864 1.381 . S
C866 C867 1.394 . S
C866 H874 0.930 . S
C867 C866 1.394 . S
C867 C868 1.383 . S
C867 H875 0.929 . S
C868 C867 1.383 . S
C868 C869 1.377 . S
C869 H853 0.930 . S
C869 C868 1.377 . S
C869 C870 1.379 . S
C870 H854 0.931 . S
C870 C864 1.383 . S
C870 C869 1.379 . S
H871 C865 0.959 . S
H872 C865 0.961 . S
H873 C865 0.960 . S
H874 C866 0.930 . S
H875 C867 0.929 . S
H876 C884 0.929 . S
H877 C886 0.930 . S
H878 C888 0.930 . S
H879 C891 0.929 . S
H880 C894 0.930 . S
H881 C896 0.960 . S
H882 C896 0.960 . S
H883 C896 0.960 . S
C884 H876 0.929 . S
C884 C885 1.377 . S
C884 C886 1.384 . S
C885 C884 1.377 . S
C885 C891 1.390 . S
C886 H877 0.930 . S
C886 C884 1.384 . S
C886 C887 1.372 . S
C887 C886 1.372 . S
C887 C888 1.400 . S
C887 C892 1.490 . S
C888 H878 0.930 . S
C888 C887 1.400 . S
C888 C891 1.386 . S
H889 C905 0.930 . S
H890 C906 0.931 . S
C891 H879 0.929 . S
C891 C885 1.390 . S
C891 C888 1.386 . S
C892 C887 1.490 . S
C892 C894 1.395 . S
C892 C895 1.403 . S
H893 C899 0.930 . S
C894 H880 0.930 . S
C894 C892 1.395 . S
C894 C897 1.403 . S
C895 C892 1.403 . S
C895 C896 1.524 . S
C895 C899 1.400 . S
C896 H881 0.960 . S
C896 H882 0.960 . S
C896 H883 0.960 . S
C896 C895 1.524 . S
C897 C894 1.403 . S
C897 C898 1.392 . S
C897 C901 1.495 . S
C898 C897 1.392 . S
C898 C899 1.385 . S
C898 C900 1.478 . S
C899 H893 0.930 . S
C899 C895 1.400 . S
C899 C898 1.385 . S
C900 C898 1.478 . S
C900 C902 1.381 . S
C900 C906 1.383 . S
C901 C897 1.495 . S
C901 H907 0.959 . S
C901 H908 0.961 . S
C901 H909 0.960 . S
C902 C900 1.381 . S
C902 C903 1.394 . S
C902 H910 0.930 . S
C903 C902 1.394 . S
C903 C904 1.383 . S
C903 H911 0.929 . S
C904 C903 1.383 . S
C904 C905 1.377 . S
C905 H889 0.930 . S
C905 C904 1.377 . S
C905 C906 1.379 . S
C906 H890 0.931 . S
C906 C900 1.383 . S
C906 C905 1.379 . S
H907 C901 0.959 . S
H908 C901 0.961 . S
H909 C901 0.960 . S
H910 C902 0.930 . S
H911 C903 0.929 . S
H912 C920 0.929 . S
H913 C922 0.930 . S
H914 C924 0.930 . S
H915 C927 0.929 . S
H916 C930 0.930 . S
H917 C932 0.960 . S
H918 C932 0.960 . S
H919 C932 0.960 . S
C920 H912 0.929 . S
C920 C921 1.377 . S
C920 C922 1.384 . S
C921 C920 1.377 . S
C921 C927 1.390 . S
C922 H913 0.930 . S
C922 C920 1.384 . S
C922 C923 1.372 . S
C923 C922 1.372 . S
C923 C924 1.400 . S
C923 C928 1.490 . S
C924 H914 0.930 . S
C924 C923 1.400 . S
C924 C927 1.386 . S
H925 C941 0.930 . S
H926 C942 0.931 . S
C927 H915 0.929 . S
C927 C921 1.390 . S
C927 C924 1.386 . S
C928 C923 1.490 . S
C928 C930 1.395 . S
C928 C931 1.403 . S
H929 C935 0.930 . S
C930 H916 0.930 . S
C930 C928 1.395 . S
C930 C933 1.403 . S
C931 C928 1.403 . S
C931 C932 1.524 . S
C931 C935 1.400 . S
C932 H917 0.960 . S
C932 H918 0.960 . S
C932 H919 0.960 . S
C932 C931 1.524 . S
C933 C930 1.403 . S
C933 C934 1.392 . S
C933 C937 1.495 . S
C934 C933 1.392 . S
C934 C935 1.385 . S
C934 C936 1.478 . S
C935 H929 0.930 . S
C935 C931 1.400 . S
C935 C934 1.385 . S
C936 C934 1.478 . S
C936 C938 1.381 . S
C936 C942 1.383 . S
C937 C933 1.495 . S
C937 H943 0.959 . S
C937 H944 0.961 . S
C937 H945 0.960 . S
C938 C936 1.381 . S
C938 C939 1.394 . S
C938 H946 0.930 . S
C939 C938 1.394 . S
C939 C940 1.383 . S
C939 H947 0.929 . S
C940 C939 1.383 . S
C940 C941 1.377 . S
C941 H925 0.930 . S
C941 C940 1.377 . S
C941 C942 1.379 . S
C942 H926 0.931 . S
C942 C936 1.383 . S
C942 C941 1.379 . S
H943 C937 0.959 . S
H944 C937 0.961 . S
H945 C937 0.960 . S
H946 C938 0.930 . S
H947 C939 0.929 . S
H948 C956 0.929 . S
H949 C958 0.930 . S
H950 C960 0.930 . S
H951 C963 0.929 . S
H952 C966 0.930 . S
H953 C968 0.960 . S
H954 C968 0.960 . S
H955 C968 0.960 . S
C956 H948 0.929 . S
C956 C957 1.377 . S
C956 C958 1.384 . S
C957 C956 1.377 . S
C957 C963 1.390 . S
C958 H949 0.930 . S
C958 C956 1.384 . S
C958 C959 1.372 . S
C959 C958 1.372 . S
C959 C960 1.400 . S
C959 C964 1.490 . S
C960 H950 0.930 . S
C960 C959 1.400 . S
C960 C963 1.386 . S
H961 C977 0.930 . S
H962 C978 0.931 . S
C963 H951 0.929 . S
C963 C957 1.390 . S
C963 C960 1.386 . S
C964 C959 1.490 . S
C964 C966 1.395 . S
C964 C967 1.403 . S
H965 C971 0.930 . S
C966 H952 0.930 . S
C966 C964 1.395 . S
C966 C969 1.403 . S
C967 C964 1.403 . S
C967 C968 1.524 . S
C967 C971 1.400 . S
C968 H953 0.960 . S
C968 H954 0.960 . S
C968 H955 0.960 . S
C968 C967 1.524 . S
C969 C966 1.403 . S
C969 C970 1.392 . S
C969 C973 1.495 . S
C970 C969 1.392 . S
C970 C971 1.385 . S
C970 C972 1.478 . S
C971 H965 0.930 . S
C971 C967 1.400 . S
C971 C970 1.385 . S
C972 C970 1.478 . S
C972 C974 1.381 . S
C972 C978 1.383 . S
C973 C969 1.495 . S
C973 H979 0.959 . S
C973 H980 0.961 . S
C973 H981 0.960 . S
C974 C972 1.381 . S
C974 C975 1.394 . S
C974 H982 0.930 . S
C975 C974 1.394 . S
C975 C976 1.383 . S
C975 H983 0.929 . S
C976 C975 1.383 . S
C976 C977 1.377 . S
C977 H961 0.930 . S
C977 C976 1.377 . S
C977 C978 1.379 . S
C978 H962 0.931 . S
C978 C972 1.383 . S
C978 C977 1.379 . S
H979 C973 0.959 . S
H980 C973 0.961 . S
H981 C973 0.960 . S
H982 C974 0.930 . S
H983 C975 0.929 . S
H984 C992 0.929 . S
H985 C994 0.930 . S
H986 C996 0.930 . S
H987 C999 0.929 . S
H988 C1002 0.930 . S
H989 C1004 0.960 . S
H990 C1004 0.960 . S
H991 C1004 0.960 . S
C992 H984 0.929 . S
C992 C993 1.377 . S
C992 C994 1.384 . S
C993 C992 1.377 . S
C993 C999 1.390 . S
C994 H985 0.930 . S
C994 C992 1.384 . S
C994 C995 1.372 . S
C995 C994 1.372 . S
C995 C996 1.400 . S
C995 C1000 1.490 . S
C996 H986 0.930 . S
C996 C995 1.400 . S
C996 C999 1.386 . S
H997 C1013 0.930 . S
H998 C1014 0.931 . S
C999 H987 0.929 . S
C999 C993 1.390 . S
C999 C996 1.386 . S
C1000 C995 1.490 . S
C1000 C1002 1.395 . S
C1000 C1003 1.403 . S
H1001 C1007 0.930 . S
C1002 H988 0.930 . S
C1002 C1000 1.395 . S
C1002 C1005 1.403 . S
C1003 C1000 1.403 . S
C1003 C1004 1.524 . S
C1003 C1007 1.400 . S
C1004 H989 0.960 . S
C1004 H990 0.960 . S
C1004 H991 0.960 . S
C1004 C1003 1.524 . S
C1005 C1002 1.403 . S
C1005 C1006 1.392 . S
C1005 C1009 1.495 . S
C1006 C1005 1.392 . S
C1006 C1007 1.385 . S
C1006 C1008 1.478 . S
C1007 H1001 0.930 . S
C1007 C1003 1.400 . S
C1007 C1006 1.385 . S
C1008 C1006 1.478 . S
C1008 C1010 1.381 . S
C1008 C1014 1.383 . S
C1009 C1005 1.495 . S
C1009 H1015 0.959 . S
C1009 H1016 0.961 . S
C1009 H1017 0.960 . S
C1010 C1008 1.381 . S
C1010 C1011 1.394 . S
C1010 H1018 0.930 . S
C1011 C1010 1.394 . S
C1011 C1012 1.383 . S
C1011 H1019 0.929 . S
C1012 C1011 1.383 . S
C1012 C1013 1.377 . S
C1013 H997 0.930 . S
C1013 C1012 1.377 . S
C1013 C1014 1.379 . S
C1014 H998 0.931 . S
C1014 C1008 1.383 . S
C1014 C1013 1.379 . S
H1015 C1009 0.959 . S
H1016 C1009 0.961 . S
H1017 C1009 0.960 . S
H1018 C1010 0.930 . S
H1019 C1011 0.929 . S
H1020 C1028 0.929 . S
H1021 C1030 0.930 . S
H1022 C1032 0.930 . S
H1023 C1035 0.929 . S
H1024 C1038 0.930 . S
H1025 C1040 0.960 . S
H1026 C1040 0.960 . S
H1027 C1040 0.960 . S
C1028 H1020 0.929 . S
C1028 C1029 1.377 . S
C1028 C1030 1.384 . S
C1029 C1028 1.377 . S
C1029 C1035 1.390 . S
C1030 H1021 0.930 . S
C1030 C1028 1.384 . S
C1030 C1031 1.372 . S
C1031 C1030 1.372 . S
C1031 C1032 1.400 . S
C1031 C1036 1.490 . S
C1032 H1022 0.930 . S
C1032 C1031 1.400 . S
C1032 C1035 1.386 . S
H1033 C1049 0.930 . S
H1034 C1050 0.931 . S
C1035 H1023 0.929 . S
C1035 C1029 1.390 . S
C1035 C1032 1.386 . S
C1036 C1031 1.490 . S
C1036 C1038 1.395 . S
C1036 C1039 1.403 . S
H1037 C1043 0.930 . S
C1038 H1024 0.930 . S
C1038 C1036 1.395 . S
C1038 C1041 1.403 . S
C1039 C1036 1.403 . S
C1039 C1040 1.524 . S
C1039 C1043 1.400 . S
C1040 H1025 0.960 . S
C1040 H1026 0.960 . S
C1040 H1027 0.960 . S
C1040 C1039 1.524 . S
C1041 C1038 1.403 . S
C1041 C1042 1.392 . S
C1041 C1045 1.495 . S
C1042 C1041 1.392 . S
C1042 C1043 1.385 . S
C1042 C1044 1.478 . S
C1043 H1037 0.930 . S
C1043 C1039 1.400 . S
C1043 C1042 1.385 . S
C1044 C1042 1.478 . S
C1044 C1046 1.381 . S
C1044 C1050 1.383 . S
C1045 C1041 1.495 . S
C1045 H1051 0.959 . S
C1045 H1052 0.961 . S
C1045 H1053 0.960 . S
C1046 C1044 1.381 . S
C1046 C1047 1.394 . S
C1046 H1054 0.930 . S
C1047 C1046 1.394 . S
C1047 C1048 1.383 . S
C1047 H1055 0.929 . S
C1048 C1047 1.383 . S
C1048 C1049 1.377 . S
C1049 H1033 0.930 . S
C1049 C1048 1.377 . S
C1049 C1050 1.379 . S
C1050 H1034 0.931 . S
C1050 C1044 1.383 . S
C1050 C1049 1.379 . S
H1051 C1045 0.959 . S
H1052 C1045 0.961 . S
H1053 C1045 0.960 . S
H1054 C1046 0.930 . S
H1055 C1047 0.929 . S
H1056 C1064 0.929 . S
H1057 C1066 0.930 . S
H1058 C1068 0.930 . S
H1059 C1071 0.929 . S
H1060 C1074 0.930 . S
H1061 C1076 0.960 . S
H1062 C1076 0.960 . S
H1063 C1076 0.960 . S
C1064 H1056 0.929 . S
C1064 C1065 1.377 1_556 S
C1064 C1066 1.384 . S
C1065 C1064 1.377 1_554 S
C1065 C1071 1.390 . S
C1066 H1057 0.930 . S
C1066 C1064 1.384 . S
C1066 C1067 1.372 1_556 S
C1067 C1066 1.372 1_554 S
C1067 C1068 1.400 . S
C1067 C1072 1.490 . S
C1068 H1058 0.930 . S
C1068 C1067 1.400 . S
C1068 C1071 1.386 . S
H1069 C1085 0.930 . S
H1070 C1086 0.931 . S
C1071 H1059 0.929 . S
C1071 C1065 1.390 . S
C1071 C1068 1.386 . S
C1072 C1067 1.490 . S
C1072 C1074 1.395 . S
C1072 C1075 1.403 . S
H1073 C1079 0.930 . S
C1074 H1060 0.930 . S
C1074 C1072 1.395 . S
C1074 C1077 1.403 . S
C1075 C1072 1.403 . S
C1075 C1076 1.524 . S
C1075 C1079 1.400 . S
C1076 H1061 0.960 . S
C1076 H1062 0.960 . S
C1076 H1063 0.960 . S
C1076 C1075 1.524 . S
C1077 C1074 1.403 . S
C1077 C1078 1.392 . S
C1077 C1081 1.495 . S
C1078 C1077 1.392 . S
C1078 C1079 1.385 . S
C1078 C1080 1.478 . S
C1079 H1073 0.930 . S
C1079 C1075 1.400 . S
C1079 C1078 1.385 . S
C1080 C1078 1.478 . S
C1080 C1082 1.381 . S
C1080 C1086 1.383 . S
C1081 C1077 1.495 . S
C1081 H1087 0.959 . S
C1081 H1088 0.961 . S
C1081 H1089 0.960 . S
C1082 C1080 1.381 . S
C1082 C1083 1.394 . S
C1082 H1090 0.930 1_554 S
C1083 C1082 1.394 . S
C1083 C1084 1.383 . S
C1083 H1091 0.929 . S
C1084 C1083 1.383 . S
C1084 C1085 1.377 . S
C1085 H1069 0.930 . S
C1085 C1084 1.377 . S
C1085 C1086 1.379 . S
C1086 H1070 0.931 . S
C1086 C1080 1.383 . S
C1086 C1085 1.379 . S
H1087 C1081 0.959 . S
H1088 C1081 0.961 . S
H1089 C1081 0.960 . S
H1090 C1082 0.930 1_556 S
H1091 C1083 0.929 . S
H1092 C1100 0.929 . S
H1093 C1102 0.930 . S
H1094 C1104 0.930 . S
H1095 C1107 0.929 . S
H1096 C1110 0.930 . S
H1097 C1112 0.960 . S
H1098 C1112 0.960 . S
H1099 C1112 0.960 1_554 S
C1100 H1092 0.929 . S
C1100 C1101 1.377 1_556 S
C1100 C1102 1.384 . S
C1101 C1100 1.377 1_554 S
C1101 C1107 1.390 . S
C1102 H1093 0.930 . S
C1102 C1100 1.384 . S
C1102 C1103 1.372 1_556 S
C1103 C1102 1.372 1_554 S
C1103 C1104 1.400 . S
C1103 C1108 1.490 . S
C1104 H1094 0.930 . S
C1104 C1103 1.400 . S
C1104 C1107 1.386 . S
H1105 C1121 0.930 . S
H1106 C1122 0.931 . S
C1107 H1095 0.929 . S
C1107 C1101 1.390 . S
C1107 C1104 1.386 . S
C1108 C1103 1.490 . S
C1108 C1110 1.395 . S
C1108 C1111 1.403 . S
H1109 C1115 0.930 . S
C1110 H1096 0.930 . S
C1110 C1108 1.395 . S
C1110 C1113 1.403 . S
C1111 C1108 1.403 . S
C1111 C1112 1.524 1_554 S
C1111 C1115 1.400 . S
C1112 H1097 0.960 . S
C1112 H1098 0.960 . S
C1112 H1099 0.960 1_556 S
C1112 C1111 1.524 1_556 S
C1113 C1110 1.403 . S
C1113 C1114 1.392 . S
C1113 C1117 1.495 . S
C1114 C1113 1.392 . S
C1114 C1115 1.385 . S
C1114 C1116 1.478 . S
C1115 H1109 0.930 . S
C1115 C1111 1.400 . S
C1115 C1114 1.385 . S
C1116 C1114 1.478 . S
C1116 C1118 1.381 . S
C1116 C1122 1.383 . S
C1117 C1113 1.495 . S
C1117 H1123 0.959 . S
C1117 H1124 0.961 . S
C1117 H1125 0.960 . S
C1118 C1116 1.381 . S
C1118 C1119 1.394 . S
C1118 H1126 0.930 . S
C1119 C1118 1.394 . S
C1119 C1120 1.383 . S
C1119 H1127 0.929 . S
C1120 C1119 1.383 . S
C1120 C1121 1.377 . S
C1121 H1105 0.930 . S
C1121 C1120 1.377 . S
C1121 C1122 1.379 . S
C1122 H1106 0.931 . S
C1122 C1116 1.383 . S
C1122 C1121 1.379 . S
H1123 C1117 0.959 . S
H1124 C1117 0.961 . S
H1125 C1117 0.960 . S
H1126 C1118 0.930 . S
H1127 C1119 0.929 . S
H1128 C1136 0.929 . S
H1129 C1138 0.934 . S
H1130 C1140 0.930 . S
H1131 C1143 0.929 . S
H1132 C1146 0.930 1_556 S
H1133 C1148 0.960 . S
H1134 C1148 0.960 . S
H1135 C1148 0.960 . S
C1136 H1128 0.929 . S
C1136 C1137 1.377 . S
C1136 C1138 1.384 . S
C1137 C1136 1.377 . S
C1137 C1143 1.390 . S
C1138 H1129 0.934 . S
C1138 C1136 1.384 . S
C1138 C1139 1.372 . S
C1139 C1138 1.372 . S
C1139 C1140 1.400 . S
C1139 C1144 1.490 . S
C1140 H1130 0.930 . S
C1140 C1139 1.400 . S
C1140 C1143 1.386 . S
H1141 C1157 0.930 . S
H1142 C1158 0.931 . S
C1143 H1131 0.929 . S
C1143 C1137 1.390 . S
C1143 C1140 1.386 . S
C1144 C1139 1.490 . S
C1144 C1146 1.395 . S
C1144 C1147 1.403 . S
H1145 C1151 0.930 . S
C1146 H1132 0.930 1_554 S
C1146 C1144 1.395 . S
C1146 C1149 1.396 1_554 S
C1147 C1144 1.403 . S
C1147 C1148 1.524 . S
C1147 C1151 1.400 . S
C1148 H1133 0.960 . S
C1148 H1134 0.960 . S
C1148 H1135 0.960 . S
C1148 C1147 1.524 . S
C1149 C1146 1.396 1_556 S
C1149 C1150 1.376 1_556 S
C1149 C1153 1.520 . S
C1150 C1149 1.376 1_554 S
C1150 C1151 1.385 . S
C1150 C1152 1.478 . S
C1151 H1145 0.930 . S
C1151 C1147 1.400 . S
C1151 C1150 1.385 . S
C1152 C1150 1.478 . S
C1152 C1154 1.381 1_554 S
C1152 C1158 1.383 . S
C1153 C1149 1.520 . S
C1153 H1159 0.959 . S
C1153 H1160 0.961 . S
C1153 H1161 0.960 . S
C1154 C1152 1.381 1_556 S
C1154 C1155 1.394 . S
C1154 H1162 0.930 . S
C1155 C1154 1.394 . S
C1155 C1156 1.383 1_556 S
C1155 H1163 0.929 . S
C1156 C1155 1.383 1_554 S
C1156 C1157 1.377 . S
C1157 H1141 0.930 . S
C1157 C1156 1.377 . S
C1157 C1158 1.379 . S
C1158 H1142 0.931 . S
C1158 C1152 1.383 . S
C1158 C1157 1.379 . S
H1159 C1153 0.959 . S
H1160 C1153 0.961 . S
H1161 C1153 0.960 . S
H1162 C1154 0.930 . S
H1163 C1155 0.929 . S
H1164 C1172 0.929 . S
H1165 C1174 0.930 . S
H1166 C1176 0.930 . S
H1167 C1179 0.929 . S
H1168 C1182 0.930 . S
H1169 C1184 0.960 . S
H1170 C1184 0.960 . S
H1171 C1184 0.960 . S
C1172 H1164 0.929 . S
C1172 C1173 1.377 . S
C1172 C1174 1.384 . S
C1173 C1172 1.377 . S
C1173 C1179 1.390 . S
C1174 H1165 0.930 . S
C1174 C1172 1.384 . S
C1174 C1175 1.372 . S
C1175 C1174 1.372 . S
C1175 C1176 1.400 . S
C1175 C1180 1.490 . S
C1176 H1166 0.930 . S
C1176 C1175 1.400 . S
C1176 C1179 1.386 . S
H1177 C1193 0.930 . S
H1178 C1194 0.931 . S
C1179 H1167 0.929 . S
C1179 C1173 1.390 . S
C1179 C1176 1.386 . S
C1180 C1175 1.490 . S
C1180 C1182 1.395 . S
C1180 C1183 1.403 . S
H1181 C1187 0.930 . S
C1182 H1168 0.930 . S
C1182 C1180 1.395 . S
C1182 C1185 1.403 . S
C1183 C1180 1.403 . S
C1183 C1184 1.524 . S
C1183 C1187 1.400 . S
C1184 H1169 0.960 . S
C1184 H1170 0.960 . S
C1184 H1171 0.960 . S
C1184 C1183 1.524 . S
C1185 C1182 1.403 . S
C1185 C1186 1.392 . S
C1185 C1189 1.495 . S
C1186 C1185 1.392 . S
C1186 C1187 1.385 . S
C1186 C1188 1.478 . S
C1187 H1181 0.930 . S
C1187 C1183 1.400 . S
C1187 C1186 1.385 . S
C1188 C1186 1.478 . S
C1188 C1190 1.381 . S
C1188 C1194 1.383 . S
C1189 C1185 1.495 . S
C1189 H1195 0.959 . S
C1189 H1196 0.961 . S
C1189 H1197 0.960 . S
C1190 C1188 1.381 . S
C1190 C1191 1.394 . S
C1190 H1198 0.930 . S
C1191 C1190 1.394 . S
C1191 C1192 1.383 . S
C1191 H1199 0.929 . S
C1192 C1191 1.383 . S
C1192 C1193 1.377 . S
C1193 H1177 0.930 . S
C1193 C1192 1.377 . S
C1193 C1194 1.379 . S
C1194 H1178 0.931 . S
C1194 C1188 1.383 . S
C1194 C1193 1.379 . S
H1195 C1189 0.959 . S
H1196 C1189 0.961 . S
H1197 C1189 0.960 . S
H1198 C1190 0.930 . S
H1199 C1191 0.929 . S
H1200 C1208 0.929 . S
H1201 C1210 0.930 . S
H1202 C1212 0.930 . S
H1203 C1215 0.929 . S
H1204 C1218 0.930 . S
H1205 C1220 0.960 . S
H1206 C1220 0.960 . S
H1207 C1220 0.960 . S
C1208 H1200 0.929 . S
C1208 C1209 1.377 . S
C1208 C1210 1.384 . S
C1209 C1208 1.377 . S
C1209 C1215 1.390 . S
C1210 H1201 0.930 . S
C1210 C1208 1.384 . S
C1210 C1211 1.372 . S
C1211 C1210 1.372 . S
C1211 C1212 1.400 . S
C1211 C1216 1.490 . S
C1212 H1202 0.930 . S
C1212 C1211 1.400 . S
C1212 C1215 1.386 . S
H1213 C1229 0.930 . S
H1214 C1230 0.931 . S
C1215 H1203 0.929 . S
C1215 C1209 1.390 . S
C1215 C1212 1.386 . S
C1216 C1211 1.490 . S
C1216 C1218 1.395 . S
C1216 C1219 1.403 . S
H1217 C1223 0.930 . S
C1218 H1204 0.930 . S
C1218 C1216 1.395 . S
C1218 C1221 1.403 . S
C1219 C1216 1.403 . S
C1219 C1220 1.524 . S
C1219 C1223 1.400 . S
C1220 H1205 0.960 . S
C1220 H1206 0.960 . S
C1220 H1207 0.960 . S
C1220 C1219 1.524 . S
C1221 C1218 1.403 . S
C1221 C1222 1.392 . S
C1221 C1225 1.495 . S
C1222 C1221 1.392 . S
C1222 C1223 1.385 . S
C1222 C1224 1.478 . S
C1223 H1217 0.930 . S
C1223 C1219 1.400 . S
C1223 C1222 1.385 . S
C1224 C1222 1.478 . S
C1224 C1226 1.381 . S
C1224 C1230 1.383 . S
C1225 C1221 1.495 . S
C1225 H1231 0.959 . S
C1225 H1232 0.961 . S
C1225 H1233 0.960 . S
C1226 C1224 1.381 . S
C1226 C1227 1.394 . S
C1226 H1234 0.930 . S
C1227 C1226 1.394 . S
C1227 C1228 1.383 . S
C1227 H1235 0.929 . S
C1228 C1227 1.383 . S
C1228 C1229 1.377 . S
C1229 H1213 0.930 . S
C1229 C1228 1.377 . S
C1229 C1230 1.379 . S
C1230 H1214 0.931 . S
C1230 C1224 1.383 . S
C1230 C1229 1.379 . S
H1231 C1225 0.959 . S
H1232 C1225 0.961 . S
H1233 C1225 0.960 . S
H1234 C1226 0.930 . S
H1235 C1227 0.929 . S
H1236 C1244 0.929 . S
H1237 C1246 0.930 . S
H1238 C1248 0.930 . S
H1239 C1251 0.929 . S
H1240 C1254 0.930 . S
H1241 C1256 0.960 . S
H1242 C1256 0.960 . S
H1243 C1256 0.960 . S
C1244 H1236 0.929 . S
C1244 C1245 1.377 . S
C1244 C1246 1.384 . S
C1245 C1244 1.377 . S
C1245 C1251 1.390 . S
C1246 H1237 0.930 . S
C1246 C1244 1.384 . S
C1246 C1247 1.372 . S
C1247 C1246 1.372 . S
C1247 C1248 1.400 . S
C1247 C1252 1.490 . S
C1248 H1238 0.930 . S
C1248 C1247 1.400 . S
C1248 C1251 1.386 . S
H1249 C1265 0.930 . S
H1250 C1266 0.931 . S
C1251 H1239 0.929 . S
C1251 C1245 1.390 . S
C1251 C1248 1.386 . S
C1252 C1247 1.490 . S
C1252 C1254 1.395 . S
C1252 C1255 1.403 . S
H1253 C1259 0.930 . S
C1254 H1240 0.930 . S
C1254 C1252 1.395 . S
C1254 C1257 1.403 . S
C1255 C1252 1.403 . S
C1255 C1256 1.524 . S
C1255 C1259 1.400 . S
C1256 H1241 0.960 . S
C1256 H1242 0.960 . S
C1256 H1243 0.960 . S
C1256 C1255 1.524 . S
C1257 C1254 1.403 . S
C1257 C1258 1.392 . S
C1257 C1261 1.495 . S
C1258 C1257 1.392 . S
C1258 C1259 1.385 . S
C1258 C1260 1.478 . S
C1259 H1253 0.930 . S
C1259 C1255 1.400 . S
C1259 C1258 1.385 . S
C1260 C1258 1.478 . S
C1260 C1262 1.381 . S
C1260 C1266 1.383 . S
C1261 C1257 1.495 . S
C1261 H1267 0.959 . S
C1261 H1268 0.961 . S
C1261 H1269 0.960 . S
C1262 C1260 1.381 . S
C1262 C1263 1.394 . S
C1262 H1270 0.930 . S
C1263 C1262 1.394 . S
C1263 C1264 1.383 . S
C1263 H1271 0.929 . S
C1264 C1263 1.383 . S
C1264 C1265 1.377 . S
C1265 H1249 0.930 . S
C1265 C1264 1.377 . S
C1265 C1266 1.379 . S
C1266 H1250 0.931 . S
C1266 C1260 1.383 . S
C1266 C1265 1.379 . S
H1267 C1261 0.959 . S
H1268 C1261 0.961 . S
H1269 C1261 0.960 . S
H1270 C1262 0.930 . S
H1271 C1263 0.929 . S
H1272 C1280 0.929 . S
H1273 C1282 0.930 . S
H1274 C1284 0.930 . S
H1275 C1287 0.929 . S
H1276 C1290 0.930 . S
H1277 C1292 0.960 . S
H1278 C1292 0.960 . S
H1279 C1292 0.960 . S
C1280 H1272 0.929 . S
C1280 C1281 1.377 . S
C1280 C1282 1.384 . S
C1281 C1280 1.377 . S
C1281 C1287 1.390 . S
C1282 H1273 0.930 . S
C1282 C1280 1.384 . S
C1282 C1283 1.372 . S
C1283 C1282 1.372 . S
C1283 C1284 1.400 . S
C1283 C1288 1.490 . S
C1284 H1274 0.930 . S
C1284 C1283 1.400 . S
C1284 C1287 1.386 . S
H1285 C1301 0.930 . S
H1286 C1302 0.931 . S
C1287 H1275 0.929 . S
C1287 C1281 1.390 . S
C1287 C1284 1.386 . S
C1288 C1283 1.490 . S
C1288 C1290 1.395 . S
C1288 C1291 1.403 . S
H1289 C1295 0.930 . S
C1290 H1276 0.930 . S
C1290 C1288 1.395 . S
C1290 C1293 1.403 . S
C1291 C1288 1.403 . S
C1291 C1292 1.524 . S
C1291 C1295 1.400 . S
C1292 H1277 0.960 . S
C1292 H1278 0.960 . S
C1292 H1279 0.960 . S
C1292 C1291 1.524 . S
C1293 C1290 1.403 . S
C1293 C1294 1.392 . S
C1293 C1297 1.495 . S
C1294 C1293 1.392 . S
C1294 C1295 1.385 . S
C1294 C1296 1.478 . S
C1295 H1289 0.930 . S
C1295 C1291 1.400 . S
C1295 C1294 1.385 . S
C1296 C1294 1.478 . S
C1296 C1298 1.381 . S
C1296 C1302 1.383 1_556 S
C1297 C1293 1.495 . S
C1297 H1303 0.959 . S
C1297 H1304 0.961 . S
C1297 H1305 0.960 . S
C1298 C1296 1.381 . S
C1298 C1299 1.394 . S
C1298 H1306 0.930 . S
C1299 C1298 1.394 . S
C1299 C1300 1.383 . S
C1299 H1307 0.929 . S
C1300 C1299 1.383 . S
C1300 C1301 1.377 1_556 S
C1301 H1285 0.930 . S
C1301 C1300 1.377 1_554 S
C1301 C1302 1.379 . S
C1302 H1286 0.931 . S
C1302 C1296 1.383 1_554 S
C1302 C1301 1.379 . S
H1303 C1297 0.959 . S
H1304 C1297 0.961 . S
H1305 C1297 0.960 . S
H1306 C1298 0.930 . S
H1307 C1299 0.929 . S
H1308 C1316 0.929 . S
H1309 C1318 0.930 . S
H1310 C1320 0.930 . S
H1311 C1323 0.929 . S
H1312 C1326 0.930 . S
H1313 C1328 0.960 . S
H1314 C1328 0.960 . S
H1315 C1328 0.960 . S
C1316 H1308 0.929 . S
C1316 C1317 1.377 1_554 S
C1316 C1318 1.384 . S
C1317 C1316 1.377 1_556 S
C1317 C1323 1.390 . S
C1318 H1309 0.930 . S
C1318 C1316 1.384 . S
C1318 C1319 1.372 1_554 S
C1319 C1318 1.372 1_556 S
C1319 C1320 1.400 . S
C1319 C1324 1.490 . S
C1320 H1310 0.930 . S
C1320 C1319 1.400 . S
C1320 C1323 1.386 . S
H1321 C1337 0.930 . S
H1322 C1338 0.931 . S
C1323 H1311 0.929 . S
C1323 C1317 1.390 . S
C1323 C1320 1.386 . S
C1324 C1319 1.490 . S
C1324 C1326 1.395 . S
C1324 C1327 1.403 . S
H1325 C1331 0.930 . S
C1326 H1312 0.930 . S
C1326 C1324 1.395 . S
C1326 C1329 1.403 . S
C1327 C1324 1.403 . S
C1327 C1328 1.524 . S
C1327 C1331 1.400 . S
C1328 H1313 0.960 . S
C1328 H1314 0.960 . S
C1328 H1315 0.960 . S
C1328 C1327 1.524 . S
C1329 C1326 1.403 . S
C1329 C1330 1.392 . S
C1329 C1333 1.495 . S
C1330 C1329 1.392 . S
C1330 C1331 1.385 . S
C1330 C1332 1.478 . S
C1331 H1325 0.930 . S
C1331 C1327 1.400 . S
C1331 C1330 1.385 . S
C1332 C1330 1.478 . S
C1332 C1334 1.381 . S
C1332 C1338 1.383 . S
C1333 C1329 1.495 . S
C1333 H1339 0.959 . S
C1333 H1340 0.961 . S
C1333 H1341 0.960 . S
C1334 C1332 1.381 . S
C1334 C1335 1.394 . S
C1334 H1342 0.930 1_556 S
C1335 C1334 1.394 . S
C1335 C1336 1.383 . S
C1335 H1343 0.929 . S
C1336 C1335 1.383 . S
C1336 C1337 1.377 . S
C1337 H1321 0.930 . S
C1337 C1336 1.377 . S
C1337 C1338 1.379 . S
C1338 H1322 0.931 . S
C1338 C1332 1.383 . S
C1338 C1337 1.379 . S
H1339 C1333 0.959 . S
H1340 C1333 0.961 . S
H1341 C1333 0.960 . S
H1342 C1334 0.930 1_554 S
H1343 C1335 0.929 . S
H1344 C1352 0.929 . S
H1345 C1354 0.930 . S
H1346 C1356 0.930 . S
H1347 C1359 0.929 . S
H1348 C1362 0.930 . S
H1349 C1364 0.960 . S
H1350 C1364 0.960 . S
H1351 C1364 0.960 . S
C1352 H1344 0.929 . S
C1352 C1353 1.377 . S
C1352 C1354 1.384 . S
C1353 C1352 1.377 . S
C1353 C1359 1.390 . S
C1354 H1345 0.930 . S
C1354 C1352 1.384 . S
C1354 C1355 1.372 . S
C1355 C1354 1.372 . S
C1355 C1356 1.400 . S
C1355 C1360 1.490 . S
C1356 H1346 0.930 . S
C1356 C1355 1.400 . S
C1356 C1359 1.386 . S
H1357 C1373 0.930 . S
H1358 C1374 0.931 . S
C1359 H1347 0.929 . S
C1359 C1353 1.390 . S
C1359 C1356 1.386 . S
C1360 C1355 1.490 . S
C1360 C1362 1.395 . S
C1360 C1363 1.403 . S
H1361 C1367 0.930 . S
C1362 H1348 0.930 . S
C1362 C1360 1.395 . S
C1362 C1365 1.403 . S
C1363 C1360 1.403 . S
C1363 C1364 1.524 . S
C1363 C1367 1.400 . S
C1364 H1349 0.960 . S
C1364 H1350 0.960 . S
C1364 H1351 0.960 . S
C1364 C1363 1.524 . S
C1365 C1362 1.403 . S
C1365 C1366 1.392 . S
C1365 C1369 1.495 . S
C1366 C1365 1.392 . S
C1366 C1367 1.385 . S
C1366 C1368 1.478 . S
C1367 H1361 0.930 . S
C1367 C1363 1.400 . S
C1367 C1366 1.385 . S
C1368 C1366 1.478 . S
C1368 C1370 1.381 . S
C1368 C1374 1.383 1_556 S
C1369 C1365 1.495 . S
C1369 H1375 0.959 . S
C1369 H1376 0.961 1_556 S
C1369 H1377 0.960 . S
C1370 C1368 1.381 . S
C1370 C1371 1.394 . S
C1370 H1378 0.930 . S
C1371 C1370 1.394 . S
C1371 C1372 1.383 . S
C1371 H1379 0.929 . S
C1372 C1371 1.383 . S
C1372 C1373 1.377 1_556 S
C1373 H1357 0.930 . S
C1373 C1372 1.377 1_554 S
C1373 C1374 1.379 . S
C1374 H1358 0.931 . S
C1374 C1368 1.383 1_554 S
C1374 C1373 1.379 . S
H1375 C1369 0.959 . S
H1376 C1369 0.961 1_554 S
H1377 C1369 0.960 . S
H1378 C1370 0.930 . S
H1379 C1371 0.929 . S
H1380 C1388 0.929 . S
H1381 C1390 0.930 . S
H1382 C1392 0.930 . S
H1383 C1395 0.929 . S
H1384 C1398 0.930 . S
H1385 C1400 0.960 . S
H1386 C1400 0.960 . S
H1387 C1400 0.960 . S
C1388 H1380 0.929 . S
C1388 C1389 1.377 . S
C1388 C1390 1.384 . S
C1389 C1388 1.377 . S
C1389 C1395 1.390 . S
C1390 H1381 0.930 . S
C1390 C1388 1.384 . S
C1390 C1391 1.372 . S
C1391 C1390 1.372 . S
C1391 C1392 1.400 . S
C1391 C1396 1.490 . S
C1392 H1382 0.930 . S
C1392 C1391 1.400 . S
C1392 C1395 1.386 . S
H1393 C1409 0.930 . S
H1394 C1410 0.931 . S
C1395 H1383 0.929 . S
C1395 C1389 1.390 . S
C1395 C1392 1.386 . S
C1396 C1391 1.490 . S
C1396 C1398 1.395 . S
C1396 C1399 1.403 . S
H1397 C1403 0.930 . S
C1398 H1384 0.930 . S
C1398 C1396 1.395 . S
C1398 C1401 1.403 . S
C1399 C1396 1.403 . S
C1399 C1400 1.524 . S
C1399 C1403 1.400 . S
C1400 H1385 0.960 . S
C1400 H1386 0.960 . S
C1400 H1387 0.960 . S
C1400 C1399 1.524 . S
C1401 C1398 1.403 . S
C1401 C1402 1.392 . S
C1401 C1405 1.495 . S
C1402 C1401 1.392 . S
C1402 C1403 1.385 . S
C1402 C1404 1.478 . S
C1403 H1397 0.930 . S
C1403 C1399 1.400 . S
C1403 C1402 1.385 . S
C1404 C1402 1.478 . S
C1404 C1406 1.381 . S
C1404 C1410 1.383 . S
C1405 C1401 1.495 . S
C1405 H1411 0.959 . S
C1405 H1412 0.961 . S
C1405 H1413 0.960 . S
C1406 C1404 1.381 . S
C1406 C1407 1.394 . S
C1406 H1414 0.930 . S
C1407 C1406 1.394 . S
C1407 C1408 1.383 . S
C1407 H1415 0.929 . S
C1408 C1407 1.383 . S
C1408 C1409 1.377 . S
C1409 H1393 0.930 . S
C1409 C1408 1.377 . S
C1409 C1410 1.379 . S
C1410 H1394 0.931 . S
C1410 C1404 1.383 . S
C1410 C1409 1.379 . S
H1411 C1405 0.959 . S
H1412 C1405 0.961 . S
H1413 C1405 0.960 . S
H1414 C1406 0.930 . S
H1415 C1407 0.929 . S
H1416 C1424 0.929 . S
H1417 C1426 0.930 . S
H1418 C1428 0.930 . S
H1419 C1431 0.929 . S
H1420 C1434 0.930 . S
H1421 C1436 0.960 . S
H1422 C1436 0.960 . S
H1423 C1436 0.960 . S
C1424 H1416 0.929 . S
C1424 C1425 1.377 . S
C1424 C1426 1.384 . S
C1425 C1424 1.377 . S
C1425 C1431 1.390 . S
C1426 H1417 0.930 . S
C1426 C1424 1.384 . S
C1426 C1427 1.372 . S
C1427 C1426 1.372 . S
C1427 C1428 1.400 . S
C1427 C1432 1.490 . S
C1428 H1418 0.930 . S
C1428 C1427 1.400 . S
C1428 C1431 1.386 . S
H1429 C1445 0.930 . S
H1430 C1446 0.931 . S
C1431 H1419 0.929 . S
C1431 C1425 1.390 . S
C1431 C1428 1.386 . S
C1432 C1427 1.490 . S
C1432 C1434 1.395 . S
C1432 C1435 1.403 . S
H1433 C1439 0.930 . S
C1434 H1420 0.930 . S
C1434 C1432 1.395 . S
C1434 C1437 1.403 . S
C1435 C1432 1.403 . S
C1435 C1436 1.524 . S
C1435 C1439 1.400 . S
C1436 H1421 0.960 . S
C1436 H1422 0.960 . S
C1436 H1423 0.960 . S
C1436 C1435 1.524 . S
C1437 C1434 1.403 . S
C1437 C1438 1.392 . S
C1437 C1441 1.495 . S
C1438 C1437 1.392 . S
C1438 C1439 1.385 . S
C1438 C1440 1.478 . S
C1439 H1433 0.930 . S
C1439 C1435 1.400 . S
C1439 C1438 1.385 . S
C1440 C1438 1.478 . S
C1440 C1442 1.381 . S
C1440 C1446 1.383 . S
C1441 C1437 1.495 . S
C1441 H1447 0.959 . S
C1441 H1448 0.961 . S
C1441 H1449 0.960 . S
C1442 C1440 1.381 . S
C1442 C1443 1.394 . S
C1442 H1450 0.930 . S
C1443 C1442 1.394 . S
C1443 C1444 1.383 . S
C1443 H1451 0.929 . S
C1444 C1443 1.383 . S
C1444 C1445 1.377 . S
C1445 H1429 0.930 . S
C1445 C1444 1.377 . S
C1445 C1446 1.379 . S
C1446 H1430 0.931 . S
C1446 C1440 1.383 . S
C1446 C1445 1.379 . S
H1447 C1441 0.959 . S
H1448 C1441 0.961 . S
H1449 C1441 0.960 . S
H1450 C1442 0.930 . S
H1451 C1443 0.929 . S
H1452 C1460 0.929 . S
H1453 C1462 0.930 . S
H1454 C1464 0.930 . S
H1455 C1467 0.929 . S
H1456 C1470 0.930 . S
H1457 C1472 0.960 . S
H1458 C1472 0.960 . S
H1459 C1472 0.960 . S
C1460 H1452 0.929 . S
C1460 C1461 1.377 . S
C1460 C1462 1.384 . S
C1461 C1460 1.377 . S
C1461 C1467 1.390 . S
C1462 H1453 0.930 . S
C1462 C1460 1.384 . S
C1462 C1463 1.372 . S
C1463 C1462 1.372 . S
C1463 C1464 1.400 . S
C1463 C1468 1.490 . S
C1464 H1454 0.930 . S
C1464 C1463 1.400 . S
C1464 C1467 1.386 . S
H1465 C1481 0.930 . S
H1466 C1482 0.931 . S
C1467 H1455 0.929 . S
C1467 C1461 1.390 . S
C1467 C1464 1.386 . S
C1468 C1463 1.490 . S
C1468 C1470 1.395 . S
C1468 C1471 1.403 . S
H1469 C1475 0.930 . S
C1470 H1456 0.930 . S
C1470 C1468 1.395 . S
C1470 C1473 1.403 . S
C1471 C1468 1.403 . S
C1471 C1472 1.524 . S
C1471 C1475 1.400 . S
C1472 H1457 0.960 . S
C1472 H1458 0.960 . S
C1472 H1459 0.960 . S
C1472 C1471 1.524 . S
C1473 C1470 1.403 . S
C1473 C1474 1.392 . S
C1473 C1477 1.495 . S
C1474 C1473 1.392 . S
C1474 C1475 1.385 . S
C1474 C1476 1.478 . S
C1475 H1469 0.930 . S
C1475 C1471 1.400 . S
C1475 C1474 1.385 . S
C1476 C1474 1.478 . S
C1476 C1478 1.381 . S
C1476 C1482 1.383 . S
C1477 C1473 1.495 . S
C1477 H1483 0.959 . S
C1477 H1484 0.961 . S
C1477 H1485 0.960 . S
C1478 C1476 1.381 . S
C1478 C1479 1.394 . S
C1478 H1486 0.930 . S
C1479 C1478 1.394 . S
C1479 C1480 1.383 . S
C1479 H1487 0.929 . S
C1480 C1479 1.383 . S
C1480 C1481 1.377 . S
C1481 H1465 0.930 . S
C1481 C1480 1.377 . S
C1481 C1482 1.379 . S
C1482 H1466 0.931 . S
C1482 C1476 1.383 . S
C1482 C1481 1.379 . S
H1483 C1477 0.959 . S
H1484 C1477 0.961 . S
H1485 C1477 0.960 . S
H1486 C1478 0.930 . S
H1487 C1479 0.929 . S
C417 C175 0.668 . S
C436 C5 0.680 . S
C453 C39 0.676 . S
C472 C107 0.760 . S
C489 C73 0.666 . S
C508 C141 0.703 . S
C525 C209 0.683 . S
C544 C379 0.746 . S
C561 C311 0.666 . S
C580 C243 0.723 . S
C597 C345 0.669 . S
C616 C277 0.686 . S
C633 C33 1.450 . S
C652 C237 1.405 . S
C669 C67 1.446 . S
C688 C271 1.465 . S
C705 C305 1.460 . S
C724 C101 1.491 . S
C741 C339 1.455 . S
C760 C135 1.418 . S
C777 C169 1.444 . S
C796 C373 1.443 . S
C813 C203 1.457 . S
C832 C407 1.495 . S
C849 C156 1.442 . S
C868 C20 1.403 . S
C885 C190 1.435 . S
C904 C54 1.460 . S
C921 C122 1.434 . S
C940 C88 1.453 . S
C957 C224 1.434 . S
C976 C360 1.469 . S
C993 C258 1.446 . S
C1012 C394 1.437 . S
C1029 C326 1.437 . S
C1048 C292 1.438 . S
C1065 C9 1.301 . S
C1084 C70 1.331 . S
C1101 C43 1.304 . S
C1120 C2 1.328 . S
C1137 C36 1.339 . S
C1156 C77 1.303 . S
C1173 C111 1.295 . S
C1192 C138 1.342 . S
C1209 C172 1.338 . S
C1228 C145 1.323 . S
C1245 C104 1.338 . S
C1264 C179 1.315 . S
C1281 C274 1.337 . S
C1300 C213 1.280 . S
C1317 C247 1.305 . S
C1336 C206 1.343 . S
C1353 C240 1.337 . S
C1372 C281 1.286 . S
C1389 C342 1.341 . S
C1408 C315 1.304 . S
C1425 C376 1.337 . S
C1444 C349 1.276 . S
C1461 C383 1.299 . S
C1480 C308 1.343 . S
