# Generated by pormake.
# Topology uou, (4)-cn, num edge types: 1
# Building blocks:
#     Node 0, Type 0, BuildingBlock: KUFVIS_clean_sbu_0, # of connection points: 4
#     Node 1, Type 0, BuildingBlock: KUFVIS_clean_sbu_0, # of connection points: 4
#     Node 2, Type 0, BuildingBlock: KUFVIS_clean_sbu_0, # of connection points: 4
#     Node 3, Type 0, BuildingBlock: KUFVIS_clean_sbu_0, # of connection points: 4
#     Node 4, Type 0, BuildingBlock: KUFVIS_clean_sbu_0, # of connection points: 4
#     Node 5, Type 0, BuildingBlock: KUFVIS_clean_sbu_0, # of connection points: 4
#     Node 6, Type 0, BuildingBlock: KUFVIS_clean_sbu_0, # of connection points: 4
#     Node 7, Type 0, BuildingBlock: KUFVIS_clean_sbu_0, # of connection points: 4
#     Node 8, Type 0, BuildingBlock: KUFVIS_clean_sbu_0, # of connection points: 4
#     Node 9, Type 0, BuildingBlock: KUFVIS_clean_sbu_0, # of connection points: 4
#     Node 10, Type 0, BuildingBlock: KUFVIS_clean_sbu_0, # of connection points: 4
#     Node 11, Type 0, BuildingBlock: KUFVIS_clean_sbu_0, # of connection points: 4
#     Node 12, Type 0, BuildingBlock: KUFVIS_clean_sbu_0, # of connection points: 4
#     Node 13, Type 0, BuildingBlock: KUFVIS_clean_sbu_0, # of connection points: 4
#     Node 14, Type 0, BuildingBlock: KUFVIS_clean_sbu_0, # of connection points: 4
#     Node 15, Type 0, BuildingBlock: KUFVIS_clean_sbu_0, # of connection points: 4
#     Edge 16, Type (0, 0), BuildingBlock: XUDNAN_clean_linker_2, # of connection points: 2
#     Edge 17, Type (0, 0), BuildingBlock: XUDNAN_clean_linker_2, # of connection points: 2
#     Edge 18, Type (0, 0), BuildingBlock: XUDNAN_clean_linker_2, # of connection points: 2
#     Edge 19, Type (0, 0), BuildingBlock: XUDNAN_clean_linker_2, # of connection points: 2
#     Edge 20, Type (0, 0), BuildingBlock: XUDNAN_clean_linker_2, # of connection points: 2
#     Edge 21, Type (0, 0), BuildingBlock: XUDNAN_clean_linker_2, # of connection points: 2
#     Edge 22, Type (0, 0), BuildingBlock: XUDNAN_clean_linker_2, # of connection points: 2
#     Edge 23, Type (0, 0), BuildingBlock: XUDNAN_clean_linker_2, # of connection points: 2
#     Edge 24, Type (0, 0), BuildingBlock: XUDNAN_clean_linker_2, # of connection points: 2
#     Edge 25, Type (0, 0), BuildingBlock: XUDNAN_clean_linker_2, # of connection points: 2
#     Edge 26, Type (0, 0), BuildingBlock: XUDNAN_clean_linker_2, # of connection points: 2
#     Edge 27, Type (0, 0), BuildingBlock: XUDNAN_clean_linker_2, # of connection points: 2
#     Edge 28, Type (0, 0), BuildingBlock: XUDNAN_clean_linker_2, # of connection points: 2
#     Edge 29, Type (0, 0), BuildingBlock: XUDNAN_clean_linker_2, # of connection points: 2
#     Edge 30, Type (0, 0), BuildingBlock: XUDNAN_clean_linker_2, # of connection points: 2
#     Edge 31, Type (0, 0), BuildingBlock: XUDNAN_clean_linker_2, # of connection points: 2
#     Edge 32, Type (0, 0), BuildingBlock: XUDNAN_clean_linker_2, # of connection points: 2
#     Edge 33, Type (0, 0), BuildingBlock: XUDNAN_clean_linker_2, # of connection points: 2
#     Edge 34, Type (0, 0), BuildingBlock: XUDNAN_clean_linker_2, # of connection points: 2
#     Edge 35, Type (0, 0), BuildingBlock: XUDNAN_clean_linker_2, # of connection points: 2
#     Edge 36, Type (0, 0), BuildingBlock: XUDNAN_clean_linker_2, # of connection points: 2
#     Edge 37, Type (0, 0), BuildingBlock: XUDNAN_clean_linker_2, # of connection points: 2
#     Edge 38, Type (0, 0), BuildingBlock: XUDNAN_clean_linker_2, # of connection points: 2
#     Edge 39, Type (0, 0), BuildingBlock: XUDNAN_clean_linker_2, # of connection points: 2
#     Edge 40, Type (0, 0), BuildingBlock: XUDNAN_clean_linker_2, # of connection points: 2
#     Edge 41, Type (0, 0), BuildingBlock: XUDNAN_clean_linker_2, # of connection points: 2
#     Edge 42, Type (0, 0), BuildingBlock: XUDNAN_clean_linker_2, # of connection points: 2
#     Edge 43, Type (0, 0), BuildingBlock: XUDNAN_clean_linker_2, # of connection points: 2
#     Edge 44, Type (0, 0), BuildingBlock: XUDNAN_clean_linker_2, # of connection points: 2
#     Edge 45, Type (0, 0), BuildingBlock: XUDNAN_clean_linker_2, # of connection points: 2
#     Edge 46, Type (0, 0), BuildingBlock: XUDNAN_clean_linker_2, # of connection points: 2
#     Edge 47, Type (0, 0), BuildingBlock: XUDNAN_clean_linker_2, # of connection points: 2
# Relax obj value: 0.047
# Max RMSD: 0.084
# Mean RMSD: 0.084
data_MOF--net-uou--node1-KUFVIS_clean_sbu_0--edge1-XUDNAN_clean_linker_2
_symmetry_space_group_name_H-M    P1
_symmetry_Int_Tables_number       1
_symmetry_cell_setting            triclinic
loop_
_symmetry_equiv_pos_as_xyz
'x, y, z'
_cell_length_a     37.824576
_cell_length_b     40.223943
_cell_length_c     52.119655
_cell_angle_alpha  89.993267
_cell_angle_beta   90.058879
_cell_angle_gamma 89.946319
loop_
_atom_site_label
_atom_site_type_symbol
_atom_site_fract_x
_atom_site_fract_y
_atom_site_fract_z
_atom_type_partial_charge
Mn0 Mn 0.06779 0.08841 0.1238 0.0
Mn1 Mn 0.06749 1.00807 0.14267 0.0
C2 C 0.05587 0.07436 0.16625 0.0
C3 C 0.03791 0.13574 0.10839 0.0
C4 C 0.13492 0.04643 0.13232 0.0
O5 O 0.06272 0.06317 0.08968 0.0
O6 O 0.06047 1.01088 0.10527 0.0
C7 C 0.9928 0.99221 0.13087 0.0
N8 N 0.0199 0.99394 0.14806 0.0
C9 C 0.98317 0.97253 0.18185 0.0
C10 C 0.9549 0.97034 0.16451 0.0
C11 C 0.95973 0.98031 0.13892 0.0
C12 C 0.01552 0.98454 0.17272 0.0
H13 H 0.99638 0.99989 0.11119 0.0
C14 C 0.05931 0.03169 0.08673 0.0
O15 O 0.072 0.13284 0.10642 0.0
O16 O 0.02122 0.11072 0.11828 0.0
N17 N 0.07356 1.00213 0.17873 0.0
C18 C 0.10293 1.00757 0.19328 0.0
C19 C 0.10242 0.99929 0.21941 0.0
C20 C 0.07184 0.98541 0.23021 0.0
C21 C 0.04183 0.98032 0.21489 0.0
C22 C 0.04402 0.98869 0.18893 0.0
H23 H 0.12658 0.01805 0.18499 0.0
O24 O 0.06732 0.10383 0.16053 0.0
O25 O 0.0523 0.05413 0.14707 0.0
O26 O 0.12011 0.07417 0.12687 0.0
O27 O 0.11757 0.02028 0.13807 0.0
C28 C 0.00976 0.96751 0.22435 0.0
C29 C 0.98039 0.96377 0.20792 0.0
H30 H 0.92932 0.96129 0.17067 0.0
H31 H 0.93801 0.97884 0.12544 0.0
H32 H 0.12557 1.00348 0.23119 0.0
H33 H 0.0718 0.97885 0.25028 0.0
H34 H 0.00727 0.9607 0.24424 0.0
H35 H 0.95575 0.95434 0.21558 0.0
Mn36 Mn 0.43753 0.92616 0.13102 0.0
Mn37 Mn 0.46608 1.00435 0.14152 0.0
C38 C 0.4606 0.94136 0.17088 0.0
C39 C 0.44909 0.87102 0.11864 0.0
C40 C 0.38828 0.98629 0.13937 0.0
O41 O 0.44342 0.94429 0.09441 0.0
O42 O 0.46363 0.99549 0.10449 0.0
C43 C 0.53907 0.99598 0.12211 0.0
N44 N 0.51654 1.00443 0.14142 0.0
C45 C 0.56494 0.01719 0.16965 0.0
C46 C 0.58871 1.00883 0.15006 0.0
C47 C 0.5757 0.99813 0.12619 0.0
C48 C 0.52874 0.01469 0.16443 0.0
H49 H 0.52914 0.9876 0.10379 0.0
C50 C 0.45443 0.9733 0.08829 0.0
O51 O 0.41721 0.88312 0.11841 0.0
O52 O 0.47418 0.89129 0.125 0.0
N53 N 0.46963 0.01622 0.17676 0.0
C54 C 0.44309 0.02196 0.19383 0.0
C55 C 0.45149 0.03288 0.2186 0.0
C56 C 0.48699 0.03774 0.22543 0.0
C57 C 0.51387 0.03139 0.20761 0.0
C58 C 0.50385 0.02121 0.18307 0.0
H59 H 0.41576 0.01835 0.18854 0.0
O60 O 0.43959 0.91603 0.16889 0.0
O61 O 0.4669 0.95706 0.14963 0.0
O62 O 0.39251 0.95507 0.13561 0.0
O63 O 0.41408 1.00644 0.14215 0.0
C64 C 0.55014 0.03443 0.21323 0.0
C65 C 0.57569 0.02728 0.19433 0.0
H66 H 0.61699 1.01028 0.15319 0.0
H67 H 0.59386 0.99147 0.111 0.0
H68 H 0.43072 0.03759 0.2324 0.0
H69 H 0.49314 0.04633 0.24441 0.0
H70 H 0.55872 0.04173 0.23211 0.0
H71 H 0.6035 0.02932 0.19904 0.0
Mn72 Mn 0.58484 0.92471 0.38126 0.0
Mn73 Mn 0.5795 1.00469 0.36177 0.0
C74 C 0.58029 0.9381 0.33776 0.0
C75 C 0.56154 0.87318 0.3941 0.0
C76 C 0.64795 0.97297 0.37885 0.0
O77 O 0.57014 0.94862 0.41459 0.0
O78 O 0.56703 1.00022 0.39814 0.0
C79 C 0.5022 0.01367 0.36715 0.0
N80 N 0.532 0.01518 0.35256 0.0
C81 C 0.50164 0.04497 0.31924 0.0
C82 C 0.47049 0.04366 0.33378 0.0
C83 C 0.47066 0.02752 0.3577 0.0
C84 C 0.53171 0.0292 0.32905 0.0
H85 H 0.50266 1.00241 0.38596 0.0
C86 C 0.5641 0.97984 0.41679 0.0
O87 O 0.59355 0.88218 0.39956 0.0
O88 O 0.54207 0.89492 0.38219 0.0
N89 N 0.59079 0.01332 0.32675 0.0
C90 C 0.62308 1.01234 0.31521 0.0
C91 C 0.62751 0.02725 0.29109 0.0
C92 C 0.59912 0.04416 0.27962 0.0
C93 C 0.5662 0.04504 0.29198 0.0
C94 C 0.563 0.0286 0.31549 0.0
H95 H 0.64543 1.00079 0.32455 0.0
O96 O 0.59398 0.91002 0.34497 0.0
O97 O 0.56965 0.95751 0.356 0.0
O98 O 0.63472 0.94457 0.38384 0.0
O99 O 0.62961 0.99717 0.37041 0.0
C100 C 0.53689 0.06284 0.28252 0.0
C101 C 0.50443 0.0623 0.29587 0.0
H102 H 0.44641 0.05521 0.32688 0.0
H103 H 0.44679 0.02652 0.3691 0.0
H104 H 0.65305 0.02666 0.28176 0.0
H105 H 0.60316 0.05685 0.26154 0.0
H106 H 0.53901 0.07724 0.26505 0.0
H107 H 0.48193 0.07564 0.28814 0.0
Mn108 Mn 0.94362 0.10655 0.37859 0.0
Mn109 Mn 0.97375 0.02791 0.37205 0.0
C110 C 0.95553 0.08544 0.33813 0.0
C111 C 0.95412 0.16332 0.38604 0.0
C112 C 0.89692 0.04459 0.38294 0.0
O113 O 0.95922 0.09406 0.41488 0.0
O114 O 0.98336 0.04386 0.40718 0.0
C115 C 0.05042 0.04104 0.37687 0.0
N116 N 0.02271 0.02838 0.36335 0.0
C117 C 0.06168 1.0038 0.3323 0.0
C118 C 0.09072 0.01657 0.34583 0.0
C119 C 0.08503 0.03558 0.36807 0.0
C120 C 0.02781 1.01117 0.34143 0.0
H121 H 0.0461 0.05492 0.39433 0.0
C122 C 0.97589 0.06803 0.42213 0.0
O123 O 0.92369 0.14972 0.39071 0.0
O124 O 0.97878 0.14381 0.37747 0.0
N125 N 0.96644 1.00844 0.33907 0.0
C126 C 0.93558 0.99756 0.3285 0.0
C127 C 0.93653 0.97815 0.30615 0.0
C128 C 0.9692 0.96914 0.29545 0.0
C129 C 1.00065 0.98022 0.30688 0.0
C130 C 0.99801 1.00025 0.32873 0.0
H131 H 0.91042 1.00335 0.33719 0.0
O132 O 0.93531 0.11128 0.34086 0.0
O133 O 0.96916 0.07338 0.35903 0.0
O134 O 0.89995 0.07619 0.38175 0.0
O135 O 0.92306 0.02473 0.38053 0.0
C136 C 0.0345 0.97112 0.29811 0.0
C137 C 0.065 0.98331 0.31054 0.0
H138 H 0.11747 1.01177 0.33941 0.0
H139 H 0.10728 0.04547 0.37866 0.0
H140 H 0.91218 0.96946 0.29755 0.0
H141 H 0.9697 0.95319 0.27875 0.0
H142 H 0.03744 0.95426 0.28213 0.0
H143 H 0.09087 0.97645 0.30336 0.0
Mn144 Mn 0.92748 0.93025 0.87644 0.0
Mn145 Mn 0.95105 1.01072 0.87111 0.0
C146 C 0.93879 0.95313 0.83635 0.0
C147 C 0.94203 0.87415 0.8828 0.0
C148 C 0.87604 0.98838 0.88248 0.0
O149 O 0.94291 0.94268 0.91287 0.0
O150 O 0.96332 0.99456 0.90574 0.0
C151 C 0.02888 1.00486 0.8747 0.0
N152 N 0.99953 0.01497 0.86172 0.0
C153 C 0.03451 0.0451 0.83114 0.0
C154 C 0.06522 0.03502 0.8441 0.0
C155 C 0.06239 0.01445 0.86581 0.0
C156 C 1.00201 0.03362 0.84027 0.0
H157 H 0.02665 0.98993 0.89186 0.0
C158 C 0.95821 0.9694 0.92026 0.0
O159 O 0.91072 0.88567 0.88775 0.0
O160 O 0.96526 0.89537 0.8746 0.0
N161 N 0.9407 0.02978 0.83841 0.0
C162 C 0.90858 0.0365 0.82772 0.0
C163 C 0.90679 0.05586 0.80534 0.0
C164 C 0.93789 0.06909 0.79478 0.0
C165 C 0.97053 0.06221 0.80641 0.0
C166 C 0.97082 0.04166 0.82802 0.0
H167 H 0.8845 0.02738 0.83629 0.0
O168 O 0.91986 0.92635 0.83846 0.0
O169 O 0.95079 0.96539 0.85762 0.0
O170 O 0.88133 0.95719 0.88023 0.0
O171 O 0.90067 1.00981 0.88045 0.0
C172 C 1.00266 0.07579 0.7979 0.0
C173 C 0.03474 0.06687 0.80999 0.0
H174 H 0.09105 0.04304 0.83764 0.0
H175 H 0.08594 1.00661 0.87596 0.0
H176 H 0.88146 0.06119 0.79658 0.0
H177 H 0.93638 0.08468 0.77786 0.0
H178 H 1.00288 0.09332 0.78215 0.0
H179 H 0.0594 0.07712 0.80301 0.0
Mn180 Mn 0.56293 0.10274 0.88357 0.0
Mn181 Mn 0.55326 0.02022 0.87316 0.0
C182 C 0.5518 0.08278 0.84264 0.0
C183 C 0.54221 0.15599 0.89426 0.0
C184 C 0.62423 0.05225 0.88291 0.0
O185 O 0.55119 0.08472 0.91908 0.0
O186 O 0.5445 0.03016 0.90987 0.0
C187 C 0.4765 0.01463 0.88346 0.0
N188 N 0.50447 1.0105 0.86733 0.0
C189 C 0.46697 0.98746 0.83456 0.0
C190 C 0.43779 0.99131 0.85086 0.0
C191 C 0.44258 1.00503 0.8754 0.0
C192 C 0.50016 0.99739 0.84367 0.0
H193 H 0.48 0.02522 0.90233 0.0
C194 C 0.5439 0.05479 0.92544 0.0
O195 O 0.57481 0.14712 0.89769 0.0
O196 O 0.52105 0.13369 0.88475 0.0
N197 N 0.56028 1.00749 0.83821 0.0
C198 C 0.59075 1.00739 0.8243 0.0
C199 C 0.59041 0.99494 0.79916 0.0
C200 C 0.55883 0.98264 0.78866 0.0
C201 C 0.52772 0.98332 0.80325 0.0
C202 C 0.52975 0.99565 0.82829 0.0
H203 H 0.61513 0.01669 0.83234 0.0
O204 O 0.56746 0.11126 0.84574 0.0
O205 O 0.54405 0.06674 0.86348 0.0
O206 O 0.61212 0.08167 0.88501 0.0
O207 O 0.60461 0.02713 0.87847 0.0
C208 C 0.49472 0.97254 0.79389 0.0
C209 C 0.46434 0.97473 0.80946 0.0
H210 H 0.41156 0.98408 0.84466 0.0
H211 H 0.42017 1.00823 0.88806 0.0
H212 H 0.61444 0.99472 0.78791 0.0
H213 H 0.55884 0.97287 0.76936 0.0
H214 H 0.49225 0.96286 0.77467 0.0
H215 H 0.43905 0.96682 0.80186 0.0
Mn216 Mn 0.44844 0.09366 0.62787 0.0
Mn217 Mn 0.46915 1.01322 0.6384 0.0
C218 C 0.45736 0.0752 0.66932 0.0
C219 C 0.46902 0.14686 0.61713 0.0
C220 C 0.39472 0.03697 0.62567 0.0
O221 O 0.46199 0.07624 0.59263 0.0
O222 O 0.48181 0.02504 0.60262 0.0
C223 C 0.54703 0.01811 0.6347 0.0
N224 N 0.51762 1.0097 0.64827 0.0
C225 C 0.55275 0.98747 0.68269 0.0
C226 C 0.58346 0.99578 0.66909 0.0
C227 C 0.58057 1.01143 0.64507 0.0
C228 C 0.52009 0.99553 0.67169 0.0
H229 H 0.54486 0.02971 0.61607 0.0
C230 C 0.47661 0.0487 0.58664 0.0
O231 O 0.4362 0.13863 0.61334 0.0
O232 O 0.48943 0.12451 0.62716 0.0
N233 N 0.45861 0.99788 0.67225 0.0
C234 C 0.42643 0.99139 0.68285 0.0
C235 C 0.42464 0.97611 0.70703 0.0
C236 C 0.45589 0.96683 0.71972 0.0
C237 C 0.48869 0.97317 0.7082 0.0
C238 C 0.48884 0.98898 0.68429 0.0
H239 H 0.40229 0.99773 0.67292 0.0
O240 O 0.44097 0.10301 0.66508 0.0
O241 O 0.46918 0.05971 0.64921 0.0
O242 O 0.40096 0.06829 0.62599 0.0
O243 O 0.41866 0.01489 0.62895 0.0
C244 C 0.52121 0.96366 0.71916 0.0
C245 C 0.55323 0.97107 0.70656 0.0
H246 H 0.60936 0.99024 0.67688 0.0
H247 H 0.60414 0.01796 0.63445 0.0
H248 H 0.39922 0.97108 0.71571 0.0
H249 H 0.4543 0.95451 0.73815 0.0
H250 H 0.52192 0.95025 0.73711 0.0
H251 H 0.57806 0.96394 0.71536 0.0
Mn252 Mn 0.07216 0.9438 0.62905 0.0
Mn253 Mn 0.07649 0.02337 0.64893 0.0
C254 C 0.06292 0.95769 0.67225 0.0
C255 C 0.04039 0.89734 0.61438 0.0
C256 C 0.14065 0.98383 0.63213 0.0
O257 O 0.06472 0.97081 0.59567 0.0
O258 O 0.06115 0.02235 0.61291 0.0
C259 C 1.00103 0.04285 0.64682 0.0
N260 N 0.03145 0.03865 0.66045 0.0
C261 C 1.00399 0.05884 0.69902 0.0
C262 C 0.97234 0.06341 0.68544 0.0
C263 C 0.97084 0.05529 0.65923 0.0
C264 C 0.03315 0.04625 0.68566 0.0
H265 H 0.99982 0.03664 0.62668 0.0
C266 C 0.05866 1.00224 0.59395 0.0
O267 O 0.07425 0.89989 0.61099 0.0
O268 O 0.02471 0.92243 0.62514 0.0
N269 N 0.09089 0.02633 0.68393 0.0
C270 C 0.12274 0.0185 0.69461 0.0
C271 C 0.12847 0.02464 0.72077 0.0
C272 C 0.10148 0.03889 0.73559 0.0
C273 C 0.06888 0.04641 0.72414 0.0
C274 C 0.0647 0.03987 0.69803 0.0
H275 H 0.1437 1.00779 0.68326 0.0
O276 O 0.07324 0.92796 0.66607 0.0
O277 O 0.06005 0.97796 0.65317 0.0
O278 O 0.12493 0.95597 0.62966 0.0
O279 O 0.12448 1.01054 0.63802 0.0
C280 C 0.04031 0.05996 0.73771 0.0
C281 C 0.00772 0.0659 0.72535 0.0
H282 H 0.94899 0.07294 0.69496 0.0
H283 H 0.94648 0.05863 0.64863 0.0
H284 H 0.15365 0.01855 0.72947 0.0
H285 H 0.10598 0.04371 0.75578 0.0
H286 H 0.04353 0.06566 0.75767 0.0
H287 H 0.98573 0.07581 0.73623 0.0
Mn288 Mn 0.56994 0.59219 0.13194 0.0
Mn289 Mn 0.56717 0.50905 0.1391 0.0
C290 C 0.55941 0.56912 0.17204 0.0
C291 C 0.5403 0.64221 0.12275 0.0
C292 C 0.63511 0.54732 0.12928 0.0
O293 O 0.56158 0.57476 0.09575 0.0
O294 O 0.55229 0.52006 0.10343 0.0
C295 C 0.49038 0.49626 0.13411 0.0
N296 N 0.52064 0.49486 0.14826 0.0
C297 C 0.48992 0.47001 0.18383 0.0
C298 C 0.45845 0.47109 0.16961 0.0
C299 C 0.45869 0.4843 0.14465 0.0
C300 C 0.52073 0.48211 0.17226 0.0
H301 H 0.4904 0.50656 0.11497 0.0
C302 C 0.55209 0.54561 0.08865 0.0
O303 O 0.57428 0.63944 0.11982 0.0
O304 O 0.52371 0.61599 0.1307 0.0
N305 N 0.58029 0.49652 0.17325 0.0
C306 C 0.61227 0.49946 0.18511 0.0
C307 C 0.61621 0.48838 0.21049 0.0
C308 C 0.5873 0.47435 0.2234 0.0
C309 C 0.55465 0.47169 0.21082 0.0
C310 C 0.55231 0.48299 0.18549 0.0
H311 H 0.63463 0.51026 0.17536 0.0
O312 O 0.5718 0.59913 0.17016 0.0
O313 O 0.55488 0.55377 0.15045 0.0
O314 O 0.62167 0.57639 0.13109 0.0
O315 O 0.61659 0.52083 0.13044 0.0
C316 C 0.52422 0.45872 0.22261 0.0
C317 C 0.4918 0.458 0.2092 0.0
H318 H 0.4339 0.46212 0.17774 0.0
H319 H 0.43448 0.48535 0.1336 0.0
H320 H 0.64147 0.4907 0.2201 0.0
H321 H 0.59038 0.46598 0.24303 0.0
H322 H 0.5256 0.44942 0.24203 0.0
H323 H 0.46843 0.44842 0.21864 0.0
Mn324 Mn 0.93547 0.42018 0.11203 0.0
Mn325 Mn 0.96508 0.49878 0.11931 0.0
C326 C 0.95794 0.43782 0.15143 0.0
C327 C 0.94683 0.3643 0.10129 0.0
C328 C 0.88691 0.48122 0.11811 0.0
O329 O 0.94141 0.436 0.0748 0.0
O330 O 0.96342 0.48715 0.08265 0.0
C331 C 0.0385 0.48838 0.10131 0.0
N332 N 0.01557 0.49861 0.11983 0.0
C333 C 0.0634 0.51425 0.14778 0.0
C334 C 0.08757 0.50408 0.12895 0.0
C335 C 0.07505 0.49103 0.10564 0.0
C336 C 0.02731 0.51113 0.14232 0.0
H337 H 0.02894 0.47824 0.08342 0.0
C338 C 0.95363 0.46404 0.06743 0.0
O339 O 0.91499 0.3765 0.10078 0.0
O340 O 0.97196 0.38479 0.10716 0.0
N341 N 0.96797 0.5136 0.15391 0.0
C342 C 0.94109 0.5209 0.17034 0.0
C343 C 0.94901 0.53381 0.1946 0.0
C344 C 0.98438 0.53908 0.20156 0.0
C345 C 0.01159 0.53168 0.18432 0.0
C346 C 1.00206 0.51934 0.16027 0.0
H347 H 0.91385 0.51685 0.16498 0.0
O348 O 0.93716 0.41225 0.15015 0.0
O349 O 0.96499 0.45209 0.12968 0.0
O350 O 0.89061 0.44967 0.1158 0.0
O351 O 0.91309 0.5012 0.1194 0.0
C352 C 0.04774 0.53552 0.19018 0.0
C353 C 0.07365 0.52675 0.17193 0.0
H354 H 0.11578 0.50592 0.13228 0.0
H355 H 0.09353 0.48297 0.09107 0.0
H356 H 0.92798 0.53955 0.20795 0.0
H357 H 0.99029 0.54852 0.22026 0.0
H358 H 0.05594 0.54472 0.20877 0.0
H359 H 0.10137 0.52939 0.17676 0.0
Mn360 Mn 0.05681 0.4472 0.36786 0.0
Mn361 Mn 0.04811 0.52589 0.34673 0.0
C362 C 0.05761 0.45873 0.32401 0.0
C363 C 0.03015 0.3969 0.37999 0.0
C364 C 0.11527 0.49913 0.37143 0.0
O365 O 0.037 0.4721 0.39931 0.0
O366 O 0.02578 0.52159 0.38067 0.0
C367 C 0.97054 0.53043 0.34035 0.0
N368 N 1.00367 0.53291 0.33033 0.0
C369 C 0.98146 0.5581 0.29178 0.0
C370 C 0.94704 0.55587 0.3016 0.0
C371 C 0.94151 0.54154 0.32586 0.0
C372 C 0.00912 0.54536 0.30663 0.0
H373 H 0.96641 0.52044 0.35935 0.0
C374 C 0.02393 0.50153 0.39965 0.0
O375 O 0.06204 0.40429 0.38727 0.0
O376 O 0.01361 0.41893 0.36638 0.0
N377 N 0.06852 0.53349 0.31376 0.0
C378 C 0.10319 0.53255 0.30671 0.0
C379 C 0.11305 0.54437 0.2824 0.0
C380 C 0.08738 0.55811 0.26603 0.0
C381 C 0.05196 0.55916 0.27391 0.0
C382 C 0.0435 0.54575 0.29786 0.0
H383 H 0.12317 0.5231 0.3196 0.0
O384 O 0.07089 0.43123 0.33275 0.0
O385 O 0.04395 0.47826 0.34107 0.0
O386 O 0.10595 0.46868 0.37318 0.0
O387 O 0.09493 0.52192 0.36294 0.0
C388 C 0.02484 0.57383 0.25927 0.0
C389 C 0.98956 0.57312 0.26812 0.0
H390 H 0.92469 0.56512 0.29071 0.0
H391 H 0.91505 0.53975 0.3336 0.0
H392 H 0.14048 0.5436 0.27654 0.0
H393 H 0.09519 0.56797 0.24755 0.0
H394 H 0.03081 0.58561 0.2411 0.0
H395 H 0.96884 0.58408 0.2565 0.0
Mn396 Mn 0.43322 0.59756 0.37695 0.0
Mn397 Mn 0.43669 0.51444 0.3683 0.0
C398 C 0.44116 0.576 0.33618 0.0
C399 C 0.4619 0.64758 0.38705 0.0
C400 C 0.36852 0.55216 0.37889 0.0
O401 O 0.44112 0.5791 0.41291 0.0
O402 O 0.45095 0.52487 0.40419 0.0
C403 C 0.51387 0.50378 0.37316 0.0
N404 N 0.48355 0.50123 0.3592 0.0
C405 C 0.51403 0.47332 0.3249 0.0
C406 C 0.54557 0.47548 0.33896 0.0
C407 C 0.54553 0.49098 0.36312 0.0
C408 C 0.48345 0.48701 0.33571 0.0
H409 H 0.51385 0.51544 0.39183 0.0
C410 C 0.44985 0.54963 0.41966 0.0
O411 O 0.42803 0.6442 0.39006 0.0
O412 O 0.47907 0.62193 0.37852 0.0
N413 N 0.42376 0.50094 0.33437 0.0
C414 C 0.3912 0.50119 0.32312 0.0
C415 C 0.38685 0.48715 0.29866 0.0
C416 C 0.41584 0.47252 0.28621 0.0
C417 C 0.44892 0.47206 0.29836 0.0
C418 C 0.45174 0.48663 0.32265 0.0
H419 H 0.36871 0.51209 0.33265 0.0
O420 O 0.43003 0.60628 0.33921 0.0
O421 O 0.44793 0.55962 0.35707 0.0
O422 O 0.38185 0.58131 0.3779 0.0
O423 O 0.38698 0.52566 0.37683 0.0
C424 C 0.47909 0.45734 0.28743 0.0
C425 C 0.51167 0.45802 0.30064 0.0
H426 H 0.56998 0.46543 0.33135 0.0
H427 H 0.56979 0.49285 0.37405 0.0
H428 H 0.36118 0.48748 0.28948 0.0
H429 H 0.41239 0.46163 0.26736 0.0
H430 H 0.47731 0.44522 0.26896 0.0
H431 H 0.53477 0.44678 0.29194 0.0
Mn432 Mn 0.43714 0.43833 0.87958 0.0
Mn433 Mn 0.45794 0.51845 0.86794 0.0
C434 C 0.45658 0.45442 0.83885 0.0
C435 C 0.45561 0.38535 0.89285 0.0
C436 C 0.38215 0.49379 0.87185 0.0
O437 O 0.44317 0.45714 0.91595 0.0
O438 O 0.45852 0.50928 0.90501 0.0
C439 C 0.53234 0.51678 0.88554 0.0
N440 N 0.50799 0.52397 0.8671 0.0
C441 C 0.55174 0.55078 0.8409 0.0
C442 C 0.57739 0.54366 0.85957 0.0
C443 C 0.5677 0.5263 0.88189 0.0
C444 C 0.5172 0.53978 0.84528 0.0
H445 H 0.52475 0.50409 0.90296 0.0
C446 C 0.45237 0.48678 0.92167 0.0
O447 O 0.42235 0.39348 0.89308 0.0
O448 O 0.47769 0.40786 0.88533 0.0
N449 N 0.45866 0.53193 0.83286 0.0
C450 C 0.43082 0.53604 0.81658 0.0
C451 C 0.43562 0.5539 0.79372 0.0
C452 C 0.46877 0.56786 0.78815 0.0
C453 C 0.49726 0.56263 0.80492 0.0
C454 C 0.49089 0.54452 0.82732 0.0
H455 H 0.40493 0.52662 0.82139 0.0
O456 O 0.4381 0.4276 0.84201 0.0
O457 O 0.46289 0.47128 0.85963 0.0
O458 O 0.38902 0.46299 0.87575 0.0
O459 O 0.40614 0.51563 0.86841 0.0
C460 C 0.53152 0.57529 0.80061 0.0
C461 C 0.55891 0.56875 0.81831 0.0
H462 H 0.60456 0.55147 0.857 0.0
H463 H 0.58731 0.52075 0.8964 0.0
H464 H 0.41361 0.5577 0.78076 0.0
H465 H 0.47202 0.58263 0.77095 0.0
H466 H 0.53721 0.58986 0.78363 0.0
H467 H 0.58526 0.57806 0.81453 0.0
Mn468 Mn 0.06225 0.59534 0.86447 0.0
Mn469 Mn 0.05935 0.51311 0.85165 0.0
C470 C 0.05985 0.57699 0.82256 0.0
C471 C 0.03323 0.64532 0.874 0.0
C472 C 0.12707 0.54872 0.86609 0.0
O473 O 0.04776 0.57531 0.89864 0.0
O474 O 0.04592 0.52099 0.88805 0.0
C475 C 0.98192 0.50481 0.85717 0.0
N476 N 0.01175 0.5022 0.84266 0.0
C477 C 0.97887 0.47934 0.80733 0.0
C478 C 0.94785 0.48162 0.82192 0.0
C479 C 0.94937 0.4946 0.8469 0.0
C480 C 0.01046 0.49043 0.81841 0.0
H481 H 0.98292 0.51462 0.87643 0.0
C482 C 0.04186 0.54487 0.90402 0.0
O483 O 0.06635 0.64097 0.87972 0.0
O484 O 0.01707 0.62068 0.86309 0.0
N485 N 0.07083 0.50156 0.81703 0.0
C486 C 0.10313 0.50092 0.80548 0.0
C487 C 0.1061 0.48888 0.78027 0.0
C488 C 0.07599 0.47701 0.76741 0.0
C489 C 0.04318 0.47723 0.77991 0.0
C490 C 0.04178 0.4898 0.80492 0.0
H491 H 0.12644 0.50961 0.81539 0.0
O492 O 0.07163 0.6065 0.82784 0.0
O493 O 0.04944 0.55927 0.84197 0.0
O494 O 0.11291 0.57745 0.86861 0.0
O495 O 0.10948 0.52273 0.86004 0.0
C496 C 0.01191 0.46494 0.7687 0.0
C497 C 0.97974 0.46624 0.7823 0.0
H498 H 0.92274 0.47351 0.81412 0.0
H499 H 0.92553 0.49654 0.85827 0.0
H500 H 0.13156 0.48858 0.77083 0.0
H501 H 0.07841 0.4676 0.74802 0.0
H502 H 0.01231 0.45405 0.74977 0.0
H503 H 0.95584 0.457 0.77334 0.0
Mn504 Mn 0.92991 0.61434 0.61616 0.0
Mn505 Mn 0.94596 0.53188 0.62199 0.0
C506 C 0.94854 0.59204 0.65503 0.0
C507 C 0.94604 0.66962 0.60709 0.0
C508 C 0.87202 0.5605 0.61978 0.0
O509 O 0.93575 0.59951 0.57887 0.0
O510 O 0.94691 0.54503 0.58541 0.0
C511 C 0.02022 0.53258 0.60403 0.0
N512 N 0.99598 0.52513 0.62247 0.0
C513 C 0.0411 0.50268 0.65003 0.0
C514 C 0.06649 0.50987 0.63126 0.0
C515 C 0.056 0.52496 0.60818 0.0
C516 C 1.0058 0.51077 0.64479 0.0
H517 H 0.01237 0.54436 0.58631 0.0
C518 C 0.94313 0.57029 0.57071 0.0
O519 O 0.9136 0.65942 0.60572 0.0
O520 O 0.96964 0.64738 0.61299 0.0
N521 N 0.94667 0.5159 0.65654 0.0
C522 C 0.91915 0.51193 0.6731 0.0
C523 C 0.92524 0.49731 0.69717 0.0
C524 C 0.95946 0.48684 0.70388 0.0
C525 C 0.9874 0.49139 0.68659 0.0
C526 C 0.97965 0.50564 0.66275 0.0
H527 H 0.89277 0.51978 0.66794 0.0
O528 O 0.93117 0.6199 0.65448 0.0
O529 O 0.95393 0.57799 0.63298 0.0
O530 O 0.88223 0.59059 0.61785 0.0
O531 O 0.89351 0.53612 0.62194 0.0
C532 C 0.02267 0.48256 0.69211 0.0
C533 C 0.04951 0.48833 0.6739 0.0
H534 H 0.09414 0.50415 0.63445 0.0
H535 H 0.07545 0.53076 0.59364 0.0
H536 H 0.9036 0.49402 0.71049 0.0
H537 H 0.96396 0.47537 0.72236 0.0
H538 H 0.02965 0.47165 0.71034 0.0
H539 H 0.07657 0.48182 0.67854 0.0
Mn540 Mn 0.56993 0.43063 0.6241 0.0
Mn541 Mn 0.55127 0.50814 0.64458 0.0
C542 C 0.56532 0.44168 0.66798 0.0
C543 C 0.5515 0.37768 0.61061 0.0
C544 C 0.6228 0.48797 0.62314 0.0
O545 O 0.55002 0.45374 0.59167 0.0
O546 O 0.5321 0.50169 0.60989 0.0
C547 C 0.47329 0.50485 0.64788 0.0
N548 N 0.5052 0.51019 0.65928 0.0
C549 C 0.4775 0.52631 0.69879 0.0
C550 C 0.44428 0.52137 0.68745 0.0
C551 C 0.44218 0.5103 0.66194 0.0
C552 C 0.50754 0.52013 0.68394 0.0
H553 H 0.47161 0.49668 0.62818 0.0
C554 C 0.53382 0.48177 0.59082 0.0
O555 O 0.58232 0.38954 0.60466 0.0
O556 O 0.53073 0.39713 0.62354 0.0
N557 N 0.5685 0.51756 0.67823 0.0
C558 C 0.60254 0.52199 0.68616 0.0
C559 C 0.60922 0.53224 0.71145 0.0
C560 C 0.58086 0.53831 0.72816 0.0
C561 C 0.5461 0.5343 0.7193 0.0
C562 C 0.54104 0.52409 0.69396 0.0
H563 H 0.62447 0.51771 0.67334 0.0
O564 O 0.5824 0.4157 0.65998 0.0
O565 O 0.55162 0.46014 0.65019 0.0
O566 O 0.61679 0.45684 0.62122 0.0
O567 O 0.59938 0.50886 0.63023 0.0
C568 C 0.51629 0.54013 0.73465 0.0
C569 C 0.48202 0.53677 0.72435 0.0
H570 H 0.42024 0.52567 0.69824 0.0
H571 H 0.41666 0.50621 0.65309 0.0
H572 H 0.63614 0.5355 0.71804 0.0
H573 H 0.58603 0.54613 0.7477 0.0
H574 H 0.51964 0.54696 0.75441 0.0
H575 H 0.45925 0.54158 0.73634 0.0
H576 H 0.32313 0.95408 0.13842 0.0
H577 H 0.37098 0.05227 0.14 0.0
H578 H 0.31215 0.07786 0.13784 0.0
H579 H 0.25294 0.97388 0.09453 0.0
H580 H 0.22026 0.94889 0.11066 0.0
H581 H 0.26631 0.93768 0.1125 0.0
H582 H 0.26321 0.93886 0.16215 0.0
H583 H 0.2171 0.94991 0.16045 0.0
H584 H 0.24746 0.97577 0.17811 0.0
H585 H 0.24822 0.0935 0.134 0.0
H586 H 0.18311 0.0976 0.13166 0.0
H587 H 0.17595 0.98986 0.13392 0.0
C588 C 0.32126 0.98094 0.13842 0.0
C589 C 0.35202 1.00098 0.13935 0.0
C590 C 0.34811 0.03613 0.13936 0.0
C591 C 0.31468 0.05106 0.13806 0.0
C592 C 0.28505 0.03069 0.13694 0.0
C593 C 0.28789 0.99641 0.13735 0.0
C594 C 0.25158 0.98041 0.13629 0.0
C595 C 0.24755 0.95895 0.11205 0.0
C596 C 0.24442 0.96004 0.16071 0.0
C597 C 0.22812 1.01105 0.13506 0.0
C598 C 0.24799 0.03979 0.13531 0.0
C599 C 0.23232 0.07116 0.13392 0.0
C600 C 0.19528 0.07324 0.1325 0.0
C601 C 0.17422 0.04414 0.13267 0.0
C602 C 0.19113 1.01267 0.13389 0.0
H603 H 0.68666 0.0298 0.3697 0.0
H604 H 0.69691 0.92797 0.3966 0.0
H605 H 0.76102 0.93633 0.40226 0.0
H606 H 0.76701 0.03197 0.33408 0.0
H607 H 0.77719 0.07445 0.34223 0.0
H608 H 0.73187 0.06087 0.3411 0.0
H609 H 0.72279 0.08102 0.38785 0.0
H610 H 0.76814 0.09458 0.38916 0.0
H611 H 0.75162 0.06584 0.4128 0.0
H612 H 0.82414 0.9548 0.40343 0.0
H613 H 0.88221 0.98207 0.40015 0.0
H614 H 0.83138 0.07244 0.37322 0.0
C615 C 0.70226 1.00925 0.37694 0.0
C616 C 0.68651 0.97817 0.38274 0.0
C617 C 0.70815 0.952 0.39203 0.0
C618 C 0.74465 0.95652 0.39536 0.0
C619 C 0.75921 0.98738 0.3894 0.0
C620 C 0.73873 0.01333 0.38044 0.0
C621 C 0.76115 0.04379 0.37495 0.0
C622 C 0.75919 0.05332 0.3464 0.0
C623 C 0.75027 0.07304 0.39223 0.0
C624 C 0.79752 0.03081 0.38205 0.0
C625 C 0.79572 0.99821 0.39035 0.0
C626 C 0.82586 0.98039 0.39713 0.0
C627 C 0.85877 0.99613 0.39515 0.0
C628 C 0.86145 0.0295 0.38655 0.0
C629 C 0.83024 0.0471 0.3802 0.0
H630 H 0.8115 0.95797 0.87256 0.0
H631 H 0.85847 0.04872 0.90221 0.0
H632 H 0.79942 0.07344 0.90672 0.0
H633 H 0.74477 0.99766 0.83542 0.0
H634 H 0.71084 0.96735 0.84184 0.0
H635 H 0.75667 0.9552 0.84244 0.0
H636 H 0.74925 0.93282 0.88872 0.0
H637 H 0.7033 0.94471 0.88819 0.0
H638 H 0.7319 0.95982 0.91328 0.0
H639 H 0.73657 0.09005 0.9059 0.0
H640 H 0.67239 0.09717 0.90089 0.0
H641 H 0.66415 0.99618 0.87184 0.0
C642 C 0.80926 0.9828 0.88042 0.0
C643 C 0.83977 1.00132 0.88706 0.0
C644 C 0.83566 0.03399 0.89688 0.0
C645 C 0.80216 0.04831 0.89959 0.0
C646 C 0.77277 0.02975 0.89242 0.0
C647 C 0.77579 0.99769 0.88315 0.0
C648 C 0.73967 0.98393 0.87598 0.0
C649 C 0.7379 0.97555 0.84721 0.0
C650 C 0.73049 0.95351 0.89253 0.0
C651 C 0.71616 0.01341 0.88247 0.0
C652 C 0.73595 0.03948 0.89197 0.0
C653 C 0.72068 0.06975 0.89866 0.0
C654 C 0.68412 0.07357 0.89563 0.0
C655 C 0.66298 0.04726 0.88601 0.0
C656 C 0.6794 0.01671 0.87943 0.0
H657 H 0.18403 0.03787 0.63959 0.0
H658 H 0.18569 0.93426 0.61602 0.0
H659 H 0.25029 0.93785 0.60974 0.0
H660 H 0.25077 0.06719 0.59524 0.0
H661 H 0.26988 0.09583 0.61793 0.0
H662 H 0.22362 0.0855 0.6199 0.0
H663 H 0.23189 0.06699 0.66714 0.0
H664 H 0.27811 0.07741 0.66537 0.0
H665 H 0.26486 0.03615 0.6748 0.0
H666 H 0.31464 0.95214 0.60722 0.0
H667 H 0.37468 0.97538 0.60953 0.0
H668 H 0.33162 0.07013 0.63448 0.0
C669 C 0.19783 0.0159 0.63295 0.0
C670 C 0.17955 0.98573 0.62823 0.0
C671 C 0.19891 0.95762 0.61977 0.0
C672 C 0.23564 0.95946 0.61608 0.0
C673 C 0.25268 0.98956 0.62089 0.0
C674 C 0.23445 0.01727 0.62918 0.0
C675 C 0.25923 0.04637 0.63365 0.0
C676 C 0.25034 0.07544 0.6156 0.0
C677 C 0.25847 0.05736 0.66192 0.0
C678 C 0.2944 0.03064 0.62674 0.0
C679 C 0.2899 0.99789 0.61936 0.0
C680 C 0.31844 0.97778 0.61285 0.0
C681 C 0.35251 0.99128 0.61427 0.0
C682 C 0.358 0.02468 0.62212 0.0
C683 C 0.32835 0.0447 0.62809 0.0
H684 H 0.82095 0.45014 0.12046 0.0
H685 H 0.87089 0.54742 0.11829 0.0
H686 H 0.81272 0.57411 0.12016 0.0
H687 H 0.74491 0.47204 0.08143 0.0
H688 H 0.71418 0.44755 0.09986 0.0
H689 H 0.75995 0.43534 0.09806 0.0
H690 H 0.76406 0.43588 0.14767 0.0
H691 H 0.71829 0.44807 0.14961 0.0
H692 H 0.75179 0.47295 0.16497 0.0
H693 H 0.74945 0.59117 0.12244 0.0
H694 H 0.68472 0.597 0.12575 0.0
H695 H 0.67445 0.48941 0.12682 0.0
C696 C 0.81966 0.47702 0.12031 0.0
C697 C 0.85088 0.49645 0.11919 0.0
C698 C 0.84771 0.53168 0.11916 0.0
C699 C 0.81464 0.54726 0.12018 0.0
C700 C 0.78456 0.52751 0.12129 0.0
C701 C 0.78661 0.49318 0.12143 0.0
C702 C 0.74987 0.47805 0.1231 0.0
C703 C 0.74176 0.457 0.09919 0.0
C704 C 0.74578 0.45753 0.14781 0.0
C705 C 0.72713 0.50924 0.12386 0.0
C706 C 0.74775 0.53746 0.12275 0.0
C707 C 0.73296 0.56923 0.12331 0.0
C708 C 0.69608 0.5723 0.12519 0.0
C709 C 0.67419 0.54377 0.12651 0.0
C710 C 0.6902 0.51182 0.12575 0.0
H711 H 0.32691 0.49687 0.37021 0.0
H712 H 0.32182 0.59993 0.39486 0.0
H713 H 0.25717 0.59516 0.39936 0.0
H714 H 0.24927 0.49927 0.33204 0.0
H715 H 0.23529 0.45765 0.33984 0.0
H716 H 0.28154 0.46816 0.34059 0.0
H717 H 0.28539 0.44782 0.38767 0.0
H718 H 0.23905 0.43743 0.3871 0.0
H719 H 0.25595 0.46515 0.41135 0.0
H720 H 0.19343 0.58073 0.39901 0.0
H721 H 0.13367 0.55848 0.39187 0.0
H722 H 0.1785 0.46453 0.36696 0.0
C723 C 0.31229 0.51835 0.37685 0.0
C724 C 0.32964 0.5488 0.38228 0.0
C725 C 0.3093 0.57637 0.39056 0.0
C726 C 0.27253 0.57386 0.3933 0.0
C727 C 0.25631 0.54363 0.38764 0.0
C728 C 0.27542 0.51637 0.37949 0.0
C729 C 0.25107 0.48746 0.37312 0.0
C730 C 0.2545 0.47756 0.34471 0.0
C731 C 0.2583 0.4577 0.39087 0.0
C732 C 0.21523 0.50292 0.37866 0.0
C733 C 0.21908 0.53526 0.38725 0.0
C734 C 0.19008 0.55538 0.39251 0.0
C735 C 0.15621 0.54249 0.38836 0.0
C736 C 0.15137 0.5097 0.37901 0.0
C737 C 0.18135 0.48942 0.37459 0.0
H738 H 0.16888 0.49197 0.86348 0.0
H739 H 0.17418 0.59876 0.87582 0.0
H740 H 0.23884 0.59508 0.87926 0.0
H741 H 0.24043 0.47042 0.90785 0.0
H742 H 0.25731 0.4374 0.88794 0.0
H743 H 0.21096 0.44778 0.88701 0.0
H744 H 0.21487 0.45649 0.83788 0.0
H745 H 0.26123 0.44622 0.83865 0.0
H746 H 0.2469 0.48521 0.8251 0.0
H747 H 0.30214 0.58124 0.87961 0.0
H748 H 0.36179 0.5579 0.87854 0.0
H749 H 0.31822 0.459 0.86697 0.0
C750 C 0.18359 0.51457 0.86711 0.0
C751 C 0.16611 0.54573 0.86939 0.0
C752 C 0.18659 0.57461 0.87404 0.0
C753 C 0.22347 0.5728 0.87601 0.0
C754 C 0.23974 0.54191 0.87347 0.0
C755 C 0.22064 0.51322 0.86929 0.0
C756 C 0.24519 0.4833 0.86712 0.0
C757 C 0.23804 0.45824 0.88877 0.0
C758 C 0.24184 0.46684 0.84061 0.0
C759 C 0.28107 0.49984 0.87043 0.0
C760 C 0.27697 0.53368 0.87403 0.0
C761 C 0.30572 0.55477 0.87693 0.0
C762 C 0.33965 0.54111 0.87616 0.0
C763 C 0.34506 0.50645 0.87259 0.0
C764 C 0.31514 0.4855 0.86984 0.0
H765 H 0.68872 0.45823 0.62978 0.0
H766 H 0.63747 0.54929 0.60475 0.0
H767 H 0.69539 0.5762 0.60026 0.0
H768 H 0.75487 0.49725 0.66747 0.0
H769 H 0.79005 0.46891 0.65933 0.0
H770 H 0.74482 0.45496 0.65863 0.0
H771 H 0.7521 0.43653 0.61134 0.0
H772 H 0.7975 0.45011 0.61197 0.0
H773 H 0.7677 0.46602 0.5879 0.0
H774 H 0.75701 0.59511 0.60145 0.0
H775 H 0.82074 0.60454 0.60574 0.0
H776 H 0.8351 0.50188 0.6298 0.0
C777 C 0.68986 0.48355 0.62279 0.0
C778 C 0.65846 0.50161 0.61752 0.0
C779 C 0.66104 0.53495 0.60895 0.0
C780 C 0.69386 0.55051 0.60631 0.0
C781 C 0.72416 0.5325 0.6123 0.0
C782 C 0.72273 0.49971 0.62015 0.0
C783 C 0.75969 0.48688 0.62632 0.0
C784 C 0.76251 0.47638 0.65462 0.0
C785 C 0.76984 0.45818 0.6083 0.0
C786 C 0.78179 0.51773 0.62096 0.0
C787 C 0.7605 0.54362 0.6129 0.0
C788 C 0.77407 0.57497 0.60752 0.0
C789 C 0.81045 0.58009 0.61018 0.0
C790 C 0.83327 0.55401 0.61811 0.0
C791 C 0.81855 0.52233 0.62357 0.0
H792 H 0.02135 0.08786 0.31725 0.0
H793 H 0.91257 0.06231 0.30057 0.0
H794 H 0.92866 0.05055 0.25544 0.0
H795 H 0.0318 0.13376 0.26036 0.0
H796 H 0.0777 0.12337 0.25562 0.0
H797 H 0.05945 0.12378 0.28749 0.0
H798 H 0.07994 0.06317 0.29437 0.0
H799 H 0.09829 0.06226 0.26243 0.0
H800 H 0.06628 0.03163 0.27199 0.0
H801 H 0.9547 0.04704 0.21189 0.0
H802 H 0.98857 0.05378 0.1718 0.0
H803 H 0.08022 0.08527 0.21536 0.0
C804 C 1.00132 0.07873 0.30416 0.0
C805 C 0.96603 0.07462 0.31234 0.0
C806 C 0.9399 0.06459 0.29461 0.0
C807 C 0.94883 0.05786 0.26905 0.0
C808 C 0.9838 0.06248 0.26139 0.0
C809 C 0.00961 0.07306 0.27832 0.0
C810 C 0.04389 0.08064 0.26437 0.0
C811 C 0.05377 0.11758 0.26713 0.0
C812 C 0.07392 0.05809 0.27387 0.0
C813 C 0.03339 0.07241 0.23701 0.0
C814 C 0.99866 0.06175 0.23584 0.0
C815 C 0.9821 0.05471 0.21261 0.0
C816 C 1.00155 0.05845 0.18997 0.0
C817 C 0.03727 0.06878 0.19069 0.0
C818 C 0.05324 0.07635 0.21446 0.0
H819 H 0.44217 0.94579 0.22199 0.0
H820 H 0.53192 0.94125 0.17053 0.0
H821 H 0.57267 0.94399 0.20752 0.0
H822 H 0.48107 1.00155 0.27171 0.0
H823 H 0.45999 0.97855 0.29686 0.0
H824 H 0.43989 0.98046 0.26549 0.0
H825 H 0.43961 0.91523 0.26626 0.0
H826 H 0.46215 0.91498 0.29671 0.0
H827 H 0.481 0.89339 0.26969 0.0
H828 H 0.60369 0.94247 0.24997 0.0
H829 H 0.62263 0.93808 0.29544 0.0
H830 H 0.51359 0.94701 0.31975 0.0
C831 C 0.47042 0.94596 0.21864 0.0
C832 C 0.48407 0.94454 0.19344 0.0
C833 C 0.52108 0.94349 0.18969 0.0
C834 C 0.5444 0.94491 0.21057 0.0
C835 C 0.53029 0.94707 0.23518 0.0
C836 C 0.49416 0.94762 0.23939 0.0
C837 C 0.48607 0.94769 0.26793 0.0
C838 C 0.46548 0.97892 0.27592 0.0
C839 C 0.46603 0.91593 0.27559 0.0
C840 C 0.52321 0.94784 0.27896 0.0
C841 C 0.54832 0.94698 0.25974 0.0
C842 C 0.58432 0.94387 0.26519 0.0
C843 C 0.59487 0.9414 0.29097 0.0
C844 C 0.56965 0.94324 0.31087 0.0
C845 C 0.53344 0.94671 0.30478 0.0
H846 H 0.08109 0.95075 0.72377 0.0
H847 H 0.9945 0.9748 0.67246 0.0
H848 H 0.95493 0.98278 0.70939 0.0
H849 H 0.02972 0.90386 0.76734 0.0
H850 H 0.05229 0.91744 0.79594 0.0
H851 H 0.07529 0.91681 0.76573 0.0
H852 H 0.09048 0.97955 0.7708 0.0
H853 H 0.06804 0.97939 0.8013 0.0
H854 H 0.05523 1.00872 0.77699 0.0
H855 H 0.92285 0.98172 0.75067 0.0
H856 H 0.9006 0.97243 0.79476 0.0
H857 H 0.00738 0.95297 0.82081 0.0
C858 C 0.05393 0.95816 0.72051 0.0
C859 C 0.04095 0.96295 0.69534 0.0
C860 C 1.00509 0.97181 0.69164 0.0
C861 C 0.9824 0.97641 0.71249 0.0
C862 C 0.99588 0.97205 0.73709 0.0
C863 C 0.0308 0.96323 0.74133 0.0
C864 C 0.03748 0.95781 0.76979 0.0
C865 C 0.04938 0.92185 0.775 0.0
C866 C 0.06444 0.98288 0.78031 0.0
C867 C 1.00085 0.96441 0.7806 0.0
C868 C 0.97728 0.97257 0.76134 0.0
C869 C 0.94118 0.97627 0.76606 0.0
C870 C 0.92874 0.97099 0.79107 0.0
C871 C 0.95246 0.96318 0.8111 0.0
C872 C 0.98899 0.96026 0.80588 0.0
H873 H 0.52287 0.07416 0.69078 0.0
H874 H 0.41183 0.05987 0.70743 0.0
H875 H 0.42575 0.0539 0.75357 0.0
H876 H 0.56169 0.02192 0.74264 0.0
H877 H 0.59602 0.05153 0.74948 0.0
H878 H 0.57855 0.04794 0.71737 0.0
H879 H 0.56373 0.11068 0.71746 0.0
H880 H 0.58074 0.11451 0.74959 0.0
H881 H 0.53614 0.12744 0.74252 0.0
H882 H 0.44977 0.05718 0.79744 0.0
H883 H 0.48276 0.06845 0.83728 0.0
H884 H 0.57872 0.08339 0.79344 0.0
C885 C 0.50185 0.06843 0.70416 0.0
C886 C 0.46648 0.06598 0.69573 0.0
C887 C 0.43915 0.06066 0.71367 0.0
C888 C 0.44684 0.0573 0.73982 0.0
C889 C 0.4819 0.06045 0.74771 0.0
C890 C 0.50903 0.06606 0.73048 0.0
C891 C 0.54348 0.07337 0.74438 0.0
C892 C 0.57163 0.04713 0.73808 0.0
C893 C 0.55678 0.10859 0.73811 0.0
C894 C 0.53146 0.07086 0.77207 0.0
C895 C 0.49584 0.06329 0.77343 0.0
C896 C 0.47784 0.06224 0.79666 0.0
C897 C 0.4968 0.06855 0.81917 0.0
C898 C 0.53346 0.07531 0.81839 0.0
C899 C 0.55092 0.07714 0.79451 0.0
H900 H 0.57955 0.56575 0.22284 0.0
H901 H 0.48991 0.55561 0.17164 0.0
H902 H 0.45031 0.54805 0.20866 0.0
H903 H 0.5476 0.50519 0.27141 0.0
H904 H 0.56289 0.52903 0.29857 0.0
H905 H 0.58641 0.53064 0.26851 0.0
H906 H 0.58042 0.59412 0.26599 0.0
H907 H 0.5584 0.59401 0.29655 0.0
H908 H 0.53741 0.61304 0.26916 0.0
H909 H 0.41941 0.55382 0.25015 0.0
H910 H 0.39969 0.56568 0.29448 0.0
H911 H 0.5085 0.56538 0.3202 0.0
C912 C 0.55174 0.56101 0.21958 0.0
C913 C 0.53779 0.56033 0.19449 0.0
C914 C 0.50115 0.55517 0.19076 0.0
C915 C 0.47845 0.55097 0.21166 0.0
C916 C 0.49281 0.55189 0.23623 0.0
C917 C 0.52865 0.55629 0.24036 0.0
C918 C 0.53669 0.55849 0.26882 0.0
C919 C 0.55976 0.52908 0.27737 0.0
C920 C 0.55425 0.5919 0.27551 0.0
C921 C 0.49964 0.55621 0.27988 0.0
C922 C 0.47473 0.55253 0.26067 0.0
C923 C 0.43858 0.55525 0.26553 0.0
C924 C 0.42758 0.56203 0.29067 0.0
C925 C 0.45252 0.56473 0.31069 0.0
C926 C 0.48895 0.56159 0.30529 0.0
H927 H 0.99294 0.46273 0.30175 0.0
H928 H 0.10484 0.45919 0.28458 0.0
H929 H 0.09115 0.45725 0.23804 0.0
H930 H 0.97087 0.40197 0.25451 0.0
H931 H 0.92841 0.41994 0.24704 0.0
H932 H 0.94721 0.42528 0.27852 0.0
H933 H 0.94021 0.48796 0.27381 0.0
H934 H 0.92353 0.48475 0.2415 0.0
H935 H 0.96202 0.50964 0.24828 0.0
H936 H 0.06529 0.44977 0.19414 0.0
H937 H 0.02919 0.44019 0.15526 0.0
H938 H 0.93364 0.44646 0.20074 0.0
C939 C 0.01447 0.46254 0.28806 0.0
C940 C 0.04997 0.46218 0.29645 0.0
C941 C 0.07756 0.46026 0.27829 0.0
C942 C 0.06998 0.45906 0.25192 0.0
C943 C 0.03463 0.45877 0.2442 0.0
C944 C 0.0073 0.46025 0.26175 0.0
C945 C 0.97172 0.456 0.24867 0.0
C946 C 0.9535 0.42389 0.25773 0.0
C947 C 0.94795 0.4864 0.25329 0.0
C948 C 0.9832 0.45309 0.22087 0.0
C949 C 0.01966 0.45428 0.21882 0.0
C950 C 0.03674 0.44954 0.19543 0.0
C951 C 0.01607 0.44424 0.17346 0.0
C952 C 0.97875 0.44413 0.17492 0.0
C953 C 0.96215 0.44768 0.19904 0.0
H954 H 0.50024 0.43295 0.68935 0.0
H955 H 0.60923 0.4549 0.70817 0.0
H956 H 0.59235 0.46392 0.75363 0.0
H957 H 0.44724 0.48163 0.73536 0.0
H958 H 0.4202 0.446 0.74021 0.0
H959 H 0.44334 0.45083 0.71027 0.0
H960 H 0.46603 0.3896 0.72202 0.0
H961 H 0.44668 0.39173 0.75356 0.0
H962 H 0.4934 0.38443 0.75008 0.0
H963 H 0.56274 0.4743 0.79619 0.0
H964 H 0.52546 0.47316 0.83499 0.0
H965 H 0.43636 0.43971 0.78966 0.0
C966 C 0.52029 0.4402 0.7031 0.0
C967 C 0.55568 0.44523 0.69526 0.0
C968 C 0.58183 0.45228 0.71381 0.0
C969 C 0.57244 0.45741 0.73958 0.0
C970 C 0.53705 0.45378 0.74658 0.0
C971 C 0.51159 0.44395 0.72911 0.0
C972 C 0.47698 0.43595 0.74262 0.0
C973 C 0.44521 0.45476 0.73132 0.0
C974 C 0.4704 0.3982 0.74204 0.0
C975 C 0.4856 0.44745 0.76963 0.0
C976 C 0.52061 0.45696 0.77159 0.0
C977 C 0.53519 0.46731 0.7948 0.0
C978 C 0.51357 0.46747 0.81665 0.0
C979 C 0.47749 0.45846 0.81507 0.0
C980 C 0.46351 0.448 0.79123 0.0
H981 H 0.99338 0.57109 0.80392 0.0
H982 H 0.10352 0.57027 0.78157 0.0
H983 H 0.08592 0.5668 0.73587 0.0
H984 H 0.95563 0.52037 0.75196 0.0
H985 H 0.9177 0.54687 0.74762 0.0
H986 H 0.93803 0.54294 0.77882 0.0
H987 H 0.94679 0.60624 0.78156 0.0
H988 H 0.92606 0.61116 0.75071 0.0
H989 H 0.96972 0.62764 0.75616 0.0
H990 H 0.05704 0.57034 0.69321 0.0
H991 H 0.01896 0.5821 0.65582 0.0
H992 H 0.92699 0.58523 0.70524 0.0
C993 C 0.01362 0.5688 0.78933 0.0
C994 C 0.04977 0.56933 0.79602 0.0
C995 C 0.07575 0.56863 0.77662 0.0
C996 C 0.06595 0.56672 0.75072 0.0
C997 C 0.03003 0.56682 0.74462 0.0
C998 C 1.00421 0.56822 0.76334 0.0
C999 C 0.96788 0.57343 0.75163 0.0
C1000 C 0.94332 0.54416 0.75787 0.0
C1001 C 0.95168 0.60659 0.76055 0.0
C1002 C 0.97725 0.57455 0.72335 0.0
C1003 C 0.01325 0.57043 0.71981 0.0
C1004 C 0.02876 0.5729 0.69568 0.0
C1005 C 0.00696 0.57951 0.67458 0.0
C1006 C 0.97004 0.58335 0.67765 0.0
C1007 C 0.95505 0.58138 0.70239 0.0
H1008 H 0.06492 0.19915 0.10486 0.0
H1009 H 0.96751 0.14302 0.09826 0.0
H1010 H 0.93421 0.19526 0.09195 0.0
H1011 H 0.02907 0.26382 0.1418 0.0
H1012 H 0.0549 0.29651 0.12741 0.0
H1013 H 0.07176 0.25468 0.12814 0.0
H1014 H 0.07944 0.25571 0.07876 0.0
H1015 H 0.06271 0.29767 0.0779 0.0
H1016 H 0.04214 0.26585 0.05866 0.0
H1017 H 0.91074 0.25399 0.08946 0.0
H1018 H 0.89897 0.31436 0.09228 0.0
H1019 H 0.01127 0.33258 0.10184 0.0
C1020 C 0.03672 0.19783 0.10142 0.0
C1021 C 0.01887 0.16692 0.10172 0.0
C1022 C 0.98178 0.16635 0.09792 0.0
C1023 C 0.96263 0.19593 0.09428 0.0
C1024 C 0.98085 0.22604 0.09462 0.0
C1025 C 0.01709 0.22723 0.0981 0.0
C1026 C 0.02987 0.26294 0.09971 0.0
C1027 C 0.04742 0.26988 0.12582 0.0
C1028 C 0.05503 0.27101 0.07743 0.0
C1029 C 0.99515 0.28159 0.09702 0.0
C1030 C 0.96724 0.25987 0.09379 0.0
C1031 C 0.93246 0.27123 0.09177 0.0
C1032 C 0.92601 0.30561 0.09338 0.0
C1033 C 0.95413 0.32832 0.09719 0.0
C1034 C 0.98917 0.31597 0.09873 0.0
H1035 H 0.51357 0.83944 0.11846 0.0
H1036 H 0.40116 0.82125 0.1095 0.0
H1037 H 0.41287 0.76089 0.10672 0.0
H1038 H 0.54385 0.77252 0.07515 0.0
H1039 H 0.58144 0.76269 0.09504 0.0
H1040 H 0.56447 0.80456 0.09414 0.0
H1041 H 0.55742 0.80379 0.14356 0.0
H1042 H 0.57416 0.76191 0.14462 0.0
H1043 H 0.53162 0.77138 0.15837 0.0
H1044 H 0.4362 0.70229 0.10921 0.0
H1045 H 0.46955 0.64997 0.11465 0.0
H1046 H 0.56721 0.7059 0.1207 0.0
C1047 C 0.49144 0.82284 0.11543 0.0
C1048 C 0.45639 0.83517 0.1141 0.0
C1049 C 0.42822 0.81249 0.11042 0.0
C1050 C 0.43462 0.77812 0.10886 0.0
C1051 C 0.4694 0.76677 0.11077 0.0
C1052 C 0.4974 0.78847 0.11371 0.0
C1053 C 0.53212 0.76976 0.11629 0.0
C1054 C 0.55693 0.77787 0.09381 0.0
C1055 C 0.54986 0.77715 0.14225 0.0
C1056 C 0.51921 0.7341 0.11494 0.0
C1057 C 0.48294 0.73296 0.1117 0.0
C1058 C 0.46465 0.7029 0.11138 0.0
C1059 C 0.48384 0.67329 0.11457 0.0
C1060 C 0.52102 0.67378 0.11789 0.0
C1061 C 0.5389 0.70467 0.11778 0.0
H1062 H 0.43769 0.71172 0.38058 0.0
H1063 H 0.52844 0.65444 0.40584 0.0
H1064 H 0.56124 0.70644 0.41412 0.0
H1065 H 0.48795 0.77163 0.34619 0.0
H1066 H 0.45967 0.80635 0.35376 0.0
H1067 H 0.44167 0.76496 0.3526 0.0
H1068 H 0.41824 0.7717 0.39898 0.0
H1069 H 0.43626 0.81313 0.4003 0.0
H1070 H 0.44845 0.78295 0.4243 0.0
H1071 H 0.58483 0.76389 0.41857 0.0
H1072 H 0.60045 0.82301 0.41489 0.0
H1073 H 0.49632 0.84434 0.38376 0.0
C1074 C 0.46424 0.71027 0.3883 0.0
C1075 C 0.48044 0.67909 0.39296 0.0
C1076 C 0.51554 0.67806 0.40231 0.0
C1077 C 0.53429 0.70746 0.40717 0.0
C1078 C 0.51779 0.7378 0.4022 0.0
C1079 C 0.48372 0.73951 0.39268 0.0
C1080 C 0.47351 0.77531 0.38684 0.0
C1081 C 0.46522 0.77982 0.35815 0.0
C1082 C 0.44226 0.78642 0.40361 0.0
C1083 C 0.50727 0.79335 0.39434 0.0
C1084 C 0.53215 0.77117 0.40358 0.0
C1085 C 0.56556 0.78151 0.4114 0.0
C1086 C 0.57415 0.81527 0.40926 0.0
C1087 C 0.54968 0.83849 0.39903 0.0
C1088 C 0.51556 0.82732 0.3918 0.0
H1089 H 0.06178 0.3353 0.38249 0.0
H1090 H 0.96056 0.3852 0.38899 0.0
H1091 H 0.93096 0.33094 0.39462 0.0
H1092 H 0.02997 0.26928 0.34421 0.0
H1093 H 0.05803 0.23779 0.35807 0.0
H1094 H 0.07209 0.28053 0.3579 0.0
H1095 H 0.08026 0.27878 0.40723 0.0
H1096 H 0.06634 0.23593 0.40754 0.0
H1097 H 0.04387 0.26607 0.42726 0.0
H1098 H 0.91189 0.27145 0.39767 0.0
H1099 H 0.90395 0.21068 0.39517 0.0
H1100 H 0.01686 0.19838 0.38368 0.0
C1101 C 0.03351 0.33474 0.38574 0.0
C1102 C 0.01346 0.36445 0.38578 0.0
C1103 C 0.97639 0.36274 0.38916 0.0
C1104 C 0.95938 0.33204 0.39242 0.0
C1105 C 0.97972 0.30314 0.39186 0.0
C1106 C 0.01596 0.30413 0.38843 0.0
C1107 C 0.03108 0.26922 0.38629 0.0
C1108 C 0.04883 0.26391 0.36006 0.0
C1109 C 0.05692 0.26209 0.4084 0.0
C1110 C 0.99767 0.24854 0.38878 0.0
C1111 C 0.96846 0.26865 0.39239 0.0
C1112 C 0.93459 0.25545 0.39492 0.0
C1113 C 0.93035 0.22084 0.39349 0.0
C1114 C 0.95972 0.19968 0.3892 0.0
C1115 C 0.99386 0.21385 0.38699 0.0
H1116 H 0.06061 0.70877 0.87524 0.0
H1117 H 0.96313 0.65314 0.88349 0.0
H1118 H 0.93016 0.70556 0.88959 0.0
H1119 H 0.03982 0.77594 0.92069 0.0
H1120 H 0.05953 0.80769 0.90095 0.0
H1121 H 0.07621 0.76573 0.89981 0.0
H1122 H 0.0663 0.76448 0.85063 0.0
H1123 H 0.04954 0.80637 0.85164 0.0
H1124 H 0.02304 0.77367 0.83789 0.0
H1125 H 0.90737 0.76366 0.89346 0.0
H1126 H 0.89539 0.82389 0.89206 0.0
H1127 H 1.00685 0.84285 0.87872 0.0
C1128 C 0.03244 0.7077 0.87881 0.0
C1129 C 0.01442 0.6769 0.87921 0.0
C1130 C 0.97742 0.67646 0.88323 0.0
C1131 C 0.9585 0.7061 0.8868 0.0
C1132 C 0.97688 0.73609 0.88597 0.0
C1133 C 0.01297 0.73721 0.8819 0.0
C1134 C 0.02573 0.77292 0.87993 0.0
C1135 C 0.05187 0.78104 0.90164 0.0
C1136 C 0.04211 0.77975 0.85345 0.0
C1137 C 0.99114 0.79161 0.88333 0.0
C1138 C 0.96342 0.76982 0.88715 0.0
C1139 C 0.92887 0.78098 0.89053 0.0
C1140 C 0.92234 0.81529 0.88973 0.0
C1141 C 0.95013 0.83816 0.88526 0.0
C1142 C 0.98503 0.82603 0.88219 0.0
H1143 H 0.42804 0.32369 0.88084 0.0
H1144 H 0.5142 0.37255 0.92067 0.0
H1145 H 0.54201 0.31815 0.92909 0.0
H1146 H 0.42638 0.24594 0.92049 0.0
H1147 H 0.41819 0.21979 0.89304 0.0
H1148 H 0.40192 0.26194 0.89346 0.0
H1149 H 0.43452 0.27373 0.85077 0.0
H1150 H 0.45105 0.23176 0.85029 0.0
H1151 H 0.48143 0.26619 0.84869 0.0
H1152 H 0.5636 0.26031 0.92966 0.0
H1153 H 0.57878 0.20177 0.9218 0.0
H1154 H 0.48024 0.18843 0.88026 0.0
C1155 C 0.45215 0.32266 0.89204 0.0
C1156 C 0.46875 0.35219 0.90056 0.0
C1157 C 0.50096 0.35015 0.91426 0.0
C1158 C 0.5169 0.31938 0.91916 0.0
C1159 C 0.5005 0.29075 0.91001 0.0
C1160 C 0.46886 0.29194 0.89673 0.0
C1161 C 0.45889 0.25758 0.88688 0.0
C1162 C 0.42429 0.24561 0.89921 0.0
C1163 C 0.45633 0.25732 0.85741 0.0
C1164 C 0.49026 0.23719 0.89622 0.0
C1165 C 0.5136 0.25691 0.9098 0.0
C1166 C 0.54536 0.24451 0.91932 0.0
C1167 C 0.5538 0.21117 0.91465 0.0
C1168 C 0.5307 0.19038 0.90048 0.0
C1169 C 0.49823 0.20355 0.89144 0.0
H1170 H 0.43992 0.20909 0.62475 0.0
H1171 H 0.53187 0.15833 0.59428 0.0
H1172 H 0.56004 0.21239 0.58513 0.0
H1173 H 0.44214 0.28266 0.5816 0.0
H1174 H 0.43006 0.31111 0.60683 0.0
H1175 H 0.41478 0.26869 0.60776 0.0
H1176 H 0.44226 0.26151 0.65296 0.0
H1177 H 0.45763 0.30383 0.65215 0.0
H1178 H 0.48852 0.27043 0.65768 0.0
H1179 H 0.57998 0.27119 0.58169 0.0
H1180 H 0.59242 0.33092 0.58697 0.0
H1181 H 0.48938 0.34469 0.62205 0.0
C1182 C 0.46558 0.20954 0.61555 0.0
C1183 C 0.48358 0.17963 0.60979 0.0
C1184 C 0.51761 0.18102 0.59862 0.0
C1185 C 0.53374 0.21159 0.59327 0.0
C1186 C 0.51572 0.24069 0.59954 0.0
C1187 C 0.48249 0.24004 0.6106 0.0
C1188 C 0.47061 0.27493 0.61778 0.0
C1189 C 0.43743 0.28493 0.60258 0.0
C1190 C 0.4644 0.27783 0.64687 0.0
C1191 C 0.50255 0.2951 0.60941 0.0
C1192 C 0.52794 0.27483 0.59853 0.0
C1193 C 0.56021 0.28736 0.59003 0.0
C1194 C 0.56703 0.3214 0.59311 0.0
C1195 C 0.54191 0.34262 0.60487 0.0
C1196 C 0.50903 0.32923 0.61279 0.0
H1197 H 0.06675 0.83368 0.61203 0.0
H1198 H 0.96985 0.89059 0.60454 0.0
H1199 H 0.93624 0.83848 0.59843 0.0
H1200 H 0.04441 0.76662 0.56648 0.0
H1201 H 0.06427 0.73478 0.58612 0.0
H1202 H 0.08135 0.77658 0.58696 0.0
H1203 H 0.07257 0.77817 0.63621 0.0
H1204 H 0.05537 0.73647 0.63553 0.0
H1205 H 0.02951 0.76953 0.64942 0.0
H1206 H 0.91271 0.78039 0.59531 0.0
H1207 H 0.90007 0.72042 0.59762 0.0
H1208 H 0.01168 0.70018 0.60936 0.0
C1209 C 0.03858 0.83517 0.60849 0.0
C1210 C 0.02094 0.86626 0.60835 0.0
C1211 C 0.98391 0.86711 0.60449 0.0
C1212 C 0.96463 0.83764 0.60096 0.0
C1213 C 0.98267 0.80738 0.60161 0.0
C1214 C 0.0188 0.80587 0.6054 0.0
C1215 C 0.03126 0.77 0.60736 0.0
C1216 C 0.05684 0.7615 0.58542 0.0
C1217 C 0.04817 0.76315 0.6337 0.0
C1218 C 0.99644 0.7516 0.60438 0.0
C1219 C 0.96888 0.7737 0.60074 0.0
C1220 C 0.93411 0.76287 0.59804 0.0
C1221 C 0.92721 0.72865 0.59938 0.0
C1222 C 0.95483 0.70543 0.60365 0.0
C1223 C 0.98999 0.7172 0.60594 0.0
H1224 H 0.96972 0.02582 0.94807 0.0
H1225 H 0.98008 0.91841 0.95149 0.0
H1226 H 0.01063 0.92352 0.99334 0.0
H1227 H 0.05317 0.04625 0.97556 0.0
H1228 H 0.03681 0.08124 0.99362 0.0
H1229 H 0.01544 0.06934 0.96411 0.0
H1230 H 0.95548 0.06391 0.98775 0.0
H1231 H 0.97652 0.07637 0.01722 0.0
H1232 H 0.95245 0.03776 0.01576 0.0
H1233 H 0.04216 0.94051 0.03336 0.0
H1234 H 0.06542 0.96692 0.07229 0.0
H1235 H 0.03281 0.06373 0.04373 0.0
C1236 C 0.97823 1.00332 0.95768 0.0
C1237 C 0.97268 0.97166 0.94652 0.0
C1238 C 0.98388 0.94283 0.95979 0.0
C1239 C 1.0015 0.94555 0.98341 0.0
C1240 C 0.00732 0.97721 0.99351 0.0
C1241 C 0.99546 1.00555 0.98132 0.0
C1242 C 1.0041 0.03655 0.99666 0.0
C1243 C 0.02886 0.0597 0.98158 0.0
C1244 C 0.97011 0.0547 0.00484 0.0
C1245 C 0.02284 0.02123 0.01946 0.0
C1246 C 0.02471 0.98702 0.01702 0.0
C1247 C 0.04061 0.96722 0.03556 0.0
C1248 C 0.05382 0.98259 0.05762 0.0
C1249 C 0.05079 0.0175 0.06122 0.0
C1250 C 0.03581 0.03711 0.04152 0.0
H1251 H 0.55062 0.99832 0.95451 0.0
H1252 H 0.50217 0.09617 0.95345 0.0
H1253 H 0.46811 0.08187 0.99229 0.0
H1254 H 0.47587 0.95217 0.97657 0.0
H1255 H 0.50079 0.9253 0.99756 0.0
H1256 H 0.52135 0.94255 0.96936 0.0
H1257 H 0.57121 0.96829 0.99714 0.0
H1258 H 0.55137 0.95026 0.02526 0.0
H1259 H 0.55968 0.99435 0.02401 0.0
H1260 H 0.43763 0.05666 0.02944 0.0
H1261 H 0.42199 0.02693 0.06914 0.0
H1262 H 0.49222 0.94614 0.04829 0.0
C1263 C 0.53315 0.01684 0.9627 0.0
C1264 C 0.52896 0.04837 0.95106 0.0
C1265 C 0.50604 0.07205 0.96227 0.0
C1266 C 0.48623 0.06397 0.98408 0.0
C1267 C 0.49007 0.0323 0.99458 0.0
C1268 C 0.5137 1.00943 0.98479 0.0
C1269 C 0.51442 0.97799 0.00088 0.0
C1270 C 0.50239 0.94772 0.98514 0.0
C1271 C 0.55135 0.97241 0.01252 0.0
C1272 C 0.48748 0.98682 0.02131 0.0
C1273 C 0.47325 0.018 0.01682 0.0
C1274 C 0.44854 0.03226 0.03318 0.0
C1275 C 0.43959 0.01506 0.05552 0.0
C1276 C 0.45554 0.98414 0.06143 0.0
C1277 C 0.47892 0.96927 0.04375 0.0
H1278 H 0.4956 0.9902 0.56275 0.0
H1279 H 0.48628 0.09675 0.55033 0.0
H1280 H 0.50877 0.08971 0.50639 0.0
H1281 H 0.57581 0.97804 0.52669 0.0
H1282 H 0.56244 0.9387 0.51328 0.0
H1283 H 0.54575 0.9516 0.54409 0.0
H1284 H 0.48152 0.94453 0.52771 0.0
H1285 H 0.498 0.93148 0.49689 0.0
H1286 H 0.4677 0.96599 0.49903 0.0
H1287 H 0.53267 0.07234 0.46507 0.0
H1288 H 0.55419 0.0456 0.42626 0.0
H1289 H 0.5475 0.9488 0.46337 0.0
C1290 C 0.49832 1.01206 0.55078 0.0
C1291 C 0.48919 0.04409 0.56003 0.0
C1292 C 0.4929 0.07199 0.5437 0.0
C1293 C 0.50579 0.06827 0.51874 0.0
C1294 C 0.51464 0.03648 0.51032 0.0
C1295 C 0.51089 1.00877 0.52564 0.0
C1296 C 0.52179 0.97741 0.51138 0.0
C1297 C 0.55333 0.96045 0.52466 0.0
C1298 C 0.49038 0.95344 0.50859 0.0
C1299 C 0.53239 0.99199 0.48565 0.0
C1300 C 0.5281 0.02613 0.48576 0.0
C1301 C 0.53601 0.04562 0.46465 0.0
C1302 C 0.54829 0.02992 0.44259 0.0
C1303 C 0.55251 0.99479 0.44148 0.0
C1304 C 0.54463 0.97558 0.4635 0.0
H1305 H 0.04956 0.97255 0.54603 0.0
H1306 H 0.04023 0.06699 0.58622 0.0
H1307 H 0.01853 0.09341 0.54713 0.0
H1308 H 0.07913 1.00811 0.48554 0.0
H1309 H 0.05453 0.97919 0.46608 0.0
H1310 H 0.06993 0.96691 0.4974 0.0
H1311 H 1.00589 0.95147 0.51039 0.0
H1312 H 0.99031 0.96377 0.47913 0.0
H1313 H 0.97135 0.98216 0.50749 0.0
H1314 H 0.99613 0.11031 0.50444 0.0
H1315 H 0.97647 0.11632 0.45946 0.0
H1316 H 1.00094 1.01212 0.44616 0.0
C1317 C 0.04312 0.99877 0.54656 0.0
C1318 C 0.04677 0.01742 0.5694 0.0
C1319 C 0.0379 0.05182 0.56914 0.0
C1320 C 0.02541 0.06729 0.54696 0.0
C1321 C 0.02193 0.0483 0.52493 0.0
C1322 C 0.03066 0.01489 0.52438 0.0
C1323 C 0.02431 1.00051 0.49791 0.0
C1324 C 0.05905 0.98795 0.48603 0.0
C1325 C 0.9963 0.97284 0.49879 0.0
C1326 C 0.01059 0.03104 0.48396 0.0
C1327 C 0.00934 0.0583 0.49995 0.0
C1328 C 0.99709 0.08919 0.4916 0.0
C1329 C 0.9859 0.09237 0.46606 0.0
C1330 C 0.98725 0.06483 0.4492 0.0
C1331 C 0.99977 0.03381 0.45844 0.0
H1332 H 0.547 0.48915 0.05872 0.0
H1333 H 0.51876 0.59382 0.06119 0.0
H1334 H 0.48467 0.5873 0.02129 0.0
H1335 H 0.55913 0.48631 0.98982 0.0
H1336 H 0.54188 0.44476 0.98661 0.0
H1337 H 0.56301 0.45728 0.01603 0.0
H1338 H 0.50687 0.44019 0.04123 0.0
H1339 H 0.48532 0.42826 0.01178 0.0
H1340 H 0.46482 0.45824 0.03273 0.0
H1341 H 0.45285 0.57013 0.98244 0.0
H1342 H 0.43331 0.54572 0.94161 0.0
H1343 H 0.48375 0.45233 0.96175 0.0
C1344 C 0.53378 0.5107 0.05074 0.0
C1345 C 0.53555 0.54202 0.06308 0.0
C1346 C 0.51811 0.56968 0.05198 0.0
C1347 C 0.4983 0.56615 0.02948 0.0
C1348 C 0.49647 0.53489 0.01812 0.0
C1349 C 0.51434 0.50777 0.02792 0.0
C1350 C 0.50971 0.47755 0.01073 0.0
C1351 C 0.54556 0.46579 0.00017 0.0
C1352 C 0.49054 0.4494 0.02498 0.0
C1353 C 0.48661 0.4921 0.98968 0.0
C1354 C 0.47883 0.52506 0.99478 0.0
C1355 C 0.45877 0.5444 0.97817 0.0
C1356 C 0.4477 0.53025 0.95508 0.0
C1357 C 0.45696 0.49716 0.94861 0.0
C1358 C 0.47574 0.47745 0.96647 0.0
H1359 H 0.99505 0.43779 0.02902 0.0
H1360 H 0.91644 0.51309 0.04582 0.0
H1361 H 0.92958 0.54107 0.00488 0.0
H1362 H 0.05735 0.48966 0.00354 0.0
H1363 H 0.0724 0.46307 0.97794 0.0
H1364 H 0.05338 0.44514 0.00639 0.0
H1365 H 1.00656 0.41415 0.97916 0.0
H1366 H 0.02608 0.43116 0.95049 0.0
H1367 H 0.97966 0.43718 0.95677 0.0
H1368 H 0.95834 0.56642 0.96719 0.0
H1369 H 0.99316 0.5822 0.92909 0.0
H1370 H 0.05116 0.48928 0.93409 0.0
C1371 C 0.97945 0.45915 0.02332 0.0
C1372 C 0.95422 0.47303 0.04015 0.0
C1373 C 0.93532 0.50186 0.0328 0.0
C1374 C 0.94281 0.51804 0.00972 0.0
C1375 C 0.96907 0.50487 0.99408 0.0
C1376 C 0.98643 0.47556 6e-05 0.0
C1377 C 0.01481 0.46798 0.98031 0.0
C1378 C 0.05166 0.46638 0.9928 0.0
C1379 C 1.00626 0.4357 0.96582 0.0
C1380 C 0.01135 0.49813 0.96295 0.0
C1381 C 0.985 0.51917 0.97147 0.0
C1382 C 0.97852 0.54982 0.95993 0.0
C1383 C 0.99874 0.55878 0.93854 0.0
C1384 C 0.02475 0.53695 0.9287 0.0
C1385 C 0.03123 0.5063 0.94116 0.0
H1386 H 0.97606 0.51703 0.54847 0.0
H1387 H 0.9253 0.61109 0.53026 0.0
H1388 H 0.9375 0.60146 0.48421 0.0
H1389 H 0.04585 0.5247 0.50365 0.0
H1390 H 0.04715 0.48105 0.49586 0.0
H1391 H 0.03228 0.49427 0.52704 0.0
H1392 H 0.9735 0.46238 0.52037 0.0
H1393 H 0.98814 0.44912 0.48911 0.0
H1394 H 0.94682 0.47104 0.49247 0.0
H1395 H 0.95623 0.58228 0.4408 0.0
H1396 H 0.98294 0.55712 0.40268 0.0
H1397 H 0.02354 0.4758 0.44916 0.0
C1398 C 0.96706 0.53553 0.53484 0.0
C1399 C 0.9494 0.56478 0.54299 0.0
C1400 C 0.93875 0.58852 0.52449 0.0
C1401 C 0.94546 0.58318 0.49832 0.0
C1402 C 0.963 0.55411 0.49106 0.0
C1403 C 0.97383 0.53078 0.50878 0.0
C1404 C 0.99388 0.50251 0.49613 0.0
C1405 C 0.03205 0.50054 0.50627 0.0
C1406 C 0.97441 0.4693 0.49974 0.0
C1407 C 0.99289 0.51368 0.4684 0.0
C1408 C 0.97463 0.54336 0.46598 0.0
C1409 C 0.97057 0.55908 0.44247 0.0
C1410 C 0.98603 0.54448 0.42089 0.0
C1411 C 1.00568 0.51443 0.42283 0.0
C1412 C 0.00864 0.49862 0.44695 0.0
H1413 H 0.53955 0.45794 0.54051 0.0
H1414 H 0.48646 0.53229 0.58735 0.0
H1415 H 0.45951 0.55629 0.54908 0.0
H1416 H 0.5586 0.51128 0.48771 0.0
H1417 H 0.54971 0.48094 0.46309 0.0
H1418 H 0.56439 0.46761 0.49433 0.0
H1419 H 0.50929 0.42985 0.49864 0.0
H1420 H 0.49459 0.44287 0.4673 0.0
H1421 H 0.46584 0.44758 0.49462 0.0
H1422 H 0.44153 0.57574 0.50654 0.0
H1423 H 0.42889 0.58631 0.4609 0.0
H1424 H 0.49031 0.49904 0.44014 0.0
C1425 C 0.5219 0.47896 0.54269 0.0
C1426 C 0.5156 0.49324 0.56711 0.0
C1427 C 0.4923 0.52089 0.56902 0.0
C1428 C 0.47664 0.53485 0.54733 0.0
C1429 C 0.48404 0.52088 0.52363 0.0
C1430 C 0.50565 0.49333 0.52102 0.0
C1431 C 0.50908 0.48379 0.49292 0.0
C1432 C 0.54774 0.48605 0.48399 0.0
C1433 C 0.49378 0.44895 0.48809 0.0
C1434 C 0.48644 0.51057 0.48043 0.0
C1435 C 0.47248 0.53172 0.49862 0.0
C1436 C 0.45193 0.55918 0.49203 0.0
C1437 C 0.44506 0.56509 0.46605 0.0
C1438 C 0.45841 0.54347 0.44696 0.0
C1439 C 0.47939 0.51582 0.45432 0.0
loop_
_geom_bond_atom_site_label_1
_geom_bond_atom_site_label_2
_geom_bond_distance
_geom_bond_site_symmetry_2
_ccdc_geom_bond_type
Mn0 O5 2.095 . S
Mn0 O15 2.162 . S
Mn0 O16 2.297 . S
Mn0 O24 2.385 . S
Mn0 O25 2.209 . S
Mn0 O26 2.094 . S
Mn1 O6 2.121 1_565 S
Mn1 N8 2.257 . S
Mn1 N17 2.282 . S
Mn1 O25 2.215 1_565 S
Mn1 O27 2.117 1_565 S
C2 O24 1.234 . S
C2 O25 1.283 . S
C3 O15 1.281 . S
C3 O16 1.236 . S
C4 O26 1.240 . S
C4 O27 1.264 . S
O5 Mn0 2.095 . S
O5 C14 1.250 . S
O6 Mn1 2.121 1_545 S
O6 C14 1.258 . S
C7 N8 1.326 1_655 S
C7 C11 1.460 . S
C7 H13 0.929 . S
N8 Mn1 2.257 . S
N8 C7 1.326 1_455 S
N8 C12 1.362 . S
C9 C10 1.258 . S
C9 C12 1.431 1_655 S
C9 C29 1.449 . S
C10 C9 1.258 . S
C10 C11 1.477 . S
C10 H30 0.931 . S
C11 C7 1.460 . S
C11 C10 1.477 . S
C11 H31 0.930 . S
C12 N8 1.362 . S
C12 C9 1.431 1_455 S
C12 C22 1.476 . S
H13 C7 0.929 . S
C14 O5 1.250 . S
C14 O6 1.258 . S
O15 Mn0 2.162 . S
O15 C3 1.281 . S
O16 Mn0 2.297 . S
O16 C3 1.236 . S
N17 Mn1 2.282 . S
N17 C18 1.328 . S
N17 C22 1.318 . S
C18 N17 1.328 . S
C18 C19 1.457 . S
C18 H23 0.929 1_565 S
C19 C18 1.457 . S
C19 C20 1.291 . S
C19 H32 0.931 . S
C20 C19 1.291 . S
C20 C21 1.373 . S
C20 H33 0.929 . S
C21 C20 1.373 . S
C21 C22 1.396 . S
C21 C28 1.403 . S
C22 C12 1.476 . S
C22 N17 1.318 . S
C22 C21 1.396 . S
H23 C18 0.929 1_545 S
O24 Mn0 2.385 . S
O24 C2 1.234 . S
O25 Mn0 2.209 . S
O25 Mn1 2.215 1_545 S
O25 C2 1.283 . S
O26 Mn0 2.094 . S
O26 C4 1.240 . S
O27 Mn1 2.117 1_545 S
O27 C4 1.264 . S
C28 C21 1.403 . S
C28 C29 1.399 1_455 S
C28 H34 0.929 . S
C29 C9 1.449 . S
C29 C28 1.399 1_655 S
C29 H35 0.930 . S
H30 C10 0.931 . S
H31 C11 0.930 . S
H32 C19 0.931 . S
H33 C20 0.929 . S
H34 C28 0.929 . S
H35 C29 0.930 . S
Mn36 O41 2.095 . S
Mn36 O51 2.162 . S
Mn36 O52 2.297 . S
Mn36 O60 2.385 . S
Mn36 O61 2.209 . S
Mn36 O62 2.094 . S
Mn37 O42 2.121 1_545 S
Mn37 N44 2.257 . S
Mn37 N53 2.282 . S
Mn37 O61 2.215 1_545 S
Mn37 O63 2.117 1_545 S
C38 O60 1.234 . S
C38 O61 1.283 . S
C39 O51 1.281 . S
C39 O52 1.236 . S
C40 O62 1.240 . S
C40 O63 1.264 . S
O41 Mn36 2.095 . S
O41 C50 1.250 . S
O42 Mn37 2.121 1_565 S
O42 C50 1.258 . S
C43 N44 1.326 . S
C43 C47 1.460 . S
C43 H49 0.929 . S
N44 Mn37 2.257 . S
N44 C43 1.326 . S
N44 C48 1.362 . S
C45 C46 1.258 . S
C45 C48 1.431 . S
C45 C65 1.449 . S
C46 C45 1.258 . S
C46 C47 1.477 . S
C46 H66 0.931 . S
C47 C43 1.460 . S
C47 C46 1.477 . S
C47 H67 0.930 . S
C48 N44 1.362 . S
C48 C45 1.431 . S
C48 C58 1.476 . S
H49 C43 0.929 . S
C50 O41 1.250 . S
C50 O42 1.258 . S
O51 Mn36 2.162 . S
O51 C39 1.281 . S
O52 Mn36 2.297 . S
O52 C39 1.236 . S
N53 Mn37 2.282 . S
N53 C54 1.328 . S
N53 C58 1.318 . S
C54 N53 1.328 . S
C54 C55 1.457 . S
C54 H59 0.929 1_545 S
C55 C54 1.457 . S
C55 C56 1.291 . S
C55 H68 0.931 . S
C56 C55 1.291 . S
C56 C57 1.373 . S
C56 H69 0.929 . S
C57 C56 1.373 . S
C57 C58 1.396 . S
C57 C64 1.403 . S
C58 C48 1.476 . S
C58 N53 1.318 . S
C58 C57 1.396 . S
H59 C54 0.929 1_565 S
O60 Mn36 2.385 . S
O60 C38 1.234 . S
O61 Mn36 2.209 . S
O61 Mn37 2.215 1_565 S
O61 C38 1.283 . S
O62 Mn36 2.094 . S
O62 C40 1.240 . S
O63 Mn37 2.117 1_565 S
O63 C40 1.264 . S
C64 C57 1.403 . S
C64 C65 1.399 . S
C64 H70 0.929 . S
C65 C45 1.449 . S
C65 C64 1.399 . S
C65 H71 0.930 . S
H66 C46 0.931 . S
H67 C47 0.930 . S
H68 C55 0.931 . S
H69 C56 0.929 . S
H70 C64 0.929 . S
H71 C65 0.930 . S
Mn72 O77 2.095 . S
Mn72 O87 2.162 . S
Mn72 O88 2.297 . S
Mn72 O96 2.385 . S
Mn72 O97 2.209 . S
Mn72 O98 2.094 . S
Mn73 O78 2.121 1_545 S
Mn73 N80 2.257 . S
Mn73 N89 2.282 . S
Mn73 O97 2.215 1_545 S
Mn73 O99 2.117 1_545 S
C74 O96 1.234 . S
C74 O97 1.283 . S
C75 O87 1.281 . S
C75 O88 1.236 . S
C76 O98 1.240 . S
C76 O99 1.264 . S
O77 Mn72 2.095 . S
O77 C86 1.250 . S
O78 Mn73 2.121 1_565 S
O78 C86 1.258 . S
C79 N80 1.326 . S
C79 C83 1.460 . S
C79 H85 0.929 . S
N80 Mn73 2.257 . S
N80 C79 1.326 . S
N80 C84 1.362 . S
C81 C82 1.258 . S
C81 C84 1.431 . S
C81 C101 1.449 . S
C82 C81 1.258 . S
C82 C83 1.477 . S
C82 H102 0.931 . S
C83 C79 1.460 . S
C83 C82 1.477 . S
C83 H103 0.930 . S
C84 N80 1.362 . S
C84 C81 1.431 . S
C84 C94 1.476 . S
H85 C79 0.929 . S
C86 O77 1.250 . S
C86 O78 1.258 . S
O87 Mn72 2.162 . S
O87 C75 1.281 . S
O88 Mn72 2.297 . S
O88 C75 1.236 . S
N89 Mn73 2.282 . S
N89 C90 1.328 . S
N89 C94 1.318 . S
C90 N89 1.328 . S
C90 C91 1.457 . S
C90 H95 0.929 1_545 S
C91 C90 1.457 . S
C91 C92 1.291 . S
C91 H104 0.931 . S
C92 C91 1.291 . S
C92 C93 1.373 . S
C92 H105 0.929 . S
C93 C92 1.373 . S
C93 C94 1.396 . S
C93 C100 1.403 . S
C94 C84 1.476 . S
C94 N89 1.318 . S
C94 C93 1.396 . S
H95 C90 0.929 1_565 S
O96 Mn72 2.385 . S
O96 C74 1.234 . S
O97 Mn72 2.209 . S
O97 Mn73 2.215 1_565 S
O97 C74 1.283 . S
O98 Mn72 2.094 . S
O98 C76 1.240 . S
O99 Mn73 2.117 1_565 S
O99 C76 1.264 . S
C100 C93 1.403 . S
C100 C101 1.399 . S
C100 H106 0.929 . S
C101 C81 1.449 . S
C101 C100 1.399 . S
C101 H107 0.930 . S
H102 C82 0.931 . S
H103 C83 0.930 . S
H104 C91 0.931 . S
H105 C92 0.929 . S
H106 C100 0.929 . S
H107 C101 0.930 . S
Mn108 O113 2.095 . S
Mn108 O123 2.162 . S
Mn108 O124 2.297 . S
Mn108 O132 2.385 . S
Mn108 O133 2.209 . S
Mn108 O134 2.094 . S
Mn109 O114 2.121 1_565 S
Mn109 N116 2.257 . S
Mn109 N125 2.282 . S
Mn109 O133 2.215 1_565 S
Mn109 O135 2.117 1_565 S
C110 O132 1.234 . S
C110 O133 1.283 . S
C111 O123 1.281 . S
C111 O124 1.236 . S
C112 O134 1.240 . S
C112 O135 1.264 . S
O113 Mn108 2.095 . S
O113 C122 1.250 . S
O114 Mn109 2.121 1_545 S
O114 C122 1.258 . S
C115 N116 1.326 1_455 S
C115 C119 1.460 . S
C115 H121 0.929 . S
N116 Mn109 2.257 . S
N116 C115 1.326 1_655 S
N116 C120 1.362 . S
C117 C118 1.258 . S
C117 C120 1.431 1_455 S
C117 C137 1.449 . S
C118 C117 1.258 . S
C118 C119 1.477 . S
C118 H138 0.931 . S
C119 C115 1.460 . S
C119 C118 1.477 . S
C119 H139 0.930 . S
C120 N116 1.362 . S
C120 C117 1.431 1_655 S
C120 C130 1.476 . S
H121 C115 0.929 . S
C122 O113 1.250 . S
C122 O114 1.258 . S
O123 Mn108 2.162 . S
O123 C111 1.281 . S
O124 Mn108 2.297 . S
O124 C111 1.236 . S
N125 Mn109 2.282 . S
N125 C126 1.328 . S
N125 C130 1.318 . S
C126 N125 1.328 . S
C126 C127 1.457 . S
C126 H131 0.929 1_565 S
C127 C126 1.457 . S
C127 C128 1.291 . S
C127 H140 0.931 . S
C128 C127 1.291 . S
C128 C129 1.373 . S
C128 H141 0.929 . S
C129 C128 1.373 . S
C129 C130 1.396 . S
C129 C136 1.403 . S
C130 C120 1.476 . S
C130 N125 1.318 . S
C130 C129 1.396 . S
H131 C126 0.929 1_545 S
O132 Mn108 2.385 . S
O132 C110 1.234 . S
O133 Mn108 2.209 . S
O133 Mn109 2.215 1_545 S
O133 C110 1.283 . S
O134 Mn108 2.094 . S
O134 C112 1.240 . S
O135 Mn109 2.117 1_545 S
O135 C112 1.264 . S
C136 C129 1.403 . S
C136 C137 1.399 1_655 S
C136 H142 0.929 . S
C137 C117 1.449 . S
C137 C136 1.399 1_455 S
C137 H143 0.930 . S
H138 C118 0.931 . S
H139 C119 0.930 . S
H140 C127 0.931 . S
H141 C128 0.929 . S
H142 C136 0.929 . S
H143 C137 0.930 . S
Mn144 O149 2.095 . S
Mn144 O159 2.162 . S
Mn144 O160 2.297 . S
Mn144 O168 2.385 . S
Mn144 O169 2.209 . S
Mn144 O170 2.094 . S
Mn145 O150 2.121 1_545 S
Mn145 N152 2.257 . S
Mn145 N161 2.282 . S
Mn145 O169 2.215 1_545 S
Mn145 O171 2.117 1_545 S
C146 O168 1.234 . S
C146 O169 1.283 . S
C147 O159 1.281 . S
C147 O160 1.236 . S
C148 O170 1.240 . S
C148 O171 1.264 . S
O149 Mn144 2.095 . S
O149 C158 1.250 . S
O150 Mn145 2.121 1_565 S
O150 C158 1.258 . S
C151 N152 1.326 1_455 S
C151 C155 1.460 . S
C151 H157 0.929 . S
N152 Mn145 2.257 . S
N152 C151 1.326 1_655 S
N152 C156 1.362 . S
C153 C154 1.258 . S
C153 C156 1.431 1_455 S
C153 C173 1.449 . S
C154 C153 1.258 . S
C154 C155 1.477 . S
C154 H174 0.931 . S
C155 C151 1.460 . S
C155 C154 1.477 . S
C155 H175 0.930 . S
C156 N152 1.362 . S
C156 C153 1.431 1_655 S
C156 C166 1.476 . S
H157 C151 0.929 . S
C158 O149 1.250 . S
C158 O150 1.258 . S
O159 Mn144 2.162 . S
O159 C147 1.281 . S
O160 Mn144 2.297 . S
O160 C147 1.236 . S
N161 Mn145 2.282 . S
N161 C162 1.328 . S
N161 C166 1.318 . S
C162 N161 1.328 . S
C162 C163 1.457 . S
C162 H167 0.929 1_545 S
C163 C162 1.457 . S
C163 C164 1.291 . S
C163 H176 0.931 . S
C164 C163 1.291 . S
C164 C165 1.373 . S
C164 H177 0.929 . S
C165 C164 1.373 . S
C165 C166 1.396 . S
C165 C172 1.403 . S
C166 C156 1.476 . S
C166 N161 1.318 . S
C166 C165 1.396 . S
H167 C162 0.929 1_565 S
O168 Mn144 2.385 . S
O168 C146 1.234 . S
O169 Mn144 2.209 . S
O169 Mn145 2.215 1_565 S
O169 C146 1.283 . S
O170 Mn144 2.094 . S
O170 C148 1.240 . S
O171 Mn145 2.117 1_565 S
O171 C148 1.264 . S
C172 C165 1.403 . S
C172 C173 1.399 1_655 S
C172 H178 0.929 . S
C173 C153 1.449 . S
C173 C172 1.399 1_455 S
C173 H179 0.930 . S
H174 C154 0.931 . S
H175 C155 0.930 . S
H176 C163 0.931 . S
H177 C164 0.929 . S
H178 C172 0.929 . S
H179 C173 0.930 . S
Mn180 O185 2.095 . S
Mn180 O195 2.162 . S
Mn180 O196 2.297 . S
Mn180 O204 2.385 . S
Mn180 O205 2.209 . S
Mn180 O206 2.094 . S
Mn181 O186 2.121 1_565 S
Mn181 N188 2.257 . S
Mn181 N197 2.282 . S
Mn181 O205 2.215 1_565 S
Mn181 O207 2.117 1_565 S
C182 O204 1.234 . S
C182 O205 1.283 . S
C183 O195 1.281 . S
C183 O196 1.236 . S
C184 O206 1.240 . S
C184 O207 1.264 . S
O185 Mn180 2.095 . S
O185 C194 1.250 . S
O186 Mn181 2.121 1_545 S
O186 C194 1.258 . S
C187 N188 1.326 . S
C187 C191 1.460 . S
C187 H193 0.929 . S
N188 Mn181 2.257 . S
N188 C187 1.326 . S
N188 C192 1.362 . S
C189 C190 1.258 . S
C189 C192 1.431 . S
C189 C209 1.449 . S
C190 C189 1.258 . S
C190 C191 1.477 . S
C190 H210 0.931 . S
C191 C187 1.460 . S
C191 C190 1.477 . S
C191 H211 0.930 . S
C192 N188 1.362 . S
C192 C189 1.431 . S
C192 C202 1.476 . S
H193 C187 0.929 . S
C194 O185 1.250 . S
C194 O186 1.258 . S
O195 Mn180 2.162 . S
O195 C183 1.281 . S
O196 Mn180 2.297 . S
O196 C183 1.236 . S
N197 Mn181 2.282 . S
N197 C198 1.328 . S
N197 C202 1.318 . S
C198 N197 1.328 . S
C198 C199 1.457 . S
C198 H203 0.929 1_565 S
C199 C198 1.457 . S
C199 C200 1.291 . S
C199 H212 0.931 . S
C200 C199 1.291 . S
C200 C201 1.373 . S
C200 H213 0.929 . S
C201 C200 1.373 . S
C201 C202 1.396 . S
C201 C208 1.403 . S
C202 C192 1.476 . S
C202 N197 1.318 . S
C202 C201 1.396 . S
H203 C198 0.929 1_545 S
O204 Mn180 2.385 . S
O204 C182 1.234 . S
O205 Mn180 2.209 . S
O205 Mn181 2.215 1_545 S
O205 C182 1.283 . S
O206 Mn180 2.094 . S
O206 C184 1.240 . S
O207 Mn181 2.117 1_545 S
O207 C184 1.264 . S
C208 C201 1.403 . S
C208 C209 1.399 . S
C208 H214 0.929 . S
C209 C189 1.449 . S
C209 C208 1.399 . S
C209 H215 0.930 . S
H210 C190 0.931 . S
H211 C191 0.930 . S
H212 C199 0.931 . S
H213 C200 0.929 . S
H214 C208 0.929 . S
H215 C209 0.930 . S
Mn216 O221 2.095 . S
Mn216 O231 2.162 . S
Mn216 O232 2.297 . S
Mn216 O240 2.385 . S
Mn216 O241 2.209 . S
Mn216 O242 2.094 . S
Mn217 O222 2.121 1_565 S
Mn217 N224 2.257 . S
Mn217 N233 2.282 . S
Mn217 O241 2.215 1_565 S
Mn217 O243 2.117 1_565 S
C218 O240 1.234 . S
C218 O241 1.283 . S
C219 O231 1.281 . S
C219 O232 1.236 . S
C220 O242 1.240 . S
C220 O243 1.264 . S
O221 Mn216 2.095 . S
O221 C230 1.250 . S
O222 Mn217 2.121 1_545 S
O222 C230 1.258 . S
C223 N224 1.326 . S
C223 C227 1.460 . S
C223 H229 0.929 . S
N224 Mn217 2.257 . S
N224 C223 1.326 . S
N224 C228 1.362 . S
C225 C226 1.258 . S
C225 C228 1.431 . S
C225 C245 1.449 . S
C226 C225 1.258 . S
C226 C227 1.477 . S
C226 H246 0.931 . S
C227 C223 1.460 . S
C227 C226 1.477 . S
C227 H247 0.930 . S
C228 N224 1.362 . S
C228 C225 1.431 . S
C228 C238 1.476 . S
H229 C223 0.929 . S
C230 O221 1.250 . S
C230 O222 1.258 . S
O231 Mn216 2.162 . S
O231 C219 1.281 . S
O232 Mn216 2.297 . S
O232 C219 1.236 . S
N233 Mn217 2.282 . S
N233 C234 1.328 . S
N233 C238 1.318 . S
C234 N233 1.328 . S
C234 C235 1.457 . S
C234 H239 0.929 1_565 S
C235 C234 1.457 . S
C235 C236 1.291 . S
C235 H248 0.931 . S
C236 C235 1.291 . S
C236 C237 1.373 . S
C236 H249 0.929 . S
C237 C236 1.373 . S
C237 C238 1.396 . S
C237 C244 1.403 . S
C238 C228 1.476 . S
C238 N233 1.318 . S
C238 C237 1.396 . S
H239 C234 0.929 1_545 S
O240 Mn216 2.385 . S
O240 C218 1.234 . S
O241 Mn216 2.209 . S
O241 Mn217 2.215 1_545 S
O241 C218 1.283 . S
O242 Mn216 2.094 . S
O242 C220 1.240 . S
O243 Mn217 2.117 1_545 S
O243 C220 1.264 . S
C244 C237 1.403 . S
C244 C245 1.399 . S
C244 H250 0.929 . S
C245 C225 1.449 . S
C245 C244 1.399 . S
C245 H251 0.930 . S
H246 C226 0.931 . S
H247 C227 0.930 . S
H248 C235 0.931 . S
H249 C236 0.929 . S
H250 C244 0.929 . S
H251 C245 0.930 . S
Mn252 O257 2.095 . S
Mn252 O267 2.162 . S
Mn252 O268 2.297 . S
Mn252 O276 2.385 . S
Mn252 O277 2.209 . S
Mn252 O278 2.094 . S
Mn253 O258 2.121 1_545 S
Mn253 N260 2.257 . S
Mn253 N269 2.282 . S
Mn253 O277 2.215 1_545 S
Mn253 O279 2.117 1_545 S
C254 O276 1.234 . S
C254 O277 1.283 . S
C255 O267 1.281 . S
C255 O268 1.236 . S
C256 O278 1.240 . S
C256 O279 1.264 . S
O257 Mn252 2.095 . S
O257 C266 1.250 . S
O258 Mn253 2.121 1_565 S
O258 C266 1.258 . S
C259 N260 1.326 1_655 S
C259 C263 1.460 . S
C259 H265 0.929 . S
N260 Mn253 2.257 . S
N260 C259 1.326 1_455 S
N260 C264 1.362 . S
C261 C262 1.258 . S
C261 C264 1.431 1_655 S
C261 C281 1.449 . S
C262 C261 1.258 . S
C262 C263 1.477 . S
C262 H282 0.931 . S
C263 C259 1.460 . S
C263 C262 1.477 . S
C263 H283 0.930 . S
C264 N260 1.362 . S
C264 C261 1.431 1_455 S
C264 C274 1.476 . S
H265 C259 0.929 . S
C266 O257 1.250 . S
C266 O258 1.258 . S
O267 Mn252 2.162 . S
O267 C255 1.281 . S
O268 Mn252 2.297 . S
O268 C255 1.236 . S
N269 Mn253 2.282 . S
N269 C270 1.328 . S
N269 C274 1.318 . S
C270 N269 1.328 . S
C270 C271 1.457 . S
C270 H275 0.929 1_545 S
C271 C270 1.457 . S
C271 C272 1.291 . S
C271 H284 0.931 . S
C272 C271 1.291 . S
C272 C273 1.373 . S
C272 H285 0.929 . S
C273 C272 1.373 . S
C273 C274 1.396 . S
C273 C280 1.403 . S
C274 C264 1.476 . S
C274 N269 1.318 . S
C274 C273 1.396 . S
H275 C270 0.929 1_565 S
O276 Mn252 2.385 . S
O276 C254 1.234 . S
O277 Mn252 2.209 . S
O277 Mn253 2.215 1_565 S
O277 C254 1.283 . S
O278 Mn252 2.094 . S
O278 C256 1.240 . S
O279 Mn253 2.117 1_565 S
O279 C256 1.264 . S
C280 C273 1.403 . S
C280 C281 1.399 1_455 S
C280 H286 0.929 . S
C281 C261 1.449 . S
C281 C280 1.399 1_655 S
C281 H287 0.930 . S
H282 C262 0.931 . S
H283 C263 0.930 . S
H284 C271 0.931 . S
H285 C272 0.929 . S
H286 C280 0.929 . S
H287 C281 0.930 . S
Mn288 O293 2.095 . S
Mn288 O303 2.162 . S
Mn288 O304 2.297 . S
Mn288 O312 2.385 . S
Mn288 O313 2.209 . S
Mn288 O314 2.094 . S
Mn289 O294 2.121 . S
Mn289 N296 2.257 . S
Mn289 N305 2.282 . S
Mn289 O313 2.215 . S
Mn289 O315 2.117 . S
C290 O312 1.234 . S
C290 O313 1.283 . S
C291 O303 1.281 . S
C291 O304 1.236 . S
C292 O314 1.240 . S
C292 O315 1.264 . S
O293 Mn288 2.095 . S
O293 C302 1.250 . S
O294 Mn289 2.121 . S
O294 C302 1.258 . S
C295 N296 1.326 . S
C295 C299 1.460 . S
C295 H301 0.929 . S
N296 Mn289 2.257 . S
N296 C295 1.326 . S
N296 C300 1.362 . S
C297 C298 1.258 . S
C297 C300 1.431 . S
C297 C317 1.449 . S
C298 C297 1.258 . S
C298 C299 1.477 . S
C298 H318 0.931 . S
C299 C295 1.460 . S
C299 C298 1.477 . S
C299 H319 0.930 . S
C300 N296 1.362 . S
C300 C297 1.431 . S
C300 C310 1.476 . S
H301 C295 0.929 . S
C302 O293 1.250 . S
C302 O294 1.258 . S
O303 Mn288 2.162 . S
O303 C291 1.281 . S
O304 Mn288 2.297 . S
O304 C291 1.236 . S
N305 Mn289 2.282 . S
N305 C306 1.328 . S
N305 C310 1.318 . S
C306 N305 1.328 . S
C306 C307 1.457 . S
C306 H311 0.929 . S
C307 C306 1.457 . S
C307 C308 1.291 . S
C307 H320 0.931 . S
C308 C307 1.291 . S
C308 C309 1.373 . S
C308 H321 0.929 . S
C309 C308 1.373 . S
C309 C310 1.396 . S
C309 C316 1.403 . S
C310 C300 1.476 . S
C310 N305 1.318 . S
C310 C309 1.396 . S
H311 C306 0.929 . S
O312 Mn288 2.385 . S
O312 C290 1.234 . S
O313 Mn288 2.209 . S
O313 Mn289 2.215 . S
O313 C290 1.283 . S
O314 Mn288 2.094 . S
O314 C292 1.240 . S
O315 Mn289 2.117 . S
O315 C292 1.264 . S
C316 C309 1.403 . S
C316 C317 1.399 . S
C316 H322 0.929 . S
C317 C297 1.449 . S
C317 C316 1.399 . S
C317 H323 0.930 . S
H318 C298 0.931 . S
H319 C299 0.930 . S
H320 C307 0.931 . S
H321 C308 0.929 . S
H322 C316 0.929 . S
H323 C317 0.930 . S
Mn324 O329 2.095 . S
Mn324 O339 2.162 . S
Mn324 O340 2.297 . S
Mn324 O348 2.385 . S
Mn324 O349 2.209 . S
Mn324 O350 2.094 . S
Mn325 O330 2.121 . S
Mn325 N332 2.257 . S
Mn325 N341 2.282 . S
Mn325 O349 2.215 . S
Mn325 O351 2.117 . S
C326 O348 1.234 . S
C326 O349 1.283 . S
C327 O339 1.281 . S
C327 O340 1.236 . S
C328 O350 1.240 . S
C328 O351 1.264 . S
O329 Mn324 2.095 . S
O329 C338 1.250 . S
O330 Mn325 2.121 . S
O330 C338 1.258 . S
C331 N332 1.326 1_455 S
C331 C335 1.460 . S
C331 H337 0.929 . S
N332 Mn325 2.257 . S
N332 C331 1.326 1_655 S
N332 C336 1.362 . S
C333 C334 1.258 . S
C333 C336 1.431 1_455 S
C333 C353 1.449 . S
C334 C333 1.258 . S
C334 C335 1.477 . S
C334 H354 0.931 . S
C335 C331 1.460 . S
C335 C334 1.477 . S
C335 H355 0.930 . S
C336 N332 1.362 . S
C336 C333 1.431 1_655 S
C336 C346 1.476 . S
H337 C331 0.929 . S
C338 O329 1.250 . S
C338 O330 1.258 . S
O339 Mn324 2.162 . S
O339 C327 1.281 . S
O340 Mn324 2.297 . S
O340 C327 1.236 . S
N341 Mn325 2.282 . S
N341 C342 1.328 . S
N341 C346 1.318 . S
C342 N341 1.328 . S
C342 C343 1.457 . S
C342 H347 0.929 . S
C343 C342 1.457 . S
C343 C344 1.291 . S
C343 H356 0.931 . S
C344 C343 1.291 . S
C344 C345 1.373 . S
C344 H357 0.929 . S
C345 C344 1.373 . S
C345 C346 1.396 . S
C345 C352 1.403 . S
C346 C336 1.476 . S
C346 N341 1.318 . S
C346 C345 1.396 . S
H347 C342 0.929 . S
O348 Mn324 2.385 . S
O348 C326 1.234 . S
O349 Mn324 2.209 . S
O349 Mn325 2.215 . S
O349 C326 1.283 . S
O350 Mn324 2.094 . S
O350 C328 1.240 . S
O351 Mn325 2.117 . S
O351 C328 1.264 . S
C352 C345 1.403 . S
C352 C353 1.399 1_655 S
C352 H358 0.929 . S
C353 C333 1.449 . S
C353 C352 1.399 1_455 S
C353 H359 0.930 . S
H354 C334 0.931 . S
H355 C335 0.930 . S
H356 C343 0.931 . S
H357 C344 0.929 . S
H358 C352 0.929 . S
H359 C353 0.930 . S
Mn360 O365 2.095 . S
Mn360 O375 2.162 . S
Mn360 O376 2.297 . S
Mn360 O384 2.385 . S
Mn360 O385 2.209 . S
Mn360 O386 2.094 . S
Mn361 O366 2.121 . S
Mn361 N368 2.257 . S
Mn361 N377 2.282 . S
Mn361 O385 2.215 . S
Mn361 O387 2.117 . S
C362 O384 1.234 . S
C362 O385 1.283 . S
C363 O375 1.281 . S
C363 O376 1.236 . S
C364 O386 1.240 . S
C364 O387 1.264 . S
O365 Mn360 2.095 . S
O365 C374 1.250 . S
O366 Mn361 2.121 . S
O366 C374 1.258 . S
C367 N368 1.326 1_655 S
C367 C371 1.460 . S
C367 H373 0.929 . S
N368 Mn361 2.257 . S
N368 C367 1.326 1_455 S
N368 C372 1.362 . S
C369 C370 1.258 . S
C369 C372 1.431 1_655 S
C369 C389 1.449 . S
C370 C369 1.258 . S
C370 C371 1.477 . S
C370 H390 0.931 . S
C371 C367 1.460 . S
C371 C370 1.477 . S
C371 H391 0.930 . S
C372 N368 1.362 . S
C372 C369 1.431 1_455 S
C372 C382 1.476 . S
H373 C367 0.929 . S
C374 O365 1.250 . S
C374 O366 1.258 . S
O375 Mn360 2.162 . S
O375 C363 1.281 . S
O376 Mn360 2.297 . S
O376 C363 1.236 . S
N377 Mn361 2.282 . S
N377 C378 1.328 . S
N377 C382 1.318 . S
C378 N377 1.328 . S
C378 C379 1.457 . S
C378 H383 0.929 . S
C379 C378 1.457 . S
C379 C380 1.291 . S
C379 H392 0.931 . S
C380 C379 1.291 . S
C380 C381 1.373 . S
C380 H393 0.929 . S
C381 C380 1.373 . S
C381 C382 1.396 . S
C381 C388 1.403 . S
C382 C372 1.476 . S
C382 N377 1.318 . S
C382 C381 1.396 . S
H383 C378 0.929 . S
O384 Mn360 2.385 . S
O384 C362 1.234 . S
O385 Mn360 2.209 . S
O385 Mn361 2.215 . S
O385 C362 1.283 . S
O386 Mn360 2.094 . S
O386 C364 1.240 . S
O387 Mn361 2.117 . S
O387 C364 1.264 . S
C388 C381 1.403 . S
C388 C389 1.399 1_455 S
C388 H394 0.929 . S
C389 C369 1.449 . S
C389 C388 1.399 1_655 S
C389 H395 0.930 . S
H390 C370 0.931 . S
H391 C371 0.930 . S
H392 C379 0.931 . S
H393 C380 0.929 . S
H394 C388 0.929 . S
H395 C389 0.930 . S
Mn396 O401 2.095 . S
Mn396 O411 2.162 . S
Mn396 O412 2.297 . S
Mn396 O420 2.385 . S
Mn396 O421 2.209 . S
Mn396 O422 2.094 . S
Mn397 O402 2.121 . S
Mn397 N404 2.257 . S
Mn397 N413 2.282 . S
Mn397 O421 2.215 . S
Mn397 O423 2.117 . S
C398 O420 1.234 . S
C398 O421 1.283 . S
C399 O411 1.281 . S
C399 O412 1.236 . S
C400 O422 1.240 . S
C400 O423 1.264 . S
O401 Mn396 2.095 . S
O401 C410 1.250 . S
O402 Mn397 2.121 . S
O402 C410 1.258 . S
C403 N404 1.326 . S
C403 C407 1.460 . S
C403 H409 0.929 . S
N404 Mn397 2.257 . S
N404 C403 1.326 . S
N404 C408 1.362 . S
C405 C406 1.258 . S
C405 C408 1.431 . S
C405 C425 1.449 . S
C406 C405 1.258 . S
C406 C407 1.477 . S
C406 H426 0.931 . S
C407 C403 1.460 . S
C407 C406 1.477 . S
C407 H427 0.930 . S
C408 N404 1.362 . S
C408 C405 1.431 . S
C408 C418 1.476 . S
H409 C403 0.929 . S
C410 O401 1.250 . S
C410 O402 1.258 . S
O411 Mn396 2.162 . S
O411 C399 1.281 . S
O412 Mn396 2.297 . S
O412 C399 1.236 . S
N413 Mn397 2.282 . S
N413 C414 1.328 . S
N413 C418 1.318 . S
C414 N413 1.328 . S
C414 C415 1.457 . S
C414 H419 0.929 . S
C415 C414 1.457 . S
C415 C416 1.291 . S
C415 H428 0.931 . S
C416 C415 1.291 . S
C416 C417 1.373 . S
C416 H429 0.929 . S
C417 C416 1.373 . S
C417 C418 1.396 . S
C417 C424 1.403 . S
C418 C408 1.476 . S
C418 N413 1.318 . S
C418 C417 1.396 . S
H419 C414 0.929 . S
O420 Mn396 2.385 . S
O420 C398 1.234 . S
O421 Mn396 2.209 . S
O421 Mn397 2.215 . S
O421 C398 1.283 . S
O422 Mn396 2.094 . S
O422 C400 1.240 . S
O423 Mn397 2.117 . S
O423 C400 1.264 . S
C424 C417 1.403 . S
C424 C425 1.399 . S
C424 H430 0.929 . S
C425 C405 1.449 . S
C425 C424 1.399 . S
C425 H431 0.930 . S
H426 C406 0.931 . S
H427 C407 0.930 . S
H428 C415 0.931 . S
H429 C416 0.929 . S
H430 C424 0.929 . S
H431 C425 0.930 . S
Mn432 O437 2.095 . S
Mn432 O447 2.162 . S
Mn432 O448 2.297 . S
Mn432 O456 2.385 . S
Mn432 O457 2.209 . S
Mn432 O458 2.094 . S
Mn433 O438 2.121 . S
Mn433 N440 2.257 . S
Mn433 N449 2.282 . S
Mn433 O457 2.215 . S
Mn433 O459 2.117 . S
C434 O456 1.234 . S
C434 O457 1.283 . S
C435 O447 1.281 . S
C435 O448 1.236 . S
C436 O458 1.240 . S
C436 O459 1.264 . S
O437 Mn432 2.095 . S
O437 C446 1.250 . S
O438 Mn433 2.121 . S
O438 C446 1.258 . S
C439 N440 1.326 . S
C439 C443 1.460 . S
C439 H445 0.929 . S
N440 Mn433 2.257 . S
N440 C439 1.326 . S
N440 C444 1.362 . S
C441 C442 1.258 . S
C441 C444 1.431 . S
C441 C461 1.449 . S
C442 C441 1.258 . S
C442 C443 1.477 . S
C442 H462 0.931 . S
C443 C439 1.460 . S
C443 C442 1.477 . S
C443 H463 0.930 . S
C444 N440 1.362 . S
C444 C441 1.431 . S
C444 C454 1.476 . S
H445 C439 0.929 . S
C446 O437 1.250 . S
C446 O438 1.258 . S
O447 Mn432 2.162 . S
O447 C435 1.281 . S
O448 Mn432 2.297 . S
O448 C435 1.236 . S
N449 Mn433 2.282 . S
N449 C450 1.328 . S
N449 C454 1.318 . S
C450 N449 1.328 . S
C450 C451 1.457 . S
C450 H455 0.929 . S
C451 C450 1.457 . S
C451 C452 1.291 . S
C451 H464 0.931 . S
C452 C451 1.291 . S
C452 C453 1.373 . S
C452 H465 0.929 . S
C453 C452 1.373 . S
C453 C454 1.396 . S
C453 C460 1.403 . S
C454 C444 1.476 . S
C454 N449 1.318 . S
C454 C453 1.396 . S
H455 C450 0.929 . S
O456 Mn432 2.385 . S
O456 C434 1.234 . S
O457 Mn432 2.209 . S
O457 Mn433 2.215 . S
O457 C434 1.283 . S
O458 Mn432 2.094 . S
O458 C436 1.240 . S
O459 Mn433 2.117 . S
O459 C436 1.264 . S
C460 C453 1.403 . S
C460 C461 1.399 . S
C460 H466 0.929 . S
C461 C441 1.449 . S
C461 C460 1.399 . S
C461 H467 0.930 . S
H462 C442 0.931 . S
H463 C443 0.930 . S
H464 C451 0.931 . S
H465 C452 0.929 . S
H466 C460 0.929 . S
H467 C461 0.930 . S
Mn468 O473 2.095 . S
Mn468 O483 2.162 . S
Mn468 O484 2.297 . S
Mn468 O492 2.385 . S
Mn468 O493 2.209 . S
Mn468 O494 2.094 . S
Mn469 O474 2.121 . S
Mn469 N476 2.257 . S
Mn469 N485 2.282 . S
Mn469 O493 2.215 . S
Mn469 O495 2.117 . S
C470 O492 1.234 . S
C470 O493 1.283 . S
C471 O483 1.281 . S
C471 O484 1.236 . S
C472 O494 1.240 . S
C472 O495 1.264 . S
O473 Mn468 2.095 . S
O473 C482 1.250 . S
O474 Mn469 2.121 . S
O474 C482 1.258 . S
C475 N476 1.326 1_655 S
C475 C479 1.460 . S
C475 H481 0.929 . S
N476 Mn469 2.257 . S
N476 C475 1.326 1_455 S
N476 C480 1.362 . S
C477 C478 1.258 . S
C477 C480 1.431 1_655 S
C477 C497 1.449 . S
C478 C477 1.258 . S
C478 C479 1.477 . S
C478 H498 0.931 . S
C479 C475 1.460 . S
C479 C478 1.477 . S
C479 H499 0.930 . S
C480 N476 1.362 . S
C480 C477 1.431 1_455 S
C480 C490 1.476 . S
H481 C475 0.929 . S
C482 O473 1.250 . S
C482 O474 1.258 . S
O483 Mn468 2.162 . S
O483 C471 1.281 . S
O484 Mn468 2.297 . S
O484 C471 1.236 . S
N485 Mn469 2.282 . S
N485 C486 1.328 . S
N485 C490 1.318 . S
C486 N485 1.328 . S
C486 C487 1.457 . S
C486 H491 0.929 . S
C487 C486 1.457 . S
C487 C488 1.291 . S
C487 H500 0.931 . S
C488 C487 1.291 . S
C488 C489 1.373 . S
C488 H501 0.929 . S
C489 C488 1.373 . S
C489 C490 1.396 . S
C489 C496 1.403 . S
C490 C480 1.476 . S
C490 N485 1.318 . S
C490 C489 1.396 . S
H491 C486 0.929 . S
O492 Mn468 2.385 . S
O492 C470 1.234 . S
O493 Mn468 2.209 . S
O493 Mn469 2.215 . S
O493 C470 1.283 . S
O494 Mn468 2.094 . S
O494 C472 1.240 . S
O495 Mn469 2.117 . S
O495 C472 1.264 . S
C496 C489 1.403 . S
C496 C497 1.399 1_455 S
C496 H502 0.929 . S
C497 C477 1.449 . S
C497 C496 1.399 1_655 S
C497 H503 0.930 . S
H498 C478 0.931 . S
H499 C479 0.930 . S
H500 C487 0.931 . S
H501 C488 0.929 . S
H502 C496 0.929 . S
H503 C497 0.930 . S
Mn504 O509 2.095 . S
Mn504 O519 2.162 . S
Mn504 O520 2.297 . S
Mn504 O528 2.385 . S
Mn504 O529 2.209 . S
Mn504 O530 2.094 . S
Mn505 O510 2.121 . S
Mn505 N512 2.257 . S
Mn505 N521 2.282 . S
Mn505 O529 2.215 . S
Mn505 O531 2.117 . S
C506 O528 1.234 . S
C506 O529 1.283 . S
C507 O519 1.281 . S
C507 O520 1.236 . S
C508 O530 1.240 . S
C508 O531 1.264 . S
O509 Mn504 2.095 . S
O509 C518 1.250 . S
O510 Mn505 2.121 . S
O510 C518 1.258 . S
C511 N512 1.326 1_455 S
C511 C515 1.460 . S
C511 H517 0.929 . S
N512 Mn505 2.257 . S
N512 C511 1.326 1_655 S
N512 C516 1.362 . S
C513 C514 1.258 . S
C513 C516 1.431 1_455 S
C513 C533 1.449 . S
C514 C513 1.258 . S
C514 C515 1.477 . S
C514 H534 0.931 . S
C515 C511 1.460 . S
C515 C514 1.477 . S
C515 H535 0.930 . S
C516 N512 1.362 . S
C516 C513 1.431 1_655 S
C516 C526 1.476 . S
H517 C511 0.929 . S
C518 O509 1.250 . S
C518 O510 1.258 . S
O519 Mn504 2.162 . S
O519 C507 1.281 . S
O520 Mn504 2.297 . S
O520 C507 1.236 . S
N521 Mn505 2.282 . S
N521 C522 1.328 . S
N521 C526 1.318 . S
C522 N521 1.328 . S
C522 C523 1.457 . S
C522 H527 0.929 . S
C523 C522 1.457 . S
C523 C524 1.291 . S
C523 H536 0.931 . S
C524 C523 1.291 . S
C524 C525 1.373 . S
C524 H537 0.929 . S
C525 C524 1.373 . S
C525 C526 1.396 . S
C525 C532 1.403 . S
C526 C516 1.476 . S
C526 N521 1.318 . S
C526 C525 1.396 . S
H527 C522 0.929 . S
O528 Mn504 2.385 . S
O528 C506 1.234 . S
O529 Mn504 2.209 . S
O529 Mn505 2.215 . S
O529 C506 1.283 . S
O530 Mn504 2.094 . S
O530 C508 1.240 . S
O531 Mn505 2.117 . S
O531 C508 1.264 . S
C532 C525 1.403 . S
C532 C533 1.399 1_655 S
C532 H538 0.929 . S
C533 C513 1.449 . S
C533 C532 1.399 1_455 S
C533 H539 0.930 . S
H534 C514 0.931 . S
H535 C515 0.930 . S
H536 C523 0.931 . S
H537 C524 0.929 . S
H538 C532 0.929 . S
H539 C533 0.930 . S
Mn540 O545 2.095 . S
Mn540 O555 2.162 . S
Mn540 O556 2.297 . S
Mn540 O564 2.385 . S
Mn540 O565 2.209 . S
Mn540 O566 2.094 . S
Mn541 O546 2.121 . S
Mn541 N548 2.257 . S
Mn541 N557 2.282 . S
Mn541 O565 2.215 . S
Mn541 O567 2.117 . S
C542 O564 1.234 . S
C542 O565 1.283 . S
C543 O555 1.281 . S
C543 O556 1.236 . S
C544 O566 1.240 . S
C544 O567 1.264 . S
O545 Mn540 2.095 . S
O545 C554 1.250 . S
O546 Mn541 2.121 . S
O546 C554 1.258 . S
C547 N548 1.326 . S
C547 C551 1.460 . S
C547 H553 0.929 . S
N548 Mn541 2.257 . S
N548 C547 1.326 . S
N548 C552 1.362 . S
C549 C550 1.258 . S
C549 C552 1.431 . S
C549 C569 1.449 . S
C550 C549 1.258 . S
C550 C551 1.477 . S
C550 H570 0.931 . S
C551 C547 1.460 . S
C551 C550 1.477 . S
C551 H571 0.930 . S
C552 N548 1.362 . S
C552 C549 1.431 . S
C552 C562 1.476 . S
H553 C547 0.929 . S
C554 O545 1.250 . S
C554 O546 1.258 . S
O555 Mn540 2.162 . S
O555 C543 1.281 . S
O556 Mn540 2.297 . S
O556 C543 1.236 . S
N557 Mn541 2.282 . S
N557 C558 1.328 . S
N557 C562 1.318 . S
C558 N557 1.328 . S
C558 C559 1.457 . S
C558 H563 0.929 . S
C559 C558 1.457 . S
C559 C560 1.291 . S
C559 H572 0.931 . S
C560 C559 1.291 . S
C560 C561 1.373 . S
C560 H573 0.929 . S
C561 C560 1.373 . S
C561 C562 1.396 . S
C561 C568 1.403 . S
C562 C552 1.476 . S
C562 N557 1.318 . S
C562 C561 1.396 . S
H563 C558 0.929 . S
O564 Mn540 2.385 . S
O564 C542 1.234 . S
O565 Mn540 2.209 . S
O565 Mn541 2.215 . S
O565 C542 1.283 . S
O566 Mn540 2.094 . S
O566 C544 1.240 . S
O567 Mn541 2.117 . S
O567 C544 1.264 . S
C568 C561 1.403 . S
C568 C569 1.399 . S
C568 H574 0.929 . S
C569 C549 1.449 . S
C569 C568 1.399 . S
C569 H575 0.930 . S
H570 C550 0.931 . S
H571 C551 0.930 . S
H572 C559 0.931 . S
H573 C560 0.929 . S
H574 C568 0.929 . S
H575 C569 0.930 . S
H576 C588 0.930 . S
H577 C590 0.930 . S
H578 C591 0.930 . S
H579 C595 0.959 . S
H580 C595 0.959 . S
H581 C595 0.961 . S
H582 C596 0.960 . S
H583 C596 0.961 1_545 S
H584 C596 0.959 . S
H585 C599 0.929 . S
H586 C600 0.931 . S
H587 C602 0.930 . S
C588 H576 0.930 . S
C588 C589 1.399 . S
C588 C593 1.399 . S
C589 C588 1.399 . S
C589 C590 1.376 . S
C590 H577 0.930 . S
C590 C589 1.376 . S
C590 C591 1.388 . S
C591 H578 0.930 . S
C591 C590 1.388 . S
C591 C592 1.390 . S
C592 C591 1.390 . S
C592 C593 1.394 . S
C592 C598 1.465 . S
C593 C588 1.399 . S
C593 C592 1.394 . S
C593 C594 1.516 1_565 S
C594 C593 1.516 1_545 S
C594 C595 1.502 . S
C594 C596 1.561 1_545 S
C594 C597 1.526 . S
C595 H579 0.959 . S
C595 H580 0.959 . S
C595 H581 0.961 . S
C595 C594 1.502 . S
C596 H582 0.960 . S
C596 H583 0.961 1_565 S
C596 H584 0.959 . S
C596 C594 1.561 1_565 S
C597 C594 1.526 . S
C597 C598 1.396 1_545 S
C597 C602 1.390 . S
C598 C592 1.465 . S
C598 C597 1.396 1_565 S
C598 C599 1.399 . S
C599 H585 0.929 . S
C599 C598 1.399 . S
C599 C600 1.385 1_565 S
C600 H586 0.931 . S
C600 C599 1.385 1_545 S
C600 C601 1.389 . S
C601 C600 1.389 . S
C601 C602 1.387 . S
C602 H587 0.930 . S
C602 C597 1.390 . S
C602 C601 1.387 . S
H603 C615 0.930 . S
H604 C617 0.930 . S
H605 C618 0.930 . S
H606 C622 0.959 . S
H607 C622 0.959 . S
H608 C622 0.961 . S
H609 C623 0.960 . S
H610 C623 0.961 . S
H611 C623 0.959 . S
H612 C626 0.929 . S
H613 C627 0.931 . S
H614 C629 0.930 . S
C615 H603 0.930 . S
C615 C616 1.399 . S
C615 C620 1.399 . S
C616 C615 1.399 . S
C616 C617 1.376 . S
C617 H604 0.930 . S
C617 C616 1.376 . S
C617 C618 1.388 . S
C618 H605 0.930 . S
C618 C617 1.388 . S
C618 C619 1.390 . S
C619 C618 1.390 . S
C619 C620 1.394 . S
C619 C625 1.465 1_565 S
C620 C615 1.399 . S
C620 C619 1.394 . S
C620 C621 1.516 1_565 S
C621 C620 1.516 1_545 S
C621 C622 1.502 1_545 S
C621 C623 1.561 . S
C621 C624 1.526 . S
C622 H606 0.959 . S
C622 H607 0.959 . S
C622 H608 0.961 . S
C622 C621 1.502 1_565 S
C623 H609 0.960 . S
C623 H610 0.961 . S
C623 H611 0.959 . S
C623 C621 1.561 . S
C624 C621 1.526 . S
C624 C625 1.396 . S
C624 C629 1.390 . S
C625 C619 1.465 1_545 S
C625 C624 1.396 . S
C625 C626 1.399 . S
C626 H612 0.929 . S
C626 C625 1.399 . S
C626 C627 1.385 . S
C627 H613 0.931 . S
C627 C626 1.385 . S
C627 C628 1.389 . S
C628 C627 1.389 . S
C628 C629 1.387 . S
C629 H614 0.930 . S
C629 C624 1.390 . S
C629 C628 1.387 . S
H630 C642 0.930 . S
H631 C644 0.930 . S
H632 C645 0.930 . S
H633 C649 0.959 . S
H634 C649 0.959 . S
H635 C649 0.961 . S
H636 C650 0.960 . S
H637 C650 0.961 . S
H638 C650 0.942 1_545 S
H639 C653 0.929 . S
H640 C654 0.931 . S
H641 C656 0.930 1_565 S
C642 H630 0.930 . S
C642 C643 1.399 . S
C642 C647 1.399 . S
C643 C642 1.399 . S
C643 C644 1.376 1_565 S
C644 H631 0.930 . S
C644 C643 1.376 1_545 S
C644 C645 1.388 . S
C645 H632 0.930 . S
C645 C644 1.388 . S
C645 C646 1.390 . S
C646 C645 1.390 . S
C646 C647 1.394 1_545 S
C646 C652 1.465 . S
C647 C642 1.399 . S
C647 C646 1.394 1_565 S
C647 C648 1.516 . S
C648 C647 1.516 . S
C648 C649 1.502 . S
C648 C650 1.561 . S
C648 C651 1.538 . S
C649 H633 0.959 . S
C649 H634 0.959 . S
C649 H635 0.961 . S
C649 C648 1.502 . S
C650 H636 0.960 . S
C650 H637 0.961 . S
C650 H638 0.942 1_565 S
C650 C648 1.561 . S
C651 C648 1.538 . S
C651 C652 1.386 1_565 S
C651 C656 1.387 1_565 S
C652 C646 1.465 . S
C652 C651 1.386 1_545 S
C652 C653 1.399 . S
C653 H639 0.929 . S
C653 C652 1.399 . S
C653 C654 1.385 . S
C654 H640 0.931 . S
C654 C653 1.385 . S
C654 C655 1.389 . S
C655 C654 1.389 . S
C655 C656 1.387 . S
C656 H641 0.930 1_545 S
C656 C651 1.387 1_545 S
C656 C655 1.387 . S
H657 C669 0.930 . S
H658 C671 0.930 . S
H659 C672 0.930 . S
H660 C676 0.959 . S
H661 C676 0.959 . S
H662 C676 0.961 . S
H663 C677 0.960 . S
H664 C677 0.961 . S
H665 C677 0.959 . S
H666 C680 0.929 1_565 S
H667 C681 0.931 . S
H668 C683 0.930 . S
C669 H657 0.930 . S
C669 C670 1.399 . S
C669 C674 1.399 . S
C670 C669 1.399 . S
C670 C671 1.376 . S
C671 H658 0.930 . S
C671 C670 1.376 . S
C671 C672 1.388 . S
C672 H659 0.930 . S
C672 C671 1.388 . S
C672 C673 1.390 . S
C673 C672 1.390 . S
C673 C674 1.394 . S
C673 C679 1.471 . S
C674 C669 1.399 . S
C674 C673 1.394 . S
C674 C675 1.516 1_565 S
C675 C674 1.516 1_545 S
C675 C676 1.502 . S
C675 C677 1.561 1_545 S
C675 C678 1.526 . S
C676 H660 0.959 . S
C676 H661 0.959 . S
C676 H662 0.961 . S
C676 C675 1.502 . S
C677 H663 0.960 . S
C677 H664 0.961 . S
C677 H665 0.959 . S
C677 C675 1.561 1_565 S
C678 C675 1.526 . S
C678 C679 1.391 1_545 S
C678 C683 1.390 . S
C679 C673 1.471 . S
C679 C678 1.391 1_565 S
C679 C680 1.398 1_565 S
C680 H666 0.929 1_545 S
C680 C679 1.398 1_545 S
C680 C681 1.385 . S
C681 H667 0.931 . S
C681 C680 1.385 . S
C681 C682 1.389 . S
C682 C681 1.389 . S
C682 C683 1.387 . S
C683 H668 0.930 . S
C683 C678 1.390 . S
C683 C682 1.387 . S
H684 C696 0.930 . S
H685 C698 0.930 . S
H686 C699 0.930 . S
H687 C703 0.959 . S
H688 C703 0.959 . S
H689 C703 0.961 . S
H690 C704 0.960 . S
H691 C704 0.961 . S
H692 C704 0.959 . S
H693 C707 0.929 . S
H694 C708 0.931 . S
H695 C710 0.930 . S
C696 H684 0.930 . S
C696 C697 1.399 . S
C696 C701 1.399 . S
C697 C696 1.399 . S
C697 C698 1.376 . S
C698 H685 0.930 . S
C698 C697 1.376 . S
C698 C699 1.388 . S
C699 H686 0.930 . S
C699 C698 1.388 . S
C699 C700 1.390 . S
C700 C699 1.390 . S
C700 C701 1.394 . S
C700 C706 1.465 . S
C701 C696 1.399 . S
C701 C700 1.394 . S
C701 C702 1.516 . S
C702 C701 1.516 . S
C702 C703 1.502 . S
C702 C704 1.561 . S
C702 C705 1.526 . S
C703 H687 0.959 . S
C703 H688 0.959 . S
C703 H689 0.961 . S
C703 C702 1.502 . S
C704 H690 0.960 . S
C704 H691 0.961 . S
C704 H692 0.959 . S
C704 C702 1.561 . S
C705 C702 1.526 . S
C705 C706 1.396 . S
C705 C710 1.390 . S
C706 C700 1.465 . S
C706 C705 1.396 . S
C706 C707 1.399 . S
C707 H693 0.929 . S
C707 C706 1.399 . S
C707 C708 1.385 . S
C708 H694 0.931 . S
C708 C707 1.385 . S
C708 C709 1.389 . S
C709 C708 1.389 . S
C709 C710 1.387 . S
C710 H695 0.930 . S
C710 C705 1.390 . S
C710 C709 1.387 . S
H711 C723 0.930 . S
H712 C725 0.930 . S
H713 C726 0.930 . S
H714 C730 0.959 . S
H715 C730 0.959 . S
H716 C730 0.961 . S
H717 C731 0.960 . S
H718 C731 0.961 . S
H719 C731 0.959 . S
H720 C734 0.929 . S
H721 C735 0.931 . S
H722 C737 0.930 . S
C723 H711 0.930 . S
C723 C724 1.399 . S
C723 C728 1.399 . S
C724 C723 1.399 . S
C724 C725 1.376 . S
C725 H712 0.930 . S
C725 C724 1.376 . S
C725 C726 1.388 . S
C726 H713 0.930 . S
C726 C725 1.388 . S
C726 C727 1.390 . S
C727 C726 1.390 . S
C727 C728 1.394 . S
C727 C733 1.465 . S
C728 C723 1.399 . S
C728 C727 1.394 . S
C728 C729 1.516 . S
C729 C728 1.516 . S
C729 C730 1.502 . S
C729 C731 1.561 . S
C729 C732 1.526 . S
C730 H714 0.959 . S
C730 H715 0.959 . S
C730 H716 0.961 . S
C730 C729 1.502 . S
C731 H717 0.960 . S
C731 H718 0.961 . S
C731 H719 0.959 . S
C731 C729 1.561 . S
C732 C729 1.526 . S
C732 C733 1.396 . S
C732 C737 1.390 . S
C733 C727 1.465 . S
C733 C732 1.396 . S
C733 C734 1.399 . S
C734 H720 0.929 . S
C734 C733 1.399 . S
C734 C735 1.385 . S
C735 H721 0.931 . S
C735 C734 1.385 . S
C735 C736 1.389 . S
C736 C735 1.389 . S
C736 C737 1.387 . S
C737 H722 0.930 . S
C737 C732 1.390 . S
C737 C736 1.387 . S
H738 C750 0.930 . S
H739 C752 0.930 . S
H740 C753 0.930 . S
H741 C757 0.959 . S
H742 C757 0.959 . S
H743 C757 0.961 . S
H744 C758 0.960 . S
H745 C758 0.961 . S
H746 C758 0.959 . S
H747 C761 0.929 . S
H748 C762 0.931 . S
H749 C764 0.930 . S
C750 H738 0.930 . S
C750 C751 1.399 . S
C750 C755 1.399 . S
C751 C750 1.399 . S
C751 C752 1.376 . S
C752 H739 0.930 . S
C752 C751 1.376 . S
C752 C753 1.388 . S
C753 H740 0.930 . S
C753 C752 1.388 . S
C753 C754 1.390 . S
C754 C753 1.390 . S
C754 C755 1.394 . S
C754 C760 1.465 . S
C755 C750 1.399 . S
C755 C754 1.394 . S
C755 C756 1.516 . S
C756 C755 1.516 . S
C756 C757 1.502 . S
C756 C758 1.561 . S
C756 C759 1.526 . S
C757 H741 0.959 . S
C757 H742 0.959 . S
C757 H743 0.961 . S
C757 C756 1.502 . S
C758 H744 0.960 . S
C758 H745 0.961 . S
C758 H746 0.959 . S
C758 C756 1.561 . S
C759 C756 1.526 . S
C759 C760 1.396 . S
C759 C764 1.390 . S
C760 C754 1.465 . S
C760 C759 1.396 . S
C760 C761 1.399 . S
C761 H747 0.929 . S
C761 C760 1.399 . S
C761 C762 1.385 . S
C762 H748 0.931 . S
C762 C761 1.385 . S
C762 C763 1.389 . S
C763 C762 1.389 . S
C763 C764 1.387 . S
C764 H749 0.930 . S
C764 C759 1.390 . S
C764 C763 1.387 . S
H765 C777 0.930 . S
H766 C779 0.930 . S
H767 C780 0.930 . S
H768 C784 0.959 . S
H769 C784 0.959 . S
H770 C784 0.961 . S
H771 C785 0.960 . S
H772 C785 0.961 . S
H773 C785 0.959 . S
H774 C788 0.929 . S
H775 C789 0.931 . S
H776 C791 0.930 . S
C777 H765 0.930 . S
C777 C778 1.399 . S
C777 C782 1.399 . S
C778 C777 1.399 . S
C778 C779 1.376 . S
C779 H766 0.930 . S
C779 C778 1.376 . S
C779 C780 1.388 . S
C780 H767 0.930 . S
C780 C779 1.388 . S
C780 C781 1.390 . S
C781 C780 1.390 . S
C781 C782 1.394 . S
C781 C787 1.465 . S
C782 C777 1.399 . S
C782 C781 1.394 . S
C782 C783 1.516 . S
C783 C782 1.516 . S
C783 C784 1.502 . S
C783 C785 1.561 . S
C783 C786 1.526 . S
C784 H768 0.959 . S
C784 H769 0.959 . S
C784 H770 0.961 . S
C784 C783 1.502 . S
C785 H771 0.960 . S
C785 H772 0.961 . S
C785 H773 0.959 . S
C785 C783 1.561 . S
C786 C783 1.526 . S
C786 C787 1.396 . S
C786 C791 1.390 . S
C787 C781 1.465 . S
C787 C786 1.396 . S
C787 C788 1.399 . S
C788 H774 0.929 . S
C788 C787 1.399 . S
C788 C789 1.385 . S
C789 H775 0.931 . S
C789 C788 1.385 . S
C789 C790 1.389 . S
C790 C789 1.389 . S
C790 C791 1.387 . S
C791 H776 0.930 . S
C791 C786 1.390 . S
C791 C790 1.387 . S
H792 C804 0.930 . S
H793 C806 0.930 . S
H794 C807 0.939 1_565 S
H795 C811 0.959 . S
H796 C811 0.959 . S
H797 C811 0.961 . S
H798 C812 0.960 . S
H799 C812 0.961 . S
H800 C812 0.959 . S
H801 C815 0.929 1_565 S
H802 C816 0.931 . S
H803 C818 0.930 . S
C804 H792 0.930 . S
C804 C805 1.399 . S
C804 C809 1.399 . S
C805 C804 1.399 . S
C805 C806 1.376 . S
C806 H793 0.930 . S
C806 C805 1.376 . S
C806 C807 1.379 1_655 S
C807 H794 0.939 1_545 S
C807 C806 1.379 1_455 S
C807 C808 1.391 . S
C808 C807 1.391 . S
C808 C809 1.394 1_455 S
C808 C814 1.465 . S
C809 C804 1.399 . S
C809 C808 1.394 1_655 S
C809 C810 1.516 . S
C810 C809 1.516 . S
C810 C811 1.502 . S
C810 C812 1.561 1_655 S
C810 C813 1.526 1_655 S
C811 H795 0.959 . S
C811 H796 0.959 . S
C811 H797 0.961 . S
C811 C810 1.502 . S
C812 H798 0.960 . S
C812 H799 0.961 . S
C812 H800 0.959 . S
C812 C810 1.561 1_455 S
C813 C810 1.526 1_455 S
C813 C814 1.396 . S
C813 C818 1.390 . S
C814 C808 1.465 . S
C814 C813 1.396 . S
C814 C815 1.399 . S
C815 H801 0.929 1_545 S
C815 C814 1.399 . S
C815 C816 1.385 . S
C816 H802 0.931 . S
C816 C815 1.385 . S
C816 C817 1.389 . S
C817 C816 1.389 . S
C817 C818 1.387 . S
C818 H803 0.930 . S
C818 C813 1.390 . S
C818 C817 1.387 . S
H819 C831 0.930 . S
H820 C833 0.930 . S
H821 C834 0.930 1_545 S
H822 C838 0.959 . S
H823 C838 0.959 . S
H824 C838 0.961 . S
H825 C839 0.960 . S
H826 C839 0.961 . S
H827 C839 0.959 . S
H828 C842 0.929 1_545 S
H829 C843 0.931 . S
H830 C845 0.930 . S
C831 H819 0.930 . S
C831 C832 1.399 . S
C831 C836 1.399 . S
C832 C831 1.399 . S
C832 C833 1.376 . S
C833 H820 0.930 . S
C833 C832 1.376 . S
C833 C834 1.388 . S
C834 H821 0.930 1_565 S
C834 C833 1.388 . S
C834 C835 1.390 . S
C835 C834 1.390 . S
C835 C836 1.394 . S
C835 C841 1.465 . S
C836 C831 1.399 . S
C836 C835 1.394 . S
C836 C837 1.516 . S
C837 C836 1.516 . S
C837 C838 1.502 . S
C837 C839 1.561 . S
C837 C840 1.526 . S
C838 H822 0.959 . S
C838 H823 0.959 . S
C838 H824 0.961 . S
C838 C837 1.502 . S
C839 H825 0.960 . S
C839 H826 0.961 . S
C839 H827 0.959 . S
C839 C837 1.561 . S
C840 C837 1.526 . S
C840 C841 1.396 . S
C840 C845 1.390 . S
C841 C835 1.465 . S
C841 C840 1.396 . S
C841 C842 1.399 . S
C842 H828 0.929 1_565 S
C842 C841 1.399 . S
C842 C843 1.385 . S
C843 H829 0.931 . S
C843 C842 1.385 . S
C843 C844 1.389 . S
C844 C843 1.389 . S
C844 C845 1.387 . S
C845 H830 0.930 . S
C845 C840 1.390 . S
C845 C844 1.387 . S
H846 C858 0.930 . S
H847 C860 0.930 . S
H848 C861 0.927 1_655 S
H849 C865 0.959 1_565 S
H850 C865 0.959 . S
H851 C865 0.961 . S
H852 C866 0.960 . S
H853 C866 0.961 . S
H854 C866 0.959 1_565 S
H855 C869 0.929 . S
H856 C870 0.931 . S
H857 C872 0.930 . S
C858 H846 0.930 . S
C858 C859 1.399 . S
C858 C863 1.399 . S
C859 C858 1.399 . S
C859 C860 1.376 . S
C860 H847 0.930 . S
C860 C859 1.376 . S
C860 C861 1.392 . S
C861 H848 0.927 1_455 S
C861 C860 1.392 . S
C861 C862 1.390 1_455 S
C862 C861 1.390 1_655 S
C862 C863 1.394 1_655 S
C862 C868 1.465 . S
C863 C858 1.399 . S
C863 C862 1.394 1_455 S
C863 C864 1.516 . S
C864 C863 1.516 . S
C864 C865 1.502 1_565 S
C864 C866 1.561 1_465 S
C864 C867 1.526 1_455 S
C865 H849 0.959 1_545 S
C865 H850 0.959 . S
C865 H851 0.961 . S
C865 C864 1.502 1_545 S
C866 H852 0.960 . S
C866 H853 0.961 . S
C866 H854 0.959 1_545 S
C866 C864 1.561 1_645 S
C867 C864 1.526 1_655 S
C867 C868 1.396 . S
C867 C872 1.390 . S
C868 C862 1.465 . S
C868 C867 1.396 . S
C868 C869 1.399 . S
C869 H855 0.929 . S
C869 C868 1.399 . S
C869 C870 1.385 . S
C870 H856 0.931 . S
C870 C869 1.385 . S
C870 C871 1.389 . S
C871 C870 1.389 . S
C871 C872 1.387 . S
C872 H857 0.930 . S
C872 C867 1.390 . S
C872 C871 1.387 . S
H873 C885 0.930 . S
H874 C887 0.930 . S
H875 C888 0.930 1_565 S
H876 C892 0.959 . S
H877 C892 0.959 . S
H878 C892 0.961 . S
H879 C893 0.960 . S
H880 C893 0.961 . S
H881 C893 0.959 . S
H882 C896 0.929 1_565 S
H883 C897 0.931 . S
H884 C899 0.930 . S
C885 H873 0.930 . S
C885 C886 1.399 . S
C885 C890 1.399 . S
C886 C885 1.399 . S
C886 C887 1.376 . S
C887 H874 0.930 . S
C887 C886 1.376 . S
C887 C888 1.388 . S
C888 H875 0.930 1_545 S
C888 C887 1.388 . S
C888 C889 1.390 . S
C889 C888 1.390 . S
C889 C890 1.394 . S
C889 C895 1.465 . S
C890 C885 1.399 . S
C890 C889 1.394 . S
C890 C891 1.516 . S
C891 C890 1.516 . S
C891 C892 1.502 . S
C891 C893 1.561 . S
C891 C894 1.526 . S
C892 H876 0.959 . S
C892 H877 0.959 . S
C892 H878 0.961 . S
C892 C891 1.502 . S
C893 H879 0.960 . S
C893 H880 0.961 . S
C893 H881 0.959 . S
C893 C891 1.561 . S
C894 C891 1.526 . S
C894 C895 1.396 . S
C894 C899 1.390 . S
C895 C889 1.465 . S
C895 C894 1.396 . S
C895 C896 1.399 . S
C896 H882 0.929 1_545 S
C896 C895 1.399 . S
C896 C897 1.385 . S
C897 H883 0.931 . S
C897 C896 1.385 . S
C897 C898 1.389 . S
C898 C897 1.389 . S
C898 C899 1.387 . S
C899 H884 0.930 . S
C899 C894 1.390 . S
C899 C898 1.387 . S
H900 C912 0.930 . S
H901 C914 0.930 . S
H902 C915 0.930 . S
H903 C919 0.959 . S
H904 C919 0.959 . S
H905 C919 0.961 . S
H906 C920 0.960 . S
H907 C920 0.961 . S
H908 C920 0.959 . S
H909 C923 0.929 . S
H910 C924 0.931 . S
H911 C926 0.930 . S
C912 H900 0.930 . S
C912 C913 1.399 . S
C912 C917 1.399 . S
C913 C912 1.399 . S
C913 C914 1.376 . S
C914 H901 0.930 . S
C914 C913 1.376 . S
C914 C915 1.388 . S
C915 H902 0.930 . S
C915 C914 1.388 . S
C915 C916 1.390 . S
C916 C915 1.390 . S
C916 C917 1.394 . S
C916 C922 1.465 . S
C917 C912 1.399 . S
C917 C916 1.394 . S
C917 C918 1.516 . S
C918 C917 1.516 . S
C918 C919 1.502 . S
C918 C920 1.561 . S
C918 C921 1.526 . S
C919 H903 0.959 . S
C919 H904 0.959 . S
C919 H905 0.961 . S
C919 C918 1.502 . S
C920 H906 0.960 . S
C920 H907 0.961 . S
C920 H908 0.959 . S
C920 C918 1.561 . S
C921 C918 1.526 . S
C921 C922 1.396 . S
C921 C926 1.390 . S
C922 C916 1.465 . S
C922 C921 1.396 . S
C922 C923 1.399 . S
C923 H909 0.929 . S
C923 C922 1.399 . S
C923 C924 1.385 . S
C924 H910 0.931 . S
C924 C923 1.385 . S
C924 C925 1.389 . S
C925 C924 1.389 . S
C925 C926 1.387 . S
C926 H911 0.930 . S
C926 C921 1.390 . S
C926 C925 1.387 . S
H927 C939 0.930 . S
H928 C941 0.930 . S
H929 C942 0.930 . S
H930 C946 0.959 . S
H931 C946 0.959 . S
H932 C946 0.961 . S
H933 C947 0.960 . S
H934 C947 0.961 . S
H935 C947 0.959 . S
H936 C950 0.929 . S
H937 C951 0.931 . S
H938 C953 0.930 . S
C939 H927 0.930 . S
C939 C940 1.399 . S
C939 C944 1.399 . S
C940 C939 1.399 . S
C940 C941 1.376 . S
C941 H928 0.930 . S
C941 C940 1.376 . S
C941 C942 1.388 . S
C942 H929 0.930 . S
C942 C941 1.388 . S
C942 C943 1.390 . S
C943 C942 1.390 . S
C943 C944 1.394 . S
C943 C949 1.465 . S
C944 C939 1.399 . S
C944 C943 1.394 . S
C944 C945 1.516 1_455 S
C945 C944 1.516 1_655 S
C945 C946 1.502 . S
C945 C947 1.561 1_655 S
C945 C948 1.526 . S
C946 H930 0.959 . S
C946 H931 0.959 . S
C946 H932 0.961 . S
C946 C945 1.502 . S
C947 H933 0.960 . S
C947 H934 0.961 . S
C947 H935 0.959 . S
C947 C945 1.561 1_455 S
C948 C945 1.526 . S
C948 C949 1.396 1_655 S
C948 C953 1.390 . S
C949 C943 1.465 . S
C949 C948 1.396 1_455 S
C949 C950 1.399 . S
C950 H936 0.929 . S
C950 C949 1.399 . S
C950 C951 1.385 1_455 S
C951 H937 0.931 . S
C951 C950 1.385 1_655 S
C951 C952 1.389 . S
C952 C951 1.389 . S
C952 C953 1.387 . S
C953 H938 0.930 . S
C953 C948 1.390 . S
C953 C952 1.387 . S
H954 C966 0.930 . S
H955 C968 0.930 . S
H956 C969 0.930 . S
H957 C973 0.959 . S
H958 C973 0.959 . S
H959 C973 0.961 . S
H960 C974 0.960 . S
H961 C974 0.961 . S
H962 C974 0.959 . S
H963 C977 0.929 . S
H964 C978 0.931 . S
H965 C980 0.930 . S
C966 H954 0.930 . S
C966 C967 1.399 . S
C966 C971 1.399 . S
C967 C966 1.399 . S
C967 C968 1.376 . S
C968 H955 0.930 . S
C968 C967 1.376 . S
C968 C969 1.388 . S
C969 H956 0.930 . S
C969 C968 1.388 . S
C969 C970 1.390 . S
C970 C969 1.390 . S
C970 C971 1.394 . S
C970 C976 1.465 . S
C971 C966 1.399 . S
C971 C970 1.394 . S
C971 C972 1.516 . S
C972 C971 1.516 . S
C972 C973 1.502 . S
C972 C974 1.561 . S
C972 C975 1.526 . S
C973 H957 0.959 . S
C973 H958 0.959 . S
C973 H959 0.961 . S
C973 C972 1.502 . S
C974 H960 0.960 . S
C974 H961 0.961 . S
C974 H962 0.959 . S
C974 C972 1.561 . S
C975 C972 1.526 . S
C975 C976 1.396 . S
C975 C980 1.390 . S
C976 C970 1.465 . S
C976 C975 1.396 . S
C976 C977 1.399 . S
C977 H963 0.929 . S
C977 C976 1.399 . S
C977 C978 1.385 . S
C978 H964 0.931 . S
C978 C977 1.385 . S
C978 C979 1.389 . S
C979 C978 1.389 . S
C979 C980 1.387 . S
C980 H965 0.930 . S
C980 C975 1.390 . S
C980 C979 1.387 . S
H981 C993 0.930 . S
H982 C995 0.930 . S
H983 C996 0.930 . S
H984 C1000 0.959 . S
H985 C1000 0.959 . S
H986 C1000 0.961 . S
H987 C1001 0.960 . S
H988 C1001 0.961 . S
H989 C1001 0.959 . S
H990 C1004 0.929 . S
H991 C1005 0.931 . S
H992 C1007 0.930 . S
C993 H981 0.930 . S
C993 C994 1.399 . S
C993 C998 1.399 . S
C994 C993 1.399 . S
C994 C995 1.376 . S
C995 H982 0.930 . S
C995 C994 1.376 . S
C995 C996 1.388 . S
C996 H983 0.930 . S
C996 C995 1.388 . S
C996 C997 1.390 . S
C997 C996 1.390 . S
C997 C998 1.394 . S
C997 C1003 1.465 . S
C998 C993 1.399 . S
C998 C997 1.394 . S
C998 C999 1.516 1_455 S
C999 C998 1.516 1_655 S
C999 C1000 1.502 . S
C999 C1001 1.561 1_655 S
C999 C1002 1.526 . S
C1000 H984 0.959 . S
C1000 H985 0.959 . S
C1000 H986 0.961 . S
C1000 C999 1.502 . S
C1001 H987 0.960 . S
C1001 H988 0.961 . S
C1001 H989 0.959 . S
C1001 C999 1.561 1_455 S
C1002 C999 1.526 . S
C1002 C1003 1.396 1_655 S
C1002 C1007 1.390 . S
C1003 C997 1.465 . S
C1003 C1002 1.396 1_455 S
C1003 C1004 1.399 . S
C1004 H990 0.929 . S
C1004 C1003 1.399 . S
C1004 C1005 1.385 1_455 S
C1005 H991 0.931 . S
C1005 C1004 1.385 1_655 S
C1005 C1006 1.389 . S
C1006 C1005 1.389 . S
C1006 C1007 1.387 . S
C1007 H992 0.930 . S
C1007 C1002 1.390 . S
C1007 C1006 1.387 . S
H1008 C1020 0.930 . S
H1009 C1022 0.930 . S
H1010 C1023 0.930 . S
H1011 C1027 0.959 . S
H1012 C1027 0.959 . S
H1013 C1027 0.961 . S
H1014 C1028 0.960 . S
H1015 C1028 0.961 . S
H1016 C1028 0.959 . S
H1017 C1031 0.929 . S
H1018 C1032 0.931 . S
H1019 C1034 0.930 . S
C1020 H1008 0.930 . S
C1020 C1021 1.399 . S
C1020 C1025 1.399 . S
C1021 C1020 1.399 . S
C1021 C1022 1.376 . S
C1022 H1009 0.930 . S
C1022 C1021 1.376 . S
C1022 C1023 1.388 1_455 S
C1023 H1010 0.930 . S
C1023 C1022 1.388 1_655 S
C1023 C1024 1.390 . S
C1024 C1023 1.390 . S
C1024 C1025 1.394 1_655 S
C1024 C1030 1.465 . S
C1025 C1020 1.399 . S
C1025 C1024 1.394 1_455 S
C1025 C1026 1.516 . S
C1026 C1025 1.516 . S
C1026 C1027 1.502 . S
C1026 C1028 1.561 1_455 S
C1026 C1029 1.526 1_455 S
C1027 H1011 0.959 . S
C1027 H1012 0.959 . S
C1027 H1013 0.961 . S
C1027 C1026 1.502 . S
C1028 H1014 0.960 . S
C1028 H1015 0.961 . S
C1028 H1016 0.959 . S
C1028 C1026 1.561 1_655 S
C1029 C1026 1.526 1_655 S
C1029 C1030 1.396 . S
C1029 C1034 1.390 . S
C1030 C1024 1.465 . S
C1030 C1029 1.396 . S
C1030 C1031 1.399 . S
C1031 H1017 0.929 . S
C1031 C1030 1.399 . S
C1031 C1032 1.385 . S
C1032 H1018 0.931 . S
C1032 C1031 1.385 . S
C1032 C1033 1.389 . S
C1033 C1032 1.389 . S
C1033 C1034 1.387 . S
C1034 H1019 0.930 . S
C1034 C1029 1.390 . S
C1034 C1033 1.387 . S
H1035 C1047 0.930 . S
H1036 C1049 0.930 . S
H1037 C1050 0.930 . S
H1038 C1054 0.959 . S
H1039 C1054 0.959 . S
H1040 C1054 0.961 . S
H1041 C1055 0.960 . S
H1042 C1055 0.961 . S
H1043 C1055 0.959 . S
H1044 C1058 0.929 . S
H1045 C1059 0.931 . S
H1046 C1061 0.930 . S
C1047 H1035 0.930 . S
C1047 C1048 1.399 . S
C1047 C1052 1.399 . S
C1048 C1047 1.399 . S
C1048 C1049 1.376 . S
C1049 H1036 0.930 . S
C1049 C1048 1.376 . S
C1049 C1050 1.388 . S
C1050 H1037 0.930 . S
C1050 C1049 1.388 . S
C1050 C1051 1.390 . S
C1051 C1050 1.390 . S
C1051 C1052 1.394 . S
C1051 C1057 1.465 . S
C1052 C1047 1.399 . S
C1052 C1051 1.394 . S
C1052 C1053 1.516 . S
C1053 C1052 1.516 . S
C1053 C1054 1.502 . S
C1053 C1055 1.561 . S
C1053 C1056 1.526 . S
C1054 H1038 0.959 . S
C1054 H1039 0.959 . S
C1054 H1040 0.961 . S
C1054 C1053 1.502 . S
C1055 H1041 0.960 . S
C1055 H1042 0.961 . S
C1055 H1043 0.959 . S
C1055 C1053 1.561 . S
C1056 C1053 1.526 . S
C1056 C1057 1.396 . S
C1056 C1061 1.390 . S
C1057 C1051 1.465 . S
C1057 C1056 1.396 . S
C1057 C1058 1.399 . S
C1058 H1044 0.929 . S
C1058 C1057 1.399 . S
C1058 C1059 1.385 . S
C1059 H1045 0.931 . S
C1059 C1058 1.385 . S
C1059 C1060 1.389 . S
C1060 C1059 1.389 . S
C1060 C1061 1.387 . S
C1061 H1046 0.930 . S
C1061 C1056 1.390 . S
C1061 C1060 1.387 . S
H1062 C1074 0.930 . S
H1063 C1076 0.930 . S
H1064 C1077 0.930 . S
H1065 C1081 0.959 . S
H1066 C1081 0.959 . S
H1067 C1081 0.961 . S
H1068 C1082 0.960 . S
H1069 C1082 0.961 . S
H1070 C1082 0.959 . S
H1071 C1085 0.929 . S
H1072 C1086 0.931 . S
H1073 C1088 0.930 . S
C1074 H1062 0.930 . S
C1074 C1075 1.399 . S
C1074 C1079 1.399 . S
C1075 C1074 1.399 . S
C1075 C1076 1.376 . S
C1076 H1063 0.930 . S
C1076 C1075 1.376 . S
C1076 C1077 1.388 . S
C1077 H1064 0.930 . S
C1077 C1076 1.388 . S
C1077 C1078 1.390 . S
C1078 C1077 1.390 . S
C1078 C1079 1.394 . S
C1078 C1084 1.465 . S
C1079 C1074 1.399 . S
C1079 C1078 1.394 . S
C1079 C1080 1.516 . S
C1080 C1079 1.516 . S
C1080 C1081 1.502 . S
C1080 C1082 1.561 . S
C1080 C1083 1.526 . S
C1081 H1065 0.959 . S
C1081 H1066 0.959 . S
C1081 H1067 0.961 . S
C1081 C1080 1.502 . S
C1082 H1068 0.960 . S
C1082 H1069 0.961 . S
C1082 H1070 0.959 . S
C1082 C1080 1.561 . S
C1083 C1080 1.526 . S
C1083 C1084 1.396 . S
C1083 C1088 1.390 . S
C1084 C1078 1.465 . S
C1084 C1083 1.396 . S
C1084 C1085 1.399 . S
C1085 H1071 0.929 . S
C1085 C1084 1.399 . S
C1085 C1086 1.385 . S
C1086 H1072 0.931 . S
C1086 C1085 1.385 . S
C1086 C1087 1.389 . S
C1087 C1086 1.389 . S
C1087 C1088 1.387 . S
C1088 H1073 0.930 . S
C1088 C1083 1.390 . S
C1088 C1087 1.387 . S
H1089 C1101 0.930 . S
H1090 C1103 0.930 . S
H1091 C1104 0.930 . S
H1092 C1108 0.959 . S
H1093 C1108 0.959 . S
H1094 C1108 0.961 . S
H1095 C1109 0.960 . S
H1096 C1109 0.961 . S
H1097 C1109 0.959 . S
H1098 C1112 0.929 . S
H1099 C1113 0.931 . S
H1100 C1115 0.930 . S
C1101 H1089 0.930 . S
C1101 C1102 1.399 . S
C1101 C1106 1.399 . S
C1102 C1101 1.399 . S
C1102 C1103 1.376 . S
C1103 H1090 0.930 . S
C1103 C1102 1.376 . S
C1103 C1104 1.388 1_455 S
C1104 H1091 0.930 . S
C1104 C1103 1.388 1_655 S
C1104 C1105 1.390 . S
C1105 C1104 1.390 . S
C1105 C1106 1.394 1_655 S
C1105 C1111 1.465 . S
C1106 C1101 1.399 . S
C1106 C1105 1.394 1_455 S
C1106 C1107 1.516 . S
C1107 C1106 1.516 . S
C1107 C1108 1.502 . S
C1107 C1109 1.561 1_455 S
C1107 C1110 1.526 1_455 S
C1108 H1092 0.959 . S
C1108 H1093 0.959 . S
C1108 H1094 0.961 . S
C1108 C1107 1.502 . S
C1109 H1095 0.960 . S
C1109 H1096 0.961 . S
C1109 H1097 0.959 . S
C1109 C1107 1.561 1_655 S
C1110 C1107 1.526 1_655 S
C1110 C1111 1.396 . S
C1110 C1115 1.390 . S
C1111 C1105 1.465 . S
C1111 C1110 1.396 . S
C1111 C1112 1.399 . S
C1112 H1098 0.929 . S
C1112 C1111 1.399 . S
C1112 C1113 1.385 . S
C1113 H1099 0.931 . S
C1113 C1112 1.385 . S
C1113 C1114 1.389 . S
C1114 C1113 1.389 . S
C1114 C1115 1.387 . S
C1115 H1100 0.930 . S
C1115 C1110 1.390 . S
C1115 C1114 1.387 . S
H1116 C1128 0.930 . S
H1117 C1130 0.930 . S
H1118 C1131 0.930 . S
H1119 C1135 0.959 . S
H1120 C1135 0.959 . S
H1121 C1135 0.961 . S
H1122 C1136 0.960 . S
H1123 C1136 0.961 . S
H1124 C1136 0.959 . S
H1125 C1139 0.929 . S
H1126 C1140 0.931 . S
H1127 C1142 0.930 . S
C1128 H1116 0.930 . S
C1128 C1129 1.399 . S
C1128 C1133 1.399 . S
C1129 C1128 1.399 . S
C1129 C1130 1.376 . S
C1130 H1117 0.930 . S
C1130 C1129 1.376 . S
C1130 C1131 1.388 1_455 S
C1131 H1118 0.930 . S
C1131 C1130 1.388 1_655 S
C1131 C1132 1.390 . S
C1132 C1131 1.390 . S
C1132 C1133 1.394 1_655 S
C1132 C1138 1.465 . S
C1133 C1128 1.399 . S
C1133 C1132 1.394 1_455 S
C1133 C1134 1.516 . S
C1134 C1133 1.516 . S
C1134 C1135 1.502 . S
C1134 C1136 1.561 1_455 S
C1134 C1137 1.526 1_455 S
C1135 H1119 0.959 . S
C1135 H1120 0.959 . S
C1135 H1121 0.961 . S
C1135 C1134 1.502 . S
C1136 H1122 0.960 . S
C1136 H1123 0.961 . S
C1136 H1124 0.959 . S
C1136 C1134 1.561 1_655 S
C1137 C1134 1.526 1_655 S
C1137 C1138 1.396 . S
C1137 C1142 1.390 . S
C1138 C1132 1.465 . S
C1138 C1137 1.396 . S
C1138 C1139 1.399 . S
C1139 H1125 0.929 . S
C1139 C1138 1.399 . S
C1139 C1140 1.385 . S
C1140 H1126 0.931 . S
C1140 C1139 1.385 . S
C1140 C1141 1.389 . S
C1141 C1140 1.389 . S
C1141 C1142 1.387 . S
C1142 H1127 0.930 . S
C1142 C1137 1.390 . S
C1142 C1141 1.387 . S
H1143 C1155 0.930 . S
H1144 C1157 0.930 . S
H1145 C1158 0.930 . S
H1146 C1162 0.959 . S
H1147 C1162 0.959 . S
H1148 C1162 0.961 . S
H1149 C1163 0.960 . S
H1150 C1163 0.961 . S
H1151 C1163 0.959 . S
H1152 C1166 0.929 . S
H1153 C1167 0.931 . S
H1154 C1169 0.930 . S
C1155 H1143 0.930 . S
C1155 C1156 1.399 . S
C1155 C1160 1.399 . S
C1156 C1155 1.399 . S
C1156 C1157 1.376 . S
C1157 H1144 0.930 . S
C1157 C1156 1.376 . S
C1157 C1158 1.388 . S
C1158 H1145 0.930 . S
C1158 C1157 1.388 . S
C1158 C1159 1.390 . S
C1159 C1158 1.390 . S
C1159 C1160 1.394 . S
C1159 C1165 1.465 . S
C1160 C1155 1.399 . S
C1160 C1159 1.394 . S
C1160 C1161 1.516 . S
C1161 C1160 1.516 . S
C1161 C1162 1.502 . S
C1161 C1163 1.561 . S
C1161 C1164 1.526 . S
C1162 H1146 0.959 . S
C1162 H1147 0.959 . S
C1162 H1148 0.961 . S
C1162 C1161 1.502 . S
C1163 H1149 0.960 . S
C1163 H1150 0.961 . S
C1163 H1151 0.959 . S
C1163 C1161 1.561 . S
C1164 C1161 1.526 . S
C1164 C1165 1.396 . S
C1164 C1169 1.390 . S
C1165 C1159 1.465 . S
C1165 C1164 1.396 . S
C1165 C1166 1.399 . S
C1166 H1152 0.929 . S
C1166 C1165 1.399 . S
C1166 C1167 1.385 . S
C1167 H1153 0.931 . S
C1167 C1166 1.385 . S
C1167 C1168 1.389 . S
C1168 C1167 1.389 . S
C1168 C1169 1.387 . S
C1169 H1154 0.930 . S
C1169 C1164 1.390 . S
C1169 C1168 1.387 . S
H1170 C1182 0.930 . S
H1171 C1184 0.930 . S
H1172 C1185 0.930 . S
H1173 C1189 0.959 . S
H1174 C1189 0.959 . S
H1175 C1189 0.961 . S
H1176 C1190 0.960 . S
H1177 C1190 0.961 . S
H1178 C1190 0.959 . S
H1179 C1193 0.929 . S
H1180 C1194 0.931 . S
H1181 C1196 0.930 . S
C1182 H1170 0.930 . S
C1182 C1183 1.399 . S
C1182 C1187 1.399 . S
C1183 C1182 1.399 . S
C1183 C1184 1.376 . S
C1184 H1171 0.930 . S
C1184 C1183 1.376 . S
C1184 C1185 1.388 . S
C1185 H1172 0.930 . S
C1185 C1184 1.388 . S
C1185 C1186 1.390 . S
C1186 C1185 1.390 . S
C1186 C1187 1.394 . S
C1186 C1192 1.465 . S
C1187 C1182 1.399 . S
C1187 C1186 1.394 . S
C1187 C1188 1.516 . S
C1188 C1187 1.516 . S
C1188 C1189 1.502 . S
C1188 C1190 1.561 . S
C1188 C1191 1.526 . S
C1189 H1173 0.959 . S
C1189 H1174 0.959 . S
C1189 H1175 0.961 . S
C1189 C1188 1.502 . S
C1190 H1176 0.960 . S
C1190 H1177 0.961 . S
C1190 H1178 0.959 . S
C1190 C1188 1.561 . S
C1191 C1188 1.526 . S
C1191 C1192 1.396 . S
C1191 C1196 1.390 . S
C1192 C1186 1.465 . S
C1192 C1191 1.396 . S
C1192 C1193 1.399 . S
C1193 H1179 0.929 . S
C1193 C1192 1.399 . S
C1193 C1194 1.385 . S
C1194 H1180 0.931 . S
C1194 C1193 1.385 . S
C1194 C1195 1.389 . S
C1195 C1194 1.389 . S
C1195 C1196 1.387 . S
C1196 H1181 0.930 . S
C1196 C1191 1.390 . S
C1196 C1195 1.387 . S
H1197 C1209 0.930 . S
H1198 C1211 0.930 . S
H1199 C1212 0.930 1_655 S
H1200 C1216 0.959 . S
H1201 C1216 0.959 . S
H1202 C1216 0.961 1_455 S
H1203 C1217 0.960 . S
H1204 C1217 0.961 . S
H1205 C1217 0.959 . S
H1206 C1220 0.929 . S
H1207 C1221 0.931 . S
H1208 C1223 0.930 . S
C1209 H1197 0.930 . S
C1209 C1210 1.399 . S
C1209 C1214 1.399 . S
C1210 C1209 1.399 . S
C1210 C1211 1.376 . S
C1211 H1198 0.930 . S
C1211 C1210 1.376 . S
C1211 C1212 1.388 . S
C1212 H1199 0.930 1_455 S
C1212 C1211 1.388 . S
C1212 C1213 1.390 . S
C1213 C1212 1.390 . S
C1213 C1214 1.394 . S
C1213 C1219 1.465 1_455 S
C1214 C1209 1.399 . S
C1214 C1213 1.394 . S
C1214 C1215 1.516 . S
C1215 C1214 1.516 . S
C1215 C1216 1.502 1_455 S
C1215 C1217 1.561 . S
C1215 C1218 1.526 1_455 S
C1216 H1200 0.959 . S
C1216 H1201 0.959 . S
C1216 H1202 0.961 1_655 S
C1216 C1215 1.502 1_655 S
C1217 H1203 0.960 . S
C1217 H1204 0.961 . S
C1217 H1205 0.959 . S
C1217 C1215 1.561 . S
C1218 C1215 1.526 1_655 S
C1218 C1219 1.396 . S
C1218 C1223 1.390 . S
C1219 C1213 1.465 1_655 S
C1219 C1218 1.396 . S
C1219 C1220 1.399 . S
C1220 H1206 0.929 . S
C1220 C1219 1.399 . S
C1220 C1221 1.385 . S
C1221 H1207 0.931 . S
C1221 C1220 1.385 . S
C1221 C1222 1.389 . S
C1222 C1221 1.389 . S
C1222 C1223 1.387 . S
C1223 H1208 0.930 . S
C1223 C1218 1.390 . S
C1223 C1222 1.387 . S
H1224 C1236 0.930 1_545 S
H1225 C1238 0.930 . S
H1226 C1239 0.930 . S
H1227 C1243 0.959 1_455 S
H1228 C1243 0.959 . S
H1229 C1243 0.961 . S
H1230 C1244 0.960 1_556 S
H1231 C1244 0.961 . S
H1232 C1244 0.959 . S
H1233 C1247 0.929 . S
H1234 C1248 0.931 . S
H1235 C1250 0.930 1_655 S
C1236 H1224 0.930 1_565 S
C1236 C1237 1.399 . S
C1236 C1241 1.399 1_565 S
C1237 C1236 1.399 . S
C1237 C1238 1.376 . S
C1238 H1225 0.930 . S
C1238 C1237 1.376 . S
C1238 C1239 1.388 1_655 S
C1239 H1226 0.930 . S
C1239 C1238 1.388 1_455 S
C1239 C1240 1.390 1_455 S
C1240 C1239 1.390 1_655 S
C1240 C1241 1.393 1_565 S
C1240 C1246 1.465 1_656 S
C1241 C1236 1.399 1_545 S
C1241 C1240 1.393 1_545 S
C1241 C1242 1.516 . S
C1242 C1241 1.516 . S
C1242 C1243 1.502 . S
C1242 C1244 1.561 1_556 S
C1242 C1245 1.526 1_556 S
C1243 H1227 0.959 1_655 S
C1243 H1228 0.959 . S
C1243 H1229 0.961 . S
C1243 C1242 1.502 . S
C1244 H1230 0.960 1_554 S
C1244 H1231 0.961 . S
C1244 H1232 0.959 . S
C1244 C1242 1.561 1_554 S
C1245 C1242 1.526 1_554 S
C1245 C1246 1.396 1_645 S
C1245 C1250 1.390 1_655 S
C1246 C1240 1.465 1_454 S
C1246 C1245 1.396 1_465 S
C1246 C1247 1.399 . S
C1247 H1233 0.929 . S
C1247 C1246 1.399 . S
C1247 C1248 1.385 . S
C1248 H1234 0.931 . S
C1248 C1247 1.385 . S
C1248 C1249 1.389 1_565 S
C1249 C1248 1.389 1_545 S
C1249 C1250 1.387 . S
C1250 H1235 0.930 1_455 S
C1250 C1245 1.390 1_455 S
C1250 C1249 1.387 . S
H1251 C1263 0.930 1_565 S
H1252 C1265 0.930 . S
H1253 C1266 0.930 . S
H1254 C1270 0.959 . S
H1255 C1270 0.959 1_554 S
H1256 C1270 0.961 . S
H1257 C1271 0.960 1_556 S
H1258 C1271 0.961 . S
H1259 C1271 0.959 1_545 S
H1260 C1274 0.929 . S
H1261 C1275 0.931 1_545 S
H1262 C1277 0.930 . S
C1263 H1251 0.930 1_545 S
C1263 C1264 1.399 . S
C1263 C1268 1.399 . S
C1264 C1263 1.399 . S
C1264 C1265 1.376 . S
C1265 H1252 0.930 . S
C1265 C1264 1.376 . S
C1265 C1266 1.388 . S
C1266 H1253 0.930 . S
C1266 C1265 1.388 . S
C1266 C1267 1.390 . S
C1267 C1266 1.390 . S
C1267 C1268 1.394 . S
C1267 C1273 1.465 1_556 S
C1268 C1263 1.399 . S
C1268 C1267 1.394 . S
C1268 C1269 1.495 1_546 S
C1269 C1268 1.495 1_564 S
C1269 C1270 1.492 1_554 S
C1269 C1271 1.573 . S
C1269 C1272 1.547 . S
C1270 H1254 0.959 . S
C1270 H1255 0.959 1_556 S
C1270 H1256 0.961 . S
C1270 C1269 1.492 1_556 S
C1271 H1257 0.960 1_554 S
C1271 H1258 0.961 . S
C1271 H1259 0.959 1_565 S
C1271 C1269 1.573 . S
C1272 C1269 1.547 . S
C1272 C1273 1.396 1_565 S
C1272 C1277 1.390 . S
C1273 C1267 1.465 1_554 S
C1273 C1272 1.396 1_545 S
C1273 C1274 1.399 . S
C1274 H1260 0.929 . S
C1274 C1273 1.399 . S
C1274 C1275 1.385 1_545 S
C1275 H1261 0.931 1_565 S
C1275 C1274 1.385 1_565 S
C1275 C1276 1.389 . S
C1276 C1275 1.389 . S
C1276 C1277 1.387 . S
C1277 H1262 0.930 . S
C1277 C1272 1.390 . S
C1277 C1276 1.387 . S
H1278 C1290 0.930 1_565 S
H1279 C1292 0.930 . S
H1280 C1293 0.930 . S
H1281 C1297 0.959 . S
H1282 C1297 0.959 . S
H1283 C1297 0.961 . S
H1284 C1298 0.960 . S
H1285 C1298 0.961 . S
H1286 C1298 0.959 . S
H1287 C1301 0.929 . S
H1288 C1302 0.931 . S
H1289 C1304 0.930 . S
C1290 H1278 0.930 1_545 S
C1290 C1291 1.399 . S
C1290 C1295 1.399 1_545 S
C1291 C1290 1.399 . S
C1291 C1292 1.376 . S
C1292 H1279 0.930 . S
C1292 C1291 1.376 . S
C1292 C1293 1.388 . S
C1293 H1280 0.930 . S
C1293 C1292 1.388 . S
C1293 C1294 1.390 . S
C1294 C1293 1.390 . S
C1294 C1295 1.394 1_545 S
C1294 C1300 1.465 . S
C1295 C1290 1.399 1_565 S
C1295 C1294 1.394 1_565 S
C1295 C1296 1.516 . S
C1296 C1295 1.516 . S
C1296 C1297 1.502 . S
C1296 C1298 1.561 . S
C1296 C1299 1.526 . S
C1297 H1281 0.959 . S
C1297 H1282 0.959 . S
C1297 H1283 0.961 . S
C1297 C1296 1.502 . S
C1298 H1284 0.960 . S
C1298 H1285 0.961 . S
C1298 H1286 0.959 . S
C1298 C1296 1.561 . S
C1299 C1296 1.526 . S
C1299 C1300 1.396 1_565 S
C1299 C1304 1.390 . S
C1300 C1294 1.465 . S
C1300 C1299 1.396 1_545 S
C1300 C1301 1.399 . S
C1301 H1287 0.929 . S
C1301 C1300 1.399 . S
C1301 C1302 1.385 . S
C1302 H1288 0.931 . S
C1302 C1301 1.385 . S
C1302 C1303 1.389 1_545 S
C1303 C1302 1.389 1_565 S
C1303 C1304 1.387 . S
C1304 H1289 0.930 . S
C1304 C1299 1.390 . S
C1304 C1303 1.387 . S
H1305 C1317 0.930 . S
H1306 C1319 0.930 . S
H1307 C1320 0.930 . S
H1308 C1324 0.959 . S
H1309 C1324 0.959 . S
H1310 C1324 0.961 1_565 S
H1311 C1325 0.960 . S
H1312 C1325 0.961 . S
H1313 C1325 0.959 . S
H1314 C1328 0.929 . S
H1315 C1329 0.931 . S
H1316 C1331 0.930 . S
C1317 H1305 0.930 . S
C1317 C1318 1.399 . S
C1317 C1322 1.399 . S
C1318 C1317 1.399 . S
C1318 C1319 1.376 1_455 S
C1319 H1306 0.930 . S
C1319 C1318 1.376 1_655 S
C1319 C1320 1.388 . S
C1320 H1307 0.930 . S
C1320 C1319 1.388 . S
C1320 C1321 1.390 . S
C1321 C1320 1.390 . S
C1321 C1322 1.394 1_655 S
C1321 C1327 1.465 1_565 S
C1322 C1317 1.399 . S
C1322 C1321 1.394 1_455 S
C1322 C1323 1.516 . S
C1323 C1322 1.516 . S
C1323 C1324 1.502 1_565 S
C1323 C1325 1.561 . S
C1323 C1326 1.526 1_565 S
C1324 H1308 0.959 . S
C1324 H1309 0.959 . S
C1324 H1310 0.961 1_545 S
C1324 C1323 1.502 1_545 S
C1325 H1311 0.960 . S
C1325 H1312 0.961 . S
C1325 H1313 0.959 . S
C1325 C1323 1.561 . S
C1326 C1323 1.526 1_545 S
C1326 C1327 1.396 1_455 S
C1326 C1331 1.390 . S
C1327 C1321 1.465 1_545 S
C1327 C1326 1.396 1_655 S
C1327 C1328 1.399 . S
C1328 H1314 0.929 . S
C1328 C1327 1.399 . S
C1328 C1329 1.385 . S
C1329 H1315 0.931 . S
C1329 C1328 1.385 . S
C1329 C1330 1.389 . S
C1330 C1329 1.389 . S
C1330 C1331 1.387 1_655 S
C1331 H1316 0.930 . S
C1331 C1326 1.390 . S
C1331 C1330 1.387 1_455 S
H1332 C1344 0.930 . S
H1333 C1346 0.930 . S
H1334 C1347 0.930 . S
H1335 C1351 0.944 1_556 S
H1336 C1351 0.942 1_556 S
H1337 C1351 0.988 . S
H1338 C1352 0.960 . S
H1339 C1352 0.961 . S
H1340 C1352 0.959 . S
H1341 C1355 0.929 . S
H1342 C1356 0.931 . S
H1343 C1358 0.930 . S
C1344 H1332 0.930 . S
C1344 C1345 1.399 . S
C1344 C1349 1.399 . S
C1345 C1344 1.399 . S
C1345 C1346 1.376 . S
C1346 H1333 0.930 . S
C1346 C1345 1.376 . S
C1346 C1347 1.388 . S
C1347 H1334 0.930 . S
C1347 C1346 1.388 . S
C1347 C1348 1.390 . S
C1348 C1347 1.390 . S
C1348 C1349 1.394 . S
C1348 C1354 1.465 1_554 S
C1349 C1344 1.399 . S
C1349 C1348 1.394 . S
C1349 C1350 1.516 . S
C1350 C1349 1.516 . S
C1350 C1351 1.508 . S
C1350 C1352 1.561 . S
C1350 C1353 1.526 1_554 S
C1351 H1335 0.944 1_554 S
C1351 H1336 0.942 1_554 S
C1351 H1337 0.988 . S
C1351 C1350 1.508 . S
C1352 H1338 0.960 . S
C1352 H1339 0.961 . S
C1352 H1340 0.959 . S
C1352 C1350 1.561 . S
C1353 C1350 1.526 1_556 S
C1353 C1354 1.396 . S
C1353 C1358 1.390 . S
C1354 C1348 1.465 1_556 S
C1354 C1353 1.396 . S
C1354 C1355 1.399 . S
C1355 H1341 0.929 . S
C1355 C1354 1.399 . S
C1355 C1356 1.385 . S
C1356 H1342 0.931 . S
C1356 C1355 1.385 . S
C1356 C1357 1.389 . S
C1357 C1356 1.389 . S
C1357 C1358 1.387 . S
C1358 H1343 0.930 . S
C1358 C1353 1.390 . S
C1358 C1357 1.387 . S
H1359 C1371 0.939 . S
H1360 C1373 0.930 . S
H1361 C1374 0.930 . S
H1362 C1378 0.959 . S
H1363 C1378 0.959 1_556 S
H1364 C1378 0.961 . S
H1365 C1379 0.960 . S
H1366 C1379 0.961 . S
H1367 C1379 0.958 1_655 S
H1368 C1382 0.929 . S
H1369 C1383 0.931 . S
H1370 C1385 0.930 . S
C1371 H1359 0.939 . S
C1371 C1372 1.389 1_455 S
C1371 C1376 1.400 . S
C1372 C1371 1.389 1_655 S
C1372 C1373 1.376 . S
C1373 H1360 0.930 . S
C1373 C1372 1.376 . S
C1373 C1374 1.388 . S
C1374 H1361 0.930 . S
C1374 C1373 1.388 . S
C1374 C1375 1.390 . S
C1375 C1374 1.390 . S
C1375 C1376 1.394 1_655 S
C1375 C1381 1.465 1_554 S
C1376 C1371 1.400 . S
C1376 C1375 1.394 1_455 S
C1376 C1377 1.516 1_554 S
C1377 C1376 1.516 1_556 S
C1377 C1378 1.502 1_556 S
C1377 C1379 1.561 . S
C1377 C1380 1.526 . S
C1378 H1362 0.959 . S
C1378 H1363 0.959 1_554 S
C1378 H1364 0.961 . S
C1378 C1377 1.502 1_554 S
C1379 H1365 0.960 . S
C1379 H1366 0.961 . S
C1379 H1367 0.958 1_455 S
C1379 C1377 1.561 . S
C1380 C1377 1.526 . S
C1380 C1381 1.396 1_455 S
C1380 C1385 1.390 . S
C1381 C1375 1.465 1_556 S
C1381 C1380 1.396 1_655 S
C1381 C1382 1.399 . S
C1382 H1368 0.929 . S
C1382 C1381 1.399 . S
C1382 C1383 1.385 . S
C1383 H1369 0.931 . S
C1383 C1382 1.385 . S
C1383 C1384 1.389 1_655 S
C1384 C1383 1.389 1_455 S
C1384 C1385 1.387 . S
C1385 H1370 0.930 . S
C1385 C1380 1.390 . S
C1385 C1384 1.387 . S
H1386 C1398 0.930 . S
H1387 C1400 0.930 . S
H1388 C1401 0.930 . S
H1389 C1405 0.959 . S
H1390 C1405 0.959 . S
H1391 C1405 0.961 . S
H1392 C1406 0.960 . S
H1393 C1406 0.961 . S
H1394 C1406 0.959 . S
H1395 C1409 0.929 . S
H1396 C1410 0.931 . S
H1397 C1412 0.930 . S
C1398 H1386 0.930 . S
C1398 C1399 1.399 1_455 S
C1398 C1403 1.399 . S
C1399 C1398 1.399 1_655 S
C1399 C1400 1.376 . S
C1400 H1387 0.930 . S
C1400 C1399 1.376 . S
C1400 C1401 1.388 . S
C1401 H1388 0.930 . S
C1401 C1400 1.388 . S
C1401 C1402 1.390 . S
C1402 C1401 1.390 . S
C1402 C1403 1.394 1_655 S
C1402 C1408 1.465 . S
C1403 C1398 1.399 . S
C1403 C1402 1.394 1_455 S
C1403 C1404 1.516 . S
C1404 C1403 1.516 . S
C1404 C1405 1.502 . S
C1404 C1406 1.561 . S
C1404 C1407 1.526 . S
C1405 H1389 0.959 . S
C1405 H1390 0.959 . S
C1405 H1391 0.961 . S
C1405 C1404 1.502 . S
C1406 H1392 0.960 . S
C1406 H1393 0.961 . S
C1406 H1394 0.959 . S
C1406 C1404 1.561 . S
C1407 C1404 1.526 . S
C1407 C1408 1.396 1_455 S
C1407 C1412 1.390 . S
C1408 C1402 1.465 . S
C1408 C1407 1.396 1_655 S
C1408 C1409 1.399 . S
C1409 H1395 0.929 . S
C1409 C1408 1.399 . S
C1409 C1410 1.385 . S
C1410 H1396 0.931 . S
C1410 C1409 1.385 . S
C1410 C1411 1.389 1_655 S
C1411 C1410 1.389 1_455 S
C1411 C1412 1.387 . S
C1412 H1397 0.930 . S
C1412 C1407 1.390 . S
C1412 C1411 1.387 . S
H1413 C1425 0.930 . S
H1414 C1427 0.930 . S
H1415 C1428 0.930 . S
H1416 C1432 0.959 . S
H1417 C1432 0.959 . S
H1418 C1432 0.961 . S
H1419 C1433 0.960 . S
H1420 C1433 0.961 . S
H1421 C1433 0.959 . S
H1422 C1436 0.929 . S
H1423 C1437 0.931 . S
H1424 C1439 0.930 . S
C1425 H1413 0.930 . S
C1425 C1426 1.399 . S
C1425 C1430 1.399 . S
C1426 C1425 1.399 . S
C1426 C1427 1.376 . S
C1427 H1414 0.930 . S
C1427 C1426 1.376 . S
C1427 C1428 1.388 . S
C1428 H1415 0.930 . S
C1428 C1427 1.388 . S
C1428 C1429 1.390 . S
C1429 C1428 1.390 . S
C1429 C1430 1.394 . S
C1429 C1435 1.465 . S
C1430 C1425 1.399 . S
C1430 C1429 1.394 . S
C1430 C1431 1.516 . S
C1431 C1430 1.516 . S
C1431 C1432 1.502 . S
C1431 C1433 1.561 . S
C1431 C1434 1.526 . S
C1432 H1416 0.959 . S
C1432 H1417 0.959 . S
C1432 H1418 0.961 . S
C1432 C1431 1.502 . S
C1433 H1419 0.960 . S
C1433 H1420 0.961 . S
C1433 H1421 0.959 . S
C1433 C1431 1.561 . S
C1434 C1431 1.526 . S
C1434 C1435 1.396 . S
C1434 C1439 1.390 . S
C1435 C1429 1.465 . S
C1435 C1434 1.396 . S
C1435 C1436 1.399 . S
C1436 H1422 0.929 . S
C1436 C1435 1.399 . S
C1436 C1437 1.385 . S
C1437 H1423 0.931 . S
C1437 C1436 1.385 . S
C1437 C1438 1.389 . S
C1438 C1437 1.389 . S
C1438 C1439 1.387 . S
C1439 H1424 0.930 . S
C1439 C1434 1.390 . S
C1439 C1438 1.387 . S
C589 C40 1.492 . S
C601 C4 1.480 . S
C616 C76 1.488 . S
C628 C112 1.494 . S
C643 C148 1.479 . S
C655 C184 1.494 . S
C670 C256 1.497 . S
C682 C220 1.489 . S
C697 C328 1.481 . S
C709 C292 1.490 . S
C724 C400 1.492 . S
C736 C364 1.480 . S
C751 C472 1.479 . S
C763 C436 1.488 . S
C778 C544 1.496 . S
C790 C508 1.491 . S
C805 C110 1.335 . S
C817 C2 1.322 . S
C832 C38 1.335 . S
C844 C74 1.322 . S
C859 C254 1.294 . S
C871 C146 1.274 . S
C886 C218 1.313 . S
C898 C182 1.334 . S
C913 C290 1.333 . S
C925 C398 1.316 . S
C940 C362 1.273 . S
C952 C326 1.289 . S
C967 C542 1.285 . S
C979 C434 1.326 . S
C994 C470 1.312 . S
C1006 C506 1.334 . S
C1021 C3 1.499 . S
C1033 C327 1.497 . S
C1048 C39 1.500 . S
C1060 C291 1.503 . S
C1075 C399 1.499 . S
C1087 C75 1.497 . S
C1102 C363 1.499 . S
C1114 C111 1.497 . S
C1129 C471 1.503 . S
C1141 C147 1.502 . S
C1156 C435 1.496 . S
C1168 C183 1.498 . S
C1183 C219 1.503 . S
C1195 C543 1.502 . S
C1210 C255 1.497 . S
C1222 C507 1.497 . S
C1237 C158 1.273 . S
C1249 C14 1.202 . S
C1264 C194 1.278 . S
C1276 C50 1.202 . S
C1291 C230 1.275 . S
C1303 C86 1.202 . S
C1318 C266 1.267 . S
C1330 C122 1.224 . S
C1345 C302 1.276 . S
C1357 C446 1.202 . S
C1372 C338 1.211 . S
C1384 C482 1.275 . S
C1399 C518 1.216 . S
C1411 C374 1.253 . S
C1426 C554 1.227 . S
C1438 C410 1.263 . S
