# Generated by pormake.
# Topology fcj, (5)-cn, num edge types: 1
# Building blocks:
#     Node 0, Type 0, BuildingBlock: XOMCOT_clean_sbu_1, # of connection points: 5
#     Node 1, Type 0, BuildingBlock: XOMCOT_clean_sbu_1, # of connection points: 5
#     Node 2, Type 0, BuildingBlock: XOMCOT_clean_sbu_1, # of connection points: 5
#     Node 3, Type 0, BuildingBlock: XOMCOT_clean_sbu_1, # of connection points: 5
#     Node 4, Type 0, BuildingBlock: XOMCOT_clean_sbu_1, # of connection points: 5
#     Node 5, Type 0, BuildingBlock: XOMCOT_clean_sbu_1, # of connection points: 5
#     Node 6, Type 0, BuildingBlock: XOMCOT_clean_sbu_1, # of connection points: 5
#     Node 7, Type 0, BuildingBlock: XOMCOT_clean_sbu_1, # of connection points: 5
#     Node 8, Type 0, BuildingBlock: XOMCOT_clean_sbu_1, # of connection points: 5
#     Node 9, Type 0, BuildingBlock: XOMCOT_clean_sbu_1, # of connection points: 5
#     Node 10, Type 0, BuildingBlock: XOMCOT_clean_sbu_1, # of connection points: 5
#     Node 11, Type 0, BuildingBlock: XOMCOT_clean_sbu_1, # of connection points: 5
#     Node 12, Type 0, BuildingBlock: XOMCOT_clean_sbu_1, # of connection points: 5
#     Node 13, Type 0, BuildingBlock: XOMCOT_clean_sbu_1, # of connection points: 5
#     Node 14, Type 0, BuildingBlock: XOMCOT_clean_sbu_1, # of connection points: 5
#     Node 15, Type 0, BuildingBlock: XOMCOT_clean_sbu_1, # of connection points: 5
#     Node 16, Type 0, BuildingBlock: XOMCOT_clean_sbu_1, # of connection points: 5
#     Node 17, Type 0, BuildingBlock: XOMCOT_clean_sbu_1, # of connection points: 5
#     Node 18, Type 0, BuildingBlock: XOMCOT_clean_sbu_1, # of connection points: 5
#     Node 19, Type 0, BuildingBlock: XOMCOT_clean_sbu_1, # of connection points: 5
#     Node 20, Type 0, BuildingBlock: XOMCOT_clean_sbu_1, # of connection points: 5
#     Node 21, Type 0, BuildingBlock: XOMCOT_clean_sbu_1, # of connection points: 5
#     Node 22, Type 0, BuildingBlock: XOMCOT_clean_sbu_1, # of connection points: 5
#     Node 23, Type 0, BuildingBlock: XOMCOT_clean_sbu_1, # of connection points: 5
#     Edge 24, Type (0, 0), BuildingBlock: UVAHIK_clean_linker_0, # of connection points: 2
#     Edge 25, Type (0, 0), BuildingBlock: UVAHIK_clean_linker_0, # of connection points: 2
#     Edge 26, Type (0, 0), BuildingBlock: UVAHIK_clean_linker_0, # of connection points: 2
#     Edge 27, Type (0, 0), BuildingBlock: UVAHIK_clean_linker_0, # of connection points: 2
#     Edge 28, Type (0, 0), BuildingBlock: UVAHIK_clean_linker_0, # of connection points: 2
#     Edge 29, Type (0, 0), BuildingBlock: UVAHIK_clean_linker_0, # of connection points: 2
#     Edge 30, Type (0, 0), BuildingBlock: UVAHIK_clean_linker_0, # of connection points: 2
#     Edge 31, Type (0, 0), BuildingBlock: UVAHIK_clean_linker_0, # of connection points: 2
#     Edge 32, Type (0, 0), BuildingBlock: UVAHIK_clean_linker_0, # of connection points: 2
#     Edge 33, Type (0, 0), BuildingBlock: UVAHIK_clean_linker_0, # of connection points: 2
#     Edge 34, Type (0, 0), BuildingBlock: UVAHIK_clean_linker_0, # of connection points: 2
#     Edge 35, Type (0, 0), BuildingBlock: UVAHIK_clean_linker_0, # of connection points: 2
#     Edge 36, Type (0, 0), BuildingBlock: UVAHIK_clean_linker_0, # of connection points: 2
#     Edge 37, Type (0, 0), BuildingBlock: UVAHIK_clean_linker_0, # of connection points: 2
#     Edge 38, Type (0, 0), BuildingBlock: UVAHIK_clean_linker_0, # of connection points: 2
#     Edge 39, Type (0, 0), BuildingBlock: UVAHIK_clean_linker_0, # of connection points: 2
#     Edge 40, Type (0, 0), BuildingBlock: UVAHIK_clean_linker_0, # of connection points: 2
#     Edge 41, Type (0, 0), BuildingBlock: UVAHIK_clean_linker_0, # of connection points: 2
#     Edge 42, Type (0, 0), BuildingBlock: UVAHIK_clean_linker_0, # of connection points: 2
#     Edge 43, Type (0, 0), BuildingBlock: UVAHIK_clean_linker_0, # of connection points: 2
#     Edge 44, Type (0, 0), BuildingBlock: UVAHIK_clean_linker_0, # of connection points: 2
#     Edge 45, Type (0, 0), BuildingBlock: UVAHIK_clean_linker_0, # of connection points: 2
#     Edge 46, Type (0, 0), BuildingBlock: UVAHIK_clean_linker_0, # of connection points: 2
#     Edge 47, Type (0, 0), BuildingBlock: UVAHIK_clean_linker_0, # of connection points: 2
#     Edge 48, Type (0, 0), BuildingBlock: UVAHIK_clean_linker_0, # of connection points: 2
#     Edge 49, Type (0, 0), BuildingBlock: UVAHIK_clean_linker_0, # of connection points: 2
#     Edge 50, Type (0, 0), BuildingBlock: UVAHIK_clean_linker_0, # of connection points: 2
#     Edge 51, Type (0, 0), BuildingBlock: UVAHIK_clean_linker_0, # of connection points: 2
#     Edge 52, Type (0, 0), BuildingBlock: UVAHIK_clean_linker_0, # of connection points: 2
#     Edge 53, Type (0, 0), BuildingBlock: UVAHIK_clean_linker_0, # of connection points: 2
#     Edge 54, Type (0, 0), BuildingBlock: UVAHIK_clean_linker_0, # of connection points: 2
#     Edge 55, Type (0, 0), BuildingBlock: UVAHIK_clean_linker_0, # of connection points: 2
#     Edge 56, Type (0, 0), BuildingBlock: UVAHIK_clean_linker_0, # of connection points: 2
#     Edge 57, Type (0, 0), BuildingBlock: UVAHIK_clean_linker_0, # of connection points: 2
#     Edge 58, Type (0, 0), BuildingBlock: UVAHIK_clean_linker_0, # of connection points: 2
#     Edge 59, Type (0, 0), BuildingBlock: UVAHIK_clean_linker_0, # of connection points: 2
#     Edge 60, Type (0, 0), BuildingBlock: UVAHIK_clean_linker_0, # of connection points: 2
#     Edge 61, Type (0, 0), BuildingBlock: UVAHIK_clean_linker_0, # of connection points: 2
#     Edge 62, Type (0, 0), BuildingBlock: UVAHIK_clean_linker_0, # of connection points: 2
#     Edge 63, Type (0, 0), BuildingBlock: UVAHIK_clean_linker_0, # of connection points: 2
#     Edge 64, Type (0, 0), BuildingBlock: UVAHIK_clean_linker_0, # of connection points: 2
#     Edge 65, Type (0, 0), BuildingBlock: UVAHIK_clean_linker_0, # of connection points: 2
#     Edge 66, Type (0, 0), BuildingBlock: UVAHIK_clean_linker_0, # of connection points: 2
#     Edge 67, Type (0, 0), BuildingBlock: UVAHIK_clean_linker_0, # of connection points: 2
#     Edge 68, Type (0, 0), BuildingBlock: UVAHIK_clean_linker_0, # of connection points: 2
#     Edge 69, Type (0, 0), BuildingBlock: UVAHIK_clean_linker_0, # of connection points: 2
#     Edge 70, Type (0, 0), BuildingBlock: UVAHIK_clean_linker_0, # of connection points: 2
#     Edge 71, Type (0, 0), BuildingBlock: UVAHIK_clean_linker_0, # of connection points: 2
#     Edge 72, Type (0, 0), BuildingBlock: UVAHIK_clean_linker_0, # of connection points: 2
#     Edge 73, Type (0, 0), BuildingBlock: UVAHIK_clean_linker_0, # of connection points: 2
#     Edge 74, Type (0, 0), BuildingBlock: UVAHIK_clean_linker_0, # of connection points: 2
#     Edge 75, Type (0, 0), BuildingBlock: UVAHIK_clean_linker_0, # of connection points: 2
#     Edge 76, Type (0, 0), BuildingBlock: UVAHIK_clean_linker_0, # of connection points: 2
#     Edge 77, Type (0, 0), BuildingBlock: UVAHIK_clean_linker_0, # of connection points: 2
#     Edge 78, Type (0, 0), BuildingBlock: UVAHIK_clean_linker_0, # of connection points: 2
#     Edge 79, Type (0, 0), BuildingBlock: UVAHIK_clean_linker_0, # of connection points: 2
#     Edge 80, Type (0, 0), BuildingBlock: UVAHIK_clean_linker_0, # of connection points: 2
#     Edge 81, Type (0, 0), BuildingBlock: UVAHIK_clean_linker_0, # of connection points: 2
#     Edge 82, Type (0, 0), BuildingBlock: UVAHIK_clean_linker_0, # of connection points: 2
#     Edge 83, Type (0, 0), BuildingBlock: UVAHIK_clean_linker_0, # of connection points: 2
# Relax obj value: 0.371
# Max RMSD: 0.198
# Mean RMSD: 0.198
data_MOF--net-fcj--node1-XOMCOT_clean_sbu_1--edge1-UVAHIK_clean_linker_0
_symmetry_space_group_name_H-M    P1
_symmetry_Int_Tables_number       1
_symmetry_cell_setting            triclinic
loop_
_symmetry_equiv_pos_as_xyz
'x, y, z'
_cell_length_a     63.479476
_cell_length_b     63.521966
_cell_length_c     63.530332
_cell_angle_alpha  89.946103
_cell_angle_beta   90.017924
_cell_angle_gamma 90.018006
loop_
_atom_site_label
_atom_site_type_symbol
_atom_site_fract_x
_atom_site_fract_y
_atom_site_fract_z
_atom_type_partial_charge
C0 C 0.09991 0.19775 0.41117 0.0
C1 C 0.08773 0.21303 0.42041 0.0
N2 N 0.08217 0.22708 0.40551 0.0
N3 N 0.10215 0.20211 0.39054 0.0
C4 C 0.09126 0.22015 0.38754 0.0
H5 H 0.10611 0.18388 0.41884 0.0
Co6 Co 0.11568 0.18408 0.37206 0.0
C7 C 0.12118 0.20686 0.33212 0.0
O8 O 0.1159 0.1895 0.32219 0.0
N9 N 0.13009 0.16516 0.35406 0.0
C10 C 0.14239 0.137 0.33718 0.0
C11 C 0.12559 0.14523 0.3481 0.0
C12 C 0.14984 0.16845 0.3467 0.0
N13 N 0.15772 0.15162 0.33644 0.0
O14 O 0.1418 0.18972 0.38588 0.0
H15 H 0.11156 0.13657 0.35207 0.0
H16 H 0.15841 0.18297 0.34916 0.0
O17 O 0.1213 0.20735 0.35227 0.0
C18 C 0.14798 0.17486 0.39782 0.0
O19 O 0.13576 0.1583 0.40011 0.0
N20 N 0.08931 0.17762 0.35978 0.0
C21 C 0.05195 0.16241 0.34231 0.0
C22 C 0.05916 0.18274 0.33752 0.0
C23 C 0.0776 0.19025 0.34684 0.0
C24 C 0.08109 0.15905 0.36666 0.0
C25 C 0.06267 0.15089 0.35782 0.0
H26 H 0.08244 0.20609 0.34323 0.0
H27 H 0.08941 0.15006 0.37851 0.0
H28 H 0.08963 0.22781 0.37243 0.0
H29 H 0.08246 0.21314 0.43661 0.0
H30 H 0.14355 0.12112 0.33113 0.0
H31 H 0.05113 0.19253 0.3261 0.0
H32 H 0.05714 0.13555 0.36279 0.0
C33 C 0.56163 0.33849 0.15445 0.0
C34 C 0.55121 0.32639 0.16907 0.0
N35 N 0.53083 0.33229 0.16933 0.0
N36 N 0.54785 0.35181 0.14533 0.0
C37 C 0.52938 0.34812 0.15519 0.0
H38 H 0.57798 0.33694 0.1499 0.0
Co39 Co 0.55438 0.36939 0.12277 0.0
C40 C 0.50773 0.36045 0.10809 0.0
O41 O 0.50209 0.34266 0.11697 0.0
N42 N 0.5609 0.38712 0.10016 0.0
C43 C 0.56082 0.40086 0.06807 0.0
C44 C 0.55444 0.38419 0.08016 0.0
C45 C 0.57144 0.4056 0.09977 0.0
N46 N 0.57154 0.41449 0.08037 0.0
O47 O 0.54701 0.39336 0.13922 0.0
H48 H 0.54525 0.37091 0.07475 0.0
H49 H 0.57862 0.41246 0.11356 0.0
O50 O 0.52607 0.36805 0.11122 0.0
C51 C 0.56217 0.39833 0.15137 0.0
O52 O 0.57885 0.38607 0.15174 0.0
N53 N 0.56328 0.34608 0.1071 0.0
C54 C 0.58025 0.31366 0.08314 0.0
C55 C 0.55985 0.31194 0.09136 0.0
C56 C 0.55162 0.32841 0.10339 0.0
C57 C 0.58361 0.34733 0.10031 0.0
C58 C 0.59229 0.33147 0.08795 0.0
H59 H 0.53613 0.32675 0.10998 0.0
H60 H 0.59307 0.36093 0.10426 0.0
H61 H 0.51499 0.3565 0.1517 0.0
H62 H 0.55781 0.31323 0.17767 0.0
H63 H 0.55715 0.40287 0.05158 0.0
H64 H 0.55026 0.29819 0.08822 0.0
H65 H 0.6083 0.33308 0.08227 0.0
C66 C 0.41062 0.81312 0.90569 0.0
C67 C 0.42526 0.80642 0.92012 0.0
N68 N 0.42449 0.78523 0.92115 0.0
N69 N 0.40071 0.79629 0.89745 0.0
C70 C 0.40897 0.77958 0.90769 0.0
H71 H 0.40805 0.8292 0.90069 0.0
Co72 Co 0.38234 0.79876 0.87477 0.0
C73 C 0.39426 0.75148 0.86304 0.0
O74 O 0.4121 0.74616 0.87208 0.0
N75 N 0.36383 0.80167 0.85198 0.0
C76 C 0.34994 0.79898 0.81998 0.0
C77 C 0.36734 0.79488 0.83216 0.0
C78 C 0.3443 0.81012 0.85136 0.0
N79 N 0.33539 0.80851 0.83211 0.0
O80 O 0.35942 0.78995 0.89233 0.0
H81 H 0.38162 0.78722 0.82692 0.0
H82 H 0.33654 0.817 0.86481 0.0
O83 O 0.38673 0.76993 0.86562 0.0
C84 C 0.35126 0.80515 0.90252 0.0
O85 O 0.35967 0.82397 0.90055 0.0
N86 N 0.40464 0.80867 0.85803 0.0
C87 C 0.43689 0.8272 0.83448 0.0
C88 C 0.4389 0.80656 0.84219 0.0
C89 C 0.42267 0.79766 0.8541 0.0
C90 C 0.40256 0.82886 0.8511 0.0
C91 C 0.41842 0.83839 0.83921 0.0
H92 H 0.42486 0.78212 0.8605 0.0
H93 H 0.38851 0.83768 0.85498 0.0
H94 H 0.40428 0.76354 0.90485 0.0
H95 H 0.4362 0.8164 0.92854 0.0
H96 H 0.34826 0.79533 0.80343 0.0
H97 H 0.45285 0.79729 0.839 0.0
H98 H 0.41634 0.85452 0.83411 0.0
C99 C 0.94 0.66704 0.65471 0.0
C100 C 0.95092 0.67922 0.66885 0.0
N101 N 0.97108 0.67264 0.66924 0.0
N102 N 0.95319 0.65293 0.64592 0.0
C103 C 0.97182 0.6562 0.65572 0.0
H104 H 0.92371 0.66911 0.6502 0.0
Co105 Co 0.94492 0.63563 0.62351 0.0
C106 C 0.99165 0.64163 0.60814 0.0
O107 O 0.99858 0.65794 0.61873 0.0
N108 N 0.93642 0.61837 0.60107 0.0
C109 C 0.93315 0.60657 0.56832 0.0
C110 C 0.94002 0.62287 0.5806 0.0
C111 C 0.92742 0.59902 0.60079 0.0
N112 N 0.92524 0.59152 0.58098 0.0
O113 O 0.95163 0.61119 0.63969 0.0
H114 H 0.94785 0.63689 0.57491 0.0
H115 H 0.92283 0.59046 0.61478 0.0
O116 O 0.97282 0.63507 0.61072 0.0
C117 C 0.93749 0.60656 0.65313 0.0
O118 O 0.92127 0.61926 0.65513 0.0
N119 N 0.9369 0.65966 0.60811 0.0
C120 C 0.92161 0.69302 0.58406 0.0
C121 C 0.94299 0.69188 0.58937 0.0
C122 C 0.95027 0.67523 0.60173 0.0
C123 C 0.91588 0.66103 0.60391 0.0
C124 C 0.90787 0.67759 0.59184 0.0
H125 H 0.96657 0.67504 0.60614 0.0
H126 H 0.90535 0.64891 0.60961 0.0
H127 H 0.98583 0.64703 0.65274 0.0
H128 H 0.94486 0.69295 0.67691 0.0
H129 H 0.9347 0.60551 0.55139 0.0
H130 H 0.95397 0.70384 0.58412 0.0
H131 H 0.89122 0.678 0.58816 0.0
C132 C 0.58649 0.30931 0.59871 0.0
C133 C 0.57355 0.29976 0.58419 0.0
N134 N 0.57934 0.27943 0.58246 0.0
N135 N 0.60021 0.29502 0.60631 0.0
C136 C 0.59591 0.27716 0.59564 0.0
H137 H 0.58533 0.3254 0.60415 0.0
Co138 Co 0.61944 0.30005 0.62793 0.0
C139 C 0.60889 0.25347 0.6413 0.0
O140 O 0.59066 0.24911 0.63259 0.0
N141 N 0.63888 0.30499 0.64956 0.0
C142 C 0.65547 0.30165 0.68022 0.0
C143 C 0.63718 0.29757 0.66944 0.0
C144 C 0.65815 0.31405 0.6488 0.0
N145 N 0.66852 0.31202 0.66721 0.0
O146 O 0.64201 0.29211 0.60981 0.0
H147 H 0.62377 0.28898 0.67551 0.0
H148 H 0.66489 0.32112 0.63485 0.0
O149 O 0.61738 0.27151 0.63873 0.0
C150 C 0.64695 0.30736 0.59776 0.0
O151 O 0.63534 0.32448 0.59842 0.0
N152 N 0.59754 0.30953 0.64533 0.0
C153 C 0.56671 0.32778 0.67057 0.0
C154 C 0.5638 0.30757 0.66225 0.0
C155 C 0.57947 0.29868 0.64961 0.0
C156 C 0.60011 0.32959 0.65251 0.0
C157 C 0.58507 0.33888 0.66547 0.0
H158 H 0.5768 0.28341 0.64288 0.0
H159 H 0.61403 0.33842 0.6482 0.0
H160 H 0.60444 0.2626 0.59782 0.0
H161 H 0.56003 0.30687 0.57663 0.0
H162 H 0.65913 0.29699 0.69621 0.0
H163 H 0.54964 0.29866 0.66563 0.0
H164 H 0.58764 0.35473 0.67121 0.0
C165 C 0.43895 0.83566 0.34809 0.0
C166 C 0.44958 0.82333 0.33384 0.0
N167 N 0.46979 0.82975 0.33318 0.0
N168 N 0.45243 0.84963 0.35668 0.0
C169 C 0.47089 0.84618 0.34668 0.0
H170 H 0.42267 0.83384 0.35276 0.0
Co171 Co 0.44504 0.86787 0.37861 0.0
C172 C 0.49069 0.85804 0.39442 0.0
O173 O 0.49564 0.84084 0.38413 0.0
N174 N 0.43754 0.88632 0.40035 0.0
C175 C 0.43412 0.89998 0.43236 0.0
C176 C 0.44181 0.88334 0.42099 0.0
C177 C 0.4275 0.90508 0.39955 0.0
N178 N 0.4252 0.91365 0.41886 0.0
O179 O 0.45339 0.89141 0.36191 0.0
H180 H 0.45001 0.86984 0.42738 0.0
H181 H 0.4218 0.91226 0.38519 0.0
O182 O 0.47278 0.86676 0.39174 0.0
C183 C 0.4398 0.89598 0.34789 0.0
O184 O 0.42322 0.88374 0.34584 0.0
N185 N 0.43537 0.84478 0.39468 0.0
C186 C 0.41893 0.81249 0.41942 0.0
C187 C 0.43902 0.81066 0.41055 0.0
C188 C 0.44695 0.82702 0.3982 0.0
C189 C 0.4152 0.84611 0.40203 0.0
C190 C 0.40684 0.83035 0.41488 0.0
H191 H 0.46218 0.82512 0.39116 0.0
H192 H 0.40568 0.85973 0.39829 0.0
H193 H 0.48505 0.85516 0.34961 0.0
H194 H 0.44326 0.8097 0.32581 0.0
H195 H 0.43529 0.90208 0.44923 0.0
H196 H 0.44864 0.79688 0.41345 0.0
H197 H 0.39106 0.83206 0.42112 0.0
C198 C 0.90355 0.70162 0.08256 0.0
C199 C 0.9159 0.71656 0.073 0.0
N200 N 0.92091 0.73128 0.08739 0.0
N201 N 0.90065 0.70684 0.1029 0.0
C202 C 0.91126 0.72514 0.10536 0.0
H203 H 0.89779 0.68731 0.07539 0.0
Co204 Co 0.88685 0.68885 0.12133 0.0
C205 C 0.88329 0.71049 0.16189 0.0
O206 O 0.88893 0.6926 0.17066 0.0
N207 N 0.87201 0.66987 0.13902 0.0
C208 C 0.85811 0.64126 0.15381 0.0
C209 C 0.87494 0.64912 0.14269 0.0
C210 C 0.85298 0.674 0.14777 0.0
N211 N 0.84419 0.65693 0.15698 0.0
O212 O 0.86063 0.69557 0.10803 0.0
H213 H 0.88768 0.63966 0.13679 0.0
H214 H 0.84554 0.68929 0.14691 0.0
O215 O 0.88206 0.71183 0.14179 0.0
C216 C 0.85359 0.68184 0.09525 0.0
O217 O 0.86497 0.66495 0.09165 0.0
N218 N 0.9134 0.68164 0.13341 0.0
C219 C 0.95104 0.66759 0.15161 0.0
C220 C 0.94431 0.68845 0.15419 0.0
C221 C 0.92569 0.69523 0.14474 0.0
C222 C 0.92127 0.66237 0.12823 0.0
C223 C 0.93968 0.65471 0.13767 0.0
H224 H 0.92118 0.7114 0.14699 0.0
H225 H 0.913 0.65267 0.11696 0.0
H226 H 0.9124 0.73353 0.12011 0.0
H227 H 0.92181 0.71594 0.05702 0.0
H228 H 0.85591 0.62496 0.15821 0.0
H229 H 0.95322 0.6995 0.16362 0.0
H230 H 0.94453 0.6387 0.13446 0.0
C231 C 0.05905 0.15174 0.83855 0.0
C232 C 0.04552 0.16425 0.82724 0.0
N233 N 0.02977 0.17039 0.84006 0.0
N234 N 0.05192 0.14988 0.85843 0.0
C235 C 0.03385 0.16113 0.8588 0.0
H236 H 0.07375 0.14528 0.83292 0.0
Co237 Co 0.06784 0.13735 0.87948 0.0
C238 C 0.0405 0.13264 0.91641 0.0
O239 O 0.05596 0.13989 0.92811 0.0
N240 N 0.08465 0.12397 0.90018 0.0
C241 C 0.11065 0.11293 0.92098 0.0
C242 C 0.10349 0.1292 0.90861 0.0
C243 C 0.0809 0.10434 0.90765 0.0
N244 N 0.09645 0.09721 0.92026 0.0
O245 O 0.06433 0.1107 0.86597 0.0
H246 H 0.11228 0.14334 0.90541 0.0
H247 H 0.06709 0.09526 0.90349 0.0
O248 O 0.04259 0.13145 0.8964 0.0
C249 C 0.07991 0.10403 0.85528 0.0
O250 O 0.09684 0.11587 0.85391 0.0
N251 N 0.07219 0.16429 0.89156 0.0
C252 C 0.08346 0.20359 0.908 0.0
C253 C 0.06288 0.19582 0.91024 0.0
C254 C 0.0575 0.17631 0.90172 0.0
C255 C 0.09138 0.17274 0.88699 0.0
C256 C 0.09762 0.19201 0.89557 0.0
H257 H 0.04148 0.17105 0.90348 0.0
H258 H 0.10224 0.16405 0.87717 0.0
H259 H 0.02455 0.16361 0.87282 0.0
H260 H 0.04764 0.16915 0.81106 0.0
H261 H 0.12572 0.11234 0.92893 0.0
H262 H 0.05094 0.20468 0.91857 0.0
H263 H 0.11358 0.19736 0.89292 0.0
C264 C 0.41901 0.10906 0.20405 0.0
C265 C 0.4294 0.096 0.21776 0.0
N266 N 0.41498 0.08604 0.22973 0.0
N267 N 0.39811 0.10754 0.20735 0.0
C268 C 0.39609 0.09351 0.22324 0.0
H269 H 0.4262 0.11854 0.19187 0.0
Co270 Co 0.37902 0.12075 0.18967 0.0
C271 C 0.33891 0.12655 0.2123 0.0
O272 O 0.32877 0.12256 0.19473 0.0
N273 N 0.36054 0.13481 0.17082 0.0
C274 C 0.34123 0.14464 0.14328 0.0
C275 C 0.3534 0.12888 0.15169 0.0
C276 C 0.35269 0.1545 0.17338 0.0
N277 N 0.34081 0.16086 0.15691 0.0
O278 O 0.39177 0.1472 0.19643 0.0
H279 H 0.35678 0.11424 0.14389 0.0
H280 H 0.35581 0.16402 0.18713 0.0
O281 O 0.35903 0.12513 0.2131 0.0
C282 C 0.40213 0.15698 0.18234 0.0
O283 O 0.40371 0.14877 0.16343 0.0
N284 N 0.36765 0.09414 0.18259 0.0
C285 C 0.35178 0.0563 0.16693 0.0
C286 C 0.34536 0.06388 0.18662 0.0
C287 C 0.35374 0.08264 0.19433 0.0
C288 C 0.37585 0.08576 0.16462 0.0
C289 C 0.36777 0.06711 0.15619 0.0
H290 H 0.34883 0.0877 0.20972 0.0
H291 H 0.38797 0.09427 0.15618 0.0
H292 H 0.38111 0.08805 0.22919 0.0
H293 H 0.44627 0.09364 0.21845 0.0
H294 H 0.33323 0.14399 0.12826 0.0
H295 H 0.3334 0.05581 0.19572 0.0
H296 H 0.3737 0.06143 0.14126 0.0
C297 C 0.66414 0.65715 0.94127 0.0
C298 C 0.67663 0.67047 0.95279 0.0
N299 N 0.67026 0.66988 0.97303 0.0
N300 N 0.65009 0.6478 0.95412 0.0
C301 C 0.65361 0.65654 0.97319 0.0
H302 H 0.66591 0.65364 0.92472 0.0
Co303 Co 0.63207 0.62638 0.94494 0.0
C304 C 0.6418 0.60729 0.98949 0.0
O305 O 0.65854 0.61769 0.99572 0.0
N306 N 0.61407 0.6051 0.93542 0.0
C307 C 0.60128 0.57325 0.92878 0.0
C308 C 0.61809 0.58427 0.93665 0.0
C309 C 0.59462 0.60636 0.9268 0.0
N310 N 0.58648 0.58712 0.92259 0.0
O311 O 0.60826 0.64165 0.9553 0.0
H312 H 0.63223 0.57745 0.94328 0.0
H313 H 0.58655 0.62105 0.92375 0.0
O314 O 0.63348 0.61104 0.97154 0.0
C315 C 0.60339 0.65856 0.94571 0.0
O316 O 0.61531 0.66506 0.9301 0.0
N317 N 0.65534 0.61187 0.93364 0.0
C318 C 0.68876 0.59174 0.91341 0.0
C319 C 0.68908 0.59496 0.93525 0.0
C320 C 0.6723 0.60521 0.94503 0.0
C321 C 0.65501 0.60946 0.91232 0.0
C322 C 0.67147 0.59927 0.9019 0.0
H323 H 0.67325 0.60808 0.96162 0.0
H324 H 0.64182 0.61547 0.90336 0.0
H325 H 0.64448 0.65277 0.98704 0.0
H326 H 0.69036 0.67866 0.94688 0.0
H327 H 0.59981 0.55628 0.92832 0.0
H328 H 0.70211 0.58945 0.94479 0.0
H329 H 0.67075 0.59756 0.88495 0.0
C330 C 0.08581 0.90024 0.70088 0.0
C331 C 0.07531 0.91251 0.71524 0.0
N332 N 0.08894 0.91797 0.73057 0.0
N333 N 0.10597 0.89794 0.70704 0.0
C334 C 0.10735 0.90859 0.72539 0.0
H335 H 0.07943 0.89406 0.68635 0.0
Co336 Co 0.12564 0.88512 0.68982 0.0
C337 C 0.16505 0.88139 0.71366 0.0
O338 O 0.1749 0.88777 0.6966 0.0
N339 N 0.14489 0.87138 0.67156 0.0
C340 C 0.16376 0.86028 0.64416 0.0
C341 C 0.15135 0.87621 0.65184 0.0
C342 C 0.15339 0.85215 0.6752 0.0
N343 N 0.16497 0.84509 0.65886 0.0
O344 O 0.11245 0.85845 0.69545 0.0
H345 H 0.14679 0.8898 0.64284 0.0
H346 H 0.15085 0.84333 0.68956 0.0
O347 O 0.1449 0.88007 0.71373 0.0
C348 C 0.10281 0.84879 0.68077 0.0
O349 O 0.10219 0.8572 0.66188 0.0
N350 N 0.13744 0.91211 0.68396 0.0
C351 C 0.15621 0.94996 0.67135 0.0
C352 C 0.15788 0.94286 0.6922 0.0
C353 C 0.14824 0.92409 0.69822 0.0
C354 C 0.13276 0.92051 0.66476 0.0
C355 C 0.14257 0.939 0.6578 0.0
H356 H 0.15002 0.91916 0.71433 0.0
H357 H 0.12205 0.91228 0.65438 0.0
H358 H 0.12179 0.91044 0.73421 0.0
H359 H 0.05909 0.91759 0.71407 0.0
H360 H 0.17046 0.85949 0.62852 0.0
H361 H 0.16691 0.95149 0.7038 0.0
H362 H 0.14005 0.94407 0.64173 0.0
C363 C 0.85016 0.33688 0.44798 0.0
C364 C 0.83863 0.32637 0.46295 0.0
N365 N 0.83319 0.34019 0.47805 0.0
N366 N 0.85211 0.35722 0.4536 0.0
C367 C 0.84175 0.35877 0.47211 0.0
H368 H 0.85602 0.33029 0.43344 0.0
Co369 Co 0.86474 0.37684 0.43607 0.0
C370 C 0.86873 0.41644 0.4593 0.0
O371 O 0.86218 0.42566 0.44196 0.0
N372 N 0.8784 0.39602 0.41755 0.0
C373 C 0.88946 0.41567 0.39069 0.0
C374 C 0.87312 0.40376 0.39844 0.0
C375 C 0.89815 0.40342 0.42083 0.0
N376 N 0.90533 0.41536 0.40476 0.0
O377 O 0.89138 0.36344 0.44078 0.0
H378 H 0.8587 0.40078 0.39006 0.0
H379 H 0.90731 0.39954 0.43464 0.0
O380 O 0.87018 0.39629 0.45992 0.0
C381 C 0.89744 0.35212 0.42539 0.0
O382 O 0.88502 0.35044 0.40891 0.0
N383 N 0.83777 0.38855 0.43053 0.0
C384 C 0.79911 0.40541 0.41772 0.0
C385 C 0.8064 0.40818 0.4384 0.0
C386 C 0.82559 0.39941 0.44457 0.0
C387 C 0.82954 0.3832 0.41147 0.0
C388 C 0.81061 0.39199 0.40443 0.0
H389 H 0.83061 0.40174 0.46059 0.0
H390 H 0.83826 0.37277 0.40123 0.0
H391 H 0.84001 0.37327 0.48082 0.0
H392 H 0.83355 0.31012 0.4621 0.0
H393 H 0.88956 0.42372 0.37569 0.0
H394 H 0.79751 0.41725 0.44976 0.0
H395 H 0.80557 0.38884 0.38848 0.0
C396 C 0.9151 0.3992 0.8032 0.0
C397 C 0.92617 0.41159 0.78941 0.0
N398 N 0.91277 0.4188 0.77461 0.0
N399 N 0.89477 0.39833 0.79719 0.0
C400 C 0.89386 0.41022 0.77952 0.0
H401 H 0.92135 0.39201 0.8173 0.0
Co402 Co 0.8743 0.38564 0.81396 0.0
C403 C 0.83719 0.37807 0.78738 0.0
O404 O 0.82529 0.38453 0.80301 0.0
N405 N 0.85446 0.37224 0.83176 0.0
C406 C 0.83627 0.36152 0.85978 0.0
C407 C 0.84776 0.37773 0.8512 0.0
C408 C 0.84688 0.35246 0.82907 0.0
N409 N 0.83579 0.34561 0.84585 0.0
O410 O 0.88873 0.35934 0.81138 0.0
H411 H 0.85178 0.39197 0.85945 0.0
H412 H 0.85044 0.34279 0.81551 0.0
O413 O 0.85729 0.37825 0.78913 0.0
C414 C 0.89968 0.35369 0.82718 0.0
O415 O 0.90045 0.3661 0.8437 0.0
N416 N 0.86111 0.41227 0.81733 0.0
C417 C 0.84144 0.4502 0.82771 0.0
C418 C 0.83915 0.44148 0.80758 0.0
C419 C 0.84939 0.42273 0.80258 0.0
C420 C 0.86579 0.422 0.83586 0.0
C421 C 0.85571 0.44068 0.84166 0.0
H422 H 0.84753 0.41675 0.78686 0.0
H423 H 0.87679 0.4147 0.84663 0.0
H424 H 0.87949 0.41344 0.77105 0.0
H425 H 0.94271 0.41549 0.79066 0.0
H426 H 0.82939 0.3612 0.87536 0.0
H427 H 0.8293 0.44893 0.79582 0.0
H428 H 0.85848 0.44707 0.85721 0.0
C429 C 0.35197 0.16517 0.54939 0.0
C430 C 0.3396 0.17417 0.5341 0.0
N431 N 0.33416 0.1591 0.52021 0.0
N432 N 0.35436 0.14454 0.5452 0.0
C433 C 0.34347 0.14129 0.52723 0.0
H434 H 0.35835 0.17298 0.56311 0.0
Co435 Co 0.36864 0.12675 0.56317 0.0
C436 C 0.37171 0.0855 0.54243 0.0
O437 O 0.36745 0.07691 0.56078 0.0
N438 N 0.384 0.10952 0.58214 0.0
C439 C 0.39825 0.09506 0.61074 0.0
C440 C 0.38113 0.10571 0.60288 0.0
C441 C 0.40318 0.10116 0.57797 0.0
N442 N 0.41222 0.09229 0.59506 0.0
O443 O 0.39452 0.1397 0.5547 0.0
H444 H 0.36818 0.11119 0.61232 0.0
H445 H 0.41056 0.10206 0.56265 0.0
O446 O 0.37231 0.10559 0.54071 0.0
C447 C 0.40416 0.15101 0.56813 0.0
O448 O 0.39604 0.15337 0.587 0.0
N449 N 0.34241 0.11526 0.57188 0.0
C450 C 0.305 0.09913 0.5885 0.0
C451 C 0.31109 0.09435 0.56786 0.0
C452 C 0.32963 0.1029 0.55971 0.0
C453 C 0.33528 0.12219 0.59088 0.0
C454 C 0.31697 0.11382 0.59983 0.0
H455 H 0.33358 0.09927 0.54364 0.0
H456 H 0.34417 0.13394 0.59941 0.0
H457 H 0.34209 0.12613 0.51963 0.0
H458 H 0.33421 0.19033 0.53381 0.0
H459 H 0.40063 0.09071 0.62704 0.0
H460 H 0.302 0.08355 0.5583 0.0
H461 H 0.31231 0.11865 0.61549 0.0
C462 C 0.58868 0.6075 0.29435 0.0
C463 C 0.57925 0.59553 0.27905 0.0
N464 N 0.59439 0.58786 0.26636 0.0
N465 N 0.60968 0.60753 0.29135 0.0
C466 C 0.61273 0.59552 0.27406 0.0
H467 H 0.58081 0.61509 0.30739 0.0
Co468 Co 0.62755 0.62032 0.31048 0.0
C469 C 0.66839 0.6281 0.2898 0.0
O470 O 0.67774 0.62279 0.30748 0.0
N471 N 0.6446 0.63394 0.33077 0.0
C472 C 0.65931 0.64487 0.36068 0.0
C473 C 0.6487 0.62869 0.351 0.0
C474 C 0.6527 0.65358 0.32876 0.0
N475 N 0.66181 0.66049 0.34662 0.0
O476 O 0.61391 0.64673 0.30477 0.0
H477 H 0.64359 0.61456 0.35886 0.0
H478 H 0.65119 0.66299 0.31463 0.0
O479 O 0.64829 0.62684 0.28816 0.0
C480 C 0.60283 0.65542 0.31902 0.0
O481 O 0.60101 0.64618 0.33745 0.0
N482 N 0.63987 0.59372 0.31641 0.0
C483 C 0.65708 0.55527 0.3295 0.0
C484 C 0.6624 0.56403 0.30992 0.0
C485 C 0.65353 0.58311 0.30361 0.0
C486 C 0.63255 0.58418 0.33419 0.0
C487 C 0.64136 0.56531 0.34139 0.0
H488 H 0.65777 0.58907 0.28833 0.0
H489 H 0.62028 0.5917 0.34329 0.0
H490 H 0.62803 0.59203 0.26751 0.0
H491 H 0.56264 0.59177 0.2781 0.0
H492 H 0.6644 0.64528 0.37694 0.0
H493 H 0.67343 0.5563 0.29948 0.0
H494 H 0.63627 0.5591 0.35641 0.0
C495 C 0.16851 0.85081 0.06349 0.0
C496 C 0.18118 0.83619 0.05383 0.0
N497 N 0.17589 0.83531 0.03333 0.0
N498 N 0.1554 0.85938 0.04915 0.0
C499 C 0.15981 0.84911 0.03106 0.0
H500 H 0.16949 0.8557 0.07976 0.0
Co501 Co 0.13748 0.88185 0.05561 0.0
C502 C 0.14516 0.89605 0.00859 0.0
O503 O 0.16178 0.88565 0.00208 0.0
N504 N 0.11949 0.90436 0.06229 0.0
C505 C 0.10565 0.93653 0.06205 0.0
C506 C 0.12309 0.92472 0.05725 0.0
C507 C 0.0998 0.90428 0.07047 0.0
N508 N 0.09097 0.92364 0.07026 0.0
O509 O 0.1136 0.86497 0.04842 0.0
H510 H 0.13723 0.93051 0.04971 0.0
H511 H 0.09163 0.89023 0.07552 0.0
O512 O 0.13832 0.89353 0.02732 0.0
C513 C 0.10847 0.85276 0.06349 0.0
O514 O 0.12036 0.85261 0.08043 0.0
N515 N 0.16086 0.8978 0.06412 0.0
C516 C 0.19507 0.91981 0.08072 0.0
C517 C 0.19497 0.91341 0.05958 0.0
C518 C 0.17776 0.90227 0.05163 0.0
C519 C 0.16089 0.90341 0.08481 0.0
C520 C 0.17774 0.91459 0.0934 0.0
H521 H 0.17835 0.89682 0.03563 0.0
H522 H 0.14775 0.89906 0.09474 0.0
H523 H 0.15162 0.85178 0.01641 0.0
H524 H 0.19425 0.82794 0.06104 0.0
H525 H 0.10375 0.95323 0.05928 0.0
H526 H 0.20804 0.91701 0.04924 0.0
H527 H 0.17736 0.91875 0.10992 0.0
C528 C 0.20194 0.41877 0.10566 0.0
C529 C 0.21651 0.42843 0.09291 0.0
N530 N 0.22879 0.41346 0.08432 0.0
N531 N 0.20502 0.39779 0.10527 0.0
C532 C 0.22166 0.39503 0.09228 0.0
H533 H 0.18921 0.42651 0.11387 0.0
Co534 Co 0.18662 0.37888 0.11803 0.0
C535 C 0.20812 0.33817 0.12138 0.0
O536 O 0.19043 0.32922 0.11545 0.0
N537 N 0.16742 0.36042 0.13168 0.0
C538 C 0.13977 0.34175 0.14245 0.0
C539 C 0.14795 0.3537 0.12635 0.0
C540 C 0.17048 0.35242 0.15122 0.0
N541 N 0.15394 0.34101 0.15824 0.0
O542 O 0.19277 0.39128 0.14477 0.0
H543 H 0.13969 0.35738 0.112 0.0
H544 H 0.18459 0.35537 0.16027 0.0
O545 O 0.20948 0.35827 0.12246 0.0
C546 C 0.178 0.40292 0.1517 0.0
O547 O 0.16128 0.40581 0.13984 0.0
N548 N 0.17962 0.36815 0.09107 0.0
C549 C 0.16403 0.3541 0.05249 0.0
C550 C 0.18413 0.34811 0.05933 0.0
C551 C 0.19178 0.35556 0.07853 0.0
C552 C 0.16116 0.37603 0.08345 0.0
C553 C 0.15274 0.36876 0.06448 0.0
H554 H 0.2074 0.35087 0.08316 0.0
H555 H 0.15244 0.38735 0.0927 0.0
H556 H 0.22805 0.37983 0.08815 0.0
H557 H 0.21708 0.44505 0.08915 0.0
H558 H 0.12442 0.33436 0.14239 0.0
H559 H 0.1936 0.33718 0.0503 0.0
H560 H 0.13744 0.37433 0.05938 0.0
C561 C 0.69152 0.09655 0.91383 0.0
C562 C 0.70179 0.08228 0.92642 0.0
N563 N 0.72232 0.08229 0.92113 0.0
N564 N 0.70549 0.10577 0.90076 0.0
C565 C 0.72403 0.09627 0.90514 0.0
H566 H 0.675 0.10063 0.9147 0.0
Co567 Co 0.69783 0.12745 0.88231 0.0
C568 C 0.74308 0.1449 0.89225 0.0
O569 O 0.74877 0.13473 0.90932 0.0
N570 N 0.68993 0.14896 0.8638 0.0
C571 C 0.68622 0.18078 0.84981 0.0
C572 C 0.69378 0.16967 0.86669 0.0
C573 C 0.68008 0.14786 0.84497 0.0
N574 N 0.67762 0.16707 0.83612 0.0
O575 O 0.70691 0.11095 0.85892 0.0
H576 H 0.70178 0.17627 0.88019 0.0
H577 H 0.6748 0.13332 0.83787 0.0
O578 O 0.72516 0.14143 0.88382 0.0
C579 C 0.6938 0.09643 0.85453 0.0
O580 O 0.6772 0.094 0.86665 0.0
N581 N 0.68741 0.14311 0.90512 0.0
C582 C 0.66911 0.16645 0.93728 0.0
C583 C 0.68981 0.15914 0.93921 0.0
C584 C 0.6987 0.14744 0.92289 0.0
C585 C 0.66681 0.14903 0.90364 0.0
C586 C 0.65746 0.16113 0.91936 0.0
H587 H 0.71445 0.14156 0.92477 0.0
H588 H 0.65766 0.14463 0.88996 0.0
H589 H 0.73858 0.09964 0.89699 0.0
H590 H 0.69493 0.07359 0.93939 0.0
H591 H 0.68749 0.19762 0.84751 0.0
H592 H 0.69915 0.16274 0.95302 0.0
H593 H 0.64127 0.16621 0.91757 0.0
C594 C 0.66528 0.95187 0.6428 0.0
C595 C 0.67636 0.96514 0.65565 0.0
N596 N 0.66254 0.97655 0.66696 0.0
N597 N 0.64446 0.9549 0.64561 0.0
C598 C 0.64324 0.97023 0.66038 0.0
H599 H 0.67206 0.94007 0.6326 0.0
Co600 Co 0.62525 0.93708 0.63243 0.0
C601 C 0.58618 0.96058 0.62363 0.0
O602 O 0.57541 0.94355 0.62838 0.0
N603 N 0.60705 0.91801 0.61846 0.0
C604 C 0.59124 0.88879 0.6072 0.0
C605 C 0.60202 0.89795 0.62356 0.0
C606 C 0.59934 0.92043 0.5987 0.0
N607 N 0.5896 0.90298 0.59159 0.0
O608 O 0.63938 0.94211 0.60607 0.0
H609 H 0.60674 0.88978 0.63763 0.0
H610 H 0.6017 0.93446 0.5893 0.0
O611 O 0.60627 0.96085 0.62573 0.0
C612 C 0.64907 0.9275 0.59636 0.0
O613 O 0.64957 0.90849 0.60452 0.0
N614 N 0.61202 0.93182 0.65882 0.0
C615 C 0.59062 0.91854 0.69492 0.0
C616 C 0.58712 0.93862 0.68645 0.0
C617 C 0.59818 0.94508 0.66863 0.0
C618 C 0.61777 0.91356 0.66856 0.0
C619 C 0.60693 0.90633 0.68636 0.0
H620 H 0.59527 0.96072 0.66281 0.0
H621 H 0.63008 0.90396 0.66176 0.0
H622 H 0.62865 0.97587 0.667 0.0
H623 H 0.69334 0.96583 0.65698 0.0
H624 H 0.58558 0.87272 0.6066 0.0
H625 H 0.5756 0.94916 0.69329 0.0
H626 H 0.61065 0.89094 0.69268 0.0
C627 C 0.80956 0.90797 0.4112 0.0
C628 C 0.79864 0.9217 0.42383 0.0
N629 N 0.7782 0.92131 0.41811 0.0
N630 N 0.79609 0.89865 0.3977 0.0
C631 C 0.77726 0.9077 0.40176 0.0
H632 H 0.82612 0.90417 0.4125 0.0
Co633 Co 0.80377 0.87686 0.37943 0.0
C634 C 0.75932 0.85885 0.39143 0.0
O635 O 0.75413 0.86929 0.40847 0.0
N636 N 0.81142 0.85502 0.3612 0.0
C637 C 0.81283 0.82259 0.34825 0.0
C638 C 0.80866 0.83441 0.36574 0.0
C639 C 0.81754 0.85529 0.34078 0.0
N640 N 0.81827 0.83569 0.33253 0.0
O641 O 0.79282 0.89244 0.35604 0.0
H642 H 0.80299 0.82836 0.38061 0.0
H643 H 0.82024 0.86954 0.33182 0.0
O644 O 0.77688 0.86232 0.3823 0.0
C645 C 0.80311 0.90886 0.35087 0.0
O646 O 0.81956 0.91436 0.36215 0.0
N647 N 0.81575 0.86207 0.40223 0.0
C648 C 0.8364 0.84001 0.43426 0.0
C649 C 0.81475 0.84432 0.43555 0.0
C650 C 0.80483 0.85563 0.41956 0.0
C651 C 0.83692 0.85873 0.40097 0.0
C652 C 0.84756 0.84767 0.41676 0.0
H653 H 0.78847 0.85929 0.42136 0.0
H654 H 0.84557 0.86456 0.3875 0.0
H655 H 0.76298 0.90397 0.39328 0.0
H656 H 0.805 0.93008 0.43723 0.0
H657 H 0.81144 0.80565 0.347 0.0
H658 H 0.80537 0.83878 0.44866 0.0
H659 H 0.86438 0.84526 0.41527 0.0
C660 C 0.84569 0.06146 0.1555 0.0
C661 C 0.83109 0.05539 0.17031 0.0
N662 N 0.83083 0.03419 0.17114 0.0
N663 N 0.85474 0.04421 0.14712 0.0
C664 C 0.84502 0.02785 0.15663 0.0
H665 H 0.85035 0.07745 0.15192 0.0
Co666 Co 0.87836 0.04546 0.12978 0.0
C667 C 0.88884 0.99661 0.13829 0.0
O668 O 0.87787 0.98651 0.15263 0.0
N669 N 0.90211 0.04729 0.11245 0.0
C670 C 0.93448 0.04325 0.09964 0.0
C671 C 0.92154 0.03969 0.11665 0.0
C672 C 0.90386 0.05616 0.09318 0.0
N673 N 0.92327 0.05364 0.085 0.0
O674 O 0.8614 0.03782 0.10608 0.0
H675 H 0.92591 0.03164 0.13101 0.0
H676 H 0.89115 0.064 0.08502 0.0
O677 O 0.88493 0.01601 0.1347 0.0
C678 C 0.85214 0.05342 0.09755 0.0
O679 O 0.8546 0.07217 0.10596 0.0
N680 N 0.89444 0.05412 0.15279 0.0
C681 C 0.91676 0.07165 0.18629 0.0
C682 C 0.90928 0.05085 0.18735 0.0
C683 C 0.89801 0.04239 0.17044 0.0
C684 C 0.90128 0.0744 0.15157 0.0
C685 C 0.91257 0.08345 0.16807 0.0
H686 H 0.89185 0.0266 0.17174 0.0
H687 H 0.89773 0.08366 0.13771 0.0
H688 H 0.84906 0.01164 0.15397 0.0
H689 H 0.82207 0.0658 0.18032 0.0
H690 H 0.95082 0.03861 0.09813 0.0
H691 H 0.91215 0.04116 0.20109 0.0
H692 H 0.91758 0.09969 0.16672 0.0
C693 C 0.3076 0.59432 0.59081 0.0
C694 C 0.29594 0.58122 0.57814 0.0
N695 N 0.27549 0.58324 0.58342 0.0
N696 N 0.2946 0.60483 0.60388 0.0
C697 C 0.27522 0.59717 0.59951 0.0
H698 H 0.32442 0.59686 0.58986 0.0
Co699 Co 0.30379 0.62608 0.62212 0.0
C700 C 0.2607 0.64705 0.61012 0.0
O701 O 0.2553 0.6375 0.59263 0.0
N702 N 0.31306 0.64717 0.64043 0.0
C703 C 0.31917 0.67888 0.65375 0.0
C704 C 0.31129 0.66805 0.63686 0.0
C705 C 0.32198 0.64568 0.65971 0.0
N706 N 0.3259 0.66483 0.66815 0.0
O707 O 0.2922 0.61116 0.64559 0.0
H708 H 0.30445 0.67499 0.62289 0.0
H709 H 0.32548 0.63089 0.66741 0.0
O710 O 0.27782 0.64227 0.61954 0.0
C711 C 0.3016 0.59425 0.6508 0.0
O712 O 0.3175 0.58766 0.63934 0.0
N713 N 0.3164 0.64032 0.59925 0.0
C714 C 0.33706 0.66283 0.56776 0.0
C715 C 0.3161 0.65649 0.56509 0.0
C716 C 0.30606 0.64519 0.58105 0.0
C717 C 0.33727 0.64503 0.60138 0.0
C718 C 0.3478 0.65671 0.58602 0.0
H719 H 0.29013 0.64015 0.57856 0.0
H720 H 0.34567 0.6402 0.61539 0.0
H721 H 0.26107 0.60205 0.60761 0.0
H722 H 0.30191 0.5721 0.56506 0.0
H723 H 0.31935 0.69582 0.65555 0.0
H724 H 0.30741 0.66065 0.55101 0.0
H725 H 0.36416 0.66095 0.5884 0.0
C726 C 0.16329 0.55377 0.35298 0.0
C727 C 0.17346 0.5384 0.34166 0.0
N728 N 0.15956 0.52291 0.33748 0.0
N729 N 0.14309 0.54804 0.35594 0.0
C730 C 0.14132 0.52905 0.34658 0.0
H731 H 0.16992 0.56861 0.35805 0.0
Co732 Co 0.12362 0.56563 0.36844 0.0
C733 C 0.08374 0.54249 0.37106 0.0
O734 O 0.07424 0.55963 0.36441 0.0
N735 N 0.10447 0.58413 0.3819 0.0
C736 C 0.08633 0.61176 0.39359 0.0
C737 C 0.09856 0.6041 0.37747 0.0
C738 C 0.09575 0.58025 0.40097 0.0
N739 N 0.08469 0.59675 0.40844 0.0
O740 O 0.13625 0.55973 0.39526 0.0
H741 H 0.10346 0.61325 0.36409 0.0
H742 H 0.09791 0.56562 0.40943 0.0
O743 O 0.10382 0.54213 0.37304 0.0
C744 C 0.1463 0.5743 0.40466 0.0
O745 O 0.14767 0.59294 0.39577 0.0
N746 N 0.11245 0.57177 0.34129 0.0
C747 C 0.0959 0.58435 0.30241 0.0
C748 C 0.09337 0.56363 0.30963 0.0
C749 C 0.10204 0.55757 0.32887 0.0
C750 C 0.11761 0.59094 0.33315 0.0
C751 C 0.10896 0.59786 0.31409 0.0
H752 H 0.10001 0.54146 0.33371 0.0
H753 H 0.12805 0.60122 0.34182 0.0
H754 H 0.12684 0.52012 0.34595 0.0
H755 H 0.18949 0.53918 0.33591 0.0
H756 H 0.08014 0.62759 0.39476 0.0
H757 H 0.08462 0.55214 0.30058 0.0
H758 H 0.11203 0.61383 0.30897 0.0
C759 C 0.34949 0.43774 0.83796 0.0
C760 C 0.33495 0.44496 0.82371 0.0
N761 N 0.33325 0.46602 0.82586 0.0
N762 N 0.35711 0.45406 0.8491 0.0
C763 C 0.3464 0.47099 0.8419 0.0
H764 H 0.35484 0.42165 0.83958 0.0
Co765 Co 0.37923 0.4505 0.86813 0.0
C766 C 0.39122 0.4978 0.85759 0.0
O767 O 0.38216 0.5027 0.83966 0.0
N768 N 0.40132 0.44652 0.88722 0.0
C769 C 0.43328 0.44703 0.90147 0.0
C770 C 0.42134 0.45321 0.88457 0.0
C771 C 0.40147 0.43632 0.90591 0.0
N772 N 0.42076 0.43641 0.91489 0.0
O773 O 0.36099 0.45803 0.89086 0.0
H774 H 0.42696 0.46196 0.87107 0.0
H775 H 0.38785 0.42864 0.91266 0.0
O776 O 0.38896 0.47942 0.86544 0.0
C777 C 0.34963 0.44238 0.8962 0.0
O778 O 0.3515 0.42481 0.88545 0.0
N779 N 0.39664 0.44153 0.84602 0.0
C780 C 0.42198 0.42463 0.81456 0.0
C781 C 0.41261 0.44443 0.81192 0.0
C782 C 0.39995 0.45264 0.82792 0.0
C783 C 0.40482 0.42182 0.84834 0.0
C784 C 0.41789 0.41323 0.83297 0.0
H785 H 0.39247 0.46764 0.82553 0.0
H786 H 0.40129 0.41275 0.86232 0.0
H787 H 0.34858 0.48671 0.84789 0.0
H788 H 0.32681 0.43539 0.81223 0.0
H789 H 0.44985 0.45032 0.90384 0.0
H790 H 0.41523 0.45353 0.79773 0.0
H791 H 0.42453 0.39769 0.83533 0.0
C792 C 0.31616 0.18079 0.49335 0.0
C793 C 0.31922 0.16121 0.50325 0.0
C794 C 0.30017 0.18344 0.47846 0.0
C795 C 0.26259 0.15406 0.44454 0.0
H796 H 0.22745 0.20353 0.45149 0.0
C797 C 0.17674 0.15677 0.41744 0.0
C798 C 0.16916 0.17502 0.40749 0.0
C799 C 0.19684 0.15636 0.42623 0.0
C800 C 0.23731 0.18983 0.4491 0.0
H801 H 0.30816 0.12896 0.50484 0.0
H802 H 0.28029 0.13355 0.47901 0.0
H803 H 0.25989 0.20021 0.47183 0.0
H804 H 0.17676 0.20719 0.39892 0.0
H805 H 0.21203 0.20654 0.41472 0.0
H806 H 0.23956 0.14335 0.42238 0.0
C807 C 0.29044 0.14681 0.48248 0.0
C808 C 0.25592 0.18791 0.46073 0.0
C809 C 0.30645 0.14415 0.49733 0.0
C810 C 0.18215 0.19293 0.40656 0.0
C811 C 0.20229 0.19257 0.41559 0.0
C812 C 0.24397 0.15594 0.43301 0.0
C813 C 0.28687 0.16658 0.47313 0.0
C814 C 0.26852 0.16977 0.45894 0.0
C815 C 0.20984 0.17421 0.42543 0.0
C816 C 0.23088 0.1736 0.43555 0.0
H817 H 0.32597 0.19414 0.49732 0.0
H818 H 0.29807 0.19878 0.47129 0.0
H819 H 0.27216 0.1401 0.44247 0.0
H820 H 0.16718 0.14268 0.41839 0.0
H821 H 0.20207 0.1421 0.434 0.0
C822 C 0.54705 0.43403 0.15978 0.0
C823 C 0.56287 0.41877 0.16247 0.0
C824 C 0.54924 0.45404 0.16885 0.0
C825 C 0.59024 0.49039 0.18758 0.0
H826 H 0.54619 0.51619 0.22095 0.0
C827 C 0.60691 0.5566 0.24692 0.0
C828 C 0.5915 0.57208 0.25034 0.0
C829 C 0.60292 0.53972 0.23341 0.0
C830 C 0.55853 0.50942 0.21135 0.0
H831 H 0.593 0.41233 0.17737 0.0
H832 H 0.59671 0.44694 0.193 0.0
H833 H 0.53929 0.48298 0.20284 0.0
H834 H 0.56035 0.58269 0.24129 0.0
H835 H 0.55345 0.55335 0.21749 0.0
H836 H 0.60959 0.51657 0.19616 0.0
C837 C 0.58279 0.44363 0.18369 0.0
C838 C 0.55456 0.49037 0.20102 0.0
C839 C 0.58056 0.42372 0.17483 0.0
C840 C 0.57239 0.57082 0.23921 0.0
C841 C 0.56842 0.55398 0.22563 0.0
C842 C 0.59417 0.50944 0.19777 0.0
C843 C 0.56736 0.45912 0.18054 0.0
C844 C 0.57056 0.48043 0.18948 0.0
C845 C 0.58346 0.53799 0.22291 0.0
C846 C 0.57854 0.51896 0.21018 0.0
H847 H 0.53327 0.4307 0.15029 0.0
H848 H 0.53708 0.46572 0.16622 0.0
H849 H 0.60275 0.48325 0.17845 0.0
H850 H 0.62166 0.55695 0.25547 0.0
H851 H 0.61477 0.52755 0.23193 0.0
C852 C 0.32506 0.78383 0.92337 0.0
C853 C 0.33099 0.80285 0.91373 0.0
C854 C 0.30604 0.78246 0.93457 0.0
C855 C 0.25368 0.80618 0.93939 0.0
H856 H 0.25698 0.79401 0.99906 0.0
C857 C 0.19148 0.83609 0.99771 0.0
C858 C 0.18831 0.82565 0.01695 0.0
C859 C 0.20652 0.82885 0.98338 0.0
C860 C 0.25551 0.79693 0.98234 0.0
H861 H 0.32136 0.83501 0.90746 0.0
H862 H 0.28811 0.83242 0.9264 0.0
H863 H 0.2879 0.78891 0.97692 0.0
H864 H 0.19725 0.7985 0.03549 0.0
H865 H 0.22297 0.7853 0.01015 0.0
H866 H 0.22143 0.81427 0.94458 0.0
C867 C 0.2982 0.81869 0.92559 0.0
C868 C 0.27332 0.79406 0.96968 0.0
C869 C 0.31732 0.8202 0.91491 0.0
C870 C 0.19955 0.807 0.0209 0.0
C871 C 0.21441 0.79956 0.00641 0.0
C872 C 0.23577 0.80871 0.95194 0.0
C873 C 0.29244 0.79992 0.93571 0.0
C874 C 0.27275 0.79929 0.94824 0.0
C875 C 0.21861 0.81077 0.98774 0.0
C876 C 0.2366 0.80483 0.97375 0.0
H877 H 0.33533 0.77023 0.92267 0.0
H878 H 0.30192 0.76783 0.9423 0.0
H879 H 0.2528 0.81015 0.92282 0.0
H880 H 0.1833 0.85061 0.99428 0.0
H881 H 0.2094 0.83819 0.96941 0.0
C882 C 0.90423 0.43727 0.74121 0.0
C883 C 0.91711 0.43487 0.75908 0.0
C884 C 0.90771 0.45381 0.72702 0.0
C885 C 0.94706 0.49461 0.7114 0.0
H886 H 0.8977 0.52578 0.69361 0.0
C887 C 0.95128 0.56982 0.65885 0.0
C888 C 0.93758 0.58624 0.66456 0.0
C889 C 0.94967 0.55005 0.66856 0.0
C890 C 0.91166 0.51729 0.69848 0.0
H891 H 0.94386 0.44814 0.7758 0.0
H892 H 0.9498 0.47668 0.75129 0.0
H893 H 0.89338 0.49321 0.71331 0.0
H894 H 0.91201 0.59501 0.68544 0.0
H895 H 0.90949 0.5609 0.7025 0.0
H896 H 0.96532 0.51924 0.69727 0.0
C897 C 0.93727 0.4656 0.74795 0.0
C898 C 0.90918 0.49843 0.70954 0.0
C899 C 0.93382 0.44913 0.76208 0.0
C900 C 0.9227 0.58267 0.68053 0.0
C901 C 0.92112 0.56302 0.69021 0.0
C902 C 0.94955 0.51351 0.70033 0.0
C903 C 0.92413 0.46833 0.73037 0.0
C904 C 0.92684 0.48706 0.71651 0.0
C905 C 0.93432 0.54635 0.68414 0.0
C906 C 0.93187 0.52531 0.69415 0.0
H907 H 0.89141 0.42645 0.73824 0.0
H908 H 0.89744 0.45531 0.71349 0.0
H909 H 0.96101 0.48609 0.71627 0.0
H910 H 0.96282 0.57206 0.6465 0.0
H911 H 0.96004 0.53751 0.66349 0.0
C912 C 0.81631 0.31626 0.50365 0.0
C913 C 0.81825 0.33641 0.49469 0.0
C914 C 0.80002 0.31176 0.51776 0.0
C915 C 0.75844 0.33684 0.55066 0.0
H916 H 0.72852 0.28438 0.54131 0.0
C917 C 0.67258 0.32591 0.57463 0.0
C918 C 0.66706 0.30772 0.58598 0.0
C919 C 0.69236 0.32777 0.56538 0.0
C920 C 0.7369 0.29893 0.54431 0.0
H921 H 0.80494 0.36781 0.49398 0.0
H922 H 0.77646 0.36002 0.51835 0.0
H923 H 0.76139 0.29122 0.52252 0.0
H924 H 0.67778 0.27683 0.59583 0.0
H925 H 0.71253 0.27996 0.57906 0.0
H926 H 0.73344 0.34487 0.57176 0.0
C927 C 0.78771 0.34771 0.51483 0.0
C928 C 0.75577 0.30286 0.53361 0.0
C929 C 0.80408 0.35222 0.50083 0.0
C930 C 0.68156 0.29102 0.58715 0.0
C931 C 0.70142 0.29282 0.57763 0.0
C932 C 0.73953 0.33298 0.56118 0.0
C933 C 0.78523 0.32731 0.52316 0.0
C934 C 0.76653 0.32208 0.53631 0.0
C935 C 0.70712 0.31142 0.56704 0.0
C936 C 0.72834 0.3142 0.55775 0.0
H937 H 0.82719 0.30385 0.49942 0.0
H938 H 0.79884 0.29601 0.52418 0.0
H939 H 0.76653 0.35158 0.5535 0.0
H940 H 0.66179 0.33905 0.57328 0.0
H941 H 0.69618 0.34211 0.55695 0.0
C942 C 0.43674 0.0561 0.24177 0.0
C943 C 0.41893 0.06903 0.24427 0.0
C944 C 0.44018 0.03899 0.25513 0.0
C945 C 0.41154 0.00242 0.28968 0.0
H946 H 0.46784 0.98472 0.30559 0.0
C947 C 0.42731 0.91875 0.31858 0.0
C948 C 0.4407 0.91593 0.33594 0.0
C949 C 0.42584 0.93825 0.30862 0.0
C950 C 0.45201 0.98956 0.30147 0.0
H951 H 0.39111 0.07443 0.26323 0.0
H952 H 0.39716 0.04455 0.28674 0.0
H953 H 0.46283 0.01822 0.28734 0.0
H954 H 0.46364 0.93117 0.3561 0.0
H955 H 0.46102 0.96551 0.33865 0.0
H956 H 0.40068 0.97393 0.30391 0.0
C957 C 0.40831 0.04752 0.27419 0.0
C958 C 0.44914 0.00865 0.29083 0.0
C959 C 0.40482 0.06463 0.26074 0.0
C960 C 0.45327 0.93286 0.34266 0.0
C961 C 0.45174 0.95251 0.3327 0.0
C962 C 0.41441 0.9834 0.30032 0.0
C963 C 0.42593 0.03435 0.2714 0.0
C964 C 0.42889 0.01514 0.28449 0.0
C965 C 0.43764 0.9555 0.31585 0.0
C966 C 0.4347 0.97653 0.30596 0.0
H967 H 0.44774 0.05872 0.22904 0.0
H968 H 0.45367 0.02898 0.25221 0.0
H969 H 0.39575 0.00679 0.28492 0.0
H970 H 0.41757 0.90595 0.31288 0.0
H971 H 0.41526 0.93985 0.29534 0.0
C972 C 0.81875 0.7004 0.09108 0.0
C973 C 0.83241 0.68384 0.08566 0.0
C974 C 0.79843 0.70144 0.08245 0.0
C975 C 0.75829 0.66784 0.05663 0.0
H976 H 0.73621 0.72014 0.0342 0.0
C977 C 0.68111 0.66722 0.01048 0.0
C978 C 0.68227 0.67745 0.99085 0.0
C979 C 0.6961 0.67124 0.02611 0.0
C980 C 0.74212 0.70541 0.04045 0.0
H981 H 0.83556 0.65562 0.06668 0.0
H982 H 0.80052 0.65758 0.05158 0.0
H983 H 0.76979 0.72013 0.05305 0.0
H984 H 0.69858 0.70195 0.97349 0.0
H985 H 0.725 0.70841 0.00032 0.0
H986 H 0.73143 0.65284 0.04316 0.0
C987 C 0.80523 0.66956 0.06276 0.0
C988 C 0.76128 0.70545 0.05141 0.0
C989 C 0.82543 0.66853 0.07131 0.0
C990 C 0.69753 0.6933 0.98813 0.0
C991 C 0.71259 0.69722 0.0037 0.0
C992 C 0.73924 0.66778 0.04567 0.0
C993 C 0.79139 0.68589 0.06834 0.0
C994 C 0.76986 0.68654 0.0591 0.0
C995 C 0.71263 0.68556 0.02252 0.0
C996 C 0.73113 0.68647 0.03696 0.0
H997 H 0.82364 0.71239 0.10216 0.0
H998 H 0.78812 0.71419 0.0871 0.0
H999 H 0.76427 0.65306 0.0627 0.0
H1000 H 0.66949 0.65513 0.0134 0.0
H1001 H 0.6953 0.66237 0.04066 0.0
C1002 C 0.09768 0.9333 0.76535 0.0
C1003 C 0.0856 0.93348 0.7468 0.0
C1004 C 0.09557 0.9494 0.78023 0.0
C1005 C 0.06138 0.99476 0.79556 0.0
H1006 H 0.1134 0.01718 0.81831 0.0
C1007 C 0.06321 0.06867 0.84919 0.0
C1008 C 0.07951 0.08309 0.84513 0.0
C1009 C 0.06329 0.04877 0.83971 0.0
C1010 C 0.09871 0.01117 0.81204 0.0
H1011 H 0.0617 0.95075 0.72951 0.0
H1012 H 0.05823 0.97876 0.75512 0.0
H1013 H 0.11424 0.98527 0.79726 0.0
H1014 H 0.10857 0.08801 0.82784 0.0
H1015 H 0.10846 0.05372 0.81104 0.0
H1016 H 0.04604 0.02134 0.80943 0.0
C1017 C 0.06898 0.96597 0.75852 0.0
C1018 C 0.09916 0.99265 0.80021 0.0
C1019 C 0.071 0.94985 0.74376 0.0
C1020 C 0.09582 0.07724 0.83141 0.0
C1021 C 0.09585 0.05746 0.82189 0.0
C1022 C 0.06096 0.01337 0.80731 0.0
C1023 C 0.08143 0.96613 0.77682 0.0
C1024 C 0.08056 0.98444 0.79144 0.0
C1025 C 0.07964 0.04292 0.82594 0.0
C1026 C 0.07969 0.02205 0.81531 0.0
H1027 H 0.10887 0.92078 0.76828 0.0
H1028 H 0.10519 0.94885 0.7943 0.0
H1029 H 0.0467 0.9887 0.78935 0.0
H1030 H 0.05049 0.07267 0.85983 0.0
H1031 H 0.05065 0.03789 0.84333 0.0
C1032 C 0.41876 0.18281 0.20703 0.0
C1033 C 0.41152 0.17772 0.18676 0.0
C1034 C 0.42884 0.20206 0.2107 0.0
C1035 C 0.43466 0.25579 0.19163 0.0
H1036 H 0.49369 0.25163 0.20662 0.0
C1037 C 0.49451 0.31852 0.1677 0.0
C1038 C 0.51373 0.32046 0.17848 0.0
C1039 C 0.4795 0.30381 0.1741 0.0
C1040 C 0.47711 0.25334 0.20303 0.0
H1041 H 0.40817 0.18897 0.15472 0.0
H1042 H 0.42521 0.22283 0.16129 0.0
H1043 H 0.4715 0.22043 0.20808 0.0
H1044 H 0.53134 0.31 0.20572 0.0
H1045 H 0.50477 0.28481 0.21752 0.0
H1046 H 0.44005 0.2886 0.18651 0.0
C1047 C 0.42334 0.21186 0.17423 0.0
C1048 C 0.46444 0.23536 0.20377 0.0
C1049 C 0.41377 0.19246 0.17044 0.0
C1050 C 0.51683 0.30857 0.19688 0.0
C1051 C 0.50164 0.29405 0.20353 0.0
C1052 C 0.44719 0.27388 0.19131 0.0
C1053 C 0.43124 0.21669 0.19429 0.0
C1054 C 0.44334 0.23631 0.19736 0.0
C1055 C 0.48313 0.29086 0.19173 0.0
C1056 C 0.46882 0.27275 0.19617 0.0
H1057 H 0.41722 0.17165 0.21985 0.0
H1058 H 0.43491 0.20548 0.22626 0.0
H1059 H 0.41832 0.25688 0.18679 0.0
H1060 H 0.49158 0.32732 0.15345 0.0
H1061 H 0.46567 0.30176 0.16435 0.0
C1062 C 0.58287 0.69188 0.94688 0.0
C1063 C 0.58391 0.67015 0.95076 0.0
C1064 C 0.56399 0.70278 0.94953 0.0
C1065 C 0.50791 0.69612 0.9447 0.0
H1066 H 0.5055 0.75098 0.97128 0.0
C1067 C 0.43514 0.75034 0.93531 0.0
C1068 C 0.43989 0.77151 0.93081 0.0
C1069 C 0.45083 0.7366 0.94256 0.0
C1070 C 0.50589 0.73572 0.96371 0.0
H1071 H 0.56614 0.64275 0.96066 0.0
H1072 H 0.53271 0.66186 0.96474 0.0
H1073 H 0.53696 0.7293 0.97525 0.0
H1074 H 0.46501 0.79472 0.93066 0.0
H1075 H 0.49206 0.77104 0.94298 0.0
H1076 H 0.47744 0.70299 0.93203 0.0
C1077 C 0.54668 0.67043 0.95998 0.0
C1078 C 0.52387 0.72327 0.96611 0.0
C1079 C 0.56577 0.65956 0.95777 0.0
C1080 C 0.46054 0.77871 0.93434 0.0
C1081 C 0.47617 0.76502 0.94147 0.0
C1082 C 0.48999 0.70869 0.94206 0.0
C1083 C 0.54561 0.69212 0.95571 0.0
C1084 C 0.52529 0.70361 0.95616 0.0
C1085 C 0.47164 0.74372 0.94542 0.0
C1086 C 0.48903 0.72895 0.951 0.0
H1087 H 0.59662 0.70041 0.94146 0.0
H1088 H 0.56356 0.71945 0.94591 0.0
H1089 H 0.50868 0.68107 0.93672 0.0
H1090 H 0.41936 0.74432 0.93299 0.0
H1091 H 0.44671 0.72035 0.94568 0.0
C1092 C 0.09106 0.81361 0.6679 0.0
C1093 C 0.09299 0.82803 0.68453 0.0
C1094 C 0.08095 0.79431 0.67097 0.0
C1095 C 0.03868 0.77064 0.69981 0.0
H1096 H 0.06225 0.71747 0.68138 0.0
C1097 C 0.98604 0.69714 0.69555 0.0
C1098 C 0.98857 0.68459 0.67752 0.0
C1099 C 0.00133 0.71203 0.70111 0.0
C1100 C 0.0553 0.73217 0.68645 0.0
H1101 H 0.08615 0.83353 0.71748 0.0
H1102 H 0.06762 0.79994 0.72263 0.0
H1103 H 0.0842 0.74901 0.68151 0.0
H1104 H 0.00988 0.677 0.65205 0.0
H1105 H 0.03595 0.70319 0.66103 0.0
H1106 H 0.00942 0.7545 0.7033 0.0
C1107 C 0.07429 0.80353 0.70735 0.0
C1108 C 0.06798 0.75019 0.68666 0.0
C1109 C 0.08489 0.82266 0.70441 0.0
C1110 C 0.00739 0.6863 0.66603 0.0
C1111 C 0.02249 0.70141 0.67132 0.0
C1112 C 0.02586 0.75273 0.69918 0.0
C1113 C 0.07216 0.78923 0.6906 0.0
C1114 C 0.05967 0.76966 0.69298 0.0
C1115 C 0.01939 0.71499 0.68856 0.0
C1116 C 0.03384 0.7333 0.69204 0.0
H1117 H 0.0973 0.81728 0.65246 0.0
H1118 H 0.07937 0.78364 0.65777 0.0
H1119 H 0.03185 0.78553 0.70456 0.0
H1120 H 0.97184 0.69596 0.70491 0.0
H1121 H 0.99861 0.72168 0.71488 0.0
C1122 C 0.06434 0.25364 0.42768 0.0
C1123 C 0.06724 0.24402 0.40795 0.0
C1124 C 0.04836 0.26848 0.43068 0.0
C1125 C 0.01072 0.30306 0.40211 0.0
H1126 H 0.97621 0.29603 0.45201 0.0
C1127 C 0.92566 0.33252 0.40647 0.0
C1128 C 0.91848 0.3421 0.42506 0.0
C1129 C 0.94549 0.32317 0.40563 0.0
C1130 C 0.98589 0.29845 0.43818 0.0
H1131 H 0.05587 0.24291 0.37579 0.0
H1132 H 0.02804 0.26869 0.38098 0.0
H1133 H 0.00825 0.2752 0.44796 0.0
H1134 H 0.92656 0.3494 0.45741 0.0
H1135 H 0.9614 0.3327 0.45598 0.0
H1136 H 0.98798 0.32581 0.39204 0.0
C1137 C 0.0383 0.265 0.3941 0.0
C1138 C 0.00427 0.28652 0.43584 0.0
C1139 C 0.05429 0.25019 0.3911 0.0
C1140 C 0.93164 0.3421 0.44287 0.0
C1141 C 0.95153 0.33252 0.44206 0.0
C1142 C 0.99234 0.3149 0.40442 0.0
C1143 C 0.0349 0.27407 0.41402 0.0
C1144 C 0.01666 0.28836 0.41755 0.0
C1145 C 0.95867 0.32303 0.42337 0.0
C1146 C 0.97947 0.31238 0.42225 0.0
H1147 H 0.07427 0.2495 0.44089 0.0
H1148 H 0.04642 0.27543 0.44612 0.0
H1149 H 0.02013 0.30519 0.38804 0.0
H1150 H 0.91596 0.33223 0.39244 0.0
H1151 H 0.95036 0.31569 0.39111 0.0
C1152 C 0.01903 0.20281 0.82143 0.0
C1153 C 0.01446 0.18665 0.83588 0.0
C1154 C 0.00525 0.2197 0.81878 0.0
C1155 C 0.95108 0.23833 0.82689 0.0
H1156 H 0.97761 0.29326 0.83038 0.0
C1157 C 0.90789 0.31815 0.81185 0.0
C1158 C 0.91162 0.33371 0.82713 0.0
C1159 C 0.91941 0.29933 0.81208 0.0
C1160 C 0.96998 0.27803 0.82937 0.0
H1161 H 0.99131 0.17514 0.85815 0.0
H1162 H 0.9671 0.20484 0.85348 0.0
H1163 H 0.99926 0.26161 0.83196 0.0
H1164 H 0.93021 0.34171 0.85466 0.0
H1165 H 0.95039 0.30915 0.85483 0.0
H1166 H 0.92173 0.25498 0.82442 0.0
C1167 C 0.98143 0.20431 0.84425 0.0
C1168 C 0.98237 0.25993 0.83012 0.0
C1169 C 0.99535 0.18742 0.84705 0.0
C1170 C 0.92697 0.33007 0.84264 0.0
C1171 C 0.93861 0.31145 0.84271 0.0
C1172 C 0.93866 0.25654 0.82588 0.0
C1173 C 0.98649 0.22083 0.8304 0.0
C1174 C 0.97307 0.23989 0.82901 0.0
C1175 C 0.93502 0.29593 0.8274 0.0
C1176 C 0.94801 0.27655 0.82734 0.0
H1177 H 0.03368 0.20291 0.81274 0.0
H1178 H 0.00947 0.23211 0.80786 0.0
H1179 H 0.94353 0.22307 0.82591 0.0
H1180 H 0.89607 0.32048 0.79978 0.0
H1181 H 0.91641 0.28763 0.80005 0.0
C1182 C 0.42942 0.16804 0.54306 0.0
C1183 C 0.42485 0.1603 0.56327 0.0
C1184 C 0.44856 0.17833 0.53919 0.0
C1185 C 0.50274 0.18408 0.55683 0.0
H1186 H 0.49743 0.24381 0.54556 0.0
C1187 C 0.56575 0.24302 0.58234 0.0
C1188 C 0.56712 0.26291 0.57278 0.0
C1189 C 0.55091 0.22832 0.57554 0.0
C1190 C 0.49945 0.22708 0.54809 0.0
H1191 H 0.43691 0.15609 0.5949 0.0
H1192 H 0.47059 0.17339 0.58792 0.0
H1193 H 0.46646 0.22132 0.54365 0.0
H1194 H 0.55543 0.28218 0.54721 0.0
H1195 H 0.53004 0.25618 0.53465 0.0
H1196 H 0.53563 0.18959 0.56133 0.0
C1197 C 0.4593 0.17183 0.57522 0.0
C1198 C 0.4816 0.21423 0.54707 0.0
C1199 C 0.44002 0.16211 0.57924 0.0
C1200 C 0.55446 0.26711 0.55513 0.0
C1201 C 0.53982 0.25223 0.54805 0.0
C1202 C 0.52069 0.19681 0.55739 0.0
C1203 C 0.46358 0.18036 0.5553 0.0
C1204 C 0.48299 0.19281 0.55218 0.0
C1205 C 0.53726 0.23293 0.55869 0.0
C1206 C 0.51916 0.21867 0.5539 0.0
H1207 H 0.41791 0.16683 0.53053 0.0
H1208 H 0.45155 0.18489 0.52373 0.0
H1209 H 0.50415 0.16752 0.56068 0.0
H1210 H 0.57516 0.23923 0.59599 0.0
H1211 H 0.54937 0.21386 0.58443 0.0
C1212 C 0.58981 0.68993 0.33228 0.0
C1213 C 0.5927 0.676 0.31538 0.0
C1214 C 0.57947 0.7091 0.32927 0.0
C1215 C 0.53761 0.73257 0.30071 0.0
H1216 H 0.56102 0.78611 0.31834 0.0
C1217 C 0.48412 0.80526 0.30653 0.0
C1218 C 0.48709 0.81787 0.32445 0.0
C1219 C 0.49943 0.79061 0.30048 0.0
C1220 C 0.55411 0.7713 0.31351 0.0
H1221 H 0.58727 0.67116 0.28206 0.0
H1222 H 0.56824 0.70452 0.277 0.0
H1223 H 0.5833 0.75481 0.31787 0.0
H1224 H 0.50917 0.82587 0.34917 0.0
H1225 H 0.53523 0.80001 0.33941 0.0
H1226 H 0.50807 0.74831 0.29793 0.0
C1227 C 0.57441 0.70067 0.29243 0.0
C1228 C 0.56698 0.75344 0.31307 0.0
C1229 C 0.58528 0.68168 0.29532 0.0
C1230 C 0.50631 0.81647 0.33532 0.0
C1231 C 0.52141 0.80157 0.32956 0.0
C1232 C 0.52459 0.75031 0.3016 0.0
C1233 C 0.5714 0.71448 0.30942 0.0
C1234 C 0.55872 0.73387 0.30705 0.0
C1235 C 0.51794 0.78794 0.31244 0.0
C1236 C 0.53252 0.76986 0.3085 0.0
H1237 H 0.59551 0.68598 0.34787 0.0
H1238 H 0.57718 0.71944 0.34264 0.0
H1239 H 0.53086 0.71757 0.2962 0.0
H1240 H 0.46962 0.80625 0.29761 0.0
H1241 H 0.49639 0.78092 0.2868 0.0
C1242 C 0.94977 0.75336 0.10136 0.0
C1243 C 0.93633 0.74773 0.08472 0.0
C1244 C 0.96651 0.76727 0.098 0.0
C1245 C 0.00074 0.78711 0.05521 0.0
H1246 H 0.02066 0.82478 0.09886 0.0
C1247 C 0.07425 0.8419 0.04644 0.0
C1248 C 0.08818 0.84123 0.06365 0.0
C1249 C 0.0545 0.83203 0.04766 0.0
C1250 C 0.01528 0.8143 0.08652 0.0
H1251 H 0.92919 0.75319 0.05184 0.0
H1252 H 0.95817 0.77776 0.046 0.0
H1253 H 0.98767 0.80576 0.10382 0.0
H1254 H 0.09241 0.82933 0.09544 0.0
H1255 H 0.05823 0.81238 0.0975 0.0
H1256 H 0.02854 0.79568 0.03801 0.0
C1257 C 0.95613 0.77103 0.06153 0.0
C1258 C 0.99641 0.80335 0.08939 0.0
C1259 C 0.93946 0.75703 0.06488 0.0
C1260 C 0.08209 0.83025 0.08189 0.0
C1261 C 0.0624 0.82064 0.08316 0.0
C1262 C 0.01956 0.79821 0.05228 0.0
C1263 C 0.97015 0.77599 0.07794 0.0
C1264 C 0.98911 0.78926 0.07397 0.0
C1265 C 0.04829 0.82159 0.06619 0.0
C1266 C 0.02725 0.81155 0.06812 0.0
H1267 H 0.94799 0.74624 0.11674 0.0
H1268 H 0.97714 0.77045 0.11095 0.0
H1269 H 0.99576 0.77621 0.04309 0.0
H1270 H 0.07846 0.85027 0.03219 0.0
H1271 H 0.0439 0.83298 0.03432 0.0
C1272 C 0.14591 0.49773 0.31118 0.0
C1273 C 0.16273 0.50552 0.32326 0.0
C1274 C 0.14941 0.48265 0.29559 0.0
C1275 C 0.19126 0.46387 0.26038 0.0
H1276 H 0.14915 0.42226 0.24545 0.0
C1277 C 0.1969 0.41127 0.18553 0.0
C1278 C 0.17847 0.41165 0.17326 0.0
C1279 C 0.19686 0.41964 0.20594 0.0
C1280 C 0.16109 0.43376 0.24948 0.0
H1281 H 0.19621 0.50265 0.32927 0.0
H1282 H 0.20234 0.4762 0.30207 0.0
H1283 H 0.14557 0.44192 0.27821 0.0
H1284 H 0.14551 0.42076 0.17288 0.0
H1285 H 0.14546 0.43514 0.20825 0.0
H1286 H 0.20649 0.45596 0.23133 0.0
C1287 C 0.1865 0.48207 0.30441 0.0
C1288 C 0.15901 0.44506 0.2682 0.0
C1289 C 0.18299 0.4972 0.32 0.0
C1290 C 0.16001 0.42028 0.18186 0.0
C1291 C 0.15991 0.42835 0.20223 0.0
C1292 C 0.1934 0.45245 0.24168 0.0
C1293 C 0.16981 0.47493 0.29174 0.0
C1294 C 0.17372 0.46071 0.27356 0.0
C1295 C 0.1783 0.42818 0.21449 0.0
C1296 C 0.17797 0.43777 0.23575 0.0
H1297 H 0.13017 0.50399 0.31302 0.0
H1298 H 0.13623 0.47779 0.28592 0.0
H1299 H 0.20279 0.47593 0.26391 0.0
H1300 H 0.21135 0.40467 0.17932 0.0
H1301 H 0.21126 0.41931 0.21509 0.0
C1302 C 0.70495 0.09202 0.81687 0.0
C1303 C 0.69539 0.08387 0.83508 0.0
C1304 C 0.70361 0.08103 0.79778 0.0
C1305 C 0.69353 0.02835 0.77569 0.0
H1306 H 0.6736 0.05805 0.72615 0.0
C1307 C 0.6864 0.98711 0.6958 0.0
C1308 C 0.66761 0.99015 0.68445 0.0
C1309 C 0.69119 0.99958 0.71318 0.0
C1310 C 0.67913 0.04957 0.73988 0.0
H1311 H 0.6777 0.05764 0.84789 0.0
H1312 H 0.67575 0.03837 0.81488 0.0
H1313 H 0.68066 0.07761 0.75866 0.0
H1314 H 0.6393 0.00909 0.68233 0.0
H1315 H 0.64761 0.0309 0.71308 0.0
H1316 H 0.69163 0.0003 0.75725 0.0
C1317 C 0.68418 0.05319 0.8152 0.0
C1318 C 0.6834 0.06078 0.75838 0.0
C1319 C 0.68524 0.06426 0.8341 0.0
C1320 C 0.65382 0.00625 0.69081 0.0
C1321 C 0.65868 0.01886 0.70827 0.0
C1322 C 0.68942 0.01721 0.75723 0.0
C1323 C 0.69303 0.06159 0.79676 0.0
C1324 C 0.6904 0.05021 0.77654 0.0
C1325 C 0.67732 0.01545 0.71978 0.0
C1326 C 0.68202 0.02764 0.73916 0.0
H1327 H 0.71266 0.10723 0.81718 0.0
H1328 H 0.71067 0.08779 0.7838 0.0
H1329 H 0.699 0.0198 0.78941 0.0
H1330 H 0.69729 0.9747 0.69164 0.0
H1331 H 0.70576 0.99669 0.72158 0.0
C1332 C 0.66682 0.95166 0.57068 0.0
C1333 C 0.65906 0.93157 0.57578 0.0
C1334 C 0.6772 0.95508 0.55152 0.0
C1335 C 0.68278 0.93584 0.4978 0.0
H1336 H 0.74131 0.95278 0.5014 0.0
C1337 C 0.74212 0.91754 0.43224 0.0
C1338 C 0.76089 0.92914 0.43058 0.0
C1339 C 0.72727 0.92233 0.44772 0.0
C1340 C 0.72486 0.9486 0.49985 0.0
H1341 H 0.65524 0.89956 0.56461 0.0
H1342 H 0.67282 0.90571 0.53092 0.0
H1343 H 0.71956 0.95289 0.53291 0.0
H1344 H 0.7776 0.95642 0.44232 0.0
H1345 H 0.75126 0.9655 0.46873 0.0
H1346 H 0.68779 0.93167 0.46481 0.0
C1347 C 0.67112 0.9187 0.54183 0.0
C1348 C 0.71245 0.94855 0.51803 0.0
C1349 C 0.66122 0.91516 0.56114 0.0
C1350 C 0.76351 0.94689 0.44351 0.0
C1351 C 0.74845 0.95197 0.45877 0.0
C1352 C 0.69504 0.93631 0.47952 0.0
C1353 C 0.67944 0.9386 0.53697 0.0
C1354 C 0.6915 0.94159 0.51726 0.0
C1355 C 0.73054 0.9392 0.46172 0.0
C1356 C 0.71648 0.94203 0.48038 0.0
H1357 H 0.66537 0.96456 0.58172 0.0
H1358 H 0.68353 0.97054 0.5481 0.0
H1359 H 0.66656 0.9306 0.49682 0.0
H1360 H 0.73945 0.90385 0.42255 0.0
H1361 H 0.71388 0.91192 0.44944 0.0
C1362 C 0.81773 0.02903 0.20739 0.0
C1363 C 0.82099 0.02119 0.18698 0.0
C1364 C 0.81039 0.01589 0.22343 0.0
C1365 C 0.80791 0.95958 0.23818 0.0
H1366 H 0.77605 0.98187 0.28522 0.0
C1367 C 0.79008 0.91093 0.31363 0.0
C1368 C 0.79795 0.92095 0.33171 0.0
C1369 C 0.78814 0.92211 0.29468 0.0
C1370 C 0.78481 0.97539 0.27211 0.0
H1371 H 0.81813 0.9936 0.16719 0.0
H1372 H 0.80484 0.97066 0.1951 0.0
H1373 H 0.78094 0.00333 0.25373 0.0
H1374 H 0.8089 0.95057 0.34456 0.0
H1375 H 0.80488 0.97018 0.31178 0.0
H1376 H 0.81187 0.93169 0.25683 0.0
C1377 C 0.80844 0.98689 0.19885 0.0
C1378 C 0.78777 0.98771 0.25411 0.0
C1379 C 0.81599 1.00004 0.18281 0.0
C1380 C 0.80281 0.94248 0.33083 0.0
C1381 C 0.80042 0.95372 0.31211 0.0
C1382 C 0.80469 0.94714 0.25609 0.0
C1383 C 0.80589 0.99456 0.21948 0.0
C1384 C 0.79997 0.98026 0.23718 0.0
C1385 C 0.79352 0.94357 0.29373 0.0
C1386 C 0.79367 0.95519 0.27347 0.0
H1387 H 0.82179 0.04511 0.21129 0.0
H1388 H 0.8091 0.02234 0.23914 0.0
H1389 H 0.81758 0.95333 0.22562 0.0
H1390 H 0.7864 0.89427 0.31388 0.0
H1391 H 0.78279 0.91394 0.28071 0.0
C1392 C 0.83963 0.06903 0.06386 0.0
C1393 C 0.8411 0.05141 0.07717 0.0
C1394 C 0.82923 0.06766 0.04459 0.0
C1395 C 0.78631 0.04202 0.01848 0.0
H1396 H 0.81145 0.0644 0.96751 0.0
C1397 C 0.73589 0.05402 0.94415 0.0
C1398 C 0.73906 0.07311 0.93342 0.0
C1399 C 0.75052 0.04694 0.95904 0.0
C1400 C 0.80409 0.05822 0.98159 0.0
H1401 H 0.8329 0.01849 0.08071 0.0
H1402 H 0.81382 0.01632 0.04703 0.0
H1403 H 0.83283 0.06054 0.9992 0.0
H1404 H 0.76052 0.09925 0.92926 0.0
H1405 H 0.78566 0.08743 0.95547 0.0
H1406 H 0.75725 0.04102 0.00158 0.0
C1407 C 0.82109 0.03106 0.05155 0.0
C1408 C 0.81642 0.05587 0.99968 0.0
C1409 C 0.83198 0.0323 0.07074 0.0
C1410 C 0.75772 0.08438 0.93707 0.0
C1411 C 0.7722 0.0775 0.95216 0.0
C1412 C 0.77386 0.04471 0.00049 0.0
C1413 C 0.8197 0.04876 0.0383 0.0
C1414 C 0.80753 0.04818 0.01841 0.0
C1415 C 0.76854 0.05896 0.96379 0.0
C1416 C 0.78245 0.05334 0.98192 0.0
H1417 H 0.84665 0.08393 0.06829 0.0
H1418 H 0.82819 0.08159 0.03478 0.0
H1419 H 0.77904 0.03625 0.03279 0.0
H1420 H 0.72174 0.04489 0.94146 0.0
H1421 H 0.74737 0.03232 0.96723 0.0
C1422 C 0.31799 0.47382 0.79087 0.0
C1423 C 0.32284 0.48033 0.81148 0.0
C1424 C 0.30984 0.48795 0.77619 0.0
C1425 C 0.30869 0.54437 0.7636 0.0
H1426 H 0.27189 0.52481 0.71894 0.0
C1427 C 0.29043 0.59386 0.68866 0.0
C1428 C 0.29631 0.58292 0.67036 0.0
C1429 C 0.2886 0.58317 0.7079 0.0
C1430 C 0.282 0.53057 0.73141 0.0
H1431 H 0.32198 0.50693 0.83286 0.0
H1432 H 0.3077 0.53171 0.80707 0.0
H1433 H 0.27755 0.5028 0.74991 0.0
H1434 H 0.30389 0.5523 0.65749 0.0
H1435 H 0.30001 0.53357 0.69079 0.0
H1436 H 0.31343 0.57198 0.7447 0.0
C1437 C 0.31049 0.51559 0.80232 0.0
C1438 C 0.28536 0.51794 0.7491 0.0
C1439 C 0.31869 0.50136 0.81711 0.0
C1440 C 0.2993 0.56107 0.67137 0.0
C1441 C 0.29699 0.55035 0.6904 0.0
C1442 C 0.30512 0.55713 0.74596 0.0
C1443 C 0.3062 0.50908 0.78158 0.0
C1444 C 0.29943 0.52427 0.76501 0.0
C1445 C 0.29208 0.56133 0.70895 0.0
C1446 C 0.29238 0.54998 0.72936 0.0
H1447 H 0.3213 0.45799 0.78561 0.0
H1448 H 0.30724 0.48242 0.76028 0.0
H1449 H 0.31971 0.54972 0.77545 0.0
H1450 H 0.2883 0.61078 0.6883 0.0
H1451 H 0.28483 0.59198 0.72199 0.0
C1452 C 0.15834 0.58781 0.43948 0.0
C1453 C 0.15565 0.57078 0.42566 0.0
C1454 C 0.16797 0.58491 0.45903 0.0
C1455 C 0.20795 0.5543 0.48457 0.0
H1456 H 0.18498 0.57682 0.53641 0.0
C1457 C 0.25921 0.55755 0.55912 0.0
C1458 C 0.25788 0.57623 0.57087 0.0
C1459 C 0.24392 0.55268 0.544 0.0
C1460 C 0.19176 0.57059 0.52208 0.0
H1461 H 0.16063 0.53729 0.4215 0.0
H1462 H 0.1783 0.53237 0.45558 0.0
H1463 H 0.16355 0.57679 0.50451 0.0
H1464 H 0.23872 0.6038 0.57673 0.0
H1465 H 0.21268 0.59594 0.55009 0.0
H1466 H 0.23663 0.54944 0.50141 0.0
C1467 C 0.17262 0.54787 0.4513 0.0
C1468 C 0.17937 0.57044 0.50386 0.0
C1469 C 0.1625 0.55068 0.43189 0.0
C1470 C 0.24024 0.58927 0.56805 0.0
C1471 C 0.22516 0.58464 0.55271 0.0
C1472 C 0.2205 0.55482 0.50266 0.0
C1473 C 0.1755 0.565 0.46499 0.0
C1474 C 0.1875 0.56265 0.48486 0.0
C1475 C 0.22709 0.56658 0.54001 0.0
C1476 C 0.21275 0.56341 0.52159 0.0
H1477 H 0.15306 0.60344 0.43514 0.0
H1478 H 0.17016 0.5984 0.46922 0.0
H1479 H 0.21465 0.5484 0.47004 0.0
H1480 H 0.27246 0.54702 0.56118 0.0
H1481 H 0.24568 0.53832 0.53502 0.0
C1482 C 0.24518 0.4014 0.05118 0.0
C1483 C 0.24343 0.41649 0.06724 0.0
C1484 C 0.25719 0.40556 0.03322 0.0
C1485 C 0.29925 0.439 0.01124 0.0
H1486 H 0.27205 0.42615 0.95813 0.0
C1487 C 0.33743 0.45878 0.93024 0.0
C1488 C 0.3361 0.44264 0.91518 0.0
C1489 C 0.32571 0.45755 0.94894 0.0
C1490 C 0.27997 0.4297 0.97281 0.0
H1491 H 0.25383 0.44728 0.07757 0.0
H1492 H 0.27497 0.45453 0.04618 0.0
H1493 H 0.25368 0.41906 0.99099 0.0
H1494 H 0.3211 0.41285 0.90771 0.0
H1495 H 0.30109 0.41064 0.94002 0.0
H1496 H 0.32576 0.44924 0.99298 0.0
C1497 C 0.26694 0.43953 0.04747 0.0
C1498 C 0.26944 0.42559 0.99164 0.0
C1499 C 0.25476 0.43544 0.06536 0.0
C1500 C 0.32251 0.42559 0.91895 0.0
C1501 C 0.31087 0.42439 0.93748 0.0
C1502 C 0.3099 0.44298 0.99233 0.0
C1503 C 0.26787 0.42484 0.03098 0.0
C1504 C 0.27906 0.4299 0.01108 0.0
C1505 C 0.31239 0.44023 0.95281 0.0
C1506 C 0.30049 0.43806 0.97289 0.0
H1507 H 0.23651 0.38675 0.05203 0.0
H1508 H 0.25785 0.39381 0.02089 0.0
H1509 H 0.30706 0.44247 0.026 0.0
H1510 H 0.34784 0.47208 0.92781 0.0
H1511 H 0.32712 0.47011 0.96037 0.0
C1512 C 0.16898 0.32837 0.19215 0.0
C1513 C 0.15158 0.33102 0.17862 0.0
C1514 C 0.16661 0.31882 0.21187 0.0
C1515 C 0.12557 0.30229 0.25077 0.0
H1516 H 0.16854 0.26303 0.26927 0.0
C1517 C 0.11036 0.23033 0.30295 0.0
C1518 C 0.1242 0.22613 0.31964 0.0
C1519 C 0.11418 0.24706 0.28927 0.0
C1520 C 0.1566 0.27426 0.26451 0.0
H1521 H 0.11788 0.32562 0.17581 0.0
H1522 H 0.11402 0.30824 0.20938 0.0
H1523 H 0.17454 0.28431 0.23787 0.0
H1524 H 0.15262 0.23617 0.33556 0.0
H1525 H 0.15984 0.26528 0.3109 0.0
H1526 H 0.10713 0.29106 0.27673 0.0
C1527 C 0.12946 0.31407 0.20505 0.0
C1528 C 0.16001 0.28649 0.24651 0.0
C1529 C 0.13177 0.3238 0.18547 0.0
C1530 C 0.14168 0.23928 0.32285 0.0
C1531 C 0.14583 0.25579 0.30875 0.0
C1532 C 0.12206 0.28983 0.26856 0.0
C1533 C 0.14682 0.31144 0.21855 0.0
C1534 C 0.1443 0.30028 0.23908 0.0
C1535 C 0.13219 0.25963 0.29171 0.0
C1536 C 0.13735 0.27537 0.2753 0.0
H1537 H 0.18457 0.33344 0.18759 0.0
H1538 H 0.18033 0.31728 0.22188 0.0
H1539 H 0.11334 0.31315 0.24591 0.0
H1540 H 0.09677 0.22037 0.30023 0.0
H1541 H 0.10354 0.24956 0.27616 0.0
C1542 C 0.44743 0.41947 0.93736 0.0
C1543 C 0.42697 0.4274 0.93474 0.0
C1544 C 0.45416 0.41211 0.95693 0.0
C1545 C 0.43581 0.39507 0.00976 0.0
H1546 H 0.49337 0.40875 0.02491 0.0
C1547 C 0.4985 0.39043 0.08433 0.0
C1548 C 0.4945 0.36985 0.09138 0.0
C1549 C 0.48807 0.39844 0.06671 0.0
C1550 C 0.47716 0.40503 0.02115 0.0
H1551 H 0.39729 0.4334 0.9504 0.0
H1552 H 0.40914 0.42088 0.98488 0.0
H1553 H 0.47946 0.42045 0.99138 0.0
H1554 H 0.47568 0.34186 0.08606 0.0
H1555 H 0.45781 0.35563 0.055 0.0
H1556 H 0.43345 0.38008 0.0399 0.0
C1557 C 0.41992 0.42005 0.97169 0.0
C1558 C 0.46927 0.41145 0.00168 0.0
C1559 C 0.41311 0.42725 0.95198 0.0
C1560 C 0.47908 0.35781 0.08105 0.0
C1561 C 0.46877 0.36575 0.06326 0.0
C1562 C 0.44369 0.38874 0.02937 0.0
C1563 C 0.44066 0.41273 0.97447 0.0
C1564 C 0.44859 0.40635 0.9956 0.0
C1565 C 0.47353 0.38598 0.05556 0.0
C1566 C 0.46453 0.39354 0.03525 0.0
H1567 H 0.4583 0.41899 0.92424 0.0
H1568 H 0.47003 0.40602 0.95831 0.0
H1569 H 0.41985 0.39078 0.00556 0.0
H1570 H 0.5101 0.40021 0.09214 0.0
H1571 H 0.49175 0.41428 0.06159 0.0
C1572 C 0.39706 0.7219 0.83708 0.0
C1573 C 0.38498 0.73776 0.84666 0.0
C1574 C 0.38934 0.71107 0.81953 0.0
C1575 C 0.36617 0.68534 0.78598 0.0
H1576 H 0.33999 0.72193 0.74469 0.0
C1577 C 0.33049 0.65669 0.70607 0.0
C1578 C 0.33427 0.66982 0.68863 0.0
C1579 C 0.33664 0.66298 0.72631 0.0
C1580 C 0.34734 0.7115 0.75601 0.0
H1581 H 0.35461 0.75337 0.84653 0.0
H1582 H 0.34114 0.73451 0.81597 0.0
H1583 H 0.34977 0.736 0.77885 0.0
H1584 H 0.34881 0.699 0.67854 0.0
H1585 H 0.35952 0.7099 0.71362 0.0
H1586 H 0.36415 0.66096 0.76267 0.0
C1587 C 0.35679 0.73079 0.82166 0.0
C1588 C 0.35269 0.7195 0.77573 0.0
C1589 C 0.3645 0.74159 0.83918 0.0
C1590 C 0.34522 0.68879 0.69171 0.0
C1591 C 0.35133 0.69504 0.71182 0.0
C1592 C 0.36071 0.67728 0.76619 0.0
C1593 C 0.36936 0.71583 0.81125 0.0
C1594 C 0.36236 0.70661 0.7909 0.0
C1595 C 0.34666 0.6825 0.72942 0.0
C1596 C 0.35152 0.69039 0.75089 0.0
H1597 H 0.41289 0.71853 0.84248 0.0
H1598 H 0.39948 0.69973 0.81182 0.0
H1599 H 0.37347 0.67497 0.79739 0.0
H1600 H 0.322 0.64203 0.70419 0.0
H1601 H 0.33282 0.65299 0.73959 0.0
C1602 C 0.05864 0.61326 0.43212 0.0
C1603 C 0.07507 0.5988 0.42889 0.0
C1604 C 0.05017 0.61625 0.45217 0.0
C1605 C 0.04508 0.59225 0.50476 0.0
H1606 H 0.03593 0.64996 0.52242 0.0
C1607 C 0.99699 0.61607 0.57857 0.0
C1608 C 0.00408 0.63353 0.59019 0.0
C1609 C 0.00711 0.61021 0.55995 0.0
C1610 C 0.03859 0.63376 0.51782 0.0
H1611 H 0.09532 0.57596 0.44432 0.0
H1612 H 0.08037 0.58106 0.47927 0.0
H1613 H 0.05007 0.64289 0.48753 0.0
H1614 H 0.02824 0.65765 0.59206 0.0
H1615 H 0.04598 0.64728 0.55971 0.0
H1616 H 0.0336 0.58319 0.53519 0.0
C1617 C 0.07395 0.58995 0.4662 0.0
C1618 C 0.04643 0.62971 0.49773 0.0
C1619 C 0.08248 0.587 0.44613 0.0
C1620 C 0.02224 0.64423 0.58342 0.0
C1621 C 0.03233 0.6384 0.56479 0.0
C1622 C 0.03709 0.59632 0.52488 0.0
C1623 C 0.0579 0.60481 0.46947 0.0
C1624 C 0.04968 0.60892 0.49093 0.0
C1625 C 0.02456 0.62167 0.55258 0.0
C1626 C 0.03376 0.61713 0.5316 0.0
H1627 H 0.05234 0.62232 0.41913 0.0
H1628 H 0.03755 0.62755 0.45414 0.0
H1629 H 0.04733 0.57607 0.49991 0.0
H1630 H 0.98322 0.60729 0.58351 0.0
H1631 H 0.00072 0.59727 0.55086 0.0
C1632 C 0.67089 0.1584 0.7987 0.0
C1633 C 0.66885 0.17222 0.81586 0.0
C1634 C 0.66438 0.16461 0.77855 0.0
C1635 C 0.65573 0.21308 0.74792 0.0
H1636 H 0.62671 0.17696 0.7082 0.0
C1637 C 0.63854 0.24226 0.66461 0.0
C1638 C 0.61781 0.23926 0.65747 0.0
C1639 C 0.646 0.23131 0.68215 0.0
C1640 C 0.63479 0.18723 0.71914 0.0
H1641 H 0.65705 0.20266 0.82566 0.0
H1642 H 0.64557 0.2134 0.79075 0.0
H1643 H 0.636 0.1634 0.7431 0.0
H1644 H 0.5891 0.22137 0.66226 0.0
H1645 H 0.60205 0.2024 0.69307 0.0
H1646 H 0.65408 0.23709 0.72448 0.0
C1647 C 0.65273 0.19804 0.79265 0.0
C1648 C 0.64025 0.17941 0.73905 0.0
C1649 C 0.65927 0.19188 0.81267 0.0
C1650 C 0.60515 0.22405 0.66739 0.0
C1651 C 0.6126 0.21313 0.68503 0.0
C1652 C 0.65034 0.22085 0.72812 0.0
C1653 C 0.65568 0.18472 0.77525 0.0
C1654 C 0.65053 0.19238 0.75375 0.0
C1655 C 0.63288 0.21714 0.693 0.0
C1656 C 0.63968 0.2081 0.71352 0.0
H1657 H 0.67833 0.1432 0.80068 0.0
H1658 H 0.66691 0.15402 0.76544 0.0
H1659 H 0.66396 0.22338 0.75874 0.0
H1660 H 0.64882 0.25359 0.65706 0.0
H1661 H 0.66188 0.2344 0.68757 0.0
C1662 C 0.57063 0.91596 0.56023 0.0
C1663 C 0.58098 0.89962 0.57094 0.0
C1664 C 0.56195 0.9125 0.54028 0.0
C1665 C 0.54489 0.86896 0.50511 0.0
H1666 H 0.54491 0.91251 0.46227 0.0
C1667 C 0.51993 0.85183 0.42007 0.0
C1668 C 0.50416 0.86512 0.41205 0.0
C1669 C 0.53071 0.85716 0.43847 0.0
C1670 C 0.54477 0.90025 0.47415 0.0
H1671 H 0.59118 0.86717 0.56892 0.0
H1672 H 0.57666 0.86121 0.53401 0.0
H1673 H 0.56099 0.9195 0.49656 0.0
H1674 H 0.48825 0.89506 0.4163 0.0
H1675 H 0.50733 0.90445 0.44838 0.0
H1676 H 0.52902 0.84963 0.48257 0.0
C1677 C 0.5745 0.87651 0.54118 0.0
C1678 C 0.55386 0.90426 0.49382 0.0
C1679 C 0.58289 0.8799 0.56119 0.0
C1680 C 0.50022 0.88441 0.42218 0.0
C1681 C 0.51119 0.88985 0.44047 0.0
C1682 C 0.53609 0.86489 0.48542 0.0
C1683 C 0.5637 0.89267 0.53054 0.0
C1684 C 0.55405 0.88863 0.50956 0.0
C1685 C 0.52614 0.876 0.44907 0.0
C1686 C 0.53595 0.88047 0.46974 0.0
H1687 H 0.56885 0.93126 0.5675 0.0
H1688 H 0.55351 0.92524 0.53272 0.0
H1689 H 0.54423 0.8567 0.51695 0.0
H1690 H 0.5234 0.83688 0.41265 0.0
H1691 H 0.54235 0.84633 0.44467 0.0
C1692 C 0.80989 0.81337 0.30221 0.0
C1693 C 0.82211 0.82946 0.31113 0.0
C1694 C 0.81552 0.80447 0.283 0.0
C1695 C 0.84916 0.8081 0.23577 0.0
H1696 H 0.85086 0.74739 0.24229 0.0
C1697 C 0.88701 0.72848 0.19634 0.0
C1698 C 0.87908 0.72872 0.1757 0.0
C1699 C 0.88107 0.74385 0.21074 0.0
C1700 C 0.85054 0.76432 0.2402 0.0
H1701 H 0.8488 0.85006 0.30633 0.0
H1702 H 0.85903 0.83415 0.2725 0.0
H1703 H 0.83738 0.76898 0.27069 0.0
H1704 H 0.85982 0.74607 0.15351 0.0
H1705 H 0.84908 0.77312 0.17909 0.0
H1706 H 0.86266 0.80307 0.20508 0.0
C1707 C 0.84498 0.82856 0.2804 0.0
C1708 C 0.84261 0.7767 0.2564 0.0
C1709 C 0.8392 0.83763 0.29971 0.0
C1710 C 0.86609 0.74549 0.16935 0.0
C1711 C 0.86001 0.76096 0.18394 0.0
C1712 C 0.857 0.79558 0.21931 0.0
C1713 C 0.83363 0.81132 0.27232 0.0
C1714 C 0.84182 0.79871 0.25445 0.0
C1715 C 0.86692 0.75981 0.20495 0.0
C1716 C 0.85796 0.77357 0.22154 0.0
H1717 H 0.79637 0.80713 0.31052 0.0
H1718 H 0.80619 0.79154 0.27694 0.0
H1719 H 0.8487 0.82504 0.23386 0.0
H1720 H 0.8974 0.71602 0.20161 0.0
H1721 H 0.88698 0.74282 0.22671 0.0
C1722 C 0.01295 0.13689 0.94373 0.0
C1723 C 0.02128 0.12522 0.92695 0.0
C1724 C 0.99734 0.12828 0.95659 0.0
C1725 C 0.98561 0.07992 0.98042 0.0
H1726 H 0.93249 0.10444 0.99779 0.0
C1727 C 0.94125 0.04596 0.05164 0.0
C1728 C 0.9304 0.06012 0.06458 0.0
C1729 C 0.94875 0.05236 0.03197 0.0
C1730 C 0.9474 0.09749 0.99336 0.0
H1731 H 0.01956 0.09582 0.90985 0.0
H1732 H 0.99269 0.08029 0.93304 0.0
H1733 H 0.95143 0.11924 0.96774 0.0
H1734 H 0.91861 0.09186 0.06738 0.0
H1735 H 0.93289 0.10369 0.03374 0.0
H1736 H 0.98293 0.05941 0.00679 0.0
C1737 C 0.99788 0.09629 0.93582 0.0
C1738 C 0.95806 0.10583 0.97596 0.0
C1739 C 0.01312 0.10517 0.92257 0.0
C1740 C 0.9269 0.08072 0.05751 0.0
C1741 C 0.93494 0.08735 0.03811 0.0
C1742 C 0.97529 0.07192 0.99811 0.0
C1743 C 0.99025 0.10764 0.9532 0.0
C1744 C 0.97734 0.09722 0.96951 0.0
C1745 C 0.94617 0.07331 0.02508 0.0
C1746 C 0.95615 0.08076 0.00508 0.0
H1747 H 0.01914 0.15236 0.94741 0.0
H1748 H 0.99183 0.13722 0.97002 0.0
H1749 H 0.00067 0.07328 0.97594 0.0
H1750 H 0.94377 0.02988 0.05673 0.0
H1751 H 0.95669 0.04082 0.02228 0.0
C1752 C 0.32772 0.12066 0.24961 0.0
C1753 C 0.32639 0.13225 0.23085 0.0
C1754 C 0.31269 0.12368 0.26551 0.0
C1755 C 0.26792 0.12176 0.28424 0.0
H1756 H 0.246 0.17669 0.2994 0.0
C1757 C 0.18242 0.13478 0.3115 0.0
C1758 C 0.17859 0.14928 0.32775 0.0
C1759 C 0.20261 0.13251 0.30305 0.0
C1760 C 0.25208 0.16123 0.29558 0.0
H1761 H 0.30947 0.15671 0.21423 0.0
H1762 H 0.28373 0.16246 0.2421 0.0
H1763 H 0.27895 0.1741 0.27974 0.0
H1764 H 0.19328 0.17235 0.34825 0.0
H1765 H 0.22841 0.16859 0.33325 0.0
H1766 H 0.24069 0.1089 0.29946 0.0
C1767 C 0.29612 0.15101 0.24464 0.0
C1768 C 0.27088 0.15976 0.28425 0.0
C1769 C 0.31078 0.14769 0.22867 0.0
C1770 C 0.19552 0.16135 0.33546 0.0
C1771 C 0.2157 0.15913 0.32694 0.0
C1772 C 0.24901 0.12323 0.29543 0.0
C1773 C 0.29651 0.13863 0.26296 0.0
C1774 C 0.27874 0.14004 0.27804 0.0
C1775 C 0.21947 0.14472 0.31061 0.0
C1776 C 0.24064 0.143 0.3008 0.0
H1777 H 0.33953 0.10848 0.25143 0.0
H1778 H 0.31333 0.11394 0.2795 0.0
H1779 H 0.27349 0.10636 0.2795 0.0
H1780 H 0.16973 0.12544 0.30501 0.0
H1781 H 0.20491 0.12154 0.29021 0.0
C1782 C 0.61698 0.57717 0.99488 0.0
C1783 C 0.63351 0.58977 0.00246 0.0
C1784 C 0.61 0.55978 0.00632 0.0
C1785 C 0.62674 0.52288 0.04841 0.0
H1786 H 0.56869 0.50448 0.04342 0.0
C1787 C 0.58752 0.44924 0.08924 0.0
C1788 C 0.57987 0.43481 0.07417 0.0
C1789 C 0.59448 0.46927 0.08313 0.0
C1790 C 0.5849 0.50957 0.04505 0.0
H1791 H 0.65503 0.59448 0.02857 0.0
H1792 H 0.6423 0.5645 0.04896 0.0
H1793 H 0.57915 0.53834 0.02869 0.0
H1794 H 0.57466 0.43041 0.04055 0.0
H1795 H 0.58592 0.46531 0.03036 0.0
H1796 H 0.63217 0.49391 0.06506 0.0
C1797 C 0.63518 0.56769 0.0338 0.0
C1798 C 0.59099 0.52885 0.03647 0.0
C1799 C 0.64239 0.58498 0.02217 0.0
C1800 C 0.57987 0.44093 0.05284 0.0
C1801 C 0.58643 0.46098 0.04686 0.0
C1802 C 0.62052 0.50372 0.05736 0.0
C1803 C 0.61905 0.55471 0.0259 0.0
C1804 C 0.61212 0.53549 0.03744 0.0
C1805 C 0.5936 0.47535 0.06193 0.0
C1806 C 0.59969 0.49672 0.05523 0.0
H1807 H 0.60961 0.58046 0.97989 0.0
H1808 H 0.59783 0.55001 0.99946 0.0
H1809 H 0.64318 0.52731 0.04932 0.0
H1810 H 0.58784 0.44539 0.1058 0.0
H1811 H 0.60001 0.4802 0.09499 0.0
C1812 C 0.17053 0.86214 0.74786 0.0
C1813 C 0.1777 0.87636 0.73251 0.0
C1814 C 0.184 0.85561 0.76411 0.0
C1815 C 0.23482 0.86837 0.79055 0.0
H1816 H 0.24073 0.80789 0.79613 0.0
C1817 C 0.30423 0.83165 0.83641 0.0
C1818 C 0.3146 0.81522 0.82579 0.0
C1819 C 0.28449 0.83872 0.82959 0.0
C1820 C 0.23924 0.82482 0.79481 0.0
H1821 H 0.20401 0.8959 0.72283 0.0
H1822 H 0.22727 0.88468 0.75093 0.0
H1823 H 0.21118 0.82234 0.77626 0.0
H1824 H 0.31178 0.79271 0.80029 0.0
H1825 H 0.27783 0.80536 0.78808 0.0
H1826 H 0.26354 0.87088 0.80794 0.0
C1827 C 0.21137 0.8785 0.7506 0.0
C1828 C 0.22214 0.83311 0.78366 0.0
C1829 C 0.19807 0.88478 0.73433 0.0
C1830 C 0.30447 0.80564 0.80862 0.0
C1831 C 0.28478 0.81268 0.80182 0.0
C1832 C 0.25191 0.8601 0.80167 0.0
C1833 C 0.2047 0.8635 0.76542 0.0
C1834 C 0.22017 0.85495 0.78077 0.0
C1835 C 0.27465 0.82948 0.81204 0.0
C1836 C 0.25472 0.83821 0.80332 0.0
H1837 H 0.15489 0.85539 0.74679 0.0
H1838 H 0.17841 0.8441 0.77539 0.0
H1839 H 0.23357 0.88529 0.78883 0.0
H1840 H 0.31157 0.83945 0.84965 0.0
H1841 H 0.27704 0.85159 0.83792 0.0
C1842 C 0.88564 0.42254 0.4949 0.0
C1843 C 0.87382 0.4299 0.47764 0.0
C1844 C 0.89218 0.43659 0.51073 0.0
C1845 C 0.90925 0.48938 0.51522 0.0
H1846 H 0.88748 0.49605 0.57189 0.0
C1847 C 0.90873 0.56912 0.55411 0.0
C1848 C 0.91781 0.57119 0.57415 0.0
C1849 C 0.9043 0.54933 0.54584 0.0
C1850 C 0.89399 0.49412 0.55625 0.0
H1851 H 0.85839 0.45739 0.46429 0.0
H1852 H 0.86991 0.4815 0.49149 0.0
H1853 H 0.87835 0.46441 0.5513 0.0
H1854 H 0.92813 0.55408 0.60183 0.0
H1855 H 0.92001 0.51908 0.58729 0.0
H1856 H 0.92401 0.5193 0.51947 0.0
C1857 C 0.87426 0.46504 0.49275 0.0
C1858 C 0.88884 0.47606 0.54456 0.0
C1859 C 0.86775 0.45118 0.47713 0.0
C1860 C 0.92111 0.55296 0.58634 0.0
C1861 C 0.91655 0.53297 0.57802 0.0
C1862 C 0.91434 0.50728 0.52678 0.0
C1863 C 0.88691 0.45804 0.50938 0.0
C1864 C 0.89591 0.47397 0.52371 0.0
C1865 C 0.90875 0.53102 0.5574 0.0
C1866 C 0.90613 0.51024 0.54709 0.0
H1867 H 0.89051 0.40622 0.49572 0.0
H1868 H 0.90202 0.43093 0.52346 0.0
H1869 H 0.91487 0.48806 0.49917 0.0
H1870 H 0.90551 0.58286 0.54455 0.0
H1871 H 0.89779 0.54831 0.5301 0.0
C1872 C 0.83182 0.35313 0.75749 0.0
C1873 C 0.82693 0.37217 0.76753 0.0
C1874 C 0.81916 0.34583 0.74096 0.0
C1875 C 0.77892 0.36038 0.70195 0.0
H1876 H 0.75077 0.30881 0.7184 0.0
C1877 C 0.69618 0.33871 0.67159 0.0
C1878 C 0.6899 0.3176 0.67167 0.0
C1879 C 0.71625 0.34432 0.67879 0.0
C1880 C 0.75874 0.3229 0.71305 0.0
H1881 H 0.80622 0.39924 0.76752 0.0
H1882 H 0.7846 0.38688 0.7382 0.0
H1883 H 0.78135 0.32067 0.73795 0.0
H1884 H 0.6996 0.28561 0.67773 0.0
H1885 H 0.73512 0.29502 0.68906 0.0
H1886 H 0.75635 0.36275 0.67706 0.0
C1887 C 0.79797 0.37749 0.74314 0.0
C1888 C 0.77629 0.3297 0.72438 0.0
C1889 C 0.81023 0.38449 0.75995 0.0
C1890 C 0.70425 0.30202 0.6778 0.0
C1891 C 0.72447 0.3075 0.68446 0.0
C1892 C 0.76159 0.35335 0.69028 0.0
C1893 C 0.80187 0.35779 0.73397 0.0
C1894 C 0.78615 0.34879 0.71933 0.0
C1895 C 0.73055 0.32879 0.68578 0.0
C1896 C 0.75082 0.33484 0.69609 0.0
H1897 H 0.84454 0.34333 0.76327 0.0
H1898 H 0.82238 0.33054 0.73415 0.0
H1899 H 0.78633 0.37517 0.69775 0.0
H1900 H 0.68516 0.35089 0.667 0.0
H1901 H 0.72008 0.36088 0.6798 0.0
C1902 C 0.4031 0.93464 0.44255 0.0
C1903 C 0.4156 0.93335 0.42441 0.0
C1904 C 0.39537 0.95399 0.44939 0.0
C1905 C 0.37322 0.99572 0.45522 0.0
H1906 H 0.41584 0.03785 0.46705 0.0
C1907 C 0.38323 0.07874 0.50502 0.0
C1908 C 0.37402 0.07163 0.52387 0.0
C1909 C 0.38615 0.06482 0.48811 0.0
C1910 C 0.40362 0.02652 0.4634 0.0
H1911 H 0.42958 0.95109 0.39889 0.0
H1912 H 0.41636 0.9854 0.41122 0.0
H1913 H 0.42462 0.00745 0.44506 0.0
H1914 H 0.36007 0.0446 0.53949 0.0
H1915 H 0.36506 0.02066 0.51032 0.0
H1916 H 0.35247 0.01418 0.47423 0.0
C1917 C 0.41239 0.9713 0.41995 0.0
C1918 C 0.40865 0.00912 0.45082 0.0
C1919 C 0.41982 0.95175 0.41285 0.0
C1920 C 0.36731 0.05061 0.52526 0.0
C1921 C 0.36998 0.03688 0.50841 0.0
C1922 C 0.36818 0.01309 0.46766 0.0
C1923 C 0.40022 0.97258 0.4384 0.0
C1924 C 0.39373 0.99312 0.44739 0.0
C1925 C 0.37955 0.04371 0.48969 0.0
C1926 C 0.38358 0.02818 0.47268 0.0
H1927 H 0.3996 0.92064 0.45164 0.0
H1928 H 0.38626 0.9545 0.4638 0.0
H1929 H 0.36132 0.98378 0.45253 0.0
H1930 H 0.38857 0.09487 0.50352 0.0
H1931 H 0.3936 0.0705 0.47386 0.0
C1932 C 0.80814 0.67077 0.16355 0.0
C1933 C 0.82376 0.65538 0.16697 0.0
C1934 C 0.78847 0.66922 0.17338 0.0
C1935 C 0.75246 0.63162 0.19926 0.0
H1936 H 0.73221 0.6802 0.23014 0.0
C1937 C 0.6773 0.62887 0.25126 0.0
C1938 C 0.68167 0.63495 0.27205 0.0
C1939 C 0.69179 0.63328 0.23517 0.0
C1940 C 0.73755 0.66658 0.22138 0.0
H1941 H 0.83063 0.62633 0.18368 0.0
H1942 H 0.79636 0.62354 0.20042 0.0
H1943 H 0.76354 0.68343 0.20799 0.0
H1944 H 0.70375 0.65136 0.29223 0.0
H1945 H 0.72865 0.65945 0.26423 0.0
H1946 H 0.72687 0.6146 0.21326 0.0
C1947 C 0.79931 0.63669 0.18995 0.0
C1948 C 0.7554 0.66845 0.20864 0.0
C1949 C 0.81903 0.63832 0.18032 0.0
C1950 C 0.70008 0.64641 0.27632 0.0
C1951 C 0.71426 0.65117 0.26027 0.0
C1952 C 0.73445 0.62982 0.21182 0.0
C1953 C 0.78385 0.65215 0.18667 0.0
C1954 C 0.76339 0.65084 0.19793 0.0
C1955 C 0.71054 0.64426 0.23962 0.0
C1956 C 0.72717 0.64713 0.22347 0.0
H1957 H 0.81092 0.68395 0.15314 0.0
H1958 H 0.7768 0.68132 0.17048 0.0
H1959 H 0.75815 0.61784 0.191 0.0
H1960 H 0.66323 0.61991 0.24765 0.0
H1961 H 0.68856 0.6278 0.21935 0.0
C1962 C 0.11824 0.92413 0.00186 0.0
C1963 C 0.13697 0.91387 0.99597 0.0
C1964 C 0.1121 0.94279 0.99192 0.0
C1965 C 0.13564 0.98759 0.96427 0.0
H1966 H 0.07785 0.00274 0.95149 0.0
C1967 C 0.11181 0.07304 0.94664 0.0
C1968 C 0.09868 0.07641 0.92915 0.0
C1969 C 0.11521 0.05273 0.95437 0.0
C1970 C 0.09407 0.99867 0.95488 0.0
H1971 H 0.16317 0.91443 0.97406 0.0
H1972 H 0.15232 0.94684 0.95658 0.0
H1973 H 0.08592 0.96725 0.96423 0.0
H1974 H 0.07851 0.06088 0.9063 0.0
H1975 H 0.08428 0.0255 0.91998 0.0
H1976 H 0.14385 0.01889 0.95497 0.0
C1977 C 0.14262 0.94067 0.96918 0.0
C1978 C 0.09867 0.97842 0.9623 0.0
C1979 C 0.14873 0.92199 0.97909 0.0
C1980 C 0.08851 0.05898 0.91996 0.0
C1981 C 0.09185 0.03865 0.92777 0.0
C1982 C 0.13104 0.00781 0.95701 0.0
C1983 C 0.12454 0.95157 0.97586 0.0
C1984 C 0.11952 0.97268 0.9671 0.0
C1985 C 0.1055 0.03528 0.94485 0.0
C1986 C 0.1102 0.01363 0.95234 0.0
H1987 H 0.10862 0.91809 0.01457 0.0
H1988 H 0.09811 0.95082 0.99747 0.0
H1989 H 0.15183 0.98377 0.96809 0.0
H1990 H 0.11956 0.0861 0.95435 0.0
H1991 H 0.1255 0.05068 0.96782 0.0
C1992 C 0.32314 0.18718 0.13422 0.0
C1993 C 0.32995 0.1807 0.15429 0.0
C1994 C 0.31175 0.20578 0.13167 0.0
C1995 C 0.29993 0.25725 0.15388 0.0
H1996 H 0.24776 0.2514 0.12269 0.0
C1997 C 0.23797 0.32465 0.14329 0.0
C1998 C 0.2266 0.32458 0.12436 0.0
C1999 C 0.25249 0.30853 0.14756 0.0
C2000 C 0.26245 0.25347 0.13113 0.0
H2001 H 0.33039 0.18935 0.18739 0.0
H2002 H 0.31087 0.22217 0.1827 0.0
H2003 H 0.26941 0.2206 0.12925 0.0
H2004 H 0.22235 0.30895 0.09443 0.0
H2005 H 0.2483 0.28164 0.10124 0.0
H2006 H 0.29311 0.29032 0.15533 0.0
C2007 C 0.3144 0.21262 0.16903 0.0
C2008 C 0.27476 0.23575 0.135 0.0
C2009 C 0.32562 0.1938 0.17167 0.0
C2010 C 0.23089 0.30918 0.10921 0.0
C2011 C 0.24558 0.29341 0.11325 0.0
C2012 C 0.28766 0.27516 0.14978 0.0
C2013 C 0.30708 0.21856 0.14905 0.0
C2014 C 0.29373 0.23746 0.14617 0.0
C2015 C 0.2559 0.29231 0.13281 0.0
C2016 C 0.26891 0.2735 0.13804 0.0
H2017 H 0.32653 0.17794 0.12036 0.0
H2018 H 0.30653 0.21017 0.11604 0.0
H2019 H 0.31453 0.25895 0.16254 0.0
H2020 H 0.23466 0.33632 0.15527 0.0
H2021 H 0.26013 0.30817 0.16279 0.0
C2022 C 0.82805 0.31569 0.86933 0.0
C2023 C 0.82734 0.32484 0.84923 0.0
C2024 C 0.81984 0.2956 0.87281 0.0
C2025 C 0.80199 0.24688 0.84529 0.0
H2026 H 0.77534 0.23607 0.89915 0.0
C2027 C 0.75132 0.17286 0.86555 0.0
C2028 C 0.75546 0.16335 0.88514 0.0
C2029 C 0.76123 0.19174 0.85993 0.0
C2030 C 0.78289 0.23881 0.8841 0.0
H2031 H 0.81754 0.32017 0.81696 0.0
H2032 H 0.80245 0.28523 0.82307 0.0
H2033 H 0.78943 0.27087 0.89166 0.0
H2034 H 0.77383 0.16586 0.91384 0.0
H2035 H 0.79087 0.1989 0.90411 0.0
H2036 H 0.79464 0.21476 0.83767 0.0
C2037 C 0.80982 0.29335 0.83611 0.0
C2038 C 0.79107 0.25875 0.8798 0.0
C2039 C 0.81836 0.3134 0.83259 0.0
C2040 C 0.77028 0.17273 0.89863 0.0
C2041 C 0.77994 0.19173 0.89314 0.0
C2042 C 0.79349 0.22696 0.84952 0.0
C2043 C 0.81036 0.28421 0.85633 0.0
C2044 C 0.80098 0.26304 0.86044 0.0
C2045 C 0.77524 0.20161 0.87391 0.0
C2046 C 0.78407 0.22269 0.86907 0.0
H2047 H 0.8353 0.32395 0.88235 0.0
H2048 H 0.82115 0.28894 0.88845 0.0
H2049 H 0.8097 0.24945 0.83031 0.0
H2050 H 0.74006 0.16597 0.85475 0.0
H2051 H 0.75729 0.19906 0.84503 0.0
C2052 C 0.43783 0.06913 0.61311 0.0
C2053 C 0.43299 0.08315 0.59666 0.0
C2054 C 0.4579 0.06031 0.61481 0.0
C2055 C 0.50339 0.04547 0.58323 0.0
H2056 H 0.5298 0.03734 0.63773 0.0
C2057 C 0.55691 0.9762 0.6033 0.0
C2058 C 0.57442 0.97918 0.61644 0.0
C2059 C 0.54358 0.99293 0.59851 0.0
C2060 C 0.52287 0.03984 0.62234 0.0
H2061 H 0.44589 0.09922 0.56935 0.0
H2062 H 0.48076 0.08335 0.57206 0.0
H2063 H 0.49834 0.05933 0.63483 0.0
H2064 H 0.5923 0.00199 0.63435 0.0
H2065 H 0.56842 0.03151 0.62639 0.0
H2066 H 0.52739 0.02523 0.57091 0.0
C2067 C 0.4689 0.07922 0.5836 0.0
C2068 C 0.50473 0.05221 0.62072 0.0
C2069 C 0.44884 0.08819 0.58199 0.0
C2070 C 0.57893 0.99941 0.62407 0.0
C2071 C 0.56526 0.01619 0.61961 0.0
C2072 C 0.52141 0.03294 0.58489 0.0
C2073 C 0.47363 0.06517 0.60003 0.0
C2074 C 0.49446 0.05465 0.60126 0.0
C2075 C 0.54725 0.01297 0.60707 0.0
C2076 C 0.53096 0.02951 0.60456 0.0
H2077 H 0.42601 0.06461 0.62451 0.0
H2078 H 0.46094 0.04922 0.62741 0.0
H2079 H 0.4958 0.047 0.56804 0.0
H2080 H 0.55318 0.96072 0.59719 0.0
H2081 H 0.52973 0.98989 0.58902 0.0
C2082 C 0.68174 0.69147 0.33422 0.0
C2083 C 0.67085 0.68091 0.35031 0.0
C2084 C 0.69063 0.71128 0.33788 0.0
C2085 C 0.70721 0.74646 0.38154 0.0
H2086 H 0.70736 0.78927 0.33797 0.0
C2087 C 0.73141 0.83194 0.39849 0.0
C2088 C 0.74665 0.84044 0.38489 0.0
C2089 C 0.72116 0.81316 0.39342 0.0
C2090 C 0.70749 0.77741 0.35022 0.0
H2091 H 0.66012 0.68299 0.38258 0.0
H2092 H 0.67511 0.71767 0.3889 0.0
H2093 H 0.69149 0.75495 0.33087 0.0
H2094 H 0.7623 0.83649 0.35478 0.0
H2095 H 0.74422 0.80373 0.34588 0.0
H2096 H 0.72288 0.76907 0.40097 0.0
C2097 C 0.67742 0.71048 0.37363 0.0
C2098 C 0.6985 0.75771 0.34616 0.0
C2099 C 0.66878 0.69061 0.37003 0.0
C2100 C 0.75074 0.83026 0.36566 0.0
C2101 C 0.74032 0.81157 0.3605 0.0
C2102 C 0.71594 0.76619 0.38566 0.0
C2103 C 0.68861 0.72103 0.35767 0.0
C2104 C 0.69824 0.74199 0.3618 0.0
C2105 C 0.72577 0.80263 0.37455 0.0
C2106 C 0.71616 0.78186 0.37006 0.0
H2107 H 0.68372 0.68422 0.31893 0.0
H2108 H 0.69939 0.71876 0.32531 0.0
H2109 H 0.70775 0.73463 0.39381 0.0
H2110 H 0.72787 0.83939 0.41341 0.0
H2111 H 0.70981 0.80671 0.40441 0.0
C2112 C 0.91438 0.99177 0.1086 0.0
C2113 C 0.90744 0.98634 0.12886 0.0
C2114 C 0.93323 0.98354 0.1007 0.0
C2115 C 0.97161 0.94044 0.10681 0.0
H2116 H 0.01196 0.98116 0.08582 0.0
C2117 C 0.0592 0.91919 0.09237 0.0
C2118 C 0.06965 0.92919 0.07565 0.0
C2119 C 0.0387 0.92518 0.09791 0.0
C2120 C 0.00081 0.96946 0.09126 0.0
H2121 H 0.9138 0.96677 0.1561 0.0
H2122 H 0.94642 0.952 0.14214 0.0
H2123 H 0.97694 0.99277 0.09616 0.0
H2124 H 0.0665 0.9525 0.05095 0.0
H2125 H 0.03073 0.96256 0.06013 0.0
H2126 H 0.99533 0.91706 0.10173 0.0
C2127 C 0.93753 0.96291 0.13249 0.0
C2128 C 0.98073 0.97617 0.09723 0.0
C2129 C 0.91887 0.97138 0.14048 0.0
C2130 C 0.05902 0.94486 0.06422 0.0
C2131 C 0.03849 0.95065 0.06955 0.0
C2132 C 0.99164 0.93366 0.1006 0.0
C2133 C 0.94515 0.96925 0.11272 0.0
C2134 C 0.96597 0.96177 0.10521 0.0
C2135 C 0.02812 0.94111 0.08664 0.0
C2136 C 0.00657 0.94811 0.09286 0.0
H2137 H 0.9054 0.00265 0.099 0.0
H2138 H 0.93855 0.98843 0.08525 0.0
H2139 H 0.96047 0.92897 0.11278 0.0
H2140 H 0.06708 0.90713 0.10148 0.0
H2141 H 0.03137 0.91764 0.11133 0.0
C2142 C 0.23177 0.67342 0.60531 0.0
C2143 C 0.24834 0.66535 0.61756 0.0
C2144 C 0.22147 0.69192 0.61124 0.0
C2145 C 0.21272 0.72866 0.65566 0.0
H2146 H 0.20367 0.76926 0.61095 0.0
C2147 C 0.16687 0.807 0.66695 0.0
C2148 C 0.17491 0.82484 0.65657 0.0
C2149 C 0.17566 0.78711 0.66342 0.0
C2150 C 0.20621 0.75816 0.62365 0.0
H2151 H 0.26628 0.66977 0.64631 0.0
H2152 H 0.24854 0.70221 0.65646 0.0
H2153 H 0.21855 0.73498 0.60265 0.0
H2154 H 0.19909 0.83594 0.6352 0.0
H2155 H 0.21443 0.80134 0.62908 0.0
H2156 H 0.20074 0.75215 0.67671 0.0
C2157 C 0.24346 0.6942 0.6423 0.0
C2158 C 0.21448 0.73839 0.61885 0.0
C2159 C 0.25375 0.67569 0.63637 0.0
C2160 C 0.1923 0.82245 0.64311 0.0
C2161 C 0.20106 0.80263 0.63959 0.0
C2162 C 0.20437 0.74847 0.66047 0.0
C2163 C 0.22748 0.70275 0.62958 0.0
C2164 C 0.21791 0.72343 0.63479 0.0
C2165 C 0.19264 0.78468 0.64943 0.0
C2166 C 0.20117 0.76348 0.64451 0.0
H2167 H 0.22707 0.66578 0.59081 0.0
H2168 H 0.20896 0.6979 0.6013 0.0
H2169 H 0.21505 0.71742 0.66828 0.0
H2170 H 0.15333 0.80826 0.67722 0.0
H2171 H 0.1687 0.77356 0.6711 0.0
C2172 C 0.07331 0.51113 0.39259 0.0
C2173 C 0.07095 0.52349 0.37442 0.0
C2174 C 0.05871 0.49517 0.39706 0.0
C2175 C 0.01804 0.46126 0.37373 0.0
H2176 H 0.98645 0.46998 0.42521 0.0
C2177 C 0.93346 0.43114 0.38275 0.0
C2178 C 0.92602 0.42467 0.40259 0.0
C2179 C 0.95343 0.44006 0.38057 0.0
C2180 C 0.99533 0.46692 0.41099 0.0
H2181 H 0.05255 0.52831 0.34611 0.0
H2182 H 0.0276 0.50006 0.35351 0.0
H2183 H 0.01875 0.48988 0.41907 0.0
H2184 H 0.93417 0.42276 0.43577 0.0
H2185 H 0.96921 0.43759 0.4318 0.0
H2186 H 0.9947 0.4385 0.36544 0.0
C2187 C 0.04045 0.50275 0.36442 0.0
C2188 C 0.01384 0.47835 0.4075 0.0
C2189 C 0.05464 0.51895 0.36024 0.0
C2190 C 0.93929 0.42728 0.42017 0.0
C2191 C 0.95939 0.43604 0.41795 0.0
C2192 C 0.99972 0.44963 0.37732 0.0
C2193 C 0.042 0.49106 0.38311 0.0
C2194 C 0.02498 0.47609 0.38855 0.0
C2195 C 0.96671 0.44261 0.39811 0.0
C2196 C 0.98771 0.45283 0.39567 0.0
H2197 H 0.08571 0.51454 0.4038 0.0
H2198 H 0.06018 0.48635 0.41159 0.0
H2199 H 0.02648 0.45914 0.35906 0.0
H2200 H 0.92397 0.42926 0.36876 0.0
H2201 H 0.95829 0.44531 0.36509 0.0
C2202 C 0.56294 0.56301 0.90337 0.0
C2203 C 0.56591 0.58188 0.91451 0.0
C2204 C 0.54281 0.55649 0.89752 0.0
C2205 C 0.48787 0.5734 0.88941 0.0
H2206 H 0.47637 0.51432 0.89976 0.0
C2207 C 0.41568 0.50793 0.88679 0.0
C2208 C 0.40753 0.51186 0.8666 0.0
C2209 C 0.43326 0.51896 0.8941 0.0
C2210 C 0.47917 0.53091 0.897 0.0
H2211 H 0.55007 0.60919 0.92741 0.0
H2212 H 0.51465 0.59776 0.91705 0.0
H2213 H 0.51056 0.52882 0.90894 0.0
H2214 H 0.4106 0.5315 0.83881 0.0
H2215 H 0.44136 0.55069 0.85154 0.0
H2216 H 0.45631 0.57537 0.87743 0.0
C2217 C 0.52804 0.58806 0.91287 0.0
C2218 C 0.4989 0.53917 0.90201 0.0
C2219 C 0.5483 0.59462 0.91876 0.0
C2220 C 0.41651 0.52805 0.85443 0.0
C2221 C 0.43413 0.5391 0.86176 0.0
C2222 C 0.46806 0.56508 0.88429 0.0
C2223 C 0.52506 0.56865 0.90264 0.0
C2224 C 0.5036 0.56043 0.89805 0.0
C2225 C 0.44309 0.53423 0.88142 0.0
C2226 C 0.46354 0.54369 0.88792 0.0
H2227 H 0.57622 0.55309 0.89941 0.0
H2228 H 0.54111 0.54172 0.88917 0.0
H2229 H 0.49104 0.58984 0.88614 0.0
H2230 H 0.40887 0.49587 0.89675 0.0
H2231 H 0.43948 0.51515 0.90952 0.0
C2232 C 0.94593 0.09444 0.20019 0.0
C2233 C 0.92865 0.08115 0.20408 0.0
C2234 C 0.95694 0.10368 0.21682 0.0
C2235 C 0.96987 0.13046 0.25414 0.0
H2236 H 0.98514 0.0964 0.30247 0.0
C2237 C 0.01699 0.16502 0.32365 0.0
C2238 C 0.03429 0.15285 0.33024 0.0
C2239 C 0.00169 0.15646 0.31031 0.0
C2240 C 0.98098 0.10612 0.28909 0.0
H2241 H 0.90926 0.06737 0.22862 0.0
H2242 H 0.92866 0.08338 0.25769 0.0
H2243 H 0.96348 0.08121 0.27459 0.0
H2244 H 0.04875 0.12195 0.32827 0.0
H2245 H 0.02207 0.10706 0.30524 0.0
H2246 H 0.98793 0.15514 0.26826 0.0
C2247 C 0.93377 0.08648 0.24172 0.0
C2248 C 0.96841 0.09748 0.27321 0.0
C2249 C 0.9227 0.07726 0.22506 0.0
C2250 C 0.03548 0.1317 0.32382 0.0
C2251 C 0.02017 0.12314 0.31056 0.0
C2252 C 0.98237 0.13911 0.27004 0.0
C2253 C 0.95099 0.09983 0.23778 0.0
C2254 C 0.96302 0.10945 0.25539 0.0
C2255 C 0.00332 0.13552 0.30333 0.0
C2256 C 0.98834 0.12694 0.28754 0.0
H2257 H 0.95117 0.09749 0.18425 0.0
H2258 H 0.97039 0.11356 0.21325 0.0
H2259 H 0.96575 0.14018 0.24074 0.0
H2260 H 0.0154 0.18126 0.32857 0.0
H2261 H 0.98871 0.16631 0.30527 0.0
C2262 C 0.5975 0.30296 0.04968 0.0
C2263 C 0.58898 0.29726 0.06922 0.0
C2264 C 0.60634 0.28778 0.03658 0.0
C2265 C 0.6091 0.23006 0.02741 0.0
H2266 H 0.65671 0.24651 0.99281 0.0
C2267 C 0.65964 0.17389 0.97479 0.0
C2268 C 0.65988 0.18014 0.95358 0.0
C2269 C 0.6511 0.18715 0.99014 0.0
C2270 C 0.64344 0.24175 0.00243 0.0
H2271 H 0.58289 0.27136 0.09053 0.0
H2272 H 0.59908 0.24472 0.06794 0.0
H2273 H 0.64203 0.27151 0.01786 0.0
H2274 H 0.65176 0.20498 0.93167 0.0
H2275 H 0.6374 0.22846 0.95862 0.0
H2276 H 0.61113 0.2 0.01209 0.0
C2277 C 0.59849 0.26084 0.06245 0.0
C2278 C 0.63488 0.25608 0.01666 0.0
C2279 C 0.58929 0.27606 0.07543 0.0
C2280 C 0.6516 0.19982 0.94793 0.0
C2281 C 0.64351 0.21323 0.96329 0.0
C2282 C 0.61796 0.21558 0.01341 0.0
C2283 C 0.60724 0.26655 0.04289 0.0
C2284 C 0.61729 0.25061 0.02899 0.0
C2285 C 0.6432 0.207 0.98448 0.0
C2286 C 0.63492 0.2215 0.00056 0.0
H2287 H 0.59715 0.3192 0.04446 0.0
H2288 H 0.61233 0.29272 0.02141 0.0
H2289 H 0.59546 0.22533 0.03647 0.0
H2290 H 0.66591 0.15872 0.97944 0.0
H2291 H 0.65104 0.18212 0.00643 0.0
C2292 C 0.55469 0.91414 0.71057 0.0
C2293 C 0.57646 0.91014 0.71162 0.0
C2294 C 0.541 0.9059 0.72562 0.0
C2295 C 0.53586 0.86333 0.76475 0.0
H2296 H 0.48816 0.89661 0.78337 0.0
C2297 C 0.47532 0.83341 0.82651 0.0
C2298 C 0.45397 0.83707 0.82175 0.0
C2299 C 0.49129 0.84273 0.8145 0.0
C2300 C 0.50132 0.88707 0.77822 0.0
H2301 H 0.60087 0.89437 0.72955 0.0
H2302 H 0.57683 0.87992 0.75601 0.0
H2303 H 0.51449 0.91239 0.76035 0.0
H2304 H 0.43279 0.85317 0.80029 0.0
H2305 H 0.46057 0.86955 0.77956 0.0
H2306 H 0.52252 0.83795 0.78259 0.0
C2307 C 0.57041 0.88935 0.74333 0.0
C2308 C 0.51642 0.89611 0.76502 0.0
C2309 C 0.58418 0.89763 0.72819 0.0
C2310 C 0.44902 0.85029 0.80468 0.0
C2311 C 0.46496 0.85969 0.79277 0.0
C2312 C 0.52076 0.8543 0.77805 0.0
C2313 C 0.54863 0.89339 0.7422 0.0
C2314 C 0.53368 0.88425 0.7578 0.0
C2315 C 0.48628 0.85604 0.79753 0.0
C2316 C 0.50313 0.86597 0.78463 0.0
H2317 H 0.54809 0.92326 0.69775 0.0
H2318 H 0.52429 0.90894 0.72395 0.0
H2319 H 0.54882 0.85368 0.75933 0.0
H2320 H 0.47974 0.82359 0.83973 0.0
H2321 H 0.50756 0.83979 0.8187 0.0
C2322 C 0.92425 0.71424 0.55102 0.0
C2323 C 0.91381 0.70992 0.57001 0.0
C2324 C 0.91659 0.72965 0.53732 0.0
C2325 C 0.86813 0.76029 0.52529 0.0
H2326 H 0.90653 0.79289 0.49072 0.0
C2327 C 0.84063 0.82873 0.47206 0.0
C2328 C 0.84704 0.8273 0.45089 0.0
C2329 C 0.8495 0.81569 0.4874 0.0
C2330 C 0.89566 0.78385 0.50026 0.0
H2331 H 0.88756 0.71863 0.58991 0.0
H2332 H 0.87452 0.74611 0.5664 0.0
H2333 H 0.92059 0.76811 0.51651 0.0
H2334 H 0.86829 0.81117 0.42951 0.0
H2335 H 0.88424 0.78896 0.45648 0.0
H2336 H 0.84325 0.77645 0.50921 0.0
C2337 C 0.88826 0.73719 0.56169 0.0
C2338 C 0.90366 0.76955 0.51497 0.0
C2339 C 0.89576 0.72153 0.57524 0.0
C2340 C 0.86313 0.81299 0.44564 0.0
C2341 C 0.87223 0.80017 0.46107 0.0
C2342 C 0.86016 0.77482 0.51082 0.0
C2343 C 0.89847 0.74134 0.54244 0.0
C2344 C 0.89 0.75738 0.52752 0.0
C2345 C 0.86526 0.80118 0.48201 0.0
C2346 C 0.87384 0.78657 0.49803 0.0
H2347 H 0.93807 0.70532 0.5465 0.0
H2348 H 0.92465 0.73203 0.5225 0.0
H2349 H 0.85707 0.75097 0.53432 0.0
H2350 H 0.82867 0.83989 0.47685 0.0
H2351 H 0.84406 0.81696 0.50351 0.0
C2352 C 0.45629 0.40883 0.80392 0.0
C2353 C 0.43609 0.41585 0.79831 0.0
C2354 C 0.46967 0.40027 0.78877 0.0
C2355 C 0.47059 0.37151 0.7399 0.0
H2356 H 0.52743 0.39315 0.73432 0.0
C2357 C 0.52951 0.33836 0.67854 0.0
C2358 C 0.55078 0.33746 0.6845 0.0
C2359 C 0.51477 0.34853 0.69136 0.0
C2360 C 0.51173 0.38667 0.73585 0.0
H2361 H 0.41385 0.41931 0.77268 0.0
H2362 H 0.43724 0.40373 0.74609 0.0
H2363 H 0.50308 0.40983 0.75876 0.0
H2364 H 0.57328 0.34565 0.70876 0.0
H2365 H 0.5476 0.36259 0.73154 0.0
H2366 H 0.47939 0.34776 0.71773 0.0
C2367 C 0.44269 0.40511 0.76218 0.0
C2368 C 0.49776 0.39637 0.74974 0.0
C2369 C 0.42943 0.41409 0.7773 0.0
C2370 C 0.55699 0.3464 0.7037 0.0
C2371 C 0.54227 0.35625 0.71665 0.0
C2372 C 0.48469 0.36155 0.72623 0.0
C2373 C 0.46295 0.39823 0.76781 0.0
C2374 C 0.47716 0.38876 0.75203 0.0
C2375 C 0.521 0.35773 0.71055 0.0
C2376 C 0.50554 0.36885 0.72422 0.0
H2377 H 0.46176 0.4101 0.82002 0.0
H2378 H 0.48518 0.39493 0.79348 0.0
H2379 H 0.45478 0.3653 0.74154 0.0
H2380 H 0.52439 0.3317 0.6637 0.0
H2381 H 0.49861 0.34954 0.68601 0.0
C2382 C 0.34701 0.6711 0.5305 0.0
C2383 C 0.34737 0.67642 0.55193 0.0
C2384 C 0.35607 0.68448 0.51554 0.0
C2385 C 0.39157 0.7313 0.51056 0.0
H2386 H 0.3645 0.73683 0.45609 0.0
C2387 C 0.40417 0.80144 0.45407 0.0
C2388 C 0.41083 0.79605 0.43371 0.0
C2389 C 0.39729 0.78588 0.46799 0.0
C2390 C 0.37226 0.73528 0.47121 0.0
H2391 H 0.35718 0.69986 0.5746 0.0
H2392 H 0.37217 0.72366 0.5486 0.0
H2393 H 0.35091 0.71143 0.48153 0.0
H2394 H 0.41522 0.77043 0.41168 0.0
H2395 H 0.40242 0.74313 0.43595 0.0
H2396 H 0.41222 0.75602 0.5004 0.0
C2397 C 0.36567 0.70886 0.54323 0.0
C2398 C 0.36461 0.72065 0.48577 0.0
C2399 C 0.35697 0.69529 0.55818 0.0
C2400 C 0.41018 0.77489 0.42735 0.0
C2401 C 0.40284 0.75936 0.44113 0.0
C2402 C 0.39891 0.74621 0.49616 0.0
C2403 C 0.36533 0.70368 0.52168 0.0
C2404 C 0.37407 0.71855 0.50573 0.0
C2405 C 0.39654 0.76474 0.46161 0.0
C2406 C 0.38925 0.74838 0.47644 0.0
H2407 H 0.3398 0.65652 0.52535 0.0
H2408 H 0.35584 0.67971 0.49919 0.0
H2409 H 0.39964 0.72983 0.5255 0.0
H2410 H 0.40467 0.81766 0.45932 0.0
H2411 H 0.39239 0.79035 0.48369 0.0
C2412 C 0.98296 0.64401 0.1557 0.0
C2413 C 0.96928 0.65936 0.16398 0.0
C2414 C 0.99943 0.63585 0.16793 0.0
C2415 C 0.03221 0.647 0.21459 0.0
H2416 H 0.03675 0.58635 0.21991 0.0
C2417 C 0.09304 0.60704 0.26976 0.0
C2418 C 0.08432 0.59185 0.28337 0.0
C2419 C 0.08144 0.6148 0.25268 0.0
C2420 C 0.03575 0.60332 0.21847 0.0
H2421 H 0.96225 0.67783 0.1919 0.0
H2422 H 0.99114 0.66408 0.21276 0.0
H2423 H 0.01204 0.60149 0.19451 0.0
H2424 H 0.05636 0.57305 0.28946 0.0
H2425 H 0.03655 0.58615 0.25953 0.0
H2426 H 0.05547 0.64886 0.23896 0.0
C2427 C 0.98927 0.65853 0.19675 0.0
C2428 C 0.02174 0.61197 0.20383 0.0
C2429 C 0.9727 0.66647 0.18469 0.0
C2430 C 0.06388 0.58434 0.27914 0.0
C2431 C 0.05243 0.5919 0.26197 0.0
C2432 C 0.04639 0.63836 0.22905 0.0
C2433 C 0.00273 0.64305 0.18858 0.0
C2434 C 0.01946 0.6339 0.20211 0.0
C2435 C 0.06097 0.60736 0.24868 0.0
C2436 C 0.04794 0.61643 0.2315 0.0
H2437 H 0.98104 0.63832 0.13976 0.0
H2438 H 0.00965 0.62398 0.16121 0.0
H2439 H 0.0309 0.66397 0.21346 0.0
H2440 H 0.10883 0.61298 0.27227 0.0
H2441 H 0.08846 0.62662 0.24259 0.0
C2442 C 0.16609 0.34113 0.0152 0.0
C2443 C 0.15444 0.34399 0.03377 0.0
C2444 C 0.15765 0.32964 0.99841 0.0
C2445 C 0.1076 0.3053 0.97871 0.0
H2446 H 0.14586 0.26673 0.95088 0.0
C2447 C 0.08185 0.228 0.93911 0.0
C2448 C 0.09023 0.22312 0.91917 0.0
C2449 C 0.08889 0.24557 0.95025 0.0
C2450 C 0.13505 0.27764 0.95829 0.0
H2451 H 0.12479 0.33735 0.04927 0.0
H2452 H 0.1103 0.31686 0.02043 0.0
H2453 H 0.15972 0.29251 0.97564 0.0
H2454 H 0.11228 0.23362 0.89518 0.0
H2455 H 0.12516 0.26382 0.91519 0.0
H2456 H 0.08283 0.28943 0.96215 0.0
C2457 C 0.12568 0.32394 0.01839 0.0
C2458 C 0.14297 0.29251 0.97244 0.0
C2459 C 0.134 0.33565 0.03502 0.0
C2460 C 0.10571 0.23655 0.91062 0.0
C2461 C 0.11301 0.25395 0.92198 0.0
C2462 C 0.09967 0.29022 0.96481 0.0
C2463 C 0.1375 0.32049 0.99997 0.0
C2464 C 0.12931 0.30629 0.98316 0.0
C2465 C 0.10473 0.25854 0.94194 0.0
C2466 C 0.11328 0.27603 0.95475 0.0
H2467 H 0.18182 0.34758 0.01375 0.0
H2468 H 0.16706 0.3277 0.98434 0.0
H2469 H 0.09664 0.31595 0.98625 0.0
H2470 H 0.07031 0.21788 0.94652 0.0
H2471 H 0.08247 0.24857 0.96576 0.0
C2472 C 0.234 0.92632 0.08421 0.0
C2473 C 0.21319 0.93169 0.08957 0.0
C2474 C 0.251 0.93751 0.09264 0.0
C2475 C 0.28267 0.97222 0.10278 0.0
H2476 H 0.2803 0.99065 0.16089 0.0
C2477 C 0.33432 0.03917 0.13602 0.0
C2478 C 0.34072 0.03816 0.15717 0.0
C2479 C 0.32125 0.02363 0.12755 0.0
C2480 C 0.28141 0.98539 0.14472 0.0
H2481 H 0.19393 0.95327 0.10768 0.0
H2482 H 0.22351 0.97278 0.12232 0.0
H2483 H 0.25241 0.96839 0.14696 0.0
H2484 H 0.33966 0.0193 0.18561 0.0
H2485 H 0.317 0.99203 0.17077 0.0
H2486 H 0.31174 0.98922 0.10059 0.0
C2487 C 0.22674 0.95967 0.11192 0.0
C2488 C 0.26525 0.97286 0.13665 0.0
C2489 C 0.20977 0.9485 0.10351 0.0
C2490 C 0.3347 0.02069 0.16935 0.0
C2491 C 0.32168 0.0051 0.16087 0.0
C2492 C 0.29887 0.98477 0.11086 0.0
C2493 C 0.24755 0.9543 0.10662 0.0
C2494 C 0.26551 0.9664 0.1155 0.0
C2495 C 0.31434 0.00669 0.14003 0.0
C2496 C 0.29828 0.99174 0.13186 0.0
H2497 H 0.23719 0.91325 0.07375 0.0
H2498 H 0.26685 0.93282 0.08843 0.0
H2499 H 0.28329 0.9676 0.08638 0.0
H2500 H 0.33848 0.05256 0.12629 0.0
H2501 H 0.31572 0.02549 0.11153 0.0
C2502 C 0.83601 0.48409 0.84773 0.0
C2503 C 0.82813 0.46829 0.83436 0.0
C2504 C 0.82284 0.50024 0.8549 0.0
C2505 C 0.77173 0.52652 0.84432 0.0
H2506 H 0.77257 0.53905 0.90403 0.0
C2507 C 0.70203 0.56578 0.88677 0.0
C2508 C 0.70628 0.58042 0.90279 0.0
C2509 C 0.71837 0.55449 0.87734 0.0
C2510 C 0.77235 0.53601 0.88726 0.0
H2511 H 0.80014 0.45714 0.81817 0.0
H2512 H 0.77742 0.48524 0.83046 0.0
H2513 H 0.79889 0.51531 0.88928 0.0
H2514 H 0.73116 0.59518 0.92097 0.0
H2515 H 0.7597 0.57537 0.90456 0.0
H2516 H 0.74492 0.54685 0.84237 0.0
C2517 C 0.79383 0.4854 0.83514 0.0
C2518 C 0.78745 0.52242 0.8788 0.0
C2519 C 0.80691 0.46926 0.82806 0.0
C2520 C 0.72731 0.58375 0.90892 0.0
C2521 C 0.74367 0.57244 0.8995 0.0
C2522 C 0.75665 0.5401 0.85276 0.0
C2523 C 0.80156 0.50097 0.84878 0.0
C2524 C 0.78705 0.51719 0.85731 0.0
C2525 C 0.73937 0.55757 0.88371 0.0
C2526 C 0.75653 0.54469 0.8744 0.0
H2527 H 0.85233 0.48397 0.85269 0.0
H2528 H 0.82931 0.51215 0.86525 0.0
H2529 H 0.77123 0.52309 0.82763 0.0
H2530 H 0.68599 0.56259 0.88189 0.0
H2531 H 0.71448 0.5429 0.86547 0.0
C2532 C 0.2896 0.07884 0.61851 0.0
C2533 C 0.28713 0.08781 0.59844 0.0
C2534 C 0.274 0.0658 0.62689 0.0
C2535 C 0.21844 0.05046 0.62421 0.0
H2536 H 0.2391 0.996 0.64246 0.0
C2537 C 0.16272 0.98142 0.6476 0.0
C2538 C 0.16953 0.96781 0.66374 0.0
C2539 C 0.17607 0.99717 0.63975 0.0
C2540 C 0.23301 0.01124 0.63782 0.0
H2541 H 0.26588 0.09113 0.57192 0.0
H2542 H 0.23838 0.06846 0.5868 0.0
H2543 H 0.26376 0.0222 0.62949 0.0
H2544 H 0.19598 0.96047 0.68423 0.0
H2545 H 0.2184 0.98841 0.67163 0.0
H2546 H 0.18768 0.03967 0.63299 0.0
C2547 C 0.25249 0.07145 0.59591 0.0
C2548 C 0.2472 0.02622 0.63029 0.0
C2549 C 0.26826 0.08429 0.58737 0.0
C2550 C 0.18985 0.97076 0.6721 0.0
C2551 C 0.203 0.98662 0.66452 0.0
C2552 C 0.2042 0.03553 0.63208 0.0
C2553 C 0.25548 0.06165 0.61551 0.0
C2554 C 0.2401 0.046 0.6235 0.0
C2555 C 0.1965 0.9998 0.64797 0.0
C2556 C 0.21134 0.01575 0.63912 0.0
H2557 H 0.30403 0.08111 0.62733 0.0
H2558 H 0.2766 0.05856 0.64212 0.0
H2559 H 0.21258 0.06564 0.61907 0.0
H2560 H 0.14711 0.9799 0.6409 0.0
H2561 H 0.17053 0.00692 0.62692 0.0
C2562 C 0.68987 0.53327 0.3328 0.0
C2563 C 0.66843 0.53632 0.33762 0.0
C2564 C 0.70092 0.5161 0.34091 0.0
C2565 C 0.70312 0.48136 0.38591 0.0
H2566 H 0.74081 0.44828 0.35105 0.0
C2567 C 0.77622 0.43773 0.41727 0.0
C2568 C 0.78033 0.41723 0.40988 0.0
C2569 C 0.75962 0.44955 0.40902 0.0
C2570 C 0.73016 0.45719 0.36095 0.0
H2571 H 0.64183 0.52309 0.35463 0.0
H2572 H 0.66152 0.49353 0.36948 0.0
H2573 H 0.71714 0.4739 0.33465 0.0
H2574 H 0.7694 0.39298 0.38838 0.0
H2575 H 0.74092 0.41409 0.37343 0.0
H2576 H 0.71681 0.46529 0.41229 0.0
C2577 C 0.66958 0.50452 0.35922 0.0
C2578 C 0.71674 0.47193 0.35159 0.0
C2579 C 0.65837 0.52155 0.35079 0.0
C2580 C 0.76706 0.4088 0.39423 0.0
C2581 C 0.75063 0.42082 0.38573 0.0
C2582 C 0.71678 0.46685 0.3953 0.0
C2583 C 0.69097 0.50168 0.35436 0.0
C2584 C 0.70335 0.4844 0.36401 0.0
C2585 C 0.74687 0.44137 0.39295 0.0
C2586 C 0.73067 0.45488 0.38293 0.0
H2587 H 0.69842 0.54448 0.32321 0.0
H2588 H 0.7175 0.51449 0.3372 0.0
H2589 H 0.69305 0.49086 0.39586 0.0
H2590 H 0.78627 0.44506 0.42891 0.0
H2591 H 0.75729 0.46548 0.41465 0.0
loop_
_geom_bond_atom_site_label_1
_geom_bond_atom_site_label_2
_geom_bond_distance
_geom_bond_site_symmetry_2
_ccdc_geom_bond_type
C0 C1 1.351 . S
C0 N3 1.368 . S
C0 H5 0.931 . S
C1 C0 1.351 . S
C1 N2 1.373 . S
C1 H29 0.930 . S
N2 C1 1.373 . S
N2 C4 1.340 . S
N3 C0 1.368 . S
N3 C4 1.321 . S
N3 Co6 2.135 . S
C4 N2 1.340 . S
C4 N3 1.321 . S
C4 H28 0.930 . S
H5 C0 0.931 . S
Co6 N3 2.135 . S
Co6 N9 2.121 . S
Co6 O14 2.055 . S
Co6 O17 2.039 . S
Co6 N20 2.140 . S
C7 O8 1.227 . S
C7 O17 1.265 . S
O8 C7 1.227 . S
N9 Co6 2.121 . S
N9 C11 1.375 . S
N9 C12 1.313 . S
C10 C11 1.338 . S
C10 N13 1.377 . S
C10 H30 0.930 . S
C11 N9 1.375 . S
C11 C10 1.338 . S
C11 H15 0.931 . S
C12 N9 1.313 . S
C12 N13 1.344 . S
C12 H16 0.930 . S
N13 C10 1.377 . S
N13 C12 1.344 . S
O14 Co6 2.055 . S
O14 C18 1.253 . S
H15 C11 0.931 . S
H16 C12 0.930 . S
O17 Co6 2.039 . S
O17 C7 1.265 . S
C18 O14 1.253 . S
C18 O19 1.227 . S
O19 C18 1.227 . S
N20 Co6 2.140 . S
N20 C23 1.346 . S
N20 C24 1.345 . S
C21 C22 1.387 . S
C21 C25 1.391 . S
C22 C21 1.387 . S
C22 C23 1.369 . S
C22 H31 0.929 . S
C23 N20 1.346 . S
C23 C22 1.369 . S
C23 H26 0.928 . S
C24 N20 1.345 . S
C24 C25 1.371 . S
C24 H27 0.931 . S
C25 C21 1.391 . S
C25 C24 1.371 . S
C25 H32 0.930 . S
H26 C23 0.928 . S
H27 C24 0.931 . S
H28 C4 0.930 . S
H29 C1 0.930 . S
H30 C10 0.930 . S
H31 C22 0.929 . S
H32 C25 0.930 . S
C33 C34 1.351 . S
C33 N36 1.368 . S
C33 H38 0.931 . S
C34 C33 1.351 . S
C34 N35 1.373 . S
C34 H62 0.930 . S
N35 C34 1.373 . S
N35 C37 1.340 . S
N36 C33 1.368 . S
N36 C37 1.321 . S
N36 Co39 2.135 . S
C37 N35 1.340 . S
C37 N36 1.321 . S
C37 H61 0.930 . S
H38 C33 0.931 . S
Co39 N36 2.135 . S
Co39 N42 2.121 . S
Co39 O47 2.055 . S
Co39 O50 2.039 . S
Co39 N53 2.140 . S
C40 O41 1.227 . S
C40 O50 1.265 . S
O41 C40 1.227 . S
N42 Co39 2.121 . S
N42 C44 1.375 . S
N42 C45 1.313 . S
C43 C44 1.338 . S
C43 N46 1.377 . S
C43 H63 0.930 . S
C44 N42 1.375 . S
C44 C43 1.338 . S
C44 H48 0.931 . S
C45 N42 1.313 . S
C45 N46 1.344 . S
C45 H49 0.930 . S
N46 C43 1.377 . S
N46 C45 1.344 . S
O47 Co39 2.055 . S
O47 C51 1.253 . S
H48 C44 0.931 . S
H49 C45 0.930 . S
O50 Co39 2.039 . S
O50 C40 1.265 . S
C51 O47 1.253 . S
C51 O52 1.227 . S
O52 C51 1.227 . S
N53 Co39 2.140 . S
N53 C56 1.346 . S
N53 C57 1.345 . S
C54 C55 1.387 . S
C54 C58 1.391 . S
C55 C54 1.387 . S
C55 C56 1.369 . S
C55 H64 0.929 . S
C56 N53 1.346 . S
C56 C55 1.369 . S
C56 H59 0.928 . S
C57 N53 1.345 . S
C57 C58 1.371 . S
C57 H60 0.931 . S
C58 C54 1.391 . S
C58 C57 1.371 . S
C58 H65 0.930 . S
H59 C56 0.928 . S
H60 C57 0.931 . S
H61 C37 0.930 . S
H62 C34 0.930 . S
H63 C43 0.930 . S
H64 C55 0.929 . S
H65 C58 0.930 . S
C66 C67 1.351 . S
C66 N69 1.368 . S
C66 H71 0.931 . S
C67 C66 1.351 . S
C67 N68 1.373 . S
C67 H95 0.930 . S
N68 C67 1.373 . S
N68 C70 1.340 . S
N69 C66 1.368 . S
N69 C70 1.321 . S
N69 Co72 2.135 . S
C70 N68 1.340 . S
C70 N69 1.321 . S
C70 H94 0.930 . S
H71 C66 0.931 . S
Co72 N69 2.135 . S
Co72 N75 2.121 . S
Co72 O80 2.055 . S
Co72 O83 2.039 . S
Co72 N86 2.140 . S
C73 O74 1.227 . S
C73 O83 1.265 . S
O74 C73 1.227 . S
N75 Co72 2.121 . S
N75 C77 1.375 . S
N75 C78 1.313 . S
C76 C77 1.338 . S
C76 N79 1.377 . S
C76 H96 0.930 . S
C77 N75 1.375 . S
C77 C76 1.338 . S
C77 H81 0.931 . S
C78 N75 1.313 . S
C78 N79 1.344 . S
C78 H82 0.930 . S
N79 C76 1.377 . S
N79 C78 1.344 . S
O80 Co72 2.055 . S
O80 C84 1.253 . S
H81 C77 0.931 . S
H82 C78 0.930 . S
O83 Co72 2.039 . S
O83 C73 1.265 . S
C84 O80 1.253 . S
C84 O85 1.227 . S
O85 C84 1.227 . S
N86 Co72 2.140 . S
N86 C89 1.346 . S
N86 C90 1.345 . S
C87 C88 1.387 . S
C87 C91 1.391 . S
C88 C87 1.387 . S
C88 C89 1.369 . S
C88 H97 0.929 . S
C89 N86 1.346 . S
C89 C88 1.369 . S
C89 H92 0.928 . S
C90 N86 1.345 . S
C90 C91 1.371 . S
C90 H93 0.931 . S
C91 C87 1.391 . S
C91 C90 1.371 . S
C91 H98 0.930 . S
H92 C89 0.928 . S
H93 C90 0.931 . S
H94 C70 0.930 . S
H95 C67 0.930 . S
H96 C76 0.930 . S
H97 C88 0.929 . S
H98 C91 0.930 . S
C99 C100 1.351 . S
C99 N102 1.368 . S
C99 H104 0.931 . S
C100 C99 1.351 . S
C100 N101 1.373 . S
C100 H128 0.930 . S
N101 C100 1.373 . S
N101 C103 1.340 . S
N102 C99 1.368 . S
N102 C103 1.321 . S
N102 Co105 2.135 . S
C103 N101 1.340 . S
C103 N102 1.321 . S
C103 H127 0.930 . S
H104 C99 0.931 . S
Co105 N102 2.135 . S
Co105 N108 2.121 . S
Co105 O113 2.055 . S
Co105 O116 2.039 . S
Co105 N119 2.140 . S
C106 O107 1.227 . S
C106 O116 1.265 . S
O107 C106 1.227 . S
N108 Co105 2.121 . S
N108 C110 1.375 . S
N108 C111 1.313 . S
C109 C110 1.338 . S
C109 N112 1.377 . S
C109 H129 0.930 . S
C110 N108 1.375 . S
C110 C109 1.338 . S
C110 H114 0.931 . S
C111 N108 1.313 . S
C111 N112 1.344 . S
C111 H115 0.930 . S
N112 C109 1.377 . S
N112 C111 1.344 . S
O113 Co105 2.055 . S
O113 C117 1.253 . S
H114 C110 0.931 . S
H115 C111 0.930 . S
O116 Co105 2.039 . S
O116 C106 1.265 . S
C117 O113 1.253 . S
C117 O118 1.227 . S
O118 C117 1.227 . S
N119 Co105 2.140 . S
N119 C122 1.346 . S
N119 C123 1.345 . S
C120 C121 1.387 . S
C120 C124 1.391 . S
C121 C120 1.387 . S
C121 C122 1.369 . S
C121 H130 0.929 . S
C122 N119 1.346 . S
C122 C121 1.369 . S
C122 H125 0.928 . S
C123 N119 1.345 . S
C123 C124 1.371 . S
C123 H126 0.931 . S
C124 C120 1.391 . S
C124 C123 1.371 . S
C124 H131 0.930 . S
H125 C122 0.928 . S
H126 C123 0.931 . S
H127 C103 0.930 . S
H128 C100 0.930 . S
H129 C109 0.930 . S
H130 C121 0.929 . S
H131 C124 0.930 . S
C132 C133 1.351 . S
C132 N135 1.368 . S
C132 H137 0.931 . S
C133 C132 1.351 . S
C133 N134 1.373 . S
C133 H161 0.930 . S
N134 C133 1.373 . S
N134 C136 1.340 . S
N135 C132 1.368 . S
N135 C136 1.321 . S
N135 Co138 2.135 . S
C136 N134 1.340 . S
C136 N135 1.321 . S
C136 H160 0.930 . S
H137 C132 0.931 . S
Co138 N135 2.135 . S
Co138 N141 2.121 . S
Co138 O146 2.055 . S
Co138 O149 2.039 . S
Co138 N152 2.140 . S
C139 O140 1.227 . S
C139 O149 1.265 . S
O140 C139 1.227 . S
N141 Co138 2.121 . S
N141 C143 1.375 . S
N141 C144 1.313 . S
C142 C143 1.338 . S
C142 N145 1.377 . S
C142 H162 0.930 . S
C143 N141 1.375 . S
C143 C142 1.338 . S
C143 H147 0.931 . S
C144 N141 1.313 . S
C144 N145 1.344 . S
C144 H148 0.930 . S
N145 C142 1.377 . S
N145 C144 1.344 . S
O146 Co138 2.055 . S
O146 C150 1.253 . S
H147 C143 0.931 . S
H148 C144 0.930 . S
O149 Co138 2.039 . S
O149 C139 1.265 . S
C150 O146 1.253 . S
C150 O151 1.227 . S
O151 C150 1.227 . S
N152 Co138 2.140 . S
N152 C155 1.346 . S
N152 C156 1.345 . S
C153 C154 1.387 . S
C153 C157 1.391 . S
C154 C153 1.387 . S
C154 C155 1.369 . S
C154 H163 0.929 . S
C155 N152 1.346 . S
C155 C154 1.369 . S
C155 H158 0.928 . S
C156 N152 1.345 . S
C156 C157 1.371 . S
C156 H159 0.931 . S
C157 C153 1.391 . S
C157 C156 1.371 . S
C157 H164 0.930 . S
H158 C155 0.928 . S
H159 C156 0.931 . S
H160 C136 0.930 . S
H161 C133 0.930 . S
H162 C142 0.930 . S
H163 C154 0.929 . S
H164 C157 0.930 . S
C165 C166 1.351 . S
C165 N168 1.368 . S
C165 H170 0.931 . S
C166 C165 1.351 . S
C166 N167 1.373 . S
C166 H194 0.930 . S
N167 C166 1.373 . S
N167 C169 1.340 . S
N168 C165 1.368 . S
N168 C169 1.321 . S
N168 Co171 2.135 . S
C169 N167 1.340 . S
C169 N168 1.321 . S
C169 H193 0.930 . S
H170 C165 0.931 . S
Co171 N168 2.135 . S
Co171 N174 2.121 . S
Co171 O179 2.055 . S
Co171 O182 2.039 . S
Co171 N185 2.140 . S
C172 O173 1.227 . S
C172 O182 1.265 . S
O173 C172 1.227 . S
N174 Co171 2.121 . S
N174 C176 1.375 . S
N174 C177 1.313 . S
C175 C176 1.338 . S
C175 N178 1.377 . S
C175 H195 0.930 . S
C176 N174 1.375 . S
C176 C175 1.338 . S
C176 H180 0.931 . S
C177 N174 1.313 . S
C177 N178 1.344 . S
C177 H181 0.930 . S
N178 C175 1.377 . S
N178 C177 1.344 . S
O179 Co171 2.055 . S
O179 C183 1.253 . S
H180 C176 0.931 . S
H181 C177 0.930 . S
O182 Co171 2.039 . S
O182 C172 1.265 . S
C183 O179 1.253 . S
C183 O184 1.227 . S
O184 C183 1.227 . S
N185 Co171 2.140 . S
N185 C188 1.346 . S
N185 C189 1.345 . S
C186 C187 1.387 . S
C186 C190 1.391 . S
C187 C186 1.387 . S
C187 C188 1.369 . S
C187 H196 0.929 . S
C188 N185 1.346 . S
C188 C187 1.369 . S
C188 H191 0.928 . S
C189 N185 1.345 . S
C189 C190 1.371 . S
C189 H192 0.931 . S
C190 C186 1.391 . S
C190 C189 1.371 . S
C190 H197 0.930 . S
H191 C188 0.928 . S
H192 C189 0.931 . S
H193 C169 0.930 . S
H194 C166 0.930 . S
H195 C175 0.930 . S
H196 C187 0.929 . S
H197 C190 0.930 . S
C198 C199 1.351 . S
C198 N201 1.368 . S
C198 H203 0.931 . S
C199 C198 1.351 . S
C199 N200 1.373 . S
C199 H227 0.930 . S
N200 C199 1.373 . S
N200 C202 1.340 . S
N201 C198 1.368 . S
N201 C202 1.321 . S
N201 Co204 2.135 . S
C202 N200 1.340 . S
C202 N201 1.321 . S
C202 H226 0.930 . S
H203 C198 0.931 . S
Co204 N201 2.135 . S
Co204 N207 2.121 . S
Co204 O212 2.055 . S
Co204 O215 2.039 . S
Co204 N218 2.140 . S
C205 O206 1.227 . S
C205 O215 1.265 . S
O206 C205 1.227 . S
N207 Co204 2.121 . S
N207 C209 1.375 . S
N207 C210 1.313 . S
C208 C209 1.338 . S
C208 N211 1.377 . S
C208 H228 0.930 . S
C209 N207 1.375 . S
C209 C208 1.338 . S
C209 H213 0.931 . S
C210 N207 1.313 . S
C210 N211 1.344 . S
C210 H214 0.930 . S
N211 C208 1.377 . S
N211 C210 1.344 . S
O212 Co204 2.055 . S
O212 C216 1.253 . S
H213 C209 0.931 . S
H214 C210 0.930 . S
O215 Co204 2.039 . S
O215 C205 1.265 . S
C216 O212 1.253 . S
C216 O217 1.227 . S
O217 C216 1.227 . S
N218 Co204 2.140 . S
N218 C221 1.346 . S
N218 C222 1.345 . S
C219 C220 1.387 . S
C219 C223 1.391 . S
C220 C219 1.387 . S
C220 C221 1.369 . S
C220 H229 0.929 . S
C221 N218 1.346 . S
C221 C220 1.369 . S
C221 H224 0.928 . S
C222 N218 1.345 . S
C222 C223 1.371 . S
C222 H225 0.931 . S
C223 C219 1.391 . S
C223 C222 1.371 . S
C223 H230 0.930 . S
H224 C221 0.928 . S
H225 C222 0.931 . S
H226 C202 0.930 . S
H227 C199 0.930 . S
H228 C208 0.930 . S
H229 C220 0.929 . S
H230 C223 0.930 . S
C231 C232 1.351 . S
C231 N234 1.368 . S
C231 H236 0.931 . S
C232 C231 1.351 . S
C232 N233 1.373 . S
C232 H260 0.930 . S
N233 C232 1.373 . S
N233 C235 1.340 . S
N234 C231 1.368 . S
N234 C235 1.321 . S
N234 Co237 2.135 . S
C235 N233 1.340 . S
C235 N234 1.321 . S
C235 H259 0.930 . S
H236 C231 0.931 . S
Co237 N234 2.135 . S
Co237 N240 2.121 . S
Co237 O245 2.055 . S
Co237 O248 2.039 . S
Co237 N251 2.140 . S
C238 O239 1.227 . S
C238 O248 1.265 . S
O239 C238 1.227 . S
N240 Co237 2.121 . S
N240 C242 1.375 . S
N240 C243 1.313 . S
C241 C242 1.338 . S
C241 N244 1.377 . S
C241 H261 0.930 . S
C242 N240 1.375 . S
C242 C241 1.338 . S
C242 H246 0.931 . S
C243 N240 1.313 . S
C243 N244 1.344 . S
C243 H247 0.930 . S
N244 C241 1.377 . S
N244 C243 1.344 . S
O245 Co237 2.055 . S
O245 C249 1.253 . S
H246 C242 0.931 . S
H247 C243 0.930 . S
O248 Co237 2.039 . S
O248 C238 1.265 . S
C249 O245 1.253 . S
C249 O250 1.227 . S
O250 C249 1.227 . S
N251 Co237 2.140 . S
N251 C254 1.346 . S
N251 C255 1.345 . S
C252 C253 1.387 . S
C252 C256 1.391 . S
C253 C252 1.387 . S
C253 C254 1.369 . S
C253 H262 0.929 . S
C254 N251 1.346 . S
C254 C253 1.369 . S
C254 H257 0.928 . S
C255 N251 1.345 . S
C255 C256 1.371 . S
C255 H258 0.931 . S
C256 C252 1.391 . S
C256 C255 1.371 . S
C256 H263 0.930 . S
H257 C254 0.928 . S
H258 C255 0.931 . S
H259 C235 0.930 . S
H260 C232 0.930 . S
H261 C241 0.930 . S
H262 C253 0.929 . S
H263 C256 0.930 . S
C264 C265 1.351 . S
C264 N267 1.368 . S
C264 H269 0.931 . S
C265 C264 1.351 . S
C265 N266 1.373 . S
C265 H293 0.930 . S
N266 C265 1.373 . S
N266 C268 1.340 . S
N267 C264 1.368 . S
N267 C268 1.321 . S
N267 Co270 2.135 . S
C268 N266 1.340 . S
C268 N267 1.321 . S
C268 H292 0.930 . S
H269 C264 0.931 . S
Co270 N267 2.135 . S
Co270 N273 2.121 . S
Co270 O278 2.055 . S
Co270 O281 2.039 . S
Co270 N284 2.140 . S
C271 O272 1.227 . S
C271 O281 1.265 . S
O272 C271 1.227 . S
N273 Co270 2.121 . S
N273 C275 1.375 . S
N273 C276 1.313 . S
C274 C275 1.338 . S
C274 N277 1.377 . S
C274 H294 0.930 . S
C275 N273 1.375 . S
C275 C274 1.338 . S
C275 H279 0.931 . S
C276 N273 1.313 . S
C276 N277 1.344 . S
C276 H280 0.930 . S
N277 C274 1.377 . S
N277 C276 1.344 . S
O278 Co270 2.055 . S
O278 C282 1.253 . S
H279 C275 0.931 . S
H280 C276 0.930 . S
O281 Co270 2.039 . S
O281 C271 1.265 . S
C282 O278 1.253 . S
C282 O283 1.227 . S
O283 C282 1.227 . S
N284 Co270 2.140 . S
N284 C287 1.346 . S
N284 C288 1.345 . S
C285 C286 1.387 . S
C285 C289 1.391 . S
C286 C285 1.387 . S
C286 C287 1.369 . S
C286 H295 0.929 . S
C287 N284 1.346 . S
C287 C286 1.369 . S
C287 H290 0.928 . S
C288 N284 1.345 . S
C288 C289 1.371 . S
C288 H291 0.931 . S
C289 C285 1.391 . S
C289 C288 1.371 . S
C289 H296 0.930 . S
H290 C287 0.928 . S
H291 C288 0.931 . S
H292 C268 0.930 . S
H293 C265 0.930 . S
H294 C274 0.930 . S
H295 C286 0.929 . S
H296 C289 0.930 . S
C297 C298 1.351 . S
C297 N300 1.368 . S
C297 H302 0.931 . S
C298 C297 1.351 . S
C298 N299 1.373 . S
C298 H326 0.930 . S
N299 C298 1.373 . S
N299 C301 1.340 . S
N300 C297 1.368 . S
N300 C301 1.321 . S
N300 Co303 2.135 . S
C301 N299 1.340 . S
C301 N300 1.321 . S
C301 H325 0.930 . S
H302 C297 0.931 . S
Co303 N300 2.135 . S
Co303 N306 2.121 . S
Co303 O311 2.055 . S
Co303 O314 2.039 . S
Co303 N317 2.140 . S
C304 O305 1.227 . S
C304 O314 1.265 . S
O305 C304 1.227 . S
N306 Co303 2.121 . S
N306 C308 1.375 . S
N306 C309 1.313 . S
C307 C308 1.338 . S
C307 N310 1.377 . S
C307 H327 0.930 . S
C308 N306 1.375 . S
C308 C307 1.338 . S
C308 H312 0.931 . S
C309 N306 1.313 . S
C309 N310 1.344 . S
C309 H313 0.930 . S
N310 C307 1.377 . S
N310 C309 1.344 . S
O311 Co303 2.055 . S
O311 C315 1.253 . S
H312 C308 0.931 . S
H313 C309 0.930 . S
O314 Co303 2.039 . S
O314 C304 1.265 . S
C315 O311 1.253 . S
C315 O316 1.227 . S
O316 C315 1.227 . S
N317 Co303 2.140 . S
N317 C320 1.346 . S
N317 C321 1.345 . S
C318 C319 1.387 . S
C318 C322 1.391 . S
C319 C318 1.387 . S
C319 C320 1.369 . S
C319 H328 0.929 . S
C320 N317 1.346 . S
C320 C319 1.369 . S
C320 H323 0.928 . S
C321 N317 1.345 . S
C321 C322 1.371 . S
C321 H324 0.931 . S
C322 C318 1.391 . S
C322 C321 1.371 . S
C322 H329 0.930 . S
H323 C320 0.928 . S
H324 C321 0.931 . S
H325 C301 0.930 . S
H326 C298 0.930 . S
H327 C307 0.930 . S
H328 C319 0.929 . S
H329 C322 0.930 . S
C330 C331 1.351 . S
C330 N333 1.368 . S
C330 H335 0.931 . S
C331 C330 1.351 . S
C331 N332 1.373 . S
C331 H359 0.930 . S
N332 C331 1.373 . S
N332 C334 1.340 . S
N333 C330 1.368 . S
N333 C334 1.321 . S
N333 Co336 2.135 . S
C334 N332 1.340 . S
C334 N333 1.321 . S
C334 H358 0.930 . S
H335 C330 0.931 . S
Co336 N333 2.135 . S
Co336 N339 2.121 . S
Co336 O344 2.055 . S
Co336 O347 2.039 . S
Co336 N350 2.140 . S
C337 O338 1.227 . S
C337 O347 1.265 . S
O338 C337 1.227 . S
N339 Co336 2.121 . S
N339 C341 1.375 . S
N339 C342 1.313 . S
C340 C341 1.338 . S
C340 N343 1.377 . S
C340 H360 0.930 . S
C341 N339 1.375 . S
C341 C340 1.338 . S
C341 H345 0.931 . S
C342 N339 1.313 . S
C342 N343 1.344 . S
C342 H346 0.930 . S
N343 C340 1.377 . S
N343 C342 1.344 . S
O344 Co336 2.055 . S
O344 C348 1.253 . S
H345 C341 0.931 . S
H346 C342 0.930 . S
O347 Co336 2.039 . S
O347 C337 1.265 . S
C348 O344 1.253 . S
C348 O349 1.227 . S
O349 C348 1.227 . S
N350 Co336 2.140 . S
N350 C353 1.346 . S
N350 C354 1.345 . S
C351 C352 1.387 . S
C351 C355 1.391 . S
C352 C351 1.387 . S
C352 C353 1.369 . S
C352 H361 0.929 . S
C353 N350 1.346 . S
C353 C352 1.369 . S
C353 H356 0.928 . S
C354 N350 1.345 . S
C354 C355 1.371 . S
C354 H357 0.931 . S
C355 C351 1.391 . S
C355 C354 1.371 . S
C355 H362 0.930 . S
H356 C353 0.928 . S
H357 C354 0.931 . S
H358 C334 0.930 . S
H359 C331 0.930 . S
H360 C340 0.930 . S
H361 C352 0.929 . S
H362 C355 0.930 . S
C363 C364 1.351 . S
C363 N366 1.368 . S
C363 H368 0.931 . S
C364 C363 1.351 . S
C364 N365 1.373 . S
C364 H392 0.930 . S
N365 C364 1.373 . S
N365 C367 1.340 . S
N366 C363 1.368 . S
N366 C367 1.321 . S
N366 Co369 2.135 . S
C367 N365 1.340 . S
C367 N366 1.321 . S
C367 H391 0.930 . S
H368 C363 0.931 . S
Co369 N366 2.135 . S
Co369 N372 2.121 . S
Co369 O377 2.055 . S
Co369 O380 2.039 . S
Co369 N383 2.140 . S
C370 O371 1.227 . S
C370 O380 1.265 . S
O371 C370 1.227 . S
N372 Co369 2.121 . S
N372 C374 1.375 . S
N372 C375 1.313 . S
C373 C374 1.338 . S
C373 N376 1.377 . S
C373 H393 0.930 . S
C374 N372 1.375 . S
C374 C373 1.338 . S
C374 H378 0.931 . S
C375 N372 1.313 . S
C375 N376 1.344 . S
C375 H379 0.930 . S
N376 C373 1.377 . S
N376 C375 1.344 . S
O377 Co369 2.055 . S
O377 C381 1.253 . S
H378 C374 0.931 . S
H379 C375 0.930 . S
O380 Co369 2.039 . S
O380 C370 1.265 . S
C381 O377 1.253 . S
C381 O382 1.227 . S
O382 C381 1.227 . S
N383 Co369 2.140 . S
N383 C386 1.346 . S
N383 C387 1.345 . S
C384 C385 1.387 . S
C384 C388 1.391 . S
C385 C384 1.387 . S
C385 C386 1.369 . S
C385 H394 0.929 . S
C386 N383 1.346 . S
C386 C385 1.369 . S
C386 H389 0.928 . S
C387 N383 1.345 . S
C387 C388 1.371 . S
C387 H390 0.931 . S
C388 C384 1.391 . S
C388 C387 1.371 . S
C388 H395 0.930 . S
H389 C386 0.928 . S
H390 C387 0.931 . S
H391 C367 0.930 . S
H392 C364 0.930 . S
H393 C373 0.930 . S
H394 C385 0.929 . S
H395 C388 0.930 . S
C396 C397 1.351 . S
C396 N399 1.368 . S
C396 H401 0.931 . S
C397 C396 1.351 . S
C397 N398 1.373 . S
C397 H425 0.930 . S
N398 C397 1.373 . S
N398 C400 1.340 . S
N399 C396 1.368 . S
N399 C400 1.321 . S
N399 Co402 2.135 . S
C400 N398 1.340 . S
C400 N399 1.321 . S
C400 H424 0.930 . S
H401 C396 0.931 . S
Co402 N399 2.135 . S
Co402 N405 2.121 . S
Co402 O410 2.055 . S
Co402 O413 2.039 . S
Co402 N416 2.140 . S
C403 O404 1.227 . S
C403 O413 1.265 . S
O404 C403 1.227 . S
N405 Co402 2.121 . S
N405 C407 1.375 . S
N405 C408 1.313 . S
C406 C407 1.338 . S
C406 N409 1.377 . S
C406 H426 0.930 . S
C407 N405 1.375 . S
C407 C406 1.338 . S
C407 H411 0.931 . S
C408 N405 1.313 . S
C408 N409 1.344 . S
C408 H412 0.930 . S
N409 C406 1.377 . S
N409 C408 1.344 . S
O410 Co402 2.055 . S
O410 C414 1.253 . S
H411 C407 0.931 . S
H412 C408 0.930 . S
O413 Co402 2.039 . S
O413 C403 1.265 . S
C414 O410 1.253 . S
C414 O415 1.227 . S
O415 C414 1.227 . S
N416 Co402 2.140 . S
N416 C419 1.346 . S
N416 C420 1.345 . S
C417 C418 1.387 . S
C417 C421 1.391 . S
C418 C417 1.387 . S
C418 C419 1.369 . S
C418 H427 0.929 . S
C419 N416 1.346 . S
C419 C418 1.369 . S
C419 H422 0.928 . S
C420 N416 1.345 . S
C420 C421 1.371 . S
C420 H423 0.931 . S
C421 C417 1.391 . S
C421 C420 1.371 . S
C421 H428 0.930 . S
H422 C419 0.928 . S
H423 C420 0.931 . S
H424 C400 0.930 . S
H425 C397 0.930 . S
H426 C406 0.930 . S
H427 C418 0.929 . S
H428 C421 0.930 . S
C429 C430 1.351 . S
C429 N432 1.368 . S
C429 H434 0.931 . S
C430 C429 1.351 . S
C430 N431 1.373 . S
C430 H458 0.930 . S
N431 C430 1.373 . S
N431 C433 1.340 . S
N432 C429 1.368 . S
N432 C433 1.321 . S
N432 Co435 2.135 . S
C433 N431 1.340 . S
C433 N432 1.321 . S
C433 H457 0.930 . S
H434 C429 0.931 . S
Co435 N432 2.135 . S
Co435 N438 2.121 . S
Co435 O443 2.055 . S
Co435 O446 2.039 . S
Co435 N449 2.140 . S
C436 O437 1.227 . S
C436 O446 1.265 . S
O437 C436 1.227 . S
N438 Co435 2.121 . S
N438 C440 1.375 . S
N438 C441 1.313 . S
C439 C440 1.338 . S
C439 N442 1.377 . S
C439 H459 0.930 . S
C440 N438 1.375 . S
C440 C439 1.338 . S
C440 H444 0.931 . S
C441 N438 1.313 . S
C441 N442 1.344 . S
C441 H445 0.930 . S
N442 C439 1.377 . S
N442 C441 1.344 . S
O443 Co435 2.055 . S
O443 C447 1.253 . S
H444 C440 0.931 . S
H445 C441 0.930 . S
O446 Co435 2.039 . S
O446 C436 1.265 . S
C447 O443 1.253 . S
C447 O448 1.227 . S
O448 C447 1.227 . S
N449 Co435 2.140 . S
N449 C452 1.346 . S
N449 C453 1.345 . S
C450 C451 1.387 . S
C450 C454 1.391 . S
C451 C450 1.387 . S
C451 C452 1.369 . S
C451 H460 0.929 . S
C452 N449 1.346 . S
C452 C451 1.369 . S
C452 H455 0.928 . S
C453 N449 1.345 . S
C453 C454 1.371 . S
C453 H456 0.931 . S
C454 C450 1.391 . S
C454 C453 1.371 . S
C454 H461 0.930 . S
H455 C452 0.928 . S
H456 C453 0.931 . S
H457 C433 0.930 . S
H458 C430 0.930 . S
H459 C439 0.930 . S
H460 C451 0.929 . S
H461 C454 0.930 . S
C462 C463 1.351 . S
C462 N465 1.368 . S
C462 H467 0.931 . S
C463 C462 1.351 . S
C463 N464 1.373 . S
C463 H491 0.930 . S
N464 C463 1.373 . S
N464 C466 1.340 . S
N465 C462 1.368 . S
N465 C466 1.321 . S
N465 Co468 2.135 . S
C466 N464 1.340 . S
C466 N465 1.321 . S
C466 H490 0.930 . S
H467 C462 0.931 . S
Co468 N465 2.135 . S
Co468 N471 2.121 . S
Co468 O476 2.055 . S
Co468 O479 2.039 . S
Co468 N482 2.140 . S
C469 O470 1.227 . S
C469 O479 1.265 . S
O470 C469 1.227 . S
N471 Co468 2.121 . S
N471 C473 1.375 . S
N471 C474 1.313 . S
C472 C473 1.338 . S
C472 N475 1.377 . S
C472 H492 0.930 . S
C473 N471 1.375 . S
C473 C472 1.338 . S
C473 H477 0.931 . S
C474 N471 1.313 . S
C474 N475 1.344 . S
C474 H478 0.930 . S
N475 C472 1.377 . S
N475 C474 1.344 . S
O476 Co468 2.055 . S
O476 C480 1.253 . S
H477 C473 0.931 . S
H478 C474 0.930 . S
O479 Co468 2.039 . S
O479 C469 1.265 . S
C480 O476 1.253 . S
C480 O481 1.227 . S
O481 C480 1.227 . S
N482 Co468 2.140 . S
N482 C485 1.346 . S
N482 C486 1.345 . S
C483 C484 1.387 . S
C483 C487 1.391 . S
C484 C483 1.387 . S
C484 C485 1.369 . S
C484 H493 0.929 . S
C485 N482 1.346 . S
C485 C484 1.369 . S
C485 H488 0.928 . S
C486 N482 1.345 . S
C486 C487 1.371 . S
C486 H489 0.931 . S
C487 C483 1.391 . S
C487 C486 1.371 . S
C487 H494 0.930 . S
H488 C485 0.928 . S
H489 C486 0.931 . S
H490 C466 0.930 . S
H491 C463 0.930 . S
H492 C472 0.930 . S
H493 C484 0.929 . S
H494 C487 0.930 . S
C495 C496 1.351 . S
C495 N498 1.368 . S
C495 H500 0.931 . S
C496 C495 1.351 . S
C496 N497 1.373 . S
C496 H524 0.930 . S
N497 C496 1.373 . S
N497 C499 1.340 . S
N498 C495 1.368 . S
N498 C499 1.321 . S
N498 Co501 2.135 . S
C499 N497 1.340 . S
C499 N498 1.321 . S
C499 H523 0.930 . S
H500 C495 0.931 . S
Co501 N498 2.135 . S
Co501 N504 2.121 . S
Co501 O509 2.055 . S
Co501 O512 2.039 . S
Co501 N515 2.140 . S
C502 O503 1.227 . S
C502 O512 1.265 . S
O503 C502 1.227 . S
N504 Co501 2.121 . S
N504 C506 1.375 . S
N504 C507 1.313 . S
C505 C506 1.338 . S
C505 N508 1.377 . S
C505 H525 0.930 . S
C506 N504 1.375 . S
C506 C505 1.338 . S
C506 H510 0.931 . S
C507 N504 1.313 . S
C507 N508 1.344 . S
C507 H511 0.930 . S
N508 C505 1.377 . S
N508 C507 1.344 . S
O509 Co501 2.055 . S
O509 C513 1.253 . S
H510 C506 0.931 . S
H511 C507 0.930 . S
O512 Co501 2.039 . S
O512 C502 1.265 . S
C513 O509 1.253 . S
C513 O514 1.227 . S
O514 C513 1.227 . S
N515 Co501 2.140 . S
N515 C518 1.346 . S
N515 C519 1.345 . S
C516 C517 1.387 . S
C516 C520 1.391 . S
C517 C516 1.387 . S
C517 C518 1.369 . S
C517 H526 0.929 . S
C518 N515 1.346 . S
C518 C517 1.369 . S
C518 H521 0.928 . S
C519 N515 1.345 . S
C519 C520 1.371 . S
C519 H522 0.931 . S
C520 C516 1.391 . S
C520 C519 1.371 . S
C520 H527 0.930 . S
H521 C518 0.928 . S
H522 C519 0.931 . S
H523 C499 0.930 . S
H524 C496 0.930 . S
H525 C505 0.930 . S
H526 C517 0.929 . S
H527 C520 0.930 . S
C528 C529 1.351 . S
C528 N531 1.368 . S
C528 H533 0.931 . S
C529 C528 1.351 . S
C529 N530 1.373 . S
C529 H557 0.930 . S
N530 C529 1.373 . S
N530 C532 1.340 . S
N531 C528 1.368 . S
N531 C532 1.321 . S
N531 Co534 2.135 . S
C532 N530 1.340 . S
C532 N531 1.321 . S
C532 H556 0.930 . S
H533 C528 0.931 . S
Co534 N531 2.135 . S
Co534 N537 2.121 . S
Co534 O542 2.055 . S
Co534 O545 2.039 . S
Co534 N548 2.140 . S
C535 O536 1.227 . S
C535 O545 1.265 . S
O536 C535 1.227 . S
N537 Co534 2.121 . S
N537 C539 1.375 . S
N537 C540 1.313 . S
C538 C539 1.338 . S
C538 N541 1.377 . S
C538 H558 0.930 . S
C539 N537 1.375 . S
C539 C538 1.338 . S
C539 H543 0.931 . S
C540 N537 1.313 . S
C540 N541 1.344 . S
C540 H544 0.930 . S
N541 C538 1.377 . S
N541 C540 1.344 . S
O542 Co534 2.055 . S
O542 C546 1.253 . S
H543 C539 0.931 . S
H544 C540 0.930 . S
O545 Co534 2.039 . S
O545 C535 1.265 . S
C546 O542 1.253 . S
C546 O547 1.227 . S
O547 C546 1.227 . S
N548 Co534 2.140 . S
N548 C551 1.346 . S
N548 C552 1.345 . S
C549 C550 1.387 . S
C549 C553 1.391 . S
C550 C549 1.387 . S
C550 C551 1.369 . S
C550 H559 0.929 . S
C551 N548 1.346 . S
C551 C550 1.369 . S
C551 H554 0.928 . S
C552 N548 1.345 . S
C552 C553 1.371 . S
C552 H555 0.931 . S
C553 C549 1.391 . S
C553 C552 1.371 . S
C553 H560 0.930 . S
H554 C551 0.928 . S
H555 C552 0.931 . S
H556 C532 0.930 . S
H557 C529 0.930 . S
H558 C538 0.930 . S
H559 C550 0.929 . S
H560 C553 0.930 . S
C561 C562 1.351 . S
C561 N564 1.368 . S
C561 H566 0.931 . S
C562 C561 1.351 . S
C562 N563 1.373 . S
C562 H590 0.930 . S
N563 C562 1.373 . S
N563 C565 1.340 . S
N564 C561 1.368 . S
N564 C565 1.321 . S
N564 Co567 2.135 . S
C565 N563 1.340 . S
C565 N564 1.321 . S
C565 H589 0.930 . S
H566 C561 0.931 . S
Co567 N564 2.135 . S
Co567 N570 2.121 . S
Co567 O575 2.055 . S
Co567 O578 2.039 . S
Co567 N581 2.140 . S
C568 O569 1.227 . S
C568 O578 1.265 . S
O569 C568 1.227 . S
N570 Co567 2.121 . S
N570 C572 1.375 . S
N570 C573 1.313 . S
C571 C572 1.338 . S
C571 N574 1.377 . S
C571 H591 0.930 . S
C572 N570 1.375 . S
C572 C571 1.338 . S
C572 H576 0.931 . S
C573 N570 1.313 . S
C573 N574 1.344 . S
C573 H577 0.930 . S
N574 C571 1.377 . S
N574 C573 1.344 . S
O575 Co567 2.055 . S
O575 C579 1.253 . S
H576 C572 0.931 . S
H577 C573 0.930 . S
O578 Co567 2.039 . S
O578 C568 1.265 . S
C579 O575 1.253 . S
C579 O580 1.227 . S
O580 C579 1.227 . S
N581 Co567 2.140 . S
N581 C584 1.346 . S
N581 C585 1.345 . S
C582 C583 1.387 . S
C582 C586 1.391 . S
C583 C582 1.387 . S
C583 C584 1.369 . S
C583 H592 0.929 . S
C584 N581 1.346 . S
C584 C583 1.369 . S
C584 H587 0.928 . S
C585 N581 1.345 . S
C585 C586 1.371 . S
C585 H588 0.931 . S
C586 C582 1.391 . S
C586 C585 1.371 . S
C586 H593 0.930 . S
H587 C584 0.928 . S
H588 C585 0.931 . S
H589 C565 0.930 . S
H590 C562 0.930 . S
H591 C571 0.930 . S
H592 C583 0.929 . S
H593 C586 0.930 . S
C594 C595 1.351 . S
C594 N597 1.368 . S
C594 H599 0.931 . S
C595 C594 1.351 . S
C595 N596 1.373 . S
C595 H623 0.930 . S
N596 C595 1.373 . S
N596 C598 1.340 . S
N597 C594 1.368 . S
N597 C598 1.321 . S
N597 Co600 2.135 . S
C598 N596 1.340 . S
C598 N597 1.321 . S
C598 H622 0.930 . S
H599 C594 0.931 . S
Co600 N597 2.135 . S
Co600 N603 2.121 . S
Co600 O608 2.055 . S
Co600 O611 2.039 . S
Co600 N614 2.140 . S
C601 O602 1.227 . S
C601 O611 1.265 . S
O602 C601 1.227 . S
N603 Co600 2.121 . S
N603 C605 1.375 . S
N603 C606 1.313 . S
C604 C605 1.338 . S
C604 N607 1.377 . S
C604 H624 0.930 . S
C605 N603 1.375 . S
C605 C604 1.338 . S
C605 H609 0.931 . S
C606 N603 1.313 . S
C606 N607 1.344 . S
C606 H610 0.930 . S
N607 C604 1.377 . S
N607 C606 1.344 . S
O608 Co600 2.055 . S
O608 C612 1.253 . S
H609 C605 0.931 . S
H610 C606 0.930 . S
O611 Co600 2.039 . S
O611 C601 1.265 . S
C612 O608 1.253 . S
C612 O613 1.227 . S
O613 C612 1.227 . S
N614 Co600 2.140 . S
N614 C617 1.346 . S
N614 C618 1.345 . S
C615 C616 1.387 . S
C615 C619 1.391 . S
C616 C615 1.387 . S
C616 C617 1.369 . S
C616 H625 0.929 . S
C617 N614 1.346 . S
C617 C616 1.369 . S
C617 H620 0.928 . S
C618 N614 1.345 . S
C618 C619 1.371 . S
C618 H621 0.931 . S
C619 C615 1.391 . S
C619 C618 1.371 . S
C619 H626 0.930 . S
H620 C617 0.928 . S
H621 C618 0.931 . S
H622 C598 0.930 . S
H623 C595 0.930 . S
H624 C604 0.930 . S
H625 C616 0.929 . S
H626 C619 0.930 . S
C627 C628 1.351 . S
C627 N630 1.368 . S
C627 H632 0.931 . S
C628 C627 1.351 . S
C628 N629 1.373 . S
C628 H656 0.930 . S
N629 C628 1.373 . S
N629 C631 1.340 . S
N630 C627 1.368 . S
N630 C631 1.321 . S
N630 Co633 2.135 . S
C631 N629 1.340 . S
C631 N630 1.321 . S
C631 H655 0.930 . S
H632 C627 0.931 . S
Co633 N630 2.135 . S
Co633 N636 2.121 . S
Co633 O641 2.055 . S
Co633 O644 2.039 . S
Co633 N647 2.140 . S
C634 O635 1.227 . S
C634 O644 1.265 . S
O635 C634 1.227 . S
N636 Co633 2.121 . S
N636 C638 1.375 . S
N636 C639 1.313 . S
C637 C638 1.338 . S
C637 N640 1.377 . S
C637 H657 0.930 . S
C638 N636 1.375 . S
C638 C637 1.338 . S
C638 H642 0.931 . S
C639 N636 1.313 . S
C639 N640 1.344 . S
C639 H643 0.930 . S
N640 C637 1.377 . S
N640 C639 1.344 . S
O641 Co633 2.055 . S
O641 C645 1.253 . S
H642 C638 0.931 . S
H643 C639 0.930 . S
O644 Co633 2.039 . S
O644 C634 1.265 . S
C645 O641 1.253 . S
C645 O646 1.227 . S
O646 C645 1.227 . S
N647 Co633 2.140 . S
N647 C650 1.346 . S
N647 C651 1.345 . S
C648 C649 1.387 . S
C648 C652 1.391 . S
C649 C648 1.387 . S
C649 C650 1.369 . S
C649 H658 0.929 . S
C650 N647 1.346 . S
C650 C649 1.369 . S
C650 H653 0.928 . S
C651 N647 1.345 . S
C651 C652 1.371 . S
C651 H654 0.931 . S
C652 C648 1.391 . S
C652 C651 1.371 . S
C652 H659 0.930 . S
H653 C650 0.928 . S
H654 C651 0.931 . S
H655 C631 0.930 . S
H656 C628 0.930 . S
H657 C637 0.930 . S
H658 C649 0.929 . S
H659 C652 0.930 . S
C660 C661 1.351 . S
C660 N663 1.368 . S
C660 H665 0.931 . S
C661 C660 1.351 . S
C661 N662 1.373 . S
C661 H689 0.930 . S
N662 C661 1.373 . S
N662 C664 1.340 . S
N663 C660 1.368 . S
N663 C664 1.321 . S
N663 Co666 2.135 . S
C664 N662 1.340 . S
C664 N663 1.321 . S
C664 H688 0.930 . S
H665 C660 0.931 . S
Co666 N663 2.135 . S
Co666 N669 2.121 . S
Co666 O674 2.055 . S
Co666 O677 2.039 . S
Co666 N680 2.140 . S
C667 O668 1.227 . S
C667 O677 1.265 . S
O668 C667 1.227 . S
N669 Co666 2.121 . S
N669 C671 1.375 . S
N669 C672 1.313 . S
C670 C671 1.338 . S
C670 N673 1.377 . S
C670 H690 0.930 . S
C671 N669 1.375 . S
C671 C670 1.338 . S
C671 H675 0.931 . S
C672 N669 1.313 . S
C672 N673 1.344 . S
C672 H676 0.930 . S
N673 C670 1.377 . S
N673 C672 1.344 . S
O674 Co666 2.055 . S
O674 C678 1.253 . S
H675 C671 0.931 . S
H676 C672 0.930 . S
O677 Co666 2.039 . S
O677 C667 1.265 . S
C678 O674 1.253 . S
C678 O679 1.227 . S
O679 C678 1.227 . S
N680 Co666 2.140 . S
N680 C683 1.346 . S
N680 C684 1.345 . S
C681 C682 1.387 . S
C681 C685 1.391 . S
C682 C681 1.387 . S
C682 C683 1.369 . S
C682 H691 0.929 . S
C683 N680 1.346 . S
C683 C682 1.369 . S
C683 H686 0.928 . S
C684 N680 1.345 . S
C684 C685 1.371 . S
C684 H687 0.931 . S
C685 C681 1.391 . S
C685 C684 1.371 . S
C685 H692 0.930 . S
H686 C683 0.928 . S
H687 C684 0.931 . S
H688 C664 0.930 . S
H689 C661 0.930 . S
H690 C670 0.930 . S
H691 C682 0.929 . S
H692 C685 0.930 . S
C693 C694 1.351 . S
C693 N696 1.368 . S
C693 H698 0.931 . S
C694 C693 1.351 . S
C694 N695 1.373 . S
C694 H722 0.930 . S
N695 C694 1.373 . S
N695 C697 1.340 . S
N696 C693 1.368 . S
N696 C697 1.321 . S
N696 Co699 2.135 . S
C697 N695 1.340 . S
C697 N696 1.321 . S
C697 H721 0.930 . S
H698 C693 0.931 . S
Co699 N696 2.135 . S
Co699 N702 2.121 . S
Co699 O707 2.055 . S
Co699 O710 2.039 . S
Co699 N713 2.140 . S
C700 O701 1.227 . S
C700 O710 1.265 . S
O701 C700 1.227 . S
N702 Co699 2.121 . S
N702 C704 1.375 . S
N702 C705 1.313 . S
C703 C704 1.338 . S
C703 N706 1.377 . S
C703 H723 0.930 . S
C704 N702 1.375 . S
C704 C703 1.338 . S
C704 H708 0.931 . S
C705 N702 1.313 . S
C705 N706 1.344 . S
C705 H709 0.930 . S
N706 C703 1.377 . S
N706 C705 1.344 . S
O707 Co699 2.055 . S
O707 C711 1.253 . S
H708 C704 0.931 . S
H709 C705 0.930 . S
O710 Co699 2.039 . S
O710 C700 1.265 . S
C711 O707 1.253 . S
C711 O712 1.227 . S
O712 C711 1.227 . S
N713 Co699 2.140 . S
N713 C716 1.346 . S
N713 C717 1.345 . S
C714 C715 1.387 . S
C714 C718 1.391 . S
C715 C714 1.387 . S
C715 C716 1.369 . S
C715 H724 0.929 . S
C716 N713 1.346 . S
C716 C715 1.369 . S
C716 H719 0.928 . S
C717 N713 1.345 . S
C717 C718 1.371 . S
C717 H720 0.931 . S
C718 C714 1.391 . S
C718 C717 1.371 . S
C718 H725 0.930 . S
H719 C716 0.928 . S
H720 C717 0.931 . S
H721 C697 0.930 . S
H722 C694 0.930 . S
H723 C703 0.930 . S
H724 C715 0.929 . S
H725 C718 0.930 . S
C726 C727 1.351 . S
C726 N729 1.368 . S
C726 H731 0.931 . S
C727 C726 1.351 . S
C727 N728 1.373 . S
C727 H755 0.930 . S
N728 C727 1.373 . S
N728 C730 1.340 . S
N729 C726 1.368 . S
N729 C730 1.321 . S
N729 Co732 2.135 . S
C730 N728 1.340 . S
C730 N729 1.321 . S
C730 H754 0.930 . S
H731 C726 0.931 . S
Co732 N729 2.135 . S
Co732 N735 2.121 . S
Co732 O740 2.055 . S
Co732 O743 2.039 . S
Co732 N746 2.140 . S
C733 O734 1.227 . S
C733 O743 1.265 . S
O734 C733 1.227 . S
N735 Co732 2.121 . S
N735 C737 1.375 . S
N735 C738 1.313 . S
C736 C737 1.338 . S
C736 N739 1.377 . S
C736 H756 0.930 . S
C737 N735 1.375 . S
C737 C736 1.338 . S
C737 H741 0.931 . S
C738 N735 1.313 . S
C738 N739 1.344 . S
C738 H742 0.930 . S
N739 C736 1.377 . S
N739 C738 1.344 . S
O740 Co732 2.055 . S
O740 C744 1.253 . S
H741 C737 0.931 . S
H742 C738 0.930 . S
O743 Co732 2.039 . S
O743 C733 1.265 . S
C744 O740 1.253 . S
C744 O745 1.227 . S
O745 C744 1.227 . S
N746 Co732 2.140 . S
N746 C749 1.346 . S
N746 C750 1.345 . S
C747 C748 1.387 . S
C747 C751 1.391 . S
C748 C747 1.387 . S
C748 C749 1.369 . S
C748 H757 0.929 . S
C749 N746 1.346 . S
C749 C748 1.369 . S
C749 H752 0.928 . S
C750 N746 1.345 . S
C750 C751 1.371 . S
C750 H753 0.931 . S
C751 C747 1.391 . S
C751 C750 1.371 . S
C751 H758 0.930 . S
H752 C749 0.928 . S
H753 C750 0.931 . S
H754 C730 0.930 . S
H755 C727 0.930 . S
H756 C736 0.930 . S
H757 C748 0.929 . S
H758 C751 0.930 . S
C759 C760 1.351 . S
C759 N762 1.368 . S
C759 H764 0.931 . S
C760 C759 1.351 . S
C760 N761 1.373 . S
C760 H788 0.930 . S
N761 C760 1.373 . S
N761 C763 1.340 . S
N762 C759 1.368 . S
N762 C763 1.321 . S
N762 Co765 2.135 . S
C763 N761 1.340 . S
C763 N762 1.321 . S
C763 H787 0.930 . S
H764 C759 0.931 . S
Co765 N762 2.135 . S
Co765 N768 2.121 . S
Co765 O773 2.055 . S
Co765 O776 2.039 . S
Co765 N779 2.140 . S
C766 O767 1.227 . S
C766 O776 1.265 . S
O767 C766 1.227 . S
N768 Co765 2.121 . S
N768 C770 1.375 . S
N768 C771 1.313 . S
C769 C770 1.338 . S
C769 N772 1.377 . S
C769 H789 0.930 . S
C770 N768 1.375 . S
C770 C769 1.338 . S
C770 H774 0.931 . S
C771 N768 1.313 . S
C771 N772 1.344 . S
C771 H775 0.930 . S
N772 C769 1.377 . S
N772 C771 1.344 . S
O773 Co765 2.055 . S
O773 C777 1.253 . S
H774 C770 0.931 . S
H775 C771 0.930 . S
O776 Co765 2.039 . S
O776 C766 1.265 . S
C777 O773 1.253 . S
C777 O778 1.227 . S
O778 C777 1.227 . S
N779 Co765 2.140 . S
N779 C782 1.346 . S
N779 C783 1.345 . S
C780 C781 1.387 . S
C780 C784 1.391 . S
C781 C780 1.387 . S
C781 C782 1.369 . S
C781 H790 0.929 . S
C782 N779 1.346 . S
C782 C781 1.369 . S
C782 H785 0.928 . S
C783 N779 1.345 . S
C783 C784 1.371 . S
C783 H786 0.931 . S
C784 C780 1.391 . S
C784 C783 1.371 . S
C784 H791 0.930 . S
H785 C782 0.928 . S
H786 C783 0.931 . S
H787 C763 0.930 . S
H788 C760 0.930 . S
H789 C769 0.930 . S
H790 C781 0.929 . S
H791 C784 0.930 . S
C792 C793 1.349 . S
C792 C794 1.327 . S
C792 H817 0.950 . S
C793 C792 1.349 . S
C793 C809 1.349 . S
C794 C792 1.327 . S
C794 C813 1.429 . S
C794 H818 0.950 . S
C795 C812 1.574 . S
C795 C814 1.368 . S
C795 H819 0.949 . S
H796 C800 0.949 . S
C797 C798 1.349 . S
C797 C799 1.327 . S
C797 H820 0.950 . S
C798 C797 1.349 . S
C798 C810 1.349 . S
C799 C797 1.327 . S
C799 C815 1.429 . S
C799 H821 0.950 . S
C800 H796 0.949 . S
C800 C808 1.574 . S
C800 C816 1.368 . S
H801 C809 0.950 . S
H802 C807 0.950 . S
H803 C808 0.949 . S
H804 C810 0.950 . S
H805 C811 0.950 . S
H806 C812 0.949 . S
C807 H802 0.950 . S
C807 C809 1.327 . S
C807 C813 1.429 . S
C808 C800 1.574 . S
C808 H803 0.949 . S
C808 C814 1.368 . S
C809 C793 1.349 . S
C809 H801 0.950 . S
C809 C807 1.327 . S
C810 C798 1.349 . S
C810 H804 0.950 . S
C810 C811 1.327 . S
C811 H805 0.950 . S
C811 C810 1.327 . S
C811 C815 1.429 . S
C812 C795 1.574 . S
C812 H806 0.949 . S
C812 C816 1.368 . S
C813 C794 1.429 . S
C813 C807 1.429 . S
C813 C814 1.523 . S
C814 C795 1.368 . S
C814 C808 1.368 . S
C814 C813 1.523 . S
C815 C799 1.429 . S
C815 C811 1.429 . S
C815 C816 1.523 . S
C816 C800 1.368 . S
C816 C812 1.368 . S
C816 C815 1.523 . S
H817 C792 0.950 . S
H818 C794 0.950 . S
H819 C795 0.949 . S
H820 C797 0.950 . S
H821 C799 0.950 . S
C822 C823 1.349 . S
C822 C824 1.327 . S
C822 H847 0.950 . S
C823 C822 1.349 . S
C823 C839 1.349 . S
C824 C822 1.327 . S
C824 C843 1.429 . S
C824 H848 0.950 . S
C825 C842 1.574 . S
C825 C844 1.368 . S
C825 H849 0.949 . S
H826 C830 0.949 . S
C827 C828 1.349 . S
C827 C829 1.327 . S
C827 H850 0.950 . S
C828 C827 1.349 . S
C828 C840 1.349 . S
C829 C827 1.327 . S
C829 C845 1.429 . S
C829 H851 0.950 . S
C830 H826 0.949 . S
C830 C838 1.574 . S
C830 C846 1.368 . S
H831 C839 0.950 . S
H832 C837 0.950 . S
H833 C838 0.949 . S
H834 C840 0.950 . S
H835 C841 0.950 . S
H836 C842 0.949 . S
C837 H832 0.950 . S
C837 C839 1.327 . S
C837 C843 1.429 . S
C838 C830 1.574 . S
C838 H833 0.949 . S
C838 C844 1.368 . S
C839 C823 1.349 . S
C839 H831 0.950 . S
C839 C837 1.327 . S
C840 C828 1.349 . S
C840 H834 0.950 . S
C840 C841 1.327 . S
C841 H835 0.950 . S
C841 C840 1.327 . S
C841 C845 1.429 . S
C842 C825 1.574 . S
C842 H836 0.949 . S
C842 C846 1.368 . S
C843 C824 1.429 . S
C843 C837 1.429 . S
C843 C844 1.523 . S
C844 C825 1.368 . S
C844 C838 1.368 . S
C844 C843 1.523 . S
C845 C829 1.429 . S
C845 C841 1.429 . S
C845 C846 1.523 . S
C846 C830 1.368 . S
C846 C842 1.368 . S
C846 C845 1.523 . S
H847 C822 0.950 . S
H848 C824 0.950 . S
H849 C825 0.949 . S
H850 C827 0.950 . S
H851 C829 0.950 . S
C852 C853 1.349 . S
C852 C854 1.327 . S
C852 H877 0.950 . S
C853 C852 1.349 . S
C853 C869 1.349 . S
C854 C852 1.327 . S
C854 C873 1.429 . S
C854 H878 0.950 . S
C855 C872 1.574 . S
C855 C874 1.368 . S
C855 H879 0.949 . S
H856 C860 0.949 . S
C857 C858 1.349 . S
C857 C859 1.327 . S
C857 H880 0.950 . S
C858 C857 1.349 . S
C858 C870 1.341 1_556 S
C859 C857 1.327 . S
C859 C875 1.429 . S
C859 H881 0.950 . S
C860 H856 0.949 . S
C860 C868 1.574 . S
C860 C876 1.368 . S
H861 C869 0.950 . S
H862 C867 0.950 . S
H863 C868 0.949 . S
H864 C870 0.975 . S
H865 C871 0.950 . S
H866 C872 0.949 . S
C867 H862 0.950 . S
C867 C869 1.327 . S
C867 C873 1.429 . S
C868 C860 1.574 . S
C868 H863 0.949 . S
C868 C874 1.368 . S
C869 C853 1.349 . S
C869 H861 0.950 . S
C869 C867 1.327 . S
C870 C858 1.341 1_554 S
C870 H864 0.975 . S
C870 C871 1.312 1_554 S
C871 H865 0.950 . S
C871 C870 1.312 1_556 S
C871 C875 1.429 . S
C872 C855 1.574 . S
C872 H866 0.949 . S
C872 C876 1.368 . S
C873 C854 1.429 . S
C873 C867 1.429 . S
C873 C874 1.523 . S
C874 C855 1.368 . S
C874 C868 1.368 . S
C874 C873 1.523 . S
C875 C859 1.429 . S
C875 C871 1.429 . S
C875 C876 1.523 . S
C876 C860 1.368 . S
C876 C872 1.368 . S
C876 C875 1.523 . S
H877 C852 0.950 . S
H878 C854 0.950 . S
H879 C855 0.949 . S
H880 C857 0.950 . S
H881 C859 0.950 . S
C882 C883 1.349 . S
C882 C884 1.327 . S
C882 H907 0.950 . S
C883 C882 1.349 . S
C883 C899 1.349 . S
C884 C882 1.327 . S
C884 C903 1.429 . S
C884 H908 0.950 . S
C885 C902 1.574 . S
C885 C904 1.368 . S
C885 H909 0.949 . S
H886 C890 0.949 . S
C887 C888 1.349 . S
C887 C889 1.327 . S
C887 H910 0.950 . S
C888 C887 1.349 . S
C888 C900 1.349 . S
C889 C887 1.327 . S
C889 C905 1.429 . S
C889 H911 0.950 . S
C890 H886 0.949 . S
C890 C898 1.574 . S
C890 C906 1.368 . S
H891 C899 0.950 . S
H892 C897 0.950 . S
H893 C898 0.949 . S
H894 C900 0.950 . S
H895 C901 0.950 . S
H896 C902 0.949 . S
C897 H892 0.950 . S
C897 C899 1.327 . S
C897 C903 1.429 . S
C898 C890 1.574 . S
C898 H893 0.949 . S
C898 C904 1.368 . S
C899 C883 1.349 . S
C899 H891 0.950 . S
C899 C897 1.327 . S
C900 C888 1.349 . S
C900 H894 0.950 . S
C900 C901 1.327 . S
C901 H895 0.950 . S
C901 C900 1.327 . S
C901 C905 1.429 . S
C902 C885 1.574 . S
C902 H896 0.949 . S
C902 C906 1.368 . S
C903 C884 1.429 . S
C903 C897 1.429 . S
C903 C904 1.523 . S
C904 C885 1.368 . S
C904 C898 1.368 . S
C904 C903 1.523 . S
C905 C889 1.429 . S
C905 C901 1.429 . S
C905 C906 1.523 . S
C906 C890 1.368 . S
C906 C902 1.368 . S
C906 C905 1.523 . S
H907 C882 0.950 . S
H908 C884 0.950 . S
H909 C885 0.949 . S
H910 C887 0.950 . S
H911 C889 0.950 . S
C912 C913 1.349 . S
C912 C914 1.327 . S
C912 H937 0.950 . S
C913 C912 1.349 . S
C913 C929 1.349 . S
C914 C912 1.327 . S
C914 C933 1.429 . S
C914 H938 0.950 . S
C915 C932 1.574 . S
C915 C934 1.368 . S
C915 H939 0.949 . S
H916 C920 0.949 . S
C917 C918 1.349 . S
C917 C919 1.327 . S
C917 H940 0.950 . S
C918 C917 1.349 . S
C918 C930 1.349 . S
C919 C917 1.327 . S
C919 C935 1.429 . S
C919 H941 0.950 . S
C920 H916 0.949 . S
C920 C928 1.574 . S
C920 C936 1.368 . S
H921 C929 0.950 . S
H922 C927 0.950 . S
H923 C928 0.949 . S
H924 C930 0.950 . S
H925 C931 0.950 . S
H926 C932 0.949 . S
C927 H922 0.950 . S
C927 C929 1.327 . S
C927 C933 1.429 . S
C928 C920 1.574 . S
C928 H923 0.949 . S
C928 C934 1.368 . S
C929 C913 1.349 . S
C929 H921 0.950 . S
C929 C927 1.327 . S
C930 C918 1.349 . S
C930 H924 0.950 . S
C930 C931 1.327 . S
C931 H925 0.950 . S
C931 C930 1.327 . S
C931 C935 1.429 . S
C932 C915 1.574 . S
C932 H926 0.949 . S
C932 C936 1.368 . S
C933 C914 1.429 . S
C933 C927 1.429 . S
C933 C934 1.523 . S
C934 C915 1.368 . S
C934 C928 1.368 . S
C934 C933 1.523 . S
C935 C919 1.429 . S
C935 C931 1.429 . S
C935 C936 1.523 . S
C936 C920 1.368 . S
C936 C932 1.368 . S
C936 C935 1.523 . S
H937 C912 0.950 . S
H938 C914 0.950 . S
H939 C915 0.949 . S
H940 C917 0.950 . S
H941 C919 0.950 . S
C942 C943 1.349 . S
C942 C944 1.327 . S
C942 H967 0.950 . S
C943 C942 1.349 . S
C943 C959 1.349 . S
C944 C942 1.327 . S
C944 C963 1.429 . S
C944 H968 0.950 . S
C945 C962 1.574 . S
C945 C964 1.368 . S
C945 H969 0.949 . S
H946 C950 0.949 . S
C947 C948 1.349 . S
C947 C949 1.327 . S
C947 H970 0.950 . S
C948 C947 1.349 . S
C948 C960 1.349 . S
C949 C947 1.327 . S
C949 C965 1.429 . S
C949 H971 0.950 . S
C950 H946 0.949 . S
C950 C958 1.574 . S
C950 C966 1.368 . S
H951 C959 0.950 . S
H952 C957 0.950 . S
H953 C958 0.949 . S
H954 C960 0.950 . S
H955 C961 0.950 . S
H956 C962 0.949 . S
C957 H952 0.950 . S
C957 C959 1.327 . S
C957 C963 1.429 . S
C958 C950 1.574 . S
C958 H953 0.949 . S
C958 C964 1.368 . S
C959 C943 1.349 . S
C959 H951 0.950 . S
C959 C957 1.327 . S
C960 C948 1.349 . S
C960 H954 0.950 . S
C960 C961 1.327 . S
C961 H955 0.950 . S
C961 C960 1.327 . S
C961 C965 1.429 . S
C962 C945 1.574 . S
C962 H956 0.949 . S
C962 C966 1.368 . S
C963 C944 1.429 . S
C963 C957 1.429 . S
C963 C964 1.523 1_545 S
C964 C945 1.368 . S
C964 C958 1.368 . S
C964 C963 1.523 1_565 S
C965 C949 1.429 . S
C965 C961 1.429 . S
C965 C966 1.523 . S
C966 C950 1.368 . S
C966 C962 1.368 . S
C966 C965 1.523 . S
H967 C942 0.950 . S
H968 C944 0.950 . S
H969 C945 0.949 . S
H970 C947 0.950 . S
H971 C949 0.950 . S
C972 C973 1.349 . S
C972 C974 1.327 . S
C972 H997 0.950 . S
C973 C972 1.349 . S
C973 C989 1.349 . S
C974 C972 1.327 . S
C974 C993 1.429 . S
C974 H998 0.950 . S
C975 C992 1.574 . S
C975 C994 1.368 . S
C975 H999 0.949 . S
H976 C980 0.949 . S
C977 C978 1.349 . S
C977 C979 1.327 . S
C977 H1000 0.950 . S
C978 C977 1.349 . S
C978 C990 1.349 1_554 S
C979 C977 1.327 . S
C979 C995 1.429 . S
C979 H1001 0.950 . S
C980 H976 0.949 . S
C980 C988 1.574 . S
C980 C996 1.368 . S
H981 C989 0.950 . S
H982 C987 0.950 . S
H983 C988 0.949 . S
H984 C990 0.950 . S
H985 C991 0.964 . S
H986 C992 0.949 . S
C987 H982 0.950 . S
C987 C989 1.327 . S
C987 C993 1.429 . S
C988 C980 1.574 . S
C988 H983 0.949 . S
C988 C994 1.368 . S
C989 C973 1.349 . S
C989 H981 0.950 . S
C989 C987 1.327 . S
C990 C978 1.349 1_556 S
C990 H984 0.950 . S
C990 C991 1.327 1_556 S
C991 H985 0.964 . S
C991 C990 1.327 1_554 S
C991 C995 1.429 . S
C992 C975 1.574 . S
C992 H986 0.949 . S
C992 C996 1.368 . S
C993 C974 1.429 . S
C993 C987 1.429 . S
C993 C994 1.523 . S
C994 C975 1.368 . S
C994 C988 1.368 . S
C994 C993 1.523 . S
C995 C979 1.429 . S
C995 C991 1.429 . S
C995 C996 1.523 . S
C996 C980 1.368 . S
C996 C992 1.368 . S
C996 C995 1.523 . S
H997 C972 0.950 . S
H998 C974 0.950 . S
H999 C975 0.949 . S
H1000 C977 0.950 . S
H1001 C979 0.950 . S
C1002 C1003 1.349 . S
C1002 C1004 1.327 . S
C1002 H1027 0.950 . S
C1003 C1002 1.349 . S
C1003 C1019 1.349 . S
C1004 C1002 1.327 . S
C1004 C1023 1.429 . S
C1004 H1028 0.950 . S
C1005 C1022 1.574 . S
C1005 C1024 1.368 . S
C1005 H1029 0.949 . S
H1006 C1010 0.949 . S
C1007 C1008 1.349 . S
C1007 C1009 1.327 . S
C1007 H1030 0.950 . S
C1008 C1007 1.349 . S
C1008 C1020 1.349 . S
C1009 C1007 1.327 . S
C1009 C1025 1.429 . S
C1009 H1031 0.950 . S
C1010 H1006 0.949 . S
C1010 C1018 1.574 . S
C1010 C1026 1.368 . S
H1011 C1019 0.950 . S
H1012 C1017 0.950 . S
H1013 C1018 0.949 . S
H1014 C1020 0.950 . S
H1015 C1021 0.950 . S
H1016 C1022 0.949 . S
C1017 H1012 0.950 . S
C1017 C1019 1.327 . S
C1017 C1023 1.429 . S
C1018 C1010 1.574 . S
C1018 H1013 0.949 . S
C1018 C1024 1.368 . S
C1019 C1003 1.349 . S
C1019 H1011 0.950 . S
C1019 C1017 1.327 . S
C1020 C1008 1.349 . S
C1020 H1014 0.950 . S
C1020 C1021 1.327 . S
C1021 H1015 0.950 . S
C1021 C1020 1.327 . S
C1021 C1025 1.429 . S
C1022 C1005 1.574 . S
C1022 H1016 0.949 . S
C1022 C1026 1.368 . S
C1023 C1004 1.429 . S
C1023 C1017 1.429 . S
C1023 C1024 1.523 1_565 S
C1024 C1005 1.368 . S
C1024 C1018 1.368 . S
C1024 C1023 1.523 1_545 S
C1025 C1009 1.429 . S
C1025 C1021 1.429 . S
C1025 C1026 1.523 . S
C1026 C1010 1.368 . S
C1026 C1022 1.368 . S
C1026 C1025 1.523 . S
H1027 C1002 0.950 . S
H1028 C1004 0.950 . S
H1029 C1005 0.949 . S
H1030 C1007 0.950 . S
H1031 C1009 0.950 . S
C1032 C1033 1.349 . S
C1032 C1034 1.327 . S
C1032 H1057 0.950 . S
C1033 C1032 1.349 . S
C1033 C1049 1.349 . S
C1034 C1032 1.327 . S
C1034 C1053 1.429 . S
C1034 H1058 0.950 . S
C1035 C1052 1.574 . S
C1035 C1054 1.368 . S
C1035 H1059 0.949 . S
H1036 C1040 0.949 . S
C1037 C1038 1.349 . S
C1037 C1039 1.327 . S
C1037 H1060 0.950 . S
C1038 C1037 1.349 . S
C1038 C1050 1.349 . S
C1039 C1037 1.327 . S
C1039 C1055 1.429 . S
C1039 H1061 0.950 . S
C1040 H1036 0.949 . S
C1040 C1048 1.574 . S
C1040 C1056 1.368 . S
H1041 C1049 0.950 . S
H1042 C1047 0.950 . S
H1043 C1048 0.949 . S
H1044 C1050 0.950 . S
H1045 C1051 0.950 . S
H1046 C1052 0.949 . S
C1047 H1042 0.950 . S
C1047 C1049 1.327 . S
C1047 C1053 1.429 . S
C1048 C1040 1.574 . S
C1048 H1043 0.949 . S
C1048 C1054 1.368 . S
C1049 C1033 1.349 . S
C1049 H1041 0.950 . S
C1049 C1047 1.327 . S
C1050 C1038 1.349 . S
C1050 H1044 0.950 . S
C1050 C1051 1.327 . S
C1051 H1045 0.950 . S
C1051 C1050 1.327 . S
C1051 C1055 1.429 . S
C1052 C1035 1.574 . S
C1052 H1046 0.949 . S
C1052 C1056 1.368 . S
C1053 C1034 1.429 . S
C1053 C1047 1.429 . S
C1053 C1054 1.523 . S
C1054 C1035 1.368 . S
C1054 C1048 1.368 . S
C1054 C1053 1.523 . S
C1055 C1039 1.429 . S
C1055 C1051 1.429 . S
C1055 C1056 1.523 . S
C1056 C1040 1.368 . S
C1056 C1052 1.368 . S
C1056 C1055 1.523 . S
H1057 C1032 0.950 . S
H1058 C1034 0.950 . S
H1059 C1035 0.949 . S
H1060 C1037 0.950 . S
H1061 C1039 0.950 . S
C1062 C1063 1.349 . S
C1062 C1064 1.327 . S
C1062 H1087 0.950 . S
C1063 C1062 1.349 . S
C1063 C1079 1.349 . S
C1064 C1062 1.327 . S
C1064 C1083 1.429 . S
C1064 H1088 0.950 . S
C1065 C1082 1.574 . S
C1065 C1084 1.368 . S
C1065 H1089 0.949 . S
H1066 C1070 0.949 . S
C1067 C1068 1.349 . S
C1067 C1069 1.327 . S
C1067 H1090 0.950 . S
C1068 C1067 1.349 . S
C1068 C1080 1.349 . S
C1069 C1067 1.327 . S
C1069 C1085 1.429 . S
C1069 H1091 0.950 . S
C1070 H1066 0.949 . S
C1070 C1078 1.574 . S
C1070 C1086 1.368 . S
H1071 C1079 0.950 . S
H1072 C1077 0.950 . S
H1073 C1078 0.949 . S
H1074 C1080 0.950 . S
H1075 C1081 0.950 . S
H1076 C1082 0.949 . S
C1077 H1072 0.950 . S
C1077 C1079 1.327 . S
C1077 C1083 1.429 . S
C1078 C1070 1.574 . S
C1078 H1073 0.949 . S
C1078 C1084 1.368 . S
C1079 C1063 1.349 . S
C1079 H1071 0.950 . S
C1079 C1077 1.327 . S
C1080 C1068 1.349 . S
C1080 H1074 0.950 . S
C1080 C1081 1.327 . S
C1081 H1075 0.950 . S
C1081 C1080 1.327 . S
C1081 C1085 1.429 . S
C1082 C1065 1.574 . S
C1082 H1076 0.949 . S
C1082 C1086 1.368 . S
C1083 C1064 1.429 . S
C1083 C1077 1.429 . S
C1083 C1084 1.523 . S
C1084 C1065 1.368 . S
C1084 C1078 1.368 . S
C1084 C1083 1.523 . S
C1085 C1069 1.429 . S
C1085 C1081 1.429 . S
C1085 C1086 1.523 . S
C1086 C1070 1.368 . S
C1086 C1082 1.368 . S
C1086 C1085 1.523 . S
H1087 C1062 0.950 . S
H1088 C1064 0.950 . S
H1089 C1065 0.949 . S
H1090 C1067 0.950 . S
H1091 C1069 0.950 . S
C1092 C1093 1.349 . S
C1092 C1094 1.327 . S
C1092 H1117 0.950 . S
C1093 C1092 1.349 . S
C1093 C1109 1.349 . S
C1094 C1092 1.327 . S
C1094 C1113 1.429 . S
C1094 H1118 0.950 . S
C1095 C1112 1.574 . S
C1095 C1114 1.368 . S
C1095 H1119 0.949 . S
H1096 C1100 0.949 . S
C1097 C1098 1.355 . S
C1097 C1099 1.341 . S
C1097 H1120 0.931 1_455 S
C1098 C1097 1.355 . S
C1098 C1110 1.349 . S
C1099 C1097 1.341 . S
C1099 C1115 1.429 . S
C1099 H1121 0.950 . S
C1100 H1096 0.949 . S
C1100 C1108 1.574 . S
C1100 C1116 1.368 . S
H1101 C1109 0.950 . S
H1102 C1107 0.950 . S
H1103 C1108 0.949 . S
H1104 C1110 0.950 . S
H1105 C1111 0.950 . S
H1106 C1112 0.949 . S
C1107 H1102 0.950 . S
C1107 C1109 1.327 . S
C1107 C1113 1.429 . S
C1108 C1100 1.574 . S
C1108 H1103 0.949 . S
C1108 C1114 1.368 . S
C1109 C1093 1.349 . S
C1109 H1101 0.950 . S
C1109 C1107 1.327 . S
C1110 C1098 1.349 . S
C1110 H1104 0.950 . S
C1110 C1111 1.327 . S
C1111 H1105 0.950 . S
C1111 C1110 1.327 . S
C1111 C1115 1.429 . S
C1112 C1095 1.574 . S
C1112 H1106 0.949 . S
C1112 C1116 1.368 . S
C1113 C1094 1.429 . S
C1113 C1107 1.429 . S
C1113 C1114 1.523 . S
C1114 C1095 1.368 . S
C1114 C1108 1.368 . S
C1114 C1113 1.523 . S
C1115 C1099 1.429 . S
C1115 C1111 1.429 . S
C1115 C1116 1.523 . S
C1116 C1100 1.368 . S
C1116 C1112 1.368 . S
C1116 C1115 1.523 . S
H1117 C1092 0.950 . S
H1118 C1094 0.950 . S
H1119 C1095 0.949 . S
H1120 C1097 0.931 1_655 S
H1121 C1099 0.950 . S
C1122 C1123 1.349 . S
C1122 C1124 1.327 . S
C1122 H1147 0.950 . S
C1123 C1122 1.349 . S
C1123 C1139 1.349 . S
C1124 C1122 1.327 . S
C1124 C1143 1.429 . S
C1124 H1148 0.950 . S
C1125 C1142 1.574 . S
C1125 C1144 1.368 . S
C1125 H1149 0.949 . S
H1126 C1130 0.949 . S
C1127 C1128 1.349 . S
C1127 C1129 1.327 . S
C1127 H1150 0.950 . S
C1128 C1127 1.349 . S
C1128 C1140 1.349 . S
C1129 C1127 1.327 . S
C1129 C1145 1.429 . S
C1129 H1151 0.950 . S
C1130 H1126 0.949 . S
C1130 C1138 1.574 . S
C1130 C1146 1.368 . S
H1131 C1139 0.950 . S
H1132 C1137 0.950 . S
H1133 C1138 0.949 . S
H1134 C1140 0.950 . S
H1135 C1141 0.950 . S
H1136 C1142 0.949 . S
C1137 H1132 0.950 . S
C1137 C1139 1.327 . S
C1137 C1143 1.429 . S
C1138 C1130 1.574 . S
C1138 H1133 0.949 . S
C1138 C1144 1.368 . S
C1139 C1123 1.349 . S
C1139 H1131 0.950 . S
C1139 C1137 1.327 . S
C1140 C1128 1.349 . S
C1140 H1134 0.950 . S
C1140 C1141 1.327 . S
C1141 H1135 0.950 . S
C1141 C1140 1.327 . S
C1141 C1145 1.429 . S
C1142 C1125 1.574 . S
C1142 H1136 0.949 . S
C1142 C1146 1.368 . S
C1143 C1124 1.429 . S
C1143 C1137 1.429 . S
C1143 C1144 1.523 1_455 S
C1144 C1125 1.368 . S
C1144 C1138 1.368 . S
C1144 C1143 1.523 1_655 S
C1145 C1129 1.429 . S
C1145 C1141 1.429 . S
C1145 C1146 1.523 . S
C1146 C1130 1.368 . S
C1146 C1142 1.368 . S
C1146 C1145 1.523 . S
H1147 C1122 0.950 . S
H1148 C1124 0.950 . S
H1149 C1125 0.949 . S
H1150 C1127 0.950 . S
H1151 C1129 0.950 . S
C1152 C1153 1.349 . S
C1152 C1154 1.327 . S
C1152 H1177 0.950 1_655 S
C1153 C1152 1.349 . S
C1153 C1169 1.349 . S
C1154 C1152 1.327 . S
C1154 C1173 1.429 . S
C1154 H1178 0.950 . S
C1155 C1172 1.574 . S
C1155 C1174 1.368 . S
C1155 H1179 0.949 . S
H1156 C1160 0.949 . S
C1157 C1158 1.349 . S
C1157 C1159 1.327 . S
C1157 H1180 0.950 . S
C1158 C1157 1.349 . S
C1158 C1170 1.349 . S
C1159 C1157 1.327 . S
C1159 C1175 1.429 . S
C1159 H1181 0.950 . S
C1160 H1156 0.949 . S
C1160 C1168 1.574 . S
C1160 C1176 1.368 . S
H1161 C1169 0.950 . S
H1162 C1167 0.950 . S
H1163 C1168 0.949 . S
H1164 C1170 0.950 . S
H1165 C1171 0.950 . S
H1166 C1172 0.949 . S
C1167 H1162 0.950 . S
C1167 C1169 1.327 . S
C1167 C1173 1.429 . S
C1168 C1160 1.574 . S
C1168 H1163 0.949 . S
C1168 C1174 1.368 . S
C1169 C1153 1.349 . S
C1169 H1161 0.950 . S
C1169 C1167 1.327 . S
C1170 C1158 1.349 . S
C1170 H1164 0.950 . S
C1170 C1171 1.327 . S
C1171 H1165 0.950 . S
C1171 C1170 1.327 . S
C1171 C1175 1.429 . S
C1172 C1155 1.574 . S
C1172 H1166 0.949 . S
C1172 C1176 1.368 . S
C1173 C1154 1.429 . S
C1173 C1167 1.429 . S
C1173 C1174 1.523 . S
C1174 C1155 1.368 . S
C1174 C1168 1.368 . S
C1174 C1173 1.523 . S
C1175 C1159 1.429 . S
C1175 C1171 1.429 . S
C1175 C1176 1.523 . S
C1176 C1160 1.368 . S
C1176 C1172 1.368 . S
C1176 C1175 1.523 . S
H1177 C1152 0.950 1_455 S
H1178 C1154 0.950 . S
H1179 C1155 0.949 . S
H1180 C1157 0.950 . S
H1181 C1159 0.950 . S
C1182 C1183 1.349 . S
C1182 C1184 1.327 . S
C1182 H1207 0.950 . S
C1183 C1182 1.349 . S
C1183 C1199 1.349 . S
C1184 C1182 1.327 . S
C1184 C1203 1.429 . S
C1184 H1208 0.950 . S
C1185 C1202 1.574 . S
C1185 C1204 1.368 . S
C1185 H1209 0.949 . S
H1186 C1190 0.949 . S
C1187 C1188 1.349 . S
C1187 C1189 1.327 . S
C1187 H1210 0.950 . S
C1188 C1187 1.349 . S
C1188 C1200 1.349 . S
C1189 C1187 1.327 . S
C1189 C1205 1.429 . S
C1189 H1211 0.950 . S
C1190 H1186 0.949 . S
C1190 C1198 1.574 . S
C1190 C1206 1.368 . S
H1191 C1199 0.950 . S
H1192 C1197 0.950 . S
H1193 C1198 0.949 . S
H1194 C1200 0.950 . S
H1195 C1201 0.950 . S
H1196 C1202 0.949 . S
C1197 H1192 0.950 . S
C1197 C1199 1.327 . S
C1197 C1203 1.429 . S
C1198 C1190 1.574 . S
C1198 H1193 0.949 . S
C1198 C1204 1.368 . S
C1199 C1183 1.349 . S
C1199 H1191 0.950 . S
C1199 C1197 1.327 . S
C1200 C1188 1.349 . S
C1200 H1194 0.950 . S
C1200 C1201 1.327 . S
C1201 H1195 0.950 . S
C1201 C1200 1.327 . S
C1201 C1205 1.429 . S
C1202 C1185 1.574 . S
C1202 H1196 0.949 . S
C1202 C1206 1.368 . S
C1203 C1184 1.429 . S
C1203 C1197 1.429 . S
C1203 C1204 1.523 . S
C1204 C1185 1.368 . S
C1204 C1198 1.368 . S
C1204 C1203 1.523 . S
C1205 C1189 1.429 . S
C1205 C1201 1.429 . S
C1205 C1206 1.523 . S
C1206 C1190 1.368 . S
C1206 C1202 1.368 . S
C1206 C1205 1.523 . S
H1207 C1182 0.950 . S
H1208 C1184 0.950 . S
H1209 C1185 0.949 . S
H1210 C1187 0.950 . S
H1211 C1189 0.950 . S
C1212 C1213 1.349 . S
C1212 C1214 1.327 . S
C1212 H1237 0.950 . S
C1213 C1212 1.349 . S
C1213 C1229 1.349 . S
C1214 C1212 1.327 . S
C1214 C1233 1.429 . S
C1214 H1238 0.950 . S
C1215 C1232 1.574 . S
C1215 C1234 1.368 . S
C1215 H1239 0.949 . S
H1216 C1220 0.949 . S
C1217 C1218 1.349 . S
C1217 C1219 1.327 . S
C1217 H1240 0.950 . S
C1218 C1217 1.349 . S
C1218 C1230 1.349 . S
C1219 C1217 1.327 . S
C1219 C1235 1.429 . S
C1219 H1241 0.950 . S
C1220 H1216 0.949 . S
C1220 C1228 1.574 . S
C1220 C1236 1.368 . S
H1221 C1229 0.950 . S
H1222 C1227 0.950 . S
H1223 C1228 0.949 . S
H1224 C1230 0.950 . S
H1225 C1231 0.950 . S
H1226 C1232 0.949 . S
C1227 H1222 0.950 . S
C1227 C1229 1.327 . S
C1227 C1233 1.429 . S
C1228 C1220 1.574 . S
C1228 H1223 0.949 . S
C1228 C1234 1.368 . S
C1229 C1213 1.349 . S
C1229 H1221 0.950 . S
C1229 C1227 1.327 . S
C1230 C1218 1.349 . S
C1230 H1224 0.950 . S
C1230 C1231 1.327 . S
C1231 H1225 0.950 . S
C1231 C1230 1.327 . S
C1231 C1235 1.429 . S
C1232 C1215 1.574 . S
C1232 H1226 0.949 . S
C1232 C1236 1.368 . S
C1233 C1214 1.429 . S
C1233 C1227 1.429 . S
C1233 C1234 1.523 . S
C1234 C1215 1.368 . S
C1234 C1228 1.368 . S
C1234 C1233 1.523 . S
C1235 C1219 1.429 . S
C1235 C1231 1.429 . S
C1235 C1236 1.523 . S
C1236 C1220 1.368 . S
C1236 C1232 1.368 . S
C1236 C1235 1.523 . S
H1237 C1212 0.950 . S
H1238 C1214 0.950 . S
H1239 C1215 0.949 . S
H1240 C1217 0.950 . S
H1241 C1219 0.950 . S
C1242 C1243 1.349 . S
C1242 C1244 1.327 . S
C1242 H1267 0.950 . S
C1243 C1242 1.349 . S
C1243 C1259 1.349 . S
C1244 C1242 1.327 . S
C1244 C1263 1.429 . S
C1244 H1268 0.950 . S
C1245 C1262 1.574 . S
C1245 C1264 1.368 . S
C1245 H1269 0.949 . S
H1246 C1250 0.949 . S
C1247 C1248 1.349 . S
C1247 C1249 1.327 . S
C1247 H1270 0.950 . S
C1248 C1247 1.349 . S
C1248 C1260 1.349 . S
C1249 C1247 1.327 . S
C1249 C1265 1.429 . S
C1249 H1271 0.950 . S
C1250 H1246 0.949 . S
C1250 C1258 1.574 . S
C1250 C1266 1.368 . S
H1251 C1259 0.950 . S
H1252 C1257 0.950 . S
H1253 C1258 0.949 . S
H1254 C1260 0.950 . S
H1255 C1261 0.950 . S
H1256 C1262 0.949 . S
C1257 H1252 0.950 . S
C1257 C1259 1.327 . S
C1257 C1263 1.429 . S
C1258 C1250 1.574 . S
C1258 H1253 0.949 . S
C1258 C1264 1.368 . S
C1259 C1243 1.349 . S
C1259 H1251 0.950 . S
C1259 C1257 1.327 . S
C1260 C1248 1.349 . S
C1260 H1254 0.950 . S
C1260 C1261 1.327 . S
C1261 H1255 0.950 . S
C1261 C1260 1.327 . S
C1261 C1265 1.429 . S
C1262 C1245 1.574 . S
C1262 H1256 0.949 . S
C1262 C1266 1.368 . S
C1263 C1244 1.429 . S
C1263 C1257 1.429 . S
C1263 C1264 1.523 1_655 S
C1264 C1245 1.368 . S
C1264 C1258 1.368 . S
C1264 C1263 1.523 1_455 S
C1265 C1249 1.429 . S
C1265 C1261 1.429 . S
C1265 C1266 1.523 . S
C1266 C1250 1.368 . S
C1266 C1262 1.368 . S
C1266 C1265 1.523 . S
H1267 C1242 0.950 . S
H1268 C1244 0.950 . S
H1269 C1245 0.949 . S
H1270 C1247 0.950 . S
H1271 C1249 0.950 . S
C1272 C1273 1.349 . S
C1272 C1274 1.327 . S
C1272 H1297 0.950 . S
C1273 C1272 1.349 . S
C1273 C1289 1.349 . S
C1274 C1272 1.327 . S
C1274 C1293 1.429 . S
C1274 H1298 0.950 . S
C1275 C1292 1.574 . S
C1275 C1294 1.368 . S
C1275 H1299 0.949 . S
H1276 C1280 0.949 . S
C1277 C1278 1.349 . S
C1277 C1279 1.327 . S
C1277 H1300 0.950 . S
C1278 C1277 1.349 . S
C1278 C1290 1.349 . S
C1279 C1277 1.327 . S
C1279 C1295 1.429 . S
C1279 H1301 0.950 . S
C1280 H1276 0.949 . S
C1280 C1288 1.574 . S
C1280 C1296 1.368 . S
H1281 C1289 0.950 . S
H1282 C1287 0.950 . S
H1283 C1288 0.949 . S
H1284 C1290 0.950 . S
H1285 C1291 0.950 . S
H1286 C1292 0.949 . S
C1287 H1282 0.950 . S
C1287 C1289 1.327 . S
C1287 C1293 1.429 . S
C1288 C1280 1.574 . S
C1288 H1283 0.949 . S
C1288 C1294 1.368 . S
C1289 C1273 1.349 . S
C1289 H1281 0.950 . S
C1289 C1287 1.327 . S
C1290 C1278 1.349 . S
C1290 H1284 0.950 . S
C1290 C1291 1.327 . S
C1291 H1285 0.950 . S
C1291 C1290 1.327 . S
C1291 C1295 1.429 . S
C1292 C1275 1.574 . S
C1292 H1286 0.949 . S
C1292 C1296 1.368 . S
C1293 C1274 1.429 . S
C1293 C1287 1.429 . S
C1293 C1294 1.523 . S
C1294 C1275 1.368 . S
C1294 C1288 1.368 . S
C1294 C1293 1.523 . S
C1295 C1279 1.429 . S
C1295 C1291 1.429 . S
C1295 C1296 1.523 . S
C1296 C1280 1.368 . S
C1296 C1292 1.368 . S
C1296 C1295 1.523 . S
H1297 C1272 0.950 . S
H1298 C1274 0.950 . S
H1299 C1275 0.949 . S
H1300 C1277 0.950 . S
H1301 C1279 0.950 . S
C1302 C1303 1.349 . S
C1302 C1304 1.327 . S
C1302 H1327 0.950 . S
C1303 C1302 1.349 . S
C1303 C1319 1.349 . S
C1304 C1302 1.327 . S
C1304 C1323 1.429 . S
C1304 H1328 0.950 . S
C1305 C1322 1.574 . S
C1305 C1324 1.368 . S
C1305 H1329 0.949 . S
H1306 C1310 0.949 . S
C1307 C1308 1.349 1_565 S
C1307 C1309 1.327 1_565 S
C1307 H1330 0.950 . S
C1308 C1307 1.349 1_545 S
C1308 C1320 1.349 . S
C1309 C1307 1.327 1_545 S
C1309 C1325 1.429 . S
C1309 H1331 0.950 . S
C1310 H1306 0.949 . S
C1310 C1318 1.574 . S
C1310 C1326 1.368 . S
H1311 C1319 0.950 . S
H1312 C1317 0.950 . S
H1313 C1318 0.949 . S
H1314 C1320 0.950 . S
H1315 C1321 0.950 . S
H1316 C1322 0.949 . S
C1317 H1312 0.950 . S
C1317 C1319 1.327 . S
C1317 C1323 1.429 . S
C1318 C1310 1.574 . S
C1318 H1313 0.949 . S
C1318 C1324 1.368 . S
C1319 C1303 1.349 . S
C1319 H1311 0.950 . S
C1319 C1317 1.327 . S
C1320 C1308 1.349 . S
C1320 H1314 0.950 . S
C1320 C1321 1.327 . S
C1321 H1315 0.950 . S
C1321 C1320 1.327 . S
C1321 C1325 1.429 . S
C1322 C1305 1.574 . S
C1322 H1316 0.949 . S
C1322 C1326 1.368 . S
C1323 C1304 1.429 . S
C1323 C1317 1.429 . S
C1323 C1324 1.523 . S
C1324 C1305 1.368 . S
C1324 C1318 1.368 . S
C1324 C1323 1.523 . S
C1325 C1309 1.429 . S
C1325 C1321 1.429 . S
C1325 C1326 1.523 . S
C1326 C1310 1.368 . S
C1326 C1322 1.368 . S
C1326 C1325 1.523 . S
H1327 C1302 0.950 . S
H1328 C1304 0.950 . S
H1329 C1305 0.949 . S
H1330 C1307 0.950 . S
H1331 C1309 0.950 . S
C1332 C1333 1.349 . S
C1332 C1334 1.327 . S
C1332 H1357 0.950 . S
C1333 C1332 1.349 . S
C1333 C1349 1.349 . S
C1334 C1332 1.327 . S
C1334 C1353 1.429 . S
C1334 H1358 0.950 . S
C1335 C1352 1.574 . S
C1335 C1354 1.368 . S
C1335 H1359 0.949 . S
H1336 C1340 0.949 . S
C1337 C1338 1.349 . S
C1337 C1339 1.327 . S
C1337 H1360 0.950 . S
C1338 C1337 1.349 . S
C1338 C1350 1.349 . S
C1339 C1337 1.327 . S
C1339 C1355 1.429 . S
C1339 H1361 0.950 . S
C1340 H1336 0.949 . S
C1340 C1348 1.574 . S
C1340 C1356 1.368 . S
H1341 C1349 0.950 . S
H1342 C1347 0.950 . S
H1343 C1348 0.949 . S
H1344 C1350 0.950 . S
H1345 C1351 0.950 . S
H1346 C1352 0.949 . S
C1347 H1342 0.950 . S
C1347 C1349 1.327 . S
C1347 C1353 1.429 . S
C1348 C1340 1.574 . S
C1348 H1343 0.949 . S
C1348 C1354 1.368 . S
C1349 C1333 1.349 . S
C1349 H1341 0.950 . S
C1349 C1347 1.327 . S
C1350 C1338 1.349 . S
C1350 H1344 0.950 . S
C1350 C1351 1.327 . S
C1351 H1345 0.950 . S
C1351 C1350 1.327 . S
C1351 C1355 1.429 . S
C1352 C1335 1.574 . S
C1352 H1346 0.949 . S
C1352 C1356 1.368 . S
C1353 C1334 1.429 . S
C1353 C1347 1.429 . S
C1353 C1354 1.523 . S
C1354 C1335 1.368 . S
C1354 C1348 1.368 . S
C1354 C1353 1.523 . S
C1355 C1339 1.429 . S
C1355 C1351 1.429 . S
C1355 C1356 1.523 . S
C1356 C1340 1.368 . S
C1356 C1352 1.368 . S
C1356 C1355 1.523 . S
H1357 C1332 0.950 . S
H1358 C1334 0.950 . S
H1359 C1335 0.949 . S
H1360 C1337 0.950 . S
H1361 C1339 0.950 . S
C1362 C1363 1.349 1_545 S
C1362 C1364 1.327 1_545 S
C1362 H1387 0.950 . S
C1363 C1362 1.349 1_565 S
C1363 C1379 1.349 . S
C1364 C1362 1.327 1_565 S
C1364 C1383 1.429 . S
C1364 H1388 0.950 1_565 S
C1365 C1382 1.574 . S
C1365 C1384 1.368 . S
C1365 H1389 0.949 . S
H1366 C1370 0.949 . S
C1367 C1368 1.349 . S
C1367 C1369 1.327 . S
C1367 H1390 0.950 . S
C1368 C1367 1.349 . S
C1368 C1380 1.349 . S
C1369 C1367 1.327 . S
C1369 C1385 1.429 . S
C1369 H1391 0.950 . S
C1370 H1366 0.949 . S
C1370 C1378 1.574 . S
C1370 C1386 1.368 . S
H1371 C1379 0.950 . S
H1372 C1377 0.950 . S
H1373 C1378 0.949 . S
H1374 C1380 0.950 . S
H1375 C1381 0.950 . S
H1376 C1382 0.949 . S
C1377 H1372 0.950 . S
C1377 C1379 1.327 . S
C1377 C1383 1.429 . S
C1378 C1370 1.574 . S
C1378 H1373 0.949 . S
C1378 C1384 1.368 . S
C1379 C1363 1.349 . S
C1379 H1371 0.950 . S
C1379 C1377 1.327 . S
C1380 C1368 1.349 . S
C1380 H1374 0.950 . S
C1380 C1381 1.327 . S
C1381 H1375 0.950 . S
C1381 C1380 1.327 . S
C1381 C1385 1.429 . S
C1382 C1365 1.574 . S
C1382 H1376 0.949 . S
C1382 C1386 1.368 . S
C1383 C1364 1.429 . S
C1383 C1377 1.429 . S
C1383 C1384 1.523 . S
C1384 C1365 1.368 . S
C1384 C1378 1.368 . S
C1384 C1383 1.523 . S
C1385 C1369 1.429 . S
C1385 C1381 1.429 . S
C1385 C1386 1.523 . S
C1386 C1370 1.368 . S
C1386 C1382 1.368 . S
C1386 C1385 1.523 . S
H1387 C1362 0.950 . S
H1388 C1364 0.950 1_545 S
H1389 C1365 0.949 . S
H1390 C1367 0.950 . S
H1391 C1369 0.950 . S
C1392 C1393 1.349 . S
C1392 C1394 1.327 . S
C1392 H1417 0.950 . S
C1393 C1392 1.349 . S
C1393 C1409 1.349 . S
C1394 C1392 1.327 . S
C1394 C1413 1.429 . S
C1394 H1418 0.950 . S
C1395 C1412 1.574 . S
C1395 C1414 1.368 . S
C1395 H1419 0.949 . S
H1396 C1400 0.949 . S
C1397 C1398 1.349 . S
C1397 C1399 1.327 . S
C1397 H1420 0.950 . S
C1398 C1397 1.349 . S
C1398 C1410 1.349 . S
C1399 C1397 1.327 . S
C1399 C1415 1.429 . S
C1399 H1421 0.950 . S
C1400 H1396 0.949 . S
C1400 C1408 1.574 . S
C1400 C1416 1.368 . S
H1401 C1409 0.950 . S
H1402 C1407 0.950 . S
H1403 C1408 0.949 . S
H1404 C1410 0.950 . S
H1405 C1411 0.950 . S
H1406 C1412 0.949 . S
C1407 H1402 0.950 . S
C1407 C1409 1.327 . S
C1407 C1413 1.429 . S
C1408 C1400 1.574 . S
C1408 H1403 0.949 . S
C1408 C1414 1.368 . S
C1409 C1393 1.349 . S
C1409 H1401 0.950 . S
C1409 C1407 1.327 . S
C1410 C1398 1.349 . S
C1410 H1404 0.950 . S
C1410 C1411 1.327 . S
C1411 H1405 0.950 . S
C1411 C1410 1.327 . S
C1411 C1415 1.429 . S
C1412 C1395 1.574 . S
C1412 H1406 0.949 . S
C1412 C1416 1.368 . S
C1413 C1394 1.429 . S
C1413 C1407 1.429 . S
C1413 C1414 1.523 . S
C1414 C1395 1.368 . S
C1414 C1408 1.368 . S
C1414 C1413 1.523 . S
C1415 C1399 1.429 . S
C1415 C1411 1.429 . S
C1415 C1416 1.523 1_556 S
C1416 C1400 1.368 . S
C1416 C1412 1.368 . S
C1416 C1415 1.523 1_554 S
H1417 C1392 0.950 . S
H1418 C1394 0.950 . S
H1419 C1395 0.949 . S
H1420 C1397 0.950 . S
H1421 C1399 0.950 . S
C1422 C1423 1.349 . S
C1422 C1424 1.327 . S
C1422 H1447 0.950 . S
C1423 C1422 1.349 . S
C1423 C1439 1.349 . S
C1424 C1422 1.327 . S
C1424 C1443 1.429 . S
C1424 H1448 0.950 . S
C1425 C1442 1.574 . S
C1425 C1444 1.368 . S
C1425 H1449 0.949 . S
H1426 C1430 0.949 . S
C1427 C1428 1.349 . S
C1427 C1429 1.327 . S
C1427 H1450 0.950 . S
C1428 C1427 1.349 . S
C1428 C1440 1.349 . S
C1429 C1427 1.327 . S
C1429 C1445 1.429 . S
C1429 H1451 0.950 . S
C1430 H1426 0.949 . S
C1430 C1438 1.574 . S
C1430 C1446 1.368 . S
H1431 C1439 0.950 . S
H1432 C1437 0.950 . S
H1433 C1438 0.949 . S
H1434 C1440 0.950 . S
H1435 C1441 0.950 . S
H1436 C1442 0.949 . S
C1437 H1432 0.950 . S
C1437 C1439 1.327 . S
C1437 C1443 1.429 . S
C1438 C1430 1.574 . S
C1438 H1433 0.949 . S
C1438 C1444 1.368 . S
C1439 C1423 1.349 . S
C1439 H1431 0.950 . S
C1439 C1437 1.327 . S
C1440 C1428 1.349 . S
C1440 H1434 0.950 . S
C1440 C1441 1.327 . S
C1441 H1435 0.950 . S
C1441 C1440 1.327 . S
C1441 C1445 1.429 . S
C1442 C1425 1.574 . S
C1442 H1436 0.949 . S
C1442 C1446 1.368 . S
C1443 C1424 1.429 . S
C1443 C1437 1.429 . S
C1443 C1444 1.523 . S
C1444 C1425 1.368 . S
C1444 C1438 1.368 . S
C1444 C1443 1.523 . S
C1445 C1429 1.429 . S
C1445 C1441 1.429 . S
C1445 C1446 1.523 . S
C1446 C1430 1.368 . S
C1446 C1442 1.368 . S
C1446 C1445 1.523 . S
H1447 C1422 0.950 . S
H1448 C1424 0.950 . S
H1449 C1425 0.949 . S
H1450 C1427 0.950 . S
H1451 C1429 0.950 . S
C1452 C1453 1.349 . S
C1452 C1454 1.327 . S
C1452 H1477 0.950 . S
C1453 C1452 1.349 . S
C1453 C1469 1.349 . S
C1454 C1452 1.327 . S
C1454 C1473 1.429 . S
C1454 H1478 0.950 . S
C1455 C1472 1.574 . S
C1455 C1474 1.368 . S
C1455 H1479 0.949 . S
H1456 C1460 0.949 . S
C1457 C1458 1.349 . S
C1457 C1459 1.327 . S
C1457 H1480 0.950 . S
C1458 C1457 1.349 . S
C1458 C1470 1.349 . S
C1459 C1457 1.327 . S
C1459 C1475 1.429 . S
C1459 H1481 0.950 . S
C1460 H1456 0.949 . S
C1460 C1468 1.574 . S
C1460 C1476 1.368 . S
H1461 C1469 0.950 . S
H1462 C1467 0.950 . S
H1463 C1468 0.949 . S
H1464 C1470 0.950 . S
H1465 C1471 0.950 . S
H1466 C1472 0.949 . S
C1467 H1462 0.950 . S
C1467 C1469 1.327 . S
C1467 C1473 1.429 . S
C1468 C1460 1.574 . S
C1468 H1463 0.949 . S
C1468 C1474 1.368 . S
C1469 C1453 1.349 . S
C1469 H1461 0.950 . S
C1469 C1467 1.327 . S
C1470 C1458 1.349 . S
C1470 H1464 0.950 . S
C1470 C1471 1.327 . S
C1471 H1465 0.950 . S
C1471 C1470 1.327 . S
C1471 C1475 1.429 . S
C1472 C1455 1.574 . S
C1472 H1466 0.949 . S
C1472 C1476 1.368 . S
C1473 C1454 1.429 . S
C1473 C1467 1.429 . S
C1473 C1474 1.523 . S
C1474 C1455 1.368 . S
C1474 C1468 1.368 . S
C1474 C1473 1.523 . S
C1475 C1459 1.429 . S
C1475 C1471 1.429 . S
C1475 C1476 1.523 . S
C1476 C1460 1.368 . S
C1476 C1472 1.368 . S
C1476 C1475 1.523 . S
H1477 C1452 0.950 . S
H1478 C1454 0.950 . S
H1479 C1455 0.949 . S
H1480 C1457 0.950 . S
H1481 C1459 0.950 . S
C1482 C1483 1.349 . S
C1482 C1484 1.327 . S
C1482 H1507 0.950 . S
C1483 C1482 1.349 . S
C1483 C1499 1.349 . S
C1484 C1482 1.327 . S
C1484 C1503 1.429 . S
C1484 H1508 0.950 1_554 S
C1485 C1502 1.574 . S
C1485 C1504 1.368 . S
C1485 H1509 0.949 1_556 S
H1486 C1490 0.949 . S
C1487 C1488 1.349 . S
C1487 C1489 1.327 . S
C1487 H1510 0.950 . S
C1488 C1487 1.349 . S
C1488 C1500 1.349 . S
C1489 C1487 1.327 . S
C1489 C1505 1.429 . S
C1489 H1511 0.950 . S
C1490 H1486 0.949 . S
C1490 C1498 1.574 . S
C1490 C1506 1.368 . S
H1491 C1499 0.950 . S
H1492 C1497 0.950 . S
H1493 C1498 0.949 . S
H1494 C1500 0.950 . S
H1495 C1501 0.950 . S
H1496 C1502 0.949 . S
C1497 H1492 0.950 . S
C1497 C1499 1.327 . S
C1497 C1503 1.429 . S
C1498 C1490 1.574 . S
C1498 H1493 0.949 . S
C1498 C1504 1.368 . S
C1499 C1483 1.349 . S
C1499 H1491 0.950 . S
C1499 C1497 1.327 . S
C1500 C1488 1.349 . S
C1500 H1494 0.950 . S
C1500 C1501 1.327 . S
C1501 H1495 0.950 . S
C1501 C1500 1.327 . S
C1501 C1505 1.429 . S
C1502 C1485 1.574 . S
C1502 H1496 0.949 . S
C1502 C1506 1.368 . S
C1503 C1484 1.429 . S
C1503 C1497 1.429 . S
C1503 C1504 1.523 1_554 S
C1504 C1485 1.368 . S
C1504 C1498 1.368 . S
C1504 C1503 1.523 1_556 S
C1505 C1489 1.429 . S
C1505 C1501 1.429 . S
C1505 C1506 1.523 . S
C1506 C1490 1.368 . S
C1506 C1502 1.368 . S
C1506 C1505 1.523 . S
H1507 C1482 0.950 . S
H1508 C1484 0.950 1_556 S
H1509 C1485 0.949 1_554 S
H1510 C1487 0.950 . S
H1511 C1489 0.950 . S
C1512 C1513 1.349 . S
C1512 C1514 1.327 . S
C1512 H1537 0.950 . S
C1513 C1512 1.349 . S
C1513 C1529 1.349 . S
C1514 C1512 1.327 . S
C1514 C1533 1.429 . S
C1514 H1538 0.950 . S
C1515 C1532 1.574 . S
C1515 C1534 1.368 . S
C1515 H1539 0.949 . S
H1516 C1520 0.949 . S
C1517 C1518 1.349 . S
C1517 C1519 1.327 . S
C1517 H1540 0.950 . S
C1518 C1517 1.349 . S
C1518 C1530 1.349 . S
C1519 C1517 1.327 . S
C1519 C1535 1.429 . S
C1519 H1541 0.950 . S
C1520 H1516 0.949 . S
C1520 C1528 1.574 . S
C1520 C1536 1.368 . S
H1521 C1529 0.950 . S
H1522 C1527 0.950 . S
H1523 C1528 0.949 . S
H1524 C1530 0.950 . S
H1525 C1531 0.950 . S
H1526 C1532 0.949 . S
C1527 H1522 0.950 . S
C1527 C1529 1.327 . S
C1527 C1533 1.429 . S
C1528 C1520 1.574 . S
C1528 H1523 0.949 . S
C1528 C1534 1.368 . S
C1529 C1513 1.349 . S
C1529 H1521 0.950 . S
C1529 C1527 1.327 . S
C1530 C1518 1.349 . S
C1530 H1524 0.950 . S
C1530 C1531 1.327 . S
C1531 H1525 0.950 . S
C1531 C1530 1.327 . S
C1531 C1535 1.429 . S
C1532 C1515 1.574 . S
C1532 H1526 0.949 . S
C1532 C1536 1.368 . S
C1533 C1514 1.429 . S
C1533 C1527 1.429 . S
C1533 C1534 1.523 . S
C1534 C1515 1.368 . S
C1534 C1528 1.368 . S
C1534 C1533 1.523 . S
C1535 C1519 1.429 . S
C1535 C1531 1.429 . S
C1535 C1536 1.523 . S
C1536 C1520 1.368 . S
C1536 C1532 1.368 . S
C1536 C1535 1.523 . S
H1537 C1512 0.950 . S
H1538 C1514 0.950 . S
H1539 C1515 0.949 . S
H1540 C1517 0.950 . S
H1541 C1519 0.950 . S
C1542 C1543 1.349 . S
C1542 C1544 1.327 . S
C1542 H1567 0.950 . S
C1543 C1542 1.349 . S
C1543 C1559 1.349 . S
C1544 C1542 1.327 . S
C1544 C1563 1.429 . S
C1544 H1568 0.950 . S
C1545 C1562 1.574 1_556 S
C1545 C1564 1.368 . S
C1545 H1569 0.949 . S
H1546 C1550 0.949 . S
C1547 C1548 1.349 . S
C1547 C1549 1.327 . S
C1547 H1570 0.950 . S
C1548 C1547 1.349 . S
C1548 C1560 1.349 . S
C1549 C1547 1.327 . S
C1549 C1565 1.429 . S
C1549 H1571 0.950 . S
C1550 H1546 0.949 . S
C1550 C1558 1.574 . S
C1550 C1566 1.368 1_556 S
H1551 C1559 0.950 . S
H1552 C1557 0.950 . S
H1553 C1558 0.949 . S
H1554 C1560 0.950 . S
H1555 C1561 0.950 . S
H1556 C1562 0.949 . S
C1557 H1552 0.950 . S
C1557 C1559 1.327 . S
C1557 C1563 1.429 . S
C1558 C1550 1.574 . S
C1558 H1553 0.949 . S
C1558 C1564 1.368 . S
C1559 C1543 1.349 . S
C1559 H1551 0.950 . S
C1559 C1557 1.327 . S
C1560 C1548 1.349 . S
C1560 H1554 0.950 . S
C1560 C1561 1.327 . S
C1561 H1555 0.950 . S
C1561 C1560 1.327 . S
C1561 C1565 1.429 . S
C1562 C1545 1.574 1_554 S
C1562 H1556 0.949 . S
C1562 C1566 1.368 . S
C1563 C1544 1.429 . S
C1563 C1557 1.429 . S
C1563 C1564 1.523 . S
C1564 C1545 1.368 . S
C1564 C1558 1.368 . S
C1564 C1563 1.523 . S
C1565 C1549 1.429 . S
C1565 C1561 1.429 . S
C1565 C1566 1.523 . S
C1566 C1550 1.368 1_554 S
C1566 C1562 1.368 . S
C1566 C1565 1.523 . S
H1567 C1542 0.950 . S
H1568 C1544 0.950 . S
H1569 C1545 0.949 . S
H1570 C1547 0.950 . S
H1571 C1549 0.950 . S
C1572 C1573 1.349 . S
C1572 C1574 1.327 . S
C1572 H1597 0.950 . S
C1573 C1572 1.349 . S
C1573 C1589 1.349 . S
C1574 C1572 1.327 . S
C1574 C1593 1.429 . S
C1574 H1598 0.950 . S
C1575 C1592 1.574 . S
C1575 C1594 1.368 . S
C1575 H1599 0.949 . S
H1576 C1580 0.949 . S
C1577 C1578 1.349 . S
C1577 C1579 1.327 . S
C1577 H1600 0.950 . S
C1578 C1577 1.349 . S
C1578 C1590 1.349 . S
C1579 C1577 1.327 . S
C1579 C1595 1.429 . S
C1579 H1601 0.950 . S
C1580 H1576 0.949 . S
C1580 C1588 1.574 . S
C1580 C1596 1.368 . S
H1581 C1589 0.950 . S
H1582 C1587 0.950 . S
H1583 C1588 0.949 . S
H1584 C1590 0.950 . S
H1585 C1591 0.950 . S
H1586 C1592 0.949 . S
C1587 H1582 0.950 . S
C1587 C1589 1.327 . S
C1587 C1593 1.429 . S
C1588 C1580 1.574 . S
C1588 H1583 0.949 . S
C1588 C1594 1.368 . S
C1589 C1573 1.349 . S
C1589 H1581 0.950 . S
C1589 C1587 1.327 . S
C1590 C1578 1.349 . S
C1590 H1584 0.950 . S
C1590 C1591 1.327 . S
C1591 H1585 0.950 . S
C1591 C1590 1.327 . S
C1591 C1595 1.429 . S
C1592 C1575 1.574 . S
C1592 H1586 0.949 . S
C1592 C1596 1.368 . S
C1593 C1574 1.429 . S
C1593 C1587 1.429 . S
C1593 C1594 1.523 . S
C1594 C1575 1.368 . S
C1594 C1588 1.368 . S
C1594 C1593 1.523 . S
C1595 C1579 1.429 . S
C1595 C1591 1.429 . S
C1595 C1596 1.523 . S
C1596 C1580 1.368 . S
C1596 C1592 1.368 . S
C1596 C1595 1.523 . S
H1597 C1572 0.950 . S
H1598 C1574 0.950 . S
H1599 C1575 0.949 . S
H1600 C1577 0.950 . S
H1601 C1579 0.950 . S
C1602 C1603 1.349 . S
C1602 C1604 1.327 . S
C1602 H1627 0.950 . S
C1603 C1602 1.349 . S
C1603 C1619 1.349 . S
C1604 C1602 1.327 . S
C1604 C1623 1.429 . S
C1604 H1628 0.950 . S
C1605 C1622 1.574 . S
C1605 C1624 1.368 . S
C1605 H1629 0.949 . S
H1606 C1610 0.949 . S
C1607 C1608 1.349 . S
C1607 C1609 1.327 1_655 S
C1607 H1630 0.950 . S
C1608 C1607 1.349 . S
C1608 C1620 1.349 1_655 S
C1609 C1607 1.327 1_455 S
C1609 C1625 1.429 . S
C1609 H1631 0.950 . S
C1610 H1606 0.949 . S
C1610 C1618 1.574 . S
C1610 C1626 1.368 . S
H1611 C1619 0.950 . S
H1612 C1617 0.950 . S
H1613 C1618 0.949 . S
H1614 C1620 0.950 . S
H1615 C1621 0.950 . S
H1616 C1622 0.949 . S
C1617 H1612 0.950 . S
C1617 C1619 1.327 . S
C1617 C1623 1.429 . S
C1618 C1610 1.574 . S
C1618 H1613 0.949 . S
C1618 C1624 1.368 . S
C1619 C1603 1.349 . S
C1619 H1611 0.950 . S
C1619 C1617 1.327 . S
C1620 C1608 1.349 1_455 S
C1620 H1614 0.950 . S
C1620 C1621 1.327 . S
C1621 H1615 0.950 . S
C1621 C1620 1.327 . S
C1621 C1625 1.429 . S
C1622 C1605 1.574 . S
C1622 H1616 0.949 . S
C1622 C1626 1.368 . S
C1623 C1604 1.429 . S
C1623 C1617 1.429 . S
C1623 C1624 1.523 . S
C1624 C1605 1.368 . S
C1624 C1618 1.368 . S
C1624 C1623 1.523 . S
C1625 C1609 1.429 . S
C1625 C1621 1.429 . S
C1625 C1626 1.523 . S
C1626 C1610 1.368 . S
C1626 C1622 1.368 . S
C1626 C1625 1.523 . S
H1627 C1602 0.950 . S
H1628 C1604 0.950 . S
H1629 C1605 0.949 . S
H1630 C1607 0.950 . S
H1631 C1609 0.950 . S
C1632 C1633 1.349 . S
C1632 C1634 1.327 . S
C1632 H1657 0.950 . S
C1633 C1632 1.349 . S
C1633 C1649 1.349 . S
C1634 C1632 1.327 . S
C1634 C1653 1.429 . S
C1634 H1658 0.950 . S
C1635 C1652 1.574 . S
C1635 C1654 1.368 . S
C1635 H1659 0.949 . S
H1636 C1640 0.949 . S
C1637 C1638 1.349 . S
C1637 C1639 1.327 . S
C1637 H1660 0.950 . S
C1638 C1637 1.349 . S
C1638 C1650 1.349 . S
C1639 C1637 1.327 . S
C1639 C1655 1.429 . S
C1639 H1661 0.950 . S
C1640 H1636 0.949 . S
C1640 C1648 1.574 . S
C1640 C1656 1.368 . S
H1641 C1649 0.950 . S
H1642 C1647 0.950 . S
H1643 C1648 0.949 . S
H1644 C1650 0.950 . S
H1645 C1651 0.950 . S
H1646 C1652 0.949 . S
C1647 H1642 0.950 . S
C1647 C1649 1.327 . S
C1647 C1653 1.429 . S
C1648 C1640 1.574 . S
C1648 H1643 0.949 . S
C1648 C1654 1.368 . S
C1649 C1633 1.349 . S
C1649 H1641 0.950 . S
C1649 C1647 1.327 . S
C1650 C1638 1.349 . S
C1650 H1644 0.950 . S
C1650 C1651 1.327 . S
C1651 H1645 0.950 . S
C1651 C1650 1.327 . S
C1651 C1655 1.429 . S
C1652 C1635 1.574 . S
C1652 H1646 0.949 . S
C1652 C1656 1.368 . S
C1653 C1634 1.429 . S
C1653 C1647 1.429 . S
C1653 C1654 1.523 . S
C1654 C1635 1.368 . S
C1654 C1648 1.368 . S
C1654 C1653 1.523 . S
C1655 C1639 1.429 . S
C1655 C1651 1.429 . S
C1655 C1656 1.523 . S
C1656 C1640 1.368 . S
C1656 C1652 1.368 . S
C1656 C1655 1.523 . S
H1657 C1632 0.950 . S
H1658 C1634 0.950 . S
H1659 C1635 0.949 . S
H1660 C1637 0.950 . S
H1661 C1639 0.950 . S
C1662 C1663 1.349 . S
C1662 C1664 1.327 . S
C1662 H1687 0.950 . S
C1663 C1662 1.349 . S
C1663 C1679 1.349 . S
C1664 C1662 1.327 . S
C1664 C1683 1.429 . S
C1664 H1688 0.950 . S
C1665 C1682 1.574 . S
C1665 C1684 1.368 . S
C1665 H1689 0.949 . S
H1666 C1670 0.949 . S
C1667 C1668 1.349 . S
C1667 C1669 1.327 . S
C1667 H1690 0.950 . S
C1668 C1667 1.349 . S
C1668 C1680 1.349 . S
C1669 C1667 1.327 . S
C1669 C1685 1.429 . S
C1669 H1691 0.950 . S
C1670 H1666 0.949 . S
C1670 C1678 1.574 . S
C1670 C1686 1.368 . S
H1671 C1679 0.950 . S
H1672 C1677 0.950 . S
H1673 C1678 0.949 . S
H1674 C1680 0.950 . S
H1675 C1681 0.950 . S
H1676 C1682 0.949 . S
C1677 H1672 0.950 . S
C1677 C1679 1.327 . S
C1677 C1683 1.429 . S
C1678 C1670 1.574 . S
C1678 H1673 0.949 . S
C1678 C1684 1.368 . S
C1679 C1663 1.349 . S
C1679 H1671 0.950 . S
C1679 C1677 1.327 . S
C1680 C1668 1.349 . S
C1680 H1674 0.950 . S
C1680 C1681 1.327 . S
C1681 H1675 0.950 . S
C1681 C1680 1.327 . S
C1681 C1685 1.429 . S
C1682 C1665 1.574 . S
C1682 H1676 0.949 . S
C1682 C1686 1.368 . S
C1683 C1664 1.429 . S
C1683 C1677 1.429 . S
C1683 C1684 1.523 . S
C1684 C1665 1.368 . S
C1684 C1678 1.368 . S
C1684 C1683 1.523 . S
C1685 C1669 1.429 . S
C1685 C1681 1.429 . S
C1685 C1686 1.523 . S
C1686 C1670 1.368 . S
C1686 C1682 1.368 . S
C1686 C1685 1.523 . S
H1687 C1662 0.950 . S
H1688 C1664 0.950 . S
H1689 C1665 0.949 . S
H1690 C1667 0.950 . S
H1691 C1669 0.950 . S
C1692 C1693 1.349 . S
C1692 C1694 1.327 . S
C1692 H1717 0.950 . S
C1693 C1692 1.349 . S
C1693 C1709 1.349 . S
C1694 C1692 1.327 . S
C1694 C1713 1.429 . S
C1694 H1718 0.950 . S
C1695 C1712 1.574 . S
C1695 C1714 1.368 . S
C1695 H1719 0.949 . S
H1696 C1700 0.949 . S
C1697 C1698 1.349 . S
C1697 C1699 1.327 . S
C1697 H1720 0.950 . S
C1698 C1697 1.349 . S
C1698 C1710 1.349 . S
C1699 C1697 1.327 . S
C1699 C1715 1.429 . S
C1699 H1721 0.950 . S
C1700 H1696 0.949 . S
C1700 C1708 1.574 . S
C1700 C1716 1.368 . S
H1701 C1709 0.950 . S
H1702 C1707 0.950 . S
H1703 C1708 0.949 . S
H1704 C1710 0.950 . S
H1705 C1711 0.950 . S
H1706 C1712 0.949 . S
C1707 H1702 0.950 . S
C1707 C1709 1.327 . S
C1707 C1713 1.429 . S
C1708 C1700 1.574 . S
C1708 H1703 0.949 . S
C1708 C1714 1.368 . S
C1709 C1693 1.349 . S
C1709 H1701 0.950 . S
C1709 C1707 1.327 . S
C1710 C1698 1.349 . S
C1710 H1704 0.950 . S
C1710 C1711 1.327 . S
C1711 H1705 0.950 . S
C1711 C1710 1.327 . S
C1711 C1715 1.429 . S
C1712 C1695 1.574 . S
C1712 H1706 0.949 . S
C1712 C1716 1.368 . S
C1713 C1694 1.429 . S
C1713 C1707 1.429 . S
C1713 C1714 1.523 . S
C1714 C1695 1.368 . S
C1714 C1708 1.368 . S
C1714 C1713 1.523 . S
C1715 C1699 1.429 . S
C1715 C1711 1.429 . S
C1715 C1716 1.523 . S
C1716 C1700 1.368 . S
C1716 C1712 1.368 . S
C1716 C1715 1.523 . S
H1717 C1692 0.950 . S
H1718 C1694 0.950 . S
H1719 C1695 0.949 . S
H1720 C1697 0.950 . S
H1721 C1699 0.950 . S
C1722 C1723 1.349 1_655 S
C1722 C1724 1.327 . S
C1722 H1747 0.950 . S
C1723 C1722 1.349 1_455 S
C1723 C1739 1.349 . S
C1724 C1722 1.327 . S
C1724 C1743 1.429 . S
C1724 H1748 0.950 . S
C1725 C1742 1.574 1_556 S
C1725 C1744 1.368 . S
C1725 H1749 0.949 . S
H1726 C1730 0.949 . S
C1727 C1728 1.349 . S
C1727 C1729 1.327 . S
C1727 H1750 0.950 . S
C1728 C1727 1.349 . S
C1728 C1740 1.349 . S
C1729 C1727 1.327 . S
C1729 C1745 1.429 . S
C1729 H1751 0.950 . S
C1730 H1726 0.949 . S
C1730 C1738 1.574 1_554 S
C1730 C1746 1.368 . S
H1731 C1739 0.950 . S
H1732 C1737 0.950 . S
H1733 C1738 0.949 . S
H1734 C1740 0.950 . S
H1735 C1741 0.950 . S
H1736 C1742 0.949 . S
C1737 H1732 0.950 . S
C1737 C1739 1.327 . S
C1737 C1743 1.429 1_455 S
C1738 C1730 1.574 1_556 S
C1738 H1733 0.949 . S
C1738 C1744 1.368 . S
C1739 C1723 1.349 . S
C1739 H1731 0.950 . S
C1739 C1737 1.327 . S
C1740 C1728 1.349 . S
C1740 H1734 0.950 . S
C1740 C1741 1.327 . S
C1741 H1735 0.950 . S
C1741 C1740 1.327 . S
C1741 C1745 1.429 . S
C1742 C1725 1.574 1_554 S
C1742 H1736 0.949 . S
C1742 C1746 1.368 . S
C1743 C1724 1.429 . S
C1743 C1737 1.429 1_655 S
C1743 C1744 1.523 . S
C1744 C1725 1.368 . S
C1744 C1738 1.368 . S
C1744 C1743 1.523 . S
C1745 C1729 1.429 . S
C1745 C1741 1.429 . S
C1745 C1746 1.523 . S
C1746 C1730 1.368 . S
C1746 C1742 1.368 . S
C1746 C1745 1.523 . S
H1747 C1722 0.950 . S
H1748 C1724 0.950 . S
H1749 C1725 0.949 . S
H1750 C1727 0.950 . S
H1751 C1729 0.950 . S
C1752 C1753 1.349 . S
C1752 C1754 1.327 . S
C1752 H1777 0.950 . S
C1753 C1752 1.349 . S
C1753 C1769 1.349 . S
C1754 C1752 1.327 . S
C1754 C1773 1.429 . S
C1754 H1778 0.950 . S
C1755 C1772 1.574 . S
C1755 C1774 1.368 . S
C1755 H1779 0.949 . S
H1756 C1760 0.949 . S
C1757 C1758 1.349 . S
C1757 C1759 1.327 . S
C1757 H1780 0.950 . S
C1758 C1757 1.349 . S
C1758 C1770 1.349 . S
C1759 C1757 1.327 . S
C1759 C1775 1.429 . S
C1759 H1781 0.950 . S
C1760 H1756 0.949 . S
C1760 C1768 1.574 . S
C1760 C1776 1.368 . S
H1761 C1769 0.950 . S
H1762 C1767 0.950 . S
H1763 C1768 0.949 . S
H1764 C1770 0.950 . S
H1765 C1771 0.950 . S
H1766 C1772 0.949 . S
C1767 H1762 0.950 . S
C1767 C1769 1.327 . S
C1767 C1773 1.429 . S
C1768 C1760 1.574 . S
C1768 H1763 0.949 . S
C1768 C1774 1.368 . S
C1769 C1753 1.349 . S
C1769 H1761 0.950 . S
C1769 C1767 1.327 . S
C1770 C1758 1.349 . S
C1770 H1764 0.950 . S
C1770 C1771 1.327 . S
C1771 H1765 0.950 . S
C1771 C1770 1.327 . S
C1771 C1775 1.429 . S
C1772 C1755 1.574 . S
C1772 H1766 0.949 . S
C1772 C1776 1.368 . S
C1773 C1754 1.429 . S
C1773 C1767 1.429 . S
C1773 C1774 1.523 . S
C1774 C1755 1.368 . S
C1774 C1768 1.368 . S
C1774 C1773 1.523 . S
C1775 C1759 1.429 . S
C1775 C1771 1.429 . S
C1775 C1776 1.523 . S
C1776 C1760 1.368 . S
C1776 C1772 1.368 . S
C1776 C1775 1.523 . S
H1777 C1752 0.950 . S
H1778 C1754 0.950 . S
H1779 C1755 0.949 . S
H1780 C1757 0.950 . S
H1781 C1759 0.950 . S
C1782 C1783 1.349 . S
C1782 C1784 1.327 . S
C1782 H1807 0.950 . S
C1783 C1782 1.349 . S
C1783 C1799 1.349 1_556 S
C1784 C1782 1.327 . S
C1784 C1803 1.429 1_556 S
C1784 H1808 0.950 . S
C1785 C1802 1.574 . S
C1785 C1804 1.368 . S
C1785 H1809 0.949 . S
H1786 C1790 0.949 . S
C1787 C1788 1.349 . S
C1787 C1789 1.327 . S
C1787 H1810 0.950 . S
C1788 C1787 1.349 . S
C1788 C1800 1.349 . S
C1789 C1787 1.327 . S
C1789 C1805 1.429 . S
C1789 H1811 0.950 . S
C1790 H1786 0.949 . S
C1790 C1798 1.574 . S
C1790 C1806 1.368 . S
H1791 C1799 0.950 . S
H1792 C1797 0.950 . S
H1793 C1798 0.949 1_556 S
H1794 C1800 0.950 . S
H1795 C1801 0.950 . S
H1796 C1802 0.949 . S
C1797 H1792 0.950 . S
C1797 C1799 1.327 . S
C1797 C1803 1.429 . S
C1798 C1790 1.574 . S
C1798 H1793 0.949 1_554 S
C1798 C1804 1.368 . S
C1799 C1783 1.349 1_554 S
C1799 H1791 0.950 . S
C1799 C1797 1.327 . S
C1800 C1788 1.349 . S
C1800 H1794 0.950 . S
C1800 C1801 1.327 . S
C1801 H1795 0.950 . S
C1801 C1800 1.327 . S
C1801 C1805 1.429 . S
C1802 C1785 1.574 . S
C1802 H1796 0.949 . S
C1802 C1806 1.368 . S
C1803 C1784 1.429 1_554 S
C1803 C1797 1.429 . S
C1803 C1804 1.523 . S
C1804 C1785 1.368 . S
C1804 C1798 1.368 . S
C1804 C1803 1.523 . S
C1805 C1789 1.429 . S
C1805 C1801 1.429 . S
C1805 C1806 1.523 . S
C1806 C1790 1.368 . S
C1806 C1802 1.368 . S
C1806 C1805 1.523 . S
H1807 C1782 0.950 . S
H1808 C1784 0.950 . S
H1809 C1785 0.949 . S
H1810 C1787 0.950 . S
H1811 C1789 0.950 . S
C1812 C1813 1.349 . S
C1812 C1814 1.327 . S
C1812 H1837 0.950 . S
C1813 C1812 1.349 . S
C1813 C1829 1.349 . S
C1814 C1812 1.327 . S
C1814 C1833 1.429 . S
C1814 H1838 0.950 . S
C1815 C1832 1.574 . S
C1815 C1834 1.368 . S
C1815 H1839 0.949 . S
H1816 C1820 0.949 . S
C1817 C1818 1.349 . S
C1817 C1819 1.327 . S
C1817 H1840 0.950 . S
C1818 C1817 1.349 . S
C1818 C1830 1.349 . S
C1819 C1817 1.327 . S
C1819 C1835 1.429 . S
C1819 H1841 0.950 . S
C1820 H1816 0.949 . S
C1820 C1828 1.574 . S
C1820 C1836 1.368 . S
H1821 C1829 0.950 . S
H1822 C1827 0.950 . S
H1823 C1828 0.949 . S
H1824 C1830 0.950 . S
H1825 C1831 0.950 . S
H1826 C1832 0.949 . S
C1827 H1822 0.950 . S
C1827 C1829 1.327 . S
C1827 C1833 1.429 . S
C1828 C1820 1.574 . S
C1828 H1823 0.949 . S
C1828 C1834 1.368 . S
C1829 C1813 1.349 . S
C1829 H1821 0.950 . S
C1829 C1827 1.327 . S
C1830 C1818 1.349 . S
C1830 H1824 0.950 . S
C1830 C1831 1.327 . S
C1831 H1825 0.950 . S
C1831 C1830 1.327 . S
C1831 C1835 1.429 . S
C1832 C1815 1.574 . S
C1832 H1826 0.949 . S
C1832 C1836 1.368 . S
C1833 C1814 1.429 . S
C1833 C1827 1.429 . S
C1833 C1834 1.523 . S
C1834 C1815 1.368 . S
C1834 C1828 1.368 . S
C1834 C1833 1.523 . S
C1835 C1819 1.429 . S
C1835 C1831 1.429 . S
C1835 C1836 1.523 . S
C1836 C1820 1.368 . S
C1836 C1832 1.368 . S
C1836 C1835 1.523 . S
H1837 C1812 0.950 . S
H1838 C1814 0.950 . S
H1839 C1815 0.949 . S
H1840 C1817 0.950 . S
H1841 C1819 0.950 . S
C1842 C1843 1.349 . S
C1842 C1844 1.327 . S
C1842 H1867 0.950 . S
C1843 C1842 1.349 . S
C1843 C1859 1.349 . S
C1844 C1842 1.327 . S
C1844 C1863 1.429 . S
C1844 H1868 0.950 . S
C1845 C1862 1.574 . S
C1845 C1864 1.368 . S
C1845 H1869 0.949 . S
H1846 C1850 0.949 . S
C1847 C1848 1.349 . S
C1847 C1849 1.327 . S
C1847 H1870 0.950 . S
C1848 C1847 1.349 . S
C1848 C1860 1.349 . S
C1849 C1847 1.327 . S
C1849 C1865 1.429 . S
C1849 H1871 0.950 . S
C1850 H1846 0.949 . S
C1850 C1858 1.574 . S
C1850 C1866 1.368 . S
H1851 C1859 0.950 . S
H1852 C1857 0.950 . S
H1853 C1858 0.949 . S
H1854 C1860 0.950 . S
H1855 C1861 0.950 . S
H1856 C1862 0.949 . S
C1857 H1852 0.950 . S
C1857 C1859 1.327 . S
C1857 C1863 1.429 . S
C1858 C1850 1.574 . S
C1858 H1853 0.949 . S
C1858 C1864 1.368 . S
C1859 C1843 1.349 . S
C1859 H1851 0.950 . S
C1859 C1857 1.327 . S
C1860 C1848 1.349 . S
C1860 H1854 0.950 . S
C1860 C1861 1.327 . S
C1861 H1855 0.950 . S
C1861 C1860 1.327 . S
C1861 C1865 1.429 . S
C1862 C1845 1.574 . S
C1862 H1856 0.949 . S
C1862 C1866 1.368 . S
C1863 C1844 1.429 . S
C1863 C1857 1.429 . S
C1863 C1864 1.523 . S
C1864 C1845 1.368 . S
C1864 C1858 1.368 . S
C1864 C1863 1.523 . S
C1865 C1849 1.429 . S
C1865 C1861 1.429 . S
C1865 C1866 1.523 . S
C1866 C1850 1.368 . S
C1866 C1862 1.368 . S
C1866 C1865 1.523 . S
H1867 C1842 0.950 . S
H1868 C1844 0.950 . S
H1869 C1845 0.949 . S
H1870 C1847 0.950 . S
H1871 C1849 0.950 . S
C1872 C1873 1.349 . S
C1872 C1874 1.327 . S
C1872 H1897 0.950 . S
C1873 C1872 1.349 . S
C1873 C1889 1.349 . S
C1874 C1872 1.327 . S
C1874 C1893 1.429 . S
C1874 H1898 0.950 . S
C1875 C1892 1.574 . S
C1875 C1894 1.368 . S
C1875 H1899 0.949 . S
H1876 C1880 0.949 . S
C1877 C1878 1.349 . S
C1877 C1879 1.327 . S
C1877 H1900 0.950 . S
C1878 C1877 1.349 . S
C1878 C1890 1.349 . S
C1879 C1877 1.327 . S
C1879 C1895 1.429 . S
C1879 H1901 0.950 . S
C1880 H1876 0.949 . S
C1880 C1888 1.574 . S
C1880 C1896 1.368 . S
H1881 C1889 0.950 . S
H1882 C1887 0.950 . S
H1883 C1888 0.949 . S
H1884 C1890 0.950 . S
H1885 C1891 0.950 . S
H1886 C1892 0.949 . S
C1887 H1882 0.950 . S
C1887 C1889 1.327 . S
C1887 C1893 1.429 . S
C1888 C1880 1.574 . S
C1888 H1883 0.949 . S
C1888 C1894 1.368 . S
C1889 C1873 1.349 . S
C1889 H1881 0.950 . S
C1889 C1887 1.327 . S
C1890 C1878 1.349 . S
C1890 H1884 0.950 . S
C1890 C1891 1.327 . S
C1891 H1885 0.950 . S
C1891 C1890 1.327 . S
C1891 C1895 1.429 . S
C1892 C1875 1.574 . S
C1892 H1886 0.949 . S
C1892 C1896 1.368 . S
C1893 C1874 1.429 . S
C1893 C1887 1.429 . S
C1893 C1894 1.523 . S
C1894 C1875 1.368 . S
C1894 C1888 1.368 . S
C1894 C1893 1.523 . S
C1895 C1879 1.429 . S
C1895 C1891 1.429 . S
C1895 C1896 1.523 . S
C1896 C1880 1.368 . S
C1896 C1892 1.368 . S
C1896 C1895 1.523 . S
H1897 C1872 0.950 . S
H1898 C1874 0.950 . S
H1899 C1875 0.949 . S
H1900 C1877 0.950 . S
H1901 C1879 0.950 . S
C1902 C1903 1.349 . S
C1902 C1904 1.327 . S
C1902 H1927 0.950 . S
C1903 C1902 1.349 . S
C1903 C1919 1.349 . S
C1904 C1902 1.327 . S
C1904 C1923 1.429 . S
C1904 H1928 0.950 . S
C1905 C1922 1.574 1_565 S
C1905 C1924 1.368 . S
C1905 H1929 0.949 . S
H1906 C1910 0.949 . S
C1907 C1908 1.349 . S
C1907 C1909 1.327 . S
C1907 H1930 0.950 . S
C1908 C1907 1.349 . S
C1908 C1920 1.349 . S
C1909 C1907 1.327 . S
C1909 C1925 1.429 . S
C1909 H1931 0.950 . S
C1910 H1906 0.949 . S
C1910 C1918 1.574 . S
C1910 C1926 1.368 1_565 S
H1911 C1919 0.950 . S
H1912 C1917 0.950 . S
H1913 C1918 0.949 . S
H1914 C1920 0.950 . S
H1915 C1921 0.950 . S
H1916 C1922 0.949 . S
C1917 H1912 0.950 . S
C1917 C1919 1.327 . S
C1917 C1923 1.429 . S
C1918 C1910 1.574 . S
C1918 H1913 0.949 . S
C1918 C1924 1.368 . S
C1919 C1903 1.349 . S
C1919 H1911 0.950 . S
C1919 C1917 1.327 . S
C1920 C1908 1.349 . S
C1920 H1914 0.950 . S
C1920 C1921 1.327 . S
C1921 H1915 0.950 . S
C1921 C1920 1.327 . S
C1921 C1925 1.429 . S
C1922 C1905 1.574 1_545 S
C1922 H1916 0.949 . S
C1922 C1926 1.368 . S
C1923 C1904 1.429 . S
C1923 C1917 1.429 . S
C1923 C1924 1.523 . S
C1924 C1905 1.368 . S
C1924 C1918 1.368 . S
C1924 C1923 1.523 . S
C1925 C1909 1.429 . S
C1925 C1921 1.429 . S
C1925 C1926 1.523 . S
C1926 C1910 1.368 1_545 S
C1926 C1922 1.368 . S
C1926 C1925 1.523 . S
H1927 C1902 0.950 . S
H1928 C1904 0.950 . S
H1929 C1905 0.949 . S
H1930 C1907 0.950 . S
H1931 C1909 0.950 . S
C1932 C1933 1.349 . S
C1932 C1934 1.327 . S
C1932 H1957 0.950 . S
C1933 C1932 1.349 . S
C1933 C1949 1.349 . S
C1934 C1932 1.327 . S
C1934 C1953 1.429 . S
C1934 H1958 0.950 . S
C1935 C1952 1.574 . S
C1935 C1954 1.368 . S
C1935 H1959 0.949 . S
H1936 C1940 0.949 . S
C1937 C1938 1.349 . S
C1937 C1939 1.327 . S
C1937 H1960 0.950 . S
C1938 C1937 1.349 . S
C1938 C1950 1.349 . S
C1939 C1937 1.327 . S
C1939 C1955 1.429 . S
C1939 H1961 0.950 . S
C1940 H1936 0.949 . S
C1940 C1948 1.574 . S
C1940 C1956 1.368 . S
H1941 C1949 0.950 . S
H1942 C1947 0.950 . S
H1943 C1948 0.949 . S
H1944 C1950 0.950 . S
H1945 C1951 0.950 . S
H1946 C1952 0.949 . S
C1947 H1942 0.950 . S
C1947 C1949 1.327 . S
C1947 C1953 1.429 . S
C1948 C1940 1.574 . S
C1948 H1943 0.949 . S
C1948 C1954 1.368 . S
C1949 C1933 1.349 . S
C1949 H1941 0.950 . S
C1949 C1947 1.327 . S
C1950 C1938 1.349 . S
C1950 H1944 0.950 . S
C1950 C1951 1.327 . S
C1951 H1945 0.950 . S
C1951 C1950 1.327 . S
C1951 C1955 1.429 . S
C1952 C1935 1.574 . S
C1952 H1946 0.949 . S
C1952 C1956 1.368 . S
C1953 C1934 1.429 . S
C1953 C1947 1.429 . S
C1953 C1954 1.523 . S
C1954 C1935 1.368 . S
C1954 C1948 1.368 . S
C1954 C1953 1.523 . S
C1955 C1939 1.429 . S
C1955 C1951 1.429 . S
C1955 C1956 1.523 . S
C1956 C1940 1.368 . S
C1956 C1952 1.368 . S
C1956 C1955 1.523 . S
H1957 C1932 0.950 . S
H1958 C1934 0.950 . S
H1959 C1935 0.949 . S
H1960 C1937 0.950 . S
H1961 C1939 0.950 . S
C1962 C1963 1.347 1_556 S
C1962 C1964 1.332 . S
C1962 H1987 0.947 1_556 S
C1963 C1962 1.347 1_554 S
C1963 C1979 1.349 1_554 S
C1964 C1962 1.332 . S
C1964 C1983 1.429 . S
C1964 H1988 0.950 . S
C1965 C1982 1.536 1_565 S
C1965 C1984 1.394 . S
C1965 H1989 0.962 . S
H1966 C1970 0.949 . S
C1967 C1968 1.349 . S
C1967 C1969 1.327 . S
C1967 H1990 0.950 . S
C1968 C1967 1.349 . S
C1968 C1980 1.349 . S
C1969 C1967 1.327 . S
C1969 C1985 1.429 . S
C1969 H1991 0.950 . S
C1970 H1966 0.949 . S
C1970 C1978 1.574 1_545 S
C1970 C1986 1.368 . S
H1971 C1979 0.949 . S
H1972 C1977 0.950 . S
H1973 C1978 0.949 . S
H1974 C1980 0.950 . S
H1975 C1981 0.950 . S
H1976 C1982 0.949 . S
C1977 H1972 0.950 . S
C1977 C1979 1.327 . S
C1977 C1983 1.429 . S
C1978 C1970 1.574 1_565 S
C1978 H1973 0.949 . S
C1978 C1984 1.368 . S
C1979 C1963 1.349 1_556 S
C1979 H1971 0.949 . S
C1979 C1977 1.327 . S
C1980 C1968 1.349 . S
C1980 H1974 0.950 . S
C1980 C1981 1.327 . S
C1981 H1975 0.950 . S
C1981 C1980 1.327 . S
C1981 C1985 1.429 . S
C1982 C1965 1.536 1_545 S
C1982 H1976 0.949 . S
C1982 C1986 1.368 . S
C1983 C1964 1.429 . S
C1983 C1977 1.429 . S
C1983 C1984 1.523 . S
C1984 C1965 1.394 . S
C1984 C1978 1.368 . S
C1984 C1983 1.523 . S
C1985 C1969 1.429 . S
C1985 C1981 1.429 . S
C1985 C1986 1.523 . S
C1986 C1970 1.368 . S
C1986 C1982 1.368 . S
C1986 C1985 1.523 . S
H1987 C1962 0.947 1_554 S
H1988 C1964 0.950 . S
H1989 C1965 0.962 . S
H1990 C1967 0.950 . S
H1991 C1969 0.950 . S
C1992 C1993 1.349 . S
C1992 C1994 1.327 . S
C1992 H2017 0.950 . S
C1993 C1992 1.349 . S
C1993 C2009 1.349 . S
C1994 C1992 1.327 . S
C1994 C2013 1.429 . S
C1994 H2018 0.950 . S
C1995 C2012 1.574 . S
C1995 C2014 1.368 . S
C1995 H2019 0.949 . S
H1996 C2000 0.949 . S
C1997 C1998 1.349 . S
C1997 C1999 1.327 . S
C1997 H2020 0.950 . S
C1998 C1997 1.349 . S
C1998 C2010 1.349 . S
C1999 C1997 1.327 . S
C1999 C2015 1.429 . S
C1999 H2021 0.950 . S
C2000 H1996 0.949 . S
C2000 C2008 1.574 . S
C2000 C2016 1.368 . S
H2001 C2009 0.950 . S
H2002 C2007 0.950 . S
H2003 C2008 0.949 . S
H2004 C2010 0.950 . S
H2005 C2011 0.950 . S
H2006 C2012 0.949 . S
C2007 H2002 0.950 . S
C2007 C2009 1.327 . S
C2007 C2013 1.429 . S
C2008 C2000 1.574 . S
C2008 H2003 0.949 . S
C2008 C2014 1.368 . S
C2009 C1993 1.349 . S
C2009 H2001 0.950 . S
C2009 C2007 1.327 . S
C2010 C1998 1.349 . S
C2010 H2004 0.950 . S
C2010 C2011 1.327 . S
C2011 H2005 0.950 . S
C2011 C2010 1.327 . S
C2011 C2015 1.429 . S
C2012 C1995 1.574 . S
C2012 H2006 0.949 . S
C2012 C2016 1.368 . S
C2013 C1994 1.429 . S
C2013 C2007 1.429 . S
C2013 C2014 1.523 . S
C2014 C1995 1.368 . S
C2014 C2008 1.368 . S
C2014 C2013 1.523 . S
C2015 C1999 1.429 . S
C2015 C2011 1.429 . S
C2015 C2016 1.523 . S
C2016 C2000 1.368 . S
C2016 C2012 1.368 . S
C2016 C2015 1.523 . S
H2017 C1992 0.950 . S
H2018 C1994 0.950 . S
H2019 C1995 0.949 . S
H2020 C1997 0.950 . S
H2021 C1999 0.950 . S
C2022 C2023 1.349 . S
C2022 C2024 1.327 . S
C2022 H2047 0.950 . S
C2023 C2022 1.349 . S
C2023 C2039 1.349 . S
C2024 C2022 1.327 . S
C2024 C2043 1.429 . S
C2024 H2048 0.950 . S
C2025 C2042 1.574 . S
C2025 C2044 1.368 . S
C2025 H2049 0.949 . S
H2026 C2030 0.949 . S
C2027 C2028 1.349 . S
C2027 C2029 1.327 . S
C2027 H2050 0.950 . S
C2028 C2027 1.349 . S
C2028 C2040 1.349 . S
C2029 C2027 1.327 . S
C2029 C2045 1.429 . S
C2029 H2051 0.950 . S
C2030 H2026 0.949 . S
C2030 C2038 1.574 . S
C2030 C2046 1.368 . S
H2031 C2039 0.950 . S
H2032 C2037 0.950 . S
H2033 C2038 0.949 . S
H2034 C2040 0.950 . S
H2035 C2041 0.950 . S
H2036 C2042 0.949 . S
C2037 H2032 0.950 . S
C2037 C2039 1.327 . S
C2037 C2043 1.429 . S
C2038 C2030 1.574 . S
C2038 H2033 0.949 . S
C2038 C2044 1.368 . S
C2039 C2023 1.349 . S
C2039 H2031 0.950 . S
C2039 C2037 1.327 . S
C2040 C2028 1.349 . S
C2040 H2034 0.950 . S
C2040 C2041 1.327 . S
C2041 H2035 0.950 . S
C2041 C2040 1.327 . S
C2041 C2045 1.429 . S
C2042 C2025 1.574 . S
C2042 H2036 0.949 . S
C2042 C2046 1.368 . S
C2043 C2024 1.429 . S
C2043 C2037 1.429 . S
C2043 C2044 1.523 . S
C2044 C2025 1.368 . S
C2044 C2038 1.368 . S
C2044 C2043 1.523 . S
C2045 C2029 1.429 . S
C2045 C2041 1.429 . S
C2045 C2046 1.523 . S
C2046 C2030 1.368 . S
C2046 C2042 1.368 . S
C2046 C2045 1.523 . S
H2047 C2022 0.950 . S
H2048 C2024 0.950 . S
H2049 C2025 0.949 . S
H2050 C2027 0.950 . S
H2051 C2029 0.950 . S
C2052 C2053 1.349 . S
C2052 C2054 1.327 . S
C2052 H2077 0.950 . S
C2053 C2052 1.349 . S
C2053 C2069 1.349 . S
C2054 C2052 1.327 . S
C2054 C2073 1.429 . S
C2054 H2078 0.950 . S
C2055 C2072 1.574 . S
C2055 C2074 1.368 . S
C2055 H2079 0.949 . S
H2056 C2060 0.949 . S
C2057 C2058 1.349 . S
C2057 C2059 1.327 1_565 S
C2057 H2080 0.950 . S
C2058 C2057 1.349 . S
C2058 C2070 1.349 1_565 S
C2059 C2057 1.327 1_545 S
C2059 C2075 1.429 . S
C2059 H2081 0.950 . S
C2060 H2056 0.949 . S
C2060 C2068 1.574 . S
C2060 C2076 1.368 . S
H2061 C2069 0.950 . S
H2062 C2067 0.950 . S
H2063 C2068 0.949 . S
H2064 C2070 0.950 . S
H2065 C2071 0.950 . S
H2066 C2072 0.949 . S
C2067 H2062 0.950 . S
C2067 C2069 1.327 . S
C2067 C2073 1.429 . S
C2068 C2060 1.574 . S
C2068 H2063 0.949 . S
C2068 C2074 1.368 . S
C2069 C2053 1.349 . S
C2069 H2061 0.950 . S
C2069 C2067 1.327 . S
C2070 C2058 1.349 1_545 S
C2070 H2064 0.950 . S
C2070 C2071 1.327 . S
C2071 H2065 0.950 . S
C2071 C2070 1.327 . S
C2071 C2075 1.429 . S
C2072 C2055 1.574 . S
C2072 H2066 0.949 . S
C2072 C2076 1.368 . S
C2073 C2054 1.429 . S
C2073 C2067 1.429 . S
C2073 C2074 1.523 . S
C2074 C2055 1.368 . S
C2074 C2068 1.368 . S
C2074 C2073 1.523 . S
C2075 C2059 1.429 . S
C2075 C2071 1.429 . S
C2075 C2076 1.523 . S
C2076 C2060 1.368 . S
C2076 C2072 1.368 . S
C2076 C2075 1.523 . S
H2077 C2052 0.950 . S
H2078 C2054 0.950 . S
H2079 C2055 0.949 . S
H2080 C2057 0.950 . S
H2081 C2059 0.950 . S
C2082 C2083 1.349 . S
C2082 C2084 1.327 . S
C2082 H2107 0.950 . S
C2083 C2082 1.349 . S
C2083 C2099 1.349 . S
C2084 C2082 1.327 . S
C2084 C2103 1.429 . S
C2084 H2108 0.950 . S
C2085 C2102 1.574 . S
C2085 C2104 1.368 . S
C2085 H2109 0.949 . S
H2086 C2090 0.949 . S
C2087 C2088 1.349 . S
C2087 C2089 1.327 . S
C2087 H2110 0.950 . S
C2088 C2087 1.349 . S
C2088 C2100 1.349 . S
C2089 C2087 1.327 . S
C2089 C2105 1.429 . S
C2089 H2111 0.950 . S
C2090 H2086 0.949 . S
C2090 C2098 1.574 . S
C2090 C2106 1.368 . S
H2091 C2099 0.950 . S
H2092 C2097 0.950 . S
H2093 C2098 0.949 . S
H2094 C2100 0.950 . S
H2095 C2101 0.950 . S
H2096 C2102 0.949 . S
C2097 H2092 0.950 . S
C2097 C2099 1.327 . S
C2097 C2103 1.429 . S
C2098 C2090 1.574 . S
C2098 H2093 0.949 . S
C2098 C2104 1.368 . S
C2099 C2083 1.349 . S
C2099 H2091 0.950 . S
C2099 C2097 1.327 . S
C2100 C2088 1.349 . S
C2100 H2094 0.950 . S
C2100 C2101 1.327 . S
C2101 H2095 0.950 . S
C2101 C2100 1.327 . S
C2101 C2105 1.429 . S
C2102 C2085 1.574 . S
C2102 H2096 0.949 . S
C2102 C2106 1.368 . S
C2103 C2084 1.429 . S
C2103 C2097 1.429 . S
C2103 C2104 1.523 . S
C2104 C2085 1.368 . S
C2104 C2098 1.368 . S
C2104 C2103 1.523 . S
C2105 C2089 1.429 . S
C2105 C2101 1.429 . S
C2105 C2106 1.523 . S
C2106 C2090 1.368 . S
C2106 C2102 1.368 . S
C2106 C2105 1.523 . S
H2107 C2082 0.950 . S
H2108 C2084 0.950 . S
H2109 C2085 0.949 . S
H2110 C2087 0.950 . S
H2111 C2089 0.950 . S
C2112 C2113 1.349 . S
C2112 C2114 1.327 . S
C2112 H2137 0.950 . S
C2113 C2112 1.349 . S
C2113 C2129 1.349 1_545 S
C2114 C2112 1.327 . S
C2114 C2133 1.429 1_545 S
C2114 H2138 0.950 . S
C2115 C2132 1.574 1_655 S
C2115 C2134 1.368 . S
C2115 H2139 0.949 . S
H2116 C2120 0.949 . S
C2117 C2118 1.349 . S
C2117 C2119 1.327 . S
C2117 H2140 0.950 . S
C2118 C2117 1.349 . S
C2118 C2130 1.349 . S
C2119 C2117 1.327 . S
C2119 C2135 1.429 . S
C2119 H2141 0.950 . S
C2120 H2116 0.949 . S
C2120 C2128 1.574 1_455 S
C2120 C2136 1.368 . S
H2121 C2129 0.950 . S
H2122 C2127 0.950 . S
H2123 C2128 0.949 . S
H2124 C2130 0.950 . S
H2125 C2131 0.950 . S
H2126 C2132 0.949 . S
C2127 H2122 0.950 . S
C2127 C2129 1.327 . S
C2127 C2133 1.429 . S
C2128 C2120 1.574 1_655 S
C2128 H2123 0.949 . S
C2128 C2134 1.368 . S
C2129 C2113 1.349 1_565 S
C2129 H2121 0.950 . S
C2129 C2127 1.327 . S
C2130 C2118 1.349 . S
C2130 H2124 0.950 . S
C2130 C2131 1.327 . S
C2131 H2125 0.950 . S
C2131 C2130 1.327 . S
C2131 C2135 1.429 . S
C2132 C2115 1.574 1_455 S
C2132 H2126 0.949 . S
C2132 C2136 1.368 . S
C2133 C2114 1.429 1_565 S
C2133 C2127 1.429 . S
C2133 C2134 1.523 . S
C2134 C2115 1.368 . S
C2134 C2128 1.368 . S
C2134 C2133 1.523 . S
C2135 C2119 1.429 . S
C2135 C2131 1.429 . S
C2135 C2136 1.523 . S
C2136 C2120 1.368 . S
C2136 C2132 1.368 . S
C2136 C2135 1.523 . S
H2137 C2112 0.950 . S
H2138 C2114 0.950 . S
H2139 C2115 0.949 . S
H2140 C2117 0.950 . S
H2141 C2119 0.950 . S
C2142 C2143 1.349 . S
C2142 C2144 1.327 . S
C2142 H2167 0.950 . S
C2143 C2142 1.349 . S
C2143 C2159 1.349 . S
C2144 C2142 1.327 . S
C2144 C2163 1.429 . S
C2144 H2168 0.950 . S
C2145 C2162 1.574 . S
C2145 C2164 1.368 . S
C2145 H2169 0.949 . S
H2146 C2150 0.949 . S
C2147 C2148 1.349 . S
C2147 C2149 1.327 . S
C2147 H2170 0.950 . S
C2148 C2147 1.349 . S
C2148 C2160 1.349 . S
C2149 C2147 1.327 . S
C2149 C2165 1.429 . S
C2149 H2171 0.950 . S
C2150 H2146 0.949 . S
C2150 C2158 1.574 . S
C2150 C2166 1.368 . S
H2151 C2159 0.950 . S
H2152 C2157 0.950 . S
H2153 C2158 0.949 . S
H2154 C2160 0.950 . S
H2155 C2161 0.950 . S
H2156 C2162 0.949 . S
C2157 H2152 0.950 . S
C2157 C2159 1.327 . S
C2157 C2163 1.429 . S
C2158 C2150 1.574 . S
C2158 H2153 0.949 . S
C2158 C2164 1.368 . S
C2159 C2143 1.349 . S
C2159 H2151 0.950 . S
C2159 C2157 1.327 . S
C2160 C2148 1.349 . S
C2160 H2154 0.950 . S
C2160 C2161 1.327 . S
C2161 H2155 0.950 . S
C2161 C2160 1.327 . S
C2161 C2165 1.429 . S
C2162 C2145 1.574 . S
C2162 H2156 0.949 . S
C2162 C2166 1.368 . S
C2163 C2144 1.429 . S
C2163 C2157 1.429 . S
C2163 C2164 1.523 . S
C2164 C2145 1.368 . S
C2164 C2158 1.368 . S
C2164 C2163 1.523 . S
C2165 C2149 1.429 . S
C2165 C2161 1.429 . S
C2165 C2166 1.523 . S
C2166 C2150 1.368 . S
C2166 C2162 1.368 . S
C2166 C2165 1.523 . S
H2167 C2142 0.950 . S
H2168 C2144 0.950 . S
H2169 C2145 0.949 . S
H2170 C2147 0.950 . S
H2171 C2149 0.950 . S
C2172 C2173 1.349 . S
C2172 C2174 1.327 . S
C2172 H2197 0.950 . S
C2173 C2172 1.349 . S
C2173 C2189 1.349 . S
C2174 C2172 1.327 . S
C2174 C2193 1.429 . S
C2174 H2198 0.950 . S
C2175 C2192 1.574 1_455 S
C2175 C2194 1.368 . S
C2175 H2199 0.949 . S
H2176 C2180 0.949 . S
C2177 C2178 1.349 . S
C2177 C2179 1.327 . S
C2177 H2200 0.950 . S
C2178 C2177 1.349 . S
C2178 C2190 1.349 . S
C2179 C2177 1.327 . S
C2179 C2195 1.429 . S
C2179 H2201 0.950 . S
C2180 H2176 0.949 . S
C2180 C2188 1.574 1_655 S
C2180 C2196 1.368 . S
H2181 C2189 0.950 . S
H2182 C2187 0.950 . S
H2183 C2188 0.949 . S
H2184 C2190 0.950 . S
H2185 C2191 0.950 . S
H2186 C2192 0.949 . S
C2187 H2182 0.950 . S
C2187 C2189 1.327 . S
C2187 C2193 1.429 . S
C2188 C2180 1.574 1_455 S
C2188 H2183 0.949 . S
C2188 C2194 1.368 . S
C2189 C2173 1.349 . S
C2189 H2181 0.950 . S
C2189 C2187 1.327 . S
C2190 C2178 1.349 . S
C2190 H2184 0.950 . S
C2190 C2191 1.327 . S
C2191 H2185 0.950 . S
C2191 C2190 1.327 . S
C2191 C2195 1.429 . S
C2192 C2175 1.574 1_655 S
C2192 H2186 0.949 . S
C2192 C2196 1.368 . S
C2193 C2174 1.429 . S
C2193 C2187 1.429 . S
C2193 C2194 1.523 . S
C2194 C2175 1.368 . S
C2194 C2188 1.368 . S
C2194 C2193 1.523 . S
C2195 C2179 1.429 . S
C2195 C2191 1.429 . S
C2195 C2196 1.523 . S
C2196 C2180 1.368 . S
C2196 C2192 1.368 . S
C2196 C2195 1.523 . S
H2197 C2172 0.950 . S
H2198 C2174 0.950 . S
H2199 C2175 0.949 . S
H2200 C2177 0.950 . S
H2201 C2179 0.950 . S
C2202 C2203 1.349 . S
C2202 C2204 1.327 . S
C2202 H2227 0.950 . S
C2203 C2202 1.349 . S
C2203 C2219 1.349 . S
C2204 C2202 1.327 . S
C2204 C2223 1.429 . S
C2204 H2228 0.950 . S
C2205 C2222 1.574 . S
C2205 C2224 1.368 . S
C2205 H2229 0.949 . S
H2206 C2210 0.949 . S
C2207 C2208 1.349 . S
C2207 C2209 1.327 . S
C2207 H2230 0.950 . S
C2208 C2207 1.349 . S
C2208 C2220 1.349 . S
C2209 C2207 1.327 . S
C2209 C2225 1.429 . S
C2209 H2231 0.950 . S
C2210 H2206 0.949 . S
C2210 C2218 1.574 . S
C2210 C2226 1.368 . S
H2211 C2219 0.950 . S
H2212 C2217 0.950 . S
H2213 C2218 0.949 . S
H2214 C2220 0.950 . S
H2215 C2221 0.950 . S
H2216 C2222 0.949 . S
C2217 H2212 0.950 . S
C2217 C2219 1.327 . S
C2217 C2223 1.429 . S
C2218 C2210 1.574 . S
C2218 H2213 0.949 . S
C2218 C2224 1.368 . S
C2219 C2203 1.349 . S
C2219 H2211 0.950 . S
C2219 C2217 1.327 . S
C2220 C2208 1.349 . S
C2220 H2214 0.950 . S
C2220 C2221 1.327 . S
C2221 H2215 0.950 . S
C2221 C2220 1.327 . S
C2221 C2225 1.429 . S
C2222 C2205 1.574 . S
C2222 H2216 0.949 . S
C2222 C2226 1.368 . S
C2223 C2204 1.429 . S
C2223 C2217 1.429 . S
C2223 C2224 1.523 . S
C2224 C2205 1.368 . S
C2224 C2218 1.368 . S
C2224 C2223 1.523 . S
C2225 C2209 1.429 . S
C2225 C2221 1.429 . S
C2225 C2226 1.523 . S
C2226 C2210 1.368 . S
C2226 C2222 1.368 . S
C2226 C2225 1.523 . S
H2227 C2202 0.950 . S
H2228 C2204 0.950 . S
H2229 C2205 0.949 . S
H2230 C2207 0.950 . S
H2231 C2209 0.950 . S
C2232 C2233 1.349 . S
C2232 C2234 1.327 . S
C2232 H2257 0.950 . S
C2233 C2232 1.349 . S
C2233 C2249 1.349 . S
C2234 C2232 1.327 . S
C2234 C2253 1.429 . S
C2234 H2258 0.950 . S
C2235 C2252 1.574 . S
C2235 C2254 1.368 . S
C2235 H2259 0.949 . S
H2236 C2240 0.949 . S
C2237 C2238 1.349 . S
C2237 C2239 1.327 . S
C2237 H2260 0.950 . S
C2238 C2237 1.349 . S
C2238 C2250 1.349 . S
C2239 C2237 1.327 . S
C2239 C2255 1.429 . S
C2239 H2261 0.950 1_455 S
C2240 H2236 0.949 . S
C2240 C2248 1.574 1_455 S
C2240 C2256 1.368 . S
H2241 C2249 0.950 . S
H2242 C2247 0.950 . S
H2243 C2248 0.949 . S
H2244 C2250 0.950 . S
H2245 C2251 0.950 . S
H2246 C2252 0.949 . S
C2247 H2242 0.950 . S
C2247 C2249 1.327 . S
C2247 C2253 1.429 . S
C2248 C2240 1.574 1_655 S
C2248 H2243 0.949 . S
C2248 C2254 1.368 . S
C2249 C2233 1.349 . S
C2249 H2241 0.950 . S
C2249 C2247 1.327 . S
C2250 C2238 1.349 . S
C2250 H2244 0.950 . S
C2250 C2251 1.327 . S
C2251 H2245 0.950 . S
C2251 C2250 1.327 . S
C2251 C2255 1.429 . S
C2252 C2235 1.574 . S
C2252 H2246 0.949 . S
C2252 C2256 1.368 1_655 S
C2253 C2234 1.429 . S
C2253 C2247 1.429 . S
C2253 C2254 1.523 . S
C2254 C2235 1.368 . S
C2254 C2248 1.368 . S
C2254 C2253 1.523 . S
C2255 C2239 1.429 . S
C2255 C2251 1.429 . S
C2255 C2256 1.523 . S
C2256 C2240 1.368 . S
C2256 C2252 1.368 1_455 S
C2256 C2255 1.523 . S
H2257 C2232 0.950 . S
H2258 C2234 0.950 . S
H2259 C2235 0.949 . S
H2260 C2237 0.950 . S
H2261 C2239 0.950 1_655 S
C2262 C2263 1.349 . S
C2262 C2264 1.327 . S
C2262 H2287 0.950 . S
C2263 C2262 1.349 . S
C2263 C2279 1.349 . S
C2264 C2262 1.327 . S
C2264 C2283 1.429 . S
C2264 H2288 0.950 . S
C2265 C2282 1.574 . S
C2265 C2284 1.368 . S
C2265 H2289 0.949 . S
H2266 C2270 0.949 . S
C2267 C2268 1.349 . S
C2267 C2269 1.327 . S
C2267 H2290 0.950 . S
C2268 C2267 1.349 . S
C2268 C2280 1.349 . S
C2269 C2267 1.327 . S
C2269 C2285 1.429 . S
C2269 H2291 0.914 1_556 S
C2270 H2266 0.949 . S
C2270 C2278 1.574 1_556 S
C2270 C2286 1.368 . S
H2271 C2279 0.950 . S
H2272 C2277 0.950 . S
H2273 C2278 0.949 . S
H2274 C2280 0.950 . S
H2275 C2281 0.950 . S
H2276 C2282 0.949 . S
C2277 H2272 0.950 . S
C2277 C2279 1.327 . S
C2277 C2283 1.429 . S
C2278 C2270 1.574 1_554 S
C2278 H2273 0.949 . S
C2278 C2284 1.368 . S
C2279 C2263 1.349 . S
C2279 H2271 0.950 . S
C2279 C2277 1.327 . S
C2280 C2268 1.349 . S
C2280 H2274 0.950 . S
C2280 C2281 1.327 . S
C2281 H2275 0.950 . S
C2281 C2280 1.327 . S
C2281 C2285 1.429 . S
C2282 C2265 1.574 . S
C2282 H2276 0.949 . S
C2282 C2286 1.368 1_554 S
C2283 C2264 1.429 . S
C2283 C2277 1.429 . S
C2283 C2284 1.523 . S
C2284 C2265 1.368 . S
C2284 C2278 1.368 . S
C2284 C2283 1.523 . S
C2285 C2269 1.429 . S
C2285 C2281 1.429 . S
C2285 C2286 1.523 . S
C2286 C2270 1.368 . S
C2286 C2282 1.368 1_556 S
C2286 C2285 1.523 . S
H2287 C2262 0.950 . S
H2288 C2264 0.950 . S
H2289 C2265 0.949 . S
H2290 C2267 0.950 . S
H2291 C2269 0.914 1_554 S
C2292 C2293 1.349 . S
C2292 C2294 1.327 . S
C2292 H2317 0.950 . S
C2293 C2292 1.349 . S
C2293 C2309 1.349 . S
C2294 C2292 1.327 . S
C2294 C2313 1.429 . S
C2294 H2318 0.950 . S
C2295 C2312 1.574 . S
C2295 C2314 1.368 . S
C2295 H2319 0.949 . S
H2296 C2300 0.949 . S
C2297 C2298 1.349 . S
C2297 C2299 1.327 . S
C2297 H2320 0.950 . S
C2298 C2297 1.349 . S
C2298 C2310 1.349 . S
C2299 C2297 1.327 . S
C2299 C2315 1.429 . S
C2299 H2321 0.950 . S
C2300 H2296 0.949 . S
C2300 C2308 1.574 . S
C2300 C2316 1.368 . S
H2301 C2309 0.950 . S
H2302 C2307 0.950 . S
H2303 C2308 0.949 . S
H2304 C2310 0.950 . S
H2305 C2311 0.950 . S
H2306 C2312 0.949 . S
C2307 H2302 0.950 . S
C2307 C2309 1.327 . S
C2307 C2313 1.429 . S
C2308 C2300 1.574 . S
C2308 H2303 0.949 . S
C2308 C2314 1.368 . S
C2309 C2293 1.349 . S
C2309 H2301 0.950 . S
C2309 C2307 1.327 . S
C2310 C2298 1.349 . S
C2310 H2304 0.950 . S
C2310 C2311 1.327 . S
C2311 H2305 0.950 . S
C2311 C2310 1.327 . S
C2311 C2315 1.429 . S
C2312 C2295 1.574 . S
C2312 H2306 0.949 . S
C2312 C2316 1.368 . S
C2313 C2294 1.429 . S
C2313 C2307 1.429 . S
C2313 C2314 1.523 . S
C2314 C2295 1.368 . S
C2314 C2308 1.368 . S
C2314 C2313 1.523 . S
C2315 C2299 1.429 . S
C2315 C2311 1.429 . S
C2315 C2316 1.523 . S
C2316 C2300 1.368 . S
C2316 C2312 1.368 . S
C2316 C2315 1.523 . S
H2317 C2292 0.950 . S
H2318 C2294 0.950 . S
H2319 C2295 0.949 . S
H2320 C2297 0.950 . S
H2321 C2299 0.950 . S
C2322 C2323 1.349 . S
C2322 C2324 1.327 . S
C2322 H2347 0.950 . S
C2323 C2322 1.349 . S
C2323 C2339 1.349 . S
C2324 C2322 1.327 . S
C2324 C2343 1.429 . S
C2324 H2348 0.950 . S
C2325 C2342 1.574 . S
C2325 C2344 1.368 . S
C2325 H2349 0.949 . S
H2326 C2330 0.949 . S
C2327 C2328 1.349 . S
C2327 C2329 1.327 . S
C2327 H2350 0.950 . S
C2328 C2327 1.349 . S
C2328 C2340 1.349 . S
C2329 C2327 1.327 . S
C2329 C2345 1.429 . S
C2329 H2351 0.950 . S
C2330 H2326 0.949 . S
C2330 C2338 1.574 . S
C2330 C2346 1.368 . S
H2331 C2339 0.950 . S
H2332 C2337 0.950 . S
H2333 C2338 0.949 . S
H2334 C2340 0.950 . S
H2335 C2341 0.950 . S
H2336 C2342 0.949 . S
C2337 H2332 0.950 . S
C2337 C2339 1.327 . S
C2337 C2343 1.429 . S
C2338 C2330 1.574 . S
C2338 H2333 0.949 . S
C2338 C2344 1.368 . S
C2339 C2323 1.349 . S
C2339 H2331 0.950 . S
C2339 C2337 1.327 . S
C2340 C2328 1.349 . S
C2340 H2334 0.950 . S
C2340 C2341 1.327 . S
C2341 H2335 0.950 . S
C2341 C2340 1.327 . S
C2341 C2345 1.429 . S
C2342 C2325 1.574 . S
C2342 H2336 0.949 . S
C2342 C2346 1.368 . S
C2343 C2324 1.429 . S
C2343 C2337 1.429 . S
C2343 C2344 1.523 . S
C2344 C2325 1.368 . S
C2344 C2338 1.368 . S
C2344 C2343 1.523 . S
C2345 C2329 1.429 . S
C2345 C2341 1.429 . S
C2345 C2346 1.523 . S
C2346 C2330 1.368 . S
C2346 C2342 1.368 . S
C2346 C2345 1.523 . S
H2347 C2322 0.950 . S
H2348 C2324 0.950 . S
H2349 C2325 0.949 . S
H2350 C2327 0.950 . S
H2351 C2329 0.950 . S
C2352 C2353 1.349 . S
C2352 C2354 1.327 . S
C2352 H2377 0.950 . S
C2353 C2352 1.349 . S
C2353 C2369 1.349 . S
C2354 C2352 1.327 . S
C2354 C2373 1.429 . S
C2354 H2378 0.950 . S
C2355 C2372 1.574 . S
C2355 C2374 1.368 . S
C2355 H2379 0.949 . S
H2356 C2360 0.949 . S
C2357 C2358 1.349 . S
C2357 C2359 1.327 . S
C2357 H2380 0.950 . S
C2358 C2357 1.349 . S
C2358 C2370 1.349 . S
C2359 C2357 1.327 . S
C2359 C2375 1.429 . S
C2359 H2381 0.950 . S
C2360 H2356 0.949 . S
C2360 C2368 1.574 . S
C2360 C2376 1.368 . S
H2361 C2369 0.950 . S
H2362 C2367 0.950 . S
H2363 C2368 0.949 . S
H2364 C2370 0.950 . S
H2365 C2371 0.950 . S
H2366 C2372 0.949 . S
C2367 H2362 0.950 . S
C2367 C2369 1.327 . S
C2367 C2373 1.429 . S
C2368 C2360 1.574 . S
C2368 H2363 0.949 . S
C2368 C2374 1.368 . S
C2369 C2353 1.349 . S
C2369 H2361 0.950 . S
C2369 C2367 1.327 . S
C2370 C2358 1.349 . S
C2370 H2364 0.950 . S
C2370 C2371 1.327 . S
C2371 H2365 0.950 . S
C2371 C2370 1.327 . S
C2371 C2375 1.429 . S
C2372 C2355 1.574 . S
C2372 H2366 0.949 . S
C2372 C2376 1.368 . S
C2373 C2354 1.429 . S
C2373 C2367 1.429 . S
C2373 C2374 1.523 . S
C2374 C2355 1.368 . S
C2374 C2368 1.368 . S
C2374 C2373 1.523 . S
C2375 C2359 1.429 . S
C2375 C2371 1.429 . S
C2375 C2376 1.523 . S
C2376 C2360 1.368 . S
C2376 C2372 1.368 . S
C2376 C2375 1.523 . S
H2377 C2352 0.950 . S
H2378 C2354 0.950 . S
H2379 C2355 0.949 . S
H2380 C2357 0.950 . S
H2381 C2359 0.950 . S
C2382 C2383 1.349 . S
C2382 C2384 1.327 . S
C2382 H2407 0.950 . S
C2383 C2382 1.349 . S
C2383 C2399 1.349 . S
C2384 C2382 1.327 . S
C2384 C2403 1.429 . S
C2384 H2408 0.950 . S
C2385 C2402 1.574 . S
C2385 C2404 1.368 . S
C2385 H2409 0.949 . S
H2386 C2390 0.949 . S
C2387 C2388 1.349 . S
C2387 C2389 1.327 . S
C2387 H2410 0.950 . S
C2388 C2387 1.349 . S
C2388 C2400 1.349 . S
C2389 C2387 1.327 . S
C2389 C2405 1.429 . S
C2389 H2411 0.950 . S
C2390 H2386 0.949 . S
C2390 C2398 1.574 . S
C2390 C2406 1.368 . S
H2391 C2399 0.950 . S
H2392 C2397 0.950 . S
H2393 C2398 0.949 . S
H2394 C2400 0.950 . S
H2395 C2401 0.950 . S
H2396 C2402 0.949 . S
C2397 H2392 0.950 . S
C2397 C2399 1.327 . S
C2397 C2403 1.429 . S
C2398 C2390 1.574 . S
C2398 H2393 0.949 . S
C2398 C2404 1.368 . S
C2399 C2383 1.349 . S
C2399 H2391 0.950 . S
C2399 C2397 1.327 . S
C2400 C2388 1.349 . S
C2400 H2394 0.950 . S
C2400 C2401 1.327 . S
C2401 H2395 0.950 . S
C2401 C2400 1.327 . S
C2401 C2405 1.429 . S
C2402 C2385 1.574 . S
C2402 H2396 0.949 . S
C2402 C2406 1.368 . S
C2403 C2384 1.429 . S
C2403 C2397 1.429 . S
C2403 C2404 1.523 . S
C2404 C2385 1.368 . S
C2404 C2398 1.368 . S
C2404 C2403 1.523 . S
C2405 C2389 1.429 . S
C2405 C2401 1.429 . S
C2405 C2406 1.523 . S
C2406 C2390 1.368 . S
C2406 C2402 1.368 . S
C2406 C2405 1.523 . S
H2407 C2382 0.950 . S
H2408 C2384 0.950 . S
H2409 C2385 0.949 . S
H2410 C2387 0.950 . S
H2411 C2389 0.950 . S
C2412 C2413 1.349 . S
C2412 C2414 1.327 . S
C2412 H2437 0.950 . S
C2413 C2412 1.349 . S
C2413 C2429 1.349 . S
C2414 C2412 1.327 . S
C2414 C2433 1.429 . S
C2414 H2438 0.950 . S
C2415 C2432 1.574 . S
C2415 C2434 1.368 1_455 S
C2415 H2439 0.949 . S
H2416 C2420 0.949 . S
C2417 C2418 1.349 . S
C2417 C2419 1.327 . S
C2417 H2440 0.950 . S
C2418 C2417 1.349 . S
C2418 C2430 1.349 . S
C2419 C2417 1.327 . S
C2419 C2435 1.429 . S
C2419 H2441 0.950 . S
C2420 H2416 0.949 . S
C2420 C2428 1.561 1_455 S
C2420 C2436 1.368 . S
H2421 C2429 0.950 . S
H2422 C2427 0.950 . S
H2423 C2428 0.960 . S
H2424 C2430 0.950 . S
H2425 C2431 0.950 . S
H2426 C2432 0.949 . S
C2427 H2422 0.950 . S
C2427 C2429 1.327 . S
C2427 C2433 1.429 . S
C2428 C2420 1.561 1_655 S
C2428 H2423 0.960 . S
C2428 C2434 1.369 . S
C2429 C2413 1.349 . S
C2429 H2421 0.950 . S
C2429 C2427 1.327 . S
C2430 C2418 1.349 . S
C2430 H2424 0.950 . S
C2430 C2431 1.327 . S
C2431 H2425 0.950 . S
C2431 C2430 1.327 . S
C2431 C2435 1.429 . S
C2432 C2415 1.574 . S
C2432 H2426 0.949 . S
C2432 C2436 1.368 . S
C2433 C2414 1.429 . S
C2433 C2427 1.429 . S
C2433 C2434 1.523 . S
C2434 C2415 1.368 1_655 S
C2434 C2428 1.369 . S
C2434 C2433 1.523 . S
C2435 C2419 1.429 . S
C2435 C2431 1.429 . S
C2435 C2436 1.523 . S
C2436 C2420 1.368 . S
C2436 C2432 1.368 . S
C2436 C2435 1.523 . S
H2437 C2412 0.950 . S
H2438 C2414 0.950 . S
H2439 C2415 0.949 . S
H2440 C2417 0.950 . S
H2441 C2419 0.950 . S
C2442 C2443 1.349 . S
C2442 C2444 1.327 . S
C2442 H2467 0.950 . S
C2443 C2442 1.349 . S
C2443 C2459 1.349 . S
C2444 C2442 1.327 . S
C2444 C2463 1.429 . S
C2444 H2468 0.899 1_554 S
C2445 C2462 1.574 1_554 S
C2445 C2464 1.368 . S
C2445 H2469 0.949 . S
H2446 C2450 0.949 . S
C2447 C2448 1.349 . S
C2447 C2449 1.327 . S
C2447 H2470 0.950 . S
C2448 C2447 1.349 . S
C2448 C2460 1.349 . S
C2449 C2447 1.327 . S
C2449 C2465 1.429 . S
C2449 H2471 0.950 . S
C2450 H2446 0.949 . S
C2450 C2458 1.574 . S
C2450 C2466 1.368 . S
H2451 C2459 0.950 . S
H2452 C2457 0.950 . S
H2453 C2458 0.949 . S
H2454 C2460 0.950 . S
H2455 C2461 0.950 . S
H2456 C2462 0.949 . S
C2457 H2452 0.950 . S
C2457 C2459 1.327 . S
C2457 C2463 1.429 . S
C2458 C2450 1.574 . S
C2458 H2453 0.949 . S
C2458 C2464 1.368 1_556 S
C2459 C2443 1.349 . S
C2459 H2451 0.950 . S
C2459 C2457 1.327 . S
C2460 C2448 1.349 . S
C2460 H2454 0.950 . S
C2460 C2461 1.327 . S
C2461 H2455 0.950 . S
C2461 C2460 1.327 . S
C2461 C2465 1.429 . S
C2462 C2445 1.574 1_556 S
C2462 H2456 0.949 . S
C2462 C2466 1.368 . S
C2463 C2444 1.429 . S
C2463 C2457 1.429 . S
C2463 C2464 1.523 . S
C2464 C2445 1.368 . S
C2464 C2458 1.368 1_554 S
C2464 C2463 1.523 . S
C2465 C2449 1.429 . S
C2465 C2461 1.429 . S
C2465 C2466 1.523 . S
C2466 C2450 1.368 . S
C2466 C2462 1.368 . S
C2466 C2465 1.523 . S
H2467 C2442 0.950 . S
H2468 C2444 0.899 1_556 S
H2469 C2445 0.949 . S
H2470 C2447 0.950 . S
H2471 C2449 0.950 . S
C2472 C2473 1.349 . S
C2472 C2474 1.327 . S
C2472 H2497 0.950 . S
C2473 C2472 1.349 . S
C2473 C2489 1.349 . S
C2474 C2472 1.327 . S
C2474 C2493 1.429 . S
C2474 H2498 0.950 . S
C2475 C2492 1.574 1_565 S
C2475 C2494 1.368 . S
C2475 H2499 0.949 . S
H2476 C2480 0.949 . S
C2477 C2478 1.349 . S
C2477 C2479 1.327 . S
C2477 H2500 0.950 . S
C2478 C2477 1.349 . S
C2478 C2490 1.349 . S
C2479 C2477 1.327 . S
C2479 C2495 1.429 . S
C2479 H2501 0.950 . S
C2480 H2476 0.949 . S
C2480 C2488 1.574 . S
C2480 C2496 1.368 1_565 S
H2481 C2489 0.950 . S
H2482 C2487 0.950 . S
H2483 C2488 0.949 . S
H2484 C2490 0.950 . S
H2485 C2491 0.950 1_565 S
H2486 C2492 0.949 . S
C2487 H2482 0.950 . S
C2487 C2489 1.327 . S
C2487 C2493 1.429 . S
C2488 C2480 1.574 . S
C2488 H2483 0.949 . S
C2488 C2494 1.368 . S
C2489 C2473 1.349 . S
C2489 H2481 0.950 . S
C2489 C2487 1.327 . S
C2490 C2478 1.349 . S
C2490 H2484 0.950 . S
C2490 C2491 1.327 . S
C2491 H2485 0.950 1_545 S
C2491 C2490 1.327 . S
C2491 C2495 1.429 . S
C2492 C2475 1.574 1_545 S
C2492 H2486 0.949 . S
C2492 C2496 1.368 . S
C2493 C2474 1.429 . S
C2493 C2487 1.429 . S
C2493 C2494 1.523 . S
C2494 C2475 1.368 . S
C2494 C2488 1.368 . S
C2494 C2493 1.523 . S
C2495 C2479 1.429 . S
C2495 C2491 1.429 . S
C2495 C2496 1.523 . S
C2496 C2480 1.368 1_545 S
C2496 C2492 1.368 . S
C2496 C2495 1.523 . S
H2497 C2472 0.950 . S
H2498 C2474 0.950 . S
H2499 C2475 0.949 . S
H2500 C2477 0.950 . S
H2501 C2479 0.950 . S
C2502 C2503 1.349 . S
C2502 C2504 1.327 . S
C2502 H2527 0.950 . S
C2503 C2502 1.349 . S
C2503 C2519 1.349 . S
C2504 C2502 1.327 . S
C2504 C2523 1.429 . S
C2504 H2528 0.950 . S
C2505 C2522 1.574 . S
C2505 C2524 1.368 . S
C2505 H2529 0.949 . S
H2506 C2510 0.949 . S
C2507 C2508 1.349 . S
C2507 C2509 1.327 . S
C2507 H2530 0.950 . S
C2508 C2507 1.349 . S
C2508 C2520 1.349 . S
C2509 C2507 1.327 . S
C2509 C2525 1.429 . S
C2509 H2531 0.950 . S
C2510 H2506 0.949 . S
C2510 C2518 1.574 . S
C2510 C2526 1.368 . S
H2511 C2519 0.950 . S
H2512 C2517 0.950 . S
H2513 C2518 0.949 . S
H2514 C2520 0.950 . S
H2515 C2521 0.950 . S
H2516 C2522 0.949 . S
C2517 H2512 0.950 . S
C2517 C2519 1.327 . S
C2517 C2523 1.429 . S
C2518 C2510 1.574 . S
C2518 H2513 0.949 . S
C2518 C2524 1.368 . S
C2519 C2503 1.349 . S
C2519 H2511 0.950 . S
C2519 C2517 1.327 . S
C2520 C2508 1.349 . S
C2520 H2514 0.950 . S
C2520 C2521 1.327 . S
C2521 H2515 0.950 . S
C2521 C2520 1.327 . S
C2521 C2525 1.429 . S
C2522 C2505 1.574 . S
C2522 H2516 0.949 . S
C2522 C2526 1.368 . S
C2523 C2504 1.429 . S
C2523 C2517 1.429 . S
C2523 C2524 1.523 . S
C2524 C2505 1.368 . S
C2524 C2518 1.368 . S
C2524 C2523 1.523 . S
C2525 C2509 1.429 . S
C2525 C2521 1.429 . S
C2525 C2526 1.523 . S
C2526 C2510 1.368 . S
C2526 C2522 1.368 . S
C2526 C2525 1.523 . S
H2527 C2502 0.950 . S
H2528 C2504 0.950 . S
H2529 C2505 0.949 . S
H2530 C2507 0.950 . S
H2531 C2509 0.950 . S
C2532 C2533 1.349 . S
C2532 C2534 1.327 . S
C2532 H2557 0.950 . S
C2533 C2532 1.349 . S
C2533 C2549 1.349 . S
C2534 C2532 1.327 . S
C2534 C2553 1.429 . S
C2534 H2558 0.950 . S
C2535 C2552 1.574 . S
C2535 C2554 1.368 . S
C2535 H2559 0.949 . S
H2536 C2540 0.949 . S
C2537 C2538 1.349 . S
C2537 C2539 1.327 . S
C2537 H2560 0.950 . S
C2538 C2537 1.349 . S
C2538 C2550 1.349 . S
C2539 C2537 1.327 . S
C2539 C2555 1.429 . S
C2539 H2561 0.950 1_565 S
C2540 H2536 0.949 . S
C2540 C2548 1.574 1_565 S
C2540 C2556 1.368 . S
H2541 C2549 0.950 . S
H2542 C2547 0.950 . S
H2543 C2548 0.949 . S
H2544 C2550 0.950 . S
H2545 C2551 0.950 . S
H2546 C2552 0.949 . S
C2547 H2542 0.950 . S
C2547 C2549 1.327 . S
C2547 C2553 1.429 . S
C2548 C2540 1.574 1_545 S
C2548 H2543 0.949 . S
C2548 C2554 1.368 . S
C2549 C2533 1.349 . S
C2549 H2541 0.950 . S
C2549 C2547 1.327 . S
C2550 C2538 1.349 . S
C2550 H2544 0.950 . S
C2550 C2551 1.327 . S
C2551 H2545 0.950 . S
C2551 C2550 1.327 . S
C2551 C2555 1.429 . S
C2552 C2535 1.574 . S
C2552 H2546 0.949 . S
C2552 C2556 1.368 1_545 S
C2553 C2534 1.429 . S
C2553 C2547 1.429 . S
C2553 C2554 1.523 . S
C2554 C2535 1.368 . S
C2554 C2548 1.368 . S
C2554 C2553 1.523 . S
C2555 C2539 1.429 . S
C2555 C2551 1.429 . S
C2555 C2556 1.523 . S
C2556 C2540 1.368 . S
C2556 C2552 1.368 1_565 S
C2556 C2555 1.523 . S
H2557 C2532 0.950 . S
H2558 C2534 0.950 . S
H2559 C2535 0.949 . S
H2560 C2537 0.950 . S
H2561 C2539 0.950 1_545 S
C2562 C2563 1.349 . S
C2562 C2564 1.327 . S
C2562 H2587 0.950 . S
C2563 C2562 1.349 . S
C2563 C2579 1.349 . S
C2564 C2562 1.327 . S
C2564 C2583 1.429 . S
C2564 H2588 0.950 . S
C2565 C2582 1.574 . S
C2565 C2584 1.368 . S
C2565 H2589 0.949 . S
H2566 C2570 0.949 . S
C2567 C2568 1.349 . S
C2567 C2569 1.327 . S
C2567 H2590 0.950 . S
C2568 C2567 1.349 . S
C2568 C2580 1.349 . S
C2569 C2567 1.327 . S
C2569 C2585 1.429 . S
C2569 H2591 0.950 . S
C2570 H2566 0.949 . S
C2570 C2578 1.574 . S
C2570 C2586 1.368 . S
H2571 C2579 0.950 . S
H2572 C2577 0.950 . S
H2573 C2578 0.949 . S
H2574 C2580 0.950 . S
H2575 C2581 0.950 . S
H2576 C2582 0.949 . S
C2577 H2572 0.950 . S
C2577 C2579 1.327 . S
C2577 C2583 1.429 . S
C2578 C2570 1.574 . S
C2578 H2573 0.949 . S
C2578 C2584 1.368 . S
C2579 C2563 1.349 . S
C2579 H2571 0.950 . S
C2579 C2577 1.327 . S
C2580 C2568 1.349 . S
C2580 H2574 0.950 . S
C2580 C2581 1.327 . S
C2581 H2575 0.950 . S
C2581 C2580 1.327 . S
C2581 C2585 1.429 . S
C2582 C2565 1.574 . S
C2582 H2576 0.949 . S
C2582 C2586 1.368 . S
C2583 C2564 1.429 . S
C2583 C2577 1.429 . S
C2583 C2584 1.523 . S
C2584 C2565 1.368 . S
C2584 C2578 1.368 . S
C2584 C2583 1.523 . S
C2585 C2569 1.429 . S
C2585 C2581 1.429 . S
C2585 C2586 1.523 . S
C2586 C2570 1.368 . S
C2586 C2582 1.368 . S
C2586 C2585 1.523 . S
H2587 C2562 0.950 . S
H2588 C2564 0.950 . S
H2589 C2565 0.949 . S
H2590 C2567 0.950 . S
H2591 C2569 0.950 . S
C793 N431 1.541 . S
C798 C18 1.512 . S
C823 C51 1.512 . S
C828 N464 1.541 . S
C853 C84 1.512 . S
C858 N497 1.541 1_556 S
C883 N398 1.541 . S
C888 C117 1.512 . S
C913 N365 1.541 . S
C918 C150 1.512 . S
C943 N266 1.541 . S
C948 C183 1.512 . S
C973 C216 1.512 . S
C978 N299 1.541 1_554 S
C1003 N332 1.541 . S
C1008 C249 1.512 . S
C1033 C282 1.512 . S
C1038 N35 1.541 . S
C1063 C315 1.512 . S
C1068 N68 1.541 . S
C1093 C348 1.512 . S
C1098 N101 1.541 1_455 S
C1123 N2 1.541 . S
C1128 C381 1.512 . S
C1153 N233 1.541 1_655 S
C1158 C414 1.512 . S
C1183 C447 1.512 . S
C1188 N134 1.541 . S
C1213 C480 1.512 . S
C1218 N167 1.541 . S
C1243 N200 1.541 . S
C1248 C513 1.512 . S
C1273 N728 1.541 . S
C1278 C546 1.512 . S
C1303 C579 1.512 . S
C1308 N596 1.541 1_545 S
C1333 C612 1.512 . S
C1338 N629 1.541 . S
C1363 N662 1.541 1_565 S
C1368 C645 1.512 . S
C1393 C678 1.512 . S
C1398 N563 1.541 . S
C1423 N761 1.541 . S
C1428 C711 1.512 . S
C1453 C744 1.512 . S
C1458 N695 1.541 . S
C1483 N530 1.541 . S
C1488 C777 1.512 . S
C1513 N541 0.782 . S
C1518 C7 0.787 . S
C1543 N772 0.782 . S
C1548 C40 0.787 . S
C1573 C73 0.787 . S
C1578 N706 0.782 . S
C1603 N739 0.782 . S
C1608 C106 0.787 . S
C1633 N574 0.782 . S
C1638 C139 0.787 . S
C1663 N607 0.782 . S
C1668 C172 0.787 . S
C1693 N640 0.782 . S
C1698 C205 0.787 . S
C1723 C238 0.787 . S
C1728 N673 0.782 . S
C1753 C271 0.787 . S
C1758 N13 0.782 . S
C1783 C304 0.787 . S
C1788 N46 0.782 . S
C1813 C337 0.787 . S
C1818 N79 0.782 . S
C1843 C370 0.787 . S
C1848 N112 0.782 . S
C1873 C403 0.787 . S
C1878 N145 0.782 . S
C1903 N178 0.782 . S
C1908 C436 0.787 . S
C1933 N211 0.782 . S
C1938 C469 0.787 . S
C1963 C502 0.787 . S
C1968 N244 0.782 . S
C1993 N277 0.782 . S
C1998 C535 0.787 . S
C2023 N409 0.782 . S
C2028 C568 0.787 . S
C2053 N442 0.782 . S
C2058 C601 0.787 . S
C2083 N475 0.782 . S
C2088 C634 0.787 . S
C2113 C667 0.787 . S
C2118 N508 0.782 . S
C2143 C700 0.787 . S
C2148 N343 0.782 . S
C2173 C733 0.787 . S
C2178 N376 0.782 . S
C2203 N310 0.782 . S
C2208 C766 0.787 . S
C2233 C681 1.004 . S
C2238 C21 1.004 . S
C2263 C54 1.004 . S
C2268 C582 1.004 . S
C2293 C615 1.004 . S
C2298 C87 1.004 . S
C2323 C120 1.004 . S
C2328 C648 1.004 . S
C2353 C780 1.004 . S
C2358 C153 1.004 . S
C2383 C714 1.004 . S
C2388 C186 1.004 . S
C2413 C219 1.004 . S
C2418 C747 1.004 . S
C2443 C549 1.004 . S
C2448 C252 1.004 . S
C2473 C516 1.004 . S
C2478 C285 1.004 . S
C2503 C417 1.004 . S
C2508 C318 1.004 . S
C2533 C450 1.004 . S
C2538 C351 1.004 . S
C2563 C483 1.004 . S
C2568 C384 1.004 . S
