# Generated by pormake.
# Topology wli, (5)-cn, num edge types: 1
# Building blocks:
#     Node 0, Type 0, BuildingBlock: XOMCOT_clean_sbu_0, # of connection points: 5
#     Node 1, Type 0, BuildingBlock: XOMCOT_clean_sbu_0, # of connection points: 5
#     Node 2, Type 0, BuildingBlock: XOMCOT_clean_sbu_0, # of connection points: 5
#     Node 3, Type 0, BuildingBlock: XOMCOT_clean_sbu_0, # of connection points: 5
#     Node 4, Type 0, BuildingBlock: XOMCOT_clean_sbu_0, # of connection points: 5
#     Node 5, Type 0, BuildingBlock: XOMCOT_clean_sbu_0, # of connection points: 5
#     Edge 6, Type (0, 0), BuildingBlock: MIFKUJ_clean_linker_0, # of connection points: 2
#     Edge 7, Type (0, 0), BuildingBlock: MIFKUJ_clean_linker_0, # of connection points: 2
#     Edge 8, Type (0, 0), BuildingBlock: MIFKUJ_clean_linker_0, # of connection points: 2
#     Edge 9, Type (0, 0), BuildingBlock: MIFKUJ_clean_linker_0, # of connection points: 2
#     Edge 10, Type (0, 0), BuildingBlock: MIFKUJ_clean_linker_0, # of connection points: 2
#     Edge 11, Type (0, 0), BuildingBlock: MIFKUJ_clean_linker_0, # of connection points: 2
#     Edge 12, Type (0, 0), BuildingBlock: MIFKUJ_clean_linker_0, # of connection points: 2
#     Edge 13, Type (0, 0), BuildingBlock: MIFKUJ_clean_linker_0, # of connection points: 2
#     Edge 14, Type (0, 0), BuildingBlock: MIFKUJ_clean_linker_0, # of connection points: 2
#     Edge 15, Type (0, 0), BuildingBlock: MIFKUJ_clean_linker_0, # of connection points: 2
#     Edge 16, Type (0, 0), BuildingBlock: MIFKUJ_clean_linker_0, # of connection points: 2
#     Edge 17, Type (0, 0), BuildingBlock: MIFKUJ_clean_linker_0, # of connection points: 2
#     Edge 18, Type (0, 0), BuildingBlock: MIFKUJ_clean_linker_0, # of connection points: 2
#     Edge 19, Type (0, 0), BuildingBlock: MIFKUJ_clean_linker_0, # of connection points: 2
#     Edge 20, Type (0, 0), BuildingBlock: MIFKUJ_clean_linker_0, # of connection points: 2
# Relax obj value: 0.128
# Max RMSD: 0.157
# Mean RMSD: 0.157
data_MOF--net-wli--node1-XOMCOT_clean_sbu_0--edge1-MIFKUJ_clean_linker_0
_symmetry_space_group_name_H-M    P1
_symmetry_Int_Tables_number       1
_symmetry_cell_setting            triclinic
loop_
_symmetry_equiv_pos_as_xyz
'x, y, z'
_cell_length_a     46.829421
_cell_length_b     46.780325
_cell_length_c     33.311698
_cell_angle_alpha  89.836111
_cell_angle_beta   90.122939
_cell_angle_gamma 120.03362
loop_
_atom_site_label
_atom_site_type_symbol
_atom_site_fract_x
_atom_site_fract_y
_atom_site_fract_z
_atom_type_partial_charge
Co0 Co 0.20466 0.42952 0.10527 0.0
C1 C 0.15524 0.389 0.16809 0.0
C2 C 0.20031 0.38827 0.17474 0.0
C3 C 0.17993 0.37119 0.20637 0.0
N4 N 0.18442 0.39844 0.1497 0.0
N5 N 0.15168 0.37186 0.20221 0.0
H6 H 0.13765 0.39603 0.15844 0.0
H7 H 0.22564 0.39418 0.17136 0.0
C8 C 0.22526 0.37958 0.09087 0.0
O9 O 0.1948 0.35684 0.09932 0.0
N10 N 0.22514 0.46146 0.06264 0.0
C11 C 0.20953 0.47204 0.03795 0.0
C12 C 0.23264 0.49739 0.01475 0.0
C13 C 0.25757 0.48055 0.05435 0.0
N14 N 0.26284 0.50285 0.02516 0.0
C15 C 0.13941 0.39342 0.0711 0.0
C16 C 0.15782 0.37456 1.00177 0.0
C17 C 0.12501 0.36693 0.006 0.0
C18 C 0.11585 0.37636 0.04141 0.0
C19 C 0.18058 0.39172 0.03213 0.0
N20 N 0.1712 0.40024 0.0669 0.0
H21 H 0.13236 0.40298 0.09609 0.0
H22 H 0.20619 0.39981 0.02639 0.0
H23 H 0.1832 0.46254 0.0376 0.0
H24 H 0.27687 0.47907 0.07049 0.0
O25 O 0.18387 0.45368 0.12378 0.0
O26 O 0.23277 0.46244 0.14402 0.0
O27 O 0.23383 0.41021 0.09182 0.0
C28 C 0.20979 0.47035 0.14618 0.0
H29 H 0.18615 0.36076 0.23168 0.0
H30 H 0.22758 0.51095 0.99217 0.0
H31 H 0.16634 0.36902 0.97424 0.0
H32 H 0.09092 0.3716 0.04562 0.0
Co33 Co 0.58792 0.77783 0.76926 0.0
C34 C 0.62983 0.77025 0.82911 0.0
C35 C 0.63887 0.81999 0.82852 0.0
C36 C 0.65826 0.81731 0.8579 0.0
N37 N 0.62115 0.79043 0.81052 0.0
N38 N 0.65232 0.78594 0.85836 0.0
H39 H 0.61967 0.74446 0.82158 0.0
H40 H 0.6373 0.84175 0.82157 0.0
C41 C 0.60858 0.8375 0.71705 0.0
O42 O 0.59722 0.81759 0.68604 0.0
N43 N 0.55366 0.76443 0.72854 0.0
C44 C 0.54345 0.73984 0.70139 0.0
C45 C 0.51822 0.73867 0.67908 0.0
C46 C 0.53344 0.77704 0.72315 0.0
N47 N 0.51204 0.76213 0.69259 0.0
C48 C 0.60945 0.73917 0.72585 0.0
C49 C 0.66378 0.79078 0.68947 0.0
C50 C 0.65426 0.75836 0.6783 0.0
C51 C 0.6274 0.73236 0.69801 0.0
C52 C 0.6452 0.79644 0.71788 0.0
N53 N 0.61671 0.77083 0.73312 0.0
H54 H 0.58875 0.71864 0.74036 0.0
H55 H 0.65404 0.82147 0.72742 0.0
H56 H 0.55276 0.72315 0.69787 0.0
H57 H 0.535 0.79726 0.74058 0.0
O58 O 0.56387 0.73424 0.79252 0.0
O59 O 0.55659 0.77597 0.80894 0.0
O60 O 0.60771 0.82594 0.75226 0.0
C61 C 0.54835 0.74516 0.81412 0.0
H62 H 0.67455 0.83663 0.8783 0.0
H63 H 0.50498 0.7214 0.65516 0.0
H64 H 0.6854 0.81157 0.67642 0.0
H65 H 0.61946 0.70687 0.69096 0.0
Co66 Co 0.23878 0.81357 0.43831 0.0
C67 C 0.25023 0.86383 0.50074 0.0
C68 C 0.20154 0.82197 0.50432 0.0
C69 C 0.20557 0.84309 0.53529 0.0
N70 N 0.22908 0.83552 0.48151 0.0
N71 N 0.23627 0.86926 0.53302 0.0
H72 H 0.27585 0.87939 0.49297 0.0
H73 H 0.18039 0.79766 0.5 0.0
C74 C 0.17003 0.79748 0.41952 0.0
O75 O 0.18035 0.82898 0.42515 0.0
N76 N 0.24897 0.79148 0.39672 0.0
C77 C 0.2751 0.80597 0.37186 0.0
C78 C 0.27453 0.78234 0.34699 0.0
C79 C 0.23308 0.7591 0.38723 0.0
N80 N 0.24817 0.75291 0.35665 0.0
C81 C 0.27201 0.87906 0.40415 0.0
C82 C 0.23649 0.86263 0.33329 0.0
C83 C 0.26271 0.89485 0.33833 0.0
C84 C 0.28061 0.903 0.37426 0.0
C85 C 0.22911 0.83932 0.36361 0.0
N86 N 0.24601 0.84782 0.39923 0.0
H87 H 0.2877 0.88528 0.43004 0.0
H88 H 0.21076 0.814 0.35748 0.0
H89 H 0.29349 0.83193 0.3721 0.0
H90 H 0.21108 0.74058 0.40233 0.0
O91 O 0.2832 0.83196 0.45821 0.0
O92 O 0.24074 0.78432 0.47806 0.0
O93 O 0.19018 0.7867 0.42383 0.0
C94 C 0.27206 0.80595 0.48102 0.0
H95 H 0.188 0.83874 0.55892 0.0
H96 H 0.29266 0.78633 0.32427 0.0
H97 H 0.22293 0.85503 0.30527 0.0
H98 H 0.30164 0.92744 0.3788 0.0
Co99 Co 0.4354 0.19694 0.90112 0.0
C100 C 0.39333 0.14547 0.84143 0.0
C101 C 0.39375 0.19092 0.83171 0.0
C102 C 0.3759 0.16944 0.80129 0.0
N103 N 0.40386 0.17559 0.8577 0.0
N104 N 0.37587 0.14095 0.8074 0.0
H105 H 0.39954 0.12769 0.8527 0.0
H106 H 0.40009 0.2165 0.83376 0.0
C107 C 0.38403 0.2157 0.91603 0.0
O108 O 0.36186 0.18506 0.90738 0.0
N109 N 0.46764 0.21845 0.943 0.0
C110 C 0.47939 0.20373 0.96738 0.0
C111 C 0.50422 0.22748 0.99048 0.0
C112 C 0.4855 0.25099 0.95132 0.0
N113 N 0.50818 0.2572 0.98027 0.0
C114 C 0.40446 0.13225 0.93686 0.0
C115 C 0.38054 0.14765 1.00424 0.0
C116 C 0.37648 0.11604 1.00084 0.0
C117 C 0.38869 0.10843 0.9667 0.0
C118 C 0.39705 0.17095 0.97406 0.0
N119 N 0.40773 0.16286 0.93998 0.0
H120 H 0.41594 0.12657 0.91266 0.0
H121 H 0.40276 0.19597 0.97949 0.0
H122 H 0.47101 0.17759 0.96769 0.0
H123 H 0.48279 0.26973 0.93547 0.0
O124 O 0.4608 0.17778 0.88146 0.0
O125 O 0.46713 0.22588 0.86164 0.0
O126 O 0.41476 0.22481 0.91518 0.0
C127 C 0.47627 0.20383 0.8589 0.0
H128 H 0.36536 0.17495 0.77551 0.0
H129 H 0.51841 0.22318 0.0129 0.0
H130 H 0.3727 0.15487 0.03105 0.0
H131 H 0.38689 0.08453 0.96361 0.0
Co132 Co 0.82586 0.24548 0.56982 0.0
C133 C 0.87516 0.25314 0.50994 0.0
C134 C 0.83584 0.20277 0.51267 0.0
C135 C 0.85804 0.20543 0.48359 0.0
N136 N 0.84671 0.23274 0.52914 0.0
N137 N 0.88257 0.23719 0.4818 0.0
H138 H 0.89014 0.27922 0.51637 0.0
H139 H 0.81313 0.18064 0.52056 0.0
C140 C 0.78695 0.18599 0.6224 0.0
O141 O 0.79568 0.20588 0.65343 0.0
N142 N 0.805 0.25925 0.60994 0.0
C143 C 0.8195 0.28606 0.63391 0.0
C144 C 0.79579 0.28744 0.65652 0.0
C145 C 0.77229 0.24557 0.6172 0.0
N146 N 0.76614 0.26187 0.64629 0.0
C147 C 0.88559 0.2845 0.61408 0.0
C148 C 0.88821 0.2332 0.65167 0.0
C149 C 0.91019 0.26568 0.66371 0.0
C150 C 0.90964 0.29152 0.64312 0.0
C151 C 0.86452 0.22734 0.62223 0.0
N152 N 0.86152 0.25278 0.60653 0.0
H153 H 0.8859 0.30491 0.59856 0.0
H154 H 0.84863 0.20227 0.61253 0.0
H155 H 0.84528 0.30427 0.63464 0.0
H156 H 0.75351 0.22365 0.60223 0.0
O157 O 0.84526 0.28895 0.54627 0.0
O158 O 0.79645 0.24699 0.52966 0.0
O159 O 0.79757 0.19746 0.58717 0.0
C160 C 0.8188 0.27789 0.52455 0.0
H161 H 0.85576 0.18576 0.46439 0.0
H162 H 0.80002 0.30627 0.67835 0.0
H163 H 0.88861 0.21246 0.66559 0.0
H164 H 0.92738 0.31705 0.64977 0.0
Co165 Co 0.77532 0.58593 0.23376 0.0
C166 C 0.76767 0.62895 0.17341 0.0
C167 C 0.8159 0.63466 0.17158 0.0
C168 C 0.81346 0.65333 0.1412 0.0
N169 N 0.7876 0.62026 0.19298 0.0
N170 N 0.78304 0.64959 0.14231 0.0
H171 H 0.74185 0.61893 0.17993 0.0
H172 H 0.83642 0.63055 0.17624 0.0
C173 C 0.84346 0.63598 0.25763 0.0
O174 O 0.83355 0.65762 0.25339 0.0
N175 N 0.76235 0.55083 0.27268 0.0
C176 C 0.73371 0.53659 0.29309 0.0
C177 C 0.73249 0.51211 0.3171 0.0
C178 C 0.77815 0.53466 0.28419 0.0
N179 N 0.76042 0.51088 0.31167 0.0
C180 C 0.74561 0.62119 0.27018 0.0
C181 C 0.7768 0.63043 0.34351 0.0
C182 C 0.75407 0.64129 0.33864 0.0
C183 C 0.73848 0.63667 0.30131 0.0
C184 C 0.78319 0.61517 0.31175 0.0
N185 N 0.76848 0.6115 0.27509 0.0
H186 H 0.73138 0.61552 0.24307 0.0
H187 H 0.79937 0.60534 0.31718 0.0
H188 H 0.7149 0.54347 0.29046 0.0
H189 H 0.80207 0.54032 0.27292 0.0
O190 O 0.73143 0.5626 0.21143 0.0
O191 O 0.7733 0.55633 0.19208 0.0
O192 O 0.82334 0.60542 0.25034 0.0
C193 C 0.74237 0.54792 0.18816 0.0
H194 H 0.83193 0.66699 0.11856 0.0
H195 H 0.7122 0.49602 0.33651 0.0
H196 H 0.78923 0.63317 0.3719 0.0
H197 H 0.71983 0.64359 0.29673 0.0
H198 H 0.22051 0.69306 0.39337 0.0
H199 H 0.2121 0.64128 0.36397 0.0
H200 H 0.24772 0.69044 0.25004 0.0
H201 H 0.25647 0.74197 0.27932 0.0
H202 H 0.17686 0.60125 0.3036 0.0
H203 H 0.2959 0.66602 0.20606 0.0
H204 H 0.35112 0.71574 0.20867 0.0
H205 H 0.34558 0.71674 0.33727 0.0
H206 H 0.29057 0.66675 0.33548 0.0
H207 H 0.17082 0.49817 0.1466 0.0
H208 H 0.17589 0.54283 0.1891 0.0
H209 H 0.25976 0.54693 0.2488 0.0
H210 H 0.25545 0.50283 0.2052 0.0
H211 H 0.27267 0.60605 0.2337 0.0
H212 H 0.18232 0.51318 0.2943 0.0
H213 H 0.12883 0.46135 0.29671 0.0
H214 H 0.07988 0.51235 0.25376 0.0
H215 H 0.13316 0.56439 0.25036 0.0
C216 C 0.22608 0.6926 0.36194 0.0
C217 C 0.2396 0.72163 0.33876 0.0
C218 C 0.22135 0.66307 0.3452 0.0
C219 C 0.22999 0.66217 0.30504 0.0
C220 C 0.24169 0.69073 0.28136 0.0
C221 C 0.24668 0.72017 0.2981 0.0
C222 C 0.22804 0.63196 0.28789 0.0
C223 C 0.19779 0.60221 0.28843 0.0
C224 C 0.25565 0.63292 0.2692 0.0
C225 C 0.28897 0.66277 0.27058 0.0
C226 C 0.30653 0.67675 0.23491 0.0
C227 C 0.33779 0.705 0.23624 0.0
C228 C 0.35181 0.71945 0.2731 0.0
C229 C 0.33465 0.7056 0.30873 0.0
C230 C 0.30342 0.67732 0.30756 0.0
C231 C 0.19028 0.50848 0.16888 0.0
C232 C 0.21273 0.49699 0.17262 0.0
C233 C 0.19302 0.53389 0.19339 0.0
C234 C 0.21785 0.54792 0.22271 0.0
C235 C 0.24032 0.53644 0.2265 0.0
C236 C 0.23784 0.51124 0.20161 0.0
C237 C 0.22115 0.57553 0.24806 0.0
C238 C 0.25173 0.60487 0.24913 0.0
C239 C 0.19406 0.57382 0.26915 0.0
C240 C 0.16182 0.54269 0.27184 0.0
C241 C 0.16018 0.51332 0.28515 0.0
C242 C 0.12989 0.4839 0.2867 0.0
C243 C 0.10098 0.48355 0.27535 0.0
C244 C 0.1023 0.51266 0.26253 0.0
C245 C 0.13254 0.54214 0.26083 0.0
H246 H 0.07756 0.46074 0.27653 0.0
H247 H 0.37599 0.74134 0.27407 0.0
H248 H 0.54043 0.68876 0.84779 0.0
H249 H 0.49499 0.64929 0.88976 0.0
H250 H 0.45071 0.71094 0.88439 0.0
H251 H 0.4971 0.75132 0.84357 0.0
H252 H 0.44226 0.68525 0.95633 0.0
H253 H 0.42495 0.64123 0.82292 0.0
H254 H 0.43958 0.62341 0.76045 0.0
H255 H 0.4519 0.55126 0.82631 0.0
H256 H 0.43778 0.56897 0.88929 0.0
H257 H 0.27667 0.56273 0.99692 0.0
H258 H 0.3282 0.60492 0.96695 0.0
H259 H 0.37164 0.54382 0.98804 0.0
H260 H 0.31961 0.50102 0.01764 0.0
H261 H 0.38199 0.56861 0.91106 0.0
H262 H 0.39467 0.61148 0.04456 0.0
H263 H 0.37773 0.6293 0.10517 0.0
H264 H 0.3711 0.70364 0.03661 0.0
H265 H 0.38756 0.68595 0.97543 0.0
C266 C 0.52113 0.69403 0.85582 0.0
C267 C 0.5221 0.72294 0.84213 0.0
C268 C 0.49506 0.67136 0.87967 0.0
C269 C 0.4689 0.67664 0.88946 0.0
C270 C 0.47048 0.70618 0.87708 0.0
C271 C 0.49695 0.72923 0.85375 0.0
C272 C 0.43953 0.6509 0.91146 0.0
C273 C 0.42889 0.65984 0.94616 0.0
C274 C 0.42234 0.6175 0.89874 0.0
C275 C 0.43063 0.60665 0.86087 0.0
C276 C 0.431 0.62172 0.82412 0.0
C277 C 0.43917 0.61162 0.78861 0.0
C278 C 0.44674 0.58628 0.78943 0.0
C279 C 0.44607 0.57092 0.82574 0.0
C280 C 0.43796 0.58096 0.86134 0.0
C281 C 0.29711 0.55817 0.99513 0.0
C282 C 0.29396 0.52839 0.00945 0.0
C283 C 0.32671 0.5825 0.97835 0.0
C284 C 0.35389 0.57769 0.97555 0.0
C285 C 0.35099 0.5481 0.99006 0.0
C286 C 0.32136 0.52376 0.00716 0.0
C287 C 0.38473 0.60301 0.95577 0.0
C288 C 0.39555 0.59398 0.9214 0.0
C289 C 0.40177 0.63635 0.96851 0.0
C290 C 0.39211 0.6472 0.00533 0.0
C291 C 0.38937 0.63147 0.04233 0.0
C292 C 0.37989 0.64158 0.07681 0.0
C293 C 0.37328 0.66754 0.07473 0.0
C294 C 0.37621 0.68351 0.03817 0.0
C295 C 0.38566 0.67348 1.0036 0.0
H296 H 0.36593 0.67532 0.10145 0.0
H297 H 0.45307 0.5785 0.76191 0.0
H298 H 0.25564 0.75678 0.53651 0.0
H299 H 0.29289 0.74996 0.58225 0.0
H300 H 0.37559 0.83791 0.5333 0.0
H301 H 0.33856 0.84526 0.48846 0.0
H302 H 0.34099 0.73886 0.56805 0.0
H303 H 0.43492 0.87744 0.60232 0.0
H304 H 0.43409 0.92938 0.61073 0.0
H305 H 0.3318 0.8747 0.64365 0.0
H306 H 0.33215 0.82246 0.63623 0.0
H307 H 0.49365 0.75797 0.61522 0.0
H308 H 0.44992 0.76616 0.58797 0.0
H309 H 0.43154 0.79121 0.70596 0.0
H310 H 0.47601 0.78341 0.7334 0.0
H311 H 0.42672 0.83012 0.6499 0.0
H312 H 0.38095 0.71476 0.66851 0.0
H313 H 0.37831 0.66087 0.66417 0.0
H314 H 0.37702 0.66543 0.53547 0.0
H315 H 0.38016 0.71959 0.53901 0.0
C316 C 0.28174 0.77475 0.53573 0.0
C317 C 0.29416 0.80158 0.50894 0.0
C318 C 0.303 0.77083 0.56185 0.0
C319 C 0.33702 0.79368 0.56167 0.0
C320 C 0.34939 0.82037 0.53473 0.0
C321 C 0.32818 0.8244 0.50886 0.0
C322 C 0.35996 0.7889 0.58805 0.0
C323 C 0.35955 0.75875 0.58616 0.0
C324 C 0.38366 0.81454 0.61263 0.0
C325 C 0.38353 0.84597 0.61841 0.0
C326 C 0.41231 0.87648 0.61168 0.0
C327 C 0.41191 0.90599 0.61622 0.0
C328 C 0.38289 0.90533 0.62762 0.0
C329 C 0.35425 0.87517 0.63473 0.0
C330 C 0.35454 0.8456 0.63035 0.0
C331 C 0.48028 0.76517 0.6354 0.0
C332 C 0.48787 0.76953 0.67654 0.0
C333 C 0.45529 0.76987 0.6198 0.0
C334 C 0.43689 0.77852 0.64506 0.0
C335 C 0.44527 0.7843 0.68595 0.0
C336 C 0.47065 0.77989 0.70159 0.0
C337 C 0.40849 0.78058 0.62842 0.0
C338 C 0.40785 0.81014 0.63219 0.0
C339 C 0.38322 0.75411 0.60638 0.0
C340 C 0.38097 0.72134 0.60405 0.0
C341 C 0.38029 0.70436 0.63928 0.0
C342 C 0.37869 0.67376 0.63696 0.0
C343 C 0.37754 0.65976 0.59957 0.0
C344 C 0.37791 0.6763 0.56441 0.0
C345 C 0.37955 0.70694 0.56656 0.0
H346 H 0.37632 0.63607 0.59784 0.0
H347 H 0.3826 0.9282 0.63098 0.0
H348 H 0.50704 0.16756 0.85804 0.0
H349 H 0.5536 0.17616 0.81661 0.0
H350 H 0.55236 0.25745 0.75666 0.0
H351 H 0.50641 0.24968 0.79924 0.0
H352 H 0.56479 0.17366 0.74097 0.0
H353 H 0.63009 0.31604 0.73242 0.0
H354 H 0.63433 0.36284 0.77132 0.0
H355 H 0.61174 0.30569 0.87973 0.0
H356 H 0.60781 0.25873 0.84156 0.0
H357 H 0.70574 0.23231 0.6108 0.0
H358 H 0.65347 0.22085 0.64183 0.0
H359 H 0.70419 0.26077 0.75389 0.0
H360 H 0.75603 0.27248 0.72306 0.0
H361 H 0.66552 0.28428 0.7394 0.0
H362 H 0.65533 0.17704 0.73726 0.0
H363 H 0.65422 0.12869 0.70622 0.0
H364 H 0.5716 0.11232 0.63341 0.0
H365 H 0.5726 0.16094 0.66354 0.0
C366 C 0.51662 0.18724 0.83596 0.0
C367 C 0.50332 0.20819 0.83217 0.0
C368 C 0.54315 0.19201 0.81212 0.0
C369 C 0.55681 0.21769 0.78378 0.0
C370 C 0.54269 0.23786 0.77884 0.0
C371 C 0.5164 0.23338 0.80313 0.0
C372 C 0.58673 0.22412 0.76093 0.0
C373 C 0.58675 0.19791 0.74041 0.0
C374 C 0.61564 0.25559 0.76069 0.0
C375 C 0.61828 0.28378 0.78403 0.0
C376 C 0.62613 0.31352 0.76457 0.0
C377 C 0.62847 0.34006 0.78648 0.0
C378 C 0.6232 0.3372 0.82794 0.0
C379 C 0.6157 0.30783 0.8476 0.0
C380 C 0.61338 0.28124 0.82583 0.0
C381 C 0.70556 0.23836 0.6421 0.0
C382 C 0.73501 0.25357 0.6644 0.0
C383 C 0.67574 0.23185 0.6598 0.0
C384 C 0.67488 0.23999 0.70024 0.0
C385 C 0.70423 0.25462 0.72256 0.0
C386 C 0.7339 0.26135 0.70487 0.0
C387 C 0.64373 0.23379 0.71969 0.0
C388 C 0.64344 0.26011 0.73949 0.0
C389 C 0.61502 0.20218 0.72036 0.0
C390 C 0.6143 0.17288 0.7023 0.0
C391 C 0.63711 0.1633 0.71437 0.0
C392 C 0.63648 0.13582 0.69699 0.0
C393 C 0.61292 0.1175 0.66778 0.0
C394 C 0.58989 0.12658 0.65598 0.0
C395 C 0.59048 0.1541 0.67319 0.0
H396 H 0.61245 0.09623 0.65437 0.0
H397 H 0.62502 0.35777 0.84483 0.0
H398 H 0.80053 0.4887 0.28393 0.0
H399 H 0.81252 0.44894 0.31695 0.0
H400 H 0.75035 0.44176 0.41635 0.0
H401 H 0.73933 0.48208 0.38442 0.0
H402 H 0.80394 0.44504 0.44388 0.0
H403 H 0.72278 0.37927 0.34427 0.0
H404 H 0.69895 0.36408 0.27638 0.0
H405 H 0.78424 0.36083 0.2358 0.0
H406 H 0.80844 0.37568 0.30374 0.0
H407 H 0.76309 0.26537 0.48287 0.0
H408 H 0.75477 0.30476 0.44286 0.0
H409 H 0.85584 0.37987 0.4642 0.0
H410 H 0.86417 0.34098 0.50442 0.0
H411 H 0.78267 0.342 0.37569 0.0
H412 H 0.85855 0.45271 0.48146 0.0
H413 H 0.87516 0.46299 0.55269 0.0
H414 H 0.78953 0.3714 0.58571 0.0
H415 H 0.77216 0.36085 0.5148 0.0
C416 C 0.78973 0.47891 0.313 0.0
C417 C 0.76873 0.48843 0.33132 0.0
C418 C 0.79632 0.45591 0.33167 0.0
C419 C 0.78199 0.44198 0.36895 0.0
C420 C 0.76162 0.45201 0.38756 0.0
C421 C 0.75508 0.47491 0.36903 0.0
C422 C 0.7881 0.41704 0.38899 0.0
C423 C 0.79946 0.42263 0.42882 0.0
C424 C 0.78175 0.38747 0.36976 0.0
C425 C 0.76754 0.37893 0.32887 0.0
C426 C 0.73654 0.37556 0.32077 0.0
C427 C 0.72295 0.36696 0.2823 0.0
C428 C 0.74018 0.36178 0.25165 0.0
C429 C 0.77096 0.36495 0.25952 0.0
C430 C 0.78457 0.37333 0.29804 0.0
C431 C 0.78359 0.29018 0.47865 0.0
C432 C 0.81416 0.30017 0.49713 0.0
C433 C 0.77885 0.31263 0.45572 0.0
C434 C 0.80456 0.34539 0.45102 0.0
C435 C 0.8355 0.35489 0.46794 0.0
C436 C 0.84021 0.33258 0.4909 0.0
C437 C 0.79869 0.37019 0.43037 0.0
C438 C 0.78745 0.3646 0.39052 0.0
C439 C 0.80439 0.39943 0.44991 0.0
C440 C 0.81428 0.40585 0.49276 0.0
C441 C 0.84321 0.43485 0.50395 0.0
C442 C 0.85276 0.44071 0.54427 0.0
C443 C 0.83347 0.41781 0.57369 0.0
C444 C 0.80451 0.38906 0.56288 0.0
C445 C 0.79482 0.38312 0.52263 0.0
H446 H 0.84093 0.42237 0.60487 0.0
H447 H 0.72961 0.35515 0.22187 0.0
H448 H 0.50348 0.31251 0.98734 0.0
H449 H 0.54416 0.36505 0.01776 0.0
H450 H 0.60886 0.3258 0.03924 0.0
H451 H 0.56849 0.27356 0.00908 0.0
H452 H 0.60367 0.35453 0.10467 0.0
H453 H 0.62428 0.38289 0.96507 0.0
H454 H 0.61 0.38894 0.8955 0.0
H455 H 0.57814 0.45575 0.9351 0.0
H456 H 0.59177 0.44971 0.00506 0.0
H457 H 0.75157 0.50035 0.1536 0.0
H458 H 0.71198 0.45362 0.11287 0.0
H459 H 0.64359 0.48981 0.11857 0.0
H460 H 0.68283 0.53633 0.15992 0.0
H461 H 0.64975 0.46432 0.03935 0.0
H462 H 0.62899 0.4349 0.17922 0.0
H463 H 0.6454 0.42995 0.2481 0.0
H464 H 0.6789 0.36497 0.20633 0.0
H465 H 0.66334 0.37013 0.13707 0.0
C466 C 0.52655 0.31528 0.99812 0.0
C467 C 0.53262 0.28877 0.99611 0.0
C468 C 0.54978 0.3453 0.01551 0.0
C469 C 0.57963 0.34941 0.03074 0.0
C470 C 0.58593 0.32315 0.028 0.0
C471 C 0.56274 0.29322 0.01086 0.0
C472 C 0.60393 0.3805 0.05095 0.0
C473 C 0.61398 0.37844 0.09009 0.0
C474 C 0.61689 0.41186 0.0324 0.0
C475 C 0.6087 0.41556 0.99037 0.0
C476 C 0.61396 0.39864 0.959 0.0
C477 C 0.60603 0.40212 0.91949 0.0
C478 C 0.59309 0.42264 0.91089 0.0
C479 C 0.58811 0.43981 0.94181 0.0
C480 C 0.59595 0.43639 0.9814 0.0
C481 C 0.7283 0.49861 0.14569 0.0
C482 C 0.72014 0.52179 0.16013 0.0
C483 C 0.70574 0.47194 0.12247 0.0
C484 C 0.67488 0.4683 0.11289 0.0
C485 C 0.66732 0.49229 0.12559 0.0
C486 C 0.68966 0.51869 0.14937 0.0
C487 C 0.64957 0.43803 0.09254 0.0
C488 C 0.63931 0.44031 0.05367 0.0
C489 C 0.63644 0.40678 0.11117 0.0
C490 C 0.64534 0.4032 0.1529 0.0
C491 C 0.64015 0.4198 0.18468 0.0
C492 C 0.64927 0.41695 0.22381 0.0
C493 C 0.66331 0.39727 0.23161 0.0
C494 C 0.66814 0.3803 0.20029 0.0
C495 C 0.65916 0.38318 0.16108 0.0
H496 H 0.67033 0.39512 0.26195 0.0
H497 H 0.58699 0.42531 0.88027 0.0
H498 H 0.92344 0.31033 0.72307 0.0
H499 H 0.96116 0.32378 0.7795 0.0
H500 H 0.98537 0.25065 0.74029 0.0
H501 H 0.9474 0.23698 0.68323 0.0
H502 H 0.97637 0.24901 0.82206 0.0
H503 H 0.03895 0.33034 0.72316 0.0
H504 H 0.04994 0.37305 0.67234 0.0
H505 H 0.04034 0.43333 0.76219 0.0
H506 H 0.02879 0.39075 0.81348 0.0
H507 H 0.11609 0.31642 0.95636 0.0
H508 H 0.08029 0.29556 0.89716 0.0
H509 H 0.04528 0.36355 0.91979 0.0
H510 H 0.0814 0.38495 0.97823 0.0
H511 H 0.06385 0.36562 0.84222 0.0
H512 H 0.99726 0.28218 0.93977 0.0
H513 H 0.98592 0.23922 0.99038 0.0
H514 H 1.0038 0.18297 0.90259 0.0
H515 H 0.01571 0.22586 0.85156 0.0
C516 C 0.93701 0.29729 0.72613 0.0
C517 C 0.93282 0.27294 0.69832 0.0
C518 C 0.95849 0.30494 0.7585 0.0
C519 C 0.9765 0.28863 0.76369 0.0
C520 C 0.97178 0.26363 0.73669 0.0
C521 C 0.9501 0.25584 0.70418 0.0
C522 C 1.00033 0.29819 0.7973 0.0
C523 C 0.99591 0.27437 0.82613 0.0
C524 C 0.02554 0.33137 0.80282 0.0
C525 C 0.03278 0.35722 0.77213 0.0
C526 C 0.03897 0.3526 0.73205 0.0
C527 C 0.04532 0.3768 0.70316 0.0
C528 C 0.04578 0.40586 0.71402 0.0
C529 C 0.03996 0.4108 0.75382 0.0
C530 C 0.03355 0.38666 0.78283 0.0
C531 C 0.10065 0.32681 0.94875 0.0
C532 C 0.10148 0.35224 0.97207 0.0
C533 C 0.08009 0.31474 0.9151 0.0
C534 C 0.06004 0.32793 0.90421 0.0
C535 C 0.06054 0.35301 0.92771 0.0
C536 C 0.08096 0.36498 0.96135 0.0
C537 C 0.03937 0.31664 0.86751 0.0
C538 C 0.04452 0.34018 0.83798 0.0
C539 C 0.01498 0.28323 0.86137 0.0
C540 C 1.00776 0.25741 0.89198 0.0
C541 C 0.99907 0.26079 0.93135 0.0
C542 C 0.99248 0.23643 0.96009 0.0
C543 C 0.99424 0.20843 0.94974 0.0
C544 C 1.00251 0.2047 0.91058 0.0
C545 C 1.00916 0.22902 0.88173 0.0
H546 H 0.98912 0.18958 0.97203 0.0
H547 H 0.05069 0.42456 0.6916 0.0
H548 H 0.74505 0.69489 0.33912 0.0
H549 H 0.73074 0.7179 0.39665 0.0
H550 H 0.72947 0.64284 0.4734 0.0
H551 H 0.74298 0.61938 0.41614 0.0
H552 H 0.67631 0.64977 0.48567 0.0
H553 H 0.7939 0.7209 0.4755 0.0
H554 H 0.84599 0.75895 0.44117 0.0
H555 H 0.8112 0.82694 0.41985 0.0
H556 H 0.75868 0.78904 0.45359 0.0
H557 H 0.67263 0.7113 0.67586 0.0
H558 H 0.69288 0.69486 0.6178 0.0
H559 H 0.69335 0.77266 0.54747 0.0
H560 H 0.67318 0.78933 0.60555 0.0
H561 H 0.74642 0.76581 0.53021 0.0
H562 H 0.62925 0.69526 0.54081 0.0
H563 H 0.577 0.65733 0.57492 0.0
H564 H 0.61055 0.58815 0.59444 0.0
H565 H 0.66324 0.62591 0.56097 0.0
C566 C 0.74155 0.68325 0.36824 0.0
C567 C 0.74537 0.65548 0.37315 0.0
C568 C 0.73365 0.69655 0.40111 0.0
C569 C 0.72939 0.68227 0.43937 0.0
C570 C 0.73279 0.65433 0.44418 0.0
C571 C 0.74078 0.64112 0.41147 0.0
C572 C 0.72081 0.69592 0.47446 0.0
C573 C 0.69185 0.67503 0.49568 0.0
C574 C 0.74064 0.72913 0.48686 0.0
C575 C 0.77223 0.75198 0.46669 0.0
C576 C 0.79725 0.74384 0.46319 0.0
C577 C 0.82687 0.7654 0.4439 0.0
C578 C 0.83186 0.7953 0.42824 0.0
C579 C 0.80728 0.80374 0.43194 0.0
C580 C 0.77759 0.78224 0.45117 0.0
C581 C 0.6773 0.72507 0.64812 0.0
C582 C 0.67097 0.75137 0.64512 0.0
C583 C 0.68887 0.71567 0.61499 0.0
C584 C 0.69398 0.73213 0.5781 0.0
C585 C 0.68946 0.75956 0.57562 0.0
C586 C 0.67803 0.76911 0.60885 0.0
C587 C 0.70217 0.7195 0.54169 0.0
C588 C 0.73091 0.74057 0.52015 0.0
C589 C 0.68209 0.68644 0.52885 0.0
C590 C 0.65031 0.66356 0.54871 0.0
C591 C 0.62559 0.67206 0.55263 0.0
C592 C 0.59588 0.65058 0.57182 0.0
C593 C 0.59049 0.62038 0.58692 0.0
C594 C 0.61478 0.61157 0.58277 0.0
C595 C 0.64456 0.63299 0.56367 0.0
H596 H 0.56748 0.60378 0.60176 0.0
H597 H 0.85482 0.81197 0.41332 0.0
H598 H 0.40372 0.0838 0.03836 0.0
H599 H 0.38173 0.04592 0.09528 0.0
H600 H 0.29506 0.05616 0.0955 0.0
H601 H 0.31795 0.09544 0.03948 0.0
H602 H 0.31279 0.05691 0.16826 0.0
H603 H 0.29515 0.98501 0.05855 0.0
H604 H 0.30921 0.96427 0.99815 0.0
H605 H 0.38002 0.95124 0.06583 0.0
H606 H 0.36673 0.97234 0.12654 0.0
H607 H 0.22427 0.91161 0.29365 0.0
H608 H 0.24132 0.94942 0.2359 0.0
H609 H 0.34107 0.96874 0.24904 0.0
H610 H 0.32432 0.93145 0.30703 0.0
H611 H 0.31211 0.9505 0.1684 0.0
H612 H 0.32864 0.02534 0.27799 0.0
H613 H 0.31063 0.0437 0.33719 0.0
H614 H 0.23559 0.0472 0.26664 0.0
H615 H 0.25286 0.02837 0.20712 0.0
C616 C 0.37985 0.07771 0.05039 0.0
C617 C 0.36231 0.09218 0.03436 0.0
C618 C 0.36721 0.05597 0.08283 0.0
C619 C 0.33633 0.04751 0.09923 0.0
C620 C 0.31885 0.06215 0.08332 0.0
C621 C 0.33184 0.08447 0.05131 0.0
C622 C 0.32282 0.02405 0.13355 0.0
C623 C 0.31214 0.0334 0.1679 0.0
C624 C 0.32215 0.9934 0.13345 0.0
C625 C 0.33012 0.98052 0.09704 0.0
C626 C 0.31388 0.97793 0.0605 0.0
C627 C 0.32169 0.96608 0.02621 0.0
C628 C 0.34554 0.95651 0.02813 0.0
C629 C 0.36157 0.95869 0.06438 0.0
C630 C 0.35388 0.97056 0.09876 0.0
C631 C 0.24985 0.92414 0.28429 0.0
C632 C 0.27305 0.91884 0.30483 0.0
C633 C 0.25954 0.94568 0.25146 0.0
C634 C 0.29242 0.9618 0.23837 0.0
C635 C 0.31559 0.95651 0.2588 0.0
C636 C 0.30606 0.93544 0.29201 0.0
C637 C 0.30267 0.98372 0.20283 0.0
C638 C 0.31262 0.97395 0.16835 0.0
C639 C 0.30203 0.01359 0.20252 0.0
C640 C 0.29179 0.02509 0.23823 0.0
C641 C 0.30809 0.02972 0.27519 0.0
C642 C 0.29807 0.04028 0.30879 0.0
C643 C 0.27192 0.04652 0.30572 0.0
C644 C 0.25581 0.04231 0.269 0.0
C645 C 0.26572 0.03172 0.23532 0.0
H646 H 0.26419 0.05469 0.33176 0.0
H647 H 0.35155 0.94735 1.00154 0.0
H648 H 0.41669 0.26858 0.9666 0.0
H649 H 0.39466 0.30089 0.99804 0.0
H650 H 0.30477 0.24666 0.92977 0.0
H651 H 0.32603 0.21345 0.89989 0.0
H652 H 0.37425 0.34125 0.97811 0.0
H653 H 0.23887 0.23182 0.98212 0.0
H654 H 0.20935 0.171 0.9865 0.0
H655 H 0.29356 0.1747 0.04323 0.0
H656 H 0.32338 0.23552 0.03973 0.0
H657 H 0.2662 0.40225 0.02602 0.0
H658 H 0.29802 0.37866 0.99753 0.0
H659 H 0.26923 0.31051 0.09728 0.0
H660 H 0.23529 0.33231 0.12361 0.0
H661 H 0.26266 0.27781 0.03806 0.0
H662 H 0.35272 0.38149 0.07908 0.0
H663 H 0.38592 0.44212 0.08452 0.0
H664 H 0.39929 0.45006 0.95667 0.0
H665 H 0.36582 0.38948 0.9504 0.0
C666 C 0.39235 0.26382 0.95808 0.0
C667 C 0.37288 0.23821 0.9312 0.0
C668 C 0.37979 0.28232 0.97602 0.0
C669 C 0.3477 0.27575 0.96706 0.0
C670 C 0.32919 0.2516 0.93817 0.0
C671 C 0.34143 0.23271 0.92092 0.0
C672 C 0.33279 0.29279 0.98913 0.0
C673 C 0.34988 0.32743 0.99133 0.0
C674 C 0.30141 0.27483 0.00757 0.0
C675 C 0.28345 0.23822 0.01029 0.0
C676 C 0.25102 0.21965 0.99569 0.0
C677 C 0.23425 0.18518 0.99799 0.0
C678 C 0.24961 0.169 0.01502 0.0
C679 C 0.28173 0.18726 0.02993 0.0
C680 C 0.29858 0.22173 0.02777 0.0
C681 C 0.26715 0.38254 0.042 0.0
C682 C 0.24843 0.36905 0.07697 0.0
C683 C 0.28552 0.36914 0.02587 0.0
C684 C 0.28653 0.34286 0.04531 0.0
C685 C 0.26881 0.3305 0.08132 0.0
C686 C 0.24957 0.34309 0.09659 0.0
C687 C 0.30389 0.32657 0.02696 0.0
C688 C 0.28715 0.29189 0.02523 0.0
C689 C 0.33615 0.34453 0.01059 0.0
C690 C 0.35653 0.38095 0.01426 0.0
C691 C 0.36258 0.39617 0.0521 0.0
C692 C 0.38147 0.43053 0.05533 0.0
C693 C 0.39464 0.44993 0.02095 0.0
C694 C 0.38905 0.435 0.98327 0.0
C695 C 0.37016 0.40065 0.97987 0.0
H696 H 0.40923 0.47653 0.02352 0.0
H697 H 0.23659 0.14231 0.01673 0.0
H698 H 0.79455 0.13678 0.58942 0.0
H699 H 0.76394 0.07789 0.60621 0.0
H700 H 0.70191 0.09533 0.68647 0.0
H701 H 0.73428 0.15444 0.672 0.0
H702 H 0.71269 0.0556 0.7213 0.0
H703 H 0.67752 0.05606 0.58678 0.0
H704 H 0.68345 0.06843 0.51425 0.0
H705 H 0.73329 0.01313 0.49946 0.0
H706 H 0.72801 1.00077 0.57201 0.0
H707 H 0.59266 0.86931 0.66087 0.0
H708 H 0.62077 0.92837 0.64614 0.0
H709 H 0.69148 0.94584 0.73993 0.0
H710 H 0.66186 0.88686 0.75639 0.0
H711 H 0.67484 0.96804 0.61796 0.0
H712 H 0.72808 0.02319 0.77488 0.0
H713 H 0.71313 0.01076 0.84636 0.0
H714 H 0.61062 0.95464 0.81456 0.0
H715 H 0.62492 0.96707 0.74297 0.0
C716 C 0.77419 0.12785 0.61039 0.0
C717 C 0.76664 0.15003 0.62932 0.0
C718 C 0.75652 0.09412 0.61989 0.0
C719 C 0.73004 0.08166 0.64728 0.0
C720 C 0.72222 0.104 0.66549 0.0
C721 C 0.74059 0.1378 0.65702 0.0
C722 C 0.71102 0.04568 0.65789 0.0
C723 C 0.70434 0.03653 0.69856 0.0
C724 C 0.69943 0.02041 0.62852 0.0
C725 C 0.70264 0.02776 0.58488 0.0
C726 C 0.68993 0.04673 0.56809 0.0
C727 C 0.69315 0.05371 0.52698 0.0
C728 C 0.70882 0.04165 0.50228 0.0
C729 C 0.72121 0.0225 0.51863 0.0
C730 C 0.71808 0.01547 0.55974 0.0
C731 C 0.61395 0.88588 0.6787 0.0
C732 C 0.62492 0.87356 0.70998 0.0
C733 C 0.63019 0.91968 0.67011 0.0
C734 C 0.65828 0.94201 0.69201 0.0
C735 C 0.66942 0.92956 0.72317 0.0
C736 C 0.65257 0.89576 0.73252 0.0
C737 C 0.67619 0.97797 0.68131 0.0
C738 C 0.68297 0.98712 0.64067 0.0
C739 C 0.68649 1.00322 0.71054 0.0
C740 C 0.67763 0.99578 0.75355 0.0
C741 C 0.70235 0.00828 0.78317 0.0
C742 C 0.69399 1.00122 0.82369 0.0
C743 C 0.66096 0.98183 0.83498 0.0
C744 C 0.6362 0.96955 0.80577 0.0
C745 C 0.64443 0.97656 0.76521 0.0
H746 H 0.65454 0.97637 0.86636 0.0
H747 H 0.71129 0.04708 0.47045 0.0
H748 H 0.14068 0.73205 0.39767 0.0
H749 H 0.08422 0.69679 0.37291 0.0
H750 H 0.06565 0.77784 0.38523 0.0
H751 H 0.12142 0.81281 0.41039 0.0
H752 H 0.01461 0.72241 0.41241 0.0
H753 H 0.08372 0.75603 0.29391 0.0
H754 H 0.12905 0.76084 0.25154 0.0
H755 H 0.08382 0.65521 0.24814 0.0
H756 H 0.03841 0.64981 0.29099 0.0
H757 H 0.8887 0.69803 0.28151 0.0
H758 H 0.94271 0.71687 0.31111 0.0
H759 H 0.92915 0.61903 0.30009 0.0
H760 H 0.87434 0.59961 0.27026 0.0
H761 H 0.99395 0.67226 0.27675 0.0
H762 H 0.92011 0.63987 0.38815 0.0
H763 H 0.87455 0.63712 0.42811 0.0
H764 H 0.92889 0.74234 0.44352 0.0
H765 H 0.97458 0.74579 0.40307 0.0
C766 C 0.12446 0.74225 0.39533 0.0
C767 C 0.13563 0.7753 0.40595 0.0
C768 C 0.09225 0.72212 0.381 0.0
C769 C 0.07071 0.73472 0.37689 0.0
C770 C 0.08172 0.76749 0.38819 0.0
C771 C 0.11375 0.78754 0.40246 0.0
C772 C 0.03683 0.71437 0.3603 0.0
C773 C 1.01016 0.7115 0.38273 0.0
C774 C 0.03077 0.6993 0.32199 0.0
C775 C 0.05791 0.70252 0.29605 0.0
C776 C 0.08358 0.73384 0.28439 0.0
C777 C 0.10926 0.73668 0.26025 0.0
C778 C 0.10937 0.70835 0.24727 0.0
C779 C 0.08373 0.67713 0.2583 0.0
C780 C 0.05802 0.67416 0.2825 0.0
C781 C 0.89707 0.68038 0.2851 0.0
C782 C 0.87703 0.6472 0.27363 0.0
C783 C 0.92802 0.69125 0.30216 0.0
C784 C 0.9398 0.6693 0.30821 0.0
C785 C 0.92043 0.63634 0.29577 0.0
C786 C 0.88914 0.62529 0.27883 0.0
C787 C 0.97209 0.68122 0.32847 0.0
C788 C 0.99837 0.68254 0.30678 0.0
C789 C 0.97791 0.69509 0.3674 0.0
C790 C 0.95071 0.69309 0.39236 0.0
C791 C 0.92228 0.66245 0.39984 0.0
C792 C 0.89643 0.66076 0.42261 0.0
C793 C 0.89881 0.68954 0.4383 0.0
C794 C 0.92708 0.72006 0.43135 0.0
C795 C 0.95299 0.72189 0.40855 0.0
H796 H 0.87876 0.68819 0.45589 0.0
H797 H 0.12928 0.7106 0.22859 0.0
H798 H 0.91553 0.20837 0.45127 0.0
H799 H 0.96192 0.23286 0.40403 0.0
H800 H 0.95768 0.32282 0.40205 0.0
H801 H 0.91139 0.29848 0.44929 0.0
H802 H 0.9628 0.30046 0.32496 0.0
H803 H 0.01644 0.32293 0.45334 0.0
H804 H 0.02764 0.30895 0.52077 0.0
H805 H 0.05685 0.24361 0.46877 0.0
H806 H 0.04534 0.25684 0.40101 0.0
H807 H 0.11435 0.39911 0.22206 0.0
H808 H 0.06883 0.3776 0.27023 0.0
H809 H 0.08177 0.29394 0.2934 0.0
H810 H 0.12794 0.31602 0.24613 0.0
H811 H 0.072 0.31454 0.36078 0.0
H812 H 0.01703 0.28982 0.23295 0.0
H813 H 1.00494 0.30221 0.16507 0.0
H814 H 0.97717 0.36938 0.2148 0.0
H815 H 0.98949 0.3577 0.28297 0.0
C816 C 0.92446 0.23331 0.44065 0.0
C817 C 0.90993 0.25154 0.45414 0.0
C818 C 0.95103 0.24733 0.41385 0.0
C819 C 0.96335 0.27973 0.39969 0.0
C820 C 0.9486 0.29782 0.41266 0.0
C821 C 0.92234 0.28398 0.43988 0.0
C822 C 0.99162 0.2947 0.37132 0.0
C823 C 0.98683 0.30396 0.3329 0.0
C824 C 0.02271 0.29858 0.38143 0.0
C825 C 0.0297 0.29062 0.42213 0.0
C826 C 0.02496 0.30535 0.4563 0.0
C827 C 0.03142 0.29761 0.49458 0.0
C828 C 0.04286 0.27534 0.49906 0.0
C829 C 0.04794 0.26082 0.46526 0.0
C830 C 0.04148 0.26845 0.4269 0.0
C831 C 0.10727 0.376 0.2372 0.0
C832 C 0.12454 0.35909 0.23014 0.0
C833 C 0.0812 0.36367 0.26473 0.0
C834 C 0.07136 0.33377 0.2851 0.0
C835 C 0.08879 0.31702 0.27817 0.0
C836 C 0.11516 0.32961 0.25114 0.0
C837 C 0.04324 0.32005 0.31397 0.0
C838 C 0.04802 0.31107 0.35264 0.0
C839 C 0.01204 0.31616 0.30393 0.0
C840 C 1.00448 0.32312 0.26301 0.0
C841 C 1.00856 0.3074 0.22938 0.0
C842 C 1.00163 0.31427 0.19086 0.0
C843 C 0.99038 0.33663 0.18562 0.0
C844 C 0.98594 0.3521 0.2189 0.0
C845 C 0.99285 0.34534 0.25749 0.0
H846 H 0.98503 0.34191 0.15578 0.0
H847 H 0.04787 0.26939 0.52872 0.0
H848 H 0.62169 0.72306 0.8864 0.0
H849 H 0.64359 0.6991 0.93433 0.0
H850 H 0.73446 0.79225 0.94149 0.0
H851 H 0.7127 0.81632 0.89328 0.0
H852 H 0.74384 0.73758 0.93342 0.0
H853 H 0.68054 0.77106 0.01503 0.0
H854 H 0.63043 0.77256 0.03399 0.0
H855 H 0.57788 0.66728 0.04953 0.0
H856 H 0.62757 0.6651 0.0301 0.0
H857 H 0.81503 0.70854 0.10444 0.0
H858 H 0.79212 0.73091 0.05583 0.0
H859 H 0.69689 0.6427 0.06671 0.0
H860 H 0.71966 0.62063 0.11609 0.0
H861 H 0.68851 0.69342 0.06428 0.0
H862 H 0.74892 0.65781 0.98396 0.0
H863 H 0.79691 0.6533 0.96268 0.0
H864 H 0.85215 0.75785 0.94135 0.0
H865 H 0.80462 0.76306 0.96305 0.0
C866 C 0.64644 0.73836 0.89787 0.0
C867 C 0.66549 0.77162 0.88602 0.0
C868 C 0.65883 0.7247 0.9255 0.0
C869 C 0.69057 0.74395 0.94171 0.0
C870 C 0.70987 0.77697 0.92942 0.0
C871 C 0.69736 0.79076 0.90209 0.0
C872 C 0.70357 0.7297 0.97168 0.0
C873 C 0.73204 0.72831 0.96227 0.0
C874 C 0.68748 0.71657 0.00872 0.0
C875 C 0.65768 0.71789 0.02073 0.0
C876 C 0.65822 0.7482 0.02218 0.0
C877 C 0.62991 0.74918 0.03307 0.0
C878 C 0.60096 0.72003 0.04285 0.0
C879 C 0.6003 0.68984 0.04189 0.0
C880 C 0.62854 0.68872 0.03098 0.0
C881 C 0.78926 0.69389 0.09632 0.0
C882 C 0.76921 0.6628 0.11402 0.0
C883 C 0.77615 0.70664 0.06843 0.0
C884 C 0.74284 0.68829 0.05692 0.0
C885 C 0.72265 0.65738 0.07499 0.0
C886 C 0.73567 0.64479 0.10331 0.0
C887 C 0.72909 0.70146 0.02627 0.0
C888 C 0.70041 0.70261 0.03546 0.0
C889 C 0.74469 0.7139 0.98872 0.0
C890 C 0.7733 0.71087 0.9755 0.0
C891 C 0.77138 0.67988 0.97501 0.0
C892 C 0.79849 0.67719 0.96283 0.0
C893 C 0.82759 0.70528 0.95077 0.0
C894 C 0.82961 0.73611 0.95076 0.0
C895 C 0.80258 0.73895 0.96296 0.0
H896 H 0.84855 0.70315 0.94135 0.0
H897 H 0.57907 0.72084 0.05127 0.0
H898 H 0.40153 0.10153 0.79154 0.0
H899 H 0.37899 0.05413 0.74591 0.0
H900 H 0.2975 0.06918 0.71796 0.0
H901 H 0.32002 0.11667 0.76353 0.0
H902 H 0.27943 1.00204 0.7356 0.0
H903 H 0.35687 0.09414 0.65317 0.0
H904 H 0.41179 0.14138 0.63749 0.0
H905 H 0.45294 0.07742 0.63838 0.0
H906 H 0.39831 0.02985 0.65464 0.0
H907 H 0.20854 0.90171 0.56656 0.0
H908 H 0.23396 0.94743 0.61428 0.0
H909 H 0.32355 0.9424 0.61184 0.0
H910 H 0.29844 0.89763 0.56248 0.0
H911 H 0.33983 1.00318 0.61285 0.0
H912 H 0.26616 0.91136 0.6926 0.0
H913 H 0.2136 0.86246 0.71218 0.0
H914 H 0.16831 0.92241 0.72221 0.0
H915 H 0.2205 0.97162 0.70213 0.0
C916 C 0.37868 0.09456 0.77592 0.0
C917 C 0.36247 0.11276 0.7811 0.0
C918 C 0.36596 0.06763 0.74969 0.0
C919 C 0.33666 0.05826 0.72847 0.0
C920 C 0.32016 0.07605 0.73405 0.0
C921 C 0.33311 0.10324 0.75985 0.0
C922 C 0.32322 0.03001 0.7002 0.0
C923 C 0.29239 1.00235 0.7085 0.0
C924 C 0.34084 0.02998 0.66578 0.0
C925 C 0.37357 0.05851 0.65553 0.0
C926 C 0.37768 0.0902 0.65033 0.0
C927 C 0.40875 0.11702 0.64128 0.0
C928 C 0.43586 0.11243 0.63705 0.0
C929 C 0.43193 0.08096 0.64172 0.0
C930 C 0.40092 0.05405 0.65082 0.0
C931 C 0.23362 0.91042 0.57635 0.0
C932 C 0.25151 0.89619 0.56102 0.0
C933 C 0.24813 0.93641 0.60377 0.0
C934 C 0.28052 0.94803 0.6175 0.0
C935 C 0.29855 0.93395 0.60186 0.0
C936 C 0.28424 0.9084 0.57368 0.0
C937 C 0.29554 0.97509 0.64775 0.0
C938 C 0.32676 1.00258 0.63997 0.0
C939 C 0.2786 0.97464 0.68322 0.0
C940 C 0.24718 0.94514 0.69552 0.0
C941 C 0.24493 0.91408 0.69872 0.0
C942 C 0.21521 0.88631 0.70994 0.0
C943 C 0.18761 0.88931 0.71835 0.0
C944 C 0.18971 0.92012 0.71565 0.0
C945 C 0.21936 0.94797 0.70439 0.0
H946 H 0.16462 0.86778 0.72702 0.0
H947 H 0.4599 0.13323 0.63007 0.0
loop_
_geom_bond_atom_site_label_1
_geom_bond_atom_site_label_2
_geom_bond_distance
_geom_bond_site_symmetry_2
_ccdc_geom_bond_type
Co0 N4 2.148 . S
Co0 N10 2.128 . S
Co0 N20 2.194 . S
Co0 O25 2.351 . S
Co0 O26 2.155 . S
Co0 O27 2.096 . S
C1 N4 1.301 . S
C1 N5 1.328 . S
C1 H6 0.930 . S
C2 C3 1.333 . S
C2 N4 1.317 . S
C2 H7 0.930 . S
C3 C2 1.333 . S
C3 N5 1.350 . S
C3 H29 0.931 . S
N4 Co0 2.148 . S
N4 C1 1.301 . S
N4 C2 1.317 . S
N5 C1 1.328 . S
N5 C3 1.350 . S
H6 C1 0.930 . S
H7 C2 0.930 . S
C8 O9 1.224 . S
C8 O27 1.247 . S
O9 C8 1.224 . S
N10 Co0 2.128 . S
N10 C11 1.355 1_554 S
N10 C13 1.311 . S
C11 N10 1.355 1_556 S
C11 C12 1.363 . S
C11 H23 0.929 . S
C12 C11 1.363 . S
C12 N14 1.375 . S
C12 H30 0.931 . S
C13 N10 1.311 . S
C13 N14 1.347 1_554 S
C13 H24 0.929 . S
N14 C12 1.375 . S
N14 C13 1.347 1_556 S
C15 C18 1.365 1_554 S
C15 N20 1.328 . S
C15 H21 0.929 . S
C16 C17 1.362 . S
C16 C19 1.368 1_556 S
C16 H31 0.929 . S
C17 C16 1.362 . S
C17 C18 1.366 . S
C18 C15 1.365 1_556 S
C18 C17 1.366 . S
C18 H32 0.930 . S
C19 C16 1.368 1_554 S
C19 N20 1.324 . S
C19 H22 0.931 . S
N20 Co0 2.194 . S
N20 C15 1.328 . S
N20 C19 1.324 . S
H21 C15 0.929 . S
H22 C19 0.931 . S
H23 C11 0.929 . S
H24 C13 0.929 . S
O25 Co0 2.351 . S
O25 C28 1.244 . S
O26 Co0 2.155 . S
O26 C28 1.240 . S
O27 Co0 2.096 . S
O27 C8 1.247 . S
C28 O25 1.244 . S
C28 O26 1.240 . S
H29 C3 0.931 . S
H30 C12 0.931 . S
H31 C16 0.929 . S
H32 C18 0.930 . S
Co33 N37 2.148 . S
Co33 N43 2.128 . S
Co33 N53 2.194 . S
Co33 O58 2.351 . S
Co33 O59 2.155 . S
Co33 O60 2.096 . S
C34 N37 1.301 . S
C34 N38 1.328 . S
C34 H39 0.930 . S
C35 C36 1.333 . S
C35 N37 1.317 . S
C35 H40 0.930 . S
C36 C35 1.333 . S
C36 N38 1.350 . S
C36 H62 0.931 . S
N37 Co33 2.148 . S
N37 C34 1.301 . S
N37 C35 1.317 . S
N38 C34 1.328 . S
N38 C36 1.350 . S
H39 C34 0.930 . S
H40 C35 0.930 . S
C41 O42 1.224 . S
C41 O60 1.247 . S
O42 C41 1.224 . S
N43 Co33 2.128 . S
N43 C44 1.355 . S
N43 C46 1.311 . S
C44 N43 1.355 . S
C44 C45 1.363 . S
C44 H56 0.929 . S
C45 C44 1.363 . S
C45 N47 1.375 . S
C45 H63 0.931 . S
C46 N43 1.311 . S
C46 N47 1.347 . S
C46 H57 0.929 . S
N47 C45 1.375 . S
N47 C46 1.347 . S
C48 C51 1.365 . S
C48 N53 1.328 . S
C48 H54 0.929 . S
C49 C50 1.362 . S
C49 C52 1.378 . S
C49 H64 0.929 . S
C50 C49 1.362 . S
C50 C51 1.366 . S
C51 C48 1.365 . S
C51 C50 1.366 . S
C51 H65 0.930 . S
C52 C49 1.378 . S
C52 N53 1.315 . S
C52 H55 0.930 . S
N53 Co33 2.194 . S
N53 C48 1.328 . S
N53 C52 1.315 . S
H54 C48 0.929 . S
H55 C52 0.930 . S
H56 C44 0.929 . S
H57 C46 0.929 . S
O58 Co33 2.351 . S
O58 C61 1.244 . S
O59 Co33 2.155 . S
O59 C61 1.240 . S
O60 Co33 2.096 . S
O60 C41 1.247 . S
C61 O58 1.244 . S
C61 O59 1.240 . S
H62 C36 0.931 . S
H63 C45 0.931 . S
H64 C49 0.929 . S
H65 C51 0.930 . S
Co66 N70 2.148 . S
Co66 N76 2.128 . S
Co66 N86 2.194 . S
Co66 O91 2.351 . S
Co66 O92 2.155 . S
Co66 O93 2.096 . S
C67 N70 1.301 . S
C67 N71 1.328 . S
C67 H72 0.930 . S
C68 C69 1.333 . S
C68 N70 1.317 . S
C68 H73 0.930 . S
C69 C68 1.333 . S
C69 N71 1.350 . S
C69 H95 0.931 . S
N70 Co66 2.148 . S
N70 C67 1.301 . S
N70 C68 1.317 . S
N71 C67 1.328 . S
N71 C69 1.350 . S
H72 C67 0.930 . S
H73 C68 0.930 . S
C74 O75 1.224 . S
C74 O93 1.247 . S
O75 C74 1.224 . S
N76 Co66 2.128 . S
N76 C77 1.355 . S
N76 C79 1.311 . S
C77 N76 1.355 . S
C77 C78 1.363 . S
C77 H89 0.929 . S
C78 C77 1.363 . S
C78 N80 1.375 . S
C78 H96 0.931 . S
C79 N76 1.311 . S
C79 N80 1.347 . S
C79 H90 0.929 . S
N80 C78 1.375 . S
N80 C79 1.347 . S
C81 C84 1.365 . S
C81 N86 1.328 . S
C81 H87 0.929 . S
C82 C83 1.362 . S
C82 C85 1.378 . S
C82 H97 0.929 . S
C83 C82 1.362 . S
C83 C84 1.366 . S
C84 C81 1.365 . S
C84 C83 1.366 . S
C84 H98 0.930 . S
C85 C82 1.378 . S
C85 N86 1.315 . S
C85 H88 0.930 . S
N86 Co66 2.194 . S
N86 C81 1.328 . S
N86 C85 1.315 . S
H87 C81 0.929 . S
H88 C85 0.930 . S
H89 C77 0.929 . S
H90 C79 0.929 . S
O91 Co66 2.351 . S
O91 C94 1.244 . S
O92 Co66 2.155 . S
O92 C94 1.240 . S
O93 Co66 2.096 . S
O93 C74 1.247 . S
C94 O91 1.244 . S
C94 O92 1.240 . S
H95 C69 0.931 . S
H96 C78 0.931 . S
H97 C82 0.929 . S
H98 C84 0.930 . S
Co99 N103 2.148 . S
Co99 N109 2.128 . S
Co99 N119 2.194 . S
Co99 O124 2.351 . S
Co99 O125 2.155 . S
Co99 O126 2.096 . S
C100 N103 1.301 . S
C100 N104 1.328 . S
C100 H105 0.930 . S
C101 C102 1.333 . S
C101 N103 1.317 . S
C101 H106 0.930 . S
C102 C101 1.333 . S
C102 N104 1.350 . S
C102 H128 0.931 . S
N103 Co99 2.148 . S
N103 C100 1.301 . S
N103 C101 1.317 . S
N104 C100 1.328 . S
N104 C102 1.350 . S
H105 C100 0.930 . S
H106 C101 0.930 . S
C107 O108 1.224 . S
C107 O126 1.247 . S
O108 C107 1.224 . S
N109 Co99 2.128 . S
N109 C110 1.355 1_556 S
N109 C112 1.311 . S
C110 N109 1.355 1_554 S
C110 C111 1.363 . S
C110 H122 0.929 . S
C111 C110 1.363 . S
C111 N113 1.375 . S
C111 H129 0.931 . S
C112 N109 1.311 . S
C112 N113 1.347 1_556 S
C112 H123 0.929 . S
N113 C111 1.375 . S
N113 C112 1.347 1_554 S
C114 C117 1.365 1_556 S
C114 N119 1.328 . S
C114 H120 0.929 . S
C115 C116 1.362 . S
C115 C118 1.368 1_554 S
C115 H130 0.929 . S
C116 C115 1.362 . S
C116 C117 1.366 . S
C117 C114 1.365 1_554 S
C117 C116 1.366 . S
C117 H131 0.930 . S
C118 C115 1.368 1_556 S
C118 N119 1.324 . S
C118 H121 0.931 . S
N119 Co99 2.194 . S
N119 C114 1.328 . S
N119 C118 1.324 . S
H120 C114 0.929 . S
H121 C118 0.931 . S
H122 C110 0.929 . S
H123 C112 0.929 . S
O124 Co99 2.351 . S
O124 C127 1.244 . S
O125 Co99 2.155 . S
O125 C127 1.240 . S
O126 Co99 2.096 . S
O126 C107 1.247 . S
C127 O124 1.244 . S
C127 O125 1.240 . S
H128 C102 0.931 . S
H129 C111 0.931 . S
H130 C115 0.929 . S
H131 C117 0.930 . S
Co132 N136 2.148 . S
Co132 N142 2.128 . S
Co132 N152 2.194 . S
Co132 O157 2.351 . S
Co132 O158 2.155 . S
Co132 O159 2.096 . S
C133 N136 1.301 . S
C133 N137 1.328 . S
C133 H138 0.930 . S
C134 C135 1.333 . S
C134 N136 1.317 . S
C134 H139 0.930 . S
C135 C134 1.333 . S
C135 N137 1.350 . S
C135 H161 0.931 . S
N136 Co132 2.148 . S
N136 C133 1.301 . S
N136 C134 1.317 . S
N137 C133 1.328 . S
N137 C135 1.350 . S
H138 C133 0.930 . S
H139 C134 0.930 . S
C140 O141 1.224 . S
C140 O159 1.247 . S
O141 C140 1.224 . S
N142 Co132 2.128 . S
N142 C143 1.355 . S
N142 C145 1.311 . S
C143 N142 1.355 . S
C143 C144 1.363 . S
C143 H155 0.929 . S
C144 C143 1.363 . S
C144 N146 1.375 . S
C144 H162 0.931 . S
C145 N142 1.311 . S
C145 N146 1.347 . S
C145 H156 0.929 . S
N146 C144 1.375 . S
N146 C145 1.347 . S
C147 C150 1.365 . S
C147 N152 1.328 . S
C147 H153 0.929 . S
C148 C149 1.362 . S
C148 C151 1.378 . S
C148 H163 0.929 . S
C149 C148 1.362 . S
C149 C150 1.366 . S
C150 C147 1.365 . S
C150 C149 1.366 . S
C150 H164 0.930 . S
C151 C148 1.378 . S
C151 N152 1.315 . S
C151 H154 0.930 . S
N152 Co132 2.194 . S
N152 C147 1.328 . S
N152 C151 1.315 . S
H153 C147 0.929 . S
H154 C151 0.930 . S
H155 C143 0.929 . S
H156 C145 0.929 . S
O157 Co132 2.351 . S
O157 C160 1.244 . S
O158 Co132 2.155 . S
O158 C160 1.240 . S
O159 Co132 2.096 . S
O159 C140 1.247 . S
C160 O157 1.244 . S
C160 O158 1.240 . S
H161 C135 0.931 . S
H162 C144 0.931 . S
H163 C148 0.929 . S
H164 C150 0.930 . S
Co165 N169 2.148 . S
Co165 N175 2.128 . S
Co165 N185 2.194 . S
Co165 O190 2.351 . S
Co165 O191 2.155 . S
Co165 O192 2.096 . S
C166 N169 1.301 . S
C166 N170 1.328 . S
C166 H171 0.930 . S
C167 C168 1.333 . S
C167 N169 1.317 . S
C167 H172 0.930 . S
C168 C167 1.333 . S
C168 N170 1.350 . S
C168 H194 0.931 . S
N169 Co165 2.148 . S
N169 C166 1.301 . S
N169 C167 1.317 . S
N170 C166 1.328 . S
N170 C168 1.350 . S
H171 C166 0.930 . S
H172 C167 0.930 . S
C173 O174 1.224 . S
C173 O192 1.247 . S
O174 C173 1.224 . S
N175 Co165 2.128 . S
N175 C176 1.355 . S
N175 C178 1.311 . S
C176 N175 1.355 . S
C176 C177 1.363 . S
C176 H188 0.929 . S
C177 C176 1.363 . S
C177 N179 1.375 . S
C177 H195 0.931 . S
C178 N175 1.311 . S
C178 N179 1.347 . S
C178 H189 0.929 . S
N179 C177 1.375 . S
N179 C178 1.347 . S
C180 C183 1.365 . S
C180 N185 1.328 . S
C180 H186 0.929 . S
C181 C182 1.362 . S
C181 C184 1.378 . S
C181 H196 0.929 . S
C182 C181 1.362 . S
C182 C183 1.366 . S
C183 C180 1.365 . S
C183 C182 1.366 . S
C183 H197 0.930 . S
C184 C181 1.378 . S
C184 N185 1.315 . S
C184 H187 0.930 . S
N185 Co165 2.194 . S
N185 C180 1.328 . S
N185 C184 1.315 . S
H186 C180 0.929 . S
H187 C184 0.930 . S
H188 C176 0.929 . S
H189 C178 0.929 . S
O190 Co165 2.351 . S
O190 C193 1.244 . S
O191 Co165 2.155 . S
O191 C193 1.240 . S
O192 Co165 2.096 . S
O192 C173 1.247 . S
C193 O190 1.244 . S
C193 O191 1.240 . S
H194 C168 0.931 . S
H195 C177 0.931 . S
H196 C181 0.929 . S
H197 C183 0.930 . S
H198 C216 0.951 . S
H199 C218 0.951 . S
H200 C220 0.950 . S
H201 C221 0.950 . S
H202 C223 0.950 . S
H203 C226 0.950 . S
H204 C227 0.950 . S
H205 C229 0.950 . S
H206 C230 0.950 . S
H207 C231 0.951 . S
H208 C233 0.951 . S
H209 C235 0.950 . S
H210 C236 0.950 . S
H211 C238 0.950 . S
H212 C241 0.950 . S
H213 C242 0.950 . S
H214 C244 0.950 . S
H215 C245 0.950 . S
C216 H198 0.951 . S
C216 C217 1.366 . S
C216 C218 1.388 . S
C217 C216 1.366 . S
C217 C221 1.385 . S
C218 H199 0.951 . S
C218 C216 1.388 . S
C218 C219 1.366 . S
C219 C218 1.366 . S
C219 C220 1.414 . S
C219 C222 1.499 . S
C220 H200 0.950 . S
C220 C219 1.414 . S
C220 C221 1.374 . S
C221 H201 0.950 . S
C221 C217 1.385 . S
C221 C220 1.374 . S
C222 C219 1.499 . S
C222 C223 1.373 . S
C222 C224 1.389 . S
C223 H202 0.950 . S
C223 C222 1.373 . S
C223 C239 1.377 . S
C224 C222 1.389 . S
C224 C225 1.524 . S
C224 C238 1.377 . S
C225 C224 1.524 . S
C225 C226 1.397 . S
C225 C230 1.363 . S
C226 H203 0.950 . S
C226 C225 1.397 . S
C226 C227 1.334 . S
C227 H204 0.950 . S
C227 C226 1.334 . S
C227 C228 1.287 . S
C228 C227 1.287 . S
C228 C229 1.524 . S
C228 H247 0.913 . S
C229 H205 0.950 . S
C229 C228 1.524 . S
C229 C230 1.415 . S
C230 H206 0.950 . S
C230 C225 1.363 . S
C230 C229 1.415 . S
C231 H207 0.951 . S
C231 C232 1.366 . S
C231 C233 1.388 . S
C232 C231 1.366 . S
C232 C236 1.385 . S
C233 H208 0.951 . S
C233 C231 1.388 . S
C233 C234 1.366 . S
C234 C233 1.366 . S
C234 C235 1.414 . S
C234 C237 1.499 . S
C235 H209 0.950 . S
C235 C234 1.414 . S
C235 C236 1.374 . S
C236 H210 0.950 . S
C236 C232 1.385 . S
C236 C235 1.374 . S
C237 C234 1.499 . S
C237 C238 1.373 . S
C237 C239 1.389 . S
C238 H211 0.950 . S
C238 C224 1.377 . S
C238 C237 1.373 . S
C239 C223 1.377 . S
C239 C237 1.389 . S
C239 C240 1.524 . S
C240 C239 1.524 . S
C240 C241 1.397 . S
C240 C245 1.363 . S
C241 H212 0.950 . S
C241 C240 1.397 . S
C241 C242 1.334 . S
C242 H213 0.950 . S
C242 C241 1.334 . S
C242 C243 1.287 . S
C243 C242 1.287 . S
C243 C244 1.524 . S
C243 H246 0.999 . S
C244 H214 0.950 . S
C244 C243 1.524 . S
C244 C245 1.415 . S
C245 H215 0.950 . S
C245 C240 1.363 . S
C245 C244 1.415 . S
H246 C243 0.999 . S
H247 C228 0.913 . S
H248 C266 0.951 . S
H249 C268 0.951 . S
H250 C270 0.950 . S
H251 C271 0.950 . S
H252 C273 0.950 . S
H253 C276 0.950 . S
H254 C277 0.950 . S
H255 C279 0.950 . S
H256 C280 0.950 . S
H257 C281 0.951 . S
H258 C283 0.951 . S
H259 C285 0.950 . S
H260 C286 0.950 . S
H261 C288 0.950 . S
H262 C291 0.950 . S
H263 C292 0.950 . S
H264 C294 0.950 . S
H265 C295 0.950 . S
C266 H248 0.951 . S
C266 C267 1.366 . S
C266 C268 1.388 . S
C267 C266 1.366 . S
C267 C271 1.385 . S
C268 H249 0.951 . S
C268 C266 1.388 . S
C268 C269 1.366 . S
C269 C268 1.366 . S
C269 C270 1.414 . S
C269 C272 1.499 . S
C270 H250 0.950 . S
C270 C269 1.414 . S
C270 C271 1.374 . S
C271 H251 0.950 . S
C271 C267 1.385 . S
C271 C270 1.374 . S
C272 C269 1.499 . S
C272 C273 1.373 . S
C272 C274 1.389 . S
C273 H252 0.950 . S
C273 C272 1.373 . S
C273 C289 1.377 . S
C274 C272 1.389 . S
C274 C275 1.524 . S
C274 C288 1.377 . S
C275 C274 1.524 . S
C275 C276 1.397 . S
C275 C280 1.363 . S
C276 H253 0.950 . S
C276 C275 1.397 . S
C276 C277 1.334 . S
C277 H254 0.950 . S
C277 C276 1.334 . S
C277 C278 1.287 . S
C278 C277 1.287 . S
C278 C279 1.524 . S
C278 H297 0.913 . S
C279 H255 0.950 . S
C279 C278 1.524 . S
C279 C280 1.415 . S
C280 H256 0.950 . S
C280 C275 1.363 . S
C280 C279 1.415 . S
C281 H257 0.951 . S
C281 C282 1.366 . S
C281 C283 1.388 . S
C282 C281 1.366 . S
C282 C286 1.385 . S
C283 H258 0.951 . S
C283 C281 1.388 . S
C283 C284 1.366 . S
C284 C283 1.366 . S
C284 C285 1.414 . S
C284 C287 1.499 . S
C285 H259 0.950 . S
C285 C284 1.414 . S
C285 C286 1.374 . S
C286 H260 0.950 . S
C286 C282 1.385 . S
C286 C285 1.374 . S
C287 C284 1.499 . S
C287 C288 1.373 . S
C287 C289 1.389 . S
C288 H261 0.950 . S
C288 C274 1.377 . S
C288 C287 1.373 . S
C289 C273 1.377 . S
C289 C287 1.389 . S
C289 C290 1.524 . S
C290 C289 1.524 . S
C290 C291 1.397 . S
C290 C295 1.363 . S
C291 H262 0.950 . S
C291 C290 1.397 . S
C291 C292 1.334 . S
C292 H263 0.950 . S
C292 C291 1.334 . S
C292 C293 1.287 . S
C293 C292 1.287 . S
C293 C294 1.524 . S
C293 H296 0.999 . S
C294 H264 0.950 . S
C294 C293 1.524 . S
C294 C295 1.415 . S
C295 H265 0.950 . S
C295 C290 1.363 . S
C295 C294 1.415 . S
H296 C293 0.999 . S
H297 C278 0.913 . S
H298 C316 0.951 . S
H299 C318 0.951 . S
H300 C320 0.950 . S
H301 C321 0.950 . S
H302 C323 0.950 . S
H303 C326 0.950 . S
H304 C327 0.950 . S
H305 C329 0.950 . S
H306 C330 0.950 . S
H307 C331 0.951 . S
H308 C333 0.951 . S
H309 C335 0.950 . S
H310 C336 0.950 . S
H311 C338 0.950 . S
H312 C341 0.950 . S
H313 C342 0.950 . S
H314 C344 0.950 . S
H315 C345 0.950 . S
C316 H298 0.951 . S
C316 C317 1.366 . S
C316 C318 1.388 . S
C317 C316 1.366 . S
C317 C321 1.385 . S
C318 H299 0.951 . S
C318 C316 1.388 . S
C318 C319 1.366 . S
C319 C318 1.366 . S
C319 C320 1.414 . S
C319 C322 1.499 . S
C320 H300 0.950 . S
C320 C319 1.414 . S
C320 C321 1.374 . S
C321 H301 0.950 . S
C321 C317 1.385 . S
C321 C320 1.374 . S
C322 C319 1.499 . S
C322 C323 1.373 . S
C322 C324 1.389 . S
C323 H302 0.950 . S
C323 C322 1.373 . S
C323 C339 1.377 . S
C324 C322 1.389 . S
C324 C325 1.524 . S
C324 C338 1.377 . S
C325 C324 1.524 . S
C325 C326 1.397 . S
C325 C330 1.363 . S
C326 H303 0.950 . S
C326 C325 1.397 . S
C326 C327 1.334 . S
C327 H304 0.950 . S
C327 C326 1.334 . S
C327 C328 1.287 . S
C328 C327 1.287 . S
C328 C329 1.524 . S
C328 H347 0.913 . S
C329 H305 0.950 . S
C329 C328 1.524 . S
C329 C330 1.415 . S
C330 H306 0.950 . S
C330 C325 1.363 . S
C330 C329 1.415 . S
C331 H307 0.951 . S
C331 C332 1.366 . S
C331 C333 1.388 . S
C332 C331 1.366 . S
C332 C336 1.385 . S
C333 H308 0.951 . S
C333 C331 1.388 . S
C333 C334 1.366 . S
C334 C333 1.366 . S
C334 C335 1.414 . S
C334 C337 1.499 . S
C335 H309 0.950 . S
C335 C334 1.414 . S
C335 C336 1.374 . S
C336 H310 0.950 . S
C336 C332 1.385 . S
C336 C335 1.374 . S
C337 C334 1.499 . S
C337 C338 1.373 . S
C337 C339 1.389 . S
C338 H311 0.950 . S
C338 C324 1.377 . S
C338 C337 1.373 . S
C339 C323 1.377 . S
C339 C337 1.389 . S
C339 C340 1.524 . S
C340 C339 1.524 . S
C340 C341 1.397 . S
C340 C345 1.363 . S
C341 H312 0.950 . S
C341 C340 1.397 . S
C341 C342 1.334 . S
C342 H313 0.950 . S
C342 C341 1.334 . S
C342 C343 1.287 . S
C343 C342 1.287 . S
C343 C344 1.524 . S
C343 H346 0.999 . S
C344 H314 0.950 . S
C344 C343 1.524 . S
C344 C345 1.415 . S
C345 H315 0.950 . S
C345 C340 1.363 . S
C345 C344 1.415 . S
H346 C343 0.999 . S
H347 C328 0.913 . S
H348 C366 0.951 . S
H349 C368 0.951 . S
H350 C370 0.950 . S
H351 C371 0.950 . S
H352 C373 0.950 . S
H353 C376 0.950 . S
H354 C377 0.950 . S
H355 C379 0.950 . S
H356 C380 0.950 . S
H357 C381 0.951 . S
H358 C383 0.951 . S
H359 C385 0.950 . S
H360 C386 0.950 . S
H361 C388 0.950 . S
H362 C391 0.950 . S
H363 C392 0.950 . S
H364 C394 0.950 . S
H365 C395 0.950 . S
C366 H348 0.951 . S
C366 C367 1.366 . S
C366 C368 1.388 . S
C367 C366 1.366 . S
C367 C371 1.385 . S
C368 H349 0.951 . S
C368 C366 1.388 . S
C368 C369 1.366 . S
C369 C368 1.366 . S
C369 C370 1.414 . S
C369 C372 1.499 . S
C370 H350 0.950 . S
C370 C369 1.414 . S
C370 C371 1.374 . S
C371 H351 0.950 . S
C371 C367 1.385 . S
C371 C370 1.374 . S
C372 C369 1.499 . S
C372 C373 1.373 . S
C372 C374 1.389 . S
C373 H352 0.950 . S
C373 C372 1.373 . S
C373 C389 1.377 . S
C374 C372 1.389 . S
C374 C375 1.524 . S
C374 C388 1.377 . S
C375 C374 1.524 . S
C375 C376 1.397 . S
C375 C380 1.363 . S
C376 H353 0.950 . S
C376 C375 1.397 . S
C376 C377 1.334 . S
C377 H354 0.950 . S
C377 C376 1.334 . S
C377 C378 1.287 . S
C378 C377 1.287 . S
C378 C379 1.524 . S
C378 H397 0.913 . S
C379 H355 0.950 . S
C379 C378 1.524 . S
C379 C380 1.415 . S
C380 H356 0.950 . S
C380 C375 1.363 . S
C380 C379 1.415 . S
C381 H357 0.951 . S
C381 C382 1.366 . S
C381 C383 1.388 . S
C382 C381 1.366 . S
C382 C386 1.385 . S
C383 H358 0.951 . S
C383 C381 1.388 . S
C383 C384 1.366 . S
C384 C383 1.366 . S
C384 C385 1.414 . S
C384 C387 1.499 . S
C385 H359 0.950 . S
C385 C384 1.414 . S
C385 C386 1.374 . S
C386 H360 0.950 . S
C386 C382 1.385 . S
C386 C385 1.374 . S
C387 C384 1.499 . S
C387 C388 1.373 . S
C387 C389 1.389 . S
C388 H361 0.950 . S
C388 C374 1.377 . S
C388 C387 1.373 . S
C389 C373 1.377 . S
C389 C387 1.389 . S
C389 C390 1.524 . S
C390 C389 1.524 . S
C390 C391 1.397 . S
C390 C395 1.363 . S
C391 H362 0.950 . S
C391 C390 1.397 . S
C391 C392 1.334 . S
C392 H363 0.950 . S
C392 C391 1.334 . S
C392 C393 1.287 . S
C393 C392 1.287 . S
C393 C394 1.524 . S
C393 H396 0.999 . S
C394 H364 0.950 . S
C394 C393 1.524 . S
C394 C395 1.415 . S
C395 H365 0.950 . S
C395 C390 1.363 . S
C395 C394 1.415 . S
H396 C393 0.999 . S
H397 C378 0.913 . S
H398 C416 0.951 . S
H399 C418 0.951 . S
H400 C420 0.950 . S
H401 C421 0.950 . S
H402 C423 0.950 . S
H403 C426 0.950 . S
H404 C427 0.950 . S
H405 C429 0.950 . S
H406 C430 0.950 . S
H407 C431 0.951 . S
H408 C433 0.951 . S
H409 C435 0.950 . S
H410 C436 0.950 . S
H411 C438 0.950 . S
H412 C441 0.950 . S
H413 C442 0.950 . S
H414 C444 0.950 . S
H415 C445 0.950 . S
C416 H398 0.951 . S
C416 C417 1.366 . S
C416 C418 1.388 . S
C417 C416 1.366 . S
C417 C421 1.385 . S
C418 H399 0.951 . S
C418 C416 1.388 . S
C418 C419 1.366 . S
C419 C418 1.366 . S
C419 C420 1.414 . S
C419 C422 1.499 . S
C420 H400 0.950 . S
C420 C419 1.414 . S
C420 C421 1.374 . S
C421 H401 0.950 . S
C421 C417 1.385 . S
C421 C420 1.374 . S
C422 C419 1.499 . S
C422 C423 1.373 . S
C422 C424 1.389 . S
C423 H402 0.950 . S
C423 C422 1.373 . S
C423 C439 1.377 . S
C424 C422 1.389 . S
C424 C425 1.524 . S
C424 C438 1.377 . S
C425 C424 1.524 . S
C425 C426 1.397 . S
C425 C430 1.363 . S
C426 H403 0.950 . S
C426 C425 1.397 . S
C426 C427 1.334 . S
C427 H404 0.950 . S
C427 C426 1.334 . S
C427 C428 1.287 . S
C428 C427 1.287 . S
C428 C429 1.524 . S
C428 H447 0.913 . S
C429 H405 0.950 . S
C429 C428 1.524 . S
C429 C430 1.415 . S
C430 H406 0.950 . S
C430 C425 1.363 . S
C430 C429 1.415 . S
C431 H407 0.951 . S
C431 C432 1.366 . S
C431 C433 1.388 . S
C432 C431 1.366 . S
C432 C436 1.385 . S
C433 H408 0.951 . S
C433 C431 1.388 . S
C433 C434 1.366 . S
C434 C433 1.366 . S
C434 C435 1.414 . S
C434 C437 1.499 . S
C435 H409 0.950 . S
C435 C434 1.414 . S
C435 C436 1.374 . S
C436 H410 0.950 . S
C436 C432 1.385 . S
C436 C435 1.374 . S
C437 C434 1.499 . S
C437 C438 1.373 . S
C437 C439 1.389 . S
C438 H411 0.950 . S
C438 C424 1.377 . S
C438 C437 1.373 . S
C439 C423 1.377 . S
C439 C437 1.389 . S
C439 C440 1.524 . S
C440 C439 1.524 . S
C440 C441 1.397 . S
C440 C445 1.363 . S
C441 H412 0.950 . S
C441 C440 1.397 . S
C441 C442 1.334 . S
C442 H413 0.950 . S
C442 C441 1.334 . S
C442 C443 1.287 . S
C443 C442 1.287 . S
C443 C444 1.524 . S
C443 H446 0.999 . S
C444 H414 0.950 . S
C444 C443 1.524 . S
C444 C445 1.415 . S
C445 H415 0.950 . S
C445 C440 1.363 . S
C445 C444 1.415 . S
H446 C443 0.999 . S
H447 C428 0.913 . S
H448 C466 0.951 . S
H449 C468 0.951 . S
H450 C470 0.950 . S
H451 C471 0.950 . S
H452 C473 0.950 . S
H453 C476 0.950 . S
H454 C477 0.950 . S
H455 C479 0.950 . S
H456 C480 0.950 . S
H457 C481 0.951 . S
H458 C483 0.951 . S
H459 C485 0.950 . S
H460 C486 0.950 . S
H461 C488 0.950 . S
H462 C491 0.950 . S
H463 C492 0.950 . S
H464 C494 0.950 . S
H465 C495 0.950 . S
C466 H448 0.951 . S
C466 C467 1.366 . S
C466 C468 1.388 . S
C467 C466 1.366 . S
C467 C471 1.385 . S
C468 H449 0.951 . S
C468 C466 1.388 . S
C468 C469 1.366 . S
C469 C468 1.366 . S
C469 C470 1.414 . S
C469 C472 1.499 . S
C470 H450 0.950 . S
C470 C469 1.414 . S
C470 C471 1.374 . S
C471 H451 0.950 . S
C471 C467 1.385 . S
C471 C470 1.374 . S
C472 C469 1.499 . S
C472 C473 1.373 . S
C472 C474 1.389 . S
C473 H452 0.950 . S
C473 C472 1.373 . S
C473 C489 1.377 . S
C474 C472 1.389 . S
C474 C475 1.524 . S
C474 C488 1.377 . S
C475 C474 1.524 . S
C475 C476 1.397 . S
C475 C480 1.363 . S
C476 H453 0.950 . S
C476 C475 1.397 . S
C476 C477 1.334 1_554 S
C477 H454 0.950 . S
C477 C476 1.334 1_556 S
C477 C478 1.287 . S
C478 C477 1.287 . S
C478 C479 1.524 . S
C478 H497 0.913 . S
C479 H455 0.950 . S
C479 C478 1.524 . S
C479 C480 1.415 1_556 S
C480 H456 0.950 . S
C480 C475 1.363 . S
C480 C479 1.415 1_554 S
C481 H457 0.951 . S
C481 C482 1.366 . S
C481 C483 1.388 . S
C482 C481 1.366 . S
C482 C486 1.385 . S
C483 H458 0.951 . S
C483 C481 1.388 . S
C483 C484 1.366 . S
C484 C483 1.366 . S
C484 C485 1.414 . S
C484 C487 1.499 . S
C485 H459 0.950 . S
C485 C484 1.414 . S
C485 C486 1.374 . S
C486 H460 0.950 . S
C486 C482 1.385 . S
C486 C485 1.374 . S
C487 C484 1.499 . S
C487 C488 1.373 . S
C487 C489 1.389 . S
C488 H461 0.950 . S
C488 C474 1.377 . S
C488 C487 1.373 . S
C489 C473 1.377 . S
C489 C487 1.389 . S
C489 C490 1.524 . S
C490 C489 1.524 . S
C490 C491 1.397 . S
C490 C495 1.363 . S
C491 H462 0.950 . S
C491 C490 1.397 . S
C491 C492 1.334 . S
C492 H463 0.950 . S
C492 C491 1.334 . S
C492 C493 1.287 . S
C493 C492 1.287 . S
C493 C494 1.524 . S
C493 H496 0.999 . S
C494 H464 0.950 . S
C494 C493 1.524 . S
C494 C495 1.415 . S
C495 H465 0.950 . S
C495 C490 1.363 . S
C495 C494 1.415 . S
H496 C493 0.999 . S
H497 C478 0.913 . S
H498 C516 0.951 . S
H499 C518 0.951 . S
H500 C520 0.950 . S
H501 C521 0.950 . S
H502 C523 0.950 . S
H503 C526 0.950 . S
H504 C527 0.950 . S
H505 C529 0.950 . S
H506 C530 0.950 . S
H507 C531 0.951 . S
H508 C533 0.951 . S
H509 C535 0.950 . S
H510 C536 0.950 . S
H511 C538 0.950 . S
H512 C541 0.950 . S
H513 C542 0.950 . S
H514 C544 0.950 . S
H515 C545 0.950 . S
C516 H498 0.951 . S
C516 C517 1.366 . S
C516 C518 1.388 . S
C517 C516 1.366 . S
C517 C521 1.385 . S
C518 H499 0.951 . S
C518 C516 1.388 . S
C518 C519 1.366 . S
C519 C518 1.366 . S
C519 C520 1.414 . S
C519 C522 1.499 . S
C520 H500 0.950 . S
C520 C519 1.414 . S
C520 C521 1.374 . S
C521 H501 0.950 . S
C521 C517 1.385 . S
C521 C520 1.374 . S
C522 C519 1.499 . S
C522 C523 1.373 . S
C522 C524 1.383 1_655 S
C523 H502 0.950 . S
C523 C522 1.373 . S
C523 C539 1.394 . S
C524 C522 1.383 1_455 S
C524 C525 1.516 . S
C524 C538 1.394 . S
C525 C524 1.516 . S
C525 C526 1.397 . S
C525 C530 1.363 . S
C526 H503 0.950 . S
C526 C525 1.397 . S
C526 C527 1.334 . S
C527 H504 0.950 . S
C527 C526 1.334 . S
C527 C528 1.287 . S
C528 C527 1.287 . S
C528 C529 1.524 . S
C528 H547 0.913 . S
C529 H505 0.950 . S
C529 C528 1.524 . S
C529 C530 1.415 . S
C530 H506 0.950 . S
C530 C525 1.363 . S
C530 C529 1.415 . S
C531 H507 0.951 . S
C531 C532 1.366 . S
C531 C533 1.388 . S
C532 C531 1.366 . S
C532 C536 1.385 . S
C533 H508 0.951 . S
C533 C531 1.388 . S
C533 C534 1.366 . S
C534 C533 1.366 . S
C534 C535 1.414 . S
C534 C537 1.499 . S
C535 H509 0.950 . S
C535 C534 1.414 . S
C535 C536 1.374 . S
C536 H510 0.950 . S
C536 C532 1.385 . S
C536 C535 1.374 . S
C537 C534 1.499 . S
C537 C538 1.373 . S
C537 C539 1.383 1_455 S
C538 H511 0.950 . S
C538 C524 1.394 . S
C538 C537 1.373 . S
C539 C523 1.394 . S
C539 C537 1.383 1_655 S
C539 C540 1.516 . S
C540 C539 1.516 . S
C540 C541 1.397 . S
C540 C545 1.363 . S
C541 H512 0.950 . S
C541 C540 1.397 . S
C541 C542 1.334 . S
C542 H513 0.950 . S
C542 C541 1.334 . S
C542 C543 1.287 . S
C543 C542 1.287 . S
C543 C544 1.524 . S
C543 H546 0.999 . S
C544 H514 0.950 . S
C544 C543 1.524 . S
C544 C545 1.415 . S
C545 H515 0.950 . S
C545 C540 1.363 . S
C545 C544 1.415 . S
H546 C543 0.999 . S
H547 C528 0.913 . S
H548 C566 0.951 . S
H549 C568 0.951 . S
H550 C570 0.950 . S
H551 C571 0.950 . S
H552 C573 0.950 . S
H553 C576 0.950 . S
H554 C577 0.950 . S
H555 C579 0.950 . S
H556 C580 0.950 . S
H557 C581 0.951 . S
H558 C583 0.951 . S
H559 C585 0.950 . S
H560 C586 0.950 . S
H561 C588 0.950 . S
H562 C591 0.950 . S
H563 C592 0.950 . S
H564 C594 0.950 . S
H565 C595 0.950 . S
C566 H548 0.951 . S
C566 C567 1.366 . S
C566 C568 1.388 . S
C567 C566 1.366 . S
C567 C571 1.385 . S
C568 H549 0.951 . S
C568 C566 1.388 . S
C568 C569 1.366 . S
C569 C568 1.366 . S
C569 C570 1.414 . S
C569 C572 1.499 . S
C570 H550 0.950 . S
C570 C569 1.414 . S
C570 C571 1.374 . S
C571 H551 0.950 . S
C571 C567 1.385 . S
C571 C570 1.374 . S
C572 C569 1.499 . S
C572 C573 1.373 . S
C572 C574 1.389 . S
C573 H552 0.950 . S
C573 C572 1.373 . S
C573 C589 1.377 . S
C574 C572 1.389 . S
C574 C575 1.524 . S
C574 C588 1.377 . S
C575 C574 1.524 . S
C575 C576 1.397 . S
C575 C580 1.363 . S
C576 H553 0.950 . S
C576 C575 1.397 . S
C576 C577 1.334 . S
C577 H554 0.950 . S
C577 C576 1.334 . S
C577 C578 1.287 . S
C578 C577 1.287 . S
C578 C579 1.524 . S
C578 H597 0.913 . S
C579 H555 0.950 . S
C579 C578 1.524 . S
C579 C580 1.415 . S
C580 H556 0.950 . S
C580 C575 1.363 . S
C580 C579 1.415 . S
C581 H557 0.951 . S
C581 C582 1.366 . S
C581 C583 1.388 . S
C582 C581 1.366 . S
C582 C586 1.385 . S
C583 H558 0.951 . S
C583 C581 1.388 . S
C583 C584 1.366 . S
C584 C583 1.366 . S
C584 C585 1.414 . S
C584 C587 1.499 . S
C585 H559 0.950 . S
C585 C584 1.414 . S
C585 C586 1.374 . S
C586 H560 0.950 . S
C586 C582 1.385 . S
C586 C585 1.374 . S
C587 C584 1.499 . S
C587 C588 1.373 . S
C587 C589 1.389 . S
C588 H561 0.950 . S
C588 C574 1.377 . S
C588 C587 1.373 . S
C589 C573 1.377 . S
C589 C587 1.389 . S
C589 C590 1.524 . S
C590 C589 1.524 . S
C590 C591 1.397 . S
C590 C595 1.363 . S
C591 H562 0.950 . S
C591 C590 1.397 . S
C591 C592 1.334 . S
C592 H563 0.950 . S
C592 C591 1.334 . S
C592 C593 1.287 . S
C593 C592 1.287 . S
C593 C594 1.524 . S
C593 H596 0.999 . S
C594 H564 0.950 . S
C594 C593 1.524 . S
C594 C595 1.415 . S
C595 H565 0.950 . S
C595 C590 1.363 . S
C595 C594 1.415 . S
H596 C593 0.999 . S
H597 C578 0.913 . S
H598 C616 0.951 . S
H599 C618 0.951 . S
H600 C620 0.950 . S
H601 C621 0.950 . S
H602 C623 0.950 . S
H603 C626 0.950 . S
H604 C627 0.950 . S
H605 C629 0.950 . S
H606 C630 0.950 . S
H607 C631 0.951 . S
H608 C633 0.951 . S
H609 C635 0.950 . S
H610 C636 0.950 . S
H611 C638 0.950 . S
H612 C641 0.950 . S
H613 C642 0.950 . S
H614 C644 0.950 . S
H615 C645 0.950 . S
C616 H598 0.951 . S
C616 C617 1.366 . S
C616 C618 1.388 . S
C617 C616 1.366 . S
C617 C621 1.385 . S
C618 H599 0.951 . S
C618 C616 1.388 . S
C618 C619 1.366 . S
C619 C618 1.366 . S
C619 C620 1.414 . S
C619 C622 1.499 . S
C620 H600 0.950 . S
C620 C619 1.414 . S
C620 C621 1.374 . S
C621 H601 0.950 . S
C621 C617 1.385 . S
C621 C620 1.374 . S
C622 C619 1.499 . S
C622 C623 1.373 . S
C622 C624 1.389 1_545 S
C623 H602 0.950 . S
C623 C622 1.373 . S
C623 C639 1.377 . S
C624 C622 1.389 1_565 S
C624 C625 1.524 . S
C624 C638 1.377 . S
C625 C624 1.524 . S
C625 C626 1.397 . S
C625 C630 1.363 . S
C626 H603 0.950 . S
C626 C625 1.397 . S
C626 C627 1.334 . S
C627 H604 0.950 . S
C627 C626 1.334 . S
C627 C628 1.287 . S
C628 C627 1.287 . S
C628 C629 1.524 . S
C628 H647 0.913 . S
C629 H605 0.950 . S
C629 C628 1.524 . S
C629 C630 1.415 . S
C630 H606 0.950 . S
C630 C625 1.363 . S
C630 C629 1.415 . S
C631 H607 0.951 . S
C631 C632 1.366 . S
C631 C633 1.388 . S
C632 C631 1.366 . S
C632 C636 1.385 . S
C633 H608 0.951 . S
C633 C631 1.388 . S
C633 C634 1.366 . S
C634 C633 1.366 . S
C634 C635 1.414 . S
C634 C637 1.499 . S
C635 H609 0.950 . S
C635 C634 1.414 . S
C635 C636 1.374 . S
C636 H610 0.950 . S
C636 C632 1.385 . S
C636 C635 1.374 . S
C637 C634 1.499 . S
C637 C638 1.373 . S
C637 C639 1.389 1_565 S
C638 H611 0.950 . S
C638 C624 1.377 . S
C638 C637 1.373 . S
C639 C623 1.377 . S
C639 C637 1.389 1_545 S
C639 C640 1.524 . S
C640 C639 1.524 . S
C640 C641 1.397 . S
C640 C645 1.363 . S
C641 H612 0.950 . S
C641 C640 1.397 . S
C641 C642 1.334 . S
C642 H613 0.950 . S
C642 C641 1.334 . S
C642 C643 1.287 . S
C643 C642 1.287 . S
C643 C644 1.524 . S
C643 H646 0.999 . S
C644 H614 0.950 . S
C644 C643 1.524 . S
C644 C645 1.415 . S
C645 H615 0.950 . S
C645 C640 1.363 . S
C645 C644 1.415 . S
H646 C643 0.999 . S
H647 C628 0.913 . S
H648 C666 0.951 1_554 S
H649 C668 0.951 . S
H650 C670 0.950 . S
H651 C671 0.950 . S
H652 C673 0.950 . S
H653 C676 0.950 . S
H654 C677 0.950 1_556 S
H655 C679 0.950 . S
H656 C680 0.950 . S
H657 C681 0.951 1_556 S
H658 C683 0.951 . S
H659 C685 0.950 . S
H660 C686 0.950 . S
H661 C688 0.950 . S
H662 C691 0.950 . S
H663 C692 0.950 1_554 S
H664 C694 0.950 . S
H665 C695 0.950 . S
C666 H648 0.951 1_556 S
C666 C667 1.366 . S
C666 C668 1.388 1_556 S
C667 C666 1.366 . S
C667 C671 1.385 . S
C668 H649 0.951 . S
C668 C666 1.388 1_554 S
C668 C669 1.366 1_554 S
C669 C668 1.366 1_556 S
C669 C670 1.414 . S
C669 C672 1.499 . S
C670 H650 0.950 . S
C670 C669 1.414 . S
C670 C671 1.374 . S
C671 H651 0.950 . S
C671 C667 1.385 . S
C671 C670 1.374 . S
C672 C669 1.499 . S
C672 C673 1.373 . S
C672 C674 1.389 1_556 S
C673 H652 0.950 . S
C673 C672 1.373 . S
C673 C689 1.377 . S
C674 C672 1.389 1_554 S
C674 C675 1.524 . S
C674 C688 1.377 . S
C675 C674 1.524 . S
C675 C676 1.397 1_554 S
C675 C680 1.363 . S
C676 H653 0.950 . S
C676 C675 1.397 1_556 S
C676 C677 1.334 1_556 S
C677 H654 0.950 1_554 S
C677 C676 1.334 1_554 S
C677 C678 1.287 . S
C678 C677 1.287 . S
C678 C679 1.524 . S
C678 H697 0.913 . S
C679 H655 0.950 . S
C679 C678 1.524 . S
C679 C680 1.415 . S
C680 H656 0.950 . S
C680 C675 1.363 . S
C680 C679 1.415 . S
C681 H657 0.951 1_554 S
C681 C682 1.366 . S
C681 C683 1.388 1_554 S
C682 C681 1.366 . S
C682 C686 1.385 . S
C683 H658 0.951 . S
C683 C681 1.388 1_556 S
C683 C684 1.366 1_556 S
C684 C683 1.366 1_554 S
C684 C685 1.414 . S
C684 C687 1.499 . S
C685 H659 0.950 . S
C685 C684 1.414 . S
C685 C686 1.374 . S
C686 H660 0.950 . S
C686 C682 1.385 . S
C686 C685 1.374 . S
C687 C684 1.499 . S
C687 C688 1.373 . S
C687 C689 1.389 1_554 S
C688 H661 0.950 . S
C688 C674 1.377 . S
C688 C687 1.373 . S
C689 C673 1.377 . S
C689 C687 1.389 1_556 S
C689 C690 1.524 . S
C690 C689 1.524 . S
C690 C691 1.397 1_556 S
C690 C695 1.363 . S
C691 H662 0.950 . S
C691 C690 1.397 1_554 S
C691 C692 1.334 1_554 S
C692 H663 0.950 1_556 S
C692 C691 1.334 1_556 S
C692 C693 1.287 . S
C693 C692 1.287 . S
C693 C694 1.524 . S
C693 H696 0.999 . S
C694 H664 0.950 . S
C694 C693 1.524 . S
C694 C695 1.415 . S
C695 H665 0.950 . S
C695 C690 1.363 . S
C695 C694 1.415 . S
H696 C693 0.999 . S
H697 C678 0.913 . S
H698 C716 0.951 . S
H699 C718 0.951 . S
H700 C720 0.950 . S
H701 C721 0.950 . S
H702 C723 0.950 . S
H703 C726 0.950 . S
H704 C727 0.950 . S
H705 C729 0.942 1_565 S
H706 C730 0.950 1_565 S
H707 C731 0.951 . S
H708 C733 0.951 . S
H709 C735 0.950 . S
H710 C736 0.950 . S
H711 C738 0.950 . S
H712 C741 0.950 . S
H713 C742 0.950 . S
H714 C744 0.942 1_545 S
H715 C745 0.950 1_545 S
C716 H698 0.951 . S
C716 C717 1.366 . S
C716 C718 1.388 . S
C717 C716 1.366 . S
C717 C721 1.385 . S
C718 H699 0.951 . S
C718 C716 1.388 . S
C718 C719 1.366 . S
C719 C718 1.366 . S
C719 C720 1.414 . S
C719 C722 1.499 . S
C720 H700 0.950 . S
C720 C719 1.414 . S
C720 C721 1.374 . S
C721 H701 0.950 . S
C721 C717 1.385 . S
C721 C720 1.374 . S
C722 C719 1.499 . S
C722 C723 1.373 . S
C722 C724 1.389 . S
C723 H702 0.950 . S
C723 C722 1.373 . S
C723 C739 1.377 1_545 S
C724 C722 1.389 . S
C724 C725 1.524 . S
C724 C738 1.377 1_545 S
C725 C724 1.524 . S
C725 C726 1.397 . S
C725 C730 1.363 . S
C726 H703 0.950 . S
C726 C725 1.397 . S
C726 C727 1.334 . S
C727 H704 0.950 . S
C727 C726 1.334 . S
C727 C728 1.287 . S
C728 C727 1.287 . S
C728 C729 1.524 . S
C728 H747 0.913 . S
C729 H705 0.942 1_545 S
C729 C728 1.524 . S
C729 C730 1.415 . S
C730 H706 0.950 1_545 S
C730 C725 1.363 . S
C730 C729 1.415 . S
C731 H707 0.951 . S
C731 C732 1.366 . S
C731 C733 1.388 . S
C732 C731 1.366 . S
C732 C736 1.385 . S
C733 H708 0.951 . S
C733 C731 1.388 . S
C733 C734 1.366 . S
C734 C733 1.366 . S
C734 C735 1.414 . S
C734 C737 1.499 . S
C735 H709 0.950 . S
C735 C734 1.414 . S
C735 C736 1.374 . S
C736 H710 0.950 . S
C736 C732 1.385 . S
C736 C735 1.374 . S
C737 C734 1.499 . S
C737 C738 1.373 . S
C737 C739 1.389 . S
C738 H711 0.950 . S
C738 C724 1.377 1_565 S
C738 C737 1.373 . S
C739 C723 1.377 1_565 S
C739 C737 1.389 . S
C739 C740 1.524 . S
C740 C739 1.524 . S
C740 C741 1.397 . S
C740 C745 1.363 . S
C741 H712 0.950 . S
C741 C740 1.397 . S
C741 C742 1.334 . S
C742 H713 0.950 . S
C742 C741 1.334 . S
C742 C743 1.287 . S
C743 C742 1.287 . S
C743 C744 1.524 . S
C743 H746 0.999 . S
C744 H714 0.942 1_565 S
C744 C743 1.524 . S
C744 C745 1.415 . S
C745 H715 0.950 1_565 S
C745 C740 1.363 . S
C745 C744 1.415 . S
H746 C743 0.999 . S
H747 C728 0.913 . S
H748 C766 0.951 . S
H749 C768 0.951 . S
H750 C770 0.950 . S
H751 C771 0.950 . S
H752 C773 0.950 . S
H753 C776 0.950 . S
H754 C777 0.950 . S
H755 C779 0.950 . S
H756 C780 0.950 . S
H757 C781 0.951 . S
H758 C783 0.951 . S
H759 C785 0.950 . S
H760 C786 0.950 . S
H761 C788 0.950 . S
H762 C791 0.950 . S
H763 C792 0.950 . S
H764 C794 0.950 . S
H765 C795 0.950 . S
C766 H748 0.951 . S
C766 C767 1.366 . S
C766 C768 1.388 . S
C767 C766 1.366 . S
C767 C771 1.385 . S
C768 H749 0.951 . S
C768 C766 1.388 . S
C768 C769 1.366 . S
C769 C768 1.366 . S
C769 C770 1.414 . S
C769 C772 1.499 . S
C770 H750 0.950 . S
C770 C769 1.414 . S
C770 C771 1.374 . S
C771 H751 0.950 . S
C771 C767 1.385 . S
C771 C770 1.374 . S
C772 C769 1.499 . S
C772 C773 1.373 . S
C772 C774 1.389 . S
C773 H752 0.950 . S
C773 C772 1.373 . S
C773 C789 1.377 1_455 S
C774 C772 1.389 . S
C774 C775 1.524 . S
C774 C788 1.377 1_455 S
C775 C774 1.524 . S
C775 C776 1.397 . S
C775 C780 1.363 . S
C776 H753 0.950 . S
C776 C775 1.397 . S
C776 C777 1.334 . S
C777 H754 0.950 . S
C777 C776 1.334 . S
C777 C778 1.287 . S
C778 C777 1.287 . S
C778 C779 1.524 . S
C778 H797 0.913 . S
C779 H755 0.950 . S
C779 C778 1.524 . S
C779 C780 1.415 . S
C780 H756 0.950 . S
C780 C775 1.363 . S
C780 C779 1.415 . S
C781 H757 0.951 . S
C781 C782 1.366 . S
C781 C783 1.388 . S
C782 C781 1.366 . S
C782 C786 1.385 . S
C783 H758 0.951 . S
C783 C781 1.388 . S
C783 C784 1.366 . S
C784 C783 1.366 . S
C784 C785 1.414 . S
C784 C787 1.499 . S
C785 H759 0.950 . S
C785 C784 1.414 . S
C785 C786 1.374 . S
C786 H760 0.950 . S
C786 C782 1.385 . S
C786 C785 1.374 . S
C787 C784 1.499 . S
C787 C788 1.373 . S
C787 C789 1.389 . S
C788 H761 0.950 . S
C788 C774 1.377 1_655 S
C788 C787 1.373 . S
C789 C773 1.377 1_655 S
C789 C787 1.389 . S
C789 C790 1.524 . S
C790 C789 1.524 . S
C790 C791 1.397 . S
C790 C795 1.363 . S
C791 H762 0.950 . S
C791 C790 1.397 . S
C791 C792 1.334 . S
C792 H763 0.950 . S
C792 C791 1.334 . S
C792 C793 1.287 . S
C793 C792 1.287 . S
C793 C794 1.524 . S
C793 H796 0.999 . S
C794 H764 0.950 . S
C794 C793 1.524 . S
C794 C795 1.415 . S
C795 H765 0.950 . S
C795 C790 1.363 . S
C795 C794 1.415 . S
H796 C793 0.999 . S
H797 C778 0.913 . S
H798 C816 0.951 . S
H799 C818 0.951 . S
H800 C820 0.950 . S
H801 C821 0.950 . S
H802 C823 0.950 . S
H803 C826 0.950 . S
H804 C827 0.950 . S
H805 C829 0.950 . S
H806 C830 0.950 . S
H807 C831 0.951 . S
H808 C833 0.951 . S
H809 C835 0.950 . S
H810 C836 0.950 . S
H811 C838 0.950 . S
H812 C841 0.950 . S
H813 C842 0.950 . S
H814 C844 0.950 . S
H815 C845 0.950 . S
C816 H798 0.951 . S
C816 C817 1.366 . S
C816 C818 1.388 . S
C817 C816 1.366 . S
C817 C821 1.385 . S
C818 H799 0.951 . S
C818 C816 1.388 . S
C818 C819 1.366 . S
C819 C818 1.366 . S
C819 C820 1.414 . S
C819 C822 1.499 . S
C820 H800 0.950 . S
C820 C819 1.414 . S
C820 C821 1.374 . S
C821 H801 0.950 . S
C821 C817 1.385 . S
C821 C820 1.374 . S
C822 C819 1.499 . S
C822 C823 1.373 . S
C822 C824 1.389 1_655 S
C823 H802 0.950 . S
C823 C822 1.373 . S
C823 C839 1.377 . S
C824 C822 1.389 1_455 S
C824 C825 1.524 . S
C824 C838 1.377 . S
C825 C824 1.524 . S
C825 C826 1.397 . S
C825 C830 1.363 . S
C826 H803 0.950 . S
C826 C825 1.397 . S
C826 C827 1.334 . S
C827 H804 0.950 . S
C827 C826 1.334 . S
C827 C828 1.287 . S
C828 C827 1.287 . S
C828 C829 1.524 . S
C828 H847 0.913 . S
C829 H805 0.950 . S
C829 C828 1.524 . S
C829 C830 1.415 . S
C830 H806 0.950 . S
C830 C825 1.363 . S
C830 C829 1.415 . S
C831 H807 0.951 . S
C831 C832 1.366 . S
C831 C833 1.388 . S
C832 C831 1.366 . S
C832 C836 1.385 . S
C833 H808 0.951 . S
C833 C831 1.388 . S
C833 C834 1.366 . S
C834 C833 1.366 . S
C834 C835 1.414 . S
C834 C837 1.499 . S
C835 H809 0.950 . S
C835 C834 1.414 . S
C835 C836 1.374 . S
C836 H810 0.950 . S
C836 C832 1.385 . S
C836 C835 1.374 . S
C837 C834 1.499 . S
C837 C838 1.373 . S
C837 C839 1.389 1_455 S
C838 H811 0.950 . S
C838 C824 1.377 . S
C838 C837 1.373 . S
C839 C823 1.377 . S
C839 C837 1.389 1_655 S
C839 C840 1.524 . S
C840 C839 1.524 . S
C840 C841 1.397 . S
C840 C845 1.363 . S
C841 H812 0.950 . S
C841 C840 1.397 . S
C841 C842 1.334 . S
C842 H813 0.950 . S
C842 C841 1.334 . S
C842 C843 1.287 . S
C843 C842 1.287 . S
C843 C844 1.524 . S
C843 H846 0.999 . S
C844 H814 0.950 . S
C844 C843 1.524 . S
C844 C845 1.415 . S
C845 H815 0.950 . S
C845 C840 1.363 . S
C845 C844 1.415 . S
H846 C843 0.999 . S
H847 C828 0.913 . S
H848 C866 0.951 . S
H849 C868 0.951 . S
H850 C870 0.950 . S
H851 C871 0.950 . S
H852 C873 0.950 . S
H853 C876 0.950 1_556 S
H854 C877 0.950 . S
H855 C879 0.950 . S
H856 C880 0.950 . S
H857 C881 0.951 . S
H858 C883 0.951 . S
H859 C885 0.950 . S
H860 C886 0.950 . S
H861 C888 0.950 . S
H862 C891 0.950 1_554 S
H863 C892 0.950 . S
H864 C894 0.950 . S
H865 C895 0.950 . S
C866 H848 0.951 . S
C866 C867 1.366 . S
C866 C868 1.388 . S
C867 C866 1.366 . S
C867 C871 1.385 . S
C868 H849 0.951 . S
C868 C866 1.388 . S
C868 C869 1.366 . S
C869 C868 1.366 . S
C869 C870 1.414 . S
C869 C872 1.499 . S
C870 H850 0.950 . S
C870 C869 1.414 . S
C870 C871 1.374 . S
C871 H851 0.950 . S
C871 C867 1.385 . S
C871 C870 1.374 . S
C872 C869 1.499 . S
C872 C873 1.373 . S
C872 C874 1.389 1_556 S
C873 H852 0.950 . S
C873 C872 1.373 . S
C873 C889 1.377 . S
C874 C872 1.389 1_554 S
C874 C875 1.524 . S
C874 C888 1.377 . S
C875 C874 1.524 . S
C875 C876 1.397 . S
C875 C880 1.363 . S
C876 H853 0.950 1_554 S
C876 C875 1.397 . S
C876 C877 1.334 . S
C877 H854 0.950 . S
C877 C876 1.334 . S
C877 C878 1.287 . S
C878 C877 1.287 . S
C878 C879 1.524 . S
C878 H897 0.913 . S
C879 H855 0.950 . S
C879 C878 1.524 . S
C879 C880 1.415 . S
C880 H856 0.950 . S
C880 C875 1.363 . S
C880 C879 1.415 . S
C881 H857 0.951 . S
C881 C882 1.366 . S
C881 C883 1.388 . S
C882 C881 1.366 . S
C882 C886 1.385 . S
C883 H858 0.951 . S
C883 C881 1.388 . S
C883 C884 1.366 . S
C884 C883 1.366 . S
C884 C885 1.414 . S
C884 C887 1.499 . S
C885 H859 0.950 . S
C885 C884 1.414 . S
C885 C886 1.374 . S
C886 H860 0.950 . S
C886 C882 1.385 . S
C886 C885 1.374 . S
C887 C884 1.499 . S
C887 C888 1.373 . S
C887 C889 1.389 1_554 S
C888 H861 0.950 . S
C888 C874 1.377 . S
C888 C887 1.373 . S
C889 C873 1.377 . S
C889 C887 1.389 1_556 S
C889 C890 1.524 . S
C890 C889 1.524 . S
C890 C891 1.397 . S
C890 C895 1.363 . S
C891 H862 0.950 1_556 S
C891 C890 1.397 . S
C891 C892 1.334 . S
C892 H863 0.950 . S
C892 C891 1.334 . S
C892 C893 1.287 . S
C893 C892 1.287 . S
C893 C894 1.524 . S
C893 H896 0.999 . S
C894 H864 0.950 . S
C894 C893 1.524 . S
C894 C895 1.415 . S
C895 H865 0.950 . S
C895 C890 1.363 . S
C895 C894 1.415 . S
H896 C893 0.999 . S
H897 C878 0.913 . S
H898 C916 0.951 . S
H899 C918 0.951 . S
H900 C920 0.950 . S
H901 C921 0.950 . S
H902 C923 0.940 . S
H903 C926 0.950 . S
H904 C927 0.950 . S
H905 C929 0.950 . S
H906 C930 0.950 . S
H907 C931 0.951 . S
H908 C933 0.951 . S
H909 C935 0.950 . S
H910 C936 0.950 . S
H911 C938 0.940 . S
H912 C941 0.950 . S
H913 C942 0.950 . S
H914 C944 0.950 . S
H915 C945 0.950 . S
C916 H898 0.951 . S
C916 C917 1.366 . S
C916 C918 1.388 . S
C917 C916 1.366 . S
C917 C921 1.385 . S
C918 H899 0.951 . S
C918 C916 1.388 . S
C918 C919 1.366 . S
C919 C918 1.366 . S
C919 C920 1.414 . S
C919 C922 1.499 . S
C920 H900 0.950 . S
C920 C919 1.414 . S
C920 C921 1.374 . S
C921 H901 0.950 . S
C921 C917 1.385 . S
C921 C920 1.374 . S
C922 C919 1.499 . S
C922 C923 1.365 1_545 S
C922 C924 1.389 . S
C923 H902 0.940 . S
C923 C922 1.365 1_565 S
C923 C939 1.396 . S
C924 C922 1.389 . S
C924 C925 1.524 . S
C924 C938 1.396 . S
C925 C924 1.524 . S
C925 C926 1.397 . S
C925 C930 1.363 . S
C926 H903 0.950 . S
C926 C925 1.397 . S
C926 C927 1.334 . S
C927 H904 0.950 . S
C927 C926 1.334 . S
C927 C928 1.287 . S
C928 C927 1.287 . S
C928 C929 1.524 . S
C928 H947 0.913 . S
C929 H905 0.950 . S
C929 C928 1.524 . S
C929 C930 1.415 . S
C930 H906 0.950 . S
C930 C925 1.363 . S
C930 C929 1.415 . S
C931 H907 0.951 . S
C931 C932 1.366 . S
C931 C933 1.388 . S
C932 C931 1.366 . S
C932 C936 1.385 . S
C933 H908 0.951 . S
C933 C931 1.388 . S
C933 C934 1.366 . S
C934 C933 1.366 . S
C934 C935 1.414 . S
C934 C937 1.499 . S
C935 H909 0.950 . S
C935 C934 1.414 . S
C935 C936 1.374 . S
C936 H910 0.950 . S
C936 C932 1.385 . S
C936 C935 1.374 . S
C937 C934 1.499 . S
C937 C938 1.365 1_565 S
C937 C939 1.389 . S
C938 H911 0.940 . S
C938 C924 1.396 . S
C938 C937 1.365 1_545 S
C939 C923 1.396 . S
C939 C937 1.389 . S
C939 C940 1.524 . S
C940 C939 1.524 . S
C940 C941 1.397 . S
C940 C945 1.363 . S
C941 H912 0.950 . S
C941 C940 1.397 . S
C941 C942 1.334 . S
C942 H913 0.950 . S
C942 C941 1.334 . S
C942 C943 1.287 . S
C943 C942 1.287 . S
C943 C944 1.524 . S
C943 H946 0.999 . S
C944 H914 0.950 . S
C944 C943 1.524 . S
C944 C945 1.415 . S
C945 H915 0.950 . S
C945 C940 1.363 . S
C945 C944 1.415 . S
H946 C943 0.999 . S
H947 C928 0.913 . S
C217 N80 1.029 . S
C232 C28 1.065 . S
C267 C61 1.065 . S
C282 N14 1.029 . S
C317 C94 1.065 . S
C332 N47 1.029 . S
C367 C127 1.065 . S
C382 N146 1.027 . S
C417 N179 1.029 . S
C432 C160 1.065 . S
C467 N113 1.029 . S
C482 C193 1.065 . S
C517 C149 0.496 . S
C532 C17 0.496 . S
C567 C182 0.496 . S
C582 C50 0.496 . S
C617 C116 0.496 . S
C632 C83 0.496 . S
C667 C107 1.792 . S
C682 C8 1.792 . S
C717 C140 1.792 . S
C732 C41 1.792 . S
C767 C74 1.793 . S
C782 C173 1.793 . S
C817 N137 2.156 . S
C832 N5 2.156 . S
C867 N38 2.157 . S
C882 N170 2.157 . S
C917 N104 2.157 . S
C932 N71 2.157 . S
