# Generated by pormake.
# Topology una, (4)-cn, num edge types: 1
# Building blocks:
#     Node 0, Type 0, BuildingBlock: ICAMEG_clean_sbu_1, # of connection points: 4
#     Node 1, Type 0, BuildingBlock: ICAMEG_clean_sbu_1, # of connection points: 4
#     Node 2, Type 0, BuildingBlock: ICAMEG_clean_sbu_1, # of connection points: 4
#     Node 3, Type 0, BuildingBlock: ICAMEG_clean_sbu_1, # of connection points: 4
#     Node 4, Type 0, BuildingBlock: ICAMEG_clean_sbu_1, # of connection points: 4
#     Node 5, Type 0, BuildingBlock: ICAMEG_clean_sbu_1, # of connection points: 4
#     Node 6, Type 0, BuildingBlock: ICAMEG_clean_sbu_1, # of connection points: 4
#     Node 7, Type 0, BuildingBlock: ICAMEG_clean_sbu_1, # of connection points: 4
#     Node 8, Type 0, BuildingBlock: ICAMEG_clean_sbu_1, # of connection points: 4
#     Node 9, Type 0, BuildingBlock: ICAMEG_clean_sbu_1, # of connection points: 4
#     Node 10, Type 0, BuildingBlock: ICAMEG_clean_sbu_1, # of connection points: 4
#     Node 11, Type 0, BuildingBlock: ICAMEG_clean_sbu_1, # of connection points: 4
#     Edge 12, Type (0, 0), BuildingBlock: ZUJKAS_clean_linker_0, # of connection points: 2
#     Edge 13, Type (0, 0), BuildingBlock: ZUJKAS_clean_linker_0, # of connection points: 2
#     Edge 14, Type (0, 0), BuildingBlock: ZUJKAS_clean_linker_0, # of connection points: 2
#     Edge 15, Type (0, 0), BuildingBlock: ZUJKAS_clean_linker_0, # of connection points: 2
#     Edge 16, Type (0, 0), BuildingBlock: ZUJKAS_clean_linker_0, # of connection points: 2
#     Edge 17, Type (0, 0), BuildingBlock: ZUJKAS_clean_linker_0, # of connection points: 2
#     Edge 18, Type (0, 0), BuildingBlock: ZUJKAS_clean_linker_0, # of connection points: 2
#     Edge 19, Type (0, 0), BuildingBlock: ZUJKAS_clean_linker_0, # of connection points: 2
#     Edge 20, Type (0, 0), BuildingBlock: ZUJKAS_clean_linker_0, # of connection points: 2
#     Edge 21, Type (0, 0), BuildingBlock: ZUJKAS_clean_linker_0, # of connection points: 2
#     Edge 22, Type (0, 0), BuildingBlock: ZUJKAS_clean_linker_0, # of connection points: 2
#     Edge 23, Type (0, 0), BuildingBlock: ZUJKAS_clean_linker_0, # of connection points: 2
#     Edge 24, Type (0, 0), BuildingBlock: ZUJKAS_clean_linker_0, # of connection points: 2
#     Edge 25, Type (0, 0), BuildingBlock: ZUJKAS_clean_linker_0, # of connection points: 2
#     Edge 26, Type (0, 0), BuildingBlock: ZUJKAS_clean_linker_0, # of connection points: 2
#     Edge 27, Type (0, 0), BuildingBlock: ZUJKAS_clean_linker_0, # of connection points: 2
#     Edge 28, Type (0, 0), BuildingBlock: ZUJKAS_clean_linker_0, # of connection points: 2
#     Edge 29, Type (0, 0), BuildingBlock: ZUJKAS_clean_linker_0, # of connection points: 2
#     Edge 30, Type (0, 0), BuildingBlock: ZUJKAS_clean_linker_0, # of connection points: 2
#     Edge 31, Type (0, 0), BuildingBlock: ZUJKAS_clean_linker_0, # of connection points: 2
#     Edge 32, Type (0, 0), BuildingBlock: ZUJKAS_clean_linker_0, # of connection points: 2
#     Edge 33, Type (0, 0), BuildingBlock: ZUJKAS_clean_linker_0, # of connection points: 2
#     Edge 34, Type (0, 0), BuildingBlock: ZUJKAS_clean_linker_0, # of connection points: 2
#     Edge 35, Type (0, 0), BuildingBlock: ZUJKAS_clean_linker_0, # of connection points: 2
# Relax obj value: 0.052
# Max RMSD: 0.084
# Mean RMSD: 0.084
data_MOF--net-una--node1-ICAMEG_clean_sbu_1--edge1-ZUJKAS_clean_linker_0
_symmetry_space_group_name_H-M    P1
_symmetry_Int_Tables_number       1
_symmetry_cell_setting            triclinic
loop_
_symmetry_equiv_pos_as_xyz
'x, y, z'
_cell_length_a     80.20829
_cell_length_b     80.239816
_cell_length_c     28.276631
_cell_angle_alpha  90.013652
_cell_angle_beta   90.0076
_cell_angle_gamma 120.02952
loop_
_atom_site_label
_atom_site_type_symbol
_atom_site_fract_x
_atom_site_fract_y
_atom_site_fract_z
_atom_type_partial_charge
Co0 Co 0.16825 0.47098 0.03839 0.0
Co1 Co 0.13515 0.42473 0.06965 0.0
O2 O 0.14166 0.45073 0.05028 0.0
C3 C 0.15253 0.49011 0.09982 0.0
O4 O 0.14418 0.47457 0.12617 0.0
C5 C 0.10847 0.41773 0.98932 0.0
O6 O 0.12335 0.43047 0.96495 0.0
O7 O 0.14904 0.42242 0.01382 0.0
O8 O 0.17496 0.452 0.01143 0.0
H9 H 0.14888 0.3712 0.102 0.0
H10 H 0.13607 0.47533 1.00144 0.0
O11 O 0.16252 0.49084 0.06408 0.0
H12 H 0.17361 0.47756 0.86106 0.0
H13 H 0.21993 0.53701 0.98723 0.0
H14 H 0.20652 0.47458 0.053 0.0
H15 H 0.18382 0.47395 0.94082 0.0
H16 H 0.1865 0.51103 1.00052 0.0
O17 O 0.11074 0.41373 0.0316 0.0
H18 H 0.15696 0.40407 0.07914 0.0
H19 H 0.09877 0.38967 0.09904 0.0
H20 H 0.24017 0.5001 0.03993 0.0
H21 H 0.12546 0.47917 0.92233 0.0
H22 H 0.24705 0.53159 0.00681 0.0
H23 H 0.14425 0.48024 0.85144 0.0
O24 O 0.17602 0.46718 0.1025 0.0
H25 H 0.08925 0.44071 0.15125 0.0
H26 H 0.13502 0.41726 0.17318 0.0
H27 H 0.11837 0.42072 0.24251 0.0
H28 H 0.09525 0.43248 0.23177 0.0
H29 H 0.1064 0.43725 0.08293 0.0
H30 H 0.09002 0.35659 0.12172 0.0
H31 H 0.1152 0.3472 0.12348 0.0
O32 O 0.15925 0.435 0.10901 0.0
C33 C 0.16587 0.43436 0.99882 0.0
C34 C 0.1378 0.37513 0.1015 0.0
C35 C 0.10476 0.36693 0.11251 0.0
N36 N 0.12839 0.39882 0.0881 0.0
C37 C 0.1423 0.39374 0.08871 0.0
C38 C 0.10979 0.38567 0.09954 0.0
C39 C 0.11889 0.36167 0.11351 0.0
C40 C 0.14443 0.47598 0.9708 0.0
N41 N 0.16058 0.4745 0.97579 0.0
C42 C 0.13831 0.47807 0.92608 0.0
C43 C 0.14884 0.47864 0.88631 0.0
C44 C 0.1653 0.47713 0.89168 0.0
C45 C 0.17098 0.47503 0.93694 0.0
C46 C 0.21712 0.52334 1.00159 0.0
C47 C 0.20939 0.4882 0.03833 0.0
C48 C 0.19822 0.50859 0.00929 0.0
N49 N 0.19456 0.49126 0.02722 0.0
C50 C 0.22848 0.50262 0.03112 0.0
C51 C 0.23233 0.52029 0.01258 0.0
C52 C 0.17263 0.45155 0.12258 0.0
C53 C 0.09925 0.43553 0.15637 0.0
C54 C 0.12508 0.4225 0.16822 0.0
C55 C 0.11563 0.42436 0.20761 0.0
C56 C 0.10265 0.43094 0.20155 0.0
N57 N 0.12167 0.42702 0.12401 0.0
C58 C 0.10894 0.43346 0.11779 0.0
Co59 Co 0.70235 0.16353 0.20897 0.0
Co60 Co 0.7174 0.13135 0.23099 0.0
O61 O 0.69672 0.13697 0.21728 0.0
C62 C 0.66718 0.14572 0.27031 0.0
O63 O 0.67397 0.13629 0.29382 0.0
C64 C 0.69477 0.10389 0.15427 0.0
O65 O 0.69442 0.11815 0.13255 0.0
O66 O 0.73127 0.14535 0.17283 0.0
O67 O 0.7281 0.17139 0.17994 0.0
H68 H 0.78631 0.14757 0.24696 0.0
H69 H 0.66582 0.13172 0.17086 0.0
O70 O 0.67676 0.15687 0.23649 0.0
H71 H 0.69979 0.17229 0.03314 0.0
H72 H 0.68649 0.21518 0.16849 0.0
H73 H 0.73666 0.20182 0.22619 0.0
H74 H 0.71413 0.18107 0.11276 0.0
H75 H 0.6797 0.18177 0.17686 0.0
O76 O 0.70347 0.10676 0.19374 0.0
H77 H 0.76005 0.15442 0.23174 0.0
H78 H 0.71845 0.0958 0.25646 0.0
H79 H 0.74411 0.23546 0.21796 0.0
H80 H 0.65081 0.12256 0.09192 0.0
H81 H 0.71892 0.24231 0.18893 0.0
H82 H 0.66787 0.14287 0.02234 0.0
O83 O 0.71412 0.17004 0.27304 0.0
H84 H 0.65919 0.08417 0.32316 0.0
H85 H 0.72846 0.13199 0.33215 0.0
H86 H 0.71109 0.1151 0.40453 0.0
H87 H 0.67621 0.09095 0.40029 0.0
H88 H 0.67708 0.10159 0.25174 0.0
H89 H 0.74426 0.08828 0.27157 0.0
H90 H 0.77848 0.11428 0.26703 0.0
O91 O 0.73201 0.15573 0.26937 0.0
C92 C 0.73599 0.16252 0.16151 0.0
C93 C 0.77146 0.13612 0.24919 0.0
C94 C 0.74786 0.10284 0.26294 0.0
N95 N 0.73774 0.12556 0.24356 0.0
C96 C 0.75653 0.13993 0.24073 0.0
C97 C 0.73331 0.10718 0.25425 0.0
C98 C 0.76705 0.11744 0.2604 0.0
C99 C 0.67323 0.14075 0.14084 0.0
N100 N 0.69082 0.15692 0.14647 0.0
C101 C 0.66471 0.13544 0.09619 0.0
C102 C 0.6743 0.14682 0.05715 0.0
C103 C 0.69222 0.16332 0.06318 0.0
C104 C 0.7003 0.16817 0.10835 0.0
C105 C 0.6976 0.21238 0.18112 0.0
C106 C 0.72565 0.20469 0.21333 0.0
C107 C 0.69382 0.19349 0.18605 0.0
N108 N 0.70781 0.18984 0.20177 0.0
C109 C 0.72994 0.22376 0.20883 0.0
C110 C 0.71579 0.2276 0.19258 0.0
C111 C 0.72777 0.16766 0.28805 0.0
C112 C 0.6744 0.09463 0.32544 0.0
C113 C 0.71326 0.12159 0.33004 0.0
C114 C 0.70351 0.11202 0.37113 0.0
C115 C 0.68395 0.09846 0.36872 0.0
N116 N 0.70379 0.11775 0.28772 0.0
C117 C 0.68462 0.10447 0.28508 0.0
Co118 Co 0.59777 0.71719 0.3976 0.0
Co119 Co 0.54974 0.69917 0.37587 0.0
O120 O 0.57186 0.69561 0.38574 0.0
C121 C 0.60302 0.69509 0.32053 0.0
O122 O 0.58807 0.69434 0.29951 0.0
C123 C 0.5212 0.67022 0.44166 0.0
O124 O 0.52015 0.68441 0.46186 0.0
O125 O 0.555 0.71293 0.4374 0.0
O126 O 0.58725 0.73091 0.43655 0.0
H127 H 0.51462 0.73636 0.37765 0.0
H128 H 0.5886 0.67738 0.4195 0.0
O129 O 0.609 0.70393 0.35979 0.0
H130 H 0.61057 0.71278 0.57023 0.0
H131 H 0.66853 0.74736 0.43359 0.0
H132 H 0.61547 0.75965 0.39757 0.0
H133 H 0.60942 0.72924 0.49773 0.0
H134 H 0.63558 0.72037 0.4204 0.0
O135 O 0.53307 0.67374 0.40793 0.0
H136 H 0.54256 0.73173 0.3882 0.0
H137 H 0.50907 0.67343 0.34453 0.0
H138 H 0.64817 0.78707 0.41094 0.0
H139 H 0.5897 0.66038 0.4911 0.0
H140 H 0.67497 0.781 0.42909 0.0
H141 H 0.60073 0.67811 0.56716 0.0
O142 O 0.59636 0.73039 0.33932 0.0
H143 H 0.54167 0.64573 0.26835 0.0
H144 H 0.54255 0.70754 0.27732 0.0
H145 H 0.53734 0.69124 0.20034 0.0
H146 H 0.5368 0.66007 0.19552 0.0
H147 H 0.54715 0.66265 0.34453 0.0
H148 H 0.48075 0.67742 0.33362 0.0
H149 H 0.48344 0.70908 0.35019 0.0
O150 O 0.56591 0.72443 0.34306 0.0
C151 C 0.57079 0.72677 0.4532 0.0
C152 C 0.51328 0.72251 0.37025 0.0
C153 C 0.49427 0.68943 0.34554 0.0
N154 N 0.52748 0.70236 0.36682 0.0
C155 C 0.52905 0.7198 0.3761 0.0
C156 C 0.51035 0.68726 0.35176 0.0
C157 C 0.49579 0.70719 0.35485 0.0
C158 C 0.59352 0.68521 0.45242 0.0
N159 N 0.59902 0.70429 0.45437 0.0
C160 C 0.59407 0.6755 0.49286 0.0
C161 C 0.60024 0.68545 0.53554 0.0
C162 C 0.60575 0.7049 0.53729 0.0
C163 C 0.60502 0.71413 0.49614 0.0
C164 C 0.65697 0.75019 0.42578 0.0
C165 C 0.62704 0.7569 0.40573 0.0
C166 C 0.63829 0.73497 0.41816 0.0
N167 N 0.6236 0.73844 0.40855 0.0
C168 C 0.64553 0.77248 0.41314 0.0
C169 C 0.66057 0.76906 0.42327 0.0
C170 C 0.58298 0.73359 0.32643 0.0
C171 C 0.54179 0.65926 0.27003 0.0
C172 C 0.54246 0.69404 0.27553 0.0
C173 C 0.53943 0.68484 0.23184 0.0
C174 C 0.53911 0.66734 0.22916 0.0
N175 N 0.54507 0.68602 0.3155 0.0
C176 C 0.54478 0.66886 0.31313 0.0
Co177 Co 0.85377 0.54468 0.53387 0.0
Co178 Co 0.88656 0.59079 0.56588 0.0
O179 O 0.88025 0.56487 0.54654 0.0
C180 C 0.86838 0.52487 0.59643 0.0
O181 O 0.87494 0.53947 0.62586 0.0
C182 C 0.91401 0.59786 0.48732 0.0
O183 O 0.89933 0.58522 0.46219 0.0
O184 O 0.87312 0.59315 0.50907 0.0
O185 O 0.84701 0.5637 0.50747 0.0
H186 H 0.87248 0.64421 0.59647 0.0
H187 H 0.8861 0.54059 0.49684 0.0
O188 O 0.85967 0.52488 0.55882 0.0
H189 H 0.84885 0.5389 0.35634 0.0
H190 H 0.80243 0.4788 0.48071 0.0
H191 H 0.81537 0.54082 0.54825 0.0
H192 H 0.83843 0.54211 0.43618 0.0
H193 H 0.83578 0.50481 0.49482 0.0
O194 O 0.91133 0.60186 0.52926 0.0
H195 H 0.86463 0.61139 0.57369 0.0
H196 H 0.92266 0.62582 0.59684 0.0
H197 H 0.78181 0.51526 0.53438 0.0
H198 H 0.89691 0.53713 0.41765 0.0
H199 H 0.77516 0.48397 0.50036 0.0
H200 H 0.87827 0.53634 0.3467 0.0
O201 O 0.84581 0.54821 0.59799 0.0
H202 H 0.9312 0.57401 0.65093 0.0
H203 H 0.88598 0.59834 0.66916 0.0
H204 H 0.90187 0.59457 0.73967 0.0
H205 H 0.92471 0.58237 0.73079 0.0
H206 H 0.91484 0.57783 0.58138 0.0
H207 H 0.93118 0.65884 0.61947 0.0
H208 H 0.90597 0.6682 0.61956 0.0
O209 O 0.86211 0.58041 0.60396 0.0
C210 C 0.85623 0.58124 0.49423 0.0
C211 C 0.88358 0.64029 0.5967 0.0
C212 C 0.91653 0.64851 0.60955 0.0
N213 N 0.89314 0.61666 0.58427 0.0
C214 C 0.87921 0.62172 0.58396 0.0
C215 C 0.91163 0.62981 0.59659 0.0
C216 C 0.90238 0.65375 0.60961 0.0
C217 C 0.8778 0.54006 0.46617 0.0
N218 N 0.86163 0.54149 0.47117 0.0
C219 C 0.88404 0.53818 0.42141 0.0
C220 C 0.87359 0.53777 0.38161 0.0
C221 C 0.8571 0.53922 0.38699 0.0
C222 C 0.8513 0.5411 0.43229 0.0
C223 C 0.80514 0.49238 0.49547 0.0
C224 C 0.81261 0.52729 0.53321 0.0
C225 C 0.82399 0.50715 0.50365 0.0
N226 N 0.82753 0.52437 0.52206 0.0
C227 C 0.79357 0.51285 0.52554 0.0
C228 C 0.78985 0.49529 0.50649 0.0
C229 C 0.84888 0.56381 0.6177 0.0
C230 C 0.92132 0.57939 0.65524 0.0
C231 C 0.89583 0.59294 0.665 0.0
C232 C 0.90483 0.59089 0.70506 0.0
C233 C 0.91765 0.58406 0.70005 0.0
N234 N 0.89952 0.58836 0.62116 0.0
C235 C 0.91207 0.58165 0.61597 0.0
Co236 Co 0.31642 0.85017 0.70293 0.0
Co237 Co 0.30266 0.88304 0.73182 0.0
O238 O 0.32251 0.87674 0.71421 0.0
C239 C 0.35105 0.8663 0.76549 0.0
O240 O 0.34376 0.87474 0.79111 0.0
C241 C 0.32406 0.91016 0.65339 0.0
O242 O 0.32368 0.89571 0.63069 0.0
O243 O 0.28711 0.86911 0.67519 0.0
O244 O 0.29084 0.84324 0.67465 0.0
H245 H 0.23483 0.86855 0.75948 0.0
H246 H 0.3533 0.8822 0.66701 0.0
O247 O 0.34189 0.85609 0.72992 0.0
H248 H 0.31894 0.84445 0.52596 0.0
H249 H 0.33145 0.79866 0.65482 0.0
H250 H 0.28176 0.81185 0.71702 0.0
H251 H 0.30447 0.83449 0.60517 0.0
H252 H 0.33866 0.83205 0.66714 0.0
O253 O 0.31617 0.9075 0.69391 0.0
H254 H 0.26009 0.86085 0.73881 0.0
H255 H 0.30327 0.91919 0.76001 0.0
H256 H 0.27389 0.77825 0.7049 0.0
H257 H 0.36842 0.89254 0.58849 0.0
H258 H 0.29884 0.77148 0.67358 0.0
H259 H 0.35118 0.87364 0.51725 0.0
O260 O 0.30445 0.8425 0.76661 0.0
H261 H 0.36361 0.92929 0.8165 0.0
H262 H 0.29425 0.88311 0.83473 0.0
H263 H 0.31364 0.89989 0.90497 0.0
H264 H 0.34858 0.92321 0.89608 0.0
H265 H 0.34373 0.91201 0.74725 0.0
H266 H 0.27847 0.92756 0.78051 0.0
H267 H 0.24396 0.90213 0.78051 0.0
O268 O 0.28862 0.85891 0.77105 0.0
C269 C 0.28237 0.85224 0.6608 0.0
C270 C 0.24981 0.87975 0.75974 0.0
C271 C 0.2743 0.91288 0.77149 0.0
N272 N 0.28313 0.88952 0.74855 0.0
C273 C 0.26418 0.87547 0.74819 0.0
C274 C 0.28828 0.90806 0.75975 0.0
C275 C 0.25495 0.8986 0.7715 0.0
C276 C 0.3458 0.87379 0.63624 0.0
N277 N 0.32805 0.85774 0.64073 0.0
C278 C 0.3544 0.87976 0.59184 0.0
C279 C 0.34469 0.86917 0.55188 0.0
C280 C 0.3266 0.85281 0.55673 0.0
C281 C 0.31844 0.84728 0.60169 0.0
C282 C 0.32044 0.80143 0.6684 0.0
C283 C 0.29266 0.80903 0.70314 0.0
C284 C 0.32445 0.8203 0.67555 0.0
N285 N 0.3106 0.8239 0.69249 0.0
C286 C 0.28814 0.78997 0.69646 0.0
C287 C 0.30214 0.78618 0.67893 0.0
C288 C 0.2919 0.84572 0.78557 0.0
C289 C 0.34839 0.9192 0.82081 0.0
C290 C 0.30946 0.89314 0.83058 0.0
C291 C 0.32036 0.90266 0.87048 0.0
C292 C 0.33996 0.91576 0.86546 0.0
N293 N 0.31785 0.8966 0.78689 0.0
C294 C 0.33705 0.90944 0.7817 0.0
Co295 Co 0.42701 0.29978 0.89894 0.0
Co296 Co 0.47382 0.31382 0.871 0.0
O297 O 0.45325 0.3198 0.88214 0.0
C298 C 0.42145 0.32147 0.82092 0.0
O299 O 0.43578 0.32146 0.79852 0.0
C300 C 0.49221 0.3485 0.93374 0.0
O301 O 0.47624 0.34158 0.95839 0.0
O302 O 0.46931 0.3016 0.93441 0.0
O303 O 0.43704 0.28566 0.93803 0.0
H304 H 0.50329 0.27138 0.87249 0.0
H305 H 0.43879 0.34069 0.91538 0.0
O306 O 0.41609 0.31334 0.86114 0.0
H307 H 0.42038 0.30988 0.07223 0.0
H308 H 0.358 0.27506 0.94614 0.0
H309 H 0.40675 0.25721 0.90469 0.0
H310 H 0.41818 0.29088 1.00156 0.0
H311 H 0.39125 0.30007 0.92668 0.0
O312 O 0.49333 0.33915 0.8987 0.0
H313 H 0.47749 0.27916 0.88451 0.0
H314 H 0.51432 0.33623 0.83598 0.0
H315 H 0.37372 0.23174 0.9243 0.0
H316 H 0.44097 0.36019 0.98506 0.0
H317 H 0.34908 0.24062 0.9452 0.0
H318 H 0.43179 0.34479 0.06421 0.0
O319 O 0.42566 0.28453 0.84196 0.0
H320 H 0.48375 0.36625 0.75774 0.0
H321 H 0.47794 0.30233 0.77302 0.0
H322 H 0.48267 0.31712 0.69416 0.0
H323 H 0.48566 0.34934 0.68615 0.0
H324 H 0.47874 0.35081 0.83589 0.0
H325 H 0.54057 0.3291 0.82378 0.0
H326 H 0.53511 0.29645 0.84192 0.0
O327 O 0.45531 0.28838 0.84196 0.0
C328 C 0.45348 0.28894 0.9529 0.0
C329 C 0.50583 0.28564 0.86433 0.0
C330 C 0.52676 0.31804 0.83705 0.0
N331 N 0.49434 0.30808 0.86065 0.0
C332 C 0.49126 0.29012 0.87096 0.0
C333 C 0.51185 0.322 0.84412 0.0
C334 C 0.52368 0.29972 0.84721 0.0
C335 C 0.43459 0.33385 0.94963 0.0
N336 N 0.42834 0.31467 0.95435 0.0
C337 C 0.43593 0.34498 0.98899 0.0
C338 C 0.43081 0.33634 0.0334 0.0
C339 C 0.42443 0.31676 0.03793 0.0
C340 C 0.42329 0.30609 0.9978 0.0
C341 C 0.36862 0.27101 0.93717 0.0
C342 C 0.39614 0.26118 0.91403 0.0
C343 C 0.38745 0.28511 0.92602 0.0
N344 N 0.40096 0.2801 0.91489 0.0
C345 C 0.37744 0.2467 0.92498 0.0
C346 C 0.36362 0.25169 0.93666 0.0
C347 C 0.43789 0.27993 0.82763 0.0
C348 C 0.48252 0.35223 0.76078 0.0
C349 C 0.4791 0.3163 0.76984 0.0
C350 C 0.48185 0.32463 0.72508 0.0
C351 C 0.48355 0.34272 0.72062 0.0
N352 N 0.47809 0.32571 0.80907 0.0
C353 C 0.47978 0.34346 0.80498 0.0
Co354 Co 0.54638 0.8504 0.91013 0.0
Co355 Co 0.59293 0.88409 0.88447 0.0
O356 O 0.56657 0.8773 0.90139 0.0
C357 C 0.52758 0.867 0.85054 0.0
O358 O 0.54328 0.87575 0.82484 0.0
C359 C 0.59804 0.91074 0.9637 0.0
O360 O 0.5839 0.89616 0.98592 0.0
O361 O 0.59428 0.86996 0.94095 0.0
O362 O 0.56528 0.8433 0.9361 0.0
H363 H 0.64698 0.87059 0.85786 0.0
H364 H 0.54073 0.88123 0.95101 0.0
O365 O 0.52662 0.85643 0.88518 0.0
H366 H 0.53802 0.84129 0.08655 0.0
H367 H 0.48003 0.79728 0.95454 0.0
H368 H 0.54339 0.81265 0.89091 0.0
H369 H 0.54284 0.83302 0.00568 0.0
H370 H 0.50589 0.83104 0.94548 0.0
O371 O 0.60342 0.9083 0.92315 0.0
H372 H 0.61376 0.86238 0.87753 0.0
H373 H 0.62843 0.92064 0.85802 0.0
H374 H 0.51797 0.7787 0.89969 0.0
H375 H 0.5356 0.88987 0.03126 0.0
H376 H 0.48601 0.77084 0.93171 0.0
H377 H 0.5343 0.86987 0.09974 0.0
O378 O 0.55106 0.84414 0.8453 0.0
H379 H 0.5779 0.93017 0.80044 0.0
H380 H 0.60222 0.88497 0.78183 0.0
H381 H 0.59979 0.90199 0.71192 0.0
H382 H 0.5876 0.92482 0.721 0.0
H383 H 0.58035 0.91267 0.86934 0.0
H384 H 0.66184 0.92952 0.83856 0.0
H385 H 0.67128 0.90438 0.83821 0.0
O386 O 0.58334 0.86021 0.84429 0.0
C387 C 0.5824 0.8526 0.95227 0.0
C388 C 0.64303 0.88167 0.85777 0.0
C389 C 0.65138 0.91474 0.84699 0.0
N390 N 0.61913 0.89098 0.86861 0.0
C391 C 0.62423 0.87709 0.86876 0.0
C392 C 0.63245 0.90964 0.85816 0.0
C393 C 0.65666 0.90063 0.84679 0.0
C394 C 0.53996 0.87233 0.98056 0.0
N395 N 0.54204 0.85662 0.97361 0.0
C396 C 0.53714 0.87735 0.02595 0.0
C397 C 0.53645 0.86614 0.06437 0.0
C398 C 0.53856 0.85012 0.057 0.0
C399 C 0.54136 0.84555 0.01112 0.0
C400 C 0.4939 0.80053 0.94061 0.0
C401 C 0.52956 0.80935 0.9051 0.0
C402 C 0.50859 0.81961 0.9353 0.0
N403 N 0.52618 0.82382 0.91794 0.0
C404 C 0.5152 0.7901 0.90989 0.0
C405 C 0.49727 0.78569 0.92781 0.0
C406 C 0.56706 0.84742 0.82768 0.0
C407 C 0.58328 0.9203 0.79605 0.0
C408 C 0.59679 0.89479 0.78605 0.0
C409 C 0.59551 0.90444 0.74634 0.0
C410 C 0.58869 0.91726 0.75147 0.0
N411 N 0.59146 0.89784 0.82966 0.0
C412 C 0.58478 0.91041 0.83496 0.0
Co413 Co 0.70407 0.54329 0.08225 0.0
Co414 Co 0.71804 0.58984 0.0517 0.0
O415 O 0.69813 0.56381 0.07018 0.0
C416 C 0.66936 0.52457 0.01988 0.0
O417 O 0.67664 0.54021 0.99387 0.0
C418 C 0.69727 0.59623 0.13041 0.0
O419 O 0.69767 0.58224 0.15342 0.0
O420 O 0.73379 0.5917 0.10809 0.0
O421 O 0.72968 0.56197 0.11027 0.0
H422 H 0.7859 0.64278 0.02197 0.0
H423 H 0.66732 0.53889 0.11776 0.0
O424 O 0.67854 0.52368 0.05559 0.0
H425 H 0.7016 0.53597 0.25949 0.0
H426 H 0.68869 0.47688 0.13266 0.0
H427 H 0.73857 0.53933 0.06881 0.0
H428 H 0.71597 0.53991 0.18033 0.0
H429 H 0.68166 0.50312 0.11925 0.0
O430 O 0.70484 0.60112 0.08949 0.0
H431 H 0.76058 0.60997 0.04377 0.0
H432 H 0.71757 0.62534 0.02249 0.0
H433 H 0.74626 0.51352 0.08199 0.0
H434 H 0.65229 0.53467 0.19623 0.0
H435 H 0.72121 0.48202 0.11414 0.0
H436 H 0.6695 0.53327 0.26782 0.0
O437 O 0.716 0.5472 0.01857 0.0
H438 H 0.65686 0.57502 0.96808 0.0
H439 H 0.72606 0.59768 0.94847 0.0
H440 H 0.70643 0.59477 0.8785 0.0
H441 H 0.67158 0.58342 0.88808 0.0
H442 H 0.67698 0.57792 0.03705 0.0
H443 H 0.74243 0.65836 1.00085 0.0
H444 H 0.77688 0.66724 1.00032 0.0
O445 O 0.73179 0.5794 0.01266 0.0
C446 C 0.73836 0.57956 0.12324 0.0
C447 C 0.77094 0.63907 0.02193 0.0
C448 C 0.74654 0.64782 0.01013 0.0
N449 N 0.73761 0.61571 0.03404 0.0
C450 C 0.75653 0.6205 0.03412 0.0
C451 C 0.73253 0.62911 0.02251 0.0
C452 C 0.76587 0.65279 0.00983 0.0
C453 C 0.6748 0.53807 0.14869 0.0
N454 N 0.69248 0.5396 0.14442 0.0
C455 C 0.66626 0.53577 0.19305 0.0
C456 C 0.67594 0.53503 0.23321 0.0
C457 C 0.69395 0.53656 0.22857 0.0
C458 C 0.70206 0.53887 0.18364 0.0
C459 C 0.69973 0.49055 0.11871 0.0
C460 C 0.72763 0.52569 0.08304 0.0
C461 C 0.69583 0.50545 0.11095 0.0
N462 N 0.70974 0.52278 0.09354 0.0
C463 C 0.73205 0.51112 0.09033 0.0
C464 C 0.71798 0.49345 0.10833 0.0
C465 C 0.72847 0.56283 0.99891 0.0
C466 C 0.67204 0.58003 0.96347 0.0
C467 C 0.71088 0.59262 0.95292 0.0
C468 C 0.69985 0.59107 0.91317 0.0
C469 C 0.6803 0.58472 0.91858 0.0
N470 N 0.70268 0.588 0.99684 0.0
C471 C 0.68352 0.58178 1.00242 0.0
Co472 Co 0.13452 0.71437 0.21955 0.0
Co473 Co 0.16752 0.70099 0.24966 0.0
O474 O 0.14093 0.69468 0.2378 0.0
C475 C 0.10724 0.69368 0.29836 0.0
O476 O 0.12191 0.69547 0.32309 0.0
C477 C 0.15182 0.66628 0.18755 0.0
O478 O 0.14326 0.67337 0.16166 0.0
O479 O 0.17528 0.71282 0.18585 0.0
O480 O 0.15883 0.72859 0.181 0.0
H481 H 0.23943 0.74387 0.24848 0.0
H482 H 0.10584 0.67324 0.2037 0.0
O483 O 0.10989 0.70056 0.25665 0.0
H484 H 0.11855 0.70336 0.04596 0.0
H485 H 0.08973 0.73796 0.16877 0.0
H486 H 0.15642 0.75693 0.2127 0.0
H487 H 0.1349 0.72277 0.1165 0.0
H488 H 0.09832 0.71338 0.18998 0.0
O489 O 0.16186 0.67553 0.22325 0.0
H490 H 0.20578 0.73576 0.23562 0.0
H491 H 0.18579 0.67909 0.28671 0.0
H492 H 0.1485 0.78197 0.19136 0.0
H493 H 0.08897 0.65334 0.13414 0.0
H494 H 0.11494 0.77253 0.1692 0.0
H495 H 0.09535 0.66839 0.05454 0.0
O496 O 0.14815 0.72999 0.2764 0.0
H497 H 0.12471 0.64947 0.36454 0.0
H498 H 0.18304 0.71318 0.34747 0.0
H499 H 0.17281 0.69899 0.42688 0.0
H500 H 0.14347 0.66689 0.43579 0.0
H501 H 0.13534 0.66428 0.2858 0.0
H502 H 0.21924 0.68655 0.29978 0.0
H503 H 0.24633 0.71917 0.28079 0.0
O504 O 0.17421 0.72657 0.27737 0.0
C505 C 0.17208 0.72535 0.16671 0.0
C506 C 0.22775 0.72963 0.25704 0.0
C507 C 0.21641 0.69745 0.28577 0.0
N508 N 0.19383 0.70702 0.26073 0.0
C509 C 0.20866 0.72496 0.24994 0.0
C510 C 0.19751 0.69329 0.2782 0.0
C511 C 0.23161 0.71575 0.27512 0.0
C512 C 0.10854 0.67993 0.16924 0.0
N513 N 0.12131 0.69915 0.16421 0.0
C514 C 0.09901 0.66857 0.12996 0.0
C515 C 0.10262 0.67702 0.0853 0.0
C516 C 0.11565 0.69663 0.08045 0.0
C517 C 0.12493 0.70754 0.12052 0.0
C518 C 0.10441 0.74225 0.17829 0.0
C519 C 0.14181 0.7527 0.20284 0.0
C520 C 0.10935 0.7284 0.19044 0.0
N521 N 0.12788 0.73371 0.20226 0.0
C522 C 0.1374 0.76695 0.19091 0.0
C523 C 0.11856 0.76164 0.17852 0.0
C524 C 0.16504 0.7349 0.291 0.0
C525 C 0.13755 0.66344 0.3611 0.0
C526 C 0.17021 0.69924 0.35104 0.0
C527 C 0.16452 0.69125 0.3961 0.0
C528 C 0.14807 0.67323 0.40107 0.0
N529 N 0.15982 0.68953 0.31199 0.0
C530 C 0.14368 0.67186 0.31659 0.0
Co531 Co 0.47294 0.16323 0.41456 0.0
Co532 Co 0.42617 0.13063 0.38612 0.0
O533 O 0.45229 0.13673 0.4035 0.0
C534 C 0.49122 0.14676 0.3524 0.0
O535 O 0.47549 0.13834 0.32672 0.0
C536 C 0.42037 0.10352 0.46456 0.0
O537 O 0.43449 0.11798 0.48719 0.0
O538 O 0.42478 0.14465 0.44282 0.0
O539 O 0.45448 0.17041 0.4427 0.0
H540 H 0.37316 0.14562 0.35901 0.0
H541 H 0.47745 0.13107 0.4509 0.0
O542 O 0.49233 0.15708 0.38777 0.0
H543 H 0.48126 0.16919 0.59151 0.0
H544 H 0.53971 0.21447 0.46242 0.0
H545 H 0.47698 0.20167 0.39997 0.0
H546 H 0.47688 0.17913 0.51215 0.0
H547 H 0.51331 0.18115 0.45039 0.0
O548 O 0.41511 0.10617 0.42407 0.0
H549 H 0.4061 0.15309 0.37936 0.0
H550 H 0.39038 0.09461 0.35824 0.0
H551 H 0.50294 0.23521 0.41179 0.0
H552 H 0.48211 0.12076 0.52957 0.0
H553 H 0.53458 0.24179 0.44322 0.0
H554 H 0.48396 0.13984 0.6006 0.0
O555 O 0.46868 0.17086 0.35079 0.0
H556 H 0.44024 0.08404 0.30111 0.0
H557 H 0.41756 0.13059 0.2833 0.0
H558 H 0.41989 0.11371 0.21297 0.0
H559 H 0.43126 0.0902 0.22164 0.0
H560 H 0.43791 0.10143 0.37045 0.0
H561 H 0.35723 0.08648 0.33805 0.0
H562 H 0.34846 0.11211 0.33817 0.0
O563 O 0.43641 0.15477 0.34683 0.0
C564 C 0.43705 0.16152 0.45695 0.0
C565 C 0.37682 0.13434 0.35869 0.0
C566 C 0.36787 0.10114 0.34699 0.0
N567 N 0.40019 0.12434 0.36964 0.0
C568 C 0.39545 0.13849 0.37007 0.0
C569 C 0.38665 0.10583 0.35855 0.0
C570 C 0.36296 0.11553 0.34705 0.0
C571 C 0.47846 0.13957 0.48157 0.0
N572 N 0.47693 0.1557 0.47688 0.0
C573 C 0.48101 0.13361 0.52606 0.0
C574 C 0.48201 0.1443 0.5659 0.0
C575 C 0.48047 0.16075 0.56084 0.0
C576 C 0.47792 0.16627 0.5158 0.0
C577 C 0.52598 0.21179 0.44877 0.0
C578 C 0.49067 0.20441 0.41389 0.0
C579 C 0.51098 0.19295 0.44179 0.0
N580 N 0.49357 0.18946 0.42477 0.0
C581 C 0.50533 0.22344 0.42041 0.0
C582 C 0.52309 0.22711 0.43801 0.0
C583 C 0.45293 0.1678 0.33203 0.0
C584 C 0.43522 0.09422 0.29689 0.0
C585 C 0.42263 0.12048 0.28736 0.0
C586 C 0.42385 0.11091 0.24741 0.0
C587 C 0.43021 0.0977 0.2523 0.0
N588 N 0.42757 0.11698 0.33098 0.0
C589 C 0.43379 0.10404 0.33606 0.0
Co590 Co 0.31608 0.47037 0.58817 0.0
Co591 Co 0.3027 0.42411 0.55699 0.0
O592 O 0.32239 0.45016 0.57572 0.0
C593 C 0.35022 0.49006 0.52452 0.0
O594 O 0.34213 0.4753 0.49554 0.0
C595 C 0.32406 0.41797 0.63476 0.0
O596 O 0.32348 0.43178 0.65823 0.0
O597 O 0.28703 0.42193 0.61384 0.0
O598 O 0.29043 0.45139 0.61545 0.0
H599 H 0.23507 0.3706 0.5276 0.0
H600 H 0.35294 0.4752 0.62427 0.0
O601 O 0.34164 0.49015 0.5623 0.0
H602 H 0.31786 0.47703 0.76556 0.0
H603 H 0.33066 0.5364 0.63989 0.0
H604 H 0.28138 0.47398 0.57439 0.0
H605 H 0.30368 0.47312 0.68615 0.0
H606 H 0.33805 0.51043 0.62608 0.0
O607 O 0.31633 0.41304 0.59399 0.0
H608 H 0.26014 0.40349 0.54967 0.0
H609 H 0.30366 0.38896 0.52673 0.0
H610 H 0.27333 0.49951 0.58798 0.0
H611 H 0.36777 0.4794 0.703 0.0
H612 H 0.29808 0.53099 0.62096 0.0
H613 H 0.35016 0.48026 0.77436 0.0
O614 O 0.3043 0.46654 0.52434 0.0
H615 H 0.36402 0.44066 0.47173 0.0
H616 H 0.2944 0.41619 0.45387 0.0
H617 H 0.31398 0.41976 0.38331 0.0
H618 H 0.34905 0.43203 0.392 0.0
H619 H 0.34393 0.43704 0.54132 0.0
H620 H 0.27906 0.35587 0.5048 0.0
H621 H 0.24449 0.34653 0.50496 0.0
O622 O 0.28858 0.43433 0.51861 0.0
C623 C 0.2821 0.43385 0.62871 0.0
C624 C 0.25009 0.37451 0.52725 0.0
C625 C 0.27478 0.36623 0.51451 0.0
N626 N 0.28334 0.39818 0.53914 0.0
C627 C 0.26435 0.39312 0.5396 0.0
C628 C 0.28864 0.38498 0.52707 0.0
C629 C 0.25539 0.36101 0.5146 0.0
C630 C 0.34528 0.47577 0.6551 0.0
N631 N 0.32748 0.47395 0.65056 0.0
C632 C 0.35371 0.47806 0.69961 0.0
C633 C 0.34381 0.4785 0.73964 0.0
C634 C 0.32568 0.47667 0.73473 0.0
C635 C 0.31768 0.47438 0.68967 0.0
C636 C 0.31975 0.52274 0.62558 0.0
C637 C 0.29219 0.48761 0.58899 0.0
C638 C 0.32386 0.50799 0.61758 0.0
N639 N 0.31012 0.49066 0.59974 0.0
C640 C 0.28757 0.50202 0.5965 0.0
C641 C 0.30146 0.51969 0.61496 0.0
C642 C 0.29185 0.45088 0.50474 0.0
C643 C 0.34875 0.43524 0.4675 0.0
C644 C 0.30966 0.42161 0.45794 0.0
C645 C 0.32067 0.42355 0.41786 0.0
C646 C 0.34034 0.43043 0.42277 0.0
N647 N 0.31801 0.42634 0.50171 0.0
C648 C 0.33729 0.43309 0.5068 0.0
Co649 Co 0.88817 0.29686 0.71881 0.0
Co650 Co 0.85941 0.3162 0.74006 0.0
O651 O 0.88471 0.31899 0.72976 0.0
C652 C 0.91623 0.31872 0.7948 0.0
O653 O 0.90197 0.31865 0.81778 0.0
C654 C 0.8603 0.34514 0.6736 0.0
O655 O 0.84488 0.33102 0.65376 0.0
O656 O 0.85052 0.30224 0.67875 0.0
O657 O 0.86337 0.283 0.68189 0.0
H658 H 0.78706 0.2804 0.7402 0.0
H659 H 0.91931 0.33607 0.69338 0.0
O660 O 0.91313 0.31031 0.75484 0.0
H661 H 0.90305 0.2987 0.54524 0.0
H662 H 0.92719 0.26501 0.68316 0.0
H663 H 0.86271 0.25448 0.72246 0.0
H664 H 0.88612 0.28343 0.61942 0.0
H665 H 0.92204 0.29258 0.69482 0.0
O666 O 0.86863 0.34156 0.70729 0.0
H667 H 0.81929 0.2842 0.72918 0.0
H668 H 0.84551 0.34285 0.77075 0.0
H669 H 0.86719 0.2265 0.71075 0.0
H670 H 0.93673 0.35187 0.62006 0.0
H671 H 0.89962 0.23169 0.69095 0.0
H672 H 0.92861 0.33314 0.54529 0.0
O673 O 0.87397 0.28452 0.77807 0.0
H674 H 0.90652 0.36931 0.84579 0.0
H675 H 0.84407 0.30893 0.83888 0.0
H676 H 0.8559 0.32549 0.91532 0.0
H677 H 0.88732 0.35595 0.9191 0.0
H678 H 0.89427 0.35215 0.77015 0.0
H679 H 0.81357 0.3397 0.78208 0.0
H680 H 0.78406 0.30828 0.76682 0.0
O681 O 0.8499 0.29105 0.77395 0.0
C682 C 0.85166 0.28778 0.66439 0.0
C683 C 0.79981 0.29415 0.74702 0.0
C684 C 0.81469 0.32743 0.77052 0.0
N685 N 0.83426 0.3137 0.74945 0.0
C686 C 0.8181 0.29639 0.74088 0.0
C687 C 0.83273 0.32913 0.76405 0.0
C688 C 0.79814 0.3098 0.76195 0.0
C689 C 0.91578 0.3278 0.66104 0.0
N690 N 0.9018 0.30884 0.66075 0.0
C691 C 0.92566 0.33684 0.61961 0.0
C692 C 0.92108 0.32633 0.57766 0.0
C693 C 0.90674 0.307 0.5776 0.0
C694 C 0.89717 0.29845 0.6197 0.0
C695 C 0.91298 0.26257 0.69168 0.0
C696 C 0.87684 0.25685 0.71355 0.0
C697 C 0.90999 0.27812 0.69842 0.0
N698 N 0.89206 0.27513 0.70894 0.0
C699 C 0.8793 0.24095 0.7071 0.0
C700 C 0.89751 0.24387 0.69604 0.0
C701 C 0.85758 0.28177 0.79128 0.0
C702 C 0.89278 0.35609 0.84456 0.0
C703 C 0.8578 0.32212 0.84022 0.0
C704 C 0.8644 0.33147 0.88361 0.0
C705 C 0.88202 0.34856 0.8857 0.0
N706 N 0.86843 0.3296 0.79998 0.0
C707 C 0.88572 0.34636 0.80179 0.0
H708 H 0.17089 0.42148 0.17275 0.0
H709 H 0.19176 0.42283 0.23728 0.0
H710 H 0.22377 0.48474 0.22767 0.0
H711 H 0.2029 0.48361 0.16308 0.0
H712 H 0.23239 0.43898 0.2349 0.0
H713 H 0.21027 0.47458 0.36966 0.0
H714 H 0.19617 0.46334 0.3173 0.0
H715 H 0.21752 0.48658 0.31347 0.0
C716 C 0.18228 0.43543 0.1844 0.0
C717 C 0.1851 0.45245 0.16265 0.0
C718 C 0.19423 0.43616 0.22134 0.0
C719 C 0.20919 0.45388 0.23771 0.0
C720 C 0.21211 0.47091 0.21618 0.0
H721 H 0.29421 0.48294 0.46291 0.0
H722 H 0.27497 0.48408 0.3971 0.0
C723 C 0.20019 0.47022 0.17908 0.0
C724 C 0.22202 0.45441 0.27638 0.0
H725 H 0.2359 0.46941 0.39012 0.0
C726 C 0.23315 0.44562 0.26887 0.0
C727 C 0.22309 0.46318 0.32058 0.0
C728 C 0.21104 0.47234 0.33112 0.0
C729 C 0.2454 0.44543 0.30418 0.0
C730 C 0.24623 0.4539 0.34872 0.0
C731 C 0.23526 0.46291 0.35604 0.0
C732 C 0.25805 0.45318 0.38847 0.0
C733 C 0.25758 0.43645 0.29309 0.0
C734 C 0.2548 0.43543 0.40603 0.0
C735 C 0.26582 0.43471 0.44347 0.0
C736 C 0.28027 0.45175 0.46466 0.0
C737 C 0.28331 0.46953 0.4474 0.0
C738 C 0.27229 0.47022 0.40979 0.0
H739 H 0.25966 0.43593 0.25438 0.0
H740 H 0.27194 0.44451 0.31022 0.0
H741 H 0.25025 0.42145 0.30653 0.0
H742 H 0.24358 0.42207 0.39102 0.0
H743 H 0.2629 0.42074 0.45595 0.0
H744 H 0.84081 0.29918 0.5849 0.0
H745 H 0.81959 0.27877 0.52159 0.0
H746 H 0.8103 0.22818 0.59783 0.0
H747 H 0.83277 0.2487 0.65901 0.0
H748 H 0.81355 0.22216 0.51363 0.0
H749 H 0.76361 0.25062 0.51323 0.0
H750 H 0.78754 0.26952 0.50051 0.0
H751 H 0.78214 0.25768 0.55733 0.0
C752 C 0.83415 0.28369 0.58804 0.0
C753 C 0.83834 0.27549 0.62685 0.0
C754 C 0.82183 0.27198 0.55207 0.0
C755 C 0.81276 0.25178 0.55519 0.0
C756 C 0.81697 0.24366 0.5943 0.0
H757 H 0.71634 0.17808 0.36827 0.0
H758 H 0.7366 0.19742 0.43432 0.0
C759 C 0.8298 0.25539 0.62939 0.0
C760 C 0.79954 0.2391 0.51705 0.0
H761 H 0.76195 0.23171 0.44596 0.0
C762 C 0.80212 0.22416 0.49934 0.0
C763 C 0.78428 0.24127 0.49861 0.0
C764 C 0.77909 0.2555 0.51884 0.0
C765 C 0.79017 0.21159 0.46381 0.0
C766 C 0.77584 0.21467 0.44298 0.0
C767 C 0.77307 0.22943 0.46109 0.0
C768 C 0.76347 0.20269 0.40285 0.0
C769 C 0.79275 0.1948 0.45043 0.0
C770 C 0.77165 0.19928 0.36262 0.0
C771 C 0.76 0.18766 0.32574 0.0
C772 C 0.73996 0.1799 0.32721 0.0
C773 C 0.73176 0.1839 0.36633 0.0
C774 C 0.74337 0.195 0.40402 0.0
H775 H 0.79878 0.19049 0.48033 0.0
H776 H 0.77892 0.18208 0.43962 0.0
H777 H 0.80311 0.19906 0.42068 0.0
H778 H 0.7871 0.20566 0.3595 0.0
H779 H 0.7667 0.18506 0.29554 0.0
H780 H 0.53881 0.72417 0.49611 0.0
H781 H 0.53776 0.74479 0.55838 0.0
H782 H 0.59979 0.7776 0.56042 0.0
H783 H 0.60106 0.75726 0.49793 0.0
H784 H 0.55337 0.75181 0.64975 0.0
H785 H 0.58503 0.81926 0.54493 0.0
H786 H 0.5761 0.79591 0.51802 0.0
H787 H 0.59939 0.80784 0.54582 0.0
C788 C 0.55226 0.73576 0.50972 0.0
C789 C 0.57003 0.73902 0.49174 0.0
C790 C 0.55161 0.74755 0.54536 0.0
C791 C 0.56868 0.76293 0.56358 0.0
C792 C 0.58642 0.76608 0.54624 0.0
H793 H 0.59798 0.84965 0.78041 0.0
H794 H 0.59771 0.82889 0.71686 0.0
C795 C 0.58711 0.75431 0.51063 0.0
C796 C 0.56794 0.77548 0.6013 0.0
H797 H 0.58129 0.82213 0.62735 0.0
C798 C 0.55935 0.76716 0.64478 0.0
C799 C 0.57578 0.79553 0.5948 0.0
C800 C 0.58444 0.80518 0.54825 0.0
C801 C 0.55882 0.7784 0.6823 0.0
C802 C 0.56675 0.79847 0.67588 0.0
C803 C 0.57523 0.80676 0.63228 0.0
C804 C 0.56668 0.81117 0.71416 0.0
C805 C 0.55025 0.76876 0.72892 0.0
C806 C 0.54931 0.80834 0.73336 0.0
C807 C 0.54938 0.82019 0.76984 0.0
C808 C 0.56686 0.83523 0.78773 0.0
C809 C 0.58423 0.83823 0.76772 0.0
C810 C 0.58412 0.82636 0.73129 0.0
H811 H 0.54936 0.75453 0.73188 0.0
H812 H 0.55885 0.77791 0.75905 0.0
H813 H 0.53543 0.76642 0.73194 0.0
H814 H 0.53565 0.79697 0.72006 0.0
H815 H 0.53572 0.81747 0.78418 0.0
H816 H 0.81877 0.53161 0.65815 0.0
H817 H 0.7975 0.53032 0.722 0.0
H818 H 0.82889 0.59225 0.73107 0.0
H819 H 0.85012 0.59377 0.66735 0.0
H820 H 0.8071 0.54517 0.8162 0.0
H821 H 0.77247 0.57903 0.71532 0.0
H822 H 0.78601 0.56938 0.68703 0.0
H823 H 0.79832 0.59255 0.71527 0.0
C824 C 0.82118 0.54498 0.67369 0.0
C825 C 0.83617 0.5628 0.65729 0.0
C826 C 0.809 0.5442 0.71022 0.0
C827 C 0.81142 0.56119 0.73082 0.0
C828 C 0.82651 0.57896 0.7151 0.0
H829 H 0.75729 0.59289 0.94967 0.0
H830 H 0.77686 0.59148 0.88544 0.0
C831 C 0.83872 0.57977 0.67874 0.0
C832 C 0.79833 0.56042 0.76911 0.0
H833 H 0.7662 0.57498 0.79782 0.0
C834 C 0.79804 0.55155 0.81213 0.0
C835 C 0.78653 0.56877 0.76374 0.0
C836 C 0.78565 0.57783 0.71774 0.0
C837 C 0.78671 0.55132 0.85043 0.0
C838 C 0.77503 0.55984 0.8452 0.0
C839 C 0.77516 0.56849 0.8019 0.0
C840 C 0.76295 0.5604 0.88448 0.0
C841 C 0.78788 0.54254 0.89662 0.0
C842 C 0.74838 0.54337 0.9051 0.0
C843 C 0.73714 0.5441 0.94212 0.0
C844 C 0.74011 0.5619 0.95905 0.0
C845 C 0.75454 0.57891 0.93776 0.0
C846 C 0.76578 0.57815 0.9009 0.0
H847 H 0.80103 0.54127 0.89864 0.0
H848 H 0.78783 0.55123 0.92713 0.0
H849 H 0.77519 0.52787 0.89986 0.0
H850 H 0.74561 0.52949 0.89237 0.0
H851 H 0.72613 0.5307 0.95741 0.0
H852 H 0.29372 0.81569 0.82724 0.0
H853 H 0.27358 0.79473 0.89124 0.0
H854 H 0.24325 0.82636 0.89829 0.0
H855 H 0.26314 0.8473 0.83431 0.0
H856 H 0.26834 0.80456 0.98466 0.0
H857 H 0.19977 0.77011 0.88379 0.0
H858 H 0.22297 0.78352 0.85547 0.0
H859 H 0.21224 0.79596 0.88361 0.0
C860 C 0.28278 0.81823 0.84235 0.0
C861 C 0.28006 0.8332 0.8253 0.0
C862 C 0.27127 0.80621 0.87898 0.0
C863 C 0.25671 0.80878 0.89909 0.0
C864 C 0.25415 0.82386 0.88272 0.0
H865 H 0.17069 0.75425 0.1183 0.0
H866 H 0.19163 0.77409 0.05428 0.0
C867 C 0.26564 0.83591 0.84622 0.0
C868 C 0.24431 0.79585 0.93753 0.0
H869 H 0.19756 0.76379 0.96621 0.0
C870 C 0.25288 0.79554 0.98058 0.0
C871 C 0.22414 0.78411 0.93217 0.0
C872 C 0.2142 0.78325 0.88616 0.0
C873 C 0.24176 0.78421 0.01884 0.0
C874 C 0.22155 0.77254 0.01357 0.0
C875 C 0.21303 0.77274 0.97032 0.0
C876 C 0.20891 0.76031 0.05271 0.0
C877 C 0.2517 0.78533 0.06502 0.0
C878 C 0.21144 0.74572 0.07288 0.0
C879 C 0.19949 0.73433 0.10975 0.0
C880 C 0.18462 0.73716 0.12699 0.0
C881 C 0.18197 0.75162 0.10614 0.0
C882 C 0.19394 0.763 0.06941 0.0
H883 H 0.26611 0.79851 0.06718 0.0
H884 H 0.24293 0.78516 0.09557 0.0
H885 H 0.25376 0.77268 0.06804 0.0
H886 H 0.22259 0.74305 0.05992 0.0
H887 H 0.20194 0.72331 0.12469 0.0
H888 H 0.42266 0.16651 0.28354 0.0
H889 H 0.42387 0.18744 0.21931 0.0
H890 H 0.48587 0.21869 0.2263 0.0
H891 H 0.48488 0.19774 0.29042 0.0
H892 H 0.44007 0.22772 0.22087 0.0
H893 H 0.47514 0.20553 0.08501 0.0
H894 H 0.46431 0.1916 0.1378 0.0
H895 H 0.48762 0.21293 0.14058 0.0
C896 C 0.4366 0.17774 0.27134 0.0
C897 C 0.45369 0.18032 0.29219 0.0
C898 C 0.43724 0.18973 0.23458 0.0
C899 C 0.45495 0.20449 0.21753 0.0
C900 C 0.47204 0.20717 0.23824 0.0
H901 H 0.4852 0.2908 0.99557 0.0
H902 H 0.4858 0.271 0.06067 0.0
C903 C 0.47143 0.1952 0.2751 0.0
C904 C 0.45544 0.21738 0.17902 0.0
H905 H 0.47067 0.23172 0.06564 0.0
C906 C 0.44673 0.22857 0.18689 0.0
C907 C 0.46421 0.21856 0.13476 0.0
C908 C 0.47323 0.20642 0.12367 0.0
C909 C 0.44669 0.24102 0.15194 0.0
C910 C 0.45525 0.24203 0.10743 0.0
C911 C 0.46411 0.23096 0.09971 0.0
C912 C 0.45484 0.2542 0.06816 0.0
C913 C 0.43779 0.25324 0.1634 0.0
C914 C 0.43723 0.25123 0.0502 0.0
C915 C 0.43681 0.26256 0.01312 0.0
C916 C 0.45402 0.27707 0.99274 0.0
C917 C 0.47165 0.27986 0.01046 0.0
C918 C 0.47204 0.26852 0.04767 0.0
H919 H 0.43706 0.25503 0.20218 0.0
H920 H 0.44605 0.26772 0.147 0.0
H921 H 0.42287 0.24614 0.14939 0.0
H922 H 0.42375 0.23998 0.06457 0.0
H923 H 0.42294 0.25982 1.00027 0.0
H924 H 0.17497 0.52679 0.06825 0.0
H925 H 0.17152 0.55475 0.08414 0.0
H926 H 0.12132 0.51973 0.16953 0.0
H927 H 0.12516 0.49167 0.15511 0.0
H928 H 0.14378 0.56196 0.06266 0.0
H929 H 0.15155 0.56372 0.25795 0.0
H930 H 0.15649 0.5484 0.22095 0.0
H931 H 0.13206 0.54156 0.23568 0.0
C932 C 0.16324 0.52501 0.09068 0.0
C933 C 0.15039 0.50701 0.11067 0.0
C934 C 0.16125 0.54104 0.09964 0.0
C935 C 0.1463 0.53947 0.12849 0.0
C936 C 0.13327 0.52145 0.14811 0.0
H937 H 0.12413 0.63702 0.13353 0.0
H938 H 0.12054 0.60523 0.11888 0.0
C939 C 0.13542 0.50539 0.13969 0.0
C940 C 0.14448 0.55681 0.13718 0.0
H941 H 0.14463 0.58644 0.2241 0.0
C942 C 0.14391 0.56729 0.09799 0.0
C943 C 0.14479 0.56385 0.18326 0.0
C944 C 0.14643 0.55393 0.22688 0.0
C945 C 0.14416 0.58483 0.10347 0.0
C946 C 0.14435 0.59182 0.14956 0.0
C947 C 0.14439 0.58106 0.18877 0.0
C948 C 0.14606 0.61093 0.15817 0.0
C949 C 0.14513 0.59608 0.05977 0.0
C950 C 0.16126 0.62456 0.18607 0.0
C951 C 0.1631 0.64249 0.19519 0.0
C952 C 0.14987 0.64735 0.17628 0.0
C953 C 0.13468 0.63378 0.1481 0.0
C954 C 0.13267 0.61564 0.13955 0.0
H955 H 0.14994 0.5913 0.02833 0.0
H956 H 0.13058 0.59384 0.05204 0.0
H957 H 0.15511 0.61172 0.06496 0.0
H958 H 0.17181 0.62134 0.20079 0.0
H959 H 0.17501 0.65262 0.21694 0.0
H960 H 0.65375 0.16958 0.24562 0.0
H961 H 0.62208 0.16557 0.26048 0.0
H962 H 0.60512 0.11217 0.33321 0.0
H963 H 0.63728 0.11644 0.31964 0.0
H964 H 0.58759 0.13818 0.23118 0.0
H965 H 0.58929 0.13918 0.42765 0.0
H966 H 0.61044 0.14572 0.39248 0.0
H967 H 0.59272 0.12079 0.40106 0.0
C968 C 0.64336 0.15701 0.26508 0.0
C969 C 0.64807 0.14335 0.2816 0.0
C970 C 0.6252 0.15472 0.27345 0.0
C971 C 0.6112 0.13865 0.29827 0.0
C972 C 0.61579 0.12489 0.31482 0.0
H973 H 0.49227 0.11928 0.29624 0.0
H974 H 0.51989 0.11463 0.28247 0.0
C975 C 0.63415 0.12731 0.30693 0.0
C976 C 0.59185 0.1365 0.30583 0.0
H977 H 0.5609 0.13466 0.39132 0.0
C978 C 0.58168 0.13729 0.2662 0.0
C979 C 0.5842 0.13544 0.35154 0.0
C980 C 0.59476 0.1354 0.39569 0.0
C981 C 0.56447 0.13773 0.27101 0.0
C982 C 0.55687 0.13677 0.31673 0.0
C983 C 0.56669 0.13531 0.35627 0.0
C984 C 0.53979 0.13906 0.32485 0.0
C985 C 0.55516 0.14019 0.22721 0.0
C986 C 0.54162 0.15404 0.35399 0.0
C987 C 0.52587 0.15654 0.36241 0.0
C988 C 0.50787 0.14417 0.34167 0.0
C989 C 0.506 0.12918 0.31228 0.0
C990 C 0.52179 0.12654 0.30428 0.0
H991 H 0.56518 0.14529 0.19659 0.0
H992 H 0.54252 0.12613 0.21752 0.0
H993 H 0.5501 0.1506 0.2335 0.0
H994 H 0.55533 0.16392 0.37016 0.0
H995 H 0.52787 0.16827 0.38513 0.0
H996 H 0.37424 0.49556 0.44915 0.0
H997 H 0.40594 0.52385 0.4334 0.0
H998 H 0.40092 0.55094 0.56008 0.0
H999 H 0.3697 0.52292 0.57644 0.0
H1000 H 0.41533 0.56163 0.41927 0.0
H1001 H 0.45383 0.55704 0.57649 0.0
H1002 H 0.43096 0.53725 0.55747 0.0
H1003 H 0.43193 0.55654 0.59218 0.0
C1004 C 0.37997 0.5075 0.47377 0.0
C1005 C 0.36943 0.5069 0.51415 0.0
C1006 C 0.39808 0.52364 0.46474 0.0
C1007 C 0.40599 0.53935 0.49611 0.0
C1008 C 0.39538 0.5388 0.53607 0.0
H1009 H 0.49427 0.65711 0.51229 0.0
H1010 H 0.46761 0.62425 0.52389 0.0
C1011 C 0.3774 0.52276 0.54514 0.0
C1012 C 0.42486 0.55681 0.4864 0.0
H1013 H 0.46812 0.58785 0.53761 0.0
C1014 C 0.42702 0.56719 0.4447 0.0
C1015 C 0.44012 0.56406 0.51963 0.0
C1016 C 0.43919 0.55303 0.56371 0.0
C1017 C 0.44361 0.5851 0.4365 0.0
C1018 C 0.45848 0.5927 0.47071 0.0
C1019 C 0.45663 0.58203 0.51161 0.0
C1020 C 0.47558 0.61216 0.46569 0.0
C1021 C 0.44479 0.59618 0.39231 0.0
C1022 C 0.48919 0.61612 0.42996 0.0
C1023 C 0.50451 0.63486 0.42337 0.0
C1024 C 0.50646 0.65001 0.45236 0.0
C1025 C 0.49318 0.64582 0.48926 0.0
C1026 C 0.47793 0.62705 0.49595 0.0
H1027 H 0.43082 0.58974 0.3732 0.0
H1028 H 0.44936 0.61136 0.40111 0.0
H1029 H 0.45572 0.59626 0.36812 0.0
H1030 H 0.48774 0.60476 0.40661 0.0
H1031 H 0.51447 0.63756 0.3946 0.0
H1032 H 0.88717 0.5193 0.67104 0.0
H1033 H 0.89092 0.49115 0.68556 0.0
H1034 H 0.85868 0.46437 0.55877 0.0
H1035 H 0.85515 0.49225 0.54362 0.0
H1036 H 0.86278 0.45325 0.69905 0.0
H1037 H 0.90577 0.45886 0.54078 0.0
H1038 H 0.90252 0.47844 0.56062 0.0
H1039 H 0.88421 0.45919 0.52573 0.0
C1040 C 0.881 0.50745 0.64614 0.0
C1041 C 0.87093 0.5081 0.60608 0.0
C1042 C 0.88317 0.4914 0.65445 0.0
C1043 C 0.87543 0.47583 0.62269 0.0
C1044 C 0.86524 0.47641 0.58306 0.0
H1045 H 0.84649 0.3584 0.60333 0.0
H1046 H 0.85268 0.39127 0.59241 0.0
C1047 C 0.8631 0.49237 0.57469 0.0
C1048 C 0.87703 0.45844 0.63169 0.0
H1049 H 0.8895 0.42788 0.57896 0.0
C1050 C 0.86893 0.44787 0.67323 0.0
C1051 C 0.8851 0.45144 0.59796 0.0
C1052 C 0.89507 0.46269 0.55401 0.0
C1053 C 0.86779 0.43001 0.68079 0.0
C1054 C 0.8751 0.42266 0.64609 0.0
C1055 C 0.8838 0.43352 0.60534 0.0
C1056 C 0.87286 0.40324 0.65042 0.0
C1057 C 0.85801 0.41872 0.72484 0.0
C1058 C 0.88263 0.39923 0.68576 0.0
C1059 C 0.87921 0.38048 0.69195 0.0
C1060 C 0.86591 0.36538 0.66296 0.0
C1061 C 0.85677 0.36965 0.62635 0.0
C1062 C 0.86028 0.38842 0.62005 0.0
H1063 H 0.85043 0.42499 0.74442 0.0
H1064 H 0.84745 0.40355 0.71575 0.0
H1065 H 0.86895 0.41864 0.7487 0.0
H1066 H 0.89258 0.41054 0.70918 0.0
H1067 H 0.88652 0.37773 0.7205 0.0
H1068 H 0.37974 0.89403 0.82081 0.0
H1069 H 0.4121 0.89879 0.8343 0.0
H1070 H 0.39766 0.84863 0.74955 0.0
H1071 H 0.3658 0.8442 0.73477 0.0
H1072 H 0.42444 0.87736 0.87558 0.0
H1073 H 0.44727 0.88664 0.68886 0.0
H1074 H 0.42589 0.88689 0.70759 0.0
H1075 H 0.42518 0.8644 0.69667 0.0
C1076 C 0.38352 0.88406 0.80503 0.0
C1077 C 0.37027 0.86886 0.77634 0.0
C1078 C 0.40202 0.88682 0.81264 0.0
C1079 C 0.40754 0.87439 0.79183 0.0
C1080 C 0.39405 0.85885 0.76456 0.0
H1081 H 0.4909 0.84492 0.8827 0.0
H1082 H 0.4633 0.84915 0.86874 0.0
C1083 C 0.37573 0.85623 0.75648 0.0
C1084 C 0.42707 0.87705 0.79981 0.0
H1085 H 0.46479 0.87751 0.74243 0.0
C1086 C 0.43339 0.87768 0.84643 0.0
C1087 C 0.43906 0.87798 0.76189 0.0
C1088 C 0.43409 0.87917 0.71099 0.0
C1089 C 0.45078 0.87811 0.85612 0.0
C1090 C 0.46189 0.87727 0.8182 0.0
C1091 C 0.45614 0.87776 0.77158 0.0
C1092 C 0.47891 0.87484 0.82613 0.0
C1093 C 0.45701 0.87944 0.907 0.0
C1094 C 0.49677 0.88733 0.80498 0.0
C1095 C 0.51261 0.8847 0.81212 0.0
C1096 C 0.51084 0.86955 0.84068 0.0
C1097 C 0.49285 0.8569 0.86105 0.0
C1098 C 0.47705 0.85941 0.85345 0.0
H1099 H 0.45122 0.88684 0.92908 0.0
H1100 H 0.45127 0.86471 0.92143 0.0
H1101 H 0.47294 0.88729 0.91034 0.0
H1102 H 0.49851 0.89923 0.78329 0.0
H1103 H 0.52627 0.89468 0.79595 0.0
H1104 H 0.52933 0.36187 0.90713 0.0
H1105 H 0.5573 0.39329 0.92287 0.0
H1106 H 0.52154 0.41002 0.99981 0.0
H1107 H 0.4934 0.37811 0.98551 0.0
H1108 H 0.56493 0.42798 0.89648 0.0
H1109 H 0.56449 0.42487 0.09269 0.0
H1110 H 0.54951 0.40408 0.05679 0.0
H1111 H 0.54269 0.42199 0.0673 0.0
C1112 C 0.52738 0.37215 0.92773 0.0
C1113 C 0.50914 0.36745 0.94528 0.0
C1114 C 0.54342 0.39017 0.9366 0.0
C1115 C 0.54164 0.40403 0.96292 0.0
C1116 C 0.5234 0.39945 0.98034 0.0
H1117 H 0.64071 0.52314 0.9635 0.0
H1118 H 0.60865 0.49524 0.94917 0.0
C1119 C 0.50731 0.38123 0.97201 0.0
C1120 C 0.55899 0.42324 0.97106 0.0
H1121 H 0.58807 0.45374 0.05736 0.0
C1122 C 0.56996 0.43366 0.93168 0.0
C1123 C 0.56562 0.43061 0.01699 0.0
C1124 C 0.55509 0.41976 0.06091 0.0
C1125 C 0.5876 0.45088 0.93691 0.0
C1126 C 0.59422 0.45826 0.98284 0.0
C1127 C 0.58296 0.44814 0.02215 0.0
C1128 C 0.61347 0.4755 0.99133 0.0
C1129 C 0.59936 0.46045 0.89327 0.0
C1130 C 0.6267 0.47387 0.02064 0.0
C1131 C 0.64481 0.48979 0.02946 0.0
C1132 C 0.65024 0.50776 0.00892 0.0
C1133 C 0.63704 0.50944 0.97939 0.0
C1134 C 0.61874 0.49348 0.97104 0.0
H1135 H 0.59462 0.4505 0.86251 0.0
H1136 H 0.59765 0.47292 0.88376 0.0
H1137 H 0.61489 0.46577 0.8996 0.0
H1138 H 0.62304 0.46018 0.03664 0.0
H1139 H 0.65462 0.48794 0.05229 0.0
H1140 H 0.26465 0.40047 0.68143 0.0
H1141 H 0.24023 0.39187 0.74349 0.0
H1142 H 0.23975 0.44458 0.71752 0.0
H1143 H 0.26381 0.45319 0.65594 0.0
H1144 H 0.24442 0.41336 0.82548 0.0
H1145 H 0.18239 0.40454 0.72056 0.0
H1146 H 0.20262 0.40397 0.69417 0.0
H1147 H 0.20396 0.42662 0.70671 0.0
C1148 C 0.25911 0.41006 0.68848 0.0
C1149 C 0.26624 0.42753 0.66364 0.0
C1150 C 0.24518 0.40514 0.72396 0.0
C1151 C 0.23794 0.41744 0.7346 0.0
C1152 C 0.24479 0.43465 0.70924 0.0
H1153 H 0.20348 0.45384 0.9712 0.0
H1154 H 0.21896 0.44507 0.91004 0.0
C1155 C 0.25871 0.43963 0.67419 0.0
C1156 C 0.22445 0.41339 0.7746 0.0
H1157 H 0.18285 0.41294 0.8031 0.0
C1158 C 0.23074 0.41281 0.82056 0.0
C1159 C 0.20645 0.41236 0.76824 0.0
C1160 C 0.19836 0.4117 0.71968 0.0
C1161 C 0.22023 0.41275 0.86037 0.0
C1162 C 0.20314 0.41354 0.85398 0.0
C1163 C 0.19607 0.41257 0.80804 0.0
C1164 C 0.19371 0.41771 0.89382 0.0
C1165 C 0.22787 0.4125 0.90894 0.0
C1166 C 0.17421 0.40533 0.9048 0.0
C1167 C 0.16519 0.41034 0.94003 0.0
C1168 C 0.17547 0.42797 0.96428 0.0
C1169 C 0.19506 0.44015 0.95341 0.0
C1170 C 0.20403 0.43509 0.9186 0.0
H1171 H 0.23679 0.40547 0.90834 0.0
H1172 H 0.23714 0.42753 0.92133 0.0
H1173 H 0.21598 0.40486 0.93476 0.0
H1174 H 0.16594 0.39193 0.88572 0.0
H1175 H 0.15007 0.40068 0.94732 0.0
H1176 H 0.75287 0.20048 0.13742 0.0
H1177 H 0.77613 0.21734 0.07481 0.0
H1178 H 0.77718 0.1655 0.04088 0.0
H1179 H 0.75361 0.14826 0.10375 0.0
H1180 H 0.81387 0.22265 0.05995 0.0
H1181 H 0.76246 0.18188 0.91479 0.0
H1182 H 0.75457 0.18182 0.97461 0.0
H1183 H 0.76591 0.16808 0.95992 0.0
C1184 C 0.75804 0.19258 0.11693 0.0
C1185 C 0.7512 0.17292 0.12547 0.0
C1186 C 0.77142 0.20231 0.08118 0.0
C1187 C 0.77823 0.19264 0.05293 0.0
C1188 C 0.77191 0.17316 0.06199 0.0
H1189 H 0.86902 0.26001 0.8424 0.0
H1190 H 0.85104 0.23666 0.90498 0.0
C1191 C 0.75851 0.16336 0.09804 0.0
C1192 C 0.79142 0.20306 0.01315 0.0
H1193 H 0.79285 0.20731 0.89283 0.0
C1194 C 0.80945 0.21914 0.02334 0.0
C1195 C 0.78547 0.19852 0.96551 0.0
C1196 C 0.76602 0.18173 0.95271 0.0
C1197 C 0.82145 0.23118 0.98719 0.0
C1198 C 0.81531 0.22689 0.93963 0.0
C1199 C 0.79755 0.21047 0.92935 0.0
C1200 C 0.82614 0.24033 0.90057 0.0
C1201 C 0.84016 0.24894 1.00025 0.0
C1202 C 0.81794 0.24981 0.8768 0.0
C1203 C 0.82811 0.2631 0.84118 0.0
C1204 C 0.84672 0.26716 0.82828 0.0
C1205 C 0.85478 0.25732 0.85155 0.0
C1206 C 0.84456 0.24402 0.88742 0.0
H1207 H 0.84138 0.25176 0.03892 0.0
H1208 H 0.85238 0.24705 0.98912 0.0
H1209 H 0.84154 0.26175 0.98161 0.0
H1210 H 0.80373 0.24716 0.88639 0.0
H1211 H 0.82135 0.27028 0.82401 0.0
H1212 H 0.56524 0.75465 0.3154 0.0
H1213 H 0.56947 0.77681 0.25143 0.0
H1214 H 0.61333 0.76754 0.18958 0.0
H1215 H 0.60972 0.74586 0.25505 0.0
H1216 H 0.62251 0.80463 0.18031 0.0
H1217 H 0.54713 0.75759 0.12305 0.0
H1218 H 0.54839 0.76522 0.18315 0.0
H1219 H 0.55834 0.75022 0.1672 0.0
C1220 C 0.5759 0.75743 0.28839 0.0
C1221 C 0.58698 0.74833 0.28989 0.0
C1222 C 0.57823 0.77003 0.25167 0.0
C1223 C 0.59129 0.77339 0.21486 0.0
C1224 C 0.60303 0.76502 0.21736 0.0
H1225 H 0.57374 0.81543 0.94788 0.0
H1226 H 0.57899 0.79695 0.00871 0.0
C1227 C 0.60096 0.75265 0.25474 0.0
C1228 C 0.59205 0.78504 0.17314 0.0
H1229 H 0.5635 0.78907 0.08985 0.0
C1230 C 0.60966 0.80117 0.16019 0.0
C1231 C 0.57537 0.78029 0.14619 0.0
C1232 C 0.55631 0.76227 0.15526 0.0
C1233 C 0.61093 0.81294 0.12184 0.0
C1234 C 0.594 0.80879 0.09666 0.0
C1235 C 0.5765 0.79243 0.10918 0.0
C1236 C 0.59378 0.82095 0.05706 0.0
C1237 C 0.63044 0.82944 0.10829 0.0
C1238 C 0.60085 0.84079 0.06307 0.0
C1239 C 0.59831 0.85151 0.02753 0.0
C1240 C 0.58818 0.84243 0.9861 0.0
C1241 C 0.5816 0.82276 0.97957 0.0
C1242 C 0.58455 0.81219 0.01441 0.0
H1243 H 0.64216 0.82677 0.11969 0.0
H1244 H 0.63159 0.83193 0.06951 0.0
H1245 H 0.63274 0.84273 0.12619 0.0
H1246 H 0.60752 0.84783 0.09602 0.0
H1247 H 0.60323 0.86661 0.03366 0.0
H1248 H 0.81863 0.56171 0.46682 0.0
H1249 H 0.80326 0.56984 0.40411 0.0
H1250 H 0.85624 0.62286 0.37855 0.0
H1251 H 0.87205 0.6147 0.44162 0.0
H1252 H 0.79834 0.60209 0.39047 0.0
H1253 H 0.84266 0.59473 0.24914 0.0
H1254 H 0.84168 0.58595 0.30842 0.0
H1255 H 0.85519 0.61131 0.29655 0.0
C1256 C 0.8271 0.57519 0.44825 0.0
C1257 C 0.84669 0.58746 0.45907 0.0
C1258 C 0.81821 0.57985 0.41242 0.0
C1259 C 0.82863 0.59684 0.3863 0.0
C1260 C 0.848 0.60955 0.39793 0.0
H1261 H 0.75829 0.61423 0.17034 0.0
H1262 H 0.78273 0.62282 0.23232 0.0
C1263 C 0.85697 0.60491 0.43412 0.0
C1264 C 0.8191 0.60037 0.34564 0.0
H1265 H 0.81657 0.59812 0.22503 0.0
C1266 C 0.80253 0.60166 0.35422 0.0
C1267 C 0.82453 0.59961 0.29845 0.0
C1268 C 0.8419 0.59771 0.28721 0.0
C1269 C 0.7907 0.60121 0.31698 0.0
C1270 C 0.79574 0.59969 0.26987 0.0
C1271 C 0.81283 0.5994 0.26118 0.0
C1272 C 0.78216 0.59558 0.23003 0.0
C1273 C 0.77226 0.60108 0.32847 0.0
C1274 C 0.77416 0.57768 0.20733 0.0
C1275 C 0.76032 0.57276 0.17206 0.0
C1276 C 0.75414 0.58567 0.15841 0.0
C1277 C 0.76264 0.60391 0.18011 0.0
C1278 C 0.77654 0.60882 0.21567 0.0
H1279 H 0.76916 0.59959 0.36701 0.0
H1280 H 0.7734 0.61476 0.31634 0.0
H1281 H 0.75991 0.58908 0.30974 0.0
H1282 H 0.77828 0.56725 0.2178 0.0
H1283 H 0.75425 0.55864 0.15607 0.0
H1284 H 0.14926 0.75231 0.34448 0.0
H1285 H 0.16532 0.77673 0.4065 0.0
H1286 H 0.21843 0.77719 0.37915 0.0
H1287 H 0.20276 0.75314 0.31763 0.0
H1288 H 0.18301 0.7726 0.48808 0.0
H1289 H 0.23569 0.83455 0.38205 0.0
H1290 H 0.21477 0.81428 0.35616 0.0
H1291 H 0.23614 0.81297 0.36806 0.0
C1292 C 0.16443 0.75784 0.35123 0.0
C1293 C 0.17469 0.75073 0.326 0.0
C1294 C 0.17357 0.77176 0.3867 0.0
C1295 C 0.19315 0.77901 0.39693 0.0
C1296 C 0.20343 0.77215 0.37121 0.0
H1297 H 0.2649 0.81468 0.63294 0.0
H1298 H 0.24071 0.79883 0.57175 0.0
C1299 C 0.19436 0.75824 0.33618 0.0
C1300 C 0.20275 0.79255 0.43677 0.0
H1301 H 0.24388 0.83434 0.46441 0.0
C1302 C 0.19608 0.78631 0.48289 0.0
C1303 C 0.21965 0.81057 0.43006 0.0
C1304 C 0.22687 0.81859 0.38134 0.0
C1305 C 0.20666 0.79693 0.52247 0.0
C1306 C 0.22445 0.8141 0.5157 0.0
C1307 C 0.23035 0.82107 0.46963 0.0
C1308 C 0.23811 0.82376 0.55532 0.0
C1309 C 0.19897 0.78936 0.57122 0.0
C1310 C 0.24496 0.84322 0.56615 0.0
C1311 C 0.25896 0.85246 0.6014 0.0
C1312 C 0.26654 0.84244 0.62583 0.0
C1313 C 0.25944 0.8229 0.61502 0.0
C1314 C 0.24545 0.81371 0.58019 0.0
H1315 H 0.18303 0.78025 0.57094 0.0
H1316 H 0.20498 0.78032 0.5836 0.0
H1317 H 0.20315 0.80129 0.59687 0.0
H1318 H 0.23963 0.85129 0.54701 0.0
H1319 H 0.26416 0.86753 0.60865 0.0
H1320 H 0.45887 0.26379 0.79701 0.0
H1321 H 0.45089 0.24007 0.73479 0.0
H1322 H 0.39596 0.23662 0.71478 0.0
H1323 H 0.40392 0.26074 0.7773 0.0
H1324 H 0.41956 0.20197 0.72537 0.0
H1325 H 0.42148 0.2506 0.58219 0.0
H1326 H 0.43125 0.25944 0.64027 0.0
H1327 H 0.40567 0.2465 0.6314 0.0
C1328 C 0.44502 0.25801 0.7797 0.0
C1329 C 0.43211 0.26437 0.79202 0.0
C1330 C 0.44046 0.24435 0.74415 0.0
C1331 C 0.42293 0.23672 0.71981 0.0
C1332 C 0.40969 0.24253 0.73275 0.0
H1333 H 0.40341 0.14674 0.50857 0.0
H1334 H 0.3957 0.16307 0.57114 0.0
C1335 C 0.41423 0.25624 0.76861 0.0
C1336 C 0.41922 0.22328 0.67988 0.0
H1337 H 0.41854 0.22118 0.55919 0.0
C1338 C 0.41893 0.20594 0.68903 0.0
C1339 C 0.41858 0.22862 0.63253 0.0
C1340 C 0.41937 0.24734 0.62063 0.0
C1341 C 0.41892 0.19422 0.65206 0.0
C1342 C 0.41897 0.19991 0.60468 0.0
C1343 C 0.41835 0.2168 0.59556 0.0
C1344 C 0.42244 0.1901 0.56455 0.0
C1345 C 0.4201 0.1765 0.6639 0.0
C1346 C 0.43974 0.20003 0.53931 0.0
C1347 C 0.44415 0.19082 0.50374 0.0
C1348 C 0.43132 0.17142 0.49232 0.0
C1349 C 0.41364 0.16165 0.51655 0.0
C1350 C 0.40925 0.17092 0.55245 0.0
H1351 H 0.42263 0.17559 0.7022 0.0
H1352 H 0.40639 0.16347 0.65391 0.0
H1353 H 0.43188 0.17637 0.64357 0.0
H1354 H 0.45012 0.21483 0.54801 0.0
H1355 H 0.45785 0.19891 0.48576 0.0
H1356 H 0.07507 0.38946 0.02873 0.0
H1357 H 0.04287 0.37309 0.99405 0.0
H1358 H 0.06499 0.4071 0.8674 0.0
H1359 H 0.09738 0.42374 0.90199 0.0
H1360 H 0.03048 0.40443 0.90149 0.0
H1361 H 0.02416 0.33249 0.88815 0.0
H1362 H 0.0305 0.34307 0.94604 0.0
H1363 H 0.0469 0.35426 0.89759 0.0
C1364 C 0.07316 0.39347 0.99343 0.0
C1365 C 0.08889 0.40786 0.96804 0.0
C1366 C 0.05472 0.384 0.97357 0.0
C1367 C 0.05156 0.38865 0.92785 0.0
C1368 C 0.06713 0.4032 0.90263 0.0
H1369 H 0.94885 0.32121 0.75716 0.0
H1370 H 0.98162 0.33868 0.78868 0.0
C1371 C 0.08564 0.41267 0.92243 0.0
C1372 C 0.03194 0.37844 0.90674 0.0
H1373 H 0.99566 0.33388 0.87417 0.0
C1374 C 0.02288 0.38902 0.89533 0.0
C1375 C 0.02212 0.35836 0.89824 0.0
C1376 C 0.03145 0.34636 0.9077 0.0
C1377 C 1.00412 0.38 0.87654 0.0
C1378 C 0.99406 0.35982 0.8695 0.0
C1379 C 1.00329 0.34931 0.88002 0.0
C1380 C 0.97407 0.34935 0.85056 0.0
C1381 C 0.99534 0.39221 0.86376 0.0
C1382 C 0.95884 0.34931 0.87515 0.0
C1383 C 0.94004 0.33931 0.85723 0.0
C1384 C 0.93607 0.32905 0.81444 0.0
C1385 C 0.95135 0.32896 0.79018 0.0
C1386 C 0.97012 0.33894 0.80815 0.0
H1387 H 1.00647 0.40762 0.85982 0.0
H1388 H 0.98703 0.38717 0.83029 0.0
H1389 H 0.98532 0.3911 0.89226 0.0
H1390 H 0.96146 0.35692 0.90842 0.0
H1391 H 0.92863 0.33966 0.87691 0.0
H1392 H 0.63361 0.94087 0.9426 0.0
H1393 H 0.64958 0.97319 0.97656 0.0
H1394 H 0.59994 0.95756 0.06456 0.0
H1395 H 0.58428 0.92485 0.03228 0.0
H1396 H 0.64159 1.00049 0.97372 0.0
H1397 H 0.64071 0.98139 0.16208 0.0
H1398 H 0.63418 0.96395 0.11531 0.0
H1399 H 0.61696 0.97024 0.13735 0.0
C1400 C 0.62615 0.94426 0.96953 0.0
C1401 C 0.60773 0.93024 0.98504 0.0
C1402 C 0.6353 0.96278 0.98889 0.0
C1403 C 0.62617 0.96785 0.02384 0.0
C1404 C 0.6076 0.95393 0.03881 0.0
H1405 H 0.66565 0.08906 0.08894 0.0
H1406 H 0.6485 0.05625 0.05742 0.0
C1407 C 0.59859 0.93524 0.02009 0.0
C1408 C 0.63596 0.98785 0.04326 0.0
H1409 H 0.64948 0.01386 0.14588 0.0
C1410 C 0.64339 1.00339 0.01141 0.0
C1411 C 0.6386 0.99176 0.09241 0.0
C1412 C 0.63237 0.97596 0.12872 0.0
C1413 C 0.65333 0.02259 0.02714 0.0
C1414 C 0.65527 0.0265 0.07633 0.0
C1415 C 0.64786 0.01096 0.10819 0.0
C1416 C 0.66547 0.04651 0.09565 0.0
C1417 C 0.66217 0.03841 0.99065 0.0
C1418 C 0.68027 0.05191 0.12909 0.0
C1419 C 0.68974 0.07051 0.14806 0.0
C1420 C 0.6848 0.08426 0.13364 0.0
C1421 C 0.66999 0.07889 0.10022 0.0
C1422 C 0.66025 0.06014 0.08192 0.0
H1423 H 0.66472 0.03308 0.95668 0.0
H1424 H 0.65216 0.04387 0.98343 0.0
H1425 H 0.67608 0.05059 1.00314 0.0
H1426 H 0.68458 0.04173 0.14045 0.0
H1427 H 0.70108 0.07418 0.17375 0.0
H1428 H 0.70288 0.63168 0.10726 0.0
H1429 H 0.68712 0.64829 0.14093 0.0
H1430 H 0.65346 0.59969 0.23218 0.0
H1431 H 0.66992 0.58341 0.20018 0.0
H1432 H 0.65191 0.64072 0.13967 0.0
H1433 H 0.67178 0.64144 0.32734 0.0
H1434 H 0.6821 0.63427 0.28048 0.0
H1435 H 0.65875 0.61746 0.30413 0.0
C1436 C 0.69224 0.6246 0.13483 0.0
C1437 C 0.68777 0.60629 0.15136 0.0
C1438 C 0.6832 0.63411 0.15402 0.0
C1439 C 0.66929 0.62547 0.18982 0.0
C1440 C 0.66455 0.607 0.20576 0.0
H1441 H 0.58838 0.66564 0.25623 0.0
H1442 H 0.60392 0.64842 0.22457 0.0
C1443 C 0.67388 0.59762 0.1872 0.0
C1444 C 0.65945 0.63562 0.20917 0.0
H1445 H 0.64801 0.6502 0.31167 0.0
C1446 C 0.65117 0.64287 0.17731 0.0
C1447 C 0.65866 0.63875 0.25825 0.0
C1448 C 0.66848 0.63275 0.29446 0.0
C1449 C 0.64214 0.65304 0.19298 0.0
C1450 C 0.64061 0.65542 0.24216 0.0
C1451 C 0.64895 0.64823 0.27401 0.0
C1452 C 0.63093 0.66574 0.26143 0.0
C1453 C 0.63492 0.66162 0.15642 0.0
C1454 C 0.64056 0.68079 0.29416 0.0
C1455 C 0.6315 0.69031 0.31324 0.0
C1456 C 0.61267 0.68517 0.29962 0.0
C1457 C 0.60301 0.67014 0.26686 0.0
C1458 C 0.61195 0.66036 0.24848 0.0
H1459 H 0.64256 0.66391 0.12218 0.0
H1460 H 0.61938 0.65156 0.14991 0.0
H1461 H 0.63675 0.67562 0.16843 0.0
H1462 H 0.65516 0.68523 0.30494 0.0
H1463 H 0.63933 0.70182 0.33844 0.0
H1464 H 0.09523 0.67474 0.38341 0.0
H1465 H 0.06243 0.65795 0.41547 0.0
H1466 H 0.04165 0.67261 0.29065 0.0
H1467 H 0.07428 0.68949 0.2585 0.0
H1468 H 0.02813 0.67983 0.3754 0.0
H1469 H 0.01714 0.60577 0.3716 0.0
H1470 H 0.03851 0.62326 0.40186 0.0
H1471 H 0.03626 0.62549 0.3393 0.0
C1472 C 0.08368 0.67438 0.36274 0.0
C1473 C 0.08743 0.68347 0.31832 0.0
C1474 C 0.06491 0.66466 0.381 0.0
C1475 C 0.04953 0.66381 0.3552 0.0
C1476 C 0.05327 0.673 0.3111 0.0
H1477 H 0.92594 0.59118 0.40192 0.0
H1478 H 0.95872 0.60723 0.36971 0.0
C1479 C 0.07197 0.68265 0.29276 0.0
C1480 C 0.02958 0.65376 0.37443 0.0
H1481 H 0.99281 0.60971 0.40869 0.0
C1482 C 0.02041 0.6645 0.38268 0.0
C1483 C 0.01941 0.63371 0.38333 0.0
C1484 C 0.02822 0.62129 0.37323 0.0
C1485 C 1.00149 0.6558 0.40019 0.0
C1486 C 0.99149 0.63584 0.41021 0.0
C1487 C 1.00054 0.62503 0.40131 0.0
C1488 C 0.97164 0.62597 0.43 0.0
C1489 C 0.99223 0.66801 0.40715 0.0
C1490 C 0.96804 0.63101 0.47482 0.0
C1491 C 0.94935 0.62188 0.49332 0.0
C1492 C 0.93382 0.60746 0.46742 0.0
C1493 C 0.93751 0.60229 0.4227 0.0
C1494 C 0.95625 0.61141 0.40429 0.0
H1495 H 0.99987 0.68175 0.3872 0.0
H1496 H 0.97692 0.66014 0.39578 0.0
H1497 H 0.99266 0.67152 0.44525 0.0
H1498 H 0.97972 0.64197 0.49564 0.0
H1499 H 0.94711 0.62616 0.52798 0.0
H1500 H 0.43447 0.08928 0.53188 0.0
H1501 H 0.41931 0.05632 0.56242 0.0
H1502 H 0.36931 0.04073 0.47583 0.0
H1503 H 0.38479 0.07331 0.4435 0.0
H1504 H 0.38899 0.03531 0.61182 0.0
H1505 H 0.37835 0.99826 0.44052 0.0
H1506 H 0.39247 0.02407 0.44589 0.0
H1507 H 0.3666 0.01225 0.44089 0.0
C1508 C 0.42026 0.07878 0.51926 0.0
C1509 C 0.4109 0.08386 0.48497 0.0
C1510 C 0.4116 0.05992 0.53671 0.0
C1511 C 0.39331 0.04578 0.52065 0.0
C1512 C 0.38369 0.05107 0.48759 0.0
H1513 H 0.3186 0.94027 0.67456 0.0
H1514 H 0.33557 0.97284 0.64218 0.0
C1515 C 0.3925 0.0698 0.46943 0.0
C1516 C 0.38408 0.02569 0.53938 0.0
H1517 H 0.36055 0.97837 0.50602 0.0
C1518 C 0.38293 0.02288 0.58859 0.0
C1519 C 0.3765 0.00935 0.50933 0.0
C1520 C 0.37874 0.01113 0.45627 0.0
C1521 C 0.37406 1.00433 0.60849 0.0
C1522 C 0.36533 0.98799 0.57845 0.0
C1523 C 0.36691 0.9908 0.52924 0.0
C1524 C 0.35454 0.9679 0.59721 0.0
C1525 C 0.3746 1.00256 0.66155 0.0
C1526 C 0.35874 0.95381 0.58107 0.0
C1527 C 0.34861 0.93495 0.59856 0.0
C1528 C 0.3342 0.92982 0.63296 0.0
C1529 C 0.32981 0.94383 0.64856 0.0
C1530 C 0.33966 0.96255 0.63037 0.0
H1531 H 0.3871 0.01547 0.67723 0.0
H1532 H 0.36135 1.00137 0.67706 0.0
H1533 H 0.37547 0.98966 0.67186 0.0
H1534 H 0.37004 0.95746 0.55529 0.0
H1535 H 0.35235 0.92449 0.58589 0.0
H1536 H 0.3188 0.38263 0.61152 0.0
H1537 H 0.33522 0.36651 0.64424 0.0
H1538 H 0.3692 0.41562 0.73387 0.0
H1539 H 0.35206 0.43137 0.70296 0.0
H1540 H 0.37037 0.37424 0.64143 0.0
H1541 H 0.3523 0.37456 0.83006 0.0
H1542 H 0.34143 0.38134 0.78375 0.0
H1543 H 0.36496 0.39841 0.8061 0.0
C1544 C 0.32965 0.38993 0.63855 0.0
C1545 C 0.334 0.40821 0.655 0.0
C1546 C 0.33908 0.3807 0.65719 0.0
C1547 C 0.35327 0.38962 0.69231 0.0
C1548 C 0.3579 0.40809 0.70805 0.0
H1549 H 0.43533 0.35024 0.75471 0.0
H1550 H 0.41943 0.36719 0.72343 0.0
C1551 C 0.34818 0.41716 0.6901 0.0
C1552 C 0.36347 0.37974 0.71123 0.0
H1553 H 0.37621 0.36611 0.81328 0.0
C1554 C 0.37153 0.37238 0.67904 0.0
C1555 C 0.36481 0.37699 0.7603 0.0
C1556 C 0.35523 0.38306 0.79699 0.0
C1557 C 0.38087 0.36245 0.69436 0.0
C1558 C 0.38295 0.36045 0.74347 0.0
C1559 C 0.37485 0.36777 0.77565 0.0
C1560 C 0.39289 0.35031 0.76242 0.0
C1561 C 0.38778 0.35368 0.65751 0.0
C1562 C 0.38368 0.33562 0.79621 0.0
C1563 C 0.39297 0.32629 0.81509 0.0
C1564 C 0.41161 0.33125 0.8002 0.0
C1565 C 0.42085 0.3459 0.76635 0.0
C1566 C 0.41169 0.35552 0.74818 0.0
H1567 H 0.37975 0.35108 0.62376 0.0
H1568 H 0.40322 0.36377 0.64995 0.0
H1569 H 0.38618 0.33981 0.66981 0.0
H1570 H 0.36923 0.3313 0.80799 0.0
H1571 H 0.38545 0.31506 0.84112 0.0
loop_
_geom_bond_atom_site_label_1
_geom_bond_atom_site_label_2
_geom_bond_distance
_geom_bond_site_symmetry_2
_ccdc_geom_bond_type
Co0 O2 2.143 . S
Co0 O8 2.074 . S
Co0 O11 2.093 . S
Co0 O24 2.097 . S
Co0 N41 2.151 1_554 S
Co0 N49 2.214 . S
Co1 O2 2.160 . S
Co1 O7 2.058 1_554 S
Co1 O17 2.057 . S
Co1 O32 2.037 . S
Co1 N36 2.145 . S
Co1 N57 2.257 . S
O2 Co0 2.143 . S
O2 Co1 2.160 . S
C3 O4 1.278 . S
C3 O11 1.224 . S
O4 C3 1.278 . S
C5 O6 1.245 . S
C5 O17 1.232 1_556 S
O6 C5 1.245 . S
O7 Co1 2.058 1_556 S
O7 C33 1.269 . S
O8 Co0 2.074 . S
O8 C33 1.257 1_554 S
H9 C34 0.930 . S
H10 C40 0.930 1_554 S
O11 Co0 2.093 . S
O11 C3 1.224 . S
H12 C44 0.929 . S
H13 C46 0.930 . S
H14 C47 0.930 . S
H15 C45 0.929 . S
H16 C48 0.928 . S
O17 Co1 2.057 . S
O17 C5 1.232 1_554 S
H18 C37 0.929 . S
H19 C38 0.929 . S
H20 C50 0.931 . S
H21 C42 0.929 . S
H22 C51 0.930 . S
H23 C43 0.931 . S
O24 Co0 2.097 . S
O24 C52 1.214 . S
H25 C53 0.929 . S
H26 C54 0.929 . S
H27 C55 0.930 . S
H28 C56 0.929 . S
H29 C58 0.930 . S
H30 C35 0.930 . S
H31 C39 0.930 . S
O32 Co1 2.037 . S
O32 C52 1.234 . S
C33 O7 1.269 . S
C33 O8 1.257 1_556 S
C34 H9 0.930 . S
C34 C37 1.388 . S
C34 C39 1.418 . S
C35 H30 0.930 . S
C35 C38 1.404 . S
C35 C39 1.353 . S
N36 Co1 2.145 . S
N36 C37 1.397 . S
N36 C38 1.334 . S
C37 H18 0.929 . S
C37 C34 1.388 . S
C37 N36 1.397 . S
C38 H19 0.929 . S
C38 C35 1.404 . S
C38 N36 1.334 . S
C39 H31 0.930 . S
C39 C34 1.418 . S
C39 C35 1.353 . S
C40 H10 0.930 1_556 S
C40 N41 1.330 . S
C40 C42 1.446 . S
N41 Co0 2.151 1_556 S
N41 C40 1.330 . S
N41 C45 1.418 . S
C42 H21 0.929 . S
C42 C40 1.446 . S
C42 C43 1.332 . S
C43 H23 0.931 . S
C43 C42 1.332 . S
C43 C44 1.267 . S
C44 H12 0.929 . S
C44 C43 1.267 . S
C44 C45 1.251 . S
C45 H15 0.929 . S
C45 N41 1.418 . S
C45 C44 1.251 . S
C46 H13 0.930 . S
C46 C48 1.406 . S
C46 C51 1.261 . S
C47 H14 0.930 . S
C47 N49 1.325 . S
C47 C50 1.357 . S
C48 H16 0.928 . S
C48 C46 1.406 . S
C48 N49 1.261 . S
N49 Co0 2.214 . S
N49 C47 1.325 . S
N49 C48 1.261 . S
C50 H20 0.931 . S
C50 C47 1.357 . S
C50 C51 1.312 . S
C51 H22 0.930 . S
C51 C46 1.261 . S
C51 C50 1.312 . S
C52 O24 1.214 . S
C52 O32 1.234 . S
C53 H25 0.929 . S
C53 C56 1.391 . S
C53 C58 1.391 . S
C54 H26 0.929 . S
C54 C55 1.390 . S
C54 N57 1.391 . S
C55 H27 0.930 . S
C55 C54 1.390 . S
C55 C56 1.392 . S
C56 H28 0.929 . S
C56 C53 1.391 . S
C56 C55 1.392 . S
N57 Co1 2.257 . S
N57 C54 1.391 . S
N57 C58 1.388 . S
C58 H29 0.930 . S
C58 C53 1.391 . S
C58 N57 1.388 . S
Co59 O61 2.143 . S
Co59 O67 2.074 . S
Co59 O70 2.093 . S
Co59 O83 2.097 . S
Co59 N100 2.151 . S
Co59 N108 2.214 . S
Co60 O61 2.160 . S
Co60 O66 2.058 . S
Co60 O76 2.057 . S
Co60 O91 2.037 . S
Co60 N95 2.145 . S
Co60 N116 2.257 . S
O61 Co59 2.143 . S
O61 Co60 2.160 . S
C62 O63 1.278 . S
C62 O70 1.224 . S
O63 C62 1.278 . S
C64 O65 1.245 . S
C64 O76 1.232 . S
O65 C64 1.245 . S
O66 Co60 2.058 . S
O66 C92 1.269 . S
O67 Co59 2.074 . S
O67 C92 1.257 . S
H68 C93 0.930 . S
H69 C99 0.930 . S
O70 Co59 2.093 . S
O70 C62 1.224 . S
H71 C103 0.929 . S
H72 C105 0.930 . S
H73 C106 0.930 . S
H74 C104 0.929 . S
H75 C107 0.928 . S
O76 Co60 2.057 . S
O76 C64 1.232 . S
H77 C96 0.929 . S
H78 C97 0.929 . S
H79 C109 0.931 . S
H80 C101 0.929 . S
H81 C110 0.930 . S
H82 C102 0.931 . S
O83 Co59 2.097 . S
O83 C111 1.214 . S
H84 C112 0.929 . S
H85 C113 0.929 . S
H86 C114 0.930 . S
H87 C115 0.929 . S
H88 C117 0.930 . S
H89 C94 0.930 . S
H90 C98 0.930 . S
O91 Co60 2.037 . S
O91 C111 1.234 . S
C92 O66 1.269 . S
C92 O67 1.257 . S
C93 H68 0.930 . S
C93 C96 1.388 . S
C93 C98 1.418 . S
C94 H89 0.930 . S
C94 C97 1.404 . S
C94 C98 1.353 . S
N95 Co60 2.145 . S
N95 C96 1.397 . S
N95 C97 1.334 . S
C96 H77 0.929 . S
C96 C93 1.388 . S
C96 N95 1.397 . S
C97 H78 0.929 . S
C97 C94 1.404 . S
C97 N95 1.334 . S
C98 H90 0.930 . S
C98 C93 1.418 . S
C98 C94 1.353 . S
C99 H69 0.930 . S
C99 N100 1.330 . S
C99 C101 1.446 . S
N100 Co59 2.151 . S
N100 C99 1.330 . S
N100 C104 1.418 . S
C101 H80 0.929 . S
C101 C99 1.446 . S
C101 C102 1.332 . S
C102 H82 0.931 . S
C102 C101 1.332 . S
C102 C103 1.267 . S
C103 H71 0.929 . S
C103 C102 1.267 . S
C103 C104 1.251 . S
C104 H74 0.929 . S
C104 N100 1.418 . S
C104 C103 1.251 . S
C105 H72 0.930 . S
C105 C107 1.406 . S
C105 C110 1.261 . S
C106 H73 0.930 . S
C106 N108 1.325 . S
C106 C109 1.357 . S
C107 H75 0.928 . S
C107 C105 1.406 . S
C107 N108 1.261 . S
N108 Co59 2.214 . S
N108 C106 1.325 . S
N108 C107 1.261 . S
C109 H79 0.931 . S
C109 C106 1.357 . S
C109 C110 1.312 . S
C110 H81 0.930 . S
C110 C105 1.261 . S
C110 C109 1.312 . S
C111 O83 1.214 . S
C111 O91 1.234 . S
C112 H84 0.929 . S
C112 C115 1.391 . S
C112 C117 1.391 . S
C113 H85 0.929 . S
C113 C114 1.390 . S
C113 N116 1.391 . S
C114 H86 0.930 . S
C114 C113 1.390 . S
C114 C115 1.392 . S
C115 H87 0.929 . S
C115 C112 1.391 . S
C115 C114 1.392 . S
N116 Co60 2.257 . S
N116 C113 1.391 . S
N116 C117 1.388 . S
C117 H88 0.930 . S
C117 C112 1.391 . S
C117 N116 1.388 . S
Co118 O120 2.143 . S
Co118 O126 2.074 . S
Co118 O129 2.093 . S
Co118 O142 2.097 . S
Co118 N159 2.151 . S
Co118 N167 2.214 . S
Co119 O120 2.160 . S
Co119 O125 2.058 . S
Co119 O135 2.057 . S
Co119 O150 2.037 . S
Co119 N154 2.145 . S
Co119 N175 2.257 . S
O120 Co118 2.143 . S
O120 Co119 2.160 . S
C121 O122 1.278 . S
C121 O129 1.224 . S
O122 C121 1.278 . S
C123 O124 1.245 . S
C123 O135 1.232 . S
O124 C123 1.245 . S
O125 Co119 2.058 . S
O125 C151 1.269 . S
O126 Co118 2.074 . S
O126 C151 1.257 . S
H127 C152 0.930 . S
H128 C158 0.930 . S
O129 Co118 2.093 . S
O129 C121 1.224 . S
H130 C162 0.929 . S
H131 C164 0.930 . S
H132 C165 0.930 . S
H133 C163 0.929 . S
H134 C166 0.928 . S
O135 Co119 2.057 . S
O135 C123 1.232 . S
H136 C155 0.929 . S
H137 C156 0.929 . S
H138 C168 0.931 . S
H139 C160 0.929 . S
H140 C169 0.930 . S
H141 C161 0.931 . S
O142 Co118 2.097 . S
O142 C170 1.214 . S
H143 C171 0.929 . S
H144 C172 0.929 . S
H145 C173 0.930 . S
H146 C174 0.929 . S
H147 C176 0.930 . S
H148 C153 0.930 . S
H149 C157 0.930 . S
O150 Co119 2.037 . S
O150 C170 1.234 . S
C151 O125 1.269 . S
C151 O126 1.257 . S
C152 H127 0.930 . S
C152 C155 1.388 . S
C152 C157 1.418 . S
C153 H148 0.930 . S
C153 C156 1.404 . S
C153 C157 1.353 . S
N154 Co119 2.145 . S
N154 C155 1.397 . S
N154 C156 1.334 . S
C155 H136 0.929 . S
C155 C152 1.388 . S
C155 N154 1.397 . S
C156 H137 0.929 . S
C156 C153 1.404 . S
C156 N154 1.334 . S
C157 H149 0.930 . S
C157 C152 1.418 . S
C157 C153 1.353 . S
C158 H128 0.930 . S
C158 N159 1.330 . S
C158 C160 1.446 . S
N159 Co118 2.151 . S
N159 C158 1.330 . S
N159 C163 1.418 . S
C160 H139 0.929 . S
C160 C158 1.446 . S
C160 C161 1.332 . S
C161 H141 0.931 . S
C161 C160 1.332 . S
C161 C162 1.267 . S
C162 H130 0.929 . S
C162 C161 1.267 . S
C162 C163 1.251 . S
C163 H133 0.929 . S
C163 N159 1.418 . S
C163 C162 1.251 . S
C164 H131 0.930 . S
C164 C166 1.406 . S
C164 C169 1.261 . S
C165 H132 0.930 . S
C165 N167 1.325 . S
C165 C168 1.357 . S
C166 H134 0.928 . S
C166 C164 1.406 . S
C166 N167 1.261 . S
N167 Co118 2.214 . S
N167 C165 1.325 . S
N167 C166 1.261 . S
C168 H138 0.931 . S
C168 C165 1.357 . S
C168 C169 1.312 . S
C169 H140 0.930 . S
C169 C164 1.261 . S
C169 C168 1.312 . S
C170 O142 1.214 . S
C170 O150 1.234 . S
C171 H143 0.929 . S
C171 C174 1.391 . S
C171 C176 1.391 . S
C172 H144 0.929 . S
C172 C173 1.390 . S
C172 N175 1.391 . S
C173 H145 0.930 . S
C173 C172 1.390 . S
C173 C174 1.392 . S
C174 H146 0.929 . S
C174 C171 1.391 . S
C174 C173 1.392 . S
N175 Co119 2.257 . S
N175 C172 1.391 . S
N175 C176 1.388 . S
C176 H147 0.930 . S
C176 C171 1.391 . S
C176 N175 1.388 . S
Co177 O179 2.143 . S
Co177 O185 2.074 . S
Co177 O188 2.093 . S
Co177 O201 2.097 . S
Co177 N218 2.151 . S
Co177 N226 2.214 . S
Co178 O179 2.160 . S
Co178 O184 2.058 . S
Co178 O194 2.057 . S
Co178 O209 2.037 . S
Co178 N213 2.145 . S
Co178 N234 2.257 . S
O179 Co177 2.143 . S
O179 Co178 2.160 . S
C180 O181 1.278 . S
C180 O188 1.224 . S
O181 C180 1.278 . S
C182 O183 1.245 . S
C182 O194 1.232 . S
O183 C182 1.245 . S
O184 Co178 2.058 . S
O184 C210 1.269 . S
O185 Co177 2.074 . S
O185 C210 1.257 . S
H186 C211 0.930 . S
H187 C217 0.930 . S
O188 Co177 2.093 . S
O188 C180 1.224 . S
H189 C221 0.929 . S
H190 C223 0.930 . S
H191 C224 0.930 . S
H192 C222 0.929 . S
H193 C225 0.928 . S
O194 Co178 2.057 . S
O194 C182 1.232 . S
H195 C214 0.929 . S
H196 C215 0.929 . S
H197 C227 0.931 . S
H198 C219 0.929 . S
H199 C228 0.930 . S
H200 C220 0.931 . S
O201 Co177 2.097 . S
O201 C229 1.214 . S
H202 C230 0.929 . S
H203 C231 0.929 . S
H204 C232 0.930 . S
H205 C233 0.929 . S
H206 C235 0.930 . S
H207 C212 0.930 . S
H208 C216 0.930 . S
O209 Co178 2.037 . S
O209 C229 1.234 . S
C210 O184 1.269 . S
C210 O185 1.257 . S
C211 H186 0.930 . S
C211 C214 1.388 . S
C211 C216 1.418 . S
C212 H207 0.930 . S
C212 C215 1.404 . S
C212 C216 1.353 . S
N213 Co178 2.145 . S
N213 C214 1.397 . S
N213 C215 1.334 . S
C214 H195 0.929 . S
C214 C211 1.388 . S
C214 N213 1.397 . S
C215 H196 0.929 . S
C215 C212 1.404 . S
C215 N213 1.334 . S
C216 H208 0.930 . S
C216 C211 1.418 . S
C216 C212 1.353 . S
C217 H187 0.930 . S
C217 N218 1.330 . S
C217 C219 1.446 . S
N218 Co177 2.151 . S
N218 C217 1.330 . S
N218 C222 1.418 . S
C219 H198 0.929 . S
C219 C217 1.446 . S
C219 C220 1.332 . S
C220 H200 0.931 . S
C220 C219 1.332 . S
C220 C221 1.267 . S
C221 H189 0.929 . S
C221 C220 1.267 . S
C221 C222 1.251 . S
C222 H192 0.929 . S
C222 N218 1.418 . S
C222 C221 1.251 . S
C223 H190 0.930 . S
C223 C225 1.406 . S
C223 C228 1.261 . S
C224 H191 0.930 . S
C224 N226 1.325 . S
C224 C227 1.357 . S
C225 H193 0.928 . S
C225 C223 1.406 . S
C225 N226 1.261 . S
N226 Co177 2.214 . S
N226 C224 1.325 . S
N226 C225 1.261 . S
C227 H197 0.931 . S
C227 C224 1.357 . S
C227 C228 1.312 . S
C228 H199 0.930 . S
C228 C223 1.261 . S
C228 C227 1.312 . S
C229 O201 1.214 . S
C229 O209 1.234 . S
C230 H202 0.929 . S
C230 C233 1.391 . S
C230 C235 1.391 . S
C231 H203 0.929 . S
C231 C232 1.390 . S
C231 N234 1.391 . S
C232 H204 0.930 . S
C232 C231 1.390 . S
C232 C233 1.392 . S
C233 H205 0.929 . S
C233 C230 1.391 . S
C233 C232 1.392 . S
N234 Co178 2.257 . S
N234 C231 1.391 . S
N234 C235 1.388 . S
C235 H206 0.930 . S
C235 C230 1.391 . S
C235 N234 1.388 . S
Co236 O238 2.143 . S
Co236 O244 2.074 . S
Co236 O247 2.093 . S
Co236 O260 2.097 . S
Co236 N277 2.151 . S
Co236 N285 2.214 . S
Co237 O238 2.160 . S
Co237 O243 2.058 . S
Co237 O253 2.057 . S
Co237 O268 2.037 . S
Co237 N272 2.145 . S
Co237 N293 2.257 . S
O238 Co236 2.143 . S
O238 Co237 2.160 . S
C239 O240 1.278 . S
C239 O247 1.224 . S
O240 C239 1.278 . S
C241 O242 1.245 . S
C241 O253 1.232 . S
O242 C241 1.245 . S
O243 Co237 2.058 . S
O243 C269 1.269 . S
O244 Co236 2.074 . S
O244 C269 1.257 . S
H245 C270 0.930 . S
H246 C276 0.930 . S
O247 Co236 2.093 . S
O247 C239 1.224 . S
H248 C280 0.929 . S
H249 C282 0.930 . S
H250 C283 0.930 . S
H251 C281 0.929 . S
H252 C284 0.928 . S
O253 Co237 2.057 . S
O253 C241 1.232 . S
H254 C273 0.929 . S
H255 C274 0.929 . S
H256 C286 0.931 . S
H257 C278 0.929 . S
H258 C287 0.930 . S
H259 C279 0.931 . S
O260 Co236 2.097 . S
O260 C288 1.214 . S
H261 C289 0.929 . S
H262 C290 0.929 . S
H263 C291 0.930 . S
H264 C292 0.929 . S
H265 C294 0.930 . S
H266 C271 0.930 . S
H267 C275 0.930 . S
O268 Co237 2.037 . S
O268 C288 1.234 . S
C269 O243 1.269 . S
C269 O244 1.257 . S
C270 H245 0.930 . S
C270 C273 1.388 . S
C270 C275 1.418 . S
C271 H266 0.930 . S
C271 C274 1.404 . S
C271 C275 1.353 . S
N272 Co237 2.145 . S
N272 C273 1.397 . S
N272 C274 1.334 . S
C273 H254 0.929 . S
C273 C270 1.388 . S
C273 N272 1.397 . S
C274 H255 0.929 . S
C274 C271 1.404 . S
C274 N272 1.334 . S
C275 H267 0.930 . S
C275 C270 1.418 . S
C275 C271 1.353 . S
C276 H246 0.930 . S
C276 N277 1.330 . S
C276 C278 1.446 . S
N277 Co236 2.151 . S
N277 C276 1.330 . S
N277 C281 1.418 . S
C278 H257 0.929 . S
C278 C276 1.446 . S
C278 C279 1.332 . S
C279 H259 0.931 . S
C279 C278 1.332 . S
C279 C280 1.267 . S
C280 H248 0.929 . S
C280 C279 1.267 . S
C280 C281 1.251 . S
C281 H251 0.929 . S
C281 N277 1.418 . S
C281 C280 1.251 . S
C282 H249 0.930 . S
C282 C284 1.406 . S
C282 C287 1.261 . S
C283 H250 0.930 . S
C283 N285 1.325 . S
C283 C286 1.357 . S
C284 H252 0.928 . S
C284 C282 1.406 . S
C284 N285 1.261 . S
N285 Co236 2.214 . S
N285 C283 1.325 . S
N285 C284 1.261 . S
C286 H256 0.931 . S
C286 C283 1.357 . S
C286 C287 1.312 . S
C287 H258 0.930 . S
C287 C282 1.261 . S
C287 C286 1.312 . S
C288 O260 1.214 . S
C288 O268 1.234 . S
C289 H261 0.929 . S
C289 C292 1.391 . S
C289 C294 1.391 . S
C290 H262 0.929 . S
C290 C291 1.390 . S
C290 N293 1.391 . S
C291 H263 0.930 . S
C291 C290 1.390 . S
C291 C292 1.392 . S
C292 H264 0.929 . S
C292 C289 1.391 . S
C292 C291 1.392 . S
N293 Co237 2.257 . S
N293 C290 1.391 . S
N293 C294 1.388 . S
C294 H265 0.930 . S
C294 C289 1.391 . S
C294 N293 1.388 . S
Co295 O297 2.143 . S
Co295 O303 2.074 . S
Co295 O306 2.093 . S
Co295 O319 2.097 . S
Co295 N336 2.151 . S
Co295 N344 2.214 . S
Co296 O297 2.160 . S
Co296 O302 2.058 . S
Co296 O312 2.057 . S
Co296 O327 2.037 . S
Co296 N331 2.145 . S
Co296 N352 2.257 . S
O297 Co295 2.143 . S
O297 Co296 2.160 . S
C298 O299 1.278 . S
C298 O306 1.224 . S
O299 C298 1.278 . S
C300 O301 1.245 . S
C300 O312 1.232 . S
O301 C300 1.245 . S
O302 Co296 2.058 . S
O302 C328 1.269 . S
O303 Co295 2.074 . S
O303 C328 1.257 . S
H304 C329 0.930 . S
H305 C335 0.930 . S
O306 Co295 2.093 . S
O306 C298 1.224 . S
H307 C339 0.929 . S
H308 C341 0.930 . S
H309 C342 0.930 . S
H310 C340 0.929 . S
H311 C343 0.928 . S
O312 Co296 2.057 . S
O312 C300 1.232 . S
H313 C332 0.929 . S
H314 C333 0.929 . S
H315 C345 0.931 . S
H316 C337 0.929 . S
H317 C346 0.930 . S
H318 C338 0.931 . S
O319 Co295 2.097 . S
O319 C347 1.214 . S
H320 C348 0.929 . S
H321 C349 0.929 . S
H322 C350 0.930 . S
H323 C351 0.929 . S
H324 C353 0.930 . S
H325 C330 0.930 . S
H326 C334 0.930 . S
O327 Co296 2.037 . S
O327 C347 1.234 . S
C328 O302 1.269 . S
C328 O303 1.257 . S
C329 H304 0.930 . S
C329 C332 1.388 . S
C329 C334 1.418 . S
C330 H325 0.930 . S
C330 C333 1.404 . S
C330 C334 1.353 . S
N331 Co296 2.145 . S
N331 C332 1.397 . S
N331 C333 1.334 . S
C332 H313 0.929 . S
C332 C329 1.388 . S
C332 N331 1.397 . S
C333 H314 0.929 . S
C333 C330 1.404 . S
C333 N331 1.334 . S
C334 H326 0.930 . S
C334 C329 1.418 . S
C334 C330 1.353 . S
C335 H305 0.930 . S
C335 N336 1.330 . S
C335 C337 1.446 . S
N336 Co295 2.151 . S
N336 C335 1.330 . S
N336 C340 1.418 . S
C337 H316 0.929 . S
C337 C335 1.446 . S
C337 C338 1.332 1_556 S
C338 H318 0.931 . S
C338 C337 1.332 1_554 S
C338 C339 1.267 . S
C339 H307 0.929 . S
C339 C338 1.267 . S
C339 C340 1.251 1_554 S
C340 H310 0.929 . S
C340 N336 1.418 . S
C340 C339 1.251 1_556 S
C341 H308 0.930 . S
C341 C343 1.406 . S
C341 C346 1.261 . S
C342 H309 0.930 . S
C342 N344 1.325 . S
C342 C345 1.357 . S
C343 H311 0.928 . S
C343 C341 1.406 . S
C343 N344 1.261 . S
N344 Co295 2.214 . S
N344 C342 1.325 . S
N344 C343 1.261 . S
C345 H315 0.931 . S
C345 C342 1.357 . S
C345 C346 1.312 . S
C346 H317 0.930 . S
C346 C341 1.261 . S
C346 C345 1.312 . S
C347 O319 1.214 . S
C347 O327 1.234 . S
C348 H320 0.929 . S
C348 C351 1.391 . S
C348 C353 1.391 . S
C349 H321 0.929 . S
C349 C350 1.390 . S
C349 N352 1.391 . S
C350 H322 0.930 . S
C350 C349 1.390 . S
C350 C351 1.392 . S
C351 H323 0.929 . S
C351 C348 1.391 . S
C351 C350 1.392 . S
N352 Co296 2.257 . S
N352 C349 1.391 . S
N352 C353 1.388 . S
C353 H324 0.930 . S
C353 C348 1.391 . S
C353 N352 1.388 . S
Co354 O356 2.143 . S
Co354 O362 2.074 . S
Co354 O365 2.093 . S
Co354 O378 2.097 . S
Co354 N395 2.151 . S
Co354 N403 2.214 . S
Co355 O356 2.160 . S
Co355 O361 2.058 . S
Co355 O371 2.057 . S
Co355 O386 2.037 . S
Co355 N390 2.145 . S
Co355 N411 2.257 . S
O356 Co354 2.143 . S
O356 Co355 2.160 . S
C357 O358 1.278 . S
C357 O365 1.224 . S
O358 C357 1.278 . S
C359 O360 1.245 . S
C359 O371 1.232 . S
O360 C359 1.245 . S
O361 Co355 2.058 . S
O361 C387 1.269 . S
O362 Co354 2.074 . S
O362 C387 1.257 . S
H363 C388 0.930 . S
H364 C394 0.930 . S
O365 Co354 2.093 . S
O365 C357 1.224 . S
H366 C398 0.929 . S
H367 C400 0.930 . S
H368 C401 0.930 . S
H369 C399 0.929 . S
H370 C402 0.928 . S
O371 Co355 2.057 . S
O371 C359 1.232 . S
H372 C391 0.929 . S
H373 C392 0.929 . S
H374 C404 0.931 . S
H375 C396 0.929 . S
H376 C405 0.930 . S
H377 C397 0.931 . S
O378 Co354 2.097 . S
O378 C406 1.214 . S
H379 C407 0.929 . S
H380 C408 0.929 . S
H381 C409 0.930 . S
H382 C410 0.929 . S
H383 C412 0.930 . S
H384 C389 0.930 . S
H385 C393 0.930 . S
O386 Co355 2.037 . S
O386 C406 1.234 . S
C387 O361 1.269 . S
C387 O362 1.257 . S
C388 H363 0.930 . S
C388 C391 1.388 . S
C388 C393 1.418 . S
C389 H384 0.930 . S
C389 C392 1.404 . S
C389 C393 1.353 . S
N390 Co355 2.145 . S
N390 C391 1.397 . S
N390 C392 1.334 . S
C391 H372 0.929 . S
C391 C388 1.388 . S
C391 N390 1.397 . S
C392 H373 0.929 . S
C392 C389 1.404 . S
C392 N390 1.334 . S
C393 H385 0.930 . S
C393 C388 1.418 . S
C393 C389 1.353 . S
C394 H364 0.930 . S
C394 N395 1.330 . S
C394 C396 1.446 1_556 S
N395 Co354 2.151 . S
N395 C394 1.330 . S
N395 C399 1.418 . S
C396 H375 0.929 . S
C396 C394 1.446 1_554 S
C396 C397 1.332 . S
C397 H377 0.931 . S
C397 C396 1.332 . S
C397 C398 1.267 . S
C398 H366 0.929 . S
C398 C397 1.267 . S
C398 C399 1.251 1_554 S
C399 H369 0.929 . S
C399 N395 1.418 . S
C399 C398 1.251 1_556 S
C400 H367 0.930 . S
C400 C402 1.406 . S
C400 C405 1.261 . S
C401 H368 0.930 . S
C401 N403 1.325 . S
C401 C404 1.357 . S
C402 H370 0.928 . S
C402 C400 1.406 . S
C402 N403 1.261 . S
N403 Co354 2.214 . S
N403 C401 1.325 . S
N403 C402 1.261 . S
C404 H374 0.931 . S
C404 C401 1.357 . S
C404 C405 1.312 . S
C405 H376 0.930 . S
C405 C400 1.261 . S
C405 C404 1.312 . S
C406 O378 1.214 . S
C406 O386 1.234 . S
C407 H379 0.929 . S
C407 C410 1.391 . S
C407 C412 1.391 . S
C408 H380 0.929 . S
C408 C409 1.390 . S
C408 N411 1.391 . S
C409 H381 0.930 . S
C409 C408 1.390 . S
C409 C410 1.392 . S
C410 H382 0.929 . S
C410 C407 1.391 . S
C410 C409 1.392 . S
N411 Co355 2.257 . S
N411 C408 1.391 . S
N411 C412 1.388 . S
C412 H383 0.930 . S
C412 C407 1.391 . S
C412 N411 1.388 . S
Co413 O415 2.143 . S
Co413 O421 2.074 . S
Co413 O424 2.093 . S
Co413 O437 2.097 1_554 S
Co413 N454 2.151 . S
Co413 N462 2.214 . S
Co414 O415 2.160 . S
Co414 O420 2.058 . S
Co414 O430 2.057 . S
Co414 O445 2.037 . S
Co414 N449 2.145 . S
Co414 N470 2.257 1_554 S
O415 Co413 2.143 . S
O415 Co414 2.160 . S
C416 O417 1.278 . S
C416 O424 1.224 . S
O417 C416 1.278 . S
C418 O419 1.245 . S
C418 O430 1.232 . S
O419 C418 1.245 . S
O420 Co414 2.058 . S
O420 C446 1.269 . S
O421 Co413 2.074 . S
O421 C446 1.257 . S
H422 C447 0.930 . S
H423 C453 0.930 . S
O424 Co413 2.093 . S
O424 C416 1.224 . S
H425 C457 0.929 . S
H426 C459 0.930 . S
H427 C460 0.930 . S
H428 C458 0.929 . S
H429 C461 0.928 . S
O430 Co414 2.057 . S
O430 C418 1.232 . S
H431 C450 0.929 . S
H432 C451 0.929 . S
H433 C463 0.931 . S
H434 C455 0.929 . S
H435 C464 0.930 . S
H436 C456 0.931 . S
O437 Co413 2.097 1_556 S
O437 C465 1.214 . S
H438 C466 0.929 . S
H439 C467 0.929 . S
H440 C468 0.930 . S
H441 C469 0.929 . S
H442 C471 0.930 1_554 S
H443 C448 0.930 . S
H444 C452 0.930 . S
O445 Co414 2.037 . S
O445 C465 1.234 1_554 S
C446 O420 1.269 . S
C446 O421 1.257 . S
C447 H422 0.930 . S
C447 C450 1.388 . S
C447 C452 1.418 . S
C448 H443 0.930 . S
C448 C451 1.404 . S
C448 C452 1.353 . S
N449 Co414 2.145 . S
N449 C450 1.397 . S
N449 C451 1.334 . S
C450 H431 0.929 . S
C450 C447 1.388 . S
C450 N449 1.397 . S
C451 H432 0.929 . S
C451 C448 1.404 . S
C451 N449 1.334 . S
C452 H444 0.930 . S
C452 C447 1.418 . S
C452 C448 1.353 . S
C453 H423 0.930 . S
C453 N454 1.330 . S
C453 C455 1.446 . S
N454 Co413 2.151 . S
N454 C453 1.330 . S
N454 C458 1.418 . S
C455 H434 0.929 . S
C455 C453 1.446 . S
C455 C456 1.332 . S
C456 H436 0.931 . S
C456 C455 1.332 . S
C456 C457 1.267 . S
C457 H425 0.929 . S
C457 C456 1.267 . S
C457 C458 1.251 . S
C458 H428 0.929 . S
C458 N454 1.418 . S
C458 C457 1.251 . S
C459 H426 0.930 . S
C459 C461 1.406 . S
C459 C464 1.261 . S
C460 H427 0.930 . S
C460 N462 1.325 . S
C460 C463 1.357 . S
C461 H429 0.928 . S
C461 C459 1.406 . S
C461 N462 1.261 . S
N462 Co413 2.214 . S
N462 C460 1.325 . S
N462 C461 1.261 . S
C463 H433 0.931 . S
C463 C460 1.357 . S
C463 C464 1.312 . S
C464 H435 0.930 . S
C464 C459 1.261 . S
C464 C463 1.312 . S
C465 O437 1.214 . S
C465 O445 1.234 1_556 S
C466 H438 0.929 . S
C466 C469 1.391 . S
C466 C471 1.391 . S
C467 H439 0.929 . S
C467 C468 1.390 . S
C467 N470 1.391 . S
C468 H440 0.930 . S
C468 C467 1.390 . S
C468 C469 1.392 . S
C469 H441 0.929 . S
C469 C466 1.391 . S
C469 C468 1.392 . S
N470 Co414 2.257 1_556 S
N470 C467 1.391 . S
N470 C471 1.388 . S
C471 H442 0.930 1_556 S
C471 C466 1.391 . S
C471 N470 1.388 . S
Co472 O474 2.143 . S
Co472 O480 2.074 . S
Co472 O483 2.093 . S
Co472 O496 2.097 . S
Co472 N513 2.151 . S
Co472 N521 2.214 . S
Co473 O474 2.160 . S
Co473 O479 2.058 . S
Co473 O489 2.057 . S
Co473 O504 2.037 . S
Co473 N508 2.145 . S
Co473 N529 2.257 . S
O474 Co472 2.143 . S
O474 Co473 2.160 . S
C475 O476 1.278 . S
C475 O483 1.224 . S
O476 C475 1.278 . S
C477 O478 1.245 . S
C477 O489 1.232 . S
O478 C477 1.245 . S
O479 Co473 2.058 . S
O479 C505 1.269 . S
O480 Co472 2.074 . S
O480 C505 1.257 . S
H481 C506 0.930 . S
H482 C512 0.930 . S
O483 Co472 2.093 . S
O483 C475 1.224 . S
H484 C516 0.929 . S
H485 C518 0.930 . S
H486 C519 0.930 . S
H487 C517 0.929 . S
H488 C520 0.928 . S
O489 Co473 2.057 . S
O489 C477 1.232 . S
H490 C509 0.929 . S
H491 C510 0.929 . S
H492 C522 0.931 . S
H493 C514 0.929 . S
H494 C523 0.930 . S
H495 C515 0.931 . S
O496 Co472 2.097 . S
O496 C524 1.214 . S
H497 C525 0.929 . S
H498 C526 0.929 . S
H499 C527 0.930 . S
H500 C528 0.929 . S
H501 C530 0.930 . S
H502 C507 0.930 . S
H503 C511 0.930 . S
O504 Co473 2.037 . S
O504 C524 1.234 . S
C505 O479 1.269 . S
C505 O480 1.257 . S
C506 H481 0.930 . S
C506 C509 1.388 . S
C506 C511 1.418 . S
C507 H502 0.930 . S
C507 C510 1.404 . S
C507 C511 1.353 . S
N508 Co473 2.145 . S
N508 C509 1.397 . S
N508 C510 1.334 . S
C509 H490 0.929 . S
C509 C506 1.388 . S
C509 N508 1.397 . S
C510 H491 0.929 . S
C510 C507 1.404 . S
C510 N508 1.334 . S
C511 H503 0.930 . S
C511 C506 1.418 . S
C511 C507 1.353 . S
C512 H482 0.930 . S
C512 N513 1.330 . S
C512 C514 1.446 . S
N513 Co472 2.151 . S
N513 C512 1.330 . S
N513 C517 1.418 . S
C514 H493 0.929 . S
C514 C512 1.446 . S
C514 C515 1.332 . S
C515 H495 0.931 . S
C515 C514 1.332 . S
C515 C516 1.267 . S
C516 H484 0.929 . S
C516 C515 1.267 . S
C516 C517 1.251 . S
C517 H487 0.929 . S
C517 N513 1.418 . S
C517 C516 1.251 . S
C518 H485 0.930 . S
C518 C520 1.406 . S
C518 C523 1.261 . S
C519 H486 0.930 . S
C519 N521 1.325 . S
C519 C522 1.357 . S
C520 H488 0.928 . S
C520 C518 1.406 . S
C520 N521 1.261 . S
N521 Co472 2.214 . S
N521 C519 1.325 . S
N521 C520 1.261 . S
C522 H492 0.931 . S
C522 C519 1.357 . S
C522 C523 1.312 . S
C523 H494 0.930 . S
C523 C518 1.261 . S
C523 C522 1.312 . S
C524 O496 1.214 . S
C524 O504 1.234 . S
C525 H497 0.929 . S
C525 C528 1.391 . S
C525 C530 1.391 . S
C526 H498 0.929 . S
C526 C527 1.390 . S
C526 N529 1.391 . S
C527 H499 0.930 . S
C527 C526 1.390 . S
C527 C528 1.392 . S
C528 H500 0.929 . S
C528 C525 1.391 . S
C528 C527 1.392 . S
N529 Co473 2.257 . S
N529 C526 1.391 . S
N529 C530 1.388 . S
C530 H501 0.930 . S
C530 C525 1.391 . S
C530 N529 1.388 . S
Co531 O533 2.143 . S
Co531 O539 2.074 . S
Co531 O542 2.093 . S
Co531 O555 2.097 . S
Co531 N572 2.151 . S
Co531 N580 2.214 . S
Co532 O533 2.160 . S
Co532 O538 2.058 . S
Co532 O548 2.057 . S
Co532 O563 2.037 . S
Co532 N567 2.145 . S
Co532 N588 2.257 . S
O533 Co531 2.143 . S
O533 Co532 2.160 . S
C534 O535 1.278 . S
C534 O542 1.224 . S
O535 C534 1.278 . S
C536 O537 1.245 . S
C536 O548 1.232 . S
O537 C536 1.245 . S
O538 Co532 2.058 . S
O538 C564 1.269 . S
O539 Co531 2.074 . S
O539 C564 1.257 . S
H540 C565 0.930 . S
H541 C571 0.930 . S
O542 Co531 2.093 . S
O542 C534 1.224 . S
H543 C575 0.929 . S
H544 C577 0.930 . S
H545 C578 0.930 . S
H546 C576 0.929 . S
H547 C579 0.928 . S
O548 Co532 2.057 . S
O548 C536 1.232 . S
H549 C568 0.929 . S
H550 C569 0.929 . S
H551 C581 0.931 . S
H552 C573 0.929 . S
H553 C582 0.930 . S
H554 C574 0.931 . S
O555 Co531 2.097 . S
O555 C583 1.214 . S
H556 C584 0.929 . S
H557 C585 0.929 . S
H558 C586 0.930 . S
H559 C587 0.929 . S
H560 C589 0.930 . S
H561 C566 0.930 . S
H562 C570 0.930 . S
O563 Co532 2.037 . S
O563 C583 1.234 . S
C564 O538 1.269 . S
C564 O539 1.257 . S
C565 H540 0.930 . S
C565 C568 1.388 . S
C565 C570 1.418 . S
C566 H561 0.930 . S
C566 C569 1.404 . S
C566 C570 1.353 . S
N567 Co532 2.145 . S
N567 C568 1.397 . S
N567 C569 1.334 . S
C568 H549 0.929 . S
C568 C565 1.388 . S
C568 N567 1.397 . S
C569 H550 0.929 . S
C569 C566 1.404 . S
C569 N567 1.334 . S
C570 H562 0.930 . S
C570 C565 1.418 . S
C570 C566 1.353 . S
C571 H541 0.930 . S
C571 N572 1.330 . S
C571 C573 1.446 . S
N572 Co531 2.151 . S
N572 C571 1.330 . S
N572 C576 1.418 . S
C573 H552 0.929 . S
C573 C571 1.446 . S
C573 C574 1.332 . S
C574 H554 0.931 . S
C574 C573 1.332 . S
C574 C575 1.267 . S
C575 H543 0.929 . S
C575 C574 1.267 . S
C575 C576 1.251 . S
C576 H546 0.929 . S
C576 N572 1.418 . S
C576 C575 1.251 . S
C577 H544 0.930 . S
C577 C579 1.406 . S
C577 C582 1.261 . S
C578 H545 0.930 . S
C578 N580 1.325 . S
C578 C581 1.357 . S
C579 H547 0.928 . S
C579 C577 1.406 . S
C579 N580 1.261 . S
N580 Co531 2.214 . S
N580 C578 1.325 . S
N580 C579 1.261 . S
C581 H551 0.931 . S
C581 C578 1.357 . S
C581 C582 1.312 . S
C582 H553 0.930 . S
C582 C577 1.261 . S
C582 C581 1.312 . S
C583 O555 1.214 . S
C583 O563 1.234 . S
C584 H556 0.929 . S
C584 C587 1.391 . S
C584 C589 1.391 . S
C585 H557 0.929 . S
C585 C586 1.390 . S
C585 N588 1.391 . S
C586 H558 0.930 . S
C586 C585 1.390 . S
C586 C587 1.392 . S
C587 H559 0.929 . S
C587 C584 1.391 . S
C587 C586 1.392 . S
N588 Co532 2.257 . S
N588 C585 1.391 . S
N588 C589 1.388 . S
C589 H560 0.930 . S
C589 C584 1.391 . S
C589 N588 1.388 . S
Co590 O592 2.143 . S
Co590 O598 2.074 . S
Co590 O601 2.093 . S
Co590 O614 2.097 . S
Co590 N631 2.151 . S
Co590 N639 2.214 . S
Co591 O592 2.160 . S
Co591 O597 2.058 . S
Co591 O607 2.057 . S
Co591 O622 2.037 . S
Co591 N626 2.145 . S
Co591 N647 2.257 . S
O592 Co590 2.143 . S
O592 Co591 2.160 . S
C593 O594 1.278 . S
C593 O601 1.224 . S
O594 C593 1.278 . S
C595 O596 1.245 . S
C595 O607 1.232 . S
O596 C595 1.245 . S
O597 Co591 2.058 . S
O597 C623 1.269 . S
O598 Co590 2.074 . S
O598 C623 1.257 . S
H599 C624 0.930 . S
H600 C630 0.930 . S
O601 Co590 2.093 . S
O601 C593 1.224 . S
H602 C634 0.929 . S
H603 C636 0.930 . S
H604 C637 0.930 . S
H605 C635 0.929 . S
H606 C638 0.928 . S
O607 Co591 2.057 . S
O607 C595 1.232 . S
H608 C627 0.929 . S
H609 C628 0.929 . S
H610 C640 0.931 . S
H611 C632 0.929 . S
H612 C641 0.930 . S
H613 C633 0.931 . S
O614 Co590 2.097 . S
O614 C642 1.214 . S
H615 C643 0.929 . S
H616 C644 0.929 . S
H617 C645 0.930 . S
H618 C646 0.929 . S
H619 C648 0.930 . S
H620 C625 0.930 . S
H621 C629 0.930 . S
O622 Co591 2.037 . S
O622 C642 1.234 . S
C623 O597 1.269 . S
C623 O598 1.257 . S
C624 H599 0.930 . S
C624 C627 1.388 . S
C624 C629 1.418 . S
C625 H620 0.930 . S
C625 C628 1.404 . S
C625 C629 1.353 . S
N626 Co591 2.145 . S
N626 C627 1.397 . S
N626 C628 1.334 . S
C627 H608 0.929 . S
C627 C624 1.388 . S
C627 N626 1.397 . S
C628 H609 0.929 . S
C628 C625 1.404 . S
C628 N626 1.334 . S
C629 H621 0.930 . S
C629 C624 1.418 . S
C629 C625 1.353 . S
C630 H600 0.930 . S
C630 N631 1.330 . S
C630 C632 1.446 . S
N631 Co590 2.151 . S
N631 C630 1.330 . S
N631 C635 1.418 . S
C632 H611 0.929 . S
C632 C630 1.446 . S
C632 C633 1.332 . S
C633 H613 0.931 . S
C633 C632 1.332 . S
C633 C634 1.267 . S
C634 H602 0.929 . S
C634 C633 1.267 . S
C634 C635 1.251 . S
C635 H605 0.929 . S
C635 N631 1.418 . S
C635 C634 1.251 . S
C636 H603 0.930 . S
C636 C638 1.406 . S
C636 C641 1.261 . S
C637 H604 0.930 . S
C637 N639 1.325 . S
C637 C640 1.357 . S
C638 H606 0.928 . S
C638 C636 1.406 . S
C638 N639 1.261 . S
N639 Co590 2.214 . S
N639 C637 1.325 . S
N639 C638 1.261 . S
C640 H610 0.931 . S
C640 C637 1.357 . S
C640 C641 1.312 . S
C641 H612 0.930 . S
C641 C636 1.261 . S
C641 C640 1.312 . S
C642 O614 1.214 . S
C642 O622 1.234 . S
C643 H615 0.929 . S
C643 C646 1.391 . S
C643 C648 1.391 . S
C644 H616 0.929 . S
C644 C645 1.390 . S
C644 N647 1.391 . S
C645 H617 0.930 . S
C645 C644 1.390 . S
C645 C646 1.392 . S
C646 H618 0.929 . S
C646 C643 1.391 . S
C646 C645 1.392 . S
N647 Co591 2.257 . S
N647 C644 1.391 . S
N647 C648 1.388 . S
C648 H619 0.930 . S
C648 C643 1.391 . S
C648 N647 1.388 . S
Co649 O651 2.143 . S
Co649 O657 2.074 . S
Co649 O660 2.093 . S
Co649 O673 2.097 . S
Co649 N690 2.151 . S
Co649 N698 2.214 . S
Co650 O651 2.160 . S
Co650 O656 2.058 . S
Co650 O666 2.057 . S
Co650 O681 2.037 . S
Co650 N685 2.145 . S
Co650 N706 2.257 . S
O651 Co649 2.143 . S
O651 Co650 2.160 . S
C652 O653 1.278 . S
C652 O660 1.224 . S
O653 C652 1.278 . S
C654 O655 1.245 . S
C654 O666 1.232 . S
O655 C654 1.245 . S
O656 Co650 2.058 . S
O656 C682 1.269 . S
O657 Co649 2.074 . S
O657 C682 1.257 . S
H658 C683 0.930 . S
H659 C689 0.930 . S
O660 Co649 2.093 . S
O660 C652 1.224 . S
H661 C693 0.929 . S
H662 C695 0.930 . S
H663 C696 0.930 . S
H664 C694 0.929 . S
H665 C697 0.928 . S
O666 Co650 2.057 . S
O666 C654 1.232 . S
H667 C686 0.929 . S
H668 C687 0.929 . S
H669 C699 0.931 . S
H670 C691 0.929 . S
H671 C700 0.930 . S
H672 C692 0.931 . S
O673 Co649 2.097 . S
O673 C701 1.214 . S
H674 C702 0.929 . S
H675 C703 0.929 . S
H676 C704 0.930 . S
H677 C705 0.929 . S
H678 C707 0.930 . S
H679 C684 0.930 . S
H680 C688 0.930 . S
O681 Co650 2.037 . S
O681 C701 1.234 . S
C682 O656 1.269 . S
C682 O657 1.257 . S
C683 H658 0.930 . S
C683 C686 1.388 . S
C683 C688 1.418 . S
C684 H679 0.930 . S
C684 C687 1.404 . S
C684 C688 1.353 . S
N685 Co650 2.145 . S
N685 C686 1.397 . S
N685 C687 1.334 . S
C686 H667 0.929 . S
C686 C683 1.388 . S
C686 N685 1.397 . S
C687 H668 0.929 . S
C687 C684 1.404 . S
C687 N685 1.334 . S
C688 H680 0.930 . S
C688 C683 1.418 . S
C688 C684 1.353 . S
C689 H659 0.930 . S
C689 N690 1.330 . S
C689 C691 1.446 . S
N690 Co649 2.151 . S
N690 C689 1.330 . S
N690 C694 1.418 . S
C691 H670 0.929 . S
C691 C689 1.446 . S
C691 C692 1.332 . S
C692 H672 0.931 . S
C692 C691 1.332 . S
C692 C693 1.267 . S
C693 H661 0.929 . S
C693 C692 1.267 . S
C693 C694 1.251 . S
C694 H664 0.929 . S
C694 N690 1.418 . S
C694 C693 1.251 . S
C695 H662 0.930 . S
C695 C697 1.406 . S
C695 C700 1.261 . S
C696 H663 0.930 . S
C696 N698 1.325 . S
C696 C699 1.357 . S
C697 H665 0.928 . S
C697 C695 1.406 . S
C697 N698 1.261 . S
N698 Co649 2.214 . S
N698 C696 1.325 . S
N698 C697 1.261 . S
C699 H669 0.931 . S
C699 C696 1.357 . S
C699 C700 1.312 . S
C700 H671 0.930 . S
C700 C695 1.261 . S
C700 C699 1.312 . S
C701 O673 1.214 . S
C701 O681 1.234 . S
C702 H674 0.929 . S
C702 C705 1.391 . S
C702 C707 1.391 . S
C703 H675 0.929 . S
C703 C704 1.390 . S
C703 N706 1.391 . S
C704 H676 0.930 . S
C704 C703 1.390 . S
C704 C705 1.392 . S
C705 H677 0.929 . S
C705 C702 1.391 . S
C705 C704 1.392 . S
N706 Co650 2.257 . S
N706 C703 1.391 . S
N706 C707 1.388 . S
C707 H678 0.930 . S
C707 C702 1.391 . S
C707 N706 1.388 . S
H708 C716 0.929 . S
H709 C718 0.930 . S
H710 C720 0.930 . S
H711 C723 0.929 . S
H712 C726 0.930 . S
H713 C728 0.960 . S
H714 C728 0.960 . S
H715 C728 0.960 . S
C716 H708 0.929 . S
C716 C717 1.377 . S
C716 C718 1.384 . S
C717 C716 1.377 . S
C717 C723 1.390 . S
C718 H709 0.930 . S
C718 C716 1.384 . S
C718 C719 1.372 . S
C719 C718 1.372 . S
C719 C720 1.400 . S
C719 C724 1.490 . S
C720 H710 0.930 . S
C720 C719 1.400 . S
C720 C723 1.386 . S
H721 C737 0.930 . S
H722 C738 0.931 . S
C723 H711 0.929 . S
C723 C717 1.390 . S
C723 C720 1.386 . S
C724 C719 1.490 . S
C724 C726 1.395 . S
C724 C727 1.403 . S
H725 C731 0.930 . S
C726 H712 0.930 . S
C726 C724 1.395 . S
C726 C729 1.403 . S
C727 C724 1.403 . S
C727 C728 1.524 . S
C727 C731 1.400 . S
C728 H713 0.960 . S
C728 H714 0.960 . S
C728 H715 0.960 . S
C728 C727 1.524 . S
C729 C726 1.403 . S
C729 C730 1.392 . S
C729 C733 1.495 . S
C730 C729 1.392 . S
C730 C731 1.385 . S
C730 C732 1.478 . S
C731 H725 0.930 . S
C731 C727 1.400 . S
C731 C730 1.385 . S
C732 C730 1.478 . S
C732 C734 1.381 . S
C732 C738 1.383 . S
C733 C729 1.495 . S
C733 H739 0.959 . S
C733 H740 0.961 . S
C733 H741 0.960 . S
C734 C732 1.381 . S
C734 C735 1.394 . S
C734 H742 0.930 . S
C735 C734 1.394 . S
C735 C736 1.383 . S
C735 H743 0.929 . S
C736 C735 1.383 . S
C736 C737 1.377 . S
C737 H721 0.930 . S
C737 C736 1.377 . S
C737 C738 1.379 . S
C738 H722 0.931 . S
C738 C732 1.383 . S
C738 C737 1.379 . S
H739 C733 0.959 . S
H740 C733 0.961 . S
H741 C733 0.960 . S
H742 C734 0.930 . S
H743 C735 0.929 . S
H744 C752 0.929 . S
H745 C754 0.930 . S
H746 C756 0.930 . S
H747 C759 0.929 . S
H748 C762 0.930 . S
H749 C764 0.960 . S
H750 C764 0.960 . S
H751 C764 0.960 . S
C752 H744 0.929 . S
C752 C753 1.377 . S
C752 C754 1.384 . S
C753 C752 1.377 . S
C753 C759 1.390 . S
C754 H745 0.930 . S
C754 C752 1.384 . S
C754 C755 1.372 . S
C755 C754 1.372 . S
C755 C756 1.400 . S
C755 C760 1.490 . S
C756 H746 0.930 . S
C756 C755 1.400 . S
C756 C759 1.386 . S
H757 C773 0.930 . S
H758 C774 0.931 . S
C759 H747 0.929 . S
C759 C753 1.390 . S
C759 C756 1.386 . S
C760 C755 1.490 . S
C760 C762 1.395 . S
C760 C763 1.403 . S
H761 C767 0.930 . S
C762 H748 0.930 . S
C762 C760 1.395 . S
C762 C765 1.403 . S
C763 C760 1.403 . S
C763 C764 1.524 . S
C763 C767 1.400 . S
C764 H749 0.960 . S
C764 H750 0.960 . S
C764 H751 0.960 . S
C764 C763 1.524 . S
C765 C762 1.403 . S
C765 C766 1.392 . S
C765 C769 1.495 . S
C766 C765 1.392 . S
C766 C767 1.385 . S
C766 C768 1.478 . S
C767 H761 0.930 . S
C767 C763 1.400 . S
C767 C766 1.385 . S
C768 C766 1.478 . S
C768 C770 1.381 . S
C768 C774 1.383 . S
C769 C765 1.495 . S
C769 H775 0.959 . S
C769 H776 0.961 . S
C769 H777 0.960 . S
C770 C768 1.381 . S
C770 C771 1.394 . S
C770 H778 0.930 . S
C771 C770 1.394 . S
C771 C772 1.383 . S
C771 H779 0.929 . S
C772 C771 1.383 . S
C772 C773 1.377 . S
C773 H757 0.930 . S
C773 C772 1.377 . S
C773 C774 1.379 . S
C774 H758 0.931 . S
C774 C768 1.383 . S
C774 C773 1.379 . S
H775 C769 0.959 . S
H776 C769 0.961 . S
H777 C769 0.960 . S
H778 C770 0.930 . S
H779 C771 0.929 . S
H780 C788 0.929 . S
H781 C790 0.930 . S
H782 C792 0.930 . S
H783 C795 0.929 . S
H784 C798 0.930 . S
H785 C800 0.960 . S
H786 C800 0.960 . S
H787 C800 0.960 . S
C788 H780 0.929 . S
C788 C789 1.377 . S
C788 C790 1.384 . S
C789 C788 1.377 . S
C789 C795 1.390 . S
C790 H781 0.930 . S
C790 C788 1.384 . S
C790 C791 1.372 . S
C791 C790 1.372 . S
C791 C792 1.400 . S
C791 C796 1.490 . S
C792 H782 0.930 . S
C792 C791 1.400 . S
C792 C795 1.386 . S
H793 C809 0.930 . S
H794 C810 0.931 . S
C795 H783 0.929 . S
C795 C789 1.390 . S
C795 C792 1.386 . S
C796 C791 1.490 . S
C796 C798 1.395 . S
C796 C799 1.403 . S
H797 C803 0.930 . S
C798 H784 0.930 . S
C798 C796 1.395 . S
C798 C801 1.403 . S
C799 C796 1.403 . S
C799 C800 1.524 . S
C799 C803 1.400 . S
C800 H785 0.960 . S
C800 H786 0.960 . S
C800 H787 0.960 . S
C800 C799 1.524 . S
C801 C798 1.403 . S
C801 C802 1.392 . S
C801 C805 1.495 . S
C802 C801 1.392 . S
C802 C803 1.385 . S
C802 C804 1.478 . S
C803 H797 0.930 . S
C803 C799 1.400 . S
C803 C802 1.385 . S
C804 C802 1.478 . S
C804 C806 1.381 . S
C804 C810 1.383 . S
C805 C801 1.495 . S
C805 H811 0.959 . S
C805 H812 0.961 . S
C805 H813 0.960 . S
C806 C804 1.381 . S
C806 C807 1.394 . S
C806 H814 0.930 . S
C807 C806 1.394 . S
C807 C808 1.383 . S
C807 H815 0.929 . S
C808 C807 1.383 . S
C808 C809 1.377 . S
C809 H793 0.930 . S
C809 C808 1.377 . S
C809 C810 1.379 . S
C810 H794 0.931 . S
C810 C804 1.383 . S
C810 C809 1.379 . S
H811 C805 0.959 . S
H812 C805 0.961 . S
H813 C805 0.960 . S
H814 C806 0.930 . S
H815 C807 0.929 . S
H816 C824 0.929 . S
H817 C826 0.930 . S
H818 C828 0.930 . S
H819 C831 0.929 . S
H820 C834 0.930 . S
H821 C836 0.960 . S
H822 C836 0.960 . S
H823 C836 0.960 . S
C824 H816 0.929 . S
C824 C825 1.377 . S
C824 C826 1.384 . S
C825 C824 1.377 . S
C825 C831 1.390 . S
C826 H817 0.930 . S
C826 C824 1.384 . S
C826 C827 1.372 . S
C827 C826 1.372 . S
C827 C828 1.400 . S
C827 C832 1.490 . S
C828 H818 0.930 . S
C828 C827 1.400 . S
C828 C831 1.386 . S
H829 C845 0.930 . S
H830 C846 0.931 . S
C831 H819 0.929 . S
C831 C825 1.390 . S
C831 C828 1.386 . S
C832 C827 1.490 . S
C832 C834 1.395 . S
C832 C835 1.403 . S
H833 C839 0.930 . S
C834 H820 0.930 . S
C834 C832 1.395 . S
C834 C837 1.403 . S
C835 C832 1.403 . S
C835 C836 1.524 . S
C835 C839 1.400 . S
C836 H821 0.960 . S
C836 H822 0.960 . S
C836 H823 0.960 . S
C836 C835 1.524 . S
C837 C834 1.403 . S
C837 C838 1.392 . S
C837 C841 1.495 . S
C838 C837 1.392 . S
C838 C839 1.385 . S
C838 C840 1.478 . S
C839 H833 0.930 . S
C839 C835 1.400 . S
C839 C838 1.385 . S
C840 C838 1.478 . S
C840 C842 1.381 . S
C840 C846 1.383 . S
C841 C837 1.495 . S
C841 H847 0.959 . S
C841 H848 0.961 . S
C841 H849 0.960 . S
C842 C840 1.381 . S
C842 C843 1.394 . S
C842 H850 0.930 . S
C843 C842 1.394 . S
C843 C844 1.383 . S
C843 H851 0.929 . S
C844 C843 1.383 . S
C844 C845 1.377 . S
C845 H829 0.930 . S
C845 C844 1.377 . S
C845 C846 1.379 . S
C846 H830 0.931 . S
C846 C840 1.383 . S
C846 C845 1.379 . S
H847 C841 0.959 . S
H848 C841 0.961 . S
H849 C841 0.960 . S
H850 C842 0.930 . S
H851 C843 0.929 . S
H852 C860 0.929 . S
H853 C862 0.930 . S
H854 C864 0.930 . S
H855 C867 0.929 . S
H856 C870 0.930 . S
H857 C872 0.960 . S
H858 C872 0.960 . S
H859 C872 0.960 . S
C860 H852 0.929 . S
C860 C861 1.377 . S
C860 C862 1.384 . S
C861 C860 1.377 . S
C861 C867 1.390 . S
C862 H853 0.930 . S
C862 C860 1.384 . S
C862 C863 1.372 . S
C863 C862 1.372 . S
C863 C864 1.400 . S
C863 C868 1.490 . S
C864 H854 0.930 . S
C864 C863 1.400 . S
C864 C867 1.386 . S
H865 C881 0.930 . S
H866 C882 0.931 . S
C867 H855 0.929 . S
C867 C861 1.390 . S
C867 C864 1.386 . S
C868 C863 1.490 . S
C868 C870 1.395 . S
C868 C871 1.403 . S
H869 C875 0.930 . S
C870 H856 0.930 . S
C870 C868 1.395 . S
C870 C873 1.403 1_556 S
C871 C868 1.403 . S
C871 C872 1.524 . S
C871 C875 1.400 . S
C872 H857 0.960 . S
C872 H858 0.960 . S
C872 H859 0.960 . S
C872 C871 1.524 . S
C873 C870 1.403 1_554 S
C873 C874 1.392 . S
C873 C877 1.495 . S
C874 C873 1.392 . S
C874 C875 1.385 1_554 S
C874 C876 1.478 . S
C875 H869 0.930 . S
C875 C871 1.400 . S
C875 C874 1.385 1_556 S
C876 C874 1.478 . S
C876 C878 1.381 . S
C876 C882 1.383 . S
C877 C873 1.495 . S
C877 H883 0.959 . S
C877 H884 0.961 . S
C877 H885 0.960 . S
C878 C876 1.381 . S
C878 C879 1.394 . S
C878 H886 0.930 . S
C879 C878 1.394 . S
C879 C880 1.383 . S
C879 H887 0.929 . S
C880 C879 1.383 . S
C880 C881 1.377 . S
C881 H865 0.930 . S
C881 C880 1.377 . S
C881 C882 1.379 . S
C882 H866 0.931 . S
C882 C876 1.383 . S
C882 C881 1.379 . S
H883 C877 0.959 . S
H884 C877 0.961 . S
H885 C877 0.960 . S
H886 C878 0.930 . S
H887 C879 0.929 . S
H888 C896 0.929 . S
H889 C898 0.930 . S
H890 C900 0.930 . S
H891 C903 0.929 . S
H892 C906 0.930 . S
H893 C908 0.960 . S
H894 C908 0.960 . S
H895 C908 0.960 . S
C896 H888 0.929 . S
C896 C897 1.377 . S
C896 C898 1.384 . S
C897 C896 1.377 . S
C897 C903 1.390 . S
C898 H889 0.930 . S
C898 C896 1.384 . S
C898 C899 1.372 . S
C899 C898 1.372 . S
C899 C900 1.400 . S
C899 C904 1.490 . S
C900 H890 0.930 . S
C900 C899 1.400 . S
C900 C903 1.386 . S
H901 C917 0.930 . S
H902 C918 0.931 . S
C903 H891 0.929 . S
C903 C897 1.390 . S
C903 C900 1.386 . S
C904 C899 1.490 . S
C904 C906 1.395 . S
C904 C907 1.403 . S
H905 C911 0.930 . S
C906 H892 0.930 . S
C906 C904 1.395 . S
C906 C909 1.403 . S
C907 C904 1.403 . S
C907 C908 1.524 . S
C907 C911 1.400 . S
C908 H893 0.960 . S
C908 H894 0.960 . S
C908 H895 0.960 . S
C908 C907 1.524 . S
C909 C906 1.403 . S
C909 C910 1.392 . S
C909 C913 1.495 . S
C910 C909 1.392 . S
C910 C911 1.385 . S
C910 C912 1.478 . S
C911 H905 0.930 . S
C911 C907 1.400 . S
C911 C910 1.385 . S
C912 C910 1.478 . S
C912 C914 1.381 . S
C912 C918 1.383 . S
C913 C909 1.495 . S
C913 H919 0.959 . S
C913 H920 0.961 . S
C913 H921 0.960 . S
C914 C912 1.381 . S
C914 C915 1.394 . S
C914 H922 0.930 . S
C915 C914 1.394 . S
C915 C916 1.383 1_554 S
C915 H923 0.929 . S
C916 C915 1.383 1_556 S
C916 C917 1.377 1_556 S
C917 H901 0.930 . S
C917 C916 1.377 1_554 S
C917 C918 1.379 . S
C918 H902 0.931 . S
C918 C912 1.383 . S
C918 C917 1.379 . S
H919 C913 0.959 . S
H920 C913 0.961 . S
H921 C913 0.960 . S
H922 C914 0.930 . S
H923 C915 0.929 . S
H924 C932 0.929 . S
H925 C934 0.930 . S
H926 C936 0.930 . S
H927 C939 0.929 . S
H928 C942 0.930 . S
H929 C944 0.960 . S
H930 C944 0.960 . S
H931 C944 0.960 . S
C932 H924 0.929 . S
C932 C933 1.377 . S
C932 C934 1.384 . S
C933 C932 1.377 . S
C933 C939 1.390 . S
C934 H925 0.930 . S
C934 C932 1.384 . S
C934 C935 1.372 . S
C935 C934 1.372 . S
C935 C936 1.400 . S
C935 C940 1.490 . S
C936 H926 0.930 . S
C936 C935 1.400 . S
C936 C939 1.386 . S
H937 C953 0.930 . S
H938 C954 0.931 . S
C939 H927 0.929 . S
C939 C933 1.390 . S
C939 C936 1.386 . S
C940 C935 1.490 . S
C940 C942 1.395 . S
C940 C943 1.403 . S
H941 C947 0.930 . S
C942 H928 0.930 . S
C942 C940 1.395 . S
C942 C945 1.403 . S
C943 C940 1.403 . S
C943 C944 1.524 . S
C943 C947 1.400 . S
C944 H929 0.960 . S
C944 H930 0.960 . S
C944 H931 0.960 . S
C944 C943 1.524 . S
C945 C942 1.403 . S
C945 C946 1.392 . S
C945 C949 1.495 . S
C946 C945 1.392 . S
C946 C947 1.385 . S
C946 C948 1.478 . S
C947 H941 0.930 . S
C947 C943 1.400 . S
C947 C946 1.385 . S
C948 C946 1.478 . S
C948 C950 1.381 . S
C948 C954 1.383 . S
C949 C945 1.495 . S
C949 H955 0.959 . S
C949 H956 0.961 . S
C949 H957 0.960 . S
C950 C948 1.381 . S
C950 C951 1.394 . S
C950 H958 0.930 . S
C951 C950 1.394 . S
C951 C952 1.383 . S
C951 H959 0.929 . S
C952 C951 1.383 . S
C952 C953 1.377 . S
C953 H937 0.930 . S
C953 C952 1.377 . S
C953 C954 1.379 . S
C954 H938 0.931 . S
C954 C948 1.383 . S
C954 C953 1.379 . S
H955 C949 0.959 . S
H956 C949 0.961 . S
H957 C949 0.960 . S
H958 C950 0.930 . S
H959 C951 0.929 . S
H960 C968 0.929 . S
H961 C970 0.930 . S
H962 C972 0.930 . S
H963 C975 0.929 . S
H964 C978 0.930 . S
H965 C980 0.960 . S
H966 C980 0.960 . S
H967 C980 0.960 . S
C968 H960 0.929 . S
C968 C969 1.377 . S
C968 C970 1.384 . S
C969 C968 1.377 . S
C969 C975 1.390 . S
C970 H961 0.930 . S
C970 C968 1.384 . S
C970 C971 1.372 . S
C971 C970 1.372 . S
C971 C972 1.400 . S
C971 C976 1.490 . S
C972 H962 0.930 . S
C972 C971 1.400 . S
C972 C975 1.386 . S
H973 C989 0.930 . S
H974 C990 0.931 . S
C975 H963 0.929 . S
C975 C969 1.390 . S
C975 C972 1.386 . S
C976 C971 1.490 . S
C976 C978 1.395 . S
C976 C979 1.403 . S
H977 C983 0.930 . S
C978 H964 0.930 . S
C978 C976 1.395 . S
C978 C981 1.403 . S
C979 C976 1.403 . S
C979 C980 1.524 . S
C979 C983 1.400 . S
C980 H965 0.960 . S
C980 H966 0.960 . S
C980 H967 0.960 . S
C980 C979 1.524 . S
C981 C978 1.403 . S
C981 C982 1.392 . S
C981 C985 1.495 . S
C982 C981 1.392 . S
C982 C983 1.385 . S
C982 C984 1.478 . S
C983 H977 0.930 . S
C983 C979 1.400 . S
C983 C982 1.385 . S
C984 C982 1.478 . S
C984 C986 1.381 . S
C984 C990 1.383 . S
C985 C981 1.495 . S
C985 H991 0.959 . S
C985 H992 0.961 . S
C985 H993 0.960 . S
C986 C984 1.381 . S
C986 C987 1.394 . S
C986 H994 0.930 . S
C987 C986 1.394 . S
C987 C988 1.383 . S
C987 H995 0.929 . S
C988 C987 1.383 . S
C988 C989 1.377 . S
C989 H973 0.930 . S
C989 C988 1.377 . S
C989 C990 1.379 . S
C990 H974 0.931 . S
C990 C984 1.383 . S
C990 C989 1.379 . S
H991 C985 0.959 . S
H992 C985 0.961 . S
H993 C985 0.960 . S
H994 C986 0.930 . S
H995 C987 0.929 . S
H996 C1004 0.929 . S
H997 C1006 0.930 . S
H998 C1008 0.930 . S
H999 C1011 0.929 . S
H1000 C1014 0.930 . S
H1001 C1016 0.960 . S
H1002 C1016 0.960 . S
H1003 C1016 0.960 . S
C1004 H996 0.929 . S
C1004 C1005 1.377 . S
C1004 C1006 1.384 . S
C1005 C1004 1.377 . S
C1005 C1011 1.390 . S
C1006 H997 0.930 . S
C1006 C1004 1.384 . S
C1006 C1007 1.372 . S
C1007 C1006 1.372 . S
C1007 C1008 1.400 . S
C1007 C1012 1.490 . S
C1008 H998 0.930 . S
C1008 C1007 1.400 . S
C1008 C1011 1.386 . S
H1009 C1025 0.930 . S
H1010 C1026 0.931 . S
C1011 H999 0.929 . S
C1011 C1005 1.390 . S
C1011 C1008 1.386 . S
C1012 C1007 1.490 . S
C1012 C1014 1.395 . S
C1012 C1015 1.403 . S
H1013 C1019 0.930 . S
C1014 H1000 0.930 . S
C1014 C1012 1.395 . S
C1014 C1017 1.403 . S
C1015 C1012 1.403 . S
C1015 C1016 1.524 . S
C1015 C1019 1.400 . S
C1016 H1001 0.960 . S
C1016 H1002 0.960 . S
C1016 H1003 0.960 . S
C1016 C1015 1.524 . S
C1017 C1014 1.403 . S
C1017 C1018 1.392 . S
C1017 C1021 1.495 . S
C1018 C1017 1.392 . S
C1018 C1019 1.385 . S
C1018 C1020 1.478 . S
C1019 H1013 0.930 . S
C1019 C1015 1.400 . S
C1019 C1018 1.385 . S
C1020 C1018 1.478 . S
C1020 C1022 1.381 . S
C1020 C1026 1.383 . S
C1021 C1017 1.495 . S
C1021 H1027 0.959 . S
C1021 H1028 0.961 . S
C1021 H1029 0.960 . S
C1022 C1020 1.381 . S
C1022 C1023 1.394 . S
C1022 H1030 0.930 . S
C1023 C1022 1.394 . S
C1023 C1024 1.383 . S
C1023 H1031 0.929 . S
C1024 C1023 1.383 . S
C1024 C1025 1.377 . S
C1025 H1009 0.930 . S
C1025 C1024 1.377 . S
C1025 C1026 1.379 . S
C1026 H1010 0.931 . S
C1026 C1020 1.383 . S
C1026 C1025 1.379 . S
H1027 C1021 0.959 . S
H1028 C1021 0.961 . S
H1029 C1021 0.960 . S
H1030 C1022 0.930 . S
H1031 C1023 0.929 . S
H1032 C1040 0.929 . S
H1033 C1042 0.930 . S
H1034 C1044 0.930 . S
H1035 C1047 0.929 . S
H1036 C1050 0.930 . S
H1037 C1052 0.960 . S
H1038 C1052 0.960 . S
H1039 C1052 0.960 . S
C1040 H1032 0.929 . S
C1040 C1041 1.377 . S
C1040 C1042 1.384 . S
C1041 C1040 1.377 . S
C1041 C1047 1.390 . S
C1042 H1033 0.930 . S
C1042 C1040 1.384 . S
C1042 C1043 1.372 . S
C1043 C1042 1.372 . S
C1043 C1044 1.400 . S
C1043 C1048 1.490 . S
C1044 H1034 0.930 . S
C1044 C1043 1.400 . S
C1044 C1047 1.386 . S
H1045 C1061 0.930 . S
H1046 C1062 0.931 . S
C1047 H1035 0.929 . S
C1047 C1041 1.390 . S
C1047 C1044 1.386 . S
C1048 C1043 1.490 . S
C1048 C1050 1.395 . S
C1048 C1051 1.403 . S
H1049 C1055 0.930 . S
C1050 H1036 0.930 . S
C1050 C1048 1.395 . S
C1050 C1053 1.403 . S
C1051 C1048 1.403 . S
C1051 C1052 1.524 . S
C1051 C1055 1.400 . S
C1052 H1037 0.960 . S
C1052 H1038 0.960 . S
C1052 H1039 0.960 . S
C1052 C1051 1.524 . S
C1053 C1050 1.403 . S
C1053 C1054 1.392 . S
C1053 C1057 1.495 . S
C1054 C1053 1.392 . S
C1054 C1055 1.385 . S
C1054 C1056 1.478 . S
C1055 H1049 0.930 . S
C1055 C1051 1.400 . S
C1055 C1054 1.385 . S
C1056 C1054 1.478 . S
C1056 C1058 1.381 . S
C1056 C1062 1.383 . S
C1057 C1053 1.495 . S
C1057 H1063 0.959 . S
C1057 H1064 0.961 . S
C1057 H1065 0.960 . S
C1058 C1056 1.381 . S
C1058 C1059 1.394 . S
C1058 H1066 0.930 . S
C1059 C1058 1.394 . S
C1059 C1060 1.383 . S
C1059 H1067 0.929 . S
C1060 C1059 1.383 . S
C1060 C1061 1.377 . S
C1061 H1045 0.930 . S
C1061 C1060 1.377 . S
C1061 C1062 1.379 . S
C1062 H1046 0.931 . S
C1062 C1056 1.383 . S
C1062 C1061 1.379 . S
H1063 C1057 0.959 . S
H1064 C1057 0.961 . S
H1065 C1057 0.960 . S
H1066 C1058 0.930 . S
H1067 C1059 0.929 . S
H1068 C1076 0.929 . S
H1069 C1078 0.930 . S
H1070 C1080 0.930 . S
H1071 C1083 0.929 . S
H1072 C1086 0.930 . S
H1073 C1088 0.960 . S
H1074 C1088 0.960 . S
H1075 C1088 0.960 . S
C1076 H1068 0.929 . S
C1076 C1077 1.377 . S
C1076 C1078 1.384 . S
C1077 C1076 1.377 . S
C1077 C1083 1.390 . S
C1078 H1069 0.930 . S
C1078 C1076 1.384 . S
C1078 C1079 1.372 . S
C1079 C1078 1.372 . S
C1079 C1080 1.400 . S
C1079 C1084 1.490 . S
C1080 H1070 0.930 . S
C1080 C1079 1.400 . S
C1080 C1083 1.386 . S
H1081 C1097 0.930 . S
H1082 C1098 0.931 . S
C1083 H1071 0.929 . S
C1083 C1077 1.390 . S
C1083 C1080 1.386 . S
C1084 C1079 1.490 . S
C1084 C1086 1.395 . S
C1084 C1087 1.403 . S
H1085 C1091 0.930 . S
C1086 H1072 0.930 . S
C1086 C1084 1.395 . S
C1086 C1089 1.403 . S
C1087 C1084 1.403 . S
C1087 C1088 1.524 . S
C1087 C1091 1.400 . S
C1088 H1073 0.960 . S
C1088 H1074 0.960 . S
C1088 H1075 0.960 . S
C1088 C1087 1.524 . S
C1089 C1086 1.403 . S
C1089 C1090 1.392 . S
C1089 C1093 1.495 . S
C1090 C1089 1.392 . S
C1090 C1091 1.385 . S
C1090 C1092 1.478 . S
C1091 H1085 0.930 . S
C1091 C1087 1.400 . S
C1091 C1090 1.385 . S
C1092 C1090 1.478 . S
C1092 C1094 1.381 . S
C1092 C1098 1.383 . S
C1093 C1089 1.495 . S
C1093 H1099 0.959 . S
C1093 H1100 0.961 . S
C1093 H1101 0.960 . S
C1094 C1092 1.381 . S
C1094 C1095 1.394 . S
C1094 H1102 0.930 . S
C1095 C1094 1.394 . S
C1095 C1096 1.383 . S
C1095 H1103 0.929 . S
C1096 C1095 1.383 . S
C1096 C1097 1.377 . S
C1097 H1081 0.930 . S
C1097 C1096 1.377 . S
C1097 C1098 1.379 . S
C1098 H1082 0.931 . S
C1098 C1092 1.383 . S
C1098 C1097 1.379 . S
H1099 C1093 0.959 . S
H1100 C1093 0.961 . S
H1101 C1093 0.960 . S
H1102 C1094 0.930 . S
H1103 C1095 0.929 . S
H1104 C1112 0.929 . S
H1105 C1114 0.930 1_554 S
H1106 C1116 0.930 . S
H1107 C1119 0.929 . S
H1108 C1122 0.930 . S
H1109 C1124 0.960 1_554 S
H1110 C1124 0.960 1_554 S
H1111 C1124 0.960 . S
C1112 H1104 0.929 . S
C1112 C1113 1.377 . S
C1112 C1114 1.384 . S
C1113 C1112 1.377 . S
C1113 C1119 1.390 . S
C1114 H1105 0.930 1_556 S
C1114 C1112 1.384 . S
C1114 C1115 1.372 . S
C1115 C1114 1.372 . S
C1115 C1116 1.400 . S
C1115 C1120 1.490 . S
C1116 H1106 0.930 . S
C1116 C1115 1.400 . S
C1116 C1119 1.386 . S
H1117 C1133 0.930 . S
H1118 C1134 0.931 . S
C1119 H1107 0.929 . S
C1119 C1113 1.390 . S
C1119 C1116 1.386 . S
C1120 C1115 1.490 . S
C1120 C1122 1.395 . S
C1120 C1123 1.403 . S
H1121 C1127 0.930 . S
C1122 H1108 0.930 . S
C1122 C1120 1.395 . S
C1122 C1125 1.403 . S
C1123 C1120 1.403 . S
C1123 C1124 1.524 . S
C1123 C1127 1.400 . S
C1124 H1109 0.960 1_556 S
C1124 H1110 0.960 1_556 S
C1124 H1111 0.960 . S
C1124 C1123 1.524 . S
C1125 C1122 1.403 . S
C1125 C1126 1.392 . S
C1125 C1129 1.495 . S
C1126 C1125 1.392 . S
C1126 C1127 1.385 . S
C1126 C1128 1.478 . S
C1127 H1121 0.930 . S
C1127 C1123 1.400 . S
C1127 C1126 1.385 . S
C1128 C1126 1.478 . S
C1128 C1130 1.381 1_556 S
C1128 C1134 1.383 . S
C1129 C1125 1.495 . S
C1129 H1135 0.959 . S
C1129 H1136 0.961 . S
C1129 H1137 0.960 . S
C1130 C1128 1.381 1_554 S
C1130 C1131 1.394 . S
C1130 H1138 0.930 . S
C1131 C1130 1.394 . S
C1131 C1132 1.383 1_554 S
C1131 H1139 0.929 . S
C1132 C1131 1.383 1_556 S
C1132 C1133 1.377 . S
C1133 H1117 0.930 . S
C1133 C1132 1.377 . S
C1133 C1134 1.379 . S
C1134 H1118 0.931 . S
C1134 C1128 1.383 . S
C1134 C1133 1.379 . S
H1135 C1129 0.959 . S
H1136 C1129 0.961 . S
H1137 C1129 0.960 . S
H1138 C1130 0.930 . S
H1139 C1131 0.929 . S
H1140 C1148 0.929 . S
H1141 C1150 0.930 . S
H1142 C1152 0.930 . S
H1143 C1155 0.929 . S
H1144 C1158 0.930 . S
H1145 C1160 0.960 . S
H1146 C1160 0.960 . S
H1147 C1160 0.960 . S
C1148 H1140 0.929 . S
C1148 C1149 1.377 . S
C1148 C1150 1.384 . S
C1149 C1148 1.377 . S
C1149 C1155 1.390 . S
C1150 H1141 0.930 . S
C1150 C1148 1.384 . S
C1150 C1151 1.372 . S
C1151 C1150 1.372 . S
C1151 C1152 1.400 . S
C1151 C1156 1.490 . S
C1152 H1142 0.930 . S
C1152 C1151 1.400 . S
C1152 C1155 1.386 . S
H1153 C1169 0.930 . S
H1154 C1170 0.931 . S
C1155 H1143 0.929 . S
C1155 C1149 1.390 . S
C1155 C1152 1.386 . S
C1156 C1151 1.490 . S
C1156 C1158 1.395 . S
C1156 C1159 1.403 . S
H1157 C1163 0.930 . S
C1158 H1144 0.930 . S
C1158 C1156 1.395 . S
C1158 C1161 1.403 . S
C1159 C1156 1.403 . S
C1159 C1160 1.524 . S
C1159 C1163 1.400 . S
C1160 H1145 0.960 . S
C1160 H1146 0.960 . S
C1160 H1147 0.960 . S
C1160 C1159 1.524 . S
C1161 C1158 1.403 . S
C1161 C1162 1.392 . S
C1161 C1165 1.495 . S
C1162 C1161 1.392 . S
C1162 C1163 1.385 . S
C1162 C1164 1.478 . S
C1163 H1157 0.930 . S
C1163 C1159 1.400 . S
C1163 C1162 1.385 . S
C1164 C1162 1.478 . S
C1164 C1166 1.381 . S
C1164 C1170 1.383 . S
C1165 C1161 1.495 . S
C1165 H1171 0.959 . S
C1165 H1172 0.961 . S
C1165 H1173 0.960 . S
C1166 C1164 1.381 . S
C1166 C1167 1.394 . S
C1166 H1174 0.930 . S
C1167 C1166 1.394 . S
C1167 C1168 1.383 . S
C1167 H1175 0.929 . S
C1168 C1167 1.383 . S
C1168 C1169 1.377 . S
C1169 H1153 0.930 . S
C1169 C1168 1.377 . S
C1169 C1170 1.379 . S
C1170 H1154 0.931 . S
C1170 C1164 1.383 . S
C1170 C1169 1.379 . S
H1171 C1165 0.959 . S
H1172 C1165 0.961 . S
H1173 C1165 0.960 . S
H1174 C1166 0.930 . S
H1175 C1167 0.929 . S
H1176 C1184 0.929 . S
H1177 C1186 0.930 . S
H1178 C1188 0.930 . S
H1179 C1191 0.929 . S
H1180 C1194 0.930 . S
H1181 C1196 0.960 . S
H1182 C1196 0.960 . S
H1183 C1196 0.960 . S
C1184 H1176 0.929 . S
C1184 C1185 1.377 . S
C1184 C1186 1.384 . S
C1185 C1184 1.377 . S
C1185 C1191 1.390 . S
C1186 H1177 0.930 . S
C1186 C1184 1.384 . S
C1186 C1187 1.372 . S
C1187 C1186 1.372 . S
C1187 C1188 1.400 . S
C1187 C1192 1.490 . S
C1188 H1178 0.930 . S
C1188 C1187 1.400 . S
C1188 C1191 1.386 . S
H1189 C1205 0.930 . S
H1190 C1206 0.931 . S
C1191 H1179 0.929 . S
C1191 C1185 1.390 . S
C1191 C1188 1.386 . S
C1192 C1187 1.490 . S
C1192 C1194 1.395 . S
C1192 C1195 1.403 1_554 S
H1193 C1199 0.930 . S
C1194 H1180 0.930 . S
C1194 C1192 1.395 . S
C1194 C1197 1.403 1_554 S
C1195 C1192 1.403 1_556 S
C1195 C1196 1.524 . S
C1195 C1199 1.400 . S
C1196 H1181 0.960 . S
C1196 H1182 0.960 . S
C1196 H1183 0.960 . S
C1196 C1195 1.524 . S
C1197 C1194 1.403 1_556 S
C1197 C1198 1.392 . S
C1197 C1201 1.495 . S
C1198 C1197 1.392 . S
C1198 C1199 1.385 . S
C1198 C1200 1.478 . S
C1199 H1193 0.930 . S
C1199 C1195 1.400 . S
C1199 C1198 1.385 . S
C1200 C1198 1.478 . S
C1200 C1202 1.381 . S
C1200 C1206 1.383 . S
C1201 C1197 1.495 . S
C1201 H1207 0.959 1_556 S
C1201 H1208 0.961 . S
C1201 H1209 0.960 . S
C1202 C1200 1.381 . S
C1202 C1203 1.394 . S
C1202 H1210 0.930 . S
C1203 C1202 1.394 . S
C1203 C1204 1.383 . S
C1203 H1211 0.929 . S
C1204 C1203 1.383 . S
C1204 C1205 1.377 . S
C1205 H1189 0.930 . S
C1205 C1204 1.377 . S
C1205 C1206 1.379 . S
C1206 H1190 0.931 . S
C1206 C1200 1.383 . S
C1206 C1205 1.379 . S
H1207 C1201 0.959 1_554 S
H1208 C1201 0.961 . S
H1209 C1201 0.960 . S
H1210 C1202 0.930 . S
H1211 C1203 0.929 . S
H1212 C1220 0.929 . S
H1213 C1222 0.930 . S
H1214 C1224 0.930 . S
H1215 C1227 0.929 . S
H1216 C1230 0.930 . S
H1217 C1232 0.960 . S
H1218 C1232 0.960 . S
H1219 C1232 0.960 . S
C1220 H1212 0.929 . S
C1220 C1221 1.377 . S
C1220 C1222 1.384 . S
C1221 C1220 1.377 . S
C1221 C1227 1.390 . S
C1222 H1213 0.930 . S
C1222 C1220 1.384 . S
C1222 C1223 1.372 . S
C1223 C1222 1.372 . S
C1223 C1224 1.400 . S
C1223 C1228 1.490 . S
C1224 H1214 0.930 . S
C1224 C1223 1.400 . S
C1224 C1227 1.386 . S
H1225 C1241 0.930 . S
H1226 C1242 0.931 . S
C1227 H1215 0.929 . S
C1227 C1221 1.390 . S
C1227 C1224 1.386 . S
C1228 C1223 1.490 . S
C1228 C1230 1.395 . S
C1228 C1231 1.403 . S
H1229 C1235 0.930 . S
C1230 H1216 0.930 . S
C1230 C1228 1.395 . S
C1230 C1233 1.403 . S
C1231 C1228 1.403 . S
C1231 C1232 1.524 . S
C1231 C1235 1.400 . S
C1232 H1217 0.960 . S
C1232 H1218 0.960 . S
C1232 H1219 0.960 . S
C1232 C1231 1.524 . S
C1233 C1230 1.403 . S
C1233 C1234 1.392 . S
C1233 C1237 1.495 . S
C1234 C1233 1.392 . S
C1234 C1235 1.385 . S
C1234 C1236 1.478 . S
C1235 H1229 0.930 . S
C1235 C1231 1.400 . S
C1235 C1234 1.385 . S
C1236 C1234 1.478 . S
C1236 C1238 1.381 . S
C1236 C1242 1.383 . S
C1237 C1233 1.495 . S
C1237 H1243 0.959 . S
C1237 H1244 0.961 . S
C1237 H1245 0.960 . S
C1238 C1236 1.381 . S
C1238 C1239 1.394 . S
C1238 H1246 0.930 . S
C1239 C1238 1.394 . S
C1239 C1240 1.383 1_554 S
C1239 H1247 0.929 . S
C1240 C1239 1.383 1_556 S
C1240 C1241 1.377 . S
C1241 H1225 0.930 . S
C1241 C1240 1.377 . S
C1241 C1242 1.379 1_556 S
C1242 H1226 0.931 . S
C1242 C1236 1.383 . S
C1242 C1241 1.379 1_554 S
H1243 C1237 0.959 . S
H1244 C1237 0.961 . S
H1245 C1237 0.960 . S
H1246 C1238 0.930 . S
H1247 C1239 0.929 . S
H1248 C1256 0.929 . S
H1249 C1258 0.930 . S
H1250 C1260 0.930 . S
H1251 C1263 0.929 . S
H1252 C1266 0.930 . S
H1253 C1268 0.960 . S
H1254 C1268 0.960 . S
H1255 C1268 0.960 . S
C1256 H1248 0.929 . S
C1256 C1257 1.377 . S
C1256 C1258 1.384 . S
C1257 C1256 1.377 . S
C1257 C1263 1.390 . S
C1258 H1249 0.930 . S
C1258 C1256 1.384 . S
C1258 C1259 1.372 . S
C1259 C1258 1.372 . S
C1259 C1260 1.400 . S
C1259 C1264 1.490 . S
C1260 H1250 0.930 . S
C1260 C1259 1.400 . S
C1260 C1263 1.386 . S
H1261 C1277 0.930 . S
H1262 C1278 0.931 . S
C1263 H1251 0.929 . S
C1263 C1257 1.390 . S
C1263 C1260 1.386 . S
C1264 C1259 1.490 . S
C1264 C1266 1.395 . S
C1264 C1267 1.403 . S
H1265 C1271 0.930 . S
C1266 H1252 0.930 . S
C1266 C1264 1.395 . S
C1266 C1269 1.403 . S
C1267 C1264 1.403 . S
C1267 C1268 1.524 . S
C1267 C1271 1.400 . S
C1268 H1253 0.960 . S
C1268 H1254 0.960 . S
C1268 H1255 0.960 . S
C1268 C1267 1.524 . S
C1269 C1266 1.403 . S
C1269 C1270 1.392 . S
C1269 C1273 1.495 . S
C1270 C1269 1.392 . S
C1270 C1271 1.385 . S
C1270 C1272 1.478 . S
C1271 H1265 0.930 . S
C1271 C1267 1.400 . S
C1271 C1270 1.385 . S
C1272 C1270 1.478 . S
C1272 C1274 1.381 . S
C1272 C1278 1.383 . S
C1273 C1269 1.495 . S
C1273 H1279 0.959 . S
C1273 H1280 0.961 . S
C1273 H1281 0.960 . S
C1274 C1272 1.381 . S
C1274 C1275 1.394 . S
C1274 H1282 0.930 . S
C1275 C1274 1.394 . S
C1275 C1276 1.383 . S
C1275 H1283 0.929 . S
C1276 C1275 1.383 . S
C1276 C1277 1.377 . S
C1277 H1261 0.930 . S
C1277 C1276 1.377 . S
C1277 C1278 1.379 . S
C1278 H1262 0.931 . S
C1278 C1272 1.383 . S
C1278 C1277 1.379 . S
H1279 C1273 0.959 . S
H1280 C1273 0.961 . S
H1281 C1273 0.960 . S
H1282 C1274 0.930 . S
H1283 C1275 0.929 . S
H1284 C1292 0.929 . S
H1285 C1294 0.930 . S
H1286 C1296 0.930 . S
H1287 C1299 0.929 . S
H1288 C1302 0.930 . S
H1289 C1304 0.960 . S
H1290 C1304 0.960 . S
H1291 C1304 0.960 . S
C1292 H1284 0.929 . S
C1292 C1293 1.377 . S
C1292 C1294 1.384 . S
C1293 C1292 1.377 . S
C1293 C1299 1.390 . S
C1294 H1285 0.930 . S
C1294 C1292 1.384 . S
C1294 C1295 1.372 . S
C1295 C1294 1.372 . S
C1295 C1296 1.400 . S
C1295 C1300 1.490 . S
C1296 H1286 0.930 . S
C1296 C1295 1.400 . S
C1296 C1299 1.386 . S
H1297 C1313 0.930 . S
H1298 C1314 0.931 . S
C1299 H1287 0.929 . S
C1299 C1293 1.390 . S
C1299 C1296 1.386 . S
C1300 C1295 1.490 . S
C1300 C1302 1.395 . S
C1300 C1303 1.403 . S
H1301 C1307 0.930 . S
C1302 H1288 0.930 . S
C1302 C1300 1.395 . S
C1302 C1305 1.403 . S
C1303 C1300 1.403 . S
C1303 C1304 1.524 . S
C1303 C1307 1.400 . S
C1304 H1289 0.960 . S
C1304 H1290 0.960 . S
C1304 H1291 0.960 . S
C1304 C1303 1.524 . S
C1305 C1302 1.403 . S
C1305 C1306 1.392 . S
C1305 C1309 1.495 . S
C1306 C1305 1.392 . S
C1306 C1307 1.385 . S
C1306 C1308 1.478 . S
C1307 H1301 0.930 . S
C1307 C1303 1.400 . S
C1307 C1306 1.385 . S
C1308 C1306 1.478 . S
C1308 C1310 1.381 . S
C1308 C1314 1.383 . S
C1309 C1305 1.495 . S
C1309 H1315 0.959 . S
C1309 H1316 0.961 . S
C1309 H1317 0.960 . S
C1310 C1308 1.381 . S
C1310 C1311 1.394 . S
C1310 H1318 0.930 . S
C1311 C1310 1.394 . S
C1311 C1312 1.383 . S
C1311 H1319 0.929 . S
C1312 C1311 1.383 . S
C1312 C1313 1.377 . S
C1313 H1297 0.930 . S
C1313 C1312 1.377 . S
C1313 C1314 1.379 . S
C1314 H1298 0.931 . S
C1314 C1308 1.383 . S
C1314 C1313 1.379 . S
H1315 C1309 0.959 . S
H1316 C1309 0.961 . S
H1317 C1309 0.960 . S
H1318 C1310 0.930 . S
H1319 C1311 0.929 . S
H1320 C1328 0.929 . S
H1321 C1330 0.930 . S
H1322 C1332 0.930 . S
H1323 C1335 0.929 . S
H1324 C1338 0.930 . S
H1325 C1340 0.960 . S
H1326 C1340 0.960 . S
H1327 C1340 0.960 . S
C1328 H1320 0.929 . S
C1328 C1329 1.377 . S
C1328 C1330 1.384 . S
C1329 C1328 1.377 . S
C1329 C1335 1.390 . S
C1330 H1321 0.930 . S
C1330 C1328 1.384 . S
C1330 C1331 1.372 . S
C1331 C1330 1.372 . S
C1331 C1332 1.400 . S
C1331 C1336 1.490 . S
C1332 H1322 0.930 . S
C1332 C1331 1.400 . S
C1332 C1335 1.386 . S
H1333 C1349 0.930 . S
H1334 C1350 0.931 . S
C1335 H1323 0.929 . S
C1335 C1329 1.390 . S
C1335 C1332 1.386 . S
C1336 C1331 1.490 . S
C1336 C1338 1.395 . S
C1336 C1339 1.403 . S
H1337 C1343 0.930 . S
C1338 H1324 0.930 . S
C1338 C1336 1.395 . S
C1338 C1341 1.403 . S
C1339 C1336 1.403 . S
C1339 C1340 1.524 . S
C1339 C1343 1.400 . S
C1340 H1325 0.960 . S
C1340 H1326 0.960 . S
C1340 H1327 0.960 . S
C1340 C1339 1.524 . S
C1341 C1338 1.403 . S
C1341 C1342 1.392 . S
C1341 C1345 1.495 . S
C1342 C1341 1.392 . S
C1342 C1343 1.385 . S
C1342 C1344 1.478 . S
C1343 H1337 0.930 . S
C1343 C1339 1.400 . S
C1343 C1342 1.385 . S
C1344 C1342 1.478 . S
C1344 C1346 1.381 . S
C1344 C1350 1.383 . S
C1345 C1341 1.495 . S
C1345 H1351 0.959 . S
C1345 H1352 0.961 . S
C1345 H1353 0.960 . S
C1346 C1344 1.381 . S
C1346 C1347 1.394 . S
C1346 H1354 0.930 . S
C1347 C1346 1.394 . S
C1347 C1348 1.383 . S
C1347 H1355 0.929 . S
C1348 C1347 1.383 . S
C1348 C1349 1.377 . S
C1349 H1333 0.930 . S
C1349 C1348 1.377 . S
C1349 C1350 1.379 . S
C1350 H1334 0.931 . S
C1350 C1344 1.383 . S
C1350 C1349 1.379 . S
H1351 C1345 0.959 . S
H1352 C1345 0.961 . S
H1353 C1345 0.960 . S
H1354 C1346 0.930 . S
H1355 C1347 0.929 . S
H1356 C1364 0.929 . S
H1357 C1366 0.930 . S
H1358 C1368 0.930 . S
H1359 C1371 0.929 . S
H1360 C1374 0.930 . S
H1361 C1376 0.960 . S
H1362 C1376 0.960 . S
H1363 C1376 0.960 . S
C1364 H1356 0.929 . S
C1364 C1365 1.377 1_554 S
C1364 C1366 1.384 1_554 S
C1365 C1364 1.377 1_556 S
C1365 C1371 1.390 . S
C1366 H1357 0.930 . S
C1366 C1364 1.384 1_556 S
C1366 C1367 1.372 . S
C1367 C1366 1.372 . S
C1367 C1368 1.400 . S
C1367 C1372 1.490 . S
C1368 H1358 0.930 . S
C1368 C1367 1.400 . S
C1368 C1371 1.386 . S
H1369 C1385 0.930 . S
H1370 C1386 0.931 . S
C1371 H1359 0.929 . S
C1371 C1365 1.390 . S
C1371 C1368 1.386 . S
C1372 C1367 1.490 . S
C1372 C1374 1.395 . S
C1372 C1375 1.403 . S
H1373 C1379 0.930 . S
C1374 H1360 0.930 . S
C1374 C1372 1.395 . S
C1374 C1377 1.403 1_455 S
C1375 C1372 1.403 . S
C1375 C1376 1.524 . S
C1375 C1379 1.400 1_455 S
C1376 H1361 0.960 . S
C1376 H1362 0.960 . S
C1376 H1363 0.960 . S
C1376 C1375 1.524 . S
C1377 C1374 1.403 1_655 S
C1377 C1378 1.392 . S
C1377 C1381 1.495 . S
C1378 C1377 1.392 . S
C1378 C1379 1.385 . S
C1378 C1380 1.478 . S
C1379 H1373 0.930 . S
C1379 C1375 1.400 1_655 S
C1379 C1378 1.385 . S
C1380 C1378 1.478 . S
C1380 C1382 1.381 . S
C1380 C1386 1.383 . S
C1381 C1377 1.495 . S
C1381 H1387 0.959 . S
C1381 H1388 0.961 . S
C1381 H1389 0.960 . S
C1382 C1380 1.381 . S
C1382 C1383 1.394 . S
C1382 H1390 0.930 . S
C1383 C1382 1.394 . S
C1383 C1384 1.383 . S
C1383 H1391 0.929 . S
C1384 C1383 1.383 . S
C1384 C1385 1.377 . S
C1385 H1369 0.930 . S
C1385 C1384 1.377 . S
C1385 C1386 1.379 . S
C1386 H1370 0.931 . S
C1386 C1380 1.383 . S
C1386 C1385 1.379 . S
H1387 C1381 0.959 . S
H1388 C1381 0.961 . S
H1389 C1381 0.960 . S
H1390 C1382 0.930 . S
H1391 C1383 0.929 . S
H1392 C1400 0.929 . S
H1393 C1402 0.930 . S
H1394 C1404 0.930 . S
H1395 C1407 0.929 . S
H1396 C1410 0.945 . S
H1397 C1412 0.960 . S
H1398 C1412 0.960 . S
H1399 C1412 0.960 . S
C1400 H1392 0.929 . S
C1400 C1401 1.377 . S
C1400 C1402 1.384 1_556 S
C1401 C1400 1.377 . S
C1401 C1407 1.390 . S
C1402 H1393 0.930 . S
C1402 C1400 1.384 1_554 S
C1402 C1403 1.372 . S
C1403 C1402 1.372 . S
C1403 C1404 1.400 1_554 S
C1403 C1408 1.490 . S
C1404 H1394 0.930 . S
C1404 C1403 1.400 1_556 S
C1404 C1407 1.386 . S
H1405 C1421 0.930 . S
H1406 C1422 0.931 . S
C1407 H1395 0.929 . S
C1407 C1401 1.390 . S
C1407 C1404 1.386 . S
C1408 C1403 1.490 . S
C1408 C1410 1.395 . S
C1408 C1411 1.403 . S
H1409 C1415 0.930 . S
C1410 H1396 0.945 . S
C1410 C1408 1.395 . S
C1410 C1413 1.403 1_565 S
C1411 C1408 1.403 . S
C1411 C1412 1.524 . S
C1411 C1415 1.400 1_565 S
C1412 H1397 0.960 . S
C1412 H1398 0.960 . S
C1412 H1399 0.960 . S
C1412 C1411 1.524 . S
C1413 C1410 1.403 1_545 S
C1413 C1414 1.392 . S
C1413 C1417 1.495 . S
C1414 C1413 1.392 . S
C1414 C1415 1.385 . S
C1414 C1416 1.478 . S
C1415 H1409 0.930 . S
C1415 C1411 1.400 1_545 S
C1415 C1414 1.385 . S
C1416 C1414 1.478 . S
C1416 C1418 1.381 . S
C1416 C1422 1.383 . S
C1417 C1413 1.495 . S
C1417 H1423 0.959 . S
C1417 H1424 0.961 . S
C1417 H1425 0.960 . S
C1418 C1416 1.381 . S
C1418 C1419 1.394 . S
C1418 H1426 0.930 . S
C1419 C1418 1.394 . S
C1419 C1420 1.383 . S
C1419 H1427 0.929 . S
C1420 C1419 1.383 . S
C1420 C1421 1.377 . S
C1421 H1405 0.930 . S
C1421 C1420 1.377 . S
C1421 C1422 1.379 . S
C1422 H1406 0.931 . S
C1422 C1416 1.383 . S
C1422 C1421 1.379 . S
H1423 C1417 0.959 . S
H1424 C1417 0.961 . S
H1425 C1417 0.960 . S
H1426 C1418 0.930 . S
H1427 C1419 0.929 . S
H1428 C1436 0.929 . S
H1429 C1438 0.930 . S
H1430 C1440 0.930 . S
H1431 C1443 0.929 . S
H1432 C1446 0.930 . S
H1433 C1448 0.960 . S
H1434 C1448 0.960 . S
H1435 C1448 0.960 . S
C1436 H1428 0.929 . S
C1436 C1437 1.377 . S
C1436 C1438 1.384 . S
C1437 C1436 1.377 . S
C1437 C1443 1.390 . S
C1438 H1429 0.930 . S
C1438 C1436 1.384 . S
C1438 C1439 1.372 . S
C1439 C1438 1.372 . S
C1439 C1440 1.400 . S
C1439 C1444 1.490 . S
C1440 H1430 0.930 . S
C1440 C1439 1.400 . S
C1440 C1443 1.386 . S
H1441 C1457 0.930 . S
H1442 C1458 0.931 . S
C1443 H1431 0.929 . S
C1443 C1437 1.390 . S
C1443 C1440 1.386 . S
C1444 C1439 1.490 . S
C1444 C1446 1.395 . S
C1444 C1447 1.403 . S
H1445 C1451 0.930 . S
C1446 H1432 0.930 . S
C1446 C1444 1.395 . S
C1446 C1449 1.403 . S
C1447 C1444 1.403 . S
C1447 C1448 1.524 . S
C1447 C1451 1.400 . S
C1448 H1433 0.960 . S
C1448 H1434 0.960 . S
C1448 H1435 0.960 . S
C1448 C1447 1.524 . S
C1449 C1446 1.403 . S
C1449 C1450 1.392 . S
C1449 C1453 1.495 . S
C1450 C1449 1.392 . S
C1450 C1451 1.385 . S
C1450 C1452 1.478 . S
C1451 H1445 0.930 . S
C1451 C1447 1.400 . S
C1451 C1450 1.385 . S
C1452 C1450 1.478 . S
C1452 C1454 1.381 . S
C1452 C1458 1.383 . S
C1453 C1449 1.495 . S
C1453 H1459 0.959 . S
C1453 H1460 0.961 . S
C1453 H1461 0.960 . S
C1454 C1452 1.381 . S
C1454 C1455 1.394 . S
C1454 H1462 0.930 . S
C1455 C1454 1.394 . S
C1455 C1456 1.383 . S
C1455 H1463 0.929 . S
C1456 C1455 1.383 . S
C1456 C1457 1.377 . S
C1457 H1441 0.930 . S
C1457 C1456 1.377 . S
C1457 C1458 1.379 . S
C1458 H1442 0.931 . S
C1458 C1452 1.383 . S
C1458 C1457 1.379 . S
H1459 C1453 0.959 . S
H1460 C1453 0.961 . S
H1461 C1453 0.960 . S
H1462 C1454 0.930 . S
H1463 C1455 0.929 . S
H1464 C1472 0.929 . S
H1465 C1474 0.930 . S
H1466 C1476 0.930 . S
H1467 C1479 0.929 . S
H1468 C1482 0.930 . S
H1469 C1484 0.960 . S
H1470 C1484 0.960 . S
H1471 C1484 0.960 . S
C1472 H1464 0.929 . S
C1472 C1473 1.377 . S
C1472 C1474 1.384 . S
C1473 C1472 1.377 . S
C1473 C1479 1.390 . S
C1474 H1465 0.930 . S
C1474 C1472 1.384 . S
C1474 C1475 1.372 . S
C1475 C1474 1.372 . S
C1475 C1476 1.400 . S
C1475 C1480 1.490 . S
C1476 H1466 0.930 . S
C1476 C1475 1.400 . S
C1476 C1479 1.386 . S
H1477 C1493 0.930 . S
H1478 C1494 0.931 . S
C1479 H1467 0.929 . S
C1479 C1473 1.390 . S
C1479 C1476 1.386 . S
C1480 C1475 1.490 . S
C1480 C1482 1.395 . S
C1480 C1483 1.403 . S
H1481 C1487 0.930 . S
C1482 H1468 0.930 . S
C1482 C1480 1.395 . S
C1482 C1485 1.403 1_455 S
C1483 C1480 1.403 . S
C1483 C1484 1.524 . S
C1483 C1487 1.400 1_455 S
C1484 H1469 0.960 . S
C1484 H1470 0.960 . S
C1484 H1471 0.960 . S
C1484 C1483 1.524 . S
C1485 C1482 1.403 1_655 S
C1485 C1486 1.392 . S
C1485 C1489 1.495 . S
C1486 C1485 1.392 . S
C1486 C1487 1.385 . S
C1486 C1488 1.478 . S
C1487 H1481 0.930 . S
C1487 C1483 1.400 1_655 S
C1487 C1486 1.385 . S
C1488 C1486 1.478 . S
C1488 C1490 1.381 . S
C1488 C1494 1.383 . S
C1489 C1485 1.495 . S
C1489 H1495 0.959 . S
C1489 H1496 0.961 . S
C1489 H1497 0.960 . S
C1490 C1488 1.381 . S
C1490 C1491 1.394 . S
C1490 H1498 0.930 . S
C1491 C1490 1.394 . S
C1491 C1492 1.383 . S
C1491 H1499 0.929 . S
C1492 C1491 1.383 . S
C1492 C1493 1.377 . S
C1493 H1477 0.930 . S
C1493 C1492 1.377 . S
C1493 C1494 1.379 . S
C1494 H1478 0.931 . S
C1494 C1488 1.383 . S
C1494 C1493 1.379 . S
H1495 C1489 0.959 . S
H1496 C1489 0.961 . S
H1497 C1489 0.960 . S
H1498 C1490 0.930 . S
H1499 C1491 0.929 . S
H1500 C1508 0.929 . S
H1501 C1510 0.930 . S
H1502 C1512 0.930 . S
H1503 C1515 0.929 . S
H1504 C1518 0.930 . S
H1505 C1520 0.960 1_565 S
H1506 C1520 0.960 . S
H1507 C1520 0.960 . S
C1508 H1500 0.929 . S
C1508 C1509 1.377 . S
C1508 C1510 1.384 . S
C1509 C1508 1.377 . S
C1509 C1515 1.390 . S
C1510 H1501 0.930 . S
C1510 C1508 1.384 . S
C1510 C1511 1.372 . S
C1511 C1510 1.372 . S
C1511 C1512 1.400 . S
C1511 C1516 1.490 . S
C1512 H1502 0.930 . S
C1512 C1511 1.400 . S
C1512 C1515 1.386 . S
H1513 C1529 0.930 . S
H1514 C1530 0.931 . S
C1515 H1503 0.929 . S
C1515 C1509 1.390 . S
C1515 C1512 1.386 . S
C1516 C1511 1.490 . S
C1516 C1518 1.395 . S
C1516 C1519 1.403 . S
H1517 C1523 0.930 . S
C1518 H1504 0.930 . S
C1518 C1516 1.395 . S
C1518 C1521 1.403 1_545 S
C1519 C1516 1.403 . S
C1519 C1520 1.524 . S
C1519 C1523 1.400 1_545 S
C1520 H1505 0.960 1_545 S
C1520 H1506 0.960 . S
C1520 H1507 0.960 . S
C1520 C1519 1.524 . S
C1521 C1518 1.403 1_565 S
C1521 C1522 1.392 . S
C1521 C1525 1.495 . S
C1522 C1521 1.392 . S
C1522 C1523 1.385 . S
C1522 C1524 1.478 . S
C1523 H1517 0.930 . S
C1523 C1519 1.400 1_565 S
C1523 C1522 1.385 . S
C1524 C1522 1.478 . S
C1524 C1526 1.381 . S
C1524 C1530 1.383 . S
C1525 C1521 1.495 . S
C1525 H1531 0.959 1_565 S
C1525 H1532 0.961 . S
C1525 H1533 0.960 . S
C1526 C1524 1.381 . S
C1526 C1527 1.394 . S
C1526 H1534 0.930 . S
C1527 C1526 1.394 . S
C1527 C1528 1.383 . S
C1527 H1535 0.929 . S
C1528 C1527 1.383 . S
C1528 C1529 1.377 . S
C1529 H1513 0.930 . S
C1529 C1528 1.377 . S
C1529 C1530 1.379 . S
C1530 H1514 0.931 . S
C1530 C1524 1.383 . S
C1530 C1529 1.379 . S
H1531 C1525 0.959 1_545 S
H1532 C1525 0.961 . S
H1533 C1525 0.960 . S
H1534 C1526 0.930 . S
H1535 C1527 0.929 . S
H1536 C1544 0.929 . S
H1537 C1546 0.930 . S
H1538 C1548 0.930 . S
H1539 C1551 0.929 . S
H1540 C1554 0.930 . S
H1541 C1556 0.960 . S
H1542 C1556 0.960 . S
H1543 C1556 0.960 . S
C1544 H1536 0.929 . S
C1544 C1545 1.377 . S
C1544 C1546 1.384 . S
C1545 C1544 1.377 . S
C1545 C1551 1.390 . S
C1546 H1537 0.930 . S
C1546 C1544 1.384 . S
C1546 C1547 1.372 . S
C1547 C1546 1.372 . S
C1547 C1548 1.400 . S
C1547 C1552 1.490 . S
C1548 H1538 0.930 . S
C1548 C1547 1.400 . S
C1548 C1551 1.386 . S
H1549 C1565 0.930 . S
H1550 C1566 0.931 . S
C1551 H1539 0.929 . S
C1551 C1545 1.390 . S
C1551 C1548 1.386 . S
C1552 C1547 1.490 . S
C1552 C1554 1.395 . S
C1552 C1555 1.403 . S
H1553 C1559 0.930 . S
C1554 H1540 0.930 . S
C1554 C1552 1.395 . S
C1554 C1557 1.403 . S
C1555 C1552 1.403 . S
C1555 C1556 1.524 . S
C1555 C1559 1.400 . S
C1556 H1541 0.960 . S
C1556 H1542 0.960 . S
C1556 H1543 0.960 . S
C1556 C1555 1.524 . S
C1557 C1554 1.403 . S
C1557 C1558 1.392 . S
C1557 C1561 1.495 . S
C1558 C1557 1.392 . S
C1558 C1559 1.385 . S
C1558 C1560 1.478 . S
C1559 H1553 0.930 . S
C1559 C1555 1.400 . S
C1559 C1558 1.385 . S
C1560 C1558 1.478 . S
C1560 C1562 1.381 . S
C1560 C1566 1.383 . S
C1561 C1557 1.495 . S
C1561 H1567 0.959 . S
C1561 H1568 0.961 . S
C1561 H1569 0.960 . S
C1562 C1560 1.381 . S
C1562 C1563 1.394 . S
C1562 H1570 0.930 . S
C1563 C1562 1.394 . S
C1563 C1564 1.383 . S
C1563 H1571 0.929 . S
C1564 C1563 1.383 . S
C1564 C1565 1.377 . S
C1565 H1549 0.930 . S
C1565 C1564 1.377 . S
C1565 C1566 1.379 . S
C1566 H1550 0.931 . S
C1566 C1560 1.383 . S
C1566 C1565 1.379 . S
H1567 C1561 0.959 . S
H1568 C1561 0.961 . S
H1569 C1561 0.960 . S
H1570 C1562 0.930 . S
H1571 C1563 0.929 . S
C717 C52 1.737 . S
C736 C642 1.736 . S
C753 C682 1.736 . S
C772 C111 1.738 . S
C789 C151 1.736 . S
C808 C406 1.729 . S
C825 C229 1.738 . S
C844 C465 1.732 . S
C861 C288 1.737 . S
C880 C505 1.730 . S
C897 C583 1.737 . S
C916 C328 1.737 . S
C933 C3 1.744 . S
C952 C477 1.754 . S
C969 C62 1.745 . S
C988 C534 1.743 . S
C1005 C593 1.748 . S
C1024 C123 1.740 . S
C1041 C180 1.748 . S
C1060 C654 1.740 . S
C1077 C239 1.745 . S
C1096 C357 1.749 . S
C1113 C300 1.751 . S
C1132 C416 1.735 1_556 S
C1149 C623 1.669 . S
C1168 C33 1.672 . S
C1185 C92 1.667 . S
C1204 C701 1.649 . S
C1221 C170 1.662 . S
C1240 C387 1.671 . S
C1257 C210 1.667 . S
C1276 C446 1.664 . S
C1293 C524 1.664 . S
C1312 C269 1.672 . S
C1329 C347 1.661 . S
C1348 C564 1.658 . S
C1365 C5 1.237 . S
C1384 C652 1.224 . S
C1401 C359 1.236 . S
C1420 C64 1.234 . S
C1437 C418 1.236 . S
C1456 C121 1.218 . S
C1473 C475 1.231 . S
C1492 C182 1.238 . S
C1509 C536 1.238 . S
C1528 C241 1.234 . S
C1545 C595 1.234 . S
C1564 C298 1.224 . S
