# Generated by pormake.
# Topology uog, (4)-cn, num edge types: 1
# Building blocks:
#     Node 0, Type 0, BuildingBlock: ICAMEG_clean_sbu_1, # of connection points: 4
#     Node 1, Type 0, BuildingBlock: ICAMEG_clean_sbu_1, # of connection points: 4
#     Node 2, Type 0, BuildingBlock: ICAMEG_clean_sbu_1, # of connection points: 4
#     Node 3, Type 0, BuildingBlock: ICAMEG_clean_sbu_1, # of connection points: 4
#     Node 4, Type 0, BuildingBlock: ICAMEG_clean_sbu_1, # of connection points: 4
#     Node 5, Type 0, BuildingBlock: ICAMEG_clean_sbu_1, # of connection points: 4
#     Edge 6, Type (0, 0), BuildingBlock: XIVTED_clean_linker_0, # of connection points: 2
#     Edge 7, Type (0, 0), BuildingBlock: XIVTED_clean_linker_0, # of connection points: 2
#     Edge 8, Type (0, 0), BuildingBlock: XIVTED_clean_linker_0, # of connection points: 2
#     Edge 9, Type (0, 0), BuildingBlock: XIVTED_clean_linker_0, # of connection points: 2
#     Edge 10, Type (0, 0), BuildingBlock: XIVTED_clean_linker_0, # of connection points: 2
#     Edge 11, Type (0, 0), BuildingBlock: XIVTED_clean_linker_0, # of connection points: 2
#     Edge 12, Type (0, 0), BuildingBlock: XIVTED_clean_linker_0, # of connection points: 2
#     Edge 13, Type (0, 0), BuildingBlock: XIVTED_clean_linker_0, # of connection points: 2
#     Edge 14, Type (0, 0), BuildingBlock: XIVTED_clean_linker_0, # of connection points: 2
#     Edge 15, Type (0, 0), BuildingBlock: XIVTED_clean_linker_0, # of connection points: 2
#     Edge 16, Type (0, 0), BuildingBlock: XIVTED_clean_linker_0, # of connection points: 2
#     Edge 17, Type (0, 0), BuildingBlock: XIVTED_clean_linker_0, # of connection points: 2
# Relax obj value: 0.054
# Max RMSD: 0.119
# Mean RMSD: 0.119
data_MOF--net-uog--node1-ICAMEG_clean_sbu_1--edge1-XIVTED_clean_linker_0
_symmetry_space_group_name_H-M    P1
_symmetry_Int_Tables_number       1
_symmetry_cell_setting            triclinic
loop_
_symmetry_equiv_pos_as_xyz
'x, y, z'
_cell_length_a     30.386208
_cell_length_b     30.369029
_cell_length_c     45.859405
_cell_angle_alpha  90.004517
_cell_angle_beta   89.994162
_cell_angle_gamma 120.01377
loop_
_atom_site_label
_atom_site_type_symbol
_atom_site_fract_x
_atom_site_fract_y
_atom_site_fract_z
_atom_type_partial_charge
Co0 Co 0.63987 0.34785 0.16045 0.0
Co1 Co 0.51924 0.26147 0.1833 0.0
O2 O 0.57872 0.28109 0.15892 0.0
C3 C 0.61106 0.33213 0.09827 0.0
O4 O 0.56559 0.32219 0.10645 0.0
C5 C 0.54452 0.18124 0.19302 0.0
O6 O 0.59148 0.21772 0.19746 0.0
O7 O 0.56206 0.28304 0.21882 0.0
O8 O 0.63484 0.35117 0.20405 0.0
H9 H 0.42003 0.28383 0.26388 0.0
H10 H 0.64272 0.26243 0.13082 0.0
O11 O 0.64623 0.345 0.11711 0.0
H12 H 0.77146 0.31784 0.20872 0.0
H13 H 0.81759 0.47846 0.1306 0.0
H14 H 0.67026 0.44433 0.19171 0.0
H15 H 0.72225 0.36138 0.20128 0.0
H16 H 0.73999 0.394 0.13014 0.0
O17 O 0.51004 0.19194 0.18708 0.0
H18 H 0.49466 0.30928 0.23228 0.0
H19 H 0.41691 0.16856 0.18711 0.0
H20 H 0.74726 0.52921 0.19304 0.0
H21 H 0.69143 0.21815 0.13734 0.0
H22 H 0.82162 0.54668 0.16233 0.0
H23 H 0.75622 0.24571 0.17659 0.0
O24 O 0.59888 0.38195 0.15536 0.0
H25 H 0.4603 0.17397 0.08643 0.0
H26 H 0.43864 0.28043 0.15976 0.0
H27 H 0.38751 0.25666 0.1147 0.0
H28 H 0.39817 0.20302 0.07767 0.0
H29 H 0.51093 0.19896 0.13169 0.0
H30 H 0.34154 0.14139 0.21836 0.0
H31 H 0.34275 0.19933 0.25699 0.0
O32 O 0.52731 0.33057 0.18016 0.0
C33 C 0.60537 0.32184 0.224 0.0
C34 C 0.41896 0.25834 0.24704 0.0
C35 C 0.37493 0.17837 0.22151 0.0
N36 N 0.45992 0.24067 0.20768 0.0
C37 C 0.46103 0.27261 0.22902 0.0
C38 C 0.41773 0.19392 0.20392 0.0
C39 C 0.37563 0.2109 0.24318 0.0
C40 C 0.67122 0.27501 0.14775 0.0
N41 N 0.67975 0.3146 0.16556 0.0
C42 C 0.69853 0.24963 0.15142 0.0
C43 C 0.73481 0.26506 0.17348 0.0
C44 C 0.74335 0.3055 0.19153 0.0
C45 C 0.71527 0.32993 0.18725 0.0
C46 C 0.78547 0.47128 0.14412 0.0
C47 C 0.70259 0.45159 0.17842 0.0
C48 C 0.7414 0.42359 0.1439 0.0
N49 N 0.70083 0.41419 0.16105 0.0
C50 C 0.74602 0.49975 0.1792 0.0
C51 C 0.78771 0.50954 0.16194 0.0
C52 C 0.55682 0.37205 0.16703 0.0
C53 C 0.45518 0.19721 0.10245 0.0
C54 C 0.44354 0.25713 0.14373 0.0
C55 C 0.41442 0.24372 0.11828 0.0
C56 C 0.42039 0.21359 0.09752 0.0
N57 N 0.47755 0.24087 0.14841 0.0
C58 C 0.48358 0.21128 0.12818 0.0
Co59 Co 0.29056 0.63247 0.49234 0.0
Co60 Co 0.25259 0.50996 0.51477 0.0
O61 O 0.29523 0.57068 0.49173 0.0
C62 C 0.27634 0.60164 0.43046 0.0
O63 O 0.24197 0.55601 0.43918 0.0
C64 C 0.35698 0.53844 0.53131 0.0
O65 O 0.36592 0.58518 0.53437 0.0
O66 O 0.26557 0.5513 0.55082 0.0
O67 O 0.28253 0.62866 0.53565 0.0
H68 H 0.11634 0.40443 0.58742 0.0
H69 H 0.37758 0.63259 0.46291 0.0
O70 O 0.29901 0.63739 0.44895 0.0
H71 H 0.45362 0.76336 0.53965 0.0
H72 H 0.34043 0.81009 0.46057 0.0
H73 H 0.22606 0.66542 0.52308 0.0
H74 H 0.36076 0.71546 0.53243 0.0
H75 H 0.34575 0.73164 0.46109 0.0
O76 O 0.31318 0.50313 0.52359 0.0
H77 H 0.16978 0.48078 0.55783 0.0
H78 H 0.24667 0.40942 0.52121 0.0
H79 H 0.21968 0.74328 0.52342 0.0
H80 H 0.47066 0.67988 0.46924 0.0
H81 H 0.27716 0.81631 0.492 0.0
H82 H 0.50924 0.7457 0.50791 0.0
O83 O 0.21535 0.59278 0.48766 0.0
H84 H 0.30338 0.45856 0.42222 0.0
H85 H 0.16001 0.42645 0.48627 0.0
H86 H 0.14347 0.37721 0.44082 0.0
H87 H 0.21551 0.39314 0.40844 0.0
H88 H 0.31811 0.50721 0.46777 0.0
H89 H 0.19438 0.33247 0.5506 0.0
H90 H 0.12851 0.32959 0.5839 0.0
O91 O 0.19132 0.5155 0.50629 0.0
C92 C 0.27499 0.59657 0.55575 0.0
C93 C 0.1448 0.40517 0.57292 0.0
C94 C 0.18866 0.3648 0.55228 0.0
N95 N 0.21098 0.44937 0.53766 0.0
C96 C 0.17506 0.44822 0.55605 0.0
C97 C 0.21822 0.40851 0.53575 0.0
C98 C 0.15169 0.3632 0.57096 0.0
C99 C 0.39411 0.66153 0.47959 0.0
N100 N 0.36377 0.67143 0.49716 0.0
C101 C 0.44683 0.68803 0.48315 0.0
C102 C 0.46845 0.7249 0.50488 0.0
C103 C 0.43726 0.73481 0.52271 0.0
C104 C 0.38469 0.70749 0.51855 0.0
C105 C 0.31523 0.77856 0.4744 0.0
C106 C 0.25139 0.69717 0.50948 0.0
C107 C 0.318 0.73402 0.47473 0.0
N108 N 0.28649 0.69418 0.49226 0.0
C109 C 0.24751 0.74109 0.5097 0.0
C110 C 0.27974 0.78203 0.49204 0.0
C111 C 0.18138 0.54804 0.49521 0.0
C112 C 0.27169 0.4512 0.43617 0.0
C113 C 0.19149 0.43374 0.47225 0.0
C114 C 0.18193 0.40563 0.44658 0.0
C115 C 0.22237 0.41456 0.42843 0.0
N116 N 0.23996 0.46964 0.47968 0.0
C117 C 0.27981 0.47851 0.46204 0.0
Co118 Co 0.65431 0.29168 0.82713 0.0
Co119 Co 0.738 0.25261 0.84921 0.0
O120 O 0.72048 0.2958 0.82637 0.0
C121 C 0.67192 0.27974 0.76508 0.0
O122 O 0.68183 0.24419 0.7733 0.0
C123 C 0.81537 0.35687 0.86528 0.0
O124 O 0.77801 0.36631 0.86884 0.0
O125 O 0.71076 0.2665 0.88539 0.0
O126 O 0.64956 0.28235 0.8704 0.0
H127 H 0.70645 0.11629 0.92202 0.0
H128 H 0.74204 0.3794 0.79861 0.0
O129 O 0.65862 0.30179 0.78384 0.0
H130 H 0.68705 0.45363 0.87625 0.0
H131 H 0.52787 0.34367 0.79619 0.0
H132 H 0.5564 0.22665 0.85731 0.0
H133 H 0.6416 0.36097 0.86801 0.0
H134 H 0.61134 0.34842 0.79661 0.0
O135 O 0.8061 0.31277 0.85762 0.0
H136 H 0.68416 0.17031 0.89255 0.0
H137 H 0.83179 0.24515 0.85512 0.0
H138 H 0.47245 0.22081 0.85773 0.0
H139 H 0.78831 0.47229 0.80597 0.0
H140 H 0.45779 0.27963 0.82701 0.0
H141 H 0.76096 0.50997 0.84508 0.0
O142 O 0.6184 0.21652 0.82165 0.0
H143 H 0.8385 0.30146 0.75607 0.0
H144 H 0.72702 0.15917 0.82076 0.0
H145 H 0.75838 0.14161 0.77512 0.0
H146 H 0.81458 0.2131 0.74241 0.0
H147 H 0.80591 0.31721 0.80181 0.0
H148 H 0.85585 0.19227 0.88436 0.0
H149 H 0.79286 0.12714 0.91802 0.0
O150 O 0.67048 0.19171 0.84107 0.0
C151 C 0.67467 0.27548 0.89043 0.0
C152 C 0.73417 0.14443 0.90736 0.0
C153 C 0.81805 0.18712 0.88626 0.0
N154 N 0.75649 0.21051 0.87197 0.0
C155 C 0.72172 0.175 0.89056 0.0
C156 C 0.80425 0.21702 0.86981 0.0
C157 C 0.78268 0.15057 0.90513 0.0
C158 C 0.72957 0.39554 0.81548 0.0
N159 N 0.68898 0.36479 0.83275 0.0
C160 C 0.75606 0.44815 0.81963 0.0
C161 C 0.74075 0.46926 0.84161 0.0
C162 C 0.6993 0.43767 0.85911 0.0
C163 C 0.67377 0.38521 0.85438 0.0
C164 C 0.53382 0.3179 0.80971 0.0
C165 C 0.55037 0.25256 0.84402 0.0
C166 C 0.58095 0.32033 0.80998 0.0
N167 N 0.58879 0.28808 0.82713 0.0
C168 C 0.50273 0.24898 0.84428 0.0
C169 C 0.49452 0.28196 0.82702 0.0
C170 C 0.62841 0.18216 0.82954 0.0
C171 C 0.81411 0.27 0.77016 0.0
C172 C 0.75125 0.19042 0.8066 0.0
C173 C 0.76904 0.18028 0.78082 0.0
C174 C 0.80061 0.22041 0.76249 0.0
N175 N 0.76461 0.23914 0.81396 0.0
C176 C 0.79568 0.2787 0.79614 0.0
Co177 Co 0.35482 0.64849 0.15804 0.0
Co178 Co 0.47558 0.73497 0.18078 0.0
O179 O 0.41598 0.71525 0.15651 0.0
C180 C 0.38424 0.66409 0.09602 0.0
O181 O 0.42953 0.67386 0.10447 0.0
C182 C 0.4499 0.81484 0.19089 0.0
O183 O 0.40296 0.77821 0.1952 0.0
O184 O 0.43289 0.71304 0.21637 0.0
O185 O 0.35967 0.64535 0.20164 0.0
H186 H 0.57538 0.71286 0.26108 0.0
H187 H 0.3522 0.73385 0.12817 0.0
O188 O 0.34879 0.65125 0.11467 0.0
H189 H 0.22309 0.67881 0.20586 0.0
H190 H 0.17725 0.51791 0.12796 0.0
H191 H 0.32414 0.55212 0.18948 0.0
H192 H 0.27229 0.63519 0.19867 0.0
H193 H 0.25491 0.60232 0.12751 0.0
O194 O 0.48448 0.80435 0.18481 0.0
H195 H 0.50057 0.68725 0.22962 0.0
H196 H 0.57776 0.82808 0.18452 0.0
H197 H 0.24708 0.46728 0.1908 0.0
H198 H 0.30351 0.77821 0.13444 0.0
H199 H 0.17294 0.44977 0.15988 0.0
H200 H 0.23854 0.75084 0.17358 0.0
O201 O 0.39573 0.61424 0.15318 0.0
H202 H 0.53363 0.82291 0.08397 0.0
H203 H 0.55638 0.7166 0.1569 0.0
H204 H 0.60718 0.74069 0.11171 0.0
H205 H 0.59596 0.79424 0.07488 0.0
H206 H 0.48334 0.79763 0.12937 0.0
H207 H 0.6533 0.85541 0.21564 0.0
H208 H 0.65247 0.7975 0.25416 0.0
O209 O 0.46782 0.66604 0.17743 0.0
C210 C 0.38942 0.67448 0.22157 0.0
C211 C 0.5763 0.73834 0.24428 0.0
C212 C 0.62 0.81837 0.2188 0.0
N213 N 0.53504 0.75589 0.20505 0.0
C214 C 0.53412 0.72397 0.22634 0.0
C215 C 0.57711 0.80272 0.20128 0.0
C216 C 0.61951 0.78586 0.24041 0.0
C217 C 0.32362 0.72135 0.14506 0.0
N218 N 0.31497 0.68181 0.16294 0.0
C219 C 0.29633 0.74678 0.14858 0.0
C220 C 0.25993 0.73145 0.17058 0.0
C221 C 0.25128 0.69107 0.18871 0.0
C222 C 0.27935 0.66659 0.18458 0.0
C223 C 0.20927 0.5251 0.14157 0.0
C224 C 0.2919 0.54483 0.1761 0.0
C225 C 0.25337 0.57277 0.14136 0.0
N226 N 0.29382 0.58218 0.15863 0.0
C227 C 0.24844 0.4967 0.17687 0.0
C228 C 0.20687 0.48689 0.1595 0.0
C229 C 0.43805 0.62434 0.16457 0.0
C230 C 0.53899 0.79972 0.09991 0.0
C231 C 0.55125 0.73988 0.14097 0.0
C232 C 0.58019 0.75347 0.11544 0.0
C233 C 0.5739 0.78355 0.09479 0.0
N234 N 0.51712 0.75593 0.14583 0.0
C235 C 0.51079 0.78548 0.12571 0.0
Co236 Co 0.70551 0.36602 0.49475 0.0
Co237 Co 0.74414 0.48902 0.51648 0.0
O238 O 0.70115 0.42797 0.49378 0.0
C239 C 0.71942 0.39593 0.43272 0.0
O240 O 0.75396 0.44162 0.44126 0.0
C241 C 0.63996 0.46121 0.53306 0.0
O242 O 0.63091 0.41448 0.53646 0.0
O243 O 0.73126 0.44826 0.55274 0.0
O244 O 0.71383 0.3705 0.53806 0.0
H245 H 0.88105 0.59534 0.58861 0.0
H246 H 0.6185 0.36586 0.46529 0.0
O247 O 0.69675 0.36044 0.45136 0.0
H248 H 0.54254 0.23636 0.54271 0.0
H249 H 0.65474 0.18773 0.46392 0.0
H250 H 0.76993 0.3332 0.52568 0.0
H251 H 0.63536 0.2838 0.53525 0.0
H252 H 0.64977 0.26637 0.46401 0.0
O253 O 0.68378 0.49629 0.5252 0.0
H254 H 0.82719 0.51859 0.55941 0.0
H255 H 0.75058 0.58987 0.52235 0.0
H256 H 0.77597 0.25516 0.52643 0.0
H257 H 0.52547 0.31903 0.47186 0.0
H258 H 0.71807 0.18172 0.49538 0.0
H259 H 0.48693 0.25385 0.51086 0.0
O260 O 0.78069 0.40538 0.48985 0.0
H261 H 0.69309 0.53918 0.42359 0.0
H262 H 0.8367 0.57183 0.48756 0.0
H263 H 0.85313 0.62032 0.44183 0.0
H264 H 0.78097 0.60411 0.40949 0.0
H265 H 0.67848 0.49127 0.46941 0.0
H266 H 0.80329 0.66724 0.55133 0.0
H267 H 0.86924 0.67036 0.58466 0.0
O268 O 0.8052 0.48304 0.50805 0.0
C269 C 0.72164 0.40301 0.55796 0.0
C270 C 0.85256 0.5945 0.57409 0.0
C271 C 0.80887 0.63483 0.5532 0.0
N272 N 0.7861 0.54994 0.53904 0.0
C273 C 0.82206 0.55122 0.55745 0.0
C274 C 0.77906 0.59089 0.5369 0.0
C275 C 0.84587 0.63656 0.57189 0.0
C276 C 0.60198 0.3372 0.48212 0.0
N277 N 0.63232 0.3274 0.49975 0.0
C278 C 0.54929 0.31095 0.48582 0.0
C279 C 0.5277 0.27445 0.50773 0.0
C280 C 0.55888 0.26463 0.52562 0.0
C281 C 0.61143 0.29169 0.52132 0.0
C282 C 0.68011 0.21943 0.47758 0.0
C283 C 0.74442 0.30128 0.51225 0.0
C284 C 0.67754 0.26409 0.47768 0.0
N285 N 0.70928 0.30415 0.49501 0.0
C286 C 0.74811 0.25725 0.5127 0.0
C287 C 0.71564 0.21608 0.49525 0.0
C288 C 0.81486 0.4502 0.49713 0.0
C289 C 0.72484 0.54665 0.43752 0.0
C290 C 0.80517 0.56442 0.47356 0.0
C291 C 0.81466 0.59211 0.44773 0.0
C292 C 0.77416 0.58303 0.4296 0.0
N293 N 0.7567 0.52878 0.48116 0.0
C294 C 0.71678 0.51977 0.46354 0.0
Co295 Co 0.3386 0.70385 0.82604 0.0
Co296 Co 0.25416 0.74273 0.84691 0.0
O297 O 0.27234 0.69947 0.82461 0.0
C298 C 0.32228 0.71529 0.76372 0.0
O299 O 0.31185 0.75066 0.77154 0.0
C300 C 0.17687 0.6386 0.86327 0.0
O301 O 0.21429 0.62935 0.86715 0.0
O302 O 0.28093 0.72947 0.88348 0.0
O303 O 0.34235 0.71339 0.86927 0.0
H304 H 0.28388 0.87974 0.91881 0.0
H305 H 0.25168 0.61585 0.79718 0.0
O306 O 0.33534 0.69354 0.78281 0.0
H307 H 0.30525 0.54227 0.8759 0.0
H308 H 0.46612 0.65223 0.79684 0.0
H309 H 0.43577 0.76924 0.85683 0.0
H310 H 0.35063 0.6349 0.86753 0.0
H311 H 0.38252 0.64719 0.79639 0.0
O312 O 0.18606 0.6825 0.85522 0.0
H313 H 0.30699 0.82561 0.89004 0.0
H314 H 0.16002 0.74979 0.8518 0.0
H315 H 0.51984 0.77537 0.8581 0.0
H316 H 0.20551 0.52299 0.80465 0.0
H317 H 0.53541 0.71656 0.82796 0.0
H318 H 0.23214 0.48564 0.84431 0.0
O319 O 0.37448 0.77899 0.82044 0.0
H320 H 0.15509 0.69231 0.75327 0.0
H321 H 0.26523 0.83563 0.81771 0.0
H322 H 0.23443 0.8524 0.77162 0.0
H323 H 0.17889 0.78039 0.73904 0.0
H324 H 0.18713 0.67735 0.79945 0.0
H325 H 0.13515 0.80277 0.88032 0.0
H326 H 0.1974 0.86846 0.91402 0.0
O327 O 0.32167 0.8037 0.8389 0.0
C328 C 0.3169 0.72052 0.88897 0.0
C329 C 0.25648 0.85136 0.90412 0.0
C330 C 0.17298 0.80812 0.88255 0.0
N331 N 0.23504 0.78491 0.8691 0.0
C332 C 0.2694 0.82072 0.88772 0.0
C333 C 0.18723 0.77816 0.86651 0.0
C334 C 0.20793 0.84498 0.90145 0.0
C335 C 0.26385 0.59986 0.81429 0.0
N336 N 0.30399 0.63077 0.83179 0.0
C337 C 0.23741 0.54726 0.8185 0.0
C338 C 0.25232 0.52633 0.84078 0.0
C339 C 0.29331 0.55809 0.85853 0.0
C340 C 0.31881 0.61053 0.85372 0.0
C341 C 0.45977 0.67801 0.81011 0.0
C342 C 0.4422 0.74334 0.84378 0.0
C343 C 0.41256 0.6754 0.8099 0.0
N344 N 0.40422 0.70765 0.82673 0.0
C345 C 0.4899 0.74708 0.84453 0.0
C346 C 0.49863 0.7141 0.82759 0.0
C347 C 0.3641 0.8133 0.82788 0.0
C348 C 0.17919 0.72399 0.7673 0.0
C349 C 0.24129 0.80416 0.8036 0.0
C350 C 0.22381 0.81385 0.77756 0.0
C351 C 0.19262 0.77343 0.75931 0.0
N352 N 0.228 0.75558 0.81128 0.0
C353 C 0.1973 0.71574 0.79353 0.0
H354 H 0.60912 0.14323 0.19773 0.0
H355 H 0.3852 0.85265 0.1963 0.0
H356 H 0.44998 0.09698 0.19103 0.0
H357 H 0.5444 0.8992 0.18939 0.0
H358 H 0.40823 0.94211 0.19822 0.0
H359 H 0.58605 0.05372 0.19856 0.0
C360 C 0.56935 0.11427 0.19655 0.0
C361 C 0.53142 0.12754 0.19426 0.0
C362 C 0.43809 0.93269 0.19632 0.0
C363 C 0.5048 0.02524 0.19517 0.0
C364 C 0.42498 0.88165 0.19529 0.0
C365 C 0.46293 0.86849 0.19264 0.0
C366 C 0.48951 0.97073 0.19482 0.0
C367 C 0.51387 0.90762 0.19134 0.0
C368 C 0.55621 0.06321 0.19695 0.0
C369 C 0.48049 0.08847 0.19271 0.0
N370 N 0.52566 0.95698 0.19245 0.0
N371 N 0.46867 0.03908 0.1932 0.0
H372 H 0.34876 0.44477 0.53333 0.0
H373 H 0.64825 0.55495 0.53419 0.0
H374 H 0.4588 0.60509 0.53838 0.0
H375 H 0.53809 0.39476 0.54004 0.0
H376 H 0.57946 0.57408 0.53712 0.0
H377 H 0.41753 0.42575 0.53716 0.0
C378 C 0.38741 0.47601 0.53538 0.0
C379 C 0.39812 0.52665 0.53538 0.0
C380 C 0.57031 0.53476 0.53797 0.0
C381 C 0.47707 0.50505 0.53967 0.0
C382 C 0.60957 0.52377 0.53624 0.0
C383 C 0.59883 0.47312 0.53671 0.0
C384 C 0.51986 0.49484 0.53996 0.0
C385 C 0.54807 0.43433 0.53958 0.0
C386 C 0.42666 0.46508 0.53763 0.0
C387 C 0.44885 0.56552 0.53827 0.0
N388 N 0.51039 0.446 0.54088 0.0
N389 N 0.48652 0.5539 0.54009 0.0
H390 H 0.90048 0.348 0.86618 0.0
H391 H 0.09172 0.64741 0.86368 0.0
H392 H 0.85162 0.45907 0.87156 0.0
H393 H 0.14077 0.5367 0.87101 0.0
H394 H 0.00361 0.57901 0.86719 0.0
H395 H 0.98866 0.41655 0.86864 0.0
C396 C 0.90829 0.38683 0.86802 0.0
C397 C 0.86863 0.39788 0.86854 0.0
C398 C 0.03362 0.56967 0.86822 0.0
C399 C 0.9696 0.47656 0.87123 0.0
C400 C 0.08397 0.6087 0.86615 0.0
C401 C 0.12366 0.59769 0.86693 0.0
C402 C 0.02277 0.51917 0.87086 0.0
C403 C 0.11135 0.54689 0.87032 0.0
C404 C 0.95868 0.42594 0.86948 0.0
C405 C 0.88101 0.44883 0.8711 0.0
N406 N 0.06192 0.50944 0.87196 0.0
N407 N 0.93047 0.48635 0.87214 0.0
H408 H 0.09858 0.45229 0.49855 0.0
H409 H 0.89787 0.54587 0.50013 0.0
H410 H 0.14056 0.60904 0.48387 0.0
H411 H 0.85527 0.38897 0.4853 0.0
H412 H 0.98692 0.56975 0.4959 0.0
H413 H 0.00937 0.4283 0.49536 0.0
C414 C 0.08916 0.4817 0.49444 0.0
C415 C 0.12729 0.53286 0.49152 0.0
C416 C 0.95808 0.53017 0.4933 0.0
C417 C 0.02491 0.50549 0.4882 0.0
C418 C 0.90711 0.51639 0.49578 0.0
C419 C 0.86885 0.46523 0.4931 0.0
C420 C 0.97108 0.4925 0.48857 0.0
C421 C 0.8834 0.42885 0.4875 0.0
C422 C 0.03811 0.46786 0.49256 0.0
C423 C 0.11253 0.56917 0.48624 0.0
N424 N 0.93344 0.44315 0.48571 0.0
N425 N 0.06243 0.55482 0.48504 0.0
H426 H 0.46596 0.85347 0.81676 0.0
H427 H 0.52721 0.14218 0.81653 0.0
H428 H 0.35205 0.89671 0.83081 0.0
H429 H 0.64004 0.0986 0.83371 0.0
H430 H 0.46267 0.05209 0.81265 0.0
H431 H 0.53067 0.94363 0.8138 0.0
C432 C 0.45441 0.88178 0.81894 0.0
C433 C 0.40342 0.86737 0.82414 0.0
C434 C 0.50169 0.06245 0.81709 0.0
C435 C 0.47719 0.97039 0.82064 0.0
C436 C 0.53857 0.11382 0.81922 0.0
C437 C 0.5892 0.12811 0.82554 0.0
C438 C 0.51564 0.02516 0.82096 0.0
C439 C 0.60157 0.08955 0.82888 0.0
C440 C 0.49139 0.93319 0.81735 0.0
C441 C 0.3908 0.90586 0.82686 0.0
N442 N 0.56508 0.0399 0.82655 0.0
N443 N 0.42741 0.95555 0.82508 0.0
H444 H 0.42774 0.56007 0.11974 0.0
H445 H 0.51428 0.39733 0.2109 0.0
H446 H 0.48453 0.60186 0.20754 0.0
H447 H 0.5627 0.43299 0.12135 0.0
H448 H 0.48448 0.4587 0.2094 0.0
H449 H 0.45883 0.49892 0.11906 0.0
C450 C 0.44634 0.556 0.13886 0.0
C451 C 0.45373 0.58579 0.16373 0.0
C452 C 0.50171 0.45308 0.19012 0.0
C453 C 0.48828 0.51639 0.1632 0.0
C454 C 0.51859 0.41818 0.19093 0.0
C455 C 0.54115 0.41058 0.16625 0.0
C456 C 0.50616 0.47948 0.16423 0.0
C457 C 0.54593 0.43842 0.14088 0.0
C458 C 0.46433 0.52167 0.13836 0.0
C459 C 0.47838 0.57968 0.18792 0.0
N460 N 0.52798 0.47148 0.14037 0.0
N461 N 0.49432 0.54525 0.18717 0.0
H462 H 0.59467 0.28422 0.91128 0.0
H463 H 0.69672 0.33747 0.07538 0.0
H464 H 0.728 0.27987 0.9397 0.0
H465 H 0.54755 0.30949 0.05115 0.0
H466 H 0.71116 0.32205 0.02503 0.0
H467 H 0.57871 0.298 0.96172 0.0
C468 C 0.62051 0.28593 0.92809 0.0
C469 C 0.66284 0.28089 0.92114 0.0
C470 C 0.67527 0.31929 0.0307 0.0
C471 C 0.64486 0.29712 0.97898 0.0
C472 C 0.66705 0.32834 0.05945 0.0
C473 C 0.62085 0.32489 0.06753 0.0
C474 C 0.63719 0.307 0.00973 0.0
C475 C 0.58376 0.31265 0.04591 0.0
C476 C 0.61131 0.29379 0.95692 0.0
C477 C 0.69486 0.28341 0.94395 0.0
N478 N 0.59279 0.30425 0.01798 0.0
N479 N 0.68535 0.29162 0.97179 0.0
H480 H 0.43681 0.73183 0.26983 0.0
H481 H 0.23421 0.53657 0.38403 0.0
H482 H 0.30341 0.59207 0.24368 0.0
H483 H 0.3518 0.68894 0.40596 0.0
H484 H 0.26084 0.55362 0.33289 0.0
H485 H 0.40834 0.71387 0.32027 0.0
C486 C 0.40152 0.69728 0.27464 0.0
C487 C 0.37249 0.66344 0.25235 0.0
C488 C 0.28063 0.58332 0.34892 0.0
C489 C 0.33964 0.64262 0.31036 0.0
C490 C 0.26548 0.57362 0.37811 0.0
C491 C 0.29074 0.61141 0.39932 0.0
C492 C 0.32157 0.63097 0.34096 0.0
C493 C 0.33109 0.65868 0.39038 0.0
C494 C 0.38522 0.68713 0.30352 0.0
C495 C 0.32704 0.61932 0.26008 0.0
N496 N 0.34531 0.667 0.36194 0.0
N497 N 0.31208 0.61013 0.28846 0.0
H498 H 0.6936 0.2381 0.71796 0.0
H499 H 0.72033 0.4538 0.60717 0.0
H500 H 0.66734 0.36049 0.74215 0.0
H501 H 0.71218 0.31408 0.5791 0.0
H502 H 0.7088 0.42381 0.6575 0.0
H503 H 0.70751 0.26864 0.66753 0.0
C504 C 0.6906 0.27127 0.71268 0.0
C505 C 0.67905 0.29662 0.73431 0.0
C506 C 0.70958 0.39975 0.64031 0.0
C507 C 0.69544 0.33203 0.67674 0.0
C508 C 0.71639 0.41694 0.61154 0.0
C509 C 0.7171 0.38641 0.58876 0.0
C510 C 0.70382 0.35183 0.64647 0.0
C511 C 0.71169 0.33891 0.59588 0.0
C512 C 0.69855 0.28867 0.68389 0.0
C513 C 0.67588 0.33955 0.7262 0.0
N514 N 0.70532 0.32313 0.62409 0.0
N515 N 0.68417 0.35596 0.69811 0.0
H516 H 0.26306 0.71725 0.93779 0.0
H517 H 0.44857 0.68664 0.04938 0.0
H518 H 0.39632 0.71165 0.91062 0.0
H519 H 0.2994 0.65985 0.07259 0.0
H520 H 0.43349 0.70237 0.99902 0.0
H521 H 0.27983 0.70382 0.98813 0.0
C522 C 0.29602 0.71353 0.94237 0.0
C523 C 0.32822 0.71546 0.91983 0.0
C524 C 0.40403 0.69287 0.01514 0.0
C525 C 0.34752 0.69991 0.97752 0.0
C526 C 0.41258 0.68384 0.04388 0.0
C527 C 0.37512 0.67169 0.06523 0.0
C528 C 0.35788 0.69021 0.00775 0.0
C529 C 0.3293 0.66884 0.05686 0.0
C530 C 0.30542 0.7056 0.97114 0.0
C531 C 0.3703 0.71024 0.9272 0.0
N532 N 0.32206 0.6782 0.02882 0.0
N533 N 0.37871 0.70272 0.95539 0.0
H534 H 0.76135 0.46057 0.38611 0.0
H535 H 0.55837 0.26446 0.27234 0.0
H536 H 0.64377 0.30842 0.40846 0.0
H537 H 0.69124 0.40453 0.246 0.0
H538 H 0.58705 0.28264 0.32274 0.0
H539 H 0.73446 0.44315 0.33504 0.0
C540 C 0.73002 0.42347 0.38029 0.0
C541 C 0.70484 0.38587 0.40161 0.0
C542 C 0.61001 0.3094 0.30595 0.0
C543 C 0.67371 0.36589 0.34331 0.0
C544 C 0.59359 0.29912 0.2771 0.0
C545 C 0.62241 0.33298 0.25477 0.0
C546 C 0.6555 0.35405 0.31273 0.0
C547 C 0.66777 0.37725 0.26243 0.0
C548 C 0.71472 0.41358 0.35114 0.0
C549 C 0.66441 0.33855 0.3928 0.0
N550 N 0.68285 0.38655 0.29079 0.0
N551 N 0.65004 0.33001 0.36438 0.0
H552 H 0.3288 0.63517 0.74151 0.0
H553 H 0.28331 0.68536 0.5762 0.0
H554 H 0.30083 0.7559 0.71601 0.0
H555 H 0.2777 0.54735 0.60534 0.0
H556 H 0.29462 0.71457 0.62669 0.0
H557 H 0.31587 0.60573 0.69108 0.0
C558 C 0.32016 0.65568 0.72529 0.0
C559 C 0.31603 0.69821 0.73302 0.0
C560 C 0.2907 0.67782 0.62203 0.0
C561 C 0.30105 0.66448 0.67515 0.0
C562 C 0.28429 0.66106 0.59318 0.0
C563 C 0.27957 0.61374 0.58642 0.0
C564 C 0.2929 0.64732 0.64433 0.0
C565 C 0.28106 0.58401 0.60944 0.0
C566 C 0.31255 0.63865 0.6965 0.0
C567 C 0.30447 0.72302 0.71104 0.0
N568 N 0.28785 0.60142 0.63731 0.0
N569 N 0.29752 0.70586 0.68308 0.0
loop_
_geom_bond_atom_site_label_1
_geom_bond_atom_site_label_2
_geom_bond_distance
_geom_bond_site_symmetry_2
_ccdc_geom_bond_type
Co0 O2 2.143 . S
Co0 O8 2.074 . S
Co0 O11 2.093 . S
Co0 O24 2.097 . S
Co0 N41 2.151 . S
Co0 N49 2.214 . S
Co1 O2 2.160 . S
Co1 O7 2.058 . S
Co1 O17 2.057 . S
Co1 O32 2.037 . S
Co1 N36 2.145 . S
Co1 N57 2.257 . S
O2 Co0 2.143 . S
O2 Co1 2.160 . S
C3 O4 1.278 . S
C3 O11 1.224 . S
O4 C3 1.278 . S
C5 O6 1.245 . S
C5 O17 1.232 . S
O6 C5 1.245 . S
O7 Co1 2.058 . S
O7 C33 1.269 . S
O8 Co0 2.074 . S
O8 C33 1.257 . S
H9 C34 0.930 . S
H10 C40 0.930 . S
O11 Co0 2.093 . S
O11 C3 1.224 . S
H12 C44 0.929 . S
H13 C46 0.930 . S
H14 C47 0.930 . S
H15 C45 0.929 . S
H16 C48 0.928 . S
O17 Co1 2.057 . S
O17 C5 1.232 . S
H18 C37 0.929 . S
H19 C38 0.929 . S
H20 C50 0.931 . S
H21 C42 0.929 . S
H22 C51 0.930 . S
H23 C43 0.931 . S
O24 Co0 2.097 . S
O24 C52 1.214 . S
H25 C53 0.929 . S
H26 C54 0.929 . S
H27 C55 0.930 . S
H28 C56 0.929 . S
H29 C58 0.930 . S
H30 C35 0.930 . S
H31 C39 0.930 . S
O32 Co1 2.037 . S
O32 C52 1.234 . S
C33 O7 1.269 . S
C33 O8 1.257 . S
C34 H9 0.930 . S
C34 C37 1.388 . S
C34 C39 1.418 . S
C35 H30 0.930 . S
C35 C38 1.404 . S
C35 C39 1.353 . S
N36 Co1 2.145 . S
N36 C37 1.397 . S
N36 C38 1.334 . S
C37 H18 0.929 . S
C37 C34 1.388 . S
C37 N36 1.397 . S
C38 H19 0.929 . S
C38 C35 1.404 . S
C38 N36 1.334 . S
C39 H31 0.930 . S
C39 C34 1.418 . S
C39 C35 1.353 . S
C40 H10 0.930 . S
C40 N41 1.330 . S
C40 C42 1.446 . S
N41 Co0 2.151 . S
N41 C40 1.330 . S
N41 C45 1.418 . S
C42 H21 0.929 . S
C42 C40 1.446 . S
C42 C43 1.332 . S
C43 H23 0.931 . S
C43 C42 1.332 . S
C43 C44 1.267 . S
C44 H12 0.929 . S
C44 C43 1.267 . S
C44 C45 1.251 . S
C45 H15 0.929 . S
C45 N41 1.418 . S
C45 C44 1.251 . S
C46 H13 0.930 . S
C46 C48 1.406 . S
C46 C51 1.261 . S
C47 H14 0.930 . S
C47 N49 1.325 . S
C47 C50 1.357 . S
C48 H16 0.928 . S
C48 C46 1.406 . S
C48 N49 1.261 . S
N49 Co0 2.214 . S
N49 C47 1.325 . S
N49 C48 1.261 . S
C50 H20 0.931 . S
C50 C47 1.357 . S
C50 C51 1.312 . S
C51 H22 0.930 . S
C51 C46 1.261 . S
C51 C50 1.312 . S
C52 O24 1.214 . S
C52 O32 1.234 . S
C53 H25 0.929 . S
C53 C56 1.391 . S
C53 C58 1.391 . S
C54 H26 0.929 . S
C54 C55 1.390 . S
C54 N57 1.391 . S
C55 H27 0.930 . S
C55 C54 1.390 . S
C55 C56 1.392 . S
C56 H28 0.929 . S
C56 C53 1.391 . S
C56 C55 1.392 . S
N57 Co1 2.257 . S
N57 C54 1.391 . S
N57 C58 1.388 . S
C58 H29 0.930 . S
C58 C53 1.391 . S
C58 N57 1.388 . S
Co59 O61 2.143 . S
Co59 O67 2.074 . S
Co59 O70 2.093 . S
Co59 O83 2.097 . S
Co59 N100 2.151 . S
Co59 N108 2.214 . S
Co60 O61 2.160 . S
Co60 O66 2.058 . S
Co60 O76 2.057 . S
Co60 O91 2.037 . S
Co60 N95 2.145 . S
Co60 N116 2.257 . S
O61 Co59 2.143 . S
O61 Co60 2.160 . S
C62 O63 1.278 . S
C62 O70 1.224 . S
O63 C62 1.278 . S
C64 O65 1.245 . S
C64 O76 1.232 . S
O65 C64 1.245 . S
O66 Co60 2.058 . S
O66 C92 1.269 . S
O67 Co59 2.074 . S
O67 C92 1.257 . S
H68 C93 0.930 . S
H69 C99 0.930 . S
O70 Co59 2.093 . S
O70 C62 1.224 . S
H71 C103 0.929 . S
H72 C105 0.930 . S
H73 C106 0.930 . S
H74 C104 0.929 . S
H75 C107 0.928 . S
O76 Co60 2.057 . S
O76 C64 1.232 . S
H77 C96 0.929 . S
H78 C97 0.929 . S
H79 C109 0.931 . S
H80 C101 0.929 . S
H81 C110 0.930 . S
H82 C102 0.931 . S
O83 Co59 2.097 . S
O83 C111 1.214 . S
H84 C112 0.929 . S
H85 C113 0.929 . S
H86 C114 0.930 . S
H87 C115 0.929 . S
H88 C117 0.930 . S
H89 C94 0.930 . S
H90 C98 0.930 . S
O91 Co60 2.037 . S
O91 C111 1.234 . S
C92 O66 1.269 . S
C92 O67 1.257 . S
C93 H68 0.930 . S
C93 C96 1.388 . S
C93 C98 1.418 . S
C94 H89 0.930 . S
C94 C97 1.404 . S
C94 C98 1.353 . S
N95 Co60 2.145 . S
N95 C96 1.397 . S
N95 C97 1.334 . S
C96 H77 0.929 . S
C96 C93 1.388 . S
C96 N95 1.397 . S
C97 H78 0.929 . S
C97 C94 1.404 . S
C97 N95 1.334 . S
C98 H90 0.930 . S
C98 C93 1.418 . S
C98 C94 1.353 . S
C99 H69 0.930 . S
C99 N100 1.330 . S
C99 C101 1.446 . S
N100 Co59 2.151 . S
N100 C99 1.330 . S
N100 C104 1.418 . S
C101 H80 0.929 . S
C101 C99 1.446 . S
C101 C102 1.332 . S
C102 H82 0.931 . S
C102 C101 1.332 . S
C102 C103 1.267 . S
C103 H71 0.929 . S
C103 C102 1.267 . S
C103 C104 1.251 . S
C104 H74 0.929 . S
C104 N100 1.418 . S
C104 C103 1.251 . S
C105 H72 0.930 . S
C105 C107 1.406 . S
C105 C110 1.261 . S
C106 H73 0.930 . S
C106 N108 1.325 . S
C106 C109 1.357 . S
C107 H75 0.928 . S
C107 C105 1.406 . S
C107 N108 1.261 . S
N108 Co59 2.214 . S
N108 C106 1.325 . S
N108 C107 1.261 . S
C109 H79 0.931 . S
C109 C106 1.357 . S
C109 C110 1.312 . S
C110 H81 0.930 . S
C110 C105 1.261 . S
C110 C109 1.312 . S
C111 O83 1.214 . S
C111 O91 1.234 . S
C112 H84 0.929 . S
C112 C115 1.391 . S
C112 C117 1.391 . S
C113 H85 0.929 . S
C113 C114 1.390 . S
C113 N116 1.391 . S
C114 H86 0.930 . S
C114 C113 1.390 . S
C114 C115 1.392 . S
C115 H87 0.929 . S
C115 C112 1.391 . S
C115 C114 1.392 . S
N116 Co60 2.257 . S
N116 C113 1.391 . S
N116 C117 1.388 . S
C117 H88 0.930 . S
C117 C112 1.391 . S
C117 N116 1.388 . S
Co118 O120 2.143 . S
Co118 O126 2.074 . S
Co118 O129 2.093 . S
Co118 O142 2.097 . S
Co118 N159 2.151 . S
Co118 N167 2.214 . S
Co119 O120 2.160 . S
Co119 O125 2.058 . S
Co119 O135 2.057 . S
Co119 O150 2.037 . S
Co119 N154 2.145 . S
Co119 N175 2.257 . S
O120 Co118 2.143 . S
O120 Co119 2.160 . S
C121 O122 1.278 . S
C121 O129 1.224 . S
O122 C121 1.278 . S
C123 O124 1.245 . S
C123 O135 1.232 . S
O124 C123 1.245 . S
O125 Co119 2.058 . S
O125 C151 1.269 . S
O126 Co118 2.074 . S
O126 C151 1.257 . S
H127 C152 0.930 . S
H128 C158 0.930 . S
O129 Co118 2.093 . S
O129 C121 1.224 . S
H130 C162 0.929 . S
H131 C164 0.930 . S
H132 C165 0.930 . S
H133 C163 0.929 . S
H134 C166 0.928 . S
O135 Co119 2.057 . S
O135 C123 1.232 . S
H136 C155 0.929 . S
H137 C156 0.929 . S
H138 C168 0.931 . S
H139 C160 0.929 . S
H140 C169 0.930 . S
H141 C161 0.931 . S
O142 Co118 2.097 . S
O142 C170 1.214 . S
H143 C171 0.929 . S
H144 C172 0.929 . S
H145 C173 0.930 . S
H146 C174 0.929 . S
H147 C176 0.930 . S
H148 C153 0.930 . S
H149 C157 0.930 . S
O150 Co119 2.037 . S
O150 C170 1.234 . S
C151 O125 1.269 . S
C151 O126 1.257 . S
C152 H127 0.930 . S
C152 C155 1.388 . S
C152 C157 1.418 . S
C153 H148 0.930 . S
C153 C156 1.404 . S
C153 C157 1.353 . S
N154 Co119 2.145 . S
N154 C155 1.397 . S
N154 C156 1.334 . S
C155 H136 0.929 . S
C155 C152 1.388 . S
C155 N154 1.397 . S
C156 H137 0.929 . S
C156 C153 1.404 . S
C156 N154 1.334 . S
C157 H149 0.930 . S
C157 C152 1.418 . S
C157 C153 1.353 . S
C158 H128 0.930 . S
C158 N159 1.330 . S
C158 C160 1.446 . S
N159 Co118 2.151 . S
N159 C158 1.330 . S
N159 C163 1.418 . S
C160 H139 0.929 . S
C160 C158 1.446 . S
C160 C161 1.332 . S
C161 H141 0.931 . S
C161 C160 1.332 . S
C161 C162 1.267 . S
C162 H130 0.929 . S
C162 C161 1.267 . S
C162 C163 1.251 . S
C163 H133 0.929 . S
C163 N159 1.418 . S
C163 C162 1.251 . S
C164 H131 0.930 . S
C164 C166 1.406 . S
C164 C169 1.261 . S
C165 H132 0.930 . S
C165 N167 1.325 . S
C165 C168 1.357 . S
C166 H134 0.928 . S
C166 C164 1.406 . S
C166 N167 1.261 . S
N167 Co118 2.214 . S
N167 C165 1.325 . S
N167 C166 1.261 . S
C168 H138 0.931 . S
C168 C165 1.357 . S
C168 C169 1.312 . S
C169 H140 0.930 . S
C169 C164 1.261 . S
C169 C168 1.312 . S
C170 O142 1.214 . S
C170 O150 1.234 . S
C171 H143 0.929 . S
C171 C174 1.391 . S
C171 C176 1.391 . S
C172 H144 0.929 . S
C172 C173 1.390 . S
C172 N175 1.391 . S
C173 H145 0.930 . S
C173 C172 1.390 . S
C173 C174 1.392 . S
C174 H146 0.929 . S
C174 C171 1.391 . S
C174 C173 1.392 . S
N175 Co119 2.257 . S
N175 C172 1.391 . S
N175 C176 1.388 . S
C176 H147 0.930 . S
C176 C171 1.391 . S
C176 N175 1.388 . S
Co177 O179 2.143 . S
Co177 O185 2.074 . S
Co177 O188 2.093 . S
Co177 O201 2.097 . S
Co177 N218 2.151 . S
Co177 N226 2.214 . S
Co178 O179 2.160 . S
Co178 O184 2.058 . S
Co178 O194 2.057 . S
Co178 O209 2.037 . S
Co178 N213 2.145 . S
Co178 N234 2.257 . S
O179 Co177 2.143 . S
O179 Co178 2.160 . S
C180 O181 1.278 . S
C180 O188 1.224 . S
O181 C180 1.278 . S
C182 O183 1.245 . S
C182 O194 1.232 . S
O183 C182 1.245 . S
O184 Co178 2.058 . S
O184 C210 1.269 . S
O185 Co177 2.074 . S
O185 C210 1.257 . S
H186 C211 0.930 . S
H187 C217 0.930 . S
O188 Co177 2.093 . S
O188 C180 1.224 . S
H189 C221 0.929 . S
H190 C223 0.930 . S
H191 C224 0.930 . S
H192 C222 0.929 . S
H193 C225 0.928 . S
O194 Co178 2.057 . S
O194 C182 1.232 . S
H195 C214 0.929 . S
H196 C215 0.929 . S
H197 C227 0.931 . S
H198 C219 0.929 . S
H199 C228 0.930 . S
H200 C220 0.931 . S
O201 Co177 2.097 . S
O201 C229 1.214 . S
H202 C230 0.929 . S
H203 C231 0.929 . S
H204 C232 0.930 . S
H205 C233 0.929 . S
H206 C235 0.930 . S
H207 C212 0.930 . S
H208 C216 0.930 . S
O209 Co178 2.037 . S
O209 C229 1.234 . S
C210 O184 1.269 . S
C210 O185 1.257 . S
C211 H186 0.930 . S
C211 C214 1.388 . S
C211 C216 1.418 . S
C212 H207 0.930 . S
C212 C215 1.404 . S
C212 C216 1.353 . S
N213 Co178 2.145 . S
N213 C214 1.397 . S
N213 C215 1.334 . S
C214 H195 0.929 . S
C214 C211 1.388 . S
C214 N213 1.397 . S
C215 H196 0.929 . S
C215 C212 1.404 . S
C215 N213 1.334 . S
C216 H208 0.930 . S
C216 C211 1.418 . S
C216 C212 1.353 . S
C217 H187 0.930 . S
C217 N218 1.330 . S
C217 C219 1.446 . S
N218 Co177 2.151 . S
N218 C217 1.330 . S
N218 C222 1.418 . S
C219 H198 0.929 . S
C219 C217 1.446 . S
C219 C220 1.332 . S
C220 H200 0.931 . S
C220 C219 1.332 . S
C220 C221 1.267 . S
C221 H189 0.929 . S
C221 C220 1.267 . S
C221 C222 1.251 . S
C222 H192 0.929 . S
C222 N218 1.418 . S
C222 C221 1.251 . S
C223 H190 0.930 . S
C223 C225 1.406 . S
C223 C228 1.261 . S
C224 H191 0.930 . S
C224 N226 1.325 . S
C224 C227 1.357 . S
C225 H193 0.928 . S
C225 C223 1.406 . S
C225 N226 1.261 . S
N226 Co177 2.214 . S
N226 C224 1.325 . S
N226 C225 1.261 . S
C227 H197 0.931 . S
C227 C224 1.357 . S
C227 C228 1.312 . S
C228 H199 0.930 . S
C228 C223 1.261 . S
C228 C227 1.312 . S
C229 O201 1.214 . S
C229 O209 1.234 . S
C230 H202 0.929 . S
C230 C233 1.391 . S
C230 C235 1.391 . S
C231 H203 0.929 . S
C231 C232 1.390 . S
C231 N234 1.391 . S
C232 H204 0.930 . S
C232 C231 1.390 . S
C232 C233 1.392 . S
C233 H205 0.929 . S
C233 C230 1.391 . S
C233 C232 1.392 . S
N234 Co178 2.257 . S
N234 C231 1.391 . S
N234 C235 1.388 . S
C235 H206 0.930 . S
C235 C230 1.391 . S
C235 N234 1.388 . S
Co236 O238 2.143 . S
Co236 O244 2.074 . S
Co236 O247 2.093 . S
Co236 O260 2.097 . S
Co236 N277 2.151 . S
Co236 N285 2.214 . S
Co237 O238 2.160 . S
Co237 O243 2.058 . S
Co237 O253 2.057 . S
Co237 O268 2.037 . S
Co237 N272 2.145 . S
Co237 N293 2.257 . S
O238 Co236 2.143 . S
O238 Co237 2.160 . S
C239 O240 1.278 . S
C239 O247 1.224 . S
O240 C239 1.278 . S
C241 O242 1.245 . S
C241 O253 1.232 . S
O242 C241 1.245 . S
O243 Co237 2.058 . S
O243 C269 1.269 . S
O244 Co236 2.074 . S
O244 C269 1.257 . S
H245 C270 0.930 . S
H246 C276 0.930 . S
O247 Co236 2.093 . S
O247 C239 1.224 . S
H248 C280 0.929 . S
H249 C282 0.930 . S
H250 C283 0.930 . S
H251 C281 0.929 . S
H252 C284 0.928 . S
O253 Co237 2.057 . S
O253 C241 1.232 . S
H254 C273 0.929 . S
H255 C274 0.929 . S
H256 C286 0.931 . S
H257 C278 0.929 . S
H258 C287 0.930 . S
H259 C279 0.931 . S
O260 Co236 2.097 . S
O260 C288 1.214 . S
H261 C289 0.929 . S
H262 C290 0.929 . S
H263 C291 0.930 . S
H264 C292 0.929 . S
H265 C294 0.930 . S
H266 C271 0.930 . S
H267 C275 0.930 . S
O268 Co237 2.037 . S
O268 C288 1.234 . S
C269 O243 1.269 . S
C269 O244 1.257 . S
C270 H245 0.930 . S
C270 C273 1.388 . S
C270 C275 1.418 . S
C271 H266 0.930 . S
C271 C274 1.404 . S
C271 C275 1.353 . S
N272 Co237 2.145 . S
N272 C273 1.397 . S
N272 C274 1.334 . S
C273 H254 0.929 . S
C273 C270 1.388 . S
C273 N272 1.397 . S
C274 H255 0.929 . S
C274 C271 1.404 . S
C274 N272 1.334 . S
C275 H267 0.930 . S
C275 C270 1.418 . S
C275 C271 1.353 . S
C276 H246 0.930 . S
C276 N277 1.330 . S
C276 C278 1.446 . S
N277 Co236 2.151 . S
N277 C276 1.330 . S
N277 C281 1.418 . S
C278 H257 0.929 . S
C278 C276 1.446 . S
C278 C279 1.332 . S
C279 H259 0.931 . S
C279 C278 1.332 . S
C279 C280 1.267 . S
C280 H248 0.929 . S
C280 C279 1.267 . S
C280 C281 1.251 . S
C281 H251 0.929 . S
C281 N277 1.418 . S
C281 C280 1.251 . S
C282 H249 0.930 . S
C282 C284 1.406 . S
C282 C287 1.261 . S
C283 H250 0.930 . S
C283 N285 1.325 . S
C283 C286 1.357 . S
C284 H252 0.928 . S
C284 C282 1.406 . S
C284 N285 1.261 . S
N285 Co236 2.214 . S
N285 C283 1.325 . S
N285 C284 1.261 . S
C286 H256 0.931 . S
C286 C283 1.357 . S
C286 C287 1.312 . S
C287 H258 0.930 . S
C287 C282 1.261 . S
C287 C286 1.312 . S
C288 O260 1.214 . S
C288 O268 1.234 . S
C289 H261 0.929 . S
C289 C292 1.391 . S
C289 C294 1.391 . S
C290 H262 0.929 . S
C290 C291 1.390 . S
C290 N293 1.391 . S
C291 H263 0.930 . S
C291 C290 1.390 . S
C291 C292 1.392 . S
C292 H264 0.929 . S
C292 C289 1.391 . S
C292 C291 1.392 . S
N293 Co237 2.257 . S
N293 C290 1.391 . S
N293 C294 1.388 . S
C294 H265 0.930 . S
C294 C289 1.391 . S
C294 N293 1.388 . S
Co295 O297 2.143 . S
Co295 O303 2.074 . S
Co295 O306 2.093 . S
Co295 O319 2.097 . S
Co295 N336 2.151 . S
Co295 N344 2.214 . S
Co296 O297 2.160 . S
Co296 O302 2.058 . S
Co296 O312 2.057 . S
Co296 O327 2.037 . S
Co296 N331 2.145 . S
Co296 N352 2.257 . S
O297 Co295 2.143 . S
O297 Co296 2.160 . S
C298 O299 1.278 . S
C298 O306 1.224 . S
O299 C298 1.278 . S
C300 O301 1.245 . S
C300 O312 1.232 . S
O301 C300 1.245 . S
O302 Co296 2.058 . S
O302 C328 1.269 . S
O303 Co295 2.074 . S
O303 C328 1.257 . S
H304 C329 0.930 . S
H305 C335 0.930 . S
O306 Co295 2.093 . S
O306 C298 1.224 . S
H307 C339 0.929 . S
H308 C341 0.930 . S
H309 C342 0.930 . S
H310 C340 0.929 . S
H311 C343 0.928 . S
O312 Co296 2.057 . S
O312 C300 1.232 . S
H313 C332 0.929 . S
H314 C333 0.929 . S
H315 C345 0.931 . S
H316 C337 0.929 . S
H317 C346 0.930 . S
H318 C338 0.931 . S
O319 Co295 2.097 . S
O319 C347 1.214 . S
H320 C348 0.929 . S
H321 C349 0.929 . S
H322 C350 0.930 . S
H323 C351 0.929 . S
H324 C353 0.930 . S
H325 C330 0.930 . S
H326 C334 0.930 . S
O327 Co296 2.037 . S
O327 C347 1.234 . S
C328 O302 1.269 . S
C328 O303 1.257 . S
C329 H304 0.930 . S
C329 C332 1.388 . S
C329 C334 1.418 . S
C330 H325 0.930 . S
C330 C333 1.404 . S
C330 C334 1.353 . S
N331 Co296 2.145 . S
N331 C332 1.397 . S
N331 C333 1.334 . S
C332 H313 0.929 . S
C332 C329 1.388 . S
C332 N331 1.397 . S
C333 H314 0.929 . S
C333 C330 1.404 . S
C333 N331 1.334 . S
C334 H326 0.930 . S
C334 C329 1.418 . S
C334 C330 1.353 . S
C335 H305 0.930 . S
C335 N336 1.330 . S
C335 C337 1.446 . S
N336 Co295 2.151 . S
N336 C335 1.330 . S
N336 C340 1.418 . S
C337 H316 0.929 . S
C337 C335 1.446 . S
C337 C338 1.332 . S
C338 H318 0.931 . S
C338 C337 1.332 . S
C338 C339 1.267 . S
C339 H307 0.929 . S
C339 C338 1.267 . S
C339 C340 1.251 . S
C340 H310 0.929 . S
C340 N336 1.418 . S
C340 C339 1.251 . S
C341 H308 0.930 . S
C341 C343 1.406 . S
C341 C346 1.261 . S
C342 H309 0.930 . S
C342 N344 1.325 . S
C342 C345 1.357 . S
C343 H311 0.928 . S
C343 C341 1.406 . S
C343 N344 1.261 . S
N344 Co295 2.214 . S
N344 C342 1.325 . S
N344 C343 1.261 . S
C345 H315 0.931 . S
C345 C342 1.357 . S
C345 C346 1.312 . S
C346 H317 0.930 . S
C346 C341 1.261 . S
C346 C345 1.312 . S
C347 O319 1.214 . S
C347 O327 1.234 . S
C348 H320 0.929 . S
C348 C351 1.391 . S
C348 C353 1.391 . S
C349 H321 0.929 . S
C349 C350 1.390 . S
C349 N352 1.391 . S
C350 H322 0.930 . S
C350 C349 1.390 . S
C350 C351 1.392 . S
C351 H323 0.929 . S
C351 C348 1.391 . S
C351 C350 1.392 . S
N352 Co296 2.257 . S
N352 C349 1.391 . S
N352 C353 1.388 . S
C353 H324 0.930 . S
C353 C348 1.391 . S
C353 N352 1.388 . S
H354 C360 0.930 . S
H355 C364 0.930 . S
H356 C369 0.929 . S
H357 C367 0.929 . S
H358 C362 0.929 . S
H359 C368 0.929 . S
C360 H354 0.930 . S
C360 C361 1.367 . S
C360 C368 1.378 . S
C361 C360 1.367 . S
C361 C369 1.433 . S
C362 H358 0.929 . S
C362 C364 1.378 . S
C362 C366 1.350 . S
C363 C366 1.463 1_545 S
C363 C368 1.350 . S
C363 N371 1.427 . S
C364 H355 0.930 . S
C364 C362 1.378 . S
C364 C365 1.367 . S
C365 C364 1.367 . S
C365 C367 1.433 . S
C366 C362 1.350 . S
C366 C363 1.463 1_565 S
C366 N370 1.427 . S
C367 H357 0.929 . S
C367 C365 1.433 . S
C367 N370 1.384 . S
C368 H359 0.929 . S
C368 C360 1.378 . S
C368 C363 1.350 . S
C369 H356 0.929 . S
C369 C361 1.433 . S
C369 N371 1.384 . S
N370 C366 1.427 . S
N370 C367 1.384 . S
N371 C363 1.427 . S
N371 C369 1.384 . S
H372 C378 0.930 . S
H373 C382 0.930 . S
H374 C387 0.929 . S
H375 C385 0.929 . S
H376 C380 0.929 . S
H377 C386 0.929 . S
C378 H372 0.930 . S
C378 C379 1.367 . S
C378 C386 1.378 . S
C379 C378 1.367 . S
C379 C387 1.433 . S
C380 H376 0.929 . S
C380 C382 1.378 . S
C380 C384 1.350 . S
C381 C384 1.463 . S
C381 C386 1.350 . S
C381 N389 1.427 . S
C382 H373 0.930 . S
C382 C380 1.378 . S
C382 C383 1.367 . S
C383 C382 1.367 . S
C383 C385 1.433 . S
C384 C380 1.350 . S
C384 C381 1.463 . S
C384 N388 1.427 . S
C385 H375 0.929 . S
C385 C383 1.433 . S
C385 N388 1.384 . S
C386 H377 0.929 . S
C386 C378 1.378 . S
C386 C381 1.350 . S
C387 H374 0.929 . S
C387 C379 1.433 . S
C387 N389 1.384 . S
N388 C384 1.427 . S
N388 C385 1.384 . S
N389 C381 1.427 . S
N389 C387 1.384 . S
H390 C396 0.930 . S
H391 C400 0.930 . S
H392 C405 0.929 . S
H393 C403 0.929 . S
H394 C398 0.929 . S
H395 C404 0.929 . S
C396 H390 0.930 . S
C396 C397 1.367 . S
C396 C404 1.378 . S
C397 C396 1.367 . S
C397 C405 1.433 . S
C398 H394 0.929 . S
C398 C400 1.378 . S
C398 C402 1.350 . S
C399 C402 1.463 1_655 S
C399 C404 1.350 . S
C399 N407 1.427 . S
C400 H391 0.930 . S
C400 C398 1.378 . S
C400 C401 1.367 . S
C401 C400 1.367 . S
C401 C403 1.433 . S
C402 C398 1.350 . S
C402 C399 1.463 1_455 S
C402 N406 1.427 . S
C403 H393 0.929 . S
C403 C401 1.433 . S
C403 N406 1.384 . S
C404 H395 0.929 . S
C404 C396 1.378 . S
C404 C399 1.350 . S
C405 H392 0.929 . S
C405 C397 1.433 . S
C405 N407 1.384 . S
N406 C402 1.427 . S
N406 C403 1.384 . S
N407 C399 1.427 . S
N407 C405 1.384 . S
H408 C414 0.930 . S
H409 C418 0.930 . S
H410 C423 0.929 . S
H411 C421 0.929 . S
H412 C416 0.929 . S
H413 C422 0.929 . S
C414 H408 0.930 . S
C414 C415 1.367 . S
C414 C422 1.378 . S
C415 C414 1.367 . S
C415 C423 1.433 . S
C416 H412 0.929 . S
C416 C418 1.378 . S
C416 C420 1.350 . S
C417 C420 1.463 1_455 S
C417 C422 1.350 . S
C417 N425 1.427 . S
C418 H409 0.930 . S
C418 C416 1.378 . S
C418 C419 1.367 . S
C419 C418 1.367 . S
C419 C421 1.433 . S
C420 C416 1.350 . S
C420 C417 1.463 1_655 S
C420 N424 1.427 . S
C421 H411 0.929 . S
C421 C419 1.433 . S
C421 N424 1.384 . S
C422 H413 0.929 . S
C422 C414 1.378 . S
C422 C417 1.350 . S
C423 H410 0.929 . S
C423 C415 1.433 . S
C423 N425 1.384 . S
N424 C420 1.427 . S
N424 C421 1.384 . S
N425 C417 1.427 . S
N425 C423 1.384 . S
H426 C432 0.930 . S
H427 C436 0.930 . S
H428 C441 0.929 . S
H429 C439 0.929 . S
H430 C434 0.929 . S
H431 C440 0.929 . S
C432 H426 0.930 . S
C432 C433 1.367 . S
C432 C440 1.378 . S
C433 C432 1.367 . S
C433 C441 1.433 . S
C434 H430 0.929 . S
C434 C436 1.378 . S
C434 C438 1.350 . S
C435 C438 1.463 1_565 S
C435 C440 1.350 . S
C435 N443 1.427 . S
C436 H427 0.930 . S
C436 C434 1.378 . S
C436 C437 1.367 . S
C437 C436 1.367 . S
C437 C439 1.433 . S
C438 C434 1.350 . S
C438 C435 1.463 1_545 S
C438 N442 1.427 . S
C439 H429 0.929 . S
C439 C437 1.433 . S
C439 N442 1.384 . S
C440 H431 0.929 . S
C440 C432 1.378 . S
C440 C435 1.350 . S
C441 H428 0.929 . S
C441 C433 1.433 . S
C441 N443 1.384 . S
N442 C438 1.427 . S
N442 C439 1.384 . S
N443 C435 1.427 . S
N443 C441 1.384 . S
H444 C450 0.930 . S
H445 C454 0.930 . S
H446 C459 0.929 . S
H447 C457 0.929 . S
H448 C452 0.929 . S
H449 C458 0.929 . S
C450 H444 0.930 . S
C450 C451 1.367 . S
C450 C458 1.378 . S
C451 C450 1.367 . S
C451 C459 1.433 . S
C452 H448 0.929 . S
C452 C454 1.378 . S
C452 C456 1.350 . S
C453 C456 1.463 . S
C453 C458 1.350 . S
C453 N461 1.427 . S
C454 H445 0.930 . S
C454 C452 1.378 . S
C454 C455 1.367 . S
C455 C454 1.367 . S
C455 C457 1.433 . S
C456 C452 1.350 . S
C456 C453 1.463 . S
C456 N460 1.427 . S
C457 H447 0.929 . S
C457 C455 1.433 . S
C457 N460 1.384 . S
C458 H449 0.929 . S
C458 C450 1.378 . S
C458 C453 1.350 . S
C459 H446 0.929 . S
C459 C451 1.433 . S
C459 N461 1.384 . S
N460 C456 1.427 . S
N460 C457 1.384 . S
N461 C453 1.427 . S
N461 C459 1.384 . S
H462 C468 0.930 . S
H463 C472 0.930 . S
H464 C477 0.929 . S
H465 C475 0.929 . S
H466 C470 0.929 . S
H467 C476 0.929 . S
C468 H462 0.930 . S
C468 C469 1.367 . S
C468 C476 1.378 . S
C469 C468 1.367 . S
C469 C477 1.433 . S
C470 H466 0.929 . S
C470 C472 1.378 . S
C470 C474 1.350 . S
C471 C474 1.463 1_556 S
C471 C476 1.350 . S
C471 N479 1.427 . S
C472 H463 0.930 . S
C472 C470 1.378 . S
C472 C473 1.367 . S
C473 C472 1.367 . S
C473 C475 1.433 . S
C474 C470 1.350 . S
C474 C471 1.463 1_554 S
C474 N478 1.427 . S
C475 H465 0.929 . S
C475 C473 1.433 . S
C475 N478 1.384 . S
C476 H467 0.929 . S
C476 C468 1.378 . S
C476 C471 1.350 . S
C477 H464 0.929 . S
C477 C469 1.433 . S
C477 N479 1.384 . S
N478 C474 1.427 . S
N478 C475 1.384 . S
N479 C471 1.427 . S
N479 C477 1.384 . S
H480 C486 0.930 . S
H481 C490 0.930 . S
H482 C495 0.929 . S
H483 C493 0.929 . S
H484 C488 0.929 . S
H485 C494 0.929 . S
C486 H480 0.930 . S
C486 C487 1.367 . S
C486 C494 1.378 . S
C487 C486 1.367 . S
C487 C495 1.433 . S
C488 H484 0.929 . S
C488 C490 1.378 . S
C488 C492 1.350 . S
C489 C492 1.463 . S
C489 C494 1.350 . S
C489 N497 1.427 . S
C490 H481 0.930 . S
C490 C488 1.378 . S
C490 C491 1.367 . S
C491 C490 1.367 . S
C491 C493 1.433 . S
C492 C488 1.350 . S
C492 C489 1.463 . S
C492 N496 1.427 . S
C493 H483 0.929 . S
C493 C491 1.433 . S
C493 N496 1.384 . S
C494 H485 0.929 . S
C494 C486 1.378 . S
C494 C489 1.350 . S
C495 H482 0.929 . S
C495 C487 1.433 . S
C495 N497 1.384 . S
N496 C492 1.427 . S
N496 C493 1.384 . S
N497 C489 1.427 . S
N497 C495 1.384 . S
H498 C504 0.930 . S
H499 C508 0.930 . S
H500 C513 0.929 . S
H501 C511 0.929 . S
H502 C506 0.929 . S
H503 C512 0.929 . S
C504 H498 0.930 . S
C504 C505 1.367 . S
C504 C512 1.378 . S
C505 C504 1.367 . S
C505 C513 1.433 . S
C506 H502 0.929 . S
C506 C508 1.378 . S
C506 C510 1.350 . S
C507 C510 1.463 . S
C507 C512 1.350 . S
C507 N515 1.427 . S
C508 H499 0.930 . S
C508 C506 1.378 . S
C508 C509 1.367 . S
C509 C508 1.367 . S
C509 C511 1.433 . S
C510 C506 1.350 . S
C510 C507 1.463 . S
C510 N514 1.427 . S
C511 H501 0.929 . S
C511 C509 1.433 . S
C511 N514 1.384 . S
C512 H503 0.929 . S
C512 C504 1.378 . S
C512 C507 1.350 . S
C513 H500 0.929 . S
C513 C505 1.433 . S
C513 N515 1.384 . S
N514 C510 1.427 . S
N514 C511 1.384 . S
N515 C507 1.427 . S
N515 C513 1.384 . S
H516 C522 0.930 . S
H517 C526 0.930 . S
H518 C531 0.929 . S
H519 C529 0.929 . S
H520 C524 0.929 . S
H521 C530 0.929 . S
C522 H516 0.930 . S
C522 C523 1.367 . S
C522 C530 1.378 . S
C523 C522 1.367 . S
C523 C531 1.433 . S
C524 H520 0.929 . S
C524 C526 1.378 . S
C524 C528 1.350 . S
C525 C528 1.463 1_556 S
C525 C530 1.350 . S
C525 N533 1.427 . S
C526 H517 0.930 . S
C526 C524 1.378 . S
C526 C527 1.367 . S
C527 C526 1.367 . S
C527 C529 1.433 . S
C528 C524 1.350 . S
C528 C525 1.463 1_554 S
C528 N532 1.427 . S
C529 H519 0.929 . S
C529 C527 1.433 . S
C529 N532 1.384 . S
C530 H521 0.929 . S
C530 C522 1.378 . S
C530 C525 1.350 . S
C531 H518 0.929 . S
C531 C523 1.433 . S
C531 N533 1.384 . S
N532 C528 1.427 . S
N532 C529 1.384 . S
N533 C525 1.427 . S
N533 C531 1.384 . S
H534 C540 0.930 . S
H535 C544 0.930 . S
H536 C549 0.929 . S
H537 C547 0.929 . S
H538 C542 0.929 . S
H539 C548 0.929 . S
C540 H534 0.930 . S
C540 C541 1.367 . S
C540 C548 1.378 . S
C541 C540 1.367 . S
C541 C549 1.433 . S
C542 H538 0.929 . S
C542 C544 1.378 . S
C542 C546 1.350 . S
C543 C546 1.463 . S
C543 C548 1.350 . S
C543 N551 1.427 . S
C544 H535 0.930 . S
C544 C542 1.378 . S
C544 C545 1.367 . S
C545 C544 1.367 . S
C545 C547 1.433 . S
C546 C542 1.350 . S
C546 C543 1.463 . S
C546 N550 1.427 . S
C547 H537 0.929 . S
C547 C545 1.433 . S
C547 N550 1.384 . S
C548 H539 0.929 . S
C548 C540 1.378 . S
C548 C543 1.350 . S
C549 H536 0.929 . S
C549 C541 1.433 . S
C549 N551 1.384 . S
N550 C546 1.427 . S
N550 C547 1.384 . S
N551 C543 1.427 . S
N551 C549 1.384 . S
H552 C558 0.930 . S
H553 C562 0.930 . S
H554 C567 0.929 . S
H555 C565 0.929 . S
H556 C560 0.929 . S
H557 C566 0.929 . S
C558 H552 0.930 . S
C558 C559 1.367 . S
C558 C566 1.378 . S
C559 C558 1.367 . S
C559 C567 1.433 . S
C560 H556 0.929 . S
C560 C562 1.378 . S
C560 C564 1.350 . S
C561 C564 1.463 . S
C561 C566 1.350 . S
C561 N569 1.427 . S
C562 H553 0.930 . S
C562 C560 1.378 . S
C562 C563 1.367 . S
C563 C562 1.367 . S
C563 C565 1.433 . S
C564 C560 1.350 . S
C564 C561 1.463 . S
C564 N568 1.427 . S
C565 H555 0.929 . S
C565 C563 1.433 . S
C565 N568 1.384 . S
C566 H557 0.929 . S
C566 C558 1.378 . S
C566 C561 1.350 . S
C567 H554 0.929 . S
C567 C559 1.433 . S
C567 N569 1.384 . S
N568 C564 1.427 . S
N568 C565 1.384 . S
N569 C561 1.427 . S
N569 C567 1.384 . S
C361 C5 1.193 . S
C365 C182 1.193 . S
C379 C64 1.194 . S
C383 C241 1.193 . S
C397 C123 1.194 . S
C401 C300 1.193 . S
C415 C111 1.853 . S
C419 C288 1.854 . S
C433 C347 1.855 . S
C437 C170 1.854 . S
C451 C229 1.853 . S
C455 C52 1.855 . S
C469 C151 1.362 . S
C473 C3 1.353 . S
C487 C210 1.354 . S
C491 C62 1.343 . S
C505 C121 1.347 . S
C509 C269 1.357 . S
C523 C328 1.352 . S
C527 C180 1.343 . S
C541 C239 1.342 . S
C545 C33 1.353 . S
C559 C298 1.350 . S
C563 C92 1.360 . S
