# Generated by pormake.
# Topology sow, (4)-cn, num edge types: 1
# Building blocks:
#     Node 0, Type 0, BuildingBlock: KOZSID_clean_sbu_0, # of connection points: 4
#     Node 1, Type 0, BuildingBlock: KOZSID_clean_sbu_0, # of connection points: 4
#     Node 2, Type 0, BuildingBlock: KOZSID_clean_sbu_0, # of connection points: 4
#     Node 3, Type 0, BuildingBlock: KOZSID_clean_sbu_0, # of connection points: 4
#     Node 4, Type 0, BuildingBlock: KOZSID_clean_sbu_0, # of connection points: 4
#     Node 5, Type 0, BuildingBlock: KOZSID_clean_sbu_0, # of connection points: 4
#     Node 6, Type 0, BuildingBlock: KOZSID_clean_sbu_0, # of connection points: 4
#     Node 7, Type 0, BuildingBlock: KOZSID_clean_sbu_0, # of connection points: 4
#     Edge 8, Type (0, 0), None
#     Edge 9, Type (0, 0), None
#     Edge 10, Type (0, 0), None
#     Edge 11, Type (0, 0), None
#     Edge 12, Type (0, 0), None
#     Edge 13, Type (0, 0), None
#     Edge 14, Type (0, 0), None
#     Edge 15, Type (0, 0), None
#     Edge 16, Type (0, 0), None
#     Edge 17, Type (0, 0), None
#     Edge 18, Type (0, 0), None
#     Edge 19, Type (0, 0), None
#     Edge 20, Type (0, 0), None
#     Edge 21, Type (0, 0), None
#     Edge 22, Type (0, 0), None
#     Edge 23, Type (0, 0), None
# Relax obj value: 0.066
# Max RMSD: 0.305
# Mean RMSD: 0.224
data_MOF--net-sow--node1-KOZSID_clean_sbu_0--edge1-none
_symmetry_space_group_name_H-M    P1
_symmetry_Int_Tables_number       1
_symmetry_cell_setting            triclinic
loop_
_symmetry_equiv_pos_as_xyz
'x, y, z'
_cell_length_a     31.093499
_cell_length_b     9.1275672
_cell_length_c     14.229144
_cell_angle_alpha  91.667288
_cell_angle_beta   89.958126
_cell_angle_gamma 87.319659
loop_
_atom_site_label
_atom_site_type_symbol
_atom_site_fract_x
_atom_site_fract_y
_atom_site_fract_z
_atom_type_partial_charge
C0 C 0.06719 0.0836 0.25566 0.0
C1 C 0.06428 0.94961 0.29579 0.0
C2 C 0.10351 0.88383 0.2921 0.0
C3 C 0.12718 -0.0193 0.24938 0.0
N4 N 0.10861 0.11495 0.23745 0.0
Co5 Co 0.13131 0.27322 0.15809 0.0
N6 N 0.17982 0.14293 0.11543 0.0
C7 C 0.18611 -0.00117 0.13577 0.0
C8 C 0.22734 0.9575 0.14701 0.0
C9 C 0.24636 0.0839 0.13665 0.0
C10 C 0.21955 0.18509 0.09992 0.0
N11 N 0.1551 0.41815 0.07409 0.0
C12 C 0.19654 0.42185 0.036 0.0
C13 C 0.20271 0.56966 0.01726 0.0
C14 C 0.16513 0.65051 0.0354 0.0
C15 C 0.13818 0.5571 0.07628 0.0
N16 N 0.08029 0.38212 0.19799 0.0
C17 C 0.08152 0.52429 0.21057 0.0
C18 C 0.05071 0.5707 0.27335 0.0
C19 C 0.02463 0.45533 0.28525 0.0
C20 C 0.04249 0.33534 0.23461 0.0
N21 N 0.16826 0.39911 0.26807 0.0
C22 C 0.23303 0.50156 0.42061 0.0
C23 C 0.22317 0.58241 0.33663 0.0
C24 C 0.1929 0.52645 0.26176 0.0
C25 C 0.19759 0.41355 0.43098 0.0
C26 C 0.16174 0.39783 0.36285 0.0
N27 N 0.09252 0.19283 0.05402 0.0
C28 C 0.02223 0.2584 -0.01224 0.0
C29 C 0.00555 0.11784 0.00337 0.0
C30 C 0.04011 0.0121 0.00451 0.0
C31 C 0.08221 0.04888 0.03791 0.0
C32 C 0.06475 0.29299 0.01305 0.0
H33 H 0.10517 0.96085 0.05257 0.0
H34 H 0.073 0.40597 0.00912 0.0
H35 H 0.19389 0.58589 0.1992 0.0
H36 H 0.13023 0.37082 0.38566 0.0
C37 C 0.15982 0.93171 0.19397 0.0
C38 C 0.02966 0.17406 0.23114 0.0
C39 C 0.23154 0.29037 0.02816 0.0
C40 C 0.10705 0.60094 0.14712 0.0
H41 H 0.03588 0.90056 0.31919 0.0
H42 H 0.11287 0.77091 0.30396 0.0
H43 H 0.24142 0.8568 0.17493 0.0
H44 H 0.27895 0.08911 0.1397 0.0
H45 H 0.23119 0.62045 -0.00459 0.0
H46 H 0.16069 0.7678 0.03111 0.0
H47 H 0.04566 0.67527 0.30545 0.0
H48 H 0.99565 0.46959 0.32483 0.0
H49 H 0.24256 0.67279 0.31988 0.0
H50 H 0.19544 0.37583 0.49937 0.0
H51 H 0.00435 0.34498 0.95411 0.0
H52 H 0.03458 0.90165 -0.01986 0.0
C53 C 0.46661 0.40942 0.71359 0.0
C54 C 0.48668 0.52248 0.76003 0.0
C55 C 0.45686 0.63794 0.77111 0.0
C56 C 0.41925 0.59214 0.73304 0.0
N57 N 0.42349 0.45414 0.69933 0.0
Co58 Co 0.37745 0.36568 0.62216 0.0
N59 N 0.33591 0.54337 0.61373 0.0
C60 C 0.34236 0.66489 0.66461 0.0
C61 C 0.30999 0.76779 0.65318 0.0
C62 C 0.28283 0.71549 0.58508 0.0
C63 C 0.29957 0.57926 0.5576 0.0
N64 N 0.33612 0.2808 0.53027 0.0
C65 C 0.29445 0.33452 0.51744 0.0
C66 C 0.27048 0.25843 0.57426 0.0
C67 C 0.29387 0.13296 0.59161 0.0
C68 C 0.33073 0.13965 0.54243 0.0
N69 N 0.41683 0.18635 0.62557 0.0
C70 C 0.40657 0.05457 0.59092 0.0
C71 C 0.42708 0.94512 0.63959 0.0
C72 C 0.45068 0.01257 0.70819 0.0
C73 C 0.45006 0.15656 0.68575 0.0
N74 N 0.34666 0.29831 0.7506 0.0
C75 C 0.27405 0.26279 0.9559 0.0
C76 C 0.30999 0.04869 0.83937 0.0
C77 C 0.34199 0.12719 0.7603 0.0
C78 C 0.29524 0.42575 0.91704 0.0
C79 C 0.32928 0.42803 0.82128 0.0
N80 N 0.40814 0.43466 0.5113 0.0
C81 C 0.47479 0.40788 0.4268 0.0
C82 C 0.4764 0.56027 0.42016 0.0
C83 C 0.43654 0.63744 0.43141 0.0
C84 C 0.40381 0.57618 0.4816 0.0
C85 C 0.43968 0.34708 0.46992 0.0
H86 H 0.37594 0.64668 0.49522 0.0
H87 H 0.43726 0.23049 0.46756 0.0
H88 H 0.35885 0.04745 0.72002 0.0
H89 H 0.33877 0.53535 0.81299 0.0
C90 C 0.38106 0.67843 0.71622 0.0
C91 C 0.48693 0.25336 0.6991 0.0
C92 C 0.27798 0.48073 0.48434 0.0
C93 C 0.36596 0.03954 0.55094 0.0
H94 H 0.51849 0.51925 0.7901 0.0
H95 H 0.462 0.74131 0.80524 0.0
H96 H 0.30647 0.86647 0.69282 0.0
H97 H 0.25311 0.76698 0.56178 0.0
H98 H 0.23931 0.28706 0.60046 0.0
H99 H 0.28226 0.04798 0.63279 0.0
H100 H 0.42581 0.83016 0.62413 0.0
H101 H 0.47046 0.96196 0.76108 0.0
H102 H 0.30756 0.92954 0.83581 0.0
H103 H 0.28912 0.52812 0.95402 0.0
H104 H 0.49801 0.33536 0.39113 0.0
H105 H 0.42978 0.74342 0.40176 0.0
C106 C 0.56907 0.30114 0.68927 0.0
C107 C 0.56511 0.43313 0.6449 0.0
C108 C 0.60319 0.49828 0.65604 0.0
C109 C 0.62759 0.40279 0.70733 0.0
N110 N 0.61087 0.27341 0.72013 0.0
Co111 Co 0.63891 0.11184 0.79977 0.0
N112 N 0.683 0.23167 0.85451 0.0
C113 C 0.68621 0.37278 0.83076 0.0
C114 C 0.726 0.41733 0.83593 0.0
C115 C 0.75001 0.29917 0.85386 0.0
C116 C 0.7239 0.18646 0.87948 0.0
N117 N 0.66399 0.95315 0.87434 0.0
C118 C 0.70666 0.92899 0.89721 0.0
C119 C 0.71364 0.77579 0.89539 0.0
C120 C 0.6749 0.71457 0.8984 0.0
C121 C 0.6465 0.82056 0.87596 0.0
N122 N 0.59028 0.00269 0.74629 0.0
C123 C 0.58441 0.86176 0.76039 0.0
C124 C 0.55241 0.80859 0.70647 0.0
C125 C 0.53549 0.92598 0.66103 0.0
C126 C 0.55312 0.04828 0.69963 0.0
N127 N 0.68766 0.03608 0.70154 0.0
C128 C 0.76649 0.94901 0.5283 0.0
C129 C 0.74332 0.80895 0.59069 0.0
C130 C 0.70415 0.86088 0.68462 0.0
C131 C 0.74643 0.13323 0.55622 0.0
C132 C 0.70737 0.16636 0.6443 0.0
N133 N 0.59743 0.17248 0.90237 0.0
C134 C 0.54318 0.0805 0.00279 0.0
C135 C 0.51356 0.19214 0.97659 0.0
C136 C 0.53214 0.31545 0.93862 0.0
C137 C 0.57448 0.30407 0.90341 0.0
C138 C 0.58432 0.07128 0.9641 0.0
H139 H 0.58719 0.39915 0.87243 0.0
H140 H 0.60419 -0.02098 -0.01642 0.0
H141 H 0.68822 0.77411 0.71779 0.0
H142 H 0.69429 0.27487 0.64872 0.0
C143 C 0.65988 0.44119 0.76561 0.0
C144 C 0.53254 0.20405 0.69907 0.0
C145 C 0.73817 0.0482 0.94016 0.0
C146 C 0.61036 0.78693 0.82311 0.0
H147 H 0.5369 0.48048 0.61085 0.0
H148 H 0.61102 0.60713 0.63621 0.0
H149 H 0.73722 0.51558 0.81165 0.0
H150 H 0.78426 0.30506 0.85212 0.0
H151 H 0.74316 0.71175 0.9048 0.0
H152 H 0.66751 0.60509 0.91437 0.0
H153 H 0.54193 0.6998 0.70035 0.0
H154 H 0.51044 0.92096 0.61194 0.0
H155 H 0.74995 0.69551 0.56875 0.0
H156 H 0.74821 0.22844 0.51525 0.0
H157 H 0.53437 -0.00426 0.04959 0.0
H158 H 0.51597 0.42116 0.93769 0.0
C159 C 0.97879 0.94937 0.19902 0.0
C160 C 0.01135 0.80459 0.13038 0.0
C161 C 0.98237 0.63277 0.14278 0.0
C162 C 0.9345 0.68484 0.21884 0.0
N163 N 0.9361 0.86287 0.24601 0.0
Co164 Co 0.89926 0.9407 0.35167 0.0
N165 N 0.85674 0.78064 0.35343 0.0
C166 C 0.8603 0.64926 0.30721 0.0
C167 C 0.82363 0.57206 0.31983 0.0
C168 C 0.79646 0.65781 0.37855 0.0
C169 C 0.81721 0.78551 0.39866 0.0
N170 N 0.86301 0.0344 0.45117 0.0
C171 C 0.82207 0.04537 0.42614 0.0
C172 C 0.8076 0.18824 0.42038 0.0
C173 C 0.83664 0.26625 0.46898 0.0
C174 C 0.86932 0.166 0.49213 0.0
N175 N 0.93788 0.1052 0.35258 0.0
C176 C 0.92719 0.22248 0.40646 0.0
C177 C 0.92188 0.34392 0.35482 0.0
C178 C 0.93822 0.30958 0.26812 0.0
C179 C 0.95131 0.16694 0.27248 0.0
N180 N 0.86336 0.02973 0.2505 0.0
C181 C 0.79285 0.04133 0.11313 0.0
C182 C 0.80935 0.1843 0.17437 0.0
C183 C 0.84396 0.16517 0.23828 0.0
C184 C 0.81483 0.90786 0.15329 0.0
C185 C 0.85335 0.92247 0.18884 0.0
N186 N 0.93519 0.82152 0.44756 0.0
C187 C 0.00282 0.77265 0.52914 0.0
C188 C 0.00265 0.61885 0.5094 0.0
C189 C 0.96119 0.57418 0.49192 0.0
C190 C 0.92787 0.6766 0.46412 0.0
C191 C 0.96838 0.87099 0.49959 0.0
H192 H 0.89579 0.63907 0.46493 0.0
H193 H 0.96733 -0.01549 0.52186 0.0
H194 H 0.85351 0.25767 0.27918 0.0
H195 H 0.86916 0.82346 0.18306 0.0
C196 C 0.89772 0.60943 0.24967 0.0
C197 C 0.9891 0.10776 0.22389 0.0
C198 C 0.79665 0.92335 0.44387 0.0
C199 C 0.91036 0.21411 0.49662 0.0
H200 H 0.04487 0.80528 0.11235 0.0
H201 H 0.99414 0.52696 0.11716 0.0
H202 H 0.81605 0.46913 0.28682 0.0
H203 H 0.764 0.63372 0.39837 0.0
H204 H 0.77876 0.22993 0.38552 0.0
H205 H 0.83677 0.38467 0.47561 0.0
H206 H 0.90623 0.44194 0.37996 0.0
H207 H 0.9447 0.38153 0.21242 0.0
H208 H 0.79613 0.29539 0.16784 0.0
H209 H 0.7989 -0.01986 0.12195 0.0
H210 H 0.02837 0.81582 0.57051 0.0
H211 H 0.95397 0.46333 0.50613 0.0
C212 C 0.92148 0.2029 -0.00754 0.0
C213 C 0.93105 0.34542 0.00733 0.0
C214 C 0.92226 0.41385 0.92518 0.0
C215 C 0.89853 0.31855 0.87543 0.0
N216 N 0.89386 0.19346 0.9184 0.0
Co217 Co 0.86318 0.02914 0.86154 0.0
N218 N 0.83376 0.14353 0.75988 0.0
C219 C 0.85354 0.26356 0.73041 0.0
C220 C 0.82973 0.34575 0.67245 0.0
C221 C 0.79197 0.28174 0.67003 0.0
C222 C 0.79541 0.13815 0.70782 0.0
N223 N 0.82969 0.87255 0.79973 0.0
C224 C 0.79123 0.86991 0.74534 0.0
C225 C 0.78327 0.71811 0.74436 0.0
C226 C 0.81417 0.6381 0.78955 0.0
C227 C 0.84267 0.73289 0.81849 0.0
N228 N 0.8982 0.91438 0.9593 0.0
C229 C 0.89642 0.77283 0.9606 0.0
C230 C 0.916 0.71871 0.03764 0.0
C231 C 0.94077 0.8243 0.08984 0.0
C232 C 0.93211 0.94353 0.02185 0.0
N233 N 0.81107 0.06067 0.95658 0.0
C234 C 0.71936 -0.0021 0.09305 0.0
C235 C 0.75254 0.8593 0.04384 0.0
C236 C 0.79626 0.89662 0.97492 0.0
C237 C 0.73493 0.18767 0.0741 0.0
C238 C 0.78541 0.21022 0.00237 0.0
N239 N 0.91376 0.97329 0.77442 0.0
C240 C 0.94267 0.73818 0.71174 0.0
C241 C 0.98264 0.7532 0.75713 0.0
C242 C 0.98936 0.89656 0.79307 0.0
C243 C 0.95496 0.00418 0.80009 0.0
C244 C 0.91088 0.85474 0.71338 0.0
H245 H 0.96178 0.11003 0.82983 0.0
H246 H 0.88184 0.83938 0.67345 0.0
H247 H 0.81653 0.80471 0.97243 0.0
H248 H 0.79916 0.3171 -0.00181 0.0
C249 C 0.88324 0.3339 0.78589 0.0
C250 C 0.95507 0.08615 0.01223 0.0
C251 C 0.7624 0.00231 0.68853 0.0
C252 C 0.87325 0.69965 0.88964 0.0
H253 H 0.95229 0.38215 0.06015 0.0
H254 H 0.93641 0.51133 0.90052 0.0
H255 H 0.83593 0.45451 0.64881 0.0
H256 H 0.76454 0.34706 0.64628 0.0
H257 H 0.75664 0.66048 0.7186 0.0
H258 H 0.81261 0.52672 0.81112 0.0
H259 H 0.91049 0.60923 0.0582 0.0
H260 H 0.98835 0.76129 0.24857 0.0
H261 H 0.75834 0.75475 0.07289 0.0
H262 H 0.71705 0.28212 0.10084 0.0
H263 H 0.93563 0.63798 0.6739 0.0
H264 H 0.0205 0.92725 0.81771 0.0
C265 C 0.5606 0.55791 0.39366 0.0
C266 C 0.57266 0.42827 0.43781 0.0
C267 C 0.61645 0.40879 0.4315 0.0
C268 C 0.62923 0.52543 0.38261 0.0
N269 N 0.59618 0.61616 0.35807 0.0
Co270 Co 0.60181 0.79882 0.28959 0.0
N271 N 0.65552 0.72869 0.23173 0.0
C272 C 0.67976 0.61211 0.25937 0.0
C273 C 0.70621 0.55932 0.19014 0.0
C274 C 0.69689 0.64766 0.11642 0.0
C275 C 0.67224 0.76988 0.14971 0.0
N276 N 0.60824 -0.01491 0.222 0.0
C277 C 0.63817 0.02551 0.15772 0.0
C278 C 0.63635 0.17584 0.14939 0.0
C279 C 0.61067 0.23108 0.22033 0.0
C280 C 0.59334 0.11413 0.25984 0.0
N281 N 0.54923 0.872 0.35219 0.0
C282 C 0.54197 0.01252 0.37811 0.0
C283 C 0.50852 0.03239 0.43877 0.0
C284 C 0.49228 0.89666 0.44577 0.0
C285 C 0.51816 0.79812 0.39367 0.0
N286 N 0.63419 0.87815 0.39379 0.0
C287 C 0.691 0.97381 0.54568 0.0
C288 C 0.64593 0.8967 0.56026 0.0
C289 C 0.62171 0.85495 0.48363 0.0
C290 C 0.69389 0.0178 0.44138 0.0
C291 C 0.66799 0.96076 0.37483 0.0
N292 N 0.56745 0.71223 0.18645 0.0
C293 C 0.49317 0.65423 0.18636 0.0
C294 C 0.50407 0.50278 0.17588 0.0
C295 C 0.54609 0.46916 0.14313 0.0
C296 C 0.57791 0.57408 0.1518 0.0
C297 C 0.52525 0.75747 0.18188 0.0
H298 H 0.61109 0.538 0.14133 0.0
H299 H 0.51668 0.871 0.19582 0.0
H300 H 0.59324 0.79605 0.49744 0.0
H301 H 0.67758 -0.01751 0.30544 0.0
C302 C 0.66829 0.52974 0.33569 0.0
C303 C 0.51734 0.63548 0.39621 0.0
C304 C 0.67627 0.93257 0.12719 0.0
C305 C 0.56468 0.1206 0.33575 0.0
H306 H 0.55327 0.35352 0.47383 0.0
H307 H 0.63601 0.31516 0.45422 0.0
H308 H 0.72749 0.46308 0.1918 0.0
H309 H 0.70921 0.62124 0.04758 0.0
H310 H 0.65223 0.24019 0.09945 0.0
H311 H 0.60582 0.3434 0.24235 0.0
H312 H 0.50024 0.12888 0.48077 0.0
H313 H 0.46778 0.8716 0.49383 0.0
H314 H 0.63383 0.86191 0.6251 0.0
H315 H 0.69634 -0.00217 0.50423 0.0
H316 H 0.46133 0.69499 0.20515 0.0
H317 H 0.55545 0.3604 0.11835 0.0
C318 C 0.44781 0.02858 -0.00089 0.0
C319 C 0.46823 0.90144 0.96324 0.0
C320 C 0.44925 0.78832 0.00427 0.0
C321 C 0.41586 0.85048 0.05721 0.0
N322 N 0.41389 -0.00319 0.05422 0.0
Co323 Co 0.37065 0.12643 0.12143 0.0
N324 N 0.34416 0.96227 0.19702 0.0
C325 C 0.35875 0.82168 0.18866 0.0
C326 C 0.34356 0.73433 0.25736 0.0
C327 C 0.3169 0.82291 0.31294 0.0
C328 C 0.31663 0.96063 0.27594 0.0
N329 N 0.32726 0.24954 0.19199 0.0
C330 C 0.29984 0.22624 0.26772 0.0
C331 C 0.27107 0.3375 0.2674 0.0
C332 C 0.28188 0.44194 0.20534 0.0
C333 C 0.31653 0.38434 0.16334 0.0
N334 N 0.39759 0.29191 0.06072 0.0
C335 C 0.37808 0.42415 0.05212 0.0
C336 C 0.3967 0.50688 -0.01268 0.0
C337 C 0.43268 0.4258 0.96027 0.0
C338 C 0.43404 0.29798 0.00873 0.0
N339 N 0.33191 0.10561 -0.00255 0.0
C340 C 0.23665 0.13888 0.83474 0.0
C341 C 0.27603 0.24935 0.80377 0.0
C342 C 0.34097 0.21771 0.91719 0.0
C343 C 0.24577 0.02367 0.92537 0.0
C344 C 0.29193 0.00605 -0.00619 0.0
N345 N 0.41127 0.1703 0.22581 0.0
C346 C 0.43259 0.41978 0.24119 0.0
C347 C 0.47343 0.38399 0.20228 0.0
C348 C 0.48493 0.23169 0.1981 0.0
C349 C 0.45338 0.12683 0.21175 0.0
C350 C 0.40522 0.30867 0.26511 0.0
H351 H 0.46128 0.0132 0.19672 0.0
H352 H 0.37639 0.34121 0.30384 0.0
H353 H 0.37291 0.25196 0.90517 0.0
H354 H 0.29414 0.90992 0.03674 0.0
C355 C 0.39037 0.7806 0.12186 0.0
C356 C 0.46543 0.17518 -0.00798 0.0
C357 C 0.2872 0.08436 0.31582 0.0
C358 C 0.34027 0.4571 0.09904 0.0
H359 H 0.49641 0.8907 0.91856 0.0
H360 H 0.46186 0.67687 0.00193 0.0
H361 H 0.35218 0.62056 0.26908 0.0
H362 H 0.30044 0.79125 0.37559 0.0
H363 H 0.24077 0.3186 0.29256 0.0
H364 H 0.26544 0.54136 0.18294 0.0
H365 H 0.38389 0.60747 0.95764 0.0
H366 H 0.45217 0.45031 0.9035 0.0
H367 H 0.27132 0.31793 0.74383 0.0
H368 H 0.22027 0.95234 0.94199 0.0
H369 H 0.42189 0.53115 0.25707 0.0
H370 H 0.51671 0.19186 0.17795 0.0
C371 C 0.0865 0.56319 0.50937 0.0
C372 C 0.09507 0.69774 0.47453 0.0
C373 C 0.13629 0.72355 0.49589 0.0
C374 C 0.14983 0.60378 0.54425 0.0
N375 N 0.12255 0.49272 0.54357 0.0
Co376 Co 0.12728 0.30516 0.61698 0.0
N377 N 0.17648 0.37747 0.68472 0.0
C378 C 0.19512 0.50824 0.67498 0.0
C379 C 0.21413 0.5575 0.75413 0.0
C380 C 0.20621 0.45271 0.81544 0.0
C381 C 0.18645 0.33959 0.77173 0.0
N382 N 0.12933 0.13167 0.69616 0.0
C383 C 0.15895 0.09001 0.76251 0.0
C384 C 0.15821 0.94092 0.77616 0.0
C385 C 0.12839 0.88987 0.71359 0.0
C386 C 0.11135 0.00799 0.66796 0.0
N387 N 0.07738 0.25463 0.54929 0.0
C388 C 0.0676 0.11802 0.53075 0.0
C389 C 0.03347 0.11663 0.47254 0.0
C390 C 0.02004 0.25918 0.46164 0.0
C391 C 0.04573 0.3447 0.51254 0.0
N392 N 0.16842 0.1597 0.52067 0.0
C393 C 0.24258 0.06776 0.38145 0.0
C394 C 0.19921 0.11286 0.35882 0.0
C395 C 0.16248 0.13042 0.42623 0.0
C396 C 0.23788 -0.00141 0.46907 0.0
C397 C 0.20231 0.05464 0.54284 0.0
N398 N 0.08577 0.41474 0.70967 0.0
C399 C 0.00939 0.47977 0.73449 0.0
C400 C 0.01776 0.62766 0.75682 0.0
C401 C 0.06104 0.65131 0.77879 0.0
C402 C 0.09424 0.54529 0.75405 0.0
C403 C 0.04377 0.37404 0.71727 0.0
H404 H 0.12649 0.57381 0.76815 0.0
H405 H 0.03549 0.26331 0.69853 0.0
H406 H 0.13046 0.14825 0.40036 0.0
H407 H 0.19391 -0.0141 0.60716 0.0
C408 C 0.1835 0.60426 0.60603 0.0
C409 C 0.0432 0.51014 0.51664 0.0
C410 C 0.19232 0.18612 0.79869 0.0
C411 C 0.0848 0.00623 0.58752 0.0
H412 H 0.07292 0.77578 0.44417 0.0
H413 H 0.15227 0.82491 0.48811 0.0
H414 H 0.23006 0.65909 0.76728 0.0
H415 H 0.22169 0.44504 0.87748 0.0
H416 H 0.18001 0.87399 0.81768 0.0
H417 H 0.12366 0.77907 0.69365 0.0
H418 H 0.02072 0.02584 0.43814 0.0
H419 H 0.99766 0.2977 0.4143 0.0
H420 H 0.19339 0.14435 0.28912 0.0
H421 H 0.23104 0.05915 0.52481 0.0
H422 H 0.97673 0.44527 0.72736 0.0
H423 H 0.0701 0.75338 0.81116 0.0
loop_
_geom_bond_atom_site_label_1
_geom_bond_atom_site_label_2
_geom_bond_distance
_geom_bond_site_symmetry_2
_ccdc_geom_bond_type
C0 C1 1.443 1_545 S
C0 N4 1.376 . S
C0 C38 1.389 . S
C1 C0 1.443 1_565 S
C1 C2 1.340 . S
C1 H41 0.951 . S
C2 C1 1.340 . S
C2 C3 1.439 . S
C2 H42 0.950 . S
C3 C2 1.439 . S
C3 N4 1.374 1_565 S
C3 C37 1.395 . S
N4 C0 1.376 . S
N4 C3 1.374 1_545 S
N4 Co5 2.008 . S
Co5 N4 2.008 . S
Co5 N6 1.995 . S
Co5 N11 2.008 . S
Co5 N16 1.995 . S
Co5 N21 2.282 . S
Co5 N27 2.282 . S
N6 Co5 1.995 . S
N6 C7 1.376 1_545 S
N6 C10 1.383 . S
C7 N6 1.376 1_565 S
C7 C8 1.446 . S
C7 C37 1.391 . S
C8 C7 1.446 . S
C8 C9 1.339 1_565 S
C8 H43 0.949 . S
C9 C8 1.339 1_545 S
C9 C10 1.439 . S
C9 H44 0.950 1_554 S
C10 N6 1.383 . S
C10 C9 1.439 . S
C10 C39 1.392 . S
N11 Co5 2.008 . S
N11 C12 1.376 . S
N11 C15 1.374 . S
C12 N11 1.376 . S
C12 C13 1.443 . S
C12 C39 1.389 . S
C13 C12 1.443 . S
C13 C14 1.340 . S
C13 H45 0.951 . S
C14 C13 1.340 . S
C14 C15 1.439 . S
C14 H46 0.950 . S
C15 N11 1.374 . S
C15 C14 1.439 . S
C15 C40 1.395 . S
N16 Co5 1.995 . S
N16 C17 1.376 . S
N16 C20 1.383 . S
C17 N16 1.376 . S
C17 C18 1.446 . S
C17 C40 1.391 . S
C18 C17 1.446 . S
C18 C19 1.339 . S
C18 H47 0.949 . S
C19 C18 1.339 . S
C19 C20 1.439 . S
C19 H48 0.950 . S
C20 N16 1.383 . S
C20 C19 1.439 . S
C20 C38 1.392 . S
N21 Co5 2.282 . S
N21 C24 1.332 . S
N21 C26 1.332 . S
C22 C23 1.386 . S
C22 C25 1.388 . S
C23 C22 1.386 . S
C23 C24 1.382 . S
C23 H49 0.950 . S
C24 N21 1.332 . S
C24 C23 1.382 . S
C24 H35 0.952 . S
C25 C22 1.388 . S
C25 C26 1.382 . S
C25 H50 0.950 . S
C26 N21 1.332 . S
C26 C25 1.382 . S
C26 H36 0.948 . S
N27 Co5 2.282 . S
N27 C31 1.332 . S
N27 C32 1.332 . S
C28 C29 1.388 1_554 S
C28 C32 1.382 . S
C28 H51 0.951 1_455 S
C29 C28 1.388 1_556 S
C29 C30 1.386 . S
C30 C29 1.386 . S
C30 C31 1.382 1_556 S
C30 H52 0.950 1_545 S
C31 N27 1.332 . S
C31 C30 1.382 1_554 S
C31 H33 0.952 . S
C32 N27 1.332 . S
C32 C28 1.382 . S
C32 H34 0.948 . S
H33 C31 0.952 . S
H34 C32 0.948 . S
H35 C24 0.952 . S
H36 C26 0.948 . S
C37 C3 1.395 . S
C37 C7 1.391 . S
C38 C0 1.389 . S
C38 C20 1.392 . S
C39 C10 1.392 . S
C39 C12 1.389 . S
C40 C15 1.395 . S
C40 C17 1.391 . S
H41 C1 0.951 . S
H42 C2 0.950 . S
H43 C8 0.949 . S
H44 C9 0.950 1_556 S
H45 C13 0.951 . S
H46 C14 0.950 . S
H47 C18 0.949 . S
H48 C19 0.950 . S
H49 C23 0.950 . S
H50 C25 0.950 . S
H51 C28 0.951 1_655 S
H52 C30 0.950 1_565 S
C53 C54 1.443 . S
C53 N57 1.376 . S
C53 C91 1.389 . S
C54 C53 1.443 . S
C54 C55 1.340 . S
C54 H94 0.951 . S
C55 C54 1.340 . S
C55 C56 1.439 . S
C55 H95 0.950 . S
C56 C55 1.439 . S
C56 N57 1.374 . S
C56 C90 1.395 . S
N57 C53 1.376 . S
N57 C56 1.374 . S
N57 Co58 2.008 . S
Co58 N57 2.008 . S
Co58 N59 1.995 . S
Co58 N64 2.008 . S
Co58 N69 1.995 . S
Co58 N74 2.282 . S
Co58 N80 2.282 . S
N59 Co58 1.995 . S
N59 C60 1.376 . S
N59 C63 1.383 . S
C60 N59 1.376 . S
C60 C61 1.446 . S
C60 C90 1.391 . S
C61 C60 1.446 . S
C61 C62 1.339 . S
C61 H96 0.949 . S
C62 C61 1.339 . S
C62 C63 1.439 . S
C62 H97 0.950 . S
C63 N59 1.383 . S
C63 C62 1.439 . S
C63 C92 1.392 . S
N64 Co58 2.008 . S
N64 C65 1.376 . S
N64 C68 1.374 . S
C65 N64 1.376 . S
C65 C66 1.443 . S
C65 C92 1.389 . S
C66 C65 1.443 . S
C66 C67 1.340 . S
C66 H98 0.951 . S
C67 C66 1.340 . S
C67 C68 1.439 . S
C67 H99 0.950 1_545 S
C68 N64 1.374 . S
C68 C67 1.439 . S
C68 C93 1.395 1_545 S
N69 Co58 1.995 . S
N69 C70 1.376 . S
N69 C73 1.383 . S
C70 N69 1.376 . S
C70 C71 1.446 1_545 S
C70 C93 1.391 1_545 S
C71 C70 1.446 1_565 S
C71 C72 1.339 1_565 S
C71 H100 0.949 . S
C72 C71 1.339 1_545 S
C72 C73 1.439 . S
C72 H101 0.950 . S
C73 N69 1.383 . S
C73 C72 1.439 . S
C73 C91 1.392 . S
N74 Co58 2.282 . S
N74 C77 1.332 . S
N74 C79 1.332 . S
C75 C76 1.386 . S
C75 C78 1.388 . S
C76 C75 1.386 . S
C76 C77 1.382 . S
C76 H102 0.950 1_545 S
C77 N74 1.332 . S
C77 C76 1.382 . S
C77 H88 0.952 . S
C78 C75 1.388 . S
C78 C79 1.382 . S
C78 H103 0.950 . S
C79 N74 1.332 . S
C79 C78 1.382 . S
C79 H89 0.948 . S
N80 Co58 2.282 . S
N80 C84 1.332 . S
N80 C85 1.332 . S
C81 C82 1.388 . S
C81 C85 1.382 . S
C81 H104 0.950 . S
C82 C81 1.388 . S
C82 C83 1.386 . S
C83 C82 1.386 . S
C83 C84 1.382 . S
C83 H105 0.950 . S
C84 N80 1.332 . S
C84 C83 1.382 . S
C84 H86 0.952 . S
C85 N80 1.332 . S
C85 C81 1.382 . S
C85 H87 0.948 . S
H86 C84 0.952 . S
H87 C85 0.948 . S
H88 C77 0.952 . S
H89 C79 0.948 . S
C90 C56 1.395 . S
C90 C60 1.391 . S
C91 C53 1.389 . S
C91 C73 1.392 . S
C92 C63 1.392 . S
C92 C65 1.389 . S
C93 C68 1.395 1_565 S
C93 C70 1.391 1_565 S
H94 C54 0.951 . S
H95 C55 0.950 . S
H96 C61 0.949 . S
H97 C62 0.950 . S
H98 C66 0.951 . S
H99 C67 0.950 1_565 S
H100 C71 0.949 . S
H101 C72 0.950 . S
H102 C76 0.950 1_565 S
H103 C78 0.950 . S
H104 C81 0.950 . S
H105 C83 0.950 . S
C106 C107 1.443 . S
C106 N110 1.376 . S
C106 C144 1.389 . S
C107 C106 1.443 . S
C107 C108 1.340 . S
C107 H147 0.951 . S
C108 C107 1.340 . S
C108 C109 1.439 . S
C108 H148 0.950 . S
C109 C108 1.439 . S
C109 N110 1.374 . S
C109 C143 1.395 . S
N110 C106 1.376 . S
N110 C109 1.374 . S
N110 Co111 2.008 . S
Co111 N110 2.008 . S
Co111 N112 1.995 . S
Co111 N117 2.008 1_545 S
Co111 N122 1.995 1_545 S
Co111 N127 2.282 . S
Co111 N133 2.282 . S
N112 Co111 1.995 . S
N112 C113 1.376 . S
N112 C116 1.383 . S
C113 N112 1.376 . S
C113 C114 1.446 . S
C113 C143 1.391 . S
C114 C113 1.446 . S
C114 C115 1.338 1_556 S
C114 H149 0.949 . S
C115 C114 1.338 1_554 S
C115 C116 1.438 1_554 S
C115 H150 0.950 . S
C116 N112 1.383 . S
C116 C115 1.438 1_556 S
C116 C145 1.392 1_545 S
N117 Co111 2.008 1_565 S
N117 C118 1.376 . S
N117 C121 1.374 . S
C118 N117 1.376 . S
C118 C119 1.443 . S
C118 C145 1.389 . S
C119 C118 1.443 . S
C119 C120 1.340 . S
C119 H151 0.951 . S
C120 C119 1.340 . S
C120 C121 1.439 . S
C120 H152 0.950 . S
C121 N117 1.374 . S
C121 C120 1.439 . S
C121 C146 1.395 . S
N122 Co111 1.995 1_565 S
N122 C123 1.376 . S
N122 C126 1.383 . S
C123 N122 1.376 . S
C123 C124 1.446 . S
C123 C146 1.391 . S
C124 C123 1.446 . S
C124 C125 1.339 . S
C124 H153 0.949 . S
C125 C124 1.339 . S
C125 C126 1.439 . S
C125 H154 0.950 . S
C126 N122 1.383 . S
C126 C125 1.439 . S
C126 C144 1.392 1_565 S
N127 Co111 2.282 . S
N127 C130 1.332 1_545 S
N127 C132 1.332 . S
C128 C129 1.386 1_545 S
C128 C131 1.388 . S
C129 C128 1.386 1_565 S
C129 C130 1.382 . S
C129 H155 0.950 . S
C130 N127 1.332 1_565 S
C130 C129 1.382 . S
C130 H141 0.952 . S
C131 C128 1.388 . S
C131 C132 1.382 . S
C131 H156 0.950 . S
C132 N127 1.332 . S
C132 C131 1.382 . S
C132 H142 0.948 . S
N133 Co111 2.282 . S
N133 C137 1.332 . S
N133 C138 1.332 1_545 S
C134 C135 1.388 1_566 S
C134 C138 1.382 . S
C134 H157 0.950 . S
C135 C134 1.388 1_544 S
C135 C136 1.386 . S
C136 C135 1.386 . S
C136 C137 1.382 1_554 S
C136 H158 0.950 . S
C137 N133 1.332 . S
C137 C136 1.382 1_556 S
C137 H139 0.952 . S
C138 N133 1.332 1_565 S
C138 C134 1.382 . S
C138 H140 0.948 . S
H139 C137 0.952 . S
H140 C138 0.948 . S
H141 C130 0.952 . S
H142 C132 0.948 . S
C143 C109 1.395 . S
C143 C113 1.391 . S
C144 C106 1.389 . S
C144 C126 1.392 1_545 S
C145 C116 1.392 1_565 S
C145 C118 1.389 . S
C146 C121 1.395 . S
C146 C123 1.391 . S
H147 C107 0.951 . S
H148 C108 0.950 . S
H149 C114 0.949 . S
H150 C115 0.950 . S
H151 C119 0.951 . S
H152 C120 0.950 . S
H153 C124 0.949 . S
H154 C125 0.950 . S
H155 C129 0.950 . S
H156 C131 0.950 . S
H157 C134 0.950 . S
H158 C136 0.950 . S
C159 C160 1.443 . S
C159 N163 1.376 . S
C159 C197 1.389 1_565 S
C160 C159 1.443 . S
C160 C161 1.340 . S
C160 H200 0.951 1_655 S
C161 C160 1.340 . S
C161 C162 1.439 . S
C161 H201 0.950 . S
C162 C161 1.439 . S
C162 N163 1.374 . S
C162 C196 1.395 . S
N163 C159 1.376 . S
N163 C162 1.374 . S
N163 Co164 2.008 1_565 S
Co164 N163 2.008 1_545 S
Co164 N165 1.995 1_545 S
Co164 N170 2.008 . S
Co164 N175 1.995 . S
Co164 N180 2.282 . S
Co164 N186 2.282 1_545 S
N165 Co164 1.995 1_565 S
N165 C166 1.376 . S
N165 C169 1.383 . S
C166 N165 1.376 . S
C166 C167 1.446 . S
C166 C196 1.391 . S
C167 C166 1.446 . S
C167 C168 1.339 . S
C167 H202 0.949 . S
C168 C167 1.339 . S
C168 C169 1.439 . S
C168 H203 0.950 . S
C169 N165 1.383 . S
C169 C168 1.439 . S
C169 C198 1.392 . S
N170 Co164 2.008 . S
N170 C171 1.376 . S
N170 C174 1.374 . S
C171 N170 1.376 . S
C171 C172 1.443 . S
C171 C198 1.389 1_545 S
C172 C171 1.443 . S
C172 C173 1.340 . S
C172 H204 0.951 . S
C173 C172 1.340 . S
C173 C174 1.439 . S
C173 H205 0.950 . S
C174 N170 1.374 . S
C174 C173 1.439 . S
C174 C199 1.395 . S
N175 Co164 1.995 . S
N175 C176 1.376 . S
N175 C179 1.383 . S
C176 N175 1.376 . S
C176 C177 1.446 . S
C176 C199 1.391 . S
C177 C176 1.446 . S
C177 C178 1.339 . S
C177 H206 0.949 . S
C178 C177 1.339 . S
C178 C179 1.439 . S
C178 H207 0.950 1_655 S
C179 N175 1.383 . S
C179 C178 1.439 . S
C179 C197 1.392 . S
N180 Co164 2.282 . S
N180 C183 1.332 . S
N180 C185 1.332 . S
C181 C182 1.386 . S
C181 C184 1.388 . S
C182 C181 1.386 . S
C182 C183 1.382 . S
C182 H208 0.950 . S
C183 N180 1.332 . S
C183 C182 1.382 . S
C183 H194 0.952 . S
C184 C181 1.388 . S
C184 C185 1.382 . S
C184 H209 0.950 1_545 S
C185 N180 1.332 . S
C185 C184 1.382 . S
C185 H195 0.948 1_545 S
N186 Co164 2.282 1_565 S
N186 C190 1.332 . S
N186 C191 1.332 . S
C187 C188 1.388 . S
C187 C191 1.382 1_455 S
C187 H210 0.950 1_565 S
C188 C187 1.388 . S
C188 C189 1.386 1_455 S
C189 C188 1.386 1_655 S
C189 C190 1.382 . S
C189 H211 0.950 . S
C190 N186 1.332 . S
C190 C189 1.382 . S
C190 H192 0.952 . S
C191 N186 1.332 . S
C191 C187 1.382 1_655 S
C191 H193 0.948 1_565 S
H192 C190 0.952 . S
H193 C191 0.948 1_545 S
H194 C183 0.952 . S
H195 C185 0.948 1_565 S
C196 C162 1.395 . S
C196 C166 1.391 . S
C197 C159 1.389 1_545 S
C197 C179 1.392 . S
C198 C169 1.392 . S
C198 C171 1.389 1_565 S
C199 C174 1.395 . S
C199 C176 1.391 . S
H200 C160 0.951 1_455 S
H201 C161 0.950 . S
H202 C167 0.949 . S
H203 C168 0.950 . S
H204 C172 0.951 . S
H205 C173 0.950 . S
H206 C177 0.949 . S
H207 C178 0.950 1_455 S
H208 C182 0.950 . S
H209 C184 0.950 1_565 S
H210 C187 0.950 1_545 S
H211 C189 0.950 . S
C212 C213 1.443 1_554 S
C212 N216 1.376 1_554 S
C212 C250 1.389 . S
C213 C212 1.443 1_556 S
C213 C214 1.340 . S
C213 H253 0.951 1_556 S
C214 C213 1.340 . S
C214 C215 1.439 . S
C214 H254 0.950 . S
C215 C214 1.439 . S
C215 N216 1.374 . S
C215 C249 1.395 . S
N216 C212 1.376 1_556 S
N216 C215 1.374 . S
N216 Co217 2.008 1_545 S
Co217 N216 2.008 1_565 S
Co217 N218 1.995 1_565 S
Co217 N223 2.008 . S
Co217 N228 1.995 1_556 S
Co217 N233 2.282 1_566 S
Co217 N239 2.282 . S
N218 Co217 1.995 1_545 S
N218 C219 1.376 . S
N218 C222 1.383 . S
C219 N218 1.376 . S
C219 C220 1.446 . S
C219 C249 1.391 . S
C220 C219 1.446 . S
C220 C221 1.339 . S
C220 H255 0.949 . S
C221 C220 1.339 . S
C221 C222 1.439 . S
C221 H256 0.950 . S
C222 N218 1.383 . S
C222 C221 1.439 . S
C222 C251 1.392 1_545 S
N223 Co217 2.008 . S
N223 C224 1.376 . S
N223 C227 1.374 . S
C224 N223 1.376 . S
C224 C225 1.443 . S
C224 C251 1.389 . S
C225 C224 1.443 . S
C225 C226 1.340 . S
C225 H257 0.951 . S
C226 C225 1.340 . S
C226 C227 1.439 . S
C226 H258 0.950 . S
C227 N223 1.374 . S
C227 C226 1.439 . S
C227 C252 1.395 1_556 S
N228 Co217 1.995 1_554 S
N228 C229 1.376 . S
N228 C232 1.383 . S
C229 N228 1.376 . S
C229 C230 1.446 . S
C229 C252 1.391 . S
C230 C229 1.446 . S
C230 C231 1.339 . S
C230 H259 0.949 . S
C231 C230 1.339 . S
C231 C232 1.439 . S
C231 H260 0.950 . S
C232 N228 1.383 . S
C232 C231 1.439 . S
C232 C250 1.392 1_565 S
N233 Co217 2.282 1_544 S
N233 C236 1.332 . S
N233 C238 1.332 . S
C234 C235 1.386 . S
C234 C237 1.388 . S
C235 C234 1.386 . S
C235 C236 1.382 . S
C235 H261 0.950 1_545 S
C236 N233 1.332 . S
C236 C235 1.382 . S
C236 H247 0.952 1_545 S
C237 C234 1.388 . S
C237 C238 1.382 . S
C237 H262 0.950 . S
C238 N233 1.332 . S
C238 C237 1.382 . S
C238 H248 0.948 1_554 S
N239 Co217 2.282 . S
N239 C243 1.332 . S
N239 C244 1.332 . S
C240 C241 1.388 . S
C240 C244 1.382 . S
C240 H263 0.950 . S
C241 C240 1.388 . S
C241 C242 1.386 . S
C242 C241 1.386 . S
C242 C243 1.382 . S
C242 H264 0.950 1_565 S
C243 N239 1.332 . S
C243 C242 1.382 . S
C243 H245 0.952 1_565 S
C244 N239 1.332 . S
C244 C240 1.382 . S
C244 H246 0.948 . S
H245 C243 0.952 1_545 S
H246 C244 0.948 . S
H247 C236 0.952 1_565 S
H248 C238 0.948 1_556 S
C249 C215 1.395 . S
C249 C219 1.391 . S
C250 C212 1.389 . S
C250 C232 1.392 1_545 S
C251 C222 1.392 1_565 S
C251 C224 1.389 . S
C252 C227 1.395 1_554 S
C252 C229 1.391 . S
H253 C213 0.951 1_554 S
H254 C214 0.950 . S
H255 C220 0.949 . S
H256 C221 0.950 . S
H257 C225 0.951 . S
H258 C226 0.950 . S
H259 C230 0.949 . S
H260 C231 0.950 . S
H261 C235 0.950 1_565 S
H262 C237 0.950 . S
H263 C240 0.950 . S
H264 C242 0.950 1_545 S
C265 C266 1.443 . S
C265 N269 1.376 . S
C265 C303 1.389 . S
C266 C265 1.443 . S
C266 C267 1.340 . S
C266 H306 0.951 . S
C267 C266 1.340 . S
C267 C268 1.439 . S
C267 H307 0.950 . S
C268 C267 1.439 . S
C268 N269 1.374 . S
C268 C302 1.395 . S
N269 C265 1.376 . S
N269 C268 1.374 . S
N269 Co270 2.008 . S
Co270 N269 2.008 . S
Co270 N271 1.995 . S
Co270 N276 2.008 1_565 S
Co270 N281 1.995 1_565 S
Co270 N286 2.282 1_565 S
Co270 N292 2.282 . S
N271 Co270 1.995 . S
N271 C272 1.376 . S
N271 C275 1.383 . S
C272 N271 1.376 . S
C272 C273 1.446 . S
C272 C302 1.391 . S
C273 C272 1.446 . S
C273 C274 1.339 . S
C273 H308 0.949 . S
C274 C273 1.339 . S
C274 C275 1.439 . S
C274 H309 0.950 . S
C275 N271 1.383 . S
C275 C274 1.439 . S
C275 C304 1.392 1_565 S
N276 Co270 2.008 1_545 S
N276 C277 1.376 . S
N276 C280 1.374 . S
C277 N276 1.376 . S
C277 C278 1.443 . S
C277 C304 1.389 . S
C278 C277 1.443 . S
C278 C279 1.340 . S
C278 H310 0.951 . S
C279 C278 1.340 . S
C279 C280 1.439 . S
C279 H311 0.950 . S
C280 N276 1.374 . S
C280 C279 1.439 . S
C280 C305 1.395 . S
N281 Co270 1.995 1_545 S
N281 C282 1.376 . S
N281 C285 1.383 . S
C282 N281 1.376 . S
C282 C283 1.446 . S
C282 C305 1.391 . S
C283 C282 1.446 . S
C283 C284 1.339 . S
C283 H312 0.949 . S
C284 C283 1.339 . S
C284 C285 1.439 . S
C284 H313 0.950 . S
C285 N281 1.383 . S
C285 C284 1.439 . S
C285 C303 1.392 1_545 S
N286 Co270 2.282 1_545 S
N286 C289 1.332 . S
N286 C291 1.332 1_545 S
C287 C288 1.386 . S
C287 C290 1.388 . S
C288 C287 1.386 . S
C288 C289 1.382 . S
C288 H314 0.950 . S
C289 N286 1.332 . S
C289 C288 1.382 . S
C289 H300 0.952 . S
C290 C287 1.388 . S
C290 C291 1.382 1_545 S
C290 H315 0.950 1_545 S
C291 N286 1.332 1_565 S
C291 C290 1.382 1_565 S
C291 H301 0.948 . S
N292 Co270 2.282 . S
N292 C296 1.332 . S
N292 C297 1.332 . S
C293 C294 1.388 . S
C293 C297 1.382 . S
C293 H316 0.950 . S
C294 C293 1.388 . S
C294 C295 1.386 . S
C295 C294 1.386 . S
C295 C296 1.382 . S
C295 H317 0.950 . S
C296 N292 1.332 . S
C296 C295 1.382 . S
C296 H298 0.952 . S
C297 N292 1.332 . S
C297 C293 1.382 . S
C297 H299 0.948 1_565 S
H298 C296 0.952 . S
H299 C297 0.948 1_545 S
H300 C289 0.952 . S
H301 C291 0.948 . S
C302 C268 1.395 . S
C302 C272 1.391 . S
C303 C265 1.389 . S
C303 C285 1.392 1_565 S
C304 C275 1.392 1_545 S
C304 C277 1.389 . S
C305 C280 1.395 . S
C305 C282 1.391 . S
H306 C266 0.951 . S
H307 C267 0.950 . S
H308 C273 0.949 . S
H309 C274 0.950 . S
H310 C278 0.951 . S
H311 C279 0.950 . S
H312 C283 0.949 . S
H313 C284 0.950 . S
H314 C288 0.950 . S
H315 C290 0.950 1_565 S
H316 C293 0.950 . S
H317 C295 0.950 . S
C318 C319 1.443 1_546 S
C318 N322 1.376 1_556 S
C318 C356 1.389 . S
C319 C318 1.443 1_564 S
C319 C320 1.340 . S
C319 H359 0.951 1_554 S
C320 C319 1.340 . S
C320 C321 1.439 . S
C320 H360 0.950 . S
C321 C320 1.439 . S
C321 N322 1.374 1_565 S
C321 C355 1.395 . S
N322 C318 1.376 1_554 S
N322 C321 1.374 1_545 S
N322 Co323 2.008 . S
Co323 N322 2.008 . S
Co323 N324 1.995 . S
Co323 N329 2.008 . S
Co323 N334 1.995 1_554 S
Co323 N339 2.282 1_554 S
Co323 N345 2.282 . S
N324 Co323 1.995 . S
N324 C325 1.376 1_545 S
N324 C328 1.383 . S
C325 N324 1.376 1_565 S
C325 C326 1.446 . S
C325 C355 1.391 . S
C326 C325 1.446 . S
C326 C327 1.339 . S
C326 H361 0.949 . S
C327 C326 1.339 . S
C327 C328 1.439 1_565 S
C327 H362 0.950 . S
C328 N324 1.383 . S
C328 C327 1.439 1_545 S
C328 C357 1.392 . S
N329 Co323 2.008 . S
N329 C330 1.376 . S
N329 C333 1.374 . S
C330 N329 1.376 . S
C330 C331 1.443 . S
C330 C357 1.389 . S
C331 C330 1.443 . S
C331 C332 1.340 . S
C331 H363 0.951 . S
C332 C331 1.340 . S
C332 C333 1.439 . S
C332 H364 0.950 . S
C333 N329 1.374 . S
C333 C332 1.439 . S
C333 C358 1.395 1_554 S
N334 Co323 1.995 1_556 S
N334 C335 1.376 . S
N334 C338 1.383 . S
C335 N334 1.376 . S
C335 C336 1.446 . S
C335 C358 1.391 . S
C336 C335 1.446 . S
C336 C337 1.339 . S
C336 H365 0.949 . S
C337 C336 1.339 . S
C337 C338 1.439 . S
C337 H366 0.950 . S
C338 N334 1.383 . S
C338 C337 1.439 . S
C338 C356 1.392 . S
N339 Co323 2.282 1_556 S
N339 C342 1.332 . S
N339 C344 1.332 1_545 S
C340 C341 1.386 . S
C340 C343 1.388 1_545 S
C341 C340 1.386 . S
C341 C342 1.382 . S
C341 H367 0.950 . S
C342 N339 1.332 . S
C342 C341 1.382 . S
C342 H353 0.952 . S
C343 C340 1.388 1_565 S
C343 C344 1.382 . S
C343 H368 0.950 . S
C344 N339 1.332 1_565 S
C344 C343 1.382 . S
C344 H354 0.948 1_556 S
N345 Co323 2.282 . S
N345 C349 1.332 . S
N345 C350 1.332 . S
C346 C347 1.388 . S
C346 C350 1.382 . S
C346 H369 0.950 . S
C347 C346 1.388 . S
C347 C348 1.386 . S
C348 C347 1.386 . S
C348 C349 1.382 . S
C348 H370 0.950 . S
C349 N345 1.332 . S
C349 C348 1.382 . S
C349 H351 0.952 . S
C350 N345 1.332 . S
C350 C346 1.382 . S
C350 H352 0.948 . S
H351 C349 0.952 . S
H352 C350 0.948 . S
H353 C342 0.952 . S
H354 C344 0.948 1_554 S
C355 C321 1.395 . S
C355 C325 1.391 . S
C356 C318 1.389 . S
C356 C338 1.392 . S
C357 C328 1.392 . S
C357 C330 1.389 . S
C358 C333 1.395 1_556 S
C358 C335 1.391 . S
H359 C319 0.951 1_556 S
H360 C320 0.950 . S
H361 C326 0.949 . S
H362 C327 0.950 . S
H363 C331 0.951 . S
H364 C332 0.950 . S
H365 C336 0.949 . S
H366 C337 0.950 . S
H367 C341 0.950 . S
H368 C343 0.950 . S
H369 C346 0.950 . S
H370 C348 0.950 . S
C371 C372 1.443 . S
C371 N375 1.376 . S
C371 C409 1.389 . S
C372 C371 1.443 . S
C372 C373 1.340 . S
C372 H412 0.951 . S
C373 C372 1.340 . S
C373 C374 1.439 . S
C373 H413 0.950 . S
C374 C373 1.439 . S
C374 N375 1.374 . S
C374 C408 1.395 . S
N375 C371 1.376 . S
N375 C374 1.374 . S
N375 Co376 2.008 . S
Co376 N375 2.008 . S
Co376 N377 1.995 . S
Co376 N382 2.008 . S
Co376 N387 1.995 . S
Co376 N392 2.282 . S
Co376 N398 2.282 . S
N377 Co376 1.995 . S
N377 C378 1.376 . S
N377 C381 1.383 . S
C378 N377 1.376 . S
C378 C379 1.446 . S
C378 C408 1.391 . S
C379 C378 1.446 . S
C379 C380 1.339 . S
C379 H414 0.949 . S
C380 C379 1.339 . S
C380 C381 1.439 . S
C380 H415 0.950 . S
C381 N377 1.383 . S
C381 C380 1.439 . S
C381 C410 1.392 . S
N382 Co376 2.008 . S
N382 C383 1.376 . S
N382 C386 1.374 1_545 S
C383 N382 1.376 . S
C383 C384 1.443 1_545 S
C383 C410 1.389 . S
C384 C383 1.443 1_565 S
C384 C385 1.340 . S
C384 H416 0.951 . S
C385 C384 1.340 . S
C385 C386 1.439 . S
C385 H417 0.950 . S
C386 N382 1.374 1_565 S
C386 C385 1.439 . S
C386 C411 1.395 . S
N387 Co376 1.995 . S
N387 C388 1.376 . S
N387 C391 1.383 . S
C388 N387 1.376 . S
C388 C389 1.446 . S
C388 C411 1.391 1_545 S
C389 C388 1.446 . S
C389 C390 1.339 . S
C389 H418 0.949 1_545 S
C390 C389 1.339 . S
C390 C391 1.439 . S
C390 H419 0.950 1_455 S
C391 N387 1.383 . S
C391 C390 1.439 . S
C391 C409 1.392 . S
N392 Co376 2.282 . S
N392 C395 1.332 . S
N392 C397 1.332 . S
C393 C394 1.386 . S
C393 C396 1.388 . S
C394 C393 1.386 . S
C394 C395 1.382 . S
C394 H420 0.950 1_545 S
C395 N392 1.332 . S
C395 C394 1.382 . S
C395 H406 0.952 . S
C396 C393 1.388 . S
C396 C397 1.382 . S
C396 H421 0.950 . S
C397 N392 1.332 . S
C397 C396 1.382 . S
C397 H407 0.948 . S
N398 Co376 2.282 . S
N398 C402 1.332 . S
N398 C403 1.332 . S
C399 C400 1.388 . S
C399 C403 1.382 1_655 S
C399 H422 0.950 . S
C400 C399 1.388 . S
C400 C401 1.386 1_655 S
C401 C400 1.386 1_455 S
C401 C402 1.382 . S
C401 H423 0.950 . S
C402 N398 1.332 . S
C402 C401 1.382 . S
C402 H404 0.952 . S
C403 N398 1.332 . S
C403 C399 1.382 1_455 S
C403 H405 0.948 . S
H404 C402 0.952 . S
H405 C403 0.948 . S
H406 C395 0.952 . S
H407 C397 0.948 . S
C408 C374 1.395 . S
C408 C378 1.391 . S
C409 C371 1.389 . S
C409 C391 1.392 . S
C410 C381 1.392 . S
C410 C383 1.389 . S
C411 C386 1.395 . S
C411 C388 1.391 1_565 S
H412 C372 0.951 . S
H413 C373 0.950 . S
H414 C379 0.949 . S
H415 C380 0.950 . S
H416 C384 0.951 . S
H417 C385 0.950 . S
H418 C389 0.949 1_565 S
H419 C390 0.950 1_655 S
H420 C394 0.950 1_565 S
H421 C396 0.950 . S
H422 C399 0.950 . S
H423 C401 0.950 . S
C75 C39 2.856 1_556 S
C22 C92 2.263 . S
C181 C145 3.215 1_544 S
C128 C198 2.281 1_545 S
C234 C304 2.557 . S
C287 C251 2.872 1_545 S
C340 C410 2.708 . S
C357 C393 2.477 . S
C38 C197 2.920 1_455 S
C91 C144 3.167 . S
C400 C241 3.248 . S
C347 C294 3.634 . S
C29 C250 2.588 1_456 S
C303 C82 2.965 . S
C356 C135 2.258 1_556 S
C409 C188 3.440 . S
