# Generated by pormake.
# Topology son, (6)-cn, num edge types: 1
# Building blocks:
#     Node 0, Type 0, BuildingBlock: GEDQOX_clean_sbu_0, # of connection points: 6
#     Node 1, Type 0, BuildingBlock: GEDQOX_clean_sbu_0, # of connection points: 6
#     Node 2, Type 0, BuildingBlock: GEDQOX_clean_sbu_0, # of connection points: 6
#     Node 3, Type 0, BuildingBlock: GEDQOX_clean_sbu_0, # of connection points: 6
#     Node 4, Type 0, BuildingBlock: GEDQOX_clean_sbu_0, # of connection points: 6
#     Node 5, Type 0, BuildingBlock: GEDQOX_clean_sbu_0, # of connection points: 6
#     Node 6, Type 0, BuildingBlock: GEDQOX_clean_sbu_0, # of connection points: 6
#     Node 7, Type 0, BuildingBlock: GEDQOX_clean_sbu_0, # of connection points: 6
#     Node 8, Type 0, BuildingBlock: GEDQOX_clean_sbu_0, # of connection points: 6
#     Node 9, Type 0, BuildingBlock: GEDQOX_clean_sbu_0, # of connection points: 6
#     Node 10, Type 0, BuildingBlock: GEDQOX_clean_sbu_0, # of connection points: 6
#     Node 11, Type 0, BuildingBlock: GEDQOX_clean_sbu_0, # of connection points: 6
#     Node 12, Type 0, BuildingBlock: GEDQOX_clean_sbu_0, # of connection points: 6
#     Node 13, Type 0, BuildingBlock: GEDQOX_clean_sbu_0, # of connection points: 6
#     Node 14, Type 0, BuildingBlock: GEDQOX_clean_sbu_0, # of connection points: 6
#     Node 15, Type 0, BuildingBlock: GEDQOX_clean_sbu_0, # of connection points: 6
#     Node 16, Type 0, BuildingBlock: GEDQOX_clean_sbu_0, # of connection points: 6
#     Node 17, Type 0, BuildingBlock: GEDQOX_clean_sbu_0, # of connection points: 6
#     Node 18, Type 0, BuildingBlock: GEDQOX_clean_sbu_0, # of connection points: 6
#     Node 19, Type 0, BuildingBlock: GEDQOX_clean_sbu_0, # of connection points: 6
#     Node 20, Type 0, BuildingBlock: GEDQOX_clean_sbu_0, # of connection points: 6
#     Node 21, Type 0, BuildingBlock: GEDQOX_clean_sbu_0, # of connection points: 6
#     Node 22, Type 0, BuildingBlock: GEDQOX_clean_sbu_0, # of connection points: 6
#     Node 23, Type 0, BuildingBlock: GEDQOX_clean_sbu_0, # of connection points: 6
#     Node 24, Type 0, BuildingBlock: GEDQOX_clean_sbu_0, # of connection points: 6
#     Node 25, Type 0, BuildingBlock: GEDQOX_clean_sbu_0, # of connection points: 6
#     Node 26, Type 0, BuildingBlock: GEDQOX_clean_sbu_0, # of connection points: 6
#     Node 27, Type 0, BuildingBlock: GEDQOX_clean_sbu_0, # of connection points: 6
#     Node 28, Type 0, BuildingBlock: GEDQOX_clean_sbu_0, # of connection points: 6
#     Node 29, Type 0, BuildingBlock: GEDQOX_clean_sbu_0, # of connection points: 6
#     Node 30, Type 0, BuildingBlock: GEDQOX_clean_sbu_0, # of connection points: 6
#     Node 31, Type 0, BuildingBlock: GEDQOX_clean_sbu_0, # of connection points: 6
#     Edge 32, Type (0, 0), BuildingBlock: XIVTED_clean_linker_0, # of connection points: 2
#     Edge 33, Type (0, 0), BuildingBlock: XIVTED_clean_linker_0, # of connection points: 2
#     Edge 34, Type (0, 0), BuildingBlock: XIVTED_clean_linker_0, # of connection points: 2
#     Edge 35, Type (0, 0), BuildingBlock: XIVTED_clean_linker_0, # of connection points: 2
#     Edge 36, Type (0, 0), BuildingBlock: XIVTED_clean_linker_0, # of connection points: 2
#     Edge 37, Type (0, 0), BuildingBlock: XIVTED_clean_linker_0, # of connection points: 2
#     Edge 38, Type (0, 0), BuildingBlock: XIVTED_clean_linker_0, # of connection points: 2
#     Edge 39, Type (0, 0), BuildingBlock: XIVTED_clean_linker_0, # of connection points: 2
#     Edge 40, Type (0, 0), BuildingBlock: XIVTED_clean_linker_0, # of connection points: 2
#     Edge 41, Type (0, 0), BuildingBlock: XIVTED_clean_linker_0, # of connection points: 2
#     Edge 42, Type (0, 0), BuildingBlock: XIVTED_clean_linker_0, # of connection points: 2
#     Edge 43, Type (0, 0), BuildingBlock: XIVTED_clean_linker_0, # of connection points: 2
#     Edge 44, Type (0, 0), BuildingBlock: XIVTED_clean_linker_0, # of connection points: 2
#     Edge 45, Type (0, 0), BuildingBlock: XIVTED_clean_linker_0, # of connection points: 2
#     Edge 46, Type (0, 0), BuildingBlock: XIVTED_clean_linker_0, # of connection points: 2
#     Edge 47, Type (0, 0), BuildingBlock: XIVTED_clean_linker_0, # of connection points: 2
#     Edge 48, Type (0, 0), BuildingBlock: XIVTED_clean_linker_0, # of connection points: 2
#     Edge 49, Type (0, 0), BuildingBlock: XIVTED_clean_linker_0, # of connection points: 2
#     Edge 50, Type (0, 0), BuildingBlock: XIVTED_clean_linker_0, # of connection points: 2
#     Edge 51, Type (0, 0), BuildingBlock: XIVTED_clean_linker_0, # of connection points: 2
#     Edge 52, Type (0, 0), BuildingBlock: XIVTED_clean_linker_0, # of connection points: 2
#     Edge 53, Type (0, 0), BuildingBlock: XIVTED_clean_linker_0, # of connection points: 2
#     Edge 54, Type (0, 0), BuildingBlock: XIVTED_clean_linker_0, # of connection points: 2
#     Edge 55, Type (0, 0), BuildingBlock: XIVTED_clean_linker_0, # of connection points: 2
#     Edge 56, Type (0, 0), BuildingBlock: XIVTED_clean_linker_0, # of connection points: 2
#     Edge 57, Type (0, 0), BuildingBlock: XIVTED_clean_linker_0, # of connection points: 2
#     Edge 58, Type (0, 0), BuildingBlock: XIVTED_clean_linker_0, # of connection points: 2
#     Edge 59, Type (0, 0), BuildingBlock: XIVTED_clean_linker_0, # of connection points: 2
#     Edge 60, Type (0, 0), BuildingBlock: XIVTED_clean_linker_0, # of connection points: 2
#     Edge 61, Type (0, 0), BuildingBlock: XIVTED_clean_linker_0, # of connection points: 2
#     Edge 62, Type (0, 0), BuildingBlock: XIVTED_clean_linker_0, # of connection points: 2
#     Edge 63, Type (0, 0), BuildingBlock: XIVTED_clean_linker_0, # of connection points: 2
#     Edge 64, Type (0, 0), BuildingBlock: XIVTED_clean_linker_0, # of connection points: 2
#     Edge 65, Type (0, 0), BuildingBlock: XIVTED_clean_linker_0, # of connection points: 2
#     Edge 66, Type (0, 0), BuildingBlock: XIVTED_clean_linker_0, # of connection points: 2
#     Edge 67, Type (0, 0), BuildingBlock: XIVTED_clean_linker_0, # of connection points: 2
#     Edge 68, Type (0, 0), BuildingBlock: XIVTED_clean_linker_0, # of connection points: 2
#     Edge 69, Type (0, 0), BuildingBlock: XIVTED_clean_linker_0, # of connection points: 2
#     Edge 70, Type (0, 0), BuildingBlock: XIVTED_clean_linker_0, # of connection points: 2
#     Edge 71, Type (0, 0), BuildingBlock: XIVTED_clean_linker_0, # of connection points: 2
#     Edge 72, Type (0, 0), BuildingBlock: XIVTED_clean_linker_0, # of connection points: 2
#     Edge 73, Type (0, 0), BuildingBlock: XIVTED_clean_linker_0, # of connection points: 2
#     Edge 74, Type (0, 0), BuildingBlock: XIVTED_clean_linker_0, # of connection points: 2
#     Edge 75, Type (0, 0), BuildingBlock: XIVTED_clean_linker_0, # of connection points: 2
#     Edge 76, Type (0, 0), BuildingBlock: XIVTED_clean_linker_0, # of connection points: 2
#     Edge 77, Type (0, 0), BuildingBlock: XIVTED_clean_linker_0, # of connection points: 2
#     Edge 78, Type (0, 0), BuildingBlock: XIVTED_clean_linker_0, # of connection points: 2
#     Edge 79, Type (0, 0), BuildingBlock: XIVTED_clean_linker_0, # of connection points: 2
#     Edge 80, Type (0, 0), BuildingBlock: XIVTED_clean_linker_0, # of connection points: 2
#     Edge 81, Type (0, 0), BuildingBlock: XIVTED_clean_linker_0, # of connection points: 2
#     Edge 82, Type (0, 0), BuildingBlock: XIVTED_clean_linker_0, # of connection points: 2
#     Edge 83, Type (0, 0), BuildingBlock: XIVTED_clean_linker_0, # of connection points: 2
#     Edge 84, Type (0, 0), BuildingBlock: XIVTED_clean_linker_0, # of connection points: 2
#     Edge 85, Type (0, 0), BuildingBlock: XIVTED_clean_linker_0, # of connection points: 2
#     Edge 86, Type (0, 0), BuildingBlock: XIVTED_clean_linker_0, # of connection points: 2
#     Edge 87, Type (0, 0), BuildingBlock: XIVTED_clean_linker_0, # of connection points: 2
#     Edge 88, Type (0, 0), BuildingBlock: XIVTED_clean_linker_0, # of connection points: 2
#     Edge 89, Type (0, 0), BuildingBlock: XIVTED_clean_linker_0, # of connection points: 2
#     Edge 90, Type (0, 0), BuildingBlock: XIVTED_clean_linker_0, # of connection points: 2
#     Edge 91, Type (0, 0), BuildingBlock: XIVTED_clean_linker_0, # of connection points: 2
#     Edge 92, Type (0, 0), BuildingBlock: XIVTED_clean_linker_0, # of connection points: 2
#     Edge 93, Type (0, 0), BuildingBlock: XIVTED_clean_linker_0, # of connection points: 2
#     Edge 94, Type (0, 0), BuildingBlock: XIVTED_clean_linker_0, # of connection points: 2
#     Edge 95, Type (0, 0), BuildingBlock: XIVTED_clean_linker_0, # of connection points: 2
#     Edge 96, Type (0, 0), BuildingBlock: XIVTED_clean_linker_0, # of connection points: 2
#     Edge 97, Type (0, 0), BuildingBlock: XIVTED_clean_linker_0, # of connection points: 2
#     Edge 98, Type (0, 0), BuildingBlock: XIVTED_clean_linker_0, # of connection points: 2
#     Edge 99, Type (0, 0), BuildingBlock: XIVTED_clean_linker_0, # of connection points: 2
#     Edge 100, Type (0, 0), BuildingBlock: XIVTED_clean_linker_0, # of connection points: 2
#     Edge 101, Type (0, 0), BuildingBlock: XIVTED_clean_linker_0, # of connection points: 2
#     Edge 102, Type (0, 0), BuildingBlock: XIVTED_clean_linker_0, # of connection points: 2
#     Edge 103, Type (0, 0), BuildingBlock: XIVTED_clean_linker_0, # of connection points: 2
#     Edge 104, Type (0, 0), BuildingBlock: XIVTED_clean_linker_0, # of connection points: 2
#     Edge 105, Type (0, 0), BuildingBlock: XIVTED_clean_linker_0, # of connection points: 2
#     Edge 106, Type (0, 0), BuildingBlock: XIVTED_clean_linker_0, # of connection points: 2
#     Edge 107, Type (0, 0), BuildingBlock: XIVTED_clean_linker_0, # of connection points: 2
#     Edge 108, Type (0, 0), BuildingBlock: XIVTED_clean_linker_0, # of connection points: 2
#     Edge 109, Type (0, 0), BuildingBlock: XIVTED_clean_linker_0, # of connection points: 2
#     Edge 110, Type (0, 0), BuildingBlock: XIVTED_clean_linker_0, # of connection points: 2
#     Edge 111, Type (0, 0), BuildingBlock: XIVTED_clean_linker_0, # of connection points: 2
#     Edge 112, Type (0, 0), BuildingBlock: XIVTED_clean_linker_0, # of connection points: 2
#     Edge 113, Type (0, 0), BuildingBlock: XIVTED_clean_linker_0, # of connection points: 2
#     Edge 114, Type (0, 0), BuildingBlock: XIVTED_clean_linker_0, # of connection points: 2
#     Edge 115, Type (0, 0), BuildingBlock: XIVTED_clean_linker_0, # of connection points: 2
#     Edge 116, Type (0, 0), BuildingBlock: XIVTED_clean_linker_0, # of connection points: 2
#     Edge 117, Type (0, 0), BuildingBlock: XIVTED_clean_linker_0, # of connection points: 2
#     Edge 118, Type (0, 0), BuildingBlock: XIVTED_clean_linker_0, # of connection points: 2
#     Edge 119, Type (0, 0), BuildingBlock: XIVTED_clean_linker_0, # of connection points: 2
#     Edge 120, Type (0, 0), BuildingBlock: XIVTED_clean_linker_0, # of connection points: 2
#     Edge 121, Type (0, 0), BuildingBlock: XIVTED_clean_linker_0, # of connection points: 2
#     Edge 122, Type (0, 0), BuildingBlock: XIVTED_clean_linker_0, # of connection points: 2
#     Edge 123, Type (0, 0), BuildingBlock: XIVTED_clean_linker_0, # of connection points: 2
#     Edge 124, Type (0, 0), BuildingBlock: XIVTED_clean_linker_0, # of connection points: 2
#     Edge 125, Type (0, 0), BuildingBlock: XIVTED_clean_linker_0, # of connection points: 2
#     Edge 126, Type (0, 0), BuildingBlock: XIVTED_clean_linker_0, # of connection points: 2
#     Edge 127, Type (0, 0), BuildingBlock: XIVTED_clean_linker_0, # of connection points: 2
# Relax obj value: 0.133
# Max RMSD: 0.185
# Mean RMSD: 0.184
data_MOF--net-son--node1-GEDQOX_clean_sbu_0--edge1-XIVTED_clean_linker_0
_symmetry_space_group_name_H-M    P1
_symmetry_Int_Tables_number       1
_symmetry_cell_setting            triclinic
loop_
_symmetry_equiv_pos_as_xyz
'x, y, z'
_cell_length_a     207.34527
_cell_length_b     57.391954
_cell_length_c     15.84912
_cell_angle_alpha  90.074644
_cell_angle_beta   90.042774
_cell_angle_gamma 90.093064
loop_
_atom_site_label
_atom_site_type_symbol
_atom_site_fract_x
_atom_site_fract_y
_atom_site_fract_z
_atom_type_partial_charge
Nd0 Nd 0.31399 0.25187 0.25874 0.0
Nd1 Nd 0.3281 0.25124 0.25433 0.0
C2 C 0.30129 0.24736 0.24647 0.0
C3 C 0.29516 0.24777 0.19848 0.0
C4 C 0.29335 0.22992 0.14242 0.0
C5 C 0.28715 0.22971 0.10652 0.0
C6 C 0.28264 0.24722 0.12667 0.0
C7 C 0.28454 0.2651 0.18216 0.0
C8 C 0.29071 0.2654 0.21711 0.0
C9 C 0.31922 0.29314 0.31396 0.0
C10 C 0.32128 0.25764 0.07425 0.0
C11 C 0.34085 0.25331 0.26538 0.0
C12 C 0.34725 0.25458 0.3067 0.0
C13 C 0.35024 0.27604 0.32439 0.0
C14 C 0.35672 0.27686 0.34974 0.0
C15 C 0.36038 0.25625 0.35695 0.0
C16 C 0.3573 0.23483 0.34109 0.0
C17 C 0.35084 0.23402 0.31657 0.0
C18 C 0.32252 0.20938 0.20905 0.0
C19 C 0.32093 0.24614 0.43841 0.0
O20 O 0.30524 0.22965 0.24039 0.0
O21 O 0.30424 0.26718 0.25867 0.0
O22 O 0.31431 0.28276 0.34701 0.0
O23 O 0.3213 0.28218 0.24956 0.0
O24 O 0.31586 0.25293 0.1147 0.0
O25 O 0.32672 0.26086 0.1156 0.0
O26 O 0.33727 0.27189 0.25512 0.0
O27 O 0.33751 0.23409 0.27209 0.0
O28 O 0.32715 0.21942 0.16824 0.0
O29 O 0.32083 0.22157 0.27186 0.0
O30 O 0.32623 0.25237 0.39813 0.0
O31 O 0.31559 0.24121 0.39658 0.0
H32 H 0.29667 0.21594 0.12748 0.0
H33 H 0.2859 0.21578 0.06338 0.0
H34 H 0.2812 0.27858 0.20128 0.0
H35 H 0.29192 0.27913 0.26142 0.0
H36 H 0.34764 0.29223 0.31629 0.0
H37 H 0.35889 0.29367 0.36251 0.0
H38 H 0.35995 0.2186 0.34403 0.0
H39 H 0.34873 0.21722 0.30159 0.0
Nd40 Nd 0.95474 0.995 0.26246 0.0
Nd41 Nd 0.94054 0.99691 0.25689 0.0
C42 C 0.96749 0.99739 0.24934 0.0
C43 C 0.9735 0.99776 0.19871 0.0
C44 C 0.97631 0.01886 0.17245 0.0
C45 C 0.98255 0.01921 0.13836 0.0
C46 C 0.98613 -0.00151 0.13038 0.0
C47 C 0.9832 0.97734 0.15355 0.0
C48 C 0.97699 0.977 0.18749 0.0
C49 C 0.94906 0.95441 0.31539 0.0
C50 C 0.94743 0.99051 0.07746 0.0
C51 C 0.92779 0.99545 0.26714 0.0
C52 C 0.92137 0.99376 0.30787 0.0
C53 C 0.91832 0.97213 0.32008 0.0
C54 C 0.91183 0.97107 0.3446 0.0
C55 C 0.90822 0.99161 0.35657 0.0
C56 C 0.91136 0.01318 0.3464 0.0
C57 C 0.91783 0.01422 0.32255 0.0
C58 C 0.94643 0.0381 0.21171 0.0
C59 C 0.94779 0.00112 0.44155 0.0
O60 O 0.96382 0.01591 0.25408 0.0
O61 O 0.96423 0.97792 0.25247 0.0
O62 O 0.95402 0.96401 0.35053 0.0
O63 O 0.94721 0.96576 0.25106 0.0
O64 O 0.95282 0.99539 0.11837 0.0
O65 O 0.94199 0.98704 0.11845 0.0
O66 O 0.9313 0.97687 0.25353 0.0
O67 O 0.93119 0.01441 0.27751 0.0
O68 O 0.94167 0.02868 0.17152 0.0
O69 O 0.94806 0.02582 0.27447 0.0
O70 O 0.94245 0.99537 0.40074 0.0
O71 O 0.95318 0.00556 0.40032 0.0
H72 H 0.97379 0.0352 0.18128 0.0
H73 H 0.98466 0.03585 0.12176 0.0
H74 H 0.98576 0.961 0.14689 0.0
H75 H 0.97502 0.96045 0.20795 0.0
H76 H 0.92089 0.95603 0.30821 0.0
H77 H 0.90962 0.95413 0.35298 0.0
H78 H 0.90875 0.02939 0.35328 0.0
H79 H 0.91999 0.03117 0.31189 0.0
Nd80 Nd 0.3141 0.99592 0.06206 0.0
Nd81 Nd 0.32826 0.99579 0.07057 0.0
C82 C 0.30136 2e-05 0.07358 0.0
C83 C 0.29535 -0.00015 0.12455 0.0
C84 C 0.29221 0.02083 0.14451 0.0
C85 C 0.28597 0.02069 0.17839 0.0
C86 C 0.2827 -0.00046 0.19273 0.0
C87 C 0.28595 0.97856 0.17594 0.0
C88 C 0.29218 0.9787 0.14209 0.0
C89 C 0.31946 0.95384 1.019 0.0
C90 C 0.32115 0.99068 0.24783 0.0
C91 C 0.34101 0.99148 0.06337 0.0
C92 C 0.34739 0.99218 1.02118 0.0
C93 C 0.35017 0.97199 0.98666 0.0
C94 C 0.35665 0.97196 0.96077 0.0
C95 C 0.36053 0.99202 0.97003 0.0
C96 C 0.35765 0.01232 1.00271 0.0
C97 C 0.35119 0.01242 1.0275 0.0
C98 C 0.32281 0.03841 0.10731 0.0
C99 C 0.32125 0.00101 0.88441 0.0
O100 O 0.30528 0.01792 0.07696 0.0
O101 O 0.30437 0.9803 0.06235 0.0
O102 O 0.3148 0.96372 0.97859 0.0
O103 O 0.32123 0.96591 0.08203 0.0
O104 O 0.31598 0.9977 0.20621 0.0
O105 O 0.32643 0.98476 0.20699 0.0
O106 O 0.33707 0.97387 0.05232 0.0
O107 O 0.33802 0.01111 0.07701 0.0
O108 O 0.32735 0.02879 0.15089 0.0
O109 O 0.32116 0.02556 0.04601 0.0
O110 O 0.32647 0.99444 0.92614 0.0
O111 O 0.31591 0.00655 0.92503 0.0
H112 H 0.29447 0.03741 0.13057 0.0
H113 H 0.28361 0.03721 0.18971 0.0
H114 H 0.28365 0.96192 0.18759 0.0
H115 H 0.29441 0.96217 0.1268 0.0
H116 H 0.34741 0.956 0.98201 0.0
H117 H 0.35862 0.95606 0.93466 0.0
H118 H 0.36045 0.02802 1.01286 0.0
H119 H 0.34926 0.02816 0.05547 0.0
Nd120 Nd 0.95487 0.24962 0.06136 0.0
Nd121 Nd 0.94068 0.25115 0.06947 0.0
C122 C 0.96754 0.24355 0.07451 0.0
C123 C 0.9735 0.24458 0.12645 0.0
C124 C 0.97666 0.22396 0.15018 0.0
C125 C 0.98289 0.22468 0.1844 0.0
C126 C 0.98613 0.24607 0.19518 0.0
C127 C 0.98284 0.26674 0.17518 0.0
C128 C 0.97662 0.26601 0.14111 0.0
C129 C 0.95004 0.2917 1.01009 0.0
C130 C 0.94783 0.25661 0.24743 0.0
C131 C 0.92794 0.25479 0.05985 0.0
C132 C 0.92153 0.25576 1.0181 0.0
C133 C 0.91822 0.277 1.00989 0.0
C134 C 0.9117 0.27736 0.98624 0.0
C135 C 0.90832 0.25645 0.97098 0.0
C136 C 0.91172 0.23532 0.97577 0.0
C137 C 0.91822 0.23497 0.99918 0.0
C138 C 0.94591 0.2086 0.11149 0.0
C139 C 0.94761 0.24496 0.88393 0.0
O140 O 0.9634 0.22656 0.08496 0.0
O141 O 0.96479 0.26323 0.05464 0.0
O142 O 0.95481 0.28091 0.97544 0.0
O143 O 0.94794 0.28075 0.0743 0.0
O144 O 0.95307 0.2504 0.20555 0.0
O145 O 0.94243 0.26141 0.20723 0.0
O146 O 0.93173 0.27305 0.06399 0.0
O147 O 0.93107 0.23509 0.05921 0.0
O148 O 0.94145 0.21902 0.15406 0.0
O149 O 0.94762 0.22066 0.04856 0.0
O150 O 0.94251 0.25252 0.9257 0.0
O151 O 0.95288 0.23852 0.92457 0.0
H152 H 0.97442 0.20717 0.13871 0.0
H153 H 0.98528 0.20838 0.19852 0.0
H154 H 0.98511 0.28356 0.1842 0.0
H155 H 0.97437 0.28229 0.1232 0.0
H156 H 0.92059 0.2933 1.02531 0.0
H157 H 0.90924 0.29397 0.98384 0.0
H158 H 0.90934 0.21889 0.96298 0.0
H159 H 0.92058 0.21824 1.00579 0.0
Nd160 Nd 0.6906 0.74567 0.82162 0.0
Nd161 Nd 0.70476 0.7446 0.81345 0.0
C162 C 0.67784 0.74347 0.81358 0.0
C163 C 0.67142 0.74302 0.77243 0.0
C164 C 0.66864 0.7222 0.74288 0.0
C165 C 0.66214 0.72159 0.71816 0.0
C166 C 0.65828 0.74174 0.72324 0.0
C167 C 0.66116 0.76269 0.74977 0.0
C168 C 0.66763 0.76329 0.77424 0.0
C169 C 0.69636 0.78756 0.86274 0.0
C170 C 0.69759 0.75039 0.63564 0.0
C171 C 0.7175 0.74774 0.82508 0.0
C172 C 0.7235 0.74805 0.87625 0.0
C173 C 0.72638 0.76916 0.90103 0.0
C174 C 0.73258 0.76942 0.93624 0.0
C175 C 0.73608 0.74858 0.94662 0.0
C176 C 0.7331 0.72745 0.92394 0.0
C177 C 0.7269 0.72719 0.88945 0.0
C178 C 0.69923 0.70349 0.76286 0.0
C179 C 0.69768 0.73975 0.99944 0.0
O180 O 0.68148 0.72486 0.81646 0.0
O181 O 0.68111 0.76289 0.81294 0.0
O182 O 0.69175 0.77797 0.90525 0.0
O183 O 0.69794 0.77497 0.80056 0.0
O184 O 0.69234 0.74435 0.67748 0.0
O185 O 0.70301 0.75518 0.67597 0.0
O186 O 0.71374 0.76604 0.82287 0.0
O187 O 0.71434 0.72811 0.81965 0.0
O188 O 0.70407 0.71343 0.72648 0.0
O189 O 0.69739 0.71486 0.82741 0.0
O190 O 0.70295 0.74549 0.95758 0.0
O191 O 0.69225 0.73533 0.9592 0.0
H192 H 0.6714 0.70621 0.74177 0.0
H193 H 0.66007 0.70511 0.69859 0.0
H194 H 0.65839 0.77865 0.75308 0.0
H195 H 0.66959 0.77955 0.79779 0.0
H196 H 0.72393 0.78557 0.89076 0.0
H197 H 0.73467 0.78601 0.95407 0.0
H198 H 0.73565 0.71107 0.92924 0.0
H199 H 0.72489 0.71063 0.86962 0.0
Nd200 Nd 0.07821 -0.00012 0.81788 0.0
Nd201 Nd 0.06403 0.00212 0.81169 0.0
C202 C 0.09097 0.00136 0.80791 0.0
C203 C 0.09737 0.00339 0.76673 0.0
C204 C 0.10063 0.02485 0.76361 0.0
C205 C 0.10713 0.0259 0.73914 0.0
C206 C 0.11052 0.00548 0.71793 0.0
C207 C 0.10718 0.98413 0.71877 0.0
C208 C 0.1007 0.98311 0.74277 0.0
C209 C 0.07224 0.95864 0.86175 0.0
C210 C 0.071 0.99592 0.63297 0.0
C211 C 0.05127 0.00017 0.82425 0.0
C212 C 0.04525 -0.0002 0.87472 0.0
C213 C 0.04244 0.97871 0.90086 0.0
C214 C 0.03619 0.97837 0.93486 0.0
C215 C 0.03262 -0.00089 0.94288 0.0
C216 C 0.03555 0.02025 0.91981 0.0
C217 C 0.04177 0.02057 0.88595 0.0
C218 C 0.06982 0.04257 0.75952 0.0
C219 C 0.0713 0.00617 0.997 0.0
O220 O 0.08746 0.01985 0.82308 0.0
O221 O 0.08756 0.98247 0.79618 0.0
O222 O 0.07702 0.96783 0.90234 0.0
O223 O 0.07066 0.97114 0.79944 0.0
O224 O 0.07632 0.00174 0.67399 0.0
O225 O 0.06561 0.99139 0.67409 0.0
O226 O 0.05489 0.98153 0.81872 0.0
O227 O 0.05458 0.01953 0.82219 0.0
O228 O 0.06487 0.03311 0.72367 0.0
O229 O 0.0716 0.03115 0.82407 0.0
O230 O 0.06592 0.00128 0.95583 0.0
O231 O 0.07675 0.00974 0.9562 0.0
H232 H 0.09824 0.04076 0.78283 0.0
H233 H 0.1095 0.04271 0.73812 0.0
H234 H 0.10963 0.96797 0.70439 0.0
H235 H 0.09838 0.9662 0.74618 0.0
H236 H 0.04495 0.96235 0.89204 0.0
H237 H 0.03408 0.96174 0.95137 0.0
H238 H 0.03301 0.0366 0.92651 0.0
H239 H 0.04375 0.03711 0.86556 0.0
Nd240 Nd 0.69063 -0.00012 1.0052 0.0
Nd241 Nd 0.70485 0.00158 1.01111 0.0
C242 C 0.67788 0.00166 1.0154 0.0
C243 C 0.67147 0.00324 0.05647 0.0
C244 C 0.66845 0.02484 0.07025 0.0
C245 C 0.66197 0.02585 0.09514 0.0
C246 C 0.65833 0.00529 0.10589 0.0
C247 C 0.66143 0.98374 0.09406 0.0
C248 C 0.6679 0.98275 0.06991 0.0
C249 C 0.69644 0.95839 0.96097 0.0
C250 C 0.69784 0.99549 0.18987 0.0
C251 C 0.7176 -0.00079 0.99859 0.0
C252 C 0.72368 -0.00064 0.94928 0.0
C253 C 0.72635 0.97875 0.91623 0.0
C254 C 0.73263 0.97867 0.88314 0.0
C255 C 0.73639 -0.00086 0.88317 0.0
C256 C 0.7336 0.01986 0.91313 0.0
C257 C 0.72736 0.01995 0.94593 0.0
C258 C 0.6992 0.04225 0.06376 0.0
C259 C 0.69755 0.00615 0.82608 0.0
O260 O 0.68145 0.02021 1.00344 0.0
O261 O 0.68123 0.98255 1.02405 0.0
O262 O 0.6917 0.96782 0.92052 0.0
O263 O 0.69809 0.97087 1.02324 0.0
O264 O 0.69254 0.00154 0.14901 0.0
O265 O 0.70321 0.99075 0.14858 0.0
O266 O 0.7139 0.98068 1.00033 0.0
O267 O 0.71437 0.01865 1.00397 0.0
O268 O 0.70413 0.0326 0.09924 0.0
O269 O 0.69737 0.03088 0.99919 0.0
O270 O 0.70292 0.00105 0.86705 0.0
O271 O 0.69212 0.00988 0.86706 0.0
H272 H 0.67104 0.04096 0.05935 0.0
H273 H 0.65979 0.04277 0.10478 0.0
H274 H 0.6588 0.96752 0.09991 0.0
H275 H 0.67002 0.96583 0.05803 0.0
H276 H 0.72368 0.96253 0.91879 0.0
H277 H 0.73463 0.96236 0.86099 0.0
H278 H 0.73629 0.03605 0.91272 0.0
H279 H 0.72549 0.03608 0.97173 0.0
Nd280 Nd 0.07804 0.74508 1.00406 0.0
Nd281 Nd 0.0639 0.74677 1.01229 0.0
C282 C 0.09075 0.73964 1.01167 0.0
C283 C 0.09713 0.74049 0.05398 0.0
C284 C 0.09973 0.72082 0.09415 0.0
C285 C 0.1062 0.72069 0.12044 0.0
C286 C 0.11024 0.74009 0.10588 0.0
C287 C 0.10753 0.75992 0.06757 0.0
C288 C 0.10108 0.76013 0.04243 0.0
C289 C 0.07299 0.78806 0.96388 0.0
C290 C 0.07111 0.75194 0.18978 0.0
C291 C 0.05119 0.75197 1.00138 0.0
C292 C 0.04511 0.75038 0.95206 0.0
C293 C 0.04287 0.76906 0.90289 0.0
C294 C 0.03666 0.76846 0.86752 0.0
C295 C 0.03254 0.74927 0.88129 0.0
C296 C 0.03487 0.73045 0.92903 0.0
C297 C 0.04106 0.73099 0.96366 0.0
C298 C 0.06893 0.70441 0.05788 0.0
C299 C 0.07088 0.73994 0.82657 0.0
O300 O 0.0867 0.72254 1.02556 0.0
O301 O 0.08789 0.75932 0.99494 0.0
O302 O 0.07749 0.77764 0.92203 0.0
O303 O 0.07116 0.77584 1.02595 0.0
O304 O 0.07626 0.74458 0.14841 0.0
O305 O 0.06584 0.75813 0.14866 0.0
O306 O 0.05525 0.7691 0.98859 0.0
O307 O 0.05404 0.73251 1.02128 0.0
O308 O 0.06432 0.71494 0.09713 0.0
O309 O 0.07079 0.71593 0.994 0.0
O310 O 0.06573 0.74724 0.86797 0.0
O311 O 0.07614 0.73383 0.86767 0.0
H312 H 0.09684 0.70528 0.10299 0.0
H313 H 0.10804 0.70521 0.15096 0.0
H314 H 0.11045 0.77505 0.05321 0.0
H315 H 0.09928 0.77541 1.01008 0.0
H316 H 0.04583 0.7844 0.89353 0.0
H317 H 0.03508 0.78317 0.83022 0.0
H318 H 0.03184 0.71558 0.94283 0.0
H319 H 0.04258 0.7165 1.00263 0.0
Nd320 Nd 0.31363 0.751 0.76677 0.0
Nd321 Nd 0.32847 0.75194 0.76479 0.0
C322 C 0.30092 0.74946 0.7506 0.0
C323 C 0.29484 0.74871 0.7015 0.0
C324 C 0.29222 0.72783 0.67015 0.0
C325 C 0.28601 0.72751 0.63449 0.0
C326 C 0.28227 0.74801 0.63037 0.0
C327 C 0.28499 0.76887 0.6607 0.0
C328 C 0.29117 0.7692 0.69534 0.0
C329 C 0.31918 0.79194 0.81895 0.0
C330 C 0.32109 0.75424 0.583 0.0
C331 C 0.34056 0.76693 0.77458 0.0
C332 C 0.3472 0.76244 0.80562 0.0
C333 C 0.3501 0.77882 0.85936 0.0
C334 C 0.35662 0.77696 0.8811 0.0
C335 C 0.36045 0.75876 0.84892 0.0
C336 C 0.35746 0.74182 0.79748 0.0
C337 C 0.35091 0.74363 0.77606 0.0
C338 C 0.32493 0.70569 0.74787 0.0
C339 C 0.32086 0.7442 0.94614 0.0
O340 O 0.30439 0.73066 0.76334 0.0
O341 O 0.30435 0.76853 0.74613 0.0
O342 O 0.31436 0.78201 0.85584 0.0
O343 O 0.321 0.78034 0.75507 0.0
O344 O 0.31563 0.75056 0.62377 0.0
O345 O 0.32659 0.75758 0.62327 0.0
O346 O 0.33612 0.77242 0.82985 0.0
O347 O 0.33834 0.75437 0.7119 0.0
O348 O 0.3308 0.71319 0.75588 0.0
O349 O 0.321 0.72245 0.75531 0.0
O350 O 0.32623 0.75045 0.90716 0.0
O351 O 0.31546 0.73987 0.90419 0.0
H352 H 0.29489 0.71169 0.67479 0.0
H353 H 0.28413 0.71114 0.6109 0.0
H354 H 0.28226 0.78493 0.66087 0.0
H355 H 0.29299 0.7855 0.72053 0.0
H356 H 0.34737 0.79354 0.88281 0.0
H357 H 0.35867 0.79006 0.92245 0.0
H358 H 0.36023 0.72762 0.77092 0.0
H359 H 0.34882 0.73072 0.73425 0.0
Nd360 Nd 0.9546 0.49596 0.76392 0.0
Nd361 Nd 0.94044 0.49686 0.75529 0.0
C362 C 0.96735 0.49976 0.75328 0.0
C363 C 0.97338 0.49871 0.70306 0.0
C364 C 0.97583 0.51846 0.66154 0.0
C365 C 0.98203 0.51818 0.62621 0.0
C366 C 0.98596 0.49821 0.63234 0.0
C367 C 0.98341 0.47831 0.67205 0.0
C368 C 0.97722 0.47856 0.70672 0.0
C369 C 0.94896 0.45418 0.80577 0.0
C370 C 0.94751 0.4913 0.57752 0.0
C371 C 0.92768 0.49409 0.76299 0.0
C372 C 0.92132 0.4932 0.80584 0.0
C373 C 0.91828 0.4718 0.82244 0.0
C374 C 0.91181 0.47111 0.84811 0.0
C375 C 0.90822 0.4918 0.85691 0.0
C376 C 0.91135 0.51319 0.84267 0.0
C377 C 0.91781 0.51387 0.81764 0.0
C378 C 0.94618 0.53887 0.71767 0.0
C379 C 0.94747 0.50109 0.94119 0.0
O380 O 0.96345 0.51757 0.74572 0.0
O381 O 0.96431 0.48025 0.768 0.0
O382 O 0.95374 0.46347 0.84605 0.0
O383 O 0.94729 0.4665 0.74319 0.0
O384 O 0.95279 0.49719 0.6194 0.0
O385 O 0.94212 0.48659 0.61787 0.0
O386 O 0.93139 0.47568 0.75969 0.0
O387 O 0.93089 0.51366 0.76352 0.0
O388 O 0.9416 0.52949 0.67391 0.0
O389 O 0.94773 0.52609 0.77944 0.0
O390 O 0.94228 0.49429 0.89937 0.0
O391 O 0.95278 0.50693 0.90053 0.0
H392 H 0.97304 0.53437 0.65843 0.0
H393 H 0.98377 0.53374 0.59509 0.0
H394 H 0.98629 0.46274 0.67972 0.0
H395 H 0.97554 0.46317 0.73967 0.0
H396 H 0.92081 0.45553 0.81283 0.0
H397 H 0.9096 0.45431 0.8597 0.0
H398 H 0.90875 0.52949 0.84715 0.0
H399 H 0.91996 0.53065 0.80371 0.0
Nd400 Nd 0.31311 0.49716 0.56596 0.0
Nd401 Nd 0.32914 0.494 0.5611 0.0
C402 C 0.30108 0.51209 0.57706 0.0
C403 C 0.29483 0.50783 0.61945 0.0
C404 C 0.2917 0.52659 0.65855 0.0
C405 C 0.28549 0.52398 0.69154 0.0
C406 C 0.28222 0.50251 0.68586 0.0
C407 C 0.28547 0.48343 0.64947 0.0
C408 C 0.29171 0.48605 0.61659 0.0
C409 C 0.31754 0.45152 0.55727 0.0
C410 C 0.32123 0.49262 0.74449 0.0
C411 C 0.3411 0.47816 0.55682 0.0
C412 C 0.34766 0.48196 0.52336 0.0
C413 C 0.35111 0.46265 0.49383 0.0
C414 C 0.35757 0.46482 0.47028 0.0
C415 C 0.36076 0.48648 0.47497 0.0
C416 C 0.35722 0.50604 0.50239 0.0
C417 C 0.35073 0.5038 0.52651 0.0
C418 C 0.32493 0.53988 0.56275 0.0
C419 C 0.32096 0.49804 0.38282 0.0
O420 O 0.3058 0.52058 0.62305 0.0
O421 O 0.30302 0.497 0.52029 0.0
O422 O 0.31147 0.45686 0.563 0.0
O423 O 0.32074 0.47007 0.56276 0.0
O424 O 0.31568 0.49732 0.70662 0.0
O425 O 0.32666 0.48844 0.70252 0.0
O426 O 0.33661 0.47118 0.50402 0.0
O427 O 0.33897 0.49261 0.61461 0.0
O428 O 0.33095 0.53384 0.55622 0.0
O429 O 0.32153 0.52164 0.56323 0.0
O430 O 0.32647 0.49261 0.42072 0.0
O431 O 0.31558 0.50318 0.42477 0.0
H432 H 0.294 0.54352 0.66182 0.0
H433 H 0.28322 0.53893 0.72075 0.0
H434 H 0.28311 0.46666 0.64356 0.0
H435 H 0.29401 0.47121 0.58706 0.0
H436 H 0.34886 0.44561 0.49146 0.0
H437 H 0.36012 0.44924 0.45112 0.0
H438 H 0.35945 0.52308 0.50565 0.0
H439 H 0.34817 0.51903 0.54894 0.0
Nd440 Nd 0.95463 0.75093 0.56174 0.0
Nd441 Nd 0.94046 0.7517 0.5698 0.0
C442 C 0.96735 0.74613 0.57206 0.0
C443 C 0.97345 0.74766 0.62097 0.0
C444 C 0.97569 0.72896 0.67006 0.0
C445 C 0.98191 0.72952 0.70506 0.0
C446 C 0.98605 0.74867 0.69103 0.0
C447 C 0.98371 0.7675 0.64331 0.0
C448 C 0.9775 0.767 0.60902 0.0
C449 C 0.9494 0.79315 0.51777 0.0
C450 C 0.9476 0.75705 0.74768 0.0
C451 C 0.92774 0.75585 0.56152 0.0
C452 C 0.92141 0.75644 0.51807 0.0
C453 C 0.91848 0.77771 0.49696 0.0
C454 C 0.91201 0.77836 0.47115 0.0
C455 C 0.90831 0.75778 0.46687 0.0
C456 C 0.91133 0.73647 0.48538 0.0
C457 C 0.91779 0.73581 0.51042 0.0
C458 C 0.94574 0.70923 0.61101 0.0
C459 C 0.94746 0.74592 0.38429 0.0
O460 O 0.96334 0.72884 0.58431 0.0
O461 O 0.96445 0.76559 0.5532 0.0
O462 O 0.95405 0.78307 0.4779 0.0
O463 O 0.94759 0.78125 0.58079 0.0
O464 O 0.95282 0.75051 0.70616 0.0
O465 O 0.94226 0.76234 0.70693 0.0
O466 O 0.93162 0.77386 0.56005 0.0
O467 O 0.93077 0.73598 0.5662 0.0
O468 O 0.9412 0.71942 0.65284 0.0
O469 O 0.94749 0.72144 0.54851 0.0
O470 O 0.94232 0.75334 0.42572 0.0
O471 O 0.9527 0.73959 0.42541 0.0
H472 H 0.97272 0.71366 0.67965 0.0
H473 H 0.9835 0.71481 0.74234 0.0
H474 H 0.98675 0.78234 0.6293 0.0
H475 H 0.97598 0.78149 0.57007 0.0
H476 H 0.92111 0.79395 0.50325 0.0
H477 H 0.90989 0.79507 0.4561 0.0
H478 H 0.90865 0.72028 0.48445 0.0
H479 H 0.91984 0.71915 0.5278 0.0
Nd480 Nd 0.69043 0.2457 0.31817 0.0
Nd481 Nd 0.70454 0.24564 0.30955 0.0
C482 C 0.67771 0.24017 0.31137 0.0
C483 C 0.6713 0.2418 0.2701 0.0
C484 C 0.66885 0.22352 0.22039 0.0
C485 C 0.66238 0.22354 0.1943 0.0
C486 C 0.65818 0.24167 0.2184 0.0
C487 C 0.66072 0.26021 0.26633 0.0
C488 C 0.66718 0.2603 0.29144 0.0
C489 C 0.6958 0.28847 0.35585 0.0
C490 C 0.6975 0.25144 0.13111 0.0
C491 C 0.71731 0.24761 0.32218 0.0
C492 C 0.72335 0.24832 0.37241 0.0
C493 C 0.72606 0.26947 0.39998 0.0
C494 C 0.73228 0.27003 0.43492 0.0
C495 C 0.73597 0.24949 0.44218 0.0
C496 C 0.73315 0.22831 0.41648 0.0
C497 C 0.72694 0.22775 0.38233 0.0
C498 C 0.69892 0.20358 0.26916 0.0
C499 C 0.69762 0.24173 0.49498 0.0
O500 O 0.68178 0.22374 0.29034 0.0
O501 O 0.68056 0.25938 0.33512 0.0
O502 O 0.69111 0.27892 0.39709 0.0
O503 O 0.69758 0.27567 0.29498 0.0
O504 O 0.69221 0.24555 0.17274 0.0
O505 O 0.70296 0.25567 0.17119 0.0
O506 O 0.7137 0.26621 0.31463 0.0
O507 O 0.71398 0.22829 0.32226 0.0
O508 O 0.70346 0.21337 0.22599 0.0
O509 O 0.69736 0.21589 0.33226 0.0
O510 O 0.70258 0.25019 0.45286 0.0
O511 O 0.6925 0.23399 0.45429 0.0
H512 H 0.67187 0.20883 0.20372 0.0
H513 H 0.66067 0.20913 0.15625 0.0
H514 H 0.65768 0.27429 0.28801 0.0
H515 H 0.66887 0.27443 0.33115 0.0
H516 H 0.72346 0.28568 0.39238 0.0
H517 H 0.73423 0.28664 0.45512 0.0
H518 H 0.73584 0.21217 0.41923 0.0
H519 H 0.72506 0.2112 0.36021 0.0
Nd520 Nd 0.07801 0.50162 0.3209 0.0
Nd521 Nd 0.06381 0.50186 0.31132 0.0
C522 C 0.09077 0.50547 0.3137 0.0
C523 C 0.0972 0.50532 0.27247 0.0
C524 C 0.09982 0.52535 0.23462 0.0
C525 C 0.10629 0.52579 0.20873 0.0
C526 C 0.11034 0.50633 0.22134 0.0
C527 C 0.10763 0.4862 0.25763 0.0
C528 C 0.10117 0.48569 0.28234 0.0
C529 C 0.07241 0.45914 0.35991 0.0
C530 C 0.07107 0.4964 0.13431 0.0
C531 C 0.05106 0.49845 0.32161 0.0
C532 C 0.04501 0.49894 0.37158 0.0
C533 C 0.04259 0.47893 0.41169 0.0
C534 C 0.03639 0.47896 0.44719 0.0
C535 C 0.03244 0.49892 0.4426 0.0
C536 C 0.03496 0.51903 0.40402 0.0
C537 C 0.04115 0.51904 0.36927 0.0
C538 C 0.06933 0.54343 0.26584 0.0
C539 C 0.07081 0.50684 0.49786 0.0
O540 O 0.08692 0.52344 0.30773 0.0
O541 O 0.0877 0.48574 0.32176 0.0
O542 O 0.07715 0.4686 0.40044 0.0
O543 O 0.07077 0.47191 0.29844 0.0
O544 O 0.07627 0.50283 0.17662 0.0
O545 O 0.06568 0.49106 0.17427 0.0
O546 O 0.05488 0.48031 0.32452 0.0
O547 O 0.05417 0.51805 0.31206 0.0
O548 O 0.06462 0.53352 0.22615 0.0
O549 O 0.07104 0.5317 0.32993 0.0
O550 O 0.06561 0.50046 0.45547 0.0
O551 O 0.07619 0.51218 0.458 0.0
H552 H 0.09692 0.54089 0.22703 0.0
H553 H 0.10813 0.54152 0.1798 0.0
H554 H 0.11054 0.471 0.27056 0.0
H555 H 0.09935 0.47013 0.31292 0.0
H556 H 0.0454 0.46306 0.41373 0.0
H557 H 0.03466 0.46322 0.47735 0.0
H558 H 0.03207 0.5346 0.39737 0.0
H559 H 0.04281 0.53462 0.33735 0.0
Nd560 Nd 0.68997 0.49817 0.5061 0.0
Nd561 Nd 0.70506 0.50107 0.50941 0.0
C562 C 0.67728 0.49882 0.51798 0.0
C563 C 0.6709 0.5013 0.55892 0.0
C564 C 0.66794 0.52314 0.56858 0.0
C565 C 0.66147 0.52464 0.59372 0.0
C566 C 0.65782 0.50433 0.60882 0.0
C567 C 0.66088 0.48258 0.60129 0.0
C568 C 0.66733 0.48111 0.57688 0.0
C569 C 0.69639 0.45795 0.46441 0.0
C570 C 0.69755 0.49839 0.69005 0.0
C571 C 0.71736 0.48909 0.49829 0.0
C572 C 0.7236 0.49375 0.45549 0.0
C573 C 0.72574 0.47859 0.39177 0.0
C574 C 0.73197 0.48054 0.35898 0.0
C575 C 0.73627 0.49759 0.38954 0.0
C576 C 0.73404 0.51336 0.45106 0.0
C577 C 0.72778 0.51144 0.48377 0.0
C578 C 0.70019 0.5458 0.52274 0.0
C579 C 0.6973 0.50572 0.32711 0.0
O580 O 0.68064 0.51719 0.49557 0.0
O581 O 0.68079 0.48055 0.53588 0.0
O582 O 0.69136 0.46564 0.42518 0.0
O583 O 0.69792 0.47135 0.52485 0.0
O584 O 0.69205 0.50116 0.64875 0.0
O585 O 0.70312 0.49548 0.65061 0.0
O586 O 0.71276 0.47923 0.45395 0.0
O587 O 0.71519 0.5043 0.55313 0.0
O588 O 0.70629 0.54116 0.51665 0.0
O589 O 0.69699 0.52726 0.51539 0.0
O590 O 0.70279 0.50138 0.36686 0.0
O591 O 0.69179 0.50845 0.36803 0.0
H592 H 0.67055 0.53902 0.5543 0.0
H593 H 0.65931 0.54171 0.60004 0.0
H594 H 0.65823 0.46652 0.61063 0.0
H595 H 0.66943 0.464 0.56829 0.0
H596 H 0.72266 0.46467 0.36893 0.0
H597 H 0.73346 0.46837 0.3105 0.0
H598 H 0.73721 0.5266 0.47669 0.0
H599 H 0.72631 0.52331 0.53331 0.0
Nd600 Nd 0.07803 0.24205 0.50411 0.0
Nd601 Nd 0.06404 0.24719 0.51136 0.0
C602 C 0.09038 0.23032 0.51832 0.0
C603 C 0.09681 0.23533 0.55495 0.0
C604 C 0.0995 0.2198 0.61367 0.0
C605 C 0.10597 0.22182 0.63778 0.0
C606 C 0.10991 0.23931 0.60307 0.0
C607 C 0.10717 0.25538 0.54675 0.0
C608 C 0.10069 0.25344 0.52301 0.0
C609 C 0.07431 0.28723 0.47005 0.0
C610 C 0.07116 0.25112 0.68965 0.0
C611 C 0.05139 0.25404 0.49898 0.0
C612 C 0.04537 0.25246 0.44853 0.0
C613 C 0.04211 0.27288 0.42509 0.0
C614 C 0.03585 0.27181 0.39198 0.0
C615 C 0.03268 0.25025 0.38188 0.0
C616 C 0.03607 0.22977 0.40196 0.0
C617 C 0.04232 0.23084 0.43498 0.0
C618 C 0.06839 0.20329 0.55184 0.0
C619 C 0.07083 0.2392 0.32675 0.0
O620 O 0.08586 0.22163 0.56641 0.0
O621 O 0.08814 0.24452 0.46125 0.0
O622 O 0.07899 0.2762 0.43425 0.0
O623 O 0.07179 0.27488 0.5278 0.0
O624 O 0.07623 0.24304 0.64844 0.0
O625 O 0.06598 0.25804 0.64829 0.0
O626 O 0.05563 0.27041 0.48333 0.0
O627 O 0.05405 0.23461 0.5234 0.0
O628 O 0.06411 0.21468 0.59399 0.0
O629 O 0.07034 0.21494 0.48901 0.0
O630 O 0.06597 0.24872 0.36782 0.0
O631 O 0.07574 0.23042 0.36876 0.0
H632 H 0.09667 0.20547 0.63835 0.0
H633 H 0.10795 0.20905 0.68076 0.0
H634 H 0.11006 0.26924 0.51987 0.0
H635 H 0.09879 0.26565 0.47726 0.0
H636 H 0.04429 0.28979 0.43589 0.0
H637 H 0.03339 0.28798 0.37799 0.0
H638 H 0.03384 0.21283 0.39355 0.0
H639 H 0.04465 0.21471 0.45277 0.0
Nd640 Nd 0.81391 0.25201 0.76287 0.0
Nd641 Nd 0.8281 0.24991 0.75408 0.0
C642 C 0.80114 0.24996 0.7514 0.0
C643 C 0.79512 0.24945 0.70081 0.0
C644 C 0.79241 0.22836 0.67257 0.0
C645 C 0.7862 0.22786 0.63749 0.0
C646 C 0.78251 0.2484 0.63068 0.0
C647 C 0.78532 0.26954 0.65689 0.0
C648 C 0.79153 0.27004 0.69125 0.0
C649 C 0.81974 0.29277 0.81221 0.0
C650 C 0.821 0.25598 0.57643 0.0
C651 C 0.84087 0.25141 0.76254 0.0
C652 C 0.84729 0.25323 0.80362 0.0
C653 C 0.85025 0.27494 0.81775 0.0
C654 C 0.85674 0.27621 0.84256 0.0
C655 C 0.86044 0.25581 0.85294 0.0
C656 C 0.85739 0.23414 0.84089 0.0
C657 C 0.85091 0.23288 0.81676 0.0
C658 C 0.82207 0.20861 0.71215 0.0
C659 C 0.82107 0.24615 0.94024 0.0
O660 O 0.80478 0.23137 0.75686 0.0
O661 O 0.80444 0.26935 0.75326 0.0
O662 O 0.81486 0.28338 0.84962 0.0
O663 O 0.82145 0.28106 0.74798 0.0
O664 O 0.8157 0.25072 0.61861 0.0
O665 O 0.82647 0.25994 0.61628 0.0
O666 O 0.83733 0.26995 0.7497 0.0
O667 O 0.83749 0.2324 0.77268 0.0
O668 O 0.82679 0.21772 0.67028 0.0
O669 O 0.8206 0.2212 0.77479 0.0
O670 O 0.82632 0.25212 0.89815 0.0
O671 O 0.81564 0.24139 0.90014 0.0
H672 H 0.79501 0.21213 0.67983 0.0
H673 H 0.78425 0.21128 0.61686 0.0
H674 H 0.78264 0.28568 0.6544 0.0
H675 H 0.79341 0.28654 0.71383 0.0
H676 H 0.84762 0.29096 0.80716 0.0
H677 H 0.85887 0.29322 0.85245 0.0
H678 H 0.86006 0.21803 0.84654 0.0
H679 H 0.84882 0.21588 0.80467 0.0
Nd680 Nd 0.4548 0.99616 0.76335 0.0
Nd681 Nd 0.44065 0.9952 0.75228 0.0
C682 C 0.46753 0.00137 0.75351 0.0
C683 C 0.47363 -0.00052 0.70483 0.0
C684 C 0.47597 0.01813 0.65613 0.0
C685 C 0.48223 0.01752 0.62253 0.0
C686 C 0.4863 0.99832 0.63743 0.0
C687 C 0.48384 0.97934 0.68338 0.0
C688 C 0.47761 0.97995 0.7168 0.0
C689 C 0.44955 0.95355 0.8021 0.0
C690 C 0.44793 0.99033 0.57625 0.0
C691 C 0.42792 0.98994 0.7584 0.0
C692 C 0.42152 0.99156 0.79995 0.0
C693 C 0.4191 0.97348 0.85064 0.0
C694 C 0.41264 0.97364 0.8773 0.0
C695 C 0.40843 0.9917 0.85279 0.0
C696 C 0.41095 0.01002 0.80379 0.0
C697 C 0.41739 0.00997 0.77816 0.0
C698 C 0.44598 0.03823 0.7188 0.0
C699 C 0.44747 0.00085 0.9396 0.0
O700 O 0.46347 0.01829 0.73808 0.0
O701 O 0.46466 0.98209 0.77585 0.0
O702 O 0.45415 0.96343 0.84392 0.0
O703 O 0.4478 0.96584 0.73973 0.0
O704 O 0.45305 0.99747 0.6189 0.0
O705 O 0.44263 0.98411 0.61611 0.0
O706 O 0.43194 0.97322 0.77756 0.0
O707 O 0.4308 0.00923 0.73682 0.0
O708 O 0.4415 0.02852 0.67419 0.0
O709 O 0.44762 0.02533 0.77987 0.0
O710 O 0.44233 0.9939 0.89685 0.0
O711 O 0.4528 0.00701 0.89989 0.0
H712 H 0.47306 0.03356 0.64656 0.0
H713 H 0.48397 0.03252 0.58793 0.0
H714 H 0.48677 0.96406 0.69482 0.0
H715 H 0.476 0.96538 0.75476 0.0
H716 H 0.42213 0.95887 0.86775 0.0
H717 H 0.41095 0.9594 0.91615 0.0
H718 H 0.4079 0.02402 0.7817 0.0
H719 H 0.41906 0.02395 0.73772 0.0
Nd720 Nd 0.81408 0.99806 0.56022 0.0
Nd721 Nd 0.82823 0.99405 0.57075 0.0
C722 C 0.80146 0.00576 0.5721 0.0
C723 C 0.79542 0.00319 0.62178 0.0
C724 C 0.79258 0.02273 0.6601 0.0
C725 C 0.78635 0.02143 0.69386 0.0
C726 C 0.78278 0.00054 0.68975 0.0
C727 C 0.78574 0.98076 0.65451 0.0
C728 C 0.79196 0.98207 0.62081 0.0
C729 C 0.81858 0.95445 0.51983 0.0
C730 C 0.82088 0.99036 0.74697 0.0
C731 C 0.84086 0.98646 0.56259 0.0
C732 C 0.84717 0.98728 0.51842 0.0
C733 C 0.85049 0.96647 0.50196 0.0
C734 C 0.85696 0.96689 0.47661 0.0
C735 C 0.86028 0.98817 0.46736 0.0
C736 C 0.85684 0.00902 0.48004 0.0
C737 C 0.85038 0.0086 0.50541 0.0
C738 C 0.82367 0.03794 0.60754 0.0
C739 C 0.82146 0.00154 0.38417 0.0
O740 O 0.8058 0.02113 0.59489 0.0
O741 O 0.804 0.98697 0.54009 0.0
O742 O 0.81407 0.96525 0.47979 0.0
O743 O 0.82059 0.96628 0.58228 0.0
O744 O 0.81588 -0.00148 0.70457 0.0
O745 O 0.82607 0.98309 0.7069 0.0
O746 O 0.8366 0.97044 0.54381 0.0
O747 O 0.83826 0.00611 0.58585 0.0
O748 O 0.82806 0.02715 0.65007 0.0
O749 O 0.82173 0.02572 0.54582 0.0
O750 O 0.82643 0.99307 0.42651 0.0
O751 O 0.81632 0.00929 0.42442 0.0
H752 H 0.79508 0.03933 0.66085 0.0
H753 H 0.78422 0.0371 0.71979 0.0
H754 H 0.78321 0.96425 0.65165 0.0
H755 H 0.79396 0.96665 0.5913 0.0
H756 H 0.84818 0.9498 0.51267 0.0
H757 H 0.85944 0.95046 0.4683 0.0
H758 H 0.85918 0.02575 0.47198 0.0
H759 H 0.84799 0.025 0.51802 0.0
Nd760 Nd 0.45462 0.25067 0.56121 0.0
Nd761 Nd 0.4405 0.25094 0.56949 0.0
C762 C 0.46736 0.24661 0.57178 0.0
C763 C 0.47341 0.24736 0.62172 0.0
C764 C 0.4758 0.22751 0.66308 0.0
C765 C 0.48201 0.22759 0.69819 0.0
C766 C 0.486 0.24742 0.6919 0.0
C767 C 0.48351 0.26741 0.65232 0.0
C768 C 0.47731 0.26737 0.61795 0.0
C769 C 0.44931 0.2927 0.51606 0.0
C770 C 0.4476 0.25628 0.74734 0.0
C771 C 0.42776 0.25459 0.56074 0.0
C772 C 0.42144 0.25581 0.51721 0.0
C773 C 0.41815 0.27713 0.51078 0.0
C774 C 0.41167 0.27773 0.48593 0.0
C775 C 0.40831 0.257 0.46741 0.0
C776 C 0.4117 0.2358 0.47022 0.0
C777 C 0.41817 0.2352 0.49501 0.0
C778 C 0.44588 0.20861 0.61124 0.0
C779 C 0.44748 0.2455 0.38383 0.0
O780 O 0.46344 0.22879 0.57793 0.0
O781 O 0.46436 0.26624 0.55878 0.0
O782 O 0.45395 0.28255 0.47605 0.0
O783 O 0.44753 0.28091 0.57956 0.0
O784 O 0.45282 0.24978 0.70565 0.0
O785 O 0.44225 0.26151 0.70671 0.0
O786 O 0.43157 0.27277 0.5644 0.0
O787 O 0.43087 0.23483 0.56066 0.0
O788 O 0.44132 0.21872 0.65316 0.0
O789 O 0.44758 0.22085 0.54859 0.0
O790 O 0.44234 0.25284 0.42538 0.0
O791 O 0.45275 0.23935 0.42483 0.0
H792 H 0.47295 0.21171 0.66627 0.0
H793 H 0.48371 0.21196 0.72923 0.0
H794 H 0.48644 0.28288 0.64448 0.0
H795 H 0.47568 0.28282 0.58508 0.0
H796 H 0.4205 0.29326 0.52877 0.0
H797 H 0.40921 0.29436 0.48526 0.0
H798 H 0.40932 0.21952 0.45495 0.0
H799 H 0.42051 0.21842 0.50014 0.0
Nd800 Nd 0.19031 0.7453 0.32086 0.0
Nd801 Nd 0.20437 0.74673 0.31028 0.0
C802 C 0.17762 0.73907 0.31379 0.0
C803 C 0.17126 0.74096 0.27151 0.0
C804 C 0.16867 0.72228 0.22511 0.0
C805 C 0.16221 0.72264 0.19867 0.0
C806 C 0.15816 0.74155 0.21914 0.0
C807 C 0.16085 0.76048 0.26349 0.0
C808 C 0.1673 0.76022 0.28893 0.0
C809 C 0.19535 0.78855 0.35919 0.0
C810 C 0.1971 0.75206 0.13365 0.0
C811 C 0.21711 0.75111 0.32069 0.0
C812 C 0.22314 0.75004 0.37117 0.0
C813 C 0.22581 0.77018 0.40782 0.0
C814 C 0.23202 0.76971 0.44301 0.0
C815 C 0.23574 0.74915 0.44157 0.0
C816 C 0.23296 0.72891 0.40685 0.0
C817 C 0.22676 0.72934 0.37233 0.0
C818 C 0.19918 0.70423 0.26781 0.0
C819 C 0.19757 0.74056 0.497 0.0
O820 O 0.18174 0.72296 0.2915 0.0
O821 O 0.1804 0.7582 0.33944 0.0
O822 O 0.19084 0.77821 0.40113 0.0
O823 O 0.19718 0.77616 0.29738 0.0
O824 O 0.19193 0.74539 0.17605 0.0
O825 O 0.20248 0.75755 0.1736 0.0
O826 O 0.21317 0.76877 0.32878 0.0
O827 O 0.21412 0.73155 0.30528 0.0
O828 O 0.20364 0.71473 0.22552 0.0
O829 O 0.19749 0.71599 0.33187 0.0
O830 O 0.20264 0.74814 0.45466 0.0
O831 O 0.19232 0.73397 0.45668 0.0
H832 H 0.17156 0.70703 0.21157 0.0
H833 H 0.16038 0.70788 0.16339 0.0
H834 H 0.15792 0.77518 0.28228 0.0
H835 H 0.16908 0.77473 0.326 0.0
H836 H 0.22319 0.78648 0.40707 0.0
H837 H 0.23394 0.78558 0.47025 0.0
H838 H 0.23568 0.71284 0.40287 0.0
H839 H 0.22492 0.71359 0.3432 0.0
Nd840 Nd 0.57821 0.00191 0.32015 0.0
Nd841 Nd 0.56403 0.00011 0.31106 0.0
C842 C 0.59093 0.00699 0.31188 0.0
C843 C 0.59726 0.00728 0.26813 0.0
C844 C 0.60056 0.02843 0.25628 0.0
C845 C 0.60704 0.02858 0.2313 0.0
C846 C 0.61039 0.00756 0.21801 0.0
C847 C 0.60699 0.98646 0.22624 0.0
C848 C 0.60052 0.98632 0.25115 0.0
C849 C 0.5731 0.95895 0.35973 0.0
C850 C 0.57127 0.99543 0.13431 0.0
C851 C 0.55131 0.99473 0.32133 0.0
C852 C 0.54521 0.99664 0.36985 0.0
C853 C 0.54284 0.97795 0.41815 0.0
C854 C 0.53657 0.97862 0.45166 0.0
C855 C 0.53252 0.9979 0.43701 0.0
C856 C 0.53501 0.01689 0.39138 0.0
C857 C 0.54124 0.01623 0.35809 0.0
C858 C 0.56912 0.04267 0.26836 0.0
C859 C 0.571 0.00665 0.49738 0.0
O860 O 0.58695 0.02462 0.30617 0.0
O861 O 0.58799 0.98704 0.32125 0.0
O862 O 0.57758 0.96937 0.40227 0.0
O863 O 0.57131 0.97118 0.29751 0.0
O864 O 0.57633 0.00354 0.17598 0.0
O865 O 0.56608 0.98841 0.17528 0.0
O866 O 0.55538 0.97787 0.33687 0.0
O867 O 0.55416 0.01403 0.29886 0.0
O868 O 0.56453 0.03234 0.22784 0.0
O869 O 0.57094 0.03087 0.33154 0.0
O870 O 0.56586 -0.00066 0.45551 0.0
O871 O 0.57629 0.01283 0.45686 0.0
H872 H 0.59822 0.04485 0.27018 0.0
H873 H 0.6095 0.04517 0.22641 0.0
H874 H 0.60935 0.96994 0.21504 0.0
H875 H 0.59816 0.96966 0.26041 0.0
H876 H 0.54573 0.96247 0.42751 0.0
H877 H 0.53482 0.9636 0.48599 0.0
H878 H 0.53209 0.03222 0.38013 0.0
H879 H 0.54287 0.03083 0.3204 0.0
Nd880 Nd 0.19062 0.00303 0.50224 0.0
Nd881 Nd 0.20479 0.00096 0.51023 0.0
C882 C 0.17792 0.00903 0.51068 0.0
C883 C 0.17157 0.00768 0.55362 0.0
C884 C 0.16854 0.02804 0.58288 0.0
C885 C 0.16206 0.02767 0.60787 0.0
C886 C 0.15843 0.00693 0.60376 0.0
C887 C 0.16155 0.98638 0.57789 0.0
C888 C 0.16802 0.98676 0.55293 0.0
C889 C 0.19566 0.95956 0.46712 0.0
C890 C 0.19758 0.99643 0.68812 0.0
C891 C 0.21747 0.9951 0.49781 0.0
C892 C 0.22346 0.99568 0.44652 0.0
C893 C 0.22659 0.97483 0.4247 0.0
C894 C 0.23282 0.97517 0.39059 0.0
C895 C 0.2361 0.9964 0.37781 0.0
C896 C 0.23285 0.01728 0.39638 0.0
C897 C 0.22663 0.01693 0.43046 0.0
C898 C 0.19995 0.04354 0.55663 0.0
C899 C 0.19776 0.00764 0.32499 0.0
O900 O 0.18205 0.02552 0.52951 0.0
O901 O 0.1807 0.98966 0.48784 0.0
O902 O 0.19122 0.96961 0.4231 0.0
O903 O 0.19743 0.97239 0.52776 0.0
O904 O 0.19242 0.00366 0.6466 0.0
O905 O 0.20285 0.99019 0.64721 0.0
O906 O 0.21335 0.97795 0.489 0.0
O907 O 0.21469 0.0149 0.51525 0.0
O908 O 0.20462 0.03285 0.594 0.0
O909 O 0.19794 0.03212 0.49298 0.0
O910 O 0.20284 -0.0002 0.3663 0.0
O911 O 0.19257 0.01438 0.36621 0.0
H912 H 0.1711 0.04451 0.58285 0.0
H913 H 0.15982 0.0439 0.62663 0.0
H914 H 0.15897 0.96998 0.57535 0.0
H915 H 0.17016 0.97076 0.5299 0.0
H916 H 0.22433 0.95817 0.43744 0.0
H917 H 0.23518 0.95871 0.37789 0.0
H918 H 0.23515 0.03398 0.38593 0.0
H919 H 0.2244 0.03337 0.44707 0.0
Nd920 Nd 0.57826 0.74603 0.50415 0.0
Nd921 Nd 0.56415 0.74653 0.51503 0.0
C922 C 0.59102 0.74248 0.51129 0.0
C923 C 0.59736 0.74112 0.55442 0.0
C924 C 0.60071 0.71988 0.558 0.0
C925 C 0.60718 0.71925 0.58332 0.0
C926 C 0.61047 0.73989 0.6051 0.0
C927 C 0.60704 0.76101 0.60428 0.0
C928 C 0.60057 0.76162 0.57929 0.0
C929 C 0.57287 0.78858 0.46563 0.0
C930 C 0.57147 0.75121 0.69094 0.0
C931 C 0.55141 0.7509 0.50563 0.0
C932 C 0.54534 0.74956 0.45596 0.0
C933 C 0.54295 0.76894 0.41176 0.0
C934 C 0.53671 0.76855 0.37739 0.0
C935 C 0.53272 0.74884 0.38704 0.0
C936 C 0.53523 0.72921 0.42845 0.0
C937 C 0.54144 0.72959 0.46264 0.0
C938 C 0.56945 0.70435 0.55803 0.0
C939 C 0.57101 0.74116 0.32752 0.0
O940 O 0.58721 0.72428 0.50685 0.0
O941 O 0.58789 0.7622 0.51292 0.0
O942 O 0.57733 0.77855 0.42185 0.0
O943 O 0.57124 0.77615 0.528 0.0
O944 O 0.57651 0.74344 0.64827 0.0
O945 O 0.56621 0.75797 0.65097 0.0
O946 O 0.55537 0.76845 0.49556 0.0
O947 O 0.55437 0.73142 0.52242 0.0
O948 O 0.56485 0.71445 0.59889 0.0
O949 O 0.57117 0.71621 0.49441 0.0
O950 O 0.56585 0.74773 0.37037 0.0
O951 O 0.57639 0.73565 0.36698 0.0
H952 H 0.5984 0.70383 0.53812 0.0
H953 H 0.60964 0.70262 0.58437 0.0
H954 H 0.60942 0.7773 0.61935 0.0
H955 H 0.59819 0.77837 0.57583 0.0
H956 H 0.5458 0.7847 0.40635 0.0
H957 H 0.53493 0.78406 0.34641 0.0
H958 H 0.53236 0.71356 0.43575 0.0
H959 H 0.54309 0.71444 0.49708 0.0
Nd960 Nd 0.81404 0.75181 0.26337 0.0
Nd961 Nd 0.82817 0.75058 0.25547 0.0
C962 C 0.80129 0.74929 0.25133 0.0
C963 C 0.79529 0.74886 0.20025 0.0
C964 C 0.7924 0.72771 0.17603 0.0
C965 C 0.7862 0.72742 0.1408 0.0
C966 C 0.78271 0.74826 0.12985 0.0
C967 C 0.7857 0.76942 0.15202 0.0
C968 C 0.7919 0.7697 0.18651 0.0
C969 C 0.81967 0.79284 0.31405 0.0
C970 C 0.82112 0.7567 0.07727 0.0
C971 C 0.84091 0.75296 0.26505 0.0
C972 C 0.84725 0.75453 0.30795 0.0
C973 C 0.85062 0.77578 0.31112 0.0
C974 C 0.85712 0.7764 0.33528 0.0
C975 C 0.86041 0.75575 0.35628 0.0
C976 C 0.85693 0.73468 0.35689 0.0
C977 C 0.85045 0.73407 0.3328 0.0
C978 C 0.8225 0.70905 0.20929 0.0
C979 C 0.82112 0.74573 0.44131 0.0
O980 O 0.80497 0.73081 0.25578 0.0
O981 O 0.80454 0.76877 0.25457 0.0
O982 O 0.81488 0.78293 0.35168 0.0
O983 O 0.82142 0.78142 0.24939 0.0
O984 O 0.81581 0.75134 0.11904 0.0
O985 O 0.82658 0.76062 0.11749 0.0
O986 O 0.83729 0.77142 0.25512 0.0
O987 O 0.83762 0.73362 0.27119 0.0
O988 O 0.8272 0.71895 0.1694 0.0
O989 O 0.82081 0.72108 0.27267 0.0
O990 O 0.8264 0.75166 0.39968 0.0
O991 O 0.8157 0.74122 0.40088 0.0
H992 H 0.79485 0.71131 0.18671 0.0
H993 H 0.7841 0.7108 0.12339 0.0
H994 H 0.78316 0.7858 0.1463 0.0
H995 H 0.79391 0.78629 0.20594 0.0
H996 H 0.84833 0.79179 0.2911 0.0
H997 H 0.85964 0.79292 0.33337 0.0
H998 H 0.85926 0.71849 0.37419 0.0
H999 H 0.84804 0.71733 0.33018 0.0
Nd1000 Nd 0.45484 0.49754 0.2631 0.0
Nd1001 Nd 0.44074 0.49549 0.25524 0.0
C1002 C 0.46752 0.50376 0.25127 0.0
C1003 C 0.47355 0.50173 0.2014 0.0
C1004 C 0.47592 0.52048 0.15351 0.0
C1005 C 0.48211 0.51961 0.11806 0.0
C1006 C 0.48611 0.50005 0.13045 0.0
C1007 C 0.48365 0.48112 0.17668 0.0
C1008 C 0.47747 0.48194 0.21141 0.0
C1009 C 0.45003 0.45501 0.31165 0.0
C1010 C 0.44784 0.48998 0.07721 0.0
C1011 C 0.42801 0.49143 0.26483 0.0
C1012 C 0.4217 0.49066 0.30883 0.0
C1013 C 0.41849 0.46937 0.32138 0.0
C1014 C 0.41203 0.46897 0.34739 0.0
C1015 C 0.40861 0.48986 0.36058 0.0
C1016 C 0.41192 0.5111 0.35087 0.0
C1017 C 0.41837 0.51149 0.32548 0.0
C1018 C 0.44577 0.53824 0.21151 0.0
C1019 C 0.44768 0.5022 0.44043 0.0
O1020 O 0.46336 0.52024 0.23461 0.0
O1021 O 0.46478 0.48449 0.27608 0.0
O1022 O 0.45469 0.46589 0.3486 0.0
O1023 O 0.448 0.4662 0.24777 0.0
O1024 O 0.45305 0.49676 0.11866 0.0
O1025 O 0.4425 0.48468 0.11807 0.0
O1026 O 0.43185 0.47332 0.26334 0.0
O1027 O 0.43109 0.51124 0.26233 0.0
O1028 O 0.44135 0.5273 0.1697 0.0
O1029 O 0.44758 0.52652 0.27494 0.0
O1030 O 0.44263 0.49397 0.39911 0.0
O1031 O 0.45284 0.50928 0.39901 0.0
H1032 H 0.47307 0.53611 0.14544 0.0
H1033 H 0.4838 0.53441 0.0819 0.0
H1034 H 0.48658 0.46594 0.18934 0.0
H1035 H 0.47586 0.46734 0.2493 0.0
H1036 H 0.42089 0.45303 0.30802 0.0
H1037 H 0.40969 0.45226 0.3555 0.0
H1038 H 0.40945 0.52756 0.35895 0.0
H1039 H 0.42064 0.52825 0.31495 0.0
Nd1040 Nd 0.81387 0.49577 0.06145 0.0
Nd1041 Nd 0.82807 0.4959 0.06958 0.0
C1042 C 0.80116 0.50041 0.072 0.0
C1043 C 0.79509 0.49954 0.12147 0.0
C1044 C 0.79318 0.51787 0.17475 0.0
C1045 C 0.787 0.51791 0.21106 0.0
C1046 C 0.78259 0.49976 0.1942 0.0
C1047 C 0.7846 0.48129 0.14207 0.0
C1048 C 0.79076 0.48117 0.10655 0.0
C1049 C 0.81923 0.45388 1.01646 0.0
C1050 C 0.82098 0.49048 0.24745 0.0
C1051 C 0.84082 0.49247 0.06154 0.0
C1052 C 0.84717 0.49162 1.01869 0.0
C1053 C 0.85041 0.47031 1.0086 0.0
C1054 C 0.85691 0.46986 0.98413 0.0
C1055 C 0.86032 0.49071 0.96967 0.0
C1056 C 0.85697 0.51194 0.9763 0.0
C1057 C 0.8505 0.51239 1.00072 0.0
C1058 C 0.82248 0.53822 0.10672 0.0
C1059 C 0.82103 0.50067 0.88395 0.0
O1060 O 0.80516 0.51791 0.08098 0.0
O1061 O 0.80406 0.48073 0.05633 0.0
O1062 O 0.81445 0.46363 0.97794 0.0
O1063 O 0.82106 0.46585 0.0795 0.0
O1064 O 0.81572 0.49659 0.20584 0.0
O1065 O 0.82635 0.4856 0.20689 0.0
O1066 O 0.83702 0.47423 0.06287 0.0
O1067 O 0.8377 0.5122 0.06325 0.0
O1068 O 0.82702 0.52874 0.15081 0.0
O1069 O 0.8209 0.52538 0.0452 0.0
O1070 O 0.82622 0.49367 0.92553 0.0
O1071 O 0.81575 0.50671 0.92483 0.0
H1072 H 0.79638 0.53241 0.18688 0.0
H1073 H 0.78568 0.5323 0.25174 0.0
H1074 H 0.78135 0.46723 0.12573 0.0
H1075 H 0.79204 0.46701 0.06449 0.0
H1076 H 0.84803 0.45402 1.02333 0.0
H1077 H 0.85933 0.45318 0.98048 0.0
H1078 H 0.85939 0.52834 0.96421 0.0
H1079 H 0.84819 0.52916 1.00882 0.0
Nd1080 Nd 0.45494 0.75143 0.06221 0.0
Nd1081 Nd 0.44072 0.7512 0.06864 0.0
C1082 C 0.46765 0.74667 0.07489 0.0
C1083 C 0.4737 0.74781 0.12495 0.0
C1084 C 0.47604 0.72836 0.1692 0.0
C1085 C 0.48228 0.72856 0.20374 0.0
C1086 C 0.48632 0.74814 0.19414 0.0
C1087 C 0.48385 0.76786 0.15273 0.0
C1088 C 0.47765 0.76766 0.11841 0.0
C1089 C 0.44967 0.793 1.01301 0.0
C1090 C 0.44773 0.75741 0.24727 0.0
C1091 C 0.42796 0.75411 0.06041 0.0
C1092 C 0.42148 0.75367 1.0207 0.0
C1093 C 0.41894 0.7729 0.97712 0.0
C1094 C 0.41246 0.77301 0.95116 0.0
C1095 C 0.40834 0.75404 0.96932 0.0
C1096 C 0.41097 0.73474 1.01183 0.0
C1097 C 0.41743 0.73455 1.03672 0.0
C1098 C 0.44634 0.70909 0.10801 0.0
C1099 C 0.44784 0.74601 0.8836 0.0
O1100 O 0.46363 0.72923 0.08428 0.0
O1101 O 0.46475 0.76626 0.05758 0.0
O1102 O 0.45454 0.78305 0.9773 0.0
O1103 O 0.4477 0.78151 0.07659 0.0
O1104 O 0.45304 0.75157 0.20637 0.0
O1105 O 0.44235 0.76186 0.20608 0.0
O1106 O 0.43172 0.7724 0.05511 0.0
O1107 O 0.43111 0.73456 0.06748 0.0
O1108 O 0.44179 0.71874 0.15134 0.0
O1109 O 0.44794 0.72169 0.04604 0.0
O1110 O 0.44257 0.75234 0.9246 0.0
O1111 O 0.45317 0.74068 0.92485 0.0
H1112 H 0.47316 0.71268 0.17448 0.0
H1113 H 0.48402 0.713 0.23478 0.0
H1114 H 0.48676 0.78342 0.14548 0.0
H1115 H 0.47604 0.78286 0.08391 0.0
H1116 H 0.42192 0.78804 0.96467 0.0
H1117 H 0.41068 0.78809 0.91752 0.0
H1118 H 0.40799 0.72001 1.02911 0.0
H1119 H 0.41919 0.71967 0.07184 0.0
Nd1120 Nd 0.19004 0.24821 0.81299 0.0
Nd1121 Nd 0.2051 0.24702 0.81314 0.0
C1122 C 0.1776 0.2458 0.78405 0.0
C1123 C 0.17064 0.24437 0.76772 0.0
C1124 C 0.16807 0.22525 0.72387 0.0
C1125 C 0.16151 0.22453 0.70363 0.0
C1126 C 0.1574 0.24273 0.72852 0.0
C1127 C 0.15998 0.26174 0.77324 0.0
C1128 C 0.16657 0.26268 0.79188 0.0
C1129 C 0.19602 0.28913 0.85643 0.0
C1130 C 0.19791 0.24873 0.63129 0.0
C1131 C 0.21733 0.25973 0.8271 0.0
C1132 C 0.22358 0.2546 0.86876 0.0
C1133 C 0.22571 0.26876 0.93563 0.0
C1134 C 0.23194 0.26646 0.96802 0.0
C1135 C 0.23626 0.25008 0.93385 0.0
C1136 C 0.23405 0.23528 0.86903 0.0
C1137 C 0.22779 0.23753 0.83676 0.0
C1138 C 0.20062 0.20173 0.79791 0.0
C1139 C 0.19707 0.24161 0.99375 0.0
O1140 O 0.18087 0.22812 0.81427 0.0
O1141 O 0.18092 0.26487 0.77069 0.0
O1142 O 0.19095 0.28098 0.89376 0.0
O1143 O 0.19778 0.27596 0.79638 0.0
O1144 O 0.19247 0.2444 0.6718 0.0
O1145 O 0.20334 0.25329 0.67192 0.0
O1146 O 0.2127 0.26845 0.87365 0.0
O1147 O 0.21523 0.2454 0.76873 0.0
O1148 O 0.20666 0.20708 0.8058 0.0
O1149 O 0.19727 0.21989 0.80471 0.0
O1150 O 0.20254 0.24687 0.95492 0.0
O1151 O 0.19163 0.23791 0.95166 0.0
H1152 H 0.17117 0.21109 0.70386 0.0
H1153 H 0.15963 0.20966 0.66931 0.0
H1154 H 0.15692 0.27607 0.7925 0.0
H1155 H 0.16847 0.27767 0.82525 0.0
H1156 H 0.22261 0.28218 0.96138 0.0
H1157 H 0.23341 0.27786 1.01906 0.0
H1158 H 0.23725 0.2226 0.84059 0.0
H1159 H 0.22634 0.22644 0.78476 0.0
Nd1160 Nd 0.5779 0.50312 0.8192 0.0
Nd1161 Nd 0.56384 0.49938 0.81057 0.0
C1162 C 0.59052 0.5106 0.8106 0.0
C1163 C 0.59682 0.50972 0.76648 0.0
C1164 C 0.60016 0.53051 0.75014 0.0
C1165 C 0.60663 0.53005 0.72517 0.0
C1166 C 0.60992 0.50874 0.71629 0.0
C1167 C 0.60647 0.48791 0.72871 0.0
C1168 C 0.6 0.48838 0.75364 0.0
C1169 C 0.57336 0.45921 0.85782 0.0
C1170 C 0.57107 0.49504 0.63343 0.0
C1171 C 0.5512 0.49213 0.82262 0.0
C1172 C 0.54518 0.49466 0.87252 0.0
C1173 C 0.54277 0.47611 0.92101 0.0
C1174 C 0.53658 0.47726 0.95648 0.0
C1175 C 0.53263 0.4969 0.94352 0.0
C1176 C 0.53514 0.51569 0.89695 0.0
C1177 C 0.54132 0.5146 0.86215 0.0
C1178 C 0.56837 0.54263 0.7658 0.0
C1179 C 0.57071 0.50751 0.99648 0.0
O1180 O 0.58628 0.52665 0.79195 0.0
O1181 O 0.5879 0.49097 0.83372 0.0
O1182 O 0.57774 0.47029 0.89989 0.0
O1183 O 0.57137 0.47128 0.79617 0.0
O1184 O 0.57612 0.50333 0.67485 0.0
O1185 O 0.56591 0.48783 0.67468 0.0
O1186 O 0.55548 0.47642 0.84361 0.0
O1187 O 0.55381 0.51107 0.79269 0.0
O1188 O 0.56384 0.53147 0.72709 0.0
O1189 O 0.57038 0.53132 0.82943 0.0
O1190 O 0.56565 0.49949 0.95497 0.0
O1191 O 0.5759 0.51434 0.9554 0.0
H1192 H 0.59786 0.54721 0.76076 0.0
H1193 H 0.60914 0.54646 0.71696 0.0
H1194 H 0.6088 0.47117 0.72093 0.0
H1195 H 0.59759 0.47199 0.76618 0.0
H1196 H 0.54558 0.46039 0.92942 0.0
H1197 H 0.53487 0.46258 0.99301 0.0
H1198 H 0.53224 0.53094 0.88401 0.0
H1199 H 0.54296 0.52907 0.82394 0.0
Nd1200 Nd 0.19048 0.50243 1.00359 0.0
Nd1201 Nd 0.20465 0.49939 1.01409 0.0
C1202 C 0.17782 0.50969 1.01079 0.0
C1203 C 0.17141 0.50744 0.05204 0.0
C1204 C 0.16878 0.52589 0.09908 0.0
C1205 C 0.16231 0.5253 0.12492 0.0
C1206 C 0.15827 0.50639 0.1032 0.0
C1207 C 0.161 0.48771 0.05801 0.0
C1208 C 0.16746 0.48819 1.03319 0.0
C1209 C 0.19528 0.45874 0.96686 0.0
C1210 C 0.19728 0.49496 0.19063 0.0
C1211 C 0.21733 0.49321 1.00231 0.0
C1212 C 0.2233 0.49384 0.95041 0.0
C1213 C 0.22625 0.47309 0.92359 0.0
C1214 C 0.23243 0.47344 0.88744 0.0
C1215 C 0.23584 0.49455 0.87808 0.0
C1216 C 0.23278 0.51534 0.90302 0.0
C1217 C 0.22661 0.51499 0.93832 0.0
C1218 C 0.19989 0.54217 0.06002 0.0
C1219 C 0.19784 0.50655 0.82784 0.0
O1220 O 0.18205 0.52494 0.03762 0.0
O1221 O 0.18048 0.49091 0.98036 0.0
O1222 O 0.19081 0.46913 0.92451 0.0
O1223 O 0.19715 0.47119 1.02817 0.0
O1224 O 0.19218 0.50232 0.14821 0.0
O1225 O 0.20258 0.48854 0.15073 0.0
O1226 O 0.21318 0.47615 0.99331 0.0
O1227 O 0.21458 0.51303 1.02002 0.0
O1228 O 0.20445 0.53122 0.09855 0.0
O1229 O 0.19795 0.53092 0.99558 0.0
O1230 O 0.20279 0.49807 0.8701 0.0
O1231 O 0.19269 0.51413 0.86829 0.0
H1232 H 0.17166 0.54113 0.11368 0.0
H1233 H 0.16046 0.53987 0.16087 0.0
H1234 H 0.15809 0.47302 0.03819 0.0
H1235 H 0.16928 0.47384 0.99562 0.0
H1236 H 0.22387 0.45647 0.93298 0.0
H1237 H 0.23455 0.45709 0.8679 0.0
H1238 H 0.23525 0.53192 0.89866 0.0
H1239 H 0.22455 0.53133 0.95945 0.0
Nd1240 Nd 0.57784 0.24519 1.00418 0.0
Nd1241 Nd 0.56375 0.24624 1.01468 0.0
C1242 C 0.59062 0.24164 1.0105 0.0
C1243 C 0.59708 0.24192 0.05132 0.0
C1244 C 0.59984 0.22169 0.08572 0.0
C1245 C 0.60633 0.22152 0.11133 0.0
C1246 C 0.61024 0.24149 0.1019 0.0
C1247 C 0.6074 0.26179 0.06887 0.0
C1248 C 0.60093 0.26201 0.0444 0.0
C1249 C 0.57249 0.28804 0.96643 0.0
C1250 C 0.57111 0.25116 0.19113 0.0
C1251 C 0.55102 0.25002 1.00386 0.0
C1252 C 0.54502 0.2494 0.95306 0.0
C1253 C 0.54266 0.26936 0.91221 0.0
C1254 C 0.53648 0.26934 0.87622 0.0
C1255 C 0.5325 0.24945 0.88109 0.0
C1256 C 0.53497 0.22935 0.92007 0.0
C1257 C 0.54114 0.22932 0.95531 0.0
C1258 C 0.56867 0.20444 0.06456 0.0
C1259 C 0.57067 0.24009 0.82764 0.0
O1260 O 0.5868 0.22355 1.01609 0.0
O1261 O 0.58752 0.26128 1.00332 0.0
O1262 O 0.57688 0.2779 0.92179 0.0
O1263 O 0.57091 0.27554 1.02862 0.0
O1264 O 0.57621 0.24395 0.14858 0.0
O1265 O 0.56578 0.25728 0.15123 0.0
O1266 O 0.5549 0.26805 1.00033 0.0
O1267 O 0.55407 0.23038 1.01455 0.0
O1268 O 0.56411 0.21539 0.10302 0.0
O1269 O 0.57062 0.21534 0.99937 0.0
O1270 O 0.56555 0.24721 0.87015 0.0
O1271 O 0.57599 0.23418 0.86764 0.0
H1272 H 0.59704 0.20581 0.09084 0.0
H1273 H 0.60827 0.20562 0.13758 0.0
H1274 H 0.61022 0.27739 0.05837 0.0
H1275 H 0.59901 0.27777 1.0164 0.0
H1276 H 0.54551 0.28518 0.9101 0.0
H1277 H 0.5348 0.28506 0.84564 0.0
H1278 H 0.53204 0.21382 0.92683 0.0
H1279 H 0.54275 0.21377 0.98768 0.0
H1280 H 0.24407 0.28685 0.97731 0.0
H1281 H 0.27487 0.20911 0.09223 0.0
H1282 H 0.24418 0.21185 0.95508 0.0
H1283 H 0.27493 0.28435 0.08338 0.0
H1284 H 0.26366 0.2093 0.04401 0.0
H1285 H 0.25527 0.28574 1.02265 0.0
C1286 C 0.24642 0.27008 0.98262 0.0
C1287 C 0.24311 0.24938 0.96269 0.0
C1288 C 0.26614 0.22575 0.05273 0.0
C1289 C 0.25609 0.24806 1.0131 0.0
C1290 C 0.27258 0.22567 0.0796 0.0
C1291 C 0.2759 0.24676 0.09266 0.0
C1292 C 0.26298 0.24705 0.03927 0.0
C1293 C 0.27258 0.26763 0.07628 0.0
C1294 C 0.25286 0.26949 1.0078 0.0
C1295 C 0.24652 0.22827 0.969 0.0
N1296 N 0.26632 0.26722 0.05102 0.0
N1297 N 0.25281 0.22815 0.99374 0.0
H1298 H 0.02708 0.97198 0.0667 0.0
H1299 H 0.99166 0.02557 1.00633 0.0
H1300 H 0.02246 0.02521 0.88419 0.0
H1301 H 0.9963 0.97247 0.18921 0.0
H1302 H 1.00294 0.0259 0.96138 0.0
H1303 H 0.0158 0.97165 0.11152 0.0
C1304 C 0.02371 0.98355 1.03581 0.0
C1305 C 0.02577 -0.00128 0.97177 0.0
C1306 C 1.00148 0.01413 1.01123 0.0
C1307 C 0.01282 -0.00141 1.02349 0.0
C1308 C 0.99504 0.01403 0.03727 0.0
C1309 C 0.99298 -0.00111 0.10145 0.0
C1310 C 1.00593 -0.00098 0.04961 0.0
C1311 C 0.9976 0.98414 0.13842 0.0
C1312 C 0.01726 0.98345 0.06179 0.0
C1313 C 0.02115 0.01351 0.93487 0.0
N1314 N 1.00384 0.98458 0.112 0.0
N1315 N 0.01492 0.01307 0.96123 0.0
H1316 H 0.24206 0.96759 0.26237 0.0
H1317 H 0.27671 0.02887 0.30619 0.0
H1318 H 0.24588 0.02592 0.42749 0.0
H1319 H 0.27294 0.96982 0.14431 0.0
H1320 H 0.26541 0.02842 0.34986 0.0
H1321 H 0.25335 0.96813 0.2186 0.0
C1322 C 0.24526 0.98049 0.28969 0.0
C1323 C 0.24296 0.99678 0.34867 0.0
C1324 C 0.26706 0.01552 0.30497 0.0
C1325 C 0.25594 0.99765 0.29781 0.0
C1326 C 0.27352 0.01583 0.27958 0.0
C1327 C 0.27583 -0.0007 0.22159 0.0
C1328 C 0.26285 -0.00145 0.27223 0.0
C1329 C 0.27144 0.98267 0.19029 0.0
C1330 C 0.25171 0.98086 0.26424 0.0
C1331 C 0.24736 0.01326 0.38076 0.0
N1332 N 0.26518 0.98273 0.21595 0.0
N1333 N 0.25361 0.01326 0.35497 0.0
H1334 H 0.0231 0.22078 0.43732 0.0
H1335 H 0.99578 0.27508 0.13938 0.0
H1336 H 0.02648 0.2774 0.26368 0.0
H1337 H 0.99227 0.21868 0.31353 0.0
H1338 H 1.007 0.27624 0.18492 0.0
H1339 H 0.01186 0.21944 0.39194 0.0
C1340 C 0.02151 0.23282 0.38909 0.0
C1341 C 0.0258 0.24915 0.354 0.0
C1342 C 1.00378 0.26361 0.2133 0.0
C1343 C 0.01283 0.24796 0.30281 0.0
C1344 C 0.99734 0.26305 0.18781 0.0
C1345 C 0.99301 0.24687 0.22307 0.0
C1346 C 1.00598 0.24783 0.27446 0.0
C1347 C 0.99541 0.23134 0.28399 0.0
C1348 C 0.01506 0.23215 0.3637 0.0
C1349 C 0.02337 0.26465 0.29322 0.0
N1350 N 1.00172 0.23223 0.30776 0.0
N1351 N 0.01706 0.26365 0.26961 0.0
H1352 H 0.74226 0.71627 0.04661 0.0
H1353 H 0.77655 0.78045 1.02917 0.0
H1354 H 0.74558 0.78117 0.91577 0.0
H1355 H 0.7732 0.71575 0.16122 0.0
H1356 H 0.76523 0.78103 0.9876 0.0
H1357 H 0.75357 0.71568 0.08811 0.0
C1358 C 0.74535 0.73042 1.02638 0.0
C1359 C 0.74291 0.74878 0.97717 0.0
C1360 C 0.76698 0.76665 1.02536 0.0
C1361 C 0.75593 0.74835 1.02608 0.0
C1362 C 0.77345 0.76635 0.04966 0.0
C1363 C 0.77589 0.74805 0.09924 0.0
C1364 C 0.76286 0.74847 0.05022 0.0
C1365 C 0.77161 0.73007 0.12207 0.0
C1366 C 0.75182 0.73011 0.05064 0.0
C1367 C 0.74717 0.7668 0.95463 0.0
N1368 N 0.76533 0.73076 0.0975 0.0
N1369 N 0.75346 0.7661 0.97914 0.0
H1370 H 0.77259 0.97673 0.61852 0.0
H1371 H 0.74665 0.02224 0.95433 0.0
H1372 H 0.77724 0.02238 0.82673 0.0
H1373 H 0.74193 0.9753 0.75032 0.0
H1374 H 0.75784 0.02248 0.90782 0.0
H1375 H 0.76141 0.97562 0.66617 0.0
C1376 C 0.77129 0.98638 0.67473 0.0
C1377 C 0.77592 -0.00041 0.71883 0.0
C1378 C 0.75437 0.01211 0.87312 0.0
C1379 C 0.76302 -0.0013 0.77289 0.0
C1380 C 0.74794 0.01209 0.89928 0.0
C1381 C 0.74328 -0.0011 0.85575 0.0
C1382 C 0.75621 -0.0012 0.80281 0.0
C1383 C 0.74533 0.98563 0.7862 0.0
C1384 C 0.76487 0.98585 0.70151 0.0
C1385 C 0.77386 0.01214 0.79004 0.0
N1386 N 0.75163 0.98598 0.76178 0.0
N1387 N 0.76758 0.01138 0.81474 0.0
H1388 H 0.99321 0.786 0.74824 0.0
H1389 H 0.02538 0.71192 0.82391 0.0
H1390 H 0.9945 0.71179 0.70574 0.0
H1391 H 0.02407 0.78613 0.86644 0.0
H1392 H 0.01409 0.71155 0.78128 0.0
H1393 H 1.0045 0.78635 0.79079 0.0
C1394 C 0.99585 0.76974 0.74761 0.0
C1395 C 0.99284 0.74883 0.72274 0.0
C1396 C 0.01628 0.72794 0.79958 0.0
C1397 C 1.00584 0.74912 0.77328 0.0
C1398 C 0.02274 0.72818 0.82452 0.0
C1399 C 0.02574 0.74909 0.84942 0.0
C1400 C 0.01275 0.74878 0.79879 0.0
C1401 C 0.02204 0.76961 0.84684 0.0
C1402 C 1.00231 0.76997 0.77251 0.0
C1403 C 0.99654 0.72831 0.72529 0.0
N1404 N 0.01576 0.76892 0.82218 0.0
N1405 N 1.00283 0.72899 0.74992 0.0
H1406 H 0.24224 0.7137 0.52231 0.0
H1407 H 0.27586 0.78232 0.5422 0.0
H1408 H 0.2449 0.7839 0.43059 0.0
H1409 H 0.27308 0.71331 0.64468 0.0
H1410 H 0.26459 0.78288 0.49948 0.0
H1411 H 0.25356 0.71286 0.5644 0.0
C1412 C 0.24518 0.72896 0.5108 0.0
C1413 C 0.24256 0.7489 0.47244 0.0
C1414 C 0.26645 0.76756 0.53099 0.0
C1415 C 0.25557 0.74811 0.52207 0.0
C1416 C 0.2729 0.76725 0.55604 0.0
C1417 C 0.27549 0.74778 0.59797 0.0
C1418 C 0.2625 0.74819 0.54704 0.0
C1419 C 0.27138 0.72862 0.6118 0.0
C1420 C 0.25166 0.72849 0.53542 0.0
C1421 C 0.24664 0.76824 0.46093 0.0
N1422 N 0.2651 0.72934 0.58656 0.0
N1423 N 0.25292 0.76733 0.48548 0.0
H1424 H 0.99279 0.46214 0.56008 0.0
H1425 H 0.02564 0.5347 0.51707 0.0
H1426 H 0.99476 0.5343 0.63366 0.0
H1427 H 0.02364 0.46279 0.44043 0.0
H1428 H 0.01436 0.5348 0.55988 0.0
H1429 H 1.00408 0.46195 0.51748 0.0
C1430 C 0.99558 0.47797 0.56752 0.0
C1431 C 0.99276 0.49826 0.601 0.0
C1432 C 0.01639 0.51896 0.53403 0.0
C1433 C 1.00575 0.4982 0.55061 0.0
C1434 C 0.02285 0.5189 0.50898 0.0
C1435 C 0.02565 0.49872 0.47446 0.0
C1436 C 0.01267 0.49866 0.52526 0.0
C1437 C 0.02176 0.47869 0.46761 0.0
C1438 C 1.00204 0.47786 0.5426 0.0
C1439 C 0.99665 0.51831 0.60721 0.0
N1440 N 0.01548 0.4792 0.49261 0.0
N1441 N 1.00293 0.51775 0.58242 0.0
H1442 H 0.27623 0.46557 0.76574 0.0
H1443 H 0.24173 0.52822 0.78103 0.0
H1444 H 0.27252 0.53473 0.6707 0.0
H1445 H 0.24553 0.46207 0.90087 0.0
H1446 H 0.25294 0.52997 0.73632 0.0
H1447 H 0.26494 0.46287 0.81013 0.0
C1448 C 0.27306 0.48017 0.75396 0.0
C1449 C 0.27538 0.50046 0.71463 0.0
C1450 C 0.25132 0.51501 0.77216 0.0
C1451 C 0.26243 0.49752 0.76597 0.0
C1452 C 0.2449 0.51405 0.79834 0.0
C1453 C 0.24261 0.49502 0.84556 0.0
C1454 C 0.25554 0.49674 0.79234 0.0
C1455 C 0.24699 0.47697 0.86378 0.0
C1456 C 0.26661 0.47865 0.7798 0.0
C1457 C 0.27102 0.51889 0.70204 0.0
N1458 N 0.25323 0.47829 0.83724 0.0
N1459 N 0.26479 0.51696 0.7275 0.0
H1460 H 0.77333 0.21424 0.65518 0.0
H1461 H 0.74516 0.28362 0.4173 0.0
H1462 H 0.776 0.28137 0.53712 0.0
H1463 H 0.74248 0.21659 0.53611 0.0
H1464 H 0.75641 0.28336 0.46261 0.0
H1465 H 0.76208 0.21449 0.60977 0.0
C1466 C 0.77159 0.22896 0.61908 0.0
C1467 C 0.77568 0.24782 0.60017 0.0
C1468 C 0.75335 0.2687 0.47869 0.0
C1469 C 0.76268 0.24844 0.54962 0.0
C1470 C 0.74689 0.26892 0.45353 0.0
C1471 C 0.7428 0.25009 0.47267 0.0
C1472 C 0.7558 0.24946 0.52309 0.0
C1473 C 0.74543 0.23136 0.51843 0.0
C1474 C 0.76513 0.22918 0.59387 0.0
C1475 C 0.77305 0.26657 0.55459 0.0
N1476 N 0.75174 0.23151 0.54176 0.0
N1477 N 0.76674 0.26642 0.53117 0.0
H1478 H 0.74416 0.46049 0.35399 0.0
H1479 H 0.77467 0.53779 0.2208 0.0
H1480 H 0.74409 0.53571 0.35969 0.0
H1481 H 0.77501 0.4628 0.24428 0.0
H1482 H 0.7635 0.53769 0.26961 0.0
H1483 H 0.75535 0.46133 0.30787 0.0
C1484 C 0.74647 0.47724 0.3449 0.0
C1485 C 0.74312 0.49808 0.36041 0.0
C1486 C 0.76603 0.52128 0.26403 0.0
C1487 C 0.75607 0.49913 0.30898 0.0
C1488 C 0.77245 0.52131 0.23682 0.0
C1489 C 0.77585 0.50025 0.22787 0.0
C1490 C 0.76294 0.50005 0.282 0.0
C1491 C 0.7726 0.47947 0.24832 0.0
C1492 C 0.7529 0.47768 0.31925 0.0
C1493 C 0.74647 0.51919 0.3493 0.0
N1494 N 0.76635 0.47992 0.27393 0.0
N1495 N 0.75275 0.51917 0.32417 0.0
H1496 H 0.49697 0.98165 0.7208 0.0
H1497 H 0.52188 0.01478 0.35385 0.0
H1498 H 0.49136 0.01517 0.48839 0.0
H1499 H 0.52746 0.98104 0.58591 0.0
H1500 H 0.51072 0.01534 0.40249 0.0
H1501 H 0.50812 0.98119 0.67222 0.0
C1502 C 0.49806 0.98877 0.65918 0.0
C1503 C 0.49316 0.9983 0.6084 0.0
C1504 C 0.51438 0.00782 0.44286 0.0
C1505 C 0.50603 0.99817 0.55287 0.0
C1506 C 0.52078 0.00763 0.4154 0.0
C1507 C 0.52567 0.998 0.46606 0.0
C1508 C 0.5128 0.99824 0.52165 0.0
C1509 C 0.52388 0.98848 0.54429 0.0
C1510 C 0.50446 0.98864 0.63176 0.0
C1511 C 0.49494 0.00779 0.5301 0.0
N1512 N 0.51761 0.98889 0.56966 0.0
N1513 N 0.50122 0.00744 0.50476 0.0
H1514 H 0.49467 0.211 0.69027 0.0
H1515 H 0.52383 0.28588 0.88299 0.0
H1516 H 0.49301 0.28328 0.76339 0.0
H1517 H 0.52554 0.21378 0.80763 0.0
H1518 H 0.5126 0.28544 0.83716 0.0
H1519 H 0.50592 0.21152 0.73539 0.0
C1520 C 0.49662 0.22694 0.71646 0.0
C1521 C 0.49282 0.24713 0.72279 0.0
C1522 C 0.51544 0.26971 0.83073 0.0
C1523 C 0.50582 0.24797 0.7728 0.0
C1524 C 0.52189 0.26999 0.85614 0.0
C1525 C 0.5257 0.24982 0.84948 0.0
C1526 C 0.51272 0.24907 0.79872 0.0
C1527 C 0.52281 0.22968 0.81557 0.0
C1528 C 0.50309 0.22727 0.74146 0.0
C1529 C 0.49573 0.26736 0.75581 0.0
N1530 N 0.51651 0.22981 0.79182 0.0
N1531 N 0.50204 0.26726 0.77928 0.0
H1532 H 0.4913 0.72888 0.33956 0.0
H1533 H 0.52771 0.76802 0.24171 0.0
H1534 H 0.49699 0.76657 0.11604 0.0
H1535 H 0.52207 0.73006 0.46482 0.0
H1536 H 0.51647 0.76795 0.19525 0.0
H1537 H 0.50255 0.72883 0.38605 0.0
C1538 C 0.4949 0.73707 0.30005 0.0
C1539 C 0.49315 0.74786 0.22391 0.0
C1540 C 0.51769 0.75958 0.25431 0.0
C1541 C 0.50607 0.74805 0.27725 0.0
C1542 C 0.52412 0.75974 0.28114 0.0
C1543 C 0.52588 0.74894 0.35719 0.0
C1544 C 0.51296 0.74859 0.30385 0.0
C1545 C 0.52099 0.73824 0.405 0.0
C1546 C 0.50133 0.73715 0.32689 0.0
C1547 C 0.49806 0.75841 0.17596 0.0
N1548 N 0.51477 0.73835 0.37758 0.0
N1549 N 0.50427 0.75825 0.20339 0.0
H1550 H 0.52573 0.53456 1.00278 0.0
H1551 H 0.49302 0.46258 0.07015 0.0
H1552 H 0.5239 0.46073 0.9547 0.0
H1553 H 0.49481 0.53637 0.11924 0.0
H1554 H 0.50432 0.46165 1.02827 0.0
H1555 H 0.51442 0.53561 0.04461 0.0
C1556 C 0.52297 0.51854 1.00082 0.0
C1557 C 0.52583 0.49752 0.97469 0.0
C1558 C 0.50223 0.47807 0.04784 0.0
C1559 C 0.51282 0.4986 1.02422 0.0
C1560 C 0.49577 0.47862 0.07234 0.0
C1561 C 0.4929 0.49959 0.09888 0.0
C1562 C 0.5059 0.49864 0.04914 0.0
C1563 C 0.49674 0.51984 0.09833 0.0
C1564 C 0.5165 0.51916 1.02527 0.0
C1565 C 0.52198 0.4773 0.97538 0.0
N1566 N 0.50302 0.51884 0.07405 0.0
N1567 N 0.5157 0.47837 0.99956 0.0
H1568 H 0.40132 0.28924 0.37662 0.0
H1569 H 0.36745 0.22499 0.45062 0.0
H1570 H 0.3991 0.22555 0.51847 0.0
H1571 H 0.36945 0.28889 0.30921 0.0
H1572 H 0.37905 0.22499 0.47528 0.0
H1573 H 0.38968 0.28969 0.35196 0.0
C1574 C 0.3984 0.27537 0.40276 0.0
C1575 C 0.40124 0.25729 0.4495 0.0
C1576 C 0.37695 0.23909 0.43918 0.0
C1577 C 0.38787 0.25761 0.42079 0.0
C1578 C 0.37031 0.23904 0.42454 0.0
C1579 C 0.36741 0.25693 0.37734 0.0
C1580 C 0.38077 0.25722 0.40696 0.0
C1581 C 0.37141 0.27488 0.34692 0.0
C1582 C 0.39175 0.27559 0.38829 0.0
C1583 C 0.39718 0.23964 0.48078 0.0
N1584 N 0.37787 0.27454 0.36213 0.0
N1585 N 0.39072 0.24027 0.4659 0.0
H1586 H 0.86724 0.95901 0.36336 0.0
H1587 H 0.90115 0.02111 0.45786 0.0
H1588 H 0.86951 0.01814 0.52963 0.0
H1589 H 0.89911 0.9603 0.29916 0.0
H1590 H 0.88955 0.02065 0.48245 0.0
H1591 H 0.87887 0.95934 0.33817 0.0
C1592 C 0.87017 0.97205 0.39477 0.0
C1593 C 0.86734 0.9886 0.44865 0.0
C1594 C 0.89164 0.00733 0.44254 0.0
C1595 C 0.8807 0.98919 0.41921 0.0
C1596 C 0.89828 0.00764 0.42797 0.0
C1597 C 0.90117 0.99073 0.3761 0.0
C1598 C 0.8878 0.98993 0.40536 0.0
C1599 C 0.89716 0.97351 0.3406 0.0
C1600 C 0.87682 0.97228 0.37998 0.0
C1601 C 0.87141 0.00526 0.48644 0.0
N1602 N 0.8907 0.97359 0.35578 0.0
N1603 N 0.87786 0.00511 0.47103 0.0
H1604 H 0.40043 0.9534 0.8717 0.0
H1605 H 0.36813 0.0279 0.90986 0.0
H1606 H 0.4002 0.02865 0.88302 0.0
H1607 H 0.36916 0.95547 0.98309 0.0
H1608 H 0.37973 0.02773 0.88592 0.0
H1609 H 0.38887 0.95313 0.90069 0.0
C1610 C 0.39801 0.96989 0.88103 0.0
C1611 C 0.40139 0.9911 0.87453 0.0
C1612 C 0.37741 0.01187 0.90712 0.0
C1613 C 0.38803 0.9908 0.90515 0.0
C1614 C 0.37076 0.01194 0.92136 0.0
C1615 C 0.36758 0.9917 0.94937 0.0
C1616 C 0.38094 0.99133 0.91946 0.0
C1617 C 0.37132 0.97145 0.96043 0.0
C1618 C 0.39137 0.96967 0.89688 0.0
C1619 C 0.39786 0.01183 0.88545 0.0
N1620 N 0.37778 0.97179 0.94532 0.0
N1621 N 0.39139 0.01114 0.89958 0.0
H1622 H 0.86942 0.28813 0.7994 0.0
H1623 H 0.89919 0.22544 1.02767 0.0
H1624 H 0.86765 0.22601 0.95128 0.0
H1625 H 0.90119 0.28761 0.87677 0.0
H1626 H 0.88764 0.22549 0.99962 0.0
H1627 H 0.88098 0.2888 0.82896 0.0
C1628 C 0.87142 0.27473 0.83959 0.0
C1629 C 0.86749 0.25699 0.87285 0.0
C1630 C 0.89059 0.23914 0.97255 0.0
C1631 C 0.88082 0.25741 0.90541 0.0
C1632 C 0.89722 0.23903 0.98798 0.0
C1633 C 0.90123 0.25646 0.95404 0.0
C1634 C 0.88788 0.25686 0.92298 0.0
C1635 C 0.89831 0.27391 0.9049 0.0
C1636 C 0.87805 0.27502 0.85579 0.0
C1637 C 0.87045 0.23986 0.92303 0.0
N1638 N 0.89183 0.27364 0.89078 0.0
N1639 N 0.87692 0.24049 0.93753 0.0
H1640 H 0.61699 0.7657 0.72414 0.0
H1641 H 0.65194 0.71721 0.59836 0.0
H1642 H 0.62005 0.71378 0.53094 0.0
H1643 H 0.64847 0.7642 0.80633 0.0
H1644 H 0.64033 0.71622 0.57035 0.0
H1645 H 0.62857 0.76625 0.7516 0.0
C1646 C 0.62009 0.75441 0.68736 0.0
C1647 C 0.6175 0.73964 0.62515 0.0
C1648 C 0.64212 0.72676 0.62207 0.0
C1649 C 0.63083 0.74003 0.65699 0.0
C1650 C 0.64875 0.72725 0.63837 0.0
C1651 C 0.65122 0.74089 0.7046 0.0
C1652 C 0.63791 0.73999 0.67233 0.0
C1653 C 0.64683 0.75376 0.75357 0.0
C1654 C 0.62671 0.75464 0.70343 0.0
C1655 C 0.62178 0.72519 0.58041 0.0
N1656 N 0.64041 0.753 0.7364 0.0
N1657 N 0.62822 0.72579 0.59707 0.0
H1658 H 0.11725 0.9793 0.60193 0.0
H1659 H 0.15185 0.03176 0.72549 0.0
H1660 H 0.11996 0.03298 0.78987 0.0
H1661 H 0.1488 0.98218 0.52413 0.0
H1662 H 0.14024 0.03196 0.75202 0.0
H1663 H 0.12884 0.97932 0.57592 0.0
C1664 C 0.12026 0.9911 0.63791 0.0
C1665 C 0.11757 0.00616 0.69832 0.0
C1666 C 0.14212 0.02101 0.70214 0.0
C1667 C 0.13092 0.00646 0.66784 0.0
C1668 C 0.14876 0.02095 0.68663 0.0
C1669 C 0.15136 0.00687 0.62255 0.0
C1670 C 0.13802 0.00687 0.65337 0.0
C1671 C 0.14708 0.99301 0.57524 0.0
C1672 C 0.1269 0.99118 0.6226 0.0
C1673 C 0.12176 0.02129 0.7418 0.0
N1674 N 0.14064 0.99336 0.59161 0.0
N1675 N 0.12821 0.02101 0.72584 0.0
H1676 H 0.65124 0.97526 0.20501 0.0
H1677 H 0.61737 0.03817 0.11966 0.0
H1678 H 0.64923 0.03705 0.05197 0.0
H1679 H 0.61962 0.97708 0.27563 0.0
H1680 H 0.629 0.03821 0.09429 0.0
H1681 H 0.63966 0.97558 0.23012 0.0
C1682 C 0.64839 0.98891 0.17645 0.0
C1683 C 0.65128 0.00612 0.12595 0.0
C1684 C 0.62694 0.02476 0.13388 0.0
C1685 C 0.63792 0.00678 0.15596 0.0
C1686 C 0.62029 0.02478 0.14878 0.0
C1687 C 0.61746 0.00755 0.19971 0.0
C1688 C 0.63082 0.00739 0.17014 0.0
C1689 C 0.62153 0.99049 0.23469 0.0
C1690 C 0.64175 0.98914 0.19134 0.0
C1691 C 0.64728 0.02358 0.09229 0.0
N1692 N 0.62798 0.99086 0.21928 0.0
N1693 N 0.64082 0.02343 0.10779 0.0
H1694 H 0.11856 0.70247 0.10258 0.0
H1695 H 0.15023 0.77857 0.17943 0.0
H1696 H 0.11815 0.77635 0.15578 0.0
H1697 H 0.14987 0.7038 0.21159 0.0
H1698 H 0.13862 0.77796 0.15606 0.0
H1699 H 0.13014 0.70246 0.12998 0.0
C1700 C 0.12085 0.71867 0.12078 0.0
C1701 C 0.11728 0.73947 0.12653 0.0
C1702 C 0.1411 0.76168 0.16809 0.0
C1703 C 0.13066 0.7396 0.1553 0.0
C1704 C 0.14774 0.76199 0.18194 0.0
C1705 C 0.15111 0.74121 0.19831 0.0
C1706 C 0.13775 0.74042 0.16914 0.0
C1707 C 0.14756 0.72027 0.19811 0.0
C1708 C 0.1275 0.71864 0.13568 0.0
C1709 C 0.12065 0.75994 0.14857 0.0
N1710 N 0.14109 0.72042 0.18368 0.0
N1711 N 0.12713 0.75949 0.16152 0.0
H1712 H 0.36887 0.79568 0.86418 0.0
H1713 H 0.40039 0.7173 0.92468 0.0
H1714 H 0.36835 0.72047 0.8722 0.0
H1715 H 0.40009 0.79182 0.96389 0.0
H1716 H 0.38882 0.71818 0.89766 0.0
H1717 H 0.3804 0.79455 0.89294 0.0
C1718 C 0.37114 0.77888 0.87276 0.0
C1719 C 0.36755 0.75813 0.86633 0.0
C1720 C 0.39129 0.73434 0.91193 0.0
C1721 C 0.3809 0.75678 0.89735 0.0
C1722 C 0.39792 0.73389 0.92799 0.0
C1723 C 0.40131 0.75453 0.94726 0.0
C1724 C 0.38797 0.75562 0.91392 0.0
C1725 C 0.39778 0.77547 0.94818 0.0
C1726 C 0.37777 0.77828 0.88857 0.0
C1727 C 0.37088 0.73695 0.87568 0.0
N1728 N 0.39134 0.77545 0.93176 0.0
N1729 N 0.37736 0.73683 0.89062 0.0
H1730 H 0.90121 0.52255 0.95387 0.0
H1731 H 0.86723 0.45949 0.87323 0.0
H1732 H 0.89907 0.45984 0.80539 0.0
H1733 H 0.8696 0.52125 1.02611 0.0
H1734 H 0.87886 0.45918 0.84779 0.0
H1735 H 0.88962 0.52245 0.97949 0.0
C1736 C 0.89832 0.50874 0.92646 0.0
C1737 C 0.90118 0.49119 0.87716 0.0
C1738 C 0.87683 0.47282 0.88674 0.0
C1739 C 0.88783 0.49081 0.90762 0.0
C1740 C 0.87018 0.47296 0.90167 0.0
C1741 C 0.86739 0.49047 0.95169 0.0
C1742 C 0.88074 0.49032 0.92204 0.0
C1743 C 0.87149 0.50762 0.98585 0.0
C1744 C 0.89169 0.50864 0.94162 0.0
C1745 C 0.89715 0.47357 0.84482 0.0
N1746 N 0.87793 0.5071 0.9704 0.0
N1747 N 0.89069 0.47385 0.86051 0.0
H1748 H 0.36751 0.46265 0.35284 0.0
H1749 H 0.40176 0.51947 0.4643 0.0
H1750 H 0.3701 0.51427 0.54865 0.0
H1751 H 0.39929 0.46007 0.29972 0.0
H1752 H 0.39012 0.51988 0.48883 0.0
H1753 H 0.37907 0.46343 0.32649 0.0
C1754 C 0.37049 0.47413 0.39064 0.0
C1755 C 0.36777 0.48824 0.45385 0.0
C1756 C 0.39214 0.50669 0.44773 0.0
C1757 C 0.3811 0.48953 0.42238 0.0
C1758 C 0.39879 0.50649 0.43324 0.0
C1759 C 0.40156 0.48965 0.37991 0.0
C1760 C 0.38819 0.48995 0.40861 0.0
C1761 C 0.39743 0.47315 0.34245 0.0
C1762 C 0.37711 0.47464 0.37511 0.0
C1763 C 0.37192 0.50321 0.49877 0.0
N1764 N 0.39098 0.47375 0.35741 0.0
N1765 N 0.37837 0.50342 0.48227 0.0
H1766 H 0.86942 0.72337 0.3078 0.0
H1767 H 0.8994 0.79115 0.51215 0.0
H1768 H 0.86762 0.78861 0.44168 0.0
H1769 H 0.90103 0.72584 0.37807 0.0
H1770 H 0.88782 0.79101 0.48467 0.0
H1771 H 0.881 0.72401 0.33396 0.0
C1772 C 0.87143 0.73776 0.34344 0.0
C1773 C 0.86749 0.75591 0.37304 0.0
C1774 C 0.89072 0.77672 0.46128 0.0
C1775 C 0.88084 0.75697 0.40166 0.0
C1776 C 0.89736 0.77688 0.4762 0.0
C1777 C 0.90126 0.75849 0.44737 0.0
C1778 C 0.88791 0.75799 0.41746 0.0
C1779 C 0.89825 0.74026 0.40275 0.0
C1780 C 0.87808 0.7382 0.35771 0.0
C1781 C 0.87045 0.77434 0.41695 0.0
N1782 N 0.89178 0.74046 0.38942 0.0
N1783 N 0.87694 0.77439 0.42994 0.0
H1784 H 0.65019 0.20323 0.20215 0.0
H1785 H 0.61787 0.27743 0.16175 0.0
H1786 H 0.64992 0.27842 0.18685 0.0
H1787 H 0.61887 0.2048 0.09045 0.0
H1788 H 0.62946 0.27731 0.1857 0.0
H1789 H 0.63862 0.20274 0.17363 0.0
C1790 C 0.64776 0.21966 0.19205 0.0
C1791 C 0.65113 0.24093 0.19725 0.0
C1792 C 0.62713 0.26139 0.16491 0.0
C1793 C 0.63776 0.24038 0.16718 0.0
C1794 C 0.62049 0.26143 0.15063 0.0
C1795 C 0.6173 0.24113 0.12299 0.0
C1796 C 0.63067 0.24083 0.15306 0.0
C1797 C 0.62103 0.22084 0.11264 0.0
C1798 C 0.64111 0.21932 0.17647 0.0
C1799 C 0.64758 0.26157 0.18541 0.0
N1800 N 0.6275 0.22121 0.12778 0.0
N1801 N 0.64111 0.26077 0.17155 0.0
H1802 H 0.11868 0.54406 0.22628 0.0
H1803 H 0.15034 0.46893 0.13925 0.0
H1804 H 0.11827 0.47042 0.16884 0.0
H1805 H 0.14994 0.54392 0.11466 0.0
H1806 H 0.13875 0.46918 0.16378 0.0
H1807 H 0.13024 0.5444 0.1974 0.0
C1808 C 0.12096 0.52798 0.2069 0.0
C1809 C 0.11739 0.50715 0.20036 0.0
C1810 C 0.14121 0.48558 0.15315 0.0
C1811 C 0.13077 0.5074 0.16976 0.0
C1812 C 0.14785 0.48549 0.13857 0.0
C1813 C 0.15121 0.50644 0.12406 0.0
C1814 C 0.13785 0.50678 0.15474 0.0
C1815 C 0.14765 0.52731 0.12666 0.0
C1816 C 0.1276 0.5282 0.19113 0.0
C1817 C 0.12076 0.48685 0.17675 0.0
N1818 N 0.14118 0.52694 0.1418 0.0
N1819 N 0.12723 0.48748 0.16293 0.0
H1820 H 0.65074 0.47625 0.71495 0.0
H1821 H 0.61694 0.53737 0.61133 0.0
H1822 H 0.64877 0.53502 0.5469 0.0
H1823 H 0.61907 0.47922 0.78166 0.0
H1824 H 0.62858 0.53694 0.58728 0.0
H1825 H 0.63914 0.477 0.73916 0.0
C1826 C 0.64789 0.48933 0.68299 0.0
C1827 C 0.65079 0.50557 0.62853 0.0
C1828 C 0.6265 0.52424 0.62973 0.0
C1829 C 0.63744 0.50673 0.65729 0.0
C1830 C 0.61984 0.52453 0.64383 0.0
C1831 C 0.61698 0.50827 0.69845 0.0
C1832 C 0.63034 0.50756 0.67052 0.0
C1833 C 0.62101 0.49186 0.73784 0.0
C1834 C 0.64125 0.48982 0.6973 0.0
C1835 C 0.6468 0.52234 0.59036 0.0
N1836 N 0.62747 0.49194 0.72313 0.0
N1837 N 0.64035 0.52245 0.60536 0.0
H1838 H 0.1517 0.23433 0.57556 0.0
H1839 H 0.11581 0.23394 0.75679 0.0
H1840 H 0.14729 0.24932 0.83584 0.0
H1841 H 0.11999 0.24614 0.49383 0.0
H1842 H 0.12739 0.23437 0.78684 0.0
H1843 H 0.1401 0.23359 0.54402 0.0
C1844 C 0.14828 0.23734 0.62603 0.0
C1845 C 0.15043 0.24191 0.70837 0.0
C1846 C 0.12577 0.23707 0.72265 0.0
C1847 C 0.13722 0.24094 0.67309 0.0
C1848 C 0.11916 0.2367 0.7054 0.0
C1849 C 0.11692 0.24013 0.62277 0.0
C1850 C 0.13018 0.24057 0.65669 0.0
C1851 C 0.1215 0.24375 0.55865 0.0
C1852 C 0.14168 0.23705 0.60797 0.0
C1853 C 0.14582 0.24589 0.77144 0.0
N1854 N 0.12791 0.24376 0.57687 0.0
N1855 N 0.13943 0.24518 0.75262 0.0
H1856 H 0.31056 0.25307 0.54304 0.0
H1857 H 0.33159 0.25017 0.96922 0.0
H1858 H 0.33113 0.24215 0.54754 0.0
H1859 H 0.31108 0.26254 0.96495 0.0
H1860 H 0.3315 0.24687 0.81522 0.0
H1861 H 0.31063 0.25652 0.69718 0.0
C1862 C 0.31508 0.25102 0.57653 0.0
C1863 C 0.32084 0.24694 0.53224 0.0
C1864 C 0.32702 0.25053 0.84778 0.0
C1865 C 0.32097 0.25101 0.70919 0.0
C1866 C 0.32708 0.25257 0.93586 0.0
C1867 C 0.32134 0.257 0.98029 0.0
C1868 C 0.3212 0.25307 0.80323 0.0
C1869 C 0.31562 0.25927 0.93348 0.0
C1870 C 0.31513 0.25315 0.66462 0.0
C1871 C 0.32657 0.24513 0.57901 0.0
N1872 N 0.3157 0.25737 0.84774 0.0
N1873 N 0.32649 0.24706 0.66471 0.0
H1874 H 0.95823 0.99751 0.54746 0.0
H1875 H 0.937 0.99425 0.97121 0.0
H1876 H 0.93747 0.00191 0.54977 0.0
H1877 H 0.95776 0.98908 0.9691 0.0
H1878 H 0.93708 0.99719 0.81721 0.0
H1879 H 0.95817 0.99436 0.7015 0.0
C1880 C 0.95366 0.99814 0.58036 0.0
C1881 C 0.94785 0.00033 0.53542 0.0
C1882 C 0.94162 0.99523 0.8503 0.0
C1883 C 0.94773 0.99655 0.71238 0.0
C1884 C 0.94158 0.99342 0.9384 0.0
C1885 C 0.94738 0.9911 0.98347 0.0
C1886 C 0.94751 0.99464 0.80638 0.0
C1887 C 0.95316 0.9907 0.93723 0.0
C1888 C 0.95362 0.99619 0.66844 0.0
C1889 C 0.94207 0.00042 0.58163 0.0
N1890 N 0.95308 0.99238 0.85147 0.0
N1891 N 0.94216 -0.00135 0.66734 0.0
H1892 H 0.33085 0.97749 0.35649 0.0
H1893 H 0.31155 0.01399 0.77565 0.0
H1894 H 0.3116 0.00597 0.35439 0.0
H1895 H 0.33082 0.98565 0.77813 0.0
H1896 H 0.31149 0.01116 0.62165 0.0
H1897 H 0.33092 0.98023 0.51058 0.0
C1898 C 0.32661 0.98417 0.38827 0.0
C1899 C 0.32118 0.99126 0.34192 0.0
C1900 C 0.31574 0.00564 0.65581 0.0
C1901 C 0.32126 0.99467 0.51917 0.0
C1902 C 0.31579 0.00732 0.74396 0.0
C1903 C 0.32123 0.00033 0.79037 0.0
C1904 C 0.32116 0.99679 0.61319 0.0
C1905 C 0.32654 0.99155 0.74532 0.0
C1906 C 0.32667 0.9858 0.47647 0.0
C1907 C 0.31587 3e-05 0.3871 0.0
N1908 N 0.32637 0.99003 0.65955 0.0
N1909 N 0.31605 0.00149 0.47288 0.0
H1910 H 0.95805 0.24703 0.35199 0.0
H1911 H 0.93748 0.25558 0.77966 0.0
H1912 H 0.93777 0.26363 0.35835 0.0
H1913 H 0.95765 0.23722 0.7731 0.0
H1914 H 0.93753 0.25889 0.62607 0.0
H1915 H 0.95802 0.24378 0.50566 0.0
C1916 C 0.95359 0.25021 0.38556 0.0
C1917 C 0.94792 0.25593 0.3416 0.0
C1918 C 0.94194 0.25402 0.65804 0.0
C1919 C 0.94784 0.25194 0.51875 0.0
C1920 C 0.94192 0.25206 0.74603 0.0
C1921 C 0.94755 0.24581 0.78987 0.0
C1922 C 0.94765 0.24986 0.6128 0.0
C1923 C 0.95316 0.24177 0.74231 0.0
C1924 C 0.95358 0.24825 0.47359 0.0
C1925 C 0.94228 0.2595 0.38915 0.0
N1926 N 0.95307 0.24387 0.6566 0.0
N1927 N 0.94239 0.25745 0.47487 0.0
H1928 H 0.70811 0.74492 0.10464 0.0
H1929 H 0.68718 0.74492 0.5306 0.0
H1930 H 0.68741 0.73685 0.10921 0.0
H1931 H 0.70786 0.75334 0.52592 0.0
H1932 H 0.68717 0.74192 0.37677 0.0
H1933 H 0.70811 0.74784 0.2585 0.0
C1934 C 0.70356 0.74361 0.13789 0.0
C1935 C 0.69776 0.74036 0.09347 0.0
C1936 C 0.69171 0.74451 0.40926 0.0
C1937 C 0.69772 0.74398 0.2706 0.0
C1938 C 0.69172 0.7463 0.49732 0.0
C1939 C 0.69752 0.7497 0.54167 0.0
C1940 C 0.69755 0.74596 0.36461 0.0
C1941 C 0.70326 0.75108 0.49467 0.0
C1942 C 0.70357 0.74535 0.22597 0.0
C1943 C 0.69202 0.73903 0.14047 0.0
N1944 N 0.70313 0.74919 0.40895 0.0
N1945 N 0.69215 0.74087 0.22621 0.0
H1946 H 0.08175 0.00496 0.10375 0.0
H1947 H 0.06053 0.99699 0.52656 0.0
H1948 H 0.06094 0.0052 0.105 0.0
H1949 H 0.08134 0.99762 0.52505 0.0
H1950 H 0.06058 3e-05 0.37255 0.0
H1951 H 0.08169 0.00219 0.25771 0.0
C1952 C 0.07716 0.00471 0.13632 0.0
C1953 C 0.07134 0.00561 0.09099 0.0
C1954 C 0.06513 -0.00066 0.4058 0.0
C1955 C 0.07124 0.00224 0.26811 0.0
C1956 C 0.06512 0.99747 0.49389 0.0
C1957 C 0.07095 0.9967 0.53908 0.0
C1958 C 0.07103 0.00037 0.36209 0.0
C1959 C 0.07673 0.99797 0.49306 0.0
C1960 C 0.07713 0.00301 0.22443 0.0
C1961 C 0.06555 0.00471 0.13703 0.0
N1962 N 0.07662 -0.00035 0.40735 0.0
N1963 N 0.06565 0.00313 0.2228 0.0
H1964 H 0.6871 0.00609 0.71909 0.0
H1965 H 0.7083 0.99535 0.29671 0.0
H1966 H 0.7079 0.00403 0.71814 0.0
H1967 H 0.68751 0.99835 0.29759 0.0
H1968 H 0.70825 -0.0015 0.45074 0.0
H1969 H 0.68715 0.00319 0.56508 0.0
C1970 C 0.69169 0.00531 0.68659 0.0
C1971 C 0.69751 0.0056 0.73204 0.0
C1972 C 0.70369 0.99831 0.41734 0.0
C1973 C 0.6976 0.00206 0.55487 0.0
C1974 C 0.70371 0.99638 0.32923 0.0
C1975 C 0.69789 0.99625 0.28383 0.0
C1976 C 0.69781 6e-05 0.46087 0.0
C1977 C 0.69211 0.99819 0.32971 0.0
C1978 C 0.69171 0.00353 0.59845 0.0
C1979 C 0.70329 0.00404 0.68606 0.0
N1980 N 0.69222 -6e-05 0.41543 0.0
N1981 N 0.70319 0.00238 0.6003 0.0
H1982 H 0.06139 0.76481 0.29876 0.0
H1983 H 0.08061 0.72712 0.71766 0.0
H1984 H 0.08064 0.73635 0.29617 0.0
H1985 H 0.06132 0.75522 0.71994 0.0
H1986 H 0.08072 0.73033 0.56364 0.0
H1987 H 0.06129 0.76151 0.45273 0.0
C1988 C 0.06562 0.75806 0.33041 0.0
C1989 C 0.07107 0.75117 0.28394 0.0
C1990 C 0.07645 0.7357 0.59777 0.0
C1991 C 0.07095 0.74706 0.46111 0.0
C1992 C 0.07637 0.73378 0.68594 0.0
C1993 C 0.07091 0.74062 0.73236 0.0
C1994 C 0.07104 0.74462 0.55513 0.0
C1995 C 0.06561 0.74944 0.68721 0.0
C1996 C 0.06555 0.75609 0.41855 0.0
C1997 C 0.07637 0.7422 0.32897 0.0
N1998 N 0.06581 0.75118 0.6015 0.0
N1999 N 0.07617 0.74042 0.41468 0.0
H2000 H 0.33119 0.73993 0.05247 0.0
H2001 H 0.31072 0.75921 0.47687 0.0
H2002 H 0.31059 0.75001 0.05445 0.0
H2003 H 0.33127 0.74757 0.47404 0.0
H2004 H 0.31059 0.75657 0.32276 0.0
H2005 H 0.3313 0.74289 0.20635 0.0
C2006 C 0.32667 0.74259 0.0853 0.0
C2007 C 0.32086 0.74431 0.04019 0.0
C2008 C 0.31513 0.7546 0.35571 0.0
C2009 C 0.32096 0.74821 0.21737 0.0
C2010 C 0.31521 0.75614 0.44391 0.0
C2011 C 0.32102 0.75374 0.48888 0.0
C2012 C 0.32089 0.7504 0.31152 0.0
C2013 C 0.32669 0.74981 0.4423 0.0
C2014 C 0.32674 0.74436 0.17337 0.0
C2015 C 0.31517 0.74804 0.08647 0.0
N2016 N 0.32647 0.74818 0.35648 0.0
N2017 N 0.31537 0.74993 0.17229 0.0
H2018 H 0.93759 0.48036 0.46915 0.0
H2019 H 0.95736 0.51255 0.04955 0.0
H2020 H 0.95734 0.50424 0.4708 0.0
H2021 H 0.93773 0.48733 0.04774 0.0
H2022 H 0.95742 0.50985 0.20352 0.0
H2023 H 0.93754 0.48298 0.31519 0.0
C2024 C 0.94193 0.486 0.43729 0.0
C2025 C 0.9475 0.49183 0.48347 0.0
C2026 C 0.95309 0.50499 0.16952 0.0
C2027 C 0.94745 0.4951 0.3063 0.0
C2028 C 0.95304 0.5066 0.08138 0.0
C2029 C 0.9475 0.50042 1.03518 0.0
C2030 C 0.94757 0.49708 0.21231 0.0
C2031 C 0.94209 0.49254 0.08039 0.0
C2032 C 0.94189 0.48755 0.34914 0.0
C2033 C 0.95295 0.49929 0.43818 0.0
N2034 N 0.94226 0.49112 0.16616 0.0
N2035 N 0.95279 0.50072 0.3524 0.0
H2036 H 0.33165 0.48816 0.85222 0.0
H2037 H 0.31056 0.50284 0.27506 0.0
H2038 H 0.311 0.49771 0.85298 0.0
H2039 H 0.33117 0.49229 0.27451 0.0
H2040 H 0.31063 0.50118 0.12056 0.0
H2041 H 0.33158 0.48971 1.00673 0.0
C2042 C 0.32709 0.49043 0.88458 0.0
C2043 C 0.32132 0.49266 0.83881 0.0
C2044 C 0.31514 0.49931 0.15429 0.0
C2045 C 0.32121 0.4946 1.01656 0.0
C2046 C 0.31511 0.50033 0.24273 0.0
C2047 C 0.32087 0.49785 0.28854 0.0
C2048 C 0.32098 0.49581 0.11083 0.0
C2049 C 0.3266 0.49437 0.24248 0.0
C2050 C 0.32706 0.49138 0.97304 0.0
C2051 C 0.31558 0.49582 0.88495 0.0
N2052 N 0.3265 0.49349 0.15662 0.0
N2053 N 0.31568 0.49668 0.97082 0.0
H2054 H 0.9378 0.76917 0.85635 0.0
H2055 H 0.95721 0.73333 0.27558 0.0
H2056 H 0.95728 0.74272 0.85433 0.0
H2057 H 0.93789 0.76115 0.27778 0.0
H2058 H 0.9573 0.73641 0.12157 0.0
H2059 H 0.93773 0.76622 1.01034 0.0
C2060 C 0.94209 0.76291 0.88813 0.0
C2061 C 0.94759 0.75647 0.84181 0.0
C2062 C 0.95303 0.74175 0.15569 0.0
C2063 C 0.9475 0.75277 1.01901 0.0
C2064 C 0.95296 0.73991 0.24384 0.0
C2065 C 0.9475 0.74669 0.29019 0.0
C2066 C 0.9476 0.75051 0.11302 0.0
C2067 C 0.94218 0.75542 0.24506 0.0
C2068 C 0.94203 0.76116 0.97628 0.0
C2069 C 0.95295 0.74818 0.88702 0.0
N2070 N 0.94237 0.75705 0.15933 0.0
N2071 N 0.95277 0.74657 0.97276 0.0
H2072 H 0.70021 0.27986 0.59199 0.0
H2073 H 0.69976 0.21347 1.03255 0.0
H2074 H 0.6948 0.20758 0.61076 0.0
H2075 H 0.69575 0.2868 1.01651 0.0
H2076 H 0.69941 0.21074 0.87829 0.0
H2077 H 0.70001 0.28282 0.7468 0.0
C2078 C 0.69902 0.26457 0.62887 0.0
C2079 C 0.69754 0.24341 0.58862 0.0
C2080 C 0.69854 0.22741 0.90835 0.0
C2081 C 0.69744 0.24654 0.76583 0.0
C2082 C 0.69867 0.22891 0.99653 0.0
C2083 C 0.69754 0.2502 0.03746 0.0
C2084 C 0.69748 0.24756 0.86018 0.0
C2085 C 0.69654 0.26999 0.98734 0.0
C2086 C 0.69888 0.2663 0.71711 0.0
C2087 C 0.69596 0.22421 0.63934 0.0
N2088 N 0.69656 0.26823 0.90132 0.0
N2089 N 0.69603 0.22614 0.72524 0.0
H2090 H 0.08103 0.50942 1.03052 0.0
H2091 H 0.06081 0.49428 0.60179 0.0
H2092 H 0.06122 0.48629 1.02305 0.0
H2093 H 0.08067 0.51695 0.60911 0.0
H2094 H 0.06087 0.49145 0.75557 0.0
H2095 H 0.08097 0.51243 0.87681 0.0
C2096 C 0.07667 0.50475 0.99668 0.0
C2097 C 0.07115 0.49726 0.04028 0.0
C2098 C 0.0652 0.49715 0.72367 0.0
C2099 C 0.07103 0.50094 0.86318 0.0
C2100 C 0.06518 0.49887 0.6356 0.0
C2101 C 0.07072 0.50613 0.59192 0.0
C2102 C 0.07082 0.50269 0.76911 0.0
C2103 C 0.07625 0.5115 0.63972 0.0
C2104 C 0.07664 0.50658 0.90865 0.0
C2105 C 0.06562 0.49187 0.99248 0.0
N2106 N 0.07616 0.50968 0.72547 0.0
N2107 N 0.06571 0.49379 0.90676 0.0
H2108 H 0.7077 0.50974 0.22132 0.0
H2109 H 0.6871 0.49483 0.79544 0.0
H2110 H 0.68703 0.50117 0.21782 0.0
H2111 H 0.70776 0.50383 0.79963 0.0
H2112 H 0.68698 0.49696 0.94953 0.0
H2113 H 0.70779 0.50779 0.0673 0.0
C2114 C 0.70317 0.50757 0.18824 0.0
C2115 C 0.69734 0.50588 0.23303 0.0
C2116 C 0.69154 0.49847 0.91685 0.0
C2117 C 0.69742 0.5033 0.05562 0.0
C2118 C 0.69162 0.49725 0.82864 0.0
C2119 C 0.69746 0.49906 0.78407 0.0
C2120 C 0.69734 0.50171 0.96143 0.0
C2121 C 0.70315 0.50214 0.83101 0.0
C2122 C 0.70323 0.5064 0.10005 0.0
C2123 C 0.69163 0.50293 0.18624 0.0
N2124 N 0.70294 0.50342 0.91686 0.0
N2125 N 0.69182 0.50167 0.10034 0.0
H2126 H 0.06155 0.26494 0.79884 0.0
H2127 H 0.08039 0.22459 0.21782 0.0
H2128 H 0.08059 0.23474 0.79603 0.0
H2129 H 0.06153 0.25629 0.22008 0.0
H2130 H 0.08053 0.22779 0.06361 0.0
H2131 H 0.06144 0.26165 0.95285 0.0
C2132 C 0.06574 0.25782 0.83045 0.0
C2133 C 0.07113 0.25044 0.78388 0.0
C2134 C 0.07635 0.23395 0.09782 0.0
C2135 C 0.071 0.24632 0.96113 0.0
C2136 C 0.07625 0.23203 0.18606 0.0
C2137 C 0.0709 0.23992 0.23252 0.0
C2138 C 0.07107 0.24387 0.0552 0.0
C2139 C 0.06573 0.24974 0.18737 0.0
C2140 C 0.06566 0.25585 0.91862 0.0
C2141 C 0.07636 0.24098 0.82889 0.0
N2142 N 0.06595 0.25141 0.10166 0.0
N2143 N 0.07616 0.23921 0.91461 0.0
H2144 H 0.83146 0.25235 0.0452 0.0
H2145 H 0.81056 0.25055 0.47138 0.0
H2146 H 0.81082 0.24255 0.04995 0.0
H2147 H 0.83124 0.25933 0.46654 0.0
H2148 H 0.81055 0.24793 0.31741 0.0
H2149 H 0.83146 0.25516 0.19908 0.0
C2150 C 0.82692 0.25064 0.0785 0.0
C2151 C 0.82114 0.24691 1.03417 0.0
C2152 C 0.81509 0.25051 0.34994 0.0
C2153 C 0.8211 0.2504 0.21124 0.0
C2154 C 0.8151 0.25208 0.43807 0.0
C2155 C 0.8209 0.25542 0.48243 0.0
C2156 C 0.82093 0.25217 0.30526 0.0
C2157 C 0.82663 0.25704 0.43536 0.0
C2158 C 0.82693 0.25231 0.16658 0.0
C2159 C 0.81541 0.2451 0.08117 0.0
N2160 N 0.8265 0.25538 0.34961 0.0
N2161 N 0.81554 0.24688 0.16691 0.0
H2162 H 0.45746 0.00716 0.47264 0.0
H2163 H 0.43797 0.98368 0.04286 0.0
H2164 H 0.43849 0.97624 0.46464 0.0
H2165 H 0.4569 0.01496 0.05135 0.0
H2166 H 0.43808 0.9807 0.19668 0.0
H2167 H 0.45734 0.01006 0.31885 0.0
C2168 C 0.45329 0.00075 0.43866 0.0
C2169 C 0.44801 0.99115 0.48216 0.0
C2170 C 0.4422 0.98835 0.16504 0.0
C2171 C 0.44782 0.99463 0.30493 0.0
C2172 C 0.44213 0.99017 0.07696 0.0
C2173 C 0.44739 -9e-05 1.03363 0.0
C2174 C 0.44758 0.9963 0.2108 0.0
C2175 C 0.45269 0.00755 0.08171 0.0
C2176 C 0.45321 0.00251 0.35058 0.0
C2177 C 0.4427 0.98355 0.43417 0.0
N2178 N 0.45265 0.00562 0.16743 0.0
N2179 N 0.44274 0.98543 0.34841 0.0
H2180 H 0.81249 0.01414 0.84905 0.0
H2181 H 0.82978 0.97739 0.28225 0.0
H2182 H 0.82927 0.96989 0.86014 0.0
H2183 H 0.8131 0.02213 0.27096 0.0
H2184 H 0.82962 0.97426 0.12852 0.0
H2185 H 0.81265 0.01723 1.00281 0.0
C2186 C 0.81617 0.0048 0.88376 0.0
C2187 C 0.82082 0.99142 0.84111 0.0
C2188 C 0.82602 0.98491 0.15944 0.0
C2189 C 0.82105 0.99506 1.01847 0.0
C2190 C 0.82613 0.98682 0.2475 0.0
C2191 C 0.82151 0.00037 0.29007 0.0
C2192 C 0.82127 0.99666 0.11276 0.0
C2193 C 0.8168 0.01167 0.24117 0.0
C2194 C 0.81627 0.00669 0.97183 0.0
C2195 C 0.82555 0.98023 0.88998 0.0
N2196 N 0.81682 0.00962 0.15538 0.0
N2197 N 0.82553 0.98224 0.97579 0.0
H2198 H 0.43787 0.26899 0.85607 0.0
H2199 H 0.45718 0.23237 0.27513 0.0
H2200 H 0.45722 0.24134 0.85382 0.0
H2201 H 0.43796 0.26112 0.27744 0.0
H2202 H 0.45726 0.23532 0.12111 0.0
H2203 H 0.4378 0.26612 1.01006 0.0
C2204 C 0.44213 0.26248 0.88781 0.0
C2205 C 0.44759 0.25567 0.84144 0.0
C2206 C 0.45301 0.2409 0.15525 0.0
C2207 C 0.44751 0.25208 1.01862 0.0
C2208 C 0.45295 0.23914 0.2434 0.0
C2209 C 0.44752 0.24622 0.28977 0.0
C2210 C 0.44761 0.24989 0.11262 0.0
C2211 C 0.44222 0.25515 0.24469 0.0
C2212 C 0.44208 0.26077 0.97596 0.0
C2213 C 0.45292 0.24709 0.88656 0.0
N2214 N 0.44241 0.25672 0.15895 0.0
N2215 N 0.45275 0.24553 0.97232 0.0
H2216 H 0.1871 0.73953 1.02913 0.0
H2217 H 0.20752 0.75344 0.6017 0.0
H2218 H 0.207 0.7617 1.02291 0.0
H2219 H 0.18769 0.73051 0.60761 0.0
H2220 H 0.20739 0.75662 0.75545 0.0
H2221 H 0.18721 0.73628 0.87534 0.0
C2222 C 0.19148 0.74395 0.99555 0.0
C2223 C 0.19702 0.75124 0.03954 0.0
C2224 C 0.20308 0.75078 0.72327 0.0
C2225 C 0.1972 0.74726 0.86239 0.0
C2226 C 0.20315 0.74888 0.6352 0.0
C2227 C 0.19763 0.74141 0.59112 0.0
C2228 C 0.19744 0.74528 0.76831 0.0
C2229 C 0.19209 0.73607 0.63854 0.0
C2230 C 0.19155 0.74198 0.90749 0.0
C2231 C 0.20258 0.75631 0.99207 0.0
N2232 N 0.19214 0.73811 0.72428 0.0
N2233 N 0.20252 0.75424 0.90637 0.0
H2234 H 0.57964 0.02677 0.60779 0.0
H2235 H 0.56265 0.97516 1.02397 0.0
H2236 H 0.56251 0.98405 0.60203 0.0
H2237 H 0.57971 0.01826 1.02952 0.0
H2238 H 0.56254 0.97805 0.8697 0.0
H2239 H 0.57974 0.02388 0.76202 0.0
C2240 C 0.57588 0.01687 0.63885 0.0
C2241 C 0.57101 0.00591 0.5915 0.0
C2242 C 0.56632 0.98683 0.90462 0.0
C2243 C 0.57115 0.00221 0.76879 0.0
C2244 C 0.56639 0.98514 0.99287 0.0
C2245 C 0.57125 0.99621 0.04018 0.0
C2246 C 0.5711 -0.00012 0.86288 0.0
C2247 C 0.57593 0.00908 0.99597 0.0
C2248 C 0.57595 0.01518 0.72709 0.0
C2249 C 0.5663 0.99314 0.63565 0.0
N2250 N 0.57573 0.01058 0.9102 0.0
N2251 N 0.56649 0.99162 0.72143 0.0
H2252 H 0.20691 0.98065 0.79773 0.0
H2253 H 0.18841 0.02359 0.21559 0.0
H2254 H 0.18839 0.01479 0.79369 0.0
H2255 H 0.20692 0.98934 0.21899 0.0
H2256 H 0.18832 0.02066 0.06138 0.0
H2257 H 0.20699 0.98368 0.95183 0.0
C2258 C 0.20284 0.98864 0.8291 0.0
C2259 C 0.1976 0.99717 0.78223 0.0
C2260 C 0.19241 0.01386 0.09583 0.0
C2261 C 0.19769 0.00098 0.95946 0.0
C2262 C 0.19248 0.01559 0.18408 0.0
C2263 C 0.19772 0.00697 0.23082 0.0
C2264 C 0.1976 0.00328 0.05352 0.0
C2265 C 0.20281 0.99653 0.18599 0.0
C2266 C 0.20289 0.99043 0.91729 0.0
C2267 C 0.19249 0.00762 0.82686 0.0
N2268 N 0.20262 0.99498 0.10024 0.0
N2269 N 0.19267 0.00923 0.91262 0.0
H2270 H 0.58028 0.72963 0.79356 0.0
H2271 H 0.5621 0.76222 0.22494 0.0
H2272 H 0.5627 0.76965 0.80311 0.0
H2273 H 0.57984 0.72314 0.21535 0.0
H2274 H 0.56222 0.76505 0.07102 0.0
H2275 H 0.58015 0.72685 0.9474 0.0
C2276 C 0.57642 0.73808 0.82794 0.0
C2277 C 0.57154 0.75019 0.78493 0.0
C2278 C 0.56607 0.75571 0.10242 0.0
C2279 C 0.57134 0.74689 0.96213 0.0
C2280 C 0.56599 0.75396 0.19052 0.0
C2281 C 0.57092 0.74211 0.23352 0.0
C2282 C 0.57111 0.74546 0.05632 0.0
C2283 C 0.57591 0.73228 0.18516 0.0
C2284 C 0.57634 0.73638 0.91602 0.0
C2285 C 0.56659 0.7603 0.83329 0.0
N2286 N 0.57586 0.7341 0.0994 0.0
N2287 N 0.56663 0.75847 0.91906 0.0
H2288 H 0.83159 0.74585 0.54712 0.0
H2289 H 0.81064 0.75702 0.97142 0.0
H2290 H 0.81079 0.7481 0.54986 0.0
H2291 H 0.83144 0.75421 0.96854 0.0
H2292 H 0.8106 0.75408 0.81738 0.0
H2293 H 0.83162 0.7489 0.70109 0.0
C2294 C 0.82702 0.74686 0.58007 0.0
C2295 C 0.82118 0.7464 0.53523 0.0
C2296 C 0.81518 0.75417 0.85033 0.0
C2297 C 0.82118 0.75028 0.71223 0.0
C2298 C 0.81521 0.75591 0.93845 0.0
C2299 C 0.82105 0.75615 0.9833 0.0
C2300 C 0.82104 0.75243 0.80622 0.0
C2301 C 0.82681 0.75448 0.93683 0.0
C2302 C 0.82705 0.74866 0.66815 0.0
C2303 C 0.81542 0.74797 0.58163 0.0
N2304 N 0.82665 0.75264 0.8511 0.0
N2305 N 0.81557 0.74989 0.66734 0.0
H2306 H 0.4381 0.47725 0.96774 0.0
H2307 H 0.45735 0.51561 0.54984 0.0
H2308 H 0.45745 0.50506 0.97106 0.0
H2309 H 0.43822 0.48586 0.54634 0.0
H2310 H 0.45745 0.51223 0.7039 0.0
H2311 H 0.43804 0.48049 0.81372 0.0
C2312 C 0.44236 0.48385 0.93625 0.0
C2313 C 0.44782 0.49058 0.98297 0.0
C2314 C 0.45322 0.50653 0.66946 0.0
C2315 C 0.44775 0.49464 0.80574 0.0
C2316 C 0.45315 0.50855 0.5813 0.0
C2317 C 0.44774 0.50132 0.53457 0.0
C2318 C 0.44785 0.49712 0.71173 0.0
C2319 C 0.44248 0.49196 0.57933 0.0
C2320 C 0.44231 0.48577 0.84808 0.0
C2321 C 0.45316 0.49933 0.9381 0.0
N2322 N 0.44267 0.49016 0.66501 0.0
N2323 N 0.45298 0.50112 0.85239 0.0
H2324 H 0.8309 0.47953 0.35583 0.0
H2325 H 0.81115 0.51196 0.7756 0.0
H2326 H 0.81116 0.50335 0.3543 0.0
H2327 H 0.83076 0.48688 0.77732 0.0
H2328 H 0.81108 0.50909 0.6216 0.0
H2329 H 0.83094 0.4822 0.50985 0.0
C2330 C 0.82655 0.48515 0.38772 0.0
C2331 C 0.82099 0.49097 0.34154 0.0
C2332 C 0.81541 0.5043 0.6556 0.0
C2333 C 0.82104 0.49431 0.51878 0.0
C2334 C 0.81546 0.50601 0.74374 0.0
C2335 C 0.821 0.49993 0.78993 0.0
C2336 C 0.82092 0.49638 0.61278 0.0
C2337 C 0.8264 0.49203 0.74469 0.0
C2338 C 0.82659 0.48675 0.4759 0.0
C2339 C 0.81554 0.49843 0.38689 0.0
N2340 N 0.82623 0.4905 0.65893 0.0
N2341 N 0.81571 0.49989 0.47268 0.0
H2342 H 0.45827 0.74352 0.77677 0.0
H2343 H 0.43731 0.76004 0.3544 0.0
H2344 H 0.43758 0.75147 0.7757 0.0
H2345 H 0.45802 0.75264 0.3554 0.0
H2346 H 0.43732 0.75697 0.50836 0.0
H2347 H 0.45828 0.74688 0.62284 0.0
C2348 C 0.45372 0.74569 0.74425 0.0
C2349 C 0.4479 0.74686 0.78961 0.0
C2350 C 0.44187 0.75618 0.475 0.0
C2351 C 0.44789 0.75096 0.61259 0.0
C2352 C 0.44188 0.75806 0.38688 0.0
C2353 C 0.44769 0.75691 0.34141 0.0
C2354 C 0.44772 0.75315 0.5186 0.0
C2355 C 0.45342 0.75382 0.38744 0.0
C2356 C 0.45373 0.74774 0.65618 0.0
C2357 C 0.44218 0.75023 0.74366 0.0
N2358 N 0.45329 0.75209 0.47318 0.0
N2359 N 0.44231 0.7521 0.65799 0.0
H2360 H 0.18675 0.23642 0.10254 0.0
H2361 H 0.20816 0.25315 0.52185 0.0
H2362 H 0.20735 0.24739 0.10092 0.0
H2363 H 0.18757 0.24207 0.52536 0.0
H2364 H 0.20794 0.25098 0.36764 0.0
H2365 H 0.18692 0.23825 0.2571 0.0
C2366 C 0.19132 0.23901 0.13442 0.0
C2367 C 0.19705 0.24151 0.08802 0.0
C2368 C 0.20346 0.24907 0.40212 0.0
C2369 C 0.19727 0.24385 0.26563 0.0
C2370 C 0.20358 0.25037 0.49039 0.0
C2371 C 0.19787 0.24792 0.53719 0.0
C2372 C 0.19758 0.24531 0.35977 0.0
C2373 C 0.1921 0.24414 0.49236 0.0
C2374 C 0.19141 0.24015 0.22285 0.0
C2375 C 0.20281 0.24518 0.13343 0.0
N2376 N 0.1921 0.24298 0.40651 0.0
N2377 N 0.20276 0.24622 0.21925 0.0
H2378 H 0.56165 0.47964 0.52376 0.0
H2379 H 0.58016 0.52276 0.10612 0.0
H2380 H 0.58027 0.51329 0.52764 0.0
H2381 H 0.56145 0.48974 0.10252 0.0
H2382 H 0.58029 0.51947 0.26018 0.0
H2383 H 0.56151 0.48306 0.36973 0.0
C2384 C 0.56574 0.48757 0.49239 0.0
C2385 C 0.57102 0.49587 0.53923 0.0
C2386 C 0.57614 0.51304 0.22574 0.0
C2387 C 0.57085 0.50013 0.36204 0.0
C2388 C 0.57605 0.51499 0.13755 0.0
C2389 C 0.57075 0.50681 0.09074 0.0
C2390 C 0.57091 0.50269 0.26801 0.0
C2391 C 0.56561 0.4966 0.13554 0.0
C2392 C 0.56564 0.4896 0.40423 0.0
C2393 C 0.57613 0.50631 0.49456 0.0
N2394 N 0.56583 0.49483 0.22125 0.0
N2395 N 0.57591 0.50813 0.40886 0.0
H2396 H 0.18855 0.51713 0.29271 0.0
H2397 H 0.20648 0.48408 0.72542 0.0
H2398 H 0.20598 0.47629 0.3037 0.0
H2399 H 0.18917 0.52562 0.71478 0.0
H2400 H 0.20633 0.4809 0.57177 0.0
H2401 H 0.1887 0.52039 0.44645 0.0
C2402 C 0.19237 0.50856 0.32739 0.0
C2403 C 0.19721 0.49606 0.28474 0.0
C2404 C 0.20258 0.49085 0.60281 0.0
C2405 C 0.19743 0.49995 0.46202 0.0
C2406 C 0.20268 0.49279 0.69086 0.0
C2407 C 0.19788 0.50545 0.73365 0.0
C2408 C 0.19766 0.50167 0.5563 0.0
C2409 C 0.19301 0.51587 0.68487 0.0
C2410 C 0.19247 0.51056 0.41545 0.0
C2411 C 0.20212 0.48589 0.33355 0.0
N2412 N 0.19303 0.51379 0.59906 0.0
N2413 N 0.20208 0.48799 0.41931 0.0
H2414 H 0.58059 0.23378 0.29418 0.0
H2415 H 0.56115 0.25688 0.72396 0.0
H2416 H 0.56169 0.26509 0.30287 0.0
H2417 H 0.58012 0.22619 0.71593 0.0
H2418 H 0.56126 0.25984 0.57023 0.0
H2419 H 0.58048 0.23062 0.44789 0.0
C2420 C 0.57644 0.24024 0.32831 0.0
C2421 C 0.57118 0.25009 0.28509 0.0
C2422 C 0.56539 0.25233 0.60193 0.0
C2423 C 0.571 0.24625 0.46215 0.0
C2424 C 0.56532 0.25052 0.68999 0.0
C2425 C 0.5706 0.24096 0.7335 0.0
C2426 C 0.57077 0.24453 0.55626 0.0
C2427 C 0.57591 0.23346 0.68548 0.0
C2428 C 0.57637 0.23831 0.41633 0.0
C2429 C 0.56589 0.25765 0.33319 0.0
N2430 N 0.57586 0.23537 0.59972 0.0
N2431 N 0.56594 0.25561 0.41887 0.0
H2432 H 0.31363 0.41036 0.6205 0.0
H2433 H 0.32437 0.33245 0.23309 0.0
H2434 H 0.32622 0.43956 0.43215 0.0
H2435 H 0.3189 0.30534 0.47629 0.0
H2436 H 0.32546 0.37166 0.29781 0.0
H2437 H 0.31562 0.37162 0.56326 0.0
C2438 C 0.31695 0.40848 0.56806 0.0
C2439 C 0.31985 0.4281 0.53209 0.0
C2440 C 0.32415 0.35695 0.33697 0.0
C2441 C 0.32198 0.38365 0.46312 0.0
C2442 C 0.32357 0.3346 0.30017 0.0
C2443 C 0.32148 0.31568 0.34933 0.0
C2444 C 0.32257 0.36016 0.42282 0.0
C2445 C 0.32044 0.31947 0.43573 0.0
C2446 C 0.31807 0.38634 0.53493 0.0
C2447 C 0.324 0.42474 0.46281 0.0
N2448 N 0.32091 0.34115 0.46913 0.0
N2449 N 0.32486 0.40294 0.4295 0.0
H2450 H 0.94722 0.807 0.35812 0.0
H2451 H 0.94846 0.94041 0.47667 0.0
H2452 H 0.9462 0.83136 0.61494 0.0
H2453 H 0.9444 0.91674 0.22402 0.0
H2454 H 0.9467 0.901 0.52915 0.0
H2455 H 0.94521 0.84663 0.30832 0.0
C2456 C 0.94644 0.82072 0.40406 0.0
C2457 C 0.94687 0.81599 0.49068 0.0
C2458 C 0.94605 0.90438 0.46248 0.0
C2459 C 0.94474 0.86157 0.43414 0.0
C2460 C 0.94705 0.9269 0.43241 0.0
C2461 C 0.94658 0.93178 0.34589 0.0
C2462 C 0.94469 0.88633 0.40543 0.0
C2463 C 0.94477 0.91371 0.29125 0.0
C2464 C 0.9453 0.84334 0.37557 0.0
C2465 C 0.94585 0.83429 0.54763 0.0
N2466 N 0.944 0.89163 0.32179 0.0
N2467 N 0.94495 0.8564 0.51831 0.0
H2468 H 0.32272 0.91655 0.12027 0.0
H2469 H 0.3243 0.82827 0.72552 0.0
H2470 H 0.32132 0.93816 0.86068 0.0
H2471 H 0.31943 0.80764 0.97902 0.0
H2472 H 0.32616 0.86831 0.77702 0.0
H2473 H 0.32444 0.87616 0.07211 0.0
C2474 C 0.32296 0.91288 0.05329 0.0
C2475 C 0.32186 0.93058 0.99424 0.0
C2476 C 0.3248 0.85487 0.82149 0.0
C2477 C 0.3238 0.88471 0.93871 0.0
C2478 C 0.32379 0.83204 0.79217 0.0
C2479 C 0.32167 0.81476 0.84808 0.0
C2480 C 0.32376 0.86023 0.90728 0.0
C2481 C 0.32101 0.82057 0.93376 0.0
C2482 C 0.32388 0.88986 1.02574 0.0
C2483 C 0.32211 0.9249 0.90811 0.0
N2484 N 0.32201 0.84278 0.96063 0.0
N2485 N 0.32302 0.90249 0.88291 0.0
H2486 H 0.95024 0.41555 0.70669 0.0
H2487 H 0.94303 0.32711 0.0894 0.0
H2488 H 0.94347 0.43846 0.94967 0.0
H2489 H 0.95252 0.30892 0.85632 0.0
H2490 H 0.94125 0.36677 1.03299 0.0
H2491 H 0.94918 0.375 0.75342 0.0
C2492 C 0.9483 0.41195 0.76881 0.0
C2493 C 0.94684 0.43021 0.82407 0.0
C2494 C 0.94367 0.35393 0.99421 0.0
C2495 C 0.94574 0.38398 0.87914 0.0
C2496 C 0.94466 0.33133 1.0263 0.0
C2497 C 0.948 0.31481 0.97795 0.0
C2498 C 0.946 0.35978 0.91327 0.0
C2499 C 0.94999 0.32118 0.89643 0.0
C2500 C 0.94777 0.38884 0.79605 0.0
C2501 C 0.94457 0.42472 0.90511 0.0
N2502 N 0.94901 0.34305 0.86713 0.0
N2503 N 0.94411 0.40211 0.93047 0.0
H2504 H 0.69491 0.66411 0.8494 0.0
H2505 H 0.70273 0.58709 0.44846 0.0
H2506 H 0.69812 0.69187 0.60041 0.0
H2507 H 0.69262 0.55696 0.65905 0.0
H2508 H 0.7007 0.62586 0.50582 0.0
H2509 H 0.69349 0.62494 0.78608 0.0
C2510 C 0.69511 0.66209 0.7815 0.0
C2511 C 0.69667 0.68116 0.72993 0.0
C2512 C 0.6988 0.61089 0.53911 0.0
C2513 C 0.6952 0.63676 0.65776 0.0
C2514 C 0.69994 0.58876 0.50592 0.0
C2515 C 0.69774 0.56892 0.54823 0.0
C2516 C 0.69563 0.61331 0.61711 0.0
C2517 C 0.69427 0.57196 0.62369 0.0
C2518 C 0.69435 0.63977 0.74543 0.0
C2519 C 0.69698 0.67759 0.6425 0.0
N2520 N 0.69342 0.59376 0.65672 0.0
N2521 N 0.69635 0.65591 0.60954 0.0
H2522 H 0.07123 0.05605 0.59854 0.0
H2523 H 0.06985 0.18967 0.71345 0.0
H2524 H 0.07356 0.08106 0.85313 0.0
H2525 H 0.07249 0.16533 0.45854 0.0
H2526 H 0.07219 0.15059 0.76576 0.0
H2527 H 0.07273 0.09564 0.54599 0.0
C2528 C 0.07222 0.0699 0.6433 0.0
C2529 C 0.07228 0.06533 0.73023 0.0
C2530 C 0.07237 0.15376 0.69847 0.0
C2531 C 0.07382 0.11095 0.6706 0.0
C2532 C 0.07102 0.17607 0.66847 0.0
C2533 C 0.07092 0.18064 0.5815 0.0
C2534 C 0.0735 0.13561 0.64102 0.0
C2535 C 0.07252 0.16251 0.52606 0.0
C2536 C 0.07306 0.09253 0.61322 0.0
C2537 C 0.07354 0.08384 0.78559 0.0
N2538 N 0.07363 0.14065 0.55671 0.0
N2539 N 0.07414 0.10597 0.75488 0.0
H2540 H 0.69401 0.07911 0.97317 0.0
H2541 H 0.69757 0.16517 0.37157 0.0
H2542 H 0.69911 0.05709 0.22438 0.0
H2543 H 0.69479 0.18872 0.11676 0.0
H2544 H 0.69589 0.12482 0.3233 0.0
H2545 H 0.69215 0.11879 1.02807 0.0
C2546 C 0.69457 0.0825 0.04001 0.0
C2547 C 0.69675 0.06493 0.09431 0.0
C2548 C 0.69557 0.13887 0.27796 0.0
C2549 C 0.6947 0.11001 0.15743 0.0
C2550 C 0.69646 0.16188 0.30581 0.0
C2551 C 0.69643 0.18018 0.24748 0.0
C2552 C 0.69462 0.13427 0.19132 0.0
C2553 C 0.69504 0.17499 0.16291 0.0
C2554 C 0.69357 0.10513 0.07134 0.0
C2555 C 0.69749 0.07026 0.18029 0.0
N2556 N 0.69426 0.15257 0.13708 0.0
N2557 N 0.69652 0.09227 0.20899 0.0
H2558 H 0.0736 0.66737 0.9638 0.0
H2559 H 0.07287 0.58115 0.36418 0.0
H2560 H 0.0695 0.68933 0.21834 0.0
H2561 H 0.07098 0.5582 0.10637 0.0
H2562 H 0.07454 0.62128 0.31306 0.0
H2563 H 0.07552 0.62755 1.01664 0.0
C2564 C 0.07326 0.66393 1.03083 0.0
C2565 C 0.07134 0.68151 0.08677 0.0
C2566 C 0.07389 0.60734 0.26771 0.0
C2567 C 0.07352 0.63634 0.14755 0.0
C2568 C 0.073 0.58447 0.29694 0.0
C2569 C 0.07177 0.56647 0.23929 0.0
C2570 C 0.07363 0.61203 0.18042 0.0
C2571 C 0.07188 0.5717 0.15277 0.0
C2572 C 0.07431 0.64123 0.06097 0.0
C2573 C 0.07091 0.67614 0.17303 0.0
N2574 N 0.07274 0.59396 0.12596 0.0
N2575 N 0.07195 0.65407 0.20069 0.0
H2576 H 0.82374 0.41717 0.11285 0.0
H2577 H 0.82369 0.33 0.7145 0.0
H2578 H 0.82019 0.43859 0.8565 0.0
H2579 H 0.82109 0.30785 0.97192 0.0
H2580 H 0.82541 0.37016 0.76531 0.0
H2581 H 0.82574 0.37722 0.06162 0.0
C2582 C 0.82355 0.41358 0.04578 0.0
C2583 C 0.82175 0.43105 0.98876 0.0
C2584 C 0.82459 0.35638 0.8107 0.0
C2585 C 0.82402 0.38572 0.92983 0.0
C2586 C 0.82368 0.33349 0.78168 0.0
C2587 C 0.82223 0.31572 0.83922 0.0
C2588 C 0.82414 0.36133 0.89768 0.0
C2589 C 0.82216 0.32117 0.92561 0.0
C2590 C 0.82464 0.39081 1.01655 0.0
C2591 C 0.8215 0.42549 0.90251 0.0
N2592 N 0.82305 0.34346 0.95221 0.0
N2593 N 0.82258 0.40334 0.87572 0.0
H2594 H 0.44592 0.94061 0.95831 0.0
H2595 H 0.44935 0.80627 0.851 0.0
H2596 H 0.44778 0.9142 0.70511 0.0
H2597 H 0.44466 0.83097 0.10035 0.0
H2598 H 0.44751 0.84517 0.79505 0.0
H2599 H 0.44409 0.90092 1.0094 0.0
C2600 C 0.44578 0.92641 0.91321 0.0
C2601 C 0.44696 0.93062 0.8274 0.0
C2602 C 0.44676 0.84216 0.86175 0.0
C2603 C 0.44509 0.88499 0.88572 0.0
C2604 C 0.4478 0.8199 0.89386 0.0
C2605 C 0.44718 0.81543 0.98052 0.0
C2606 C 0.44517 0.86041 0.91675 0.0
C2607 C 0.44516 0.83367 1.03309 0.0
C2608 C 0.44477 0.90375 0.94246 0.0
C2609 C 0.4468 0.9117 0.77158 0.0
N2610 N 0.44433 0.85551 1.00053 0.0
N2611 N 0.446 0.88964 0.80194 0.0
H2612 H 0.82303 0.83061 0.21555 0.0
H2613 H 0.82358 0.91794 0.61367 0.0
H2614 H 0.82114 0.80805 0.47355 0.0
H2615 H 0.81879 0.93866 0.3599 0.0
H2616 H 0.82562 0.87807 0.5615 0.0
H2617 H 0.82444 0.87095 0.26608 0.0
C2618 C 0.82311 0.83408 0.28275 0.0
C2619 C 0.82196 0.81611 0.34061 0.0
C2620 C 0.82422 0.8915 0.51723 0.0
C2621 C 0.82353 0.86191 0.39878 0.0
C2622 C 0.82309 0.91421 0.54696 0.0
C2623 C 0.82095 0.93146 0.49111 0.0
C2624 C 0.82329 0.88627 0.43109 0.0
C2625 C 0.82036 0.92573 0.40522 0.0
C2626 C 0.82385 0.85706 0.31162 0.0
C2627 C 0.82199 0.82152 0.42704 0.0
N2628 N 0.82149 0.90367 0.37795 0.0
N2629 N 0.82272 0.8439 0.45352 0.0
H2630 H 0.44746 0.33105 0.61765 0.0
H2631 H 0.44439 0.41852 0.22244 0.0
H2632 H 0.44659 0.30792 0.35923 0.0
H2633 H 0.45093 0.43878 0.47024 0.0
H2634 H 0.4426 0.37861 0.27591 0.0
H2635 H 0.44614 0.37149 0.56898 0.0
C2636 C 0.44679 0.33445 0.55102 0.0
C2637 C 0.44711 0.31625 0.49224 0.0
C2638 C 0.44435 0.39194 0.31863 0.0
C2639 C 0.44565 0.36224 0.43595 0.0
C2640 C 0.44533 0.41468 0.2882 0.0
C2641 C 0.44787 0.43185 0.3418 0.0
C2642 C 0.44584 0.38658 0.40328 0.0
C2643 C 0.44903 0.42596 0.42649 0.0
C2644 C 0.4461 0.3575 0.52306 0.0
C2645 C 0.44637 0.32158 0.40636 0.0
N2646 N 0.44804 0.40389 0.45441 0.0
N2647 N 0.4457 0.34406 0.3807 0.0
H2648 H 0.19374 0.57823 0.97365 0.0
H2649 H 0.19778 0.66561 0.36892 0.0
H2650 H 0.20095 0.55835 0.21847 0.0
H2651 H 0.19603 0.68908 0.11192 0.0
H2652 H 0.1964 0.62521 0.31981 0.0
H2653 H 0.19194 0.61806 1.02856 0.0
C2654 C 0.19484 0.58213 0.03898 0.0
C2655 C 0.19762 0.56513 0.09112 0.0
C2656 C 0.19617 0.63925 0.27434 0.0
C2657 C 0.19557 0.61028 0.15417 0.0
C2658 C 0.1969 0.66228 0.30261 0.0
C2659 C 0.19697 0.68059 0.24433 0.0
C2660 C 0.19544 0.63461 0.18741 0.0
C2661 C 0.19598 0.67534 0.1587 0.0
C2662 C 0.19385 0.60482 0.07022 0.0
C2663 C 0.19892 0.57105 0.17554 0.0
N2664 N 0.19528 0.65287 0.13271 0.0
N2665 N 0.19793 0.59305 0.2041 0.0
H2666 H 0.57144 0.05599 0.10876 0.0
H2667 H 0.57115 0.19116 0.22385 0.0
H2668 H 0.57217 0.0814 0.3645 0.0
H2669 H 0.56964 0.16423 0.97092 0.0
H2670 H 0.57307 0.15166 0.27619 0.0
H2671 H 0.57303 0.09561 0.05722 0.0
C2672 C 0.57206 0.06997 0.15413 0.0
C2673 C 0.57161 0.06553 0.24089 0.0
C2674 C 0.5725 0.15437 0.209 0.0
C2675 C 0.57313 0.11116 0.18229 0.0
C2676 C 0.57142 0.1769 0.17906 0.0
C2677 C 0.57059 0.18099 0.09246 0.0
C2678 C 0.57261 0.13565 0.15199 0.0
C2679 C 0.57064 0.16192 0.03744 0.0
C2680 C 0.57292 0.09261 0.12465 0.0
C2681 C 0.57249 0.08415 0.29706 0.0
N2682 N 0.57162 0.14004 0.06824 0.0
N2683 N 0.57308 0.1063 0.26673 0.0
H2684 H 0.1951 0.08267 0.47274 0.0
H2685 H 0.20437 0.16076 0.86475 0.0
H2686 H 0.19951 0.05544 0.71942 0.0
H2687 H 0.19224 0.18939 0.67028 0.0
H2688 H 0.20253 0.12186 0.80766 0.0
H2689 H 0.19366 0.12175 0.53699 0.0
C2690 C 0.19559 0.08477 0.54036 0.0
C2691 C 0.1975 0.06589 0.5908 0.0
C2692 C 0.20015 0.13651 0.77795 0.0
C2693 C 0.196 0.11018 0.66387 0.0
C2694 C 0.20119 0.15872 0.81095 0.0
C2695 C 0.19838 0.1782 0.77304 0.0
C2696 C 0.19643 0.13364 0.70439 0.0
C2697 C 0.19439 0.17466 0.70223 0.0
C2698 C 0.1948 0.10703 0.57692 0.0
C2699 C 0.19813 0.06957 0.67794 0.0
N2700 N 0.19362 0.15281 0.66905 0.0
N2701 N 0.19748 0.09119 0.71123 0.0
H2702 H 0.57397 0.57921 0.85495 0.0
H2703 H 0.57133 0.66588 0.45685 0.0
H2704 H 0.56775 0.55844 0.60632 0.0
H2705 H 0.57226 0.6894 0.71478 0.0
H2706 H 0.57263 0.62549 0.50638 0.0
H2707 H 0.57594 0.6189 0.80044 0.0
C2708 C 0.57314 0.58289 0.78884 0.0
C2709 C 0.57062 0.56565 0.73531 0.0
C2710 C 0.57269 0.63956 0.55199 0.0
C2711 C 0.57286 0.61068 0.67258 0.0
C2712 C 0.57202 0.66257 0.52353 0.0
C2713 C 0.57171 0.68087 0.58194 0.0
C2714 C 0.57312 0.63495 0.63924 0.0
C2715 C 0.57247 0.67567 0.66791 0.0
C2716 C 0.57422 0.6055 0.75777 0.0
C2717 C 0.56961 0.57133 0.65008 0.0
N2718 N 0.57311 0.65323 0.69405 0.0
N2719 N 0.57069 0.59328 0.62157 0.0
H2720 H 0.3178 0.17673 0.32127 0.0
H2721 H 0.31954 0.07119 0.98773 0.0
H2722 H 0.32358 0.18565 0.06207 0.0
H2723 H 0.3222 0.06187 0.25526 0.0
H2724 H 0.31824 0.11338 1.01154 0.0
H2725 H 0.31661 0.13458 0.29527 0.0
C2726 C 0.3187 0.16989 0.25865 0.0
C2727 C 0.32083 0.18463 0.1938 0.0
C2728 C 0.31901 0.102 0.06507 0.0
C2729 C 0.31944 0.13668 0.16353 0.0
C2730 C 0.3197 0.07796 0.05153 0.0
C2731 C 0.321 0.06312 0.11968 0.0
C2732 C 0.31947 0.1111 0.14745 0.0
C2733 C 0.32124 0.0728 0.20103 0.0
C2734 C 0.31806 0.14587 0.24394 0.0
C2735 C 0.32196 0.17484 0.11391 0.0
N2736 N 0.32049 0.09614 0.21271 0.0
N2737 N 0.32127 0.15153 0.10104 0.0
H2738 H 0.94521 0.18588 0.26057 0.0
H2739 H 0.94661 0.06047 0.06209 0.0
H2740 H 0.95052 0.17551 1.00034 0.0
H2741 H 0.95013 0.07162 0.32709 0.0
H2742 H 0.94787 0.10231 0.03738 0.0
H2743 H 0.94679 0.14428 0.28667 0.0
C2744 C 0.94679 0.17483 0.2091 0.0
C2745 C 0.94772 0.1841 0.12811 0.0
C2746 C 0.94849 0.09561 0.10072 0.0
C2747 C 0.94943 0.13635 0.15728 0.0
C2748 C 0.94777 0.07175 0.11489 0.0
C2749 C 0.94828 0.06263 0.19666 0.0
C2750 C 0.94957 0.11063 0.16919 0.0
C2751 C 0.94974 0.07797 0.26299 0.0
C2752 C 0.94771 0.15111 0.22416 0.0
C2753 C 0.94977 0.16905 0.06374 0.0
N2754 N 0.95023 0.10131 0.24803 0.0
N2755 N 0.95045 0.14581 0.07937 0.0
H2756 H 0.70086 0.92612 0.0761 0.0
H2757 H 0.70023 0.81997 0.74479 0.0
H2758 H 0.69594 0.93459 0.81365 0.0
H2759 H 0.6964 0.81138 1.01021 0.0
H2760 H 0.70156 0.86217 0.76827 0.0
H2761 H 0.70214 0.88396 0.05166 0.0
C2762 C 0.70018 0.91918 1.01311 0.0
C2763 C 0.69826 0.93377 0.94681 0.0
C2764 C 0.70052 0.85094 0.82146 0.0
C2765 C 0.69975 0.88583 0.91836 0.0
C2766 C 0.69981 0.8269 0.80815 0.0
C2767 C 0.69818 0.81226 0.87569 0.0
C2768 C 0.69973 0.86024 0.90306 0.0
C2769 C 0.69762 0.82214 0.95644 0.0
C2770 C 0.70087 0.89516 0.99929 0.0
C2771 C 0.69739 0.92387 0.86651 0.0
N2772 N 0.69839 0.84548 0.96792 0.0
N2773 N 0.69813 0.90056 0.85451 0.0
H2774 H 0.07051 0.93682 1.01115 0.0
H2775 H 0.07454 0.81108 0.81684 0.0
H2776 H 0.0701 0.92449 0.74307 0.0
H2777 H 0.06757 0.82096 0.07058 0.0
H2778 H 0.07295 0.85248 0.78916 0.0
H2779 H 0.0693 0.89486 1.03553 0.0
C2780 C 0.07005 0.92524 0.95744 0.0
C2781 C 0.07037 0.93406 0.87508 0.0
C2782 C 0.07167 0.84562 0.85056 0.0
C2783 C 0.06919 0.88598 0.90233 0.0
C2784 C 0.0726 0.82197 0.86658 0.0
C2785 C 0.07121 0.81258 0.94629 0.0
C2786 C 0.06944 0.86026 0.91516 0.0
C2787 C 0.0687 0.8275 1.00825 0.0
C2788 C 0.06936 0.90131 0.97137 0.0
C2789 C 0.06979 0.91838 0.80756 0.0
N2790 N 0.06798 0.85071 0.99178 0.0
N2791 N 0.06935 0.89505 0.82267 0.0
H2792 H 0.33268 0.68162 0.64571 0.0
H2793 H 0.31497 0.55854 0.66012 0.0
H2794 H 0.31423 0.67592 0.76924 0.0
H2795 H 0.33059 0.57733 0.49445 0.0
H2796 H 0.31385 0.60016 0.69992 0.0
H2797 H 0.33146 0.64266 0.59127 0.0
C2798 C 0.32833 0.67208 0.66154 0.0
C2799 C 0.32359 0.68209 0.71287 0.0
C2800 C 0.31741 0.59514 0.65348 0.0
C2801 C 0.32212 0.63648 0.6501 0.0
C2802 C 0.31802 0.57145 0.63023 0.0
C2803 C 0.3229 0.5645 0.57386 0.0
C2804 C 0.32173 0.61172 0.62002 0.0
C2805 C 0.32679 0.58184 0.53831 0.0
C2806 C 0.32761 0.64969 0.62982 0.0
C2807 C 0.31802 0.66883 0.72993 0.0
N2808 N 0.32615 0.6044 0.56235 0.0
N2809 N 0.31747 0.64648 0.69951 0.0
H2810 H 0.9513 0.67691 0.50359 0.0
H2811 H 0.9481 0.57242 0.83902 0.0
H2812 H 0.94407 0.68561 0.75668 0.0
H2813 H 0.9481 0.56145 0.57005 0.0
H2814 H 0.94922 0.61458 0.81476 0.0
H2815 H 0.95275 0.63498 0.53203 0.0
C2816 C 0.95012 0.67008 0.56536 0.0
C2817 C 0.94751 0.68466 0.62767 0.0
C2818 C 0.9491 0.60289 0.7611 0.0
C2819 C 0.94918 0.63703 0.66072 0.0
C2820 C 0.94851 0.57886 0.77502 0.0
C2821 C 0.94802 0.56356 0.70633 0.0
C2822 C 0.94931 0.61154 0.67801 0.0
C2823 C 0.94845 0.57278 0.62457 0.0
C2824 C 0.95091 0.64619 0.58146 0.0
C2825 C 0.94605 0.67492 0.70663 0.0
N2826 N 0.94907 0.59615 0.61257 0.0
N2827 N 0.94688 0.65178 0.72081 0.0
H2828 H 0.69962 0.42516 0.58374 0.0
H2829 H 0.70125 0.32045 0.24629 0.0
H2830 H 0.69788 0.43562 0.31559 0.0
H2831 H 0.69478 0.31206 0.50293 0.0
H2832 H 0.70302 0.36227 0.27449 0.0
H2833 H 0.70093 0.38306 0.55847 0.0
C2834 C 0.69972 0.41867 0.51954 0.0
C2835 C 0.69865 0.43378 0.45155 0.0
C2836 C 0.7013 0.35113 0.32481 0.0
C2837 C 0.70012 0.38589 0.42214 0.0
C2838 C 0.70032 0.3273 0.30882 0.0
C2839 C 0.69782 0.31286 0.37221 0.0
C2840 C 0.69989 0.36036 0.40511 0.0
C2841 C 0.69668 0.32264 0.45211 0.0
C2842 C 0.7004 0.39467 0.50512 0.0
C2843 C 0.69869 0.42446 0.36961 0.0
N2844 N 0.6977 0.34572 0.46623 0.0
N2845 N 0.69938 0.40114 0.35712 0.0
H2846 H 0.08233 0.31523 0.38393 0.0
H2847 H 0.06215 0.43383 0.42163 0.0
H2848 H 0.06433 0.31726 0.5202 0.0
H2849 H 0.08099 0.4268 0.31056 0.0
H2850 H 0.06204 0.39139 0.44957 0.0
H2851 H 0.08121 0.35592 0.35066 0.0
C2852 C 0.07811 0.32427 0.40724 0.0
C2853 C 0.07343 0.31264 0.45536 0.0
C2854 C 0.06615 0.39913 0.41809 0.0
C2855 C 0.07207 0.36017 0.4162 0.0
C2856 C 0.06618 0.42322 0.40134 0.0
C2857 C 0.07155 0.43362 0.36259 0.0
C2858 C 0.07154 0.38556 0.39601 0.0
C2859 C 0.07672 0.41938 0.33944 0.0
C2860 C 0.07747 0.34773 0.3879 0.0
C2861 C 0.06808 0.32557 0.48347 0.0
N2862 N 0.07659 0.39623 0.35664 0.0
N2863 N 0.06754 0.34873 0.46334 0.0
H2864 H 0.82606 0.06143 0.75176 0.0
H2865 H 0.81888 0.18685 0.5664 0.0
H2866 H 0.81748 0.07044 0.50609 0.0
H2867 H 0.82173 0.1741 0.83147 0.0
H2868 H 0.81798 0.1447 0.54232 0.0
H2869 H 0.82435 0.10259 0.78135 0.0
C2870 C 0.82376 0.07209 0.70411 0.0
C2871 C 0.82195 0.0625 0.62605 0.0
C2872 C 0.81869 0.15108 0.60597 0.0
C2873 C 0.82 0.11 0.65962 0.0
C2874 C 0.81918 0.1751 0.61973 0.0
C2875 C 0.82032 0.18386 0.70104 0.0
C2876 C 0.81954 0.13566 0.67376 0.0
C2877 C 0.82076 0.16802 0.76801 0.0
C2878 C 0.82276 0.09563 0.72129 0.0
C2879 C 0.81895 0.07714 0.56701 0.0
N2880 N 0.82047 0.14467 0.75267 0.0
N2881 N 0.81814 0.10027 0.5846 0.0
H2882 H 0.45076 0.17586 0.50035 0.0
H2883 H 0.44903 0.0715 0.83821 0.0
H2884 H 0.44489 0.18537 0.75899 0.0
H2885 H 0.44692 0.06106 0.5703 0.0
H2886 H 0.45029 0.11364 0.81307 0.0
H2887 H 0.45214 0.1339 0.52821 0.0
C2888 C 0.44988 0.1692 0.56321 0.0
C2889 C 0.44766 0.18402 0.62733 0.0
C2890 C 0.44965 0.10203 0.75977 0.0
C2891 C 0.44926 0.13631 0.65976 0.0
C2892 C 0.44898 0.07802 0.77411 0.0
C2893 C 0.44784 0.06289 0.70618 0.0
C2894 C 0.44931 0.1108 0.67689 0.0
C2895 C 0.44775 0.07224 0.62436 0.0
C2896 C 0.45063 0.14529 0.579 0.0
C2897 C 0.44656 0.17448 0.70762 0.0
N2898 N 0.44846 0.09555 0.61195 0.0
N2899 N 0.44735 0.15128 0.72152 0.0
H2900 H 0.19733 0.92576 0.58783 0.0
H2901 H 0.20084 0.8212 0.25176 0.0
H2902 H 0.19749 0.93687 0.31909 0.0
H2903 H 0.19351 0.81235 0.50421 0.0
H2904 H 0.20212 0.86326 0.28024 0.0
H2905 H 0.19839 0.88358 0.56296 0.0
C2906 C 0.19775 0.91934 0.52375 0.0
C2907 C 0.19733 0.9347 0.45532 0.0
C2908 C 0.20029 0.85199 0.32948 0.0
C2909 C 0.19857 0.88668 0.42625 0.0
C2910 C 0.1996 0.82802 0.31336 0.0
C2911 C 0.19701 0.81332 0.37548 0.0
C2912 C 0.19849 0.86115 0.40859 0.0
C2913 C 0.19546 0.82309 0.45425 0.0
C2914 C 0.19831 0.8953 0.50947 0.0
C2915 C 0.19778 0.9255 0.37343 0.0
N2916 N 0.19621 0.8463 0.46844 0.0
N2917 N 0.19838 0.90212 0.36108 0.0
H2918 H 0.57198 0.81036 0.31508 0.0
H2919 H 0.57381 0.9367 0.50939 0.0
H2920 H 0.56979 0.82264 0.58176 0.0
H2921 H 0.56845 0.92538 0.24973 0.0
H2922 H 0.57231 0.8952 0.53728 0.0
H2923 H 0.57059 0.85209 0.28903 0.0
C2924 C 0.57111 0.82188 0.36809 0.0
C2925 C 0.57101 0.8131 0.45065 0.0
C2926 C 0.57136 0.90176 0.47446 0.0
C2927 C 0.56956 0.86099 0.42152 0.0
C2928 C 0.57223 0.92546 0.45838 0.0
C2929 C 0.57128 0.93446 0.37704 0.0
C2930 C 0.56965 0.88672 0.40831 0.0
C2931 C 0.56923 0.91914 0.31337 0.0
C2932 C 0.57031 0.84568 0.35315 0.0
C2933 C 0.56987 0.82871 0.51711 0.0
N2934 N 0.56858 0.89592 0.33003 0.0
N2935 N 0.5693 0.85198 0.50123 0.0
H2936 H 0.81689 0.67671 0.31625 0.0
H2937 H 0.82103 0.57157 0.9844 0.0
H2938 H 0.82439 0.68521 0.06442 0.0
H2939 H 0.82026 0.56113 0.25332 0.0
H2940 H 0.81985 0.61376 1.0073 0.0
H2941 H 0.81565 0.63463 0.28864 0.0
C2942 C 0.81817 0.6698 0.25488 0.0
C2943 C 0.82079 0.68439 0.1927 0.0
C2944 C 0.81982 0.60219 0.06122 0.0
C2945 C 0.81938 0.63655 0.1607 0.0
C2946 C 0.82044 0.57815 0.04805 0.0
C2947 C 0.82072 0.56299 0.11718 0.0
C2948 C 0.81936 0.61101 0.14398 0.0
C2949 C 0.82007 0.57236 0.19852 0.0
C2950 C 0.8175 0.64582 0.23928 0.0
C2951 C 0.82239 0.67453 0.11432 0.0
N2952 N 0.81942 0.59576 0.20978 0.0
N2953 N 0.82168 0.6513 0.10067 0.0
H2954 H 0.44351 0.56134 0.06615 0.0
H2955 H 0.44865 0.68736 0.25624 0.0
H2956 H 0.45151 0.57138 0.31482 0.0
H2957 H 0.44771 0.67469 0.98861 0.0
H2958 H 0.44979 0.64536 0.2804 0.0
H2959 H 0.44491 0.60277 0.03764 0.0
C2960 C 0.44564 0.57227 0.11459 0.0
C2961 C 0.44737 0.5629 0.19316 0.0
C2962 C 0.44943 0.65174 0.2163 0.0
C2963 C 0.44895 0.61063 0.16092 0.0
C2964 C 0.44879 0.67568 0.2025 0.0
C2965 C 0.44812 0.68442 0.12039 0.0
C2966 C 0.44921 0.63633 0.14753 0.0
C2967 C 0.44829 0.66864 0.05284 0.0
C2968 C 0.44645 0.59595 0.09805 0.0
C2969 C 0.45011 0.5779 0.2534 0.0
N2970 N 0.4487 0.6453 0.06799 0.0
N2971 N 0.45074 0.60112 0.23643 0.0
H2972 H 0.19756 0.31023 1.00752 0.0
H2973 H 0.1943 0.43627 0.81756 0.0
H2974 H 0.19906 0.3231 0.74061 0.0
H2975 H 0.20049 0.42569 0.07433 0.0
H2976 H 0.19614 0.39503 0.7883 0.0
H2977 H 0.19891 0.35201 1.03446 0.0
C2978 C 0.19832 0.32188 0.95468 0.0
C2979 C 0.19823 0.31327 0.87182 0.0
C2980 C 0.19719 0.40171 0.85076 0.0
C2981 C 0.19956 0.3612 0.90189 0.0
C2982 C 0.19612 0.42525 0.86768 0.0
C2983 C 0.1972 0.43438 0.94867 0.0
C2984 C 0.19925 0.3869 0.91574 0.0
C2985 C 0.19959 0.41934 1.01104 0.0
C2986 C 0.19908 0.34571 0.97007 0.0
C2987 C 0.19918 0.32904 0.80547 0.0
N2988 N 0.20043 0.39623 0.99366 0.0
N2989 N 0.19968 0.35232 0.82185 0.0
H2990 H 0.57254 0.32226 0.08695 0.0
H2991 H 0.56702 0.42688 0.7569 0.0
H2992 H 0.56937 0.31055 0.82166 0.0
H2993 H 0.57643 0.43486 0.99799 0.0
H2994 H 0.5657 0.3849 0.78642 0.0
H2995 H 0.57182 0.36447 0.06246 0.0
C2996 C 0.57152 0.32861 1.02398 0.0
C2997 C 0.57099 0.31304 0.95618 0.0
C2998 C 0.56802 0.39596 0.8329 0.0
C2999 C 0.57015 0.36114 0.92747 0.0
C3000 C 0.56874 0.41987 0.81617 0.0
C3001 C 0.57188 0.43433 0.87477 0.0
C3002 C 0.57037 0.38661 0.90912 0.0
C3003 C 0.57402 0.42435 0.95069 0.0
C3004 C 0.57116 0.35266 1.00978 0.0
C3005 C 0.56981 0.3221 0.87544 0.0
N3006 N 0.57324 0.40121 0.96554 0.0
N3007 N 0.56942 0.34555 0.86322 0.0
loop_
_geom_bond_atom_site_label_1
_geom_bond_atom_site_label_2
_geom_bond_distance
_geom_bond_site_symmetry_2
_ccdc_geom_bond_type
Nd0 C2 2.836 . S
Nd0 O20 2.500 . S
Nd0 O21 2.492 . S
Nd0 O22 2.487 . S
Nd0 O23 2.682 . S
Nd0 O24 2.410 . S
Nd0 O29 2.414 . S
Nd0 O31 2.424 . S
Nd1 C11 2.836 . S
Nd1 O23 2.414 . S
Nd1 O25 2.424 . S
Nd1 O26 2.500 . S
Nd1 O27 2.492 . S
Nd1 O28 2.487 . S
Nd1 O29 2.682 . S
Nd1 O30 2.410 . S
C2 Nd0 2.836 . S
C2 C3 1.498 . S
C2 O20 1.258 . S
C2 O21 1.239 . S
C3 C2 1.498 . S
C3 C4 1.366 . S
C3 C8 1.407 . S
C4 C3 1.366 . S
C4 C5 1.392 1_554 S
C4 H32 0.930 . S
C5 C4 1.392 1_556 S
C5 C6 1.398 1_556 S
C5 H33 0.929 . S
C6 C5 1.398 1_554 S
C6 C7 1.352 . S
C7 C6 1.352 . S
C7 C8 1.384 . S
C7 H34 0.930 . S
C8 C3 1.407 . S
C8 C7 1.384 . S
C8 H35 0.929 . S
C9 O22 1.241 . S
C9 O23 1.273 . S
C10 O24 1.251 . S
C10 O25 1.268 . S
C11 Nd1 2.836 . S
C11 C12 1.498 . S
C11 O26 1.258 . S
C11 O27 1.239 . S
C12 C11 1.498 . S
C12 C13 1.366 . S
C12 C17 1.407 . S
C13 C12 1.366 . S
C13 C14 1.392 . S
C13 H36 0.930 . S
C14 C13 1.392 . S
C14 C15 1.398 . S
C14 H37 0.929 . S
C15 C14 1.398 . S
C15 C16 1.352 . S
C16 C15 1.352 . S
C16 C17 1.384 . S
C16 H38 0.930 . S
C17 C12 1.407 . S
C17 C16 1.384 . S
C17 H39 0.929 . S
C18 O28 1.241 . S
C18 O29 1.273 . S
C19 O30 1.251 . S
C19 O31 1.268 . S
O20 Nd0 2.500 . S
O20 C2 1.258 . S
O21 Nd0 2.492 . S
O21 C2 1.239 . S
O22 Nd0 2.487 . S
O22 C9 1.241 . S
O23 Nd0 2.682 . S
O23 Nd1 2.414 . S
O23 C9 1.273 . S
O24 Nd0 2.410 . S
O24 C10 1.251 . S
O25 Nd1 2.424 . S
O25 C10 1.268 . S
O26 Nd1 2.500 . S
O26 C11 1.258 . S
O27 Nd1 2.492 . S
O27 C11 1.239 . S
O28 Nd1 2.487 . S
O28 C18 1.241 . S
O29 Nd0 2.414 . S
O29 Nd1 2.682 . S
O29 C18 1.273 . S
O30 Nd1 2.410 . S
O30 C19 1.251 . S
O31 Nd0 2.424 . S
O31 C19 1.268 . S
H32 C4 0.930 . S
H33 C5 0.929 . S
H34 C7 0.930 . S
H35 C8 0.929 . S
H36 C13 0.930 . S
H37 C14 0.929 . S
H38 C16 0.930 . S
H39 C17 0.929 . S
Nd40 C42 2.836 . S
Nd40 O60 2.500 1_565 S
Nd40 O61 2.492 . S
Nd40 O62 2.487 . S
Nd40 O63 2.682 . S
Nd40 O64 2.410 . S
Nd40 O69 2.414 1_565 S
Nd40 O71 2.426 . S
Nd41 C51 2.836 . S
Nd41 O63 2.414 . S
Nd41 O65 2.424 . S
Nd41 O66 2.500 . S
Nd41 O67 2.492 1_565 S
Nd41 O68 2.487 1_565 S
Nd41 O69 2.682 1_565 S
Nd41 O70 2.410 1_565 S
C42 Nd40 2.836 . S
C42 C43 1.498 . S
C42 O60 1.258 1_565 S
C42 O61 1.239 . S
C43 C42 1.498 . S
C43 C44 1.366 1_565 S
C43 C48 1.407 . S
C44 C43 1.366 1_545 S
C44 C45 1.392 1_554 S
C44 H72 0.930 . S
C45 C44 1.392 1_556 S
C45 C46 1.398 1_546 S
C45 H73 0.929 . S
C46 C45 1.398 1_564 S
C46 C47 1.352 . S
C47 C46 1.352 . S
C47 C48 1.384 . S
C47 H74 0.930 . S
C48 C43 1.407 . S
C48 C47 1.384 . S
C48 H75 0.929 . S
C49 O62 1.241 . S
C49 O63 1.273 . S
C50 O64 1.251 . S
C50 O65 1.268 . S
C51 Nd41 2.836 . S
C51 C52 1.498 . S
C51 O66 1.258 . S
C51 O67 1.239 1_565 S
C52 C51 1.498 . S
C52 C53 1.366 . S
C52 C57 1.407 1_565 S
C53 C52 1.366 . S
C53 C54 1.392 . S
C53 H76 0.930 . S
C54 C53 1.392 . S
C54 C55 1.398 . S
C54 H77 0.929 . S
C55 C54 1.398 . S
C55 C56 1.352 1_565 S
C56 C55 1.352 1_545 S
C56 C57 1.384 . S
C56 H78 0.930 . S
C57 C52 1.407 1_545 S
C57 C56 1.384 . S
C57 H79 0.929 . S
C58 O68 1.241 . S
C58 O69 1.273 . S
C59 O70 1.251 . S
C59 O71 1.266 1_545 S
O60 Nd40 2.500 1_545 S
O60 C42 1.258 1_545 S
O61 Nd40 2.492 . S
O61 C42 1.239 . S
O62 Nd40 2.487 . S
O62 C49 1.241 . S
O63 Nd40 2.682 . S
O63 Nd41 2.414 . S
O63 C49 1.273 . S
O64 Nd40 2.410 . S
O64 C50 1.251 . S
O65 Nd41 2.424 . S
O65 C50 1.268 . S
O66 Nd41 2.500 . S
O66 C51 1.258 . S
O67 Nd41 2.492 1_545 S
O67 C51 1.239 1_545 S
O68 Nd41 2.487 1_545 S
O68 C58 1.241 . S
O69 Nd40 2.414 1_545 S
O69 Nd41 2.682 1_545 S
O69 C58 1.273 . S
O70 Nd41 2.410 1_545 S
O70 C59 1.251 . S
O71 Nd40 2.426 . S
O71 C59 1.266 1_565 S
H72 C44 0.930 . S
H73 C45 0.929 . S
H74 C47 0.930 . S
H75 C48 0.929 . S
H76 C53 0.930 . S
H77 C54 0.929 . S
H78 C56 0.930 . S
H79 C57 0.929 . S
Nd80 C82 2.836 . S
Nd80 O100 2.500 1_565 S
Nd80 O101 2.492 . S
Nd80 O102 2.487 1_554 S
Nd80 O103 2.682 . S
Nd80 O104 2.410 . S
Nd80 O109 2.414 1_565 S
Nd80 O111 2.426 1_554 S
Nd81 C91 2.836 1_554 S
Nd81 O103 2.414 . S
Nd81 O105 2.424 . S
Nd81 O106 2.500 1_554 S
Nd81 O107 2.492 1_564 S
Nd81 O108 2.487 1_565 S
Nd81 O109 2.682 1_565 S
Nd81 O110 2.410 1_564 S
C82 Nd80 2.836 . S
C82 C83 1.498 . S
C82 O100 1.258 1_565 S
C82 O101 1.239 . S
C83 C82 1.498 . S
C83 C84 1.366 1_565 S
C83 C88 1.407 . S
C84 C83 1.366 1_545 S
C84 C85 1.392 . S
C84 H112 0.930 . S
C85 C84 1.392 . S
C85 C86 1.398 1_545 S
C85 H113 0.929 . S
C86 C85 1.398 1_565 S
C86 C87 1.352 . S
C87 C86 1.352 . S
C87 C88 1.384 . S
C87 H114 0.930 . S
C88 C83 1.407 . S
C88 C87 1.384 . S
C88 H115 0.929 . S
C89 O102 1.241 . S
C89 O103 1.273 1_556 S
C90 O104 1.251 . S
C90 O105 1.268 . S
C91 Nd81 2.836 1_556 S
C91 C92 1.498 . S
C91 O106 1.258 . S
C91 O107 1.239 1_565 S
C92 C91 1.498 . S
C92 C93 1.366 . S
C92 C97 1.407 1_565 S
C93 C92 1.366 . S
C93 C94 1.392 . S
C93 H116 0.930 . S
C94 C93 1.392 . S
C94 C95 1.398 . S
C94 H117 0.929 . S
C95 C94 1.398 . S
C95 C96 1.352 1_565 S
C96 C95 1.352 1_545 S
C96 C97 1.384 . S
C96 H118 0.930 . S
C97 C92 1.407 1_545 S
C97 C96 1.384 . S
C97 H119 0.929 . S
C98 O108 1.241 . S
C98 O109 1.273 . S
C99 O110 1.251 . S
C99 O111 1.265 1_545 S
O100 Nd80 2.500 1_545 S
O100 C82 1.258 1_545 S
O101 Nd80 2.492 . S
O101 C82 1.239 . S
O102 Nd80 2.487 1_556 S
O102 C89 1.241 . S
O103 Nd80 2.682 . S
O103 Nd81 2.414 . S
O103 C89 1.273 1_554 S
O104 Nd80 2.410 . S
O104 C90 1.251 . S
O105 Nd81 2.424 . S
O105 C90 1.268 . S
O106 Nd81 2.500 1_556 S
O106 C91 1.258 . S
O107 Nd81 2.492 1_546 S
O107 C91 1.239 1_545 S
O108 Nd81 2.487 1_545 S
O108 C98 1.241 . S
O109 Nd80 2.414 1_545 S
O109 Nd81 2.682 1_545 S
O109 C98 1.273 . S
O110 Nd81 2.410 1_546 S
O110 C99 1.251 . S
O111 Nd80 2.426 1_556 S
O111 C99 1.265 1_565 S
H112 C84 0.930 . S
H113 C85 0.929 . S
H114 C87 0.930 . S
H115 C88 0.929 . S
H116 C93 0.930 . S
H117 C94 0.929 . S
H118 C96 0.930 . S
H119 C97 0.929 . S
Nd120 C122 2.836 . S
Nd120 O140 2.500 . S
Nd120 O141 2.492 . S
Nd120 O142 2.487 1_554 S
Nd120 O143 2.682 . S
Nd120 O144 2.410 . S
Nd120 O149 2.414 . S
Nd120 O151 2.424 1_554 S
Nd121 C131 2.836 1_554 S
Nd121 O143 2.414 . S
Nd121 O145 2.424 . S
Nd121 O146 2.500 1_554 S
Nd121 O147 2.492 1_554 S
Nd121 O148 2.487 . S
Nd121 O149 2.682 . S
Nd121 O150 2.410 1_554 S
C122 Nd120 2.836 . S
C122 C123 1.498 . S
C122 O140 1.258 . S
C122 O141 1.239 . S
C123 C122 1.498 . S
C123 C124 1.366 . S
C123 C128 1.407 . S
C124 C123 1.366 . S
C124 C125 1.392 . S
C124 H152 0.930 . S
C125 C124 1.392 . S
C125 C126 1.398 . S
C125 H153 0.929 . S
C126 C125 1.398 . S
C126 C127 1.352 . S
C127 C126 1.352 . S
C127 C128 1.384 . S
C127 H154 0.930 . S
C128 C123 1.407 . S
C128 C127 1.384 . S
C128 H155 0.929 . S
C129 O142 1.241 . S
C129 O143 1.273 1_556 S
C130 O144 1.251 . S
C130 O145 1.268 . S
C131 Nd121 2.836 1_556 S
C131 C132 1.498 . S
C131 O146 1.258 . S
C131 O147 1.239 . S
C132 C131 1.498 . S
C132 C133 1.366 . S
C132 C137 1.407 . S
C133 C132 1.366 . S
C133 C134 1.392 . S
C133 H156 0.930 . S
C134 C133 1.392 . S
C134 C135 1.398 . S
C134 H157 0.929 . S
C135 C134 1.398 . S
C135 C136 1.352 . S
C136 C135 1.352 . S
C136 C137 1.384 . S
C136 H158 0.930 . S
C137 C132 1.407 . S
C137 C136 1.384 . S
C137 H159 0.929 . S
C138 O148 1.241 . S
C138 O149 1.273 . S
C139 O150 1.251 . S
C139 O151 1.268 . S
O140 Nd120 2.500 . S
O140 C122 1.258 . S
O141 Nd120 2.492 . S
O141 C122 1.239 . S
O142 Nd120 2.487 1_556 S
O142 C129 1.241 . S
O143 Nd120 2.682 . S
O143 Nd121 2.414 . S
O143 C129 1.273 1_554 S
O144 Nd120 2.410 . S
O144 C130 1.251 . S
O145 Nd121 2.424 . S
O145 C130 1.268 . S
O146 Nd121 2.500 1_556 S
O146 C131 1.258 . S
O147 Nd121 2.492 1_556 S
O147 C131 1.239 . S
O148 Nd121 2.487 . S
O148 C138 1.241 . S
O149 Nd120 2.414 . S
O149 Nd121 2.682 . S
O149 C138 1.273 . S
O150 Nd121 2.410 1_556 S
O150 C139 1.251 . S
O151 Nd120 2.424 1_556 S
O151 C139 1.268 . S
H152 C124 0.930 . S
H153 C125 0.929 . S
H154 C127 0.930 . S
H155 C128 0.929 . S
H156 C133 0.930 . S
H157 C134 0.929 . S
H158 C136 0.930 . S
H159 C137 0.929 . S
Nd160 C162 2.836 . S
Nd160 O180 2.500 . S
Nd160 O181 2.492 . S
Nd160 O182 2.487 . S
Nd160 O183 2.682 . S
Nd160 O184 2.410 . S
Nd160 O189 2.414 . S
Nd160 O191 2.424 . S
Nd161 C171 2.836 . S
Nd161 O183 2.414 . S
Nd161 O185 2.424 . S
Nd161 O186 2.500 . S
Nd161 O187 2.492 . S
Nd161 O188 2.487 . S
Nd161 O189 2.682 . S
Nd161 O190 2.410 . S
C162 Nd160 2.836 . S
C162 C163 1.498 . S
C162 O180 1.258 . S
C162 O181 1.239 . S
C163 C162 1.498 . S
C163 C164 1.366 . S
C163 C168 1.407 . S
C164 C163 1.366 . S
C164 C165 1.392 . S
C164 H192 0.930 . S
C165 C164 1.392 . S
C165 C166 1.398 . S
C165 H193 0.929 . S
C166 C165 1.398 . S
C166 C167 1.352 . S
C167 C166 1.352 . S
C167 C168 1.384 . S
C167 H194 0.930 . S
C168 C163 1.407 . S
C168 C167 1.384 . S
C168 H195 0.929 . S
C169 O182 1.241 . S
C169 O183 1.273 . S
C170 O184 1.251 . S
C170 O185 1.268 . S
C171 Nd161 2.836 . S
C171 C172 1.498 . S
C171 O186 1.258 . S
C171 O187 1.239 . S
C172 C171 1.498 . S
C172 C173 1.366 . S
C172 C177 1.407 . S
C173 C172 1.366 . S
C173 C174 1.392 1_556 S
C173 H196 0.930 . S
C174 C173 1.392 1_554 S
C174 C175 1.398 1_554 S
C174 H197 0.929 . S
C175 C174 1.398 1_556 S
C175 C176 1.352 . S
C176 C175 1.352 . S
C176 C177 1.384 . S
C176 H198 0.930 . S
C177 C172 1.407 . S
C177 C176 1.384 . S
C177 H199 0.929 . S
C178 O188 1.241 . S
C178 O189 1.273 . S
C179 O190 1.251 . S
C179 O191 1.268 . S
O180 Nd160 2.500 . S
O180 C162 1.258 . S
O181 Nd160 2.492 . S
O181 C162 1.239 . S
O182 Nd160 2.487 . S
O182 C169 1.241 . S
O183 Nd160 2.682 . S
O183 Nd161 2.414 . S
O183 C169 1.273 . S
O184 Nd160 2.410 . S
O184 C170 1.251 . S
O185 Nd161 2.424 . S
O185 C170 1.268 . S
O186 Nd161 2.500 . S
O186 C171 1.258 . S
O187 Nd161 2.492 . S
O187 C171 1.239 . S
O188 Nd161 2.487 . S
O188 C178 1.241 . S
O189 Nd160 2.414 . S
O189 Nd161 2.682 . S
O189 C178 1.273 . S
O190 Nd161 2.410 . S
O190 C179 1.251 . S
O191 Nd160 2.424 . S
O191 C179 1.268 . S
H192 C164 0.930 . S
H193 C165 0.929 . S
H194 C167 0.930 . S
H195 C168 0.929 . S
H196 C173 0.930 . S
H197 C174 0.929 . S
H198 C176 0.930 . S
H199 C177 0.929 . S
Nd200 C202 2.836 . S
Nd200 O220 2.500 . S
Nd200 O221 2.492 1_545 S
Nd200 O222 2.487 1_545 S
Nd200 O223 2.682 1_545 S
Nd200 O224 2.410 1_545 S
Nd200 O229 2.414 . S
Nd200 O231 2.424 . S
Nd201 C211 2.836 . S
Nd201 O223 2.414 1_545 S
Nd201 O225 2.426 . S
Nd201 O226 2.500 1_545 S
Nd201 O227 2.492 . S
Nd201 O228 2.487 . S
Nd201 O229 2.682 . S
Nd201 O230 2.410 . S
C202 Nd200 2.836 . S
C202 C203 1.498 . S
C202 O220 1.258 . S
C202 O221 1.239 1_545 S
C203 C202 1.498 . S
C203 C204 1.366 . S
C203 C208 1.407 1_545 S
C204 C203 1.366 . S
C204 C205 1.392 . S
C204 H232 0.930 . S
C205 C204 1.392 . S
C205 C206 1.398 . S
C205 H233 0.929 . S
C206 C205 1.398 . S
C206 C207 1.352 1_545 S
C207 C206 1.352 1_565 S
C207 C208 1.384 . S
C207 H234 0.930 . S
C208 C203 1.407 1_565 S
C208 C207 1.384 . S
C208 H235 0.929 . S
C209 O222 1.241 . S
C209 O223 1.273 . S
C210 O224 1.251 . S
C210 O225 1.266 1_565 S
C211 Nd201 2.836 . S
C211 C212 1.498 . S
C211 O226 1.258 1_545 S
C211 O227 1.239 . S
C212 C211 1.498 . S
C212 C213 1.366 1_545 S
C212 C217 1.407 . S
C213 C212 1.366 1_565 S
C213 C214 1.392 1_556 S
C213 H236 0.930 . S
C214 C213 1.392 1_554 S
C214 C215 1.398 1_564 S
C214 H237 0.929 . S
C215 C214 1.398 1_546 S
C215 C216 1.352 . S
C216 C215 1.352 . S
C216 C217 1.384 . S
C216 H238 0.930 . S
C217 C212 1.407 . S
C217 C216 1.384 . S
C217 H239 0.929 . S
C218 O228 1.241 . S
C218 O229 1.273 . S
C219 O230 1.251 . S
C219 O231 1.268 . S
O220 Nd200 2.500 . S
O220 C202 1.258 . S
O221 Nd200 2.492 1_565 S
O221 C202 1.239 1_565 S
O222 Nd200 2.487 1_565 S
O222 C209 1.241 . S
O223 Nd200 2.682 1_565 S
O223 Nd201 2.414 1_565 S
O223 C209 1.273 . S
O224 Nd200 2.410 1_565 S
O224 C210 1.251 . S
O225 Nd201 2.426 . S
O225 C210 1.266 1_545 S
O226 Nd201 2.500 1_565 S
O226 C211 1.258 1_565 S
O227 Nd201 2.492 . S
O227 C211 1.239 . S
O228 Nd201 2.487 . S
O228 C218 1.241 . S
O229 Nd200 2.414 . S
O229 Nd201 2.682 . S
O229 C218 1.273 . S
O230 Nd201 2.410 . S
O230 C219 1.251 . S
O231 Nd200 2.424 . S
O231 C219 1.268 . S
H232 C204 0.930 . S
H233 C205 0.929 . S
H234 C207 0.930 . S
H235 C208 0.929 . S
H236 C213 0.930 . S
H237 C214 0.929 . S
H238 C216 0.930 . S
H239 C217 0.929 . S
Nd240 C242 2.836 1_556 S
Nd240 O260 2.500 1_556 S
Nd240 O261 2.492 1_546 S
Nd240 O262 2.487 1_545 S
Nd240 O263 2.682 1_545 S
Nd240 O264 2.410 1_546 S
Nd240 O269 2.414 . S
Nd240 O271 2.424 . S
Nd241 C251 2.836 . S
Nd241 O263 2.414 1_545 S
Nd241 O265 2.426 1_556 S
Nd241 O266 2.500 1_545 S
Nd241 O267 2.492 . S
Nd241 O268 2.487 1_556 S
Nd241 O269 2.682 . S
Nd241 O270 2.410 . S
C242 Nd240 2.836 1_554 S
C242 C243 1.498 . S
C242 O260 1.258 . S
C242 O261 1.239 1_545 S
C243 C242 1.498 . S
C243 C244 1.366 . S
C243 C248 1.407 1_545 S
C244 C243 1.366 . S
C244 C245 1.392 . S
C244 H272 0.930 . S
C245 C244 1.392 . S
C245 C246 1.398 . S
C245 H273 0.929 . S
C246 C245 1.398 . S
C246 C247 1.352 1_545 S
C247 C246 1.352 1_565 S
C247 C248 1.384 . S
C247 H274 0.930 . S
C248 C243 1.407 1_565 S
C248 C247 1.384 . S
C248 H275 0.929 . S
C249 O262 1.241 . S
C249 O263 1.273 . S
C250 O264 1.251 . S
C250 O265 1.265 1_565 S
C251 Nd241 2.836 . S
C251 C252 1.498 . S
C251 O266 1.258 1_545 S
C251 O267 1.239 . S
C252 C251 1.498 . S
C252 C253 1.366 1_545 S
C252 C257 1.407 . S
C253 C252 1.366 1_565 S
C253 C254 1.392 . S
C253 H276 0.930 . S
C254 C253 1.392 . S
C254 C255 1.398 1_565 S
C254 H277 0.929 . S
C255 C254 1.398 1_545 S
C255 C256 1.352 . S
C256 C255 1.352 . S
C256 C257 1.384 . S
C256 H278 0.930 . S
C257 C252 1.407 . S
C257 C256 1.384 . S
C257 H279 0.929 . S
C258 O268 1.241 . S
C258 O269 1.273 1_554 S
C259 O270 1.251 . S
C259 O271 1.268 . S
O260 Nd240 2.500 1_554 S
O260 C242 1.258 . S
O261 Nd240 2.492 1_564 S
O261 C242 1.239 1_565 S
O262 Nd240 2.487 1_565 S
O262 C249 1.241 . S
O263 Nd240 2.682 1_565 S
O263 Nd241 2.414 1_565 S
O263 C249 1.273 . S
O264 Nd240 2.410 1_564 S
O264 C250 1.251 . S
O265 Nd241 2.426 1_554 S
O265 C250 1.265 1_545 S
O266 Nd241 2.500 1_565 S
O266 C251 1.258 1_565 S
O267 Nd241 2.492 . S
O267 C251 1.239 . S
O268 Nd241 2.487 1_554 S
O268 C258 1.241 . S
O269 Nd240 2.414 . S
O269 Nd241 2.682 . S
O269 C258 1.273 1_556 S
O270 Nd241 2.410 . S
O270 C259 1.251 . S
O271 Nd240 2.424 . S
O271 C259 1.268 . S
H272 C244 0.930 . S
H273 C245 0.929 . S
H274 C247 0.930 . S
H275 C248 0.929 . S
H276 C253 0.930 . S
H277 C254 0.929 . S
H278 C256 0.930 . S
H279 C257 0.929 . S
Nd280 C282 2.836 1_556 S
Nd280 O300 2.500 1_556 S
Nd280 O301 2.492 1_556 S
Nd280 O302 2.487 . S
Nd280 O303 2.682 . S
Nd280 O304 2.410 1_556 S
Nd280 O309 2.414 . S
Nd280 O311 2.424 . S
Nd281 C291 2.836 . S
Nd281 O303 2.414 . S
Nd281 O305 2.424 1_556 S
Nd281 O306 2.500 . S
Nd281 O307 2.492 . S
Nd281 O308 2.487 1_556 S
Nd281 O309 2.682 . S
Nd281 O310 2.410 . S
C282 Nd280 2.836 1_554 S
C282 C283 1.498 . S
C282 O300 1.258 . S
C282 O301 1.239 . S
C283 C282 1.498 . S
C283 C284 1.366 . S
C283 C288 1.407 . S
C284 C283 1.366 . S
C284 C285 1.392 . S
C284 H312 0.930 . S
C285 C284 1.392 . S
C285 C286 1.398 . S
C285 H313 0.929 . S
C286 C285 1.398 . S
C286 C287 1.352 . S
C287 C286 1.352 . S
C287 C288 1.384 . S
C287 H314 0.930 . S
C288 C283 1.407 . S
C288 C287 1.384 . S
C288 H315 0.929 . S
C289 O302 1.241 . S
C289 O303 1.273 . S
C290 O304 1.251 . S
C290 O305 1.268 . S
C291 Nd281 2.836 . S
C291 C292 1.498 . S
C291 O306 1.258 . S
C291 O307 1.239 . S
C292 C291 1.498 . S
C292 C293 1.366 . S
C292 C297 1.407 . S
C293 C292 1.366 . S
C293 C294 1.392 . S
C293 H316 0.930 . S
C294 C293 1.392 . S
C294 C295 1.398 . S
C294 H317 0.929 . S
C295 C294 1.398 . S
C295 C296 1.352 . S
C296 C295 1.352 . S
C296 C297 1.384 . S
C296 H318 0.930 . S
C297 C292 1.407 . S
C297 C296 1.384 . S
C297 H319 0.929 . S
C298 O308 1.241 . S
C298 O309 1.273 1_554 S
C299 O310 1.251 . S
C299 O311 1.268 . S
O300 Nd280 2.500 1_554 S
O300 C282 1.258 . S
O301 Nd280 2.492 1_554 S
O301 C282 1.239 . S
O302 Nd280 2.487 . S
O302 C289 1.241 . S
O303 Nd280 2.682 . S
O303 Nd281 2.414 . S
O303 C289 1.273 . S
O304 Nd280 2.410 1_554 S
O304 C290 1.251 . S
O305 Nd281 2.424 1_554 S
O305 C290 1.268 . S
O306 Nd281 2.500 . S
O306 C291 1.258 . S
O307 Nd281 2.492 . S
O307 C291 1.239 . S
O308 Nd281 2.487 1_554 S
O308 C298 1.241 . S
O309 Nd280 2.414 . S
O309 Nd281 2.682 . S
O309 C298 1.273 1_556 S
O310 Nd281 2.410 . S
O310 C299 1.251 . S
O311 Nd280 2.424 . S
O311 C299 1.268 . S
H312 C284 0.930 . S
H313 C285 0.929 . S
H314 C287 0.930 . S
H315 C288 0.929 . S
H316 C293 0.930 . S
H317 C294 0.929 . S
H318 C296 0.930 . S
H319 C297 0.929 . S
Nd320 C322 2.836 . S
Nd320 O340 2.500 . S
Nd320 O341 2.492 . S
Nd320 O342 2.487 . S
Nd320 O343 2.682 . S
Nd320 O344 2.410 . S
Nd320 O349 2.414 . S
Nd320 O351 2.424 . S
Nd321 C331 2.836 . S
Nd321 O343 2.414 . S
Nd321 O345 2.424 . S
Nd321 O346 2.500 . S
Nd321 O347 2.492 . S
Nd321 O348 2.487 . S
Nd321 O349 2.682 . S
Nd321 O350 2.410 . S
C322 Nd320 2.836 . S
C322 C323 1.498 . S
C322 O340 1.258 . S
C322 O341 1.239 . S
C323 C322 1.498 . S
C323 C324 1.366 . S
C323 C328 1.407 . S
C324 C323 1.366 . S
C324 C325 1.392 . S
C324 H352 0.930 . S
C325 C324 1.392 . S
C325 C326 1.398 . S
C325 H353 0.929 . S
C326 C325 1.398 . S
C326 C327 1.352 . S
C327 C326 1.352 . S
C327 C328 1.384 . S
C327 H354 0.930 . S
C328 C323 1.407 . S
C328 C327 1.384 . S
C328 H355 0.929 . S
C329 O342 1.241 . S
C329 O343 1.273 . S
C330 O344 1.251 . S
C330 O345 1.268 . S
C331 Nd321 2.836 . S
C331 C332 1.498 . S
C331 O346 1.258 . S
C331 O347 1.239 . S
C332 C331 1.498 . S
C332 C333 1.366 . S
C332 C337 1.407 . S
C333 C332 1.366 . S
C333 C334 1.392 . S
C333 H356 0.930 . S
C334 C333 1.392 . S
C334 C335 1.398 . S
C334 H357 0.929 . S
C335 C334 1.398 . S
C335 C336 1.352 . S
C336 C335 1.352 . S
C336 C337 1.384 . S
C336 H358 0.930 . S
C337 C332 1.407 . S
C337 C336 1.384 . S
C337 H359 0.929 . S
C338 O348 1.241 . S
C338 O349 1.273 . S
C339 O350 1.251 . S
C339 O351 1.268 . S
O340 Nd320 2.500 . S
O340 C322 1.258 . S
O341 Nd320 2.492 . S
O341 C322 1.239 . S
O342 Nd320 2.487 . S
O342 C329 1.241 . S
O343 Nd320 2.682 . S
O343 Nd321 2.414 . S
O343 C329 1.273 . S
O344 Nd320 2.410 . S
O344 C330 1.251 . S
O345 Nd321 2.424 . S
O345 C330 1.268 . S
O346 Nd321 2.500 . S
O346 C331 1.258 . S
O347 Nd321 2.492 . S
O347 C331 1.239 . S
O348 Nd321 2.487 . S
O348 C338 1.241 . S
O349 Nd320 2.414 . S
O349 Nd321 2.682 . S
O349 C338 1.273 . S
O350 Nd321 2.410 . S
O350 C339 1.251 . S
O351 Nd320 2.424 . S
O351 C339 1.268 . S
H352 C324 0.930 . S
H353 C325 0.929 . S
H354 C327 0.930 . S
H355 C328 0.929 . S
H356 C333 0.930 . S
H357 C334 0.929 . S
H358 C336 0.930 . S
H359 C337 0.929 . S
Nd360 C362 2.836 . S
Nd360 O380 2.500 . S
Nd360 O381 2.492 . S
Nd360 O382 2.487 . S
Nd360 O383 2.682 . S
Nd360 O384 2.410 . S
Nd360 O389 2.414 . S
Nd360 O391 2.424 . S
Nd361 C371 2.836 . S
Nd361 O383 2.414 . S
Nd361 O385 2.424 . S
Nd361 O386 2.500 . S
Nd361 O387 2.492 . S
Nd361 O388 2.487 . S
Nd361 O389 2.682 . S
Nd361 O390 2.410 . S
C362 Nd360 2.836 . S
C362 C363 1.498 . S
C362 O380 1.258 . S
C362 O381 1.239 . S
C363 C362 1.498 . S
C363 C364 1.366 . S
C363 C368 1.407 . S
C364 C363 1.366 . S
C364 C365 1.392 . S
C364 H392 0.930 . S
C365 C364 1.392 . S
C365 C366 1.398 . S
C365 H393 0.929 . S
C366 C365 1.398 . S
C366 C367 1.352 . S
C367 C366 1.352 . S
C367 C368 1.384 . S
C367 H394 0.930 . S
C368 C363 1.407 . S
C368 C367 1.384 . S
C368 H395 0.929 . S
C369 O382 1.241 . S
C369 O383 1.273 . S
C370 O384 1.251 . S
C370 O385 1.268 . S
C371 Nd361 2.836 . S
C371 C372 1.498 . S
C371 O386 1.258 . S
C371 O387 1.239 . S
C372 C371 1.498 . S
C372 C373 1.366 . S
C372 C377 1.407 . S
C373 C372 1.366 . S
C373 C374 1.392 . S
C373 H396 0.930 . S
C374 C373 1.392 . S
C374 C375 1.398 . S
C374 H397 0.929 . S
C375 C374 1.398 . S
C375 C376 1.352 . S
C376 C375 1.352 . S
C376 C377 1.384 . S
C376 H398 0.930 . S
C377 C372 1.407 . S
C377 C376 1.384 . S
C377 H399 0.929 . S
C378 O388 1.241 . S
C378 O389 1.273 . S
C379 O390 1.251 . S
C379 O391 1.268 . S
O380 Nd360 2.500 . S
O380 C362 1.258 . S
O381 Nd360 2.492 . S
O381 C362 1.239 . S
O382 Nd360 2.487 . S
O382 C369 1.241 . S
O383 Nd360 2.682 . S
O383 Nd361 2.414 . S
O383 C369 1.273 . S
O384 Nd360 2.410 . S
O384 C370 1.251 . S
O385 Nd361 2.424 . S
O385 C370 1.268 . S
O386 Nd361 2.500 . S
O386 C371 1.258 . S
O387 Nd361 2.492 . S
O387 C371 1.239 . S
O388 Nd361 2.487 . S
O388 C378 1.241 . S
O389 Nd360 2.414 . S
O389 Nd361 2.682 . S
O389 C378 1.273 . S
O390 Nd361 2.410 . S
O390 C379 1.251 . S
O391 Nd360 2.424 . S
O391 C379 1.268 . S
H392 C364 0.930 . S
H393 C365 0.929 . S
H394 C367 0.930 . S
H395 C368 0.929 . S
H396 C373 0.930 . S
H397 C374 0.929 . S
H398 C376 0.930 . S
H399 C377 0.929 . S
Nd400 C402 2.836 . S
Nd400 O420 2.500 . S
Nd400 O421 2.492 . S
Nd400 O422 2.487 . S
Nd400 O423 2.682 . S
Nd400 O424 2.410 . S
Nd400 O429 2.414 . S
Nd400 O431 2.424 . S
Nd401 C411 2.836 . S
Nd401 O423 2.414 . S
Nd401 O425 2.424 . S
Nd401 O426 2.500 . S
Nd401 O427 2.492 . S
Nd401 O428 2.487 . S
Nd401 O429 2.682 . S
Nd401 O430 2.410 . S
C402 Nd400 2.836 . S
C402 C403 1.498 . S
C402 O420 1.258 . S
C402 O421 1.239 . S
C403 C402 1.498 . S
C403 C404 1.366 . S
C403 C408 1.407 . S
C404 C403 1.366 . S
C404 C405 1.392 . S
C404 H432 0.930 . S
C405 C404 1.392 . S
C405 C406 1.398 . S
C405 H433 0.929 . S
C406 C405 1.398 . S
C406 C407 1.352 . S
C407 C406 1.352 . S
C407 C408 1.384 . S
C407 H434 0.930 . S
C408 C403 1.407 . S
C408 C407 1.384 . S
C408 H435 0.929 . S
C409 O422 1.241 . S
C409 O423 1.273 . S
C410 O424 1.251 . S
C410 O425 1.268 . S
C411 Nd401 2.836 . S
C411 C412 1.498 . S
C411 O426 1.258 . S
C411 O427 1.239 . S
C412 C411 1.498 . S
C412 C413 1.366 . S
C412 C417 1.407 . S
C413 C412 1.366 . S
C413 C414 1.392 . S
C413 H436 0.930 . S
C414 C413 1.392 . S
C414 C415 1.398 . S
C414 H437 0.929 . S
C415 C414 1.398 . S
C415 C416 1.352 . S
C416 C415 1.352 . S
C416 C417 1.384 . S
C416 H438 0.930 . S
C417 C412 1.407 . S
C417 C416 1.384 . S
C417 H439 0.929 . S
C418 O428 1.241 . S
C418 O429 1.273 . S
C419 O430 1.251 . S
C419 O431 1.268 . S
O420 Nd400 2.500 . S
O420 C402 1.258 . S
O421 Nd400 2.492 . S
O421 C402 1.239 . S
O422 Nd400 2.487 . S
O422 C409 1.241 . S
O423 Nd400 2.682 . S
O423 Nd401 2.414 . S
O423 C409 1.273 . S
O424 Nd400 2.410 . S
O424 C410 1.251 . S
O425 Nd401 2.424 . S
O425 C410 1.268 . S
O426 Nd401 2.500 . S
O426 C411 1.258 . S
O427 Nd401 2.492 . S
O427 C411 1.239 . S
O428 Nd401 2.487 . S
O428 C418 1.241 . S
O429 Nd400 2.414 . S
O429 Nd401 2.682 . S
O429 C418 1.273 . S
O430 Nd401 2.410 . S
O430 C419 1.251 . S
O431 Nd400 2.424 . S
O431 C419 1.268 . S
H432 C404 0.930 . S
H433 C405 0.929 . S
H434 C407 0.930 . S
H435 C408 0.929 . S
H436 C413 0.930 . S
H437 C414 0.929 . S
H438 C416 0.930 . S
H439 C417 0.929 . S
Nd440 C442 2.836 . S
Nd440 O460 2.500 . S
Nd440 O461 2.492 . S
Nd440 O462 2.487 . S
Nd440 O463 2.682 . S
Nd440 O464 2.410 . S
Nd440 O469 2.414 . S
Nd440 O471 2.424 . S
Nd441 C451 2.836 . S
Nd441 O463 2.414 . S
Nd441 O465 2.424 . S
Nd441 O466 2.500 . S
Nd441 O467 2.492 . S
Nd441 O468 2.487 . S
Nd441 O469 2.682 . S
Nd441 O470 2.410 . S
C442 Nd440 2.836 . S
C442 C443 1.498 . S
C442 O460 1.258 . S
C442 O461 1.239 . S
C443 C442 1.498 . S
C443 C444 1.366 . S
C443 C448 1.407 . S
C444 C443 1.366 . S
C444 C445 1.392 . S
C444 H472 0.930 . S
C445 C444 1.392 . S
C445 C446 1.398 . S
C445 H473 0.929 . S
C446 C445 1.398 . S
C446 C447 1.352 . S
C447 C446 1.352 . S
C447 C448 1.384 . S
C447 H474 0.930 . S
C448 C443 1.407 . S
C448 C447 1.384 . S
C448 H475 0.929 . S
C449 O462 1.241 . S
C449 O463 1.273 . S
C450 O464 1.251 . S
C450 O465 1.268 . S
C451 Nd441 2.836 . S
C451 C452 1.498 . S
C451 O466 1.258 . S
C451 O467 1.239 . S
C452 C451 1.498 . S
C452 C453 1.366 . S
C452 C457 1.407 . S
C453 C452 1.366 . S
C453 C454 1.392 . S
C453 H476 0.930 . S
C454 C453 1.392 . S
C454 C455 1.398 . S
C454 H477 0.929 . S
C455 C454 1.398 . S
C455 C456 1.352 . S
C456 C455 1.352 . S
C456 C457 1.384 . S
C456 H478 0.930 . S
C457 C452 1.407 . S
C457 C456 1.384 . S
C457 H479 0.929 . S
C458 O468 1.241 . S
C458 O469 1.273 . S
C459 O470 1.251 . S
C459 O471 1.268 . S
O460 Nd440 2.500 . S
O460 C442 1.258 . S
O461 Nd440 2.492 . S
O461 C442 1.239 . S
O462 Nd440 2.487 . S
O462 C449 1.241 . S
O463 Nd440 2.682 . S
O463 Nd441 2.414 . S
O463 C449 1.273 . S
O464 Nd440 2.410 . S
O464 C450 1.251 . S
O465 Nd441 2.424 . S
O465 C450 1.268 . S
O466 Nd441 2.500 . S
O466 C451 1.258 . S
O467 Nd441 2.492 . S
O467 C451 1.239 . S
O468 Nd441 2.487 . S
O468 C458 1.241 . S
O469 Nd440 2.414 . S
O469 Nd441 2.682 . S
O469 C458 1.273 . S
O470 Nd441 2.410 . S
O470 C459 1.251 . S
O471 Nd440 2.424 . S
O471 C459 1.268 . S
H472 C444 0.930 . S
H473 C445 0.929 . S
H474 C447 0.930 . S
H475 C448 0.929 . S
H476 C453 0.930 . S
H477 C454 0.929 . S
H478 C456 0.930 . S
H479 C457 0.929 . S
Nd480 C482 2.836 . S
Nd480 O500 2.500 . S
Nd480 O501 2.492 . S
Nd480 O502 2.487 . S
Nd480 O503 2.682 . S
Nd480 O504 2.410 . S
Nd480 O509 2.414 . S
Nd480 O511 2.424 . S
Nd481 C491 2.836 . S
Nd481 O503 2.414 . S
Nd481 O505 2.424 . S
Nd481 O506 2.500 . S
Nd481 O507 2.492 . S
Nd481 O508 2.487 . S
Nd481 O509 2.682 . S
Nd481 O510 2.410 . S
C482 Nd480 2.836 . S
C482 C483 1.498 . S
C482 O500 1.258 . S
C482 O501 1.239 . S
C483 C482 1.498 . S
C483 C484 1.366 . S
C483 C488 1.407 . S
C484 C483 1.366 . S
C484 C485 1.392 . S
C484 H512 0.930 . S
C485 C484 1.392 . S
C485 C486 1.398 . S
C485 H513 0.929 . S
C486 C485 1.398 . S
C486 C487 1.352 . S
C487 C486 1.352 . S
C487 C488 1.384 . S
C487 H514 0.930 . S
C488 C483 1.407 . S
C488 C487 1.384 . S
C488 H515 0.929 . S
C489 O502 1.241 . S
C489 O503 1.273 . S
C490 O504 1.251 . S
C490 O505 1.268 . S
C491 Nd481 2.836 . S
C491 C492 1.498 . S
C491 O506 1.258 . S
C491 O507 1.239 . S
C492 C491 1.498 . S
C492 C493 1.366 . S
C492 C497 1.407 . S
C493 C492 1.366 . S
C493 C494 1.392 . S
C493 H516 0.930 . S
C494 C493 1.392 . S
C494 C495 1.398 . S
C494 H517 0.929 . S
C495 C494 1.398 . S
C495 C496 1.352 . S
C496 C495 1.352 . S
C496 C497 1.384 . S
C496 H518 0.930 . S
C497 C492 1.407 . S
C497 C496 1.384 . S
C497 H519 0.929 . S
C498 O508 1.241 . S
C498 O509 1.273 . S
C499 O510 1.251 . S
C499 O511 1.268 . S
O500 Nd480 2.500 . S
O500 C482 1.258 . S
O501 Nd480 2.492 . S
O501 C482 1.239 . S
O502 Nd480 2.487 . S
O502 C489 1.241 . S
O503 Nd480 2.682 . S
O503 Nd481 2.414 . S
O503 C489 1.273 . S
O504 Nd480 2.410 . S
O504 C490 1.251 . S
O505 Nd481 2.424 . S
O505 C490 1.268 . S
O506 Nd481 2.500 . S
O506 C491 1.258 . S
O507 Nd481 2.492 . S
O507 C491 1.239 . S
O508 Nd481 2.487 . S
O508 C498 1.241 . S
O509 Nd480 2.414 . S
O509 Nd481 2.682 . S
O509 C498 1.273 . S
O510 Nd481 2.410 . S
O510 C499 1.251 . S
O511 Nd480 2.424 . S
O511 C499 1.268 . S
H512 C484 0.930 . S
H513 C485 0.929 . S
H514 C487 0.930 . S
H515 C488 0.929 . S
H516 C493 0.930 . S
H517 C494 0.929 . S
H518 C496 0.930 . S
H519 C497 0.929 . S
Nd520 C522 2.836 . S
Nd520 O540 2.500 . S
Nd520 O541 2.492 . S
Nd520 O542 2.487 . S
Nd520 O543 2.682 . S
Nd520 O544 2.410 . S
Nd520 O549 2.414 . S
Nd520 O551 2.424 . S
Nd521 C531 2.836 . S
Nd521 O543 2.414 . S
Nd521 O545 2.424 . S
Nd521 O546 2.500 . S
Nd521 O547 2.492 . S
Nd521 O548 2.487 . S
Nd521 O549 2.682 . S
Nd521 O550 2.410 . S
C522 Nd520 2.836 . S
C522 C523 1.498 . S
C522 O540 1.258 . S
C522 O541 1.239 . S
C523 C522 1.498 . S
C523 C524 1.366 . S
C523 C528 1.407 . S
C524 C523 1.366 . S
C524 C525 1.392 . S
C524 H552 0.930 . S
C525 C524 1.392 . S
C525 C526 1.398 . S
C525 H553 0.929 . S
C526 C525 1.398 . S
C526 C527 1.352 . S
C527 C526 1.352 . S
C527 C528 1.384 . S
C527 H554 0.930 . S
C528 C523 1.407 . S
C528 C527 1.384 . S
C528 H555 0.929 . S
C529 O542 1.241 . S
C529 O543 1.273 . S
C530 O544 1.251 . S
C530 O545 1.268 . S
C531 Nd521 2.836 . S
C531 C532 1.498 . S
C531 O546 1.258 . S
C531 O547 1.239 . S
C532 C531 1.498 . S
C532 C533 1.366 . S
C532 C537 1.407 . S
C533 C532 1.366 . S
C533 C534 1.392 . S
C533 H556 0.930 . S
C534 C533 1.392 . S
C534 C535 1.398 . S
C534 H557 0.929 . S
C535 C534 1.398 . S
C535 C536 1.352 . S
C536 C535 1.352 . S
C536 C537 1.384 . S
C536 H558 0.930 . S
C537 C532 1.407 . S
C537 C536 1.384 . S
C537 H559 0.929 . S
C538 O548 1.241 . S
C538 O549 1.273 . S
C539 O550 1.251 . S
C539 O551 1.268 . S
O540 Nd520 2.500 . S
O540 C522 1.258 . S
O541 Nd520 2.492 . S
O541 C522 1.239 . S
O542 Nd520 2.487 . S
O542 C529 1.241 . S
O543 Nd520 2.682 . S
O543 Nd521 2.414 . S
O543 C529 1.273 . S
O544 Nd520 2.410 . S
O544 C530 1.251 . S
O545 Nd521 2.424 . S
O545 C530 1.268 . S
O546 Nd521 2.500 . S
O546 C531 1.258 . S
O547 Nd521 2.492 . S
O547 C531 1.239 . S
O548 Nd521 2.487 . S
O548 C538 1.241 . S
O549 Nd520 2.414 . S
O549 Nd521 2.682 . S
O549 C538 1.273 . S
O550 Nd521 2.410 . S
O550 C539 1.251 . S
O551 Nd520 2.424 . S
O551 C539 1.268 . S
H552 C524 0.930 . S
H553 C525 0.929 . S
H554 C527 0.930 . S
H555 C528 0.929 . S
H556 C533 0.930 . S
H557 C534 0.929 . S
H558 C536 0.930 . S
H559 C537 0.929 . S
Nd560 C562 2.836 . S
Nd560 O580 2.500 . S
Nd560 O581 2.492 . S
Nd560 O582 2.487 . S
Nd560 O583 2.682 . S
Nd560 O584 2.410 . S
Nd560 O589 2.414 . S
Nd560 O591 2.424 . S
Nd561 C571 2.836 . S
Nd561 O583 2.414 . S
Nd561 O585 2.424 . S
Nd561 O586 2.500 . S
Nd561 O587 2.492 . S
Nd561 O588 2.487 . S
Nd561 O589 2.682 . S
Nd561 O590 2.410 . S
C562 Nd560 2.836 . S
C562 C563 1.498 . S
C562 O580 1.258 . S
C562 O581 1.239 . S
C563 C562 1.498 . S
C563 C564 1.366 . S
C563 C568 1.407 . S
C564 C563 1.366 . S
C564 C565 1.392 . S
C564 H592 0.930 . S
C565 C564 1.392 . S
C565 C566 1.398 . S
C565 H593 0.929 . S
C566 C565 1.398 . S
C566 C567 1.352 . S
C567 C566 1.352 . S
C567 C568 1.384 . S
C567 H594 0.930 . S
C568 C563 1.407 . S
C568 C567 1.384 . S
C568 H595 0.929 . S
C569 O582 1.241 . S
C569 O583 1.273 . S
C570 O584 1.251 . S
C570 O585 1.268 . S
C571 Nd561 2.836 . S
C571 C572 1.498 . S
C571 O586 1.258 . S
C571 O587 1.239 . S
C572 C571 1.498 . S
C572 C573 1.366 . S
C572 C577 1.407 . S
C573 C572 1.366 . S
C573 C574 1.392 . S
C573 H596 0.930 . S
C574 C573 1.392 . S
C574 C575 1.398 . S
C574 H597 0.929 . S
C575 C574 1.398 . S
C575 C576 1.352 . S
C576 C575 1.352 . S
C576 C577 1.384 . S
C576 H598 0.930 . S
C577 C572 1.407 . S
C577 C576 1.384 . S
C577 H599 0.929 . S
C578 O588 1.241 . S
C578 O589 1.273 . S
C579 O590 1.251 . S
C579 O591 1.268 . S
O580 Nd560 2.500 . S
O580 C562 1.258 . S
O581 Nd560 2.492 . S
O581 C562 1.239 . S
O582 Nd560 2.487 . S
O582 C569 1.241 . S
O583 Nd560 2.682 . S
O583 Nd561 2.414 . S
O583 C569 1.273 . S
O584 Nd560 2.410 . S
O584 C570 1.251 . S
O585 Nd561 2.424 . S
O585 C570 1.268 . S
O586 Nd561 2.500 . S
O586 C571 1.258 . S
O587 Nd561 2.492 . S
O587 C571 1.239 . S
O588 Nd561 2.487 . S
O588 C578 1.241 . S
O589 Nd560 2.414 . S
O589 Nd561 2.682 . S
O589 C578 1.273 . S
O590 Nd561 2.410 . S
O590 C579 1.251 . S
O591 Nd560 2.424 . S
O591 C579 1.268 . S
H592 C564 0.930 . S
H593 C565 0.929 . S
H594 C567 0.930 . S
H595 C568 0.929 . S
H596 C573 0.930 . S
H597 C574 0.929 . S
H598 C576 0.930 . S
H599 C577 0.929 . S
Nd600 C602 2.836 . S
Nd600 O620 2.500 . S
Nd600 O621 2.492 . S
Nd600 O622 2.487 . S
Nd600 O623 2.682 . S
Nd600 O624 2.410 . S
Nd600 O629 2.414 . S
Nd600 O631 2.424 . S
Nd601 C611 2.836 . S
Nd601 O623 2.414 . S
Nd601 O625 2.424 . S
Nd601 O626 2.500 . S
Nd601 O627 2.492 . S
Nd601 O628 2.487 . S
Nd601 O629 2.682 . S
Nd601 O630 2.410 . S
C602 Nd600 2.836 . S
C602 C603 1.498 . S
C602 O620 1.258 . S
C602 O621 1.239 . S
C603 C602 1.498 . S
C603 C604 1.366 . S
C603 C608 1.407 . S
C604 C603 1.366 . S
C604 C605 1.392 . S
C604 H632 0.930 . S
C605 C604 1.392 . S
C605 C606 1.398 . S
C605 H633 0.929 . S
C606 C605 1.398 . S
C606 C607 1.352 . S
C607 C606 1.352 . S
C607 C608 1.384 . S
C607 H634 0.930 . S
C608 C603 1.407 . S
C608 C607 1.384 . S
C608 H635 0.929 . S
C609 O622 1.241 . S
C609 O623 1.273 . S
C610 O624 1.251 . S
C610 O625 1.268 . S
C611 Nd601 2.836 . S
C611 C612 1.498 . S
C611 O626 1.258 . S
C611 O627 1.239 . S
C612 C611 1.498 . S
C612 C613 1.366 . S
C612 C617 1.407 . S
C613 C612 1.366 . S
C613 C614 1.392 . S
C613 H636 0.930 . S
C614 C613 1.392 . S
C614 C615 1.398 . S
C614 H637 0.929 . S
C615 C614 1.398 . S
C615 C616 1.352 . S
C616 C615 1.352 . S
C616 C617 1.384 . S
C616 H638 0.930 . S
C617 C612 1.407 . S
C617 C616 1.384 . S
C617 H639 0.929 . S
C618 O628 1.241 . S
C618 O629 1.273 . S
C619 O630 1.251 . S
C619 O631 1.268 . S
O620 Nd600 2.500 . S
O620 C602 1.258 . S
O621 Nd600 2.492 . S
O621 C602 1.239 . S
O622 Nd600 2.487 . S
O622 C609 1.241 . S
O623 Nd600 2.682 . S
O623 Nd601 2.414 . S
O623 C609 1.273 . S
O624 Nd600 2.410 . S
O624 C610 1.251 . S
O625 Nd601 2.424 . S
O625 C610 1.268 . S
O626 Nd601 2.500 . S
O626 C611 1.258 . S
O627 Nd601 2.492 . S
O627 C611 1.239 . S
O628 Nd601 2.487 . S
O628 C618 1.241 . S
O629 Nd600 2.414 . S
O629 Nd601 2.682 . S
O629 C618 1.273 . S
O630 Nd601 2.410 . S
O630 C619 1.251 . S
O631 Nd600 2.424 . S
O631 C619 1.268 . S
H632 C604 0.930 . S
H633 C605 0.929 . S
H634 C607 0.930 . S
H635 C608 0.929 . S
H636 C613 0.930 . S
H637 C614 0.929 . S
H638 C616 0.930 . S
H639 C617 0.929 . S
Nd640 C642 2.836 . S
Nd640 O660 2.500 . S
Nd640 O661 2.492 . S
Nd640 O662 2.487 . S
Nd640 O663 2.682 . S
Nd640 O664 2.410 . S
Nd640 O669 2.414 . S
Nd640 O671 2.424 . S
Nd641 C651 2.836 . S
Nd641 O663 2.414 . S
Nd641 O665 2.424 . S
Nd641 O666 2.500 . S
Nd641 O667 2.492 . S
Nd641 O668 2.487 . S
Nd641 O669 2.682 . S
Nd641 O670 2.410 . S
C642 Nd640 2.836 . S
C642 C643 1.498 . S
C642 O660 1.258 . S
C642 O661 1.239 . S
C643 C642 1.498 . S
C643 C644 1.366 . S
C643 C648 1.407 . S
C644 C643 1.366 . S
C644 C645 1.392 . S
C644 H672 0.930 . S
C645 C644 1.392 . S
C645 C646 1.398 . S
C645 H673 0.929 . S
C646 C645 1.398 . S
C646 C647 1.352 . S
C647 C646 1.352 . S
C647 C648 1.384 . S
C647 H674 0.930 . S
C648 C643 1.407 . S
C648 C647 1.384 . S
C648 H675 0.929 . S
C649 O662 1.241 . S
C649 O663 1.273 . S
C650 O664 1.251 . S
C650 O665 1.268 . S
C651 Nd641 2.836 . S
C651 C652 1.498 . S
C651 O666 1.258 . S
C651 O667 1.239 . S
C652 C651 1.498 . S
C652 C653 1.366 . S
C652 C657 1.407 . S
C653 C652 1.366 . S
C653 C654 1.392 . S
C653 H676 0.930 . S
C654 C653 1.392 . S
C654 C655 1.398 . S
C654 H677 0.929 . S
C655 C654 1.398 . S
C655 C656 1.352 . S
C656 C655 1.352 . S
C656 C657 1.384 . S
C656 H678 0.930 . S
C657 C652 1.407 . S
C657 C656 1.384 . S
C657 H679 0.929 . S
C658 O668 1.241 . S
C658 O669 1.273 . S
C659 O670 1.251 . S
C659 O671 1.268 . S
O660 Nd640 2.500 . S
O660 C642 1.258 . S
O661 Nd640 2.492 . S
O661 C642 1.239 . S
O662 Nd640 2.487 . S
O662 C649 1.241 . S
O663 Nd640 2.682 . S
O663 Nd641 2.414 . S
O663 C649 1.273 . S
O664 Nd640 2.410 . S
O664 C650 1.251 . S
O665 Nd641 2.424 . S
O665 C650 1.268 . S
O666 Nd641 2.500 . S
O666 C651 1.258 . S
O667 Nd641 2.492 . S
O667 C651 1.239 . S
O668 Nd641 2.487 . S
O668 C658 1.241 . S
O669 Nd640 2.414 . S
O669 Nd641 2.682 . S
O669 C658 1.273 . S
O670 Nd641 2.410 . S
O670 C659 1.251 . S
O671 Nd640 2.424 . S
O671 C659 1.268 . S
H672 C644 0.930 . S
H673 C645 0.929 . S
H674 C647 0.930 . S
H675 C648 0.929 . S
H676 C653 0.930 . S
H677 C654 0.929 . S
H678 C656 0.930 . S
H679 C657 0.929 . S
Nd680 C682 2.836 . S
Nd680 O700 2.500 1_565 S
Nd680 O701 2.492 . S
Nd680 O702 2.487 . S
Nd680 O703 2.682 . S
Nd680 O704 2.410 . S
Nd680 O709 2.414 1_565 S
Nd680 O711 2.426 . S
Nd681 C691 2.836 . S
Nd681 O703 2.414 . S
Nd681 O705 2.424 . S
Nd681 O706 2.500 . S
Nd681 O707 2.492 1_565 S
Nd681 O708 2.487 1_565 S
Nd681 O709 2.682 1_565 S
Nd681 O710 2.410 1_565 S
C682 Nd680 2.836 . S
C682 C683 1.498 . S
C682 O700 1.258 1_565 S
C682 O701 1.239 . S
C683 C682 1.498 . S
C683 C684 1.366 1_565 S
C683 C688 1.407 . S
C684 C683 1.366 1_545 S
C684 C685 1.392 . S
C684 H712 0.930 . S
C685 C684 1.392 . S
C685 C686 1.398 1_545 S
C685 H713 0.929 . S
C686 C685 1.398 1_565 S
C686 C687 1.352 . S
C687 C686 1.352 . S
C687 C688 1.384 . S
C687 H714 0.930 . S
C688 C683 1.407 . S
C688 C687 1.384 . S
C688 H715 0.929 . S
C689 O702 1.241 . S
C689 O703 1.273 . S
C690 O704 1.251 . S
C690 O705 1.268 . S
C691 Nd681 2.836 . S
C691 C692 1.498 . S
C691 O706 1.258 . S
C691 O707 1.239 1_565 S
C692 C691 1.498 . S
C692 C693 1.366 . S
C692 C697 1.407 1_565 S
C693 C692 1.366 . S
C693 C694 1.392 . S
C693 H716 0.930 . S
C694 C693 1.392 . S
C694 C695 1.398 . S
C694 H717 0.929 . S
C695 C694 1.398 . S
C695 C696 1.352 1_565 S
C696 C695 1.352 1_545 S
C696 C697 1.384 . S
C696 H718 0.930 . S
C697 C692 1.407 1_545 S
C697 C696 1.384 . S
C697 H719 0.929 . S
C698 O708 1.241 . S
C698 O709 1.273 . S
C699 O710 1.251 . S
C699 O711 1.266 1_545 S
O700 Nd680 2.500 1_545 S
O700 C682 1.258 1_545 S
O701 Nd680 2.492 . S
O701 C682 1.239 . S
O702 Nd680 2.487 . S
O702 C689 1.241 . S
O703 Nd680 2.682 . S
O703 Nd681 2.414 . S
O703 C689 1.273 . S
O704 Nd680 2.410 . S
O704 C690 1.251 . S
O705 Nd681 2.424 . S
O705 C690 1.268 . S
O706 Nd681 2.500 . S
O706 C691 1.258 . S
O707 Nd681 2.492 1_545 S
O707 C691 1.239 1_545 S
O708 Nd681 2.487 1_545 S
O708 C698 1.241 . S
O709 Nd680 2.414 1_545 S
O709 Nd681 2.682 1_545 S
O709 C698 1.273 . S
O710 Nd681 2.410 1_545 S
O710 C699 1.251 . S
O711 Nd680 2.426 . S
O711 C699 1.266 1_565 S
H712 C684 0.930 . S
H713 C685 0.929 . S
H714 C687 0.930 . S
H715 C688 0.929 . S
H716 C693 0.930 . S
H717 C694 0.929 . S
H718 C696 0.930 . S
H719 C697 0.929 . S
Nd720 C722 2.836 . S
Nd720 O740 2.500 1_565 S
Nd720 O741 2.492 . S
Nd720 O742 2.487 . S
Nd720 O743 2.682 . S
Nd720 O744 2.410 . S
Nd720 O749 2.414 1_565 S
Nd720 O751 2.426 . S
Nd721 C731 2.836 . S
Nd721 O743 2.414 . S
Nd721 O745 2.424 . S
Nd721 O746 2.500 . S
Nd721 O747 2.492 1_565 S
Nd721 O748 2.487 1_565 S
Nd721 O749 2.682 1_565 S
Nd721 O750 2.410 1_565 S
C722 Nd720 2.836 . S
C722 C723 1.498 . S
C722 O740 1.258 1_565 S
C722 O741 1.239 . S
C723 C722 1.498 . S
C723 C724 1.366 1_565 S
C723 C728 1.407 . S
C724 C723 1.366 1_545 S
C724 C725 1.392 . S
C724 H752 0.930 . S
C725 C724 1.392 . S
C725 C726 1.398 1_545 S
C725 H753 0.929 . S
C726 C725 1.398 1_565 S
C726 C727 1.352 . S
C727 C726 1.352 . S
C727 C728 1.384 . S
C727 H754 0.930 . S
C728 C723 1.407 . S
C728 C727 1.384 . S
C728 H755 0.929 . S
C729 O742 1.241 . S
C729 O743 1.273 . S
C730 O744 1.251 . S
C730 O745 1.268 . S
C731 Nd721 2.836 . S
C731 C732 1.498 . S
C731 O746 1.258 . S
C731 O747 1.239 1_565 S
C732 C731 1.498 . S
C732 C733 1.366 . S
C732 C737 1.407 1_565 S
C733 C732 1.366 . S
C733 C734 1.392 . S
C733 H756 0.930 . S
C734 C733 1.392 . S
C734 C735 1.398 . S
C734 H757 0.929 . S
C735 C734 1.398 . S
C735 C736 1.352 1_565 S
C736 C735 1.352 1_545 S
C736 C737 1.384 . S
C736 H758 0.930 . S
C737 C732 1.407 1_545 S
C737 C736 1.384 . S
C737 H759 0.929 . S
C738 O748 1.241 . S
C738 O749 1.273 . S
C739 O750 1.251 . S
C739 O751 1.265 1_545 S
O740 Nd720 2.500 1_545 S
O740 C722 1.258 1_545 S
O741 Nd720 2.492 . S
O741 C722 1.239 . S
O742 Nd720 2.487 . S
O742 C729 1.241 . S
O743 Nd720 2.682 . S
O743 Nd721 2.414 . S
O743 C729 1.273 . S
O744 Nd720 2.410 . S
O744 C730 1.251 . S
O745 Nd721 2.424 . S
O745 C730 1.268 . S
O746 Nd721 2.500 . S
O746 C731 1.258 . S
O747 Nd721 2.492 1_545 S
O747 C731 1.239 1_545 S
O748 Nd721 2.487 1_545 S
O748 C738 1.241 . S
O749 Nd720 2.414 1_545 S
O749 Nd721 2.682 1_545 S
O749 C738 1.273 . S
O750 Nd721 2.410 1_545 S
O750 C739 1.251 . S
O751 Nd720 2.426 . S
O751 C739 1.265 1_565 S
H752 C724 0.930 . S
H753 C725 0.929 . S
H754 C727 0.930 . S
H755 C728 0.929 . S
H756 C733 0.930 . S
H757 C734 0.929 . S
H758 C736 0.930 . S
H759 C737 0.929 . S
Nd760 C762 2.836 . S
Nd760 O780 2.500 . S
Nd760 O781 2.492 . S
Nd760 O782 2.487 . S
Nd760 O783 2.682 . S
Nd760 O784 2.410 . S
Nd760 O789 2.414 . S
Nd760 O791 2.424 . S
Nd761 C771 2.836 . S
Nd761 O783 2.414 . S
Nd761 O785 2.424 . S
Nd761 O786 2.500 . S
Nd761 O787 2.492 . S
Nd761 O788 2.487 . S
Nd761 O789 2.682 . S
Nd761 O790 2.410 . S
C762 Nd760 2.836 . S
C762 C763 1.498 . S
C762 O780 1.258 . S
C762 O781 1.239 . S
C763 C762 1.498 . S
C763 C764 1.366 . S
C763 C768 1.407 . S
C764 C763 1.366 . S
C764 C765 1.392 . S
C764 H792 0.930 . S
C765 C764 1.392 . S
C765 C766 1.398 . S
C765 H793 0.929 . S
C766 C765 1.398 . S
C766 C767 1.352 . S
C767 C766 1.352 . S
C767 C768 1.384 . S
C767 H794 0.930 . S
C768 C763 1.407 . S
C768 C767 1.384 . S
C768 H795 0.929 . S
C769 O782 1.241 . S
C769 O783 1.273 . S
C770 O784 1.251 . S
C770 O785 1.268 . S
C771 Nd761 2.836 . S
C771 C772 1.498 . S
C771 O786 1.258 . S
C771 O787 1.239 . S
C772 C771 1.498 . S
C772 C773 1.366 . S
C772 C777 1.407 . S
C773 C772 1.366 . S
C773 C774 1.392 . S
C773 H796 0.930 . S
C774 C773 1.392 . S
C774 C775 1.398 . S
C774 H797 0.929 . S
C775 C774 1.398 . S
C775 C776 1.352 . S
C776 C775 1.352 . S
C776 C777 1.384 . S
C776 H798 0.930 . S
C777 C772 1.407 . S
C777 C776 1.384 . S
C777 H799 0.929 . S
C778 O788 1.241 . S
C778 O789 1.273 . S
C779 O790 1.251 . S
C779 O791 1.268 . S
O780 Nd760 2.500 . S
O780 C762 1.258 . S
O781 Nd760 2.492 . S
O781 C762 1.239 . S
O782 Nd760 2.487 . S
O782 C769 1.241 . S
O783 Nd760 2.682 . S
O783 Nd761 2.414 . S
O783 C769 1.273 . S
O784 Nd760 2.410 . S
O784 C770 1.251 . S
O785 Nd761 2.424 . S
O785 C770 1.268 . S
O786 Nd761 2.500 . S
O786 C771 1.258 . S
O787 Nd761 2.492 . S
O787 C771 1.239 . S
O788 Nd761 2.487 . S
O788 C778 1.241 . S
O789 Nd760 2.414 . S
O789 Nd761 2.682 . S
O789 C778 1.273 . S
O790 Nd761 2.410 . S
O790 C779 1.251 . S
O791 Nd760 2.424 . S
O791 C779 1.268 . S
H792 C764 0.930 . S
H793 C765 0.929 . S
H794 C767 0.930 . S
H795 C768 0.929 . S
H796 C773 0.930 . S
H797 C774 0.929 . S
H798 C776 0.930 . S
H799 C777 0.929 . S
Nd800 C802 2.836 . S
Nd800 O820 2.500 . S
Nd800 O821 2.492 . S
Nd800 O822 2.487 . S
Nd800 O823 2.682 . S
Nd800 O824 2.410 . S
Nd800 O829 2.414 . S
Nd800 O831 2.424 . S
Nd801 C811 2.836 . S
Nd801 O823 2.414 . S
Nd801 O825 2.424 . S
Nd801 O826 2.500 . S
Nd801 O827 2.492 . S
Nd801 O828 2.487 . S
Nd801 O829 2.682 . S
Nd801 O830 2.410 . S
C802 Nd800 2.836 . S
C802 C803 1.498 . S
C802 O820 1.258 . S
C802 O821 1.239 . S
C803 C802 1.498 . S
C803 C804 1.366 . S
C803 C808 1.407 . S
C804 C803 1.366 . S
C804 C805 1.392 . S
C804 H832 0.930 . S
C805 C804 1.392 . S
C805 C806 1.398 . S
C805 H833 0.929 . S
C806 C805 1.398 . S
C806 C807 1.352 . S
C807 C806 1.352 . S
C807 C808 1.384 . S
C807 H834 0.930 . S
C808 C803 1.407 . S
C808 C807 1.384 . S
C808 H835 0.929 . S
C809 O822 1.241 . S
C809 O823 1.273 . S
C810 O824 1.251 . S
C810 O825 1.268 . S
C811 Nd801 2.836 . S
C811 C812 1.498 . S
C811 O826 1.258 . S
C811 O827 1.239 . S
C812 C811 1.498 . S
C812 C813 1.366 . S
C812 C817 1.407 . S
C813 C812 1.366 . S
C813 C814 1.392 . S
C813 H836 0.930 . S
C814 C813 1.392 . S
C814 C815 1.398 . S
C814 H837 0.929 . S
C815 C814 1.398 . S
C815 C816 1.352 . S
C816 C815 1.352 . S
C816 C817 1.384 . S
C816 H838 0.930 . S
C817 C812 1.407 . S
C817 C816 1.384 . S
C817 H839 0.929 . S
C818 O828 1.241 . S
C818 O829 1.273 . S
C819 O830 1.251 . S
C819 O831 1.268 . S
O820 Nd800 2.500 . S
O820 C802 1.258 . S
O821 Nd800 2.492 . S
O821 C802 1.239 . S
O822 Nd800 2.487 . S
O822 C809 1.241 . S
O823 Nd800 2.682 . S
O823 Nd801 2.414 . S
O823 C809 1.273 . S
O824 Nd800 2.410 . S
O824 C810 1.251 . S
O825 Nd801 2.424 . S
O825 C810 1.268 . S
O826 Nd801 2.500 . S
O826 C811 1.258 . S
O827 Nd801 2.492 . S
O827 C811 1.239 . S
O828 Nd801 2.487 . S
O828 C818 1.241 . S
O829 Nd800 2.414 . S
O829 Nd801 2.682 . S
O829 C818 1.273 . S
O830 Nd801 2.410 . S
O830 C819 1.251 . S
O831 Nd800 2.424 . S
O831 C819 1.268 . S
H832 C804 0.930 . S
H833 C805 0.929 . S
H834 C807 0.930 . S
H835 C808 0.929 . S
H836 C813 0.930 . S
H837 C814 0.929 . S
H838 C816 0.930 . S
H839 C817 0.929 . S
Nd840 C842 2.836 . S
Nd840 O860 2.500 . S
Nd840 O861 2.492 1_545 S
Nd840 O862 2.487 1_545 S
Nd840 O863 2.682 1_545 S
Nd840 O864 2.410 1_545 S
Nd840 O869 2.414 . S
Nd840 O871 2.424 . S
Nd841 C851 2.836 . S
Nd841 O863 2.414 1_545 S
Nd841 O865 2.426 . S
Nd841 O866 2.500 1_545 S
Nd841 O867 2.492 . S
Nd841 O868 2.487 . S
Nd841 O869 2.682 . S
Nd841 O870 2.410 . S
C842 Nd840 2.836 . S
C842 C843 1.498 . S
C842 O860 1.258 . S
C842 O861 1.239 1_545 S
C843 C842 1.498 . S
C843 C844 1.366 . S
C843 C848 1.407 1_545 S
C844 C843 1.366 . S
C844 C845 1.392 . S
C844 H872 0.930 . S
C845 C844 1.392 . S
C845 C846 1.398 . S
C845 H873 0.929 . S
C846 C845 1.398 . S
C846 C847 1.352 1_545 S
C847 C846 1.352 1_565 S
C847 C848 1.384 . S
C847 H874 0.930 . S
C848 C843 1.407 1_565 S
C848 C847 1.384 . S
C848 H875 0.929 . S
C849 O862 1.241 . S
C849 O863 1.273 . S
C850 O864 1.251 . S
C850 O865 1.266 1_565 S
C851 Nd841 2.836 . S
C851 C852 1.498 . S
C851 O866 1.258 1_545 S
C851 O867 1.239 . S
C852 C851 1.498 . S
C852 C853 1.366 1_545 S
C852 C857 1.407 . S
C853 C852 1.366 1_565 S
C853 C854 1.392 . S
C853 H876 0.930 . S
C854 C853 1.392 . S
C854 C855 1.398 1_565 S
C854 H877 0.929 . S
C855 C854 1.398 1_545 S
C855 C856 1.352 . S
C856 C855 1.352 . S
C856 C857 1.384 . S
C856 H878 0.930 . S
C857 C852 1.407 . S
C857 C856 1.384 . S
C857 H879 0.929 . S
C858 O868 1.241 . S
C858 O869 1.273 . S
C859 O870 1.251 . S
C859 O871 1.268 . S
O860 Nd840 2.500 . S
O860 C842 1.258 . S
O861 Nd840 2.492 1_565 S
O861 C842 1.239 1_565 S
O862 Nd840 2.487 1_565 S
O862 C849 1.241 . S
O863 Nd840 2.682 1_565 S
O863 Nd841 2.414 1_565 S
O863 C849 1.273 . S
O864 Nd840 2.410 1_565 S
O864 C850 1.251 . S
O865 Nd841 2.426 . S
O865 C850 1.266 1_545 S
O866 Nd841 2.500 1_565 S
O866 C851 1.258 1_565 S
O867 Nd841 2.492 . S
O867 C851 1.239 . S
O868 Nd841 2.487 . S
O868 C858 1.241 . S
O869 Nd840 2.414 . S
O869 Nd841 2.682 . S
O869 C858 1.273 . S
O870 Nd841 2.410 . S
O870 C859 1.251 . S
O871 Nd840 2.424 . S
O871 C859 1.268 . S
H872 C844 0.930 . S
H873 C845 0.929 . S
H874 C847 0.930 . S
H875 C848 0.929 . S
H876 C853 0.930 . S
H877 C854 0.929 . S
H878 C856 0.930 . S
H879 C857 0.929 . S
Nd880 C882 2.836 . S
Nd880 O900 2.500 . S
Nd880 O901 2.492 1_545 S
Nd880 O902 2.487 1_545 S
Nd880 O903 2.682 1_545 S
Nd880 O904 2.410 1_545 S
Nd880 O909 2.414 . S
Nd880 O911 2.424 . S
Nd881 C891 2.836 . S
Nd881 O903 2.414 1_545 S
Nd881 O905 2.426 . S
Nd881 O906 2.500 1_545 S
Nd881 O907 2.492 . S
Nd881 O908 2.487 . S
Nd881 O909 2.682 . S
Nd881 O910 2.410 . S
C882 Nd880 2.836 . S
C882 C883 1.498 . S
C882 O900 1.258 . S
C882 O901 1.239 1_545 S
C883 C882 1.498 . S
C883 C884 1.366 . S
C883 C888 1.407 1_545 S
C884 C883 1.366 . S
C884 C885 1.392 . S
C884 H912 0.930 . S
C885 C884 1.392 . S
C885 C886 1.398 . S
C885 H913 0.929 . S
C886 C885 1.398 . S
C886 C887 1.352 1_545 S
C887 C886 1.352 1_565 S
C887 C888 1.384 . S
C887 H914 0.930 . S
C888 C883 1.407 1_565 S
C888 C887 1.384 . S
C888 H915 0.929 . S
C889 O902 1.241 . S
C889 O903 1.273 . S
C890 O904 1.251 . S
C890 O905 1.265 1_565 S
C891 Nd881 2.836 . S
C891 C892 1.498 . S
C891 O906 1.258 1_545 S
C891 O907 1.239 . S
C892 C891 1.498 . S
C892 C893 1.366 1_545 S
C892 C897 1.407 . S
C893 C892 1.366 1_565 S
C893 C894 1.392 . S
C893 H916 0.930 . S
C894 C893 1.392 . S
C894 C895 1.398 1_565 S
C894 H917 0.929 . S
C895 C894 1.398 1_545 S
C895 C896 1.352 . S
C896 C895 1.352 . S
C896 C897 1.384 . S
C896 H918 0.930 . S
C897 C892 1.407 . S
C897 C896 1.384 . S
C897 H919 0.929 . S
C898 O908 1.241 . S
C898 O909 1.273 . S
C899 O910 1.251 . S
C899 O911 1.268 . S
O900 Nd880 2.500 . S
O900 C882 1.258 . S
O901 Nd880 2.492 1_565 S
O901 C882 1.239 1_565 S
O902 Nd880 2.487 1_565 S
O902 C889 1.241 . S
O903 Nd880 2.682 1_565 S
O903 Nd881 2.414 1_565 S
O903 C889 1.273 . S
O904 Nd880 2.410 1_565 S
O904 C890 1.251 . S
O905 Nd881 2.426 . S
O905 C890 1.265 1_545 S
O906 Nd881 2.500 1_565 S
O906 C891 1.258 1_565 S
O907 Nd881 2.492 . S
O907 C891 1.239 . S
O908 Nd881 2.487 . S
O908 C898 1.241 . S
O909 Nd880 2.414 . S
O909 Nd881 2.682 . S
O909 C898 1.273 . S
O910 Nd881 2.410 . S
O910 C899 1.251 . S
O911 Nd880 2.424 . S
O911 C899 1.268 . S
H912 C884 0.930 . S
H913 C885 0.929 . S
H914 C887 0.930 . S
H915 C888 0.929 . S
H916 C893 0.930 . S
H917 C894 0.929 . S
H918 C896 0.930 . S
H919 C897 0.929 . S
Nd920 C922 2.836 . S
Nd920 O940 2.500 . S
Nd920 O941 2.492 . S
Nd920 O942 2.487 . S
Nd920 O943 2.682 . S
Nd920 O944 2.410 . S
Nd920 O949 2.414 . S
Nd920 O951 2.424 . S
Nd921 C931 2.836 . S
Nd921 O943 2.414 . S
Nd921 O945 2.424 . S
Nd921 O946 2.500 . S
Nd921 O947 2.492 . S
Nd921 O948 2.487 . S
Nd921 O949 2.682 . S
Nd921 O950 2.410 . S
C922 Nd920 2.836 . S
C922 C923 1.498 . S
C922 O940 1.258 . S
C922 O941 1.239 . S
C923 C922 1.498 . S
C923 C924 1.366 . S
C923 C928 1.407 . S
C924 C923 1.366 . S
C924 C925 1.392 . S
C924 H952 0.930 . S
C925 C924 1.392 . S
C925 C926 1.398 . S
C925 H953 0.929 . S
C926 C925 1.398 . S
C926 C927 1.352 . S
C927 C926 1.352 . S
C927 C928 1.384 . S
C927 H954 0.930 . S
C928 C923 1.407 . S
C928 C927 1.384 . S
C928 H955 0.929 . S
C929 O942 1.241 . S
C929 O943 1.273 . S
C930 O944 1.251 . S
C930 O945 1.268 . S
C931 Nd921 2.836 . S
C931 C932 1.498 . S
C931 O946 1.258 . S
C931 O947 1.239 . S
C932 C931 1.498 . S
C932 C933 1.366 . S
C932 C937 1.407 . S
C933 C932 1.366 . S
C933 C934 1.392 . S
C933 H956 0.930 . S
C934 C933 1.392 . S
C934 C935 1.398 . S
C934 H957 0.929 . S
C935 C934 1.398 . S
C935 C936 1.352 . S
C936 C935 1.352 . S
C936 C937 1.384 . S
C936 H958 0.930 . S
C937 C932 1.407 . S
C937 C936 1.384 . S
C937 H959 0.929 . S
C938 O948 1.241 . S
C938 O949 1.273 . S
C939 O950 1.251 . S
C939 O951 1.268 . S
O940 Nd920 2.500 . S
O940 C922 1.258 . S
O941 Nd920 2.492 . S
O941 C922 1.239 . S
O942 Nd920 2.487 . S
O942 C929 1.241 . S
O943 Nd920 2.682 . S
O943 Nd921 2.414 . S
O943 C929 1.273 . S
O944 Nd920 2.410 . S
O944 C930 1.251 . S
O945 Nd921 2.424 . S
O945 C930 1.268 . S
O946 Nd921 2.500 . S
O946 C931 1.258 . S
O947 Nd921 2.492 . S
O947 C931 1.239 . S
O948 Nd921 2.487 . S
O948 C938 1.241 . S
O949 Nd920 2.414 . S
O949 Nd921 2.682 . S
O949 C938 1.273 . S
O950 Nd921 2.410 . S
O950 C939 1.251 . S
O951 Nd920 2.424 . S
O951 C939 1.268 . S
H952 C924 0.930 . S
H953 C925 0.929 . S
H954 C927 0.930 . S
H955 C928 0.929 . S
H956 C933 0.930 . S
H957 C934 0.929 . S
H958 C936 0.930 . S
H959 C937 0.929 . S
Nd960 C962 2.836 . S
Nd960 O980 2.500 . S
Nd960 O981 2.492 . S
Nd960 O982 2.487 . S
Nd960 O983 2.682 . S
Nd960 O984 2.410 . S
Nd960 O989 2.414 . S
Nd960 O991 2.424 . S
Nd961 C971 2.836 . S
Nd961 O983 2.414 . S
Nd961 O985 2.424 . S
Nd961 O986 2.500 . S
Nd961 O987 2.492 . S
Nd961 O988 2.487 . S
Nd961 O989 2.682 . S
Nd961 O990 2.410 . S
C962 Nd960 2.836 . S
C962 C963 1.498 . S
C962 O980 1.258 . S
C962 O981 1.239 . S
C963 C962 1.498 . S
C963 C964 1.366 . S
C963 C968 1.407 . S
C964 C963 1.366 . S
C964 C965 1.392 1_554 S
C964 H992 0.930 . S
C965 C964 1.392 1_556 S
C965 C966 1.398 1_556 S
C965 H993 0.929 . S
C966 C965 1.398 1_554 S
C966 C967 1.352 . S
C967 C966 1.352 . S
C967 C968 1.384 . S
C967 H994 0.930 . S
C968 C963 1.407 . S
C968 C967 1.384 . S
C968 H995 0.929 . S
C969 O982 1.241 . S
C969 O983 1.273 . S
C970 O984 1.251 . S
C970 O985 1.268 . S
C971 Nd961 2.836 . S
C971 C972 1.498 . S
C971 O986 1.258 . S
C971 O987 1.239 . S
C972 C971 1.498 . S
C972 C973 1.366 . S
C972 C977 1.407 . S
C973 C972 1.366 . S
C973 C974 1.392 . S
C973 H996 0.930 . S
C974 C973 1.392 . S
C974 C975 1.398 . S
C974 H997 0.929 . S
C975 C974 1.398 . S
C975 C976 1.352 . S
C976 C975 1.352 . S
C976 C977 1.384 . S
C976 H998 0.930 . S
C977 C972 1.407 . S
C977 C976 1.384 . S
C977 H999 0.929 . S
C978 O988 1.241 . S
C978 O989 1.273 . S
C979 O990 1.251 . S
C979 O991 1.268 . S
O980 Nd960 2.500 . S
O980 C962 1.258 . S
O981 Nd960 2.492 . S
O981 C962 1.239 . S
O982 Nd960 2.487 . S
O982 C969 1.241 . S
O983 Nd960 2.682 . S
O983 Nd961 2.414 . S
O983 C969 1.273 . S
O984 Nd960 2.410 . S
O984 C970 1.251 . S
O985 Nd961 2.424 . S
O985 C970 1.268 . S
O986 Nd961 2.500 . S
O986 C971 1.258 . S
O987 Nd961 2.492 . S
O987 C971 1.239 . S
O988 Nd961 2.487 . S
O988 C978 1.241 . S
O989 Nd960 2.414 . S
O989 Nd961 2.682 . S
O989 C978 1.273 . S
O990 Nd961 2.410 . S
O990 C979 1.251 . S
O991 Nd960 2.424 . S
O991 C979 1.268 . S
H992 C964 0.930 . S
H993 C965 0.929 . S
H994 C967 0.930 . S
H995 C968 0.929 . S
H996 C973 0.930 . S
H997 C974 0.929 . S
H998 C976 0.930 . S
H999 C977 0.929 . S
Nd1000 C1002 2.836 . S
Nd1000 O1020 2.500 . S
Nd1000 O1021 2.492 . S
Nd1000 O1022 2.487 . S
Nd1000 O1023 2.682 . S
Nd1000 O1024 2.410 . S
Nd1000 O1029 2.414 . S
Nd1000 O1031 2.424 . S
Nd1001 C1011 2.836 . S
Nd1001 O1023 2.414 . S
Nd1001 O1025 2.424 . S
Nd1001 O1026 2.500 . S
Nd1001 O1027 2.492 . S
Nd1001 O1028 2.487 . S
Nd1001 O1029 2.682 . S
Nd1001 O1030 2.410 . S
C1002 Nd1000 2.836 . S
C1002 C1003 1.498 . S
C1002 O1020 1.258 . S
C1002 O1021 1.239 . S
C1003 C1002 1.498 . S
C1003 C1004 1.366 . S
C1003 C1008 1.407 . S
C1004 C1003 1.366 . S
C1004 C1005 1.392 1_554 S
C1004 H1032 0.930 . S
C1005 C1004 1.392 1_556 S
C1005 C1006 1.398 1_556 S
C1005 H1033 0.929 . S
C1006 C1005 1.398 1_554 S
C1006 C1007 1.352 . S
C1007 C1006 1.352 . S
C1007 C1008 1.384 . S
C1007 H1034 0.930 . S
C1008 C1003 1.407 . S
C1008 C1007 1.384 . S
C1008 H1035 0.929 . S
C1009 O1022 1.241 . S
C1009 O1023 1.273 . S
C1010 O1024 1.251 . S
C1010 O1025 1.268 . S
C1011 Nd1001 2.836 . S
C1011 C1012 1.498 . S
C1011 O1026 1.258 . S
C1011 O1027 1.239 . S
C1012 C1011 1.498 . S
C1012 C1013 1.366 . S
C1012 C1017 1.407 . S
C1013 C1012 1.366 . S
C1013 C1014 1.392 . S
C1013 H1036 0.930 . S
C1014 C1013 1.392 . S
C1014 C1015 1.398 . S
C1014 H1037 0.929 . S
C1015 C1014 1.398 . S
C1015 C1016 1.352 . S
C1016 C1015 1.352 . S
C1016 C1017 1.384 . S
C1016 H1038 0.930 . S
C1017 C1012 1.407 . S
C1017 C1016 1.384 . S
C1017 H1039 0.929 . S
C1018 O1028 1.241 . S
C1018 O1029 1.273 . S
C1019 O1030 1.251 . S
C1019 O1031 1.268 . S
O1020 Nd1000 2.500 . S
O1020 C1002 1.258 . S
O1021 Nd1000 2.492 . S
O1021 C1002 1.239 . S
O1022 Nd1000 2.487 . S
O1022 C1009 1.241 . S
O1023 Nd1000 2.682 . S
O1023 Nd1001 2.414 . S
O1023 C1009 1.273 . S
O1024 Nd1000 2.410 . S
O1024 C1010 1.251 . S
O1025 Nd1001 2.424 . S
O1025 C1010 1.268 . S
O1026 Nd1001 2.500 . S
O1026 C1011 1.258 . S
O1027 Nd1001 2.492 . S
O1027 C1011 1.239 . S
O1028 Nd1001 2.487 . S
O1028 C1018 1.241 . S
O1029 Nd1000 2.414 . S
O1029 Nd1001 2.682 . S
O1029 C1018 1.273 . S
O1030 Nd1001 2.410 . S
O1030 C1019 1.251 . S
O1031 Nd1000 2.424 . S
O1031 C1019 1.268 . S
H1032 C1004 0.930 . S
H1033 C1005 0.929 . S
H1034 C1007 0.930 . S
H1035 C1008 0.929 . S
H1036 C1013 0.930 . S
H1037 C1014 0.929 . S
H1038 C1016 0.930 . S
H1039 C1017 0.929 . S
Nd1040 C1042 2.836 . S
Nd1040 O1060 2.500 . S
Nd1040 O1061 2.492 . S
Nd1040 O1062 2.487 1_554 S
Nd1040 O1063 2.682 . S
Nd1040 O1064 2.410 . S
Nd1040 O1069 2.414 . S
Nd1040 O1071 2.424 1_554 S
Nd1041 C1051 2.836 1_554 S
Nd1041 O1063 2.414 . S
Nd1041 O1065 2.424 . S
Nd1041 O1066 2.500 1_554 S
Nd1041 O1067 2.492 1_554 S
Nd1041 O1068 2.487 . S
Nd1041 O1069 2.682 . S
Nd1041 O1070 2.410 1_554 S
C1042 Nd1040 2.836 . S
C1042 C1043 1.498 . S
C1042 O1060 1.258 . S
C1042 O1061 1.239 . S
C1043 C1042 1.498 . S
C1043 C1044 1.366 . S
C1043 C1048 1.407 . S
C1044 C1043 1.366 . S
C1044 C1045 1.392 . S
C1044 H1072 0.930 . S
C1045 C1044 1.392 . S
C1045 C1046 1.398 . S
C1045 H1073 0.929 . S
C1046 C1045 1.398 . S
C1046 C1047 1.352 . S
C1047 C1046 1.352 . S
C1047 C1048 1.384 . S
C1047 H1074 0.930 . S
C1048 C1043 1.407 . S
C1048 C1047 1.384 . S
C1048 H1075 0.929 . S
C1049 O1062 1.241 . S
C1049 O1063 1.273 1_556 S
C1050 O1064 1.251 . S
C1050 O1065 1.268 . S
C1051 Nd1041 2.836 1_556 S
C1051 C1052 1.498 . S
C1051 O1066 1.258 . S
C1051 O1067 1.239 . S
C1052 C1051 1.498 . S
C1052 C1053 1.366 . S
C1052 C1057 1.407 . S
C1053 C1052 1.366 . S
C1053 C1054 1.392 . S
C1053 H1076 0.930 . S
C1054 C1053 1.392 . S
C1054 C1055 1.398 . S
C1054 H1077 0.929 . S
C1055 C1054 1.398 . S
C1055 C1056 1.352 . S
C1056 C1055 1.352 . S
C1056 C1057 1.384 . S
C1056 H1078 0.930 . S
C1057 C1052 1.407 . S
C1057 C1056 1.384 . S
C1057 H1079 0.929 . S
C1058 O1068 1.241 . S
C1058 O1069 1.273 . S
C1059 O1070 1.251 . S
C1059 O1071 1.268 . S
O1060 Nd1040 2.500 . S
O1060 C1042 1.258 . S
O1061 Nd1040 2.492 . S
O1061 C1042 1.239 . S
O1062 Nd1040 2.487 1_556 S
O1062 C1049 1.241 . S
O1063 Nd1040 2.682 . S
O1063 Nd1041 2.414 . S
O1063 C1049 1.273 1_554 S
O1064 Nd1040 2.410 . S
O1064 C1050 1.251 . S
O1065 Nd1041 2.424 . S
O1065 C1050 1.268 . S
O1066 Nd1041 2.500 1_556 S
O1066 C1051 1.258 . S
O1067 Nd1041 2.492 1_556 S
O1067 C1051 1.239 . S
O1068 Nd1041 2.487 . S
O1068 C1058 1.241 . S
O1069 Nd1040 2.414 . S
O1069 Nd1041 2.682 . S
O1069 C1058 1.273 . S
O1070 Nd1041 2.410 1_556 S
O1070 C1059 1.251 . S
O1071 Nd1040 2.424 1_556 S
O1071 C1059 1.268 . S
H1072 C1044 0.930 . S
H1073 C1045 0.929 . S
H1074 C1047 0.930 . S
H1075 C1048 0.929 . S
H1076 C1053 0.930 . S
H1077 C1054 0.929 . S
H1078 C1056 0.930 . S
H1079 C1057 0.929 . S
Nd1080 C1082 2.836 . S
Nd1080 O1100 2.500 . S
Nd1080 O1101 2.492 . S
Nd1080 O1102 2.487 1_554 S
Nd1080 O1103 2.682 . S
Nd1080 O1104 2.410 . S
Nd1080 O1109 2.414 . S
Nd1080 O1111 2.424 1_554 S
Nd1081 C1091 2.836 1_554 S
Nd1081 O1103 2.414 . S
Nd1081 O1105 2.424 . S
Nd1081 O1106 2.500 1_554 S
Nd1081 O1107 2.492 1_554 S
Nd1081 O1108 2.487 . S
Nd1081 O1109 2.682 . S
Nd1081 O1110 2.410 1_554 S
C1082 Nd1080 2.836 . S
C1082 C1083 1.498 . S
C1082 O1100 1.258 . S
C1082 O1101 1.239 . S
C1083 C1082 1.498 . S
C1083 C1084 1.366 . S
C1083 C1088 1.407 . S
C1084 C1083 1.366 . S
C1084 C1085 1.392 . S
C1084 H1112 0.930 . S
C1085 C1084 1.392 . S
C1085 C1086 1.398 . S
C1085 H1113 0.929 . S
C1086 C1085 1.398 . S
C1086 C1087 1.352 . S
C1087 C1086 1.352 . S
C1087 C1088 1.384 . S
C1087 H1114 0.930 . S
C1088 C1083 1.407 . S
C1088 C1087 1.384 . S
C1088 H1115 0.929 . S
C1089 O1102 1.241 . S
C1089 O1103 1.273 1_556 S
C1090 O1104 1.251 . S
C1090 O1105 1.268 . S
C1091 Nd1081 2.836 1_556 S
C1091 C1092 1.498 . S
C1091 O1106 1.258 . S
C1091 O1107 1.239 . S
C1092 C1091 1.498 . S
C1092 C1093 1.366 . S
C1092 C1097 1.407 . S
C1093 C1092 1.366 . S
C1093 C1094 1.392 . S
C1093 H1116 0.930 . S
C1094 C1093 1.392 . S
C1094 C1095 1.398 . S
C1094 H1117 0.929 . S
C1095 C1094 1.398 . S
C1095 C1096 1.352 . S
C1096 C1095 1.352 . S
C1096 C1097 1.384 . S
C1096 H1118 0.930 . S
C1097 C1092 1.407 . S
C1097 C1096 1.384 . S
C1097 H1119 0.929 . S
C1098 O1108 1.241 . S
C1098 O1109 1.273 . S
C1099 O1110 1.251 . S
C1099 O1111 1.268 . S
O1100 Nd1080 2.500 . S
O1100 C1082 1.258 . S
O1101 Nd1080 2.492 . S
O1101 C1082 1.239 . S
O1102 Nd1080 2.487 1_556 S
O1102 C1089 1.241 . S
O1103 Nd1080 2.682 . S
O1103 Nd1081 2.414 . S
O1103 C1089 1.273 1_554 S
O1104 Nd1080 2.410 . S
O1104 C1090 1.251 . S
O1105 Nd1081 2.424 . S
O1105 C1090 1.268 . S
O1106 Nd1081 2.500 1_556 S
O1106 C1091 1.258 . S
O1107 Nd1081 2.492 1_556 S
O1107 C1091 1.239 . S
O1108 Nd1081 2.487 . S
O1108 C1098 1.241 . S
O1109 Nd1080 2.414 . S
O1109 Nd1081 2.682 . S
O1109 C1098 1.273 . S
O1110 Nd1081 2.410 1_556 S
O1110 C1099 1.251 . S
O1111 Nd1080 2.424 1_556 S
O1111 C1099 1.268 . S
H1112 C1084 0.930 . S
H1113 C1085 0.929 . S
H1114 C1087 0.930 . S
H1115 C1088 0.929 . S
H1116 C1093 0.930 . S
H1117 C1094 0.929 . S
H1118 C1096 0.930 . S
H1119 C1097 0.929 . S
Nd1120 C1122 2.836 . S
Nd1120 O1140 2.500 . S
Nd1120 O1141 2.492 . S
Nd1120 O1142 2.487 . S
Nd1120 O1143 2.682 . S
Nd1120 O1144 2.410 . S
Nd1120 O1149 2.414 . S
Nd1120 O1151 2.424 . S
Nd1121 C1131 2.836 . S
Nd1121 O1143 2.414 . S
Nd1121 O1145 2.424 . S
Nd1121 O1146 2.500 . S
Nd1121 O1147 2.492 . S
Nd1121 O1148 2.487 . S
Nd1121 O1149 2.682 . S
Nd1121 O1150 2.410 . S
C1122 Nd1120 2.836 . S
C1122 C1123 1.498 . S
C1122 O1140 1.258 . S
C1122 O1141 1.239 . S
C1123 C1122 1.498 . S
C1123 C1124 1.366 . S
C1123 C1128 1.407 . S
C1124 C1123 1.366 . S
C1124 C1125 1.392 . S
C1124 H1152 0.930 . S
C1125 C1124 1.392 . S
C1125 C1126 1.398 . S
C1125 H1153 0.929 . S
C1126 C1125 1.398 . S
C1126 C1127 1.352 . S
C1127 C1126 1.352 . S
C1127 C1128 1.384 . S
C1127 H1154 0.930 . S
C1128 C1123 1.407 . S
C1128 C1127 1.384 . S
C1128 H1155 0.929 . S
C1129 O1142 1.241 . S
C1129 O1143 1.273 . S
C1130 O1144 1.251 . S
C1130 O1145 1.268 . S
C1131 Nd1121 2.836 . S
C1131 C1132 1.498 . S
C1131 O1146 1.258 . S
C1131 O1147 1.239 . S
C1132 C1131 1.498 . S
C1132 C1133 1.366 . S
C1132 C1137 1.407 . S
C1133 C1132 1.366 . S
C1133 C1134 1.392 1_556 S
C1133 H1156 0.930 . S
C1134 C1133 1.392 1_554 S
C1134 C1135 1.398 1_554 S
C1134 H1157 0.929 . S
C1135 C1134 1.398 1_556 S
C1135 C1136 1.352 . S
C1136 C1135 1.352 . S
C1136 C1137 1.384 . S
C1136 H1158 0.930 . S
C1137 C1132 1.407 . S
C1137 C1136 1.384 . S
C1137 H1159 0.929 . S
C1138 O1148 1.241 . S
C1138 O1149 1.273 . S
C1139 O1150 1.251 . S
C1139 O1151 1.268 . S
O1140 Nd1120 2.500 . S
O1140 C1122 1.258 . S
O1141 Nd1120 2.492 . S
O1141 C1122 1.239 . S
O1142 Nd1120 2.487 . S
O1142 C1129 1.241 . S
O1143 Nd1120 2.682 . S
O1143 Nd1121 2.414 . S
O1143 C1129 1.273 . S
O1144 Nd1120 2.410 . S
O1144 C1130 1.251 . S
O1145 Nd1121 2.424 . S
O1145 C1130 1.268 . S
O1146 Nd1121 2.500 . S
O1146 C1131 1.258 . S
O1147 Nd1121 2.492 . S
O1147 C1131 1.239 . S
O1148 Nd1121 2.487 . S
O1148 C1138 1.241 . S
O1149 Nd1120 2.414 . S
O1149 Nd1121 2.682 . S
O1149 C1138 1.273 . S
O1150 Nd1121 2.410 . S
O1150 C1139 1.251 . S
O1151 Nd1120 2.424 . S
O1151 C1139 1.268 . S
H1152 C1124 0.930 . S
H1153 C1125 0.929 . S
H1154 C1127 0.930 . S
H1155 C1128 0.929 . S
H1156 C1133 0.930 . S
H1157 C1134 0.929 . S
H1158 C1136 0.930 . S
H1159 C1137 0.929 . S
Nd1160 C1162 2.836 . S
Nd1160 O1180 2.500 . S
Nd1160 O1181 2.492 . S
Nd1160 O1182 2.487 . S
Nd1160 O1183 2.682 . S
Nd1160 O1184 2.410 . S
Nd1160 O1189 2.414 . S
Nd1160 O1191 2.424 . S
Nd1161 C1171 2.836 . S
Nd1161 O1183 2.414 . S
Nd1161 O1185 2.424 . S
Nd1161 O1186 2.500 . S
Nd1161 O1187 2.492 . S
Nd1161 O1188 2.487 . S
Nd1161 O1189 2.682 . S
Nd1161 O1190 2.410 . S
C1162 Nd1160 2.836 . S
C1162 C1163 1.498 . S
C1162 O1180 1.258 . S
C1162 O1181 1.239 . S
C1163 C1162 1.498 . S
C1163 C1164 1.366 . S
C1163 C1168 1.407 . S
C1164 C1163 1.366 . S
C1164 C1165 1.392 . S
C1164 H1192 0.930 . S
C1165 C1164 1.392 . S
C1165 C1166 1.398 . S
C1165 H1193 0.929 . S
C1166 C1165 1.398 . S
C1166 C1167 1.352 . S
C1167 C1166 1.352 . S
C1167 C1168 1.384 . S
C1167 H1194 0.930 . S
C1168 C1163 1.407 . S
C1168 C1167 1.384 . S
C1168 H1195 0.929 . S
C1169 O1182 1.241 . S
C1169 O1183 1.273 . S
C1170 O1184 1.251 . S
C1170 O1185 1.268 . S
C1171 Nd1161 2.836 . S
C1171 C1172 1.498 . S
C1171 O1186 1.258 . S
C1171 O1187 1.239 . S
C1172 C1171 1.498 . S
C1172 C1173 1.366 . S
C1172 C1177 1.407 . S
C1173 C1172 1.366 . S
C1173 C1174 1.392 1_556 S
C1173 H1196 0.930 . S
C1174 C1173 1.392 1_554 S
C1174 C1175 1.398 1_554 S
C1174 H1197 0.929 . S
C1175 C1174 1.398 1_556 S
C1175 C1176 1.352 . S
C1176 C1175 1.352 . S
C1176 C1177 1.384 . S
C1176 H1198 0.930 . S
C1177 C1172 1.407 . S
C1177 C1176 1.384 . S
C1177 H1199 0.929 . S
C1178 O1188 1.241 . S
C1178 O1189 1.273 . S
C1179 O1190 1.251 . S
C1179 O1191 1.268 . S
O1180 Nd1160 2.500 . S
O1180 C1162 1.258 . S
O1181 Nd1160 2.492 . S
O1181 C1162 1.239 . S
O1182 Nd1160 2.487 . S
O1182 C1169 1.241 . S
O1183 Nd1160 2.682 . S
O1183 Nd1161 2.414 . S
O1183 C1169 1.273 . S
O1184 Nd1160 2.410 . S
O1184 C1170 1.251 . S
O1185 Nd1161 2.424 . S
O1185 C1170 1.268 . S
O1186 Nd1161 2.500 . S
O1186 C1171 1.258 . S
O1187 Nd1161 2.492 . S
O1187 C1171 1.239 . S
O1188 Nd1161 2.487 . S
O1188 C1178 1.241 . S
O1189 Nd1160 2.414 . S
O1189 Nd1161 2.682 . S
O1189 C1178 1.273 . S
O1190 Nd1161 2.410 . S
O1190 C1179 1.251 . S
O1191 Nd1160 2.424 . S
O1191 C1179 1.268 . S
H1192 C1164 0.930 . S
H1193 C1165 0.929 . S
H1194 C1167 0.930 . S
H1195 C1168 0.929 . S
H1196 C1173 0.930 . S
H1197 C1174 0.929 . S
H1198 C1176 0.930 . S
H1199 C1177 0.929 . S
Nd1200 C1202 2.836 1_556 S
Nd1200 O1220 2.500 1_556 S
Nd1200 O1221 2.492 1_556 S
Nd1200 O1222 2.487 . S
Nd1200 O1223 2.682 . S
Nd1200 O1224 2.410 1_556 S
Nd1200 O1229 2.414 . S
Nd1200 O1231 2.424 . S
Nd1201 C1211 2.836 . S
Nd1201 O1223 2.414 . S
Nd1201 O1225 2.424 1_556 S
Nd1201 O1226 2.500 . S
Nd1201 O1227 2.492 . S
Nd1201 O1228 2.487 1_556 S
Nd1201 O1229 2.682 . S
Nd1201 O1230 2.410 . S
C1202 Nd1200 2.836 1_554 S
C1202 C1203 1.498 . S
C1202 O1220 1.258 . S
C1202 O1221 1.239 . S
C1203 C1202 1.498 . S
C1203 C1204 1.366 . S
C1203 C1208 1.407 . S
C1204 C1203 1.366 . S
C1204 C1205 1.392 . S
C1204 H1232 0.930 . S
C1205 C1204 1.392 . S
C1205 C1206 1.398 . S
C1205 H1233 0.929 . S
C1206 C1205 1.398 . S
C1206 C1207 1.352 . S
C1207 C1206 1.352 . S
C1207 C1208 1.384 . S
C1207 H1234 0.930 . S
C1208 C1203 1.407 . S
C1208 C1207 1.384 . S
C1208 H1235 0.929 . S
C1209 O1222 1.241 . S
C1209 O1223 1.273 . S
C1210 O1224 1.251 . S
C1210 O1225 1.268 . S
C1211 Nd1201 2.836 . S
C1211 C1212 1.498 . S
C1211 O1226 1.258 . S
C1211 O1227 1.239 . S
C1212 C1211 1.498 . S
C1212 C1213 1.366 . S
C1212 C1217 1.407 . S
C1213 C1212 1.366 . S
C1213 C1214 1.392 . S
C1213 H1236 0.930 . S
C1214 C1213 1.392 . S
C1214 C1215 1.398 . S
C1214 H1237 0.929 . S
C1215 C1214 1.398 . S
C1215 C1216 1.352 . S
C1216 C1215 1.352 . S
C1216 C1217 1.384 . S
C1216 H1238 0.930 . S
C1217 C1212 1.407 . S
C1217 C1216 1.384 . S
C1217 H1239 0.929 . S
C1218 O1228 1.241 . S
C1218 O1229 1.273 1_554 S
C1219 O1230 1.251 . S
C1219 O1231 1.268 . S
O1220 Nd1200 2.500 1_554 S
O1220 C1202 1.258 . S
O1221 Nd1200 2.492 1_554 S
O1221 C1202 1.239 . S
O1222 Nd1200 2.487 . S
O1222 C1209 1.241 . S
O1223 Nd1200 2.682 . S
O1223 Nd1201 2.414 . S
O1223 C1209 1.273 . S
O1224 Nd1200 2.410 1_554 S
O1224 C1210 1.251 . S
O1225 Nd1201 2.424 1_554 S
O1225 C1210 1.268 . S
O1226 Nd1201 2.500 . S
O1226 C1211 1.258 . S
O1227 Nd1201 2.492 . S
O1227 C1211 1.239 . S
O1228 Nd1201 2.487 1_554 S
O1228 C1218 1.241 . S
O1229 Nd1200 2.414 . S
O1229 Nd1201 2.682 . S
O1229 C1218 1.273 1_556 S
O1230 Nd1201 2.410 . S
O1230 C1219 1.251 . S
O1231 Nd1200 2.424 . S
O1231 C1219 1.268 . S
H1232 C1204 0.930 . S
H1233 C1205 0.929 . S
H1234 C1207 0.930 . S
H1235 C1208 0.929 . S
H1236 C1213 0.930 . S
H1237 C1214 0.929 . S
H1238 C1216 0.930 . S
H1239 C1217 0.929 . S
Nd1240 C1242 2.836 1_556 S
Nd1240 O1260 2.500 1_556 S
Nd1240 O1261 2.492 1_556 S
Nd1240 O1262 2.487 . S
Nd1240 O1263 2.682 . S
Nd1240 O1264 2.410 1_556 S
Nd1240 O1269 2.414 . S
Nd1240 O1271 2.424 . S
Nd1241 C1251 2.836 . S
Nd1241 O1263 2.414 . S
Nd1241 O1265 2.424 1_556 S
Nd1241 O1266 2.500 . S
Nd1241 O1267 2.492 . S
Nd1241 O1268 2.487 1_556 S
Nd1241 O1269 2.682 . S
Nd1241 O1270 2.410 . S
C1242 Nd1240 2.836 1_554 S
C1242 C1243 1.498 . S
C1242 O1260 1.258 . S
C1242 O1261 1.239 . S
C1243 C1242 1.498 . S
C1243 C1244 1.366 . S
C1243 C1248 1.407 . S
C1244 C1243 1.366 . S
C1244 C1245 1.392 . S
C1244 H1272 0.930 . S
C1245 C1244 1.392 . S
C1245 C1246 1.398 . S
C1245 H1273 0.929 . S
C1246 C1245 1.398 . S
C1246 C1247 1.352 . S
C1247 C1246 1.352 . S
C1247 C1248 1.384 . S
C1247 H1274 0.930 . S
C1248 C1243 1.407 . S
C1248 C1247 1.384 . S
C1248 H1275 0.929 . S
C1249 O1262 1.241 . S
C1249 O1263 1.273 . S
C1250 O1264 1.251 . S
C1250 O1265 1.268 . S
C1251 Nd1241 2.836 . S
C1251 C1252 1.498 . S
C1251 O1266 1.258 . S
C1251 O1267 1.239 . S
C1252 C1251 1.498 . S
C1252 C1253 1.366 . S
C1252 C1257 1.407 . S
C1253 C1252 1.366 . S
C1253 C1254 1.392 . S
C1253 H1276 0.930 . S
C1254 C1253 1.392 . S
C1254 C1255 1.398 . S
C1254 H1277 0.929 . S
C1255 C1254 1.398 . S
C1255 C1256 1.352 . S
C1256 C1255 1.352 . S
C1256 C1257 1.384 . S
C1256 H1278 0.930 . S
C1257 C1252 1.407 . S
C1257 C1256 1.384 . S
C1257 H1279 0.929 . S
C1258 O1268 1.241 . S
C1258 O1269 1.273 1_554 S
C1259 O1270 1.251 . S
C1259 O1271 1.268 . S
O1260 Nd1240 2.500 1_554 S
O1260 C1242 1.258 . S
O1261 Nd1240 2.492 1_554 S
O1261 C1242 1.239 . S
O1262 Nd1240 2.487 . S
O1262 C1249 1.241 . S
O1263 Nd1240 2.682 . S
O1263 Nd1241 2.414 . S
O1263 C1249 1.273 . S
O1264 Nd1240 2.410 1_554 S
O1264 C1250 1.251 . S
O1265 Nd1241 2.424 1_554 S
O1265 C1250 1.268 . S
O1266 Nd1241 2.500 . S
O1266 C1251 1.258 . S
O1267 Nd1241 2.492 . S
O1267 C1251 1.239 . S
O1268 Nd1241 2.487 1_554 S
O1268 C1258 1.241 . S
O1269 Nd1240 2.414 . S
O1269 Nd1241 2.682 . S
O1269 C1258 1.273 1_556 S
O1270 Nd1241 2.410 . S
O1270 C1259 1.251 . S
O1271 Nd1240 2.424 . S
O1271 C1259 1.268 . S
H1272 C1244 0.930 . S
H1273 C1245 0.929 . S
H1274 C1247 0.930 . S
H1275 C1248 0.929 . S
H1276 C1253 0.930 . S
H1277 C1254 0.929 . S
H1278 C1256 0.930 . S
H1279 C1257 0.929 . S
H1280 C1286 0.930 . S
H1281 C1290 0.930 . S
H1282 C1295 0.929 . S
H1283 C1293 0.929 . S
H1284 C1288 0.929 . S
H1285 C1294 0.929 . S
C1286 H1280 0.930 . S
C1286 C1287 1.367 . S
C1286 C1294 1.378 . S
C1287 C1286 1.367 . S
C1287 C1295 1.433 1_554 S
C1288 H1284 0.929 . S
C1288 C1290 1.378 . S
C1288 C1292 1.350 . S
C1289 C1292 1.463 1_554 S
C1289 C1294 1.350 . S
C1289 N1297 1.427 1_554 S
C1290 H1281 0.930 . S
C1290 C1288 1.378 . S
C1290 C1291 1.367 . S
C1291 C1290 1.367 . S
C1291 C1293 1.433 1_556 S
C1292 C1288 1.350 . S
C1292 C1289 1.463 1_556 S
C1292 N1296 1.427 1_556 S
C1293 H1283 0.929 . S
C1293 C1291 1.433 1_554 S
C1293 N1296 1.384 . S
C1294 H1285 0.929 . S
C1294 C1286 1.378 . S
C1294 C1289 1.350 . S
C1295 H1282 0.929 . S
C1295 C1287 1.433 1_556 S
C1295 N1297 1.384 . S
N1296 C1292 1.427 1_554 S
N1296 C1293 1.384 . S
N1297 C1289 1.427 1_556 S
N1297 C1295 1.384 . S
H1298 C1304 0.930 . S
H1299 C1308 0.930 . S
H1300 C1313 0.929 . S
H1301 C1311 0.929 . S
H1302 C1306 0.929 . S
H1303 C1312 0.929 . S
C1304 H1298 0.930 . S
C1304 C1305 1.336 1_565 S
C1304 C1312 1.378 . S
C1305 C1304 1.336 1_545 S
C1305 C1313 1.464 1_554 S
C1306 H1302 0.929 . S
C1306 C1308 1.378 . S
C1306 C1310 1.355 . S
C1307 C1310 1.462 1_464 S
C1307 C1312 1.355 . S
C1307 N1315 1.422 1_564 S
C1308 H1299 0.930 . S
C1308 C1306 1.378 . S
C1308 C1309 1.336 1_545 S
C1309 C1308 1.336 1_565 S
C1309 C1311 1.464 1_556 S
C1310 C1306 1.355 . S
C1310 C1307 1.462 1_646 S
C1310 N1314 1.422 1_546 S
C1311 H1301 0.929 . S
C1311 C1309 1.464 1_554 S
C1311 N1314 1.384 . S
C1312 H1303 0.929 . S
C1312 C1304 1.378 . S
C1312 C1307 1.355 . S
C1313 H1300 0.929 . S
C1313 C1305 1.464 1_556 S
C1313 N1315 1.384 . S
N1314 C1310 1.422 1_564 S
N1314 C1311 1.384 . S
N1315 C1307 1.422 1_546 S
N1315 C1313 1.384 . S
H1316 C1322 0.930 . S
H1317 C1326 0.930 . S
H1318 C1331 0.929 . S
H1319 C1329 0.929 . S
H1320 C1324 0.929 . S
H1321 C1330 0.929 . S
C1322 H1316 0.930 . S
C1322 C1323 1.330 1_565 S
C1322 C1330 1.378 . S
C1323 C1322 1.330 1_545 S
C1323 C1331 1.470 . S
C1324 H1320 0.929 . S
C1324 C1326 1.378 . S
C1324 C1328 1.361 . S
C1325 C1328 1.462 1_565 S
C1325 C1330 1.360 . S
C1325 N1333 1.417 1_565 S
C1326 H1317 0.930 . S
C1326 C1324 1.378 . S
C1326 C1327 1.331 1_545 S
C1327 C1326 1.331 1_565 S
C1327 C1329 1.469 . S
C1328 C1324 1.361 . S
C1328 C1325 1.462 1_545 S
C1328 N1332 1.416 1_545 S
C1329 H1319 0.929 . S
C1329 C1327 1.469 . S
C1329 N1332 1.384 . S
C1330 H1321 0.929 . S
C1330 C1322 1.378 . S
C1330 C1325 1.360 . S
C1331 H1318 0.929 . S
C1331 C1323 1.470 . S
C1331 N1333 1.384 . S
N1332 C1328 1.416 1_565 S
N1332 C1329 1.384 . S
N1333 C1325 1.417 1_545 S
N1333 C1331 1.384 . S
H1334 C1340 0.930 . S
H1335 C1344 0.930 . S
H1336 C1349 0.929 . S
H1337 C1347 0.929 . S
H1338 C1342 0.929 . S
H1339 C1348 0.929 . S
C1340 H1334 0.930 . S
C1340 C1341 1.367 . S
C1340 C1348 1.378 . S
C1341 C1340 1.367 . S
C1341 C1349 1.433 . S
C1342 H1338 0.929 . S
C1342 C1344 1.378 . S
C1342 C1346 1.350 . S
C1343 C1346 1.463 1_455 S
C1343 C1348 1.350 . S
C1343 N1351 1.427 . S
C1344 H1335 0.930 . S
C1344 C1342 1.378 . S
C1344 C1345 1.367 . S
C1345 C1344 1.367 . S
C1345 C1347 1.433 . S
C1346 C1342 1.350 . S
C1346 C1343 1.463 1_655 S
C1346 N1350 1.427 . S
C1347 H1337 0.929 . S
C1347 C1345 1.433 . S
C1347 N1350 1.384 . S
C1348 H1339 0.929 . S
C1348 C1340 1.378 . S
C1348 C1343 1.350 . S
C1349 H1336 0.929 . S
C1349 C1341 1.433 . S
C1349 N1351 1.384 . S
N1350 C1346 1.427 . S
N1350 C1347 1.384 . S
N1351 C1343 1.427 . S
N1351 C1349 1.384 . S
H1352 C1358 0.930 . S
H1353 C1362 0.930 . S
H1354 C1367 0.929 . S
H1355 C1365 0.929 . S
H1356 C1360 0.929 . S
H1357 C1366 0.929 . S
C1358 H1352 0.930 . S
C1358 C1359 1.367 . S
C1358 C1366 1.378 . S
C1359 C1358 1.367 . S
C1359 C1367 1.433 1_554 S
C1360 H1356 0.929 . S
C1360 C1362 1.378 . S
C1360 C1364 1.350 . S
C1361 C1364 1.463 1_554 S
C1361 C1366 1.350 . S
C1361 N1369 1.427 1_554 S
C1362 H1353 0.930 . S
C1362 C1360 1.378 . S
C1362 C1363 1.367 . S
C1363 C1362 1.367 . S
C1363 C1365 1.433 1_556 S
C1364 C1360 1.350 . S
C1364 C1361 1.463 1_556 S
C1364 N1368 1.427 1_556 S
C1365 H1355 0.929 . S
C1365 C1363 1.433 1_554 S
C1365 N1368 1.384 . S
C1366 H1357 0.929 . S
C1366 C1358 1.378 . S
C1366 C1361 1.350 . S
C1367 H1354 0.929 . S
C1367 C1359 1.433 1_556 S
C1367 N1369 1.384 . S
N1368 C1364 1.427 1_554 S
N1368 C1365 1.384 . S
N1369 C1361 1.427 1_556 S
N1369 C1367 1.384 . S
H1370 C1376 0.930 . S
H1371 C1380 0.930 . S
H1372 C1385 0.929 . S
H1373 C1383 0.929 . S
H1374 C1378 0.929 . S
H1375 C1384 0.929 . S
C1376 H1370 0.930 . S
C1376 C1377 1.367 . S
C1376 C1384 1.378 . S
C1377 C1376 1.367 . S
C1377 C1385 1.433 1_565 S
C1378 H1374 0.929 . S
C1378 C1380 1.378 . S
C1378 C1382 1.361 . S
C1379 C1382 1.461 1_565 S
C1379 C1384 1.362 . S
C1379 N1387 1.416 1_565 S
C1380 H1371 0.930 . S
C1380 C1378 1.378 . S
C1380 C1381 1.367 . S
C1381 C1380 1.367 . S
C1381 C1383 1.433 1_545 S
C1382 C1378 1.361 . S
C1382 C1379 1.461 1_545 S
C1382 N1386 1.417 1_545 S
C1383 H1373 0.929 . S
C1383 C1381 1.433 1_565 S
C1383 N1386 1.384 . S
C1384 H1375 0.929 . S
C1384 C1376 1.378 . S
C1384 C1379 1.362 . S
C1385 H1372 0.929 . S
C1385 C1377 1.433 1_545 S
C1385 N1387 1.384 . S
N1386 C1382 1.417 1_565 S
N1386 C1383 1.384 . S
N1387 C1379 1.416 1_545 S
N1387 C1385 1.384 . S
H1388 C1394 0.930 . S
H1389 C1398 0.930 . S
H1390 C1403 0.929 . S
H1391 C1401 0.929 . S
H1392 C1396 0.929 . S
H1393 C1402 0.929 . S
C1394 H1388 0.930 . S
C1394 C1395 1.367 . S
C1394 C1402 1.378 . S
C1395 C1394 1.367 . S
C1395 C1403 1.433 . S
C1396 H1392 0.929 . S
C1396 C1398 1.378 . S
C1396 C1400 1.350 . S
C1397 C1400 1.463 1_655 S
C1397 C1402 1.350 . S
C1397 N1405 1.427 . S
C1398 H1389 0.930 . S
C1398 C1396 1.378 . S
C1398 C1399 1.367 . S
C1399 C1398 1.367 . S
C1399 C1401 1.433 . S
C1400 C1396 1.350 . S
C1400 C1397 1.463 1_455 S
C1400 N1404 1.427 . S
C1401 H1391 0.929 . S
C1401 C1399 1.433 . S
C1401 N1404 1.384 . S
C1402 H1393 0.929 . S
C1402 C1394 1.378 . S
C1402 C1397 1.350 . S
C1403 H1390 0.929 . S
C1403 C1395 1.433 . S
C1403 N1405 1.384 . S
N1404 C1400 1.427 . S
N1404 C1401 1.384 . S
N1405 C1397 1.427 . S
N1405 C1403 1.384 . S
H1406 C1412 0.930 . S
H1407 C1416 0.930 . S
H1408 C1421 0.929 . S
H1409 C1419 0.929 . S
H1410 C1414 0.929 . S
H1411 C1420 0.929 . S
C1412 H1406 0.930 . S
C1412 C1413 1.367 . S
C1412 C1420 1.378 . S
C1413 C1412 1.367 . S
C1413 C1421 1.433 . S
C1414 H1410 0.929 . S
C1414 C1416 1.378 . S
C1414 C1418 1.350 . S
C1415 C1418 1.463 . S
C1415 C1420 1.350 . S
C1415 N1423 1.427 . S
C1416 H1407 0.930 . S
C1416 C1414 1.378 . S
C1416 C1417 1.367 . S
C1417 C1416 1.367 . S
C1417 C1419 1.433 . S
C1418 C1414 1.350 . S
C1418 C1415 1.463 . S
C1418 N1422 1.427 . S
C1419 H1409 0.929 . S
C1419 C1417 1.433 . S
C1419 N1422 1.384 . S
C1420 H1411 0.929 . S
C1420 C1412 1.378 . S
C1420 C1415 1.350 . S
C1421 H1408 0.929 . S
C1421 C1413 1.433 . S
C1421 N1423 1.384 . S
N1422 C1418 1.427 . S
N1422 C1419 1.384 . S
N1423 C1415 1.427 . S
N1423 C1421 1.384 . S
H1424 C1430 0.930 . S
H1425 C1434 0.930 . S
H1426 C1439 0.929 . S
H1427 C1437 0.929 . S
H1428 C1432 0.929 . S
H1429 C1438 0.929 . S
C1430 H1424 0.930 . S
C1430 C1431 1.367 . S
C1430 C1438 1.378 . S
C1431 C1430 1.367 . S
C1431 C1439 1.433 . S
C1432 H1428 0.929 . S
C1432 C1434 1.378 . S
C1432 C1436 1.350 . S
C1433 C1436 1.463 1_655 S
C1433 C1438 1.350 . S
C1433 N1441 1.427 . S
C1434 H1425 0.930 . S
C1434 C1432 1.378 . S
C1434 C1435 1.367 . S
C1435 C1434 1.367 . S
C1435 C1437 1.433 . S
C1436 C1432 1.350 . S
C1436 C1433 1.463 1_455 S
C1436 N1440 1.427 . S
C1437 H1427 0.929 . S
C1437 C1435 1.433 . S
C1437 N1440 1.384 . S
C1438 H1429 0.929 . S
C1438 C1430 1.378 . S
C1438 C1433 1.350 . S
C1439 H1426 0.929 . S
C1439 C1431 1.433 . S
C1439 N1441 1.384 . S
N1440 C1436 1.427 . S
N1440 C1437 1.384 . S
N1441 C1433 1.427 . S
N1441 C1439 1.384 . S
H1442 C1448 0.930 . S
H1443 C1452 0.930 . S
H1444 C1457 0.929 . S
H1445 C1455 0.929 . S
H1446 C1450 0.929 . S
H1447 C1456 0.929 . S
C1448 H1442 0.930 . S
C1448 C1449 1.367 . S
C1448 C1456 1.378 . S
C1449 C1448 1.367 . S
C1449 C1457 1.433 . S
C1450 H1446 0.929 . S
C1450 C1452 1.378 . S
C1450 C1454 1.350 . S
C1451 C1454 1.463 . S
C1451 C1456 1.350 . S
C1451 N1459 1.427 . S
C1452 H1443 0.930 . S
C1452 C1450 1.378 . S
C1452 C1453 1.367 . S
C1453 C1452 1.367 . S
C1453 C1455 1.433 . S
C1454 C1450 1.350 . S
C1454 C1451 1.463 . S
C1454 N1458 1.427 . S
C1455 H1445 0.929 . S
C1455 C1453 1.433 . S
C1455 N1458 1.384 . S
C1456 H1447 0.929 . S
C1456 C1448 1.378 . S
C1456 C1451 1.350 . S
C1457 H1444 0.929 . S
C1457 C1449 1.433 . S
C1457 N1459 1.384 . S
N1458 C1454 1.427 . S
N1458 C1455 1.384 . S
N1459 C1451 1.427 . S
N1459 C1457 1.384 . S
H1460 C1466 0.930 . S
H1461 C1470 0.930 . S
H1462 C1475 0.929 . S
H1463 C1473 0.929 . S
H1464 C1468 0.929 . S
H1465 C1474 0.929 . S
C1466 H1460 0.930 . S
C1466 C1467 1.367 . S
C1466 C1474 1.378 . S
C1467 C1466 1.367 . S
C1467 C1475 1.433 . S
C1468 H1464 0.929 . S
C1468 C1470 1.378 . S
C1468 C1472 1.350 . S
C1469 C1472 1.463 . S
C1469 C1474 1.350 . S
C1469 N1477 1.427 . S
C1470 H1461 0.930 . S
C1470 C1468 1.378 . S
C1470 C1471 1.367 . S
C1471 C1470 1.367 . S
C1471 C1473 1.433 . S
C1472 C1468 1.350 . S
C1472 C1469 1.463 . S
C1472 N1476 1.427 . S
C1473 H1463 0.929 . S
C1473 C1471 1.433 . S
C1473 N1476 1.384 . S
C1474 H1465 0.929 . S
C1474 C1466 1.378 . S
C1474 C1469 1.350 . S
C1475 H1462 0.929 . S
C1475 C1467 1.433 . S
C1475 N1477 1.384 . S
N1476 C1472 1.427 . S
N1476 C1473 1.384 . S
N1477 C1469 1.427 . S
N1477 C1475 1.384 . S
H1478 C1484 0.930 . S
H1479 C1488 0.930 . S
H1480 C1493 0.929 . S
H1481 C1491 0.929 . S
H1482 C1486 0.929 . S
H1483 C1492 0.929 . S
C1484 H1478 0.930 . S
C1484 C1485 1.367 . S
C1484 C1492 1.378 . S
C1485 C1484 1.367 . S
C1485 C1493 1.433 . S
C1486 H1482 0.929 . S
C1486 C1488 1.378 . S
C1486 C1490 1.350 . S
C1487 C1490 1.463 . S
C1487 C1492 1.350 . S
C1487 N1495 1.427 . S
C1488 H1479 0.930 . S
C1488 C1486 1.378 . S
C1488 C1489 1.367 . S
C1489 C1488 1.367 . S
C1489 C1491 1.433 . S
C1490 C1486 1.350 . S
C1490 C1487 1.463 . S
C1490 N1494 1.427 . S
C1491 H1481 0.929 . S
C1491 C1489 1.433 . S
C1491 N1494 1.384 . S
C1492 H1483 0.929 . S
C1492 C1484 1.378 . S
C1492 C1487 1.350 . S
C1493 H1480 0.929 . S
C1493 C1485 1.433 . S
C1493 N1495 1.384 . S
N1494 C1490 1.427 . S
N1494 C1491 1.384 . S
N1495 C1487 1.427 . S
N1495 C1493 1.384 . S
H1496 C1502 0.930 . S
H1497 C1506 0.930 . S
H1498 C1511 0.929 . S
H1499 C1509 0.929 . S
H1500 C1504 0.929 . S
H1501 C1510 0.929 . S
C1502 H1496 0.930 . S
C1502 C1503 1.367 . S
C1502 C1510 1.378 . S
C1503 C1502 1.367 . S
C1503 C1511 1.433 1_565 S
C1504 H1500 0.929 . S
C1504 C1506 1.378 . S
C1504 C1508 1.351 . S
C1505 C1508 1.462 1_565 S
C1505 C1510 1.351 . S
C1505 N1513 1.426 1_565 S
C1506 H1497 0.930 . S
C1506 C1504 1.378 . S
C1506 C1507 1.367 . S
C1507 C1506 1.367 . S
C1507 C1509 1.433 1_545 S
C1508 C1504 1.351 . S
C1508 C1505 1.462 1_545 S
C1508 N1512 1.426 1_545 S
C1509 H1499 0.929 . S
C1509 C1507 1.433 1_565 S
C1509 N1512 1.384 . S
C1510 H1501 0.929 . S
C1510 C1502 1.378 . S
C1510 C1505 1.351 . S
C1511 H1498 0.929 . S
C1511 C1503 1.433 1_545 S
C1511 N1513 1.384 . S
N1512 C1508 1.426 1_565 S
N1512 C1509 1.384 . S
N1513 C1505 1.426 1_545 S
N1513 C1511 1.384 . S
H1514 C1520 0.930 . S
H1515 C1524 0.930 . S
H1516 C1529 0.929 . S
H1517 C1527 0.929 . S
H1518 C1522 0.929 . S
H1519 C1528 0.929 . S
C1520 H1514 0.930 . S
C1520 C1521 1.367 . S
C1520 C1528 1.378 . S
C1521 C1520 1.367 . S
C1521 C1529 1.433 . S
C1522 H1518 0.929 . S
C1522 C1524 1.378 . S
C1522 C1526 1.350 . S
C1523 C1526 1.463 . S
C1523 C1528 1.350 . S
C1523 N1531 1.427 . S
C1524 H1515 0.930 . S
C1524 C1522 1.378 . S
C1524 C1525 1.367 . S
C1525 C1524 1.367 . S
C1525 C1527 1.433 . S
C1526 C1522 1.350 . S
C1526 C1523 1.463 . S
C1526 N1530 1.427 . S
C1527 H1517 0.929 . S
C1527 C1525 1.433 . S
C1527 N1530 1.384 . S
C1528 H1519 0.929 . S
C1528 C1520 1.378 . S
C1528 C1523 1.350 . S
C1529 H1516 0.929 . S
C1529 C1521 1.433 . S
C1529 N1531 1.384 . S
N1530 C1526 1.427 . S
N1530 C1527 1.384 . S
N1531 C1523 1.427 . S
N1531 C1529 1.384 . S
H1532 C1538 0.930 . S
H1533 C1542 0.930 . S
H1534 C1547 0.929 . S
H1535 C1545 0.929 . S
H1536 C1540 0.929 . S
H1537 C1546 0.929 . S
C1538 H1532 0.930 . S
C1538 C1539 1.367 . S
C1538 C1546 1.378 . S
C1539 C1538 1.367 . S
C1539 C1547 1.433 . S
C1540 H1536 0.929 . S
C1540 C1542 1.378 . S
C1540 C1544 1.350 . S
C1541 C1544 1.463 . S
C1541 C1546 1.350 . S
C1541 N1549 1.427 . S
C1542 H1533 0.930 . S
C1542 C1540 1.378 . S
C1542 C1543 1.367 . S
C1543 C1542 1.367 . S
C1543 C1545 1.433 . S
C1544 C1540 1.350 . S
C1544 C1541 1.463 . S
C1544 N1548 1.427 . S
C1545 H1535 0.929 . S
C1545 C1543 1.433 . S
C1545 N1548 1.384 . S
C1546 H1537 0.929 . S
C1546 C1538 1.378 . S
C1546 C1541 1.350 . S
C1547 H1534 0.929 . S
C1547 C1539 1.433 . S
C1547 N1549 1.384 . S
N1548 C1544 1.427 . S
N1548 C1545 1.384 . S
N1549 C1541 1.427 . S
N1549 C1547 1.384 . S
H1550 C1556 0.930 . S
H1551 C1560 0.930 . S
H1552 C1565 0.929 . S
H1553 C1563 0.929 . S
H1554 C1558 0.929 . S
H1555 C1564 0.929 . S
C1556 H1550 0.930 . S
C1556 C1557 1.367 1_556 S
C1556 C1564 1.378 . S
C1557 C1556 1.367 1_554 S
C1557 C1565 1.433 . S
C1558 H1554 0.929 . S
C1558 C1560 1.378 . S
C1558 C1562 1.350 1_554 S
C1559 C1562 1.463 1_554 S
C1559 C1564 1.350 1_554 S
C1559 N1567 1.427 . S
C1560 H1551 0.930 . S
C1560 C1558 1.378 . S
C1560 C1561 1.367 1_554 S
C1561 C1560 1.367 1_556 S
C1561 C1563 1.433 . S
C1562 C1558 1.350 1_556 S
C1562 C1559 1.463 1_556 S
C1562 N1566 1.427 . S
C1563 H1553 0.929 . S
C1563 C1561 1.433 . S
C1563 N1566 1.384 . S
C1564 H1555 0.929 . S
C1564 C1556 1.378 . S
C1564 C1559 1.350 1_556 S
C1565 H1552 0.929 . S
C1565 C1557 1.433 . S
C1565 N1567 1.384 . S
N1566 C1562 1.427 . S
N1566 C1563 1.384 . S
N1567 C1559 1.427 . S
N1567 C1565 1.384 . S
H1568 C1574 0.930 . S
H1569 C1578 0.930 . S
H1570 C1583 0.929 . S
H1571 C1581 0.929 . S
H1572 C1576 0.929 . S
H1573 C1582 0.929 . S
C1574 H1568 0.930 . S
C1574 C1575 1.367 . S
C1574 C1582 1.378 . S
C1575 C1574 1.367 . S
C1575 C1583 1.433 . S
C1576 H1572 0.929 . S
C1576 C1578 1.378 . S
C1576 C1580 1.350 . S
C1577 C1580 1.463 . S
C1577 C1582 1.350 . S
C1577 N1585 1.427 . S
C1578 H1569 0.930 . S
C1578 C1576 1.378 . S
C1578 C1579 1.367 . S
C1579 C1578 1.367 . S
C1579 C1581 1.433 . S
C1580 C1576 1.350 . S
C1580 C1577 1.463 . S
C1580 N1584 1.427 . S
C1581 H1571 0.929 . S
C1581 C1579 1.433 . S
C1581 N1584 1.384 . S
C1582 H1573 0.929 . S
C1582 C1574 1.378 . S
C1582 C1577 1.350 . S
C1583 H1570 0.929 . S
C1583 C1575 1.433 . S
C1583 N1585 1.384 . S
N1584 C1580 1.427 . S
N1584 C1581 1.384 . S
N1585 C1577 1.427 . S
N1585 C1583 1.384 . S
H1586 C1592 0.930 . S
H1587 C1596 0.930 . S
H1588 C1601 0.929 . S
H1589 C1599 0.929 . S
H1590 C1594 0.929 . S
H1591 C1600 0.929 . S
C1592 H1586 0.930 . S
C1592 C1593 1.367 . S
C1592 C1600 1.378 . S
C1593 C1592 1.367 . S
C1593 C1601 1.433 1_565 S
C1594 H1590 0.929 . S
C1594 C1596 1.378 . S
C1594 C1598 1.350 1_545 S
C1595 C1598 1.463 . S
C1595 C1600 1.350 . S
C1595 N1603 1.427 1_565 S
C1596 H1587 0.930 . S
C1596 C1594 1.378 . S
C1596 C1597 1.367 1_545 S
C1597 C1596 1.367 1_565 S
C1597 C1599 1.433 . S
C1598 C1594 1.350 1_565 S
C1598 C1595 1.463 . S
C1598 N1602 1.427 . S
C1599 H1589 0.929 . S
C1599 C1597 1.433 . S
C1599 N1602 1.384 . S
C1600 H1591 0.929 . S
C1600 C1592 1.378 . S
C1600 C1595 1.350 . S
C1601 H1588 0.929 . S
C1601 C1593 1.433 1_545 S
C1601 N1603 1.384 . S
N1602 C1598 1.427 . S
N1602 C1599 1.384 . S
N1603 C1595 1.427 1_545 S
N1603 C1601 1.384 . S
H1604 C1610 0.930 . S
H1605 C1614 0.930 . S
H1606 C1619 0.929 . S
H1607 C1617 0.929 . S
H1608 C1612 0.929 . S
H1609 C1618 0.929 . S
C1610 H1604 0.930 . S
C1610 C1611 1.367 . S
C1610 C1618 1.378 . S
C1611 C1610 1.367 . S
C1611 C1619 1.433 1_565 S
C1612 H1608 0.929 . S
C1612 C1614 1.378 . S
C1612 C1616 1.350 1_545 S
C1613 C1616 1.463 . S
C1613 C1618 1.350 . S
C1613 N1621 1.427 1_565 S
C1614 H1605 0.930 . S
C1614 C1612 1.378 . S
C1614 C1615 1.367 1_545 S
C1615 C1614 1.367 1_565 S
C1615 C1617 1.433 . S
C1616 C1612 1.350 1_565 S
C1616 C1613 1.463 . S
C1616 N1620 1.427 . S
C1617 H1607 0.929 . S
C1617 C1615 1.433 . S
C1617 N1620 1.384 . S
C1618 H1609 0.929 . S
C1618 C1610 1.378 . S
C1618 C1613 1.350 . S
C1619 H1606 0.929 . S
C1619 C1611 1.433 1_545 S
C1619 N1621 1.384 . S
N1620 C1616 1.427 . S
N1620 C1617 1.384 . S
N1621 C1613 1.427 1_545 S
N1621 C1619 1.384 . S
H1622 C1628 0.930 . S
H1623 C1632 0.930 . S
H1624 C1637 0.929 1_554 S
H1625 C1635 0.929 . S
H1626 C1630 0.929 . S
H1627 C1636 0.929 . S
C1628 H1622 0.930 . S
C1628 C1629 1.367 . S
C1628 C1636 1.378 . S
C1629 C1628 1.367 . S
C1629 C1637 1.433 . S
C1630 H1626 0.929 . S
C1630 C1632 1.378 . S
C1630 C1634 1.350 . S
C1631 C1634 1.463 . S
C1631 C1636 1.350 . S
C1631 N1639 1.427 . S
C1632 H1623 0.930 . S
C1632 C1630 1.378 . S
C1632 C1633 1.367 . S
C1633 C1632 1.367 . S
C1633 C1635 1.433 . S
C1634 C1630 1.350 . S
C1634 C1631 1.463 . S
C1634 N1638 1.427 . S
C1635 H1625 0.929 . S
C1635 C1633 1.433 . S
C1635 N1638 1.384 . S
C1636 H1627 0.929 . S
C1636 C1628 1.378 . S
C1636 C1631 1.350 . S
C1637 H1624 0.929 1_556 S
C1637 C1629 1.433 . S
C1637 N1639 1.384 . S
N1638 C1634 1.427 . S
N1638 C1635 1.384 . S
N1639 C1631 1.427 . S
N1639 C1637 1.384 . S
H1640 C1646 0.930 . S
H1641 C1650 0.930 . S
H1642 C1655 0.929 . S
H1643 C1653 0.929 . S
H1644 C1648 0.929 . S
H1645 C1654 0.929 . S
C1646 H1640 0.930 . S
C1646 C1647 1.367 . S
C1646 C1654 1.378 . S
C1647 C1646 1.367 . S
C1647 C1655 1.433 . S
C1648 H1644 0.929 . S
C1648 C1650 1.378 . S
C1648 C1652 1.350 . S
C1649 C1652 1.463 . S
C1649 C1654 1.350 . S
C1649 N1657 1.427 . S
C1650 H1641 0.930 . S
C1650 C1648 1.378 . S
C1650 C1651 1.367 . S
C1651 C1650 1.367 . S
C1651 C1653 1.433 . S
C1652 C1648 1.350 . S
C1652 C1649 1.463 . S
C1652 N1656 1.427 . S
C1653 H1643 0.929 . S
C1653 C1651 1.433 . S
C1653 N1656 1.384 . S
C1654 H1645 0.929 . S
C1654 C1646 1.378 . S
C1654 C1649 1.350 . S
C1655 H1642 0.929 . S
C1655 C1647 1.433 . S
C1655 N1657 1.384 . S
N1656 C1652 1.427 . S
N1656 C1653 1.384 . S
N1657 C1649 1.427 . S
N1657 C1655 1.384 . S
H1658 C1664 0.930 . S
H1659 C1668 0.930 . S
H1660 C1673 0.929 . S
H1661 C1671 0.929 . S
H1662 C1666 0.929 . S
H1663 C1672 0.929 . S
C1664 H1658 0.930 . S
C1664 C1665 1.367 1_565 S
C1664 C1672 1.378 . S
C1665 C1664 1.367 1_545 S
C1665 C1673 1.433 . S
C1666 H1662 0.929 . S
C1666 C1668 1.378 . S
C1666 C1670 1.350 . S
C1667 C1670 1.463 . S
C1667 C1672 1.350 1_545 S
C1667 N1675 1.427 . S
C1668 H1659 0.930 . S
C1668 C1666 1.378 . S
C1668 C1669 1.367 . S
C1669 C1668 1.367 . S
C1669 C1671 1.433 1_545 S
C1670 C1666 1.350 . S
C1670 C1667 1.463 . S
C1670 N1674 1.427 1_545 S
C1671 H1661 0.929 . S
C1671 C1669 1.433 1_565 S
C1671 N1674 1.384 . S
C1672 H1663 0.929 . S
C1672 C1664 1.378 . S
C1672 C1667 1.350 1_565 S
C1673 H1660 0.929 . S
C1673 C1665 1.433 . S
C1673 N1675 1.384 . S
N1674 C1670 1.427 1_565 S
N1674 C1671 1.384 . S
N1675 C1667 1.427 . S
N1675 C1673 1.384 . S
H1676 C1682 0.930 . S
H1677 C1686 0.930 . S
H1678 C1691 0.929 . S
H1679 C1689 0.929 . S
H1680 C1684 0.929 . S
H1681 C1690 0.929 . S
C1682 H1676 0.930 . S
C1682 C1683 1.367 1_565 S
C1682 C1690 1.378 . S
C1683 C1682 1.367 1_545 S
C1683 C1691 1.433 . S
C1684 H1680 0.929 . S
C1684 C1686 1.378 . S
C1684 C1688 1.350 . S
C1685 C1688 1.463 . S
C1685 C1690 1.350 1_545 S
C1685 N1693 1.427 . S
C1686 H1677 0.930 . S
C1686 C1684 1.378 . S
C1686 C1687 1.367 . S
C1687 C1686 1.367 . S
C1687 C1689 1.433 1_545 S
C1688 C1684 1.350 . S
C1688 C1685 1.463 . S
C1688 N1692 1.427 1_545 S
C1689 H1679 0.929 . S
C1689 C1687 1.433 1_565 S
C1689 N1692 1.384 . S
C1690 H1681 0.929 . S
C1690 C1682 1.378 . S
C1690 C1685 1.350 1_565 S
C1691 H1678 0.929 . S
C1691 C1683 1.433 . S
C1691 N1693 1.384 . S
N1692 C1688 1.427 1_565 S
N1692 C1689 1.384 . S
N1693 C1685 1.427 . S
N1693 C1691 1.384 . S
H1694 C1700 0.930 . S
H1695 C1704 0.930 . S
H1696 C1709 0.929 . S
H1697 C1707 0.929 . S
H1698 C1702 0.929 . S
H1699 C1708 0.929 . S
C1700 H1694 0.930 . S
C1700 C1701 1.367 . S
C1700 C1708 1.378 . S
C1701 C1700 1.367 . S
C1701 C1709 1.433 . S
C1702 H1698 0.929 . S
C1702 C1704 1.378 . S
C1702 C1706 1.350 . S
C1703 C1706 1.463 . S
C1703 C1708 1.350 . S
C1703 N1711 1.427 . S
C1704 H1695 0.930 . S
C1704 C1702 1.378 . S
C1704 C1705 1.367 . S
C1705 C1704 1.367 . S
C1705 C1707 1.433 . S
C1706 C1702 1.350 . S
C1706 C1703 1.463 . S
C1706 N1710 1.427 . S
C1707 H1697 0.929 . S
C1707 C1705 1.433 . S
C1707 N1710 1.384 . S
C1708 H1699 0.929 . S
C1708 C1700 1.378 . S
C1708 C1703 1.350 . S
C1709 H1696 0.929 . S
C1709 C1701 1.433 . S
C1709 N1711 1.384 . S
N1710 C1706 1.427 . S
N1710 C1707 1.384 . S
N1711 C1703 1.427 . S
N1711 C1709 1.384 . S
H1712 C1718 0.930 . S
H1713 C1722 0.930 . S
H1714 C1727 0.929 . S
H1715 C1725 0.929 . S
H1716 C1720 0.929 . S
H1717 C1726 0.929 . S
C1718 H1712 0.930 . S
C1718 C1719 1.367 . S
C1718 C1726 1.378 . S
C1719 C1718 1.367 . S
C1719 C1727 1.433 . S
C1720 H1716 0.929 . S
C1720 C1722 1.378 . S
C1720 C1724 1.350 . S
C1721 C1724 1.463 . S
C1721 C1726 1.350 . S
C1721 N1729 1.427 . S
C1722 H1713 0.930 . S
C1722 C1720 1.378 . S
C1722 C1723 1.367 . S
C1723 C1722 1.367 . S
C1723 C1725 1.433 . S
C1724 C1720 1.350 . S
C1724 C1721 1.463 . S
C1724 N1728 1.427 . S
C1725 H1715 0.929 . S
C1725 C1723 1.433 . S
C1725 N1728 1.384 . S
C1726 H1717 0.929 . S
C1726 C1718 1.378 . S
C1726 C1721 1.350 . S
C1727 H1714 0.929 . S
C1727 C1719 1.433 . S
C1727 N1729 1.384 . S
N1728 C1724 1.427 . S
N1728 C1725 1.384 . S
N1729 C1721 1.427 . S
N1729 C1727 1.384 . S
H1730 C1736 0.930 . S
H1731 C1740 0.930 . S
H1732 C1745 0.929 . S
H1733 C1743 0.929 . S
H1734 C1738 0.929 . S
H1735 C1744 0.929 . S
C1736 H1730 0.930 . S
C1736 C1737 1.367 . S
C1736 C1744 1.378 . S
C1737 C1736 1.367 . S
C1737 C1745 1.433 . S
C1738 H1734 0.929 . S
C1738 C1740 1.378 . S
C1738 C1742 1.350 . S
C1739 C1742 1.463 . S
C1739 C1744 1.350 . S
C1739 N1747 1.427 . S
C1740 H1731 0.930 . S
C1740 C1738 1.378 . S
C1740 C1741 1.367 . S
C1741 C1740 1.367 . S
C1741 C1743 1.433 . S
C1742 C1738 1.350 . S
C1742 C1739 1.463 . S
C1742 N1746 1.427 . S
C1743 H1733 0.929 . S
C1743 C1741 1.433 . S
C1743 N1746 1.384 . S
C1744 H1735 0.929 . S
C1744 C1736 1.378 . S
C1744 C1739 1.350 . S
C1745 H1732 0.929 . S
C1745 C1737 1.433 . S
C1745 N1747 1.384 . S
N1746 C1742 1.427 . S
N1746 C1743 1.384 . S
N1747 C1739 1.427 . S
N1747 C1745 1.384 . S
H1748 C1754 0.930 . S
H1749 C1758 0.930 . S
H1750 C1763 0.929 . S
H1751 C1761 0.929 . S
H1752 C1756 0.929 . S
H1753 C1762 0.929 . S
C1754 H1748 0.930 . S
C1754 C1755 1.367 . S
C1754 C1762 1.378 . S
C1755 C1754 1.367 . S
C1755 C1763 1.433 . S
C1756 H1752 0.929 . S
C1756 C1758 1.378 . S
C1756 C1760 1.350 . S
C1757 C1760 1.463 . S
C1757 C1762 1.350 . S
C1757 N1765 1.427 . S
C1758 H1749 0.930 . S
C1758 C1756 1.378 . S
C1758 C1759 1.367 . S
C1759 C1758 1.367 . S
C1759 C1761 1.433 . S
C1760 C1756 1.350 . S
C1760 C1757 1.463 . S
C1760 N1764 1.427 . S
C1761 H1751 0.929 . S
C1761 C1759 1.433 . S
C1761 N1764 1.384 . S
C1762 H1753 0.929 . S
C1762 C1754 1.378 . S
C1762 C1757 1.350 . S
C1763 H1750 0.929 . S
C1763 C1755 1.433 . S
C1763 N1765 1.384 . S
N1764 C1760 1.427 . S
N1764 C1761 1.384 . S
N1765 C1757 1.427 . S
N1765 C1763 1.384 . S
H1766 C1772 0.930 . S
H1767 C1776 0.930 . S
H1768 C1781 0.929 . S
H1769 C1779 0.929 . S
H1770 C1774 0.929 . S
H1771 C1780 0.929 . S
C1772 H1766 0.930 . S
C1772 C1773 1.367 . S
C1772 C1780 1.378 . S
C1773 C1772 1.367 . S
C1773 C1781 1.433 . S
C1774 H1770 0.929 . S
C1774 C1776 1.378 . S
C1774 C1778 1.350 . S
C1775 C1778 1.463 . S
C1775 C1780 1.350 . S
C1775 N1783 1.427 . S
C1776 H1767 0.930 . S
C1776 C1774 1.378 . S
C1776 C1777 1.367 . S
C1777 C1776 1.367 . S
C1777 C1779 1.433 . S
C1778 C1774 1.350 . S
C1778 C1775 1.463 . S
C1778 N1782 1.427 . S
C1779 H1769 0.929 . S
C1779 C1777 1.433 . S
C1779 N1782 1.384 . S
C1780 H1771 0.929 . S
C1780 C1772 1.378 . S
C1780 C1775 1.350 . S
C1781 H1768 0.929 . S
C1781 C1773 1.433 . S
C1781 N1783 1.384 . S
N1782 C1778 1.427 . S
N1782 C1779 1.384 . S
N1783 C1775 1.427 . S
N1783 C1781 1.384 . S
H1784 C1790 0.930 . S
H1785 C1794 0.930 . S
H1786 C1799 0.929 . S
H1787 C1797 0.929 . S
H1788 C1792 0.929 . S
H1789 C1798 0.929 . S
C1790 H1784 0.930 . S
C1790 C1791 1.367 . S
C1790 C1798 1.378 . S
C1791 C1790 1.367 . S
C1791 C1799 1.433 . S
C1792 H1788 0.929 . S
C1792 C1794 1.378 . S
C1792 C1796 1.350 . S
C1793 C1796 1.463 . S
C1793 C1798 1.350 . S
C1793 N1801 1.427 . S
C1794 H1785 0.930 . S
C1794 C1792 1.378 . S
C1794 C1795 1.367 . S
C1795 C1794 1.367 . S
C1795 C1797 1.433 . S
C1796 C1792 1.350 . S
C1796 C1793 1.463 . S
C1796 N1800 1.427 . S
C1797 H1787 0.929 . S
C1797 C1795 1.433 . S
C1797 N1800 1.384 . S
C1798 H1789 0.929 . S
C1798 C1790 1.378 . S
C1798 C1793 1.350 . S
C1799 H1786 0.929 . S
C1799 C1791 1.433 . S
C1799 N1801 1.384 . S
N1800 C1796 1.427 . S
N1800 C1797 1.384 . S
N1801 C1793 1.427 . S
N1801 C1799 1.384 . S
H1802 C1808 0.930 . S
H1803 C1812 0.930 . S
H1804 C1817 0.929 . S
H1805 C1815 0.929 . S
H1806 C1810 0.929 . S
H1807 C1816 0.929 . S
C1808 H1802 0.930 . S
C1808 C1809 1.367 . S
C1808 C1816 1.378 . S
C1809 C1808 1.367 . S
C1809 C1817 1.433 . S
C1810 H1806 0.929 . S
C1810 C1812 1.378 . S
C1810 C1814 1.350 . S
C1811 C1814 1.463 . S
C1811 C1816 1.350 . S
C1811 N1819 1.427 . S
C1812 H1803 0.930 . S
C1812 C1810 1.378 . S
C1812 C1813 1.367 . S
C1813 C1812 1.367 . S
C1813 C1815 1.433 . S
C1814 C1810 1.350 . S
C1814 C1811 1.463 . S
C1814 N1818 1.427 . S
C1815 H1805 0.929 . S
C1815 C1813 1.433 . S
C1815 N1818 1.384 . S
C1816 H1807 0.929 . S
C1816 C1808 1.378 . S
C1816 C1811 1.350 . S
C1817 H1804 0.929 . S
C1817 C1809 1.433 . S
C1817 N1819 1.384 . S
N1818 C1814 1.427 . S
N1818 C1815 1.384 . S
N1819 C1811 1.427 . S
N1819 C1817 1.384 . S
H1820 C1826 0.930 . S
H1821 C1830 0.930 . S
H1822 C1835 0.929 . S
H1823 C1833 0.929 . S
H1824 C1828 0.929 . S
H1825 C1834 0.929 . S
C1826 H1820 0.930 . S
C1826 C1827 1.367 . S
C1826 C1834 1.378 . S
C1827 C1826 1.367 . S
C1827 C1835 1.433 . S
C1828 H1824 0.929 . S
C1828 C1830 1.378 . S
C1828 C1832 1.350 . S
C1829 C1832 1.463 . S
C1829 C1834 1.350 . S
C1829 N1837 1.427 . S
C1830 H1821 0.930 . S
C1830 C1828 1.378 . S
C1830 C1831 1.367 . S
C1831 C1830 1.367 . S
C1831 C1833 1.433 . S
C1832 C1828 1.350 . S
C1832 C1829 1.463 . S
C1832 N1836 1.427 . S
C1833 H1823 0.929 . S
C1833 C1831 1.433 . S
C1833 N1836 1.384 . S
C1834 H1825 0.929 . S
C1834 C1826 1.378 . S
C1834 C1829 1.350 . S
C1835 H1822 0.929 . S
C1835 C1827 1.433 . S
C1835 N1837 1.384 . S
N1836 C1832 1.427 . S
N1836 C1833 1.384 . S
N1837 C1829 1.427 . S
N1837 C1835 1.384 . S
H1838 C1844 0.930 . S
H1839 C1848 0.930 . S
H1840 C1853 0.929 . S
H1841 C1851 0.929 . S
H1842 C1846 0.929 . S
H1843 C1852 0.929 . S
C1844 H1838 0.930 . S
C1844 C1845 1.367 . S
C1844 C1852 1.378 . S
C1845 C1844 1.367 . S
C1845 C1853 1.433 . S
C1846 H1842 0.929 . S
C1846 C1848 1.378 . S
C1846 C1850 1.350 . S
C1847 C1850 1.463 . S
C1847 C1852 1.350 . S
C1847 N1855 1.427 . S
C1848 H1839 0.930 . S
C1848 C1846 1.378 . S
C1848 C1849 1.367 . S
C1849 C1848 1.367 . S
C1849 C1851 1.433 . S
C1850 C1846 1.350 . S
C1850 C1847 1.463 . S
C1850 N1854 1.427 . S
C1851 H1841 0.929 . S
C1851 C1849 1.433 . S
C1851 N1854 1.384 . S
C1852 H1843 0.929 . S
C1852 C1844 1.378 . S
C1852 C1847 1.350 . S
C1853 H1840 0.929 . S
C1853 C1845 1.433 . S
C1853 N1855 1.384 . S
N1854 C1850 1.427 . S
N1854 C1851 1.384 . S
N1855 C1847 1.427 . S
N1855 C1853 1.384 . S
H1856 C1862 0.930 . S
H1857 C1866 0.930 . S
H1858 C1871 0.929 . S
H1859 C1869 0.929 . S
H1860 C1864 0.929 . S
H1861 C1870 0.929 . S
C1862 H1856 0.930 . S
C1862 C1863 1.367 . S
C1862 C1870 1.378 . S
C1863 C1862 1.367 . S
C1863 C1871 1.433 . S
C1864 H1860 0.929 . S
C1864 C1866 1.378 . S
C1864 C1868 1.350 . S
C1865 C1868 1.463 . S
C1865 C1870 1.350 . S
C1865 N1873 1.427 . S
C1866 H1857 0.930 . S
C1866 C1864 1.378 . S
C1866 C1867 1.367 . S
C1867 C1866 1.367 . S
C1867 C1869 1.433 . S
C1868 C1864 1.350 . S
C1868 C1865 1.463 . S
C1868 N1872 1.427 . S
C1869 H1859 0.929 . S
C1869 C1867 1.433 . S
C1869 N1872 1.384 . S
C1870 H1861 0.929 . S
C1870 C1862 1.378 . S
C1870 C1865 1.350 . S
C1871 H1858 0.929 . S
C1871 C1863 1.433 . S
C1871 N1873 1.384 . S
N1872 C1868 1.427 . S
N1872 C1869 1.384 . S
N1873 C1865 1.427 . S
N1873 C1871 1.384 . S
H1874 C1880 0.930 . S
H1875 C1884 0.930 . S
H1876 C1889 0.929 . S
H1877 C1887 0.929 . S
H1878 C1882 0.929 . S
H1879 C1888 0.929 . S
C1880 H1874 0.930 . S
C1880 C1881 1.376 . S
C1880 C1888 1.378 . S
C1881 C1880 1.376 . S
C1881 C1889 1.424 1_565 S
C1882 H1878 0.929 . S
C1882 C1884 1.378 . S
C1882 C1886 1.350 1_545 S
C1883 C1886 1.463 . S
C1883 C1888 1.350 . S
C1883 N1891 1.427 1_565 S
C1884 H1875 0.930 . S
C1884 C1882 1.378 . S
C1884 C1885 1.367 1_545 S
C1885 C1884 1.367 1_565 S
C1885 C1887 1.433 . S
C1886 C1882 1.350 1_565 S
C1886 C1883 1.463 . S
C1886 N1890 1.427 . S
C1887 H1877 0.929 . S
C1887 C1885 1.433 . S
C1887 N1890 1.384 . S
C1888 H1879 0.929 . S
C1888 C1880 1.378 . S
C1888 C1883 1.350 . S
C1889 H1876 0.929 . S
C1889 C1881 1.424 1_545 S
C1889 N1891 1.384 . S
N1890 C1886 1.427 . S
N1890 C1887 1.384 . S
N1891 C1883 1.427 1_545 S
N1891 C1889 1.384 . S
H1892 C1898 0.930 . S
H1893 C1902 0.930 . S
H1894 C1907 0.929 . S
H1895 C1905 0.929 . S
H1896 C1900 0.929 . S
H1897 C1906 0.929 . S
C1898 H1892 0.930 . S
C1898 C1899 1.367 . S
C1898 C1906 1.378 . S
C1899 C1898 1.367 . S
C1899 C1907 1.433 1_565 S
C1900 H1896 0.929 . S
C1900 C1902 1.378 . S
C1900 C1904 1.350 1_545 S
C1901 C1904 1.463 . S
C1901 C1906 1.350 . S
C1901 N1909 1.427 1_565 S
C1902 H1893 0.930 . S
C1902 C1900 1.378 . S
C1902 C1903 1.379 . S
C1903 C1902 1.379 . S
C1903 C1905 1.420 1_545 S
C1904 C1900 1.350 1_565 S
C1904 C1901 1.463 . S
C1904 N1908 1.427 . S
C1905 H1895 0.929 . S
C1905 C1903 1.420 1_565 S
C1905 N1908 1.384 . S
C1906 H1897 0.929 . S
C1906 C1898 1.378 . S
C1906 C1901 1.350 . S
C1907 H1894 0.929 . S
C1907 C1899 1.433 1_545 S
C1907 N1909 1.384 . S
N1908 C1904 1.427 . S
N1908 C1905 1.384 . S
N1909 C1901 1.427 1_545 S
N1909 C1907 1.384 . S
H1910 C1916 0.930 . S
H1911 C1920 0.930 . S
H1912 C1925 0.929 . S
H1913 C1923 0.929 . S
H1914 C1918 0.929 . S
H1915 C1924 0.929 . S
C1916 H1910 0.930 . S
C1916 C1917 1.367 . S
C1916 C1924 1.378 . S
C1917 C1916 1.367 . S
C1917 C1925 1.433 . S
C1918 H1914 0.929 . S
C1918 C1920 1.378 . S
C1918 C1922 1.350 . S
C1919 C1922 1.463 . S
C1919 C1924 1.350 . S
C1919 N1927 1.427 . S
C1920 H1911 0.930 . S
C1920 C1918 1.378 . S
C1920 C1921 1.367 . S
C1921 C1920 1.367 . S
C1921 C1923 1.433 . S
C1922 C1918 1.350 . S
C1922 C1919 1.463 . S
C1922 N1926 1.427 . S
C1923 H1913 0.929 . S
C1923 C1921 1.433 . S
C1923 N1926 1.384 . S
C1924 H1915 0.929 . S
C1924 C1916 1.378 . S
C1924 C1919 1.350 . S
C1925 H1912 0.929 . S
C1925 C1917 1.433 . S
C1925 N1927 1.384 . S
N1926 C1922 1.427 . S
N1926 C1923 1.384 . S
N1927 C1919 1.427 . S
N1927 C1925 1.384 . S
H1928 C1934 0.930 . S
H1929 C1938 0.930 . S
H1930 C1943 0.929 . S
H1931 C1941 0.929 . S
H1932 C1936 0.929 . S
H1933 C1942 0.929 . S
C1934 H1928 0.930 . S
C1934 C1935 1.367 . S
C1934 C1942 1.378 . S
C1935 C1934 1.367 . S
C1935 C1943 1.433 . S
C1936 H1932 0.929 . S
C1936 C1938 1.378 . S
C1936 C1940 1.350 . S
C1937 C1940 1.463 . S
C1937 C1942 1.350 . S
C1937 N1945 1.427 . S
C1938 H1929 0.930 . S
C1938 C1936 1.378 . S
C1938 C1939 1.367 . S
C1939 C1938 1.367 . S
C1939 C1941 1.433 . S
C1940 C1936 1.350 . S
C1940 C1937 1.463 . S
C1940 N1944 1.427 . S
C1941 H1931 0.929 . S
C1941 C1939 1.433 . S
C1941 N1944 1.384 . S
C1942 H1933 0.929 . S
C1942 C1934 1.378 . S
C1942 C1937 1.350 . S
C1943 H1930 0.929 . S
C1943 C1935 1.433 . S
C1943 N1945 1.384 . S
N1944 C1940 1.427 . S
N1944 C1941 1.384 . S
N1945 C1937 1.427 . S
N1945 C1943 1.384 . S
H1946 C1952 0.930 . S
H1947 C1956 0.930 . S
H1948 C1961 0.929 . S
H1949 C1959 0.929 . S
H1950 C1954 0.929 . S
H1951 C1960 0.929 . S
C1952 H1946 0.930 . S
C1952 C1953 1.367 1_565 S
C1952 C1960 1.378 . S
C1953 C1952 1.367 1_545 S
C1953 C1961 1.433 . S
C1954 H1950 0.929 . S
C1954 C1956 1.378 . S
C1954 C1958 1.350 . S
C1955 C1958 1.463 . S
C1955 C1960 1.350 1_545 S
C1955 N1963 1.427 . S
C1956 H1947 0.930 . S
C1956 C1954 1.378 . S
C1956 C1957 1.372 . S
C1957 C1956 1.372 . S
C1957 C1959 1.428 1_545 S
C1958 C1954 1.350 . S
C1958 C1955 1.463 . S
C1958 N1962 1.427 1_545 S
C1959 H1949 0.929 . S
C1959 C1957 1.428 1_565 S
C1959 N1962 1.384 . S
C1960 H1951 0.929 . S
C1960 C1952 1.378 . S
C1960 C1955 1.350 1_565 S
C1961 H1948 0.929 . S
C1961 C1953 1.433 . S
C1961 N1963 1.384 . S
N1962 C1958 1.427 1_565 S
N1962 C1959 1.384 . S
N1963 C1955 1.427 . S
N1963 C1961 1.384 . S
H1964 C1970 0.930 . S
H1965 C1974 0.930 . S
H1966 C1979 0.929 . S
H1967 C1977 0.929 . S
H1968 C1972 0.929 . S
H1969 C1978 0.929 . S
C1970 H1964 0.930 . S
C1970 C1971 1.367 1_565 S
C1970 C1978 1.378 . S
C1971 C1970 1.367 1_545 S
C1971 C1979 1.433 . S
C1972 H1968 0.929 . S
C1972 C1974 1.378 . S
C1972 C1976 1.350 . S
C1973 C1976 1.463 . S
C1973 C1978 1.350 1_545 S
C1973 N1981 1.427 . S
C1974 H1965 0.930 . S
C1974 C1972 1.378 . S
C1974 C1975 1.373 . S
C1975 C1974 1.373 . S
C1975 C1977 1.428 1_545 S
C1976 C1972 1.350 . S
C1976 C1973 1.463 . S
C1976 N1980 1.427 1_545 S
C1977 H1967 0.929 . S
C1977 C1975 1.428 1_565 S
C1977 N1980 1.384 . S
C1978 H1969 0.929 . S
C1978 C1970 1.378 . S
C1978 C1973 1.350 1_565 S
C1979 H1966 0.929 . S
C1979 C1971 1.433 . S
C1979 N1981 1.384 . S
N1980 C1976 1.427 1_565 S
N1980 C1977 1.384 . S
N1981 C1973 1.427 . S
N1981 C1979 1.384 . S
H1982 C1988 0.930 . S
H1983 C1992 0.930 . S
H1984 C1997 0.929 . S
H1985 C1995 0.929 . S
H1986 C1990 0.929 . S
H1987 C1996 0.929 . S
C1988 H1982 0.930 . S
C1988 C1989 1.367 . S
C1988 C1996 1.378 . S
C1989 C1988 1.367 . S
C1989 C1997 1.433 . S
C1990 H1986 0.929 . S
C1990 C1992 1.378 . S
C1990 C1994 1.350 . S
C1991 C1994 1.463 . S
C1991 C1996 1.350 . S
C1991 N1999 1.427 . S
C1992 H1983 0.930 . S
C1992 C1990 1.378 . S
C1992 C1993 1.367 . S
C1993 C1992 1.367 . S
C1993 C1995 1.433 . S
C1994 C1990 1.350 . S
C1994 C1991 1.463 . S
C1994 N1998 1.427 . S
C1995 H1985 0.929 . S
C1995 C1993 1.433 . S
C1995 N1998 1.384 . S
C1996 H1987 0.929 . S
C1996 C1988 1.378 . S
C1996 C1991 1.350 . S
C1997 H1984 0.929 . S
C1997 C1989 1.433 . S
C1997 N1999 1.384 . S
N1998 C1994 1.427 . S
N1998 C1995 1.384 . S
N1999 C1991 1.427 . S
N1999 C1997 1.384 . S
H2000 C2006 0.930 . S
H2001 C2010 0.930 . S
H2002 C2015 0.929 . S
H2003 C2013 0.929 . S
H2004 C2008 0.929 . S
H2005 C2014 0.929 . S
C2006 H2000 0.930 . S
C2006 C2007 1.367 . S
C2006 C2014 1.378 . S
C2007 C2006 1.367 . S
C2007 C2015 1.433 . S
C2008 H2004 0.929 . S
C2008 C2010 1.378 . S
C2008 C2012 1.350 . S
C2009 C2012 1.463 . S
C2009 C2014 1.350 . S
C2009 N2017 1.427 . S
C2010 H2001 0.930 . S
C2010 C2008 1.378 . S
C2010 C2011 1.367 . S
C2011 C2010 1.367 . S
C2011 C2013 1.433 . S
C2012 C2008 1.350 . S
C2012 C2009 1.463 . S
C2012 N2016 1.427 . S
C2013 H2003 0.929 . S
C2013 C2011 1.433 . S
C2013 N2016 1.384 . S
C2014 H2005 0.929 . S
C2014 C2006 1.378 . S
C2014 C2009 1.350 . S
C2015 H2002 0.929 . S
C2015 C2007 1.433 . S
C2015 N2017 1.384 . S
N2016 C2012 1.427 . S
N2016 C2013 1.384 . S
N2017 C2009 1.427 . S
N2017 C2015 1.384 . S
H2018 C2024 0.930 . S
H2019 C2028 0.930 . S
H2020 C2033 0.929 . S
H2021 C2031 0.929 . S
H2022 C2026 0.929 . S
H2023 C2032 0.929 . S
C2024 H2018 0.930 . S
C2024 C2025 1.367 . S
C2024 C2032 1.378 . S
C2025 C2024 1.367 . S
C2025 C2033 1.433 . S
C2026 H2022 0.929 . S
C2026 C2028 1.378 . S
C2026 C2030 1.350 . S
C2027 C2030 1.463 . S
C2027 C2032 1.350 . S
C2027 N2035 1.427 . S
C2028 H2019 0.930 . S
C2028 C2026 1.378 . S
C2028 C2029 1.367 . S
C2029 C2028 1.367 . S
C2029 C2031 1.433 . S
C2030 C2026 1.350 . S
C2030 C2027 1.463 . S
C2030 N2034 1.427 . S
C2031 H2021 0.929 . S
C2031 C2029 1.433 . S
C2031 N2034 1.384 . S
C2032 H2023 0.929 . S
C2032 C2024 1.378 . S
C2032 C2027 1.350 . S
C2033 H2020 0.929 . S
C2033 C2025 1.433 . S
C2033 N2035 1.384 . S
N2034 C2030 1.427 . S
N2034 C2031 1.384 . S
N2035 C2027 1.427 . S
N2035 C2033 1.384 . S
H2036 C2042 0.930 . S
H2037 C2046 0.930 . S
H2038 C2051 0.929 . S
H2039 C2049 0.929 . S
H2040 C2044 0.929 . S
H2041 C2050 0.929 . S
C2042 H2036 0.930 . S
C2042 C2043 1.367 . S
C2042 C2050 1.378 . S
C2043 C2042 1.367 . S
C2043 C2051 1.433 . S
C2044 H2040 0.929 . S
C2044 C2046 1.378 . S
C2044 C2048 1.350 . S
C2045 C2048 1.463 1_556 S
C2045 C2050 1.350 . S
C2045 N2053 1.427 . S
C2046 H2037 0.930 . S
C2046 C2044 1.378 . S
C2046 C2047 1.367 . S
C2047 C2046 1.367 . S
C2047 C2049 1.433 . S
C2048 C2044 1.350 . S
C2048 C2045 1.463 1_554 S
C2048 N2052 1.427 . S
C2049 H2039 0.929 . S
C2049 C2047 1.433 . S
C2049 N2052 1.384 . S
C2050 H2041 0.929 . S
C2050 C2042 1.378 . S
C2050 C2045 1.350 . S
C2051 H2038 0.929 . S
C2051 C2043 1.433 . S
C2051 N2053 1.384 . S
N2052 C2048 1.427 . S
N2052 C2049 1.384 . S
N2053 C2045 1.427 . S
N2053 C2051 1.384 . S
H2054 C2060 0.930 . S
H2055 C2064 0.930 . S
H2056 C2069 0.929 . S
H2057 C2067 0.929 . S
H2058 C2062 0.929 . S
H2059 C2068 0.929 . S
C2060 H2054 0.930 . S
C2060 C2061 1.367 . S
C2060 C2068 1.378 . S
C2061 C2060 1.367 . S
C2061 C2069 1.433 . S
C2062 H2058 0.929 . S
C2062 C2064 1.378 . S
C2062 C2066 1.350 . S
C2063 C2066 1.463 1_556 S
C2063 C2068 1.350 . S
C2063 N2071 1.427 . S
C2064 H2055 0.930 . S
C2064 C2062 1.378 . S
C2064 C2065 1.367 . S
C2065 C2064 1.367 . S
C2065 C2067 1.433 . S
C2066 C2062 1.350 . S
C2066 C2063 1.463 1_554 S
C2066 N2070 1.427 . S
C2067 H2057 0.929 . S
C2067 C2065 1.433 . S
C2067 N2070 1.384 . S
C2068 H2059 0.929 . S
C2068 C2060 1.378 . S
C2068 C2063 1.350 . S
C2069 H2056 0.929 . S
C2069 C2061 1.433 . S
C2069 N2071 1.384 . S
N2070 C2066 1.427 . S
N2070 C2067 1.384 . S
N2071 C2063 1.427 . S
N2071 C2069 1.384 . S
H2072 C2078 0.930 . S
H2073 C2082 0.930 . S
H2074 C2087 0.929 . S
H2075 C2085 0.929 . S
H2076 C2080 0.929 . S
H2077 C2086 0.929 . S
C2078 H2072 0.930 . S
C2078 C2079 1.367 . S
C2078 C2086 1.378 . S
C2079 C2078 1.367 . S
C2079 C2087 1.433 . S
C2080 H2076 0.929 . S
C2080 C2082 1.378 . S
C2080 C2084 1.350 . S
C2081 C2084 1.463 . S
C2081 C2086 1.350 . S
C2081 N2089 1.427 . S
C2082 H2073 0.930 . S
C2082 C2080 1.378 . S
C2082 C2083 1.367 . S
C2083 C2082 1.367 . S
C2083 C2085 1.433 . S
C2084 C2080 1.350 . S
C2084 C2081 1.463 . S
C2084 N2088 1.427 . S
C2085 H2075 0.929 . S
C2085 C2083 1.433 . S
C2085 N2088 1.384 . S
C2086 H2077 0.929 . S
C2086 C2078 1.378 . S
C2086 C2081 1.350 . S
C2087 H2074 0.929 . S
C2087 C2079 1.433 . S
C2087 N2089 1.384 . S
N2088 C2084 1.427 . S
N2088 C2085 1.384 . S
N2089 C2081 1.427 . S
N2089 C2087 1.384 . S
H2090 C2096 0.930 . S
H2091 C2100 0.930 . S
H2092 C2105 0.929 . S
H2093 C2103 0.929 . S
H2094 C2098 0.929 . S
H2095 C2104 0.929 . S
C2096 H2090 0.930 . S
C2096 C2097 1.367 . S
C2096 C2104 1.378 . S
C2097 C2096 1.367 . S
C2097 C2105 1.433 . S
C2098 H2094 0.929 . S
C2098 C2100 1.378 . S
C2098 C2102 1.350 . S
C2099 C2102 1.463 . S
C2099 C2104 1.350 . S
C2099 N2107 1.427 . S
C2100 H2091 0.930 . S
C2100 C2098 1.378 . S
C2100 C2101 1.367 . S
C2101 C2100 1.367 . S
C2101 C2103 1.433 . S
C2102 C2098 1.350 . S
C2102 C2099 1.463 . S
C2102 N2106 1.427 . S
C2103 H2093 0.929 . S
C2103 C2101 1.433 . S
C2103 N2106 1.384 . S
C2104 H2095 0.929 . S
C2104 C2096 1.378 . S
C2104 C2099 1.350 . S
C2105 H2092 0.929 . S
C2105 C2097 1.433 . S
C2105 N2107 1.384 . S
N2106 C2102 1.427 . S
N2106 C2103 1.384 . S
N2107 C2099 1.427 . S
N2107 C2105 1.384 . S
H2108 C2114 0.930 . S
H2109 C2118 0.930 . S
H2110 C2123 0.929 . S
H2111 C2121 0.929 . S
H2112 C2116 0.929 . S
H2113 C2122 0.929 . S
C2114 H2108 0.930 . S
C2114 C2115 1.367 . S
C2114 C2122 1.378 . S
C2115 C2114 1.367 . S
C2115 C2123 1.433 . S
C2116 H2112 0.929 . S
C2116 C2118 1.378 . S
C2116 C2120 1.350 . S
C2117 C2120 1.463 1_554 S
C2117 C2122 1.350 . S
C2117 N2125 1.427 . S
C2118 H2109 0.930 . S
C2118 C2116 1.378 . S
C2118 C2119 1.367 . S
C2119 C2118 1.367 . S
C2119 C2121 1.433 . S
C2120 C2116 1.350 . S
C2120 C2117 1.463 1_556 S
C2120 N2124 1.427 . S
C2121 H2111 0.929 . S
C2121 C2119 1.433 . S
C2121 N2124 1.384 . S
C2122 H2113 0.929 . S
C2122 C2114 1.378 . S
C2122 C2117 1.350 . S
C2123 H2110 0.929 . S
C2123 C2115 1.433 . S
C2123 N2125 1.384 . S
N2124 C2120 1.427 . S
N2124 C2121 1.384 . S
N2125 C2117 1.427 . S
N2125 C2123 1.384 . S
H2126 C2132 0.930 . S
H2127 C2136 0.930 . S
H2128 C2141 0.929 . S
H2129 C2139 0.929 . S
H2130 C2134 0.929 . S
H2131 C2140 0.929 . S
C2132 H2126 0.930 . S
C2132 C2133 1.367 . S
C2132 C2140 1.378 . S
C2133 C2132 1.367 . S
C2133 C2141 1.433 . S
C2134 H2130 0.929 . S
C2134 C2136 1.378 . S
C2134 C2138 1.350 . S
C2135 C2138 1.463 1_556 S
C2135 C2140 1.350 . S
C2135 N2143 1.427 . S
C2136 H2127 0.930 . S
C2136 C2134 1.378 . S
C2136 C2137 1.367 . S
C2137 C2136 1.367 . S
C2137 C2139 1.433 . S
C2138 C2134 1.350 . S
C2138 C2135 1.463 1_554 S
C2138 N2142 1.427 . S
C2139 H2129 0.929 . S
C2139 C2137 1.433 . S
C2139 N2142 1.384 . S
C2140 H2131 0.929 . S
C2140 C2132 1.378 . S
C2140 C2135 1.350 . S
C2141 H2128 0.929 . S
C2141 C2133 1.433 . S
C2141 N2143 1.384 . S
N2142 C2138 1.427 . S
N2142 C2139 1.384 . S
N2143 C2135 1.427 . S
N2143 C2141 1.384 . S
H2144 C2150 0.930 . S
H2145 C2154 0.930 . S
H2146 C2159 0.929 . S
H2147 C2157 0.929 . S
H2148 C2152 0.929 . S
H2149 C2158 0.929 . S
C2150 H2144 0.930 . S
C2150 C2151 1.367 . S
C2150 C2158 1.378 . S
C2151 C2150 1.367 . S
C2151 C2159 1.433 . S
C2152 H2148 0.929 . S
C2152 C2154 1.378 . S
C2152 C2156 1.350 . S
C2153 C2156 1.463 . S
C2153 C2158 1.350 . S
C2153 N2161 1.427 . S
C2154 H2145 0.930 . S
C2154 C2152 1.378 . S
C2154 C2155 1.367 . S
C2155 C2154 1.367 . S
C2155 C2157 1.433 . S
C2156 C2152 1.350 . S
C2156 C2153 1.463 . S
C2156 N2160 1.427 . S
C2157 H2147 0.929 . S
C2157 C2155 1.433 . S
C2157 N2160 1.384 . S
C2158 H2149 0.929 . S
C2158 C2150 1.378 . S
C2158 C2153 1.350 . S
C2159 H2146 0.929 . S
C2159 C2151 1.433 . S
C2159 N2161 1.384 . S
N2160 C2156 1.427 . S
N2160 C2157 1.384 . S
N2161 C2153 1.427 . S
N2161 C2159 1.384 . S
H2162 C2168 0.930 . S
H2163 C2172 0.930 . S
H2164 C2177 0.929 . S
H2165 C2175 0.929 . S
H2166 C2170 0.929 . S
H2167 C2176 0.929 . S
C2168 H2162 0.930 . S
C2168 C2169 1.367 1_545 S
C2168 C2176 1.378 . S
C2169 C2168 1.367 1_565 S
C2169 C2177 1.433 . S
C2170 H2166 0.929 . S
C2170 C2172 1.378 . S
C2170 C2174 1.350 . S
C2171 C2174 1.463 . S
C2171 C2176 1.350 1_565 S
C2171 N2179 1.427 . S
C2172 H2163 0.930 . S
C2172 C2170 1.378 . S
C2172 C2173 1.382 . S
C2173 C2172 1.382 . S
C2173 C2175 1.419 1_565 S
C2174 C2170 1.350 . S
C2174 C2171 1.463 . S
C2174 N2178 1.427 1_565 S
C2175 H2165 0.929 . S
C2175 C2173 1.419 1_545 S
C2175 N2178 1.384 . S
C2176 H2167 0.929 . S
C2176 C2168 1.378 . S
C2176 C2171 1.350 1_545 S
C2177 H2164 0.929 . S
C2177 C2169 1.433 . S
C2177 N2179 1.384 . S
N2178 C2174 1.427 1_545 S
N2178 C2175 1.384 . S
N2179 C2171 1.427 . S
N2179 C2177 1.384 . S
H2180 C2186 0.930 . S
H2181 C2190 0.930 . S
H2182 C2195 0.929 . S
H2183 C2193 0.929 . S
H2184 C2188 0.929 . S
H2185 C2194 0.929 . S
C2186 H2180 0.930 . S
C2186 C2187 1.367 1_545 S
C2186 C2194 1.378 . S
C2187 C2186 1.367 1_565 S
C2187 C2195 1.433 . S
C2188 H2184 0.929 . S
C2188 C2190 1.378 . S
C2188 C2192 1.350 . S
C2189 C2192 1.463 1_556 S
C2189 C2194 1.350 1_565 S
C2189 N2197 1.427 . S
C2190 H2181 0.930 . S
C2190 C2188 1.378 . S
C2190 C2191 1.387 . S
C2191 C2190 1.387 . S
C2191 C2193 1.414 1_565 S
C2192 C2188 1.350 . S
C2192 C2189 1.463 1_554 S
C2192 N2196 1.427 1_565 S
C2193 H2183 0.929 . S
C2193 C2191 1.414 1_545 S
C2193 N2196 1.384 . S
C2194 H2185 0.929 . S
C2194 C2186 1.378 . S
C2194 C2189 1.350 1_545 S
C2195 H2182 0.929 . S
C2195 C2187 1.433 . S
C2195 N2197 1.384 . S
N2196 C2192 1.427 1_545 S
N2196 C2193 1.384 . S
N2197 C2189 1.427 . S
N2197 C2195 1.384 . S
H2198 C2204 0.930 . S
H2199 C2208 0.930 . S
H2200 C2213 0.929 . S
H2201 C2211 0.929 . S
H2202 C2206 0.929 . S
H2203 C2212 0.929 . S
C2204 H2198 0.930 . S
C2204 C2205 1.367 . S
C2204 C2212 1.378 . S
C2205 C2204 1.367 . S
C2205 C2213 1.433 . S
C2206 H2202 0.929 . S
C2206 C2208 1.378 . S
C2206 C2210 1.350 . S
C2207 C2210 1.463 1_556 S
C2207 C2212 1.350 . S
C2207 N2215 1.427 . S
C2208 H2199 0.930 . S
C2208 C2206 1.378 . S
C2208 C2209 1.367 . S
C2209 C2208 1.367 . S
C2209 C2211 1.433 . S
C2210 C2206 1.350 . S
C2210 C2207 1.463 1_554 S
C2210 N2214 1.427 . S
C2211 H2201 0.929 . S
C2211 C2209 1.433 . S
C2211 N2214 1.384 . S
C2212 H2203 0.929 . S
C2212 C2204 1.378 . S
C2212 C2207 1.350 . S
C2213 H2200 0.929 . S
C2213 C2205 1.433 . S
C2213 N2215 1.384 . S
N2214 C2210 1.427 . S
N2214 C2211 1.384 . S
N2215 C2207 1.427 . S
N2215 C2213 1.384 . S
H2216 C2222 0.930 . S
H2217 C2226 0.930 . S
H2218 C2231 0.929 . S
H2219 C2229 0.929 . S
H2220 C2224 0.929 . S
H2221 C2230 0.929 . S
C2222 H2216 0.930 . S
C2222 C2223 1.367 . S
C2222 C2230 1.378 . S
C2223 C2222 1.367 . S
C2223 C2231 1.433 . S
C2224 H2220 0.929 . S
C2224 C2226 1.378 . S
C2224 C2228 1.350 . S
C2225 C2228 1.463 . S
C2225 C2230 1.350 . S
C2225 N2233 1.427 . S
C2226 H2217 0.930 . S
C2226 C2224 1.378 . S
C2226 C2227 1.367 . S
C2227 C2226 1.367 . S
C2227 C2229 1.433 . S
C2228 C2224 1.350 . S
C2228 C2225 1.463 . S
C2228 N2232 1.427 . S
C2229 H2219 0.929 . S
C2229 C2227 1.433 . S
C2229 N2232 1.384 . S
C2230 H2221 0.929 . S
C2230 C2222 1.378 . S
C2230 C2225 1.350 . S
C2231 H2218 0.929 . S
C2231 C2223 1.433 . S
C2231 N2233 1.384 . S
N2232 C2228 1.427 . S
N2232 C2229 1.384 . S
N2233 C2225 1.427 . S
N2233 C2231 1.384 . S
H2234 C2240 0.930 . S
H2235 C2244 0.930 . S
H2236 C2249 0.929 . S
H2237 C2247 0.929 . S
H2238 C2242 0.929 . S
H2239 C2248 0.929 . S
C2240 H2234 0.930 . S
C2240 C2241 1.367 . S
C2240 C2248 1.378 . S
C2241 C2240 1.367 . S
C2241 C2249 1.433 1_545 S
C2242 H2238 0.929 . S
C2242 C2244 1.378 . S
C2242 C2246 1.350 1_565 S
C2243 C2246 1.463 . S
C2243 C2248 1.350 . S
C2243 N2251 1.427 1_545 S
C2244 H2235 0.930 . S
C2244 C2242 1.378 . S
C2244 C2245 1.387 . S
C2245 C2244 1.387 . S
C2245 C2247 1.412 1_565 S
C2246 C2242 1.350 1_545 S
C2246 C2243 1.463 . S
C2246 N2250 1.427 . S
C2247 H2237 0.929 . S
C2247 C2245 1.412 1_545 S
C2247 N2250 1.384 . S
C2248 H2239 0.929 . S
C2248 C2240 1.378 . S
C2248 C2243 1.350 . S
C2249 H2236 0.929 . S
C2249 C2241 1.433 1_565 S
C2249 N2251 1.384 . S
N2250 C2246 1.427 . S
N2250 C2247 1.384 . S
N2251 C2243 1.427 1_565 S
N2251 C2249 1.384 . S
H2252 C2258 0.930 . S
H2253 C2262 0.930 . S
H2254 C2267 0.929 . S
H2255 C2265 0.929 . S
H2256 C2260 0.929 . S
H2257 C2266 0.929 . S
C2258 H2252 0.930 . S
C2258 C2259 1.382 . S
C2258 C2266 1.378 . S
C2259 C2258 1.382 . S
C2259 C2267 1.416 1_565 S
C2260 H2256 0.929 . S
C2260 C2262 1.378 . S
C2260 C2264 1.350 . S
C2261 C2264 1.463 1_556 S
C2261 C2266 1.350 1_545 S
C2261 N2269 1.427 . S
C2262 H2253 0.930 . S
C2262 C2260 1.378 . S
C2262 C2263 1.367 . S
C2263 C2262 1.367 . S
C2263 C2265 1.433 1_545 S
C2264 C2260 1.350 . S
C2264 C2261 1.463 1_554 S
C2264 N2268 1.427 1_545 S
C2265 H2255 0.929 . S
C2265 C2263 1.433 1_565 S
C2265 N2268 1.384 . S
C2266 H2257 0.929 . S
C2266 C2258 1.378 . S
C2266 C2261 1.350 1_565 S
C2267 H2254 0.929 . S
C2267 C2259 1.416 1_545 S
C2267 N2269 1.384 . S
N2268 C2264 1.427 1_565 S
N2268 C2265 1.384 . S
N2269 C2261 1.427 . S
N2269 C2267 1.384 . S
H2270 C2276 0.930 . S
H2271 C2280 0.930 . S
H2272 C2285 0.929 . S
H2273 C2283 0.929 . S
H2274 C2278 0.929 . S
H2275 C2284 0.929 . S
C2276 H2270 0.930 . S
C2276 C2277 1.367 . S
C2276 C2284 1.378 . S
C2277 C2276 1.367 . S
C2277 C2285 1.433 . S
C2278 H2274 0.929 . S
C2278 C2280 1.378 . S
C2278 C2282 1.350 . S
C2279 C2282 1.463 1_556 S
C2279 C2284 1.350 . S
C2279 N2287 1.427 . S
C2280 H2271 0.930 . S
C2280 C2278 1.378 . S
C2280 C2281 1.367 . S
C2281 C2280 1.367 . S
C2281 C2283 1.433 . S
C2282 C2278 1.350 . S
C2282 C2279 1.463 1_554 S
C2282 N2286 1.427 . S
C2283 H2273 0.929 . S
C2283 C2281 1.433 . S
C2283 N2286 1.384 . S
C2284 H2275 0.929 . S
C2284 C2276 1.378 . S
C2284 C2279 1.350 . S
C2285 H2272 0.929 . S
C2285 C2277 1.433 . S
C2285 N2287 1.384 . S
N2286 C2282 1.427 . S
N2286 C2283 1.384 . S
N2287 C2279 1.427 . S
N2287 C2285 1.384 . S
H2288 C2294 0.930 . S
H2289 C2298 0.930 . S
H2290 C2303 0.929 . S
H2291 C2301 0.929 . S
H2292 C2296 0.929 . S
H2293 C2302 0.929 . S
C2294 H2288 0.930 . S
C2294 C2295 1.367 . S
C2294 C2302 1.378 . S
C2295 C2294 1.367 . S
C2295 C2303 1.433 . S
C2296 H2292 0.929 . S
C2296 C2298 1.378 . S
C2296 C2300 1.350 . S
C2297 C2300 1.463 . S
C2297 C2302 1.350 . S
C2297 N2305 1.427 . S
C2298 H2289 0.930 . S
C2298 C2296 1.378 . S
C2298 C2299 1.367 . S
C2299 C2298 1.367 . S
C2299 C2301 1.433 . S
C2300 C2296 1.350 . S
C2300 C2297 1.463 . S
C2300 N2304 1.427 . S
C2301 H2291 0.929 . S
C2301 C2299 1.433 . S
C2301 N2304 1.384 . S
C2302 H2293 0.929 . S
C2302 C2294 1.378 . S
C2302 C2297 1.350 . S
C2303 H2290 0.929 . S
C2303 C2295 1.433 . S
C2303 N2305 1.384 . S
N2304 C2300 1.427 . S
N2304 C2301 1.384 . S
N2305 C2297 1.427 . S
N2305 C2303 1.384 . S
H2306 C2312 0.930 . S
H2307 C2316 0.930 . S
H2308 C2321 0.929 . S
H2309 C2319 0.929 . S
H2310 C2314 0.929 . S
H2311 C2320 0.929 . S
C2312 H2306 0.930 . S
C2312 C2313 1.367 . S
C2312 C2320 1.378 . S
C2313 C2312 1.367 . S
C2313 C2321 1.433 . S
C2314 H2310 0.929 . S
C2314 C2316 1.378 . S
C2314 C2318 1.350 . S
C2315 C2318 1.463 . S
C2315 C2320 1.350 . S
C2315 N2323 1.427 . S
C2316 H2307 0.930 . S
C2316 C2314 1.378 . S
C2316 C2317 1.367 . S
C2317 C2316 1.367 . S
C2317 C2319 1.433 . S
C2318 C2314 1.350 . S
C2318 C2315 1.463 . S
C2318 N2322 1.427 . S
C2319 H2309 0.929 . S
C2319 C2317 1.433 . S
C2319 N2322 1.384 . S
C2320 H2311 0.929 . S
C2320 C2312 1.378 . S
C2320 C2315 1.350 . S
C2321 H2308 0.929 . S
C2321 C2313 1.433 . S
C2321 N2323 1.384 . S
N2322 C2318 1.427 . S
N2322 C2319 1.384 . S
N2323 C2315 1.427 . S
N2323 C2321 1.384 . S
H2324 C2330 0.930 . S
H2325 C2334 0.930 . S
H2326 C2339 0.929 . S
H2327 C2337 0.929 . S
H2328 C2332 0.929 . S
H2329 C2338 0.929 . S
C2330 H2324 0.930 . S
C2330 C2331 1.367 . S
C2330 C2338 1.378 . S
C2331 C2330 1.367 . S
C2331 C2339 1.433 . S
C2332 H2328 0.929 . S
C2332 C2334 1.378 . S
C2332 C2336 1.350 . S
C2333 C2336 1.463 . S
C2333 C2338 1.350 . S
C2333 N2341 1.427 . S
C2334 H2325 0.930 . S
C2334 C2332 1.378 . S
C2334 C2335 1.367 . S
C2335 C2334 1.367 . S
C2335 C2337 1.433 . S
C2336 C2332 1.350 . S
C2336 C2333 1.463 . S
C2336 N2340 1.427 . S
C2337 H2327 0.929 . S
C2337 C2335 1.433 . S
C2337 N2340 1.384 . S
C2338 H2329 0.929 . S
C2338 C2330 1.378 . S
C2338 C2333 1.350 . S
C2339 H2326 0.929 . S
C2339 C2331 1.433 . S
C2339 N2341 1.384 . S
N2340 C2336 1.427 . S
N2340 C2337 1.384 . S
N2341 C2333 1.427 . S
N2341 C2339 1.384 . S
H2342 C2348 0.930 . S
H2343 C2352 0.930 . S
H2344 C2357 0.929 . S
H2345 C2355 0.929 . S
H2346 C2350 0.929 . S
H2347 C2356 0.929 . S
C2348 H2342 0.930 . S
C2348 C2349 1.367 . S
C2348 C2356 1.378 . S
C2349 C2348 1.367 . S
C2349 C2357 1.433 . S
C2350 H2346 0.929 . S
C2350 C2352 1.378 . S
C2350 C2354 1.350 . S
C2351 C2354 1.463 . S
C2351 C2356 1.350 . S
C2351 N2359 1.427 . S
C2352 H2343 0.930 . S
C2352 C2350 1.378 . S
C2352 C2353 1.367 . S
C2353 C2352 1.367 . S
C2353 C2355 1.433 . S
C2354 C2350 1.350 . S
C2354 C2351 1.463 . S
C2354 N2358 1.427 . S
C2355 H2345 0.929 . S
C2355 C2353 1.433 . S
C2355 N2358 1.384 . S
C2356 H2347 0.929 . S
C2356 C2348 1.378 . S
C2356 C2351 1.350 . S
C2357 H2344 0.929 . S
C2357 C2349 1.433 . S
C2357 N2359 1.384 . S
N2358 C2354 1.427 . S
N2358 C2355 1.384 . S
N2359 C2351 1.427 . S
N2359 C2357 1.384 . S
H2360 C2366 0.930 . S
H2361 C2370 0.930 . S
H2362 C2375 0.929 . S
H2363 C2373 0.929 . S
H2364 C2368 0.929 . S
H2365 C2374 0.929 . S
C2366 H2360 0.930 . S
C2366 C2367 1.367 . S
C2366 C2374 1.378 . S
C2367 C2366 1.367 . S
C2367 C2375 1.433 . S
C2368 H2364 0.929 . S
C2368 C2370 1.378 . S
C2368 C2372 1.350 . S
C2369 C2372 1.463 . S
C2369 C2374 1.350 . S
C2369 N2377 1.427 . S
C2370 H2361 0.930 . S
C2370 C2368 1.378 . S
C2370 C2371 1.367 . S
C2371 C2370 1.367 . S
C2371 C2373 1.433 . S
C2372 C2368 1.350 . S
C2372 C2369 1.463 . S
C2372 N2376 1.427 . S
C2373 H2363 0.929 . S
C2373 C2371 1.433 . S
C2373 N2376 1.384 . S
C2374 H2365 0.929 . S
C2374 C2366 1.378 . S
C2374 C2369 1.350 . S
C2375 H2362 0.929 . S
C2375 C2367 1.433 . S
C2375 N2377 1.384 . S
N2376 C2372 1.427 . S
N2376 C2373 1.384 . S
N2377 C2369 1.427 . S
N2377 C2375 1.384 . S
H2378 C2384 0.930 . S
H2379 C2388 0.930 . S
H2380 C2393 0.929 . S
H2381 C2391 0.929 . S
H2382 C2386 0.929 . S
H2383 C2392 0.929 . S
C2384 H2378 0.930 . S
C2384 C2385 1.367 . S
C2384 C2392 1.378 . S
C2385 C2384 1.367 . S
C2385 C2393 1.433 . S
C2386 H2382 0.929 . S
C2386 C2388 1.378 . S
C2386 C2390 1.350 . S
C2387 C2390 1.463 . S
C2387 C2392 1.350 . S
C2387 N2395 1.427 . S
C2388 H2379 0.930 . S
C2388 C2386 1.378 . S
C2388 C2389 1.367 . S
C2389 C2388 1.367 . S
C2389 C2391 1.433 . S
C2390 C2386 1.350 . S
C2390 C2387 1.463 . S
C2390 N2394 1.427 . S
C2391 H2381 0.929 . S
C2391 C2389 1.433 . S
C2391 N2394 1.384 . S
C2392 H2383 0.929 . S
C2392 C2384 1.378 . S
C2392 C2387 1.350 . S
C2393 H2380 0.929 . S
C2393 C2385 1.433 . S
C2393 N2395 1.384 . S
N2394 C2390 1.427 . S
N2394 C2391 1.384 . S
N2395 C2387 1.427 . S
N2395 C2393 1.384 . S
H2396 C2402 0.930 . S
H2397 C2406 0.930 . S
H2398 C2411 0.929 . S
H2399 C2409 0.929 . S
H2400 C2404 0.929 . S
H2401 C2410 0.929 . S
C2402 H2396 0.930 . S
C2402 C2403 1.367 . S
C2402 C2410 1.378 . S
C2403 C2402 1.367 . S
C2403 C2411 1.433 . S
C2404 H2400 0.929 . S
C2404 C2406 1.378 . S
C2404 C2408 1.350 . S
C2405 C2408 1.463 . S
C2405 C2410 1.350 . S
C2405 N2413 1.427 . S
C2406 H2397 0.930 . S
C2406 C2404 1.378 . S
C2406 C2407 1.367 . S
C2407 C2406 1.367 . S
C2407 C2409 1.433 . S
C2408 C2404 1.350 . S
C2408 C2405 1.463 . S
C2408 N2412 1.427 . S
C2409 H2399 0.929 . S
C2409 C2407 1.433 . S
C2409 N2412 1.384 . S
C2410 H2401 0.929 . S
C2410 C2402 1.378 . S
C2410 C2405 1.350 . S
C2411 H2398 0.929 . S
C2411 C2403 1.433 . S
C2411 N2413 1.384 . S
N2412 C2408 1.427 . S
N2412 C2409 1.384 . S
N2413 C2405 1.427 . S
N2413 C2411 1.384 . S
H2414 C2420 0.930 . S
H2415 C2424 0.930 . S
H2416 C2429 0.929 . S
H2417 C2427 0.929 . S
H2418 C2422 0.929 . S
H2419 C2428 0.929 . S
C2420 H2414 0.930 . S
C2420 C2421 1.367 . S
C2420 C2428 1.378 . S
C2421 C2420 1.367 . S
C2421 C2429 1.433 . S
C2422 H2418 0.929 . S
C2422 C2424 1.378 . S
C2422 C2426 1.350 . S
C2423 C2426 1.463 . S
C2423 C2428 1.350 . S
C2423 N2431 1.427 . S
C2424 H2415 0.930 . S
C2424 C2422 1.378 . S
C2424 C2425 1.367 . S
C2425 C2424 1.367 . S
C2425 C2427 1.433 . S
C2426 C2422 1.350 . S
C2426 C2423 1.463 . S
C2426 N2430 1.427 . S
C2427 H2417 0.929 . S
C2427 C2425 1.433 . S
C2427 N2430 1.384 . S
C2428 H2419 0.929 . S
C2428 C2420 1.378 . S
C2428 C2423 1.350 . S
C2429 H2416 0.929 . S
C2429 C2421 1.433 . S
C2429 N2431 1.384 . S
N2430 C2426 1.427 . S
N2430 C2427 1.384 . S
N2431 C2423 1.427 . S
N2431 C2429 1.384 . S
H2432 C2438 0.930 . S
H2433 C2442 0.930 . S
H2434 C2447 0.929 . S
H2435 C2445 0.929 . S
H2436 C2440 0.929 . S
H2437 C2446 0.929 . S
C2438 H2432 0.930 . S
C2438 C2439 1.367 . S
C2438 C2446 1.378 . S
C2439 C2438 1.367 . S
C2439 C2447 1.433 . S
C2440 H2436 0.929 . S
C2440 C2442 1.378 . S
C2440 C2444 1.350 . S
C2441 C2444 1.463 . S
C2441 C2446 1.350 . S
C2441 N2449 1.427 . S
C2442 H2433 0.930 . S
C2442 C2440 1.378 . S
C2442 C2443 1.367 . S
C2443 C2442 1.367 . S
C2443 C2445 1.433 . S
C2444 C2440 1.350 . S
C2444 C2441 1.463 . S
C2444 N2448 1.427 . S
C2445 H2435 0.929 . S
C2445 C2443 1.433 . S
C2445 N2448 1.384 . S
C2446 H2437 0.929 . S
C2446 C2438 1.378 . S
C2446 C2441 1.350 . S
C2447 H2434 0.929 . S
C2447 C2439 1.433 . S
C2447 N2449 1.384 . S
N2448 C2444 1.427 . S
N2448 C2445 1.384 . S
N2449 C2441 1.427 . S
N2449 C2447 1.384 . S
H2450 C2456 0.930 . S
H2451 C2460 0.930 . S
H2452 C2465 0.929 . S
H2453 C2463 0.929 . S
H2454 C2458 0.929 . S
H2455 C2464 0.929 . S
C2456 H2450 0.930 . S
C2456 C2457 1.367 . S
C2456 C2464 1.378 . S
C2457 C2456 1.367 . S
C2457 C2465 1.433 . S
C2458 H2454 0.929 . S
C2458 C2460 1.378 . S
C2458 C2462 1.350 . S
C2459 C2462 1.463 . S
C2459 C2464 1.350 . S
C2459 N2467 1.427 . S
C2460 H2451 0.930 . S
C2460 C2458 1.378 . S
C2460 C2461 1.367 . S
C2461 C2460 1.367 . S
C2461 C2463 1.433 . S
C2462 C2458 1.350 . S
C2462 C2459 1.463 . S
C2462 N2466 1.427 . S
C2463 H2453 0.929 . S
C2463 C2461 1.433 . S
C2463 N2466 1.384 . S
C2464 H2455 0.929 . S
C2464 C2456 1.378 . S
C2464 C2459 1.350 . S
C2465 H2452 0.929 . S
C2465 C2457 1.433 . S
C2465 N2467 1.384 . S
N2466 C2462 1.427 . S
N2466 C2463 1.384 . S
N2467 C2459 1.427 . S
N2467 C2465 1.384 . S
H2468 C2474 0.930 . S
H2469 C2478 0.930 . S
H2470 C2483 0.929 . S
H2471 C2481 0.929 . S
H2472 C2476 0.929 . S
H2473 C2482 0.929 . S
C2474 H2468 0.930 . S
C2474 C2475 1.367 1_554 S
C2474 C2482 1.378 1_554 S
C2475 C2474 1.367 1_556 S
C2475 C2483 1.433 . S
C2476 H2472 0.929 . S
C2476 C2478 1.378 . S
C2476 C2480 1.350 . S
C2477 C2480 1.463 . S
C2477 C2482 1.350 . S
C2477 N2485 1.427 . S
C2478 H2469 0.930 . S
C2478 C2476 1.378 . S
C2478 C2479 1.367 . S
C2479 C2478 1.367 . S
C2479 C2481 1.433 . S
C2480 C2476 1.350 . S
C2480 C2477 1.463 . S
C2480 N2484 1.427 . S
C2481 H2471 0.929 . S
C2481 C2479 1.433 . S
C2481 N2484 1.384 . S
C2482 H2473 0.929 . S
C2482 C2474 1.378 1_556 S
C2482 C2477 1.350 . S
C2483 H2470 0.929 . S
C2483 C2475 1.433 . S
C2483 N2485 1.384 . S
N2484 C2480 1.427 . S
N2484 C2481 1.384 . S
N2485 C2477 1.427 . S
N2485 C2483 1.384 . S
H2486 C2492 0.930 . S
H2487 C2496 0.930 1_554 S
H2488 C2501 0.929 . S
H2489 C2499 0.929 . S
H2490 C2494 0.929 . S
H2491 C2500 0.929 . S
C2492 H2486 0.930 . S
C2492 C2493 1.367 . S
C2492 C2500 1.378 . S
C2493 C2492 1.367 . S
C2493 C2501 1.433 . S
C2494 H2490 0.929 . S
C2494 C2496 1.378 . S
C2494 C2498 1.350 . S
C2495 C2498 1.463 . S
C2495 C2500 1.350 . S
C2495 N2503 1.427 . S
C2496 H2487 0.930 1_556 S
C2496 C2494 1.378 . S
C2496 C2497 1.367 . S
C2497 C2496 1.367 . S
C2497 C2499 1.433 . S
C2498 C2494 1.350 . S
C2498 C2495 1.463 . S
C2498 N2502 1.427 . S
C2499 H2489 0.929 . S
C2499 C2497 1.433 . S
C2499 N2502 1.384 . S
C2500 H2491 0.929 . S
C2500 C2492 1.378 . S
C2500 C2495 1.350 . S
C2501 H2488 0.929 . S
C2501 C2493 1.433 . S
C2501 N2503 1.384 . S
N2502 C2498 1.427 . S
N2502 C2499 1.384 . S
N2503 C2495 1.427 . S
N2503 C2501 1.384 . S
H2504 C2510 0.930 . S
H2505 C2514 0.930 . S
H2506 C2519 0.929 . S
H2507 C2517 0.929 . S
H2508 C2512 0.929 . S
H2509 C2518 0.929 . S
C2510 H2504 0.930 . S
C2510 C2511 1.367 . S
C2510 C2518 1.378 . S
C2511 C2510 1.367 . S
C2511 C2519 1.433 . S
C2512 H2508 0.929 . S
C2512 C2514 1.378 . S
C2512 C2516 1.350 . S
C2513 C2516 1.463 . S
C2513 C2518 1.350 . S
C2513 N2521 1.427 . S
C2514 H2505 0.930 . S
C2514 C2512 1.378 . S
C2514 C2515 1.367 . S
C2515 C2514 1.367 . S
C2515 C2517 1.433 . S
C2516 C2512 1.350 . S
C2516 C2513 1.463 . S
C2516 N2520 1.427 . S
C2517 H2507 0.929 . S
C2517 C2515 1.433 . S
C2517 N2520 1.384 . S
C2518 H2509 0.929 . S
C2518 C2510 1.378 . S
C2518 C2513 1.350 . S
C2519 H2506 0.929 . S
C2519 C2511 1.433 . S
C2519 N2521 1.384 . S
N2520 C2516 1.427 . S
N2520 C2517 1.384 . S
N2521 C2513 1.427 . S
N2521 C2519 1.384 . S
H2522 C2528 0.930 . S
H2523 C2532 0.930 . S
H2524 C2537 0.929 . S
H2525 C2535 0.929 . S
H2526 C2530 0.929 . S
H2527 C2536 0.929 . S
C2528 H2522 0.930 . S
C2528 C2529 1.367 . S
C2528 C2536 1.378 . S
C2529 C2528 1.367 . S
C2529 C2537 1.433 . S
C2530 H2526 0.929 . S
C2530 C2532 1.378 . S
C2530 C2534 1.350 . S
C2531 C2534 1.463 . S
C2531 C2536 1.350 . S
C2531 N2539 1.427 . S
C2532 H2523 0.930 . S
C2532 C2530 1.378 . S
C2532 C2533 1.367 . S
C2533 C2532 1.367 . S
C2533 C2535 1.433 . S
C2534 C2530 1.350 . S
C2534 C2531 1.463 . S
C2534 N2538 1.427 . S
C2535 H2525 0.929 . S
C2535 C2533 1.433 . S
C2535 N2538 1.384 . S
C2536 H2527 0.929 . S
C2536 C2528 1.378 . S
C2536 C2531 1.350 . S
C2537 H2524 0.929 . S
C2537 C2529 1.433 . S
C2537 N2539 1.384 . S
N2538 C2534 1.427 . S
N2538 C2535 1.384 . S
N2539 C2531 1.427 . S
N2539 C2537 1.384 . S
H2540 C2546 0.930 . S
H2541 C2550 0.930 . S
H2542 C2555 0.929 . S
H2543 C2553 0.929 . S
H2544 C2548 0.929 . S
H2545 C2554 0.929 1_556 S
C2546 H2540 0.930 . S
C2546 C2547 1.367 1_556 S
C2546 C2554 1.378 1_556 S
C2547 C2546 1.367 1_554 S
C2547 C2555 1.433 . S
C2548 H2544 0.929 . S
C2548 C2550 1.378 . S
C2548 C2552 1.350 . S
C2549 C2552 1.463 . S
C2549 C2554 1.350 . S
C2549 N2557 1.427 . S
C2550 H2541 0.930 . S
C2550 C2548 1.378 . S
C2550 C2551 1.367 . S
C2551 C2550 1.367 . S
C2551 C2553 1.433 . S
C2552 C2548 1.350 . S
C2552 C2549 1.463 . S
C2552 N2556 1.427 . S
C2553 H2543 0.929 . S
C2553 C2551 1.433 . S
C2553 N2556 1.384 . S
C2554 H2545 0.929 1_554 S
C2554 C2546 1.378 1_554 S
C2554 C2549 1.350 . S
C2555 H2542 0.929 . S
C2555 C2547 1.433 . S
C2555 N2557 1.384 . S
N2556 C2552 1.427 . S
N2556 C2553 1.384 . S
N2557 C2549 1.427 . S
N2557 C2555 1.384 . S
H2558 C2564 0.930 . S
H2559 C2568 0.930 . S
H2560 C2573 0.929 . S
H2561 C2571 0.929 . S
H2562 C2566 0.929 . S
H2563 C2572 0.929 1_556 S
C2564 H2558 0.930 . S
C2564 C2565 1.367 1_556 S
C2564 C2572 1.378 1_556 S
C2565 C2564 1.367 1_554 S
C2565 C2573 1.433 . S
C2566 H2562 0.929 . S
C2566 C2568 1.378 . S
C2566 C2570 1.350 . S
C2567 C2570 1.463 . S
C2567 C2572 1.350 . S
C2567 N2575 1.427 . S
C2568 H2559 0.930 . S
C2568 C2566 1.378 . S
C2568 C2569 1.367 . S
C2569 C2568 1.367 . S
C2569 C2571 1.433 . S
C2570 C2566 1.350 . S
C2570 C2567 1.463 . S
C2570 N2574 1.427 . S
C2571 H2561 0.929 . S
C2571 C2569 1.433 . S
C2571 N2574 1.384 . S
C2572 H2563 0.929 1_554 S
C2572 C2564 1.378 1_554 S
C2572 C2567 1.350 . S
C2573 H2560 0.929 . S
C2573 C2565 1.433 . S
C2573 N2575 1.384 . S
N2574 C2570 1.427 . S
N2574 C2571 1.384 . S
N2575 C2567 1.427 . S
N2575 C2573 1.384 . S
H2576 C2582 0.930 . S
H2577 C2586 0.930 . S
H2578 C2591 0.929 . S
H2579 C2589 0.929 . S
H2580 C2584 0.929 . S
H2581 C2590 0.929 1_554 S
C2582 H2576 0.930 . S
C2582 C2583 1.367 1_554 S
C2582 C2590 1.378 1_554 S
C2583 C2582 1.367 1_556 S
C2583 C2591 1.433 . S
C2584 H2580 0.929 . S
C2584 C2586 1.378 . S
C2584 C2588 1.350 . S
C2585 C2588 1.463 . S
C2585 C2590 1.350 . S
C2585 N2593 1.427 . S
C2586 H2577 0.930 . S
C2586 C2584 1.378 . S
C2586 C2587 1.367 . S
C2587 C2586 1.367 . S
C2587 C2589 1.433 . S
C2588 C2584 1.350 . S
C2588 C2585 1.463 . S
C2588 N2592 1.427 . S
C2589 H2579 0.929 . S
C2589 C2587 1.433 . S
C2589 N2592 1.384 . S
C2590 H2581 0.929 1_556 S
C2590 C2582 1.378 1_556 S
C2590 C2585 1.350 . S
C2591 H2578 0.929 . S
C2591 C2583 1.433 . S
C2591 N2593 1.384 . S
N2592 C2588 1.427 . S
N2592 C2589 1.384 . S
N2593 C2585 1.427 . S
N2593 C2591 1.384 . S
H2594 C2600 0.930 . S
H2595 C2604 0.930 . S
H2596 C2609 0.929 . S
H2597 C2607 0.929 1_554 S
H2598 C2602 0.929 . S
H2599 C2608 0.929 . S
C2600 H2594 0.930 . S
C2600 C2601 1.367 . S
C2600 C2608 1.378 . S
C2601 C2600 1.367 . S
C2601 C2609 1.433 . S
C2602 H2598 0.929 . S
C2602 C2604 1.378 . S
C2602 C2606 1.350 . S
C2603 C2606 1.463 . S
C2603 C2608 1.350 . S
C2603 N2611 1.427 . S
C2604 H2595 0.930 . S
C2604 C2602 1.378 . S
C2604 C2605 1.367 . S
C2605 C2604 1.367 . S
C2605 C2607 1.433 . S
C2606 C2602 1.350 . S
C2606 C2603 1.463 . S
C2606 N2610 1.427 . S
C2607 H2597 0.929 1_556 S
C2607 C2605 1.433 . S
C2607 N2610 1.384 . S
C2608 H2599 0.929 . S
C2608 C2600 1.378 . S
C2608 C2603 1.350 . S
C2609 H2596 0.929 . S
C2609 C2601 1.433 . S
C2609 N2611 1.384 . S
N2610 C2606 1.427 . S
N2610 C2607 1.384 . S
N2611 C2603 1.427 . S
N2611 C2609 1.384 . S
H2612 C2618 0.930 . S
H2613 C2622 0.930 . S
H2614 C2627 0.929 . S
H2615 C2625 0.929 . S
H2616 C2620 0.929 . S
H2617 C2626 0.929 . S
C2618 H2612 0.930 . S
C2618 C2619 1.367 . S
C2618 C2626 1.378 . S
C2619 C2618 1.367 . S
C2619 C2627 1.433 . S
C2620 H2616 0.929 . S
C2620 C2622 1.378 . S
C2620 C2624 1.350 . S
C2621 C2624 1.463 . S
C2621 C2626 1.350 . S
C2621 N2629 1.427 . S
C2622 H2613 0.930 . S
C2622 C2620 1.378 . S
C2622 C2623 1.367 . S
C2623 C2622 1.367 . S
C2623 C2625 1.433 . S
C2624 C2620 1.350 . S
C2624 C2621 1.463 . S
C2624 N2628 1.427 . S
C2625 H2615 0.929 . S
C2625 C2623 1.433 . S
C2625 N2628 1.384 . S
C2626 H2617 0.929 . S
C2626 C2618 1.378 . S
C2626 C2621 1.350 . S
C2627 H2614 0.929 . S
C2627 C2619 1.433 . S
C2627 N2629 1.384 . S
N2628 C2624 1.427 . S
N2628 C2625 1.384 . S
N2629 C2621 1.427 . S
N2629 C2627 1.384 . S
H2630 C2636 0.930 . S
H2631 C2640 0.930 . S
H2632 C2645 0.929 . S
H2633 C2643 0.929 . S
H2634 C2638 0.929 . S
H2635 C2644 0.929 . S
C2636 H2630 0.930 . S
C2636 C2637 1.367 . S
C2636 C2644 1.378 . S
C2637 C2636 1.367 . S
C2637 C2645 1.433 . S
C2638 H2634 0.929 . S
C2638 C2640 1.378 . S
C2638 C2642 1.350 . S
C2639 C2642 1.463 . S
C2639 C2644 1.350 . S
C2639 N2647 1.427 . S
C2640 H2631 0.930 . S
C2640 C2638 1.378 . S
C2640 C2641 1.367 . S
C2641 C2640 1.367 . S
C2641 C2643 1.433 . S
C2642 C2638 1.350 . S
C2642 C2639 1.463 . S
C2642 N2646 1.427 . S
C2643 H2633 0.929 . S
C2643 C2641 1.433 . S
C2643 N2646 1.384 . S
C2644 H2635 0.929 . S
C2644 C2636 1.378 . S
C2644 C2639 1.350 . S
C2645 H2632 0.929 . S
C2645 C2637 1.433 . S
C2645 N2647 1.384 . S
N2646 C2642 1.427 . S
N2646 C2643 1.384 . S
N2647 C2639 1.427 . S
N2647 C2645 1.384 . S
H2648 C2654 0.930 1_556 S
H2649 C2658 0.930 . S
H2650 C2663 0.929 . S
H2651 C2661 0.929 . S
H2652 C2656 0.929 . S
H2653 C2662 0.929 . S
C2654 H2648 0.930 1_554 S
C2654 C2655 1.367 . S
C2654 C2662 1.378 . S
C2655 C2654 1.367 . S
C2655 C2663 1.433 . S
C2656 H2652 0.929 . S
C2656 C2658 1.378 . S
C2656 C2660 1.350 . S
C2657 C2660 1.463 . S
C2657 C2662 1.350 . S
C2657 N2665 1.427 . S
C2658 H2649 0.930 . S
C2658 C2656 1.378 . S
C2658 C2659 1.367 . S
C2659 C2658 1.367 . S
C2659 C2661 1.433 . S
C2660 C2656 1.350 . S
C2660 C2657 1.463 . S
C2660 N2664 1.427 . S
C2661 H2651 0.929 . S
C2661 C2659 1.433 . S
C2661 N2664 1.384 . S
C2662 H2653 0.929 . S
C2662 C2654 1.378 . S
C2662 C2657 1.350 . S
C2663 H2650 0.929 . S
C2663 C2655 1.433 . S
C2663 N2665 1.384 . S
N2664 C2660 1.427 . S
N2664 C2661 1.384 . S
N2665 C2657 1.427 . S
N2665 C2663 1.384 . S
H2666 C2672 0.930 . S
H2667 C2676 0.930 . S
H2668 C2681 0.929 . S
H2669 C2679 0.929 . S
H2670 C2674 0.929 . S
H2671 C2680 0.929 . S
C2672 H2666 0.930 . S
C2672 C2673 1.367 . S
C2672 C2680 1.378 . S
C2673 C2672 1.367 . S
C2673 C2681 1.433 . S
C2674 H2670 0.929 . S
C2674 C2676 1.378 . S
C2674 C2678 1.350 . S
C2675 C2678 1.463 . S
C2675 C2680 1.350 . S
C2675 N2683 1.427 . S
C2676 H2667 0.930 . S
C2676 C2674 1.378 . S
C2676 C2677 1.367 . S
C2677 C2676 1.367 . S
C2677 C2679 1.433 1_554 S
C2678 C2674 1.350 . S
C2678 C2675 1.463 . S
C2678 N2682 1.427 . S
C2679 H2669 0.929 . S
C2679 C2677 1.433 1_556 S
C2679 N2682 1.384 1_556 S
C2680 H2671 0.929 . S
C2680 C2672 1.378 . S
C2680 C2675 1.350 . S
C2681 H2668 0.929 . S
C2681 C2673 1.433 . S
C2681 N2683 1.384 . S
N2682 C2678 1.427 . S
N2682 C2679 1.384 1_554 S
N2683 C2675 1.427 . S
N2683 C2681 1.384 . S
H2684 C2690 0.930 . S
H2685 C2694 0.930 . S
H2686 C2699 0.929 . S
H2687 C2697 0.929 . S
H2688 C2692 0.929 . S
H2689 C2698 0.929 . S
C2690 H2684 0.930 . S
C2690 C2691 1.367 . S
C2690 C2698 1.378 . S
C2691 C2690 1.367 . S
C2691 C2699 1.433 . S
C2692 H2688 0.929 . S
C2692 C2694 1.378 . S
C2692 C2696 1.350 . S
C2693 C2696 1.463 . S
C2693 C2698 1.350 . S
C2693 N2701 1.427 . S
C2694 H2685 0.930 . S
C2694 C2692 1.378 . S
C2694 C2695 1.367 . S
C2695 C2694 1.367 . S
C2695 C2697 1.433 . S
C2696 C2692 1.350 . S
C2696 C2693 1.463 . S
C2696 N2700 1.427 . S
C2697 H2687 0.929 . S
C2697 C2695 1.433 . S
C2697 N2700 1.384 . S
C2698 H2689 0.929 . S
C2698 C2690 1.378 . S
C2698 C2693 1.350 . S
C2699 H2686 0.929 . S
C2699 C2691 1.433 . S
C2699 N2701 1.384 . S
N2700 C2696 1.427 . S
N2700 C2697 1.384 . S
N2701 C2693 1.427 . S
N2701 C2699 1.384 . S
H2702 C2708 0.930 . S
H2703 C2712 0.930 . S
H2704 C2717 0.929 . S
H2705 C2715 0.929 . S
H2706 C2710 0.929 . S
H2707 C2716 0.929 . S
C2708 H2702 0.930 . S
C2708 C2709 1.367 . S
C2708 C2716 1.378 . S
C2709 C2708 1.367 . S
C2709 C2717 1.433 . S
C2710 H2706 0.929 . S
C2710 C2712 1.378 . S
C2710 C2714 1.350 . S
C2711 C2714 1.463 . S
C2711 C2716 1.350 . S
C2711 N2719 1.427 . S
C2712 H2703 0.930 . S
C2712 C2710 1.378 . S
C2712 C2713 1.367 . S
C2713 C2712 1.367 . S
C2713 C2715 1.433 . S
C2714 C2710 1.350 . S
C2714 C2711 1.463 . S
C2714 N2718 1.427 . S
C2715 H2705 0.929 . S
C2715 C2713 1.433 . S
C2715 N2718 1.384 . S
C2716 H2707 0.929 . S
C2716 C2708 1.378 . S
C2716 C2711 1.350 . S
C2717 H2704 0.929 . S
C2717 C2709 1.433 . S
C2717 N2719 1.384 . S
N2718 C2714 1.427 . S
N2718 C2715 1.384 . S
N2719 C2711 1.427 . S
N2719 C2717 1.384 . S
H2720 C2726 0.930 . S
H2721 C2730 0.930 1_556 S
H2722 C2735 0.929 . S
H2723 C2733 0.929 . S
H2724 C2728 0.929 . S
H2725 C2734 0.929 . S
C2726 H2720 0.930 . S
C2726 C2727 1.367 . S
C2726 C2734 1.378 . S
C2727 C2726 1.367 . S
C2727 C2735 1.433 . S
C2728 H2724 0.929 . S
C2728 C2730 1.378 . S
C2728 C2732 1.350 . S
C2729 C2732 1.463 . S
C2729 C2734 1.350 . S
C2729 N2737 1.427 . S
C2730 H2721 0.930 1_554 S
C2730 C2728 1.378 . S
C2730 C2731 1.367 . S
C2731 C2730 1.367 . S
C2731 C2733 1.433 . S
C2732 C2728 1.350 . S
C2732 C2729 1.463 . S
C2732 N2736 1.427 . S
C2733 H2723 0.929 . S
C2733 C2731 1.433 . S
C2733 N2736 1.384 . S
C2734 H2725 0.929 . S
C2734 C2726 1.378 . S
C2734 C2729 1.350 . S
C2735 H2722 0.929 . S
C2735 C2727 1.433 . S
C2735 N2737 1.384 . S
N2736 C2732 1.427 . S
N2736 C2733 1.384 . S
N2737 C2729 1.427 . S
N2737 C2735 1.384 . S
H2738 C2744 0.930 . S
H2739 C2748 0.930 . S
H2740 C2753 0.929 1_556 S
H2741 C2751 0.929 . S
H2742 C2746 0.929 . S
H2743 C2752 0.929 . S
C2744 H2738 0.930 . S
C2744 C2745 1.367 . S
C2744 C2752 1.378 . S
C2745 C2744 1.367 . S
C2745 C2753 1.433 . S
C2746 H2742 0.929 . S
C2746 C2748 1.378 . S
C2746 C2750 1.350 . S
C2747 C2750 1.463 . S
C2747 C2752 1.350 . S
C2747 N2755 1.427 . S
C2748 H2739 0.930 . S
C2748 C2746 1.378 . S
C2748 C2749 1.367 . S
C2749 C2748 1.367 . S
C2749 C2751 1.433 . S
C2750 C2746 1.350 . S
C2750 C2747 1.463 . S
C2750 N2754 1.427 . S
C2751 H2741 0.929 . S
C2751 C2749 1.433 . S
C2751 N2754 1.384 . S
C2752 H2743 0.929 . S
C2752 C2744 1.378 . S
C2752 C2747 1.350 . S
C2753 H2740 0.929 1_554 S
C2753 C2745 1.433 . S
C2753 N2755 1.384 . S
N2754 C2750 1.427 . S
N2754 C2751 1.384 . S
N2755 C2747 1.427 . S
N2755 C2753 1.384 . S
H2756 C2762 0.930 1_554 S
H2757 C2766 0.930 . S
H2758 C2771 0.929 . S
H2759 C2769 0.929 . S
H2760 C2764 0.929 . S
H2761 C2770 0.929 1_554 S
C2762 H2756 0.930 1_556 S
C2762 C2763 1.367 . S
C2762 C2770 1.378 . S
C2763 C2762 1.367 . S
C2763 C2771 1.433 . S
C2764 H2760 0.929 . S
C2764 C2766 1.378 . S
C2764 C2768 1.350 . S
C2765 C2768 1.463 . S
C2765 C2770 1.350 . S
C2765 N2773 1.427 . S
C2766 H2757 0.930 . S
C2766 C2764 1.378 . S
C2766 C2767 1.367 . S
C2767 C2766 1.367 . S
C2767 C2769 1.433 . S
C2768 C2764 1.350 . S
C2768 C2765 1.463 . S
C2768 N2772 1.427 . S
C2769 H2759 0.929 . S
C2769 C2767 1.433 . S
C2769 N2772 1.384 . S
C2770 H2761 0.929 1_556 S
C2770 C2762 1.378 . S
C2770 C2765 1.350 . S
C2771 H2758 0.929 . S
C2771 C2763 1.433 . S
C2771 N2773 1.384 . S
N2772 C2768 1.427 . S
N2772 C2769 1.384 . S
N2773 C2765 1.427 . S
N2773 C2771 1.384 . S
H2774 C2780 0.930 . S
H2775 C2784 0.930 . S
H2776 C2789 0.929 . S
H2777 C2787 0.929 1_554 S
H2778 C2782 0.929 . S
H2779 C2788 0.929 . S
C2780 H2774 0.930 . S
C2780 C2781 1.367 . S
C2780 C2788 1.378 . S
C2781 C2780 1.367 . S
C2781 C2789 1.433 . S
C2782 H2778 0.929 . S
C2782 C2784 1.378 . S
C2782 C2786 1.350 . S
C2783 C2786 1.463 . S
C2783 C2788 1.350 . S
C2783 N2791 1.427 . S
C2784 H2775 0.930 . S
C2784 C2782 1.378 . S
C2784 C2785 1.367 . S
C2785 C2784 1.367 . S
C2785 C2787 1.433 . S
C2786 C2782 1.350 . S
C2786 C2783 1.463 . S
C2786 N2790 1.427 . S
C2787 H2777 0.929 1_556 S
C2787 C2785 1.433 . S
C2787 N2790 1.384 . S
C2788 H2779 0.929 . S
C2788 C2780 1.378 . S
C2788 C2783 1.350 . S
C2789 H2776 0.929 . S
C2789 C2781 1.433 . S
C2789 N2791 1.384 . S
N2790 C2786 1.427 . S
N2790 C2787 1.384 . S
N2791 C2783 1.427 . S
N2791 C2789 1.384 . S
H2792 C2798 0.930 . S
H2793 C2802 0.930 . S
H2794 C2807 0.929 . S
H2795 C2805 0.929 . S
H2796 C2800 0.929 . S
H2797 C2806 0.929 . S
C2798 H2792 0.930 . S
C2798 C2799 1.367 . S
C2798 C2806 1.378 . S
C2799 C2798 1.367 . S
C2799 C2807 1.433 . S
C2800 H2796 0.929 . S
C2800 C2802 1.378 . S
C2800 C2804 1.350 . S
C2801 C2804 1.463 . S
C2801 C2806 1.350 . S
C2801 N2809 1.427 . S
C2802 H2793 0.930 . S
C2802 C2800 1.378 . S
C2802 C2803 1.367 . S
C2803 C2802 1.367 . S
C2803 C2805 1.433 . S
C2804 C2800 1.350 . S
C2804 C2801 1.463 . S
C2804 N2808 1.427 . S
C2805 H2795 0.929 . S
C2805 C2803 1.433 . S
C2805 N2808 1.384 . S
C2806 H2797 0.929 . S
C2806 C2798 1.378 . S
C2806 C2801 1.350 . S
C2807 H2794 0.929 . S
C2807 C2799 1.433 . S
C2807 N2809 1.384 . S
N2808 C2804 1.427 . S
N2808 C2805 1.384 . S
N2809 C2801 1.427 . S
N2809 C2807 1.384 . S
H2810 C2816 0.930 . S
H2811 C2820 0.930 . S
H2812 C2825 0.929 . S
H2813 C2823 0.929 . S
H2814 C2818 0.929 . S
H2815 C2824 0.929 . S
C2816 H2810 0.930 . S
C2816 C2817 1.367 . S
C2816 C2824 1.378 . S
C2817 C2816 1.367 . S
C2817 C2825 1.433 . S
C2818 H2814 0.929 . S
C2818 C2820 1.378 . S
C2818 C2822 1.350 . S
C2819 C2822 1.463 . S
C2819 C2824 1.350 . S
C2819 N2827 1.427 . S
C2820 H2811 0.930 . S
C2820 C2818 1.378 . S
C2820 C2821 1.367 . S
C2821 C2820 1.367 . S
C2821 C2823 1.433 . S
C2822 C2818 1.350 . S
C2822 C2819 1.463 . S
C2822 N2826 1.427 . S
C2823 H2813 0.929 . S
C2823 C2821 1.433 . S
C2823 N2826 1.384 . S
C2824 H2815 0.929 . S
C2824 C2816 1.378 . S
C2824 C2819 1.350 . S
C2825 H2812 0.929 . S
C2825 C2817 1.433 . S
C2825 N2827 1.384 . S
N2826 C2822 1.427 . S
N2826 C2823 1.384 . S
N2827 C2819 1.427 . S
N2827 C2825 1.384 . S
H2828 C2834 0.930 . S
H2829 C2838 0.930 . S
H2830 C2843 0.929 . S
H2831 C2841 0.929 . S
H2832 C2836 0.929 . S
H2833 C2842 0.929 . S
C2834 H2828 0.930 . S
C2834 C2835 1.367 . S
C2834 C2842 1.378 . S
C2835 C2834 1.367 . S
C2835 C2843 1.433 . S
C2836 H2832 0.929 . S
C2836 C2838 1.378 . S
C2836 C2840 1.350 . S
C2837 C2840 1.463 . S
C2837 C2842 1.350 . S
C2837 N2845 1.427 . S
C2838 H2829 0.930 . S
C2838 C2836 1.378 . S
C2838 C2839 1.367 . S
C2839 C2838 1.367 . S
C2839 C2841 1.433 . S
C2840 C2836 1.350 . S
C2840 C2837 1.463 . S
C2840 N2844 1.427 . S
C2841 H2831 0.929 . S
C2841 C2839 1.433 . S
C2841 N2844 1.384 . S
C2842 H2833 0.929 . S
C2842 C2834 1.378 . S
C2842 C2837 1.350 . S
C2843 H2830 0.929 . S
C2843 C2835 1.433 . S
C2843 N2845 1.384 . S
N2844 C2840 1.427 . S
N2844 C2841 1.384 . S
N2845 C2837 1.427 . S
N2845 C2843 1.384 . S
H2846 C2852 0.930 . S
H2847 C2856 0.930 . S
H2848 C2861 0.929 . S
H2849 C2859 0.929 . S
H2850 C2854 0.929 . S
H2851 C2860 0.929 . S
C2852 H2846 0.930 . S
C2852 C2853 1.367 . S
C2852 C2860 1.378 . S
C2853 C2852 1.367 . S
C2853 C2861 1.433 . S
C2854 H2850 0.929 . S
C2854 C2856 1.378 . S
C2854 C2858 1.350 . S
C2855 C2858 1.463 . S
C2855 C2860 1.350 . S
C2855 N2863 1.427 . S
C2856 H2847 0.930 . S
C2856 C2854 1.378 . S
C2856 C2857 1.367 . S
C2857 C2856 1.367 . S
C2857 C2859 1.433 . S
C2858 C2854 1.350 . S
C2858 C2855 1.463 . S
C2858 N2862 1.427 . S
C2859 H2849 0.929 . S
C2859 C2857 1.433 . S
C2859 N2862 1.384 . S
C2860 H2851 0.929 . S
C2860 C2852 1.378 . S
C2860 C2855 1.350 . S
C2861 H2848 0.929 . S
C2861 C2853 1.433 . S
C2861 N2863 1.384 . S
N2862 C2858 1.427 . S
N2862 C2859 1.384 . S
N2863 C2855 1.427 . S
N2863 C2861 1.384 . S
H2864 C2870 0.930 . S
H2865 C2874 0.930 . S
H2866 C2879 0.929 . S
H2867 C2877 0.929 . S
H2868 C2872 0.929 . S
H2869 C2878 0.929 . S
C2870 H2864 0.930 . S
C2870 C2871 1.367 . S
C2870 C2878 1.378 . S
C2871 C2870 1.367 . S
C2871 C2879 1.433 . S
C2872 H2868 0.929 . S
C2872 C2874 1.378 . S
C2872 C2876 1.350 . S
C2873 C2876 1.463 . S
C2873 C2878 1.350 . S
C2873 N2881 1.427 . S
C2874 H2865 0.930 . S
C2874 C2872 1.378 . S
C2874 C2875 1.367 . S
C2875 C2874 1.367 . S
C2875 C2877 1.433 . S
C2876 C2872 1.350 . S
C2876 C2873 1.463 . S
C2876 N2880 1.427 . S
C2877 H2867 0.929 . S
C2877 C2875 1.433 . S
C2877 N2880 1.384 . S
C2878 H2869 0.929 . S
C2878 C2870 1.378 . S
C2878 C2873 1.350 . S
C2879 H2866 0.929 . S
C2879 C2871 1.433 . S
C2879 N2881 1.384 . S
N2880 C2876 1.427 . S
N2880 C2877 1.384 . S
N2881 C2873 1.427 . S
N2881 C2879 1.384 . S
H2882 C2888 0.930 . S
H2883 C2892 0.930 . S
H2884 C2897 0.929 . S
H2885 C2895 0.929 . S
H2886 C2890 0.929 . S
H2887 C2896 0.929 . S
C2888 H2882 0.930 . S
C2888 C2889 1.367 . S
C2888 C2896 1.378 . S
C2889 C2888 1.367 . S
C2889 C2897 1.433 . S
C2890 H2886 0.929 . S
C2890 C2892 1.378 . S
C2890 C2894 1.350 . S
C2891 C2894 1.463 . S
C2891 C2896 1.350 . S
C2891 N2899 1.427 . S
C2892 H2883 0.930 . S
C2892 C2890 1.378 . S
C2892 C2893 1.367 . S
C2893 C2892 1.367 . S
C2893 C2895 1.433 . S
C2894 C2890 1.350 . S
C2894 C2891 1.463 . S
C2894 N2898 1.427 . S
C2895 H2885 0.929 . S
C2895 C2893 1.433 . S
C2895 N2898 1.384 . S
C2896 H2887 0.929 . S
C2896 C2888 1.378 . S
C2896 C2891 1.350 . S
C2897 H2884 0.929 . S
C2897 C2889 1.433 . S
C2897 N2899 1.384 . S
N2898 C2894 1.427 . S
N2898 C2895 1.384 . S
N2899 C2891 1.427 . S
N2899 C2897 1.384 . S
H2900 C2906 0.930 . S
H2901 C2910 0.930 . S
H2902 C2915 0.929 . S
H2903 C2913 0.929 . S
H2904 C2908 0.929 . S
H2905 C2914 0.929 . S
C2906 H2900 0.930 . S
C2906 C2907 1.367 . S
C2906 C2914 1.378 . S
C2907 C2906 1.367 . S
C2907 C2915 1.433 . S
C2908 H2904 0.929 . S
C2908 C2910 1.378 . S
C2908 C2912 1.350 . S
C2909 C2912 1.463 . S
C2909 C2914 1.350 . S
C2909 N2917 1.427 . S
C2910 H2901 0.930 . S
C2910 C2908 1.378 . S
C2910 C2911 1.367 . S
C2911 C2910 1.367 . S
C2911 C2913 1.433 . S
C2912 C2908 1.350 . S
C2912 C2909 1.463 . S
C2912 N2916 1.427 . S
C2913 H2903 0.929 . S
C2913 C2911 1.433 . S
C2913 N2916 1.384 . S
C2914 H2905 0.929 . S
C2914 C2906 1.378 . S
C2914 C2909 1.350 . S
C2915 H2902 0.929 . S
C2915 C2907 1.433 . S
C2915 N2917 1.384 . S
N2916 C2912 1.427 . S
N2916 C2913 1.384 . S
N2917 C2909 1.427 . S
N2917 C2915 1.384 . S
H2918 C2924 0.930 . S
H2919 C2928 0.930 . S
H2920 C2933 0.929 . S
H2921 C2931 0.929 . S
H2922 C2926 0.929 . S
H2923 C2932 0.929 . S
C2924 H2918 0.930 . S
C2924 C2925 1.367 . S
C2924 C2932 1.378 . S
C2925 C2924 1.367 . S
C2925 C2933 1.433 . S
C2926 H2922 0.929 . S
C2926 C2928 1.378 . S
C2926 C2930 1.350 . S
C2927 C2930 1.463 . S
C2927 C2932 1.350 . S
C2927 N2935 1.427 . S
C2928 H2919 0.930 . S
C2928 C2926 1.378 . S
C2928 C2929 1.367 . S
C2929 C2928 1.367 . S
C2929 C2931 1.433 . S
C2930 C2926 1.350 . S
C2930 C2927 1.463 . S
C2930 N2934 1.427 . S
C2931 H2921 0.929 . S
C2931 C2929 1.433 . S
C2931 N2934 1.384 . S
C2932 H2923 0.929 . S
C2932 C2924 1.378 . S
C2932 C2927 1.350 . S
C2933 H2920 0.929 . S
C2933 C2925 1.433 . S
C2933 N2935 1.384 . S
N2934 C2930 1.427 . S
N2934 C2931 1.384 . S
N2935 C2927 1.427 . S
N2935 C2933 1.384 . S
H2936 C2942 0.930 . S
H2937 C2946 0.930 1_556 S
H2938 C2951 0.929 . S
H2939 C2949 0.929 . S
H2940 C2944 0.929 . S
H2941 C2950 0.929 . S
C2942 H2936 0.930 . S
C2942 C2943 1.367 . S
C2942 C2950 1.378 . S
C2943 C2942 1.367 . S
C2943 C2951 1.433 . S
C2944 H2940 0.929 . S
C2944 C2946 1.378 . S
C2944 C2948 1.350 . S
C2945 C2948 1.463 . S
C2945 C2950 1.350 . S
C2945 N2953 1.427 . S
C2946 H2937 0.930 1_554 S
C2946 C2944 1.378 . S
C2946 C2947 1.367 . S
C2947 C2946 1.367 . S
C2947 C2949 1.433 . S
C2948 C2944 1.350 . S
C2948 C2945 1.463 . S
C2948 N2952 1.427 . S
C2949 H2939 0.929 . S
C2949 C2947 1.433 . S
C2949 N2952 1.384 . S
C2950 H2941 0.929 . S
C2950 C2942 1.378 . S
C2950 C2945 1.350 . S
C2951 H2938 0.929 . S
C2951 C2943 1.433 . S
C2951 N2953 1.384 . S
N2952 C2948 1.427 . S
N2952 C2949 1.384 . S
N2953 C2945 1.427 . S
N2953 C2951 1.384 . S
H2954 C2960 0.930 . S
H2955 C2964 0.930 . S
H2956 C2969 0.929 . S
H2957 C2967 0.929 1_556 S
H2958 C2962 0.929 . S
H2959 C2968 0.929 . S
C2960 H2954 0.930 . S
C2960 C2961 1.367 . S
C2960 C2968 1.378 . S
C2961 C2960 1.367 . S
C2961 C2969 1.433 . S
C2962 H2958 0.929 . S
C2962 C2964 1.378 . S
C2962 C2966 1.350 . S
C2963 C2966 1.463 . S
C2963 C2968 1.350 . S
C2963 N2971 1.427 . S
C2964 H2955 0.930 . S
C2964 C2962 1.378 . S
C2964 C2965 1.367 . S
C2965 C2964 1.367 . S
C2965 C2967 1.433 . S
C2966 C2962 1.350 . S
C2966 C2963 1.463 . S
C2966 N2970 1.427 . S
C2967 H2957 0.929 1_554 S
C2967 C2965 1.433 . S
C2967 N2970 1.384 . S
C2968 H2959 0.929 . S
C2968 C2960 1.378 . S
C2968 C2963 1.350 . S
C2969 H2956 0.929 . S
C2969 C2961 1.433 . S
C2969 N2971 1.384 . S
N2970 C2966 1.427 . S
N2970 C2967 1.384 . S
N2971 C2963 1.427 . S
N2971 C2969 1.384 . S
H2972 C2978 0.930 . S
H2973 C2982 0.930 . S
H2974 C2987 0.929 . S
H2975 C2985 0.929 1_554 S
H2976 C2980 0.929 . S
H2977 C2986 0.929 . S
C2978 H2972 0.930 . S
C2978 C2979 1.367 . S
C2978 C2986 1.378 . S
C2979 C2978 1.367 . S
C2979 C2987 1.433 . S
C2980 H2976 0.929 . S
C2980 C2982 1.378 . S
C2980 C2984 1.350 . S
C2981 C2984 1.463 . S
C2981 C2986 1.350 . S
C2981 N2989 1.427 . S
C2982 H2973 0.930 . S
C2982 C2980 1.378 . S
C2982 C2983 1.367 . S
C2983 C2982 1.367 . S
C2983 C2985 1.433 . S
C2984 C2980 1.350 . S
C2984 C2981 1.463 . S
C2984 N2988 1.427 . S
C2985 H2975 0.929 1_556 S
C2985 C2983 1.433 . S
C2985 N2988 1.384 . S
C2986 H2977 0.929 . S
C2986 C2978 1.378 . S
C2986 C2981 1.350 . S
C2987 H2974 0.929 . S
C2987 C2979 1.433 . S
C2987 N2989 1.384 . S
N2988 C2984 1.427 . S
N2988 C2985 1.384 . S
N2989 C2981 1.427 . S
N2989 C2987 1.384 . S
H2990 C2996 0.930 . S
H2991 C3000 0.930 . S
H2992 C3005 0.929 . S
H2993 C3003 0.929 . S
H2994 C2998 0.929 . S
H2995 C3004 0.929 . S
C2996 H2990 0.930 . S
C2996 C2997 1.367 . S
C2996 C3004 1.378 . S
C2997 C2996 1.367 . S
C2997 C3005 1.433 . S
C2998 H2994 0.929 . S
C2998 C3000 1.378 . S
C2998 C3002 1.350 . S
C2999 C3002 1.463 . S
C2999 C3004 1.350 . S
C2999 N3007 1.427 . S
C3000 H2991 0.930 . S
C3000 C2998 1.378 . S
C3000 C3001 1.367 . S
C3001 C3000 1.367 . S
C3001 C3003 1.433 . S
C3002 C2998 1.350 . S
C3002 C2999 1.463 . S
C3002 N3006 1.427 . S
C3003 H2993 0.929 . S
C3003 C3001 1.433 . S
C3003 N3006 1.384 . S
C3004 H2995 0.929 . S
C3004 C2996 1.378 . S
C3004 C2999 1.350 . S
C3005 H2992 0.929 . S
C3005 C2997 1.433 . S
C3005 N3007 1.384 . S
N3006 C3002 1.427 . S
N3006 C3003 1.384 . S
N3007 C2999 1.427 . S
N3007 C3005 1.384 . S
C1287 C1135 1.814 1_554 S
C1291 C6 1.814 1_556 S
C1305 C215 1.818 1_554 S
C1309 C46 1.818 1_556 S
C1323 C895 1.817 . S
C1327 C86 1.817 . S
C1341 C615 1.807 . S
C1345 C126 1.807 . S
C1359 C175 1.815 1_554 S
C1363 C966 1.815 1_556 S
C1377 C726 1.805 . S
C1381 C255 1.805 . S
C1395 C446 1.809 . S
C1399 C295 1.809 . S
C1413 C815 1.813 . S
C1417 C326 1.813 . S
C1431 C366 1.811 . S
C1435 C535 1.811 . S
C1449 C406 1.816 . S
C1453 C1215 1.816 . S
C1467 C646 1.806 . S
C1471 C495 1.806 . S
C1485 C575 1.813 . S
C1489 C1046 1.813 . S
C1503 C686 1.804 . S
C1507 C855 1.804 . S
C1521 C766 1.809 . S
C1525 C1255 1.809 . S
C1539 C1086 1.817 . S
C1543 C935 1.817 . S
C1557 C1175 1.810 1_554 S
C1561 C1006 1.810 1_556 S
C1575 C775 2.166 . S
C1579 C15 2.166 . S
C1593 C735 2.168 . S
C1597 C55 2.167 . S
C1611 C695 2.165 . S
C1615 C95 2.165 . S
C1629 C655 2.158 . S
C1633 C135 2.158 . S
C1647 C926 2.169 . S
C1651 C166 2.169 . S
C1665 C206 2.169 . S
C1669 C886 2.169 . S
C1683 C246 2.167 . S
C1687 C846 2.167 . S
C1701 C286 2.161 . S
C1705 C806 2.161 . S
C1719 C335 2.161 . S
C1723 C1095 2.160 . S
C1737 C375 2.167 . S
C1741 C1055 2.167 . S
C1755 C415 2.167 . S
C1759 C1015 2.167 . S
C1773 C975 2.158 . S
C1777 C455 2.159 . S
C1791 C486 2.165 . S
C1795 C1246 2.164 . S
C1809 C526 2.161 . S
C1813 C1206 2.161 . S
C1827 C566 2.167 . S
C1831 C1166 2.167 . S
C1845 C1126 2.170 . S
C1849 C606 2.170 . S
C1863 C19 2.413 . S
C1867 C10 2.413 1_556 S
C1881 C59 2.411 1_565 S
C1885 C50 2.412 1_556 S
C1899 C90 2.411 . S
C1903 C99 2.412 . S
C1917 C130 2.418 . S
C1921 C139 2.418 . S
C1935 C179 2.417 1_554 S
C1939 C170 2.417 . S
C1953 C219 2.411 1_554 S
C1957 C210 2.411 1_545 S
C1971 C259 2.411 . S
C1975 C250 2.410 1_545 S
C1989 C290 2.411 . S
C1993 C299 2.411 . S
C2007 C339 2.415 1_554 S
C2011 C330 2.415 . S
C2025 C370 2.411 . S
C2029 C379 2.411 1_554 S
C2043 C410 2.410 . S
C2047 C419 2.410 . S
C2061 C450 2.411 . S
C2065 C459 2.411 . S
C2079 C499 2.414 . S
C2083 C490 2.414 1_556 S
C2097 C530 2.417 1_556 S
C2101 C539 2.417 . S
C2115 C579 2.416 . S
C2119 C570 2.416 . S
C2133 C610 2.411 . S
C2137 C619 2.411 . S
C2151 C659 2.417 1_554 S
C2155 C650 2.417 . S
C2169 C690 2.416 . S
C2173 C699 2.414 1_564 S
C2187 C730 2.414 . S
C2191 C739 2.412 1_565 S
C2205 C770 2.411 . S
C2209 C779 2.411 . S
C2223 C810 2.417 1_556 S
C2227 C819 2.417 . S
C2241 C859 2.413 . S
C2245 C850 2.415 1_556 S
C2259 C890 2.413 . S
C2263 C899 2.412 . S
C2277 C930 2.415 . S
C2281 C939 2.415 . S
C2295 C979 2.416 . S
C2299 C970 2.416 1_556 S
C2313 C1010 2.411 1_556 S
C2317 C1019 2.411 . S
C2331 C1050 2.411 . S
C2335 C1059 2.411 . S
C2349 C1099 2.411 . S
C2353 C1090 2.411 . S
C2367 C1139 2.410 1_554 S
C2371 C1130 2.410 . S
C2385 C1170 2.412 . S
C2389 C1179 2.412 1_554 S
C2403 C1210 2.415 . S
C2407 C1219 2.415 . S
C2421 C1250 2.416 . S
C2425 C1259 2.416 . S
C2439 C409 1.486 . S
C2443 C9 1.497 . S
C2457 C449 1.490 . S
C2461 C49 1.483 . S
C2475 C89 1.489 . S
C2479 C329 1.495 . S
C2493 C369 1.485 . S
C2497 C129 1.497 . S
C2511 C178 1.495 . S
C2515 C578 1.490 . S
C2529 C218 1.484 . S
C2533 C618 1.488 . S
C2547 C258 1.494 . S
C2551 C498 1.491 . S
C2565 C298 1.495 . S
C2569 C538 1.492 . S
C2583 C1049 1.493 . S
C2587 C649 1.492 . S
C2601 C689 1.491 . S
C2605 C1089 1.482 . S
C2619 C969 1.491 . S
C2623 C729 1.494 . S
C2637 C769 1.488 . S
C2641 C1009 1.497 . S
C2655 C1218 1.496 . S
C2659 C818 1.487 . S
C2673 C858 1.488 . S
C2677 C1258 1.483 . S
C2691 C898 1.496 . S
C2695 C1138 1.488 . S
C2709 C1178 1.496 . S
C2713 C938 1.489 . S
C2727 C18 1.495 . S
C2731 C98 1.490 . S
C2745 C138 1.489 . S
C2749 C58 1.492 . S
C2763 C249 1.493 . S
C2767 C169 1.492 . S
C2781 C209 1.494 . S
C2785 C289 1.487 . S
C2799 C338 1.486 . S
C2803 C418 1.499 . S
C2817 C458 1.498 . S
C2821 C378 1.489 . S
C2835 C569 1.492 . S
C2839 C489 1.496 . S
C2853 C609 1.486 . S
C2857 C529 1.499 . S
C2871 C738 1.487 . S
C2875 C658 1.496 . S
C2889 C778 1.495 . S
C2893 C698 1.490 . S
C2907 C889 1.488 . S
C2911 C809 1.497 . S
C2925 C929 1.493 . S
C2929 C849 1.488 . S
C2943 C978 1.498 . S
C2947 C1058 1.488 . S
C2961 C1018 1.488 . S
C2965 C1098 1.497 . S
C2979 C1129 1.494 . S
C2983 C1209 1.489 . S
C2997 C1249 1.489 . S
C3001 C1169 1.499 . S
