# Generated by pormake.
# Topology lvt, (4)-cn, num edge types: 1
# Building blocks:
#     Node 0, Type 0, BuildingBlock: MUDLON_clean_sbu_0, # of connection points: 4
#     Node 1, Type 0, BuildingBlock: MUDLON_clean_sbu_0, # of connection points: 4
#     Node 2, Type 0, BuildingBlock: MUDLON_clean_sbu_0, # of connection points: 4
#     Node 3, Type 0, BuildingBlock: MUDLON_clean_sbu_0, # of connection points: 4
#     Node 4, Type 0, BuildingBlock: MUDLON_clean_sbu_0, # of connection points: 4
#     Node 5, Type 0, BuildingBlock: MUDLON_clean_sbu_0, # of connection points: 4
#     Node 6, Type 0, BuildingBlock: MUDLON_clean_sbu_0, # of connection points: 4
#     Node 7, Type 0, BuildingBlock: MUDLON_clean_sbu_0, # of connection points: 4
#     Edge 8, Type (0, 0), BuildingBlock: FUNLAD_clean_linker_0, # of connection points: 2
#     Edge 9, Type (0, 0), BuildingBlock: FUNLAD_clean_linker_0, # of connection points: 2
#     Edge 10, Type (0, 0), BuildingBlock: FUNLAD_clean_linker_0, # of connection points: 2
#     Edge 11, Type (0, 0), BuildingBlock: FUNLAD_clean_linker_0, # of connection points: 2
#     Edge 12, Type (0, 0), BuildingBlock: FUNLAD_clean_linker_0, # of connection points: 2
#     Edge 13, Type (0, 0), BuildingBlock: FUNLAD_clean_linker_0, # of connection points: 2
#     Edge 14, Type (0, 0), BuildingBlock: FUNLAD_clean_linker_0, # of connection points: 2
#     Edge 15, Type (0, 0), BuildingBlock: FUNLAD_clean_linker_0, # of connection points: 2
#     Edge 16, Type (0, 0), BuildingBlock: FUNLAD_clean_linker_0, # of connection points: 2
#     Edge 17, Type (0, 0), BuildingBlock: FUNLAD_clean_linker_0, # of connection points: 2
#     Edge 18, Type (0, 0), BuildingBlock: FUNLAD_clean_linker_0, # of connection points: 2
#     Edge 19, Type (0, 0), BuildingBlock: FUNLAD_clean_linker_0, # of connection points: 2
#     Edge 20, Type (0, 0), BuildingBlock: FUNLAD_clean_linker_0, # of connection points: 2
#     Edge 21, Type (0, 0), BuildingBlock: FUNLAD_clean_linker_0, # of connection points: 2
#     Edge 22, Type (0, 0), BuildingBlock: FUNLAD_clean_linker_0, # of connection points: 2
#     Edge 23, Type (0, 0), BuildingBlock: FUNLAD_clean_linker_0, # of connection points: 2
# Relax obj value: 0.001
# Max RMSD: 0.037
# Mean RMSD: 0.025
data_MOF--net-lvt--node1-MUDLON_clean_sbu_0--edge1-FUNLAD_clean_linker_0
_symmetry_space_group_name_H-M    P1
_symmetry_Int_Tables_number       1
_symmetry_cell_setting            triclinic
loop_
_symmetry_equiv_pos_as_xyz
'x, y, z'
_cell_length_a     48.997626
_cell_length_b     49.055999
_cell_length_c     10.913523
_cell_angle_alpha  90.190114
_cell_angle_beta   89.787965
_cell_angle_gamma 89.932382
loop_
_atom_site_label
_atom_site_type_symbol
_atom_site_fract_x
_atom_site_fract_y
_atom_site_fract_z
_atom_type_partial_charge
Mg0 Mg 0.05789 1.01569 0.76371 0.0
C1 C 0.09737 0.05793 0.68808 0.0
O2 O 0.09113 0.0641 0.80207 0.0
C3 C 0.01796 0.971 0.76968 0.0
O4 O 0.02234 0.97734 0.88504 0.0
C5 C 1.00665 0.04807 0.80075 0.0
O6 O 0.99914 0.02983 0.71935 0.0
O7 O 0.03086 0.04698 0.84307 0.0
O8 O 0.08579 0.03732 0.6393 0.0
O9 O 0.08408 0.99245 0.88784 0.0
C10 C 0.09283 0.97087 0.83556 0.0
O11 O 0.08585 0.96639 0.72111 0.0
O12 O 0.0309 0.98418 0.68732 0.0
Mg13 Mg 0.29926 0.7623 0.03873 0.0
C14 C 0.25779 0.72032 0.97902 0.0
O15 O 0.25512 0.7242 0.09769 0.0
C16 C 0.35458 0.78655 0.97358 0.0
O17 O 0.3626 0.7656 0.03882 0.0
C18 C 0.27412 0.81522 0.13128 0.0
O19 O 0.29933 0.82356 0.11476 0.0
O20 O 0.26868 0.79007 0.11576 0.0
O21 O 0.27595 0.73399 0.92205 0.0
O22 O 0.32233 0.73861 0.17329 0.0
C23 C 0.32895 0.71422 0.14577 0.0
O24 O 0.31932 0.7035 0.04433 0.0
O25 O 0.32928 0.789 0.94884 0.0
Mg26 Mg 0.55095 0.02539 0.82631 0.0
C27 C 0.49952 0.99312 0.8648 0.0
O28 O 0.49149 1.01212 0.78852 0.0
C29 C 0.59309 0.06552 0.90438 0.0
O30 O 0.59087 0.0696 0.78587 0.0
C31 C 0.5717 0.98027 0.65776 0.0
O32 O 0.54709 0.97084 0.67981 0.0
O33 O 0.57811 1.0037 0.6992 0.0
O34 O 0.52399 0.99383 0.90438 0.0
O35 O 0.52361 0.05599 0.74645 0.0
C36 C 0.51613 0.07532 0.81728 0.0
O37 O 0.52723 0.07709 0.9264 0.0
O38 O 0.57823 0.04716 0.95341 0.0
Mg39 Mg 0.29116 0.26538 0.08944 0.0
C40 C 0.27172 0.21351 0.23357 0.0
O41 O 0.29461 0.20235 0.19546 0.0
C42 C 0.3338 0.30625 0.09789 0.0
O43 O 0.32507 0.30527 0.98422 0.0
C44 C 0.25754 0.31408 0.1064 0.0
O45 O 0.26919 0.31106 0.21376 0.0
O46 O 0.26252 0.2964 0.02337 0.0
O47 O 0.26686 0.2384 0.20842 0.0
O48 O 0.31573 0.24323 0.9536 0.0
C49 C 0.31294 0.21911 0.91217 0.0
O50 O 0.29068 0.20537 0.93817 0.0
O51 O 0.32284 0.29031 0.17596 0.0
Mg52 Mg 0.79866 0.26234 0.51133 0.0
C53 C 0.84341 0.30239 0.52117 0.0
O54 O 0.83654 0.29822 0.63611 0.0
C55 C 0.7557 0.22381 0.42871 0.0
O56 O 0.75026 0.22769 0.54549 0.0
C57 C 0.84402 0.22848 0.60423 0.0
O58 O 0.8536 0.23873 0.50172 0.0
O59 O 0.81987 0.23485 0.63763 0.0
O60 O 0.83083 0.28907 0.43819 0.0
O61 O 0.76865 0.29057 0.59182 0.0
C62 C 0.76725 0.31358 0.53817 0.0
O63 O 0.78337 0.31813 0.44412 0.0
O64 O 0.77604 0.23634 0.38214 0.0
Mg65 Mg 0.78794 0.76256 0.58432 0.0
C66 C 0.8313 0.80225 0.60168 0.0
O67 O 0.8218 0.80317 0.48929 0.0
C68 C 0.76906 0.71667 0.76867 0.0
O69 O 0.79489 0.71446 0.79902 0.0
C70 C 0.81357 0.71465 0.4455 0.0
O71 O 0.79804 0.70065 0.52072 0.0
O72 O 0.8113 0.74051 0.4438 0.0
O73 O 0.82046 0.78542 0.67624 0.0
O74 O 0.76014 0.7947 0.52159 0.0
C75 C 0.75563 0.81254 0.60441 0.0
O76 O 0.76755 0.80954 0.71117 0.0
O77 O 0.76205 0.73443 0.68998 0.0
Mg78 Mg 0.55735 0.52079 0.29652 0.0
C79 C 0.51125 0.48371 0.27671 0.0
O80 O 0.51171 0.49222 0.39099 0.0
C81 C 0.58241 0.55895 0.09665 0.0
O82 O 0.55715 0.56109 0.05783 0.0
C83 C 0.58324 0.46976 0.38678 0.0
O84 O 0.57174 0.46205 0.2839 0.0
O85 O 0.58065 0.4945 0.42103 0.0
O86 O 0.52917 0.493 0.20278 0.0
O87 O 0.52875 0.54928 0.38365 0.0
C88 C 0.52924 0.57497 0.36761 0.0
O89 O 0.55034 0.58591 0.31194 0.0
O90 O 0.58754 0.5433 0.18657 0.0
Mg91 Mg 0.05567 0.52898 0.33233 0.0
C92 C 1.00759 0.49286 0.36733 0.0
O93 O 1.00114 0.50745 0.27093 0.0
C94 C 0.10015 0.56777 0.39211 0.0
O95 O 0.0992 0.56768 0.27177 0.0
C96 C 0.07545 0.48342 0.16116 0.0
O97 O 0.05071 0.47426 0.1821 0.0
O98 O 0.08219 0.50661 0.20425 0.0
O99 O 0.03015 0.49781 0.42105 0.0
O100 O 0.02641 0.55768 0.25189 0.0
C101 C 0.02099 0.57954 0.31054 0.0
O102 O 0.03533 0.58539 0.40861 0.0
O103 O 0.08352 0.55251 0.45023 0.0
C104 C 0.12925 0.0978 0.67848 0.0
C105 C 0.11809 0.07456 0.62169 0.0
C106 C 0.14935 0.11333 0.62013 0.0
C107 C 0.15887 0.10618 0.50251 0.0
C108 C 0.14783 0.08287 0.44576 0.0
C109 C 0.12756 0.06731 0.50422 0.0
C110 C 0.18103 0.12186 0.43953 0.0
C111 C 0.18648 0.14839 0.46342 0.0
C112 C 0.20874 0.16438 0.4033 0.0
C113 C 0.20662 0.19295 0.40034 0.0
C114 C 0.22712 0.20887 0.34666 0.0
C115 C 0.25058 0.19666 0.29601 0.0
H116 H 0.23522 0.13026 0.35741 0.0
C117 C 0.25304 0.16808 0.30122 0.0
C118 C 0.23237 0.15211 0.35397 0.0
H119 H 0.27083 0.15795 0.26331 0.0
H120 H 0.12267 0.10396 0.76931 0.0
H121 H 0.1578 0.13053 0.6693 0.0
H122 H 0.1549 0.07665 0.35572 0.0
H123 H 0.11957 0.04947 0.45802 0.0
H124 H 0.1925 0.11137 0.36829 0.0
H125 H 0.17332 0.15949 0.52641 0.0
H126 H 0.18885 0.20306 0.43875 0.0
H127 H 0.22451 0.2308 0.34469 0.0
C128 C 0.12522 0.95707 0.00463 0.0
C129 C 0.11018 0.95056 0.899 0.0
C130 C 0.14292 0.93775 0.05677 0.0
C131 C 0.1456 0.91152 0.00455 0.0
C132 C 0.12969 0.90492 0.90214 0.0
C133 C 0.11243 0.92417 0.84956 0.0
C134 C 0.1648 0.89036 0.05096 0.0
C135 C 0.18793 0.89582 0.11297 0.0
C136 C 0.20931 0.8747 0.13554 0.0
C137 C 0.23669 0.8829 0.14394 0.0
C138 C 0.25769 0.86357 0.14888 0.0
C139 C 0.25179 0.83551 0.14646 0.0
H140 H 0.18243 0.83946 0.14094 0.0
C141 C 0.2243 0.82729 0.14693 0.0
C142 C 0.20329 0.84665 0.14202 0.0
H143 H 0.21898 0.80587 0.14677 0.0
H144 H 0.12379 0.97721 0.04516 0.0
H145 H 0.15435 0.94342 0.13754 0.0
H146 H 0.13109 0.88489 0.86037 0.0
H147 H 0.10092 0.91832 0.76911 0.0
H148 H 0.16109 0.86963 0.02023 0.0
H149 H 0.19296 0.91683 0.13482 0.0
H150 H 0.24198 0.90433 0.14091 0.0
H151 H 0.2786 0.87068 0.14965 0.0
C152 C 0.49045 0.94486 0.93424 0.0
C153 C 0.48075 0.97015 0.89238 0.0
C154 C 0.47262 0.92259 0.94647 0.0
C155 C 0.44469 0.92528 0.91768 0.0
C156 C 0.43499 0.95088 0.88074 0.0
C157 C 0.45276 0.97292 0.8673 0.0
C158 C 0.42477 0.90232 0.92626 0.0
C159 C 0.43162 0.87571 0.91751 0.0
C160 C 0.41139 0.85295 0.92391 0.0
C161 C 0.42049 0.827 0.95931 0.0
C162 C 0.40218 0.80529 0.97115 0.0
C163 C 0.37424 0.80883 0.94638 0.0
H164 H 0.37578 0.87561 0.86242 0.0
C165 C 0.36524 0.83447 0.90567 0.0
C166 C 0.38357 0.85628 0.89444 0.0
H167 H 0.34389 0.83791 0.88536 0.0
H168 H 0.5119 0.94207 0.95434 0.0
H169 H 0.48081 0.90345 0.97883 0.0
H170 H 0.4136 0.95373 0.85931 0.0
H171 H 0.44453 0.99213 0.83552 0.0
H172 H 0.40345 0.90787 0.93676 0.0
H173 H 0.45295 0.87011 0.90754 0.0
H174 H 0.44179 0.82364 0.98096 0.0
H175 H 0.40991 0.78582 0.00221 0.0
C176 C 0.33732 0.17671 0.83991 0.0
C177 C 0.337 0.20516 0.85672 0.0
C178 C 0.3616 0.16311 0.80854 0.0
C179 C 0.38609 0.17775 0.7925 0.0
C180 C 0.38531 0.2063 0.80267 0.0
C181 C 0.36113 0.21984 0.83394 0.0
C182 C 0.41327 0.16419 0.77948 0.0
C183 C 0.4171 0.13788 0.74694 0.0
C184 C 0.44419 0.12399 0.75481 0.0
C185 C 0.44953 0.10091 0.68173 0.0
C186 C 0.47365 0.08583 0.69666 0.0
C187 C 0.49271 0.09326 0.78681 0.0
H188 H 0.46025 0.14904 0.90264 0.0
C189 C 0.48768 0.11673 0.85761 0.0
C190 C 0.46379 0.1319 0.84195 0.0
H191 H 0.50186 0.12296 0.92829 0.0
H192 H 0.31917 0.16473 0.85717 0.0
H193 H 0.36125 0.1411 0.80367 0.0
H194 H 0.40376 0.21817 0.79094 0.0
H195 H 0.36169 0.24177 0.84545 0.0
H196 H 0.43101 0.17657 0.80056 0.0
H197 H 0.39997 0.12586 0.71476 0.0
H198 H 0.43473 0.09417 0.61468 0.0
H199 H 0.47677 0.0677 0.64141 0.0
C200 C 0.98177 0.93784 0.83301 0.0
C201 C 0.99741 0.94979 0.73907 0.0
C202 C 0.96179 0.91837 0.80655 0.0
C203 C 0.95703 0.91002 0.68493 0.0
C204 C 0.97282 0.92189 0.59108 0.0
C205 C 0.99275 0.94154 0.61764 0.0
C206 C 0.9352 0.89005 0.65089 0.0
C207 C 0.92075 0.87479 0.73154 0.0
C208 C 0.89796 0.85609 0.69599 0.0
C209 C 0.88894 0.83616 0.77956 0.0
C210 C 0.86723 0.81865 0.75044 0.0
C211 C 0.854 0.82074 0.63691 0.0
H212 H 0.88958 0.87396 0.51763 0.0
C213 C 0.86278 0.84088 0.55418 0.0
C214 C 0.88427 0.85839 0.58335 0.0
H215 H 0.85288 0.84337 0.46635 0.0
H216 H 0.98464 0.94381 0.92773 0.0
H217 H 0.94996 0.91049 0.8822 0.0
H218 H 0.96961 0.9161 0.49634 0.0
H219 H 1.00439 0.95032 0.54304 0.0
H220 H 0.93125 0.88777 0.55371 0.0
H221 H 0.92587 0.87539 0.82799 0.0
H222 H 0.8988 0.83405 0.86773 0.0
H223 H 0.86094 0.80343 0.81641 0.0
C224 C 0.96021 0.06903 0.79761 0.0
C225 C 0.98794 0.07107 0.82895 0.0
C226 C 0.943 0.09172 0.8046 0.0
C227 C 0.95312 0.11716 0.84326 0.0
C228 C 0.98057 0.11889 0.88005 0.0
C229 C 0.99778 0.09605 0.87395 0.0
C230 C 0.93674 0.14267 0.83058 0.0
C231 C 0.90923 0.1432 0.82255 0.0
C232 C 0.89349 0.16748 0.78055 0.0
C233 C 0.86545 0.1695 0.80776 0.0
C234 C 0.84939 0.19011 0.75565 0.0
C235 C 0.861 0.20879 0.67329 0.0
H236 H 0.92649 0.1858 0.67562 0.0
C237 C 0.88917 0.20726 0.64916 0.0
C238 C 0.90521 0.18693 0.70197 0.0
H239 H 0.89879 0.22137 0.58628 0.0
H240 H 0.95195 0.05006 0.76275 0.0
H241 H 0.92226 0.08945 0.77268 0.0
H242 H 0.98901 0.13824 0.90938 0.0
H243 H 0.01907 0.09833 0.89823 0.0
H244 H 0.94806 0.16159 0.82214 0.0
H245 H 0.89764 0.1249 0.84279 0.0
H246 H 0.8558 0.15464 0.86696 0.0
H247 H 0.82772 0.19068 0.77565 0.0
C248 C 0.71515 0.19288 0.40954 0.0
C249 C 0.73822 0.20505 0.35535 0.0
C250 C 0.6984 0.17517 0.34278 0.0
C251 C 0.70436 0.16885 0.21957 0.0
C252 C 0.72735 0.18118 0.16519 0.0
C253 C 0.7441 0.19901 0.2321 0.0
C254 C 0.68665 0.15056 0.14333 0.0
C255 C 0.66761 0.1333 0.18916 0.0
C256 C 0.64916 0.11574 0.11295 0.0
C257 C 0.63439 0.09464 0.17005 0.0
C258 C 0.61625 0.07822 0.10325 0.0
C259 C 0.61235 0.08253 0.9773 0.0
H260 H 0.65518 0.13646 0.93881 0.0
C261 C 0.62702 0.10367 0.92022 0.0
C262 C 0.64504 0.12011 0.98686 0.0
H263 H 0.62442 0.1078 0.82353 0.0
H264 H 0.70978 0.19719 0.50401 0.0
H265 H 0.68059 0.16701 0.38827 0.0
H266 H 0.73243 0.177 0.07026 0.0
H267 H 0.76164 0.20802 0.18722 0.0
H268 H 0.69012 0.15113 0.04522 0.0
H269 H 0.66557 0.13125 0.28765 0.0
H270 H 0.63685 0.09083 0.26711 0.0
H271 H 0.60528 0.0622 0.15038 0.0
C272 C 0.62039 0.9699 0.5992 0.0
C273 C 0.59283 0.96197 0.60404 0.0
C274 C 0.64073 0.95116 0.56578 0.0
C275 C 0.63398 0.92395 0.53709 0.0
C276 C 0.6063 0.91661 0.53402 0.0
C277 C 0.58598 0.93531 0.56752 0.0
C278 C 0.65506 0.90238 0.51579 0.0
C279 C 0.68021 0.90346 0.5656 0.0
C280 C 0.7 0.8803 0.56601 0.0
C281 C 0.71985 0.87989 0.65832 0.0
C282 C 0.73801 0.85812 0.66845 0.0
C283 C 0.73719 0.83619 0.58534 0.0
H284 H 0.68505 0.85861 0.40563 0.0
C285 C 0.71809 0.83693 0.48951 0.0
C286 C 0.69956 0.85875 0.48006 0.0
H287 H 0.71705 0.82041 0.42363 0.0
H288 H 0.62639 0.99035 0.62524 0.0
H289 H 0.6617 0.95802 0.56457 0.0
H290 H 0.60038 0.89596 0.51071 0.0
H291 H 0.56496 0.92852 0.569 0.0
H292 H 0.64856 0.88385 0.46977 0.0
H293 H 0.68571 0.92113 0.62025 0.0
H294 H 0.72092 0.89623 0.72522 0.0
H295 H 0.75263 0.85842 0.74269 0.0
C296 C 0.63088 0.57625 0.09246 0.0
C297 C 0.60427 0.57658 0.04419 0.0
C298 C 0.651 0.59401 0.04787 0.0
C299 C 0.64501 0.6127 0.95377 0.0
C300 C 0.61858 0.61248 0.90382 0.0
C301 C 0.59848 0.59478 0.94851 0.0
C302 C 0.66546 0.63247 0.90339 0.0
C303 C 0.68917 0.63935 0.95874 0.0
C304 C 0.70913 0.65956 0.9082 0.0
C305 C 0.73631 0.65886 0.94914 0.0
C306 C 0.75569 0.67744 0.90492 0.0
C307 C 0.74834 0.69747 0.81922 0.0
H308 H 0.68085 0.68195 0.7926 0.0
C309 C 0.72102 0.69856 0.77993 0.0
C310 C 0.70166 0.67993 0.82387 0.0
H311 H 0.71452 0.71381 0.71468 0.0
H312 H 0.63616 0.5624 0.16577 0.0
H313 H 0.67116 0.59274 0.08726 0.0
H314 H 0.61328 0.62638 0.83068 0.0
H315 H 0.57828 0.59562 0.90873 0.0
H316 H 0.66032 0.64197 0.81688 0.0
H317 H 0.69465 0.62973 0.04449 0.0
H318 H 0.7427 0.64366 0.01495 0.0
H319 H 0.77648 0.676 0.93766 0.0
C320 C 0.72204 0.32805 0.62875 0.0
C321 C 0.74707 0.33474 0.57334 0.0
C322 C 0.70169 0.34801 0.64382 0.0
C323 C 0.70622 0.37502 0.60466 0.0
C324 C 0.73196 0.38188 0.55735 0.0
C325 C 0.75201 0.36198 0.54076 0.0
C326 C 0.68449 0.39632 0.60385 0.0
C327 C 0.65782 0.39053 0.58888 0.0
C328 C 0.63718 0.41138 0.55304 0.0
C329 C 0.61503 0.40291 0.48141 0.0
C330 C 0.59701 0.42192 0.4318 0.0
C331 C 0.60036 0.44994 0.45426 0.0
H332 H 0.65607 0.44659 0.63948 0.0
C333 C 0.62139 0.45844 0.5328 0.0
C334 C 0.63973 0.43934 0.58152 0.0
H335 H 0.62436 0.47989 0.55245 0.0
H336 H 0.71773 0.30724 0.65531 0.0
H337 H 0.68237 0.34211 0.68401 0.0
H338 H 0.73619 0.40251 0.52759 0.0
H339 H 0.77123 0.36786 0.4992 0.0
H340 H 0.69117 0.41736 0.59715 0.0
H341 H 0.65149 0.36934 0.58498 0.0
H342 H 0.61232 0.38155 0.45891 0.0
H343 H 0.58079 0.41464 0.37295 0.0
C344 C 0.87765 0.33736 0.58667 0.0
C345 C 0.86444 0.32321 0.49148 0.0
C346 C 0.89648 0.35801 0.56126 0.0
C347 C 0.90281 0.365 0.43947 0.0
C348 C 0.88978 0.35065 0.34426 0.0
C349 C 0.87089 0.32994 0.36979 0.0
C350 C 0.92141 0.38812 0.4081 0.0
C351 C 0.93953 0.39944 0.48656 0.0
C352 C 0.9567 0.42364 0.45571 0.0
C353 C 0.98101 0.42838 0.52073 0.0
C354 C 0.99747 0.45104 0.49431 0.0
C355 C 0.98981 0.46962 0.40287 0.0
H356 H 0.92973 0.44051 0.31746 0.0
C357 C 0.96512 0.46524 0.3403 0.0
C358 C 0.94876 0.44266 0.36648 0.0
H359 H 0.95836 0.47924 0.27014 0.0
H360 H 0.87311 0.33285 0.68167 0.0
H361 H 0.9053 0.36886 0.6378 0.0
H362 H 0.89402 0.35567 0.24948 0.0
H363 H 0.86105 0.31954 0.29426 0.0
H364 H 0.92026 0.39579 0.31508 0.0
H365 H 0.94263 0.39036 0.57593 0.0
H366 H 0.98748 0.41432 0.59126 0.0
H367 H 1.01632 0.45381 0.5444 0.0
C368 C 0.83993 0.67252 0.3885 0.0
C369 C 0.837 0.70103 0.38341 0.0
C370 C 0.86413 0.6599 0.3496 0.0
C371 C 0.88605 0.67553 0.30437 0.0
C372 C 0.88257 0.70387 0.29381 0.0
C373 C 0.8583 0.71647 0.33202 0.0
C374 C 0.91365 0.66355 0.28148 0.0
C375 C 0.91832 0.63681 0.26008 0.0
C376 C 0.94615 0.62436 0.25907 0.0
C377 C 0.95033 0.59925 0.19922 0.0
C378 C 0.97523 0.58533 0.20956 0.0
C379 C 0.99638 0.59602 0.28196 0.0
H380 H 0.96532 0.65447 0.37734 0.0
C381 C 0.99254 0.62155 0.33841 0.0
C382 C 0.96779 0.63557 0.32715 0.0
H383 H 1.00836 0.63034 0.39521 0.0
H384 H 0.82398 0.65998 0.42776 0.0
H385 H 0.86603 0.63811 0.36182 0.0
H386 H 0.89907 0.71647 0.25986 0.0
H387 H 0.85683 0.73847 0.32697 0.0
H388 H 0.93087 0.67744 0.28525 0.0
H389 H 0.90118 0.62325 0.24468 0.0
H390 H 0.934 0.59 0.14697 0.0
H391 H 0.97741 0.56562 0.16562 0.0
C392 C 0.47049 0.45488 0.32336 0.0
C393 C 0.49099 0.46271 0.24003 0.0
C394 C 0.45177 0.43446 0.29359 0.0
C395 C 0.45317 0.42101 0.17967 0.0
C396 C 0.47336 0.4292 0.09531 0.0
C397 C 0.49212 0.44977 0.12511 0.0
C398 C 0.43328 0.39934 0.14377 0.0
C399 C 0.41795 0.38503 0.22459 0.0
C400 C 0.39696 0.36437 0.18905 0.0
C401 C 0.38693 0.34623 0.27832 0.0
C402 C 0.36651 0.32722 0.24978 0.0
C403 C 0.35558 0.32598 0.13111 0.0
H404 H 0.39204 0.37717 -0.0004 0.0
C405 C 0.36553 0.34418 0.0421 0.0
C406 C 0.38579 0.36317 0.07058 0.0
H407 H 0.35745 0.34403 0.94986 0.0
H408 H 0.46876 0.46459 0.41232 0.0
H409 H 0.43604 0.42971 0.35987 0.0
H410 H 0.47478 0.4195 0.00616 0.0
H411 H 0.50762 0.45532 0.05876 0.0
H412 H 0.4319 0.39471 0.04677 0.0
H413 H 0.4211 0.38803 0.32203 0.0
H414 H 0.39489 0.3468 0.37078 0.0
H415 H 0.35928 0.31357 0.3206 0.0
C416 C 0.35566 0.67186 0.18949 0.0
C417 C 0.35049 0.69952 0.21456 0.0
C418 C 0.3783 0.6587 0.23982 0.0
C419 C 0.39643 0.67289 0.31686 0.0
C420 C 0.39074 0.7003 0.3452 0.0
C421 C 0.3679 0.71344 0.29549 0.0
C422 C 0.42273 0.66058 0.3578 0.0
C423 C 0.42679 0.63344 0.36741 0.0
C424 C 0.45398 0.62042 0.38674 0.0
C425 C 0.45494 0.59301 0.42343 0.0
C426 C 0.47965 0.57867 0.42486 0.0
C427 C 0.50408 0.59136 0.38832 0.0
H428 H 0.47892 0.65445 0.32533 0.0
C429 C 0.50339 0.61918 0.35755 0.0
C430 C 0.47866 0.63355 0.35647 0.0
H431 H 0.52178 0.6296 0.32858 0.0
H432 H 0.34272 0.66055 0.1272 0.0
H433 H 0.3822 0.63782 0.21275 0.0
H434 H 0.40442 0.71182 0.40342 0.0
H435 H 0.36464 0.73481 0.31605 0.0
H436 H 0.43932 0.67448 0.37842 0.0
H437 H 0.40946 0.61983 0.35793 0.0
H438 H 0.43632 0.58229 0.4469 0.0
H439 H 0.47935 0.55728 0.44906 0.0
C440 C 0.24016 0.69691 0.78778 0.0
C441 C 0.23977 0.7003 0.91581 0.0
C442 C 0.22259 0.67817 0.73056 0.0
C443 C 0.20417 0.66238 0.80041 0.0
C444 C 0.20421 0.66558 0.92827 0.0
C445 C 0.22159 0.6843 0.98505 0.0
C446 C 0.18503 0.64192 0.7456 0.0
C447 C 0.17701 0.64191 0.62731 0.0
C448 C 0.15741 0.6219 0.5723 0.0
C449 C 0.15587 0.62028 0.44404 0.0
C450 C 0.13752 0.60258 0.38677 0.0
C451 C 0.11991 0.58597 0.45596 0.0
H452 H 0.13965 0.60611 0.74113 0.0
C453 C 0.12129 0.58746 0.58451 0.0
C454 C 0.13978 0.60523 0.64219 0.0
H455 H 0.10792 0.5751 0.64066 0.0
H456 H 0.25402 0.70875 0.7317 0.0
H457 H 0.22389 0.67592 0.63215 0.0
H458 H 0.19052 0.65366 0.98494 0.0
H459 H 0.22073 0.68617 0.0839 0.0
H460 H 0.17688 0.62665 0.80728 0.0
H461 H 0.18512 0.65733 0.5662 0.0
H462 H 0.16896 0.63283 0.38728 0.0
H463 H 0.1371 0.60211 0.28757 0.0
C464 C 0.22013 0.33858 0.99083 0.0
C465 C 0.23924 0.3378 0.08662 0.0
C466 C 0.20182 0.36058 0.98084 0.0
C467 C 0.20253 0.38226 0.0661 0.0
C468 C 0.22238 0.38179 0.15831 0.0
C469 C 0.24031 0.35984 0.16904 0.0
C470 C 0.18302 0.40565 0.06524 0.0
C471 C 0.15782 0.40481 0.01584 0.0
C472 C 0.13699 0.42661 0.03757 0.0
C473 C 0.10923 0.41956 0.03499 0.0
C474 C 0.08916 0.43844 0.06937 0.0
C475 C 0.09633 0.46498 0.1064 0.0
H476 H 0.1651 0.46038 0.06493 0.0
C477 C 0.12396 0.47264 0.101 0.0
C478 C 0.14406 0.45373 0.06657 0.0
H479 H 0.1302 0.493 0.12732 0.0
H480 H 0.21893 0.32196 0.92549 0.0
H481 H 0.18727 0.36048 0.90655 0.0
H482 H 0.22366 0.39821 0.2247 0.0
H483 H 0.25496 0.36013 0.24316 0.0
H484 H 0.18876 0.4233 0.11952 0.0
H485 H 0.15109 0.38634 0.97013 0.0
H486 H 0.10308 0.399 0.01147 0.0
H487 H 0.06807 0.43185 0.07124 0.0
loop_
_geom_bond_atom_site_label_1
_geom_bond_atom_site_label_2
_geom_bond_distance
_geom_bond_site_symmetry_2
_ccdc_geom_bond_type
Mg0 O7 2.141 . S
Mg0 O8 2.048 . S
Mg0 O9 2.048 1_545 S
Mg0 O12 2.141 1_545 S
C1 O2 1.313 . S
C1 O8 1.195 . S
O2 C1 1.313 . S
C3 O4 1.245 . S
C3 O12 1.289 1_655 S
O4 C3 1.245 . S
C5 O6 1.245 . S
C5 O7 1.289 1_655 S
O6 C5 1.245 . S
O7 Mg0 2.141 . S
O7 C5 1.289 1_455 S
O8 Mg0 2.048 . S
O8 C1 1.195 . S
O9 Mg0 2.048 1_565 S
O9 C10 1.195 . S
C10 O9 1.195 . S
C10 O11 1.313 . S
O11 C10 1.313 . S
O12 Mg0 2.141 1_565 S
O12 C3 1.289 1_455 S
Mg13 O20 2.141 . S
Mg13 O21 2.048 . S
Mg13 O22 2.048 . S
Mg13 O25 2.141 . S
C14 O15 1.313 . S
C14 O21 1.195 . S
O15 C14 1.313 . S
C16 O17 1.245 . S
C16 O25 1.289 . S
O17 C16 1.245 . S
C18 O19 1.245 . S
C18 O20 1.289 . S
O19 C18 1.245 . S
O20 Mg13 2.141 . S
O20 C18 1.289 . S
O21 Mg13 2.048 . S
O21 C14 1.195 . S
O22 Mg13 2.048 . S
O22 C23 1.195 . S
C23 O22 1.195 . S
C23 O24 1.313 . S
O24 C23 1.313 . S
O25 Mg13 2.141 . S
O25 C16 1.289 . S
Mg26 O33 2.141 . S
Mg26 O34 2.048 . S
Mg26 O35 2.048 1_565 S
Mg26 O38 2.141 1_565 S
C27 O28 1.313 1_554 S
C27 O34 1.195 . S
O28 C27 1.313 1_556 S
C29 O30 1.245 . S
C29 O38 1.289 . S
O30 C29 1.245 . S
C31 O32 1.245 1_554 S
C31 O33 1.289 . S
O32 C31 1.245 1_556 S
O33 Mg26 2.141 . S
O33 C31 1.289 . S
O34 Mg26 2.048 . S
O34 C27 1.195 . S
O35 Mg26 2.048 1_545 S
O35 C36 1.195 . S
C36 O35 1.195 . S
C36 O37 1.313 . S
O37 C36 1.313 . S
O38 Mg26 2.141 1_545 S
O38 C29 1.289 . S
Mg39 O46 2.141 . S
Mg39 O47 2.048 . S
Mg39 O48 2.048 . S
Mg39 O51 2.141 . S
C40 O41 1.313 . S
C40 O47 1.195 . S
O41 C40 1.313 . S
C42 O43 1.245 . S
C42 O51 1.289 . S
O43 C42 1.245 . S
C44 O45 1.245 . S
C44 O46 1.289 . S
O45 C44 1.245 . S
O46 Mg39 2.141 . S
O46 C44 1.289 . S
O47 Mg39 2.048 . S
O47 C40 1.195 . S
O48 Mg39 2.048 . S
O48 C49 1.195 . S
C49 O48 1.195 . S
C49 O50 1.313 . S
O50 C49 1.313 . S
O51 Mg39 2.141 . S
O51 C42 1.289 . S
Mg52 O59 2.141 . S
Mg52 O60 2.048 . S
Mg52 O61 2.048 . S
Mg52 O64 2.141 . S
C53 O54 1.313 . S
C53 O60 1.195 . S
O54 C53 1.313 . S
C55 O56 1.245 . S
C55 O64 1.289 . S
O56 C55 1.245 . S
C57 O58 1.245 . S
C57 O59 1.289 . S
O58 C57 1.245 . S
O59 Mg52 2.141 . S
O59 C57 1.289 . S
O60 Mg52 2.048 . S
O60 C53 1.195 . S
O61 Mg52 2.048 . S
O61 C62 1.195 . S
C62 O61 1.195 . S
C62 O63 1.313 . S
O63 C62 1.313 . S
O64 Mg52 2.141 . S
O64 C55 1.289 . S
Mg65 O72 2.141 . S
Mg65 O73 2.048 . S
Mg65 O74 2.048 . S
Mg65 O77 2.141 . S
C66 O67 1.313 . S
C66 O73 1.195 . S
O67 C66 1.313 . S
C68 O69 1.245 . S
C68 O77 1.289 . S
O69 C68 1.245 . S
C70 O71 1.245 . S
C70 O72 1.289 . S
O71 C70 1.245 . S
O72 Mg65 2.141 . S
O72 C70 1.289 . S
O73 Mg65 2.048 . S
O73 C66 1.195 . S
O74 Mg65 2.048 . S
O74 C75 1.195 . S
C75 O74 1.195 . S
C75 O76 1.313 . S
O76 C75 1.313 . S
O77 Mg65 2.141 . S
O77 C68 1.289 . S
Mg78 O85 2.141 . S
Mg78 O86 2.048 . S
Mg78 O87 2.048 . S
Mg78 O90 2.141 . S
C79 O80 1.313 1_554 S
C79 O86 1.195 . S
O80 C79 1.313 1_556 S
C81 O82 1.245 . S
C81 O90 1.289 1_556 S
O82 C81 1.245 . S
C83 O84 1.245 1_554 S
C83 O85 1.289 . S
O84 C83 1.245 1_556 S
O85 Mg78 2.141 . S
O85 C83 1.289 . S
O86 Mg78 2.048 . S
O86 C79 1.195 . S
O87 Mg78 2.048 . S
O87 C88 1.195 1_554 S
C88 O87 1.195 1_556 S
C88 O89 1.313 . S
O89 C88 1.313 . S
O90 Mg78 2.141 . S
O90 C81 1.289 1_554 S
Mg91 O98 2.141 . S
Mg91 O99 2.048 . S
Mg91 O100 2.048 . S
Mg91 O103 2.141 . S
C92 O93 1.313 . S
C92 O99 1.195 1_655 S
O93 C92 1.313 . S
C94 O95 1.245 . S
C94 O103 1.289 . S
O95 C94 1.245 . S
C96 O97 1.245 . S
C96 O98 1.289 . S
O97 C96 1.245 . S
O98 Mg91 2.141 . S
O98 C96 1.289 . S
O99 Mg91 2.048 . S
O99 C92 1.195 1_455 S
O100 Mg91 2.048 . S
O100 C101 1.195 1_455 S
C101 O100 1.195 1_655 S
C101 O102 1.313 . S
O102 C101 1.313 . S
O103 Mg91 2.141 . S
O103 C94 1.289 . S
C104 C105 1.386 . S
C104 C106 1.383 . S
C104 H120 0.951 . S
C105 C104 1.386 . S
C105 C109 1.383 . S
C106 C104 1.383 . S
C106 C107 1.402 . S
C106 H121 0.951 . S
C107 C106 1.402 . S
C107 C108 1.375 . S
C107 C110 1.481 . S
C108 C107 1.375 . S
C108 C109 1.367 . S
C108 H122 0.951 . S
C109 C105 1.383 . S
C109 C108 1.367 . S
C109 H123 0.950 . S
C110 C107 1.481 . S
C110 C111 1.297 . S
C110 H124 0.950 . S
C111 C110 1.297 . S
C111 C112 1.479 . S
C111 H125 0.950 . S
C112 C111 1.479 . S
C112 C113 1.375 . S
C112 C118 1.404 . S
C113 C112 1.375 . S
C113 C114 1.369 . S
C113 H126 0.950 . S
C114 C113 1.369 . S
C114 C115 1.392 . S
C114 H127 0.951 . S
C115 C114 1.392 . S
C115 C117 1.384 . S
H116 C118 0.949 . S
C117 C115 1.384 . S
C117 C118 1.385 . S
C117 H119 0.950 . S
C118 C112 1.404 . S
C118 H116 0.949 . S
C118 C117 1.385 . S
H119 C117 0.950 . S
H120 C104 0.951 . S
H121 C106 0.951 . S
H122 C108 0.951 . S
H123 C109 0.950 . S
H124 C110 0.950 . S
H125 C111 0.950 . S
H126 C113 0.950 . S
H127 C114 0.951 . S
C128 C129 1.386 . S
C128 C130 1.383 . S
C128 H144 0.951 . S
C129 C128 1.386 . S
C129 C133 1.383 . S
C130 C128 1.383 . S
C130 C131 1.402 . S
C130 H145 0.951 . S
C131 C130 1.402 . S
C131 C132 1.375 . S
C131 C134 1.481 . S
C132 C131 1.375 . S
C132 C133 1.367 . S
C132 H146 0.951 . S
C133 C129 1.383 . S
C133 C132 1.367 . S
C133 H147 0.950 . S
C134 C131 1.481 . S
C134 C135 1.297 . S
C134 H148 0.950 . S
C135 C134 1.297 . S
C135 C136 1.479 . S
C135 H149 0.950 . S
C136 C135 1.479 . S
C136 C137 1.375 . S
C136 C142 1.404 . S
C137 C136 1.375 . S
C137 C138 1.369 . S
C137 H150 0.950 . S
C138 C137 1.369 . S
C138 C139 1.392 . S
C138 H151 0.951 . S
C139 C138 1.392 . S
C139 C141 1.384 . S
H140 C142 0.949 . S
C141 C139 1.384 . S
C141 C142 1.385 . S
C141 H143 0.950 . S
C142 C136 1.404 . S
C142 H140 0.949 . S
C142 C141 1.385 . S
H143 C141 0.950 . S
H144 C128 0.951 . S
H145 C130 0.951 . S
H146 C132 0.951 . S
H147 C133 0.950 . S
H148 C134 0.950 . S
H149 C135 0.950 . S
H150 C137 0.950 . S
H151 C138 0.951 . S
C152 C153 1.386 . S
C152 C154 1.383 . S
C152 H168 0.951 . S
C153 C152 1.386 . S
C153 C157 1.383 1_554 S
C154 C152 1.383 . S
C154 C155 1.402 1_554 S
C154 H169 0.951 . S
C155 C154 1.402 1_556 S
C155 C156 1.375 . S
C155 C158 1.481 . S
C156 C155 1.375 . S
C156 C157 1.367 . S
C156 H170 0.951 . S
C157 C153 1.383 1_556 S
C157 C156 1.367 . S
C157 H171 0.950 . S
C158 C155 1.481 . S
C158 C159 1.297 . S
C158 H172 0.950 . S
C159 C158 1.297 . S
C159 C160 1.479 . S
C159 H173 0.950 1_556 S
C160 C159 1.479 . S
C160 C161 1.375 1_556 S
C160 C166 1.404 . S
C161 C160 1.375 1_554 S
C161 C162 1.369 1_554 S
C161 H174 0.950 . S
C162 C161 1.369 1_556 S
C162 C163 1.392 . S
C162 H175 0.951 1_556 S
C163 C162 1.392 . S
C163 C165 1.384 . S
H164 C166 0.949 . S
C165 C163 1.384 . S
C165 C166 1.385 . S
C165 H167 0.950 . S
C166 C160 1.404 . S
C166 H164 0.949 . S
C166 C165 1.385 . S
H167 C165 0.950 . S
H168 C152 0.951 . S
H169 C154 0.951 . S
H170 C156 0.951 . S
H171 C157 0.950 . S
H172 C158 0.950 . S
H173 C159 0.950 1_554 S
H174 C161 0.950 . S
H175 C162 0.951 1_554 S
C176 C177 1.386 . S
C176 C178 1.383 . S
C176 H192 0.951 . S
C177 C176 1.386 . S
C177 C181 1.383 . S
C178 C176 1.383 . S
C178 C179 1.402 . S
C178 H193 0.951 . S
C179 C178 1.402 . S
C179 C180 1.375 . S
C179 C182 1.481 . S
C180 C179 1.375 . S
C180 C181 1.367 . S
C180 H194 0.951 . S
C181 C177 1.383 . S
C181 C180 1.367 . S
C181 H195 0.950 . S
C182 C179 1.481 . S
C182 C183 1.297 . S
C182 H196 0.950 . S
C183 C182 1.297 . S
C183 C184 1.479 . S
C183 H197 0.950 . S
C184 C183 1.479 . S
C184 C185 1.375 . S
C184 C190 1.404 . S
C185 C184 1.375 . S
C185 C186 1.369 . S
C185 H198 0.950 . S
C186 C185 1.369 . S
C186 C187 1.392 . S
C186 H199 0.951 . S
C187 C186 1.392 . S
C187 C189 1.384 . S
H188 C190 0.949 . S
C189 C187 1.384 . S
C189 C190 1.385 . S
C189 H191 0.950 . S
C190 C184 1.404 . S
C190 H188 0.949 . S
C190 C189 1.385 . S
H191 C189 0.950 . S
H192 C176 0.951 . S
H193 C178 0.951 . S
H194 C180 0.951 . S
H195 C181 0.950 . S
H196 C182 0.950 . S
H197 C183 0.950 . S
H198 C185 0.950 . S
H199 C186 0.951 . S
C200 C201 1.386 . S
C200 C202 1.383 . S
C200 H216 0.951 . S
C201 C200 1.386 . S
C201 C205 1.383 . S
C202 C200 1.383 . S
C202 C203 1.402 . S
C202 H217 0.951 . S
C203 C202 1.402 . S
C203 C204 1.375 . S
C203 C206 1.481 . S
C204 C203 1.375 . S
C204 C205 1.367 . S
C204 H218 0.951 . S
C205 C201 1.383 . S
C205 C204 1.367 . S
C205 H219 0.950 . S
C206 C203 1.481 . S
C206 C207 1.297 . S
C206 H220 0.950 . S
C207 C206 1.297 . S
C207 C208 1.479 . S
C207 H221 0.950 . S
C208 C207 1.479 . S
C208 C209 1.375 . S
C208 C214 1.404 . S
C209 C208 1.375 . S
C209 C210 1.369 . S
C209 H222 0.950 . S
C210 C209 1.369 . S
C210 C211 1.392 . S
C210 H223 0.951 . S
C211 C210 1.392 . S
C211 C213 1.384 . S
H212 C214 0.949 . S
C213 C211 1.384 . S
C213 C214 1.385 . S
C213 H215 0.950 . S
C214 C208 1.404 . S
C214 H212 0.949 . S
C214 C213 1.385 . S
H215 C213 0.950 . S
H216 C200 0.951 . S
H217 C202 0.951 . S
H218 C204 0.951 . S
H219 C205 0.950 . S
H220 C206 0.950 . S
H221 C207 0.950 . S
H222 C209 0.950 . S
H223 C210 0.951 . S
C224 C225 1.386 . S
C224 C226 1.383 . S
C224 H240 0.951 . S
C225 C224 1.386 . S
C225 C229 1.383 . S
C226 C224 1.383 . S
C226 C227 1.402 . S
C226 H241 0.951 . S
C227 C226 1.402 . S
C227 C228 1.375 . S
C227 C230 1.481 . S
C228 C227 1.375 . S
C228 C229 1.367 . S
C228 H242 0.951 . S
C229 C225 1.383 . S
C229 C228 1.367 . S
C229 H243 0.950 . S
C230 C227 1.481 . S
C230 C231 1.297 . S
C230 H244 0.950 . S
C231 C230 1.297 . S
C231 C232 1.479 . S
C231 H245 0.950 . S
C232 C231 1.479 . S
C232 C233 1.375 . S
C232 C238 1.404 . S
C233 C232 1.375 . S
C233 C234 1.369 . S
C233 H246 0.950 . S
C234 C233 1.369 . S
C234 C235 1.392 . S
C234 H247 0.951 . S
C235 C234 1.392 . S
C235 C237 1.384 . S
H236 C238 0.949 . S
C237 C235 1.384 . S
C237 C238 1.385 . S
C237 H239 0.950 . S
C238 C232 1.404 . S
C238 H236 0.949 . S
C238 C237 1.385 . S
H239 C237 0.950 . S
H240 C224 0.951 . S
H241 C226 0.951 . S
H242 C228 0.951 . S
H243 C229 0.950 . S
H244 C230 0.950 . S
H245 C231 0.950 . S
H246 C233 0.950 . S
H247 C234 0.951 . S
C248 C249 1.386 . S
C248 C250 1.383 . S
C248 H264 0.951 . S
C249 C248 1.386 . S
C249 C253 1.383 . S
C250 C248 1.383 . S
C250 C251 1.402 . S
C250 H265 0.951 . S
C251 C250 1.402 . S
C251 C252 1.375 . S
C251 C254 1.481 . S
C252 C251 1.375 . S
C252 C253 1.367 . S
C252 H266 0.951 . S
C253 C249 1.383 . S
C253 C252 1.367 . S
C253 H267 0.950 . S
C254 C251 1.481 . S
C254 C255 1.297 . S
C254 H268 0.950 . S
C255 C254 1.297 . S
C255 C256 1.479 . S
C255 H269 0.950 . S
C256 C255 1.479 . S
C256 C257 1.375 . S
C256 C262 1.404 . S
C257 C256 1.375 . S
C257 C258 1.369 . S
C257 H270 0.950 . S
C258 C257 1.369 . S
C258 C259 1.392 . S
C258 H271 0.951 . S
C259 C258 1.392 . S
C259 C261 1.384 . S
H260 C262 0.949 . S
C261 C259 1.384 . S
C261 C262 1.385 . S
C261 H263 0.950 . S
C262 C256 1.404 . S
C262 H260 0.949 . S
C262 C261 1.385 . S
H263 C261 0.950 . S
H264 C248 0.951 . S
H265 C250 0.951 . S
H266 C252 0.951 . S
H267 C253 0.950 . S
H268 C254 0.950 . S
H269 C255 0.950 . S
H270 C257 0.950 . S
H271 C258 0.951 . S
C272 C273 1.386 . S
C272 C274 1.383 . S
C272 H288 0.951 . S
C273 C272 1.386 . S
C273 C277 1.383 1_554 S
C274 C272 1.383 . S
C274 C275 1.402 1_554 S
C274 H289 0.951 . S
C275 C274 1.402 1_556 S
C275 C276 1.375 . S
C275 C278 1.481 . S
C276 C275 1.375 . S
C276 C277 1.367 . S
C276 H290 0.951 . S
C277 C273 1.383 1_556 S
C277 C276 1.367 . S
C277 H291 0.950 . S
C278 C275 1.481 . S
C278 C279 1.297 . S
C278 H292 0.950 . S
C279 C278 1.297 . S
C279 C280 1.479 . S
C279 H293 0.950 1_556 S
C280 C279 1.479 . S
C280 C281 1.375 1_556 S
C280 C286 1.404 . S
C281 C280 1.375 1_554 S
C281 C282 1.369 1_554 S
C281 H294 0.950 . S
C282 C281 1.369 1_556 S
C282 C283 1.392 . S
C282 H295 0.951 1_556 S
C283 C282 1.392 . S
C283 C285 1.384 . S
H284 C286 0.949 . S
C285 C283 1.384 . S
C285 C286 1.385 . S
C285 H287 0.950 . S
C286 C280 1.404 . S
C286 H284 0.949 . S
C286 C285 1.385 . S
H287 C285 0.950 . S
H288 C272 0.951 . S
H289 C274 0.951 . S
H290 C276 0.951 . S
H291 C277 0.950 . S
H292 C278 0.950 . S
H293 C279 0.950 1_554 S
H294 C281 0.950 . S
H295 C282 0.951 1_554 S
C296 C297 1.387 . S
C296 C298 1.383 . S
C296 H312 0.949 1_556 S
C297 C296 1.387 . S
C297 C301 1.383 . S
C298 C296 1.383 . S
C298 C299 1.402 . S
C298 H313 0.951 1_556 S
C299 C298 1.402 . S
C299 C300 1.375 . S
C299 C302 1.481 . S
C300 C299 1.375 . S
C300 C301 1.367 . S
C300 H314 0.951 . S
C301 C297 1.383 . S
C301 C300 1.367 . S
C301 H315 0.950 . S
C302 C299 1.481 . S
C302 C303 1.297 . S
C302 H316 0.950 . S
C303 C302 1.297 . S
C303 C304 1.479 . S
C303 H317 0.950 . S
C304 C303 1.479 . S
C304 C305 1.375 . S
C304 C310 1.404 . S
C305 C304 1.375 . S
C305 C306 1.369 . S
C305 H318 0.950 . S
C306 C305 1.369 . S
C306 C307 1.392 . S
C306 H319 0.951 . S
C307 C306 1.392 . S
C307 C309 1.384 . S
H308 C310 0.949 . S
C309 C307 1.384 . S
C309 C310 1.385 . S
C309 H311 0.950 . S
C310 C304 1.404 . S
C310 H308 0.949 . S
C310 C309 1.385 . S
H311 C309 0.950 . S
H312 C296 0.949 1_554 S
H313 C298 0.951 1_554 S
H314 C300 0.951 . S
H315 C301 0.950 . S
H316 C302 0.950 . S
H317 C303 0.950 . S
H318 C305 0.950 . S
H319 C306 0.951 . S
C320 C321 1.386 . S
C320 C322 1.383 . S
C320 H336 0.951 . S
C321 C320 1.386 . S
C321 C325 1.383 . S
C322 C320 1.383 . S
C322 C323 1.402 . S
C322 H337 0.951 . S
C323 C322 1.402 . S
C323 C324 1.375 . S
C323 C326 1.481 . S
C324 C323 1.375 . S
C324 C325 1.367 . S
C324 H338 0.951 . S
C325 C321 1.383 . S
C325 C324 1.367 . S
C325 H339 0.950 . S
C326 C323 1.481 . S
C326 C327 1.297 . S
C326 H340 0.950 . S
C327 C326 1.297 . S
C327 C328 1.479 . S
C327 H341 0.950 . S
C328 C327 1.479 . S
C328 C329 1.375 . S
C328 C334 1.404 . S
C329 C328 1.375 . S
C329 C330 1.369 . S
C329 H342 0.950 . S
C330 C329 1.369 . S
C330 C331 1.392 . S
C330 H343 0.951 1_554 S
C331 C330 1.392 . S
C331 C333 1.384 . S
H332 C334 0.949 . S
C333 C331 1.384 . S
C333 C334 1.385 . S
C333 H335 0.950 . S
C334 C328 1.404 . S
C334 H332 0.949 . S
C334 C333 1.385 . S
H335 C333 0.950 . S
H336 C320 0.951 . S
H337 C322 0.951 . S
H338 C324 0.951 . S
H339 C325 0.950 . S
H340 C326 0.950 . S
H341 C327 0.950 . S
H342 C329 0.950 . S
H343 C330 0.951 1_556 S
C344 C345 1.386 . S
C344 C346 1.383 . S
C344 H360 0.951 . S
C345 C344 1.386 . S
C345 C349 1.383 . S
C346 C344 1.383 . S
C346 C347 1.402 . S
C346 H361 0.951 . S
C347 C346 1.402 . S
C347 C348 1.375 . S
C347 C350 1.481 . S
C348 C347 1.375 . S
C348 C349 1.367 . S
C348 H362 0.951 . S
C349 C345 1.383 . S
C349 C348 1.367 . S
C349 H363 0.950 . S
C350 C347 1.481 . S
C350 C351 1.297 . S
C350 H364 0.950 . S
C351 C350 1.297 . S
C351 C352 1.479 . S
C351 H365 0.950 . S
C352 C351 1.479 . S
C352 C353 1.375 . S
C352 C358 1.404 . S
C353 C352 1.375 . S
C353 C354 1.369 . S
C353 H366 0.950 . S
C354 C353 1.369 . S
C354 C355 1.392 . S
C354 H367 0.951 . S
C355 C354 1.392 . S
C355 C357 1.384 . S
H356 C358 0.949 . S
C357 C355 1.384 . S
C357 C358 1.385 . S
C357 H359 0.950 . S
C358 C352 1.404 . S
C358 H356 0.949 . S
C358 C357 1.385 . S
H359 C357 0.950 . S
H360 C344 0.951 . S
H361 C346 0.951 . S
H362 C348 0.951 . S
H363 C349 0.950 . S
H364 C350 0.950 . S
H365 C351 0.950 . S
H366 C353 0.950 . S
H367 C354 0.951 . S
C368 C369 1.386 . S
C368 C370 1.383 . S
C368 H384 0.951 . S
C369 C368 1.386 . S
C369 C373 1.383 . S
C370 C368 1.383 . S
C370 C371 1.402 . S
C370 H385 0.951 . S
C371 C370 1.402 . S
C371 C372 1.375 . S
C371 C374 1.481 . S
C372 C371 1.375 . S
C372 C373 1.367 . S
C372 H386 0.951 . S
C373 C369 1.383 . S
C373 C372 1.367 . S
C373 H387 0.950 . S
C374 C371 1.481 . S
C374 C375 1.297 . S
C374 H388 0.950 . S
C375 C374 1.297 . S
C375 C376 1.479 . S
C375 H389 0.950 . S
C376 C375 1.479 . S
C376 C377 1.375 . S
C376 C382 1.404 . S
C377 C376 1.375 . S
C377 C378 1.369 . S
C377 H390 0.950 . S
C378 C377 1.369 . S
C378 C379 1.392 . S
C378 H391 0.951 . S
C379 C378 1.392 . S
C379 C381 1.384 . S
H380 C382 0.949 . S
C381 C379 1.384 . S
C381 C382 1.385 . S
C381 H383 0.950 . S
C382 C376 1.404 . S
C382 H380 0.949 . S
C382 C381 1.385 . S
H383 C381 0.950 . S
H384 C368 0.951 . S
H385 C370 0.951 . S
H386 C372 0.951 . S
H387 C373 0.950 . S
H388 C374 0.950 . S
H389 C375 0.950 . S
H390 C377 0.950 . S
H391 C378 0.951 . S
C392 C393 1.386 1_556 S
C392 C394 1.383 . S
C392 H408 0.951 . S
C393 C392 1.386 1_554 S
C393 C397 1.383 . S
C394 C392 1.383 . S
C394 C395 1.402 1_556 S
C394 H409 0.951 . S
C395 C394 1.402 1_554 S
C395 C396 1.375 . S
C395 C398 1.481 . S
C396 C395 1.375 . S
C396 C397 1.367 . S
C396 H410 0.951 . S
C397 C393 1.383 . S
C397 C396 1.367 . S
C397 H411 0.950 . S
C398 C395 1.481 . S
C398 C399 1.297 . S
C398 H412 0.950 . S
C399 C398 1.297 . S
C399 C400 1.479 . S
C399 H413 0.950 1_554 S
C400 C399 1.479 . S
C400 C401 1.375 . S
C400 C406 1.404 . S
C401 C400 1.375 . S
C401 C402 1.369 . S
C401 H414 0.950 1_554 S
C402 C401 1.369 . S
C402 C403 1.392 . S
C402 H415 0.951 1_554 S
C403 C402 1.392 . S
C403 C405 1.384 . S
H404 C406 0.949 . S
C405 C403 1.384 . S
C405 C406 1.385 . S
C405 H407 0.950 . S
C406 C400 1.404 . S
C406 H404 0.949 . S
C406 C405 1.385 . S
H407 C405 0.950 . S
H408 C392 0.951 . S
H409 C394 0.951 . S
H410 C396 0.951 . S
H411 C397 0.950 . S
H412 C398 0.950 . S
H413 C399 0.950 1_556 S
H414 C401 0.950 1_556 S
H415 C402 0.951 1_556 S
C416 C417 1.386 . S
C416 C418 1.383 . S
C416 H432 0.951 . S
C417 C416 1.386 . S
C417 C421 1.383 . S
C418 C416 1.383 . S
C418 C419 1.402 . S
C418 H433 0.951 . S
C419 C418 1.402 . S
C419 C420 1.375 . S
C419 C422 1.481 . S
C420 C419 1.375 . S
C420 C421 1.367 . S
C420 H434 0.951 . S
C421 C417 1.383 . S
C421 C420 1.367 . S
C421 H435 0.950 . S
C422 C419 1.481 . S
C422 C423 1.297 . S
C422 H436 0.950 . S
C423 C422 1.297 . S
C423 C424 1.479 . S
C423 H437 0.950 . S
C424 C423 1.479 . S
C424 C425 1.375 . S
C424 C430 1.404 . S
C425 C424 1.375 . S
C425 C426 1.369 . S
C425 H438 0.950 . S
C426 C425 1.369 . S
C426 C427 1.392 . S
C426 H439 0.951 . S
C427 C426 1.392 . S
C427 C429 1.384 . S
H428 C430 0.949 . S
C429 C427 1.384 . S
C429 C430 1.385 . S
C429 H431 0.950 . S
C430 C424 1.404 . S
C430 H428 0.949 . S
C430 C429 1.385 . S
H431 C429 0.950 . S
H432 C416 0.951 . S
H433 C418 0.951 . S
H434 C420 0.951 . S
H435 C421 0.950 . S
H436 C422 0.950 . S
H437 C423 0.950 . S
H438 C425 0.950 . S
H439 C426 0.951 . S
C440 C441 1.386 . S
C440 C442 1.383 . S
C440 H456 0.951 . S
C441 C440 1.386 . S
C441 C445 1.383 . S
C442 C440 1.383 . S
C442 C443 1.402 . S
C442 H457 0.951 . S
C443 C442 1.402 . S
C443 C444 1.375 . S
C443 C446 1.481 . S
C444 C443 1.375 . S
C444 C445 1.367 . S
C444 H458 0.951 . S
C445 C441 1.383 . S
C445 C444 1.367 . S
C445 H459 0.950 . S
C446 C443 1.481 . S
C446 C447 1.297 . S
C446 H460 0.950 . S
C447 C446 1.297 . S
C447 C448 1.479 . S
C447 H461 0.950 . S
C448 C447 1.479 . S
C448 C449 1.375 . S
C448 C454 1.404 . S
C449 C448 1.375 . S
C449 C450 1.369 . S
C449 H462 0.950 . S
C450 C449 1.369 . S
C450 C451 1.392 . S
C450 H463 0.951 . S
C451 C450 1.392 . S
C451 C453 1.384 . S
H452 C454 0.949 . S
C453 C451 1.384 . S
C453 C454 1.385 . S
C453 H455 0.950 . S
C454 C448 1.404 . S
C454 H452 0.949 . S
C454 C453 1.385 . S
H455 C453 0.950 . S
H456 C440 0.951 . S
H457 C442 0.951 . S
H458 C444 0.951 . S
H459 C445 0.950 . S
H460 C446 0.950 . S
H461 C447 0.950 . S
H462 C449 0.950 . S
H463 C450 0.951 . S
C464 C465 1.386 . S
C464 C466 1.383 . S
C464 H480 0.951 . S
C465 C464 1.386 . S
C465 C469 1.383 . S
C466 C464 1.383 . S
C466 C467 1.402 . S
C466 H481 0.951 . S
C467 C466 1.402 . S
C467 C468 1.375 . S
C467 C470 1.481 . S
C468 C467 1.375 . S
C468 C469 1.367 . S
C468 H482 0.951 . S
C469 C465 1.383 . S
C469 C468 1.367 . S
C469 H483 0.950 . S
C470 C467 1.481 . S
C470 C471 1.297 . S
C470 H484 0.950 . S
C471 C470 1.297 . S
C471 C472 1.479 . S
C471 H485 0.950 . S
C472 C471 1.479 . S
C472 C473 1.375 . S
C472 C478 1.404 . S
C473 C472 1.375 . S
C473 C474 1.369 . S
C473 H486 0.950 . S
C474 C473 1.369 . S
C474 C475 1.392 . S
C474 H487 0.951 . S
C475 C474 1.392 . S
C475 C477 1.384 . S
H476 C478 0.949 . S
C477 C475 1.384 . S
C477 C478 1.385 . S
C477 H479 0.950 . S
C478 C472 1.404 . S
C478 H476 0.949 . S
C478 C477 1.385 . S
H479 C477 0.950 . S
H480 C464 0.951 . S
H481 C466 0.951 . S
H482 C468 0.951 . S
H483 C469 0.950 . S
H484 C470 0.950 . S
H485 C471 0.950 . S
H486 C473 0.950 . S
H487 C474 0.951 . S
C105 C1 1.574 . S
C115 C40 1.539 . S
C129 C10 1.476 . S
C139 C18 1.455 . S
C153 C27 1.450 . S
C163 C16 1.454 . S
C177 C49 1.559 . S
C187 C36 1.510 . S
C201 C3 1.507 . S
C211 C66 1.479 . S
C225 C5 1.442 . S
C235 C57 1.433 . S
C249 C55 1.477 . S
C259 C29 1.436 . S
C273 C31 1.502 . S
C283 C75 1.531 . S
C297 C81 1.406 . S
C307 C68 1.417 . S
C321 C62 1.517 . S
C331 C83 1.520 . S
C345 C53 1.561 . S
C355 C92 1.557 . S
C369 C70 1.467 . S
C379 C101 1.439 . S
C393 C79 1.509 . S
C403 C42 1.507 . S
C417 C23 1.580 . S
C427 C88 1.558 . S
C441 C14 1.523 . S
C451 C94 1.512 . S
C465 C44 1.435 . S
C475 C96 1.465 . S
