# Generated by pormake.
# Topology und, (4)-cn, num edge types: 1
# Building blocks:
#     Node 0, Type 0, BuildingBlock: ICAMEG_clean_sbu_1, # of connection points: 4
#     Node 1, Type 0, BuildingBlock: ICAMEG_clean_sbu_1, # of connection points: 4
#     Node 2, Type 0, BuildingBlock: ICAMEG_clean_sbu_1, # of connection points: 4
#     Node 3, Type 0, BuildingBlock: ICAMEG_clean_sbu_1, # of connection points: 4
#     Node 4, Type 0, BuildingBlock: ICAMEG_clean_sbu_1, # of connection points: 4
#     Node 5, Type 0, BuildingBlock: ICAMEG_clean_sbu_1, # of connection points: 4
#     Node 6, Type 0, BuildingBlock: ICAMEG_clean_sbu_1, # of connection points: 4
#     Node 7, Type 0, BuildingBlock: ICAMEG_clean_sbu_1, # of connection points: 4
#     Node 8, Type 0, BuildingBlock: ICAMEG_clean_sbu_1, # of connection points: 4
#     Node 9, Type 0, BuildingBlock: ICAMEG_clean_sbu_1, # of connection points: 4
#     Node 10, Type 0, BuildingBlock: ICAMEG_clean_sbu_1, # of connection points: 4
#     Node 11, Type 0, BuildingBlock: ICAMEG_clean_sbu_1, # of connection points: 4
#     Node 12, Type 0, BuildingBlock: ICAMEG_clean_sbu_1, # of connection points: 4
#     Node 13, Type 0, BuildingBlock: ICAMEG_clean_sbu_1, # of connection points: 4
#     Node 14, Type 0, BuildingBlock: ICAMEG_clean_sbu_1, # of connection points: 4
#     Node 15, Type 0, BuildingBlock: ICAMEG_clean_sbu_1, # of connection points: 4
#     Edge 16, Type (0, 0), BuildingBlock: KIFKEQ_clean_linker_1, # of connection points: 2
#     Edge 17, Type (0, 0), BuildingBlock: KIFKEQ_clean_linker_1, # of connection points: 2
#     Edge 18, Type (0, 0), BuildingBlock: KIFKEQ_clean_linker_1, # of connection points: 2
#     Edge 19, Type (0, 0), BuildingBlock: KIFKEQ_clean_linker_1, # of connection points: 2
#     Edge 20, Type (0, 0), BuildingBlock: KIFKEQ_clean_linker_1, # of connection points: 2
#     Edge 21, Type (0, 0), BuildingBlock: KIFKEQ_clean_linker_1, # of connection points: 2
#     Edge 22, Type (0, 0), BuildingBlock: KIFKEQ_clean_linker_1, # of connection points: 2
#     Edge 23, Type (0, 0), BuildingBlock: KIFKEQ_clean_linker_1, # of connection points: 2
#     Edge 24, Type (0, 0), BuildingBlock: KIFKEQ_clean_linker_1, # of connection points: 2
#     Edge 25, Type (0, 0), BuildingBlock: KIFKEQ_clean_linker_1, # of connection points: 2
#     Edge 26, Type (0, 0), BuildingBlock: KIFKEQ_clean_linker_1, # of connection points: 2
#     Edge 27, Type (0, 0), BuildingBlock: KIFKEQ_clean_linker_1, # of connection points: 2
#     Edge 28, Type (0, 0), BuildingBlock: KIFKEQ_clean_linker_1, # of connection points: 2
#     Edge 29, Type (0, 0), BuildingBlock: KIFKEQ_clean_linker_1, # of connection points: 2
#     Edge 30, Type (0, 0), BuildingBlock: KIFKEQ_clean_linker_1, # of connection points: 2
#     Edge 31, Type (0, 0), BuildingBlock: KIFKEQ_clean_linker_1, # of connection points: 2
#     Edge 32, Type (0, 0), BuildingBlock: KIFKEQ_clean_linker_1, # of connection points: 2
#     Edge 33, Type (0, 0), BuildingBlock: KIFKEQ_clean_linker_1, # of connection points: 2
#     Edge 34, Type (0, 0), BuildingBlock: KIFKEQ_clean_linker_1, # of connection points: 2
#     Edge 35, Type (0, 0), BuildingBlock: KIFKEQ_clean_linker_1, # of connection points: 2
#     Edge 36, Type (0, 0), BuildingBlock: KIFKEQ_clean_linker_1, # of connection points: 2
#     Edge 37, Type (0, 0), BuildingBlock: KIFKEQ_clean_linker_1, # of connection points: 2
#     Edge 38, Type (0, 0), BuildingBlock: KIFKEQ_clean_linker_1, # of connection points: 2
#     Edge 39, Type (0, 0), BuildingBlock: KIFKEQ_clean_linker_1, # of connection points: 2
#     Edge 40, Type (0, 0), BuildingBlock: KIFKEQ_clean_linker_1, # of connection points: 2
#     Edge 41, Type (0, 0), BuildingBlock: KIFKEQ_clean_linker_1, # of connection points: 2
#     Edge 42, Type (0, 0), BuildingBlock: KIFKEQ_clean_linker_1, # of connection points: 2
#     Edge 43, Type (0, 0), BuildingBlock: KIFKEQ_clean_linker_1, # of connection points: 2
#     Edge 44, Type (0, 0), BuildingBlock: KIFKEQ_clean_linker_1, # of connection points: 2
#     Edge 45, Type (0, 0), BuildingBlock: KIFKEQ_clean_linker_1, # of connection points: 2
#     Edge 46, Type (0, 0), BuildingBlock: KIFKEQ_clean_linker_1, # of connection points: 2
#     Edge 47, Type (0, 0), BuildingBlock: KIFKEQ_clean_linker_1, # of connection points: 2
# Relax obj value: 0.023
# Max RMSD: 0.081
# Mean RMSD: 0.081
data_MOF--net-und--node1-ICAMEG_clean_sbu_1--edge1-KIFKEQ_clean_linker_1
_symmetry_space_group_name_H-M    P1
_symmetry_Int_Tables_number       1
_symmetry_cell_setting            triclinic
loop_
_symmetry_equiv_pos_as_xyz
'x, y, z'
_cell_length_a     66.306694
_cell_length_b     66.249537
_cell_length_c     22.592434
_cell_angle_alpha  89.934854
_cell_angle_beta   90.00264
_cell_angle_gamma 90.142349
loop_
_atom_site_label
_atom_site_type_symbol
_atom_site_fract_x
_atom_site_fract_y
_atom_site_fract_z
_atom_type_partial_charge
Co0 Co 0.28074 0.33619 0.01283 0.0
Co1 Co 0.22995 0.33633 0.99974 0.0
O2 O 0.25543 0.35125 0.00664 0.0
C3 C 0.29103 0.37091 0.93203 0.0
O4 O 0.27339 0.36952 0.90594 0.0
C5 C 0.21976 0.36907 0.08625 0.0
O6 O 0.23564 0.36454 0.11829 0.0
O7 O 0.23569 0.32284 0.07707 0.0
O8 O 0.26708 0.31322 0.05497 0.0
H9 H 0.18606 0.27451 0.01148 0.0
H10 H 0.27857 0.37809 0.05774 0.0
O11 O 0.29581 0.35868 0.97313 0.0
H12 H 0.29976 0.33704 0.22887 0.0
H13 H 0.35538 0.32801 0.04705 0.0
H14 H 0.29212 0.29354 0.99204 0.0
H15 H 0.2939 0.32119 0.13171 0.0
H16 H 0.32339 0.34683 0.04256 0.0
O17 O 0.21551 0.35888 0.04024 0.0
H18 H 0.218 0.29357 0.01693 0.0
H19 H 0.18737 0.34777 0.97269 0.0
H20 H 0.32374 0.27409 0.99657 0.0
H21 H 0.28449 0.3946 0.15401 0.0
H22 H 0.35568 0.29134 0.02421 0.0
H23 H 0.29511 0.37402 0.24047 0.0
O24 O 0.27479 0.32344 0.93484 0.0
H25 H 0.22588 0.39577 0.86188 0.0
H26 H 0.21674 0.32214 0.88017 0.0
H27 H 0.21068 0.33864 0.78401 0.0
H28 H 0.21517 0.37574 0.77444 0.0
H29 H 0.23208 0.37862 0.95706 0.0
H30 H 0.15509 0.32932 0.96725 0.0
H31 H 0.15431 0.29241 0.98648 0.0
O32 O 0.24335 0.31352 0.95627 0.0
C33 C 0.25123 0.31198 0.08682 0.0
C34 C 0.18622 0.29059 1.00287 0.0
C35 C 0.16883 0.32135 0.97812 0.0
N36 N 0.20459 0.32174 0.99482 0.0
C37 C 0.20427 0.30145 0.00577 0.0
C38 C 0.18715 0.33173 0.98144 0.0
C39 C 0.1684 0.30064 0.98889 0.0
C40 C 0.28336 0.36907 0.09502 0.0
N41 N 0.28597 0.34872 0.08897 0.0
C42 C 0.28662 0.37848 0.14948 0.0
C43 C 0.29256 0.36692 0.19799 0.0
C44 C 0.29516 0.34617 0.19152 0.0
C45 C 0.29176 0.33728 0.1364 0.0
C46 C 0.34156 0.32032 0.03494 0.0
C47 C 0.30593 0.30114 1.00429 0.0
C48 C 0.32341 0.33092 0.0321 0.0
N49 N 0.30587 0.32129 0.01717 0.0
C50 C 0.3238 0.29006 0.0067 0.0
C51 C 0.34172 0.29975 0.02216 0.0
C52 C 0.25918 0.31272 0.92422 0.0
C53 C 0.22383 0.37961 0.86552 0.0
C54 C 0.21888 0.33827 0.87633 0.0
C55 C 0.21535 0.34754 0.82178 0.0
C56 C 0.21785 0.36835 0.81645 0.0
N57 N 0.22478 0.3494 0.92427 0.0
C58 C 0.22725 0.36982 0.91936 0.0
Co59 Co 0.9312 0.98586 0.25963 0.0
Co60 Co 0.93241 0.03742 0.26844 0.0
O61 O 0.91717 0.01192 0.26513 0.0
C62 C 0.89431 0.97777 0.3362 0.0
O63 O 0.89015 0.99706 0.34042 0.0
C64 C 0.89805 0.04652 0.1853 0.0
O65 O 0.89917 0.02843 0.162 0.0
O66 O 0.94587 0.03064 0.19207 0.0
O67 O 0.95301 0.99815 0.2096 0.0
H68 H 0.99481 0.08019 0.25037 0.0
H69 H 0.88811 0.98942 0.22311 0.0
O70 O 0.90993 0.97185 0.30835 0.0
H71 H 0.92343 0.96215 0.04895 0.0
H72 H 0.93629 0.91037 0.23633 0.0
H73 H 0.97401 0.97357 0.26987 0.0
H74 H 0.94204 0.96952 0.14074 0.0
H75 H 0.91852 0.94298 0.24058 0.0
O76 O 0.91037 0.05193 0.22547 0.0
H77 H 0.97524 0.0485 0.24872 0.0
H78 H 0.92184 0.08049 0.29243 0.0
H79 H 0.99239 0.9413 0.26535 0.0
H80 H 0.86885 0.98189 0.13274 0.0
H81 H 0.9735 0.9094 0.24849 0.0
H82 H 0.88651 0.96822 0.04458 0.0
O83 O 0.94663 0.99232 0.33314 0.0
H84 H 0.87274 0.04484 0.40381 0.0
H85 H 0.94651 0.05194 0.38688 0.0
H86 H 0.92995 0.05956 0.48181 0.0
H87 H 0.89276 0.05609 0.49072 0.0
H88 H 0.89 0.03706 0.30998 0.0
H89 H 0.9408 0.11254 0.29404 0.0
H90 H 0.97758 0.11251 0.27314 0.0
O91 O 0.95494 0.02437 0.3133 0.0
C92 C 0.95545 0.01444 0.18022 0.0
C93 C 0.97879 0.08039 0.25963 0.0
C94 C 0.94848 0.09855 0.28406 0.0
N95 N 0.94742 0.06261 0.27059 0.0
C96 C 0.96763 0.06249 0.25884 0.0
C97 C 0.9378 0.08036 0.28286 0.0
C98 C 0.96912 0.09853 0.27236 0.0
C99 C 0.89591 0.98316 0.18555 0.0
N100 N 0.9162 0.97972 0.18777 0.0
C101 C 0.88491 0.97906 0.13419 0.0
C102 C 0.89483 0.97144 0.0847 0.0
C103 C 0.91554 0.96806 0.0871 0.0
C104 C 0.92603 0.97234 0.13921 0.0
C105 C 0.94469 0.92418 0.24364 0.0
C106 C 0.96569 0.95977 0.26224 0.0
C107 C 0.9347 0.94269 0.2463 0.0
N108 N 0.94523 0.9602 0.2552 0.0
C109 C 0.97618 0.94154 0.25985 0.0
C110 C 0.96557 0.92364 0.25044 0.0
C111 C 0.95716 1.00813 0.34291 0.0
C112 C 0.88896 0.04637 0.40056 0.0
C113 C 0.93039 0.05008 0.39058 0.0
C114 C 0.92106 0.05457 0.44437 0.0
C115 C 0.9002 0.05266 0.4493 0.0
N116 N 0.91929 0.04381 0.34301 0.0
C117 C 0.89882 0.04202 0.34747 0.0
Co118 Co 0.2326 0.69029 0.51165 0.0
Co119 Co 0.28378 0.68699 0.50395 0.0
O120 O 0.25728 0.67389 0.51006 0.0
C121 C 0.22225 0.65562 0.43194 0.0
O122 O 0.2401 0.65683 0.40709 0.0
C123 C 0.29053 0.64978 0.58054 0.0
O124 O 0.27116 0.64584 0.58359 0.0
O125 O 0.27768 0.7026 0.57725 0.0
O126 O 0.24675 0.71309 0.55285 0.0
H127 H 0.33042 0.74685 0.50847 0.0
H128 H 0.23085 0.64867 0.55994 0.0
O129 O 0.21719 0.66806 0.47212 0.0
H130 H 0.21116 0.69283 0.72556 0.0
H131 H 0.158 0.70197 0.53594 0.0
H132 H 0.2234 0.73322 0.48597 0.0
H133 H 0.21934 0.70727 0.6279 0.0
H134 H 0.18918 0.68177 0.53685 0.0
O135 O 0.29693 0.66539 0.55328 0.0
H136 H 0.29754 0.72945 0.51319 0.0
H137 H 0.32617 0.67294 0.48573 0.0
H138 H 0.19262 0.75401 0.48498 0.0
H139 H 0.22255 0.63357 0.65673 0.0
H140 H 0.15962 0.73839 0.5101 0.0
H141 H 0.21268 0.65571 0.74047 0.0
O142 O 0.23997 0.70211 0.43354 0.0
H143 H 0.2853 0.62435 0.37783 0.0
H144 H 0.30086 0.69706 0.38523 0.0
H145 H 0.30763 0.67807 0.29381 0.0
H146 H 0.29995 0.64138 0.28974 0.0
H147 H 0.2784 0.64399 0.46781 0.0
H148 H 0.35937 0.68971 0.48134 0.0
H149 H 0.36164 0.72695 0.49247 0.0
O150 O 0.27234 0.70911 0.45301 0.0
C151 C 0.26253 0.71414 0.58497 0.0
C152 C 0.32962 0.73062 0.50342 0.0
C153 C 0.34588 0.69855 0.48828 0.0
N154 N 0.3099 0.70022 0.49945 0.0
C155 C 0.31104 0.72069 0.50593 0.0
C156 C 0.32703 0.68913 0.49102 0.0
C157 C 0.34714 0.71944 0.4945 0.0
C158 C 0.2265 0.65841 0.59606 0.0
N159 N 0.22572 0.67884 0.58825 0.0
C160 C 0.22184 0.64977 0.65081 0.0
C161 C 0.21632 0.6622 0.69779 0.0
C162 C 0.21549 0.68302 0.68947 0.0
C163 C 0.22025 0.69112 0.6341 0.0
C164 C 0.1723 0.70895 0.52496 0.0
C165 C 0.20912 0.72632 0.49717 0.0
C166 C 0.19 0.69757 0.52521 0.0
N167 N 0.20813 0.70631 0.5117 0.0
C168 C 0.19173 0.73817 0.49643 0.0
C169 C 0.17321 0.72939 0.51048 0.0
C170 C 0.25641 0.71135 0.42191 0.0
C171 C 0.28884 0.6403 0.37916 0.0
C172 C 0.29736 0.68115 0.38386 0.0
C173 C 0.3013 0.67044 0.33194 0.0
C174 C 0.29701 0.64987 0.32971 0.0
N175 N 0.28944 0.67166 0.43241 0.0
C176 C 0.28511 0.6515 0.43033 0.0
Co177 Co 0.58482 0.03689 0.75168 0.0
Co178 Co 0.58112 0.98571 0.75989 0.0
O179 O 0.59772 0.01037 0.75842 0.0
C180 C 0.62193 0.04389 0.82847 0.0
O181 O 0.62626 0.02459 0.83052 0.0
C182 C 0.616 0.97501 0.68137 0.0
O183 O 0.61486 0.99269 0.65534 0.0
O184 O 0.56967 0.99301 0.68124 0.0
O185 O 0.56284 0.02542 0.70042 0.0
H186 H 0.51726 0.94584 0.73183 0.0
H187 H 0.62782 0.03122 0.71618 0.0
O188 O 0.60625 0.05009 0.80145 0.0
H189 H 0.59448 0.06072 0.54161 0.0
H190 H 0.5826 0.11255 0.7285 0.0
H191 H 0.54244 0.0507 0.75965 0.0
H192 H 0.57524 0.05407 0.63275 0.0
H193 H 0.59916 0.07932 0.73356 0.0
O194 O 0.60343 0.97017 0.72153 0.0
H195 H 0.53827 0.97659 0.73296 0.0
H196 H 0.58919 0.94227 0.78612 0.0
H197 H 0.52526 0.08362 0.75424 0.0
H198 H 0.64771 0.03798 0.62649 0.0
H199 H 0.54537 0.11485 0.73859 0.0
H200 H 0.63106 0.05278 0.53811 0.0
O201 O 0.569 0.03088 0.82466 0.0
H202 H 0.63707 0.97601 0.90727 0.0
H203 H 0.56356 0.97255 0.87568 0.0
H204 H 0.5775 0.96455 0.97402 0.0
H205 H 0.61452 0.9662 0.99032 0.0
H206 H 0.62246 0.98412 0.80976 0.0
H207 H 0.56876 0.91112 0.7851 0.0
H208 H 0.53249 0.9128 0.75804 0.0
O209 O 0.55826 1.0 0.80012 0.0
C210 C 0.56058 0.00949 0.66932 0.0
C211 C 0.53303 0.94492 0.74381 0.0
C212 C 0.56194 0.92543 0.77362 0.0
N213 N 0.56493 0.96126 0.75981 0.0
C214 C 0.54501 0.96229 0.74462 0.0
C215 C 0.57346 0.94311 0.77393 0.0
C216 C 0.54159 0.92638 0.75847 0.0
C217 C 0.62047 0.038 0.67859 0.0
N218 N 0.60038 0.04249 0.68039 0.0
C219 C 0.63181 0.04165 0.62758 0.0
C220 C 0.62246 0.0499 0.57797 0.0
C221 C 0.60195 0.05433 0.57989 0.0
C222 C 0.59109 0.05047 0.63166 0.0
C223 C 0.57367 0.09905 0.73527 0.0
C224 C 0.5513 0.0642 0.75253 0.0
C225 C 0.58296 0.08019 0.73838 0.0
N226 N 0.57177 0.06305 0.74659 0.0
C227 C 0.54148 0.08281 0.74963 0.0
C228 C 0.55278 0.10033 0.74091 0.0
C229 C 0.55733 0.01577 0.83228 0.0
C230 C 0.62091 0.97525 0.90075 0.0
C231 C 0.57967 0.9735 0.88247 0.0
C232 C 0.58749 0.96885 0.93824 0.0
C233 C 0.60825 0.96976 0.94733 0.0
N234 N 0.59218 0.97894 0.83701 0.0
C235 C 0.61256 0.97979 0.84559 0.0
Co236 Co 0.73223 0.68372 0.00634 0.0
Co237 Co 0.78329 0.68795 0.01546 0.0
O238 O 0.75886 0.67104 0.01332 0.0
C239 C 0.72538 0.64614 0.08178 0.0
O240 O 0.74472 0.64216 0.08475 0.0
C241 C 0.79469 0.65319 0.93717 0.0
O242 O 0.77695 0.65381 0.91149 0.0
O243 O 0.77605 0.69943 0.93679 0.0
O244 O 0.74362 0.70604 0.95589 0.0
H245 H 0.82238 0.75241 0.98864 0.0
H246 H 0.73839 0.64087 0.96979 0.0
O247 O 0.7191 0.6619 0.05511 0.0
H248 H 0.70922 0.67461 0.79541 0.0
H249 H 0.65671 0.68529 0.98105 0.0
H250 H 0.71798 0.72596 0.01534 0.0
H251 H 0.71539 0.6936 0.88724 0.0
H252 H 0.69006 0.66903 0.9865 0.0
O253 O 0.79926 0.66592 0.97712 0.0
H254 H 0.79193 0.73099 0.98904 0.0
H255 H 0.82673 0.68041 0.04258 0.0
H256 H 0.68495 0.74285 0.00956 0.0
H257 H 0.73209 0.62123 0.8794 0.0
H258 H 0.65401 0.72248 0.99233 0.0
H259 H 0.71746 0.63809 0.79112 0.0
O260 O 0.73789 0.6994 0.07993 0.0
H261 H 0.79328 0.63184 0.1624 0.0
H262 H 0.79595 0.70549 0.13167 0.0
H263 H 0.80387 0.69147 0.22999 0.0
H264 H 0.80262 0.65438 0.24586 0.0
H265 H 0.78524 0.64652 0.06491 0.0
H266 H 0.85758 0.70126 0.04229 0.0
H267 H 0.85551 0.73756 0.0154 0.0
O268 O 0.76863 0.71057 0.05563 0.0
C269 C 0.75955 0.70845 0.92486 0.0
C270 C 0.82347 0.73662 1.00054 0.0
C271 C 0.84323 0.70791 0.03057 0.0
N272 N 0.80751 0.70448 0.01603 0.0
C273 C 0.80627 0.72441 1.00094 0.0
C274 C 0.82571 0.69616 0.03047 0.0
C275 C 0.84206 0.72828 0.01551 0.0
C276 C 0.73167 0.6483 0.93225 0.0
N277 N 0.72702 0.66836 0.93449 0.0
C278 C 0.72829 0.6371 0.88083 0.0
C279 C 0.72013 0.64657 0.83127 0.0
C280 C 0.71553 0.66706 0.83364 0.0
C281 C 0.71913 0.67776 0.88581 0.0
C282 C 0.67008 0.69434 0.98854 0.0
C283 C 0.70461 0.71699 0.00757 0.0
C284 C 0.68901 0.68521 0.99189 0.0
N285 N 0.70599 0.69654 1.00101 0.0
C286 C 0.68593 0.72664 1.00445 0.0
C287 C 0.66858 0.7152 0.99484 0.0
C288 C 0.75283 0.71128 0.08771 0.0
C289 C 0.79386 0.64802 0.15606 0.0
C290 C 0.79518 0.68935 0.13827 0.0
C291 C 0.79978 0.68149 0.19403 0.0
C292 C 0.79909 0.66068 0.20288 0.0
N293 N 0.79 0.67684 0.09258 0.0
C294 C 0.78935 0.65643 0.10092 0.0
Co295 Co 0.08032 0.03852 0.7664 0.0
Co296 Co 0.0818 0.98729 0.76094 0.0
O297 O 0.09607 0.01337 0.76413 0.0
C298 C 0.11734 0.0486 0.69312 0.0
O299 O 0.12075 0.02951 0.68171 0.0
C300 C 0.11983 0.9794 0.83266 0.0
O301 O 0.12385 0.99873 0.83709 0.0
O302 O 0.06814 0.99413 0.83679 0.0
O303 O 0.05772 0.0249 0.81062 0.0
H304 H 0.02053 0.94287 0.77819 0.0
H305 H 0.12231 0.03907 0.81201 0.0
O306 O 0.10212 0.05383 0.72378 0.0
H307 H 0.08014 0.06137 0.97915 0.0
H308 H 0.06979 0.11343 0.78906 0.0
H309 H 0.03735 0.04817 0.74404 0.0
H310 H 0.06471 0.05303 0.88301 0.0
H311 H 0.08962 0.082 0.78934 0.0
O312 O 0.10394 0.97335 0.80619 0.0
H313 H 0.03919 0.97511 0.7791 0.0
H314 H 0.09376 0.94437 0.74028 0.0
H315 H 0.01693 0.07922 0.74382 0.0
H316 H 0.13839 0.04751 0.90715 0.0
H317 H 0.03315 0.11216 0.76644 0.0
H318 H 0.11726 0.0587 0.99169 0.0
O319 O 0.06789 0.03095 0.68938 0.0
H320 H 0.14144 0.9818 0.62396 0.0
H321 H 0.06811 0.97143 0.64392 0.0
H322 H 0.08471 0.96371 0.54915 0.0
H323 H 0.12167 0.96879 0.53872 0.0
H324 H 0.1242 0.98965 0.71756 0.0
H325 H 0.07571 0.9118 0.73952 0.0
H326 H 0.03881 0.91091 0.75831 0.0
O327 O 0.05899 0.9995 0.71432 0.0
C328 C 0.05698 0.00954 0.84468 0.0
C329 C 0.0366 0.94307 0.76982 0.0
C330 C 0.06758 0.92562 0.74819 0.0
N331 N 0.06753 0.96166 0.75949 0.0
C332 C 0.04725 0.96128 0.77017 0.0
C333 C 0.07772 0.94412 0.74888 0.0
C334 C 0.04687 0.92514 0.75871 0.0
C335 C 0.11301 0.04406 0.84835 0.0
N336 N 0.0926 0.04553 0.84177 0.0
C337 C 0.1222 0.04876 0.90224 0.0
C338 C 0.11034 0.05502 0.94966 0.0
C339 C 0.08952 0.0565 0.94268 0.0
C340 C 0.08086 0.05167 0.88813 0.0
C341 C 0.06254 0.09917 0.77918 0.0
C342 C 0.04451 0.06243 0.75415 0.0
C343 C 0.07371 0.08132 0.77908 0.0
N344 N 0.06464 0.06323 0.76694 0.0
C345 C 0.03287 0.07997 0.75386 0.0
C346 C 0.04199 0.09844 0.76651 0.0
C347 C 0.05775 0.01486 0.68036 0.0
C348 C 0.12534 0.97943 0.62802 0.0
C349 C 0.08418 0.97381 0.6398 0.0
C350 C 0.09351 0.96934 0.58599 0.0
C351 C 0.11424 0.97217 0.58018 0.0
N352 N 0.09518 0.98089 0.68667 0.0
C353 C 0.11549 0.98375 0.68116 0.0
Co354 Co 0.78811 0.33504 0.50243 0.0
Co355 Co 0.73698 0.33776 0.50854 0.0
O356 O 0.76335 0.35097 0.50443 0.0
C357 C 0.79751 0.36892 0.58632 0.0
O358 O 0.77944 0.36756 0.60969 0.0
C359 C 0.71409 0.3603 0.41689 0.0
O360 O 0.71034 0.3429 0.39123 0.0
O361 O 0.74331 0.3228 0.4341 0.0
O362 O 0.77459 0.31287 0.45682 0.0
H363 H 0.68925 0.27895 0.49388 0.0
H364 H 0.78769 0.37721 0.45886 0.0
O365 O 0.80293 0.35681 0.54572 0.0
H366 H 0.81257 0.33676 0.29112 0.0
H367 H 0.86305 0.32448 0.48263 0.0
H368 H 0.79752 0.29188 0.52275 0.0
H369 H 0.80409 0.32053 0.38611 0.0
H370 H 0.83168 0.34439 0.48186 0.0
O371 O 0.7255 0.36097 0.46225 0.0
H372 H 0.7224 0.29588 0.49122 0.0
H373 H 0.6949 0.35206 0.53148 0.0
H374 H 0.8285 0.27136 0.52338 0.0
H375 H 0.79624 0.39413 0.36485 0.0
H376 H 0.86157 0.28767 0.50323 0.0
H377 H 0.80873 0.37386 0.28008 0.0
O378 O 0.78016 0.32199 0.57856 0.0
H379 H 0.73372 0.39939 0.63786 0.0
H380 H 0.7214 0.32604 0.62802 0.0
H381 H 0.71468 0.34424 0.72097 0.0
H382 H 0.72075 0.3812 0.72626 0.0
H383 H 0.7406 0.38054 0.54607 0.0
H384 H 0.66145 0.33574 0.53445 0.0
H385 H 0.65847 0.29892 0.51561 0.0
O386 O 0.74799 0.3147 0.55651 0.0
C387 C 0.7587 0.31166 0.42516 0.0
C388 C 0.69035 0.295 0.5022 0.0
C389 C 0.67475 0.32687 0.52497 0.0
N390 N 0.71061 0.32492 0.51127 0.0
C391 C 0.70908 0.30467 0.50078 0.0
C392 C 0.69373 0.33603 0.52322 0.0
C393 C 0.67309 0.30621 0.51439 0.0
C394 C 0.79321 0.36829 0.42229 0.0
N395 N 0.79537 0.34788 0.42805 0.0
C396 C 0.79799 0.37796 0.36911 0.0
C397 C 0.80498 0.36657 0.32155 0.0
C398 C 0.80712 0.34576 0.3277 0.0
C399 C 0.8022 0.33662 0.38155 0.0
C400 C 0.84873 0.3172 0.49146 0.0
C401 C 0.81184 0.29907 0.51373 0.0
C402 C 0.83092 0.32841 0.49132 0.0
N403 N 0.81276 0.3193 0.50208 0.0
C404 C 0.82934 0.28738 0.51424 0.0
C405 C 0.84789 0.29655 0.50298 0.0
C406 C 0.76377 0.31236 0.58822 0.0
C407 C 0.73095 0.38329 0.63605 0.0
C408 C 0.72426 0.34209 0.63002 0.0
C409 C 0.72033 0.35233 0.68275 0.0
C410 C 0.72371 0.37308 0.68567 0.0
N411 N 0.73134 0.35221 0.58147 0.0
C412 C 0.73471 0.37255 0.58407 0.0
Co413 Co 0.43558 0.98653 0.26002 0.0
Co414 Co 0.43282 0.03773 0.2513 0.0
O415 O 0.41944 0.01138 0.25813 0.0
C416 C 0.40075 0.97629 0.18079 0.0
O417 O 0.40245 0.99386 0.15439 0.0
C418 C 0.39566 0.04525 0.32724 0.0
O419 O 0.39123 0.02597 0.33029 0.0
O420 O 0.44839 0.0316 0.32468 0.0
O421 O 0.45862 1.00056 0.30049 0.0
H422 H 0.49317 0.08372 0.2547 0.0
H423 H 0.39413 0.98546 0.30926 0.0
O424 O 0.41305 0.97128 0.22142 0.0
H425 H 0.43847 0.9655 0.47433 0.0
H426 H 0.44654 0.91181 0.28582 0.0
H427 H 0.47831 0.97683 0.23384 0.0
H428 H 0.45272 0.97326 0.37616 0.0
H429 H 0.42668 0.94321 0.28631 0.0
O430 O 0.41146 0.05126 0.3003 0.0
H431 H 0.47541 0.05103 0.2602 0.0
H432 H 0.41927 0.08028 0.23198 0.0
H433 H 0.49877 0.94581 0.23324 0.0
H434 H 0.37922 0.97759 0.40659 0.0
H435 H 0.48289 0.91299 0.25937 0.0
H436 H 0.40146 0.96758 0.49005 0.0
O437 O 0.44729 0.99361 0.18147 0.0
H438 H 0.37024 0.03937 0.12488 0.0
H439 H 0.44297 0.05458 0.1323 0.0
H440 H 0.42403 0.06129 0.04068 0.0
H441 H 0.38734 0.0538 0.0366 0.0
H442 H 0.38982 0.03253 0.21506 0.0
H443 H 0.43641 0.1133 0.22682 0.0
H444 H 0.47364 0.11516 0.23793 0.0
O445 O 0.45473 0.02591 0.20068 0.0
C446 C 0.45981 0.01636 0.33251 0.0
C447 C 0.47695 0.0831 0.24966 0.0
C448 C 0.44509 0.0997 0.2341 0.0
N449 N 0.44634 0.06371 0.24614 0.0
C450 C 0.46681 0.06463 0.25261 0.0
C451 C 0.43546 0.08096 0.23728 0.0
C452 C 0.46598 0.10074 0.2403 0.0
C453 C 0.4039 0.98105 0.34527 0.0
N454 N 0.42428 0.97996 0.33701 0.0
C455 C 0.39538 0.97664 0.40032 0.0
C456 C 0.40786 0.97104 0.44714 0.0
C457 C 0.42863 0.96989 0.43837 0.0
C458 C 0.43662 0.97441 0.3827 0.0
C459 C 0.45364 0.92601 0.27438 0.0
C460 C 0.4713 0.96263 0.24547 0.0
C461 C 0.44245 0.94385 0.2744 0.0
N462 N 0.45133 0.96187 0.26033 0.0
C463 C 0.48296 0.9451 0.24496 0.0
C464 C 0.47403 0.92669 0.25957 0.0
C465 C 0.4567 0.00995 0.1696 0.0
C466 C 0.38619 0.04284 0.12622 0.0
C467 C 0.42705 0.05117 0.13095 0.0
C468 C 0.41638 0.05507 0.07891 0.0
C469 C 0.3958 0.05088 0.07666 0.0
N470 N 0.41753 0.04339 0.17962 0.0
C471 C 0.39736 0.03915 0.17751 0.0
Co472 Co 0.78284 0.83305 0.51412 0.0
Co473 Co 0.73169 0.83652 0.50648 0.0
O474 O 0.75822 0.84956 0.51258 0.0
C475 C 0.79348 0.86789 0.43489 0.0
O476 O 0.7757 0.86679 0.40955 0.0
C477 C 0.72491 0.87385 0.5824 0.0
O478 O 0.74425 0.87799 0.5847 0.0
O479 O 0.73775 0.82088 0.57984 0.0
O480 O 0.76857 0.81022 0.55508 0.0
H481 H 0.68492 0.77675 0.51107 0.0
H482 H 0.7846 0.87455 0.56294 0.0
O483 O 0.79838 0.85533 0.47499 0.0
H484 H 0.80421 0.83 0.72806 0.0
H485 H 0.85737 0.82099 0.53864 0.0
H486 H 0.79186 0.79014 0.488 0.0
H487 H 0.79606 0.81579 0.63017 0.0
H488 H 0.82628 0.84133 0.53965 0.0
O489 O 0.71857 0.85811 0.55574 0.0
H490 H 0.71783 0.79408 0.51579 0.0
H491 H 0.68932 0.85067 0.48828 0.0
H492 H 0.82254 0.76921 0.4869 0.0
H493 H 0.79287 0.88943 0.65997 0.0
H494 H 0.85561 0.78463 0.51235 0.0
H495 H 0.80269 0.86709 0.74345 0.0
O496 O 0.77543 0.8214 0.43584 0.0
H497 H 0.73046 0.89913 0.37971 0.0
H498 H 0.71452 0.8265 0.3879 0.0
H499 H 0.70781 0.8455 0.29632 0.0
H500 H 0.71567 0.88214 0.29185 0.0
H501 H 0.73728 0.87949 0.46985 0.0
H502 H 0.65608 0.83397 0.4839 0.0
H503 H 0.65374 0.79673 0.49504 0.0
O504 O 0.74308 0.8144 0.45565 0.0
C505 C 0.75285 0.80925 0.58745 0.0
C506 C 0.68575 0.79298 0.50601 0.0
C507 C 0.66956 0.8251 0.49085 0.0
N508 N 0.70554 0.82335 0.50201 0.0
C509 C 0.70435 0.80287 0.50852 0.0
C510 C 0.68843 0.83447 0.49358 0.0
C511 C 0.66826 0.8042 0.49707 0.0
C512 C 0.78893 0.86473 0.59896 0.0
N513 N 0.78972 0.84432 0.59088 0.0
C514 C 0.79357 0.87324 0.65385 0.0
C515 C 0.79907 0.8607 0.70067 0.0
C516 C 0.7999 0.83989 0.69208 0.0
C517 C 0.79517 0.83193 0.63658 0.0
C518 C 0.84305 0.81409 0.5275 0.0
C519 C 0.80617 0.79695 0.49934 0.0
C520 C 0.8254 0.82555 0.52781 0.0
N521 N 0.80724 0.81692 0.5141 0.0
C522 C 0.8235 0.78503 0.49854 0.0
C523 C 0.84205 0.79369 0.51277 0.0
C524 C 0.75896 0.81217 0.42435 0.0
C525 C 0.72682 0.8832 0.38122 0.0
C526 C 0.71809 0.8424 0.38638 0.0
C527 C 0.71419 0.8531 0.33436 0.0
C528 C 0.71858 0.87366 0.3319 0.0
N529 N 0.72606 0.85187 0.43483 0.0
C530 C 0.73051 0.872 0.4325 0.0
Co531 Co 0.43121 0.4869 0.75857 0.0
Co532 Co 0.43336 0.53801 0.76428 0.0
O533 O 0.41731 0.51302 0.76261 0.0
C534 C 0.39329 0.47927 0.83108 0.0
O535 O 0.38934 0.49862 0.83483 0.0
C536 C 0.39839 0.54796 0.68465 0.0
O537 O 0.39926 0.52998 0.66045 0.0
O538 O 0.44517 0.53051 0.68632 0.0
O539 O 0.45386 0.49899 0.71078 0.0
H540 H 0.49674 0.57874 0.73765 0.0
H541 H 0.38872 0.49036 0.7166 0.0
O542 O 0.40916 0.47313 0.80486 0.0
H543 H 0.4267 0.46315 0.54718 0.0
H544 H 0.43629 0.41137 0.73697 0.0
H545 H 0.47378 0.47445 0.77442 0.0
H546 H 0.44393 0.47063 0.64123 0.0
H547 H 0.41863 0.44407 0.73862 0.0
O548 O 0.41106 0.55309 0.72418 0.0
H549 H 0.47618 0.54769 0.73898 0.0
H550 H 0.42449 0.58143 0.78854 0.0
H551 H 0.49206 0.44209 0.77258 0.0
H552 H 0.37086 0.48276 0.62378 0.0
H553 H 0.47329 0.41025 0.75376 0.0
H554 H 0.38986 0.46911 0.53805 0.0
O555 O 0.44541 0.49367 0.83371 0.0
H556 H 0.37638 0.54723 0.90835 0.0
H557 H 0.44997 0.55213 0.88031 0.0
H558 H 0.43528 0.56032 0.97751 0.0
H559 H 0.39821 0.55794 0.99202 0.0
H560 H 0.39174 0.53896 0.81202 0.0
H561 H 0.44445 0.61287 0.7872 0.0
H562 H 0.48088 0.61164 0.76187 0.0
O563 O 0.45623 0.52427 0.80665 0.0
C564 C 0.45512 0.51437 0.67687 0.0
C565 C 0.48089 0.57947 0.74884 0.0
C566 C 0.45154 0.59863 0.77657 0.0
N567 N 0.44916 0.56271 0.76399 0.0
C568 C 0.46917 0.56193 0.74976 0.0
C569 C 0.44029 0.58078 0.77704 0.0
C570 C 0.47198 0.59793 0.76239 0.0
C571 C 0.39708 0.48409 0.68008 0.0
N572 N 0.41732 0.48067 0.68495 0.0
C573 C 0.38688 0.47996 0.62734 0.0
C574 C 0.39756 0.47235 0.57921 0.0
C575 C 0.41822 0.46901 0.5843 0.0
C576 C 0.42791 0.47332 0.63772 0.0
C577 C 0.44464 0.42514 0.74517 0.0
C578 C 0.46551 0.46068 0.76595 0.0
C579 C 0.43471 0.44371 0.74635 0.0
N580 N 0.44517 0.46119 0.75636 0.0
C581 C 0.47594 0.44239 0.76507 0.0
C582 C 0.4654 0.42453 0.75456 0.0
C583 C 0.45684 0.50898 0.84099 0.0
C584 C 0.39255 0.54831 0.90261 0.0
C585 C 0.43385 0.55086 0.88634 0.0
C586 C 0.42561 0.55562 0.94145 0.0
C587 C 0.40481 0.5543 0.94954 0.0
N588 N 0.42173 0.54491 0.84054 0.0
C589 C 0.40133 0.54366 0.84812 0.0
Co590 Co 0.73185 0.18885 0.01177 0.0
Co591 Co 0.78295 0.18507 1.00234 0.0
O592 O 0.75637 0.17222 0.00891 0.0
C593 C 0.72107 0.15463 0.93113 0.0
O594 O 0.73863 0.15631 0.90477 0.0
C595 C 0.78977 0.14749 0.07745 0.0
O596 O 0.77041 0.14351 0.08069 0.0
O597 O 0.77722 0.20041 0.07634 0.0
O598 O 0.74635 0.21141 0.05314 0.0
H599 H 0.83009 0.24453 0.0074 0.0
H600 H 0.73003 0.14709 0.05911 0.0
O601 O 0.7162 0.16678 0.97225 0.0
H602 H 0.71125 0.19092 0.22641 0.0
H603 H 0.65743 0.20096 0.03846 0.0
H604 H 0.7229 0.23195 0.98794 0.0
H605 H 0.71912 0.20557 0.12881 0.0
H606 H 0.68846 0.18053 0.03778 0.0
O607 O 0.79609 0.16321 0.05059 0.0
H608 H 0.79709 0.22737 0.01255 0.0
H609 H 0.82517 0.17075 0.98235 0.0
H610 H 0.69227 0.25297 0.98854 0.0
H611 H 0.72203 0.13178 0.15584 0.0
H612 H 0.65922 0.23748 0.01394 0.0
H613 H 0.71262 0.15375 0.24041 0.0
O614 O 0.73901 0.20091 0.93375 0.0
H615 H 0.78323 0.1229 0.8742 0.0
H616 H 0.7999 0.19533 0.88354 0.0
H617 H 0.80612 0.17659 0.79135 0.0
H618 H 0.79789 0.14004 0.78631 0.0
H619 H 0.77688 0.1423 0.96497 0.0
H620 H 0.85849 0.18727 0.97752 0.0
H621 H 0.86109 0.22444 0.9898 0.0
O622 O 0.77153 0.20747 0.95244 0.0
C623 C 0.76221 0.21205 0.08502 0.0
C624 C 0.82915 0.22833 1.00184 0.0
C625 C 0.84509 0.19619 0.98516 0.0
N626 N 0.80917 0.1981 0.99746 0.0
C627 C 0.81049 0.21854 0.00459 0.0
C628 C 0.82618 0.18691 0.98816 0.0
C629 C 0.84654 0.21705 0.99202 0.0
C630 C 0.72588 0.15675 0.0956 0.0
N631 N 0.72518 0.17721 0.08829 0.0
C632 C 0.72139 0.14799 0.15032 0.0
C633 C 0.71613 0.16033 0.19776 0.0
C634 C 0.71538 0.18118 0.18995 0.0
C635 C 0.71995 0.1894 0.1346 0.0
C636 C 0.67174 0.20788 0.02736 0.0
C637 C 0.7086 0.2251 0.99926 0.0
C638 C 0.68936 0.19638 0.02671 0.0
N639 N 0.7075 0.20504 0.01305 0.0
C640 C 0.69129 0.23708 0.99942 0.0
C641 C 0.67276 0.22837 0.01362 0.0
C642 C 0.7555 0.21006 0.92201 0.0
C643 C 0.78701 0.13879 0.87595 0.0
C644 C 0.79614 0.17949 0.88174 0.0
C645 C 0.79978 0.16892 0.82939 0.0
C646 C 0.79518 0.14842 0.82661 0.0
N647 N 0.78822 0.16994 0.93017 0.0
C648 C 0.78359 0.14986 0.92755 0.0
Co649 Co 0.08423 0.53625 0.26312 0.0
Co650 Co 0.08315 0.48525 0.27413 0.0
O651 O 0.0986 0.51051 0.26963 0.0
C652 C 0.12184 0.54531 0.33528 0.0
O653 O 0.12578 0.52608 0.34249 0.0
C654 C 0.11641 0.47474 0.18977 0.0
O655 O 0.11232 0.49075 0.15766 0.0
O656 O 0.07077 0.49162 0.19584 0.0
O657 O 0.0617 0.52325 0.21733 0.0
H658 H 0.02076 0.44258 0.25447 0.0
H659 H 0.12659 0.53263 0.22092 0.0
O660 O 0.10612 0.55093 0.30733 0.0
H661 H 0.08806 0.55728 0.04899 0.0
H662 H 0.07782 0.61135 0.23292 0.0
H663 H 0.0415 0.5482 0.27873 0.0
H664 H 0.07109 0.55101 0.14427 0.0
H665 H 0.09603 0.57899 0.23795 0.0
O666 O 0.10587 0.47057 0.2352 0.0
H667 H 0.04045 0.47419 0.25214 0.0
H668 H 0.09345 0.44231 0.30065 0.0
H669 H 0.02267 0.5802 0.27354 0.0
H670 H 0.14418 0.53896 0.12674 0.0
H671 H 0.04085 0.61208 0.25051 0.0
H672 H 0.1249 0.55134 0.0398 0.0
O673 O 0.0703 0.53009 0.33916 0.0
H674 H 0.14078 0.47862 0.41737 0.0
H675 H 0.06721 0.47204 0.39186 0.0
H676 H 0.08236 0.46512 0.48935 0.0
H677 H 0.11942 0.46835 0.5026 0.0
H678 H 0.12497 0.48564 0.32076 0.0
H679 H 0.07436 0.41033 0.30303 0.0
H680 H 0.03773 0.41035 0.28008 0.0
O681 O 0.0601 0.4989 0.31578 0.0
C682 C 0.06045 0.50746 0.18527 0.0
C683 C 0.03671 0.44239 0.2647 0.0
C684 C 0.06679 0.42428 0.29188 0.0
N685 N 0.06805 0.46014 0.27659 0.0
C686 C 0.04793 0.46025 0.26357 0.0
C687 C 0.07754 0.44244 0.2903 0.0
C688 C 0.04624 0.4243 0.27902 0.0
C689 C 0.11811 0.53832 0.18375 0.0
N690 N 0.09788 0.54176 0.18864 0.0
C691 C 0.12815 0.54175 0.13031 0.0
C692 C 0.11732 0.54865 0.08151 0.0
C693 C 0.09665 0.55199 0.08663 0.0
C694 C 0.08713 0.5484 0.14077 0.0
C695 C 0.06973 0.59756 0.24294 0.0
C696 C 0.04951 0.56199 0.26843 0.0
C697 C 0.07997 0.57919 0.24605 0.0
N698 N 0.06983 0.56169 0.25836 0.0
C699 C 0.03877 0.58007 0.26567 0.0
C700 C 0.04898 0.59796 0.25279 0.0
C701 C 0.05919 0.51463 0.34824 0.0
C702 C 0.12461 0.47718 0.41219 0.0
C703 C 0.08332 0.47369 0.39732 0.0
C704 C 0.09183 0.46964 0.45261 0.0
C705 C 0.11262 0.47144 0.46 0.0
N706 N 0.09518 0.47942 0.35067 0.0
C707 C 0.11558 0.48112 0.35755 0.0
Co708 Co 0.23518 0.1845 0.50489 0.0
Co709 Co 0.28636 0.18969 0.50953 0.0
O710 O 0.26215 0.17277 0.50944 0.0
C711 C 0.21386 0.16257 0.60115 0.0
O712 O 0.20975 0.18019 0.6248 0.0
C713 C 0.29627 0.15572 0.42671 0.0
O714 O 0.27813 0.1566 0.40365 0.0
O715 O 0.27769 0.20229 0.43346 0.0
O716 O 0.24486 0.20714 0.45286 0.0
H717 H 0.32464 0.2547 0.48473 0.0
H718 H 0.24088 0.14136 0.47401 0.0
O719 O 0.22498 0.16161 0.55523 0.0
H720 H 0.21192 0.17271 0.29524 0.0
H721 H 0.15951 0.18218 0.48283 0.0
H722 H 0.21876 0.22584 0.51622 0.0
H723 H 0.21816 0.19298 0.38477 0.0
H724 H 0.19369 0.16766 0.48652 0.0
O725 O 0.30162 0.16823 0.46642 0.0
H726 H 0.29432 0.2331 0.48745 0.0
H727 H 0.33029 0.182 0.52839 0.0
H728 H 0.18485 0.24099 0.51269 0.0
H729 H 0.23452 0.12044 0.3858 0.0
H730 H 0.15492 0.21911 0.49591 0.0
H731 H 0.22002 0.13612 0.29544 0.0
O732 O 0.24109 0.20113 0.57672 0.0
H733 H 0.29721 0.13149 0.64871 0.0
H734 H 0.3023 0.20528 0.6247 0.0
H735 H 0.3118 0.18979 0.71986 0.0
H736 H 0.30936 0.1526 0.73228 0.0
H737 H 0.28762 0.14767 0.55452 0.0
H738 H 0.36102 0.20301 0.5256 0.0
H739 H 0.35829 0.23967 0.5039 0.0
O740 O 0.27237 0.21149 0.5547 0.0
C741 C 0.26074 0.21069 0.4225 0.0
C742 C 0.32602 0.23876 0.49435 0.0
C743 C 0.34644 0.20974 0.51719 0.0
N744 N 0.3105 0.20632 0.50828 0.0
C745 C 0.3089 0.22645 0.49605 0.0
C746 C 0.32899 0.1979 0.51849 0.0
C747 C 0.3449 0.23031 0.50505 0.0
C748 C 0.23435 0.14827 0.43515 0.0
N749 N 0.22989 0.1684 0.43469 0.0
C750 C 0.23087 0.13635 0.3852 0.0
C751 C 0.22278 0.14517 0.33448 0.0
C752 C 0.21827 0.1657 0.33431 0.0
C753 C 0.22195 0.17714 0.38507 0.0
C754 C 0.17243 0.19188 0.49013 0.0
C755 C 0.20582 0.21622 0.50882 0.0
C756 C 0.19182 0.18374 0.49229 0.0
N757 N 0.20823 0.1959 0.5015 0.0
C758 C 0.18665 0.22488 0.50689 0.0
C759 C 0.16987 0.2126 0.49748 0.0
C760 C 0.25624 0.21272 0.5852 0.0
C761 C 0.29836 0.14771 0.64384 0.0
C762 C 0.30102 0.18914 0.62987 0.0
C763 C 0.30651 0.18043 0.68381 0.0
C764 C 0.30515 0.15956 0.69073 0.0
N765 N 0.29439 0.17742 0.58402 0.0
C766 C 0.29299 0.15696 0.59055 0.0
Co767 Co 0.58143 0.53565 0.26657 0.0
Co768 Co 0.58137 0.48412 0.25673 0.0
O769 O 0.59609 0.50987 0.26314 0.0
C770 C 0.61658 0.54456 0.18545 0.0
O771 O 0.61563 0.52643 0.16226 0.0
C772 C 0.61776 0.47482 0.33409 0.0
O773 O 0.6223 0.49399 0.34006 0.0
O774 O 0.56601 0.4907 0.3302 0.0
O775 O 0.55843 0.52289 0.31044 0.0
H776 H 0.51897 0.44094 0.26051 0.0
H777 H 0.62364 0.53425 0.30949 0.0
O778 O 0.60394 0.54997 0.22468 0.0
H779 H 0.58367 0.55716 0.48055 0.0
H780 H 0.57462 0.61082 0.29418 0.0
H781 H 0.53895 0.54757 0.24559 0.0
H782 H 0.56727 0.55016 0.38491 0.0
H783 H 0.59285 0.57844 0.29236 0.0
O784 O 0.60215 0.46944 0.30519 0.0
H785 H 0.53823 0.47276 0.2663 0.0
H786 H 0.59288 0.44105 0.23621 0.0
H787 H 0.5201 0.57959 0.24743 0.0
H788 H 0.64075 0.5414 0.40406 0.0
H789 H 0.53795 0.61152 0.27184 0.0
H790 H 0.62072 0.55286 0.49057 0.0
O791 O 0.56808 0.52934 0.18953 0.0
H792 H 0.64387 0.47913 0.13103 0.0
H793 H 0.57034 0.46845 0.13708 0.0
H794 H 0.58896 0.461 0.04543 0.0
H795 H 0.62605 0.46622 0.04205 0.0
H796 H 0.6246 0.48678 0.22125 0.0
H797 H 0.57423 0.40888 0.23067 0.0
H798 H 0.53699 0.40869 0.24259 0.0
O799 O 0.55999 0.49703 0.20686 0.0
C800 C 0.5558 0.50667 0.3399 0.0
C801 C 0.53519 0.44083 0.25512 0.0
C802 C 0.56621 0.42283 0.23846 0.0
N803 N 0.56665 0.45881 0.25134 0.0
C804 C 0.54618 0.45881 0.25824 0.0
C805 C 0.57669 0.4411 0.24185 0.0
C806 C 0.54531 0.42274 0.24512 0.0
C807 C 0.61482 0.53931 0.3468 0.0
N808 N 0.59442 0.54157 0.34171 0.0
C809 C 0.62459 0.5433 0.40031 0.0
C810 C 0.61334 0.5497 0.44884 0.0
C811 C 0.59256 0.55208 0.44328 0.0
C812 C 0.58331 0.54794 0.38908 0.0
C813 C 0.56667 0.59701 0.28346 0.0
C814 C 0.54683 0.56138 0.2564 0.0
C815 C 0.57694 0.57863 0.28212 0.0
N816 N 0.56699 0.5611 0.26893 0.0
C817 C 0.53607 0.57948 0.25731 0.0
C818 C 0.5461 0.59739 0.27096 0.0
C819 C 0.5581 0.51336 0.17738 0.0
C820 C 0.62773 0.47669 0.13203 0.0
C821 C 0.58642 0.47092 0.13596 0.0
C822 C 0.59692 0.46659 0.08394 0.0
C823 C 0.61772 0.46949 0.08209 0.0
N824 N 0.59633 0.4779 0.18495 0.0
C825 C 0.61672 0.48086 0.18328 0.0
Co826 Co 0.28317 0.83952 1.00313 0.0
Co827 Co 0.23201 0.83586 0.01131 0.0
O828 O 0.25666 0.85246 0.00942 0.0
C829 C 0.29015 0.87688 0.07896 0.0
O830 O 0.27086 0.88118 0.08092 0.0
C831 C 0.22132 0.87056 0.93169 0.0
O832 O 0.2391 0.86953 0.90634 0.0
O833 O 0.23931 0.82413 0.93309 0.0
O834 O 0.27171 0.81737 0.95247 0.0
H835 H 0.19218 0.77185 0.9852 0.0
H836 H 0.27757 0.88247 0.96647 0.0
O837 O 0.29636 0.86112 0.05235 0.0
H838 H 0.30691 0.84857 0.79283 0.0
H839 H 0.35876 0.83724 0.98013 0.0
H840 H 0.29697 0.79713 0.01233 0.0
H841 H 0.30026 0.82957 0.88448 0.0
H842 H 0.32555 0.85383 0.98469 0.0
O843 O 0.21646 0.85804 0.97201 0.0
H844 H 0.2229 0.79289 0.98577 0.0
H845 H 0.1886 0.84402 0.03711 0.0
H846 H 0.32986 0.77992 0.00744 0.0
H847 H 0.28434 0.90212 0.87625 0.0
H848 H 0.36106 0.80002 0.99126 0.0
H849 H 0.29906 0.88518 0.78834 0.0
O850 O 0.27718 0.82388 0.07654 0.0
H851 H 0.22226 0.8924 0.15661 0.0
H852 H 0.21888 0.81872 0.12767 0.0
H853 H 0.21086 0.83303 0.22547 0.0
H854 H 0.21248 0.87014 0.24043 0.0
H855 H 0.23039 0.87742 0.05967 0.0
H856 H 0.15749 0.82357 0.03664 0.0
H857 H 0.15917 0.78718 0.01077 0.0
O858 O 0.24628 0.81313 0.05244 0.0
C859 C 0.25578 0.815 0.92144 0.0
C860 C 0.19126 0.78768 0.99666 0.0
C861 C 0.17179 0.81671 0.02544 0.0
N862 N 0.20758 0.81965 0.01168 0.0
C863 C 0.20861 0.79967 0.99715 0.0
C864 C 0.18945 0.82823 0.02545 0.0
C865 C 0.17274 0.79629 0.01096 0.0
C866 C 0.28432 0.875 0.92909 0.0
N867 N 0.28876 0.85489 0.93143 0.0
C868 C 0.28797 0.88621 0.87777 0.0
C869 C 0.29617 0.87669 0.82842 0.0
C870 C 0.30056 0.85615 0.8309 0.0
C871 C 0.29669 0.84544 0.88296 0.0
C872 C 0.34527 0.82832 0.98714 0.0
C873 C 0.31046 0.80597 0.00498 0.0
C874 C 0.32642 0.83763 0.98997 0.0
N875 N 0.3093 0.82644 0.99847 0.0
C876 C 0.32905 0.79615 1.00238 0.0
C877 C 0.34655 0.80743 0.99336 0.0
C878 C 0.26209 0.81221 0.08446 0.0
C879 C 0.22152 0.87621 0.15067 0.0
C880 C 0.21981 0.83486 0.13389 0.0
C881 C 0.21515 0.84289 0.18934 0.0
C882 C 0.21604 0.86371 0.19769 0.0
N883 N 0.22523 0.84721 0.08799 0.0
C884 C 0.22607 0.86764 0.09584 0.0
Co885 Co 0.93437 0.48616 0.77101 0.0
Co886 Co 0.93458 0.53795 0.76581 0.0
O887 O 0.91987 0.51207 0.76867 0.0
C888 C 0.89741 0.47834 0.69482 0.0
O889 O 0.89363 0.49766 0.68939 0.0
C890 C 0.89796 0.54574 0.84316 0.0
O891 O 0.89441 0.52638 0.84934 0.0
O892 O 0.94935 0.53057 0.83962 0.0
O893 O 0.95658 0.4983 0.81955 0.0
H894 H 0.9967 0.58133 0.77824 0.0
H895 H 0.89148 0.48736 0.81018 0.0
O896 O 0.91281 0.47229 0.72344 0.0
H897 H 0.92934 0.46104 0.98118 0.0
H898 H 0.94085 0.41061 0.7892 0.0
H899 H 0.9772 0.47461 0.75529 0.0
H900 H 0.94688 0.46967 0.88849 0.0
H901 H 0.92257 0.44297 0.78884 0.0
O902 O 0.91326 0.55189 0.81408 0.0
H903 H 0.97757 0.54937 0.77967 0.0
H904 H 0.92302 0.58117 0.7486 0.0
H905 H 0.99608 0.4426 0.7558 0.0
H906 H 0.87326 0.47853 0.90152 0.0
H907 H 0.97789 0.41029 0.77283 0.0
H908 H 0.89221 0.46535 0.9881 0.0
O909 O 0.94882 0.49348 0.6967 0.0
H910 H 0.873 0.54557 0.63736 0.0
H911 H 0.9467 0.55448 0.64797 0.0
H912 H 0.92883 0.56313 0.55588 0.0
H913 H 0.89166 0.55879 0.55018 0.0
H914 H 0.89152 0.53674 0.72808 0.0
H915 H 0.94155 0.61348 0.74735 0.0
H916 H 0.97868 0.61369 0.76198 0.0
O917 O 0.95648 0.52572 0.71633 0.0
C918 C 0.95924 0.5144 0.84947 0.0
C919 C 0.98053 0.58143 0.77167 0.0
C920 C 0.94958 0.59948 0.75442 0.0
N921 N 0.94921 0.56337 0.76395 0.0
C922 C 0.96962 0.56338 0.77233 0.0
C923 C 0.93916 0.58113 0.75536 0.0
C924 C 0.97041 0.59958 0.7626 0.0
C925 C 0.89985 0.48144 0.84721 0.0
N926 N 0.92028 0.47909 0.84372 0.0
C927 C 0.88944 0.47655 0.89905 0.0
C928 C 0.90008 0.46919 0.94764 0.0
C929 C 0.9209 0.4668 0.94382 0.0
C930 C 0.93079 0.47186 0.89126 0.0
C931 C 0.94895 0.42459 0.78178 0.0
C932 C 0.96918 0.46063 0.76299 0.0
C933 C 0.93867 0.44297 0.78136 0.0
N934 N 0.94882 0.4607 0.77231 0.0
C935 C 0.97995 0.44254 0.76312 0.0
C936 C 0.96973 0.42442 0.77263 0.0
C937 C 0.95878 0.5096 0.68628 0.0
C938 C 0.88919 0.54757 0.63929 0.0
C939 C 0.93059 0.55229 0.64574 0.0
C940 C 0.92052 0.55735 0.59351 0.0
C941 C 0.89967 0.55494 0.59037 0.0
N942 N 0.92023 0.54504 0.69362 0.0
C943 C 0.89978 0.54268 0.69078 0.0
H944 H 0.22707 0.31017 0.18581 0.0
H945 H 0.27562 0.27922 0.09683 0.0
H946 H 0.22951 0.28627 0.26812 0.0
H947 H 0.27756 0.25505 0.17714 0.0
H948 H 0.29126 0.22686 0.35483 0.0
H949 H 0.28839 0.25159 0.27542 0.0
H950 H 0.2237 0.25271 0.29874 0.0
H951 H 0.22666 0.22885 0.37971 0.0
C952 C 0.23803 0.29811 0.18342 0.0
C953 C 0.25118 0.29669 0.13487 0.0
C954 C 0.23945 0.28435 0.23054 0.0
C955 C 0.25389 0.26874 0.22981 0.0
C956 C 0.26661 0.26711 0.1803 0.0
C957 C 0.26536 0.28092 0.13379 0.0
C958 C 0.27643 0.23237 0.34302 0.0
C959 C 0.25921 0.22563 0.3735 0.0
C960 C 0.27474 0.24652 0.29714 0.0
C961 C 0.25576 0.25414 0.28006 0.0
C962 C 0.23859 0.24746 0.31088 0.0
C963 C 0.24029 0.23352 0.35711 0.0
H964 H 0.98018 0.03995 0.37959 0.0
H965 H 0.96986 0.97653 0.41337 0.0
H966 H 1.00385 0.04137 0.46033 0.0
H967 H 0.99497 0.97759 0.49239 0.0
H968 H 0.02452 0.99077 0.67051 0.0
H969 H 1.00091 0.98857 0.58853 0.0
H970 H 0.03558 0.03347 0.4932 0.0
H971 H 0.05846 0.03645 0.57707 0.0
C972 C 0.98303 0.02619 0.40401 0.0
C973 C 0.97273 1.00817 0.39034 0.0
C974 C 0.99697 0.02696 0.45016 0.0
C975 C 1.00152 0.00962 0.48342 0.0
C976 C 0.99163 0.9914 0.46877 0.0
C977 C 0.97731 0.99072 0.42304 0.0
C978 C 0.02702 1.00026 0.63211 0.0
C979 C 0.04327 0.01393 0.63049 0.0
C980 C 0.01356 0.99885 0.58464 0.0
C981 C 0.01619 0.0108 0.53369 0.0
C982 C 0.03268 0.0243 0.53196 0.0
C983 C 0.04591 0.026 0.58001 0.0
H984 H 0.23926 0.74786 0.59307 0.0
H985 H 0.28596 0.71508 0.68509 0.0
H986 H 0.23773 0.77212 0.67333 0.0
H987 H 0.28385 0.73891 0.7671 0.0
H988 H 0.28893 0.7952 0.87945 0.0
H989 H 0.29107 0.7718 0.79767 0.0
H990 H 0.22668 0.77657 0.77107 0.0
H991 H 0.22472 0.80107 0.8514 0.0
C992 C 0.24921 0.7458 0.63062 0.0
C993 C 0.26279 0.72953 0.63258 0.0
C994 C 0.24817 0.75965 0.67708 0.0
C995 C 0.26052 0.7575 0.72729 0.0
C996 C 0.27428 0.7413 0.72892 0.0
C997 C 0.2755 0.72757 0.68193 0.0
C998 C 0.27519 0.79149 0.85594 0.0
C999 C 0.25666 0.80032 0.87176 0.0
C1000 C 0.27641 0.77777 0.80922 0.0
C1001 C 0.25908 0.77216 0.77738 0.0
C1002 C 0.24046 0.78078 0.79367 0.0
C1003 C 0.23928 0.79477 0.84007 0.0
H1004 H 0.46994 0.9787 0.09935 0.0
H1005 H 0.47699 0.04287 0.1272 0.0
H1006 H 0.49435 0.98036 0.01864 0.0
H1007 H 0.50025 0.04474 0.04504 0.0
H1008 H 0.5567 0.03912 0.93237 0.0
H1009 H 0.5329 0.03717 0.01446 0.0
H1010 H 0.49908 0.99133 0.92085 0.0
H1011 H 0.52335 0.99268 0.84046 0.0
C1012 C 0.47647 0.99318 0.08789 0.0
C1013 C 0.47129 0.01064 0.11965 0.0
C1014 C 0.49041 0.9942 0.04128 0.0
C1015 C 0.49933 0.01273 0.02485 0.0
C1016 C 0.49405 0.03014 0.0567 0.0
C1017 C 0.48041 0.02908 0.10364 0.0
C1018 C 0.54409 0.02876 0.92924 0.0
C1019 C 0.54194 0.01609 0.87989 0.0
C1020 C 0.53037 0.02763 0.97629 0.0
C1021 C 0.51399 0.01401 0.97471 0.0
C1022 C 0.51168 1.00168 0.92453 0.0
C1023 C 0.52552 1.00261 0.87801 0.0
H1024 H 0.28582 0.81141 0.18395 0.0
H1025 H 0.23888 0.77834 0.0934 0.0
H1026 H 0.28405 0.78754 0.26609 0.0
H1027 H 0.2377 0.75402 0.17377 0.0
H1028 H 0.22523 0.72505 0.35229 0.0
H1029 H 0.22696 0.7495 0.27169 0.0
H1030 H 0.29139 0.75474 0.297 0.0
H1031 H 0.28947 0.73136 0.37916 0.0
C1032 C 0.27537 0.79885 0.18113 0.0
C1033 C 0.2625 0.79682 0.13216 0.0
C1034 C 0.27436 0.78509 0.2282 0.0
C1035 C 0.26063 0.76879 0.22703 0.0
C1036 C 0.24812 0.76657 0.17719 0.0
C1037 C 0.24895 0.78045 0.13066 0.0
C1038 C 0.23975 0.73144 0.34063 0.0
C1039 C 0.25721 0.72602 0.37208 0.0
C1040 C 0.2408 0.7454 0.29406 0.0
C1041 C 0.25936 0.75414 0.2773 0.0
C1042 C 0.27677 0.74866 0.3089 0.0
C1043 C 0.27569 0.73497 0.35583 0.0
H1044 H 0.46096 0.03989 0.43231 0.0
H1045 H 0.49335 0.99284 0.34081 0.0
H1046 H 0.48482 0.03773 0.51425 0.0
H1047 H 0.51766 0.99127 0.421 0.0
H1048 H 0.54665 0.97838 0.59942 0.0
H1049 H 0.52221 0.98035 0.51887 0.0
H1050 H 0.5177 0.04484 0.54456 0.0
H1051 H 0.54102 0.0427 0.62654 0.0
C1052 C 0.47338 0.02934 0.42924 0.0
C1053 C 0.47522 0.01655 0.38006 0.0
C1054 C 0.48713 0.0281 0.47619 0.0
C1055 C 0.50324 0.01423 0.47468 0.0
C1056 C 0.50527 1.0018 0.42465 0.0
C1057 C 0.49139 1.00285 0.37823 0.0
C1058 C 0.54042 0.99296 0.58782 0.0
C1059 C 0.54601 0.01037 0.61934 0.0
C1060 C 0.52647 0.99414 0.54131 0.0
C1061 C 0.51792 0.0128 0.52474 0.0
C1062 C 0.52361 0.03016 0.55634 0.0
C1063 C 0.53728 0.02893 0.60317 0.0
H1064 H 0.28689 0.23763 0.61974 0.0
H1065 H 0.22456 0.22344 0.65789 0.0
H1066 H 0.28766 0.26108 0.70104 0.0
H1067 H 0.22486 0.24835 0.73748 0.0
H1068 H 0.23755 0.27791 0.91524 0.0
H1069 H 0.2363 0.25443 0.83282 0.0
H1070 H 0.27838 0.29211 0.73624 0.0
H1071 H 0.28046 0.3149 0.82065 0.0
C1072 C 0.27321 0.23959 0.64522 0.0
C1073 C 0.25573 0.22826 0.63264 0.0
C1074 C 0.2736 0.2534 0.69172 0.0
C1075 C 0.25635 0.25678 0.72644 0.0
C1076 C 0.23862 0.2459 0.71276 0.0
C1077 C 0.23835 0.23171 0.6667 0.0
C1078 C 0.24666 0.28107 0.87649 0.0
C1079 C 0.25925 0.29816 0.87458 0.0
C1080 C 0.24576 0.2677 0.82877 0.0
C1081 C 0.25715 0.27125 0.77723 0.0
C1082 C 0.26967 0.28851 0.77539 0.0
C1083 C 0.27088 0.30167 0.82374 0.0
H1084 H 0.0562 0.98613 0.94491 0.0
H1085 H 0.02394 0.03372 0.85512 0.0
H1086 H 0.03252 0.98813 0.02725 0.0
H1087 H 0.99975 0.0351 0.93565 0.0
H1088 H 0.96954 0.04627 0.11306 0.0
H1089 H 0.99452 0.0452 0.03377 0.0
H1090 H 0.99975 0.98061 0.05641 0.0
H1091 H 0.97593 0.98187 0.13717 0.0
C1092 C 0.04389 0.99681 0.94238 0.0
C1093 C 0.04198 0.00972 0.8934 0.0
C1094 C 0.03022 0.99795 0.98954 0.0
C1095 C 0.0141 0.01181 0.98848 0.0
C1096 C 0.01213 0.02453 0.93895 0.0
C1097 C 0.02594 0.02359 0.89231 0.0
C1098 C 0.97607 0.03187 0.10111 0.0
C1099 C 0.9705 0.01417 0.13137 0.0
C1100 C 0.99034 0.0312 0.05531 0.0
C1101 C 0.99923 0.01278 0.03819 0.0
C1102 C 0.9936 0.99514 0.06865 0.0
C1103 C 0.97963 0.99585 0.11478 0.0
H1104 H 0.72637 0.72815 0.88248 0.0
H1105 H 0.7906 0.72241 0.85477 0.0
H1106 H 0.72423 0.75153 0.80045 0.0
H1107 H 0.78863 0.74686 0.77417 0.0
H1108 H 0.77612 0.77553 0.59589 0.0
H1109 H 0.77761 0.75126 0.67631 0.0
H1110 H 0.73143 0.78444 0.76964 0.0
H1111 H 0.72936 0.80829 0.68748 0.0
C1112 C 0.74011 0.73188 0.85899 0.0
C1113 C 0.75865 0.7231 0.875 0.0
C1114 C 0.73889 0.74558 0.81212 0.0
C1115 C 0.75622 0.75122 0.7803 0.0
C1116 C 0.77485 0.74264 0.79676 0.0
C1117 C 0.77604 0.72867 0.84331 0.0
C1118 C 0.76615 0.77758 0.63337 0.0
C1119 C 0.75256 0.79385 0.63516 0.0
C1120 C 0.76716 0.76373 0.67993 0.0
C1121 C 0.75479 0.76587 0.73006 0.0
C1122 C 0.74102 0.78206 0.73152 0.0
C1123 C 0.73983 0.7958 0.68444 0.0
H1124 H 0.78977 0.2875 0.39012 0.0
H1125 H 0.72747 0.30103 0.35061 0.0
H1126 H 0.79101 0.2644 0.30784 0.0
H1127 H 0.72826 0.27656 0.26994 0.0
H1128 H 0.74132 0.24731 0.09248 0.0
H1129 H 0.7402 0.27094 0.17456 0.0
H1130 H 0.78173 0.23322 0.27227 0.0
H1131 H 0.78365 0.21022 0.18839 0.0
C1132 C 0.77622 0.28548 0.36409 0.0
C1133 C 0.75859 0.29649 0.37667 0.0
C1134 C 0.77687 0.2719 0.31701 0.0
C1135 C 0.75977 0.26846 0.28167 0.0
C1136 C 0.74191 0.27907 0.29517 0.0
C1137 C 0.74137 0.29301 0.34185 0.0
C1138 C 0.75038 0.24419 0.13133 0.0
C1139 C 0.76271 0.22697 0.13378 0.0
C1140 C 0.74955 0.25765 0.17885 0.0
C1141 C 0.76076 0.25408 0.23069 0.0
C1142 C 0.77314 0.2368 0.23291 0.0
C1143 C 0.77426 0.22352 0.18482 0.0
H1144 H 0.78878 0.22917 0.87748 0.0
H1145 H 0.7241 0.22548 0.8562 0.0
H1146 H 0.79075 0.25308 0.79694 0.0
H1147 H 0.7259 0.25067 0.77754 0.0
H1148 H 0.7374 0.28095 0.60003 0.0
H1149 H 0.73527 0.25642 0.67972 0.0
H1150 H 0.78497 0.28603 0.76855 0.0
H1151 H 0.78774 0.30991 0.68683 0.0
C1152 C 0.7749 0.23347 0.85571 0.0
C1153 C 0.75628 0.22506 0.87301 0.0
C1154 C 0.77602 0.24752 0.80976 0.0
C1155 C 0.75851 0.25402 0.78034 0.0
C1156 C 0.73981 0.24582 0.79816 0.0
C1157 C 0.73872 0.23142 0.84363 0.0
C1158 C 0.74794 0.28217 0.6365 0.0
C1159 C 0.76283 0.29735 0.63691 0.0
C1160 C 0.7466 0.26817 0.68266 0.0
C1161 C 0.75989 0.26912 0.73113 0.0
C1162 C 0.7747 0.28445 0.73162 0.0
C1163 C 0.77626 0.29826 0.68484 0.0
H1164 H 0.72935 0.71187 0.18783 0.0
H1165 H 0.77552 0.7455 0.09547 0.0
H1166 H 0.73119 0.73579 0.2698 0.0
H1167 H 0.7768 0.76979 0.17567 0.0
H1168 H 0.78996 0.79862 0.35379 0.0
H1169 H 0.78802 0.77417 0.27334 0.0
H1170 H 0.72372 0.76863 0.30078 0.0
H1171 H 0.72584 0.79204 0.38267 0.0
C1172 C 0.73962 0.72455 0.18458 0.0
C1173 C 0.75229 0.72673 0.13517 0.0
C1174 C 0.74069 0.73833 0.23155 0.0
C1175 C 0.75427 0.75476 0.22984 0.0
C1176 C 0.76651 0.75714 0.17951 0.0
C1177 C 0.76563 0.74327 0.13308 0.0
C1178 C 0.77542 0.79217 0.34263 0.0
C1179 C 0.75806 0.79751 0.37459 0.0
C1180 C 0.77425 0.77821 0.29616 0.0
C1181 C 0.75566 0.76939 0.28005 0.0
C1182 C 0.73835 0.77478 0.31217 0.0
C1183 C 0.73956 0.78849 0.35895 0.0
H1184 H 0.54513 0.54531 0.10872 0.0
H1185 H 0.53678 0.48119 0.13492 0.0
H1186 H 0.52026 0.5445 0.0289 0.0
H1187 H 0.51318 0.48015 0.05381 0.0
H1188 H 0.45707 0.48617 0.94224 0.0
H1189 H 0.4807 0.48824 0.02462 0.0
H1190 H 0.51461 0.53408 0.931 0.0
H1191 H 0.49044 0.53266 0.85029 0.0
C1192 C 0.53821 0.53103 0.09714 0.0
C1193 C 0.54318 0.51333 0.12816 0.0
C1194 C 0.52401 0.5305 0.05106 0.0
C1195 C 0.5146 0.51222 0.0345 0.0
C1196 C 0.51969 0.49459 0.06564 0.0
C1197 C 0.53356 0.49517 0.11199 0.0
C1198 C 0.46963 0.49661 0.93923 0.0
C1199 C 0.47188 0.50917 0.88961 0.0
C1200 C 0.48327 0.49779 0.98643 0.0
C1201 C 0.49972 0.51134 0.9848 0.0
C1202 C 0.50201 0.52375 0.93468 0.0
C1203 C 0.48821 0.52277 0.88797 0.0
H1204 H 0.02539 0.49141 0.35821 0.0
H1205 H 0.05936 0.53767 0.44889 0.0
H1206 H 1.00149 0.49013 0.43955 0.0
H1207 H 0.03602 0.53572 0.53209 0.0
H1208 H 0.98036 0.54205 0.64602 0.0
H1209 H 1.0038 0.54356 0.56428 0.0
H1210 H 0.99659 0.47936 0.53687 0.0
H1211 H 0.97193 0.47811 0.61688 0.0
C1212 C 0.0278 0.50127 0.39578 0.0
C1213 C 0.04424 0.51473 0.39697 0.0
C1214 C 0.01417 0.50039 0.44287 0.0
C1215 C 0.01676 0.5127 0.49299 0.0
C1216 C 0.03324 0.52621 0.494 0.0
C1217 C 0.04671 0.52733 0.44633 0.0
C1218 C 0.98354 0.52822 0.62235 0.0
C1219 C 0.97391 0.50999 0.63768 0.0
C1220 C 0.9973 0.52906 0.57565 0.0
C1221 C 1.00221 0.51161 0.54347 0.0
C1222 C 0.99291 0.49324 0.55963 0.0
C1223 C 0.97885 0.49246 0.60591 0.0
H1224 H 0.02723 0.53121 0.17528 0.0
H1225 H 0.06032 0.48465 0.08389 0.0
H1226 H 1.0034 0.53304 0.09408 0.0
H1227 H 0.037 0.48716 1.00057 0.0
H1228 H 0.98076 0.48176 0.88783 0.0
H1229 H 1.00464 0.47988 0.96828 0.0
H1230 H 0.99837 0.54406 0.99738 0.0
H1231 H 0.97324 0.54568 0.91867 0.0
C1232 C 0.02949 0.52141 0.1375 0.0
C1233 C 0.04565 0.50771 0.13613 0.0
C1234 C 0.01589 0.52263 0.09045 0.0
C1235 C 0.01822 0.5104 0.0401 0.0
C1236 C 0.03444 0.49663 0.03883 0.0
C1237 C 0.04789 0.49519 0.08653 0.0
C1238 C 0.98424 0.49551 0.9116 0.0
C1239 C 0.97469 0.51385 0.89719 0.0
C1240 C 0.99827 0.49445 0.95754 0.0
C1241 C 1.00356 0.51177 0.9899 0.0
C1242 C 0.99441 0.53026 0.97451 0.0
C1243 C 0.98006 0.53126 0.92899 0.0
H1244 H 0.48799 0.49003 0.66662 0.0
H1245 H 0.45469 0.53615 0.57372 0.0
H1246 H 0.51152 0.48767 0.58463 0.0
H1247 H 0.47754 0.53303 0.48973 0.0
H1248 H 0.53327 0.5388 0.37622 0.0
H1249 H 0.50946 0.54051 0.45662 0.0
H1250 H 0.51711 0.4766 0.48853 0.0
H1251 H 0.54233 0.47523 0.40989 0.0
C1252 C 0.48561 0.49958 0.62832 0.0
C1253 C 0.46955 0.51341 0.62685 0.0
C1254 C 0.49902 0.49807 0.58083 0.0
C1255 C 0.49656 0.51008 0.52996 0.0
C1256 C 0.48029 0.52378 0.52841 0.0
C1257 C 0.46709 0.52557 0.57651 0.0
C1258 C 0.53011 0.52507 0.40054 0.0
C1259 C 0.54011 0.50692 0.38699 0.0
C1260 C 0.5161 0.52601 0.44648 0.0
C1261 C 0.51119 0.50873 0.47965 0.0
C1262 C 0.52075 0.49038 0.46501 0.0
C1263 C 0.53513 0.48952 0.4195 0.0
H1264 H 0.13898 0.47366 0.0875 0.0
H1265 H 0.1326 0.44518 0.2587 0.0
H1266 H 0.16602 0.44995 0.0629 0.0
H1267 H 0.1593 0.42161 0.23401 0.0
H1268 H 0.21897 0.39131 0.18919 0.0
H1269 H 0.1959 0.41888 0.2141 0.0
H1270 H 0.16773 0.41332 0.04253 0.0
H1271 H 0.19065 0.38611 0.01755 0.0
C1272 C 0.14339 0.46246 0.11993 0.0
C1273 C 0.13347 0.46122 0.17477 0.0
C1274 C 0.15883 0.44885 0.10583 0.0
C1275 C 0.1648 0.43387 0.14653 0.0
C1276 C 0.15526 0.43307 0.20193 0.0
C1277 C 0.13977 0.44651 0.21579 0.0
C1278 C 0.20793 0.39608 0.15676 0.0
C1279 C 0.20656 0.38635 0.10168 0.0
C1280 C 0.19469 0.41182 0.17103 0.0
C1281 C 0.17997 0.4183 0.13025 0.0
C1282 C 0.17902 0.4089 0.07468 0.0
C1283 C 0.19208 0.39312 0.06065 0.0
H1284 H 0.83224 0.87192 0.47299 0.0
H1285 H 0.78743 0.90125 0.36402 0.0
H1286 H 0.85589 0.89902 0.45263 0.0
H1287 H 0.8115 0.9285 0.34286 0.0
H1288 H 0.85477 0.98321 0.3694 0.0
H1289 H 0.82987 0.95701 0.39301 0.0
H1290 H 0.87538 0.91127 0.36849 0.0
H1291 H 0.90016 0.93722 0.34587 0.0
C1292 C 0.82742 0.88411 0.44437 0.0
C1293 C 0.8079 0.88431 0.4199 0.0
C1294 C 0.84107 0.89965 0.43255 0.0
C1295 C 0.83563 0.9159 0.39598 0.0
C1296 C 0.81608 0.91626 0.37164 0.0
C1297 C 0.80237 0.90057 0.38331 0.0
C1298 C 0.85949 0.96757 0.36979 0.0
C1299 C 0.87949 0.96234 0.3559 0.0
C1300 C 0.84517 0.95256 0.38266 0.0
C1301 C 0.85062 0.93205 0.38248 0.0
C1302 C 0.8707 0.92692 0.36961 0.0
C1303 C 0.88492 0.94183 0.35645 0.0
H1304 H 0.33108 0.6551 0.59188 0.0
H1305 H 0.28422 0.61025 0.61364 0.0
H1306 H 0.35644 0.63001 0.61565 0.0
H1307 H 0.30984 0.58502 0.63858 0.0
H1308 H 0.36521 0.54192 0.61301 0.0
H1309 H 0.33835 0.56617 0.59046 0.0
H1310 H 0.36786 0.61058 0.7004 0.0
H1311 H 0.39456 0.58681 0.72202 0.0
C1312 C 0.32614 0.63991 0.60233 0.0
C1313 C 0.30556 0.63473 0.60094 0.0
C1314 C 0.34072 0.62551 0.61616 0.0
C1315 C 0.33518 0.60549 0.629 0.0
C1316 C 0.3146 0.60027 0.6283 0.0
C1317 C 0.29992 0.61478 0.61468 0.0
C1318 C 0.36597 0.5569 0.63206 0.0
C1319 C 0.38214 0.56241 0.66901 0.0
C1320 C 0.35051 0.57072 0.61958 0.0
C1321 C 0.351 0.59034 0.6435 0.0
C1322 C 0.36713 0.59572 0.68056 0.0
C1323 C 0.38245 0.58199 0.69313 0.0
H1324 H 0.72713 0.12235 0.85637 0.0
H1325 H 0.68302 0.14892 0.97344 0.0
H1326 H 0.70357 0.09471 0.83499 0.0
H1327 H 0.65989 0.12142 0.95284 0.0
H1328 H 0.61532 0.08401 0.84489 0.0
H1329 H 0.63974 0.11007 0.86907 0.0
H1330 H 0.68643 0.065 0.88342 0.0
H1331 H 0.66185 0.03867 0.85817 0.0
C1332 C 0.71246 0.12234 0.87741 0.0
C1333 C 0.70695 0.13797 0.91624 0.0
C1334 C 0.69904 0.10642 0.86562 0.0
C1335 C 0.67983 0.1059 0.89212 0.0
C1336 C 0.67445 0.12148 0.93108 0.0
C1337 C 0.68779 0.13726 0.94299 0.0
C1338 C 0.63074 0.07955 0.85362 0.0
C1339 C 0.6366 0.05921 0.84965 0.0
C1340 C 0.64476 0.09453 0.86769 0.0
C1341 C 0.66506 0.08963 0.8781 0.0
C1342 C 0.67094 0.06927 0.87504 0.0
C1343 C 0.65682 0.05417 0.86125 0.0
H1344 H 0.16113 0.5401 0.37141 0.0
H1345 H 0.11635 0.58602 0.33805 0.0
H1346 H 0.18598 0.56646 0.39378 0.0
H1347 H 0.14108 0.61209 0.35944 0.0
H1348 H 0.18302 0.65214 0.46591 0.0
H1349 H 0.15951 0.62498 0.44509 0.0
H1350 H 0.20506 0.59447 0.34221 0.0
H1351 H 0.22898 0.62181 0.36383 0.0
C1352 C 0.15654 0.55576 0.36923 0.0
C1353 C 0.13672 0.56092 0.35312 0.0
C1354 C 0.17083 0.57084 0.38143 0.0
C1355 C 0.16551 0.59137 0.37831 0.0
C1356 C 0.14563 0.59644 0.36287 0.0
C1357 C 0.13145 0.58145 0.3504 0.0
C1358 C 0.18813 0.63971 0.43872 0.0
C1359 C 0.20792 0.63923 0.41634 0.0
C1360 C 0.17456 0.62414 0.4266 0.0
C1361 C 0.18037 0.60758 0.39186 0.0
C1362 C 0.20019 0.60697 0.36954 0.0
C1363 C 0.21382 0.6227 0.38144 0.0
H1364 H 0.64885 0.98069 0.60825 0.0
H1365 H 0.62059 0.93672 0.72308 0.0
H1366 H 0.67598 0.95661 0.58746 0.0
H1367 H 0.64757 0.91308 0.7031 0.0
H1368 H 0.68454 0.86797 0.59664 0.0
H1369 H 0.65894 0.89287 0.61973 0.0
H1370 H 0.70496 0.93874 0.63653 0.0
H1371 H 0.73082 0.91369 0.61238 0.0
C1372 C 0.64839 0.96594 0.62895 0.0
C1373 C 0.63243 0.96063 0.66698 0.0
C1374 C 0.66401 0.95222 0.61748 0.0
C1375 C 0.66391 0.93289 0.6435 0.0
C1376 C 0.648 0.92771 0.68168 0.0
C1377 C 0.63252 0.94136 0.69327 0.0
C1378 C 0.6893 0.88331 0.60566 0.0
C1379 C 0.70978 0.8888 0.60273 0.0
C1380 C 0.67458 0.89761 0.6191 0.0
C1381 C 0.67988 0.91782 0.62992 0.0
C1382 C 0.70038 0.92333 0.62781 0.0
C1383 C 0.7152 0.90893 0.61464 0.0
H1384 H 0.3537 0.48529 0.86296 0.0
H1385 H 0.39843 0.4386 0.84035 0.0
H1386 H 0.32838 0.45948 0.88648 0.0
H1387 H 0.37325 0.41305 0.86285 0.0
H1388 H 0.32985 0.37476 0.96955 0.0
H1389 H 0.35374 0.40148 0.94785 0.0
H1390 H 0.30956 0.43091 0.83724 0.0
H1391 H 0.28521 0.40401 0.85978 0.0
C1392 C 0.35818 0.46958 0.86343 0.0
C1393 C 0.37813 0.46405 0.84997 0.0
C1394 C 0.34362 0.4548 0.87626 0.0
C1395 C 0.34879 0.43421 0.87645 0.0
C1396 C 0.3688 0.42877 0.86372 0.0
C1397 C 0.38325 0.44346 0.85062 0.0
C1398 C 0.3251 0.38686 0.94052 0.0
C1399 C 0.30556 0.38715 0.91626 0.0
C1400 C 0.33891 0.40219 0.92788 0.0
C1401 C 0.33362 0.4183 0.89065 0.0
C1402 C 0.31404 0.41876 0.86649 0.0
C1403 C 0.30016 0.40327 0.87897 0.0
H1404 H 0.78363 0.10801 0.1116 0.0
H1405 H 0.83036 0.15284 0.08709 0.0
H1406 H 0.80939 0.08292 0.13677 0.0
H1407 H 0.85581 0.12791 0.11087 0.0
H1408 H 0.89423 0.08571 0.2192 0.0
H1409 H 0.86743 0.10918 0.19625 0.0
H1410 H 0.83793 0.06376 0.08982 0.0
H1411 H 0.86489 0.03979 0.11394 0.0
C1412 C 0.79933 0.11256 0.11199 0.0
C1413 C 0.80489 0.13247 0.09752 0.0
C1414 C 0.81409 0.09814 0.12574 0.0
C1415 C 0.83466 0.1034 0.12577 0.0
C1416 C 0.84011 0.12337 0.11196 0.0
C1417 C 0.82546 0.13768 0.0981 0.0
C1418 C 0.8821 0.0806 0.19082 0.0
C1419 C 0.88182 0.06081 0.16823 0.0
C1420 C 0.86673 0.09416 0.17744 0.0
C1421 C 0.85056 0.08841 0.14097 0.0
C1422 C 0.85011 0.0686 0.11845 0.0
C1423 C 0.86564 0.05494 0.13179 0.0
H1424 H 0.8336 0.65051 0.97474 0.0
H1425 H 0.78933 0.61933 0.868 0.0
H1426 H 0.85786 0.62401 0.95541 0.0
H1427 H 0.81401 0.59267 0.8479 0.0
H1428 H 0.85865 0.53936 0.8775 0.0
H1429 H 0.83315 0.56497 0.89981 0.0
H1430 H 0.87746 0.61186 0.8713 0.0
H1431 H 0.90282 0.58651 0.84992 0.0
C1432 C 0.82902 0.63803 0.94685 0.0
C1433 C 0.80948 0.63714 0.92271 0.0
C1434 C 0.84302 0.62283 0.93561 0.0
C1435 C 0.83791 0.60624 0.89999 0.0
C1436 C 0.81834 0.60519 0.87596 0.0
C1437 C 0.80428 0.62054 0.88701 0.0
C1438 C 0.86297 0.55513 0.87674 0.0
C1439 C 0.8828 0.56086 0.86211 0.0
C1440 C 0.84832 0.56979 0.88886 0.0
C1441 C 0.85326 0.59046 0.88719 0.0
C1442 C 0.87317 0.59609 0.87356 0.0
C1443 C 0.88772 0.58152 0.86112 0.0
H1444 H 0.21299 0.12544 0.54788 0.0
H1445 H 0.18845 0.15848 0.69598 0.0
H1446 H 0.19047 0.09731 0.56956 0.0
H1447 H 0.16634 0.13009 0.71873 0.0
H1448 H 0.11203 0.08933 0.6952 0.0
H1449 H 0.13672 0.1156 0.676 0.0
H1450 H 0.18143 0.07027 0.6361 0.0
H1451 H 0.15638 0.04377 0.65418 0.0
C1452 C 0.20308 0.12657 0.58584 0.0
C1453 C 0.20243 0.14434 0.61993 0.0
C1454 C 0.19018 0.11037 0.59835 0.0
C1455 C 0.17635 0.11149 0.6454 0.0
C1456 C 0.17644 0.12887 0.68125 0.0
C1457 C 0.18927 0.14511 0.66856 0.0
C1458 C 0.1271 0.08489 0.68215 0.0
C1459 C 0.13222 0.0644 0.67646 0.0
C1460 C 0.14135 0.10001 0.67164 0.0
C1461 C 0.16121 0.09511 0.65542 0.0
C1462 C 0.16626 0.07461 0.64831 0.0
C1463 C 0.1519 0.05941 0.65863 0.0
H1464 H 0.71433 0.39735 0.47072 0.0
H1465 H 0.68656 0.36433 0.32728 0.0
H1466 H 0.69158 0.42553 0.45295 0.0
H1467 H 0.66414 0.39272 0.30864 0.0
H1468 H 0.61114 0.43424 0.33926 0.0
H1469 H 0.63552 0.40766 0.35726 0.0
H1470 H 0.68198 0.45245 0.38557 0.0
H1471 H 0.65734 0.47925 0.36841 0.0
C1472 C 0.70361 0.39621 0.43469 0.0
C1473 C 0.70221 0.37846 0.40066 0.0
C1474 C 0.69058 0.41243 0.42444 0.0
C1475 C 0.67582 0.41133 0.37988 0.0
C1476 C 0.67502 0.39392 0.34423 0.0
C1477 C 0.68802 0.37769 0.35454 0.0
C1478 C 0.62651 0.4385 0.3497 0.0
C1479 C 0.63228 0.45893 0.35208 0.0
C1480 C 0.64057 0.4232 0.35951 0.0
C1481 C 0.66083 0.42786 0.37184 0.0
C1482 C 0.66649 0.44831 0.3763 0.0
C1483 C 0.65236 0.46368 0.36656 0.0
H1484 H 0.39494 0.93828 0.22362 0.0
H1485 H 0.36842 0.98239 0.10614 0.0
H1486 H 0.36748 0.91513 0.20308 0.0
H1487 H 0.34079 0.9588 0.08483 0.0
H1488 H 0.28484 0.91685 0.10814 0.0
H1489 H 0.31109 0.94156 0.13318 0.0
H1490 H 0.35625 0.89495 0.11921 0.0
H1491 H 0.33028 0.87041 0.09523 0.0
C1492 C 0.38329 0.94306 0.19311 0.0
C1493 C 0.38401 0.96221 0.1662 0.0
C1494 C 0.36753 0.92969 0.18123 0.0
C1495 C 0.35197 0.93505 0.14214 0.0
C1496 C 0.35248 0.95428 0.11555 0.0
C1497 C 0.36839 0.96772 0.12732 0.0
C1498 C 0.30035 0.91187 0.11123 0.0
C1499 C 0.30543 0.89164 0.09984 0.0
C1500 C 0.31539 0.92605 0.12491 0.0
C1501 C 0.33576 0.92023 0.12806 0.0
C1502 C 0.34071 0.89992 0.11777 0.0
C1503 C 0.32578 0.88584 0.10382 0.0
H1504 H 0.79042 0.40201 0.65737 0.0
H1505 H 0.83676 0.37301 0.55341 0.0
H1506 H 0.81416 0.42926 0.68169 0.0
H1507 H 0.86001 0.40009 0.57668 0.0
H1508 H 0.90294 0.43775 0.6873 0.0
H1509 H 0.87824 0.41196 0.66333 0.0
H1510 H 0.83331 0.45795 0.63353 0.0
H1511 H 0.85816 0.48405 0.65874 0.0
C1512 C 0.80562 0.40139 0.6399 0.0
C1513 C 0.81168 0.38524 0.60373 0.0
C1514 C 0.81914 0.41708 0.65334 0.0
C1515 C 0.83899 0.41681 0.63121 0.0
C1516 C 0.84494 0.40065 0.5951 0.0
C1517 C 0.83151 0.38512 0.58159 0.0
C1518 C 0.88784 0.44247 0.6754 0.0
C1519 C 0.88257 0.46301 0.67483 0.0
C1520 C 0.87367 0.42764 0.66144 0.0
C1521 C 0.8538 0.43289 0.64649 0.0
C1522 C 0.84846 0.45343 0.64544 0.0
C1523 C 0.86275 0.46837 0.65921 0.0
H1524 H 0.33519 0.15157 0.46276 0.0
H1525 H 0.28955 0.12246 0.35594 0.0
H1526 H 0.35835 0.12426 0.44235 0.0
H1527 H 0.3132 0.09501 0.33435 0.0
H1528 H 0.35595 0.04 0.35977 0.0
H1529 H 0.33134 0.06637 0.38315 0.0
H1530 H 0.3775 0.11177 0.35942 0.0
H1531 H 0.40197 0.0857 0.33754 0.0
C1532 C 0.33009 0.1394 0.43446 0.0
C1533 C 0.31048 0.13932 0.41073 0.0
C1534 C 0.34347 0.12373 0.4226 0.0
C1535 C 0.33769 0.10746 0.38653 0.0
C1536 C 0.31805 0.10725 0.36275 0.0
C1537 C 0.30458 0.12306 0.37461 0.0
C1538 C 0.36087 0.0556 0.36036 0.0
C1539 C 0.38096 0.0607 0.34695 0.0
C1540 C 0.34672 0.07071 0.37305 0.0
C1541 C 0.35244 0.09119 0.37303 0.0
C1542 C 0.3726 0.09617 0.36051 0.0
C1543 C 0.38665 0.08116 0.34774 0.0
H1544 H 0.65006 0.53805 0.11524 0.0
H1545 H 0.62041 0.5837 0.22021 0.0
H1546 H 0.67714 0.56217 0.09232 0.0
H1547 H 0.64732 0.60728 0.19852 0.0
H1548 H 0.68478 0.65136 0.09136 0.0
H1549 H 0.65925 0.62628 0.11426 0.0
H1550 H 0.70556 0.58137 0.13964 0.0
H1551 H 0.73139 0.6066 0.11529 0.0
C1552 C 0.64927 0.55316 0.13331 0.0
C1553 C 0.63296 0.55891 0.16929 0.0
C1554 C 0.66487 0.56691 0.12066 0.0
C1555 C 0.66437 0.58669 0.14343 0.0
C1556 C 0.64808 0.5923 0.1795 0.0
C1557 C 0.63263 0.57866 0.19216 0.0
C1558 C 0.68964 0.63619 0.10209 0.0
C1559 C 0.7102 0.63105 0.10158 0.0
C1560 C 0.67494 0.62178 0.11547 0.0
C1561 C 0.68033 0.60179 0.12885 0.0
C1562 C 0.7009 0.5966 0.12893 0.0
C1563 C 0.7157 0.61111 0.11566 0.0
H1564 H 0.18244 0.87421 0.96894 0.0
H1565 H 0.22735 0.90393 0.86073 0.0
H1566 H 0.15869 0.90104 0.94786 0.0
H1567 H 0.20318 0.93091 0.83887 0.0
H1568 H 0.15944 0.98523 0.86515 0.0
H1569 H 0.18451 0.95929 0.8885 0.0
H1570 H 0.13933 0.91304 0.86326 0.0
H1571 H 0.11438 0.93871 0.84093 0.0
C1572 C 0.18727 0.88643 0.94035 0.0
C1573 C 0.20684 0.88682 0.91631 0.0
C1574 C 0.17356 0.90182 0.9281 0.0
C1575 C 0.17898 0.9181 0.89152 0.0
C1576 C 0.19859 0.91865 0.86762 0.0
C1577 C 0.21237 0.90311 0.8797 0.0
C1578 C 0.15483 0.96953 0.86523 0.0
C1579 C 0.13486 0.96409 0.85134 0.0
C1580 C 0.16925 0.95467 0.87798 0.0
C1581 C 0.16393 0.93409 0.87767 0.0
C1582 C 0.1439 0.92874 0.86454 0.0
C1583 C 0.12959 0.94351 0.85152 0.0
loop_
_geom_bond_atom_site_label_1
_geom_bond_atom_site_label_2
_geom_bond_distance
_geom_bond_site_symmetry_2
_ccdc_geom_bond_type
Co0 O2 2.143 . S
Co0 O8 2.074 . S
Co0 O11 2.093 1_554 S
Co0 O24 2.097 1_554 S
Co0 N41 2.151 . S
Co0 N49 2.214 . S
Co1 O2 2.160 1_556 S
Co1 O7 2.058 1_556 S
Co1 O17 2.057 1_556 S
Co1 O32 2.037 . S
Co1 N36 2.145 . S
Co1 N57 2.257 . S
O2 Co0 2.143 . S
O2 Co1 2.160 1_554 S
C3 O4 1.278 . S
C3 O11 1.224 . S
O4 C3 1.278 . S
C5 O6 1.245 . S
C5 O17 1.232 . S
O6 C5 1.245 . S
O7 Co1 2.058 1_554 S
O7 C33 1.269 . S
O8 Co0 2.074 . S
O8 C33 1.257 . S
H9 C34 0.930 . S
H10 C40 0.930 . S
O11 Co0 2.093 1_556 S
O11 C3 1.224 . S
H12 C44 0.929 . S
H13 C46 0.930 . S
H14 C47 0.932 . S
H15 C45 0.929 . S
H16 C48 0.928 . S
O17 Co1 2.057 1_554 S
O17 C5 1.232 . S
H18 C37 0.929 . S
H19 C38 0.929 1_554 S
H20 C50 0.929 1_556 S
H21 C42 0.929 . S
H22 C51 0.930 . S
H23 C43 0.931 . S
O24 Co0 2.097 1_556 S
O24 C52 1.214 . S
H25 C53 0.929 . S
H26 C54 0.929 . S
H27 C55 0.930 . S
H28 C56 0.929 . S
H29 C58 0.930 . S
H30 C35 0.930 1_554 S
H31 C39 0.930 . S
O32 Co1 2.037 . S
O32 C52 1.234 . S
C33 O7 1.269 . S
C33 O8 1.257 . S
C34 H9 0.930 . S
C34 C37 1.388 . S
C34 C39 1.418 . S
C35 H30 0.930 1_556 S
C35 C38 1.404 . S
C35 C39 1.353 . S
N36 Co1 2.145 . S
N36 C37 1.397 . S
N36 C38 1.334 . S
C37 H18 0.929 . S
C37 C34 1.388 . S
C37 N36 1.397 . S
C38 H19 0.929 1_556 S
C38 C35 1.404 . S
C38 N36 1.334 . S
C39 H31 0.930 . S
C39 C34 1.418 . S
C39 C35 1.353 . S
C40 H10 0.930 . S
C40 N41 1.330 . S
C40 C42 1.446 . S
N41 Co0 2.151 . S
N41 C40 1.330 . S
N41 C45 1.418 . S
C42 H21 0.929 . S
C42 C40 1.446 . S
C42 C43 1.332 . S
C43 H23 0.931 . S
C43 C42 1.332 . S
C43 C44 1.267 . S
C44 H12 0.929 . S
C44 C43 1.267 . S
C44 C45 1.251 . S
C45 H15 0.929 . S
C45 N41 1.418 . S
C45 C44 1.251 . S
C46 H13 0.930 . S
C46 C48 1.406 . S
C46 C51 1.261 . S
C47 H14 0.932 . S
C47 N49 1.323 1_556 S
C47 C50 1.356 1_556 S
C48 H16 0.928 . S
C48 C46 1.406 . S
C48 N49 1.261 . S
N49 Co0 2.214 . S
N49 C47 1.323 1_554 S
N49 C48 1.261 . S
C50 H20 0.929 1_554 S
C50 C47 1.356 1_554 S
C50 C51 1.315 . S
C51 H22 0.930 . S
C51 C46 1.261 . S
C51 C50 1.315 . S
C52 O24 1.214 . S
C52 O32 1.234 . S
C53 H25 0.929 . S
C53 C56 1.391 . S
C53 C58 1.391 . S
C54 H26 0.929 . S
C54 C55 1.390 . S
C54 N57 1.391 . S
C55 H27 0.930 . S
C55 C54 1.390 . S
C55 C56 1.392 . S
C56 H28 0.929 . S
C56 C53 1.391 . S
C56 C55 1.392 . S
N57 Co1 2.257 . S
N57 C54 1.391 . S
N57 C58 1.388 . S
C58 H29 0.930 . S
C58 C53 1.391 . S
C58 N57 1.388 . S
Co59 O61 2.143 1_565 S
Co59 O67 2.074 . S
Co59 O70 2.093 . S
Co59 O83 2.097 . S
Co59 N100 2.151 . S
Co59 N108 2.214 . S
Co60 O61 2.160 . S
Co60 O66 2.058 . S
Co60 O76 2.057 . S
Co60 O91 2.037 . S
Co60 N95 2.145 . S
Co60 N116 2.257 . S
O61 Co59 2.143 1_545 S
O61 Co60 2.160 . S
C62 O63 1.278 . S
C62 O70 1.224 . S
O63 C62 1.278 . S
C64 O65 1.245 . S
C64 O76 1.232 . S
O65 C64 1.245 . S
O66 Co60 2.058 . S
O66 C92 1.269 . S
O67 Co59 2.074 . S
O67 C92 1.257 1_565 S
H68 C93 0.930 . S
H69 C99 0.930 . S
O70 Co59 2.093 . S
O70 C62 1.224 . S
H71 C103 0.929 . S
H72 C105 0.930 . S
H73 C106 0.930 . S
H74 C104 0.929 . S
H75 C107 0.928 . S
O76 Co60 2.057 . S
O76 C64 1.232 . S
H77 C96 0.929 . S
H78 C97 0.929 . S
H79 C109 0.931 . S
H80 C101 0.929 . S
H81 C110 0.930 . S
H82 C102 0.931 . S
O83 Co59 2.097 . S
O83 C111 1.178 1_565 S
H84 C112 0.929 . S
H85 C113 0.929 . S
H86 C114 0.930 . S
H87 C115 0.929 . S
H88 C117 0.930 . S
H89 C94 0.930 . S
H90 C98 0.930 . S
O91 Co60 2.037 . S
O91 C111 1.272 . S
C92 O66 1.269 . S
C92 O67 1.257 1_545 S
C93 H68 0.930 . S
C93 C96 1.388 . S
C93 C98 1.418 . S
C94 H89 0.930 . S
C94 C97 1.404 . S
C94 C98 1.353 . S
N95 Co60 2.145 . S
N95 C96 1.397 . S
N95 C97 1.334 . S
C96 H77 0.929 . S
C96 C93 1.388 . S
C96 N95 1.397 . S
C97 H78 0.929 . S
C97 C94 1.404 . S
C97 N95 1.334 . S
C98 H90 0.930 . S
C98 C93 1.418 . S
C98 C94 1.353 . S
C99 H69 0.930 . S
C99 N100 1.330 . S
C99 C101 1.446 . S
N100 Co59 2.151 . S
N100 C99 1.330 . S
N100 C104 1.418 . S
C101 H80 0.929 . S
C101 C99 1.446 . S
C101 C102 1.332 . S
C102 H82 0.931 . S
C102 C101 1.332 . S
C102 C103 1.267 . S
C103 H71 0.929 . S
C103 C102 1.267 . S
C103 C104 1.251 . S
C104 H74 0.929 . S
C104 N100 1.418 . S
C104 C103 1.251 . S
C105 H72 0.930 . S
C105 C107 1.406 . S
C105 C110 1.261 . S
C106 H73 0.930 . S
C106 N108 1.325 . S
C106 C109 1.357 . S
C107 H75 0.928 . S
C107 C105 1.406 . S
C107 N108 1.261 . S
N108 Co59 2.214 . S
N108 C106 1.325 . S
N108 C107 1.261 . S
C109 H79 0.931 . S
C109 C106 1.357 . S
C109 C110 1.312 . S
C110 H81 0.930 . S
C110 C105 1.261 . S
C110 C109 1.312 . S
C111 O83 1.178 1_545 S
C111 O91 1.272 . S
C112 H84 0.929 . S
C112 C115 1.391 . S
C112 C117 1.391 . S
C113 H85 0.929 . S
C113 C114 1.390 . S
C113 N116 1.391 . S
C114 H86 0.930 . S
C114 C113 1.390 . S
C114 C115 1.392 . S
C115 H87 0.929 . S
C115 C112 1.391 . S
C115 C114 1.392 . S
N116 Co60 2.257 . S
N116 C113 1.391 . S
N116 C117 1.388 . S
C117 H88 0.930 . S
C117 C112 1.391 . S
C117 N116 1.388 . S
Co118 O120 2.143 . S
Co118 O126 2.074 . S
Co118 O129 2.093 . S
Co118 O142 2.097 . S
Co118 N159 2.151 . S
Co118 N167 2.214 . S
Co119 O120 2.160 . S
Co119 O125 2.058 . S
Co119 O135 2.057 . S
Co119 O150 2.037 . S
Co119 N154 2.145 . S
Co119 N175 2.257 . S
O120 Co118 2.143 . S
O120 Co119 2.160 . S
C121 O122 1.278 . S
C121 O129 1.224 . S
O122 C121 1.278 . S
C123 O124 1.245 . S
C123 O135 1.232 . S
O124 C123 1.245 . S
O125 Co119 2.058 . S
O125 C151 1.269 . S
O126 Co118 2.074 . S
O126 C151 1.257 . S
H127 C152 0.930 . S
H128 C158 0.930 . S
O129 Co118 2.093 . S
O129 C121 1.224 . S
H130 C162 0.929 . S
H131 C164 0.930 . S
H132 C165 0.930 . S
H133 C163 0.929 . S
H134 C166 0.928 . S
O135 Co119 2.057 . S
O135 C123 1.232 . S
H136 C155 0.929 . S
H137 C156 0.929 . S
H138 C168 0.931 . S
H139 C160 0.929 . S
H140 C169 0.930 . S
H141 C161 0.931 . S
O142 Co118 2.097 . S
O142 C170 1.214 . S
H143 C171 0.929 . S
H144 C172 0.929 . S
H145 C173 0.930 . S
H146 C174 0.929 . S
H147 C176 0.930 . S
H148 C153 0.930 . S
H149 C157 0.930 . S
O150 Co119 2.037 . S
O150 C170 1.234 . S
C151 O125 1.269 . S
C151 O126 1.257 . S
C152 H127 0.930 . S
C152 C155 1.388 . S
C152 C157 1.418 . S
C153 H148 0.930 . S
C153 C156 1.404 . S
C153 C157 1.353 . S
N154 Co119 2.145 . S
N154 C155 1.397 . S
N154 C156 1.334 . S
C155 H136 0.929 . S
C155 C152 1.388 . S
C155 N154 1.397 . S
C156 H137 0.929 . S
C156 C153 1.404 . S
C156 N154 1.334 . S
C157 H149 0.930 . S
C157 C152 1.418 . S
C157 C153 1.353 . S
C158 H128 0.930 . S
C158 N159 1.330 . S
C158 C160 1.446 . S
N159 Co118 2.151 . S
N159 C158 1.330 . S
N159 C163 1.418 . S
C160 H139 0.929 . S
C160 C158 1.446 . S
C160 C161 1.332 . S
C161 H141 0.931 . S
C161 C160 1.332 . S
C161 C162 1.267 . S
C162 H130 0.929 . S
C162 C161 1.267 . S
C162 C163 1.251 . S
C163 H133 0.929 . S
C163 N159 1.418 . S
C163 C162 1.251 . S
C164 H131 0.930 . S
C164 C166 1.406 . S
C164 C169 1.261 . S
C165 H132 0.930 . S
C165 N167 1.325 . S
C165 C168 1.357 . S
C166 H134 0.928 . S
C166 C164 1.406 . S
C166 N167 1.261 . S
N167 Co118 2.214 . S
N167 C165 1.325 . S
N167 C166 1.261 . S
C168 H138 0.931 . S
C168 C165 1.357 . S
C168 C169 1.312 . S
C169 H140 0.930 . S
C169 C164 1.261 . S
C169 C168 1.312 . S
C170 O142 1.214 . S
C170 O150 1.234 . S
C171 H143 0.929 . S
C171 C174 1.391 . S
C171 C176 1.391 . S
C172 H144 0.929 . S
C172 C173 1.390 . S
C172 N175 1.391 . S
C173 H145 0.930 . S
C173 C172 1.390 . S
C173 C174 1.392 . S
C174 H146 0.929 . S
C174 C171 1.391 . S
C174 C173 1.392 . S
N175 Co119 2.257 . S
N175 C172 1.391 . S
N175 C176 1.388 . S
C176 H147 0.930 . S
C176 C171 1.391 . S
C176 N175 1.388 . S
Co177 O179 2.143 . S
Co177 O185 2.074 . S
Co177 O188 2.093 . S
Co177 O201 2.097 . S
Co177 N218 2.151 . S
Co177 N226 2.214 . S
Co178 O179 2.160 1_565 S
Co178 O184 2.058 . S
Co178 O194 2.057 . S
Co178 O209 2.037 . S
Co178 N213 2.145 . S
Co178 N234 2.257 . S
O179 Co177 2.143 . S
O179 Co178 2.160 1_545 S
C180 O181 1.278 . S
C180 O188 1.224 . S
O181 C180 1.278 . S
C182 O183 1.245 . S
C182 O194 1.232 . S
O183 C182 1.245 . S
O184 Co178 2.058 . S
O184 C210 1.249 1_565 S
O185 Co177 2.074 . S
O185 C210 1.279 . S
H186 C211 0.930 . S
H187 C217 0.930 . S
O188 Co177 2.093 . S
O188 C180 1.224 . S
H189 C221 0.929 . S
H190 C223 0.930 . S
H191 C224 0.930 . S
H192 C222 0.929 . S
H193 C225 0.928 . S
O194 Co178 2.057 . S
O194 C182 1.232 . S
H195 C214 0.929 . S
H196 C215 0.929 . S
H197 C227 0.931 . S
H198 C219 0.929 . S
H199 C228 0.930 . S
H200 C220 0.931 . S
O201 Co177 2.097 . S
O201 C229 1.214 . S
H202 C230 0.929 . S
H203 C231 0.929 . S
H204 C232 0.930 . S
H205 C233 0.929 . S
H206 C235 0.930 . S
H207 C212 0.930 . S
H208 C216 0.930 . S
O209 Co178 2.037 . S
O209 C229 1.234 1_565 S
C210 O184 1.249 1_545 S
C210 O185 1.279 . S
C211 H186 0.930 . S
C211 C214 1.388 . S
C211 C216 1.418 . S
C212 H207 0.930 . S
C212 C215 1.404 . S
C212 C216 1.353 . S
N213 Co178 2.145 . S
N213 C214 1.397 . S
N213 C215 1.334 . S
C214 H195 0.929 . S
C214 C211 1.388 . S
C214 N213 1.397 . S
C215 H196 0.929 . S
C215 C212 1.404 . S
C215 N213 1.334 . S
C216 H208 0.930 . S
C216 C211 1.418 . S
C216 C212 1.353 . S
C217 H187 0.930 . S
C217 N218 1.330 . S
C217 C219 1.446 . S
N218 Co177 2.151 . S
N218 C217 1.330 . S
N218 C222 1.418 . S
C219 H198 0.929 . S
C219 C217 1.446 . S
C219 C220 1.332 . S
C220 H200 0.931 . S
C220 C219 1.332 . S
C220 C221 1.267 . S
C221 H189 0.929 . S
C221 C220 1.267 . S
C221 C222 1.251 . S
C222 H192 0.929 . S
C222 N218 1.418 . S
C222 C221 1.251 . S
C223 H190 0.930 . S
C223 C225 1.406 . S
C223 C228 1.261 . S
C224 H191 0.930 . S
C224 N226 1.325 . S
C224 C227 1.357 . S
C225 H193 0.928 . S
C225 C223 1.406 . S
C225 N226 1.261 . S
N226 Co177 2.214 . S
N226 C224 1.325 . S
N226 C225 1.261 . S
C227 H197 0.931 . S
C227 C224 1.357 . S
C227 C228 1.312 . S
C228 H199 0.930 . S
C228 C223 1.261 . S
C228 C227 1.312 . S
C229 O201 1.214 . S
C229 O209 1.234 1_545 S
C230 H202 0.929 . S
C230 C233 1.391 . S
C230 C235 1.391 . S
C231 H203 0.929 . S
C231 C232 1.390 . S
C231 N234 1.391 . S
C232 H204 0.930 . S
C232 C231 1.390 . S
C232 C233 1.392 . S
C233 H205 0.929 . S
C233 C230 1.391 . S
C233 C232 1.392 . S
N234 Co178 2.257 . S
N234 C231 1.391 . S
N234 C235 1.388 . S
C235 H206 0.930 . S
C235 C230 1.391 . S
C235 N234 1.388 . S
Co236 O238 2.143 . S
Co236 O244 2.074 1_554 S
Co236 O247 2.093 . S
Co236 O260 2.097 . S
Co236 N277 2.151 1_554 S
Co236 N285 2.214 . S
Co237 O238 2.160 . S
Co237 O243 2.058 1_554 S
Co237 O253 2.057 1_554 S
Co237 O268 2.037 . S
Co237 N272 2.145 . S
Co237 N293 2.257 . S
O238 Co236 2.143 . S
O238 Co237 2.160 . S
C239 O240 1.278 . S
C239 O247 1.224 . S
O240 C239 1.278 . S
C241 O242 1.245 . S
C241 O253 1.232 . S
O242 C241 1.245 . S
O243 Co237 2.058 1_556 S
O243 C269 1.269 . S
O244 Co236 2.074 1_556 S
O244 C269 1.257 . S
H245 C270 0.930 . S
H246 C276 0.930 . S
O247 Co236 2.093 . S
O247 C239 1.224 . S
H248 C280 0.929 . S
H249 C282 0.930 . S
H250 C283 0.930 . S
H251 C281 0.929 . S
H252 C284 0.928 . S
O253 Co237 2.057 1_556 S
O253 C241 1.232 . S
H254 C273 0.929 . S
H255 C274 0.929 . S
H256 C286 0.931 . S
H257 C278 0.929 . S
H258 C287 0.930 . S
H259 C279 0.931 . S
O260 Co236 2.097 . S
O260 C288 1.214 . S
H261 C289 0.929 . S
H262 C290 0.929 . S
H263 C291 0.930 . S
H264 C292 0.929 . S
H265 C294 0.930 . S
H266 C271 0.930 . S
H267 C275 0.930 . S
O268 Co237 2.037 . S
O268 C288 1.234 . S
C269 O243 1.269 . S
C269 O244 1.257 . S
C270 H245 0.930 . S
C270 C273 1.388 . S
C270 C275 1.418 . S
C271 H266 0.930 . S
C271 C274 1.404 . S
C271 C275 1.353 . S
N272 Co237 2.145 . S
N272 C273 1.397 . S
N272 C274 1.334 . S
C273 H254 0.929 . S
C273 C270 1.388 . S
C273 N272 1.397 . S
C274 H255 0.929 . S
C274 C271 1.404 . S
C274 N272 1.334 . S
C275 H267 0.930 . S
C275 C270 1.418 . S
C275 C271 1.353 . S
C276 H246 0.930 . S
C276 N277 1.330 . S
C276 C278 1.446 . S
N277 Co236 2.151 1_556 S
N277 C276 1.330 . S
N277 C281 1.418 . S
C278 H257 0.929 . S
C278 C276 1.446 . S
C278 C279 1.332 . S
C279 H259 0.931 . S
C279 C278 1.332 . S
C279 C280 1.267 . S
C280 H248 0.929 . S
C280 C279 1.267 . S
C280 C281 1.251 . S
C281 H251 0.929 . S
C281 N277 1.418 . S
C281 C280 1.251 . S
C282 H249 0.930 . S
C282 C284 1.406 . S
C282 C287 1.261 1_556 S
C283 H250 0.930 . S
C283 N285 1.325 . S
C283 C286 1.357 . S
C284 H252 0.928 . S
C284 C282 1.406 . S
C284 N285 1.261 1_556 S
N285 Co236 2.214 . S
N285 C283 1.325 . S
N285 C284 1.261 1_554 S
C286 H256 0.931 . S
C286 C283 1.357 . S
C286 C287 1.312 . S
C287 H258 0.930 . S
C287 C282 1.261 1_554 S
C287 C286 1.312 . S
C288 O260 1.214 . S
C288 O268 1.234 . S
C289 H261 0.929 . S
C289 C292 1.391 . S
C289 C294 1.391 . S
C290 H262 0.929 . S
C290 C291 1.390 . S
C290 N293 1.391 . S
C291 H263 0.930 . S
C291 C290 1.390 . S
C291 C292 1.392 . S
C292 H264 0.929 . S
C292 C289 1.391 . S
C292 C291 1.392 . S
N293 Co237 2.257 . S
N293 C290 1.391 . S
N293 C294 1.388 . S
C294 H265 0.930 . S
C294 C289 1.391 . S
C294 N293 1.388 . S
Co295 O297 2.143 . S
Co295 O303 2.074 . S
Co295 O306 2.093 . S
Co295 O319 2.097 . S
Co295 N336 2.151 . S
Co295 N344 2.214 . S
Co296 O297 2.160 1_565 S
Co296 O302 2.058 . S
Co296 O312 2.057 . S
Co296 O327 2.037 . S
Co296 N331 2.145 . S
Co296 N352 2.257 . S
O297 Co295 2.143 . S
O297 Co296 2.160 1_545 S
C298 O299 1.278 . S
C298 O306 1.224 . S
O299 C298 1.278 . S
C300 O301 1.245 . S
C300 O312 1.232 . S
O301 C300 1.245 . S
O302 Co296 2.058 . S
O302 C328 1.249 1_565 S
O303 Co295 2.074 . S
O303 C328 1.279 . S
H304 C329 0.930 . S
H305 C335 0.930 . S
O306 Co295 2.093 . S
O306 C298 1.224 . S
H307 C339 0.929 . S
H308 C341 0.930 . S
H309 C342 0.930 . S
H310 C340 0.929 . S
H311 C343 0.928 . S
O312 Co296 2.057 . S
O312 C300 1.232 . S
H313 C332 0.929 . S
H314 C333 0.929 . S
H315 C345 0.931 . S
H316 C337 0.929 . S
H317 C346 0.930 . S
H318 C338 0.931 . S
O319 Co295 2.097 . S
O319 C347 1.214 . S
H320 C348 0.929 . S
H321 C349 0.929 . S
H322 C350 0.930 . S
H323 C351 0.929 . S
H324 C353 0.930 . S
H325 C330 0.930 . S
H326 C334 0.930 . S
O327 Co296 2.037 . S
O327 C347 1.234 1_565 S
C328 O302 1.249 1_545 S
C328 O303 1.279 . S
C329 H304 0.930 . S
C329 C332 1.388 . S
C329 C334 1.418 . S
C330 H325 0.930 . S
C330 C333 1.404 . S
C330 C334 1.353 . S
N331 Co296 2.145 . S
N331 C332 1.397 . S
N331 C333 1.334 . S
C332 H313 0.929 . S
C332 C329 1.388 . S
C332 N331 1.397 . S
C333 H314 0.929 . S
C333 C330 1.404 . S
C333 N331 1.334 . S
C334 H326 0.930 . S
C334 C329 1.418 . S
C334 C330 1.353 . S
C335 H305 0.930 . S
C335 N336 1.330 . S
C335 C337 1.446 . S
N336 Co295 2.151 . S
N336 C335 1.330 . S
N336 C340 1.418 . S
C337 H316 0.929 . S
C337 C335 1.446 . S
C337 C338 1.332 . S
C338 H318 0.931 . S
C338 C337 1.332 . S
C338 C339 1.267 . S
C339 H307 0.929 . S
C339 C338 1.267 . S
C339 C340 1.251 . S
C340 H310 0.929 . S
C340 N336 1.418 . S
C340 C339 1.251 . S
C341 H308 0.930 . S
C341 C343 1.406 . S
C341 C346 1.261 . S
C342 H309 0.930 . S
C342 N344 1.325 . S
C342 C345 1.357 . S
C343 H311 0.928 . S
C343 C341 1.406 . S
C343 N344 1.261 . S
N344 Co295 2.214 . S
N344 C342 1.325 . S
N344 C343 1.261 . S
C345 H315 0.931 . S
C345 C342 1.357 . S
C345 C346 1.312 . S
C346 H317 0.930 . S
C346 C341 1.261 . S
C346 C345 1.312 . S
C347 O319 1.214 . S
C347 O327 1.234 1_545 S
C348 H320 0.929 . S
C348 C351 1.391 . S
C348 C353 1.391 . S
C349 H321 0.929 . S
C349 C350 1.390 . S
C349 N352 1.391 . S
C350 H322 0.930 . S
C350 C349 1.390 . S
C350 C351 1.392 . S
C351 H323 0.929 . S
C351 C348 1.391 . S
C351 C350 1.392 . S
N352 Co296 2.257 . S
N352 C349 1.391 . S
N352 C353 1.388 . S
C353 H324 0.930 . S
C353 C348 1.391 . S
C353 N352 1.388 . S
Co354 O356 2.143 . S
Co354 O362 2.074 . S
Co354 O365 2.093 . S
Co354 O378 2.097 . S
Co354 N395 2.151 . S
Co354 N403 2.214 . S
Co355 O356 2.160 . S
Co355 O361 2.058 . S
Co355 O371 2.057 . S
Co355 O386 2.037 . S
Co355 N390 2.145 . S
Co355 N411 2.257 . S
O356 Co354 2.143 . S
O356 Co355 2.160 . S
C357 O358 1.278 . S
C357 O365 1.224 . S
O358 C357 1.278 . S
C359 O360 1.245 . S
C359 O371 1.232 . S
O360 C359 1.245 . S
O361 Co355 2.058 . S
O361 C387 1.269 . S
O362 Co354 2.074 . S
O362 C387 1.257 . S
H363 C388 0.930 . S
H364 C394 0.930 . S
O365 Co354 2.093 . S
O365 C357 1.224 . S
H366 C398 0.929 . S
H367 C400 0.930 . S
H368 C401 0.930 . S
H369 C399 0.929 . S
H370 C402 0.928 . S
O371 Co355 2.057 . S
O371 C359 1.232 . S
H372 C391 0.929 . S
H373 C392 0.929 . S
H374 C404 0.931 . S
H375 C396 0.929 . S
H376 C405 0.930 . S
H377 C397 0.931 . S
O378 Co354 2.097 . S
O378 C406 1.214 . S
H379 C407 0.929 . S
H380 C408 0.929 . S
H381 C409 0.930 . S
H382 C410 0.929 . S
H383 C412 0.930 . S
H384 C389 0.930 . S
H385 C393 0.930 . S
O386 Co355 2.037 . S
O386 C406 1.234 . S
C387 O361 1.269 . S
C387 O362 1.257 . S
C388 H363 0.930 . S
C388 C391 1.388 . S
C388 C393 1.418 . S
C389 H384 0.930 . S
C389 C392 1.404 . S
C389 C393 1.353 . S
N390 Co355 2.145 . S
N390 C391 1.397 . S
N390 C392 1.334 . S
C391 H372 0.929 . S
C391 C388 1.388 . S
C391 N390 1.397 . S
C392 H373 0.929 . S
C392 C389 1.404 . S
C392 N390 1.334 . S
C393 H385 0.930 . S
C393 C388 1.418 . S
C393 C389 1.353 . S
C394 H364 0.930 . S
C394 N395 1.330 . S
C394 C396 1.446 . S
N395 Co354 2.151 . S
N395 C394 1.330 . S
N395 C399 1.418 . S
C396 H375 0.929 . S
C396 C394 1.446 . S
C396 C397 1.332 . S
C397 H377 0.931 . S
C397 C396 1.332 . S
C397 C398 1.267 . S
C398 H366 0.929 . S
C398 C397 1.267 . S
C398 C399 1.251 . S
C399 H369 0.929 . S
C399 N395 1.418 . S
C399 C398 1.251 . S
C400 H367 0.930 . S
C400 C402 1.406 . S
C400 C405 1.261 . S
C401 H368 0.930 . S
C401 N403 1.325 . S
C401 C404 1.357 . S
C402 H370 0.928 . S
C402 C400 1.406 . S
C402 N403 1.261 . S
N403 Co354 2.214 . S
N403 C401 1.325 . S
N403 C402 1.261 . S
C404 H374 0.931 . S
C404 C401 1.357 . S
C404 C405 1.312 . S
C405 H376 0.930 . S
C405 C400 1.261 . S
C405 C404 1.312 . S
C406 O378 1.214 . S
C406 O386 1.234 . S
C407 H379 0.929 . S
C407 C410 1.391 . S
C407 C412 1.391 . S
C408 H380 0.929 . S
C408 C409 1.390 . S
C408 N411 1.391 . S
C409 H381 0.930 . S
C409 C408 1.390 . S
C409 C410 1.392 . S
C410 H382 0.929 . S
C410 C407 1.391 . S
C410 C409 1.392 . S
N411 Co355 2.257 . S
N411 C408 1.391 . S
N411 C412 1.388 . S
C412 H383 0.930 . S
C412 C407 1.391 . S
C412 N411 1.388 . S
Co413 O415 2.143 1_565 S
Co413 O421 2.074 . S
Co413 O424 2.093 . S
Co413 O437 2.097 . S
Co413 N454 2.151 . S
Co413 N462 2.214 . S
Co414 O415 2.160 . S
Co414 O420 2.058 . S
Co414 O430 2.057 . S
Co414 O445 2.037 . S
Co414 N449 2.145 . S
Co414 N470 2.257 . S
O415 Co413 2.143 1_545 S
O415 Co414 2.160 . S
C416 O417 1.278 . S
C416 O424 1.224 . S
O417 C416 1.278 . S
C418 O419 1.245 . S
C418 O430 1.232 . S
O419 C418 1.245 . S
O420 Co414 2.058 . S
O420 C446 1.269 . S
O421 Co413 2.074 . S
O421 C446 1.257 1_565 S
H422 C447 0.930 . S
H423 C453 0.930 . S
O424 Co413 2.093 . S
O424 C416 1.224 . S
H425 C457 0.929 . S
H426 C459 0.930 . S
H427 C460 0.930 . S
H428 C458 0.929 . S
H429 C461 0.928 . S
O430 Co414 2.057 . S
O430 C418 1.232 . S
H431 C450 0.929 . S
H432 C451 0.929 . S
H433 C463 0.931 . S
H434 C455 0.929 . S
H435 C464 0.930 . S
H436 C456 0.931 . S
O437 Co413 2.097 . S
O437 C465 1.178 1_565 S
H438 C466 0.929 . S
H439 C467 0.929 . S
H440 C468 0.930 . S
H441 C469 0.929 . S
H442 C471 0.930 . S
H443 C448 0.930 . S
H444 C452 0.930 . S
O445 Co414 2.037 . S
O445 C465 1.272 . S
C446 O420 1.269 . S
C446 O421 1.257 1_545 S
C447 H422 0.930 . S
C447 C450 1.388 . S
C447 C452 1.418 . S
C448 H443 0.930 . S
C448 C451 1.404 . S
C448 C452 1.353 . S
N449 Co414 2.145 . S
N449 C450 1.397 . S
N449 C451 1.334 . S
C450 H431 0.929 . S
C450 C447 1.388 . S
C450 N449 1.397 . S
C451 H432 0.929 . S
C451 C448 1.404 . S
C451 N449 1.334 . S
C452 H444 0.930 . S
C452 C447 1.418 . S
C452 C448 1.353 . S
C453 H423 0.930 . S
C453 N454 1.330 . S
C453 C455 1.446 . S
N454 Co413 2.151 . S
N454 C453 1.330 . S
N454 C458 1.418 . S
C455 H434 0.929 . S
C455 C453 1.446 . S
C455 C456 1.332 . S
C456 H436 0.931 . S
C456 C455 1.332 . S
C456 C457 1.267 . S
C457 H425 0.929 . S
C457 C456 1.267 . S
C457 C458 1.251 . S
C458 H428 0.929 . S
C458 N454 1.418 . S
C458 C457 1.251 . S
C459 H426 0.930 . S
C459 C461 1.406 . S
C459 C464 1.261 . S
C460 H427 0.930 . S
C460 N462 1.325 . S
C460 C463 1.357 . S
C461 H429 0.928 . S
C461 C459 1.406 . S
C461 N462 1.261 . S
N462 Co413 2.214 . S
N462 C460 1.325 . S
N462 C461 1.261 . S
C463 H433 0.931 . S
C463 C460 1.357 . S
C463 C464 1.312 . S
C464 H435 0.930 . S
C464 C459 1.261 . S
C464 C463 1.312 . S
C465 O437 1.178 1_545 S
C465 O445 1.272 . S
C466 H438 0.929 . S
C466 C469 1.391 . S
C466 C471 1.391 . S
C467 H439 0.929 . S
C467 C468 1.390 . S
C467 N470 1.391 . S
C468 H440 0.930 . S
C468 C467 1.390 . S
C468 C469 1.392 . S
C469 H441 0.929 . S
C469 C466 1.391 . S
C469 C468 1.392 . S
N470 Co414 2.257 . S
N470 C467 1.391 . S
N470 C471 1.388 . S
C471 H442 0.930 . S
C471 C466 1.391 . S
C471 N470 1.388 . S
Co472 O474 2.143 . S
Co472 O480 2.074 . S
Co472 O483 2.093 . S
Co472 O496 2.097 . S
Co472 N513 2.151 . S
Co472 N521 2.214 . S
Co473 O474 2.160 . S
Co473 O479 2.058 . S
Co473 O489 2.057 . S
Co473 O504 2.037 . S
Co473 N508 2.145 . S
Co473 N529 2.257 . S
O474 Co472 2.143 . S
O474 Co473 2.160 . S
C475 O476 1.278 . S
C475 O483 1.224 . S
O476 C475 1.278 . S
C477 O478 1.245 . S
C477 O489 1.232 . S
O478 C477 1.245 . S
O479 Co473 2.058 . S
O479 C505 1.269 . S
O480 Co472 2.074 . S
O480 C505 1.257 . S
H481 C506 0.930 . S
H482 C512 0.930 . S
O483 Co472 2.093 . S
O483 C475 1.224 . S
H484 C516 0.929 . S
H485 C518 0.930 . S
H486 C519 0.930 . S
H487 C517 0.929 . S
H488 C520 0.928 . S
O489 Co473 2.057 . S
O489 C477 1.232 . S
H490 C509 0.929 . S
H491 C510 0.929 . S
H492 C522 0.931 . S
H493 C514 0.929 . S
H494 C523 0.930 . S
H495 C515 0.931 . S
O496 Co472 2.097 . S
O496 C524 1.214 . S
H497 C525 0.929 . S
H498 C526 0.929 . S
H499 C527 0.930 . S
H500 C528 0.929 . S
H501 C530 0.930 . S
H502 C507 0.930 . S
H503 C511 0.930 . S
O504 Co473 2.037 . S
O504 C524 1.234 . S
C505 O479 1.269 . S
C505 O480 1.257 . S
C506 H481 0.930 . S
C506 C509 1.388 . S
C506 C511 1.418 . S
C507 H502 0.930 . S
C507 C510 1.404 . S
C507 C511 1.353 . S
N508 Co473 2.145 . S
N508 C509 1.397 . S
N508 C510 1.334 . S
C509 H490 0.929 . S
C509 C506 1.388 . S
C509 N508 1.397 . S
C510 H491 0.929 . S
C510 C507 1.404 . S
C510 N508 1.334 . S
C511 H503 0.930 . S
C511 C506 1.418 . S
C511 C507 1.353 . S
C512 H482 0.930 . S
C512 N513 1.330 . S
C512 C514 1.446 . S
N513 Co472 2.151 . S
N513 C512 1.330 . S
N513 C517 1.418 . S
C514 H493 0.929 . S
C514 C512 1.446 . S
C514 C515 1.332 . S
C515 H495 0.931 . S
C515 C514 1.332 . S
C515 C516 1.267 . S
C516 H484 0.929 . S
C516 C515 1.267 . S
C516 C517 1.251 . S
C517 H487 0.929 . S
C517 N513 1.418 . S
C517 C516 1.251 . S
C518 H485 0.930 . S
C518 C520 1.406 . S
C518 C523 1.261 . S
C519 H486 0.930 . S
C519 N521 1.325 . S
C519 C522 1.357 . S
C520 H488 0.928 . S
C520 C518 1.406 . S
C520 N521 1.261 . S
N521 Co472 2.214 . S
N521 C519 1.325 . S
N521 C520 1.261 . S
C522 H492 0.931 . S
C522 C519 1.357 . S
C522 C523 1.312 . S
C523 H494 0.930 . S
C523 C518 1.261 . S
C523 C522 1.312 . S
C524 O496 1.214 . S
C524 O504 1.234 . S
C525 H497 0.929 . S
C525 C528 1.391 . S
C525 C530 1.391 . S
C526 H498 0.929 . S
C526 C527 1.390 . S
C526 N529 1.391 . S
C527 H499 0.930 . S
C527 C526 1.390 . S
C527 C528 1.392 . S
C528 H500 0.929 . S
C528 C525 1.391 . S
C528 C527 1.392 . S
N529 Co473 2.257 . S
N529 C526 1.391 . S
N529 C530 1.388 . S
C530 H501 0.930 . S
C530 C525 1.391 . S
C530 N529 1.388 . S
Co531 O533 2.143 . S
Co531 O539 2.074 . S
Co531 O542 2.093 . S
Co531 O555 2.097 . S
Co531 N572 2.151 . S
Co531 N580 2.214 . S
Co532 O533 2.160 . S
Co532 O538 2.058 . S
Co532 O548 2.057 . S
Co532 O563 2.037 . S
Co532 N567 2.145 . S
Co532 N588 2.257 . S
O533 Co531 2.143 . S
O533 Co532 2.160 . S
C534 O535 1.278 . S
C534 O542 1.224 . S
O535 C534 1.278 . S
C536 O537 1.245 . S
C536 O548 1.232 . S
O537 C536 1.245 . S
O538 Co532 2.058 . S
O538 C564 1.269 . S
O539 Co531 2.074 . S
O539 C564 1.257 . S
H540 C565 0.930 . S
H541 C571 0.930 . S
O542 Co531 2.093 . S
O542 C534 1.224 . S
H543 C575 0.929 . S
H544 C577 0.930 . S
H545 C578 0.930 . S
H546 C576 0.929 . S
H547 C579 0.928 . S
O548 Co532 2.057 . S
O548 C536 1.232 . S
H549 C568 0.929 . S
H550 C569 0.929 . S
H551 C581 0.931 . S
H552 C573 0.929 . S
H553 C582 0.930 . S
H554 C574 0.931 . S
O555 Co531 2.097 . S
O555 C583 1.214 . S
H556 C584 0.929 . S
H557 C585 0.929 . S
H558 C586 0.930 . S
H559 C587 0.929 . S
H560 C589 0.930 . S
H561 C566 0.930 . S
H562 C570 0.930 . S
O563 Co532 2.037 . S
O563 C583 1.234 . S
C564 O538 1.269 . S
C564 O539 1.257 . S
C565 H540 0.930 . S
C565 C568 1.388 . S
C565 C570 1.418 . S
C566 H561 0.930 . S
C566 C569 1.404 . S
C566 C570 1.353 . S
N567 Co532 2.145 . S
N567 C568 1.397 . S
N567 C569 1.334 . S
C568 H549 0.929 . S
C568 C565 1.388 . S
C568 N567 1.397 . S
C569 H550 0.929 . S
C569 C566 1.404 . S
C569 N567 1.334 . S
C570 H562 0.930 . S
C570 C565 1.418 . S
C570 C566 1.353 . S
C571 H541 0.930 . S
C571 N572 1.330 . S
C571 C573 1.446 . S
N572 Co531 2.151 . S
N572 C571 1.330 . S
N572 C576 1.418 . S
C573 H552 0.929 . S
C573 C571 1.446 . S
C573 C574 1.332 . S
C574 H554 0.931 . S
C574 C573 1.332 . S
C574 C575 1.267 . S
C575 H543 0.929 . S
C575 C574 1.267 . S
C575 C576 1.251 . S
C576 H546 0.929 . S
C576 N572 1.418 . S
C576 C575 1.251 . S
C577 H544 0.930 . S
C577 C579 1.406 . S
C577 C582 1.261 . S
C578 H545 0.930 . S
C578 N580 1.325 . S
C578 C581 1.357 . S
C579 H547 0.928 . S
C579 C577 1.406 . S
C579 N580 1.261 . S
N580 Co531 2.214 . S
N580 C578 1.325 . S
N580 C579 1.261 . S
C581 H551 0.931 . S
C581 C578 1.357 . S
C581 C582 1.312 . S
C582 H553 0.930 . S
C582 C577 1.261 . S
C582 C581 1.312 . S
C583 O555 1.214 . S
C583 O563 1.234 . S
C584 H556 0.929 . S
C584 C587 1.391 . S
C584 C589 1.391 . S
C585 H557 0.929 . S
C585 C586 1.390 . S
C585 N588 1.391 . S
C586 H558 0.930 . S
C586 C585 1.390 . S
C586 C587 1.392 . S
C587 H559 0.929 . S
C587 C584 1.391 . S
C587 C586 1.392 . S
N588 Co532 2.257 . S
N588 C585 1.391 . S
N588 C589 1.388 . S
C589 H560 0.930 . S
C589 C584 1.391 . S
C589 N588 1.388 . S
Co590 O592 2.143 . S
Co590 O598 2.074 . S
Co590 O601 2.093 1_554 S
Co590 O614 2.097 1_554 S
Co590 N631 2.151 . S
Co590 N639 2.214 . S
Co591 O592 2.160 1_556 S
Co591 O597 2.058 1_556 S
Co591 O607 2.057 1_556 S
Co591 O622 2.037 . S
Co591 N626 2.145 . S
Co591 N647 2.257 . S
O592 Co590 2.143 . S
O592 Co591 2.160 1_554 S
C593 O594 1.278 . S
C593 O601 1.224 . S
O594 C593 1.278 . S
C595 O596 1.245 . S
C595 O607 1.232 . S
O596 C595 1.245 . S
O597 Co591 2.058 1_554 S
O597 C623 1.269 . S
O598 Co590 2.074 . S
O598 C623 1.257 . S
H599 C624 0.930 . S
H600 C630 0.930 . S
O601 Co590 2.093 1_556 S
O601 C593 1.224 . S
H602 C634 0.929 . S
H603 C636 0.930 . S
H604 C637 0.933 . S
H605 C635 0.929 . S
H606 C638 0.928 . S
O607 Co591 2.057 1_554 S
O607 C595 1.232 . S
H608 C627 0.929 . S
H609 C628 0.929 1_554 S
H610 C640 0.929 1_556 S
H611 C632 0.929 . S
H612 C641 0.930 . S
H613 C633 0.931 . S
O614 Co590 2.097 1_556 S
O614 C642 1.214 . S
H615 C643 0.929 . S
H616 C644 0.929 . S
H617 C645 0.930 . S
H618 C646 0.929 . S
H619 C648 0.930 . S
H620 C625 0.930 1_554 S
H621 C629 0.930 . S
O622 Co591 2.037 . S
O622 C642 1.234 . S
C623 O597 1.269 . S
C623 O598 1.257 . S
C624 H599 0.930 . S
C624 C627 1.388 . S
C624 C629 1.418 . S
C625 H620 0.930 1_556 S
C625 C628 1.404 . S
C625 C629 1.353 . S
N626 Co591 2.145 . S
N626 C627 1.397 . S
N626 C628 1.334 . S
C627 H608 0.929 . S
C627 C624 1.388 . S
C627 N626 1.397 . S
C628 H609 0.929 1_556 S
C628 C625 1.404 . S
C628 N626 1.334 . S
C629 H621 0.930 . S
C629 C624 1.418 . S
C629 C625 1.353 . S
C630 H600 0.930 . S
C630 N631 1.330 . S
C630 C632 1.446 . S
N631 Co590 2.151 . S
N631 C630 1.330 . S
N631 C635 1.418 . S
C632 H611 0.929 . S
C632 C630 1.446 . S
C632 C633 1.332 . S
C633 H613 0.931 . S
C633 C632 1.332 . S
C633 C634 1.267 . S
C634 H602 0.929 . S
C634 C633 1.267 . S
C634 C635 1.251 . S
C635 H605 0.929 . S
C635 N631 1.418 . S
C635 C634 1.251 . S
C636 H603 0.930 . S
C636 C638 1.406 . S
C636 C641 1.261 . S
C637 H604 0.933 . S
C637 N639 1.323 1_556 S
C637 C640 1.356 1_556 S
C638 H606 0.928 . S
C638 C636 1.406 . S
C638 N639 1.261 . S
N639 Co590 2.214 . S
N639 C637 1.323 1_554 S
N639 C638 1.261 . S
C640 H610 0.929 1_554 S
C640 C637 1.356 1_554 S
C640 C641 1.315 . S
C641 H612 0.930 . S
C641 C636 1.261 . S
C641 C640 1.315 . S
C642 O614 1.214 . S
C642 O622 1.234 . S
C643 H615 0.929 . S
C643 C646 1.391 . S
C643 C648 1.391 . S
C644 H616 0.929 . S
C644 C645 1.390 . S
C644 N647 1.391 . S
C645 H617 0.930 . S
C645 C644 1.390 . S
C645 C646 1.392 . S
C646 H618 0.929 . S
C646 C643 1.391 . S
C646 C645 1.392 . S
N647 Co591 2.257 . S
N647 C644 1.391 . S
N647 C648 1.388 . S
C648 H619 0.930 . S
C648 C643 1.391 . S
C648 N647 1.388 . S
Co649 O651 2.143 . S
Co649 O657 2.074 . S
Co649 O660 2.093 . S
Co649 O673 2.097 . S
Co649 N690 2.151 . S
Co649 N698 2.214 . S
Co650 O651 2.160 . S
Co650 O656 2.058 . S
Co650 O666 2.057 . S
Co650 O681 2.037 . S
Co650 N685 2.145 . S
Co650 N706 2.257 . S
O651 Co649 2.143 . S
O651 Co650 2.160 . S
C652 O653 1.278 . S
C652 O660 1.224 . S
O653 C652 1.278 . S
C654 O655 1.245 . S
C654 O666 1.232 . S
O655 C654 1.245 . S
O656 Co650 2.058 . S
O656 C682 1.269 . S
O657 Co649 2.074 . S
O657 C682 1.257 . S
H658 C683 0.930 . S
H659 C689 0.930 . S
O660 Co649 2.093 . S
O660 C652 1.224 . S
H661 C693 0.929 . S
H662 C695 0.930 . S
H663 C696 0.930 . S
H664 C694 0.929 . S
H665 C697 0.928 . S
O666 Co650 2.057 . S
O666 C654 1.232 . S
H667 C686 0.929 . S
H668 C687 0.929 . S
H669 C699 0.931 . S
H670 C691 0.929 . S
H671 C700 0.930 . S
H672 C692 0.931 . S
O673 Co649 2.097 . S
O673 C701 1.214 . S
H674 C702 0.929 . S
H675 C703 0.929 . S
H676 C704 0.930 . S
H677 C705 0.929 . S
H678 C707 0.930 . S
H679 C684 0.930 . S
H680 C688 0.930 . S
O681 Co650 2.037 . S
O681 C701 1.234 . S
C682 O656 1.269 . S
C682 O657 1.257 . S
C683 H658 0.930 . S
C683 C686 1.388 . S
C683 C688 1.418 . S
C684 H679 0.930 . S
C684 C687 1.404 . S
C684 C688 1.353 . S
N685 Co650 2.145 . S
N685 C686 1.397 . S
N685 C687 1.334 . S
C686 H667 0.929 . S
C686 C683 1.388 . S
C686 N685 1.397 . S
C687 H668 0.929 . S
C687 C684 1.404 . S
C687 N685 1.334 . S
C688 H680 0.930 . S
C688 C683 1.418 . S
C688 C684 1.353 . S
C689 H659 0.930 . S
C689 N690 1.330 . S
C689 C691 1.446 . S
N690 Co649 2.151 . S
N690 C689 1.330 . S
N690 C694 1.418 . S
C691 H670 0.929 . S
C691 C689 1.446 . S
C691 C692 1.332 . S
C692 H672 0.931 . S
C692 C691 1.332 . S
C692 C693 1.267 . S
C693 H661 0.929 . S
C693 C692 1.267 . S
C693 C694 1.251 . S
C694 H664 0.929 . S
C694 N690 1.418 . S
C694 C693 1.251 . S
C695 H662 0.930 . S
C695 C697 1.406 . S
C695 C700 1.261 . S
C696 H663 0.930 . S
C696 N698 1.325 . S
C696 C699 1.357 . S
C697 H665 0.928 . S
C697 C695 1.406 . S
C697 N698 1.261 . S
N698 Co649 2.214 . S
N698 C696 1.325 . S
N698 C697 1.261 . S
C699 H669 0.931 . S
C699 C696 1.357 . S
C699 C700 1.312 . S
C700 H671 0.930 . S
C700 C695 1.261 . S
C700 C699 1.312 . S
C701 O673 1.214 . S
C701 O681 1.234 . S
C702 H674 0.929 . S
C702 C705 1.391 . S
C702 C707 1.391 . S
C703 H675 0.929 . S
C703 C704 1.390 . S
C703 N706 1.391 . S
C704 H676 0.930 . S
C704 C703 1.390 . S
C704 C705 1.392 . S
C705 H677 0.929 . S
C705 C702 1.391 . S
C705 C704 1.392 . S
N706 Co650 2.257 . S
N706 C703 1.391 . S
N706 C707 1.388 . S
C707 H678 0.930 . S
C707 C702 1.391 . S
C707 N706 1.388 . S
Co708 O710 2.143 . S
Co708 O716 2.074 . S
Co708 O719 2.093 . S
Co708 O732 2.097 . S
Co708 N749 2.151 . S
Co708 N757 2.214 . S
Co709 O710 2.160 . S
Co709 O715 2.058 . S
Co709 O725 2.057 . S
Co709 O740 2.037 . S
Co709 N744 2.145 . S
Co709 N765 2.257 . S
O710 Co708 2.143 . S
O710 Co709 2.160 . S
C711 O712 1.278 . S
C711 O719 1.224 . S
O712 C711 1.278 . S
C713 O714 1.245 . S
C713 O725 1.232 . S
O714 C713 1.245 . S
O715 Co709 2.058 . S
O715 C741 1.269 . S
O716 Co708 2.074 . S
O716 C741 1.257 . S
H717 C742 0.930 . S
H718 C748 0.930 . S
O719 Co708 2.093 . S
O719 C711 1.224 . S
H720 C752 0.929 . S
H721 C754 0.930 . S
H722 C755 0.930 . S
H723 C753 0.929 . S
H724 C756 0.928 . S
O725 Co709 2.057 . S
O725 C713 1.232 . S
H726 C745 0.929 . S
H727 C746 0.929 . S
H728 C758 0.931 . S
H729 C750 0.929 . S
H730 C759 0.930 . S
H731 C751 0.931 . S
O732 Co708 2.097 . S
O732 C760 1.214 . S
H733 C761 0.929 . S
H734 C762 0.929 . S
H735 C763 0.930 . S
H736 C764 0.929 . S
H737 C766 0.930 . S
H738 C743 0.930 . S
H739 C747 0.930 . S
O740 Co709 2.037 . S
O740 C760 1.234 . S
C741 O715 1.269 . S
C741 O716 1.257 . S
C742 H717 0.930 . S
C742 C745 1.388 . S
C742 C747 1.418 . S
C743 H738 0.930 . S
C743 C746 1.404 . S
C743 C747 1.353 . S
N744 Co709 2.145 . S
N744 C745 1.397 . S
N744 C746 1.334 . S
C745 H726 0.929 . S
C745 C742 1.388 . S
C745 N744 1.397 . S
C746 H727 0.929 . S
C746 C743 1.404 . S
C746 N744 1.334 . S
C747 H739 0.930 . S
C747 C742 1.418 . S
C747 C743 1.353 . S
C748 H718 0.930 . S
C748 N749 1.330 . S
C748 C750 1.446 . S
N749 Co708 2.151 . S
N749 C748 1.330 . S
N749 C753 1.418 . S
C750 H729 0.929 . S
C750 C748 1.446 . S
C750 C751 1.332 . S
C751 H731 0.931 . S
C751 C750 1.332 . S
C751 C752 1.267 . S
C752 H720 0.929 . S
C752 C751 1.267 . S
C752 C753 1.251 . S
C753 H723 0.929 . S
C753 N749 1.418 . S
C753 C752 1.251 . S
C754 H721 0.930 . S
C754 C756 1.406 . S
C754 C759 1.261 . S
C755 H722 0.930 . S
C755 N757 1.325 . S
C755 C758 1.357 . S
C756 H724 0.928 . S
C756 C754 1.406 . S
C756 N757 1.261 . S
N757 Co708 2.214 . S
N757 C755 1.325 . S
N757 C756 1.261 . S
C758 H728 0.931 . S
C758 C755 1.357 . S
C758 C759 1.312 . S
C759 H730 0.930 . S
C759 C754 1.261 . S
C759 C758 1.312 . S
C760 O732 1.214 . S
C760 O740 1.234 . S
C761 H733 0.929 . S
C761 C764 1.391 . S
C761 C766 1.391 . S
C762 H734 0.929 . S
C762 C763 1.390 . S
C762 N765 1.391 . S
C763 H735 0.930 . S
C763 C762 1.390 . S
C763 C764 1.392 . S
C764 H736 0.929 . S
C764 C761 1.391 . S
C764 C763 1.392 . S
N765 Co709 2.257 . S
N765 C762 1.391 . S
N765 C766 1.388 . S
C766 H737 0.930 . S
C766 C761 1.391 . S
C766 N765 1.388 . S
Co767 O769 2.143 . S
Co767 O775 2.074 . S
Co767 O778 2.093 . S
Co767 O791 2.097 . S
Co767 N808 2.151 . S
Co767 N816 2.214 . S
Co768 O769 2.160 . S
Co768 O774 2.058 . S
Co768 O784 2.057 . S
Co768 O799 2.037 . S
Co768 N803 2.145 . S
Co768 N824 2.257 . S
O769 Co767 2.143 . S
O769 Co768 2.160 . S
C770 O771 1.278 . S
C770 O778 1.224 . S
O771 C770 1.278 . S
C772 O773 1.245 . S
C772 O784 1.232 . S
O773 C772 1.245 . S
O774 Co768 2.058 . S
O774 C800 1.269 . S
O775 Co767 2.074 . S
O775 C800 1.257 . S
H776 C801 0.930 . S
H777 C807 0.930 . S
O778 Co767 2.093 . S
O778 C770 1.224 . S
H779 C811 0.929 . S
H780 C813 0.930 . S
H781 C814 0.930 . S
H782 C812 0.929 . S
H783 C815 0.928 . S
O784 Co768 2.057 . S
O784 C772 1.232 . S
H785 C804 0.929 . S
H786 C805 0.929 . S
H787 C817 0.931 . S
H788 C809 0.929 . S
H789 C818 0.930 . S
H790 C810 0.931 . S
O791 Co767 2.097 . S
O791 C819 1.214 . S
H792 C820 0.929 . S
H793 C821 0.929 . S
H794 C822 0.930 . S
H795 C823 0.929 . S
H796 C825 0.930 . S
H797 C802 0.930 . S
H798 C806 0.930 . S
O799 Co768 2.037 . S
O799 C819 1.234 . S
C800 O774 1.269 . S
C800 O775 1.257 . S
C801 H776 0.930 . S
C801 C804 1.388 . S
C801 C806 1.418 . S
C802 H797 0.930 . S
C802 C805 1.404 . S
C802 C806 1.353 . S
N803 Co768 2.145 . S
N803 C804 1.397 . S
N803 C805 1.334 . S
C804 H785 0.929 . S
C804 C801 1.388 . S
C804 N803 1.397 . S
C805 H786 0.929 . S
C805 C802 1.404 . S
C805 N803 1.334 . S
C806 H798 0.930 . S
C806 C801 1.418 . S
C806 C802 1.353 . S
C807 H777 0.930 . S
C807 N808 1.330 . S
C807 C809 1.446 . S
N808 Co767 2.151 . S
N808 C807 1.330 . S
N808 C812 1.418 . S
C809 H788 0.929 . S
C809 C807 1.446 . S
C809 C810 1.332 . S
C810 H790 0.931 . S
C810 C809 1.332 . S
C810 C811 1.267 . S
C811 H779 0.929 . S
C811 C810 1.267 . S
C811 C812 1.251 . S
C812 H782 0.929 . S
C812 N808 1.418 . S
C812 C811 1.251 . S
C813 H780 0.930 . S
C813 C815 1.406 . S
C813 C818 1.261 . S
C814 H781 0.930 . S
C814 N816 1.325 . S
C814 C817 1.357 . S
C815 H783 0.928 . S
C815 C813 1.406 . S
C815 N816 1.261 . S
N816 Co767 2.214 . S
N816 C814 1.325 . S
N816 C815 1.261 . S
C817 H787 0.931 . S
C817 C814 1.357 . S
C817 C818 1.312 . S
C818 H789 0.930 . S
C818 C813 1.261 . S
C818 C817 1.312 . S
C819 O791 1.214 . S
C819 O799 1.234 . S
C820 H792 0.929 . S
C820 C823 1.391 . S
C820 C825 1.391 . S
C821 H793 0.929 . S
C821 C822 1.390 . S
C821 N824 1.391 . S
C822 H794 0.930 . S
C822 C821 1.390 . S
C822 C823 1.392 . S
C823 H795 0.929 . S
C823 C820 1.391 . S
C823 C822 1.392 . S
N824 Co768 2.257 . S
N824 C821 1.391 . S
N824 C825 1.388 . S
C825 H796 0.930 . S
C825 C820 1.391 . S
C825 N824 1.388 . S
Co826 O828 2.143 . S
Co826 O834 2.074 1_554 S
Co826 O837 2.093 . S
Co826 O850 2.097 . S
Co826 N867 2.151 1_554 S
Co826 N875 2.214 . S
Co827 O828 2.160 . S
Co827 O833 2.058 1_554 S
Co827 O843 2.057 1_554 S
Co827 O858 2.037 . S
Co827 N862 2.145 . S
Co827 N883 2.257 . S
O828 Co826 2.143 . S
O828 Co827 2.160 . S
C829 O830 1.278 . S
C829 O837 1.224 . S
O830 C829 1.278 . S
C831 O832 1.245 . S
C831 O843 1.232 . S
O832 C831 1.245 . S
O833 Co827 2.058 1_556 S
O833 C859 1.269 . S
O834 Co826 2.074 1_556 S
O834 C859 1.257 . S
H835 C860 0.930 . S
H836 C866 0.930 . S
O837 Co826 2.093 . S
O837 C829 1.224 . S
H838 C870 0.929 . S
H839 C872 0.930 . S
H840 C873 0.930 . S
H841 C871 0.929 . S
H842 C874 0.928 . S
O843 Co827 2.057 1_556 S
O843 C831 1.232 . S
H844 C863 0.929 . S
H845 C864 0.929 . S
H846 C876 0.931 . S
H847 C868 0.929 . S
H848 C877 0.930 . S
H849 C869 0.931 . S
O850 Co826 2.097 . S
O850 C878 1.214 . S
H851 C879 0.929 . S
H852 C880 0.929 . S
H853 C881 0.930 . S
H854 C882 0.929 . S
H855 C884 0.930 . S
H856 C861 0.930 . S
H857 C865 0.930 . S
O858 Co827 2.037 . S
O858 C878 1.234 . S
C859 O833 1.269 . S
C859 O834 1.257 . S
C860 H835 0.930 . S
C860 C863 1.388 . S
C860 C865 1.418 . S
C861 H856 0.930 . S
C861 C864 1.404 . S
C861 C865 1.353 . S
N862 Co827 2.145 . S
N862 C863 1.397 . S
N862 C864 1.334 . S
C863 H844 0.929 . S
C863 C860 1.388 . S
C863 N862 1.397 . S
C864 H845 0.929 . S
C864 C861 1.404 . S
C864 N862 1.334 . S
C865 H857 0.930 . S
C865 C860 1.418 . S
C865 C861 1.353 . S
C866 H836 0.930 . S
C866 N867 1.330 . S
C866 C868 1.446 . S
N867 Co826 2.151 1_556 S
N867 C866 1.330 . S
N867 C871 1.418 . S
C868 H847 0.929 . S
C868 C866 1.446 . S
C868 C869 1.332 . S
C869 H849 0.931 . S
C869 C868 1.332 . S
C869 C870 1.267 . S
C870 H838 0.929 . S
C870 C869 1.267 . S
C870 C871 1.251 . S
C871 H841 0.929 . S
C871 N867 1.418 . S
C871 C870 1.251 . S
C872 H839 0.930 . S
C872 C874 1.406 . S
C872 C877 1.261 1_556 S
C873 H840 0.930 . S
C873 N875 1.325 . S
C873 C876 1.357 . S
C874 H842 0.928 . S
C874 C872 1.406 . S
C874 N875 1.261 1_556 S
N875 Co826 2.214 . S
N875 C873 1.325 . S
N875 C874 1.261 1_554 S
C876 H846 0.931 . S
C876 C873 1.357 . S
C876 C877 1.312 . S
C877 H848 0.930 . S
C877 C872 1.261 1_554 S
C877 C876 1.312 . S
C878 O850 1.214 . S
C878 O858 1.234 . S
C879 H851 0.929 . S
C879 C882 1.391 . S
C879 C884 1.391 . S
C880 H852 0.929 . S
C880 C881 1.390 . S
C880 N883 1.391 . S
C881 H853 0.930 . S
C881 C880 1.390 . S
C881 C882 1.392 . S
C882 H854 0.929 . S
C882 C879 1.391 . S
C882 C881 1.392 . S
N883 Co827 2.257 . S
N883 C880 1.391 . S
N883 C884 1.388 . S
C884 H855 0.930 . S
C884 C879 1.391 . S
C884 N883 1.388 . S
Co885 O887 2.143 . S
Co885 O893 2.074 . S
Co885 O896 2.093 . S
Co885 O909 2.097 . S
Co885 N926 2.151 . S
Co885 N934 2.214 . S
Co886 O887 2.160 . S
Co886 O892 2.058 . S
Co886 O902 2.057 . S
Co886 O917 2.037 . S
Co886 N921 2.145 . S
Co886 N942 2.257 . S
O887 Co885 2.143 . S
O887 Co886 2.160 . S
C888 O889 1.278 . S
C888 O896 1.224 . S
O889 C888 1.278 . S
C890 O891 1.245 . S
C890 O902 1.232 . S
O891 C890 1.245 . S
O892 Co886 2.058 . S
O892 C918 1.269 . S
O893 Co885 2.074 . S
O893 C918 1.257 . S
H894 C919 0.930 . S
H895 C925 0.930 . S
O896 Co885 2.093 . S
O896 C888 1.224 . S
H897 C929 0.929 . S
H898 C931 0.930 . S
H899 C932 0.930 . S
H900 C930 0.929 . S
H901 C933 0.928 . S
O902 Co886 2.057 . S
O902 C890 1.232 . S
H903 C922 0.929 . S
H904 C923 0.929 . S
H905 C935 0.931 . S
H906 C927 0.929 . S
H907 C936 0.930 . S
H908 C928 0.931 . S
O909 Co885 2.097 . S
O909 C937 1.214 . S
H910 C938 0.929 . S
H911 C939 0.929 . S
H912 C940 0.930 . S
H913 C941 0.929 . S
H914 C943 0.930 . S
H915 C920 0.930 . S
H916 C924 0.930 . S
O917 Co886 2.037 . S
O917 C937 1.234 . S
C918 O892 1.269 . S
C918 O893 1.257 . S
C919 H894 0.930 . S
C919 C922 1.388 . S
C919 C924 1.418 . S
C920 H915 0.930 . S
C920 C923 1.404 . S
C920 C924 1.353 . S
N921 Co886 2.145 . S
N921 C922 1.397 . S
N921 C923 1.334 . S
C922 H903 0.929 . S
C922 C919 1.388 . S
C922 N921 1.397 . S
C923 H904 0.929 . S
C923 C920 1.404 . S
C923 N921 1.334 . S
C924 H916 0.930 . S
C924 C919 1.418 . S
C924 C920 1.353 . S
C925 H895 0.930 . S
C925 N926 1.330 . S
C925 C927 1.446 . S
N926 Co885 2.151 . S
N926 C925 1.330 . S
N926 C930 1.418 . S
C927 H906 0.929 . S
C927 C925 1.446 . S
C927 C928 1.332 . S
C928 H908 0.931 . S
C928 C927 1.332 . S
C928 C929 1.267 . S
C929 H897 0.929 . S
C929 C928 1.267 . S
C929 C930 1.251 . S
C930 H900 0.929 . S
C930 N926 1.418 . S
C930 C929 1.251 . S
C931 H898 0.930 . S
C931 C933 1.406 . S
C931 C936 1.261 . S
C932 H899 0.930 . S
C932 N934 1.325 . S
C932 C935 1.357 . S
C933 H901 0.928 . S
C933 C931 1.406 . S
C933 N934 1.261 . S
N934 Co885 2.214 . S
N934 C932 1.325 . S
N934 C933 1.261 . S
C935 H905 0.931 . S
C935 C932 1.357 . S
C935 C936 1.312 . S
C936 H907 0.930 . S
C936 C931 1.261 . S
C936 C935 1.312 . S
C937 O909 1.214 . S
C937 O917 1.234 . S
C938 H910 0.929 . S
C938 C941 1.391 . S
C938 C943 1.391 . S
C939 H911 0.929 . S
C939 C940 1.390 . S
C939 N942 1.391 . S
C940 H912 0.930 . S
C940 C939 1.390 . S
C940 C941 1.392 . S
C941 H913 0.929 . S
C941 C938 1.391 . S
C941 C940 1.392 . S
N942 Co886 2.257 . S
N942 C939 1.391 . S
N942 C943 1.388 . S
C943 H914 0.930 . S
C943 C938 1.391 . S
C943 N942 1.388 . S
H944 C952 0.950 . S
H945 C957 0.950 . S
H946 C954 0.950 . S
H947 C956 0.950 . S
H948 C958 0.950 . S
H949 C960 0.950 . S
H950 C962 0.950 . S
H951 C963 0.950 . S
C952 H944 0.950 . S
C952 C953 1.386 . S
C952 C954 1.391 . S
C953 C952 1.386 . S
C953 C957 1.393 . S
C954 H946 0.950 . S
C954 C952 1.391 . S
C954 C955 1.400 . S
C955 C954 1.400 . S
C955 C956 1.398 . S
C955 C961 1.491 . S
C956 H947 0.950 . S
C956 C955 1.398 . S
C956 C957 1.391 . S
C957 H945 0.950 . S
C957 C953 1.393 . S
C957 C956 1.391 . S
C958 H948 0.950 . S
C958 C959 1.386 . S
C958 C960 1.391 . S
C959 C958 1.386 . S
C959 C963 1.393 . S
C960 H949 0.950 . S
C960 C958 1.391 . S
C960 C961 1.400 . S
C961 C955 1.491 . S
C961 C960 1.400 . S
C961 C962 1.398 . S
C962 H950 0.950 . S
C962 C961 1.398 . S
C962 C963 1.391 . S
C963 H951 0.950 . S
C963 C959 1.393 . S
C963 C962 1.391 . S
H964 C972 0.950 . S
H965 C977 0.950 . S
H966 C974 0.950 1_455 S
H967 C976 0.950 . S
H968 C978 0.950 . S
H969 C980 0.950 1_655 S
H970 C982 0.950 . S
H971 C983 0.950 . S
C972 H964 0.950 . S
C972 C973 1.386 . S
C972 C974 1.391 . S
C973 C972 1.386 . S
C973 C977 1.393 1_545 S
C974 H966 0.950 1_655 S
C974 C972 1.391 . S
C974 C975 1.400 . S
C975 C974 1.400 . S
C975 C976 1.398 1_545 S
C975 C981 1.491 1_655 S
C976 H967 0.950 . S
C976 C975 1.398 1_565 S
C976 C977 1.391 . S
C977 H965 0.950 . S
C977 C973 1.393 1_565 S
C977 C976 1.391 . S
C978 H968 0.950 . S
C978 C979 1.386 1_565 S
C978 C980 1.391 . S
C979 C978 1.386 1_545 S
C979 C983 1.393 . S
C980 H969 0.950 1_455 S
C980 C978 1.391 . S
C980 C981 1.400 1_565 S
C981 C975 1.491 1_455 S
C981 C980 1.400 1_545 S
C981 C982 1.398 . S
C982 H970 0.950 . S
C982 C981 1.398 . S
C982 C983 1.391 . S
C983 H971 0.950 . S
C983 C979 1.393 . S
C983 C982 1.391 . S
H984 C992 0.950 . S
H985 C997 0.950 . S
H986 C994 0.950 . S
H987 C996 0.950 . S
H988 C998 0.950 . S
H989 C1000 0.950 . S
H990 C1002 0.950 . S
H991 C1003 0.950 . S
C992 H984 0.950 . S
C992 C993 1.386 . S
C992 C994 1.391 . S
C993 C992 1.386 . S
C993 C997 1.393 . S
C994 H986 0.950 . S
C994 C992 1.391 . S
C994 C995 1.400 . S
C995 C994 1.400 . S
C995 C996 1.398 . S
C995 C1001 1.491 . S
C996 H987 0.950 . S
C996 C995 1.398 . S
C996 C997 1.391 . S
C997 H985 0.950 . S
C997 C993 1.393 . S
C997 C996 1.391 . S
C998 H988 0.950 . S
C998 C999 1.386 . S
C998 C1000 1.391 . S
C999 C998 1.386 . S
C999 C1003 1.393 . S
C1000 H989 0.950 . S
C1000 C998 1.391 . S
C1000 C1001 1.400 . S
C1001 C995 1.491 . S
C1001 C1000 1.400 . S
C1001 C1002 1.398 . S
C1002 H990 0.950 . S
C1002 C1001 1.398 . S
C1002 C1003 1.391 . S
C1003 H991 0.950 . S
C1003 C999 1.393 . S
C1003 C1002 1.391 . S
H1004 C1012 0.950 . S
H1005 C1017 0.950 . S
H1006 C1014 0.950 . S
H1007 C1016 0.953 . S
H1008 C1018 0.950 . S
H1009 C1020 0.950 . S
H1010 C1022 0.950 1_554 S
H1011 C1023 0.950 . S
C1012 H1004 0.950 . S
C1012 C1013 1.364 1_565 S
C1012 C1014 1.391 . S
C1013 C1012 1.364 1_545 S
C1013 C1017 1.416 . S
C1014 H1006 0.950 . S
C1014 C1012 1.391 . S
C1014 C1015 1.400 1_565 S
C1015 C1014 1.400 1_545 S
C1015 C1016 1.398 . S
C1015 C1021 1.491 1_554 S
C1016 H1007 0.953 . S
C1016 C1015 1.398 . S
C1016 C1017 1.391 . S
C1017 H1005 0.950 . S
C1017 C1013 1.416 . S
C1017 C1016 1.391 . S
C1018 H1008 0.950 . S
C1018 C1019 1.386 . S
C1018 C1020 1.391 . S
C1019 C1018 1.386 . S
C1019 C1023 1.393 1_545 S
C1020 H1009 0.950 . S
C1020 C1018 1.391 . S
C1020 C1021 1.400 . S
C1021 C1015 1.491 1_556 S
C1021 C1020 1.400 . S
C1021 C1022 1.398 1_545 S
C1022 H1010 0.950 1_556 S
C1022 C1021 1.398 1_565 S
C1022 C1023 1.391 . S
C1023 H1011 0.950 . S
C1023 C1019 1.393 1_565 S
C1023 C1022 1.391 . S
H1024 C1032 0.950 . S
H1025 C1037 0.950 . S
H1026 C1034 0.950 . S
H1027 C1036 0.950 . S
H1028 C1038 0.950 . S
H1029 C1040 0.950 . S
H1030 C1042 0.950 . S
H1031 C1043 0.950 . S
C1032 H1024 0.950 . S
C1032 C1033 1.386 . S
C1032 C1034 1.391 . S
C1033 C1032 1.386 . S
C1033 C1037 1.393 . S
C1034 H1026 0.950 . S
C1034 C1032 1.391 . S
C1034 C1035 1.400 . S
C1035 C1034 1.400 . S
C1035 C1036 1.398 . S
C1035 C1041 1.491 . S
C1036 H1027 0.950 . S
C1036 C1035 1.398 . S
C1036 C1037 1.391 . S
C1037 H1025 0.950 . S
C1037 C1033 1.393 . S
C1037 C1036 1.391 . S
C1038 H1028 0.950 . S
C1038 C1039 1.386 . S
C1038 C1040 1.391 . S
C1039 C1038 1.386 . S
C1039 C1043 1.393 . S
C1040 H1029 0.950 . S
C1040 C1038 1.391 . S
C1040 C1041 1.400 . S
C1041 C1035 1.491 . S
C1041 C1040 1.400 . S
C1041 C1042 1.398 . S
C1042 H1030 0.950 . S
C1042 C1041 1.398 . S
C1042 C1043 1.391 . S
C1043 H1031 0.950 . S
C1043 C1039 1.393 . S
C1043 C1042 1.391 . S
H1044 C1052 0.950 . S
H1045 C1057 0.950 . S
H1046 C1054 0.950 . S
H1047 C1056 0.950 . S
H1048 C1058 0.950 . S
H1049 C1060 0.950 . S
H1050 C1062 0.950 . S
H1051 C1063 0.950 . S
C1052 H1044 0.950 . S
C1052 C1053 1.386 . S
C1052 C1054 1.391 . S
C1053 C1052 1.386 . S
C1053 C1057 1.393 . S
C1054 H1046 0.950 . S
C1054 C1052 1.391 . S
C1054 C1055 1.400 . S
C1055 C1054 1.400 . S
C1055 C1056 1.398 . S
C1055 C1061 1.491 . S
C1056 H1047 0.950 . S
C1056 C1055 1.398 . S
C1056 C1057 1.391 . S
C1057 H1045 0.950 . S
C1057 C1053 1.393 . S
C1057 C1056 1.391 . S
C1058 H1048 0.950 . S
C1058 C1059 1.386 . S
C1058 C1060 1.391 . S
C1059 C1058 1.386 . S
C1059 C1063 1.393 . S
C1060 H1049 0.950 . S
C1060 C1058 1.391 . S
C1060 C1061 1.400 . S
C1061 C1055 1.491 . S
C1061 C1060 1.400 . S
C1061 C1062 1.398 . S
C1062 H1050 0.950 . S
C1062 C1061 1.398 . S
C1062 C1063 1.391 . S
C1063 H1051 0.950 . S
C1063 C1059 1.393 . S
C1063 C1062 1.391 . S
H1064 C1072 0.950 . S
H1065 C1077 0.950 . S
H1066 C1074 0.950 . S
H1067 C1076 0.950 . S
H1068 C1078 0.950 . S
H1069 C1080 0.950 . S
H1070 C1082 0.950 . S
H1071 C1083 0.950 . S
C1072 H1064 0.950 . S
C1072 C1073 1.386 . S
C1072 C1074 1.391 . S
C1073 C1072 1.386 . S
C1073 C1077 1.393 . S
C1074 H1066 0.950 . S
C1074 C1072 1.391 . S
C1074 C1075 1.400 . S
C1075 C1074 1.400 . S
C1075 C1076 1.398 . S
C1075 C1081 1.491 . S
C1076 H1067 0.950 . S
C1076 C1075 1.398 . S
C1076 C1077 1.391 . S
C1077 H1065 0.950 . S
C1077 C1073 1.393 . S
C1077 C1076 1.391 . S
C1078 H1068 0.950 . S
C1078 C1079 1.386 . S
C1078 C1080 1.391 . S
C1079 C1078 1.386 . S
C1079 C1083 1.393 . S
C1080 H1069 0.950 . S
C1080 C1078 1.391 . S
C1080 C1081 1.400 . S
C1081 C1075 1.491 . S
C1081 C1080 1.400 . S
C1081 C1082 1.398 . S
C1082 H1070 0.950 . S
C1082 C1081 1.398 . S
C1082 C1083 1.391 . S
C1083 H1071 0.950 . S
C1083 C1079 1.393 . S
C1083 C1082 1.391 . S
H1084 C1092 0.950 . S
H1085 C1097 0.950 . S
H1086 C1094 0.950 . S
H1087 C1096 0.950 . S
H1088 C1098 0.950 . S
H1089 C1100 0.950 . S
H1090 C1102 0.950 . S
H1091 C1103 0.950 . S
C1092 H1084 0.950 . S
C1092 C1093 1.347 1_565 S
C1092 C1094 1.391 . S
C1093 C1092 1.347 1_545 S
C1093 C1097 1.434 . S
C1094 H1086 0.950 . S
C1094 C1092 1.391 . S
C1094 C1095 1.400 1_565 S
C1095 C1094 1.400 1_545 S
C1095 C1096 1.398 . S
C1095 C1101 1.491 1_456 S
C1096 H1087 0.950 . S
C1096 C1095 1.398 . S
C1096 C1097 1.391 . S
C1097 H1085 0.950 . S
C1097 C1093 1.434 . S
C1097 C1096 1.391 . S
C1098 H1088 0.950 . S
C1098 C1099 1.386 . S
C1098 C1100 1.391 . S
C1099 C1098 1.386 . S
C1099 C1103 1.393 1_545 S
C1100 H1089 0.950 . S
C1100 C1098 1.391 . S
C1100 C1101 1.400 . S
C1101 C1095 1.491 1_654 S
C1101 C1100 1.400 . S
C1101 C1102 1.398 1_545 S
C1102 H1090 0.950 . S
C1102 C1101 1.398 1_565 S
C1102 C1103 1.391 . S
C1103 H1091 0.950 . S
C1103 C1099 1.393 1_565 S
C1103 C1102 1.391 . S
H1104 C1112 0.950 . S
H1105 C1117 0.950 . S
H1106 C1114 0.950 . S
H1107 C1116 0.950 . S
H1108 C1118 0.950 . S
H1109 C1120 0.950 . S
H1110 C1122 0.950 . S
H1111 C1123 0.950 . S
C1112 H1104 0.950 . S
C1112 C1113 1.386 . S
C1112 C1114 1.391 . S
C1113 C1112 1.386 . S
C1113 C1117 1.393 . S
C1114 H1106 0.950 . S
C1114 C1112 1.391 . S
C1114 C1115 1.400 . S
C1115 C1114 1.400 . S
C1115 C1116 1.398 . S
C1115 C1121 1.491 . S
C1116 H1107 0.950 . S
C1116 C1115 1.398 . S
C1116 C1117 1.391 . S
C1117 H1105 0.950 . S
C1117 C1113 1.393 . S
C1117 C1116 1.391 . S
C1118 H1108 0.950 . S
C1118 C1119 1.386 . S
C1118 C1120 1.391 . S
C1119 C1118 1.386 . S
C1119 C1123 1.393 . S
C1120 H1109 0.950 . S
C1120 C1118 1.391 . S
C1120 C1121 1.400 . S
C1121 C1115 1.491 . S
C1121 C1120 1.400 . S
C1121 C1122 1.398 . S
C1122 H1110 0.950 . S
C1122 C1121 1.398 . S
C1122 C1123 1.391 . S
C1123 H1111 0.950 . S
C1123 C1119 1.393 . S
C1123 C1122 1.391 . S
H1124 C1132 0.950 . S
H1125 C1137 0.950 . S
H1126 C1134 0.950 . S
H1127 C1136 0.950 . S
H1128 C1138 0.950 . S
H1129 C1140 0.950 . S
H1130 C1142 0.950 . S
H1131 C1143 0.950 . S
C1132 H1124 0.950 . S
C1132 C1133 1.386 . S
C1132 C1134 1.391 . S
C1133 C1132 1.386 . S
C1133 C1137 1.393 . S
C1134 H1126 0.950 . S
C1134 C1132 1.391 . S
C1134 C1135 1.400 . S
C1135 C1134 1.400 . S
C1135 C1136 1.398 . S
C1135 C1141 1.491 . S
C1136 H1127 0.950 . S
C1136 C1135 1.398 . S
C1136 C1137 1.391 . S
C1137 H1125 0.950 . S
C1137 C1133 1.393 . S
C1137 C1136 1.391 . S
C1138 H1128 0.950 . S
C1138 C1139 1.386 . S
C1138 C1140 1.391 . S
C1139 C1138 1.386 . S
C1139 C1143 1.393 . S
C1140 H1129 0.950 . S
C1140 C1138 1.391 . S
C1140 C1141 1.400 . S
C1141 C1135 1.491 . S
C1141 C1140 1.400 . S
C1141 C1142 1.398 . S
C1142 H1130 0.950 . S
C1142 C1141 1.398 . S
C1142 C1143 1.391 . S
C1143 H1131 0.950 . S
C1143 C1139 1.393 . S
C1143 C1142 1.391 . S
H1144 C1152 0.950 . S
H1145 C1157 0.950 . S
H1146 C1154 0.950 . S
H1147 C1156 0.950 . S
H1148 C1158 0.950 . S
H1149 C1160 0.950 . S
H1150 C1162 0.950 . S
H1151 C1163 0.950 . S
C1152 H1144 0.950 . S
C1152 C1153 1.386 . S
C1152 C1154 1.391 . S
C1153 C1152 1.386 . S
C1153 C1157 1.393 . S
C1154 H1146 0.950 . S
C1154 C1152 1.391 . S
C1154 C1155 1.400 . S
C1155 C1154 1.400 . S
C1155 C1156 1.398 . S
C1155 C1161 1.491 . S
C1156 H1147 0.950 . S
C1156 C1155 1.398 . S
C1156 C1157 1.391 . S
C1157 H1145 0.950 . S
C1157 C1153 1.393 . S
C1157 C1156 1.391 . S
C1158 H1148 0.950 . S
C1158 C1159 1.386 . S
C1158 C1160 1.391 . S
C1159 C1158 1.386 . S
C1159 C1163 1.393 . S
C1160 H1149 0.950 . S
C1160 C1158 1.391 . S
C1160 C1161 1.400 . S
C1161 C1155 1.491 . S
C1161 C1160 1.400 . S
C1161 C1162 1.398 . S
C1162 H1150 0.950 . S
C1162 C1161 1.398 . S
C1162 C1163 1.391 . S
C1163 H1151 0.950 . S
C1163 C1159 1.393 . S
C1163 C1162 1.391 . S
H1164 C1172 0.950 . S
H1165 C1177 0.950 . S
H1166 C1174 0.950 . S
H1167 C1176 0.950 . S
H1168 C1178 0.950 . S
H1169 C1180 0.950 . S
H1170 C1182 0.950 . S
H1171 C1183 0.950 . S
C1172 H1164 0.950 . S
C1172 C1173 1.386 . S
C1172 C1174 1.391 . S
C1173 C1172 1.386 . S
C1173 C1177 1.393 . S
C1174 H1166 0.950 . S
C1174 C1172 1.391 . S
C1174 C1175 1.400 . S
C1175 C1174 1.400 . S
C1175 C1176 1.398 . S
C1175 C1181 1.491 . S
C1176 H1167 0.950 . S
C1176 C1175 1.398 . S
C1176 C1177 1.391 . S
C1177 H1165 0.950 . S
C1177 C1173 1.393 . S
C1177 C1176 1.391 . S
C1178 H1168 0.950 . S
C1178 C1179 1.386 . S
C1178 C1180 1.391 . S
C1179 C1178 1.386 . S
C1179 C1183 1.393 . S
C1180 H1169 0.950 . S
C1180 C1178 1.391 . S
C1180 C1181 1.400 . S
C1181 C1175 1.491 . S
C1181 C1180 1.400 . S
C1181 C1182 1.398 . S
C1182 H1170 0.950 . S
C1182 C1181 1.398 . S
C1182 C1183 1.391 . S
C1183 H1171 0.950 . S
C1183 C1179 1.393 . S
C1183 C1182 1.391 . S
H1184 C1192 0.950 . S
H1185 C1197 0.950 . S
H1186 C1194 0.950 . S
H1187 C1196 0.950 1_556 S
H1188 C1198 0.950 . S
H1189 C1200 0.950 . S
H1190 C1202 0.950 1_554 S
H1191 C1203 0.950 . S
C1192 H1184 0.950 . S
C1192 C1193 1.386 . S
C1192 C1194 1.391 . S
C1193 C1192 1.386 . S
C1193 C1197 1.393 . S
C1194 H1186 0.950 . S
C1194 C1192 1.391 . S
C1194 C1195 1.400 . S
C1195 C1194 1.400 . S
C1195 C1196 1.398 . S
C1195 C1201 1.491 1_554 S
C1196 H1187 0.950 1_554 S
C1196 C1195 1.398 . S
C1196 C1197 1.391 . S
C1197 H1185 0.950 . S
C1197 C1193 1.393 . S
C1197 C1196 1.391 . S
C1198 H1188 0.950 . S
C1198 C1199 1.386 . S
C1198 C1200 1.391 . S
C1199 C1198 1.386 . S
C1199 C1203 1.393 . S
C1200 H1189 0.950 . S
C1200 C1198 1.391 . S
C1200 C1201 1.400 . S
C1201 C1195 1.491 1_556 S
C1201 C1200 1.400 . S
C1201 C1202 1.398 . S
C1202 H1190 0.950 1_556 S
C1202 C1201 1.398 . S
C1202 C1203 1.391 . S
C1203 H1191 0.950 . S
C1203 C1199 1.393 . S
C1203 C1202 1.391 . S
H1204 C1212 0.950 . S
H1205 C1217 0.950 . S
H1206 C1214 0.950 1_655 S
H1207 C1216 0.950 . S
H1208 C1218 0.950 . S
H1209 C1220 0.950 1_455 S
H1210 C1222 0.950 . S
H1211 C1223 0.950 . S
C1212 H1204 0.950 . S
C1212 C1213 1.386 . S
C1212 C1214 1.391 . S
C1213 C1212 1.386 . S
C1213 C1217 1.393 . S
C1214 H1206 0.950 1_455 S
C1214 C1212 1.391 . S
C1214 C1215 1.400 . S
C1215 C1214 1.400 . S
C1215 C1216 1.398 . S
C1215 C1221 1.491 1_455 S
C1216 H1207 0.950 . S
C1216 C1215 1.398 . S
C1216 C1217 1.391 . S
C1217 H1205 0.950 . S
C1217 C1213 1.393 . S
C1217 C1216 1.391 . S
C1218 H1208 0.950 . S
C1218 C1219 1.386 . S
C1218 C1220 1.391 . S
C1219 C1218 1.386 . S
C1219 C1223 1.393 . S
C1220 H1209 0.950 1_655 S
C1220 C1218 1.391 . S
C1220 C1221 1.400 . S
C1221 C1215 1.491 1_655 S
C1221 C1220 1.400 . S
C1221 C1222 1.398 . S
C1222 H1210 0.950 . S
C1222 C1221 1.398 . S
C1222 C1223 1.391 . S
C1223 H1211 0.950 . S
C1223 C1219 1.393 . S
C1223 C1222 1.391 . S
H1224 C1232 0.950 . S
H1225 C1237 0.950 . S
H1226 C1234 0.950 1_655 S
H1227 C1236 0.940 1_556 S
H1228 C1238 0.950 . S
H1229 C1240 0.950 1_455 S
H1230 C1242 0.950 1_554 S
H1231 C1243 0.950 . S
C1232 H1224 0.950 . S
C1232 C1233 1.386 . S
C1232 C1234 1.391 . S
C1233 C1232 1.386 . S
C1233 C1237 1.393 . S
C1234 H1226 0.950 1_455 S
C1234 C1232 1.391 . S
C1234 C1235 1.400 . S
C1235 C1234 1.400 . S
C1235 C1236 1.398 . S
C1235 C1241 1.491 1_454 S
C1236 H1227 0.940 1_554 S
C1236 C1235 1.398 . S
C1236 C1237 1.391 . S
C1237 H1225 0.950 . S
C1237 C1233 1.393 . S
C1237 C1236 1.391 . S
C1238 H1228 0.950 . S
C1238 C1239 1.386 . S
C1238 C1240 1.391 . S
C1239 C1238 1.386 . S
C1239 C1243 1.393 . S
C1240 H1229 0.950 1_655 S
C1240 C1238 1.391 . S
C1240 C1241 1.400 . S
C1241 C1235 1.491 1_656 S
C1241 C1240 1.400 . S
C1241 C1242 1.398 . S
C1242 H1230 0.950 1_556 S
C1242 C1241 1.398 . S
C1242 C1243 1.391 . S
C1243 H1231 0.950 . S
C1243 C1239 1.393 . S
C1243 C1242 1.391 . S
H1244 C1252 0.950 . S
H1245 C1257 0.950 . S
H1246 C1254 0.950 . S
H1247 C1256 0.950 . S
H1248 C1258 0.950 . S
H1249 C1260 0.950 . S
H1250 C1262 0.950 . S
H1251 C1263 0.950 . S
C1252 H1244 0.950 . S
C1252 C1253 1.386 . S
C1252 C1254 1.391 . S
C1253 C1252 1.386 . S
C1253 C1257 1.393 . S
C1254 H1246 0.950 . S
C1254 C1252 1.391 . S
C1254 C1255 1.400 . S
C1255 C1254 1.400 . S
C1255 C1256 1.398 . S
C1255 C1261 1.491 . S
C1256 H1247 0.950 . S
C1256 C1255 1.398 . S
C1256 C1257 1.391 . S
C1257 H1245 0.950 . S
C1257 C1253 1.393 . S
C1257 C1256 1.391 . S
C1258 H1248 0.950 . S
C1258 C1259 1.386 . S
C1258 C1260 1.391 . S
C1259 C1258 1.386 . S
C1259 C1263 1.393 . S
C1260 H1249 0.950 . S
C1260 C1258 1.391 . S
C1260 C1261 1.400 . S
C1261 C1255 1.491 . S
C1261 C1260 1.400 . S
C1261 C1262 1.398 . S
C1262 H1250 0.950 . S
C1262 C1261 1.398 . S
C1262 C1263 1.391 . S
C1263 H1251 0.950 . S
C1263 C1259 1.393 . S
C1263 C1262 1.391 . S
H1264 C1272 0.950 . S
H1265 C1277 0.950 . S
H1266 C1274 0.950 . S
H1267 C1276 0.950 . S
H1268 C1278 0.950 . S
H1269 C1280 0.950 . S
H1270 C1282 0.950 . S
H1271 C1283 0.950 . S
C1272 H1264 0.950 . S
C1272 C1273 1.386 . S
C1272 C1274 1.391 . S
C1273 C1272 1.386 . S
C1273 C1277 1.393 . S
C1274 H1266 0.950 . S
C1274 C1272 1.391 . S
C1274 C1275 1.400 . S
C1275 C1274 1.400 . S
C1275 C1276 1.398 . S
C1275 C1281 1.491 . S
C1276 H1267 0.950 . S
C1276 C1275 1.398 . S
C1276 C1277 1.391 . S
C1277 H1265 0.950 . S
C1277 C1273 1.393 . S
C1277 C1276 1.391 . S
C1278 H1268 0.950 . S
C1278 C1279 1.386 . S
C1278 C1280 1.391 . S
C1279 C1278 1.386 . S
C1279 C1283 1.393 . S
C1280 H1269 0.950 . S
C1280 C1278 1.391 . S
C1280 C1281 1.400 . S
C1281 C1275 1.491 . S
C1281 C1280 1.400 . S
C1281 C1282 1.398 . S
C1282 H1270 0.950 . S
C1282 C1281 1.398 . S
C1282 C1283 1.391 . S
C1283 H1271 0.950 . S
C1283 C1279 1.393 . S
C1283 C1282 1.391 . S
H1284 C1292 0.950 . S
H1285 C1297 0.950 . S
H1286 C1294 0.950 . S
H1287 C1296 0.950 . S
H1288 C1298 0.950 . S
H1289 C1300 0.950 . S
H1290 C1302 0.950 . S
H1291 C1303 0.950 . S
C1292 H1284 0.950 . S
C1292 C1293 1.386 . S
C1292 C1294 1.391 . S
C1293 C1292 1.386 . S
C1293 C1297 1.393 . S
C1294 H1286 0.950 . S
C1294 C1292 1.391 . S
C1294 C1295 1.400 . S
C1295 C1294 1.400 . S
C1295 C1296 1.398 . S
C1295 C1301 1.491 . S
C1296 H1287 0.950 . S
C1296 C1295 1.398 . S
C1296 C1297 1.391 . S
C1297 H1285 0.950 . S
C1297 C1293 1.393 . S
C1297 C1296 1.391 . S
C1298 H1288 0.950 . S
C1298 C1299 1.386 . S
C1298 C1300 1.391 . S
C1299 C1298 1.386 . S
C1299 C1303 1.393 . S
C1300 H1289 0.950 . S
C1300 C1298 1.391 . S
C1300 C1301 1.400 . S
C1301 C1295 1.491 . S
C1301 C1300 1.400 . S
C1301 C1302 1.398 . S
C1302 H1290 0.950 . S
C1302 C1301 1.398 . S
C1302 C1303 1.391 . S
C1303 H1291 0.950 . S
C1303 C1299 1.393 . S
C1303 C1302 1.391 . S
H1304 C1312 0.950 . S
H1305 C1317 0.950 . S
H1306 C1314 0.950 . S
H1307 C1316 0.950 . S
H1308 C1318 0.950 . S
H1309 C1320 0.950 . S
H1310 C1322 0.950 . S
H1311 C1323 0.950 . S
C1312 H1304 0.950 . S
C1312 C1313 1.386 . S
C1312 C1314 1.391 . S
C1313 C1312 1.386 . S
C1313 C1317 1.393 . S
C1314 H1306 0.950 . S
C1314 C1312 1.391 . S
C1314 C1315 1.400 . S
C1315 C1314 1.400 . S
C1315 C1316 1.398 . S
C1315 C1321 1.491 . S
C1316 H1307 0.950 . S
C1316 C1315 1.398 . S
C1316 C1317 1.391 . S
C1317 H1305 0.950 . S
C1317 C1313 1.393 . S
C1317 C1316 1.391 . S
C1318 H1308 0.950 . S
C1318 C1319 1.386 . S
C1318 C1320 1.391 . S
C1319 C1318 1.386 . S
C1319 C1323 1.393 . S
C1320 H1309 0.950 . S
C1320 C1318 1.391 . S
C1320 C1321 1.400 . S
C1321 C1315 1.491 . S
C1321 C1320 1.400 . S
C1321 C1322 1.398 . S
C1322 H1310 0.950 . S
C1322 C1321 1.398 . S
C1322 C1323 1.391 . S
C1323 H1311 0.950 . S
C1323 C1319 1.393 . S
C1323 C1322 1.391 . S
H1324 C1332 0.950 . S
H1325 C1337 0.950 . S
H1326 C1334 0.950 . S
H1327 C1336 0.950 . S
H1328 C1338 0.950 . S
H1329 C1340 0.950 . S
H1330 C1342 0.950 . S
H1331 C1343 0.950 . S
C1332 H1324 0.950 . S
C1332 C1333 1.386 . S
C1332 C1334 1.391 . S
C1333 C1332 1.386 . S
C1333 C1337 1.393 . S
C1334 H1326 0.950 . S
C1334 C1332 1.391 . S
C1334 C1335 1.400 . S
C1335 C1334 1.400 . S
C1335 C1336 1.398 . S
C1335 C1341 1.491 . S
C1336 H1327 0.950 . S
C1336 C1335 1.398 . S
C1336 C1337 1.391 . S
C1337 H1325 0.950 . S
C1337 C1333 1.393 . S
C1337 C1336 1.391 . S
C1338 H1328 0.950 . S
C1338 C1339 1.386 . S
C1338 C1340 1.391 . S
C1339 C1338 1.386 . S
C1339 C1343 1.393 . S
C1340 H1329 0.950 . S
C1340 C1338 1.391 . S
C1340 C1341 1.400 . S
C1341 C1335 1.491 . S
C1341 C1340 1.400 . S
C1341 C1342 1.398 . S
C1342 H1330 0.950 . S
C1342 C1341 1.398 . S
C1342 C1343 1.391 . S
C1343 H1331 0.950 . S
C1343 C1339 1.393 . S
C1343 C1342 1.391 . S
H1344 C1352 0.950 . S
H1345 C1357 0.950 . S
H1346 C1354 0.950 . S
H1347 C1356 0.950 . S
H1348 C1358 0.950 . S
H1349 C1360 0.950 . S
H1350 C1362 0.950 . S
H1351 C1363 0.950 . S
C1352 H1344 0.950 . S
C1352 C1353 1.386 . S
C1352 C1354 1.391 . S
C1353 C1352 1.386 . S
C1353 C1357 1.393 . S
C1354 H1346 0.950 . S
C1354 C1352 1.391 . S
C1354 C1355 1.400 . S
C1355 C1354 1.400 . S
C1355 C1356 1.398 . S
C1355 C1361 1.491 . S
C1356 H1347 0.950 . S
C1356 C1355 1.398 . S
C1356 C1357 1.391 . S
C1357 H1345 0.950 . S
C1357 C1353 1.393 . S
C1357 C1356 1.391 . S
C1358 H1348 0.950 . S
C1358 C1359 1.386 . S
C1358 C1360 1.391 . S
C1359 C1358 1.386 . S
C1359 C1363 1.393 . S
C1360 H1349 0.950 . S
C1360 C1358 1.391 . S
C1360 C1361 1.400 . S
C1361 C1355 1.491 . S
C1361 C1360 1.400 . S
C1361 C1362 1.398 . S
C1362 H1350 0.950 . S
C1362 C1361 1.398 . S
C1362 C1363 1.391 . S
C1363 H1351 0.950 . S
C1363 C1359 1.393 . S
C1363 C1362 1.391 . S
H1364 C1372 0.950 . S
H1365 C1377 0.950 . S
H1366 C1374 0.950 . S
H1367 C1376 0.950 . S
H1368 C1378 0.950 . S
H1369 C1380 0.950 . S
H1370 C1382 0.950 . S
H1371 C1383 0.950 . S
C1372 H1364 0.950 . S
C1372 C1373 1.386 . S
C1372 C1374 1.391 . S
C1373 C1372 1.386 . S
C1373 C1377 1.393 . S
C1374 H1366 0.950 . S
C1374 C1372 1.391 . S
C1374 C1375 1.400 . S
C1375 C1374 1.400 . S
C1375 C1376 1.398 . S
C1375 C1381 1.491 . S
C1376 H1367 0.950 . S
C1376 C1375 1.398 . S
C1376 C1377 1.391 . S
C1377 H1365 0.950 . S
C1377 C1373 1.393 . S
C1377 C1376 1.391 . S
C1378 H1368 0.950 . S
C1378 C1379 1.386 . S
C1378 C1380 1.391 . S
C1379 C1378 1.386 . S
C1379 C1383 1.393 . S
C1380 H1369 0.950 . S
C1380 C1378 1.391 . S
C1380 C1381 1.400 . S
C1381 C1375 1.491 . S
C1381 C1380 1.400 . S
C1381 C1382 1.398 . S
C1382 H1370 0.950 . S
C1382 C1381 1.398 . S
C1382 C1383 1.391 . S
C1383 H1371 0.950 . S
C1383 C1379 1.393 . S
C1383 C1382 1.391 . S
H1384 C1392 0.950 . S
H1385 C1397 0.950 . S
H1386 C1394 0.950 . S
H1387 C1396 0.950 . S
H1388 C1398 0.950 . S
H1389 C1400 0.950 . S
H1390 C1402 0.950 . S
H1391 C1403 0.950 . S
C1392 H1384 0.950 . S
C1392 C1393 1.386 . S
C1392 C1394 1.391 . S
C1393 C1392 1.386 . S
C1393 C1397 1.393 . S
C1394 H1386 0.950 . S
C1394 C1392 1.391 . S
C1394 C1395 1.400 . S
C1395 C1394 1.400 . S
C1395 C1396 1.398 . S
C1395 C1401 1.491 . S
C1396 H1387 0.950 . S
C1396 C1395 1.398 . S
C1396 C1397 1.391 . S
C1397 H1385 0.950 . S
C1397 C1393 1.393 . S
C1397 C1396 1.391 . S
C1398 H1388 0.950 . S
C1398 C1399 1.386 . S
C1398 C1400 1.391 . S
C1399 C1398 1.386 . S
C1399 C1403 1.393 . S
C1400 H1389 0.950 . S
C1400 C1398 1.391 . S
C1400 C1401 1.400 . S
C1401 C1395 1.491 . S
C1401 C1400 1.400 . S
C1401 C1402 1.398 . S
C1402 H1390 0.950 . S
C1402 C1401 1.398 . S
C1402 C1403 1.391 . S
C1403 H1391 0.950 . S
C1403 C1399 1.393 . S
C1403 C1402 1.391 . S
H1404 C1412 0.950 . S
H1405 C1417 0.950 . S
H1406 C1414 0.950 . S
H1407 C1416 0.950 . S
H1408 C1418 0.950 . S
H1409 C1420 0.950 . S
H1410 C1422 0.950 . S
H1411 C1423 0.950 . S
C1412 H1404 0.950 . S
C1412 C1413 1.386 . S
C1412 C1414 1.391 . S
C1413 C1412 1.386 . S
C1413 C1417 1.393 . S
C1414 H1406 0.950 . S
C1414 C1412 1.391 . S
C1414 C1415 1.400 . S
C1415 C1414 1.400 . S
C1415 C1416 1.398 . S
C1415 C1421 1.491 . S
C1416 H1407 0.950 . S
C1416 C1415 1.398 . S
C1416 C1417 1.391 . S
C1417 H1405 0.950 . S
C1417 C1413 1.393 . S
C1417 C1416 1.391 . S
C1418 H1408 0.950 . S
C1418 C1419 1.386 . S
C1418 C1420 1.391 . S
C1419 C1418 1.386 . S
C1419 C1423 1.393 . S
C1420 H1409 0.950 . S
C1420 C1418 1.391 . S
C1420 C1421 1.400 . S
C1421 C1415 1.491 . S
C1421 C1420 1.400 . S
C1421 C1422 1.398 . S
C1422 H1410 0.950 . S
C1422 C1421 1.398 . S
C1422 C1423 1.391 . S
C1423 H1411 0.950 . S
C1423 C1419 1.393 . S
C1423 C1422 1.391 . S
H1424 C1432 0.950 . S
H1425 C1437 0.950 . S
H1426 C1434 0.950 . S
H1427 C1436 0.950 . S
H1428 C1438 0.950 . S
H1429 C1440 0.950 . S
H1430 C1442 0.950 . S
H1431 C1443 0.950 . S
C1432 H1424 0.950 . S
C1432 C1433 1.386 . S
C1432 C1434 1.391 . S
C1433 C1432 1.386 . S
C1433 C1437 1.393 . S
C1434 H1426 0.950 . S
C1434 C1432 1.391 . S
C1434 C1435 1.400 . S
C1435 C1434 1.400 . S
C1435 C1436 1.398 . S
C1435 C1441 1.491 . S
C1436 H1427 0.950 . S
C1436 C1435 1.398 . S
C1436 C1437 1.391 . S
C1437 H1425 0.950 . S
C1437 C1433 1.393 . S
C1437 C1436 1.391 . S
C1438 H1428 0.950 . S
C1438 C1439 1.386 . S
C1438 C1440 1.391 . S
C1439 C1438 1.386 . S
C1439 C1443 1.393 . S
C1440 H1429 0.950 . S
C1440 C1438 1.391 . S
C1440 C1441 1.400 . S
C1441 C1435 1.491 . S
C1441 C1440 1.400 . S
C1441 C1442 1.398 . S
C1442 H1430 0.950 . S
C1442 C1441 1.398 . S
C1442 C1443 1.391 . S
C1443 H1431 0.950 . S
C1443 C1439 1.393 . S
C1443 C1442 1.391 . S
H1444 C1452 0.950 . S
H1445 C1457 0.950 . S
H1446 C1454 0.950 . S
H1447 C1456 0.950 . S
H1448 C1458 0.950 . S
H1449 C1460 0.950 . S
H1450 C1462 0.950 . S
H1451 C1463 0.950 . S
C1452 H1444 0.950 . S
C1452 C1453 1.386 . S
C1452 C1454 1.391 . S
C1453 C1452 1.386 . S
C1453 C1457 1.393 . S
C1454 H1446 0.950 . S
C1454 C1452 1.391 . S
C1454 C1455 1.400 . S
C1455 C1454 1.400 . S
C1455 C1456 1.398 . S
C1455 C1461 1.491 . S
C1456 H1447 0.950 . S
C1456 C1455 1.398 . S
C1456 C1457 1.391 . S
C1457 H1445 0.950 . S
C1457 C1453 1.393 . S
C1457 C1456 1.391 . S
C1458 H1448 0.950 . S
C1458 C1459 1.386 . S
C1458 C1460 1.391 . S
C1459 C1458 1.386 . S
C1459 C1463 1.393 . S
C1460 H1449 0.950 . S
C1460 C1458 1.391 . S
C1460 C1461 1.400 . S
C1461 C1455 1.491 . S
C1461 C1460 1.400 . S
C1461 C1462 1.398 . S
C1462 H1450 0.950 . S
C1462 C1461 1.398 . S
C1462 C1463 1.391 . S
C1463 H1451 0.950 . S
C1463 C1459 1.393 . S
C1463 C1462 1.391 . S
H1464 C1472 0.950 . S
H1465 C1477 0.950 . S
H1466 C1474 0.950 . S
H1467 C1476 0.950 . S
H1468 C1478 0.950 . S
H1469 C1480 0.950 . S
H1470 C1482 0.950 . S
H1471 C1483 0.950 . S
C1472 H1464 0.950 . S
C1472 C1473 1.386 . S
C1472 C1474 1.391 . S
C1473 C1472 1.386 . S
C1473 C1477 1.393 . S
C1474 H1466 0.950 . S
C1474 C1472 1.391 . S
C1474 C1475 1.400 . S
C1475 C1474 1.400 . S
C1475 C1476 1.398 . S
C1475 C1481 1.491 . S
C1476 H1467 0.950 . S
C1476 C1475 1.398 . S
C1476 C1477 1.391 . S
C1477 H1465 0.950 . S
C1477 C1473 1.393 . S
C1477 C1476 1.391 . S
C1478 H1468 0.950 . S
C1478 C1479 1.386 . S
C1478 C1480 1.391 . S
C1479 C1478 1.386 . S
C1479 C1483 1.393 . S
C1480 H1469 0.950 . S
C1480 C1478 1.391 . S
C1480 C1481 1.400 . S
C1481 C1475 1.491 . S
C1481 C1480 1.400 . S
C1481 C1482 1.398 . S
C1482 H1470 0.950 . S
C1482 C1481 1.398 . S
C1482 C1483 1.391 . S
C1483 H1471 0.950 . S
C1483 C1479 1.393 . S
C1483 C1482 1.391 . S
H1484 C1492 0.950 . S
H1485 C1497 0.950 . S
H1486 C1494 0.950 . S
H1487 C1496 0.950 . S
H1488 C1498 0.950 . S
H1489 C1500 0.950 . S
H1490 C1502 0.950 . S
H1491 C1503 0.950 . S
C1492 H1484 0.950 . S
C1492 C1493 1.386 . S
C1492 C1494 1.391 . S
C1493 C1492 1.386 . S
C1493 C1497 1.393 . S
C1494 H1486 0.950 . S
C1494 C1492 1.391 . S
C1494 C1495 1.400 . S
C1495 C1494 1.400 . S
C1495 C1496 1.398 . S
C1495 C1501 1.491 . S
C1496 H1487 0.950 . S
C1496 C1495 1.398 . S
C1496 C1497 1.391 . S
C1497 H1485 0.950 . S
C1497 C1493 1.393 . S
C1497 C1496 1.391 . S
C1498 H1488 0.950 . S
C1498 C1499 1.386 . S
C1498 C1500 1.391 . S
C1499 C1498 1.386 . S
C1499 C1503 1.393 . S
C1500 H1489 0.950 . S
C1500 C1498 1.391 . S
C1500 C1501 1.400 . S
C1501 C1495 1.491 . S
C1501 C1500 1.400 . S
C1501 C1502 1.398 . S
C1502 H1490 0.950 . S
C1502 C1501 1.398 . S
C1502 C1503 1.391 . S
C1503 H1491 0.950 . S
C1503 C1499 1.393 . S
C1503 C1502 1.391 . S
H1504 C1512 0.950 . S
H1505 C1517 0.950 . S
H1506 C1514 0.950 . S
H1507 C1516 0.950 . S
H1508 C1518 0.950 . S
H1509 C1520 0.950 . S
H1510 C1522 0.950 . S
H1511 C1523 0.950 . S
C1512 H1504 0.950 . S
C1512 C1513 1.386 . S
C1512 C1514 1.391 . S
C1513 C1512 1.386 . S
C1513 C1517 1.393 . S
C1514 H1506 0.950 . S
C1514 C1512 1.391 . S
C1514 C1515 1.400 . S
C1515 C1514 1.400 . S
C1515 C1516 1.398 . S
C1515 C1521 1.491 . S
C1516 H1507 0.950 . S
C1516 C1515 1.398 . S
C1516 C1517 1.391 . S
C1517 H1505 0.950 . S
C1517 C1513 1.393 . S
C1517 C1516 1.391 . S
C1518 H1508 0.950 . S
C1518 C1519 1.386 . S
C1518 C1520 1.391 . S
C1519 C1518 1.386 . S
C1519 C1523 1.393 . S
C1520 H1509 0.950 . S
C1520 C1518 1.391 . S
C1520 C1521 1.400 . S
C1521 C1515 1.491 . S
C1521 C1520 1.400 . S
C1521 C1522 1.398 . S
C1522 H1510 0.950 . S
C1522 C1521 1.398 . S
C1522 C1523 1.391 . S
C1523 H1511 0.950 . S
C1523 C1519 1.393 . S
C1523 C1522 1.391 . S
H1524 C1532 0.950 . S
H1525 C1537 0.950 . S
H1526 C1534 0.950 . S
H1527 C1536 0.950 . S
H1528 C1538 0.950 . S
H1529 C1540 0.950 . S
H1530 C1542 0.950 . S
H1531 C1543 0.950 . S
C1532 H1524 0.950 . S
C1532 C1533 1.386 . S
C1532 C1534 1.391 . S
C1533 C1532 1.386 . S
C1533 C1537 1.393 . S
C1534 H1526 0.950 . S
C1534 C1532 1.391 . S
C1534 C1535 1.400 . S
C1535 C1534 1.400 . S
C1535 C1536 1.398 . S
C1535 C1541 1.491 . S
C1536 H1527 0.950 . S
C1536 C1535 1.398 . S
C1536 C1537 1.391 . S
C1537 H1525 0.950 . S
C1537 C1533 1.393 . S
C1537 C1536 1.391 . S
C1538 H1528 0.950 . S
C1538 C1539 1.386 . S
C1538 C1540 1.391 . S
C1539 C1538 1.386 . S
C1539 C1543 1.393 . S
C1540 H1529 0.950 . S
C1540 C1538 1.391 . S
C1540 C1541 1.400 . S
C1541 C1535 1.491 . S
C1541 C1540 1.400 . S
C1541 C1542 1.398 . S
C1542 H1530 0.950 . S
C1542 C1541 1.398 . S
C1542 C1543 1.391 . S
C1543 H1531 0.950 . S
C1543 C1539 1.393 . S
C1543 C1542 1.391 . S
H1544 C1552 0.950 . S
H1545 C1557 0.950 . S
H1546 C1554 0.950 . S
H1547 C1556 0.950 . S
H1548 C1558 0.950 . S
H1549 C1560 0.950 . S
H1550 C1562 0.950 . S
H1551 C1563 0.950 . S
C1552 H1544 0.950 . S
C1552 C1553 1.386 . S
C1552 C1554 1.391 . S
C1553 C1552 1.386 . S
C1553 C1557 1.393 . S
C1554 H1546 0.950 . S
C1554 C1552 1.391 . S
C1554 C1555 1.400 . S
C1555 C1554 1.400 . S
C1555 C1556 1.398 . S
C1555 C1561 1.491 . S
C1556 H1547 0.950 . S
C1556 C1555 1.398 . S
C1556 C1557 1.391 . S
C1557 H1545 0.950 . S
C1557 C1553 1.393 . S
C1557 C1556 1.391 . S
C1558 H1548 0.950 . S
C1558 C1559 1.386 . S
C1558 C1560 1.391 . S
C1559 C1558 1.386 . S
C1559 C1563 1.393 . S
C1560 H1549 0.950 . S
C1560 C1558 1.391 . S
C1560 C1561 1.400 . S
C1561 C1555 1.491 . S
C1561 C1560 1.400 . S
C1561 C1562 1.398 . S
C1562 H1550 0.950 . S
C1562 C1561 1.398 . S
C1562 C1563 1.391 . S
C1563 H1551 0.950 . S
C1563 C1559 1.393 . S
C1563 C1562 1.391 . S
H1564 C1572 0.950 . S
H1565 C1577 0.950 . S
H1566 C1574 0.950 . S
H1567 C1576 0.950 . S
H1568 C1578 0.950 . S
H1569 C1580 0.950 . S
H1570 C1582 0.950 . S
H1571 C1583 0.950 . S
C1572 H1564 0.950 . S
C1572 C1573 1.386 . S
C1572 C1574 1.391 . S
C1573 C1572 1.386 . S
C1573 C1577 1.393 . S
C1574 H1566 0.950 . S
C1574 C1572 1.391 . S
C1574 C1575 1.400 . S
C1575 C1574 1.400 . S
C1575 C1576 1.398 . S
C1575 C1581 1.491 . S
C1576 H1567 0.950 . S
C1576 C1575 1.398 . S
C1576 C1577 1.391 . S
C1577 H1565 0.950 . S
C1577 C1573 1.393 . S
C1577 C1576 1.391 . S
C1578 H1568 0.950 . S
C1578 C1579 1.386 . S
C1578 C1580 1.391 . S
C1579 C1578 1.386 . S
C1579 C1583 1.393 . S
C1580 H1569 0.950 . S
C1580 C1578 1.391 . S
C1580 C1581 1.400 . S
C1581 C1575 1.491 . S
C1581 C1580 1.400 . S
C1581 C1582 1.398 . S
C1582 H1570 0.950 . S
C1582 C1581 1.398 . S
C1582 C1583 1.391 . S
C1583 H1571 0.950 . S
C1583 C1579 1.393 . S
C1583 C1582 1.391 . S
C953 C33 1.670 . S
C959 C741 1.670 . S
C973 C111 1.661 . S
C979 C347 1.659 . S
C993 C151 1.667 . S
C999 C859 1.667 . S
C1013 C465 1.660 . S
C1019 C229 1.660 . S
C1033 C878 1.659 . S
C1039 C170 1.659 . S
C1053 C446 1.667 . S
C1059 C210 1.669 . S
C1073 C760 1.664 . S
C1079 C52 1.664 . S
C1093 C328 1.668 . S
C1099 C92 1.668 . S
C1113 C269 1.669 . S
C1119 C505 1.669 . S
C1133 C387 1.670 . S
C1139 C623 1.670 . S
C1153 C642 1.658 . S
C1159 C406 1.658 . S
C1173 C288 1.659 . S
C1179 C524 1.659 . S
C1193 C819 1.660 . S
C1199 C583 1.660 . S
C1213 C701 1.658 . S
C1219 C937 1.658 . S
C1233 C682 1.668 . S
C1239 C918 1.668 . S
C1253 C564 1.667 . S
C1259 C800 1.667 . S
C1273 C654 1.492 . S
C1279 C5 1.492 . S
C1293 C475 1.491 . S
C1299 C62 1.488 . S
C1313 C123 1.494 . S
C1319 C536 1.494 . S
C1333 C593 1.489 . S
C1339 C180 1.492 . S
C1353 C652 1.492 . S
C1359 C121 1.489 . S
C1373 C182 1.491 . S
C1379 C477 1.491 . S
C1393 C534 1.488 . S
C1399 C3 1.492 . S
C1413 C595 1.492 . S
C1419 C64 1.492 . S
C1433 C241 1.492 . S
C1439 C890 1.492 . S
C1453 C711 1.492 . S
C1459 C298 1.487 . S
C1473 C359 1.493 . S
C1479 C772 1.493 . S
C1493 C416 1.490 . S
C1499 C829 1.491 . S
C1513 C357 1.488 . S
C1519 C888 1.490 . S
C1533 C713 1.491 . S
C1539 C418 1.491 . S
C1553 C770 1.487 . S
C1559 C239 1.491 . S
C1573 C831 1.492 . S
C1579 C300 1.492 . S
