# Generated by pormake.
# Topology sow, (4)-cn, num edge types: 1
# Building blocks:
#     Node 0, Type 0, BuildingBlock: CEKHIL_clean_sbu_0, # of connection points: 4
#     Node 1, Type 0, BuildingBlock: CEKHIL_clean_sbu_0, # of connection points: 4
#     Node 2, Type 0, BuildingBlock: CEKHIL_clean_sbu_0, # of connection points: 4
#     Node 3, Type 0, BuildingBlock: CEKHIL_clean_sbu_0, # of connection points: 4
#     Node 4, Type 0, BuildingBlock: CEKHIL_clean_sbu_0, # of connection points: 4
#     Node 5, Type 0, BuildingBlock: CEKHIL_clean_sbu_0, # of connection points: 4
#     Node 6, Type 0, BuildingBlock: CEKHIL_clean_sbu_0, # of connection points: 4
#     Node 7, Type 0, BuildingBlock: CEKHIL_clean_sbu_0, # of connection points: 4
#     Edge 8, Type (0, 0), BuildingBlock: KIFKEQ_clean_linker_1, # of connection points: 2
#     Edge 9, Type (0, 0), BuildingBlock: KIFKEQ_clean_linker_1, # of connection points: 2
#     Edge 10, Type (0, 0), BuildingBlock: KIFKEQ_clean_linker_1, # of connection points: 2
#     Edge 11, Type (0, 0), BuildingBlock: KIFKEQ_clean_linker_1, # of connection points: 2
#     Edge 12, Type (0, 0), BuildingBlock: KIFKEQ_clean_linker_1, # of connection points: 2
#     Edge 13, Type (0, 0), BuildingBlock: KIFKEQ_clean_linker_1, # of connection points: 2
#     Edge 14, Type (0, 0), BuildingBlock: KIFKEQ_clean_linker_1, # of connection points: 2
#     Edge 15, Type (0, 0), BuildingBlock: KIFKEQ_clean_linker_1, # of connection points: 2
#     Edge 16, Type (0, 0), BuildingBlock: KIFKEQ_clean_linker_1, # of connection points: 2
#     Edge 17, Type (0, 0), BuildingBlock: KIFKEQ_clean_linker_1, # of connection points: 2
#     Edge 18, Type (0, 0), BuildingBlock: KIFKEQ_clean_linker_1, # of connection points: 2
#     Edge 19, Type (0, 0), BuildingBlock: KIFKEQ_clean_linker_1, # of connection points: 2
#     Edge 20, Type (0, 0), BuildingBlock: KIFKEQ_clean_linker_1, # of connection points: 2
#     Edge 21, Type (0, 0), BuildingBlock: KIFKEQ_clean_linker_1, # of connection points: 2
#     Edge 22, Type (0, 0), BuildingBlock: KIFKEQ_clean_linker_1, # of connection points: 2
#     Edge 23, Type (0, 0), BuildingBlock: KIFKEQ_clean_linker_1, # of connection points: 2
# Relax obj value: 0.166
# Max RMSD: 0.206
# Mean RMSD: 0.206
data_MOF--net-sow--node1-CEKHIL_clean_sbu_0--edge1-KIFKEQ_clean_linker_1
_symmetry_space_group_name_H-M    P1
_symmetry_Int_Tables_number       1
_symmetry_cell_setting            triclinic
loop_
_symmetry_equiv_pos_as_xyz
'x, y, z'
_cell_length_a     39.557556
_cell_length_b     22.540266
_cell_length_c     23.788229
_cell_angle_alpha  90.001743
_cell_angle_beta   89.96969
_cell_angle_gamma 89.975367
loop_
_atom_site_label
_atom_site_type_symbol
_atom_site_fract_x
_atom_site_fract_y
_atom_site_fract_z
_atom_type_partial_charge
Co0 Co 0.14528 0.1751 0.04781 0.0
O1 O 0.18065 0.16192 0.99409 0.0
O2 O 0.16442 0.25021 0.025 0.0
C3 C 0.10667 0.11516 0.00803 0.0
O4 O 0.10896 0.20587 0.10084 0.0
Co5 Co 0.11776 0.07048 0.12032 0.0
O6 O 0.07944 0.12649 0.13062 0.0
C7 C 0.18057 0.13183 0.15451 0.0
C8 C 0.18338 0.21922 0.99125 0.0
C9 C 0.08309 0.18232 0.12465 0.0
O10 O 0.17785 0.16814 0.11284 0.0
O11 O 0.16051 0.08799 0.16231 0.0
O12 O 0.11131 0.16843 0.9888 0.0
O13 O 0.12807 0.09776 0.04549 0.0
Co14 Co 0.3441 0.32793 0.54719 0.0
O15 O 0.30833 0.34078 0.4942 0.0
O16 O 0.32504 0.25266 0.52481 0.0
C17 C 0.38227 0.38812 0.50653 0.0
O18 O 0.38088 0.29744 0.59942 0.0
Co19 Co 0.3719 0.43257 0.61921 0.0
O20 O 0.41053 0.37699 0.6283 0.0
C21 C 0.30946 0.3708 0.6547 0.0
C22 C 0.30581 0.28346 0.49138 0.0
C23 C 0.40696 0.32114 0.62246 0.0
O24 O 0.31196 0.33463 0.61288 0.0
O25 O 0.32953 0.41467 0.66224 0.0
O26 O 0.37759 0.33481 0.48746 0.0
O27 O 0.36112 0.40543 0.5445 0.0
Co28 Co 0.64212 0.33099 0.94921 0.0
O29 O 0.67808 0.3458 0.00162 0.0
O30 O 0.65922 0.25671 0.97781 0.0
C31 C 0.60547 0.39812 0.98428 0.0
O32 O 0.60481 0.29835 0.89915 0.0
Co33 Co 0.61675 0.4304 0.86828 0.0
O34 O 0.5773 0.37641 0.86184 0.0
C35 C 0.67873 0.36308 0.84029 0.0
C36 C 0.67919 0.28874 0.00888 0.0
C37 C 0.57963 0.32124 0.87283 0.0
O38 O 0.67468 0.32936 0.88361 0.0
O39 O 0.65986 0.40789 0.82971 0.0
O40 O 0.60871 0.34653 0.00796 0.0
O41 O 0.62695 0.40949 0.94491 0.0
Co42 Co 0.84721 0.16735 0.44946 0.0
O43 O 0.81083 0.15288 0.50123 0.0
O44 O 0.83018 0.24177 0.47778 0.0
C45 C 0.88338 0.09985 0.48522 0.0
O46 O 0.88498 0.19978 0.40022 0.0
Co47 Co 0.87308 0.06814 0.36884 0.0
O48 O 0.91284 0.12162 0.36387 0.0
C49 C 0.81142 0.13587 0.33969 0.0
C50 C 0.80994 0.20995 0.50856 0.0
C51 C 0.91047 0.1768 0.37477 0.0
O52 O 0.81513 0.16934 0.38327 0.0
O53 O 0.83038 0.09113 0.32927 0.0
O54 O 0.8801 0.15147 0.50883 0.0
O55 O 0.86221 0.08868 0.44535 0.0
Co56 Co 0.84914 0.8295 0.95452 0.0
O57 O 0.81276 0.84391 0.00633 0.0
O58 O 0.83255 0.7551 0.9835 0.0
C59 C 0.88501 0.89787 0.9896 0.0
O60 O 0.88702 0.79713 0.90543 0.0
Co61 Co 0.87462 0.92829 0.87312 0.0
O62 O 0.91466 0.87531 0.86878 0.0
C63 C 0.81313 0.85974 0.84467 0.0
C64 C 0.8122 0.7869 0.01414 0.0
C65 C 0.91248 0.82018 0.88002 0.0
O66 O 0.81698 0.82655 0.88842 0.0
O67 O 0.83196 0.90456 0.83395 0.0
O68 O 0.88204 0.84642 0.01364 0.0
O69 O 0.86373 0.90832 0.94973 0.0
Co70 Co 0.64293 0.66755 0.45335 0.0
O71 O 0.67829 0.65148 0.50662 0.0
O72 O 0.66038 0.74119 0.48279 0.0
C73 C 0.60536 0.60127 0.48701 0.0
O74 O 0.60634 0.70145 0.40252 0.0
Co75 Co 0.6177 0.56917 0.37119 0.0
O76 O 0.57879 0.62427 0.36367 0.0
C77 C 0.68048 0.63496 0.34539 0.0
C78 C 0.67981 0.70846 0.51418 0.0
C79 C 0.58134 0.67929 0.3752 0.0
O80 O 0.67614 0.66872 0.38862 0.0
O81 O 0.66146 0.59055 0.33417 0.0
O82 O 0.60884 0.65259 0.51112 0.0
O83 O 0.62716 0.5895 0.44822 0.0
Co84 Co 0.34607 0.67768 0.04929 0.0
O85 O 0.31049 0.66447 0.99607 0.0
O86 O 0.32703 0.75284 0.02621 0.0
C87 C 0.38434 0.61715 0.00921 0.0
O88 O 0.38273 0.70837 0.10172 0.0
Co89 Co 0.37359 0.57319 0.12193 0.0
O90 O 0.4122 0.62874 0.1311 0.0
C91 C 0.31093 0.63502 0.15639 0.0
C92 C 0.30791 0.72176 0.99282 0.0
C93 C 0.40871 0.68459 0.12504 0.0
O94 O 0.31369 0.67132 0.11471 0.0
O95 O 0.33092 0.59104 0.1641 0.0
O96 O 0.37978 0.6704 0.98988 0.0
O97 O 0.36307 0.60015 0.0471 0.0
Co98 Co 0.14492 0.82529 0.55042 0.0
O99 O 0.1798 0.83981 0.49614 0.0
O100 O 0.16473 0.7509 0.527 0.0
C101 C 0.10547 0.88416 0.51137 0.0
O102 O 0.10929 0.79314 0.60395 0.0
Co103 Co 0.11666 0.92871 0.62371 0.0
O104 O 0.07902 0.87142 0.63436 0.0
C105 C 0.18039 0.86941 0.65664 0.0
C106 C 0.18312 0.78263 0.49303 0.0
C107 C 0.08328 0.81574 0.62822 0.0
O108 O 0.17781 0.83309 0.61494 0.0
O109 O 0.15988 0.91255 0.66488 0.0
O110 O 0.11052 0.83106 0.49199 0.0
O111 O 0.12686 0.90208 0.54864 0.0
H112 H 0.26683 0.27529 0.66286 0.0
H113 H 0.29783 0.43387 0.75135 0.0
H114 H 0.23571 0.24303 0.7457 0.0
H115 H 0.26728 0.40075 0.83435 0.0
H116 H 0.18494 0.33625 0.95992 0.0
H117 H 0.21188 0.37793 0.87614 0.0
H118 H 0.25426 0.20604 0.83735 0.0
H119 H 0.2271 0.16443 0.92008 0.0
C120 C 0.26663 0.30377 0.69953 0.0
C121 C 0.28525 0.35685 0.70048 0.0
C122 C 0.24906 0.28494 0.74726 0.0
C123 C 0.24968 0.31873 0.79697 0.0
C124 C 0.26635 0.37368 0.79677 0.0
C125 C 0.28393 0.39256 0.74905 0.0
C126 C 0.20043 0.30767 0.93388 0.0
C127 C 0.20375 0.247 0.94638 0.0
C128 C 0.21575 0.33147 0.88583 0.0
C129 C 0.23459 0.29497 0.84949 0.0
C130 C 0.23911 0.23497 0.8636 0.0
C131 C 0.22386 0.21127 0.91142 0.0
H132 H 0.19308 0.06783 0.25025 0.0
H133 H 0.22264 0.22806 0.16303 0.0
H134 H 0.22343 0.10092 0.3334 0.0
H135 H 0.25359 0.26029 0.246 0.0
H136 H 0.26144 0.33762 0.42094 0.0
H137 H 0.23464 0.29595 0.33795 0.0
H138 H 0.27853 0.12492 0.37539 0.0
H139 H 0.30509 0.16662 0.45943 0.0
C140 C 0.20665 0.1095 0.24825 0.0
C141 C 0.20494 0.14569 0.20002 0.0
C142 C 0.22411 0.12837 0.29604 0.0
C143 C 0.24028 0.18377 0.29667 0.0
C144 C 0.2406 0.21802 0.24723 0.0
C145 C 0.22315 0.1992 0.19943 0.0
C146 C 0.26507 0.29094 0.41195 0.0
C147 C 0.2855 0.25546 0.44658 0.0
C148 C 0.25003 0.26723 0.36397 0.0
C149 C 0.25511 0.20748 0.34938 0.0
C150 C 0.27424 0.17118 0.38544 0.0
C151 C 0.28934 0.19499 0.43365 0.0
H152 H 0.79428 0.07383 0.24515 0.0
H153 H 0.77309 0.23736 0.33357 0.0
H154 H 0.76198 0.10889 0.16514 0.0
H155 H 0.73981 0.27171 0.25365 0.0
H156 H 0.72421 0.34516 0.07694 0.0
H157 H 0.75282 0.30543 0.15929 0.0
H158 H 0.70687 0.13439 0.12949 0.0
H159 H 0.67882 0.17392 0.04612 0.0
C160 C 0.7822 0.11685 0.24808 0.0
C161 C 0.78666 0.15303 0.29577 0.0
C162 C 0.76352 0.13684 0.20208 0.0
C163 C 0.7487 0.19344 0.20261 0.0
C164 C 0.75155 0.22836 0.25145 0.0
C165 C 0.77032 0.20838 0.29755 0.0
C166 C 0.72048 0.2989 0.08761 0.0
C167 C 0.6993 0.26264 0.05498 0.0
C168 C 0.73655 0.27631 0.13525 0.0
C169 C 0.73174 0.21696 0.15151 0.0
C170 C 0.71122 0.18025 0.11802 0.0
C171 C 0.69519 0.20285 0.07018 0.0
H172 H 0.69698 0.42606 0.74689 0.0
H173 H 0.7163 0.26078 0.83351 0.0
H174 H 0.72904 0.39096 0.66657 0.0
H175 H 0.74937 0.22638 0.75331 0.0
H176 H 0.76418 0.15432 0.57595 0.0
H177 H 0.73598 0.19415 0.65872 0.0
H178 H 0.78371 0.36398 0.63035 0.0
H179 H 0.8113 0.32441 0.54657 0.0
C180 C 0.70863 0.38264 0.74937 0.0
C181 C 0.70366 0.34597 0.79659 0.0
C182 C 0.72717 0.36262 0.7032 0.0
C183 C 0.74134 0.30551 0.70311 0.0
C184 C 0.7381 0.27013 0.75158 0.0
C185 C 0.71947 0.29014 0.79785 0.0
C186 C 0.76837 0.20035 0.58701 0.0
C187 C 0.78991 0.23626 0.55469 0.0
C188 C 0.75255 0.22298 0.63489 0.0
C189 C 0.758 0.28199 0.65171 0.0
C190 C 0.77886 0.31839 0.61847 0.0
C191 C 0.79462 0.29577 0.57039 0.0
H192 H 0.76621 0.8424 0.08126 0.0
H193 H 0.81435 0.67287 0.05319 0.0
H194 H 0.73826 0.80282 0.16434 0.0
H195 H 0.787 0.63356 0.13728 0.0
H196 H 0.69992 0.57115 0.25317 0.0
H197 H 0.73243 0.60593 0.17326 0.0
H198 H 0.7515 0.77142 0.25922 0.0
H199 H 0.71797 0.7373 0.33898 0.0
C200 C 0.77069 0.79655 0.09269 0.0
C201 C 0.79242 0.76071 0.0606 0.0
C202 C 0.75501 0.77407 0.14076 0.0
C203 C 0.76079 0.71528 0.15801 0.0
C204 C 0.7819 0.67897 0.12507 0.0
C205 C 0.79751 0.70144 0.07679 0.0
C206 C 0.71141 0.61469 0.25558 0.0
C207 C 0.7059 0.65172 0.30238 0.0
C208 C 0.73021 0.63454 0.20965 0.0
C209 C 0.74411 0.69183 0.2094 0.0
C210 C 0.74043 0.72751 0.25759 0.0
C211 C 0.72154 0.70767 0.30362 0.0
H212 H 0.6801 0.82308 0.55183 0.0
H213 H 0.72406 0.65066 0.58274 0.0
H214 H 0.70832 0.86183 0.63527 0.0
H215 H 0.75294 0.68964 0.66517 0.0
H216 H 0.77476 0.75821 0.83904 0.0
H217 H 0.7411 0.72389 0.7595 0.0
H218 H 0.76333 0.88631 0.67041 0.0
H219 H 0.7959 0.92135 0.74999 0.0
C220 C 0.69619 0.7937 0.57595 0.0
C221 C 0.69988 0.73385 0.56069 0.0
C222 C 0.71234 0.81586 0.62384 0.0
C223 C 0.73261 0.77867 0.65733 0.0
C224 C 0.7369 0.71917 0.64113 0.0
C225 C 0.72067 0.69699 0.59344 0.0
C226 C 0.77191 0.78709 0.80296 0.0
C227 C 0.78831 0.84236 0.80092 0.0
C228 C 0.75293 0.76713 0.75707 0.0
C229 C 0.74994 0.80198 0.7082 0.0
C230 C 0.76491 0.85842 0.70739 0.0
C231 C 0.78377 0.8784 0.75315 0.0
H232 H 0.30692 0.83837 0.9599 0.0
H233 H 0.26369 0.66677 0.92282 0.0
H234 H 0.27998 0.87927 0.87576 0.0
H235 H 0.23656 0.70759 0.83975 0.0
H236 H 0.22318 0.77406 0.66481 0.0
H237 H 0.25495 0.74293 0.74734 0.0
H238 H 0.22445 0.90234 0.83441 0.0
H239 H 0.19326 0.93432 0.7517 0.0
C240 C 0.2912 0.80969 0.93439 0.0
C241 C 0.28756 0.7493 0.94778 0.0
C242 C 0.2759 0.83303 0.88613 0.0
C243 C 0.25676 0.79632 0.85046 0.0
C244 C 0.25195 0.73663 0.86545 0.0
C245 C 0.26717 0.71341 0.91348 0.0
C246 C 0.2238 0.80317 0.70102 0.0
C247 C 0.20523 0.85634 0.70169 0.0
C248 C 0.24173 0.785 0.74858 0.0
C249 C 0.24155 0.81955 0.79783 0.0
C250 C 0.22503 0.87466 0.7972 0.0
C251 C 0.20708 0.89288 0.74966 0.0
H252 H 0.29851 0.57112 0.25219 0.0
H253 H 0.26839 0.73079 0.16458 0.0
H254 H 0.26743 0.6035 0.33484 0.0
H255 H 0.23662 0.76229 0.24706 0.0
H256 H 0.22643 0.83888 0.4222 0.0
H257 H 0.25389 0.79851 0.33916 0.0
H258 H 0.21228 0.62566 0.37622 0.0
H259 H 0.18514 0.66606 0.46036 0.0
C260 C 0.28469 0.61254 0.25 0.0
C261 C 0.28642 0.64875 0.2018 0.0
C262 C 0.26679 0.63099 0.29752 0.0
C263 C 0.25014 0.68599 0.29791 0.0
C264 C 0.24994 0.72032 0.24851 0.0
C265 C 0.26787 0.70193 0.20098 0.0
C266 C 0.22343 0.79209 0.41307 0.0
C267 C 0.20353 0.75568 0.44772 0.0
C268 C 0.23883 0.76911 0.36506 0.0
C269 C 0.23466 0.70917 0.35041 0.0
C270 C 0.21593 0.67206 0.38634 0.0
C271 C 0.20049 0.69513 0.4346 0.0
H272 H 0.0158 0.18333 0.10675 0.0
H273 H 0.09441 0.26293 0.20705 0.0
H274 H 0.97333 0.21915 0.17275 0.0
H275 H 0.05186 0.29732 0.27469 0.0
H276 H 0.90111 0.26551 0.2995 0.0
H277 H 0.9445 0.30295 0.2349 0.0
H278 H 0.02107 0.21035 0.32994 0.0
H279 H 0.97772 0.17158 0.39278 0.0
C280 C 0.02371 0.21089 0.14169 0.0
C281 C 0.0581 0.22026 0.15238 0.0
C282 C -0.00054 0.23175 0.17932 0.0
C283 C 0.00941 0.26064 0.22899 0.0
C284 C 0.04362 0.2754 0.23655 0.0
C285 C 0.06788 0.25575 0.19799 0.0
C286 C 0.92744 0.2557 0.30792 0.0
C287 C 0.93634 0.21548 0.35043 0.0
C288 C 0.95218 0.27708 0.27109 0.0
C289 C 0.98602 0.25928 0.27737 0.0
C290 C 0.99525 0.2253 0.32447 0.0
C291 C 0.97048 0.20279 0.36027 0.0
H292 H 0.47433 0.32318 0.60531 0.0
H293 H 0.39631 0.23739 0.70242 0.0
H294 H 0.51702 0.28604 0.67017 0.0
H295 H 0.43909 0.20159 0.76896 0.0
H296 H 0.51245 0.32339 0.89196 0.0
H297 H 0.4693 0.28637 0.82785 0.0
H298 H 0.54649 0.20032 0.72861 0.0
H299 H 0.58967 0.23599 0.79439 0.0
C300 C 0.46661 0.29413 0.63929 0.0
C301 C 0.43229 0.28331 0.64946 0.0
C302 C 0.491 0.27249 0.67624 0.0
C303 C 0.48125 0.24127 0.72475 0.0
C304 C 0.44716 0.22532 0.7317 0.0
C305 C 0.42278 0.24577 0.69378 0.0
C306 C 0.51988 0.29381 0.85821 0.0
C307 C 0.5541 0.28253 0.84763 0.0
C308 C 0.49524 0.27233 0.82163 0.0
C309 C 0.50468 0.24087 0.77308 0.0
C310 C 0.53865 0.22425 0.7659 0.0
C311 C 0.56327 0.24459 0.80343 0.0
H312 H 0.01597 0.81147 0.61098 0.0
H313 H 0.09613 0.73648 0.71114 0.0
H314 H 0.97433 0.77493 0.67803 0.0
H315 H 0.0544 0.70138 0.77981 0.0
H316 H 0.97978 0.82742 0.89682 0.0
H317 H 0.02309 0.78833 0.8341 0.0
H318 H 0.9468 0.69163 0.74223 0.0
H319 H 0.90346 0.72944 0.80676 0.0
C320 C 0.02443 0.78469 0.64612 0.0
C321 C 0.05898 0.7769 0.65646 0.0
C322 C 0.00065 0.76342 0.68437 0.0
C323 C 0.01124 0.73573 0.73429 0.0
C324 C 0.04568 0.72237 0.7415 0.0
C325 C 0.06947 0.74242 0.70235 0.0
C326 C 0.97262 0.7953 0.86508 0.0
C327 C 0.93854 0.78157 0.85603 0.0
C328 C -0.00263 0.77257 0.82935 0.0
C329 C 0.98817 0.73732 0.78309 0.0
C330 C 0.95446 0.7185 0.77777 0.0
C331 C 0.92975 0.74011 0.81455 0.0
H332 H 0.47597 0.68301 0.10686 0.0
H333 H 0.39836 0.76736 0.20604 0.0
H334 H 0.51891 0.71874 0.17192 0.0
H335 H 0.44138 0.80186 0.27271 0.0
H336 H 0.51418 0.67869 0.39432 0.0
H337 H 0.47127 0.71707 0.33049 0.0
H338 H 0.54902 0.80167 0.23141 0.0
H339 H 0.59199 0.76449 0.29687 0.0
C340 C 0.46839 0.71154 0.14133 0.0
C341 C 0.43411 0.72229 0.152 0.0
C342 C 0.49292 0.73235 0.17843 0.0
C343 C 0.48337 0.76268 0.22757 0.0
C344 C 0.44932 0.77875 0.23501 0.0
C345 C 0.42479 0.75908 0.19699 0.0
C346 C 0.52181 0.7082 0.36064 0.0
C347 C 0.55611 0.71867 0.35004 0.0
C348 C 0.4973 0.73047 0.32422 0.0
C349 C 0.50692 0.76196 0.27578 0.0
C350 C 0.54103 0.7777 0.26858 0.0
C351 C 0.56553 0.75652 0.30593 0.0
H352 H 0.04583 0.16328 0.98055 0.0
H353 H 0.09463 0.99741 0.02095 0.0
H354 H 0.9911 0.11413 0.98082 0.0
H355 H 0.04015 0.94703 0.01797 0.0
H356 H 0.93661 0.88173 0.06441 0.0
H357 H 0.98976 0.93612 0.06878 0.0
H358 H 0.95615 0.04876 0.93256 0.0
H359 H 0.90248 0.99696 0.93089 0.0
C360 C 0.04487 0.11589 0.98797 0.0
C361 C 0.07438 0.08392 1.00032 0.0
C362 C 0.01348 0.08762 0.98819 0.0
C363 C 0.01104 0.02651 0.9997 0.0
C364 C 0.04088 0.99435 0.01029 0.0
C365 C 0.07217 0.02293 0.0112 0.0
C366 C 0.94044 0.91876 0.0361 0.0
C367 C 0.9155 0.93472 0.99699 0.0
C368 C 0.97109 0.9495 0.03804 0.0
C369 C 0.97759 0.99634 1.00039 0.0
C370 C 0.95206 0.01338 0.96259 0.0
C371 C 0.92127 0.98332 0.96133 0.0
H372 H 0.55356 0.61907 0.56113 0.0
H373 H 0.58663 0.50393 0.42675 0.0
H374 H 0.49983 0.5664 0.56499 0.0
H375 H 0.53241 0.45399 0.42783 0.0
H376 H 0.44275 0.34003 0.47704 0.0
H377 H 0.49751 0.38887 0.47607 0.0
H378 H 0.4491 0.55605 0.51535 0.0
H379 H 0.39455 0.50587 0.51964 0.0
C380 C 0.54934 0.58249 0.53245 0.0
C381 C 0.57422 0.56591 0.49342 0.0
C382 C 0.51837 0.55275 0.5341 0.0
C383 C 0.51146 0.50633 0.49618 0.0
C384 C 0.53682 0.48897 0.45813 0.0
C385 C 0.56793 0.51798 0.45721 0.0
C386 C 0.44383 0.38738 0.48465 0.0
C387 C 0.41449 0.41939 0.49805 0.0
C388 C 0.47524 0.4155 0.48413 0.0
C389 C 0.4779 0.47653 0.49587 0.0
C390 C 0.44821 0.50878 0.50742 0.0
C391 C 0.41688 0.48032 0.50911 0.0
H392 H 0.44507 0.66416 0.97968 0.0
H393 H 0.39597 0.49922 0.02226 0.0
H394 H 0.49952 0.6141 0.97791 0.0
H395 H 0.45014 0.44787 0.01719 0.0
H396 H 0.55432 0.38149 0.05988 0.0
H397 H 0.50118 0.43589 0.06568 0.0
H398 H 0.53349 0.54836 0.92842 0.0
H399 H 0.58715 0.49662 0.92538 0.0
C400 C 0.44588 0.61677 0.98717 0.0
C401 C 0.41639 0.58533 0.0007 0.0
C402 C 0.47711 0.58796 0.98619 0.0
C403 C 0.4794 0.52681 0.9976 0.0
C404 C 0.44955 0.49519 0.00948 0.0
C405 C 0.41843 0.52433 0.01162 0.0
C406 C 0.55018 0.41844 0.0316 0.0
C407 C 0.5748 0.43449 0.99193 0.0
C408 C 0.51955 0.44921 0.03437 0.0
C409 C 0.51271 0.49613 0.99697 0.0
C410 C 0.53785 0.513 0.95835 0.0
C411 C 0.56864 0.48295 0.95629 0.0
H412 H 0.04505 0.83557 0.48209 0.0
H413 H 0.09279 0.00165 0.52493 0.0
H414 H 0.99018 0.88436 0.48033 0.0
H415 H 0.03823 0.05164 0.52002 0.0
H416 H 0.90212 0.00127 0.42665 0.0
H417 H 0.95588 0.94975 0.43057 0.0
H418 H 0.98703 0.06215 0.56855 0.0
H419 H 0.93384 0.11622 0.56199 0.0
C420 C 0.04384 0.88291 0.48972 0.0
C421 C 0.07309 0.91506 0.50326 0.0
C422 C 0.01238 0.91097 0.48876 0.0
C423 C 0.00961 0.97204 0.50027 0.0
C424 C 0.03919 0.00434 0.51224 0.0
C425 C 0.07054 0.97598 0.51431 0.0
C426 C 0.9204 0.01492 0.45795 0.0
C427 C 0.91394 0.06334 0.49352 0.0
C428 C 0.95123 0.98501 0.46049 0.0
C429 C 0.9761 0.00205 0.49949 0.0
C430 C 0.96889 0.04876 0.53694 0.0
C431 C 0.93822 0.07934 0.53371 0.0
loop_
_geom_bond_atom_site_label_1
_geom_bond_atom_site_label_2
_geom_bond_distance
_geom_bond_site_symmetry_2
_ccdc_geom_bond_type
Co0 O1 2.216 . S
Co0 O2 2.085 1_554 S
Co0 O4 2.004 . S
Co0 O10 2.021 . S
Co0 O12 2.137 . S
Co0 O13 2.244 . S
O1 Co0 2.216 . S
O1 C8 1.247 1_554 S
O2 Co0 2.085 1_556 S
O2 C8 1.264 . S
C3 O12 1.247 . S
C3 O13 1.272 . S
O4 Co0 2.004 . S
O4 C9 1.259 . S
Co5 O6 2.061 . S
Co5 O11 2.052 . S
Co5 O13 2.135 . S
O6 Co5 2.061 . S
O6 C9 1.235 . S
C7 O10 1.238 . S
C7 O11 1.241 . S
C8 O1 1.247 1_556 S
C8 O2 1.264 . S
C9 O4 1.259 . S
C9 O6 1.235 . S
O10 Co0 2.021 . S
O10 C7 1.238 . S
O11 Co5 2.052 . S
O11 C7 1.241 . S
O12 Co0 2.137 . S
O12 C3 1.247 . S
O13 Co0 2.244 . S
O13 C3 1.272 . S
O13 Co5 2.135 . S
Co14 O15 2.216 . S
Co14 O16 2.091 . S
Co14 O18 2.004 . S
Co14 O24 2.021 . S
Co14 O26 2.137 . S
Co14 O27 2.244 . S
O15 Co14 2.216 . S
O15 C22 1.247 . S
O16 Co14 2.091 . S
O16 C22 1.261 . S
C17 O26 1.247 . S
C17 O27 1.272 . S
O18 Co14 2.004 . S
O18 C23 1.259 . S
Co19 O20 2.061 . S
Co19 O25 2.052 . S
Co19 O27 2.135 . S
O20 Co19 2.061 . S
O20 C23 1.235 . S
C21 O24 1.238 . S
C21 O25 1.241 . S
C22 O15 1.247 . S
C22 O16 1.261 . S
C23 O18 1.259 . S
C23 O20 1.235 . S
O24 Co14 2.021 . S
O24 C21 1.238 . S
O25 Co19 2.052 . S
O25 C21 1.241 . S
O26 Co14 2.137 . S
O26 C17 1.247 . S
O27 Co14 2.244 . S
O27 C17 1.272 . S
O27 Co19 2.135 . S
Co28 O29 2.216 . S
Co28 O30 2.085 1_556 S
Co28 O32 2.004 . S
Co28 O38 2.021 . S
Co28 O40 2.137 . S
Co28 O41 2.244 . S
O29 Co28 2.216 . S
O29 C36 1.247 1_556 S
O30 Co28 2.085 1_554 S
O30 C36 1.264 . S
C31 O40 1.247 . S
C31 O41 1.272 . S
O32 Co28 2.004 . S
O32 C37 1.259 . S
Co33 O34 2.061 . S
Co33 O39 2.052 . S
Co33 O41 2.135 . S
O34 Co33 2.061 . S
O34 C37 1.235 . S
C35 O38 1.238 . S
C35 O39 1.241 . S
C36 O29 1.247 1_554 S
C36 O30 1.264 . S
C37 O32 1.259 . S
C37 O34 1.235 . S
O38 Co28 2.021 . S
O38 C35 1.238 . S
O39 Co33 2.052 . S
O39 C35 1.241 . S
O40 Co28 2.137 . S
O40 C31 1.247 . S
O41 Co28 2.244 . S
O41 C31 1.272 . S
O41 Co33 2.135 . S
Co42 O43 2.216 . S
Co42 O44 2.091 . S
Co42 O46 2.004 . S
Co42 O52 2.021 . S
Co42 O54 2.137 . S
Co42 O55 2.244 . S
O43 Co42 2.216 . S
O43 C50 1.247 . S
O44 Co42 2.091 . S
O44 C50 1.261 . S
C45 O54 1.247 . S
C45 O55 1.272 . S
O46 Co42 2.004 . S
O46 C51 1.259 . S
Co47 O48 2.061 . S
Co47 O53 2.052 . S
Co47 O55 2.135 . S
O48 Co47 2.061 . S
O48 C51 1.235 . S
C49 O52 1.238 . S
C49 O53 1.241 . S
C50 O43 1.247 . S
C50 O44 1.261 . S
C51 O46 1.259 . S
C51 O48 1.235 . S
O52 Co42 2.021 . S
O52 C49 1.238 . S
O53 Co47 2.052 . S
O53 C49 1.241 . S
O54 Co42 2.137 . S
O54 C45 1.247 . S
O55 Co42 2.244 . S
O55 C45 1.272 . S
O55 Co47 2.135 . S
Co56 O57 2.216 . S
Co56 O58 2.085 1_556 S
Co56 O60 2.004 . S
Co56 O66 2.021 . S
Co56 O68 2.137 . S
Co56 O69 2.244 . S
O57 Co56 2.216 . S
O57 C64 1.247 1_556 S
O58 Co56 2.085 1_554 S
O58 C64 1.264 . S
C59 O68 1.247 . S
C59 O69 1.272 . S
O60 Co56 2.004 . S
O60 C65 1.259 . S
Co61 O62 2.061 . S
Co61 O67 2.052 . S
Co61 O69 2.135 . S
O62 Co61 2.061 . S
O62 C65 1.235 . S
C63 O66 1.238 . S
C63 O67 1.241 . S
C64 O57 1.247 1_554 S
C64 O58 1.264 . S
C65 O60 1.259 . S
C65 O62 1.235 . S
O66 Co56 2.021 . S
O66 C63 1.238 . S
O67 Co61 2.052 . S
O67 C63 1.241 . S
O68 Co56 2.137 . S
O68 C59 1.247 . S
O69 Co56 2.244 . S
O69 C59 1.272 . S
O69 Co61 2.135 . S
Co70 O71 2.216 . S
Co70 O72 2.091 . S
Co70 O74 2.004 . S
Co70 O80 2.021 . S
Co70 O82 2.137 . S
Co70 O83 2.244 . S
O71 Co70 2.216 . S
O71 C78 1.247 . S
O72 Co70 2.091 . S
O72 C78 1.261 . S
C73 O82 1.247 . S
C73 O83 1.272 . S
O74 Co70 2.004 . S
O74 C79 1.259 . S
Co75 O76 2.061 . S
Co75 O81 2.052 . S
Co75 O83 2.135 . S
O76 Co75 2.061 . S
O76 C79 1.235 . S
C77 O80 1.238 . S
C77 O81 1.241 . S
C78 O71 1.247 . S
C78 O72 1.261 . S
C79 O74 1.259 . S
C79 O76 1.235 . S
O80 Co70 2.021 . S
O80 C77 1.238 . S
O81 Co75 2.052 . S
O81 C77 1.241 . S
O82 Co70 2.137 . S
O82 C73 1.247 . S
O83 Co70 2.244 . S
O83 C73 1.272 . S
O83 Co75 2.135 . S
Co84 O85 2.216 . S
Co84 O86 2.085 1_554 S
Co84 O88 2.004 . S
Co84 O94 2.021 . S
Co84 O96 2.137 . S
Co84 O97 2.244 . S
O85 Co84 2.216 . S
O85 C92 1.247 1_554 S
O86 Co84 2.085 1_556 S
O86 C92 1.264 . S
C87 O96 1.247 . S
C87 O97 1.272 . S
O88 Co84 2.004 . S
O88 C93 1.259 . S
Co89 O90 2.061 . S
Co89 O95 2.052 . S
Co89 O97 2.135 . S
O90 Co89 2.061 . S
O90 C93 1.235 . S
C91 O94 1.238 . S
C91 O95 1.241 . S
C92 O85 1.247 1_556 S
C92 O86 1.264 . S
C93 O88 1.259 . S
C93 O90 1.235 . S
O94 Co84 2.021 . S
O94 C91 1.238 . S
O95 Co89 2.052 . S
O95 C91 1.241 . S
O96 Co84 2.137 . S
O96 C87 1.247 . S
O97 Co84 2.244 . S
O97 C87 1.272 . S
O97 Co89 2.135 . S
Co98 O99 2.216 . S
Co98 O100 2.091 . S
Co98 O102 2.004 . S
Co98 O108 2.021 . S
Co98 O110 2.137 . S
Co98 O111 2.244 . S
O99 Co98 2.216 . S
O99 C106 1.247 . S
O100 Co98 2.091 . S
O100 C106 1.261 . S
C101 O110 1.247 . S
C101 O111 1.272 . S
O102 Co98 2.004 . S
O102 C107 1.259 . S
Co103 O104 2.061 . S
Co103 O109 2.052 . S
Co103 O111 2.135 . S
O104 Co103 2.061 . S
O104 C107 1.235 . S
C105 O108 1.238 . S
C105 O109 1.241 . S
C106 O99 1.247 . S
C106 O100 1.261 . S
C107 O102 1.259 . S
C107 O104 1.235 . S
O108 Co98 2.021 . S
O108 C105 1.238 . S
O109 Co103 2.052 . S
O109 C105 1.241 . S
O110 Co98 2.137 . S
O110 C101 1.247 . S
O111 Co98 2.244 . S
O111 C101 1.272 . S
O111 Co103 2.135 . S
H112 C120 0.950 . S
H113 C125 0.950 . S
H114 C122 0.950 . S
H115 C124 0.950 . S
H116 C126 0.950 . S
H117 C128 0.950 . S
H118 C130 0.950 . S
H119 C131 0.950 . S
C120 H112 0.950 . S
C120 C121 1.386 . S
C120 C122 1.391 . S
C121 C120 1.386 . S
C121 C125 1.393 . S
C122 H114 0.950 . S
C122 C120 1.391 . S
C122 C123 1.400 . S
C123 C122 1.400 . S
C123 C124 1.398 . S
C123 C129 1.491 . S
C124 H115 0.950 . S
C124 C123 1.398 . S
C124 C125 1.391 . S
C125 H113 0.950 . S
C125 C121 1.393 . S
C125 C124 1.391 . S
C126 H116 0.950 . S
C126 C127 1.386 . S
C126 C128 1.391 . S
C127 C126 1.386 . S
C127 C131 1.393 . S
C128 H117 0.950 . S
C128 C126 1.391 . S
C128 C129 1.400 . S
C129 C123 1.491 . S
C129 C128 1.400 . S
C129 C130 1.398 . S
C130 H118 0.950 . S
C130 C129 1.398 . S
C130 C131 1.391 . S
C131 H119 0.950 . S
C131 C127 1.393 . S
C131 C130 1.391 . S
H132 C140 0.950 . S
H133 C145 0.950 . S
H134 C142 0.950 . S
H135 C144 0.950 . S
H136 C146 0.950 . S
H137 C148 0.950 . S
H138 C150 0.950 . S
H139 C151 0.950 . S
C140 H132 0.950 . S
C140 C141 1.386 . S
C140 C142 1.391 . S
C141 C140 1.386 . S
C141 C145 1.393 . S
C142 H134 0.950 . S
C142 C140 1.391 . S
C142 C143 1.400 . S
C143 C142 1.400 . S
C143 C144 1.398 . S
C143 C149 1.491 . S
C144 H135 0.950 . S
C144 C143 1.398 . S
C144 C145 1.391 . S
C145 H133 0.950 . S
C145 C141 1.393 . S
C145 C144 1.391 . S
C146 H136 0.950 . S
C146 C147 1.386 . S
C146 C148 1.391 . S
C147 C146 1.386 . S
C147 C151 1.393 . S
C148 H137 0.950 . S
C148 C146 1.391 . S
C148 C149 1.400 . S
C149 C143 1.491 . S
C149 C148 1.400 . S
C149 C150 1.398 . S
C150 H138 0.950 . S
C150 C149 1.398 . S
C150 C151 1.391 . S
C151 H139 0.950 . S
C151 C147 1.393 . S
C151 C150 1.391 . S
H152 C160 0.950 . S
H153 C165 0.950 . S
H154 C162 0.950 . S
H155 C164 0.950 . S
H156 C166 0.950 . S
H157 C168 0.950 . S
H158 C170 0.950 . S
H159 C171 0.950 . S
C160 H152 0.950 . S
C160 C161 1.386 . S
C160 C162 1.391 . S
C161 C160 1.386 . S
C161 C165 1.393 . S
C162 H154 0.950 . S
C162 C160 1.391 . S
C162 C163 1.400 . S
C163 C162 1.400 . S
C163 C164 1.398 . S
C163 C169 1.491 . S
C164 H155 0.950 . S
C164 C163 1.398 . S
C164 C165 1.391 . S
C165 H153 0.950 . S
C165 C161 1.393 . S
C165 C164 1.391 . S
C166 H156 0.950 . S
C166 C167 1.386 . S
C166 C168 1.391 . S
C167 C166 1.386 . S
C167 C171 1.393 . S
C168 H157 0.950 . S
C168 C166 1.391 . S
C168 C169 1.400 . S
C169 C163 1.491 . S
C169 C168 1.400 . S
C169 C170 1.398 . S
C170 H158 0.950 . S
C170 C169 1.398 . S
C170 C171 1.391 . S
C171 H159 0.950 . S
C171 C167 1.393 . S
C171 C170 1.391 . S
H172 C180 0.950 . S
H173 C185 0.950 . S
H174 C182 0.950 . S
H175 C184 0.950 . S
H176 C186 0.950 . S
H177 C188 0.950 . S
H178 C190 0.950 . S
H179 C191 0.950 . S
C180 H172 0.950 . S
C180 C181 1.386 . S
C180 C182 1.391 . S
C181 C180 1.386 . S
C181 C185 1.393 . S
C182 H174 0.950 . S
C182 C180 1.391 . S
C182 C183 1.400 . S
C183 C182 1.400 . S
C183 C184 1.398 . S
C183 C189 1.491 . S
C184 H175 0.950 . S
C184 C183 1.398 . S
C184 C185 1.391 . S
C185 H173 0.950 . S
C185 C181 1.393 . S
C185 C184 1.391 . S
C186 H176 0.950 . S
C186 C187 1.386 . S
C186 C188 1.391 . S
C187 C186 1.386 . S
C187 C191 1.393 . S
C188 H177 0.950 . S
C188 C186 1.391 . S
C188 C189 1.400 . S
C189 C183 1.491 . S
C189 C188 1.400 . S
C189 C190 1.398 . S
C190 H178 0.950 . S
C190 C189 1.398 . S
C190 C191 1.391 . S
C191 H179 0.950 . S
C191 C187 1.393 . S
C191 C190 1.391 . S
H192 C200 0.950 . S
H193 C205 0.950 . S
H194 C202 0.950 . S
H195 C204 0.950 . S
H196 C206 0.950 . S
H197 C208 0.950 . S
H198 C210 0.950 . S
H199 C211 0.950 . S
C200 H192 0.950 . S
C200 C201 1.386 . S
C200 C202 1.391 . S
C201 C200 1.386 . S
C201 C205 1.393 . S
C202 H194 0.950 . S
C202 C200 1.391 . S
C202 C203 1.400 . S
C203 C202 1.400 . S
C203 C204 1.398 . S
C203 C209 1.491 . S
C204 H195 0.950 . S
C204 C203 1.398 . S
C204 C205 1.391 . S
C205 H193 0.950 . S
C205 C201 1.393 . S
C205 C204 1.391 . S
C206 H196 0.950 . S
C206 C207 1.386 . S
C206 C208 1.391 . S
C207 C206 1.386 . S
C207 C211 1.393 . S
C208 H197 0.950 . S
C208 C206 1.391 . S
C208 C209 1.400 . S
C209 C203 1.491 . S
C209 C208 1.400 . S
C209 C210 1.398 . S
C210 H198 0.950 . S
C210 C209 1.398 . S
C210 C211 1.391 . S
C211 H199 0.950 . S
C211 C207 1.393 . S
C211 C210 1.391 . S
H212 C220 0.950 . S
H213 C225 0.950 . S
H214 C222 0.950 . S
H215 C224 0.950 . S
H216 C226 0.950 . S
H217 C228 0.950 . S
H218 C230 0.950 . S
H219 C231 0.950 . S
C220 H212 0.950 . S
C220 C221 1.386 . S
C220 C222 1.391 . S
C221 C220 1.386 . S
C221 C225 1.393 . S
C222 H214 0.950 . S
C222 C220 1.391 . S
C222 C223 1.400 . S
C223 C222 1.400 . S
C223 C224 1.398 . S
C223 C229 1.491 . S
C224 H215 0.950 . S
C224 C223 1.398 . S
C224 C225 1.391 . S
C225 H213 0.950 . S
C225 C221 1.393 . S
C225 C224 1.391 . S
C226 H216 0.950 . S
C226 C227 1.386 . S
C226 C228 1.391 . S
C227 C226 1.386 . S
C227 C231 1.393 . S
C228 H217 0.950 . S
C228 C226 1.391 . S
C228 C229 1.400 . S
C229 C223 1.491 . S
C229 C228 1.400 . S
C229 C230 1.398 . S
C230 H218 0.950 . S
C230 C229 1.398 . S
C230 C231 1.391 . S
C231 H219 0.950 . S
C231 C227 1.393 . S
C231 C230 1.391 . S
H232 C240 0.950 . S
H233 C245 0.950 . S
H234 C242 0.950 . S
H235 C244 0.950 . S
H236 C246 0.950 . S
H237 C248 0.950 . S
H238 C250 0.950 . S
H239 C251 0.950 . S
C240 H232 0.950 . S
C240 C241 1.386 . S
C240 C242 1.391 . S
C241 C240 1.386 . S
C241 C245 1.393 . S
C242 H234 0.950 . S
C242 C240 1.391 . S
C242 C243 1.400 . S
C243 C242 1.400 . S
C243 C244 1.398 . S
C243 C249 1.491 . S
C244 H235 0.950 . S
C244 C243 1.398 . S
C244 C245 1.391 . S
C245 H233 0.950 . S
C245 C241 1.393 . S
C245 C244 1.391 . S
C246 H236 0.950 . S
C246 C247 1.386 . S
C246 C248 1.391 . S
C247 C246 1.386 . S
C247 C251 1.393 . S
C248 H237 0.950 . S
C248 C246 1.391 . S
C248 C249 1.400 . S
C249 C243 1.491 . S
C249 C248 1.400 . S
C249 C250 1.398 . S
C250 H238 0.950 . S
C250 C249 1.398 . S
C250 C251 1.391 . S
C251 H239 0.950 . S
C251 C247 1.393 . S
C251 C250 1.391 . S
H252 C260 0.950 . S
H253 C265 0.950 . S
H254 C262 0.950 . S
H255 C264 0.950 . S
H256 C266 0.950 . S
H257 C268 0.950 . S
H258 C270 0.950 . S
H259 C271 0.950 . S
C260 H252 0.950 . S
C260 C261 1.386 . S
C260 C262 1.391 . S
C261 C260 1.386 . S
C261 C265 1.393 . S
C262 H254 0.950 . S
C262 C260 1.391 . S
C262 C263 1.400 . S
C263 C262 1.400 . S
C263 C264 1.398 . S
C263 C269 1.491 . S
C264 H255 0.950 . S
C264 C263 1.398 . S
C264 C265 1.391 . S
C265 H253 0.950 . S
C265 C261 1.393 . S
C265 C264 1.391 . S
C266 H256 0.950 . S
C266 C267 1.386 . S
C266 C268 1.391 . S
C267 C266 1.386 . S
C267 C271 1.393 . S
C268 H257 0.950 . S
C268 C266 1.391 . S
C268 C269 1.400 . S
C269 C263 1.491 . S
C269 C268 1.400 . S
C269 C270 1.398 . S
C270 H258 0.950 . S
C270 C269 1.398 . S
C270 C271 1.391 . S
C271 H259 0.950 . S
C271 C267 1.393 . S
C271 C270 1.391 . S
H272 C280 0.950 . S
H273 C285 0.950 . S
H274 C282 0.950 . S
H275 C284 0.950 . S
H276 C286 0.950 . S
H277 C288 0.950 . S
H278 C290 0.950 . S
H279 C291 0.950 . S
C280 H272 0.950 . S
C280 C281 1.386 . S
C280 C282 1.391 . S
C281 C280 1.386 . S
C281 C285 1.393 . S
C282 H274 0.950 . S
C282 C280 1.391 . S
C282 C283 1.400 . S
C283 C282 1.400 . S
C283 C284 1.398 . S
C283 C289 1.491 1_455 S
C284 H275 0.950 . S
C284 C283 1.398 . S
C284 C285 1.391 . S
C285 H273 0.950 . S
C285 C281 1.393 . S
C285 C284 1.391 . S
C286 H276 0.950 . S
C286 C287 1.386 . S
C286 C288 1.391 . S
C287 C286 1.386 . S
C287 C291 1.393 . S
C288 H277 0.950 . S
C288 C286 1.391 . S
C288 C289 1.400 . S
C289 C283 1.491 1_655 S
C289 C288 1.400 . S
C289 C290 1.398 . S
C290 H278 0.950 . S
C290 C289 1.398 . S
C290 C291 1.391 . S
C291 H279 0.950 . S
C291 C287 1.393 . S
C291 C290 1.391 . S
H292 C300 0.950 . S
H293 C305 0.950 . S
H294 C302 0.950 . S
H295 C304 0.950 . S
H296 C306 0.950 . S
H297 C308 0.950 . S
H298 C310 0.950 . S
H299 C311 0.950 . S
C300 H292 0.950 . S
C300 C301 1.386 . S
C300 C302 1.391 . S
C301 C300 1.386 . S
C301 C305 1.393 . S
C302 H294 0.950 . S
C302 C300 1.391 . S
C302 C303 1.400 . S
C303 C302 1.400 . S
C303 C304 1.398 . S
C303 C309 1.491 . S
C304 H295 0.950 . S
C304 C303 1.398 . S
C304 C305 1.391 . S
C305 H293 0.950 . S
C305 C301 1.393 . S
C305 C304 1.391 . S
C306 H296 0.950 . S
C306 C307 1.386 . S
C306 C308 1.391 . S
C307 C306 1.386 . S
C307 C311 1.393 . S
C308 H297 0.950 . S
C308 C306 1.391 . S
C308 C309 1.400 . S
C309 C303 1.491 . S
C309 C308 1.400 . S
C309 C310 1.398 . S
C310 H298 0.950 . S
C310 C309 1.398 . S
C310 C311 1.391 . S
C311 H299 0.950 . S
C311 C307 1.393 . S
C311 C310 1.391 . S
H312 C320 0.950 . S
H313 C325 0.950 . S
H314 C322 0.950 1_655 S
H315 C324 0.950 . S
H316 C326 0.950 . S
H317 C328 0.950 1_455 S
H318 C330 0.950 . S
H319 C331 0.950 . S
C320 H312 0.950 . S
C320 C321 1.386 . S
C320 C322 1.391 . S
C321 C320 1.386 . S
C321 C325 1.393 . S
C322 H314 0.950 1_455 S
C322 C320 1.391 . S
C322 C323 1.400 . S
C323 C322 1.400 . S
C323 C324 1.398 . S
C323 C329 1.491 1_455 S
C324 H315 0.950 . S
C324 C323 1.398 . S
C324 C325 1.391 . S
C325 H313 0.950 . S
C325 C321 1.393 . S
C325 C324 1.391 . S
C326 H316 0.950 . S
C326 C327 1.386 . S
C326 C328 1.391 . S
C327 C326 1.386 . S
C327 C331 1.393 . S
C328 H317 0.950 1_655 S
C328 C326 1.391 . S
C328 C329 1.400 . S
C329 C323 1.491 1_655 S
C329 C328 1.400 . S
C329 C330 1.398 . S
C330 H318 0.950 . S
C330 C329 1.398 . S
C330 C331 1.391 . S
C331 H319 0.950 . S
C331 C327 1.393 . S
C331 C330 1.391 . S
H332 C340 0.950 . S
H333 C345 0.950 . S
H334 C342 0.950 . S
H335 C344 0.950 . S
H336 C346 0.950 . S
H337 C348 0.950 . S
H338 C350 0.950 . S
H339 C351 0.950 . S
C340 H332 0.950 . S
C340 C341 1.386 . S
C340 C342 1.391 . S
C341 C340 1.386 . S
C341 C345 1.393 . S
C342 H334 0.950 . S
C342 C340 1.391 . S
C342 C343 1.400 . S
C343 C342 1.400 . S
C343 C344 1.398 . S
C343 C349 1.491 . S
C344 H335 0.950 . S
C344 C343 1.398 . S
C344 C345 1.391 . S
C345 H333 0.950 . S
C345 C341 1.393 . S
C345 C344 1.391 . S
C346 H336 0.950 . S
C346 C347 1.386 . S
C346 C348 1.391 . S
C347 C346 1.386 . S
C347 C351 1.393 . S
C348 H337 0.950 . S
C348 C346 1.391 . S
C348 C349 1.400 . S
C349 C343 1.491 . S
C349 C348 1.400 . S
C349 C350 1.398 . S
C350 H338 0.950 . S
C350 C349 1.398 . S
C350 C351 1.391 . S
C351 H339 0.950 . S
C351 C347 1.393 . S
C351 C350 1.391 . S
H352 C360 0.950 . S
H353 C365 0.950 . S
H354 C362 0.950 1_656 S
H355 C364 0.950 1_565 S
H356 C366 0.950 . S
H357 C368 0.950 1_454 S
H358 C370 0.950 1_545 S
H359 C371 0.950 . S
C360 H352 0.950 . S
C360 C361 1.386 . S
C360 C362 1.391 . S
C361 C360 1.386 . S
C361 C365 1.393 . S
C362 H354 0.950 1_454 S
C362 C360 1.391 . S
C362 C363 1.400 . S
C363 C362 1.400 . S
C363 C364 1.398 . S
C363 C369 1.491 1_444 S
C364 H355 0.950 1_545 S
C364 C363 1.398 . S
C364 C365 1.391 . S
C365 H353 0.950 . S
C365 C361 1.393 . S
C365 C364 1.391 . S
C366 H356 0.950 . S
C366 C367 1.386 . S
C366 C368 1.391 . S
C367 C366 1.386 . S
C367 C371 1.393 . S
C368 H357 0.950 1_656 S
C368 C366 1.391 . S
C368 C369 1.400 . S
C369 C363 1.491 1_666 S
C369 C368 1.400 . S
C369 C370 1.398 . S
C370 H358 0.950 1_565 S
C370 C369 1.398 . S
C370 C371 1.391 . S
C371 H359 0.950 . S
C371 C367 1.393 . S
C371 C370 1.391 . S
H372 C380 0.950 . S
H373 C385 0.950 . S
H374 C382 0.950 . S
H375 C384 0.950 . S
H376 C386 0.950 . S
H377 C388 0.950 . S
H378 C390 0.950 . S
H379 C391 0.950 . S
C380 H372 0.950 . S
C380 C381 1.386 . S
C380 C382 1.391 . S
C381 C380 1.386 . S
C381 C385 1.393 . S
C382 H374 0.950 . S
C382 C380 1.391 . S
C382 C383 1.400 . S
C383 C382 1.400 . S
C383 C384 1.398 . S
C383 C389 1.491 . S
C384 H375 0.950 . S
C384 C383 1.398 . S
C384 C385 1.391 . S
C385 H373 0.950 . S
C385 C381 1.393 . S
C385 C384 1.391 . S
C386 H376 0.950 . S
C386 C387 1.386 . S
C386 C388 1.391 . S
C387 C386 1.386 . S
C387 C391 1.393 . S
C388 H377 0.950 . S
C388 C386 1.391 . S
C388 C389 1.400 . S
C389 C383 1.491 . S
C389 C388 1.400 . S
C389 C390 1.398 . S
C390 H378 0.950 . S
C390 C389 1.398 . S
C390 C391 1.391 . S
C391 H379 0.950 . S
C391 C387 1.393 . S
C391 C390 1.391 . S
H392 C400 0.950 . S
H393 C405 0.950 . S
H394 C402 0.950 . S
H395 C404 0.950 . S
H396 C406 0.950 . S
H397 C408 0.950 . S
H398 C410 0.950 . S
H399 C411 0.950 . S
C400 H392 0.950 . S
C400 C401 1.386 1_556 S
C400 C402 1.391 . S
C401 C400 1.386 1_554 S
C401 C405 1.393 . S
C402 H394 0.950 . S
C402 C400 1.391 . S
C402 C403 1.400 1_556 S
C403 C402 1.400 1_554 S
C403 C404 1.398 . S
C403 C409 1.491 1_554 S
C404 H395 0.950 . S
C404 C403 1.398 . S
C404 C405 1.391 . S
C405 H393 0.950 . S
C405 C401 1.393 . S
C405 C404 1.391 . S
C406 H396 0.950 . S
C406 C407 1.386 1_554 S
C406 C408 1.391 . S
C407 C406 1.386 1_556 S
C407 C411 1.393 . S
C408 H397 0.950 . S
C408 C406 1.391 . S
C408 C409 1.400 1_554 S
C409 C403 1.491 1_556 S
C409 C408 1.400 1_556 S
C409 C410 1.398 . S
C410 H398 0.950 . S
C410 C409 1.398 . S
C410 C411 1.391 . S
C411 H399 0.950 . S
C411 C407 1.393 . S
C411 C410 1.391 . S
H412 C420 0.950 . S
H413 C425 0.950 . S
H414 C422 0.950 1_655 S
H415 C424 0.950 1_545 S
H416 C426 0.950 . S
H417 C428 0.950 1_455 S
H418 C430 0.950 1_565 S
H419 C431 0.950 . S
C420 H412 0.950 . S
C420 C421 1.386 . S
C420 C422 1.391 . S
C421 C420 1.386 . S
C421 C425 1.393 . S
C422 H414 0.950 1_455 S
C422 C420 1.391 . S
C422 C423 1.400 . S
C423 C422 1.400 . S
C423 C424 1.398 . S
C423 C429 1.491 1_465 S
C424 H415 0.950 1_565 S
C424 C423 1.398 . S
C424 C425 1.391 . S
C425 H413 0.950 . S
C425 C421 1.393 . S
C425 C424 1.391 . S
C426 H416 0.950 . S
C426 C427 1.386 . S
C426 C428 1.391 . S
C427 C426 1.386 . S
C427 C431 1.393 . S
C428 H417 0.950 1_655 S
C428 C426 1.391 . S
C428 C429 1.400 . S
C429 C423 1.491 1_645 S
C429 C428 1.400 . S
C429 C430 1.398 . S
C430 H418 0.950 1_545 S
C430 C429 1.398 . S
C430 C431 1.391 . S
C431 H419 0.950 . S
C431 C427 1.393 . S
C431 C430 1.391 . S
C121 C21 1.622 . S
C127 C8 1.661 . S
C141 C7 1.624 . S
C147 C22 1.650 . S
C161 C49 1.625 . S
C167 C36 1.650 . S
C181 C35 1.634 . S
C187 C50 1.664 . S
C201 C64 1.659 . S
C207 C77 1.637 . S
C221 C78 1.664 . S
C227 C63 1.634 . S
C241 C92 1.664 . S
C247 C105 1.632 . S
C261 C91 1.616 . S
C267 C106 1.655 . S
C281 C9 0.561 . S
C287 C51 0.527 . S
C301 C23 0.515 . S
C307 C37 0.602 . S
C321 C107 0.592 . S
C327 C65 0.512 . S
C341 C93 0.605 . S
C347 C79 0.530 . S
C361 C3 1.564 . S
C367 C59 1.564 . S
C381 C73 1.561 . S
C387 C17 1.561 . S
C401 C87 1.555 . S
C407 C31 1.555 . S
C421 C101 1.563 . S
C427 C45 1.563 . S
