# Generated by pormake.
# Topology sma, (6)-cn, num edge types: 1
# Building blocks:
#     Node 0, Type 0, BuildingBlock: NUHQIS_clean_sbu_0, # of connection points: 6
#     Node 1, Type 0, BuildingBlock: NUHQIS_clean_sbu_0, # of connection points: 6
#     Node 2, Type 0, BuildingBlock: NUHQIS_clean_sbu_0, # of connection points: 6
#     Edge 3, Type (0, 0), BuildingBlock: XUDNAN_clean_linker_2, # of connection points: 2
#     Edge 4, Type (0, 0), BuildingBlock: XUDNAN_clean_linker_2, # of connection points: 2
#     Edge 5, Type (0, 0), BuildingBlock: XUDNAN_clean_linker_2, # of connection points: 2
#     Edge 6, Type (0, 0), BuildingBlock: XUDNAN_clean_linker_2, # of connection points: 2
#     Edge 7, Type (0, 0), BuildingBlock: XUDNAN_clean_linker_2, # of connection points: 2
#     Edge 8, Type (0, 0), BuildingBlock: XUDNAN_clean_linker_2, # of connection points: 2
#     Edge 9, Type (0, 0), BuildingBlock: XUDNAN_clean_linker_2, # of connection points: 2
#     Edge 10, Type (0, 0), BuildingBlock: XUDNAN_clean_linker_2, # of connection points: 2
#     Edge 11, Type (0, 0), BuildingBlock: XUDNAN_clean_linker_2, # of connection points: 2
# Relax obj value: 0.071
# Max RMSD: 0.179
# Mean RMSD: 0.174
data_MOF--net-sma--node1-NUHQIS_clean_sbu_0--edge1-XUDNAN_clean_linker_2
_symmetry_space_group_name_H-M    P1
_symmetry_Int_Tables_number       1
_symmetry_cell_setting            triclinic
loop_
_symmetry_equiv_pos_as_xyz
'x, y, z'
_cell_length_a     39.546551
_cell_length_b     39.488473
_cell_length_c     14.614788
_cell_angle_alpha  90.975218
_cell_angle_beta   92.962982
_cell_angle_gamma 119.87166
loop_
_atom_site_label
_atom_site_type_symbol
_atom_site_fract_x
_atom_site_fract_y
_atom_site_fract_z
_atom_type_partial_charge
Tb0 Tb 0.09859 0.53326 0.1556 0.0
Eu1 Eu 1.04849 0.58102 0.13286 0.0
C2 C 0.08479 0.57402 0.32329 0.0
C3 C 1.00721 0.49081 0.19277 0.0
C4 C 0.1747 0.50628 0.11223 0.0
C5 C 0.23956 0.51316 0.1238 0.0
C6 C 0.20666 0.50904 0.16541 0.0
C7 C 0.17654 0.50844 0.0165 0.0
C8 C 0.20927 0.51222 -0.02516 0.0
C9 C 0.24103 0.51427 0.0279 0.0
C10 C 0.13974 0.50068 0.1577 0.0
O11 O 0.09139 0.5448 0.01351 0.0
O12 O 1.03037 0.53472 0.02308 0.0
O13 O 0.10892 0.62053 0.08712 0.0
O14 O 0.14233 0.59525 0.16632 0.0
C15 C 1.05744 0.5362 -0.02618 0.0
O16 O 1.03267 0.61544 0.04439 0.0
O17 O 1.01022 0.60207 0.17952 0.0
O18 O 0.0812 0.59858 0.27001 0.0
O19 O 0.08458 0.54259 0.2913 0.0
O20 O 1.03795 0.48766 0.17389 0.0
O21 O 1.00683 0.52391 0.18997 0.0
C22 C 0.1416 0.62386 0.12325 0.0
O23 O 0.14519 0.5283 0.21695 0.0
O24 O 0.10745 0.48828 0.10596 0.0
C25 C 0.97005 0.60887 0.06094 0.0
C26 C 0.89882 0.60138 -0.01301 0.0
C27 C 0.92994 0.61084 0.93111 0.0
C28 C 0.9651 0.61463 -0.03239 0.0
C29 C 0.93862 0.59848 0.1165 0.0
C30 C 0.90333 0.59458 0.07982 0.0
C31 C 1.00876 0.61678 0.10088 0.0
H32 H 0.26336 0.51433 0.16654 0.0
H33 H 0.20598 0.50752 0.2393 0.0
H34 H 0.15258 0.50687 -0.0264 0.0
H35 H 0.2097 0.51348 0.9009 0.0
H36 H 0.92729 0.61576 0.85907 0.0
H37 H 0.98871 0.6229 0.92284 0.0
H38 H 0.94156 0.59426 0.18889 0.0
H39 H 0.88009 0.58765 0.12496 0.0
Tb40 Tb 0.63823 0.09329 0.50793 0.0
Eu41 Eu 0.5419 1.031 0.46064 0.0
C42 C 0.57979 0.06702 0.65917 0.0
C43 C 0.60186 1.00086 0.51454 0.0
C44 C 0.73849 0.17715 0.49095 0.0
C45 C 0.80325 0.23475 0.49287 0.0
C46 C 0.77687 0.19938 0.52995 0.0
C47 C 0.72674 0.19064 0.41434 0.0
C48 C 0.75305 0.22583 0.37703 0.0
C49 C 0.79164 0.24848 0.41595 0.0
C50 C 0.71125 0.13941 0.52844 0.0
O51 O 0.62124 0.09907 0.37008 0.0
O52 O 0.57627 1.03504 0.3408 0.0
O53 O 0.55107 0.09186 0.44613 0.0
O54 O 0.61253 0.13079 0.51964 0.0
C55 C 0.60019 0.06958 0.31194 0.0
O56 O 0.49081 1.01105 0.36486 0.0
O57 O 0.48516 0.98278 0.49387 0.0
O58 O 0.54998 0.05811 0.60089 0.0
O59 O 0.61286 0.07049 0.63533 0.0
O60 O 0.63101 1.03481 0.49306 0.0
O61 O 0.5661 0.99454 0.51835 0.0
C62 C 0.57901 0.12567 0.4831 0.0
O63 O 0.68642 0.13957 0.58366 0.0
O64 O 0.69441 0.10975 0.46887 0.0
C65 C 0.44048 0.94412 0.36824 0.0
C66 C 0.38099 0.87354 0.27936 0.0
C67 C 0.40901 0.90335 0.22853 0.0
C68 C 0.43844 0.93826 0.27242 0.0
C69 C 0.41328 0.91387 0.41922 0.0
C70 C 0.38398 0.87894 0.37542 0.0
C71 C 0.46787 0.98257 0.41507 0.0
H72 H 0.83251 0.2516 0.52533 0.0
H73 H 0.78647 0.18938 0.58908 0.0
H74 H 0.69726 0.17378 0.38289 0.0
H75 H 0.74319 0.23506 0.31696 0.0
H76 H 0.40781 0.89995 0.15453 0.0
H77 H 0.45889 0.96099 0.23092 0.0
H78 H 0.41385 0.91774 0.49298 0.0
H79 H 0.36262 0.85686 0.41662 0.0
Tb80 Tb 0.58187 0.60155 0.84453 0.0
Eu81 Eu 0.54563 0.50416 0.81737 0.0
C82 C 0.56193 0.54937 0.00735 0.0
C83 C 0.63714 0.56524 0.83066 0.0
C84 C 0.61016 0.70843 0.83067 0.0
C85 C 0.63888 0.77889 0.829 0.0
C86 C 0.63764 0.74599 0.86616 0.0
C87 C 0.58263 0.70399 0.75987 0.0
C88 C 0.58364 0.73707 0.72297 0.0
C89 C 0.61254 0.77488 0.75561 0.0
C90 C 0.61415 0.67526 0.86172 0.0
O91 O 0.54991 0.58269 0.71346 0.0
O92 O 0.56254 0.53305 0.68405 0.0
O93 O 0.49341 0.51301 0.81448 0.0
O94 O 0.52009 0.5775 0.869 0.0
C95 C 0.55228 0.55829 0.65635 0.0
O96 O 0.50775 0.44936 0.73819 0.0
O97 O 0.54201 0.44977 0.85967 0.0
O98 O 0.53638 0.51796 -0.04111 0.0
O99 O 0.59081 0.57881 -0.02959 0.0
O100 O 0.62869 0.59179 0.80239 0.0
O101 O 0.60998 0.53094 0.85478 0.0
C102 C 0.48989 0.54267 0.84499 0.0
O103 O 0.58921 0.65163 0.91756 0.0
O104 O 0.62142 0.65645 0.79881 0.0
C105 C 0.52594 0.40054 0.74187 0.0
C106 C 0.53754 0.34343 0.65234 0.0
C107 C 0.4997 0.33777 0.65877 0.0
C108 C 0.49402 0.36599 0.70297 0.0
C109 C 0.56389 0.40659 0.73571 0.0
C110 C 0.56963 0.37817 0.69155 0.0
C111 C 0.5183 0.42904 0.78958 0.0
H112 H 0.66112 0.80761 0.85632 0.0
H113 H 0.6592 0.74998 0.92052 0.0
H114 H 0.56138 0.67515 0.7311 0.0
H115 H 0.56308 0.73316 0.66624 0.0
H116 H 0.47427 0.31113 0.6309 0.0
H117 H 0.4645 0.36066 0.7074 0.0
H118 H 0.58902 0.43315 0.76504 0.0
H119 H 0.59915 0.38356 0.68721 0.0
H120 H 0.31991 0.56055 0.07741 0.0
H121 H 0.23811 0.47054 0.8777 0.0
H122 H 0.29306 0.47026 0.80568 0.0
H123 H 0.3963 0.6133 0.92016 0.0
H124 H 0.43562 0.62474 0.00523 0.0
H125 H 0.38999 0.61893 0.03969 0.0
H126 H 0.38391 0.56603 0.15078 0.0
H127 H 0.42949 0.57168 0.11665 0.0
H128 H 0.386 0.52417 0.10711 0.0
H129 H 0.35605 0.4763 0.7617 0.0
H130 H 0.42356 0.49061 0.74371 0.0
H131 H 0.46557 0.57857 -0.03243 0.0
C132 C 0.31362 0.54087 0.01838 0.0
C133 C 0.27464 0.51562 -0.017 0.0
C134 C 0.26768 0.49049 0.90527 0.0
C135 C 0.2987 0.48999 0.86414 0.0
C136 C 0.33667 0.51505 0.90089 0.0
C137 C 0.34435 0.54028 -0.02423 0.0
C138 C 0.38795 0.56398 0.00196 0.0
C139 C 0.40337 0.60784 -0.00891 0.0
C140 C 0.39738 0.55597 0.09993 0.0
C141 C 0.40345 0.54764 0.93105 0.0
C142 C 0.3733 0.51938 0.87365 0.0
C143 C 0.37995 0.49868 0.80556 0.0
C144 C 0.41839 0.50693 0.79606 0.0
C145 C 0.44984 0.5359 0.85367 0.0
C146 C 0.4422 0.55675 0.92148 0.0
H147 H 0.87088 0.28025 0.39426 0.0
H148 H 0.77495 0.30354 0.35142 0.0
H149 H 0.81932 0.36607 0.2853 0.0
H150 H 0.94446 0.38001 0.46136 0.0
H151 H 0.98282 0.37775 0.40502 0.0
H152 H 0.94342 0.33405 0.44731 0.0
H153 H 0.92837 0.30004 0.28536 0.0
H154 H 0.96761 0.34372 0.24248 0.0
H155 H 0.91885 0.3226 0.18875 0.0
H156 H 0.8732 0.42611 0.2269 0.0
H157 H 0.93423 0.48147 0.18054 0.0
H158 H 0.99708 0.4213 0.26101 0.0
C159 C 0.85924 0.29859 0.37148 0.0
C160 C 0.81915 0.2866 0.37742 0.0
C161 C 0.80521 0.31149 0.34606 0.0
C162 C 0.83027 0.34726 0.30883 0.0
C163 C 0.86937 0.358 0.30349 0.0
C164 C 0.88396 0.3346 0.33408 0.0
C165 C 0.9275 0.35367 0.32132 0.0
C166 C 0.95093 0.36185 0.41429 0.0
C167 C 0.93607 0.3285 0.25555 0.0
C168 C 0.93498 0.39141 0.27872 0.0
C169 C 0.9009 0.39312 0.26936 0.0
C170 C 0.90008 0.42514 0.23378 0.0
C171 C 0.93505 0.45653 0.20782 0.0
C172 C 0.9706 0.45588 0.2171 0.0
C173 C 0.97039 0.42258 0.2523 0.0
H174 H 0.55027 0.92693 0.56849 0.0
H175 H 0.67214 1.00283 0.51559 0.0
H176 H 0.68696 0.95199 0.5648 0.0
H177 H 0.56759 0.88815 0.77019 0.0
H178 H 0.52685 0.8394 0.74676 0.0
H179 H 0.52494 0.88062 0.7017 0.0
H180 H 0.51129 0.84919 0.53719 0.0
H181 H 0.513 0.80775 0.58175 0.0
H182 H 0.5444 0.83494 0.49335 0.0
H183 H 0.68975 0.89521 0.62879 0.0
H184 H 0.67992 0.83492 0.69937 0.0
H185 H 0.55622 0.79474 0.70949 0.0
C186 C 0.58 0.93274 0.56603 0.0
C187 C 0.61001 0.96901 0.5378 0.0
C188 C 0.64856 0.97537 0.53654 0.0
C189 C 0.65731 0.94663 0.56441 0.0
C190 C 0.62721 0.91152 0.59297 0.0
C191 C 0.58927 0.90429 0.59346 0.0
C192 C 0.56263 0.86448 0.63012 0.0
C193 C 0.54445 0.86842 0.71737 0.0
C194 C 0.53096 0.8375 0.55618 0.0
C195 C 0.59169 0.85073 0.65144 0.0
C196 C 0.62874 0.87838 0.62928 0.0
C197 C 0.66083 0.87322 0.64581 0.0
C198 C 0.65499 0.839 0.68639 0.0
C199 C 0.61735 0.81022 0.71 0.0
C200 C 0.58522 0.81606 0.69128 0.0
H201 H 0.66933 0.52651 0.92216 0.0
H202 H 0.69893 0.6262 0.75513 0.0
H203 H 0.76847 0.64465 0.77278 0.0
H204 H 0.75177 0.57509 0.08225 0.0
H205 H 0.75835 0.53342 0.09614 0.0
H206 H 0.71046 0.52627 0.06553 0.0
H207 H 0.70429 0.48371 0.92184 0.0
H208 H 0.7521 0.49055 -0.0477 0.0
H209 H 0.74156 0.50326 0.84077 0.0
H210 H 0.83493 0.65372 0.81254 0.0
H211 H 0.89407 0.6534 0.87346 0.0
H212 H 0.82197 0.54839 0.01675 0.0
C213 C 0.69034 0.5519 0.88817 0.0
C214 C 0.67855 0.57476 0.8367 0.0
C215 C 0.70715 0.60816 0.79471 0.0
C216 C 0.74676 0.61887 0.80424 0.0
C217 C 0.75743 0.59601 0.85631 0.0
C218 C 0.7301 0.56323 0.89765 0.0
C219 C 0.74959 0.5447 -0.04689 0.0
C220 C 0.74209 0.5449 0.05531 0.0
C221 C 0.73608 0.50309 0.91468 0.0
C222 C 0.79215 0.57237 0.93699 0.0
C223 C 0.79593 0.60157 0.88041 0.0
C224 C 0.83232 0.63083 0.85634 0.0
C225 C 0.86575 0.63026 0.89095 0.0
C226 C 0.86274 0.60073 -0.05059 0.0
C227 C 0.8253 0.57144 -0.02742 0.0
H228 H 0.34773 0.79703 0.32919 0.0
H229 H 0.33695 0.87026 0.12501 0.0
H230 H 0.27746 0.81293 0.05444 0.0
H231 H 0.3111 0.70848 0.17707 0.0
H232 H 0.28552 0.67622 0.26613 0.0
H233 H 0.32936 0.72224 0.29529 0.0
H234 H 0.29176 0.74125 0.40613 0.0
H235 H 0.24788 0.69538 0.37728 0.0
H236 H 0.24785 0.74064 0.36346 0.0
H237 H 0.21545 0.74929 0.01593 0.0
H238 H 0.15683 0.68347 0.00924 0.0
H239 H 0.20841 0.6512 0.23642 0.0
C240 C 0.3331 0.80093 0.26904 0.0
C241 C 0.34722 0.83819 0.23239 0.0
C242 C 0.32718 0.84196 0.15345 0.0
C243 C 0.29321 0.80958 0.11309 0.0
C244 C 0.27976 0.77345 0.15183 0.0
C245 C 0.29926 0.76885 0.22755 0.0
C246 C 0.2777 0.72724 0.25832 0.0
C247 C 0.3024 0.70738 0.24859 0.0
C248 C 0.26558 0.72608 0.35713 0.0
C249 C 0.24248 0.70945 0.18967 0.0
C250 C 0.24431 0.73655 0.12856 0.0
C251 C 0.21397 0.72765 0.06252 0.0
C252 C 0.18073 0.69022 0.05941 0.0
C253 C 0.17814 0.66205 0.1217 0.0
C254 C 0.20977 0.6718 0.1867 0.0
H255 H 0.58714 0.316 0.70628 0.0
H256 H 0.49973 0.30113 0.49262 0.0
H257 H 0.50377 0.24632 0.42147 0.0
H258 H 0.64601 0.29208 0.55747 0.0
H259 H 0.65674 0.26676 0.64558 0.0
H260 H 0.64904 0.30667 0.67655 0.0
H261 H 0.59464 0.26152 0.78027 0.0
H262 H 0.60202 0.22147 0.74928 0.0
H263 H 0.55416 0.21623 0.73178 0.0
H264 H 0.51282 0.18973 0.38087 0.0
H265 H 0.52845 0.13662 0.36999 0.0
H266 H 0.61195 0.18922 0.60575 0.0
C267 C 0.56947 0.30177 0.64344 0.0
C268 C 0.54293 0.31281 0.60539 0.0
C269 C 0.51985 0.2929 0.5239 0.0
C270 C 0.52211 0.26187 0.48256 0.0
C271 C 0.54789 0.25119 0.52286 0.0
C272 C 0.57145 0.27071 0.60098 0.0
C273 C 0.59553 0.25225 0.63225 0.0
C274 C 0.63944 0.28117 0.62766 0.0
C275 C 0.586 0.23696 0.72912 0.0
C276 C 0.58121 0.2189 0.56057 0.0
C277 C 0.55379 0.21891 0.49804 0.0
C278 C 0.53465 0.18971 0.42864 0.0
C279 C 0.54361 0.15958 0.42322 0.0
C280 C 0.57164 0.15894 0.48644 0.0
C281 C 0.59093 0.18931 0.55535 0.0
H282 H 0.09633 0.52362 0.84129 0.0
H283 H 1.01228 0.56151 0.88697 0.0
H284 H 1.01462 0.58018 0.72682 0.0
H285 H 0.15461 0.59703 0.69229 0.0
H286 H 0.16175 0.56494 0.61661 0.0
H287 H 0.15376 0.55412 0.73542 0.0
H288 H 0.09465 0.48558 0.68854 0.0
H289 H 0.10307 0.4958 0.56968 0.0
H290 H 1.05582 0.4816 0.61068 0.0
H291 H 1.02929 0.59893 0.56745 0.0
H292 H 1.04515 0.60438 0.40548 0.0
H293 H 0.11614 0.55037 0.46008 0.0
C294 C 0.07814 0.53542 0.81695 0.0
C295 C 1.05439 0.5414 0.87585 0.0
C296 C 1.03062 0.5566 0.84238 0.0
C297 C 1.032 0.56765 0.75197 0.0
C298 C 1.05673 0.5626 0.6963 0.0
C299 C 0.07851 0.54586 0.7264 0.0
C300 C 0.10113 0.5419 0.65089 0.0
C301 C 0.14544 0.56594 0.67531 0.0
C302 C 0.08785 0.49865 0.62862 0.0
C303 C 0.0888 0.55935 0.57404 0.0
C304 C 0.0638 0.57179 0.60233 0.0
C305 C 1.04866 0.58915 0.54393 0.0
C306 C 1.05811 0.59246 0.45261 0.0
C307 C 0.0818 0.57777 0.42135 0.0
C308 C 0.09798 0.56181 0.48299 0.0
H309 H 0.5523 1.01826 0.17287 0.0
H310 H 0.64281 0.13919 0.23385 0.0
H311 H 0.63703 0.15399 0.07342 0.0
H312 H 0.58467 1.00777 -0.03341 0.0
H313 H 0.53691 0.97719 0.90962 0.0
H314 H 0.54358 0.97755 0.03217 0.0
H315 H 0.48956 0.99579 0.04947 0.0
H316 H 0.48308 0.99595 0.92645 0.0
H317 H 0.49388 1.03858 -0.00333 0.0
H318 H 0.62894 0.15427 0.9081 0.0
H319 H 0.62196 0.13826 0.74172 0.0
H320 H 0.53568 1.01815 0.78533 0.0
C321 C 0.57059 0.04792 0.15257 0.0
C322 C 0.59786 0.07757 0.21541 0.0
C323 C 0.6216 0.11599 0.18656 0.0
C324 C 0.61823 0.12486 0.09595 0.0
C325 C 0.59087 0.09506 0.03572 0.0
C326 C 0.56759 0.05731 0.06236 0.0
C327 C 0.54392 1.02976 -0.01832 0.0
C328 C 0.55284 0.99612 -0.02804 0.0
C329 C 0.5 1.01411 -0.01097 0.0
C330 C 0.55941 0.05756 0.90498 0.0
C331 C 0.5857 0.09531 0.93815 0.0
C332 C 0.6077 0.1252 0.88091 0.0
C333 C 0.60376 0.11591 0.78719 0.0
C334 C 0.578 0.0773 0.75308 0.0
C335 C 0.55462 0.04805 0.81132 0.0
H336 H 0.53337 0.50179 0.52356 0.0
H337 H 0.55357 0.6195 0.57112 0.0
H338 H 0.54708 0.62552 0.4048 0.0
H339 H 0.58933 0.51977 0.34803 0.0
H340 H 0.55868 0.47507 0.28031 0.0
H341 H 0.55572 0.47599 0.40238 0.0
H342 H 0.48137 0.45097 0.38119 0.0
H343 H 0.48388 0.44936 0.25846 0.0
H344 H 0.46396 0.47678 0.31019 0.0
H345 H 0.55406 0.62485 0.24074 0.0
H346 H 0.5673 0.61477 0.08265 0.0
H347 H 0.53873 0.49627 0.13835 0.0
C348 C 0.53544 0.52841 0.49875 0.0
C349 C 0.54424 0.56026 0.55903 0.0
C350 C 0.54677 0.59474 0.52528 0.0
C351 C 0.54288 0.59835 0.43123 0.0
C352 C 0.53561 0.56689 0.37305 0.0
C353 C 0.5311 0.53224 0.40528 0.0
C354 C 0.52784 0.50463 0.32825 0.0
C355 C 0.5598 0.49325 0.34052 0.0
C356 C 0.48681 0.46829 0.31898 0.0
C357 C 0.53443 0.53047 0.24863 0.0
C358 C 0.53821 0.566 0.27586 0.0
C359 C 0.54991 0.59678 0.21758 0.0
C360 C 0.55796 0.59104 0.12884 0.0
C361 C 0.55396 0.55483 0.10018 0.0
C362 C 0.54131 0.52394 0.15957 0.0
loop_
_geom_bond_atom_site_label_1
_geom_bond_atom_site_label_2
_geom_bond_distance
_geom_bond_site_symmetry_2
_ccdc_geom_bond_type
Tb0 C10 2.825 . S
Tb0 O11 2.347 . S
Tb0 O14 2.366 . S
Tb0 O19 2.418 . S
Tb0 O20 2.384 1_455 S
Tb0 O23 2.479 . S
Tb0 O24 2.471 . S
Eu1 O12 2.418 1_554 S
Eu1 O13 2.384 1_655 S
Eu1 O16 2.479 . S
Eu1 O17 2.471 . S
Eu1 O18 2.347 1_655 S
Eu1 O21 2.366 . S
Eu1 C31 2.825 . S
C2 O18 1.259 . S
C2 O19 1.265 . S
C3 O20 1.255 . S
C3 O21 1.265 . S
C4 C6 1.380 . S
C4 C7 1.374 . S
C4 C10 1.507 . S
C5 C6 1.384 . S
C5 C9 1.387 . S
C5 H32 0.930 . S
C6 C4 1.380 . S
C6 C5 1.384 . S
C6 H33 0.931 . S
C7 C4 1.374 . S
C7 C8 1.390 . S
C7 H34 0.930 . S
C8 C7 1.390 . S
C8 C9 1.391 . S
C8 H35 0.930 1_554 S
C9 C5 1.387 . S
C9 C8 1.391 . S
C10 Tb0 2.825 . S
C10 C4 1.507 . S
C10 O23 1.238 . S
C10 O24 1.247 . S
O11 Tb0 2.347 . S
O11 C15 1.259 1_554 S
O12 Eu1 2.418 1_556 S
O12 C15 1.265 1_655 S
O13 Eu1 2.384 1_455 S
O13 C22 1.255 . S
O14 Tb0 2.366 . S
O14 C22 1.265 . S
C15 O11 1.259 1_556 S
C15 O12 1.265 1_455 S
O16 Eu1 2.479 . S
O16 C31 1.238 . S
O17 Eu1 2.471 . S
O17 C31 1.247 . S
O18 Eu1 2.347 1_455 S
O18 C2 1.259 . S
O19 Tb0 2.418 . S
O19 C2 1.265 . S
O20 Tb0 2.384 1_655 S
O20 C3 1.255 . S
O21 Eu1 2.366 . S
O21 C3 1.265 . S
C22 O13 1.255 . S
C22 O14 1.265 . S
O23 Tb0 2.479 . S
O23 C10 1.238 . S
O24 Tb0 2.471 . S
O24 C10 1.247 . S
C25 C28 1.380 . S
C25 C29 1.374 . S
C25 C31 1.507 . S
C26 C27 1.387 . S
C26 C30 1.391 . S
C27 C26 1.387 . S
C27 C28 1.384 . S
C27 H36 0.930 . S
C28 C25 1.380 . S
C28 C27 1.384 . S
C28 H37 0.931 . S
C29 C25 1.374 . S
C29 C30 1.390 . S
C29 H38 0.930 . S
C30 C26 1.391 . S
C30 C29 1.390 . S
C30 H39 0.930 . S
C31 Eu1 2.825 . S
C31 O16 1.238 . S
C31 O17 1.247 . S
C31 C25 1.507 . S
H32 C5 0.930 . S
H33 C6 0.931 . S
H34 C7 0.930 . S
H35 C8 0.930 1_556 S
H36 C27 0.930 . S
H37 C28 0.931 . S
H38 C29 0.930 . S
H39 C30 0.930 . S
Tb40 C50 2.825 . S
Tb40 O51 2.347 . S
Tb40 O54 2.366 . S
Tb40 O59 2.418 . S
Tb40 O60 2.384 1_545 S
Tb40 O63 2.479 . S
Tb40 O64 2.471 . S
Eu41 O52 2.418 . S
Eu41 O53 2.384 1_565 S
Eu41 O56 2.479 . S
Eu41 O57 2.471 . S
Eu41 O58 2.347 1_565 S
Eu41 O61 2.366 . S
Eu41 C71 2.825 . S
C42 O58 1.259 . S
C42 O59 1.265 . S
C43 O60 1.255 . S
C43 O61 1.265 . S
C44 C46 1.380 . S
C44 C47 1.374 . S
C44 C50 1.507 . S
C45 C46 1.384 . S
C45 C49 1.387 . S
C45 H72 0.930 . S
C46 C44 1.380 . S
C46 C45 1.384 . S
C46 H73 0.931 . S
C47 C44 1.374 . S
C47 C48 1.390 . S
C47 H74 0.930 . S
C48 C47 1.390 . S
C48 C49 1.391 . S
C48 H75 0.930 . S
C49 C45 1.387 . S
C49 C48 1.391 . S
C50 Tb40 2.825 . S
C50 C44 1.507 . S
C50 O63 1.238 . S
C50 O64 1.247 . S
O51 Tb40 2.347 . S
O51 C55 1.259 . S
O52 Eu41 2.418 . S
O52 C55 1.265 1_565 S
O53 Eu41 2.384 1_545 S
O53 C62 1.255 . S
O54 Tb40 2.366 . S
O54 C62 1.265 . S
C55 O51 1.259 . S
C55 O52 1.265 1_545 S
O56 Eu41 2.479 . S
O56 C71 1.238 . S
O57 Eu41 2.471 . S
O57 C71 1.247 . S
O58 Eu41 2.347 1_545 S
O58 C42 1.259 . S
O59 Tb40 2.418 . S
O59 C42 1.265 . S
O60 Tb40 2.384 1_565 S
O60 C43 1.255 . S
O61 Eu41 2.366 . S
O61 C43 1.265 . S
C62 O53 1.255 . S
C62 O54 1.265 . S
O63 Tb40 2.479 . S
O63 C50 1.238 . S
O64 Tb40 2.471 . S
O64 C50 1.247 . S
C65 C68 1.380 . S
C65 C69 1.374 . S
C65 C71 1.507 . S
C66 C67 1.387 . S
C66 C70 1.391 . S
C67 C66 1.387 . S
C67 C68 1.384 . S
C67 H76 0.930 . S
C68 C65 1.380 . S
C68 C67 1.384 . S
C68 H77 0.931 . S
C69 C65 1.374 . S
C69 C70 1.390 . S
C69 H78 0.930 . S
C70 C66 1.391 . S
C70 C69 1.390 . S
C70 H79 0.930 . S
C71 Eu41 2.825 . S
C71 O56 1.238 . S
C71 O57 1.247 . S
C71 C65 1.507 . S
H72 C45 0.930 . S
H73 C46 0.931 . S
H74 C47 0.930 . S
H75 C48 0.930 . S
H76 C67 0.930 . S
H77 C68 0.931 . S
H78 C69 0.930 . S
H79 C70 0.930 . S
Tb80 C90 2.825 . S
Tb80 O91 2.347 . S
Tb80 O94 2.366 . S
Tb80 O99 2.418 1_556 S
Tb80 O100 2.384 . S
Tb80 O103 2.479 . S
Tb80 O104 2.471 . S
Eu81 O92 2.418 . S
Eu81 O93 2.384 . S
Eu81 O96 2.479 . S
Eu81 O97 2.471 . S
Eu81 O98 2.347 . S
Eu81 O101 2.366 . S
Eu81 C111 2.825 . S
C82 O98 1.259 1_554 S
C82 O99 1.265 . S
C83 O100 1.255 . S
C83 O101 1.265 . S
C84 C86 1.380 . S
C84 C87 1.374 . S
C84 C90 1.507 . S
C85 C86 1.384 . S
C85 C89 1.387 . S
C85 H112 0.930 . S
C86 C84 1.380 . S
C86 C85 1.384 . S
C86 H113 0.931 . S
C87 C84 1.374 . S
C87 C88 1.390 . S
C87 H114 0.930 . S
C88 C87 1.390 . S
C88 C89 1.391 . S
C88 H115 0.930 . S
C89 C85 1.387 . S
C89 C88 1.391 . S
C90 Tb80 2.825 . S
C90 C84 1.507 . S
C90 O103 1.238 . S
C90 O104 1.247 . S
O91 Tb80 2.347 . S
O91 C95 1.259 . S
O92 Eu81 2.418 . S
O92 C95 1.265 . S
O93 Eu81 2.384 . S
O93 C102 1.255 . S
O94 Tb80 2.366 . S
O94 C102 1.265 . S
C95 O91 1.259 . S
C95 O92 1.265 . S
O96 Eu81 2.479 . S
O96 C111 1.238 . S
O97 Eu81 2.471 . S
O97 C111 1.247 . S
O98 Eu81 2.347 . S
O98 C82 1.259 1_556 S
O99 Tb80 2.418 1_554 S
O99 C82 1.265 . S
O100 Tb80 2.384 . S
O100 C83 1.255 . S
O101 Eu81 2.366 . S
O101 C83 1.265 . S
C102 O93 1.255 . S
C102 O94 1.265 . S
O103 Tb80 2.479 . S
O103 C90 1.238 . S
O104 Tb80 2.471 . S
O104 C90 1.247 . S
C105 C108 1.380 . S
C105 C109 1.374 . S
C105 C111 1.507 . S
C106 C107 1.387 . S
C106 C110 1.391 . S
C107 C106 1.387 . S
C107 C108 1.384 . S
C107 H116 0.930 . S
C108 C105 1.380 . S
C108 C107 1.384 . S
C108 H117 0.931 . S
C109 C105 1.374 . S
C109 C110 1.390 . S
C109 H118 0.930 . S
C110 C106 1.391 . S
C110 C109 1.390 . S
C110 H119 0.930 1_556 S
C111 Eu81 2.825 . S
C111 O96 1.238 . S
C111 O97 1.247 . S
C111 C105 1.507 . S
H112 C85 0.930 . S
H113 C86 0.931 . S
H114 C87 0.930 . S
H115 C88 0.930 . S
H116 C107 0.930 . S
H117 C108 0.931 . S
H118 C109 0.930 . S
H119 C110 0.930 1_554 S
H120 C132 0.930 . S
H121 C134 0.930 . S
H122 C135 0.930 . S
H123 C139 0.959 . S
H124 C139 0.959 . S
H125 C139 0.961 . S
H126 C140 0.960 . S
H127 C140 0.961 . S
H128 C140 0.959 . S
H129 C143 0.929 . S
H130 C144 0.931 . S
H131 C146 0.930 1_554 S
C132 H120 0.930 . S
C132 C133 1.399 . S
C132 C137 1.399 . S
C133 C132 1.399 . S
C133 C134 1.376 1_554 S
C134 H121 0.930 . S
C134 C133 1.376 1_556 S
C134 C135 1.388 . S
C135 H122 0.930 . S
C135 C134 1.388 . S
C135 C136 1.390 . S
C136 C135 1.390 . S
C136 C137 1.394 1_556 S
C136 C142 1.465 . S
C137 C132 1.399 . S
C137 C136 1.394 1_554 S
C137 C138 1.516 . S
C138 C137 1.516 . S
C138 C139 1.502 . S
C138 C140 1.561 . S
C138 C141 1.526 1_554 S
C139 H123 0.959 . S
C139 H124 0.959 . S
C139 H125 0.961 . S
C139 C138 1.502 . S
C140 H126 0.960 . S
C140 H127 0.961 . S
C140 H128 0.959 . S
C140 C138 1.561 . S
C141 C138 1.526 1_556 S
C141 C142 1.396 . S
C141 C146 1.390 . S
C142 C136 1.465 . S
C142 C141 1.396 . S
C142 C143 1.399 . S
C143 H129 0.929 . S
C143 C142 1.399 . S
C143 C144 1.385 . S
C144 H130 0.931 . S
C144 C143 1.385 . S
C144 C145 1.389 . S
C145 C144 1.389 . S
C145 C146 1.387 . S
C146 H131 0.930 1_556 S
C146 C141 1.390 . S
C146 C145 1.387 . S
H147 C159 0.930 . S
H148 C161 0.930 . S
H149 C162 0.930 . S
H150 C166 0.959 . S
H151 C166 0.959 . S
H152 C166 0.961 . S
H153 C167 0.960 . S
H154 C167 0.961 . S
H155 C167 0.959 . S
H156 C170 0.929 . S
H157 C171 0.931 . S
H158 C173 0.930 . S
C159 H147 0.930 . S
C159 C160 1.399 . S
C159 C164 1.399 . S
C160 C159 1.399 . S
C160 C161 1.376 . S
C161 H148 0.930 . S
C161 C160 1.376 . S
C161 C162 1.388 . S
C162 H149 0.930 . S
C162 C161 1.388 . S
C162 C163 1.390 . S
C163 C162 1.390 . S
C163 C164 1.394 . S
C163 C169 1.465 . S
C164 C159 1.399 . S
C164 C163 1.394 . S
C164 C165 1.516 . S
C165 C164 1.516 . S
C165 C166 1.502 . S
C165 C167 1.561 . S
C165 C168 1.526 . S
C166 H150 0.959 . S
C166 H151 0.959 . S
C166 H152 0.961 . S
C166 C165 1.502 . S
C167 H153 0.960 . S
C167 H154 0.961 . S
C167 H155 0.959 . S
C167 C165 1.561 . S
C168 C165 1.526 . S
C168 C169 1.396 . S
C168 C173 1.390 . S
C169 C163 1.465 . S
C169 C168 1.396 . S
C169 C170 1.399 . S
C170 H156 0.929 . S
C170 C169 1.399 . S
C170 C171 1.385 . S
C171 H157 0.931 . S
C171 C170 1.385 . S
C171 C172 1.389 . S
C172 C171 1.389 . S
C172 C173 1.387 . S
C173 H158 0.930 . S
C173 C168 1.390 . S
C173 C172 1.387 . S
H174 C186 0.930 . S
H175 C188 0.930 . S
H176 C189 0.930 . S
H177 C193 0.959 . S
H178 C193 0.959 . S
H179 C193 0.961 . S
H180 C194 0.960 . S
H181 C194 0.961 . S
H182 C194 0.959 . S
H183 C197 0.929 . S
H184 C198 0.931 . S
H185 C200 0.930 . S
C186 H174 0.930 . S
C186 C187 1.399 . S
C186 C191 1.399 . S
C187 C186 1.399 . S
C187 C188 1.376 . S
C188 H175 0.930 . S
C188 C187 1.376 . S
C188 C189 1.388 . S
C189 H176 0.930 . S
C189 C188 1.388 . S
C189 C190 1.390 . S
C190 C189 1.390 . S
C190 C191 1.394 . S
C190 C196 1.465 . S
C191 C186 1.399 . S
C191 C190 1.394 . S
C191 C192 1.516 . S
C192 C191 1.516 . S
C192 C193 1.502 . S
C192 C194 1.561 . S
C192 C195 1.526 . S
C193 H177 0.959 . S
C193 H178 0.959 . S
C193 H179 0.961 . S
C193 C192 1.502 . S
C194 H180 0.960 . S
C194 H181 0.961 . S
C194 H182 0.959 . S
C194 C192 1.561 . S
C195 C192 1.526 . S
C195 C196 1.396 . S
C195 C200 1.390 . S
C196 C190 1.465 . S
C196 C195 1.396 . S
C196 C197 1.399 . S
C197 H183 0.929 . S
C197 C196 1.399 . S
C197 C198 1.385 . S
C198 H184 0.931 . S
C198 C197 1.385 . S
C198 C199 1.389 . S
C199 C198 1.389 . S
C199 C200 1.387 . S
C200 H185 0.930 . S
C200 C195 1.390 . S
C200 C199 1.387 . S
H201 C213 0.930 . S
H202 C215 0.930 . S
H203 C216 0.930 . S
H204 C220 0.959 . S
H205 C220 0.959 . S
H206 C220 0.961 . S
H207 C221 0.960 . S
H208 C221 0.956 1_554 S
H209 C221 0.959 . S
H210 C224 0.929 . S
H211 C225 0.931 . S
H212 C227 0.930 . S
C213 H201 0.930 . S
C213 C214 1.399 . S
C213 C218 1.399 . S
C214 C213 1.399 . S
C214 C215 1.376 . S
C215 H202 0.930 . S
C215 C214 1.376 . S
C215 C216 1.388 . S
C216 H203 0.930 . S
C216 C215 1.388 . S
C216 C217 1.390 . S
C217 C216 1.390 . S
C217 C218 1.394 . S
C217 C223 1.465 1_556 S
C218 C213 1.399 . S
C218 C217 1.394 . S
C218 C219 1.516 1_556 S
C219 C218 1.516 1_554 S
C219 C220 1.502 . S
C219 C221 1.561 1_554 S
C219 C222 1.526 . S
C220 H204 0.959 . S
C220 H205 0.959 . S
C220 H206 0.961 . S
C220 C219 1.502 . S
C221 H207 0.960 . S
C221 H208 0.956 1_556 S
C221 H209 0.959 . S
C221 C219 1.561 1_556 S
C222 C219 1.526 . S
C222 C223 1.396 . S
C222 C227 1.390 . S
C223 C217 1.465 1_554 S
C223 C222 1.396 . S
C223 C224 1.399 . S
C224 H210 0.929 . S
C224 C223 1.399 . S
C224 C225 1.385 . S
C225 H211 0.931 . S
C225 C224 1.385 . S
C225 C226 1.389 . S
C226 C225 1.389 . S
C226 C227 1.387 . S
C227 H212 0.930 . S
C227 C222 1.390 . S
C227 C226 1.387 . S
H228 C240 0.930 . S
H229 C242 0.930 . S
H230 C243 0.930 . S
H231 C247 0.959 . S
H232 C247 0.959 . S
H233 C247 0.961 . S
H234 C248 0.960 . S
H235 C248 0.961 . S
H236 C248 0.959 . S
H237 C251 0.929 . S
H238 C252 0.931 . S
H239 C254 0.930 . S
C240 H228 0.930 . S
C240 C241 1.399 . S
C240 C245 1.399 . S
C241 C240 1.399 . S
C241 C242 1.376 . S
C242 H229 0.930 . S
C242 C241 1.376 . S
C242 C243 1.388 . S
C243 H230 0.930 . S
C243 C242 1.388 . S
C243 C244 1.390 . S
C244 C243 1.390 . S
C244 C245 1.394 . S
C244 C250 1.465 . S
C245 C240 1.399 . S
C245 C244 1.394 . S
C245 C246 1.516 . S
C246 C245 1.516 . S
C246 C247 1.502 . S
C246 C248 1.561 . S
C246 C249 1.526 . S
C247 H231 0.959 . S
C247 H232 0.959 . S
C247 H233 0.961 . S
C247 C246 1.502 . S
C248 H234 0.960 . S
C248 H235 0.961 . S
C248 H236 0.959 . S
C248 C246 1.561 . S
C249 C246 1.526 . S
C249 C250 1.396 . S
C249 C254 1.390 . S
C250 C244 1.465 . S
C250 C249 1.396 . S
C250 C251 1.399 . S
C251 H237 0.929 . S
C251 C250 1.399 . S
C251 C252 1.385 . S
C252 H238 0.931 . S
C252 C251 1.385 . S
C252 C253 1.389 . S
C253 C252 1.389 . S
C253 C254 1.387 . S
C254 H239 0.930 . S
C254 C249 1.390 . S
C254 C253 1.387 . S
H255 C267 0.930 . S
H256 C269 0.930 . S
H257 C270 0.930 . S
H258 C274 0.959 . S
H259 C274 0.959 . S
H260 C274 0.961 . S
H261 C275 0.960 . S
H262 C275 0.961 . S
H263 C275 0.959 . S
H264 C278 0.929 . S
H265 C279 0.931 . S
H266 C281 0.930 . S
C267 H255 0.930 . S
C267 C268 1.399 . S
C267 C272 1.399 . S
C268 C267 1.399 . S
C268 C269 1.376 . S
C269 H256 0.930 . S
C269 C268 1.376 . S
C269 C270 1.388 . S
C270 H257 0.930 . S
C270 C269 1.388 . S
C270 C271 1.390 . S
C271 C270 1.390 . S
C271 C272 1.394 . S
C271 C277 1.465 . S
C272 C267 1.399 . S
C272 C271 1.394 . S
C272 C273 1.516 . S
C273 C272 1.516 . S
C273 C274 1.502 . S
C273 C275 1.561 . S
C273 C276 1.526 . S
C274 H258 0.959 . S
C274 H259 0.959 . S
C274 H260 0.961 . S
C274 C273 1.502 . S
C275 H261 0.960 . S
C275 H262 0.961 . S
C275 H263 0.959 . S
C275 C273 1.561 . S
C276 C273 1.526 . S
C276 C277 1.396 . S
C276 C281 1.390 . S
C277 C271 1.465 . S
C277 C276 1.396 . S
C277 C278 1.399 . S
C278 H264 0.929 . S
C278 C277 1.399 . S
C278 C279 1.385 . S
C279 H265 0.931 . S
C279 C278 1.385 . S
C279 C280 1.389 . S
C280 C279 1.389 . S
C280 C281 1.387 . S
C281 H266 0.930 . S
C281 C276 1.390 . S
C281 C280 1.387 . S
H282 C294 0.930 . S
H283 C296 0.930 . S
H284 C297 0.931 . S
H285 C301 0.959 1_655 S
H286 C301 0.959 . S
H287 C301 0.961 . S
H288 C302 0.960 . S
H289 C302 0.961 . S
H290 C302 0.959 . S
H291 C305 0.939 1_655 S
H292 C306 0.936 1_655 S
H293 C308 0.930 . S
C294 H282 0.930 . S
C294 C295 1.399 . S
C294 C299 1.399 . S
C295 C294 1.399 . S
C295 C296 1.376 . S
C296 H283 0.930 . S
C296 C295 1.376 . S
C296 C297 1.388 . S
C297 H284 0.931 . S
C297 C296 1.388 . S
C297 C298 1.390 . S
C298 C297 1.390 . S
C298 C299 1.394 . S
C298 C304 1.465 . S
C299 C294 1.399 . S
C299 C298 1.394 . S
C299 C300 1.516 . S
C300 C299 1.516 . S
C300 C301 1.502 . S
C300 C302 1.561 . S
C300 C303 1.526 . S
C301 H285 0.959 1_455 S
C301 H286 0.959 . S
C301 H287 0.961 . S
C301 C300 1.502 . S
C302 H288 0.960 . S
C302 H289 0.961 . S
C302 H290 0.959 . S
C302 C300 1.561 . S
C303 C300 1.526 . S
C303 C304 1.396 . S
C303 C308 1.390 . S
C304 C298 1.465 . S
C304 C303 1.396 . S
C304 C305 1.399 . S
C305 H291 0.939 1_455 S
C305 C304 1.399 . S
C305 C306 1.385 . S
C306 H292 0.936 1_455 S
C306 C305 1.385 . S
C306 C307 1.389 . S
C307 C306 1.389 . S
C307 C308 1.387 . S
C308 H293 0.930 . S
C308 C303 1.390 . S
C308 C307 1.387 . S
H309 C321 0.930 . S
H310 C323 0.930 . S
H311 C324 0.930 . S
H312 C328 0.959 . S
H313 C328 0.959 . S
H314 C328 0.961 1_554 S
H315 C329 0.960 . S
H316 C329 0.961 1_556 S
H317 C329 0.958 1_556 S
H318 C332 0.929 . S
H319 C333 0.931 . S
H320 C335 0.930 . S
C321 H309 0.930 . S
C321 C322 1.399 . S
C321 C326 1.399 . S
C322 C321 1.399 . S
C322 C323 1.376 . S
C323 H310 0.930 . S
C323 C322 1.376 . S
C323 C324 1.388 . S
C324 H311 0.930 . S
C324 C323 1.388 . S
C324 C325 1.390 . S
C325 C324 1.390 . S
C325 C326 1.394 . S
C325 C331 1.465 1_554 S
C326 C321 1.399 . S
C326 C325 1.394 . S
C326 C327 1.516 1_554 S
C327 C326 1.516 1_556 S
C327 C328 1.502 1_545 S
C327 C329 1.561 1_556 S
C327 C330 1.526 . S
C328 H312 0.959 . S
C328 H313 0.959 . S
C328 H314 0.961 1_556 S
C328 C327 1.502 1_565 S
C329 H315 0.960 . S
C329 H316 0.961 1_554 S
C329 H317 0.958 1_554 S
C329 C327 1.561 1_554 S
C330 C327 1.526 . S
C330 C331 1.396 . S
C330 C335 1.390 . S
C331 C325 1.465 1_556 S
C331 C330 1.396 . S
C331 C332 1.399 . S
C332 H318 0.929 . S
C332 C331 1.399 . S
C332 C333 1.385 . S
C333 H319 0.931 . S
C333 C332 1.385 . S
C333 C334 1.389 . S
C334 C333 1.389 . S
C334 C335 1.387 . S
C335 H320 0.930 . S
C335 C330 1.390 . S
C335 C334 1.387 . S
H336 C348 0.930 . S
H337 C350 0.930 . S
H338 C351 0.930 . S
H339 C355 0.959 . S
H340 C355 0.959 . S
H341 C355 0.961 . S
H342 C356 0.960 . S
H343 C356 0.961 . S
H344 C356 0.959 . S
H345 C359 0.929 . S
H346 C360 0.931 . S
H347 C362 0.930 . S
C348 H336 0.930 . S
C348 C349 1.399 . S
C348 C353 1.399 . S
C349 C348 1.399 . S
C349 C350 1.376 . S
C350 H337 0.930 . S
C350 C349 1.376 . S
C350 C351 1.388 . S
C351 H338 0.930 . S
C351 C350 1.388 . S
C351 C352 1.390 . S
C352 C351 1.390 . S
C352 C353 1.394 . S
C352 C358 1.465 . S
C353 C348 1.399 . S
C353 C352 1.394 . S
C353 C354 1.516 . S
C354 C353 1.516 . S
C354 C355 1.502 . S
C354 C356 1.561 . S
C354 C357 1.526 . S
C355 H339 0.959 . S
C355 H340 0.959 . S
C355 H341 0.961 . S
C355 C354 1.502 . S
C356 H342 0.960 . S
C356 H343 0.961 . S
C356 H344 0.959 . S
C356 C354 1.561 . S
C357 C354 1.526 . S
C357 C358 1.396 . S
C357 C362 1.390 . S
C358 C352 1.465 . S
C358 C357 1.396 . S
C358 C359 1.399 . S
C359 H345 0.929 . S
C359 C358 1.399 . S
C359 C360 1.385 . S
C360 H346 0.931 . S
C360 C359 1.385 . S
C360 C361 1.389 . S
C361 C360 1.389 . S
C361 C362 1.387 . S
C362 H347 0.930 . S
C362 C357 1.390 . S
C362 C361 1.387 . S
C133 C9 1.950 . S
C145 C102 1.976 . S
C160 C49 2.087 . S
C172 C3 2.074 . S
C187 C43 1.961 . S
C199 C89 2.000 . S
C214 C83 2.130 . S
C226 C26 2.032 . S
C241 C66 1.938 . S
C253 C22 1.978 . S
C268 C106 1.999 . S
C280 C62 2.098 . S
C295 C15 0.641 . S
C307 C2 0.465 . S
C322 C55 0.624 . S
C334 C42 0.439 . S
C349 C95 0.501 . S
C361 C82 0.568 . S
