# Generated by pormake.
# Topology wlc, (5)-cn, num edge types: 1
# Building blocks:
#     Node 0, Type 0, BuildingBlock: BEQFEK_clean_sbu_0, # of connection points: 5
#     Node 1, Type 0, BuildingBlock: BEQFEK_clean_sbu_0, # of connection points: 5
#     Node 2, Type 0, BuildingBlock: BEQFEK_clean_sbu_0, # of connection points: 5
#     Node 3, Type 0, BuildingBlock: BEQFEK_clean_sbu_0, # of connection points: 5
#     Node 4, Type 0, BuildingBlock: BEQFEK_clean_sbu_0, # of connection points: 5
#     Node 5, Type 0, BuildingBlock: BEQFEK_clean_sbu_0, # of connection points: 5
#     Node 6, Type 0, BuildingBlock: BEQFEK_clean_sbu_0, # of connection points: 5
#     Node 7, Type 0, BuildingBlock: BEQFEK_clean_sbu_0, # of connection points: 5
#     Node 8, Type 0, BuildingBlock: BEQFEK_clean_sbu_0, # of connection points: 5
#     Node 9, Type 0, BuildingBlock: BEQFEK_clean_sbu_0, # of connection points: 5
#     Node 10, Type 0, BuildingBlock: BEQFEK_clean_sbu_0, # of connection points: 5
#     Node 11, Type 0, BuildingBlock: BEQFEK_clean_sbu_0, # of connection points: 5
#     Edge 12, Type (0, 0), BuildingBlock: AJUNOK_clean_linker_0, # of connection points: 2
#     Edge 13, Type (0, 0), BuildingBlock: AJUNOK_clean_linker_0, # of connection points: 2
#     Edge 14, Type (0, 0), BuildingBlock: AJUNOK_clean_linker_0, # of connection points: 2
#     Edge 15, Type (0, 0), BuildingBlock: AJUNOK_clean_linker_0, # of connection points: 2
#     Edge 16, Type (0, 0), BuildingBlock: AJUNOK_clean_linker_0, # of connection points: 2
#     Edge 17, Type (0, 0), BuildingBlock: AJUNOK_clean_linker_0, # of connection points: 2
#     Edge 18, Type (0, 0), BuildingBlock: AJUNOK_clean_linker_0, # of connection points: 2
#     Edge 19, Type (0, 0), BuildingBlock: AJUNOK_clean_linker_0, # of connection points: 2
#     Edge 20, Type (0, 0), BuildingBlock: AJUNOK_clean_linker_0, # of connection points: 2
#     Edge 21, Type (0, 0), BuildingBlock: AJUNOK_clean_linker_0, # of connection points: 2
#     Edge 22, Type (0, 0), BuildingBlock: AJUNOK_clean_linker_0, # of connection points: 2
#     Edge 23, Type (0, 0), BuildingBlock: AJUNOK_clean_linker_0, # of connection points: 2
#     Edge 24, Type (0, 0), BuildingBlock: AJUNOK_clean_linker_0, # of connection points: 2
#     Edge 25, Type (0, 0), BuildingBlock: AJUNOK_clean_linker_0, # of connection points: 2
#     Edge 26, Type (0, 0), BuildingBlock: AJUNOK_clean_linker_0, # of connection points: 2
#     Edge 27, Type (0, 0), BuildingBlock: AJUNOK_clean_linker_0, # of connection points: 2
#     Edge 28, Type (0, 0), BuildingBlock: AJUNOK_clean_linker_0, # of connection points: 2
#     Edge 29, Type (0, 0), BuildingBlock: AJUNOK_clean_linker_0, # of connection points: 2
#     Edge 30, Type (0, 0), BuildingBlock: AJUNOK_clean_linker_0, # of connection points: 2
#     Edge 31, Type (0, 0), BuildingBlock: AJUNOK_clean_linker_0, # of connection points: 2
#     Edge 32, Type (0, 0), BuildingBlock: AJUNOK_clean_linker_0, # of connection points: 2
#     Edge 33, Type (0, 0), BuildingBlock: AJUNOK_clean_linker_0, # of connection points: 2
#     Edge 34, Type (0, 0), BuildingBlock: AJUNOK_clean_linker_0, # of connection points: 2
#     Edge 35, Type (0, 0), BuildingBlock: AJUNOK_clean_linker_0, # of connection points: 2
#     Edge 36, Type (0, 0), BuildingBlock: AJUNOK_clean_linker_0, # of connection points: 2
#     Edge 37, Type (0, 0), BuildingBlock: AJUNOK_clean_linker_0, # of connection points: 2
#     Edge 38, Type (0, 0), BuildingBlock: AJUNOK_clean_linker_0, # of connection points: 2
#     Edge 39, Type (0, 0), BuildingBlock: AJUNOK_clean_linker_0, # of connection points: 2
#     Edge 40, Type (0, 0), BuildingBlock: AJUNOK_clean_linker_0, # of connection points: 2
#     Edge 41, Type (0, 0), BuildingBlock: AJUNOK_clean_linker_0, # of connection points: 2
# Relax obj value: 0.824
# Max RMSD: 0.278
# Mean RMSD: 0.278
data_MOF--net-wlc--node1-BEQFEK_clean_sbu_0--edge1-AJUNOK_clean_linker_0
_symmetry_space_group_name_H-M    P1
_symmetry_Int_Tables_number       1
_symmetry_cell_setting            triclinic
loop_
_symmetry_equiv_pos_as_xyz
'x, y, z'
_cell_length_a     34.7819
_cell_length_b     34.773641
_cell_length_c     23.394379
_cell_angle_alpha  90.092119
_cell_angle_beta   90.040992
_cell_angle_gamma 119.95474
loop_
_atom_site_label
_atom_site_type_symbol
_atom_site_fract_x
_atom_site_fract_y
_atom_site_fract_z
_atom_type_partial_charge
Co0 Co 0.09819 0.41437 0.15422 0.0
Co1 Co 0.02872 0.32428 0.10714 0.0
C2 C 0.12456 0.35253 0.14834 0.0
O3 O 0.13955 0.39376 0.14155 0.0
O4 O 0.08392 0.32476 0.13769 0.0
C5 C 0.16471 0.49903 0.21041 0.0
O6 O 0.19078 0.48305 0.22327 0.0
C7 C 0.01815 0.29237 0.99302 0.0
C8 C 0.94949 0.23669 0.98942 0.0
C9 C 0.98507 0.26492 0.95515 0.0
N10 N 0.00268 0.2818 0.04672 0.0
N11 N 0.96196 0.24755 0.04449 0.0
C12 C 0.06264 0.33096 0.97824 0.0
H13 H 0.0605 0.36158 0.97455 0.0
H14 H 0.07435 0.32515 0.93671 0.0
H15 H 0.08692 0.33637 0.01253 0.0
C16 C 0.06816 0.4479 0.05905 0.0
N17 N 0.06971 0.41493 0.08716 0.0
N18 N 0.0334 0.37742 0.07703 0.0
C19 C 0.00547 0.38585 0.04651 0.0
C20 C 0.02707 0.43079 0.0329 0.0
C21 C 0.10303 0.49572 0.06221 0.0
H22 H 0.08912 0.51459 0.08357 0.0
H23 H 0.13301 0.50003 0.08451 0.0
H24 H 0.11286 0.5094 0.01853 0.0
O25 O 0.05359 0.37282 0.21283 0.0
O26 O 0.99585 0.31129 0.17806 0.0
H27 H 0.93957 0.3506 0.07914 0.0
H28 H 0.94253 0.36403 0.00432 0.0
C29 C 0.95717 0.35324 0.03851 0.0
H30 H 0.95208 0.31994 0.0285 0.0
H31 H 0.94108 0.23449 0.07998 0.0
O32 O 0.12792 0.47485 0.18524 0.0
C33 C 0.01694 0.33639 0.22029 0.0
Co34 Co 0.58589 0.68163 0.16038 0.0
Co35 Co 0.669 0.71365 0.08998 0.0
C36 C 0.63699 0.77029 0.15417 0.0
O37 O 0.59694 0.74084 0.14675 0.0
O38 O 0.66743 0.76409 0.13379 0.0
C39 C 0.49924 0.65535 0.20851 0.0
O40 O 0.50012 0.68912 0.18222 0.0
C41 C 0.68406 0.73541 0.97138 0.0
C42 C 0.74589 0.73484 0.95338 0.0
C43 C 0.70998 0.73453 0.92696 0.0
N44 N 0.70284 0.73472 0.02136 0.0
N45 N 0.74055 0.73566 0.01041 0.0
C46 C 0.64056 0.7343 0.96669 0.0
H47 H 0.61276 0.69989 0.97159 0.0
H48 H 0.63741 0.74704 0.92449 0.0
H49 H 0.63772 0.75441 0.00159 0.0
C50 C 0.54471 0.61226 0.07299 0.0
N51 N 0.57802 0.65106 0.0928 0.0
N52 N 0.6153 0.6599 0.06821 0.0
C53 C 0.60745 0.625 0.03456 0.0
C54 C 0.56216 0.59409 0.03554 0.0
C55 C 0.49874 0.58935 0.09689 0.0
H56 H 0.49875 0.57285 0.13732 0.0
H57 H 0.48799 0.61389 0.10545 0.0
H58 H 0.4747 0.56364 0.06733 0.0
O59 O 0.63697 0.68318 0.20412 0.0
O60 O 0.69602 0.69717 0.15097 0.0
H61 H 0.65779 0.60762 0.0448 0.0
H62 H 0.62978 0.59168 0.97662 0.0
C63 C 0.64317 0.6179 0.01001 0.0
H64 H 0.67019 0.64906 0.99209 0.0
H65 H 0.76035 0.7325 0.04145 0.0
O66 O 0.53256 0.64971 0.20564 0.0
C67 C 0.67577 0.68789 0.19889 0.0
Co68 Co 0.31562 0.90655 0.15948 0.0
Co69 Co 0.28229 0.96033 0.09748 0.0
C70 C 0.22595 0.86557 0.14511 0.0
O71 O 0.25803 0.85846 0.14063 0.0
O72 O 0.23116 0.90333 0.13114 0.0
C73 C 0.34339 0.84574 0.20653 0.0
O74 O 0.31206 0.81164 0.17863 0.0
C75 C 0.25938 0.96945 0.98202 0.0
C76 C 0.25943 0.03276 0.9855 0.0
C77 C 0.25944 0.00197 0.94754 0.0
N78 N 0.26084 0.98134 0.03704 0.0
N79 N 0.2591 0.01837 0.03899 0.0
C80 C 0.26509 0.9314 0.96315 0.0
H81 H 0.26897 0.91393 0.00038 0.0
H82 H 0.29404 0.94314 0.93419 0.0
H83 H 0.23522 0.90728 0.93903 0.0
C84 C 0.38523 0.94018 0.07341 0.0
N85 N 0.34695 0.93455 0.09495 0.0
N86 N 0.33578 0.96117 0.06975 0.0
C87 C 0.3683 0.98637 0.03201 0.0
C88 C 0.40015 0.9731 0.03234 0.0
C89 C 0.40991 0.91883 0.09759 0.0
H90 H 0.42033 0.9308 0.142 0.0
H91 H 0.3876 0.88235 0.09895 0.0
H92 H 0.43989 0.9266 0.07239 0.0
O93 O 0.31301 0.95068 0.21167 0.0
O94 O 0.29847 0.99822 0.16602 0.0
H95 H 0.40543 0.05264 0.99808 0.0
H96 H 0.36018 0.01414 0.95472 0.0
C97 C 0.37084 0.02458 0.99947 0.0
H98 H 0.34927 0.03595 0.01915 0.0
H99 H 0.26238 0.03617 0.07639 0.0
O100 O 0.34739 0.88381 0.20132 0.0
C101 C 0.3081 0.98468 0.21155 0.0
Co102 Co 0.5897 0.91102 0.34392 0.0
Co103 Co 0.67735 0.96623 0.40517 0.0
C104 C 0.64357 0.87404 0.3468 0.0
O105 O 0.6033 0.86422 0.34639 0.0
O106 O 0.67373 0.91144 0.36624 0.0
C107 C 0.50293 0.85381 0.29064 0.0
O108 O 0.50802 0.819 0.29582 0.0
C109 C 0.70231 0.96555 0.52094 0.0
C110 C 0.7594 0.03275 0.53292 0.0
C111 C 0.72796 0.99594 0.56281 0.0
N112 N 0.71652 0.9842 0.4693 0.0
N113 N 0.75167 0.02388 0.47659 0.0
C114 C 0.66314 0.9201 0.52954 0.0
H115 H 0.63192 0.92024 0.52089 0.0
H116 H 0.66233 0.90834 0.57386 0.0
H117 H 0.66473 0.89671 0.49858 0.0
C118 C 0.55274 0.9327 0.44291 0.0
N119 N 0.58617 0.93094 0.41632 0.0
N120 N 0.62417 0.96392 0.43346 0.0
C121 C 0.61603 0.99041 0.4678 0.0
C122 C 0.57027 0.97107 0.47549 0.0
C123 C 0.50468 0.89869 0.43715 0.0
H124 H 0.49924 0.87353 0.4044 0.0
H125 H 0.49275 0.88126 0.4786 0.0
H126 H 0.48488 0.91496 0.4281 0.0
O127 O 0.63608 0.96087 0.29584 0.0
O128 O 0.69869 0.00732 0.34164 0.0
H129 H 0.6616 0.05866 0.4508 0.0
H130 H 0.63819 0.04822 0.52195 0.0
C131 C 0.65089 0.03549 0.48757 0.0
H132 H 0.68039 0.03461 0.50306 0.0
H133 H 0.76736 0.04677 0.44367 0.0
O134 O 0.53369 0.89183 0.30586 0.0
C135 C 0.67475 0.9954 0.29669 0.0
Co136 Co 0.09597 0.67242 0.32747 0.0
Co137 Co 0.04096 0.70172 0.39511 0.0
C138 C 0.131 0.76017 0.34013 0.0
O139 O 0.14126 0.73089 0.35087 0.0
O140 O 0.0933 0.75354 0.35607 0.0
C141 C 0.16291 0.6512 0.29633 0.0
O142 O 0.18508 0.6758 0.34037 0.0
C143 C 0.04617 0.72764 0.51136 0.0
C144 C 0.98138 0.72237 0.52776 0.0
C145 C 0.01867 0.72632 0.55508 0.0
N146 N 0.02544 0.72281 0.46119 0.0
N147 N 0.98725 0.72113 0.47095 0.0
C148 C 0.09054 0.73074 0.51684 0.0
H149 H 0.11356 0.75436 0.48456 0.0
H150 H 0.08753 0.69807 0.50772 0.0
H151 H 0.10452 0.74176 0.56038 0.0
C152 C 0.06364 0.59965 0.41107 0.0
N153 N 0.06891 0.63833 0.3912 0.0
N154 N 0.04175 0.64825 0.4176 0.0
C155 C 0.01618 0.61439 0.45335 0.0
C156 C 0.03024 0.58328 0.45167 0.0
C157 C 0.08546 0.5758 0.3857 0.0
H158 H 0.07974 0.57247 0.33888 0.0
H159 H 0.12172 0.59549 0.39346 0.0
H160 H 0.0725 0.54222 0.40419 0.0
O161 O 0.04913 0.67532 0.27876 0.0
O162 O 0.00057 0.68538 0.33056 0.0
H163 H 0.94704 0.59232 0.44945 0.0
H164 H 0.96562 0.58558 0.51849 0.0
C165 C 0.97453 0.60787 0.48095 0.0
H166 H 0.97777 0.63981 0.49394 0.0
H167 H 0.96345 0.71482 0.43958 0.0
O168 O 0.12524 0.6466 0.28376 0.0
C169 C 0.01413 0.67867 0.28282 0.0
Co170 Co 0.31454 0.41305 0.33656 0.0
Co171 Co 0.28787 0.33109 0.40766 0.0
C172 C 0.22673 0.35741 0.34145 0.0
O173 O 0.25413 0.39821 0.34794 0.0
O174 O 0.23567 0.32883 0.36227 0.0
C175 C 0.33888 0.49804 0.28062 0.0
O176 O 0.30354 0.49767 0.30106 0.0
C177 C 0.26966 0.30979 0.52785 0.0
C178 C 0.26332 0.24371 0.53433 0.0
C179 C 0.2672 0.27878 0.5671 0.0
N180 N 0.26833 0.29437 0.47466 0.0
N181 N 0.26334 0.25425 0.47882 0.0
C182 C 0.27578 0.35468 0.5409 0.0
H183 H 0.31115 0.37841 0.55016 0.0
H184 H 0.25635 0.35295 0.57941 0.0
H185 H 0.26526 0.3672 0.50391 0.0
C186 C 0.38104 0.45918 0.42477 0.0
N187 N 0.34385 0.42352 0.40542 0.0
N188 N 0.33843 0.38755 0.43053 0.0
C189 C 0.37445 0.39903 0.46385 0.0
C190 C 0.40212 0.44494 0.46206 0.0
C191 C 0.40011 0.50492 0.40083 0.0
H192 H 0.37313 0.51151 0.38886 0.0
H193 H 0.42223 0.53029 0.43224 0.0
H194 H 0.42017 0.50773 0.36269 0.0
O195 O 0.31872 0.36456 0.29402 0.0
O196 O 0.30863 0.30714 0.34729 0.0
H197 H 0.4107 0.36452 0.46191 0.0
H198 H 0.40146 0.3787 0.53219 0.0
C199 C 0.38597 0.36673 0.48957 0.0
H200 H 0.35642 0.33322 0.49285 0.0
H201 H 0.2636 0.23556 0.44396 0.0
O202 O 0.34514 0.46569 0.29028 0.0
C203 C 0.3174 0.32733 0.29945 0.0
Co204 Co 0.89048 0.56425 0.81818 0.0
Co205 Co 0.94603 0.64605 0.89241 0.0
C206 C 0.85816 0.6192 0.83753 0.0
O207 O 0.84814 0.57973 0.84769 0.0
O208 O 0.89543 0.65005 0.85502 0.0
C209 C 0.81838 0.47952 0.79139 0.0
O210 O 0.80298 0.48477 0.84026 0.0
C211 C 0.94769 0.66982 0.01017 0.0
C212 C 0.01182 0.73165 0.01974 0.0
C213 C 0.97617 0.69958 0.05075 0.0
N214 N 0.96604 0.68304 0.9583 0.0
N215 N 0.004 0.7206 0.96398 0.0
C216 C 0.90411 0.62849 0.01993 0.0
H217 H 0.8817 0.62245 0.98301 0.0
H218 H 0.90927 0.59959 0.02332 0.0
H219 H 0.88842 0.63113 0.05993 0.0
C220 C 0.92336 0.52083 0.89558 0.0
N221 N 0.91736 0.55466 0.8799 0.0
N222 N 0.94147 0.5895 0.91223 0.0
C223 C 0.96486 0.57896 0.94898 0.0
C224 C 0.95315 0.53482 0.94052 0.0
C225 C 0.90482 0.47772 0.86401 0.0
H226 H 0.90982 0.48399 0.81739 0.0
H227 H 0.86872 0.45806 0.87221 0.0
H228 H 0.92034 0.45809 0.87793 0.0
O229 O 0.93822 0.61376 0.77111 0.0
O230 O 0.98645 0.66928 0.82753 0.0
H231 H 0.01799 0.6453 0.96548 0.0
H232 H 0.02786 0.60178 0.99103 0.0
C233 C 0.00246 0.61189 0.98516 0.0
H234 H 0.98967 0.61346 0.02788 0.0
H235 H 0.02581 0.73706 0.93042 0.0
O236 O 0.85608 0.5096 0.77363 0.0
C237 C 0.97385 0.65118 0.77835 0.0
Co238 Co 0.43579 0.31516 0.83675 0.0
Co239 Co 0.35397 0.28914 0.9079 0.0
C240 C 0.38781 0.23084 0.86176 0.0
O241 O 0.42558 0.26196 0.87556 0.0
O242 O 0.3549 0.2353 0.87499 0.0
C243 C 0.52405 0.33644 0.80857 0.0
O244 O 0.52345 0.3186 0.85825 0.0
C245 C 0.33538 0.27285 0.02789 0.0
C246 C 0.26771 0.26207 0.03775 0.0
C247 C 0.30401 0.26696 0.06864 0.0
N248 N 0.31886 0.27219 0.97575 0.0
N249 N 0.278 0.26492 0.98171 0.0
C250 C 0.38086 0.27962 0.038 0.0
H251 H 0.39134 0.26712 0.00089 0.0
H252 H 0.40494 0.31552 0.04281 0.0
H253 H 0.38155 0.2625 0.07768 0.0
C254 C 0.47682 0.39638 0.90675 0.0
N255 N 0.44382 0.35554 0.8928 0.0
N256 N 0.40838 0.34533 0.9234 0.0
C257 C 0.41744 0.38085 0.95659 0.0
C258 C 0.46139 0.41376 0.94804 0.0
C259 C 0.5209 0.41997 0.87745 0.0
H260 H 0.51618 0.4163 0.83048 0.0
H261 H 0.54095 0.40482 0.89082 0.0
H262 H 0.53943 0.45581 0.88846 0.0
O263 O 0.38402 0.30669 0.78717 0.0
O264 O 0.32704 0.29936 0.84023 0.0
H265 H 0.38795 0.41846 0.98735 0.0
H266 H 0.38989 0.38103 0.03794 0.0
C267 C 0.38404 0.38496 0.99233 0.0
H268 H 0.34981 0.35947 0.98026 0.0
H269 H 0.25806 0.2642 0.9479 0.0
O270 O 0.48949 0.33666 0.79124 0.0
C271 C 0.34537 0.30267 0.79164 0.0
Co272 Co 0.67866 0.11887 0.82781 0.0
Co273 Co 0.70115 0.06136 0.90181 0.0
C274 C 0.76169 0.1527 0.8596 0.0
O275 O 0.73025 0.1592 0.87194 0.0
O276 O 0.75693 0.11539 0.87339 0.0
C277 C 0.66371 0.18966 0.8052 0.0
O278 O 0.67633 0.19939 0.85874 0.0
C279 C 0.7175 0.05815 0.02103 0.0
C280 C 0.72489 0.99909 0.03047 0.0
C281 C 0.72306 0.03227 0.06133 0.0
N282 N 0.7156 0.04097 0.96906 0.0
N283 N 0.72074 0.00599 0.97464 0.0
C284 C 0.71395 0.09877 0.03127 0.0
H285 H 0.72685 0.12122 0.99379 0.0
H286 H 0.67866 0.08921 0.03698 0.0
H287 H 0.73246 0.11637 0.07044 0.0
C288 C 0.59456 0.07787 0.89219 0.0
N289 N 0.63574 0.08558 0.88088 0.0
N290 N 0.64536 0.06115 0.91418 0.0
C291 C 0.60936 0.03574 0.94695 0.0
C292 C 0.57649 0.04631 0.93481 0.0
C293 C 0.57163 0.0978 0.85997 0.0
H294 H 0.58094 0.10141 0.81417 0.0
H295 H 0.58217 0.13112 0.87792 0.0
H296 H 0.53503 0.07725 0.86398 0.0
O297 O 0.68871 0.07633 0.77887 0.0
O298 O 0.69251 0.02539 0.83378 0.0
H299 H 0.62663 0.98668 0.97155 0.0
H300 H 0.57033 0.97262 0.98897 0.0
C301 C 0.60523 -4e-05 0.98624 0.0
H302 H 0.61575 0.01391 0.02975 0.0
H303 H 0.71964 0.98594 0.94078 0.0
O304 O 0.66205 0.15563 0.7824 0.0
C305 C 0.69176 0.04123 0.78478 0.0
Co306 Co 0.43787 0.12013 0.67412 0.0
Co307 Co 0.35478 0.05632 0.60795 0.0
C308 C 0.38646 0.15046 0.64133 0.0
O309 O 0.42428 0.15735 0.62714 0.0
O310 O 0.35397 0.11235 0.63015 0.0
C311 C 0.52487 0.19196 0.69324 0.0
O312 O 0.52113 0.20199 0.64019 0.0
C313 C 0.3321 0.04982 0.4894 0.0
C314 C 0.27039 0.98548 0.48043 0.0
C315 C 0.30246 0.0209 0.44913 0.0
N316 N 0.31877 0.03208 0.54158 0.0
N317 N 0.28143 0.99386 0.53623 0.0
C318 C 0.37297 0.09369 0.47924 0.0
H319 H 0.40273 0.09013 0.4846 0.0
H320 H 0.37293 0.10634 0.43571 0.0
H321 H 0.37515 0.11801 0.51168 0.0
C322 C 0.4789 0.07563 0.61185 0.0
N323 N 0.44546 0.08315 0.62449 0.0
N324 N 0.40983 0.05571 0.59544 0.0
C325 C 0.41925 0.02847 0.56467 0.0
C326 C 0.46359 0.04094 0.57317 0.0
C327 C 0.52413 0.09979 0.63813 0.0
H328 H 0.52164 0.10537 0.68431 0.0
H329 H 0.5433 0.13241 0.61689 0.0
H330 H 0.54214 0.08119 0.6325 0.0
O331 O 0.38661 0.08209 0.72687 0.0
O332 O 0.33028 0.02564 0.68065 0.0
H333 H 0.39724 0.96528 0.52306 0.0
H334 H 0.37989 0.00071 0.48991 0.0
C335 C 0.38569 0.98929 0.53135 0.0
H336 H 0.35372 0.97275 0.5548 0.0
H337 H 0.26463 0.97265 0.57021 0.0
O338 O 0.49255 0.15839 0.71658 0.0
C339 C 0.34827 0.04678 0.72697 0.0
Co340 Co 0.87551 0.31175 0.669 0.0
Co341 Co 0.93516 0.2852 0.60445 0.0
C342 C 0.84136 0.2277 0.63825 0.0
O343 O 0.83683 0.26009 0.62401 0.0
O344 O 0.87788 0.23009 0.62557 0.0
C345 C 0.80671 0.33228 0.68329 0.0
O346 O 0.79792 0.31956 0.62966 0.0
C347 C 0.94843 0.26791 0.48886 0.0
C348 C 0.01529 0.27561 0.49048 0.0
C349 C 0.98199 0.27132 0.45369 0.0
N350 N 0.96163 0.27095 0.54342 0.0
N351 N 0.00103 0.27405 0.54439 0.0
C352 C 0.90786 0.26952 0.47112 0.0
H353 H 0.89216 0.2759 0.50843 0.0
H354 H 0.91626 0.29542 0.43813 0.0
H355 H 0.88356 0.23711 0.45207 0.0
C356 C 0.92304 0.39478 0.60272 0.0
N357 N 0.91352 0.35348 0.61714 0.0
N358 N 0.93817 0.34192 0.58726 0.0
C359 C 0.96509 0.37657 0.55324 0.0
C360 C 0.95573 0.41075 0.56141 0.0
C361 C 0.90318 0.41967 0.63018 0.0
H362 H 0.89601 0.41048 0.67585 0.0
H363 H 0.87182 0.41101 0.60778 0.0
H364 H 0.9257 0.45606 0.62668 0.0
O365 O 0.91256 0.30005 0.72481 0.0
O366 O 0.96474 0.29232 0.6785 0.0
H367 H 0.01603 0.36057 0.53539 0.0
H368 H 0.02572 0.41225 0.50431 0.0
C369 C 9e-05 0.37777 0.51489 0.0
H370 H 0.98456 0.36073 0.47422 0.0
H371 H 0.0198 0.2792 0.5814 0.0
O372 O 0.83868 0.33143 0.70844 0.0
C373 C 0.94643 0.29467 0.72474 0.0
Co374 Co 0.6724 0.57123 0.65523 0.0
Co375 Co 0.70413 0.65745 0.58834 0.0
C376 C 0.76289 0.62413 0.64035 0.0
O377 O 0.73181 0.58433 0.63788 0.0
O378 O 0.75621 0.65516 0.6239 0.0
C379 C 0.66252 0.4939 0.71638 0.0
O380 O 0.70575 0.51517 0.7234 0.0
C381 C 0.73043 0.68143 0.47276 0.0
C382 C 0.73006 0.74399 0.46022 0.0
C383 C 0.73354 0.71103 0.431 0.0
N384 N 0.72452 0.69554 0.52367 0.0
N385 N 0.72527 0.73355 0.5163 0.0
C386 C 0.73056 0.63878 0.4645 0.0
H387 H 0.74503 0.63175 0.50263 0.0
H388 H 0.69602 0.61106 0.45959 0.0
H389 H 0.74957 0.6403 0.42565 0.0
C390 C 0.60336 0.53383 0.56794 0.0
N391 N 0.64188 0.56666 0.5887 0.0
N392 N 0.65201 0.60401 0.56322 0.0
C393 C 0.61842 0.59642 0.52723 0.0
C394 C 0.58683 0.55134 0.5284 0.0
C395 C 0.5804 0.48754 0.59045 0.0
H396 H 0.60387 0.47482 0.58791 0.0
H397 H 0.55006 0.46522 0.56578 0.0
H398 H 0.57116 0.48772 0.63577 0.0
O399 O 0.67352 0.61961 0.70564 0.0
O400 O 0.68738 0.67974 0.6546 0.0
H401 H 0.62937 0.66285 0.52394 0.0
H402 H 0.57926 0.62166 0.48768 0.0
C403 C 0.6144 0.63228 0.4974 0.0
H404 H 0.63277 0.6401 0.45652 0.0
H405 H 0.71937 0.75064 0.54867 0.0
O406 O 0.64354 0.51292 0.69263 0.0
C407 C 0.67827 0.65863 0.70189 0.0
C408 C 0.9639 0.25123 0.79479 0.0
C409 C 0.96342 0.29028 0.78046 0.0
C410 C 0.97209 0.24344 0.85137 0.0
C411 C 0.98103 0.27496 0.89464 0.0
H412 H 0.95564 0.22567 0.76285 0.0
H413 H 0.9705 0.21231 0.86157 0.0
S414 S 0.98407 0.3826 0.87766 0.0
N415 N 0.97276 0.36055 0.81309 0.0
N416 N 0.9892 0.34676 0.91849 0.0
C417 C 0.98194 0.31463 0.87994 0.0
C418 C 0.97288 0.32209 0.82299 0.0
C419 C 0.72481 0.74231 0.82191 0.0
C420 C 0.696 0.71946 0.86734 0.0
C421 C 0.71648 0.72414 0.76656 0.0
C422 C 0.6799 0.68182 0.75542 0.0
H423 H 0.75493 0.77356 0.82973 0.0
H424 H 0.74063 0.74183 0.73335 0.0
S425 S 0.59282 0.60961 0.85823 0.0
N426 N 0.62747 0.65359 0.89597 0.0
N427 N 0.61316 0.61894 0.79278 0.0
C428 C 0.64983 0.65959 0.79967 0.0
C429 C 0.65757 0.67852 0.85551 0.0
C430 C 0.33918 0.06384 0.8279 0.0
C431 C 0.32342 0.03363 0.78181 0.0
C432 C 0.31691 0.05383 0.88014 0.0
C433 C 0.27796 0.01306 0.889 0.0
H434 H 0.36916 0.09579 0.82393 0.0
H435 H 0.33129 0.07782 0.91454 0.0
S436 S 0.22028 0.92366 0.78166 0.0
N437 N 0.26462 0.96191 0.74784 0.0
N438 N 0.22262 0.94334 0.84668 0.0
C439 C 0.26086 0.98294 0.84318 0.0
C440 C 0.28357 0.99317 0.78947 0.0
C441 C 0.74732 0.01341 0.66621 0.0
C442 C 0.71507 0.99817 0.62267 0.0
C443 C 0.73832 0.02398 0.72078 0.0
C444 C 0.69722 0.02071 0.73286 0.0
H445 H 0.78022 0.01882 0.65735 0.0
H446 H 0.76453 0.03734 0.75253 0.0
S447 S 0.60132 0.98203 0.63521 0.0
N448 N 0.63961 0.97905 0.59701 0.0
N449 N 0.62378 0.00026 0.69873 0.0
C450 C 0.66436 0.00435 0.69068 0.0
C451 C 0.67301 0.99271 0.6357 0.0
C452 C 0.00756 0.73383 0.65893 0.0
C453 C 0.01865 0.71326 0.6153 0.0
C454 C 0.99739 0.71582 0.7142 0.0
C455 C 0.99692 0.6761 0.72695 0.0
H456 H 0.00455 0.7627 0.6495 0.0
H457 H 0.98644 0.7311 0.74578 0.0
S458 S 0.02591 0.61054 0.62965 0.0
N459 N 0.03135 0.65238 0.59041 0.0
N460 N 0.01076 0.61818 0.69358 0.0
C461 C 0.01002 0.65645 0.68483 0.0
C462 C 0.02129 0.67515 0.62906 0.0
C463 C 0.32498 0.32388 0.63957 0.0
C464 C 0.2829 0.2874 0.62716 0.0
C465 C 0.34401 0.32967 0.69391 0.0
C466 C 0.32137 0.29966 0.73827 0.0
H467 H 0.34452 0.3469 0.60632 0.0
H468 H 0.37731 0.35715 0.70079 0.0
S469 S 0.21014 0.19908 0.72845 0.0
N470 N 0.21906 0.2209 0.66374 0.0
N471 N 0.25438 0.23249 0.76682 0.0
C472 C 0.27865 0.26385 0.72722 0.0
C473 C 0.2596 0.25745 0.67134 0.0
C474 C 0.97451 0.6457 0.19205 0.0
C475 C 0.99412 0.68209 0.22932 0.0
C476 C 0.96542 0.65098 0.1352 0.0
C477 C 0.97658 0.69307 0.11335 0.0
H478 H 0.96838 0.61344 0.20608 0.0
H479 H 0.95265 0.6223 0.10759 0.0
S480 S 0.02783 0.79865 0.19507 0.0
N481 N 0.0231 0.76111 0.24205 0.0
N482 N 0.00685 0.77141 0.13466 0.0
C483 C 0.9947 0.7294 0.15114 0.0
C484 C 0.00325 0.72382 0.20931 0.0
C485 C 0.35276 0.3294 0.20676 0.0
C486 C 0.31901 0.30527 0.24654 0.0
C487 C 0.34909 0.31492 0.1501 0.0
C488 C 0.31101 0.27629 0.13079 0.0
H489 H 0.38107 0.36102 0.21875 0.0
H490 H 0.37489 0.336 0.12056 0.0
S491 S 0.21403 0.20049 0.21896 0.0
N492 N 0.24734 0.23983 0.2639 0.0
N493 N 0.23985 0.21313 0.15669 0.0
C494 C 0.27784 0.25092 0.17078 0.0
C495 C 0.28204 0.2652 0.2289 0.0
C496 C 0.66849 0.02543 0.20338 0.0
C497 C 0.69393 0.01612 0.24148 0.0
C498 C 0.68008 0.03385 0.14563 0.0
C499 C 0.71691 0.03219 0.1238 0.0
H500 H 0.63811 0.02385 0.21772 0.0
H501 H 0.65814 0.03854 0.1174 0.0
S502 S 0.79511 0.01084 0.20661 0.0
N503 N 0.75878 0.0079 0.25439 0.0
N504 N 0.77987 0.0225 0.14513 0.0
C505 C 0.74362 0.02468 0.16192 0.0
C506 C 0.73237 0.01709 0.22106 0.0
C507 C 0.27301 0.00328 0.29142 0.0
C508 C 0.31113 0.00581 0.26709 0.0
C509 C 0.27116 0.01042 0.35028 0.0
C510 C 0.30771 0.02132 0.38619 0.0
H511 H 0.24342 0.99247 0.26575 0.0
H512 H 0.24037 0.00564 0.36822 0.0
S513 S 0.41612 0.03452 0.34143 0.0
N514 N 0.3866 0.02164 0.282 0.0
N515 N 0.38382 0.03613 0.39187 0.0
C516 C 0.34687 0.0265 0.36131 0.0
C517 C 0.3484 0.01851 0.30185 0.0
C518 C 0.02597 0.32759 0.3804 0.0
C519 C 0.98905 0.28633 0.3937 0.0
C520 C 0.03311 0.34432 0.32483 0.0
C521 C 0.00388 0.32024 0.27982 0.0
H522 H 0.04946 0.34743 0.41343 0.0
H523 H 0.06263 0.37604 0.3171 0.0
S524 S 0.90143 0.21031 0.29332 0.0
N525 N 0.92227 0.22186 0.35865 0.0
N526 N 0.93563 0.25289 0.25334 0.0
C527 C 0.96623 0.27902 0.29292 0.0
C528 C 0.95886 0.26217 0.35001 0.0
C529 C 0.6787 0.65541 0.29157 0.0
C530 C 0.69924 0.6901 0.25205 0.0
C531 C 0.69244 0.66145 0.34872 0.0
C532 C 0.7266 0.70276 0.36868 0.0
H533 H 0.65001 0.62427 0.27901 0.0
H534 H 0.67367 0.63445 0.37797 0.0
S535 S 0.79199 0.80361 0.28121 0.0
N536 N 0.75673 0.76641 0.23549 0.0
N537 N 0.78199 0.77818 0.3436 0.0
C538 C 0.74869 0.7371 0.3289 0.0
C539 C 0.73524 0.73064 0.27034 0.0
C540 C 0.95548 0.48408 0.01401 0.0
C541 C 0.97381 0.51041 0.96517 0.0
C542 C 0.97243 0.45774 0.03527 0.0
C543 C 0.00811 0.45692 0.00817 0.0
H544 H 0.92765 0.48357 0.03551 0.0
H545 H 0.95783 0.43822 0.07342 0.0
S546 S 0.06619 0.51871 0.87751 0.0
N547 N 0.02847 0.5334 0.8895 0.0
N548 N 0.06036 0.48391 0.92923 0.0
C549 C 0.02653 0.48309 0.95922 0.0
C550 C 0.00926 0.50978 0.93764 0.0
C551 C 0.50208 0.53586 0.97466 0.0
C552 C 0.5382 0.54832 0.01197 0.0
C553 C 0.47638 0.49189 0.95531 0.0
C554 C 0.48607 0.459 0.97261 0.0
H555 H 0.49353 0.56033 0.9606 0.0
H556 H 0.44921 0.48369 0.92601 0.0
S557 S 0.57641 0.47405 0.07029 0.0
N558 N 0.58149 0.52382 0.06646 0.0
N559 N 0.53408 0.44154 0.02859 0.0
C560 C 0.52219 0.47101 0.00946 0.0
C561 C 0.54808 0.51562 0.02954 0.0
C562 C 0.52038 0.05326 0.99382 0.0
C563 C 0.53122 0.02714 0.95879 0.0
C564 C 0.47734 0.03625 0.01595 0.0
C565 C 0.44362 0.99287 0.00282 0.0
H566 H 0.54557 0.08682 0.00483 0.0
H567 H 0.47077 0.0567 0.04475 0.0
S568 S 0.45429 0.91256 0.90933 0.0
N569 N 0.50441 0.95687 0.90949 0.0
N570 N 0.42347 0.92496 0.95065 0.0
C571 C 0.45383 0.96699 0.9665 0.0
C572 C 0.49765 0.98414 0.94448 0.0
C573 C 0.51152 0.96588 0.54246 0.0
C574 C 0.54452 0.99022 0.50155 0.0
C575 C 0.48465 0.98192 0.5648 0.0
C576 C 0.48982 0.02273 0.54673 0.0
H577 H 0.50661 0.93432 0.55755 0.0
H578 H 0.46005 0.96258 0.59683 0.0
S579 S 0.56902 0.09779 0.43815 0.0
N580 N 0.57885 0.05602 0.44169 0.0
N581 N 0.52925 0.08661 0.48493 0.0
C582 C 0.52234 0.0472 0.50573 0.0
C583 C 0.54946 0.03082 0.48275 0.0
C584 C 0.96655 0.50731 0.47335 0.0
C585 C 0.01123 0.53995 0.48139 0.0
C586 C 0.94899 0.4654 0.49911 0.0
C587 C 0.97561 0.4547 0.53329 0.0
H588 H 0.94526 0.51397 0.44632 0.0
H589 H 0.91441 0.44104 0.49197 0.0
S590 S 0.09342 0.5299 0.57149 0.0
N591 N 0.08095 0.5597 0.52842 0.0
N592 N 0.04782 0.48102 0.57702 0.0
C593 C 0.01998 0.48736 0.54265 0.0
C594 C 0.03782 0.52996 0.51654 0.0
C595 C 0.52709 0.49392 0.46672 0.0
C596 C 0.54054 0.52822 0.50722 0.0
C597 C 0.48202 0.46623 0.45328 0.0
C598 C 0.44901 0.47174 0.48037 0.0
H599 H 0.55154 0.48791 0.44629 0.0
H600 H 0.47294 0.44057 0.42126 0.0
S601 S 0.46691 0.55582 0.59036 0.0
N602 N 0.51736 0.56558 0.57497 0.0
N603 N 0.43269 0.51381 0.5493 0.0
C604 C 0.46208 0.506 0.52064 0.0
C605 C 0.50787 0.53419 0.53422 0.0
C606 C 0.15481 0.56393 0.19634 0.0
C607 C 0.17564 0.54446 0.22653 0.0
C608 C 0.15496 0.60154 0.2166 0.0
C609 C 0.17567 0.6212 0.26846 0.0
H610 H 0.13585 0.54861 0.15833 0.0
H611 H 0.13594 0.61337 0.19332 0.0
S612 S 0.24397 0.58962 0.35735 0.0
N613 N 0.22451 0.55226 0.30554 0.0
N614 N 0.22446 0.62348 0.34482 0.0
C615 C 0.20114 0.60542 0.296 0.0
C616 C 0.20117 0.56682 0.27478 0.0
C617 C 0.45655 0.57763 0.23997 0.0
C618 C 0.45724 0.61766 0.22914 0.0
C619 C 0.41752 0.5392 0.25256 0.0
C620 C 0.3773 0.53909 0.25903 0.0
H621 H 0.48634 0.57518 0.23748 0.0
H622 H 0.41968 0.50947 0.25881 0.0
S623 S 0.36071 0.6355 0.23756 0.0
N624 N 0.41407 0.65526 0.22489 0.0
N625 N 0.34013 0.58259 0.25396 0.0
C626 C 0.37711 0.57894 0.24952 0.0
C627 C 0.41722 0.61834 0.23387 0.0
C628 C 0.3887 0.80905 0.22425 0.0
C629 C 0.37954 0.84336 0.23602 0.0
C630 C 0.42828 0.81177 0.24336 0.0
C631 C 0.46004 0.84929 0.27361 0.0
H632 H 0.36623 0.78097 0.19813 0.0
H633 H 0.43478 0.78527 0.23244 0.0
S634 S 0.44886 0.94545 0.32126 0.0
N635 N 0.40254 0.9129 0.28651 0.0
N636 N 0.47798 0.92001 0.31763 0.0
C637 C 0.45013 0.88281 0.28757 0.0
C638 C 0.40949 0.87923 0.27017 0.0
C639 C 0.79441 0.39607 0.67622 0.0
C640 C 0.79071 0.36031 0.70836 0.0
C641 C 0.79907 0.43392 0.7036 0.0
C642 C 0.79796 0.43595 0.76349 0.0
H643 H 0.79903 0.3971 0.63036 0.0
H644 H 0.80711 0.46299 0.67814 0.0
S645 S 0.77513 0.34524 0.86482 0.0
N646 N 0.77735 0.32534 0.8015 0.0
N647 N 0.78271 0.3954 0.85302 0.0
C648 C 0.78684 0.39754 0.79519 0.0
C649 C 0.78391 0.35973 0.76746 0.0
C650 C 0.56417 0.37941 0.72379 0.0
C651 C 0.56619 0.36698 0.78022 0.0
C652 C 0.59784 0.41914 0.70178 0.0
C653 C 0.63487 0.44765 0.73503 0.0
H654 H 0.53459 0.36032 0.69813 0.0
H655 H 0.59342 0.42864 0.65958 0.0
S656 S 0.66209 0.42406 0.87902 0.0
N657 N 0.61251 0.38135 0.8647 0.0
N658 N 0.67644 0.45655 0.82227 0.0
C659 C 0.64051 0.43265 0.78827 0.0
C660 C 0.60591 0.39195 0.81113 0.0
C661 C 0.60645 0.21173 0.80868 0.0
C662 C 0.63934 0.20877 0.77748 0.0
C663 C 0.57106 0.21178 0.78043 0.0
C664 C 0.56864 0.21045 0.72045 0.0
H665 H 0.60511 0.20869 0.85481 0.0
H666 H 0.54348 0.20865 0.80558 0.0
S667 S 0.6545 0.21718 0.6206 0.0
N668 N 0.67275 0.21414 0.68469 0.0
N669 N 0.60756 0.21722 0.63124 0.0
C670 C 0.60531 0.2153 0.68923 0.0
C671 C 0.6405 0.21365 0.71798 0.0
C672 C 0.15299 0.32138 0.28979 0.0
C673 C 0.19952 0.34597 0.28867 0.0
C674 C 0.12808 0.31861 0.24074 0.0
C675 C 0.14907 0.34041 0.18939 0.0
H676 H 0.13584 0.30691 0.32947 0.0
H677 H 0.09234 0.30282 0.24473 0.0
S678 S 0.26991 0.40263 0.16231 0.0
N679 N 0.26534 0.38746 0.2299 0.0
N680 N 0.21859 0.38242 0.13891 0.0
C681 C 0.19534 0.36156 0.18671 0.0
C682 C 0.22054 0.36435 0.23611 0.0
C683 C 0.67853 0.86876 0.25653 0.0
C684 C 0.65483 0.84822 0.30695 0.0
C685 C 0.67472 0.84359 0.20725 0.0
C686 C 0.64677 0.7973 0.20705 0.0
H687 H 0.69692 0.90464 0.25347 0.0
H688 H 0.6914 0.86059 0.16838 0.0
S689 S 0.58467 0.72756 0.33153 0.0
N690 N 0.60761 0.77899 0.35567 0.0
N691 N 0.60079 0.7317 0.26439 0.0
C692 C 0.62637 0.77642 0.25891 0.0
C693 C 0.63033 0.80188 0.30856 0.0
C694 C 0.18329 0.79308 0.19349 0.0
C695 C 0.19075 0.83636 0.18591 0.0
C696 C 0.16417 0.76931 0.24348 0.0
C697 C 0.15079 0.7873 0.28806 0.0
H698 H 0.19519 0.77851 0.16211 0.0
H699 H 0.1605 0.73661 0.24737 0.0
S700 S 0.15601 0.8963 0.28621 0.0
N701 N 0.17885 0.89459 0.22502 0.0
N702 N 0.14094 0.84859 0.31841 0.0
C703 C 0.15417 0.82881 0.27913 0.0
C704 C 0.17445 0.85358 0.22817 0.0
C705 C 0.83168 0.59781 0.7375 0.0
C706 C 0.84001 0.62673 0.78403 0.0
C707 C 0.81168 0.60101 0.68736 0.0
C708 C 0.79882 0.63317 0.68149 0.0
H709 H 0.83951 0.57144 0.74026 0.0
H710 H 0.80326 0.576 0.65454 0.0
S711 S 0.81873 0.72086 0.78769 0.0
N712 N 0.83889 0.69194 0.81857 0.0
N713 N 0.79998 0.69764 0.72449 0.0
C714 C 0.81028 0.66477 0.72575 0.0
C715 C 0.83111 0.66157 0.77703 0.0
C716 C 0.42388 0.20318 0.7222 0.0
C717 C 0.38403 0.17228 0.69531 0.0
C718 C 0.42449 0.21894 0.77725 0.0
C719 C 0.38511 0.20652 0.80782 0.0
H720 H 0.45548 0.21485 0.70118 0.0
H721 H 0.45654 0.24215 0.7952 0.0
S722 S 0.27115 0.12751 0.75686 0.0
N723 N 0.30353 0.12956 0.70394 0.0
N724 N 0.30459 0.16146 0.80669 0.0
C725 C 0.34468 0.17619 0.7814 0.0
C726 C 0.34413 0.15893 0.72539 0.0
C727 C 0.79216 0.21766 0.72131 0.0
C728 C 0.81994 0.20514 0.69297 0.0
C729 C 0.77678 0.20326 0.7766 0.0
C730 C 0.78635 0.17364 0.80583 0.0
H731 H 0.78266 0.23969 0.70122 0.0
H732 H 0.75608 0.21481 0.79585 0.0
S733 S 0.85731 0.12983 0.75116 0.0
N734 N 0.85711 0.16167 0.699 0.0
N735 N 0.82603 0.13253 0.80229 0.0
C736 C 0.8139 0.16041 0.77816 0.0
C737 C 0.83075 0.1762 0.72191 0.0
loop_
_geom_bond_atom_site_label_1
_geom_bond_atom_site_label_2
_geom_bond_distance
_geom_bond_site_symmetry_2
_ccdc_geom_bond_type
Co0 O3 1.970 . S
Co0 N17 1.989 . S
Co0 O25 1.967 . S
Co0 O32 1.920 . S
Co1 O4 1.966 . S
Co1 N10 2.022 . S
Co1 N18 1.993 . S
Co1 O26 1.941 . S
C2 O3 1.258 . S
C2 O4 1.263 . S
O3 Co0 1.970 . S
O3 C2 1.258 . S
O4 Co1 1.966 . S
O4 C2 1.263 . S
C5 O6 1.235 . S
C5 O32 1.289 . S
O6 C5 1.235 . S
C7 C9 1.400 . S
C7 N10 1.351 1_556 S
C7 C12 1.501 . S
C8 C9 1.387 1_655 S
C8 N11 1.349 . S
C9 C7 1.400 . S
C9 C8 1.387 1_455 S
N10 Co1 2.022 . S
N10 C7 1.351 1_554 S
N10 N11 1.362 1_454 S
N11 C8 1.349 . S
N11 N10 1.362 1_656 S
N11 H31 0.857 1_556 S
C12 C7 1.501 . S
C12 H13 0.961 1_556 S
C12 H14 0.961 . S
C12 H15 0.960 . S
H13 C12 0.961 1_554 S
H14 C12 0.961 . S
H15 C12 0.960 . S
C16 N17 1.342 . S
C16 C20 1.401 . S
C16 C21 1.499 . S
N17 Co0 1.989 . S
N17 C16 1.342 . S
N17 N18 1.388 . S
N18 Co1 1.993 . S
N18 N17 1.388 . S
N18 C19 1.346 . S
C19 N18 1.346 . S
C19 C20 1.396 . S
C19 C29 1.510 1_554 S
C20 C16 1.401 . S
C20 C19 1.396 . S
C21 C16 1.499 . S
C21 H22 0.959 . S
C21 H23 0.960 . S
C21 H24 0.961 . S
H22 C21 0.959 . S
H23 C21 0.960 . S
H24 C21 0.961 . S
O25 Co0 1.967 . S
O25 C33 1.258 . S
O26 Co1 1.941 . S
O26 C33 1.266 . S
H27 C29 0.959 1_655 S
H28 C29 0.961 . S
C29 C19 1.510 1_556 S
C29 H27 0.959 1_455 S
C29 H28 0.961 . S
C29 H30 0.960 . S
H30 C29 0.960 . S
H31 N11 0.857 1_554 S
O32 Co0 1.920 . S
O32 C5 1.289 . S
C33 O25 1.258 . S
C33 O26 1.266 . S
Co34 O37 1.970 . S
Co34 N51 1.989 . S
Co34 O59 1.967 . S
Co34 O66 1.920 . S
Co35 O38 1.966 . S
Co35 N44 2.022 . S
Co35 N52 1.993 . S
Co35 O60 1.941 . S
C36 O37 1.258 . S
C36 O38 1.263 . S
O37 Co34 1.970 . S
O37 C36 1.258 . S
O38 Co35 1.966 . S
O38 C36 1.263 . S
C39 O40 1.235 . S
C39 O66 1.289 . S
O40 C39 1.235 . S
C41 C43 1.400 . S
C41 N44 1.351 1_556 S
C41 C46 1.501 . S
C42 C43 1.387 . S
C42 N45 1.349 . S
C43 C41 1.400 . S
C43 C42 1.387 . S
N44 Co35 2.022 . S
N44 C41 1.351 1_554 S
N44 N45 1.362 1_554 S
N45 C42 1.349 . S
N45 N44 1.362 1_556 S
N45 H65 0.858 1_556 S
C46 C41 1.501 . S
C46 H47 0.961 1_556 S
C46 H48 0.961 . S
C46 H49 0.960 . S
H47 C46 0.961 1_554 S
H48 C46 0.961 . S
H49 C46 0.960 . S
C50 N51 1.342 . S
C50 C54 1.401 . S
C50 C55 1.499 . S
N51 Co34 1.989 . S
N51 C50 1.342 . S
N51 N52 1.388 . S
N52 Co35 1.993 . S
N52 N51 1.388 . S
N52 C53 1.346 . S
C53 N52 1.346 . S
C53 C54 1.396 . S
C53 C63 1.510 1_554 S
C54 C50 1.401 . S
C54 C53 1.396 . S
C55 C50 1.499 . S
C55 H56 0.959 . S
C55 H57 0.960 . S
C55 H58 0.961 . S
H56 C55 0.959 . S
H57 C55 0.960 . S
H58 C55 0.961 . S
O59 Co34 1.967 . S
O59 C67 1.258 . S
O60 Co35 1.941 . S
O60 C67 1.266 . S
H61 C63 0.959 . S
H62 C63 0.961 . S
C63 C53 1.510 1_556 S
C63 H61 0.959 . S
C63 H62 0.961 . S
C63 H64 0.960 . S
H64 C63 0.960 . S
H65 N45 0.858 1_554 S
O66 Co34 1.920 . S
O66 C39 1.289 . S
C67 O59 1.258 . S
C67 O60 1.266 . S
Co68 O71 1.970 . S
Co68 N85 1.989 . S
Co68 O93 1.967 . S
Co68 O100 1.920 . S
Co69 O72 1.966 . S
Co69 N78 2.022 . S
Co69 N86 1.993 . S
Co69 O94 1.941 . S
C70 O71 1.258 . S
C70 O72 1.263 . S
O71 Co68 1.970 . S
O71 C70 1.258 . S
O72 Co69 1.966 . S
O72 C70 1.263 . S
C73 O74 1.235 . S
C73 O100 1.289 . S
O74 C73 1.235 . S
C75 C77 1.400 . S
C75 N78 1.351 1_556 S
C75 C80 1.501 . S
C76 C77 1.387 1_545 S
C76 N79 1.349 . S
C77 C75 1.400 . S
C77 C76 1.387 1_565 S
N78 Co69 2.022 . S
N78 C75 1.351 1_554 S
N78 N79 1.362 1_564 S
N79 C76 1.349 . S
N79 N78 1.362 1_546 S
N79 H99 0.857 1_556 S
C80 C75 1.501 . S
C80 H81 0.961 1_556 S
C80 H82 0.961 . S
C80 H83 0.960 . S
H81 C80 0.961 1_554 S
H82 C80 0.961 . S
H83 C80 0.960 . S
C84 N85 1.342 . S
C84 C88 1.401 . S
C84 C89 1.499 . S
N85 Co68 1.989 . S
N85 C84 1.342 . S
N85 N86 1.388 . S
N86 Co69 1.993 . S
N86 N85 1.388 . S
N86 C87 1.346 . S
C87 N86 1.346 . S
C87 C88 1.396 . S
C87 C97 1.510 1_554 S
C88 C84 1.401 . S
C88 C87 1.396 . S
C89 C84 1.499 . S
C89 H90 0.959 . S
C89 H91 0.960 . S
C89 H92 0.961 . S
H90 C89 0.959 . S
H91 C89 0.960 . S
H92 C89 0.961 . S
O93 Co68 1.967 . S
O93 C101 1.258 . S
O94 Co69 1.941 . S
O94 C101 1.266 . S
H95 C97 0.959 1_545 S
H96 C97 0.961 . S
C97 C87 1.510 1_556 S
C97 H95 0.959 1_565 S
C97 H96 0.961 . S
C97 H98 0.960 . S
H98 C97 0.960 . S
H99 N79 0.857 1_554 S
O100 Co68 1.920 . S
O100 C73 1.289 . S
C101 O93 1.258 . S
C101 O94 1.266 . S
Co102 O105 1.970 . S
Co102 N119 1.989 . S
Co102 O127 1.967 . S
Co102 O134 1.920 . S
Co103 O106 1.966 . S
Co103 N112 2.022 . S
Co103 N120 1.993 . S
Co103 O128 1.941 . S
C104 O105 1.258 . S
C104 O106 1.263 . S
O105 Co102 1.970 . S
O105 C104 1.258 . S
O106 Co103 1.966 . S
O106 C104 1.263 . S
C107 O108 1.235 . S
C107 O134 1.289 . S
O108 C107 1.235 . S
C109 C111 1.400 . S
C109 N112 1.351 . S
C109 C114 1.501 . S
C110 C111 1.387 1_545 S
C110 N113 1.341 . S
C111 C109 1.400 . S
C111 C110 1.387 1_565 S
N112 Co103 2.022 . S
N112 C109 1.351 . S
N112 N113 1.365 1_565 S
N113 C110 1.341 . S
N113 N112 1.365 1_545 S
N113 H133 0.862 . S
C114 C109 1.501 . S
C114 H115 0.961 . S
C114 H116 0.961 . S
C114 H117 0.960 . S
H115 C114 0.961 . S
H116 C114 0.961 . S
H117 C114 0.960 . S
C118 N119 1.342 . S
C118 C122 1.401 . S
C118 C123 1.499 . S
N119 Co102 1.989 . S
N119 C118 1.342 . S
N119 N120 1.388 . S
N120 Co103 1.993 . S
N120 N119 1.388 . S
N120 C121 1.346 . S
C121 N120 1.346 . S
C121 C122 1.396 . S
C121 C131 1.510 . S
C122 C118 1.401 . S
C122 C121 1.396 . S
C123 C118 1.499 . S
C123 H124 0.959 . S
C123 H125 0.960 . S
C123 H126 0.961 . S
H124 C123 0.959 . S
H125 C123 0.960 . S
H126 C123 0.961 . S
O127 Co102 1.967 . S
O127 C135 1.258 . S
O128 Co103 1.941 . S
O128 C135 1.266 . S
H129 C131 0.959 1_545 S
H130 C131 0.961 . S
C131 C121 1.510 . S
C131 H129 0.959 1_565 S
C131 H130 0.961 . S
C131 H132 0.960 . S
H132 C131 0.960 . S
H133 N113 0.862 . S
O134 Co102 1.920 . S
O134 C107 1.289 . S
C135 O127 1.258 . S
C135 O128 1.266 . S
Co136 O139 1.970 . S
Co136 N153 1.989 . S
Co136 O161 1.967 . S
Co136 O168 1.920 . S
Co137 O140 1.966 . S
Co137 N146 2.022 . S
Co137 N154 1.993 . S
Co137 O162 1.941 . S
C138 O139 1.258 . S
C138 O140 1.263 . S
O139 Co136 1.970 . S
O139 C138 1.258 . S
O140 Co137 1.966 . S
O140 C138 1.263 . S
C141 O142 1.235 . S
C141 O168 1.289 . S
O142 C141 1.235 . S
C143 C145 1.400 . S
C143 N146 1.351 . S
C143 C148 1.501 . S
C144 C145 1.387 1_655 S
C144 N147 1.341 . S
C145 C143 1.400 . S
C145 C144 1.387 1_455 S
N146 Co137 2.022 . S
N146 C143 1.351 . S
N146 N147 1.365 1_455 S
N147 C144 1.341 . S
N147 N146 1.365 1_655 S
N147 H167 0.862 . S
C148 C143 1.501 . S
C148 H149 0.961 . S
C148 H150 0.961 . S
C148 H151 0.960 . S
H149 C148 0.961 . S
H150 C148 0.961 . S
H151 C148 0.960 . S
C152 N153 1.342 . S
C152 C156 1.401 . S
C152 C157 1.499 . S
N153 Co136 1.989 . S
N153 C152 1.342 . S
N153 N154 1.388 . S
N154 Co137 1.993 . S
N154 N153 1.388 . S
N154 C155 1.346 . S
C155 N154 1.346 . S
C155 C156 1.396 . S
C155 C165 1.510 . S
C156 C152 1.401 . S
C156 C155 1.396 . S
C157 C152 1.499 . S
C157 H158 0.959 . S
C157 H159 0.960 . S
C157 H160 0.961 . S
H158 C157 0.959 . S
H159 C157 0.960 . S
H160 C157 0.961 . S
O161 Co136 1.967 . S
O161 C169 1.258 . S
O162 Co137 1.941 . S
O162 C169 1.266 . S
H163 C165 0.959 1_655 S
H164 C165 0.961 . S
C165 C155 1.510 . S
C165 H163 0.959 1_455 S
C165 H164 0.961 . S
C165 H166 0.960 . S
H166 C165 0.960 . S
H167 N147 0.862 . S
O168 Co136 1.920 . S
O168 C141 1.289 . S
C169 O161 1.258 . S
C169 O162 1.266 . S
Co170 O173 1.970 . S
Co170 N187 1.989 . S
Co170 O195 1.967 . S
Co170 O202 1.920 . S
Co171 O174 1.966 . S
Co171 N180 2.022 . S
Co171 N188 1.993 . S
Co171 O196 1.941 . S
C172 O173 1.258 . S
C172 O174 1.263 . S
O173 Co170 1.970 . S
O173 C172 1.258 . S
O174 Co171 1.966 . S
O174 C172 1.263 . S
C175 O176 1.235 . S
C175 O202 1.289 . S
O176 C175 1.235 . S
C177 C179 1.400 . S
C177 N180 1.351 . S
C177 C182 1.501 . S
C178 C179 1.387 . S
C178 N181 1.341 . S
C179 C177 1.400 . S
C179 C178 1.387 . S
N180 Co171 2.022 . S
N180 C177 1.351 . S
N180 N181 1.365 . S
N181 C178 1.341 . S
N181 N180 1.365 . S
N181 H201 0.862 . S
C182 C177 1.501 . S
C182 H183 0.961 . S
C182 H184 0.961 . S
C182 H185 0.960 . S
H183 C182 0.961 . S
H184 C182 0.961 . S
H185 C182 0.960 . S
C186 N187 1.342 . S
C186 C190 1.401 . S
C186 C191 1.499 . S
N187 Co170 1.989 . S
N187 C186 1.342 . S
N187 N188 1.388 . S
N188 Co171 1.993 . S
N188 N187 1.388 . S
N188 C189 1.346 . S
C189 N188 1.346 . S
C189 C190 1.396 . S
C189 C199 1.510 . S
C190 C186 1.401 . S
C190 C189 1.396 . S
C191 C186 1.499 . S
C191 H192 0.959 . S
C191 H193 0.960 . S
C191 H194 0.961 . S
H192 C191 0.959 . S
H193 C191 0.960 . S
H194 C191 0.961 . S
O195 Co170 1.967 . S
O195 C203 1.258 . S
O196 Co171 1.941 . S
O196 C203 1.266 . S
H197 C199 0.959 . S
H198 C199 0.961 . S
C199 C189 1.510 . S
C199 H197 0.959 . S
C199 H198 0.961 . S
C199 H200 0.960 . S
H200 C199 0.960 . S
H201 N181 0.862 . S
O202 Co170 1.920 . S
O202 C175 1.289 . S
C203 O195 1.258 . S
C203 O196 1.266 . S
Co204 O207 1.970 . S
Co204 N221 1.989 . S
Co204 O229 1.967 . S
Co204 O236 1.920 . S
Co205 O208 1.966 . S
Co205 N214 2.022 . S
Co205 N222 1.993 . S
Co205 O230 1.941 . S
C206 O207 1.258 . S
C206 O208 1.263 . S
O207 Co204 1.970 . S
O207 C206 1.258 . S
O208 Co205 1.966 . S
O208 C206 1.263 . S
C209 O210 1.235 . S
C209 O236 1.289 . S
O210 C209 1.235 . S
C211 C213 1.400 . S
C211 N214 1.351 1_554 S
C211 C216 1.501 . S
C212 C213 1.387 1_455 S
C212 N215 1.349 . S
C213 C211 1.400 . S
C213 C212 1.387 1_655 S
N214 Co205 2.022 . S
N214 C211 1.351 1_556 S
N214 N215 1.362 1_656 S
N215 C212 1.349 . S
N215 N214 1.362 1_454 S
N215 H235 0.857 1_554 S
C216 C211 1.501 . S
C216 H217 0.961 1_554 S
C216 H218 0.961 . S
C216 H219 0.960 . S
H217 C216 0.961 1_556 S
H218 C216 0.961 . S
H219 C216 0.960 . S
C220 N221 1.342 . S
C220 C224 1.401 . S
C220 C225 1.499 . S
N221 Co204 1.989 . S
N221 C220 1.342 . S
N221 N222 1.388 . S
N222 Co205 1.993 . S
N222 N221 1.388 . S
N222 C223 1.346 . S
C223 N222 1.346 . S
C223 C224 1.396 . S
C223 C233 1.510 1_556 S
C224 C220 1.401 . S
C224 C223 1.396 . S
C225 C220 1.499 . S
C225 H226 0.959 . S
C225 H227 0.960 . S
C225 H228 0.961 . S
H226 C225 0.959 . S
H227 C225 0.960 . S
H228 C225 0.961 . S
O229 Co204 1.967 . S
O229 C237 1.258 . S
O230 Co205 1.941 . S
O230 C237 1.266 . S
H231 C233 0.959 1_455 S
H232 C233 0.961 . S
C233 C223 1.510 1_554 S
C233 H231 0.959 1_655 S
C233 H232 0.961 . S
C233 H234 0.960 . S
H234 C233 0.960 . S
H235 N215 0.857 1_556 S
O236 Co204 1.920 . S
O236 C209 1.289 . S
C237 O229 1.258 . S
C237 O230 1.266 . S
Co238 O241 1.970 . S
Co238 N255 1.989 . S
Co238 O263 1.967 . S
Co238 O270 1.920 . S
Co239 O242 1.966 . S
Co239 N248 2.022 . S
Co239 N256 1.993 . S
Co239 O264 1.941 . S
C240 O241 1.258 . S
C240 O242 1.263 . S
O241 Co238 1.970 . S
O241 C240 1.258 . S
O242 Co239 1.966 . S
O242 C240 1.263 . S
C243 O244 1.235 . S
C243 O270 1.289 . S
O244 C243 1.235 . S
C245 C247 1.400 . S
C245 N248 1.351 1_554 S
C245 C250 1.501 . S
C246 C247 1.387 . S
C246 N249 1.349 . S
C247 C245 1.400 . S
C247 C246 1.387 . S
N248 Co239 2.022 . S
N248 C245 1.351 1_556 S
N248 N249 1.362 1_556 S
N249 C246 1.349 . S
N249 N248 1.362 1_554 S
N249 H269 0.858 1_554 S
C250 C245 1.501 . S
C250 H251 0.961 1_554 S
C250 H252 0.961 . S
C250 H253 0.960 . S
H251 C250 0.961 1_556 S
H252 C250 0.961 . S
H253 C250 0.960 . S
C254 N255 1.342 . S
C254 C258 1.401 . S
C254 C259 1.499 . S
N255 Co238 1.989 . S
N255 C254 1.342 . S
N255 N256 1.388 . S
N256 Co239 1.993 . S
N256 N255 1.388 . S
N256 C257 1.346 . S
C257 N256 1.346 . S
C257 C258 1.396 . S
C257 C267 1.510 1_556 S
C258 C254 1.401 . S
C258 C257 1.396 . S
C259 C254 1.499 . S
C259 H260 0.959 . S
C259 H261 0.960 . S
C259 H262 0.961 . S
H260 C259 0.959 . S
H261 C259 0.960 . S
H262 C259 0.961 . S
O263 Co238 1.967 . S
O263 C271 1.258 . S
O264 Co239 1.941 . S
O264 C271 1.266 . S
H265 C267 0.959 . S
H266 C267 0.961 . S
C267 C257 1.510 1_554 S
C267 H265 0.959 . S
C267 H266 0.961 . S
C267 H268 0.960 . S
H268 C267 0.960 . S
H269 N249 0.858 1_556 S
O270 Co238 1.920 . S
O270 C243 1.289 . S
C271 O263 1.258 . S
C271 O264 1.266 . S
Co272 O275 1.970 . S
Co272 N289 1.989 . S
Co272 O297 1.967 . S
Co272 O304 1.920 . S
Co273 O276 1.966 . S
Co273 N282 2.022 . S
Co273 N290 1.993 . S
Co273 O298 1.941 . S
C274 O275 1.258 . S
C274 O276 1.263 . S
O275 Co272 1.970 . S
O275 C274 1.258 . S
O276 Co273 1.966 . S
O276 C274 1.263 . S
C277 O278 1.235 . S
C277 O304 1.289 . S
O278 C277 1.235 . S
C279 C281 1.400 . S
C279 N282 1.351 1_554 S
C279 C284 1.501 . S
C280 C281 1.387 1_565 S
C280 N283 1.349 . S
C281 C279 1.400 . S
C281 C280 1.387 1_545 S
N282 Co273 2.022 . S
N282 C279 1.351 1_556 S
N282 N283 1.362 1_546 S
N283 C280 1.349 . S
N283 N282 1.362 1_564 S
N283 H303 0.857 1_554 S
C284 C279 1.501 . S
C284 H285 0.961 1_554 S
C284 H286 0.961 . S
C284 H287 0.960 . S
H285 C284 0.961 1_556 S
H286 C284 0.961 . S
H287 C284 0.960 . S
C288 N289 1.342 . S
C288 C292 1.401 . S
C288 C293 1.499 . S
N289 Co272 1.989 . S
N289 C288 1.342 . S
N289 N290 1.388 . S
N290 Co273 1.993 . S
N290 N289 1.388 . S
N290 C291 1.346 . S
C291 N290 1.346 . S
C291 C292 1.396 . S
C291 C301 1.510 1_556 S
C292 C288 1.401 . S
C292 C291 1.396 . S
C293 C288 1.499 . S
C293 H294 0.959 . S
C293 H295 0.960 . S
C293 H296 0.961 . S
H294 C293 0.959 . S
H295 C293 0.960 . S
H296 C293 0.961 . S
O297 Co272 1.967 . S
O297 C305 1.258 . S
O298 Co273 1.941 . S
O298 C305 1.266 . S
H299 C301 0.959 1_565 S
H300 C301 0.961 . S
C301 C291 1.510 1_554 S
C301 H299 0.959 1_545 S
C301 H300 0.961 . S
C301 H302 0.960 . S
H302 C301 0.960 . S
H303 N283 0.857 1_556 S
O304 Co272 1.920 . S
O304 C277 1.289 . S
C305 O297 1.258 . S
C305 O298 1.266 . S
Co306 O309 1.970 . S
Co306 N323 1.989 . S
Co306 O331 1.967 . S
Co306 O338 1.920 . S
Co307 O310 1.966 . S
Co307 N316 2.022 . S
Co307 N324 1.993 . S
Co307 O332 1.941 . S
C308 O309 1.258 . S
C308 O310 1.263 . S
O309 Co306 1.970 . S
O309 C308 1.258 . S
O310 Co307 1.966 . S
O310 C308 1.263 . S
C311 O312 1.235 . S
C311 O338 1.289 . S
O312 C311 1.235 . S
C313 C315 1.400 . S
C313 N316 1.351 . S
C313 C318 1.501 . S
C314 C315 1.387 1_565 S
C314 N317 1.341 . S
C315 C313 1.400 . S
C315 C314 1.387 1_545 S
N316 Co307 2.022 . S
N316 C313 1.351 . S
N316 N317 1.365 1_545 S
N317 C314 1.341 . S
N317 N316 1.365 1_565 S
N317 H337 0.862 . S
C318 C313 1.501 . S
C318 H319 0.961 . S
C318 H320 0.961 . S
C318 H321 0.960 . S
H319 C318 0.961 . S
H320 C318 0.961 . S
H321 C318 0.960 . S
C322 N323 1.342 . S
C322 C326 1.401 . S
C322 C327 1.499 . S
N323 Co306 1.989 . S
N323 C322 1.342 . S
N323 N324 1.388 . S
N324 Co307 1.993 . S
N324 N323 1.388 . S
N324 C325 1.346 . S
C325 N324 1.346 . S
C325 C326 1.396 . S
C325 C335 1.510 . S
C326 C322 1.401 . S
C326 C325 1.396 . S
C327 C322 1.499 . S
C327 H328 0.959 . S
C327 H329 0.960 . S
C327 H330 0.961 . S
H328 C327 0.959 . S
H329 C327 0.960 . S
H330 C327 0.961 . S
O331 Co306 1.967 . S
O331 C339 1.258 . S
O332 Co307 1.941 . S
O332 C339 1.266 . S
H333 C335 0.959 1_565 S
H334 C335 0.961 . S
C335 C325 1.510 . S
C335 H333 0.959 1_545 S
C335 H334 0.961 . S
C335 H336 0.960 . S
H336 C335 0.960 . S
H337 N317 0.862 . S
O338 Co306 1.920 . S
O338 C311 1.289 . S
C339 O331 1.258 . S
C339 O332 1.266 . S
Co340 O343 1.970 . S
Co340 N357 1.989 . S
Co340 O365 1.967 . S
Co340 O372 1.920 . S
Co341 O344 1.966 . S
Co341 N350 2.022 . S
Co341 N358 1.993 . S
Co341 O366 1.941 . S
C342 O343 1.258 . S
C342 O344 1.263 . S
O343 Co340 1.970 . S
O343 C342 1.258 . S
O344 Co341 1.966 . S
O344 C342 1.263 . S
C345 O346 1.235 . S
C345 O372 1.289 . S
O346 C345 1.235 . S
C347 C349 1.400 . S
C347 N350 1.351 . S
C347 C352 1.501 . S
C348 C349 1.387 1_455 S
C348 N351 1.341 . S
C349 C347 1.400 . S
C349 C348 1.387 1_655 S
N350 Co341 2.022 . S
N350 C347 1.351 . S
N350 N351 1.365 1_655 S
N351 C348 1.341 . S
N351 N350 1.365 1_455 S
N351 H371 0.862 . S
C352 C347 1.501 . S
C352 H353 0.961 . S
C352 H354 0.961 . S
C352 H355 0.960 . S
H353 C352 0.961 . S
H354 C352 0.961 . S
H355 C352 0.960 . S
C356 N357 1.342 . S
C356 C360 1.401 . S
C356 C361 1.499 . S
N357 Co340 1.989 . S
N357 C356 1.342 . S
N357 N358 1.388 . S
N358 Co341 1.993 . S
N358 N357 1.388 . S
N358 C359 1.346 . S
C359 N358 1.346 . S
C359 C360 1.396 . S
C359 C369 1.510 . S
C360 C356 1.401 . S
C360 C359 1.396 . S
C361 C356 1.499 . S
C361 H362 0.959 . S
C361 H363 0.960 . S
C361 H364 0.961 . S
H362 C361 0.959 . S
H363 C361 0.960 . S
H364 C361 0.961 . S
O365 Co340 1.967 . S
O365 C373 1.258 . S
O366 Co341 1.941 . S
O366 C373 1.266 . S
H367 C369 0.959 1_455 S
H368 C369 0.961 . S
C369 C359 1.510 . S
C369 H367 0.959 1_655 S
C369 H368 0.961 . S
C369 H370 0.960 . S
H370 C369 0.960 . S
H371 N351 0.862 . S
O372 Co340 1.920 . S
O372 C345 1.289 . S
C373 O365 1.258 . S
C373 O366 1.266 . S
Co374 O377 1.970 . S
Co374 N391 1.989 . S
Co374 O399 1.967 . S
Co374 O406 1.920 . S
Co375 O378 1.966 . S
Co375 N384 2.022 . S
Co375 N392 1.993 . S
Co375 O400 1.941 . S
C376 O377 1.258 . S
C376 O378 1.263 . S
O377 Co374 1.970 . S
O377 C376 1.258 . S
O378 Co375 1.966 . S
O378 C376 1.263 . S
C379 O380 1.235 . S
C379 O406 1.289 . S
O380 C379 1.235 . S
C381 C383 1.400 . S
C381 N384 1.351 . S
C381 C386 1.501 . S
C382 C383 1.387 . S
C382 N385 1.341 . S
C383 C381 1.400 . S
C383 C382 1.387 . S
N384 Co375 2.022 . S
N384 C381 1.351 . S
N384 N385 1.365 . S
N385 C382 1.341 . S
N385 N384 1.365 . S
N385 H405 0.862 . S
C386 C381 1.501 . S
C386 H387 0.961 . S
C386 H388 0.961 . S
C386 H389 0.960 . S
H387 C386 0.961 . S
H388 C386 0.961 . S
H389 C386 0.960 . S
C390 N391 1.342 . S
C390 C394 1.401 . S
C390 C395 1.499 . S
N391 Co374 1.989 . S
N391 C390 1.342 . S
N391 N392 1.388 . S
N392 Co375 1.993 . S
N392 N391 1.388 . S
N392 C393 1.346 . S
C393 N392 1.346 . S
C393 C394 1.396 . S
C393 C403 1.510 . S
C394 C390 1.401 . S
C394 C393 1.396 . S
C395 C390 1.499 . S
C395 H396 0.959 . S
C395 H397 0.960 . S
C395 H398 0.961 . S
H396 C395 0.959 . S
H397 C395 0.960 . S
H398 C395 0.961 . S
O399 Co374 1.967 . S
O399 C407 1.258 . S
O400 Co375 1.941 . S
O400 C407 1.266 . S
H401 C403 0.959 . S
H402 C403 0.961 . S
C403 C393 1.510 . S
C403 H401 0.959 . S
C403 H402 0.961 . S
C403 H404 0.960 . S
H404 C403 0.960 . S
H405 N385 0.862 . S
O406 Co374 1.920 . S
O406 C379 1.289 . S
C407 O399 1.258 . S
C407 O400 1.266 . S
C408 C409 1.369 1_655 S
C408 C410 1.419 . S
C408 H412 0.930 . S
C409 C408 1.369 1_455 S
C409 C418 1.429 . S
C410 C408 1.419 . S
C410 C411 1.363 1_655 S
C410 H413 0.929 . S
C411 C410 1.363 1_455 S
C411 C417 1.428 . S
H412 C408 0.930 . S
H413 C410 0.929 . S
S414 N415 1.613 . S
S414 N416 1.610 . S
N415 S414 1.613 . S
N415 C418 1.350 . S
N416 S414 1.610 . S
N416 C417 1.351 . S
C417 C411 1.428 . S
C417 N416 1.351 . S
C417 C418 1.434 . S
C418 C409 1.429 . S
C418 N415 1.350 . S
C418 C417 1.434 . S
C419 C420 1.369 . S
C419 C421 1.419 . S
C419 H423 0.930 . S
C420 C419 1.369 . S
C420 C429 1.429 . S
C421 C419 1.419 . S
C421 C422 1.363 . S
C421 H424 0.929 . S
C422 C421 1.363 . S
C422 C428 1.428 . S
H423 C419 0.930 . S
H424 C421 0.929 . S
S425 N426 1.613 . S
S425 N427 1.610 . S
N426 S425 1.613 . S
N426 C429 1.350 . S
N427 S425 1.610 . S
N427 C428 1.351 . S
C428 C422 1.428 . S
C428 N427 1.351 . S
C428 C429 1.434 . S
C429 C420 1.429 . S
C429 N426 1.350 . S
C429 C428 1.434 . S
C430 C431 1.369 1_545 S
C430 C432 1.419 . S
C430 H434 0.930 . S
C431 C430 1.369 1_565 S
C431 C440 1.429 . S
C432 C430 1.419 . S
C432 C433 1.363 1_545 S
C432 H435 0.929 . S
C433 C432 1.363 1_565 S
C433 C439 1.428 . S
H434 C430 0.930 . S
H435 C432 0.929 . S
S436 N437 1.613 . S
S436 N438 1.610 . S
N437 S436 1.613 . S
N437 C440 1.350 . S
N438 S436 1.610 . S
N438 C439 1.351 . S
C439 C433 1.428 . S
C439 N438 1.351 . S
C439 C440 1.434 . S
C440 C431 1.429 . S
C440 N437 1.350 . S
C440 C439 1.434 . S
C441 C442 1.369 . S
C441 C443 1.419 . S
C441 H445 0.930 . S
C442 C441 1.369 . S
C442 C451 1.429 . S
C443 C441 1.419 . S
C443 C444 1.363 . S
C443 H446 0.928 . S
C444 C443 1.363 . S
C444 C450 1.428 . S
H445 C441 0.930 . S
H446 C443 0.928 . S
S447 N448 1.613 . S
S447 N449 1.610 . S
N448 S447 1.613 . S
N448 C451 1.350 . S
N449 S447 1.610 . S
N449 C450 1.351 . S
C450 C444 1.428 . S
C450 N449 1.351 . S
C450 C451 1.434 . S
C451 C442 1.429 . S
C451 N448 1.350 . S
C451 C450 1.434 . S
C452 C453 1.369 1_655 S
C452 C454 1.419 . S
C452 H456 0.930 . S
C453 C452 1.369 1_455 S
C453 C462 1.429 . S
C454 C452 1.419 . S
C454 C455 1.363 1_655 S
C454 H457 0.929 . S
C455 C454 1.363 1_455 S
C455 C461 1.428 . S
H456 C452 0.930 . S
H457 C454 0.929 . S
S458 N459 1.613 . S
S458 N460 1.610 . S
N459 S458 1.613 . S
N459 C462 1.350 . S
N460 S458 1.610 . S
N460 C461 1.351 . S
C461 C455 1.428 . S
C461 N460 1.351 . S
C461 C462 1.434 . S
C462 C453 1.429 . S
C462 N459 1.350 . S
C462 C461 1.434 . S
C463 C464 1.369 . S
C463 C465 1.419 . S
C463 H467 0.930 . S
C464 C463 1.369 . S
C464 C473 1.429 . S
C465 C463 1.419 . S
C465 C466 1.363 . S
C465 H468 0.929 . S
C466 C465 1.363 . S
C466 C472 1.428 . S
H467 C463 0.930 . S
H468 C465 0.929 . S
S469 N470 1.613 . S
S469 N471 1.610 . S
N470 S469 1.613 . S
N470 C473 1.350 . S
N471 S469 1.610 . S
N471 C472 1.351 . S
C472 C466 1.428 . S
C472 N471 1.351 . S
C472 C473 1.434 . S
C473 C464 1.429 . S
C473 N470 1.350 . S
C473 C472 1.434 . S
C474 C475 1.369 . S
C474 C476 1.419 . S
C474 H478 0.930 . S
C475 C474 1.369 . S
C475 C484 1.429 1_655 S
C476 C474 1.419 . S
C476 C477 1.363 . S
C476 H479 0.929 . S
C477 C476 1.363 . S
C477 C483 1.428 1_655 S
H478 C474 0.930 . S
H479 C476 0.929 . S
S480 N481 1.613 . S
S480 N482 1.610 . S
N481 S480 1.613 . S
N481 C484 1.350 . S
N482 S480 1.610 . S
N482 C483 1.351 . S
C483 C477 1.428 1_455 S
C483 N482 1.351 . S
C483 C484 1.434 . S
C484 C475 1.429 1_455 S
C484 N481 1.350 . S
C484 C483 1.434 . S
C485 C486 1.369 . S
C485 C487 1.419 . S
C485 H489 0.930 . S
C486 C485 1.369 . S
C486 C495 1.429 . S
C487 C485 1.419 . S
C487 C488 1.363 . S
C487 H490 0.929 . S
C488 C487 1.363 . S
C488 C494 1.428 . S
H489 C485 0.930 . S
H490 C487 0.929 . S
S491 N492 1.613 . S
S491 N493 1.610 . S
N492 S491 1.613 . S
N492 C495 1.350 . S
N493 S491 1.610 . S
N493 C494 1.351 . S
C494 C488 1.428 . S
C494 N493 1.351 . S
C494 C495 1.434 . S
C495 C486 1.429 . S
C495 N492 1.350 . S
C495 C494 1.434 . S
C496 C497 1.369 . S
C496 C498 1.419 . S
C496 H500 0.930 . S
C497 C496 1.369 . S
C497 C506 1.429 . S
C498 C496 1.419 . S
C498 C499 1.363 . S
C498 H501 0.929 . S
C499 C498 1.363 . S
C499 C505 1.428 . S
H500 C496 0.930 . S
H501 C498 0.929 . S
S502 N503 1.613 . S
S502 N504 1.610 . S
N503 S502 1.613 . S
N503 C506 1.350 . S
N504 S502 1.610 . S
N504 C505 1.351 . S
C505 C499 1.428 . S
C505 N504 1.351 . S
C505 C506 1.434 . S
C506 C497 1.429 . S
C506 N503 1.350 . S
C506 C505 1.434 . S
C507 C508 1.369 . S
C507 C509 1.419 . S
C507 H511 0.930 . S
C508 C507 1.369 . S
C508 C517 1.429 . S
C509 C507 1.419 . S
C509 C510 1.363 . S
C509 H512 0.929 . S
C510 C509 1.363 . S
C510 C516 1.428 . S
H511 C507 0.930 . S
H512 C509 0.929 . S
S513 N514 1.613 . S
S513 N515 1.610 . S
N514 S513 1.613 . S
N514 C517 1.350 . S
N515 S513 1.610 . S
N515 C516 1.351 . S
C516 C510 1.428 . S
C516 N515 1.351 . S
C516 C517 1.434 . S
C517 C508 1.429 . S
C517 N514 1.350 . S
C517 C516 1.434 . S
C518 C519 1.369 . S
C518 C520 1.419 1_655 S
C518 H522 0.930 1_655 S
C519 C518 1.369 . S
C519 C528 1.429 . S
C520 C518 1.419 1_455 S
C520 C521 1.363 1_455 S
C520 H523 0.929 . S
C521 C520 1.363 1_655 S
C521 C527 1.428 . S
H522 C518 0.930 1_455 S
H523 C520 0.929 . S
S524 N525 1.613 . S
S524 N526 1.610 . S
N525 S524 1.613 . S
N525 C528 1.350 . S
N526 S524 1.610 . S
N526 C527 1.351 . S
C527 C521 1.428 . S
C527 N526 1.351 . S
C527 C528 1.434 . S
C528 C519 1.429 . S
C528 N525 1.350 . S
C528 C527 1.434 . S
C529 C530 1.369 . S
C529 C531 1.419 . S
C529 H533 0.930 . S
C530 C529 1.369 . S
C530 C539 1.429 . S
C531 C529 1.419 . S
C531 C532 1.363 . S
C531 H534 0.929 . S
C532 C531 1.363 . S
C532 C538 1.428 . S
H533 C529 0.930 . S
H534 C531 0.929 . S
S535 N536 1.613 . S
S535 N537 1.610 . S
N536 S535 1.613 . S
N536 C539 1.350 . S
N537 S535 1.610 . S
N537 C538 1.351 . S
C538 C532 1.428 . S
C538 N537 1.351 . S
C538 C539 1.434 . S
C539 C530 1.429 . S
C539 N536 1.350 . S
C539 C538 1.434 . S
C540 C541 1.369 . S
C540 C542 1.419 . S
C540 H544 0.930 . S
C541 C540 1.369 . S
C541 C550 1.429 1_656 S
C542 C540 1.419 . S
C542 C543 1.363 1_656 S
C542 H545 0.929 . S
C543 C542 1.363 1_454 S
C543 C549 1.428 . S
H544 C540 0.930 . S
H545 C542 0.929 . S
S546 N547 1.613 . S
S546 N548 1.610 . S
N547 S546 1.613 . S
N547 C550 1.350 . S
N548 S546 1.610 . S
N548 C549 1.351 . S
C549 C543 1.428 . S
C549 N548 1.351 . S
C549 C550 1.434 . S
C550 C541 1.429 1_454 S
C550 N547 1.350 . S
C550 C549 1.434 . S
C551 C552 1.369 1_556 S
C551 C553 1.419 . S
C551 H555 0.930 . S
C552 C551 1.369 1_554 S
C552 C561 1.429 . S
C553 C551 1.419 . S
C553 C554 1.363 . S
C553 H556 0.929 . S
C554 C553 1.363 . S
C554 C560 1.428 1_556 S
H555 C551 0.930 . S
H556 C553 0.929 . S
S557 N558 1.613 . S
S557 N559 1.610 . S
N558 S557 1.613 . S
N558 C561 1.350 . S
N559 S557 1.610 . S
N559 C560 1.351 . S
C560 C554 1.428 1_554 S
C560 N559 1.351 . S
C560 C561 1.434 . S
C561 C552 1.429 . S
C561 N558 1.350 . S
C561 C560 1.434 . S
C562 C563 1.369 . S
C562 C564 1.419 . S
C562 H566 0.930 . S
C563 C562 1.369 . S
C563 C572 1.429 1_546 S
C564 C562 1.419 . S
C564 C565 1.363 1_546 S
C564 H567 0.929 . S
C565 C564 1.363 1_564 S
C565 C571 1.428 . S
H566 C562 0.930 . S
H567 C564 0.929 . S
S568 N569 1.613 . S
S568 N570 1.610 . S
N569 S568 1.613 . S
N569 C572 1.350 . S
N570 S568 1.610 . S
N570 C571 1.351 . S
C571 C565 1.428 . S
C571 N570 1.351 . S
C571 C572 1.434 . S
C572 C563 1.429 1_564 S
C572 N569 1.350 . S
C572 C571 1.434 . S
C573 C574 1.369 . S
C573 C575 1.419 . S
C573 H577 0.930 . S
C574 C573 1.369 . S
C574 C583 1.429 1_565 S
C575 C573 1.419 . S
C575 C576 1.363 1_565 S
C575 H578 0.929 . S
C576 C575 1.363 1_545 S
C576 C582 1.428 . S
H577 C573 0.930 . S
H578 C575 0.929 . S
S579 N580 1.613 . S
S579 N581 1.610 . S
N580 S579 1.613 . S
N580 C583 1.350 . S
N581 S579 1.610 . S
N581 C582 1.351 . S
C582 C576 1.428 . S
C582 N581 1.351 . S
C582 C583 1.434 . S
C583 C574 1.429 1_545 S
C583 N580 1.350 . S
C583 C582 1.434 . S
C584 C585 1.369 1_655 S
C584 C586 1.419 . S
C584 H588 0.930 . S
C585 C584 1.369 1_455 S
C585 C594 1.429 . S
C586 C584 1.419 . S
C586 C587 1.363 . S
C586 H589 0.929 . S
C587 C586 1.363 . S
C587 C593 1.428 1_655 S
H588 C584 0.930 . S
H589 C586 0.929 . S
S590 N591 1.613 . S
S590 N592 1.610 . S
N591 S590 1.613 . S
N591 C594 1.350 . S
N592 S590 1.610 . S
N592 C593 1.351 . S
C593 C587 1.428 1_455 S
C593 N592 1.351 . S
C593 C594 1.434 . S
C594 C585 1.429 . S
C594 N591 1.350 . S
C594 C593 1.434 . S
C595 C596 1.369 . S
C595 C597 1.419 . S
C595 H599 0.930 . S
C596 C595 1.369 . S
C596 C605 1.429 . S
C597 C595 1.419 . S
C597 C598 1.363 . S
C597 H600 0.929 . S
C598 C597 1.363 . S
C598 C604 1.428 . S
H599 C595 0.930 . S
H600 C597 0.929 . S
S601 N602 1.613 . S
S601 N603 1.610 . S
N602 S601 1.613 . S
N602 C605 1.350 . S
N603 S601 1.610 . S
N603 C604 1.351 . S
C604 C598 1.428 . S
C604 N603 1.351 . S
C604 C605 1.434 . S
C605 C596 1.429 . S
C605 N602 1.350 . S
C605 C604 1.434 . S
C606 C607 1.369 . S
C606 C608 1.419 . S
C606 H610 0.930 . S
C607 C606 1.369 . S
C607 C616 1.429 . S
C608 C606 1.419 . S
C608 C609 1.363 . S
C608 H611 0.929 . S
C609 C608 1.363 . S
C609 C615 1.428 . S
H610 C606 0.930 . S
H611 C608 0.929 . S
S612 N613 1.613 . S
S612 N614 1.610 . S
N613 S612 1.613 . S
N613 C616 1.350 . S
N614 S612 1.610 . S
N614 C615 1.351 . S
C615 C609 1.428 . S
C615 N614 1.351 . S
C615 C616 1.434 . S
C616 C607 1.429 . S
C616 N613 1.350 . S
C616 C615 1.434 . S
C617 C618 1.369 . S
C617 C619 1.419 . S
C617 H621 0.930 . S
C618 C617 1.369 . S
C618 C627 1.429 . S
C619 C617 1.419 . S
C619 C620 1.363 . S
C619 H622 0.929 . S
C620 C619 1.363 . S
C620 C626 1.428 . S
H621 C617 0.930 . S
H622 C619 0.929 . S
S623 N624 1.613 . S
S623 N625 1.610 . S
N624 S623 1.613 . S
N624 C627 1.350 . S
N625 S623 1.610 . S
N625 C626 1.351 . S
C626 C620 1.428 . S
C626 N625 1.351 . S
C626 C627 1.434 . S
C627 C618 1.429 . S
C627 N624 1.350 . S
C627 C626 1.434 . S
C628 C629 1.369 . S
C628 C630 1.419 . S
C628 H632 0.930 . S
C629 C628 1.369 . S
C629 C638 1.429 . S
C630 C628 1.419 . S
C630 C631 1.363 . S
C630 H633 0.929 . S
C631 C630 1.363 . S
C631 C637 1.428 . S
H632 C628 0.930 . S
H633 C630 0.929 . S
S634 N635 1.613 . S
S634 N636 1.610 . S
N635 S634 1.613 . S
N635 C638 1.350 . S
N636 S634 1.610 . S
N636 C637 1.351 . S
C637 C631 1.428 . S
C637 N636 1.351 . S
C637 C638 1.434 . S
C638 C629 1.429 . S
C638 N635 1.350 . S
C638 C637 1.434 . S
C639 C640 1.369 . S
C639 C641 1.419 . S
C639 H643 0.930 . S
C640 C639 1.369 . S
C640 C649 1.429 . S
C641 C639 1.419 . S
C641 C642 1.363 . S
C641 H644 0.929 . S
C642 C641 1.363 . S
C642 C648 1.428 . S
H643 C639 0.930 . S
H644 C641 0.929 . S
S645 N646 1.613 . S
S645 N647 1.610 . S
N646 S645 1.613 . S
N646 C649 1.350 . S
N647 S645 1.610 . S
N647 C648 1.351 . S
C648 C642 1.428 . S
C648 N647 1.351 . S
C648 C649 1.434 . S
C649 C640 1.429 . S
C649 N646 1.350 . S
C649 C648 1.434 . S
C650 C651 1.369 . S
C650 C652 1.419 . S
C650 H654 0.930 . S
C651 C650 1.369 . S
C651 C660 1.429 . S
C652 C650 1.419 . S
C652 C653 1.363 . S
C652 H655 0.929 . S
C653 C652 1.363 . S
C653 C659 1.428 . S
H654 C650 0.930 . S
H655 C652 0.929 . S
S656 N657 1.613 . S
S656 N658 1.610 . S
N657 S656 1.613 . S
N657 C660 1.350 . S
N658 S656 1.610 . S
N658 C659 1.351 . S
C659 C653 1.428 . S
C659 N658 1.351 . S
C659 C660 1.434 . S
C660 C651 1.429 . S
C660 N657 1.350 . S
C660 C659 1.434 . S
C661 C662 1.369 . S
C661 C663 1.419 . S
C661 H665 0.930 . S
C662 C661 1.369 . S
C662 C671 1.429 . S
C663 C661 1.419 . S
C663 C664 1.363 . S
C663 H666 0.929 . S
C664 C663 1.363 . S
C664 C670 1.428 . S
H665 C661 0.930 . S
H666 C663 0.929 . S
S667 N668 1.613 . S
S667 N669 1.610 . S
N668 S667 1.613 . S
N668 C671 1.350 . S
N669 S667 1.610 . S
N669 C670 1.351 . S
C670 C664 1.428 . S
C670 N669 1.351 . S
C670 C671 1.434 . S
C671 C662 1.429 . S
C671 N668 1.350 . S
C671 C670 1.434 . S
C672 C673 1.369 . S
C672 C674 1.419 . S
C672 H676 0.930 . S
C673 C672 1.369 . S
C673 C682 1.429 . S
C674 C672 1.419 . S
C674 C675 1.363 . S
C674 H677 0.929 . S
C675 C674 1.363 . S
C675 C681 1.428 . S
H676 C672 0.930 . S
H677 C674 0.929 . S
S678 N679 1.613 . S
S678 N680 1.610 . S
N679 S678 1.613 . S
N679 C682 1.350 . S
N680 S678 1.610 . S
N680 C681 1.351 . S
C681 C675 1.428 . S
C681 N680 1.351 . S
C681 C682 1.434 . S
C682 C673 1.429 . S
C682 N679 1.350 . S
C682 C681 1.434 . S
C683 C684 1.369 . S
C683 C685 1.419 . S
C683 H687 0.930 . S
C684 C683 1.369 . S
C684 C693 1.429 . S
C685 C683 1.419 . S
C685 C686 1.363 . S
C685 H688 0.929 . S
C686 C685 1.363 . S
C686 C692 1.428 . S
H687 C683 0.930 . S
H688 C685 0.929 . S
S689 N690 1.613 . S
S689 N691 1.610 . S
N690 S689 1.613 . S
N690 C693 1.350 . S
N691 S689 1.610 . S
N691 C692 1.351 . S
C692 C686 1.428 . S
C692 N691 1.351 . S
C692 C693 1.434 . S
C693 C684 1.429 . S
C693 N690 1.350 . S
C693 C692 1.434 . S
C694 C695 1.369 . S
C694 C696 1.419 . S
C694 H698 0.930 . S
C695 C694 1.369 . S
C695 C704 1.429 . S
C696 C694 1.419 . S
C696 C697 1.363 . S
C696 H699 0.929 . S
C697 C696 1.363 . S
C697 C703 1.428 . S
H698 C694 0.930 . S
H699 C696 0.929 . S
S700 N701 1.613 . S
S700 N702 1.610 . S
N701 S700 1.613 . S
N701 C704 1.350 . S
N702 S700 1.610 . S
N702 C703 1.351 . S
C703 C697 1.428 . S
C703 N702 1.351 . S
C703 C704 1.434 . S
C704 C695 1.429 . S
C704 N701 1.350 . S
C704 C703 1.434 . S
C705 C706 1.369 . S
C705 C707 1.419 . S
C705 H709 0.930 . S
C706 C705 1.369 . S
C706 C715 1.429 . S
C707 C705 1.419 . S
C707 C708 1.363 . S
C707 H710 0.929 . S
C708 C707 1.363 . S
C708 C714 1.428 . S
H709 C705 0.930 . S
H710 C707 0.929 . S
S711 N712 1.613 . S
S711 N713 1.610 . S
N712 S711 1.613 . S
N712 C715 1.350 . S
N713 S711 1.610 . S
N713 C714 1.351 . S
C714 C708 1.428 . S
C714 N713 1.351 . S
C714 C715 1.434 . S
C715 C706 1.429 . S
C715 N712 1.350 . S
C715 C714 1.434 . S
C716 C717 1.369 . S
C716 C718 1.419 . S
C716 H720 0.930 . S
C717 C716 1.369 . S
C717 C726 1.429 . S
C718 C716 1.419 . S
C718 C719 1.363 . S
C718 H721 0.929 . S
C719 C718 1.363 . S
C719 C725 1.428 . S
H720 C716 0.930 . S
H721 C718 0.929 . S
S722 N723 1.613 . S
S722 N724 1.610 . S
N723 S722 1.613 . S
N723 C726 1.350 . S
N724 S722 1.610 . S
N724 C725 1.351 . S
C725 C719 1.428 . S
C725 N724 1.351 . S
C725 C726 1.434 . S
C726 C717 1.429 . S
C726 N723 1.350 . S
C726 C725 1.434 . S
C727 C728 1.369 . S
C727 C729 1.419 . S
C727 H731 0.930 . S
C728 C727 1.369 . S
C728 C737 1.429 . S
C729 C727 1.419 . S
C729 C730 1.363 . S
C729 H732 0.929 . S
C730 C729 1.363 . S
C730 C736 1.428 . S
H731 C727 0.930 . S
H732 C729 0.929 . S
S733 N734 1.613 . S
S733 N735 1.610 . S
N734 S733 1.613 . S
N734 C737 1.350 . S
N735 S733 1.610 . S
N735 C736 1.351 . S
C736 C730 1.428 . S
C736 N735 1.351 . S
C736 C737 1.434 . S
C737 C728 1.429 . S
C737 N734 1.350 . S
C737 C736 1.434 . S
C409 C373 1.802 1_455 S
C411 C9 1.549 . S
C420 C43 1.544 . S
C422 C407 1.801 . S
C431 C339 1.800 1_565 S
C433 C77 1.553 . S
C442 C111 1.539 . S
C444 C305 1.800 1_565 S
C453 C145 1.548 . S
C455 C237 1.801 1_455 S
C464 C179 1.551 . S
C466 C271 1.798 . S
C475 C169 1.798 1_655 S
C477 C213 1.549 . S
C486 C203 1.797 . S
C488 C247 1.544 . S
C497 C135 1.800 1_545 S
C499 C281 1.553 . S
C508 C101 1.799 1_545 S
C510 C315 1.541 . S
C519 C349 1.554 . S
C521 C33 1.800 1_655 S
C530 C67 1.797 . S
C532 C383 1.548 . S
C541 C224 1.479 . S
C543 C20 1.473 . S
C552 C54 1.476 . S
C554 C258 1.475 . S
C563 C292 1.479 . S
C565 C88 1.473 . S
C574 C122 1.473 . S
C576 C326 1.478 . S
C585 C156 1.471 . S
C587 C360 1.479 . S
C596 C394 1.474 . S
C598 C190 1.477 . S
C607 C5 0.944 . S
C609 C141 0.929 . S
C618 C39 0.936 . S
C620 C175 0.936 . S
C629 C73 0.932 . S
C631 C107 0.933 . S
C640 C345 0.941 . S
C642 C209 0.931 . S
C651 C243 0.925 . S
C653 C379 0.942 . S
C662 C277 0.944 . S
C664 C311 0.928 . S
C673 C172 1.629 . S
C675 C2 1.634 . S
C684 C104 1.632 . S
C686 C36 1.632 . S
C695 C70 1.625 . S
C697 C138 1.638 . S
C706 C206 1.632 . S
C708 C376 1.635 . S
C717 C308 1.639 . S
C719 C240 1.628 . S
C728 C342 1.639 . S
C730 C274 1.628 . S
