# Generated by pormake.
# Topology smm, (6)-cn, num edge types: 1
# Building blocks:
#     Node 0, Type 0, BuildingBlock: MIFKUJ_clean_sbu_0, # of connection points: 6
#     Node 1, Type 0, BuildingBlock: MIFKUJ_clean_sbu_0, # of connection points: 6
#     Node 2, Type 0, BuildingBlock: MIFKUJ_clean_sbu_0, # of connection points: 6
#     Node 3, Type 0, BuildingBlock: MIFKUJ_clean_sbu_0, # of connection points: 6
#     Node 4, Type 0, BuildingBlock: MIFKUJ_clean_sbu_0, # of connection points: 6
#     Node 5, Type 0, BuildingBlock: MIFKUJ_clean_sbu_0, # of connection points: 6
#     Node 6, Type 0, BuildingBlock: MIFKUJ_clean_sbu_0, # of connection points: 6
#     Node 7, Type 0, BuildingBlock: MIFKUJ_clean_sbu_0, # of connection points: 6
#     Node 8, Type 0, BuildingBlock: MIFKUJ_clean_sbu_0, # of connection points: 6
#     Edge 9, Type (0, 0), BuildingBlock: CIFDUS_clean_linker_0, # of connection points: 2
#     Edge 10, Type (0, 0), BuildingBlock: CIFDUS_clean_linker_0, # of connection points: 2
#     Edge 11, Type (0, 0), BuildingBlock: CIFDUS_clean_linker_0, # of connection points: 2
#     Edge 12, Type (0, 0), BuildingBlock: CIFDUS_clean_linker_0, # of connection points: 2
#     Edge 13, Type (0, 0), BuildingBlock: CIFDUS_clean_linker_0, # of connection points: 2
#     Edge 14, Type (0, 0), BuildingBlock: CIFDUS_clean_linker_0, # of connection points: 2
#     Edge 15, Type (0, 0), BuildingBlock: CIFDUS_clean_linker_0, # of connection points: 2
#     Edge 16, Type (0, 0), BuildingBlock: CIFDUS_clean_linker_0, # of connection points: 2
#     Edge 17, Type (0, 0), BuildingBlock: CIFDUS_clean_linker_0, # of connection points: 2
#     Edge 18, Type (0, 0), BuildingBlock: CIFDUS_clean_linker_0, # of connection points: 2
#     Edge 19, Type (0, 0), BuildingBlock: CIFDUS_clean_linker_0, # of connection points: 2
#     Edge 20, Type (0, 0), BuildingBlock: CIFDUS_clean_linker_0, # of connection points: 2
#     Edge 21, Type (0, 0), BuildingBlock: CIFDUS_clean_linker_0, # of connection points: 2
#     Edge 22, Type (0, 0), BuildingBlock: CIFDUS_clean_linker_0, # of connection points: 2
#     Edge 23, Type (0, 0), BuildingBlock: CIFDUS_clean_linker_0, # of connection points: 2
#     Edge 24, Type (0, 0), BuildingBlock: CIFDUS_clean_linker_0, # of connection points: 2
#     Edge 25, Type (0, 0), BuildingBlock: CIFDUS_clean_linker_0, # of connection points: 2
#     Edge 26, Type (0, 0), BuildingBlock: CIFDUS_clean_linker_0, # of connection points: 2
#     Edge 27, Type (0, 0), BuildingBlock: CIFDUS_clean_linker_0, # of connection points: 2
#     Edge 28, Type (0, 0), BuildingBlock: CIFDUS_clean_linker_0, # of connection points: 2
#     Edge 29, Type (0, 0), BuildingBlock: CIFDUS_clean_linker_0, # of connection points: 2
#     Edge 30, Type (0, 0), BuildingBlock: CIFDUS_clean_linker_0, # of connection points: 2
#     Edge 31, Type (0, 0), BuildingBlock: CIFDUS_clean_linker_0, # of connection points: 2
#     Edge 32, Type (0, 0), BuildingBlock: CIFDUS_clean_linker_0, # of connection points: 2
#     Edge 33, Type (0, 0), BuildingBlock: CIFDUS_clean_linker_0, # of connection points: 2
#     Edge 34, Type (0, 0), BuildingBlock: CIFDUS_clean_linker_0, # of connection points: 2
#     Edge 35, Type (0, 0), BuildingBlock: CIFDUS_clean_linker_0, # of connection points: 2
# Relax obj value: 0.034
# Max RMSD: 0.125
# Mean RMSD: 0.108
data_MOF--net-smm--node1-MIFKUJ_clean_sbu_0--edge1-CIFDUS_clean_linker_0
_symmetry_space_group_name_H-M    P1
_symmetry_Int_Tables_number       1
_symmetry_cell_setting            triclinic
loop_
_symmetry_equiv_pos_as_xyz
'x, y, z'
_cell_length_a     54.289809
_cell_length_b     55.790599
_cell_length_c     12.01575
_cell_angle_alpha  92.531652
_cell_angle_beta   92.361695
_cell_angle_gamma 119.93449
loop_
_atom_site_label
_atom_site_type_symbol
_atom_site_fract_x
_atom_site_fract_y
_atom_site_fract_z
_atom_type_partial_charge
Zn0 Zn 0.00431 0.14434 0.04586 0.0
Zn1 Zn 0.01669 0.22576 0.02307 0.0
C2 C 0.05797 0.14291 0.05646 0.0
O3 O 0.06538 0.15918 0.97358 0.0
C4 C 0.96172 0.22065 0.06372 0.0
O5 O 0.96255 0.20747 0.15042 0.0
O6 O 0.96657 0.10929 0.05894 0.0
O7 O 0.01057 0.17922 0.1286 0.0
O8 O 0.01957 0.22034 0.18831 0.0
C9 C 0.96672 0.09374 0.13287 0.0
O10 O 0.98827 0.10386 0.20867 0.0
O11 O 0.03445 0.1358 0.09862 0.0
C12 C 0.04312 0.27301 0.9018 0.0
O13 O 0.01813 0.25869 0.84604 0.0
O14 O 0.04919 0.26243 -0.01744 0.0
O15 O 0.01406 0.19279 0.93585 0.0
O16 O 0.0088 0.1525 0.88279 0.0
O17 O 0.98107 0.22791 -0.00441 0.0
C18 C 0.01405 0.19611 0.2097 0.0
C19 C 0.01361 0.17637 0.85864 0.0
Zn20 Zn 0.88108 0.87796 0.04785 0.0
Zn21 Zn 0.81608 0.79482 0.04407 0.0
C22 C 0.93753 0.88981 0.10011 0.0
O23 O 0.93103 0.89544 0.19817 0.0
C24 C 0.76347 0.7819 0.92776 0.0
O25 O 0.77606 0.77729 0.84524 0.0
O26 O 0.88659 0.91636 0.03488 0.0
O27 O 0.84745 0.84726 0.95489 0.0
O28 O 0.83402 0.80452 0.89992 0.0
C29 C 0.90767 0.9334 -0.01632 0.0
O30 O 0.922 0.92438 0.92725 0.0
O31 O 0.91845 0.8799 0.01919 0.0
C32 C 0.7943 0.74519 0.15521 0.0
O33 O 0.78011 0.75598 0.20096 0.0
O34 O 0.81228 0.75873 0.08553 0.0
O35 O 0.84167 0.82625 0.15623 0.0
O36 O 0.87429 0.86914 0.20789 0.0
O37 O 0.77674 0.79026 0.02392 0.0
C38 C 0.84813 0.83012 0.8836 0.0
C39 C 0.85701 0.84474 0.23321 0.0
Zn40 Zn 0.15072 0.0182 0.95963 0.0
Zn41 Zn 0.21833 0.00061 0.94323 0.0
C42 C 0.0931 0.9757 0.90152 0.0
O43 O 0.09995 0.9845 0.80173 0.0
C44 C 0.26711 0.05003 0.05377 0.0
O45 O 0.24984 0.04556 0.13358 0.0
O46 O 0.15347 0.055 0.0011 0.0
O47 O 0.17814 0.00931 0.02946 0.0
O48 O 0.20412 0.99376 0.09828 0.0
C49 C 0.13579 0.05522 0.06685 0.0
O50 O 0.11939 0.03261 0.11629 0.0
O51 O 0.11158 0.98715 -0.01633 0.0
C52 C 0.23336 0.97 0.79198 0.0
O53 O 0.23662 0.98977 0.72827 0.0
O54 O 0.22441 0.96958 0.88833 0.0
O55 O 0.19096 0.00488 0.83125 0.0
O56 O 0.15713 0.01543 0.79738 0.0
O57 O 0.25767 0.03478 0.96249 0.0
C58 C 0.18602 0.00135 0.11321 0.0
C59 C 0.17402 0.00755 0.76261 0.0
Zn60 Zn 0.69941 0.48083 0.23142 0.0
Zn61 Zn 0.66984 0.53124 0.30966 0.0
C62 C 0.64231 0.43262 0.24161 0.0
O63 O 0.64127 0.44588 0.33277 0.0
C64 C 0.72273 0.58521 0.26288 0.0
O65 O 0.73293 0.5721 0.20451 0.0
O66 O 0.73249 0.47675 0.18686 0.0
O67 O 0.69864 0.51252 0.16374 0.0
O68 O 0.6593 0.51415 0.15378 0.0
C69 C 0.72834 0.45932 0.10629 0.0
O70 O 0.70425 0.44802 0.04386 0.0
O71 O 0.66385 0.44435 0.18412 0.0
C72 C 0.64708 0.54911 0.46668 0.0
O73 O 0.67174 0.55436 0.51364 0.0
O74 O 0.63802 0.53434 0.37458 0.0
O75 O 0.68309 0.51204 0.41276 0.0
O76 O 0.7023 0.4853 0.39917 0.0
O77 O 0.69931 0.57156 0.30754 0.0
C78 C 0.67617 0.50792 0.1078 0.0
C79 C 0.69303 0.49818 0.45785 0.0
Zn80 Zn 0.54724 0.21923 0.21307 0.0
Zn81 Zn 0.48646 0.1404 0.25377 0.0
C82 C 0.59601 0.21077 0.24734 0.0
O83 O 0.58338 0.19873 0.33617 0.0
C84 C 0.43568 0.12154 0.11933 0.0
O85 O 0.44994 0.11344 0.05734 0.0
O86 O 0.55353 0.25705 0.18118 0.0
O87 O 0.51328 0.18858 0.12293 0.0
O88 O 0.50713 0.14675 0.11531 0.0
C89 C 0.56946 0.27043 0.10528 0.0
O90 O 0.57975 0.2583 0.04136 0.0
O91 O 0.58374 0.21941 0.18116 0.0
C92 C 0.46822 0.09845 0.40691 0.0
O93 O 0.46317 0.11624 0.462 0.0
O94 O 0.47909 0.10444 0.31325 0.0
O95 O 0.50904 0.17098 0.37357 0.0
O96 O 0.54201 0.21551 0.37689 0.0
O97 O 0.44742 0.1352 0.21248 0.0
C98 C 0.51606 0.16972 0.07207 0.0
C99 C 0.52602 0.19409 0.42701 0.0
Zn100 Zn 0.81412 0.3297 0.26493 0.0
Zn101 Zn 0.89604 0.36187 0.3168 0.0
C102 C 0.78493 0.3581 0.23947 0.0
O103 O 0.77032 0.33991 0.31089 0.0
C104 C 0.90179 0.31963 0.20642 0.0
O105 O 0.91074 0.33839 0.1327 0.0
O106 O 0.77575 0.29378 0.24004 0.0
O107 O 0.84521 0.32847 0.18958 0.0
O108 O 0.88265 0.36883 0.17223 0.0
C109 C 0.76082 0.29055 0.14999 0.0
O110 O 0.77233 0.30838 0.07388 0.0
O111 O 0.80731 0.35925 0.20541 0.0
C112 C 0.95027 0.39763 0.44861 0.0
O113 O 0.93478 0.38966 0.53513 0.0
O114 O 0.93807 0.38939 0.35058 0.0
O115 O 0.87356 0.36268 0.44431 0.0
O116 O 0.82579 0.34077 0.42763 0.0
O117 O 0.89336 0.32458 0.29724 0.0
C118 C 0.85879 0.34902 0.13206 0.0
C119 C 0.84962 0.35522 0.48436 0.0
Zn120 Zn 0.34137 0.81192 0.65459 0.0
Zn121 Zn 0.37007 0.8937 0.64432 0.0
C122 C 0.39444 0.81179 0.70773 0.0
O123 O 0.40422 0.82769 0.62429 0.0
C124 C 0.32847 0.90041 0.75294 0.0
O125 O 0.34712 0.90568 0.83697 0.0
O126 O 0.30397 0.7755 0.64068 0.0
O127 O 0.34087 0.84371 0.73468 0.0
O128 O 0.37909 0.88282 0.78985 0.0
C129 C 0.29718 0.75963 0.72051 0.0
O130 O 0.3133 0.76816 0.81444 0.0
O131 O 0.36938 0.80407 0.73537 0.0
C132 C 0.4017 0.93889 0.5129 0.0
O133 O 0.38667 0.91917 0.43396 0.0
O134 O 0.39913 0.93301 0.61442 0.0
O135 O 0.36826 0.86768 0.51661 0.0
O136 O 0.35314 0.8224 0.49937 0.0
O137 O 0.33298 0.8938 0.65625 0.0
C138 C 0.36104 0.85812 0.80868 0.0
C139 C 0.364 0.84603 0.45918 0.0
Zn140 Zn 0.19513 0.5456 0.68483 0.0
Zn141 Zn 0.17083 0.47977 0.70316 0.0
C142 C 0.25276 0.56498 0.74756 0.0
O143 O 0.24512 0.57474 0.83272 0.0
C144 C 0.1144 0.45972 0.63395 0.0
O145 O 0.1232 0.44714 0.56482 0.0
O146 O 0.20196 0.58429 0.67335 0.0
O147 O 0.16696 0.52045 0.56412 0.0
O148 O 0.18181 0.49003 0.55305 0.0
C149 C 0.21503 0.59687 0.59018 0.0
O150 O 0.22064 0.58317 0.51309 0.0
O151 O 0.23412 0.55008 0.6689 0.0
C152 C 0.1492 0.43169 0.81225 0.0
O153 O 0.14326 0.44782 0.87471 0.0
O154 O 0.16362 0.44134 0.72818 0.0
O155 O 0.20107 0.50611 0.81334 0.0
O156 O 0.18315 0.53351 0.83351 0.0
O157 O 0.13188 0.47673 0.71179 0.0
C158 C 0.17112 0.50321 0.50778 0.0
C159 C 0.19395 0.52011 0.87539 0.0
Zn160 Zn 0.47253 0.67625 0.66734 0.0
Zn161 Zn 0.54678 0.6668 0.6489 0.0
C162 C 0.41395 0.63756 0.59664 0.0
O163 O 0.42323 0.64601 0.49861 0.0
C164 C 0.59876 0.71501 0.74958 0.0
O165 O 0.58443 0.70982 0.83935 0.0
O166 O 0.4778 0.71398 0.70645 0.0
O167 O 0.50002 0.66823 0.75244 0.0
O168 O 0.53412 0.66039 0.80527 0.0
C169 C 0.46276 0.71753 0.77627 0.0
O170 O 0.4459 0.69673 0.83388 0.0
O171 O 0.43144 0.64718 0.68268 0.0
C172 C 0.57187 0.63905 0.53988 0.0
O173 O 0.5903 0.66477 0.52151 0.0
O174 O 0.54963 0.63389 0.58884 0.0
O175 O 0.51709 0.67119 0.56255 0.0
O176 O 0.4811 0.67568 0.50616 0.0
O177 O 0.58616 0.70101 0.65793 0.0
C178 C 0.51316 0.66334 0.82952 0.0
C179 C 0.50214 0.67281 0.48292 0.0
H180 H 0.09945 0.30338 0.86178 0.0
H181 H 0.02428 0.30903 0.91237 0.0
H182 H 0.05102 0.35893 0.89426 0.0
H183 H 0.0953 0.40073 0.86274 0.0
H184 H 0.16984 0.39582 0.79161 0.0
H185 H 0.14402 0.34585 0.81847 0.0
C186 C 0.08915 0.31572 0.86893 0.0
C187 C 0.06013 0.30288 0.88908 0.0
C188 C 0.1045 0.34437 0.85469 0.0
C189 C 0.04665 0.3187 0.89672 0.0
C190 C 0.0619 0.34716 0.88661 0.0
C191 C 0.10594 0.38872 0.85392 0.0
C192 C 0.13443 0.40177 0.82717 0.0
C193 C 0.09076 0.36017 0.8656 0.0
C194 C 0.14787 0.38603 0.81288 0.0
C195 C 0.13313 0.35756 0.82829 0.0
H196 H 0.73097 0.76629 0.73169 0.0
H197 H 0.72833 0.78188 0.08491 0.0
H198 H 0.67737 0.76552 0.05824 0.0
H199 H 0.63289 0.74259 0.93769 0.0
H200 H 0.63558 0.72594 0.58526 0.0
H201 H 0.68728 0.7473 0.60861 0.0
C202 C 0.71934 0.76636 0.80284 0.0
C203 C 0.7334 0.77497 0.91038 0.0
C204 C 0.69002 0.75667 0.78711 0.0
C205 C 0.71803 0.77521 0.00132 0.0
C206 C 0.68886 0.76581 -0.01383 0.0
C207 C 0.64479 0.74403 0.86554 0.0
C208 C 0.63026 0.73238 0.76009 0.0
C209 C 0.67452 0.75589 0.87985 0.0
C210 C 0.64612 0.73459 0.66753 0.0
C211 C 0.67572 0.74669 0.68086 0.0
H212 H 0.24675 0.94002 0.92782 0.0
H213 H 0.24584 0.95926 0.58434 0.0
H214 H 0.27197 0.93542 0.53745 0.0
H215 H 0.30051 0.91463 0.59977 0.0
H216 H 0.30416 0.89891 0.94671 0.0
H217 H 0.27134 0.91556 -0.01371 0.0
C218 C 0.25177 0.93855 0.84222 0.0
C219 C 0.24467 0.95165 0.75994 0.0
C220 C 0.26758 0.92565 0.81674 0.0
C221 C 0.25138 0.94959 0.64947 0.0
C222 C 0.26635 0.936 0.62264 0.0
C223 C 0.29357 0.91428 0.68336 0.0
C224 C 0.30485 0.90576 0.77035 0.0
C225 C 0.2754 0.92478 0.70638 0.0
C226 C 0.29591 0.9056 0.87855 0.0
C227 C 0.2772 0.91516 0.90134 0.0
H228 H 0.395 0.12114 0.24743 0.0
H229 H 0.40847 0.10001 0.91421 0.0
H230 H 0.35769 0.07836 0.86134 0.0
H231 H 0.30907 0.06159 0.91377 0.0
H232 H 0.29488 0.08121 0.24808 0.0
H233 H 0.3462 0.10746 0.2957 0.0
C234 C 0.38687 0.1122 0.1628 0.0
C235 C 0.4055 0.11199 0.08528 0.0
C236 C 0.35744 0.09931 0.13313 0.0
C237 C 0.39459 0.10025 0.97595 0.0
C238 C 0.36552 0.08782 0.94549 0.0
C239 C 0.31717 0.07194 -0.00342 0.0
C240 C 0.2981 0.06924 0.07723 0.0
C241 C 0.34667 0.08663 0.02407 0.0
C242 C 0.30904 0.08286 0.18417 0.0
C243 C 0.33843 0.09782 0.21176 0.0
H244 H 0.91526 0.30213 0.01702 0.0
H245 H 0.89499 0.28146 0.35585 0.0
H246 H 0.90741 0.24508 0.33432 0.0
H247 H 0.9304 0.22399 0.22833 0.0
H248 H 0.9528 0.24661 0.89276 0.0
H249 H 0.93261 0.27701 0.90336 0.0
C250 C 0.91319 0.28945 0.08581 0.0
C251 C 0.90476 0.29485 0.18857 0.0
C252 C 0.92084 0.26897 0.07354 0.0
C253 C 0.90172 0.27791 0.27618 0.0
C254 C 0.90888 0.25715 0.26402 0.0
C255 C 0.93025 0.23503 0.1565 0.0
C256 C 0.94349 0.23336 0.06057 0.0
C257 C 0.91939 0.25316 0.16435 0.0
C258 C 0.943 0.24775 0.96808 0.0
C259 C 0.9316 0.26526 0.97423 0.0
H260 H 0.75511 0.71044 0.28955 0.0
H261 H 0.81786 0.7157 0.06748 0.0
H262 H 0.80282 0.66699 0.08799 0.0
H263 H 0.76918 0.62191 0.15758 0.0
H264 H 0.70614 0.61732 0.37729 0.0
H265 H 0.72408 0.66669 0.36907 0.0
C266 C 0.76572 0.70106 0.24634 0.0
C267 C 0.78737 0.71663 0.17625 0.0
C268 C 0.75678 0.67303 0.25743 0.0
C269 C 0.80098 0.70413 0.12148 0.0
C270 C 0.79236 0.67625 0.13297 0.0
C271 C 0.75961 0.63178 0.20469 0.0
C272 C 0.73618 0.61579 0.26697 0.0
C273 C 0.76987 0.66033 0.19899 0.0
C274 C 0.72409 0.62899 0.3279 0.0
C275 C 0.73429 0.65729 0.32328 0.0
H276 H 0.08252 0.44589 0.43988 0.0
H277 H 0.07957 0.45948 0.79376 0.0
H278 H 0.02829 0.44292 0.7671 0.0
H279 H 0.98371 0.42094 0.64365 0.0
H280 H 0.988 0.4085 0.2891 0.0
H281 H 0.0394 0.42845 0.3156 0.0
C282 C 0.07068 0.44545 0.51113 0.0
C283 C 0.08461 0.45355 0.61875 0.0
C284 C 0.04145 0.43599 0.495 0.0
C285 C 0.06923 0.45335 0.71012 0.0
C286 C 0.03993 0.44373 0.69486 0.0
C287 C 0.99593 0.42287 0.57206 0.0
C288 C 0.98186 0.41291 0.46464 0.0
C289 C 0.02569 0.43444 0.58781 0.0
C290 C 0.99813 0.41584 0.37274 0.0
C291 C 0.02758 0.4272 0.38776 0.0
H292 H 0.62332 0.64565 0.58825 0.0
H293 H 0.53828 0.58471 0.45938 0.0
H294 H 0.55359 0.55033 0.42849 0.0
H295 H 0.59238 0.5388 0.43098 0.0
H296 H 0.67606 0.5999 0.57597 0.0
H297 H 0.66001 0.63298 0.60881 0.0
C298 C 0.60816 0.62482 0.55319 0.0
C299 C 0.57997 0.6177 0.5238 0.0
C300 C 0.61686 0.60523 0.53932 0.0
C301 C 0.56022 0.59056 0.48143 0.0
C302 C 0.56896 0.571 0.46396 0.0
C303 C 0.60687 0.55922 0.47126 0.0
C304 C 0.63534 0.56688 0.50076 0.0
C305 C 0.59737 0.57821 0.49171 0.0
C306 C 0.65395 0.59334 0.55334 0.0
C307 C 0.6449 0.61242 0.57141 0.0
H308 H 0.46269 0.05275 0.29236 0.0
H309 H 0.4528 0.08231 0.61609 0.0
H310 H 0.43381 0.03588 0.68145 0.0
H311 H 0.41682 0.98613 0.64229 0.0
H312 H 0.42417 0.95639 0.31474 0.0
H313 H 0.44762 0.00363 0.25571 0.0
C314 C 0.4567 0.04912 0.37763 0.0
C315 C 0.45906 0.07093 0.44904 0.0
C316 C 0.44526 0.02228 0.41394 0.0
C317 C 0.45104 0.06583 0.55913 0.0
C318 C 0.44018 0.03928 0.59664 0.0
C319 C 0.42399 0.99009 0.55864 0.0
C320 C 0.41879 0.96784 0.48296 0.0
C321 C 0.43675 0.01724 0.52421 0.0
C322 C 0.42784 0.97319 0.37436 0.0
C323 C 0.44121 1.00018 0.34048 0.0
H324 H 0.09946 0.06124 0.19731 0.0
H325 H 0.15782 0.10071 0.9433 0.0
H326 H 0.1409 0.13368 0.92621 0.0
H327 H 0.10552 0.14757 0.96757 0.0
H328 H 0.04636 0.10671 0.21806 0.0
H329 H 0.06775 0.07818 0.2524 0.0
C330 C 0.10884 0.07732 0.13938 0.0
C331 C 0.12963 0.07827 0.07078 0.0
C332 C 0.09864 0.09581 0.1284 0.0
C333 C 0.14171 0.09942 -0.00309 0.0
C334 C 0.13193 0.1182 -0.01339 0.0
C335 C 0.09762 0.13276 0.03096 0.0
C336 C 0.07413 0.12909 0.08893 0.0
C337 C 0.10978 0.11604 0.04949 0.0
C338 C 0.06427 0.10987 0.17136 0.0
C339 C 0.07645 0.09345 0.19106 0.0
H340 H 0.88396 0.96673 -0.01738 0.0
H341 H 0.962 0.96625 0.06052 0.0
H342 H 0.98601 0.01522 0.12452 0.0
H343 H 0.98552 0.05818 0.1532 0.0
H344 H 0.91029 0.0619 0.05592 0.0
H345 H 0.88422 0.0116 0.00501 0.0
C346 C 0.90621 0.97754 0.01345 0.0
C347 C 0.92134 0.96316 0.01671 0.0
C348 C 0.92022 0.00607 0.04704 0.0
C349 C 0.95014 0.97713 0.05619 0.0
C350 C 0.96382 0.00502 0.09338 0.0
C351 C 0.96325 0.04793 0.12258 0.0
C352 C 0.94957 0.06343 0.11039 0.0
C353 C 0.94912 0.01967 0.08881 0.0
C354 C 0.92105 0.05015 0.06714 0.0
C355 C 0.90627 0.0215 0.03768 0.0
H356 H 0.96096 0.89624 0.9003 0.0
H357 H 0.98209 0.90754 0.25618 0.0
H358 H 0.03276 0.93302 0.22558 0.0
H359 H 0.07063 0.95676 0.0989 0.0
H360 H 0.0492 0.9469 0.74336 0.0
H361 H 0.99915 0.91603 0.77286 0.0
C362 C 0.97664 0.90376 0.97108 0.0
C363 C 0.96776 0.90027 0.08027 0.0
C364 C 0.00572 0.919 0.95309 0.0
C365 C 0.98837 0.91018 0.17116 0.0
C366 C 0.01737 0.92484 0.15384 0.0
C367 C 0.05506 0.9476 0.02775 0.0
C368 C 0.06355 0.95449 0.91926 0.0
C369 C 0.02623 0.93017 0.04532 0.0
C370 C 0.04317 0.94223 0.82792 0.0
C371 C 0.01453 0.92455 0.84463 0.0
H372 H 0.70944 0.40526 0.05809 0.0
H373 H 0.78542 0.48274 0.1628 0.0
H374 H 0.81141 0.45805 0.19924 0.0
H375 H 0.81043 0.41371 0.22375 0.0
H376 H 0.73202 0.33664 0.14298 0.0
H377 H 0.70894 0.36169 0.07424 0.0
C378 C 0.7319 0.41682 0.08601 0.0
C379 C 0.74564 0.44573 0.10697 0.0
C380 C 0.74606 0.40241 0.11273 0.0
C381 C 0.77454 0.46043 0.1457 0.0
C382 C 0.78929 0.44632 0.16716 0.0
C383 C 0.78846 0.40258 0.18922 0.0
C384 C 0.77278 0.37356 0.18799 0.0
C385 C 0.77499 0.41722 0.1545 0.0
C386 C 0.74428 0.35908 0.14482 0.0
C387 C 0.73114 0.37335 0.10555 0.0
H388 H 0.63974 0.39908 0.0649 0.0
H389 H 0.59853 0.39869 0.36514 0.0
H390 H 0.56981 0.34818 0.34227 0.0
H391 H 0.56044 0.30402 0.24913 0.0
H392 H 0.60292 0.30462 0.95237 0.0
H393 H 0.62682 0.35513 0.96139 0.0
C394 C 0.62417 0.38802 0.1245 0.0
C395 C 0.62157 0.40269 0.21734 0.0
C396 C 0.60808 0.35895 0.11203 0.0
C397 C 0.6011 0.38797 0.29316 0.0
C398 C 0.58473 0.35904 0.28044 0.0
C399 C 0.57455 0.31515 0.18531 0.0
C400 C 0.58014 0.30052 0.10104 0.0
C401 C 0.58865 0.34427 0.19201 0.0
C402 C 0.59842 0.31532 0.01882 0.0
C403 C 0.61216 0.34424 0.02398 0.0
H404 H 0.62782 0.23423 0.07217 0.0
H405 H 0.63208 0.20502 0.39514 0.0
H406 H 0.68343 0.2246 0.38861 0.0
H407 H 0.72789 0.25472 0.30094 0.0
H408 H 0.72316 0.28384 0.97804 0.0
H409 H 0.67142 0.25943 0.97477 0.0
C410 C 0.63988 0.23178 0.14049 0.0
C411 C 0.62611 0.21853 0.2347 0.0
C412 C 0.66948 0.2433 0.13677 0.0
C413 C 0.64209 0.21528 0.32182 0.0
C414 C 0.67154 0.22658 0.31842 0.0
C415 C 0.71553 0.2553 0.22896 0.0
C416 C 0.72953 0.27143 0.14068 0.0
C417 C 0.68559 0.24135 0.22779 0.0
C418 C 0.71308 0.27179 0.04773 0.0
C419 C 0.6834 0.25789 0.04578 0.0
H420 H 0.42927 0.72976 0.90095 0.0
H421 H 0.48846 0.76081 0.64339 0.0
H422 H 0.47522 0.79583 0.60999 0.0
H423 H 0.44179 0.81291 0.63458 0.0
H424 H 0.38141 0.78056 0.88755 0.0
H425 H 0.40047 0.75115 0.94288 0.0
C426 C 0.4397 0.74451 0.83899 0.0
C427 C 0.45942 0.74227 0.77343 0.0
C428 C 0.43155 0.76424 0.81842 0.0
C429 C 0.47298 0.76183 0.69442 0.0
C430 C 0.46533 0.78183 0.67481 0.0
C431 C 0.43319 0.79986 0.70335 0.0
C432 C 0.40986 0.79855 0.75531 0.0
C433 C 0.44385 0.78252 0.73331 0.0
C434 C 0.39911 0.78167 0.8449 0.0
C435 C 0.40996 0.76478 0.87656 0.0
H436 H 0.21338 0.6324 0.74865 0.0
H437 H 0.24522 0.62977 0.42762 0.0
H438 H 0.27062 0.68029 0.43342 0.0
H439 H 0.28742 0.72534 0.53746 0.0
H440 H 0.25897 0.7279 0.86496 0.0
H441 H 0.22807 0.6774 0.84791 0.0
C442 C 0.2255 0.64284 0.67912 0.0
C443 C 0.22739 0.62726 0.58799 0.0
C444 C 0.24063 0.67197 0.68411 0.0
C445 C 0.24335 0.64119 0.49887 0.0
C446 C 0.25796 0.67013 0.50213 0.0
C447 C 0.27389 0.71483 0.60373 0.0
C448 C 0.27514 0.73016 0.70188 0.0
C449 C 0.2572 0.68574 0.59527 0.0
C450 C 0.25814 0.71639 0.78853 0.0
C451 C 0.24064 0.68756 0.779 0.0
H452 H 0.38634 0.62317 0.78777 0.0
H453 H 0.37215 0.61086 0.42846 0.0
H454 H 0.32079 0.58443 0.44385 0.0
H455 H 0.27977 0.56835 0.55862 0.0
H456 H 0.29399 0.58291 0.91717 0.0
H457 H 0.34536 0.60448 0.90288 0.0
C458 C 0.37204 0.61441 0.71286 0.0
C459 C 0.38309 0.61917 0.60719 0.0
C460 C 0.34247 0.59965 0.72214 0.0
C461 C 0.36423 0.60768 0.51095 0.0
C462 C 0.33482 0.59255 0.51956 0.0
C463 C 0.29411 0.57579 0.6336 0.0
C464 C 0.28318 0.57418 0.73867 0.0
C465 C 0.32367 0.58889 0.62461 0.0
C466 C 0.30197 0.58412 0.83522 0.0
C467 C 0.33134 0.5965 0.82714 0.0
H468 H 0.99152 0.14259 0.67025 0.0
H469 H 0.04538 0.22819 0.79102 0.0
H470 H 0.05068 0.24221 0.59951 0.0
H471 H 0.03917 0.22992 0.39779 0.0
H472 H 0.9837 0.14456 0.27835 0.0
H473 H 0.98009 0.13032 0.46914 0.0
C474 C 0.00454 0.16427 0.65424 0.0
C475 C 0.01775 0.18447 0.74364 0.0
C476 C 0.00732 0.17207 0.54442 0.0
C477 C 0.0345 0.21248 0.72277 0.0
C478 C 0.03769 0.22043 0.61358 0.0
C479 C 0.0264 0.20823 0.41392 0.0
C480 C 0.01232 0.18807 0.32478 0.0
C481 C 0.02398 0.20041 0.52382 0.0
C482 C 0.99562 0.1601 0.34603 0.0
C483 C 0.99325 0.15207 0.45493 0.0
H484 H 0.83841 0.79577 0.70159 0.0
H485 H 0.87791 0.88247 0.81251 0.0
H486 H 0.88608 0.89492 0.61926 0.0
H487 H 0.87748 0.88058 0.41822 0.0
H488 H 0.83408 0.79342 0.31001 0.0
H489 H 0.83128 0.7816 0.50362 0.0
C490 C 0.84921 0.81746 0.68409 0.0
C491 C 0.8576 0.83824 0.77127 0.0
C492 C 0.85244 0.82426 0.57318 0.0
C493 C 0.87147 0.86617 0.74681 0.0
C494 C 0.87584 0.87324 0.63635 0.0
C495 C 0.8675 0.85902 0.43719 0.0
C496 C 0.8556 0.83785 0.35028 0.0
C497 C 0.86565 0.85237 0.54875 0.0
C498 C 0.84285 0.81002 0.37567 0.0
C499 C 0.84146 0.80327 0.48622 0.0
H500 H 0.16232 0.03087 0.59002 0.0
H501 H 0.18173 0.96711 0.66771 0.0
H502 H 0.18295 0.95664 0.46923 0.0
H503 H 0.18335 0.96889 0.27647 0.0
H504 H 0.16632 0.03403 0.19772 0.0
H505 H 0.15818 0.04013 0.39316 0.0
C506 C 0.16667 0.01462 0.56304 0.0
C507 C 0.17309 0.00049 0.64273 0.0
C508 C 0.1674 0.00881 0.44886 0.0
C509 C 0.17811 0.9791 0.60748 0.0
C510 C 0.1784 0.97286 0.49423 0.0
C511 C 0.17733 0.98405 0.30198 0.0
C512 C 0.17526 0.00094 0.22354 0.0
C513 C 0.17388 0.98811 0.41458 0.0
C514 C 0.16734 0.02042 0.25673 0.0
C515 C 0.16319 0.0242 0.36865 0.0
H516 H 0.65464 0.4996 0.58722 0.0
H517 H 0.7301 0.49229 0.59999 0.0
H518 H 0.73042 0.49257 0.80438 0.0
H519 H 0.71096 0.49837 0.97891 0.0
H520 H 0.63451 0.50423 0.96186 0.0
H521 H 0.6328 0.50089 0.75882 0.0
C522 C 0.67118 0.49809 0.63483 0.0
C523 C 0.69263 0.49648 0.57959 0.0
C524 C 0.67102 0.49799 0.75107 0.0
C525 C 0.71349 0.49375 0.6414 0.0
C526 C 0.71369 0.49396 0.75792 0.0
C527 C 0.69368 0.49846 0.93077 0.0
C528 C 0.6731 0.50186 -0.01441 0.0
C529 C 0.69279 0.49651 0.81368 0.0
C530 C 0.65077 0.50185 0.92196 0.0
C531 C 0.64979 0.50002 0.80577 0.0
H532 H 0.51676 0.1523 0.55352 0.0
H533 H 0.54136 0.23886 0.57447 0.0
H534 H 0.54263 0.23955 0.77887 0.0
H535 H 0.53311 0.21433 0.94925 0.0
H536 H 0.50963 0.12793 0.92538 0.0
H537 H 0.51124 0.1283 0.72333 0.0
C538 C 0.52218 0.17126 0.60282 0.0
C539 C 0.52825 0.1953 0.54964 0.0
C540 C 0.52303 0.17149 0.7192 0.0
C541 C 0.53631 0.22003 0.61413 0.0
C542 C 0.537 0.22041 0.73062 0.0
C543 C 0.52895 0.19577 0.9001 0.0
C544 C 0.5212 0.17118 0.95238 0.0
C545 C 0.52997 0.19612 0.78383 0.0
C546 C 0.51567 0.14718 0.88744 0.0
C547 C 0.51646 0.14731 0.77178 0.0
H548 H 0.81484 0.32044 0.62766 0.0
H549 H 0.88585 0.40296 0.60731 0.0
H550 H 0.892 0.41001 0.81117 0.0
H551 H 0.88125 0.39031 -0.00754 0.0
H552 H 0.81528 0.30507 0.00903 0.0
H553 H 0.80251 0.30157 0.81002 0.0
C554 C 0.83114 0.34017 0.66833 0.0
C555 C 0.84987 0.36118 0.60409 0.0
C556 C 0.83549 0.34346 0.78477 0.0
C557 C 0.87129 0.38654 0.65638 0.0
C558 C 0.87486 0.39051 0.77245 0.0
C559 C 0.8638 0.37112 0.95276 0.0
C560 C 0.84892 0.34814 0.0155 0.0
C561 C 0.85774 0.36873 0.83726 0.0
C562 C 0.82654 0.32331 0.96299 0.0
C563 C 0.81944 0.32116 0.84892 0.0
H564 H 0.33117 0.81195 0.28186 0.0
H565 H 0.41132 0.88633 0.37462 0.0
H566 H 0.41955 0.89449 0.17768 0.0
H567 H 0.40146 0.88314 -0.01893 0.0
H568 H 0.31798 0.81272 0.89183 0.0
H569 H 0.31384 0.79969 0.08395 0.0
C570 C 0.35067 0.82958 0.25838 0.0
C571 C 0.37062 0.84856 0.34154 0.0
C572 C 0.35464 0.83472 0.1454 0.0
C573 C 0.39564 0.8716 0.31119 0.0
C574 C 0.40032 0.87625 0.19889 0.0
C575 C 0.38259 0.86467 0.00333 0.0
C576 C 0.36039 0.84842 0.92149 0.0
C577 C 0.37959 0.85837 0.11543 0.0
C578 C 0.33588 0.82484 0.9521 0.0
C579 C 0.33327 0.81768 0.06253 0.0
H580 H 0.1579 0.52306 0.01192 0.0
H581 H 0.22807 0.50743 -0.00235 0.0
H582 H 0.22446 0.497 0.19332 0.0
H583 H 0.20256 0.49419 0.36719 0.0
H584 H 0.13353 0.51138 0.38434 0.0
H585 H 0.13479 0.51859 0.18497 0.0
C586 C 0.17254 0.51765 0.05235 0.0
C587 C 0.19333 0.51618 -0.00703 0.0
C588 C 0.17014 0.51147 0.16309 0.0
C589 C 0.21196 0.50868 0.0438 0.0
C590 C 0.20982 0.5026 0.15462 0.0
C591 C 0.18744 0.49894 0.32649 0.0
C592 C 0.16813 0.50246 0.38804 0.0
C593 C 0.189 0.50396 0.21461 0.0
C594 C 0.14869 0.50885 0.33655 0.0
C595 C 0.14952 0.51311 0.22369 0.0
H596 H 0.47088 0.67127 0.29966 0.0
H597 H 0.54585 0.66759 0.40533 0.0
H598 H 0.55482 0.66253 0.21066 0.0
H599 H 0.54214 0.66072 0.01193 0.0
H600 H 0.46747 0.66493 0.90647 0.0
H601 H 0.45744 0.66812 0.10107 0.0
C602 C 0.4892 0.66938 0.28018 0.0
C603 C 0.50777 0.6699 0.36629 0.0
C604 C 0.49421 0.66655 0.16873 0.0
C605 C 0.53131 0.66728 0.3401 0.0
C606 C 0.53643 0.66437 0.22906 0.0
C607 C 0.52352 0.66207 0.03144 0.0
C608 C 0.50563 0.66277 0.94548 0.0
C609 C 0.51808 0.66414 0.14292 0.0
C610 C 0.48162 0.66458 0.97167 0.0
C611 C 0.47591 0.66641 0.08265 0.0
loop_
_geom_bond_atom_site_label_1
_geom_bond_atom_site_label_2
_geom_bond_distance
_geom_bond_site_symmetry_2
_ccdc_geom_bond_type
Zn0 O6 1.969 1_455 S
Zn0 O7 1.962 1_455 S
Zn0 O11 2.024 . S
Zn0 O16 1.969 1_554 S
Zn1 O8 1.969 . S
Zn1 O14 1.969 . S
Zn1 O15 1.965 1_554 S
Zn1 O17 2.024 1_455 S
C2 O3 1.229 1_554 S
C2 O11 1.058 . S
O3 C2 1.229 1_556 S
C4 O5 1.229 . S
C4 O17 1.058 . S
O5 C4 1.229 . S
O6 Zn0 1.969 1_655 S
O6 C9 1.267 . S
O7 Zn0 1.962 1_655 S
O7 C18 1.260 1_655 S
O8 Zn1 1.969 . S
O8 C18 1.258 . S
C9 O6 1.267 . S
C9 O10 1.228 . S
O10 C9 1.228 . S
O11 Zn0 2.024 . S
O11 C2 1.058 . S
C12 O13 1.228 . S
C12 O14 1.267 1_556 S
O13 C12 1.228 . S
O14 Zn1 1.969 . S
O14 C12 1.267 1_554 S
O15 Zn1 1.965 1_556 S
O15 C19 1.260 . S
O16 Zn0 1.969 1_556 S
O16 C19 1.258 . S
O17 Zn1 2.024 1_655 S
O17 C4 1.058 . S
C18 O7 1.260 1_455 S
C18 O8 1.258 . S
C19 O15 1.260 . S
C19 O16 1.258 . S
Zn20 O26 1.969 . S
Zn20 O27 1.965 1_554 S
Zn20 O31 2.024 . S
Zn20 O36 1.969 . S
Zn21 O28 1.969 1_554 S
Zn21 O34 1.969 . S
Zn21 O35 1.965 . S
Zn21 O37 2.024 . S
C22 O23 1.229 . S
C22 O31 1.058 . S
O23 C22 1.229 . S
C24 O25 1.229 1_554 S
C24 O37 1.058 . S
O25 C24 1.229 1_556 S
O26 Zn20 1.969 . S
O26 C29 1.267 1_554 S
O27 Zn20 1.965 1_556 S
O27 C38 1.260 . S
O28 Zn21 1.969 1_556 S
O28 C38 1.258 . S
C29 O26 1.267 1_556 S
C29 O30 1.228 . S
O30 C29 1.228 . S
O31 Zn20 2.024 . S
O31 C22 1.058 . S
C32 O33 1.228 . S
C32 O34 1.267 . S
O33 C32 1.228 . S
O34 Zn21 1.969 . S
O34 C32 1.267 . S
O35 Zn21 1.965 . S
O35 C39 1.260 . S
O36 Zn20 1.969 . S
O36 C39 1.258 . S
O37 Zn21 2.024 . S
O37 C24 1.058 . S
C38 O27 1.260 . S
C38 O28 1.258 . S
C39 O35 1.260 . S
C39 O36 1.258 . S
Zn40 O46 1.970 . S
Zn40 O47 1.961 1_556 S
Zn40 O51 2.022 1_546 S
Zn40 O56 1.975 . S
Zn41 O48 1.969 . S
Zn41 O54 1.969 1_545 S
Zn41 O55 1.965 1_544 S
Zn41 O57 2.024 1_554 S
C42 O43 1.229 . S
C42 O51 1.058 1_556 S
O43 C42 1.229 . S
C44 O45 1.229 . S
C44 O57 1.058 1_554 S
O45 C44 1.229 . S
O46 Zn40 1.970 . S
O46 C49 1.267 1_556 S
O47 Zn40 1.961 1_554 S
O47 C58 1.260 . S
O48 Zn41 1.969 . S
O48 C58 1.258 . S
C49 O46 1.267 1_554 S
C49 O50 1.228 . S
O50 C49 1.228 . S
O51 Zn40 2.022 1_564 S
O51 C42 1.058 1_554 S
C52 O53 1.228 . S
C52 O54 1.267 1_556 S
O53 C52 1.228 . S
O54 Zn41 1.969 1_565 S
O54 C52 1.267 1_554 S
O55 Zn41 1.965 1_566 S
O55 C59 1.260 1_565 S
O56 Zn40 1.975 . S
O56 C59 1.258 . S
O57 Zn41 2.024 1_556 S
O57 C44 1.058 1_556 S
C58 O47 1.260 . S
C58 O48 1.258 . S
C59 O55 1.260 1_545 S
C59 O56 1.258 . S
Zn60 O66 1.969 . S
Zn60 O67 1.965 . S
Zn60 O71 2.024 . S
Zn60 O76 1.969 . S
Zn61 O68 1.969 . S
Zn61 O74 1.969 . S
Zn61 O75 1.965 . S
Zn61 O77 2.024 . S
C62 O63 1.229 . S
C62 O71 1.058 . S
O63 C62 1.229 . S
C64 O65 1.229 . S
C64 O77 1.058 . S
O65 C64 1.229 . S
O66 Zn60 1.969 . S
O66 C69 1.267 . S
O67 Zn60 1.965 . S
O67 C78 1.260 . S
O68 Zn61 1.969 . S
O68 C78 1.258 . S
C69 O66 1.267 . S
C69 O70 1.228 . S
O70 C69 1.228 . S
O71 Zn60 2.024 . S
O71 C62 1.058 . S
C72 O73 1.228 . S
C72 O74 1.267 . S
O73 C72 1.228 . S
O74 Zn61 1.969 . S
O74 C72 1.267 . S
O75 Zn61 1.965 . S
O75 C79 1.260 . S
O76 Zn60 1.969 . S
O76 C79 1.258 . S
O77 Zn61 2.024 . S
O77 C64 1.058 . S
C78 O67 1.260 . S
C78 O68 1.258 . S
C79 O75 1.260 . S
C79 O76 1.258 . S
Zn80 O86 1.969 . S
Zn80 O87 1.965 . S
Zn80 O91 2.024 . S
Zn80 O96 1.969 . S
Zn81 O88 1.969 . S
Zn81 O94 1.969 . S
Zn81 O95 1.965 . S
Zn81 O97 2.024 . S
C82 O83 1.229 . S
C82 O91 1.058 . S
O83 C82 1.229 . S
C84 O85 1.229 . S
C84 O97 1.058 . S
O85 C84 1.229 . S
O86 Zn80 1.969 . S
O86 C89 1.267 . S
O87 Zn80 1.965 . S
O87 C98 1.260 . S
O88 Zn81 1.969 . S
O88 C98 1.258 . S
C89 O86 1.267 . S
C89 O90 1.228 . S
O90 C89 1.228 . S
O91 Zn80 2.024 . S
O91 C82 1.058 . S
C92 O93 1.228 . S
C92 O94 1.267 . S
O93 C92 1.228 . S
O94 Zn81 1.969 . S
O94 C92 1.267 . S
O95 Zn81 1.965 . S
O95 C99 1.260 . S
O96 Zn80 1.969 . S
O96 C99 1.258 . S
O97 Zn81 2.024 . S
O97 C84 1.058 . S
C98 O87 1.260 . S
C98 O88 1.258 . S
C99 O95 1.260 . S
C99 O96 1.258 . S
Zn100 O106 1.969 . S
Zn100 O107 1.965 . S
Zn100 O111 2.024 . S
Zn100 O116 1.969 . S
Zn101 O108 1.969 . S
Zn101 O114 1.969 . S
Zn101 O115 1.965 . S
Zn101 O117 2.024 . S
C102 O103 1.229 . S
C102 O111 1.058 . S
O103 C102 1.229 . S
C104 O105 1.229 . S
C104 O117 1.058 . S
O105 C104 1.229 . S
O106 Zn100 1.969 . S
O106 C109 1.267 . S
O107 Zn100 1.965 . S
O107 C118 1.260 . S
O108 Zn101 1.969 . S
O108 C118 1.258 . S
C109 O106 1.267 . S
C109 O110 1.228 . S
O110 C109 1.228 . S
O111 Zn100 2.024 . S
O111 C102 1.058 . S
C112 O113 1.228 . S
C112 O114 1.267 . S
O113 C112 1.228 . S
O114 Zn101 1.969 . S
O114 C112 1.267 . S
O115 Zn101 1.965 . S
O115 C119 1.260 . S
O116 Zn100 1.969 . S
O116 C119 1.258 . S
O117 Zn101 2.024 . S
O117 C104 1.058 . S
C118 O107 1.260 . S
C118 O108 1.258 . S
C119 O115 1.260 . S
C119 O116 1.258 . S
Zn120 O126 1.969 . S
Zn120 O127 1.965 . S
Zn120 O131 2.024 . S
Zn120 O136 1.969 . S
Zn121 O128 1.969 . S
Zn121 O134 1.969 . S
Zn121 O135 1.965 . S
Zn121 O137 2.024 . S
C122 O123 1.229 . S
C122 O131 1.058 . S
O123 C122 1.229 . S
C124 O125 1.229 . S
C124 O137 1.058 . S
O125 C124 1.229 . S
O126 Zn120 1.969 . S
O126 C129 1.267 . S
O127 Zn120 1.965 . S
O127 C138 1.260 . S
O128 Zn121 1.969 . S
O128 C138 1.258 . S
C129 O126 1.267 . S
C129 O130 1.228 . S
O130 C129 1.228 . S
O131 Zn120 2.024 . S
O131 C122 1.058 . S
C132 O133 1.228 . S
C132 O134 1.267 . S
O133 C132 1.228 . S
O134 Zn121 1.969 . S
O134 C132 1.267 . S
O135 Zn121 1.965 . S
O135 C139 1.260 . S
O136 Zn120 1.969 . S
O136 C139 1.258 . S
O137 Zn121 2.024 . S
O137 C124 1.058 . S
C138 O127 1.260 . S
C138 O128 1.258 . S
C139 O135 1.260 . S
C139 O136 1.258 . S
Zn140 O146 1.969 . S
Zn140 O147 1.965 . S
Zn140 O151 2.024 . S
Zn140 O156 1.969 . S
Zn141 O148 1.969 . S
Zn141 O154 1.969 . S
Zn141 O155 1.965 . S
Zn141 O157 2.024 . S
C142 O143 1.229 . S
C142 O151 1.058 . S
O143 C142 1.229 . S
C144 O145 1.229 . S
C144 O157 1.058 . S
O145 C144 1.229 . S
O146 Zn140 1.969 . S
O146 C149 1.267 . S
O147 Zn140 1.965 . S
O147 C158 1.260 . S
O148 Zn141 1.969 . S
O148 C158 1.258 . S
C149 O146 1.267 . S
C149 O150 1.228 . S
O150 C149 1.228 . S
O151 Zn140 2.024 . S
O151 C142 1.058 . S
C152 O153 1.228 . S
C152 O154 1.267 . S
O153 C152 1.228 . S
O154 Zn141 1.969 . S
O154 C152 1.267 . S
O155 Zn141 1.965 . S
O155 C159 1.260 . S
O156 Zn140 1.969 . S
O156 C159 1.258 . S
O157 Zn141 2.024 . S
O157 C144 1.058 . S
C158 O147 1.260 . S
C158 O148 1.258 . S
C159 O155 1.260 . S
C159 O156 1.258 . S
Zn160 O166 1.969 . S
Zn160 O167 1.965 . S
Zn160 O171 2.024 . S
Zn160 O176 1.969 . S
Zn161 O168 1.969 . S
Zn161 O174 1.969 . S
Zn161 O175 1.965 . S
Zn161 O177 2.024 . S
C162 O163 1.229 . S
C162 O171 1.058 . S
O163 C162 1.229 . S
C164 O165 1.229 . S
C164 O177 1.058 . S
O165 C164 1.229 . S
O166 Zn160 1.969 . S
O166 C169 1.267 . S
O167 Zn160 1.965 . S
O167 C178 1.260 . S
O168 Zn161 1.969 . S
O168 C178 1.258 . S
C169 O166 1.267 . S
C169 O170 1.228 . S
O170 C169 1.228 . S
O171 Zn160 2.024 . S
O171 C162 1.058 . S
C172 O173 1.228 . S
C172 O174 1.267 . S
O173 C172 1.228 . S
O174 Zn161 1.969 . S
O174 C172 1.267 . S
O175 Zn161 1.965 . S
O175 C179 1.260 . S
O176 Zn160 1.969 . S
O176 C179 1.258 . S
O177 Zn161 2.024 . S
O177 C164 1.058 . S
C178 O167 1.260 . S
C178 O168 1.258 . S
C179 O175 1.260 . S
C179 O176 1.258 . S
H180 C186 0.930 . S
H181 C189 0.930 . S
H182 C190 0.930 . S
H183 C191 0.930 . S
H184 C194 0.930 . S
H185 C195 0.930 . S
C186 H180 0.930 . S
C186 C187 1.355 . S
C186 C188 1.415 . S
C187 C186 1.355 . S
C187 C189 1.419 . S
C188 C186 1.415 . S
C188 C193 1.425 . S
C188 C195 1.409 . S
C189 H181 0.930 . S
C189 C187 1.419 . S
C189 C190 1.362 . S
C190 H182 0.930 . S
C190 C189 1.362 . S
C190 C193 1.409 . S
C191 H183 0.930 . S
C191 C192 1.355 . S
C191 C193 1.415 . S
C192 C191 1.355 . S
C192 C194 1.419 . S
C193 C188 1.425 . S
C193 C190 1.409 . S
C193 C191 1.415 . S
C194 H184 0.930 . S
C194 C192 1.419 . S
C194 C195 1.362 . S
C195 H185 0.930 . S
C195 C188 1.409 . S
C195 C194 1.362 . S
H196 C202 0.930 . S
H197 C205 0.930 1_554 S
H198 C206 0.930 . S
H199 C207 0.930 . S
H200 C210 0.930 . S
H201 C211 0.930 . S
C202 H196 0.930 . S
C202 C203 1.355 . S
C202 C204 1.415 . S
C203 C202 1.355 . S
C203 C205 1.419 . S
C204 C202 1.415 . S
C204 C209 1.425 . S
C204 C211 1.409 . S
C205 H197 0.930 1_556 S
C205 C203 1.419 . S
C205 C206 1.362 . S
C206 H198 0.930 . S
C206 C205 1.362 . S
C206 C209 1.409 . S
C207 H199 0.930 . S
C207 C208 1.355 . S
C207 C209 1.415 . S
C208 C207 1.355 . S
C208 C210 1.419 . S
C209 C204 1.425 . S
C209 C206 1.409 . S
C209 C207 1.415 . S
C210 H200 0.930 . S
C210 C208 1.419 . S
C210 C211 1.362 . S
C211 H201 0.930 . S
C211 C204 1.409 . S
C211 C210 1.362 . S
H212 C218 0.930 . S
H213 C221 0.930 . S
H214 C222 0.930 . S
H215 C223 0.930 . S
H216 C226 0.930 . S
H217 C227 0.930 . S
C218 H212 0.930 . S
C218 C219 1.355 . S
C218 C220 1.415 . S
C219 C218 1.355 . S
C219 C221 1.419 . S
C220 C218 1.415 . S
C220 C225 1.425 . S
C220 C227 1.409 . S
C221 H213 0.930 . S
C221 C219 1.419 . S
C221 C222 1.362 . S
C222 H214 0.930 . S
C222 C221 1.362 . S
C222 C225 1.409 . S
C223 H215 0.930 . S
C223 C224 1.355 . S
C223 C225 1.415 . S
C224 C223 1.355 . S
C224 C226 1.419 . S
C225 C220 1.425 . S
C225 C222 1.409 . S
C225 C223 1.415 . S
C226 H216 0.930 . S
C226 C224 1.419 . S
C226 C227 1.362 . S
C227 H217 0.930 . S
C227 C220 1.409 . S
C227 C226 1.362 . S
H228 C234 0.930 . S
H229 C237 0.930 . S
H230 C238 0.930 1_556 S
H231 C239 0.930 1_556 S
H232 C242 0.930 . S
H233 C243 0.930 . S
C234 H228 0.930 . S
C234 C235 1.355 . S
C234 C236 1.415 . S
C235 C234 1.355 . S
C235 C237 1.419 . S
C236 C234 1.415 . S
C236 C241 1.425 . S
C236 C243 1.409 . S
C237 H229 0.930 . S
C237 C235 1.419 . S
C237 C238 1.362 . S
C238 H230 0.930 1_554 S
C238 C237 1.362 . S
C238 C241 1.409 . S
C239 H231 0.930 1_554 S
C239 C240 1.355 . S
C239 C241 1.415 . S
C240 C239 1.355 . S
C240 C242 1.419 . S
C241 C236 1.425 . S
C241 C238 1.409 . S
C241 C239 1.415 . S
C242 H232 0.930 . S
C242 C240 1.419 . S
C242 C243 1.362 . S
C243 H233 0.930 . S
C243 C236 1.409 . S
C243 C242 1.362 . S
H244 C250 0.930 . S
H245 C253 0.930 . S
H246 C254 0.930 . S
H247 C255 0.930 . S
H248 C258 0.930 . S
H249 C259 0.930 . S
C250 H244 0.930 . S
C250 C251 1.355 . S
C250 C252 1.415 . S
C251 C250 1.355 . S
C251 C253 1.419 . S
C252 C250 1.415 . S
C252 C257 1.425 . S
C252 C259 1.409 . S
C253 H245 0.930 . S
C253 C251 1.419 . S
C253 C254 1.362 . S
C254 H246 0.930 . S
C254 C253 1.362 . S
C254 C257 1.409 . S
C255 H247 0.930 . S
C255 C256 1.355 . S
C255 C257 1.415 . S
C256 C255 1.355 . S
C256 C258 1.419 . S
C257 C252 1.425 . S
C257 C254 1.409 . S
C257 C255 1.415 . S
C258 H248 0.930 . S
C258 C256 1.419 . S
C258 C259 1.362 . S
C259 H249 0.930 . S
C259 C252 1.409 . S
C259 C258 1.362 . S
H260 C266 0.930 . S
H261 C269 0.930 . S
H262 C270 0.930 . S
H263 C271 0.930 . S
H264 C274 0.930 . S
H265 C275 0.930 . S
C266 H260 0.930 . S
C266 C267 1.355 . S
C266 C268 1.415 . S
C267 C266 1.355 . S
C267 C269 1.419 . S
C268 C266 1.415 . S
C268 C273 1.425 . S
C268 C275 1.409 . S
C269 H261 0.930 . S
C269 C267 1.419 . S
C269 C270 1.362 . S
C270 H262 0.930 . S
C270 C269 1.362 . S
C270 C273 1.409 . S
C271 H263 0.930 . S
C271 C272 1.355 . S
C271 C273 1.415 . S
C272 C271 1.355 . S
C272 C274 1.419 . S
C273 C268 1.425 . S
C273 C270 1.409 . S
C273 C271 1.415 . S
C274 H264 0.930 . S
C274 C272 1.419 . S
C274 C275 1.362 . S
C275 H265 0.930 . S
C275 C268 1.409 . S
C275 C274 1.362 . S
H276 C282 0.930 . S
H277 C285 0.930 . S
H278 C286 0.930 . S
H279 C287 0.930 . S
H280 C290 0.930 . S
H281 C291 0.930 . S
C282 H276 0.930 . S
C282 C283 1.355 . S
C282 C284 1.415 . S
C283 C282 1.355 . S
C283 C285 1.419 . S
C284 C282 1.415 . S
C284 C289 1.425 . S
C284 C291 1.409 . S
C285 H277 0.930 . S
C285 C283 1.419 . S
C285 C286 1.362 . S
C286 H278 0.930 . S
C286 C285 1.362 . S
C286 C289 1.409 . S
C287 H279 0.930 . S
C287 C288 1.355 . S
C287 C289 1.415 1_655 S
C288 C287 1.355 . S
C288 C290 1.419 . S
C289 C284 1.425 . S
C289 C286 1.409 . S
C289 C287 1.415 1_455 S
C290 H280 0.930 . S
C290 C288 1.419 . S
C290 C291 1.362 1_655 S
C291 H281 0.930 . S
C291 C284 1.409 . S
C291 C290 1.362 1_455 S
H292 C298 0.930 . S
H293 C301 0.930 . S
H294 C302 0.930 . S
H295 C303 0.930 . S
H296 C306 0.930 . S
H297 C307 0.930 . S
C298 H292 0.930 . S
C298 C299 1.355 . S
C298 C300 1.415 . S
C299 C298 1.355 . S
C299 C301 1.419 . S
C300 C298 1.415 . S
C300 C305 1.425 . S
C300 C307 1.409 . S
C301 H293 0.930 . S
C301 C299 1.419 . S
C301 C302 1.362 . S
C302 H294 0.930 . S
C302 C301 1.362 . S
C302 C305 1.409 . S
C303 H295 0.930 . S
C303 C304 1.355 . S
C303 C305 1.415 . S
C304 C303 1.355 . S
C304 C306 1.419 . S
C305 C300 1.425 . S
C305 C302 1.409 . S
C305 C303 1.415 . S
C306 H296 0.930 . S
C306 C304 1.419 . S
C306 C307 1.362 . S
C307 H297 0.930 . S
C307 C300 1.409 . S
C307 C306 1.362 . S
H308 C314 0.930 . S
H309 C317 0.930 . S
H310 C318 0.930 . S
H311 C319 0.930 . S
H312 C322 0.930 . S
H313 C323 0.930 . S
C314 H308 0.930 . S
C314 C315 1.355 . S
C314 C316 1.415 . S
C315 C314 1.355 . S
C315 C317 1.419 . S
C316 C314 1.415 . S
C316 C321 1.425 . S
C316 C323 1.409 1_545 S
C317 H309 0.930 . S
C317 C315 1.419 . S
C317 C318 1.362 . S
C318 H310 0.930 . S
C318 C317 1.362 . S
C318 C321 1.409 . S
C319 H311 0.930 . S
C319 C320 1.355 . S
C319 C321 1.415 1_565 S
C320 C319 1.355 . S
C320 C322 1.419 . S
C321 C316 1.425 . S
C321 C318 1.409 . S
C321 C319 1.415 1_545 S
C322 H312 0.930 . S
C322 C320 1.419 . S
C322 C323 1.362 . S
C323 H313 0.930 . S
C323 C316 1.409 1_565 S
C323 C322 1.362 . S
H324 C330 0.930 . S
H325 C333 0.930 . S
H326 C334 0.930 . S
H327 C335 0.930 . S
H328 C338 0.930 . S
H329 C339 0.930 . S
C330 H324 0.930 . S
C330 C331 1.355 . S
C330 C332 1.415 . S
C331 C330 1.355 . S
C331 C333 1.419 . S
C332 C330 1.415 . S
C332 C337 1.425 . S
C332 C339 1.409 1_554 S
C333 H325 0.930 . S
C333 C331 1.419 . S
C333 C334 1.362 . S
C334 H326 0.930 . S
C334 C333 1.362 . S
C334 C337 1.409 . S
C335 H327 0.930 . S
C335 C336 1.355 . S
C335 C337 1.415 . S
C336 C335 1.355 . S
C336 C338 1.419 1_554 S
C337 C332 1.425 . S
C337 C334 1.409 . S
C337 C335 1.415 . S
C338 H328 0.930 . S
C338 C336 1.419 1_556 S
C338 C339 1.362 . S
C339 H329 0.930 . S
C339 C332 1.409 1_556 S
C339 C338 1.362 . S
H340 C346 0.930 . S
H341 C349 0.930 . S
H342 C350 0.930 1_545 S
H343 C351 0.930 . S
H344 C354 0.930 . S
H345 C355 0.930 1_556 S
C346 H340 0.930 . S
C346 C347 1.355 1_556 S
C346 C348 1.415 1_566 S
C347 C346 1.355 1_554 S
C347 C349 1.419 . S
C348 C346 1.415 1_544 S
C348 C353 1.425 . S
C348 C355 1.409 . S
C349 H341 0.930 . S
C349 C347 1.419 . S
C349 C350 1.362 . S
C350 H342 0.930 1_565 S
C350 C349 1.362 . S
C350 C353 1.409 1_565 S
C351 H343 0.930 . S
C351 C352 1.355 . S
C351 C353 1.415 . S
C352 C351 1.355 . S
C352 C354 1.419 . S
C353 C348 1.425 . S
C353 C350 1.409 1_545 S
C353 C351 1.415 . S
C354 H344 0.930 . S
C354 C352 1.419 . S
C354 C355 1.362 . S
C355 H345 0.930 1_554 S
C355 C348 1.409 . S
C355 C354 1.362 . S
H356 C362 0.930 . S
H357 C365 0.930 . S
H358 C366 0.930 . S
H359 C367 0.930 . S
H360 C370 0.930 . S
H361 C371 0.930 . S
C362 H356 0.930 . S
C362 C363 1.355 1_556 S
C362 C364 1.415 1_655 S
C363 C362 1.355 1_554 S
C363 C365 1.419 . S
C364 C362 1.415 1_455 S
C364 C369 1.425 1_556 S
C364 C371 1.409 . S
C365 H357 0.930 . S
C365 C363 1.419 . S
C365 C366 1.362 1_655 S
C366 H358 0.930 . S
C366 C365 1.362 1_455 S
C366 C369 1.409 . S
C367 H359 0.930 . S
C367 C368 1.355 1_554 S
C367 C369 1.415 . S
C368 C367 1.355 1_556 S
C368 C370 1.419 . S
C369 C364 1.425 1_554 S
C369 C366 1.409 . S
C369 C367 1.415 . S
C370 H360 0.930 . S
C370 C368 1.419 . S
C370 C371 1.362 . S
C371 H361 0.930 . S
C371 C364 1.409 . S
C371 C370 1.362 . S
H372 C378 0.930 . S
H373 C381 0.930 . S
H374 C382 0.930 . S
H375 C383 0.930 . S
H376 C386 0.930 . S
H377 C387 0.930 . S
C378 H372 0.930 . S
C378 C379 1.355 . S
C378 C380 1.415 . S
C379 C378 1.355 . S
C379 C381 1.419 . S
C380 C378 1.415 . S
C380 C385 1.425 . S
C380 C387 1.409 . S
C381 H373 0.930 . S
C381 C379 1.419 . S
C381 C382 1.362 . S
C382 H374 0.930 . S
C382 C381 1.362 . S
C382 C385 1.409 . S
C383 H375 0.930 . S
C383 C384 1.355 . S
C383 C385 1.415 . S
C384 C383 1.355 . S
C384 C386 1.419 . S
C385 C380 1.425 . S
C385 C382 1.409 . S
C385 C383 1.415 . S
C386 H376 0.930 . S
C386 C384 1.419 . S
C386 C387 1.362 . S
C387 H377 0.930 . S
C387 C380 1.409 . S
C387 C386 1.362 . S
H388 C394 0.930 . S
H389 C397 0.930 . S
H390 C398 0.930 . S
H391 C399 0.930 . S
H392 C402 0.930 . S
H393 C403 0.930 . S
C394 H388 0.930 . S
C394 C395 1.355 . S
C394 C396 1.415 . S
C395 C394 1.355 . S
C395 C397 1.419 . S
C396 C394 1.415 . S
C396 C401 1.425 . S
C396 C403 1.409 . S
C397 H389 0.930 . S
C397 C395 1.419 . S
C397 C398 1.362 . S
C398 H390 0.930 . S
C398 C397 1.362 . S
C398 C401 1.409 . S
C399 H391 0.930 . S
C399 C400 1.355 . S
C399 C401 1.415 . S
C400 C399 1.355 . S
C400 C402 1.419 . S
C401 C396 1.425 . S
C401 C398 1.409 . S
C401 C399 1.415 . S
C402 H392 0.930 . S
C402 C400 1.419 . S
C402 C403 1.362 . S
C403 H393 0.930 . S
C403 C396 1.409 . S
C403 C402 1.362 . S
H404 C410 0.930 . S
H405 C413 0.930 . S
H406 C414 0.930 . S
H407 C415 0.930 . S
H408 C418 0.930 . S
H409 C419 0.930 . S
C410 H404 0.930 . S
C410 C411 1.355 . S
C410 C412 1.415 . S
C411 C410 1.355 . S
C411 C413 1.419 . S
C412 C410 1.415 . S
C412 C417 1.425 . S
C412 C419 1.409 . S
C413 H405 0.930 . S
C413 C411 1.419 . S
C413 C414 1.362 . S
C414 H406 0.930 . S
C414 C413 1.362 . S
C414 C417 1.409 . S
C415 H407 0.930 . S
C415 C416 1.355 . S
C415 C417 1.415 . S
C416 C415 1.355 . S
C416 C418 1.419 . S
C417 C412 1.425 . S
C417 C414 1.409 . S
C417 C415 1.415 . S
C418 H408 0.930 . S
C418 C416 1.419 . S
C418 C419 1.362 . S
C419 H409 0.930 . S
C419 C412 1.409 . S
C419 C418 1.362 . S
H420 C426 0.930 . S
H421 C429 0.930 . S
H422 C430 0.930 . S
H423 C431 0.930 . S
H424 C434 0.930 . S
H425 C435 0.930 . S
C426 H420 0.930 . S
C426 C427 1.355 . S
C426 C428 1.415 . S
C427 C426 1.355 . S
C427 C429 1.419 . S
C428 C426 1.415 . S
C428 C433 1.425 . S
C428 C435 1.409 . S
C429 H421 0.930 . S
C429 C427 1.419 . S
C429 C430 1.362 . S
C430 H422 0.930 . S
C430 C429 1.362 . S
C430 C433 1.409 . S
C431 H423 0.930 . S
C431 C432 1.355 . S
C431 C433 1.415 . S
C432 C431 1.355 . S
C432 C434 1.419 . S
C433 C428 1.425 . S
C433 C430 1.409 . S
C433 C431 1.415 . S
C434 H424 0.930 . S
C434 C432 1.419 . S
C434 C435 1.362 . S
C435 H425 0.930 . S
C435 C428 1.409 . S
C435 C434 1.362 . S
H436 C442 0.930 . S
H437 C445 0.930 . S
H438 C446 0.930 . S
H439 C447 0.930 . S
H440 C450 0.930 . S
H441 C451 0.930 . S
C442 H436 0.930 . S
C442 C443 1.355 . S
C442 C444 1.415 . S
C443 C442 1.355 . S
C443 C445 1.419 . S
C444 C442 1.415 . S
C444 C449 1.425 . S
C444 C451 1.409 . S
C445 H437 0.930 . S
C445 C443 1.419 . S
C445 C446 1.362 . S
C446 H438 0.930 . S
C446 C445 1.362 . S
C446 C449 1.409 . S
C447 H439 0.930 . S
C447 C448 1.355 . S
C447 C449 1.415 . S
C448 C447 1.355 . S
C448 C450 1.419 . S
C449 C444 1.425 . S
C449 C446 1.409 . S
C449 C447 1.415 . S
C450 H440 0.930 . S
C450 C448 1.419 . S
C450 C451 1.362 . S
C451 H441 0.930 . S
C451 C444 1.409 . S
C451 C450 1.362 . S
H452 C458 0.930 . S
H453 C461 0.930 . S
H454 C462 0.930 . S
H455 C463 0.930 . S
H456 C466 0.930 . S
H457 C467 0.930 . S
C458 H452 0.930 . S
C458 C459 1.355 . S
C458 C460 1.415 . S
C459 C458 1.355 . S
C459 C461 1.419 . S
C460 C458 1.415 . S
C460 C465 1.425 . S
C460 C467 1.409 . S
C461 H453 0.930 . S
C461 C459 1.419 . S
C461 C462 1.362 . S
C462 H454 0.930 . S
C462 C461 1.362 . S
C462 C465 1.409 . S
C463 H455 0.930 . S
C463 C464 1.355 . S
C463 C465 1.415 . S
C464 C463 1.355 . S
C464 C466 1.419 . S
C465 C460 1.425 . S
C465 C462 1.409 . S
C465 C463 1.415 . S
C466 H456 0.930 . S
C466 C464 1.419 . S
C466 C467 1.362 . S
C467 H457 0.930 . S
C467 C460 1.409 . S
C467 C466 1.362 . S
H468 C474 0.930 1_655 S
H469 C477 0.930 . S
H470 C478 0.930 . S
H471 C479 0.930 . S
H472 C482 0.930 . S
H473 C483 0.930 . S
C474 H468 0.930 1_455 S
C474 C475 1.355 . S
C474 C476 1.415 . S
C475 C474 1.355 . S
C475 C477 1.419 . S
C476 C474 1.415 . S
C476 C481 1.425 . S
C476 C483 1.409 1_455 S
C477 H469 0.930 . S
C477 C475 1.419 . S
C477 C478 1.362 . S
C478 H470 0.930 . S
C478 C477 1.362 . S
C478 C481 1.409 . S
C479 H471 0.930 . S
C479 C480 1.355 . S
C479 C481 1.415 . S
C480 C479 1.355 . S
C480 C482 1.419 1_455 S
C481 C476 1.425 . S
C481 C478 1.409 . S
C481 C479 1.415 . S
C482 H472 0.930 . S
C482 C480 1.419 1_655 S
C482 C483 1.362 . S
C483 H473 0.930 . S
C483 C476 1.409 1_655 S
C483 C482 1.362 . S
H484 C490 0.930 . S
H485 C493 0.930 . S
H486 C494 0.930 . S
H487 C495 0.930 . S
H488 C498 0.930 . S
H489 C499 0.930 . S
C490 H484 0.930 . S
C490 C491 1.355 . S
C490 C492 1.415 . S
C491 C490 1.355 . S
C491 C493 1.419 . S
C492 C490 1.415 . S
C492 C497 1.425 . S
C492 C499 1.409 . S
C493 H485 0.930 . S
C493 C491 1.419 . S
C493 C494 1.362 . S
C494 H486 0.930 . S
C494 C493 1.362 . S
C494 C497 1.409 . S
C495 H487 0.930 . S
C495 C496 1.355 . S
C495 C497 1.415 . S
C496 C495 1.355 . S
C496 C498 1.419 . S
C497 C492 1.425 . S
C497 C494 1.409 . S
C497 C495 1.415 . S
C498 H488 0.930 . S
C498 C496 1.419 . S
C498 C499 1.362 . S
C499 H489 0.930 . S
C499 C492 1.409 . S
C499 C498 1.362 . S
H500 C506 0.930 . S
H501 C509 0.930 . S
H502 C510 0.930 . S
H503 C511 0.930 . S
H504 C514 0.930 . S
H505 C515 0.930 . S
C506 H500 0.930 . S
C506 C507 1.355 . S
C506 C508 1.415 . S
C507 C506 1.355 . S
C507 C509 1.419 1_545 S
C508 C506 1.415 . S
C508 C513 1.425 1_545 S
C508 C515 1.409 . S
C509 H501 0.930 . S
C509 C507 1.419 1_565 S
C509 C510 1.362 . S
C510 H502 0.930 . S
C510 C509 1.362 . S
C510 C513 1.409 . S
C511 H503 0.930 . S
C511 C512 1.355 1_565 S
C511 C513 1.415 . S
C512 C511 1.355 1_545 S
C512 C514 1.419 . S
C513 C508 1.425 1_565 S
C513 C510 1.409 . S
C513 C511 1.415 . S
C514 H504 0.930 . S
C514 C512 1.419 . S
C514 C515 1.362 . S
C515 H505 0.930 . S
C515 C508 1.409 . S
C515 C514 1.362 . S
H516 C522 0.930 . S
H517 C525 0.930 . S
H518 C526 0.930 . S
H519 C527 0.930 . S
H520 C530 0.930 1_554 S
H521 C531 0.930 . S
C522 H516 0.930 . S
C522 C523 1.355 . S
C522 C524 1.415 . S
C523 C522 1.355 . S
C523 C525 1.419 . S
C524 C522 1.415 . S
C524 C529 1.425 . S
C524 C531 1.409 . S
C525 H517 0.930 . S
C525 C523 1.419 . S
C525 C526 1.362 . S
C526 H518 0.930 . S
C526 C525 1.362 . S
C526 C529 1.409 . S
C527 H519 0.930 . S
C527 C528 1.355 1_556 S
C527 C529 1.415 . S
C528 C527 1.355 1_554 S
C528 C530 1.419 1_554 S
C529 C524 1.425 . S
C529 C526 1.409 . S
C529 C527 1.415 . S
C530 H520 0.930 1_556 S
C530 C528 1.419 1_556 S
C530 C531 1.362 . S
C531 H521 0.930 . S
C531 C524 1.409 . S
C531 C530 1.362 . S
H532 C538 0.930 . S
H533 C541 0.930 . S
H534 C542 0.930 . S
H535 C543 0.930 . S
H536 C546 0.930 . S
H537 C547 0.930 . S
C538 H532 0.930 . S
C538 C539 1.355 . S
C538 C540 1.415 . S
C539 C538 1.355 . S
C539 C541 1.419 . S
C540 C538 1.415 . S
C540 C545 1.425 . S
C540 C547 1.409 . S
C541 H533 0.930 . S
C541 C539 1.419 . S
C541 C542 1.362 . S
C542 H534 0.930 . S
C542 C541 1.362 . S
C542 C545 1.409 . S
C543 H535 0.930 . S
C543 C544 1.355 . S
C543 C545 1.415 . S
C544 C543 1.355 . S
C544 C546 1.419 . S
C545 C540 1.425 . S
C545 C542 1.409 . S
C545 C543 1.415 . S
C546 H536 0.930 . S
C546 C544 1.419 . S
C546 C547 1.362 . S
C547 H537 0.930 . S
C547 C540 1.409 . S
C547 C546 1.362 . S
H548 C554 0.930 . S
H549 C557 0.930 . S
H550 C558 0.930 . S
H551 C559 0.930 . S
H552 C562 0.930 1_554 S
H553 C563 0.930 . S
C554 H548 0.930 . S
C554 C555 1.355 . S
C554 C556 1.415 . S
C555 C554 1.355 . S
C555 C557 1.419 . S
C556 C554 1.415 . S
C556 C561 1.425 . S
C556 C563 1.409 . S
C557 H549 0.930 . S
C557 C555 1.419 . S
C557 C558 1.362 . S
C558 H550 0.930 . S
C558 C557 1.362 . S
C558 C561 1.409 . S
C559 H551 0.930 . S
C559 C560 1.355 1_556 S
C559 C561 1.415 . S
C560 C559 1.355 1_554 S
C560 C562 1.419 1_554 S
C561 C556 1.425 . S
C561 C558 1.409 . S
C561 C559 1.415 . S
C562 H552 0.930 1_556 S
C562 C560 1.419 1_556 S
C562 C563 1.362 . S
C563 H553 0.930 . S
C563 C556 1.409 . S
C563 C562 1.362 . S
H564 C570 0.930 . S
H565 C573 0.930 . S
H566 C574 0.930 . S
H567 C575 0.930 . S
H568 C578 0.930 . S
H569 C579 0.930 . S
C570 H564 0.930 . S
C570 C571 1.355 . S
C570 C572 1.415 . S
C571 C570 1.355 . S
C571 C573 1.419 . S
C572 C570 1.415 . S
C572 C577 1.425 . S
C572 C579 1.409 . S
C573 H565 0.930 . S
C573 C571 1.419 . S
C573 C574 1.362 . S
C574 H566 0.930 . S
C574 C573 1.362 . S
C574 C577 1.409 . S
C575 H567 0.930 . S
C575 C576 1.355 1_554 S
C575 C577 1.415 . S
C576 C575 1.355 1_556 S
C576 C578 1.419 . S
C577 C572 1.425 . S
C577 C574 1.409 . S
C577 C575 1.415 . S
C578 H568 0.930 . S
C578 C576 1.419 . S
C578 C579 1.362 1_556 S
C579 H569 0.930 . S
C579 C572 1.409 . S
C579 C578 1.362 1_554 S
H580 C586 0.930 . S
H581 C589 0.930 1_556 S
H582 C590 0.930 . S
H583 C591 0.930 . S
H584 C594 0.930 . S
H585 C595 0.930 . S
C586 H580 0.930 . S
C586 C587 1.355 1_554 S
C586 C588 1.415 . S
C587 C586 1.355 1_556 S
C587 C589 1.419 1_556 S
C588 C586 1.415 . S
C588 C593 1.425 . S
C588 C595 1.409 . S
C589 H581 0.930 1_554 S
C589 C587 1.419 1_554 S
C589 C590 1.362 . S
C590 H582 0.930 . S
C590 C589 1.362 . S
C590 C593 1.409 . S
C591 H583 0.930 . S
C591 C592 1.355 . S
C591 C593 1.415 . S
C592 C591 1.355 . S
C592 C594 1.419 . S
C593 C588 1.425 . S
C593 C590 1.409 . S
C593 C591 1.415 . S
C594 H584 0.930 . S
C594 C592 1.419 . S
C594 C595 1.362 . S
C595 H585 0.930 . S
C595 C588 1.409 . S
C595 C594 1.362 . S
H596 C602 0.930 . S
H597 C605 0.930 . S
H598 C606 0.930 . S
H599 C607 0.930 . S
H600 C610 0.930 1_556 S
H601 C611 0.930 . S
C602 H596 0.930 . S
C602 C603 1.355 . S
C602 C604 1.415 . S
C603 C602 1.355 . S
C603 C605 1.419 . S
C604 C602 1.415 . S
C604 C609 1.425 . S
C604 C611 1.409 . S
C605 H597 0.930 . S
C605 C603 1.419 . S
C605 C606 1.362 . S
C606 H598 0.930 . S
C606 C605 1.362 . S
C606 C609 1.409 . S
C607 H599 0.930 . S
C607 C608 1.355 1_554 S
C607 C609 1.415 . S
C608 C607 1.355 1_556 S
C608 C610 1.419 1_556 S
C609 C604 1.425 . S
C609 C606 1.409 . S
C609 C607 1.415 . S
C610 H600 0.930 1_554 S
C610 C608 1.419 1_554 S
C610 C611 1.362 . S
C611 H601 0.930 . S
C611 C604 1.409 . S
C611 C610 1.362 . S
C187 C12 1.487 . S
C192 C152 1.534 . S
C203 C24 1.571 1_556 S
C208 C164 1.468 . S
C219 C52 1.529 . S
C224 C124 1.443 . S
C235 C84 1.393 . S
C240 C44 1.463 . S
C251 C104 1.523 . S
C256 C4 1.434 . S
C267 C32 1.566 . S
C272 C64 1.451 . S
C283 C144 1.504 . S
C288 C112 1.555 . S
C299 C172 1.555 . S
C304 C72 1.499 . S
C315 C92 1.565 . S
C320 C132 1.611 . S
C331 C49 1.451 . S
C336 C2 1.305 . S
C347 C29 1.383 1_554 S
C352 C9 1.437 . S
C363 C22 1.525 . S
C368 C42 1.529 . S
C379 C69 1.491 . S
C384 C102 1.376 . S
C395 C62 1.456 . S
C400 C89 1.463 . S
C411 C82 1.460 . S
C416 C109 1.417 . S
C427 C169 1.492 . S
C432 C122 1.483 . S
C443 C149 1.323 . S
C448 C129 1.370 . S
C459 C162 1.452 . S
C464 C142 1.463 . S
C475 C19 1.222 . S
C480 C18 1.222 . S
C491 C38 1.249 . S
C496 C39 1.249 . S
C507 C59 1.207 . S
C512 C58 1.207 . S
C523 C79 1.201 . S
C528 C78 1.201 . S
C539 C99 1.197 . S
C544 C98 1.197 1_556 S
C555 C119 1.192 . S
C560 C118 1.192 . S
C571 C139 1.200 . S
C576 C138 1.200 . S
C587 C159 1.196 . S
C592 C158 1.196 . S
C603 C179 1.216 . S
C608 C178 1.216 . S
