# Generated by pormake.
# Topology uki, (4)-cn, num edge types: 1
# Building blocks:
#     Node 0, Type 0, BuildingBlock: NAWXER_clean_sbu_0, # of connection points: 4
#     Node 1, Type 0, BuildingBlock: NAWXER_clean_sbu_0, # of connection points: 4
#     Node 2, Type 0, BuildingBlock: NAWXER_clean_sbu_0, # of connection points: 4
#     Node 3, Type 0, BuildingBlock: NAWXER_clean_sbu_0, # of connection points: 4
#     Node 4, Type 0, BuildingBlock: NAWXER_clean_sbu_0, # of connection points: 4
#     Node 5, Type 0, BuildingBlock: NAWXER_clean_sbu_0, # of connection points: 4
#     Node 6, Type 0, BuildingBlock: NAWXER_clean_sbu_0, # of connection points: 4
#     Node 7, Type 0, BuildingBlock: NAWXER_clean_sbu_0, # of connection points: 4
#     Node 8, Type 0, BuildingBlock: NAWXER_clean_sbu_0, # of connection points: 4
#     Node 9, Type 0, BuildingBlock: NAWXER_clean_sbu_0, # of connection points: 4
#     Node 10, Type 0, BuildingBlock: NAWXER_clean_sbu_0, # of connection points: 4
#     Node 11, Type 0, BuildingBlock: NAWXER_clean_sbu_0, # of connection points: 4
#     Node 12, Type 0, BuildingBlock: NAWXER_clean_sbu_0, # of connection points: 4
#     Node 13, Type 0, BuildingBlock: NAWXER_clean_sbu_0, # of connection points: 4
#     Node 14, Type 0, BuildingBlock: NAWXER_clean_sbu_0, # of connection points: 4
#     Node 15, Type 0, BuildingBlock: NAWXER_clean_sbu_0, # of connection points: 4
#     Edge 16, Type (0, 0), BuildingBlock: EYOCIG_clean_linker_4, # of connection points: 2
#     Edge 17, Type (0, 0), BuildingBlock: EYOCIG_clean_linker_4, # of connection points: 2
#     Edge 18, Type (0, 0), BuildingBlock: EYOCIG_clean_linker_4, # of connection points: 2
#     Edge 19, Type (0, 0), BuildingBlock: EYOCIG_clean_linker_4, # of connection points: 2
#     Edge 20, Type (0, 0), BuildingBlock: EYOCIG_clean_linker_4, # of connection points: 2
#     Edge 21, Type (0, 0), BuildingBlock: EYOCIG_clean_linker_4, # of connection points: 2
#     Edge 22, Type (0, 0), BuildingBlock: EYOCIG_clean_linker_4, # of connection points: 2
#     Edge 23, Type (0, 0), BuildingBlock: EYOCIG_clean_linker_4, # of connection points: 2
#     Edge 24, Type (0, 0), BuildingBlock: EYOCIG_clean_linker_4, # of connection points: 2
#     Edge 25, Type (0, 0), BuildingBlock: EYOCIG_clean_linker_4, # of connection points: 2
#     Edge 26, Type (0, 0), BuildingBlock: EYOCIG_clean_linker_4, # of connection points: 2
#     Edge 27, Type (0, 0), BuildingBlock: EYOCIG_clean_linker_4, # of connection points: 2
#     Edge 28, Type (0, 0), BuildingBlock: EYOCIG_clean_linker_4, # of connection points: 2
#     Edge 29, Type (0, 0), BuildingBlock: EYOCIG_clean_linker_4, # of connection points: 2
#     Edge 30, Type (0, 0), BuildingBlock: EYOCIG_clean_linker_4, # of connection points: 2
#     Edge 31, Type (0, 0), BuildingBlock: EYOCIG_clean_linker_4, # of connection points: 2
#     Edge 32, Type (0, 0), BuildingBlock: EYOCIG_clean_linker_4, # of connection points: 2
#     Edge 33, Type (0, 0), BuildingBlock: EYOCIG_clean_linker_4, # of connection points: 2
#     Edge 34, Type (0, 0), BuildingBlock: EYOCIG_clean_linker_4, # of connection points: 2
#     Edge 35, Type (0, 0), BuildingBlock: EYOCIG_clean_linker_4, # of connection points: 2
#     Edge 36, Type (0, 0), BuildingBlock: EYOCIG_clean_linker_4, # of connection points: 2
#     Edge 37, Type (0, 0), BuildingBlock: EYOCIG_clean_linker_4, # of connection points: 2
#     Edge 38, Type (0, 0), BuildingBlock: EYOCIG_clean_linker_4, # of connection points: 2
#     Edge 39, Type (0, 0), BuildingBlock: EYOCIG_clean_linker_4, # of connection points: 2
#     Edge 40, Type (0, 0), BuildingBlock: EYOCIG_clean_linker_4, # of connection points: 2
#     Edge 41, Type (0, 0), BuildingBlock: EYOCIG_clean_linker_4, # of connection points: 2
#     Edge 42, Type (0, 0), BuildingBlock: EYOCIG_clean_linker_4, # of connection points: 2
#     Edge 43, Type (0, 0), BuildingBlock: EYOCIG_clean_linker_4, # of connection points: 2
#     Edge 44, Type (0, 0), BuildingBlock: EYOCIG_clean_linker_4, # of connection points: 2
#     Edge 45, Type (0, 0), BuildingBlock: EYOCIG_clean_linker_4, # of connection points: 2
#     Edge 46, Type (0, 0), BuildingBlock: EYOCIG_clean_linker_4, # of connection points: 2
#     Edge 47, Type (0, 0), BuildingBlock: EYOCIG_clean_linker_4, # of connection points: 2
# Relax obj value: 0.074
# Max RMSD: 0.234
# Mean RMSD: 0.234
data_MOF--net-uki--node1-NAWXER_clean_sbu_0--edge1-EYOCIG_clean_linker_4
_symmetry_space_group_name_H-M    P1
_symmetry_Int_Tables_number       1
_symmetry_cell_setting            triclinic
loop_
_symmetry_equiv_pos_as_xyz
'x, y, z'
_cell_length_a     24.831056
_cell_length_b     24.833259
_cell_length_c     57.851583
_cell_angle_alpha  90.043959
_cell_angle_beta   90.033472
_cell_angle_gamma 89.961803
loop_
_atom_site_label
_atom_site_type_symbol
_atom_site_fract_x
_atom_site_fract_y
_atom_site_fract_z
_atom_type_partial_charge
C0 C 0.15565 0.2208 0.34109 0.0
C1 C 1.00569 0.26508 0.28372 0.0
O2 O 0.11349 0.24679 0.34704 0.0
Zn3 Zn 0.07026 0.24845 0.31811 0.0
O4 O 0.1607 0.20442 0.3204 0.0
Zn5 Zn 0.11536 0.20689 0.29051 0.0
O6 O 0.16156 0.25797 0.27367 0.0
O7 O 0.11808 0.30311 0.30072 0.0
O8 O 0.04559 0.23785 0.27661 0.0
O9 O 1.00221 0.27791 0.30505 0.0
O10 O 0.04928 0.16809 0.31818 0.0
O11 O 0.09524 0.13019 0.28989 0.0
C12 C 0.15093 0.30227 0.28391 0.0
C13 C 0.06201 0.12652 0.30662 0.0
C14 C 0.30021 0.86155 0.72433 0.0
C15 C 0.12657 0.95136 0.70189 0.0
O16 O 0.30178 0.89391 0.70733 0.0
Zn17 Zn 0.24859 0.94268 0.68919 0.0
O18 O 0.2556 0.8517 0.73442 0.0
Zn19 Zn 0.20696 0.89845 0.71674 0.0
O20 O 0.20468 0.85388 0.68638 0.0
O21 O 0.2474 0.90126 0.65992 0.0
O22 O 0.1305 0.91795 0.71852 0.0
O23 O 0.16783 0.96376 0.69005 0.0
O24 O 0.27995 0.01103 0.70073 0.0
O25 O 0.23969 0.96907 0.72952 0.0
C26 C 0.22118 0.85919 0.6657 0.0
C27 C 0.26736 0.00838 0.7221 0.0
C28 C 0.86078 0.71416 0.28283 0.0
C29 C 0.95116 0.88711 0.30613 0.0
O30 O 0.85113 0.75893 0.27282 0.0
Zn31 Zn 0.89847 0.80695 0.29057 0.0
O32 O 0.89341 0.71217 0.29974 0.0
Zn33 Zn 0.94271 0.76472 0.31794 0.0
O34 O 0.90141 0.76484 0.34722 0.0
O35 O 0.85386 0.80816 0.32096 0.0
O36 O 0.96365 0.8455 0.31774 0.0
O37 O 0.91798 0.88355 0.28938 0.0
O38 O 0.96872 0.77412 0.2774 0.0
O39 O 0.01079 0.73336 0.30605 0.0
C40 C 0.85918 0.79103 0.34154 0.0
C41 C 0.00798 0.74612 0.2847 0.0
C42 C 0.79047 0.15347 0.66557 0.0
C43 C 0.74614 1.00553 0.72243 0.0
O44 O 0.80734 0.15944 0.68618 0.0
Zn45 Zn 0.80647 0.11572 0.71689 0.0
O46 O 0.76469 0.11094 0.66001 0.0
Zn47 Zn 0.76495 0.07092 0.68957 0.0
O48 O 0.7123 0.1203 0.70785 0.0
O49 O 0.75894 0.16299 0.73473 0.0
O50 O 0.73363 1.00257 0.70106 0.0
O51 O 0.7738 0.04498 0.7298 0.0
O52 O 0.88316 0.09773 0.7188 0.0
O53 O 0.84621 0.05106 0.69044 0.0
C54 C 0.7142 0.153 0.72475 0.0
C55 C 0.88742 0.06425 0.7022 0.0
C56 C 1.0046 0.24705 0.97204 0.0
C57 C 0.15292 0.29146 0.91529 0.0
O58 O 1.00194 0.23433 0.95068 0.0
Zn59 Zn 0.07069 0.26514 0.93934 0.0
O60 O 0.04414 0.27451 0.97947 0.0
Zn61 Zn 0.11519 0.30682 0.96668 0.0
O62 O 0.09726 0.38358 0.96854 0.0
O63 O 0.05098 0.34646 0.9401 0.0
O64 O 0.15878 0.3082 0.93593 0.0
O65 O 0.11066 0.26523 0.90973 0.0
O66 O 0.12001 0.21228 0.95765 0.0
O67 O 0.1625 0.25914 0.98451 0.0
C68 C 0.06403 0.38775 0.95183 0.0
C69 C 0.15269 0.21431 0.97457 0.0
C70 C 0.29237 0.85903 0.09155 0.0
C71 C 0.24728 0.00884 0.03515 0.0
O72 O 0.30917 0.85411 0.0709 0.0
Zn73 Zn 0.30721 0.89878 0.04062 0.0
O74 O 0.26586 0.90093 0.09741 0.0
Zn75 Zn 0.26505 0.94266 0.06819 0.0
O76 O 0.21223 0.89385 0.04992 0.0
O77 O 0.25883 0.85176 0.02288 0.0
O78 O 0.23418 0.0112 0.05647 0.0
O79 O 0.27493 0.96946 0.02773 0.0
O80 O 0.38375 0.91827 0.03934 0.0
O81 O 0.34577 0.96368 0.06781 0.0
C82 C 0.21411 0.86142 0.03293 0.0
C83 C 0.38732 0.95139 0.05612 0.0
C84 C 0.85867 0.72076 0.91593 0.0
C85 C 0.00863 0.76679 0.97246 0.0
O86 O 0.90057 0.747 0.90993 0.0
Zn87 Zn 0.94313 0.7488 0.93898 0.0
O88 O 0.85382 0.70453 0.93665 0.0
Zn89 Zn 0.89884 0.70727 0.9667 0.0
O90 O 0.85235 0.75714 0.98398 0.0
O91 O 0.89485 0.8027 0.95679 0.0
O92 O 0.96911 0.73935 0.97979 0.0
O93 O 0.0115 0.77942 0.9511 0.0
O94 O 0.96431 0.66829 0.93948 0.0
O95 O 0.91884 0.63074 0.96799 0.0
C96 C 0.8624 0.80154 0.97375 0.0
C97 C 0.95201 0.62692 0.95125 0.0
C98 C 0.72264 0.15256 0.09211 0.0
C99 C 0.76762 1.00557 0.03483 0.0
O100 O 0.70567 0.15852 0.07153 0.0
Zn101 Zn 0.7068 0.11531 0.04075 0.0
O102 O 0.74904 0.11032 0.09758 0.0
Zn103 Zn 0.74894 0.07055 0.06794 0.0
O104 O 0.80131 0.12036 0.04972 0.0
O105 O 0.75418 0.16311 0.02304 0.0
O106 O 0.78035 1.00241 0.05617 0.0
O107 O 0.73972 0.04499 0.02762 0.0
O108 O 0.63011 0.09674 0.03914 0.0
O109 O 0.66779 0.05033 0.06738 0.0
C110 C 0.79911 0.15324 0.0329 0.0
C111 C 0.62628 0.06335 0.05578 0.0
C112 C 0.50504 0.76735 0.78524 0.0
C113 C 0.65327 0.72142 0.84194 0.0
O114 O 0.502 0.7794 0.80666 0.0
Zn115 Zn 0.57055 0.74843 0.81815 0.0
O116 O 0.54469 0.74015 0.77777 0.0
Zn117 Zn 0.61546 0.70763 0.79061 0.0
O118 O 0.5971 0.63093 0.78847 0.0
O119 O 0.55057 0.6674 0.81697 0.0
O120 O 0.65921 0.70533 0.82122 0.0
O121 O 0.61091 0.74732 0.84764 0.0
O122 O 0.6193 0.80222 0.80027 0.0
O123 O 0.66232 0.75654 0.77321 0.0
C124 C 0.56362 0.6264 0.80505 0.0
C125 C 0.65197 0.80099 0.78336 0.0
C126 C 0.72156 0.35865 0.16586 0.0
C127 C 0.76627 0.50826 0.22254 0.0
O128 O 0.705 0.35345 0.18653 0.0
Zn129 Zn 0.70688 0.39818 0.21679 0.0
O130 O 0.74753 0.40083 0.16001 0.0
Zn131 Zn 0.74842 0.44259 0.1892 0.0
O132 O 0.80187 0.3937 0.20702 0.0
O133 O 0.7561 0.35123 0.23415 0.0
O134 O 0.77897 0.51102 0.20119 0.0
O135 O 0.73887 0.4687 0.2299 0.0
O136 O 0.63017 0.41734 0.21804 0.0
O137 O 0.66762 0.46297 0.18956 0.0
C138 C 0.80053 0.36102 0.2239 0.0
C139 C 0.62623 0.45033 0.20125 0.0
C140 C 0.3591 0.29217 0.84155 0.0
C141 C 0.5085 0.24672 0.78523 0.0
O142 O 0.40138 0.2662 0.84734 0.0
Zn143 Zn 0.44256 0.26523 0.81803 0.0
O144 O 0.35364 0.30862 0.82087 0.0
Zn145 Zn 0.39816 0.30657 0.79046 0.0
O146 O 0.35159 0.25791 0.77275 0.0
O147 O 0.394 0.21185 0.79987 0.0
O148 O 0.46902 0.27414 0.77775 0.0
O149 O 0.51115 0.23418 0.8066 0.0
O150 O 0.46311 0.34612 0.81707 0.0
O151 O 0.41704 0.38311 0.78856 0.0
C152 C 0.36161 0.21335 0.78286 0.0
C153 C 0.45047 0.38728 0.80519 0.0
C154 C 0.29234 0.65363 0.16555 0.0
C155 C 0.24678 0.50557 0.22301 0.0
O156 O 0.3088 0.65969 0.1862 0.0
Zn157 Zn 0.30661 0.61513 0.21658 0.0
O158 O 0.26612 0.61135 0.16002 0.0
Zn159 Zn 0.26486 0.57001 0.18925 0.0
O160 O 0.21117 0.61878 0.20694 0.0
O161 O 0.25707 0.66202 0.23384 0.0
O162 O 0.23418 0.50206 0.20166 0.0
O163 O 0.27442 0.54521 0.23015 0.0
O164 O 0.38324 0.59518 0.21782 0.0
O165 O 0.3454 0.54901 0.18956 0.0
C166 C 0.21252 0.65163 0.22377 0.0
C167 C 0.38692 0.56171 0.20117 0.0
C168 C 0.50519 0.74605 0.47235 0.0
C169 C 0.65268 0.79046 0.41526 0.0
O170 O 0.50234 0.73375 0.45095 0.0
Zn171 Zn 0.57054 0.76496 0.43939 0.0
O172 O 0.54454 0.77378 0.47978 0.0
Zn173 Zn 0.61518 0.80662 0.46666 0.0
O174 O 0.59715 0.88341 0.46833 0.0
O175 O 0.5506 0.84614 0.44002 0.0
O176 O 0.65865 0.80745 0.43586 0.0
O177 O 0.61026 0.76442 0.40977 0.0
O178 O 0.62002 0.71238 0.45763 0.0
O179 O 0.66294 0.7592 0.48438 0.0
C180 C 0.56378 0.8875 0.45168 0.0
C181 C 0.6529 0.71439 0.47446 0.0
C182 C 0.79089 0.36031 0.59198 0.0
C183 C 0.74608 0.50858 0.53506 0.0
O184 O 0.80764 0.35464 0.57135 0.0
Zn185 Zn 0.80617 0.39853 0.54077 0.0
O186 O 0.76494 0.4027 0.59764 0.0
Zn187 Zn 0.7645 0.44322 0.56817 0.0
O188 O 0.71158 0.39376 0.5502 0.0
O189 O 0.75787 0.35107 0.52323 0.0
O190 O 0.73339 0.51146 0.55641 0.0
O191 O 0.77364 0.46905 0.52771 0.0
O192 O 0.88283 0.41753 0.53915 0.0
O193 O 0.84538 0.46387 0.56746 0.0
C194 C 0.71328 0.36087 0.53337 0.0
C195 C 0.88673 0.45113 0.55573 0.0
C196 C 0.45164 0.12658 0.45122 0.0
C197 C 0.3608 0.30046 0.47367 0.0
O198 O 0.4179 0.13009 0.46775 0.0
Zn199 Zn 0.39823 0.20672 0.46659 0.0
O200 O 0.46444 0.16817 0.43971 0.0
Zn201 Zn 0.44343 0.24875 0.43938 0.0
O202 O 0.51131 0.27912 0.45196 0.0
O203 O 0.46818 0.23858 0.48033 0.0
O204 O 0.39404 0.30207 0.457 0.0
O205 O 0.35064 0.25586 0.48371 0.0
O206 O 0.35459 0.2047 0.43605 0.0
O207 O 0.40267 0.24777 0.40993 0.0
C208 C 0.50791 0.26612 0.47326 0.0
C209 C 0.36047 0.22141 0.41545 0.0
C210 C 0.30134 0.65159 0.53346 0.0
C211 C 0.12588 0.56381 0.55547 0.0
O212 O 0.30234 0.61855 0.55023 0.0
Zn213 Zn 0.24809 0.57009 0.56785 0.0
O214 O 0.25693 0.66237 0.52335 0.0
Zn215 Zn 0.20708 0.61571 0.54048 0.0
O216 O 0.20509 0.65954 0.57101 0.0
O217 O 0.24712 0.611 0.59731 0.0
O218 O 0.13019 0.59734 0.5389 0.0
O219 O 0.1671 0.55045 0.56716 0.0
O220 O 0.27791 0.50157 0.55554 0.0
O221 O 0.23841 0.54522 0.52701 0.0
C222 C 0.22134 0.65351 0.59169 0.0
C223 C 0.26537 0.50514 0.53418 0.0
C224 C 0.19027 0.39325 0.26745 0.0
C225 C 0.1715 0.35265 0.27551 0.0
C226 C 0.211 0.43565 0.25388 0.0
C227 C 0.22744 0.46767 0.23988 0.0
C228 C 0.43376 0.80264 0.75483 0.0
C229 C 0.46633 0.78649 0.76867 0.0
C230 C 0.39091 0.82266 0.74131 0.0
C231 C 0.35021 0.84103 0.73314 0.0
C232 C 0.80074 0.58038 0.25279 0.0
C233 C 0.78482 0.54727 0.23913 0.0
C234 C 0.82089 0.62365 0.26605 0.0
C235 C 0.83962 0.66437 0.27406 0.0
C236 C 0.58043 0.21208 0.755 0.0
C237 C 0.54752 0.22797 0.76872 0.0
C238 C 0.62361 0.19217 0.74167 0.0
C239 C 0.66437 0.17376 0.7336 0.0
C240 C 0.21355 0.08119 0.00485 0.0
C241 C 0.229 0.04812 0.01862 0.0
C242 C 0.19329 0.12417 0.99144 0.0
C243 C 0.17417 0.16463 0.98335 0.0
C244 C 0.12358 0.82185 0.01605 0.0
C245 C 0.16427 0.84046 0.02413 0.0
C246 C 0.08042 0.80163 1.00276 0.0
C247 C 0.04744 0.78552 0.98909 0.0
C248 C 0.82348 0.89236 0.9906 0.0
C249 C 0.84198 0.85175 0.98241 0.0
C250 C 0.80318 0.93495 0.0042 0.0
C251 C 0.78682 0.96732 0.01808 0.0
C252 C 0.88938 0.19266 0.01569 0.0
C253 C 0.84881 0.17411 0.0239 0.0
C254 C 0.93246 0.21256 1.00225 0.0
C255 C 0.96551 0.22843 0.98857 0.0
C256 C 0.69046 0.89185 0.76644 0.0
C257 C 0.67218 0.85119 0.77464 0.0
C258 C 0.71059 0.93458 0.7529 0.0
C259 C 0.7269 0.96704 0.73907 0.0
C260 C 0.93457 0.29962 0.25307 0.0
C261 C 0.96727 0.28362 0.26688 0.0
C262 C 0.8914 0.32032 0.23993 0.0
C263 C 0.85058 0.33949 0.23221 0.0
C264 C 0.30264 0.07975 0.75245 0.0
C265 C 0.28645 0.0471 0.73867 0.0
C266 C 0.32278 0.12266 0.7659 0.0
C267 C 0.34113 0.16334 0.77407 0.0
C268 C 0.07882 0.71064 0.25413 0.0
C269 C 0.04645 0.72688 0.26803 0.0
C270 C 0.1216 0.69045 0.2406 0.0
C271 C 0.16234 0.67206 0.23247 0.0
C272 C 0.71187 0.58051 0.50472 0.0
C273 C 0.72759 0.54758 0.51848 0.0
C274 C 0.69214 0.62378 0.49138 0.0
C275 C 0.67373 0.66458 0.48333 0.0
C276 C 0.62254 0.32036 0.51712 0.0
C277 C 0.66337 0.33938 0.52489 0.0
C278 C 0.57926 0.3001 0.50392 0.0
C279 C 0.54648 0.28439 0.49008 0.0
C280 C 0.29985 0.43396 0.50352 0.0
C281 C 0.28393 0.46665 0.51737 0.0
C282 C 0.32034 0.39105 0.49014 0.0
C283 C 0.33945 0.35043 0.4822 0.0
C284 C 0.43487 0.71054 0.50312 0.0
C285 C 0.46673 0.72654 0.48896 0.0
C286 C 0.39241 0.69047 0.51685 0.0
C287 C 0.35168 0.67198 0.52493 0.0
C288 C 0.28044 0.20464 0.38592 0.0
C289 C 0.31719 0.21253 0.39923 0.0
C290 C 0.23649 0.2044 0.37026 0.0
C291 C 0.19965 0.21186 0.35694 0.0
C292 C 0.20461 0.73399 0.62105 0.0
C293 C 0.21254 0.69695 0.60787 0.0
C294 C 0.20451 0.77833 0.63654 0.0
C295 C 0.2123 0.81541 0.64971 0.0
C296 C 0.73311 0.80638 0.38583 0.0
C297 C 0.69606 0.79878 0.39903 0.0
C298 C 0.7777 0.80657 0.37049 0.0
C299 C 0.81521 0.79916 0.3575 0.0
C300 C 0.80614 0.23448 0.63641 0.0
C301 C 0.79856 0.19705 0.64941 0.0
C302 C 0.80633 0.2792 0.62113 0.0
C303 C 0.79902 0.31648 0.60802 0.0
C304 C 0.23329 0.30818 0.88591 0.0
C305 C 0.19629 0.30024 0.8991 0.0
C306 C 0.27784 0.30841 0.87055 0.0
C307 C 0.3152 0.30072 0.85751 0.0
C308 C 0.30937 0.73441 0.13645 0.0
C309 C 0.30103 0.69692 0.14932 0.0
C310 C 0.30914 0.77866 0.12094 0.0
C311 C 0.30156 0.81524 0.1075 0.0
C312 C 0.77777 0.70407 0.88683 0.0
C313 C 0.8146 0.71163 0.90014 0.0
C314 C 0.73363 0.70439 0.87127 0.0
C315 C 0.69669 0.71242 0.85807 0.0
C316 C 0.70593 0.23265 0.12162 0.0
C317 C 0.71387 0.19578 0.10837 0.0
C318 C 0.70559 0.27712 0.13701 0.0
C319 C 0.71311 0.31456 0.15001 0.0
C320 C 0.99507 0.98086 0.31636 0.0
C321 C 0.97573 0.9375 0.31214 0.0
C322 C 0.01808 0.03267 0.31654 0.0
C323 C 0.03735 0.07613 0.31251 0.0
C324 C 0.98149 0.02029 0.69261 0.0
C325 C 0.9381 0.03979 0.69664 0.0
C326 C 0.03299 0.9966 0.6925 0.0
C327 C 0.07623 0.9766 0.69637 0.0
C328 C 0.02047 0.48178 0.94187 0.0
C329 C 0.03981 0.43842 0.94607 0.0
C330 C 0.99698 0.53336 0.94163 0.0
C331 C 0.97716 0.57664 0.94556 0.0
C332 C 0.48083 0.99614 0.06599 0.0
C333 C 0.43755 0.97644 0.06195 0.0
C334 C 0.53242 0.01959 0.06583 0.0
C335 C 0.57575 0.03896 0.06162 0.0
C336 C 0.49547 0.48099 0.81451 0.0
C337 C 0.47554 0.43772 0.81064 0.0
C338 C 0.5193 0.53241 0.81441 0.0
C339 C 0.53903 0.57571 0.81045 0.0
C340 C 0.53231 0.49412 0.19125 0.0
C341 C 0.57573 0.47481 0.19538 0.0
C342 C 0.48061 0.51735 0.19123 0.0
C343 C 0.43728 0.5369 0.19534 0.0
C344 C 0.49676 0.03313 0.44152 0.0
C345 C 0.47689 0.07637 0.4455 0.0
C346 C 0.52025 0.98154 0.44171 0.0
C347 C 0.53954 0.93815 0.4459 0.0
C348 C 0.98033 0.49623 0.56523 0.0
C349 C 0.9371 0.47628 0.56129 0.0
C350 C 0.03183 0.51993 0.56514 0.0
C351 C 0.07519 0.53941 0.56107 0.0
loop_
_geom_bond_atom_site_label_1
_geom_bond_atom_site_label_2
_geom_bond_distance
_geom_bond_site_symmetry_2
_ccdc_geom_bond_type
C0 O2 1.247 . S
C0 O4 1.258 . S
C1 O8 1.247 . S
C1 O9 1.258 . S
O2 C0 1.247 . S
O2 Zn3 2.028 . S
Zn3 O2 2.028 . S
Zn3 O7 2.035 . S
Zn3 O9 2.035 . S
Zn3 O10 2.028 . S
O4 C0 1.258 . S
O4 Zn5 2.035 . S
Zn5 O4 2.035 . S
Zn5 O6 2.028 . S
Zn5 O8 2.028 . S
Zn5 O11 2.035 . S
O6 Zn5 2.028 . S
O6 C12 1.247 . S
O7 Zn3 2.035 . S
O7 C12 1.258 . S
O8 C1 1.247 . S
O8 Zn5 2.028 . S
O9 C1 1.258 . S
O9 Zn3 2.035 . S
O10 Zn3 2.028 . S
O10 C13 1.247 . S
O11 Zn5 2.035 . S
O11 C13 1.258 . S
C12 O6 1.247 . S
C12 O7 1.258 . S
C13 O10 1.247 . S
C13 O11 1.258 . S
C14 O16 1.247 . S
C14 O18 1.258 . S
C15 O22 1.247 . S
C15 O23 1.258 . S
O16 C14 1.247 . S
O16 Zn17 2.028 . S
Zn17 O16 2.028 . S
Zn17 O21 2.035 . S
Zn17 O23 2.035 . S
Zn17 O24 2.028 . S
O18 C14 1.258 . S
O18 Zn19 2.035 . S
Zn19 O18 2.035 . S
Zn19 O20 2.028 . S
Zn19 O22 2.028 . S
Zn19 O25 2.035 . S
O20 Zn19 2.028 . S
O20 C26 1.247 . S
O21 Zn17 2.035 . S
O21 C26 1.258 . S
O22 C15 1.247 . S
O22 Zn19 2.028 . S
O23 C15 1.258 . S
O23 Zn17 2.035 . S
O24 Zn17 2.028 . S
O24 C27 1.247 . S
O25 Zn19 2.035 . S
O25 C27 1.258 . S
C26 O20 1.247 . S
C26 O21 1.258 . S
C27 O24 1.247 . S
C27 O25 1.258 . S
C28 O30 1.247 . S
C28 O32 1.258 . S
C29 O36 1.247 . S
C29 O37 1.258 . S
O30 C28 1.247 . S
O30 Zn31 2.028 . S
Zn31 O30 2.028 . S
Zn31 O35 2.035 . S
Zn31 O37 2.035 . S
Zn31 O38 2.028 . S
O32 C28 1.258 . S
O32 Zn33 2.035 . S
Zn33 O32 2.035 . S
Zn33 O34 2.028 . S
Zn33 O36 2.028 . S
Zn33 O39 2.035 . S
O34 Zn33 2.028 . S
O34 C40 1.247 . S
O35 Zn31 2.035 . S
O35 C40 1.258 . S
O36 C29 1.247 . S
O36 Zn33 2.028 . S
O37 C29 1.258 . S
O37 Zn31 2.035 . S
O38 Zn31 2.028 . S
O38 C41 1.247 . S
O39 Zn33 2.035 . S
O39 C41 1.258 . S
C40 O34 1.247 . S
C40 O35 1.258 . S
C41 O38 1.247 . S
C41 O39 1.258 . S
C42 O44 1.247 . S
C42 O46 1.258 . S
C43 O50 1.247 . S
C43 O51 1.258 . S
O44 C42 1.247 . S
O44 Zn45 2.028 . S
Zn45 O44 2.028 . S
Zn45 O49 2.035 . S
Zn45 O51 2.035 . S
Zn45 O52 2.028 . S
O46 C42 1.258 . S
O46 Zn47 2.035 . S
Zn47 O46 2.035 . S
Zn47 O48 2.028 . S
Zn47 O50 2.028 . S
Zn47 O53 2.035 . S
O48 Zn47 2.028 . S
O48 C54 1.247 . S
O49 Zn45 2.035 . S
O49 C54 1.258 . S
O50 C43 1.247 . S
O50 Zn47 2.028 . S
O51 C43 1.258 . S
O51 Zn45 2.035 . S
O52 Zn45 2.028 . S
O52 C55 1.247 . S
O53 Zn47 2.035 . S
O53 C55 1.258 . S
C54 O48 1.247 . S
C54 O49 1.258 . S
C55 O52 1.247 . S
C55 O53 1.258 . S
C56 O58 1.247 . S
C56 O60 1.258 . S
C57 O64 1.247 . S
C57 O65 1.258 . S
O58 C56 1.247 . S
O58 Zn59 2.028 . S
Zn59 O58 2.028 . S
Zn59 O63 2.035 . S
Zn59 O65 2.035 . S
Zn59 O66 2.028 . S
O60 C56 1.258 . S
O60 Zn61 2.035 . S
Zn61 O60 2.035 . S
Zn61 O62 2.028 . S
Zn61 O64 2.028 . S
Zn61 O67 2.035 . S
O62 Zn61 2.028 . S
O62 C68 1.247 . S
O63 Zn59 2.035 . S
O63 C68 1.258 . S
O64 C57 1.247 . S
O64 Zn61 2.028 . S
O65 C57 1.258 . S
O65 Zn59 2.035 . S
O66 Zn59 2.028 . S
O66 C69 1.247 . S
O67 Zn61 2.035 . S
O67 C69 1.258 . S
C68 O62 1.247 . S
C68 O63 1.258 . S
C69 O66 1.247 . S
C69 O67 1.258 . S
C70 O72 1.247 . S
C70 O74 1.258 . S
C71 O78 1.247 . S
C71 O79 1.258 . S
O72 C70 1.247 . S
O72 Zn73 2.028 . S
Zn73 O72 2.028 . S
Zn73 O77 2.035 . S
Zn73 O79 2.035 . S
Zn73 O80 2.028 . S
O74 C70 1.258 . S
O74 Zn75 2.035 . S
Zn75 O74 2.035 . S
Zn75 O76 2.028 . S
Zn75 O78 2.028 . S
Zn75 O81 2.035 . S
O76 Zn75 2.028 . S
O76 C82 1.247 . S
O77 Zn73 2.035 . S
O77 C82 1.258 . S
O78 C71 1.247 . S
O78 Zn75 2.028 . S
O79 C71 1.258 . S
O79 Zn73 2.035 . S
O80 Zn73 2.028 . S
O80 C83 1.247 . S
O81 Zn75 2.035 . S
O81 C83 1.258 . S
C82 O76 1.247 . S
C82 O77 1.258 . S
C83 O80 1.247 . S
C83 O81 1.258 . S
C84 O86 1.247 . S
C84 O88 1.258 . S
C85 O92 1.247 . S
C85 O93 1.258 . S
O86 C84 1.247 . S
O86 Zn87 2.028 . S
Zn87 O86 2.028 . S
Zn87 O91 2.035 . S
Zn87 O93 2.035 . S
Zn87 O94 2.028 . S
O88 C84 1.258 . S
O88 Zn89 2.035 . S
Zn89 O88 2.035 . S
Zn89 O90 2.028 . S
Zn89 O92 2.028 . S
Zn89 O95 2.035 . S
O90 Zn89 2.028 . S
O90 C96 1.247 . S
O91 Zn87 2.035 . S
O91 C96 1.258 . S
O92 C85 1.247 . S
O92 Zn89 2.028 . S
O93 C85 1.258 . S
O93 Zn87 2.035 . S
O94 Zn87 2.028 . S
O94 C97 1.247 . S
O95 Zn89 2.035 . S
O95 C97 1.258 . S
C96 O90 1.247 . S
C96 O91 1.258 . S
C97 O94 1.247 . S
C97 O95 1.258 . S
C98 O100 1.247 . S
C98 O102 1.258 . S
C99 O106 1.247 . S
C99 O107 1.258 . S
O100 C98 1.247 . S
O100 Zn101 2.028 . S
Zn101 O100 2.028 . S
Zn101 O105 2.035 . S
Zn101 O107 2.035 . S
Zn101 O108 2.028 . S
O102 C98 1.258 . S
O102 Zn103 2.035 . S
Zn103 O102 2.035 . S
Zn103 O104 2.028 . S
Zn103 O106 2.028 . S
Zn103 O109 2.035 . S
O104 Zn103 2.028 . S
O104 C110 1.247 . S
O105 Zn101 2.035 . S
O105 C110 1.258 . S
O106 C99 1.247 . S
O106 Zn103 2.028 . S
O107 C99 1.258 . S
O107 Zn101 2.035 . S
O108 Zn101 2.028 . S
O108 C111 1.247 . S
O109 Zn103 2.035 . S
O109 C111 1.258 . S
C110 O104 1.247 . S
C110 O105 1.258 . S
C111 O108 1.247 . S
C111 O109 1.258 . S
C112 O114 1.247 . S
C112 O116 1.258 . S
C113 O120 1.247 . S
C113 O121 1.258 . S
O114 C112 1.247 . S
O114 Zn115 2.028 . S
Zn115 O114 2.028 . S
Zn115 O119 2.035 . S
Zn115 O121 2.035 . S
Zn115 O122 2.028 . S
O116 C112 1.258 . S
O116 Zn117 2.035 . S
Zn117 O116 2.035 . S
Zn117 O118 2.028 . S
Zn117 O120 2.028 . S
Zn117 O123 2.035 . S
O118 Zn117 2.028 . S
O118 C124 1.247 . S
O119 Zn115 2.035 . S
O119 C124 1.258 . S
O120 C113 1.247 . S
O120 Zn117 2.028 . S
O121 C113 1.258 . S
O121 Zn115 2.035 . S
O122 Zn115 2.028 . S
O122 C125 1.247 . S
O123 Zn117 2.035 . S
O123 C125 1.258 . S
C124 O118 1.247 . S
C124 O119 1.258 . S
C125 O122 1.247 . S
C125 O123 1.258 . S
C126 O128 1.247 . S
C126 O130 1.258 . S
C127 O134 1.247 . S
C127 O135 1.258 . S
O128 C126 1.247 . S
O128 Zn129 2.028 . S
Zn129 O128 2.028 . S
Zn129 O133 2.035 . S
Zn129 O135 2.035 . S
Zn129 O136 2.028 . S
O130 C126 1.258 . S
O130 Zn131 2.035 . S
Zn131 O130 2.035 . S
Zn131 O132 2.028 . S
Zn131 O134 2.028 . S
Zn131 O137 2.035 . S
O132 Zn131 2.028 . S
O132 C138 1.247 . S
O133 Zn129 2.035 . S
O133 C138 1.258 . S
O134 C127 1.247 . S
O134 Zn131 2.028 . S
O135 C127 1.258 . S
O135 Zn129 2.035 . S
O136 Zn129 2.028 . S
O136 C139 1.247 . S
O137 Zn131 2.035 . S
O137 C139 1.258 . S
C138 O132 1.247 . S
C138 O133 1.258 . S
C139 O136 1.247 . S
C139 O137 1.258 . S
C140 O142 1.247 . S
C140 O144 1.258 . S
C141 O148 1.247 . S
C141 O149 1.258 . S
O142 C140 1.247 . S
O142 Zn143 2.028 . S
Zn143 O142 2.028 . S
Zn143 O147 2.035 . S
Zn143 O149 2.035 . S
Zn143 O150 2.028 . S
O144 C140 1.258 . S
O144 Zn145 2.035 . S
Zn145 O144 2.035 . S
Zn145 O146 2.028 . S
Zn145 O148 2.028 . S
Zn145 O151 2.035 . S
O146 Zn145 2.028 . S
O146 C152 1.247 . S
O147 Zn143 2.035 . S
O147 C152 1.258 . S
O148 C141 1.247 . S
O148 Zn145 2.028 . S
O149 C141 1.258 . S
O149 Zn143 2.035 . S
O150 Zn143 2.028 . S
O150 C153 1.247 . S
O151 Zn145 2.035 . S
O151 C153 1.258 . S
C152 O146 1.247 . S
C152 O147 1.258 . S
C153 O150 1.247 . S
C153 O151 1.258 . S
C154 O156 1.247 . S
C154 O158 1.258 . S
C155 O162 1.247 . S
C155 O163 1.258 . S
O156 C154 1.247 . S
O156 Zn157 2.028 . S
Zn157 O156 2.028 . S
Zn157 O161 2.035 . S
Zn157 O163 2.035 . S
Zn157 O164 2.028 . S
O158 C154 1.258 . S
O158 Zn159 2.035 . S
Zn159 O158 2.035 . S
Zn159 O160 2.028 . S
Zn159 O162 2.028 . S
Zn159 O165 2.035 . S
O160 Zn159 2.028 . S
O160 C166 1.247 . S
O161 Zn157 2.035 . S
O161 C166 1.258 . S
O162 C155 1.247 . S
O162 Zn159 2.028 . S
O163 C155 1.258 . S
O163 Zn157 2.035 . S
O164 Zn157 2.028 . S
O164 C167 1.247 . S
O165 Zn159 2.035 . S
O165 C167 1.258 . S
C166 O160 1.247 . S
C166 O161 1.258 . S
C167 O164 1.247 . S
C167 O165 1.258 . S
C168 O170 1.247 . S
C168 O172 1.258 . S
C169 O176 1.247 . S
C169 O177 1.258 . S
O170 C168 1.247 . S
O170 Zn171 2.028 . S
Zn171 O170 2.028 . S
Zn171 O175 2.035 . S
Zn171 O177 2.035 . S
Zn171 O178 2.028 . S
O172 C168 1.258 . S
O172 Zn173 2.035 . S
Zn173 O172 2.035 . S
Zn173 O174 2.028 . S
Zn173 O176 2.028 . S
Zn173 O179 2.035 . S
O174 Zn173 2.028 . S
O174 C180 1.247 . S
O175 Zn171 2.035 . S
O175 C180 1.258 . S
O176 C169 1.247 . S
O176 Zn173 2.028 . S
O177 C169 1.258 . S
O177 Zn171 2.035 . S
O178 Zn171 2.028 . S
O178 C181 1.247 . S
O179 Zn173 2.035 . S
O179 C181 1.258 . S
C180 O174 1.247 . S
C180 O175 1.258 . S
C181 O178 1.247 . S
C181 O179 1.258 . S
C182 O184 1.247 . S
C182 O186 1.258 . S
C183 O190 1.247 . S
C183 O191 1.258 . S
O184 C182 1.247 . S
O184 Zn185 2.028 . S
Zn185 O184 2.028 . S
Zn185 O189 2.035 . S
Zn185 O191 2.035 . S
Zn185 O192 2.028 . S
O186 C182 1.258 . S
O186 Zn187 2.035 . S
Zn187 O186 2.035 . S
Zn187 O188 2.028 . S
Zn187 O190 2.028 . S
Zn187 O193 2.035 . S
O188 Zn187 2.028 . S
O188 C194 1.247 . S
O189 Zn185 2.035 . S
O189 C194 1.258 . S
O190 C183 1.247 . S
O190 Zn187 2.028 . S
O191 C183 1.258 . S
O191 Zn185 2.035 . S
O192 Zn185 2.028 . S
O192 C195 1.247 . S
O193 Zn187 2.035 . S
O193 C195 1.258 . S
C194 O188 1.247 . S
C194 O189 1.258 . S
C195 O192 1.247 . S
C195 O193 1.258 . S
C196 O198 1.247 . S
C196 O200 1.258 . S
C197 O204 1.247 . S
C197 O205 1.258 . S
O198 C196 1.247 . S
O198 Zn199 2.028 . S
Zn199 O198 2.028 . S
Zn199 O203 2.035 . S
Zn199 O205 2.035 . S
Zn199 O206 2.028 . S
O200 C196 1.258 . S
O200 Zn201 2.035 . S
Zn201 O200 2.035 . S
Zn201 O202 2.028 . S
Zn201 O204 2.028 . S
Zn201 O207 2.035 . S
O202 Zn201 2.028 . S
O202 C208 1.247 . S
O203 Zn199 2.035 . S
O203 C208 1.258 . S
O204 C197 1.247 . S
O204 Zn201 2.028 . S
O205 C197 1.258 . S
O205 Zn199 2.035 . S
O206 Zn199 2.028 . S
O206 C209 1.247 . S
O207 Zn201 2.035 . S
O207 C209 1.258 . S
C208 O202 1.247 . S
C208 O203 1.258 . S
C209 O206 1.247 . S
C209 O207 1.258 . S
C210 O212 1.247 . S
C210 O214 1.258 . S
C211 O218 1.247 . S
C211 O219 1.258 . S
O212 C210 1.247 . S
O212 Zn213 2.028 . S
Zn213 O212 2.028 . S
Zn213 O217 2.035 . S
Zn213 O219 2.035 . S
Zn213 O220 2.028 . S
O214 C210 1.258 . S
O214 Zn215 2.035 . S
Zn215 O214 2.035 . S
Zn215 O216 2.028 . S
Zn215 O218 2.028 . S
Zn215 O221 2.035 . S
O216 Zn215 2.028 . S
O216 C222 1.247 . S
O217 Zn213 2.035 . S
O217 C222 1.258 . S
O218 C211 1.247 . S
O218 Zn215 2.028 . S
O219 C211 1.258 . S
O219 Zn213 2.035 . S
O220 Zn213 2.028 . S
O220 C223 1.247 . S
O221 Zn215 2.035 . S
O221 C223 1.258 . S
C222 O216 1.247 . S
C222 O217 1.258 . S
C223 O220 1.247 . S
C223 O221 1.258 . S
C224 C225 1.170 . S
C224 C226 1.380 . S
C225 C224 1.170 . S
C226 C224 1.380 . S
C226 C227 1.170 . S
C227 C226 1.170 . S
C228 C229 1.170 . S
C228 C230 1.380 . S
C229 C228 1.170 . S
C230 C228 1.380 . S
C230 C231 1.170 . S
C231 C230 1.170 . S
C232 C233 1.170 . S
C232 C234 1.380 . S
C233 C232 1.170 . S
C234 C232 1.380 . S
C234 C235 1.170 . S
C235 C234 1.170 . S
C236 C237 1.170 . S
C236 C238 1.380 . S
C237 C236 1.170 . S
C238 C236 1.380 . S
C238 C239 1.170 . S
C239 C238 1.170 . S
C240 C241 1.170 1_556 S
C240 C242 1.380 . S
C241 C240 1.170 1_554 S
C242 C240 1.380 . S
C242 C243 1.170 . S
C243 C242 1.170 . S
C244 C245 1.170 . S
C244 C246 1.380 . S
C245 C244 1.170 . S
C246 C244 1.380 . S
C246 C247 1.170 1_554 S
C247 C246 1.170 1_556 S
C248 C249 1.170 . S
C248 C250 1.380 . S
C249 C248 1.170 . S
C250 C248 1.380 . S
C250 C251 1.170 1_556 S
C251 C250 1.170 1_554 S
C252 C253 1.170 . S
C252 C254 1.380 . S
C253 C252 1.170 . S
C254 C252 1.380 . S
C254 C255 1.170 1_554 S
C255 C254 1.170 1_556 S
C256 C257 1.170 . S
C256 C258 1.380 . S
C257 C256 1.170 . S
C258 C256 1.380 . S
C258 C259 1.170 . S
C259 C258 1.170 . S
C260 C261 1.170 . S
C260 C262 1.380 . S
C261 C260 1.170 . S
C262 C260 1.380 . S
C262 C263 1.170 . S
C263 C262 1.170 . S
C264 C265 1.170 . S
C264 C266 1.380 . S
C265 C264 1.170 . S
C266 C264 1.380 . S
C266 C267 1.170 . S
C267 C266 1.170 . S
C268 C269 1.170 . S
C268 C270 1.380 . S
C269 C268 1.170 . S
C270 C268 1.380 . S
C270 C271 1.170 . S
C271 C270 1.170 . S
C272 C273 1.170 . S
C272 C274 1.380 . S
C273 C272 1.170 . S
C274 C272 1.380 . S
C274 C275 1.170 . S
C275 C274 1.170 . S
C276 C277 1.170 . S
C276 C278 1.380 . S
C277 C276 1.170 . S
C278 C276 1.380 . S
C278 C279 1.170 . S
C279 C278 1.170 . S
C280 C281 1.170 . S
C280 C282 1.380 . S
C281 C280 1.170 . S
C282 C280 1.380 . S
C282 C283 1.170 . S
C283 C282 1.170 . S
C284 C285 1.170 . S
C284 C286 1.380 . S
C285 C284 1.170 . S
C286 C284 1.380 . S
C286 C287 1.170 . S
C287 C286 1.170 . S
C288 C289 1.170 . S
C288 C290 1.380 . S
C289 C288 1.170 . S
C290 C288 1.380 . S
C290 C291 1.170 . S
C291 C290 1.170 . S
C292 C293 1.170 . S
C292 C294 1.380 . S
C293 C292 1.170 . S
C294 C292 1.380 . S
C294 C295 1.170 . S
C295 C294 1.170 . S
C296 C297 1.170 . S
C296 C298 1.380 . S
C297 C296 1.170 . S
C298 C296 1.380 . S
C298 C299 1.170 . S
C299 C298 1.170 . S
C300 C301 1.170 . S
C300 C302 1.380 . S
C301 C300 1.170 . S
C302 C300 1.380 . S
C302 C303 1.170 . S
C303 C302 1.170 . S
C304 C305 1.170 . S
C304 C306 1.380 . S
C305 C304 1.170 . S
C306 C304 1.380 . S
C306 C307 1.170 . S
C307 C306 1.170 . S
C308 C309 1.170 . S
C308 C310 1.380 . S
C309 C308 1.170 . S
C310 C308 1.380 . S
C310 C311 1.170 . S
C311 C310 1.170 . S
C312 C313 1.170 . S
C312 C314 1.380 . S
C313 C312 1.170 . S
C314 C312 1.380 . S
C314 C315 1.170 . S
C315 C314 1.170 . S
C316 C317 1.170 . S
C316 C318 1.380 . S
C317 C316 1.170 . S
C318 C316 1.380 . S
C318 C319 1.170 . S
C319 C318 1.170 . S
C320 C321 1.170 . S
C320 C322 1.380 1_665 S
C321 C320 1.170 . S
C322 C320 1.380 1_445 S
C322 C323 1.170 . S
C323 C322 1.170 . S
C324 C325 1.170 . S
C324 C326 1.380 1_645 S
C325 C324 1.170 . S
C326 C324 1.380 1_465 S
C326 C327 1.170 . S
C327 C326 1.170 . S
C328 C329 1.170 . S
C328 C330 1.380 1_455 S
C329 C328 1.170 . S
C330 C328 1.380 1_655 S
C330 C331 1.170 . S
C331 C330 1.170 . S
C332 C333 1.170 . S
C332 C334 1.380 1_565 S
C333 C332 1.170 . S
C334 C332 1.380 1_545 S
C334 C335 1.170 . S
C335 C334 1.170 . S
C336 C337 1.170 . S
C336 C338 1.380 . S
C337 C336 1.170 . S
C338 C336 1.380 . S
C338 C339 1.170 . S
C339 C338 1.170 . S
C340 C341 1.170 . S
C340 C342 1.380 . S
C341 C340 1.170 . S
C342 C340 1.380 . S
C342 C343 1.170 . S
C343 C342 1.170 . S
C344 C345 1.170 . S
C344 C346 1.380 1_545 S
C345 C344 1.170 . S
C346 C344 1.380 1_565 S
C346 C347 1.170 . S
C347 C346 1.170 . S
C348 C349 1.170 . S
C348 C350 1.380 1_655 S
C349 C348 1.170 . S
C350 C348 1.380 1_455 S
C350 C351 1.170 . S
C351 C350 1.170 . S
C225 C12 1.610 . S
C227 C155 1.606 . S
C229 C112 1.603 . S
C231 C14 1.597 . S
C233 C127 1.613 . S
C235 C28 1.588 . S
C237 C141 1.606 . S
C239 C54 1.589 . S
C241 C71 1.609 1_545 S
C243 C69 1.594 . S
C245 C82 1.590 . S
C247 C85 1.605 1_455 S
C249 C96 1.610 . S
C251 C99 1.604 1_565 S
C253 C110 1.588 . S
C255 C56 1.606 1_655 S
C257 C125 1.610 . S
C259 C43 1.603 1_565 S
C261 C1 1.619 1_655 S
C263 C138 1.600 . S
C265 C27 1.604 1_545 S
C267 C152 1.600 . S
C269 C41 1.607 1_455 S
C271 C166 1.606 . S
C273 C183 1.609 . S
C275 C181 1.594 . S
C277 C194 1.600 . S
C279 C208 1.619 . S
C281 C223 1.619 . S
C283 C197 1.593 . S
C285 C168 1.606 . S
C287 C210 1.606 . S
C289 C209 1.768 . S
C291 C0 1.770 . S
C293 C222 1.769 . S
C295 C26 1.775 . S
C297 C169 1.756 . S
C299 C40 1.757 . S
C301 C42 1.758 . S
C303 C182 1.754 . S
C305 C57 1.770 . S
C307 C140 1.771 . S
C309 C154 1.768 . S
C311 C70 1.775 . S
C313 C84 1.773 . S
C315 C113 1.773 . S
C317 C98 1.757 . S
C319 C126 1.773 . S
C321 C29 1.666 . S
C323 C13 1.666 . S
C325 C55 1.644 . S
C327 C15 1.650 . S
C329 C68 1.661 . S
C331 C97 1.656 . S
C333 C83 1.665 . S
C335 C111 1.661 . S
C337 C153 1.643 . S
C339 C124 1.644 . S
C341 C139 1.662 . S
C343 C167 1.665 . S
C345 C196 1.657 . S
C347 C180 1.662 . S
C349 C195 1.655 . S
C351 C211 1.648 . S
