# Generated by pormake.
# Topology wjo, (5)-cn, num edge types: 1
# Building blocks:
#     Node 0, Type 0, BuildingBlock: XOMCOT_clean_sbu_0, # of connection points: 5
#     Node 1, Type 0, BuildingBlock: XOMCOT_clean_sbu_0, # of connection points: 5
#     Node 2, Type 0, BuildingBlock: XOMCOT_clean_sbu_0, # of connection points: 5
#     Node 3, Type 0, BuildingBlock: XOMCOT_clean_sbu_0, # of connection points: 5
#     Node 4, Type 0, BuildingBlock: XOMCOT_clean_sbu_0, # of connection points: 5
#     Node 5, Type 0, BuildingBlock: XOMCOT_clean_sbu_0, # of connection points: 5
#     Node 6, Type 0, BuildingBlock: XOMCOT_clean_sbu_0, # of connection points: 5
#     Node 7, Type 0, BuildingBlock: XOMCOT_clean_sbu_0, # of connection points: 5
#     Node 8, Type 0, BuildingBlock: XOMCOT_clean_sbu_0, # of connection points: 5
#     Node 9, Type 0, BuildingBlock: XOMCOT_clean_sbu_0, # of connection points: 5
#     Node 10, Type 0, BuildingBlock: XOMCOT_clean_sbu_0, # of connection points: 5
#     Node 11, Type 0, BuildingBlock: XOMCOT_clean_sbu_0, # of connection points: 5
#     Edge 12, Type (0, 0), BuildingBlock: ZUJKAS_clean_linker_0, # of connection points: 2
#     Edge 13, Type (0, 0), BuildingBlock: ZUJKAS_clean_linker_0, # of connection points: 2
#     Edge 14, Type (0, 0), BuildingBlock: ZUJKAS_clean_linker_0, # of connection points: 2
#     Edge 15, Type (0, 0), BuildingBlock: ZUJKAS_clean_linker_0, # of connection points: 2
#     Edge 16, Type (0, 0), BuildingBlock: ZUJKAS_clean_linker_0, # of connection points: 2
#     Edge 17, Type (0, 0), BuildingBlock: ZUJKAS_clean_linker_0, # of connection points: 2
#     Edge 18, Type (0, 0), BuildingBlock: ZUJKAS_clean_linker_0, # of connection points: 2
#     Edge 19, Type (0, 0), BuildingBlock: ZUJKAS_clean_linker_0, # of connection points: 2
#     Edge 20, Type (0, 0), BuildingBlock: ZUJKAS_clean_linker_0, # of connection points: 2
#     Edge 21, Type (0, 0), BuildingBlock: ZUJKAS_clean_linker_0, # of connection points: 2
#     Edge 22, Type (0, 0), BuildingBlock: ZUJKAS_clean_linker_0, # of connection points: 2
#     Edge 23, Type (0, 0), BuildingBlock: ZUJKAS_clean_linker_0, # of connection points: 2
#     Edge 24, Type (0, 0), BuildingBlock: ZUJKAS_clean_linker_0, # of connection points: 2
#     Edge 25, Type (0, 0), BuildingBlock: ZUJKAS_clean_linker_0, # of connection points: 2
#     Edge 26, Type (0, 0), BuildingBlock: ZUJKAS_clean_linker_0, # of connection points: 2
#     Edge 27, Type (0, 0), BuildingBlock: ZUJKAS_clean_linker_0, # of connection points: 2
#     Edge 28, Type (0, 0), BuildingBlock: ZUJKAS_clean_linker_0, # of connection points: 2
#     Edge 29, Type (0, 0), BuildingBlock: ZUJKAS_clean_linker_0, # of connection points: 2
#     Edge 30, Type (0, 0), BuildingBlock: ZUJKAS_clean_linker_0, # of connection points: 2
#     Edge 31, Type (0, 0), BuildingBlock: ZUJKAS_clean_linker_0, # of connection points: 2
#     Edge 32, Type (0, 0), BuildingBlock: ZUJKAS_clean_linker_0, # of connection points: 2
#     Edge 33, Type (0, 0), BuildingBlock: ZUJKAS_clean_linker_0, # of connection points: 2
#     Edge 34, Type (0, 0), BuildingBlock: ZUJKAS_clean_linker_0, # of connection points: 2
#     Edge 35, Type (0, 0), BuildingBlock: ZUJKAS_clean_linker_0, # of connection points: 2
#     Edge 36, Type (0, 0), BuildingBlock: ZUJKAS_clean_linker_0, # of connection points: 2
#     Edge 37, Type (0, 0), BuildingBlock: ZUJKAS_clean_linker_0, # of connection points: 2
#     Edge 38, Type (0, 0), BuildingBlock: ZUJKAS_clean_linker_0, # of connection points: 2
#     Edge 39, Type (0, 0), BuildingBlock: ZUJKAS_clean_linker_0, # of connection points: 2
#     Edge 40, Type (0, 0), BuildingBlock: ZUJKAS_clean_linker_0, # of connection points: 2
#     Edge 41, Type (0, 0), BuildingBlock: ZUJKAS_clean_linker_0, # of connection points: 2
# Relax obj value: 0.367
# Max RMSD: 0.206
# Mean RMSD: 0.206
data_MOF--net-wjo--node1-XOMCOT_clean_sbu_0--edge1-ZUJKAS_clean_linker_0
_symmetry_space_group_name_H-M    P1
_symmetry_Int_Tables_number       1
_symmetry_cell_setting            triclinic
loop_
_symmetry_equiv_pos_as_xyz
'x, y, z'
_cell_length_a     58.606358
_cell_length_b     58.467424
_cell_length_c     37.1177
_cell_angle_alpha  90.019252
_cell_angle_beta   90.001589
_cell_angle_gamma 120.0012
loop_
_atom_site_label
_atom_site_type_symbol
_atom_site_fract_x
_atom_site_fract_y
_atom_site_fract_z
_atom_type_partial_charge
Co0 Co 0.26678 0.38186 0.97438 0.0
C1 C 0.27425 0.34461 0.92763 0.0
C2 C 0.25484 0.36187 0.89908 0.0
C3 C 0.25928 0.34625 0.87554 0.0
N4 N 0.26428 0.36096 0.93188 0.0
N5 N 0.27151 0.33543 0.89358 0.0
H6 H 0.28448 0.34038 0.94841 0.0
H7 H 0.2464 0.37392 0.892 0.0
C8 C 0.21675 0.38181 0.94729 0.0
O9 O 0.22855 0.39936 0.92173 0.0
N10 N 0.26929 0.40205 0.01698 0.0
C11 C 0.29118 0.42343 0.02938 0.0
C12 C 0.2858 0.43001 0.0626 0.0
C13 C 0.25107 0.39552 0.0431 0.0
N14 N 0.26064 0.41239 0.07127 0.0
C15 C 0.30474 0.41873 0.92597 0.0
C16 C 0.29708 0.46051 0.94251 0.0
C17 C 0.32026 0.46567 0.92451 0.0
C18 C 0.3231 0.44408 0.91447 0.0
C19 C 0.27884 0.43463 0.95296 0.0
N20 N 0.28342 0.41429 0.94608 0.0
H21 H 0.30895 0.40297 0.92127 0.0
H22 H 0.26236 0.43143 0.96962 0.0
H23 H 0.31 0.433 0.0157 0.0
H24 H 0.23153 0.37835 0.04192 0.0
O25 O 0.29847 0.38235 0.99 0.0
O26 O 0.25763 0.35196 0.00491 0.0
O27 O 0.22954 0.37424 0.96709 0.0
C28 C 0.28286 0.36156 0.009 0.0
H29 H 0.25427 0.34346 0.8472 0.0
H30 H 0.29975 0.44575 0.07984 0.0
H31 H 0.29399 0.47647 0.95103 0.0
H32 H 0.34028 0.4469 0.89978 0.0
Co33 Co 0.89718 0.26182 0.14213 0.0
C34 C 0.93812 0.27511 0.08617 0.0
C35 C 0.91002 0.23381 0.08594 0.0
C36 C 0.93008 0.23841 0.06247 0.0
N37 N 0.91465 0.25693 0.10039 0.0
N38 N 0.94791 0.26445 0.06277 0.0
H39 H 0.94907 0.29538 0.09513 0.0
H40 H 0.89443 0.2145 0.0938 0.0
C41 C 0.84989 0.21205 0.1119 0.0
O42 O 0.85259 0.22238 0.07967 0.0
N43 N 0.8808 0.26673 0.18427 0.0
C44 C 0.88079 0.28892 0.19404 0.0
C45 C 0.8702 0.28538 0.22807 0.0
C46 C 0.87072 0.25019 0.21255 0.0
N47 N 0.86404 0.26109 0.23972 0.0
C48 C 0.89815 0.30121 0.0956 0.0
C49 C 0.84594 0.28708 0.10507 0.0
C50 C 0.86317 0.31155 0.0892 0.0
C51 C 0.88933 0.31799 0.08325 0.0
C52 C 0.85553 0.27067 0.11672 0.0
N53 N 0.88159 0.27821 0.11295 0.0
H54 H 0.91889 0.30805 0.09401 0.0
H55 H 0.8425 0.25311 0.1318 0.0
H56 H 0.88884 0.30677 0.17811 0.0
H57 H 0.86908 0.23093 0.21354 0.0
O58 O 0.92949 0.29315 0.156 0.0
O59 O 0.91736 0.2522 0.17289 0.0
O60 O 0.86577 0.2253 0.13721 0.0
C61 C 0.93425 0.27733 0.17516 0.0
H62 H 0.93191 0.22343 0.04778 0.0
H63 H 0.8684 0.30003 0.24369 0.0
H64 H 0.82556 0.28128 0.1102 0.0
H65 H 0.90352 0.33687 0.07182 0.0
Co66 Co 0.6417 0.89264 0.30766 0.0
C67 C 0.6772 0.93733 0.25964 0.0
C68 C 0.66038 0.90051 0.23152 0.0
C69 C 0.67531 0.92054 0.20763 0.0
N70 N 0.66153 0.91094 0.26435 0.0
N71 N 0.68586 0.94376 0.22534 0.0
H72 H 0.68129 0.95183 0.28033 0.0
H73 H 0.64854 0.87998 0.22454 0.0
C74 C 0.6457 0.84436 0.28177 0.0
O75 O 0.62893 0.83813 0.25508 0.0
N76 N 0.62238 0.87525 0.35087 0.0
C77 C 0.60034 0.87473 0.36248 0.0
C78 C 0.59479 0.86448 0.39671 0.0
C79 C 0.63017 0.86564 0.37832 0.0
N80 N 0.61363 0.85894 0.40677 0.0
C81 C 0.60226 0.88969 0.2604 0.0
C82 C 0.56455 0.83825 0.27656 0.0
C83 C 0.55674 0.85439 0.25871 0.0
C84 C 0.57626 0.88008 0.24928 0.0
C85 C 0.59083 0.84863 0.28711 0.0
N86 N 0.60914 0.87436 0.28007 0.0
H87 H 0.61645 0.91028 0.25586 0.0
H88 H 0.5959 0.83665 0.30375 0.0
H89 H 0.5896 0.88219 0.34752 0.0
H90 H 0.64833 0.86503 0.37823 0.0
O91 O 0.63921 0.92315 0.32196 0.0
O92 O 0.67135 0.91538 0.33735 0.0
O93 O 0.65153 0.86428 0.30189 0.0
C94 C 0.66045 0.92994 0.34079 0.0
H95 H 0.67772 0.91812 0.17924 0.0
H96 H 0.57841 0.86185 0.41319 0.0
H97 H 0.55022 0.81822 0.28417 0.0
H98 H 0.57122 0.89346 0.23603 0.0
Co99 Co 0.76121 0.63863 0.47313 0.0
C100 C 0.75648 0.6774 0.42599 0.0
C101 C 0.76784 0.65363 0.39555 0.0
C102 C 0.76363 0.66939 0.37206 0.0
N103 N 0.76325 0.65848 0.42956 0.0
N104 N 0.75635 0.68426 0.39124 0.0
H105 H 0.75025 0.68507 0.44798 0.0
H106 H 0.77205 0.63839 0.38768 0.0
C107 C 0.81299 0.64285 0.4459 0.0
O108 O 0.8024 0.6278 0.41753 0.0
N109 N 0.75883 0.61925 0.51651 0.0
C110 C 0.73721 0.59718 0.5279 0.0
C111 C 0.74164 0.59154 0.56222 0.0
C112 C 0.77605 0.62697 0.54416 0.0
N113 N 0.76597 0.61036 0.57255 0.0
C114 C 0.7237 0.59864 0.42749 0.0
C115 C 0.73827 0.5613 0.44184 0.0
C116 C 0.71396 0.55325 0.42498 0.0
C117 C 0.70733 0.57258 0.41651 0.0
C118 C 0.75424 0.58771 0.45215 0.0
N119 N 0.74643 0.60582 0.44595 0.0
H120 H 0.71708 0.61272 0.42364 0.0
H121 H 0.77169 0.59304 0.46796 0.0
H122 H 0.71911 0.58646 0.51272 0.0
H123 H 0.79487 0.64511 0.54421 0.0
O124 O 0.72854 0.6368 0.48705 0.0
O125 O 0.76862 0.66856 0.50263 0.0
O126 O 0.79905 0.64772 0.46759 0.0
C127 C 0.74322 0.658 0.50592 0.0
H128 H 0.76496 0.6692 0.34299 0.0
H129 H 0.72776 0.57511 0.57856 0.0
H130 H 0.74424 0.54707 0.4488 0.0
H131 H 0.68861 0.56733 0.40411 0.0
Co132 Co 0.13151 0.75763 0.64175 0.0
C133 C 0.09068 0.74625 0.58633 0.0
C134 C 0.12012 0.78713 0.58603 0.0
C135 C 0.1002 0.78344 0.56283 0.0
N136 N 0.11453 0.76366 0.60035 0.0
N137 N 0.0816 0.75767 0.56314 0.0
H138 H 0.079 0.72601 0.59518 0.0
H139 H 0.13635 0.80611 0.59377 0.0
C140 C 0.17994 0.80692 0.6126 0.0
O141 O 0.17768 0.79668 0.58038 0.0
N142 N 0.14738 0.75168 0.68365 0.0
C143 C 0.14618 0.7289 0.6934 0.0
C144 C 0.15689 0.73205 0.7273 0.0
C145 C 0.15826 0.76816 0.71183 0.0
N146 N 0.16431 0.75668 0.73888 0.0
C147 C 0.12911 0.71846 0.59349 0.0
C148 C 0.17975 0.72848 0.60637 0.0
C149 C 0.16155 0.70441 0.59026 0.0
C150 C 0.13648 0.70041 0.58187 0.0
C151 C 0.17172 0.74643 0.61685 0.0
N152 N 0.14622 0.74064 0.61201 0.0
H153 H 0.10884 0.71313 0.59041 0.0
H154 H 0.18521 0.76355 0.63239 0.0
H155 H 0.13726 0.71099 0.67751 0.0
H156 H 0.16093 0.78785 0.71285 0.0
O157 O 0.09865 0.72678 0.65524 0.0
O158 O 0.11211 0.76786 0.673 0.0
O159 O 0.16355 0.79371 0.6374 0.0
C160 C 0.09463 0.74289 0.67496 0.0
H161 H 0.099 0.79883 0.54827 0.0
H162 H 0.15796 0.71697 0.74289 0.0
H163 H 0.19932 0.73251 0.61356 0.0
H164 H 0.12192 0.68252 0.56858 0.0
Co165 Co 0.38467 0.12697 0.8059 0.0
C166 C 0.34775 0.08343 0.75728 0.0
C167 C 0.36973 0.11961 0.72825 0.0
C168 C 0.35479 0.09981 0.70408 0.0
N169 N 0.36542 0.10945 0.76183 0.0
N170 N 0.34104 0.07697 0.72235 0.0
H171 H 0.34095 0.06904 0.77868 0.0
H172 H 0.38413 0.13954 0.72105 0.0
C173 C 0.3804 0.17493 0.77968 0.0
O174 O 0.39593 0.18014 0.75174 0.0
N175 N 0.40352 0.14362 0.84976 0.0
C176 C 0.42566 0.14428 0.86119 0.0
C177 C 0.43066 0.15344 0.89599 0.0
C178 C 0.3951 0.15206 0.8779 0.0
N179 N 0.41135 0.15813 0.90661 0.0
C180 C 0.42506 0.13023 0.76048 0.0
C181 C 0.46193 0.18208 0.77617 0.0
C182 C 0.47027 0.1661 0.75903 0.0
C183 C 0.45118 0.14018 0.74986 0.0
C184 C 0.43549 0.17137 0.78613 0.0
N185 N 0.41762 0.14547 0.7793 0.0
H186 H 0.41115 0.10953 0.75609 0.0
H187 H 0.42993 0.18323 0.8022 0.0
H188 H 0.43682 0.13753 0.84573 0.0
H189 H 0.37669 0.15216 0.87807 0.0
O190 O 0.38664 0.09607 0.8196 0.0
O191 O 0.35458 0.10404 0.83465 0.0
O192 O 0.37533 0.15567 0.80067 0.0
C193 C 0.36527 0.08929 0.83808 0.0
H194 H 0.35481 0.10202 0.67514 0.0
H195 H 0.44696 0.15587 0.91247 0.0
H196 H 0.47596 0.20224 0.78364 0.0
H197 H 0.45665 0.12693 0.7372 0.0
Co198 Co 0.64709 0.75674 0.85432 0.0
C199 C 0.67357 0.74329 0.91184 0.0
C200 C 0.68851 0.78493 0.90955 0.0
C201 C 0.7036 0.78014 0.93349 0.0
N202 N 0.66915 0.76175 0.89643 0.0
N203 N 0.69431 0.75391 0.93471 0.0
H204 H 0.66307 0.72265 0.90461 0.0
H205 H 0.69313 0.80424 0.90017 0.0
C206 C 0.6511 0.80755 0.88294 0.0
O207 O 0.64368 0.79773 0.91546 0.0
N208 N 0.6261 0.75165 0.81182 0.0
C209 C 0.60413 0.72928 0.80207 0.0
C210 C 0.5974 0.73239 0.76766 0.0
C211 C 0.63261 0.76795 0.78326 0.0
N212 N 0.6154 0.75666 0.75579 0.0
C213 C 0.60762 0.71838 0.90079 0.0
C214 C 0.57095 0.7342 0.88955 0.0
C215 C 0.5627 0.70952 0.90549 0.0
C216 C 0.58173 0.70225 0.91242 0.0
C217 C 0.59718 0.7499 0.87857 0.0
N218 N 0.61501 0.74153 0.88319 0.0
H219 H 0.62094 0.71086 0.90299 0.0
H220 H 0.6024 0.76754 0.86321 0.0
H221 H 0.59424 0.71163 0.81838 0.0
H222 H 0.65038 0.78706 0.78195 0.0
O223 O 0.64732 0.72473 0.84189 0.0
O224 O 0.6768 0.76514 0.82399 0.0
O225 O 0.65305 0.7937 0.85788 0.0
C226 C 0.66805 0.73987 0.82258 0.0
H227 H 0.72138 0.79502 0.94656 0.0
H228 H 0.58078 0.71772 0.75237 0.0
H229 H 0.55695 0.74067 0.8837 0.0
H230 H 0.57628 0.68317 0.92391 0.0
Co231 Co 0.89761 0.63963 0.02191 0.0
C232 C 0.93802 0.66664 0.0786 0.0
C233 C 0.90998 0.67985 0.07906 0.0
C234 C 0.92999 0.69514 0.10279 0.0
N235 N 0.91462 0.66145 0.06431 0.0
N236 N 0.94776 0.68694 0.10225 0.0
H237 H 0.94871 0.65697 0.07014 0.0
H238 H 0.89455 0.68374 0.07106 0.0
C239 C 0.84996 0.64178 0.05133 0.0
O240 O 0.85202 0.63356 0.08346 0.0
N241 N 0.88179 0.61889 0.97911 0.0
C242 C 0.88265 0.59726 0.9687 0.0
C243 C 0.87328 0.59104 0.93401 0.0
C244 C 0.8722 0.62572 0.95063 0.0
N245 N 0.86688 0.60904 0.9226 0.0
C246 C 0.89794 0.60051 0.06767 0.0
C247 C 0.84591 0.56246 0.05643 0.0
C248 C 0.86292 0.555 0.07238 0.0
C249 C 0.88897 0.5747 0.07925 0.0
C250 C 0.85564 0.58868 0.04559 0.0
N251 N 0.88163 0.6072 0.05022 0.0
H252 H 0.91865 0.61441 0.06989 0.0
H253 H 0.84281 0.59342 0.03044 0.0
H254 H 0.89054 0.58736 0.9847 0.0
H255 H 0.87072 0.64343 0.94977 0.0
O256 O 0.93013 0.64093 0.0085 0.0
O257 O 0.9181 0.66987 0.99202 0.0
O258 O 0.8662 0.64468 0.02643 0.0
C259 C 0.93505 0.66175 0.98974 0.0
H260 H 0.93231 0.71235 0.117 0.0
H261 H 0.87186 0.57483 0.91817 0.0
H262 H 0.82562 0.5479 0.05059 0.0
H263 H 0.90302 0.56987 0.09075 0.0
Co264 Co 0.26629 0.89244 0.18602 0.0
C265 C 0.27881 0.93451 0.24018 0.0
C266 C 0.23824 0.90461 0.24327 0.0
C267 C 0.2425 0.92488 0.26627 0.0
N268 N 0.26117 0.91031 0.22724 0.0
N269 N 0.26807 0.94378 0.26422 0.0
H270 H 0.29878 0.94606 0.23038 0.0
H271 H 0.21917 0.88796 0.23713 0.0
C272 C 0.21649 0.84432 0.21468 0.0
O273 O 0.22714 0.84532 0.24621 0.0
N274 N 0.27132 0.87568 0.14432 0.0
C275 C 0.2937 0.87628 0.13427 0.0
C276 C 0.28984 0.86467 0.10087 0.0
C277 C 0.25435 0.86426 0.11679 0.0
N278 N 0.26514 0.85726 0.08987 0.0
C279 C 0.30372 0.89328 0.23591 0.0
C280 C 0.29374 0.84273 0.22144 0.0
C281 C 0.3174 0.86051 0.23876 0.0
C282 C 0.3213 0.88548 0.24797 0.0
C283 C 0.27621 0.85116 0.21059 0.0
N284 N 0.28206 0.87667 0.21614 0.0
H285 H 0.30906 0.91357 0.23972 0.0
H286 H 0.2594 0.83802 0.1943 0.0
H287 H 0.3118 0.88529 0.14967 0.0
H288 H 0.23479 0.8618 0.11614 0.0
O289 O 0.29804 0.92444 0.17266 0.0
O290 O 0.25762 0.913 0.15439 0.0
O291 O 0.22956 0.86136 0.19043 0.0
C292 C 0.28283 0.92958 0.15278 0.0
H293 H 0.22759 0.926 0.2821 0.0
H294 H 0.30448 0.86295 0.08519 0.0
H295 H 0.28976 0.82323 0.21365 0.0
H296 H 0.33882 0.89968 0.26228 0.0
Co297 Co 0.38315 0.26388 0.35595 0.0
C298 C 0.34747 0.27176 0.40506 0.0
C299 C 0.36295 0.2498 0.43116 0.0
C300 C 0.34775 0.25413 0.45557 0.0
N301 N 0.36283 0.26087 0.39932 0.0
N302 N 0.33803 0.26797 0.43905 0.0
H303 H 0.34407 0.28332 0.3854 0.0
H304 H 0.374 0.2401 0.43706 0.0
C305 C 0.3831 0.21328 0.3804 0.0
O306 O 0.40076 0.22479 0.40589 0.0
N307 N 0.40271 0.26704 0.31247 0.0
C308 C 0.42376 0.28931 0.30031 0.0
C309 C 0.42925 0.28502 0.26581 0.0
C310 C 0.39541 0.2496 0.28508 0.0
N311 N 0.41131 0.26012 0.25613 0.0
C312 C 0.4207 0.30062 0.40511 0.0
C313 C 0.46172 0.29249 0.38607 0.0
C314 C 0.46735 0.31521 0.40585 0.0
C315 C 0.44615 0.31829 0.41696 0.0
C316 C 0.43579 0.27496 0.37526 0.0
N317 N 0.41581 0.27973 0.38357 0.0
H318 H 0.40524 0.30501 0.41091 0.0
H319 H 0.43223 0.25885 0.35749 0.0
H320 H 0.43378 0.30772 0.31505 0.0
H321 H 0.37791 0.23025 0.2856 0.0
O322 O 0.38381 0.29608 0.34218 0.0
O323 O 0.35302 0.25552 0.32645 0.0
O324 O 0.37535 0.22632 0.36142 0.0
C325 C 0.36278 0.2809 0.32334 0.0
H326 H 0.3444 0.24781 0.48341 0.0
H327 H 0.44492 0.29937 0.24892 0.0
H328 H 0.47736 0.28926 0.3766 0.0
H329 H 0.44934 0.33512 0.43297 0.0
Co330 Co 0.13036 0.37888 0.52248 0.0
C331 C 0.08995 0.35194 0.57938 0.0
C332 C 0.11745 0.33805 0.57859 0.0
C333 C 0.09749 0.32273 0.60224 0.0
N334 N 0.11315 0.35689 0.56465 0.0
N335 N 0.08 0.33131 0.60254 0.0
H336 H 0.07923 0.36159 0.57089 0.0
H337 H 0.13263 0.33393 0.57015 0.0
C338 C 0.17729 0.37562 0.55191 0.0
O339 O 0.17504 0.38365 0.5841 0.0
N340 N 0.14646 0.39977 0.47992 0.0
C341 C 0.14667 0.42204 0.47004 0.0
C342 C 0.15732 0.42899 0.43604 0.0
C343 C 0.15648 0.39317 0.45172 0.0
N344 N 0.16334 0.41075 0.42451 0.0
C345 C 0.13091 0.41822 0.56874 0.0
C346 C 0.18318 0.45555 0.5574 0.0
C347 C 0.1665 0.46353 0.57313 0.0
C348 C 0.14033 0.44417 0.58015 0.0
C349 C 0.17299 0.42926 0.54663 0.0
N350 N 0.14689 0.41112 0.5512 0.0
H351 H 0.11014 0.40454 0.57109 0.0
H352 H 0.18557 0.42421 0.53143 0.0
H353 H 0.13882 0.43202 0.48597 0.0
H354 H 0.15808 0.37552 0.45087 0.0
O355 O 0.09821 0.37843 0.50945 0.0
O356 O 0.10931 0.34891 0.49227 0.0
O357 O 0.16136 0.37313 0.52677 0.0
C358 C 0.09274 0.35753 0.49051 0.0
H359 H 0.09542 0.30567 0.61654 0.0
H360 H 0.15936 0.44554 0.4204 0.0
H361 H 0.20356 0.46979 0.55153 0.0
H362 H 0.12653 0.44939 0.59158 0.0
Co363 Co 0.76091 0.1283 0.68933 0.0
C364 C 0.7519 0.08295 0.73585 0.0
C365 C 0.77517 0.11972 0.7632 0.0
C366 C 0.77058 0.09946 0.78643 0.0
N367 N 0.76347 0.10945 0.73131 0.0
N368 N 0.75591 0.07632 0.76917 0.0
H369 H 0.73983 0.06859 0.71581 0.0
H370 H 0.78565 0.14038 0.76993 0.0
C371 C 0.81124 0.17804 0.71617 0.0
O372 O 0.79953 0.18339 0.74228 0.0
N373 N 0.7583 0.14632 0.64721 0.0
C374 C 0.73644 0.14608 0.63539 0.0
C375 C 0.74162 0.1581 0.60222 0.0
C376 C 0.77629 0.1579 0.62081 0.0
N377 N 0.76662 0.1654 0.59301 0.0
C378 C 0.72404 0.12779 0.73938 0.0
C379 C 0.73213 0.17746 0.72313 0.0
C380 C 0.70925 0.15975 0.742 0.0
C381 C 0.70621 0.1352 0.75182 0.0
C382 C 0.74983 0.16942 0.71175 0.0
N383 N 0.74503 0.1444 0.71853 0.0
H384 H 0.71963 0.10776 0.74404 0.0
H385 H 0.76607 0.18252 0.69459 0.0
H386 H 0.71775 0.13695 0.6494 0.0
H387 H 0.79571 0.15999 0.62149 0.0
O388 O 0.72879 0.09738 0.67396 0.0
O389 O 0.76927 0.10731 0.65802 0.0
O390 O 0.79843 0.15775 0.69615 0.0
C391 C 0.74394 0.09196 0.65435 0.0
H392 H 0.77742 0.10167 0.81398 0.0
H393 H 0.72762 0.16005 0.58536 0.0
H394 H 0.73537 0.19658 0.71469 0.0
H395 H 0.68926 0.12106 0.76714 0.0
H396 H 0.15368 0.36667 0.38772 0.0
H397 H 0.16941 0.3647 0.32723 0.0
H398 H 0.21017 0.44969 0.32089 0.0
H399 H 0.19489 0.45184 0.38145 0.0
H400 H 0.16089 0.38697 0.26145 0.0
H401 H 0.26672 0.42893 0.29535 0.0
H402 H 0.241 0.41517 0.32895 0.0
H403 H 0.25212 0.4477 0.31141 0.0
C404 C 0.1663 0.38494 0.37365 0.0
C405 C 0.17315 0.40944 0.38942 0.0
C406 C 0.17508 0.38376 0.33902 0.0
C407 C 0.19112 0.40705 0.31981 0.0
C408 C 0.19805 0.43151 0.33548 0.0
H409 H 0.26918 0.45294 0.11475 0.0
H410 H 0.25046 0.45012 0.17453 0.0
C411 C 0.18915 0.4327 0.36995 0.0
C412 C 0.20024 0.40593 0.28303 0.0
H413 H 0.25576 0.42474 0.23326 0.0
C414 C 0.18159 0.39501 0.25522 0.0
C415 C 0.22725 0.41645 0.27515 0.0
C416 C 0.24798 0.42754 0.30428 0.0
C417 C 0.18937 0.39516 0.21936 0.0
C418 C 0.21646 0.40607 0.21138 0.0
C419 C 0.23502 0.4165 0.2394 0.0
C420 C 0.22623 0.40752 0.17412 0.0
C421 C 0.16863 0.3845 0.19023 0.0
C422 C 0.21869 0.38452 0.15391 0.0
C423 C 0.22933 0.38611 0.11962 0.0
C424 C 0.24794 0.41072 0.10519 0.0
C425 C 0.25511 0.43371 0.12532 0.0
C426 C 0.24438 0.43212 0.15942 0.0
H427 H 0.14994 0.38313 0.19941 0.0
H428 H 0.1756 0.39712 0.16579 0.0
H429 H 0.16432 0.36437 0.18265 0.0
H430 H 0.20516 0.36528 0.16503 0.0
H431 H 0.22373 0.36803 0.10503 0.0
H432 H 0.83295 0.27095 0.28319 0.0
H433 H 0.81819 0.25389 0.34409 0.0
H434 H 0.85854 0.20937 0.33713 0.0
H435 H 0.87375 0.22669 0.2764 0.0
H436 H 0.78794 0.19854 0.36523 0.0
H437 H 0.88578 0.253 0.43255 0.0
H438 H 0.87933 0.26282 0.38933 0.0
H439 H 0.88388 0.23474 0.39255 0.0
C440 C 0.83882 0.25767 0.29471 0.0
C441 C 0.85456 0.25023 0.27501 0.0
C442 C 0.83029 0.24786 0.3294 0.0
C443 C 0.83756 0.23065 0.34518 0.0
C444 C 0.85301 0.22291 0.32553 0.0
H445 H 0.80309 0.1577 0.55849 0.0
H446 H 0.82106 0.17324 0.49808 0.0
C447 C 0.86143 0.23259 0.29071 0.0
C448 C 0.82848 0.2205 0.382 0.0
H449 H 0.84967 0.22374 0.46855 0.0
C450 C 0.80141 0.204 0.38784 0.0
C451 C 0.84618 0.22754 0.41128 0.0
C452 C 0.87543 0.24564 0.4064 0.0
C453 C 0.79148 0.19433 0.42231 0.0
C454 C 0.80908 0.20195 0.45185 0.0
C455 C 0.83624 0.21805 0.44588 0.0
C456 C 0.79949 0.19385 0.4892 0.0
C457 C 0.76225 0.17577 0.42668 0.0
C458 C 0.78209 0.20098 0.50461 0.0
C459 C 0.77182 0.19215 0.539 0.0
C460 C 0.77899 0.17624 0.55886 0.0
C461 C 0.79732 0.17005 0.54398 0.0
C462 C 0.8075 0.1788 0.50942 0.0
H463 H 0.75288 0.16599 0.40083 0.0
H464 H 0.75823 0.16029 0.44705 0.0
H465 H 0.75281 0.18713 0.43582 0.0
H466 H 0.77622 0.2132 0.48986 0.0
H467 H 0.75816 0.19767 0.55003 0.0
H468 H 0.59708 0.86777 0.4706 0.0
H469 H 0.60011 0.85112 0.52953 0.0
H470 H 0.63965 0.81309 0.48184 0.0
H471 H 0.63665 0.82978 0.42239 0.0
H472 H 0.57831 0.79893 0.54923 0.0
H473 H 0.68691 0.85262 0.56806 0.0
H474 H 0.67088 0.86192 0.53429 0.0
H475 H 0.67557 0.83418 0.52682 0.0
C476 C 0.60634 0.85579 0.47252 0.0
C477 C 0.61645 0.84991 0.44173 0.0
C478 C 0.6082 0.84643 0.5063 0.0
C479 C 0.62028 0.83106 0.51013 0.0
C480 C 0.63068 0.82534 0.47958 0.0
H481 H 0.59686 0.72936 0.69343 0.0
H482 H 0.59868 0.74747 0.63358 0.0
C483 C 0.62891 0.83482 0.44565 0.0
C484 C 0.62067 0.82006 0.54594 0.0
H485 H 0.66141 0.82029 0.61193 0.0
C486 C 0.59648 0.80359 0.56294 0.0
C487 C 0.64441 0.82643 0.56391 0.0
C488 C 0.67095 0.84494 0.54756 0.0
C489 C 0.59535 0.7932 0.59735 0.0
C490 C 0.61905 0.79906 0.61499 0.0
C491 C 0.64328 0.81569 0.59817 0.0
C492 C 0.61897 0.78822 0.65108 0.0
C493 C 0.56879 0.77648 0.61484 0.0
C494 C 0.63041 0.80518 0.68062 0.0
C495 C 0.62939 0.79487 0.71497 0.0
C496 C 0.61694 0.76741 0.72034 0.0
C497 C 0.60603 0.75055 0.69045 0.0
C498 C 0.60712 0.76087 0.65617 0.0
H499 H 0.55331 0.77938 0.60192 0.0
H500 H 0.56288 0.75533 0.61214 0.0
H501 H 0.56956 0.7811 0.64398 0.0
H502 H 0.6397 0.82638 0.6772 0.0
H503 H 0.63786 0.80837 0.73742 0.0
H504 H 0.74028 0.59342 0.63611 0.0
H505 H 0.75959 0.59611 0.6952 0.0
H506 H 0.83734 0.63618 0.64839 0.0
H507 H 0.81802 0.63348 0.58878 0.0
H508 H 0.79008 0.57417 0.7146 0.0
H509 H 0.84434 0.68286 0.73541 0.0
H510 H 0.81913 0.66695 0.70145 0.0
H511 H 0.85156 0.67188 0.69394 0.0
C512 C 0.76148 0.60272 0.63825 0.0
C513 C 0.77761 0.61304 0.60764 0.0
C514 C 0.7725 0.6044 0.67213 0.0
C515 C 0.79989 0.61652 0.67625 0.0
C516 C 0.81616 0.62716 0.6459 0.0
H517 H 0.87721 0.59222 0.85986 0.0
H518 H 0.86168 0.5948 0.7998 0.0
C519 C 0.80511 0.62556 0.61187 0.0
C520 C 0.81106 0.61665 0.71213 0.0
H521 H 0.85084 0.65702 0.77907 0.0
C522 C 0.80339 0.59228 0.72869 0.0
C523 C 0.82816 0.64032 0.73058 0.0
C524 C 0.83616 0.66703 0.71467 0.0
C525 C 0.81243 0.5909 0.76314 0.0
C526 C 0.82998 0.61454 0.7813 0.0
C527 C 0.83754 0.63894 0.76491 0.0
C528 C 0.84041 0.61417 0.81751 0.0
C529 C 0.80269 0.56414 0.78012 0.0
C530 C 0.83419 0.62485 0.84725 0.0
C531 C 0.84301 0.62335 0.88173 0.0
C532 C 0.85825 0.61118 0.88701 0.0
C533 C 0.86497 0.60112 0.85693 0.0
C534 C 0.85621 0.60267 0.82253 0.0
H535 H 0.78462 0.54858 0.76666 0.0
H536 H 0.81818 0.55858 0.77772 0.0
H537 H 0.7984 0.56452 0.80919 0.0
H538 H 0.82205 0.63386 0.84388 0.0
H539 H 0.83742 0.6312 0.90432 0.0
H540 H 0.19487 0.74555 0.78155 0.0
H541 H 0.21103 0.76293 0.84202 0.0
H542 H 0.17301 0.8097 0.8362 0.0
H543 H 0.15649 0.79216 0.77593 0.0
H544 H 0.24308 0.81896 0.86203 0.0
H545 H 0.14638 0.7666 0.93245 0.0
H546 H 0.15191 0.75601 0.88921 0.0
H547 H 0.14778 0.78435 0.89217 0.0
C548 C 0.18983 0.75941 0.79325 0.0
C549 C 0.17441 0.76747 0.774 0.0
C550 C 0.19915 0.76939 0.82767 0.0
C551 C 0.19296 0.78735 0.84361 0.0
C552 C 0.17774 0.79562 0.82444 0.0
H553 H 0.22891 0.8641 0.05328 0.0
H554 H 0.21129 0.84728 0.99321 0.0
C555 C 0.16856 0.78579 0.7899 0.0
C556 C 0.20283 0.79774 0.8801 0.0
H557 H 0.18316 0.79659 0.96696 0.0
C558 C 0.23004 0.81407 0.88503 0.0
C559 C 0.18566 0.79142 0.90985 0.0
C560 C 0.1563 0.77349 0.90595 0.0
C561 C 0.2406 0.82449 0.91902 0.0
C562 C 0.22349 0.81778 0.94901 0.0
C563 C 0.19622 0.80162 0.94396 0.0
C564 C 0.23357 0.82724 0.98586 0.0
C565 C 0.26991 0.84302 0.92232 0.0
C566 C 0.25147 0.82104 0.00198 0.0
C567 C 0.26159 0.83065 0.03624 0.0
C568 C 0.25374 0.84636 0.05527 0.0
C569 C 0.23518 0.85187 0.03949 0.0
C570 C 0.22519 0.84238 0.0051 0.0
H571 H 0.2789 0.85201 0.89596 0.0
H572 H 0.27435 0.85911 0.94186 0.0
H573 H 0.27939 0.83183 0.932 0.0
H574 H 0.25765 0.80878 0.98802 0.0
H575 H 0.27547 0.82569 0.04795 0.0
H576 H 0.4277 0.14785 0.96962 0.0
H577 H 0.42407 0.16278 0.02955 0.0
H578 H 0.38345 0.20067 0.98492 0.0
H579 H 0.38709 0.18576 0.92447 0.0
H580 H 0.44538 0.21467 0.05075 0.0
H581 H 0.33698 0.15951 0.07116 0.0
H582 H 0.35303 0.15086 0.03659 0.0
H583 H 0.34767 0.17826 0.03011 0.0
C584 C 0.41804 0.15941 0.97243 0.0
C585 C 0.4079 0.16585 0.94218 0.0
C586 C 0.41582 0.16776 0.00678 0.0
C587 C 0.40331 0.18264 0.01175 0.0
C588 C 0.39274 0.18877 0.98177 0.0
H589 H 0.42659 0.28542 0.19194 0.0
H590 H 0.42368 0.26572 0.13302 0.0
C591 C 0.39489 0.18032 0.94726 0.0
C592 C 0.40299 0.19307 0.04804 0.0
H593 H 0.36247 0.19228 0.11481 0.0
C594 C 0.42724 0.20972 0.06478 0.0
C595 C 0.37931 0.18631 0.06645 0.0
C596 C 0.35274 0.16757 0.05038 0.0
C597 C 0.42849 0.22012 0.09922 0.0
C598 C 0.40484 0.21404 0.11719 0.0
C599 C 0.38055 0.19703 0.10079 0.0
C600 C 0.40517 0.2256 0.15282 0.0
C601 C 0.45513 0.23731 0.11627 0.0
C602 C 0.39502 0.20947 0.18338 0.0
C603 C 0.39673 0.22071 0.21731 0.0
C604 C 0.40859 0.24827 0.22114 0.0
C605 C 0.41798 0.26422 0.19018 0.0
C606 C 0.41623 0.25299 0.1564 0.0
H607 H 0.47068 0.23461 0.10321 0.0
H608 H 0.46067 0.25835 0.11335 0.0
H609 H 0.45468 0.23295 0.14547 0.0
H610 H 0.38632 0.18825 0.18109 0.0
H611 H 0.38937 0.20791 0.2406 0.0
H612 H 0.27782 0.29853 0.92932 0.0
H613 H 0.29607 0.27197 0.90553 0.0
H614 H 0.30573 0.30829 0.80139 0.0
H615 H 0.28782 0.33521 0.8251 0.0
H616 H 0.27685 0.23605 0.84325 0.0
H617 H 0.37997 0.3185 0.82723 0.0
H618 H 0.35649 0.32097 0.85612 0.0
H619 H 0.35437 0.32317 0.80815 0.0
C620 C 0.28398 0.30102 0.90143 0.0
C621 C 0.28144 0.31911 0.87919 0.0
C622 C 0.29428 0.28572 0.88782 0.0
C623 C 0.30253 0.28838 0.85182 0.0
C624 C 0.29977 0.30616 0.82938 0.0
H625 H 0.38096 0.21446 0.73858 0.0
H626 H 0.3612 0.24171 0.75343 0.0
C627 C 0.28929 0.32135 0.8429 0.0
C628 C 0.31376 0.27229 0.83782 0.0
H629 H 0.37098 0.27619 0.80895 0.0
C630 C 0.29741 0.24481 0.83565 0.0
C631 C 0.34052 0.2838 0.8276 0.0
C632 C 0.35902 0.31321 0.83002 0.0
C633 C 0.3071 0.22847 0.82369 0.0
C634 C 0.33411 0.23986 0.81458 0.0
C635 C 0.35033 0.26745 0.81599 0.0
C636 C 0.3461 0.22339 0.80526 0.0
C637 C 0.2882 0.19917 0.82056 0.0
C638 C 0.34465 0.20439 0.82967 0.0
C639 C 0.35572 0.18874 0.8212 0.0
C640 C 0.3689 0.19193 0.78825 0.0
C641 C 0.37088 0.21139 0.7641 0.0
C642 C 0.3596 0.22699 0.77256 0.0
H643 H 0.26759 0.19485 0.81696 0.0
H644 H 0.2934 0.19048 0.7976 0.0
H645 H 0.28894 0.1893 0.8457 0.0
H646 H 0.33506 0.20175 0.85551 0.0
H647 H 0.35406 0.17422 0.84073 0.0
H648 H 0.18723 0.3461 -0.00086 0.0
H649 H 0.14092 0.32874 0.01331 0.0
H650 H 0.13481 0.37526 0.9278 0.0
H651 H 0.1815 0.39278 0.91301 0.0
H652 H 0.11661 0.35747 0.03431 0.0
H653 H 0.0723 0.30008 0.90886 0.0
H654 H 0.10611 0.31166 0.92144 0.0
H655 H 0.09686 0.33426 0.90311 0.0
C656 C 0.17614 0.35262 0.98305 0.0
C657 C 0.18821 0.37085 0.95477 0.0
C658 C 0.14959 0.34266 0.99131 0.0
C659 C 0.13431 0.35049 0.97148 0.0
C660 C 0.14613 0.36862 0.94313 0.0
H661 H 0.9787 0.31693 0.04861 0.0
H662 H 0.02356 0.33939 0.02452 0.0
C663 C 0.17285 0.3787 0.93481 0.0
C664 C 0.10623 0.33999 0.98151 0.0
H665 H 0.04298 0.29969 0.95277 0.0
C666 C 0.1005 0.34503 0.01637 0.0
C667 C 0.08525 0.32355 0.95819 0.0
C668 C 0.09027 0.31682 0.92087 0.0
C669 C 0.07442 0.33382 0.02872 0.0
C670 C 0.05343 0.31732 0.00546 0.0
C671 C 0.05911 0.3125 0.97044 0.0
C672 C 0.02559 0.30371 0.01788 0.0
C673 C 0.06954 0.33892 0.06703 0.0
C674 C 1.01157 0.27613 0.02131 0.0
C675 C 0.98598 0.26321 0.03533 0.0
C676 C 0.97372 0.27759 0.04608 0.0
C677 C 0.98759 0.30521 0.0414 0.0
C678 C 1.01325 0.31811 0.02749 0.0
H679 H 0.08785 0.34788 0.08345 0.0
H680 H 0.06171 0.35272 0.06698 0.0
H681 H 0.05468 0.32029 0.08015 0.0
H682 H 0.02073 0.26462 0.01406 0.0
H683 H 0.97621 0.24202 0.03868 0.0
H684 H 0.83662 0.18734 0.17703 0.0
H685 H 0.80599 0.14105 0.18982 0.0
H686 H 0.78625 0.12664 0.07706 0.0
H687 H 0.81744 0.17332 0.06374 0.0
H688 H 0.75207 0.11077 0.17755 0.0
H689 H 0.80702 0.07102 0.1027 0.0
H690 H 0.82146 0.10561 0.1136 0.0
H691 H 0.79812 0.09162 0.07742 0.0
C692 C 0.82582 0.17445 0.15479 0.0
C693 C 0.82971 0.1841 0.11924 0.0
C694 C 0.80822 0.14792 0.16223 0.0
C695 C 0.79409 0.13025 0.13439 0.0
C696 C 0.79732 0.13983 0.09891 0.0
H697 H 0.68809 0.95887 0.15531 0.0
H698 H 0.71314 1.00364 0.13099 0.0
C699 C 0.81499 0.16655 0.09137 0.0
C700 C 0.77621 0.1019 0.14315 0.0
H701 H 0.76844 0.04025 0.13296 0.0
C702 C 0.75554 0.09533 0.16758 0.0
C703 C 0.78072 0.08173 0.13012 0.0
C704 C 0.80312 0.08772 0.10471 0.0
C705 C 0.73955 0.06929 0.17977 0.0
C706 C 0.7446 0.0493 0.16767 0.0
C707 C 0.76468 0.05564 0.14231 0.0
C708 C 0.72992 0.02196 0.18221 0.0
C709 C 0.71741 0.06342 0.2056 0.0
C710 C 0.7315 0.01726 0.21896 0.0
C711 C 0.71738 0.99166 0.23295 0.0
C712 C 0.70135 0.97007 0.21049 0.0
C713 C 0.70031 0.97483 0.17346 0.0
C714 C 0.71453 1.00049 0.15948 0.0
H715 H 0.7116 0.07882 0.20448 0.0
H716 H 0.69983 0.04393 0.1997 0.0
H717 H 0.72397 0.06291 0.23348 0.0
H718 H 0.74375 0.03345 0.23687 0.0
H719 H 0.71921 0.98882 0.26137 0.0
H720 H 0.7333 0.68093 0.32642 0.0
H721 H 0.71599 0.70871 0.30439 0.0
H722 H 0.7401 0.75359 0.40305 0.0
H723 H 0.75795 0.72623 0.42501 0.0
H724 H 0.67622 0.71591 0.33759 0.0
H725 H 0.77022 0.81073 0.32374 0.0
H726 H 0.76895 0.77931 0.32732 0.0
H727 H 0.76542 0.79501 0.36686 0.0
C728 C 0.73537 0.69698 0.34322 0.0
C729 C 0.74716 0.70138 0.37749 0.0
C730 C 0.72526 0.71273 0.33067 0.0
C731 C 0.72699 0.7334 0.35189 0.0
C732 C 0.73889 0.738 0.38597 0.0
H733 H 0.67613 0.84823 0.33981 0.0
H734 H 0.69508 0.82061 0.35465 0.0
C735 C 0.74888 0.72218 0.39864 0.0
C736 C 0.71544 0.74951 0.33898 0.0
H737 H 0.73078 0.81257 0.31847 0.0
C738 C 0.68814 0.73702 0.33311 0.0
C739 C 0.73104 0.77703 0.3332 0.0
C740 C 0.76057 0.79135 0.33777 0.0
C741 C 0.67589 0.75143 0.32274 0.0
C742 C 0.69146 0.77904 0.31728 0.0
C743 C 0.71883 0.79143 0.32264 0.0
C744 C 0.6797 0.79566 0.30755 0.0
C745 C 0.64628 0.73709 0.31906 0.0
C746 C 0.66487 0.79106 0.27586 0.0
C747 C 0.65378 0.8068 0.26731 0.0
C748 C 0.65757 0.82766 0.29011 0.0
C749 C 0.67277 0.8324 0.32153 0.0
C750 C 0.68368 0.81661 0.3301 0.0
H751 H 0.63686 0.71766 0.33295 0.0
H752 H 0.63802 0.74904 0.33025 0.0
H753 H 0.64097 0.73349 0.2901 0.0
H754 H 0.662 0.7754 0.25759 0.0
H755 H 0.64235 0.8027 0.2428 0.0
H756 H 0.05373 0.78136 0.54282 0.0
H757 H 1.00907 0.75995 0.51837 0.0
H758 H 1.00583 0.68468 0.52122 0.0
H759 H 0.05064 0.70597 0.54549 0.0
H760 H 0.98653 0.72915 0.45603 0.0
H761 H 0.94152 0.67188 0.58106 0.0
H762 H 0.97497 0.69906 0.57951 0.0
H763 H 0.9671 0.66734 0.56178 0.0
C764 C 0.04375 0.76032 0.53785 0.0
C765 C 0.05582 0.74539 0.54651 0.0
C766 C 0.01812 0.74808 0.52395 0.0
C767 C 1.00393 0.72066 0.5185 0.0
C768 C 0.01618 0.70579 0.52592 0.0
H769 H 0.8502 0.63706 0.40781 0.0
H770 H 0.89679 0.65489 0.42329 0.0
C771 C 0.04181 0.718 0.53985 0.0
C772 C 0.9761 0.70764 0.50602 0.0
H773 H 0.91299 0.6641 0.53197 0.0
C774 C 0.97043 0.71482 0.47251 0.0
C775 C 0.95511 0.68915 0.52775 0.0
C776 C 0.95983 0.6815 0.56467 0.0
C777 C 0.94434 0.70412 0.46024 0.0
C778 C 0.92337 0.68551 0.48189 0.0
C779 C 0.92908 0.6782 0.51526 0.0
C780 C 0.89526 0.6747 0.47173 0.0
C781 C 0.93936 0.71348 0.42479 0.0
C782 C 0.87881 0.6795 0.49407 0.0
C783 C 0.85227 0.66928 0.48544 0.0
C784 C 0.84141 0.65385 0.45426 0.0
C785 C 0.8579 0.64895 0.4319 0.0
C786 C 0.88458 0.65925 0.44061 0.0
H787 H 0.957 0.73178 0.41519 0.0
H788 H 0.93414 0.69791 0.40413 0.0
H789 H 0.92266 0.71729 0.42711 0.0
H790 H 0.88657 0.6913 0.51826 0.0
H791 H 0.84026 0.67346 0.50343 0.0
H792 H 0.30244 0.03373 0.75643 0.0
H793 H 0.27708 0.98891 0.73254 0.0
H794 H 0.31673 0.01552 0.63042 0.0
H795 H 0.34291 0.06018 0.65445 0.0
H796 H 0.24291 0.96997 0.67505 0.0
H797 H 0.3271 0.95314 0.65242 0.0
H798 H 0.33005 0.98038 0.67893 0.0
H799 H 0.33005 0.9819 0.63056 0.0
C800 C 0.30604 0.03008 0.72902 0.0
C801 C 0.32499 0.05071 0.70758 0.0
C802 C 0.29136 1.00442 0.7153 0.0
C803 C 0.29531 0.9987 0.67987 0.0
C804 C 0.31372 0.01929 0.65808 0.0
H805 H 0.21333 0.84574 0.56512 0.0
H806 H 0.24219 0.89301 0.57825 0.0
C807 C 0.32846 0.04498 0.67179 0.0
C808 C 0.27978 0.97123 0.66579 0.0
H809 H 0.28513 0.91928 0.63341 0.0
C810 C 0.25218 0.95896 0.66585 0.0
C811 C 0.29186 0.95684 0.65359 0.0
C812 C 0.32138 0.96859 0.65408 0.0
C813 C 0.23636 0.93268 0.65447 0.0
C814 C 0.2484 0.91813 0.64307 0.0
C815 C 0.27598 0.93054 0.64204 0.0
C816 C 0.2325 0.88945 0.63497 0.0
C817 C 0.20679 0.92059 0.65496 0.0
C818 C 0.2182 0.87177 0.66266 0.0
C819 C 0.20192 0.84496 0.65535 0.0
C820 C 0.1995 0.83507 0.62009 0.0
C821 C 0.21467 0.85267 0.59252 0.0
C822 C 0.23112 0.87967 0.59996 0.0
H823 H 0.20088 0.93592 0.65544 0.0
H824 H 0.1977 0.9077 0.63111 0.0
H825 H 0.19878 0.90826 0.6795 0.0
H826 H 0.21934 0.87882 0.68997 0.0
H827 H 0.19081 0.83206 0.67742 0.0
H828 H 0.8163 0.64676 0.09868 0.0
H829 H 0.78676 0.66422 0.08541 0.0
H830 H 0.80993 0.67338 0.97376 0.0
H831 H 0.83925 0.65619 0.98654 0.0
H832 H 0.81385 0.71928 0.00599 0.0
H833 H 0.7158 0.62993 0.02828 0.0
H834 H 0.73985 0.63883 0.06359 0.0
H835 H 0.74528 0.62804 0.02085 0.0
C836 C 0.81484 0.6522 0.07125 0.0
C837 C 0.83029 0.65016 0.04377 0.0
C838 C 0.79791 0.66212 0.06369 0.0
C839 C 0.79609 0.67004 0.02854 0.0
C840 C 0.81105 0.66746 0.00107 0.0
H841 H 0.69261 0.70839 0.91379 0.0
H842 H 0.71619 0.68813 0.94076 0.0
C843 C 0.82784 0.65758 0.00851 0.0
C844 C 0.77975 0.68226 0.02011 0.0
H845 H 0.71621 0.66897 0.01106 0.0
C846 C 0.7925 0.70838 0.00743 0.0
C847 C 0.75191 0.6679 0.02167 0.0
C848 C 0.73724 0.63955 0.03409 0.0
C849 C 0.77822 0.7204 0.99568 0.0
C850 C 0.75035 0.70604 0.99711 0.0
C851 C 0.73756 0.68001 0.01024 0.0
C852 C 0.73426 0.71727 0.98301 0.0
C853 C 0.79308 0.74803 0.9805 0.0
C854 C 0.73604 0.74009 -0.00173 0.0
C855 C 0.72248 0.75174 0.98293 0.0
C856 C 0.7067 0.74075 0.9521 0.0
C857 C 0.70425 0.71732 0.93769 0.0
C858 C 0.71784 0.70572 0.95303 0.0
H859 H 0.81387 0.75408 0.97411 0.0
H860 H 0.78343 0.74965 0.95565 0.0
H861 H 0.7932 0.76213 0.00062 0.0
H862 H 0.74821 0.74909 0.02181 0.0
H863 H 0.72447 0.76948 0.99508 0.0
H864 H 0.96222 0.71546 0.16418 0.0
H865 H 1.00652 0.73966 0.19026 0.0
H866 H 0.03621 0.71219 0.10431 0.0
H867 H 0.99221 0.6881 0.07809 0.0
H868 H 0.05643 0.71025 0.17209 0.0
H869 H 0.06553 0.80821 0.1469 0.0
H870 H 0.0375 0.7858 0.17334 0.0
H871 H 0.03975 0.77818 0.12702 0.0
C872 C 0.97818 0.71459 0.15081 0.0
C873 C 0.97355 0.69987 0.11891 0.0
C874 C 1.0035 0.72843 0.16577 0.0
C875 C 0.02479 0.72804 0.14899 0.0
C876 C 0.0201 0.71276 0.11778 0.0
H877 H 0.18986 0.83714 0.15167 0.0
H878 H 0.1433 0.80777 0.13959 0.0
C879 C 0.99482 0.69887 0.10286 0.0
C880 C 0.05213 0.74426 0.16296 0.0
H881 H 0.10118 0.80805 0.17585 0.0
C882 C 0.06618 0.73163 0.1732 0.0
C883 C 0.06492 0.77218 0.16406 0.0
C884 C 0.05131 0.787 0.15198 0.0
C885 C 0.09272 0.74617 0.1841 0.0
C886 C 0.10547 0.77406 0.18508 0.0
C887 C 0.0913 0.78665 0.17537 0.0
C888 C 0.13408 0.79077 0.193 0.0
C889 C 0.10724 0.73169 0.19316 0.0
C890 C 0.14456 0.79092 0.22713 0.0
C891 C 0.17147 0.80786 0.23427 0.0
C892 C 0.18828 0.82499 0.2074 0.0
C893 C 0.17763 0.82436 0.17315 0.0
C894 C 0.15091 0.80755 0.16612 0.0
H895 H 0.09595 0.71055 0.18519 0.0
H896 H 0.12672 0.74107 0.17956 0.0
H897 H 0.11072 0.73271 0.22265 0.0
H898 H 0.13186 0.77835 0.24843 0.0
H899 H 0.17896 0.80788 0.26095 0.0
H900 H 0.24461 0.971 0.28849 0.0
H901 H 0.26631 0.01586 0.3126 0.0
H902 H 0.34189 0.02096 0.30102 0.0
H903 H 0.32035 0.97591 0.27726 0.0
H904 H 0.30074 0.03923 0.37281 0.0
H905 H 0.3492 0.08448 0.2426 0.0
H906 H 0.32254 0.0508 0.24595 0.0
H907 H 0.35524 0.05917 0.25944 0.0
C908 C 0.2658 0.98141 0.29146 0.0
C909 C 0.28069 0.96976 0.28052 0.0
C910 C 0.2782 1.00716 0.30518 0.0
C911 C 0.30574 0.02191 0.30812 0.0
C912 C 0.32064 0.01013 0.29833 0.0
H913 H 0.39324 0.17738 0.4145 0.0
H914 H 0.37558 0.13068 0.39903 0.0
C915 C 0.30826 0.98436 0.28466 0.0
C916 C 0.3188 0.04984 0.32041 0.0
H917 H 0.35891 0.11326 0.29199 0.0
C918 C 0.31359 0.05544 0.35526 0.0
C919 C 0.33535 0.07095 0.29732 0.0
C920 C 0.34082 0.06621 0.25913 0.0
C921 C 0.32438 0.08161 0.36756 0.0
C922 C 0.341 0.10271 0.34448 0.0
C923 C 0.34634 0.09706 0.30975 0.0
C924 C 0.35162 0.13082 0.35477 0.0
C925 C 0.31724 0.08652 0.40467 0.0
C926 C 0.34432 0.1465 0.33477 0.0
C927 C 0.35438 0.17308 0.34342 0.0
C928 C 0.37215 0.18476 0.37224 0.0
C929 C 0.37951 0.16903 0.39228 0.0
C930 C 0.36934 0.1423 0.38358 0.0
H931 H 0.30022 0.06854 0.41618 0.0
H932 H 0.33434 0.09275 0.42293 0.0
H933 H 0.31238 0.1026 0.40399 0.0
H934 H 0.33073 0.13811 0.31238 0.0
H935 H 0.34828 0.18449 0.32723 0.0
H936 H 0.30403 0.27901 0.40412 0.0
H937 H 0.27852 0.29766 0.4298 0.0
H938 H 0.30958 0.29784 0.53514 0.0
H939 H 0.3358 0.27982 0.50945 0.0
H940 H 0.24004 0.27653 0.48413 0.0
H941 H 0.32416 0.37411 0.52443 0.0
H942 H 0.32788 0.35233 0.49353 0.0
H943 H 0.32488 0.34559 0.54101 0.0
C944 C 0.30572 0.28326 0.43268 0.0
C945 C 0.32219 0.27807 0.45461 0.0
C946 C 0.29097 0.29379 0.44737 0.0
C947 C 0.29243 0.29952 0.4843 0.0
C948 C 0.3085 0.29401 0.50647 0.0
H949 H 0.20859 0.36783 0.60025 0.0
H950 H 0.23713 0.34909 0.58741 0.0
C951 C 0.32325 0.28341 0.49178 0.0
C952 C 0.27663 0.31078 0.49936 0.0
H953 H 0.28145 0.36623 0.53779 0.0
C954 C 0.24911 0.29608 0.49604 0.0
C955 C 0.28846 0.33623 0.51515 0.0
C956 C 0.31797 0.35316 0.5186 0.0
C957 C 0.23313 0.30628 0.50748 0.0
C958 C 0.24498 0.33208 0.52207 0.0
C959 C 0.27243 0.34648 0.52656 0.0
C960 C 0.22923 0.34498 0.53012 0.0
C961 C 0.20363 0.28938 0.5036 0.0
C962 C 0.21605 0.34964 0.50209 0.0
C963 C 0.19989 0.36029 0.50926 0.0
C964 C 0.19656 0.36669 0.54472 0.0
C965 C 0.21065 0.36305 0.57269 0.0
C966 C 0.22692 0.35232 0.56541 0.0
H967 H 0.19735 0.26806 0.50184 0.0
H968 H 0.19329 0.29239 0.5266 0.0
H969 H 0.19732 0.29493 0.47847 0.0
H970 H 0.218 0.34467 0.47456 0.0
H971 H 0.18966 0.3631 0.48692 0.0
H972 H 0.04969 0.35332 0.61778 0.0
H973 H 1.00502 0.33109 0.64258 0.0
H974 H 1.00688 0.25851 0.6505 0.0
H975 H 0.05114 0.28026 0.62531 0.0
H976 H 0.96067 0.28754 0.61308 0.0
H977 H 0.98052 0.26468 0.75046 0.0
H978 H 1.00616 0.28874 0.72169 0.0
H979 H 0.99432 0.25408 0.71548 0.0
C980 C 0.04067 0.33264 0.62479 0.0
C981 C 0.05425 0.31871 0.6194 0.0
C982 C 0.01514 0.31999 0.63917 0.0
C983 C 1.00272 0.29322 0.64889 0.0
C984 C 0.01627 0.27934 0.64401 0.0
H985 H 0.84024 0.17435 0.66122 0.0
H986 H 0.88641 0.20423 0.64689 0.0
C987 C 0.04172 0.2919 0.62953 0.0
C988 C 0.97501 0.27927 0.66195 0.0
H989 H 0.93555 0.24125 0.73085 0.0
C990 C 0.95522 0.27768 0.63901 0.0
C991 C 0.96788 0.26666 0.69596 0.0
C992 C 0.98835 0.26879 0.72251 0.0
C993 C 0.92846 0.2629 0.64849 0.0
C994 C 0.92125 0.24911 0.68165 0.0
C995 C 0.94108 0.25163 0.7053 0.0
C996 C 0.89323 0.2309 0.69124 0.0
C997 C 0.90809 0.26199 0.62277 0.0
C998 C 0.8818 0.23554 0.7216 0.0
C999 C 0.8552 0.21837 0.73003 0.0
C1000 C 0.83967 0.19608 0.70842 0.0
C1001 C 0.85146 0.19131 0.67847 0.0
C1002 C 0.87789 0.20849 0.67004 0.0
H1003 H 0.91675 0.27901 0.60389 0.0
H1004 H 0.8999 0.24361 0.60655 0.0
H1005 H 0.89159 0.26195 0.63757 0.0
H1006 H 0.89336 0.25264 0.73848 0.0
H1007 H 0.84682 0.22262 0.75332 0.0
H1008 H 0.74544 0.06105 0.83932 0.0
H1009 H 0.72796 0.01635 0.86335 0.0
H1010 H 0.72464 0.98686 0.75589 0.0
H1011 H 0.74274 0.03147 0.73178 0.0
H1012 H 0.67992 0.96995 0.8473 0.0
H1013 H 0.76569 0.95871 0.81203 0.0
H1014 H 0.76729 0.99036 0.81235 0.0
H1015 H 0.75299 0.96838 0.77463 0.0
C1016 C 0.74132 0.04514 0.82082 0.0
C1017 C 0.74566 0.04998 0.78356 0.0
C1018 C 0.73113 0.01955 0.8346 0.0
C1019 C 0.72531 0.99831 0.81149 0.0
C1020 C 0.72939 1.00301 0.77432 0.0
H1021 H 0.66164 0.83131 0.81715 0.0
H1022 H 0.67873 0.87777 0.80343 0.0
C1023 C 0.7395 0.02853 0.76052 0.0
C1024 C 0.71466 0.97113 0.82599 0.0
H1025 H 0.72633 0.91948 0.82878 0.0
C1026 C 0.69016 0.95897 0.84364 0.0
C1027 C 0.72812 0.9569 0.82138 0.0
C1028 C 0.7551 0.9693 0.80439 0.0
C1029 C 0.67825 0.93255 0.85532 0.0
C1030 C 0.69137 0.91808 0.84965 0.0
C1031 C 0.71621 0.93054 0.83296 0.0
C1032 C 0.67922 0.88957 0.85877 0.0
C1033 C 0.65128 0.91999 0.87233 0.0
C1034 C 0.67349 0.88058 0.89456 0.0
C1035 C 0.66358 0.85377 0.90262 0.0
C1036 C 0.65944 0.83558 0.87502 0.0
C1037 C 0.66471 0.84469 0.83919 0.0
C1038 C 0.67452 0.87132 0.83123 0.0
H1039 H 0.64167 0.93205 0.86827 0.0
H1040 H 0.63833 0.89997 0.86105 0.0
H1041 H 0.65313 0.91791 0.90173 0.0
H1042 H 0.67733 0.89437 0.91634 0.0
H1043 H 0.65986 0.84746 0.93048 0.0
H1044 H 0.33269 0.38485 0.03627 0.0
H1045 H 0.34707 0.37163 0.09025 0.0
H1046 H 0.27031 0.30198 0.09941 0.0
H1047 H 0.2556 0.31543 0.046 0.0
H1048 H 0.28554 0.33025 0.16138 0.0
H1049 H 0.36623 0.31541 0.11046 0.0
H1050 H 0.3703 0.34708 0.09918 0.0
H1051 H 0.34298 0.3176 0.08084 0.0
C1052 C 0.3191 0.36638 0.04926 0.0
C1053 C 0.29303 0.35115 0.03698 0.0
C1054 C 0.32736 0.35882 0.08008 0.0
C1055 C 0.3098 0.33573 0.09869 0.0
C1056 C 0.28415 0.31988 0.08543 0.0
H1057 H 0.31589 0.25479 0.28801 0.0
H1058 H 0.30233 0.27035 0.23549 0.0
C1059 C 0.27581 0.32753 0.05485 0.0
C1060 C 0.31735 0.32924 0.13362 0.0
H1061 H 0.36211 0.31654 0.17414 0.0
C1062 C 0.30221 0.32712 0.16413 0.0
C1063 C 0.3392 0.32534 0.13715 0.0
C1064 C 0.35548 0.32622 0.10512 0.0
C1065 C 0.30838 0.32125 0.19812 0.0
C1066 C 0.33019 0.3174 0.20157 0.0
C1067 C 0.34551 0.31976 0.17126 0.0
C1068 C 0.33667 0.30947 0.23604 0.0
C1069 C 0.29169 0.31931 0.23018 0.0
C1070 C 0.36019 0.32657 0.25399 0.0
C1071 C 0.36787 0.31783 0.2842 0.0
C1072 C 0.35231 0.29173 0.2964 0.0
C1073 C 0.32822 0.27503 0.27922 0.0
C1074 C 0.32044 0.28386 0.24928 0.0
H1075 H 0.27879 0.32775 0.22441 0.0
H1076 H 0.27899 0.29824 0.23761 0.0
H1077 H 0.30433 0.32972 0.25376 0.0
H1078 H 0.37296 0.34637 0.24394 0.0
H1079 H 0.38665 0.33104 0.29673 0.0
H1080 H 0.96287 0.3277 0.20056 0.0
H1081 H 0.99025 0.34192 0.25474 0.0
H1082 H 0.97962 0.26377 0.26666 0.0
H1083 H 0.95169 0.24925 0.21305 0.0
H1084 H 0.96674 0.28062 0.32739 0.0
H1085 H 0.06437 0.35831 0.27766 0.0
H1086 H 0.03784 0.36359 0.26482 0.0
H1087 H 0.03887 0.3353 0.24782 0.0
C1088 C 0.96698 0.31376 0.21415 0.0
C1089 C 0.95515 0.28737 0.20267 0.0
C1090 C 0.98266 0.32192 0.2451 0.0
C1091 C 0.98706 0.30393 0.26461 0.0
C1092 C 0.97642 0.27795 0.25199 0.0
H1093 H 0.0726 0.31056 0.45529 0.0
H1094 H 0.04366 0.29664 0.40257 0.0
C1095 C 0.96058 0.26972 0.22129 0.0
C1096 C 1.00063 0.31138 0.29987 0.0
H1097 H 0.05819 0.35506 0.34125 0.0
C1098 C 0.98678 0.29681 0.33038 0.0
C1099 C 0.02671 0.33261 0.30369 0.0
C1100 C 0.04293 0.34821 0.27172 0.0
C1101 C 0.99836 0.30295 0.36467 0.0
C1102 C 0.02432 0.32417 0.36841 0.0
C1103 C 0.03812 0.33892 0.33809 0.0
C1104 C 0.03818 0.33056 0.40326 0.0
C1105 C 0.98284 0.28688 0.39675 0.0
C1106 C 0.04398 0.35387 0.42143 0.0
C1107 C 0.06025 0.36173 0.4518 0.0
C1108 C 0.07127 0.34658 0.46386 0.0
C1109 C 0.06435 0.32259 0.44657 0.0
C1110 C 0.04786 0.31461 0.41651 0.0
H1111 H 0.96167 0.27372 0.39025 0.0
H1112 H 0.99111 0.27448 0.40609 0.0
H1113 H 0.98451 0.30009 0.41934 0.0
H1114 H 0.0367 0.36642 0.41135 0.0
H1115 H 0.06543 0.38042 0.46443 0.0
H1116 H 0.63452 0.95364 0.36913 0.0
H1117 H 0.64794 0.9831 0.42157 0.0
H1118 H 0.72135 0.9829 0.42642 0.0
H1119 H 0.70809 0.95343 0.37429 0.0
H1120 H 0.66146 0.96703 0.49047 0.0
H1121 H 0.74155 0.06242 0.43701 0.0
H1122 H 0.71639 0.03748 0.40853 0.0
H1123 H 0.74315 0.03354 0.42444 0.0
C1124 C 0.6538 0.96044 0.38082 0.0
C1125 C 0.67029 0.95129 0.3677 0.0
C1126 C 0.66134 0.97711 0.41083 0.0
C1127 C 0.68563 0.98517 0.42764 0.0
C1128 C 0.70265 0.97709 0.41351 0.0
H1129 H 0.77037 0.07346 0.61465 0.0
H1130 H 0.75437 0.04539 0.56118 0.0
C1131 C 0.69502 0.96024 0.38379 0.0
C1132 C 0.69233 1.00002 0.46184 0.0
H1133 H 0.73713 0.05826 0.50055 0.0
C1134 C 0.67783 0.98708 0.49275 0.0
C1135 C 0.71382 0.026 0.46453 0.0
C1136 C 0.72957 0.04085 0.43186 0.0
C1137 C 0.68477 0.99925 0.52669 0.0
C1138 C 0.70642 0.02523 0.52948 0.0
C1139 C 0.72063 0.03828 0.49837 0.0
C1140 C 0.71487 0.03939 0.56431 0.0
C1141 C 0.66944 0.98387 0.55934 0.0
C1142 C 0.69776 0.04478 0.58429 0.0
C1143 C 0.70677 0.06056 0.61513 0.0
C1144 C 0.73314 0.0715 0.62612 0.0
C1145 C 0.74994 0.06527 0.60685 0.0
C1146 C 0.74087 0.04934 0.57622 0.0
H1147 H 0.65859 0.96226 0.55412 0.0
H1148 H 0.68265 0.9879 0.58285 0.0
H1149 H 0.65478 0.98985 0.56649 0.0
H1150 H 0.67778 0.03774 0.5752 0.0
H1151 H 0.69347 0.06529 0.62922 0.0
H1152 H 0.69413 0.6317 0.53557 0.0
H1153 H 0.67906 0.64471 0.58934 0.0
H1154 H 0.75229 0.71874 0.59255 0.0
H1155 H 0.76758 0.70586 0.53909 0.0
H1156 H 0.71129 0.65883 0.65707 0.0
H1157 H 0.69174 0.73718 0.60749 0.0
H1158 H 0.69073 0.7119 0.57835 0.0
H1159 H 0.72182 0.73914 0.59225 0.0
C1160 C 0.7067 0.65104 0.54715 0.0
C1161 C 0.73201 0.6678 0.53323 0.0
C1162 C 0.69813 0.65834 0.57793 0.0
C1163 C 0.71459 0.68265 0.5947 0.0
C1164 C 0.73927 0.69999 0.5797 0.0
H1165 H 0.71312 0.76655 0.7835 0.0
H1166 H 0.72525 0.75064 0.73006 0.0
C1167 C 0.74795 0.69261 0.54922 0.0
C1168 C 0.70717 0.68902 0.62966 0.0
H1169 H 0.69311 0.73262 0.67073 0.0
C1170 C 0.70705 0.67479 0.66017 0.0
C1171 C 0.70194 0.70997 0.63336 0.0
C1172 C 0.70134 0.72539 0.60115 0.0
C1173 C 0.70249 0.68148 0.69467 0.0
C1174 C 0.69745 0.70261 0.69845 0.0
C1175 C 0.69717 0.71654 0.66776 0.0
C1176 C 0.69231 0.71076 0.73385 0.0
C1177 C 0.70397 0.66648 0.72681 0.0
C1178 C 0.67026 0.69334 0.75433 0.0
C1179 C 0.66344 0.70231 0.78515 0.0
C1180 C 0.67838 0.72893 0.79556 0.0
C1181 C 0.70123 0.74594 0.7761 0.0
C1182 C 0.70813 0.73692 0.7455 0.0
H1183 H 0.71488 0.65597 0.72047 0.0
H1184 H 0.71371 0.67993 0.74997 0.0
H1185 H 0.68372 0.65153 0.73512 0.0
H1186 H 0.65755 0.67319 0.74548 0.0
H1187 H 0.64557 0.68883 0.79942 0.0
H1188 H 0.08375 0.77236 0.72097 0.0
H1189 H 0.05635 0.75691 0.77494 0.0
H1190 H 0.03218 0.67634 0.74714 0.0
H1191 H 0.0597 0.69161 0.69286 0.0
H1192 H 0.99077 0.68805 0.77499 0.0
H1193 H 0.08046 0.72535 0.86031 0.0
H1194 H 0.08075 0.7484 0.82797 0.0
H1195 H 0.0805 0.71917 0.81261 0.0
C1196 C 0.07222 0.7513 0.72588 0.0
C1197 C 0.07402 0.73318 0.70287 0.0
C1198 C 0.05673 0.74256 0.75683 0.0
C1199 C 0.04278 0.71561 0.76519 0.0
C1200 C 0.04306 0.69727 0.74111 0.0
H1201 H 0.96848 0.64394 0.97025 0.0
H1202 H 0.99646 0.65689 0.91639 0.0
C1203 C 0.05866 0.70601 0.71011 0.0
C1204 C 0.02901 0.70687 0.8 0.0
H1205 H 0.03984 0.71107 0.89077 0.0
C1206 C 1.00142 0.69288 0.80031 0.0
C1207 C 0.04313 0.71299 0.83283 0.0
C1208 C 0.07286 0.72712 0.83364 0.0
C1209 C 0.98749 0.68565 0.83291 0.0
C1210 C 1.00162 0.69279 0.86575 0.0
C1211 C 0.02919 0.70592 0.86543 0.0
C1212 C 0.98786 0.68739 0.9006 0.0
C1213 C 0.95775 0.67064 0.83211 0.0
C1214 C 0.97488 0.70114 0.9101 0.0
C1215 C 0.95912 0.69397 0.94081 0.0
C1216 C 0.95606 0.67288 0.96241 0.0
C1217 C 0.9705 0.66029 0.95411 0.0
C1218 C 0.98637 0.66755 0.92335 0.0
H1219 H 0.94998 0.66206 0.80511 0.0
H1220 H 0.9498 0.65448 0.85234 0.0
H1221 H 0.95036 0.68425 0.839 0.0
H1222 H 0.97616 0.71675 0.89298 0.0
H1223 H 0.94832 0.70412 0.94657 0.0
H1224 H 0.33378 0.95815 0.13001 0.0
H1225 H 0.34994 0.98698 0.07708 0.0
H1226 H 0.27259 0.97682 0.06048 0.0
H1227 H 0.25621 0.94786 0.11312 0.0
H1228 H 0.32416 0.96677 0.0055 0.0
H1229 H 0.32639 0.05864 0.05038 0.0
H1230 H 0.32848 0.03597 0.0815 0.0
H1231 H 0.29735 0.02804 0.062 0.0
C1232 C 0.32039 0.9626 0.11563 0.0
C1233 C 0.29373 0.95076 0.12561 0.0
C1234 C 0.32962 0.97893 0.08535 0.0
C1235 C 0.31243 0.98396 0.06508 0.0
C1236 C 0.28617 0.9733 0.07607 0.0
H1237 H 0.31746 0.06586 0.87093 0.0
H1238 H 0.30447 0.03779 0.9244 0.0
C1239 C 0.27686 0.95677 0.10609 0.0
C1240 C 0.32115 0.99834 0.03064 0.0
H1241 H 0.3313 0.0542 0.98786 0.0
C1242 C 0.32598 0.986 0.00157 0.0
C1243 C 0.32324 0.02325 0.02583 0.0
C1244 C 0.3188 0.03745 0.05658 0.0
C1245 C 0.33216 0.99766 0.96729 0.0
C1246 C 0.33406 0.02253 0.96236 0.0
C1247 C 0.32965 0.03504 0.99169 0.0
C1248 C 0.34048 0.03608 0.92706 0.0
C1249 C 0.33573 0.98288 0.9365 0.0
C1250 C 0.36469 0.04372 0.9102 0.0
C1251 C 0.37201 0.05949 0.87931 0.0
C1252 C 0.35538 0.06816 0.86526 0.0
C1253 C 0.33065 0.05945 0.88119 0.0
C1254 C 0.32326 0.04352 0.91181 0.0
H1255 H 0.32666 0.96145 0.94243 0.0
H1256 H 0.32698 0.98532 0.91128 0.0
H1257 H 0.35709 0.99084 0.93185 0.0
H1258 H 0.37848 0.03861 0.9219 0.0
H1259 H 0.39133 0.06622 0.86783 0.0
H1260 H 0.53887 0.67487 0.9615 0.0
H1261 H 0.49389 0.63718 0.96313 0.0
H1262 H 0.47701 0.66161 0.86181 0.0
H1263 H 0.52207 0.69888 0.85944 0.0
H1264 H 0.44173 0.63123 0.95794 0.0
H1265 H 0.46659 0.58708 0.84227 0.0
H1266 H 0.49144 0.61445 0.8679 0.0
H1267 H 0.47189 0.61981 0.83541 0.0
C1268 C 0.52549 0.67241 0.93977 0.0
C1269 C 0.5342 0.6898 0.91019 0.0
C1270 C 0.49975 0.65094 0.94084 0.0
C1271 C 0.48226 0.64638 0.91231 0.0
C1272 C 0.49031 0.66461 0.8839 0.0
H1273 H 0.31892 0.51111 0.90778 0.0
H1274 H 0.35647 0.55635 0.90356 0.0
C1275 C 0.51603 0.68609 0.8828 0.0
C1276 C 0.45654 0.62141 0.91091 0.0
H1277 H 0.42388 0.56256 0.86614 0.0
C1278 C 0.43764 0.61631 0.93767 0.0
C1279 C 0.45143 0.60187 0.88462 0.0
C1280 C 0.47142 0.60585 0.85603 0.0
C1281 C 0.41389 0.592 0.93907 0.0
C1282 C 0.40894 0.57242 0.91297 0.0
C1283 C 0.42764 0.57773 0.88589 0.0
C1284 C 0.38585 0.54534 0.91534 0.0
C1285 C 0.39471 0.58697 0.96926 0.0
C1286 C 0.38997 0.52421 0.9229 0.0
C1287 C 0.36872 0.49852 0.92545 0.0
C1288 C 0.34271 0.49319 0.92007 0.0
C1289 C 0.33862 0.51446 0.91226 0.0
C1290 C 0.36003 0.54032 0.90986 0.0
H1291 H 0.40306 0.60277 0.99002 0.0
H1292 H 0.37665 0.58593 0.95811 0.0
H1293 H 0.38884 0.56773 0.98238 0.0
H1294 H 0.40972 0.52766 0.92739 0.0
H1295 H 0.37274 0.48291 0.9325 0.0
H1296 H 0.83393 0.32431 0.13362 0.0
H1297 H 0.82735 0.36229 0.12892 0.0
H1298 H 0.86877 0.38349 0.02751 0.0
H1299 H 0.87542 0.34546 0.032 0.0
H1300 H 0.88908 0.4241 0.07578 0.0
H1301 H 0.78069 0.38045 0.06814 0.0
H1302 H 0.79133 0.36829 0.10514 0.0
H1303 H 0.79678 0.36149 0.05968 0.0
C1304 C 0.84091 0.33653 0.10972 0.0
C1305 C 0.85521 0.3318 0.08316 0.0
C1306 C 0.83714 0.3583 0.1071 0.0
C1307 C 0.84738 0.37567 0.07773 0.0
C1308 C 0.86066 0.37035 0.05041 0.0
H1309 H 0.8343 0.51374 0.02639 0.0
H1310 H 0.82828 0.46925 0.02934 0.0
C1311 C 0.86449 0.34863 0.05304 0.0
C1312 C 0.84674 0.40079 0.07734 0.0
H1313 H 0.80581 0.42671 0.0805 0.0
C1314 C 0.87085 0.42463 0.07661 0.0
C1315 C 0.82295 0.40151 0.07826 0.0
C1316 C 0.79645 0.37658 0.07751 0.0
C1317 C 0.87188 0.44913 0.07726 0.0
C1318 C 0.84815 0.44989 0.07937 0.0
C1319 C 0.82398 0.42608 0.07943 0.0
C1320 C 0.84832 0.47538 0.08038 0.0
C1321 C 0.89841 0.47403 0.07514 0.0
C1322 C 0.86058 0.49321 0.10886 0.0
C1323 C 0.86397 0.51864 0.10735 0.0
C1324 C 0.85502 0.52669 0.0774 0.0
C1325 C 0.8412 0.50815 0.05004 0.0
C1326 C 0.83787 0.48273 0.05156 0.0
H1327 H 0.91395 0.47005 0.06508 0.0
H1328 H 0.89759 0.4888 0.05718 0.0
H1329 H 0.90425 0.48283 0.10243 0.0
H1330 H 0.86835 0.48776 0.13171 0.0
H1331 H 0.87436 0.53229 0.1291 0.0
H1332 H 0.51666 0.8272 0.3067 0.0
H1333 H 0.4717 0.81937 0.30376 0.0
H1334 H 0.48776 0.85644 0.19929 0.0
H1335 H 0.53261 0.86364 0.20148 0.0
H1336 H 0.46053 0.85938 0.30053 0.0
H1337 H 0.41478 0.79216 0.18437 0.0
H1338 H 0.44443 0.79675 0.20591 0.0
H1339 H 0.44604 0.8205 0.17371 0.0
C1340 C 0.51043 0.8329 0.28251 0.0
C1341 C 0.52832 0.84602 0.25426 0.0
C1342 C 0.48472 0.82858 0.28102 0.0
C1343 C 0.47623 0.83709 0.2512 0.0
C1344 C 0.49366 0.84924 0.22231 0.0
H1345 H 0.37013 0.89446 0.22995 0.0
H1346 H 0.40624 0.88556 0.23609 0.0
C1347 C 0.51942 0.8536 0.22377 0.0
C1348 C 0.45032 0.83599 0.25208 0.0
H1349 H 0.39341 0.81589 0.20457 0.0
C1350 C 0.4457 0.8495 0.27984 0.0
C1351 C 0.43084 0.82295 0.22526 0.0
C1352 C 0.43411 0.80704 0.19581 0.0
C1353 C 0.42274 0.85137 0.28056 0.0
C1354 C 0.40396 0.83957 0.2527 0.0
C1355 C 0.40792 0.82501 0.22583 0.0
C1356 C 0.38144 0.84432 0.24942 0.0
C1357 C 0.41898 0.86649 0.31071 0.0
C1358 C 0.35536 0.82393 0.25454 0.0
C1359 C 0.33442 0.82904 0.25163 0.0
C1360 C 0.33927 0.8546 0.24332 0.0
C1361 C 0.36553 0.87474 0.23762 0.0
C1362 C 0.38629 0.86967 0.24077 0.0
H1363 H 0.43164 0.86878 0.33429 0.0
H1364 H 0.42432 0.88649 0.30095 0.0
H1365 H 0.39809 0.85645 0.31957 0.0
H1366 H 0.35124 0.80417 0.26111 0.0
H1367 H 0.31452 0.81305 0.25616 0.0
H1368 H 0.51185 0.31171 0.42001 0.0
H1369 H 0.55747 0.34821 0.4254 0.0
H1370 H 0.53115 0.40429 0.40893 0.0
H1371 H 0.48601 0.36837 0.4025 0.0
H1372 H 0.58719 0.39024 0.37227 0.0
H1373 H 0.57554 0.4287 0.50346 0.0
H1374 H 0.55291 0.3956 0.488 0.0
H1375 H 0.55055 0.42312 0.47098 0.0
C1376 C 0.51577 0.33181 0.41753 0.0
C1377 C 0.49505 0.33699 0.41134 0.0
C1378 C 0.54183 0.35262 0.42071 0.0
C1379 C 0.5476 0.37893 0.41807 0.0
C1380 C 0.52706 0.38415 0.4118 0.0
H1381 H 0.68016 0.52909 0.36828 0.0
H1382 H 0.64225 0.48429 0.36667 0.0
C1383 C 0.50116 0.36348 0.4084 0.0
C1384 C 0.57504 0.40124 0.42089 0.0
H1385 H 0.61335 0.45763 0.46861 0.0
C1386 C 0.59311 0.40481 0.3936 0.0
C1387 C 0.58277 0.42006 0.44891 0.0
C1388 C 0.56453 0.41664 0.47972 0.0
C1389 C 0.61834 0.42741 0.39271 0.0
C1390 C 0.62551 0.44699 0.41962 0.0
C1391 C 0.60784 0.44273 0.44782 0.0
C1392 C 0.65053 0.47272 0.41825 0.0
C1393 C 0.63699 0.43024 0.36279 0.0
C1394 C 0.66792 0.48115 0.44765 0.0
C1395 C 0.68949 0.50685 0.44879 0.0
C1396 C 0.694 0.52475 0.42063 0.0
C1397 C 0.67719 0.51586 0.39048 0.0
C1398 C 0.65564 0.49014 0.38936 0.0
H1399 H 0.63204 0.41073 0.35138 0.0
H1400 H 0.63543 0.44223 0.34078 0.0
H1401 H 0.65771 0.44035 0.37239 0.0
H1402 H 0.66425 0.46813 0.47037 0.0
H1403 H 0.70172 0.5131 0.47269 0.0
H1404 H 0.12779 0.65189 0.60203 0.0
H1405 H 0.13636 0.61542 0.59707 0.0
H1406 H 0.21681 0.66953 0.56704 0.0
H1407 H 0.20824 0.70656 0.57094 0.0
H1408 H 0.1563 0.6013 0.53315 0.0
H1409 H 0.21965 0.62444 0.65501 0.0
H1410 H 0.19755 0.63727 0.64887 0.0
H1411 H 0.22733 0.65051 0.62307 0.0
C1412 C 0.14724 0.6562 0.59363 0.0
C1413 C 0.16721 0.68229 0.5863 0.0
C1414 C 0.15214 0.63525 0.5912 0.0
C1415 C 0.17721 0.63976 0.58186 0.0
C1416 C 0.19736 0.66568 0.57463 0.0
H1417 H 0.19601 0.50415 0.52671 0.0
H1418 H 0.20334 0.54913 0.5287 0.0
C1419 C 0.19242 0.6868 0.57687 0.0
C1420 C 0.18163 0.61693 0.57936 0.0
H1421 H 0.20862 0.58504 0.6241 0.0
C1422 C 0.16806 0.59789 0.55267 0.0
C1423 C 0.19671 0.61247 0.60519 0.0
C1424 C 0.21111 0.6321 0.63487 0.0
C1425 C 0.16867 0.5742 0.55154 0.0
C1426 C 0.18347 0.56952 0.57764 0.0
C1427 C 0.19747 0.58878 0.60399 0.0
C1428 C 0.18297 0.54389 0.57925 0.0
C1429 C 0.15251 0.55384 0.52336 0.0
C1430 C 0.17018 0.52642 0.60789 0.0
C1431 C 0.16613 0.50072 0.60702 0.0
C1432 C 0.17492 0.49202 0.57754 0.0
C1433 C 0.1892 0.51018 0.55001 0.0
C1434 C 0.19319 0.53586 0.5509 0.0
H1435 H 0.13845 0.55844 0.50959 0.0
H1436 H 0.16587 0.55322 0.50269 0.0
H1437 H 0.14126 0.5339 0.53563 0.0
H1438 H 0.16223 0.53227 0.63012 0.0
H1439 H 0.15534 0.48735 0.62884 0.0
H1440 H 0.71207 0.20731 0.75818 0.0
H1441 H 0.67533 0.21604 0.76342 0.0
H1442 H 0.62017 0.13385 0.74331 0.0
H1443 H 0.65634 0.12503 0.73694 0.0
H1444 H 0.63392 0.20422 0.70884 0.0
H1445 H 0.59432 0.15201 0.83847 0.0
H1446 H 0.62767 0.16318 0.8238 0.0
H1447 H 0.60078 0.13336 0.80563 0.0
C1448 C 0.69213 0.19109 0.75487 0.0
C1449 C 0.68728 0.16537 0.74764 0.0
C1450 C 0.67118 0.19612 0.75797 0.0
C1451 C 0.64505 0.17551 0.75423 0.0
C1452 C 0.64016 0.14993 0.747 0.0
H1453 H 0.49513 0.15727 0.70245 0.0
H1454 H 0.53999 0.16452 0.70143 0.0
C1455 C 0.66097 0.14492 0.74366 0.0
C1456 C 0.62261 0.18042 0.75689 0.0
H1457 H 0.5657 0.16124 0.80354 0.0
C1458 C 0.61916 0.19519 0.72983 0.0
C1459 C 0.60354 0.16882 0.78444 0.0
C1460 C 0.60679 0.15364 0.81496 0.0
C1461 C 0.59646 0.19761 0.72869 0.0
C1462 C 0.57666 0.18471 0.75513 0.0
C1463 C 0.58078 0.17101 0.78312 0.0
C1464 C 0.55088 0.1838 0.75345 0.0
C1465 C 0.59376 0.21372 0.69904 0.0
C1466 C 0.54206 0.19234 0.78291 0.0
C1467 C 0.51633 0.18801 0.7837 0.0
C1468 C 0.49879 0.17484 0.75513 0.0
C1469 C 0.50807 0.16735 0.72495 0.0
C1470 C 0.53383 0.17172 0.72418 0.0
H1471 H 0.61329 0.22853 0.68807 0.0
H1472 H 0.58208 0.20038 0.67667 0.0
H1473 H 0.58343 0.22412 0.70874 0.0
H1474 H 0.55481 0.20152 0.80591 0.0
H1475 H 0.50978 0.19366 0.80764 0.0
loop_
_geom_bond_atom_site_label_1
_geom_bond_atom_site_label_2
_geom_bond_distance
_geom_bond_site_symmetry_2
_ccdc_geom_bond_type
Co0 N4 2.148 1_554 S
Co0 N10 2.128 . S
Co0 N20 2.194 1_554 S
Co0 O25 2.351 . S
Co0 O26 2.155 . S
Co0 O27 2.096 . S
C1 N4 1.301 . S
C1 N5 1.328 . S
C1 H6 0.930 . S
C2 C3 1.333 . S
C2 N4 1.317 . S
C2 H7 0.930 . S
C3 C2 1.333 . S
C3 N5 1.350 . S
C3 H29 0.931 . S
N4 Co0 2.148 1_556 S
N4 C1 1.301 . S
N4 C2 1.317 . S
N5 C1 1.328 . S
N5 C3 1.350 . S
H6 C1 0.930 . S
H7 C2 0.930 . S
C8 O9 1.224 . S
C8 O27 1.247 1_556 S
O9 C8 1.224 . S
N10 Co0 2.128 . S
N10 C11 1.355 . S
N10 C13 1.311 . S
C11 N10 1.355 . S
C11 C12 1.363 . S
C11 H23 0.929 . S
C12 C11 1.363 . S
C12 N14 1.375 . S
C12 H30 0.931 . S
C13 N10 1.311 . S
C13 N14 1.347 . S
C13 H24 0.929 . S
N14 C12 1.375 . S
N14 C13 1.347 . S
C15 C18 1.365 . S
C15 N20 1.328 . S
C15 H21 0.929 . S
C16 C17 1.362 . S
C16 C19 1.378 . S
C16 H31 0.929 . S
C17 C16 1.362 . S
C17 C18 1.366 . S
C18 C15 1.365 . S
C18 C17 1.366 . S
C18 H32 0.930 . S
C19 C16 1.378 . S
C19 N20 1.315 . S
C19 H22 0.930 . S
N20 Co0 2.194 1_556 S
N20 C15 1.328 . S
N20 C19 1.315 . S
H21 C15 0.929 . S
H22 C19 0.930 . S
H23 C11 0.929 . S
H24 C13 0.929 . S
O25 Co0 2.351 . S
O25 C28 1.244 . S
O26 Co0 2.155 . S
O26 C28 1.240 . S
O27 Co0 2.096 . S
O27 C8 1.247 1_554 S
C28 O25 1.244 . S
C28 O26 1.240 . S
H29 C3 0.931 . S
H30 C12 0.931 . S
H31 C16 0.929 . S
H32 C18 0.930 . S
Co33 N37 2.148 . S
Co33 N43 2.128 . S
Co33 N53 2.194 . S
Co33 O58 2.351 . S
Co33 O59 2.155 . S
Co33 O60 2.096 . S
C34 N37 1.301 . S
C34 N38 1.328 . S
C34 H39 0.930 . S
C35 C36 1.333 . S
C35 N37 1.317 . S
C35 H40 0.930 . S
C36 C35 1.333 . S
C36 N38 1.350 . S
C36 H62 0.931 . S
N37 Co33 2.148 . S
N37 C34 1.301 . S
N37 C35 1.317 . S
N38 C34 1.328 . S
N38 C36 1.350 . S
H39 C34 0.930 . S
H40 C35 0.930 . S
C41 O42 1.224 . S
C41 O60 1.247 . S
O42 C41 1.224 . S
N43 Co33 2.128 . S
N43 C44 1.355 . S
N43 C46 1.311 . S
C44 N43 1.355 . S
C44 C45 1.363 . S
C44 H56 0.929 . S
C45 C44 1.363 . S
C45 N47 1.375 . S
C45 H63 0.931 . S
C46 N43 1.311 . S
C46 N47 1.347 . S
C46 H57 0.929 . S
N47 C45 1.375 . S
N47 C46 1.347 . S
C48 C51 1.365 . S
C48 N53 1.328 . S
C48 H54 0.929 . S
C49 C50 1.362 . S
C49 C52 1.378 . S
C49 H64 0.929 . S
C50 C49 1.362 . S
C50 C51 1.366 . S
C51 C48 1.365 . S
C51 C50 1.366 . S
C51 H65 0.930 . S
C52 C49 1.378 . S
C52 N53 1.315 . S
C52 H55 0.930 . S
N53 Co33 2.194 . S
N53 C48 1.328 . S
N53 C52 1.315 . S
H54 C48 0.929 . S
H55 C52 0.930 . S
H56 C44 0.929 . S
H57 C46 0.929 . S
O58 Co33 2.351 . S
O58 C61 1.244 . S
O59 Co33 2.155 . S
O59 C61 1.240 . S
O60 Co33 2.096 . S
O60 C41 1.247 . S
C61 O58 1.244 . S
C61 O59 1.240 . S
H62 C36 0.931 . S
H63 C45 0.931 . S
H64 C49 0.929 . S
H65 C51 0.930 . S
Co66 N70 2.148 . S
Co66 N76 2.128 . S
Co66 N86 2.194 . S
Co66 O91 2.351 . S
Co66 O92 2.155 . S
Co66 O93 2.096 . S
C67 N70 1.301 . S
C67 N71 1.328 . S
C67 H72 0.930 . S
C68 C69 1.333 . S
C68 N70 1.317 . S
C68 H73 0.930 . S
C69 C68 1.333 . S
C69 N71 1.350 . S
C69 H95 0.931 . S
N70 Co66 2.148 . S
N70 C67 1.301 . S
N70 C68 1.317 . S
N71 C67 1.328 . S
N71 C69 1.350 . S
H72 C67 0.930 . S
H73 C68 0.930 . S
C74 O75 1.224 . S
C74 O93 1.247 . S
O75 C74 1.224 . S
N76 Co66 2.128 . S
N76 C77 1.355 . S
N76 C79 1.311 . S
C77 N76 1.355 . S
C77 C78 1.363 . S
C77 H89 0.929 . S
C78 C77 1.363 . S
C78 N80 1.375 . S
C78 H96 0.931 . S
C79 N76 1.311 . S
C79 N80 1.347 . S
C79 H90 0.929 . S
N80 C78 1.375 . S
N80 C79 1.347 . S
C81 C84 1.365 . S
C81 N86 1.328 . S
C81 H87 0.929 . S
C82 C83 1.362 . S
C82 C85 1.378 . S
C82 H97 0.929 . S
C83 C82 1.362 . S
C83 C84 1.366 . S
C84 C81 1.365 . S
C84 C83 1.366 . S
C84 H98 0.930 . S
C85 C82 1.378 . S
C85 N86 1.315 . S
C85 H88 0.930 . S
N86 Co66 2.194 . S
N86 C81 1.328 . S
N86 C85 1.315 . S
H87 C81 0.929 . S
H88 C85 0.930 . S
H89 C77 0.929 . S
H90 C79 0.929 . S
O91 Co66 2.351 . S
O91 C94 1.244 . S
O92 Co66 2.155 . S
O92 C94 1.240 . S
O93 Co66 2.096 . S
O93 C74 1.247 . S
C94 O91 1.244 . S
C94 O92 1.240 . S
H95 C69 0.931 . S
H96 C78 0.931 . S
H97 C82 0.929 . S
H98 C84 0.930 . S
Co99 N103 2.148 . S
Co99 N109 2.128 . S
Co99 N119 2.194 . S
Co99 O124 2.351 . S
Co99 O125 2.155 . S
Co99 O126 2.096 . S
C100 N103 1.301 . S
C100 N104 1.328 . S
C100 H105 0.930 . S
C101 C102 1.333 . S
C101 N103 1.317 . S
C101 H106 0.930 . S
C102 C101 1.333 . S
C102 N104 1.350 . S
C102 H128 0.931 . S
N103 Co99 2.148 . S
N103 C100 1.301 . S
N103 C101 1.317 . S
N104 C100 1.328 . S
N104 C102 1.350 . S
H105 C100 0.930 . S
H106 C101 0.930 . S
C107 O108 1.224 . S
C107 O126 1.247 . S
O108 C107 1.224 . S
N109 Co99 2.128 . S
N109 C110 1.355 . S
N109 C112 1.311 . S
C110 N109 1.355 . S
C110 C111 1.363 . S
C110 H122 0.929 . S
C111 C110 1.363 . S
C111 N113 1.375 . S
C111 H129 0.931 . S
C112 N109 1.311 . S
C112 N113 1.347 . S
C112 H123 0.929 . S
N113 C111 1.375 . S
N113 C112 1.347 . S
C114 C117 1.365 . S
C114 N119 1.328 . S
C114 H120 0.929 . S
C115 C116 1.362 . S
C115 C118 1.378 . S
C115 H130 0.929 . S
C116 C115 1.362 . S
C116 C117 1.366 . S
C117 C114 1.365 . S
C117 C116 1.366 . S
C117 H131 0.930 . S
C118 C115 1.378 . S
C118 N119 1.315 . S
C118 H121 0.930 . S
N119 Co99 2.194 . S
N119 C114 1.328 . S
N119 C118 1.315 . S
H120 C114 0.929 . S
H121 C118 0.930 . S
H122 C110 0.929 . S
H123 C112 0.929 . S
O124 Co99 2.351 . S
O124 C127 1.244 . S
O125 Co99 2.155 . S
O125 C127 1.240 . S
O126 Co99 2.096 . S
O126 C107 1.247 . S
C127 O124 1.244 . S
C127 O125 1.240 . S
H128 C102 0.931 . S
H129 C111 0.931 . S
H130 C115 0.929 . S
H131 C117 0.930 . S
Co132 N136 2.148 . S
Co132 N142 2.128 . S
Co132 N152 2.194 . S
Co132 O157 2.351 . S
Co132 O158 2.155 . S
Co132 O159 2.096 . S
C133 N136 1.301 . S
C133 N137 1.328 . S
C133 H138 0.930 . S
C134 C135 1.333 . S
C134 N136 1.317 . S
C134 H139 0.930 . S
C135 C134 1.333 . S
C135 N137 1.350 . S
C135 H161 0.931 . S
N136 Co132 2.148 . S
N136 C133 1.301 . S
N136 C134 1.317 . S
N137 C133 1.328 . S
N137 C135 1.350 . S
H138 C133 0.930 . S
H139 C134 0.930 . S
C140 O141 1.224 . S
C140 O159 1.247 . S
O141 C140 1.224 . S
N142 Co132 2.128 . S
N142 C143 1.355 . S
N142 C145 1.311 . S
C143 N142 1.355 . S
C143 C144 1.363 . S
C143 H155 0.929 . S
C144 C143 1.363 . S
C144 N146 1.375 . S
C144 H162 0.931 . S
C145 N142 1.311 . S
C145 N146 1.347 . S
C145 H156 0.929 . S
N146 C144 1.375 . S
N146 C145 1.347 . S
C147 C150 1.365 . S
C147 N152 1.328 . S
C147 H153 0.929 . S
C148 C149 1.362 . S
C148 C151 1.378 . S
C148 H163 0.929 . S
C149 C148 1.362 . S
C149 C150 1.366 . S
C150 C147 1.365 . S
C150 C149 1.366 . S
C150 H164 0.930 . S
C151 C148 1.378 . S
C151 N152 1.315 . S
C151 H154 0.930 . S
N152 Co132 2.194 . S
N152 C147 1.328 . S
N152 C151 1.315 . S
H153 C147 0.929 . S
H154 C151 0.930 . S
H155 C143 0.929 . S
H156 C145 0.929 . S
O157 Co132 2.351 . S
O157 C160 1.244 . S
O158 Co132 2.155 . S
O158 C160 1.240 . S
O159 Co132 2.096 . S
O159 C140 1.247 . S
C160 O157 1.244 . S
C160 O158 1.240 . S
H161 C135 0.931 . S
H162 C144 0.931 . S
H163 C148 0.929 . S
H164 C150 0.930 . S
Co165 N169 2.148 . S
Co165 N175 2.128 . S
Co165 N185 2.194 . S
Co165 O190 2.351 . S
Co165 O191 2.155 . S
Co165 O192 2.096 . S
C166 N169 1.301 . S
C166 N170 1.328 . S
C166 H171 0.930 . S
C167 C168 1.333 . S
C167 N169 1.317 . S
C167 H172 0.930 . S
C168 C167 1.333 . S
C168 N170 1.350 . S
C168 H194 0.931 . S
N169 Co165 2.148 . S
N169 C166 1.301 . S
N169 C167 1.317 . S
N170 C166 1.328 . S
N170 C168 1.350 . S
H171 C166 0.930 . S
H172 C167 0.930 . S
C173 O174 1.224 . S
C173 O192 1.247 . S
O174 C173 1.224 . S
N175 Co165 2.128 . S
N175 C176 1.355 . S
N175 C178 1.311 . S
C176 N175 1.355 . S
C176 C177 1.363 . S
C176 H188 0.929 . S
C177 C176 1.363 . S
C177 N179 1.375 . S
C177 H195 0.931 . S
C178 N175 1.311 . S
C178 N179 1.347 . S
C178 H189 0.929 . S
N179 C177 1.375 . S
N179 C178 1.347 . S
C180 C183 1.365 . S
C180 N185 1.328 . S
C180 H186 0.929 . S
C181 C182 1.362 . S
C181 C184 1.378 . S
C181 H196 0.929 . S
C182 C181 1.362 . S
C182 C183 1.366 . S
C183 C180 1.365 . S
C183 C182 1.366 . S
C183 H197 0.930 . S
C184 C181 1.378 . S
C184 N185 1.315 . S
C184 H187 0.930 . S
N185 Co165 2.194 . S
N185 C180 1.328 . S
N185 C184 1.315 . S
H186 C180 0.929 . S
H187 C184 0.930 . S
H188 C176 0.929 . S
H189 C178 0.929 . S
O190 Co165 2.351 . S
O190 C193 1.244 . S
O191 Co165 2.155 . S
O191 C193 1.240 . S
O192 Co165 2.096 . S
O192 C173 1.247 . S
C193 O190 1.244 . S
C193 O191 1.240 . S
H194 C168 0.931 . S
H195 C177 0.931 . S
H196 C181 0.929 . S
H197 C183 0.930 . S
Co198 N202 2.148 . S
Co198 N208 2.128 . S
Co198 N218 2.194 . S
Co198 O223 2.351 . S
Co198 O224 2.155 . S
Co198 O225 2.096 . S
C199 N202 1.301 . S
C199 N203 1.328 . S
C199 H204 0.930 . S
C200 C201 1.333 . S
C200 N202 1.317 . S
C200 H205 0.930 . S
C201 C200 1.333 . S
C201 N203 1.350 . S
C201 H227 0.931 . S
N202 Co198 2.148 . S
N202 C199 1.301 . S
N202 C200 1.317 . S
N203 C199 1.328 . S
N203 C201 1.350 . S
H204 C199 0.930 . S
H205 C200 0.930 . S
C206 O207 1.224 . S
C206 O225 1.247 . S
O207 C206 1.224 . S
N208 Co198 2.128 . S
N208 C209 1.355 . S
N208 C211 1.311 . S
C209 N208 1.355 . S
C209 C210 1.363 . S
C209 H221 0.929 . S
C210 C209 1.363 . S
C210 N212 1.375 . S
C210 H228 0.931 . S
C211 N208 1.311 . S
C211 N212 1.347 . S
C211 H222 0.929 . S
N212 C210 1.375 . S
N212 C211 1.347 . S
C213 C216 1.365 . S
C213 N218 1.328 . S
C213 H219 0.929 . S
C214 C215 1.362 . S
C214 C217 1.378 . S
C214 H229 0.929 . S
C215 C214 1.362 . S
C215 C216 1.366 . S
C216 C213 1.365 . S
C216 C215 1.366 . S
C216 H230 0.930 . S
C217 C214 1.378 . S
C217 N218 1.315 . S
C217 H220 0.930 . S
N218 Co198 2.194 . S
N218 C213 1.328 . S
N218 C217 1.315 . S
H219 C213 0.929 . S
H220 C217 0.930 . S
H221 C209 0.929 . S
H222 C211 0.929 . S
O223 Co198 2.351 . S
O223 C226 1.244 . S
O224 Co198 2.155 . S
O224 C226 1.240 . S
O225 Co198 2.096 . S
O225 C206 1.247 . S
C226 O223 1.244 . S
C226 O224 1.240 . S
H227 C201 0.931 . S
H228 C210 0.931 . S
H229 C214 0.929 . S
H230 C216 0.930 . S
Co231 N235 2.148 1_556 S
Co231 N241 2.128 . S
Co231 N251 2.194 1_556 S
Co231 O256 2.351 . S
Co231 O257 2.155 . S
Co231 O258 2.096 . S
C232 N235 1.301 . S
C232 N236 1.328 . S
C232 H237 0.930 . S
C233 C234 1.333 . S
C233 N235 1.317 . S
C233 H238 0.930 . S
C234 C233 1.333 . S
C234 N236 1.350 . S
C234 H260 0.931 . S
N235 Co231 2.148 1_554 S
N235 C232 1.301 . S
N235 C233 1.317 . S
N236 C232 1.328 . S
N236 C234 1.350 . S
H237 C232 0.930 . S
H238 C233 0.930 . S
C239 O240 1.224 . S
C239 O258 1.247 1_554 S
O240 C239 1.224 . S
N241 Co231 2.128 . S
N241 C242 1.355 . S
N241 C244 1.311 . S
C242 N241 1.355 . S
C242 C243 1.363 . S
C242 H254 0.929 . S
C243 C242 1.363 . S
C243 N245 1.375 . S
C243 H261 0.931 . S
C244 N241 1.311 . S
C244 N245 1.347 . S
C244 H255 0.929 . S
N245 C243 1.375 . S
N245 C244 1.347 . S
C246 C249 1.365 . S
C246 N251 1.328 . S
C246 H252 0.929 . S
C247 C248 1.362 . S
C247 C250 1.378 . S
C247 H262 0.929 . S
C248 C247 1.362 . S
C248 C249 1.366 . S
C249 C246 1.365 . S
C249 C248 1.366 . S
C249 H263 0.930 . S
C250 C247 1.378 . S
C250 N251 1.315 . S
C250 H253 0.930 . S
N251 Co231 2.194 1_554 S
N251 C246 1.328 . S
N251 C250 1.315 . S
H252 C246 0.929 . S
H253 C250 0.930 . S
H254 C242 0.929 . S
H255 C244 0.929 . S
O256 Co231 2.351 . S
O256 C259 1.244 . S
O257 Co231 2.155 . S
O257 C259 1.240 . S
O258 Co231 2.096 . S
O258 C239 1.247 1_556 S
C259 O256 1.244 . S
C259 O257 1.240 . S
H260 C234 0.931 . S
H261 C243 0.931 . S
H262 C247 0.929 . S
H263 C249 0.930 . S
Co264 N268 2.148 . S
Co264 N274 2.128 . S
Co264 N284 2.194 . S
Co264 O289 2.351 . S
Co264 O290 2.155 . S
Co264 O291 2.096 . S
C265 N268 1.301 . S
C265 N269 1.328 . S
C265 H270 0.930 . S
C266 C267 1.333 . S
C266 N268 1.317 . S
C266 H271 0.930 . S
C267 C266 1.333 . S
C267 N269 1.350 . S
C267 H293 0.931 . S
N268 Co264 2.148 . S
N268 C265 1.301 . S
N268 C266 1.317 . S
N269 C265 1.328 . S
N269 C267 1.350 . S
H270 C265 0.930 . S
H271 C266 0.930 . S
C272 O273 1.224 . S
C272 O291 1.247 . S
O273 C272 1.224 . S
N274 Co264 2.128 . S
N274 C275 1.355 . S
N274 C277 1.311 . S
C275 N274 1.355 . S
C275 C276 1.363 . S
C275 H287 0.929 . S
C276 C275 1.363 . S
C276 N278 1.375 . S
C276 H294 0.931 . S
C277 N274 1.311 . S
C277 N278 1.347 . S
C277 H288 0.929 . S
N278 C276 1.375 . S
N278 C277 1.347 . S
C279 C282 1.365 . S
C279 N284 1.328 . S
C279 H285 0.929 . S
C280 C281 1.362 . S
C280 C283 1.378 . S
C280 H295 0.929 . S
C281 C280 1.362 . S
C281 C282 1.366 . S
C282 C279 1.365 . S
C282 C281 1.366 . S
C282 H296 0.930 . S
C283 C280 1.378 . S
C283 N284 1.315 . S
C283 H286 0.930 . S
N284 Co264 2.194 . S
N284 C279 1.328 . S
N284 C283 1.315 . S
H285 C279 0.929 . S
H286 C283 0.930 . S
H287 C275 0.929 . S
H288 C277 0.929 . S
O289 Co264 2.351 . S
O289 C292 1.244 . S
O290 Co264 2.155 . S
O290 C292 1.240 . S
O291 Co264 2.096 . S
O291 C272 1.247 . S
C292 O289 1.244 . S
C292 O290 1.240 . S
H293 C267 0.931 . S
H294 C276 0.931 . S
H295 C280 0.929 . S
H296 C282 0.930 . S
Co297 N301 2.148 . S
Co297 N307 2.128 . S
Co297 N317 2.194 . S
Co297 O322 2.351 . S
Co297 O323 2.155 . S
Co297 O324 2.096 . S
C298 N301 1.301 . S
C298 N302 1.328 . S
C298 H303 0.930 . S
C299 C300 1.333 . S
C299 N301 1.317 . S
C299 H304 0.930 . S
C300 C299 1.333 . S
C300 N302 1.350 . S
C300 H326 0.931 . S
N301 Co297 2.148 . S
N301 C298 1.301 . S
N301 C299 1.317 . S
N302 C298 1.328 . S
N302 C300 1.350 . S
H303 C298 0.930 . S
H304 C299 0.930 . S
C305 O306 1.224 . S
C305 O324 1.247 . S
O306 C305 1.224 . S
N307 Co297 2.128 . S
N307 C308 1.355 . S
N307 C310 1.311 . S
C308 N307 1.355 . S
C308 C309 1.363 . S
C308 H320 0.929 . S
C309 C308 1.363 . S
C309 N311 1.375 . S
C309 H327 0.931 . S
C310 N307 1.311 . S
C310 N311 1.347 . S
C310 H321 0.929 . S
N311 C309 1.375 . S
N311 C310 1.347 . S
C312 C315 1.365 . S
C312 N317 1.328 . S
C312 H318 0.929 . S
C313 C314 1.362 . S
C313 C316 1.378 . S
C313 H328 0.929 . S
C314 C313 1.362 . S
C314 C315 1.366 . S
C315 C312 1.365 . S
C315 C314 1.366 . S
C315 H329 0.930 . S
C316 C313 1.378 . S
C316 N317 1.315 . S
C316 H319 0.930 . S
N317 Co297 2.194 . S
N317 C312 1.328 . S
N317 C316 1.315 . S
H318 C312 0.929 . S
H319 C316 0.930 . S
H320 C308 0.929 . S
H321 C310 0.929 . S
O322 Co297 2.351 . S
O322 C325 1.244 . S
O323 Co297 2.155 . S
O323 C325 1.240 . S
O324 Co297 2.096 . S
O324 C305 1.247 . S
C325 O322 1.244 . S
C325 O323 1.240 . S
H326 C300 0.931 . S
H327 C309 0.931 . S
H328 C313 0.929 . S
H329 C315 0.930 . S
Co330 N334 2.148 . S
Co330 N340 2.128 . S
Co330 N350 2.194 . S
Co330 O355 2.351 . S
Co330 O356 2.155 . S
Co330 O357 2.096 . S
C331 N334 1.301 . S
C331 N335 1.328 . S
C331 H336 0.930 . S
C332 C333 1.333 . S
C332 N334 1.317 . S
C332 H337 0.930 . S
C333 C332 1.333 . S
C333 N335 1.350 . S
C333 H359 0.931 . S
N334 Co330 2.148 . S
N334 C331 1.301 . S
N334 C332 1.317 . S
N335 C331 1.328 . S
N335 C333 1.350 . S
H336 C331 0.930 . S
H337 C332 0.930 . S
C338 O339 1.224 . S
C338 O357 1.247 . S
O339 C338 1.224 . S
N340 Co330 2.128 . S
N340 C341 1.355 . S
N340 C343 1.311 . S
C341 N340 1.355 . S
C341 C342 1.363 . S
C341 H353 0.929 . S
C342 C341 1.363 . S
C342 N344 1.375 . S
C342 H360 0.931 . S
C343 N340 1.311 . S
C343 N344 1.347 . S
C343 H354 0.929 . S
N344 C342 1.375 . S
N344 C343 1.347 . S
C345 C348 1.365 . S
C345 N350 1.328 . S
C345 H351 0.929 . S
C346 C347 1.362 . S
C346 C349 1.378 . S
C346 H361 0.929 . S
C347 C346 1.362 . S
C347 C348 1.366 . S
C348 C345 1.365 . S
C348 C347 1.366 . S
C348 H362 0.930 . S
C349 C346 1.378 . S
C349 N350 1.315 . S
C349 H352 0.930 . S
N350 Co330 2.194 . S
N350 C345 1.328 . S
N350 C349 1.315 . S
H351 C345 0.929 . S
H352 C349 0.930 . S
H353 C341 0.929 . S
H354 C343 0.929 . S
O355 Co330 2.351 . S
O355 C358 1.244 . S
O356 Co330 2.155 . S
O356 C358 1.240 . S
O357 Co330 2.096 . S
O357 C338 1.247 . S
C358 O355 1.244 . S
C358 O356 1.240 . S
H359 C333 0.931 . S
H360 C342 0.931 . S
H361 C346 0.929 . S
H362 C348 0.930 . S
Co363 N367 2.148 . S
Co363 N373 2.128 . S
Co363 N383 2.194 . S
Co363 O388 2.351 . S
Co363 O389 2.155 . S
Co363 O390 2.096 . S
C364 N367 1.301 . S
C364 N368 1.328 . S
C364 H369 0.930 . S
C365 C366 1.333 . S
C365 N367 1.317 . S
C365 H370 0.930 . S
C366 C365 1.333 . S
C366 N368 1.350 . S
C366 H392 0.931 . S
N367 Co363 2.148 . S
N367 C364 1.301 . S
N367 C365 1.317 . S
N368 C364 1.328 . S
N368 C366 1.350 . S
H369 C364 0.930 . S
H370 C365 0.930 . S
C371 O372 1.224 . S
C371 O390 1.247 . S
O372 C371 1.224 . S
N373 Co363 2.128 . S
N373 C374 1.355 . S
N373 C376 1.311 . S
C374 N373 1.355 . S
C374 C375 1.363 . S
C374 H386 0.929 . S
C375 C374 1.363 . S
C375 N377 1.375 . S
C375 H393 0.931 . S
C376 N373 1.311 . S
C376 N377 1.347 . S
C376 H387 0.929 . S
N377 C375 1.375 . S
N377 C376 1.347 . S
C378 C381 1.365 . S
C378 N383 1.328 . S
C378 H384 0.929 . S
C379 C380 1.362 . S
C379 C382 1.378 . S
C379 H394 0.929 . S
C380 C379 1.362 . S
C380 C381 1.366 . S
C381 C378 1.365 . S
C381 C380 1.366 . S
C381 H395 0.930 . S
C382 C379 1.378 . S
C382 N383 1.315 . S
C382 H385 0.930 . S
N383 Co363 2.194 . S
N383 C378 1.328 . S
N383 C382 1.315 . S
H384 C378 0.929 . S
H385 C382 0.930 . S
H386 C374 0.929 . S
H387 C376 0.929 . S
O388 Co363 2.351 . S
O388 C391 1.244 . S
O389 Co363 2.155 . S
O389 C391 1.240 . S
O390 Co363 2.096 . S
O390 C371 1.247 . S
C391 O388 1.244 . S
C391 O389 1.240 . S
H392 C366 0.931 . S
H393 C375 0.931 . S
H394 C379 0.929 . S
H395 C381 0.930 . S
H396 C404 0.929 . S
H397 C406 0.930 . S
H398 C408 0.930 . S
H399 C411 0.929 . S
H400 C414 0.930 . S
H401 C416 0.960 . S
H402 C416 0.960 . S
H403 C416 0.960 . S
C404 H396 0.929 . S
C404 C405 1.377 . S
C404 C406 1.384 . S
C405 C404 1.377 . S
C405 C411 1.390 . S
C406 H397 0.930 . S
C406 C404 1.384 . S
C406 C407 1.372 . S
C407 C406 1.372 . S
C407 C408 1.400 . S
C407 C412 1.490 . S
C408 H398 0.930 . S
C408 C407 1.400 . S
C408 C411 1.386 . S
H409 C425 0.930 . S
H410 C426 0.931 . S
C411 H399 0.929 . S
C411 C405 1.390 . S
C411 C408 1.386 . S
C412 C407 1.490 . S
C412 C414 1.395 . S
C412 C415 1.403 . S
H413 C419 0.930 . S
C414 H400 0.930 . S
C414 C412 1.395 . S
C414 C417 1.403 . S
C415 C412 1.403 . S
C415 C416 1.524 . S
C415 C419 1.400 . S
C416 H401 0.960 . S
C416 H402 0.960 . S
C416 H403 0.960 . S
C416 C415 1.524 . S
C417 C414 1.403 . S
C417 C418 1.392 . S
C417 C421 1.495 . S
C418 C417 1.392 . S
C418 C419 1.385 . S
C418 C420 1.478 . S
C419 H413 0.930 . S
C419 C415 1.400 . S
C419 C418 1.385 . S
C420 C418 1.478 . S
C420 C422 1.381 . S
C420 C426 1.383 . S
C421 C417 1.495 . S
C421 H427 0.959 . S
C421 H428 0.961 . S
C421 H429 0.960 . S
C422 C420 1.381 . S
C422 C423 1.394 . S
C422 H430 0.930 . S
C423 C422 1.394 . S
C423 C424 1.383 . S
C423 H431 0.929 . S
C424 C423 1.383 . S
C424 C425 1.377 . S
C425 H409 0.930 . S
C425 C424 1.377 . S
C425 C426 1.379 . S
C426 H410 0.931 . S
C426 C420 1.383 . S
C426 C425 1.379 . S
H427 C421 0.959 . S
H428 C421 0.961 . S
H429 C421 0.960 . S
H430 C422 0.930 . S
H431 C423 0.929 . S
H432 C440 0.929 . S
H433 C442 0.930 . S
H434 C444 0.930 . S
H435 C447 0.929 . S
H436 C450 0.930 . S
H437 C452 0.960 . S
H438 C452 0.960 . S
H439 C452 0.960 . S
C440 H432 0.929 . S
C440 C441 1.377 . S
C440 C442 1.384 . S
C441 C440 1.377 . S
C441 C447 1.390 . S
C442 H433 0.930 . S
C442 C440 1.384 . S
C442 C443 1.372 . S
C443 C442 1.372 . S
C443 C444 1.400 . S
C443 C448 1.490 . S
C444 H434 0.930 . S
C444 C443 1.400 . S
C444 C447 1.386 . S
H445 C461 0.930 . S
H446 C462 0.931 . S
C447 H435 0.929 . S
C447 C441 1.390 . S
C447 C444 1.386 . S
C448 C443 1.490 . S
C448 C450 1.395 . S
C448 C451 1.403 . S
H449 C455 0.930 . S
C450 H436 0.930 . S
C450 C448 1.395 . S
C450 C453 1.403 . S
C451 C448 1.403 . S
C451 C452 1.524 . S
C451 C455 1.400 . S
C452 H437 0.960 . S
C452 H438 0.960 . S
C452 H439 0.960 . S
C452 C451 1.524 . S
C453 C450 1.403 . S
C453 C454 1.392 . S
C453 C457 1.495 . S
C454 C453 1.392 . S
C454 C455 1.385 . S
C454 C456 1.478 . S
C455 H449 0.930 . S
C455 C451 1.400 . S
C455 C454 1.385 . S
C456 C454 1.478 . S
C456 C458 1.381 . S
C456 C462 1.383 . S
C457 C453 1.495 . S
C457 H463 0.959 . S
C457 H464 0.961 . S
C457 H465 0.960 . S
C458 C456 1.381 . S
C458 C459 1.394 . S
C458 H466 0.930 . S
C459 C458 1.394 . S
C459 C460 1.383 . S
C459 H467 0.929 . S
C460 C459 1.383 . S
C460 C461 1.377 . S
C461 H445 0.930 . S
C461 C460 1.377 . S
C461 C462 1.379 . S
C462 H446 0.931 . S
C462 C456 1.383 . S
C462 C461 1.379 . S
H463 C457 0.959 . S
H464 C457 0.961 . S
H465 C457 0.960 . S
H466 C458 0.930 . S
H467 C459 0.929 . S
H468 C476 0.929 . S
H469 C478 0.930 . S
H470 C480 0.930 . S
H471 C483 0.929 . S
H472 C486 0.930 . S
H473 C488 0.960 . S
H474 C488 0.960 . S
H475 C488 0.960 . S
C476 H468 0.929 . S
C476 C477 1.377 . S
C476 C478 1.384 . S
C477 C476 1.377 . S
C477 C483 1.390 . S
C478 H469 0.930 . S
C478 C476 1.384 . S
C478 C479 1.372 . S
C479 C478 1.372 . S
C479 C480 1.400 . S
C479 C484 1.490 . S
C480 H470 0.930 . S
C480 C479 1.400 . S
C480 C483 1.386 . S
H481 C497 0.930 . S
H482 C498 0.931 . S
C483 H471 0.929 . S
C483 C477 1.390 . S
C483 C480 1.386 . S
C484 C479 1.490 . S
C484 C486 1.395 . S
C484 C487 1.403 . S
H485 C491 0.930 . S
C486 H472 0.930 . S
C486 C484 1.395 . S
C486 C489 1.403 . S
C487 C484 1.403 . S
C487 C488 1.524 . S
C487 C491 1.400 . S
C488 H473 0.960 . S
C488 H474 0.960 . S
C488 H475 0.960 . S
C488 C487 1.524 . S
C489 C486 1.403 . S
C489 C490 1.392 . S
C489 C493 1.495 . S
C490 C489 1.392 . S
C490 C491 1.385 . S
C490 C492 1.478 . S
C491 H485 0.930 . S
C491 C487 1.400 . S
C491 C490 1.385 . S
C492 C490 1.478 . S
C492 C494 1.381 . S
C492 C498 1.383 . S
C493 C489 1.495 . S
C493 H499 0.959 . S
C493 H500 0.961 . S
C493 H501 0.960 . S
C494 C492 1.381 . S
C494 C495 1.394 . S
C494 H502 0.930 . S
C495 C494 1.394 . S
C495 C496 1.383 . S
C495 H503 0.929 . S
C496 C495 1.383 . S
C496 C497 1.377 . S
C497 H481 0.930 . S
C497 C496 1.377 . S
C497 C498 1.379 . S
C498 H482 0.931 . S
C498 C492 1.383 . S
C498 C497 1.379 . S
H499 C493 0.959 . S
H500 C493 0.961 . S
H501 C493 0.960 . S
H502 C494 0.930 . S
H503 C495 0.929 . S
H504 C512 0.929 . S
H505 C514 0.930 . S
H506 C516 0.930 . S
H507 C519 0.929 . S
H508 C522 0.930 . S
H509 C524 0.960 . S
H510 C524 0.960 . S
H511 C524 0.960 . S
C512 H504 0.929 . S
C512 C513 1.377 . S
C512 C514 1.384 . S
C513 C512 1.377 . S
C513 C519 1.390 . S
C514 H505 0.930 . S
C514 C512 1.384 . S
C514 C515 1.372 . S
C515 C514 1.372 . S
C515 C516 1.400 . S
C515 C520 1.490 . S
C516 H506 0.930 . S
C516 C515 1.400 . S
C516 C519 1.386 . S
H517 C533 0.930 . S
H518 C534 0.931 . S
C519 H507 0.929 . S
C519 C513 1.390 . S
C519 C516 1.386 . S
C520 C515 1.490 . S
C520 C522 1.395 . S
C520 C523 1.403 . S
H521 C527 0.930 . S
C522 H508 0.930 . S
C522 C520 1.395 . S
C522 C525 1.403 . S
C523 C520 1.403 . S
C523 C524 1.524 . S
C523 C527 1.400 . S
C524 H509 0.960 . S
C524 H510 0.960 . S
C524 H511 0.960 . S
C524 C523 1.524 . S
C525 C522 1.403 . S
C525 C526 1.392 . S
C525 C529 1.495 . S
C526 C525 1.392 . S
C526 C527 1.385 . S
C526 C528 1.478 . S
C527 H521 0.930 . S
C527 C523 1.400 . S
C527 C526 1.385 . S
C528 C526 1.478 . S
C528 C530 1.381 . S
C528 C534 1.383 . S
C529 C525 1.495 . S
C529 H535 0.959 . S
C529 H536 0.961 . S
C529 H537 0.960 . S
C530 C528 1.381 . S
C530 C531 1.394 . S
C530 H538 0.930 . S
C531 C530 1.394 . S
C531 C532 1.383 . S
C531 H539 0.929 . S
C532 C531 1.383 . S
C532 C533 1.377 . S
C533 H517 0.930 . S
C533 C532 1.377 . S
C533 C534 1.379 . S
C534 H518 0.931 . S
C534 C528 1.383 . S
C534 C533 1.379 . S
H535 C529 0.959 . S
H536 C529 0.961 . S
H537 C529 0.960 . S
H538 C530 0.930 . S
H539 C531 0.929 . S
H540 C548 0.929 . S
H541 C550 0.930 . S
H542 C552 0.930 . S
H543 C555 0.929 . S
H544 C558 0.930 . S
H545 C560 0.960 . S
H546 C560 0.960 . S
H547 C560 0.960 . S
C548 H540 0.929 . S
C548 C549 1.377 . S
C548 C550 1.384 . S
C549 C548 1.377 . S
C549 C555 1.390 . S
C550 H541 0.930 . S
C550 C548 1.384 . S
C550 C551 1.372 . S
C551 C550 1.372 . S
C551 C552 1.400 . S
C551 C556 1.490 . S
C552 H542 0.930 . S
C552 C551 1.400 . S
C552 C555 1.386 . S
H553 C569 0.930 . S
H554 C570 0.931 1_556 S
C555 H543 0.929 . S
C555 C549 1.390 . S
C555 C552 1.386 . S
C556 C551 1.490 . S
C556 C558 1.395 . S
C556 C559 1.403 . S
H557 C563 0.930 . S
C558 H544 0.930 . S
C558 C556 1.395 . S
C558 C561 1.403 . S
C559 C556 1.403 . S
C559 C560 1.524 . S
C559 C563 1.400 . S
C560 H545 0.960 . S
C560 H546 0.960 . S
C560 H547 0.960 . S
C560 C559 1.524 . S
C561 C558 1.403 . S
C561 C562 1.392 . S
C561 C565 1.495 . S
C562 C561 1.392 . S
C562 C563 1.385 . S
C562 C564 1.478 . S
C563 H557 0.930 . S
C563 C559 1.400 . S
C563 C562 1.385 . S
C564 C562 1.478 . S
C564 C566 1.381 1_556 S
C564 C570 1.383 1_556 S
C565 C561 1.495 . S
C565 H571 0.959 . S
C565 H572 0.961 . S
C565 H573 0.960 . S
C566 C564 1.381 1_554 S
C566 C567 1.394 . S
C566 H574 0.930 . S
C567 C566 1.394 . S
C567 C568 1.383 . S
C567 H575 0.929 . S
C568 C567 1.383 . S
C568 C569 1.377 . S
C569 H553 0.930 . S
C569 C568 1.377 . S
C569 C570 1.379 . S
C570 H554 0.931 1_554 S
C570 C564 1.383 1_554 S
C570 C569 1.379 . S
H571 C565 0.959 . S
H572 C565 0.961 . S
H573 C565 0.960 . S
H574 C566 0.930 . S
H575 C567 0.929 . S
H576 C584 0.929 . S
H577 C586 0.930 1_554 S
H578 C588 0.930 . S
H579 C591 0.929 . S
H580 C594 0.930 . S
H581 C596 0.960 . S
H582 C596 0.960 . S
H583 C596 0.960 . S
C584 H576 0.929 . S
C584 C585 1.377 . S
C584 C586 1.384 . S
C585 C584 1.377 . S
C585 C591 1.390 . S
C586 H577 0.930 1_556 S
C586 C584 1.384 . S
C586 C587 1.372 1_556 S
C587 C586 1.372 1_554 S
C587 C588 1.400 1_554 S
C587 C592 1.490 . S
C588 H578 0.930 . S
C588 C587 1.400 1_556 S
C588 C591 1.386 . S
H589 C605 0.930 . S
H590 C606 0.931 . S
C591 H579 0.929 . S
C591 C585 1.390 . S
C591 C588 1.386 . S
C592 C587 1.490 . S
C592 C594 1.395 . S
C592 C595 1.403 . S
H593 C599 0.930 . S
C594 H580 0.930 . S
C594 C592 1.395 . S
C594 C597 1.403 . S
C595 C592 1.403 . S
C595 C596 1.524 . S
C595 C599 1.400 . S
C596 H581 0.960 . S
C596 H582 0.960 . S
C596 H583 0.960 . S
C596 C595 1.524 . S
C597 C594 1.403 . S
C597 C598 1.392 . S
C597 C601 1.495 . S
C598 C597 1.392 . S
C598 C599 1.385 . S
C598 C600 1.478 . S
C599 H593 0.930 . S
C599 C595 1.400 . S
C599 C598 1.385 . S
C600 C598 1.478 . S
C600 C602 1.381 . S
C600 C606 1.383 . S
C601 C597 1.495 . S
C601 H607 0.959 . S
C601 H608 0.961 . S
C601 H609 0.960 . S
C602 C600 1.381 . S
C602 C603 1.394 . S
C602 H610 0.930 . S
C603 C602 1.394 . S
C603 C604 1.383 . S
C603 H611 0.929 . S
C604 C603 1.383 . S
C604 C605 1.377 . S
C605 H589 0.930 . S
C605 C604 1.377 . S
C605 C606 1.379 . S
C606 H590 0.931 . S
C606 C600 1.383 . S
C606 C605 1.379 . S
H607 C601 0.959 . S
H608 C601 0.961 . S
H609 C601 0.960 . S
H610 C602 0.930 . S
H611 C603 0.929 . S
H612 C620 0.929 . S
H613 C622 0.930 . S
H614 C624 0.930 . S
H615 C627 0.929 . S
H616 C630 0.930 . S
H617 C632 0.960 . S
H618 C632 0.960 . S
H619 C632 0.960 . S
C620 H612 0.929 . S
C620 C621 1.377 . S
C620 C622 1.384 . S
C621 C620 1.377 . S
C621 C627 1.390 . S
C622 H613 0.930 . S
C622 C620 1.384 . S
C622 C623 1.372 . S
C623 C622 1.372 . S
C623 C624 1.400 . S
C623 C628 1.490 . S
C624 H614 0.930 . S
C624 C623 1.400 . S
C624 C627 1.386 . S
H625 C641 0.930 . S
H626 C642 0.931 . S
C627 H615 0.929 . S
C627 C621 1.390 . S
C627 C624 1.386 . S
C628 C623 1.490 . S
C628 C630 1.395 . S
C628 C631 1.403 . S
H629 C635 0.930 . S
C630 H616 0.930 . S
C630 C628 1.395 . S
C630 C633 1.403 . S
C631 C628 1.403 . S
C631 C632 1.524 . S
C631 C635 1.400 . S
C632 H617 0.960 . S
C632 H618 0.960 . S
C632 H619 0.960 . S
C632 C631 1.524 . S
C633 C630 1.403 . S
C633 C634 1.392 . S
C633 C637 1.495 . S
C634 C633 1.392 . S
C634 C635 1.385 . S
C634 C636 1.478 . S
C635 H629 0.930 . S
C635 C631 1.400 . S
C635 C634 1.385 . S
C636 C634 1.478 . S
C636 C638 1.381 . S
C636 C642 1.383 . S
C637 C633 1.495 . S
C637 H643 0.959 . S
C637 H644 0.961 . S
C637 H645 0.960 . S
C638 C636 1.381 . S
C638 C639 1.394 . S
C638 H646 0.930 . S
C639 C638 1.394 . S
C639 C640 1.383 . S
C639 H647 0.929 . S
C640 C639 1.383 . S
C640 C641 1.377 . S
C641 H625 0.930 . S
C641 C640 1.377 . S
C641 C642 1.379 . S
C642 H626 0.931 . S
C642 C636 1.383 . S
C642 C641 1.379 . S
H643 C637 0.959 . S
H644 C637 0.961 . S
H645 C637 0.960 . S
H646 C638 0.930 . S
H647 C639 0.929 . S
H648 C656 0.929 1_556 S
H649 C658 0.930 . S
H650 C660 0.930 . S
H651 C663 0.929 . S
H652 C666 0.930 . S
H653 C668 0.960 . S
H654 C668 0.960 . S
H655 C668 0.960 . S
C656 H648 0.929 1_554 S
C656 C657 1.377 1_554 S
C656 C658 1.384 . S
C657 C656 1.377 1_556 S
C657 C663 1.390 . S
C658 H649 0.930 . S
C658 C656 1.384 . S
C658 C659 1.372 . S
C659 C658 1.372 . S
C659 C660 1.400 . S
C659 C664 1.490 . S
C660 H650 0.930 . S
C660 C659 1.400 . S
C660 C663 1.386 1_554 S
H661 C677 0.930 . S
H662 C678 0.931 . S
C663 H651 0.929 . S
C663 C657 1.390 . S
C663 C660 1.386 1_556 S
C664 C659 1.490 . S
C664 C666 1.395 . S
C664 C667 1.402 . S
H665 C671 0.930 1_556 S
C666 H652 0.930 . S
C666 C664 1.395 . S
C666 C669 1.403 . S
C667 C664 1.402 . S
C667 C668 1.524 1_554 S
C667 C671 1.400 . S
C668 H653 0.960 . S
C668 H654 0.960 . S
C668 H655 0.960 . S
C668 C667 1.524 1_556 S
C669 C666 1.403 . S
C669 C670 1.392 . S
C669 C673 1.495 . S
C670 C669 1.392 . S
C670 C671 1.385 . S
C670 C672 1.478 . S
C671 H665 0.930 1_554 S
C671 C667 1.400 . S
C671 C670 1.385 . S
C672 C670 1.478 . S
C672 C674 1.370 1_455 S
C672 C678 1.383 . S
C673 C669 1.495 . S
C673 H679 0.959 . S
C673 H680 0.961 . S
C673 H681 0.960 . S
C674 C672 1.370 1_655 S
C674 C675 1.439 . S
C674 H682 0.898 1_655 S
C675 C674 1.439 . S
C675 C676 1.383 . S
C675 H683 0.929 . S
C676 C675 1.383 . S
C676 C677 1.377 . S
C677 H661 0.930 . S
C677 C676 1.377 . S
C677 C678 1.379 1_655 S
C678 H662 0.931 . S
C678 C672 1.383 . S
C678 C677 1.379 1_455 S
H679 C673 0.959 . S
H680 C673 0.961 . S
H681 C673 0.960 . S
H682 C674 0.898 1_455 S
H683 C675 0.929 . S
H684 C692 0.929 . S
H685 C694 0.930 . S
H686 C696 0.930 . S
H687 C699 0.929 . S
H688 C702 0.930 . S
H689 C704 0.960 . S
H690 C704 0.960 . S
H691 C704 0.960 . S
C692 H684 0.929 . S
C692 C693 1.377 . S
C692 C694 1.384 . S
C693 C692 1.377 . S
C693 C699 1.390 . S
C694 H685 0.930 . S
C694 C692 1.384 . S
C694 C695 1.372 . S
C695 C694 1.372 . S
C695 C696 1.400 . S
C695 C700 1.490 . S
C696 H686 0.930 . S
C696 C695 1.400 . S
C696 C699 1.386 . S
H697 C713 0.930 . S
H698 C714 0.931 1_545 S
C699 H687 0.929 . S
C699 C693 1.390 . S
C699 C696 1.386 . S
C700 C695 1.490 . S
C700 C702 1.395 . S
C700 C703 1.403 . S
H701 C707 0.930 . S
C702 H688 0.930 . S
C702 C700 1.395 . S
C702 C705 1.403 . S
C703 C700 1.403 . S
C703 C704 1.524 . S
C703 C707 1.400 . S
C704 H689 0.960 . S
C704 H690 0.960 . S
C704 H691 0.960 . S
C704 C703 1.524 . S
C705 C702 1.403 . S
C705 C706 1.392 . S
C705 C709 1.495 . S
C706 C705 1.392 . S
C706 C707 1.385 . S
C706 C708 1.478 . S
C707 H701 0.930 . S
C707 C703 1.400 . S
C707 C706 1.385 . S
C708 C706 1.478 . S
C708 C710 1.381 . S
C708 C714 1.383 1_545 S
C709 C705 1.495 . S
C709 H715 0.959 . S
C709 H716 0.961 . S
C709 H717 0.960 . S
C710 C708 1.381 . S
C710 C711 1.394 1_545 S
C710 H718 0.930 . S
C711 C710 1.394 1_565 S
C711 C712 1.383 . S
C711 H719 0.929 . S
C712 C711 1.383 . S
C712 C713 1.377 . S
C713 H697 0.930 . S
C713 C712 1.377 . S
C713 C714 1.379 . S
C714 H698 0.931 1_565 S
C714 C708 1.383 1_565 S
C714 C713 1.379 . S
H715 C709 0.959 . S
H716 C709 0.961 . S
H717 C709 0.960 . S
H718 C710 0.930 . S
H719 C711 0.929 . S
H720 C728 0.929 . S
H721 C730 0.930 . S
H722 C732 0.930 . S
H723 C735 0.929 . S
H724 C738 0.930 . S
H725 C740 0.960 . S
H726 C740 0.960 . S
H727 C740 0.960 . S
C728 H720 0.929 . S
C728 C729 1.377 . S
C728 C730 1.384 . S
C729 C728 1.377 . S
C729 C735 1.390 . S
C730 H721 0.930 . S
C730 C728 1.384 . S
C730 C731 1.372 . S
C731 C730 1.372 . S
C731 C732 1.400 . S
C731 C736 1.490 . S
C732 H722 0.930 . S
C732 C731 1.400 . S
C732 C735 1.386 . S
H733 C749 0.930 . S
H734 C750 0.931 . S
C735 H723 0.929 . S
C735 C729 1.390 . S
C735 C732 1.386 . S
C736 C731 1.490 . S
C736 C738 1.395 . S
C736 C739 1.403 . S
H737 C743 0.930 . S
C738 H724 0.930 . S
C738 C736 1.395 . S
C738 C741 1.403 . S
C739 C736 1.403 . S
C739 C740 1.524 . S
C739 C743 1.400 . S
C740 H725 0.960 . S
C740 H726 0.960 . S
C740 H727 0.960 . S
C740 C739 1.524 . S
C741 C738 1.403 . S
C741 C742 1.392 . S
C741 C745 1.495 . S
C742 C741 1.392 . S
C742 C743 1.385 . S
C742 C744 1.478 . S
C743 H737 0.930 . S
C743 C739 1.400 . S
C743 C742 1.385 . S
C744 C742 1.478 . S
C744 C746 1.381 . S
C744 C750 1.383 . S
C745 C741 1.495 . S
C745 H751 0.959 . S
C745 H752 0.961 . S
C745 H753 0.960 . S
C746 C744 1.381 . S
C746 C747 1.394 . S
C746 H754 0.930 . S
C747 C746 1.394 . S
C747 C748 1.383 . S
C747 H755 0.929 . S
C748 C747 1.383 . S
C748 C749 1.377 . S
C749 H733 0.930 . S
C749 C748 1.377 . S
C749 C750 1.379 . S
C750 H734 0.931 . S
C750 C744 1.383 . S
C750 C749 1.379 . S
H751 C745 0.959 . S
H752 C745 0.961 . S
H753 C745 0.960 . S
H754 C746 0.930 . S
H755 C747 0.929 . S
H756 C764 0.929 . S
H757 C766 0.930 . S
H758 C768 0.930 . S
H759 C771 0.929 . S
H760 C774 0.930 . S
H761 C776 0.960 . S
H762 C776 0.960 . S
H763 C776 0.960 . S
C764 H756 0.929 . S
C764 C765 1.377 . S
C764 C766 1.384 1_455 S
C765 C764 1.377 . S
C765 C771 1.390 . S
C766 H757 0.930 . S
C766 C764 1.384 1_655 S
C766 C767 1.372 . S
C767 C766 1.372 . S
C767 C768 1.400 . S
C767 C772 1.490 . S
C768 H758 0.930 . S
C768 C767 1.400 . S
C768 C771 1.386 1_655 S
H769 C785 0.930 . S
H770 C786 0.931 . S
C771 H759 0.929 . S
C771 C765 1.390 . S
C771 C768 1.386 1_455 S
C772 C767 1.490 . S
C772 C774 1.395 . S
C772 C775 1.403 . S
H773 C779 0.930 . S
C774 H760 0.930 . S
C774 C772 1.395 . S
C774 C777 1.403 . S
C775 C772 1.403 . S
C775 C776 1.524 . S
C775 C779 1.400 . S
C776 H761 0.960 . S
C776 H762 0.960 . S
C776 H763 0.960 . S
C776 C775 1.524 . S
C777 C774 1.403 . S
C777 C778 1.392 . S
C777 C781 1.495 . S
C778 C777 1.392 . S
C778 C779 1.385 . S
C778 C780 1.478 . S
C779 H773 0.930 . S
C779 C775 1.400 . S
C779 C778 1.385 . S
C780 C778 1.478 . S
C780 C782 1.381 . S
C780 C786 1.383 . S
C781 C777 1.495 . S
C781 H787 0.959 . S
C781 H788 0.961 . S
C781 H789 0.960 . S
C782 C780 1.381 . S
C782 C783 1.394 . S
C782 H790 0.930 . S
C783 C782 1.394 . S
C783 C784 1.383 . S
C783 H791 0.929 . S
C784 C783 1.383 . S
C784 C785 1.377 . S
C785 H769 0.930 . S
C785 C784 1.377 . S
C785 C786 1.379 . S
C786 H770 0.931 . S
C786 C780 1.383 . S
C786 C785 1.379 . S
H787 C781 0.959 . S
H788 C781 0.961 . S
H789 C781 0.960 . S
H790 C782 0.930 . S
H791 C783 0.929 . S
H792 C800 0.929 . S
H793 C802 0.930 . S
H794 C804 0.930 1_565 S
H795 C807 0.929 . S
H796 C810 0.930 . S
H797 C812 0.960 . S
H798 C812 0.960 . S
H799 C812 0.960 . S
C800 H792 0.929 . S
C800 C801 1.377 . S
C800 C802 1.384 1_545 S
C801 C800 1.377 . S
C801 C807 1.390 . S
C802 H793 0.930 . S
C802 C800 1.384 1_565 S
C802 C803 1.372 . S
C803 C802 1.372 . S
C803 C804 1.400 1_565 S
C803 C808 1.490 . S
C804 H794 0.930 1_545 S
C804 C803 1.400 1_545 S
C804 C807 1.386 . S
H805 C821 0.930 . S
H806 C822 0.931 . S
C807 H795 0.929 . S
C807 C801 1.390 . S
C807 C804 1.386 . S
C808 C803 1.490 . S
C808 C810 1.395 . S
C808 C811 1.403 . S
H809 C815 0.930 . S
C810 H796 0.930 . S
C810 C808 1.395 . S
C810 C813 1.403 . S
C811 C808 1.403 . S
C811 C812 1.524 . S
C811 C815 1.400 . S
C812 H797 0.960 . S
C812 H798 0.960 . S
C812 H799 0.960 . S
C812 C811 1.524 . S
C813 C810 1.403 . S
C813 C814 1.392 . S
C813 C817 1.495 . S
C814 C813 1.392 . S
C814 C815 1.385 . S
C814 C816 1.478 . S
C815 H809 0.930 . S
C815 C811 1.400 . S
C815 C814 1.385 . S
C816 C814 1.478 . S
C816 C818 1.381 . S
C816 C822 1.383 . S
C817 C813 1.495 . S
C817 H823 0.959 . S
C817 H824 0.961 . S
C817 H825 0.960 . S
C818 C816 1.381 . S
C818 C819 1.394 . S
C818 H826 0.930 . S
C819 C818 1.394 . S
C819 C820 1.383 . S
C819 H827 0.929 . S
C820 C819 1.383 . S
C820 C821 1.377 . S
C821 H805 0.930 . S
C821 C820 1.377 . S
C821 C822 1.379 . S
C822 H806 0.931 . S
C822 C816 1.383 . S
C822 C821 1.379 . S
H823 C817 0.959 . S
H824 C817 0.961 . S
H825 C817 0.960 . S
H826 C818 0.930 . S
H827 C819 0.929 . S
H828 C836 0.929 . S
H829 C838 0.930 . S
H830 C840 0.930 . S
H831 C843 0.929 . S
H832 C846 0.930 . S
H833 C848 0.960 . S
H834 C848 0.960 1_554 S
H835 C848 0.960 . S
C836 H828 0.929 . S
C836 C837 1.377 . S
C836 C838 1.384 . S
C837 C836 1.377 . S
C837 C843 1.390 1_554 S
C838 H829 0.930 . S
C838 C836 1.384 . S
C838 C839 1.372 1_554 S
C839 C838 1.372 1_556 S
C839 C840 1.400 . S
C839 C844 1.490 . S
C840 H830 0.930 . S
C840 C839 1.400 . S
C840 C843 1.386 . S
H841 C857 0.930 . S
H842 C858 0.931 . S
C843 H831 0.929 . S
C843 C837 1.390 1_556 S
C843 C840 1.386 . S
C844 C839 1.490 . S
C844 C846 1.395 . S
C844 C847 1.403 . S
H845 C851 0.930 . S
C846 H832 0.930 . S
C846 C844 1.395 . S
C846 C849 1.403 . S
C847 C844 1.403 . S
C847 C848 1.524 . S
C847 C851 1.400 . S
C848 H833 0.960 . S
C848 H834 0.960 1_556 S
C848 H835 0.960 . S
C848 C847 1.524 . S
C849 C846 1.403 . S
C849 C850 1.392 . S
C849 C853 1.495 . S
C850 C849 1.392 . S
C850 C851 1.385 . S
C850 C852 1.478 . S
C851 H845 0.930 . S
C851 C847 1.400 . S
C851 C850 1.385 . S
C852 C850 1.478 . S
C852 C854 1.381 . S
C852 C858 1.383 . S
C853 C849 1.495 . S
C853 H859 0.959 . S
C853 H860 0.961 . S
C853 H861 0.960 . S
C854 C852 1.381 . S
C854 C855 1.394 . S
C854 H862 0.930 . S
C855 C854 1.394 . S
C855 C856 1.383 . S
C855 H863 0.929 . S
C856 C855 1.383 . S
C856 C857 1.377 . S
C857 H841 0.930 . S
C857 C856 1.377 . S
C857 C858 1.379 . S
C858 H842 0.931 . S
C858 C852 1.383 . S
C858 C857 1.379 . S
H859 C853 0.959 . S
H860 C853 0.961 . S
H861 C853 0.960 . S
H862 C854 0.930 . S
H863 C855 0.929 . S
H864 C872 0.929 . S
H865 C874 0.949 . S
H866 C876 0.930 . S
H867 C879 0.929 . S
H868 C882 0.930 . S
H869 C884 0.960 . S
H870 C884 0.960 . S
H871 C884 0.960 . S
C872 H864 0.929 . S
C872 C873 1.377 . S
C872 C874 1.357 1_655 S
C873 C872 1.377 . S
C873 C879 1.390 . S
C874 H865 0.949 . S
C874 C872 1.357 1_455 S
C874 C875 1.382 . S
C875 C874 1.382 . S
C875 C876 1.400 . S
C875 C880 1.490 . S
C876 H866 0.930 . S
C876 C875 1.400 . S
C876 C879 1.386 1_455 S
H877 C893 0.930 . S
H878 C894 0.931 . S
C879 H867 0.929 . S
C879 C873 1.390 . S
C879 C876 1.386 1_655 S
C880 C875 1.490 . S
C880 C882 1.395 . S
C880 C883 1.403 . S
H881 C887 0.930 . S
C882 H868 0.930 . S
C882 C880 1.395 . S
C882 C885 1.403 . S
C883 C880 1.403 . S
C883 C884 1.524 . S
C883 C887 1.400 . S
C884 H869 0.960 . S
C884 H870 0.960 . S
C884 H871 0.960 . S
C884 C883 1.524 . S
C885 C882 1.403 . S
C885 C886 1.392 . S
C885 C889 1.495 . S
C886 C885 1.392 . S
C886 C887 1.385 . S
C886 C888 1.478 . S
C887 H881 0.930 . S
C887 C883 1.400 . S
C887 C886 1.385 . S
C888 C886 1.478 . S
C888 C890 1.381 . S
C888 C894 1.383 . S
C889 C885 1.495 . S
C889 H895 0.959 . S
C889 H896 0.961 . S
C889 H897 0.960 . S
C890 C888 1.381 . S
C890 C891 1.394 . S
C890 H898 0.930 . S
C891 C890 1.394 . S
C891 C892 1.383 . S
C891 H899 0.929 . S
C892 C891 1.383 . S
C892 C893 1.377 . S
C893 H877 0.930 . S
C893 C892 1.377 . S
C893 C894 1.379 . S
C894 H878 0.931 . S
C894 C888 1.383 . S
C894 C893 1.379 . S
H895 C889 0.959 . S
H896 C889 0.961 . S
H897 C889 0.960 . S
H898 C890 0.930 . S
H899 C891 0.929 . S
H900 C908 0.929 . S
H901 C910 0.930 . S
H902 C912 0.930 . S
H903 C915 0.929 . S
H904 C918 0.930 . S
H905 C920 0.960 . S
H906 C920 0.960 . S
H907 C920 0.960 . S
C908 H900 0.929 . S
C908 C909 1.377 . S
C908 C910 1.384 1_565 S
C909 C908 1.377 . S
C909 C915 1.390 . S
C910 H901 0.930 . S
C910 C908 1.384 1_545 S
C910 C911 1.372 . S
C911 C910 1.372 . S
C911 C912 1.400 . S
C911 C916 1.490 . S
C912 H902 0.930 . S
C912 C911 1.400 . S
C912 C915 1.386 1_545 S
H913 C929 0.930 . S
H914 C930 0.931 . S
C915 H903 0.929 . S
C915 C909 1.390 . S
C915 C912 1.386 1_565 S
C916 C911 1.490 . S
C916 C918 1.395 . S
C916 C919 1.403 . S
H917 C923 0.930 . S
C918 H904 0.930 . S
C918 C916 1.395 . S
C918 C921 1.403 . S
C919 C916 1.403 . S
C919 C920 1.524 . S
C919 C923 1.400 . S
C920 H905 0.960 . S
C920 H906 0.960 . S
C920 H907 0.960 . S
C920 C919 1.524 . S
C921 C918 1.403 . S
C921 C922 1.392 . S
C921 C925 1.495 . S
C922 C921 1.392 . S
C922 C923 1.385 . S
C922 C924 1.478 . S
C923 H917 0.930 . S
C923 C919 1.400 . S
C923 C922 1.385 . S
C924 C922 1.478 . S
C924 C926 1.381 . S
C924 C930 1.383 . S
C925 C921 1.495 . S
C925 H931 0.959 . S
C925 H932 0.961 . S
C925 H933 0.960 . S
C926 C924 1.381 . S
C926 C927 1.394 . S
C926 H934 0.930 . S
C927 C926 1.394 . S
C927 C928 1.383 . S
C927 H935 0.929 . S
C928 C927 1.383 . S
C928 C929 1.377 . S
C929 H913 0.930 . S
C929 C928 1.377 . S
C929 C930 1.379 . S
C930 H914 0.931 . S
C930 C924 1.383 . S
C930 C929 1.379 . S
H931 C925 0.959 . S
H932 C925 0.961 . S
H933 C925 0.960 . S
H934 C926 0.930 . S
H935 C927 0.929 . S
H936 C944 0.929 . S
H937 C946 0.930 . S
H938 C948 0.930 . S
H939 C951 0.929 . S
H940 C954 0.930 . S
H941 C956 0.960 . S
H942 C956 0.960 . S
H943 C956 0.960 . S
C944 H936 0.929 . S
C944 C945 1.377 . S
C944 C946 1.384 . S
C945 C944 1.377 . S
C945 C951 1.390 . S
C946 H937 0.930 . S
C946 C944 1.384 . S
C946 C947 1.372 . S
C947 C946 1.372 . S
C947 C948 1.400 . S
C947 C952 1.490 . S
C948 H938 0.930 . S
C948 C947 1.400 . S
C948 C951 1.386 . S
H949 C965 0.930 . S
H950 C966 0.931 . S
C951 H939 0.929 . S
C951 C945 1.390 . S
C951 C948 1.386 . S
C952 C947 1.490 . S
C952 C954 1.395 . S
C952 C955 1.403 . S
H953 C959 0.930 . S
C954 H940 0.930 . S
C954 C952 1.395 . S
C954 C957 1.403 . S
C955 C952 1.403 . S
C955 C956 1.524 . S
C955 C959 1.400 . S
C956 H941 0.960 . S
C956 H942 0.960 . S
C956 H943 0.960 . S
C956 C955 1.524 . S
C957 C954 1.403 . S
C957 C958 1.392 . S
C957 C961 1.495 . S
C958 C957 1.392 . S
C958 C959 1.385 . S
C958 C960 1.478 . S
C959 H953 0.930 . S
C959 C955 1.400 . S
C959 C958 1.385 . S
C960 C958 1.478 . S
C960 C962 1.381 . S
C960 C966 1.383 . S
C961 C957 1.495 . S
C961 H967 0.959 . S
C961 H968 0.961 . S
C961 H969 0.960 . S
C962 C960 1.381 . S
C962 C963 1.394 . S
C962 H970 0.930 . S
C963 C962 1.394 . S
C963 C964 1.383 . S
C963 H971 0.929 . S
C964 C963 1.383 . S
C964 C965 1.377 . S
C965 H949 0.930 . S
C965 C964 1.377 . S
C965 C966 1.379 . S
C966 H950 0.931 . S
C966 C960 1.383 . S
C966 C965 1.379 . S
H967 C961 0.959 . S
H968 C961 0.961 . S
H969 C961 0.960 . S
H970 C962 0.930 . S
H971 C963 0.929 . S
H972 C980 0.929 . S
H973 C982 0.930 . S
H974 C984 0.942 1_655 S
H975 C987 0.929 . S
H976 C990 0.930 . S
H977 C992 0.960 . S
H978 C992 0.960 . S
H979 C992 0.960 . S
C980 H972 0.929 . S
C980 C981 1.377 . S
C980 C982 1.384 1_455 S
C981 C980 1.377 . S
C981 C987 1.390 . S
C982 H973 0.930 . S
C982 C980 1.384 1_655 S
C982 C983 1.372 . S
C983 C982 1.372 . S
C983 C984 1.353 1_655 S
C983 C988 1.490 . S
C984 H974 0.942 1_455 S
C984 C983 1.353 1_455 S
C984 C987 1.422 . S
H985 C1001 0.930 . S
H986 C1002 0.931 . S
C987 H975 0.929 . S
C987 C981 1.390 . S
C987 C984 1.422 . S
C988 C983 1.490 . S
C988 C990 1.395 . S
C988 C991 1.403 . S
H989 C995 0.930 . S
C990 H976 0.930 . S
C990 C988 1.395 . S
C990 C993 1.403 . S
C991 C988 1.403 . S
C991 C992 1.524 . S
C991 C995 1.400 . S
C992 H977 0.960 . S
C992 H978 0.960 . S
C992 H979 0.960 . S
C992 C991 1.524 . S
C993 C990 1.403 . S
C993 C994 1.392 . S
C993 C997 1.495 . S
C994 C993 1.392 . S
C994 C995 1.385 . S
C994 C996 1.478 . S
C995 H989 0.930 . S
C995 C991 1.400 . S
C995 C994 1.385 . S
C996 C994 1.478 . S
C996 C998 1.381 . S
C996 C1002 1.383 . S
C997 C993 1.495 . S
C997 H1003 0.959 . S
C997 H1004 0.961 . S
C997 H1005 0.960 . S
C998 C996 1.381 . S
C998 C999 1.394 . S
C998 H1006 0.930 . S
C999 C998 1.394 . S
C999 C1000 1.383 . S
C999 H1007 0.929 . S
C1000 C999 1.383 . S
C1000 C1001 1.377 . S
C1001 H985 0.930 . S
C1001 C1000 1.377 . S
C1001 C1002 1.379 . S
C1002 H986 0.931 . S
C1002 C996 1.383 . S
C1002 C1001 1.379 . S
H1003 C997 0.959 . S
H1004 C997 0.961 . S
H1005 C997 0.960 . S
H1006 C998 0.930 . S
H1007 C999 0.929 . S
H1008 C1016 0.929 . S
H1009 C1018 0.936 . S
H1010 C1020 0.930 . S
H1011 C1023 0.929 . S
H1012 C1026 0.930 . S
H1013 C1028 0.960 . S
H1014 C1028 0.960 . S
H1015 C1028 0.960 . S
C1016 H1008 0.929 . S
C1016 C1017 1.377 . S
C1016 C1018 1.348 1_545 S
C1017 C1016 1.377 . S
C1017 C1023 1.390 . S
C1018 H1009 0.936 . S
C1018 C1016 1.348 1_565 S
C1018 C1019 1.403 . S
C1019 C1018 1.403 . S
C1019 C1020 1.400 . S
C1019 C1024 1.490 . S
C1020 H1010 0.930 . S
C1020 C1019 1.400 . S
C1020 C1023 1.386 1_565 S
H1021 C1037 0.930 . S
H1022 C1038 0.931 . S
C1023 H1011 0.929 . S
C1023 C1017 1.390 . S
C1023 C1020 1.386 1_545 S
C1024 C1019 1.490 . S
C1024 C1026 1.395 . S
C1024 C1027 1.403 . S
H1025 C1031 0.930 . S
C1026 H1012 0.930 . S
C1026 C1024 1.395 . S
C1026 C1029 1.403 . S
C1027 C1024 1.403 . S
C1027 C1028 1.524 . S
C1027 C1031 1.400 . S
C1028 H1013 0.960 . S
C1028 H1014 0.960 . S
C1028 H1015 0.960 . S
C1028 C1027 1.524 . S
C1029 C1026 1.403 . S
C1029 C1030 1.392 . S
C1029 C1033 1.495 . S
C1030 C1029 1.392 . S
C1030 C1031 1.385 . S
C1030 C1032 1.478 . S
C1031 H1025 0.930 . S
C1031 C1027 1.400 . S
C1031 C1030 1.385 . S
C1032 C1030 1.478 . S
C1032 C1034 1.381 . S
C1032 C1038 1.383 . S
C1033 C1029 1.495 . S
C1033 H1039 0.959 . S
C1033 H1040 0.961 . S
C1033 H1041 0.960 . S
C1034 C1032 1.381 . S
C1034 C1035 1.394 . S
C1034 H1042 0.930 . S
C1035 C1034 1.394 . S
C1035 C1036 1.383 . S
C1035 H1043 0.929 . S
C1036 C1035 1.383 . S
C1036 C1037 1.377 . S
C1037 H1021 0.930 . S
C1037 C1036 1.377 . S
C1037 C1038 1.379 . S
C1038 H1022 0.931 . S
C1038 C1032 1.383 . S
C1038 C1037 1.379 . S
H1039 C1033 0.959 . S
H1040 C1033 0.961 . S
H1041 C1033 0.960 . S
H1042 C1034 0.930 . S
H1043 C1035 0.929 . S
H1044 C1052 0.929 . S
H1045 C1054 0.930 . S
H1046 C1056 0.930 . S
H1047 C1059 0.929 . S
H1048 C1062 0.930 . S
H1049 C1064 0.960 . S
H1050 C1064 0.960 . S
H1051 C1064 0.960 . S
C1052 H1044 0.929 . S
C1052 C1053 1.377 . S
C1052 C1054 1.384 . S
C1053 C1052 1.377 . S
C1053 C1059 1.390 . S
C1054 H1045 0.930 . S
C1054 C1052 1.384 . S
C1054 C1055 1.372 . S
C1055 C1054 1.372 . S
C1055 C1056 1.400 . S
C1055 C1060 1.490 . S
C1056 H1046 0.930 . S
C1056 C1055 1.400 . S
C1056 C1059 1.386 . S
H1057 C1073 0.930 . S
H1058 C1074 0.931 . S
C1059 H1047 0.929 . S
C1059 C1053 1.390 . S
C1059 C1056 1.386 . S
C1060 C1055 1.490 . S
C1060 C1062 1.395 . S
C1060 C1063 1.403 . S
H1061 C1067 0.930 . S
C1062 H1048 0.930 . S
C1062 C1060 1.395 . S
C1062 C1065 1.403 . S
C1063 C1060 1.403 . S
C1063 C1064 1.524 . S
C1063 C1067 1.400 . S
C1064 H1049 0.960 . S
C1064 H1050 0.960 . S
C1064 H1051 0.960 . S
C1064 C1063 1.524 . S
C1065 C1062 1.403 . S
C1065 C1066 1.392 . S
C1065 C1069 1.495 . S
C1066 C1065 1.392 . S
C1066 C1067 1.385 . S
C1066 C1068 1.478 . S
C1067 H1061 0.930 . S
C1067 C1063 1.400 . S
C1067 C1066 1.385 . S
C1068 C1066 1.478 . S
C1068 C1070 1.381 . S
C1068 C1074 1.383 . S
C1069 C1065 1.495 . S
C1069 H1075 0.959 . S
C1069 H1076 0.961 . S
C1069 H1077 0.960 . S
C1070 C1068 1.381 . S
C1070 C1071 1.394 . S
C1070 H1078 0.930 . S
C1071 C1070 1.394 . S
C1071 C1072 1.383 . S
C1071 H1079 0.929 . S
C1072 C1071 1.383 . S
C1072 C1073 1.377 . S
C1073 H1057 0.930 . S
C1073 C1072 1.377 . S
C1073 C1074 1.379 . S
C1074 H1058 0.931 . S
C1074 C1068 1.383 . S
C1074 C1073 1.379 . S
H1075 C1069 0.959 . S
H1076 C1069 0.961 . S
H1077 C1069 0.960 . S
H1078 C1070 0.930 . S
H1079 C1071 0.929 . S
H1080 C1088 0.929 . S
H1081 C1090 0.930 . S
H1082 C1092 0.930 . S
H1083 C1095 0.929 . S
H1084 C1098 0.930 . S
H1085 C1100 0.960 . S
H1086 C1100 0.960 . S
H1087 C1100 0.960 . S
C1088 H1080 0.929 . S
C1088 C1089 1.377 . S
C1088 C1090 1.384 . S
C1089 C1088 1.377 . S
C1089 C1095 1.390 . S
C1090 H1081 0.930 . S
C1090 C1088 1.384 . S
C1090 C1091 1.372 . S
C1091 C1090 1.372 . S
C1091 C1092 1.400 . S
C1091 C1096 1.490 . S
C1092 H1082 0.930 . S
C1092 C1091 1.400 . S
C1092 C1095 1.386 . S
H1093 C1109 0.930 . S
H1094 C1110 0.931 . S
C1095 H1083 0.929 . S
C1095 C1089 1.390 . S
C1095 C1092 1.386 . S
C1096 C1091 1.490 . S
C1096 C1098 1.395 . S
C1096 C1099 1.403 1_655 S
H1097 C1103 0.930 . S
C1098 H1084 0.930 . S
C1098 C1096 1.395 . S
C1098 C1101 1.403 . S
C1099 C1096 1.403 1_455 S
C1099 C1100 1.524 . S
C1099 C1103 1.400 . S
C1100 H1085 0.960 . S
C1100 H1086 0.960 . S
C1100 H1087 0.960 . S
C1100 C1099 1.524 . S
C1101 C1098 1.403 . S
C1101 C1102 1.392 1_655 S
C1101 C1105 1.495 . S
C1102 C1101 1.392 1_455 S
C1102 C1103 1.385 . S
C1102 C1104 1.478 . S
C1103 H1097 0.930 . S
C1103 C1099 1.400 . S
C1103 C1102 1.385 . S
C1104 C1102 1.478 . S
C1104 C1106 1.381 . S
C1104 C1110 1.383 . S
C1105 C1101 1.495 . S
C1105 H1111 0.959 . S
C1105 H1112 0.961 . S
C1105 H1113 0.960 . S
C1106 C1104 1.381 . S
C1106 C1107 1.394 . S
C1106 H1114 0.930 . S
C1107 C1106 1.394 . S
C1107 C1108 1.383 . S
C1107 H1115 0.929 . S
C1108 C1107 1.383 . S
C1108 C1109 1.377 . S
C1109 H1093 0.930 . S
C1109 C1108 1.377 . S
C1109 C1110 1.379 . S
C1110 H1094 0.931 . S
C1110 C1104 1.383 . S
C1110 C1109 1.379 . S
H1111 C1105 0.959 . S
H1112 C1105 0.961 . S
H1113 C1105 0.960 . S
H1114 C1106 0.930 . S
H1115 C1107 0.929 . S
H1116 C1124 0.929 . S
H1117 C1126 0.930 . S
H1118 C1128 0.930 . S
H1119 C1131 0.929 . S
H1120 C1134 0.930 . S
H1121 C1136 0.960 . S
H1122 C1136 0.960 . S
H1123 C1136 0.960 . S
C1124 H1116 0.929 . S
C1124 C1125 1.377 . S
C1124 C1126 1.384 . S
C1125 C1124 1.377 . S
C1125 C1131 1.390 . S
C1126 H1117 0.930 . S
C1126 C1124 1.384 . S
C1126 C1127 1.372 . S
C1127 C1126 1.372 . S
C1127 C1128 1.400 . S
C1127 C1132 1.490 . S
C1128 H1118 0.930 . S
C1128 C1127 1.400 . S
C1128 C1131 1.386 . S
H1129 C1145 0.930 . S
H1130 C1146 0.931 . S
C1131 H1119 0.929 . S
C1131 C1125 1.390 . S
C1131 C1128 1.386 . S
C1132 C1127 1.490 . S
C1132 C1134 1.395 . S
C1132 C1135 1.403 1_565 S
H1133 C1139 0.930 . S
C1134 H1120 0.930 . S
C1134 C1132 1.395 . S
C1134 C1137 1.403 . S
C1135 C1132 1.403 1_545 S
C1135 C1136 1.524 . S
C1135 C1139 1.400 . S
C1136 H1121 0.960 . S
C1136 H1122 0.960 . S
C1136 H1123 0.960 . S
C1136 C1135 1.524 . S
C1137 C1134 1.403 . S
C1137 C1138 1.392 1_565 S
C1137 C1141 1.495 . S
C1138 C1137 1.392 1_545 S
C1138 C1139 1.385 . S
C1138 C1140 1.478 . S
C1139 H1133 0.930 . S
C1139 C1135 1.400 . S
C1139 C1138 1.385 . S
C1140 C1138 1.478 . S
C1140 C1142 1.381 . S
C1140 C1146 1.383 . S
C1141 C1137 1.495 . S
C1141 H1147 0.959 . S
C1141 H1148 0.961 . S
C1141 H1149 0.960 . S
C1142 C1140 1.381 . S
C1142 C1143 1.394 . S
C1142 H1150 0.930 . S
C1143 C1142 1.394 . S
C1143 C1144 1.383 . S
C1143 H1151 0.929 . S
C1144 C1143 1.383 . S
C1144 C1145 1.377 . S
C1145 H1129 0.930 . S
C1145 C1144 1.377 . S
C1145 C1146 1.379 . S
C1146 H1130 0.931 . S
C1146 C1140 1.383 . S
C1146 C1145 1.379 . S
H1147 C1141 0.959 . S
H1148 C1141 0.961 . S
H1149 C1141 0.960 . S
H1150 C1142 0.930 . S
H1151 C1143 0.929 . S
H1152 C1160 0.929 . S
H1153 C1162 0.930 . S
H1154 C1164 0.930 . S
H1155 C1167 0.929 . S
H1156 C1170 0.930 . S
H1157 C1172 0.960 . S
H1158 C1172 0.960 . S
H1159 C1172 0.960 . S
C1160 H1152 0.929 . S
C1160 C1161 1.377 . S
C1160 C1162 1.384 . S
C1161 C1160 1.377 . S
C1161 C1167 1.390 . S
C1162 H1153 0.930 . S
C1162 C1160 1.384 . S
C1162 C1163 1.372 . S
C1163 C1162 1.372 . S
C1163 C1164 1.400 . S
C1163 C1168 1.490 . S
C1164 H1154 0.930 . S
C1164 C1163 1.400 . S
C1164 C1167 1.386 . S
H1165 C1181 0.930 . S
H1166 C1182 0.931 . S
C1167 H1155 0.929 . S
C1167 C1161 1.390 . S
C1167 C1164 1.386 . S
C1168 C1163 1.490 . S
C1168 C1170 1.395 . S
C1168 C1171 1.403 . S
H1169 C1175 0.930 . S
C1170 H1156 0.930 . S
C1170 C1168 1.395 . S
C1170 C1173 1.403 . S
C1171 C1168 1.403 . S
C1171 C1172 1.524 . S
C1171 C1175 1.400 . S
C1172 H1157 0.960 . S
C1172 H1158 0.960 . S
C1172 H1159 0.960 . S
C1172 C1171 1.524 . S
C1173 C1170 1.403 . S
C1173 C1174 1.392 . S
C1173 C1177 1.495 . S
C1174 C1173 1.392 . S
C1174 C1175 1.385 . S
C1174 C1176 1.478 . S
C1175 H1169 0.930 . S
C1175 C1171 1.400 . S
C1175 C1174 1.385 . S
C1176 C1174 1.478 . S
C1176 C1178 1.381 . S
C1176 C1182 1.383 . S
C1177 C1173 1.495 . S
C1177 H1183 0.959 . S
C1177 H1184 0.961 . S
C1177 H1185 0.960 . S
C1178 C1176 1.381 . S
C1178 C1179 1.394 . S
C1178 H1186 0.930 . S
C1179 C1178 1.394 . S
C1179 C1180 1.383 . S
C1179 H1187 0.929 . S
C1180 C1179 1.383 . S
C1180 C1181 1.377 . S
C1181 H1165 0.930 . S
C1181 C1180 1.377 . S
C1181 C1182 1.379 . S
C1182 H1166 0.931 . S
C1182 C1176 1.383 . S
C1182 C1181 1.379 . S
H1183 C1177 0.959 . S
H1184 C1177 0.961 . S
H1185 C1177 0.960 . S
H1186 C1178 0.930 . S
H1187 C1179 0.929 . S
H1188 C1196 0.929 . S
H1189 C1198 0.930 . S
H1190 C1200 0.930 . S
H1191 C1203 0.929 . S
H1192 C1206 0.930 . S
H1193 C1208 0.960 . S
H1194 C1208 0.960 . S
H1195 C1208 0.960 . S
C1196 H1188 0.929 . S
C1196 C1197 1.377 . S
C1196 C1198 1.384 . S
C1197 C1196 1.377 . S
C1197 C1203 1.390 . S
C1198 H1189 0.930 . S
C1198 C1196 1.384 . S
C1198 C1199 1.372 . S
C1199 C1198 1.372 . S
C1199 C1200 1.400 . S
C1199 C1204 1.490 . S
C1200 H1190 0.930 . S
C1200 C1199 1.400 . S
C1200 C1203 1.386 . S
H1201 C1217 0.930 . S
H1202 C1218 0.931 . S
C1203 H1191 0.929 . S
C1203 C1197 1.390 . S
C1203 C1200 1.386 . S
C1204 C1199 1.490 . S
C1204 C1206 1.395 1_455 S
C1204 C1207 1.403 . S
H1205 C1211 0.930 . S
C1206 H1192 0.930 . S
C1206 C1204 1.395 1_655 S
C1206 C1209 1.403 . S
C1207 C1204 1.403 . S
C1207 C1208 1.524 . S
C1207 C1211 1.400 . S
C1208 H1193 0.960 . S
C1208 H1194 0.960 . S
C1208 H1195 0.960 . S
C1208 C1207 1.524 . S
C1209 C1206 1.403 . S
C1209 C1210 1.392 . S
C1209 C1213 1.495 . S
C1210 C1209 1.392 . S
C1210 C1211 1.385 1_655 S
C1210 C1212 1.478 . S
C1211 H1205 0.930 . S
C1211 C1207 1.400 . S
C1211 C1210 1.385 1_455 S
C1212 C1210 1.478 . S
C1212 C1214 1.381 . S
C1212 C1218 1.383 . S
C1213 C1209 1.495 . S
C1213 H1219 0.959 . S
C1213 H1220 0.961 . S
C1213 H1221 0.960 . S
C1214 C1212 1.381 . S
C1214 C1215 1.394 . S
C1214 H1222 0.930 . S
C1215 C1214 1.394 . S
C1215 C1216 1.383 . S
C1215 H1223 0.929 . S
C1216 C1215 1.383 . S
C1216 C1217 1.377 . S
C1217 H1201 0.930 . S
C1217 C1216 1.377 . S
C1217 C1218 1.379 . S
C1218 H1202 0.931 . S
C1218 C1212 1.383 . S
C1218 C1217 1.379 . S
H1219 C1213 0.959 . S
H1220 C1213 0.961 . S
H1221 C1213 0.960 . S
H1222 C1214 0.930 . S
H1223 C1215 0.929 . S
H1224 C1232 0.929 . S
H1225 C1234 0.930 . S
H1226 C1236 0.930 . S
H1227 C1239 0.929 . S
H1228 C1242 0.930 . S
H1229 C1244 0.960 . S
H1230 C1244 0.960 . S
H1231 C1244 0.960 1_565 S
C1232 H1224 0.929 . S
C1232 C1233 1.377 . S
C1232 C1234 1.384 . S
C1233 C1232 1.377 . S
C1233 C1239 1.390 . S
C1234 H1225 0.930 . S
C1234 C1232 1.384 . S
C1234 C1235 1.372 . S
C1235 C1234 1.372 . S
C1235 C1236 1.400 . S
C1235 C1240 1.490 . S
C1236 H1226 0.930 . S
C1236 C1235 1.400 . S
C1236 C1239 1.386 . S
H1237 C1253 0.930 . S
H1238 C1254 0.931 . S
C1239 H1227 0.929 . S
C1239 C1233 1.390 . S
C1239 C1236 1.386 . S
C1240 C1235 1.490 . S
C1240 C1242 1.395 . S
C1240 C1243 1.372 1_565 S
H1241 C1247 0.930 . S
C1242 H1228 0.930 . S
C1242 C1240 1.395 . S
C1242 C1245 1.414 1_554 S
C1243 C1240 1.372 1_545 S
C1243 C1244 1.540 . S
C1243 C1247 1.415 1_554 S
C1244 H1229 0.960 . S
C1244 H1230 0.960 . S
C1244 H1231 0.960 1_545 S
C1244 C1243 1.540 . S
C1245 C1242 1.414 1_556 S
C1245 C1246 1.372 1_565 S
C1245 C1249 1.506 . S
C1246 C1245 1.372 1_545 S
C1246 C1247 1.385 . S
C1246 C1248 1.478 . S
C1247 H1241 0.930 . S
C1247 C1243 1.415 1_556 S
C1247 C1246 1.385 . S
C1248 C1246 1.478 . S
C1248 C1250 1.381 . S
C1248 C1254 1.383 . S
C1249 C1245 1.506 . S
C1249 H1255 0.959 . S
C1249 H1256 0.961 . S
C1249 H1257 0.960 1_565 S
C1250 C1248 1.381 . S
C1250 C1251 1.394 . S
C1250 H1258 0.930 . S
C1251 C1250 1.394 . S
C1251 C1252 1.383 . S
C1251 H1259 0.929 . S
C1252 C1251 1.383 . S
C1252 C1253 1.377 . S
C1253 H1237 0.930 . S
C1253 C1252 1.377 . S
C1253 C1254 1.379 . S
C1254 H1238 0.931 . S
C1254 C1248 1.383 . S
C1254 C1253 1.379 . S
H1255 C1249 0.959 . S
H1256 C1249 0.961 . S
H1257 C1249 0.960 1_545 S
H1258 C1250 0.930 . S
H1259 C1251 0.929 . S
H1260 C1268 0.929 . S
H1261 C1270 0.930 . S
H1262 C1272 0.930 . S
H1263 C1275 0.929 . S
H1264 C1278 0.930 . S
H1265 C1280 0.960 . S
H1266 C1280 0.960 . S
H1267 C1280 0.960 . S
C1268 H1260 0.929 . S
C1268 C1269 1.377 . S
C1268 C1270 1.384 . S
C1269 C1268 1.377 . S
C1269 C1275 1.390 . S
C1270 H1261 0.930 . S
C1270 C1268 1.384 . S
C1270 C1271 1.372 . S
C1271 C1270 1.372 . S
C1271 C1272 1.400 . S
C1271 C1276 1.490 . S
C1272 H1262 0.930 . S
C1272 C1271 1.400 . S
C1272 C1275 1.386 . S
H1273 C1289 0.930 . S
H1274 C1290 0.931 . S
C1275 H1263 0.929 . S
C1275 C1269 1.390 . S
C1275 C1272 1.386 . S
C1276 C1271 1.490 . S
C1276 C1278 1.395 . S
C1276 C1279 1.403 . S
H1277 C1283 0.930 . S
C1278 H1264 0.930 . S
C1278 C1276 1.395 . S
C1278 C1281 1.403 . S
C1279 C1276 1.403 . S
C1279 C1280 1.524 . S
C1279 C1283 1.400 . S
C1280 H1265 0.960 . S
C1280 H1266 0.960 . S
C1280 H1267 0.960 . S
C1280 C1279 1.524 . S
C1281 C1278 1.403 . S
C1281 C1282 1.392 . S
C1281 C1285 1.495 . S
C1282 C1281 1.392 . S
C1282 C1283 1.385 . S
C1282 C1284 1.478 . S
C1283 H1277 0.930 . S
C1283 C1279 1.400 . S
C1283 C1282 1.385 . S
C1284 C1282 1.478 . S
C1284 C1286 1.381 . S
C1284 C1290 1.383 . S
C1285 C1281 1.495 . S
C1285 H1291 0.959 1_556 S
C1285 H1292 0.961 . S
C1285 H1293 0.960 1_556 S
C1286 C1284 1.381 . S
C1286 C1287 1.394 . S
C1286 H1294 0.930 . S
C1287 C1286 1.394 . S
C1287 C1288 1.383 . S
C1287 H1295 0.929 . S
C1288 C1287 1.383 . S
C1288 C1289 1.377 . S
C1289 H1273 0.930 . S
C1289 C1288 1.377 . S
C1289 C1290 1.379 . S
C1290 H1274 0.931 . S
C1290 C1284 1.383 . S
C1290 C1289 1.379 . S
H1291 C1285 0.959 1_554 S
H1292 C1285 0.961 . S
H1293 C1285 0.960 1_554 S
H1294 C1286 0.930 . S
H1295 C1287 0.929 . S
H1296 C1304 0.929 . S
H1297 C1306 0.930 . S
H1298 C1308 0.930 . S
H1299 C1311 0.929 . S
H1300 C1314 0.930 . S
H1301 C1316 0.960 . S
H1302 C1316 0.960 . S
H1303 C1316 0.960 . S
C1304 H1296 0.929 . S
C1304 C1305 1.377 . S
C1304 C1306 1.384 . S
C1305 C1304 1.377 . S
C1305 C1311 1.390 . S
C1306 H1297 0.930 . S
C1306 C1304 1.384 . S
C1306 C1307 1.372 . S
C1307 C1306 1.372 . S
C1307 C1308 1.400 . S
C1307 C1312 1.490 . S
C1308 H1298 0.930 . S
C1308 C1307 1.400 . S
C1308 C1311 1.386 . S
H1309 C1325 0.930 . S
H1310 C1326 0.931 . S
C1311 H1299 0.929 . S
C1311 C1305 1.390 . S
C1311 C1308 1.386 . S
C1312 C1307 1.490 . S
C1312 C1314 1.395 . S
C1312 C1315 1.403 . S
H1313 C1319 0.930 . S
C1314 H1300 0.930 . S
C1314 C1312 1.395 . S
C1314 C1317 1.403 . S
C1315 C1312 1.403 . S
C1315 C1316 1.524 . S
C1315 C1319 1.400 . S
C1316 H1301 0.960 . S
C1316 H1302 0.960 . S
C1316 H1303 0.960 . S
C1316 C1315 1.524 . S
C1317 C1314 1.403 . S
C1317 C1318 1.392 . S
C1317 C1321 1.495 . S
C1318 C1317 1.392 . S
C1318 C1319 1.385 . S
C1318 C1320 1.478 . S
C1319 H1313 0.930 . S
C1319 C1315 1.400 . S
C1319 C1318 1.385 . S
C1320 C1318 1.478 . S
C1320 C1322 1.381 . S
C1320 C1326 1.383 . S
C1321 C1317 1.495 . S
C1321 H1327 0.959 . S
C1321 H1328 0.961 . S
C1321 H1329 0.960 . S
C1322 C1320 1.381 . S
C1322 C1323 1.394 . S
C1322 H1330 0.930 . S
C1323 C1322 1.394 . S
C1323 C1324 1.383 . S
C1323 H1331 0.929 . S
C1324 C1323 1.383 . S
C1324 C1325 1.377 . S
C1325 H1309 0.930 . S
C1325 C1324 1.377 . S
C1325 C1326 1.379 . S
C1326 H1310 0.931 . S
C1326 C1320 1.383 . S
C1326 C1325 1.379 . S
H1327 C1321 0.959 . S
H1328 C1321 0.961 . S
H1329 C1321 0.960 . S
H1330 C1322 0.930 . S
H1331 C1323 0.929 . S
H1332 C1340 0.929 . S
H1333 C1342 0.930 . S
H1334 C1344 0.930 . S
H1335 C1347 0.929 . S
H1336 C1350 0.930 . S
H1337 C1352 0.960 . S
H1338 C1352 0.960 . S
H1339 C1352 0.960 . S
C1340 H1332 0.929 . S
C1340 C1341 1.377 . S
C1340 C1342 1.384 . S
C1341 C1340 1.377 . S
C1341 C1347 1.390 . S
C1342 H1333 0.930 . S
C1342 C1340 1.384 . S
C1342 C1343 1.372 . S
C1343 C1342 1.372 . S
C1343 C1344 1.400 . S
C1343 C1348 1.490 . S
C1344 H1334 0.930 . S
C1344 C1343 1.400 . S
C1344 C1347 1.386 . S
H1345 C1361 0.930 . S
H1346 C1362 0.931 . S
C1347 H1335 0.929 . S
C1347 C1341 1.390 . S
C1347 C1344 1.386 . S
C1348 C1343 1.490 . S
C1348 C1350 1.395 . S
C1348 C1351 1.403 . S
H1349 C1355 0.930 . S
C1350 H1336 0.930 . S
C1350 C1348 1.395 . S
C1350 C1353 1.403 . S
C1351 C1348 1.403 . S
C1351 C1352 1.524 . S
C1351 C1355 1.400 . S
C1352 H1337 0.960 . S
C1352 H1338 0.960 . S
C1352 H1339 0.960 . S
C1352 C1351 1.524 . S
C1353 C1350 1.403 . S
C1353 C1354 1.392 . S
C1353 C1357 1.495 . S
C1354 C1353 1.392 . S
C1354 C1355 1.385 . S
C1354 C1356 1.478 . S
C1355 H1349 0.930 . S
C1355 C1351 1.400 . S
C1355 C1354 1.385 . S
C1356 C1354 1.478 . S
C1356 C1358 1.381 . S
C1356 C1362 1.383 . S
C1357 C1353 1.495 . S
C1357 H1363 0.959 . S
C1357 H1364 0.961 . S
C1357 H1365 0.960 . S
C1358 C1356 1.381 . S
C1358 C1359 1.394 . S
C1358 H1366 0.930 . S
C1359 C1358 1.394 . S
C1359 C1360 1.383 . S
C1359 H1367 0.929 . S
C1360 C1359 1.383 . S
C1360 C1361 1.377 . S
C1361 H1345 0.930 . S
C1361 C1360 1.377 . S
C1361 C1362 1.379 . S
C1362 H1346 0.931 . S
C1362 C1356 1.383 . S
C1362 C1361 1.379 . S
H1363 C1357 0.959 . S
H1364 C1357 0.961 . S
H1365 C1357 0.960 . S
H1366 C1358 0.930 . S
H1367 C1359 0.929 . S
H1368 C1376 0.929 . S
H1369 C1378 0.930 . S
H1370 C1380 0.930 . S
H1371 C1383 0.929 . S
H1372 C1386 0.930 . S
H1373 C1388 0.960 . S
H1374 C1388 0.960 . S
H1375 C1388 0.960 . S
C1376 H1368 0.929 . S
C1376 C1377 1.377 . S
C1376 C1378 1.384 . S
C1377 C1376 1.377 . S
C1377 C1383 1.390 . S
C1378 H1369 0.930 . S
C1378 C1376 1.384 . S
C1378 C1379 1.372 . S
C1379 C1378 1.372 . S
C1379 C1380 1.400 . S
C1379 C1384 1.490 . S
C1380 H1370 0.930 . S
C1380 C1379 1.400 . S
C1380 C1383 1.386 . S
H1381 C1397 0.930 . S
H1382 C1398 0.931 . S
C1383 H1371 0.929 . S
C1383 C1377 1.390 . S
C1383 C1380 1.386 . S
C1384 C1379 1.490 . S
C1384 C1386 1.395 . S
C1384 C1387 1.403 . S
H1385 C1391 0.930 . S
C1386 H1372 0.930 . S
C1386 C1384 1.395 . S
C1386 C1389 1.403 . S
C1387 C1384 1.403 . S
C1387 C1388 1.524 . S
C1387 C1391 1.400 . S
C1388 H1373 0.960 . S
C1388 H1374 0.960 . S
C1388 H1375 0.960 . S
C1388 C1387 1.524 . S
C1389 C1386 1.403 . S
C1389 C1390 1.392 . S
C1389 C1393 1.495 . S
C1390 C1389 1.392 . S
C1390 C1391 1.385 . S
C1390 C1392 1.478 . S
C1391 H1385 0.930 . S
C1391 C1387 1.400 . S
C1391 C1390 1.385 . S
C1392 C1390 1.478 . S
C1392 C1394 1.381 . S
C1392 C1398 1.383 . S
C1393 C1389 1.495 . S
C1393 H1399 0.959 . S
C1393 H1400 0.961 . S
C1393 H1401 0.960 . S
C1394 C1392 1.381 . S
C1394 C1395 1.394 . S
C1394 H1402 0.930 . S
C1395 C1394 1.394 . S
C1395 C1396 1.383 . S
C1395 H1403 0.929 . S
C1396 C1395 1.383 . S
C1396 C1397 1.377 . S
C1397 H1381 0.930 . S
C1397 C1396 1.377 . S
C1397 C1398 1.379 . S
C1398 H1382 0.931 . S
C1398 C1392 1.383 . S
C1398 C1397 1.379 . S
H1399 C1393 0.959 . S
H1400 C1393 0.961 . S
H1401 C1393 0.960 . S
H1402 C1394 0.930 . S
H1403 C1395 0.929 . S
H1404 C1412 0.929 . S
H1405 C1414 0.930 . S
H1406 C1416 0.930 . S
H1407 C1419 0.929 . S
H1408 C1422 0.930 . S
H1409 C1424 0.960 . S
H1410 C1424 0.960 . S
H1411 C1424 0.960 . S
C1412 H1404 0.929 . S
C1412 C1413 1.377 . S
C1412 C1414 1.384 . S
C1413 C1412 1.377 . S
C1413 C1419 1.390 . S
C1414 H1405 0.930 . S
C1414 C1412 1.384 . S
C1414 C1415 1.372 . S
C1415 C1414 1.372 . S
C1415 C1416 1.400 . S
C1415 C1420 1.490 . S
C1416 H1406 0.930 . S
C1416 C1415 1.400 . S
C1416 C1419 1.386 . S
H1417 C1433 0.930 . S
H1418 C1434 0.931 . S
C1419 H1407 0.929 . S
C1419 C1413 1.390 . S
C1419 C1416 1.386 . S
C1420 C1415 1.490 . S
C1420 C1422 1.395 . S
C1420 C1423 1.403 . S
H1421 C1427 0.930 . S
C1422 H1408 0.930 . S
C1422 C1420 1.395 . S
C1422 C1425 1.403 . S
C1423 C1420 1.403 . S
C1423 C1424 1.524 . S
C1423 C1427 1.400 . S
C1424 H1409 0.960 . S
C1424 H1410 0.960 . S
C1424 H1411 0.960 . S
C1424 C1423 1.524 . S
C1425 C1422 1.403 . S
C1425 C1426 1.392 . S
C1425 C1429 1.495 . S
C1426 C1425 1.392 . S
C1426 C1427 1.385 . S
C1426 C1428 1.478 . S
C1427 H1421 0.930 . S
C1427 C1423 1.400 . S
C1427 C1426 1.385 . S
C1428 C1426 1.478 . S
C1428 C1430 1.381 . S
C1428 C1434 1.383 . S
C1429 C1425 1.495 . S
C1429 H1435 0.959 . S
C1429 H1436 0.961 . S
C1429 H1437 0.960 . S
C1430 C1428 1.381 . S
C1430 C1431 1.394 . S
C1430 H1438 0.930 . S
C1431 C1430 1.394 . S
C1431 C1432 1.383 . S
C1431 H1439 0.929 . S
C1432 C1431 1.383 . S
C1432 C1433 1.377 . S
C1433 H1417 0.930 . S
C1433 C1432 1.377 . S
C1433 C1434 1.379 . S
C1434 H1418 0.931 . S
C1434 C1428 1.383 . S
C1434 C1433 1.379 . S
H1435 C1429 0.959 . S
H1436 C1429 0.961 . S
H1437 C1429 0.960 . S
H1438 C1430 0.930 . S
H1439 C1431 0.929 . S
H1440 C1448 0.929 . S
H1441 C1450 0.930 . S
H1442 C1452 0.930 . S
H1443 C1455 0.929 . S
H1444 C1458 0.930 . S
H1445 C1460 0.960 . S
H1446 C1460 0.960 . S
H1447 C1460 0.960 . S
C1448 H1440 0.929 . S
C1448 C1449 1.377 . S
C1448 C1450 1.384 . S
C1449 C1448 1.377 . S
C1449 C1455 1.390 . S
C1450 H1441 0.930 . S
C1450 C1448 1.384 . S
C1450 C1451 1.372 . S
C1451 C1450 1.372 . S
C1451 C1452 1.400 . S
C1451 C1456 1.490 . S
C1452 H1442 0.930 . S
C1452 C1451 1.400 . S
C1452 C1455 1.386 . S
H1453 C1469 0.930 . S
H1454 C1470 0.931 . S
C1455 H1443 0.929 . S
C1455 C1449 1.390 . S
C1455 C1452 1.386 . S
C1456 C1451 1.490 . S
C1456 C1458 1.395 . S
C1456 C1459 1.403 . S
H1457 C1463 0.930 . S
C1458 H1444 0.930 . S
C1458 C1456 1.395 . S
C1458 C1461 1.403 . S
C1459 C1456 1.403 . S
C1459 C1460 1.524 . S
C1459 C1463 1.400 . S
C1460 H1445 0.960 . S
C1460 H1446 0.960 . S
C1460 H1447 0.960 . S
C1460 C1459 1.524 . S
C1461 C1458 1.403 . S
C1461 C1462 1.392 . S
C1461 C1465 1.495 . S
C1462 C1461 1.392 . S
C1462 C1463 1.385 . S
C1462 C1464 1.478 . S
C1463 H1457 0.930 . S
C1463 C1459 1.400 . S
C1463 C1462 1.385 . S
C1464 C1462 1.478 . S
C1464 C1466 1.381 . S
C1464 C1470 1.383 . S
C1465 C1461 1.495 . S
C1465 H1471 0.959 . S
C1465 H1472 0.961 . S
C1465 H1473 0.960 . S
C1466 C1464 1.381 . S
C1466 C1467 1.394 . S
C1466 H1474 0.930 . S
C1467 C1466 1.394 . S
C1467 C1468 1.383 . S
C1467 H1475 0.929 . S
C1468 C1467 1.383 . S
C1468 C1469 1.377 . S
C1469 H1453 0.930 . S
C1469 C1468 1.377 . S
C1469 C1470 1.379 . S
C1470 H1454 0.931 . S
C1470 C1464 1.383 . S
C1470 C1469 1.379 . S
H1471 C1465 0.959 . S
H1472 C1465 0.961 . S
H1473 C1465 0.960 . S
H1474 C1466 0.930 . S
H1475 C1467 0.929 . S
C405 N344 0.931 . S
C424 N14 0.976 . S
C441 N47 0.967 . S
C460 N377 0.946 . S
C477 N80 0.969 . S
C496 N212 1.021 . S
C513 N113 0.919 . S
C532 N245 0.972 . S
C549 N146 0.967 . S
C568 N278 0.954 . S
C585 N179 0.966 . S
C604 N311 0.995 . S
C621 N5 1.665 . S
C640 C173 1.654 . S
C657 C8 1.682 . S
C676 N38 1.636 . S
C693 C41 1.688 . S
C712 N71 1.686 . S
C729 N104 1.671 . S
C748 C74 1.678 . S
C765 N137 1.697 . S
C784 C107 1.722 . S
C801 N170 1.676 . S
C820 C140 1.685 . S
C837 C239 1.681 . S
C856 N203 1.638 . S
C873 N236 1.662 . S
C892 C272 1.661 . S
C909 N269 1.673 . S
C928 C305 1.698 . S
C945 N302 1.701 . S
C964 C338 1.707 . S
C981 N335 1.675 . S
C1000 C371 1.666 . S
C1017 N368 1.675 . S
C1036 C206 1.678 . S
C1053 C28 0.419 . S
C1072 C325 0.480 . S
C1089 C61 0.485 . S
C1108 C358 0.536 . S
C1125 C94 0.478 . S
C1144 C391 0.526 . S
C1161 C127 0.492 . S
C1180 C226 0.542 . S
C1197 C160 0.411 . S
C1216 C259 0.374 . S
C1233 C292 0.466 . S
C1252 C193 0.484 . S
C1269 C215 1.244 . S
C1288 C17 1.240 . S
C1305 C50 1.249 . S
C1324 C248 1.232 . S
C1341 C83 1.260 . S
C1360 C281 1.259 . S
C1377 C314 1.266 . S
C1396 C116 1.284 . S
C1413 C149 1.258 . S
C1432 C347 1.237 . S
C1449 C380 1.261 . S
C1468 C182 1.275 . S
