# Generated by pormake.
# Topology etb, (3)-cn, num edge types: 1
# Building blocks:
#     Node 0, Type 0, BuildingBlock: OLANEW_clean_sbu_2, # of connection points: 3
#     Node 1, Type 0, BuildingBlock: OLANEW_clean_sbu_2, # of connection points: 3
#     Node 2, Type 0, BuildingBlock: OLANEW_clean_sbu_2, # of connection points: 3
#     Node 3, Type 0, BuildingBlock: OLANEW_clean_sbu_2, # of connection points: 3
#     Node 4, Type 0, BuildingBlock: OLANEW_clean_sbu_2, # of connection points: 3
#     Node 5, Type 0, BuildingBlock: OLANEW_clean_sbu_2, # of connection points: 3
#     Node 6, Type 0, BuildingBlock: OLANEW_clean_sbu_2, # of connection points: 3
#     Node 7, Type 0, BuildingBlock: OLANEW_clean_sbu_2, # of connection points: 3
#     Node 8, Type 0, BuildingBlock: OLANEW_clean_sbu_2, # of connection points: 3
#     Node 9, Type 0, BuildingBlock: OLANEW_clean_sbu_2, # of connection points: 3
#     Node 10, Type 0, BuildingBlock: OLANEW_clean_sbu_2, # of connection points: 3
#     Node 11, Type 0, BuildingBlock: OLANEW_clean_sbu_2, # of connection points: 3
#     Node 12, Type 0, BuildingBlock: OLANEW_clean_sbu_2, # of connection points: 3
#     Node 13, Type 0, BuildingBlock: OLANEW_clean_sbu_2, # of connection points: 3
#     Node 14, Type 0, BuildingBlock: OLANEW_clean_sbu_2, # of connection points: 3
#     Node 15, Type 0, BuildingBlock: OLANEW_clean_sbu_2, # of connection points: 3
#     Node 16, Type 0, BuildingBlock: OLANEW_clean_sbu_2, # of connection points: 3
#     Node 17, Type 0, BuildingBlock: OLANEW_clean_sbu_2, # of connection points: 3
#     Edge 18, Type (0, 0), BuildingBlock: UVAHIK_clean_linker_0, # of connection points: 2
#     Edge 19, Type (0, 0), BuildingBlock: UVAHIK_clean_linker_0, # of connection points: 2
#     Edge 20, Type (0, 0), BuildingBlock: UVAHIK_clean_linker_0, # of connection points: 2
#     Edge 21, Type (0, 0), BuildingBlock: UVAHIK_clean_linker_0, # of connection points: 2
#     Edge 22, Type (0, 0), BuildingBlock: UVAHIK_clean_linker_0, # of connection points: 2
#     Edge 23, Type (0, 0), BuildingBlock: UVAHIK_clean_linker_0, # of connection points: 2
#     Edge 24, Type (0, 0), BuildingBlock: UVAHIK_clean_linker_0, # of connection points: 2
#     Edge 25, Type (0, 0), BuildingBlock: UVAHIK_clean_linker_0, # of connection points: 2
#     Edge 26, Type (0, 0), BuildingBlock: UVAHIK_clean_linker_0, # of connection points: 2
#     Edge 27, Type (0, 0), BuildingBlock: UVAHIK_clean_linker_0, # of connection points: 2
#     Edge 28, Type (0, 0), BuildingBlock: UVAHIK_clean_linker_0, # of connection points: 2
#     Edge 29, Type (0, 0), BuildingBlock: UVAHIK_clean_linker_0, # of connection points: 2
#     Edge 30, Type (0, 0), BuildingBlock: UVAHIK_clean_linker_0, # of connection points: 2
#     Edge 31, Type (0, 0), BuildingBlock: UVAHIK_clean_linker_0, # of connection points: 2
#     Edge 32, Type (0, 0), BuildingBlock: UVAHIK_clean_linker_0, # of connection points: 2
#     Edge 33, Type (0, 0), BuildingBlock: UVAHIK_clean_linker_0, # of connection points: 2
#     Edge 34, Type (0, 0), BuildingBlock: UVAHIK_clean_linker_0, # of connection points: 2
#     Edge 35, Type (0, 0), BuildingBlock: UVAHIK_clean_linker_0, # of connection points: 2
#     Edge 36, Type (0, 0), BuildingBlock: UVAHIK_clean_linker_0, # of connection points: 2
#     Edge 37, Type (0, 0), BuildingBlock: UVAHIK_clean_linker_0, # of connection points: 2
#     Edge 38, Type (0, 0), BuildingBlock: UVAHIK_clean_linker_0, # of connection points: 2
#     Edge 39, Type (0, 0), BuildingBlock: UVAHIK_clean_linker_0, # of connection points: 2
#     Edge 40, Type (0, 0), BuildingBlock: UVAHIK_clean_linker_0, # of connection points: 2
#     Edge 41, Type (0, 0), BuildingBlock: UVAHIK_clean_linker_0, # of connection points: 2
#     Edge 42, Type (0, 0), BuildingBlock: UVAHIK_clean_linker_0, # of connection points: 2
#     Edge 43, Type (0, 0), BuildingBlock: UVAHIK_clean_linker_0, # of connection points: 2
#     Edge 44, Type (0, 0), BuildingBlock: UVAHIK_clean_linker_0, # of connection points: 2
# Relax obj value: 0.016
# Max RMSD: 0.086
# Mean RMSD: 0.075
data_MOF--net-etb--node1-OLANEW_clean_sbu_2--edge1-UVAHIK_clean_linker_0
_symmetry_space_group_name_H-M    P1
_symmetry_Int_Tables_number       1
_symmetry_cell_setting            triclinic
loop_
_symmetry_equiv_pos_as_xyz
'x, y, z'
_cell_length_a     122.36538
_cell_length_b     115.4216
_cell_length_c     37.942883
_cell_angle_alpha  84.327978
_cell_angle_beta   95.173872
_cell_angle_gamma 123.58401
loop_
_atom_site_label
_atom_site_type_symbol
_atom_site_fract_x
_atom_site_fract_y
_atom_site_fract_z
_atom_type_partial_charge
O0 O 0.50102 0.10589 0.09853 0.0
Cd1 Cd 0.51543 0.10404 0.14428 0.0
O2 O 0.485 0.09516 0.13536 0.0
Cd3 Cd 0.46485 0.08503 0.15204 0.0
O4 O 0.44548 0.07403 0.17441 0.0
C5 C 0.43616 0.06254 0.1625 0.0
O6 O 0.43831 0.05753 0.13623 0.0
C7 C 0.48918 0.10107 0.105 0.0
C8 C 0.52208 0.08584 0.12695 0.0
O9 O 0.51206 0.0815 0.14532 0.0
O10 O 0.52893 0.0988 0.11683 0.0
O11 O 0.02165 0.46748 0.19022 0.0
Cd12 Cd 0.00596 0.47098 0.15454 0.0
O13 O 0.02549 0.46067 0.14364 0.0
Cd14 Cd 0.03538 0.45417 0.11328 0.0
O15 O 0.04241 0.44661 0.07626 0.0
C16 C 0.04683 0.4391 0.08674 0.0
O17 O 0.04745 0.43603 0.12084 0.0
C18 C 0.02766 0.46306 0.17639 0.0
C19 C 0.01757 0.49846 0.12742 0.0
O20 O 0.01263 0.49463 0.15808 0.0
O21 O 0.01701 0.48928 0.10955 0.0
O22 O 0.62292 0.64775 0.95577 0.0
Cd23 Cd 0.60218 0.63704 0.98506 0.0
O24 O 0.63184 0.65259 0.00926 0.0
Cd25 Cd 0.64729 0.66034 0.05138 0.0
O26 O 0.65922 0.66837 0.10013 0.0
C27 C 0.66781 0.68133 0.10198 0.0
O28 O 0.66974 0.6897 0.07373 0.0
C29 C 0.63318 0.65336 0.97607 0.0
C30 C 0.58884 0.60816 0.99459 0.0
O31 O 0.58575 0.61388 0.96842 0.0
O32 O 0.5983 0.61609 0.016 0.0
O33 O 0.59174 0.98607 0.07219 0.0
Cd34 Cd 0.5723 0.97991 0.0341 0.0
O35 O 0.60364 0.99579 0.02546 0.0
Cd36 Cd 0.62158 0.00787 0.99556 0.0
O37 O 0.63827 0.0185 0.96114 0.0
C38 C 0.63747 0.013 0.9328 0.0
O39 O 0.62664 0.00107 0.92518 0.0
C40 C 0.60292 0.99262 0.05864 0.0
C41 C 0.56273 0.99608 0.04647 0.0
O42 O 0.55844 0.98424 0.06325 0.0
O43 O 0.57148 0.00021 0.02367 0.0
O44 O 0.08502 0.68037 0.03185 0.0
Cd45 Cd 0.08343 0.66893 0.97906 0.0
O46 O 0.06939 0.68312 0.01029 0.0
Cd47 Cd 0.05416 0.6877 0.00474 0.0
O48 O 0.03769 0.68774 0.97724 0.0
C49 C 0.02623 0.67673 0.97921 0.0
O50 O 0.02458 0.66599 0.99941 0.0
C51 C 0.07758 0.6846 0.03552 0.0
C52 C 0.0734 0.64085 0.99673 0.0
O53 O 0.08577 0.65004 0.99904 0.0
O54 O 0.06578 0.64492 0.98553 0.0
O55 O 0.47903 0.4177 0.07678 0.0
Cd56 Cd 0.49576 0.43424 0.11798 0.0
O57 O 0.46534 0.41835 0.10844 0.0
Cd58 Cd 0.44614 0.41118 0.12762 0.0
O59 O 0.42896 0.40445 0.15745 0.0
C60 C 0.41775 0.39376 0.14987 0.0
O61 O 0.41639 0.38671 0.12282 0.0
C62 C 0.46731 0.41353 0.08274 0.0
C63 C 0.51099 0.46139 0.08873 0.0
O64 O 0.51512 0.45327 0.09075 0.0
O65 O 0.49961 0.45661 0.1001 0.0
O66 O 0.15505 0.43227 0.54022 0.0
Cd67 Cd 0.17406 0.44761 0.50416 0.0
O68 O 0.14307 0.43239 0.49406 0.0
Cd69 Cd 0.1256 0.4284 0.46233 0.0
O70 O 0.1118 0.42961 0.42395 0.0
C71 C 0.11096 0.4401 0.42389 0.0
O72 O 0.11808 0.44944 0.44739 0.0
C73 C 0.14377 0.42798 0.52574 0.0
C74 C 0.186 0.43379 0.49172 0.0
O75 O 0.1904 0.44224 0.51664 0.0
O76 O 0.17613 0.43208 0.4724 0.0
O77 O 0.70646 0.78502 0.55802 0.0
Cd78 Cd 0.69094 0.7885 0.52127 0.0
O79 O 0.70859 0.77685 0.51142 0.0
Cd80 Cd 0.71445 0.76677 0.47856 0.0
O81 O 0.71499 0.75684 0.43321 0.0
C82 C 0.70998 0.7438 0.43442 0.0
O83 O 0.70502 0.73638 0.46409 0.0
C84 C 0.71172 0.77987 0.54369 0.0
C85 C 0.70039 0.81657 0.50614 0.0
O86 O 0.69308 0.80976 0.53246 0.0
O87 O 0.70329 0.81013 0.48714 0.0
O88 O 0.29774 0.9847 0.27607 0.0
Cd89 Cd 0.27532 0.9758 0.29144 0.0
O90 O 0.30417 0.98943 0.3315 0.0
Cd91 Cd 0.31815 0.99672 0.37713 0.0
O92 O 0.33021 0.00467 0.42574 0.0
C93 C 0.34262 0.01301 0.42528 0.0
O94 O 0.34835 0.01677 0.39482 0.0
C95 C 0.30696 0.98977 0.29976 0.0
C96 C 0.25993 0.94714 0.30724 0.0
O97 O 0.26055 0.95223 0.27534 0.0
O98 O 0.26678 0.95561 0.33159 0.0
O99 O 0.26171 0.33437 0.49218 0.0
Cd100 Cd 0.24931 0.33604 0.44 0.0
O101 O 0.27682 0.34073 0.45454 0.0
Cd102 Cd 0.2959 0.34743 0.43534 0.0
O103 O 0.3128 0.35383 0.40458 0.0
C104 C 0.31092 0.34738 0.37711 0.0
O105 O 0.29898 0.33697 0.36881 0.0
C106 C 0.27305 0.33729 0.48623 0.0
C107 C 0.23936 0.35206 0.44987 0.0
O108 O 0.23217 0.33874 0.45404 0.0
O109 O 0.25126 0.3578 0.44121 0.0
O110 O 0.74834 0.9991 0.40639 0.0
Cd111 Cd 0.73893 0.98022 0.36612 0.0
O112 O 0.73368 0.00274 0.38105 0.0
Cd113 Cd 0.72312 0.01287 0.36532 0.0
O114 O 0.70945 0.01583 0.33086 0.0
C115 C 0.71041 0.01605 0.29768 0.0
O116 O 0.71979 0.01519 0.28651 0.0
C117 C 0.74315 0.00614 0.40368 0.0
C118 C 0.73535 0.95547 0.39693 0.0
O119 O 0.74583 0.96447 0.38075 0.0
O120 O 0.72667 0.95829 0.39903 0.0
O121 O 0.13262 0.76083 0.35693 0.0
Cd122 Cd 0.14517 0.7741 0.40843 0.0
O123 O 0.11544 0.75989 0.37333 0.0
Cd124 Cd 0.09467 0.7523 0.37432 0.0
O125 O 0.07603 0.74491 0.39762 0.0
C126 C 0.07655 0.75079 0.4249 0.0
O127 O 0.08802 0.76114 0.43647 0.0
C128 C 0.12062 0.75671 0.35177 0.0
C129 C 0.16427 0.80187 0.39039 0.0
O130 O 0.16684 0.79246 0.39186 0.0
O131 O 0.15264 0.79811 0.39724 0.0
O132 O 0.8209 0.7752 0.74333 0.0
Cd133 Cd 0.8389 0.7766 0.78054 0.0
O134 O 0.80753 0.76213 0.78568 0.0
Cd135 Cd 0.78843 0.74911 0.8099 0.0
O136 O 0.76943 0.73741 0.83443 0.0
C137 C 0.7594 0.72752 0.81875 0.0
O138 O 0.76064 0.72441 0.78759 0.0
C139 C 0.80942 0.76842 0.75514 0.0
C140 C 0.84397 0.75679 0.76641 0.0
O141 O 0.83571 0.75411 0.78948 0.0
O142 O 0.84975 0.76882 0.74983 0.0
O143 O 0.41662 0.14143 0.8353 0.0
Cd144 Cd 0.40539 0.14706 0.78699 0.0
O145 O 0.41664 0.12815 0.79818 0.0
Cd146 Cd 0.41859 0.1123 0.77801 0.0
O147 O 0.41452 0.09729 0.73976 0.0
C148 C 0.40325 0.08598 0.73917 0.0
O149 O 0.39491 0.08344 0.76298 0.0
C150 C 0.41951 0.13285 0.82892 0.0
C151 C 0.39751 0.16396 0.80625 0.0
O152 O 0.39039 0.15071 0.81226 0.0
O153 O 0.40844 0.16925 0.7914 0.0
O154 O 0.02659 0.30668 0.70805 0.0
Cd155 Cd 0.0099 0.28855 0.74742 0.0
O156 O 0.03297 0.31884 0.75486 0.0
Cd157 Cd 0.04395 0.33705 0.78697 0.0
O158 O 0.0509 0.3525 0.82643 0.0
C159 C 0.05115 0.36361 0.81873 0.0
O160 O 0.04765 0.36587 0.78634 0.0
C161 C 0.0346 0.31805 0.72274 0.0
C162 C 0.98508 0.27075 0.71627 0.0
O163 O 0.99356 0.26744 0.72013 0.0
O164 O 0.98847 0.28264 0.72624 0.0
O165 O 0.90816 0.64854 0.74906 0.0
Cd166 Cd 0.88963 0.64361 0.70829 0.0
O167 O 0.92131 0.66018 0.70542 0.0
Cd168 Cd 0.93976 0.67114 0.67791 0.0
O169 O 0.95617 0.68074 0.64273 0.0
C170 C 0.96698 0.69201 0.64981 0.0
O171 O 0.96835 0.69792 0.67919 0.0
C172 C 0.91972 0.65572 0.73779 0.0
C173 C 0.88124 0.66125 0.71593 0.0
O174 O 0.87634 0.64958 0.73404 0.0
O175 O 0.8901 0.66456 0.69419 0.0
O176 O 0.35741 0.28484 0.92308 0.0
Cd177 Cd 0.33963 0.26307 0.89862 0.0
O178 O 0.35027 0.29559 0.88757 0.0
Cd179 Cd 0.35013 0.31278 0.85812 0.0
O180 O 0.34384 0.32197 0.81455 0.0
C181 C 0.34626 0.32126 0.78324 0.0
O182 O 0.35301 0.3158 0.77884 0.0
C183 C 0.35862 0.29614 0.91107 0.0
C184 C 0.34885 0.24687 0.88362 0.0
O185 O 0.34974 0.25639 0.86124 0.0
O186 O 0.3435 0.24492 0.91301 0.0
O187 O 0.81154 0.12925 0.63075 0.0
Cd188 Cd 0.82147 0.14718 0.67399 0.0
O189 O 0.79356 0.11975 0.65962 0.0
Cd190 Cd 0.77363 0.10409 0.67633 0.0
O191 O 0.75615 0.09272 0.70784 0.0
C192 C 0.74586 0.08116 0.69966 0.0
O193 O 0.74547 0.07558 0.67065 0.0
C194 C 0.79958 0.11947 0.63441 0.0
C195 C 0.84818 0.16707 0.66627 0.0
O196 O 0.8442 0.15543 0.68383 0.0
O197 O 0.83952 0.16922 0.65185 0.0
C198 C 0.54766 -0.00017 0.07685 0.0
C199 C 0.55785 0.00481 0.05351 0.0
C200 C 0.54323 0.00818 0.08399 0.0
C201 C 0.54337 0.03948 0.04953 0.0
H202 H 0.53537 0.03964 0.14602 0.0
C203 C 0.53605 0.08088 0.09541 0.0
C204 C 0.52566 0.07622 0.1178 0.0
C205 C 0.5395 0.07183 0.08692 0.0
C206 C 0.53743 0.03959 0.11887 0.0
H207 H 0.57136 0.02245 0.0193 0.0
H208 H 0.5638 0.0371 0.03221 0.0
H209 H 0.54228 0.02447 0.13235 0.0
H210 H 0.51071 0.05838 0.14875 0.0
H211 H 0.51676 0.04259 0.13393 0.0
H212 H 0.53869 0.05477 0.03623 0.0
C213 C 0.55906 0.02665 0.04455 0.0
C214 C 0.54137 0.03088 0.11101 0.0
C215 C 0.56346 0.01828 0.03731 0.0
C216 C 0.51878 0.0623 0.13147 0.0
C217 C 0.52228 0.05327 0.12313 0.0
C218 C 0.53949 0.04823 0.05744 0.0
C219 C 0.54892 0.02172 0.06805 0.0
C220 C 0.54443 0.03075 0.07625 0.0
C221 C 0.53268 0.05794 0.10078 0.0
C222 C 0.53652 0.04842 0.09222 0.0
H223 H 0.54309 0.98947 0.08965 0.0
H224 H 0.53527 0.00398 0.10181 0.0
H225 H 0.54543 0.03946 0.02237 0.0
H226 H 0.54156 0.09154 0.08445 0.0
H227 H 0.54766 0.07577 0.06994 0.0
C228 C 0.02786 0.51688 0.07808 0.0
C229 C 0.02368 0.51305 0.11308 0.0
C230 C 0.03352 0.53065 0.06449 0.0
C231 C 0.05061 0.56663 0.09169 0.0
H232 H 0.03962 0.57415 0.99788 0.0
C233 C 0.07631 0.62197 0.02369 0.0
C234 C 0.06805 0.62604 0.00759 0.0
C235 C 0.07117 0.60809 0.0354 0.0
C236 C 0.04275 0.57221 0.02415 0.0
H237 H 0.02225 0.5207 0.16131 0.0
H238 H 0.03215 0.54471 0.13759 0.0
H239 H 0.03005 0.55007 0.0211 0.0
H240 H 0.04793 0.61869 0.99058 0.0
H241 H 0.03897 0.59446 0.01096 0.0
H242 H 0.06318 0.58875 0.09496 0.0
C243 C 0.0311 0.53708 0.12074 0.0
C244 C 0.03737 0.55843 0.03731 0.0
C245 C 0.02536 0.5233 0.13425 0.0
C246 C 0.05456 0.61589 0.00287 0.0
C247 C 0.04944 0.602 0.01438 0.0
C248 C 0.05606 0.5804 0.07844 0.0
C249 C 0.03521 0.54089 0.08569 0.0
C250 C 0.04118 0.5555 0.07131 0.0
C251 C 0.05767 0.59797 0.03105 0.0
C252 C 0.05214 0.58334 0.04461 0.0
H253 H 0.02671 0.50923 0.06109 0.0
H254 H 0.0367 0.53331 0.03748 0.0
H255 H 0.05382 0.56469 0.11785 0.0
H256 H 0.08675 0.62952 0.02768 0.0
H257 H 0.07778 0.60527 0.0478 0.0
C258 C 0.53298 0.48271 0.07461 0.0
C259 C 0.51928 0.476 0.07476 0.0
C260 C 0.5409 0.49679 0.06356 0.0
C261 C 0.54166 0.5247 0.00853 0.0
H262 H 0.5681 0.54959 0.07639 0.0
C263 C 0.5686 0.58444 0.98646 0.0
C264 C 0.58149 0.59285 0.00053 0.0
C265 C 0.56137 0.57002 0.99376 0.0
C266 C 0.56098 0.54282 0.05671 0.0
H267 H 0.50309 0.47861 0.06237 0.0
H268 H 0.51696 0.50317 0.04198 0.0
H269 H 0.555 0.52462 0.09126 0.0
H270 H 0.59711 0.59278 0.03207 0.0
H271 H 0.58481 0.56761 0.04333 0.0
H272 H 0.5478 0.54271 0.97343 0.0
C273 C 0.52153 0.49753 0.05085 0.0
C274 C 0.55343 0.52851 0.06543 0.0
C275 C 0.51362 0.48353 0.06264 0.0
C276 C 0.58714 0.58655 0.02118 0.0
C277 C 0.58002 0.5721 0.02785 0.0
C278 C 0.5494 0.53899 0.99945 0.0
C279 C 0.53524 0.50432 0.05171 0.0
C280 C 0.54362 0.51936 0.04157 0.0
C281 C 0.56696 0.56363 0.0147 0.0
C282 C 0.55909 0.54829 0.02358 0.0
H283 H 0.53761 0.47717 0.08393 0.0
H284 H 0.55146 0.50183 0.06433 0.0
H285 H 0.5342 0.51779 0.98962 0.0
H286 H 0.56396 0.58904 0.97066 0.0
H287 H 0.55129 0.56396 0.98366 0.0
C288 C 0.22045 0.35461 0.45241 0.0
C289 C 0.23405 0.36057 0.45458 0.0
C290 C 0.21543 0.36272 0.45605 0.0
C291 C 0.2254 0.39975 0.45482 0.0
H292 H 0.19188 0.38297 0.49789 0.0
C293 C 0.20465 0.43046 0.49956 0.0
C294 C 0.1919 0.42593 0.48609 0.0
C295 C 0.21006 0.42278 0.49498 0.0
C296 C 0.20122 0.38774 0.48568 0.0
H297 H 0.25307 0.37961 0.463 0.0
H298 H 0.24434 0.39364 0.47107 0.0
H299 H 0.2009 0.36898 0.49273 0.0
H300 H 0.1748 0.40983 0.4574 0.0
H301 H 0.18416 0.3962 0.45032 0.0
H302 H 0.22582 0.41867 0.44919 0.0
C303 C 0.23751 0.38283 0.46527 0.0
C304 C 0.20638 0.37973 0.48247 0.0
C305 C 0.24254 0.37476 0.46092 0.0
C306 C 0.18467 0.4136 0.46794 0.0
C307 C 0.18997 0.40577 0.46404 0.0
C308 C 0.22035 0.40782 0.45871 0.0
C309 C 0.22388 0.37694 0.46268 0.0
C310 C 0.21851 0.38558 0.46675 0.0
C311 C 0.2027 0.41029 0.47754 0.0
C312 C 0.20818 0.40185 0.47393 0.0
H313 H 0.21368 0.34371 0.44721 0.0
H314 H 0.20491 0.35785 0.4531 0.0
H315 H 0.23462 0.4046 0.44195 0.0
H316 H 0.21046 0.43995 0.51359 0.0
H317 H 0.21988 0.42642 0.50572 0.0
C318 C 0.74115 0.93766 0.4026 0.0
C319 C 0.7331 0.94199 0.41163 0.0
C320 C 0.73852 0.92455 0.41467 0.0
C321 C 0.72186 0.89627 0.48311 0.0
H322 H 0.71998 0.87281 0.41324 0.0
C323 C 0.69975 0.83753 0.51332 0.0
C324 C 0.70515 0.83138 0.49753 0.0
C325 C 0.70389 0.85136 0.50415 0.0
C326 C 0.72069 0.87927 0.43329 0.0
H327 H 0.71623 0.93615 0.44124 0.0
H328 H 0.71178 0.91332 0.46269 0.0
H329 H 0.7262 0.89649 0.39551 0.0
H330 H 0.71939 0.83502 0.4605 0.0
H331 H 0.72691 0.85924 0.44533 0.0
H332 H 0.71652 0.87918 0.52106 0.0
C333 C 0.72008 0.92007 0.4462 0.0
C334 C 0.72421 0.89284 0.42304 0.0
C335 C 0.7226 0.9331 0.43376 0.0
C336 C 0.71496 0.83942 0.47291 0.0
C337 C 0.71921 0.8533 0.46405 0.0
C338 C 0.71848 0.88275 0.49349 0.0
C339 C 0.72791 0.91559 0.43639 0.0
C340 C 0.72473 0.90143 0.44777 0.0
C341 C 0.71364 0.85942 0.47928 0.0
C342 C 0.71774 0.87402 0.46864 0.0
H343 H 0.74931 0.94427 0.38558 0.0
H344 H 0.74479 0.92141 0.40697 0.0
H345 H 0.72232 0.90273 0.50279 0.0
H346 H 0.69212 0.83157 0.53225 0.0
H347 H 0.69921 0.85561 0.51602 0.0
C348 C 0.24987 0.9266 0.35124 0.0
C349 C 0.25121 0.93198 0.31587 0.0
C350 C 0.24108 0.91239 0.35957 0.0
C351 C 0.22211 0.87791 0.32121 0.0
H352 H 0.19986 0.86745 0.40048 0.0
C353 C 0.18707 0.82062 0.37276 0.0
C354 C 0.17447 0.81665 0.38147 0.0
C355 C 0.19675 0.83462 0.36484 0.0
C356 C 0.20595 0.87021 0.37816 0.0
H357 H 0.24457 0.92659 0.26142 0.0
H358 H 0.22919 0.90182 0.27598 0.0
H359 H 0.21632 0.89198 0.38638 0.0
H360 H 0.16214 0.82427 0.38849 0.0
H361 H 0.17901 0.84866 0.37452 0.0
H362 H 0.21155 0.85613 0.31262 0.0
C363 C 0.23501 0.90857 0.29726 0.0
C364 C 0.21549 0.88425 0.37033 0.0
C365 C 0.24378 0.92279 0.28894 0.0
C366 C 0.17175 0.82698 0.38197 0.0
C367 C 0.18144 0.84097 0.37417 0.0
C368 C 0.2126 0.86385 0.32914 0.0
C369 C 0.23346 0.90324 0.3327 0.0
C370 C 0.22364 0.88826 0.34166 0.0
C371 C 0.19406 0.84496 0.3656 0.0
C372 C 0.20436 0.85985 0.35757 0.0
H373 H 0.25548 0.93339 0.37262 0.0
H374 H 0.24023 0.90857 0.38708 0.0
H375 H 0.22831 0.88066 0.29913 0.0
H376 H 0.18949 0.81293 0.3722 0.0
H377 H 0.20641 0.83738 0.35866 0.0
C378 C 0.86708 0.6669 0.74398 0.0
C379 C 0.87682 0.67065 0.72012 0.0
C380 C 0.863 0.67583 0.74819 0.0
C381 C 0.86264 0.70569 0.70425 0.0
H382 H 0.8573 0.71101 0.79901 0.0
C383 C 0.85622 0.7496 0.73477 0.0
C384 C 0.84695 0.74643 0.75962 0.0
C385 C 0.85934 0.73998 0.72915 0.0
C386 C 0.85858 0.70951 0.77233 0.0
H387 H 0.8899 0.6867 0.68186 0.0
H388 H 0.88288 0.70233 0.68947 0.0
H389 H 0.86375 0.69495 0.79077 0.0
H390 H 0.83353 0.73059 0.79766 0.0
H391 H 0.8389 0.71377 0.78762 0.0
H392 H 0.85754 0.72032 0.68585 0.0
C393 C 0.87827 0.69241 0.70462 0.0
C394 C 0.86228 0.7003 0.76761 0.0
C395 C 0.88235 0.68348 0.70042 0.0
C396 C 0.84076 0.73337 0.77842 0.0
C397 C 0.84389 0.72376 0.77282 0.0
C398 C 0.85894 0.7149 0.70898 0.0
C399 C 0.86857 0.68871 0.72862 0.0
C400 C 0.8644 0.69831 0.73353 0.0
C401 C 0.85327 0.72699 0.74827 0.0
C402 C 0.85691 0.71695 0.74309 0.0
H403 H 0.86259 0.65706 0.75947 0.0
H404 H 0.85539 0.67259 0.76657 0.0
H405 H 0.86399 0.70423 0.6776 0.0
H406 H 0.86119 0.75957 0.71989 0.0
H407 H 0.86673 0.74286 0.71035 0.0
C408 C 0.35046 0.22614 0.89626 0.0
C409 C 0.35399 0.23846 0.87587 0.0
C410 C 0.35535 0.21823 0.88898 0.0
C411 C 0.37142 0.21308 0.81876 0.0
H412 H 0.37933 0.19388 0.89619 0.0
C413 C 0.39912 0.18665 0.80132 0.0
C414 C 0.39311 0.17285 0.81557 0.0
C415 C 0.39461 0.19487 0.80905 0.0
C416 C 0.3771 0.19915 0.87433 0.0
H417 H 0.36555 0.25228 0.83215 0.0
H418 H 0.37444 0.23878 0.82019 0.0
H419 H 0.37109 0.20797 0.9089 0.0
H420 H 0.37785 0.15694 0.84967 0.0
H421 H 0.37015 0.17142 0.86368 0.0
H422 H 0.37777 0.20446 0.78436 0.0
C423 C 0.3676 0.23495 0.84118 0.0
C424 C 0.37231 0.20716 0.88153 0.0
C425 C 0.36256 0.24276 0.84816 0.0
C426 C 0.38266 0.16752 0.83823 0.0
C427 C 0.37829 0.17582 0.84639 0.0
C428 C 0.37639 0.20522 0.81164 0.0
C429 C 0.36403 0.22255 0.86143 0.0
C430 C 0.36933 0.21417 0.85382 0.0
C431 C 0.38415 0.18952 0.83163 0.0
C432 C 0.3792 0.19812 0.83933 0.0
H433 H 0.34379 0.22251 0.91766 0.0
H434 H 0.35216 0.20861 0.90472 0.0
H435 H 0.36902 0.21809 0.79666 0.0
H436 H 0.40718 0.19104 0.78372 0.0
H437 H 0.39935 0.20544 0.79754 0.0
C438 C 0.96294 0.26519 0.69316 0.0
C439 C 0.97153 0.26081 0.70268 0.0
C440 C 0.94982 0.25557 0.6832 0.0
C441 C 0.92643 0.21876 0.65813 0.0
H442 H 0.90071 0.22385 0.69364 0.0
C443 C 0.87176 0.1747 0.67465 0.0
C444 C 0.86237 0.1779 0.66391 0.0
C445 C 0.88516 0.18512 0.67442 0.0
C446 C 0.90777 0.22238 0.68316 0.0
H447 H 0.97317 0.24294 0.70847 0.0
H448 H 0.95025 0.22611 0.69234 0.0
H449 H 0.92398 0.24155 0.70227 0.0
H450 H 0.85969 0.19447 0.64386 0.0
H451 H 0.88312 0.2127 0.64403 0.0
H452 H 0.91007 0.19923 0.64046 0.0
C453 C 0.95365 0.23701 0.69163 0.0
C454 C 0.92114 0.23255 0.68795 0.0
C455 C 0.96681 0.24666 0.70111 0.0
C456 C 0.86668 0.19167 0.65229 0.0
C457 C 0.88008 0.20212 0.65252 0.0
C458 C 0.91304 0.20849 0.65377 0.0
C459 C 0.94492 0.24129 0.68303 0.0
C460 C 0.93067 0.23084 0.67578 0.0
C461 C 0.88944 0.19896 0.66388 0.0
C462 C 0.9036 0.21016 0.66648 0.0
H463 H 0.96632 0.27605 0.6938 0.0
H464 H 0.94349 0.25932 0.676 0.0
H465 H 0.93344 0.21717 0.64779 0.0
H466 H 0.86875 0.16418 0.68367 0.0
H467 H 0.89217 0.18241 0.68358 0.0
C468 C 0.33103 0.00793 0.3068 0.0
C469 C 0.32066 0.99625 0.28986 0.0
C470 C 0.34384 0.01468 0.29546 0.0
C471 C 0.36526 0.01037 0.24272 0.0
H472 H 0.38535 0.05072 0.23245 0.0
C473 C 0.41271 0.0423 0.16464 0.0
C474 C 0.42313 0.05481 0.17839 0.0
C475 C 0.40044 0.03497 0.17974 0.0
C476 C 0.37996 0.03947 0.2356 0.0
H477 H 0.31555 0.98248 0.24773 0.0
H478 H 0.3379 0.99429 0.22772 0.0
H479 H 0.36367 0.0381 0.25699 0.0
H480 H 0.42884 0.06939 0.21899 0.0
H481 H 0.40748 0.05652 0.24554 0.0
H482 H 0.38153 0.01173 0.22115 0.0
C483 C 0.33618 0.99811 0.25018 0.0
C484 C 0.36752 0.03223 0.2497 0.0
C485 C 0.32337 0.9914 0.26148 0.0
C486 C 0.42101 0.05981 0.20763 0.0
C487 C 0.40874 0.05247 0.22276 0.0
C488 C 0.37772 0.01761 0.22869 0.0
C489 C 0.34654 0.00992 0.2668 0.0
C490 C 0.35999 0.01759 0.25324 0.0
C491 C 0.3983 0.03996 0.20898 0.0
C492 C 0.38518 0.03225 0.22476 0.0
H493 H 0.3292 0.01225 0.32784 0.0
H494 H 0.35161 0.02372 0.3089 0.0
H495 H 0.35977 0.9991 0.24554 0.0
H496 H 0.41401 0.03818 0.14207 0.0
H497 H 0.39256 0.02548 0.16813 0.0
C498 C 0.09572 0.43283 0.36985 0.0
C499 C 0.10248 0.44209 0.39704 0.0
C500 C 0.08803 0.435 0.34399 0.0
C501 C 0.08311 0.46247 0.30371 0.0
H502 H 0.04922 0.43129 0.27209 0.0
C503 C 0.04417 0.46944 0.22674 0.0
C504 C 0.03708 0.46095 0.19839 0.0
C505 C 0.05272 0.46722 0.2487 0.0
C506 C 0.05874 0.44008 0.28029 0.0
H507 H 0.10632 0.46079 0.41864 0.0
H508 H 0.09276 0.46442 0.37402 0.0
H509 H 0.06291 0.42712 0.3152 0.0
H510 H 0.03296 0.44311 0.17163 0.0
H511 H 0.0481 0.43937 0.2096 0.0
H512 H 0.07883 0.47545 0.26927 0.0
C513 C 0.09359 0.45563 0.37221 0.0
C514 C 0.06659 0.4377 0.305 0.0
C515 C 0.10129 0.45349 0.39798 0.0
C516 C 0.03862 0.45011 0.19253 0.0
C517 C 0.04712 0.44783 0.21465 0.0
C518 C 0.07525 0.46485 0.27913 0.0
C519 C 0.08692 0.44647 0.34479 0.0
C520 C 0.07881 0.44888 0.3173 0.0
C521 C 0.05424 0.45635 0.24303 0.0
C522 C 0.06292 0.4537 0.26743 0.0
H523 H 0.09647 0.42397 0.3683 0.0
H524 H 0.08313 0.42782 0.32305 0.0
H525 H 0.09259 0.4713 0.31203 0.0
H526 H 0.0431 0.47781 0.23202 0.0
H527 H 0.0579 0.47383 0.27066 0.0
C528 C 0.71271 0.74468 0.36932 0.0
C529 C 0.70851 0.73689 0.40182 0.0
C530 C 0.71014 0.73803 0.33793 0.0
C531 C 0.68671 0.70433 0.29964 0.0
H532 H 0.71046 0.72026 0.22211 0.0
C533 C 0.67218 0.67814 0.16689 0.0
C534 C 0.67468 0.68703 0.13628 0.0
C535 C 0.67778 0.6836 0.19984 0.0
C536 C 0.7037 0.71572 0.24348 0.0
H537 H 0.69889 0.71603 0.42702 0.0
H538 H 0.69454 0.70445 0.37227 0.0
H539 H 0.71778 0.73093 0.27919 0.0
H540 H 0.68544 0.70863 0.11613 0.0
H541 H 0.69506 0.71816 0.17363 0.0
H542 H 0.67254 0.68932 0.26386 0.0
C543 C 0.69961 0.71569 0.371 0.0
C544 C 0.70789 0.72183 0.27617 0.0
C545 C 0.70218 0.72234 0.40241 0.0
C546 C 0.68329 0.70149 0.13917 0.0
C547 C 0.68888 0.70695 0.17214 0.0
C548 C 0.68253 0.69823 0.26701 0.0
C549 C 0.70333 0.72343 0.3383 0.0
C550 C 0.69938 0.71631 0.30449 0.0
C551 C 0.686 0.69808 0.20296 0.0
C552 C 0.69091 0.70396 0.23838 0.0
H553 H 0.71764 0.7559 0.3679 0.0
H554 H 0.71303 0.74431 0.31319 0.0
H555 H 0.67982 0.69994 0.32066 0.0
H556 H 0.66568 0.66695 0.16557 0.0
H557 H 0.67553 0.67648 0.22298 0.0
C558 C 0.04963 0.43639 0.02411 0.0
C559 C 0.05047 0.4332 0.06058 0.0
C560 C 0.05222 0.43015 0.99923 0.0
C561 C 0.05182 0.39866 0.9887 0.0
H562 H 0.06907 0.41835 0.90147 0.0
C563 C 0.05751 0.37055 0.88158 0.0
C564 C 0.05421 0.37322 0.84663 0.0
C565 C 0.05926 0.37892 0.90854 0.0
C566 C 0.06418 0.4127 0.92563 0.0
H567 H 0.05511 0.4213 0.09954 0.0
H568 H 0.05968 0.41044 0.05603 0.0
H569 H 0.06819 0.43117 0.94745 0.0
H570 H 0.05066 0.38711 0.81238 0.0
H571 H 0.05354 0.40158 0.85943 0.0
H572 H 0.0475 0.38015 0.96666 0.0
C573 C 0.05687 0.41765 0.04672 0.0
C574 C 0.06368 0.42004 0.95197 0.0
C575 C 0.05431 0.42393 0.07164 0.0
C576 C 0.05318 0.38475 0.83902 0.0
C577 C 0.05491 0.39311 0.86599 0.0
C578 C 0.0523 0.39133 0.96238 0.0
C579 C 0.05569 0.42056 0.01021 0.0
C580 C 0.05731 0.41306 0.98357 0.0
C581 C 0.05775 0.39015 0.90118 0.0
C582 C 0.05831 0.39822 0.9303 0.0
H583 H 0.04672 0.4435 0.01466 0.0
H584 H 0.05106 0.43249 0.97132 0.0
H585 H 0.04667 0.39294 0.0125 0.0
H586 H 0.05848 0.36181 0.88832 0.0
H587 H 0.06165 0.3765 0.93527 0.0
C588 C 0.74506 0.72337 0.86801 0.0
C589 C 0.74649 0.71968 0.83533 0.0
C590 C 0.73287 0.71604 0.88355 0.0
C591 C 0.70072 0.68251 0.88338 0.0
H592 H 0.68915 0.70301 0.92558 0.0
C593 C 0.64784 0.65648 0.92919 0.0
C594 C 0.64629 0.66059 0.96103 0.0
C595 C 0.66013 0.66349 0.91427 0.0
C596 C 0.6923 0.69711 0.91433 0.0
H597 H 0.73623 0.70533 0.79341 0.0
H598 H 0.71494 0.69259 0.82049 0.0
H599 H 0.71046 0.7156 0.89878 0.0
H600 H 0.65629 0.67574 0.00115 0.0
H601 H 0.67781 0.68763 0.976 0.0
H602 H 0.68257 0.66401 0.89899 0.0
C603 C 0.72328 0.70108 0.83423 0.0
C604 C 0.70451 0.70433 0.89893 0.0
C605 C 0.73547 0.70844 0.81862 0.0
C606 C 0.65725 0.67196 0.97741 0.0
C607 C 0.66954 0.67897 0.96254 0.0
C608 C 0.68852 0.67528 0.89886 0.0
C609 C 0.72184 0.70482 0.86683 0.0
C610 C 0.70886 0.69711 0.88326 0.0
C611 C 0.67113 0.67484 0.93075 0.0
C612 C 0.68416 0.6825 0.91451 0.0
H613 H 0.75336 0.73195 0.88164 0.0
H614 H 0.73212 0.71907 0.90889 0.0
H615 H 0.70387 0.67663 0.87196 0.0
H616 H 0.63953 0.64782 0.91579 0.0
H617 H 0.66096 0.66018 0.88948 0.0
C618 C 0.47092 0.1045 0.08632 0.0
C619 C 0.4806 0.10245 0.07734 0.0
C620 C 0.46343 0.1067 0.05982 0.0
C621 C 0.45306 0.10244 0.96492 0.0
H622 H 0.44882 0.13284 0.97481 0.0
C623 C 0.43395 0.12411 0.84911 0.0
C624 C 0.42568 0.12826 0.8572 0.0
C625 C 0.44004 0.12021 0.87623 0.0
C626 C 0.44972 0.12417 0.97181 0.0
H627 H 0.49003 0.10108 0.03371 0.0
H628 H 0.47696 0.10492 0.98742 0.0
H629 H 0.46019 0.12703 0.02191 0.0
H630 H 0.41722 0.13153 0.89995 0.0
H631 H 0.42762 0.1245 0.94719 0.0
H632 H 0.44259 0.09957 0.91481 0.0
C633 C 0.47504 0.10465 0.0149 0.0
C634 C 0.45625 0.12085 0.99884 0.0
C635 C 0.48257 0.10254 0.04139 0.0
C636 C 0.42359 0.12841 0.8929 0.0
C637 C 0.4296 0.12444 0.91998 0.0
C638 C 0.44646 0.10571 0.93793 0.0
C639 C 0.46547 0.10689 0.02382 0.0
C640 C 0.45806 0.11 0.99564 0.0
C641 C 0.43798 0.12038 0.91202 0.0
C642 C 0.44476 0.11666 0.94097 0.0
H643 H 0.46946 0.10493 0.11372 0.0
H644 H 0.45611 0.10836 0.06752 0.0
H645 H 0.45418 0.09392 0.96187 0.0
H646 H 0.43608 0.1243 0.82193 0.0
H647 H 0.44664 0.11742 0.86913 0.0
C648 C 0.73508 0.08008 0.75408 0.0
C649 C 0.73453 0.07406 0.72296 0.0
C650 C 0.72451 0.07336 0.77639 0.0
C651 C 0.68892 0.04672 0.77846 0.0
H652 H 0.69588 0.04644 0.8802 0.0
C653 C 0.64765 0.01377 0.87745 0.0
C654 C 0.64854 0.01994 0.90863 0.0
C655 C 0.65807 0.02029 0.8546 0.0
C656 C 0.69377 0.04656 0.85188 0.0
H657 H 0.72237 0.05626 0.69083 0.0
H658 H 0.70392 0.04449 0.72998 0.0
H659 H 0.71413 0.05789 0.84062 0.0
H660 H 0.66107 0.03785 0.94015 0.0
H661 H 0.6792 0.04928 0.90012 0.0
H662 H 0.66855 0.0354 0.78976 0.0
C663 C 0.71251 0.05448 0.73691 0.0
C664 C 0.70423 0.05311 0.82918 0.0
C665 C 0.72311 0.0612 0.71456 0.0
C666 C 0.66008 0.03278 0.91642 0.0
C667 C 0.67051 0.0393 0.89357 0.0
C668 C 0.67844 0.04016 0.80118 0.0
C669 C 0.71311 0.06047 0.76815 0.0
C670 C 0.70194 0.05331 0.7922 0.0
C671 C 0.66963 0.03312 0.86239 0.0
C672 C 0.68075 0.04003 0.83817 0.0
H673 H 0.7437 0.09 0.7613 0.0
H674 H 0.72522 0.07837 0.79996 0.0
H675 H 0.68682 0.04685 0.75013 0.0
H676 H 0.63891 0.00386 0.87068 0.0
H677 H 0.65714 0.01516 0.83104 0.0
C678 C 0.92901 0.6486 0.79018 0.0
C679 C 0.93093 0.65832 0.762 0.0
C680 C 0.93944 0.65097 0.8136 0.0
C681 C 0.97179 0.67879 0.8484 0.0
H682 H 0.97606 0.64829 0.87722 0.0
C683 C 0.01723 0.68616 0.93104 0.0
C684 C 0.01515 0.67553 0.95665 0.0
C685 C 0.00696 0.68448 0.90785 0.0
C686 C 0.97491 0.65688 0.86986 0.0
H687 H 0.94513 0.67848 0.73739 0.0
H688 H 0.96345 0.68251 0.77787 0.0
H689 H 0.95831 0.64454 0.83515 0.0
H690 H 0.00052 0.65502 0.97881 0.0
H691 H 0.98259 0.65221 0.93888 0.0
H692 H 0.98836 0.69111 0.88331 0.0
C693 C 0.95389 0.673 0.78166 0.0
C694 C 0.96475 0.65473 0.84565 0.0
C695 C 0.94345 0.67058 0.75809 0.0
C696 C 0.00249 0.66337 0.95924 0.0
C697 C 0.99222 0.66172 0.93615 0.0
C698 C 0.98195 0.68093 0.87275 0.0
C699 C 0.952 0.66319 0.80961 0.0
C700 C 0.96303 0.66564 0.83473 0.0
C701 C 0.99437 0.67215 0.9098 0.0
C702 C 0.9836 0.66998 0.88389 0.0
H703 H 0.91944 0.6391 0.79403 0.0
H704 H 0.93761 0.64331 0.83518 0.0
H705 H 0.97062 0.68736 0.84083 0.0
H706 H 0.02688 0.69565 0.92828 0.0
H707 H 0.00899 0.69268 0.8877 0.0
C708 C 0.45713 0.39244 0.04775 0.0
C709 C 0.45622 0.40273 0.06138 0.0
C710 C 0.44657 0.38195 0.02838 0.0
C711 C 0.41059 0.36439 0.01171 0.0
H712 H 0.41689 0.3491 0.93527 0.0
C713 C 0.36868 0.32088 0.92622 0.0
C714 C 0.36982 0.30953 0.92368 0.0
C715 C 0.3792 0.33323 0.94008 0.0
C716 C 0.41499 0.35328 0.95657 0.0
H717 H 0.44387 0.41064 0.06357 0.0
H718 H 0.42542 0.39241 0.02951 0.0
H719 H 0.43535 0.36904 0.96464 0.0
H720 H 0.38282 0.30222 0.93312 0.0
H721 H 0.40121 0.3238 0.95675 0.0
H722 H 0.39018 0.34858 0.00331 0.0
C723 C 0.43413 0.39214 0.03476 0.0
C724 C 0.42556 0.36465 0.97356 0.0
C725 C 0.44468 0.40257 0.05441 0.0
C726 C 0.38169 0.31082 0.93473 0.0
C727 C 0.39224 0.32319 0.94803 0.0
C728 C 0.39999 0.3531 0.99441 0.0
C729 C 0.4349 0.38162 0.0217 0.0
C730 C 0.42353 0.3702 0.00182 0.0
C731 C 0.39107 0.33449 0.95113 0.0
C732 C 0.40212 0.34728 0.96711 0.0
H733 H 0.46593 0.39231 0.05277 0.0
H734 H 0.44747 0.37392 0.01932 0.0
H735 H 0.40864 0.36825 0.03363 0.0
H736 H 0.35956 0.32008 0.91857 0.0
H737 H 0.37806 0.3418 0.94222 0.0
C738 C 0.1031 0.74912 0.30307 0.0
C739 C 0.11288 0.74791 0.32195 0.0
C740 C 0.09647 0.74133 0.27337 0.0
C741 C 0.08786 0.70989 0.23127 0.0
H742 H 0.08954 0.72993 0.14151 0.0
C743 C 0.08441 0.68795 0.09945 0.0
C744 C 0.07849 0.69066 0.06917 0.0
C745 C 0.08602 0.694 0.13113 0.0
C746 C 0.0887 0.72409 0.16641 0.0
H747 H 0.12324 0.73749 0.32515 0.0
H748 H 0.11148 0.7237 0.27395 0.0
H749 H 0.09685 0.74218 0.19635 0.0
H750 H 0.06977 0.7021 0.04851 0.0
H751 H 0.07224 0.7124 0.10432 0.0
H752 H 0.07986 0.69184 0.2017 0.0
C753 C 0.10895 0.73066 0.28196 0.0
C754 C 0.09292 0.73113 0.19779 0.0
C755 C 0.11573 0.7386 0.31111 0.0
C756 C 0.07408 0.69951 0.07147 0.0
C757 C 0.07567 0.70558 0.10338 0.0
C758 C 0.08351 0.70282 0.20006 0.0
C759 C 0.09935 0.73203 0.26259 0.0
C760 C 0.09292 0.72418 0.23033 0.0
C761 C 0.08173 0.70293 0.13356 0.0
C762 C 0.08431 0.70994 0.16707 0.0
H763 H 0.10089 0.7564 0.31051 0.0
H764 H 0.08914 0.7426 0.25877 0.0
H765 H 0.08759 0.70425 0.25612 0.0
H766 H 0.08797 0.68122 0.09867 0.0
H767 H 0.091 0.69194 0.15347 0.0
C768 C 0.33454 0.36339 0.36179 0.0
C769 C 0.3219 0.35177 0.35415 0.0
C770 C 0.34481 0.36773 0.33957 0.0
C771 C 0.35138 0.36525 0.24835 0.0
H772 H 0.38622 0.3779 0.28877 0.0
C773 C 0.39409 0.37715 0.16439 0.0
C774 C 0.40652 0.38905 0.17219 0.0
C775 C 0.38363 0.37251 0.1862 0.0
C776 C 0.37658 0.37453 0.27706 0.0
H777 H 0.31019 0.3355 0.31738 0.0
H778 H 0.32815 0.34296 0.27891 0.0
H779 H 0.36828 0.36984 0.32785 0.0
H780 H 0.41766 0.40552 0.20878 0.0
H781 H 0.39941 0.39749 0.24657 0.0
H782 H 0.35971 0.36992 0.19753 0.0
C783 C 0.33007 0.34885 0.30177 0.0
C784 C 0.3663 0.36992 0.29946 0.0
C785 C 0.31979 0.34452 0.32397 0.0
C786 C 0.40822 0.39628 0.20205 0.0
C787 C 0.39778 0.39163 0.22387 0.0
C788 C 0.36167 0.36984 0.22594 0.0
C789 C 0.34269 0.36054 0.30924 0.0
C790 C 0.35359 0.36526 0.28538 0.0
C791 C 0.38539 0.37965 0.21633 0.0
C792 C 0.37439 0.37459 0.24005 0.0
H793 H 0.33649 0.36924 0.38476 0.0
H794 H 0.35437 0.37688 0.34585 0.0
H795 H 0.34175 0.36192 0.23662 0.0
H796 H 0.39246 0.37133 0.14161 0.0
H797 H 0.37422 0.36317 0.17986 0.0
C798 C 0.62563 0.99751 0.06866 0.0
C799 C 0.61477 0.99659 0.08162 0.0
C800 C 0.63662 0.00089 0.09094 0.0
C801 C 0.65306 0.01615 0.1768 0.0
H802 H 0.66943 0.99578 0.16993 0.0
C803 C 0.68982 0.0158 0.28381 0.0
C804 C 0.70052 0.01603 0.27208 0.0
C805 C 0.67997 0.01466 0.25968 0.0
C806 C 0.66509 0.0017 0.17189 0.0
H807 H 0.60678 0.99823 0.1282 0.0
H808 H 0.62584 0.00388 0.16726 0.0
H809 H 0.65109 0.99137 0.12946 0.0
H810 H 0.7095 0.01577 0.22563 0.0
H811 H 0.69239 0.01387 0.18366 0.0
H812 H 0.66698 0.0263 0.21971 0.0
C813 C 0.62603 0.00234 0.13969 0.0
C814 C 0.65458 0.99918 0.14864 0.0
C815 C 0.61506 0.99898 0.11739 0.0
C816 C 0.70135 0.01553 0.23562 0.0
C817 C 0.6915 0.01436 0.21155 0.0
C818 C 0.66357 0.01864 0.20015 0.0
C819 C 0.63694 0.0033 0.12677 0.0
C820 C 0.6484 0.00634 0.15087 0.0
C821 C 0.6806 0.01369 0.22334 0.0
C822 C 0.66968 0.01141 0.19801 0.0
H823 H 0.62551 0.99519 0.04166 0.0
H824 H 0.64486 0.00158 0.08007 0.0
H825 H 0.64864 0.02198 0.17892 0.0
H826 H 0.68888 0.01617 0.31172 0.0
H827 H 0.67164 0.01407 0.26965 0.0
C828 C 0.12004 0.40831 0.52804 0.0
C829 C 0.13188 0.41795 0.54566 0.0
C830 C 0.10917 0.39816 0.54727 0.0
C831 C 0.10093 0.37885 0.63411 0.0
H832 H 0.06545 0.36846 0.60678 0.0
C833 C 0.05725 0.33971 0.72014 0.0
C834 C 0.04542 0.32999 0.70267 0.0
C835 C 0.06755 0.35083 0.70106 0.0
C836 C 0.07528 0.37114 0.61453 0.0
H837 H 0.1416 0.42455 0.59725 0.0
H838 H 0.12264 0.40687 0.63081 0.0
H839 H 0.08382 0.38736 0.5733 0.0
H840 H 0.0352 0.32409 0.65138 0.0
H841 H 0.05329 0.34337 0.61787 0.0
H842 H 0.09246 0.36256 0.67493 0.0
C843 C 0.12176 0.40712 0.60212 0.0
C844 C 0.0858 0.38198 0.59538 0.0
C845 C 0.1326 0.41728 0.5829 0.0
C846 C 0.04417 0.3315 0.66561 0.0
C847 C 0.05449 0.34261 0.64646 0.0
C848 C 0.09043 0.368 0.65313 0.0
C849 C 0.10996 0.39734 0.58454 0.0
C850 C 0.09875 0.38597 0.60502 0.0
C851 C 0.06633 0.3524 0.66397 0.0
C852 C 0.07747 0.36401 0.64364 0.0
H853 H 0.1193 0.40817 0.49947 0.0
H854 H 0.10029 0.39062 0.53295 0.0
H855 H 0.11076 0.38149 0.64179 0.0
H856 H 0.05874 0.33855 0.74845 0.0
H857 H 0.07649 0.3582 0.71545 0.0
C858 C 0.78851 0.76774 0.74965 0.0
C859 C 0.79858 0.76808 0.73353 0.0
C860 C 0.77862 0.76805 0.72904 0.0
C861 C 0.76301 0.76283 0.63855 0.0
H862 H 0.75202 0.78602 0.66774 0.0
C863 C 0.73094 0.77736 0.54851 0.0
C864 C 0.72105 0.77733 0.56474 0.0
C865 C 0.74001 0.77548 0.56897 0.0
C866 C 0.75485 0.77936 0.65944 0.0
H867 H 0.80634 0.76929 0.68321 0.0
H868 H 0.78918 0.77008 0.64711 0.0
H869 H 0.76848 0.78404 0.70369 0.0
H870 H 0.71291 0.77532 0.61512 0.0
H871 H 0.72867 0.772 0.65077 0.0
H872 H 0.74944 0.7583 0.59401 0.0
C873 C 0.78873 0.76922 0.6757 0.0
C874 C 0.76428 0.77821 0.68008 0.0
C875 C 0.79862 0.76887 0.69635 0.0
C876 C 0.72043 0.7754 0.60183 0.0
C877 C 0.72948 0.77355 0.62226 0.0
C878 C 0.75358 0.76401 0.61782 0.0
C879 C 0.77865 0.7689 0.69181 0.0
C880 C 0.76848 0.76992 0.66993 0.0
C881 C 0.73944 0.77365 0.60611 0.0
C882 C 0.74939 0.77228 0.62807 0.0
H883 H 0.7885 0.76773 0.77814 0.0
H884 H 0.77097 0.76773 0.74233 0.0
H885 H 0.7659 0.75623 0.6302 0.0
H886 H 0.73201 0.77933 0.52019 0.0
H887 H 0.74771 0.77588 0.55578 0.0
C888 C 0.34417 0.01502 0.49094 0.0
C889 C 0.35038 0.01894 0.4585 0.0
C890 C 0.35133 0.02114 0.52202 0.0
C891 C 0.38125 0.05309 0.55247 0.0
H892 H 0.37351 0.0322 0.64344 0.0
C893 C 0.40734 0.08012 0.68184 0.0
C894 C 0.39901 0.07664 0.70973 0.0
C895 C 0.40277 0.0721 0.65217 0.0
C896 C 0.37575 0.03818 0.61825 0.0
H897 H 0.36909 0.03209 0.43349 0.0
H898 H 0.3816 0.04274 0.48785 0.0
H899 H 0.36297 0.01995 0.58931 0.0
H900 H 0.37955 0.06163 0.72904 0.0
H901 H 0.37158 0.04776 0.67729 0.0
H902 H 0.39376 0.07135 0.58137 0.0
C903 C 0.37115 0.03503 0.48912 0.0
C904 C 0.36971 0.03117 0.58724 0.0
C905 C 0.36399 0.02888 0.458 0.0
C906 C 0.38622 0.06463 0.70801 0.0
C907 C 0.38166 0.05661 0.67839 0.0
C908 C 0.38728 0.0601 0.58346 0.0
C909 C 0.36487 0.03134 0.52142 0.0
C910 C 0.37222 0.03857 0.55405 0.0
C911 C 0.38979 0.06042 0.64979 0.0
C912 C 0.38443 0.05276 0.61676 0.0
H913 H 0.33371 0.00738 0.4923 0.0
H914 H 0.34615 0.01819 0.54633 0.0
H915 H 0.38326 0.05914 0.52741 0.0
H916 H 0.41727 0.08927 0.68242 0.0
H917 H 0.40934 0.07519 0.63082 0.0
C918 C 0.74028 0.02229 0.43558 0.0
C919 C 0.74838 0.01817 0.4257 0.0
C920 C 0.74532 0.03348 0.45721 0.0
C921 C 0.7763 0.06494 0.48586 0.0
H922 H 0.7573 0.06116 0.56724 0.0
C923 C 0.80069 0.10419 0.59476 0.0
C924 C 0.79313 0.10786 0.61044 0.0
C925 C 0.79481 0.09339 0.57168 0.0
C926 C 0.76265 0.06248 0.54434 0.0
H927 H 0.76806 0.02244 0.43086 0.0
H928 H 0.77686 0.042 0.46836 0.0
H929 H 0.74771 0.04218 0.52729 0.0
H930 H 0.77355 0.10346 0.61305 0.0
H931 H 0.76324 0.08459 0.57265 0.0
H932 H 0.79119 0.08522 0.50253 0.0
C933 C 0.76665 0.03668 0.45919 0.0
C934 C 0.75715 0.05159 0.52149 0.0
C935 C 0.76159 0.02543 0.43791 0.0
C936 C 0.77957 0.10058 0.60228 0.0
C937 C 0.77367 0.08981 0.57897 0.0
C938 C 0.78175 0.07585 0.50849 0.0
C939 C 0.75857 0.04082 0.46913 0.0
C940 C 0.764 0.05264 0.49227 0.0
C941 C 0.78124 0.08609 0.56332 0.0
C942 C 0.77508 0.0747 0.53831 0.0
H943 H 0.72999 0.01667 0.42739 0.0
H944 H 0.73886 0.03645 0.46446 0.0
H945 H 0.78171 0.06614 0.46321 0.0
H946 H 0.81117 0.10959 0.60063 0.0
H947 H 0.80092 0.09066 0.56069 0.0
C948 C 0.06545 0.75186 0.47563 0.0
C949 C 0.06463 0.74555 0.44479 0.0
C950 C 0.05443 0.74647 0.49573 0.0
C951 C 0.02264 0.71393 0.51442 0.0
H952 H 0.01578 0.73807 0.5586 0.0
C953 C 0.97623 0.69224 0.59322 0.0
C954 C 0.97785 0.69839 0.6251 0.0
C955 C 0.98647 0.69821 0.56991 0.0
C956 C 0.01764 0.7312 0.54672 0.0
H957 H 0.05147 0.72883 0.41036 0.0
H958 H 0.03219 0.71948 0.44533 0.0
H959 H 0.03413 0.74823 0.51955 0.0
H960 H 0.99152 0.71569 0.6574 0.0
H961 H 0.00945 0.72602 0.61691 0.0
H962 H 0.00625 0.69691 0.54182 0.0
C963 C 0.04142 0.72849 0.45421 0.0
C964 C 0.02814 0.73701 0.5243 0.0
C965 C 0.05246 0.7339 0.43406 0.0
C966 C 0.98993 0.71069 0.63305 0.0
C967 C 0.00019 0.71667 0.60972 0.0
C968 C 0.01215 0.70812 0.53683 0.0
C969 C 0.04232 0.73463 0.48549 0.0
C970 C 0.03081 0.72845 0.50805 0.0
C971 C -0.00141 0.71048 0.57791 0.0
C972 C 0.00956 0.71668 0.55341 0.0
H973 H 0.07468 0.76085 0.48468 0.0
H974 H 0.0555 0.75135 0.51988 0.0
H975 H 0.02455 0.70705 0.50281 0.0
H976 H 0.96702 0.68279 0.58618 0.0
H977 H 0.98485 0.69328 0.54543 0.0
C978 C 0.28031 0.33931 0.55028 0.0
C979 C 0.2816 0.3369 0.51579 0.0
C980 C 0.28819 0.33873 0.57852 0.0
C981 C 0.30783 0.32381 0.60577 0.0
H982 H 0.32228 0.35044 0.67882 0.0
C983 C 0.34293 0.32395 0.71761 0.0
C984 C 0.34054 0.32522 0.75211 0.0
C985 C 0.33666 0.32651 0.68821 0.0
C986 C 0.31823 0.34287 0.65877 0.0
H987 H 0.29175 0.33132 0.48422 0.0
H988 H 0.30579 0.33073 0.53317 0.0
H989 H 0.30948 0.35262 0.62847 0.0
H990 H 0.32999 0.33063 0.78269 0.0
H991 H 0.31895 0.33498 0.73137 0.0
H992 H 0.31644 0.31397 0.63612 0.0
C993 C 0.29871 0.33314 0.53841 0.0
C994 C 0.31089 0.3441 0.62994 0.0
C995 C 0.29084 0.33373 0.51018 0.0
C996 C 0.33205 0.32956 0.75648 0.0
C997 C 0.32577 0.33211 0.72703 0.0
C998 C 0.31516 0.32258 0.63455 0.0
C999 C 0.29747 0.33561 0.57294 0.0
C1000 C 0.30557 0.33456 0.60316 0.0
C1001 C 0.32783 0.33039 0.69258 0.0
C1002 C 0.32041 0.33206 0.66146 0.0
H1003 H 0.2732 0.34168 0.55545 0.0
H1004 H 0.28683 0.34047 0.60486 0.0
H1005 H 0.30368 0.31613 0.58596 0.0
H1006 H 0.34947 0.32073 0.71326 0.0
H1007 H 0.33864 0.32533 0.662 0.0
loop_
_geom_bond_atom_site_label_1
_geom_bond_atom_site_label_2
_geom_bond_distance
_geom_bond_site_symmetry_2
_ccdc_geom_bond_type
O0 Cd1 2.300 . S
O0 C7 1.275 . S
Cd1 O0 2.300 . S
Cd1 O9 2.381 . S
Cd1 O10 2.378 . S
O2 Cd3 2.385 . S
O2 C7 1.255 . S
Cd3 O2 2.385 . S
Cd3 O4 2.317 . S
O4 Cd3 2.317 . S
O4 C5 1.232 . S
C5 O4 1.232 . S
C5 O6 1.218 . S
O6 C5 1.218 . S
C7 O0 1.275 . S
C7 O2 1.255 . S
C8 O9 1.258 . S
C8 O10 1.256 . S
O9 Cd1 2.381 . S
O9 C8 1.258 . S
O10 Cd1 2.378 . S
O10 C8 1.256 . S
O11 Cd12 2.300 . S
O11 C18 1.275 . S
Cd12 O11 2.300 . S
Cd12 O20 2.381 . S
Cd12 O21 2.378 . S
O13 Cd14 2.385 . S
O13 C18 1.255 . S
Cd14 O13 2.385 . S
Cd14 O15 2.317 . S
O15 Cd14 2.317 . S
O15 C16 1.232 . S
C16 O15 1.232 . S
C16 O17 1.218 . S
O17 C16 1.218 . S
C18 O11 1.275 . S
C18 O13 1.255 . S
C19 O20 1.258 . S
C19 O21 1.256 . S
O20 Cd12 2.381 . S
O20 C19 1.258 . S
O21 Cd12 2.378 . S
O21 C19 1.256 . S
O22 Cd23 2.300 . S
O22 C29 1.275 . S
Cd23 O22 2.300 . S
Cd23 O31 2.381 . S
Cd23 O32 2.378 . S
O24 Cd25 2.385 . S
O24 C29 1.255 . S
Cd25 O24 2.385 . S
Cd25 O26 2.317 . S
O26 Cd25 2.317 . S
O26 C27 1.232 . S
C27 O26 1.232 . S
C27 O28 1.218 . S
O28 C27 1.218 . S
C29 O22 1.275 . S
C29 O24 1.255 . S
C30 O31 1.258 . S
C30 O32 1.256 . S
O31 Cd23 2.381 . S
O31 C30 1.258 . S
O32 Cd23 2.378 . S
O32 C30 1.256 . S
O33 Cd34 2.300 . S
O33 C40 1.275 . S
Cd34 O33 2.300 . S
Cd34 O42 2.381 . S
Cd34 O43 2.378 . S
O35 Cd36 2.385 . S
O35 C40 1.255 . S
Cd36 O35 2.385 . S
Cd36 O37 2.317 1_554 S
O37 Cd36 2.317 1_556 S
O37 C38 1.232 . S
C38 O37 1.232 . S
C38 O39 1.218 . S
O39 C38 1.218 . S
C40 O33 1.275 . S
C40 O35 1.255 . S
C41 O42 1.258 . S
C41 O43 1.256 . S
O42 Cd34 2.381 . S
O42 C41 1.258 . S
O43 Cd34 2.378 . S
O43 C41 1.256 . S
O44 Cd45 2.300 . S
O44 C51 1.275 . S
Cd45 O44 2.300 . S
Cd45 O53 2.381 . S
Cd45 O54 2.378 . S
O46 Cd47 2.385 . S
O46 C51 1.255 . S
Cd47 O46 2.385 . S
Cd47 O48 2.317 . S
O48 Cd47 2.317 . S
O48 C49 1.232 . S
C49 O48 1.232 . S
C49 O50 1.218 . S
O50 C49 1.218 . S
C51 O44 1.275 . S
C51 O46 1.255 . S
C52 O53 1.258 . S
C52 O54 1.256 . S
O53 Cd45 2.381 . S
O53 C52 1.258 . S
O54 Cd45 2.378 . S
O54 C52 1.256 . S
O55 Cd56 2.300 . S
O55 C62 1.275 . S
Cd56 O55 2.300 . S
Cd56 O64 2.381 . S
Cd56 O65 2.378 . S
O57 Cd58 2.385 . S
O57 C62 1.255 . S
Cd58 O57 2.385 . S
Cd58 O59 2.317 . S
O59 Cd58 2.317 . S
O59 C60 1.232 . S
C60 O59 1.232 . S
C60 O61 1.218 . S
O61 C60 1.218 . S
C62 O55 1.275 . S
C62 O57 1.255 . S
C63 O64 1.258 . S
C63 O65 1.256 . S
O64 Cd56 2.381 . S
O64 C63 1.258 . S
O65 Cd56 2.378 . S
O65 C63 1.256 . S
O66 Cd67 2.300 . S
O66 C73 1.275 . S
Cd67 O66 2.300 . S
Cd67 O75 2.381 . S
Cd67 O76 2.378 . S
O68 Cd69 2.385 . S
O68 C73 1.255 . S
Cd69 O68 2.385 . S
Cd69 O70 2.317 . S
O70 Cd69 2.317 . S
O70 C71 1.232 . S
C71 O70 1.232 . S
C71 O72 1.218 . S
O72 C71 1.218 . S
C73 O66 1.275 . S
C73 O68 1.255 . S
C74 O75 1.258 . S
C74 O76 1.256 . S
O75 Cd67 2.381 . S
O75 C74 1.258 . S
O76 Cd67 2.378 . S
O76 C74 1.256 . S
O77 Cd78 2.300 . S
O77 C84 1.275 . S
Cd78 O77 2.300 . S
Cd78 O86 2.381 . S
Cd78 O87 2.378 . S
O79 Cd80 2.385 . S
O79 C84 1.255 . S
Cd80 O79 2.385 . S
Cd80 O81 2.317 . S
O81 Cd80 2.317 . S
O81 C82 1.232 . S
C82 O81 1.232 . S
C82 O83 1.218 . S
O83 C82 1.218 . S
C84 O77 1.275 . S
C84 O79 1.255 . S
C85 O86 1.258 . S
C85 O87 1.256 . S
O86 Cd78 2.381 . S
O86 C85 1.258 . S
O87 Cd78 2.378 . S
O87 C85 1.256 . S
O88 Cd89 2.300 . S
O88 C95 1.275 . S
Cd89 O88 2.300 . S
Cd89 O97 2.381 . S
Cd89 O98 2.378 . S
O90 Cd91 2.385 . S
O90 C95 1.255 . S
Cd91 O90 2.385 . S
Cd91 O92 2.317 . S
O92 Cd91 2.317 . S
O92 C93 1.232 . S
C93 O92 1.232 . S
C93 O94 1.218 . S
O94 C93 1.218 . S
C95 O88 1.275 . S
C95 O90 1.255 . S
C96 O97 1.258 . S
C96 O98 1.256 . S
O97 Cd89 2.381 . S
O97 C96 1.258 . S
O98 Cd89 2.378 . S
O98 C96 1.256 . S
O99 Cd100 2.300 . S
O99 C106 1.275 . S
Cd100 O99 2.300 . S
Cd100 O108 2.381 . S
Cd100 O109 2.378 . S
O101 Cd102 2.385 . S
O101 C106 1.255 . S
Cd102 O101 2.385 . S
Cd102 O103 2.317 . S
O103 Cd102 2.317 . S
O103 C104 1.232 . S
C104 O103 1.232 . S
C104 O105 1.218 . S
O105 C104 1.218 . S
C106 O99 1.275 . S
C106 O101 1.255 . S
C107 O108 1.258 . S
C107 O109 1.256 . S
O108 Cd100 2.381 . S
O108 C107 1.258 . S
O109 Cd100 2.378 . S
O109 C107 1.256 . S
O110 Cd111 2.300 . S
O110 C117 1.275 . S
Cd111 O110 2.300 . S
Cd111 O119 2.381 . S
Cd111 O120 2.378 . S
O112 Cd113 2.385 . S
O112 C117 1.255 . S
Cd113 O112 2.385 . S
Cd113 O114 2.317 . S
O114 Cd113 2.317 . S
O114 C115 1.232 . S
C115 O114 1.232 . S
C115 O116 1.218 1_565 S
O116 C115 1.218 1_545 S
C117 O110 1.275 . S
C117 O112 1.255 . S
C118 O119 1.258 . S
C118 O120 1.256 . S
O119 Cd111 2.381 . S
O119 C118 1.258 . S
O120 Cd111 2.378 . S
O120 C118 1.256 . S
O121 Cd122 2.300 . S
O121 C128 1.275 . S
Cd122 O121 2.300 . S
Cd122 O130 2.381 . S
Cd122 O131 2.378 . S
O123 Cd124 2.385 . S
O123 C128 1.255 . S
Cd124 O123 2.385 . S
Cd124 O125 2.317 . S
O125 Cd124 2.317 . S
O125 C126 1.232 . S
C126 O125 1.232 . S
C126 O127 1.218 . S
O127 C126 1.218 . S
C128 O121 1.275 . S
C128 O123 1.255 . S
C129 O130 1.258 . S
C129 O131 1.256 . S
O130 Cd122 2.381 . S
O130 C129 1.258 . S
O131 Cd122 2.378 . S
O131 C129 1.256 . S
O132 Cd133 2.300 . S
O132 C139 1.275 . S
Cd133 O132 2.300 . S
Cd133 O141 2.381 . S
Cd133 O142 2.378 . S
O134 Cd135 2.385 . S
O134 C139 1.255 . S
Cd135 O134 2.385 . S
Cd135 O136 2.317 . S
O136 Cd135 2.317 . S
O136 C137 1.232 . S
C137 O136 1.232 . S
C137 O138 1.218 . S
O138 C137 1.218 . S
C139 O132 1.275 . S
C139 O134 1.255 . S
C140 O141 1.258 . S
C140 O142 1.256 . S
O141 Cd133 2.381 . S
O141 C140 1.258 . S
O142 Cd133 2.378 . S
O142 C140 1.256 . S
O143 Cd144 2.300 . S
O143 C150 1.275 . S
Cd144 O143 2.300 . S
Cd144 O152 2.381 . S
Cd144 O153 2.378 . S
O145 Cd146 2.385 . S
O145 C150 1.255 . S
Cd146 O145 2.385 . S
Cd146 O147 2.317 . S
O147 Cd146 2.317 . S
O147 C148 1.232 . S
C148 O147 1.232 . S
C148 O149 1.218 . S
O149 C148 1.218 . S
C150 O143 1.275 . S
C150 O145 1.255 . S
C151 O152 1.258 . S
C151 O153 1.256 . S
O152 Cd144 2.381 . S
O152 C151 1.258 . S
O153 Cd144 2.378 . S
O153 C151 1.256 . S
O154 Cd155 2.300 1_455 S
O154 C161 1.275 . S
Cd155 O154 2.300 1_655 S
Cd155 O163 2.381 . S
Cd155 O164 2.378 . S
O156 Cd157 2.385 . S
O156 C161 1.255 . S
Cd157 O156 2.385 . S
Cd157 O158 2.317 . S
O158 Cd157 2.317 . S
O158 C159 1.232 . S
C159 O158 1.232 . S
C159 O160 1.218 . S
O160 C159 1.218 . S
C161 O154 1.275 . S
C161 O156 1.255 . S
C162 O163 1.258 . S
C162 O164 1.256 . S
O163 Cd155 2.381 . S
O163 C162 1.258 . S
O164 Cd155 2.378 . S
O164 C162 1.256 . S
O165 Cd166 2.300 . S
O165 C172 1.275 . S
Cd166 O165 2.300 . S
Cd166 O174 2.381 . S
Cd166 O175 2.378 . S
O167 Cd168 2.385 . S
O167 C172 1.255 . S
Cd168 O167 2.385 . S
Cd168 O169 2.317 . S
O169 Cd168 2.317 . S
O169 C170 1.232 . S
C170 O169 1.232 . S
C170 O171 1.218 . S
O171 C170 1.218 . S
C172 O165 1.275 . S
C172 O167 1.255 . S
C173 O174 1.258 . S
C173 O175 1.256 . S
O174 Cd166 2.381 . S
O174 C173 1.258 . S
O175 Cd166 2.378 . S
O175 C173 1.256 . S
O176 Cd177 2.300 . S
O176 C183 1.275 . S
Cd177 O176 2.300 . S
Cd177 O185 2.381 . S
Cd177 O186 2.378 . S
O178 Cd179 2.385 . S
O178 C183 1.255 . S
Cd179 O178 2.385 . S
Cd179 O180 2.317 . S
O180 Cd179 2.317 . S
O180 C181 1.232 . S
C181 O180 1.232 . S
C181 O182 1.218 . S
O182 C181 1.218 . S
C183 O176 1.275 . S
C183 O178 1.255 . S
C184 O185 1.258 . S
C184 O186 1.256 . S
O185 Cd177 2.381 . S
O185 C184 1.258 . S
O186 Cd177 2.378 . S
O186 C184 1.256 . S
O187 Cd188 2.300 . S
O187 C194 1.275 . S
Cd188 O187 2.300 . S
Cd188 O196 2.381 . S
Cd188 O197 2.378 . S
O189 Cd190 2.385 . S
O189 C194 1.255 . S
Cd190 O189 2.385 . S
Cd190 O191 2.317 . S
O191 Cd190 2.317 . S
O191 C192 1.232 . S
C192 O191 1.232 . S
C192 O193 1.218 . S
O193 C192 1.218 . S
C194 O187 1.275 . S
C194 O189 1.255 . S
C195 O196 1.258 . S
C195 O197 1.256 . S
O196 Cd188 2.381 . S
O196 C195 1.258 . S
O197 Cd188 2.378 . S
O197 C195 1.256 . S
C198 C199 1.349 . S
C198 C200 1.327 . S
C198 H223 0.950 . S
C199 C198 1.349 . S
C199 C215 1.349 . S
C200 C198 1.327 . S
C200 C219 1.429 . S
C200 H224 0.950 . S
C201 C218 1.574 . S
C201 C220 1.368 . S
C201 H225 0.949 . S
H202 C206 0.949 . S
C203 C204 1.349 . S
C203 C205 1.327 . S
C203 H226 0.950 . S
C204 C203 1.349 . S
C204 C216 1.349 . S
C205 C203 1.327 . S
C205 C221 1.429 . S
C205 H227 0.950 . S
C206 H202 0.949 . S
C206 C214 1.574 . S
C206 C222 1.368 . S
H207 C215 0.950 . S
H208 C213 0.950 . S
H209 C214 0.949 . S
H210 C216 0.950 . S
H211 C217 0.950 . S
H212 C218 0.949 . S
C213 H208 0.950 . S
C213 C215 1.327 . S
C213 C219 1.429 . S
C214 C206 1.574 . S
C214 H209 0.949 . S
C214 C220 1.368 . S
C215 C199 1.349 . S
C215 H207 0.950 . S
C215 C213 1.327 . S
C216 C204 1.349 . S
C216 H210 0.950 . S
C216 C217 1.327 . S
C217 H211 0.950 . S
C217 C216 1.327 . S
C217 C221 1.429 . S
C218 C201 1.574 . S
C218 H212 0.949 . S
C218 C222 1.368 . S
C219 C200 1.429 . S
C219 C213 1.429 . S
C219 C220 1.523 . S
C220 C201 1.368 . S
C220 C214 1.368 . S
C220 C219 1.523 . S
C221 C205 1.429 . S
C221 C217 1.429 . S
C221 C222 1.523 . S
C222 C206 1.368 . S
C222 C218 1.368 . S
C222 C221 1.523 . S
H223 C198 0.950 . S
H224 C200 0.950 . S
H225 C201 0.949 . S
H226 C203 0.950 . S
H227 C205 0.950 . S
C228 C229 1.349 . S
C228 C230 1.327 . S
C228 H253 0.950 . S
C229 C228 1.349 . S
C229 C245 1.349 . S
C230 C228 1.327 . S
C230 C249 1.429 . S
C230 H254 0.950 . S
C231 C248 1.574 . S
C231 C250 1.368 . S
C231 H255 0.949 . S
H232 C236 0.949 . S
C233 C234 1.349 . S
C233 C235 1.327 . S
C233 H256 0.950 . S
C234 C233 1.349 . S
C234 C246 1.349 . S
C235 C233 1.327 . S
C235 C251 1.429 . S
C235 H257 0.950 . S
C236 H232 0.949 . S
C236 C244 1.574 . S
C236 C252 1.368 . S
H237 C245 0.950 . S
H238 C243 0.950 . S
H239 C244 0.949 . S
H240 C246 0.950 . S
H241 C247 0.950 . S
H242 C248 0.949 . S
C243 H238 0.950 . S
C243 C245 1.327 . S
C243 C249 1.429 . S
C244 C236 1.574 . S
C244 H239 0.949 . S
C244 C250 1.368 . S
C245 C229 1.349 . S
C245 H237 0.950 . S
C245 C243 1.327 . S
C246 C234 1.349 . S
C246 H240 0.950 . S
C246 C247 1.327 . S
C247 H241 0.950 . S
C247 C246 1.327 . S
C247 C251 1.429 . S
C248 C231 1.574 . S
C248 H242 0.949 . S
C248 C252 1.368 . S
C249 C230 1.429 . S
C249 C243 1.429 . S
C249 C250 1.523 . S
C250 C231 1.368 . S
C250 C244 1.368 . S
C250 C249 1.523 . S
C251 C235 1.429 . S
C251 C247 1.429 . S
C251 C252 1.523 . S
C252 C236 1.368 . S
C252 C248 1.368 . S
C252 C251 1.523 . S
H253 C228 0.950 . S
H254 C230 0.950 . S
H255 C231 0.949 . S
H256 C233 0.950 . S
H257 C235 0.950 . S
C258 C259 1.349 . S
C258 C260 1.327 . S
C258 H283 0.950 . S
C259 C258 1.349 . S
C259 C275 1.349 . S
C260 C258 1.327 . S
C260 C279 1.429 . S
C260 H284 0.950 . S
C261 C278 1.574 . S
C261 C280 1.368 . S
C261 H285 0.949 . S
H262 C266 0.949 . S
C263 C264 1.349 . S
C263 C265 1.327 . S
C263 H286 0.950 . S
C264 C263 1.349 . S
C264 C276 1.349 . S
C265 C263 1.327 . S
C265 C281 1.429 . S
C265 H287 0.950 . S
C266 H262 0.949 . S
C266 C274 1.574 . S
C266 C282 1.368 . S
H267 C275 0.950 . S
H268 C273 0.950 . S
H269 C274 0.949 . S
H270 C276 0.950 . S
H271 C277 0.950 . S
H272 C278 0.949 . S
C273 H268 0.950 . S
C273 C275 1.327 . S
C273 C279 1.429 . S
C274 C266 1.574 . S
C274 H269 0.949 . S
C274 C280 1.368 . S
C275 C259 1.349 . S
C275 H267 0.950 . S
C275 C273 1.327 . S
C276 C264 1.349 . S
C276 H270 0.950 . S
C276 C277 1.327 . S
C277 H271 0.950 . S
C277 C276 1.327 . S
C277 C281 1.429 . S
C278 C261 1.574 . S
C278 H272 0.949 . S
C278 C282 1.368 . S
C279 C260 1.429 . S
C279 C273 1.429 . S
C279 C280 1.523 . S
C280 C261 1.368 . S
C280 C274 1.368 . S
C280 C279 1.523 . S
C281 C265 1.429 . S
C281 C277 1.429 . S
C281 C282 1.523 . S
C282 C266 1.368 . S
C282 C278 1.368 . S
C282 C281 1.523 . S
H283 C258 0.950 . S
H284 C260 0.950 . S
H285 C261 0.949 . S
H286 C263 0.950 . S
H287 C265 0.950 . S
C288 C289 1.349 . S
C288 C290 1.327 . S
C288 H313 0.950 . S
C289 C288 1.349 . S
C289 C305 1.349 . S
C290 C288 1.327 . S
C290 C309 1.429 . S
C290 H314 0.950 . S
C291 C308 1.574 . S
C291 C310 1.368 . S
C291 H315 0.949 . S
H292 C296 0.949 . S
C293 C294 1.349 . S
C293 C295 1.327 . S
C293 H316 0.950 . S
C294 C293 1.349 . S
C294 C306 1.349 . S
C295 C293 1.327 . S
C295 C311 1.429 . S
C295 H317 0.950 . S
C296 H292 0.949 . S
C296 C304 1.574 . S
C296 C312 1.368 . S
H297 C305 0.950 . S
H298 C303 0.950 . S
H299 C304 0.949 . S
H300 C306 0.950 . S
H301 C307 0.950 . S
H302 C308 0.949 . S
C303 H298 0.950 . S
C303 C305 1.327 . S
C303 C309 1.429 . S
C304 C296 1.574 . S
C304 H299 0.949 . S
C304 C310 1.368 . S
C305 C289 1.349 . S
C305 H297 0.950 . S
C305 C303 1.327 . S
C306 C294 1.349 . S
C306 H300 0.950 . S
C306 C307 1.327 . S
C307 H301 0.950 . S
C307 C306 1.327 . S
C307 C311 1.429 . S
C308 C291 1.574 . S
C308 H302 0.949 . S
C308 C312 1.368 . S
C309 C290 1.429 . S
C309 C303 1.429 . S
C309 C310 1.523 . S
C310 C291 1.368 . S
C310 C304 1.368 . S
C310 C309 1.523 . S
C311 C295 1.429 . S
C311 C307 1.429 . S
C311 C312 1.523 . S
C312 C296 1.368 . S
C312 C308 1.368 . S
C312 C311 1.523 . S
H313 C288 0.950 . S
H314 C290 0.950 . S
H315 C291 0.949 . S
H316 C293 0.950 . S
H317 C295 0.950 . S
C318 C319 1.349 . S
C318 C320 1.327 . S
C318 H343 0.950 . S
C319 C318 1.349 . S
C319 C335 1.349 . S
C320 C318 1.327 . S
C320 C339 1.429 . S
C320 H344 0.950 . S
C321 C338 1.574 . S
C321 C340 1.368 . S
C321 H345 0.949 . S
H322 C326 0.949 . S
C323 C324 1.349 . S
C323 C325 1.327 . S
C323 H346 0.950 . S
C324 C323 1.349 . S
C324 C336 1.349 . S
C325 C323 1.327 . S
C325 C341 1.429 . S
C325 H347 0.950 . S
C326 H322 0.949 . S
C326 C334 1.574 . S
C326 C342 1.368 . S
H327 C335 0.950 . S
H328 C333 0.950 . S
H329 C334 0.949 . S
H330 C336 0.950 . S
H331 C337 0.950 . S
H332 C338 0.949 . S
C333 H328 0.950 . S
C333 C335 1.327 . S
C333 C339 1.429 . S
C334 C326 1.574 . S
C334 H329 0.949 . S
C334 C340 1.368 . S
C335 C319 1.349 . S
C335 H327 0.950 . S
C335 C333 1.327 . S
C336 C324 1.349 . S
C336 H330 0.950 . S
C336 C337 1.327 . S
C337 H331 0.950 . S
C337 C336 1.327 . S
C337 C341 1.429 . S
C338 C321 1.574 . S
C338 H332 0.949 . S
C338 C342 1.368 . S
C339 C320 1.429 . S
C339 C333 1.429 . S
C339 C340 1.523 . S
C340 C321 1.368 . S
C340 C334 1.368 . S
C340 C339 1.523 . S
C341 C325 1.429 . S
C341 C337 1.429 . S
C341 C342 1.523 . S
C342 C326 1.368 . S
C342 C338 1.368 . S
C342 C341 1.523 . S
H343 C318 0.950 . S
H344 C320 0.950 . S
H345 C321 0.949 . S
H346 C323 0.950 . S
H347 C325 0.950 . S
C348 C349 1.349 . S
C348 C350 1.327 . S
C348 H373 0.950 . S
C349 C348 1.349 . S
C349 C365 1.349 . S
C350 C348 1.327 . S
C350 C369 1.429 . S
C350 H374 0.950 . S
C351 C368 1.574 . S
C351 C370 1.368 . S
C351 H375 0.949 . S
H352 C356 0.949 . S
C353 C354 1.349 . S
C353 C355 1.327 . S
C353 H376 0.950 . S
C354 C353 1.349 . S
C354 C366 1.349 . S
C355 C353 1.327 . S
C355 C371 1.429 . S
C355 H377 0.950 . S
C356 H352 0.949 . S
C356 C364 1.574 . S
C356 C372 1.368 . S
H357 C365 0.950 . S
H358 C363 0.950 . S
H359 C364 0.949 . S
H360 C366 0.950 . S
H361 C367 0.950 . S
H362 C368 0.949 . S
C363 H358 0.950 . S
C363 C365 1.327 . S
C363 C369 1.429 . S
C364 C356 1.574 . S
C364 H359 0.949 . S
C364 C370 1.368 . S
C365 C349 1.349 . S
C365 H357 0.950 . S
C365 C363 1.327 . S
C366 C354 1.349 . S
C366 H360 0.950 . S
C366 C367 1.327 . S
C367 H361 0.950 . S
C367 C366 1.327 . S
C367 C371 1.429 . S
C368 C351 1.574 . S
C368 H362 0.949 . S
C368 C372 1.368 . S
C369 C350 1.429 . S
C369 C363 1.429 . S
C369 C370 1.523 . S
C370 C351 1.368 . S
C370 C364 1.368 . S
C370 C369 1.523 . S
C371 C355 1.429 . S
C371 C367 1.429 . S
C371 C372 1.523 . S
C372 C356 1.368 . S
C372 C368 1.368 . S
C372 C371 1.523 . S
H373 C348 0.950 . S
H374 C350 0.950 . S
H375 C351 0.949 . S
H376 C353 0.950 . S
H377 C355 0.950 . S
C378 C379 1.349 . S
C378 C380 1.327 . S
C378 H403 0.950 . S
C379 C378 1.349 . S
C379 C395 1.349 . S
C380 C378 1.327 . S
C380 C399 1.429 . S
C380 H404 0.950 . S
C381 C398 1.574 . S
C381 C400 1.368 . S
C381 H405 0.949 . S
H382 C386 0.949 . S
C383 C384 1.349 . S
C383 C385 1.327 . S
C383 H406 0.950 . S
C384 C383 1.349 . S
C384 C396 1.349 . S
C385 C383 1.327 . S
C385 C401 1.429 . S
C385 H407 0.950 . S
C386 H382 0.949 . S
C386 C394 1.574 . S
C386 C402 1.368 . S
H387 C395 0.950 . S
H388 C393 0.950 . S
H389 C394 0.949 . S
H390 C396 0.950 . S
H391 C397 0.950 . S
H392 C398 0.949 . S
C393 H388 0.950 . S
C393 C395 1.327 . S
C393 C399 1.429 . S
C394 C386 1.574 . S
C394 H389 0.949 . S
C394 C400 1.368 . S
C395 C379 1.349 . S
C395 H387 0.950 . S
C395 C393 1.327 . S
C396 C384 1.349 . S
C396 H390 0.950 . S
C396 C397 1.327 . S
C397 H391 0.950 . S
C397 C396 1.327 . S
C397 C401 1.429 . S
C398 C381 1.574 . S
C398 H392 0.949 . S
C398 C402 1.368 . S
C399 C380 1.429 . S
C399 C393 1.429 . S
C399 C400 1.523 . S
C400 C381 1.368 . S
C400 C394 1.368 . S
C400 C399 1.523 . S
C401 C385 1.429 . S
C401 C397 1.429 . S
C401 C402 1.523 . S
C402 C386 1.368 . S
C402 C398 1.368 . S
C402 C401 1.523 . S
H403 C378 0.950 . S
H404 C380 0.950 . S
H405 C381 0.949 . S
H406 C383 0.950 . S
H407 C385 0.950 . S
C408 C409 1.349 . S
C408 C410 1.327 . S
C408 H433 0.950 . S
C409 C408 1.349 . S
C409 C425 1.349 . S
C410 C408 1.327 . S
C410 C429 1.429 . S
C410 H434 0.950 . S
C411 C428 1.574 . S
C411 C430 1.368 . S
C411 H435 0.949 . S
H412 C416 0.949 . S
C413 C414 1.349 . S
C413 C415 1.327 . S
C413 H436 0.950 . S
C414 C413 1.349 . S
C414 C426 1.349 . S
C415 C413 1.327 . S
C415 C431 1.429 . S
C415 H437 0.950 . S
C416 H412 0.949 . S
C416 C424 1.574 . S
C416 C432 1.368 . S
H417 C425 0.950 . S
H418 C423 0.950 . S
H419 C424 0.949 . S
H420 C426 0.950 . S
H421 C427 0.950 . S
H422 C428 0.949 . S
C423 H418 0.950 . S
C423 C425 1.327 . S
C423 C429 1.429 . S
C424 C416 1.574 . S
C424 H419 0.949 . S
C424 C430 1.368 . S
C425 C409 1.349 . S
C425 H417 0.950 . S
C425 C423 1.327 . S
C426 C414 1.349 . S
C426 H420 0.950 . S
C426 C427 1.327 . S
C427 H421 0.950 . S
C427 C426 1.327 . S
C427 C431 1.429 . S
C428 C411 1.574 . S
C428 H422 0.949 . S
C428 C432 1.368 . S
C429 C410 1.429 . S
C429 C423 1.429 . S
C429 C430 1.523 . S
C430 C411 1.368 . S
C430 C424 1.368 . S
C430 C429 1.523 . S
C431 C415 1.429 . S
C431 C427 1.429 . S
C431 C432 1.523 . S
C432 C416 1.368 . S
C432 C428 1.368 . S
C432 C431 1.523 . S
H433 C408 0.950 . S
H434 C410 0.950 . S
H435 C411 0.949 . S
H436 C413 0.950 . S
H437 C415 0.950 . S
C438 C439 1.349 . S
C438 C440 1.327 . S
C438 H463 0.950 . S
C439 C438 1.349 . S
C439 C455 1.349 . S
C440 C438 1.327 . S
C440 C459 1.429 . S
C440 H464 0.950 . S
C441 C458 1.574 . S
C441 C460 1.368 . S
C441 H465 0.949 . S
H442 C446 0.949 . S
C443 C444 1.349 . S
C443 C445 1.327 . S
C443 H466 0.950 . S
C444 C443 1.349 . S
C444 C456 1.349 . S
C445 C443 1.327 . S
C445 C461 1.429 . S
C445 H467 0.950 . S
C446 H442 0.949 . S
C446 C454 1.574 . S
C446 C462 1.368 . S
H447 C455 0.950 . S
H448 C453 0.950 . S
H449 C454 0.949 . S
H450 C456 0.950 . S
H451 C457 0.950 . S
H452 C458 0.949 . S
C453 H448 0.950 . S
C453 C455 1.327 . S
C453 C459 1.429 . S
C454 C446 1.574 . S
C454 H449 0.949 . S
C454 C460 1.368 . S
C455 C439 1.349 . S
C455 H447 0.950 . S
C455 C453 1.327 . S
C456 C444 1.349 . S
C456 H450 0.950 . S
C456 C457 1.327 . S
C457 H451 0.950 . S
C457 C456 1.327 . S
C457 C461 1.429 . S
C458 C441 1.574 . S
C458 H452 0.949 . S
C458 C462 1.368 . S
C459 C440 1.429 . S
C459 C453 1.429 . S
C459 C460 1.523 . S
C460 C441 1.368 . S
C460 C454 1.368 . S
C460 C459 1.523 . S
C461 C445 1.429 . S
C461 C457 1.429 . S
C461 C462 1.523 . S
C462 C446 1.368 . S
C462 C458 1.368 . S
C462 C461 1.523 . S
H463 C438 0.950 . S
H464 C440 0.950 . S
H465 C441 0.949 . S
H466 C443 0.950 . S
H467 C445 0.950 . S
C468 C469 1.349 . S
C468 C470 1.327 . S
C468 H493 0.950 . S
C469 C468 1.349 . S
C469 C485 1.349 . S
C470 C468 1.327 . S
C470 C489 1.429 . S
C470 H494 0.950 1_565 S
C471 C488 1.574 . S
C471 C490 1.368 . S
C471 H495 0.949 . S
H472 C476 0.949 . S
C473 C474 1.349 . S
C473 C475 1.327 . S
C473 H496 0.950 . S
C474 C473 1.349 . S
C474 C486 1.349 . S
C475 C473 1.327 . S
C475 C491 1.429 . S
C475 H497 0.952 . S
C476 H472 0.949 . S
C476 C484 1.574 . S
C476 C492 1.368 . S
H477 C485 0.950 . S
H478 C483 0.950 . S
H479 C484 0.949 . S
H480 C486 0.950 . S
H481 C487 0.950 . S
H482 C488 0.949 . S
C483 H478 0.950 . S
C483 C485 1.327 . S
C483 C489 1.429 . S
C484 C476 1.574 . S
C484 H479 0.949 . S
C484 C490 1.368 1_545 S
C485 C469 1.349 . S
C485 H477 0.950 . S
C485 C483 1.327 . S
C486 C474 1.349 . S
C486 H480 0.950 . S
C486 C487 1.327 . S
C487 H481 0.950 . S
C487 C486 1.327 . S
C487 C491 1.429 . S
C488 C471 1.574 . S
C488 H482 0.949 . S
C488 C492 1.368 1_565 S
C489 C470 1.429 . S
C489 C483 1.429 . S
C489 C490 1.523 . S
C490 C471 1.368 . S
C490 C484 1.368 1_565 S
C490 C489 1.523 . S
C491 C475 1.429 . S
C491 C487 1.429 . S
C491 C492 1.523 . S
C492 C476 1.368 . S
C492 C488 1.368 1_545 S
C492 C491 1.523 . S
H493 C468 0.950 . S
H494 C470 0.950 1_545 S
H495 C471 0.949 . S
H496 C473 0.950 . S
H497 C475 0.952 . S
C498 C499 1.349 . S
C498 C500 1.327 . S
C498 H523 0.950 . S
C499 C498 1.349 . S
C499 C515 1.349 . S
C500 C498 1.327 . S
C500 C519 1.429 . S
C500 H524 0.950 . S
C501 C518 1.574 . S
C501 C520 1.368 . S
C501 H525 0.949 . S
H502 C506 0.949 . S
C503 C504 1.349 . S
C503 C505 1.327 . S
C503 H526 0.950 . S
C504 C503 1.349 . S
C504 C516 1.349 . S
C505 C503 1.327 . S
C505 C521 1.429 . S
C505 H527 0.950 . S
C506 H502 0.949 . S
C506 C514 1.574 . S
C506 C522 1.368 . S
H507 C515 0.950 . S
H508 C513 0.950 . S
H509 C514 0.949 . S
H510 C516 0.950 . S
H511 C517 0.950 . S
H512 C518 0.949 . S
C513 H508 0.950 . S
C513 C515 1.327 . S
C513 C519 1.429 . S
C514 C506 1.574 . S
C514 H509 0.949 . S
C514 C520 1.368 . S
C515 C499 1.349 . S
C515 H507 0.950 . S
C515 C513 1.327 . S
C516 C504 1.349 . S
C516 H510 0.950 . S
C516 C517 1.327 . S
C517 H511 0.950 . S
C517 C516 1.327 . S
C517 C521 1.429 . S
C518 C501 1.574 . S
C518 H512 0.949 . S
C518 C522 1.368 . S
C519 C500 1.429 . S
C519 C513 1.429 . S
C519 C520 1.523 . S
C520 C501 1.368 . S
C520 C514 1.368 . S
C520 C519 1.523 . S
C521 C505 1.429 . S
C521 C517 1.429 . S
C521 C522 1.523 . S
C522 C506 1.368 . S
C522 C518 1.368 . S
C522 C521 1.523 . S
H523 C498 0.950 . S
H524 C500 0.950 . S
H525 C501 0.949 . S
H526 C503 0.950 . S
H527 C505 0.950 . S
C528 C529 1.349 . S
C528 C530 1.327 . S
C528 H553 0.950 . S
C529 C528 1.349 . S
C529 C545 1.349 . S
C530 C528 1.327 . S
C530 C549 1.429 . S
C530 H554 0.950 . S
C531 C548 1.574 . S
C531 C550 1.368 . S
C531 H555 0.949 . S
H532 C536 0.949 . S
C533 C534 1.349 . S
C533 C535 1.327 . S
C533 H556 0.950 . S
C534 C533 1.349 . S
C534 C546 1.349 . S
C535 C533 1.327 . S
C535 C551 1.429 . S
C535 H557 0.950 . S
C536 H532 0.949 . S
C536 C544 1.574 . S
C536 C552 1.368 . S
H537 C545 0.950 . S
H538 C543 0.950 . S
H539 C544 0.949 . S
H540 C546 0.950 . S
H541 C547 0.950 . S
H542 C548 0.949 . S
C543 H538 0.950 . S
C543 C545 1.327 . S
C543 C549 1.429 . S
C544 C536 1.574 . S
C544 H539 0.949 . S
C544 C550 1.368 . S
C545 C529 1.349 . S
C545 H537 0.950 . S
C545 C543 1.327 . S
C546 C534 1.349 . S
C546 H540 0.950 . S
C546 C547 1.327 . S
C547 H541 0.950 . S
C547 C546 1.327 . S
C547 C551 1.429 . S
C548 C531 1.574 . S
C548 H542 0.949 . S
C548 C552 1.368 . S
C549 C530 1.429 . S
C549 C543 1.429 . S
C549 C550 1.523 . S
C550 C531 1.368 . S
C550 C544 1.368 . S
C550 C549 1.523 . S
C551 C535 1.429 . S
C551 C547 1.429 . S
C551 C552 1.523 . S
C552 C536 1.368 . S
C552 C548 1.368 . S
C552 C551 1.523 . S
H553 C528 0.950 . S
H554 C530 0.950 . S
H555 C531 0.949 . S
H556 C533 0.950 . S
H557 C535 0.950 . S
C558 C559 1.349 1_556 S
C558 C560 1.327 . S
C558 H583 0.950 . S
C559 C558 1.349 1_554 S
C559 C575 1.349 . S
C560 C558 1.327 . S
C560 C579 1.429 . S
C560 H584 0.950 . S
C561 C578 1.574 . S
C561 C580 1.368 . S
C561 H585 0.949 . S
H562 C566 0.949 . S
C563 C564 1.349 . S
C563 C565 1.327 . S
C563 H586 0.950 . S
C564 C563 1.349 . S
C564 C576 1.349 . S
C565 C563 1.327 . S
C565 C581 1.429 . S
C565 H587 0.950 . S
C566 H562 0.949 . S
C566 C574 1.574 . S
C566 C582 1.368 . S
H567 C575 0.950 . S
H568 C573 0.950 1_554 S
H569 C574 0.949 . S
H570 C576 0.950 . S
H571 C577 0.950 . S
H572 C578 0.949 . S
C573 H568 0.950 1_556 S
C573 C575 1.327 1_556 S
C573 C579 1.429 . S
C574 C566 1.574 . S
C574 H569 0.949 . S
C574 C580 1.368 . S
C575 C559 1.349 . S
C575 H567 0.950 . S
C575 C573 1.327 1_554 S
C576 C564 1.349 . S
C576 H570 0.950 . S
C576 C577 1.327 . S
C577 H571 0.950 . S
C577 C576 1.327 . S
C577 C581 1.429 . S
C578 C561 1.574 . S
C578 H572 0.949 . S
C578 C582 1.368 . S
C579 C560 1.429 . S
C579 C573 1.429 . S
C579 C580 1.523 . S
C580 C561 1.368 . S
C580 C574 1.368 . S
C580 C579 1.523 . S
C581 C565 1.429 . S
C581 C577 1.429 . S
C581 C582 1.523 . S
C582 C566 1.368 . S
C582 C578 1.368 . S
C582 C581 1.523 . S
H583 C558 0.950 . S
H584 C560 0.950 . S
H585 C561 0.949 . S
H586 C563 0.950 . S
H587 C565 0.950 . S
C588 C589 1.349 . S
C588 C590 1.327 . S
C588 H613 0.950 . S
C589 C588 1.349 . S
C589 C605 1.349 . S
C590 C588 1.327 . S
C590 C609 1.429 . S
C590 H614 0.950 . S
C591 C608 1.574 . S
C591 C610 1.368 . S
C591 H615 0.949 . S
H592 C596 0.949 . S
C593 C594 1.349 . S
C593 C595 1.327 1_554 S
C593 H616 0.950 . S
C594 C593 1.349 . S
C594 C606 1.349 . S
C595 C593 1.327 1_556 S
C595 C611 1.429 . S
C595 H617 0.950 . S
C596 H592 0.949 . S
C596 C604 1.574 . S
C596 C612 1.368 . S
H597 C605 0.950 . S
H598 C603 0.950 . S
H599 C604 0.949 . S
H600 C606 0.950 . S
H601 C607 0.950 . S
H602 C608 0.949 . S
C603 H598 0.950 . S
C603 C605 1.327 . S
C603 C609 1.429 . S
C604 C596 1.574 . S
C604 H599 0.949 . S
C604 C610 1.368 . S
C605 C589 1.349 . S
C605 H597 0.950 . S
C605 C603 1.327 . S
C606 C594 1.349 . S
C606 H600 0.950 . S
C606 C607 1.327 . S
C607 H601 0.950 . S
C607 C606 1.327 . S
C607 C611 1.429 1_554 S
C608 C591 1.574 . S
C608 H602 0.949 . S
C608 C612 1.368 . S
C609 C590 1.429 . S
C609 C603 1.429 . S
C609 C610 1.523 . S
C610 C591 1.368 . S
C610 C604 1.368 . S
C610 C609 1.523 . S
C611 C595 1.429 . S
C611 C607 1.429 1_556 S
C611 C612 1.523 . S
C612 C596 1.368 . S
C612 C608 1.368 . S
C612 C611 1.523 . S
H613 C588 0.950 . S
H614 C590 0.950 . S
H615 C591 0.949 . S
H616 C593 0.950 . S
H617 C595 0.950 . S
C618 C619 1.349 . S
C618 C620 1.327 . S
C618 H643 0.950 . S
C619 C618 1.349 . S
C619 C635 1.349 . S
C620 C618 1.327 . S
C620 C639 1.429 1_554 S
C620 H644 0.950 . S
C621 C638 1.574 . S
C621 C640 1.368 . S
C621 H645 0.949 . S
H622 C626 0.949 . S
C623 C624 1.349 . S
C623 C625 1.327 . S
C623 H646 0.950 . S
C624 C623 1.349 . S
C624 C636 1.349 . S
C625 C623 1.327 . S
C625 C641 1.429 . S
C625 H647 0.950 . S
C626 H622 0.949 . S
C626 C634 1.574 . S
C626 C642 1.368 . S
H627 C635 0.950 . S
H628 C633 0.950 . S
H629 C634 0.949 . S
H630 C636 0.950 . S
H631 C637 0.950 . S
H632 C638 0.949 . S
C633 H628 0.950 . S
C633 C635 1.327 1_556 S
C633 C639 1.429 . S
C634 C626 1.574 . S
C634 H629 0.949 . S
C634 C640 1.368 . S
C635 C619 1.349 . S
C635 H627 0.950 . S
C635 C633 1.327 1_554 S
C636 C624 1.349 . S
C636 H630 0.950 . S
C636 C637 1.327 . S
C637 H631 0.950 . S
C637 C636 1.327 . S
C637 C641 1.429 . S
C638 C621 1.574 . S
C638 H632 0.949 . S
C638 C642 1.368 . S
C639 C620 1.429 1_556 S
C639 C633 1.429 . S
C639 C640 1.523 . S
C640 C621 1.368 . S
C640 C634 1.368 . S
C640 C639 1.523 . S
C641 C625 1.429 . S
C641 C637 1.429 . S
C641 C642 1.523 . S
C642 C626 1.368 . S
C642 C638 1.368 . S
C642 C641 1.523 . S
H643 C618 0.950 . S
H644 C620 0.950 . S
H645 C621 0.949 . S
H646 C623 0.950 . S
H647 C625 0.950 . S
C648 C649 1.349 . S
C648 C650 1.327 . S
C648 H673 0.950 . S
C649 C648 1.349 . S
C649 C665 1.349 . S
C650 C648 1.327 . S
C650 C669 1.429 . S
C650 H674 0.950 . S
C651 C668 1.574 . S
C651 C670 1.368 . S
C651 H675 0.949 . S
H652 C656 0.949 . S
C653 C654 1.349 . S
C653 C655 1.327 . S
C653 H676 0.950 . S
C654 C653 1.349 . S
C654 C666 1.349 . S
C655 C653 1.327 . S
C655 C671 1.429 . S
C655 H677 0.950 . S
C656 H652 0.949 . S
C656 C664 1.574 . S
C656 C672 1.368 . S
H657 C665 0.950 . S
H658 C663 0.950 . S
H659 C664 0.949 . S
H660 C666 0.950 . S
H661 C667 0.950 . S
H662 C668 0.949 . S
C663 H658 0.950 . S
C663 C665 1.327 . S
C663 C669 1.429 . S
C664 C656 1.574 . S
C664 H659 0.949 . S
C664 C670 1.368 . S
C665 C649 1.349 . S
C665 H657 0.950 . S
C665 C663 1.327 . S
C666 C654 1.349 . S
C666 H660 0.950 . S
C666 C667 1.327 . S
C667 H661 0.950 . S
C667 C666 1.327 . S
C667 C671 1.429 . S
C668 C651 1.574 . S
C668 H662 0.949 . S
C668 C672 1.368 . S
C669 C650 1.429 . S
C669 C663 1.429 . S
C669 C670 1.523 . S
C670 C651 1.368 . S
C670 C664 1.368 . S
C670 C669 1.523 . S
C671 C655 1.429 . S
C671 C667 1.429 . S
C671 C672 1.523 . S
C672 C656 1.368 . S
C672 C668 1.368 . S
C672 C671 1.523 . S
H673 C648 0.950 . S
H674 C650 0.950 . S
H675 C651 0.949 . S
H676 C653 0.950 . S
H677 C655 0.950 . S
C678 C679 1.349 . S
C678 C680 1.327 . S
C678 H703 0.950 . S
C679 C678 1.349 . S
C679 C695 1.349 . S
C680 C678 1.327 . S
C680 C699 1.429 . S
C680 H704 0.950 . S
C681 C698 1.574 . S
C681 C700 1.368 . S
C681 H705 0.949 . S
H682 C686 0.949 1_455 S
C683 C684 1.349 . S
C683 C685 1.327 . S
C683 H706 0.950 1_556 S
C684 C683 1.349 . S
C684 C696 1.349 . S
C685 C683 1.327 . S
C685 C701 1.429 . S
C685 H707 0.950 . S
C686 H682 0.949 1_655 S
C686 C694 1.574 . S
C686 C702 1.368 . S
H687 C695 0.950 . S
H688 C693 0.950 . S
H689 C694 0.949 . S
H690 C696 0.950 . S
H691 C697 0.950 . S
H692 C698 0.949 . S
C693 H688 0.950 . S
C693 C695 1.327 . S
C693 C699 1.429 . S
C694 C686 1.574 . S
C694 H689 0.949 . S
C694 C700 1.368 . S
C695 C679 1.349 . S
C695 H687 0.950 . S
C695 C693 1.327 . S
C696 C684 1.349 . S
C696 H690 0.950 . S
C696 C697 1.327 . S
C697 H691 0.950 . S
C697 C696 1.327 . S
C697 C701 1.429 . S
C698 C681 1.574 . S
C698 H692 0.949 . S
C698 C702 1.368 . S
C699 C680 1.429 . S
C699 C693 1.429 . S
C699 C700 1.523 . S
C700 C681 1.368 . S
C700 C694 1.368 . S
C700 C699 1.523 . S
C701 C685 1.429 . S
C701 C697 1.429 . S
C701 C702 1.523 1_455 S
C702 C686 1.368 . S
C702 C698 1.368 . S
C702 C701 1.523 1_655 S
H703 C678 0.950 . S
H704 C680 0.950 . S
H705 C681 0.949 . S
H706 C683 0.950 1_554 S
H707 C685 0.950 . S
C708 C709 1.349 . S
C708 C710 1.329 . S
C708 H733 0.950 . S
C709 C708 1.349 . S
C709 C725 1.349 . S
C710 C708 1.329 . S
C710 C729 1.429 . S
C710 H734 0.947 1_554 S
C711 C728 1.585 . S
C711 C730 1.376 . S
C711 H735 0.932 1_556 S
H712 C716 0.949 . S
C713 C714 1.349 . S
C713 C715 1.327 . S
C713 H736 0.950 . S
C714 C713 1.349 . S
C714 C726 1.349 . S
C715 C713 1.327 . S
C715 C731 1.429 . S
C715 H737 0.950 . S
C716 H712 0.949 . S
C716 C724 1.574 . S
C716 C732 1.368 . S
H717 C725 0.950 . S
H718 C723 0.950 . S
H719 C724 0.949 . S
H720 C726 0.950 . S
H721 C727 0.950 . S
H722 C728 0.949 . S
C723 H718 0.950 . S
C723 C725 1.327 . S
C723 C729 1.429 . S
C724 C716 1.574 . S
C724 H719 0.949 . S
C724 C730 1.368 . S
C725 C709 1.349 . S
C725 H717 0.950 . S
C725 C723 1.327 . S
C726 C714 1.349 . S
C726 H720 0.950 . S
C726 C727 1.327 . S
C727 H721 0.950 . S
C727 C726 1.327 . S
C727 C731 1.429 . S
C728 C711 1.585 . S
C728 H722 0.949 . S
C728 C732 1.368 . S
C729 C710 1.429 . S
C729 C723 1.429 . S
C729 C730 1.523 1_554 S
C730 C711 1.376 . S
C730 C724 1.368 . S
C730 C729 1.523 1_556 S
C731 C715 1.429 . S
C731 C727 1.429 . S
C731 C732 1.523 . S
C732 C716 1.368 . S
C732 C728 1.368 . S
C732 C731 1.523 . S
H733 C708 0.950 . S
H734 C710 0.947 1_556 S
H735 C711 0.932 1_554 S
H736 C713 0.950 . S
H737 C715 0.950 . S
C738 C739 1.349 . S
C738 C740 1.327 . S
C738 H763 0.950 . S
C739 C738 1.349 . S
C739 C755 1.349 . S
C740 C738 1.327 . S
C740 C759 1.429 . S
C740 H764 0.950 . S
C741 C758 1.574 . S
C741 C760 1.368 . S
C741 H765 0.949 . S
H742 C746 0.949 . S
C743 C744 1.349 . S
C743 C745 1.327 . S
C743 H766 0.950 . S
C744 C743 1.349 . S
C744 C756 1.349 . S
C745 C743 1.327 . S
C745 C761 1.429 . S
C745 H767 0.950 . S
C746 H742 0.949 . S
C746 C754 1.574 . S
C746 C762 1.368 . S
H747 C755 0.950 . S
H748 C753 0.950 . S
H749 C754 0.949 . S
H750 C756 0.950 . S
H751 C757 0.950 . S
H752 C758 0.949 . S
C753 H748 0.950 . S
C753 C755 1.327 . S
C753 C759 1.429 . S
C754 C746 1.574 . S
C754 H749 0.949 . S
C754 C760 1.368 . S
C755 C739 1.349 . S
C755 H747 0.950 . S
C755 C753 1.327 . S
C756 C744 1.349 . S
C756 H750 0.950 . S
C756 C757 1.327 . S
C757 H751 0.950 . S
C757 C756 1.327 . S
C757 C761 1.429 . S
C758 C741 1.574 . S
C758 H752 0.949 . S
C758 C762 1.368 . S
C759 C740 1.429 . S
C759 C753 1.429 . S
C759 C760 1.523 . S
C760 C741 1.368 . S
C760 C754 1.368 . S
C760 C759 1.523 . S
C761 C745 1.429 . S
C761 C757 1.429 . S
C761 C762 1.523 . S
C762 C746 1.368 . S
C762 C758 1.368 . S
C762 C761 1.523 . S
H763 C738 0.950 . S
H764 C740 0.950 . S
H765 C741 0.949 . S
H766 C743 0.950 . S
H767 C745 0.950 . S
C768 C769 1.349 . S
C768 C770 1.327 . S
C768 H793 0.950 . S
C769 C768 1.349 . S
C769 C785 1.349 . S
C770 C768 1.327 . S
C770 C789 1.429 . S
C770 H794 0.950 . S
C771 C788 1.574 . S
C771 C790 1.368 . S
C771 H795 0.949 . S
H772 C776 0.949 . S
C773 C774 1.349 . S
C773 C775 1.327 . S
C773 H796 0.950 . S
C774 C773 1.349 . S
C774 C786 1.349 . S
C775 C773 1.327 . S
C775 C791 1.429 . S
C775 H797 0.950 . S
C776 H772 0.949 . S
C776 C784 1.574 . S
C776 C792 1.368 . S
H777 C785 0.950 . S
H778 C783 0.950 . S
H779 C784 0.949 . S
H780 C786 0.950 . S
H781 C787 0.950 . S
H782 C788 0.949 . S
C783 H778 0.950 . S
C783 C785 1.327 . S
C783 C789 1.429 . S
C784 C776 1.574 . S
C784 H779 0.949 . S
C784 C790 1.368 . S
C785 C769 1.349 . S
C785 H777 0.950 . S
C785 C783 1.327 . S
C786 C774 1.349 . S
C786 H780 0.950 . S
C786 C787 1.327 . S
C787 H781 0.950 . S
C787 C786 1.327 . S
C787 C791 1.429 . S
C788 C771 1.574 . S
C788 H782 0.949 . S
C788 C792 1.368 . S
C789 C770 1.429 . S
C789 C783 1.429 . S
C789 C790 1.523 . S
C790 C771 1.368 . S
C790 C784 1.368 . S
C790 C789 1.523 . S
C791 C775 1.429 . S
C791 C787 1.429 . S
C791 C792 1.523 . S
C792 C776 1.368 . S
C792 C788 1.368 . S
C792 C791 1.523 . S
H793 C768 0.950 . S
H794 C770 0.950 . S
H795 C771 0.949 . S
H796 C773 0.950 . S
H797 C775 0.950 . S
C798 C799 1.349 . S
C798 C800 1.327 . S
C798 H823 0.950 . S
C799 C798 1.349 . S
C799 C815 1.349 . S
C800 C798 1.327 . S
C800 C819 1.429 . S
C800 H824 0.950 . S
C801 C818 1.574 . S
C801 C820 1.368 . S
C801 H825 0.949 . S
H802 C806 0.949 . S
C803 C804 1.415 1_565 S
C803 C805 1.288 1_565 S
C803 H826 0.959 . S
C804 C803 1.415 1_545 S
C804 C816 1.355 . S
C805 C803 1.288 1_545 S
C805 C821 1.429 . S
C805 H827 0.950 . S
C806 H802 0.949 . S
C806 C814 1.574 . S
C806 C822 1.368 . S
H807 C815 0.950 . S
H808 C813 0.950 . S
H809 C814 0.949 . S
H810 C816 0.950 . S
H811 C817 0.950 . S
H812 C818 0.949 . S
C813 H808 0.950 . S
C813 C815 1.327 . S
C813 C819 1.429 . S
C814 C806 1.574 . S
C814 H809 0.949 . S
C814 C820 1.368 . S
C815 C799 1.349 . S
C815 H807 0.950 . S
C815 C813 1.327 . S
C816 C804 1.355 . S
C816 H810 0.950 . S
C816 C817 1.327 . S
C817 H811 0.950 . S
C817 C816 1.327 . S
C817 C821 1.429 . S
C818 C801 1.574 . S
C818 H812 0.949 . S
C818 C822 1.368 . S
C819 C800 1.429 . S
C819 C813 1.429 . S
C819 C820 1.523 . S
C820 C801 1.368 . S
C820 C814 1.368 . S
C820 C819 1.523 . S
C821 C805 1.429 . S
C821 C817 1.429 . S
C821 C822 1.523 . S
C822 C806 1.368 . S
C822 C818 1.368 . S
C822 C821 1.523 . S
H823 C798 0.950 . S
H824 C800 0.950 . S
H825 C801 0.949 . S
H826 C803 0.959 . S
H827 C805 0.950 . S
C828 C829 1.349 . S
C828 C830 1.327 . S
C828 H853 0.950 . S
C829 C828 1.349 . S
C829 C845 1.349 . S
C830 C828 1.327 . S
C830 C849 1.429 . S
C830 H854 0.950 . S
C831 C848 1.574 . S
C831 C850 1.368 . S
C831 H855 0.949 . S
H832 C836 0.949 . S
C833 C834 1.349 . S
C833 C835 1.327 . S
C833 H856 0.950 . S
C834 C833 1.349 . S
C834 C846 1.349 . S
C835 C833 1.327 . S
C835 C851 1.429 . S
C835 H857 0.950 . S
C836 H832 0.949 . S
C836 C844 1.574 . S
C836 C852 1.368 . S
H837 C845 0.950 . S
H838 C843 0.950 . S
H839 C844 0.949 . S
H840 C846 0.950 . S
H841 C847 0.950 . S
H842 C848 0.949 . S
C843 H838 0.950 . S
C843 C845 1.327 . S
C843 C849 1.429 . S
C844 C836 1.574 . S
C844 H839 0.949 . S
C844 C850 1.368 . S
C845 C829 1.349 . S
C845 H837 0.950 . S
C845 C843 1.327 . S
C846 C834 1.349 . S
C846 H840 0.950 . S
C846 C847 1.327 . S
C847 H841 0.950 . S
C847 C846 1.327 . S
C847 C851 1.429 . S
C848 C831 1.574 . S
C848 H842 0.949 . S
C848 C852 1.368 . S
C849 C830 1.429 . S
C849 C843 1.429 . S
C849 C850 1.523 . S
C850 C831 1.368 . S
C850 C844 1.368 . S
C850 C849 1.523 . S
C851 C835 1.429 . S
C851 C847 1.429 . S
C851 C852 1.523 . S
C852 C836 1.368 . S
C852 C848 1.368 . S
C852 C851 1.523 . S
H853 C828 0.950 . S
H854 C830 0.950 . S
H855 C831 0.949 . S
H856 C833 0.950 . S
H857 C835 0.950 . S
C858 C859 1.349 . S
C858 C860 1.327 . S
C858 H883 0.950 . S
C859 C858 1.349 . S
C859 C875 1.349 . S
C860 C858 1.327 . S
C860 C879 1.429 . S
C860 H884 0.950 . S
C861 C878 1.574 . S
C861 C880 1.368 . S
C861 H885 0.949 . S
H862 C866 0.949 . S
C863 C864 1.349 . S
C863 C865 1.327 . S
C863 H886 0.950 . S
C864 C863 1.349 . S
C864 C876 1.349 . S
C865 C863 1.327 . S
C865 C881 1.429 . S
C865 H887 0.950 . S
C866 H862 0.949 . S
C866 C874 1.574 . S
C866 C882 1.368 . S
H867 C875 0.950 . S
H868 C873 0.950 . S
H869 C874 0.949 . S
H870 C876 0.950 . S
H871 C877 0.950 . S
H872 C878 0.949 . S
C873 H868 0.950 . S
C873 C875 1.327 . S
C873 C879 1.429 . S
C874 C866 1.574 . S
C874 H869 0.949 . S
C874 C880 1.368 . S
C875 C859 1.349 . S
C875 H867 0.950 . S
C875 C873 1.327 . S
C876 C864 1.349 . S
C876 H870 0.950 . S
C876 C877 1.327 . S
C877 H871 0.950 . S
C877 C876 1.327 . S
C877 C881 1.429 . S
C878 C861 1.574 . S
C878 H872 0.949 . S
C878 C882 1.368 . S
C879 C860 1.429 . S
C879 C873 1.429 . S
C879 C880 1.523 . S
C880 C861 1.368 . S
C880 C874 1.368 . S
C880 C879 1.523 . S
C881 C865 1.429 . S
C881 C877 1.429 . S
C881 C882 1.523 . S
C882 C866 1.368 . S
C882 C878 1.368 . S
C882 C881 1.523 . S
H883 C858 0.950 . S
H884 C860 0.950 . S
H885 C861 0.949 . S
H886 C863 0.950 . S
H887 C865 0.950 . S
C888 C889 1.330 1_565 S
C888 C890 1.287 1_565 S
C888 H913 1.003 . S
C889 C888 1.330 1_545 S
C889 C905 1.424 . S
C890 C888 1.287 1_545 S
C890 C909 1.429 . S
C890 H914 0.950 . S
C891 C908 1.574 . S
C891 C910 1.368 . S
C891 H915 0.949 . S
H892 C896 0.949 . S
C893 C894 1.349 . S
C893 C895 1.327 . S
C893 H916 0.950 . S
C894 C893 1.349 . S
C894 C906 1.349 . S
C895 C893 1.327 . S
C895 C911 1.429 . S
C895 H917 0.950 . S
C896 H892 0.949 . S
C896 C904 1.574 . S
C896 C912 1.368 . S
H897 C905 0.950 . S
H898 C903 0.950 . S
H899 C904 0.949 . S
H900 C906 0.950 . S
H901 C907 0.950 . S
H902 C908 0.949 . S
C903 H898 0.950 . S
C903 C905 1.327 . S
C903 C909 1.429 . S
C904 C896 1.574 . S
C904 H899 0.949 . S
C904 C910 1.368 . S
C905 C889 1.424 . S
C905 H897 0.950 . S
C905 C903 1.327 . S
C906 C894 1.349 . S
C906 H900 0.950 . S
C906 C907 1.327 . S
C907 H901 0.950 . S
C907 C906 1.327 . S
C907 C911 1.429 . S
C908 C891 1.574 . S
C908 H902 0.949 . S
C908 C912 1.368 . S
C909 C890 1.429 . S
C909 C903 1.429 . S
C909 C910 1.523 . S
C910 C891 1.368 . S
C910 C904 1.368 . S
C910 C909 1.523 . S
C911 C895 1.429 . S
C911 C907 1.429 . S
C911 C912 1.523 . S
C912 C896 1.368 . S
C912 C908 1.368 . S
C912 C911 1.523 . S
H913 C888 1.003 . S
H914 C890 0.950 . S
H915 C891 0.949 . S
H916 C893 0.950 . S
H917 C895 0.950 . S
C918 C919 1.349 . S
C918 C920 1.327 . S
C918 H943 0.950 . S
C919 C918 1.349 . S
C919 C935 1.349 . S
C920 C918 1.327 . S
C920 C939 1.429 . S
C920 H944 0.950 . S
C921 C938 1.574 . S
C921 C940 1.368 . S
C921 H945 0.949 . S
H922 C926 0.949 . S
C923 C924 1.349 . S
C923 C925 1.327 . S
C923 H946 0.950 . S
C924 C923 1.349 . S
C924 C936 1.349 . S
C925 C923 1.327 . S
C925 C941 1.429 . S
C925 H947 0.950 . S
C926 H922 0.949 . S
C926 C934 1.574 . S
C926 C942 1.368 . S
H927 C935 0.950 . S
H928 C933 0.950 . S
H929 C934 0.949 . S
H930 C936 0.950 . S
H931 C937 0.950 . S
H932 C938 0.949 . S
C933 H928 0.950 . S
C933 C935 1.327 . S
C933 C939 1.429 . S
C934 C926 1.574 . S
C934 H929 0.949 . S
C934 C940 1.368 . S
C935 C919 1.349 . S
C935 H927 0.950 . S
C935 C933 1.327 . S
C936 C924 1.349 . S
C936 H930 0.950 . S
C936 C937 1.327 . S
C937 H931 0.950 . S
C937 C936 1.327 . S
C937 C941 1.429 . S
C938 C921 1.574 . S
C938 H932 0.949 . S
C938 C942 1.368 . S
C939 C920 1.429 . S
C939 C933 1.429 . S
C939 C940 1.523 . S
C940 C921 1.368 . S
C940 C934 1.368 . S
C940 C939 1.523 . S
C941 C925 1.429 . S
C941 C937 1.429 . S
C941 C942 1.523 . S
C942 C926 1.368 . S
C942 C938 1.368 . S
C942 C941 1.523 . S
H943 C918 0.950 . S
H944 C920 0.950 . S
H945 C921 0.949 . S
H946 C923 0.950 . S
H947 C925 0.950 . S
C948 C949 1.349 . S
C948 C950 1.327 . S
C948 H973 0.950 . S
C949 C948 1.349 . S
C949 C965 1.349 . S
C950 C948 1.327 . S
C950 C969 1.429 . S
C950 H974 0.950 . S
C951 C968 1.574 . S
C951 C970 1.368 . S
C951 H975 0.949 . S
H952 C956 0.949 . S
C953 C954 1.349 . S
C953 C955 1.327 1_655 S
C953 H976 0.950 . S
C954 C953 1.349 . S
C954 C966 1.349 . S
C955 C953 1.327 1_455 S
C955 C971 1.429 . S
C955 H977 0.950 . S
C956 H952 0.949 . S
C956 C964 1.574 . S
C956 C972 1.368 . S
H957 C965 0.950 . S
H958 C963 0.950 . S
H959 C964 0.949 . S
H960 C966 0.950 . S
H961 C967 0.950 . S
H962 C968 0.949 . S
C963 H958 0.950 . S
C963 C965 1.327 . S
C963 C969 1.429 . S
C964 C956 1.574 . S
C964 H959 0.949 . S
C964 C970 1.368 . S
C965 C949 1.349 . S
C965 H957 0.950 . S
C965 C963 1.327 . S
C966 C954 1.349 . S
C966 H960 0.950 . S
C966 C967 1.327 1_655 S
C967 H961 0.950 . S
C967 C966 1.327 1_455 S
C967 C971 1.429 . S
C968 C951 1.574 . S
C968 H962 0.949 . S
C968 C972 1.368 . S
C969 C950 1.429 . S
C969 C963 1.429 . S
C969 C970 1.523 . S
C970 C951 1.368 . S
C970 C964 1.368 . S
C970 C969 1.523 . S
C971 C955 1.429 . S
C971 C967 1.429 . S
C971 C972 1.523 . S
C972 C956 1.368 . S
C972 C968 1.368 . S
C972 C971 1.523 . S
H973 C948 0.950 . S
H974 C950 0.950 . S
H975 C951 0.949 . S
H976 C953 0.950 . S
H977 C955 0.950 . S
C978 C979 1.349 . S
C978 C980 1.327 . S
C978 H1003 0.950 . S
C979 C978 1.349 . S
C979 C995 1.349 . S
C980 C978 1.327 . S
C980 C999 1.429 . S
C980 H1004 0.950 . S
C981 C998 1.574 . S
C981 C1000 1.368 . S
C981 H1005 0.949 . S
H982 C986 0.949 . S
C983 C984 1.349 . S
C983 C985 1.327 . S
C983 H1006 0.950 . S
C984 C983 1.349 . S
C984 C996 1.349 . S
C985 C983 1.327 . S
C985 C1001 1.429 . S
C985 H1007 0.950 . S
C986 H982 0.949 . S
C986 C994 1.574 . S
C986 C1002 1.368 . S
H987 C995 0.950 . S
H988 C993 0.950 . S
H989 C994 0.949 . S
H990 C996 0.950 . S
H991 C997 0.950 . S
H992 C998 0.949 . S
C993 H988 0.950 . S
C993 C995 1.327 . S
C993 C999 1.429 . S
C994 C986 1.574 . S
C994 H989 0.949 . S
C994 C1000 1.368 . S
C995 C979 1.349 . S
C995 H987 0.950 . S
C995 C993 1.327 . S
C996 C984 1.349 . S
C996 H990 0.950 . S
C996 C997 1.327 . S
C997 H991 0.950 . S
C997 C996 1.327 . S
C997 C1001 1.429 . S
C998 C981 1.574 . S
C998 H992 0.949 . S
C998 C1002 1.368 . S
C999 C980 1.429 . S
C999 C993 1.429 . S
C999 C1000 1.523 . S
C1000 C981 1.368 . S
C1000 C994 1.368 . S
C1000 C999 1.523 . S
C1001 C985 1.429 . S
C1001 C997 1.429 . S
C1001 C1002 1.523 . S
C1002 C986 1.368 . S
C1002 C998 1.368 . S
C1002 C1001 1.523 . S
H1003 C978 0.950 . S
H1004 C980 0.950 . S
H1005 C981 0.949 . S
H1006 C983 0.950 . S
H1007 C985 0.950 . S
C199 C41 1.507 . S
C204 C8 1.521 . S
C229 C19 1.522 . S
C234 C52 1.522 . S
C259 C63 1.511 . S
C264 C30 1.516 . S
C289 C107 1.555 . S
C294 C74 1.548 . S
C319 C118 1.550 . S
C324 C85 1.552 . S
C349 C96 1.612 . S
C354 C129 1.611 . S
C379 C173 1.485 . S
C384 C140 1.498 . S
C409 C184 1.687 . S
C414 C151 1.687 . S
C439 C162 1.628 . S
C444 C195 1.627 . S
C469 C95 1.464 . S
C474 C5 1.315 . S
C499 C71 1.259 . S
C504 C18 1.466 . S
C529 C82 1.392 . S
C534 C27 1.361 . S
C559 C16 1.428 . S
C564 C159 1.474 . S
C589 C137 1.270 . S
C594 C29 1.408 . S
C619 C7 1.425 . S
C624 C150 1.454 . S
C649 C192 1.398 . S
C654 C38 1.342 . S
C679 C172 1.545 . S
C684 C49 1.426 1_556 S
C709 C62 1.431 . S
C714 C183 1.445 . S
C739 C128 1.435 . S
C744 C51 1.430 . S
C769 C104 1.384 . S
C774 C60 1.392 . S
C799 C40 1.548 . S
C804 C115 1.395 1_545 S
C829 C73 1.431 . S
C834 C161 1.487 . S
C859 C139 1.423 . S
C864 C84 1.450 . S
C889 C93 1.401 1_545 S
C894 C148 1.482 . S
C919 C117 1.379 1_545 S
C924 C194 1.383 . S
C949 C126 1.401 . S
C954 C170 1.328 . S
C979 C106 1.496 . S
C984 C181 1.407 . S
