# Generated by pormake.
# Topology vma, (5)-cn, num edge types: 1
# Building blocks:
#     Node 0, Type 0, BuildingBlock: XOMCOT_clean_sbu_1, # of connection points: 5
#     Node 1, Type 0, BuildingBlock: XOMCOT_clean_sbu_1, # of connection points: 5
#     Node 2, Type 0, BuildingBlock: XOMCOT_clean_sbu_1, # of connection points: 5
#     Node 3, Type 0, BuildingBlock: XOMCOT_clean_sbu_1, # of connection points: 5
#     Node 4, Type 0, BuildingBlock: XOMCOT_clean_sbu_1, # of connection points: 5
#     Node 5, Type 0, BuildingBlock: XOMCOT_clean_sbu_1, # of connection points: 5
#     Node 6, Type 0, BuildingBlock: XOMCOT_clean_sbu_1, # of connection points: 5
#     Node 7, Type 0, BuildingBlock: XOMCOT_clean_sbu_1, # of connection points: 5
#     Edge 8, Type (0, 0), BuildingBlock: OJICUG_clean_linker_0, # of connection points: 2
#     Edge 9, Type (0, 0), BuildingBlock: OJICUG_clean_linker_0, # of connection points: 2
#     Edge 10, Type (0, 0), BuildingBlock: OJICUG_clean_linker_0, # of connection points: 2
#     Edge 11, Type (0, 0), BuildingBlock: OJICUG_clean_linker_0, # of connection points: 2
#     Edge 12, Type (0, 0), BuildingBlock: OJICUG_clean_linker_0, # of connection points: 2
#     Edge 13, Type (0, 0), BuildingBlock: OJICUG_clean_linker_0, # of connection points: 2
#     Edge 14, Type (0, 0), BuildingBlock: OJICUG_clean_linker_0, # of connection points: 2
#     Edge 15, Type (0, 0), BuildingBlock: OJICUG_clean_linker_0, # of connection points: 2
#     Edge 16, Type (0, 0), BuildingBlock: OJICUG_clean_linker_0, # of connection points: 2
#     Edge 17, Type (0, 0), BuildingBlock: OJICUG_clean_linker_0, # of connection points: 2
#     Edge 18, Type (0, 0), BuildingBlock: OJICUG_clean_linker_0, # of connection points: 2
#     Edge 19, Type (0, 0), BuildingBlock: OJICUG_clean_linker_0, # of connection points: 2
#     Edge 20, Type (0, 0), BuildingBlock: OJICUG_clean_linker_0, # of connection points: 2
#     Edge 21, Type (0, 0), BuildingBlock: OJICUG_clean_linker_0, # of connection points: 2
#     Edge 22, Type (0, 0), BuildingBlock: OJICUG_clean_linker_0, # of connection points: 2
#     Edge 23, Type (0, 0), BuildingBlock: OJICUG_clean_linker_0, # of connection points: 2
#     Edge 24, Type (0, 0), BuildingBlock: OJICUG_clean_linker_0, # of connection points: 2
#     Edge 25, Type (0, 0), BuildingBlock: OJICUG_clean_linker_0, # of connection points: 2
#     Edge 26, Type (0, 0), BuildingBlock: OJICUG_clean_linker_0, # of connection points: 2
#     Edge 27, Type (0, 0), BuildingBlock: OJICUG_clean_linker_0, # of connection points: 2
# Relax obj value: 0.098
# Max RMSD: 0.172
# Mean RMSD: 0.169
data_MOF--net-vma--node1-XOMCOT_clean_sbu_1--edge1-OJICUG_clean_linker_0
_symmetry_space_group_name_H-M    P1
_symmetry_Int_Tables_number       1
_symmetry_cell_setting            triclinic
loop_
_symmetry_equiv_pos_as_xyz
'x, y, z'
_cell_length_a     29.718891
_cell_length_b     22.688364
_cell_length_c     26.672652
_cell_angle_alpha  89.778939
_cell_angle_beta   99.301216
_cell_angle_gamma 90.038822
loop_
_atom_site_label
_atom_site_type_symbol
_atom_site_fract_x
_atom_site_fract_y
_atom_site_fract_z
_atom_type_partial_charge
C0 C 0.3812 0.02457 0.31012 0.0
C1 C 0.42026 0.02315 0.28841 0.0
N2 N 0.45481 0.0467 0.32131 0.0
N3 N 0.39085 0.04856 0.35677 0.0
C4 C 0.4358 0.06209 0.36224 0.0
H5 H 0.34797 0.00846 0.29319 0.0
Co6 Co 0.35009 0.06011 0.40347 0.0
C7 C 0.40862 0.02509 0.50097 0.0
O8 O 0.37532 -0.00527 0.51539 0.0
N9 N 0.30882 0.07306 0.45154 0.0
C10 C 0.25857 0.06196 0.50501 0.0
C11 C 0.28464 0.03341 0.47449 0.0
C12 C 0.29656 0.12561 0.46959 0.0
N13 N 0.26587 0.12022 0.50184 0.0
O14 O 0.35797 0.14279 0.39653 0.0
H15 H 0.2859 -0.01386 0.47034 0.0
H16 H 0.31039 0.1674 0.45994 0.0
O17 O 0.40172 0.05332 0.45884 0.0
C18 C 0.32813 0.15243 0.35711 0.0
O19 O 0.3018 0.10853 0.33851 0.0
N20 N 0.33804 -0.02024 0.40135 0.0
C21 C 0.31618 0.8716 0.35475 0.0
C22 C 0.3588 0.88042 0.38564 0.0
C23 C 0.36944 0.93543 0.40804 0.0
C24 C 0.29576 0.97067 0.37402 0.0
C25 C 0.28397 0.91698 0.35083 0.0
H26 H 0.40399 0.94379 0.4263 0.0
H27 H 0.2721 0.00703 0.36672 0.0
H28 H 0.45413 0.08359 0.39545 0.0
H29 H 0.42302 0.00493 0.25161 0.0
H30 H 0.2357 0.04115 0.52741 0.0
H31 H 0.38469 0.84642 0.38996 0.0
H32 H 0.25113 0.91303 0.32668 0.0
C33 C 0.71785 0.04683 0.30599 0.0
C34 C 0.67936 0.04243 0.32857 0.0
N35 N 0.64292 0.05952 0.29471 0.0
N36 N 0.70595 0.06621 0.25785 0.0
C37 C 0.66026 0.07433 0.25242 0.0
H38 H 0.75222 0.0355 0.32329 0.0
Co39 Co 0.74465 0.07742 0.20904 0.0
C40 C 0.68944 0.02982 0.11485 0.0
O41 O 0.72546 0.00471 0.10153 0.0
N42 N 0.78403 0.09013 0.15863 0.0
C43 C 0.83677 0.0824 0.10775 0.0
C44 C 0.81372 0.05312 0.14111 0.0
C45 C 0.78954 0.14145 0.13391 0.0
N46 N 0.82182 0.13836 0.10349 0.0
O47 O 0.73049 0.15874 0.2082 0.0
H48 H 0.81859 0.00717 0.15111 0.0
H49 H 0.77 0.18077 0.13779 0.0
O50 O 0.69342 0.05993 0.15572 0.0
C51 C 0.76326 0.17683 0.24149 0.0
O52 O 0.79336 0.1386 0.2635 0.0
N53 N 0.7627 -0.00049 0.21771 0.0
C54 C 0.79523 0.89493 0.26441 0.0
C55 C 0.75123 0.89776 0.23551 0.0
C56 C 0.73525 0.95103 0.21284 0.0
C57 C 0.80563 -0.00305 0.24498 0.0
C58 C 0.82286 0.94497 0.26788 0.0
H59 H 0.70005 0.95424 0.19492 0.0
H60 H 0.82606 0.03647 0.25084 0.0
H61 H 0.64015 0.09142 0.21816 0.0
H62 H 0.67833 0.02625 0.36658 0.0
H63 H 0.86315 0.06391 0.08897 0.0
H64 H 0.72874 0.85991 0.23229 0.0
H65 H 0.8565 0.94508 0.29071 0.0
C66 C 0.66746 0.95305 0.58527 0.0
C67 C 0.62858 0.97604 0.55738 0.0
N68 N 0.59438 0.9707 0.58465 0.0
N69 N 0.65818 0.93277 0.63003 0.0
C70 C 0.61323 0.94411 0.62865 0.0
H71 H 0.70072 0.95227 0.57388 0.0
Co72 Co 0.7034 0.90286 0.68044 0.0
C73 C 0.65693 0.86695 0.76791 0.0
O74 O 0.69439 0.87794 0.79991 0.0
N75 N 0.75086 0.87288 0.73028 0.0
C76 C 0.81294 0.86349 0.78917 0.0
C77 C 0.78387 0.90269 0.76099 0.0
C78 C 0.76117 0.81543 0.74051 0.0
N79 N 0.79877 0.80867 0.7759 0.0
O80 O 0.70182 0.82899 0.64436 0.0
H81 H 0.78739 0.94996 0.76309 0.0
H82 H 0.74136 0.77895 0.72266 0.0
O83 O 0.65611 0.87509 0.72013 0.0
C84 C 0.73307 0.82984 0.61658 0.0
O85 O 0.75896 0.87696 0.61785 0.0
N86 N 0.70836 -0.02231 0.71063 0.0
C87 C 0.73389 0.09003 0.74638 0.0
C88 C 0.70105 0.05783 0.7673 0.0
C89 C 0.68779 0.00196 0.74794 0.0
C90 C 0.73843 0.00994 0.68827 0.0
C91 C 0.75169 0.06611 0.7055 0.0
H92 H 0.66137 -0.02094 0.76327 0.0
H93 H 0.75364 -0.00931 0.65798 0.0
H94 H 0.59499 0.93461 0.65971 0.0
H95 H 0.62574 -0.00514 0.51966 0.0
H96 H 0.84284 0.87444 0.81643 0.0
H97 H 0.68569 0.07582 0.79809 0.0
H98 H 0.77696 0.08972 0.68819 0.0
C99 C 0.43653 0.96808 0.98176 0.0
C100 C 0.47103 -0.00409 1.01342 0.0
N101 N 0.51051 0.96766 1.01081 0.0
N102 N 0.45398 0.92249 0.95901 0.0
C103 C 0.49901 0.92295 0.97773 0.0
H104 H 0.4011 -0.01872 0.97448 0.0
Co105 Co 0.42086 0.87571 0.90871 0.0
C106 C 0.49201 0.82353 0.85331 0.0
O107 O 0.46993 0.77344 0.84511 0.0
N108 N 0.38679 0.82949 0.85821 0.0
C109 C 0.35214 0.79468 0.78406 0.0
C110 C 0.38263 0.83574 0.80724 0.0
C111 C 0.35843 0.78469 0.86498 0.0
N112 N 0.33714 0.76263 0.82059 0.0
O113 O 0.43245 0.80688 0.95204 0.0
H114 H 0.40072 0.86804 0.78816 0.0
H115 H 0.35286 0.76876 0.90169 0.0
O116 O 0.47614 0.86449 0.87822 0.0
C117 C 0.4065 0.80921 0.98591 0.0
O118 O 0.38081 0.85615 0.98711 0.0
N119 N 0.40547 0.94314 0.86966 0.0
C120 C 0.37254 0.04873 0.82526 0.0
C121 C 0.41948 0.03683 0.83318 0.0
C122 C 0.4354 -0.01697 0.85521 0.0
C123 C 0.35989 0.95449 0.86237 0.0
C124 C 0.3426 0.00649 0.83929 0.0
H125 H 0.47168 0.97472 0.86296 0.0
H126 H 0.3369 0.92348 0.87594 0.0
H127 H 0.52285 0.89132 0.96691 0.0
H128 H 0.46732 0.03519 1.03524 0.0
H129 H 0.34267 0.78788 0.74358 0.0
H130 H 0.44348 0.06923 0.82352 0.0
H131 H 0.30628 0.01496 0.83482 0.0
C132 C 0.89252 0.54475 0.29761 0.0
C133 C 0.93123 0.5409 0.27539 0.0
N134 N 0.96725 0.5596 0.30901 0.0
N135 N 0.90386 0.56533 0.34531 0.0
C136 C 0.94941 0.57476 0.35078 0.0
H137 H 0.85841 0.53222 0.28039 0.0
Co138 Co 0.86498 0.57665 0.39387 0.0
C139 C 0.92029 0.52882 0.4882 0.0
O140 O 0.88449 0.50313 0.50167 0.0
N141 N 0.82557 0.58953 0.44413 0.0
C142 C 0.77309 0.58196 0.49541 0.0
C143 C 0.79614 0.5525 0.46233 0.0
C144 C 0.81992 0.64104 0.46818 0.0
N145 N 0.7878 0.63805 0.49881 0.0
O146 O 0.87928 0.65785 0.39423 0.0
H147 H 0.79145 0.50643 0.45296 0.0
H148 H 0.83928 0.68042 0.46373 0.0
O149 O 0.91604 0.55915 0.44727 0.0
C150 C 0.84678 0.6759 0.3605 0.0
O151 O 0.81691 0.63763 0.33831 0.0
N152 N 0.84676 0.49875 0.38568 0.0
C153 C 0.8142 0.39459 0.33884 0.0
C154 C 0.85822 0.39722 0.3677 0.0
C155 C 0.87421 0.45027 0.39047 0.0
C156 C 0.80375 0.49632 0.35864 0.0
C157 C 0.7865 0.44454 0.33566 0.0
H158 H 0.90944 0.4534 0.40827 0.0
H159 H 0.78331 0.53586 0.35284 0.0
H160 H 0.96903 0.59307 0.38472 0.0
H161 H 0.9327 0.52406 0.23779 0.0
H162 H 0.74691 0.56349 0.51463 0.0
H163 H 0.88075 0.35943 0.37073 0.0
H164 H 0.75283 0.44481 0.3129 0.0
C165 C 0.23013 0.53379 0.29562 0.0
C166 C 0.19121 0.53254 0.31764 0.0
N167 N 0.15589 0.55247 0.28353 0.0
N168 N 0.21962 0.55401 0.2476 0.0
C169 C 0.17434 0.56564 0.24162 0.0
H170 H 0.26384 0.51993 0.31321 0.0
Co171 Co 0.25951 0.56288 0.1999 0.0
C172 C 0.20104 0.52422 0.10381 0.0
O173 O 0.23467 0.49392 0.09027 0.0
N174 N 0.30024 0.57338 0.1505 0.0
C175 C 0.35172 0.561 0.0986 0.0
C176 C 0.32577 0.53329 0.13003 0.0
C177 C 0.31127 0.62512 0.12966 0.0
N178 N 0.3429 0.61906 0.09873 0.0
O179 O 0.25097 0.64538 0.20319 0.0
H180 H 0.32576 0.48634 0.13677 0.0
H181 H 0.29616 0.66696 0.13654 0.0
O182 O 0.20758 0.55357 0.1452 0.0
C183 C 0.28478 0.66046 0.23654 0.0
O184 O 0.31535 0.62052 0.25408 0.0
N185 N 0.27169 0.48266 0.20524 0.0
C186 C 0.29457 0.37318 0.24951 0.0
C187 C 0.25108 0.38307 0.22095 0.0
C188 C 0.24004 0.4386 0.19954 0.0
C189 C 0.31416 0.47335 0.23215 0.0
C190 C 0.32659 0.41878 0.25381 0.0
H191 H 0.20523 0.44734 0.18235 0.0
H192 H 0.33798 0.50957 0.2389 0.0
H193 H 0.15533 0.58403 0.20722 0.0
H194 H 0.18911 0.51675 0.35551 0.0
H195 H 0.37582 0.53994 0.07804 0.0
H196 H 0.2249 0.34946 0.2179 0.0
H197 H 0.36053 0.41306 0.27519 0.0
C198 C 0.17416 0.46996 0.61976 0.0
C199 C 0.13927 0.49772 0.58846 0.0
N200 N 0.1001 0.46866 0.59118 0.0
N201 N 0.15726 0.42366 0.64243 0.0
C202 C 0.11218 0.42358 0.62397 0.0
H203 H 0.20947 0.4837 0.62688 0.0
Co204 Co 0.19082 0.37652 0.69237 0.0
C205 C 0.1202 0.32404 0.74899 0.0
O206 O 0.1424 0.27405 0.75769 0.0
N207 N 0.22532 0.3299 0.74257 0.0
C208 C 0.26069 0.2947 0.81647 0.0
C209 C 0.23006 0.3359 0.79355 0.0
C210 C 0.25346 0.28508 0.73551 0.0
N211 N 0.2752 0.26279 0.77976 0.0
O212 O 0.17892 0.30815 0.64907 0.0
H213 H 0.21227 0.36812 0.81285 0.0
H214 H 0.25855 0.2693 0.69868 0.0
O215 O 0.13587 0.36486 0.72349 0.0
C216 C 0.20415 0.31087 0.6145 0.0
O217 O 0.22955 0.35799 0.61253 0.0
N218 N 0.20646 0.44361 0.73134 0.0
C219 C 0.23957 0.54898 0.77525 0.0
C220 C 0.19266 0.53694 0.76794 0.0
C221 C 0.17665 0.48323 0.74615 0.0
C222 C 0.25201 0.45511 0.73805 0.0
C223 C 0.2694 0.50702 0.76088 0.0
H224 H 0.14037 0.47483 0.73883 0.0
H225 H 0.27487 0.42431 0.7242 0.0
H226 H 0.08874 0.39126 0.63477 0.0
H227 H 0.14251 0.53746 0.56679 0.0
H228 H 0.27059 0.28772 0.85692 0.0
H229 H 0.16875 0.56916 0.77789 0.0
H230 H 0.30568 0.51563 0.76491 0.0
C231 C 0.94257 0.45248 1.01563 0.0
C232 C 0.9812 0.47521 1.04407 0.0
N233 N 1.01592 0.46956 1.01763 0.0
N234 N 0.95252 0.43205 0.97134 0.0
C235 C 0.99762 0.44302 0.97357 0.0
H236 H 0.90904 0.45195 1.02633 0.0
Co237 Co 0.90774 0.4023 0.92053 0.0
C238 C 0.955 0.36715 0.83375 0.0
O239 O 0.91772 0.37847 0.8015 0.0
N240 N 0.86068 0.37246 0.87032 0.0
C241 C 0.79902 0.3632 0.81089 0.0
C242 C 0.82785 0.40234 0.83922 0.0
C243 C 0.85051 0.31503 0.86015 0.0
N244 N 0.81316 0.30834 0.82444 0.0
O245 O 0.90897 0.32833 0.95685 0.0
H246 H 0.82428 0.44961 0.83697 0.0
H247 H 0.87023 0.27852 0.87831 0.0
O248 O 0.95552 0.37482 0.8815 0.0
C249 C 0.87734 0.32931 0.98412 0.0
O250 O 0.85143 0.37645 0.98206 0.0
N251 N 0.90303 0.47727 0.89012 0.0
C252 C 0.87791 0.58991 0.85415 0.0
C253 C 0.91105 0.55797 0.83373 0.0
C254 C 0.92411 0.50194 0.85323 0.0
C255 C 0.87262 0.50925 0.91198 0.0
C256 C 0.85956 0.56557 0.89464 0.0
H257 H 0.9508 0.47925 0.83836 0.0
H258 H 0.857 0.48969 0.94196 0.0
H259 H 1.0164 0.4333 0.94305 0.0
H260 H 0.9835 0.49409 0.0816 0.0
H261 H 0.76928 0.37423 0.78336 0.0
H262 H 0.92681 0.5763 0.80325 0.0
H263 H 0.83404 0.58899 0.91154 0.0
C264 C 0.21055 0.20176 0.59942 0.0
C265 C 0.21198 0.26012 0.5821 0.0
H266 H 0.22763 0.11155 0.5883 0.0
C267 C 0.22821 0.27094 0.53624 0.0
H268 H 0.19894 0.19217 0.63505 0.0
C269 C 0.24455 0.22506 0.50938 0.0
C270 C 0.2456 0.16689 0.52781 0.0
H271 H 0.22959 0.31549 0.52178 0.0
H272 H 0.25703 0.23557 0.47449 0.0
C273 C 0.22733 0.15561 0.57264 0.0
C274 C 0.8617 0.17425 1.03363 0.0
C275 C 0.83811 0.18576 0.07448 0.0
H276 H 0.89327 0.21052 0.97308 0.0
C277 C 0.83082 0.24482 0.08672 0.0
H278 H 0.86789 0.12946 1.0228 0.0
C279 C 0.84498 0.29077 0.05805 0.0
C280 C 0.86745 0.27936 1.01662 0.0
H281 H 0.81414 0.25597 0.11857 0.0
H282 H 0.83795 0.33562 0.06826 0.0
C283 C 0.87643 0.22064 1.00512 0.0
C284 C 0.73388 0.72101 0.59682 0.0
C285 C 0.74263 0.77966 0.58447 0.0
H286 H 0.74243 0.6297 0.58017 0.0
C287 C 0.76461 0.79078 0.54254 0.0
H288 H 0.71741 0.71112 0.62925 0.0
C289 C 0.77856 0.74462 0.51423 0.0
C290 C 0.77156 0.68564 0.52735 0.0
H291 H 0.77145 0.83556 0.53167 0.0
H292 H 0.79489 0.75555 0.482 0.0
C293 C 0.74839 0.67441 0.56867 0.0
C294 C 0.38167 0.76928 0.06389 0.0
C295 C 0.3983 0.75836 1.01837 0.0
H296 H 0.35203 0.73412 0.12535 0.0
C297 C 0.39963 0.69995 1.0014 0.0
H298 H 0.38037 0.81383 0.07809 0.0
C299 C 0.38236 0.65389 1.02823 0.0
C300 C 0.36361 0.66541 0.07259 0.0
H301 H 0.41156 0.69031 0.96603 0.0
H302 H 0.38203 0.60972 1.01304 0.0
C303 C 0.36478 0.72355 0.0907 0.0
C304 C 0.5602 0.05555 0.25924 0.0
C305 C 0.59537 0.05877 0.3014 0.0
H306 H 0.48851 0.04996 0.23227 0.0
C307 C 0.58314 0.05952 0.35028 0.0
H308 H 0.56795 0.05423 0.22101 0.0
C309 C 0.53728 0.05636 0.35681 0.0
C310 C 0.50217 0.05228 0.31464 0.0
H311 H 0.609 0.06255 0.38373 0.0
H312 H 0.52954 0.05592 0.39508 0.0
C313 C 0.51437 0.05235 0.26576 0.0
C314 C 0.57986 0.8186 0.76381 0.0
C315 C 0.61426 0.85558 0.78871 0.0
H316 H 0.5147 0.77805 0.76555 0.0
C317 C 0.60796 0.88195 0.83476 0.0
H318 H 0.58376 0.79776 0.7283 0.0
C319 C 0.56813 0.87205 0.8553 0.0
C320 C 0.53417 0.83399 0.8312 0.0
H321 H 0.63365 0.91113 0.85466 0.0
H322 H 0.56422 0.89362 0.89048 0.0
C323 C 0.54052 0.80713 0.7853 0.0
C324 C 0.09594 0.55786 0.33867 0.0
C325 C 0.10834 0.55648 0.28989 0.0
H326 H 1.04214 0.55939 0.38311 0.0
C327 C 0.07324 0.55777 0.24752 0.0
H328 H 0.12171 0.55759 0.37231 0.0
C329 C 1.02728 0.5596 0.25377 0.0
C330 C 1.01487 0.56015 0.30256 0.0
H331 H 0.08105 0.55622 0.20932 0.0
H332 H 1.0015 0.56058 0.22014 0.0
C333 C 1.04999 0.55963 0.34491 0.0
C334 C 0.07152 0.3074 0.81698 0.0
C335 C 0.07803 0.33448 0.77104 0.0
H336 H 1.02809 0.29773 0.87384 0.0
C337 C 1.04417 0.37275 0.74679 0.0
H338 H 0.09726 0.27814 0.83685 0.0
C339 C 1.0043 0.3826 0.7672 0.0
C340 C 0.99783 0.35596 0.81325 0.0
H341 H 1.04818 0.39452 0.71159 0.0
H342 H 0.97869 0.41192 0.74715 0.0
C343 C 1.03213 0.3188 0.83832 0.0
C344 C 0.25422 0.74527 0.27931 0.0
C345 C 0.2899 0.71938 0.25879 0.0
H346 H 0.23496 0.81209 0.32808 0.0
C347 C 0.33359 0.74429 0.26861 0.0
H348 H 0.22055 0.7256 0.27324 0.0
C349 C 0.34196 0.79369 0.29951 0.0
C350 C 0.30693 0.81856 0.32219 0.0
H351 H 0.36166 0.72449 0.25334 0.0
H352 H 0.37598 0.81221 0.30565 0.0
C353 C 0.26273 0.79429 0.3111 0.0
C354 C 0.78115 0.81191 0.32123 0.0
C355 C 0.81106 0.84183 0.29434 0.0
H356 H 0.77039 0.73591 0.36536 0.0
C357 C 0.85611 0.82124 0.29708 0.0
H358 H 0.74676 0.82774 0.32117 0.0
C359 C 0.86997 0.76934 0.32357 0.0
C360 C 0.83886 0.73781 0.34742 0.0
H361 H 0.87993 0.84371 0.27684 0.0
H362 H 0.90366 0.75176 0.3223 0.0
C363 C 0.79491 0.76019 0.34734 0.0
C364 C 0.7698 0.15265 0.81912 0.0
C365 C 0.75102 0.14753 0.76751 0.0
H366 H 0.80513 0.20815 0.87766 0.0
C367 C 0.75215 0.1964 0.73526 0.0
H368 H 0.76973 0.11535 0.84459 0.0
C369 C 0.772 0.24932 0.75415 0.0
C370 C 0.79191 0.25408 0.80544 0.0
H371 H 0.73801 0.19342 0.69528 0.0
H372 H 0.77283 0.28615 0.72839 0.0
C373 C 0.79047 0.20534 0.83784 0.0
C374 C 0.34045 0.20879 0.82774 0.0
C375 C 0.30444 0.21198 0.78661 0.0
H376 H 0.39153 0.15424 0.87124 0.0
C377 C 0.29528 0.16316 0.75431 0.0
H378 H 0.34839 0.24608 0.85282 0.0
C379 C 0.31961 0.11076 0.76503 0.0
C380 C 0.35414 0.10681 0.80753 0.0
H381 H 0.26755 0.16437 0.72254 0.0
H382 H 0.31016 0.07249 0.74148 0.0
C383 C 0.36539 0.15669 0.83789 0.0
C384 C 0.82844 0.31275 0.28143 0.0
C385 C 0.79848 0.34193 0.30854 0.0
H386 H 0.8394 0.23768 0.2368 0.0
C387 C 0.75346 0.32105 0.30563 0.0
H388 H 0.8628 0.32884 0.2816 0.0
C389 C 0.73974 0.26953 0.27879 0.0
C390 C 0.77092 0.23866 0.25473 0.0
H391 H 0.72959 0.34295 0.32601 0.0
H392 H 0.7061 0.25165 0.27997 0.0
C393 C 0.81481 0.26143 0.25495 0.0
C394 C 0.29061 0.2635 0.2537 0.0
C395 C 0.30572 0.31675 0.27689 0.0
H396 H 0.28644 0.17037 0.26075 0.0
C397 C 0.33057 0.31565 0.3267 0.0
H398 H 0.27221 0.26268 0.21518 0.0
C399 C 0.33925 0.26223 0.35302 0.0
C400 C 0.32285 0.20934 0.33001 0.0
H401 H 0.34226 0.35617 0.34584 0.0
H402 H 0.35755 0.26248 0.39159 0.0
C403 C 0.299 0.21055 0.27993 0.0
C404 C 0.29222 0.61071 0.83554 0.0
C405 C 0.258 0.60694 0.79277 0.0
H406 H 0.3441 0.66407 0.87825 0.0
C407 C 0.24719 0.65685 0.76199 0.0
H408 H 0.30135 0.57239 0.85938 0.0
C409 C 0.27222 0.70883 0.77209 0.0
C410 C 0.30788 0.71187 0.81358 0.0
H411 H 0.22131 0.65449 0.72841 0.0
H412 H 0.26461 0.74617 0.74674 0.0
C413 C 0.31662 0.66299 0.84621 0.0
C414 C 0.82147 0.70583 0.76256 0.0
C415 C 0.82014 0.75436 0.7949 0.0
H416 H 0.8421 0.61586 0.75593 0.0
C417 C 0.84021 0.7493 0.84615 0.0
H418 H 0.80668 0.70888 0.72278 0.0
C419 C 0.86004 0.69626 0.86509 0.0
C420 C 0.86102 0.64759 0.83291 0.0
H421 H 0.83946 0.78597 0.87185 0.0
H422 H 0.87424 0.69299 0.90506 0.0
C423 C 0.84215 0.65303 0.78132 0.0
C424 C 0.49218 0.04842 0.51272 0.0
C425 C 0.45602 0.01676 0.52791 0.0
H426 H 0.56429 0.05936 0.5194 0.0
C427 C 0.46617 0.9733 0.56592 0.0
H428 H 0.48573 0.08291 0.48434 0.0
C429 C 0.51151 0.95962 0.5861 0.0
C430 C 0.54767 -0.01097 0.56865 0.0
H431 H 0.43918 0.94807 0.57866 0.0
H432 H 0.51819 0.92425 0.61363 0.0
C433 C 0.53736 0.03469 0.53276 0.0
C434 C 0.60414 0.03649 0.10396 0.0
C435 C 0.64346 0.01627 0.08645 0.0
H436 H 0.53156 0.03568 0.09502 0.0
C437 C 0.63831 -0.01963 1.04303 0.0
H438 H 0.60665 0.06428 0.13708 0.0
C439 C 0.59489 0.96449 1.01817 0.0
C440 C 0.5555 -0.01612 1.03627 0.0
H441 H 0.66784 0.96409 1.02834 0.0
H442 H 0.59237 0.93735 0.9846 0.0
C443 C 0.56081 0.02025 0.07945 0.0
C444 C 1.01579 0.46352 0.58408 0.0
C445 C 1.05487 0.48443 0.56606 0.0
H446 H 0.94285 0.4614 0.57405 0.0
C447 C 1.04898 0.52181 0.52328 0.0
H448 H 1.01872 0.43555 0.61735 0.0
C449 C 1.00542 0.53752 0.49906 0.0
C450 C 0.96643 0.51576 0.51644 0.0
H451 H 0.07797 0.53845 0.50778 0.0
H452 H 1.00249 0.56617 0.46624 0.0
C453 C 0.97212 0.47888 0.55948 0.0
C454 C 0.11739 0.54725 0.09059 0.0
C455 C 0.15384 0.51538 0.0765 0.0
H456 H 1.04522 0.55846 0.08234 0.0
C457 C 0.14419 0.47157 1.039 0.0
H458 H 0.12347 0.582 0.11854 0.0
C459 C 0.09903 0.45792 1.01814 0.0
C460 C 0.06254 0.48767 1.03441 0.0
H461 H 0.17142 0.44618 1.0271 0.0
H462 H 0.09269 0.42237 0.99097 0.0
C463 C 0.07239 0.53354 0.06988 0.0
loop_
_geom_bond_atom_site_label_1
_geom_bond_atom_site_label_2
_geom_bond_distance
_geom_bond_site_symmetry_2
_ccdc_geom_bond_type
C0 C1 1.351 . S
C0 N3 1.368 . S
C0 H5 0.931 . S
C1 C0 1.351 . S
C1 N2 1.373 . S
C1 H29 0.930 . S
N2 C1 1.373 . S
N2 C4 1.340 . S
N3 C0 1.368 . S
N3 C4 1.321 . S
N3 Co6 2.135 . S
C4 N2 1.340 . S
C4 N3 1.321 . S
C4 H28 0.930 . S
H5 C0 0.931 . S
Co6 N3 2.135 . S
Co6 N9 2.121 . S
Co6 O14 2.055 . S
Co6 O17 2.039 . S
Co6 N20 2.140 . S
C7 O8 1.227 . S
C7 O17 1.265 . S
O8 C7 1.227 . S
N9 Co6 2.121 . S
N9 C11 1.375 . S
N9 C12 1.313 . S
C10 C11 1.338 . S
C10 N13 1.377 . S
C10 H30 0.930 . S
C11 N9 1.375 . S
C11 C10 1.338 . S
C11 H15 0.931 . S
C12 N9 1.313 . S
C12 N13 1.344 . S
C12 H16 0.930 . S
N13 C10 1.377 . S
N13 C12 1.344 . S
O14 Co6 2.055 . S
O14 C18 1.253 . S
H15 C11 0.931 . S
H16 C12 0.930 . S
O17 Co6 2.039 . S
O17 C7 1.265 . S
C18 O14 1.253 . S
C18 O19 1.227 . S
O19 C18 1.227 . S
N20 Co6 2.140 . S
N20 C23 1.346 . S
N20 C24 1.345 . S
C21 C22 1.387 . S
C21 C25 1.391 1_565 S
C22 C21 1.387 . S
C22 C23 1.369 1_565 S
C22 H31 0.929 . S
C23 N20 1.346 . S
C23 C22 1.369 1_545 S
C23 H26 0.928 . S
C24 N20 1.345 . S
C24 C25 1.371 . S
C24 H27 0.931 . S
C25 C21 1.391 1_545 S
C25 C24 1.371 . S
C25 H32 0.930 . S
H26 C23 0.928 . S
H27 C24 0.931 . S
H28 C4 0.930 . S
H29 C1 0.930 . S
H30 C10 0.930 . S
H31 C22 0.929 . S
H32 C25 0.930 . S
C33 C34 1.351 . S
C33 N36 1.368 . S
C33 H38 0.931 . S
C34 C33 1.351 . S
C34 N35 1.373 . S
C34 H62 0.930 . S
N35 C34 1.373 . S
N35 C37 1.340 . S
N36 C33 1.368 . S
N36 C37 1.321 . S
N36 Co39 2.135 . S
C37 N35 1.340 . S
C37 N36 1.321 . S
C37 H61 0.930 . S
H38 C33 0.931 . S
Co39 N36 2.135 . S
Co39 N42 2.121 . S
Co39 O47 2.055 . S
Co39 O50 2.039 . S
Co39 N53 2.140 . S
C40 O41 1.227 . S
C40 O50 1.265 . S
O41 C40 1.227 . S
N42 Co39 2.121 . S
N42 C44 1.375 . S
N42 C45 1.313 . S
C43 C44 1.338 . S
C43 N46 1.377 . S
C43 H63 0.930 . S
C44 N42 1.375 . S
C44 C43 1.338 . S
C44 H48 0.931 . S
C45 N42 1.313 . S
C45 N46 1.344 . S
C45 H49 0.930 . S
N46 C43 1.377 . S
N46 C45 1.344 . S
O47 Co39 2.055 . S
O47 C51 1.253 . S
H48 C44 0.931 . S
H49 C45 0.930 . S
O50 Co39 2.039 . S
O50 C40 1.265 . S
C51 O47 1.253 . S
C51 O52 1.227 . S
O52 C51 1.227 . S
N53 Co39 2.140 . S
N53 C56 1.346 . S
N53 C57 1.345 . S
C54 C55 1.387 . S
C54 C58 1.391 1_565 S
C55 C54 1.387 . S
C55 C56 1.369 1_565 S
C55 H64 0.929 . S
C56 N53 1.346 . S
C56 C55 1.369 1_545 S
C56 H59 0.928 . S
C57 N53 1.345 . S
C57 C58 1.371 . S
C57 H60 0.931 . S
C58 C54 1.391 1_545 S
C58 C57 1.371 . S
C58 H65 0.930 . S
H59 C56 0.928 . S
H60 C57 0.931 . S
H61 C37 0.930 . S
H62 C34 0.930 . S
H63 C43 0.930 . S
H64 C55 0.929 . S
H65 C58 0.930 . S
C66 C67 1.351 . S
C66 N69 1.368 . S
C66 H71 0.931 . S
C67 C66 1.351 . S
C67 N68 1.373 . S
C67 H95 0.935 . S
N68 C67 1.373 . S
N68 C70 1.340 . S
N69 C66 1.368 . S
N69 C70 1.321 . S
N69 Co72 2.135 . S
C70 N68 1.340 . S
C70 N69 1.321 . S
C70 H94 0.930 . S
H71 C66 0.931 . S
Co72 N69 2.135 . S
Co72 N75 2.121 . S
Co72 O80 2.055 . S
Co72 O83 2.039 . S
Co72 N86 2.140 . S
C73 O74 1.227 . S
C73 O83 1.265 . S
O74 C73 1.227 . S
N75 Co72 2.121 . S
N75 C77 1.375 . S
N75 C78 1.313 . S
C76 C77 1.338 . S
C76 N79 1.377 . S
C76 H96 0.930 . S
C77 N75 1.375 . S
C77 C76 1.338 . S
C77 H81 0.931 . S
C78 N75 1.313 . S
C78 N79 1.344 . S
C78 H82 0.930 . S
N79 C76 1.377 . S
N79 C78 1.344 . S
O80 Co72 2.055 . S
O80 C84 1.253 . S
H81 C77 0.931 . S
H82 C78 0.930 . S
O83 Co72 2.039 . S
O83 C73 1.265 . S
C84 O80 1.253 . S
C84 O85 1.227 . S
O85 C84 1.227 . S
N86 Co72 2.140 . S
N86 C89 1.346 . S
N86 C90 1.345 . S
C87 C88 1.387 . S
C87 C91 1.391 1_545 S
C88 C87 1.387 . S
C88 C89 1.369 1_545 S
C88 H97 0.929 . S
C89 N86 1.346 . S
C89 C88 1.369 1_565 S
C89 H92 0.928 . S
C90 N86 1.345 . S
C90 C91 1.371 . S
C90 H93 0.931 . S
C91 C87 1.391 1_565 S
C91 C90 1.371 . S
C91 H98 0.930 . S
H92 C89 0.928 . S
H93 C90 0.931 . S
H94 C70 0.930 . S
H95 C67 0.935 . S
H96 C76 0.930 . S
H97 C88 0.929 . S
H98 C91 0.930 . S
C99 C100 1.351 . S
C99 N102 1.368 . S
C99 H104 0.931 . S
C100 C99 1.351 . S
C100 N101 1.373 . S
C100 H128 0.935 1_556 S
N101 C100 1.373 . S
N101 C103 1.340 . S
N102 C99 1.368 . S
N102 C103 1.321 . S
N102 Co105 2.135 . S
C103 N101 1.340 . S
C103 N102 1.321 . S
C103 H127 0.930 . S
H104 C99 0.931 . S
Co105 N102 2.135 . S
Co105 N108 2.121 . S
Co105 O113 2.055 . S
Co105 O116 2.039 . S
Co105 N119 2.140 . S
C106 O107 1.227 . S
C106 O116 1.265 . S
O107 C106 1.227 . S
N108 Co105 2.121 . S
N108 C110 1.375 . S
N108 C111 1.313 . S
C109 C110 1.338 . S
C109 N112 1.377 . S
C109 H129 0.930 . S
C110 N108 1.375 . S
C110 C109 1.338 . S
C110 H114 0.931 . S
C111 N108 1.313 . S
C111 N112 1.344 . S
C111 H115 0.930 . S
N112 C109 1.377 . S
N112 C111 1.344 . S
O113 Co105 2.055 . S
O113 C117 1.253 . S
H114 C110 0.931 . S
H115 C111 0.930 . S
O116 Co105 2.039 . S
O116 C106 1.265 . S
C117 O113 1.253 . S
C117 O118 1.227 . S
O118 C117 1.227 . S
N119 Co105 2.140 . S
N119 C122 1.346 . S
N119 C123 1.345 . S
C120 C121 1.387 . S
C120 C124 1.391 1_545 S
C121 C120 1.387 . S
C121 C122 1.369 1_545 S
C121 H130 0.929 . S
C122 N119 1.346 . S
C122 C121 1.369 1_565 S
C122 H125 0.928 . S
C123 N119 1.345 . S
C123 C124 1.371 . S
C123 H126 0.931 . S
C124 C120 1.391 1_565 S
C124 C123 1.371 . S
C124 H131 0.930 . S
H125 C122 0.928 . S
H126 C123 0.931 . S
H127 C103 0.930 . S
H128 C100 0.935 1_554 S
H129 C109 0.930 . S
H130 C121 0.929 . S
H131 C124 0.930 . S
C132 C133 1.351 . S
C132 N135 1.368 . S
C132 H137 0.931 . S
C133 C132 1.351 . S
C133 N134 1.373 . S
C133 H161 0.930 . S
N134 C133 1.373 . S
N134 C136 1.340 . S
N135 C132 1.368 . S
N135 C136 1.321 . S
N135 Co138 2.135 . S
C136 N134 1.340 . S
C136 N135 1.321 . S
C136 H160 0.930 . S
H137 C132 0.931 . S
Co138 N135 2.135 . S
Co138 N141 2.121 . S
Co138 O146 2.055 . S
Co138 O149 2.039 . S
Co138 N152 2.140 . S
C139 O140 1.227 . S
C139 O149 1.265 . S
O140 C139 1.227 . S
N141 Co138 2.121 . S
N141 C143 1.375 . S
N141 C144 1.313 . S
C142 C143 1.338 . S
C142 N145 1.377 . S
C142 H162 0.930 . S
C143 N141 1.375 . S
C143 C142 1.338 . S
C143 H147 0.931 . S
C144 N141 1.313 . S
C144 N145 1.344 . S
C144 H148 0.930 . S
N145 C142 1.377 . S
N145 C144 1.344 . S
O146 Co138 2.055 . S
O146 C150 1.253 . S
H147 C143 0.931 . S
H148 C144 0.930 . S
O149 Co138 2.039 . S
O149 C139 1.265 . S
C150 O146 1.253 . S
C150 O151 1.227 . S
O151 C150 1.227 . S
N152 Co138 2.140 . S
N152 C155 1.346 . S
N152 C156 1.345 . S
C153 C154 1.387 . S
C153 C157 1.391 . S
C154 C153 1.387 . S
C154 C155 1.369 . S
C154 H163 0.929 . S
C155 N152 1.346 . S
C155 C154 1.369 . S
C155 H158 0.928 . S
C156 N152 1.345 . S
C156 C157 1.371 . S
C156 H159 0.931 . S
C157 C153 1.391 . S
C157 C156 1.371 . S
C157 H164 0.930 . S
H158 C155 0.928 . S
H159 C156 0.931 . S
H160 C136 0.930 . S
H161 C133 0.930 . S
H162 C142 0.930 . S
H163 C154 0.929 . S
H164 C157 0.930 . S
C165 C166 1.351 . S
C165 N168 1.368 . S
C165 H170 0.931 . S
C166 C165 1.351 . S
C166 N167 1.373 . S
C166 H194 0.930 . S
N167 C166 1.373 . S
N167 C169 1.340 . S
N168 C165 1.368 . S
N168 C169 1.321 . S
N168 Co171 2.135 . S
C169 N167 1.340 . S
C169 N168 1.321 . S
C169 H193 0.930 . S
H170 C165 0.931 . S
Co171 N168 2.135 . S
Co171 N174 2.121 . S
Co171 O179 2.055 . S
Co171 O182 2.039 . S
Co171 N185 2.140 . S
C172 O173 1.227 . S
C172 O182 1.265 . S
O173 C172 1.227 . S
N174 Co171 2.121 . S
N174 C176 1.375 . S
N174 C177 1.313 . S
C175 C176 1.338 . S
C175 N178 1.377 . S
C175 H195 0.930 . S
C176 N174 1.375 . S
C176 C175 1.338 . S
C176 H180 0.931 . S
C177 N174 1.313 . S
C177 N178 1.344 . S
C177 H181 0.930 . S
N178 C175 1.377 . S
N178 C177 1.344 . S
O179 Co171 2.055 . S
O179 C183 1.253 . S
H180 C176 0.931 . S
H181 C177 0.930 . S
O182 Co171 2.039 . S
O182 C172 1.265 . S
C183 O179 1.253 . S
C183 O184 1.227 . S
O184 C183 1.227 . S
N185 Co171 2.140 . S
N185 C188 1.346 . S
N185 C189 1.345 . S
C186 C187 1.387 . S
C186 C190 1.391 . S
C187 C186 1.387 . S
C187 C188 1.369 . S
C187 H196 0.929 . S
C188 N185 1.346 . S
C188 C187 1.369 . S
C188 H191 0.928 . S
C189 N185 1.345 . S
C189 C190 1.371 . S
C189 H192 0.931 . S
C190 C186 1.391 . S
C190 C189 1.371 . S
C190 H197 0.930 . S
H191 C188 0.928 . S
H192 C189 0.931 . S
H193 C169 0.930 . S
H194 C166 0.930 . S
H195 C175 0.930 . S
H196 C187 0.929 . S
H197 C190 0.930 . S
C198 C199 1.351 . S
C198 N201 1.368 . S
C198 H203 0.931 . S
C199 C198 1.351 . S
C199 N200 1.373 . S
C199 H227 0.930 . S
N200 C199 1.373 . S
N200 C202 1.340 . S
N201 C198 1.368 . S
N201 C202 1.321 . S
N201 Co204 2.135 . S
C202 N200 1.340 . S
C202 N201 1.321 . S
C202 H226 0.930 . S
H203 C198 0.931 . S
Co204 N201 2.135 . S
Co204 N207 2.121 . S
Co204 O212 2.055 . S
Co204 O215 2.039 . S
Co204 N218 2.140 . S
C205 O206 1.227 . S
C205 O215 1.265 . S
O206 C205 1.227 . S
N207 Co204 2.121 . S
N207 C209 1.375 . S
N207 C210 1.313 . S
C208 C209 1.338 . S
C208 N211 1.377 . S
C208 H228 0.930 . S
C209 N207 1.375 . S
C209 C208 1.338 . S
C209 H213 0.931 . S
C210 N207 1.313 . S
C210 N211 1.344 . S
C210 H214 0.930 . S
N211 C208 1.377 . S
N211 C210 1.344 . S
O212 Co204 2.055 . S
O212 C216 1.253 . S
H213 C209 0.931 . S
H214 C210 0.930 . S
O215 Co204 2.039 . S
O215 C205 1.265 . S
C216 O212 1.253 . S
C216 O217 1.227 . S
O217 C216 1.227 . S
N218 Co204 2.140 . S
N218 C221 1.346 . S
N218 C222 1.345 . S
C219 C220 1.387 . S
C219 C223 1.391 . S
C220 C219 1.387 . S
C220 C221 1.369 . S
C220 H229 0.929 . S
C221 N218 1.346 . S
C221 C220 1.369 . S
C221 H224 0.928 . S
C222 N218 1.345 . S
C222 C223 1.371 . S
C222 H225 0.931 . S
C223 C219 1.391 . S
C223 C222 1.371 . S
C223 H230 0.930 . S
H224 C221 0.928 . S
H225 C222 0.931 . S
H226 C202 0.930 . S
H227 C199 0.930 . S
H228 C208 0.930 . S
H229 C220 0.929 . S
H230 C223 0.930 . S
C231 C232 1.351 . S
C231 N234 1.368 . S
C231 H236 0.931 . S
C232 C231 1.351 . S
C232 N233 1.373 . S
C232 H260 0.930 1_556 S
N233 C232 1.373 . S
N233 C235 1.340 . S
N234 C231 1.368 . S
N234 C235 1.321 . S
N234 Co237 2.135 . S
C235 N233 1.340 . S
C235 N234 1.321 . S
C235 H259 0.930 . S
H236 C231 0.931 . S
Co237 N234 2.135 . S
Co237 N240 2.121 . S
Co237 O245 2.055 . S
Co237 O248 2.039 . S
Co237 N251 2.140 . S
C238 O239 1.227 . S
C238 O248 1.265 . S
O239 C238 1.227 . S
N240 Co237 2.121 . S
N240 C242 1.375 . S
N240 C243 1.313 . S
C241 C242 1.338 . S
C241 N244 1.377 . S
C241 H261 0.930 . S
C242 N240 1.375 . S
C242 C241 1.338 . S
C242 H246 0.931 . S
C243 N240 1.313 . S
C243 N244 1.344 . S
C243 H247 0.930 . S
N244 C241 1.377 . S
N244 C243 1.344 . S
O245 Co237 2.055 . S
O245 C249 1.253 . S
H246 C242 0.931 . S
H247 C243 0.930 . S
O248 Co237 2.039 . S
O248 C238 1.265 . S
C249 O245 1.253 . S
C249 O250 1.227 . S
O250 C249 1.227 . S
N251 Co237 2.140 . S
N251 C254 1.346 . S
N251 C255 1.345 . S
C252 C253 1.387 . S
C252 C256 1.391 . S
C253 C252 1.387 . S
C253 C254 1.369 . S
C253 H262 0.929 . S
C254 N251 1.346 . S
C254 C253 1.369 . S
C254 H257 0.928 . S
C255 N251 1.345 . S
C255 C256 1.371 . S
C255 H258 0.931 . S
C256 C252 1.391 . S
C256 C255 1.371 . S
C256 H263 0.930 . S
H257 C254 0.928 . S
H258 C255 0.931 . S
H259 C235 0.930 . S
H260 C232 0.930 1_554 S
H261 C241 0.930 . S
H262 C253 0.929 . S
H263 C256 0.930 . S
C264 C265 1.387 . S
C264 H268 0.950 . S
C264 C273 1.390 . S
C265 C264 1.387 . S
C265 C267 1.387 . S
H266 C273 0.950 . S
C267 C265 1.387 . S
C267 C269 1.390 . S
C267 H271 0.950 . S
H268 C264 0.950 . S
C269 C267 1.390 . S
C269 C270 1.387 . S
C269 H272 0.950 . S
C270 C269 1.387 . S
C270 C273 1.387 . S
H271 C267 0.950 . S
H272 C269 0.950 . S
C273 C264 1.390 . S
C273 H266 0.950 . S
C273 C270 1.387 . S
C274 C275 1.387 . S
C274 H278 0.950 . S
C274 C283 1.390 1_554 S
C275 C274 1.387 . S
C275 C277 1.387 . S
H276 C283 0.950 . S
C277 C275 1.387 . S
C277 C279 1.390 1_554 S
C277 H281 0.950 . S
H278 C274 0.950 . S
C279 C277 1.390 1_556 S
C279 C280 1.387 . S
C279 H282 0.950 . S
C280 C279 1.387 . S
C280 C283 1.387 . S
H281 C277 0.950 . S
H282 C279 0.950 . S
C283 C274 1.390 1_556 S
C283 H276 0.950 . S
C283 C280 1.387 . S
C284 C285 1.387 . S
C284 H288 0.950 . S
C284 C293 1.390 . S
C285 C284 1.387 . S
C285 C287 1.387 . S
H286 C293 0.950 . S
C287 C285 1.387 . S
C287 C289 1.390 . S
C287 H291 0.950 . S
H288 C284 0.950 . S
C289 C287 1.390 . S
C289 C290 1.387 . S
C289 H292 0.950 . S
C290 C289 1.387 . S
C290 C293 1.387 . S
H291 C287 0.950 . S
H292 C289 0.950 . S
C293 C284 1.390 . S
C293 H286 0.950 . S
C293 C290 1.387 . S
C294 C295 1.387 . S
C294 H298 0.950 . S
C294 C303 1.390 1_556 S
C295 C294 1.387 . S
C295 C297 1.387 . S
H296 C303 0.950 . S
C297 C295 1.387 . S
C297 C299 1.390 1_556 S
C297 H301 0.950 . S
H298 C294 0.950 . S
C299 C297 1.390 1_554 S
C299 C300 1.387 . S
C299 H302 0.950 . S
C300 C299 1.387 . S
C300 C303 1.387 . S
H301 C297 0.950 . S
H302 C299 0.950 . S
C303 C294 1.390 1_554 S
C303 H296 0.950 . S
C303 C300 1.387 . S
C304 C305 1.387 . S
C304 H308 0.950 . S
C304 C313 1.390 . S
C305 C304 1.387 . S
C305 C307 1.387 . S
H306 C313 0.950 . S
C307 C305 1.387 . S
C307 C309 1.390 . S
C307 H311 0.950 . S
H308 C304 0.950 . S
C309 C307 1.390 . S
C309 C310 1.387 . S
C309 H312 0.950 . S
C310 C309 1.387 . S
C310 C313 1.387 . S
H311 C307 0.950 . S
H312 C309 0.950 . S
C313 C304 1.390 . S
C313 H306 0.950 . S
C313 C310 1.387 . S
C314 C315 1.387 . S
C314 H318 0.950 . S
C314 C323 1.390 . S
C315 C314 1.387 . S
C315 C317 1.387 . S
H316 C323 0.950 . S
C317 C315 1.387 . S
C317 C319 1.390 . S
C317 H321 0.950 . S
H318 C314 0.950 . S
C319 C317 1.390 . S
C319 C320 1.387 . S
C319 H322 0.950 . S
C320 C319 1.387 . S
C320 C323 1.387 . S
H321 C317 0.950 . S
H322 C319 0.950 . S
C323 C314 1.390 . S
C323 H316 0.950 . S
C323 C320 1.387 . S
C324 C325 1.387 . S
C324 H328 0.950 . S
C324 C333 1.390 1_455 S
C325 C324 1.387 . S
C325 C327 1.387 . S
H326 C333 0.950 . S
C327 C325 1.387 . S
C327 C329 1.390 1_455 S
C327 H331 0.950 . S
H328 C324 0.950 . S
C329 C327 1.390 1_655 S
C329 C330 1.387 . S
C329 H332 0.950 . S
C330 C329 1.387 . S
C330 C333 1.387 . S
H331 C327 0.950 . S
H332 C329 0.950 . S
C333 C324 1.390 1_655 S
C333 H326 0.950 . S
C333 C330 1.387 . S
C334 C335 1.387 . S
C334 H338 0.950 . S
C334 C343 1.390 1_455 S
C335 C334 1.387 . S
C335 C337 1.387 . S
H336 C343 0.950 . S
C337 C335 1.387 . S
C337 C339 1.390 1_455 S
C337 H341 0.950 . S
H338 C334 0.950 . S
C339 C337 1.390 1_655 S
C339 C340 1.387 . S
C339 H342 0.950 . S
C340 C339 1.387 . S
C340 C343 1.387 . S
H341 C337 0.950 . S
H342 C339 0.950 . S
C343 C334 1.390 1_655 S
C343 H336 0.950 . S
C343 C340 1.387 . S
C344 C345 1.387 . S
C344 H348 0.950 . S
C344 C353 1.390 . S
C345 C344 1.387 . S
C345 C347 1.387 . S
H346 C353 0.950 . S
C347 C345 1.387 . S
C347 C349 1.390 . S
C347 H351 0.950 . S
H348 C344 0.950 . S
C349 C347 1.390 . S
C349 C350 1.387 . S
C349 H352 0.950 . S
C350 C349 1.387 . S
C350 C353 1.387 . S
H351 C347 0.950 . S
H352 C349 0.950 . S
C353 C344 1.390 . S
C353 H346 0.950 . S
C353 C350 1.387 . S
C354 C355 1.387 . S
C354 H358 0.950 . S
C354 C363 1.390 . S
C355 C354 1.387 . S
C355 C357 1.387 . S
H356 C363 0.950 . S
C357 C355 1.387 . S
C357 C359 1.390 . S
C357 H361 0.950 . S
H358 C354 0.950 . S
C359 C357 1.390 . S
C359 C360 1.387 . S
C359 H362 0.950 . S
C360 C359 1.387 . S
C360 C363 1.387 . S
H361 C357 0.950 . S
H362 C359 0.950 . S
C363 C354 1.390 . S
C363 H356 0.950 . S
C363 C360 1.387 . S
C364 C365 1.387 . S
C364 H368 0.950 . S
C364 C373 1.390 . S
C365 C364 1.387 . S
C365 C367 1.387 . S
H366 C373 0.950 . S
C367 C365 1.387 . S
C367 C369 1.390 . S
C367 H371 0.950 . S
H368 C364 0.950 . S
C369 C367 1.390 . S
C369 C370 1.387 . S
C369 H372 0.950 . S
C370 C369 1.387 . S
C370 C373 1.387 . S
H371 C367 0.950 . S
H372 C369 0.950 . S
C373 C364 1.390 . S
C373 H366 0.950 . S
C373 C370 1.387 . S
C374 C375 1.387 . S
C374 H378 0.950 . S
C374 C383 1.390 . S
C375 C374 1.387 . S
C375 C377 1.387 . S
H376 C383 0.950 . S
C377 C375 1.387 . S
C377 C379 1.390 . S
C377 H381 0.950 . S
H378 C374 0.950 . S
C379 C377 1.390 . S
C379 C380 1.387 . S
C379 H382 0.950 . S
C380 C379 1.387 . S
C380 C383 1.387 . S
H381 C377 0.950 . S
H382 C379 0.950 . S
C383 C374 1.390 . S
C383 H376 0.950 . S
C383 C380 1.387 . S
C384 C385 1.387 . S
C384 H388 0.950 . S
C384 C393 1.390 . S
C385 C384 1.387 . S
C385 C387 1.387 . S
H386 C393 0.950 . S
C387 C385 1.387 . S
C387 C389 1.390 . S
C387 H391 0.950 . S
H388 C384 0.950 . S
C389 C387 1.390 . S
C389 C390 1.387 . S
C389 H392 0.950 . S
C390 C389 1.387 . S
C390 C393 1.387 . S
H391 C387 0.950 . S
H392 C389 0.950 . S
C393 C384 1.390 . S
C393 H386 0.950 . S
C393 C390 1.387 . S
C394 C395 1.387 . S
C394 H398 0.950 . S
C394 C403 1.390 . S
C395 C394 1.387 . S
C395 C397 1.387 . S
H396 C403 0.950 . S
C397 C395 1.387 . S
C397 C399 1.390 . S
C397 H401 0.950 . S
H398 C394 0.950 . S
C399 C397 1.390 . S
C399 C400 1.387 . S
C399 H402 0.950 . S
C400 C399 1.387 . S
C400 C403 1.387 . S
H401 C397 0.950 . S
H402 C399 0.950 . S
C403 C394 1.390 . S
C403 H396 0.950 . S
C403 C400 1.387 . S
C404 C405 1.387 . S
C404 H408 0.950 . S
C404 C413 1.390 . S
C405 C404 1.387 . S
C405 C407 1.387 . S
H406 C413 0.950 . S
C407 C405 1.387 . S
C407 C409 1.390 . S
C407 H411 0.950 . S
H408 C404 0.950 . S
C409 C407 1.390 . S
C409 C410 1.387 . S
C409 H412 0.950 . S
C410 C409 1.387 . S
C410 C413 1.387 . S
H411 C407 0.950 . S
H412 C409 0.950 . S
C413 C404 1.390 . S
C413 H406 0.950 . S
C413 C410 1.387 . S
C414 C415 1.387 . S
C414 H418 0.950 . S
C414 C423 1.390 . S
C415 C414 1.387 . S
C415 C417 1.387 . S
H416 C423 0.950 . S
C417 C415 1.387 . S
C417 C419 1.390 . S
C417 H421 0.950 . S
H418 C414 0.950 . S
C419 C417 1.390 . S
C419 C420 1.387 . S
C419 H422 0.950 . S
C420 C419 1.387 . S
C420 C423 1.387 . S
H421 C417 0.950 . S
H422 C419 0.950 . S
C423 C414 1.390 . S
C423 H416 0.950 . S
C423 C420 1.387 . S
C424 C425 1.387 . S
C424 H428 0.950 . S
C424 C433 1.390 . S
C425 C424 1.387 . S
C425 C427 1.387 . S
H426 C433 0.950 . S
C427 C425 1.387 . S
C427 C429 1.390 1_545 S
C427 H431 0.950 1_545 S
H428 C424 0.950 . S
C429 C427 1.390 1_565 S
C429 C430 1.387 1_565 S
C429 H432 0.950 . S
C430 C429 1.387 1_545 S
C430 C433 1.387 . S
H431 C427 0.950 1_565 S
H432 C429 0.950 . S
C433 C424 1.390 . S
C433 H426 0.950 . S
C433 C430 1.387 . S
C434 C435 1.387 . S
C434 H438 0.950 1_554 S
C434 C443 1.390 1_554 S
C435 C434 1.387 . S
C435 C437 1.387 . S
H436 C443 0.950 . S
C437 C435 1.387 . S
C437 C439 1.390 1_545 S
C437 H441 0.950 1_545 S
H438 C434 0.950 1_556 S
C439 C437 1.390 1_565 S
C439 C440 1.387 1_564 S
C439 H442 0.950 . S
C440 C439 1.387 1_546 S
C440 C443 1.387 . S
H441 C437 0.950 1_565 S
H442 C439 0.950 . S
C443 C434 1.390 1_556 S
C443 H436 0.950 . S
C443 C440 1.387 . S
C444 C445 1.387 1_655 S
C444 H448 0.950 . S
C444 C453 1.390 . S
C445 C444 1.387 1_455 S
C445 C447 1.387 1_455 S
H446 C453 0.950 . S
C447 C445 1.387 1_655 S
C447 C449 1.390 . S
C447 H451 0.950 . S
H448 C444 0.950 . S
C449 C447 1.390 . S
C449 C450 1.387 . S
C449 H452 0.950 . S
C450 C449 1.387 . S
C450 C453 1.387 . S
H451 C447 0.950 . S
H452 C449 0.950 . S
C453 C444 1.390 . S
C453 H446 0.950 . S
C453 C450 1.387 . S
C454 C455 1.387 . S
C454 H458 0.950 . S
C454 C463 1.390 . S
C455 C454 1.387 . S
C455 C457 1.387 1_554 S
H456 C463 0.950 1_655 S
C457 C455 1.387 1_556 S
C457 C459 1.390 . S
C457 H461 0.950 . S
H458 C454 0.950 . S
C459 C457 1.390 . S
C459 C460 1.387 1_455 S
C459 H462 0.950 . S
C460 C459 1.387 1_655 S
C460 C463 1.387 1_656 S
H461 C457 0.950 . S
H462 C459 0.950 . S
C463 C454 1.390 . S
C463 H456 0.950 1_455 S
C463 C460 1.387 1_454 S
C265 C216 1.657 . S
C270 N13 1.614 . S
C275 N46 1.614 . S
C280 C249 1.657 . S
C285 C84 1.657 . S
C290 N145 1.613 . S
C295 C117 1.658 . S
C300 N178 1.611 . S
C305 N35 1.305 . S
C310 N2 1.305 . S
C315 C73 1.445 . S
C320 C106 1.445 . S
C325 N167 1.305 . S
C330 N134 1.305 . S
C335 C205 1.445 . S
C340 C238 1.445 . S
C345 C183 1.458 . S
C350 C21 1.459 . S
C355 C54 1.459 . S
C360 C150 1.457 . S
C365 C87 1.383 . S
C370 N244 1.362 . S
C375 N211 1.364 . S
C380 C120 1.383 . S
C385 C153 1.459 . S
C390 C51 1.457 . S
C395 C186 1.458 . S
C400 C18 1.457 . S
C405 C219 1.383 . S
C410 N112 1.363 . S
C415 N79 1.362 . S
C420 C252 1.383 . S
C425 C7 1.546 . S
C430 N68 1.528 1_545 S
C435 C40 1.545 . S
C440 N101 1.528 1_545 S
C445 N200 1.527 . S
C450 C139 1.546 . S
C455 C172 1.546 . S
C460 N233 1.527 . S
