# Generated by pormake.
# Topology uoq, (4)-cn, num edge types: 1
# Building blocks:
#     Node 0, Type 0, BuildingBlock: AZAVOO_clean_sbu_0, # of connection points: 4
#     Node 1, Type 0, BuildingBlock: AZAVOO_clean_sbu_0, # of connection points: 4
#     Node 2, Type 0, BuildingBlock: AZAVOO_clean_sbu_0, # of connection points: 4
#     Node 3, Type 0, BuildingBlock: AZAVOO_clean_sbu_0, # of connection points: 4
#     Node 4, Type 0, BuildingBlock: AZAVOO_clean_sbu_0, # of connection points: 4
#     Node 5, Type 0, BuildingBlock: AZAVOO_clean_sbu_0, # of connection points: 4
#     Node 6, Type 0, BuildingBlock: AZAVOO_clean_sbu_0, # of connection points: 4
#     Node 7, Type 0, BuildingBlock: AZAVOO_clean_sbu_0, # of connection points: 4
#     Node 8, Type 0, BuildingBlock: AZAVOO_clean_sbu_0, # of connection points: 4
#     Node 9, Type 0, BuildingBlock: AZAVOO_clean_sbu_0, # of connection points: 4
#     Node 10, Type 0, BuildingBlock: AZAVOO_clean_sbu_0, # of connection points: 4
#     Node 11, Type 0, BuildingBlock: AZAVOO_clean_sbu_0, # of connection points: 4
#     Edge 12, Type (0, 0), BuildingBlock: XIVTED_clean_linker_0, # of connection points: 2
#     Edge 13, Type (0, 0), BuildingBlock: XIVTED_clean_linker_0, # of connection points: 2
#     Edge 14, Type (0, 0), BuildingBlock: XIVTED_clean_linker_0, # of connection points: 2
#     Edge 15, Type (0, 0), BuildingBlock: XIVTED_clean_linker_0, # of connection points: 2
#     Edge 16, Type (0, 0), BuildingBlock: XIVTED_clean_linker_0, # of connection points: 2
#     Edge 17, Type (0, 0), BuildingBlock: XIVTED_clean_linker_0, # of connection points: 2
#     Edge 18, Type (0, 0), BuildingBlock: XIVTED_clean_linker_0, # of connection points: 2
#     Edge 19, Type (0, 0), BuildingBlock: XIVTED_clean_linker_0, # of connection points: 2
#     Edge 20, Type (0, 0), BuildingBlock: XIVTED_clean_linker_0, # of connection points: 2
#     Edge 21, Type (0, 0), BuildingBlock: XIVTED_clean_linker_0, # of connection points: 2
#     Edge 22, Type (0, 0), BuildingBlock: XIVTED_clean_linker_0, # of connection points: 2
#     Edge 23, Type (0, 0), BuildingBlock: XIVTED_clean_linker_0, # of connection points: 2
#     Edge 24, Type (0, 0), BuildingBlock: XIVTED_clean_linker_0, # of connection points: 2
#     Edge 25, Type (0, 0), BuildingBlock: XIVTED_clean_linker_0, # of connection points: 2
#     Edge 26, Type (0, 0), BuildingBlock: XIVTED_clean_linker_0, # of connection points: 2
#     Edge 27, Type (0, 0), BuildingBlock: XIVTED_clean_linker_0, # of connection points: 2
#     Edge 28, Type (0, 0), BuildingBlock: XIVTED_clean_linker_0, # of connection points: 2
#     Edge 29, Type (0, 0), BuildingBlock: XIVTED_clean_linker_0, # of connection points: 2
#     Edge 30, Type (0, 0), BuildingBlock: XIVTED_clean_linker_0, # of connection points: 2
#     Edge 31, Type (0, 0), BuildingBlock: XIVTED_clean_linker_0, # of connection points: 2
#     Edge 32, Type (0, 0), BuildingBlock: XIVTED_clean_linker_0, # of connection points: 2
#     Edge 33, Type (0, 0), BuildingBlock: XIVTED_clean_linker_0, # of connection points: 2
#     Edge 34, Type (0, 0), BuildingBlock: XIVTED_clean_linker_0, # of connection points: 2
#     Edge 35, Type (0, 0), BuildingBlock: XIVTED_clean_linker_0, # of connection points: 2
# Relax obj value: 0.087
# Max RMSD: 0.084
# Mean RMSD: 0.084
data_MOF--net-uoq--node1-AZAVOO_clean_sbu_0--edge1-XIVTED_clean_linker_0
_symmetry_space_group_name_H-M    P1
_symmetry_Int_Tables_number       1
_symmetry_cell_setting            triclinic
loop_
_symmetry_equiv_pos_as_xyz
'x, y, z'
_cell_length_a     58.580421
_cell_length_b     58.619063
_cell_length_c     23.705643
_cell_angle_alpha  90.025945
_cell_angle_beta   90.004887
_cell_angle_gamma 120.00492
loop_
_atom_site_label
_atom_site_type_symbol
_atom_site_fract_x
_atom_site_fract_y
_atom_site_fract_z
_atom_type_partial_charge
Mg0 Mg 0.30409 0.43485 0.22873 0.0
O1 O 0.28106 0.43611 0.30678 0.0
O2 O 0.30707 0.4445 0.38231 0.0
Mg3 Mg 0.34561 0.44773 0.35465 0.0
C4 C 0.2854 0.44 0.35983 0.0
C5 C 0.25257 0.42792 0.17344 0.0
O6 O 0.25711 0.44621 0.21096 0.0
O7 O 0.29572 0.39378 0.25499 0.0
O8 O 0.32201 0.40415 0.33049 0.0
O9 O 0.3227 0.47848 0.21719 0.0
O10 O 0.33896 0.45937 0.27143 0.0
C11 C 0.30516 0.38721 0.29644 0.0
C12 C 0.3401 0.48065 0.25368 0.0
O13 O 0.26766 0.41816 0.17183 0.0
Mg14 Mg 0.85487 0.30829 0.58644 0.0
O15 O 0.82826 0.28402 0.66115 0.0
O16 O 0.8461 0.30885 0.73822 0.0
Mg17 Mg 0.8827 0.34723 0.71567 0.0
C18 C 0.82846 0.28782 0.71445 0.0
C19 C 0.84044 0.28181 0.47365 0.0
O20 O 0.8563 0.30707 0.46442 0.0
O21 O 0.88595 0.2977 0.6138 0.0
O22 O 0.90185 0.32295 0.69076 0.0
O23 O 0.83167 0.32885 0.57437 0.0
O24 O 0.86576 0.34258 0.63173 0.0
C25 C 0.90163 0.3062 0.65596 0.0
C26 C 0.84669 0.34525 0.6126 0.0
O27 O 0.83547 0.27386 0.52449 0.0
Mg28 Mg 0.55216 0.86569 0.91306 0.0
O29 O 0.54725 0.84074 0.99219 0.0
O30 O 0.54073 0.86045 0.0663 0.0
Mg31 Mg 0.54354 0.89855 0.0365 0.0
C32 C 0.54296 0.8417 0.04483 0.0
C33 C 0.55197 0.81678 0.85855 0.0
O34 O 0.53234 0.8045 0.89417 0.0
O35 O 0.59463 0.89485 0.93954 0.0
O36 O 0.58672 0.91302 0.01468 0.0
O37 O 0.5082 0.84508 0.90278 0.0
O38 O 0.53148 0.88147 0.9523 0.0
C39 C 0.60261 0.9107 0.98144 0.0
C40 C 0.50881 0.86293 0.93596 0.0
O41 O 0.56486 0.84181 0.85846 0.0
Mg42 Mg 0.68274 0.55342 0.25182 0.0
O43 O 0.70497 0.5503 0.32891 0.0
O44 O 0.67858 0.54086 0.40404 0.0
Mg45 Mg 0.64031 0.53836 0.3766 0.0
C46 C 0.7003 0.54552 0.3816 0.0
C47 C 0.71798 0.57523 0.14645 0.0
O48 O 0.69512 0.5711 0.12759 0.0
O49 O 0.69108 0.59397 0.28195 0.0
O50 O 0.66412 0.5824 0.35647 0.0
O51 O 0.66411 0.51013 0.23609 0.0
O52 O 0.6473 0.52819 0.29196 0.0
C53 C 0.68132 0.59988 0.32385 0.0
C54 C 0.64631 0.50726 0.2722 0.0
O55 O 0.72005 0.57096 0.19826 0.0
Mg56 Mg 0.12967 0.68422 0.57893 0.0
O57 O 0.15671 0.70643 0.65413 0.0
O58 O 0.14022 0.68056 0.73009 0.0
Mg59 Mg 0.10326 0.64278 0.70521 0.0
C60 C 0.15745 0.70191 0.70671 0.0
C61 C 0.14411 0.71795 0.4718 0.0
O62 O 0.12678 0.69439 0.45333 0.0
O63 O 0.09887 0.69404 0.61171 0.0
O64 O 0.08382 0.66754 0.68696 0.0
O65 O 0.15287 0.66416 0.56094 0.0
O66 O 0.11896 0.64883 0.61938 0.0
C67 C 0.0837 0.68488 0.65453 0.0
C68 C 0.1381 0.64686 0.59803 0.0
O69 O 0.14938 0.72107 0.52422 0.0
Mg70 Mg 0.43664 0.12427 0.90959 0.0
O71 O 0.44208 0.14902 0.98891 0.0
O72 O 0.4487 0.12924 0.06265 0.0
Mg73 Mg 0.44571 0.09115 0.03168 0.0
C74 C 0.44654 0.14806 0.0414 0.0
C75 C 0.41732 0.1421 0.80741 0.0
O76 O 0.41695 0.12084 0.78851 0.0
O77 O 0.39429 0.09501 0.93632 0.0
O78 O 0.40241 0.07647 0.01039 0.0
O79 O 0.4805 0.14497 0.89867 0.0
O80 O 0.45747 0.10825 0.94727 0.0
C81 C 0.38641 0.07885 0.97764 0.0
C82 C 0.48006 0.127 0.93112 0.0
O83 O 0.42382 0.14887 0.85848 0.0
Mg84 Mg 0.54072 0.67991 0.42539 0.0
O85 O 0.53883 0.70445 0.35063 0.0
O86 O 0.53296 0.68011 0.27325 0.0
Mg87 Mg 0.53153 0.6419 0.29558 0.0
C88 C 0.5358 0.70089 0.29717 0.0
C89 C 0.55201 0.70563 0.53886 0.0
O90 O 0.54306 0.68039 0.54727 0.0
O91 O 0.58278 0.69116 0.40016 0.0
O92 O 0.5747 0.66656 0.32251 0.0
O93 O 0.49683 0.65884 0.43532 0.0
O94 O 0.5181 0.64583 0.37885 0.0
C95 C 0.59066 0.6832 0.35827 0.0
C96 C 0.49604 0.64277 0.39696 0.0
O97 O 0.55489 0.7139 0.4883 0.0
Mg98 Mg 0.8615 0.55397 0.76948 0.0
O99 O 0.83653 0.5512 0.69189 0.0
O100 O 0.85402 0.54247 0.61668 0.0
Mg101 Mg 0.88985 0.54017 0.64459 0.0
C102 C 0.83672 0.54679 0.63906 0.0
C103 C 0.84778 0.57583 0.87465 0.0
O104 O 0.86707 0.5726 0.89353 0.0
O105 O 0.89376 0.59485 0.74118 0.0
O106 O 0.90967 0.58401 0.66639 0.0
O107 O 0.83694 0.51051 0.78339 0.0
O108 O 0.8722 0.52929 0.7287 0.0
C109 C 0.90966 0.60117 0.69961 0.0
C110 C 0.85219 0.50812 0.74734 0.0
O111 O 0.84117 0.57091 0.82307 0.0
Mg112 Mg 0.30622 0.86549 0.09211 0.0
O113 O 0.28664 0.84028 0.01359 0.0
O114 O 0.3129 0.8593 0.93929 0.0
Mg115 Mg 0.34838 0.89739 0.9693 0.0
C116 C 0.29187 0.84078 0.96112 0.0
C117 C 0.26888 0.84831 0.19418 0.0
O118 O 0.28987 0.86941 0.21334 0.0
O119 O 0.29355 0.89486 0.06396 0.0
O120 O 0.32021 0.91273 0.9896 0.0
O121 O 0.32904 0.84454 0.10433 0.0
O122 O 0.34303 0.88096 0.05444 0.0
C123 C 0.30193 0.91076 0.0222 0.0
C124 C 0.34668 0.86222 0.07155 0.0
O125 O 0.26869 0.84146 0.14321 0.0
Mg126 Mg 0.44251 0.30591 0.4203 0.0
O127 O 0.44759 0.28407 0.34465 0.0
O128 O 0.45666 0.31014 0.26911 0.0
Mg129 Mg 0.45696 0.34759 0.29452 0.0
C130 C 0.4528 0.28881 0.29208 0.0
C131 C 0.424 0.27236 0.52755 0.0
O132 O 0.43026 0.29597 0.54575 0.0
O133 O 0.40164 0.29551 0.38772 0.0
O134 O 0.41284 0.32222 0.31289 0.0
O135 O 0.48585 0.32653 0.43807 0.0
O136 O 0.46681 0.34149 0.38003 0.0
C137 C 0.39548 0.30464 0.34508 0.0
C138 C 0.48809 0.3438 0.40119 0.0
O139 O 0.42586 0.26908 0.47509 0.0
Mg140 Mg 0.12603 0.4386 0.7465 0.0
O141 O 0.15139 0.43926 0.67108 0.0
O142 O 0.13411 0.44716 0.59428 0.0
Mg143 Mg 0.09914 0.4517 0.61829 0.0
C144 C 0.15108 0.44265 0.61776 0.0
C145 C 0.13721 0.42171 0.85797 0.0
O146 O 0.1196 0.42884 0.8681 0.0
O147 O 0.09318 0.39765 0.71966 0.0
O148 O 0.0777 0.40828 0.64392 0.0
O149 O 0.15131 0.48217 0.75848 0.0
O150 O 0.11676 0.46343 0.70193 0.0
C151 C 0.07706 0.39124 0.67841 0.0
C152 C 0.13666 0.48461 0.7209 0.0
O153 O 0.14431 0.42191 0.80717 0.0
Mg154 Mg 0.6805 0.12283 0.09872 0.0
O155 O 0.70054 0.14758 0.01936 0.0
O156 O 0.67436 0.12767 0.94525 0.0
Mg157 Mg 0.63914 0.08956 0.9753 0.0
C158 C 0.69531 0.14651 0.96669 0.0
C159 C 0.72948 0.17202 0.15203 0.0
O160 O 0.72235 0.18411 0.11545 0.0
O161 O 0.69393 0.0937 0.07298 0.0
O162 O 0.66796 0.07533 0.99775 0.0
O163 O 0.65708 0.14338 0.10818 0.0
O164 O 0.64405 0.10685 0.05926 0.0
C165 C 0.68615 0.07778 0.0312 0.0
C166 C 0.6399 0.12544 0.07506 0.0
O167 O 0.71708 0.14698 0.15327 0.0
H168 H 0.29808 0.35221 0.21245 0.0
H169 H 0.35719 0.29286 0.42445 0.0
H170 H 0.3008 0.36059 0.39337 0.0
H171 H 0.37135 0.30194 0.2452 0.0
H172 H 0.31858 0.29803 0.41092 0.0
H173 H 0.30588 0.31508 0.22281 0.0
C174 C 0.29923 0.34553 0.25441 0.0
C175 C 0.29969 0.35991 0.30208 0.0
C176 C 0.32961 0.29797 0.37431 0.0
C177 C 0.30898 0.31797 0.3142 0.0
C178 C 0.35157 0.29489 0.38201 0.0
C179 C 0.3679 0.29792 0.33606 0.0
C180 C 0.32422 0.30419 0.32042 0.0
C181 C 0.35965 0.30032 0.28194 0.0
C182 C 0.30383 0.32444 0.26034 0.0
C183 C 0.3011 0.3504 0.3555 0.0
N184 N 0.33873 0.30404 0.27571 0.0
N185 N 0.30633 0.3304 0.36012 0.0
H186 H 0.92429 0.30221 0.75269 0.0
H187 H 0.05399 0.35375 0.76158 0.0
H188 H 0.92803 0.29683 0.57198 0.0
H189 H 0.04867 0.36684 0.58425 0.0
H190 H 0.00926 0.31601 0.75812 0.0
H191 H 0.96822 0.30841 0.76039 0.0
C192 C 0.93411 0.30138 0.71466 0.0
C193 C 0.92292 0.29987 0.66152 0.0
C194 C 0.01785 0.32696 0.71979 0.0
C195 C 0.97373 0.30736 0.66956 0.0
C196 C 0.04362 0.34832 0.72163 0.0
C197 C 0.05453 0.36413 0.67371 0.0
C198 C 0.00298 0.3219 0.66991 0.0
C199 C 0.04053 0.35579 0.62278 0.0
C200 C 0.95937 0.30483 0.71898 0.0
C201 C 0.9362 0.29842 0.61373 0.0
N202 N 0.01526 0.33567 0.62252 0.0
N203 N 0.9613 0.30307 0.61873 0.0
H204 H 0.63014 0.92763 0.07944 0.0
H205 H 0.69713 0.0609 0.93362 0.0
H206 H 0.63869 0.93854 0.89942 0.0
H207 H 0.69416 0.05 0.1137 0.0
H208 H 0.69328 0.01787 0.92073 0.0
H209 H 0.66933 0.97064 0.09271 0.0
C210 C 0.64092 0.93875 0.04262 0.0
C211 C 0.6308 0.93004 0.98832 0.0
C212 C 0.69435 0.02512 0.96323 0.0
C213 C 0.67488 0.97972 1.00307 0.0
C214 C 0.69666 0.04978 0.97055 0.0
C215 C 0.69508 0.05849 0.02472 0.0
C216 C 0.68943 0.00879 0.01038 0.0
C217 C 0.69493 0.04368 0.07116 0.0
C218 C 0.66327 0.96339 0.05015 0.0
C219 C 0.64563 0.94485 0.94204 0.0
N220 N 0.69114 0.01906 0.06292 0.0
N221 N 0.66647 0.96945 0.95046 0.0
H222 H 0.6846 0.6251 0.42243 0.0
H223 H 0.61946 0.69087 0.26296 0.0
H224 H 0.68919 0.63604 0.24218 0.0
H225 H 0.62463 0.68991 0.4442 0.0
H226 H 0.65806 0.6856 0.25563 0.0
H227 H 0.67713 0.66221 0.43293 0.0
C228 C 0.68487 0.63592 0.38514 0.0
C229 C 0.68667 0.62707 0.33126 0.0
C230 C 0.65135 0.68734 0.29713 0.0
C231 C 0.67715 0.6689 0.34266 0.0
C232 C 0.6293 0.6904 0.30127 0.0
C233 C 0.61845 0.68999 0.35424 0.0
C234 C 0.66199 0.68295 0.3463 0.0
C235 C 0.63215 0.68983 0.40253 0.0
C236 C 0.68055 0.65712 0.39109 0.0
C237 C 0.6874 0.64199 0.28444 0.0
N238 N 0.65275 0.68543 0.39744 0.0
N239 N 0.68176 0.66169 0.29105 0.0
H240 H 0.93083 0.62775 0.60205 0.0
H241 H 0.0631 0.6889 0.7544 0.0
H242 H 0.93869 0.636 0.78273 0.0
H243 H 0.05561 0.69414 0.57467 0.0
H244 H 0.01937 0.68345 0.76706 0.0
H245 H 0.9755 0.66475 0.59169 0.0
C246 C 0.94173 0.638 0.63954 0.0
C247 C 0.93146 0.62844 0.69332 0.0
C248 C 0.02748 0.68658 0.72488 0.0
C249 C 0.98294 0.67006 0.68201 0.0
C250 C 0.0525 0.68973 0.71769 0.0
C251 C 0.06254 0.69115 0.66331 0.0
C252 C 0.01211 0.68396 0.67718 0.0
C253 C 0.04833 0.69262 0.61728 0.0
C254 C 0.9673 0.65912 0.63368 0.0
C255 C 0.94612 0.64256 0.7405 0.0
N256 N 0.02341 0.68811 0.62509 0.0
N257 N 0.97151 0.66217 0.73383 0.0
H258 H 0.29011 0.93605 0.10432 0.0
H259 H 0.34979 0.05375 0.89452 0.0
H260 H 0.29601 0.9312 0.92396 0.0
H261 H 0.35933 0.0586 0.07519 0.0
H262 H 0.3106 0.0102 0.90518 0.0
H263 H 0.29467 0.97964 0.09297 0.0
C264 C 0.2912 0.94366 0.06216 0.0
C265 C 0.2937 0.93058 0.01512 0.0
C266 C 0.32067 0.02122 0.94266 0.0
C267 C 0.29943 0.98038 1.00193 0.0
C268 C 0.34297 0.04616 0.93657 0.0
C269 C 0.35824 0.05921 0.98397 0.0
C270 C 0.314 0.00945 0.99639 0.0
C271 C 0.34846 0.04866 0.03747 0.0
C272 C 0.29396 0.96862 0.05567 0.0
C273 C 0.29487 0.94116 0.96144 0.0
N274 N 0.32733 0.02405 0.04222 0.0
N275 N 0.29844 0.96578 0.95635 0.0
H276 H 0.12839 0.42357 0.9704 0.0
H277 H 0.24679 0.40254 0.07247 0.0
H278 H 0.17663 0.40902 0.85474 0.0
H279 H 0.21219 0.43854 0.17399 0.0
H280 H 0.21594 0.39651 0.99626 0.0
H281 H 0.15354 0.42054 0.04897 0.0
C282 C 0.14411 0.41947 0.96144 0.0
C283 C 0.15057 0.41683 0.9057 0.0
C284 C 0.21499 0.40551 0.03543 0.0
C285 C 0.17955 0.41337 0.99593 0.0
C286 C 0.23248 0.40884 0.07906 0.0
C287 C 0.23219 0.42126 0.12955 0.0
C288 C 0.19691 0.41437 0.04265 0.0
C289 C 0.21328 0.42908 0.13565 0.0
C290 C 0.15853 0.41782 0.00645 0.0
C291 C 0.17108 0.41137 0.89697 0.0
N292 N 0.19647 0.42558 0.0927 0.0
N293 N 0.18497 0.40998 0.94163 0.0
H294 H 0.80563 0.22826 0.47503 0.0
H295 H 0.76464 0.2249 0.15316 0.0
H296 H 0.84446 0.29467 0.36218 0.0
H297 H 0.7394 0.15418 0.25096 0.0
H298 H 0.79415 0.25063 0.22986 0.0
H299 H 0.7812 0.20042 0.3944 0.0
C300 C 0.80918 0.23694 0.43335 0.0
C301 C 0.82699 0.2639 0.42549 0.0
C302 C 0.78236 0.22945 0.23441 0.0
C303 C 0.79901 0.23226 0.33332 0.0
C304 C 0.76547 0.21475 0.19059 0.0
C305 C 0.74943 0.18736 0.19571 0.0
C306 C 0.78299 0.21677 0.28421 0.0
C307 C 0.75142 0.17526 0.24519 0.0
C308 C 0.79526 0.22104 0.38735 0.0
C309 C 0.83085 0.27405 0.37046 0.0
N310 N 0.76766 0.19007 0.28781 0.0
N311 N 0.81683 0.25832 0.32671 0.0
H312 H 0.58106 0.83545 0.76143 0.0
H313 H 0.54321 0.69195 0.64994 0.0
H314 H 0.53333 0.76373 0.85465 0.0
H315 H 0.5704 0.75912 0.53944 0.0
H316 H 0.54682 0.71975 0.72972 0.0
H317 H 0.58452 0.80939 0.68451 0.0
C318 C 0.57159 0.81427 0.76608 0.0
C319 C 0.55673 0.80172 0.81447 0.0
C320 C 0.55212 0.72847 0.68809 0.0
C321 C 0.56064 0.77188 0.72665 0.0
C322 C 0.55014 0.71262 0.6424 0.0
C323 C 0.55629 0.72315 0.58768 0.0
C324 C 0.56048 0.75518 0.67936 0.0
C325 C 0.56528 0.75014 0.58081 0.0
C326 C 0.57346 0.79942 0.72201 0.0
C327 C 0.54483 0.77422 0.81803 0.0
N328 N 0.56702 0.76523 0.62613 0.0
N329 N 0.547 0.76024 0.77469 0.0
H330 H 0.71895 0.58316 0.03248 0.0
H331 H 0.85511 0.58479 0.98834 0.0
H332 H 0.76669 0.58134 0.16923 0.0
H333 H 0.80432 0.58043 0.85176 0.0
H334 H 0.82603 0.58973 0.05482 0.0
H335 H 0.753 0.58836 0.96584 0.0
C336 C 0.73671 0.58412 0.04862 0.0
C337 C 0.73982 0.58152 0.10657 0.0
C338 C 0.82136 0.58792 0.01026 0.0
C339 C 0.77889 0.58734 0.03027 0.0
C340 C 0.83799 0.58514 0.9722 0.0
C341 C 0.83201 0.5819 0.91436 0.0
C342 C 0.79852 0.58743 0.99047 0.0
C343 C 0.80962 0.58267 0.89598 0.0
C344 C 0.75615 0.58705 0.01045 0.0
C345 C 0.76335 0.58307 0.12493 0.0
N346 N 0.79358 0.58513 0.93395 0.0
N347 N 0.78187 0.58566 0.08687 0.0
H348 H 0.18322 0.76855 0.49444 0.0
H349 H 0.22333 0.80223 0.17008 0.0
H350 H 0.13975 0.71661 0.35678 0.0
H351 H 0.26508 0.8555 0.30715 0.0
H352 H 0.19014 0.77234 0.23713 0.0
H353 H 0.21098 0.80233 0.42605 0.0
C354 C 0.17934 0.76432 0.44987 0.0
C355 C 0.15928 0.7396 0.43136 0.0
C356 C 0.20644 0.79067 0.25249 0.0
C357 C 0.19111 0.77813 0.35277 0.0
C358 C 0.22541 0.80777 0.21418 0.0
C359 C 0.24718 0.8313 0.23306 0.0
C360 C 0.20932 0.79707 0.31018 0.0
C361 C 0.24874 0.83749 0.29069 0.0
C362 C 0.19522 0.78362 0.4108 0.0
C363 C 0.1551 0.7353 0.37304 0.0
N364 N 0.23021 0.82038 0.32724 0.0
N365 N 0.17102 0.75427 0.33587 0.0
H366 H 0.41863 0.18862 0.83071 0.0
H367 H 0.41246 0.22168 0.50564 0.0
H368 H 0.40646 0.13481 0.69441 0.0
H369 H 0.42135 0.2741 0.64256 0.0
H370 H 0.40642 0.18808 0.57455 0.0
H371 H 0.41587 0.21862 0.76308 0.0
C372 C 0.41514 0.18299 0.78666 0.0
C373 C 0.41303 0.15926 0.76817 0.0
C374 C 0.40947 0.20685 0.58952 0.0
C375 C 0.41001 0.19361 0.69039 0.0
C376 C 0.4129 0.22605 0.55016 0.0
C377 C 0.41767 0.25085 0.56831 0.0
C378 C 0.41093 0.21251 0.64748 0.0
C379 C 0.41792 0.25534 0.62657 0.0
C380 C 0.41359 0.20015 0.74802 0.0
C381 C 0.4084 0.15297 0.71058 0.0
N382 N 0.41483 0.23646 0.66402 0.0
N383 N 0.40727 0.17013 0.67371 0.0
H384 H 0.19436 0.43888 0.64887 0.0
H385 H 0.23803 0.43562 0.32994 0.0
H386 H 0.15257 0.44304 0.50261 0.0
H387 H 0.28579 0.44268 0.47505 0.0
H388 H 0.20487 0.4352 0.39311 0.0
H389 H 0.22665 0.43717 0.58608 0.0
C390 C 0.19193 0.43939 0.60368 0.0
C391 C 0.17076 0.44122 0.58109 0.0
C392 C 0.22262 0.43684 0.41107 0.0
C393 C 0.20754 0.43921 0.5091 0.0
C394 C 0.24155 0.43704 0.375 0.0
C395 C 0.26481 0.43929 0.3971 0.0
C396 C 0.22691 0.43878 0.46966 0.0
C397 C 0.26824 0.44104 0.45597 0.0
C398 C 0.21038 0.43846 0.56786 0.0
C399 C 0.16862 0.44179 0.52209 0.0
N400 N 0.24952 0.44074 0.49014 0.0
N401 N 0.18675 0.44078 0.48824 0.0
H402 H 0.82499 0.28842 0.8292 0.0
H403 H 0.69346 0.14853 0.85139 0.0
H404 H 0.78555 0.24024 0.68369 0.0
H405 H 0.74042 0.19225 0.99502 0.0
H406 H 0.7252 0.18291 0.78917 0.0
H407 H 0.79235 0.25445 0.8899 0.0
C408 C 0.80943 0.27071 0.80982 0.0
C409 C 0.80811 0.26722 0.75101 0.0
C410 C 0.72854 0.18496 0.83428 0.0
C411 C 0.77048 0.22805 0.82094 0.0
C412 C 0.7104 0.16537 0.86996 0.0
C413 C 0.71425 0.16746 0.92869 0.0
C414 C 0.75066 0.2069 0.85741 0.0
C415 C 0.73662 0.18974 0.95011 0.0
C416 C 0.79079 0.25125 0.84473 0.0
C417 C 0.7874 0.24378 0.72873 0.0
N418 N 0.75395 0.20859 0.91446 0.0
N419 N 0.76937 0.22505 0.76377 0.0
H420 H 0.53857 0.83939 0.16004 0.0
H421 H 0.53279 0.70073 0.18227 0.0
H422 H 0.54303 0.79632 0.01653 0.0
H423 H 0.53933 0.74797 0.32797 0.0
H424 H 0.53385 0.73454 0.12155 0.0
H425 H 0.53623 0.80516 0.22227 0.0
C426 C 0.53899 0.82271 0.14149 0.0
C427 C 0.54102 0.82077 0.0828 0.0
C428 C 0.53507 0.73757 0.16677 0.0
C429 C 0.53835 0.7815 0.1541 0.0
C430 C 0.53441 0.71821 0.20169 0.0
C431 C 0.53602 0.72146 0.26058 0.0
C432 C 0.53726 0.76047 0.19059 0.0
C433 C 0.53808 0.74461 0.28289 0.0
C434 C 0.53772 0.80321 0.17718 0.0
C435 C 0.54153 0.79871 0.06142 0.0
N436 N 0.53864 0.76326 0.24782 0.0
N437 N 0.54018 0.77995 0.09707 0.0
H438 H 0.74749 0.54968 0.35108 0.0
H439 H 0.79302 0.54974 0.66948 0.0
H440 H 0.69978 0.54201 0.49666 0.0
H441 H 0.83424 0.544 0.52388 0.0
H442 H 0.75989 0.54963 0.60663 0.0
H443 H 0.78089 0.55027 0.41385 0.0
C444 C 0.74402 0.54812 0.39615 0.0
C445 C 0.72075 0.54575 0.41855 0.0
C446 C 0.77619 0.54836 0.58852 0.0
C447 C 0.75891 0.5465 0.49057 0.0
C448 C 0.79514 0.54848 0.62437 0.0
C449 C 0.81644 0.54682 0.602 0.0
C450 C 0.77865 0.54675 0.52989 0.0
C451 C 0.81813 0.54521 0.54314 0.0
C452 C 0.76307 0.54842 0.43197 0.0
C453 C 0.71734 0.54378 0.47737 0.0
N454 N 0.79952 0.54526 0.50916 0.0
N455 N 0.73622 0.54425 0.5113 0.0
H456 H 0.20009 0.74916 0.67457 0.0
H457 H 0.2473 0.79514 0.99167 0.0
H458 H 0.16265 0.70095 0.8211 0.0
H459 H 0.29259 0.83807 0.84576 0.0
H460 H 0.21533 0.76101 0.92927 0.0
H461 H 0.23361 0.78267 0.7362 0.0
C462 C 0.19892 0.74557 0.71958 0.0
C463 C 0.17846 0.7222 0.74262 0.0
C464 C 0.23232 0.77785 0.91091 0.0
C465 C 0.21666 0.76046 0.81327 0.0
C466 C 0.25057 0.79739 0.94655 0.0
C467 C 0.27267 0.81955 0.92399 0.0
C468 C 0.23606 0.78054 0.85223 0.0
C469 C 0.27587 0.82133 0.8651 0.0
C470 C 0.21809 0.76469 0.75471 0.0
C471 C 0.17801 0.71863 0.8013 0.0
N472 N 0.2577 0.80213 0.83125 0.0
N473 N 0.19674 0.73758 0.83453 0.0
H474 H 0.44999 0.15008 0.15679 0.0
H475 H 0.45986 0.29071 0.17787 0.0
H476 H 0.4483 0.19421 0.01248 0.0
H477 H 0.44758 0.24113 0.32272 0.0
H478 H 0.45958 0.25707 0.11741 0.0
H479 H 0.45285 0.18472 0.21861 0.0
C480 C 0.4503 0.16707 0.138 0.0
C481 C 0.44884 0.16918 0.07923 0.0
C482 C 0.45697 0.25354 0.16241 0.0
C483 C 0.45215 0.2089 0.14996 0.0
C484 C 0.45719 0.27279 0.19713 0.0
C485 C 0.45363 0.26875 0.25563 0.0
C486 C 0.45328 0.23002 0.18616 0.0
C487 C 0.4503 0.24508 0.27789 0.0
C488 C 0.45187 0.1868 0.17342 0.0
C489 C 0.44929 0.19166 0.05747 0.0
N490 N 0.45018 0.22658 0.24308 0.0
N491 N 0.45092 0.21064 0.09285 0.0
H492 H 0.35631 0.49354 0.36269 0.0
H493 H 0.4845 0.62608 0.28774 0.0
H494 H 0.36873 0.52636 0.19533 0.0
H495 H 0.45037 0.61226 0.45406 0.0
H496 H 0.44384 0.58839 0.25245 0.0
H497 H 0.39224 0.53553 0.39747 0.0
C498 C 0.36666 0.5096 0.3333 0.0
C499 C 0.35995 0.50648 0.27598 0.0
C500 C 0.44517 0.59377 0.29654 0.0
C501 C 0.40094 0.55439 0.31528 0.0
C502 C 0.46843 0.61508 0.31678 0.0
C503 C 0.47084 0.62192 0.374 0.0
C504 C 0.42447 0.57892 0.33412 0.0
C505 C 0.44922 0.60748 0.40964 0.0
C506 C 0.38694 0.53361 0.35324 0.0
C507 C 0.37346 0.52809 0.23984 0.0
N508 N 0.42702 0.58631 0.38932 0.0
N509 N 0.3937 0.55108 0.25991 0.0
H510 H 0.85538 0.49423 0.63908 0.0
H511 H 0.85095 0.36238 0.72125 0.0
H512 H 0.83525 0.46296 0.80772 0.0
H513 H 0.83161 0.37522 0.55316 0.0
H514 H 0.84772 0.40019 0.75442 0.0
H515 H 0.84931 0.45199 0.60636 0.0
C516 C 0.84975 0.47847 0.6692 0.0
C517 C 0.84627 0.48212 0.72629 0.0
C518 C 0.84392 0.39457 0.7104 0.0
C519 C 0.83927 0.43387 0.68931 0.0
C520 C 0.84603 0.37319 0.69137 0.0
C521 C 0.84198 0.36605 0.63427 0.0
C522 C 0.83829 0.4092 0.67174 0.0
C523 C 0.83494 0.38023 0.59752 0.0
C524 C 0.846 0.45429 0.65042 0.0
C525 C 0.83821 0.46084 0.76336 0.0
N526 N 0.83377 0.40149 0.61669 0.0
N527 N 0.83541 0.43767 0.74442 0.0
H528 H 0.50428 0.90314 0.98025 0.0
H529 H 0.35378 0.81922 0.06972 0.0
H530 H 0.45832 0.8205 0.93887 0.0
H531 H 0.39221 0.90199 0.0289 0.0
H532 H 0.39307 0.81821 0.03621 0.0
H533 H 0.46441 0.902 0.0139 0.0
C534 C 0.48578 0.8847 0.97847 0.0
C535 C 0.48456 0.86188 0.95664 0.0
C536 C 0.39273 0.8365 0.03456 0.0
C537 C 0.43886 0.86044 0.99544 0.0
C538 C 0.37046 0.83713 0.05385 0.0
C539 C 0.3698 0.86072 0.05197 0.0
C540 C 0.41452 0.85975 0.01459 0.0
C541 C 0.39184 0.88336 0.03084 0.0
C542 C 0.46303 0.8841 0.99744 0.0
C543 C 0.46002 0.83855 0.95512 0.0
N544 N 0.41336 0.88235 0.0134 0.0
N545 N 0.43805 0.83836 0.97463 0.0
H546 H 0.61988 0.46253 0.20959 0.0
H547 H 0.53152 0.37352 0.46576 0.0
H548 H 0.6272 0.49219 0.37899 0.0
H549 H 0.50368 0.36175 0.29403 0.0
H550 H 0.57315 0.41181 0.43488 0.0
H551 H 0.5833 0.41987 0.24104 0.0
C552 C 0.61393 0.45994 0.25347 0.0
C553 C 0.62609 0.48096 0.29159 0.0
C554 C 0.55793 0.40067 0.40403 0.0
C555 C 0.58488 0.43249 0.3278 0.0
C556 C 0.53433 0.37885 0.42152 0.0
C557 C 0.51407 0.36492 0.38246 0.0
C558 C 0.56136 0.40809 0.34697 0.0
C559 C 0.51857 0.37246 0.32562 0.0
C560 C 0.59309 0.43574 0.27127 0.0
C561 C 0.61781 0.4767 0.348 0.0
N562 N 0.54177 0.39358 0.3095 0.0
N563 N 0.59768 0.45291 0.36449 0.0
H564 H 0.13669 0.62959 0.7054 0.0
H565 H 0.13122 0.49836 0.61372 0.0
H566 H 0.15184 0.61719 0.53343 0.0
H567 H 0.15555 0.53002 0.78119 0.0
H568 H 0.13644 0.54054 0.58299 0.0
H569 H 0.14126 0.59207 0.73467 0.0
C570 C 0.14095 0.61892 0.67384 0.0
C571 C 0.14345 0.6261 0.61686 0.0
C572 C 0.1409 0.53833 0.6263 0.0
C573 C 0.14868 0.58329 0.64986 0.0
C574 C 0.13767 0.51421 0.64397 0.0
C575 C 0.14254 0.51066 0.70025 0.0
C576 C 0.14849 0.5588 0.66555 0.0
C577 C 0.15153 0.53203 0.73745 0.0
C578 C 0.14384 0.59772 0.69062 0.0
C579 C 0.1497 0.61212 0.57778 0.0
N580 N 0.15378 0.55512 0.7197 0.0
N581 N 0.15165 0.59101 0.59485 0.0
H582 H 0.59526 0.08521 0.03031 0.0
H583 H 0.53022 0.16988 0.93534 0.0
H584 H 0.63208 0.16797 0.07053 0.0
H585 H 0.48522 0.08689 0.97381 0.0
H586 H 0.57006 0.17062 0.97104 0.0
H587 H 0.55691 0.0865 0.99458 0.0
C588 C 0.59531 0.10371 0.03143 0.0
C589 C 0.61684 0.12652 0.0535 0.0
C590 C 0.55139 0.15234 0.97168 0.0
C591 C 0.57302 0.12814 0.01231 0.0
C592 C 0.52875 0.15186 0.95112 0.0
C593 C 0.50444 0.12829 0.95173 0.0
C594 C 0.54963 0.12896 0.99169 0.0
C595 C 0.50354 0.10551 0.97283 0.0
C596 C 0.57336 0.10439 0.01127 0.0
C597 C 0.61577 0.14992 0.05413 0.0
N598 N 0.52582 0.10638 0.99157 0.0
N599 N 0.59422 0.1502 0.03346 0.0
loop_
_geom_bond_atom_site_label_1
_geom_bond_atom_site_label_2
_geom_bond_distance
_geom_bond_site_symmetry_2
_ccdc_geom_bond_type
Mg0 O1 2.028 . S
Mg0 O7 1.986 . S
Mg0 O9 2.114 . S
Mg0 O10 2.251 . S
Mg0 O13 2.010 . S
O1 Mg0 2.028 . S
O1 C4 1.250 . S
O2 Mg3 2.028 . S
O2 C4 1.248 . S
Mg3 O2 2.028 . S
Mg3 O8 2.032 . S
Mg3 O10 2.079 . S
C4 O1 1.250 . S
C4 O2 1.248 . S
C5 O6 1.264 . S
C5 O13 1.249 . S
O6 C5 1.264 . S
O7 Mg0 1.986 . S
O7 C11 1.246 . S
O8 Mg3 2.032 . S
O8 C11 1.259 . S
O9 Mg0 2.114 . S
O9 C12 1.252 . S
O10 Mg0 2.251 . S
O10 Mg3 2.079 . S
O10 C12 1.273 . S
C11 O7 1.246 . S
C11 O8 1.259 . S
C12 O9 1.252 . S
C12 O10 1.273 . S
O13 Mg0 2.010 . S
O13 C5 1.249 . S
Mg14 O15 2.028 . S
Mg14 O21 1.986 . S
Mg14 O23 2.114 . S
Mg14 O24 2.251 . S
Mg14 O27 2.010 . S
O15 Mg14 2.028 . S
O15 C18 1.250 . S
O16 Mg17 2.028 . S
O16 C18 1.248 . S
Mg17 O16 2.028 . S
Mg17 O22 2.032 . S
Mg17 O24 2.079 . S
C18 O15 1.250 . S
C18 O16 1.248 . S
C19 O20 1.264 . S
C19 O27 1.249 . S
O20 C19 1.264 . S
O21 Mg14 1.986 . S
O21 C25 1.246 . S
O22 Mg17 2.032 . S
O22 C25 1.259 . S
O23 Mg14 2.114 . S
O23 C26 1.252 . S
O24 Mg14 2.251 . S
O24 Mg17 2.079 . S
O24 C26 1.273 . S
C25 O21 1.246 . S
C25 O22 1.259 . S
C26 O23 1.252 . S
C26 O24 1.273 . S
O27 Mg14 2.010 . S
O27 C19 1.249 . S
Mg28 O29 2.028 . S
Mg28 O35 1.986 . S
Mg28 O37 2.114 . S
Mg28 O38 2.251 . S
Mg28 O41 2.010 . S
O29 Mg28 2.028 . S
O29 C32 1.250 1_556 S
O30 Mg31 2.028 . S
O30 C32 1.248 . S
Mg31 O30 2.028 . S
Mg31 O36 2.032 . S
Mg31 O38 2.079 1_554 S
C32 O29 1.250 1_554 S
C32 O30 1.248 . S
C33 O34 1.264 . S
C33 O41 1.249 . S
O34 C33 1.264 . S
O35 Mg28 1.986 . S
O35 C39 1.246 . S
O36 Mg31 2.032 . S
O36 C39 1.259 1_554 S
O37 Mg28 2.114 . S
O37 C40 1.252 . S
O38 Mg28 2.251 . S
O38 Mg31 2.079 1_556 S
O38 C40 1.273 . S
C39 O35 1.246 . S
C39 O36 1.259 1_556 S
C40 O37 1.252 . S
C40 O38 1.273 . S
O41 Mg28 2.010 . S
O41 C33 1.249 . S
Mg42 O43 2.028 . S
Mg42 O49 1.986 . S
Mg42 O51 2.114 . S
Mg42 O52 2.251 . S
Mg42 O55 2.010 . S
O43 Mg42 2.028 . S
O43 C46 1.250 . S
O44 Mg45 2.028 . S
O44 C46 1.248 . S
Mg45 O44 2.028 . S
Mg45 O50 2.032 . S
Mg45 O52 2.079 . S
C46 O43 1.250 . S
C46 O44 1.248 . S
C47 O48 1.264 . S
C47 O55 1.249 . S
O48 C47 1.264 . S
O49 Mg42 1.986 . S
O49 C53 1.246 . S
O50 Mg45 2.032 . S
O50 C53 1.259 . S
O51 Mg42 2.114 . S
O51 C54 1.252 . S
O52 Mg42 2.251 . S
O52 Mg45 2.079 . S
O52 C54 1.273 . S
C53 O49 1.246 . S
C53 O50 1.259 . S
C54 O51 1.252 . S
C54 O52 1.273 . S
O55 Mg42 2.010 . S
O55 C47 1.249 . S
Mg56 O57 2.028 . S
Mg56 O63 1.986 . S
Mg56 O65 2.114 . S
Mg56 O66 2.251 . S
Mg56 O69 2.010 . S
O57 Mg56 2.028 . S
O57 C60 1.250 . S
O58 Mg59 2.028 . S
O58 C60 1.248 . S
Mg59 O58 2.028 . S
Mg59 O64 2.032 . S
Mg59 O66 2.079 . S
C60 O57 1.250 . S
C60 O58 1.248 . S
C61 O62 1.264 . S
C61 O69 1.249 . S
O62 C61 1.264 . S
O63 Mg56 1.986 . S
O63 C67 1.246 . S
O64 Mg59 2.032 . S
O64 C67 1.259 . S
O65 Mg56 2.114 . S
O65 C68 1.252 . S
O66 Mg56 2.251 . S
O66 Mg59 2.079 . S
O66 C68 1.273 . S
C67 O63 1.246 . S
C67 O64 1.259 . S
C68 O65 1.252 . S
C68 O66 1.273 . S
O69 Mg56 2.010 . S
O69 C61 1.249 . S
Mg70 O71 2.028 . S
Mg70 O77 1.986 . S
Mg70 O79 2.114 . S
Mg70 O80 2.251 . S
Mg70 O83 2.010 . S
O71 Mg70 2.028 . S
O71 C74 1.250 1_556 S
O72 Mg73 2.028 . S
O72 C74 1.248 . S
Mg73 O72 2.028 . S
Mg73 O78 2.032 . S
Mg73 O80 2.079 1_554 S
C74 O71 1.250 1_554 S
C74 O72 1.248 . S
C75 O76 1.264 . S
C75 O83 1.249 . S
O76 C75 1.264 . S
O77 Mg70 1.986 . S
O77 C81 1.246 . S
O78 Mg73 2.032 . S
O78 C81 1.259 1_554 S
O79 Mg70 2.114 . S
O79 C82 1.252 . S
O80 Mg70 2.251 . S
O80 Mg73 2.079 1_556 S
O80 C82 1.273 . S
C81 O77 1.246 . S
C81 O78 1.259 1_556 S
C82 O79 1.252 . S
C82 O80 1.273 . S
O83 Mg70 2.010 . S
O83 C75 1.249 . S
Mg84 O85 2.028 . S
Mg84 O91 1.986 . S
Mg84 O93 2.114 . S
Mg84 O94 2.251 . S
Mg84 O97 2.010 . S
O85 Mg84 2.028 . S
O85 C88 1.250 . S
O86 Mg87 2.028 . S
O86 C88 1.248 . S
Mg87 O86 2.028 . S
Mg87 O92 2.032 . S
Mg87 O94 2.079 . S
C88 O85 1.250 . S
C88 O86 1.248 . S
C89 O90 1.264 . S
C89 O97 1.249 . S
O90 C89 1.264 . S
O91 Mg84 1.986 . S
O91 C95 1.246 . S
O92 Mg87 2.032 . S
O92 C95 1.259 . S
O93 Mg84 2.114 . S
O93 C96 1.252 . S
O94 Mg84 2.251 . S
O94 Mg87 2.079 . S
O94 C96 1.273 . S
C95 O91 1.246 . S
C95 O92 1.259 . S
C96 O93 1.252 . S
C96 O94 1.273 . S
O97 Mg84 2.010 . S
O97 C89 1.249 . S
Mg98 O99 2.028 . S
Mg98 O105 1.986 . S
Mg98 O107 2.114 . S
Mg98 O108 2.251 . S
Mg98 O111 2.010 . S
O99 Mg98 2.028 . S
O99 C102 1.250 . S
O100 Mg101 2.028 . S
O100 C102 1.248 . S
Mg101 O100 2.028 . S
Mg101 O106 2.032 . S
Mg101 O108 2.079 . S
C102 O99 1.250 . S
C102 O100 1.248 . S
C103 O104 1.264 . S
C103 O111 1.249 . S
O104 C103 1.264 . S
O105 Mg98 1.986 . S
O105 C109 1.246 . S
O106 Mg101 2.032 . S
O106 C109 1.259 . S
O107 Mg98 2.114 . S
O107 C110 1.252 . S
O108 Mg98 2.251 . S
O108 Mg101 2.079 . S
O108 C110 1.273 . S
C109 O105 1.246 . S
C109 O106 1.259 . S
C110 O107 1.252 . S
C110 O108 1.273 . S
O111 Mg98 2.010 . S
O111 C103 1.249 . S
Mg112 O113 2.028 . S
Mg112 O119 1.986 . S
Mg112 O121 2.114 . S
Mg112 O122 2.251 . S
Mg112 O125 2.010 . S
O113 Mg112 2.028 . S
O113 C116 1.250 1_554 S
O114 Mg115 2.028 . S
O114 C116 1.248 . S
Mg115 O114 2.028 . S
Mg115 O120 2.032 . S
Mg115 O122 2.079 1_556 S
C116 O113 1.250 1_556 S
C116 O114 1.248 . S
C117 O118 1.264 . S
C117 O125 1.249 . S
O118 C117 1.264 . S
O119 Mg112 1.986 . S
O119 C123 1.246 . S
O120 Mg115 2.032 . S
O120 C123 1.259 1_556 S
O121 Mg112 2.114 . S
O121 C124 1.252 . S
O122 Mg112 2.251 . S
O122 Mg115 2.079 1_554 S
O122 C124 1.273 . S
C123 O119 1.246 . S
C123 O120 1.259 1_554 S
C124 O121 1.252 . S
C124 O122 1.273 . S
O125 Mg112 2.010 . S
O125 C117 1.249 . S
Mg126 O127 2.028 . S
Mg126 O133 1.986 . S
Mg126 O135 2.114 . S
Mg126 O136 2.251 . S
Mg126 O139 2.010 . S
O127 Mg126 2.028 . S
O127 C130 1.250 . S
O128 Mg129 2.028 . S
O128 C130 1.248 . S
Mg129 O128 2.028 . S
Mg129 O134 2.032 . S
Mg129 O136 2.079 . S
C130 O127 1.250 . S
C130 O128 1.248 . S
C131 O132 1.264 . S
C131 O139 1.249 . S
O132 C131 1.264 . S
O133 Mg126 1.986 . S
O133 C137 1.246 . S
O134 Mg129 2.032 . S
O134 C137 1.259 . S
O135 Mg126 2.114 . S
O135 C138 1.252 . S
O136 Mg126 2.251 . S
O136 Mg129 2.079 . S
O136 C138 1.273 . S
C137 O133 1.246 . S
C137 O134 1.259 . S
C138 O135 1.252 . S
C138 O136 1.273 . S
O139 Mg126 2.010 . S
O139 C131 1.249 . S
Mg140 O141 2.028 . S
Mg140 O147 1.986 . S
Mg140 O149 2.114 . S
Mg140 O150 2.251 . S
Mg140 O153 2.010 . S
O141 Mg140 2.028 . S
O141 C144 1.250 . S
O142 Mg143 2.028 . S
O142 C144 1.248 . S
Mg143 O142 2.028 . S
Mg143 O148 2.032 . S
Mg143 O150 2.079 . S
C144 O141 1.250 . S
C144 O142 1.248 . S
C145 O146 1.264 . S
C145 O153 1.249 . S
O146 C145 1.264 . S
O147 Mg140 1.986 . S
O147 C151 1.246 . S
O148 Mg143 2.032 . S
O148 C151 1.259 . S
O149 Mg140 2.114 . S
O149 C152 1.252 . S
O150 Mg140 2.251 . S
O150 Mg143 2.079 . S
O150 C152 1.273 . S
C151 O147 1.246 . S
C151 O148 1.259 . S
C152 O149 1.252 . S
C152 O150 1.273 . S
O153 Mg140 2.010 . S
O153 C145 1.249 . S
Mg154 O155 2.028 . S
Mg154 O161 1.986 . S
Mg154 O163 2.114 . S
Mg154 O164 2.251 . S
Mg154 O167 2.010 . S
O155 Mg154 2.028 . S
O155 C158 1.250 1_554 S
O156 Mg157 2.028 . S
O156 C158 1.248 . S
Mg157 O156 2.028 . S
Mg157 O162 2.032 . S
Mg157 O164 2.079 1_556 S
C158 O155 1.250 1_556 S
C158 O156 1.248 . S
C159 O160 1.264 . S
C159 O167 1.249 . S
O160 C159 1.264 . S
O161 Mg154 1.986 . S
O161 C165 1.246 . S
O162 Mg157 2.032 . S
O162 C165 1.259 1_556 S
O163 Mg154 2.114 . S
O163 C166 1.252 . S
O164 Mg154 2.251 . S
O164 Mg157 2.079 1_554 S
O164 C166 1.273 . S
C165 O161 1.246 . S
C165 O162 1.259 1_554 S
C166 O163 1.252 . S
C166 O164 1.273 . S
O167 Mg154 2.010 . S
O167 C159 1.249 . S
H168 C174 0.930 . S
H169 C178 0.930 . S
H170 C183 0.929 . S
H171 C181 0.929 . S
H172 C176 0.929 . S
H173 C182 0.929 . S
C174 H168 0.930 . S
C174 C175 1.367 . S
C174 C182 1.378 . S
C175 C174 1.367 . S
C175 C183 1.433 . S
C176 H172 0.929 . S
C176 C178 1.378 . S
C176 C180 1.350 . S
C177 C180 1.463 . S
C177 C182 1.350 . S
C177 N185 1.427 . S
C178 H169 0.930 . S
C178 C176 1.378 . S
C178 C179 1.367 . S
C179 C178 1.367 . S
C179 C181 1.433 . S
C180 C176 1.350 . S
C180 C177 1.463 . S
C180 N184 1.427 . S
C181 H171 0.929 . S
C181 C179 1.433 . S
C181 N184 1.384 . S
C182 H173 0.929 . S
C182 C174 1.378 . S
C182 C177 1.350 . S
C183 H170 0.929 . S
C183 C175 1.433 . S
C183 N185 1.384 . S
N184 C180 1.427 . S
N184 C181 1.384 . S
N185 C177 1.427 . S
N185 C183 1.384 . S
H186 C192 0.930 . S
H187 C196 0.930 . S
H188 C201 0.929 . S
H189 C199 0.929 . S
H190 C194 0.929 . S
H191 C200 0.929 . S
C192 H186 0.930 . S
C192 C193 1.367 . S
C192 C200 1.378 . S
C193 C192 1.367 . S
C193 C201 1.433 . S
C194 H190 0.929 . S
C194 C196 1.378 . S
C194 C198 1.350 . S
C195 C198 1.463 1_655 S
C195 C200 1.350 . S
C195 N203 1.427 . S
C196 H187 0.930 . S
C196 C194 1.378 . S
C196 C197 1.367 . S
C197 C196 1.367 . S
C197 C199 1.433 . S
C198 C194 1.350 . S
C198 C195 1.463 1_455 S
C198 N202 1.427 . S
C199 H189 0.929 . S
C199 C197 1.433 . S
C199 N202 1.384 . S
C200 H191 0.929 . S
C200 C192 1.378 . S
C200 C195 1.350 . S
C201 H188 0.929 . S
C201 C193 1.433 . S
C201 N203 1.384 . S
N202 C198 1.427 . S
N202 C199 1.384 . S
N203 C195 1.427 . S
N203 C201 1.384 . S
H204 C210 0.930 . S
H205 C214 0.930 . S
H206 C219 0.929 . S
H207 C217 0.929 . S
H208 C212 0.929 . S
H209 C218 0.929 . S
C210 H204 0.930 . S
C210 C211 1.367 1_554 S
C210 C218 1.378 . S
C211 C210 1.367 1_556 S
C211 C219 1.433 . S
C212 H208 0.929 . S
C212 C214 1.378 . S
C212 C216 1.350 1_556 S
C213 C216 1.463 1_566 S
C213 C218 1.350 1_556 S
C213 N221 1.427 . S
C214 H205 0.930 . S
C214 C212 1.378 . S
C214 C215 1.367 1_556 S
C215 C214 1.367 1_554 S
C215 C217 1.433 . S
C216 C212 1.350 1_554 S
C216 C213 1.463 1_544 S
C216 N220 1.427 . S
C217 H207 0.929 . S
C217 C215 1.433 . S
C217 N220 1.384 . S
C218 H209 0.929 . S
C218 C210 1.378 . S
C218 C213 1.350 1_554 S
C219 H206 0.929 . S
C219 C211 1.433 . S
C219 N221 1.384 . S
N220 C216 1.427 . S
N220 C217 1.384 . S
N221 C213 1.427 . S
N221 C219 1.384 . S
H222 C228 0.930 . S
H223 C232 0.930 . S
H224 C237 0.929 . S
H225 C235 0.929 . S
H226 C230 0.929 . S
H227 C236 0.929 . S
C228 H222 0.930 . S
C228 C229 1.367 . S
C228 C236 1.378 . S
C229 C228 1.367 . S
C229 C237 1.433 . S
C230 H226 0.929 . S
C230 C232 1.378 . S
C230 C234 1.350 . S
C231 C234 1.463 . S
C231 C236 1.350 . S
C231 N239 1.427 . S
C232 H223 0.930 . S
C232 C230 1.378 . S
C232 C233 1.367 . S
C233 C232 1.367 . S
C233 C235 1.433 . S
C234 C230 1.350 . S
C234 C231 1.463 . S
C234 N238 1.427 . S
C235 H225 0.929 . S
C235 C233 1.433 . S
C235 N238 1.384 . S
C236 H227 0.929 . S
C236 C228 1.378 . S
C236 C231 1.350 . S
C237 H224 0.929 . S
C237 C229 1.433 . S
C237 N239 1.384 . S
N238 C234 1.427 . S
N238 C235 1.384 . S
N239 C231 1.427 . S
N239 C237 1.384 . S
H240 C246 0.930 . S
H241 C250 0.930 . S
H242 C255 0.929 . S
H243 C253 0.929 . S
H244 C248 0.929 . S
H245 C254 0.929 . S
C246 H240 0.930 . S
C246 C247 1.367 . S
C246 C254 1.378 . S
C247 C246 1.367 . S
C247 C255 1.433 . S
C248 H244 0.929 . S
C248 C250 1.378 . S
C248 C252 1.350 . S
C249 C252 1.463 1_655 S
C249 C254 1.350 . S
C249 N257 1.427 . S
C250 H241 0.930 . S
C250 C248 1.378 . S
C250 C251 1.367 . S
C251 C250 1.367 . S
C251 C253 1.433 . S
C252 C248 1.350 . S
C252 C249 1.463 1_455 S
C252 N256 1.427 . S
C253 H243 0.929 . S
C253 C251 1.433 . S
C253 N256 1.384 . S
C254 H245 0.929 . S
C254 C246 1.378 . S
C254 C249 1.350 . S
C255 H242 0.929 . S
C255 C247 1.433 . S
C255 N257 1.384 . S
N256 C252 1.427 . S
N256 C253 1.384 . S
N257 C249 1.427 . S
N257 C255 1.384 . S
H258 C264 0.930 . S
H259 C268 0.930 . S
H260 C273 0.929 . S
H261 C271 0.929 . S
H262 C266 0.929 . S
H263 C272 0.929 . S
C264 H258 0.930 . S
C264 C265 1.367 . S
C264 C272 1.378 . S
C265 C264 1.367 . S
C265 C273 1.433 1_554 S
C266 H262 0.929 . S
C266 C268 1.378 . S
C266 C270 1.350 . S
C267 C270 1.463 1_564 S
C267 C272 1.350 . S
C267 N275 1.427 1_554 S
C268 H259 0.930 . S
C268 C266 1.378 . S
C268 C269 1.367 . S
C269 C268 1.367 . S
C269 C271 1.433 1_556 S
C270 C266 1.350 . S
C270 C267 1.463 1_546 S
C270 N274 1.427 1_556 S
C271 H261 0.929 . S
C271 C269 1.433 1_554 S
C271 N274 1.384 . S
C272 H263 0.929 . S
C272 C264 1.378 . S
C272 C267 1.350 . S
C273 H260 0.929 . S
C273 C265 1.433 1_556 S
C273 N275 1.384 . S
N274 C270 1.427 1_554 S
N274 C271 1.384 . S
N275 C267 1.427 1_556 S
N275 C273 1.384 . S
H276 C282 0.930 . S
H277 C286 0.930 . S
H278 C291 0.929 . S
H279 C289 0.929 . S
H280 C284 0.929 . S
H281 C290 0.929 . S
C282 H276 0.930 . S
C282 C283 1.367 . S
C282 C290 1.378 . S
C283 C282 1.367 . S
C283 C291 1.433 . S
C284 H280 0.929 . S
C284 C286 1.378 . S
C284 C288 1.350 . S
C285 C288 1.463 1_556 S
C285 C290 1.350 . S
C285 N293 1.427 . S
C286 H277 0.930 . S
C286 C284 1.378 . S
C286 C287 1.367 . S
C287 C286 1.367 . S
C287 C289 1.433 . S
C288 C284 1.350 . S
C288 C285 1.463 1_554 S
C288 N292 1.427 . S
C289 H279 0.929 . S
C289 C287 1.433 . S
C289 N292 1.384 . S
C290 H281 0.929 . S
C290 C282 1.378 . S
C290 C285 1.350 . S
C291 H278 0.929 . S
C291 C283 1.433 . S
C291 N293 1.384 . S
N292 C288 1.427 . S
N292 C289 1.384 . S
N293 C285 1.427 . S
N293 C291 1.384 . S
H294 C300 0.930 . S
H295 C304 0.930 . S
H296 C309 0.929 . S
H297 C307 0.929 . S
H298 C302 0.929 . S
H299 C308 0.929 . S
C300 H294 0.930 . S
C300 C301 1.367 . S
C300 C308 1.378 . S
C301 C300 1.367 . S
C301 C309 1.433 . S
C302 H298 0.929 . S
C302 C304 1.378 . S
C302 C306 1.350 . S
C303 C306 1.463 . S
C303 C308 1.350 . S
C303 N311 1.427 . S
C304 H295 0.930 . S
C304 C302 1.378 . S
C304 C305 1.367 . S
C305 C304 1.367 . S
C305 C307 1.433 . S
C306 C302 1.350 . S
C306 C303 1.463 . S
C306 N310 1.427 . S
C307 H297 0.929 . S
C307 C305 1.433 . S
C307 N310 1.384 . S
C308 H299 0.929 . S
C308 C300 1.378 . S
C308 C303 1.350 . S
C309 H296 0.929 . S
C309 C301 1.433 . S
C309 N311 1.384 . S
N310 C306 1.427 . S
N310 C307 1.384 . S
N311 C303 1.427 . S
N311 C309 1.384 . S
H312 C318 0.930 . S
H313 C322 0.930 . S
H314 C327 0.929 . S
H315 C325 0.929 . S
H316 C320 0.929 . S
H317 C326 0.929 . S
C318 H312 0.930 . S
C318 C319 1.367 . S
C318 C326 1.378 . S
C319 C318 1.367 . S
C319 C327 1.433 . S
C320 H316 0.929 . S
C320 C322 1.378 . S
C320 C324 1.350 . S
C321 C324 1.463 . S
C321 C326 1.350 . S
C321 N329 1.427 . S
C322 H313 0.930 . S
C322 C320 1.378 . S
C322 C323 1.367 . S
C323 C322 1.367 . S
C323 C325 1.433 . S
C324 C320 1.350 . S
C324 C321 1.463 . S
C324 N328 1.427 . S
C325 H315 0.929 . S
C325 C323 1.433 . S
C325 N328 1.384 . S
C326 H317 0.929 . S
C326 C318 1.378 . S
C326 C321 1.350 . S
C327 H314 0.929 . S
C327 C319 1.433 . S
C327 N329 1.384 . S
N328 C324 1.427 . S
N328 C325 1.384 . S
N329 C321 1.427 . S
N329 C327 1.384 . S
H330 C336 0.930 . S
H331 C340 0.930 . S
H332 C345 0.929 . S
H333 C343 0.929 . S
H334 C338 0.929 1_554 S
H335 C344 0.929 1_556 S
C336 H330 0.930 . S
C336 C337 1.367 . S
C336 C344 1.378 . S
C337 C336 1.367 . S
C337 C345 1.433 . S
C338 H334 0.929 1_556 S
C338 C340 1.378 . S
C338 C342 1.350 . S
C339 C342 1.463 1_554 S
C339 C344 1.350 . S
C339 N347 1.427 . S
C340 H331 0.930 . S
C340 C338 1.378 . S
C340 C341 1.367 . S
C341 C340 1.367 . S
C341 C343 1.433 . S
C342 C338 1.350 . S
C342 C339 1.463 1_556 S
C342 N346 1.427 . S
C343 H333 0.929 . S
C343 C341 1.433 . S
C343 N346 1.384 . S
C344 H335 0.929 1_554 S
C344 C336 1.378 . S
C344 C339 1.350 . S
C345 H332 0.929 . S
C345 C337 1.433 . S
C345 N347 1.384 . S
N346 C342 1.427 . S
N346 C343 1.384 . S
N347 C339 1.427 . S
N347 C345 1.384 . S
H348 C354 0.930 . S
H349 C358 0.930 . S
H350 C363 0.929 . S
H351 C361 0.929 . S
H352 C356 0.929 . S
H353 C362 0.929 . S
C354 H348 0.930 . S
C354 C355 1.367 . S
C354 C362 1.378 . S
C355 C354 1.367 . S
C355 C363 1.433 . S
C356 H352 0.929 . S
C356 C358 1.378 . S
C356 C360 1.350 . S
C357 C360 1.463 . S
C357 C362 1.350 . S
C357 N365 1.427 . S
C358 H349 0.930 . S
C358 C356 1.378 . S
C358 C359 1.367 . S
C359 C358 1.367 . S
C359 C361 1.433 . S
C360 C356 1.350 . S
C360 C357 1.463 . S
C360 N364 1.427 . S
C361 H351 0.929 . S
C361 C359 1.433 . S
C361 N364 1.384 . S
C362 H353 0.929 . S
C362 C354 1.378 . S
C362 C357 1.350 . S
C363 H350 0.929 . S
C363 C355 1.433 . S
C363 N365 1.384 . S
N364 C360 1.427 . S
N364 C361 1.384 . S
N365 C357 1.427 . S
N365 C363 1.384 . S
H366 C372 0.930 . S
H367 C376 0.930 . S
H368 C381 0.929 . S
H369 C379 0.929 . S
H370 C374 0.929 . S
H371 C380 0.929 . S
C372 H366 0.930 . S
C372 C373 1.367 . S
C372 C380 1.378 . S
C373 C372 1.367 . S
C373 C381 1.433 . S
C374 H370 0.929 . S
C374 C376 1.378 . S
C374 C378 1.350 . S
C375 C378 1.463 . S
C375 C380 1.350 . S
C375 N383 1.427 . S
C376 H367 0.930 . S
C376 C374 1.378 . S
C376 C377 1.367 . S
C377 C376 1.367 . S
C377 C379 1.433 . S
C378 C374 1.350 . S
C378 C375 1.463 . S
C378 N382 1.427 . S
C379 H369 0.929 . S
C379 C377 1.433 . S
C379 N382 1.384 . S
C380 H371 0.929 . S
C380 C372 1.378 . S
C380 C375 1.350 . S
C381 H368 0.929 . S
C381 C373 1.433 . S
C381 N383 1.384 . S
N382 C378 1.427 . S
N382 C379 1.384 . S
N383 C375 1.427 . S
N383 C381 1.384 . S
H384 C390 0.930 . S
H385 C394 0.930 . S
H386 C399 0.929 . S
H387 C397 0.929 . S
H388 C392 0.929 . S
H389 C398 0.929 . S
C390 H384 0.930 . S
C390 C391 1.367 . S
C390 C398 1.378 . S
C391 C390 1.367 . S
C391 C399 1.433 . S
C392 H388 0.929 . S
C392 C394 1.378 . S
C392 C396 1.350 . S
C393 C396 1.463 . S
C393 C398 1.350 . S
C393 N401 1.427 . S
C394 H385 0.930 . S
C394 C392 1.378 . S
C394 C395 1.367 . S
C395 C394 1.367 . S
C395 C397 1.433 . S
C396 C392 1.350 . S
C396 C393 1.463 . S
C396 N400 1.427 . S
C397 H387 0.929 . S
C397 C395 1.433 . S
C397 N400 1.384 . S
C398 H389 0.929 . S
C398 C390 1.378 . S
C398 C393 1.350 . S
C399 H386 0.929 . S
C399 C391 1.433 . S
C399 N401 1.384 . S
N400 C396 1.427 . S
N400 C397 1.384 . S
N401 C393 1.427 . S
N401 C399 1.384 . S
H402 C408 0.930 . S
H403 C412 0.930 . S
H404 C417 0.929 . S
H405 C415 0.929 . S
H406 C410 0.929 . S
H407 C416 0.929 . S
C408 H402 0.930 . S
C408 C409 1.367 . S
C408 C416 1.378 . S
C409 C408 1.367 . S
C409 C417 1.433 . S
C410 H406 0.929 . S
C410 C412 1.378 . S
C410 C414 1.350 . S
C411 C414 1.463 . S
C411 C416 1.350 . S
C411 N419 1.427 . S
C412 H403 0.930 . S
C412 C410 1.378 . S
C412 C413 1.367 . S
C413 C412 1.367 . S
C413 C415 1.433 . S
C414 C410 1.350 . S
C414 C411 1.463 . S
C414 N418 1.427 . S
C415 H405 0.929 . S
C415 C413 1.433 . S
C415 N418 1.384 . S
C416 H407 0.929 . S
C416 C408 1.378 . S
C416 C411 1.350 . S
C417 H404 0.929 . S
C417 C409 1.433 . S
C417 N419 1.384 . S
N418 C414 1.427 . S
N418 C415 1.384 . S
N419 C411 1.427 . S
N419 C417 1.384 . S
H420 C426 0.930 . S
H421 C430 0.930 . S
H422 C435 0.929 . S
H423 C433 0.929 . S
H424 C428 0.929 . S
H425 C434 0.929 . S
C426 H420 0.930 . S
C426 C427 1.367 . S
C426 C434 1.378 . S
C427 C426 1.367 . S
C427 C435 1.433 . S
C428 H424 0.929 . S
C428 C430 1.378 . S
C428 C432 1.350 . S
C429 C432 1.463 . S
C429 C434 1.350 . S
C429 N437 1.427 . S
C430 H421 0.930 . S
C430 C428 1.378 . S
C430 C431 1.367 . S
C431 C430 1.367 . S
C431 C433 1.433 . S
C432 C428 1.350 . S
C432 C429 1.463 . S
C432 N436 1.427 . S
C433 H423 0.929 . S
C433 C431 1.433 . S
C433 N436 1.384 . S
C434 H425 0.929 . S
C434 C426 1.378 . S
C434 C429 1.350 . S
C435 H422 0.929 . S
C435 C427 1.433 . S
C435 N437 1.384 . S
N436 C432 1.427 . S
N436 C433 1.384 . S
N437 C429 1.427 . S
N437 C435 1.384 . S
H438 C444 0.930 . S
H439 C448 0.930 . S
H440 C453 0.929 . S
H441 C451 0.929 . S
H442 C446 0.929 . S
H443 C452 0.929 . S
C444 H438 0.930 . S
C444 C445 1.367 . S
C444 C452 1.378 . S
C445 C444 1.367 . S
C445 C453 1.433 . S
C446 H442 0.929 . S
C446 C448 1.378 . S
C446 C450 1.350 . S
C447 C450 1.463 . S
C447 C452 1.350 . S
C447 N455 1.427 . S
C448 H439 0.930 . S
C448 C446 1.378 . S
C448 C449 1.367 . S
C449 C448 1.367 . S
C449 C451 1.433 . S
C450 C446 1.350 . S
C450 C447 1.463 . S
C450 N454 1.427 . S
C451 H441 0.929 . S
C451 C449 1.433 . S
C451 N454 1.384 . S
C452 H443 0.929 . S
C452 C444 1.378 . S
C452 C447 1.350 . S
C453 H440 0.929 . S
C453 C445 1.433 . S
C453 N455 1.384 . S
N454 C450 1.427 . S
N454 C451 1.384 . S
N455 C447 1.427 . S
N455 C453 1.384 . S
H456 C462 0.930 . S
H457 C466 0.930 . S
H458 C471 0.929 . S
H459 C469 0.929 . S
H460 C464 0.929 . S
H461 C470 0.929 . S
C462 H456 0.930 . S
C462 C463 1.367 . S
C462 C470 1.378 . S
C463 C462 1.367 . S
C463 C471 1.433 . S
C464 H460 0.929 . S
C464 C466 1.378 . S
C464 C468 1.350 . S
C465 C468 1.463 . S
C465 C470 1.350 . S
C465 N473 1.427 . S
C466 H457 0.930 . S
C466 C464 1.378 . S
C466 C467 1.367 . S
C467 C466 1.367 . S
C467 C469 1.433 . S
C468 C464 1.350 . S
C468 C465 1.463 . S
C468 N472 1.427 . S
C469 H459 0.929 . S
C469 C467 1.433 . S
C469 N472 1.384 . S
C470 H461 0.929 . S
C470 C462 1.378 . S
C470 C465 1.350 . S
C471 H458 0.929 . S
C471 C463 1.433 . S
C471 N473 1.384 . S
N472 C468 1.427 . S
N472 C469 1.384 . S
N473 C465 1.427 . S
N473 C471 1.384 . S
H474 C480 0.930 . S
H475 C484 0.930 . S
H476 C489 0.929 . S
H477 C487 0.929 . S
H478 C482 0.929 . S
H479 C488 0.929 . S
C480 H474 0.930 . S
C480 C481 1.367 . S
C480 C488 1.378 . S
C481 C480 1.367 . S
C481 C489 1.433 . S
C482 H478 0.929 . S
C482 C484 1.378 . S
C482 C486 1.350 . S
C483 C486 1.463 . S
C483 C488 1.350 . S
C483 N491 1.427 . S
C484 H475 0.930 . S
C484 C482 1.378 . S
C484 C485 1.367 . S
C485 C484 1.367 . S
C485 C487 1.433 . S
C486 C482 1.350 . S
C486 C483 1.463 . S
C486 N490 1.427 . S
C487 H477 0.929 . S
C487 C485 1.433 . S
C487 N490 1.384 . S
C488 H479 0.929 . S
C488 C480 1.378 . S
C488 C483 1.350 . S
C489 H476 0.929 . S
C489 C481 1.433 . S
C489 N491 1.384 . S
N490 C486 1.427 . S
N490 C487 1.384 . S
N491 C483 1.427 . S
N491 C489 1.384 . S
H492 C498 0.930 . S
H493 C502 0.930 . S
H494 C507 0.929 . S
H495 C505 0.929 . S
H496 C500 0.929 . S
H497 C506 0.929 . S
C498 H492 0.930 . S
C498 C499 1.367 . S
C498 C506 1.378 . S
C499 C498 1.367 . S
C499 C507 1.433 . S
C500 H496 0.929 . S
C500 C502 1.378 . S
C500 C504 1.350 . S
C501 C504 1.463 . S
C501 C506 1.350 . S
C501 N509 1.427 . S
C502 H493 0.930 . S
C502 C500 1.378 . S
C502 C503 1.367 . S
C503 C502 1.367 . S
C503 C505 1.433 . S
C504 C500 1.350 . S
C504 C501 1.463 . S
C504 N508 1.427 . S
C505 H495 0.929 . S
C505 C503 1.433 . S
C505 N508 1.384 . S
C506 H497 0.929 . S
C506 C498 1.378 . S
C506 C501 1.350 . S
C507 H494 0.929 . S
C507 C499 1.433 . S
C507 N509 1.384 . S
N508 C504 1.427 . S
N508 C505 1.384 . S
N509 C501 1.427 . S
N509 C507 1.384 . S
H510 C516 0.930 . S
H511 C520 0.930 . S
H512 C525 0.929 . S
H513 C523 0.929 . S
H514 C518 0.929 . S
H515 C524 0.929 . S
C516 H510 0.930 . S
C516 C517 1.367 . S
C516 C524 1.378 . S
C517 C516 1.367 . S
C517 C525 1.433 . S
C518 H514 0.929 . S
C518 C520 1.378 . S
C518 C522 1.350 . S
C519 C522 1.463 . S
C519 C524 1.350 . S
C519 N527 1.427 . S
C520 H511 0.930 . S
C520 C518 1.378 . S
C520 C521 1.367 . S
C521 C520 1.367 . S
C521 C523 1.433 . S
C522 C518 1.350 . S
C522 C519 1.463 . S
C522 N526 1.427 . S
C523 H513 0.929 . S
C523 C521 1.433 . S
C523 N526 1.384 . S
C524 H515 0.929 . S
C524 C516 1.378 . S
C524 C519 1.350 . S
C525 H512 0.929 . S
C525 C517 1.433 . S
C525 N527 1.384 . S
N526 C522 1.427 . S
N526 C523 1.384 . S
N527 C519 1.427 . S
N527 C525 1.384 . S
H528 C534 0.930 . S
H529 C538 0.930 . S
H530 C543 0.929 . S
H531 C541 0.929 . S
H532 C536 0.929 1_556 S
H533 C542 0.929 1_554 S
C534 H528 0.930 . S
C534 C535 1.367 . S
C534 C542 1.378 . S
C535 C534 1.367 . S
C535 C543 1.433 . S
C536 H532 0.929 1_554 S
C536 C538 1.378 . S
C536 C540 1.350 . S
C537 C540 1.463 1_556 S
C537 C542 1.350 . S
C537 N545 1.427 . S
C538 H529 0.930 . S
C538 C536 1.378 . S
C538 C539 1.367 . S
C539 C538 1.367 . S
C539 C541 1.433 . S
C540 C536 1.350 . S
C540 C537 1.463 1_554 S
C540 N544 1.427 . S
C541 H531 0.929 . S
C541 C539 1.433 . S
C541 N544 1.384 . S
C542 H533 0.929 1_556 S
C542 C534 1.378 . S
C542 C537 1.350 . S
C543 H530 0.929 . S
C543 C535 1.433 . S
C543 N545 1.384 . S
N544 C540 1.427 . S
N544 C541 1.384 . S
N545 C537 1.427 . S
N545 C543 1.384 . S
H546 C552 0.930 . S
H547 C556 0.930 . S
H548 C561 0.929 . S
H549 C559 0.929 . S
H550 C554 0.929 . S
H551 C560 0.929 . S
C552 H546 0.930 . S
C552 C553 1.367 . S
C552 C560 1.378 . S
C553 C552 1.367 . S
C553 C561 1.433 . S
C554 H550 0.929 . S
C554 C556 1.378 . S
C554 C558 1.350 . S
C555 C558 1.463 . S
C555 C560 1.350 . S
C555 N563 1.427 . S
C556 H547 0.930 . S
C556 C554 1.378 . S
C556 C557 1.367 . S
C557 C556 1.367 . S
C557 C559 1.433 . S
C558 C554 1.350 . S
C558 C555 1.463 . S
C558 N562 1.427 . S
C559 H549 0.929 . S
C559 C557 1.433 . S
C559 N562 1.384 . S
C560 H551 0.929 . S
C560 C552 1.378 . S
C560 C555 1.350 . S
C561 H548 0.929 . S
C561 C553 1.433 . S
C561 N563 1.384 . S
N562 C558 1.427 . S
N562 C559 1.384 . S
N563 C555 1.427 . S
N563 C561 1.384 . S
H564 C570 0.930 . S
H565 C574 0.930 . S
H566 C579 0.929 . S
H567 C577 0.929 . S
H568 C572 0.929 . S
H569 C578 0.929 . S
C570 H564 0.930 . S
C570 C571 1.367 . S
C570 C578 1.378 . S
C571 C570 1.367 . S
C571 C579 1.433 . S
C572 H568 0.929 . S
C572 C574 1.378 . S
C572 C576 1.350 . S
C573 C576 1.463 . S
C573 C578 1.350 . S
C573 N581 1.427 . S
C574 H565 0.930 . S
C574 C572 1.378 . S
C574 C575 1.367 . S
C575 C574 1.367 . S
C575 C577 1.433 . S
C576 C572 1.350 . S
C576 C573 1.463 . S
C576 N580 1.427 . S
C577 H567 0.929 . S
C577 C575 1.433 . S
C577 N580 1.384 . S
C578 H569 0.929 . S
C578 C570 1.378 . S
C578 C573 1.350 . S
C579 H566 0.929 . S
C579 C571 1.433 . S
C579 N581 1.384 . S
N580 C576 1.427 . S
N580 C577 1.384 . S
N581 C573 1.427 . S
N581 C579 1.384 . S
H582 C588 0.930 . S
H583 C592 0.930 . S
H584 C597 0.929 . S
H585 C595 0.929 . S
H586 C590 0.929 . S
H587 C596 0.929 . S
C588 H582 0.930 . S
C588 C589 1.367 . S
C588 C596 1.378 . S
C589 C588 1.367 . S
C589 C597 1.433 . S
C590 H586 0.929 . S
C590 C592 1.378 . S
C590 C594 1.350 . S
C591 C594 1.463 1_554 S
C591 C596 1.350 . S
C591 N599 1.427 . S
C592 H583 0.930 . S
C592 C590 1.378 . S
C592 C593 1.367 . S
C593 C592 1.367 . S
C593 C595 1.433 . S
C594 C590 1.350 . S
C594 C591 1.463 1_556 S
C594 N598 1.427 . S
C595 H585 0.929 . S
C595 C593 1.433 . S
C595 N598 1.384 . S
C596 H587 0.929 . S
C596 C588 1.378 . S
C596 C591 1.350 . S
C597 H584 0.929 . S
C597 C589 1.433 . S
C597 N599 1.384 . S
N598 C594 1.427 . S
N598 C595 1.384 . S
N599 C591 1.427 . S
N599 C597 1.384 . S
C175 C11 1.333 . S
C179 C137 1.344 . S
C193 C25 1.343 . S
C197 C151 1.331 . S
C211 C39 1.335 . S
C215 C165 1.328 . S
C229 C53 1.328 . S
C233 C95 1.332 . S
C247 C109 1.329 . S
C251 C67 1.332 . S
C265 C123 1.338 . S
C269 C81 1.344 . S
C283 C145 1.288 . S
C287 C5 1.295 . S
C301 C19 1.309 . S
C305 C159 1.302 . S
C319 C33 1.293 . S
C323 C89 1.287 . S
C337 C47 1.283 . S
C341 C103 1.287 . S
C355 C61 1.311 . S
C359 C117 1.313 . S
C373 C75 1.309 . S
C377 C131 1.312 . S
C391 C144 1.001 . S
C395 C4 1.006 . S
C409 C18 0.988 . S
C413 C158 0.994 . S
C427 C32 0.994 . S
C431 C88 0.988 . S
C445 C46 1.007 . S
C449 C102 1.003 . S
C463 C60 1.007 . S
C467 C116 1.003 . S
C481 C74 0.989 . S
C485 C130 0.986 . S
C499 C12 1.564 . S
C503 C96 1.565 . S
C517 C110 1.564 . S
C521 C26 1.565 . S
C535 C40 1.563 . S
C539 C124 1.566 . S
C553 C54 1.564 . S
C557 C138 1.564 . S
C571 C68 1.565 . S
C575 C152 1.564 . S
C589 C166 1.563 . S
C593 C82 1.566 . S
