# Generated by pormake.
# Topology smm, (6)-cn, num edge types: 1
# Building blocks:
#     Node 0, Type 0, BuildingBlock: JUFBIX_clean_sbu_0, # of connection points: 6
#     Node 1, Type 0, BuildingBlock: JUFBIX_clean_sbu_0, # of connection points: 6
#     Node 2, Type 0, BuildingBlock: JUFBIX_clean_sbu_0, # of connection points: 6
#     Node 3, Type 0, BuildingBlock: JUFBIX_clean_sbu_0, # of connection points: 6
#     Node 4, Type 0, BuildingBlock: JUFBIX_clean_sbu_0, # of connection points: 6
#     Node 5, Type 0, BuildingBlock: JUFBIX_clean_sbu_0, # of connection points: 6
#     Node 6, Type 0, BuildingBlock: JUFBIX_clean_sbu_0, # of connection points: 6
#     Node 7, Type 0, BuildingBlock: JUFBIX_clean_sbu_0, # of connection points: 6
#     Node 8, Type 0, BuildingBlock: JUFBIX_clean_sbu_0, # of connection points: 6
#     Edge 9, Type (0, 0), BuildingBlock: MIFKUJ_clean_linker_0, # of connection points: 2
#     Edge 10, Type (0, 0), BuildingBlock: MIFKUJ_clean_linker_0, # of connection points: 2
#     Edge 11, Type (0, 0), BuildingBlock: MIFKUJ_clean_linker_0, # of connection points: 2
#     Edge 12, Type (0, 0), BuildingBlock: MIFKUJ_clean_linker_0, # of connection points: 2
#     Edge 13, Type (0, 0), BuildingBlock: MIFKUJ_clean_linker_0, # of connection points: 2
#     Edge 14, Type (0, 0), BuildingBlock: MIFKUJ_clean_linker_0, # of connection points: 2
#     Edge 15, Type (0, 0), BuildingBlock: MIFKUJ_clean_linker_0, # of connection points: 2
#     Edge 16, Type (0, 0), BuildingBlock: MIFKUJ_clean_linker_0, # of connection points: 2
#     Edge 17, Type (0, 0), BuildingBlock: MIFKUJ_clean_linker_0, # of connection points: 2
#     Edge 18, Type (0, 0), BuildingBlock: MIFKUJ_clean_linker_0, # of connection points: 2
#     Edge 19, Type (0, 0), BuildingBlock: MIFKUJ_clean_linker_0, # of connection points: 2
#     Edge 20, Type (0, 0), BuildingBlock: MIFKUJ_clean_linker_0, # of connection points: 2
#     Edge 21, Type (0, 0), BuildingBlock: MIFKUJ_clean_linker_0, # of connection points: 2
#     Edge 22, Type (0, 0), BuildingBlock: MIFKUJ_clean_linker_0, # of connection points: 2
#     Edge 23, Type (0, 0), BuildingBlock: MIFKUJ_clean_linker_0, # of connection points: 2
#     Edge 24, Type (0, 0), BuildingBlock: MIFKUJ_clean_linker_0, # of connection points: 2
#     Edge 25, Type (0, 0), BuildingBlock: MIFKUJ_clean_linker_0, # of connection points: 2
#     Edge 26, Type (0, 0), BuildingBlock: MIFKUJ_clean_linker_0, # of connection points: 2
#     Edge 27, Type (0, 0), BuildingBlock: MIFKUJ_clean_linker_0, # of connection points: 2
#     Edge 28, Type (0, 0), BuildingBlock: MIFKUJ_clean_linker_0, # of connection points: 2
#     Edge 29, Type (0, 0), BuildingBlock: MIFKUJ_clean_linker_0, # of connection points: 2
#     Edge 30, Type (0, 0), BuildingBlock: MIFKUJ_clean_linker_0, # of connection points: 2
#     Edge 31, Type (0, 0), BuildingBlock: MIFKUJ_clean_linker_0, # of connection points: 2
#     Edge 32, Type (0, 0), BuildingBlock: MIFKUJ_clean_linker_0, # of connection points: 2
#     Edge 33, Type (0, 0), BuildingBlock: MIFKUJ_clean_linker_0, # of connection points: 2
#     Edge 34, Type (0, 0), BuildingBlock: MIFKUJ_clean_linker_0, # of connection points: 2
#     Edge 35, Type (0, 0), BuildingBlock: MIFKUJ_clean_linker_0, # of connection points: 2
# Relax obj value: 0.254
# Max RMSD: 0.208
# Mean RMSD: 0.208
data_MOF--net-smm--node1-JUFBIX_clean_sbu_0--edge1-MIFKUJ_clean_linker_0
_symmetry_space_group_name_H-M    P1
_symmetry_Int_Tables_number       1
_symmetry_cell_setting            triclinic
loop_
_symmetry_equiv_pos_as_xyz
'x, y, z'
_cell_length_a     72.87034
_cell_length_b     72.817856
_cell_length_c     18.797836
_cell_angle_alpha  90.057105
_cell_angle_beta   89.977022
_cell_angle_gamma 120.10779
loop_
_atom_site_label
_atom_site_type_symbol
_atom_site_fract_x
_atom_site_fract_y
_atom_site_fract_z
_atom_type_partial_charge
Co0 Co 1.00017 0.17226 -0.00537 0.0
C1 C 0.02201 0.18732 0.12068 0.0
Co2 Co 0.02849 0.20439 0.9884 0.0
C3 C 0.97243 0.12722 0.97083 0.0
C4 C 0.95973 0.13969 0.04712 0.0
N5 N 0.97639 0.14542 0.00326 0.0
N6 N 0.95401 0.11039 -0.00716 0.0
C7 C 0.94593 0.11823 0.04065 0.0
H8 H 0.98299 0.12626 0.93243 0.0
H9 H 0.95799 0.15031 0.08318 0.0
C10 C 0.00672 0.18927 0.86218 0.0
N11 N 0.05221 0.23116 0.98002 0.0
C12 C 0.05425 0.24765 0.94104 0.0
C13 C 0.07137 0.23823 0.01021 0.0
N14 N 0.07397 0.26476 0.94534 0.0
C15 C 0.08475 0.25885 0.98912 0.0
C16 C 0.037 0.17167 0.96378 0.0
O17 O 0.99451 0.17279 0.89778 0.0
O18 O 0.02251 0.20473 0.89211 0.0
O19 O 0.04527 0.19174 0.96635 0.0
O20 O 0.01716 0.16002 0.97346 0.0
O21 O 0.03415 0.20371 0.08471 0.0
H22 H 0.07539 0.22894 0.04497 0.0
H23 H 0.04156 0.24686 0.9089 0.0
O24 O 0.00604 0.17186 0.09134 0.0
O25 O 0.98355 0.18501 0.01663 0.0
O26 O 0.01165 0.21679 0.01155 0.0
C27 C 0.99186 0.20501 0.02252 0.0
H28 H 0.93156 0.10897 0.07111 0.0
H29 H 0.10111 0.26869 0.00527 0.0
Co30 Co 0.86059 0.84942 0.05583 0.0
C31 C 0.84813 0.86004 0.18161 0.0
Co32 Co 0.82914 0.84713 0.05108 0.0
C33 C 0.90601 0.86695 0.03738 0.0
C34 C 0.89213 0.83903 0.10196 0.0
N35 N 0.88721 0.85165 0.06359 0.0
N36 N 0.92231 0.86434 0.05792 0.0
C37 C 0.9136 0.84671 0.09821 0.0
H38 H 0.90788 0.88 0.00471 0.0
H39 H 0.88102 0.82552 0.13312 0.0
C40 C 0.84194 0.83682 0.92498 0.0
N41 N 0.80275 0.84483 0.0439 0.0
C42 C 0.78548 0.8293 0.0108 0.0
C43 C 0.79658 0.85822 0.06913 0.0
N44 N 0.76872 0.83241 0.01407 0.0
C45 C 0.77569 0.85064 0.05089 0.0
C46 C 0.8623 0.88678 0.01285 0.0
O47 O 0.85844 0.84076 0.95999 0.0
O48 O 0.82726 0.83848 0.9554 0.0
O49 O 0.8423 0.87593 0.02074 0.0
O50 O 0.8734 0.87819 0.02586 0.0
O51 O 0.83148 0.85588 0.14711 0.0
H52 H 0.80665 0.87258 0.09867 0.0
H53 H 0.78541 0.81615 0.98369 0.0
O54 O 0.86267 0.85818 0.15114 0.0
O55 O 0.84704 0.8205 0.08618 0.0
O56 O 0.81603 0.81843 0.08162 0.0
C57 C 0.82707 0.80981 0.09511 0.0
H58 H 0.92228 0.8404 0.12583 0.0
H59 H 0.76636 0.85793 0.06439 0.0
Co60 Co 0.18677 0.03576 -0.00264 0.0
C61 C 0.19547 0.01956 0.11955 0.0
Co62 Co 0.18866 0.00652 0.98374 0.0
C63 C 0.1691 0.06324 -0.00187 0.0
C64 C 0.19873 0.07718 0.05352 0.0
N65 N 0.18505 0.05981 0.01626 0.0
N66 N 0.17219 0.08201 0.0227 0.0
C67 C 0.1909 0.09089 0.05738 0.0
H68 H 0.15544 0.05212 0.96734 0.0
H69 H 0.21327 0.07955 0.07736 0.0
C70 C 0.18013 0.0227 0.86136 0.0
N71 N 0.18985 0.98215 0.96195 0.0
C72 C 0.20684 0.97935 0.95852 0.0
C73 C 0.17401 0.96471 0.93033 0.0
N74 N 0.20221 0.96113 0.92491 0.0
C75 C 0.18157 0.95186 0.90742 0.0
C76 C 0.14802 0.99852 0.01318 0.0
O77 O 0.18143 0.03748 0.90054 0.0
O78 O 0.1831 0.00839 0.88775 0.0
O79 O 0.15903 0.98977 0.00131 0.0
O80 O 0.15713 0.01863 0.0143 0.0
O81 O 0.19412 0.00475 0.08013 0.0
H82 H 0.15834 0.9622 0.91951 0.0
H83 H 0.22268 0.99115 0.97503 0.0
O84 O 0.19234 0.03389 0.0937 0.0
O85 O 0.21629 0.05264 0.98105 0.0
O86 O 0.21847 0.02389 0.9675 0.0
C87 C 0.22752 0.04403 0.97059 0.0
H88 H 0.19816 0.10595 0.08512 0.0
H89 H 0.17289 0.93736 0.87692 0.0
Co90 Co 0.6621 0.50014 0.34161 0.0
C91 C 0.67773 0.52315 0.46645 0.0
Co92 Co 0.69135 0.53156 0.33153 0.0
C93 C 0.63467 0.4545 0.34287 0.0
C94 C 0.61991 0.47059 0.39005 0.0
N95 N 0.63779 0.47407 0.35692 0.0
N96 N 0.61561 0.43897 0.36619 0.0
C97 C 0.60623 0.44907 0.39558 0.0
H98 H 0.64629 0.45169 0.31684 0.0
H99 H 0.61724 0.4829 0.41102 0.0
C100 C 0.67561 0.50869 0.20649 0.0
N101 N 0.71584 0.55761 0.3159 0.0
C102 C 0.71864 0.57736 0.32195 0.0
C103 C 0.73432 0.5606 0.28906 0.0
N104 N 0.73805 0.59247 0.29967 0.0
C105 C 0.74799 0.58195 0.27936 0.0
C106 C 0.69925 0.49847 0.35377 0.0
O107 O 0.66075 0.49472 0.24428 0.0
O108 O 0.69002 0.52568 0.23468 0.0
O109 O 0.708 0.51843 0.34579 0.0
O110 O 0.67915 0.48736 0.35417 0.0
O111 O 0.69247 0.5372 0.4285 0.0
H112 H 0.73744 0.54805 0.27454 0.0
H113 H 0.70653 0.5806 0.34094 0.0
O114 O 0.66361 0.5059 0.43866 0.0
O115 O 0.64541 0.51323 0.32942 0.0
O116 O 0.6742 0.54427 0.31836 0.0
C117 C 0.65409 0.53321 0.32164 0.0
H118 H 0.59096 0.44147 0.42186 0.0
H119 H 0.76362 0.58906 0.2557 0.0
Co120 Co 0.52315 0.17439 0.33764 0.0
C121 C 0.50006 0.16514 0.46234 0.0
Co122 Co 0.49187 0.17219 0.32786 0.0
C123 C 0.56856 0.19254 0.33207 0.0
C124 C 0.55309 0.162 0.38184 0.0
N125 N 0.54926 0.17635 0.35023 0.0
N126 N 0.5843 0.18887 0.3511 0.0
C127 C 0.5746 0.16961 0.38226 0.0
H128 H 0.571 0.20675 0.30529 0.0
H129 H 0.54103 0.14709 0.40418 0.0
C130 C 0.51494 0.18144 0.20318 0.0
N131 N 0.46567 0.17002 0.31474 0.0
C132 C 0.45086 0.15793 0.26606 0.0
C133 C 0.45729 0.18018 0.35024 0.0
N134 N 0.43357 0.16013 0.26958 0.0
C135 C 0.43757 0.17417 0.32244 0.0
C136 C 0.52433 0.21289 0.35737 0.0
O137 O 0.52883 0.1804 0.24075 0.0
O138 O 0.4976 0.17787 0.23104 0.0
O139 O 0.50453 0.20182 0.34534 0.0
O140 O 0.53545 0.20391 0.35722 0.0
O141 O 0.48638 0.16665 0.42504 0.0
H142 H 0.465 0.19119 0.39361 0.0
H143 H 0.45287 0.14789 0.22806 0.0
O144 O 0.51722 0.16826 0.43424 0.0
O145 O 0.5106 0.14494 0.31867 0.0
O146 O 0.47946 0.14247 0.31127 0.0
C147 C 0.49066 0.13359 0.31058 0.0
H148 H 0.5825 0.16183 0.40548 0.0
H149 H 0.42686 0.17944 0.3406 0.0
Co150 Co 0.8476 0.35956 0.37906 0.0
C151 C 0.83948 0.33694 0.5045 0.0
Co152 Co 0.85072 0.33087 0.37272 0.0
C153 C 0.83043 0.38772 0.36139 0.0
C154 C 0.85669 0.40017 0.43343 0.0
N155 N 0.84506 0.38362 0.38966 0.0
N156 N 0.83248 0.4061 0.38594 0.0
C157 C 0.84908 0.41402 0.43099 0.0
H158 H 0.81826 0.37725 0.32447 0.0
H159 H 0.8694 0.40174 0.46725 0.0
C160 C 0.85866 0.35352 0.24713 0.0
N161 N 0.8534 0.30701 0.363 0.0
C162 C 0.86877 0.30555 0.32775 0.0
C163 C 0.84036 0.28733 0.38815 0.0
N164 N 0.86585 0.28571 0.32956 0.0
C165 C 0.84795 0.2742 0.36768 0.0
C166 C 0.81003 0.32327 0.34393 0.0
O167 O 0.85445 0.36577 0.28272 0.0
O168 O 0.85789 0.33751 0.27685 0.0
O169 O 0.82148 0.31467 0.34764 0.0
O170 O 0.81843 0.34307 0.35546 0.0
O171 O 0.84354 0.32459 0.46896 0.0
H172 H 0.82621 0.28281 0.41914 0.0
H173 H 0.88163 0.31877 0.30012 0.0
O174 O 0.84064 0.35315 0.47495 0.0
O175 O 0.87693 0.37563 0.40314 0.0
O176 O 0.87977 0.3471 0.39833 0.0
C177 C 0.88817 0.36689 0.40975 0.0
H178 H 0.85469 0.42828 0.46259 0.0
H179 H 0.84091 0.25753 0.38055 0.0
Co180 Co 0.3373 0.83873 0.68567 0.0
C181 C 0.36126 0.85632 0.80753 0.0
Co182 Co 0.3659 0.87033 0.67139 0.0
C183 C 0.30888 0.7935 0.67313 0.0
C184 C 0.29852 0.80754 0.75191 0.0
N185 N 0.3137 0.81232 0.70258 0.0
N186 N 0.2914 0.77713 0.70245 0.0
C187 C 0.28479 0.78597 0.75184 0.0
H188 H 0.31827 0.79182 0.63178 0.0
H189 H 0.29791 0.81891 0.78749 0.0
C190 C 0.34185 0.85261 0.54958 0.0
N191 N 0.38942 0.89669 0.65404 0.0
C192 C 0.39016 0.91194 0.61141 0.0
C193 C 0.40944 0.90456 0.6777 0.0
N194 N 0.40984 0.92904 0.60694 0.0
C195 C 0.42203 0.92444 0.64887 0.0
C196 C 0.37326 0.83673 0.65204 0.0
O197 O 0.32993 0.83691 0.58883 0.0
O198 O 0.35817 0.86841 0.57572 0.0
O199 O 0.38205 0.85686 0.65009 0.0
O200 O 0.35363 0.82573 0.66624 0.0
O201 O 0.3733 0.87197 0.76822 0.0
H202 H 0.41457 0.89629 0.713 0.0
H203 H 0.3765 0.91023 0.58283 0.0
O204 O 0.34484 0.84057 0.78147 0.0
O205 O 0.32128 0.85226 0.70629 0.0
O206 O 0.34972 0.88353 0.69275 0.0
C207 C 0.33009 0.87239 0.70721 0.0
H208 H 0.27155 0.7774 0.78771 0.0
H209 H 0.43882 0.9347 0.65848 0.0
Co210 Co 0.19639 0.51196 0.66147 0.0
C211 C 0.1742 0.50478 0.7877 0.0
Co212 Co 0.16524 0.51023 0.65387 0.0
C213 C 0.24131 0.52837 0.64861 0.0
C214 C 0.22635 0.50033 0.71269 0.0
N215 N 0.22226 0.51336 0.6736 0.0
N216 N 0.25724 0.52537 0.67092 0.0
C217 C 0.24781 0.50765 0.71116 0.0
H218 H 0.24337 0.54134 0.61509 0.0
H219 H 0.21456 0.48669 0.74186 0.0
C220 C 0.18707 0.51703 0.5274 0.0
N221 N 0.13936 0.50906 0.64065 0.0
C222 C 0.11957 0.49221 0.64735 0.0
C223 C 0.13651 0.52463 0.61378 0.0
N224 N 0.10454 0.49658 0.62506 0.0
C225 C 0.1152 0.51705 0.6044 0.0
C226 C 0.19892 0.55114 0.67493 0.0
O227 O 0.20104 0.5158 0.56382 0.0
O228 O 0.17047 0.51483 0.55707 0.0
O229 O 0.17888 0.54012 0.66886 0.0
O230 O 0.20974 0.54187 0.67362 0.0
O231 O 0.16012 0.50561 0.75059 0.0
H232 H 0.14914 0.54022 0.59855 0.0
H233 H 0.11627 0.47683 0.66633 0.0
O234 O 0.19132 0.50791 0.7591 0.0
O235 O 0.18292 0.48214 0.64962 0.0
O236 O 0.15207 0.48028 0.63988 0.0
C237 C 0.16292 0.47102 0.64228 0.0
H238 H 0.25585 0.50081 0.73957 0.0
H239 H 0.10823 0.52562 0.58028 0.0
Co240 Co 0.51959 0.69624 0.68589 0.0
C241 C 0.51245 0.67382 0.81162 0.0
Co242 Co 0.52386 0.66823 0.67949 0.0
C243 C 0.50187 0.72403 0.66755 0.0
C244 C 0.52687 0.73564 0.74447 0.0
N245 N 0.51627 0.71981 0.69724 0.0
N246 N 0.50296 0.74172 0.69505 0.0
C247 C 0.51883 0.74911 0.74307 0.0
H248 H 0.4902 0.7138 0.62885 0.0
H249 H 0.53921 0.73696 0.77967 0.0
C250 C 0.53104 0.69081 0.5539 0.0
N251 N 0.52707 0.64466 0.66957 0.0
C252 C 0.54128 0.64266 0.62909 0.0
C253 C 0.51508 0.62546 0.69971 0.0
N254 N 0.5386 0.62291 0.63239 0.0
C255 C 0.52213 0.61209 0.67714 0.0
C256 C 0.48267 0.65944 0.65106 0.0
O257 O 0.5265 0.70278 0.58979 0.0
O258 O 0.53058 0.67489 0.58328 0.0
O259 O 0.49456 0.65135 0.65577 0.0
O260 O 0.49054 0.67922 0.66161 0.0
O261 O 0.51717 0.66199 0.77589 0.0
H262 H 0.50192 0.62138 0.73531 0.0
H263 H 0.55304 0.65537 0.59652 0.0
O264 O 0.51262 0.68954 0.78194 0.0
O265 O 0.54882 0.71288 0.7104 0.0
O266 O 0.55298 0.68513 0.70394 0.0
C267 C 0.5607 0.70482 0.71617 0.0
H268 H 0.52408 0.7631 0.77583 0.0
H269 H 0.5156 0.5957 0.69288 0.0
H270 H 0.05113 0.28194 0.89236 0.0
H271 H 0.06483 0.31572 0.82998 0.0
H272 H 0.12863 0.32739 0.85461 0.0
H273 H 0.11513 0.29353 0.91577 0.0
H274 H 0.12559 0.36219 0.88859 0.0
H275 H 0.10427 0.31184 0.69692 0.0
H276 H 0.07921 0.27958 0.63103 0.0
H277 H 0.03737 0.30447 0.60189 0.0
H278 H 0.06207 0.3368 0.66859 0.0
H279 H 0.18152 0.44677 0.65833 0.0
H280 H 0.16437 0.40987 0.69715 0.0
H281 H 0.10317 0.40532 0.68284 0.0
H282 H 0.12019 0.44235 0.64371 0.0
H283 H 0.10333 0.36694 0.64284 0.0
H284 H 0.12499 0.4175 0.83391 0.0
H285 H 0.15055 0.45 0.89742 0.0
H286 H 0.19174 0.42441 0.92838 0.0
H287 H 0.16658 0.39188 0.86365 0.0
C288 C 0.06806 0.29153 0.88396 0.0
C289 C 0.08198 0.28487 0.9092 0.0
C290 C 0.07587 0.3109 0.8484 0.0
C291 C 0.09774 0.324 0.83722 0.0
C292 C 0.11169 0.31755 0.86286 0.0
C293 C 0.10391 0.29817 0.89816 0.0
C294 C 0.10619 0.34455 0.79929 0.0
C295 C 0.12089 0.36317 0.83461 0.0
C296 C 0.09965 0.34589 0.72944 0.0
C297 C 0.08492 0.32665 0.68837 0.0
C298 C 0.08966 0.31038 0.6769 0.0
C299 C 0.07554 0.29209 0.63936 0.0
C300 C 0.0567 0.28996 0.61249 0.0
C301 C 0.05197 0.30615 0.62285 0.0
C302 C 0.06604 0.32447 0.66047 0.0
C303 C 0.16436 0.43781 0.66152 0.0
C304 C 0.15225 0.44762 0.64889 0.0
C305 C 0.1546 0.41671 0.68387 0.0
C306 C 0.13256 0.40502 0.69402 0.0
C307 C 0.12022 0.41412 0.67552 0.0
C308 C 0.12999 0.43531 0.65328 0.0
C309 C 0.12291 0.38442 0.7319 0.0
C310 C 0.10796 0.36588 0.69684 0.0
C311 C 0.12916 0.38309 0.80215 0.0
C312 C 0.14402 0.40235 0.84311 0.0
C313 C 0.13959 0.41888 0.85366 0.0
C314 C 0.15404 0.43734 0.8897 0.0
C315 C 0.17287 0.43937 0.91627 0.0
C316 C 0.17721 0.42286 0.90733 0.0
C317 C 0.16285 0.4044 0.87099 0.0
H318 H 0.184 0.45361 0.94449 0.0
H319 H 0.04581 0.27579 0.58351 0.0
H320 H 0.74007 0.84425 0.97753 0.0
H321 H 0.70496 0.82192 0.92606 0.0
H322 H 0.71492 0.76834 0.92811 0.0
H323 H 0.74996 0.79047 0.98067 0.0
H324 H 0.69815 0.77145 0.80213 0.0
H325 H 0.6831 0.77152 0.04992 0.0
H326 H 0.68426 0.78721 0.1673 0.0
H327 H 0.65393 0.81971 0.07995 0.0
H328 H 0.65284 0.80442 0.96176 0.0
H329 H 0.58994 0.69239 0.74041 0.0
H330 H 0.62579 0.71386 0.78842 0.0
H331 H 0.61753 0.7685 0.79517 0.0
H332 H 0.58162 0.74712 0.74824 0.0
H333 H 0.63353 0.76399 0.91773 0.0
H334 H 0.64879 0.76373 0.66895 0.0
H335 H 0.64717 0.74728 0.55266 0.0
H336 H 0.6768 0.71445 0.64281 0.0
H337 H 0.67833 0.73049 0.75995 0.0
C338 C 0.73476 0.82768 0.9679 0.0
C339 C 0.74792 0.81921 0.98361 0.0
C340 C 0.71468 0.81494 0.93819 0.0
C341 C 0.70725 0.79342 0.92376 0.0
C342 C 0.72036 0.78492 0.93865 0.0
C343 C 0.74045 0.79765 0.96853 0.0
C344 C 0.68582 0.77983 0.89294 0.0
C345 C 0.68397 0.76958 0.82783 0.0
C346 C 0.66739 0.7777 0.92588 0.0
C347 C 0.66809 0.787 -0.00318 0.0
C348 C 0.67685 0.78216 0.05559 0.0
C349 C 0.67746 0.79095 0.1223 0.0
C350 C 0.66923 0.8045 0.13103 0.0
C351 C 0.66033 0.80924 0.07308 0.0
C352 C 0.65969 0.8005 0.00623 0.0
C353 C 0.59582 0.70902 0.75155 0.0
C354 C 0.58291 0.71804 0.74047 0.0
C355 C 0.61634 0.72128 0.77881 0.0
C356 C 0.6244 0.74283 0.79498 0.0
C357 C 0.61163 0.75191 0.78316 0.0
C358 C 0.59113 0.73967 0.75605 0.0
C359 C 0.64585 0.75578 0.82649 0.0
C360 C 0.6477 0.76587 0.89192 0.0
C361 C 0.66425 0.7577 0.79388 0.0
C362 C 0.66348 0.74815 0.72338 0.0
C363 C 0.65481 0.75288 0.66411 0.0
C364 C 0.65393 0.74365 0.59802 0.0
C365 C 0.66182 0.72979 0.5904 0.0
C366 C 0.67067 0.72517 0.64882 0.0
C367 C 0.67156 0.73434 0.71506 0.0
H368 H 0.66112 0.72265 0.53919 0.0
H369 H 0.6697 0.81128 0.18274 0.0
H370 H 0.23301 0.96011 0.00154 0.0
H371 H 0.25644 0.94698 0.96139 0.0
H372 H 0.22848 0.93592 0.75187 0.0
H373 H 0.20445 0.9479 0.7934 0.0
H374 H 0.23112 0.90406 0.78358 0.0
H375 H 0.28048 0.97834 0.79463 0.0
H376 H 0.2992 0.01387 0.84982 0.0
H377 H 0.32507 0.991 0.00889 0.0
H378 H 0.30627 0.95525 0.95528 0.0
H379 H 0.33979 0.91315 0.67951 0.0
H380 H 0.3193 0.93015 0.71229 0.0
H381 H 0.27309 0.87253 0.81675 0.0
H382 H 0.29294 0.85522 0.78116 0.0
H383 H 0.30859 0.94055 0.82876 0.0
H384 H 0.22466 0.86554 0.80883 0.0
H385 H 0.20629 0.83234 0.73937 0.0
H386 H 0.2509 0.86156 0.56883 0.0
H387 H 0.26936 0.895 0.63684 0.0
C388 C 0.23206 0.95493 0.94697 0.0
C389 C 0.21689 0.95476 0.90068 0.0
C390 C 0.24549 0.94756 0.92381 0.0
C391 C 0.2444 0.94056 0.85325 0.0
C392 C 0.22956 0.94101 0.80664 0.0
C393 C 0.21584 0.94786 0.83029 0.0
C394 C 0.25791 0.93182 0.82851 0.0
C395 C 0.24807 0.91213 0.79338 0.0
C396 C 0.28014 0.94246 0.8397 0.0
C397 C 0.2918 0.96405 0.87128 0.0
C398 C 0.29007 0.98086 0.8416 0.0
C399 C 0.3007 1.00104 0.87259 0.0
C400 C 0.31325 0.00466 0.93297 0.0
C401 C 0.31531 0.98815 0.96219 0.0
C402 C 0.30469 0.96793 0.93148 0.0
C403 C 0.32518 0.90409 0.70909 0.0
C404 C 0.31781 0.88277 0.727 0.0
C405 C 0.31353 0.91386 0.72813 0.0
C406 C 0.29444 0.90257 0.76611 0.0
C407 C 0.28744 0.88145 0.78581 0.0
C408 C 0.29884 0.87156 0.76559 0.0
C409 C 0.2817 0.91273 0.7846 0.0
C410 C 0.29166 0.9326 0.81869 0.0
C411 C 0.25969 0.90268 0.76998 0.0
C412 C 0.2485 0.88271 0.72826 0.0
C413 C 0.23049 0.8649 0.75638 0.0
C414 C 0.22007 0.84604 0.71729 0.0
C415 C 0.22746 0.84483 0.64983 0.0
C416 C 0.24523 0.8625 0.62119 0.0
C417 C 0.25569 0.8814 0.66001 0.0
H418 H 0.21938 0.8302 0.61969 0.0
H419 H 0.32138 0.02025 0.95714 0.0
H420 H 0.408 0.17523 0.22938 0.0
H421 H 0.37493 0.15639 0.16206 0.0
H422 H 0.38287 0.10165 0.14663 0.0
H423 H 0.41622 0.12065 0.21289 0.0
H424 H 0.36748 0.1068 0.0251 0.0
H425 H 0.34962 0.10413 0.27096 0.0
H426 H 0.3502 0.11831 0.39063 0.0
H427 H 0.32427 0.15528 0.30641 0.0
H428 H 0.32381 0.14153 0.18599 0.0
H429 H 0.25651 0.03049 0.97301 0.0
H430 H 0.29391 0.05151 0.00634 0.0
H431 H 0.2889 0.10806 0.01138 0.0
H432 H 0.25151 0.08719 0.97896 0.0
H433 H 0.3032 0.10166 0.13528 0.0
H434 H 0.31911 0.101 0.88728 0.0
H435 H 0.31736 0.08424 0.77155 0.0
H436 H 0.3457 0.05049 0.86397 0.0
H437 H 0.34719 0.06667 0.98073 0.0
C438 C 0.40269 0.15919 0.21165 0.0
C439 C 0.4146 0.14936 0.22706 0.0
C440 C 0.38381 0.14843 0.17307 0.0
C441 C 0.37619 0.12744 0.15029 0.0
C442 C 0.3884 0.11782 0.16361 0.0
C443 C 0.40745 0.12868 0.20153 0.0
C444 C 0.35507 0.11529 0.11552 0.0
C445 C 0.35337 0.1055 0.04944 0.0
C446 C 0.33666 0.11369 0.14697 0.0
C447 C 0.33688 0.12197 0.21935 0.0
C448 C 0.34419 0.11541 0.27787 0.0
C449 C 0.34448 0.12335 0.34584 0.0
C450 C 0.33733 0.13774 0.35608 0.0
C451 C 0.32983 0.14417 0.29838 0.0
C452 C 0.32954 0.13629 0.23026 0.0
C453 C 0.26349 0.04749 0.97933 0.0
C454 C 0.25094 0.05712 0.97407 0.0
C455 C 0.28492 0.0595 -0.00167 0.0
C456 C 0.29418 0.08135 0.01176 0.0
C457 C 0.28204 0.0912 0.00167 0.0
C458 C 0.26067 0.07924 0.98285 0.0
C459 C 0.31561 0.09349 0.04418 0.0
C460 C 0.31732 0.10312 0.11044 0.0
C461 C 0.33385 0.09458 0.0133 0.0
C462 C 0.33308 0.08492 0.94299 0.0
C463 C 0.32479 0.08985 0.88314 0.0
C464 C 0.32385 0.08046 0.81733 0.0
C465 C 0.33134 0.06624 0.81049 0.0
C466 C 0.33986 0.06146 0.86941 0.0
C467 C 0.34075 0.07074 0.93543 0.0
H468 H 0.3306 0.05898 0.75951 0.0
H469 H 0.33756 0.14386 0.40876 0.0
H470 H 0.85373 0.24547 0.28821 0.0
H471 H 0.87584 0.23293 0.23385 0.0
H472 H 0.92969 0.29644 0.24062 0.0
H473 H 0.90769 0.30913 0.29567 0.0
H474 H 0.92724 0.27761 0.11391 0.0
H475 H 0.92556 0.25983 0.35964 0.0
H476 H 0.90915 0.24427 0.47525 0.0
H477 H 0.87617 0.18225 0.38061 0.0
H478 H 0.89218 0.19748 0.26415 0.0
H479 H 0.00494 0.24682 0.04919 0.0
H480 H 0.98385 0.26151 0.09762 0.0
H481 H 0.92835 0.19898 0.09809 0.0
H482 H 0.94935 0.18413 0.0508 0.0
H483 H 0.93273 0.21848 0.22248 0.0
H484 H 0.93474 0.23683 0.97558 0.0
H485 H 0.95205 0.25279 0.86139 0.0
H486 H 0.98536 0.31427 0.95974 0.0
H487 H 0.96846 0.29862 0.07481 0.0
C488 C 0.8703 0.25677 0.2789 0.0
C489 C 0.87891 0.27831 0.29681 0.0
C490 C 0.88293 0.24957 0.24756 0.0
C491 C 0.90449 0.2637 0.23385 0.0
C492 C 0.91309 0.28526 0.25064 0.0
C493 C 0.90046 0.29249 0.28199 0.0
C494 C 0.918 0.25589 0.20214 0.0
C495 C 0.92868 0.26487 0.13811 0.0
C496 C 0.91961 0.23905 0.23309 0.0
C497 C 0.90991 0.22983 0.30302 0.0
C498 C 0.91467 0.2429 0.36334 0.0
C499 C 0.90547 0.23413 0.42905 0.0
C500 C 0.89158 0.21229 0.43523 0.0
C501 C 0.88691 0.19916 0.37572 0.0
C502 C 0.89606 0.20785 0.30987 0.0
C503 C 0.9882 0.23622 0.05894 0.0
C504 C 0.97884 0.21429 0.04616 0.0
C505 C 0.97614 0.24466 0.08645 0.0
C506 C 0.95447 0.23136 0.10114 0.0
C507 C 0.94504 0.20954 0.08729 0.0
C508 C 0.95707 0.20108 0.05997 0.0
C509 C 0.94177 0.23999 0.13372 0.0
C510 C 0.93129 0.2312 0.19816 0.0
C511 C 0.94044 0.25706 0.10324 0.0
C512 C 0.95049 0.26651 0.03397 0.0
C513 C 0.94588 0.25373 0.97299 0.0
C514 C 0.95559 0.26272 0.90808 0.0
C515 C 0.96983 0.28452 0.90335 0.0
C516 C 0.97434 0.29738 0.9635 0.0
C517 C 0.96469 0.28846 0.02856 0.0
H518 H 0.97734 0.29146 0.85306 0.0
H519 H 0.88448 0.20554 0.48616 0.0
H520 H 0.78465 0.78096 0.10331 0.0
H521 H 0.76777 0.74474 0.1499 0.0
H522 H 0.82928 0.75284 0.19792 0.0
H523 H 0.8463 0.78901 0.15094 0.0
H524 H 0.77155 0.71184 0.10125 0.0
H525 H 0.82613 0.72554 0.34398 0.0
H526 H 0.84341 0.75083 0.44282 0.0
H527 H 0.79782 0.77148 0.42416 0.0
H528 H 0.7805 0.74656 0.3246 0.0
H529 H 0.77886 0.62427 0.30618 0.0
H530 H 0.79243 0.6618 0.2796 0.0
H531 H 0.72851 0.64904 0.24675 0.0
H532 H 0.71486 0.61142 0.2722 0.0
H533 H 0.78529 0.69242 0.34022 0.0
H534 H 0.72997 0.67985 0.1044 0.0
H535 H 0.70896 0.65262 0.01434 0.0
H536 H 0.75219 0.62885 0.02541 0.0
H537 H 0.77361 0.6561 0.11473 0.0
C538 C 0.7946 0.77506 0.12389 0.0
C539 C 0.81684 0.78784 0.12301 0.0
C540 C 0.78492 0.75437 0.15063 0.0
C541 C 0.79724 0.74615 0.17799 0.0
C542 C 0.81944 0.75894 0.17793 0.0
C543 C 0.82915 0.77955 0.15039 0.0
C544 C 0.78703 0.72376 0.20222 0.0
C545 C 0.77427 0.70762 0.15395 0.0
C546 C 0.79082 0.7182 0.27051 0.0
C547 C 0.80214 0.73431 0.32659 0.0
C548 C 0.81991 0.73559 0.3607 0.0
C549 C 0.82969 0.74984 0.41687 0.0
C550 C 0.82165 0.76267 0.44 0.0
C551 C 0.804 0.7615 0.4063 0.0
C552 C 0.79433 0.74748 0.34953 0.0
C553 C 0.7677 0.62947 0.29348 0.0
C554 C 0.74581 0.61485 0.29082 0.0
C555 C 0.77546 0.65093 0.27877 0.0
C556 C 0.7615 0.65815 0.26042 0.0
C557 C 0.73957 0.64375 0.2601 0.0
C558 C 0.73179 0.62228 0.27524 0.0
C559 C 0.77002 0.68059 0.23907 0.0
C560 C 0.78251 0.6967 0.28769 0.0
C561 C 0.76578 0.68612 0.17136 0.0
C562 C 0.75323 0.66986 0.11684 0.0
C563 C 0.73502 0.66885 0.08741 0.0
C564 C 0.72304 0.65341 0.03652 0.0
C565 C 0.72919 0.63896 0.01437 0.0
C566 C 0.74739 0.63999 0.04283 0.0
C567 C 0.75944 0.65541 0.09366 0.0
H568 H 0.71988 0.62701 0.97503 0.0
H569 H 0.82917 0.77361 0.4837 0.0
H570 H 0.07294 0.5059 0.62329 0.0
H571 H 0.03573 0.48189 0.59405 0.0
H572 H 0.04792 0.42988 0.57657 0.0
H573 H 0.08534 0.45398 0.60347 0.0
H574 H 0.02614 0.43096 0.4645 0.0
H575 H 0.01957 0.43311 0.71634 0.0
H576 H 0.02435 0.44948 0.83478 0.0
H577 H 0.9899 0.47996 0.7674 0.0
H578 H 0.98517 0.46403 0.64815 0.0
H579 H 0.9166 0.35316 0.42828 0.0
H580 H 0.95312 0.37371 0.47119 0.0
H581 H 0.9469 0.42945 0.48696 0.0
H582 H 0.91029 0.40899 0.44491 0.0
H583 H 0.96539 0.4243 0.60462 0.0
H584 H 0.97404 0.42363 0.35051 0.0
H585 H 0.96899 0.40678 0.23278 0.0
H586 H 0.99942 0.37286 0.30639 0.0
H587 H 0.00441 0.38931 0.42493 0.0
C588 C 0.06771 0.48935 0.61346 0.0
C589 C 0.08218 0.48192 0.61548 0.0
C590 C 0.04637 0.47558 0.5974 0.0
C591 C 0.03899 0.45403 0.58359 0.0
C592 C 0.05326 0.44644 0.5872 0.0
C593 C 0.07464 0.46022 0.60325 0.0
C594 C 0.01666 0.43979 0.56133 0.0
C595 C 0.01284 0.4292 0.49581 0.0
C596 C 0.99932 0.43784 0.60141 0.0
C597 C 1.00218 0.44752 0.67305 0.0
C598 C 0.01317 0.44345 0.72655 0.0
C599 C 0.01584 0.45263 0.79389 0.0
C600 C 0.00747 0.46579 0.80856 0.0
C601 C 0.99639 0.46978 0.75594 0.0
C602 C 0.99369 0.46066 0.68848 0.0
C603 C 0.92302 0.36982 0.44061 0.0
C604 C 0.91055 0.37946 0.433 0.0
C605 C 0.94391 0.38154 0.46499 0.0
C606 C 0.95277 0.40314 0.48182 0.0
C607 C 0.94036 0.41279 0.47435 0.0
C608 C 0.91947 0.40109 0.44997 0.0
C609 C 0.97495 0.41571 0.5076 0.0
C610 C 0.97872 0.42597 0.5737 0.0
C611 C 0.99224 0.41732 0.46818 0.0
C612 C 0.9894 0.40754 0.39679 0.0
C613 C 0.97951 0.41246 0.34175 0.0
C614 C 0.97668 0.403 0.27485 0.0
C615 C 0.98382 0.38871 0.26217 0.0
C616 C 0.99387 0.38391 0.31632 0.0
C617 C 0.99672 0.39331 0.38335 0.0
H618 H 0.98162 0.3814 0.21034 0.0
H619 H 0.00955 0.47287 0.86074 0.0
H620 H 0.57829 0.64566 0.57607 0.0
H621 H 0.59788 0.63179 0.51161 0.0
H622 H 0.54559 0.56804 0.53871 0.0
H623 H 0.52573 0.58169 0.60186 0.0
H624 H 0.58353 0.57122 0.57145 0.0
H625 H 0.554 0.59214 0.3805 0.0
H626 H 0.5469 0.61719 0.31461 0.0
H627 H 0.61371 0.65858 0.28246 0.0
H628 H 0.62124 0.63389 0.34911 0.0
H629 H 0.61131 0.5143 0.34222 0.0
H630 H 0.59167 0.53141 0.38219 0.0
H631 H 0.64796 0.59283 0.36074 0.0
H632 H 0.66784 0.57586 0.3204 0.0
H633 H 0.60957 0.59245 0.3242 0.0
H634 H 0.63917 0.57169 0.51456 0.0
H635 H 0.64643 0.54679 0.58035 0.0
H636 H 0.57973 0.50564 0.61561 0.0
H637 H 0.57202 0.53016 0.54879 0.0
C638 C 0.57081 0.62871 0.56774 0.0
C639 C 0.55035 0.61484 0.59444 0.0
C640 C 0.58209 0.62081 0.53095 0.0
C641 C 0.57314 0.59889 0.52 0.0
C642 C 0.55283 0.58501 0.54678 0.0
C643 C 0.54152 0.59288 0.58328 0.0
C644 C 0.58502 0.59028 0.48167 0.0
C645 C 0.58898 0.57568 0.51712 0.0
C646 C 0.59266 0.59655 0.41143 0.0
C647 C 0.58819 0.61127 0.3704 0.0
C648 C 0.56719 0.60665 0.35981 0.0
C649 C 0.56309 0.62077 0.32228 0.0
C650 C 0.57985 0.63948 0.29456 0.0
C651 C 0.60075 0.64408 0.30407 0.0
C652 C 0.60495 0.63002 0.34166 0.0
C653 C 0.61944 0.53148 0.34412 0.0
C654 C 0.64124 0.54369 0.32905 0.0
C655 C 0.60817 0.54123 0.36719 0.0
C656 C 0.61848 0.56335 0.37565 0.0
C657 C 0.63975 0.57573 0.35482 0.0
C658 C 0.65109 0.56598 0.33186 0.0
C659 C 0.60769 0.57315 0.41369 0.0
C660 C 0.60408 0.58802 0.37849 0.0
C661 C 0.60042 0.56722 0.4844 0.0
C662 C 0.605 0.55263 0.52585 0.0
C663 C 0.62603 0.55723 0.5357 0.0
C664 C 0.63022 0.54315 0.57305 0.0
C665 C 0.61353 0.52452 0.60154 0.0
C666 C 0.59262 0.52001 0.59312 0.0
C667 C 0.58833 0.534 0.55553 0.0
H668 H 0.61678 0.51368 0.63078 0.0
H669 H 0.57662 0.65036 0.26557 0.0
H670 H 0.50985 0.10966 0.31988 0.0
H671 H 0.49301 0.07208 0.3497 0.0
H672 H 0.43142 0.06678 0.33722 0.0
H673 H 0.44818 0.10452 0.30811 0.0
H674 H 0.4369 0.05286 0.46198 0.0
H675 H 0.44607 0.04088 0.21932 0.0
H676 H 0.4654 0.0468 0.10631 0.0
H677 H 0.5078 0.02974 0.20561 0.0
H678 H 0.48898 0.0241 0.31967 0.0
H679 H 0.38505 0.9445 0.55869 0.0
H680 H 0.3962 0.97654 0.48874 0.0
H681 H 0.46072 0.98927 0.49155 0.0
H682 H 0.44956 0.95672 0.55909 0.0
H683 H 0.45048 0.99771 0.36197 0.0
H684 H 0.44424 0.01442 0.6063 0.0
H685 H 0.4258 0.00959 0.72077 0.0
H686 H 0.37831 0.01847 0.6172 0.0
H687 H 0.39634 0.02309 0.5019 0.0
C688 C 0.49269 0.10041 0.3216 0.0
C689 C 0.48037 0.11015 0.31231 0.0
C690 C 0.48306 0.07886 0.33851 0.0
C691 C 0.46094 0.0666 0.34586 0.0
C692 C 0.44852 0.07597 0.33207 0.0
C693 C 0.45814 0.09753 0.31514 0.0
C694 C 0.45111 0.04482 0.37579 0.0
C695 C 0.43946 0.04064 0.4391 0.0
C696 C 0.45493 0.02907 0.34706 0.0
C697 C 0.46618 0.0322 0.27829 0.0
C698 C 0.45961 0.03854 0.21726 0.0
C699 C 0.47047 0.04183 0.15296 0.0
C700 C 0.48784 0.03867 0.1488 0.0
C701 C 0.49435 0.03218 0.20892 0.0
C702 C 0.48357 0.02891 0.27341 0.0
C703 C 0.40156 0.95388 0.54373 0.0
C704 C 0.41641 0.94798 0.56512 0.0
C705 C 0.40794 0.97233 0.50407 0.0
C706 C 0.42934 0.98545 0.48558 0.0
C707 C 0.44413 0.97941 0.50534 0.0
C708 C 0.43775 0.9609 0.54478 0.0
C709 C 0.43647 0.00591 0.44829 0.0
C710 C 0.44766 0.00986 0.38397 0.0
C711 C 0.43229 0.02153 0.47606 0.0
C712 C 0.4215 0.01886 0.54539 0.0
C713 C 0.42978 0.01518 0.60787 0.0
C714 C 0.41942 0.01251 0.6729 0.0
C715 C 0.40086 0.01366 0.67622 0.0
C716 C 0.39267 0.01755 0.61453 0.0
C717 C 0.40295 0.02021 0.54934 0.0
H718 H 0.39286 0.01158 0.72661 0.0
H719 H 0.49623 0.04123 0.09898 0.0
H720 H 0.12935 0.05973 0.01011 0.0
H721 H 0.10561 0.07409 -0.00354 0.0
H722 H 0.15927 0.13774 0.0047 0.0
H723 H 0.18309 0.12344 0.01887 0.0
H724 H 0.12716 0.13412 0.08534 0.0
H725 H 0.13435 0.11393 0.84496 0.0
H726 H 0.13258 0.08845 0.75477 0.0
H727 H 0.0663 0.04763 0.79855 0.0
H728 H 0.06773 0.07277 0.88956 0.0
H729 H 0.08033 0.19175 0.9597 0.0
H730 H 0.1025 0.17538 0.96476 0.0
H731 H 0.04658 0.11321 0.95996 0.0
H732 H 0.02424 0.12942 0.95438 0.0
H733 H 0.07838 0.11465 0.87896 0.0
H734 H 0.06943 0.13261 0.11475 0.0
H735 H 0.06932 0.15547 0.21145 0.0
H736 H 0.13627 0.19738 0.18429 0.0
H737 H 0.13673 0.1749 0.08674 0.0
C738 C 0.13612 0.07678 0.00835 0.0
C739 C 0.15815 0.09046 0.01505 0.0
C740 C 0.12252 0.08498 0.00064 0.0
C741 C 0.13068 0.10701 -0.00149 0.0
C742 C 0.15262 0.12069 0.00614 0.0
C743 C 0.16622 0.11251 0.01436 0.0
C744 C 0.11639 0.11586 0.98859 0.0
C745 C 0.11674 0.13012 0.03964 0.0
C746 C 0.10218 0.10999 0.93041 0.0
C747 C 0.10119 0.09516 0.87437 0.0
C748 C 0.11942 0.09949 0.83549 0.0
C749 C 0.11847 0.08511 0.78424 0.0
C750 C 0.09935 0.06641 0.77106 0.0
C751 C 0.0811 0.06211 0.80886 0.0
C752 C 0.08196 0.07644 0.86018 0.0
C753 C 0.07273 0.1746 0.9586 0.0
C754 C 0.05051 0.1619 0.95714 0.0
C755 C 0.08543 0.16526 0.96189 0.0
C756 C 0.07617 0.14308 0.9639 0.0
C757 C 0.05405 0.13035 0.95873 0.0
C758 C 0.04131 0.13967 0.95565 0.0
C759 C 0.08953 0.13326 0.97489 0.0
C760 C 0.0889 0.11874 0.92441 0.0
C761 C 0.10324 0.13859 0.03423 0.0
C762 C 0.10307 0.15218 0.09291 0.0
C763 C 0.0841 0.1468 0.12897 0.0
C764 C 0.08398 0.15966 0.18402 0.0
C765 C 0.10276 0.17789 0.20385 0.0
C766 C 0.12172 0.18326 0.16879 0.0
C767 C 0.12193 0.17045 0.11366 0.0
H768 H 0.10264 0.18783 0.24649 0.0
H769 H 0.09866 0.05528 0.73149 0.0
H770 H 0.8435 0.91049 0.98582 0.0
H771 H 0.86097 0.94848 0.96119 0.0
H772 H 0.92194 0.95216 0.9652 0.0
H773 H 0.9046 0.91424 -0.00862 0.0
H774 H 0.92316 0.98169 0.04561 0.0
H775 H 0.90167 0.96023 0.80697 0.0
H776 H 0.87791 0.9406 0.70712 0.0
H777 H 0.83776 0.96606 0.76034 0.0
H778 H 0.86137 0.98597 0.86036 0.0
H779 H 0.97645 0.09117 0.95804 0.0
H780 H 0.9624 0.05309 0.9407 0.0
H781 H 0.89883 0.04147 0.97235 0.0
H782 H 0.91276 0.07956 0.98887 0.0
H783 H 0.90187 0.01647 0.86262 0.0
H784 H 0.92397 0.03603 0.10836 0.0
H785 H 0.9499 0.05675 0.20202 0.0
H786 H 0.99106 0.03444 0.1283 0.0
H787 H 0.96548 0.0138 0.03354 0.0
C788 C 0.86061 0.91933 0.98075 0.0
C789 C 0.87266 0.90936 -0.00867 0.0
C790 C 0.87059 0.94105 0.96602 0.0
C791 C 0.89279 0.95321 0.96087 0.0
C792 C 0.90479 0.94313 0.96902 0.0
C793 C 0.89484 0.92143 0.98399 0.0
C794 C 0.90352 0.97668 0.95356 0.0
C795 C 0.9188 0.98926 0.00455 0.0
C796 C 0.89767 0.98665 0.90076 0.0
C797 C 0.88321 0.97447 0.84146 0.0
C798 C 0.88771 0.96155 0.79766 0.0
C799 C 0.87432 0.95045 0.74083 0.0
C800 C 0.85631 0.95205 0.7275 0.0
C801 C 0.85172 0.96484 0.77074 0.0
C802 C 0.86515 0.97611 0.82731 0.0
C803 C 0.95945 0.08057 0.95983 0.0
C804 C 0.9457 0.08834 0.97539 0.0
C805 C 0.95147 0.05881 0.95029 0.0
C806 C 0.9296 0.04447 0.95591 0.0
C807 C 0.91576 0.05228 0.96789 0.0
C808 C 0.92374 0.074 0.97793 0.0
C809 C 0.92124 0.02124 0.95491 0.0
C810 C 0.90638 0.00879 0.90278 0.0
C811 C 0.92767 0.01136 0.00603 0.0
C812 C 0.94293 0.02357 0.06344 0.0
C813 C 0.93862 0.03567 0.11182 0.0
C814 C 0.95324 0.04738 0.16514 0.0
C815 C 0.97214 0.04696 0.17098 0.0
C816 C 0.97643 0.03478 0.12364 0.0
C817 C 0.96187 0.02307 0.07015 0.0
H818 H 0.98345 0.05604 0.21228 0.0
H819 H 0.84591 0.94336 0.68367 0.0
H820 H 0.95248 0.85366 0.03999 0.0
H821 H 0.99076 0.87782 0.03108 0.0
H822 H 0.98096 0.93148 0.0442 0.0
H823 H 0.94257 0.90725 0.05089 0.0
H824 H 0.0114 0.94012 0.95377 0.0
H825 H 0.99666 0.91359 0.19093 0.0
H826 H 0.98178 0.88654 0.28552 0.0
H827 H 0.01958 0.86015 0.21302 0.0
H828 H 0.03447 0.88687 0.1173 0.0
H829 H 0.11991 0.01225 0.03961 0.0
H830 H 0.08128 0.99068 0.0487 0.0
H831 H 0.08489 0.93395 0.01524 0.0
H832 H 0.12349 0.95532 0.00715 0.0
H833 H 0.05753 0.92893 0.12115 0.0
H834 H 0.07129 0.95668 0.87978 0.0
H835 H 0.08672 0.98575 0.79201 0.0
H836 H 0.05109 0.01241 0.88234 0.0
H837 H 0.03562 0.9836 0.97116 0.0
C838 C 0.95853 0.87061 0.04055 0.0
C839 C 0.94461 0.87859 0.04666 0.0
C840 C 0.98039 0.88442 0.03573 0.0
C841 C 0.98881 0.9065 0.03872 0.0
C842 C 0.97486 0.91452 0.04209 0.0
C843 C 0.95294 0.90068 0.04578 0.0
C844 C 0.01217 0.92111 0.04032 0.0
C845 C 0.02144 0.93782 -0.00899 0.0
C846 C 0.02536 0.91816 0.08879 0.0
C847 C 0.01654 0.90212 0.14655 0.0
C848 C 1.00169 0.90193 0.19485 0.0
C849 C 0.99327 0.88667 0.24871 0.0
C850 C 0.9997 0.87161 0.25518 0.0
C851 C 0.0146 0.87181 0.2079 0.0
C852 C 0.02305 0.88703 0.15387 0.0
C853 C 0.11249 0.99517 0.03455 0.0
C854 C 0.12477 0.9855 0.02236 0.0
C855 C 0.09041 0.98288 0.03943 0.0
C856 C 0.0802 0.96074 0.03163 0.0
C857 C 0.09245 0.95102 0.0212 0.0
C858 C 0.11452 0.96327 0.0165 0.0
C859 C 0.05673 0.94757 0.03373 0.0
C860 C 0.04744 0.9312 0.08404 0.0
C861 C 0.04355 0.95108 0.98703 0.0
C862 C 0.05244 0.96808 0.93246 0.0
C863 C 0.06682 0.96879 0.88109 0.0
C864 C 0.07556 0.98521 0.83114 0.0
C865 C 0.06992 1.00095 0.83169 0.0
C866 C 0.05545 1.00022 0.88199 0.0
C867 C 0.04667 0.98383 0.93207 0.0
H868 H 0.07674 0.01367 0.79308 0.0
H869 H 0.99316 0.8598 0.29691 0.0
H870 H 0.68568 0.45597 0.35289 0.0
H871 H 0.70744 0.43914 0.35377 0.0
H872 H 0.76404 0.50071 0.36719 0.0
H873 H 0.74241 0.51769 0.36442 0.0
H874 H 0.76915 0.47715 0.27169 0.0
H875 H 0.74385 0.46684 0.51295 0.0
H876 H 0.71675 0.45517 0.60726 0.0
H877 H 0.68834 0.39091 0.53229 0.0
H878 H 0.71514 0.40224 0.43695 0.0
H879 H 0.84321 0.44741 0.38696 0.0
H880 H 0.81933 0.4617 0.37565 0.0
H881 H 0.76645 0.39838 0.34525 0.0
H882 H 0.79027 0.38395 0.35773 0.0
H883 H 0.75806 0.42099 0.4443 0.0
H884 H 0.78506 0.43147 0.20682 0.0
H885 H 0.81261 0.44353 0.11399 0.0
H886 H 0.83836 0.50802 0.18371 0.0
H887 H 0.81114 0.4963 0.27767 0.0
C888 C 0.70275 0.46594 0.35654 0.0
C889 C 0.71231 0.48818 0.35879 0.0
C890 C 0.71518 0.45628 0.35722 0.0
C891 C 0.73739 0.46864 0.36123 0.0
C892 C 0.74694 0.49084 0.36398 0.0
C893 C 0.73454 0.50052 0.36273 0.0
C894 C 0.75074 0.45852 0.36113 0.0
C895 C 0.76688 0.46505 0.31002 0.0
C896 C 0.74741 0.4423 0.4098 0.0
C897 C 0.73137 0.43543 0.4674 0.0
C898 C 0.73174 0.45024 0.51628 0.0
C899 C 0.71645 0.44368 0.56997 0.0
C900 C 0.7008 0.42232 0.57564 0.0
C901 C 0.70045 0.40745 0.52777 0.0
C902 C 0.7157 0.41393 0.47395 0.0
C903 C 0.82652 0.43655 0.37765 0.0
C904 C 0.81864 0.41456 0.37329 0.0
C905 C 0.81291 0.44473 0.3707 0.0
C906 C 0.79113 0.43111 0.3592 0.0
C907 C 0.78321 0.40917 0.35394 0.0
C908 C 0.79687 0.40097 0.36045 0.0
C909 C 0.7766 0.43982 0.35547 0.0
C910 C 0.76023 0.43301 0.40579 0.0
C911 C 0.77979 0.45586 0.30632 0.0
C912 C 0.79616 0.46297 0.24971 0.0
C913 C 0.7967 0.4482 0.20274 0.0
C914 C 0.81224 0.45498 0.14984 0.0
C915 C 0.82726 0.47652 0.14306 0.0
C916 C 0.82673 0.49133 0.18907 0.0
C917 C 0.81123 0.48463 0.24211 0.0
H918 H 0.83928 0.48174 0.10206 0.0
H919 H 0.68897 0.41727 0.61723 0.0
H920 H 0.5745 0.40783 0.36045 0.0
H921 H 0.56069 0.36959 0.36505 0.0
H922 H 0.62456 0.38053 0.37585 0.0
H923 H 0.63846 0.41886 0.3705 0.0
H924 H 0.60171 0.34857 0.28938 0.0
H925 H 0.59295 0.36681 0.52479 0.0
H926 H 0.58194 0.38286 0.61893 0.0
H927 H 0.51674 0.34329 0.55828 0.0
H928 H 0.52739 0.32721 0.46303 0.0
H929 H 0.56629 0.24116 0.38244 0.0
H930 H 0.58339 0.2798 0.39163 0.0
H931 H 0.52274 0.27587 0.36454 0.0
H932 H 0.50546 0.23723 0.35641 0.0
H933 H 0.54647 0.30454 0.46649 0.0
H934 H 0.55729 0.28803 0.2247 0.0
H935 H 0.56968 0.27161 0.13627 0.0
H936 H 0.63315 0.30799 0.2174 0.0
H937 H 0.62108 0.32444 0.30683 0.0
C938 C 0.5856 0.4021 0.36403 0.0
C939 C 0.60756 0.41639 0.36547 0.0
C940 C 0.57769 0.38023 0.36678 0.0
C941 C 0.59156 0.37216 0.37212 0.0
C942 C 0.61354 0.38637 0.3719 0.0
C943 C 0.62147 0.40828 0.36859 0.0
C944 C 0.58305 0.3489 0.37784 0.0
C945 C 0.58987 0.33901 0.32883 0.0
C946 C 0.5675 0.33633 0.42904 0.0
C947 C 0.561 0.34594 0.48632 0.0
C948 C 0.57628 0.36165 0.53114 0.0
C949 C 0.5701 0.37073 0.58477 0.0
C950 C 0.54866 0.36414 0.59447 0.0
C951 C 0.53335 0.3484 0.55065 0.0
C952 C 0.53945 0.33928 0.49687 0.0
C953 C 0.55655 0.24849 0.37898 0.0
C954 C 0.53452 0.23612 0.36804 0.0
C955 C 0.56637 0.27059 0.38399 0.0
C956 C 0.55438 0.28074 0.3776 0.0
C957 C 0.5323 0.26837 0.36933 0.0
C958 C 0.52246 0.24628 0.36448 0.0
C959 C 0.56482 0.30425 0.3772 0.0
C960 C 0.55839 0.31417 0.42734 0.0
C961 C 0.58092 0.31686 0.32769 0.0
C962 C 0.58824 0.30732 0.27282 0.0
C963 C 0.57387 0.29245 0.22385 0.0
C964 C 0.58084 0.28314 0.17354 0.0
C965 C 0.60219 0.28871 0.17131 0.0
C966 C 0.61662 0.30367 0.2192 0.0
C967 C 0.60973 0.31301 0.26965 0.0
H968 H 0.60755 0.28146 0.13242 0.0
H969 H 0.5439 0.37119 0.63604 0.0
H970 H 0.60546 0.23192 0.34905 0.0
H971 H 0.64383 0.25557 0.33996 0.0
H972 H 0.65253 0.20127 0.32542 0.0
H973 H 0.61422 0.1776 0.33511 0.0
H974 H 0.67951 0.22932 0.41808 0.0
H975 H 0.65702 0.23243 0.1788 0.0
H976 H 0.63585 0.23841 0.0892 0.0
H977 H 0.66266 0.30304 0.1586 0.0
H978 H 0.68372 0.29735 0.2495 0.0
H979 H 0.78684 0.28047 0.32067 0.0
H980 H 0.74828 0.25843 0.31289 0.0
H981 H 0.74225 0.31418 0.3332 0.0
H982 H 0.78084 0.33642 0.33995 0.0
H983 H 0.71396 0.2864 0.23771 0.0
H984 H 0.73552 0.28423 0.47615 0.0
H985 H 0.75627 0.27935 0.57021 0.0
H986 H 0.73077 0.21431 0.50743 0.0
H987 H 0.7101 0.21889 0.41223 0.0
C988 C 0.61553 0.22503 0.34298 0.0
C989 C 0.60681 0.20287 0.34278 0.0
C990 C 0.63746 0.23857 0.33783 0.0
C991 C 0.65106 0.2302 0.33133 0.0
C992 C 0.64236 0.20809 0.33056 0.0
C993 C 0.62047 0.19457 0.33625 0.0
C994 C 0.67442 0.24439 0.32765 0.0
C995 C 0.68704 0.24157 0.3779 0.0
C996 C 0.68421 0.26088 0.27681 0.0
C997 C 0.6718 0.2644 0.22139 0.0
C998 C 0.65829 0.24788 0.17528 0.0
C999 C 0.64631 0.25122 0.12426 0.0
C1000 C 0.64784 0.27107 0.11841 0.0
C1001 C 0.66143 0.28765 0.16336 0.0
C1002 C 0.67341 0.28439 0.2146 0.0
C1003 C 0.77735 0.28809 0.3226 0.0
C1004 C 0.78691 0.31018 0.33161 0.0
C1005 C 0.7553 0.27546 0.31838 0.0
C1006 C 0.74239 0.28463 0.32367 0.0
C1007 C 0.75191 0.30677 0.32924 0.0
C1008 C 0.77398 0.31944 0.33331 0.0
C1009 C 0.71898 0.27102 0.3273 0.0
C1010 C 0.70638 0.27404 0.27752 0.0
C1011 C 0.70913 0.25484 0.37904 0.0
C1012 C 0.72142 0.25197 0.43659 0.0
C1013 C 0.73446 0.26893 0.48205 0.0
C1014 C 0.74619 0.26621 0.53562 0.0
C1015 C 0.74488 0.24655 0.54468 0.0
C1016 C 0.73179 0.22954 0.50029 0.0
C1017 C 0.72005 0.23218 0.44654 0.0
H1018 H 0.75397 0.24448 0.5862 0.0
H1019 H 0.63855 0.27362 0.07891 0.0
H1020 H 0.48113 0.73791 0.5733 0.0
H1021 H 0.45852 0.7533 0.54945 0.0
H1022 H 0.47064 0.77966 0.76122 0.0
H1023 H 0.49297 0.76437 0.7854 0.0
H1024 H 0.42248 0.74868 0.61174 0.0
H1025 H 0.47666 0.82823 0.75806 0.0
H1026 H 0.51472 0.85192 0.78282 0.0
H1027 H 0.53087 0.82867 0.59701 0.0
H1028 H 0.49292 0.80506 0.57056 0.0
H1029 H 0.36498 0.79893 0.70738 0.0
H1030 H 0.38671 0.78226 0.69956 0.0
H1031 H 0.43117 0.83327 0.56472 0.0
H1032 H 0.41007 0.85079 0.5768 0.0
H1033 H 0.45226 0.82585 0.65229 0.0
H1034 H 0.39397 0.77931 0.50375 0.0
H1035 H 0.35619 0.75631 0.47342 0.0
H1036 H 0.34897 0.71442 0.64532 0.0
H1037 H 0.38663 0.73733 0.6774 0.0
C1038 C 0.47885 0.74687 0.61485 0.0
C1039 C 0.48915 0.75017 0.68089 0.0
C1040 C 0.46595 0.75567 0.60114 0.0
C1041 C 0.46319 0.76793 0.65314 0.0
C1042 C 0.47292 0.77066 0.71971 0.0
C1043 C 0.48579 0.76196 0.73335 0.0
C1044 C 0.45043 0.77824 0.63845 0.0
C1045 C 0.42897 0.76557 0.61998 0.0
C1046 C 0.45904 0.80035 0.64776 0.0
C1047 C 0.48192 0.81476 0.66265 0.0
C1048 C 0.48832 0.82826 0.72227 0.0
C1049 C 0.50988 0.84165 0.73665 0.0
C1050 C 0.5252 0.84176 0.69162 0.0
C1051 C 0.51899 0.82852 0.63198 0.0
C1052 C 0.49746 0.81511 0.61731 0.0
C1053 C 0.37931 0.8065 0.67556 0.0
C1054 C 0.38584 0.82612 0.64249 0.0
C1055 C 0.39166 0.79684 0.67057 0.0
C1056 C 0.41041 0.80617 0.63012 0.0
C1057 C 0.41676 0.82567 0.5961 0.0
C1058 C 0.4047 0.83566 0.60282 0.0
C1059 C 0.42401 0.79627 0.62719 0.0
C1060 C 0.4457 0.80901 0.64269 0.0
C1061 C 0.41565 0.7743 0.61368 0.0
C1062 C 0.39313 0.76012 0.59316 0.0
C1063 C 0.38432 0.76523 0.53521 0.0
C1064 C 0.36291 0.75221 0.51776 0.0
C1065 C 0.35017 0.73395 0.55756 0.0
C1066 C 0.35885 0.72859 0.61463 0.0
C1067 C 0.38024 0.74156 0.63236 0.0
H1068 H 0.33359 0.72394 0.54413 0.0
H1069 H 0.54188 0.85213 0.70289 0.0
H1070 H 0.18088 0.57557 0.70025 0.0
H1071 H 0.19822 0.61426 0.69893 0.0
H1072 H 0.25824 0.61839 0.65356 0.0
H1073 H 0.24112 0.57968 0.65747 0.0
H1074 H 0.26455 0.64797 0.74307 0.0
H1075 H 0.22868 0.62551 0.52155 0.0
H1076 H 0.19876 0.60484 0.43992 0.0
H1077 H 0.16402 0.63176 0.53546 0.0
H1078 H 0.19366 0.65241 0.61827 0.0
H1079 H 0.31237 0.75755 0.65339 0.0
H1080 H 0.29803 0.71939 0.63906 0.0
H1081 H 0.23674 0.70764 0.70961 0.0
H1082 H 0.25077 0.74579 0.7219 0.0
H1083 H 0.23352 0.68237 0.59706 0.0
H1084 H 0.27085 0.70312 0.82455 0.0
H1085 H 0.30257 0.7244 0.89864 0.0
H1086 H 0.33694 0.70113 0.77908 0.0
H1087 H 0.30548 0.67991 0.70369 0.0
C1088 C 0.1978 0.58472 0.69048 0.0
C1089 C 0.20961 0.57456 0.67869 0.0
C1090 C 0.20768 0.60685 0.68919 0.0
C1091 C 0.22948 0.61927 0.67452 0.0
C1092 C 0.2414 0.60917 0.66466 0.0
C1093 C 0.23158 0.58703 0.6669 0.0
C1094 C 0.23974 0.64277 0.6693 0.0
C1095 C 0.25792 0.65546 0.71023 0.0
C1096 C 0.23117 0.65266 0.62651 0.0
C1097 C 0.21333 0.64038 0.57652 0.0
C1098 C 0.21461 0.62692 0.52547 0.0
C1099 C 0.19771 0.61522 0.47893 0.0
C1100 C 0.17948 0.61695 0.48262 0.0
C1101 C 0.17815 0.63043 0.53271 0.0
C1102 C 0.19501 0.64216 0.57939 0.0
C1103 C 0.29575 0.74691 0.66467 0.0
C1104 C 0.28274 0.75476 0.6893 0.0
C1105 C 0.28763 0.72506 0.65706 0.0
C1106 C 0.26639 0.71066 0.67426 0.0
C1107 C 0.2532 0.71847 0.69635 0.0
C1108 C 0.26129 0.74028 0.70395 0.0
C1109 C 0.25795 0.6874 0.67193 0.0
C1110 C 0.24016 0.6748 0.62941 0.0
C1111 C 0.26713 0.67763 0.71208 0.0
C1112 C 0.28588 0.69006 0.75824 0.0
C1113 C 0.28521 0.70262 0.8139 0.0
C1114 C 0.30313 0.71466 0.8561 0.0
C1115 C 0.32177 0.71415 0.84346 0.0
C1116 C 0.3225 0.70153 0.78875 0.0
C1117 C 0.30462 0.68947 0.74634 0.0
H1118 H 0.33564 0.72351 0.87613 0.0
H1119 H 0.1664 0.60787 0.44658 0.0
H1120 H 0.45421 0.67182 0.61444 0.0
H1121 H 0.41572 0.64947 0.60376 0.0
H1122 H 0.42054 0.59406 0.65113 0.0
H1123 H 0.45908 0.61622 0.65934 0.0
H1124 H 0.39149 0.58474 0.55274 0.0
H1125 H 0.40749 0.62036 0.78056 0.0
H1126 H 0.42345 0.65162 0.85972 0.0
H1127 H 0.38735 0.67585 0.75685 0.0
H1128 H 0.37135 0.64484 0.67653 0.0
H1129 H 0.2879 0.51463 0.67984 0.0
H1130 H 0.32598 0.53801 0.66503 0.0
H1131 H 0.31592 0.59016 0.61606 0.0
H1132 H 0.27789 0.56715 0.63408 0.0
H1133 H 0.34728 0.60233 0.70761 0.0
H1134 H 0.32912 0.56491 0.48559 0.0
H1135 H 0.31316 0.53341 0.40765 0.0
H1136 H 0.35313 0.51218 0.50037 0.0
H1137 H 0.36914 0.54342 0.57957 0.0
C1138 C 0.44708 0.65485 0.62184 0.0
C1139 C 0.45965 0.6458 0.63831 0.0
C1140 C 0.42507 0.6421 0.61605 0.0
C1141 C 0.41517 0.62013 0.62817 0.0
C1142 C 0.42779 0.61097 0.64179 0.0
C1143 C 0.44983 0.62367 0.6466 0.0
C1144 C 0.39168 0.60678 0.62965 0.0
C1145 C 0.38183 0.58848 0.58706 0.0
C1146 C 0.379 0.6119 0.67321 0.0
C1147 C 0.38839 0.63039 0.72214 0.0
C1148 C 0.40305 0.63242 0.77461 0.0
C1149 C 0.41209 0.65008 0.81969 0.0
C1150 C 0.40646 0.66574 0.81319 0.0
C1151 C 0.39171 0.66372 0.76176 0.0
C1152 C 0.38264 0.6461 0.7165 0.0
C1153 C 0.29372 0.53107 0.66625 0.0
C1154 C 0.27969 0.53892 0.65828 0.0
C1155 C 0.31554 0.54439 0.65692 0.0
C1156 C 0.32381 0.5658 0.63847 0.0
C1157 C 0.30989 0.57367 0.62994 0.0
C1158 C 0.28807 0.5604 0.63967 0.0
C1159 C 0.34707 0.58016 0.63112 0.0
C1160 C 0.35689 0.59866 0.67277 0.0
C1161 C 0.3597 0.57517 0.58686 0.0
C1162 C 0.35021 0.55644 0.5389 0.0
C1163 C 0.33441 0.55346 0.48969 0.0
C1164 C 0.32537 0.53565 0.44523 0.0
C1165 C 0.3321 0.52078 0.44916 0.0
C1166 C 0.34793 0.52371 0.49742 0.0
C1167 C 0.35701 0.54148 0.54204 0.0
H1168 H 0.32508 0.507 0.41472 0.0
H1169 H 0.41349 0.67941 0.84809 0.0
H1170 H 0.02647 0.22363 0.77599 0.0
H1171 H 0.0281 0.22327 0.64677 0.0
H1172 H 0.98294 0.15602 0.64554 0.0
H1173 H 0.98138 0.15614 0.77543 0.0
H1174 H 0.02055 0.16641 0.58019 0.0
H1175 H 0.96946 0.18938 0.576 0.0
H1176 H 0.95406 0.21167 0.60781 0.0
H1177 H 0.00841 0.26637 0.5204 0.0
H1178 H 0.0243 0.24447 0.48897 0.0
H1179 H 1.00195 0.1535 0.20917 0.0
H1180 H 1.0022 0.15454 0.33868 0.0
H1181 H 0.04943 0.22116 0.33415 0.0
H1182 H 0.04928 0.22033 0.20425 0.0
H1183 H 0.01194 0.21184 0.40251 0.0
H1184 H 0.06258 0.18873 0.4034 0.0
H1185 H 0.07744 0.16625 0.36797 0.0
H1186 H 0.02382 0.11179 0.45978 0.0
H1187 H 0.00839 0.13386 0.49455 0.0
C1188 C 0.01652 0.20885 0.74816 0.0
C1189 C 1.00409 0.18983 0.78537 0.0
C1190 C 0.01739 0.20871 0.67446 0.0
C1191 C 0.00572 0.18959 0.63736 0.0
C1192 C 0.99208 0.17086 0.67395 0.0
C1193 C 0.99116 0.17099 0.74782 0.0
C1194 C 0.00986 0.18879 0.56164 0.0
C1195 C 0.01834 0.17604 0.5409 0.0
C1196 C 0.0077 0.20206 0.51182 0.0
C1197 C 0.99818 0.2153 0.53079 0.0
C1198 C 0.97823 0.2062 0.56417 0.0
C1199 C 0.96939 0.21876 0.582 0.0
C1200 C 0.98028 0.24043 0.56633 0.0
C1201 C 1.0 0.24958 0.53259 0.0
C1202 C 0.00893 0.23709 0.51469 0.0
C1203 C 0.01273 0.16825 0.23576 0.0
C1204 C 0.02527 0.18694 0.19711 0.0
C1205 C 0.01296 0.16877 0.30953 0.0
C1206 C 0.02576 0.18795 0.34511 0.0
C1207 C 0.03946 0.20627 0.30687 0.0
C1208 C 0.03933 0.20575 0.233 0.0
C1209 C 0.02249 0.18938 0.42109 0.0
C1210 C 0.01421 0.20227 0.44189 0.0
C1211 C 0.02483 0.17625 0.47089 0.0
C1212 C 0.03423 0.16295 0.45114 0.0
C1213 C 0.05386 0.17193 0.41559 0.0
C1214 C 0.0624 0.15926 0.39565 0.0
C1215 C 0.05156 0.1376 0.4115 0.0
C1216 C 0.03219 0.12858 0.4475 0.0
C1217 C 0.02354 0.14117 0.4674 0.0
H1218 H 0.0582 0.12781 0.39599 0.0
H1219 H 0.9734 0.25013 0.58017 0.0
H1220 H 0.87316 0.83922 0.83781 0.0
H1221 H 0.87419 0.8422 0.70804 0.0
H1222 H 0.80982 0.82991 0.70765 0.0
H1223 H 0.80857 0.82689 0.83693 0.0
H1224 H 0.84847 0.81818 0.58554 0.0
H1225 H 0.8123 0.87219 0.61892 0.0
H1226 H 0.80781 0.89285 0.71468 0.0
H1227 H 0.865 0.90262 0.81462 0.0
H1228 H 0.87012 0.88252 0.71858 0.0
H1229 H 0.81738 0.85823 0.26983 0.0
H1230 H 0.81751 0.857 0.39991 0.0
H1231 H 0.88232 0.87059 0.39673 0.0
H1232 H 0.88238 0.87181 0.26717 0.0
H1233 H 0.84406 0.88207 0.52086 0.0
H1234 H 0.88044 0.82814 0.49018 0.0
H1235 H 0.88592 0.80825 0.39411 0.0
H1236 H 0.82979 0.7993 0.28843 0.0
H1237 H 0.82345 0.81822 0.38521 0.0
C1238 C 0.85901 0.8365 0.80994 0.0
C1239 C 0.84095 0.8333 0.84755 0.0
C1240 C 0.85961 0.83813 0.73586 0.0
C1241 C 0.84222 0.83666 0.69895 0.0
C1242 C 0.82346 0.83132 0.73569 0.0
C1243 C 0.82282 0.82966 0.80952 0.0
C1244 C 0.84466 0.84389 0.6246 0.0
C1245 C 0.84772 0.83222 0.57134 0.0
C1246 C 0.84355 0.8622 0.60663 0.0
C1247 C 0.84141 0.87558 0.662 0.0
C1248 C 0.824 0.87891 0.66098 0.0
C1249 C 0.82134 0.89048 0.7154 0.0
C1250 C 0.83599 0.89884 0.77107 0.0
C1251 C 0.85355 0.89596 0.77184 0.0
C1252 C 0.85637 0.88453 0.71732 0.0
C1253 C 0.83186 0.86162 0.29691 0.0
C1254 C 0.84968 0.86454 0.25844 0.0
C1255 C 0.83194 0.86104 0.37115 0.0
C1256 C 0.84979 0.86331 0.40728 0.0
C1257 C 0.86835 0.8686 0.36935 0.0
C1258 C 0.86829 0.86916 0.29535 0.0
C1259 C 0.84783 0.85635 0.48179 0.0
C1260 C 0.84484 0.86804 0.53507 0.0
C1261 C 0.84911 0.83812 0.49978 0.0
C1262 C 0.8517 0.82497 0.44446 0.0
C1263 C 0.86914 0.82171 0.44686 0.0
C1264 C 0.87239 0.81059 0.39221 0.0
C1265 C 0.85834 0.80269 0.33478 0.0
C1266 C 0.84081 0.80561 0.33243 0.0
C1267 C 0.83731 0.81641 0.38745 0.0
H1268 H 0.86093 0.79416 0.29242 0.0
H1269 H 0.83385 0.90771 0.81331 0.0
H1270 H 0.16205 0.98825 0.77631 0.0
H1271 H 0.16402 0.98811 0.64689 0.0
H1272 H 0.1931 0.05637 0.64451 0.0
H1273 H 0.19082 0.0566 0.7747 0.0
H1274 H 0.16595 0.03559 0.52732 0.0
H1275 H 0.22464 0.03751 0.65215 0.0
H1276 H 0.24035 0.02508 0.7429 0.0
H1277 H 0.21194 0.96392 0.6423 0.0
H1278 H 0.19576 0.97589 0.55148 0.0
H1279 H 0.21513 0.05435 0.20268 0.0
H1280 H 0.21511 0.05512 0.33236 0.0
H1281 H 0.18481 0.98678 0.33741 0.0
H1282 H 0.18521 0.98592 0.20696 0.0
H1283 H 0.21324 0.00805 0.45367 0.0
H1284 H 0.15392 0.00601 0.33059 0.0
H1285 H 0.13847 0.01861 0.23949 0.0
H1286 H 0.16823 0.08018 0.33765 0.0
H1287 H 0.18419 0.06804 0.42861 0.0
C1288 C 0.16835 1.00317 0.74801 0.0
C1289 C 0.17672 0.02249 0.78484 0.0
C1290 C 0.16944 1.00305 0.67438 0.0
C1291 C 0.17921 0.02227 0.63711 0.0
C1292 C 0.18566 0.04143 0.67307 0.0
C1293 C 0.18436 0.04155 0.74705 0.0
C1294 C 0.18506 0.02243 0.56246 0.0
C1295 C 0.17647 0.02982 0.51115 0.0
C1296 C 0.1986 0.0146 0.54211 0.0
C1297 C 0.20886 0.00755 0.59531 0.0
C1298 C 0.22166 0.02138 0.64955 0.0
C1299 C 0.23064 0.01442 0.701 0.0
C1300 C 0.22711 0.99372 0.69842 0.0
C1301 C 0.21465 0.97995 0.64421 0.0
C1302 C 0.20559 0.98682 0.59268 0.0
C1303 C 0.20898 0.03954 0.23155 0.0
C1304 C 0.19968 0.02003 0.19558 0.0
C1305 C 0.20908 0.04002 0.30532 0.0
C1306 C 0.1995 0.02098 0.34362 0.0
C1307 C 0.19216 1.00159 0.30814 0.0
C1308 C 0.19232 1.00111 0.23398 0.0
C1309 C 0.19411 0.0212 0.4186 0.0
C1310 C 0.20277 0.01386 0.46993 0.0
C1311 C 0.18064 0.02908 0.43905 0.0
C1312 C 0.17039 0.03617 0.38603 0.0
C1313 C 0.15725 0.02226 0.33256 0.0
C1314 C 0.14841 0.02932 0.28093 0.0
C1315 C 0.15241 0.0502 0.28269 0.0
C1316 C 0.16517 0.06402 0.33631 0.0
C1317 C 0.17411 0.05706 0.38794 0.0
H1318 H 0.14559 0.05566 0.24257 0.0
H1319 H 0.23408 0.98836 0.73831 0.0
H1320 H 0.64375 0.50199 0.55232 0.0
H1321 H 0.64359 0.50294 0.68159 0.0
H1322 H 0.70946 0.55217 0.68166 0.0
H1323 H 0.70982 0.55139 0.55134 0.0
H1324 H 0.69963 0.51356 0.75013 0.0
H1325 H 0.67692 0.56466 0.74912 0.0
H1326 H 0.65513 0.5803 0.71389 0.0
H1327 H 0.5995 0.52598 0.79677 0.0
H1328 H 0.6209 0.50985 0.83178 0.0
H1329 H 0.70952 0.52882 0.11996 0.0
H1330 H 0.70905 0.52985 -0.0092 0.0
H1331 H 0.642 0.48403 -0.00927 0.0
H1332 H 0.64229 0.48302 0.12105 0.0
H1333 H 0.65246 0.52157 0.92213 0.0
H1334 H 0.67447 0.47004 0.92101 0.0
H1335 H 0.69578 0.4538 0.95565 0.0
H1336 H 0.75194 0.50787 0.87427 0.0
H1337 H 0.73103 0.5246 0.84006 0.0
C1338 C 0.65811 0.51329 0.57979 0.0
C1339 C 0.67695 0.52631 0.54256 0.0
C1340 C 0.65789 0.514 0.65334 0.0
C1341 C 0.67649 0.52766 0.69017 0.0
C1342 C 0.69498 0.54167 0.65322 0.0
C1343 C 0.69517 0.54114 0.57929 0.0
C1344 C 0.67731 0.52441 0.76624 0.0
C1345 C 0.68972 0.51575 0.78837 0.0
C1346 C 0.66352 0.5264 0.81413 0.0
C1347 C 0.65053 0.53598 0.79278 0.0
C1348 C 0.66002 0.55596 0.75942 0.0
C1349 C 0.64775 0.56497 0.73976 0.0
C1350 C 0.62596 0.55418 0.75332 0.0
C1351 C 0.6164 0.53436 0.78659 0.0
C1352 C 0.6286 0.52529 0.80643 0.0
C1353 C 0.69476 0.51865 0.09238 0.0
C1354 C 0.67585 0.5061 0.12983 0.0
C1355 C 0.69456 0.51914 0.01881 0.0
C1356 C 0.67549 0.50703 0.98205 0.0
C1357 C 0.65682 0.49344 0.01897 0.0
C1358 C 0.65702 0.49284 0.09292 0.0
C1359 C 0.67484 0.51076 0.90612 0.0
C1360 C 0.66242 0.51945 0.88397 0.0
C1361 C 0.68852 0.50867 0.85796 0.0
C1362 C 0.70119 0.49866 0.87849 0.0
C1363 C 0.6914 0.47856 0.91106 0.0
C1364 C 0.7034 0.46925 0.9305 0.0
C1365 C 0.7252 0.47982 0.91731 0.0
C1366 C 0.73505 0.49971 0.8845 0.0
C1367 C 0.72312 0.50911 0.86499 0.0
H1368 H 0.73447 0.47258 0.93239 0.0
H1369 H 0.61647 0.56113 0.73768 0.0
H1370 H 0.47348 0.17111 0.54838 0.0
H1371 H 0.47436 0.17193 0.67849 0.0
H1372 H 0.52043 0.15123 0.67735 0.0
H1373 H 0.51971 0.15039 0.54762 0.0
H1374 H 0.49089 0.1355 0.79376 0.0
H1375 H 0.53955 0.20047 0.67035 0.0
H1376 H 0.54796 0.22863 0.58204 0.0
H1377 H 0.50713 0.24606 0.69105 0.0
H1378 H 0.49813 0.21767 0.77922 0.0
H1379 H 0.54166 0.17563 0.11733 0.0
H1380 H 0.54066 0.17457 0.98719 0.0
H1381 H 0.4942 0.19478 0.98795 0.0
H1382 H 0.49498 0.19578 0.11766 0.0
H1383 H 0.52402 0.21076 0.87174 0.0
H1384 H 0.47529 0.14575 -0.0051 0.0
H1385 H 0.46661 0.1174 0.08266 0.0
H1386 H 0.5075 0.09998 0.97399 0.0
H1387 H 0.51676 0.12856 0.88634 0.0
C1388 C 0.4833 0.16614 0.57602 0.0
C1389 C 0.49694 0.16122 0.53862 0.0
C1390 C 0.48375 0.16658 0.64997 0.0
C1391 C 0.49772 0.16198 0.68646 0.0
C1392 C 0.50965 0.15488 0.64945 0.0
C1393 C 0.50936 0.15462 0.57564 0.0
C1394 C 0.50258 0.16785 0.76123 0.0
C1395 C 0.49824 0.15192 0.81096 0.0
C1396 C 0.51214 0.18933 0.78267 0.0
C1397 C 0.51799 0.2068 0.73091 0.0
C1398 C 0.53225 0.21021 0.67519 0.0
C1399 C 0.53713 0.22621 0.62518 0.0
C1400 C 0.52804 0.23909 0.63082 0.0
C1401 C 0.51412 0.23604 0.68667 0.0
C1402 C 0.50912 0.21999 0.73668 0.0
C1403 C 0.53172 0.18044 0.08957 0.0
C1404 C 0.518 0.18527 0.12686 0.0
C1405 C 0.5312 0.17986 0.01562 0.0
C1406 C 0.51711 0.18428 0.97905 0.0
C1407 C 0.50509 0.19127 0.01593 0.0
C1408 C 0.50542 0.19164 0.08972 0.0
C1409 C 0.51232 0.1784 0.90427 0.0
C1410 C 0.51668 0.19434 0.85453 0.0
C1411 C 0.50279 0.15692 0.88282 0.0
C1412 C 0.4969 0.13945 0.93457 0.0
C1413 C 0.48256 0.13599 -0.00994 0.0
C1414 C 0.47753 0.11987 0.03975 0.0
C1415 C 0.48655 0.10693 0.03402 0.0
C1416 C 0.50056 0.11005 0.97843 0.0
C1417 C 0.50571 0.12621 0.92874 0.0
H1418 H 0.48263 0.09445 0.07254 0.0
H1419 H 0.53182 0.25146 0.592 0.0
H1420 H 0.84713 0.31186 0.59251 0.0
H1421 H 0.8482 0.31349 0.72224 0.0
H1422 H 0.82418 0.35695 0.71833 0.0
H1423 H 0.82337 0.35569 0.5887 0.0
H1424 H 0.86195 0.37325 0.785 0.0
H1425 H 0.79508 0.30865 0.7893 0.0
H1426 H 0.76942 0.27159 0.75727 0.0
H1427 H 0.80975 0.25102 0.85138 0.0
H1428 H 0.83586 0.28802 0.88289 0.0
H1429 H 0.85039 0.3783 0.15978 0.0
H1430 H 0.84822 0.37614 0.03023 0.0
H1431 H 0.87201 0.33248 0.03181 0.0
H1432 H 0.87396 0.33431 0.16133 0.0
H1433 H 0.83393 0.3162 0.96653 0.0
H1434 H 0.90111 0.38076 0.95956 0.0
H1435 H 0.92716 0.41789 -0.01044 0.0
H1436 H 0.88631 0.43846 0.89973 0.0
H1437 H 0.85987 0.40141 0.87002 0.0
C1438 C 0.84152 0.32129 0.61942 0.0
C1439 C 0.83557 0.33398 0.581 0.0
C1440 C 0.84209 0.32215 0.69337 0.0
C1441 C 0.83642 0.33547 0.72922 0.0
C1442 C 0.82876 0.34673 0.69109 0.0
C1443 C 0.82832 0.34599 0.61729 0.0
C1444 C 0.84118 0.33986 0.80512 0.0
C1445 C 0.85554 0.36086 0.82508 0.0
C1446 C 0.83331 0.32349 0.85621 0.0
C1447 C 0.81752 0.30116 0.83794 0.0
C1448 C 0.79857 0.29625 0.80268 0.0
C1449 C 0.78392 0.27525 0.78469 0.0
C1450 C 0.78797 0.25897 0.80216 0.0
C1451 C 0.80665 0.26366 0.83783 0.0
C1452 C 0.82137 0.28464 0.85582 0.0
C1453 C 0.85572 0.36872 0.13237 0.0
C1454 C 0.86199 0.35618 0.17026 0.0
C1455 C 0.8545 0.36752 0.05851 0.0
C1456 C 0.85981 0.35402 0.0221 0.0
C1457 C 0.8677 0.34283 0.0595 0.0
C1458 C 0.86881 0.34392 0.13324 0.0
C1459 C 0.85472 0.3496 0.94637 0.0
C1460 C 0.8403 0.32859 0.92646 0.0
C1461 C 0.86254 0.36596 0.89526 0.0
C1462 C 0.87841 0.38827 0.91317 0.0
C1463 C 0.89759 0.39318 0.94676 0.0
C1464 C 0.91245 0.41421 0.96359 0.0
C1465 C 0.90837 0.43051 0.94672 0.0
C1466 C 0.88944 0.42581 0.91283 0.0
C1467 C 0.87453 0.4048 0.89591 0.0
H1468 H 0.9199 0.44679 0.95978 0.0
H1469 H 0.77662 0.24271 0.78818 0.0
H1470 H 0.35498 0.88646 0.46287 0.0
H1471 H 0.35631 0.88627 0.33347 0.0
H1472 H 0.32261 0.81775 0.33385 0.0
H1473 H 0.32123 0.81782 0.46423 0.0
H1474 H 0.36174 0.836 0.26722 0.0
H1475 H 0.2996 0.84218 0.26112 0.0
H1476 H 0.27663 0.85677 0.29298 0.0
H1477 H 0.32274 0.91753 0.2093 0.0
H1478 H 0.34617 0.90339 0.17787 0.0
H1479 H 0.34794 0.82251 0.89454 0.0
H1480 H 0.34674 0.82281 0.02399 0.0
H1481 H 0.38082 0.89134 0.02296 0.0
H1482 H 0.3821 0.89115 0.89259 0.0
H1483 H 0.34161 0.8732 0.08993 0.0
H1484 H 0.40372 0.86704 0.09587 0.0
H1485 H 0.42672 0.85248 0.06396 0.0
H1486 H 0.38068 0.79172 0.1479 0.0
H1487 H 0.35724 0.80583 0.17939 0.0
C1488 C 0.34737 0.87135 0.43527 0.0
C1489 C 0.33823 0.85214 0.47301 0.0
C1490 C 0.34805 0.87127 0.36149 0.0
C1491 C 0.33961 0.852 0.32466 0.0
C1492 C 0.32918 0.83274 0.36192 0.0
C1493 C 0.32831 0.8328 0.436 0.0
C1494 C 0.34431 0.85227 0.24866 0.0
C1495 C 0.357 0.84374 0.22797 0.0
C1496 C 0.33879 0.86317 0.19883 0.0
C1497 C 0.32474 0.87176 0.21769 0.0
C1498 C 0.30495 0.85871 0.25008 0.0
C1499 C 0.29182 0.86689 0.26795 0.0
C1500 C 0.29824 0.88808 0.25332 0.0
C1501 C 0.31779 0.90112 0.22065 0.0
C1502 C 0.33099 0.89302 0.20272 0.0
C1503 C 0.35566 0.83764 0.92202 0.0
C1504 C 0.36488 0.85681 0.88411 0.0
C1505 C 0.35506 0.83778 -0.0042 0.0
C1506 C 0.36364 0.85709 0.03246 0.0
C1507 C 0.37414 0.87632 -0.00497 0.0
C1508 C 0.37494 0.87619 0.92094 0.0
C1509 C 0.35902 0.85691 0.10849 0.0
C1510 C 0.34635 0.86546 0.12918 0.0
C1511 C 0.36457 0.84604 0.15833 0.0
C1512 C 0.37863 0.83746 0.13945 0.0
C1513 C 0.3984 0.85052 0.10695 0.0
C1514 C 0.41154 0.84236 0.08906 0.0
C1515 C 0.40515 0.82117 0.10374 0.0
C1516 C 0.38561 0.80812 0.1365 0.0
C1517 C 0.3724 0.81621 0.15447 0.0
H1518 H 0.41535 0.81489 0.08986 0.0
H1519 H 0.28805 0.89438 0.26717 0.0
H1520 H 0.19701 0.49411 0.87427 0.0
H1521 H 0.19524 0.49209 0.00335 0.0
H1522 H 0.14247 0.50338 0.00135 0.0
H1523 H 0.14408 0.50545 0.87143 0.0
H1524 H 0.1789 0.534 0.07172 0.0
H1525 H 0.1335 0.45898 0.06955 0.0
H1526 H 0.12083 0.42185 0.03497 0.0
H1527 H 0.17786 0.42634 0.11748 0.0
H1528 H 0.19099 0.46357 0.1521 0.0
H1529 H 0.16426 0.52771 0.44144 0.0
H1530 H 0.16276 0.52568 0.31258 0.0
H1531 H 0.21296 0.51052 0.3108 0.0
H1532 H 0.21432 0.51212 0.44097 0.0
H1533 H 0.17666 0.48104 0.24261 0.0
H1534 H 0.22212 0.55653 0.24346 0.0
H1535 H 0.23382 0.59317 0.28175 0.0
H1536 H 0.17617 0.58769 0.20101 0.0
H1537 H 0.16396 0.55089 0.16315 0.0
C1538 C 0.1848 0.49582 0.90121 0.0
C1539 C 0.17102 0.50049 0.86359 0.0
C1540 C 0.18363 0.49435 0.97464 0.0
C1541 C 0.16872 0.49758 0.01088 0.0
C1542 C 0.15397 0.50077 0.97337 0.0
C1543 C 0.15501 0.50207 0.89965 0.0
C1544 C 0.1714 0.5016 0.08705 0.0
C1545 C 0.17798 0.52234 0.10966 0.0
C1546 C 0.17097 0.48648 0.13471 0.0
C1547 C 0.16328 0.46414 0.11314 0.0
C1548 C 0.14342 0.45211 0.07992 0.0
C1549 C 0.1361 0.431 0.06065 0.0
C1550 C 0.14849 0.42171 0.07429 0.0
C1551 C 0.16824 0.43352 0.10723 0.0
C1552 C 0.17561 0.45462 0.12683 0.0
C1553 C 0.17524 0.5243 0.41363 0.0
C1554 C 0.18915 0.51967 0.45064 0.0
C1555 C 0.17447 0.52332 0.34017 0.0
C1556 C 0.18776 0.51796 0.30304 0.0
C1557 C 0.20263 0.51466 0.3394 0.0
C1558 C 0.20342 0.51564 0.41326 0.0
C1559 C 0.18422 0.51346 0.22717 0.0
C1560 C 0.17754 0.49268 0.20465 0.0
C1561 C 0.18457 0.52856 0.17944 0.0
C1562 C 0.19206 0.55087 0.20089 0.0
C1563 C 0.21187 0.56309 0.23424 0.0
C1564 C 0.2186 0.58389 0.25583 0.0
C1565 C 0.20572 0.59274 0.24397 0.0
C1566 C 0.18612 0.58081 0.21019 0.0
C1567 C 0.17931 0.55999 0.18855 0.0
H1568 H 0.21094 0.60883 0.26086 0.0
H1569 H 0.14284 0.40541 0.05894 0.0
H1570 H 0.54569 0.67122 0.46697 0.0
H1571 H 0.54437 0.67032 0.33761 0.0
H1572 H 0.52329 0.71615 0.33801 0.0
H1573 H 0.52432 0.71699 0.46798 0.0
H1574 H 0.49574 0.67908 0.27199 0.0
H1575 H 0.5701 0.7289 0.26751 0.0
H1576 H 0.60777 0.74368 0.29867 0.0
H1577 H 0.60679 0.68892 0.20926 0.0
H1578 H 0.56901 0.67365 0.17838 0.0
H1579 H 0.49849 0.69384 0.89935 0.0
H1580 H 0.50049 0.69506 0.0286 0.0
H1581 H 0.52114 0.64891 0.02705 0.0
H1582 H 0.51941 0.64772 0.89714 0.0
H1583 H 0.54899 0.68607 0.09345 0.0
H1584 H 0.47463 0.63606 0.09943 0.0
H1585 H 0.43703 0.62135 0.06718 0.0
H1586 H 0.43817 0.67656 0.15317 0.0
H1587 H 0.47588 0.69177 0.18501 0.0
C1588 C 0.54125 0.68148 0.43951 0.0
C1589 C 0.5347 0.69387 0.47722 0.0
C1590 C 0.54065 0.68106 0.36568 0.0
C1591 C 0.53364 0.6931 0.32886 0.0
C1592 C 0.52868 0.70673 0.36608 0.0
C1593 C 0.52932 0.70721 0.44007 0.0
C1594 C 0.52864 0.68909 0.25296 0.0
C1595 C 0.50743 0.68098 0.23252 0.0
C1596 C 0.54385 0.69084 0.20279 0.0
C1597 C 0.56661 0.7 0.22134 0.0
C1598 C 0.57784 0.71989 0.25511 0.0
C1599 C 0.59924 0.72839 0.27256 0.0
C1600 C 0.60965 0.71721 0.25616 0.0
C1601 C 0.5987 0.69755 0.22203 0.0
C1602 C 0.5773 0.68897 0.20446 0.0
C1603 C 0.50298 0.68357 0.92655 0.0
C1604 C 0.50916 0.67097 0.88849 0.0
C1605 C 0.50399 0.6842 0.00031 0.0
C1606 C 0.51105 0.67214 0.03673 0.0
C1607 C 0.51573 0.65835 -0.00074 0.0
C1608 C 0.51467 0.65766 0.92533 0.0
C1609 C 0.51611 0.67608 0.1126 0.0
C1610 C 0.53731 0.68417 0.133 0.0
C1611 C 0.50091 0.67431 0.16277 0.0
C1612 C 0.47816 0.66514 0.14409 0.0
C1613 C 0.46692 0.64515 0.11096 0.0
C1614 C 0.44557 0.63671 0.09284 0.0
C1615 C 0.43523 0.64803 0.10796 0.0
C1616 C 0.4462 0.66781 0.14143 0.0
C1617 C 0.46756 0.67634 0.15961 0.0
H1618 H 0.41871 0.64147 0.09386 0.0
H1619 H 0.62622 0.72382 0.26972 0.0
loop_
_geom_bond_atom_site_label_1
_geom_bond_atom_site_label_2
_geom_bond_distance
_geom_bond_site_symmetry_2
_ccdc_geom_bond_type
Co0 N5 2.057 . S
Co0 O17 2.021 1_554 S
Co0 O20 2.062 1_654 S
Co0 O24 2.117 1_655 S
Co0 O25 2.020 . S
C1 O21 1.259 . S
C1 O24 1.258 . S
Co2 N11 2.057 1_554 S
Co2 O18 2.117 1_554 S
Co2 O19 2.020 1_554 S
Co2 O21 2.021 . S
Co2 O26 2.062 . S
C3 N5 1.325 . S
C3 N6 1.355 . S
C3 H8 0.916 1_554 S
C4 N5 1.375 . S
C4 C7 1.350 . S
C4 H9 0.930 . S
N5 Co0 2.057 . S
N5 C3 1.325 . S
N5 C4 1.375 . S
N6 C3 1.355 . S
N6 C7 1.373 . S
C7 C4 1.350 . S
C7 N6 1.373 . S
C7 H28 0.931 . S
H8 C3 0.916 1_556 S
H9 C4 0.930 . S
C10 O17 1.259 1_455 S
C10 O18 1.258 . S
N11 Co2 2.057 1_556 S
N11 C12 1.316 1_556 S
N11 C13 1.375 . S
C12 N11 1.316 1_554 S
C12 N14 1.347 1_554 S
C12 H23 0.931 . S
C13 N11 1.375 . S
C13 C15 1.350 . S
C13 H22 0.930 . S
N14 C12 1.347 1_556 S
N14 C15 1.373 . S
C15 C13 1.350 . S
C15 N14 1.373 . S
C15 H29 0.931 . S
C16 O19 1.256 . S
C16 O20 1.255 . S
O17 Co0 2.021 1_556 S
O17 C10 1.259 1_655 S
O18 Co2 2.117 1_556 S
O18 C10 1.258 . S
O19 Co2 2.020 1_556 S
O19 C16 1.256 . S
O20 Co0 2.062 1_456 S
O20 C16 1.255 . S
O21 C1 1.259 . S
O21 Co2 2.021 . S
H22 C13 0.930 . S
H23 C12 0.931 . S
O24 Co0 2.117 1_455 S
O24 C1 1.258 . S
O25 Co0 2.020 . S
O25 C27 1.256 . S
O26 Co2 2.062 . S
O26 C27 1.255 1_455 S
C27 O25 1.256 . S
C27 O26 1.255 1_655 S
H28 C7 0.931 . S
H29 C15 0.931 . S
Co30 N35 2.057 . S
Co30 O47 2.021 1_554 S
Co30 O50 2.062 1_554 S
Co30 O54 2.117 . S
Co30 O55 2.020 . S
C31 O51 1.259 . S
C31 O54 1.258 . S
Co32 N41 2.057 1_554 S
Co32 O48 2.117 1_554 S
Co32 O49 2.020 1_554 S
Co32 O51 2.021 . S
Co32 O56 2.062 . S
C33 N35 1.325 . S
C33 N36 1.354 . S
C33 H38 0.916 1_554 S
C34 N35 1.375 . S
C34 C37 1.350 . S
C34 H39 0.930 . S
N35 Co30 2.057 . S
N35 C33 1.325 . S
N35 C34 1.375 . S
N36 C33 1.354 . S
N36 C37 1.373 . S
C37 C34 1.350 . S
C37 N36 1.373 . S
C37 H58 0.931 . S
H38 C33 0.916 1_556 S
H39 C34 0.930 . S
C40 O47 1.259 . S
C40 O48 1.258 . S
N41 Co32 2.057 1_556 S
N41 C42 1.316 1_556 S
N41 C43 1.375 . S
C42 N41 1.316 1_554 S
C42 N44 1.347 1_554 S
C42 H53 0.931 . S
C43 N41 1.375 . S
C43 C45 1.350 . S
C43 H52 0.930 . S
N44 C42 1.347 1_556 S
N44 C45 1.373 . S
C45 C43 1.350 . S
C45 N44 1.373 . S
C45 H59 0.931 . S
C46 O49 1.256 . S
C46 O50 1.255 . S
O47 Co30 2.021 1_556 S
O47 C40 1.259 . S
O48 Co32 2.117 1_556 S
O48 C40 1.258 . S
O49 Co32 2.020 1_556 S
O49 C46 1.256 . S
O50 Co30 2.062 1_556 S
O50 C46 1.255 . S
O51 C31 1.259 . S
O51 Co32 2.021 . S
H52 C43 0.930 . S
H53 C42 0.931 . S
O54 Co30 2.117 . S
O54 C31 1.258 . S
O55 Co30 2.020 . S
O55 C57 1.256 . S
O56 Co32 2.062 . S
O56 C57 1.255 . S
C57 O55 1.256 . S
C57 O56 1.255 . S
H58 C37 0.931 . S
H59 C45 0.931 . S
Co60 N65 2.057 . S
Co60 O77 2.021 1_554 S
Co60 O80 2.062 1_554 S
Co60 O84 2.117 . S
Co60 O85 2.020 . S
C61 O81 1.259 1_545 S
C61 O84 1.258 . S
Co62 N71 2.057 1_554 S
Co62 O78 2.117 1_564 S
Co62 O79 2.020 1_554 S
Co62 O81 2.021 . S
Co62 O86 2.062 1_565 S
C63 N65 1.325 . S
C63 N66 1.354 . S
C63 H68 0.916 1_554 S
C64 N65 1.375 . S
C64 C67 1.350 . S
C64 H69 0.930 . S
N65 Co60 2.057 . S
N65 C63 1.325 . S
N65 C64 1.375 . S
N66 C63 1.354 . S
N66 C67 1.373 . S
C67 C64 1.350 . S
C67 N66 1.373 . S
C67 H88 0.931 . S
H68 C63 0.916 1_556 S
H69 C64 0.930 . S
C70 O77 1.259 . S
C70 O78 1.258 . S
N71 Co62 2.057 1_556 S
N71 C72 1.316 1_556 S
N71 C73 1.375 . S
C72 N71 1.316 1_554 S
C72 N74 1.347 1_554 S
C72 H83 0.931 . S
C73 N71 1.375 . S
C73 C75 1.350 . S
C73 H82 0.930 . S
N74 C72 1.347 1_556 S
N74 C75 1.373 . S
C75 C73 1.350 . S
C75 N74 1.373 . S
C75 H89 0.931 . S
C76 O79 1.256 . S
C76 O80 1.255 1_565 S
O77 Co60 2.021 1_556 S
O77 C70 1.259 . S
O78 Co62 2.117 1_546 S
O78 C70 1.258 . S
O79 Co62 2.020 1_556 S
O79 C76 1.256 . S
O80 Co60 2.062 1_556 S
O80 C76 1.255 1_545 S
O81 C61 1.259 1_565 S
O81 Co62 2.021 . S
H82 C73 0.930 . S
H83 C72 0.931 . S
O84 Co60 2.117 . S
O84 C61 1.258 . S
O85 Co60 2.020 . S
O85 C87 1.256 . S
O86 Co62 2.062 1_545 S
O86 C87 1.255 . S
C87 O85 1.256 . S
C87 O86 1.255 . S
H88 C67 0.931 . S
H89 C75 0.931 . S
Co90 N95 2.057 . S
Co90 O107 2.021 . S
Co90 O110 2.062 . S
Co90 O114 2.117 . S
Co90 O115 2.020 . S
C91 O111 1.259 . S
C91 O114 1.258 . S
Co92 N101 2.057 . S
Co92 O108 2.117 . S
Co92 O109 2.020 . S
Co92 O111 2.021 . S
Co92 O116 2.062 . S
C93 N95 1.316 . S
C93 N96 1.347 . S
C93 H98 0.931 . S
C94 N95 1.375 . S
C94 C97 1.350 . S
C94 H99 0.930 . S
N95 Co90 2.057 . S
N95 C93 1.316 . S
N95 C94 1.375 . S
N96 C93 1.347 . S
N96 C97 1.373 . S
C97 C94 1.350 . S
C97 N96 1.373 . S
C97 H118 0.931 . S
H98 C93 0.931 . S
H99 C94 0.930 . S
C100 O107 1.259 . S
C100 O108 1.258 . S
N101 Co92 2.057 . S
N101 C102 1.316 . S
N101 C103 1.375 . S
C102 N101 1.316 . S
C102 N104 1.347 . S
C102 H113 0.931 . S
C103 N101 1.375 . S
C103 C105 1.350 . S
C103 H112 0.930 . S
N104 C102 1.347 . S
N104 C105 1.373 . S
C105 C103 1.350 . S
C105 N104 1.373 . S
C105 H119 0.931 . S
C106 O109 1.256 . S
C106 O110 1.255 . S
O107 Co90 2.021 . S
O107 C100 1.259 . S
O108 Co92 2.117 . S
O108 C100 1.258 . S
O109 Co92 2.020 . S
O109 C106 1.256 . S
O110 Co90 2.062 . S
O110 C106 1.255 . S
O111 C91 1.259 . S
O111 Co92 2.021 . S
H112 C103 0.930 . S
H113 C102 0.931 . S
O114 Co90 2.117 . S
O114 C91 1.258 . S
O115 Co90 2.020 . S
O115 C117 1.256 . S
O116 Co92 2.062 . S
O116 C117 1.255 . S
C117 O115 1.256 . S
C117 O116 1.255 . S
H118 C97 0.931 . S
H119 C105 0.931 . S
Co120 N125 2.057 . S
Co120 O137 2.021 . S
Co120 O140 2.062 . S
Co120 O144 2.117 . S
Co120 O145 2.020 . S
C121 O141 1.259 . S
C121 O144 1.258 . S
Co122 N131 2.057 . S
Co122 O138 2.117 . S
Co122 O139 2.020 . S
Co122 O141 2.021 . S
Co122 O146 2.062 . S
C123 N125 1.316 . S
C123 N126 1.347 . S
C123 H128 0.931 . S
C124 N125 1.375 . S
C124 C127 1.350 . S
C124 H129 0.930 . S
N125 Co120 2.057 . S
N125 C123 1.316 . S
N125 C124 1.375 . S
N126 C123 1.347 . S
N126 C127 1.373 . S
C127 C124 1.350 . S
C127 N126 1.373 . S
C127 H148 0.931 . S
H128 C123 0.931 . S
H129 C124 0.930 . S
C130 O137 1.259 . S
C130 O138 1.258 . S
N131 Co122 2.057 . S
N131 C132 1.316 . S
N131 C133 1.375 . S
C132 N131 1.316 . S
C132 N134 1.347 . S
C132 H143 0.931 . S
C133 N131 1.375 . S
C133 C135 1.350 . S
C133 H142 0.930 . S
N134 C132 1.347 . S
N134 C135 1.373 . S
C135 C133 1.350 . S
C135 N134 1.373 . S
C135 H149 0.931 . S
C136 O139 1.256 . S
C136 O140 1.255 . S
O137 Co120 2.021 . S
O137 C130 1.259 . S
O138 Co122 2.117 . S
O138 C130 1.258 . S
O139 Co122 2.020 . S
O139 C136 1.256 . S
O140 Co120 2.062 . S
O140 C136 1.255 . S
O141 C121 1.259 . S
O141 Co122 2.021 . S
H142 C133 0.930 . S
H143 C132 0.931 . S
O144 Co120 2.117 . S
O144 C121 1.258 . S
O145 Co120 2.020 . S
O145 C147 1.256 . S
O146 Co122 2.062 . S
O146 C147 1.255 . S
C147 O145 1.256 . S
C147 O146 1.255 . S
H148 C127 0.931 . S
H149 C135 0.931 . S
Co150 N155 2.057 . S
Co150 O167 2.021 . S
Co150 O170 2.062 . S
Co150 O174 2.117 . S
Co150 O175 2.020 . S
C151 O171 1.259 . S
C151 O174 1.258 . S
Co152 N161 2.057 . S
Co152 O168 2.117 . S
Co152 O169 2.020 . S
Co152 O171 2.021 . S
Co152 O176 2.062 . S
C153 N155 1.316 . S
C153 N156 1.347 . S
C153 H158 0.931 . S
C154 N155 1.375 . S
C154 C157 1.350 . S
C154 H159 0.930 . S
N155 Co150 2.057 . S
N155 C153 1.316 . S
N155 C154 1.375 . S
N156 C153 1.347 . S
N156 C157 1.373 . S
C157 C154 1.350 . S
C157 N156 1.373 . S
C157 H178 0.931 . S
H158 C153 0.931 . S
H159 C154 0.930 . S
C160 O167 1.259 . S
C160 O168 1.258 . S
N161 Co152 2.057 . S
N161 C162 1.316 . S
N161 C163 1.375 . S
C162 N161 1.316 . S
C162 N164 1.347 . S
C162 H173 0.931 . S
C163 N161 1.375 . S
C163 C165 1.350 . S
C163 H172 0.930 . S
N164 C162 1.347 . S
N164 C165 1.373 . S
C165 C163 1.350 . S
C165 N164 1.373 . S
C165 H179 0.931 . S
C166 O169 1.256 . S
C166 O170 1.255 . S
O167 Co150 2.021 . S
O167 C160 1.259 . S
O168 Co152 2.117 . S
O168 C160 1.258 . S
O169 Co152 2.020 . S
O169 C166 1.256 . S
O170 Co150 2.062 . S
O170 C166 1.255 . S
O171 C151 1.259 . S
O171 Co152 2.021 . S
H172 C163 0.930 . S
H173 C162 0.931 . S
O174 Co150 2.117 . S
O174 C151 1.258 . S
O175 Co150 2.020 . S
O175 C177 1.256 . S
O176 Co152 2.062 . S
O176 C177 1.255 . S
C177 O175 1.256 . S
C177 O176 1.255 . S
H178 C157 0.931 . S
H179 C165 0.931 . S
Co180 N185 2.057 . S
Co180 O197 2.021 . S
Co180 O200 2.062 . S
Co180 O204 2.117 . S
Co180 O205 2.020 . S
C181 O201 1.259 . S
C181 O204 1.258 . S
Co182 N191 2.057 . S
Co182 O198 2.117 . S
Co182 O199 2.020 . S
Co182 O201 2.021 . S
Co182 O206 2.062 . S
C183 N185 1.316 . S
C183 N186 1.347 . S
C183 H188 0.931 . S
C184 N185 1.375 . S
C184 C187 1.350 . S
C184 H189 0.930 . S
N185 Co180 2.057 . S
N185 C183 1.316 . S
N185 C184 1.375 . S
N186 C183 1.347 . S
N186 C187 1.373 . S
C187 C184 1.350 . S
C187 N186 1.373 . S
C187 H208 0.931 . S
H188 C183 0.931 . S
H189 C184 0.930 . S
C190 O197 1.259 . S
C190 O198 1.258 . S
N191 Co182 2.057 . S
N191 C192 1.316 . S
N191 C193 1.375 . S
C192 N191 1.316 . S
C192 N194 1.347 . S
C192 H203 0.931 . S
C193 N191 1.375 . S
C193 C195 1.350 . S
C193 H202 0.930 . S
N194 C192 1.347 . S
N194 C195 1.373 . S
C195 C193 1.350 . S
C195 N194 1.373 . S
C195 H209 0.931 . S
C196 O199 1.256 . S
C196 O200 1.255 . S
O197 Co180 2.021 . S
O197 C190 1.259 . S
O198 Co182 2.117 . S
O198 C190 1.258 . S
O199 Co182 2.020 . S
O199 C196 1.256 . S
O200 Co180 2.062 . S
O200 C196 1.255 . S
O201 C181 1.259 . S
O201 Co182 2.021 . S
H202 C193 0.930 . S
H203 C192 0.931 . S
O204 Co180 2.117 . S
O204 C181 1.258 . S
O205 Co180 2.020 . S
O205 C207 1.256 . S
O206 Co182 2.062 . S
O206 C207 1.255 . S
C207 O205 1.256 . S
C207 O206 1.255 . S
H208 C187 0.931 . S
H209 C195 0.931 . S
Co210 N215 2.057 . S
Co210 O227 2.021 . S
Co210 O230 2.062 . S
Co210 O234 2.117 . S
Co210 O235 2.020 . S
C211 O231 1.259 . S
C211 O234 1.258 . S
Co212 N221 2.057 . S
Co212 O228 2.117 . S
Co212 O229 2.020 . S
Co212 O231 2.021 . S
Co212 O236 2.062 . S
C213 N215 1.316 . S
C213 N216 1.347 . S
C213 H218 0.931 . S
C214 N215 1.375 . S
C214 C217 1.350 . S
C214 H219 0.930 . S
N215 Co210 2.057 . S
N215 C213 1.316 . S
N215 C214 1.375 . S
N216 C213 1.347 . S
N216 C217 1.373 . S
C217 C214 1.350 . S
C217 N216 1.373 . S
C217 H238 0.931 . S
H218 C213 0.931 . S
H219 C214 0.930 . S
C220 O227 1.259 . S
C220 O228 1.258 . S
N221 Co212 2.057 . S
N221 C222 1.316 . S
N221 C223 1.375 . S
C222 N221 1.316 . S
C222 N224 1.347 . S
C222 H233 0.931 . S
C223 N221 1.375 . S
C223 C225 1.350 . S
C223 H232 0.930 . S
N224 C222 1.347 . S
N224 C225 1.373 . S
C225 C223 1.350 . S
C225 N224 1.373 . S
C225 H239 0.931 . S
C226 O229 1.256 . S
C226 O230 1.255 . S
O227 Co210 2.021 . S
O227 C220 1.259 . S
O228 Co212 2.117 . S
O228 C220 1.258 . S
O229 Co212 2.020 . S
O229 C226 1.256 . S
O230 Co210 2.062 . S
O230 C226 1.255 . S
O231 C211 1.259 . S
O231 Co212 2.021 . S
H232 C223 0.930 . S
H233 C222 0.931 . S
O234 Co210 2.117 . S
O234 C211 1.258 . S
O235 Co210 2.020 . S
O235 C237 1.256 . S
O236 Co212 2.062 . S
O236 C237 1.255 . S
C237 O235 1.256 . S
C237 O236 1.255 . S
H238 C217 0.931 . S
H239 C225 0.931 . S
Co240 N245 2.057 . S
Co240 O257 2.021 . S
Co240 O260 2.062 . S
Co240 O264 2.117 . S
Co240 O265 2.020 . S
C241 O261 1.259 . S
C241 O264 1.258 . S
Co242 N251 2.057 . S
Co242 O258 2.117 . S
Co242 O259 2.020 . S
Co242 O261 2.021 . S
Co242 O266 2.062 . S
C243 N245 1.316 . S
C243 N246 1.347 . S
C243 H248 0.931 . S
C244 N245 1.375 . S
C244 C247 1.350 . S
C244 H249 0.930 . S
N245 Co240 2.057 . S
N245 C243 1.316 . S
N245 C244 1.375 . S
N246 C243 1.347 . S
N246 C247 1.373 . S
C247 C244 1.350 . S
C247 N246 1.373 . S
C247 H268 0.931 . S
H248 C243 0.931 . S
H249 C244 0.930 . S
C250 O257 1.259 . S
C250 O258 1.258 . S
N251 Co242 2.057 . S
N251 C252 1.316 . S
N251 C253 1.375 . S
C252 N251 1.316 . S
C252 N254 1.347 . S
C252 H263 0.931 . S
C253 N251 1.375 . S
C253 C255 1.350 . S
C253 H262 0.930 . S
N254 C252 1.347 . S
N254 C255 1.373 . S
C255 C253 1.350 . S
C255 N254 1.373 . S
C255 H269 0.931 . S
C256 O259 1.256 . S
C256 O260 1.255 . S
O257 Co240 2.021 . S
O257 C250 1.259 . S
O258 Co242 2.117 . S
O258 C250 1.258 . S
O259 Co242 2.020 . S
O259 C256 1.256 . S
O260 Co240 2.062 . S
O260 C256 1.255 . S
O261 C241 1.259 . S
O261 Co242 2.021 . S
H262 C253 0.930 . S
H263 C252 0.931 . S
O264 Co240 2.117 . S
O264 C241 1.258 . S
O265 Co240 2.020 . S
O265 C267 1.256 . S
O266 Co242 2.062 . S
O266 C267 1.255 . S
C267 O265 1.256 . S
C267 O266 1.255 . S
H268 C247 0.931 . S
H269 C255 0.931 . S
H270 C288 0.951 . S
H271 C290 0.951 1_554 S
H272 C292 0.950 . S
H273 C293 0.950 . S
H274 C295 0.950 . S
H275 C298 0.950 . S
H276 C299 0.950 . S
H277 C301 0.939 1_554 S
H278 C302 0.950 . S
H279 C303 0.951 . S
H280 C305 0.951 . S
H281 C307 0.950 . S
H282 C308 0.950 . S
H283 C310 0.950 . S
H284 C313 0.950 . S
H285 C314 0.950 . S
H286 C316 0.950 . S
H287 C317 0.950 . S
C288 H270 0.951 . S
C288 C289 1.366 1_554 S
C288 C290 1.388 1_554 S
C289 C288 1.366 1_556 S
C289 C293 1.385 . S
C290 H271 0.951 1_556 S
C290 C288 1.388 1_556 S
C290 C291 1.366 . S
C291 C290 1.366 . S
C291 C292 1.414 . S
C291 C294 1.499 . S
C292 H272 0.950 . S
C292 C291 1.414 . S
C292 C293 1.374 . S
C293 H273 0.950 . S
C293 C289 1.385 . S
C293 C292 1.374 . S
C294 C291 1.499 . S
C294 C295 1.373 . S
C294 C296 1.389 . S
C295 H274 0.950 . S
C295 C294 1.373 . S
C295 C311 1.377 . S
C296 C294 1.389 . S
C296 C297 1.524 . S
C296 C310 1.377 . S
C297 C296 1.524 . S
C297 C298 1.397 . S
C297 C302 1.363 . S
C298 H275 0.950 . S
C298 C297 1.397 . S
C298 C299 1.334 . S
C299 H276 0.950 . S
C299 C298 1.334 . S
C299 C300 1.287 . S
C300 C299 1.287 . S
C300 C301 1.524 . S
C300 H319 0.913 . S
C301 H277 0.939 1_556 S
C301 C300 1.524 . S
C301 C302 1.415 . S
C302 H278 0.950 . S
C302 C297 1.363 . S
C302 C301 1.415 . S
C303 H279 0.951 . S
C303 C304 1.366 . S
C303 C305 1.388 . S
C304 C303 1.366 . S
C304 C308 1.385 . S
C305 H280 0.951 . S
C305 C303 1.388 . S
C305 C306 1.366 . S
C306 C305 1.366 . S
C306 C307 1.414 . S
C306 C309 1.499 . S
C307 H281 0.950 . S
C307 C306 1.414 . S
C307 C308 1.374 . S
C308 H282 0.950 . S
C308 C304 1.385 . S
C308 C307 1.374 . S
C309 C306 1.499 . S
C309 C310 1.373 . S
C309 C311 1.389 . S
C310 H283 0.950 . S
C310 C296 1.377 . S
C310 C309 1.373 . S
C311 C295 1.377 . S
C311 C309 1.389 . S
C311 C312 1.524 . S
C312 C311 1.524 . S
C312 C313 1.397 . S
C312 C317 1.363 . S
C313 H284 0.950 . S
C313 C312 1.397 . S
C313 C314 1.334 . S
C314 H285 0.950 . S
C314 C313 1.334 . S
C314 C315 1.287 . S
C315 C314 1.287 . S
C315 C316 1.524 . S
C315 H318 0.999 . S
C316 H286 0.950 . S
C316 C315 1.524 . S
C316 C317 1.415 . S
C317 H287 0.950 . S
C317 C312 1.363 . S
C317 C316 1.415 . S
H318 C315 0.999 . S
H319 C300 0.913 . S
H320 C338 0.951 . S
H321 C340 0.951 . S
H322 C342 0.950 . S
H323 C343 0.950 1_554 S
H324 C345 0.950 . S
H325 C348 0.950 . S
H326 C349 0.950 . S
H327 C351 0.950 . S
H328 C352 0.950 . S
H329 C353 0.951 . S
H330 C355 0.951 . S
H331 C357 0.950 . S
H332 C358 0.950 . S
H333 C360 0.950 . S
H334 C363 0.950 . S
H335 C364 0.950 . S
H336 C366 0.950 . S
H337 C367 0.950 . S
C338 H320 0.951 . S
C338 C339 1.366 . S
C338 C340 1.388 . S
C339 C338 1.366 . S
C339 C343 1.385 . S
C340 H321 0.951 . S
C340 C338 1.388 . S
C340 C341 1.366 . S
C341 C340 1.366 . S
C341 C342 1.414 . S
C341 C344 1.499 . S
C342 H322 0.950 . S
C342 C341 1.414 . S
C342 C343 1.374 . S
C343 H323 0.950 1_556 S
C343 C339 1.385 . S
C343 C342 1.374 . S
C344 C341 1.499 . S
C344 C345 1.373 . S
C344 C346 1.389 . S
C345 H324 0.950 . S
C345 C344 1.373 . S
C345 C361 1.377 . S
C346 C344 1.389 . S
C346 C347 1.524 . S
C346 C360 1.377 . S
C347 C346 1.524 . S
C347 C348 1.397 1_556 S
C347 C352 1.363 . S
C348 H325 0.950 . S
C348 C347 1.397 1_554 S
C348 C349 1.334 . S
C349 H326 0.950 . S
C349 C348 1.334 . S
C349 C350 1.287 . S
C350 C349 1.287 . S
C350 C351 1.524 1_554 S
C350 H369 0.913 . S
C351 H327 0.950 . S
C351 C350 1.524 1_556 S
C351 C352 1.415 . S
C352 H328 0.950 . S
C352 C347 1.363 . S
C352 C351 1.415 . S
C353 H329 0.951 . S
C353 C354 1.366 . S
C353 C355 1.388 . S
C354 C353 1.366 . S
C354 C358 1.385 . S
C355 H330 0.951 . S
C355 C353 1.388 . S
C355 C356 1.366 . S
C356 C355 1.366 . S
C356 C357 1.414 . S
C356 C359 1.499 . S
C357 H331 0.950 . S
C357 C356 1.414 . S
C357 C358 1.374 . S
C358 H332 0.950 . S
C358 C354 1.385 . S
C358 C357 1.374 . S
C359 C356 1.499 . S
C359 C360 1.373 . S
C359 C361 1.389 . S
C360 H333 0.950 . S
C360 C346 1.377 . S
C360 C359 1.373 . S
C361 C345 1.377 . S
C361 C359 1.389 . S
C361 C362 1.524 . S
C362 C361 1.524 . S
C362 C363 1.397 . S
C362 C367 1.363 . S
C363 H334 0.950 . S
C363 C362 1.397 . S
C363 C364 1.334 . S
C364 H335 0.950 . S
C364 C363 1.334 . S
C364 C365 1.287 . S
C365 C364 1.287 . S
C365 C366 1.524 . S
C365 H368 0.999 . S
C366 H336 0.950 . S
C366 C365 1.524 . S
C366 C367 1.415 . S
C367 H337 0.950 . S
C367 C362 1.363 . S
C367 C366 1.415 . S
H368 C365 0.999 . S
H369 C350 0.913 . S
H370 C388 0.951 . S
H371 C390 0.951 1_554 S
H372 C392 0.950 . S
H373 C393 0.950 . S
H374 C395 0.950 . S
H375 C398 0.950 . S
H376 C399 0.950 . S
H377 C401 0.950 . S
H378 C402 0.950 . S
H379 C403 0.951 . S
H380 C405 0.951 . S
H381 C407 0.950 . S
H382 C408 0.950 . S
H383 C410 0.950 . S
H384 C413 0.950 . S
H385 C414 0.950 . S
H386 C416 0.950 . S
H387 C417 0.950 . S
C388 H370 0.951 . S
C388 C389 1.366 1_554 S
C388 C390 1.388 1_554 S
C389 C388 1.366 1_556 S
C389 C393 1.385 . S
C390 H371 0.951 1_556 S
C390 C388 1.388 1_556 S
C390 C391 1.366 . S
C391 C390 1.366 . S
C391 C392 1.414 . S
C391 C394 1.499 . S
C392 H372 0.950 . S
C392 C391 1.414 . S
C392 C393 1.374 . S
C393 H373 0.950 . S
C393 C389 1.385 . S
C393 C392 1.374 . S
C394 C391 1.499 . S
C394 C395 1.373 . S
C394 C396 1.389 . S
C395 H374 0.950 . S
C395 C394 1.373 . S
C395 C411 1.377 . S
C396 C394 1.389 . S
C396 C397 1.524 . S
C396 C410 1.377 . S
C397 C396 1.524 . S
C397 C398 1.397 . S
C397 C402 1.363 1_556 S
C398 H375 0.950 . S
C398 C397 1.397 . S
C398 C399 1.334 . S
C399 H376 0.950 . S
C399 C398 1.334 . S
C399 C400 1.287 1_556 S
C400 C399 1.287 1_554 S
C400 C401 1.524 . S
C400 H419 0.913 . S
C401 H377 0.950 . S
C401 C400 1.524 . S
C401 C402 1.415 . S
C402 H378 0.950 . S
C402 C397 1.363 1_554 S
C402 C401 1.415 . S
C403 H379 0.951 . S
C403 C404 1.366 . S
C403 C405 1.388 . S
C404 C403 1.366 . S
C404 C408 1.385 . S
C405 H380 0.951 . S
C405 C403 1.388 . S
C405 C406 1.366 . S
C406 C405 1.366 . S
C406 C407 1.414 . S
C406 C409 1.499 . S
C407 H381 0.950 . S
C407 C406 1.414 . S
C407 C408 1.374 . S
C408 H382 0.950 . S
C408 C404 1.385 . S
C408 C407 1.374 . S
C409 C406 1.499 . S
C409 C410 1.373 . S
C409 C411 1.389 . S
C410 H383 0.950 . S
C410 C396 1.377 . S
C410 C409 1.373 . S
C411 C395 1.377 . S
C411 C409 1.389 . S
C411 C412 1.524 . S
C412 C411 1.524 . S
C412 C413 1.397 . S
C412 C417 1.363 . S
C413 H384 0.950 . S
C413 C412 1.397 . S
C413 C414 1.334 . S
C414 H385 0.950 . S
C414 C413 1.334 . S
C414 C415 1.287 . S
C415 C414 1.287 . S
C415 C416 1.524 . S
C415 H418 0.999 . S
C416 H386 0.950 . S
C416 C415 1.524 . S
C416 C417 1.415 . S
C417 H387 0.950 . S
C417 C412 1.363 . S
C417 C416 1.415 . S
H418 C415 0.999 . S
H419 C400 0.913 . S
H420 C438 0.951 . S
H421 C440 0.951 . S
H422 C442 0.950 . S
H423 C443 0.950 . S
H424 C445 0.950 . S
H425 C448 0.950 . S
H426 C449 0.950 . S
H427 C451 0.950 . S
H428 C452 0.950 . S
H429 C453 0.951 1_556 S
H430 C455 0.951 . S
H431 C457 0.950 . S
H432 C458 0.950 . S
H433 C460 0.950 . S
H434 C463 0.950 1_554 S
H435 C464 0.950 . S
H436 C466 0.950 . S
H437 C467 0.950 . S
C438 H420 0.951 . S
C438 C439 1.366 . S
C438 C440 1.388 . S
C439 C438 1.366 . S
C439 C443 1.385 . S
C440 H421 0.951 . S
C440 C438 1.388 . S
C440 C441 1.366 . S
C441 C440 1.366 . S
C441 C442 1.414 . S
C441 C444 1.499 . S
C442 H422 0.950 . S
C442 C441 1.414 . S
C442 C443 1.374 . S
C443 H423 0.950 . S
C443 C439 1.385 . S
C443 C442 1.374 . S
C444 C441 1.499 . S
C444 C445 1.373 . S
C444 C446 1.389 . S
C445 H424 0.950 . S
C445 C444 1.373 . S
C445 C461 1.377 . S
C446 C444 1.389 . S
C446 C447 1.524 . S
C446 C460 1.377 . S
C447 C446 1.524 . S
C447 C448 1.397 . S
C447 C452 1.363 . S
C448 H425 0.950 . S
C448 C447 1.397 . S
C448 C449 1.334 . S
C449 H426 0.950 . S
C449 C448 1.334 . S
C449 C450 1.287 . S
C450 C449 1.287 . S
C450 C451 1.524 . S
C450 H469 0.913 . S
C451 H427 0.950 . S
C451 C450 1.524 . S
C451 C452 1.415 . S
C452 H428 0.950 . S
C452 C447 1.363 . S
C452 C451 1.415 . S
C453 H429 0.951 1_554 S
C453 C454 1.366 . S
C453 C455 1.388 . S
C454 C453 1.366 . S
C454 C458 1.385 . S
C455 H430 0.951 . S
C455 C453 1.388 . S
C455 C456 1.366 . S
C456 C455 1.366 . S
C456 C457 1.414 . S
C456 C459 1.499 . S
C457 H431 0.950 . S
C457 C456 1.414 . S
C457 C458 1.374 . S
C458 H432 0.950 . S
C458 C454 1.385 . S
C458 C457 1.374 . S
C459 C456 1.499 . S
C459 C460 1.373 . S
C459 C461 1.389 . S
C460 H433 0.950 . S
C460 C446 1.377 . S
C460 C459 1.373 . S
C461 C445 1.377 . S
C461 C459 1.389 . S
C461 C462 1.524 . S
C462 C461 1.524 . S
C462 C463 1.397 1_554 S
C462 C467 1.363 1_554 S
C463 H434 0.950 1_556 S
C463 C462 1.397 1_556 S
C463 C464 1.334 . S
C464 H435 0.950 . S
C464 C463 1.334 . S
C464 C465 1.287 . S
C465 C464 1.287 . S
C465 C466 1.524 . S
C465 H468 0.999 . S
C466 H436 0.950 . S
C466 C465 1.524 . S
C466 C467 1.415 . S
C467 H437 0.950 . S
C467 C462 1.363 1_556 S
C467 C466 1.415 . S
H468 C465 0.999 . S
H469 C450 0.913 . S
H470 C488 0.951 . S
H471 C490 0.951 . S
H472 C492 0.950 . S
H473 C493 0.950 . S
H474 C495 0.950 . S
H475 C498 0.950 . S
H476 C499 0.950 . S
H477 C501 0.950 . S
H478 C502 0.950 . S
H479 C503 0.951 . S
H480 C505 0.951 . S
H481 C507 0.950 . S
H482 C508 0.950 1_556 S
H483 C510 0.950 . S
H484 C513 0.950 . S
H485 C514 0.966 . S
H486 C516 0.950 . S
H487 C517 0.950 . S
C488 H470 0.951 . S
C488 C489 1.366 . S
C488 C490 1.388 . S
C489 C488 1.366 . S
C489 C493 1.385 . S
C490 H471 0.951 . S
C490 C488 1.388 . S
C490 C491 1.366 . S
C491 C490 1.366 . S
C491 C492 1.414 . S
C491 C494 1.499 . S
C492 H472 0.950 . S
C492 C491 1.414 . S
C492 C493 1.374 . S
C493 H473 0.950 . S
C493 C489 1.385 . S
C493 C492 1.374 . S
C494 C491 1.499 . S
C494 C495 1.373 . S
C494 C496 1.389 . S
C495 H474 0.950 . S
C495 C494 1.373 . S
C495 C511 1.377 . S
C496 C494 1.389 . S
C496 C497 1.524 . S
C496 C510 1.377 . S
C497 C496 1.524 . S
C497 C498 1.397 . S
C497 C502 1.363 . S
C498 H475 0.950 . S
C498 C497 1.397 . S
C498 C499 1.334 . S
C499 H476 0.950 . S
C499 C498 1.334 . S
C499 C500 1.287 . S
C500 C499 1.287 . S
C500 C501 1.524 . S
C500 H519 0.913 . S
C501 H477 0.950 . S
C501 C500 1.524 . S
C501 C502 1.415 . S
C502 H478 0.950 . S
C502 C497 1.363 . S
C502 C501 1.415 . S
C503 H479 0.951 . S
C503 C504 1.366 . S
C503 C505 1.388 . S
C504 C503 1.366 . S
C504 C508 1.385 . S
C505 H480 0.951 . S
C505 C503 1.388 . S
C505 C506 1.366 . S
C506 C505 1.366 . S
C506 C507 1.414 . S
C506 C509 1.499 . S
C507 H481 0.950 . S
C507 C506 1.414 . S
C507 C508 1.374 . S
C508 H482 0.950 1_554 S
C508 C504 1.385 . S
C508 C507 1.374 . S
C509 C506 1.499 . S
C509 C510 1.373 . S
C509 C511 1.389 . S
C510 H483 0.950 . S
C510 C496 1.377 . S
C510 C509 1.373 . S
C511 C495 1.377 . S
C511 C509 1.389 . S
C511 C512 1.524 . S
C512 C511 1.524 . S
C512 C513 1.397 . S
C512 C517 1.363 . S
C513 H484 0.950 . S
C513 C512 1.397 . S
C513 C514 1.302 1_655 S
C514 H485 0.966 . S
C514 C513 1.302 1_455 S
C514 C515 1.304 . S
C515 C514 1.304 . S
C515 C516 1.524 . S
C515 H518 0.999 . S
C516 H486 0.950 . S
C516 C515 1.524 . S
C516 C517 1.415 1_455 S
C517 H487 0.950 . S
C517 C512 1.363 . S
C517 C516 1.415 1_655 S
H518 C515 0.999 . S
H519 C500 0.913 . S
H520 C538 0.951 . S
H521 C540 0.951 . S
H522 C542 0.950 . S
H523 C543 0.950 1_556 S
H524 C545 0.950 . S
H525 C548 0.950 . S
H526 C549 0.950 . S
H527 C551 0.950 . S
H528 C552 0.950 . S
H529 C553 0.951 . S
H530 C555 0.951 . S
H531 C557 0.950 . S
H532 C558 0.950 . S
H533 C560 0.950 . S
H534 C563 0.950 . S
H535 C564 0.950 . S
H536 C566 0.950 . S
H537 C567 0.950 . S
C538 H520 0.951 . S
C538 C539 1.366 . S
C538 C540 1.388 . S
C539 C538 1.366 . S
C539 C543 1.385 . S
C540 H521 0.951 . S
C540 C538 1.388 . S
C540 C541 1.366 . S
C541 C540 1.366 . S
C541 C542 1.414 . S
C541 C544 1.499 . S
C542 H522 0.950 . S
C542 C541 1.414 . S
C542 C543 1.374 . S
C543 H523 0.950 1_554 S
C543 C539 1.385 . S
C543 C542 1.374 . S
C544 C541 1.499 . S
C544 C545 1.373 . S
C544 C546 1.389 . S
C545 H524 0.950 . S
C545 C544 1.373 . S
C545 C561 1.377 . S
C546 C544 1.389 . S
C546 C547 1.524 . S
C546 C560 1.377 . S
C547 C546 1.524 . S
C547 C548 1.397 . S
C547 C552 1.363 . S
C548 H525 0.950 . S
C548 C547 1.397 . S
C548 C549 1.334 . S
C549 H526 0.950 . S
C549 C548 1.334 . S
C549 C550 1.287 . S
C550 C549 1.287 . S
C550 C551 1.524 . S
C550 H569 0.913 . S
C551 H527 0.950 . S
C551 C550 1.524 . S
C551 C552 1.415 . S
C552 H528 0.950 . S
C552 C547 1.363 . S
C552 C551 1.415 . S
C553 H529 0.951 . S
C553 C554 1.366 . S
C553 C555 1.388 . S
C554 C553 1.366 . S
C554 C558 1.385 . S
C555 H530 0.951 . S
C555 C553 1.388 . S
C555 C556 1.366 . S
C556 C555 1.366 . S
C556 C557 1.414 . S
C556 C559 1.499 . S
C557 H531 0.950 . S
C557 C556 1.414 . S
C557 C558 1.374 . S
C558 H532 0.950 . S
C558 C554 1.385 . S
C558 C557 1.374 . S
C559 C556 1.499 . S
C559 C560 1.373 . S
C559 C561 1.389 . S
C560 H533 0.950 . S
C560 C546 1.377 . S
C560 C559 1.373 . S
C561 C545 1.377 . S
C561 C559 1.389 . S
C561 C562 1.524 . S
C562 C561 1.524 . S
C562 C563 1.397 . S
C562 C567 1.363 . S
C563 H534 0.950 . S
C563 C562 1.397 . S
C563 C564 1.334 . S
C564 H535 0.950 . S
C564 C563 1.334 . S
C564 C565 1.287 . S
C565 C564 1.287 . S
C565 C566 1.524 1_554 S
C565 H568 0.999 1_554 S
C566 H536 0.950 . S
C566 C565 1.524 1_556 S
C566 C567 1.415 1_556 S
C567 H537 0.950 . S
C567 C562 1.363 . S
C567 C566 1.415 1_554 S
H568 C565 0.999 1_556 S
H569 C550 0.913 . S
H570 C588 0.951 . S
H571 C590 0.951 . S
H572 C592 0.950 . S
H573 C593 0.950 . S
H574 C595 0.950 . S
H575 C598 0.906 1_455 S
H576 C599 0.950 1_455 S
H577 C601 0.950 . S
H578 C602 0.950 . S
H579 C603 0.951 . S
H580 C605 0.951 . S
H581 C607 0.950 . S
H582 C608 0.950 . S
H583 C610 0.950 . S
H584 C613 0.950 . S
H585 C614 0.950 . S
H586 C616 0.975 . S
H587 C617 0.986 . S
C588 H570 0.951 . S
C588 C589 1.366 . S
C588 C590 1.388 . S
C589 C588 1.366 . S
C589 C593 1.385 . S
C590 H571 0.951 . S
C590 C588 1.388 . S
C590 C591 1.366 . S
C591 C590 1.366 . S
C591 C592 1.414 . S
C591 C594 1.499 . S
C592 H572 0.950 . S
C592 C591 1.414 . S
C592 C593 1.374 . S
C593 H573 0.950 . S
C593 C589 1.385 . S
C593 C592 1.374 . S
C594 C591 1.499 . S
C594 C595 1.373 . S
C594 C596 1.389 1_455 S
C595 H574 0.950 . S
C595 C594 1.373 . S
C595 C611 1.377 1_455 S
C596 C594 1.389 1_655 S
C596 C597 1.524 . S
C596 C610 1.377 . S
C597 C596 1.524 . S
C597 C598 1.397 . S
C597 C602 1.363 . S
C598 H575 0.906 1_655 S
C598 C597 1.397 . S
C598 C599 1.334 . S
C599 H576 0.950 1_655 S
C599 C598 1.334 . S
C599 C600 1.287 . S
C600 C599 1.287 . S
C600 C601 1.524 . S
C600 H619 0.913 . S
C601 H577 0.950 . S
C601 C600 1.524 . S
C601 C602 1.415 . S
C602 H578 0.950 . S
C602 C597 1.363 . S
C602 C601 1.415 . S
C603 H579 0.951 . S
C603 C604 1.366 . S
C603 C605 1.388 . S
C604 C603 1.366 . S
C604 C608 1.385 . S
C605 H580 0.951 . S
C605 C603 1.388 . S
C605 C606 1.366 . S
C606 C605 1.366 . S
C606 C607 1.414 . S
C606 C609 1.499 . S
C607 H581 0.950 . S
C607 C606 1.414 . S
C607 C608 1.374 . S
C608 H582 0.950 . S
C608 C604 1.385 . S
C608 C607 1.374 . S
C609 C606 1.499 . S
C609 C610 1.373 . S
C609 C611 1.389 . S
C610 H583 0.950 . S
C610 C596 1.377 . S
C610 C609 1.373 . S
C611 C595 1.377 1_655 S
C611 C609 1.389 . S
C611 C612 1.524 . S
C612 C611 1.524 . S
C612 C613 1.397 . S
C612 C617 1.363 . S
C613 H584 0.950 . S
C613 C612 1.397 . S
C613 C614 1.334 . S
C614 H585 0.950 . S
C614 C613 1.334 . S
C614 C615 1.287 . S
C615 C614 1.287 . S
C615 C616 1.524 . S
C615 H618 0.999 . S
C616 H586 0.975 . S
C616 C615 1.524 . S
C616 C617 1.415 . S
C617 H587 0.986 . S
C617 C612 1.363 . S
C617 C616 1.415 . S
H618 C615 0.999 . S
H619 C600 0.913 . S
H620 C638 0.951 . S
H621 C640 0.951 . S
H622 C642 0.950 . S
H623 C643 0.950 . S
H624 C645 0.950 . S
H625 C648 0.950 . S
H626 C649 0.950 . S
H627 C651 0.950 . S
H628 C652 0.950 . S
H629 C653 0.951 . S
H630 C655 0.951 . S
H631 C657 0.950 . S
H632 C658 0.950 . S
H633 C660 0.950 . S
H634 C663 0.950 . S
H635 C664 0.950 . S
H636 C666 0.950 . S
H637 C667 0.950 . S
C638 H620 0.951 . S
C638 C639 1.366 . S
C638 C640 1.388 . S
C639 C638 1.366 . S
C639 C643 1.385 . S
C640 H621 0.951 . S
C640 C638 1.388 . S
C640 C641 1.366 . S
C641 C640 1.366 . S
C641 C642 1.414 . S
C641 C644 1.499 . S
C642 H622 0.950 . S
C642 C641 1.414 . S
C642 C643 1.374 . S
C643 H623 0.950 . S
C643 C639 1.385 . S
C643 C642 1.374 . S
C644 C641 1.499 . S
C644 C645 1.373 . S
C644 C646 1.389 . S
C645 H624 0.950 . S
C645 C644 1.373 . S
C645 C661 1.377 . S
C646 C644 1.389 . S
C646 C647 1.524 . S
C646 C660 1.377 . S
C647 C646 1.524 . S
C647 C648 1.397 . S
C647 C652 1.363 . S
C648 H625 0.950 . S
C648 C647 1.397 . S
C648 C649 1.334 . S
C649 H626 0.950 . S
C649 C648 1.334 . S
C649 C650 1.287 . S
C650 C649 1.287 . S
C650 C651 1.524 . S
C650 H669 0.913 . S
C651 H627 0.950 . S
C651 C650 1.524 . S
C651 C652 1.415 . S
C652 H628 0.950 . S
C652 C647 1.363 . S
C652 C651 1.415 . S
C653 H629 0.951 . S
C653 C654 1.366 . S
C653 C655 1.388 . S
C654 C653 1.366 . S
C654 C658 1.385 . S
C655 H630 0.951 . S
C655 C653 1.388 . S
C655 C656 1.366 . S
C656 C655 1.366 . S
C656 C657 1.414 . S
C656 C659 1.499 . S
C657 H631 0.950 . S
C657 C656 1.414 . S
C657 C658 1.374 . S
C658 H632 0.950 . S
C658 C654 1.385 . S
C658 C657 1.374 . S
C659 C656 1.499 . S
C659 C660 1.373 . S
C659 C661 1.389 . S
C660 H633 0.950 . S
C660 C646 1.377 . S
C660 C659 1.373 . S
C661 C645 1.377 . S
C661 C659 1.389 . S
C661 C662 1.524 . S
C662 C661 1.524 . S
C662 C663 1.397 . S
C662 C667 1.363 . S
C663 H634 0.950 . S
C663 C662 1.397 . S
C663 C664 1.334 . S
C664 H635 0.950 . S
C664 C663 1.334 . S
C664 C665 1.287 . S
C665 C664 1.287 . S
C665 C666 1.524 . S
C665 H668 0.999 . S
C666 H636 0.950 . S
C666 C665 1.524 . S
C666 C667 1.415 . S
C667 H637 0.950 . S
C667 C662 1.363 . S
C667 C666 1.415 . S
H668 C665 0.999 . S
H669 C650 0.913 . S
H670 C688 0.951 . S
H671 C690 0.951 . S
H672 C692 0.950 . S
H673 C693 0.950 . S
H674 C695 0.950 . S
H675 C698 0.950 . S
H676 C699 0.950 . S
H677 C701 0.950 . S
H678 C702 0.950 . S
H679 C703 0.951 . S
H680 C705 0.951 . S
H681 C707 0.950 . S
H682 C708 0.950 . S
H683 C710 0.950 . S
H684 C713 0.950 . S
H685 C714 0.950 . S
H686 C716 0.950 . S
H687 C717 0.950 . S
C688 H670 0.951 . S
C688 C689 1.366 . S
C688 C690 1.388 . S
C689 C688 1.366 . S
C689 C693 1.385 . S
C690 H671 0.951 . S
C690 C688 1.388 . S
C690 C691 1.366 . S
C691 C690 1.366 . S
C691 C692 1.414 . S
C691 C694 1.499 . S
C692 H672 0.950 . S
C692 C691 1.414 . S
C692 C693 1.374 . S
C693 H673 0.950 . S
C693 C689 1.385 . S
C693 C692 1.374 . S
C694 C691 1.499 . S
C694 C695 1.373 . S
C694 C696 1.389 . S
C695 H674 0.950 . S
C695 C694 1.373 . S
C695 C711 1.377 . S
C696 C694 1.389 . S
C696 C697 1.524 . S
C696 C710 1.377 . S
C697 C696 1.524 . S
C697 C698 1.397 . S
C697 C702 1.363 . S
C698 H675 0.950 . S
C698 C697 1.397 . S
C698 C699 1.334 . S
C699 H676 0.950 . S
C699 C698 1.334 . S
C699 C700 1.287 . S
C700 C699 1.287 . S
C700 C701 1.524 . S
C700 H719 0.913 . S
C701 H677 0.950 . S
C701 C700 1.524 . S
C701 C702 1.415 . S
C702 H678 0.950 . S
C702 C697 1.363 . S
C702 C701 1.415 . S
C703 H679 0.951 . S
C703 C704 1.366 . S
C703 C705 1.388 . S
C704 C703 1.366 . S
C704 C708 1.385 . S
C705 H680 0.951 . S
C705 C703 1.388 . S
C705 C706 1.366 . S
C706 C705 1.366 . S
C706 C707 1.414 . S
C706 C709 1.499 1_565 S
C707 H681 0.950 . S
C707 C706 1.414 . S
C707 C708 1.374 . S
C708 H682 0.950 . S
C708 C704 1.385 . S
C708 C707 1.374 . S
C709 C706 1.499 1_545 S
C709 C710 1.373 . S
C709 C711 1.389 . S
C710 H683 0.950 . S
C710 C696 1.377 . S
C710 C709 1.373 . S
C711 C695 1.377 . S
C711 C709 1.389 . S
C711 C712 1.524 . S
C712 C711 1.524 . S
C712 C713 1.397 . S
C712 C717 1.363 . S
C713 H684 0.950 . S
C713 C712 1.397 . S
C713 C714 1.334 . S
C714 H685 0.950 . S
C714 C713 1.334 . S
C714 C715 1.287 . S
C715 C714 1.287 . S
C715 C716 1.524 . S
C715 H718 0.999 . S
C716 H686 0.950 . S
C716 C715 1.524 . S
C716 C717 1.415 . S
C717 H687 0.950 . S
C717 C712 1.363 . S
C717 C716 1.415 . S
H718 C715 0.999 . S
H719 C700 0.913 . S
H720 C738 0.951 . S
H721 C740 0.951 . S
H722 C742 0.950 . S
H723 C743 0.950 . S
H724 C745 0.950 . S
H725 C748 0.950 . S
H726 C749 0.950 . S
H727 C751 0.950 . S
H728 C752 0.950 . S
H729 C753 0.951 . S
H730 C755 0.951 . S
H731 C757 0.950 . S
H732 C758 0.950 . S
H733 C760 0.950 . S
H734 C763 0.950 . S
H735 C764 0.950 . S
H736 C766 0.950 . S
H737 C767 0.950 . S
C738 H720 0.951 . S
C738 C739 1.366 . S
C738 C740 1.388 . S
C739 C738 1.366 . S
C739 C743 1.385 . S
C740 H721 0.951 . S
C740 C738 1.388 . S
C740 C741 1.366 . S
C741 C740 1.366 . S
C741 C742 1.414 . S
C741 C744 1.499 . S
C742 H722 0.950 . S
C742 C741 1.414 . S
C742 C743 1.374 . S
C743 H723 0.950 . S
C743 C739 1.385 . S
C743 C742 1.374 . S
C744 C741 1.499 . S
C744 C745 1.373 . S
C744 C746 1.389 1_554 S
C745 H724 0.950 . S
C745 C744 1.373 . S
C745 C761 1.377 . S
C746 C744 1.389 1_556 S
C746 C747 1.524 . S
C746 C760 1.377 . S
C747 C746 1.524 . S
C747 C748 1.397 . S
C747 C752 1.363 . S
C748 H725 0.950 . S
C748 C747 1.397 . S
C748 C749 1.334 . S
C749 H726 0.950 . S
C749 C748 1.334 . S
C749 C750 1.287 . S
C750 C749 1.287 . S
C750 C751 1.524 . S
C750 H769 0.913 . S
C751 H727 0.950 . S
C751 C750 1.524 . S
C751 C752 1.415 . S
C752 H728 0.950 . S
C752 C747 1.363 . S
C752 C751 1.415 . S
C753 H729 0.951 . S
C753 C754 1.366 . S
C753 C755 1.388 . S
C754 C753 1.366 . S
C754 C758 1.385 1_556 S
C755 H730 0.951 . S
C755 C753 1.388 . S
C755 C756 1.366 1_556 S
C756 C755 1.366 1_554 S
C756 C757 1.414 . S
C756 C759 1.499 . S
C757 H731 0.950 . S
C757 C756 1.414 . S
C757 C758 1.374 . S
C758 H732 0.950 . S
C758 C754 1.385 1_554 S
C758 C757 1.374 . S
C759 C756 1.499 . S
C759 C760 1.373 1_554 S
C759 C761 1.389 . S
C760 H733 0.950 . S
C760 C746 1.377 . S
C760 C759 1.373 1_556 S
C761 C745 1.377 . S
C761 C759 1.389 . S
C761 C762 1.524 . S
C762 C761 1.524 . S
C762 C763 1.397 . S
C762 C767 1.363 . S
C763 H734 0.950 . S
C763 C762 1.397 . S
C763 C764 1.334 . S
C764 H735 0.950 . S
C764 C763 1.334 . S
C764 C765 1.287 . S
C765 C764 1.287 . S
C765 C766 1.524 . S
C765 H768 0.999 . S
C766 H736 0.950 . S
C766 C765 1.524 . S
C766 C767 1.415 . S
C767 H737 0.950 . S
C767 C762 1.363 . S
C767 C766 1.415 . S
H768 C765 0.999 . S
H769 C750 0.913 . S
H770 C788 0.951 . S
H771 C790 0.951 . S
H772 C792 0.950 1_554 S
H773 C793 0.950 . S
H774 C795 0.950 . S
H775 C798 0.950 . S
H776 C799 0.950 . S
H777 C801 0.950 . S
H778 C802 0.950 . S
H779 C803 0.951 . S
H780 C805 0.951 . S
H781 C807 0.950 . S
H782 C808 0.950 . S
H783 C810 1.000 . S
H784 C813 0.950 . S
H785 C814 0.950 . S
H786 C816 0.950 . S
H787 C817 0.950 1_565 S
C788 H770 0.951 . S
C788 C789 1.366 . S
C788 C790 1.388 . S
C789 C788 1.366 . S
C789 C793 1.385 . S
C790 H771 0.951 . S
C790 C788 1.388 . S
C790 C791 1.366 . S
C791 C790 1.366 . S
C791 C792 1.414 . S
C791 C794 1.499 1_556 S
C792 H772 0.950 1_556 S
C792 C791 1.414 . S
C792 C793 1.374 . S
C793 H773 0.950 . S
C793 C789 1.385 . S
C793 C792 1.374 . S
C794 C791 1.499 1_554 S
C794 C795 1.373 . S
C794 C796 1.389 1_554 S
C795 H774 0.950 . S
C795 C794 1.373 . S
C795 C811 1.418 . S
C796 C794 1.389 1_556 S
C796 C797 1.524 . S
C796 C810 1.319 1_565 S
C797 C796 1.524 . S
C797 C798 1.397 . S
C797 C802 1.363 . S
C798 H775 0.950 . S
C798 C797 1.397 . S
C798 C799 1.334 . S
C799 H776 0.950 . S
C799 C798 1.334 . S
C799 C800 1.287 . S
C800 C799 1.287 . S
C800 C801 1.524 . S
C800 H819 0.913 . S
C801 H777 0.950 . S
C801 C800 1.524 . S
C801 C802 1.415 . S
C802 H778 0.950 . S
C802 C797 1.363 . S
C802 C801 1.415 . S
C803 H779 0.951 . S
C803 C804 1.366 . S
C803 C805 1.388 . S
C804 C803 1.366 . S
C804 C808 1.385 . S
C805 H780 0.951 . S
C805 C803 1.388 . S
C805 C806 1.366 . S
C806 C805 1.366 . S
C806 C807 1.414 . S
C806 C809 1.499 . S
C807 H781 0.950 . S
C807 C806 1.414 . S
C807 C808 1.374 . S
C808 H782 0.950 . S
C808 C804 1.385 . S
C808 C807 1.374 . S
C809 C806 1.499 . S
C809 C810 1.384 1_554 S
C809 C811 1.354 1_545 S
C810 H783 1.000 . S
C810 C796 1.319 1_545 S
C810 C809 1.384 1_556 S
C811 C795 1.418 . S
C811 C809 1.354 1_565 S
C811 C812 1.521 1_565 S
C812 C811 1.521 1_545 S
C812 C813 1.397 . S
C812 C817 1.363 . S
C813 H784 0.950 . S
C813 C812 1.397 . S
C813 C814 1.334 . S
C814 H785 0.950 . S
C814 C813 1.334 . S
C814 C815 1.287 . S
C815 C814 1.287 . S
C815 C816 1.524 . S
C815 H818 0.999 . S
C816 H786 0.950 . S
C816 C815 1.524 . S
C816 C817 1.415 . S
C817 H787 0.950 1_545 S
C817 C812 1.363 . S
C817 C816 1.415 . S
H818 C815 0.999 . S
H819 C800 0.913 . S
H820 C838 0.951 . S
H821 C840 0.951 . S
H822 C842 0.950 . S
H823 C843 0.946 1_556 S
H824 C845 0.950 . S
H825 C848 0.953 1_655 S
H826 C849 0.950 . S
H827 C851 0.950 . S
H828 C852 0.950 . S
H829 C853 0.951 . S
H830 C855 0.951 . S
H831 C857 0.950 . S
H832 C858 0.950 . S
H833 C860 0.950 . S
H834 C863 0.950 . S
H835 C864 0.950 . S
H836 C866 0.950 . S
H837 C867 0.950 . S
C838 H820 0.951 . S
C838 C839 1.366 . S
C838 C840 1.388 . S
C839 C838 1.366 . S
C839 C843 1.389 . S
C840 H821 0.951 . S
C840 C838 1.388 . S
C840 C841 1.366 . S
C841 C840 1.366 . S
C841 C842 1.414 1_554 S
C841 C844 1.499 1_655 S
C842 H822 0.950 . S
C842 C841 1.414 1_556 S
C842 C843 1.373 1_556 S
C843 H823 0.946 1_554 S
C843 C839 1.389 . S
C843 C842 1.373 1_554 S
C844 C841 1.499 1_455 S
C844 C845 1.373 1_554 S
C844 C846 1.389 . S
C845 H824 0.950 . S
C845 C844 1.373 1_556 S
C845 C861 1.377 . S
C846 C844 1.389 . S
C846 C847 1.524 . S
C846 C860 1.377 . S
C847 C846 1.524 . S
C847 C848 1.397 . S
C847 C852 1.363 . S
C848 H825 0.953 1_455 S
C848 C847 1.397 . S
C848 C849 1.334 1_455 S
C849 H826 0.950 . S
C849 C848 1.334 1_655 S
C849 C850 1.287 1_655 S
C850 C849 1.287 1_455 S
C850 C851 1.524 . S
C850 H869 0.913 1_455 S
C851 H827 0.950 . S
C851 C850 1.524 . S
C851 C852 1.415 . S
C852 H828 0.950 . S
C852 C847 1.363 . S
C852 C851 1.415 . S
C853 H829 0.951 . S
C853 C854 1.366 . S
C853 C855 1.388 . S
C854 C853 1.366 . S
C854 C858 1.385 1_556 S
C855 H830 0.951 . S
C855 C853 1.388 . S
C855 C856 1.366 . S
C856 C855 1.366 . S
C856 C857 1.414 1_556 S
C856 C859 1.499 1_556 S
C857 H831 0.950 . S
C857 C856 1.414 1_554 S
C857 C858 1.374 . S
C858 H832 0.950 . S
C858 C854 1.385 1_554 S
C858 C857 1.374 . S
C859 C856 1.499 1_554 S
C859 C860 1.373 . S
C859 C861 1.389 1_554 S
C860 H833 0.950 . S
C860 C846 1.377 . S
C860 C859 1.373 . S
C861 C845 1.377 . S
C861 C859 1.389 1_556 S
C861 C862 1.524 . S
C862 C861 1.524 . S
C862 C863 1.397 . S
C862 C867 1.363 . S
C863 H834 0.950 . S
C863 C862 1.397 . S
C863 C864 1.334 . S
C864 H835 0.950 . S
C864 C863 1.334 . S
C864 C865 1.287 . S
C865 C864 1.287 . S
C865 C866 1.524 . S
C865 H868 0.999 . S
C866 H836 0.950 . S
C866 C865 1.524 . S
C866 C867 1.415 . S
C867 H837 0.950 . S
C867 C862 1.363 . S
C867 C866 1.415 . S
H868 C865 0.999 . S
H869 C850 0.913 1_655 S
H870 C888 0.951 . S
H871 C890 0.951 . S
H872 C892 0.950 . S
H873 C893 0.950 . S
H874 C895 0.950 . S
H875 C898 0.950 . S
H876 C899 0.950 . S
H877 C901 0.950 . S
H878 C902 0.950 . S
H879 C903 0.951 . S
H880 C905 0.951 . S
H881 C907 0.950 . S
H882 C908 0.950 . S
H883 C910 0.950 . S
H884 C913 0.950 . S
H885 C914 0.950 . S
H886 C916 0.950 . S
H887 C917 0.950 . S
C888 H870 0.951 . S
C888 C889 1.366 . S
C888 C890 1.388 . S
C889 C888 1.366 . S
C889 C893 1.385 . S
C890 H871 0.951 . S
C890 C888 1.388 . S
C890 C891 1.366 . S
C891 C890 1.366 . S
C891 C892 1.414 . S
C891 C894 1.499 . S
C892 H872 0.950 . S
C892 C891 1.414 . S
C892 C893 1.374 . S
C893 H873 0.950 . S
C893 C889 1.385 . S
C893 C892 1.374 . S
C894 C891 1.499 . S
C894 C895 1.373 . S
C894 C896 1.389 . S
C895 H874 0.950 . S
C895 C894 1.373 . S
C895 C911 1.377 . S
C896 C894 1.389 . S
C896 C897 1.524 . S
C896 C910 1.377 . S
C897 C896 1.524 . S
C897 C898 1.397 . S
C897 C902 1.363 . S
C898 H875 0.950 . S
C898 C897 1.397 . S
C898 C899 1.334 . S
C899 H876 0.950 . S
C899 C898 1.334 . S
C899 C900 1.287 . S
C900 C899 1.287 . S
C900 C901 1.524 . S
C900 H919 0.913 . S
C901 H877 0.950 . S
C901 C900 1.524 . S
C901 C902 1.415 . S
C902 H878 0.950 . S
C902 C897 1.363 . S
C902 C901 1.415 . S
C903 H879 0.951 . S
C903 C904 1.366 . S
C903 C905 1.388 . S
C904 C903 1.366 . S
C904 C908 1.385 . S
C905 H880 0.951 . S
C905 C903 1.388 . S
C905 C906 1.366 . S
C906 C905 1.366 . S
C906 C907 1.414 . S
C906 C909 1.499 . S
C907 H881 0.950 . S
C907 C906 1.414 . S
C907 C908 1.374 . S
C908 H882 0.950 . S
C908 C904 1.385 . S
C908 C907 1.374 . S
C909 C906 1.499 . S
C909 C910 1.373 . S
C909 C911 1.389 . S
C910 H883 0.950 . S
C910 C896 1.377 . S
C910 C909 1.373 . S
C911 C895 1.377 . S
C911 C909 1.389 . S
C911 C912 1.524 . S
C912 C911 1.524 . S
C912 C913 1.397 . S
C912 C917 1.363 . S
C913 H884 0.950 . S
C913 C912 1.397 . S
C913 C914 1.334 . S
C914 H885 0.950 . S
C914 C913 1.334 . S
C914 C915 1.287 . S
C915 C914 1.287 . S
C915 C916 1.524 . S
C915 H918 0.999 . S
C916 H886 0.950 . S
C916 C915 1.524 . S
C916 C917 1.415 . S
C917 H887 0.950 . S
C917 C912 1.363 . S
C917 C916 1.415 . S
H918 C915 0.999 . S
H919 C900 0.913 . S
H920 C938 0.951 . S
H921 C940 0.951 . S
H922 C942 0.950 . S
H923 C943 0.950 . S
H924 C945 0.950 . S
H925 C948 0.950 . S
H926 C949 0.950 . S
H927 C951 0.950 . S
H928 C952 0.950 . S
H929 C953 0.951 . S
H930 C955 0.951 . S
H931 C957 0.950 . S
H932 C958 0.950 . S
H933 C960 0.950 . S
H934 C963 0.950 . S
H935 C964 0.950 . S
H936 C966 0.950 . S
H937 C967 0.950 . S
C938 H920 0.951 . S
C938 C939 1.366 . S
C938 C940 1.388 . S
C939 C938 1.366 . S
C939 C943 1.385 . S
C940 H921 0.951 . S
C940 C938 1.388 . S
C940 C941 1.366 . S
C941 C940 1.366 . S
C941 C942 1.414 . S
C941 C944 1.499 . S
C942 H922 0.950 . S
C942 C941 1.414 . S
C942 C943 1.374 . S
C943 H923 0.950 . S
C943 C939 1.385 . S
C943 C942 1.374 . S
C944 C941 1.499 . S
C944 C945 1.373 . S
C944 C946 1.389 . S
C945 H924 0.950 . S
C945 C944 1.373 . S
C945 C961 1.377 . S
C946 C944 1.389 . S
C946 C947 1.524 . S
C946 C960 1.377 . S
C947 C946 1.524 . S
C947 C948 1.397 . S
C947 C952 1.363 . S
C948 H925 0.950 . S
C948 C947 1.397 . S
C948 C949 1.334 . S
C949 H926 0.950 . S
C949 C948 1.334 . S
C949 C950 1.287 . S
C950 C949 1.287 . S
C950 C951 1.524 . S
C950 H969 0.913 . S
C951 H927 0.950 . S
C951 C950 1.524 . S
C951 C952 1.415 . S
C952 H928 0.950 . S
C952 C947 1.363 . S
C952 C951 1.415 . S
C953 H929 0.951 . S
C953 C954 1.366 . S
C953 C955 1.388 . S
C954 C953 1.366 . S
C954 C958 1.385 . S
C955 H930 0.951 . S
C955 C953 1.388 . S
C955 C956 1.366 . S
C956 C955 1.366 . S
C956 C957 1.414 . S
C956 C959 1.499 . S
C957 H931 0.950 . S
C957 C956 1.414 . S
C957 C958 1.374 . S
C958 H932 0.950 . S
C958 C954 1.385 . S
C958 C957 1.374 . S
C959 C956 1.499 . S
C959 C960 1.373 . S
C959 C961 1.389 . S
C960 H933 0.950 . S
C960 C946 1.377 . S
C960 C959 1.373 . S
C961 C945 1.377 . S
C961 C959 1.389 . S
C961 C962 1.524 . S
C962 C961 1.524 . S
C962 C963 1.397 . S
C962 C967 1.363 . S
C963 H934 0.950 . S
C963 C962 1.397 . S
C963 C964 1.334 . S
C964 H935 0.950 . S
C964 C963 1.334 . S
C964 C965 1.287 . S
C965 C964 1.287 . S
C965 C966 1.524 . S
C965 H968 0.999 . S
C966 H936 0.950 . S
C966 C965 1.524 . S
C966 C967 1.415 . S
C967 H937 0.950 . S
C967 C962 1.363 . S
C967 C966 1.415 . S
H968 C965 0.999 . S
H969 C950 0.913 . S
H970 C988 0.951 . S
H971 C990 0.951 . S
H972 C992 0.950 . S
H973 C993 0.950 . S
H974 C995 0.950 . S
H975 C998 0.950 . S
H976 C999 0.950 . S
H977 C1001 0.950 . S
H978 C1002 0.950 . S
H979 C1003 0.951 . S
H980 C1005 0.951 . S
H981 C1007 0.950 . S
H982 C1008 0.950 . S
H983 C1010 0.950 . S
H984 C1013 0.950 . S
H985 C1014 0.950 . S
H986 C1016 0.950 . S
H987 C1017 0.950 . S
C988 H970 0.951 . S
C988 C989 1.366 . S
C988 C990 1.388 . S
C989 C988 1.366 . S
C989 C993 1.385 . S
C990 H971 0.951 . S
C990 C988 1.388 . S
C990 C991 1.366 . S
C991 C990 1.366 . S
C991 C992 1.414 . S
C991 C994 1.499 . S
C992 H972 0.950 . S
C992 C991 1.414 . S
C992 C993 1.374 . S
C993 H973 0.950 . S
C993 C989 1.385 . S
C993 C992 1.374 . S
C994 C991 1.499 . S
C994 C995 1.373 . S
C994 C996 1.389 . S
C995 H974 0.950 . S
C995 C994 1.373 . S
C995 C1011 1.377 . S
C996 C994 1.389 . S
C996 C997 1.524 . S
C996 C1010 1.377 . S
C997 C996 1.524 . S
C997 C998 1.397 . S
C997 C1002 1.363 . S
C998 H975 0.950 . S
C998 C997 1.397 . S
C998 C999 1.334 . S
C999 H976 0.950 . S
C999 C998 1.334 . S
C999 C1000 1.287 . S
C1000 C999 1.287 . S
C1000 C1001 1.524 . S
C1000 H1019 0.913 . S
C1001 H977 0.950 . S
C1001 C1000 1.524 . S
C1001 C1002 1.415 . S
C1002 H978 0.950 . S
C1002 C997 1.363 . S
C1002 C1001 1.415 . S
C1003 H979 0.951 . S
C1003 C1004 1.366 . S
C1003 C1005 1.388 . S
C1004 C1003 1.366 . S
C1004 C1008 1.385 . S
C1005 H980 0.951 . S
C1005 C1003 1.388 . S
C1005 C1006 1.366 . S
C1006 C1005 1.366 . S
C1006 C1007 1.414 . S
C1006 C1009 1.499 . S
C1007 H981 0.950 . S
C1007 C1006 1.414 . S
C1007 C1008 1.374 . S
C1008 H982 0.950 . S
C1008 C1004 1.385 . S
C1008 C1007 1.374 . S
C1009 C1006 1.499 . S
C1009 C1010 1.373 . S
C1009 C1011 1.389 . S
C1010 H983 0.950 . S
C1010 C996 1.377 . S
C1010 C1009 1.373 . S
C1011 C995 1.377 . S
C1011 C1009 1.389 . S
C1011 C1012 1.524 . S
C1012 C1011 1.524 . S
C1012 C1013 1.397 . S
C1012 C1017 1.363 . S
C1013 H984 0.950 . S
C1013 C1012 1.397 . S
C1013 C1014 1.334 . S
C1014 H985 0.950 . S
C1014 C1013 1.334 . S
C1014 C1015 1.287 . S
C1015 C1014 1.287 . S
C1015 C1016 1.524 . S
C1015 H1018 0.999 . S
C1016 H986 0.950 . S
C1016 C1015 1.524 . S
C1016 C1017 1.415 . S
C1017 H987 0.950 . S
C1017 C1012 1.363 . S
C1017 C1016 1.415 . S
H1018 C1015 0.999 . S
H1019 C1000 0.913 . S
H1020 C1038 0.951 . S
H1021 C1040 0.951 . S
H1022 C1042 0.950 . S
H1023 C1043 0.950 . S
H1024 C1045 0.950 . S
H1025 C1048 0.950 . S
H1026 C1049 0.950 . S
H1027 C1051 0.950 . S
H1028 C1052 0.950 . S
H1029 C1053 0.951 . S
H1030 C1055 0.951 . S
H1031 C1057 0.950 . S
H1032 C1058 0.950 . S
H1033 C1060 0.950 . S
H1034 C1063 0.950 . S
H1035 C1064 0.950 . S
H1036 C1066 0.950 . S
H1037 C1067 0.950 . S
C1038 H1020 0.951 . S
C1038 C1039 1.366 . S
C1038 C1040 1.388 . S
C1039 C1038 1.366 . S
C1039 C1043 1.385 . S
C1040 H1021 0.951 . S
C1040 C1038 1.388 . S
C1040 C1041 1.366 . S
C1041 C1040 1.366 . S
C1041 C1042 1.414 . S
C1041 C1044 1.499 . S
C1042 H1022 0.950 . S
C1042 C1041 1.414 . S
C1042 C1043 1.374 . S
C1043 H1023 0.950 . S
C1043 C1039 1.385 . S
C1043 C1042 1.374 . S
C1044 C1041 1.499 . S
C1044 C1045 1.373 . S
C1044 C1046 1.389 . S
C1045 H1024 0.950 . S
C1045 C1044 1.373 . S
C1045 C1061 1.377 . S
C1046 C1044 1.389 . S
C1046 C1047 1.524 . S
C1046 C1060 1.377 . S
C1047 C1046 1.524 . S
C1047 C1048 1.397 . S
C1047 C1052 1.363 . S
C1048 H1025 0.950 . S
C1048 C1047 1.397 . S
C1048 C1049 1.334 . S
C1049 H1026 0.950 . S
C1049 C1048 1.334 . S
C1049 C1050 1.287 . S
C1050 C1049 1.287 . S
C1050 C1051 1.524 . S
C1050 H1069 0.913 . S
C1051 H1027 0.950 . S
C1051 C1050 1.524 . S
C1051 C1052 1.415 . S
C1052 H1028 0.950 . S
C1052 C1047 1.363 . S
C1052 C1051 1.415 . S
C1053 H1029 0.951 . S
C1053 C1054 1.366 . S
C1053 C1055 1.388 . S
C1054 C1053 1.366 . S
C1054 C1058 1.385 . S
C1055 H1030 0.951 . S
C1055 C1053 1.388 . S
C1055 C1056 1.366 . S
C1056 C1055 1.366 . S
C1056 C1057 1.414 . S
C1056 C1059 1.499 . S
C1057 H1031 0.950 . S
C1057 C1056 1.414 . S
C1057 C1058 1.374 . S
C1058 H1032 0.950 . S
C1058 C1054 1.385 . S
C1058 C1057 1.374 . S
C1059 C1056 1.499 . S
C1059 C1060 1.373 . S
C1059 C1061 1.389 . S
C1060 H1033 0.950 . S
C1060 C1046 1.377 . S
C1060 C1059 1.373 . S
C1061 C1045 1.377 . S
C1061 C1059 1.389 . S
C1061 C1062 1.524 . S
C1062 C1061 1.524 . S
C1062 C1063 1.397 . S
C1062 C1067 1.363 . S
C1063 H1034 0.950 . S
C1063 C1062 1.397 . S
C1063 C1064 1.334 . S
C1064 H1035 0.950 . S
C1064 C1063 1.334 . S
C1064 C1065 1.287 . S
C1065 C1064 1.287 . S
C1065 C1066 1.524 . S
C1065 H1068 0.999 . S
C1066 H1036 0.950 . S
C1066 C1065 1.524 . S
C1066 C1067 1.415 . S
C1067 H1037 0.950 . S
C1067 C1062 1.363 . S
C1067 C1066 1.415 . S
H1068 C1065 0.999 . S
H1069 C1050 0.913 . S
H1070 C1088 0.951 . S
H1071 C1090 0.951 . S
H1072 C1092 0.950 . S
H1073 C1093 0.950 . S
H1074 C1095 0.950 . S
H1075 C1098 0.950 . S
H1076 C1099 0.950 . S
H1077 C1101 0.950 . S
H1078 C1102 0.950 . S
H1079 C1103 0.951 . S
H1080 C1105 0.951 . S
H1081 C1107 0.950 . S
H1082 C1108 0.950 . S
H1083 C1110 0.950 . S
H1084 C1113 0.950 . S
H1085 C1114 0.950 . S
H1086 C1116 0.950 . S
H1087 C1117 0.950 . S
C1088 H1070 0.951 . S
C1088 C1089 1.366 . S
C1088 C1090 1.388 . S
C1089 C1088 1.366 . S
C1089 C1093 1.385 . S
C1090 H1071 0.951 . S
C1090 C1088 1.388 . S
C1090 C1091 1.366 . S
C1091 C1090 1.366 . S
C1091 C1092 1.414 . S
C1091 C1094 1.499 . S
C1092 H1072 0.950 . S
C1092 C1091 1.414 . S
C1092 C1093 1.374 . S
C1093 H1073 0.950 . S
C1093 C1089 1.385 . S
C1093 C1092 1.374 . S
C1094 C1091 1.499 . S
C1094 C1095 1.373 . S
C1094 C1096 1.389 . S
C1095 H1074 0.950 . S
C1095 C1094 1.373 . S
C1095 C1111 1.377 . S
C1096 C1094 1.389 . S
C1096 C1097 1.524 . S
C1096 C1110 1.377 . S
C1097 C1096 1.524 . S
C1097 C1098 1.397 . S
C1097 C1102 1.363 . S
C1098 H1075 0.950 . S
C1098 C1097 1.397 . S
C1098 C1099 1.334 . S
C1099 H1076 0.950 . S
C1099 C1098 1.334 . S
C1099 C1100 1.287 . S
C1100 C1099 1.287 . S
C1100 C1101 1.524 . S
C1100 H1119 0.913 . S
C1101 H1077 0.950 . S
C1101 C1100 1.524 . S
C1101 C1102 1.415 . S
C1102 H1078 0.950 . S
C1102 C1097 1.363 . S
C1102 C1101 1.415 . S
C1103 H1079 0.951 . S
C1103 C1104 1.366 . S
C1103 C1105 1.388 . S
C1104 C1103 1.366 . S
C1104 C1108 1.385 . S
C1105 H1080 0.951 . S
C1105 C1103 1.388 . S
C1105 C1106 1.366 . S
C1106 C1105 1.366 . S
C1106 C1107 1.414 . S
C1106 C1109 1.499 . S
C1107 H1081 0.950 . S
C1107 C1106 1.414 . S
C1107 C1108 1.374 . S
C1108 H1082 0.950 . S
C1108 C1104 1.385 . S
C1108 C1107 1.374 . S
C1109 C1106 1.499 . S
C1109 C1110 1.373 . S
C1109 C1111 1.389 . S
C1110 H1083 0.950 . S
C1110 C1096 1.377 . S
C1110 C1109 1.373 . S
C1111 C1095 1.377 . S
C1111 C1109 1.389 . S
C1111 C1112 1.524 . S
C1112 C1111 1.524 . S
C1112 C1113 1.397 . S
C1112 C1117 1.363 . S
C1113 H1084 0.950 . S
C1113 C1112 1.397 . S
C1113 C1114 1.334 . S
C1114 H1085 0.950 . S
C1114 C1113 1.334 . S
C1114 C1115 1.287 . S
C1115 C1114 1.287 . S
C1115 C1116 1.524 . S
C1115 H1118 0.999 . S
C1116 H1086 0.950 . S
C1116 C1115 1.524 . S
C1116 C1117 1.415 . S
C1117 H1087 0.950 . S
C1117 C1112 1.363 . S
C1117 C1116 1.415 . S
H1118 C1115 0.999 . S
H1119 C1100 0.913 . S
H1120 C1138 0.951 . S
H1121 C1140 0.951 . S
H1122 C1142 0.950 . S
H1123 C1143 0.950 . S
H1124 C1145 0.950 . S
H1125 C1148 0.950 . S
H1126 C1149 0.950 . S
H1127 C1151 0.950 . S
H1128 C1152 0.950 . S
H1129 C1153 0.951 . S
H1130 C1155 0.951 . S
H1131 C1157 0.950 . S
H1132 C1158 0.950 . S
H1133 C1160 0.950 . S
H1134 C1163 0.950 . S
H1135 C1164 0.950 . S
H1136 C1166 0.950 . S
H1137 C1167 0.950 . S
C1138 H1120 0.951 . S
C1138 C1139 1.366 . S
C1138 C1140 1.388 . S
C1139 C1138 1.366 . S
C1139 C1143 1.385 . S
C1140 H1121 0.951 . S
C1140 C1138 1.388 . S
C1140 C1141 1.366 . S
C1141 C1140 1.366 . S
C1141 C1142 1.414 . S
C1141 C1144 1.499 . S
C1142 H1122 0.950 . S
C1142 C1141 1.414 . S
C1142 C1143 1.374 . S
C1143 H1123 0.950 . S
C1143 C1139 1.385 . S
C1143 C1142 1.374 . S
C1144 C1141 1.499 . S
C1144 C1145 1.373 . S
C1144 C1146 1.389 . S
C1145 H1124 0.950 . S
C1145 C1144 1.373 . S
C1145 C1161 1.377 . S
C1146 C1144 1.389 . S
C1146 C1147 1.524 . S
C1146 C1160 1.377 . S
C1147 C1146 1.524 . S
C1147 C1148 1.397 . S
C1147 C1152 1.363 . S
C1148 H1125 0.950 . S
C1148 C1147 1.397 . S
C1148 C1149 1.334 . S
C1149 H1126 0.950 . S
C1149 C1148 1.334 . S
C1149 C1150 1.287 . S
C1150 C1149 1.287 . S
C1150 C1151 1.524 . S
C1150 H1169 0.913 . S
C1151 H1127 0.950 . S
C1151 C1150 1.524 . S
C1151 C1152 1.415 . S
C1152 H1128 0.950 . S
C1152 C1147 1.363 . S
C1152 C1151 1.415 . S
C1153 H1129 0.951 . S
C1153 C1154 1.366 . S
C1153 C1155 1.388 . S
C1154 C1153 1.366 . S
C1154 C1158 1.385 . S
C1155 H1130 0.951 . S
C1155 C1153 1.388 . S
C1155 C1156 1.366 . S
C1156 C1155 1.366 . S
C1156 C1157 1.414 . S
C1156 C1159 1.499 . S
C1157 H1131 0.950 . S
C1157 C1156 1.414 . S
C1157 C1158 1.374 . S
C1158 H1132 0.950 . S
C1158 C1154 1.385 . S
C1158 C1157 1.374 . S
C1159 C1156 1.499 . S
C1159 C1160 1.373 . S
C1159 C1161 1.389 . S
C1160 H1133 0.950 . S
C1160 C1146 1.377 . S
C1160 C1159 1.373 . S
C1161 C1145 1.377 . S
C1161 C1159 1.389 . S
C1161 C1162 1.524 . S
C1162 C1161 1.524 . S
C1162 C1163 1.397 . S
C1162 C1167 1.363 . S
C1163 H1134 0.950 . S
C1163 C1162 1.397 . S
C1163 C1164 1.334 . S
C1164 H1135 0.950 . S
C1164 C1163 1.334 . S
C1164 C1165 1.287 . S
C1165 C1164 1.287 . S
C1165 C1166 1.524 . S
C1165 H1168 0.999 . S
C1166 H1136 0.950 . S
C1166 C1165 1.524 . S
C1166 C1167 1.415 . S
C1167 H1137 0.950 . S
C1167 C1162 1.363 . S
C1167 C1166 1.415 . S
H1168 C1165 0.999 . S
H1169 C1150 0.913 . S
H1170 C1188 0.951 . S
H1171 C1190 0.951 . S
H1172 C1192 0.950 1_655 S
H1173 C1193 0.953 1_655 S
H1174 C1195 0.950 . S
H1175 C1198 0.950 . S
H1176 C1199 0.950 . S
H1177 C1201 0.950 . S
H1178 C1202 0.954 . S
H1179 C1203 0.951 . S
H1180 C1205 0.951 . S
H1181 C1207 0.950 . S
H1182 C1208 0.950 . S
H1183 C1210 0.950 1_655 S
H1184 C1213 0.950 . S
H1185 C1214 0.950 . S
H1186 C1216 0.950 . S
H1187 C1217 0.950 . S
C1188 H1170 0.951 . S
C1188 C1189 1.366 . S
C1188 C1190 1.388 . S
C1189 C1188 1.366 . S
C1189 C1193 1.381 . S
C1190 H1171 0.951 . S
C1190 C1188 1.388 . S
C1190 C1191 1.366 . S
C1191 C1190 1.366 . S
C1191 C1192 1.414 . S
C1191 C1194 1.499 . S
C1192 H1172 0.950 1_455 S
C1192 C1191 1.414 . S
C1192 C1193 1.374 . S
C1193 H1173 0.953 1_455 S
C1193 C1189 1.381 . S
C1193 C1192 1.374 . S
C1194 C1191 1.499 . S
C1194 C1195 1.373 . S
C1194 C1196 1.369 1_455 S
C1195 H1174 0.950 . S
C1195 C1194 1.373 . S
C1195 C1211 1.377 . S
C1196 C1194 1.369 1_655 S
C1196 C1197 1.550 . S
C1196 C1210 1.374 1_655 S
C1197 C1196 1.550 . S
C1197 C1198 1.397 . S
C1197 C1202 1.363 . S
C1198 H1175 0.950 . S
C1198 C1197 1.397 . S
C1198 C1199 1.334 . S
C1199 H1176 0.950 . S
C1199 C1198 1.334 . S
C1199 C1200 1.287 . S
C1200 C1199 1.287 . S
C1200 C1201 1.524 . S
C1200 H1219 0.913 . S
C1201 H1177 0.950 . S
C1201 C1200 1.524 . S
C1201 C1202 1.415 . S
C1202 H1178 0.954 . S
C1202 C1197 1.363 . S
C1202 C1201 1.415 . S
C1203 H1179 0.951 . S
C1203 C1204 1.366 . S
C1203 C1205 1.388 . S
C1204 C1203 1.366 . S
C1204 C1208 1.385 . S
C1205 H1180 0.951 . S
C1205 C1203 1.388 . S
C1205 C1206 1.366 . S
C1206 C1205 1.366 . S
C1206 C1207 1.414 . S
C1206 C1209 1.499 . S
C1207 H1181 0.950 . S
C1207 C1206 1.414 . S
C1207 C1208 1.374 . S
C1208 H1182 0.950 . S
C1208 C1204 1.385 . S
C1208 C1207 1.374 . S
C1209 C1206 1.499 . S
C1209 C1210 1.373 . S
C1209 C1211 1.389 . S
C1210 H1183 0.950 1_455 S
C1210 C1196 1.374 1_455 S
C1210 C1209 1.373 . S
C1211 C1195 1.377 . S
C1211 C1209 1.389 . S
C1211 C1212 1.524 . S
C1212 C1211 1.524 . S
C1212 C1213 1.397 . S
C1212 C1217 1.363 . S
C1213 H1184 0.950 . S
C1213 C1212 1.397 . S
C1213 C1214 1.334 . S
C1214 H1185 0.950 . S
C1214 C1213 1.334 . S
C1214 C1215 1.287 . S
C1215 C1214 1.287 . S
C1215 C1216 1.524 . S
C1215 H1218 0.999 . S
C1216 H1186 0.950 . S
C1216 C1215 1.524 . S
C1216 C1217 1.415 . S
C1217 H1187 0.950 . S
C1217 C1212 1.363 . S
C1217 C1216 1.415 . S
H1218 C1215 0.999 . S
H1219 C1200 0.913 . S
H1220 C1238 0.951 . S
H1221 C1240 0.951 . S
H1222 C1242 0.950 . S
H1223 C1243 0.950 . S
H1224 C1245 0.950 . S
H1225 C1248 0.950 . S
H1226 C1249 0.950 . S
H1227 C1251 0.950 . S
H1228 C1252 0.950 . S
H1229 C1253 0.951 . S
H1230 C1255 0.951 . S
H1231 C1257 0.950 . S
H1232 C1258 0.950 . S
H1233 C1260 0.950 . S
H1234 C1263 0.950 . S
H1235 C1264 0.950 . S
H1236 C1266 0.950 . S
H1237 C1267 0.950 . S
C1238 H1220 0.951 . S
C1238 C1239 1.366 . S
C1238 C1240 1.388 . S
C1239 C1238 1.366 . S
C1239 C1243 1.385 . S
C1240 H1221 0.951 . S
C1240 C1238 1.388 . S
C1240 C1241 1.366 . S
C1241 C1240 1.366 . S
C1241 C1242 1.414 . S
C1241 C1244 1.499 . S
C1242 H1222 0.950 . S
C1242 C1241 1.414 . S
C1242 C1243 1.374 . S
C1243 H1223 0.950 . S
C1243 C1239 1.385 . S
C1243 C1242 1.374 . S
C1244 C1241 1.499 . S
C1244 C1245 1.373 . S
C1244 C1246 1.389 . S
C1245 H1224 0.950 . S
C1245 C1244 1.373 . S
C1245 C1261 1.377 . S
C1246 C1244 1.389 . S
C1246 C1247 1.524 . S
C1246 C1260 1.377 . S
C1247 C1246 1.524 . S
C1247 C1248 1.397 . S
C1247 C1252 1.363 . S
C1248 H1225 0.950 . S
C1248 C1247 1.397 . S
C1248 C1249 1.334 . S
C1249 H1226 0.950 . S
C1249 C1248 1.334 . S
C1249 C1250 1.287 . S
C1250 C1249 1.287 . S
C1250 C1251 1.524 . S
C1250 H1269 0.913 . S
C1251 H1227 0.950 . S
C1251 C1250 1.524 . S
C1251 C1252 1.415 . S
C1252 H1228 0.950 . S
C1252 C1247 1.363 . S
C1252 C1251 1.415 . S
C1253 H1229 0.951 . S
C1253 C1254 1.366 . S
C1253 C1255 1.388 . S
C1254 C1253 1.366 . S
C1254 C1258 1.385 . S
C1255 H1230 0.951 . S
C1255 C1253 1.388 . S
C1255 C1256 1.366 . S
C1256 C1255 1.366 . S
C1256 C1257 1.414 . S
C1256 C1259 1.499 . S
C1257 H1231 0.950 . S
C1257 C1256 1.414 . S
C1257 C1258 1.374 . S
C1258 H1232 0.950 . S
C1258 C1254 1.385 . S
C1258 C1257 1.374 . S
C1259 C1256 1.499 . S
C1259 C1260 1.373 . S
C1259 C1261 1.389 . S
C1260 H1233 0.950 . S
C1260 C1246 1.377 . S
C1260 C1259 1.373 . S
C1261 C1245 1.377 . S
C1261 C1259 1.389 . S
C1261 C1262 1.524 . S
C1262 C1261 1.524 . S
C1262 C1263 1.397 . S
C1262 C1267 1.363 . S
C1263 H1234 0.950 . S
C1263 C1262 1.397 . S
C1263 C1264 1.334 . S
C1264 H1235 0.950 . S
C1264 C1263 1.334 . S
C1264 C1265 1.287 . S
C1265 C1264 1.287 . S
C1265 C1266 1.524 . S
C1265 H1268 0.999 . S
C1266 H1236 0.950 . S
C1266 C1265 1.524 . S
C1266 C1267 1.415 . S
C1267 H1237 0.950 . S
C1267 C1262 1.363 . S
C1267 C1266 1.415 . S
H1268 C1265 0.999 . S
H1269 C1250 0.913 . S
H1270 C1288 0.979 . S
H1271 C1290 0.951 . S
H1272 C1292 0.950 . S
H1273 C1293 0.950 . S
H1274 C1295 0.950 . S
H1275 C1298 0.950 . S
H1276 C1299 0.950 . S
H1277 C1301 0.950 . S
H1278 C1302 0.950 . S
H1279 C1303 0.951 . S
H1280 C1305 0.951 . S
H1281 C1307 0.950 . S
H1282 C1308 0.950 . S
H1283 C1310 0.950 1_565 S
H1284 C1313 0.950 1_565 S
H1285 C1314 0.950 . S
H1286 C1316 0.950 . S
H1287 C1317 0.950 . S
C1288 H1270 0.979 . S
C1288 C1289 1.336 1_565 S
C1288 C1290 1.391 . S
C1289 C1288 1.336 1_545 S
C1289 C1293 1.385 . S
C1290 H1271 0.951 . S
C1290 C1288 1.391 . S
C1290 C1291 1.366 1_565 S
C1291 C1290 1.366 1_545 S
C1291 C1292 1.414 . S
C1291 C1294 1.499 . S
C1292 H1272 0.950 . S
C1292 C1291 1.414 . S
C1292 C1293 1.374 . S
C1293 H1273 0.950 . S
C1293 C1289 1.385 . S
C1293 C1292 1.374 . S
C1294 C1291 1.499 . S
C1294 C1295 1.373 . S
C1294 C1296 1.389 . S
C1295 H1274 0.950 . S
C1295 C1294 1.373 . S
C1295 C1311 1.377 . S
C1296 C1294 1.389 . S
C1296 C1297 1.524 1_545 S
C1296 C1310 1.377 . S
C1297 C1296 1.524 1_565 S
C1297 C1298 1.397 1_565 S
C1297 C1302 1.363 . S
C1298 H1275 0.950 . S
C1298 C1297 1.397 1_545 S
C1298 C1299 1.334 . S
C1299 H1276 0.950 . S
C1299 C1298 1.334 . S
C1299 C1300 1.287 1_545 S
C1300 C1299 1.287 1_565 S
C1300 C1301 1.524 . S
C1300 H1319 0.913 . S
C1301 H1277 0.950 . S
C1301 C1300 1.524 . S
C1301 C1302 1.415 . S
C1302 H1278 0.950 . S
C1302 C1297 1.363 . S
C1302 C1301 1.415 . S
C1303 H1279 0.951 . S
C1303 C1304 1.366 . S
C1303 C1305 1.388 . S
C1304 C1303 1.366 . S
C1304 C1308 1.385 1_545 S
C1305 H1280 0.951 . S
C1305 C1303 1.388 . S
C1305 C1306 1.366 . S
C1306 C1305 1.366 . S
C1306 C1307 1.414 1_545 S
C1306 C1309 1.499 . S
C1307 H1281 0.950 . S
C1307 C1306 1.414 1_565 S
C1307 C1308 1.374 . S
C1308 H1282 0.950 . S
C1308 C1304 1.385 1_565 S
C1308 C1307 1.374 . S
C1309 C1306 1.499 . S
C1309 C1310 1.373 . S
C1309 C1311 1.389 . S
C1310 H1283 0.950 1_545 S
C1310 C1296 1.377 . S
C1310 C1309 1.373 . S
C1311 C1295 1.377 . S
C1311 C1309 1.389 . S
C1311 C1312 1.524 . S
C1312 C1311 1.524 . S
C1312 C1313 1.397 . S
C1312 C1317 1.363 . S
C1313 H1284 0.950 1_545 S
C1313 C1312 1.397 . S
C1313 C1314 1.334 . S
C1314 H1285 0.950 . S
C1314 C1313 1.334 . S
C1314 C1315 1.287 . S
C1315 C1314 1.287 . S
C1315 C1316 1.524 . S
C1315 H1318 0.999 . S
C1316 H1286 0.950 . S
C1316 C1315 1.524 . S
C1316 C1317 1.415 . S
C1317 H1287 0.950 . S
C1317 C1312 1.363 . S
C1317 C1316 1.415 . S
H1318 C1315 0.999 . S
H1319 C1300 0.913 . S
H1320 C1338 0.951 . S
H1321 C1340 0.951 . S
H1322 C1342 0.950 . S
H1323 C1343 0.950 . S
H1324 C1345 0.950 . S
H1325 C1348 0.950 . S
H1326 C1349 0.950 . S
H1327 C1351 0.950 . S
H1328 C1352 0.950 . S
H1329 C1353 0.951 . S
H1330 C1355 0.951 . S
H1331 C1357 0.950 . S
H1332 C1358 0.950 . S
H1333 C1360 0.950 . S
H1334 C1363 0.950 . S
H1335 C1364 0.950 1_554 S
H1336 C1366 0.950 . S
H1337 C1367 0.950 . S
C1338 H1320 0.951 . S
C1338 C1339 1.366 . S
C1338 C1340 1.388 . S
C1339 C1338 1.366 . S
C1339 C1343 1.385 . S
C1340 H1321 0.951 . S
C1340 C1338 1.388 . S
C1340 C1341 1.366 . S
C1341 C1340 1.366 . S
C1341 C1342 1.414 . S
C1341 C1344 1.499 . S
C1342 H1322 0.950 . S
C1342 C1341 1.414 . S
C1342 C1343 1.374 . S
C1343 H1323 0.950 . S
C1343 C1339 1.385 . S
C1343 C1342 1.374 . S
C1344 C1341 1.499 . S
C1344 C1345 1.373 . S
C1344 C1346 1.389 . S
C1345 H1324 0.950 . S
C1345 C1344 1.373 . S
C1345 C1361 1.377 . S
C1346 C1344 1.389 . S
C1346 C1347 1.524 . S
C1346 C1360 1.377 . S
C1347 C1346 1.524 . S
C1347 C1348 1.397 . S
C1347 C1352 1.363 . S
C1348 H1325 0.950 . S
C1348 C1347 1.397 . S
C1348 C1349 1.334 . S
C1349 H1326 0.950 . S
C1349 C1348 1.334 . S
C1349 C1350 1.287 . S
C1350 C1349 1.287 . S
C1350 C1351 1.524 . S
C1350 H1369 0.913 . S
C1351 H1327 0.950 . S
C1351 C1350 1.524 . S
C1351 C1352 1.415 . S
C1352 H1328 0.950 . S
C1352 C1347 1.363 . S
C1352 C1351 1.415 . S
C1353 H1329 0.951 . S
C1353 C1354 1.366 . S
C1353 C1355 1.388 . S
C1354 C1353 1.366 . S
C1354 C1358 1.385 . S
C1355 H1330 0.951 . S
C1355 C1353 1.388 . S
C1355 C1356 1.361 1_554 S
C1356 C1355 1.361 1_556 S
C1356 C1357 1.410 1_556 S
C1356 C1359 1.507 . S
C1357 H1331 0.950 . S
C1357 C1356 1.410 1_554 S
C1357 C1358 1.374 . S
C1358 H1332 0.950 . S
C1358 C1354 1.385 . S
C1358 C1357 1.374 . S
C1359 C1356 1.507 . S
C1359 C1360 1.373 . S
C1359 C1361 1.389 . S
C1360 H1333 0.950 . S
C1360 C1346 1.377 . S
C1360 C1359 1.373 . S
C1361 C1345 1.377 . S
C1361 C1359 1.389 . S
C1361 C1362 1.524 . S
C1362 C1361 1.524 . S
C1362 C1363 1.397 . S
C1362 C1367 1.363 . S
C1363 H1334 0.950 . S
C1363 C1362 1.397 . S
C1363 C1364 1.334 . S
C1364 H1335 0.950 1_556 S
C1364 C1363 1.334 . S
C1364 C1365 1.287 . S
C1365 C1364 1.287 . S
C1365 C1366 1.524 . S
C1365 H1368 0.999 . S
C1366 H1336 0.950 . S
C1366 C1365 1.524 . S
C1366 C1367 1.415 . S
C1367 H1337 0.950 . S
C1367 C1362 1.363 . S
C1367 C1366 1.415 . S
H1368 C1365 0.999 . S
H1369 C1350 0.913 . S
H1370 C1388 0.951 . S
H1371 C1390 0.951 . S
H1372 C1392 0.950 . S
H1373 C1393 0.950 . S
H1374 C1395 0.950 . S
H1375 C1398 0.950 . S
H1376 C1399 0.950 . S
H1377 C1401 0.950 . S
H1378 C1402 0.950 . S
H1379 C1403 0.951 . S
H1380 C1405 0.951 . S
H1381 C1407 0.950 . S
H1382 C1408 0.950 . S
H1383 C1410 0.950 . S
H1384 C1413 0.950 . S
H1385 C1414 0.950 1_554 S
H1386 C1416 0.950 . S
H1387 C1417 0.950 . S
C1388 H1370 0.951 . S
C1388 C1389 1.366 . S
C1388 C1390 1.388 . S
C1389 C1388 1.366 . S
C1389 C1393 1.385 . S
C1390 H1371 0.951 . S
C1390 C1388 1.388 . S
C1390 C1391 1.366 . S
C1391 C1390 1.366 . S
C1391 C1392 1.414 . S
C1391 C1394 1.499 . S
C1392 H1372 0.950 . S
C1392 C1391 1.414 . S
C1392 C1393 1.374 . S
C1393 H1373 0.950 . S
C1393 C1389 1.385 . S
C1393 C1392 1.374 . S
C1394 C1391 1.499 . S
C1394 C1395 1.373 . S
C1394 C1396 1.389 . S
C1395 H1374 0.950 . S
C1395 C1394 1.373 . S
C1395 C1411 1.377 . S
C1396 C1394 1.389 . S
C1396 C1397 1.524 . S
C1396 C1410 1.377 . S
C1397 C1396 1.524 . S
C1397 C1398 1.397 . S
C1397 C1402 1.363 . S
C1398 H1375 0.950 . S
C1398 C1397 1.397 . S
C1398 C1399 1.334 . S
C1399 H1376 0.950 . S
C1399 C1398 1.334 . S
C1399 C1400 1.287 . S
C1400 C1399 1.287 . S
C1400 C1401 1.524 . S
C1400 H1419 0.913 . S
C1401 H1377 0.950 . S
C1401 C1400 1.524 . S
C1401 C1402 1.415 . S
C1402 H1378 0.950 . S
C1402 C1397 1.363 . S
C1402 C1401 1.415 . S
C1403 H1379 0.951 . S
C1403 C1404 1.366 . S
C1403 C1405 1.388 . S
C1404 C1403 1.366 . S
C1404 C1408 1.385 . S
C1405 H1380 0.951 . S
C1405 C1403 1.388 . S
C1405 C1406 1.363 1_554 S
C1406 C1405 1.363 1_556 S
C1406 C1407 1.411 1_556 S
C1406 C1409 1.504 . S
C1407 H1381 0.950 . S
C1407 C1406 1.411 1_554 S
C1407 C1408 1.374 . S
C1408 H1382 0.950 . S
C1408 C1404 1.385 . S
C1408 C1407 1.374 . S
C1409 C1406 1.504 . S
C1409 C1410 1.373 . S
C1409 C1411 1.389 . S
C1410 H1383 0.950 . S
C1410 C1396 1.377 . S
C1410 C1409 1.373 . S
C1411 C1395 1.377 . S
C1411 C1409 1.389 . S
C1411 C1412 1.524 . S
C1412 C1411 1.524 . S
C1412 C1413 1.397 . S
C1412 C1417 1.363 . S
C1413 H1384 0.950 . S
C1413 C1412 1.397 . S
C1413 C1414 1.334 . S
C1414 H1385 0.950 1_556 S
C1414 C1413 1.334 . S
C1414 C1415 1.287 . S
C1415 C1414 1.287 . S
C1415 C1416 1.524 . S
C1415 H1418 0.999 . S
C1416 H1386 0.950 . S
C1416 C1415 1.524 . S
C1416 C1417 1.415 . S
C1417 H1387 0.950 . S
C1417 C1412 1.363 . S
C1417 C1416 1.415 . S
H1418 C1415 0.999 . S
H1419 C1400 0.913 . S
H1420 C1438 0.951 . S
H1421 C1440 0.951 . S
H1422 C1442 0.950 . S
H1423 C1443 0.950 . S
H1424 C1445 0.950 . S
H1425 C1448 0.950 . S
H1426 C1449 0.950 . S
H1427 C1451 0.950 . S
H1428 C1452 0.950 . S
H1429 C1453 0.951 . S
H1430 C1455 0.951 . S
H1431 C1457 0.950 . S
H1432 C1458 0.950 . S
H1433 C1460 0.950 . S
H1434 C1463 0.950 . S
H1435 C1464 0.950 1_554 S
H1436 C1466 0.950 . S
H1437 C1467 0.950 . S
C1438 H1420 0.951 . S
C1438 C1439 1.366 . S
C1438 C1440 1.388 . S
C1439 C1438 1.366 . S
C1439 C1443 1.385 . S
C1440 H1421 0.951 . S
C1440 C1438 1.388 . S
C1440 C1441 1.366 . S
C1441 C1440 1.366 . S
C1441 C1442 1.414 . S
C1441 C1444 1.499 . S
C1442 H1422 0.950 . S
C1442 C1441 1.414 . S
C1442 C1443 1.374 . S
C1443 H1423 0.950 . S
C1443 C1439 1.385 . S
C1443 C1442 1.374 . S
C1444 C1441 1.499 . S
C1444 C1445 1.373 . S
C1444 C1446 1.389 . S
C1445 H1424 0.950 . S
C1445 C1444 1.373 . S
C1445 C1461 1.377 . S
C1446 C1444 1.389 . S
C1446 C1447 1.524 . S
C1446 C1460 1.377 . S
C1447 C1446 1.524 . S
C1447 C1448 1.397 . S
C1447 C1452 1.363 . S
C1448 H1425 0.950 . S
C1448 C1447 1.397 . S
C1448 C1449 1.334 . S
C1449 H1426 0.950 . S
C1449 C1448 1.334 . S
C1449 C1450 1.287 . S
C1450 C1449 1.287 . S
C1450 C1451 1.524 . S
C1450 H1469 0.913 . S
C1451 H1427 0.950 . S
C1451 C1450 1.524 . S
C1451 C1452 1.415 . S
C1452 H1428 0.950 . S
C1452 C1447 1.363 . S
C1452 C1451 1.415 . S
C1453 H1429 0.951 . S
C1453 C1454 1.366 . S
C1453 C1455 1.388 . S
C1454 C1453 1.366 . S
C1454 C1458 1.385 . S
C1455 H1430 0.951 . S
C1455 C1453 1.388 . S
C1455 C1456 1.362 1_554 S
C1456 C1455 1.362 1_556 S
C1456 C1457 1.410 1_556 S
C1456 C1459 1.506 . S
C1457 H1431 0.950 . S
C1457 C1456 1.410 1_554 S
C1457 C1458 1.374 . S
C1458 H1432 0.950 . S
C1458 C1454 1.385 . S
C1458 C1457 1.374 . S
C1459 C1456 1.506 . S
C1459 C1460 1.373 . S
C1459 C1461 1.389 . S
C1460 H1433 0.950 . S
C1460 C1446 1.377 . S
C1460 C1459 1.373 . S
C1461 C1445 1.377 . S
C1461 C1459 1.389 . S
C1461 C1462 1.524 . S
C1462 C1461 1.524 . S
C1462 C1463 1.397 . S
C1462 C1467 1.363 . S
C1463 H1434 0.950 . S
C1463 C1462 1.397 . S
C1463 C1464 1.334 . S
C1464 H1435 0.950 1_556 S
C1464 C1463 1.334 . S
C1464 C1465 1.287 . S
C1465 C1464 1.287 . S
C1465 C1466 1.524 . S
C1465 H1468 0.999 . S
C1466 H1436 0.950 . S
C1466 C1465 1.524 . S
C1466 C1467 1.415 . S
C1467 H1437 0.950 . S
C1467 C1462 1.363 . S
C1467 C1466 1.415 . S
H1468 C1465 0.999 . S
H1469 C1450 0.913 . S
H1470 C1488 0.951 . S
H1471 C1490 0.951 . S
H1472 C1492 0.950 . S
H1473 C1493 0.950 . S
H1474 C1495 0.950 . S
H1475 C1498 0.950 . S
H1476 C1499 0.950 . S
H1477 C1501 0.950 . S
H1478 C1502 0.950 . S
H1479 C1503 0.951 . S
H1480 C1505 0.951 1_554 S
H1481 C1507 0.950 1_554 S
H1482 C1508 0.950 . S
H1483 C1510 0.950 . S
H1484 C1513 0.950 . S
H1485 C1514 0.950 . S
H1486 C1516 0.950 . S
H1487 C1517 0.950 . S
C1488 H1470 0.951 . S
C1488 C1489 1.366 . S
C1488 C1490 1.388 . S
C1489 C1488 1.366 . S
C1489 C1493 1.385 . S
C1490 H1471 0.951 . S
C1490 C1488 1.388 . S
C1490 C1491 1.366 . S
C1491 C1490 1.366 . S
C1491 C1492 1.414 . S
C1491 C1494 1.499 . S
C1492 H1472 0.950 . S
C1492 C1491 1.414 . S
C1492 C1493 1.374 . S
C1493 H1473 0.950 . S
C1493 C1489 1.385 . S
C1493 C1492 1.374 . S
C1494 C1491 1.499 . S
C1494 C1495 1.373 . S
C1494 C1496 1.389 . S
C1495 H1474 0.950 . S
C1495 C1494 1.373 . S
C1495 C1511 1.377 . S
C1496 C1494 1.389 . S
C1496 C1497 1.524 . S
C1496 C1510 1.377 . S
C1497 C1496 1.524 . S
C1497 C1498 1.397 . S
C1497 C1502 1.363 . S
C1498 H1475 0.950 . S
C1498 C1497 1.397 . S
C1498 C1499 1.334 . S
C1499 H1476 0.950 . S
C1499 C1498 1.334 . S
C1499 C1500 1.287 . S
C1500 C1499 1.287 . S
C1500 C1501 1.524 . S
C1500 H1519 0.913 . S
C1501 H1477 0.950 . S
C1501 C1500 1.524 . S
C1501 C1502 1.415 . S
C1502 H1478 0.950 . S
C1502 C1497 1.363 . S
C1502 C1501 1.415 . S
C1503 H1479 0.951 . S
C1503 C1504 1.366 . S
C1503 C1505 1.388 . S
C1504 C1503 1.366 . S
C1504 C1508 1.385 . S
C1505 H1480 0.951 1_556 S
C1505 C1503 1.388 . S
C1505 C1506 1.366 1_556 S
C1506 C1505 1.366 1_554 S
C1506 C1507 1.414 1_554 S
C1506 C1509 1.499 . S
C1507 H1481 0.950 1_556 S
C1507 C1506 1.414 1_556 S
C1507 C1508 1.374 . S
C1508 H1482 0.950 . S
C1508 C1504 1.385 . S
C1508 C1507 1.374 . S
C1509 C1506 1.499 . S
C1509 C1510 1.373 . S
C1509 C1511 1.389 . S
C1510 H1483 0.950 . S
C1510 C1496 1.377 . S
C1510 C1509 1.373 . S
C1511 C1495 1.377 . S
C1511 C1509 1.389 . S
C1511 C1512 1.524 . S
C1512 C1511 1.524 . S
C1512 C1513 1.397 . S
C1512 C1517 1.363 . S
C1513 H1484 0.950 . S
C1513 C1512 1.397 . S
C1513 C1514 1.334 . S
C1514 H1485 0.950 . S
C1514 C1513 1.334 . S
C1514 C1515 1.287 . S
C1515 C1514 1.287 . S
C1515 C1516 1.524 . S
C1515 H1518 0.999 . S
C1516 H1486 0.950 . S
C1516 C1515 1.524 . S
C1516 C1517 1.415 . S
C1517 H1487 0.950 . S
C1517 C1512 1.363 . S
C1517 C1516 1.415 . S
H1518 C1515 0.999 . S
H1519 C1500 0.913 . S
H1520 C1538 0.951 . S
H1521 C1540 0.950 . S
H1522 C1542 0.950 1_554 S
H1523 C1543 0.950 . S
H1524 C1545 0.950 . S
H1525 C1548 0.950 . S
H1526 C1549 0.950 1_556 S
H1527 C1551 0.950 . S
H1528 C1552 0.950 . S
H1529 C1553 0.951 . S
H1530 C1555 0.951 . S
H1531 C1557 0.950 . S
H1532 C1558 0.950 . S
H1533 C1560 0.950 . S
H1534 C1563 0.950 . S
H1535 C1564 0.950 . S
H1536 C1566 0.950 . S
H1537 C1567 0.950 . S
C1538 H1520 0.951 . S
C1538 C1539 1.366 . S
C1538 C1540 1.388 . S
C1539 C1538 1.366 . S
C1539 C1543 1.385 . S
C1540 H1521 0.950 . S
C1540 C1538 1.388 . S
C1540 C1541 1.366 1_556 S
C1541 C1540 1.366 1_554 S
C1541 C1542 1.414 1_554 S
C1541 C1544 1.499 . S
C1542 H1522 0.950 1_556 S
C1542 C1541 1.414 1_556 S
C1542 C1543 1.374 . S
C1543 H1523 0.950 . S
C1543 C1539 1.385 . S
C1543 C1542 1.374 . S
C1544 C1541 1.499 . S
C1544 C1545 1.373 . S
C1544 C1546 1.389 . S
C1545 H1524 0.950 . S
C1545 C1544 1.373 . S
C1545 C1561 1.377 . S
C1546 C1544 1.389 . S
C1546 C1547 1.524 . S
C1546 C1560 1.377 . S
C1547 C1546 1.524 . S
C1547 C1548 1.397 . S
C1547 C1552 1.363 . S
C1548 H1525 0.950 . S
C1548 C1547 1.397 . S
C1548 C1549 1.334 . S
C1549 H1526 0.950 1_554 S
C1549 C1548 1.334 . S
C1549 C1550 1.287 . S
C1550 C1549 1.287 . S
C1550 C1551 1.524 . S
C1550 H1569 0.913 . S
C1551 H1527 0.950 . S
C1551 C1550 1.524 . S
C1551 C1552 1.415 . S
C1552 H1528 0.950 . S
C1552 C1547 1.363 . S
C1552 C1551 1.415 . S
C1553 H1529 0.951 . S
C1553 C1554 1.366 . S
C1553 C1555 1.388 . S
C1554 C1553 1.366 . S
C1554 C1558 1.385 . S
C1555 H1530 0.951 . S
C1555 C1553 1.388 . S
C1555 C1556 1.366 . S
C1556 C1555 1.366 . S
C1556 C1557 1.414 . S
C1556 C1559 1.499 . S
C1557 H1531 0.950 . S
C1557 C1556 1.414 . S
C1557 C1558 1.374 . S
C1558 H1532 0.950 . S
C1558 C1554 1.385 . S
C1558 C1557 1.374 . S
C1559 C1556 1.499 . S
C1559 C1560 1.373 . S
C1559 C1561 1.389 . S
C1560 H1533 0.950 . S
C1560 C1546 1.377 . S
C1560 C1559 1.373 . S
C1561 C1545 1.377 . S
C1561 C1559 1.389 . S
C1561 C1562 1.524 . S
C1562 C1561 1.524 . S
C1562 C1563 1.397 . S
C1562 C1567 1.363 . S
C1563 H1534 0.950 . S
C1563 C1562 1.397 . S
C1563 C1564 1.334 . S
C1564 H1535 0.950 . S
C1564 C1563 1.334 . S
C1564 C1565 1.287 . S
C1565 C1564 1.287 . S
C1565 C1566 1.524 . S
C1565 H1568 0.999 . S
C1566 H1536 0.950 . S
C1566 C1565 1.524 . S
C1566 C1567 1.415 . S
C1567 H1537 0.950 . S
C1567 C1562 1.363 . S
C1567 C1566 1.415 . S
H1568 C1565 0.999 . S
H1569 C1550 0.913 . S
H1570 C1588 0.951 . S
H1571 C1590 0.951 . S
H1572 C1592 0.950 . S
H1573 C1593 0.950 . S
H1574 C1595 0.950 . S
H1575 C1598 0.950 . S
H1576 C1599 0.950 . S
H1577 C1601 0.950 . S
H1578 C1602 0.950 . S
H1579 C1603 0.951 . S
H1580 C1605 0.944 1_554 S
H1581 C1607 0.950 1_554 S
H1582 C1608 0.950 . S
H1583 C1610 0.950 . S
H1584 C1613 0.950 . S
H1585 C1614 0.950 . S
H1586 C1616 0.950 . S
H1587 C1617 0.950 . S
C1588 H1570 0.951 . S
C1588 C1589 1.366 . S
C1588 C1590 1.388 . S
C1589 C1588 1.366 . S
C1589 C1593 1.385 . S
C1590 H1571 0.951 . S
C1590 C1588 1.388 . S
C1590 C1591 1.366 . S
C1591 C1590 1.366 . S
C1591 C1592 1.414 . S
C1591 C1594 1.499 . S
C1592 H1572 0.950 . S
C1592 C1591 1.414 . S
C1592 C1593 1.374 . S
C1593 H1573 0.950 . S
C1593 C1589 1.385 . S
C1593 C1592 1.374 . S
C1594 C1591 1.499 . S
C1594 C1595 1.373 . S
C1594 C1596 1.389 . S
C1595 H1574 0.950 . S
C1595 C1594 1.373 . S
C1595 C1611 1.377 . S
C1596 C1594 1.389 . S
C1596 C1597 1.524 . S
C1596 C1610 1.377 . S
C1597 C1596 1.524 . S
C1597 C1598 1.397 . S
C1597 C1602 1.363 . S
C1598 H1575 0.950 . S
C1598 C1597 1.397 . S
C1598 C1599 1.334 . S
C1599 H1576 0.950 . S
C1599 C1598 1.334 . S
C1599 C1600 1.287 . S
C1600 C1599 1.287 . S
C1600 C1601 1.524 . S
C1600 H1619 0.913 . S
C1601 H1577 0.950 . S
C1601 C1600 1.524 . S
C1601 C1602 1.415 . S
C1602 H1578 0.950 . S
C1602 C1597 1.363 . S
C1602 C1601 1.415 . S
C1603 H1579 0.951 . S
C1603 C1604 1.366 . S
C1603 C1605 1.388 . S
C1604 C1603 1.366 . S
C1604 C1608 1.385 . S
C1605 H1580 0.944 1_556 S
C1605 C1603 1.388 . S
C1605 C1606 1.366 1_556 S
C1606 C1605 1.366 1_554 S
C1606 C1607 1.414 1_554 S
C1606 C1609 1.499 . S
C1607 H1581 0.950 1_556 S
C1607 C1606 1.414 1_556 S
C1607 C1608 1.374 . S
C1608 H1582 0.950 . S
C1608 C1604 1.385 . S
C1608 C1607 1.374 . S
C1609 C1606 1.499 . S
C1609 C1610 1.373 . S
C1609 C1611 1.389 . S
C1610 H1583 0.950 . S
C1610 C1596 1.377 . S
C1610 C1609 1.373 . S
C1611 C1595 1.377 . S
C1611 C1609 1.389 . S
C1611 C1612 1.524 . S
C1612 C1611 1.524 . S
C1612 C1613 1.397 . S
C1612 C1617 1.363 . S
C1613 H1584 0.950 . S
C1613 C1612 1.397 . S
C1613 C1614 1.334 . S
C1614 H1585 0.950 . S
C1614 C1613 1.334 . S
C1614 C1615 1.287 . S
C1615 C1614 1.287 . S
C1615 C1616 1.524 . S
C1615 H1618 0.999 . S
C1616 H1586 0.950 . S
C1616 C1615 1.524 . S
C1616 C1617 1.415 . S
C1617 H1587 0.950 . S
C1617 C1612 1.363 . S
C1617 C1616 1.415 . S
H1618 C1615 0.999 . S
H1619 C1600 0.913 . S
C289 N14 1.299 . S
C304 C237 1.377 . S
C339 N44 1.298 . S
C354 C267 1.377 . S
C389 N74 1.298 . S
C404 C207 1.377 . S
C439 N134 1.298 . S
C454 C87 1.377 . S
C489 N164 1.299 . S
C504 C27 1.378 . S
C539 C57 1.377 . S
C554 N104 1.299 . S
C589 N224 1.298 . S
C604 C177 1.377 . S
C639 N254 1.299 . S
C654 C117 1.377 . S
C689 C147 1.377 . S
C704 N194 1.298 . S
C739 N66 1.078 . S
C754 C16 1.084 . S
C789 C46 1.083 . S
C804 N6 1.078 . S
C839 N36 1.078 . S
C854 C76 1.083 . S
C889 C106 1.084 . S
C904 N156 1.078 . S
C939 N96 1.078 . S
C954 C136 1.083 . S
C989 N126 1.077 . S
C1004 C166 1.084 . S
C1039 N246 1.078 . S
C1054 C196 1.084 . S
C1089 C226 1.083 . S
C1104 N186 1.078 . S
C1139 C256 1.084 . S
C1154 N216 1.078 . S
C1189 C10 0.960 . S
C1204 C1 0.960 . S
C1239 C40 0.960 . S
C1254 C31 0.960 . S
C1289 C70 0.960 . S
C1304 C61 0.960 . S
C1339 C91 0.960 . S
C1354 C100 0.960 . S
C1389 C121 0.960 . S
C1404 C130 0.960 . S
C1439 C151 0.960 . S
C1454 C160 0.960 . S
C1489 C190 0.960 . S
C1504 C181 0.960 . S
C1539 C211 0.960 . S
C1554 C220 0.960 . S
C1589 C250 0.960 . S
C1604 C241 0.960 . S
