# Generated by pormake.
# Topology umx, (4)-cn, num edge types: 1
# Building blocks:
#     Node 0, Type 0, BuildingBlock: ICAMEG_clean_sbu_1, # of connection points: 4
#     Node 1, Type 0, BuildingBlock: ICAMEG_clean_sbu_1, # of connection points: 4
#     Node 2, Type 0, BuildingBlock: ICAMEG_clean_sbu_1, # of connection points: 4
#     Node 3, Type 0, BuildingBlock: ICAMEG_clean_sbu_1, # of connection points: 4
#     Node 4, Type 0, BuildingBlock: ICAMEG_clean_sbu_1, # of connection points: 4
#     Node 5, Type 0, BuildingBlock: ICAMEG_clean_sbu_1, # of connection points: 4
#     Node 6, Type 0, BuildingBlock: ICAMEG_clean_sbu_1, # of connection points: 4
#     Node 7, Type 0, BuildingBlock: ICAMEG_clean_sbu_1, # of connection points: 4
#     Edge 8, Type (0, 0), BuildingBlock: KIFKEQ_clean_linker_1, # of connection points: 2
#     Edge 9, Type (0, 0), BuildingBlock: KIFKEQ_clean_linker_1, # of connection points: 2
#     Edge 10, Type (0, 0), BuildingBlock: KIFKEQ_clean_linker_1, # of connection points: 2
#     Edge 11, Type (0, 0), BuildingBlock: KIFKEQ_clean_linker_1, # of connection points: 2
#     Edge 12, Type (0, 0), BuildingBlock: KIFKEQ_clean_linker_1, # of connection points: 2
#     Edge 13, Type (0, 0), BuildingBlock: KIFKEQ_clean_linker_1, # of connection points: 2
#     Edge 14, Type (0, 0), BuildingBlock: KIFKEQ_clean_linker_1, # of connection points: 2
#     Edge 15, Type (0, 0), BuildingBlock: KIFKEQ_clean_linker_1, # of connection points: 2
#     Edge 16, Type (0, 0), BuildingBlock: KIFKEQ_clean_linker_1, # of connection points: 2
#     Edge 17, Type (0, 0), BuildingBlock: KIFKEQ_clean_linker_1, # of connection points: 2
#     Edge 18, Type (0, 0), BuildingBlock: KIFKEQ_clean_linker_1, # of connection points: 2
#     Edge 19, Type (0, 0), BuildingBlock: KIFKEQ_clean_linker_1, # of connection points: 2
#     Edge 20, Type (0, 0), BuildingBlock: KIFKEQ_clean_linker_1, # of connection points: 2
#     Edge 21, Type (0, 0), BuildingBlock: KIFKEQ_clean_linker_1, # of connection points: 2
#     Edge 22, Type (0, 0), BuildingBlock: KIFKEQ_clean_linker_1, # of connection points: 2
#     Edge 23, Type (0, 0), BuildingBlock: KIFKEQ_clean_linker_1, # of connection points: 2
# Relax obj value: 0.033
# Max RMSD: 0.111
# Mean RMSD: 0.111
data_MOF--net-umx--node1-ICAMEG_clean_sbu_1--edge1-KIFKEQ_clean_linker_1
_symmetry_space_group_name_H-M    P1
_symmetry_Int_Tables_number       1
_symmetry_cell_setting            triclinic
loop_
_symmetry_equiv_pos_as_xyz
'x, y, z'
_cell_length_a     42.20706
_cell_length_b     42.169785
_cell_length_c     30.912675
_cell_angle_alpha  90.005722
_cell_angle_beta   90.017346
_cell_angle_gamma 90.058304
loop_
_atom_site_label
_atom_site_type_symbol
_atom_site_fract_x
_atom_site_fract_y
_atom_site_fract_z
_atom_type_partial_charge
Co0 Co 0.18758 0.49699 0.02525 0.0
Co1 Co 0.16772 0.42008 0.0539 0.0
O2 O 0.18963 0.45104 0.01769 0.0
C3 C 0.16504 0.48535 0.93633 0.0
O4 O 0.14789 0.4623 0.95263 0.0
C5 C 0.23566 0.40225 0.05711 0.0
O6 O 0.24234 0.43248 0.06148 0.0
O7 O 0.18172 0.44202 0.10787 0.0
O8 O 0.19246 0.49247 0.08928 0.0
H9 H 0.09688 0.38504 0.17543 0.0
H10 H 0.23316 0.46944 0.9627 0.0
O11 O 0.18242 0.50224 0.96102 0.0
H12 H 0.29845 0.52774 0.06851 0.0
H13 H 0.21219 0.60992 0.98454 0.0
H14 H 0.15648 0.5403 0.08776 0.0
H15 H 0.2402 0.5272 0.07486 0.0
H16 H 0.2146 0.55175 0.97671 0.0
O17 O 0.20691 0.3931 0.05507 0.0
H18 H 0.12415 0.42395 0.12884 0.0
H19 H 0.16585 0.34936 0.05626 0.0
H20 H 0.15363 0.59833 0.09701 0.0
H21 H 0.29132 0.46956 0.95494 0.0
H22 H 0.18163 0.63356 0.04515 0.0
H23 H 0.32438 0.49878 0.00819 0.0
O24 O 0.14064 0.49583 0.03189 0.0
H25 H 0.18267 0.37433 0.90517 0.0
H26 H 0.1061 0.39416 0.02248 0.0
H27 H 0.08791 0.36868 0.95507 0.0
H28 H 0.12636 0.35859 0.89582 0.0
H29 H 0.19973 0.40004 0.97295 0.0
H30 H 0.13925 0.30964 0.10226 0.0
H31 H 0.10437 0.32743 0.16224 0.0
O32 O 0.12809 0.44618 0.05268 0.0
C33 C 0.18976 0.4704 0.11732 0.0
C34 C 0.11193 0.377 0.1493 0.0
C35 C 0.13575 0.33468 0.10828 0.0
N36 N 0.14636 0.38893 0.08969 0.0
C37 C 0.12735 0.39891 0.12275 0.0
C38 C 0.15082 0.35727 0.08241 0.0
C39 C 0.11618 0.34467 0.14192 0.0
C40 C 0.24737 0.48249 0.98573 0.0
N41 N 0.23329 0.49841 0.01908 0.0
C42 C 0.28029 0.48236 0.98128 0.0
C43 C 0.29883 0.49871 0.01121 0.0
C44 C 0.2843 0.51494 0.04509 0.0
C45 C 0.25131 0.51449 0.04858 0.0
C46 C 0.19993 0.59482 0.00738 0.0
C47 C 0.16886 0.55547 0.06521 0.0
C48 C 0.20115 0.56188 0.00305 0.0
N49 N 0.18585 0.54267 0.03191 0.0
C50 C 0.1671 0.58831 0.07054 0.0
C51 C 0.18279 0.60807 0.04141 0.0
C52 C 0.12065 0.47474 0.04343 0.0
C53 C 0.1657 0.37855 0.93077 0.0
C54 C 0.1229 0.39001 0.99677 0.0
C55 C 0.11251 0.37546 0.95873 0.0
C56 C 0.13409 0.36978 0.92552 0.0
N57 N 0.15391 0.39863 0.00164 0.0
C58 C 0.17525 0.393 0.9693 0.0
Co59 Co 0.51065 0.18656 0.52406 0.0
Co60 Co 0.58687 0.16919 0.55688 0.0
O61 O 0.55661 0.18977 0.51825 0.0
C62 C 0.52383 0.16558 0.43516 0.0
O63 O 0.54652 0.14812 0.45173 0.0
C64 C 0.60543 0.23695 0.55569 0.0
O65 O 0.57532 0.24385 0.56049 0.0
O66 O 0.56468 0.18632 0.60869 0.0
O67 O 0.5136 0.18986 0.58851 0.0
H68 H 0.61986 0.10432 0.68549 0.0
H69 H 0.5379 0.23439 0.46441 0.0
O70 O 0.50675 0.18283 0.45966 0.0
H71 H 0.4767 0.29556 0.57156 0.0
H72 H 0.39812 0.20985 0.48062 0.0
H73 H 0.46693 0.15166 0.58215 0.0
H74 H 0.4786 0.23717 0.57532 0.0
H75 H 0.4563 0.2141 0.47537 0.0
O76 O 0.61436 0.20809 0.55479 0.0
H77 H 0.58175 0.12981 0.63597 0.0
H78 H 0.65742 0.16633 0.56031 0.0
H79 H 0.40887 0.14692 0.5888 0.0
H80 H 0.53643 0.29274 0.45923 0.0
H81 H 0.37405 0.17617 0.53779 0.0
H82 H 0.50575 0.32373 0.51317 0.0
O83 O 0.51302 0.13967 0.52846 0.0
H84 H 0.63534 0.17609 0.40871 0.0
H85 H 0.61074 0.10531 0.53116 0.0
H86 H 0.63675 0.08346 0.46628 0.0
H87 H 0.64925 0.11896 0.40447 0.0
H88 H 0.60907 0.19689 0.47405 0.0
H89 H 0.69636 0.14147 0.6092 0.0
H90 H 0.67762 0.11008 0.67221 0.0
O91 O 0.5602 0.1297 0.55928 0.0
C92 C 0.53544 0.19099 0.61705 0.0
C93 C 0.62831 0.11785 0.65806 0.0
C94 C 0.67125 0.13873 0.61528 0.0
N95 N 0.61736 0.14931 0.59513 0.0
C96 C 0.60685 0.13225 0.62985 0.0
C97 C 0.6491 0.15282 0.58776 0.0
C98 C 0.66072 0.12112 0.65062 0.0
C99 C 0.52421 0.24769 0.4877 0.0
N100 N 0.50824 0.23239 0.51999 0.0
C101 C 0.52358 0.28073 0.48472 0.0
C102 C 0.50641 0.29811 0.51505 0.0
C103 C 0.49013 0.28232 0.54785 0.0
C104 C 0.49135 0.24926 0.54987 0.0
C105 C 0.41303 0.19708 0.50314 0.0
C106 C 0.45192 0.16466 0.56008 0.0
C107 C 0.44598 0.19937 0.50029 0.0
N108 N 0.46495 0.18345 0.52878 0.0
C109 C 0.41907 0.16179 0.56389 0.0
C110 C 0.39955 0.17818 0.53522 0.0
C111 C 0.53308 0.12079 0.54538 0.0
C112 C 0.6301 0.1604 0.43548 0.0
C113 C 0.61601 0.12089 0.50437 0.0
C114 C 0.63082 0.1084 0.46775 0.0
C115 C 0.63785 0.12833 0.4331 0.0
N116 N 0.60848 0.15237 0.50647 0.0
C117 C 0.61536 0.17207 0.47265 0.0
Co118 Co 0.82258 0.51249 0.02502 0.0
Co119 Co 0.84035 0.58952 0.05531 0.0
O120 O 0.81943 0.55845 0.01816 0.0
C121 C 0.84424 0.52494 0.93613 0.0
O122 O 0.86133 0.54806 0.95241 0.0
C123 C 0.77222 0.60678 0.05661 0.0
O124 O 0.76569 0.57651 0.06088 0.0
O125 O 0.82531 0.56726 0.10849 0.0
O126 O 0.8185 0.51627 0.08915 0.0
H127 H 0.90827 0.62478 0.17984 0.0
H128 H 0.77561 0.53915 0.96365 0.0
O129 O 0.82709 0.50786 0.96079 0.0
H130 H 0.71301 0.47907 0.07056 0.0
H131 H 0.79962 0.39942 0.98321 0.0
H132 H 0.85613 0.46931 0.08531 0.0
H133 H 0.7713 0.48101 0.07569 0.0
H134 H 0.79574 0.45759 0.97658 0.0
O135 O 0.80093 0.61612 0.05516 0.0
H136 H 0.88231 0.58579 0.13196 0.0
H137 H 0.84153 0.66025 0.05817 0.0
H138 H 0.8605 0.41128 0.09336 0.0
H139 H 0.71739 0.53764 0.95711 0.0
H140 H 0.83209 0.37591 0.04206 0.0
H141 H 0.68568 0.50752 0.01092 0.0
O142 O 0.86945 0.51479 0.0307 0.0
H143 H 0.8279 0.6356 0.90636 0.0
H144 H 0.90227 0.61639 0.02652 0.0
H145 H 0.9215 0.64234 0.96 0.0
H146 H 0.88417 0.65211 0.89932 0.0
H147 H 0.80979 0.60942 0.97328 0.0
H148 H 0.86682 0.70005 0.10544 0.0
H149 H 0.90058 0.68237 0.16668 0.0
O150 O 0.88041 0.56383 0.05542 0.0
C151 C 0.81917 0.53833 0.11739 0.0
C152 C 0.89371 0.63278 0.15317 0.0
C153 C 0.8704 0.67502 0.11145 0.0
N154 N 0.86066 0.62074 0.09213 0.0
C155 C 0.87903 0.61081 0.12589 0.0
C156 C 0.85608 0.65238 0.08486 0.0
C157 C 0.88935 0.66509 0.1458 0.0
C158 C 0.762 0.5257 0.9869 0.0
N159 N 0.77684 0.51005 0.01987 0.0
C160 C 0.72903 0.52505 0.98315 0.0
C161 C 0.71125 0.50819 0.0134 0.0
C162 C 0.72657 0.49225 0.04689 0.0
C163 C 0.75958 0.49349 0.04968 0.0
C164 C 0.81204 0.41458 0.00584 0.0
C165 C 0.84353 0.45407 0.06307 0.0
C166 C 0.80997 0.44752 0.0022 0.0
N167 N 0.82546 0.4668 0.0308 0.0
C168 C 0.84617 0.42123 0.06769 0.0
C169 C 0.83026 0.4014 0.03887 0.0
C170 C 0.88874 0.53585 0.04432 0.0
C171 C 0.84439 0.63149 0.93258 0.0
C172 C 0.88597 0.62036 1.00015 0.0
C173 C 0.89694 0.63519 0.96264 0.0
C174 C 0.87597 0.64071 0.92863 0.0
N175 N 0.85499 0.61129 0.00373 0.0
C176 C 0.83425 0.61677 0.97061 0.0
Co177 Co 0.49786 0.82183 0.52369 0.0
Co178 Co 0.42173 0.83966 0.55636 0.0
O179 O 0.45189 0.81896 0.51772 0.0
C180 C 0.48485 0.84319 0.43493 0.0
O181 O 0.46232 0.86078 0.45164 0.0
C182 C 0.40268 0.77205 0.55477 0.0
O183 O 0.43273 0.76491 0.55952 0.0
O184 O 0.44373 0.82224 0.60813 0.0
O185 O 0.49482 0.81834 0.58811 0.0
H186 H 0.38908 0.90445 0.6852 0.0
H187 H 0.47033 0.77439 0.46364 0.0
O188 O 0.50183 0.82574 0.45931 0.0
H189 H 0.53095 0.71242 0.57059 0.0
H190 H 0.61025 0.79778 0.4804 0.0
H191 H 0.5418 0.85619 0.58212 0.0
H192 H 0.52948 0.77082 0.57472 0.0
H193 H 0.55204 0.79404 0.47494 0.0
O194 O 0.39396 0.80098 0.55401 0.0
H195 H 0.42705 0.8788 0.63566 0.0
H196 H 0.3512 0.84305 0.55959 0.0
H197 H 0.59989 0.86041 0.58899 0.0
H198 H 0.47139 0.71605 0.45809 0.0
H199 H 0.63453 0.83105 0.53788 0.0
H200 H 0.50178 0.68466 0.51192 0.0
O201 O 0.49585 0.86873 0.52837 0.0
H202 H 0.37344 0.83349 0.40798 0.0
H203 H 0.39836 0.90378 0.53087 0.0
H204 H 0.37263 0.92599 0.46599 0.0
H205 H 0.35997 0.89073 0.40395 0.0
H206 H 0.39943 0.81233 0.47333 0.0
H207 H 0.31239 0.86809 0.60848 0.0
H208 H 0.33129 0.89916 0.67172 0.0
O209 O 0.44868 0.87894 0.55903 0.0
C210 C 0.47292 0.81732 0.61656 0.0
C211 C 0.38056 0.89105 0.65768 0.0
C212 C 0.33751 0.87061 0.61465 0.0
N213 N 0.39135 0.85968 0.59461 0.0
C214 C 0.40194 0.87656 0.62946 0.0
C215 C 0.35959 0.85643 0.58714 0.0
C216 C 0.34814 0.88805 0.65012 0.0
C217 C 0.4839 0.76091 0.48689 0.0
N218 N 0.49994 0.77599 0.51933 0.0
C219 C 0.48429 0.72788 0.4837 0.0
C220 C 0.5013 0.71028 0.51397 0.0
C221 C 0.51765 0.72584 0.54692 0.0
C222 C 0.51666 0.7589 0.54915 0.0
C223 C 0.59541 0.8106 0.50295 0.0
C224 C 0.55673 0.84314 0.56 0.0
C225 C 0.56245 0.8086 0.49999 0.0
N226 N 0.54358 0.82458 0.52853 0.0
C227 C 0.5896 0.84572 0.56394 0.0
C228 C 0.60902 0.82927 0.53521 0.0
C229 C 0.47588 0.8877 0.5453 0.0
C230 C 0.37874 0.84907 0.43485 0.0
C231 C 0.39301 0.8883 0.50398 0.0
C232 C 0.37837 0.901 0.46736 0.0
C233 C 0.37125 0.8812 0.43258 0.0
N234 N 0.4003 0.85676 0.50596 0.0
C235 C 0.39333 0.83719 0.47202 0.0
Co236 Co 0.18688 0.51061 0.52492 0.0
Co237 Co 0.16817 0.58688 0.49292 0.0
O238 O 0.18948 0.55664 0.53085 0.0
C239 C 0.16553 0.52367 0.61395 0.0
O240 O 0.14808 0.54635 0.59732 0.0
C241 C 0.23587 0.60555 0.49211 0.0
O242 O 0.24281 0.57539 0.48772 0.0
O243 O 0.184 0.56461 0.44038 0.0
O244 O 0.19069 0.51379 0.46045 0.0
H245 H 0.10055 0.61979 0.36694 0.0
H246 H 0.23384 0.53868 0.58515 0.0
O247 O 0.18277 0.50656 0.58943 0.0
H248 H 0.2966 0.47797 0.47919 0.0
H249 H 0.21101 0.39821 0.56859 0.0
H250 H 0.15375 0.46651 0.4654 0.0
H251 H 0.23827 0.47906 0.47459 0.0
H252 H 0.21435 0.45648 0.57423 0.0
O253 O 0.20703 0.61443 0.49343 0.0
H254 H 0.12703 0.58169 0.4155 0.0
H255 H 0.16526 0.6575 0.48949 0.0
H256 H 0.14995 0.40835 0.45835 0.0
H257 H 0.29211 0.53802 0.59118 0.0
H258 H 0.17872 0.37379 0.5102 0.0
H259 H 0.3239 0.50759 0.53784 0.0
O260 O 0.13991 0.51223 0.51992 0.0
H261 H 0.17819 0.63541 0.6408 0.0
H262 H 0.10492 0.61075 0.52113 0.0
H263 H 0.08446 0.63677 0.58685 0.0
H264 H 0.12122 0.64929 0.64727 0.0
H265 H 0.1976 0.60915 0.57465 0.0
H266 H 0.13939 0.69642 0.44154 0.0
H267 H 0.10666 0.67761 0.37984 0.0
O268 O 0.12886 0.5602 0.49208 0.0
C269 C 0.19005 0.53562 0.4318 0.0
C270 C 0.11466 0.62827 0.39379 0.0
C271 C 0.13651 0.67129 0.43563 0.0
N272 N 0.14746 0.61736 0.45545 0.0
C273 C 0.12964 0.60682 0.42146 0.0
C274 C 0.15115 0.64914 0.4626 0.0
C275 C 0.11813 0.66072 0.40102 0.0
C276 C 0.24749 0.5251 0.56211 0.0
N277 N 0.23267 0.50882 0.52966 0.0
C278 C 0.28049 0.52493 0.56557 0.0
C279 C 0.29831 0.5079 0.53558 0.0
C280 C 0.28301 0.4913 0.50264 0.0
C281 C 0.24998 0.49207 0.50013 0.0
C282 C 0.19842 0.41302 0.54574 0.0
C283 C 0.1665 0.45161 0.4879 0.0
C284 C 0.20017 0.44602 0.54883 0.0
N285 N 0.18446 0.46484 0.51995 0.0
C286 C 0.16418 0.4187 0.48383 0.0
C287 C 0.18031 0.39933 0.51297 0.0
C288 C 0.12055 0.53257 0.50465 0.0
C289 C 0.16197 0.63017 0.61464 0.0
C290 C 0.12106 0.61606 0.5473 0.0
C291 C 0.10934 0.63086 0.5844 0.0
C292 C 0.12998 0.6379 0.61828 0.0
N293 N 0.15246 0.60856 0.54395 0.0
C294 C 0.17285 0.61544 0.57701 0.0
Co295 Co 0.49773 0.18654 0.02469 0.0
Co296 Co 0.42158 0.16905 0.99164 0.0
O297 O 0.45176 0.18963 0.03045 0.0
C298 C 0.48453 0.16549 0.11356 0.0
O299 O 0.46188 0.14794 0.09696 0.0
C300 C 0.40276 0.2367 0.99347 0.0
O301 O 0.43284 0.24385 0.98885 0.0
O302 O 0.44375 0.18651 0.94 0.0
O303 O 0.49484 0.18986 0.96023 0.0
H304 H 0.38886 0.10459 0.86245 0.0
H305 H 0.47045 0.23428 0.08438 0.0
O306 O 0.50159 0.1828 0.08909 0.0
H307 H 0.53167 0.29565 0.97734 0.0
H308 H 0.61022 0.21012 0.06829 0.0
H309 H 0.54152 0.15177 0.96663 0.0
H310 H 0.52978 0.23725 0.9735 0.0
H311 H 0.55204 0.21422 0.07346 0.0
O312 O 0.39396 0.20778 0.99401 0.0
H313 H 0.42686 0.13004 0.91224 0.0
H314 H 0.35103 0.16585 0.98811 0.0
H315 H 0.59958 0.14718 0.96006 0.0
H316 H 0.47192 0.29263 0.08965 0.0
H317 H 0.63435 0.17651 0.01114 0.0
H318 H 0.50261 0.32372 0.03577 0.0
O319 O 0.49539 0.13965 0.02024 0.0
H320 H 0.37301 0.17511 0.13982 0.0
H321 H 0.39784 0.10496 0.01682 0.0
H322 H 0.37183 0.08272 0.08149 0.0
H323 H 0.35922 0.11791 0.14358 0.0
H324 H 0.39927 0.1963 0.07468 0.0
H325 H 0.3122 0.14101 0.93895 0.0
H326 H 0.33107 0.11001 0.87569 0.0
O327 O 0.44834 0.12971 0.98896 0.0
C328 C 0.47301 0.19111 0.93168 0.0
C329 C 0.38035 0.11795 0.88998 0.0
C330 C 0.33732 0.13843 0.93289 0.0
N331 N 0.39117 0.14918 0.95321 0.0
C332 C 0.40175 0.13233 0.91834 0.0
C333 C 0.35941 0.15249 0.96055 0.0
C334 C 0.34792 0.12103 0.89741 0.0
C335 C 0.48415 0.24763 0.06112 0.0
N336 N 0.50012 0.23238 0.02881 0.0
C337 C 0.48478 0.28067 0.06414 0.0
C338 C 0.50195 0.2981 0.03385 0.0
C339 C 0.51824 0.28236 1.00103 0.0
C340 C 0.51701 0.2493 0.99896 0.0
C341 C 0.59533 0.19732 0.04575 0.0
C342 C 0.55651 0.16481 0.98873 0.0
C343 C 0.56238 0.19952 0.04855 0.0
N344 N 0.54344 0.18355 0.02003 0.0
C345 C 0.58936 0.16202 0.98496 0.0
C346 C 0.60885 0.17845 0.01367 0.0
C347 C 0.47539 0.1208 0.00303 0.0
C348 C 0.3783 0.15956 0.11293 0.0
C349 C 0.39252 0.1204 0.04374 0.0
C350 C 0.37771 0.10769 0.08023 0.0
C351 C 0.37062 0.12745 0.11504 0.0
N352 N 0.39998 0.15193 0.0419 0.0
C353 C 0.39304 0.17146 0.07587 0.0
Co354 Co 0.82176 0.49929 0.52566 0.0
Co355 Co 0.83869 0.42326 0.49146 0.0
O356 O 0.81818 0.45324 0.53059 0.0
C357 C 0.84219 0.48519 0.61457 0.0
O358 O 0.85955 0.4625 0.59781 0.0
C359 C 0.77095 0.4046 0.49248 0.0
O360 O 0.76391 0.43477 0.48851 0.0
O361 O 0.82164 0.44604 0.44005 0.0
O362 O 0.81889 0.49703 0.4611 0.0
H363 H 0.90345 0.39139 0.36229 0.0
H364 H 0.77339 0.47187 0.58429 0.0
O365 O 0.82512 0.50254 0.59019 0.0
H366 H 0.71344 0.5346 0.47746 0.0
H367 H 0.79899 0.61166 0.57082 0.0
H368 H 0.85742 0.54336 0.46891 0.0
H369 H 0.77178 0.53222 0.47432 0.0
H370 H 0.79428 0.55341 0.57495 0.0
O371 O 0.79982 0.39577 0.493 0.0
H372 H 0.87805 0.42908 0.4125 0.0
H373 H 0.84145 0.35266 0.48678 0.0
H374 H 0.86262 0.60149 0.46337 0.0
H375 H 0.71507 0.47382 0.58885 0.0
H376 H 0.83325 0.63605 0.51458 0.0
H377 H 0.6847 0.50528 0.53507 0.0
O378 O 0.86861 0.49659 0.52185 0.0
H379 H 0.83159 0.37337 0.63878 0.0
H380 H 0.90244 0.39889 0.51682 0.0
H381 H 0.92415 0.37218 0.58127 0.0
H382 H 0.88862 0.35922 0.64283 0.0
H383 H 0.81092 0.40034 0.57387 0.0
H384 H 0.86623 0.31414 0.4372 0.0
H385 H 0.8976 0.33346 0.37452 0.0
O386 O 0.87823 0.44982 0.48961 0.0
C387 C 0.81749 0.47546 0.43218 0.0
C388 C 0.88992 0.38268 0.38956 0.0
C389 C 0.869 0.33932 0.43157 0.0
N390 N 0.85851 0.39308 0.45269 0.0
C391 C 0.87557 0.4039 0.41815 0.0
C392 C 0.85496 0.36124 0.45948 0.0
C393 C 0.88661 0.35018 0.39642 0.0
C394 C 0.76035 0.48589 0.56107 0.0
N395 N 0.77597 0.50202 0.52921 0.0
C396 C 0.72733 0.48679 0.56369 0.0
C397 C 0.7103 0.50439 0.53346 0.0
C398 C 0.72641 0.52083 0.5011 0.0
C399 C 0.75944 0.51933 0.49942 0.0
C400 C 0.81181 0.59685 0.54822 0.0
C401 C 0.84436 0.55826 0.49105 0.0
C402 C 0.80926 0.56387 0.55043 0.0
N403 N 0.82525 0.54505 0.52184 0.0
C404 C 0.84749 0.59115 0.48788 0.0
C405 C 0.83104 0.61053 0.51666 0.0
C406 C 0.88734 0.47662 0.50443 0.0
C407 C 0.84729 0.37881 0.61211 0.0
C408 C 0.88684 0.39342 0.54351 0.0
C409 C 0.89926 0.37822 0.57988 0.0
C410 C 0.8793 0.37093 0.6144 0.0
N411 N 0.85541 0.40108 0.5415 0.0
C412 C 0.83569 0.39395 0.57518 0.0
Co413 Co 0.50972 0.82189 0.02439 0.0
Co414 Co 0.58583 0.83958 0.99142 0.0
O415 O 0.55569 0.81895 0.03019 0.0
C416 C 0.52296 0.84317 0.11314 0.0
O417 O 0.54552 0.86075 0.0964 0.0
C418 C 0.60475 0.77197 0.99311 0.0
O419 O 0.57468 0.76478 0.98846 0.0
O420 O 0.56369 0.82209 0.93977 0.0
O421 O 0.51261 0.81843 0.95994 0.0
H422 H 0.6184 0.90416 0.8623 0.0
H423 H 0.53719 0.77437 0.08427 0.0
O424 O 0.50589 0.82577 0.08878 0.0
H425 H 0.47613 0.71256 0.97747 0.0
H426 H 0.39732 0.79802 0.06807 0.0
H427 H 0.46579 0.85636 0.96617 0.0
H428 H 0.47782 0.77095 0.9734 0.0
H429 H 0.45553 0.79416 0.07329 0.0
O430 O 0.61351 0.8009 0.99377 0.0
H431 H 0.58046 0.8786 0.91205 0.0
H432 H 0.65637 0.84293 0.98793 0.0
H433 H 0.40771 0.86071 0.95954 0.0
H434 H 0.53593 0.71603 0.08975 0.0
H435 H 0.37306 0.83139 0.01075 0.0
H436 H 0.50532 0.68472 0.03599 0.0
O437 O 0.51189 0.86878 0.01976 0.0
H438 H 0.6344 0.8336 0.13964 0.0
H439 H 0.60944 0.90372 0.01666 0.0
H440 H 0.63537 0.926 0.08138 0.0
H441 H 0.64805 0.89083 0.14346 0.0
H442 H 0.60821 0.81236 0.07445 0.0
H443 H 0.69514 0.86787 0.93882 0.0
H444 H 0.6762 0.89886 0.87558 0.0
O445 O 0.55899 0.87887 0.98875 0.0
C446 C 0.53446 0.81728 0.93143 0.0
C447 C 0.62694 0.8908 0.88982 0.0
C448 C 0.67002 0.8704 0.93274 0.0
N449 N 0.6162 0.85953 0.95301 0.0
C450 C 0.60558 0.87636 0.91816 0.0
C451 C 0.64796 0.85628 0.96038 0.0
C452 C 0.65937 0.88779 0.89727 0.0
C453 C 0.52353 0.76093 0.06106 0.0
N454 N 0.50748 0.77605 0.02869 0.0
C455 C 0.52302 0.72789 0.0642 0.0
C456 C 0.50589 0.71034 0.03397 0.0
C457 C 0.48953 0.72594 1.0011 0.0
C458 C 0.49063 0.759 0.99891 0.0
C459 C 0.41217 0.81082 0.04547 0.0
C460 C 0.45086 0.84332 0.98832 0.0
C461 C 0.44513 0.80875 0.0483 0.0
N462 N 0.464 0.82471 0.01971 0.0
C463 C 0.41799 0.84597 0.98452 0.0
C464 C 0.39857 0.82954 0.0133 0.0
C465 C 0.53188 0.88769 0.00266 0.0
C466 C 0.62909 0.84914 0.11275 0.0
C467 C 0.61479 0.88828 0.04357 0.0
C468 C 0.62955 0.90102 0.0801 0.0
C469 C 0.63669 0.88127 0.1149 0.0
N470 N 0.6074 0.85674 0.0417 0.0
C471 C 0.61439 0.83722 0.07566 0.0
H472 H 0.21397 0.52557 0.15075 0.0
H473 H 0.17616 0.43447 0.18895 0.0
H474 H 0.21816 0.54091 0.22638 0.0
H475 H 0.17933 0.45026 0.26452 0.0
H476 H 0.20896 0.47798 0.39968 0.0
H477 H 0.21297 0.46188 0.32425 0.0
H478 H 0.18439 0.55579 0.28422 0.0
H479 H 0.18144 0.57219 0.35945 0.0
C480 C 0.20664 0.50872 0.17524 0.0
C481 C 0.19465 0.47876 0.16357 0.0
C482 C 0.20883 0.51765 0.21872 0.0
C483 C 0.19886 0.49698 0.25176 0.0
C484 C 0.18764 0.4667 0.24012 0.0
C485 C 0.18567 0.45767 0.19663 0.0
C486 C 0.20388 0.49533 0.37481 0.0
C487 C 0.19486 0.52643 0.38583 0.0
C488 C 0.20594 0.486 0.33145 0.0
C489 C 0.19884 0.50742 0.29793 0.0
C490 C 0.19051 0.53871 0.30899 0.0
C491 C 0.18865 0.54811 0.35231 0.0
H492 H 0.5725 0.21101 0.68457 0.0
H493 H 0.47695 0.18257 0.65283 0.0
H494 H 0.55739 0.2164 0.76025 0.0
H495 H 0.46226 0.18598 0.72842 0.0
H496 H 0.53147 0.18254 0.89594 0.0
H497 H 0.54619 0.18587 0.82035 0.0
H498 H 0.45124 0.21661 0.78848 0.0
H499 H 0.43608 0.2113 0.86416 0.0
C500 C 0.54828 0.20585 0.69378 0.0
C501 C 0.52599 0.19626 0.66265 0.0
C502 C 0.53961 0.20869 0.7373 0.0
C503 C 0.50858 0.20138 0.75093 0.0
C504 C 0.4862 0.19241 0.71943 0.0
C505 C 0.49471 0.19019 0.67588 0.0
C506 C 0.51376 0.19022 0.87288 0.0
C507 C 0.48251 0.1964 0.8861 0.0
C508 C 0.52229 0.19239 0.82933 0.0
C509 C 0.49996 0.20141 0.79782 0.0
C510 C 0.46897 0.20885 0.81144 0.0
C511 C 0.46028 0.20606 0.85496 0.0
H512 H 0.82914 0.53358 0.39685 0.0
H513 H 0.79515 0.4399 0.36455 0.0
H514 H 0.82643 0.54879 0.32135 0.0
H515 H 0.79037 0.45565 0.28904 0.0
H516 H 0.82446 0.4795 0.15331 0.0
H517 H 0.82096 0.46506 0.22889 0.0
H518 H 0.79699 0.56195 0.26119 0.0
H519 H 0.80262 0.57674 0.18537 0.0
C520 C 0.82043 0.51639 0.37368 0.0
C521 C 0.81262 0.48543 0.38671 0.0
C522 C 0.81863 0.52521 0.33018 0.0
C523 C 0.80832 0.50349 0.29856 0.0
C524 C 0.79921 0.47287 0.31204 0.0
C525 C 0.80168 0.46385 0.35547 0.0
C526 C 0.81829 0.49775 0.17645 0.0
C527 C 0.81407 0.52936 0.16324 0.0
C528 C 0.81598 0.48938 0.22004 0.0
C529 C 0.80871 0.51225 0.25167 0.0
C530 C 0.80335 0.54372 0.23813 0.0
C531 C 0.80632 0.55223 0.19453 0.0
H532 H 0.57149 0.79676 0.86426 0.0
H533 H 0.4761 0.82589 0.89536 0.0
H534 H 0.55653 0.79129 0.78852 0.0
H535 H 0.46158 0.82241 0.81968 0.0
H536 H 0.4356 0.79734 0.68379 0.0
H537 H 0.45048 0.79186 0.75956 0.0
H538 H 0.54583 0.82187 0.72834 0.0
H539 H 0.53138 0.82536 0.65266 0.0
C540 C 0.54733 0.80205 0.85489 0.0
C541 C 0.52505 0.81187 0.88585 0.0
C542 C 0.53875 0.79916 0.81134 0.0
C543 C 0.50783 0.80667 0.7975 0.0
C544 C 0.48544 0.81583 0.82883 0.0
C545 C 0.49385 0.81809 0.87243 0.0
C546 C 0.45983 0.80238 0.69316 0.0
C547 C 0.48225 0.81189 0.66218 0.0
C548 C 0.46836 0.79949 0.73672 0.0
C549 C 0.49937 0.80669 0.75055 0.0
C550 C 0.52189 0.81554 0.7192 0.0
C551 C 0.51352 0.8178 0.6756 0.0
H552 H 0.82136 0.5376 0.65786 0.0
H553 H 0.86393 0.44557 0.67785 0.0
H554 H 0.82239 0.54713 0.7358 0.0
H555 H 0.86473 0.45515 0.75586 0.0
H556 H 0.82352 0.47205 0.89372 0.0
H557 H 0.8234 0.46232 0.81581 0.0
H558 H 0.86491 0.55457 0.79416 0.0
H559 H 0.86526 0.56434 0.87213 0.0
C560 C 0.83087 0.51939 0.67889 0.0
C561 C 0.8426 0.49085 0.66174 0.0
C562 C 0.83162 0.52495 0.72343 0.0
C563 C 0.84368 0.50189 0.75177 0.0
C564 C 0.85514 0.47323 0.73471 0.0
C565 C 0.85482 0.46785 0.69009 0.0
C566 C 0.83266 0.49024 0.87235 0.0
C567 C 0.84444 0.51894 0.88903 0.0
C568 C 0.83273 0.48459 0.82782 0.0
C569 C 0.84414 0.5077 0.79904 0.0
C570 C 0.85578 0.53645 0.81566 0.0
C571 C 0.85614 0.54194 0.86026 0.0
H572 H 0.5627 0.86469 0.1764 0.0
H573 H 0.47066 0.8221 0.15642 0.0
H574 H 0.55346 0.86483 0.25449 0.0
H575 H 0.46144 0.82251 0.23445 0.0
H576 H 0.44522 0.86478 0.37164 0.0
H577 H 0.45451 0.86491 0.29357 0.0
H578 H 0.54638 0.82248 0.31368 0.0
H579 H 0.53712 0.82207 0.3917 0.0
C580 C 0.54048 0.85547 0.18866 0.0
C581 C 0.51739 0.84341 0.16031 0.0
C582 C 0.53529 0.85541 0.23331 0.0
C583 C 0.50673 0.84372 0.2504 0.0
C584 C 0.48356 0.83188 0.22205 0.0
C585 C 0.48892 0.8315 0.17746 0.0
C586 C 0.46742 0.85553 0.3594 0.0
C587 C 0.49046 0.84344 0.38777 0.0
C588 C 0.47264 0.85546 0.31476 0.0
C589 C 0.50116 0.84374 0.29769 0.0
C590 C 0.52429 0.83188 0.32605 0.0
C591 C 0.5189 0.8315 0.37064 0.0
H592 H 0.14394 0.44577 0.8726 0.0
H593 H 0.18581 0.53809 0.89335 0.0
H594 H 0.14414 0.45514 0.79458 0.0
H595 H 0.18574 0.54747 0.81528 0.0
H596 H 0.14431 0.56354 0.67728 0.0
H597 H 0.1442 0.55441 0.75539 0.0
H598 H 0.18621 0.46226 0.7356 0.0
H599 H 0.1866 0.47138 0.65751 0.0
C600 C 0.15306 0.4681 0.86053 0.0
C601 C 0.16481 0.49122 0.88913 0.0
C602 C 0.15334 0.47337 0.81587 0.0
C603 C 0.16495 0.50203 0.79891 0.0
C604 C 0.17644 0.52526 0.8275 0.0
C605 C 0.17661 0.51981 0.87214 0.0
C606 C 0.15349 0.54131 0.68958 0.0
C607 C 0.16541 0.51815 0.66123 0.0
C608 C 0.15358 0.53619 0.73429 0.0
C609 C 0.16515 0.50762 0.75151 0.0
C610 C 0.17691 0.48439 0.72316 0.0
C611 C 0.17727 0.4897 0.67851 0.0
H612 H 0.47133 0.18649 0.39224 0.0
H613 H 0.56335 0.1442 0.37161 0.0
H614 H 0.46179 0.18606 0.31428 0.0
H615 H 0.55377 0.14403 0.29359 0.0
H616 H 0.53696 0.18664 0.15652 0.0
H617 H 0.54648 0.18626 0.23448 0.0
H618 H 0.45459 0.14382 0.25512 0.0
H619 H 0.44504 0.14394 0.17709 0.0
C620 C 0.48952 0.17715 0.37107 0.0
C621 C 0.51808 0.16534 0.38802 0.0
C622 C 0.48397 0.17675 0.32651 0.0
C623 C 0.50704 0.16499 0.298 0.0
C624 C 0.53568 0.1534 0.31489 0.0
C625 C 0.54107 0.15336 0.35951 0.0
C626 C 0.51878 0.17721 0.17768 0.0
C627 C 0.49026 0.16527 0.16071 0.0
C628 C 0.52433 0.17685 0.22224 0.0
C629 C 0.50128 0.16499 0.25073 0.0
C630 C 0.47267 0.15327 0.23383 0.0
C631 C 0.4673 0.15319 0.18921 0.0
H632 H 0.9143 0.47801 0.06215 0.0
H633 H 0.93992 0.57445 0.03143 0.0
H634 H 0.96997 0.4636 0.06519 0.0
H635 H 0.99557 0.55986 0.03118 0.0
H636 H 0.09559 0.53199 0.0661 0.0
H637 H 0.03991 0.54675 0.06968 0.0
H638 H 0.01391 0.45297 0.02495 0.0
H639 H 0.06938 0.43791 0.02456 0.0
C640 C 0.9319 0.49609 0.05562 0.0
C641 C 0.92271 0.52738 0.04662 0.0
C642 C 0.96395 0.4878 0.05695 0.0
C643 C 0.98771 0.5104 0.0481 0.0
C644 C 0.9783 0.54178 0.03909 0.0
C645 C 0.94625 0.55022 0.0389 0.0
C646 C 0.07785 0.51457 0.05729 0.0
C647 C 0.08682 0.48375 0.04528 0.0
C648 C 0.04583 0.52306 0.05898 0.0
C649 C 0.02197 0.50117 0.04756 0.0
C650 C 0.03123 0.47039 0.0351 0.0
C651 C 0.06318 0.4617 0.03453 0.0
H652 H 0.43925 0.93717 0.57417 0.0
H653 H 0.53229 0.91568 0.52346 0.0
H654 H 0.45316 0.99325 0.57689 0.0
H655 H 0.5459 0.97175 0.52579 0.0
H656 H 0.47679 0.09264 0.5235 0.0
H657 H 0.46332 0.03656 0.52581 0.0
H658 H 0.5562 0.01525 0.57666 0.0
H659 H 0.56997 0.07139 0.57395 0.0
C660 C 0.46265 0.94432 0.56359 0.0
C661 C 0.48455 0.92179 0.54834 0.0
C662 C 0.47057 0.97653 0.56499 0.0
C663 C 0.50061 0.98701 0.55144 0.0
C664 C 0.52268 0.96446 0.5369 0.0
C665 C 0.51474 0.93228 0.53531 0.0
C666 C 0.4944 0.07608 0.53528 0.0
C667 C 0.52458 0.08665 0.54828 0.0
C668 C 0.48655 0.04389 0.53686 0.0
C669 C 0.50868 0.02139 0.55137 0.0
C670 C 0.53874 0.03193 0.56482 0.0
C671 C 0.54657 0.06418 0.56342 0.0
H672 H 0.09271 0.47576 0.52554 0.0
H673 H 0.07094 0.56971 0.47796 0.0
H674 H 0.03657 0.46228 0.52368 0.0
H675 H 0.01493 0.55596 0.47569 0.0
H676 H 0.91596 0.53218 0.52863 0.0
H677 H 0.9721 0.54516 0.527 0.0
H678 H 0.99264 0.45304 0.47284 0.0
H679 H 0.9364 0.43975 0.47485 0.0
C680 C 0.07604 0.49352 0.5145 0.0
C681 C 0.08646 0.52393 0.50218 0.0
C682 C 0.04384 0.48569 0.51319 0.0
C683 C 0.02125 0.50807 0.49966 0.0
C684 C 0.03167 0.53832 0.48684 0.0
C685 C 0.06386 0.54613 0.48799 0.0
C686 C 0.93235 0.51463 0.51628 0.0
C687 C 0.92154 0.48481 0.50207 0.0
C688 C 0.96458 0.52219 0.51511 0.0
C689 C 0.98688 0.50015 0.49982 0.0
C690 C 0.97611 0.47042 0.4853 0.0
C691 C 0.94382 0.46287 0.48628 0.0
H692 H 0.5687 0.9371 0.97383 0.0
H693 H 0.47559 0.91577 0.02454 0.0
H694 H 0.55501 0.99322 0.97122 0.0
H695 H 0.46219 0.97186 0.02227 0.0
H696 H 0.53159 0.09261 0.02503 0.0
H697 H 0.54493 0.03651 0.02256 0.0
H698 H 0.45214 0.01534 0.97118 0.0
H699 H 0.43851 0.07148 0.974 0.0
C700 C 0.54533 0.94429 0.98443 0.0
C701 C 0.52335 0.9218 0.99965 0.0
C702 C 0.53754 0.97652 0.98308 0.0
C703 C 0.50754 0.98704 0.99665 0.0
C704 C 0.48539 0.96453 0.01116 0.0
C705 C 0.49319 0.93234 0.01271 0.0
C706 C 0.51398 0.07608 0.01309 0.0
C707 C 0.48385 0.08668 0.99998 0.0
C708 C 0.52175 0.04389 0.01142 0.0
C709 C 0.4996 0.02142 0.99675 0.0
C710 C 0.46961 0.032 0.98316 0.0
C711 C 0.46186 0.06424 0.98463 0.0
H712 H 0.29639 0.4132 0.03 0.0
H713 H 0.23274 0.33828 0.06895 0.0
H714 H 0.33701 0.37402 0.01322 0.0
H715 H 0.27368 0.29919 0.05451 0.0
H716 H 0.41322 0.29726 0.02195 0.0
H717 H 0.37378 0.33744 0.03961 0.0
H718 H 0.2994 0.27362 0.99824 0.0
H719 H 0.33874 0.23311 0.98289 0.0
C720 C 0.29129 0.38837 0.03572 0.0
C721 C 0.26133 0.37881 0.05067 0.0
C722 C 0.31464 0.36582 0.02623 0.0
C723 C 0.30874 0.3332 0.03208 0.0
C724 C 0.27899 0.32391 0.04839 0.0
C725 C 0.25552 0.34637 0.05714 0.0
C726 C 0.38842 0.29194 0.01648 0.0
C727 C 0.37908 0.26199 1.00115 0.0
C728 C 0.36574 0.31504 0.02647 0.0
C729 C 0.33318 0.3089 0.02074 0.0
C730 C 0.32407 0.2791 0.00426 0.0
C731 C 0.34668 0.25588 0.995 0.0
H732 H 0.7744 0.34068 0.48031 0.0
H733 H 0.71047 0.4147 0.52116 0.0
H734 H 0.73391 0.30109 0.49492 0.0
H735 H 0.67031 0.37498 0.53807 0.0
H736 H 0.66953 0.23374 0.56571 0.0
H737 H 0.70857 0.27473 0.55089 0.0
H738 H 0.63365 0.33836 0.51128 0.0
H739 H 0.59453 0.29769 0.52841 0.0
C740 C 0.75167 0.34847 0.49263 0.0
C741 C 0.74563 0.38082 0.49953 0.0
C742 C 0.72846 0.3257 0.50145 0.0
C743 C 0.69874 0.33459 0.51824 0.0
C744 C 0.69264 0.36711 0.52467 0.0
C745 C 0.71573 0.38995 0.51512 0.0
C746 C 0.66141 0.25657 0.5541 0.0
C747 C 0.62895 0.26247 0.54829 0.0
C748 C 0.68385 0.28008 0.54516 0.0
C749 C 0.6745 0.30997 0.52934 0.0
C750 C 0.64188 0.3159 0.52394 0.0
C751 C 0.61938 0.29251 0.53361 0.0
H752 H 0.71167 0.59563 0.02875 0.0
H753 H 0.7748 0.6707 0.06883 0.0
H754 H 0.67093 0.63471 0.01191 0.0
H755 H 0.73375 0.70965 0.05428 0.0
H756 H 0.66876 0.77575 0.98272 0.0
H757 H 0.70818 0.73527 0.99787 0.0
H758 H 0.63391 0.67109 0.03848 0.0
H759 H 0.59439 0.71126 0.02105 0.0
C760 C 0.71663 0.62047 0.03468 0.0
C761 C 0.74647 0.6301 0.04996 0.0
C762 C 0.69321 0.64294 0.02515 0.0
C763 C 0.69894 0.67557 0.0313 0.0
C764 C 0.72859 0.68493 0.04793 0.0
C765 C 0.75211 0.66255 0.05672 0.0
C766 C 0.66086 0.7529 0.99462 0.0
C767 C 0.62847 0.7467 1.00064 0.0
C768 C 0.68351 0.7297 0.00375 0.0
C769 C 0.67446 0.69982 0.01998 0.0
C770 C 0.64191 0.69356 0.02555 0.0
C771 C 0.61918 0.71666 0.0157 0.0
H772 H 0.41305 0.7114 0.52682 0.0
H773 H 0.33865 0.77565 0.56531 0.0
H774 H 0.37359 0.67105 0.50969 0.0
H775 H 0.29927 0.73496 0.55052 0.0
H776 H 0.23258 0.66954 0.48048 0.0
H777 H 0.27337 0.7089 0.49482 0.0
H778 H 0.33697 0.63454 0.53651 0.0
H779 H 0.29652 0.59509 0.51981 0.0
C780 C 0.38826 0.7167 0.53228 0.0
C781 C 0.37896 0.74673 0.54731 0.0
C782 C 0.36556 0.6935 0.52261 0.0
C783 C 0.33301 0.6996 0.52837 0.0
C784 C 0.32393 0.72949 0.54451 0.0
C785 C 0.34657 0.75281 0.55344 0.0
C786 C 0.25538 0.66161 0.4924 0.0
C787 C 0.26134 0.62921 0.49894 0.0
C788 C 0.27876 0.68424 0.50108 0.0
C789 C 0.30857 0.67515 0.51738 0.0
C790 C 0.31457 0.64258 0.52345 0.0
C791 C 0.29132 0.61988 0.51403 0.0
loop_
_geom_bond_atom_site_label_1
_geom_bond_atom_site_label_2
_geom_bond_distance
_geom_bond_site_symmetry_2
_ccdc_geom_bond_type
Co0 O2 2.143 . S
Co0 O8 2.074 . S
Co0 O11 2.093 1_554 S
Co0 O24 2.097 . S
Co0 N41 2.151 . S
Co0 N49 2.214 . S
Co1 O2 2.160 . S
Co1 O7 2.058 . S
Co1 O17 2.057 . S
Co1 O32 2.037 . S
Co1 N36 2.145 . S
Co1 N57 2.273 . S
O2 Co0 2.143 . S
O2 Co1 2.160 . S
C3 O4 1.278 . S
C3 O11 1.224 . S
O4 C3 1.278 . S
C5 O6 1.245 . S
C5 O17 1.232 . S
O6 C5 1.245 . S
O7 Co1 2.058 . S
O7 C33 1.269 . S
O8 Co0 2.074 . S
O8 C33 1.257 . S
H9 C34 0.930 . S
H10 C40 0.930 . S
O11 Co0 2.093 1_556 S
O11 C3 1.224 . S
H12 C44 0.929 . S
H13 C46 0.938 . S
H14 C47 0.930 . S
H15 C45 0.929 . S
H16 C48 0.928 1_556 S
O17 Co1 2.057 . S
O17 C5 1.232 . S
H18 C37 0.929 . S
H19 C38 0.929 . S
H20 C50 0.931 . S
H21 C42 0.929 . S
H22 C51 0.930 . S
H23 C43 0.931 . S
O24 Co0 2.097 . S
O24 C52 1.214 . S
H25 C53 0.929 . S
H26 C54 0.914 1_554 S
H27 C55 0.930 . S
H28 C56 0.929 . S
H29 C58 0.930 . S
H30 C35 0.930 . S
H31 C39 0.930 . S
O32 Co1 2.037 . S
O32 C52 1.234 . S
C33 O7 1.269 . S
C33 O8 1.257 . S
C34 H9 0.930 . S
C34 C37 1.388 . S
C34 C39 1.418 . S
C35 H30 0.930 . S
C35 C38 1.404 . S
C35 C39 1.353 . S
N36 Co1 2.145 . S
N36 C37 1.397 . S
N36 C38 1.334 . S
C37 H18 0.929 . S
C37 C34 1.388 . S
C37 N36 1.397 . S
C38 H19 0.929 . S
C38 C35 1.404 . S
C38 N36 1.334 . S
C39 H31 0.930 . S
C39 C34 1.418 . S
C39 C35 1.353 . S
C40 H10 0.930 . S
C40 N41 1.330 1_556 S
C40 C42 1.446 . S
N41 Co0 2.151 . S
N41 C40 1.330 1_554 S
N41 C45 1.418 . S
C42 H21 0.929 . S
C42 C40 1.446 . S
C42 C43 1.332 1_556 S
C43 H23 0.931 . S
C43 C42 1.332 1_554 S
C43 C44 1.267 . S
C44 H12 0.929 . S
C44 C43 1.267 . S
C44 C45 1.251 . S
C45 H15 0.929 . S
C45 N41 1.418 . S
C45 C44 1.251 . S
C46 H13 0.938 . S
C46 C48 1.406 . S
C46 C51 1.261 . S
C47 H14 0.930 . S
C47 N49 1.325 . S
C47 C50 1.357 . S
C48 H16 0.928 1_554 S
C48 C46 1.406 . S
C48 N49 1.261 . S
N49 Co0 2.214 . S
N49 C47 1.325 . S
N49 C48 1.261 . S
C50 H20 0.931 . S
C50 C47 1.357 . S
C50 C51 1.312 . S
C51 H22 0.930 . S
C51 C46 1.261 . S
C51 C50 1.312 . S
C52 O24 1.214 . S
C52 O32 1.234 . S
C53 H25 0.929 . S
C53 C56 1.391 . S
C53 C58 1.391 . S
C54 H26 0.914 1_556 S
C54 C55 1.406 . S
C54 N57 1.390 1_556 S
C55 H27 0.930 . S
C55 C54 1.406 . S
C55 C56 1.392 . S
C56 H28 0.929 . S
C56 C53 1.391 . S
C56 C55 1.392 . S
N57 Co1 2.273 . S
N57 C54 1.390 1_554 S
N57 C58 1.372 1_554 S
C58 H29 0.930 . S
C58 C53 1.391 . S
C58 N57 1.372 1_556 S
Co59 O61 2.143 . S
Co59 O67 2.074 . S
Co59 O70 2.093 . S
Co59 O83 2.097 . S
Co59 N100 2.151 . S
Co59 N108 2.214 . S
Co60 O61 2.160 . S
Co60 O66 2.058 . S
Co60 O76 2.057 . S
Co60 O91 2.037 . S
Co60 N95 2.145 . S
Co60 N116 2.257 . S
O61 Co59 2.143 . S
O61 Co60 2.160 . S
C62 O63 1.278 . S
C62 O70 1.224 . S
O63 C62 1.278 . S
C64 O65 1.245 . S
C64 O76 1.232 . S
O65 C64 1.245 . S
O66 Co60 2.058 . S
O66 C92 1.269 . S
O67 Co59 2.074 . S
O67 C92 1.257 . S
H68 C93 0.930 . S
H69 C99 0.930 . S
O70 Co59 2.093 . S
O70 C62 1.224 . S
H71 C103 0.929 . S
H72 C105 0.930 . S
H73 C106 0.930 . S
H74 C104 0.929 . S
H75 C107 0.928 . S
O76 Co60 2.057 . S
O76 C64 1.232 . S
H77 C96 0.929 . S
H78 C97 0.929 . S
H79 C109 0.931 . S
H80 C101 0.929 . S
H81 C110 0.930 . S
H82 C102 0.931 . S
O83 Co59 2.097 . S
O83 C111 1.214 . S
H84 C112 0.929 . S
H85 C113 0.929 . S
H86 C114 0.930 . S
H87 C115 0.929 . S
H88 C117 0.930 . S
H89 C94 0.930 . S
H90 C98 0.930 . S
O91 Co60 2.037 . S
O91 C111 1.234 . S
C92 O66 1.269 . S
C92 O67 1.257 . S
C93 H68 0.930 . S
C93 C96 1.388 . S
C93 C98 1.418 . S
C94 H89 0.930 . S
C94 C97 1.404 . S
C94 C98 1.353 . S
N95 Co60 2.145 . S
N95 C96 1.397 . S
N95 C97 1.334 . S
C96 H77 0.929 . S
C96 C93 1.388 . S
C96 N95 1.397 . S
C97 H78 0.929 . S
C97 C94 1.404 . S
C97 N95 1.334 . S
C98 H90 0.930 . S
C98 C93 1.418 . S
C98 C94 1.353 . S
C99 H69 0.930 . S
C99 N100 1.330 . S
C99 C101 1.446 . S
N100 Co59 2.151 . S
N100 C99 1.330 . S
N100 C104 1.418 . S
C101 H80 0.929 . S
C101 C99 1.446 . S
C101 C102 1.332 . S
C102 H82 0.931 . S
C102 C101 1.332 . S
C102 C103 1.267 . S
C103 H71 0.929 . S
C103 C102 1.267 . S
C103 C104 1.251 . S
C104 H74 0.929 . S
C104 N100 1.418 . S
C104 C103 1.251 . S
C105 H72 0.930 . S
C105 C107 1.406 . S
C105 C110 1.261 . S
C106 H73 0.930 . S
C106 N108 1.325 . S
C106 C109 1.357 . S
C107 H75 0.928 . S
C107 C105 1.406 . S
C107 N108 1.261 . S
N108 Co59 2.214 . S
N108 C106 1.325 . S
N108 C107 1.261 . S
C109 H79 0.931 . S
C109 C106 1.357 . S
C109 C110 1.312 . S
C110 H81 0.930 . S
C110 C105 1.261 . S
C110 C109 1.312 . S
C111 O83 1.214 . S
C111 O91 1.234 . S
C112 H84 0.929 . S
C112 C115 1.391 . S
C112 C117 1.391 . S
C113 H85 0.929 . S
C113 C114 1.390 . S
C113 N116 1.391 . S
C114 H86 0.930 . S
C114 C113 1.390 . S
C114 C115 1.392 . S
C115 H87 0.929 . S
C115 C112 1.391 . S
C115 C114 1.392 . S
N116 Co60 2.257 . S
N116 C113 1.391 . S
N116 C117 1.388 . S
C117 H88 0.930 . S
C117 C112 1.391 . S
C117 N116 1.388 . S
Co118 O120 2.143 . S
Co118 O126 2.074 . S
Co118 O129 2.093 1_554 S
Co118 O142 2.097 . S
Co118 N159 2.151 . S
Co118 N167 2.214 . S
Co119 O120 2.160 . S
Co119 O125 2.058 . S
Co119 O135 2.057 . S
Co119 O150 2.037 . S
Co119 N154 2.145 . S
Co119 N175 2.273 . S
O120 Co118 2.143 . S
O120 Co119 2.160 . S
C121 O122 1.278 . S
C121 O129 1.224 . S
O122 C121 1.278 . S
C123 O124 1.245 . S
C123 O135 1.232 . S
O124 C123 1.245 . S
O125 Co119 2.058 . S
O125 C151 1.269 . S
O126 Co118 2.074 . S
O126 C151 1.257 . S
H127 C152 0.930 . S
H128 C158 0.930 . S
O129 Co118 2.093 1_556 S
O129 C121 1.224 . S
H130 C162 0.929 . S
H131 C164 0.938 . S
H132 C165 0.930 . S
H133 C163 0.929 . S
H134 C166 0.928 1_556 S
O135 Co119 2.057 . S
O135 C123 1.232 . S
H136 C155 0.929 . S
H137 C156 0.929 . S
H138 C168 0.931 . S
H139 C160 0.929 . S
H140 C169 0.930 . S
H141 C161 0.931 . S
O142 Co118 2.097 . S
O142 C170 1.214 . S
H143 C171 0.929 . S
H144 C172 0.914 1_554 S
H145 C173 0.930 . S
H146 C174 0.929 . S
H147 C176 0.930 . S
H148 C153 0.930 . S
H149 C157 0.930 . S
O150 Co119 2.037 . S
O150 C170 1.234 . S
C151 O125 1.269 . S
C151 O126 1.257 . S
C152 H127 0.930 . S
C152 C155 1.388 . S
C152 C157 1.418 . S
C153 H148 0.930 . S
C153 C156 1.404 . S
C153 C157 1.353 . S
N154 Co119 2.145 . S
N154 C155 1.397 . S
N154 C156 1.334 . S
C155 H136 0.929 . S
C155 C152 1.388 . S
C155 N154 1.397 . S
C156 H137 0.929 . S
C156 C153 1.404 . S
C156 N154 1.334 . S
C157 H149 0.930 . S
C157 C152 1.418 . S
C157 C153 1.353 . S
C158 H128 0.930 . S
C158 N159 1.330 1_556 S
C158 C160 1.446 . S
N159 Co118 2.151 . S
N159 C158 1.330 1_554 S
N159 C163 1.418 . S
C160 H139 0.929 . S
C160 C158 1.446 . S
C160 C161 1.332 1_556 S
C161 H141 0.931 . S
C161 C160 1.332 1_554 S
C161 C162 1.267 . S
C162 H130 0.929 . S
C162 C161 1.267 . S
C162 C163 1.251 . S
C163 H133 0.929 . S
C163 N159 1.418 . S
C163 C162 1.251 . S
C164 H131 0.938 . S
C164 C166 1.406 . S
C164 C169 1.261 . S
C165 H132 0.930 . S
C165 N167 1.325 . S
C165 C168 1.357 . S
C166 H134 0.928 1_554 S
C166 C164 1.406 . S
C166 N167 1.261 . S
N167 Co118 2.214 . S
N167 C165 1.325 . S
N167 C166 1.261 . S
C168 H138 0.931 . S
C168 C165 1.357 . S
C168 C169 1.312 . S
C169 H140 0.930 . S
C169 C164 1.261 . S
C169 C168 1.312 . S
C170 O142 1.214 . S
C170 O150 1.234 . S
C171 H143 0.929 . S
C171 C174 1.391 . S
C171 C176 1.391 . S
C172 H144 0.914 1_556 S
C172 C173 1.406 . S
C172 N175 1.390 1_556 S
C173 H145 0.930 . S
C173 C172 1.406 . S
C173 C174 1.392 . S
C174 H146 0.929 . S
C174 C171 1.391 . S
C174 C173 1.392 . S
N175 Co119 2.273 . S
N175 C172 1.390 1_554 S
N175 C176 1.372 1_554 S
C176 H147 0.930 . S
C176 C171 1.391 . S
C176 N175 1.372 1_556 S
Co177 O179 2.143 . S
Co177 O185 2.074 . S
Co177 O188 2.093 . S
Co177 O201 2.097 . S
Co177 N218 2.151 . S
Co177 N226 2.214 . S
Co178 O179 2.160 . S
Co178 O184 2.058 . S
Co178 O194 2.057 . S
Co178 O209 2.037 . S
Co178 N213 2.145 . S
Co178 N234 2.257 . S
O179 Co177 2.143 . S
O179 Co178 2.160 . S
C180 O181 1.278 . S
C180 O188 1.224 . S
O181 C180 1.278 . S
C182 O183 1.245 . S
C182 O194 1.232 . S
O183 C182 1.245 . S
O184 Co178 2.058 . S
O184 C210 1.269 . S
O185 Co177 2.074 . S
O185 C210 1.257 . S
H186 C211 0.930 . S
H187 C217 0.930 . S
O188 Co177 2.093 . S
O188 C180 1.224 . S
H189 C221 0.929 . S
H190 C223 0.930 . S
H191 C224 0.930 . S
H192 C222 0.929 . S
H193 C225 0.928 . S
O194 Co178 2.057 . S
O194 C182 1.232 . S
H195 C214 0.929 . S
H196 C215 0.929 . S
H197 C227 0.931 . S
H198 C219 0.929 . S
H199 C228 0.930 . S
H200 C220 0.931 . S
O201 Co177 2.097 . S
O201 C229 1.214 . S
H202 C230 0.929 . S
H203 C231 0.929 . S
H204 C232 0.930 . S
H205 C233 0.929 . S
H206 C235 0.930 . S
H207 C212 0.930 . S
H208 C216 0.930 . S
O209 Co178 2.037 . S
O209 C229 1.234 . S
C210 O184 1.269 . S
C210 O185 1.257 . S
C211 H186 0.930 . S
C211 C214 1.388 . S
C211 C216 1.418 . S
C212 H207 0.930 . S
C212 C215 1.404 . S
C212 C216 1.353 . S
N213 Co178 2.145 . S
N213 C214 1.397 . S
N213 C215 1.334 . S
C214 H195 0.929 . S
C214 C211 1.388 . S
C214 N213 1.397 . S
C215 H196 0.929 . S
C215 C212 1.404 . S
C215 N213 1.334 . S
C216 H208 0.930 . S
C216 C211 1.418 . S
C216 C212 1.353 . S
C217 H187 0.930 . S
C217 N218 1.330 . S
C217 C219 1.446 . S
N218 Co177 2.151 . S
N218 C217 1.330 . S
N218 C222 1.418 . S
C219 H198 0.929 . S
C219 C217 1.446 . S
C219 C220 1.332 . S
C220 H200 0.931 . S
C220 C219 1.332 . S
C220 C221 1.267 . S
C221 H189 0.929 . S
C221 C220 1.267 . S
C221 C222 1.251 . S
C222 H192 0.929 . S
C222 N218 1.418 . S
C222 C221 1.251 . S
C223 H190 0.930 . S
C223 C225 1.406 . S
C223 C228 1.261 . S
C224 H191 0.930 . S
C224 N226 1.325 . S
C224 C227 1.357 . S
C225 H193 0.928 . S
C225 C223 1.406 . S
C225 N226 1.261 . S
N226 Co177 2.214 . S
N226 C224 1.325 . S
N226 C225 1.261 . S
C227 H197 0.931 . S
C227 C224 1.357 . S
C227 C228 1.312 . S
C228 H199 0.930 . S
C228 C223 1.261 . S
C228 C227 1.312 . S
C229 O201 1.214 . S
C229 O209 1.234 . S
C230 H202 0.929 . S
C230 C233 1.391 . S
C230 C235 1.391 . S
C231 H203 0.929 . S
C231 C232 1.390 . S
C231 N234 1.391 . S
C232 H204 0.930 . S
C232 C231 1.390 . S
C232 C233 1.392 . S
C233 H205 0.929 . S
C233 C230 1.391 . S
C233 C232 1.392 . S
N234 Co178 2.257 . S
N234 C231 1.391 . S
N234 C235 1.388 . S
C235 H206 0.930 . S
C235 C230 1.391 . S
C235 N234 1.388 . S
Co236 O238 2.143 . S
Co236 O244 2.074 . S
Co236 O247 2.093 . S
Co236 O260 2.097 . S
Co236 N277 2.151 . S
Co236 N285 2.214 . S
Co237 O238 2.160 . S
Co237 O243 2.058 . S
Co237 O253 2.057 . S
Co237 O268 2.037 . S
Co237 N272 2.145 . S
Co237 N293 2.257 . S
O238 Co236 2.143 . S
O238 Co237 2.160 . S
C239 O240 1.278 . S
C239 O247 1.224 . S
O240 C239 1.278 . S
C241 O242 1.245 . S
C241 O253 1.232 . S
O242 C241 1.245 . S
O243 Co237 2.058 . S
O243 C269 1.269 . S
O244 Co236 2.074 . S
O244 C269 1.257 . S
H245 C270 0.930 . S
H246 C276 0.930 . S
O247 Co236 2.093 . S
O247 C239 1.224 . S
H248 C280 0.929 . S
H249 C282 0.930 . S
H250 C283 0.930 . S
H251 C281 0.929 . S
H252 C284 0.928 . S
O253 Co237 2.057 . S
O253 C241 1.232 . S
H254 C273 0.929 . S
H255 C274 0.929 . S
H256 C286 0.931 . S
H257 C278 0.929 . S
H258 C287 0.930 . S
H259 C279 0.931 . S
O260 Co236 2.097 . S
O260 C288 1.214 . S
H261 C289 0.929 . S
H262 C290 0.929 . S
H263 C291 0.930 . S
H264 C292 0.929 . S
H265 C294 0.930 . S
H266 C271 0.930 . S
H267 C275 0.930 . S
O268 Co237 2.037 . S
O268 C288 1.234 . S
C269 O243 1.269 . S
C269 O244 1.257 . S
C270 H245 0.930 . S
C270 C273 1.388 . S
C270 C275 1.418 . S
C271 H266 0.930 . S
C271 C274 1.404 . S
C271 C275 1.353 . S
N272 Co237 2.145 . S
N272 C273 1.397 . S
N272 C274 1.334 . S
C273 H254 0.929 . S
C273 C270 1.388 . S
C273 N272 1.397 . S
C274 H255 0.929 . S
C274 C271 1.404 . S
C274 N272 1.334 . S
C275 H267 0.930 . S
C275 C270 1.418 . S
C275 C271 1.353 . S
C276 H246 0.930 . S
C276 N277 1.330 . S
C276 C278 1.446 . S
N277 Co236 2.151 . S
N277 C276 1.330 . S
N277 C281 1.418 . S
C278 H257 0.929 . S
C278 C276 1.446 . S
C278 C279 1.332 . S
C279 H259 0.931 . S
C279 C278 1.332 . S
C279 C280 1.267 . S
C280 H248 0.929 . S
C280 C279 1.267 . S
C280 C281 1.251 . S
C281 H251 0.929 . S
C281 N277 1.418 . S
C281 C280 1.251 . S
C282 H249 0.930 . S
C282 C284 1.406 . S
C282 C287 1.261 . S
C283 H250 0.930 . S
C283 N285 1.325 . S
C283 C286 1.357 . S
C284 H252 0.928 . S
C284 C282 1.406 . S
C284 N285 1.261 . S
N285 Co236 2.214 . S
N285 C283 1.325 . S
N285 C284 1.261 . S
C286 H256 0.931 . S
C286 C283 1.357 . S
C286 C287 1.312 . S
C287 H258 0.930 . S
C287 C282 1.261 . S
C287 C286 1.312 . S
C288 O260 1.214 . S
C288 O268 1.234 . S
C289 H261 0.929 . S
C289 C292 1.391 . S
C289 C294 1.391 . S
C290 H262 0.929 . S
C290 C291 1.390 . S
C290 N293 1.391 . S
C291 H263 0.930 . S
C291 C290 1.390 . S
C291 C292 1.392 . S
C292 H264 0.929 . S
C292 C289 1.391 . S
C292 C291 1.392 . S
N293 Co237 2.257 . S
N293 C290 1.391 . S
N293 C294 1.388 . S
C294 H265 0.930 . S
C294 C289 1.391 . S
C294 N293 1.388 . S
Co295 O297 2.143 . S
Co295 O303 2.074 1_554 S
Co295 O306 2.093 . S
Co295 O319 2.097 . S
Co295 N336 2.151 . S
Co295 N344 2.214 . S
Co296 O297 2.160 1_556 S
Co296 O302 2.058 . S
Co296 O312 2.057 . S
Co296 O327 2.037 . S
Co296 N331 2.145 . S
Co296 N352 2.257 1_556 S
O297 Co295 2.143 . S
O297 Co296 2.160 1_554 S
C298 O299 1.278 . S
C298 O306 1.224 . S
O299 C298 1.278 . S
C300 O301 1.245 . S
C300 O312 1.232 1_554 S
O301 C300 1.245 . S
O302 Co296 2.058 . S
O302 C328 1.269 . S
O303 Co295 2.074 1_556 S
O303 C328 1.257 . S
H304 C329 0.930 . S
H305 C335 0.930 . S
O306 Co295 2.093 . S
O306 C298 1.224 . S
H307 C339 0.929 . S
H308 C341 0.930 . S
H309 C342 0.930 . S
H310 C340 0.929 . S
H311 C343 0.928 . S
O312 Co296 2.057 . S
O312 C300 1.232 1_556 S
H313 C332 0.929 . S
H314 C333 0.929 . S
H315 C345 0.931 . S
H316 C337 0.929 . S
H317 C346 0.930 1_556 S
H318 C338 0.931 . S
O319 Co295 2.097 . S
O319 C347 1.214 . S
H320 C348 0.929 . S
H321 C349 0.929 . S
H322 C350 0.930 . S
H323 C351 0.929 . S
H324 C353 0.930 . S
H325 C330 0.930 . S
H326 C334 0.930 . S
O327 Co296 2.037 . S
O327 C347 1.234 1_556 S
C328 O302 1.269 . S
C328 O303 1.257 . S
C329 H304 0.930 . S
C329 C332 1.388 . S
C329 C334 1.418 . S
C330 H325 0.930 . S
C330 C333 1.404 . S
C330 C334 1.353 . S
N331 Co296 2.145 . S
N331 C332 1.397 . S
N331 C333 1.334 . S
C332 H313 0.929 . S
C332 C329 1.388 . S
C332 N331 1.397 . S
C333 H314 0.929 . S
C333 C330 1.404 . S
C333 N331 1.334 . S
C334 H326 0.930 . S
C334 C329 1.418 . S
C334 C330 1.353 . S
C335 H305 0.930 . S
C335 N336 1.330 . S
C335 C337 1.446 . S
N336 Co295 2.151 . S
N336 C335 1.330 . S
N336 C340 1.418 1_554 S
C337 H316 0.929 . S
C337 C335 1.446 . S
C337 C338 1.332 . S
C338 H318 0.931 . S
C338 C337 1.332 . S
C338 C339 1.267 1_554 S
C339 H307 0.929 . S
C339 C338 1.267 1_556 S
C339 C340 1.251 . S
C340 H310 0.929 . S
C340 N336 1.418 1_556 S
C340 C339 1.251 . S
C341 H308 0.930 . S
C341 C343 1.406 . S
C341 C346 1.261 . S
C342 H309 0.930 . S
C342 N344 1.325 1_556 S
C342 C345 1.357 . S
C343 H311 0.928 . S
C343 C341 1.406 . S
C343 N344 1.261 . S
N344 Co295 2.214 . S
N344 C342 1.325 1_554 S
N344 C343 1.261 . S
C345 H315 0.931 . S
C345 C342 1.357 . S
C345 C346 1.312 1_556 S
C346 H317 0.930 1_554 S
C346 C341 1.261 . S
C346 C345 1.312 1_554 S
C347 O319 1.214 . S
C347 O327 1.234 1_554 S
C348 H320 0.929 . S
C348 C351 1.391 . S
C348 C353 1.391 . S
C349 H321 0.929 . S
C349 C350 1.390 . S
C349 N352 1.391 . S
C350 H322 0.930 . S
C350 C349 1.390 . S
C350 C351 1.392 . S
C351 H323 0.929 . S
C351 C348 1.391 . S
C351 C350 1.392 . S
N352 Co296 2.257 1_554 S
N352 C349 1.391 . S
N352 C353 1.388 . S
C353 H324 0.930 . S
C353 C348 1.391 . S
C353 N352 1.388 . S
Co354 O356 2.143 . S
Co354 O362 2.074 . S
Co354 O365 2.093 . S
Co354 O378 2.097 . S
Co354 N395 2.151 . S
Co354 N403 2.214 . S
Co355 O356 2.160 . S
Co355 O361 2.058 . S
Co355 O371 2.057 . S
Co355 O386 2.037 . S
Co355 N390 2.145 . S
Co355 N411 2.257 . S
O356 Co354 2.143 . S
O356 Co355 2.160 . S
C357 O358 1.278 . S
C357 O365 1.224 . S
O358 C357 1.278 . S
C359 O360 1.245 . S
C359 O371 1.232 . S
O360 C359 1.245 . S
O361 Co355 2.058 . S
O361 C387 1.269 . S
O362 Co354 2.074 . S
O362 C387 1.257 . S
H363 C388 0.930 . S
H364 C394 0.930 . S
O365 Co354 2.093 . S
O365 C357 1.224 . S
H366 C398 0.929 . S
H367 C400 0.930 . S
H368 C401 0.930 . S
H369 C399 0.929 . S
H370 C402 0.928 . S
O371 Co355 2.057 . S
O371 C359 1.232 . S
H372 C391 0.929 . S
H373 C392 0.929 . S
H374 C404 0.931 . S
H375 C396 0.929 . S
H376 C405 0.930 . S
H377 C397 0.931 . S
O378 Co354 2.097 . S
O378 C406 1.214 . S
H379 C407 0.929 . S
H380 C408 0.929 . S
H381 C409 0.930 . S
H382 C410 0.929 . S
H383 C412 0.930 . S
H384 C389 0.930 . S
H385 C393 0.930 . S
O386 Co355 2.037 . S
O386 C406 1.234 . S
C387 O361 1.269 . S
C387 O362 1.257 . S
C388 H363 0.930 . S
C388 C391 1.388 . S
C388 C393 1.418 . S
C389 H384 0.930 . S
C389 C392 1.404 . S
C389 C393 1.353 . S
N390 Co355 2.145 . S
N390 C391 1.397 . S
N390 C392 1.334 . S
C391 H372 0.929 . S
C391 C388 1.388 . S
C391 N390 1.397 . S
C392 H373 0.929 . S
C392 C389 1.404 . S
C392 N390 1.334 . S
C393 H385 0.930 . S
C393 C388 1.418 . S
C393 C389 1.353 . S
C394 H364 0.930 . S
C394 N395 1.330 . S
C394 C396 1.446 . S
N395 Co354 2.151 . S
N395 C394 1.330 . S
N395 C399 1.418 . S
C396 H375 0.929 . S
C396 C394 1.446 . S
C396 C397 1.332 . S
C397 H377 0.931 . S
C397 C396 1.332 . S
C397 C398 1.267 . S
C398 H366 0.929 . S
C398 C397 1.267 . S
C398 C399 1.251 . S
C399 H369 0.929 . S
C399 N395 1.418 . S
C399 C398 1.251 . S
C400 H367 0.930 . S
C400 C402 1.406 . S
C400 C405 1.261 . S
C401 H368 0.930 . S
C401 N403 1.325 . S
C401 C404 1.357 . S
C402 H370 0.928 . S
C402 C400 1.406 . S
C402 N403 1.261 . S
N403 Co354 2.214 . S
N403 C401 1.325 . S
N403 C402 1.261 . S
C404 H374 0.931 . S
C404 C401 1.357 . S
C404 C405 1.312 . S
C405 H376 0.930 . S
C405 C400 1.261 . S
C405 C404 1.312 . S
C406 O378 1.214 . S
C406 O386 1.234 . S
C407 H379 0.929 . S
C407 C410 1.391 . S
C407 C412 1.391 . S
C408 H380 0.929 . S
C408 C409 1.390 . S
C408 N411 1.391 . S
C409 H381 0.930 . S
C409 C408 1.390 . S
C409 C410 1.392 . S
C410 H382 0.929 . S
C410 C407 1.391 . S
C410 C409 1.392 . S
N411 Co355 2.257 . S
N411 C408 1.391 . S
N411 C412 1.388 . S
C412 H383 0.930 . S
C412 C407 1.391 . S
C412 N411 1.388 . S
Co413 O415 2.143 . S
Co413 O421 2.074 1_554 S
Co413 O424 2.093 . S
Co413 O437 2.097 . S
Co413 N454 2.151 . S
Co413 N462 2.214 . S
Co414 O415 2.160 1_556 S
Co414 O420 2.058 . S
Co414 O430 2.057 . S
Co414 O445 2.037 . S
Co414 N449 2.145 . S
Co414 N470 2.257 1_556 S
O415 Co413 2.143 . S
O415 Co414 2.160 1_554 S
C416 O417 1.278 . S
C416 O424 1.224 . S
O417 C416 1.278 . S
C418 O419 1.245 . S
C418 O430 1.232 1_554 S
O419 C418 1.245 . S
O420 Co414 2.058 . S
O420 C446 1.269 . S
O421 Co413 2.074 1_556 S
O421 C446 1.257 . S
H422 C447 0.930 . S
H423 C453 0.930 . S
O424 Co413 2.093 . S
O424 C416 1.224 . S
H425 C457 0.929 . S
H426 C459 0.930 . S
H427 C460 0.930 . S
H428 C458 0.929 . S
H429 C461 0.928 . S
O430 Co414 2.057 . S
O430 C418 1.232 1_556 S
H431 C450 0.929 . S
H432 C451 0.929 . S
H433 C463 0.931 . S
H434 C455 0.929 . S
H435 C464 0.930 1_556 S
H436 C456 0.931 . S
O437 Co413 2.097 . S
O437 C465 1.214 . S
H438 C466 0.929 . S
H439 C467 0.929 . S
H440 C468 0.930 . S
H441 C469 0.929 . S
H442 C471 0.930 . S
H443 C448 0.930 . S
H444 C452 0.930 . S
O445 Co414 2.037 . S
O445 C465 1.234 1_556 S
C446 O420 1.269 . S
C446 O421 1.257 . S
C447 H422 0.930 . S
C447 C450 1.388 . S
C447 C452 1.418 . S
C448 H443 0.930 . S
C448 C451 1.404 . S
C448 C452 1.353 . S
N449 Co414 2.145 . S
N449 C450 1.397 . S
N449 C451 1.334 . S
C450 H431 0.929 . S
C450 C447 1.388 . S
C450 N449 1.397 . S
C451 H432 0.929 . S
C451 C448 1.404 . S
C451 N449 1.334 . S
C452 H444 0.930 . S
C452 C447 1.418 . S
C452 C448 1.353 . S
C453 H423 0.930 . S
C453 N454 1.330 . S
C453 C455 1.446 . S
N454 Co413 2.151 . S
N454 C453 1.330 . S
N454 C458 1.418 1_554 S
C455 H434 0.929 . S
C455 C453 1.446 . S
C455 C456 1.332 . S
C456 H436 0.931 . S
C456 C455 1.332 . S
C456 C457 1.267 1_554 S
C457 H425 0.929 . S
C457 C456 1.267 1_556 S
C457 C458 1.251 . S
C458 H428 0.929 . S
C458 N454 1.418 1_556 S
C458 C457 1.251 . S
C459 H426 0.930 . S
C459 C461 1.406 . S
C459 C464 1.261 . S
C460 H427 0.930 . S
C460 N462 1.325 1_556 S
C460 C463 1.357 . S
C461 H429 0.928 . S
C461 C459 1.406 . S
C461 N462 1.261 . S
N462 Co413 2.214 . S
N462 C460 1.325 1_554 S
N462 C461 1.261 . S
C463 H433 0.931 . S
C463 C460 1.357 . S
C463 C464 1.312 1_556 S
C464 H435 0.930 1_554 S
C464 C459 1.261 . S
C464 C463 1.312 1_554 S
C465 O437 1.214 . S
C465 O445 1.234 1_554 S
C466 H438 0.929 . S
C466 C469 1.391 . S
C466 C471 1.391 . S
C467 H439 0.929 . S
C467 C468 1.390 . S
C467 N470 1.391 . S
C468 H440 0.930 . S
C468 C467 1.390 . S
C468 C469 1.392 . S
C469 H441 0.929 . S
C469 C466 1.391 . S
C469 C468 1.392 . S
N470 Co414 2.257 1_554 S
N470 C467 1.391 . S
N470 C471 1.388 . S
C471 H442 0.930 . S
C471 C466 1.391 . S
C471 N470 1.388 . S
H472 C480 0.950 . S
H473 C485 0.950 . S
H474 C482 0.950 . S
H475 C484 0.950 . S
H476 C486 0.950 . S
H477 C488 0.950 . S
H478 C490 0.950 . S
H479 C491 0.950 . S
C480 H472 0.950 . S
C480 C481 1.386 . S
C480 C482 1.391 . S
C481 C480 1.386 . S
C481 C485 1.393 . S
C482 H474 0.950 . S
C482 C480 1.391 . S
C482 C483 1.400 . S
C483 C482 1.400 . S
C483 C484 1.398 . S
C483 C489 1.491 . S
C484 H475 0.950 . S
C484 C483 1.398 . S
C484 C485 1.391 . S
C485 H473 0.950 . S
C485 C481 1.393 . S
C485 C484 1.391 . S
C486 H476 0.950 . S
C486 C487 1.386 . S
C486 C488 1.391 . S
C487 C486 1.386 . S
C487 C491 1.393 . S
C488 H477 0.950 . S
C488 C486 1.391 . S
C488 C489 1.400 . S
C489 C483 1.491 . S
C489 C488 1.400 . S
C489 C490 1.398 . S
C490 H478 0.950 . S
C490 C489 1.398 . S
C490 C491 1.391 . S
C491 H479 0.950 . S
C491 C487 1.393 . S
C491 C490 1.391 . S
H492 C500 0.950 . S
H493 C505 0.950 . S
H494 C502 0.950 . S
H495 C504 0.950 . S
H496 C506 0.950 . S
H497 C508 0.950 . S
H498 C510 0.950 . S
H499 C511 0.950 . S
C500 H492 0.950 . S
C500 C501 1.386 . S
C500 C502 1.391 . S
C501 C500 1.386 . S
C501 C505 1.393 . S
C502 H494 0.950 . S
C502 C500 1.391 . S
C502 C503 1.400 . S
C503 C502 1.400 . S
C503 C504 1.398 . S
C503 C509 1.491 . S
C504 H495 0.950 . S
C504 C503 1.398 . S
C504 C505 1.391 . S
C505 H493 0.950 . S
C505 C501 1.393 . S
C505 C504 1.391 . S
C506 H496 0.950 . S
C506 C507 1.386 . S
C506 C508 1.391 . S
C507 C506 1.386 . S
C507 C511 1.393 . S
C508 H497 0.950 . S
C508 C506 1.391 . S
C508 C509 1.400 . S
C509 C503 1.491 . S
C509 C508 1.400 . S
C509 C510 1.398 . S
C510 H498 0.950 . S
C510 C509 1.398 . S
C510 C511 1.391 . S
C511 H499 0.950 . S
C511 C507 1.393 . S
C511 C510 1.391 . S
H512 C520 0.950 . S
H513 C525 0.950 . S
H514 C522 0.950 . S
H515 C524 0.950 . S
H516 C526 0.950 . S
H517 C528 0.950 . S
H518 C530 0.950 . S
H519 C531 0.950 . S
C520 H512 0.950 . S
C520 C521 1.386 . S
C520 C522 1.391 . S
C521 C520 1.386 . S
C521 C525 1.393 . S
C522 H514 0.950 . S
C522 C520 1.391 . S
C522 C523 1.400 . S
C523 C522 1.400 . S
C523 C524 1.398 . S
C523 C529 1.491 . S
C524 H515 0.950 . S
C524 C523 1.398 . S
C524 C525 1.391 . S
C525 H513 0.950 . S
C525 C521 1.393 . S
C525 C524 1.391 . S
C526 H516 0.950 . S
C526 C527 1.386 . S
C526 C528 1.391 . S
C527 C526 1.386 . S
C527 C531 1.393 . S
C528 H517 0.950 . S
C528 C526 1.391 . S
C528 C529 1.400 . S
C529 C523 1.491 . S
C529 C528 1.400 . S
C529 C530 1.398 . S
C530 H518 0.950 . S
C530 C529 1.398 . S
C530 C531 1.391 . S
C531 H519 0.950 . S
C531 C527 1.393 . S
C531 C530 1.391 . S
H532 C540 0.950 . S
H533 C545 0.950 . S
H534 C542 0.950 . S
H535 C544 0.950 . S
H536 C546 0.950 . S
H537 C548 0.950 . S
H538 C550 0.950 . S
H539 C551 0.950 . S
C540 H532 0.950 . S
C540 C541 1.386 . S
C540 C542 1.391 . S
C541 C540 1.386 . S
C541 C545 1.393 . S
C542 H534 0.950 . S
C542 C540 1.391 . S
C542 C543 1.400 . S
C543 C542 1.400 . S
C543 C544 1.398 . S
C543 C549 1.491 . S
C544 H535 0.950 . S
C544 C543 1.398 . S
C544 C545 1.391 . S
C545 H533 0.950 . S
C545 C541 1.393 . S
C545 C544 1.391 . S
C546 H536 0.950 . S
C546 C547 1.386 . S
C546 C548 1.391 . S
C547 C546 1.386 . S
C547 C551 1.393 . S
C548 H537 0.950 . S
C548 C546 1.391 . S
C548 C549 1.400 . S
C549 C543 1.491 . S
C549 C548 1.400 . S
C549 C550 1.398 . S
C550 H538 0.950 . S
C550 C549 1.398 . S
C550 C551 1.391 . S
C551 H539 0.950 . S
C551 C547 1.393 . S
C551 C550 1.391 . S
H552 C560 0.950 . S
H553 C565 0.950 . S
H554 C562 0.950 . S
H555 C564 0.950 . S
H556 C566 0.950 . S
H557 C568 0.950 . S
H558 C570 0.950 . S
H559 C571 0.950 . S
C560 H552 0.950 . S
C560 C561 1.386 . S
C560 C562 1.391 . S
C561 C560 1.386 . S
C561 C565 1.393 . S
C562 H554 0.950 . S
C562 C560 1.391 . S
C562 C563 1.400 . S
C563 C562 1.400 . S
C563 C564 1.398 . S
C563 C569 1.491 . S
C564 H555 0.950 . S
C564 C563 1.398 . S
C564 C565 1.391 . S
C565 H553 0.950 . S
C565 C561 1.393 . S
C565 C564 1.391 . S
C566 H556 0.950 . S
C566 C567 1.386 . S
C566 C568 1.391 . S
C567 C566 1.386 . S
C567 C571 1.393 . S
C568 H557 0.950 . S
C568 C566 1.391 . S
C568 C569 1.400 . S
C569 C563 1.491 . S
C569 C568 1.400 . S
C569 C570 1.398 . S
C570 H558 0.950 . S
C570 C569 1.398 . S
C570 C571 1.391 . S
C571 H559 0.950 . S
C571 C567 1.393 . S
C571 C570 1.391 . S
H572 C580 0.950 . S
H573 C585 0.950 . S
H574 C582 0.950 . S
H575 C584 0.950 . S
H576 C586 0.950 . S
H577 C588 0.950 . S
H578 C590 0.950 . S
H579 C591 0.950 . S
C580 H572 0.950 . S
C580 C581 1.386 . S
C580 C582 1.391 . S
C581 C580 1.386 . S
C581 C585 1.393 . S
C582 H574 0.950 . S
C582 C580 1.391 . S
C582 C583 1.400 . S
C583 C582 1.400 . S
C583 C584 1.398 . S
C583 C589 1.491 . S
C584 H575 0.950 . S
C584 C583 1.398 . S
C584 C585 1.391 . S
C585 H573 0.950 . S
C585 C581 1.393 . S
C585 C584 1.391 . S
C586 H576 0.950 . S
C586 C587 1.386 . S
C586 C588 1.391 . S
C587 C586 1.386 . S
C587 C591 1.393 . S
C588 H577 0.950 . S
C588 C586 1.391 . S
C588 C589 1.400 . S
C589 C583 1.491 . S
C589 C588 1.400 . S
C589 C590 1.398 . S
C590 H578 0.950 . S
C590 C589 1.398 . S
C590 C591 1.391 . S
C591 H579 0.950 . S
C591 C587 1.393 . S
C591 C590 1.391 . S
H592 C600 0.950 . S
H593 C605 0.950 . S
H594 C602 0.950 . S
H595 C604 0.950 . S
H596 C606 0.950 . S
H597 C608 0.950 . S
H598 C610 0.950 . S
H599 C611 0.950 . S
C600 H592 0.950 . S
C600 C601 1.386 . S
C600 C602 1.391 . S
C601 C600 1.386 . S
C601 C605 1.393 . S
C602 H594 0.950 . S
C602 C600 1.391 . S
C602 C603 1.400 . S
C603 C602 1.400 . S
C603 C604 1.398 . S
C603 C609 1.491 . S
C604 H595 0.950 . S
C604 C603 1.398 . S
C604 C605 1.391 . S
C605 H593 0.950 . S
C605 C601 1.393 . S
C605 C604 1.391 . S
C606 H596 0.950 . S
C606 C607 1.386 . S
C606 C608 1.391 . S
C607 C606 1.386 . S
C607 C611 1.393 . S
C608 H597 0.950 . S
C608 C606 1.391 . S
C608 C609 1.400 . S
C609 C603 1.491 . S
C609 C608 1.400 . S
C609 C610 1.398 . S
C610 H598 0.950 . S
C610 C609 1.398 . S
C610 C611 1.391 . S
C611 H599 0.950 . S
C611 C607 1.393 . S
C611 C610 1.391 . S
H612 C620 0.950 . S
H613 C625 0.950 . S
H614 C622 0.950 . S
H615 C624 0.950 . S
H616 C626 0.950 . S
H617 C628 0.950 . S
H618 C630 0.950 . S
H619 C631 0.950 . S
C620 H612 0.950 . S
C620 C621 1.386 . S
C620 C622 1.391 . S
C621 C620 1.386 . S
C621 C625 1.393 . S
C622 H614 0.950 . S
C622 C620 1.391 . S
C622 C623 1.400 . S
C623 C622 1.400 . S
C623 C624 1.398 . S
C623 C629 1.491 . S
C624 H615 0.950 . S
C624 C623 1.398 . S
C624 C625 1.391 . S
C625 H613 0.950 . S
C625 C621 1.393 . S
C625 C624 1.391 . S
C626 H616 0.950 . S
C626 C627 1.386 . S
C626 C628 1.391 . S
C627 C626 1.386 . S
C627 C631 1.393 . S
C628 H617 0.950 . S
C628 C626 1.391 . S
C628 C629 1.400 . S
C629 C623 1.491 . S
C629 C628 1.400 . S
C629 C630 1.398 . S
C630 H618 0.950 . S
C630 C629 1.398 . S
C630 C631 1.391 . S
C631 H619 0.950 . S
C631 C627 1.393 . S
C631 C630 1.391 . S
H632 C640 0.950 . S
H633 C645 0.950 . S
H634 C642 0.950 . S
H635 C644 0.950 . S
H636 C646 0.950 . S
H637 C648 0.950 . S
H638 C650 0.950 . S
H639 C651 0.950 . S
C640 H632 0.950 . S
C640 C641 1.386 . S
C640 C642 1.391 . S
C641 C640 1.386 . S
C641 C645 1.393 . S
C642 H634 0.950 . S
C642 C640 1.391 . S
C642 C643 1.400 . S
C643 C642 1.400 . S
C643 C644 1.398 . S
C643 C649 1.491 1_655 S
C644 H635 0.950 . S
C644 C643 1.398 . S
C644 C645 1.391 . S
C645 H633 0.950 . S
C645 C641 1.393 . S
C645 C644 1.391 . S
C646 H636 0.950 . S
C646 C647 1.386 . S
C646 C648 1.391 . S
C647 C646 1.386 . S
C647 C651 1.393 . S
C648 H637 0.950 . S
C648 C646 1.391 . S
C648 C649 1.400 . S
C649 C643 1.491 1_455 S
C649 C648 1.400 . S
C649 C650 1.398 . S
C650 H638 0.950 . S
C650 C649 1.398 . S
C650 C651 1.391 . S
C651 H639 0.950 . S
C651 C647 1.393 . S
C651 C650 1.391 . S
H652 C660 0.950 . S
H653 C665 0.950 . S
H654 C662 0.950 . S
H655 C664 0.950 . S
H656 C666 0.950 . S
H657 C668 0.950 . S
H658 C670 0.950 . S
H659 C671 0.950 . S
C660 H652 0.950 . S
C660 C661 1.386 . S
C660 C662 1.391 . S
C661 C660 1.386 . S
C661 C665 1.393 . S
C662 H654 0.950 . S
C662 C660 1.391 . S
C662 C663 1.400 . S
C663 C662 1.400 . S
C663 C664 1.398 . S
C663 C669 1.491 1_565 S
C664 H655 0.950 . S
C664 C663 1.398 . S
C664 C665 1.391 . S
C665 H653 0.950 . S
C665 C661 1.393 . S
C665 C664 1.391 . S
C666 H656 0.950 . S
C666 C667 1.386 . S
C666 C668 1.391 . S
C667 C666 1.386 . S
C667 C671 1.393 . S
C668 H657 0.950 . S
C668 C666 1.391 . S
C668 C669 1.400 . S
C669 C663 1.491 1_545 S
C669 C668 1.400 . S
C669 C670 1.398 . S
C670 H658 0.950 . S
C670 C669 1.398 . S
C670 C671 1.391 . S
C671 H659 0.950 . S
C671 C667 1.393 . S
C671 C670 1.391 . S
H672 C680 0.950 . S
H673 C685 0.950 . S
H674 C682 0.950 . S
H675 C684 0.950 . S
H676 C686 0.950 . S
H677 C688 0.950 . S
H678 C690 0.950 . S
H679 C691 0.950 . S
C680 H672 0.950 . S
C680 C681 1.386 . S
C680 C682 1.391 . S
C681 C680 1.386 . S
C681 C685 1.393 . S
C682 H674 0.950 . S
C682 C680 1.391 . S
C682 C683 1.400 . S
C683 C682 1.400 . S
C683 C684 1.398 . S
C683 C689 1.491 1_455 S
C684 H675 0.950 . S
C684 C683 1.398 . S
C684 C685 1.391 . S
C685 H673 0.950 . S
C685 C681 1.393 . S
C685 C684 1.391 . S
C686 H676 0.950 . S
C686 C687 1.386 . S
C686 C688 1.391 . S
C687 C686 1.386 . S
C687 C691 1.393 . S
C688 H677 0.950 . S
C688 C686 1.391 . S
C688 C689 1.400 . S
C689 C683 1.491 1_655 S
C689 C688 1.400 . S
C689 C690 1.398 . S
C690 H678 0.950 . S
C690 C689 1.398 . S
C690 C691 1.391 . S
C691 H679 0.950 . S
C691 C687 1.393 . S
C691 C690 1.391 . S
H692 C700 0.950 . S
H693 C705 0.950 . S
H694 C702 0.950 . S
H695 C704 0.950 . S
H696 C706 0.950 . S
H697 C708 0.950 . S
H698 C710 0.950 . S
H699 C711 0.950 . S
C700 H692 0.950 . S
C700 C701 1.386 1_556 S
C700 C702 1.391 . S
C701 C700 1.386 1_554 S
C701 C705 1.393 . S
C702 H694 0.950 . S
C702 C700 1.391 . S
C702 C703 1.400 1_556 S
C703 C702 1.400 1_554 S
C703 C704 1.398 . S
C703 C709 1.491 1_565 S
C704 H695 0.950 . S
C704 C703 1.398 . S
C704 C705 1.391 . S
C705 H693 0.950 . S
C705 C701 1.393 . S
C705 C704 1.391 . S
C706 H696 0.950 . S
C706 C707 1.386 . S
C706 C708 1.391 . S
C707 C706 1.386 . S
C707 C711 1.393 1_554 S
C708 H697 0.950 . S
C708 C706 1.391 . S
C708 C709 1.400 . S
C709 C703 1.491 1_545 S
C709 C708 1.400 . S
C709 C710 1.398 1_554 S
C710 H698 0.950 . S
C710 C709 1.398 1_556 S
C710 C711 1.391 . S
C711 H699 0.950 . S
C711 C707 1.393 1_556 S
C711 C710 1.391 . S
H712 C720 0.950 . S
H713 C725 0.950 . S
H714 C722 0.950 . S
H715 C724 0.950 . S
H716 C726 0.950 . S
H717 C728 0.950 . S
H718 C730 0.950 . S
H719 C731 0.950 . S
C720 H712 0.950 . S
C720 C721 1.386 1_556 S
C720 C722 1.391 . S
C721 C720 1.386 1_554 S
C721 C725 1.393 . S
C722 H714 0.950 . S
C722 C720 1.391 . S
C722 C723 1.400 1_556 S
C723 C722 1.400 1_554 S
C723 C724 1.398 . S
C723 C729 1.491 . S
C724 H715 0.950 . S
C724 C723 1.398 . S
C724 C725 1.391 . S
C725 H713 0.950 . S
C725 C721 1.393 . S
C725 C724 1.391 . S
C726 H716 0.950 . S
C726 C727 1.386 . S
C726 C728 1.391 . S
C727 C726 1.386 . S
C727 C731 1.393 1_554 S
C728 H717 0.950 . S
C728 C726 1.391 . S
C728 C729 1.400 . S
C729 C723 1.491 . S
C729 C728 1.400 . S
C729 C730 1.398 1_554 S
C730 H718 0.950 . S
C730 C729 1.398 1_556 S
C730 C731 1.391 . S
C731 H719 0.950 . S
C731 C727 1.393 1_556 S
C731 C730 1.391 . S
H732 C740 0.950 . S
H733 C745 0.950 . S
H734 C742 0.950 . S
H735 C744 0.950 . S
H736 C746 0.950 . S
H737 C748 0.950 . S
H738 C750 0.950 . S
H739 C751 0.950 . S
C740 H732 0.950 . S
C740 C741 1.386 . S
C740 C742 1.391 . S
C741 C740 1.386 . S
C741 C745 1.393 . S
C742 H734 0.950 . S
C742 C740 1.391 . S
C742 C743 1.400 . S
C743 C742 1.400 . S
C743 C744 1.398 . S
C743 C749 1.491 . S
C744 H735 0.950 . S
C744 C743 1.398 . S
C744 C745 1.391 . S
C745 H733 0.950 . S
C745 C741 1.393 . S
C745 C744 1.391 . S
C746 H736 0.950 . S
C746 C747 1.386 . S
C746 C748 1.391 . S
C747 C746 1.386 . S
C747 C751 1.393 . S
C748 H737 0.950 . S
C748 C746 1.391 . S
C748 C749 1.400 . S
C749 C743 1.491 . S
C749 C748 1.400 . S
C749 C750 1.398 . S
C750 H738 0.950 . S
C750 C749 1.398 . S
C750 C751 1.391 . S
C751 H739 0.950 . S
C751 C747 1.393 . S
C751 C750 1.391 . S
H752 C760 0.950 . S
H753 C765 0.950 . S
H754 C762 0.950 . S
H755 C764 0.950 . S
H756 C766 0.950 . S
H757 C768 0.950 . S
H758 C770 0.950 1_556 S
H759 C771 0.956 . S
C760 H752 0.950 . S
C760 C761 1.386 . S
C760 C762 1.391 . S
C761 C760 1.386 . S
C761 C765 1.393 . S
C762 H754 0.950 . S
C762 C760 1.391 . S
C762 C763 1.400 . S
C763 C762 1.400 . S
C763 C764 1.398 . S
C763 C769 1.491 . S
C764 H755 0.950 . S
C764 C763 1.398 . S
C764 C765 1.391 . S
C765 H753 0.950 . S
C765 C761 1.393 . S
C765 C764 1.391 . S
C766 H756 0.950 . S
C766 C767 1.386 . S
C766 C768 1.391 . S
C767 C766 1.386 . S
C767 C771 1.388 1_554 S
C768 H757 0.950 . S
C768 C766 1.391 . S
C768 C769 1.400 . S
C769 C763 1.491 . S
C769 C768 1.400 . S
C769 C770 1.398 . S
C770 H758 0.950 1_554 S
C770 C769 1.398 . S
C770 C771 1.389 1_554 S
C771 H759 0.956 . S
C771 C767 1.388 1_556 S
C771 C770 1.389 1_556 S
H772 C780 0.950 . S
H773 C785 0.950 . S
H774 C782 0.950 . S
H775 C784 0.950 . S
H776 C786 0.950 . S
H777 C788 0.950 . S
H778 C790 0.950 . S
H779 C791 0.950 . S
C780 H772 0.950 . S
C780 C781 1.386 . S
C780 C782 1.391 . S
C781 C780 1.386 . S
C781 C785 1.393 . S
C782 H774 0.950 . S
C782 C780 1.391 . S
C782 C783 1.400 . S
C783 C782 1.400 . S
C783 C784 1.398 . S
C783 C789 1.491 . S
C784 H775 0.950 . S
C784 C783 1.398 . S
C784 C785 1.391 . S
C785 H773 0.950 . S
C785 C781 1.393 . S
C785 C784 1.391 . S
C786 H776 0.950 . S
C786 C787 1.386 . S
C786 C788 1.391 . S
C787 C786 1.386 . S
C787 C791 1.393 . S
C788 H777 0.950 . S
C788 C786 1.391 . S
C788 C789 1.400 . S
C789 C783 1.491 . S
C789 C788 1.400 . S
C789 C790 1.398 . S
C790 H778 0.950 . S
C790 C789 1.398 . S
C790 C791 1.391 . S
C791 H779 0.950 . S
C791 C787 1.393 . S
C791 C790 1.391 . S
C481 C33 1.505 . S
C487 C269 1.507 . S
C501 C92 1.507 . S
C507 C328 1.507 . S
C521 C387 1.497 . S
C527 C151 1.500 . S
C541 C446 1.508 . S
C547 C210 1.503 . S
C561 C357 1.245 . S
C567 C121 1.241 . S
C581 C416 1.232 . S
C587 C180 1.250 . S
C601 C3 1.242 . S
C607 C239 1.244 . S
C621 C62 1.246 . S
C627 C298 1.240 . S
C641 C170 1.413 . S
C647 C52 1.419 . S
C661 C229 1.413 . S
C667 C111 1.408 . S
C681 C288 1.411 . S
C687 C406 1.419 . S
C701 C465 1.413 . S
C707 C347 1.408 . S
C721 C5 1.438 . S
C727 C300 1.443 . S
C741 C359 1.442 . S
C747 C64 1.437 . S
C761 C123 1.441 . S
C767 C418 1.442 . S
C781 C182 1.442 . S
C787 C241 1.441 . S
