# Generated by pormake.
# Topology svb, (7)-cn, num edge types: 1
# Building blocks:
#     Node 0, Type 0, BuildingBlock: NUHQUE_clean_sbu_2, # of connection points: 7
#     Node 1, Type 0, BuildingBlock: NUHQUE_clean_sbu_2, # of connection points: 7
#     Node 2, Type 0, BuildingBlock: NUHQUE_clean_sbu_2, # of connection points: 7
#     Node 3, Type 0, BuildingBlock: NUHQUE_clean_sbu_2, # of connection points: 7
#     Node 4, Type 0, BuildingBlock: NUHQUE_clean_sbu_2, # of connection points: 7
#     Node 5, Type 0, BuildingBlock: NUHQUE_clean_sbu_2, # of connection points: 7
#     Node 6, Type 0, BuildingBlock: NUHQUE_clean_sbu_2, # of connection points: 7
#     Node 7, Type 0, BuildingBlock: NUHQUE_clean_sbu_2, # of connection points: 7
#     Node 8, Type 0, BuildingBlock: NUHQUE_clean_sbu_2, # of connection points: 7
#     Node 9, Type 0, BuildingBlock: NUHQUE_clean_sbu_2, # of connection points: 7
#     Node 10, Type 0, BuildingBlock: NUHQUE_clean_sbu_2, # of connection points: 7
#     Node 11, Type 0, BuildingBlock: NUHQUE_clean_sbu_2, # of connection points: 7
#     Node 12, Type 0, BuildingBlock: NUHQUE_clean_sbu_2, # of connection points: 7
#     Node 13, Type 0, BuildingBlock: NUHQUE_clean_sbu_2, # of connection points: 7
#     Node 14, Type 0, BuildingBlock: NUHQUE_clean_sbu_2, # of connection points: 7
#     Node 15, Type 0, BuildingBlock: NUHQUE_clean_sbu_2, # of connection points: 7
#     Edge 16, Type (0, 0), BuildingBlock: ZUJKAS_clean_linker_0, # of connection points: 2
#     Edge 17, Type (0, 0), BuildingBlock: ZUJKAS_clean_linker_0, # of connection points: 2
#     Edge 18, Type (0, 0), BuildingBlock: ZUJKAS_clean_linker_0, # of connection points: 2
#     Edge 19, Type (0, 0), BuildingBlock: ZUJKAS_clean_linker_0, # of connection points: 2
#     Edge 20, Type (0, 0), BuildingBlock: ZUJKAS_clean_linker_0, # of connection points: 2
#     Edge 21, Type (0, 0), BuildingBlock: ZUJKAS_clean_linker_0, # of connection points: 2
#     Edge 22, Type (0, 0), BuildingBlock: ZUJKAS_clean_linker_0, # of connection points: 2
#     Edge 23, Type (0, 0), BuildingBlock: ZUJKAS_clean_linker_0, # of connection points: 2
#     Edge 24, Type (0, 0), BuildingBlock: ZUJKAS_clean_linker_0, # of connection points: 2
#     Edge 25, Type (0, 0), BuildingBlock: ZUJKAS_clean_linker_0, # of connection points: 2
#     Edge 26, Type (0, 0), BuildingBlock: ZUJKAS_clean_linker_0, # of connection points: 2
#     Edge 27, Type (0, 0), BuildingBlock: ZUJKAS_clean_linker_0, # of connection points: 2
#     Edge 28, Type (0, 0), BuildingBlock: ZUJKAS_clean_linker_0, # of connection points: 2
#     Edge 29, Type (0, 0), BuildingBlock: ZUJKAS_clean_linker_0, # of connection points: 2
#     Edge 30, Type (0, 0), BuildingBlock: ZUJKAS_clean_linker_0, # of connection points: 2
#     Edge 31, Type (0, 0), BuildingBlock: ZUJKAS_clean_linker_0, # of connection points: 2
#     Edge 32, Type (0, 0), BuildingBlock: ZUJKAS_clean_linker_0, # of connection points: 2
#     Edge 33, Type (0, 0), BuildingBlock: ZUJKAS_clean_linker_0, # of connection points: 2
#     Edge 34, Type (0, 0), BuildingBlock: ZUJKAS_clean_linker_0, # of connection points: 2
#     Edge 35, Type (0, 0), BuildingBlock: ZUJKAS_clean_linker_0, # of connection points: 2
#     Edge 36, Type (0, 0), BuildingBlock: ZUJKAS_clean_linker_0, # of connection points: 2
#     Edge 37, Type (0, 0), BuildingBlock: ZUJKAS_clean_linker_0, # of connection points: 2
#     Edge 38, Type (0, 0), BuildingBlock: ZUJKAS_clean_linker_0, # of connection points: 2
#     Edge 39, Type (0, 0), BuildingBlock: ZUJKAS_clean_linker_0, # of connection points: 2
#     Edge 40, Type (0, 0), BuildingBlock: ZUJKAS_clean_linker_0, # of connection points: 2
#     Edge 41, Type (0, 0), BuildingBlock: ZUJKAS_clean_linker_0, # of connection points: 2
#     Edge 42, Type (0, 0), BuildingBlock: ZUJKAS_clean_linker_0, # of connection points: 2
#     Edge 43, Type (0, 0), BuildingBlock: ZUJKAS_clean_linker_0, # of connection points: 2
#     Edge 44, Type (0, 0), BuildingBlock: ZUJKAS_clean_linker_0, # of connection points: 2
#     Edge 45, Type (0, 0), BuildingBlock: ZUJKAS_clean_linker_0, # of connection points: 2
#     Edge 46, Type (0, 0), BuildingBlock: ZUJKAS_clean_linker_0, # of connection points: 2
#     Edge 47, Type (0, 0), BuildingBlock: ZUJKAS_clean_linker_0, # of connection points: 2
#     Edge 48, Type (0, 0), BuildingBlock: ZUJKAS_clean_linker_0, # of connection points: 2
#     Edge 49, Type (0, 0), BuildingBlock: ZUJKAS_clean_linker_0, # of connection points: 2
#     Edge 50, Type (0, 0), BuildingBlock: ZUJKAS_clean_linker_0, # of connection points: 2
#     Edge 51, Type (0, 0), BuildingBlock: ZUJKAS_clean_linker_0, # of connection points: 2
#     Edge 52, Type (0, 0), BuildingBlock: ZUJKAS_clean_linker_0, # of connection points: 2
#     Edge 53, Type (0, 0), BuildingBlock: ZUJKAS_clean_linker_0, # of connection points: 2
#     Edge 54, Type (0, 0), BuildingBlock: ZUJKAS_clean_linker_0, # of connection points: 2
#     Edge 55, Type (0, 0), BuildingBlock: ZUJKAS_clean_linker_0, # of connection points: 2
#     Edge 56, Type (0, 0), BuildingBlock: ZUJKAS_clean_linker_0, # of connection points: 2
#     Edge 57, Type (0, 0), BuildingBlock: ZUJKAS_clean_linker_0, # of connection points: 2
#     Edge 58, Type (0, 0), BuildingBlock: ZUJKAS_clean_linker_0, # of connection points: 2
#     Edge 59, Type (0, 0), BuildingBlock: ZUJKAS_clean_linker_0, # of connection points: 2
#     Edge 60, Type (0, 0), BuildingBlock: ZUJKAS_clean_linker_0, # of connection points: 2
#     Edge 61, Type (0, 0), BuildingBlock: ZUJKAS_clean_linker_0, # of connection points: 2
#     Edge 62, Type (0, 0), BuildingBlock: ZUJKAS_clean_linker_0, # of connection points: 2
#     Edge 63, Type (0, 0), BuildingBlock: ZUJKAS_clean_linker_0, # of connection points: 2
#     Edge 64, Type (0, 0), BuildingBlock: ZUJKAS_clean_linker_0, # of connection points: 2
#     Edge 65, Type (0, 0), BuildingBlock: ZUJKAS_clean_linker_0, # of connection points: 2
#     Edge 66, Type (0, 0), BuildingBlock: ZUJKAS_clean_linker_0, # of connection points: 2
#     Edge 67, Type (0, 0), BuildingBlock: ZUJKAS_clean_linker_0, # of connection points: 2
#     Edge 68, Type (0, 0), BuildingBlock: ZUJKAS_clean_linker_0, # of connection points: 2
#     Edge 69, Type (0, 0), BuildingBlock: ZUJKAS_clean_linker_0, # of connection points: 2
#     Edge 70, Type (0, 0), BuildingBlock: ZUJKAS_clean_linker_0, # of connection points: 2
#     Edge 71, Type (0, 0), BuildingBlock: ZUJKAS_clean_linker_0, # of connection points: 2
# Relax obj value: 0.352
# Max RMSD: 0.314
# Mean RMSD: 0.297
data_MOF--net-svb--node1-NUHQUE_clean_sbu_2--edge1-ZUJKAS_clean_linker_0
_symmetry_space_group_name_H-M    P1
_symmetry_Int_Tables_number       1
_symmetry_cell_setting            triclinic
loop_
_symmetry_equiv_pos_as_xyz
'x, y, z'
_cell_length_a     73.725651
_cell_length_b     72.77492
_cell_length_c     32.486675
_cell_angle_alpha  95.708444
_cell_angle_beta   93.019688
_cell_angle_gamma 90.016883
loop_
_atom_site_label
_atom_site_type_symbol
_atom_site_fract_x
_atom_site_fract_y
_atom_site_fract_z
_atom_type_partial_charge
O0 O 0.05326 0.35282 0.20832 0.0
Tb1 Tb 0.07547 0.34667 0.16696 0.0
Eu2 Eu 0.11356 0.34567 0.10831 0.0
C3 C 0.05636 0.3602 0.24679 0.0
O4 O 0.07295 0.36554 0.25912 0.0
C5 C 0.11164 0.33618 0.20163 0.0
O6 O 0.12073 0.32611 0.05271 0.0
C7 C 0.13616 0.37315 0.11776 0.0
C8 C 0.12258 0.30815 0.05379 0.0
O9 O 0.12116 0.30107 0.08914 0.0
C10 C 0.07252 0.36034 0.07924 0.0
C11 C 0.14959 0.38859 0.12239 0.0
C12 C 0.14585 0.40545 0.1455 0.0
C13 C 0.15875 0.41993 0.15055 0.0
C14 C 0.17556 0.41722 0.13214 0.0
C15 C 0.17955 0.40057 0.10854 0.0
C16 C 0.16643 0.38635 0.10396 0.0
O17 O 0.1004 0.3502 0.20497 0.0
O18 O 0.11586 0.32926 0.16431 0.0
O19 O 0.06619 0.31857 0.17144 0.0
O20 O 0.08233 0.32381 0.12158 0.0
C21 C 0.07407 0.31115 0.13907 0.0
O22 O 0.08788 0.35184 0.07011 0.0
O23 O 0.06748 0.36366 0.11771 0.0
O24 O 0.14014 0.35688 0.09912 0.0
O25 O 0.1196 0.37459 0.13133 0.0
H26 H 0.13284 0.40735 0.15934 0.0
H27 H 0.18581 0.42799 0.13712 0.0
H28 H 0.16927 0.37355 0.0855 0.0
O29 O 0.91245 0.81089 0.48133 0.0
Tb30 Tb 0.92127 0.83159 0.44265 0.0
Eu31 Eu 0.92871 0.87049 0.39971 0.0
C32 C 0.90395 0.81528 0.5155 0.0
O33 O 0.89955 0.83258 0.52549 0.0
C34 C 0.94152 0.86387 0.49261 0.0
O35 O 0.94773 0.88009 0.3524 0.0
C36 C 0.90121 0.8914 0.41933 0.0
C37 C 0.95919 0.86786 0.33569 0.0
O38 O 0.9587 0.85102 0.34664 0.0
C39 C 0.90597 0.83541 0.35569 0.0
C40 C 0.8836 0.89969 0.40646 0.0
C41 C 0.86746 0.89555 0.42546 0.0
C42 C 0.85126 0.90541 0.41811 0.0
C43 C 0.85149 0.91929 0.39082 0.0
C44 C 0.86751 0.92388 0.37246 0.0
C45 C 0.88336 0.91382 0.38 0.0
O46 O 0.92681 0.85353 0.49226 0.0
O47 O 0.94716 0.86912 0.45768 0.0
O48 O 0.94633 0.83776 0.41429 0.0
O49 O 0.94119 0.81019 0.42616 0.0
C50 C 0.95263 0.82114 0.4116 0.0
O51 O 0.91944 0.84697 0.35232 0.0
O52 O 0.90082 0.83213 0.39244 0.0
O53 O 0.91622 0.89752 0.40485 0.0
O54 O 0.90167 0.87366 0.42425 0.0
H55 H 0.86777 0.88528 0.44747 0.0
H56 H 0.83917 0.92678 0.38409 0.0
H57 H 0.89586 0.91777 0.36701 0.0
O58 O 0.40867 0.69211 0.53285 0.0
Tb59 Tb 0.42176 0.67608 0.57929 0.0
Eu60 Eu 0.42915 0.64423 0.64969 0.0
C61 C 0.41274 0.68836 0.4939 0.0
O62 O 0.4233 0.67422 0.48439 0.0
C63 C 0.43785 0.63976 0.55727 0.0
O64 O 0.44587 0.63682 0.70588 0.0
C65 C 0.40018 0.62391 0.63641 0.0
C66 C 0.46256 0.64327 0.71243 0.0
O67 O 0.46919 0.65317 0.68497 0.0
C68 C 0.41225 0.68506 0.6719 0.0
C69 C 0.38467 0.61627 0.65634 0.0
C70 C 0.36684 0.62059 0.64315 0.0
C71 C 0.35195 0.61119 0.6567 0.0
C72 C 0.35505 0.59779 0.68444 0.0
C73 C 0.37273 0.59308 0.69721 0.0
C74 C 0.38747 0.60257 0.68362 0.0
O75 O 0.42184 0.64753 0.55361 0.0
O76 O 0.44608 0.64099 0.59425 0.0
O77 O 0.44626 0.68621 0.5544 0.0
O78 O 0.44752 0.67927 0.61643 0.0
C79 C 0.45682 0.68476 0.58702 0.0
O80 O 0.42364 0.6722 0.68281 0.0
O81 O 0.40678 0.68644 0.6329 0.0
O82 O 0.41637 0.61741 0.64569 0.0
O83 O 0.4002 0.64165 0.63144 0.0
H84 H 0.36462 0.63042 0.62044 0.0
H85 H 0.34364 0.59022 0.69425 0.0
H86 H 0.40114 0.59866 0.69303 0.0
O87 O 0.56001 0.15934 0.82646 0.0
Tb88 Tb 0.58078 0.16897 0.87398 0.0
Eu89 Eu 0.61769 0.1734 0.93995 0.0
C90 C 0.56428 0.15085 0.7906 0.0
O91 O 0.58136 0.14677 0.78465 0.0
C92 C 0.61554 0.18379 0.8476 0.0
O93 O 0.62588 0.1924 0.99803 0.0
C94 C 0.63821 0.14473 0.92847 0.0
C95 C 0.62531 0.21055 0.9984 0.0
O96 O 0.6219 0.21768 0.96324 0.0
C97 C 0.57863 0.15621 0.96134 0.0
C98 C 0.6506 0.12861 0.92291 0.0
C99 C 0.64565 0.11236 0.89713 0.0
C100 C 0.65821 0.09779 0.89077 0.0
C101 C 0.67546 0.09951 0.91143 0.0
C102 C 0.6806 0.11552 0.93707 0.0
C103 C 0.66808 0.12995 0.94255 0.0
O104 O 0.60552 0.16875 0.841 0.0
O105 O 0.61915 0.19084 0.88609 0.0
O106 O 0.56712 0.19508 0.86675 0.0
O107 O 0.58558 0.19323 0.91864 0.0
C108 C 0.57485 0.2041 0.89954 0.0
O109 O 0.59264 0.16705 0.97359 0.0
O110 O 0.57444 0.15142 0.92174 0.0
O111 O 0.64364 0.16023 0.95002 0.0
O112 O 0.62126 0.14466 0.91329 0.0
H113 H 0.63235 0.11125 0.88122 0.0
H114 H 0.68491 0.08813 0.90789 0.0
H115 H 0.67216 0.14249 0.9616 0.0
O116 O 0.06378 0.65352 0.32726 0.0
Tb117 Tb 0.08113 0.66309 0.38156 0.0
Eu118 Eu 0.11916 0.67049 0.44274 0.0
C119 C 0.06089 0.66492 0.29855 0.0
O120 O 0.06868 0.68129 0.30411 0.0
C121 C 0.11422 0.68183 0.35168 0.0
O122 O 0.12877 0.68819 0.5017 0.0
C123 C 0.13856 0.64162 0.42204 0.0
C124 C 0.12234 0.7051 0.50811 0.0
O125 O 0.112 0.71136 0.4785 0.0
C126 C 0.08283 0.65023 0.46742 0.0
C127 C 0.1474 0.62411 0.43155 0.0
C128 C 0.1424 0.60734 0.40804 0.0
C129 C 0.15272 0.59118 0.41172 0.0
C130 C 0.1682 0.59214 0.43911 0.0
C131 C 0.1735 0.60878 0.46221 0.0
C132 C 0.16283 0.62456 0.45887 0.0
O133 O 0.1045 0.66655 0.34485 0.0
O134 O 0.11874 0.68856 0.38999 0.0
O135 O 0.06021 0.68415 0.3915 0.0
O136 O 0.08694 0.68959 0.41711 0.0
C137 C 0.0708 0.6963 0.41276 0.0
O138 O 0.0948 0.66355 0.47783 0.0
O139 O 0.0796 0.64395 0.42829 0.0
O140 O 0.14536 0.65725 0.44059 0.0
O141 O 0.12084 0.64197 0.41443 0.0
H142 H 0.13081 0.60701 0.38603 0.0
H143 H 0.17664 0.58005 0.44123 0.0
H144 H 0.16732 0.63753 0.47555 0.0
O145 O 0.56327 0.85338 0.74759 0.0
Tb146 Tb 0.58372 0.84423 0.70378 0.0
Eu147 Eu 0.62187 0.84159 0.64743 0.0
C148 C 0.56427 0.84753 0.78477 0.0
O149 O 0.57776 0.8367 0.79432 0.0
C150 C 0.61851 0.82924 0.73846 0.0
O151 O 0.62875 0.82213 0.59167 0.0
C152 C 0.64565 0.86824 0.66304 0.0
C153 C 0.62752 0.80409 0.59205 0.0
O154 O 0.62382 0.79735 0.62671 0.0
C155 C 0.58233 0.85895 0.61726 0.0
C156 C 0.65548 0.88482 0.6516 0.0
C157 C 0.65144 0.90248 0.67089 0.0
C158 C 0.66232 0.91796 0.66597 0.0
C159 C 0.67726 0.91561 0.64071 0.0
C160 C 0.68171 0.89819 0.62101 0.0
C161 C 0.67067 0.88287 0.6267 0.0
O162 O 0.6081 0.84384 0.74415 0.0
O163 O 0.62244 0.82322 0.70037 0.0
O164 O 0.56918 0.81818 0.70371 0.0
O165 O 0.58876 0.82058 0.65878 0.0
C166 C 0.57727 0.80957 0.67295 0.0
O167 O 0.59707 0.84936 0.60793 0.0
O168 O 0.5777 0.86263 0.65594 0.0
O169 O 0.64938 0.85192 0.64423 0.0
O170 O 0.62869 0.86975 0.67404 0.0
H171 H 0.64033 0.904 0.69151 0.0
H172 H 0.68577 0.92743 0.63717 0.0
H173 H 0.6741 0.86935 0.6123 0.0
O174 O 0.40995 0.31764 0.99732 0.0
Tb175 Tb 0.42252 0.33597 0.9579 0.0
Eu176 Eu 0.42947 0.36943 0.89811 0.0
C177 C 0.41491 0.31907 0.03703 0.0
O178 O 0.42639 0.33222 0.05168 0.0
C179 C 0.43953 0.37139 0.99221 0.0
O180 O 0.44741 0.37804 0.8483 0.0
C181 C 0.40023 0.38831 0.91289 0.0
C182 C 0.46339 0.36994 0.84514 0.0
O183 O 0.46819 0.35841 0.87234 0.0
C184 C 0.41126 0.33016 0.86381 0.0
C185 C 0.38235 0.39565 0.89931 0.0
C186 C 0.36645 0.391 0.91861 0.0
C187 C 0.35007 0.40054 0.9118 0.0
C188 C 0.34973 0.41439 0.88457 0.0
C189 C 0.36551 0.41957 0.86628 0.0
C190 C 0.38162 0.40985 0.87301 0.0
O191 O 0.42368 0.36307 0.99216 0.0
O192 O 0.44726 0.37144 0.9567 0.0
O193 O 0.44746 0.32428 0.98249 0.0
O194 O 0.44744 0.33473 0.9237 0.0
C195 C 0.45733 0.32755 0.9522 0.0
O196 O 0.42305 0.34307 0.85763 0.0
O197 O 0.40609 0.32775 0.90122 0.0
O198 O 0.41505 0.39534 0.89941 0.0
O199 O 0.40161 0.3707 0.91852 0.0
H200 H 0.36712 0.38081 0.9408 0.0
H201 H 0.3372 0.42172 0.87873 0.0
H202 H 0.39396 0.4143 0.86015 0.0
O203 O 0.90627 0.19096 0.99819 0.0
Tb204 Tb 0.92147 0.17549 0.04314 0.0
Eu205 Eu 0.93443 0.14376 0.11054 0.0
C206 C 0.91194 0.1908 0.96027 0.0
O207 O 0.92587 0.1804 0.95006 0.0
C208 C 0.94097 0.14083 1.0151 0.0
O209 O 0.95729 0.14066 0.15887 0.0
C210 C 0.90995 0.11791 0.10553 0.0
C211 C 0.95386 0.14008 0.19814 0.0
O212 O 0.93687 0.14038 0.20851 0.0
C213 C 0.91111 0.18091 0.13575 0.0
C214 C 0.89384 0.11078 0.12454 0.0
C215 C 0.87623 0.11571 0.11077 0.0
C216 C 0.86088 0.10698 0.12392 0.0
C217 C 0.86321 0.09366 0.15208 0.0
C218 C 0.8806 0.08841 0.16591 0.0
C219 C 0.89588 0.09702 0.15198 0.0
O220 O 0.92466 0.14808 1.01159 0.0
O221 O 0.9495 0.14176 0.05186 0.0
O222 O 0.94395 0.1913 1.02381 0.0
O223 O 0.94738 0.17858 0.07972 0.0
C224 C 0.9553 0.18811 0.054 0.0
O225 O 0.9243 0.16967 0.14566 0.0
O226 O 0.90542 0.18251 0.09699 0.0
O227 O 0.92595 0.11659 0.12496 0.0
O228 O 0.90802 0.13307 0.08675 0.0
H229 H 0.87445 0.12557 0.08799 0.0
H230 H 0.85138 0.08671 0.1618 0.0
H231 H 0.90934 0.09261 0.16169 0.0
O232 O 0.95229 0.65848 0.81035 0.0
Tb233 Tb 0.93553 0.67041 0.85937 0.0
Eu234 Eu 0.89991 0.67891 0.91761 0.0
C235 C 0.95417 0.66767 0.77789 0.0
O236 O 0.94555 0.6834 0.77609 0.0
C237 C 0.90179 0.68843 0.82548 0.0
O238 O 0.89156 0.69886 0.97138 0.0
C239 C 0.87833 0.65081 0.90043 0.0
C240 C 0.9042 0.70941 0.99201 0.0
O241 O 0.92093 0.708 0.98014 0.0
C242 C 0.93673 0.65826 0.94721 0.0
C243 C 0.87114 0.63376 0.91498 0.0
C244 C 0.87453 0.61663 0.89275 0.0
C245 C 0.86557 0.60053 0.90157 0.0
C246 C 0.8534 0.60171 0.93357 0.0
C247 C 0.8496 0.61874 0.95556 0.0
C248 C 0.85878 0.63465 0.94658 0.0
O249 O 0.911 0.67295 0.82038 0.0
O250 O 0.89912 0.69592 0.86321 0.0
O251 O 0.95496 0.69322 0.86111 0.0
O252 O 0.93168 0.69659 0.89673 0.0
C253 C 0.94603 0.70468 0.88565 0.0
O254 O 0.92455 0.67106 0.95627 0.0
O255 O 0.9397 0.65237 0.90846 0.0
O256 O 0.87318 0.66676 0.91885 0.0
O257 O 0.89526 0.65076 0.88934 0.0
H258 H 0.88332 0.61603 0.86694 0.0
H259 H 0.84612 0.58945 0.93988 0.0
H260 H 0.85567 0.64785 0.96313 0.0
O261 O 0.11308 0.20852 0.54695 0.0
Tb262 Tb 0.10584 0.18964 0.59185 0.0
Eu263 Eu 0.09803 0.14991 0.63793 0.0
C264 C 0.10066 0.2123 0.51831 0.0
O265 O 0.0846 0.20443 0.51807 0.0
C266 C 0.08597 0.15655 0.5439 0.0
O267 O 0.07534 0.14326 0.67848 0.0
C268 C 0.12076 0.12267 0.62903 0.0
C269 C 0.06839 0.15635 0.7038 0.0
O270 O 0.075 0.17317 0.70559 0.0
C271 C 0.12241 0.18571 0.67844 0.0
C272 C 0.13751 0.11432 0.64655 0.0
C273 C 0.15466 0.11984 0.63519 0.0
C274 C 0.1705 0.11064 0.64738 0.0
C275 C 0.16909 0.09585 0.67176 0.0
C276 C 0.1521 0.08995 0.68352 0.0
C277 C 0.13636 0.09931 0.67068 0.0
O278 O 0.10059 0.16693 0.5439 0.0
O279 O 0.08037 0.15137 0.5789 0.0
O280 O 0.08715 0.21158 0.61181 0.0
O281 O 0.08109 0.18392 0.62228 0.0
C282 C 0.0757 0.20091 0.62722 0.0
O283 O 0.10992 0.17318 0.68298 0.0
O284 O 0.12675 0.18965 0.64139 0.0
O285 O 0.10585 0.12194 0.64935 0.0
O286 O 0.12237 0.13807 0.61127 0.0
H287 H 0.15572 0.13111 0.616 0.0
H288 H 0.18121 0.08827 0.67972 0.0
H289 H 0.12317 0.09473 0.67896 0.0
O290 O 0.6043 0.30896 0.50075 0.0
Tb291 Tb 0.59825 0.33033 0.45921 0.0
Eu292 Eu 0.59477 0.37187 0.41343 0.0
C293 C 0.61337 0.31235 0.53678 0.0
O294 O 0.6201 0.32896 0.54745 0.0
C295 C 0.58365 0.36525 0.50665 0.0
O296 O 0.57202 0.37841 0.36738 0.0
C297 C 0.61902 0.39824 0.42361 0.0
C298 C 0.56274 0.36489 0.34582 0.0
O299 O 0.56704 0.34776 0.351 0.0
C300 C 0.6143 0.33354 0.37467 0.0
C301 C 0.63475 0.4078 0.40765 0.0
C302 C 0.65262 0.40351 0.42087 0.0
C303 C 0.66758 0.41392 0.41074 0.0
C304 C 0.66446 0.42867 0.38629 0.0
C305 C 0.64673 0.43341 0.37295 0.0
C306 C 0.63197 0.42291 0.38394 0.0
O307 O 0.59679 0.35301 0.50784 0.0
O308 O 0.57859 0.37198 0.47152 0.0
O309 O 0.57614 0.3113 0.43677 0.0
O310 O 0.57302 0.33987 0.43064 0.0
C311 C 0.56528 0.32382 0.4239 0.0
O312 O 0.60379 0.34785 0.36873 0.0
O313 O 0.6182 0.32862 0.41211 0.0
O314 O 0.60283 0.40003 0.40549 0.0
O315 O 0.62153 0.38196 0.43754 0.0
H316 H 0.65487 0.39223 0.4399 0.0
H317 H 0.67579 0.43711 0.37937 0.0
H318 H 0.61828 0.4267 0.37447 0.0
O319 O 0.40862 0.81255 0.05962 0.0
Tb320 Tb 0.42044 0.83061 0.11168 0.0
Eu321 Eu 0.42516 0.86443 0.1943 0.0
C322 C 0.40525 0.81859 1.02314 0.0
O323 O 0.40742 0.83623 1.0193 0.0
C324 C 0.43461 0.86791 0.10197 0.0
O325 O 0.44332 0.87268 0.25253 0.0
C326 C 0.39437 0.88139 0.19036 0.0
C327 C 0.45705 0.86182 0.26152 0.0
O328 O 0.45965 0.84698 0.23614 0.0
C329 C 0.41202 0.82226 0.20072 0.0
C330 C 0.37697 0.89178 0.1893 0.0
C331 C 0.36152 0.88536 0.16418 0.0
C332 C 0.34538 0.89586 0.16403 0.0
C333 C 0.34498 0.91285 0.18863 0.0
C334 C 0.36031 0.91961 0.21282 0.0
C335 C 0.37612 0.90893 0.21311 0.0
O336 O 0.41931 0.85855 0.09447 0.0
O337 O 0.44169 0.86977 0.14021 0.0
O338 O 0.44517 0.81858 0.08672 0.0
O339 O 0.4465 0.83295 0.14706 0.0
C340 C 0.45588 0.82449 0.11826 0.0
O341 O 0.42265 0.8361 0.21595 0.0
O342 O 0.4058 0.82041 0.16165 0.0
O343 O 0.40874 0.88818 0.21259 0.0
O344 O 0.39658 0.8649 0.1706 0.0
H345 H 0.36201 0.87231 0.14505 0.0
H346 H 0.33267 0.921 0.18844 0.0
H347 H 0.38806 0.91429 0.23126 0.0
O348 O 0.8902 0.30704 0.53019 0.0
Tb349 Tb 0.90081 0.32112 0.58889 0.0
Eu350 Eu 0.91511 0.35688 0.65682 0.0
C351 C 0.90201 0.30407 0.50121 0.0
O352 O 0.91886 0.30959 0.50998 0.0
C353 C 0.92767 0.35058 0.56506 0.0
O354 O 0.93392 0.36492 0.71346 0.0
C355 C 0.88931 0.38021 0.64559 0.0
C356 C 0.94942 0.35611 0.71804 0.0
O357 O 0.95383 0.34352 0.68846 0.0
C358 C 0.88949 0.32395 0.67701 0.0
C359 C 0.87471 0.39395 0.63979 0.0
C360 C 0.85881 0.38942 0.61463 0.0
C361 C 0.84492 0.40254 0.61107 0.0
C362 C 0.84706 0.4202 0.63229 0.0
C363 C 0.86281 0.425 0.65726 0.0
C364 C 0.87653 0.41177 0.66079 0.0
O365 O 0.9113 0.3435 0.5564 0.0
O366 O 0.93382 0.35388 0.60385 0.0
O367 O 0.91049 0.29359 0.59745 0.0
O368 O 0.92705 0.31675 0.62093 0.0
C369 C 0.92543 0.29884 0.61819 0.0
O370 O 0.90499 0.33266 0.68688 0.0
O371 O 0.88216 0.32362 0.63892 0.0
O372 O 0.9043 0.38456 0.66837 0.0
O373 O 0.8884 0.36305 0.62838 0.0
H374 H 0.8571 0.37573 0.59843 0.0
H375 H 0.83641 0.4303 0.62891 0.0
H376 H 0.88851 0.41525 0.6808 0.0
O377 O 0.4559 0.16171 0.31819 0.0
Tb378 Tb 0.4363 0.17017 0.36457 0.0
Eu379 Eu 0.39784 0.17781 0.41926 0.0
C380 C 0.45118 0.15319 0.28146 0.0
O381 O 0.43418 0.14818 0.27299 0.0
C382 C 0.40213 0.18653 0.3256 0.0
O383 O 0.39095 0.19882 0.4723 0.0
C384 C 0.37368 0.15168 0.40786 0.0
C385 C 0.40392 0.20927 0.49183 0.0
O386 O 0.42043 0.20781 0.47863 0.0
C387 C 0.43413 0.15613 0.44951 0.0
C388 C 0.36539 0.13589 0.42566 0.0
C389 C 0.36981 0.11778 0.4104 0.0
C390 C 0.36036 0.10256 0.42224 0.0
C391 C 0.34654 0.10562 0.4502 0.0
C392 C 0.34188 0.12357 0.46592 0.0
C393 C 0.35138 0.13867 0.45351 0.0
O394 O 0.413 0.17219 0.32166 0.0
O395 O 0.39738 0.19355 0.36244 0.0
O396 O 0.45651 0.19203 0.38075 0.0
O397 O 0.42944 0.19652 0.39801 0.0
C398 C 0.44548 0.20379 0.39878 0.0
O399 O 0.42208 0.1691 0.45854 0.0
O400 O 0.43755 0.15068 0.41084 0.0
O401 O 0.37024 0.16843 0.42467 0.0
O402 O 0.3903 0.14975 0.39493 0.0
H403 H 0.38028 0.11556 0.38828 0.0
H404 H 0.33859 0.09402 0.4578 0.0
H405 H 0.34755 0.15256 0.46478 0.0
O406 O 0.56165 0.65936 0.21013 0.0
Tb407 Tb 0.58252 0.66945 0.17323 0.0
Eu408 Eu 0.61693 0.67314 0.1145 0.0
C409 C 0.56385 0.6614 0.25074 0.0
O410 O 0.57888 0.66913 0.26784 0.0
C411 C 0.61762 0.68459 0.20946 0.0
O412 O 0.62614 0.69125 0.06597 0.0
C413 C 0.63521 0.6435 0.12526 0.0
C414 C 0.62045 0.70852 0.06743 0.0
O415 O 0.61098 0.71487 0.09887 0.0
C416 C 0.57822 0.65543 0.0799 0.0
C417 C 0.64623 0.62669 0.13095 0.0
C418 C 0.63954 0.61143 0.1497 0.0
C419 C 0.65086 0.5961 0.15601 0.0
C420 C 0.66894 0.59654 0.1442 0.0
C421 C 0.67573 0.61161 0.12606 0.0
C422 C 0.66428 0.62646 0.11923 0.0
O423 O 0.60821 0.66921 0.20865 0.0
O424 O 0.61911 0.69185 0.1743 0.0
O425 O 0.57372 0.697 0.19625 0.0
O426 O 0.58295 0.69255 0.13513 0.0
C427 C 0.57716 0.70474 0.16321 0.0
O428 O 0.59169 0.66652 0.07351 0.0
O429 O 0.57501 0.65125 0.11746 0.0
O430 O 0.64182 0.65753 0.10792 0.0
O431 O 0.61821 0.64529 0.13552 0.0
H432 H 0.62567 0.61145 0.15916 0.0
H433 H 0.67802 0.58531 0.15034 0.0
H434 H 0.66957 0.63798 0.10474 0.0
O435 O 0.10492 0.80869 1.01011 0.0
Tb436 Tb 0.09711 0.83107 0.97315 0.0
Eu437 Eu 0.09599 0.86819 0.91701 0.0
C438 C 0.11176 0.8122 0.04832 0.0
O439 O 0.11498 0.82943 0.06299 0.0
C440 C 0.08453 0.8674 1.00916 0.0
O441 O 0.07748 0.87646 0.86398 0.0
C442 C 0.12445 0.88931 0.93396 0.0
C443 C 0.06022 0.87152 0.86211 0.0
O444 O 0.0541 0.8634 0.89298 0.0
C445 C 0.11088 0.82711 0.88318 0.0
C446 C 0.14158 0.8976 0.92144 0.0
C447 C 0.1585 0.89267 0.93941 0.0
C448 C 0.17456 0.90225 0.9326 0.0
C449 C 0.17341 0.91707 0.9078 0.0
C450 C 0.15663 0.92249 0.89016 0.0
C451 C 0.14089 0.91242 0.89662 0.0
O452 O 0.09902 0.85696 1.01216 0.0
O453 O 0.07807 0.87024 0.97181 0.0
O454 O 0.06965 0.82419 0.98776 0.0
O455 O 0.074 0.83337 0.92882 0.0
C456 C 0.06189 0.82845 0.95327 0.0
O457 O 0.10206 0.84227 0.87525 0.0
O458 O 0.11404 0.82269 0.9214 0.0
O459 O 0.10888 0.895 0.91807 0.0
O460 O 0.12419 0.87184 0.94148 0.0
H461 H 0.15912 0.8816 0.95941 0.0
H462 H 0.18551 0.92507 0.90413 0.0
H463 H 0.12794 0.91651 0.88316 0.0
H464 H 0.97494 0.18989 0.9871 0.0
H465 H 1.00689 0.19836 0.98565 0.0
H466 H 0.01112 0.20374 0.11945 0.0
H467 H 0.9794 0.19399 0.12067 0.0
H468 H 0.01686 0.23008 1.00969 0.0
H469 H 0.06089 0.1865 0.09948 0.0
H470 H 0.03815 0.1793 0.08133 0.0
H471 H 0.04214 0.19316 0.13031 0.0
C472 C 0.98288 0.19248 1.01614 0.0
C473 C 0.97481 0.19174 0.05407 0.0
C474 C 1.00116 0.19708 1.01526 0.0
C475 C 0.01156 0.20151 0.05234 0.0
C476 C 1.00364 0.19984 0.09033 0.0
H477 H 0.05962 0.28375 0.17731 0.0
H478 H 0.05261 0.25243 0.14714 0.0
C479 C 0.98542 0.19465 0.09114 0.0
C480 C 0.02886 0.21178 0.05168 0.0
H481 H 0.06865 0.22035 0.1085 0.0
C482 C 0.02856 0.22752 0.02996 0.0
C483 C 0.0443 0.20835 0.0774 0.0
C484 C 0.04642 0.19074 0.09798 0.0
C485 C 0.04189 0.24123 0.0379 0.0
C486 C 0.056 0.23898 0.0682 0.0
C487 C 0.05766 0.22214 0.08572 0.0
C488 C 0.06544 0.25535 0.08963 0.0
C489 C 0.03942 0.25893 1.01754 0.0
C490 C 0.07578 0.26705 0.0681 0.0
C491 C 0.0793 0.2852 0.08489 0.0
C492 C 0.07296 0.29155 0.12375 0.0
C493 C 0.06437 0.27922 0.14698 0.0
C494 C 0.06061 0.26125 0.13001 0.0
H495 H 0.02696 0.25872 0.9967 0.0
H496 H 0.03856 0.27088 0.04141 0.0
H497 H 0.05122 0.26114 0.99878 0.0
H498 H 0.07985 0.26264 0.03712 0.0
H499 H 0.08596 0.29452 0.06646 0.0
H500 H 0.09395 0.72527 0.41378 0.0
H501 H 0.08577 0.75803 0.41541 0.0
H502 H 0.02989 0.74385 0.43082 0.0
H503 H 0.0379 0.71111 0.42821 0.0
H504 H 0.0528 0.76671 0.35087 0.0
H505 H 0.04736 0.79322 0.51564 0.0
H506 H 0.06361 0.77581 0.4985 0.0
H507 H 0.0403 0.76954 0.50338 0.0
C508 C 0.08003 0.72927 0.41893 0.0
C509 C 0.06649 0.71586 0.42127 0.0
C510 C 0.07543 0.7479 0.41965 0.0
C511 C 0.05733 0.7532 0.42367 0.0
C512 C 0.04399 0.7399 0.42827 0.0
H513 H 0.96478 0.78742 0.38331 0.0
H514 H 0.99647 0.77822 0.3769 0.0
C515 C 0.04851 0.72129 0.42667 0.0
C516 C 0.05136 0.77195 0.41708 0.0
H517 H 0.02544 0.80494 0.46621 0.0
C518 C 0.04749 0.77571 0.37604 0.0
C519 C 0.04479 0.78371 0.45 0.0
C520 C 0.04935 0.78051 0.49446 0.0
C521 C 0.03475 0.78918 0.36705 0.0
C522 C 0.02595 0.7989 0.39994 0.0
C523 C 0.03213 0.79726 0.441 0.0
C524 C 1.00739 0.80576 0.39353 0.0
C525 C 0.02915 0.79137 0.32254 0.0
C526 C 1.00318 0.82432 0.40414 0.0
C527 C 0.98505 0.8296 0.40721 0.0
C528 C 0.97113 0.81625 0.40083 0.0
C529 C 0.97535 0.79788 0.38833 0.0
C530 C 0.99338 0.7927 0.38434 0.0
H531 H 0.0405 0.7879 0.30201 0.0
H532 H 0.01769 0.7818 0.31238 0.0
H533 H 0.02458 0.80569 0.3189 0.0
H534 H 0.01388 0.83447 0.41201 0.0
H535 H 0.98202 0.84387 0.41723 0.0
H536 H 0.5891 0.79106 0.60202 0.0
H537 H 0.58132 0.75928 0.57407 0.0
H538 H 0.54958 0.75335 0.67995 0.0
H539 H 0.55788 0.7846 0.70853 0.0
H540 H 0.56814 0.72035 0.6509 0.0
H541 H 0.52932 0.75267 0.52463 0.0
H542 H 0.5535 0.75604 0.53114 0.0
H543 H 0.53899 0.76671 0.56921 0.0
C544 C 0.58088 0.78274 0.61972 0.0
C545 C 0.57394 0.79022 0.65718 0.0
C546 C 0.57642 0.76466 0.60371 0.0
C547 C 0.56476 0.75406 0.62483 0.0
C548 C 0.55869 0.76126 0.66332 0.0
H549 H 0.47924 0.69364 0.65527 0.0
H550 H 0.51094 0.70346 0.65602 0.0
C551 C 0.56323 0.77919 0.67936 0.0
C552 C 0.55627 0.73684 0.60503 0.0
H553 H 0.51928 0.72441 0.54154 0.0
C554 C 0.55783 0.72089 0.62597 0.0
C555 C 0.54311 0.73744 0.57192 0.0
C556 C 0.541 0.75409 0.54781 0.0
C557 C 0.54514 0.70646 0.61797 0.0
C558 C 0.53042 0.70833 0.58904 0.0
C559 C 0.53039 0.72308 0.56425 0.0
C560 C 0.51325 0.69782 0.58961 0.0
C561 C 0.54703 0.68993 0.64235 0.0
C562 C 0.50395 0.69126 0.55221 0.0
C563 C 0.48565 0.68643 0.55171 0.0
C564 C 0.47649 0.68773 0.58867 0.0
C565 C 0.48609 0.69268 0.62644 0.0
C566 C 0.5043 0.69796 0.62687 0.0
H567 H 0.56158 0.68627 0.64703 0.0
H568 H 0.54169 0.69338 0.67347 0.0
H569 H 0.53955 0.67773 0.62665 0.0
H570 H 0.51053 0.69104 0.52312 0.0
H571 H 0.47851 0.68223 0.52225 0.0
H572 H 0.48009 0.33281 1.01977 0.0
H573 H 0.51246 0.32559 1.02471 0.0
H574 H 0.51081 0.31022 0.89261 0.0
H575 H 0.47874 0.31863 0.88756 0.0
H576 H 0.52095 0.29247 1.0121 0.0
H577 H 0.56169 0.32752 0.9074 0.0
H578 H 0.53994 0.33642 0.92297 0.0
H579 H 0.5414 0.31963 0.87838 0.0
C580 C 0.48688 0.32837 0.99174 0.0
C581 C 0.47707 0.32575 0.95344 0.0
C582 C 0.50537 0.32448 0.9945 0.0
C583 C 0.51417 0.3174 0.95911 0.0
C584 C 0.50456 0.31611 0.92028 0.0
H585 H 0.55607 0.22847 0.85662 0.0
H586 H 0.54899 0.26039 0.87999 0.0
C587 C 0.48614 0.32056 0.9174 0.0
C588 C 0.53137 0.30713 0.96376 0.0
H589 H 0.56784 0.29344 0.90856 0.0
C590 C 0.53166 0.29316 0.99067 0.0
C591 C 0.54557 0.30818 0.93653 0.0
C592 C 0.54718 0.32394 0.91012 0.0
C593 C 0.54403 0.27863 0.98657 0.0
C594 C 0.55657 0.27829 0.95503 0.0
C595 C 0.55797 0.29359 0.93221 0.0
C596 C 0.5645 0.26064 0.9386 0.0
C597 C 0.54203 0.26272 1.0126 0.0
C598 C 0.57593 0.25036 0.96341 0.0
C599 C 0.57954 0.2319 0.95053 0.0
C600 C 0.57213 0.22374 0.91233 0.0
C601 C 0.56176 0.23442 0.88642 0.0
C602 C 0.55794 0.25272 0.89949 0.0
H603 H 0.5306 0.26468 0.03352 0.0
H604 H 0.53971 0.24961 0.99242 0.0
H605 H 0.55468 0.26129 0.03203 0.0
H606 H 0.58125 0.2563 0.99352 0.0
H607 H 0.58747 0.22384 0.97111 0.0
H608 H 0.97581 0.72278 0.86521 0.0
H609 H 0.98258 0.75576 0.87945 0.0
H610 H 0.93205 0.76416 0.93962 0.0
H611 H 0.92497 0.73112 0.92458 0.0
H612 H 0.95643 0.79041 0.86264 0.0
H613 H 0.97831 0.77979 1.0254 0.0
H614 H 0.97851 0.76022 0.98671 0.0
H615 H 0.9573 0.77033 1.00118 0.0
C616 C 0.96613 0.73166 0.88133 0.0
C617 C 0.95012 0.72442 0.89474 0.0
C618 C 0.96989 0.75046 0.88904 0.0
C619 C 0.95772 0.76226 0.91028 0.0
C620 C 0.94151 0.75519 0.923 0.0
H621 H 0.03642 0.84017 1.00638 0.0
H622 H 1.00368 0.83466 0.99685 0.0
C623 C 0.93767 0.73633 0.91502 0.0
C624 C 0.96344 0.78143 0.92265 0.0
H625 H 0.99302 0.80314 0.99473 0.0
C626 C 0.96392 0.79371 0.8921 0.0
C627 C 0.97256 0.78595 0.96153 0.0
C628 C 0.97167 0.77349 0.99586 0.0
C629 C 0.97538 0.80923 0.89764 0.0
C630 C 0.98713 0.81182 0.93364 0.0
C631 C 0.98441 0.80109 0.96656 0.0
C632 C 1.00481 0.82162 0.93404 0.0
C633 C 0.97559 0.82195 0.86376 0.0
C634 C 0.01624 0.81741 0.90098 0.0
C635 C 0.03482 0.82114 0.90605 0.0
C636 C 0.04226 0.82843 0.94466 0.0
C637 C 0.03082 0.83414 0.97656 0.0
C638 C 0.01214 0.8311 0.971 0.0
H639 H 0.96147 0.82478 0.85255 0.0
H640 H 0.98249 0.83528 0.87437 0.0
H641 H 0.98258 0.81508 0.83699 0.0
H642 H 0.01125 0.80965 0.87252 0.0
H643 H 0.04353 0.81677 0.88109 0.0
H644 H 0.04812 0.17942 0.6483 0.0
H645 H 0.01895 0.18988 0.67454 0.0
H646 H 0.03588 0.24652 0.67193 0.0
H647 H 0.06533 0.23615 0.64782 0.0
H648 H 0.01385 0.24075 0.73932 0.0
H649 H 0.98465 0.20922 0.58622 0.0
H650 H 0.99619 0.19436 0.61987 0.0
H651 H 1.00883 0.2114 0.59678 0.0
C652 C 0.04578 0.19409 0.65456 0.0
C653 C 0.05885 0.20703 0.64602 0.0
C654 C 0.02912 0.20002 0.66934 0.0
C655 C 0.02526 0.21894 0.67468 0.0
C656 C 0.03869 0.23185 0.66819 0.0
H657 H 0.95978 0.30593 0.6507 0.0
H658 H 0.98081 0.28379 0.6788 0.0
C659 C 0.05539 0.22594 0.65396 0.0
C660 C 1.00662 0.22554 0.68039 0.0
H661 H 0.96756 0.23126 0.62277 0.0
C662 C 1.00345 0.23833 0.71447 0.0
C663 C 0.99305 0.22213 0.64811 0.0
C664 C 0.99576 0.20861 0.61053 0.0
C665 C 0.98767 0.24906 0.71527 0.0
C666 C 0.97507 0.24704 0.68083 0.0
C667 C 0.97735 0.23287 0.64901 0.0
C668 C 0.96135 0.26119 0.673 0.0
C669 C 0.9851 0.26303 0.75196 0.0
C670 C 0.9435 0.25584 0.66023 0.0
C671 C 0.93174 0.26829 0.64297 0.0
C672 C 0.93761 0.28631 0.63863 0.0
C673 C 0.95506 0.29205 0.65363 0.0
C674 C 0.96694 0.27949 0.67033 0.0
H675 H 0.99097 0.25794 0.78089 0.0
H676 H 0.99236 0.27598 0.74747 0.0
H677 H 0.97052 0.2662 0.75581 0.0
H678 H 0.93898 0.24176 0.66171 0.0
H679 H 0.91818 0.26368 0.63219 0.0
H680 H 0.47855 0.21883 0.42035 0.0
H681 H 0.48635 0.25169 0.42851 0.0
H682 H 0.42987 0.26558 0.40933 0.0
H683 H 0.42187 0.23255 0.40265 0.0
H684 H 0.46043 0.27661 0.34947 0.0
H685 H 0.47222 0.29884 0.51666 0.0
H686 H 0.47883 0.27538 0.50227 0.0
H687 H 0.45531 0.2817 0.49666 0.0
C688 C 0.46777 0.22891 0.41912 0.0
C689 C 0.44969 0.22331 0.4108 0.0
C690 C 0.47219 0.24762 0.42392 0.0
C691 C 0.45863 0.26093 0.4197 0.0
C692 C 0.44042 0.25544 0.41313 0.0
H693 H 0.5377 0.34858 0.43002 0.0
H694 H 0.50504 0.34137 0.42152 0.0
C695 C 0.43593 0.23665 0.40933 0.0
C696 C 0.46441 0.28 0.416 0.0
H697 H 0.49324 0.31102 0.47027 0.0
C698 C 0.4669 0.28482 0.37592 0.0
C699 C 0.47252 0.2908 0.4505 0.0
C700 C 0.46946 0.28655 0.49405 0.0
C701 C 0.47983 0.29817 0.36932 0.0
C702 C 0.49022 0.30672 0.40363 0.0
C703 C 0.48537 0.30423 0.44391 0.0
C704 C 0.50899 0.31276 0.399 0.0
C705 C 0.48393 0.30136 0.32564 0.0
C706 C 0.52185 0.2991 0.38846 0.0
C707 C 0.54033 0.30299 0.39446 0.0
C708 C 0.54618 0.32069 0.41033 0.0
C709 C 0.53339 0.33481 0.41764 0.0
C710 C 0.5148 0.33077 0.41267 0.0
H711 H 0.47162 0.29911 0.30447 0.0
H712 H 0.48921 0.31557 0.32416 0.0
H713 H 0.49443 0.2914 0.31451 0.0
H714 H 0.51759 0.28502 0.37857 0.0
H715 H 0.55001 0.29196 0.38855 0.0
H716 H 0.58604 0.73328 0.22066 0.0
H717 H 0.57876 0.76594 0.21636 0.0
H718 H 0.55533 0.75237 0.09235 0.0
H719 H 0.56418 0.72015 0.09538 0.0
H720 H 0.56758 0.78676 0.10035 0.0
H721 H 0.52742 0.77612 0.23734 0.0
H722 H 0.55162 0.77533 0.24516 0.0
H723 H 0.53982 0.75757 0.21138 0.0
C724 C 0.57967 0.73748 0.19228 0.0
C725 C 0.57506 0.72438 0.15875 0.0
C726 C 0.57552 0.75606 0.18984 0.0
C727 C 0.56579 0.76146 0.15475 0.0
C728 C 0.56268 0.74853 0.11994 0.0
H729 H 0.4763 0.80349 0.06484 0.0
H730 H 0.50854 0.79662 0.07428 0.0
C731 C 0.56753 0.73011 0.12176 0.0
C732 C 0.55607 0.77928 0.1561 0.0
H733 H 0.5194 0.80017 0.19965 0.0
C734 C 0.55733 0.79001 0.12266 0.0
C735 C 0.54283 0.78373 0.18561 0.0
C736 C 0.5402 0.77257 0.22175 0.0
C737 C 0.54445 0.80368 0.11546 0.0
C738 C 0.53019 0.80668 0.14259 0.0
C739 C 0.53035 0.7977 0.17879 0.0
C740 C 0.51292 0.81534 0.13017 0.0
C741 C 0.54554 0.8139 0.07753 0.0
C742 C 0.50476 0.82844 0.15787 0.0
C743 C 0.48624 0.83206 0.15288 0.0
C744 C 0.47568 0.82254 0.12039 0.0
C745 C 0.48415 0.81073 0.09061 0.0
C746 C 0.50265 0.80708 0.09558 0.0
H747 H 0.55991 0.8159 0.07015 0.0
H748 H 0.53868 0.80562 0.05062 0.0
H749 H 0.53884 0.82758 0.08167 0.0
H750 H 0.51243 0.83489 0.18485 0.0
H751 H 0.48009 0.84177 0.1753 0.0
H752 H 0.33459 0.36772 0.92927 0.0
H753 H 0.30598 0.36379 0.96361 0.0
H754 H 0.29996 0.42288 0.98193 0.0
H755 H 0.32841 0.42694 0.9489 0.0
H756 H 0.29445 0.38334 0.05029 0.0
H757 H 0.25275 0.39951 0.91105 0.0
H758 H 0.27556 0.39054 0.90814 0.0
H759 H 0.27201 0.41435 0.92592 0.0
C760 C 0.32727 0.37985 0.94111 0.0
C761 C 0.33364 0.39763 0.93553 0.0
C762 C 0.31092 0.37759 0.96059 0.0
C763 C 0.30073 0.39306 0.97473 0.0
C764 C 0.30746 0.41076 0.97071 0.0
H765 H 0.19859 0.42608 0.07093 0.0
H766 H 0.22793 0.42244 0.03969 0.0
C767 C 0.3237 0.41302 0.95155 0.0
C768 C 0.28274 0.39112 0.99259 0.0
H769 H 0.23764 0.39954 0.97364 0.0
C770 C 0.28196 0.38658 0.03344 0.0
C771 C 0.26652 0.3955 0.97059 0.0
C772 C 0.2666 0.40014 0.92636 0.0
C773 C 0.26543 0.38709 0.05348 0.0
C774 C 0.24921 0.39192 0.03174 0.0
C775 C 0.25001 0.39589 0.99042 0.0
C776 C 0.23142 0.3939 0.05169 0.0
C777 C 0.26565 0.38331 0.09833 0.0
C778 C 0.22342 0.37904 0.06867 0.0
C779 C 0.20665 0.38115 0.0871 0.0
C780 C 0.19741 0.39814 0.08868 0.0
C781 C 0.20539 0.4129 0.07108 0.0
C782 C 0.22215 0.41079 0.05284 0.0
H783 H 0.27957 0.38433 0.11322 0.0
H784 H 0.25674 0.39311 0.11615 0.0
H785 H 0.26052 0.36911 0.10027 0.0
H786 H 0.23006 0.36575 0.06746 0.0
H787 H 0.20104 0.3695 0.10052 0.0
H788 H 0.8852 0.92755 0.30137 0.0
H789 H 0.88928 0.95575 0.26752 0.0
H790 H 0.85529 0.98544 0.35521 0.0
H791 H 0.85177 0.9576 0.39026 0.0
H792 H 0.86483 0.97826 0.23057 0.0
H793 H 0.90099 0.01709 0.36602 0.0
H794 H 0.897 0.99252 0.36299 0.0
H795 H 0.87923 0.00843 0.37746 0.0
C796 C 0.87864 0.94011 0.31354 0.0
C797 C 0.86827 0.94033 0.34874 0.0
C798 C 0.88093 0.95618 0.29407 0.0
C799 C 0.87294 0.97279 0.30945 0.0
C800 C 0.86195 0.97289 0.34344 0.0
H801 H 0.86235 0.08253 0.23448 0.0
H802 H 0.86203 0.05434 0.26988 0.0
C803 C 0.85971 0.95686 0.36305 0.0
C804 C 0.87604 0.99002 0.2899 0.0
H805 H 0.8916 0.03442 0.31015 0.0
C806 C 0.87083 0.99049 0.24784 0.0
C807 C 0.88396 1.00593 0.3125 0.0
C808 C 0.89079 1.00597 0.35712 0.0
C809 C 0.8728 1.00663 0.2281 0.0
C810 C 0.88036 0.02262 0.25093 0.0
C811 C 0.88579 0.02211 0.29281 0.0
C812 C 0.88204 0.04021 0.23212 0.0
C813 C 0.86629 1.00663 0.18327 0.0
C814 C 0.89386 0.04178 0.20016 0.0
C815 C 0.89411 0.05788 0.17998 0.0
C816 C 0.8825 0.07263 0.19144 0.0
C817 C 0.87132 0.07131 0.2248 0.0
C818 C 0.87115 0.05527 0.24507 0.0
H819 H 0.85777 0.99433 0.17236 0.0
H820 H 0.85831 0.01927 0.17856 0.0
H821 H 0.87821 1.00658 0.16377 0.0
H822 H 0.90252 0.03036 0.19011 0.0
H823 H 0.90275 0.05843 0.15418 0.0
H824 H 0.1811 0.62685 0.53939 0.0
H825 H 0.21095 0.63145 0.57599 0.0
H826 H 0.23564 0.59868 0.4762 0.0
H827 H 0.20608 0.59451 0.43894 0.0
H828 H 0.23516 0.60565 0.60311 0.0
H829 H 0.26627 0.64591 0.48893 0.0
H830 H 0.24209 0.64195 0.48893 0.0
H831 H 0.25665 0.62443 0.46583 0.0
C832 C 0.19292 0.62069 0.52523 0.0
C833 C 0.19123 0.61032 0.48628 0.0
C834 C 0.20992 0.62331 0.54617 0.0
C835 C 0.22552 0.61573 0.52837 0.0
C836 C 0.22382 0.60499 0.49004 0.0
H837 H 0.32762 0.58432 0.62757 0.0
H838 H 0.29661 0.58791 0.59996 0.0
C839 C 0.20686 0.60237 0.4691 0.0
C840 C 0.24358 0.6185 0.55027 0.0
H841 H 0.28688 0.63284 0.53779 0.0
C842 C 0.24641 0.61183 0.58912 0.0
C843 C 0.25815 0.62689 0.53231 0.0
C844 C 0.25563 0.63538 0.4919 0.0
C845 C 0.26369 0.61238 0.60944 0.0
C846 C 0.27852 0.61954 0.59005 0.0
C847 C 0.2755 0.62718 0.55234 0.0
C848 C 0.29742 0.61778 0.60679 0.0
C849 C 0.26598 0.60499 0.65117 0.0
C850 C 0.30837 0.63342 0.61845 0.0
C851 C 0.32622 0.63141 0.6344 0.0
C852 C 0.3333 0.61372 0.63875 0.0
C853 C 0.32239 0.59814 0.62579 0.0
C854 C 0.30467 0.60016 0.60996 0.0
H855 H 0.25299 0.60539 0.66712 0.0
H856 H 0.27041 0.59039 0.64684 0.0
H857 H 0.27641 0.61298 0.67144 0.0
H858 H 0.30304 0.64714 0.61571 0.0
H859 H 0.33435 0.64363 0.64398 0.0
H860 H 0.62947 0.93526 0.67861 0.0
H861 H 0.62414 0.96594 0.71484 0.0
H862 H 0.68171 0.97324 0.74091 0.0
H863 H 0.68718 0.94263 0.70565 0.0
H864 H 0.64768 0.98076 0.81107 0.0
H865 H 0.65107 0.01827 0.67028 0.0
H866 H 0.64122 0.99541 0.66764 0.0
H867 H 0.66528 0.9984 0.67612 0.0
C868 C 0.64099 0.94331 0.69237 0.0
C869 C 0.65878 0.93645 0.68877 0.0
C870 C 0.63791 0.96087 0.71293 0.0
C871 C 0.65255 0.97188 0.7304 0.0
C872 C 0.67024 0.965 0.72746 0.0
H873 H 0.67947 0.08123 0.83195 0.0
H874 H 0.6753 0.05106 0.79261 0.0
C875 C 0.67333 0.94753 0.70696 0.0
C876 C 0.64961 0.9907 0.75135 0.0
H877 H 0.6498 0.03631 0.73441 0.0
C878 C 0.64785 0.99293 0.79435 0.0
C879 C 0.65 1.00651 0.72945 0.0
C880 C 0.65196 1.00473 0.68326 0.0
C881 C 0.64706 0.01062 0.81625 0.0
C882 C 0.64779 0.02653 0.79444 0.0
C883 C 0.64909 0.02419 0.75119 0.0
C884 C 0.64916 0.04562 0.81627 0.0
C885 C 0.64638 0.01212 0.8628 0.0
C886 C 0.63558 0.05305 0.84188 0.0
C887 C 0.63797 0.07044 0.8647 0.0
C888 C 0.65401 0.08069 0.86236 0.0
C889 C 0.66708 0.07359 0.83502 0.0
C890 C 0.66468 0.05633 0.81232 0.0
H891 H 0.64958 0.9988 0.87548 0.0
H892 H 0.65608 0.02279 0.87751 0.0
H893 H 0.63252 0.01625 0.87163 0.0
H894 H 0.62328 0.04526 0.84481 0.0
H895 H 0.62765 0.0755 0.88542 0.0
H896 H 0.8229 0.64467 0.95913 0.0
H897 H 0.79511 0.64443 0.99663 0.0
H898 H 0.81289 0.59516 0.05013 0.0
H899 H 0.8411 0.5956 1.01357 0.0
H900 H 0.77073 0.6147 0.98247 0.0
H901 H 0.79282 0.62766 0.14908 0.0
H902 H 0.80677 0.63345 0.10808 0.0
H903 H 0.80509 0.60994 0.11981 0.0
C904 C 0.82123 0.63413 0.97995 0.0
C905 C 0.83423 0.62016 0.98344 0.0
C906 C 0.80526 0.63394 1.0011 0.0
C907 C 0.80201 0.61984 0.02625 0.0
C908 C 0.81527 0.60631 0.0313 0.0
H909 H 0.69491 0.58376 0.08588 0.0
H910 H 0.72614 0.58505 0.06388 0.0
C911 C 0.83129 0.60649 1.01014 0.0
C912 C 0.78397 0.61825 0.04344 0.0
H913 H 0.76207 0.6185 0.1335 0.0
C914 C 0.76882 0.61556 1.01549 0.0
C915 C 0.78159 0.61945 0.0865 0.0
C916 C 0.79738 0.62294 0.11774 0.0
C917 C 0.75129 0.61396 0.02943 0.0
C918 C 0.74891 0.61482 0.07246 0.0
C919 C 0.76403 0.61766 0.10051 0.0
C920 C 0.73068 0.61347 0.08871 0.0
C921 C 0.7354 0.61172 0.99805 0.0
C922 C 0.72317 0.62887 0.11091 0.0
C923 C 0.70541 0.62816 0.12362 0.0
C924 C 0.69491 0.61199 0.11448 0.0
C925 C 0.7027 0.59638 0.09343 0.0
C926 C 0.72046 0.59713 0.08065 0.0
H927 H 0.7391 0.61524 0.96705 0.0
H928 H 0.73067 0.59715 0.99487 0.0
H929 H 0.7239 0.62059 1.0083 0.0
H930 H 0.73091 0.64158 0.11753 0.0
H931 H 0.69986 0.6403 0.14042 0.0
H932 H 0.18028 0.93461 0.83564 0.0
H933 H 0.17879 0.96322 0.8018 0.0
H934 H 0.12831 0.97706 0.85825 0.0
H935 H 0.13009 0.94902 0.89361 0.0
H936 H 0.15379 0.97583 0.74666 0.0
H937 H 0.15771 0.02361 0.89076 0.0
H938 H 0.16238 0.99927 0.89046 0.0
H939 H 0.13931 1.00734 0.88867 0.0
C940 C 0.16894 0.94382 0.84121 0.0
C941 C 0.15535 0.93944 0.86757 0.0
C942 C 0.16805 0.96013 0.82159 0.0
C943 C 0.1536 0.9725 0.82798 0.0
C944 C 0.1398 0.96797 0.85346 0.0
H945 H 0.12683 0.06176 0.67295 0.0
H946 H 0.12638 0.03365 0.70842 0.0
C947 C 0.14071 0.95173 0.87321 0.0
C948 C 0.1529 0.99006 0.80784 0.0
H949 H 0.1506 0.03701 0.82813 0.0
C950 C 0.15312 0.98921 0.76448 0.0
C951 C 0.15228 1.00757 0.83107 0.0
C952 C 0.15309 0.00958 0.87782 0.0
C953 C 0.15254 1.0053 0.74374 0.0
C954 C 0.15132 0.02278 0.7669 0.0
C955 C 0.1513 0.02363 0.81029 0.0
C956 C 0.15081 0.04038 0.74688 0.0
C957 C 0.15372 1.00342 0.69728 0.0
C958 C 0.16418 0.05398 0.75793 0.0
C959 C 0.16428 0.07024 0.73826 0.0
C960 C 0.15098 0.07334 0.707 0.0
C961 C 0.13723 0.05995 0.69698 0.0
C962 C 0.13711 0.0437 0.71683 0.0
H963 H 0.15948 0.98989 0.68573 0.0
H964 H 0.13988 1.0044 0.68252 0.0
H965 H 0.16223 0.01458 0.68726 0.0
H966 H 0.1748 0.05186 0.7813 0.0
H967 H 0.17489 0.08034 0.74737 0.0
H968 H 0.67805 0.40515 0.48882 0.0
H969 H 0.70879 0.40033 0.5176 0.0
H970 H 0.73052 0.40955 0.40073 0.0
H971 H 0.69977 0.41428 0.37153 0.0
H972 H 0.73552 0.37496 0.49423 0.0
H973 H 0.75912 0.44657 0.48179 0.0
H974 H 0.73545 0.44001 0.47577 0.0
H975 H 0.7502 0.43467 0.43393 0.0
C976 C 0.68931 0.40593 0.46896 0.0
C977 C 0.68635 0.41016 0.42776 0.0
C978 C 0.70693 0.40326 0.4856 0.0
C979 C 0.72205 0.40485 0.46161 0.0
C980 C 0.71914 0.40865 0.42021 0.0
H981 H 0.83904 0.4018 0.52732 0.0
H982 H 0.8095 0.40036 0.48807 0.0
C983 C 0.70151 0.41134 0.40352 0.0
C984 C 0.74079 0.4027 0.48018 0.0
H985 H 0.78105 0.42562 0.50449 0.0
C986 C 0.74548 0.38603 0.4964 0.0
C987 C 0.75383 0.41713 0.48309 0.0
C988 C 0.74942 0.43567 0.46809 0.0
C989 C 0.7628 0.38341 0.51526 0.0
C990 C 0.77576 0.39791 0.51851 0.0
C991 C 0.77117 0.41446 0.50177 0.0
C992 C 0.79379 0.39663 0.5411 0.0
C993 C 0.76716 0.36507 0.53127 0.0
C994 C 0.79484 0.39484 0.58383 0.0
C995 C 0.81165 0.39569 0.60613 0.0
C996 C 0.82776 0.3982 0.58611 0.0
C997 C 0.82682 0.39946 0.5432 0.0
C998 C 0.80996 0.39877 0.52091 0.0
H999 H 0.75795 0.35395 0.51651 0.0
H1000 H 0.78142 0.36105 0.52574 0.0
H1001 H 0.76544 0.36621 0.56516 0.0
H1002 H 0.78257 0.39358 0.60032 0.0
H1003 H 0.81204 0.39509 0.63936 0.0
H1004 H 0.37524 0.92985 0.29086 0.0
H1005 H 0.37648 0.96081 0.32805 0.0
H1006 H 0.34605 0.98221 0.22658 0.0
H1007 H 0.34521 0.95146 0.18845 0.0
H1008 H 0.39072 0.99527 0.29191 0.0
H1009 H 0.31908 0.99812 0.33875 0.0
H1010 H 0.33073 0.97656 0.32672 0.0
H1011 H 0.32298 0.98991 0.28581 0.0
C1012 C 0.36889 0.94115 0.27629 0.0
C1013 C 0.36013 0.93816 0.23662 0.0
C1014 C 0.36956 0.95878 0.29767 0.0
C1015 C 0.36131 0.97368 0.28002 0.0
C1016 C 0.35236 0.97079 0.24076 0.0
H1017 H 0.36642 0.09174 0.34088 0.0
H1018 H 0.36851 0.06021 0.30766 0.0
C1019 C 0.35179 0.95318 0.21919 0.0
C1020 C 0.36232 0.99236 0.30237 0.0
H1021 H 0.33678 0.02525 0.3541 0.0
C1022 C 0.37897 1.00186 0.30562 0.0
C1023 C 0.34695 1.00075 0.32027 0.0
C1024 C 0.3289 0.99085 0.31809 0.0
C1025 C 0.38058 0.01978 0.32593 0.0
C1026 C 0.36514 0.02827 0.34333 0.0
C1027 C 0.34856 0.01864 0.3406 0.0
C1028 C 0.3658 0.04726 0.36411 0.0
C1029 C 0.39872 0.02953 0.3289 0.0
C1030 C 0.36381 0.05033 0.4069 0.0
C1031 C 0.36285 0.06832 0.42612 0.0
C1032 C 0.36362 0.08356 0.40275 0.0
C1033 C 0.3661 0.08037 0.35996 0.0
C1034 C 0.3672 0.06237 0.34084 0.0
H1035 H 0.40993 0.01999 0.32 0.0
H1036 H 0.39825 0.04067 0.30789 0.0
H1037 H 0.40176 0.03604 0.36091 0.0
H1038 H 0.36271 0.03879 0.42528 0.0
H1039 H 0.36117 0.07029 0.45919 0.0
H1040 H 0.82705 0.93125 0.44914 0.0
H1041 H 0.79853 0.9263 0.48125 0.0
H1042 H 0.80839 0.86775 0.47205 0.0
H1043 H 0.8369 0.87245 0.43828 0.0
H1044 H 0.76824 0.89788 0.44115 0.0
H1045 H 0.79635 0.88797 0.59996 0.0
H1046 H 0.80829 0.90161 0.56638 0.0
H1047 H 0.80712 0.87702 0.55535 0.0
C1048 C 0.82317 0.91723 0.45332 0.0
C1049 C 0.83431 0.90222 0.4403 0.0
C1050 C 0.80685 0.91447 0.47208 0.0
C1051 C 0.80128 0.89668 0.47901 0.0
C1052 C 0.81245 0.88163 0.4671 0.0
H1053 H 0.7067 0.86985 0.6176 0.0
H1054 H 0.73485 0.86758 0.58065 0.0
C1055 C 0.8288 0.88437 0.44795 0.0
C1056 C 0.78354 0.89408 0.49783 0.0
H1057 H 0.76455 0.88879 0.58978 0.0
C1058 C 0.76741 0.89574 0.47357 0.0
C1059 C 0.78245 0.89114 0.53999 0.0
C1060 C 0.7994 0.88934 0.56728 0.0
C1061 C 0.75024 0.89477 0.49041 0.0
C1062 C 0.7491 0.89268 0.53317 0.0
C1063 C 0.76529 0.89049 0.55713 0.0
C1064 C 0.73137 0.89352 0.55394 0.0
C1065 C 0.73352 0.8958 0.46192 0.0
C1066 C 0.71986 0.90881 0.55148 0.0
C1067 C 0.70359 0.91001 0.57204 0.0
C1068 C 0.69844 0.89609 0.59639 0.0
C1069 C 0.70996 0.88071 0.59871 0.0
C1070 C 0.72622 0.87948 0.57785 0.0
H1071 H 0.73636 0.89088 0.42942 0.0
H1072 H 0.72219 0.88744 0.47162 0.0
H1073 H 0.72908 0.91038 0.46243 0.0
H1074 H 0.72361 0.92008 0.5342 0.0
H1075 H 0.6951 0.92198 0.56903 0.0
H1076 H 0.3828 0.42589 0.79607 0.0
H1077 H 0.3865 0.45559 0.76777 0.0
H1078 H 0.35261 0.48167 0.8606 0.0
H1079 H 0.34944 0.4524 0.89001 0.0
H1080 H 0.36099 0.47978 0.73689 0.0
H1081 H 0.399 0.51277 0.87673 0.0
H1082 H 0.39515 0.48816 0.86803 0.0
H1083 H 0.37756 0.50319 0.88772 0.0
C1084 C 0.37614 0.43796 0.81039 0.0
C1085 C 0.36588 0.43678 0.84535 0.0
C1086 C 0.37823 0.45488 0.79416 0.0
C1087 C 0.37016 0.47085 0.81276 0.0
C1088 C 0.35927 0.46956 0.84643 0.0
H1089 H 0.35539 0.58358 0.76449 0.0
H1090 H 0.35661 0.55371 0.7934 0.0
C1091 C 0.35724 0.45273 0.86275 0.0
C1092 C 0.3731 0.48895 0.79717 0.0
H1093 H 0.38823 0.53286 0.82703 0.0
C1094 C 0.36713 0.49134 0.75638 0.0
C1095 C 0.38118 0.50395 0.82276 0.0
C1096 C 0.38876 0.50189 0.86611 0.0
C1097 C 0.36842 0.50858 0.74091 0.0
C1098 C 0.37604 0.52367 0.76688 0.0
C1099 C 0.38234 0.52121 0.80738 0.0
C1100 C 0.37696 0.54226 0.75275 0.0
C1101 C 0.36111 0.51071 0.69738 0.0
C1102 C 0.38847 0.54579 0.72147 0.0
C1103 C 0.38783 0.56279 0.70502 0.0
C1104 C 0.37565 0.57649 0.71964 0.0
C1105 C 0.36481 0.57322 0.75251 0.0
C1106 C 0.36551 0.55623 0.76904 0.0
H1107 H 0.35291 0.49856 0.68392 0.0
H1108 H 0.35258 0.52327 0.69683 0.0
H1109 H 0.37263 0.51232 0.67734 0.0
H1110 H 0.3975 0.53518 0.70885 0.0
H1111 H 0.39619 0.56484 0.67939 0.0
H1112 H 0.71282 0.10435 0.90464 0.0
H1113 H 0.74308 0.10587 0.93921 0.0
H1114 H 0.72102 0.1331 0.04944 0.0
H1115 H 0.69052 0.13077 1.01584 0.0
H1116 H 0.76415 0.13496 0.97257 0.0
H1117 H 0.74758 0.09006 0.09419 0.0
H1118 H 0.73255 0.09249 0.04948 0.0
H1119 H 0.7335 0.11011 0.09247 0.0
C1120 C 0.71433 0.11044 0.93644 0.0
C1121 C 0.69916 0.11721 0.95761 0.0
C1122 C 0.73169 0.11148 0.95601 0.0
C1123 C 0.73428 0.11934 0.99711 0.0
C1124 C 0.71929 0.12664 1.01797 0.0
H1125 H 0.84436 0.14015 0.11335 0.0
H1126 H 0.81354 0.14502 0.08385 0.0
C1127 C 0.70188 0.12548 0.99853 0.0
C1128 C 0.75266 0.11951 1.01813 0.0
H1129 H 0.777 0.10305 0.09879 0.0
C1130 C 0.76698 0.12806 1.00029 0.0
C1131 C 0.75632 0.11034 0.05407 0.0
C1132 C 0.74174 0.10008 0.07353 0.0
C1133 C 0.78491 0.12745 1.01702 0.0
C1134 C 0.78854 0.11837 0.05307 0.0
C1135 C 0.77416 0.11012 0.07132 0.0
C1136 C 0.80728 0.11588 0.07059 0.0
C1137 C 0.79989 0.13589 0.995 0.0
C1138 C 0.81385 0.09795 0.07355 0.0
C1139 C 0.83124 0.09518 0.09071 0.0
C1140 C 0.84249 0.11028 0.10535 0.0
C1141 C 0.836 0.12827 0.10207 0.0
C1142 C 0.81846 0.13105 0.08512 0.0
H1143 H 0.79543 0.13852 0.96292 0.0
H1144 H 0.80405 0.14928 1.01223 0.0
H1145 H 0.81196 0.12677 0.99366 0.0
H1146 H 0.80551 0.08604 0.0624 0.0
H1147 H 0.83597 0.08115 0.09218 0.0
H1148 H 0.15429 0.5557 0.43326 0.0
H1149 H 0.15235 0.52697 0.38717 0.0
H1150 H 0.13993 0.55786 0.28292 0.0
H1151 H 0.1423 0.58681 0.32863 0.0
H1152 H 0.11799 0.51999 0.29599 0.0
H1153 H 0.19346 0.51814 0.29293 0.0
H1154 H 0.18348 0.52395 0.34199 0.0
H1155 H 0.1812 0.5395 0.3026 0.0
C1156 C 0.15102 0.55643 0.40057 0.0
C1157 C 0.14863 0.57365 0.38469 0.0
C1158 C 0.14983 0.53997 0.37432 0.0
C1159 C 0.1461 0.54031 0.33165 0.0
C1160 C 0.14278 0.55732 0.31583 0.0
H1161 H 0.16763 0.45496 0.13379 0.0
H1162 H 0.16341 0.48406 0.17653 0.0
C1163 C 0.14404 0.57385 0.34208 0.0
C1164 C 0.14703 0.52301 0.3034 0.0
H1165 H 0.1773 0.49271 0.25852 0.0
C1166 C 0.13092 0.514 0.28768 0.0
C1167 C 0.16393 0.51533 0.29245 0.0
C1168 C 0.18158 0.52468 0.30807 0.0
C1169 C 0.13131 0.49733 0.2616 0.0
C1170 C 0.14825 0.48946 0.25126 0.0
C1171 C 0.16433 0.49868 0.26657 0.0
C1172 C 0.14972 0.47175 0.22435 0.0
C1173 C 0.11362 0.48841 0.24485 0.0
C1174 C 0.14343 0.45507 0.23692 0.0
C1175 C 0.14598 0.4383 0.21267 0.0
C1176 C 0.15497 0.43785 0.17536 0.0
C1177 C 0.16094 0.45468 0.1626 0.0
C1178 C 0.15844 0.47138 0.18689 0.0
H1179 H 0.1021 0.49821 0.24762 0.0
H1180 H 0.11447 0.48302 0.2118 0.0
H1181 H 0.11069 0.4766 0.26265 0.0
H1182 H 0.13697 0.45494 0.26607 0.0
H1183 H 0.14142 0.42565 0.22384 0.0
H1184 H 0.33298 0.10409 0.52986 0.0
H1185 H 0.30437 0.10506 0.56495 0.0
H1186 H 0.28602 0.14994 0.49651 0.0
H1187 H 0.31446 0.14885 0.46055 0.0
H1188 H 0.27854 0.15167 0.58949 0.0
H1189 H 0.25628 0.08765 0.49171 0.0
H1190 H 0.27852 0.08732 0.51726 0.0
H1191 H 0.27413 0.10242 0.47751 0.0
C1192 C 0.32293 0.1143 0.52254 0.0
C1193 C 0.32593 0.12627 0.49209 0.0
C1194 C 0.30664 0.11486 0.54271 0.0
C1195 C 0.29307 0.12744 0.53296 0.0
C1196 C 0.29638 0.14015 0.50443 0.0
H1197 H 0.17804 0.11782 0.56905 0.0
H1198 H 0.20769 0.12379 0.5426 0.0
C1199 C 0.31267 0.13956 0.48408 0.0
C1200 C 0.27493 0.12626 0.54997 0.0
H1201 H 0.23703 0.09899 0.54403 0.0
C1202 C 0.26942 0.14019 0.57962 0.0
C1203 C 0.26305 0.11136 0.53657 0.0
C1204 C 0.26814 0.09636 0.5038 0.0
C1205 C 0.25235 0.13941 0.59682 0.0
C1206 C 0.24063 0.12427 0.58405 0.0
C1207 C 0.24608 0.11053 0.55389 0.0
C1208 C 0.2226 0.12233 0.60133 0.0
C1209 C 0.24687 0.15486 0.62807 0.0
C1210 C 0.22115 0.1196 0.64319 0.0
C1211 C 0.20419 0.11622 0.65846 0.0
C1212 C 0.18838 0.11551 0.6321 0.0
C1213 C 0.18989 0.11857 0.59034 0.0
C1214 C 0.20683 0.12188 0.5751 0.0
H1215 H 0.25548 0.16736 0.6275 0.0
H1216 H 0.23243 0.15863 0.62226 0.0
H1217 H 0.24837 0.15021 0.65958 0.0
H1218 H 0.23318 0.11959 0.6638 0.0
H1219 H 0.20346 0.11399 0.69081 0.0
H1220 H 0.6217 0.46118 0.38545 0.0
H1221 H 0.61807 0.48907 0.34896 0.0
H1222 H 0.66149 0.47113 0.27106 0.0
H1223 H 0.66527 0.44329 0.30741 0.0
H1224 H 0.65067 0.51609 0.33726 0.0
H1225 H 0.61425 0.48439 0.1933 0.0
H1226 H 0.61311 0.47483 0.2424 0.0
H1227 H 0.63327 0.47202 0.21394 0.0
C1228 C 0.63034 0.46305 0.36022 0.0
C1229 C 0.64376 0.44993 0.34934 0.0
C1230 C 0.62831 0.47906 0.33956 0.0
C1231 C 0.63946 0.48216 0.30716 0.0
C1232 C 0.65268 0.469 0.29583 0.0
H1233 H 0.65717 0.55973 0.13191 0.0
H1234 H 0.65232 0.53317 0.17014 0.0
C1235 C 0.65486 0.45312 0.31676 0.0
C1236 C 0.63773 0.49936 0.28579 0.0
H1237 H 0.62432 0.51521 0.19342 0.0
C1238 C 0.64473 0.51601 0.30598 0.0
C1239 C 0.63006 0.49918 0.24495 0.0
C1240 C 0.62212 0.48171 0.2222 0.0
C1241 C 0.64496 0.53231 0.28583 0.0
C1242 C 0.63747 0.53213 0.24461 0.0
C1243 C 0.63 0.51551 0.22496 0.0
C1244 C 0.63874 0.54846 0.22005 0.0
C1245 C 0.65411 0.54926 0.30826 0.0
C1246 C 0.63212 0.56601 0.2342 0.0
C1247 C 0.6351 0.58144 0.2124 0.0
C1248 C 0.64464 0.5796 0.17582 0.0
C1249 C 0.6501 0.56178 0.1604 0.0
C1250 C 0.64725 0.54649 0.18221 0.0
H1251 H 0.66301 0.54585 0.33507 0.0
H1252 H 0.66244 0.55639 0.28712 0.0
H1253 H 0.64359 0.559 0.3202 0.0
H1254 H 0.62499 0.56789 0.26259 0.0
H1255 H 0.63066 0.5949 0.22516 0.0
H1256 H 0.18174 0.89506 1.0134 0.0
H1257 H 0.21136 0.89037 0.04855 0.0
H1258 H 0.23746 0.89438 0.93407 0.0
H1259 H 0.20794 0.8994 0.899 0.0
H1260 H 0.23782 0.86487 0.03888 0.0
H1261 H 0.26543 0.93284 1.00876 0.0
H1262 H 0.24176 0.92684 0.99895 0.0
H1263 H 0.2582 0.91875 0.96235 0.0
C1264 C 0.19376 0.89476 0.99558 0.0
C1265 C 0.19242 0.89777 0.95338 0.0
C1266 C 0.21074 0.89214 1.01579 0.0
C1267 C 0.22681 0.89244 0.99434 0.0
C1268 C 0.22541 0.89465 0.95178 0.0
H1269 H 0.34209 0.88795 0.07958 0.0
H1270 H 0.3137 0.8847 0.03596 0.0
C1271 C 0.20847 0.89744 0.93166 0.0
C1272 C 0.24496 0.89068 1.01661 0.0
H1273 H 0.28597 0.91251 0.03924 0.0
C1274 C 0.24833 0.87531 0.0389 0.0
C1275 C 0.25879 0.90427 1.01687 0.0
C1276 C 0.25585 0.92169 0.99581 0.0
C1277 C 0.26502 0.87314 0.06111 0.0
C1278 C 0.27876 0.88675 0.06141 0.0
C1279 C 0.27553 0.90197 0.0387 0.0
C1280 C 0.29607 0.88623 0.0874 0.0
C1281 C 0.26786 0.85625 0.08399 0.0
C1282 C 0.29569 0.88787 0.13077 0.0
C1283 C 0.31183 0.88978 0.15558 0.0
C1284 C 0.32879 0.89 0.13766 0.0
C1285 C 0.32926 0.88751 0.09425 0.0
C1286 C 0.31303 0.88581 0.06935 0.0
H1287 H 0.2583 0.84493 0.07195 0.0
H1288 H 0.28199 0.85112 0.08163 0.0
H1289 H 0.26548 0.85988 0.11725 0.0
H1290 H 0.28284 0.88855 0.14554 0.0
H1291 H 0.31104 0.89184 0.18893 0.0
H1292 H 0.83855 0.57652 0.87109 0.0
H1293 H 0.84122 0.54745 0.82778 0.0
H1294 H 0.89905 0.55588 0.82547 0.0
H1295 H 0.89658 0.58485 0.87045 0.0
H1296 H 0.85383 0.54159 0.74924 0.0
H1297 H 0.89559 0.50353 0.86019 0.0
H1298 H 0.88417 0.52482 0.8759 0.0
H1299 H 0.90481 0.52524 0.849 0.0
C1300 C 0.85191 0.57207 0.8621 0.0
C1301 C 0.86741 0.58287 0.87486 0.0
C1302 C 0.85338 0.55552 0.83696 0.0
C1303 C 0.87035 0.54936 0.82388 0.0
C1304 C 0.88586 0.5602 0.83589 0.0
H1305 H 0.89334 0.44693 0.66941 0.0
H1306 H 0.8964 0.47754 0.70805 0.0
C1307 C 0.88441 0.57682 0.86124 0.0
C1308 C 0.87149 0.53171 0.79711 0.0
H1309 H 0.88794 0.48774 0.79461 0.0
C1310 C 0.86137 0.52985 0.75906 0.0
C1311 C 0.88138 0.51643 0.80995 0.0
C1312 C 0.89201 0.51746 0.85111 0.0
C1313 C 0.86061 0.51303 0.73386 0.0
C1314 C 0.87007 0.49764 0.74724 0.0
C1315 C 0.88069 0.49962 0.78456 0.0
C1316 C 0.8683 0.47914 0.72393 0.0
C1317 C 0.84958 0.5118 0.6932 0.0
C1318 C 0.85154 0.46985 0.72066 0.0
C1319 C 0.84978 0.45231 0.69907 0.0
C1320 C 0.86475 0.4437 0.68026 0.0
C1321 C 0.88158 0.45305 0.68387 0.0
C1322 C 0.88335 0.47058 0.70571 0.0
H1323 H 0.84689 0.52567 0.68272 0.0
H1324 H 0.85664 0.50328 0.66871 0.0
H1325 H 0.83632 0.50514 0.697 0.0
H1326 H 0.83985 0.47611 0.7352 0.0
H1327 H 0.83673 0.44538 0.69769 0.0
H1328 H 0.12198 0.17822 0.75897 0.0
H1329 H 0.12564 0.20001 0.82108 0.0
H1330 H 0.13938 0.24315 0.74621 0.0
H1331 H 0.13564 0.22135 0.68356 0.0
H1332 H 0.15478 0.22374 0.85639 0.0
H1333 H 0.09404 0.26294 0.80687 0.0
H1334 H 0.09922 0.24022 0.78299 0.0
H1335 H 0.11165 0.25998 0.77059 0.0
C1336 C 0.12613 0.19225 0.75565 0.0
C1337 C 0.12845 0.19801 0.71612 0.0
C1338 C 0.12819 0.20472 0.7913 0.0
C1339 C 0.13245 0.22332 0.78835 0.0
C1340 C 0.1358 0.22893 0.74922 0.0
H1341 H 0.12864 0.31829 0.9765 0.0
H1342 H 0.13237 0.29819 0.91249 0.0
C1343 C 0.13386 0.21639 0.71343 0.0
C1344 C 0.13237 0.23685 0.82604 0.0
H1345 H 0.10892 0.27352 0.87066 0.0
C1346 C 0.14482 0.23469 0.85945 0.0
C1347 C 0.11934 0.25112 0.83015 0.0
C1348 C 0.10518 0.25372 0.79597 0.0
C1349 C 0.14464 0.24642 0.89665 0.0
C1350 C 0.13136 0.26047 0.90111 0.0
C1351 C 0.1191 0.26279 0.86742 0.0
C1352 C 0.12968 0.27266 0.94061 0.0
C1353 C 0.15888 0.24379 0.93062 0.0
C1354 C 0.12673 0.26511 0.97791 0.0
C1355 C 0.12468 0.27659 1.01467 0.0
C1356 C 0.12534 0.29594 1.01499 0.0
C1357 C 0.12814 0.30347 0.97754 0.0
C1358 C 0.13026 0.29198 0.94082 0.0
H1359 H 0.17104 0.23664 0.91818 0.0
H1360 H 0.16323 0.25723 0.94747 0.0
H1361 H 0.15315 0.23514 0.95308 0.0
H1362 H 0.1257 0.2503 0.97851 0.0
H1363 H 0.12229 0.27027 0.04273 0.0
H1364 H 0.08867 0.85541 0.08706 0.0
H1365 H 0.06722 0.85869 0.14239 0.0
H1366 H 0.03198 0.89101 0.06808 0.0
H1367 H 0.05308 0.88739 1.01234 0.0
H1368 H 0.0538 0.88775 0.1892 0.0
H1369 H 0.99681 0.85234 0.09491 0.0
H1370 H 0.01969 0.85218 0.07784 0.0
H1371 H 1.00541 0.87193 0.07253 0.0
C1372 C 0.07641 0.8633 0.08251 0.0
C1373 C 0.07262 0.87102 0.04494 0.0
C1374 C 0.0641 0.86516 0.11425 0.0
C1375 C 0.04767 0.87475 0.10929 0.0
C1376 C 0.04423 0.88308 0.07245 0.0
H1377 H 0.95789 0.89469 0.28049 0.0
H1378 H 0.97918 0.8985 0.22564 0.0
C1379 C 0.05646 0.88115 0.04065 0.0
C1380 C 0.03419 0.87596 0.1425 0.0
H1381 H 0.9901 0.86611 0.1616 0.0
C1382 C 0.03988 0.88304 0.18301 0.0
C1383 C 0.01593 0.86979 0.13479 0.0
C1384 C 1.00911 0.86097 0.0928 0.0
C1385 C 0.02794 0.8841 0.21568 0.0
C1386 C 1.00976 0.87792 0.20794 0.0
C1387 C 1.00395 0.87111 0.16743 0.0
C1388 C 0.99721 0.87665 0.24225 0.0
C1389 C 0.03485 0.89171 0.2585 0.0
C1390 C 1.00026 0.86321 0.26985 0.0
C1391 C 0.98813 0.86092 0.30065 0.0
C1392 C 0.97261 0.87211 0.30508 0.0
C1393 C 0.96976 0.88596 0.27817 0.0
C1394 C 0.98186 0.88807 0.24671 0.0
H1395 H 0.04785 0.89938 0.25793 0.0
H1396 H 0.02466 0.90103 0.27343 0.0
H1397 H 0.03718 0.88012 0.27789 0.0
H1398 H 0.01188 0.85415 0.26696 0.0
H1399 H 0.99083 0.85013 0.32081 0.0
H1400 H 0.42829 0.69034 0.42049 0.0
H1401 H 0.42269 0.71271 0.37055 0.0
H1402 H 0.38008 0.73715 0.44368 0.0
H1403 H 0.3864 0.71525 0.49538 0.0
H1404 H 0.39588 0.72058 0.32118 0.0
H1405 H 0.40927 0.78206 0.43429 0.0
H1406 H 0.41325 0.75892 0.44756 0.0
H1407 H 0.39058 0.76812 0.44629 0.0
C1408 C 0.41767 0.70043 0.42604 0.0
C1409 C 0.4079 0.70112 0.46219 0.0
C1410 C 0.41444 0.71324 0.39728 0.0
C1411 C 0.40119 0.72695 0.40351 0.0
C1412 C 0.39078 0.72713 0.43867 0.0
H1413 H 0.38345 0.79742 0.19593 0.0
H1414 H 0.37767 0.77446 0.24444 0.0
C1415 C 0.39428 0.7145 0.46807 0.0
C1416 C 0.39893 0.74117 0.37352 0.0
H1417 H 0.40159 0.78755 0.36561 0.0
C1418 C 0.39704 0.73525 0.33093 0.0
C1419 C 0.40054 0.76034 0.38608 0.0
C1420 C 0.40369 0.76777 0.43097 0.0
C1421 C 0.39755 0.74778 0.30067 0.0
C1422 C 0.39925 0.76693 0.31327 0.0
C1423 C 0.40025 0.7729 0.35586 0.0
C1424 C 0.40206 0.78088 0.28345 0.0
C1425 C 0.39729 0.74023 0.25566 0.0
C1426 C 0.41735 0.79252 0.28964 0.0
C1427 C 0.42039 0.80585 0.26274 0.0
C1428 C 0.40834 0.80781 0.22845 0.0
C1429 C 0.39305 0.79612 0.22185 0.0
C1430 C 0.38981 0.78292 0.24945 0.0
H1431 H 0.40049 0.72526 0.25191 0.0
H1432 H 0.38354 0.74205 0.24112 0.0
H1433 H 0.40721 0.74765 0.23865 0.0
H1434 H 0.42709 0.79124 0.31536 0.0
H1435 H 0.43239 0.8145 0.26867 0.0
H1436 H 0.4662 0.13688 0.44463 0.0
H1437 H 0.48784 0.13135 0.50193 0.0
H1438 H 0.45125 0.15706 0.58928 0.0
H1439 H 0.42955 0.16247 0.53257 0.0
H1440 H 0.50391 0.15939 0.5566 0.0
H1441 H 0.46678 0.11088 0.64338 0.0
H1442 H 0.46027 0.11478 0.59058 0.0
H1443 H 0.45386 0.13093 0.63279 0.0
C1444 C 0.46256 0.14097 0.47608 0.0
C1445 C 0.4461 0.15014 0.48391 0.0
C1446 C 0.47499 0.13786 0.5088 0.0
C1447 C 0.47112 0.14362 0.54998 0.0
C1448 C 0.45442 0.15216 0.55791 0.0
H1449 H 0.52822 0.16018 0.78992 0.0
H1450 H 0.50602 0.15709 0.73084 0.0
C1451 C 0.44205 0.15534 0.52531 0.0
C1452 C 0.48509 0.14233 0.58432 0.0
H1453 H 0.49256 0.12628 0.67913 0.0
C1454 C 0.50154 0.15194 0.58313 0.0
C1455 C 0.48192 0.13274 0.61912 0.0
C1456 C 0.46482 0.1216 0.6215 0.0
C1457 C 0.51464 0.15273 0.6163 0.0
C1458 C 0.51139 0.14333 0.65136 0.0
C1459 C 0.49505 0.13348 0.6523 0.0
C1460 C 0.5246 0.14401 0.68774 0.0
C1461 C 0.53155 0.16423 0.61418 0.0
C1462 C 0.54231 0.13725 0.68348 0.0
C1463 C 0.55505 0.13903 0.71717 0.0
C1464 C 0.55032 0.1475 0.75595 0.0
C1465 C 0.53236 0.15363 0.76052 0.0
C1466 C 0.51964 0.15186 0.72676 0.0
H1467 H 0.52992 0.17411 0.59029 0.0
H1468 H 0.53514 0.17212 0.64455 0.0
H1469 H 0.54306 0.15499 0.60599 0.0
H1470 H 0.54635 0.13079 0.65392 0.0
H1471 H 0.5687 0.13404 0.71256 0.0
H1472 H 0.12549 0.79209 0.88333 0.0
H1473 H 0.13153 0.77015 0.82322 0.0
H1474 H 0.11315 0.8102 0.74134 0.0
H1475 H 0.10741 0.83217 0.80069 0.0
H1476 H 0.10776 0.75492 0.761 0.0
H1477 H 0.16043 0.79434 0.69192 0.0
H1478 H 0.15357 0.80024 0.74408 0.0
H1479 H 0.14033 0.80772 0.70068 0.0
C1480 C 0.12301 0.79635 0.85255 0.0
C1481 C 0.11606 0.81405 0.84716 0.0
C1482 C 0.1264 0.78373 0.81812 0.0
C1483 C 0.12309 0.78854 0.7775 0.0
C1484 C 0.11627 0.80622 0.77215 0.0
H1485 H 0.11362 0.74135 0.52554 0.0
H1486 H 0.11551 0.76 0.59227 0.0
C1487 C 0.11288 0.81879 0.80638 0.0
C1488 C 0.12586 0.77495 0.74056 0.0
H1489 H 0.1456 0.77004 0.64703 0.0
C1490 C 0.11627 0.7581 0.73639 0.0
C1491 C 0.137 0.77898 0.70828 0.0
C1492 C 0.14856 0.79622 0.7116 0.0
C1493 C 0.11679 0.74569 0.70018 0.0
C1494 C 0.12737 0.75008 0.66728 0.0
C1495 C 0.13742 0.76664 0.67205 0.0
C1496 C 0.12711 0.73846 0.62653 0.0
C1497 C 0.10532 0.72838 0.6966 0.0
C1498 C 0.13335 0.72011 0.62301 0.0
C1499 C 0.13237 0.70931 0.58447 0.0
C1500 C 0.12509 0.71664 0.54868 0.0
C1501 C 0.11928 0.73515 0.5523 0.0
C1502 C 0.12035 0.7459 0.59058 0.0
H1503 H 0.09538 0.72869 0.7212 0.0
H1504 H 0.09781 0.72641 0.66593 0.0
H1505 H 0.11426 0.71627 0.69944 0.0
H1506 H 0.13891 0.7141 0.6501 0.0
H1507 H 0.13696 0.69513 0.5829 0.0
H1508 H 0.4255 0.86831 1.01891 0.0
H1509 H 0.44626 0.86643 0.96186 0.0
H1510 H 0.49213 0.86871 0.05013 0.0
H1511 H 0.47166 0.87053 0.10699 0.0
H1512 H 0.47866 0.89179 0.94909 0.0
H1513 H 0.49622 0.81891 0.97045 0.0
H1514 H 0.4758 0.82966 0.9895 0.0
H1515 H 0.49734 0.83494 1.01638 0.0
C1516 C 0.44 0.86856 0.02613 0.0
C1517 C 0.44687 0.86944 0.06753 0.0
C1518 C 0.45184 0.86754 0.99354 0.0
C1519 C 0.47072 0.86723 1.0018 0.0
C1520 C 0.4776 0.8688 0.04307 0.0
H1521 H 0.5672 0.84497 0.8678 0.0
H1522 H 0.54399 0.85076 0.91817 0.0
C1523 C 0.46583 0.86997 0.07558 0.0
C1524 C 0.48334 0.86456 0.96755 0.0
H1525 H 0.51325 0.83369 0.9235 0.0
C1526 C 0.48615 0.87906 0.94315 0.0
C1527 C 0.49315 0.84798 0.96016 0.0
C1528 C 0.49046 0.83189 0.98523 0.0
C1529 C 0.49901 0.87766 0.91239 0.0
C1530 C 0.50891 0.86105 0.90498 0.0
C1531 C 0.50574 0.84643 0.92901 0.0
C1532 C 0.52318 0.85867 0.87388 0.0
C1533 C 0.50235 0.89427 0.88945 0.0
C1534 C 0.5194 0.86128 0.83192 0.0
C1535 C 0.53286 0.85827 0.80298 0.0
C1536 C 0.55024 0.85218 0.81527 0.0
C1537 C 0.55396 0.84961 0.85721 0.0
C1538 C 0.54065 0.85288 0.88611 0.0
H1539 H 0.49774 0.90722 0.90675 0.0
H1540 H 0.51698 0.89575 0.88384 0.0
H1541 H 0.49462 0.89262 0.85907 0.0
H1542 H 0.50594 0.86525 0.8213 0.0
H1543 H 0.5295 0.86016 0.77083 0.0
H1544 H 0.38776 0.29293 1.02239 0.0
H1545 H 0.37948 0.26956 0.06783 0.0
H1546 H 0.42206 0.28981 0.15704 0.0
H1547 H 0.4298 0.31346 0.11303 0.0
H1548 H 0.39748 0.24165 0.09458 0.0
H1549 H 0.38141 0.28823 0.23182 0.0
H1550 H 0.38448 0.29663 0.18225 0.0
H1551 H 0.40381 0.29317 0.21703 0.0
C1552 C 0.39516 0.29251 0.05198 0.0
C1553 C 0.40928 0.30519 0.06432 0.0
C1554 C 0.39045 0.27915 0.07788 0.0
C1555 C 0.39984 0.27817 0.11642 0.0
C1556 C 0.41414 0.29065 0.12827 0.0
H1557 H 0.42139 0.18686 0.25628 0.0
H1558 H 0.41774 0.20784 0.20256 0.0
C1559 C 0.41865 0.30412 0.10282 0.0
C1560 C 0.39548 0.26366 0.14365 0.0
H1561 H 0.39006 0.25715 0.24482 0.0
C1562 C 0.39552 0.24505 0.12731 0.0
C1563 C 0.39241 0.26799 0.18618 0.0
C1564 C 0.39031 0.28761 0.20515 0.0
C1565 C 0.39368 0.23069 0.15277 0.0
C1566 C 0.39243 0.23504 0.19604 0.0
C1567 C 0.39132 0.25367 0.21186 0.0
C1568 C 0.39333 0.22074 0.22592 0.0
C1569 C 0.39309 0.21105 0.13283 0.0
C1570 C 0.38105 0.22105 0.25767 0.0
C1571 C 0.38345 0.20938 0.28925 0.0
C1572 C 0.39802 0.19696 0.2894 0.0
C1573 C 0.40984 0.19605 0.25669 0.0
C1574 C 0.40767 0.208 0.22566 0.0
H1575 H 0.38699 0.21035 0.1007 0.0
H1576 H 0.40715 0.20571 0.13096 0.0
H1577 H 0.38517 0.20192 0.15069 0.0
H1578 H 0.36989 0.23074 0.25876 0.0
H1579 H 0.37415 0.2104 0.3141 0.0
H1580 H 0.99037 0.14604 0.19103 0.0
H1581 H 0.0146 0.14733 0.24612 0.0
H1582 H 0.97551 0.13547 0.33407 0.0
H1583 H 0.95126 0.13427 0.27951 0.0
H1584 H 0.01538 0.17172 0.32476 0.0
H1585 H 0.01727 0.09722 0.34852 0.0
H1586 H 1.00772 0.10557 0.30156 0.0
H1587 H 0.99507 0.10744 0.34752 0.0
C1588 C 0.98695 0.14355 0.22201 0.0
C1589 C 0.96884 0.13999 0.23075 0.0
C1590 C 1.00081 0.14434 0.2535 0.0
C1591 C 0.99691 0.14132 0.29416 0.0
C1592 C 0.9789 0.13761 0.30285 0.0
H1593 H 0.05225 0.14038 0.5347 0.0
H1594 H 0.03186 0.13674 0.47273 0.0
C1595 C 0.96503 0.13699 0.27157 0.0
C1596 C 0.01146 0.14263 0.32798 0.0
H1597 H 0.03362 0.11764 0.39865 0.0
C1598 C 0.01953 0.15988 0.3407 0.0
C1599 C 0.01676 0.1272 0.3489 0.0
C1600 C 1.0089 0.10825 0.33585 0.0
C1601 C 0.03228 0.16225 0.37469 0.0
C1602 C 0.03754 0.14681 0.39589 0.0
C1603 C 0.02967 0.12949 0.38255 0.0
C1604 C 0.05052 0.14845 0.43305 0.0
C1605 C 0.03937 0.18145 0.38858 0.0
C1606 C 0.06807 0.15584 0.43148 0.0
C1607 C 0.07978 0.15809 0.46714 0.0
C1608 C 0.0743 0.15272 0.50508 0.0
C1609 C 0.05699 0.14467 0.50613 0.0
C1610 C 0.04526 0.14258 0.47061 0.0
H1611 H 0.03039 0.19223 0.37676 0.0
H1612 H 0.04068 0.1839 0.42289 0.0
H1613 H 0.05299 0.18312 0.37637 0.0
H1614 H 0.07271 0.16001 0.40272 0.0
H1615 H 0.09303 0.16425 0.46504 0.0
H1616 H 0.88525 0.80372 0.35125 0.0
H1617 H 0.87889 0.78162 0.29014 0.0
H1618 H 0.90569 0.81756 0.21446 0.0
H1619 H 0.91198 0.83973 0.27501 0.0
H1620 H 0.87326 0.79997 0.17557 0.0
H1621 H 0.92162 0.75067 0.24219 0.0
H1622 H 0.90332 0.75863 0.27372 0.0
H1623 H 0.92052 0.7746 0.26255 0.0
C1624 C 0.88947 0.80711 0.32147 0.0
C1625 C 0.8993 0.82344 0.31818 0.0
C1626 C 0.88591 0.7944 0.2866 0.0
C1627 C 0.89207 0.79781 0.24786 0.0
C1628 C 0.90086 0.81461 0.24405 0.0
H1629 H 0.92798 0.73261 0.03824 0.0
H1630 H 0.92243 0.75314 0.10005 0.0
C1631 C 0.90448 0.82726 0.2788 0.0
C1632 C 0.89077 0.78344 0.2119 0.0
H1633 H 0.90881 0.74211 0.17542 0.0
C1634 C 0.8808 0.78718 0.17565 0.0
C1635 C 0.90081 0.76686 0.21197 0.0
C1636 C 0.9123 0.7624 0.24949 0.0
C1637 C 0.88092 0.77496 0.13922 0.0
C1638 C 0.89123 0.75857 0.13914 0.0
C1639 C 0.90081 0.75463 0.17568 0.0
C1640 C 0.8939 0.74631 0.10055 0.0
C1641 C 0.87073 0.78002 0.10051 0.0
C1642 C 0.87965 0.73561 0.08004 0.0
C1643 C 0.88279 0.7237 0.04439 0.0
C1644 C 0.90024 0.72232 0.02878 0.0
C1645 C 0.91437 0.73323 0.04932 0.0
C1646 C 0.91124 0.74501 0.08479 0.0
H1647 H 0.86531 0.7943 0.10429 0.0
H1648 H 0.87972 0.77877 0.07401 0.0
H1649 H 0.85916 0.77032 0.0927 0.0
H1650 H 0.86619 0.73627 0.09195 0.0
H1651 H 0.87164 0.71546 0.02937 0.0
H1652 H 0.05644 0.1227 0.72347 0.0
H1653 H 0.03296 0.11694 0.77143 0.0
H1654 H 0.02263 0.17544 0.79073 0.0
H1655 H 0.04643 0.18129 0.74434 0.0
H1656 H 0.02695 0.16143 0.8619 0.0
H1657 H 0.9783 0.11706 0.76082 0.0
H1658 H 1.00101 0.10818 0.76191 0.0
H1659 H 0.99635 0.12967 0.74053 0.0
C1660 C 0.04901 0.13429 0.73764 0.0
C1661 C 0.05335 0.15245 0.73024 0.0
C1662 C 0.03548 0.13098 0.76481 0.0
C1663 C 0.02582 0.14573 0.78438 0.0
C1664 C 0.02986 0.16381 0.77606 0.0
H1665 H 0.93108 0.14487 0.93346 0.0
H1666 H 0.95145 0.14463 0.87613 0.0
C1667 C 0.0435 0.16714 0.74949 0.0
C1668 C 0.01253 0.1427 0.81604 0.0
H1669 H 0.97355 0.11977 0.83326 0.0
C1670 C 0.01526 0.15235 0.8555 0.0
C1671 C 0.99714 0.131 0.80768 0.0
C1672 C 0.99288 0.12102 0.76533 0.0
C1673 C 1.00313 0.15067 0.88674 0.0
C1674 C 0.98808 0.13848 0.87895 0.0
C1675 C 0.98521 0.12891 0.83941 0.0
C1676 C 0.97508 0.13599 0.91149 0.0
C1677 C 1.00631 0.16244 0.92744 0.0
C1678 C 0.98133 0.13031 0.94973 0.0
C1679 C 0.96986 0.13085 0.98269 0.0
C1680 C 0.95178 0.13679 0.97796 0.0
C1681 C 0.94505 0.14074 0.93849 0.0
C1682 C 0.95666 0.14048 0.90559 0.0
H1683 H 0.01508 0.17458 0.92425 0.0
H1684 H 0.99327 0.16745 0.93983 0.0
H1685 H 0.01324 0.15412 0.95034 0.0
H1686 H 0.99533 0.1262 0.95464 0.0
H1687 H 0.97543 0.12732 1.0124 0.0
H1688 H 0.605 0.17596 0.76535 0.0
H1689 H 0.60655 0.19629 0.70999 0.0
H1690 H 0.63336 0.23799 0.79556 0.0
H1691 H 0.63202 0.21772 0.85101 0.0
H1692 H 0.59062 0.23081 0.70877 0.0
H1693 H 0.66504 0.23663 0.69609 0.0
H1694 H 0.65484 0.21886 0.72245 0.0
H1695 H 0.6578 0.24185 0.74783 0.0
C1696 C 0.61152 0.18933 0.77232 0.0
C1697 C 0.61844 0.19514 0.81276 0.0
C1698 C 0.61234 0.20097 0.74058 0.0
C1699 C 0.62023 0.21863 0.74838 0.0
C1700 C 0.62752 0.22431 0.78847 0.0
H1701 H 0.62943 0.31549 0.61521 0.0
H1702 H 0.63097 0.29229 0.66478 0.0
C1703 C 0.62668 0.21269 0.82025 0.0
C1704 C 0.61981 0.23153 0.71538 0.0
H1705 H 0.64669 0.25789 0.66151 0.0
C1706 C 0.60289 0.2366 0.69815 0.0
C1707 C 0.63581 0.23918 0.70163 0.0
C1708 C 0.65442 0.23375 0.71764 0.0
C1709 C 0.60148 0.24944 0.66848 0.0
C1710 C 0.61748 0.25718 0.65488 0.0
C1711 C 0.63442 0.25199 0.67185 0.0
C1712 C 0.6169 0.27104 0.62387 0.0
C1713 C 0.58283 0.25505 0.65305 0.0
C1714 C 0.60878 0.26678 0.58393 0.0
C1715 C 0.60782 0.28007 0.55545 0.0
C1716 C 0.61512 0.29789 0.56615 0.0
C1717 C 0.62364 0.30195 0.60583 0.0
C1718 C 0.62455 0.28867 0.63428 0.0
H1719 H 0.57221 0.2517 0.67418 0.0
H1720 H 0.58234 0.27008 0.64967 0.0
H1721 H 0.57948 0.24747 0.62224 0.0
H1722 H 0.60314 0.25316 0.57474 0.0
H1723 H 0.60126 0.2764 0.52514 0.0
H1724 H 0.49002 0.8463 0.27674 0.0
H1725 H 0.50989 0.85028 0.33947 0.0
H1726 H 0.47234 0.88916 0.3961 0.0
H1727 H 0.45222 0.88534 0.33268 0.0
H1728 H 0.52585 0.88518 0.38215 0.0
H1729 H 0.48097 0.84806 0.47936 0.0
H1730 H 0.47892 0.84489 0.42344 0.0
H1731 H 0.47114 0.86584 0.45053 0.0
C1732 C 0.48591 0.85578 0.30238 0.0
C1733 C 0.4694 0.86546 0.29953 0.0
C1734 C 0.49737 0.85805 0.33832 0.0
C1735 C 0.49261 0.86987 0.3728 0.0
C1736 C 0.47626 0.87981 0.37007 0.0
H1737 H 0.54939 0.87714 0.62099 0.0
H1738 H 0.52765 0.88217 0.56339 0.0
C1739 C 0.46481 0.8777 0.33371 0.0
C1740 C 0.50487 0.87148 0.41128 0.0
H1741 H 0.50947 0.85793 0.50925 0.0
C1742 C 0.5222 0.87937 0.41009 0.0
C1743 C 0.50014 0.86401 0.4479 0.0
C1744 C 0.48184 0.85511 0.45072 0.0
C1745 C 0.53495 0.87981 0.44412 0.0
C1746 C 0.53056 0.87158 0.48018 0.0
C1747 C 0.51298 0.86419 0.4818 0.0
C1748 C 0.54426 0.86958 0.51543 0.0
C1749 C 0.55297 0.88928 0.44104 0.0
C1750 C 0.56095 0.86082 0.50815 0.0
C1751 C 0.57348 0.8581 0.54097 0.0
C1752 C 0.56965 0.8638 0.58235 0.0
C1753 C 0.55296 0.87268 0.58967 0.0
C1754 C 0.54043 0.87549 0.55666 0.0
H1755 H 0.55181 0.90017 0.4194 0.0
H1756 H 0.55834 0.89566 0.47173 0.0
H1757 H 0.56292 0.87898 0.42875 0.0
H1758 H 0.56415 0.8556 0.47702 0.0
H1759 H 0.58601 0.851 0.53381 0.0
H1760 H 0.89622 0.21553 0.13349 0.0
H1761 H 0.88966 0.23745 0.19345 0.0
H1762 H 0.90283 0.19572 0.27536 0.0
H1763 H 0.90973 0.17403 0.21615 0.0
H1764 H 0.86693 0.23788 0.26378 0.0
H1765 H 0.94046 0.23684 0.30956 0.0
H1766 H 0.93145 0.22721 0.25934 0.0
H1767 H 0.92997 0.21441 0.30366 0.0
C1768 C 0.89734 0.21095 0.16423 0.0
C1769 C 0.90377 0.19315 0.17014 0.0
C1770 C 0.89361 0.22348 0.19845 0.0
C1771 C 0.89614 0.21833 0.23893 0.0
C1772 C 0.90115 0.20012 0.24449 0.0
H1773 H 0.87542 0.27771 0.47983 0.0
H1774 H 0.87185 0.25782 0.41409 0.0
C1775 C 0.90507 0.18772 0.21056 0.0
C1776 C 0.89529 0.23224 0.27554 0.0
H1777 H 0.92136 0.25227 0.35782 0.0
C1778 C 0.87881 0.24113 0.28432 0.0
C1779 C 0.91088 0.23666 0.30198 0.0
C1780 C 0.92924 0.22843 0.29305 0.0
C1781 C 0.87748 0.25407 0.31935 0.0
C1782 C 0.89297 0.258 0.34649 0.0
C1783 C 0.90944 0.24923 0.33724 0.0
C1784 C 0.89289 0.27149 0.38413 0.0
C1785 C 0.85963 0.26365 0.32657 0.0
C1786 C 0.90574 0.28588 0.3892 0.0
C1787 C 0.90799 0.29694 0.42673 0.0
C1788 C 0.89733 0.29402 0.46012 0.0
C1789 C 0.88372 0.28034 0.4545 0.0
C1790 C 0.88163 0.26903 0.41686 0.0
H1791 H 0.85071 0.26291 0.29779 0.0
H1792 H 0.85243 0.2568 0.35008 0.0
H1793 H 0.86179 0.27838 0.33836 0.0
H1794 H 0.91456 0.28813 0.36448 0.0
H1795 H 0.9185 0.30748 0.42999 0.0
H1796 H 0.54397 0.14154 0.95032 0.0
H1797 H 0.52224 0.13845 1.00404 0.0
H1798 H 0.56312 0.15748 0.09835 0.0
H1799 H 0.58479 0.16069 0.04535 0.0
H1800 H 0.52333 0.11873 0.0778 0.0
H1801 H 0.52123 0.19476 0.11537 0.0
H1802 H 0.53053 0.18408 0.06858 0.0
H1803 H 0.54367 0.18517 0.11697 0.0
C1804 C 0.54843 0.14479 0.98252 0.0
C1805 C 0.56611 0.15156 0.99337 0.0
C1806 C 0.53596 0.14307 1.01319 0.0
C1807 C 0.54094 0.14811 0.05515 0.0
C1808 C 0.55885 0.15388 0.06613 0.0
H1809 H 0.48736 0.16249 0.28766 0.0
H1810 H 0.50894 0.15993 0.23268 0.0
C1811 C 0.57126 0.15563 0.03567 0.0
C1812 C 0.52736 0.14815 0.08752 0.0
H1813 H 0.50663 0.17665 0.16066 0.0
C1814 C 0.51957 0.13139 0.09578 0.0
C1815 C 0.52247 0.16468 0.11097 0.0
C1816 C 0.52976 0.18323 0.10239 0.0
C1817 C 0.50741 0.13066 0.12765 0.0
C1818 C 0.50267 0.14719 0.15138 0.0
C1819 C 0.51033 0.16396 0.14272 0.0
C1820 C 0.48974 0.14755 0.18526 0.0
C1821 C 0.50018 0.11213 0.13637 0.0
C1822 C 0.47171 0.14145 0.17706 0.0
C1823 C 0.45933 0.14285 0.20851 0.0
C1824 C 0.46466 0.15052 0.24885 0.0
C1825 C 0.48277 0.15646 0.25706 0.0
C1826 C 0.49514 0.15503 0.2256 0.0
H1827 H 0.50879 0.10063 0.12364 0.0
H1828 H 0.49932 0.11135 0.17018 0.0
H1829 H 0.48632 0.11009 0.12156 0.0
H1830 H 0.46706 0.13603 0.14605 0.0
H1831 H 0.44547 0.13827 0.20092 0.0
H1832 H 0.61177 0.74494 0.06591 0.0
H1833 H 0.61415 0.76437 1.00941 0.0
H1834 H 0.6376 0.71913 0.93471 0.0
H1835 H 0.63514 0.69939 0.99141 0.0
H1836 H 0.64415 0.77517 0.96836 0.0
H1837 H 0.59521 0.73475 0.85894 0.0
H1838 H 0.59732 0.73159 0.9134 0.0
H1839 H 0.61388 0.72186 0.87904 0.0
C1840 C 0.61753 0.73904 0.03759 0.0
C1841 C 0.62322 0.72048 0.03336 0.0
C1842 C 0.61888 0.75025 1.00519 0.0
C1843 C 0.62581 0.74324 0.96739 0.0
C1844 C 0.63189 0.72483 0.96323 0.0
H1845 H 0.63166 0.79382 0.73363 0.0
H1846 H 0.63491 0.77328 0.78878 0.0
C1847 C 0.63061 0.71357 0.99584 0.0
C1848 C 0.62649 0.75533 0.93268 0.0
H1849 H 0.60921 0.76039 0.83452 0.0
C1850 C 0.63654 0.77189 0.93906 0.0
C1851 C 0.6166 0.75115 0.89429 0.0
C1852 C 0.60501 0.73396 0.8859 0.0
C1853 C 0.63705 0.78425 0.9083 0.0
C1854 C 0.62686 0.78026 0.87019 0.0
C1855 C 0.61703 0.76355 0.86359 0.0
C1856 C 0.62591 0.79331 0.83709 0.0
C1857 C 0.64877 0.80134 0.91681 0.0
C1858 C 0.61986 0.81157 0.84548 0.0
C1859 C 0.61814 0.82345 0.81395 0.0
C1860 C 0.62217 0.81733 0.77297 0.0
C1861 C 0.62849 0.79912 0.76475 0.0
C1862 C 0.63026 0.78727 0.79632 0.0
H1863 H 0.65982 0.79952 0.94065 0.0
H1864 H 0.65496 0.80497 0.88823 0.0
H1865 H 0.64029 0.81309 0.9287 0.0
H1866 H 0.61602 0.81656 0.8763 0.0
H1867 H 0.6133 0.83735 0.8216 0.0
H1868 H 0.97466 0.88141 0.50389 0.0
H1869 H 0.99495 0.88439 0.56637 0.0
H1870 H 0.95501 0.8575 0.63229 0.0
H1871 H 0.93475 0.85421 0.56992 0.0
H1872 H 0.99137 0.90126 0.64642 0.0
H1873 H 0.99979 0.82565 0.64829 0.0
H1874 H 0.9897 0.83584 0.60418 0.0
H1875 H 0.97651 0.83287 0.64812 0.0
C1876 C 0.9701 0.87625 0.53174 0.0
C1877 C 0.95307 0.86745 0.53165 0.0
C1878 C 0.98175 0.87796 0.56749 0.0
C1879 C 0.9767 0.87084 0.60388 0.0
C1880 C 0.95942 0.86272 0.60436 0.0
H1881 H 0.0248 0.86056 0.84877 0.0
H1882 H 1.00521 0.8616 0.78617 0.0
C1883 C 0.94777 0.86097 0.56866 0.0
C1884 C 0.98957 0.87159 0.64108 0.0
H1885 H 0.01159 0.84444 0.70762 0.0
C1886 C 0.99589 0.88884 0.65967 0.0
C1887 C 0.99559 0.85538 0.65827 0.0
C1888 C 0.99021 0.83637 0.63851 0.0
C1889 C 1.00755 0.89032 0.69567 0.0
C1890 C 0.01327 0.87411 0.71328 0.0
C1891 C 1.00715 0.85688 0.6943 0.0
C1892 C 0.02517 0.87462 0.75199 0.0
C1893 C 0.01324 0.90924 0.71528 0.0
C1894 C 0.04301 0.88164 0.75387 0.0
C1895 C 0.05435 0.88108 0.78987 0.0
C1896 C 0.04807 0.87344 0.82467 0.0
C1897 C 0.03013 0.86663 0.82274 0.0
C1898 C 0.01887 0.86716 0.78684 0.0
H1899 H 1.00451 0.92026 0.70365 0.0
H1900 H 0.01271 0.91006 0.74951 0.0
H1901 H 0.02744 0.91199 0.70781 0.0
H1902 H 0.04831 0.88716 0.72716 0.0
H1903 H 0.06811 0.88631 0.79015 0.0
H1904 H 0.62805 0.72089 0.22136 0.0
H1905 H 0.63177 0.74054 0.28679 0.0
H1906 H 0.6195 0.69418 0.35369 0.0
H1907 H 0.61606 0.67431 0.2883 0.0
H1908 H 0.60538 0.74834 0.34351 0.0
H1909 H 0.66496 0.71579 0.41799 0.0
H1910 H 0.65876 0.71124 0.3634 0.0
H1911 H 0.64674 0.70004 0.40075 0.0
C1912 C 0.62646 0.71475 0.24999 0.0
C1913 C 0.62176 0.69597 0.24949 0.0
C1914 C 0.6285 0.72606 0.28742 0.0
C1915 C 0.62609 0.71885 0.32529 0.0
C1916 C 0.62176 0.70003 0.325 0.0
H1917 H 0.62232 0.76661 0.58115 0.0
H1918 H 0.62221 0.74628 0.51648 0.0
C1919 C 0.61968 0.68869 0.28751 0.0
C1920 C 0.6271 0.73128 0.36472 0.0
H1921 H 0.64929 0.73844 0.46014 0.0
C1922 C 0.61507 0.74624 0.36891 0.0
C1923 C 0.63966 0.72851 0.39798 0.0
C1924 C 0.65339 0.71313 0.39483 0.0
C1925 C 0.61503 0.75828 0.40558 0.0
C1926 C 0.62763 0.75554 0.43882 0.0
C1927 C 0.63966 0.74057 0.43467 0.0
C1928 C 0.62837 0.76794 0.47828 0.0
C1929 C 0.60117 0.77353 0.40879 0.0
C1930 C 0.6322 0.78688 0.4786 0.0
C1931 C 0.63227 0.79858 0.5156 0.0
C1932 C 0.62863 0.79157 0.55316 0.0
C1933 C 0.62523 0.77251 0.55288 0.0
C1934 C 0.62515 0.76084 0.51587 0.0
H1935 H 0.58968 0.77088 0.38541 0.0
H1936 H 0.59567 0.77522 0.44011 0.0
H1937 H 0.60773 0.78673 0.40332 0.0
H1938 H 0.63508 0.79264 0.45015 0.0
H1939 H 0.635 0.81315 0.51465 0.0
H1940 H 0.55336 0.38711 0.51382 0.0
H1941 H 0.53321 0.39104 0.57152 0.0
H1942 H 0.56757 0.35561 0.64006 0.0
H1943 H 0.5879 0.35175 0.58276 0.0
H1944 H 0.51362 0.36436 0.6044 0.0
H1945 H 0.56067 0.39901 0.72639 0.0
H1946 H 0.56551 0.397 0.67223 0.0
H1947 H 0.5695 0.37783 0.70242 0.0
C1948 C 0.55684 0.38037 0.5414 0.0
C1949 C 0.57242 0.3692 0.54352 0.0
C1950 C 0.54522 0.38258 0.5744 0.0
C1951 C 0.5489 0.37382 0.61055 0.0
C1952 C 0.56456 0.36287 0.61301 0.0
H1953 H 0.49695 0.35513 0.83396 0.0
H1954 H 0.51658 0.35748 0.77674 0.0
C1955 C 0.57619 0.36062 0.58001 0.0
C1956 C 0.53594 0.37538 0.64474 0.0
H1957 H 0.53314 0.38707 0.7489 0.0
C1958 C 0.51784 0.36952 0.63592 0.0
C1959 C 0.54136 0.38213 0.68597 0.0
C1960 C 0.56027 0.38952 0.69735 0.0
C1961 C 0.5053 0.36953 0.66726 0.0
C1962 C 0.51083 0.37592 0.70866 0.0
C1963 C 0.52882 0.38215 0.71729 0.0
C1964 C 0.4986 0.37516 0.7439 0.0
C1965 C 0.48644 0.36196 0.65598 0.0
C1966 C 0.48189 0.38456 0.74525 0.0
C1967 C 0.47047 0.38322 0.77827 0.0
C1968 C 0.47556 0.37252 0.81075 0.0
C1969 C 0.49247 0.36348 0.8096 0.0
C1970 C 0.5038 0.36482 0.77677 0.0
H1971 H 0.48565 0.35373 0.62524 0.0
H1972 H 0.48198 0.35313 0.67958 0.0
H1973 H 0.47678 0.37361 0.65467 0.0
H1974 H 0.47767 0.39295 0.72078 0.0
H1975 H 0.45761 0.3904 0.77815 0.0
H1976 H 0.87876 0.20845 0.95965 0.0
H1977 H 0.86684 0.22912 0.90925 0.0
H1978 H 0.91663 0.22305 0.84525 0.0
H1979 H 0.92802 0.20186 0.89358 0.0
H1980 H 0.87623 0.26093 0.89124 0.0
H1981 H 0.88274 0.21522 0.74786 0.0
H1982 H 0.8855 0.20675 0.7981 0.0
H1983 H 0.90445 0.2169 0.7753 0.0
C1984 C 0.88701 0.21137 0.93443 0.0
C1985 C 0.90423 0.2033 0.93035 0.0
C1986 C 0.8802 0.22319 0.9056 0.0
C1987 C 0.89056 0.22731 0.8724 0.0
C1988 C 0.90794 0.21956 0.86919 0.0
H1989 H 0.8996 0.32497 0.75855 0.0
H1990 H 0.89538 0.30142 0.80472 0.0
C1991 C 0.91455 0.20753 0.8973 0.0
C1992 C 0.88397 0.24057 0.84258 0.0
H1993 H 0.88424 0.24827 0.74048 0.0
C1994 C 0.87764 0.25797 0.85818 0.0
C1995 C 0.8851 0.23675 0.79909 0.0
C1996 C 0.88961 0.21779 0.77919 0.0
C1997 C 0.87382 0.27197 0.83208 0.0
C1998 C 0.87712 0.26882 0.78933 0.0
C1999 C 0.88206 0.25098 0.77327 0.0
C2000 C 0.8776 0.28416 0.76191 0.0
C2001 C 0.86644 0.29004 0.85095 0.0
C2002 C 0.86926 0.28244 0.72162 0.0
C2003 C 0.87201 0.29593 0.69432 0.0
C2004 C 0.88323 0.31133 0.70683 0.0
C2005 C 0.89083 0.31335 0.74771 0.0
C2006 C 0.88824 0.29989 0.77458 0.0
H2007 H 0.85756 0.28773 0.87656 0.0
H2008 H 0.87789 0.29898 0.86443 0.0
H2009 H 0.85854 0.29742 0.82771 0.0
H2010 H 0.86108 0.27038 0.71082 0.0
H2011 H 0.86612 0.29383 0.66296 0.0
H2012 H 0.04858 0.68772 0.24188 0.0
H2013 H 0.02831 0.68035 0.18092 0.0
H2014 H 0.02589 0.62356 0.20778 0.0
H2015 H 0.04584 0.63104 0.27017 0.0
H2016 H 0.03204 0.65774 0.11257 0.0
H2017 H 0.9727 0.63497 0.19358 0.0
H2018 H 0.9922 0.64621 0.22105 0.0
H2019 H 0.99316 0.6222 0.20193 0.0
C2020 C 0.04372 0.67364 0.23505 0.0
C2021 C 0.04876 0.65999 0.26114 0.0
C2022 C 0.03214 0.66943 0.19999 0.0
C2023 C 0.02533 0.65144 0.18985 0.0
C2024 C 0.03059 0.63764 0.21538 0.0
H2025 H 0.9663 0.63489 0.94345 0.0
H2026 H 0.98807 0.62914 1.00053 0.0
C2027 C 0.04209 0.6419 0.25092 0.0
C2028 C 0.01279 0.64752 0.15246 0.0
H2029 H 0.96928 0.6345 0.12114 0.0
C2030 C 0.01836 0.65249 0.11434 0.0
C2031 C 0.99491 0.64073 0.15478 0.0
C2032 C 0.98777 0.63585 0.19504 0.0
C2033 C 1.00637 0.65168 0.07907 0.0
C2034 C 0.9884 0.64513 0.08151 0.0
C2035 C 0.98308 0.63939 0.11916 0.0
C2036 C 0.97432 0.64639 0.04726 0.0
C2037 C 0.01279 0.65891 0.04032 0.0
C2038 C 0.95883 0.65714 0.0548 0.0
C2039 C 0.94628 0.66017 1.02256 0.0
C2040 C 0.94889 0.65261 0.98171 0.0
C2041 C 0.96393 0.64105 0.97442 0.0
C2042 C 0.97648 0.63788 1.00698 0.0
H2043 H 0.02557 0.66705 0.0464 0.0
H2044 H 0.01541 0.64711 1.0171 0.0
H2045 H 1.00231 0.66778 0.02665 0.0
H2046 H 0.95677 0.66379 0.08553 0.0
H2047 H 0.93483 0.66904 0.02962 0.0
H2048 H 0.61082 0.34022 0.29298 0.0
H2049 H 0.6154 0.31871 0.23172 0.0
H2050 H 0.63367 0.27717 0.30985 0.0
H2051 H 0.62905 0.29861 0.37153 0.0
H2052 H 0.64642 0.29897 0.20331 0.0
H2053 H 0.59151 0.25134 0.23762 0.0
H2054 H 0.59401 0.27445 0.26323 0.0
H2055 H 0.60875 0.25638 0.2784 0.0
C2056 C 0.61601 0.32659 0.29732 0.0
C2057 C 0.6195 0.32122 0.33749 0.0
C2058 C 0.6186 0.31426 0.2621 0.0
C2059 C 0.62457 0.29615 0.26597 0.0
C2060 C 0.62873 0.29094 0.30593 0.0
H2061 H 0.63296 0.20106 0.07758 0.0
H2062 H 0.63414 0.22142 0.14263 0.0
C2063 C 0.62625 0.30331 0.34126 0.0
C2064 C 0.62602 0.28275 0.22818 0.0
H2065 H 0.60795 0.24262 0.17856 0.0
C2066 C 0.63804 0.28663 0.19797 0.0
C2067 C 0.61513 0.26657 0.22105 0.0
C2068 C 0.6015 0.26192 0.25154 0.0
C2069 C 0.63953 0.27482 0.16116 0.0
C2070 C 0.62836 0.25883 0.15358 0.0
C2071 C 0.61654 0.25481 0.18412 0.0
C2072 C 0.62829 0.24646 0.11374 0.0
C2073 C 0.65332 0.27948 0.13104 0.0
C2074 C 0.62446 0.25358 0.07557 0.0
C2075 C 0.62389 0.24199 0.03833 0.0
C2076 C 0.62695 0.22287 0.03814 0.0
C2077 C 0.63067 0.2157 0.07639 0.0
C2078 C 0.6313 0.22735 0.1137 0.0
H2079 H 0.66445 0.28829 0.14672 0.0
H2080 H 0.65935 0.26681 0.11553 0.0
H2081 H 0.64656 0.28729 0.10695 0.0
H2082 H 0.62155 0.26811 0.07454 0.0
H2083 H 0.62071 0.24802 1.00968 0.0
H2084 H 0.92003 0.34457 0.48091 0.0
H2085 H 0.94088 0.34687 0.42539 0.0
H2086 H 0.98326 0.36637 0.51568 0.0
H2087 H 0.96271 0.36364 0.5714 0.0
H2088 H 0.96024 0.37576 0.40007 0.0
H2089 H 1.00768 0.32298 0.45348 0.0
H2090 H 0.98545 0.32651 0.47352 0.0
H2091 H 1.00403 0.34157 0.49269 0.0
C2092 C 0.93378 0.34937 0.48905 0.0
C2093 C 0.93971 0.35369 0.53084 0.0
C2094 C 0.9457 0.35071 0.45716 0.0
C2095 C 0.96381 0.3564 0.46627 0.0
C2096 C 0.96952 0.36147 0.50782 0.0
H2097 H 0.05929 0.37241 0.3293 0.0
H2098 H 0.03617 0.37192 0.38034 0.0
C2099 C 0.95766 0.36004 0.53971 0.0
C2100 C 0.97677 0.35691 0.43253 0.0
H2101 H 0.01778 0.34047 0.40094 0.0
C2102 C 0.97276 0.36795 0.40012 0.0
C2103 C 0.99311 0.34663 0.43231 0.0
C2104 C 0.99778 0.33361 0.46461 0.0
C2105 C 0.98486 0.36944 0.36838 0.0
C2106 C 1.00134 0.35945 0.36869 0.0
C2107 C 1.00522 0.34823 0.40078 0.0
C2108 C 0.01495 0.36063 0.33659 0.0
C2109 C 0.98014 0.38208 0.33537 0.0
C2110 C 0.01078 0.35447 0.29474 0.0
C2111 C 0.02405 0.35471 0.26529 0.0
C2112 C 0.04179 0.36108 0.27708 0.0
C2113 C 0.0458 0.36746 0.31893 0.0
C2114 C 0.03258 0.36716 0.34829 0.0
H2115 H 0.96916 0.39186 0.34456 0.0
H2116 H 0.99224 0.39012 0.32856 0.0
H2117 H 0.9754 0.37367 0.30644 0.0
H2118 H 0.99739 0.34906 0.285 0.0
H2119 H 0.02049 0.34958 0.23345 0.0
H2120 H 0.90926 0.67963 0.74384 0.0
H2121 H 0.90736 0.70014 0.68833 0.0
H2122 H 0.88376 0.7425 0.77094 0.0
H2123 H 0.88589 0.72234 0.82666 0.0
H2124 H 0.87812 0.71968 0.65122 0.0
H2125 H 0.92978 0.76713 0.73465 0.0
H2126 H 0.92579 0.74418 0.74888 0.0
H2127 H 0.91072 0.76269 0.76449 0.0
C2128 C 0.9035 0.69324 0.7501 0.0
C2129 C 0.89801 0.69944 0.78994 0.0
C2130 C 0.90241 0.70493 0.71832 0.0
C2131 C 0.8958 0.72298 0.72582 0.0
C2132 C 0.88928 0.72877 0.76476 0.0
H2133 H 0.88918 0.82001 0.59141 0.0
H2134 H 0.88608 0.79699 0.6406 0.0
C2135 C 0.89041 0.71715 0.79653 0.0
C2136 C 0.89644 0.73608 0.69372 0.0
H2137 H 0.91487 0.77726 0.67465 0.0
C2138 C 0.88619 0.73224 0.65619 0.0
C2139 C 0.90707 0.75242 0.70027 0.0
C2140 C 0.91911 0.75682 0.73906 0.0
C2141 C 0.88593 0.74456 0.62543 0.0
C2142 C 0.89639 0.761 0.63224 0.0
C2143 C 0.90675 0.76473 0.66963 0.0
C2144 C 0.89702 0.7745 0.60094 0.0
C2145 C 0.87417 0.7401 0.5863 0.0
C2146 C 0.90417 0.76949 0.56225 0.0
C2147 C 0.90597 0.78263 0.53403 0.0
C2148 C 0.90073 0.80106 0.54406 0.0
C2149 C 0.8933 0.80595 0.5826 0.0
C2150 C 0.89153 0.79281 0.6108 0.0
H2151 H 0.86365 0.72956 0.59019 0.0
H2152 H 0.86734 0.75268 0.57657 0.0
H2153 H 0.8828 0.73452 0.56105 0.0
H2154 H 0.90882 0.75554 0.55428 0.0
H2155 H 0.91183 0.7784 0.50473 0.0
H2156 H 0.58263 0.65932 0.99846 0.0
H2157 H 0.561 0.65227 0.9399 0.0
H2158 H 0.52356 0.6301 1.02004 0.0
H2159 H 0.54517 0.63749 0.07958 0.0
H2160 H 0.5451 0.61955 0.90515 0.0
H2161 H 0.49292 0.66892 0.96585 0.0
H2162 H 0.51586 0.66895 0.98816 0.0
H2163 H 0.49999 0.65151 0.99874 0.0
C2164 C 0.56986 0.65286 1.00387 0.0
C2165 C 0.56562 0.64913 0.04398 0.0
C2166 C 0.55748 0.64879 0.97017 0.0
C2167 C 0.54051 0.64093 0.97557 0.0
C2168 C 0.53643 0.63651 1.01524 0.0
H2169 H 0.45178 0.62767 0.78095 0.0
H2170 H 0.46974 0.6245 0.84568 0.0
C2171 C 0.54887 0.64059 0.04919 0.0
C2172 C 0.52719 0.63795 0.93943 0.0
H2173 H 0.48687 0.65357 0.89946 0.0
C2174 C 0.53227 0.62683 0.9041 0.0
C2175 C 0.51041 0.64742 0.93802 0.0
C2176 C 0.50444 0.65999 0.97452 0.0
C2177 C 0.52134 0.62534 0.86715 0.0
C2178 C 0.50497 0.63542 0.8652 0.0
C2179 C 0.49945 0.64587 0.90101 0.0
C2180 C 0.49419 0.63651 0.8255 0.0
C2181 C 0.52753 0.61316 0.83028 0.0
C2182 C 0.50191 0.64442 0.79279 0.0
C2183 C 0.49171 0.64631 0.75596 0.0
C2184 C 0.4735 0.64036 0.75097 0.0
C2185 C 0.46579 0.63231 0.78368 0.0
C2186 C 0.47602 0.63052 0.82072 0.0
H2187 H 0.53712 0.6024 0.83987 0.0
H2188 H 0.5158 0.60628 0.8121 0.0
H2189 H 0.53468 0.62174 0.80979 0.0
H2190 H 0.51579 0.64947 0.79603 0.0
H2191 H 0.49807 0.65265 0.73156 0.0
H2192 H 0.3938 0.29656 0.86272 0.0
H2193 H 0.38664 0.27432 0.80202 0.0
H2194 H 0.40744 0.31248 0.72247 0.0
H2195 H 0.41443 0.33469 0.78231 0.0
H2196 H 0.37486 0.29417 0.69019 0.0
H2197 H 0.42783 0.24569 0.74208 0.0
H2198 H 0.41061 0.25242 0.77772 0.0
H2199 H 0.42657 0.26928 0.76477 0.0
C2200 C 0.3966 0.3003 0.83223 0.0
C2201 C 0.40487 0.31734 0.82749 0.0
C2202 C 0.39259 0.28754 0.79761 0.0
C2203 C 0.39674 0.29166 0.75778 0.0
C2204 C 0.40416 0.30899 0.75288 0.0
H2205 H 0.42803 0.23279 0.53627 0.0
H2206 H 0.42367 0.25166 0.60121 0.0
C2207 C 0.40823 0.32165 0.78727 0.0
C2208 C 0.39454 0.27774 0.72115 0.0
H2209 H 0.41336 0.23824 0.67657 0.0
C2210 C 0.38303 0.28176 0.68738 0.0
C2211 C 0.40538 0.26168 0.71746 0.0
C2212 C 0.41841 0.25696 0.75221 0.0
C2213 C 0.38251 0.27045 0.64959 0.0
C2214 C 0.39371 0.25468 0.64561 0.0
C2215 C 0.40473 0.25032 0.67982 0.0
C2216 C 0.39565 0.24355 0.60522 0.0
C2217 C 0.37071 0.27595 0.61353 0.0
C2218 C 0.38126 0.23278 0.58562 0.0
C2219 C 0.38371 0.22189 0.54819 0.0
C2220 C 0.40061 0.22158 0.52989 0.0
C2221 C 0.41485 0.23263 0.54944 0.0
C2222 C 0.4124 0.24342 0.58668 0.0
H2223 H 0.36486 0.28995 0.61993 0.0
H2224 H 0.37864 0.27568 0.58535 0.0
H2225 H 0.35935 0.2659 0.60681 0.0
H2226 H 0.36826 0.23253 0.59964 0.0
H2227 H 0.37249 0.21348 0.53403 0.0
H2228 H 0.42621 0.63554 0.47522 0.0
H2229 H 0.44516 0.63439 0.41509 0.0
H2230 H 0.49334 0.63628 0.49669 0.0
H2231 H 0.4747 0.63723 0.55636 0.0
H2232 H 0.46931 0.66122 0.39954 0.0
H2233 H 0.50564 0.59527 0.40948 0.0
H2234 H 0.48542 0.60086 0.43709 0.0
H2235 H 0.50726 0.60951 0.45786 0.0
C2236 C 0.44084 0.63539 0.4802 0.0
C2237 C 0.44892 0.63652 0.52055 0.0
C2238 C 0.45164 0.63473 0.44587 0.0
C2239 C 0.47067 0.63497 0.45136 0.0
C2240 C 0.47871 0.63558 0.49157 0.0
H2241 H 0.56574 0.66095 0.33469 0.0
H2242 H 0.54164 0.65304 0.37875 0.0
C2243 C 0.46798 0.6362 0.52575 0.0
C2244 C 0.48226 0.63623 0.41579 0.0
H2245 H 0.52001 0.6177 0.37156 0.0
C2246 C 0.48015 0.65149 0.39275 0.0
C2247 C 0.4964 0.62351 0.407 0.0
C2248 C 0.49871 0.60627 0.42891 0.0
C2249 C 0.49244 0.65495 0.36281 0.0
C2250 C 0.50711 0.64276 0.35564 0.0
C2251 C 0.50878 0.62708 0.37736 0.0
C2252 C 0.52165 0.64684 0.32815 0.0
C2253 C 0.49025 0.6721 0.34051 0.0
C2254 C 0.5184 0.64573 0.28503 0.0
C2255 C 0.5322 0.65017 0.25964 0.0
C2256 C 0.54942 0.65586 0.27706 0.0
C2257 C 0.55263 0.65668 0.32026 0.0
C2258 C 0.53889 0.65214 0.34551 0.0
H2259 H 0.47933 0.68122 0.353 0.0
H2260 H 0.50319 0.68005 0.34296 0.0
H2261 H 0.48686 0.66808 0.30714 0.0
H2262 H 0.50519 0.64152 0.2711 0.0
H2263 H 0.5293 0.64938 0.22648 0.0
H2264 H 0.1052 0.67317 0.26901 0.0
H2265 H 0.10734 0.69314 0.21312 0.0
H2266 H 0.13169 0.73602 0.29971 0.0
H2267 H 0.12981 0.71613 0.3556 0.0
H2268 H 0.09065 0.72665 0.20884 0.0
H2269 H 0.16512 0.73539 0.20419 0.0
H2270 H 0.15501 0.7175 0.23037 0.0
H2271 H 0.15696 0.74072 0.25505 0.0
C2272 C 0.11132 0.68672 0.27607 0.0
C2273 C 0.11739 0.693 0.31685 0.0
C2274 C 0.11248 0.69814 0.24406 0.0
C2275 C 0.11989 0.716 0.25205 0.0
C2276 C 0.12631 0.72215 0.29254 0.0
H2277 H 0.12539 0.81499 0.12866 0.0
H2278 H 0.12769 0.79066 0.17539 0.0
C2279 C 0.12515 0.71076 0.32455 0.0
C2280 C 0.11971 0.72869 0.21884 0.0
H2281 H 0.14668 0.7567 0.16931 0.0
C2282 C 0.10292 0.73305 0.1998 0.0
C2283 C 0.13573 0.73707 0.20714 0.0
C2284 C 0.15424 0.73231 0.22495 0.0
C2285 C 0.10164 0.74602 0.1705 0.0
C2286 C 0.11762 0.75467 0.15941 0.0
C2287 C 0.13444 0.75008 0.17788 0.0
C2288 C 0.11704 0.76907 0.12998 0.0
C2289 C 0.08312 0.75086 0.1528 0.0
C2290 C 0.11066 0.76494 0.08859 0.0
C2291 C 0.10933 0.77884 0.0617 0.0
C2292 C 0.11441 0.79714 0.07568 0.0
C2293 C 0.1213 0.80108 0.11684 0.0
C2294 C 0.12265 0.78718 0.14364 0.0
H2295 H 0.07204 0.7461 0.17115 0.0
H2296 H 0.08187 0.76601 0.15162 0.0
H2297 H 0.08117 0.74411 0.1207 0.0
H2298 H 0.10656 0.75099 0.07717 0.0
H2299 H 0.10403 0.7753 0.03018 0.0
H2300 H 0.03763 0.3743 0.08181 0.0
H2301 H 0.01551 0.37637 1.02317 0.0
H2302 H 0.05575 0.3565 0.93839 0.0
H2303 H 0.07789 0.3545 0.99619 0.0
H2304 H 0.01883 0.3953 0.94211 0.0
H2305 H 0.01082 0.31895 0.92142 0.0
H2306 H 0.0194 0.33124 0.96958 0.0
H2307 H 0.03378 0.32758 0.92666 0.0
C2308 C 0.04189 0.37065 0.05067 0.0
C2309 C 0.05961 0.36412 0.04401 0.0
C2310 C 0.02919 0.37182 1.01716 0.0
C2311 C 0.03391 0.36638 0.9764 0.0
C2312 C 0.05174 0.36061 0.96957 0.0
H2313 H 0.98356 0.34274 0.73182 0.0
H2314 H 1.00302 0.34663 0.79516 0.0
C2315 C 0.06443 0.35952 1.00284 0.0
C2316 C 0.02014 0.36575 0.94095 0.0
H2317 H 0.99729 0.33555 0.86905 0.0
C2318 C 0.01395 0.38227 0.92629 0.0
C2319 C 0.01382 0.34874 0.92029 0.0
C2320 C 0.01964 0.33057 0.93531 0.0
C2321 C 1.00216 0.38221 0.89058 0.0
C2322 C 0.99604 0.36514 0.86946 0.0
C2323 C 1.00195 0.34866 0.88492 0.0
C2324 C 0.98421 0.36386 0.83032 0.0
C2325 C 0.99698 0.40041 0.87488 0.0
C2326 C 0.96703 0.37228 0.82849 0.0
C2327 C 0.95585 0.37021 0.79186 0.0
C2328 C 0.96149 0.35945 0.75643 0.0
C2329 C 0.97871 0.35112 0.75839 0.0
C2330 C 0.98989 0.35331 0.79475 0.0
H2331 H 1.00645 0.41169 0.88771 0.0
H2332 H 0.99684 0.39946 0.84054 0.0
H2333 H 0.98316 0.40424 0.88455 0.0
H2334 H 0.96207 0.38013 0.85564 0.0
H2335 H 0.94262 0.37667 0.79162 0.0
H2336 H 0.41323 0.68183 0.75476 0.0
H2337 H 0.40705 0.70551 0.81063 0.0
H2338 H 0.39246 0.7437 0.72128 0.0
H2339 H 0.39865 0.7199 0.66466 0.0
H2340 H 0.41933 0.7568 0.78535 0.0
H2341 H 0.35882 0.72803 0.85112 0.0
H2342 H 0.37696 0.71181 0.84298 0.0
H2343 H 0.36551 0.72091 0.79924 0.0
C2344 C 0.40847 0.69517 0.74679 0.0
C2345 C 0.40648 0.69897 0.70515 0.0
C2346 C 0.40482 0.70867 0.77887 0.0
C2347 C 0.3991 0.72631 0.77016 0.0
C2348 C 0.39672 0.73011 0.72864 0.0
H2349 H 0.39606 0.82661 0.94419 0.0
H2350 H 0.3926 0.80506 0.88152 0.0
C2351 C 0.40021 0.71649 0.69635 0.0
C2352 C 0.39718 0.74105 0.80469 0.0
H2353 H 0.37516 0.7518 0.89383 0.0
C2354 C 0.40948 0.7559 0.80875 0.0
C2355 C 0.38445 0.73972 0.83537 0.0
C2356 C 0.37056 0.72435 0.83191 0.0
C2357 C 0.40993 0.76906 0.84354 0.0
C2358 C 0.39739 0.76758 0.87467 0.0
C2359 C 0.38477 0.75295 0.87003 0.0
C2360 C 0.39773 0.7806 0.91306 0.0
C2361 C 0.42441 0.78389 0.84756 0.0
C2362 C 0.40087 0.77398 0.95197 0.0
C2363 C 0.40262 0.78627 0.98799 0.0
C2364 C 0.40127 0.80543 0.98581 0.0
C2365 C 0.39735 0.81195 0.94698 0.0
C2366 C 0.39548 0.79965 0.91103 0.0
H2367 H 0.43564 0.78034 0.82672 0.0
H2368 H 0.41833 0.79702 0.83902 0.0
H2369 H 0.43023 0.78623 0.87989 0.0
H2370 H 0.40254 0.75933 0.95435 0.0
H2371 H 0.40561 0.78076 1.01735 0.0
H2372 H 0.97011 0.6336 0.76313 0.0
H2373 H 0.99084 0.62377 0.70851 0.0
H2374 H 0.98735 0.67782 0.66489 0.0
H2375 H 0.96623 0.68739 0.71787 0.0
H2376 H 0.98543 0.65219 0.60172 0.0
H2377 H 0.04365 0.63647 0.70798 0.0
H2378 H 0.02344 0.62329 0.71285 0.0
H2379 H 0.0235 0.64787 0.72637 0.0
C2380 C 0.97377 0.64334 0.7418 0.0
C2381 C 0.96657 0.6613 0.74496 0.0
C2382 C 0.98572 0.63775 0.71076 0.0
C2383 C 0.99095 0.65014 0.6829 0.0
C2384 C 0.98356 0.66798 0.68589 0.0
H2385 H 0.08366 0.66373 0.54877 0.0
H2386 H 0.06102 0.65984 0.59885 0.0
C2387 C 0.97148 0.67346 0.71636 0.0
C2388 C 1.00412 0.64492 0.65053 0.0
H2389 H 0.04824 0.63246 0.63664 0.0
C2390 C 0.99913 0.64771 0.60928 0.0
C2391 C 0.02203 0.63913 0.66041 0.0
C2392 C 0.02859 0.63665 0.70431 0.0
C2393 C 0.0117 0.64581 0.57811 0.0
C2394 C 0.02969 0.64026 0.58808 0.0
C2395 C 0.03444 0.63659 0.62893 0.0
C2396 C 0.04432 0.64058 0.5582 0.0
C2397 C 1.00585 0.65091 0.5355 0.0
C2398 C 0.04291 0.63054 0.51883 0.0
C2399 C 0.05583 0.63296 0.48955 0.0
C2400 C 0.07052 0.64525 0.49941 0.0
C2401 C 0.07248 0.65426 0.5398 0.0
C2402 C 0.05952 0.65201 0.56869 0.0
H2403 H 0.99291 0.65875 0.53556 0.0
H2404 H 0.01641 0.65941 0.5231 0.0
H2405 H 1.00372 0.63814 0.51413 0.0
H2406 H 0.03159 0.62122 0.51035 0.0
H2407 H 0.05398 0.62567 0.4589 0.0
H2408 H 0.09891 0.34232 0.27978 0.0
H2409 H 0.1006 0.32168 0.33454 0.0
H2410 H 0.13356 0.28401 0.25993 0.0
H2411 H 0.13138 0.30434 0.20429 0.0
H2412 H 0.10707 0.26588 0.28941 0.0
H2413 H 0.13928 0.31105 0.41969 0.0
H2414 H 0.11929 0.32138 0.39834 0.0
H2415 H 0.13859 0.31705 0.36705 0.0
C2416 C 0.10674 0.32979 0.27511 0.0
C2417 C 0.11494 0.32503 0.23737 0.0
C2418 C 0.10783 0.31801 0.30676 0.0
C2419 C 0.11742 0.30132 0.30183 0.0
C2420 C 0.12611 0.29681 0.26468 0.0
H2421 H 0.13281 0.2296 0.50473 0.0
H2422 H 0.13821 0.25055 0.45171 0.0
C2423 C 0.1249 0.30851 0.23287 0.0
C2424 C 0.11717 0.28793 0.33388 0.0
H2425 H 0.12402 0.28398 0.43766 0.0
C2426 C 0.11098 0.26983 0.32173 0.0
C2427 C 0.1225 0.29286 0.37611 0.0
C2428 C 0.13047 0.31158 0.39101 0.0
C2429 C 0.1094 0.25681 0.35059 0.0
C2430 C 0.11367 0.26208 0.39317 0.0
C2431 C 0.12049 0.27995 0.40518 0.0
C2432 C 0.11054 0.24944 0.42568 0.0
C2433 C 0.10327 0.23746 0.33495 0.0
C2434 C 0.09316 0.24207 0.42934 0.0
C2435 C 0.09009 0.23004 0.45928 0.0
C2436 C 0.10427 0.22524 0.48689 0.0
C2437 C 0.12161 0.23293 0.48389 0.0
C2438 C 0.1247 0.24494 0.45362 0.0
H2439 H 0.10635 0.23402 0.30197 0.0
H2440 H 0.10985 0.22707 0.35356 0.0
H2441 H 0.08834 0.23638 0.33705 0.0
H2442 H 0.08187 0.24569 0.40907 0.0
H2443 H 0.07651 0.22457 0.46083 0.0
H2444 H 0.47533 0.38137 1.00138 0.0
H2445 H 0.4949 0.38349 0.06462 0.0
H2446 H 0.44911 0.37184 0.13523 0.0
H2447 H 0.42922 0.37008 0.07199 0.0
H2448 H 0.47353 0.39954 0.17577 0.0
H2449 H 0.50966 0.33607 0.11675 0.0
H2450 H 0.50837 0.35388 0.08223 0.0
H2451 H 0.48794 0.34266 0.09473 0.0
C2452 C 0.4693 0.37953 0.03039 0.0
C2453 C 0.45072 0.37526 0.03147 0.0
C2454 C 0.48056 0.38064 0.06651 0.0
C2455 C 0.47354 0.37743 0.10447 0.0
C2456 C 0.45483 0.37422 0.10617 0.0
H2457 H 0.53647 0.34094 0.31224 0.0
H2458 H 0.51391 0.34534 0.25654 0.0
C2459 C 0.4435 0.37316 0.06998 0.0
C2460 C 0.48592 0.37639 0.14173 0.0
H2461 H 0.52155 0.3519 0.17918 0.0
C2462 C 0.48403 0.38913 0.17664 0.0
C2463 C 0.49944 0.36263 0.14297 0.0
C2464 C 0.50145 0.34791 0.10737 0.0
C2465 C 0.49548 0.38861 0.21259 0.0
C2466 C 0.50932 0.37513 0.21335 0.0
C2467 C 0.51105 0.36232 0.17851 0.0
C2468 C 0.52186 0.37351 0.25019 0.0
C2469 C 0.49242 0.40219 0.24971 0.0
C2470 C 0.53371 0.38799 0.26578 0.0
C2471 C 0.54663 0.38555 0.29804 0.0
C2472 C 0.54807 0.36848 0.31474 0.0
C2473 C 0.53586 0.35421 0.29977 0.0
C2474 C 0.52292 0.3567 0.26793 0.0
H2475 H 0.47862 0.4083 0.24804 0.0
H2476 H 0.49422 0.3955 0.27891 0.0
H2477 H 0.50247 0.4136 0.25088 0.0
H2478 H 0.5334 0.40097 0.2521 0.0
H2479 H 0.55591 0.39676 0.3088 0.0
loop_
_geom_bond_atom_site_label_1
_geom_bond_atom_site_label_2
_geom_bond_distance
_geom_bond_site_symmetry_2
_ccdc_geom_bond_type
O0 Tb1 2.292 . S
O0 C3 1.255 . S
Tb1 O0 2.292 . S
Tb1 O17 2.326 . S
Tb1 O19 2.500 . S
Tb1 O20 2.473 . S
Tb1 O23 2.324 . S
Eu2 O6 2.292 . S
Eu2 C7 2.852 . S
Eu2 O18 2.324 . S
Eu2 O22 2.326 . S
Eu2 O24 2.500 . S
Eu2 O25 2.473 . S
C3 O0 1.255 . S
C3 O4 1.247 . S
O4 C3 1.247 . S
C5 O17 1.242 . S
C5 O18 1.258 . S
O6 Eu2 2.292 . S
O6 C8 1.255 1_554 S
C7 Eu2 2.852 . S
C7 C11 1.503 . S
C7 O24 1.273 . S
C7 O25 1.257 . S
C8 O6 1.255 1_556 S
C8 O9 1.247 . S
O9 C8 1.247 . S
C10 O22 1.242 . S
C10 O23 1.258 . S
C11 C7 1.503 . S
C11 C12 1.379 . S
C11 C16 1.392 . S
C12 C11 1.379 . S
C12 C13 1.404 . S
C12 H26 0.929 . S
C13 C12 1.404 . S
C13 C14 1.389 . S
C14 C13 1.389 . S
C14 C15 1.399 . S
C14 H27 0.931 . S
C15 C14 1.399 . S
C15 C16 1.390 . S
C16 C11 1.392 . S
C16 C15 1.390 . S
C16 H28 0.929 . S
O17 Tb1 2.326 . S
O17 C5 1.242 . S
O18 Eu2 2.324 . S
O18 C5 1.258 . S
O19 Tb1 2.500 . S
O19 C21 1.273 . S
O20 Tb1 2.473 . S
O20 C21 1.257 . S
C21 O19 1.273 . S
C21 O20 1.257 . S
O22 Eu2 2.326 . S
O22 C10 1.242 . S
O23 Tb1 2.324 . S
O23 C10 1.258 . S
O24 Eu2 2.500 . S
O24 C7 1.273 . S
O25 Eu2 2.473 . S
O25 C7 1.257 . S
H26 C12 0.929 . S
H27 C14 0.931 . S
H28 C16 0.929 . S
O29 Tb30 2.292 . S
O29 C32 1.255 . S
Tb30 O29 2.292 . S
Tb30 O46 2.326 . S
Tb30 O48 2.500 . S
Tb30 O49 2.473 . S
Tb30 O52 2.324 . S
Eu31 O35 2.292 . S
Eu31 C36 2.852 . S
Eu31 O47 2.324 . S
Eu31 O51 2.326 . S
Eu31 O53 2.500 . S
Eu31 O54 2.473 . S
C32 O29 1.255 . S
C32 O33 1.247 . S
O33 C32 1.247 . S
C34 O46 1.242 . S
C34 O47 1.258 . S
O35 Eu31 2.292 . S
O35 C37 1.255 . S
C36 Eu31 2.852 . S
C36 C40 1.503 . S
C36 O53 1.273 . S
C36 O54 1.257 . S
C37 O35 1.255 . S
C37 O38 1.247 . S
O38 C37 1.247 . S
C39 O51 1.242 . S
C39 O52 1.258 . S
C40 C36 1.503 . S
C40 C41 1.379 . S
C40 C45 1.392 . S
C41 C40 1.379 . S
C41 C42 1.404 . S
C41 H55 0.929 . S
C42 C41 1.404 . S
C42 C43 1.389 . S
C43 C42 1.389 . S
C43 C44 1.399 . S
C43 H56 0.931 . S
C44 C43 1.399 . S
C44 C45 1.390 . S
C45 C40 1.392 . S
C45 C44 1.390 . S
C45 H57 0.929 . S
O46 Tb30 2.326 . S
O46 C34 1.242 . S
O47 Eu31 2.324 . S
O47 C34 1.258 . S
O48 Tb30 2.500 . S
O48 C50 1.273 . S
O49 Tb30 2.473 . S
O49 C50 1.257 . S
C50 O48 1.273 . S
C50 O49 1.257 . S
O51 Eu31 2.326 . S
O51 C39 1.242 . S
O52 Tb30 2.324 . S
O52 C39 1.258 . S
O53 Eu31 2.500 . S
O53 C36 1.273 . S
O54 Eu31 2.473 . S
O54 C36 1.257 . S
H55 C41 0.929 . S
H56 C43 0.931 . S
H57 C45 0.929 . S
O58 Tb59 2.292 . S
O58 C61 1.255 . S
Tb59 O58 2.292 . S
Tb59 O75 2.326 . S
Tb59 O77 2.500 . S
Tb59 O78 2.473 . S
Tb59 O81 2.324 . S
Eu60 O64 2.292 . S
Eu60 C65 2.852 . S
Eu60 O76 2.324 . S
Eu60 O80 2.326 . S
Eu60 O82 2.500 . S
Eu60 O83 2.473 . S
C61 O58 1.255 . S
C61 O62 1.247 . S
O62 C61 1.247 . S
C63 O75 1.242 . S
C63 O76 1.258 . S
O64 Eu60 2.292 . S
O64 C66 1.255 . S
C65 Eu60 2.852 . S
C65 C69 1.503 . S
C65 O82 1.273 . S
C65 O83 1.257 . S
C66 O64 1.255 . S
C66 O67 1.247 . S
O67 C66 1.247 . S
C68 O80 1.242 . S
C68 O81 1.258 . S
C69 C65 1.503 . S
C69 C70 1.379 . S
C69 C74 1.392 . S
C70 C69 1.379 . S
C70 C71 1.404 . S
C70 H84 0.929 . S
C71 C70 1.404 . S
C71 C72 1.389 . S
C72 C71 1.389 . S
C72 C73 1.399 . S
C72 H85 0.931 . S
C73 C72 1.399 . S
C73 C74 1.390 . S
C74 C69 1.392 . S
C74 C73 1.390 . S
C74 H86 0.929 . S
O75 Tb59 2.326 . S
O75 C63 1.242 . S
O76 Eu60 2.324 . S
O76 C63 1.258 . S
O77 Tb59 2.500 . S
O77 C79 1.273 . S
O78 Tb59 2.473 . S
O78 C79 1.257 . S
C79 O77 1.273 . S
C79 O78 1.257 . S
O80 Eu60 2.326 . S
O80 C68 1.242 . S
O81 Tb59 2.324 . S
O81 C68 1.258 . S
O82 Eu60 2.500 . S
O82 C65 1.273 . S
O83 Eu60 2.473 . S
O83 C65 1.257 . S
H84 C70 0.929 . S
H85 C72 0.931 . S
H86 C74 0.929 . S
O87 Tb88 2.292 . S
O87 C90 1.255 . S
Tb88 O87 2.292 . S
Tb88 O104 2.326 . S
Tb88 O106 2.500 . S
Tb88 O107 2.473 . S
Tb88 O110 2.324 . S
Eu89 O93 2.292 . S
Eu89 C94 2.852 . S
Eu89 O105 2.324 . S
Eu89 O109 2.326 . S
Eu89 O111 2.500 . S
Eu89 O112 2.473 . S
C90 O87 1.255 . S
C90 O91 1.247 . S
O91 C90 1.247 . S
C92 O104 1.242 . S
C92 O105 1.258 . S
O93 Eu89 2.292 . S
O93 C95 1.255 1_556 S
C94 Eu89 2.852 . S
C94 C98 1.503 . S
C94 O111 1.273 . S
C94 O112 1.257 . S
C95 O93 1.255 1_554 S
C95 O96 1.247 . S
O96 C95 1.247 . S
C97 O109 1.242 . S
C97 O110 1.258 . S
C98 C94 1.503 . S
C98 C99 1.379 . S
C98 C103 1.392 . S
C99 C98 1.379 . S
C99 C100 1.404 . S
C99 H113 0.929 . S
C100 C99 1.404 . S
C100 C101 1.389 . S
C101 C100 1.389 . S
C101 C102 1.399 . S
C101 H114 0.931 . S
C102 C101 1.399 . S
C102 C103 1.390 . S
C103 C98 1.392 . S
C103 C102 1.390 . S
C103 H115 0.929 . S
O104 Tb88 2.326 . S
O104 C92 1.242 . S
O105 Eu89 2.324 . S
O105 C92 1.258 . S
O106 Tb88 2.500 . S
O106 C108 1.273 . S
O107 Tb88 2.473 . S
O107 C108 1.257 . S
C108 O106 1.273 . S
C108 O107 1.257 . S
O109 Eu89 2.326 . S
O109 C97 1.242 . S
O110 Tb88 2.324 . S
O110 C97 1.258 . S
O111 Eu89 2.500 . S
O111 C94 1.273 . S
O112 Eu89 2.473 . S
O112 C94 1.257 . S
H113 C99 0.929 . S
H114 C101 0.931 . S
H115 C103 0.929 . S
O116 Tb117 2.292 . S
O116 C119 1.255 . S
Tb117 O116 2.292 . S
Tb117 O133 2.326 . S
Tb117 O135 2.500 . S
Tb117 O136 2.473 . S
Tb117 O139 2.324 . S
Eu118 O122 2.292 . S
Eu118 C123 2.852 . S
Eu118 O134 2.324 . S
Eu118 O138 2.326 . S
Eu118 O140 2.500 . S
Eu118 O141 2.473 . S
C119 O116 1.255 . S
C119 O120 1.247 . S
O120 C119 1.247 . S
C121 O133 1.242 . S
C121 O134 1.258 . S
O122 Eu118 2.292 . S
O122 C124 1.255 . S
C123 Eu118 2.852 . S
C123 C127 1.503 . S
C123 O140 1.273 . S
C123 O141 1.257 . S
C124 O122 1.255 . S
C124 O125 1.247 . S
O125 C124 1.247 . S
C126 O138 1.242 . S
C126 O139 1.258 . S
C127 C123 1.503 . S
C127 C128 1.379 . S
C127 C132 1.392 . S
C128 C127 1.379 . S
C128 C129 1.404 . S
C128 H142 0.929 . S
C129 C128 1.404 . S
C129 C130 1.389 . S
C130 C129 1.389 . S
C130 C131 1.399 . S
C130 H143 0.931 . S
C131 C130 1.399 . S
C131 C132 1.390 . S
C132 C127 1.392 . S
C132 C131 1.390 . S
C132 H144 0.929 . S
O133 Tb117 2.326 . S
O133 C121 1.242 . S
O134 Eu118 2.324 . S
O134 C121 1.258 . S
O135 Tb117 2.500 . S
O135 C137 1.273 . S
O136 Tb117 2.473 . S
O136 C137 1.257 . S
C137 O135 1.273 . S
C137 O136 1.257 . S
O138 Eu118 2.326 . S
O138 C126 1.242 . S
O139 Tb117 2.324 . S
O139 C126 1.258 . S
O140 Eu118 2.500 . S
O140 C123 1.273 . S
O141 Eu118 2.473 . S
O141 C123 1.257 . S
H142 C128 0.929 . S
H143 C130 0.931 . S
H144 C132 0.929 . S
O145 Tb146 2.292 . S
O145 C148 1.255 . S
Tb146 O145 2.292 . S
Tb146 O162 2.326 . S
Tb146 O164 2.500 . S
Tb146 O165 2.473 . S
Tb146 O168 2.324 . S
Eu147 O151 2.292 . S
Eu147 C152 2.852 . S
Eu147 O163 2.324 . S
Eu147 O167 2.326 . S
Eu147 O169 2.500 . S
Eu147 O170 2.473 . S
C148 O145 1.255 . S
C148 O149 1.247 . S
O149 C148 1.247 . S
C150 O162 1.242 . S
C150 O163 1.258 . S
O151 Eu147 2.292 . S
O151 C153 1.255 . S
C152 Eu147 2.852 . S
C152 C156 1.503 . S
C152 O169 1.273 . S
C152 O170 1.257 . S
C153 O151 1.255 . S
C153 O154 1.247 . S
O154 C153 1.247 . S
C155 O167 1.242 . S
C155 O168 1.258 . S
C156 C152 1.503 . S
C156 C157 1.379 . S
C156 C161 1.392 . S
C157 C156 1.379 . S
C157 C158 1.404 . S
C157 H171 0.929 . S
C158 C157 1.404 . S
C158 C159 1.389 . S
C159 C158 1.389 . S
C159 C160 1.399 . S
C159 H172 0.931 . S
C160 C159 1.399 . S
C160 C161 1.390 . S
C161 C156 1.392 . S
C161 C160 1.390 . S
C161 H173 0.929 . S
O162 Tb146 2.326 . S
O162 C150 1.242 . S
O163 Eu147 2.324 . S
O163 C150 1.258 . S
O164 Tb146 2.500 . S
O164 C166 1.273 . S
O165 Tb146 2.473 . S
O165 C166 1.257 . S
C166 O164 1.273 . S
C166 O165 1.257 . S
O167 Eu147 2.326 . S
O167 C155 1.242 . S
O168 Tb146 2.324 . S
O168 C155 1.258 . S
O169 Eu147 2.500 . S
O169 C152 1.273 . S
O170 Eu147 2.473 . S
O170 C152 1.257 . S
H171 C157 0.929 . S
H172 C159 0.931 . S
H173 C161 0.929 . S
O174 Tb175 2.292 . S
O174 C177 1.255 1_556 S
Tb175 O174 2.292 . S
Tb175 O191 2.326 . S
Tb175 O193 2.500 . S
Tb175 O194 2.473 . S
Tb175 O197 2.324 . S
Eu176 O180 2.292 . S
Eu176 C181 2.852 . S
Eu176 O192 2.324 . S
Eu176 O196 2.326 . S
Eu176 O198 2.500 . S
Eu176 O199 2.473 . S
C177 O174 1.255 1_554 S
C177 O178 1.247 . S
O178 C177 1.247 . S
C179 O191 1.242 . S
C179 O192 1.258 . S
O180 Eu176 2.292 . S
O180 C182 1.255 . S
C181 Eu176 2.852 . S
C181 C185 1.503 . S
C181 O198 1.273 . S
C181 O199 1.257 . S
C182 O180 1.255 . S
C182 O183 1.247 . S
O183 C182 1.247 . S
C184 O196 1.242 . S
C184 O197 1.258 . S
C185 C181 1.503 . S
C185 C186 1.379 . S
C185 C190 1.392 . S
C186 C185 1.379 . S
C186 C187 1.404 . S
C186 H200 0.929 . S
C187 C186 1.404 . S
C187 C188 1.389 . S
C188 C187 1.389 . S
C188 C189 1.399 . S
C188 H201 0.931 . S
C189 C188 1.399 . S
C189 C190 1.390 . S
C190 C185 1.392 . S
C190 C189 1.390 . S
C190 H202 0.929 . S
O191 Tb175 2.326 . S
O191 C179 1.242 . S
O192 Eu176 2.324 . S
O192 C179 1.258 . S
O193 Tb175 2.500 . S
O193 C195 1.273 . S
O194 Tb175 2.473 . S
O194 C195 1.257 . S
C195 O193 1.273 . S
C195 O194 1.257 . S
O196 Eu176 2.326 . S
O196 C184 1.242 . S
O197 Tb175 2.324 . S
O197 C184 1.258 . S
O198 Eu176 2.500 . S
O198 C181 1.273 . S
O199 Eu176 2.473 . S
O199 C181 1.257 . S
H200 C186 0.929 . S
H201 C188 0.931 . S
H202 C190 0.929 . S
O203 Tb204 2.292 . S
O203 C206 1.255 1_554 S
Tb204 O203 2.292 . S
Tb204 O220 2.326 . S
Tb204 O222 2.500 . S
Tb204 O223 2.473 . S
Tb204 O226 2.324 . S
Eu205 O209 2.292 . S
Eu205 C210 2.852 . S
Eu205 O221 2.324 . S
Eu205 O225 2.326 . S
Eu205 O227 2.500 . S
Eu205 O228 2.473 . S
C206 O203 1.255 1_556 S
C206 O207 1.247 . S
O207 C206 1.247 . S
C208 O220 1.242 . S
C208 O221 1.258 . S
O209 Eu205 2.292 . S
O209 C211 1.255 . S
C210 Eu205 2.852 . S
C210 C214 1.503 . S
C210 O227 1.273 . S
C210 O228 1.257 . S
C211 O209 1.255 . S
C211 O212 1.247 . S
O212 C211 1.247 . S
C213 O225 1.242 . S
C213 O226 1.258 . S
C214 C210 1.503 . S
C214 C215 1.379 . S
C214 C219 1.392 . S
C215 C214 1.379 . S
C215 C216 1.404 . S
C215 H229 0.929 . S
C216 C215 1.404 . S
C216 C217 1.389 . S
C217 C216 1.389 . S
C217 C218 1.399 . S
C217 H230 0.931 . S
C218 C217 1.399 . S
C218 C219 1.390 . S
C219 C214 1.392 . S
C219 C218 1.390 . S
C219 H231 0.929 . S
O220 Tb204 2.326 . S
O220 C208 1.242 . S
O221 Eu205 2.324 . S
O221 C208 1.258 . S
O222 Tb204 2.500 . S
O222 C224 1.273 . S
O223 Tb204 2.473 . S
O223 C224 1.257 . S
C224 O222 1.273 . S
C224 O223 1.257 . S
O225 Eu205 2.326 . S
O225 C213 1.242 . S
O226 Tb204 2.324 . S
O226 C213 1.258 . S
O227 Eu205 2.500 . S
O227 C210 1.273 . S
O228 Eu205 2.473 . S
O228 C210 1.257 . S
H229 C215 0.929 . S
H230 C217 0.931 . S
H231 C219 0.929 . S
O232 Tb233 2.292 . S
O232 C235 1.255 . S
Tb233 O232 2.292 . S
Tb233 O249 2.326 . S
Tb233 O251 2.500 . S
Tb233 O252 2.473 . S
Tb233 O255 2.324 . S
Eu234 O238 2.292 . S
Eu234 C239 2.852 . S
Eu234 O250 2.324 . S
Eu234 O254 2.326 . S
Eu234 O256 2.500 . S
Eu234 O257 2.473 . S
C235 O232 1.255 . S
C235 O236 1.247 . S
O236 C235 1.247 . S
C237 O249 1.242 . S
C237 O250 1.258 . S
O238 Eu234 2.292 . S
O238 C240 1.269 . S
C239 Eu234 2.852 . S
C239 C243 1.503 . S
C239 O256 1.273 . S
C239 O257 1.257 . S
C240 O238 1.269 . S
C240 O241 1.249 1_556 S
O241 C240 1.249 1_554 S
C242 O254 1.242 . S
C242 O255 1.258 . S
C243 C239 1.503 . S
C243 C244 1.379 . S
C243 C248 1.392 . S
C244 C243 1.379 . S
C244 C245 1.404 . S
C244 H258 0.929 . S
C245 C244 1.404 . S
C245 C246 1.389 . S
C246 C245 1.389 . S
C246 C247 1.399 . S
C246 H259 0.931 . S
C247 C246 1.399 . S
C247 C248 1.390 . S
C248 C243 1.392 . S
C248 C247 1.390 . S
C248 H260 0.929 . S
O249 Tb233 2.326 . S
O249 C237 1.242 . S
O250 Eu234 2.324 . S
O250 C237 1.258 . S
O251 Tb233 2.500 . S
O251 C253 1.273 . S
O252 Tb233 2.473 . S
O252 C253 1.257 . S
C253 O251 1.273 . S
C253 O252 1.257 . S
O254 Eu234 2.326 . S
O254 C242 1.242 . S
O255 Tb233 2.324 . S
O255 C242 1.258 . S
O256 Eu234 2.500 . S
O256 C239 1.273 . S
O257 Eu234 2.473 . S
O257 C239 1.257 . S
H258 C244 0.929 . S
H259 C246 0.931 . S
H260 C248 0.929 . S
O261 Tb262 2.292 . S
O261 C264 1.255 . S
Tb262 O261 2.292 . S
Tb262 O278 2.326 . S
Tb262 O280 2.500 . S
Tb262 O281 2.473 . S
Tb262 O284 2.324 . S
Eu263 O267 2.292 . S
Eu263 C268 2.852 . S
Eu263 O279 2.324 . S
Eu263 O283 2.326 . S
Eu263 O285 2.500 . S
Eu263 O286 2.473 . S
C264 O261 1.255 . S
C264 O265 1.247 . S
O265 C264 1.247 . S
C266 O278 1.242 . S
C266 O279 1.258 . S
O267 Eu263 2.292 . S
O267 C269 1.255 . S
C268 Eu263 2.852 . S
C268 C272 1.503 . S
C268 O285 1.273 . S
C268 O286 1.257 . S
C269 O267 1.255 . S
C269 O270 1.247 . S
O270 C269 1.247 . S
C271 O283 1.242 . S
C271 O284 1.258 . S
C272 C268 1.503 . S
C272 C273 1.379 . S
C272 C277 1.392 . S
C273 C272 1.379 . S
C273 C274 1.404 . S
C273 H287 0.929 . S
C274 C273 1.404 . S
C274 C275 1.389 . S
C275 C274 1.389 . S
C275 C276 1.399 . S
C275 H288 0.931 . S
C276 C275 1.399 . S
C276 C277 1.390 . S
C277 C272 1.392 . S
C277 C276 1.390 . S
C277 H289 0.929 . S
O278 Tb262 2.326 . S
O278 C266 1.242 . S
O279 Eu263 2.324 . S
O279 C266 1.258 . S
O280 Tb262 2.500 . S
O280 C282 1.273 . S
O281 Tb262 2.473 . S
O281 C282 1.257 . S
C282 O280 1.273 . S
C282 O281 1.257 . S
O283 Eu263 2.326 . S
O283 C271 1.242 . S
O284 Tb262 2.324 . S
O284 C271 1.258 . S
O285 Eu263 2.500 . S
O285 C268 1.273 . S
O286 Eu263 2.473 . S
O286 C268 1.257 . S
H287 C273 0.929 . S
H288 C275 0.931 . S
H289 C277 0.929 . S
O290 Tb291 2.292 . S
O290 C293 1.255 . S
Tb291 O290 2.292 . S
Tb291 O307 2.326 . S
Tb291 O309 2.500 . S
Tb291 O310 2.473 . S
Tb291 O313 2.324 . S
Eu292 O296 2.292 . S
Eu292 C297 2.852 . S
Eu292 O308 2.324 . S
Eu292 O312 2.326 . S
Eu292 O314 2.500 . S
Eu292 O315 2.473 . S
C293 O290 1.255 . S
C293 O294 1.247 . S
O294 C293 1.247 . S
C295 O307 1.242 . S
C295 O308 1.258 . S
O296 Eu292 2.292 . S
O296 C298 1.255 . S
C297 Eu292 2.852 . S
C297 C301 1.503 . S
C297 O314 1.273 . S
C297 O315 1.257 . S
C298 O296 1.255 . S
C298 O299 1.247 . S
O299 C298 1.247 . S
C300 O312 1.242 . S
C300 O313 1.258 . S
C301 C297 1.503 . S
C301 C302 1.379 . S
C301 C306 1.392 . S
C302 C301 1.379 . S
C302 C303 1.404 . S
C302 H316 0.929 . S
C303 C302 1.404 . S
C303 C304 1.389 . S
C304 C303 1.389 . S
C304 C305 1.399 . S
C304 H317 0.931 . S
C305 C304 1.399 . S
C305 C306 1.390 . S
C306 C301 1.392 . S
C306 C305 1.390 . S
C306 H318 0.929 . S
O307 Tb291 2.326 . S
O307 C295 1.242 . S
O308 Eu292 2.324 . S
O308 C295 1.258 . S
O309 Tb291 2.500 . S
O309 C311 1.273 . S
O310 Tb291 2.473 . S
O310 C311 1.257 . S
C311 O309 1.273 . S
C311 O310 1.257 . S
O312 Eu292 2.326 . S
O312 C300 1.242 . S
O313 Tb291 2.324 . S
O313 C300 1.258 . S
O314 Eu292 2.500 . S
O314 C297 1.273 . S
O315 Eu292 2.473 . S
O315 C297 1.257 . S
H316 C302 0.929 . S
H317 C304 0.931 . S
H318 C306 0.929 . S
O319 Tb320 2.292 . S
O319 C322 1.255 . S
Tb320 O319 2.292 . S
Tb320 O336 2.326 . S
Tb320 O338 2.500 . S
Tb320 O339 2.473 . S
Tb320 O342 2.324 . S
Eu321 O325 2.292 . S
Eu321 C326 2.852 . S
Eu321 O337 2.324 . S
Eu321 O341 2.326 . S
Eu321 O343 2.500 . S
Eu321 O344 2.473 . S
C322 O319 1.255 . S
C322 O323 1.247 . S
O323 C322 1.247 . S
C324 O336 1.242 . S
C324 O337 1.258 . S
O325 Eu321 2.292 . S
O325 C327 1.255 . S
C326 Eu321 2.852 . S
C326 C330 1.503 . S
C326 O343 1.273 . S
C326 O344 1.257 . S
C327 O325 1.255 . S
C327 O328 1.247 . S
O328 C327 1.247 . S
C329 O341 1.242 . S
C329 O342 1.258 . S
C330 C326 1.503 . S
C330 C331 1.379 . S
C330 C335 1.392 . S
C331 C330 1.379 . S
C331 C332 1.404 . S
C331 H345 0.929 . S
C332 C331 1.404 . S
C332 C333 1.389 . S
C333 C332 1.389 . S
C333 C334 1.399 . S
C333 H346 0.931 . S
C334 C333 1.399 . S
C334 C335 1.390 . S
C335 C330 1.392 . S
C335 C334 1.390 . S
C335 H347 0.929 . S
O336 Tb320 2.326 . S
O336 C324 1.242 . S
O337 Eu321 2.324 . S
O337 C324 1.258 . S
O338 Tb320 2.500 . S
O338 C340 1.273 . S
O339 Tb320 2.473 . S
O339 C340 1.257 . S
C340 O338 1.273 . S
C340 O339 1.257 . S
O341 Eu321 2.326 . S
O341 C329 1.242 . S
O342 Tb320 2.324 . S
O342 C329 1.258 . S
O343 Eu321 2.500 . S
O343 C326 1.273 . S
O344 Eu321 2.473 . S
O344 C326 1.257 . S
H345 C331 0.929 . S
H346 C333 0.931 . S
H347 C335 0.929 . S
O348 Tb349 2.292 . S
O348 C351 1.255 . S
Tb349 O348 2.292 . S
Tb349 O365 2.326 . S
Tb349 O367 2.500 . S
Tb349 O368 2.473 . S
Tb349 O371 2.324 . S
Eu350 O354 2.292 . S
Eu350 C355 2.852 . S
Eu350 O366 2.324 . S
Eu350 O370 2.326 . S
Eu350 O372 2.500 . S
Eu350 O373 2.473 . S
C351 O348 1.255 . S
C351 O352 1.247 . S
O352 C351 1.247 . S
C353 O365 1.242 . S
C353 O366 1.258 . S
O354 Eu350 2.292 . S
O354 C356 1.255 . S
C355 Eu350 2.852 . S
C355 C359 1.503 . S
C355 O372 1.273 . S
C355 O373 1.257 . S
C356 O354 1.255 . S
C356 O357 1.247 . S
O357 C356 1.247 . S
C358 O370 1.242 . S
C358 O371 1.258 . S
C359 C355 1.503 . S
C359 C360 1.379 . S
C359 C364 1.392 . S
C360 C359 1.379 . S
C360 C361 1.404 . S
C360 H374 0.929 . S
C361 C360 1.404 . S
C361 C362 1.389 . S
C362 C361 1.389 . S
C362 C363 1.399 . S
C362 H375 0.931 . S
C363 C362 1.399 . S
C363 C364 1.390 . S
C364 C359 1.392 . S
C364 C363 1.390 . S
C364 H376 0.929 . S
O365 Tb349 2.326 . S
O365 C353 1.242 . S
O366 Eu350 2.324 . S
O366 C353 1.258 . S
O367 Tb349 2.500 . S
O367 C369 1.273 . S
O368 Tb349 2.473 . S
O368 C369 1.257 . S
C369 O367 1.273 . S
C369 O368 1.257 . S
O370 Eu350 2.326 . S
O370 C358 1.242 . S
O371 Tb349 2.324 . S
O371 C358 1.258 . S
O372 Eu350 2.500 . S
O372 C355 1.273 . S
O373 Eu350 2.473 . S
O373 C355 1.257 . S
H374 C360 0.929 . S
H375 C362 0.931 . S
H376 C364 0.929 . S
O377 Tb378 2.292 . S
O377 C380 1.255 . S
Tb378 O377 2.292 . S
Tb378 O394 2.326 . S
Tb378 O396 2.500 . S
Tb378 O397 2.473 . S
Tb378 O400 2.324 . S
Eu379 O383 2.292 . S
Eu379 C384 2.852 . S
Eu379 O395 2.324 . S
Eu379 O399 2.326 . S
Eu379 O401 2.500 . S
Eu379 O402 2.473 . S
C380 O377 1.255 . S
C380 O381 1.247 . S
O381 C380 1.247 . S
C382 O394 1.242 . S
C382 O395 1.258 . S
O383 Eu379 2.292 . S
O383 C385 1.255 . S
C384 Eu379 2.852 . S
C384 C388 1.503 . S
C384 O401 1.273 . S
C384 O402 1.257 . S
C385 O383 1.255 . S
C385 O386 1.247 . S
O386 C385 1.247 . S
C387 O399 1.242 . S
C387 O400 1.258 . S
C388 C384 1.503 . S
C388 C389 1.379 . S
C388 C393 1.392 . S
C389 C388 1.379 . S
C389 C390 1.404 . S
C389 H403 0.929 . S
C390 C389 1.404 . S
C390 C391 1.389 . S
C391 C390 1.389 . S
C391 C392 1.399 . S
C391 H404 0.931 . S
C392 C391 1.399 . S
C392 C393 1.390 . S
C393 C388 1.392 . S
C393 C392 1.390 . S
C393 H405 0.929 . S
O394 Tb378 2.326 . S
O394 C382 1.242 . S
O395 Eu379 2.324 . S
O395 C382 1.258 . S
O396 Tb378 2.500 . S
O396 C398 1.273 . S
O397 Tb378 2.473 . S
O397 C398 1.257 . S
C398 O396 1.273 . S
C398 O397 1.257 . S
O399 Eu379 2.326 . S
O399 C387 1.242 . S
O400 Tb378 2.324 . S
O400 C387 1.258 . S
O401 Eu379 2.500 . S
O401 C384 1.273 . S
O402 Eu379 2.473 . S
O402 C384 1.257 . S
H403 C389 0.929 . S
H404 C391 0.931 . S
H405 C393 0.929 . S
O406 Tb407 2.292 . S
O406 C409 1.255 . S
Tb407 O406 2.292 . S
Tb407 O423 2.326 . S
Tb407 O425 2.500 . S
Tb407 O426 2.473 . S
Tb407 O429 2.324 . S
Eu408 O412 2.292 . S
Eu408 C413 2.852 . S
Eu408 O424 2.324 . S
Eu408 O428 2.326 . S
Eu408 O430 2.500 . S
Eu408 O431 2.473 . S
C409 O406 1.255 . S
C409 O410 1.247 . S
O410 C409 1.247 . S
C411 O423 1.242 . S
C411 O424 1.258 . S
O412 Eu408 2.292 . S
O412 C414 1.255 . S
C413 Eu408 2.852 . S
C413 C417 1.503 . S
C413 O430 1.273 . S
C413 O431 1.257 . S
C414 O412 1.255 . S
C414 O415 1.247 . S
O415 C414 1.247 . S
C416 O428 1.242 . S
C416 O429 1.258 . S
C417 C413 1.503 . S
C417 C418 1.379 . S
C417 C422 1.392 . S
C418 C417 1.379 . S
C418 C419 1.404 . S
C418 H432 0.929 . S
C419 C418 1.404 . S
C419 C420 1.389 . S
C420 C419 1.389 . S
C420 C421 1.399 . S
C420 H433 0.931 . S
C421 C420 1.399 . S
C421 C422 1.390 . S
C422 C417 1.392 . S
C422 C421 1.390 . S
C422 H434 0.929 . S
O423 Tb407 2.326 . S
O423 C411 1.242 . S
O424 Eu408 2.324 . S
O424 C411 1.258 . S
O425 Tb407 2.500 . S
O425 C427 1.273 . S
O426 Tb407 2.473 . S
O426 C427 1.257 . S
C427 O425 1.273 . S
C427 O426 1.257 . S
O428 Eu408 2.326 . S
O428 C416 1.242 . S
O429 Tb407 2.324 . S
O429 C416 1.258 . S
O430 Eu408 2.500 . S
O430 C413 1.273 . S
O431 Eu408 2.473 . S
O431 C413 1.257 . S
H432 C418 0.929 . S
H433 C420 0.931 . S
H434 C422 0.929 . S
O435 Tb436 2.292 . S
O435 C438 1.255 1_556 S
Tb436 O435 2.292 . S
Tb436 O452 2.326 . S
Tb436 O454 2.500 . S
Tb436 O455 2.473 . S
Tb436 O458 2.324 . S
Eu437 O441 2.292 . S
Eu437 C442 2.852 . S
Eu437 O453 2.324 . S
Eu437 O457 2.326 . S
Eu437 O459 2.500 . S
Eu437 O460 2.473 . S
C438 O435 1.255 1_554 S
C438 O439 1.247 . S
O439 C438 1.247 . S
C440 O452 1.242 . S
C440 O453 1.258 . S
O441 Eu437 2.292 . S
O441 C443 1.255 . S
C442 Eu437 2.852 . S
C442 C446 1.503 . S
C442 O459 1.273 . S
C442 O460 1.257 . S
C443 O441 1.255 . S
C443 O444 1.247 . S
O444 C443 1.247 . S
C445 O457 1.242 . S
C445 O458 1.258 . S
C446 C442 1.503 . S
C446 C447 1.379 . S
C446 C451 1.392 . S
C447 C446 1.379 . S
C447 C448 1.404 . S
C447 H461 0.929 . S
C448 C447 1.404 . S
C448 C449 1.389 . S
C449 C448 1.389 . S
C449 C450 1.399 . S
C449 H462 0.931 . S
C450 C449 1.399 . S
C450 C451 1.390 . S
C451 C446 1.392 . S
C451 C450 1.390 . S
C451 H463 0.929 . S
O452 Tb436 2.326 . S
O452 C440 1.242 . S
O453 Eu437 2.324 . S
O453 C440 1.258 . S
O454 Tb436 2.500 . S
O454 C456 1.273 . S
O455 Tb436 2.473 . S
O455 C456 1.257 . S
C456 O454 1.273 . S
C456 O455 1.257 . S
O457 Eu437 2.326 . S
O457 C445 1.242 . S
O458 Tb436 2.324 . S
O458 C445 1.258 . S
O459 Eu437 2.500 . S
O459 C442 1.273 . S
O460 Eu437 2.473 . S
O460 C442 1.257 . S
H461 C447 0.929 . S
H462 C449 0.931 . S
H463 C451 0.929 . S
H464 C472 0.929 . S
H465 C474 0.930 . S
H466 C476 0.930 . S
H467 C479 0.929 . S
H468 C482 0.930 . S
H469 C484 0.960 . S
H470 C484 0.967 . S
H471 C484 0.960 1_655 S
C472 H464 0.929 . S
C472 C473 1.377 . S
C472 C474 1.384 . S
C473 C472 1.377 . S
C473 C479 1.390 . S
C474 H465 0.930 . S
C474 C472 1.384 . S
C474 C475 1.372 . S
C475 C474 1.372 . S
C475 C476 1.400 . S
C475 C480 1.490 . S
C476 H466 0.930 . S
C476 C475 1.400 . S
C476 C479 1.386 . S
H477 C493 0.930 . S
H478 C494 0.931 . S
C479 H467 0.929 . S
C479 C473 1.390 . S
C479 C476 1.386 . S
C480 C475 1.490 . S
C480 C482 1.395 . S
C480 C483 1.403 . S
H481 C487 0.930 . S
C482 H468 0.930 . S
C482 C480 1.395 . S
C482 C485 1.403 . S
C483 C480 1.403 . S
C483 C484 1.524 1_655 S
C483 C487 1.400 1_655 S
C484 H469 0.960 . S
C484 H470 0.967 . S
C484 H471 0.960 1_455 S
C484 C483 1.524 1_455 S
C485 C482 1.403 . S
C485 C486 1.392 1_655 S
C485 C489 1.495 . S
C486 C485 1.392 1_455 S
C486 C487 1.385 . S
C486 C488 1.478 . S
C487 H481 0.930 . S
C487 C483 1.400 1_455 S
C487 C486 1.385 . S
C488 C486 1.478 . S
C488 C490 1.381 . S
C488 C494 1.383 . S
C489 C485 1.495 . S
C489 H495 0.959 . S
C489 H496 0.961 . S
C489 H497 0.960 . S
C490 C488 1.381 . S
C490 C491 1.394 . S
C490 H498 0.930 . S
C491 C490 1.394 . S
C491 C492 1.383 . S
C491 H499 0.929 . S
C492 C491 1.383 . S
C492 C493 1.377 . S
C493 H477 0.930 . S
C493 C492 1.377 . S
C493 C494 1.379 . S
C494 H478 0.931 . S
C494 C488 1.383 . S
C494 C493 1.379 . S
H495 C489 0.959 . S
H496 C489 0.961 . S
H497 C489 0.960 . S
H498 C490 0.930 . S
H499 C491 0.929 . S
H500 C508 0.929 . S
H501 C510 0.930 . S
H502 C512 0.930 . S
H503 C515 0.929 . S
H504 C518 0.934 . S
H505 C520 0.960 1_655 S
H506 C520 0.960 . S
H507 C520 0.958 1_655 S
C508 H500 0.929 . S
C508 C509 1.377 . S
C508 C510 1.384 . S
C509 C508 1.377 . S
C509 C515 1.390 . S
C510 H501 0.930 . S
C510 C508 1.384 . S
C510 C511 1.372 . S
C511 C510 1.372 . S
C511 C512 1.400 . S
C511 C516 1.490 . S
C512 H502 0.930 . S
C512 C511 1.400 . S
C512 C515 1.386 . S
H513 C529 0.930 . S
H514 C530 0.931 . S
C515 H503 0.929 . S
C515 C509 1.390 . S
C515 C512 1.386 . S
C516 C511 1.490 . S
C516 C518 1.396 . S
C516 C519 1.403 1_455 S
H517 C523 0.930 . S
C518 H504 0.934 . S
C518 C516 1.396 . S
C518 C521 1.398 1_455 S
C519 C516 1.403 1_655 S
C519 C520 1.524 1_655 S
C519 C523 1.400 . S
C520 H505 0.960 1_455 S
C520 H506 0.960 . S
C520 H507 0.958 1_455 S
C520 C519 1.524 1_455 S
C521 C518 1.398 1_655 S
C521 C522 1.392 . S
C521 C525 1.495 . S
C522 C521 1.392 . S
C522 C523 1.385 . S
C522 C524 1.478 . S
C523 H517 0.930 . S
C523 C519 1.400 . S
C523 C522 1.385 . S
C524 C522 1.478 . S
C524 C526 1.381 . S
C524 C530 1.383 . S
C525 C521 1.495 . S
C525 H531 0.959 . S
C525 H532 0.961 . S
C525 H533 0.960 . S
C526 C524 1.381 . S
C526 C527 1.394 . S
C526 H534 0.930 . S
C527 C526 1.394 . S
C527 C528 1.383 . S
C527 H535 0.929 . S
C528 C527 1.383 . S
C528 C529 1.377 . S
C529 H513 0.930 . S
C529 C528 1.377 . S
C529 C530 1.379 . S
C530 H514 0.931 . S
C530 C524 1.383 . S
C530 C529 1.379 . S
H531 C525 0.959 . S
H532 C525 0.961 . S
H533 C525 0.960 . S
H534 C526 0.930 . S
H535 C527 0.929 . S
H536 C544 0.929 . S
H537 C546 0.930 . S
H538 C548 0.930 . S
H539 C551 0.929 . S
H540 C554 0.930 . S
H541 C556 0.960 . S
H542 C556 0.960 . S
H543 C556 0.960 . S
C544 H536 0.929 . S
C544 C545 1.377 . S
C544 C546 1.384 . S
C545 C544 1.377 . S
C545 C551 1.390 . S
C546 H537 0.930 . S
C546 C544 1.384 . S
C546 C547 1.372 . S
C547 C546 1.372 . S
C547 C548 1.400 . S
C547 C552 1.490 . S
C548 H538 0.930 . S
C548 C547 1.400 . S
C548 C551 1.386 . S
H549 C565 0.930 . S
H550 C566 0.931 . S
C551 H539 0.929 . S
C551 C545 1.390 . S
C551 C548 1.386 . S
C552 C547 1.490 . S
C552 C554 1.395 . S
C552 C555 1.403 . S
H553 C559 0.930 . S
C554 H540 0.930 . S
C554 C552 1.395 . S
C554 C557 1.403 . S
C555 C552 1.403 . S
C555 C556 1.524 . S
C555 C559 1.400 . S
C556 H541 0.960 . S
C556 H542 0.960 . S
C556 H543 0.960 . S
C556 C555 1.524 . S
C557 C554 1.403 . S
C557 C558 1.392 . S
C557 C561 1.495 . S
C558 C557 1.392 . S
C558 C559 1.385 . S
C558 C560 1.478 . S
C559 H553 0.930 . S
C559 C555 1.400 . S
C559 C558 1.385 . S
C560 C558 1.478 . S
C560 C562 1.381 . S
C560 C566 1.383 . S
C561 C557 1.495 . S
C561 H567 0.959 . S
C561 H568 0.961 . S
C561 H569 0.960 . S
C562 C560 1.381 . S
C562 C563 1.394 . S
C562 H570 0.930 . S
C563 C562 1.394 . S
C563 C564 1.383 . S
C563 H571 0.929 . S
C564 C563 1.383 . S
C564 C565 1.377 . S
C565 H549 0.930 . S
C565 C564 1.377 . S
C565 C566 1.379 . S
C566 H550 0.931 . S
C566 C560 1.383 . S
C566 C565 1.379 . S
H567 C561 0.959 . S
H568 C561 0.961 . S
H569 C561 0.960 . S
H570 C562 0.930 . S
H571 C563 0.929 . S
H572 C580 0.929 . S
H573 C582 0.930 . S
H574 C584 0.930 . S
H575 C587 0.929 . S
H576 C590 0.930 . S
H577 C592 0.960 . S
H578 C592 0.960 . S
H579 C592 0.960 . S
C580 H572 0.929 . S
C580 C581 1.377 . S
C580 C582 1.384 . S
C581 C580 1.377 . S
C581 C587 1.390 . S
C582 H573 0.930 . S
C582 C580 1.384 . S
C582 C583 1.372 . S
C583 C582 1.372 . S
C583 C584 1.400 . S
C583 C588 1.490 . S
C584 H574 0.930 . S
C584 C583 1.400 . S
C584 C587 1.386 . S
H585 C601 0.930 . S
H586 C602 0.931 . S
C587 H575 0.929 . S
C587 C581 1.390 . S
C587 C584 1.386 . S
C588 C583 1.490 . S
C588 C590 1.395 . S
C588 C591 1.403 . S
H589 C595 0.930 . S
C590 H576 0.930 . S
C590 C588 1.395 . S
C590 C593 1.403 . S
C591 C588 1.403 . S
C591 C592 1.524 . S
C591 C595 1.400 . S
C592 H577 0.960 . S
C592 H578 0.960 . S
C592 H579 0.960 . S
C592 C591 1.524 . S
C593 C590 1.403 . S
C593 C594 1.392 . S
C593 C597 1.495 . S
C594 C593 1.392 . S
C594 C595 1.385 . S
C594 C596 1.478 . S
C595 H589 0.930 . S
C595 C591 1.400 . S
C595 C594 1.385 . S
C596 C594 1.478 . S
C596 C598 1.381 . S
C596 C602 1.383 . S
C597 C593 1.495 . S
C597 H603 0.959 . S
C597 H604 0.961 . S
C597 H605 0.960 . S
C598 C596 1.381 . S
C598 C599 1.394 . S
C598 H606 0.930 . S
C599 C598 1.394 . S
C599 C600 1.383 . S
C599 H607 0.929 . S
C600 C599 1.383 . S
C600 C601 1.377 . S
C601 H585 0.930 . S
C601 C600 1.377 . S
C601 C602 1.379 . S
C602 H586 0.931 . S
C602 C596 1.383 . S
C602 C601 1.379 . S
H603 C597 0.959 . S
H604 C597 0.961 . S
H605 C597 0.960 . S
H606 C598 0.930 . S
H607 C599 0.929 . S
H608 C616 0.929 . S
H609 C618 0.930 . S
H610 C620 0.930 . S
H611 C623 0.929 . S
H612 C626 0.930 . S
H613 C628 0.960 . S
H614 C628 0.960 . S
H615 C628 0.977 . S
C616 H608 0.929 . S
C616 C617 1.377 . S
C616 C618 1.384 . S
C617 C616 1.377 . S
C617 C623 1.390 . S
C618 H609 0.930 . S
C618 C616 1.384 . S
C618 C619 1.372 . S
C619 C618 1.372 . S
C619 C620 1.400 . S
C619 C624 1.490 . S
C620 H610 0.930 . S
C620 C619 1.400 . S
C620 C623 1.386 . S
H621 C637 0.930 . S
H622 C638 0.931 . S
C623 H611 0.929 . S
C623 C617 1.390 . S
C623 C620 1.386 . S
C624 C619 1.490 . S
C624 C626 1.395 . S
C624 C627 1.403 1_655 S
H625 C631 0.930 . S
C626 H612 0.930 . S
C626 C624 1.395 . S
C626 C629 1.403 1_655 S
C627 C624 1.403 1_455 S
C627 C628 1.524 . S
C627 C631 1.400 . S
C628 H613 0.960 . S
C628 H614 0.960 . S
C628 H615 0.977 . S
C628 C627 1.524 . S
C629 C626 1.403 1_455 S
C629 C630 1.392 . S
C629 C633 1.495 . S
C630 C629 1.392 . S
C630 C631 1.385 . S
C630 C632 1.478 . S
C631 H625 0.930 . S
C631 C627 1.400 . S
C631 C630 1.385 . S
C632 C630 1.478 . S
C632 C634 1.381 . S
C632 C638 1.383 . S
C633 C629 1.495 . S
C633 H639 0.959 1_455 S
C633 H640 0.961 . S
C633 H641 0.960 . S
C634 C632 1.381 . S
C634 C635 1.394 . S
C634 H642 0.930 . S
C635 C634 1.394 . S
C635 C636 1.383 . S
C635 H643 0.929 . S
C636 C635 1.383 . S
C636 C637 1.377 . S
C637 H621 0.930 . S
C637 C636 1.377 . S
C637 C638 1.379 . S
C638 H622 0.931 . S
C638 C632 1.383 . S
C638 C637 1.379 . S
H639 C633 0.959 1_655 S
H640 C633 0.961 . S
H641 C633 0.960 . S
H642 C634 0.930 . S
H643 C635 0.929 . S
H644 C652 0.929 . S
H645 C654 0.930 . S
H646 C656 0.930 . S
H647 C659 0.929 . S
H648 C662 0.937 . S
H649 C664 0.960 . S
H650 C664 0.960 . S
H651 C664 0.960 . S
C652 H644 0.929 . S
C652 C653 1.377 . S
C652 C654 1.384 . S
C653 C652 1.377 . S
C653 C659 1.390 . S
C654 H645 0.930 . S
C654 C652 1.384 . S
C654 C655 1.372 . S
C655 C654 1.372 . S
C655 C656 1.400 . S
C655 C660 1.490 . S
C656 H646 0.930 . S
C656 C655 1.400 . S
C656 C659 1.386 . S
H657 C673 0.930 . S
H658 C674 0.931 . S
C659 H647 0.929 . S
C659 C653 1.390 . S
C659 C656 1.386 . S
C660 C655 1.490 . S
C660 C662 1.341 1_455 S
C660 C663 1.403 . S
H661 C667 0.930 . S
C662 H648 0.937 . S
C662 C660 1.341 1_655 S
C662 C665 1.453 . S
C663 C660 1.403 . S
C663 C664 1.524 . S
C663 C667 1.400 . S
C664 H649 0.960 . S
C664 H650 0.960 . S
C664 H651 0.960 . S
C664 C663 1.524 . S
C665 C662 1.453 . S
C665 C666 1.392 . S
C665 C669 1.495 . S
C666 C665 1.392 . S
C666 C667 1.385 1_655 S
C666 C668 1.478 . S
C667 H661 0.930 . S
C667 C663 1.400 . S
C667 C666 1.385 1_455 S
C668 C666 1.478 . S
C668 C670 1.381 . S
C668 C674 1.383 . S
C669 C665 1.495 . S
C669 H675 0.959 . S
C669 H676 0.961 . S
C669 H677 0.960 . S
C670 C668 1.381 . S
C670 C671 1.394 . S
C670 H678 0.930 . S
C671 C670 1.394 . S
C671 C672 1.383 . S
C671 H679 0.929 . S
C672 C671 1.383 . S
C672 C673 1.377 . S
C673 H657 0.930 . S
C673 C672 1.377 . S
C673 C674 1.379 . S
C674 H658 0.931 . S
C674 C668 1.383 . S
C674 C673 1.379 . S
H675 C669 0.959 . S
H676 C669 0.961 . S
H677 C669 0.960 . S
H678 C670 0.930 . S
H679 C671 0.929 . S
H680 C688 0.929 . S
H681 C690 0.930 . S
H682 C692 0.930 . S
H683 C695 0.929 . S
H684 C698 0.930 . S
H685 C700 0.960 . S
H686 C700 0.960 . S
H687 C700 0.960 . S
C688 H680 0.929 . S
C688 C689 1.377 . S
C688 C690 1.384 . S
C689 C688 1.377 . S
C689 C695 1.390 . S
C690 H681 0.930 . S
C690 C688 1.384 . S
C690 C691 1.372 . S
C691 C690 1.372 . S
C691 C692 1.400 . S
C691 C696 1.490 . S
C692 H682 0.930 . S
C692 C691 1.400 . S
C692 C695 1.386 . S
H693 C709 0.930 . S
H694 C710 0.931 . S
C695 H683 0.929 . S
C695 C689 1.390 . S
C695 C692 1.386 . S
C696 C691 1.490 . S
C696 C698 1.395 . S
C696 C699 1.403 . S
H697 C703 0.930 . S
C698 H684 0.930 . S
C698 C696 1.395 . S
C698 C701 1.403 . S
C699 C696 1.403 . S
C699 C700 1.524 . S
C699 C703 1.400 . S
C700 H685 0.960 . S
C700 H686 0.960 . S
C700 H687 0.960 . S
C700 C699 1.524 . S
C701 C698 1.403 . S
C701 C702 1.392 . S
C701 C705 1.495 . S
C702 C701 1.392 . S
C702 C703 1.385 . S
C702 C704 1.478 . S
C703 H697 0.930 . S
C703 C699 1.400 . S
C703 C702 1.385 . S
C704 C702 1.478 . S
C704 C706 1.381 . S
C704 C710 1.383 . S
C705 C701 1.495 . S
C705 H711 0.959 . S
C705 H712 0.961 . S
C705 H713 0.960 . S
C706 C704 1.381 . S
C706 C707 1.394 . S
C706 H714 0.930 . S
C707 C706 1.394 . S
C707 C708 1.383 . S
C707 H715 0.929 . S
C708 C707 1.383 . S
C708 C709 1.377 . S
C709 H693 0.930 . S
C709 C708 1.377 . S
C709 C710 1.379 . S
C710 H694 0.931 . S
C710 C704 1.383 . S
C710 C709 1.379 . S
H711 C705 0.959 . S
H712 C705 0.961 . S
H713 C705 0.960 . S
H714 C706 0.930 . S
H715 C707 0.929 . S
H716 C724 0.929 . S
H717 C726 0.930 . S
H718 C728 0.930 . S
H719 C731 0.929 . S
H720 C734 0.930 . S
H721 C736 0.960 . S
H722 C736 0.960 . S
H723 C736 0.960 . S
C724 H716 0.929 . S
C724 C725 1.377 . S
C724 C726 1.384 . S
C725 C724 1.377 . S
C725 C731 1.390 . S
C726 H717 0.930 . S
C726 C724 1.384 . S
C726 C727 1.372 . S
C727 C726 1.372 . S
C727 C728 1.400 . S
C727 C732 1.490 . S
C728 H718 0.930 . S
C728 C727 1.400 . S
C728 C731 1.386 . S
H729 C745 0.930 . S
H730 C746 0.931 . S
C731 H719 0.929 . S
C731 C725 1.390 . S
C731 C728 1.386 . S
C732 C727 1.490 . S
C732 C734 1.395 . S
C732 C735 1.403 . S
H733 C739 0.930 . S
C734 H720 0.930 . S
C734 C732 1.395 . S
C734 C737 1.403 . S
C735 C732 1.403 . S
C735 C736 1.524 . S
C735 C739 1.400 . S
C736 H721 0.960 . S
C736 H722 0.960 . S
C736 H723 0.960 . S
C736 C735 1.524 . S
C737 C734 1.403 . S
C737 C738 1.392 . S
C737 C741 1.495 . S
C738 C737 1.392 . S
C738 C739 1.385 . S
C738 C740 1.478 . S
C739 H733 0.930 . S
C739 C735 1.400 . S
C739 C738 1.385 . S
C740 C738 1.478 . S
C740 C742 1.381 . S
C740 C746 1.383 . S
C741 C737 1.495 . S
C741 H747 0.959 . S
C741 H748 0.961 . S
C741 H749 0.960 . S
C742 C740 1.381 . S
C742 C743 1.394 . S
C742 H750 0.930 . S
C743 C742 1.394 . S
C743 C744 1.383 . S
C743 H751 0.929 . S
C744 C743 1.383 . S
C744 C745 1.377 . S
C745 H729 0.930 . S
C745 C744 1.377 . S
C745 C746 1.379 . S
C746 H730 0.931 . S
C746 C740 1.383 . S
C746 C745 1.379 . S
H747 C741 0.959 . S
H748 C741 0.961 . S
H749 C741 0.960 . S
H750 C742 0.930 . S
H751 C743 0.929 . S
H752 C760 0.929 . S
H753 C762 0.930 . S
H754 C764 0.930 . S
H755 C767 0.929 . S
H756 C770 0.930 . S
H757 C772 0.960 . S
H758 C772 0.960 . S
H759 C772 0.960 . S
C760 H752 0.929 . S
C760 C761 1.377 . S
C760 C762 1.384 . S
C761 C760 1.377 . S
C761 C767 1.390 . S
C762 H753 0.930 . S
C762 C760 1.384 . S
C762 C763 1.372 . S
C763 C762 1.372 . S
C763 C764 1.400 . S
C763 C768 1.490 . S
C764 H754 0.930 . S
C764 C763 1.400 . S
C764 C767 1.386 . S
H765 C781 0.930 . S
H766 C782 0.931 1_556 S
C767 H755 0.929 . S
C767 C761 1.390 . S
C767 C764 1.386 . S
C768 C763 1.490 . S
C768 C770 1.395 1_556 S
C768 C771 1.403 . S
H769 C775 0.930 . S
C770 H756 0.930 . S
C770 C768 1.395 1_554 S
C770 C773 1.403 . S
C771 C768 1.403 . S
C771 C772 1.524 . S
C771 C775 1.400 . S
C772 H757 0.960 . S
C772 H758 0.960 . S
C772 H759 0.960 . S
C772 C771 1.524 . S
C773 C770 1.403 . S
C773 C774 1.392 . S
C773 C777 1.495 . S
C774 C773 1.392 . S
C774 C775 1.385 1_554 S
C774 C776 1.478 . S
C775 H769 0.930 . S
C775 C771 1.400 . S
C775 C774 1.385 1_556 S
C776 C774 1.478 . S
C776 C778 1.381 . S
C776 C782 1.383 . S
C777 C773 1.495 . S
C777 H783 0.959 . S
C777 H784 0.961 . S
C777 H785 0.960 . S
C778 C776 1.381 . S
C778 C779 1.394 . S
C778 H786 0.930 . S
C779 C778 1.394 . S
C779 C780 1.383 . S
C779 H787 0.929 . S
C780 C779 1.383 . S
C780 C781 1.377 . S
C781 H765 0.930 . S
C781 C780 1.377 . S
C781 C782 1.379 . S
C782 H766 0.931 1_554 S
C782 C776 1.383 . S
C782 C781 1.379 . S
H783 C777 0.959 . S
H784 C777 0.961 . S
H785 C777 0.960 . S
H786 C778 0.930 . S
H787 C779 0.929 . S
H788 C796 0.929 . S
H789 C798 0.930 . S
H790 C800 0.930 . S
H791 C803 0.929 . S
H792 C806 0.930 . S
H793 C808 0.960 . S
H794 C808 0.961 . S
H795 C808 0.988 . S
C796 H788 0.929 . S
C796 C797 1.377 . S
C796 C798 1.384 . S
C797 C796 1.377 . S
C797 C803 1.390 . S
C798 H789 0.930 . S
C798 C796 1.384 . S
C798 C799 1.372 . S
C799 C798 1.372 . S
C799 C800 1.400 . S
C799 C804 1.490 . S
C800 H790 0.930 . S
C800 C799 1.400 . S
C800 C803 1.386 . S
H801 C817 0.930 . S
H802 C818 0.931 . S
C803 H791 0.929 . S
C803 C797 1.390 . S
C803 C800 1.386 . S
C804 C799 1.490 . S
C804 C806 1.395 . S
C804 C807 1.403 1_565 S
H805 C811 0.930 . S
C806 H792 0.930 . S
C806 C804 1.395 . S
C806 C809 1.403 1_565 S
C807 C804 1.403 1_545 S
C807 C808 1.524 . S
C807 C811 1.400 . S
C808 H793 0.960 . S
C808 H794 0.961 . S
C808 H795 0.988 . S
C808 C807 1.524 . S
C809 C806 1.403 1_545 S
C809 C810 1.392 . S
C809 C813 1.495 . S
C810 C809 1.392 . S
C810 C811 1.385 . S
C810 C812 1.478 . S
C811 H805 0.930 . S
C811 C807 1.400 . S
C811 C810 1.385 . S
C812 C810 1.478 . S
C812 C814 1.381 . S
C812 C818 1.383 . S
C813 C809 1.495 . S
C813 H819 0.959 1_545 S
C813 H820 0.961 . S
C813 H821 0.960 . S
C814 C812 1.381 . S
C814 C815 1.394 . S
C814 H822 0.930 . S
C815 C814 1.394 . S
C815 C816 1.383 . S
C815 H823 0.929 . S
C816 C815 1.383 . S
C816 C817 1.377 . S
C817 H801 0.930 . S
C817 C816 1.377 . S
C817 C818 1.379 . S
C818 H802 0.931 . S
C818 C812 1.383 . S
C818 C817 1.379 . S
H819 C813 0.959 1_565 S
H820 C813 0.961 . S
H821 C813 0.960 . S
H822 C814 0.930 . S
H823 C815 0.929 . S
H824 C832 0.929 . S
H825 C834 0.930 . S
H826 C836 0.930 . S
H827 C839 0.929 . S
H828 C842 0.930 . S
H829 C844 0.960 . S
H830 C844 0.960 . S
H831 C844 0.960 . S
C832 H824 0.929 . S
C832 C833 1.377 . S
C832 C834 1.384 . S
C833 C832 1.377 . S
C833 C839 1.390 . S
C834 H825 0.930 . S
C834 C832 1.384 . S
C834 C835 1.372 . S
C835 C834 1.372 . S
C835 C836 1.400 . S
C835 C840 1.490 . S
C836 H826 0.930 . S
C836 C835 1.400 . S
C836 C839 1.386 . S
H837 C853 0.930 . S
H838 C854 0.931 . S
C839 H827 0.929 . S
C839 C833 1.390 . S
C839 C836 1.386 . S
C840 C835 1.490 . S
C840 C842 1.395 . S
C840 C843 1.403 . S
H841 C847 0.930 . S
C842 H828 0.930 . S
C842 C840 1.395 . S
C842 C845 1.403 . S
C843 C840 1.403 . S
C843 C844 1.524 . S
C843 C847 1.400 . S
C844 H829 0.960 . S
C844 H830 0.960 . S
C844 H831 0.960 . S
C844 C843 1.524 . S
C845 C842 1.403 . S
C845 C846 1.392 . S
C845 C849 1.495 . S
C846 C845 1.392 . S
C846 C847 1.385 . S
C846 C848 1.478 . S
C847 H841 0.930 . S
C847 C843 1.400 . S
C847 C846 1.385 . S
C848 C846 1.478 . S
C848 C850 1.381 . S
C848 C854 1.383 . S
C849 C845 1.495 . S
C849 H855 0.959 . S
C849 H856 0.961 . S
C849 H857 0.960 . S
C850 C848 1.381 . S
C850 C851 1.394 . S
C850 H858 0.930 . S
C851 C850 1.394 . S
C851 C852 1.383 . S
C851 H859 0.929 . S
C852 C851 1.383 . S
C852 C853 1.377 . S
C853 H837 0.930 . S
C853 C852 1.377 . S
C853 C854 1.379 . S
C854 H838 0.931 . S
C854 C848 1.383 . S
C854 C853 1.379 . S
H855 C849 0.959 . S
H856 C849 0.961 . S
H857 C849 0.960 . S
H858 C850 0.930 . S
H859 C851 0.929 . S
H860 C868 0.929 . S
H861 C870 0.930 . S
H862 C872 0.930 . S
H863 C875 0.929 . S
H864 C878 0.930 . S
H865 C880 0.958 . S
H866 C880 0.961 1_565 S
H867 C880 0.961 1_565 S
C868 H860 0.929 . S
C868 C869 1.377 . S
C868 C870 1.384 . S
C869 C868 1.377 . S
C869 C875 1.390 . S
C870 H861 0.930 . S
C870 C868 1.384 . S
C870 C871 1.372 . S
C871 C870 1.372 . S
C871 C872 1.400 . S
C871 C876 1.490 . S
C872 H862 0.930 . S
C872 C871 1.400 . S
C872 C875 1.386 . S
H873 C889 0.930 . S
H874 C890 0.931 . S
C875 H863 0.929 . S
C875 C869 1.390 . S
C875 C872 1.386 . S
C876 C871 1.490 . S
C876 C878 1.395 . S
C876 C879 1.403 1_565 S
H877 C883 0.930 . S
C878 H864 0.930 . S
C878 C876 1.395 . S
C878 C881 1.403 1_565 S
C879 C876 1.403 1_545 S
C879 C880 1.524 . S
C879 C883 1.400 . S
C880 H865 0.958 . S
C880 H866 0.961 1_545 S
C880 H867 0.961 1_545 S
C880 C879 1.524 . S
C881 C878 1.403 1_545 S
C881 C882 1.392 . S
C881 C885 1.495 . S
C882 C881 1.392 . S
C882 C883 1.385 . S
C882 C884 1.478 . S
C883 H877 0.930 . S
C883 C879 1.400 . S
C883 C882 1.385 . S
C884 C882 1.478 . S
C884 C886 1.381 . S
C884 C890 1.383 . S
C885 C881 1.495 . S
C885 H891 0.959 1_545 S
C885 H892 0.961 . S
C885 H893 0.960 . S
C886 C884 1.381 . S
C886 C887 1.394 . S
C886 H894 0.930 . S
C887 C886 1.394 . S
C887 C888 1.383 . S
C887 H895 0.929 . S
C888 C887 1.383 . S
C888 C889 1.377 . S
C889 H873 0.930 . S
C889 C888 1.377 . S
C889 C890 1.379 . S
C890 H874 0.931 . S
C890 C884 1.383 . S
C890 C889 1.379 . S
H891 C885 0.959 1_565 S
H892 C885 0.961 . S
H893 C885 0.960 . S
H894 C886 0.930 . S
H895 C887 0.929 . S
H896 C904 0.929 . S
H897 C906 0.930 . S
H898 C908 0.930 . S
H899 C911 0.929 . S
H900 C914 0.930 . S
H901 C916 0.960 . S
H902 C916 0.960 . S
H903 C916 0.960 . S
C904 H896 0.929 . S
C904 C905 1.377 . S
C904 C906 1.384 . S
C905 C904 1.377 . S
C905 C911 1.390 . S
C906 H897 0.930 . S
C906 C904 1.384 . S
C906 C907 1.372 . S
C907 C906 1.372 . S
C907 C908 1.400 . S
C907 C912 1.490 . S
C908 H898 0.930 . S
C908 C907 1.400 . S
C908 C911 1.386 . S
H909 C925 0.930 . S
H910 C926 0.931 . S
C911 H899 0.929 . S
C911 C905 1.390 . S
C911 C908 1.386 . S
C912 C907 1.490 . S
C912 C914 1.395 . S
C912 C915 1.403 1_556 S
H913 C919 0.930 . S
C914 H900 0.930 . S
C914 C912 1.395 . S
C914 C917 1.403 . S
C915 C912 1.403 1_554 S
C915 C916 1.524 . S
C915 C919 1.400 . S
C916 H901 0.960 . S
C916 H902 0.960 . S
C916 H903 0.960 . S
C916 C915 1.524 . S
C917 C914 1.403 . S
C917 C918 1.392 . S
C917 C921 1.495 . S
C918 C917 1.392 . S
C918 C919 1.385 1_556 S
C918 C920 1.478 . S
C919 H913 0.930 . S
C919 C915 1.400 . S
C919 C918 1.385 1_554 S
C920 C918 1.478 . S
C920 C922 1.381 . S
C920 C926 1.383 1_556 S
C921 C917 1.495 . S
C921 H927 0.959 . S
C921 H928 0.961 . S
C921 H929 0.960 . S
C922 C920 1.381 . S
C922 C923 1.386 1_556 S
C922 H930 0.939 . S
C923 C922 1.386 1_554 S
C923 C924 1.383 . S
C923 H931 0.929 . S
C924 C923 1.383 . S
C924 C925 1.377 . S
C925 H909 0.930 . S
C925 C924 1.377 . S
C925 C926 1.379 . S
C926 H910 0.931 . S
C926 C920 1.383 1_554 S
C926 C925 1.379 . S
H927 C921 0.959 . S
H928 C921 0.961 . S
H929 C921 0.960 . S
H930 C922 0.939 . S
H931 C923 0.929 . S
H932 C940 0.929 . S
H933 C942 0.930 . S
H934 C944 0.930 . S
H935 C947 0.929 . S
H936 C950 0.930 . S
H937 C952 0.960 1_545 S
H938 C952 0.960 . S
H939 C952 0.960 . S
C940 H932 0.929 . S
C940 C941 1.377 . S
C940 C942 1.384 . S
C941 C940 1.377 . S
C941 C947 1.390 . S
C942 H933 0.930 . S
C942 C940 1.384 . S
C942 C943 1.372 . S
C943 C942 1.372 . S
C943 C944 1.400 . S
C943 C948 1.490 . S
C944 H934 0.930 . S
C944 C943 1.400 . S
C944 C947 1.386 . S
H945 C961 0.930 . S
H946 C962 0.931 . S
C947 H935 0.929 . S
C947 C941 1.390 . S
C947 C944 1.386 . S
C948 C943 1.490 . S
C948 C950 1.395 . S
C948 C951 1.403 . S
H949 C955 0.930 . S
C950 H936 0.930 . S
C950 C948 1.395 . S
C950 C953 1.403 . S
C951 C948 1.403 . S
C951 C952 1.524 . S
C951 C955 1.400 1_565 S
C952 H937 0.960 1_565 S
C952 H938 0.960 . S
C952 H939 0.960 . S
C952 C951 1.524 . S
C953 C950 1.403 . S
C953 C954 1.392 1_565 S
C953 C957 1.495 . S
C954 C953 1.392 1_545 S
C954 C955 1.385 . S
C954 C956 1.478 . S
C955 H949 0.930 . S
C955 C951 1.400 1_545 S
C955 C954 1.385 . S
C956 C954 1.478 . S
C956 C958 1.381 . S
C956 C962 1.383 . S
C957 C953 1.495 . S
C957 H963 0.959 . S
C957 H964 0.961 . S
C957 H965 0.960 1_565 S
C958 C956 1.381 . S
C958 C959 1.394 . S
C958 H966 0.930 . S
C959 C958 1.394 . S
C959 C960 1.383 . S
C959 H967 0.929 . S
C960 C959 1.383 . S
C960 C961 1.377 . S
C961 H945 0.930 . S
C961 C960 1.377 . S
C961 C962 1.379 . S
C962 H946 0.931 . S
C962 C956 1.383 . S
C962 C961 1.379 . S
H963 C957 0.959 . S
H964 C957 0.961 . S
H965 C957 0.960 1_545 S
H966 C958 0.930 . S
H967 C959 0.929 . S
H968 C976 0.929 . S
H969 C978 0.930 . S
H970 C980 0.930 . S
H971 C983 0.929 . S
H972 C986 0.930 . S
H973 C988 0.960 . S
H974 C988 0.960 . S
H975 C988 0.960 . S
C976 H968 0.929 . S
C976 C977 1.377 . S
C976 C978 1.384 . S
C977 C976 1.377 . S
C977 C983 1.390 . S
C978 H969 0.930 . S
C978 C976 1.384 . S
C978 C979 1.372 . S
C979 C978 1.372 . S
C979 C980 1.400 . S
C979 C984 1.490 . S
C980 H970 0.930 . S
C980 C979 1.400 . S
C980 C983 1.386 . S
H981 C997 0.930 . S
H982 C998 0.931 . S
C983 H971 0.929 . S
C983 C977 1.390 . S
C983 C980 1.386 . S
C984 C979 1.490 . S
C984 C986 1.395 . S
C984 C987 1.403 . S
H985 C991 0.930 . S
C986 H972 0.930 . S
C986 C984 1.395 . S
C986 C989 1.403 . S
C987 C984 1.403 . S
C987 C988 1.524 . S
C987 C991 1.400 . S
C988 H973 0.960 . S
C988 H974 0.960 . S
C988 H975 0.960 . S
C988 C987 1.524 . S
C989 C986 1.403 . S
C989 C990 1.392 . S
C989 C993 1.495 . S
C990 C989 1.392 . S
C990 C991 1.385 . S
C990 C992 1.478 . S
C991 H985 0.930 . S
C991 C987 1.400 . S
C991 C990 1.385 . S
C992 C990 1.478 . S
C992 C994 1.381 . S
C992 C998 1.383 . S
C993 C989 1.495 . S
C993 H999 0.959 . S
C993 H1000 0.961 . S
C993 H1001 0.960 . S
C994 C992 1.381 . S
C994 C995 1.394 . S
C994 H1002 0.930 . S
C995 C994 1.394 . S
C995 C996 1.383 . S
C995 H1003 0.929 . S
C996 C995 1.383 . S
C996 C997 1.377 . S
C997 H981 0.930 . S
C997 C996 1.377 . S
C997 C998 1.379 . S
C998 H982 0.931 . S
C998 C992 1.383 . S
C998 C997 1.379 . S
H999 C993 0.959 . S
H1000 C993 0.961 . S
H1001 C993 0.960 . S
H1002 C994 0.930 . S
H1003 C995 0.929 . S
H1004 C1012 0.929 . S
H1005 C1014 0.930 . S
H1006 C1016 0.930 . S
H1007 C1019 0.929 . S
H1008 C1022 0.930 . S
H1009 C1024 0.960 . S
H1010 C1024 0.960 . S
H1011 C1024 0.960 . S
C1012 H1004 0.929 . S
C1012 C1013 1.377 . S
C1012 C1014 1.384 . S
C1013 C1012 1.377 . S
C1013 C1019 1.390 . S
C1014 H1005 0.930 . S
C1014 C1012 1.384 . S
C1014 C1015 1.372 . S
C1015 C1014 1.372 . S
C1015 C1016 1.400 . S
C1015 C1020 1.490 . S
C1016 H1006 0.930 . S
C1016 C1015 1.400 . S
C1016 C1019 1.386 . S
H1017 C1033 0.930 . S
H1018 C1034 0.931 . S
C1019 H1007 0.929 . S
C1019 C1013 1.390 . S
C1019 C1016 1.386 . S
C1020 C1015 1.490 . S
C1020 C1022 1.395 . S
C1020 C1023 1.403 . S
H1021 C1027 0.930 . S
C1022 H1008 0.930 . S
C1022 C1020 1.395 . S
C1022 C1025 1.403 1_565 S
C1023 C1020 1.403 . S
C1023 C1024 1.524 . S
C1023 C1027 1.400 1_565 S
C1024 H1009 0.960 . S
C1024 H1010 0.960 . S
C1024 H1011 0.960 . S
C1024 C1023 1.524 . S
C1025 C1022 1.403 1_545 S
C1025 C1026 1.392 . S
C1025 C1029 1.495 . S
C1026 C1025 1.392 . S
C1026 C1027 1.385 . S
C1026 C1028 1.478 . S
C1027 H1021 0.930 . S
C1027 C1023 1.400 1_545 S
C1027 C1026 1.385 . S
C1028 C1026 1.478 . S
C1028 C1030 1.381 . S
C1028 C1034 1.383 . S
C1029 C1025 1.495 . S
C1029 H1035 0.959 . S
C1029 H1036 0.961 . S
C1029 H1037 0.960 . S
C1030 C1028 1.381 . S
C1030 C1031 1.394 . S
C1030 H1038 0.930 . S
C1031 C1030 1.394 . S
C1031 C1032 1.383 . S
C1031 H1039 0.929 . S
C1032 C1031 1.383 . S
C1032 C1033 1.377 . S
C1033 H1017 0.930 . S
C1033 C1032 1.377 . S
C1033 C1034 1.379 . S
C1034 H1018 0.931 . S
C1034 C1028 1.383 . S
C1034 C1033 1.379 . S
H1035 C1029 0.959 . S
H1036 C1029 0.961 . S
H1037 C1029 0.960 . S
H1038 C1030 0.930 . S
H1039 C1031 0.929 . S
H1040 C1048 0.929 . S
H1041 C1050 0.930 . S
H1042 C1052 0.930 . S
H1043 C1055 0.929 . S
H1044 C1058 0.930 . S
H1045 C1060 0.960 . S
H1046 C1060 0.960 . S
H1047 C1060 0.960 . S
C1048 H1040 0.929 . S
C1048 C1049 1.377 . S
C1048 C1050 1.384 . S
C1049 C1048 1.377 . S
C1049 C1055 1.390 . S
C1050 H1041 0.930 . S
C1050 C1048 1.384 . S
C1050 C1051 1.372 . S
C1051 C1050 1.372 . S
C1051 C1052 1.400 . S
C1051 C1056 1.490 . S
C1052 H1042 0.930 . S
C1052 C1051 1.400 . S
C1052 C1055 1.386 . S
H1053 C1069 0.930 . S
H1054 C1070 0.931 . S
C1055 H1043 0.929 . S
C1055 C1049 1.390 . S
C1055 C1052 1.386 . S
C1056 C1051 1.490 . S
C1056 C1058 1.395 . S
C1056 C1059 1.403 . S
H1057 C1063 0.930 . S
C1058 H1044 0.930 . S
C1058 C1056 1.395 . S
C1058 C1061 1.403 . S
C1059 C1056 1.403 . S
C1059 C1060 1.524 . S
C1059 C1063 1.400 . S
C1060 H1045 0.960 . S
C1060 H1046 0.960 . S
C1060 H1047 0.960 . S
C1060 C1059 1.524 . S
C1061 C1058 1.403 . S
C1061 C1062 1.392 . S
C1061 C1065 1.495 . S
C1062 C1061 1.392 . S
C1062 C1063 1.385 . S
C1062 C1064 1.478 . S
C1063 H1057 0.930 . S
C1063 C1059 1.400 . S
C1063 C1062 1.385 . S
C1064 C1062 1.478 . S
C1064 C1066 1.381 . S
C1064 C1070 1.383 . S
C1065 C1061 1.495 . S
C1065 H1071 0.959 . S
C1065 H1072 0.961 . S
C1065 H1073 0.960 . S
C1066 C1064 1.381 . S
C1066 C1067 1.394 . S
C1066 H1074 0.930 . S
C1067 C1066 1.394 . S
C1067 C1068 1.383 . S
C1067 H1075 0.929 . S
C1068 C1067 1.383 . S
C1068 C1069 1.377 . S
C1069 H1053 0.930 . S
C1069 C1068 1.377 . S
C1069 C1070 1.379 . S
C1070 H1054 0.931 . S
C1070 C1064 1.383 . S
C1070 C1069 1.379 . S
H1071 C1065 0.959 . S
H1072 C1065 0.961 . S
H1073 C1065 0.960 . S
H1074 C1066 0.930 . S
H1075 C1067 0.929 . S
H1076 C1084 0.929 . S
H1077 C1086 0.930 . S
H1078 C1088 0.930 . S
H1079 C1091 0.929 . S
H1080 C1094 0.930 . S
H1081 C1096 0.960 . S
H1082 C1096 0.960 . S
H1083 C1096 0.960 . S
C1084 H1076 0.929 . S
C1084 C1085 1.377 . S
C1084 C1086 1.384 . S
C1085 C1084 1.377 . S
C1085 C1091 1.390 . S
C1086 H1077 0.930 . S
C1086 C1084 1.384 . S
C1086 C1087 1.372 . S
C1087 C1086 1.372 . S
C1087 C1088 1.400 . S
C1087 C1092 1.490 . S
C1088 H1078 0.930 . S
C1088 C1087 1.400 . S
C1088 C1091 1.386 . S
H1089 C1105 0.930 . S
H1090 C1106 0.931 . S
C1091 H1079 0.929 . S
C1091 C1085 1.390 . S
C1091 C1088 1.386 . S
C1092 C1087 1.490 . S
C1092 C1094 1.395 . S
C1092 C1095 1.403 . S
H1093 C1099 0.930 . S
C1094 H1080 0.930 . S
C1094 C1092 1.395 . S
C1094 C1097 1.403 . S
C1095 C1092 1.403 . S
C1095 C1096 1.524 . S
C1095 C1099 1.400 . S
C1096 H1081 0.960 . S
C1096 H1082 0.960 . S
C1096 H1083 0.960 . S
C1096 C1095 1.524 . S
C1097 C1094 1.403 . S
C1097 C1098 1.392 . S
C1097 C1101 1.495 . S
C1098 C1097 1.392 . S
C1098 C1099 1.385 . S
C1098 C1100 1.478 . S
C1099 H1093 0.930 . S
C1099 C1095 1.400 . S
C1099 C1098 1.385 . S
C1100 C1098 1.478 . S
C1100 C1102 1.381 . S
C1100 C1106 1.383 . S
C1101 C1097 1.495 . S
C1101 H1107 0.959 . S
C1101 H1108 0.961 . S
C1101 H1109 0.960 . S
C1102 C1100 1.381 . S
C1102 C1103 1.394 . S
C1102 H1110 0.930 . S
C1103 C1102 1.394 . S
C1103 C1104 1.383 . S
C1103 H1111 0.929 . S
C1104 C1103 1.383 . S
C1104 C1105 1.377 . S
C1105 H1089 0.930 . S
C1105 C1104 1.377 . S
C1105 C1106 1.379 . S
C1106 H1090 0.931 . S
C1106 C1100 1.383 . S
C1106 C1105 1.379 . S
H1107 C1101 0.959 . S
H1108 C1101 0.961 . S
H1109 C1101 0.960 . S
H1110 C1102 0.930 . S
H1111 C1103 0.929 . S
H1112 C1120 0.929 . S
H1113 C1122 0.930 . S
H1114 C1124 0.930 1_554 S
H1115 C1127 0.929 . S
H1116 C1130 0.930 . S
H1117 C1132 0.960 . S
H1118 C1132 0.960 . S
H1119 C1132 0.960 . S
C1120 H1112 0.929 . S
C1120 C1121 1.377 . S
C1120 C1122 1.384 . S
C1121 C1120 1.377 . S
C1121 C1127 1.390 . S
C1122 H1113 0.930 . S
C1122 C1120 1.384 . S
C1122 C1123 1.372 . S
C1123 C1122 1.372 . S
C1123 C1124 1.400 . S
C1123 C1128 1.490 . S
C1124 H1114 0.930 1_556 S
C1124 C1123 1.400 . S
C1124 C1127 1.386 . S
H1125 C1141 0.930 . S
H1126 C1142 0.931 . S
C1127 H1115 0.929 . S
C1127 C1121 1.390 . S
C1127 C1124 1.386 . S
C1128 C1123 1.490 . S
C1128 C1130 1.395 . S
C1128 C1131 1.403 1_556 S
H1129 C1135 0.930 . S
C1130 H1116 0.930 . S
C1130 C1128 1.395 . S
C1130 C1133 1.403 . S
C1131 C1128 1.403 1_554 S
C1131 C1132 1.524 . S
C1131 C1135 1.400 . S
C1132 H1117 0.960 . S
C1132 H1118 0.960 . S
C1132 H1119 0.960 . S
C1132 C1131 1.524 . S
C1133 C1130 1.403 . S
C1133 C1134 1.392 1_556 S
C1133 C1137 1.495 . S
C1134 C1133 1.392 1_554 S
C1134 C1135 1.385 . S
C1134 C1136 1.478 . S
C1135 H1129 0.930 . S
C1135 C1131 1.400 . S
C1135 C1134 1.385 . S
C1136 C1134 1.478 . S
C1136 C1138 1.381 . S
C1136 C1142 1.383 . S
C1137 C1133 1.495 . S
C1137 H1143 0.959 . S
C1137 H1144 0.961 . S
C1137 H1145 0.960 . S
C1138 C1136 1.381 . S
C1138 C1139 1.394 . S
C1138 H1146 0.922 1_554 S
C1139 C1138 1.394 . S
C1139 C1140 1.383 . S
C1139 H1147 0.929 . S
C1140 C1139 1.383 . S
C1140 C1141 1.377 . S
C1141 H1125 0.930 . S
C1141 C1140 1.377 . S
C1141 C1142 1.379 . S
C1142 H1126 0.931 . S
C1142 C1136 1.383 . S
C1142 C1141 1.379 . S
H1143 C1137 0.959 . S
H1144 C1137 0.961 . S
H1145 C1137 0.960 . S
H1146 C1138 0.922 1_556 S
H1147 C1139 0.929 . S
H1148 C1156 0.929 . S
H1149 C1158 0.930 . S
H1150 C1160 0.930 . S
H1151 C1163 0.929 . S
H1152 C1166 0.930 . S
H1153 C1168 0.960 . S
H1154 C1168 0.960 . S
H1155 C1168 0.960 . S
C1156 H1148 0.929 . S
C1156 C1157 1.377 . S
C1156 C1158 1.384 . S
C1157 C1156 1.377 . S
C1157 C1163 1.390 . S
C1158 H1149 0.930 . S
C1158 C1156 1.384 . S
C1158 C1159 1.372 . S
C1159 C1158 1.372 . S
C1159 C1160 1.400 . S
C1159 C1164 1.490 . S
C1160 H1150 0.930 . S
C1160 C1159 1.400 . S
C1160 C1163 1.386 . S
H1161 C1177 0.930 . S
H1162 C1178 0.931 . S
C1163 H1151 0.929 . S
C1163 C1157 1.390 . S
C1163 C1160 1.386 . S
C1164 C1159 1.490 . S
C1164 C1166 1.395 . S
C1164 C1167 1.403 . S
H1165 C1171 0.930 . S
C1166 H1152 0.930 . S
C1166 C1164 1.395 . S
C1166 C1169 1.403 . S
C1167 C1164 1.403 . S
C1167 C1168 1.524 . S
C1167 C1171 1.400 . S
C1168 H1153 0.960 . S
C1168 H1154 0.960 . S
C1168 H1155 0.960 . S
C1168 C1167 1.524 . S
C1169 C1166 1.403 . S
C1169 C1170 1.392 . S
C1169 C1173 1.495 . S
C1170 C1169 1.392 . S
C1170 C1171 1.385 . S
C1170 C1172 1.478 . S
C1171 H1165 0.930 . S
C1171 C1167 1.400 . S
C1171 C1170 1.385 . S
C1172 C1170 1.478 . S
C1172 C1174 1.381 . S
C1172 C1178 1.383 . S
C1173 C1169 1.495 . S
C1173 H1179 0.959 . S
C1173 H1180 0.961 . S
C1173 H1181 0.960 . S
C1174 C1172 1.381 . S
C1174 C1175 1.394 . S
C1174 H1182 0.930 . S
C1175 C1174 1.394 . S
C1175 C1176 1.383 . S
C1175 H1183 0.929 . S
C1176 C1175 1.383 . S
C1176 C1177 1.377 . S
C1177 H1161 0.930 . S
C1177 C1176 1.377 . S
C1177 C1178 1.379 . S
C1178 H1162 0.931 . S
C1178 C1172 1.383 . S
C1178 C1177 1.379 . S
H1179 C1173 0.959 . S
H1180 C1173 0.961 . S
H1181 C1173 0.960 . S
H1182 C1174 0.930 . S
H1183 C1175 0.929 . S
H1184 C1192 0.929 . S
H1185 C1194 0.930 . S
H1186 C1196 0.930 . S
H1187 C1199 0.929 . S
H1188 C1202 0.930 . S
H1189 C1204 0.960 . S
H1190 C1204 0.960 . S
H1191 C1204 0.960 . S
C1192 H1184 0.929 . S
C1192 C1193 1.377 . S
C1192 C1194 1.384 . S
C1193 C1192 1.377 . S
C1193 C1199 1.390 . S
C1194 H1185 0.930 . S
C1194 C1192 1.384 . S
C1194 C1195 1.372 . S
C1195 C1194 1.372 . S
C1195 C1196 1.400 . S
C1195 C1200 1.490 . S
C1196 H1186 0.930 . S
C1196 C1195 1.400 . S
C1196 C1199 1.386 . S
H1197 C1213 0.930 . S
H1198 C1214 0.931 . S
C1199 H1187 0.929 . S
C1199 C1193 1.390 . S
C1199 C1196 1.386 . S
C1200 C1195 1.490 . S
C1200 C1202 1.395 . S
C1200 C1203 1.403 . S
H1201 C1207 0.930 . S
C1202 H1188 0.930 . S
C1202 C1200 1.395 . S
C1202 C1205 1.403 . S
C1203 C1200 1.403 . S
C1203 C1204 1.524 . S
C1203 C1207 1.400 . S
C1204 H1189 0.960 . S
C1204 H1190 0.960 . S
C1204 H1191 0.960 . S
C1204 C1203 1.524 . S
C1205 C1202 1.403 . S
C1205 C1206 1.392 . S
C1205 C1209 1.495 . S
C1206 C1205 1.392 . S
C1206 C1207 1.385 . S
C1206 C1208 1.478 . S
C1207 H1201 0.930 . S
C1207 C1203 1.400 . S
C1207 C1206 1.385 . S
C1208 C1206 1.478 . S
C1208 C1210 1.381 . S
C1208 C1214 1.383 . S
C1209 C1205 1.495 . S
C1209 H1215 0.959 . S
C1209 H1216 0.961 . S
C1209 H1217 0.960 . S
C1210 C1208 1.381 . S
C1210 C1211 1.394 . S
C1210 H1218 0.930 . S
C1211 C1210 1.394 . S
C1211 C1212 1.383 . S
C1211 H1219 0.929 . S
C1212 C1211 1.383 . S
C1212 C1213 1.377 . S
C1213 H1197 0.930 . S
C1213 C1212 1.377 . S
C1213 C1214 1.379 . S
C1214 H1198 0.931 . S
C1214 C1208 1.383 . S
C1214 C1213 1.379 . S
H1215 C1209 0.959 . S
H1216 C1209 0.961 . S
H1217 C1209 0.960 . S
H1218 C1210 0.930 . S
H1219 C1211 0.929 . S
H1220 C1228 0.929 . S
H1221 C1230 0.930 . S
H1222 C1232 0.930 . S
H1223 C1235 0.929 . S
H1224 C1238 0.930 . S
H1225 C1240 0.960 . S
H1226 C1240 0.960 . S
H1227 C1240 0.960 . S
C1228 H1220 0.929 . S
C1228 C1229 1.377 . S
C1228 C1230 1.384 . S
C1229 C1228 1.377 . S
C1229 C1235 1.390 . S
C1230 H1221 0.930 . S
C1230 C1228 1.384 . S
C1230 C1231 1.372 . S
C1231 C1230 1.372 . S
C1231 C1232 1.400 . S
C1231 C1236 1.490 . S
C1232 H1222 0.930 . S
C1232 C1231 1.400 . S
C1232 C1235 1.386 . S
H1233 C1249 0.930 . S
H1234 C1250 0.931 . S
C1235 H1223 0.929 . S
C1235 C1229 1.390 . S
C1235 C1232 1.386 . S
C1236 C1231 1.490 . S
C1236 C1238 1.395 . S
C1236 C1239 1.403 . S
H1237 C1243 0.930 . S
C1238 H1224 0.930 . S
C1238 C1236 1.395 . S
C1238 C1241 1.403 . S
C1239 C1236 1.403 . S
C1239 C1240 1.524 . S
C1239 C1243 1.400 . S
C1240 H1225 0.960 . S
C1240 H1226 0.960 . S
C1240 H1227 0.960 . S
C1240 C1239 1.524 . S
C1241 C1238 1.403 . S
C1241 C1242 1.392 . S
C1241 C1245 1.495 . S
C1242 C1241 1.392 . S
C1242 C1243 1.385 . S
C1242 C1244 1.478 . S
C1243 H1237 0.930 . S
C1243 C1239 1.400 . S
C1243 C1242 1.385 . S
C1244 C1242 1.478 . S
C1244 C1246 1.381 . S
C1244 C1250 1.383 . S
C1245 C1241 1.495 . S
C1245 H1251 0.959 . S
C1245 H1252 0.961 . S
C1245 H1253 0.960 . S
C1246 C1244 1.381 . S
C1246 C1247 1.394 . S
C1246 H1254 0.930 . S
C1247 C1246 1.394 . S
C1247 C1248 1.383 . S
C1247 H1255 0.929 . S
C1248 C1247 1.383 . S
C1248 C1249 1.377 . S
C1249 H1233 0.930 . S
C1249 C1248 1.377 . S
C1249 C1250 1.379 . S
C1250 H1234 0.931 . S
C1250 C1244 1.383 . S
C1250 C1249 1.379 . S
H1251 C1245 0.959 . S
H1252 C1245 0.961 . S
H1253 C1245 0.960 . S
H1254 C1246 0.930 . S
H1255 C1247 0.929 . S
H1256 C1264 0.929 . S
H1257 C1266 0.930 . S
H1258 C1268 0.930 . S
H1259 C1271 0.929 . S
H1260 C1274 0.930 . S
H1261 C1276 0.960 . S
H1262 C1276 0.960 . S
H1263 C1276 0.960 1_556 S
C1264 H1256 0.929 . S
C1264 C1265 1.377 1_554 S
C1264 C1266 1.384 . S
C1265 C1264 1.377 1_556 S
C1265 C1271 1.390 . S
C1266 H1257 0.930 . S
C1266 C1264 1.384 . S
C1266 C1267 1.372 1_554 S
C1267 C1266 1.372 1_556 S
C1267 C1268 1.400 . S
C1267 C1272 1.490 1_556 S
C1268 H1258 0.930 . S
C1268 C1267 1.400 . S
C1268 C1271 1.386 . S
H1269 C1285 0.930 . S
H1270 C1286 0.931 . S
C1271 H1259 0.929 . S
C1271 C1265 1.390 . S
C1271 C1268 1.386 . S
C1272 C1267 1.490 1_554 S
C1272 C1274 1.395 . S
C1272 C1275 1.403 . S
H1273 C1279 0.930 . S
C1274 H1260 0.930 . S
C1274 C1272 1.395 . S
C1274 C1277 1.403 . S
C1275 C1272 1.403 . S
C1275 C1276 1.524 . S
C1275 C1279 1.400 . S
C1276 H1261 0.960 . S
C1276 H1262 0.960 . S
C1276 H1263 0.960 1_554 S
C1276 C1275 1.524 . S
C1277 C1274 1.403 . S
C1277 C1278 1.392 . S
C1277 C1281 1.495 . S
C1278 C1277 1.392 . S
C1278 C1279 1.385 . S
C1278 C1280 1.478 . S
C1279 H1273 0.930 . S
C1279 C1275 1.400 . S
C1279 C1278 1.385 . S
C1280 C1278 1.478 . S
C1280 C1282 1.381 . S
C1280 C1286 1.383 . S
C1281 C1277 1.495 . S
C1281 H1287 0.959 . S
C1281 H1288 0.961 . S
C1281 H1289 0.960 . S
C1282 C1280 1.381 . S
C1282 C1283 1.394 . S
C1282 H1290 0.930 . S
C1283 C1282 1.394 . S
C1283 C1284 1.383 . S
C1283 H1291 0.929 . S
C1284 C1283 1.383 . S
C1284 C1285 1.377 . S
C1285 H1269 0.930 . S
C1285 C1284 1.377 . S
C1285 C1286 1.379 . S
C1286 H1270 0.931 . S
C1286 C1280 1.383 . S
C1286 C1285 1.379 . S
H1287 C1281 0.959 . S
H1288 C1281 0.961 . S
H1289 C1281 0.960 . S
H1290 C1282 0.930 . S
H1291 C1283 0.929 . S
H1292 C1300 0.929 . S
H1293 C1302 0.930 . S
H1294 C1304 0.930 . S
H1295 C1307 0.929 . S
H1296 C1310 0.930 . S
H1297 C1312 0.960 . S
H1298 C1312 0.960 . S
H1299 C1312 0.960 . S
C1300 H1292 0.929 . S
C1300 C1301 1.377 . S
C1300 C1302 1.384 . S
C1301 C1300 1.377 . S
C1301 C1307 1.390 . S
C1302 H1293 0.930 . S
C1302 C1300 1.384 . S
C1302 C1303 1.372 . S
C1303 C1302 1.372 . S
C1303 C1304 1.400 . S
C1303 C1308 1.490 . S
C1304 H1294 0.930 . S
C1304 C1303 1.400 . S
C1304 C1307 1.386 . S
H1305 C1321 0.930 . S
H1306 C1322 0.931 . S
C1307 H1295 0.929 . S
C1307 C1301 1.390 . S
C1307 C1304 1.386 . S
C1308 C1303 1.490 . S
C1308 C1310 1.395 . S
C1308 C1311 1.403 . S
H1309 C1315 0.930 . S
C1310 H1296 0.930 . S
C1310 C1308 1.395 . S
C1310 C1313 1.403 . S
C1311 C1308 1.403 . S
C1311 C1312 1.524 . S
C1311 C1315 1.400 . S
C1312 H1297 0.960 . S
C1312 H1298 0.960 . S
C1312 H1299 0.960 . S
C1312 C1311 1.524 . S
C1313 C1310 1.403 . S
C1313 C1314 1.392 . S
C1313 C1317 1.495 . S
C1314 C1313 1.392 . S
C1314 C1315 1.385 . S
C1314 C1316 1.478 . S
C1315 H1309 0.930 . S
C1315 C1311 1.400 . S
C1315 C1314 1.385 . S
C1316 C1314 1.478 . S
C1316 C1318 1.381 . S
C1316 C1322 1.383 . S
C1317 C1313 1.495 . S
C1317 H1323 0.959 . S
C1317 H1324 0.961 . S
C1317 H1325 0.960 . S
C1318 C1316 1.381 . S
C1318 C1319 1.394 . S
C1318 H1326 0.930 . S
C1319 C1318 1.394 . S
C1319 C1320 1.383 . S
C1319 H1327 0.929 . S
C1320 C1319 1.383 . S
C1320 C1321 1.377 . S
C1321 H1305 0.930 . S
C1321 C1320 1.377 . S
C1321 C1322 1.379 . S
C1322 H1306 0.931 . S
C1322 C1316 1.383 . S
C1322 C1321 1.379 . S
H1323 C1317 0.959 . S
H1324 C1317 0.961 . S
H1325 C1317 0.960 . S
H1326 C1318 0.930 . S
H1327 C1319 0.929 . S
H1328 C1336 0.929 . S
H1329 C1338 0.930 . S
H1330 C1340 0.930 . S
H1331 C1343 0.929 . S
H1332 C1346 0.930 . S
H1333 C1348 0.960 . S
H1334 C1348 0.960 . S
H1335 C1348 0.960 . S
C1336 H1328 0.929 . S
C1336 C1337 1.377 . S
C1336 C1338 1.384 . S
C1337 C1336 1.377 . S
C1337 C1343 1.390 . S
C1338 H1329 0.930 . S
C1338 C1336 1.384 . S
C1338 C1339 1.372 . S
C1339 C1338 1.372 . S
C1339 C1340 1.400 . S
C1339 C1344 1.490 . S
C1340 H1330 0.930 . S
C1340 C1339 1.400 . S
C1340 C1343 1.386 . S
H1341 C1357 0.930 . S
H1342 C1358 0.931 . S
C1343 H1331 0.929 . S
C1343 C1337 1.390 . S
C1343 C1340 1.386 . S
C1344 C1339 1.490 . S
C1344 C1346 1.395 . S
C1344 C1347 1.403 . S
H1345 C1351 0.930 . S
C1346 H1332 0.930 . S
C1346 C1344 1.395 . S
C1346 C1349 1.403 . S
C1347 C1344 1.403 . S
C1347 C1348 1.524 . S
C1347 C1351 1.400 . S
C1348 H1333 0.960 . S
C1348 H1334 0.960 . S
C1348 H1335 0.960 . S
C1348 C1347 1.524 . S
C1349 C1346 1.403 . S
C1349 C1350 1.392 . S
C1349 C1353 1.495 . S
C1350 C1349 1.392 . S
C1350 C1351 1.385 . S
C1350 C1352 1.478 . S
C1351 H1345 0.930 . S
C1351 C1347 1.400 . S
C1351 C1350 1.385 . S
C1352 C1350 1.478 . S
C1352 C1354 1.381 . S
C1352 C1358 1.383 . S
C1353 C1349 1.495 . S
C1353 H1359 0.959 . S
C1353 H1360 0.961 . S
C1353 H1361 0.960 . S
C1354 C1352 1.381 . S
C1354 C1355 1.394 . S
C1354 H1362 0.930 . S
C1355 C1354 1.394 . S
C1355 C1356 1.383 . S
C1355 H1363 0.929 . S
C1356 C1355 1.383 . S
C1356 C1357 1.377 . S
C1357 H1341 0.930 . S
C1357 C1356 1.377 . S
C1357 C1358 1.379 . S
C1358 H1342 0.931 . S
C1358 C1352 1.383 . S
C1358 C1357 1.379 . S
H1359 C1353 0.959 . S
H1360 C1353 0.961 . S
H1361 C1353 0.960 . S
H1362 C1354 0.930 . S
H1363 C1355 0.929 . S
H1364 C1372 0.929 . S
H1365 C1374 0.930 . S
H1366 C1376 0.930 . S
H1367 C1379 0.929 . S
H1368 C1382 0.930 . S
H1369 C1384 0.960 . S
H1370 C1384 0.960 . S
H1371 C1384 0.960 . S
C1372 H1364 0.929 . S
C1372 C1373 1.377 . S
C1372 C1374 1.384 . S
C1373 C1372 1.377 . S
C1373 C1379 1.390 . S
C1374 H1365 0.930 . S
C1374 C1372 1.384 . S
C1374 C1375 1.372 . S
C1375 C1374 1.372 . S
C1375 C1376 1.400 . S
C1375 C1380 1.490 . S
C1376 H1366 0.930 . S
C1376 C1375 1.400 . S
C1376 C1379 1.386 . S
H1377 C1393 0.930 . S
H1378 C1394 0.931 . S
C1379 H1367 0.929 . S
C1379 C1373 1.390 . S
C1379 C1376 1.386 . S
C1380 C1375 1.490 . S
C1380 C1382 1.395 . S
C1380 C1383 1.410 . S
H1381 C1387 0.930 . S
C1382 H1368 0.930 . S
C1382 C1380 1.395 . S
C1382 C1385 1.403 . S
C1383 C1380 1.410 . S
C1383 C1384 1.521 1_455 S
C1383 C1387 1.395 1_455 S
C1384 H1369 0.960 . S
C1384 H1370 0.960 . S
C1384 H1371 0.960 . S
C1384 C1383 1.521 1_655 S
C1385 C1382 1.403 . S
C1385 C1386 1.392 1_455 S
C1385 C1389 1.495 . S
C1386 C1385 1.392 1_655 S
C1386 C1387 1.385 . S
C1386 C1388 1.478 . S
C1387 H1381 0.930 . S
C1387 C1383 1.395 1_655 S
C1387 C1386 1.385 . S
C1388 C1386 1.478 . S
C1388 C1390 1.381 . S
C1388 C1394 1.383 . S
C1389 C1385 1.495 . S
C1389 H1395 0.959 . S
C1389 H1396 0.961 . S
C1389 H1397 0.960 . S
C1390 C1388 1.381 . S
C1390 C1391 1.394 . S
C1390 H1398 0.930 . S
C1391 C1390 1.394 . S
C1391 C1392 1.383 . S
C1391 H1399 0.929 . S
C1392 C1391 1.383 . S
C1392 C1393 1.377 . S
C1393 H1377 0.930 . S
C1393 C1392 1.377 . S
C1393 C1394 1.379 . S
C1394 H1378 0.931 . S
C1394 C1388 1.383 . S
C1394 C1393 1.379 . S
H1395 C1389 0.959 . S
H1396 C1389 0.961 . S
H1397 C1389 0.960 . S
H1398 C1390 0.930 . S
H1399 C1391 0.929 . S
H1400 C1408 0.929 . S
H1401 C1410 0.930 . S
H1402 C1412 0.930 . S
H1403 C1415 0.929 . S
H1404 C1418 0.930 . S
H1405 C1420 0.960 . S
H1406 C1420 0.960 . S
H1407 C1420 0.960 . S
C1408 H1400 0.929 . S
C1408 C1409 1.377 . S
C1408 C1410 1.384 . S
C1409 C1408 1.377 . S
C1409 C1415 1.390 . S
C1410 H1401 0.930 . S
C1410 C1408 1.384 . S
C1410 C1411 1.372 . S
C1411 C1410 1.372 . S
C1411 C1412 1.400 . S
C1411 C1416 1.490 . S
C1412 H1402 0.930 . S
C1412 C1411 1.400 . S
C1412 C1415 1.386 . S
H1413 C1429 0.930 . S
H1414 C1430 0.931 . S
C1415 H1403 0.929 . S
C1415 C1409 1.390 . S
C1415 C1412 1.386 . S
C1416 C1411 1.490 . S
C1416 C1418 1.395 . S
C1416 C1419 1.403 . S
H1417 C1423 0.930 . S
C1418 H1404 0.930 . S
C1418 C1416 1.395 . S
C1418 C1421 1.403 . S
C1419 C1416 1.403 . S
C1419 C1420 1.524 . S
C1419 C1423 1.400 . S
C1420 H1405 0.960 . S
C1420 H1406 0.960 . S
C1420 H1407 0.960 . S
C1420 C1419 1.524 . S
C1421 C1418 1.403 . S
C1421 C1422 1.392 . S
C1421 C1425 1.495 . S
C1422 C1421 1.392 . S
C1422 C1423 1.385 . S
C1422 C1424 1.478 . S
C1423 H1417 0.930 . S
C1423 C1419 1.400 . S
C1423 C1422 1.385 . S
C1424 C1422 1.478 . S
C1424 C1426 1.381 . S
C1424 C1430 1.383 . S
C1425 C1421 1.495 . S
C1425 H1431 0.959 . S
C1425 H1432 0.961 . S
C1425 H1433 0.960 . S
C1426 C1424 1.381 . S
C1426 C1427 1.394 . S
C1426 H1434 0.930 . S
C1427 C1426 1.394 . S
C1427 C1428 1.383 . S
C1427 H1435 0.929 . S
C1428 C1427 1.383 . S
C1428 C1429 1.377 . S
C1429 H1413 0.930 . S
C1429 C1428 1.377 . S
C1429 C1430 1.379 . S
C1430 H1414 0.931 . S
C1430 C1424 1.383 . S
C1430 C1429 1.379 . S
H1431 C1425 0.959 . S
H1432 C1425 0.961 . S
H1433 C1425 0.960 . S
H1434 C1426 0.930 . S
H1435 C1427 0.929 . S
H1436 C1444 0.929 . S
H1437 C1446 0.930 . S
H1438 C1448 0.930 . S
H1439 C1451 0.929 . S
H1440 C1454 0.930 . S
H1441 C1456 0.960 . S
H1442 C1456 0.960 . S
H1443 C1456 0.960 . S
C1444 H1436 0.929 . S
C1444 C1445 1.377 . S
C1444 C1446 1.384 . S
C1445 C1444 1.377 . S
C1445 C1451 1.390 . S
C1446 H1437 0.930 . S
C1446 C1444 1.384 . S
C1446 C1447 1.372 . S
C1447 C1446 1.372 . S
C1447 C1448 1.400 . S
C1447 C1452 1.490 . S
C1448 H1438 0.930 . S
C1448 C1447 1.400 . S
C1448 C1451 1.386 . S
H1449 C1465 0.930 . S
H1450 C1466 0.931 . S
C1451 H1439 0.929 . S
C1451 C1445 1.390 . S
C1451 C1448 1.386 . S
C1452 C1447 1.490 . S
C1452 C1454 1.395 . S
C1452 C1455 1.403 . S
H1453 C1459 0.930 . S
C1454 H1440 0.930 . S
C1454 C1452 1.395 . S
C1454 C1457 1.403 . S
C1455 C1452 1.403 . S
C1455 C1456 1.524 . S
C1455 C1459 1.400 . S
C1456 H1441 0.960 . S
C1456 H1442 0.960 . S
C1456 H1443 0.960 . S
C1456 C1455 1.524 . S
C1457 C1454 1.403 . S
C1457 C1458 1.392 . S
C1457 C1461 1.495 . S
C1458 C1457 1.392 . S
C1458 C1459 1.385 . S
C1458 C1460 1.478 . S
C1459 H1453 0.930 . S
C1459 C1455 1.400 . S
C1459 C1458 1.385 . S
C1460 C1458 1.478 . S
C1460 C1462 1.381 . S
C1460 C1466 1.383 . S
C1461 C1457 1.495 . S
C1461 H1467 0.959 . S
C1461 H1468 0.961 . S
C1461 H1469 0.960 . S
C1462 C1460 1.381 . S
C1462 C1463 1.394 . S
C1462 H1470 0.930 . S
C1463 C1462 1.394 . S
C1463 C1464 1.383 . S
C1463 H1471 0.929 . S
C1464 C1463 1.383 . S
C1464 C1465 1.377 . S
C1465 H1449 0.930 . S
C1465 C1464 1.377 . S
C1465 C1466 1.379 . S
C1466 H1450 0.931 . S
C1466 C1460 1.383 . S
C1466 C1465 1.379 . S
H1467 C1461 0.959 . S
H1468 C1461 0.961 . S
H1469 C1461 0.960 . S
H1470 C1462 0.930 . S
H1471 C1463 0.929 . S
H1472 C1480 0.929 . S
H1473 C1482 0.930 . S
H1474 C1484 0.930 . S
H1475 C1487 0.929 . S
H1476 C1490 0.930 . S
H1477 C1492 0.960 . S
H1478 C1492 0.960 . S
H1479 C1492 0.960 . S
C1480 H1472 0.929 . S
C1480 C1481 1.377 . S
C1480 C1482 1.384 . S
C1481 C1480 1.377 . S
C1481 C1487 1.390 . S
C1482 H1473 0.930 . S
C1482 C1480 1.384 . S
C1482 C1483 1.372 . S
C1483 C1482 1.372 . S
C1483 C1484 1.400 . S
C1483 C1488 1.490 . S
C1484 H1474 0.930 . S
C1484 C1483 1.400 . S
C1484 C1487 1.386 . S
H1485 C1501 0.930 . S
H1486 C1502 0.931 . S
C1487 H1475 0.929 . S
C1487 C1481 1.390 . S
C1487 C1484 1.386 . S
C1488 C1483 1.490 . S
C1488 C1490 1.395 . S
C1488 C1491 1.403 . S
H1489 C1495 0.930 . S
C1490 H1476 0.930 . S
C1490 C1488 1.395 . S
C1490 C1493 1.403 . S
C1491 C1488 1.403 . S
C1491 C1492 1.524 . S
C1491 C1495 1.400 . S
C1492 H1477 0.960 . S
C1492 H1478 0.960 . S
C1492 H1479 0.960 . S
C1492 C1491 1.524 . S
C1493 C1490 1.403 . S
C1493 C1494 1.392 . S
C1493 C1497 1.495 . S
C1494 C1493 1.392 . S
C1494 C1495 1.385 . S
C1494 C1496 1.478 . S
C1495 H1489 0.930 . S
C1495 C1491 1.400 . S
C1495 C1494 1.385 . S
C1496 C1494 1.478 . S
C1496 C1498 1.381 . S
C1496 C1502 1.383 . S
C1497 C1493 1.495 . S
C1497 H1503 0.959 . S
C1497 H1504 0.961 . S
C1497 H1505 0.960 . S
C1498 C1496 1.381 . S
C1498 C1499 1.394 . S
C1498 H1506 0.930 . S
C1499 C1498 1.394 . S
C1499 C1500 1.383 . S
C1499 H1507 0.929 . S
C1500 C1499 1.383 . S
C1500 C1501 1.377 . S
C1501 H1485 0.930 . S
C1501 C1500 1.377 . S
C1501 C1502 1.379 . S
C1502 H1486 0.931 . S
C1502 C1496 1.383 . S
C1502 C1501 1.379 . S
H1503 C1497 0.959 . S
H1504 C1497 0.961 . S
H1505 C1497 0.960 . S
H1506 C1498 0.930 . S
H1507 C1499 0.929 . S
H1508 C1516 0.929 . S
H1509 C1518 0.930 . S
H1510 C1520 0.930 . S
H1511 C1523 0.929 . S
H1512 C1526 0.930 . S
H1513 C1528 0.960 . S
H1514 C1528 0.960 . S
H1515 C1528 0.960 . S
C1516 H1508 0.929 . S
C1516 C1517 1.377 1_556 S
C1516 C1518 1.384 . S
C1517 C1516 1.377 1_554 S
C1517 C1523 1.390 . S
C1518 H1509 0.930 . S
C1518 C1516 1.384 . S
C1518 C1519 1.372 . S
C1519 C1518 1.372 . S
C1519 C1520 1.400 1_556 S
C1519 C1524 1.490 . S
C1520 H1510 0.930 . S
C1520 C1519 1.400 1_554 S
C1520 C1523 1.386 . S
H1521 C1537 0.930 . S
H1522 C1538 0.931 . S
C1523 H1511 0.929 . S
C1523 C1517 1.390 . S
C1523 C1520 1.386 . S
C1524 C1519 1.490 . S
C1524 C1526 1.395 . S
C1524 C1527 1.403 . S
H1525 C1531 0.930 . S
C1526 H1512 0.930 . S
C1526 C1524 1.395 . S
C1526 C1529 1.403 . S
C1527 C1524 1.403 . S
C1527 C1528 1.524 . S
C1527 C1531 1.400 . S
C1528 H1513 0.960 . S
C1528 H1514 0.960 . S
C1528 H1515 0.960 . S
C1528 C1527 1.524 . S
C1529 C1526 1.403 . S
C1529 C1530 1.392 . S
C1529 C1533 1.495 . S
C1530 C1529 1.392 . S
C1530 C1531 1.385 . S
C1530 C1532 1.478 . S
C1531 H1525 0.930 . S
C1531 C1527 1.400 . S
C1531 C1530 1.385 . S
C1532 C1530 1.478 . S
C1532 C1534 1.381 . S
C1532 C1538 1.383 . S
C1533 C1529 1.495 . S
C1533 H1539 0.959 . S
C1533 H1540 0.961 . S
C1533 H1541 0.960 . S
C1534 C1532 1.381 . S
C1534 C1535 1.394 . S
C1534 H1542 0.930 . S
C1535 C1534 1.394 . S
C1535 C1536 1.383 . S
C1535 H1543 0.929 . S
C1536 C1535 1.383 . S
C1536 C1537 1.377 . S
C1537 H1521 0.930 . S
C1537 C1536 1.377 . S
C1537 C1538 1.379 . S
C1538 H1522 0.931 . S
C1538 C1532 1.383 . S
C1538 C1537 1.379 . S
H1539 C1533 0.959 . S
H1540 C1533 0.961 . S
H1541 C1533 0.960 . S
H1542 C1534 0.930 . S
H1543 C1535 0.929 . S
H1544 C1552 0.929 . S
H1545 C1554 0.930 . S
H1546 C1556 0.930 . S
H1547 C1559 0.929 . S
H1548 C1562 0.930 . S
H1549 C1564 0.960 . S
H1550 C1564 0.960 . S
H1551 C1564 0.960 . S
C1552 H1544 0.929 . S
C1552 C1553 1.377 . S
C1552 C1554 1.384 . S
C1553 C1552 1.377 . S
C1553 C1559 1.390 . S
C1554 H1545 0.930 . S
C1554 C1552 1.384 . S
C1554 C1555 1.372 . S
C1555 C1554 1.372 . S
C1555 C1556 1.400 . S
C1555 C1560 1.490 . S
C1556 H1546 0.930 . S
C1556 C1555 1.400 . S
C1556 C1559 1.386 . S
H1557 C1573 0.930 . S
H1558 C1574 0.931 . S
C1559 H1547 0.929 . S
C1559 C1553 1.390 . S
C1559 C1556 1.386 . S
C1560 C1555 1.490 . S
C1560 C1562 1.395 . S
C1560 C1563 1.403 . S
H1561 C1567 0.930 . S
C1562 H1548 0.930 . S
C1562 C1560 1.395 . S
C1562 C1565 1.403 . S
C1563 C1560 1.403 . S
C1563 C1564 1.524 . S
C1563 C1567 1.400 . S
C1564 H1549 0.960 . S
C1564 H1550 0.960 . S
C1564 H1551 0.960 . S
C1564 C1563 1.524 . S
C1565 C1562 1.403 . S
C1565 C1566 1.392 . S
C1565 C1569 1.495 . S
C1566 C1565 1.392 . S
C1566 C1567 1.385 . S
C1566 C1568 1.478 . S
C1567 H1561 0.930 . S
C1567 C1563 1.400 . S
C1567 C1566 1.385 . S
C1568 C1566 1.478 . S
C1568 C1570 1.381 . S
C1568 C1574 1.383 . S
C1569 C1565 1.495 . S
C1569 H1575 0.959 . S
C1569 H1576 0.961 . S
C1569 H1577 0.960 . S
C1570 C1568 1.381 . S
C1570 C1571 1.394 . S
C1570 H1578 0.930 . S
C1571 C1570 1.394 . S
C1571 C1572 1.383 . S
C1571 H1579 0.929 . S
C1572 C1571 1.383 . S
C1572 C1573 1.377 . S
C1573 H1557 0.930 . S
C1573 C1572 1.377 . S
C1573 C1574 1.379 . S
C1574 H1558 0.931 . S
C1574 C1568 1.383 . S
C1574 C1573 1.379 . S
H1575 C1569 0.959 . S
H1576 C1569 0.961 . S
H1577 C1569 0.960 . S
H1578 C1570 0.930 . S
H1579 C1571 0.929 . S
H1580 C1588 0.929 . S
H1581 C1590 0.930 . S
H1582 C1592 0.930 . S
H1583 C1595 0.929 . S
H1584 C1598 0.921 1_655 S
H1585 C1600 0.960 . S
H1586 C1600 0.960 . S
H1587 C1600 0.960 . S
C1588 H1580 0.929 . S
C1588 C1589 1.377 . S
C1588 C1590 1.384 . S
C1589 C1588 1.377 . S
C1589 C1595 1.390 . S
C1590 H1581 0.930 . S
C1590 C1588 1.384 . S
C1590 C1591 1.372 . S
C1591 C1590 1.372 . S
C1591 C1592 1.400 . S
C1591 C1596 1.490 . S
C1592 H1582 0.930 . S
C1592 C1591 1.400 . S
C1592 C1595 1.386 . S
H1593 C1609 0.930 . S
H1594 C1610 0.931 . S
C1595 H1583 0.929 . S
C1595 C1589 1.390 . S
C1595 C1592 1.386 . S
C1596 C1591 1.490 . S
C1596 C1598 1.372 1_655 S
C1596 C1599 1.403 . S
H1597 C1603 0.930 . S
C1598 H1584 0.921 1_455 S
C1598 C1596 1.372 1_455 S
C1598 C1601 1.436 . S
C1599 C1596 1.403 . S
C1599 C1600 1.524 . S
C1599 C1603 1.400 1_655 S
C1600 H1585 0.960 . S
C1600 H1586 0.960 . S
C1600 H1587 0.960 . S
C1600 C1599 1.524 . S
C1601 C1598 1.436 . S
C1601 C1602 1.392 . S
C1601 C1605 1.495 . S
C1602 C1601 1.392 . S
C1602 C1603 1.385 . S
C1602 C1604 1.478 . S
C1603 H1597 0.930 . S
C1603 C1599 1.400 1_455 S
C1603 C1602 1.385 . S
C1604 C1602 1.478 . S
C1604 C1606 1.381 . S
C1604 C1610 1.383 . S
C1605 C1601 1.495 . S
C1605 H1611 0.959 . S
C1605 H1612 0.961 . S
C1605 H1613 0.960 . S
C1606 C1604 1.381 . S
C1606 C1607 1.394 . S
C1606 H1614 0.930 . S
C1607 C1606 1.394 . S
C1607 C1608 1.383 . S
C1607 H1615 0.929 . S
C1608 C1607 1.383 . S
C1608 C1609 1.377 . S
C1609 H1593 0.930 . S
C1609 C1608 1.377 . S
C1609 C1610 1.379 . S
C1610 H1594 0.931 . S
C1610 C1604 1.383 . S
C1610 C1609 1.379 . S
H1611 C1605 0.959 . S
H1612 C1605 0.961 . S
H1613 C1605 0.960 . S
H1614 C1606 0.930 . S
H1615 C1607 0.929 . S
H1616 C1624 0.929 . S
H1617 C1626 0.930 . S
H1618 C1628 0.930 . S
H1619 C1631 0.929 . S
H1620 C1634 0.930 . S
H1621 C1636 0.960 . S
H1622 C1636 0.960 . S
H1623 C1636 0.960 . S
C1624 H1616 0.929 . S
C1624 C1625 1.377 . S
C1624 C1626 1.384 . S
C1625 C1624 1.377 . S
C1625 C1631 1.390 . S
C1626 H1617 0.930 . S
C1626 C1624 1.384 . S
C1626 C1627 1.372 . S
C1627 C1626 1.372 . S
C1627 C1628 1.400 . S
C1627 C1632 1.490 . S
C1628 H1618 0.930 . S
C1628 C1627 1.400 . S
C1628 C1631 1.386 . S
H1629 C1645 0.930 . S
H1630 C1646 0.931 . S
C1631 H1619 0.929 . S
C1631 C1625 1.390 . S
C1631 C1628 1.386 . S
C1632 C1627 1.490 . S
C1632 C1634 1.395 . S
C1632 C1635 1.403 . S
H1633 C1639 0.930 . S
C1634 H1620 0.930 . S
C1634 C1632 1.395 . S
C1634 C1637 1.403 . S
C1635 C1632 1.403 . S
C1635 C1636 1.524 . S
C1635 C1639 1.400 . S
C1636 H1621 0.960 . S
C1636 H1622 0.960 . S
C1636 H1623 0.960 . S
C1636 C1635 1.524 . S
C1637 C1634 1.403 . S
C1637 C1638 1.392 . S
C1637 C1641 1.495 . S
C1638 C1637 1.392 . S
C1638 C1639 1.385 . S
C1638 C1640 1.478 . S
C1639 H1633 0.930 . S
C1639 C1635 1.400 . S
C1639 C1638 1.385 . S
C1640 C1638 1.478 . S
C1640 C1642 1.381 . S
C1640 C1646 1.383 . S
C1641 C1637 1.495 . S
C1641 H1647 0.959 . S
C1641 H1648 0.961 . S
C1641 H1649 0.960 . S
C1642 C1640 1.381 . S
C1642 C1643 1.394 . S
C1642 H1650 0.930 . S
C1643 C1642 1.394 . S
C1643 C1644 1.383 . S
C1643 H1651 0.929 . S
C1644 C1643 1.383 . S
C1644 C1645 1.377 . S
C1645 H1629 0.930 . S
C1645 C1644 1.377 . S
C1645 C1646 1.379 . S
C1646 H1630 0.931 . S
C1646 C1640 1.383 . S
C1646 C1645 1.379 . S
H1647 C1641 0.959 . S
H1648 C1641 0.961 . S
H1649 C1641 0.960 . S
H1650 C1642 0.930 . S
H1651 C1643 0.929 . S
H1652 C1660 0.929 . S
H1653 C1662 0.930 . S
H1654 C1664 0.930 . S
H1655 C1667 0.929 . S
H1656 C1670 0.930 . S
H1657 C1672 0.960 . S
H1658 C1672 0.960 . S
H1659 C1672 0.960 . S
C1660 H1652 0.929 . S
C1660 C1661 1.377 . S
C1660 C1662 1.384 . S
C1661 C1660 1.377 . S
C1661 C1667 1.390 . S
C1662 H1653 0.930 . S
C1662 C1660 1.384 . S
C1662 C1663 1.372 . S
C1663 C1662 1.372 . S
C1663 C1664 1.400 . S
C1663 C1668 1.490 . S
C1664 H1654 0.930 . S
C1664 C1663 1.400 . S
C1664 C1667 1.386 . S
H1665 C1681 0.930 . S
H1666 C1682 0.931 . S
C1667 H1655 0.929 . S
C1667 C1661 1.390 . S
C1667 C1664 1.386 . S
C1668 C1663 1.490 . S
C1668 C1670 1.395 . S
C1668 C1671 1.403 1_455 S
H1669 C1675 0.930 . S
C1670 H1656 0.930 . S
C1670 C1668 1.395 . S
C1670 C1673 1.403 . S
C1671 C1668 1.403 1_655 S
C1671 C1672 1.524 . S
C1671 C1675 1.400 . S
C1672 H1657 0.960 . S
C1672 H1658 0.960 . S
C1672 H1659 0.960 . S
C1672 C1671 1.524 . S
C1673 C1670 1.403 . S
C1673 C1674 1.392 1_455 S
C1673 C1677 1.495 . S
C1674 C1673 1.392 1_655 S
C1674 C1675 1.385 . S
C1674 C1676 1.478 . S
C1675 H1669 0.930 . S
C1675 C1671 1.400 . S
C1675 C1674 1.385 . S
C1676 C1674 1.478 . S
C1676 C1678 1.381 . S
C1676 C1682 1.383 . S
C1677 C1673 1.495 . S
C1677 H1683 0.959 . S
C1677 H1684 0.961 . S
C1677 H1685 0.960 . S
C1678 C1676 1.381 . S
C1678 C1679 1.394 . S
C1678 H1686 0.930 . S
C1679 C1678 1.394 . S
C1679 C1680 1.383 . S
C1679 H1687 0.916 1_556 S
C1680 C1679 1.383 . S
C1680 C1681 1.377 . S
C1681 H1665 0.930 . S
C1681 C1680 1.377 . S
C1681 C1682 1.379 . S
C1682 H1666 0.931 . S
C1682 C1676 1.383 . S
C1682 C1681 1.379 . S
H1683 C1677 0.959 . S
H1684 C1677 0.961 . S
H1685 C1677 0.960 . S
H1686 C1678 0.930 . S
H1687 C1679 0.916 1_554 S
H1688 C1696 0.929 . S
H1689 C1698 0.930 . S
H1690 C1700 0.930 . S
H1691 C1703 0.929 . S
H1692 C1706 0.930 . S
H1693 C1708 0.960 . S
H1694 C1708 0.960 . S
H1695 C1708 0.960 . S
C1696 H1688 0.929 . S
C1696 C1697 1.377 . S
C1696 C1698 1.384 . S
C1697 C1696 1.377 . S
C1697 C1703 1.390 . S
C1698 H1689 0.930 . S
C1698 C1696 1.384 . S
C1698 C1699 1.372 . S
C1699 C1698 1.372 . S
C1699 C1700 1.400 . S
C1699 C1704 1.490 . S
C1700 H1690 0.930 . S
C1700 C1699 1.400 . S
C1700 C1703 1.386 . S
H1701 C1717 0.930 . S
H1702 C1718 0.931 . S
C1703 H1691 0.929 . S
C1703 C1697 1.390 . S
C1703 C1700 1.386 . S
C1704 C1699 1.490 . S
C1704 C1706 1.395 . S
C1704 C1707 1.403 . S
H1705 C1711 0.930 . S
C1706 H1692 0.930 . S
C1706 C1704 1.395 . S
C1706 C1709 1.403 . S
C1707 C1704 1.403 . S
C1707 C1708 1.524 . S
C1707 C1711 1.400 . S
C1708 H1693 0.960 . S
C1708 H1694 0.960 . S
C1708 H1695 0.960 . S
C1708 C1707 1.524 . S
C1709 C1706 1.403 . S
C1709 C1710 1.392 . S
C1709 C1713 1.495 . S
C1710 C1709 1.392 . S
C1710 C1711 1.385 . S
C1710 C1712 1.478 . S
C1711 H1705 0.930 . S
C1711 C1707 1.400 . S
C1711 C1710 1.385 . S
C1712 C1710 1.478 . S
C1712 C1714 1.381 . S
C1712 C1718 1.383 . S
C1713 C1709 1.495 . S
C1713 H1719 0.959 . S
C1713 H1720 0.961 . S
C1713 H1721 0.960 . S
C1714 C1712 1.381 . S
C1714 C1715 1.394 . S
C1714 H1722 0.930 . S
C1715 C1714 1.394 . S
C1715 C1716 1.383 . S
C1715 H1723 0.929 . S
C1716 C1715 1.383 . S
C1716 C1717 1.377 . S
C1717 H1701 0.930 . S
C1717 C1716 1.377 . S
C1717 C1718 1.379 . S
C1718 H1702 0.931 . S
C1718 C1712 1.383 . S
C1718 C1717 1.379 . S
H1719 C1713 0.959 . S
H1720 C1713 0.961 . S
H1721 C1713 0.960 . S
H1722 C1714 0.930 . S
H1723 C1715 0.929 . S
H1724 C1732 0.929 . S
H1725 C1734 0.930 . S
H1726 C1736 0.930 . S
H1727 C1739 0.929 . S
H1728 C1742 0.930 . S
H1729 C1744 0.960 . S
H1730 C1744 0.960 . S
H1731 C1744 0.960 . S
C1732 H1724 0.929 . S
C1732 C1733 1.377 . S
C1732 C1734 1.384 . S
C1733 C1732 1.377 . S
C1733 C1739 1.390 . S
C1734 H1725 0.930 . S
C1734 C1732 1.384 . S
C1734 C1735 1.372 . S
C1735 C1734 1.372 . S
C1735 C1736 1.400 . S
C1735 C1740 1.490 . S
C1736 H1726 0.930 . S
C1736 C1735 1.400 . S
C1736 C1739 1.386 . S
H1737 C1753 0.930 . S
H1738 C1754 0.931 . S
C1739 H1727 0.929 . S
C1739 C1733 1.390 . S
C1739 C1736 1.386 . S
C1740 C1735 1.490 . S
C1740 C1742 1.395 . S
C1740 C1743 1.403 . S
H1741 C1747 0.930 . S
C1742 H1728 0.930 . S
C1742 C1740 1.395 . S
C1742 C1745 1.403 . S
C1743 C1740 1.403 . S
C1743 C1744 1.524 . S
C1743 C1747 1.400 . S
C1744 H1729 0.960 . S
C1744 H1730 0.960 . S
C1744 H1731 0.960 . S
C1744 C1743 1.524 . S
C1745 C1742 1.403 . S
C1745 C1746 1.392 . S
C1745 C1749 1.495 . S
C1746 C1745 1.392 . S
C1746 C1747 1.385 . S
C1746 C1748 1.478 . S
C1747 H1741 0.930 . S
C1747 C1743 1.400 . S
C1747 C1746 1.385 . S
C1748 C1746 1.478 . S
C1748 C1750 1.381 . S
C1748 C1754 1.383 . S
C1749 C1745 1.495 . S
C1749 H1755 0.959 . S
C1749 H1756 0.961 . S
C1749 H1757 0.960 . S
C1750 C1748 1.381 . S
C1750 C1751 1.394 . S
C1750 H1758 0.930 . S
C1751 C1750 1.394 . S
C1751 C1752 1.383 . S
C1751 H1759 0.929 . S
C1752 C1751 1.383 . S
C1752 C1753 1.377 . S
C1753 H1737 0.930 . S
C1753 C1752 1.377 . S
C1753 C1754 1.379 . S
C1754 H1738 0.931 . S
C1754 C1748 1.383 . S
C1754 C1753 1.379 . S
H1755 C1749 0.959 . S
H1756 C1749 0.961 . S
H1757 C1749 0.960 . S
H1758 C1750 0.930 . S
H1759 C1751 0.929 . S
H1760 C1768 0.929 . S
H1761 C1770 0.930 . S
H1762 C1772 0.930 . S
H1763 C1775 0.929 . S
H1764 C1778 0.930 . S
H1765 C1780 0.960 . S
H1766 C1780 0.960 . S
H1767 C1780 0.960 . S
C1768 H1760 0.929 . S
C1768 C1769 1.377 . S
C1768 C1770 1.384 . S
C1769 C1768 1.377 . S
C1769 C1775 1.390 . S
C1770 H1761 0.930 . S
C1770 C1768 1.384 . S
C1770 C1771 1.372 . S
C1771 C1770 1.372 . S
C1771 C1772 1.400 . S
C1771 C1776 1.490 . S
C1772 H1762 0.930 . S
C1772 C1771 1.400 . S
C1772 C1775 1.386 . S
H1773 C1789 0.930 . S
H1774 C1790 0.931 . S
C1775 H1763 0.929 . S
C1775 C1769 1.390 . S
C1775 C1772 1.386 . S
C1776 C1771 1.490 . S
C1776 C1778 1.395 . S
C1776 C1779 1.403 . S
H1777 C1783 0.930 . S
C1778 H1764 0.930 . S
C1778 C1776 1.395 . S
C1778 C1781 1.403 . S
C1779 C1776 1.403 . S
C1779 C1780 1.524 . S
C1779 C1783 1.400 . S
C1780 H1765 0.960 . S
C1780 H1766 0.960 . S
C1780 H1767 0.960 . S
C1780 C1779 1.524 . S
C1781 C1778 1.403 . S
C1781 C1782 1.392 . S
C1781 C1785 1.495 . S
C1782 C1781 1.392 . S
C1782 C1783 1.385 . S
C1782 C1784 1.478 . S
C1783 H1777 0.930 . S
C1783 C1779 1.400 . S
C1783 C1782 1.385 . S
C1784 C1782 1.478 . S
C1784 C1786 1.381 . S
C1784 C1790 1.383 . S
C1785 C1781 1.495 . S
C1785 H1791 0.959 . S
C1785 H1792 0.961 . S
C1785 H1793 0.960 . S
C1786 C1784 1.381 . S
C1786 C1787 1.394 . S
C1786 H1794 0.930 . S
C1787 C1786 1.394 . S
C1787 C1788 1.383 . S
C1787 H1795 0.929 . S
C1788 C1787 1.383 . S
C1788 C1789 1.377 . S
C1789 H1773 0.930 . S
C1789 C1788 1.377 . S
C1789 C1790 1.379 . S
C1790 H1774 0.931 . S
C1790 C1784 1.383 . S
C1790 C1789 1.379 . S
H1791 C1785 0.959 . S
H1792 C1785 0.961 . S
H1793 C1785 0.960 . S
H1794 C1786 0.930 . S
H1795 C1787 0.929 . S
H1796 C1804 0.929 . S
H1797 C1806 0.930 . S
H1798 C1808 0.930 . S
H1799 C1811 0.929 . S
H1800 C1814 0.930 . S
H1801 C1816 0.960 . S
H1802 C1816 0.960 . S
H1803 C1816 0.960 . S
C1804 H1796 0.929 . S
C1804 C1805 1.377 . S
C1804 C1806 1.384 1_556 S
C1805 C1804 1.377 . S
C1805 C1811 1.390 1_556 S
C1806 H1797 0.930 . S
C1806 C1804 1.384 1_554 S
C1806 C1807 1.372 . S
C1807 C1806 1.372 . S
C1807 C1808 1.400 . S
C1807 C1812 1.490 . S
C1808 H1798 0.930 . S
C1808 C1807 1.400 . S
C1808 C1811 1.386 . S
H1809 C1825 0.930 . S
H1810 C1826 0.931 . S
C1811 H1799 0.929 . S
C1811 C1805 1.390 1_554 S
C1811 C1808 1.386 . S
C1812 C1807 1.490 . S
C1812 C1814 1.395 . S
C1812 C1815 1.403 . S
H1813 C1819 0.930 . S
C1814 H1800 0.930 . S
C1814 C1812 1.395 . S
C1814 C1817 1.403 . S
C1815 C1812 1.403 . S
C1815 C1816 1.524 . S
C1815 C1819 1.400 . S
C1816 H1801 0.960 . S
C1816 H1802 0.960 . S
C1816 H1803 0.960 . S
C1816 C1815 1.524 . S
C1817 C1814 1.403 . S
C1817 C1818 1.392 . S
C1817 C1821 1.495 . S
C1818 C1817 1.392 . S
C1818 C1819 1.385 . S
C1818 C1820 1.478 . S
C1819 H1813 0.930 . S
C1819 C1815 1.400 . S
C1819 C1818 1.385 . S
C1820 C1818 1.478 . S
C1820 C1822 1.381 . S
C1820 C1826 1.383 . S
C1821 C1817 1.495 . S
C1821 H1827 0.959 . S
C1821 H1828 0.961 . S
C1821 H1829 0.960 . S
C1822 C1820 1.381 . S
C1822 C1823 1.394 . S
C1822 H1830 0.930 . S
C1823 C1822 1.394 . S
C1823 C1824 1.383 . S
C1823 H1831 0.929 . S
C1824 C1823 1.383 . S
C1824 C1825 1.377 . S
C1825 H1809 0.930 . S
C1825 C1824 1.377 . S
C1825 C1826 1.379 . S
C1826 H1810 0.931 . S
C1826 C1820 1.383 . S
C1826 C1825 1.379 . S
H1827 C1821 0.959 . S
H1828 C1821 0.961 . S
H1829 C1821 0.960 . S
H1830 C1822 0.930 . S
H1831 C1823 0.929 . S
H1832 C1840 0.929 . S
H1833 C1842 0.930 . S
H1834 C1844 0.930 . S
H1835 C1847 0.929 . S
H1836 C1850 0.930 . S
H1837 C1852 0.960 . S
H1838 C1852 0.960 . S
H1839 C1852 0.960 . S
C1840 H1832 0.929 . S
C1840 C1841 1.377 . S
C1840 C1842 1.384 . S
C1841 C1840 1.377 . S
C1841 C1847 1.390 . S
C1842 H1833 0.930 . S
C1842 C1840 1.384 . S
C1842 C1843 1.372 . S
C1843 C1842 1.372 . S
C1843 C1844 1.400 . S
C1843 C1848 1.490 . S
C1844 H1834 0.930 . S
C1844 C1843 1.400 . S
C1844 C1847 1.386 . S
H1845 C1861 0.930 . S
H1846 C1862 0.931 . S
C1847 H1835 0.929 . S
C1847 C1841 1.390 . S
C1847 C1844 1.386 . S
C1848 C1843 1.490 . S
C1848 C1850 1.395 . S
C1848 C1851 1.403 . S
H1849 C1855 0.930 . S
C1850 H1836 0.930 . S
C1850 C1848 1.395 . S
C1850 C1853 1.403 . S
C1851 C1848 1.403 . S
C1851 C1852 1.524 . S
C1851 C1855 1.400 . S
C1852 H1837 0.960 . S
C1852 H1838 0.960 . S
C1852 H1839 0.960 . S
C1852 C1851 1.524 . S
C1853 C1850 1.403 . S
C1853 C1854 1.392 . S
C1853 C1857 1.495 . S
C1854 C1853 1.392 . S
C1854 C1855 1.385 . S
C1854 C1856 1.478 . S
C1855 H1849 0.930 . S
C1855 C1851 1.400 . S
C1855 C1854 1.385 . S
C1856 C1854 1.478 . S
C1856 C1858 1.381 . S
C1856 C1862 1.383 . S
C1857 C1853 1.495 . S
C1857 H1863 0.959 . S
C1857 H1864 0.961 . S
C1857 H1865 0.960 . S
C1858 C1856 1.381 . S
C1858 C1859 1.394 . S
C1858 H1866 0.930 . S
C1859 C1858 1.394 . S
C1859 C1860 1.383 . S
C1859 H1867 0.929 . S
C1860 C1859 1.383 . S
C1860 C1861 1.377 . S
C1861 H1845 0.930 . S
C1861 C1860 1.377 . S
C1861 C1862 1.379 . S
C1862 H1846 0.931 . S
C1862 C1856 1.383 . S
C1862 C1861 1.379 . S
H1863 C1857 0.959 . S
H1864 C1857 0.961 . S
H1865 C1857 0.960 . S
H1866 C1858 0.930 . S
H1867 C1859 0.929 . S
H1868 C1876 0.929 . S
H1869 C1878 0.930 . S
H1870 C1880 0.930 . S
H1871 C1883 0.929 . S
H1872 C1886 0.930 . S
H1873 C1888 0.941 1_455 S
H1874 C1888 0.954 1_455 S
H1875 C1888 0.981 . S
C1876 H1868 0.929 . S
C1876 C1877 1.377 . S
C1876 C1878 1.384 . S
C1877 C1876 1.377 . S
C1877 C1883 1.390 . S
C1878 H1869 0.930 . S
C1878 C1876 1.384 . S
C1878 C1879 1.372 . S
C1879 C1878 1.372 . S
C1879 C1880 1.400 . S
C1879 C1884 1.490 . S
C1880 H1870 0.930 . S
C1880 C1879 1.400 . S
C1880 C1883 1.386 . S
H1881 C1897 0.930 . S
H1882 C1898 0.931 . S
C1883 H1871 0.929 . S
C1883 C1877 1.390 . S
C1883 C1880 1.386 . S
C1884 C1879 1.490 . S
C1884 C1886 1.395 . S
C1884 C1887 1.403 . S
H1885 C1891 0.930 . S
C1886 H1872 0.930 . S
C1886 C1884 1.395 . S
C1886 C1889 1.403 . S
C1887 C1884 1.403 . S
C1887 C1888 1.529 . S
C1887 C1891 1.400 1_655 S
C1888 H1873 0.941 1_655 S
C1888 H1874 0.954 1_655 S
C1888 H1875 0.981 . S
C1888 C1887 1.529 . S
C1889 C1886 1.403 . S
C1889 C1890 1.392 1_655 S
C1889 C1893 1.495 . S
C1890 C1889 1.392 1_455 S
C1890 C1891 1.385 . S
C1890 C1892 1.478 . S
C1891 H1885 0.930 . S
C1891 C1887 1.400 1_455 S
C1891 C1890 1.385 . S
C1892 C1890 1.478 . S
C1892 C1894 1.381 . S
C1892 C1898 1.383 . S
C1893 C1889 1.495 . S
C1893 H1899 0.959 . S
C1893 H1900 0.961 . S
C1893 H1901 0.938 1_655 S
C1894 C1892 1.381 . S
C1894 C1895 1.394 . S
C1894 H1902 0.930 . S
C1895 C1894 1.394 . S
C1895 C1896 1.383 . S
C1895 H1903 0.929 . S
C1896 C1895 1.383 . S
C1896 C1897 1.377 . S
C1897 H1881 0.930 . S
C1897 C1896 1.377 . S
C1897 C1898 1.379 . S
C1898 H1882 0.931 . S
C1898 C1892 1.383 . S
C1898 C1897 1.379 . S
H1899 C1893 0.959 . S
H1900 C1893 0.961 . S
H1901 C1893 0.938 1_455 S
H1902 C1894 0.930 . S
H1903 C1895 0.929 . S
H1904 C1912 0.929 . S
H1905 C1914 0.930 . S
H1906 C1916 0.930 . S
H1907 C1919 0.929 . S
H1908 C1922 0.930 . S
H1909 C1924 0.960 . S
H1910 C1924 0.960 . S
H1911 C1924 0.960 . S
C1912 H1904 0.929 . S
C1912 C1913 1.377 . S
C1912 C1914 1.384 . S
C1913 C1912 1.377 . S
C1913 C1919 1.390 . S
C1914 H1905 0.930 . S
C1914 C1912 1.384 . S
C1914 C1915 1.372 . S
C1915 C1914 1.372 . S
C1915 C1916 1.400 . S
C1915 C1920 1.490 . S
C1916 H1906 0.930 . S
C1916 C1915 1.400 . S
C1916 C1919 1.386 . S
H1917 C1933 0.930 . S
H1918 C1934 0.931 . S
C1919 H1907 0.929 . S
C1919 C1913 1.390 . S
C1919 C1916 1.386 . S
C1920 C1915 1.490 . S
C1920 C1922 1.395 . S
C1920 C1923 1.403 . S
H1921 C1927 0.930 . S
C1922 H1908 0.930 . S
C1922 C1920 1.395 . S
C1922 C1925 1.403 . S
C1923 C1920 1.403 . S
C1923 C1924 1.524 . S
C1923 C1927 1.400 . S
C1924 H1909 0.960 . S
C1924 H1910 0.960 . S
C1924 H1911 0.960 . S
C1924 C1923 1.524 . S
C1925 C1922 1.403 . S
C1925 C1926 1.392 . S
C1925 C1929 1.495 . S
C1926 C1925 1.392 . S
C1926 C1927 1.385 . S
C1926 C1928 1.478 . S
C1927 H1921 0.930 . S
C1927 C1923 1.400 . S
C1927 C1926 1.385 . S
C1928 C1926 1.478 . S
C1928 C1930 1.381 . S
C1928 C1934 1.383 . S
C1929 C1925 1.495 . S
C1929 H1935 0.959 . S
C1929 H1936 0.961 . S
C1929 H1937 0.960 . S
C1930 C1928 1.381 . S
C1930 C1931 1.394 . S
C1930 H1938 0.930 . S
C1931 C1930 1.394 . S
C1931 C1932 1.383 . S
C1931 H1939 0.929 . S
C1932 C1931 1.383 . S
C1932 C1933 1.377 . S
C1933 H1917 0.930 . S
C1933 C1932 1.377 . S
C1933 C1934 1.379 . S
C1934 H1918 0.931 . S
C1934 C1928 1.383 . S
C1934 C1933 1.379 . S
H1935 C1929 0.959 . S
H1936 C1929 0.961 . S
H1937 C1929 0.960 . S
H1938 C1930 0.930 . S
H1939 C1931 0.929 . S
H1940 C1948 0.929 . S
H1941 C1950 0.930 . S
H1942 C1952 0.930 . S
H1943 C1955 0.929 . S
H1944 C1958 0.930 . S
H1945 C1960 0.960 . S
H1946 C1960 0.960 . S
H1947 C1960 0.960 . S
C1948 H1940 0.929 . S
C1948 C1949 1.377 . S
C1948 C1950 1.384 . S
C1949 C1948 1.377 . S
C1949 C1955 1.390 . S
C1950 H1941 0.930 . S
C1950 C1948 1.384 . S
C1950 C1951 1.372 . S
C1951 C1950 1.372 . S
C1951 C1952 1.400 . S
C1951 C1956 1.490 . S
C1952 H1942 0.930 . S
C1952 C1951 1.400 . S
C1952 C1955 1.386 . S
H1953 C1969 0.930 . S
H1954 C1970 0.931 . S
C1955 H1943 0.929 . S
C1955 C1949 1.390 . S
C1955 C1952 1.386 . S
C1956 C1951 1.490 . S
C1956 C1958 1.395 . S
C1956 C1959 1.403 . S
H1957 C1963 0.930 . S
C1958 H1944 0.930 . S
C1958 C1956 1.395 . S
C1958 C1961 1.403 . S
C1959 C1956 1.403 . S
C1959 C1960 1.524 . S
C1959 C1963 1.400 . S
C1960 H1945 0.960 . S
C1960 H1946 0.960 . S
C1960 H1947 0.960 . S
C1960 C1959 1.524 . S
C1961 C1958 1.403 . S
C1961 C1962 1.392 . S
C1961 C1965 1.495 . S
C1962 C1961 1.392 . S
C1962 C1963 1.385 . S
C1962 C1964 1.478 . S
C1963 H1957 0.930 . S
C1963 C1959 1.400 . S
C1963 C1962 1.385 . S
C1964 C1962 1.478 . S
C1964 C1966 1.381 . S
C1964 C1970 1.383 . S
C1965 C1961 1.495 . S
C1965 H1971 0.959 . S
C1965 H1972 0.961 . S
C1965 H1973 0.960 . S
C1966 C1964 1.381 . S
C1966 C1967 1.394 . S
C1966 H1974 0.930 . S
C1967 C1966 1.394 . S
C1967 C1968 1.383 . S
C1967 H1975 0.929 . S
C1968 C1967 1.383 . S
C1968 C1969 1.377 . S
C1969 H1953 0.930 . S
C1969 C1968 1.377 . S
C1969 C1970 1.379 . S
C1970 H1954 0.931 . S
C1970 C1964 1.383 . S
C1970 C1969 1.379 . S
H1971 C1965 0.959 . S
H1972 C1965 0.961 . S
H1973 C1965 0.960 . S
H1974 C1966 0.930 . S
H1975 C1967 0.929 . S
H1976 C1984 0.929 . S
H1977 C1986 0.930 . S
H1978 C1988 0.930 . S
H1979 C1991 0.929 . S
H1980 C1994 0.930 . S
H1981 C1996 0.960 . S
H1982 C1996 0.960 . S
H1983 C1996 0.960 . S
C1984 H1976 0.929 . S
C1984 C1985 1.377 . S
C1984 C1986 1.384 . S
C1985 C1984 1.377 . S
C1985 C1991 1.390 . S
C1986 H1977 0.930 . S
C1986 C1984 1.384 . S
C1986 C1987 1.372 . S
C1987 C1986 1.372 . S
C1987 C1988 1.400 . S
C1987 C1992 1.490 . S
C1988 H1978 0.930 . S
C1988 C1987 1.400 . S
C1988 C1991 1.386 . S
H1989 C2005 0.930 . S
H1990 C2006 0.931 . S
C1991 H1979 0.929 . S
C1991 C1985 1.390 . S
C1991 C1988 1.386 . S
C1992 C1987 1.490 . S
C1992 C1994 1.395 . S
C1992 C1995 1.403 . S
H1993 C1999 0.930 . S
C1994 H1980 0.930 . S
C1994 C1992 1.395 . S
C1994 C1997 1.403 . S
C1995 C1992 1.403 . S
C1995 C1996 1.524 . S
C1995 C1999 1.400 . S
C1996 H1981 0.960 . S
C1996 H1982 0.960 . S
C1996 H1983 0.960 . S
C1996 C1995 1.524 . S
C1997 C1994 1.403 . S
C1997 C1998 1.392 . S
C1997 C2001 1.495 . S
C1998 C1997 1.392 . S
C1998 C1999 1.385 . S
C1998 C2000 1.478 . S
C1999 H1993 0.930 . S
C1999 C1995 1.400 . S
C1999 C1998 1.385 . S
C2000 C1998 1.478 . S
C2000 C2002 1.381 . S
C2000 C2006 1.383 . S
C2001 C1997 1.495 . S
C2001 H2007 0.959 . S
C2001 H2008 0.961 . S
C2001 H2009 0.960 . S
C2002 C2000 1.381 . S
C2002 C2003 1.394 . S
C2002 H2010 0.930 . S
C2003 C2002 1.394 . S
C2003 C2004 1.383 . S
C2003 H2011 0.929 . S
C2004 C2003 1.383 . S
C2004 C2005 1.377 . S
C2005 H1989 0.930 . S
C2005 C2004 1.377 . S
C2005 C2006 1.379 . S
C2006 H1990 0.931 . S
C2006 C2000 1.383 . S
C2006 C2005 1.379 . S
H2007 C2001 0.959 . S
H2008 C2001 0.961 . S
H2009 C2001 0.960 . S
H2010 C2002 0.930 . S
H2011 C2003 0.929 . S
H2012 C2020 0.929 . S
H2013 C2022 0.930 . S
H2014 C2024 0.930 . S
H2015 C2027 0.929 . S
H2016 C2030 0.930 . S
H2017 C2032 0.960 . S
H2018 C2032 0.960 . S
H2019 C2032 0.960 . S
C2020 H2012 0.929 . S
C2020 C2021 1.377 . S
C2020 C2022 1.384 . S
C2021 C2020 1.377 . S
C2021 C2027 1.390 . S
C2022 H2013 0.930 . S
C2022 C2020 1.384 . S
C2022 C2023 1.372 . S
C2023 C2022 1.372 . S
C2023 C2024 1.400 . S
C2023 C2028 1.490 . S
C2024 H2014 0.930 . S
C2024 C2023 1.400 . S
C2024 C2027 1.386 . S
H2025 C2041 0.930 . S
H2026 C2042 0.931 . S
C2027 H2015 0.929 . S
C2027 C2021 1.390 . S
C2027 C2024 1.386 . S
C2028 C2023 1.490 . S
C2028 C2030 1.395 . S
C2028 C2031 1.403 1_455 S
H2029 C2035 0.930 . S
C2030 H2016 0.930 . S
C2030 C2028 1.395 . S
C2030 C2033 1.403 1_455 S
C2031 C2028 1.403 1_655 S
C2031 C2032 1.524 . S
C2031 C2035 1.400 . S
C2032 H2017 0.960 . S
C2032 H2018 0.960 . S
C2032 H2019 0.960 . S
C2032 C2031 1.524 . S
C2033 C2030 1.403 1_655 S
C2033 C2034 1.392 . S
C2033 C2037 1.495 . S
C2034 C2033 1.392 . S
C2034 C2035 1.385 . S
C2034 C2036 1.478 . S
C2035 H2029 0.930 . S
C2035 C2031 1.400 . S
C2035 C2034 1.385 . S
C2036 C2034 1.478 . S
C2036 C2038 1.381 . S
C2036 C2042 1.383 . S
C2037 C2033 1.495 . S
C2037 H2043 0.959 1_655 S
C2037 H2044 0.961 . S
C2037 H2045 0.960 . S
C2038 C2036 1.381 . S
C2038 C2039 1.394 . S
C2038 H2046 0.930 . S
C2039 C2038 1.394 . S
C2039 C2040 1.383 1_554 S
C2039 H2047 0.929 . S
C2040 C2039 1.383 1_556 S
C2040 C2041 1.377 . S
C2041 H2025 0.930 . S
C2041 C2040 1.377 . S
C2041 C2042 1.379 1_556 S
C2042 H2026 0.931 . S
C2042 C2036 1.383 . S
C2042 C2041 1.379 1_554 S
H2043 C2037 0.959 1_455 S
H2044 C2037 0.961 . S
H2045 C2037 0.960 . S
H2046 C2038 0.930 . S
H2047 C2039 0.929 . S
H2048 C2056 0.929 . S
H2049 C2058 0.930 . S
H2050 C2060 0.930 . S
H2051 C2063 0.929 . S
H2052 C2066 0.930 . S
H2053 C2068 0.960 . S
H2054 C2068 0.960 . S
H2055 C2068 0.960 . S
C2056 H2048 0.929 . S
C2056 C2057 1.377 . S
C2056 C2058 1.384 . S
C2057 C2056 1.377 . S
C2057 C2063 1.390 . S
C2058 H2049 0.930 . S
C2058 C2056 1.384 . S
C2058 C2059 1.372 . S
C2059 C2058 1.372 . S
C2059 C2060 1.400 . S
C2059 C2064 1.490 . S
C2060 H2050 0.930 . S
C2060 C2059 1.400 . S
C2060 C2063 1.386 . S
H2061 C2077 0.930 . S
H2062 C2078 0.931 . S
C2063 H2051 0.929 . S
C2063 C2057 1.390 . S
C2063 C2060 1.386 . S
C2064 C2059 1.490 . S
C2064 C2066 1.395 . S
C2064 C2067 1.403 . S
H2065 C2071 0.930 . S
C2066 H2052 0.930 . S
C2066 C2064 1.395 . S
C2066 C2069 1.403 . S
C2067 C2064 1.403 . S
C2067 C2068 1.524 . S
C2067 C2071 1.400 . S
C2068 H2053 0.960 . S
C2068 H2054 0.960 . S
C2068 H2055 0.960 . S
C2068 C2067 1.524 . S
C2069 C2066 1.403 . S
C2069 C2070 1.392 . S
C2069 C2073 1.495 . S
C2070 C2069 1.392 . S
C2070 C2071 1.385 . S
C2070 C2072 1.478 . S
C2071 H2065 0.930 . S
C2071 C2067 1.400 . S
C2071 C2070 1.385 . S
C2072 C2070 1.478 . S
C2072 C2074 1.381 . S
C2072 C2078 1.383 . S
C2073 C2069 1.495 . S
C2073 H2079 0.959 . S
C2073 H2080 0.961 . S
C2073 H2081 0.960 . S
C2074 C2072 1.381 . S
C2074 C2075 1.394 . S
C2074 H2082 0.930 . S
C2075 C2074 1.394 . S
C2075 C2076 1.383 . S
C2075 H2083 0.929 . S
C2076 C2075 1.383 . S
C2076 C2077 1.377 . S
C2077 H2061 0.930 . S
C2077 C2076 1.377 . S
C2077 C2078 1.379 . S
C2078 H2062 0.931 . S
C2078 C2072 1.383 . S
C2078 C2077 1.379 . S
H2079 C2073 0.959 . S
H2080 C2073 0.961 . S
H2081 C2073 0.960 . S
H2082 C2074 0.930 . S
H2083 C2075 0.929 . S
H2084 C2092 0.929 . S
H2085 C2094 0.930 . S
H2086 C2096 0.930 . S
H2087 C2099 0.929 . S
H2088 C2102 0.930 . S
H2089 C2104 1.004 . S
H2090 C2104 0.910 1_655 S
H2091 C2104 0.968 . S
C2092 H2084 0.929 . S
C2092 C2093 1.377 . S
C2092 C2094 1.384 . S
C2093 C2092 1.377 . S
C2093 C2099 1.390 . S
C2094 H2085 0.930 . S
C2094 C2092 1.384 . S
C2094 C2095 1.372 . S
C2095 C2094 1.372 . S
C2095 C2096 1.400 . S
C2095 C2100 1.490 . S
C2096 H2086 0.930 . S
C2096 C2095 1.400 . S
C2096 C2099 1.386 . S
H2097 C2113 0.930 . S
H2098 C2114 0.931 . S
C2099 H2087 0.929 . S
C2099 C2093 1.390 . S
C2099 C2096 1.386 . S
C2100 C2095 1.490 . S
C2100 C2102 1.395 . S
C2100 C2103 1.382 1_655 S
H2101 C2107 0.930 . S
C2102 H2088 0.930 . S
C2102 C2100 1.395 . S
C2102 C2105 1.394 1_655 S
C2103 C2100 1.382 1_455 S
C2103 C2104 1.524 . S
C2103 C2107 1.421 . S
C2104 H2089 1.004 . S
C2104 H2090 0.910 1_455 S
C2104 H2091 0.968 . S
C2104 C2103 1.524 . S
C2105 C2102 1.394 1_455 S
C2105 C2106 1.402 . S
C2105 C2109 1.495 1_455 S
C2106 C2105 1.402 . S
C2106 C2107 1.385 . S
C2106 C2108 1.478 . S
C2107 H2101 0.930 . S
C2107 C2103 1.421 . S
C2107 C2106 1.385 . S
C2108 C2106 1.478 . S
C2108 C2110 1.381 . S
C2108 C2114 1.383 . S
C2109 C2105 1.495 1_655 S
C2109 H2115 0.967 . S
C2109 H2116 0.952 1_655 S
C2109 H2117 0.961 . S
C2110 C2108 1.381 . S
C2110 C2111 1.394 . S
C2110 H2118 0.930 . S
C2111 C2110 1.394 . S
C2111 C2112 1.383 . S
C2111 H2119 0.929 . S
C2112 C2111 1.383 . S
C2112 C2113 1.377 . S
C2113 H2097 0.930 . S
C2113 C2112 1.377 . S
C2113 C2114 1.379 . S
C2114 H2098 0.931 . S
C2114 C2108 1.383 . S
C2114 C2113 1.379 . S
H2115 C2109 0.967 . S
H2116 C2109 0.952 1_455 S
H2117 C2109 0.961 . S
H2118 C2110 0.930 . S
H2119 C2111 0.929 . S
H2120 C2128 0.929 . S
H2121 C2130 0.930 . S
H2122 C2132 0.930 . S
H2123 C2135 0.929 . S
H2124 C2138 0.930 . S
H2125 C2140 0.960 . S
H2126 C2140 0.960 . S
H2127 C2140 0.960 . S
C2128 H2120 0.929 . S
C2128 C2129 1.377 . S
C2128 C2130 1.384 . S
C2129 C2128 1.377 . S
C2129 C2135 1.390 . S
C2130 H2121 0.930 . S
C2130 C2128 1.384 . S
C2130 C2131 1.372 . S
C2131 C2130 1.372 . S
C2131 C2132 1.400 . S
C2131 C2136 1.490 . S
C2132 H2122 0.930 . S
C2132 C2131 1.400 . S
C2132 C2135 1.386 . S
H2133 C2149 0.930 . S
H2134 C2150 0.931 . S
C2135 H2123 0.929 . S
C2135 C2129 1.390 . S
C2135 C2132 1.386 . S
C2136 C2131 1.490 . S
C2136 C2138 1.395 . S
C2136 C2139 1.403 . S
H2137 C2143 0.930 . S
C2138 H2124 0.930 . S
C2138 C2136 1.395 . S
C2138 C2141 1.403 . S
C2139 C2136 1.403 . S
C2139 C2140 1.524 . S
C2139 C2143 1.400 . S
C2140 H2125 0.960 . S
C2140 H2126 0.960 . S
C2140 H2127 0.960 . S
C2140 C2139 1.524 . S
C2141 C2138 1.403 . S
C2141 C2142 1.392 . S
C2141 C2145 1.495 . S
C2142 C2141 1.392 . S
C2142 C2143 1.385 . S
C2142 C2144 1.478 . S
C2143 H2137 0.930 . S
C2143 C2139 1.400 . S
C2143 C2142 1.385 . S
C2144 C2142 1.478 . S
C2144 C2146 1.381 . S
C2144 C2150 1.383 . S
C2145 C2141 1.495 . S
C2145 H2151 0.959 . S
C2145 H2152 0.961 . S
C2145 H2153 0.960 . S
C2146 C2144 1.381 . S
C2146 C2147 1.394 . S
C2146 H2154 0.930 . S
C2147 C2146 1.394 . S
C2147 C2148 1.383 . S
C2147 H2155 0.929 . S
C2148 C2147 1.383 . S
C2148 C2149 1.377 . S
C2149 H2133 0.930 . S
C2149 C2148 1.377 . S
C2149 C2150 1.379 . S
C2150 H2134 0.931 . S
C2150 C2144 1.383 . S
C2150 C2149 1.379 . S
H2151 C2145 0.959 . S
H2152 C2145 0.961 . S
H2153 C2145 0.960 . S
H2154 C2146 0.930 . S
H2155 C2147 0.929 . S
H2156 C2164 0.929 . S
H2157 C2166 0.930 . S
H2158 C2168 0.930 . S
H2159 C2171 0.929 . S
H2160 C2174 0.930 . S
H2161 C2176 0.960 . S
H2162 C2176 0.960 . S
H2163 C2176 0.960 . S
C2164 H2156 0.929 . S
C2164 C2165 1.377 1_556 S
C2164 C2166 1.384 . S
C2165 C2164 1.377 1_554 S
C2165 C2171 1.390 . S
C2166 H2157 0.930 . S
C2166 C2164 1.384 . S
C2166 C2167 1.372 . S
C2167 C2166 1.372 . S
C2167 C2168 1.400 . S
C2167 C2172 1.490 . S
C2168 H2158 0.930 . S
C2168 C2167 1.400 . S
C2168 C2171 1.386 1_556 S
H2169 C2185 0.930 . S
H2170 C2186 0.931 . S
C2171 H2159 0.929 . S
C2171 C2165 1.390 . S
C2171 C2168 1.386 1_554 S
C2172 C2167 1.490 . S
C2172 C2174 1.395 . S
C2172 C2175 1.403 . S
H2173 C2179 0.930 . S
C2174 H2160 0.930 . S
C2174 C2172 1.395 . S
C2174 C2177 1.403 . S
C2175 C2172 1.403 . S
C2175 C2176 1.524 . S
C2175 C2179 1.400 . S
C2176 H2161 0.960 . S
C2176 H2162 0.960 . S
C2176 H2163 0.960 . S
C2176 C2175 1.524 . S
C2177 C2174 1.403 . S
C2177 C2178 1.392 . S
C2177 C2181 1.495 . S
C2178 C2177 1.392 . S
C2178 C2179 1.385 . S
C2178 C2180 1.478 . S
C2179 H2173 0.930 . S
C2179 C2175 1.400 . S
C2179 C2178 1.385 . S
C2180 C2178 1.478 . S
C2180 C2182 1.381 . S
C2180 C2186 1.383 . S
C2181 C2177 1.495 . S
C2181 H2187 0.959 . S
C2181 H2188 0.961 . S
C2181 H2189 0.960 . S
C2182 C2180 1.381 . S
C2182 C2183 1.394 . S
C2182 H2190 0.930 . S
C2183 C2182 1.394 . S
C2183 C2184 1.383 . S
C2183 H2191 0.929 . S
C2184 C2183 1.383 . S
C2184 C2185 1.377 . S
C2185 H2169 0.930 . S
C2185 C2184 1.377 . S
C2185 C2186 1.379 . S
C2186 H2170 0.931 . S
C2186 C2180 1.383 . S
C2186 C2185 1.379 . S
H2187 C2181 0.959 . S
H2188 C2181 0.961 . S
H2189 C2181 0.960 . S
H2190 C2182 0.930 . S
H2191 C2183 0.929 . S
H2192 C2200 0.929 . S
H2193 C2202 0.930 . S
H2194 C2204 0.930 . S
H2195 C2207 0.929 . S
H2196 C2210 0.930 . S
H2197 C2212 0.960 . S
H2198 C2212 0.960 . S
H2199 C2212 0.960 . S
C2200 H2192 0.929 . S
C2200 C2201 1.377 . S
C2200 C2202 1.384 . S
C2201 C2200 1.377 . S
C2201 C2207 1.390 . S
C2202 H2193 0.930 . S
C2202 C2200 1.384 . S
C2202 C2203 1.372 . S
C2203 C2202 1.372 . S
C2203 C2204 1.400 . S
C2203 C2208 1.490 . S
C2204 H2194 0.930 . S
C2204 C2203 1.400 . S
C2204 C2207 1.386 . S
H2205 C2221 0.930 . S
H2206 C2222 0.931 . S
C2207 H2195 0.929 . S
C2207 C2201 1.390 . S
C2207 C2204 1.386 . S
C2208 C2203 1.490 . S
C2208 C2210 1.395 . S
C2208 C2211 1.403 . S
H2209 C2215 0.930 . S
C2210 H2196 0.930 . S
C2210 C2208 1.395 . S
C2210 C2213 1.403 . S
C2211 C2208 1.403 . S
C2211 C2212 1.524 . S
C2211 C2215 1.400 . S
C2212 H2197 0.960 . S
C2212 H2198 0.960 . S
C2212 H2199 0.960 . S
C2212 C2211 1.524 . S
C2213 C2210 1.403 . S
C2213 C2214 1.392 . S
C2213 C2217 1.495 . S
C2214 C2213 1.392 . S
C2214 C2215 1.385 . S
C2214 C2216 1.478 . S
C2215 H2209 0.930 . S
C2215 C2211 1.400 . S
C2215 C2214 1.385 . S
C2216 C2214 1.478 . S
C2216 C2218 1.381 . S
C2216 C2222 1.383 . S
C2217 C2213 1.495 . S
C2217 H2223 0.959 . S
C2217 H2224 0.961 . S
C2217 H2225 0.960 . S
C2218 C2216 1.381 . S
C2218 C2219 1.394 . S
C2218 H2226 0.930 . S
C2219 C2218 1.394 . S
C2219 C2220 1.383 . S
C2219 H2227 0.929 . S
C2220 C2219 1.383 . S
C2220 C2221 1.377 . S
C2221 H2205 0.930 . S
C2221 C2220 1.377 . S
C2221 C2222 1.379 . S
C2222 H2206 0.931 . S
C2222 C2216 1.383 . S
C2222 C2221 1.379 . S
H2223 C2217 0.959 . S
H2224 C2217 0.961 . S
H2225 C2217 0.960 . S
H2226 C2218 0.930 . S
H2227 C2219 0.929 . S
H2228 C2236 0.929 . S
H2229 C2238 0.930 . S
H2230 C2240 0.930 . S
H2231 C2243 0.929 . S
H2232 C2246 0.930 . S
H2233 C2248 0.960 . S
H2234 C2248 0.960 . S
H2235 C2248 0.960 . S
C2236 H2228 0.929 . S
C2236 C2237 1.377 . S
C2236 C2238 1.384 . S
C2237 C2236 1.377 . S
C2237 C2243 1.390 . S
C2238 H2229 0.930 . S
C2238 C2236 1.384 . S
C2238 C2239 1.372 . S
C2239 C2238 1.372 . S
C2239 C2240 1.400 . S
C2239 C2244 1.490 . S
C2240 H2230 0.930 . S
C2240 C2239 1.400 . S
C2240 C2243 1.386 . S
H2241 C2257 0.930 . S
H2242 C2258 0.931 . S
C2243 H2231 0.929 . S
C2243 C2237 1.390 . S
C2243 C2240 1.386 . S
C2244 C2239 1.490 . S
C2244 C2246 1.395 . S
C2244 C2247 1.403 . S
H2245 C2251 0.930 . S
C2246 H2232 0.930 . S
C2246 C2244 1.395 . S
C2246 C2249 1.403 . S
C2247 C2244 1.403 . S
C2247 C2248 1.524 . S
C2247 C2251 1.400 . S
C2248 H2233 0.960 . S
C2248 H2234 0.960 . S
C2248 H2235 0.960 . S
C2248 C2247 1.524 . S
C2249 C2246 1.403 . S
C2249 C2250 1.392 . S
C2249 C2253 1.495 . S
C2250 C2249 1.392 . S
C2250 C2251 1.385 . S
C2250 C2252 1.478 . S
C2251 H2245 0.930 . S
C2251 C2247 1.400 . S
C2251 C2250 1.385 . S
C2252 C2250 1.478 . S
C2252 C2254 1.381 . S
C2252 C2258 1.383 . S
C2253 C2249 1.495 . S
C2253 H2259 0.959 . S
C2253 H2260 0.961 . S
C2253 H2261 0.960 . S
C2254 C2252 1.381 . S
C2254 C2255 1.394 . S
C2254 H2262 0.930 . S
C2255 C2254 1.394 . S
C2255 C2256 1.383 . S
C2255 H2263 0.929 . S
C2256 C2255 1.383 . S
C2256 C2257 1.377 . S
C2257 H2241 0.930 . S
C2257 C2256 1.377 . S
C2257 C2258 1.379 . S
C2258 H2242 0.931 . S
C2258 C2252 1.383 . S
C2258 C2257 1.379 . S
H2259 C2253 0.959 . S
H2260 C2253 0.961 . S
H2261 C2253 0.960 . S
H2262 C2254 0.930 . S
H2263 C2255 0.929 . S
H2264 C2272 0.929 . S
H2265 C2274 0.930 . S
H2266 C2276 0.930 . S
H2267 C2279 0.929 . S
H2268 C2282 0.930 . S
H2269 C2284 0.960 . S
H2270 C2284 0.960 . S
H2271 C2284 0.960 . S
C2272 H2264 0.929 . S
C2272 C2273 1.377 . S
C2272 C2274 1.384 . S
C2273 C2272 1.377 . S
C2273 C2279 1.390 . S
C2274 H2265 0.930 . S
C2274 C2272 1.384 . S
C2274 C2275 1.372 . S
C2275 C2274 1.372 . S
C2275 C2276 1.400 . S
C2275 C2280 1.490 . S
C2276 H2266 0.930 . S
C2276 C2275 1.400 . S
C2276 C2279 1.386 . S
H2277 C2293 0.930 . S
H2278 C2294 0.931 . S
C2279 H2267 0.929 . S
C2279 C2273 1.390 . S
C2279 C2276 1.386 . S
C2280 C2275 1.490 . S
C2280 C2282 1.395 . S
C2280 C2283 1.403 . S
H2281 C2287 0.930 . S
C2282 H2268 0.930 . S
C2282 C2280 1.395 . S
C2282 C2285 1.403 . S
C2283 C2280 1.403 . S
C2283 C2284 1.524 . S
C2283 C2287 1.400 . S
C2284 H2269 0.960 . S
C2284 H2270 0.960 . S
C2284 H2271 0.960 . S
C2284 C2283 1.524 . S
C2285 C2282 1.403 . S
C2285 C2286 1.392 . S
C2285 C2289 1.495 . S
C2286 C2285 1.392 . S
C2286 C2287 1.385 . S
C2286 C2288 1.478 . S
C2287 H2281 0.930 . S
C2287 C2283 1.400 . S
C2287 C2286 1.385 . S
C2288 C2286 1.478 . S
C2288 C2290 1.381 . S
C2288 C2294 1.383 . S
C2289 C2285 1.495 . S
C2289 H2295 0.959 . S
C2289 H2296 0.961 . S
C2289 H2297 0.960 . S
C2290 C2288 1.381 . S
C2290 C2291 1.394 . S
C2290 H2298 0.930 . S
C2291 C2290 1.394 . S
C2291 C2292 1.383 . S
C2291 H2299 0.929 . S
C2292 C2291 1.383 . S
C2292 C2293 1.377 . S
C2293 H2277 0.930 . S
C2293 C2292 1.377 . S
C2293 C2294 1.379 . S
C2294 H2278 0.931 . S
C2294 C2288 1.383 . S
C2294 C2293 1.379 . S
H2295 C2289 0.959 . S
H2296 C2289 0.961 . S
H2297 C2289 0.960 . S
H2298 C2290 0.930 . S
H2299 C2291 0.929 . S
H2300 C2308 0.929 . S
H2301 C2310 0.930 . S
H2302 C2312 0.930 . S
H2303 C2315 0.929 . S
H2304 C2318 0.930 . S
H2305 C2320 0.960 . S
H2306 C2320 0.960 . S
H2307 C2320 0.960 . S
C2308 H2300 0.929 . S
C2308 C2309 1.377 . S
C2308 C2310 1.384 1_554 S
C2309 C2308 1.377 . S
C2309 C2315 1.390 1_554 S
C2310 H2301 0.930 . S
C2310 C2308 1.384 1_556 S
C2310 C2311 1.372 . S
C2311 C2310 1.372 . S
C2311 C2312 1.400 . S
C2311 C2316 1.490 . S
C2312 H2302 0.930 . S
C2312 C2311 1.400 . S
C2312 C2315 1.386 . S
H2313 C2329 0.930 . S
H2314 C2330 0.931 1_455 S
C2315 H2303 0.929 . S
C2315 C2309 1.390 1_556 S
C2315 C2312 1.386 . S
C2316 C2311 1.490 . S
C2316 C2318 1.395 . S
C2316 C2319 1.403 . S
H2317 C2323 0.930 1_655 S
C2318 H2304 0.930 . S
C2318 C2316 1.395 . S
C2318 C2321 1.403 . S
C2319 C2316 1.403 . S
C2319 C2320 1.524 . S
C2319 C2323 1.400 . S
C2320 H2305 0.960 . S
C2320 H2306 0.960 . S
C2320 H2307 0.960 . S
C2320 C2319 1.524 . S
C2321 C2318 1.403 . S
C2321 C2322 1.392 . S
C2321 C2325 1.495 . S
C2322 C2321 1.392 . S
C2322 C2323 1.385 . S
C2322 C2324 1.478 1_455 S
C2323 H2317 0.930 1_455 S
C2323 C2319 1.400 . S
C2323 C2322 1.385 . S
C2324 C2322 1.478 1_655 S
C2324 C2326 1.381 . S
C2324 C2330 1.383 . S
C2325 C2321 1.495 . S
C2325 H2331 0.959 . S
C2325 H2332 0.961 . S
C2325 H2333 0.960 . S
C2326 C2324 1.381 . S
C2326 C2327 1.394 . S
C2326 H2334 0.930 . S
C2327 C2326 1.394 . S
C2327 C2328 1.383 . S
C2327 H2335 0.929 . S
C2328 C2327 1.383 . S
C2328 C2329 1.377 . S
C2329 H2313 0.930 . S
C2329 C2328 1.377 . S
C2329 C2330 1.379 . S
C2330 H2314 0.931 1_655 S
C2330 C2324 1.383 . S
C2330 C2329 1.379 . S
H2331 C2325 0.959 . S
H2332 C2325 0.961 . S
H2333 C2325 0.960 . S
H2334 C2326 0.930 . S
H2335 C2327 0.929 . S
H2336 C2344 0.929 . S
H2337 C2346 0.930 . S
H2338 C2348 0.930 . S
H2339 C2351 0.929 . S
H2340 C2354 0.930 . S
H2341 C2356 0.960 . S
H2342 C2356 0.960 . S
H2343 C2356 0.960 . S
C2344 H2336 0.929 . S
C2344 C2345 1.377 . S
C2344 C2346 1.384 . S
C2345 C2344 1.377 . S
C2345 C2351 1.390 . S
C2346 H2337 0.930 . S
C2346 C2344 1.384 . S
C2346 C2347 1.372 . S
C2347 C2346 1.372 . S
C2347 C2348 1.400 . S
C2347 C2352 1.490 . S
C2348 H2338 0.930 . S
C2348 C2347 1.400 . S
C2348 C2351 1.386 . S
H2349 C2365 0.930 . S
H2350 C2366 0.931 . S
C2351 H2339 0.929 . S
C2351 C2345 1.390 . S
C2351 C2348 1.386 . S
C2352 C2347 1.490 . S
C2352 C2354 1.395 . S
C2352 C2355 1.403 . S
H2353 C2359 0.930 . S
C2354 H2340 0.930 . S
C2354 C2352 1.395 . S
C2354 C2357 1.403 . S
C2355 C2352 1.403 . S
C2355 C2356 1.524 . S
C2355 C2359 1.400 . S
C2356 H2341 0.960 . S
C2356 H2342 0.960 . S
C2356 H2343 0.960 . S
C2356 C2355 1.524 . S
C2357 C2354 1.403 . S
C2357 C2358 1.392 . S
C2357 C2361 1.495 . S
C2358 C2357 1.392 . S
C2358 C2359 1.385 . S
C2358 C2360 1.478 . S
C2359 H2353 0.930 . S
C2359 C2355 1.400 . S
C2359 C2358 1.385 . S
C2360 C2358 1.478 . S
C2360 C2362 1.381 . S
C2360 C2366 1.383 . S
C2361 C2357 1.495 . S
C2361 H2367 0.959 . S
C2361 H2368 0.961 . S
C2361 H2369 0.960 . S
C2362 C2360 1.381 . S
C2362 C2363 1.394 . S
C2362 H2370 0.930 . S
C2363 C2362 1.394 . S
C2363 C2364 1.383 . S
C2363 H2371 0.929 . S
C2364 C2363 1.383 . S
C2364 C2365 1.377 . S
C2365 H2349 0.930 . S
C2365 C2364 1.377 . S
C2365 C2366 1.379 . S
C2366 H2350 0.931 . S
C2366 C2360 1.383 . S
C2366 C2365 1.379 . S
H2367 C2361 0.959 . S
H2368 C2361 0.961 . S
H2369 C2361 0.960 . S
H2370 C2362 0.930 . S
H2371 C2363 0.929 . S
H2372 C2380 0.929 . S
H2373 C2382 0.930 . S
H2374 C2384 0.930 . S
H2375 C2387 0.929 . S
H2376 C2390 0.930 . S
H2377 C2392 0.960 . S
H2378 C2392 0.960 . S
H2379 C2392 0.960 . S
C2380 H2372 0.929 . S
C2380 C2381 1.377 . S
C2380 C2382 1.384 . S
C2381 C2380 1.377 . S
C2381 C2387 1.390 . S
C2382 H2373 0.930 . S
C2382 C2380 1.384 . S
C2382 C2383 1.372 . S
C2383 C2382 1.372 . S
C2383 C2384 1.400 . S
C2383 C2388 1.490 . S
C2384 H2374 0.930 . S
C2384 C2383 1.400 . S
C2384 C2387 1.386 . S
H2385 C2401 0.930 . S
H2386 C2402 0.931 . S
C2387 H2375 0.929 . S
C2387 C2381 1.390 . S
C2387 C2384 1.386 . S
C2388 C2383 1.490 . S
C2388 C2390 1.395 . S
C2388 C2391 1.403 1_655 S
H2389 C2395 0.930 . S
C2390 H2376 0.930 . S
C2390 C2388 1.395 . S
C2390 C2393 1.403 1_655 S
C2391 C2388 1.403 1_455 S
C2391 C2392 1.524 . S
C2391 C2395 1.400 . S
C2392 H2377 0.960 . S
C2392 H2378 0.960 . S
C2392 H2379 0.960 . S
C2392 C2391 1.524 . S
C2393 C2390 1.403 1_455 S
C2393 C2394 1.392 . S
C2393 C2397 1.495 1_455 S
C2394 C2393 1.392 . S
C2394 C2395 1.385 . S
C2394 C2396 1.478 . S
C2395 H2389 0.930 . S
C2395 C2391 1.400 . S
C2395 C2394 1.385 . S
C2396 C2394 1.478 . S
C2396 C2398 1.381 . S
C2396 C2402 1.383 . S
C2397 C2393 1.495 1_655 S
C2397 H2403 0.959 . S
C2397 H2404 0.961 . S
C2397 H2405 0.960 1_655 S
C2398 C2396 1.381 . S
C2398 C2399 1.394 . S
C2398 H2406 0.930 . S
C2399 C2398 1.394 . S
C2399 C2400 1.383 . S
C2399 H2407 0.929 . S
C2400 C2399 1.383 . S
C2400 C2401 1.377 . S
C2401 H2385 0.930 . S
C2401 C2400 1.377 . S
C2401 C2402 1.379 . S
C2402 H2386 0.931 . S
C2402 C2396 1.383 . S
C2402 C2401 1.379 . S
H2403 C2397 0.959 . S
H2404 C2397 0.961 . S
H2405 C2397 0.960 1_455 S
H2406 C2398 0.930 . S
H2407 C2399 0.929 . S
H2408 C2416 0.929 . S
H2409 C2418 0.930 . S
H2410 C2420 0.930 . S
H2411 C2423 0.929 . S
H2412 C2426 0.930 . S
H2413 C2428 0.960 . S
H2414 C2428 0.960 . S
H2415 C2428 0.960 . S
C2416 H2408 0.929 . S
C2416 C2417 1.377 . S
C2416 C2418 1.384 . S
C2417 C2416 1.377 . S
C2417 C2423 1.390 . S
C2418 H2409 0.930 . S
C2418 C2416 1.384 . S
C2418 C2419 1.372 . S
C2419 C2418 1.372 . S
C2419 C2420 1.400 . S
C2419 C2424 1.490 . S
C2420 H2410 0.930 . S
C2420 C2419 1.400 . S
C2420 C2423 1.386 . S
H2421 C2437 0.930 . S
H2422 C2438 0.931 . S
C2423 H2411 0.929 . S
C2423 C2417 1.390 . S
C2423 C2420 1.386 . S
C2424 C2419 1.490 . S
C2424 C2426 1.395 . S
C2424 C2427 1.403 . S
H2425 C2431 0.930 . S
C2426 H2412 0.930 . S
C2426 C2424 1.395 . S
C2426 C2429 1.403 . S
C2427 C2424 1.403 . S
C2427 C2428 1.524 . S
C2427 C2431 1.400 . S
C2428 H2413 0.960 . S
C2428 H2414 0.960 . S
C2428 H2415 0.960 . S
C2428 C2427 1.524 . S
C2429 C2426 1.403 . S
C2429 C2430 1.392 . S
C2429 C2433 1.495 . S
C2430 C2429 1.392 . S
C2430 C2431 1.385 . S
C2430 C2432 1.478 . S
C2431 H2425 0.930 . S
C2431 C2427 1.400 . S
C2431 C2430 1.385 . S
C2432 C2430 1.478 . S
C2432 C2434 1.381 . S
C2432 C2438 1.383 . S
C2433 C2429 1.495 . S
C2433 H2439 0.959 . S
C2433 H2440 0.961 . S
C2433 H2441 0.960 . S
C2434 C2432 1.381 . S
C2434 C2435 1.394 . S
C2434 H2442 0.930 . S
C2435 C2434 1.394 . S
C2435 C2436 1.383 . S
C2435 H2443 0.929 . S
C2436 C2435 1.383 . S
C2436 C2437 1.377 . S
C2437 H2421 0.930 . S
C2437 C2436 1.377 . S
C2437 C2438 1.379 . S
C2438 H2422 0.931 . S
C2438 C2432 1.383 . S
C2438 C2437 1.379 . S
H2439 C2433 0.959 . S
H2440 C2433 0.961 . S
H2441 C2433 0.960 . S
H2442 C2434 0.930 . S
H2443 C2435 0.929 . S
H2444 C2452 0.929 . S
H2445 C2454 0.930 . S
H2446 C2456 0.930 . S
H2447 C2459 0.929 1_556 S
H2448 C2462 0.930 . S
H2449 C2464 0.960 . S
H2450 C2464 0.960 . S
H2451 C2464 0.960 . S
C2452 H2444 0.929 . S
C2452 C2453 1.377 1_554 S
C2452 C2454 1.384 . S
C2453 C2452 1.377 1_556 S
C2453 C2459 1.390 1_556 S
C2454 H2445 0.930 . S
C2454 C2452 1.384 . S
C2454 C2455 1.372 . S
C2455 C2454 1.372 . S
C2455 C2456 1.400 . S
C2455 C2460 1.490 . S
C2456 H2446 0.930 . S
C2456 C2455 1.400 . S
C2456 C2459 1.386 . S
H2457 C2473 0.930 . S
H2458 C2474 0.931 . S
C2459 H2447 0.929 1_554 S
C2459 C2453 1.390 1_554 S
C2459 C2456 1.386 . S
C2460 C2455 1.490 . S
C2460 C2462 1.395 . S
C2460 C2463 1.403 . S
H2461 C2467 0.930 . S
C2462 H2448 0.930 . S
C2462 C2460 1.395 . S
C2462 C2465 1.403 . S
C2463 C2460 1.403 . S
C2463 C2464 1.524 . S
C2463 C2467 1.400 . S
C2464 H2449 0.960 . S
C2464 H2450 0.960 . S
C2464 H2451 0.960 . S
C2464 C2463 1.524 . S
C2465 C2462 1.403 . S
C2465 C2466 1.392 . S
C2465 C2469 1.495 . S
C2466 C2465 1.392 . S
C2466 C2467 1.385 . S
C2466 C2468 1.478 . S
C2467 H2461 0.930 . S
C2467 C2463 1.400 . S
C2467 C2466 1.385 . S
C2468 C2466 1.478 . S
C2468 C2470 1.381 . S
C2468 C2474 1.383 . S
C2469 C2465 1.495 . S
C2469 H2475 0.959 . S
C2469 H2476 0.961 . S
C2469 H2477 0.960 . S
C2470 C2468 1.381 . S
C2470 C2471 1.394 . S
C2470 H2478 0.930 . S
C2471 C2470 1.394 . S
C2471 C2472 1.383 . S
C2471 H2479 0.929 . S
C2472 C2471 1.383 . S
C2472 C2473 1.377 . S
C2473 H2457 0.930 . S
C2473 C2472 1.377 . S
C2473 C2474 1.379 . S
C2474 H2458 0.931 . S
C2474 C2468 1.383 . S
C2474 C2473 1.379 . S
H2475 C2469 0.959 . S
H2476 C2469 0.961 . S
H2477 C2469 0.960 . S
H2478 C2470 0.930 . S
H2479 C2471 0.929 . S
C473 C224 0.679 . S
C492 C21 0.731 . S
C509 C137 0.627 . S
C528 C50 0.664 . S
C545 C166 0.731 . S
C564 C79 0.821 . S
C581 C195 0.780 . S
C600 C108 0.703 . S
C617 C253 0.666 . S
C636 C456 0.736 . S
C653 C282 0.611 . S
C672 C369 0.562 . S
C689 C398 0.775 . S
C708 C311 0.746 . S
C725 C427 0.661 . S
C744 C340 0.752 . S
C761 C187 2.341 . S
C780 C15 2.263 . S
C797 C44 2.737 . S
C816 C218 2.712 . S
C833 C131 2.363 . S
C852 C71 2.418 . S
C869 C158 2.386 . S
C888 C100 2.349 . S
C905 C247 2.520 . S
C924 C421 2.512 . S
C941 C450 2.657 . S
C960 C276 2.656 . S
C977 C303 2.402 . S
C996 C361 2.386 . S
C1013 C334 2.335 . S
C1032 C390 2.399 . S
C1049 C42 2.655 . S
C1068 C160 2.596 . S
C1085 C189 2.423 . S
C1104 C73 2.425 . S
C1121 C102 2.085 . S
C1140 C216 2.162 . S
C1157 C129 2.697 . S
C1176 C13 2.723 . S
C1193 C392 2.413 . S
C1212 C274 2.467 . S
C1229 C305 2.616 . S
C1248 C419 2.669 . S
C1265 C448 2.417 . S
C1284 C332 2.396 . S
C1301 C245 2.400 . S
C1320 C363 2.345 . S
C1337 C271 1.549 . S
C1356 C8 1.520 . S
C1373 C440 1.745 1_554 S
C1392 C37 1.595 . S
C1409 C61 2.160 . S
C1428 C329 2.000 . S
C1445 C387 1.350 . S
C1464 C90 1.456 . S
C1481 C445 1.531 . S
C1500 C124 1.507 . S
C1517 C324 1.873 . S
C1536 C148 1.895 . S
C1553 C177 2.175 . S
C1572 C382 2.157 . S
C1589 C211 1.254 . S
C1608 C266 1.338 . S
C1625 C39 1.475 . S
C1644 C240 1.441 1_554 S
C1661 C269 1.937 . S
C1680 C208 2.046 1_556 S
C1697 C92 2.058 . S
C1716 C293 2.064 . S
C1733 C327 1.355 . S
C1752 C155 1.425 . S
C1769 C213 1.191 . S
C1788 C351 1.292 . S
C1805 C97 1.993 . S
C1824 C380 2.134 . S
C1841 C414 1.839 1_556 S
C1860 C150 1.997 . S
C1877 C34 1.626 . S
C1896 C443 1.524 . S
C1913 C411 1.358 . S
C1932 C153 1.269 . S
C1949 C295 1.882 . S
C1968 C182 1.785 . S
C1985 C206 2.335 . S
C2004 C358 2.231 . S
C2021 C119 1.673 . S
C2040 C242 1.523 . S
C2057 C300 1.293 . S
C2076 C95 1.225 . S
C2093 C353 1.678 . S
C2112 C3 1.699 . S
C2129 C237 2.021 . S
C2148 C32 2.040 . S
C2165 C416 1.499 . S
C2184 C66 1.487 . S
C2201 C184 1.236 . S
C2220 C385 1.222 . S
C2237 C63 1.913 . S
C2256 C409 1.937 . S
C2273 C121 1.910 . S
C2292 C438 1.914 . S
C2309 C10 1.669 . S
C2328 C356 1.645 . S
C2345 C68 1.448 . S
C2364 C322 1.543 1_556 S
C2381 C235 1.975 . S
C2400 C126 1.812 . S
C2417 C5 1.855 . S
C2436 C264 1.881 . S
C2453 C179 1.390 . S
C2472 C298 1.275 . S
