# Generated by pormake.
# Topology acs, (6)-cn, num edge types: 1
# Building blocks:
#     Node 0, Type 0, BuildingBlock: OJICUG_clean_sbu_0, # of connection points: 6
#     Node 1, Type 0, BuildingBlock: OJICUG_clean_sbu_0, # of connection points: 6
#     Edge 2, Type (0, 0), BuildingBlock: MIFKUJ_clean_linker_0, # of connection points: 2
#     Edge 3, Type (0, 0), BuildingBlock: MIFKUJ_clean_linker_0, # of connection points: 2
#     Edge 4, Type (0, 0), BuildingBlock: MIFKUJ_clean_linker_0, # of connection points: 2
#     Edge 5, Type (0, 0), BuildingBlock: MIFKUJ_clean_linker_0, # of connection points: 2
#     Edge 6, Type (0, 0), BuildingBlock: MIFKUJ_clean_linker_0, # of connection points: 2
#     Edge 7, Type (0, 0), BuildingBlock: MIFKUJ_clean_linker_0, # of connection points: 2
# Relax obj value: 0.000
# Max RMSD: 0.000
# Mean RMSD: 0.000
data_MOF--net-acs--node1-OJICUG_clean_sbu_0--edge1-MIFKUJ_clean_linker_0
_symmetry_space_group_name_H-M    P1
_symmetry_Int_Tables_number       1
_symmetry_cell_setting            triclinic
loop_
_symmetry_equiv_pos_as_xyz
'x, y, z'
_cell_length_a     27.236224
_cell_length_b     27.195588
_cell_length_c     28.292659
_cell_angle_alpha  90.025232
_cell_angle_beta   89.945329
_cell_angle_gamma 119.83168
loop_
_atom_site_label
_atom_site_type_symbol
_atom_site_fract_x
_atom_site_fract_y
_atom_site_fract_z
_atom_type_partial_charge
Sc0 Sc 0.7071 0.41737 0.23887 0.0
Sc1 Sc 0.57786 0.28837 0.23932 0.0
Sc2 Sc 0.70694 0.28768 0.23951 0.0
O3 O 0.66399 0.33115 0.23926 0.0
C4 C 0.78115 0.38843 0.16834 0.0
C5 C 0.60528 0.3915 0.16951 0.0
C6 C 0.60472 0.21406 0.16834 0.0
C7 C 0.60511 0.38969 0.31011 0.0
C8 C 0.78204 0.39054 0.30939 0.0
C9 C 0.60524 0.2127 0.30932 0.0
O10 O 0.7657 0.42178 0.1856 0.0
O11 O 0.57214 0.3434 0.18765 0.0
O12 O 0.65254 0.22832 0.18681 0.0
O13 O 0.65307 0.42294 0.29173 0.0
O14 O 0.76654 0.34188 0.29199 0.0
O15 O 0.5721 0.22768 0.29105 0.0
O16 O 0.76292 0.42209 0.29499 0.0
O17 O 0.57382 0.33881 0.29637 0.0
O18 O 0.6562 0.23254 0.29591 0.0
O19 O 0.65626 0.42231 0.18284 0.0
O20 O 0.76262 0.33819 0.18336 0.0
O21 O 0.57353 0.23385 0.18221 0.0
Sc22 Sc 0.28658 0.57828 0.73965 0.0
Sc23 Sc 0.41582 0.70727 0.7392 0.0
Sc24 Sc 0.28674 0.70797 0.73901 0.0
O25 O 0.3297 0.66449 0.73927 0.0
C26 C 0.21163 0.60511 0.66914 0.0
C27 C 0.38857 0.60595 0.66841 0.0
C28 C 0.38844 0.78294 0.6692 0.0
C29 C 0.3884 0.60414 0.80901 0.0
C30 C 0.21253 0.60721 0.81019 0.0
C31 C 0.38897 0.78158 0.81018 0.0
O32 O 0.23075 0.57356 0.68354 0.0
O33 O 0.41985 0.65683 0.68215 0.0
O34 O 0.33748 0.76311 0.68262 0.0
O35 O 0.33743 0.57333 0.79568 0.0
O36 O 0.23106 0.65746 0.79517 0.0
O37 O 0.42016 0.7618 0.79631 0.0
O38 O 0.22798 0.57387 0.79293 0.0
O39 O 0.42155 0.65224 0.79086 0.0
O40 O 0.34115 0.76732 0.79171 0.0
O41 O 0.34061 0.5727 0.68679 0.0
O42 O 0.22714 0.65377 0.68654 0.0
O43 O 0.42158 0.76796 0.68747 0.0
H44 H 0.48063 0.81289 0.86804 0.0
H45 H 0.51608 0.88553 0.92969 0.0
H46 H 0.38014 0.91936 0.90127 0.0
H47 H 0.34433 0.84701 0.8396 0.0
H48 H 0.4832 0.01646 0.90587 0.0
H49 H 0.37547 0.84872 -0.00182 0.0
H50 H 0.345 0.75287 0.02876 0.0
H51 H 0.5126 0.80914 0.08108 0.0
H52 H 0.54434 0.9052 0.0502 0.0
H53 H 0.51307 0.18276 0.11048 0.0
H54 H 0.47761 0.11012 0.04882 0.0
H55 H 0.61355 0.07629 0.07725 0.0
H56 H 0.64936 0.14863 0.13892 0.0
H57 H 0.5105 0.97919 0.07265 0.0
H58 H 0.61823 0.14692 0.98034 0.0
H59 H 0.64871 0.24277 0.94976 0.0
H60 H 0.48111 0.18651 0.89743 0.0
H61 H 0.44936 0.09045 0.92832 0.0
C62 C 0.4581 0.8356 0.87497 0.0
C63 C 0.40964 0.8241 0.84876 0.0
C64 C 0.4783 0.87693 0.91037 0.0
C65 C 0.45055 0.90759 0.92014 0.0
C66 C 0.40215 0.89614 0.89423 0.0
C67 C 0.38167 0.8546 0.8591 0.0
C68 C 0.47293 0.95283 0.95643 0.0
C69 C 0.48843 0.00822 0.94251 0.0
C70 C 0.48102 0.94216 0.0039 0.0
C71 C 0.46243 0.88406 0.02144 0.0
C72 C 0.40602 0.84052 0.0157 0.0
C73 C 0.38847 0.78619 0.03321 0.0
C74 C 0.42684 0.77495 0.05685 0.0
C75 C 0.48293 0.81793 0.06278 0.0
C76 C 0.50072 0.87233 0.04529 0.0
C77 C 0.53559 0.16005 0.10355 0.0
C78 C 0.58405 0.17155 0.12976 0.0
C79 C 0.51539 0.11872 0.06815 0.0
C80 C 0.54315 0.08806 0.05838 0.0
C81 C 0.59154 0.0995 0.08429 0.0
C82 C 0.61202 0.14105 0.11943 0.0
C83 C 0.52077 0.04282 0.02209 0.0
C84 C 0.50526 0.98743 0.03601 0.0
C85 C 0.51268 0.05349 0.97462 0.0
C86 C 0.53127 0.11159 0.95708 0.0
C87 C 0.58768 0.15513 0.96282 0.0
C88 C 0.60523 0.20946 0.94531 0.0
C89 C 0.56687 0.22069 0.92167 0.0
C90 C 0.51078 0.17772 0.91574 0.0
C91 C 0.49299 0.12332 0.93323 0.0
H92 H 0.58067 0.26262 0.90774 0.0
H93 H 0.41304 0.73302 0.07078 0.0
H94 H 0.4759 0.66626 0.60672 0.0
H95 H 0.51179 0.62876 0.54546 0.0
H96 H 0.38538 0.45828 0.58302 0.0
H97 H 0.34895 0.49519 0.64417 0.0
H98 H 0.4945 0.47305 0.57396 0.0
H99 H 0.36579 0.51033 0.48678 0.0
H100 H 0.32447 0.56786 0.45929 0.0
H101 H 0.48315 0.68715 0.39612 0.0
H102 H 0.5257 0.63062 0.42383 0.0
H103 H 0.51777 0.32938 0.37179 0.0
H104 H 0.48189 0.36688 0.43306 0.0
H105 H 0.60829 0.53736 0.3955 0.0
H106 H 0.64472 0.50046 0.33435 0.0
H107 H 0.49917 0.52259 0.40456 0.0
H108 H 0.62788 0.48531 0.49174 0.0
H109 H 0.6692 0.42778 0.51923 0.0
H110 H 0.51052 0.30849 0.5824 0.0
H111 H 0.46797 0.36501 0.55469 0.0
C112 C 0.45562 0.62079 0.60191 0.0
C113 C 0.4095 0.58373 0.63032 0.0
C114 C 0.4761 0.59948 0.56683 0.0
C115 C 0.45108 0.5408 0.55974 0.0
C116 C 0.40524 0.5037 0.58805 0.0
C117 C 0.38433 0.52494 0.62278 0.0
C118 C 0.47305 0.51811 0.52294 0.0
C119 C 0.49486 0.48322 0.53684 0.0
C120 C 0.47452 0.5325 0.47473 0.0
C121 C 0.44909 0.56653 0.4578 0.0
C122 C 0.39203 0.54908 0.46737 0.0
C123 C 0.36835 0.58145 0.45167 0.0
C124 C 0.4012 0.6312 0.42604 0.0
C125 C 0.45778 0.64862 0.41601 0.0
C126 C 0.48169 0.61639 0.43166 0.0
C127 C 0.53805 0.37485 0.3766 0.0
C128 C 0.58417 0.41191 0.3482 0.0
C129 C 0.51758 0.39616 0.41169 0.0
C130 C 0.54259 0.45484 0.41878 0.0
C131 C 0.58843 0.49194 0.39047 0.0
C132 C 0.60934 0.4707 0.35574 0.0
C133 C 0.52062 0.47753 0.45558 0.0
C134 C 0.49881 0.51242 0.44168 0.0
C135 C 0.51914 0.46313 0.50379 0.0
C136 C 0.54458 0.42911 0.52072 0.0
C137 C 0.60164 0.44656 0.51114 0.0
C138 C 0.62532 0.41419 0.52685 0.0
C139 C 0.59248 0.36445 0.55248 0.0
C140 C 0.53589 0.34702 0.56251 0.0
C141 C 0.51198 0.37924 0.54685 0.0
H142 H 0.61091 0.3395 0.56469 0.0
H143 H 0.38277 0.65615 0.41383 0.0
H144 H 0.84334 0.34167 0.13542 0.0
H145 H 0.91668 0.3794 0.07446 0.0
H146 H 0.88876 0.52061 0.05321 0.0
H147 H 0.81536 0.48337 0.11418 0.0
H148 H 0.89848 0.47276 0.96887 0.0
H149 H -0.00195 0.54172 0.11524 0.0
H150 H 0.02497 0.53387 0.19688 0.0
H151 H 0.08904 0.42651 0.14937 0.0
H152 H 0.06164 0.43298 0.06748 0.0
H153 H 0.15034 0.65398 0.84311 0.0
H154 H 0.07701 0.61625 0.90407 0.0
H155 H 0.10493 0.47504 0.92532 0.0
H156 H 0.17833 0.51228 0.86435 0.0
H157 H 0.09522 0.52289 0.00966 0.0
H158 H 0.99565 0.45393 0.86329 0.0
H159 H 0.96872 0.46177 0.78166 0.0
H160 H 0.90465 0.56913 0.82916 0.0
H161 H 0.93205 0.56266 0.91105 0.0
C162 C 0.85251 0.38058 0.11764 0.0
C163 C 0.8237 0.40968 0.1299 0.0
C164 C 0.89458 0.40216 0.08295 0.0
C165 C 0.9084 0.45302 0.05975 0.0
C166 C 0.87873 0.48136 0.07087 0.0
C167 C 0.83699 0.46011 0.10585 0.0
C168 C 0.95454 0.47714 0.0244 0.0
C169 C 0.94165 0.48442 0.97786 0.0
C170 C 0.01052 0.4912 0.03612 0.0
C171 C 0.0272 0.48732 0.0853 0.0
C172 C 0.01739 0.516 0.12225 0.0
C173 C 0.03282 0.51188 0.16856 0.0
C174 C 0.05854 0.47957 0.17833 0.0
C175 C 0.06901 0.45143 0.14176 0.0
C176 C 0.05356 0.45533 0.09539 0.0
C177 C 0.14119 0.61507 0.86089 0.0
C178 C 0.17 0.58597 0.84863 0.0
C179 C 0.09912 0.59349 0.89558 0.0
C180 C 0.08529 0.54263 0.91878 0.0
C181 C 0.11497 0.51429 0.90766 0.0
C182 C 0.1567 0.53554 0.87268 0.0
C183 C 0.03916 0.51851 0.95413 0.0
C184 C 0.05205 0.51123 0.00067 0.0
C185 C 0.98317 0.50445 0.94242 0.0
C186 C 0.96649 0.50833 0.89324 0.0
C187 C 0.9763 0.47965 0.85628 0.0
C188 C 0.96087 0.48376 0.80997 0.0
C189 C 0.93515 0.51607 0.8002 0.0
C190 C 0.92468 0.54421 0.83677 0.0
C191 C 0.94013 0.54031 0.88314 0.0
H192 H 0.9232 0.51918 0.76433 0.0
H193 H 0.07049 0.47646 0.21421 0.0
H194 H 0.32837 0.81023 0.60734 0.0
H195 H 0.36595 0.88319 0.54588 0.0
H196 H 0.53613 0.92716 0.58438 0.0
H197 H 0.49914 0.85424 0.64572 0.0
H198 H 0.521 0.02148 0.57389 0.0
H199 H 0.48495 0.85434 0.48866 0.0
H200 H 0.42776 0.75522 0.46218 0.0
H201 H 0.30838 0.79393 0.39761 0.0
H202 H 0.36457 0.89326 0.42425 0.0
H203 H 0.66531 0.18542 0.37118 0.0
H204 H 0.62773 0.11246 0.43264 0.0
H205 H 0.45755 0.06848 0.39414 0.0
H206 H 0.49454 0.14141 0.3328 0.0
H207 H 0.47267 0.97416 0.40464 0.0
H208 H 0.50872 0.1413 0.48986 0.0
H209 H 0.56591 0.24042 0.51635 0.0
H210 H 0.68529 0.20172 0.58092 0.0
H211 H 0.6291 0.10238 0.55427 0.0
C212 C 0.37379 0.83536 0.60274 0.0
C213 C 0.41074 0.82631 0.63139 0.0
C214 C 0.39515 0.87689 0.56754 0.0
C215 C 0.45376 0.91032 0.5606 0.0
C216 C 0.49076 0.90176 0.58929 0.0
C217 C 0.46948 0.85985 0.62413 0.0
C218 C 0.47648 0.95435 0.5234 0.0
C219 C 0.51109 0.01114 0.53681 0.0
C220 C 0.46245 0.94073 0.47523 0.0
C221 C 0.42869 0.88113 0.45887 0.0
C222 C 0.44626 0.84163 0.46915 0.0
C223 C 0.41408 0.78543 0.45403 0.0
C224 C 0.3644 0.76826 0.42831 0.0
C225 C 0.34686 0.8073 0.41757 0.0
C226 C 0.3789 0.86358 0.43262 0.0
C227 C 0.61989 0.16029 0.37579 0.0
C228 C 0.58294 0.16933 0.34713 0.0
C229 C 0.59853 0.11875 0.41098 0.0
C230 C 0.53992 0.08532 0.41792 0.0
C231 C 0.50292 0.09389 0.38923 0.0
C232 C 0.5242 0.13579 0.35439 0.0
C233 C 0.5172 0.04129 0.45513 0.0
C234 C 0.48258 0.9845 0.44171 0.0
C235 C 0.53123 0.05492 0.50329 0.0
C236 C 0.56499 0.11452 0.51966 0.0
C237 C 0.54741 0.15401 0.50937 0.0
C238 C 0.57959 0.21022 0.52449 0.0
C239 C 0.62927 0.22738 0.55022 0.0
C240 C 0.64681 0.18834 0.56096 0.0
C241 C 0.61477 0.13206 0.5459 0.0
H242 H 0.6541 0.27088 0.56194 0.0
H243 H 0.33957 0.72476 0.41659 0.0
H244 H 0.32828 0.51708 0.871 0.0
H245 H 0.36582 0.48141 0.93234 0.0
H246 H 0.53607 0.60609 0.8929 0.0
H247 H 0.49912 0.64234 0.83171 0.0
H248 H 0.52024 0.49623 0.90466 0.0
H249 H 0.48475 0.62934 0.9865 0.0
H250 H 0.42742 0.6719 0.01113 0.0
H251 H 0.31016 0.51714 0.081 0.0
H252 H 0.36614 0.47307 0.05565 0.0
H253 H 0.66541 0.47856 0.10751 0.0
H254 H 0.62787 0.51423 0.04618 0.0
H255 H 0.45762 0.38956 0.08562 0.0
H256 H 0.49457 0.35331 0.14681 0.0
H257 H 0.47345 0.49942 0.07386 0.0
H258 H 0.50894 0.36631 -0.00799 0.0
H259 H 0.56626 0.32374 0.96738 0.0
H260 H 0.68354 0.4785 0.89751 0.0
H261 H 0.62755 0.52258 0.92286 0.0
C262 C 0.37371 0.53694 0.87535 0.0
C263 C 0.41069 0.58269 0.84655 0.0
C264 C 0.39504 0.51656 0.91044 0.0
C265 C 0.45366 0.54129 0.91712 0.0
C266 C 0.4907 0.58646 0.88817 0.0
C267 C 0.46944 0.60729 0.85345 0.0
C268 C 0.47635 0.52036 0.95469 0.0
C269 C 0.51066 0.49756 0.94171 0.0
C270 C 0.46278 0.52118 0.00285 0.0
C271 C 0.42932 0.54768 0.0187 0.0
C272 C 0.44645 0.60417 0.00674 0.0
C273 C 0.41423 0.62861 0.0209 0.0
C274 C 0.36512 0.59726 0.04762 0.0
C275 C 0.34818 0.54137 0.06026 0.0
C276 C 0.38013 0.5166 0.04596 0.0
C277 C 0.61998 0.4587 0.10317 0.0
C278 C 0.58299 0.41296 0.13196 0.0
C279 C 0.59865 0.47908 0.06808 0.0
C280 C 0.54003 0.45436 0.0614 0.0
C281 C 0.503 0.40919 0.09034 0.0
C282 C 0.52425 0.38835 0.12507 0.0
C283 C 0.51734 0.47529 0.02382 0.0
C284 C 0.48304 0.49809 0.0368 0.0
C285 C 0.53092 0.47447 0.97566 0.0
C286 C 0.56438 0.44797 0.95981 0.0
C287 C 0.54724 0.39148 0.97177 0.0
C288 C 0.57945 0.36703 0.95761 0.0
C289 C 0.62857 0.39838 0.93089 0.0
C290 C 0.64551 0.45428 0.91826 0.0
C291 C 0.61357 0.47904 0.93256 0.0
H292 H 0.65344 0.37934 0.91992 0.0
H293 H 0.34025 0.6163 0.05859 0.0
H294 H 0.18429 0.51699 0.60799 0.0
H295 H 0.11151 0.48142 0.54646 0.0
H296 H 0.0679 0.6088 0.58342 0.0
H297 H 0.14068 0.64495 0.64475 0.0
H298 H 0.97359 0.4998 0.57383 0.0
H299 H 0.14021 0.62839 0.48772 0.0
H300 H 0.2389 0.66943 0.46049 0.0
H301 H 0.19967 0.51057 0.39702 0.0
H302 H 0.10077 0.46831 0.42443 0.0
H303 H 0.80938 0.47865 0.37054 0.0
H304 H 0.88216 0.51422 0.43207 0.0
H305 H 0.92578 0.38684 0.39511 0.0
H306 H 0.853 0.35069 0.33378 0.0
H307 H 0.02009 0.49585 0.4047 0.0
H308 H 0.85346 0.36726 0.49082 0.0
H309 H 0.75478 0.32621 0.51805 0.0
H310 H 0.794 0.48508 0.58151 0.0
H311 H 0.8929 0.52734 0.5541 0.0
C312 C 0.15929 0.53751 0.60301 0.0
C313 C 0.1684 0.5839 0.63124 0.0
C314 C 0.11786 0.51723 0.56777 0.0
C315 C 0.08454 0.54265 0.56039 0.0
C316 C 0.0932 0.58863 0.58865 0.0
C317 C 0.13503 0.60937 0.62349 0.0
C318 C 0.04041 0.52109 0.52327 0.0
C319 C 0.98376 0.4996 0.53677 0.0
C320 C 0.05378 0.51982 0.47513 0.0
C321 C 0.1132 0.54501 0.45856 0.0
C322 C 0.15273 0.60204 0.46832 0.0
C323 C 0.20868 0.62557 0.45277 0.0
C324 C 0.22557 0.5926 0.42711 0.0
C325 C 0.18651 0.53604 0.41692 0.0
C326 C 0.13048 0.51229 0.43242 0.0
C327 C 0.83438 0.45814 0.37552 0.0
C328 C 0.82527 0.41175 0.34729 0.0
C329 C 0.87582 0.47842 0.41076 0.0
C330 C 0.90914 0.45299 0.41815 0.0
C331 C 0.90048 0.40702 0.38989 0.0
C332 C 0.85865 0.38627 0.35504 0.0
C333 C 0.95326 0.47456 0.45526 0.0
C334 C 0.00991 0.49605 0.44176 0.0
C335 C 0.9399 0.47583 0.50341 0.0
C336 C 0.88047 0.45063 0.51998 0.0
C337 C 0.84095 0.39361 0.51021 0.0
C338 C 0.78499 0.37008 0.52577 0.0
C339 C 0.7681 0.40305 0.55143 0.0
C340 C 0.80716 0.45961 0.56161 0.0
C341 C 0.86319 0.48336 0.54611 0.0
H342 H 0.72481 0.38472 0.56355 0.0
H343 H 0.26886 0.61093 0.41499 0.0
loop_
_geom_bond_atom_site_label_1
_geom_bond_atom_site_label_2
_geom_bond_distance
_geom_bond_site_symmetry_2
_ccdc_geom_bond_type
Sc0 O3 2.025 . S
Sc0 O10 2.105 . S
Sc0 O13 2.105 . S
Sc0 O16 2.105 . S
Sc0 O19 2.105 . S
Sc1 O3 2.025 . S
Sc1 O11 2.105 . S
Sc1 O15 2.105 . S
Sc1 O17 2.105 . S
Sc1 O21 2.105 . S
Sc2 O3 2.025 . S
Sc2 O12 2.105 . S
Sc2 O14 2.105 . S
Sc2 O18 2.105 . S
Sc2 O20 2.105 . S
O3 Sc0 2.025 . S
O3 Sc1 2.025 . S
O3 Sc2 2.025 . S
C4 O10 1.268 . S
C4 O20 1.268 . S
C5 O11 1.268 . S
C5 O19 1.268 . S
C6 O12 1.268 . S
C6 O21 1.268 . S
C7 O13 1.268 . S
C7 O17 1.268 . S
C8 O14 1.268 . S
C8 O16 1.268 . S
C9 O15 1.268 . S
C9 O18 1.268 . S
O10 Sc0 2.105 . S
O10 C4 1.268 . S
O11 Sc1 2.105 . S
O11 C5 1.268 . S
O12 Sc2 2.105 . S
O12 C6 1.268 . S
O13 Sc0 2.105 . S
O13 C7 1.268 . S
O14 Sc2 2.105 . S
O14 C8 1.268 . S
O15 Sc1 2.105 . S
O15 C9 1.268 . S
O16 Sc0 2.105 . S
O16 C8 1.268 . S
O17 Sc1 2.105 . S
O17 C7 1.268 . S
O18 Sc2 2.105 . S
O18 C9 1.268 . S
O19 Sc0 2.105 . S
O19 C5 1.268 . S
O20 Sc2 2.105 . S
O20 C4 1.268 . S
O21 Sc1 2.105 . S
O21 C6 1.268 . S
Sc22 O25 2.025 . S
Sc22 O32 2.105 . S
Sc22 O35 2.105 . S
Sc22 O38 2.105 . S
Sc22 O41 2.105 . S
Sc23 O25 2.025 . S
Sc23 O33 2.105 . S
Sc23 O37 2.105 . S
Sc23 O39 2.105 . S
Sc23 O43 2.105 . S
Sc24 O25 2.025 . S
Sc24 O34 2.105 . S
Sc24 O36 2.105 . S
Sc24 O40 2.105 . S
Sc24 O42 2.105 . S
O25 Sc22 2.025 . S
O25 Sc23 2.025 . S
O25 Sc24 2.025 . S
C26 O32 1.268 . S
C26 O42 1.268 . S
C27 O33 1.268 . S
C27 O41 1.268 . S
C28 O34 1.268 . S
C28 O43 1.268 . S
C29 O35 1.268 . S
C29 O39 1.268 . S
C30 O36 1.268 . S
C30 O38 1.268 . S
C31 O37 1.268 . S
C31 O40 1.268 . S
O32 Sc22 2.105 . S
O32 C26 1.268 . S
O33 Sc23 2.105 . S
O33 C27 1.268 . S
O34 Sc24 2.105 . S
O34 C28 1.268 . S
O35 Sc22 2.105 . S
O35 C29 1.268 . S
O36 Sc24 2.105 . S
O36 C30 1.268 . S
O37 Sc23 2.105 . S
O37 C31 1.268 . S
O38 Sc22 2.105 . S
O38 C30 1.268 . S
O39 Sc23 2.105 . S
O39 C29 1.268 . S
O40 Sc24 2.105 . S
O40 C31 1.268 . S
O41 Sc22 2.105 . S
O41 C27 1.268 . S
O42 Sc24 2.105 . S
O42 C26 1.268 . S
O43 Sc23 2.105 . S
O43 C28 1.268 . S
H44 C62 0.951 . S
H45 C64 0.951 . S
H46 C66 0.950 . S
H47 C67 0.950 . S
H48 C69 0.950 . S
H49 C72 0.950 . S
H50 C73 0.950 . S
H51 C75 0.950 . S
H52 C76 0.950 . S
H53 C77 0.951 . S
H54 C79 0.951 . S
H55 C81 0.950 . S
H56 C82 0.950 . S
H57 C84 0.950 . S
H58 C87 0.950 . S
H59 C88 0.950 . S
H60 C90 0.950 . S
H61 C91 0.950 . S
C62 H44 0.951 . S
C62 C63 1.366 . S
C62 C64 1.388 . S
C63 C62 1.366 . S
C63 C67 1.385 . S
C64 H45 0.951 . S
C64 C62 1.388 . S
C64 C65 1.366 . S
C65 C64 1.366 . S
C65 C66 1.414 . S
C65 C68 1.499 . S
C66 H46 0.950 . S
C66 C65 1.414 . S
C66 C67 1.374 . S
C67 H47 0.950 . S
C67 C63 1.385 . S
C67 C66 1.374 . S
C68 C65 1.499 . S
C68 C69 1.373 1_565 S
C68 C70 1.389 1_556 S
C69 H48 0.950 . S
C69 C68 1.373 1_545 S
C69 C85 1.377 . S
C70 C68 1.389 1_554 S
C70 C71 1.524 . S
C70 C84 1.377 . S
C71 C70 1.524 . S
C71 C72 1.397 . S
C71 C76 1.363 . S
C72 H49 0.950 . S
C72 C71 1.397 . S
C72 C73 1.334 . S
C73 H50 0.950 . S
C73 C72 1.334 . S
C73 C74 1.287 . S
C74 C73 1.287 . S
C74 C75 1.524 . S
C74 H93 0.913 . S
C75 H51 0.950 . S
C75 C74 1.524 . S
C75 C76 1.415 . S
C76 H52 0.950 . S
C76 C71 1.363 . S
C76 C75 1.415 . S
C77 H53 0.951 . S
C77 C78 1.366 . S
C77 C79 1.388 . S
C78 C77 1.366 . S
C78 C82 1.385 . S
C79 H54 0.951 . S
C79 C77 1.388 . S
C79 C80 1.366 . S
C80 C79 1.366 . S
C80 C81 1.414 . S
C80 C83 1.499 . S
C81 H55 0.950 . S
C81 C80 1.414 . S
C81 C82 1.374 . S
C82 H56 0.950 . S
C82 C78 1.385 . S
C82 C81 1.374 . S
C83 C80 1.499 . S
C83 C84 1.373 1_545 S
C83 C85 1.389 1_554 S
C84 H57 0.950 . S
C84 C70 1.377 . S
C84 C83 1.373 1_565 S
C85 C69 1.377 . S
C85 C83 1.389 1_556 S
C85 C86 1.524 . S
C86 C85 1.524 . S
C86 C87 1.397 . S
C86 C91 1.363 . S
C87 H58 0.950 . S
C87 C86 1.397 . S
C87 C88 1.334 . S
C88 H59 0.950 . S
C88 C87 1.334 . S
C88 C89 1.287 . S
C89 C88 1.287 . S
C89 C90 1.524 . S
C89 H92 0.999 . S
C90 H60 0.950 . S
C90 C89 1.524 . S
C90 C91 1.415 . S
C91 H61 0.950 . S
C91 C86 1.363 . S
C91 C90 1.415 . S
H92 C89 0.999 . S
H93 C74 0.913 . S
H94 C112 0.951 . S
H95 C114 0.951 . S
H96 C116 0.950 . S
H97 C117 0.950 . S
H98 C119 0.950 . S
H99 C122 0.950 . S
H100 C123 0.950 . S
H101 C125 0.950 . S
H102 C126 0.950 . S
H103 C127 0.951 . S
H104 C129 0.951 . S
H105 C131 0.950 . S
H106 C132 0.950 . S
H107 C134 0.950 . S
H108 C137 0.950 . S
H109 C138 0.950 . S
H110 C140 0.950 . S
H111 C141 0.950 . S
C112 H94 0.951 . S
C112 C113 1.366 . S
C112 C114 1.388 . S
C113 C112 1.366 . S
C113 C117 1.385 . S
C114 H95 0.951 . S
C114 C112 1.388 . S
C114 C115 1.366 . S
C115 C114 1.366 . S
C115 C116 1.414 . S
C115 C118 1.499 . S
C116 H96 0.950 . S
C116 C115 1.414 . S
C116 C117 1.374 . S
C117 H97 0.950 . S
C117 C113 1.385 . S
C117 C116 1.374 . S
C118 C115 1.499 . S
C118 C119 1.373 . S
C118 C120 1.389 . S
C119 H98 0.950 . S
C119 C118 1.373 . S
C119 C135 1.377 . S
C120 C118 1.389 . S
C120 C121 1.524 . S
C120 C134 1.377 . S
C121 C120 1.524 . S
C121 C122 1.397 . S
C121 C126 1.363 . S
C122 H99 0.950 . S
C122 C121 1.397 . S
C122 C123 1.334 . S
C123 H100 0.950 . S
C123 C122 1.334 . S
C123 C124 1.287 . S
C124 C123 1.287 . S
C124 C125 1.524 . S
C124 H143 0.913 . S
C125 H101 0.950 . S
C125 C124 1.524 . S
C125 C126 1.415 . S
C126 H102 0.950 . S
C126 C121 1.363 . S
C126 C125 1.415 . S
C127 H103 0.951 . S
C127 C128 1.366 . S
C127 C129 1.388 . S
C128 C127 1.366 . S
C128 C132 1.385 . S
C129 H104 0.951 . S
C129 C127 1.388 . S
C129 C130 1.366 . S
C130 C129 1.366 . S
C130 C131 1.414 . S
C130 C133 1.499 . S
C131 H105 0.950 . S
C131 C130 1.414 . S
C131 C132 1.374 . S
C132 H106 0.950 . S
C132 C128 1.385 . S
C132 C131 1.374 . S
C133 C130 1.499 . S
C133 C134 1.373 . S
C133 C135 1.389 . S
C134 H107 0.950 . S
C134 C120 1.377 . S
C134 C133 1.373 . S
C135 C119 1.377 . S
C135 C133 1.389 . S
C135 C136 1.524 . S
C136 C135 1.524 . S
C136 C137 1.397 . S
C136 C141 1.363 . S
C137 H108 0.950 . S
C137 C136 1.397 . S
C137 C138 1.334 . S
C138 H109 0.950 . S
C138 C137 1.334 . S
C138 C139 1.287 . S
C139 C138 1.287 . S
C139 C140 1.524 . S
C139 H142 0.999 . S
C140 H110 0.950 . S
C140 C139 1.524 . S
C140 C141 1.415 . S
C141 H111 0.950 . S
C141 C136 1.363 . S
C141 C140 1.415 . S
H142 C139 0.999 . S
H143 C124 0.913 . S
H144 C162 0.951 . S
H145 C164 0.951 . S
H146 C166 0.950 . S
H147 C167 0.950 . S
H148 C169 0.950 . S
H149 C172 0.950 . S
H150 C173 0.950 . S
H151 C175 0.950 . S
H152 C176 0.950 . S
H153 C177 0.951 . S
H154 C179 0.951 . S
H155 C181 0.950 . S
H156 C182 0.950 . S
H157 C184 0.950 . S
H158 C187 0.950 . S
H159 C188 0.950 . S
H160 C190 0.950 . S
H161 C191 0.950 . S
C162 H144 0.951 . S
C162 C163 1.366 . S
C162 C164 1.388 . S
C163 C162 1.366 . S
C163 C167 1.385 . S
C164 H145 0.951 . S
C164 C162 1.388 . S
C164 C165 1.366 . S
C165 C164 1.366 . S
C165 C166 1.414 . S
C165 C168 1.499 . S
C166 H146 0.950 . S
C166 C165 1.414 . S
C166 C167 1.374 . S
C167 H147 0.950 . S
C167 C163 1.385 . S
C167 C166 1.374 . S
C168 C165 1.499 . S
C168 C169 1.373 1_554 S
C168 C170 1.389 1_655 S
C169 H148 0.950 . S
C169 C168 1.373 1_556 S
C169 C185 1.377 . S
C170 C168 1.389 1_455 S
C170 C171 1.524 . S
C170 C184 1.377 . S
C171 C170 1.524 . S
C171 C172 1.397 1_455 S
C171 C176 1.363 . S
C172 H149 0.950 . S
C172 C171 1.397 1_655 S
C172 C173 1.334 . S
C173 H150 0.950 . S
C173 C172 1.334 . S
C173 C174 1.287 1_655 S
C174 C173 1.287 1_455 S
C174 C175 1.524 . S
C174 H193 0.913 . S
C175 H151 0.950 . S
C175 C174 1.524 . S
C175 C176 1.415 . S
C176 H152 0.950 . S
C176 C171 1.363 . S
C176 C175 1.415 . S
C177 H153 0.951 . S
C177 C178 1.366 . S
C177 C179 1.388 . S
C178 C177 1.366 . S
C178 C182 1.385 . S
C179 H154 0.951 . S
C179 C177 1.388 . S
C179 C180 1.366 . S
C180 C179 1.366 . S
C180 C181 1.414 . S
C180 C183 1.499 . S
C181 H155 0.950 . S
C181 C180 1.414 . S
C181 C182 1.374 . S
C182 H156 0.950 . S
C182 C178 1.385 . S
C182 C181 1.374 . S
C183 C180 1.499 . S
C183 C184 1.373 1_556 S
C183 C185 1.389 1_455 S
C184 H157 0.950 . S
C184 C170 1.377 . S
C184 C183 1.373 1_554 S
C185 C169 1.377 . S
C185 C183 1.389 1_655 S
C185 C186 1.524 . S
C186 C185 1.524 . S
C186 C187 1.397 1_655 S
C186 C191 1.363 . S
C187 H158 0.950 . S
C187 C186 1.397 1_455 S
C187 C188 1.334 . S
C188 H159 0.950 . S
C188 C187 1.334 . S
C188 C189 1.287 1_455 S
C189 C188 1.287 1_655 S
C189 C190 1.524 . S
C189 H192 0.999 . S
C190 H160 0.950 . S
C190 C189 1.524 . S
C190 C191 1.415 . S
C191 H161 0.950 . S
C191 C186 1.363 . S
C191 C190 1.415 . S
H192 C189 0.999 . S
H193 C174 0.913 . S
H194 C212 0.951 . S
H195 C214 0.951 . S
H196 C216 0.950 . S
H197 C217 0.950 . S
H198 C219 0.950 . S
H199 C222 0.950 . S
H200 C223 0.950 . S
H201 C225 0.950 . S
H202 C226 0.950 . S
H203 C227 0.951 . S
H204 C229 0.951 . S
H205 C231 0.950 . S
H206 C232 0.950 . S
H207 C234 0.950 . S
H208 C237 0.950 . S
H209 C238 0.950 . S
H210 C240 0.950 . S
H211 C241 0.950 . S
C212 H194 0.951 . S
C212 C213 1.366 . S
C212 C214 1.388 . S
C213 C212 1.366 . S
C213 C217 1.385 . S
C214 H195 0.951 . S
C214 C212 1.388 . S
C214 C215 1.366 . S
C215 C214 1.366 . S
C215 C216 1.414 . S
C215 C218 1.499 . S
C216 H196 0.950 . S
C216 C215 1.414 . S
C216 C217 1.374 . S
C217 H197 0.950 . S
C217 C213 1.385 . S
C217 C216 1.374 . S
C218 C215 1.499 . S
C218 C219 1.373 1_565 S
C218 C220 1.389 . S
C219 H198 0.950 . S
C219 C218 1.373 1_545 S
C219 C235 1.377 . S
C220 C218 1.389 . S
C220 C221 1.524 . S
C220 C234 1.377 . S
C221 C220 1.524 . S
C221 C222 1.397 . S
C221 C226 1.363 . S
C222 H199 0.950 . S
C222 C221 1.397 . S
C222 C223 1.334 . S
C223 H200 0.950 . S
C223 C222 1.334 . S
C223 C224 1.287 . S
C224 C223 1.287 . S
C224 C225 1.524 . S
C224 H243 0.913 . S
C225 H201 0.950 . S
C225 C224 1.524 . S
C225 C226 1.415 . S
C226 H202 0.950 . S
C226 C221 1.363 . S
C226 C225 1.415 . S
C227 H203 0.951 . S
C227 C228 1.366 . S
C227 C229 1.388 . S
C228 C227 1.366 . S
C228 C232 1.385 . S
C229 H204 0.951 . S
C229 C227 1.388 . S
C229 C230 1.366 . S
C230 C229 1.366 . S
C230 C231 1.414 . S
C230 C233 1.499 . S
C231 H205 0.950 . S
C231 C230 1.414 . S
C231 C232 1.374 . S
C232 H206 0.950 . S
C232 C228 1.385 . S
C232 C231 1.374 . S
C233 C230 1.499 . S
C233 C234 1.373 1_545 S
C233 C235 1.389 . S
C234 H207 0.950 . S
C234 C220 1.377 . S
C234 C233 1.373 1_565 S
C235 C219 1.377 . S
C235 C233 1.389 . S
C235 C236 1.524 . S
C236 C235 1.524 . S
C236 C237 1.397 . S
C236 C241 1.363 . S
C237 H208 0.950 . S
C237 C236 1.397 . S
C237 C238 1.334 . S
C238 H209 0.950 . S
C238 C237 1.334 . S
C238 C239 1.287 . S
C239 C238 1.287 . S
C239 C240 1.524 . S
C239 H242 0.999 . S
C240 H210 0.950 . S
C240 C239 1.524 . S
C240 C241 1.415 . S
C241 H211 0.950 . S
C241 C236 1.363 . S
C241 C240 1.415 . S
H242 C239 0.999 . S
H243 C224 0.913 . S
H244 C262 0.951 . S
H245 C264 0.951 . S
H246 C266 0.950 . S
H247 C267 0.950 . S
H248 C269 0.950 . S
H249 C272 0.950 . S
H250 C273 0.950 . S
H251 C275 0.950 . S
H252 C276 0.950 . S
H253 C277 0.951 . S
H254 C279 0.951 . S
H255 C281 0.950 . S
H256 C282 0.950 . S
H257 C284 0.950 . S
H258 C287 0.950 . S
H259 C288 0.950 . S
H260 C290 0.950 . S
H261 C291 0.950 . S
C262 H244 0.951 . S
C262 C263 1.366 . S
C262 C264 1.388 . S
C263 C262 1.366 . S
C263 C267 1.385 . S
C264 H245 0.951 . S
C264 C262 1.388 . S
C264 C265 1.366 . S
C265 C264 1.366 . S
C265 C266 1.414 . S
C265 C268 1.499 . S
C266 H246 0.950 . S
C266 C265 1.414 . S
C266 C267 1.374 . S
C267 H247 0.950 . S
C267 C263 1.385 . S
C267 C266 1.374 . S
C268 C265 1.499 . S
C268 C269 1.373 . S
C268 C270 1.389 1_556 S
C269 H248 0.950 . S
C269 C268 1.373 . S
C269 C285 1.377 . S
C270 C268 1.389 1_554 S
C270 C271 1.524 . S
C270 C284 1.377 . S
C271 C270 1.524 . S
C271 C272 1.397 . S
C271 C276 1.363 . S
C272 H249 0.950 . S
C272 C271 1.397 . S
C272 C273 1.334 . S
C273 H250 0.950 . S
C273 C272 1.334 . S
C273 C274 1.287 . S
C274 C273 1.287 . S
C274 C275 1.524 . S
C274 H293 0.913 . S
C275 H251 0.950 . S
C275 C274 1.524 . S
C275 C276 1.415 . S
C276 H252 0.950 . S
C276 C271 1.363 . S
C276 C275 1.415 . S
C277 H253 0.951 . S
C277 C278 1.366 . S
C277 C279 1.388 . S
C278 C277 1.366 . S
C278 C282 1.385 . S
C279 H254 0.951 . S
C279 C277 1.388 . S
C279 C280 1.366 . S
C280 C279 1.366 . S
C280 C281 1.414 . S
C280 C283 1.499 . S
C281 H255 0.950 . S
C281 C280 1.414 . S
C281 C282 1.374 . S
C282 H256 0.950 . S
C282 C278 1.385 . S
C282 C281 1.374 . S
C283 C280 1.499 . S
C283 C284 1.373 . S
C283 C285 1.389 1_554 S
C284 H257 0.950 . S
C284 C270 1.377 . S
C284 C283 1.373 . S
C285 C269 1.377 . S
C285 C283 1.389 1_556 S
C285 C286 1.524 . S
C286 C285 1.524 . S
C286 C287 1.397 . S
C286 C291 1.363 . S
C287 H258 0.950 . S
C287 C286 1.397 . S
C287 C288 1.334 . S
C288 H259 0.950 . S
C288 C287 1.334 . S
C288 C289 1.287 . S
C289 C288 1.287 . S
C289 C290 1.524 . S
C289 H292 0.999 . S
C290 H260 0.950 . S
C290 C289 1.524 . S
C290 C291 1.415 . S
C291 H261 0.950 . S
C291 C286 1.363 . S
C291 C290 1.415 . S
H292 C289 0.999 . S
H293 C274 0.913 . S
H294 C312 0.951 . S
H295 C314 0.951 . S
H296 C316 0.950 . S
H297 C317 0.950 . S
H298 C319 0.950 . S
H299 C322 0.950 . S
H300 C323 0.950 . S
H301 C325 0.950 . S
H302 C326 0.950 . S
H303 C327 0.951 . S
H304 C329 0.951 . S
H305 C331 0.950 . S
H306 C332 0.950 . S
H307 C334 0.950 . S
H308 C337 0.950 . S
H309 C338 0.950 . S
H310 C340 0.950 . S
H311 C341 0.950 . S
C312 H294 0.951 . S
C312 C313 1.366 . S
C312 C314 1.388 . S
C313 C312 1.366 . S
C313 C317 1.385 . S
C314 H295 0.951 . S
C314 C312 1.388 . S
C314 C315 1.366 . S
C315 C314 1.366 . S
C315 C316 1.414 . S
C315 C318 1.499 . S
C316 H296 0.950 . S
C316 C315 1.414 . S
C316 C317 1.374 . S
C317 H297 0.950 . S
C317 C313 1.385 . S
C317 C316 1.374 . S
C318 C315 1.499 . S
C318 C319 1.373 1_455 S
C318 C320 1.389 . S
C319 H298 0.950 . S
C319 C318 1.373 1_655 S
C319 C335 1.377 . S
C320 C318 1.389 . S
C320 C321 1.524 . S
C320 C334 1.377 . S
C321 C320 1.524 . S
C321 C322 1.397 . S
C321 C326 1.363 . S
C322 H299 0.950 . S
C322 C321 1.397 . S
C322 C323 1.334 . S
C323 H300 0.950 . S
C323 C322 1.334 . S
C323 C324 1.287 . S
C324 C323 1.287 . S
C324 C325 1.524 . S
C324 H343 0.913 . S
C325 H301 0.950 . S
C325 C324 1.524 . S
C325 C326 1.415 . S
C326 H302 0.950 . S
C326 C321 1.363 . S
C326 C325 1.415 . S
C327 H303 0.951 . S
C327 C328 1.366 . S
C327 C329 1.388 . S
C328 C327 1.366 . S
C328 C332 1.385 . S
C329 H304 0.951 . S
C329 C327 1.388 . S
C329 C330 1.366 . S
C330 C329 1.366 . S
C330 C331 1.414 . S
C330 C333 1.499 . S
C331 H305 0.950 . S
C331 C330 1.414 . S
C331 C332 1.374 . S
C332 H306 0.950 . S
C332 C328 1.385 . S
C332 C331 1.374 . S
C333 C330 1.499 . S
C333 C334 1.373 1_655 S
C333 C335 1.389 . S
C334 H307 0.950 . S
C334 C320 1.377 . S
C334 C333 1.373 1_455 S
C335 C319 1.377 . S
C335 C333 1.389 . S
C335 C336 1.524 . S
C336 C335 1.524 . S
C336 C337 1.397 . S
C336 C341 1.363 . S
C337 H308 0.950 . S
C337 C336 1.397 . S
C337 C338 1.334 . S
C338 H309 0.950 . S
C338 C337 1.334 . S
C338 C339 1.287 . S
C339 C338 1.287 . S
C339 C340 1.524 . S
C339 H342 0.999 . S
C340 H310 0.950 . S
C340 C339 1.524 . S
C340 C341 1.415 . S
C341 H311 0.950 . S
C341 C336 1.363 . S
C341 C340 1.415 . S
H342 C339 0.999 . S
H343 C324 0.913 . S
C63 C31 1.480 . S
C78 C6 1.480 . S
C113 C27 1.480 . S
C128 C7 1.480 . S
C163 C4 1.480 . S
C178 C30 1.480 . S
C213 C28 1.480 . S
C228 C9 1.480 . S
C263 C29 1.480 . S
C278 C5 1.480 . S
C313 C26 1.480 . S
C328 C8 1.480 . S
