# Generated by pormake.
# Topology sxc, (6)-cn, num edge types: 1
# Building blocks:
#     Node 0, Type 0, BuildingBlock: BETGAK_clean_sbu_0, # of connection points: 6
#     Node 1, Type 0, BuildingBlock: BETGAK_clean_sbu_0, # of connection points: 6
#     Node 2, Type 0, BuildingBlock: BETGAK_clean_sbu_0, # of connection points: 6
#     Edge 3, Type (0, 0), BuildingBlock: MIFKUJ_clean_linker_0, # of connection points: 2
#     Edge 4, Type (0, 0), BuildingBlock: MIFKUJ_clean_linker_0, # of connection points: 2
#     Edge 5, Type (0, 0), BuildingBlock: MIFKUJ_clean_linker_0, # of connection points: 2
#     Edge 6, Type (0, 0), BuildingBlock: MIFKUJ_clean_linker_0, # of connection points: 2
#     Edge 7, Type (0, 0), BuildingBlock: MIFKUJ_clean_linker_0, # of connection points: 2
#     Edge 8, Type (0, 0), BuildingBlock: MIFKUJ_clean_linker_0, # of connection points: 2
#     Edge 9, Type (0, 0), BuildingBlock: MIFKUJ_clean_linker_0, # of connection points: 2
#     Edge 10, Type (0, 0), BuildingBlock: MIFKUJ_clean_linker_0, # of connection points: 2
#     Edge 11, Type (0, 0), BuildingBlock: MIFKUJ_clean_linker_0, # of connection points: 2
# Relax obj value: 0.219
# Max RMSD: 0.139
# Mean RMSD: 0.077
data_MOF--net-sxc--node1-BETGAK_clean_sbu_0--edge1-MIFKUJ_clean_linker_0
_symmetry_space_group_name_H-M    P1
_symmetry_Int_Tables_number       1
_symmetry_cell_setting            triclinic
loop_
_symmetry_equiv_pos_as_xyz
'x, y, z'
_cell_length_a     22.596767
_cell_length_b     20.534886
_cell_length_c     57.633266
_cell_angle_alpha  90.3774
_cell_angle_beta   94.070762
_cell_angle_gamma 99.454332
loop_
_atom_site_label
_atom_site_type_symbol
_atom_site_fract_x
_atom_site_fract_y
_atom_site_fract_z
_atom_type_partial_charge
La0 La 0.1748 0.0788 0.0232 0.0
La1 La 1.04803 0.06645 0.02646 0.0
C2 C 0.28089 0.10266 0.01102 0.0
C3 C 0.32128 0.16099 1.00413 0.0
C4 C 0.38314 0.16501 0.00934 0.0
C5 C 0.42194 0.22329 1.00549 0.0
C6 C 0.39919 0.27831 0.99638 0.0
C7 C 0.33735 0.27289 0.99007 0.0
C8 C 0.29856 0.21454 0.99395 0.0
C9 C 0.14214 0.06401 0.06665 0.0
C10 C 0.11554 0.21196 0.02499 0.0
C11 C 0.94209 1.04187 0.03875 0.0
C12 C 0.90007 0.98231 0.0434 0.0
C13 C 0.83877 0.98032 0.03736 0.0
C14 C 0.79869 0.92164 0.0391 0.0
C15 C 0.81958 0.86419 0.0469 0.0
C16 C 0.88077 0.86721 0.05395 0.0
C17 C 0.92083 0.92594 0.05219 0.0
C18 C 1.08065 0.08239 0.98306 0.0
C19 C 0.10728 0.93301 0.02429 0.0
O20 O 0.26724 0.10278 0.03266 0.0
O21 O 0.2339 0.08267 0.99668 0.0
O22 O 0.18352 1.03657 0.05798 0.0
O23 O 0.12165 0.09951 0.05119 0.0
O24 O 0.16176 0.18438 0.01893 0.0
O25 O 1.06673 0.17383 0.0314 0.0
O26 O 0.9553 0.04888 0.01711 0.0
O27 O 0.98963 0.05568 0.05331 0.0
O28 O 1.03911 0.1093 0.99184 0.0
O29 O 0.10108 0.04629 0.99835 0.0
O30 O 1.06025 0.9603 0.02962 0.0
O31 O 0.15701 0.97132 0.01886 0.0
H32 H 0.40114 0.12397 0.01725 0.0
H33 H 0.46925 0.22636 0.01086 0.0
H34 H 0.31879 0.31441 0.98284 0.0
H35 H 0.25079 0.21201 0.98968 0.0
H36 H 0.82225 1.02349 0.03049 0.0
H37 H 0.75192 0.9205 0.03321 0.0
H38 H 0.89788 0.82377 0.06023 0.0
H39 H 0.9681 0.92675 0.05707 0.0
La40 La 1.0641 0.08991 0.36324 0.0
La41 La 0.18934 0.11713 0.3525 0.0
C42 C 0.96941 0.08555 0.38412 0.0
C43 C 0.9109 0.10659 0.38064 0.0
C44 C 0.88981 0.12267 0.35834 0.0
C45 C 0.82822 0.11809 0.3529 0.0
C46 C 0.78724 0.0976 0.36978 0.0
C47 C 0.80957 0.09211 0.39298 0.0
C48 C 0.87125 0.09587 0.39832 0.0
C49 C 1.07785 0.08376 0.31776 0.0
C50 C 0.12847 0.24329 0.35767 0.0
C51 C 0.28145 0.11322 0.33122 0.0
C52 C 0.29446 0.06012 0.31588 0.0
C53 C 0.30824 1.00115 0.32531 0.0
C54 C 0.31795 0.95009 0.31081 0.0
C55 C 0.31468 0.95664 0.28644 0.0
C56 C 0.2989 1.01484 0.27695 0.0
C57 C 0.28888 0.06607 0.29154 0.0
C58 C 0.17277 0.12262 0.39771 0.0
C59 C 0.12626 0.96601 0.35781 0.0
O60 O 0.97854 1.04069 0.36918 0.0
O61 O 1.01657 0.1314 0.38816 0.0
O62 O 1.03361 0.05022 0.32792 0.0
O63 O 0.10754 0.12398 0.3326 0.0
O64 O 1.08017 0.20082 0.36301 0.0
O65 O 0.17752 0.22114 0.35199 0.0
O66 O 0.2787 0.10035 0.35341 0.0
O67 O 0.23754 0.14302 0.32327 0.0
O68 O 0.21491 0.16072 0.3877 0.0
O69 O 0.14525 0.08134 0.38277 0.0
O70 O 0.16655 1.00749 0.34712 0.0
O71 O 1.08591 0.99041 0.36928 0.0
H72 H 0.92021 0.13148 0.34455 0.0
H73 H 0.813 0.12298 0.33486 0.0
H74 H 0.77921 0.07831 0.4065 0.0
H75 H 0.88722 0.08409 0.41572 0.0
H76 H 0.31232 0.99444 0.34395 0.0
H77 H 0.33158 0.90696 0.31892 0.0
H78 H 0.29657 1.0217 0.2583 0.0
H79 H 0.2774 0.11069 0.28377 0.0
La80 La 0.11375 1.02152 0.6921 0.0
La81 La 0.13364 0.16518 0.68916 0.0
C82 C 1.08652 0.90812 0.70828 0.0
C83 C 1.03258 0.85704 0.70374 0.0
C84 C 1.03816 0.79378 0.6957 0.0
C85 C 0.98683 0.74702 0.68956 0.0
C86 C 0.92908 0.76297 0.69128 0.0
C87 C 0.92378 0.8257 0.69997 0.0
C88 C 0.9748 0.87219 0.70606 0.0
C89 C 0.10687 0.05049 0.64679 0.0
C90 C 0.98767 0.09577 0.68873 0.0
C91 C 0.16782 0.28282 0.67783 0.0
C92 C 0.22479 0.31772 0.67002 0.0
C93 C 0.24325 0.38442 0.67613 0.0
C94 C 0.30099 0.416 0.67194 0.0
C95 C 0.34142 0.3812 0.66167 0.0
C96 C 0.32194 0.31489 0.65479 0.0
C97 C 0.26402 0.28344 0.65888 0.0
C98 C 0.11665 0.12142 0.73169 0.0
C99 C 0.25966 0.09118 0.69087 0.0
O100 O 0.12091 0.92062 0.69094 0.0
O101 O 1.07826 0.96228 0.71887 0.0
O102 O 0.09891 0.99142 0.6549 0.0
O103 O 0.11618 0.08921 0.66418 0.0
O104 O 1.01315 1.04041 0.69226 0.0
O105 O 1.02815 0.1513 0.68543 0.0
O106 O 0.17119 0.2623 0.69922 0.0
O107 O 0.1367 0.23784 0.66358 0.0
O108 O 1.0949 0.17065 0.7225 0.0
O109 O 0.14816 0.09891 0.71706 0.0
O110 O 0.23425 0.14693 0.6886 0.0
O111 O 0.21924 1.03511 0.69344 0.0
H112 H 1.08221 0.78101 0.69372 0.0
H113 H 0.99232 0.69912 0.68288 0.0
H114 H 0.87999 0.83908 0.70201 0.0
H115 H 0.96868 0.92034 0.71227 0.0
H116 H 0.21379 0.41141 0.68495 0.0
H117 H 0.31485 0.46686 0.67772 0.0
H118 H 0.35183 0.28702 0.64663 0.0
H119 H 0.25063 0.23185 0.65398 0.0
H120 H 0.19939 0.31132 0.0072 0.0
H121 H 0.19823 0.43076 0.00629 0.0
H122 H 1.03491 0.40246 0.04198 0.0
H123 H 1.03482 0.28369 0.04212 0.0
H124 H 1.02173 0.48922 0.01246 0.0
H125 H 0.19105 0.46984 0.06637 0.0
H126 H 0.28965 0.44043 0.07913 0.0
H127 H 0.3732 0.5659 0.02726 0.0
H128 H 0.27499 0.59409 0.01367 0.0
H129 H 1.02222 0.83274 0.04093 0.0
H130 H 1.02339 0.71333 0.0414 0.0
H131 H 0.1887 0.74331 0.00697 0.0
H132 H 0.18882 0.86207 0.00737 0.0
H133 H 0.20111 0.65565 0.03564 0.0
H134 H 1.03387 0.67444 0.98122 0.0
H135 H 0.9359 0.70378 0.96751 0.0
H136 H 0.84941 0.58014 0.01923 0.0
H137 H 0.94693 0.55172 0.03366 0.0
C138 C 0.16322 0.33042 0.01495 0.0
C139 C 0.11728 0.28653 0.0248 0.0
C140 C 0.16275 0.39952 0.01455 0.0
C141 C 0.11688 0.42782 0.0244 0.0
C142 C 1.07108 0.38366 0.03416 0.0
C143 C 1.07119 0.31483 0.03433 0.0
C144 C 0.11544 0.50236 0.02441 0.0
C145 C 1.06109 0.52525 0.01787 0.0
C146 C 0.16649 0.55136 0.03076 0.0
C147 C 0.22544 0.53341 0.03879 0.0
C148 C 0.23034 0.49045 0.05748 0.0
C149 C 0.28621 0.47388 0.06485 0.0
C150 C 0.33766 0.50077 0.05389 0.0
C151 C 0.33334 0.54441 0.03559 0.0
C152 C 0.27756 0.56061 0.02801 0.0
C153 C 1.05883 0.81403 0.03338 0.0
C154 C 0.10539 0.85841 0.02409 0.0
C155 C 1.05931 0.74491 0.0335 0.0
C156 C 0.10578 0.71707 0.0239 0.0
C157 C 0.15209 0.76171 0.01463 0.0
C158 C 0.152 0.83054 0.01476 0.0
C159 C 0.10738 0.64254 0.02372 0.0
C160 C 0.16175 0.61964 0.03023 0.0
C161 C 1.05644 0.59354 0.01722 0.0
C162 C 0.99788 0.61158 0.00872 0.0
C163 C 0.99404 0.65416 0.98985 0.0
C164 C 0.93854 0.67069 0.98195 0.0
C165 C 0.88644 0.64425 0.99258 0.0
C166 C 0.88974 0.60114 0.0111 0.0
C167 C 0.94514 0.58485 0.01918 0.0
H168 H 0.84349 0.65694 0.9864 0.0
H169 H 0.38092 0.48808 0.05965 0.0
H170 H 0.39265 0.98671 0.25246 0.0
H171 H 0.48203 0.93754 0.25434 0.0
H172 H 0.39131 0.77112 0.29016 0.0
H173 H 0.30035 0.82024 0.28807 0.0
H174 H 0.43575 0.86696 0.32045 0.0
H175 H 0.52789 0.76021 0.2649 0.0
H176 H 0.56028 0.72765 0.2272 0.0
H177 H 0.65907 0.92271 0.21982 0.0
H178 H 0.6266 0.95694 0.25724 0.0
H179 H 0.72257 0.98527 0.38619 0.0
H180 H 0.63578 0.91672 0.36613 0.0
H181 H 0.62644 0.06634 0.31453 0.0
H182 H 0.71182 0.13731 0.3351 0.0
H183 H 0.6444 0.93289 0.2982 0.0
H184 H 0.51854 0.04432 0.3447 0.0
H185 H 0.4814 0.08088 0.381 0.0
H186 H 0.44193 0.87965 0.40263 0.0
H187 H 0.47947 0.84198 0.3665 0.0
C188 C 0.38977 0.93729 0.25923 0.0
C189 C 0.34173 0.9102 0.27225 0.0
C190 C 0.44159 0.90844 0.26019 0.0
C191 C 0.44501 0.85428 0.27474 0.0
C192 C 0.39063 0.81549 0.28015 0.0
C193 C 0.33849 0.84415 0.27917 0.0
C194 C 0.49591 0.86399 0.2929 0.0
C195 C 0.48175 0.8787 0.31562 0.0
C196 C 0.55608 0.88057 0.28693 0.0
C197 C 0.57477 0.8611 0.26402 0.0
C198 C 0.55612 0.79639 0.25518 0.0
C199 C 0.57461 0.77759 0.23385 0.0
C200 C 0.61176 0.82305 0.22114 0.0
C201 C 0.63042 0.88748 0.22971 0.0
C202 C 0.61209 0.90656 0.25103 0.0
C203 C 0.70064 1.00531 0.37121 0.0
C204 C 0.72492 0.06664 0.36204 0.0
C205 C 0.65147 0.9654 0.3596 0.0
C206 C 0.62619 0.98603 0.33864 0.0
C207 C 0.64654 0.04939 0.33053 0.0
C208 C 0.6951 0.08984 0.34232 0.0
C209 C 0.58178 0.93985 0.32415 0.0
C210 C 0.59839 0.9184 0.30275 0.0
C211 C 0.52353 0.91778 0.33107 0.0
C212 C 0.50291 0.94046 0.35314 0.0
C213 C 0.50282 1.00797 0.35736 0.0
C214 C 0.48141 1.02887 0.37785 0.0
C215 C 0.45962 0.98266 0.39417 0.0
C216 C 0.45907 0.91542 0.39001 0.0
C217 C 0.4804 0.89427 0.36954 0.0
H218 H 0.44295 0.99891 0.41 0.0
H219 H 0.62607 0.80836 0.20464 0.0
H220 H 0.82876 0.78854 0.66632 0.0
H221 H 0.73366 0.71416 0.65796 0.0
H222 H 0.80934 0.55493 0.6905 0.0
H223 H 0.905 0.62973 0.69933 0.0
H224 H 0.73105 0.51721 0.6486 0.0
H225 H 0.7313 0.62625 0.72228 0.0
H226 H 0.74793 0.72222 0.74927 0.0
H227 H 0.61705 0.81064 0.70846 0.0
H228 H 0.60015 0.71561 0.68096 0.0
H229 H 0.44367 0.32839 0.6717 0.0
H230 H 0.54785 0.38519 0.67269 0.0
H231 H 0.48636 0.56287 0.64868 0.0
H232 H 0.38218 0.50634 0.64755 0.0
H233 H 0.56099 0.58554 0.68724 0.0
H234 H 0.55812 0.47161 0.61401 0.0
H235 H 0.54263 0.37431 0.58767 0.0
H236 H 0.6785 0.29235 0.62817 0.0
H237 H 0.69451 0.389 0.65482 0.0
C238 C 0.82535 0.73768 0.67167 0.0
C239 C 0.87403 0.71533 0.68389 0.0
C240 C 0.77114 0.69515 0.66671 0.0
C241 C 0.76441 0.62938 0.67385 0.0
C242 C 0.81383 0.6056 0.68484 0.0
C243 C 0.86833 0.64836 0.68987 0.0
C244 C 0.7041 0.588 0.67167 0.0
C245 C 0.69388 0.53138 0.65725 0.0
C246 C 0.65576 0.60722 0.68281 0.0
C247 C 0.66489 0.66407 0.69945 0.0
C248 C 0.70635 0.66638 0.71896 0.0
C249 C 0.71576 0.72058 0.73435 0.0
C250 C 0.68362 0.77258 0.73053 0.0
C251 C 0.64187 0.77035 0.71135 0.0
C252 C 0.63231 0.7163 0.69587 0.0
C253 C 0.45242 0.37912 0.66612 0.0
C254 C 0.40468 0.41306 0.65965 0.0
C255 C 0.51199 0.41152 0.66673 0.0
C256 C 0.52484 0.47824 0.66074 0.0
C257 C 0.47738 0.51145 0.65348 0.0
C258 C 0.41791 0.47918 0.6529 0.0
C259 C 0.58712 0.51511 0.66372 0.0
C260 C 0.5979 0.57099 0.6785 0.0
C261 C 0.63573 0.49474 0.65299 0.0
C262 C 0.62681 0.43709 0.63669 0.0
C263 C 0.58433 0.43259 0.61744 0.0
C264 C 0.57557 0.37762 0.60239 0.0
C265 C 0.60936 0.32703 0.60629 0.0
C266 C 0.65222 0.33148 0.62518 0.0
C267 C 0.66118 0.38638 0.64026 0.0
H268 H 0.60247 0.28449 0.59464 0.0
H269 H 0.69098 0.81454 0.74246 0.0
H270 H 0.91102 0.19955 0.68294 0.0
H271 H 0.8024 0.19994 0.68269 0.0
H272 H 0.77237 0.99188 0.69444 0.0
H273 H 0.88154 0.99152 0.69422 0.0
H274 H 0.66468 0.99551 0.67792 0.0
H275 H 0.74749 0.1666 0.7333 0.0
H276 H 0.80871 0.27057 0.74864 0.0
H277 H 0.72619 0.37888 0.69558 0.0
H278 H 0.66525 0.27523 0.67956 0.0
H279 H 0.33653 0.98752 0.69561 0.0
H280 H 0.44506 0.98761 0.69566 0.0
H281 H 0.47459 0.19633 0.68516 0.0
H282 H 0.3654 0.19616 0.68565 0.0
H283 H 0.58247 0.1927 0.701 0.0
H284 H 0.50366 1.02066 0.64441 0.0
H285 H 0.44163 0.91655 0.6295 0.0
H286 H 0.5152 0.81121 0.68568 0.0
H287 H 0.57738 0.91502 0.70101 0.0
C288 C 0.88277 0.15272 0.68564 0.0
C289 C 0.91264 0.0956 0.68869 0.0
C290 C 0.81687 0.15296 0.68578 0.0
C291 C 0.77057 0.09617 0.68916 0.0
C292 C 0.80054 1.03883 0.69187 0.0
C293 C 0.86656 1.03859 0.69177 0.0
C294 C 0.69517 0.09608 0.68957 0.0
C295 C 0.6488 1.03979 0.68335 0.0
C296 C 0.66514 0.15102 0.69598 0.0
C297 C 0.70254 0.21306 0.70504 0.0
C298 C 0.74287 0.2125 0.72474 0.0
C299 C 0.77748 0.27134 0.73354 0.0
C300 C 0.77158 0.33119 0.72296 0.0
C301 C 0.73098 0.33234 0.70358 0.0
C302 C 0.69647 0.27357 0.69462 0.0
C303 C 0.36465 1.03458 0.69314 0.0
C304 C 0.33464 0.09169 0.69057 0.0
C305 C 0.43053 1.03466 0.69287 0.0
C306 C 0.4767 0.09181 0.68979 0.0
C307 C 0.44656 0.14914 0.6875 0.0
C308 C 0.38054 0.14907 0.68776 0.0
C309 C 0.55211 0.09222 0.6893 0.0
C310 C 0.59845 0.14853 0.69551 0.0
C311 C 0.58217 1.03742 0.68287 0.0
C312 C 0.5447 0.97544 0.67393 0.0
C313 C 0.50638 0.97529 0.65361 0.0
C314 C 0.47126 0.9164 0.64509 0.0
C315 C 0.47444 0.85734 0.65666 0.0
C316 C 0.51283 0.85702 0.67676 0.0
C317 C 0.54803 0.91581 0.68536 0.0
H318 H 0.44722 0.8118 0.65004 0.0
H319 H 0.79828 0.37673 0.72985 0.0
H320 H 0.70343 0.83742 0.05899 0.0
H321 H 0.63156 0.73621 0.05019 0.0
H322 H 0.77143 0.64592 0.02241 0.0
H323 H 0.84308 0.74745 0.03034 0.0
H324 H 0.67569 0.63464 0.99264 0.0
H325 H 0.71413 0.59673 0.07382 0.0
H326 H 0.72305 0.623 0.11585 0.0
H327 H 0.53621 0.64172 0.11311 0.0
H328 H 0.52634 0.61647 0.07097 0.0
H329 H 0.51414 0.30501 0.98289 0.0
H330 H 0.58535 0.4075 0.99025 0.0
H331 H 0.44514 0.49939 0.01699 0.0
H332 H 0.37427 0.39677 0.01056 0.0
H333 H 0.54115 0.50979 0.04717 0.0
H334 H 0.50332 0.54664 0.96566 0.0
H335 H 0.49526 0.51886 0.92375 0.0
H336 H 0.68219 0.50026 0.92733 0.0
H337 H 0.69119 0.52703 0.96935 0.0
C338 C 0.71894 0.79567 0.05124 0.0
C339 C 0.77868 0.80028 0.04528 0.0
C340 C 0.67805 0.73785 0.04639 0.0
C341 C 0.69656 0.68373 0.03574 0.0
C342 C 0.75669 0.68728 0.03069 0.0
C343 C 0.79755 0.74505 0.03544 0.0
C344 C 0.65233 0.6252 0.02825 0.0
C345 C 0.6468 0.60665 1.00461 0.0
C346 C 0.61384 0.59012 0.04382 0.0
C347 C 0.61967 0.60539 0.06917 0.0
C348 C 0.67507 0.60703 0.08213 0.0
C349 C 0.68027 0.62162 0.10599 0.0
C350 C 0.63028 0.63421 0.11713 0.0
C351 C 0.57493 0.63206 0.10445 0.0
C352 C 0.56949 0.61756 0.08058 0.0
C353 C 0.49836 0.34745 0.99002 0.0
C354 C 0.43887 0.3429 0.99628 0.0
C355 C 0.53887 0.40598 0.99404 0.0
C356 C 0.52018 0.46078 1.00414 0.0
C357 C 0.46005 0.45745 0.00917 0.0
C358 C 0.4196 0.39901 1.00526 0.0
C359 C 0.56439 0.51936 0.01156 0.0
C360 C 0.56998 0.53785 0.0352 0.0
C361 C 0.60306 0.55421 0.99601 0.0
C362 C 0.59776 0.53822 0.97071 0.0
C363 C 0.54259 0.53607 0.95756 0.0
C364 C 0.53788 0.52062 0.93377 0.0
C365 C 0.58814 0.50763 0.9229 0.0
C366 C 0.64327 0.51024 0.93578 0.0
C367 C 0.64822 0.52562 0.95958 0.0
H368 H 0.5844 0.49568 0.90447 0.0
H369 H 0.6344 0.64548 0.13561 0.0
H370 H 0.21583 0.34459 0.34452 0.0
H371 H 0.21509 0.46345 0.34399 0.0
H372 H 1.03905 0.43239 0.37027 0.0
H373 H 1.03901 0.31274 0.37021 0.0
H374 H 1.03922 0.5257 0.34058 0.0
H375 H 0.1804 0.49906 0.40422 0.0
H376 H 0.26938 0.46283 0.42407 0.0
H377 H 0.3838 0.57881 0.37801 0.0
H378 H 0.29538 0.61505 0.35767 0.0
H379 H 1.04294 0.86497 0.37375 0.0
H380 H 1.04317 0.7457 0.37324 0.0
H381 H 0.21086 0.77669 0.34057 0.0
H382 H 0.21063 0.89635 0.34097 0.0
H383 H 0.21519 0.6842 0.37339 0.0
H384 H 1.07305 0.71199 0.31029 0.0
H385 H 0.98368 0.74872 0.29098 0.0
H386 H 0.87044 0.63104 0.33699 0.0
H387 H 0.95929 0.59432 0.35681 0.0
C388 C 0.17672 0.36262 0.35029 0.0
C389 C 0.12756 0.31756 0.35755 0.0
C390 C 0.17657 0.43158 0.35012 0.0
C391 C 0.12754 0.45913 0.35753 0.0
C392 C 1.07794 0.41404 0.36449 0.0
C393 C 1.07794 0.34484 0.36455 0.0
C394 C 0.12789 0.53409 0.35783 0.0
C395 C 1.0776 0.55988 0.34813 0.0
C396 C 0.17796 0.58082 0.36707 0.0
C397 C 0.2312 0.55922 0.37927 0.0
C398 C 0.2245 0.51646 0.39821 0.0
C399 C 0.27483 0.49597 0.40957 0.0
C400 C 0.33218 0.51835 0.40227 0.0
C401 C 0.33933 0.56142 0.38362 0.0
C402 C 0.28913 0.58199 0.37218 0.0
C403 C 1.08001 0.8468 0.36637 0.0
C404 C 0.12674 0.89171 0.35736 0.0
C405 C 1.07994 0.77777 0.36599 0.0
C406 C 0.12673 0.75031 0.35666 0.0
C407 C 0.17388 0.79519 0.3479 0.0
C408 C 0.17366 0.8643 0.34807 0.0
C409 C 0.12654 0.67555 0.35622 0.0
C410 C 0.17685 0.64989 0.36588 0.0
C411 C 1.07641 0.62896 0.34705 0.0
C412 C 1.02292 0.65096 0.3352 0.0
C413 C 1.02915 0.69438 0.31642 0.0
C414 C 0.97858 0.71512 0.30536 0.0
C415 C 0.92143 0.69237 0.31279 0.0
C416 C 0.91474 0.6487 0.33128 0.0
C417 C 0.96519 0.62787 0.34242 0.0
H418 H 0.88232 0.70847 0.3042 0.0
H419 H 0.3711 0.50244 0.41109 0.0
H420 H 0.15165 0.17168 0.29204 0.0
H421 H 0.1612 0.17031 0.24988 0.0
H422 H 1.02987 0.99218 0.2429 0.0
H423 H 1.01965 0.99426 0.2849 0.0
H424 H 0.1975 0.09489 0.22003 0.0
H425 H 0.9529 0.97842 0.18997 0.0
H426 H 0.85026 0.97344 0.20266 0.0
H427 H 0.90483 0.15789 0.23981 0.0
H428 H 1.00756 0.16439 0.22711 0.0
H429 H 0.18919 0.99339 0.10141 0.0
H430 H 0.17732 0.99819 0.14322 0.0
H431 H 1.06244 0.14492 0.13209 0.0
H432 H 1.07333 0.13903 0.09 0.0
H433 H 1.01802 0.066 0.16389 0.0
H434 H 0.21576 0.18189 0.15452 0.0
H435 H 0.31908 0.19899 0.14188 0.0
H436 H 0.35934 1.03712 0.18358 0.0
H437 H 0.25595 1.0184 0.1962 0.0
C438 C 0.12493 0.1321 0.28154 0.0
C439 C 1.08475 0.08317 0.29201 0.0
C440 C 0.13038 0.13131 0.2573 0.0
C441 C 1.09564 0.08172 0.24271 0.0
C442 C 1.05632 1.03213 0.25332 0.0
C443 C 1.05067 1.03312 0.27751 0.0
C444 C 0.10079 0.08169 0.2166 0.0
C445 C 0.15806 0.08841 0.20785 0.0
C446 C 1.04985 0.07451 0.20024 0.0
C447 C 0.98806 0.0715 0.20777 0.0
C448 C 0.94292 1.01802 0.20077 0.0
C449 C 0.88475 1.01492 0.20798 0.0
C450 C 0.87109 0.06521 0.22209 0.0
C451 C 0.91553 0.11885 0.22895 0.0
C452 C 0.97375 0.12223 0.22177 0.0
C453 C 0.16127 1.02669 0.10781 0.0
C454 C 0.13255 0.0661 0.09219 0.0
C455 C 0.15476 1.02973 0.1319 0.0
C456 C 0.11982 0.07291 0.1413 0.0
C457 C 1.08991 0.11128 0.1256 0.0
C458 C 1.09624 0.108 0.10143 0.0
C459 C 0.11468 0.0779 0.16734 0.0
C460 C 1.05743 0.0722 0.17608 0.0
C461 C 0.1657 0.08725 0.18368 0.0
C462 C 0.22789 0.09831 0.1761 0.0
C463 C 0.24649 0.14959 0.16084 0.0
C464 C 0.3051 0.15962 0.1537 0.0
C465 C 0.34569 0.11904 0.16186 0.0
C466 C 0.32781 0.06843 0.17723 0.0
C467 C 0.26922 0.0581 0.18439 0.0
H468 H 0.39106 0.12691 0.15632 0.0
H469 H 0.82604 0.06267 0.22767 0.0
H470 H 0.22736 0.2101 0.43215 0.0
H471 H 0.21497 0.2054 0.47406 0.0
H472 H 1.08945 1.02354 0.46345 0.0
H473 H 0.10007 1.02978 0.42148 0.0
H474 H 1.04874 0.08945 0.49416 0.0
H475 H 0.24511 1.03625 0.4871 0.0
H476 H 0.34931 0.052 0.47539 0.0
H477 H 0.3918 0.23151 0.51618 0.0
H478 H 0.28758 0.21726 0.5279 0.0
H479 H 1.06465 0.96912 0.60986 0.0
H480 H 1.07442 0.98873 0.5684 0.0
H481 H 0.16843 0.18569 0.58439 0.0
H482 H 0.15822 0.16614 0.62621 0.0
H483 H 0.22524 0.11919 0.55175 0.0
H484 H 1.02614 0.16378 0.56057 0.0
H485 H 0.92235 0.14051 0.57262 0.0
H486 H 0.88595 0.96703 0.52856 0.0
H487 H 0.98983 0.98873 0.51649 0.0
C488 C 0.1971 0.1691 0.43876 0.0
C489 C 0.16508 0.1201 0.42336 0.0
C490 C 0.19029 0.16611 0.46288 0.0
C491 C 0.15205 0.11332 0.47243 0.0
C492 C 0.11941 0.06486 0.4569 0.0
C493 C 0.12569 0.06828 0.43277 0.0
C494 C 0.14556 0.10859 0.4984 0.0
C495 C 1.08761 0.09523 0.50661 0.0
C496 C 0.19571 0.11735 0.51516 0.0
C497 C 0.25838 0.12607 0.50816 0.0
C498 C 0.27656 0.07934 0.49343 0.0
C499 C 0.33564 0.08795 0.48682 0.0
C500 C 0.3771 0.14283 0.49498 0.0
C501 C 0.3596 0.1891 0.50983 0.0
C502 C 0.30055 0.18077 0.51648 0.0
C503 C 1.08686 1.01699 0.60461 0.0
C504 C 0.11001 0.06628 0.62148 0.0
C505 C 1.0924 1.0282 0.58077 0.0
C506 C 0.12182 0.08894 0.57295 0.0
C507 C 0.14531 0.13841 0.58979 0.0
C508 C 0.13901 0.12744 0.61375 0.0
C509 C 0.12864 0.09959 0.54731 0.0
C510 C 0.18656 0.11387 0.53921 0.0
C511 C 1.07854 0.09063 0.53062 0.0
C512 C 1.01596 0.0776 0.53778 0.0
C513 C 0.99616 0.12039 0.55358 0.0
C514 C 0.93728 0.10752 0.5604 0.0
C515 C 0.89762 0.05225 0.5514 0.0
C516 C 0.91673 1.00979 0.53553 0.0
C517 C 0.9756 1.02239 0.52868 0.0
H518 H 0.85205 1.04238 0.5567 0.0
H519 H 0.42282 0.1494 0.48985 0.0
H520 H 1.05372 0.17532 0.76299 0.0
H521 H 1.05486 0.1622 0.80497 0.0
H522 H 0.17903 1.02466 0.8014 0.0
H523 H 0.17768 1.03753 0.75875 0.0
H524 H 1.09396 0.98433 0.83315 0.0
H525 H 0.22923 0.18254 0.82065 0.0
H526 H 0.26271 0.29148 0.80396 0.0
H527 H 0.12231 0.36947 0.83572 0.0
H528 H 1.0874 0.26069 0.85234 0.0
H529 H 0.14922 1.00867 0.95875 0.0
H530 H 0.16225 1.00884 0.91668 0.0
H531 H 1.04758 0.15645 0.90758 0.0
H532 H 1.03511 0.15677 0.94936 0.0
H533 H 0.13986 0.18792 0.88237 0.0
H534 H 1.00057 0.98746 0.8925 0.0
H535 H 0.96661 0.87826 0.90896 0.0
H536 H 0.11549 0.80455 0.88185 0.0
H537 H 0.1508 0.91365 0.86549 0.0
C538 C 1.08132 0.142 0.77099 0.0
C539 C 0.11608 0.10802 0.75731 0.0
C540 C 1.08207 0.1347 0.7952 0.0
C541 C 0.11788 0.09335 0.80678 0.0
C542 C 0.1512 0.05727 0.79311 0.0
C543 C 0.15051 0.0647 0.76866 0.0
C544 C 0.12078 0.08984 0.83305 0.0
C545 C 0.10511 1.0288 0.8439 0.0
C546 C 0.13436 0.14761 0.84742 0.0
C547 C 0.15542 0.21328 0.8376 0.0
C548 C 0.20523 0.22279 0.82395 0.0
C549 C 0.2245 0.28454 0.81451 0.0
C550 C 0.19459 0.33733 0.81874 0.0
C551 C 0.14541 0.32852 0.83245 0.0
C552 C 0.1259 0.26684 0.8419 0.0
C553 C 0.12694 1.04125 0.94776 0.0
C554 C 1.09094 0.08258 0.95756 0.0
C555 C 0.1341 1.04107 0.92359 0.0
C556 C 0.10543 0.08219 0.90853 0.0
C557 C 1.07033 0.12411 0.9185 0.0
C558 C 1.06305 0.12413 0.94253 0.0
C559 C 0.11179 0.0826 0.88252 0.0
C560 C 0.12922 0.14327 0.87169 0.0
C561 C 0.09994 1.02449 0.86826 0.0
C562 C 1.07872 0.95891 0.87802 0.0
C563 C 1.02634 0.94811 0.89022 0.0
C564 C 1.00679 0.88622 0.89949 0.0
C565 C 1.03898 0.83456 0.89651 0.0
C566 C 1.09068 0.84465 0.88418 0.0
C567 C 0.11046 0.90649 0.8749 0.0
H568 H 1.02378 0.78667 0.90371 0.0
H569 H 0.20957 0.3851 0.81142 0.0
loop_
_geom_bond_atom_site_label_1
_geom_bond_atom_site_label_2
_geom_bond_distance
_geom_bond_site_symmetry_2
_ccdc_geom_bond_type
La0 C2 2.928 . S
La0 O20 2.521 . S
La0 O21 2.628 1_554 S
La0 O22 2.554 . S
La0 O23 2.757 1_545 S
La0 O24 2.470 . S
La0 O29 2.482 1_554 S
La0 O31 2.503 1_545 S
La1 C11 2.928 . S
La1 O23 2.482 1_655 S
La1 O25 2.503 1_565 S
La1 O26 2.521 1_554 S
La1 O27 2.628 . S
La1 O28 2.554 1_554 S
La1 O29 2.757 1_664 S
La1 O30 2.468 1_554 S
C2 La0 2.928 . S
C2 C3 1.503 . S
C2 O20 1.261 . S
C2 O21 1.243 1_554 S
C3 C2 1.503 . S
C3 C4 1.394 . S
C3 C8 1.373 1_554 S
C4 C3 1.394 . S
C4 C5 1.380 . S
C4 H32 0.930 . S
C5 C4 1.380 . S
C5 C6 1.376 . S
C5 H33 0.930 . S
C6 C5 1.376 . S
C6 C7 1.370 1_554 S
C7 C6 1.370 1_556 S
C7 C8 1.396 . S
C7 H34 0.929 . S
C8 C3 1.373 1_556 S
C8 C7 1.396 . S
C8 H35 0.929 . S
C9 O22 1.240 . S
C9 O23 1.289 1_545 S
C10 O24 1.258 . S
C10 O25 1.256 1_455 S
C11 La1 2.928 . S
C11 C12 1.503 . S
C11 O26 1.261 1_554 S
C11 O27 1.243 . S
C12 C11 1.503 . S
C12 C13 1.394 1_554 S
C12 C17 1.373 . S
C13 C12 1.394 1_556 S
C13 C14 1.380 . S
C13 H36 0.930 . S
C14 C13 1.380 . S
C14 C15 1.376 1_556 S
C14 H37 0.930 . S
C15 C14 1.376 1_554 S
C15 C16 1.370 . S
C16 C15 1.370 . S
C16 C17 1.396 . S
C16 H38 0.929 . S
C17 C12 1.373 . S
C17 C16 1.396 . S
C17 H39 0.929 . S
C18 O28 1.240 1_445 S
C18 O29 1.289 . S
C19 O30 1.254 1_454 S
C19 O31 1.256 . S
O20 La0 2.521 . S
O20 C2 1.261 . S
O21 La0 2.628 1_556 S
O21 C2 1.243 1_556 S
O22 La0 2.554 . S
O22 C9 1.240 . S
O23 La0 2.757 1_565 S
O23 La1 2.482 1_455 S
O23 C9 1.289 1_565 S
O24 La0 2.470 . S
O24 C10 1.258 . S
O25 La1 2.503 1_545 S
O25 C10 1.256 1_655 S
O26 La1 2.521 1_556 S
O26 C11 1.261 1_556 S
O27 La1 2.628 . S
O27 C11 1.243 . S
O28 La1 2.554 1_556 S
O28 C18 1.240 1_665 S
O29 La0 2.482 1_556 S
O29 La1 2.757 1_446 S
O29 C18 1.289 . S
O30 La1 2.468 1_556 S
O30 C19 1.254 1_656 S
O31 La0 2.503 1_565 S
O31 C19 1.256 . S
H32 C4 0.930 . S
H33 C5 0.930 . S
H34 C7 0.929 . S
H35 C8 0.929 . S
H36 C13 0.930 . S
H37 C14 0.930 . S
H38 C16 0.929 . S
H39 C17 0.929 . S
La40 C42 2.928 1_565 S
La40 O60 2.521 . S
La40 O61 2.628 1_565 S
La40 O62 2.554 . S
La40 O63 2.757 1_665 S
La40 O64 2.470 1_565 S
La40 O69 2.482 1_565 S
La40 O71 2.503 . S
La41 C51 2.928 . S
La41 O63 2.482 . S
La41 O65 2.503 . S
La41 O66 2.521 . S
La41 O67 2.628 . S
La41 O68 2.554 . S
La41 O69 2.757 1_455 S
La41 O70 2.470 1_545 S
C42 La40 2.928 1_545 S
C42 C43 1.503 . S
C42 O60 1.261 1_545 S
C42 O61 1.243 . S
C43 C42 1.503 . S
C43 C44 1.394 . S
C43 C48 1.373 . S
C44 C43 1.394 . S
C44 C45 1.380 . S
C44 H72 0.930 . S
C45 C44 1.380 . S
C45 C46 1.376 . S
C45 H73 0.930 . S
C46 C45 1.376 . S
C46 C47 1.370 . S
C47 C46 1.370 . S
C47 C48 1.396 . S
C47 H74 0.929 . S
C48 C43 1.373 . S
C48 C47 1.396 . S
C48 H75 0.929 . S
C49 O62 1.240 1_545 S
C49 O63 1.289 1_655 S
C50 O64 1.258 . S
C50 O65 1.256 1_655 S
C51 La41 2.928 . S
C51 C52 1.503 1_545 S
C51 O66 1.261 . S
C51 O67 1.243 . S
C52 C51 1.503 1_565 S
C52 C53 1.394 1_565 S
C52 C57 1.373 . S
C53 C52 1.394 1_545 S
C53 C54 1.380 1_545 S
C53 H76 0.930 . S
C54 C53 1.380 1_565 S
C54 C55 1.376 . S
C54 H77 0.930 . S
C55 C54 1.376 . S
C55 C56 1.370 . S
C56 C55 1.370 . S
C56 C57 1.396 . S
C56 H78 0.929 . S
C57 C52 1.373 . S
C57 C56 1.396 . S
C57 H79 0.929 . S
C58 O68 1.240 . S
C58 O69 1.289 1_455 S
C59 O70 1.258 . S
C59 O71 1.256 1_455 S
O60 La40 2.521 . S
O60 C42 1.261 1_565 S
O61 La40 2.628 1_545 S
O61 C42 1.243 . S
O62 La40 2.554 . S
O62 C49 1.240 1_565 S
O63 La40 2.757 1_445 S
O63 La41 2.482 . S
O63 C49 1.289 1_455 S
O64 La40 2.470 1_545 S
O64 C50 1.258 . S
O65 La41 2.503 . S
O65 C50 1.256 1_455 S
O66 La41 2.521 . S
O66 C51 1.261 . S
O67 La41 2.628 . S
O67 C51 1.243 . S
O68 La41 2.554 . S
O68 C58 1.240 . S
O69 La40 2.482 1_545 S
O69 La41 2.757 1_655 S
O69 C58 1.289 1_655 S
O70 La41 2.470 1_565 S
O70 C59 1.258 . S
O71 La40 2.503 . S
O71 C59 1.256 1_655 S
H72 C44 0.930 . S
H73 C45 0.930 . S
H74 C47 0.929 . S
H75 C48 0.929 . S
H76 C53 0.930 . S
H77 C54 0.930 . S
H78 C56 0.929 . S
H79 C57 0.929 . S
La80 C82 2.928 . S
La80 O100 2.521 . S
La80 O101 2.628 . S
La80 O102 2.554 . S
La80 O103 2.757 1_665 S
La80 O104 2.470 1_565 S
La80 O109 2.482 1_565 S
La80 O111 2.503 1_655 S
La81 C91 2.928 . S
La81 O103 2.482 . S
La81 O105 2.503 1_455 S
La81 O106 2.521 . S
La81 O107 2.628 . S
La81 O108 2.554 . S
La81 O109 2.757 1_455 S
La81 O110 2.470 . S
C82 La80 2.928 . S
C82 C83 1.503 . S
C82 O100 1.261 . S
C82 O101 1.243 . S
C83 C82 1.503 . S
C83 C84 1.394 . S
C83 C88 1.373 . S
C84 C83 1.394 . S
C84 C85 1.380 . S
C84 H112 0.930 . S
C85 C84 1.380 . S
C85 C86 1.376 . S
C85 H113 0.930 . S
C86 C85 1.376 . S
C86 C87 1.370 . S
C87 C86 1.370 . S
C87 C88 1.396 . S
C87 H114 0.929 . S
C88 C83 1.373 . S
C88 C87 1.396 . S
C88 H115 0.929 . S
C89 O102 1.240 1_445 S
C89 O103 1.289 . S
C90 O104 1.258 . S
C90 O105 1.256 . S
C91 La81 2.928 . S
C91 C92 1.503 . S
C91 O106 1.261 . S
C91 O107 1.243 . S
C92 C91 1.503 . S
C92 C93 1.394 . S
C92 C97 1.373 . S
C93 C92 1.394 . S
C93 C94 1.380 . S
C93 H116 0.930 . S
C94 C93 1.380 . S
C94 C95 1.376 . S
C94 H117 0.930 . S
C95 C94 1.376 . S
C95 C96 1.370 . S
C96 C95 1.370 . S
C96 C97 1.396 . S
C96 H118 0.929 . S
C97 C92 1.373 . S
C97 C96 1.396 . S
C97 H119 0.929 . S
C98 O108 1.240 . S
C98 O109 1.289 1_455 S
C99 O110 1.258 . S
C99 O111 1.256 1_545 S
O100 La80 2.521 . S
O100 C82 1.261 . S
O101 La80 2.628 . S
O101 C82 1.243 . S
O102 La80 2.554 . S
O102 C89 1.240 1_665 S
O103 La80 2.757 1_445 S
O103 La81 2.482 . S
O103 C89 1.289 . S
O104 La80 2.470 1_545 S
O104 C90 1.258 . S
O105 La81 2.503 1_655 S
O105 C90 1.256 . S
O106 La81 2.521 . S
O106 C91 1.261 . S
O107 La81 2.628 . S
O107 C91 1.243 . S
O108 La81 2.554 . S
O108 C98 1.240 . S
O109 La80 2.482 1_545 S
O109 La81 2.757 1_655 S
O109 C98 1.289 1_655 S
O110 La81 2.470 . S
O110 C99 1.258 . S
O111 La80 2.503 1_455 S
O111 C99 1.256 1_565 S
H112 C84 0.930 . S
H113 C85 0.930 . S
H114 C87 0.929 . S
H115 C88 0.929 . S
H116 C93 0.930 . S
H117 C94 0.930 . S
H118 C96 0.929 . S
H119 C97 0.929 . S
H120 C138 0.951 1_556 S
H121 C140 0.951 1_556 S
H122 C142 0.950 . S
H123 C143 0.950 . S
H124 C145 0.950 1_556 S
H125 C148 0.950 . S
H126 C149 0.950 . S
H127 C151 0.950 . S
H128 C152 0.950 . S
H129 C153 0.951 . S
H130 C155 0.951 . S
H131 C157 0.950 1_556 S
H132 C158 0.950 1_556 S
H133 C160 0.950 . S
H134 C163 0.950 . S
H135 C164 0.950 . S
H136 C166 0.950 . S
H137 C167 0.950 1_554 S
C138 H120 0.951 1_554 S
C138 C139 1.366 . S
C138 C140 1.388 . S
C139 C138 1.366 . S
C139 C143 1.385 1_455 S
C140 H121 0.951 1_554 S
C140 C138 1.388 . S
C140 C141 1.366 . S
C141 C140 1.366 . S
C141 C142 1.414 1_455 S
C141 C144 1.499 . S
C142 H122 0.950 . S
C142 C141 1.414 1_655 S
C142 C143 1.374 . S
C143 H123 0.950 . S
C143 C139 1.385 1_655 S
C143 C142 1.374 . S
C144 C141 1.499 . S
C144 C145 1.373 1_455 S
C144 C146 1.389 . S
C145 H124 0.950 1_554 S
C145 C144 1.373 1_655 S
C145 C161 1.377 . S
C146 C144 1.389 . S
C146 C147 1.524 . S
C146 C160 1.377 . S
C147 C146 1.524 . S
C147 C148 1.397 . S
C147 C152 1.363 . S
C148 H125 0.950 . S
C148 C147 1.397 . S
C148 C149 1.334 . S
C149 H126 0.950 . S
C149 C148 1.334 . S
C149 C150 1.287 . S
C150 C149 1.287 . S
C150 C151 1.524 . S
C150 H169 0.913 . S
C151 H127 0.950 . S
C151 C150 1.524 . S
C151 C152 1.415 . S
C152 H128 0.950 . S
C152 C147 1.363 . S
C152 C151 1.415 . S
C153 H129 0.951 . S
C153 C154 1.366 1_655 S
C153 C155 1.388 . S
C154 C153 1.366 1_455 S
C154 C158 1.385 . S
C155 H130 0.951 . S
C155 C153 1.388 . S
C155 C156 1.366 1_655 S
C156 C155 1.366 1_455 S
C156 C157 1.414 . S
C156 C159 1.499 . S
C157 H131 0.950 1_554 S
C157 C156 1.414 . S
C157 C158 1.374 . S
C158 H132 0.950 1_554 S
C158 C154 1.385 . S
C158 C157 1.374 . S
C159 C156 1.499 . S
C159 C160 1.373 . S
C159 C161 1.389 1_455 S
C160 H133 0.950 . S
C160 C146 1.377 . S
C160 C159 1.373 . S
C161 C145 1.377 . S
C161 C159 1.389 1_655 S
C161 C162 1.524 1_554 S
C162 C161 1.524 1_556 S
C162 C163 1.397 . S
C162 C167 1.363 . S
C163 H134 0.950 . S
C163 C162 1.397 . S
C163 C164 1.334 . S
C164 H135 0.950 . S
C164 C163 1.334 . S
C164 C165 1.287 . S
C165 C164 1.287 . S
C165 C166 1.524 . S
C165 H168 0.999 . S
C166 H136 0.950 . S
C166 C165 1.524 . S
C166 C167 1.415 . S
C167 H137 0.950 1_556 S
C167 C162 1.363 . S
C167 C166 1.415 . S
H168 C165 0.999 . S
H169 C150 0.913 . S
H170 C188 0.951 . S
H171 C190 0.951 1_545 S
H172 C192 0.950 . S
H173 C193 0.950 . S
H174 C195 0.954 . S
H175 C198 0.950 . S
H176 C199 0.950 . S
H177 C201 0.950 . S
H178 C202 0.950 . S
H179 C203 0.951 . S
H180 C205 0.951 . S
H181 C207 0.950 . S
H182 C208 0.950 . S
H183 C210 0.950 . S
H184 C213 0.950 . S
H185 C214 0.950 . S
H186 C216 0.950 1_565 S
H187 C217 0.950 . S
C188 H170 0.951 . S
C188 C189 1.366 . S
C188 C190 1.388 . S
C189 C188 1.366 . S
C189 C193 1.385 . S
C190 H171 0.951 1_565 S
C190 C188 1.388 . S
C190 C191 1.366 . S
C191 C190 1.366 . S
C191 C192 1.414 . S
C191 C194 1.499 . S
C192 H172 0.950 . S
C192 C191 1.414 . S
C192 C193 1.374 . S
C193 H173 0.950 . S
C193 C189 1.385 . S
C193 C192 1.374 . S
C194 C191 1.499 . S
C194 C195 1.373 . S
C194 C196 1.389 1_565 S
C195 H174 0.954 . S
C195 C194 1.373 . S
C195 C211 1.374 1_565 S
C196 C194 1.389 1_545 S
C196 C197 1.524 1_545 S
C196 C210 1.377 . S
C197 C196 1.524 1_565 S
C197 C198 1.397 . S
C197 C202 1.363 1_565 S
C198 H175 0.950 . S
C198 C197 1.397 . S
C198 C199 1.334 . S
C199 H176 0.950 . S
C199 C198 1.334 . S
C199 C200 1.287 . S
C200 C199 1.287 . S
C200 C201 1.524 1_565 S
C200 H219 0.913 . S
C201 H177 0.950 . S
C201 C200 1.524 1_545 S
C201 C202 1.415 . S
C202 H178 0.950 . S
C202 C197 1.363 1_545 S
C202 C201 1.415 . S
C203 H179 0.951 . S
C203 C204 1.366 . S
C203 C205 1.388 . S
C204 C203 1.366 . S
C204 C208 1.385 . S
C205 H180 0.951 . S
C205 C203 1.388 . S
C205 C206 1.366 . S
C206 C205 1.366 . S
C206 C207 1.414 . S
C206 C209 1.499 . S
C207 H181 0.950 . S
C207 C206 1.414 . S
C207 C208 1.374 . S
C208 H182 0.950 . S
C208 C204 1.385 . S
C208 C207 1.374 . S
C209 C206 1.499 . S
C209 C210 1.373 . S
C209 C211 1.389 . S
C210 H183 0.950 . S
C210 C196 1.377 . S
C210 C209 1.373 . S
C211 C195 1.374 1_545 S
C211 C209 1.389 . S
C211 C212 1.524 . S
C212 C211 1.524 . S
C212 C213 1.397 . S
C212 C217 1.363 1_545 S
C213 H184 0.950 . S
C213 C212 1.397 . S
C213 C214 1.334 . S
C214 H185 0.950 . S
C214 C213 1.334 . S
C214 C215 1.287 . S
C215 C214 1.287 . S
C215 C216 1.524 . S
C215 H218 0.999 . S
C216 H186 0.950 1_545 S
C216 C215 1.524 . S
C216 C217 1.415 1_545 S
C217 H187 0.950 . S
C217 C212 1.363 1_565 S
C217 C216 1.415 1_565 S
H218 C215 0.999 . S
H219 C200 0.913 . S
H220 C238 0.951 . S
H221 C240 0.951 . S
H222 C242 0.950 . S
H223 C243 0.950 . S
H224 C245 0.950 . S
H225 C248 0.950 . S
H226 C249 0.950 . S
H227 C251 0.950 . S
H228 C252 0.950 . S
H229 C253 0.951 . S
H230 C255 0.951 . S
H231 C257 0.950 . S
H232 C258 0.950 . S
H233 C260 0.950 . S
H234 C263 0.950 . S
H235 C264 0.950 . S
H236 C266 0.950 . S
H237 C267 0.950 . S
C238 H220 0.951 . S
C238 C239 1.366 . S
C238 C240 1.388 . S
C239 C238 1.366 . S
C239 C243 1.385 . S
C240 H221 0.951 . S
C240 C238 1.388 . S
C240 C241 1.366 . S
C241 C240 1.366 . S
C241 C242 1.414 . S
C241 C244 1.499 . S
C242 H222 0.950 . S
C242 C241 1.414 . S
C242 C243 1.374 . S
C243 H223 0.950 . S
C243 C239 1.385 . S
C243 C242 1.374 . S
C244 C241 1.499 . S
C244 C245 1.373 . S
C244 C246 1.389 . S
C245 H224 0.950 . S
C245 C244 1.373 . S
C245 C261 1.377 . S
C246 C244 1.389 . S
C246 C247 1.524 . S
C246 C260 1.377 . S
C247 C246 1.524 . S
C247 C248 1.397 . S
C247 C252 1.363 . S
C248 H225 0.950 . S
C248 C247 1.397 . S
C248 C249 1.334 . S
C249 H226 0.950 . S
C249 C248 1.334 . S
C249 C250 1.287 . S
C250 C249 1.287 . S
C250 C251 1.524 . S
C250 H269 0.913 . S
C251 H227 0.950 . S
C251 C250 1.524 . S
C251 C252 1.415 . S
C252 H228 0.950 . S
C252 C247 1.363 . S
C252 C251 1.415 . S
C253 H229 0.951 . S
C253 C254 1.366 . S
C253 C255 1.388 . S
C254 C253 1.366 . S
C254 C258 1.385 . S
C255 H230 0.951 . S
C255 C253 1.388 . S
C255 C256 1.366 . S
C256 C255 1.366 . S
C256 C257 1.414 . S
C256 C259 1.499 . S
C257 H231 0.950 . S
C257 C256 1.414 . S
C257 C258 1.374 . S
C258 H232 0.950 . S
C258 C254 1.385 . S
C258 C257 1.374 . S
C259 C256 1.499 . S
C259 C260 1.373 . S
C259 C261 1.389 . S
C260 H233 0.950 . S
C260 C246 1.377 . S
C260 C259 1.373 . S
C261 C245 1.377 . S
C261 C259 1.389 . S
C261 C262 1.524 . S
C262 C261 1.524 . S
C262 C263 1.397 . S
C262 C267 1.363 . S
C263 H234 0.950 . S
C263 C262 1.397 . S
C263 C264 1.334 . S
C264 H235 0.950 . S
C264 C263 1.334 . S
C264 C265 1.287 . S
C265 C264 1.287 . S
C265 C266 1.524 . S
C265 H268 0.999 . S
C266 H236 0.950 . S
C266 C265 1.524 . S
C266 C267 1.415 . S
C267 H237 0.950 . S
C267 C262 1.363 . S
C267 C266 1.415 . S
H268 C265 0.999 . S
H269 C250 0.913 . S
H270 C288 0.951 . S
H271 C290 0.951 . S
H272 C292 0.950 1_565 S
H273 C293 0.950 1_565 S
H274 C295 0.950 . S
H275 C298 0.950 . S
H276 C299 0.950 . S
H277 C301 0.950 . S
H278 C302 0.950 . S
H279 C303 0.958 . S
H280 C305 0.950 . S
H281 C307 0.950 . S
H282 C308 0.950 . S
H283 C310 0.950 . S
H284 C313 0.950 . S
H285 C314 0.950 . S
H286 C316 0.950 . S
H287 C317 0.950 . S
C288 H270 0.951 . S
C288 C289 1.366 . S
C288 C290 1.388 . S
C289 C288 1.366 . S
C289 C293 1.385 . S
C290 H271 0.951 . S
C290 C288 1.388 . S
C290 C291 1.366 . S
C291 C290 1.366 . S
C291 C292 1.414 . S
C291 C294 1.499 . S
C292 H272 0.950 1_545 S
C292 C291 1.414 . S
C292 C293 1.374 . S
C293 H273 0.950 1_545 S
C293 C289 1.385 . S
C293 C292 1.374 . S
C294 C291 1.499 . S
C294 C295 1.373 1_545 S
C294 C296 1.389 . S
C295 H274 0.950 . S
C295 C294 1.373 1_565 S
C295 C311 1.377 . S
C296 C294 1.389 . S
C296 C297 1.524 . S
C296 C310 1.377 . S
C297 C296 1.524 . S
C297 C298 1.397 . S
C297 C302 1.363 . S
C298 H275 0.950 . S
C298 C297 1.397 . S
C298 C299 1.334 . S
C299 H276 0.950 . S
C299 C298 1.334 . S
C299 C300 1.287 . S
C300 C299 1.287 . S
C300 C301 1.524 . S
C300 H319 0.913 . S
C301 H277 0.950 . S
C301 C300 1.524 . S
C301 C302 1.415 . S
C302 H278 0.950 . S
C302 C297 1.363 . S
C302 C301 1.415 . S
C303 H279 0.958 . S
C303 C304 1.356 1_565 S
C303 C305 1.392 . S
C304 C303 1.356 1_545 S
C304 C308 1.385 . S
C305 H280 0.950 . S
C305 C303 1.392 . S
C305 C306 1.366 1_565 S
C306 C305 1.366 1_545 S
C306 C307 1.414 . S
C306 C309 1.499 . S
C307 H281 0.950 . S
C307 C306 1.414 . S
C307 C308 1.374 . S
C308 H282 0.950 . S
C308 C304 1.385 . S
C308 C307 1.374 . S
C309 C306 1.499 . S
C309 C310 1.373 . S
C309 C311 1.389 1_545 S
C310 H283 0.950 . S
C310 C296 1.377 . S
C310 C309 1.373 . S
C311 C295 1.377 . S
C311 C309 1.389 1_565 S
C311 C312 1.524 . S
C312 C311 1.524 . S
C312 C313 1.397 . S
C312 C317 1.363 . S
C313 H284 0.950 . S
C313 C312 1.397 . S
C313 C314 1.334 . S
C314 H285 0.950 . S
C314 C313 1.334 . S
C314 C315 1.287 . S
C315 C314 1.287 . S
C315 C316 1.524 . S
C315 H318 0.999 . S
C316 H286 0.950 . S
C316 C315 1.524 . S
C316 C317 1.415 . S
C317 H287 0.950 . S
C317 C312 1.363 . S
C317 C316 1.415 . S
H318 C315 0.999 . S
H319 C300 0.913 . S
H320 C338 0.951 . S
H321 C340 0.951 . S
H322 C342 0.950 . S
H323 C343 0.950 . S
H324 C345 0.950 . S
H325 C348 0.950 . S
H326 C349 0.950 . S
H327 C351 0.950 . S
H328 C352 0.950 . S
H329 C353 0.951 . S
H330 C355 0.951 . S
H331 C357 0.950 . S
H332 C358 0.950 . S
H333 C360 0.950 . S
H334 C363 0.950 . S
H335 C364 0.950 . S
H336 C366 0.950 . S
H337 C367 0.950 . S
C338 H320 0.951 . S
C338 C339 1.366 . S
C338 C340 1.388 . S
C339 C338 1.366 . S
C339 C343 1.385 . S
C340 H321 0.951 . S
C340 C338 1.388 . S
C340 C341 1.366 . S
C341 C340 1.366 . S
C341 C342 1.414 . S
C341 C344 1.499 . S
C342 H322 0.950 . S
C342 C341 1.414 . S
C342 C343 1.374 . S
C343 H323 0.950 . S
C343 C339 1.385 . S
C343 C342 1.374 . S
C344 C341 1.499 . S
C344 C345 1.373 1_554 S
C344 C346 1.389 . S
C345 H324 0.950 . S
C345 C344 1.373 1_556 S
C345 C361 1.377 . S
C346 C344 1.389 . S
C346 C347 1.524 . S
C346 C360 1.377 . S
C347 C346 1.524 . S
C347 C348 1.397 . S
C347 C352 1.363 . S
C348 H325 0.950 . S
C348 C347 1.397 . S
C348 C349 1.334 . S
C349 H326 0.950 . S
C349 C348 1.334 . S
C349 C350 1.287 . S
C350 C349 1.287 . S
C350 C351 1.524 . S
C350 H369 0.913 . S
C351 H327 0.950 . S
C351 C350 1.524 . S
C351 C352 1.415 . S
C352 H328 0.950 . S
C352 C347 1.363 . S
C352 C351 1.415 . S
C353 H329 0.951 . S
C353 C354 1.366 . S
C353 C355 1.388 . S
C354 C353 1.366 . S
C354 C358 1.385 . S
C355 H330 0.951 . S
C355 C353 1.388 . S
C355 C356 1.366 . S
C356 C355 1.366 . S
C356 C357 1.414 . S
C356 C359 1.499 . S
C357 H331 0.950 . S
C357 C356 1.414 . S
C357 C358 1.374 . S
C358 H332 0.950 . S
C358 C354 1.385 . S
C358 C357 1.374 . S
C359 C356 1.499 . S
C359 C360 1.373 . S
C359 C361 1.389 1_554 S
C360 H333 0.950 . S
C360 C346 1.377 . S
C360 C359 1.373 . S
C361 C345 1.377 . S
C361 C359 1.389 1_556 S
C361 C362 1.524 . S
C362 C361 1.524 . S
C362 C363 1.397 . S
C362 C367 1.363 . S
C363 H334 0.950 . S
C363 C362 1.397 . S
C363 C364 1.334 . S
C364 H335 0.950 . S
C364 C363 1.334 . S
C364 C365 1.287 . S
C365 C364 1.287 . S
C365 C366 1.524 . S
C365 H368 0.999 . S
C366 H336 0.950 . S
C366 C365 1.524 . S
C366 C367 1.415 . S
C367 H337 0.950 . S
C367 C362 1.363 . S
C367 C366 1.415 . S
H368 C365 0.999 . S
H369 C350 0.913 . S
H370 C388 0.951 . S
H371 C390 0.951 . S
H372 C392 0.950 . S
H373 C393 0.950 . S
H374 C395 0.950 . S
H375 C398 0.950 . S
H376 C399 0.950 . S
H377 C401 0.950 . S
H378 C402 0.950 . S
H379 C403 0.951 . S
H380 C405 0.951 . S
H381 C407 0.950 . S
H382 C408 0.950 . S
H383 C410 0.950 . S
H384 C413 0.950 . S
H385 C414 0.950 . S
H386 C416 0.950 . S
H387 C417 0.950 . S
C388 H370 0.951 . S
C388 C389 1.366 1_455 S
C388 C390 1.388 . S
C389 C388 1.366 1_655 S
C389 C393 1.385 . S
C390 H371 0.951 . S
C390 C388 1.388 . S
C390 C391 1.373 . S
C391 C390 1.373 . S
C391 C392 1.408 1_455 S
C391 C394 1.497 . S
C392 H372 0.950 . S
C392 C391 1.408 1_655 S
C392 C393 1.374 . S
C393 H373 0.950 . S
C393 C389 1.385 . S
C393 C392 1.374 . S
C394 C391 1.497 . S
C394 C395 1.373 1_455 S
C394 C396 1.389 . S
C395 H374 0.950 . S
C395 C394 1.373 1_655 S
C395 C411 1.377 . S
C396 C394 1.389 . S
C396 C397 1.524 . S
C396 C410 1.377 . S
C397 C396 1.524 . S
C397 C398 1.397 . S
C397 C402 1.363 . S
C398 H375 0.950 . S
C398 C397 1.397 . S
C398 C399 1.334 . S
C399 H376 0.950 . S
C399 C398 1.334 . S
C399 C400 1.287 . S
C400 C399 1.287 . S
C400 C401 1.524 . S
C400 H419 0.913 . S
C401 H377 0.950 . S
C401 C400 1.524 . S
C401 C402 1.415 . S
C402 H378 0.950 . S
C402 C397 1.363 . S
C402 C401 1.415 . S
C403 H379 0.951 . S
C403 C404 1.366 1_655 S
C403 C405 1.388 . S
C404 C403 1.366 1_455 S
C404 C408 1.385 . S
C405 H380 0.951 . S
C405 C403 1.388 . S
C405 C406 1.366 1_655 S
C406 C405 1.366 1_455 S
C406 C407 1.414 . S
C406 C409 1.499 . S
C407 H381 0.950 . S
C407 C406 1.414 . S
C407 C408 1.374 . S
C408 H382 0.950 . S
C408 C404 1.385 . S
C408 C407 1.374 . S
C409 C406 1.499 . S
C409 C410 1.373 . S
C409 C411 1.389 1_455 S
C410 H383 0.950 . S
C410 C396 1.377 . S
C410 C409 1.373 . S
C411 C395 1.377 . S
C411 C409 1.389 1_655 S
C411 C412 1.524 . S
C412 C411 1.524 . S
C412 C413 1.397 . S
C412 C417 1.363 . S
C413 H384 0.950 . S
C413 C412 1.397 . S
C413 C414 1.334 . S
C414 H385 0.950 . S
C414 C413 1.334 . S
C414 C415 1.287 . S
C415 C414 1.287 . S
C415 C416 1.524 . S
C415 H418 0.999 . S
C416 H386 0.950 . S
C416 C415 1.524 . S
C416 C417 1.415 . S
C417 H387 0.950 . S
C417 C412 1.363 . S
C417 C416 1.415 . S
H418 C415 0.999 . S
H419 C400 0.913 . S
H420 C438 0.951 1_655 S
H421 C440 0.950 1_655 S
H422 C442 0.950 . S
H423 C443 0.950 . S
H424 C445 0.950 . S
H425 C448 0.950 . S
H426 C449 0.950 . S
H427 C451 0.950 . S
H428 C452 0.950 . S
H429 C453 0.951 . S
H430 C455 0.951 . S
H431 C457 0.950 . S
H432 C458 0.950 . S
H433 C460 0.950 . S
H434 C463 0.950 . S
H435 C464 0.950 . S
H436 C466 0.950 . S
H437 C467 0.950 . S
C438 H420 0.951 1_455 S
C438 C439 1.366 . S
C438 C440 1.388 . S
C439 C438 1.366 . S
C439 C443 1.385 1_545 S
C440 H421 0.950 1_455 S
C440 C438 1.388 . S
C440 C441 1.366 . S
C441 C440 1.366 . S
C441 C442 1.414 1_545 S
C441 C444 1.499 . S
C442 H422 0.950 . S
C442 C441 1.414 1_565 S
C442 C443 1.374 . S
C443 H423 0.950 . S
C443 C439 1.385 1_565 S
C443 C442 1.374 . S
C444 C441 1.499 . S
C444 C445 1.373 1_545 S
C444 C446 1.389 1_455 S
C445 H424 0.950 . S
C445 C444 1.373 1_565 S
C445 C461 1.377 . S
C446 C444 1.389 1_655 S
C446 C447 1.524 . S
C446 C460 1.377 . S
C447 C446 1.524 . S
C447 C448 1.397 1_545 S
C447 C452 1.363 . S
C448 H425 0.950 . S
C448 C447 1.397 1_565 S
C448 C449 1.334 . S
C449 H426 0.950 . S
C449 C448 1.334 . S
C449 C450 1.287 1_565 S
C450 C449 1.287 1_545 S
C450 C451 1.524 . S
C450 H469 0.913 . S
C451 H427 0.950 . S
C451 C450 1.524 . S
C451 C452 1.415 . S
C452 H428 0.950 . S
C452 C447 1.363 . S
C452 C451 1.415 . S
C453 H429 0.951 . S
C453 C454 1.366 1_565 S
C453 C455 1.388 . S
C454 C453 1.366 1_545 S
C454 C458 1.385 . S
C455 H430 0.951 . S
C455 C453 1.388 . S
C455 C456 1.366 1_565 S
C456 C455 1.366 1_545 S
C456 C457 1.414 . S
C456 C459 1.499 . S
C457 H431 0.950 . S
C457 C456 1.414 . S
C457 C458 1.374 . S
C458 H432 0.950 . S
C458 C454 1.385 . S
C458 C457 1.374 . S
C459 C456 1.499 . S
C459 C460 1.373 1_455 S
C459 C461 1.389 1_545 S
C460 H433 0.950 . S
C460 C446 1.377 . S
C460 C459 1.373 1_655 S
C461 C445 1.377 . S
C461 C459 1.389 1_565 S
C461 C462 1.524 . S
C462 C461 1.524 . S
C462 C463 1.397 1_565 S
C462 C467 1.363 . S
C463 H434 0.950 . S
C463 C462 1.397 1_545 S
C463 C464 1.334 . S
C464 H435 0.950 . S
C464 C463 1.334 . S
C464 C465 1.287 1_545 S
C465 C464 1.287 1_565 S
C465 C466 1.524 . S
C465 H468 0.999 . S
C466 H436 0.950 . S
C466 C465 1.524 . S
C466 C467 1.415 . S
C467 H437 0.950 . S
C467 C462 1.363 . S
C467 C466 1.415 . S
H468 C465 0.999 . S
H469 C450 0.913 . S
H470 C488 0.951 . S
H471 C490 0.951 . S
H472 C492 0.950 . S
H473 C493 0.950 . S
H474 C495 0.950 1_565 S
H475 C498 0.950 1_565 S
H476 C499 0.950 . S
H477 C501 0.950 . S
H478 C502 0.950 . S
H479 C503 0.951 . S
H480 C505 0.951 . S
H481 C507 0.950 . S
H482 C508 0.950 . S
H483 C510 0.950 . S
H484 C513 0.950 . S
H485 C514 0.950 . S
H486 C516 0.950 . S
H487 C517 0.950 . S
C488 H470 0.951 . S
C488 C489 1.366 . S
C488 C490 1.388 . S
C489 C488 1.366 . S
C489 C493 1.385 1_445 S
C490 H471 0.951 . S
C490 C488 1.388 . S
C490 C491 1.366 . S
C491 C490 1.366 . S
C491 C492 1.414 1_445 S
C491 C494 1.499 . S
C492 H472 0.950 . S
C492 C491 1.414 1_665 S
C492 C493 1.374 . S
C493 H473 0.950 . S
C493 C489 1.385 1_665 S
C493 C492 1.374 . S
C494 C491 1.499 . S
C494 C495 1.373 1_455 S
C494 C496 1.389 . S
C495 H474 0.950 1_545 S
C495 C494 1.373 1_655 S
C495 C511 1.377 . S
C496 C494 1.389 . S
C496 C497 1.524 . S
C496 C510 1.377 . S
C497 C496 1.524 . S
C497 C498 1.397 . S
C497 C502 1.363 . S
C498 H475 0.950 1_545 S
C498 C497 1.397 . S
C498 C499 1.334 . S
C499 H476 0.950 . S
C499 C498 1.334 . S
C499 C500 1.287 . S
C500 C499 1.287 . S
C500 C501 1.524 . S
C500 H519 0.913 . S
C501 H477 0.950 . S
C501 C500 1.524 . S
C501 C502 1.415 . S
C502 H478 0.950 . S
C502 C497 1.363 . S
C502 C501 1.415 . S
C503 H479 0.951 . S
C503 C504 1.366 1_665 S
C503 C505 1.388 . S
C504 C503 1.366 1_445 S
C504 C508 1.385 . S
C505 H480 0.951 . S
C505 C503 1.388 . S
C505 C506 1.366 1_665 S
C506 C505 1.366 1_445 S
C506 C507 1.414 . S
C506 C509 1.499 . S
C507 H481 0.950 . S
C507 C506 1.414 . S
C507 C508 1.374 . S
C508 H482 0.950 . S
C508 C504 1.385 . S
C508 C507 1.374 . S
C509 C506 1.499 . S
C509 C510 1.373 . S
C509 C511 1.389 1_455 S
C510 H483 0.950 . S
C510 C496 1.377 . S
C510 C509 1.373 . S
C511 C495 1.377 . S
C511 C509 1.389 1_655 S
C511 C512 1.524 . S
C512 C511 1.524 . S
C512 C513 1.408 . S
C512 C517 1.352 1_545 S
C513 H484 0.950 . S
C513 C512 1.408 . S
C513 C514 1.334 . S
C514 H485 0.950 . S
C514 C513 1.334 . S
C514 C515 1.287 1_545 S
C515 C514 1.287 1_565 S
C515 C516 1.524 . S
C515 H518 0.999 . S
C516 H486 0.950 . S
C516 C515 1.524 . S
C516 C517 1.415 . S
C517 H487 0.950 . S
C517 C512 1.352 1_565 S
C517 C516 1.415 . S
H518 C515 0.999 . S
H519 C500 0.913 . S
H520 C538 0.951 . S
H521 C540 0.951 . S
H522 C542 0.950 1_655 S
H523 C543 0.950 . S
H524 C545 0.950 . S
H525 C548 0.950 . S
H526 C549 0.950 . S
H527 C551 0.950 . S
H528 C552 0.950 . S
H529 C553 0.951 . S
H530 C555 0.951 1_655 S
H531 C557 0.950 . S
H532 C558 0.950 . S
H533 C560 0.950 . S
H534 C563 0.950 1_545 S
H535 C564 0.950 . S
H536 C566 0.950 . S
H537 C567 0.950 . S
C538 H520 0.951 . S
C538 C539 1.366 . S
C538 C540 1.388 . S
C539 C538 1.366 . S
C539 C543 1.385 1_445 S
C540 H521 0.951 . S
C540 C538 1.388 . S
C540 C541 1.366 . S
C541 C540 1.366 . S
C541 C542 1.414 1_545 S
C541 C544 1.499 . S
C542 H522 0.950 1_455 S
C542 C541 1.414 1_565 S
C542 C543 1.374 1_455 S
C543 H523 0.950 . S
C543 C539 1.385 1_665 S
C543 C542 1.374 1_655 S
C544 C541 1.499 . S
C544 C545 1.373 1_445 S
C544 C546 1.389 . S
C545 H524 0.950 . S
C545 C544 1.373 1_665 S
C545 C561 1.377 . S
C546 C544 1.389 . S
C546 C547 1.524 . S
C546 C560 1.377 . S
C547 C546 1.524 . S
C547 C548 1.397 . S
C547 C552 1.363 . S
C548 H525 0.950 . S
C548 C547 1.397 . S
C548 C549 1.334 . S
C549 H526 0.950 . S
C549 C548 1.334 . S
C549 C550 1.287 . S
C550 C549 1.287 . S
C550 C551 1.524 . S
C550 H569 0.913 . S
C551 H527 0.950 . S
C551 C550 1.524 . S
C551 C552 1.415 . S
C552 H528 0.950 . S
C552 C547 1.363 . S
C552 C551 1.415 . S
C553 H529 0.951 . S
C553 C554 1.366 1_565 S
C553 C555 1.388 . S
C554 C553 1.366 1_545 S
C554 C558 1.385 . S
C555 H530 0.951 1_455 S
C555 C553 1.388 . S
C555 C556 1.366 1_565 S
C556 C555 1.366 1_545 S
C556 C557 1.414 . S
C556 C559 1.499 . S
C557 H531 0.950 . S
C557 C556 1.414 . S
C557 C558 1.374 . S
C558 H532 0.950 . S
C558 C554 1.385 . S
C558 C557 1.374 . S
C559 C556 1.499 . S
C559 C560 1.373 . S
C559 C561 1.389 1_445 S
C560 H533 0.950 . S
C560 C546 1.377 . S
C560 C559 1.373 . S
C561 C545 1.377 . S
C561 C559 1.389 1_665 S
C561 C562 1.524 . S
C562 C561 1.524 . S
C562 C563 1.397 . S
C562 C567 1.363 . S
C563 H534 0.950 1_565 S
C563 C562 1.397 . S
C563 C564 1.334 . S
C564 H535 0.950 . S
C564 C563 1.334 . S
C564 C565 1.287 . S
C565 C564 1.287 . S
C565 C566 1.524 . S
C565 H568 0.999 . S
C566 H536 0.950 . S
C566 C565 1.524 . S
C566 C567 1.415 . S
C567 H537 0.950 . S
C567 C562 1.363 . S
C567 C566 1.415 . S
H568 C565 0.999 . S
H569 C550 0.913 . S
C139 C10 2.977 . S
C154 C19 2.977 . S
C189 C55 0.923 . S
C204 C46 0.923 . S
C239 C86 0.579 . S
C254 C95 0.579 . S
C289 C90 4.885 . S
C304 C99 4.885 . S
C339 C15 0.542 . S
C354 C6 0.542 . S
C389 C50 3.015 . S
C404 C59 3.015 . S
C439 C49 1.462 1_455 S
C454 C9 1.463 . S
C489 C58 1.455 . S
C504 C89 1.445 . S
C539 C98 1.465 . S
C554 C18 1.453 . S
