# Generated by pormake.
# Topology sma, (6)-cn, num edge types: 1
# Building blocks:
#     Node 0, Type 0, BuildingBlock: BETDEL_clean_sbu_0, # of connection points: 6
#     Node 1, Type 0, BuildingBlock: BETDEL_clean_sbu_0, # of connection points: 6
#     Node 2, Type 0, BuildingBlock: BETDEL_clean_sbu_0, # of connection points: 6
#     Edge 3, Type (0, 0), BuildingBlock: MIFKUJ_clean_linker_0, # of connection points: 2
#     Edge 4, Type (0, 0), BuildingBlock: MIFKUJ_clean_linker_0, # of connection points: 2
#     Edge 5, Type (0, 0), BuildingBlock: MIFKUJ_clean_linker_0, # of connection points: 2
#     Edge 6, Type (0, 0), BuildingBlock: MIFKUJ_clean_linker_0, # of connection points: 2
#     Edge 7, Type (0, 0), BuildingBlock: MIFKUJ_clean_linker_0, # of connection points: 2
#     Edge 8, Type (0, 0), BuildingBlock: MIFKUJ_clean_linker_0, # of connection points: 2
#     Edge 9, Type (0, 0), BuildingBlock: MIFKUJ_clean_linker_0, # of connection points: 2
#     Edge 10, Type (0, 0), BuildingBlock: MIFKUJ_clean_linker_0, # of connection points: 2
#     Edge 11, Type (0, 0), BuildingBlock: MIFKUJ_clean_linker_0, # of connection points: 2
# Relax obj value: 0.143
# Max RMSD: 0.211
# Mean RMSD: 0.211
data_MOF--net-sma--node1-BETDEL_clean_sbu_0--edge1-MIFKUJ_clean_linker_0
_symmetry_space_group_name_H-M    P1
_symmetry_Int_Tables_number       1
_symmetry_cell_setting            triclinic
loop_
_symmetry_equiv_pos_as_xyz
'x, y, z'
_cell_length_a     40.586096
_cell_length_b     40.383604
_cell_length_c     17.406702
_cell_angle_alpha  89.727494
_cell_angle_beta   90.181718
_cell_angle_gamma 120.18066
loop_
_atom_site_label
_atom_site_type_symbol
_atom_site_fract_x
_atom_site_fract_y
_atom_site_fract_z
_atom_type_partial_charge
Dy0 Dy 0.06455 0.51872 0.12937 0.0
C1 C 0.95514 0.57248 0.15667 0.0
C2 C 0.11191 0.49483 0.07119 0.0
Dy3 Dy 1.00541 0.54584 0.14908 0.0
O4 O 0.09913 0.48923 0.14131 0.0
O5 O 0.09776 0.51239 0.03235 0.0
O6 O 0.09289 0.54459 0.24205 0.0
O7 O 1.03502 0.52671 0.22372 0.0
C8 C 0.06293 0.54481 0.26779 0.0
C9 C 1.01022 0.52133 0.0079 0.0
O10 O 0.0607 0.60117 0.16717 0.0
O11 O 0.10211 0.58251 0.11695 0.0
O12 O 0.98534 0.58655 0.11375 0.0
O13 O 0.95368 0.54518 0.19917 0.0
O14 O 0.97883 0.51278 0.04246 0.0
O15 O 0.03719 0.54088 0.05328 0.0
O16 O 1.00842 0.46237 0.1429 0.0
O17 O 0.97297 0.48694 0.19792 0.0
C18 C 0.09526 0.6091 0.14474 0.0
C19 C 0.9774 0.45755 0.17951 0.0
Dy20 Dy 0.49457 1.00247 0.48656 0.0
C21 C 0.65977 0.11102 0.47048 0.0
C22 C 0.4239 0.94781 0.43712 0.0
Dy23 Dy 0.58271 0.06211 0.4788 0.0
O24 O 0.43942 0.9467 0.50204 0.0
O25 O 0.44667 0.97929 0.40031 0.0
O26 O 0.49191 1.01643 0.61079 0.0
O27 O 0.54246 1.02442 0.56304 0.0
C28 C 0.5284 0.03019 0.62172 0.0
C29 C 0.54281 0.04434 0.34587 0.0
O30 O 0.58372 1.0078 0.50668 0.0
O31 O 0.51898 0.96312 0.48825 0.0
O32 O 0.64048 0.08067 0.42842 0.0
O33 O 0.6371 0.11343 0.52015 0.0
O34 O 0.56928 0.07856 0.36427 0.0
O35 O 0.53889 1.02285 0.401 0.0
O36 O 0.49659 0.05957 0.48275 0.0
O37 O 0.55912 0.09729 0.52524 0.0
C38 C 0.55477 0.97171 0.50226 0.0
C39 C 0.5246 0.09203 0.5122 0.0
Dy40 Dy 0.5517 0.57199 0.83416 0.0
C41 C 0.4959 0.40703 0.81321 0.0
C42 C 0.56787 0.64424 0.79403 0.0
Dy43 Dy 0.52295 0.48415 0.82243 0.0
O44 O 0.54999 0.62612 0.85621 0.0
O45 O 0.57764 0.62315 0.7548 0.0
O46 O 0.5725 0.57338 0.95542 0.0
O47 O 0.52658 0.52335 0.90915 0.0
C48 C 0.549 0.53674 0.96462 0.0
C49 C 0.54995 0.52634 0.69317 0.0
O50 O 0.46704 0.48187 0.84657 0.0
O51 O 0.48814 0.54745 0.83855 0.0
O52 O 0.48493 0.42611 0.77001 0.0
O53 O 0.52029 0.4299 0.86399 0.0
O54 O 0.55707 0.49992 0.71473 0.0
O55 O 0.52951 0.5293 0.7433 0.0
O56 O 0.60688 0.57057 0.82838 0.0
O57 O 0.58207 0.50721 0.86756 0.0
C58 C 0.46049 0.51114 0.84732 0.0
C59 C 0.61142 0.54214 0.85552 0.0
H60 H 0.15044 0.51754 0.9351 0.0
H61 H 0.20553 0.51246 0.89569 0.0
H62 H 0.1973 0.45093 0.10483 0.0
H63 H 0.14292 0.45715 0.14543 0.0
H64 H 0.26716 0.50199 0.08549 0.0
H65 H 0.17363 0.40717 0.92039 0.0
H66 H 0.12195 0.38048 0.82428 0.0
H67 H 0.19613 0.46333 0.65834 0.0
H68 H 0.24812 0.49086 0.75378 0.0
H69 H 0.3924 0.44246 0.84899 0.0
H70 H 0.32938 0.43145 0.88723 0.0
H71 H 0.37802 0.55219 0.93006 0.0
H72 H 0.44049 0.56352 0.89124 0.0
H73 H 0.28504 0.46211 0.82707 0.0
H74 H 0.34381 0.56394 0.08371 0.0
H75 H 0.39109 0.58186 0.18819 0.0
H76 H 0.37823 0.46966 0.18178 0.0
H77 H 0.33192 0.45162 0.07568 0.0
C78 C 0.16005 0.50245 0.97215 0.0
C79 C 0.14229 0.48767 0.04332 0.0
C80 C 0.19153 0.4994 0.94941 0.0
C81 C 0.20563 0.48097 -0.00321 0.0
C82 C 0.18718 0.46535 0.06712 0.0
C83 C 0.15593 0.46872 0.09018 0.0
C84 C 0.24085 0.48003 0.97533 0.0
C85 C 0.27076 0.49308 0.02895 0.0
C86 C 0.24583 0.4678 0.90213 0.0
C87 C 0.21468 0.45126 0.84447 0.0
C88 C 0.17884 0.41987 0.86357 0.0
C89 C 0.14951 0.40456 0.80918 0.0
C90 C 0.15573 0.42025 0.7353 0.0
C91 C 0.19134 0.45123 0.7156 0.0
C92 C 0.22077 0.46666 0.7698 0.0
C93 C 0.38961 0.46668 0.86605 0.0
C94 C 0.42162 0.50391 0.86647 0.0
C95 C 0.35357 0.46034 0.88795 0.0
C96 C 0.34899 0.49095 0.91217 0.0
C97 C 0.38084 0.52805 0.91231 0.0
C98 C 0.4166 0.53449 0.88942 0.0
C99 C 0.31111 0.48474 0.9367 0.0
C100 C 0.28098 0.47067 0.88361 0.0
C101 C 0.30544 0.49511 0.01085 0.0
C102 C 0.33467 0.50657 0.07172 0.0
C103 C 0.35136 0.54326 0.10433 0.0
C104 C 0.37808 0.55347 0.16356 0.0
C105 C 0.38777 0.52696 0.19143 0.0
C106 C 0.37093 0.49027 0.1598 0.0
C107 C 0.34477 0.48018 0.0996 0.0
H108 H 0.40833 0.53483 0.2375 0.0
H109 H 0.13298 0.40836 0.69327 0.0
H110 H 0.69551 0.18428 0.52433 0.0
H111 H 0.75317 0.23944 0.47265 0.0
H112 H 0.76853 0.16515 0.31824 0.0
H113 H 0.71039 0.10983 0.36892 0.0
H114 H 0.83944 0.22804 0.39064 0.0
H115 H 0.72863 0.20525 0.24557 0.0
H116 H 0.66335 0.19385 0.23009 0.0
H117 H 0.69701 0.30247 0.33448 0.0
H118 H 0.76222 0.31394 0.35248 0.0
H119 H 0.96984 0.38653 0.15028 0.0
H120 H 0.9191 0.32376 0.19633 0.0
H121 H 0.86724 0.37906 0.31687 0.0
H122 H 0.91613 0.4407 0.26905 0.0
H123 H 0.81444 0.32047 0.2506 0.0
H124 H 0.9219 0.34279 0.40696 0.0
H125 H 0.98712 0.35547 0.43147 0.0
H126 H 0.96108 0.2515 0.31528 0.0
H127 H 0.8958 0.23846 0.28923 0.0
C128 C 0.71165 0.17953 0.48071 0.0
C129 C 0.6984 0.14273 0.4506 0.0
C130 C 0.74451 0.2111 0.451 0.0
C131 C 0.76499 0.20645 0.39119 0.0
C132 C 0.75322 0.16939 0.36444 0.0
C133 C 0.72001 0.13783 0.39344 0.0
C134 C 0.79644 0.24062 0.35237 0.0
C135 C 0.83404 0.24806 0.35906 0.0
C136 C 0.78941 0.26698 0.31218 0.0
C137 C 0.7502 0.2602 0.30119 0.0
C138 C 0.72197 0.22645 0.26608 0.0
C139 C 0.68497 0.21999 0.25684 0.0
C140 C 0.67593 0.24731 0.28177 0.0
C141 C 0.70394 0.28119 0.3157 0.0
C142 C 0.74093 0.28768 0.32544 0.0
C143 C 0.94753 0.38519 0.18642 0.0
C144 C 0.94726 0.41885 0.20586 0.0
C145 C 0.91862 0.34928 0.21318 0.0
C146 C 0.88928 0.34646 0.26084 0.0
C147 C 0.88923 0.38013 0.28002 0.0
C148 C 0.91756 0.41563 0.2527 0.0
C149 C 0.85802 0.30888 0.29048 0.0
C150 C 0.82015 0.30054 0.28171 0.0
C151 C 0.86498 0.28212 0.32975 0.0
C152 C 0.90415 0.2899 0.34534 0.0
C153 C 0.93019 0.3228 0.3861 0.0
C154 C 0.96714 0.33002 0.40037 0.0
C155 C 0.97828 0.30437 0.37472 0.0
C156 C 0.95244 0.27139 0.33495 0.0
C157 C 0.91546 0.26405 0.32045 0.0
H158 H 1.00689 0.31001 0.38584 0.0
H159 H 0.64729 0.24231 0.27453 0.0
H160 H 0.61945 0.97614 0.56327 0.0
H161 H 0.62747 0.92334 0.61012 0.0
H162 H 0.51246 0.84235 0.5408 0.0
H163 H 0.50437 0.89465 0.49288 0.0
H164 H 0.59107 0.87227 0.72189 0.0
H165 H 0.50601 0.75878 0.48844 0.0
H166 H 0.49185 0.75628 0.34995 0.0
H167 H 0.59528 0.86341 0.31514 0.0
H168 H 0.61033 0.86629 0.45317 0.0
H169 H 0.53714 0.68468 0.85622 0.0
H170 H 0.5405 0.74297 0.80563 0.0
H171 H 0.61323 0.74621 0.62188 0.0
H172 H 0.60874 0.68716 0.67092 0.0
H173 H 0.56274 0.75899 0.56415 0.0
H174 H 0.64557 0.80994 0.78157 0.0
H175 H 0.66496 0.81577 0.9175 0.0
H176 H 0.57631 0.83901 -0.01994 0.0
H177 H 0.556 0.83275 0.84466 0.0
C178 C 0.59605 0.94706 0.55675 0.0
C179 C 0.56133 0.93976 0.52368 0.0
C180 C 0.6006 0.9169 0.5842 0.0
C181 C 0.57068 0.87877 0.57859 0.0
C182 C 0.53619 0.87141 0.5448 0.0
C183 C 0.5316 0.90148 0.51749 0.0
C184 C 0.57499 0.84669 0.60983 0.0
C185 C 0.58497 0.84752 0.6874 0.0
C186 C 0.56763 0.81461 0.56466 0.0
C187 C 0.5591 0.81289 0.48131 0.0
C188 C 0.52582 0.78171 0.45117 0.0
C189 C 0.51762 0.78025 0.37276 0.0
C190 C 0.54259 0.80972 0.32382 0.0
C191 C 0.57589 0.84066 0.35315 0.0
C192 C 0.58424 0.84225 0.43149 0.0
C193 C 0.55417 0.69809 0.80551 0.0
C194 C 0.57275 0.68141 0.76761 0.0
C195 C 0.55623 0.73157 0.77673 0.0
C196 C 0.57748 0.74948 0.71016 0.0
C197 C 0.5966 0.73308 0.67318 0.0
C198 C 0.59418 0.69939 0.70145 0.0
C199 C 0.57831 0.78413 0.6769 0.0
C200 C 0.56907 0.78374 0.59884 0.0
C201 C 0.58699 0.81688 0.72143 0.0
C202 C 0.59901 0.82044 0.803 0.0
C203 C 0.62998 0.81594 0.82439 0.0
C204 C 0.64117 0.81939 0.90135 0.0
C205 C 0.6218 0.82763 0.95741 0.0
C206 C 0.59124 0.83254 0.93661 0.0
C207 C 0.57989 0.82906 0.85975 0.0
H208 H 0.63053 0.83032 0.01695 0.0
H209 H 0.53618 0.80855 0.26316 0.0
H210 H 0.62801 0.49377 0.93438 0.0
H211 H 0.68891 0.50677 -0.01306 0.0
H212 H 0.74329 0.62054 0.89026 0.0
H213 H 0.68172 0.60791 0.83729 0.0
H214 H 0.78495 0.57863 0.87221 0.0
H215 H 0.72533 0.61383 0.06924 0.0
H216 H 0.67209 0.60305 0.15357 0.0
H217 H 0.67173 0.50584 0.25542 0.0
H218 H 0.72449 0.51556 0.17064 0.0
H219 H 0.95512 0.62969 0.07268 0.0
H220 H 0.89957 0.63254 0.02642 0.0
H221 H 0.82561 0.5298 0.15443 0.0
H222 H 0.88126 0.52793 0.20339 0.0
H223 H 0.79573 0.57296 0.15551 0.0
H224 H 0.84696 0.53017 0.95699 0.0
H225 H 0.89707 0.53419 0.87106 0.0
H226 H 0.90964 0.63702 0.76951 0.0
H227 H 0.86 0.63395 0.85578 0.0
C228 C 0.65281 0.52156 0.92332 0.0
C229 C 0.64972 0.54984 0.8814 0.0
C230 C 0.68771 0.52894 0.95388 0.0
C231 C 0.72064 0.56472 0.94326 0.0
C232 C 0.71819 0.59272 0.8993 0.0
C233 C 0.68297 0.58547 0.86915 0.0
C234 C 0.75705 0.57267 -0.01955 0.0
C235 C 0.78769 0.57823 0.93418 0.0
C236 C 0.76012 0.57084 0.06127 0.0
C237 C 0.72876 0.56531 0.11321 0.0
C238 C 0.71374 0.58999 0.10922 0.0
C239 C 0.68365 0.58408 0.15714 0.0
C240 C 0.66856 0.55379 0.20982 0.0
C241 C 0.68348 0.52931 0.21462 0.0
C242 C 0.7135 0.53502 0.16668 0.0
C243 C 0.92705 0.60829 0.09247 0.0
C244 C 0.92255 0.57853 0.14148 0.0
C245 C 0.89522 0.60966 0.06528 0.0
C246 C 0.8581 0.58074 0.08492 0.0
C247 C 0.85378 0.55236 0.1378 0.0
C248 C 0.88567 0.55133 0.166 0.0
C249 C 0.82387 0.57873 0.04739 0.0
C250 C 0.79343 0.57401 0.09356 0.0
C251 C 0.82067 0.58049 0.96633 0.0
C252 C 0.85007 0.58207 0.91346 0.0
C253 C 0.86057 0.55376 0.91665 0.0
C254 C 0.88888 0.55587 0.86788 0.0
C255 C 0.90661 0.5859 0.81502 0.0
C256 C 0.89594 0.61381 0.81061 0.0
C257 C 0.86771 0.61191 0.85942 0.0
H258 H 0.92855 0.5875 0.77737 0.0
H259 H 0.64541 0.54936 0.24713 0.0
H260 H 0.37684 0.87807 0.50256 0.0
H261 H 0.32008 0.82389 0.44614 0.0
H262 H 0.33241 0.89191 0.24479 0.0
H263 H 0.38966 0.94591 0.30052 0.0
H264 H 0.25271 0.81122 0.40269 0.0
H265 H 0.30252 0.83365 0.08598 0.0
H266 H 0.36242 0.86205 0.01182 0.0
H267 H 0.41907 0.84366 0.20195 0.0
H268 H 0.35942 0.81467 0.27676 0.0
H269 H 0.09473 0.67441 0.1869 0.0
H270 H 0.149 0.73555 0.22749 0.0
H271 H 0.22477 0.69187 0.1843 0.0
H272 H 0.17108 0.63153 0.14067 0.0
H273 H 0.25995 0.76237 0.14605 0.0
H274 H 0.19086 0.69554 0.37558 0.0
H275 H 0.13461 0.66261 0.45946 0.0
H276 H 0.12122 0.7615 0.45534 0.0
H277 H 0.17793 0.79533 0.37215 0.0
C278 C 0.36727 0.88154 0.44651 0.0
C279 C 0.38774 0.91618 0.40588 0.0
C280 C 0.33477 0.85056 0.41429 0.0
C281 C 0.32209 0.85352 0.34066 0.0
C282 C 0.3419 0.88859 0.30104 0.0
C283 C 0.3745 0.91954 0.33316 0.0
C284 C 0.28866 0.81964 0.30516 0.0
C285 C 0.25431 0.80073 0.34636 0.0
C286 C 0.29064 0.8054 0.23204 0.0
C287 C 0.3266 0.82243 0.18726 0.0
C288 C 0.32774 0.83558 0.11185 0.0
C289 C 0.36165 0.85178 0.06971 0.0
C290 C 0.39457 0.8548 0.10226 0.0
C291 C 0.3936 0.84146 0.17691 0.0
C292 C 0.35976 0.82518 0.21923 0.0
C293 C 0.12302 0.67802 0.18493 0.0
C294 C 0.12838 0.64786 0.16066 0.0
C295 C 0.15409 0.71296 0.20889 0.0
C296 C 0.19112 0.71828 0.21084 0.0
C297 C 0.19664 0.68871 0.18365 0.0
C298 C 0.16574 0.65404 0.15863 0.0
C299 C 0.22395 0.75382 0.2437 0.0
C300 C 0.2582 0.77312 0.20197 0.0
C301 C 0.22226 0.76788 0.31721 0.0
C302 C 0.18828 0.74774 0.36709 0.0
C303 C 0.17578 0.71016 0.39229 0.0
C304 C 0.14382 0.69135 0.43974 0.0
C305 C 0.12403 0.70973 0.46211 0.0
C306 C 0.13647 0.74721 0.43774 0.0
C307 C 0.16862 0.7663 0.39074 0.0
H308 H 0.09917 0.69503 0.49854 0.0
H309 H 0.42079 0.86738 0.06956 0.0
H310 H 0.43967 0.3517 0.72414 0.0
H311 H 0.43791 0.29453 0.67118 0.0
H312 H 0.53843 0.32009 0.80155 0.0
H313 H 0.54009 0.3769 0.85485 0.0
H314 H 0.54486 0.31056 0.64344 0.0
H315 H 0.45576 0.24534 0.85046 0.0
H316 H 0.39729 0.22611 0.92507 0.0
H317 H 0.32912 0.17361 0.7246 0.0
H318 H 0.38727 0.193 0.64848 0.0
H319 H 0.57056 0.15404 0.60007 0.0
H320 H 0.55897 0.20366 0.64694 0.0
H321 H 0.45058 0.15101 0.52991 0.0
H322 H 0.46153 0.09975 0.48424 0.0
H323 H 0.44321 0.17438 0.66719 0.0
H324 H 0.52973 0.23471 0.46094 0.0
H325 H 0.58704 0.25417 0.3821 0.0
H326 H 0.65839 0.31743 0.57209 0.0
H327 H 0.60156 0.29788 0.65251 0.0
C328 C 0.46081 0.34453 0.74283 0.0
C329 C 0.49006 0.36878 0.79342 0.0
C330 C 0.45982 0.31191 0.71247 0.0
C331 C 0.48819 0.30312 0.732 0.0
C332 C 0.51635 0.32638 0.78536 0.0
C333 C 0.51708 0.35867 0.81631 0.0
C334 C 0.49033 0.27143 0.69318 0.0
C335 C 0.52281 0.28073 0.64927 0.0
C336 C 0.46081 0.2327 0.69783 0.0
C337 C 0.42588 0.221 0.74358 0.0
C338 C 0.42833 0.23001 0.8221 0.0
C339 C 0.39524 0.21901 0.86471 0.0
C340 C 0.35951 0.19876 0.82954 0.0
C341 C 0.35681 0.18936 0.75173 0.0
C342 C 0.38982 0.20032 0.70885 0.0
C343 C 0.54427 0.15289 0.58342 0.0
C344 C 0.51716 0.12291 0.53738 0.0
C345 C 0.53774 0.18159 0.6103 0.0
C346 C 0.50427 0.18181 0.59076 0.0
C347 C 0.47679 0.15172 0.54544 0.0
C348 C 0.48314 0.1225 0.51906 0.0
C349 C 0.49837 0.21336 0.61913 0.0
C350 C 0.46516 0.20418 0.66065 0.0
C351 C 0.52702 0.25242 0.61139 0.0
C352 C 0.56133 0.26459 0.56294 0.0
C353 C 0.55764 0.25258 0.48608 0.0
C354 C 0.59004 0.26364 0.44109 0.0
C355 C 0.62631 0.28696 0.47213 0.0
C356 C 0.63027 0.29935 0.54815 0.0
C357 C 0.59797 0.28833 0.59344 0.0
H358 H 0.65135 0.29548 0.43728 0.0
H359 H 0.33393 0.19026 0.86263 0.0
H360 H 1.00452 0.48382 0.87479 0.0
H361 H 1.00873 0.50929 0.74429 0.0
H362 H 1.02422 0.61494 0.83883 0.0
H363 H 1.02115 0.58997 0.96853 0.0
H364 H 0.96688 0.53586 0.66871 0.0
H365 H 0.0898 0.68689 0.71701 0.0
H366 H 0.1415 0.7239 0.80994 0.0
H367 H 0.14816 0.62348 0.86322 0.0
H368 H 0.0969 0.5861 0.76991 0.0
H369 H 1.01738 0.57503 0.29098 0.0
H370 H 1.00993 0.60197 0.41044 0.0
H371 H 0.09753 0.58583 0.51515 0.0
H372 H 0.10755 0.56251 0.39354 0.0
H373 H 0.09339 0.6418 0.58597 0.0
H374 H 1.00091 0.50743 0.49724 0.0
H375 H 0.95281 0.46377 0.40397 0.0
H376 H 0.8898 0.52225 0.43247 0.0
H377 H 0.93772 0.56631 0.52569 0.0
C378 C 1.009 0.51243 0.86701 0.0
C379 C 1.0133 0.53542 0.93011 0.0
C380 C 1.01093 0.52678 0.79322 0.0
C381 C 1.01682 0.56395 0.78273 0.0
C382 C 1.01992 0.58637 0.8462 0.0
C383 C 1.01843 0.57223 0.91965 0.0
C384 C 1.02261 0.57989 0.70502 0.0
C385 C 0.99413 0.55971 0.65055 0.0
C386 C 0.05794 0.61145 0.68226 0.0
C387 C 0.08917 0.63366 0.73754 0.0
C388 C 0.10236 0.67279 0.74858 0.0
C389 C 0.13159 0.69381 0.80123 0.0
C390 C 0.14797 0.676 0.84275 0.0
C391 C 0.13533 0.63719 0.83131 0.0
C392 C 0.10619 0.61608 0.77859 0.0
C393 C 1.03599 0.57869 0.33879 0.0
C394 C 0.06242 0.56603 0.33457 0.0
C395 C 1.03186 0.59425 0.40663 0.0
C396 C 0.05249 0.59497 0.47181 0.0
C397 C 0.08128 0.58549 0.46533 0.0
C398 C 0.08667 0.57169 0.39641 0.0
C399 C 0.03862 0.596 0.54903 0.0
C400 C 0.06525 0.61964 0.6041 0.0
C401 C 1.00189 0.56695 0.57249 0.0
C402 C 0.97287 0.54018 0.51769 0.0
C403 C 0.97674 0.51086 0.4835 0.0
C404 C 0.94958 0.48613 0.43063 0.0
C405 C 0.91829 0.49028 0.41221 0.0
C406 C 0.91407 0.51912 0.44673 0.0
C407 C 0.94119 0.54395 0.49957 0.0
H408 H 0.89724 0.47111 0.37139 0.0
H409 H 0.17053 0.6923 0.8836 0.0
H410 H 0.52822 0.97341 0.30432 0.0
H411 H 0.54892 0.95808 0.18547 0.0
H412 H 0.57545 0.06807 0.09183 0.0
H413 H 0.55773 0.08477 0.21306 0.0
H414 H 0.53282 0.94694 0.05008 0.0
H415 H 0.64856 0.11195 -0.00617 0.0
H416 H 0.69951 0.16373 0.0699 0.0
H417 H 0.69664 0.08136 0.23048 0.0
H418 H 0.64605 0.02892 0.15506 0.0
H419 H 0.4935 1.01516 0.76061 0.0
H420 H 0.51701 1.00192 0.87896 0.0
H421 H 0.62406 0.03312 0.769 0.0
H422 H 0.60095 0.04746 0.65047 0.0
H423 H 0.63526 0.05944 0.91263 0.0
H424 H 0.57478 0.94093 0.8152 0.0
H425 H 0.53101 0.88386 0.74037 0.0
H426 H 0.4385 0.86401 0.88884 0.0
H427 H 0.48133 0.92132 0.96371 0.0
C428 C 0.53802 0.99417 0.25789 0.0
C429 C 0.54227 0.03073 0.26801 0.0
C430 C 0.55021 0.98543 0.19038 0.0
C431 C 0.56574 1.01272 0.13154 0.0
C432 C 0.5657 0.04744 0.13844 0.0
C433 C 0.5546 0.05664 0.2067 0.0
C434 C 0.57994 1.00477 0.06029 0.0
C435 C 0.5558 0.97104 0.02022 0.0
C436 C 0.61259 0.03435 0.02342 0.0
C437 C 0.64354 0.06627 0.06811 0.0
C438 C 0.65906 0.10469 0.0447 0.0
C439 C 0.6878 0.13425 0.08804 0.0
C440 C 0.70138 0.12582 0.15481 0.0
C441 C 0.68611 0.08785 0.17873 0.0
C442 C 0.65736 0.0582 0.13574 0.0
C443 C 0.52227 1.01997 0.76217 0.0
C444 C 0.54522 0.03173 0.69669 0.0
C445 C 0.53545 1.01167 0.82903 0.0
C446 C 0.57157 1.0148 0.83096 0.0
C447 C 0.59574 0.02949 0.76751 0.0
C448 C 0.58261 0.038 0.70052 0.0
C449 C 0.58385 1.00473 0.90226 0.0
C450 C 0.61371 0.03449 0.94313 0.0
C451 C 0.55828 0.97031 0.94024 0.0
C452 C 0.53161 0.93549 0.89582 0.0
C453 C 0.54508 0.92452 0.83192 0.0
C454 C 0.52039 0.89208 0.78936 0.0
C455 C 0.48204 0.87025 0.81001 0.0
C456 C 0.46828 0.88086 0.87316 0.0
C457 C 0.49284 0.91331 0.91592 0.0
H458 H 0.46296 0.84515 0.77698 0.0
H459 H 0.72379 0.14866 0.18797 0.0
H460 H 0.48597 0.52005 0.62883 0.0
H461 H 0.46324 0.49455 0.50011 0.0
H462 H 0.5734 0.50849 0.44713 0.0
H463 H 0.59571 0.53262 0.57627 0.0
H464 H 0.48212 0.51577 0.35532 0.0
H465 H 0.56705 0.43137 0.37884 0.0
H466 H 0.57639 0.39289 0.47755 0.0
H467 H 0.47683 0.37635 0.59692 0.0
H468 H 0.46651 0.41409 0.49893 0.0
H469 H 0.59416 0.55918 0.09176 0.0
H470 H 0.57684 0.52445 0.21367 0.0
H471 H 0.48337 0.42666 0.10414 0.0
H472 H 0.50053 0.46088 -0.01785 0.0
H473 H 0.52338 0.42405 0.27624 0.0
H474 H 0.44239 0.45928 0.13922 0.0
H475 H 0.43301 0.49586 0.03622 0.0
H476 H 0.51134 0.60128 0.14768 0.0
H477 H 0.52231 0.56534 0.24984 0.0
C478 C 0.50572 0.51899 0.58855 0.0
C479 C 0.54243 0.52772 0.6119 0.0
C480 C 0.49247 0.50384 0.5158 0.0
C481 C 0.51608 0.49786 0.4664 0.0
C482 C 0.55429 0.51135 0.48633 0.0
C483 C 0.56734 0.52596 0.55907 0.0
C484 C 0.50182 0.47782 0.39324 0.0
C485 C 0.4894 0.49444 0.33827 0.0
C486 C 0.50945 0.44851 0.37212 0.0
C487 C 0.51593 0.42561 0.43112 0.0
C488 C 0.5469 0.41924 0.42573 0.0
C489 C 0.55247 0.39761 0.48189 0.0
C490 C 0.52726 0.38216 0.5437 0.0
C491 C 0.49646 0.38834 0.54944 0.0
C492 C 0.49076 0.40991 0.49363 0.0
C493 C 0.57109 0.52969 0.09311 0.0
C494 C 0.54746 0.51319 0.02949 0.0
C495 C 0.56167 0.5096 0.16212 0.0
C496 C 0.52827 0.47363 0.16719 0.0
C497 C 0.50901 0.45449 0.10073 0.0
C498 C 0.51855 0.47444 0.03157 0.0
C499 C 0.50738 0.46483 0.23935 0.0
C500 C 0.51313 0.44295 0.29413 0.0
C501 C 0.4915 0.48769 0.26051 0.0
C502 C 0.48324 0.50955 0.20208 0.0
C503 C 0.45777 0.49028 0.14155 0.0
C504 C 0.45238 0.51091 0.083 0.0
C505 C 0.47164 0.55088 0.08525 0.0
C506 C 0.49641 0.5703 0.14602 0.0
C507 C 0.50228 0.5498 0.20421 0.0
H508 H 0.46728 0.5668 0.04009 0.0
H509 H 0.53156 0.36541 0.5871 0.0
loop_
_geom_bond_atom_site_label_1
_geom_bond_atom_site_label_2
_geom_bond_distance
_geom_bond_site_symmetry_2
_ccdc_geom_bond_type
Dy0 O4 2.398 . S
Dy0 O5 2.491 . S
Dy0 O6 2.403 . S
Dy0 O7 2.664 1_455 S
Dy0 O11 2.326 . S
Dy0 O15 2.310 . S
Dy0 O16 2.351 1_455 S
C1 O12 1.185 . S
C1 O13 1.355 . S
C2 O4 1.185 . S
C2 O5 1.355 . S
Dy3 O7 2.310 . S
Dy3 O10 2.351 1_655 S
Dy3 O12 2.398 . S
Dy3 O13 2.491 . S
Dy3 O14 2.403 . S
Dy3 O15 2.664 1_655 S
Dy3 O17 2.326 . S
O4 Dy0 2.398 . S
O4 C2 1.185 . S
O5 Dy0 2.491 . S
O5 C2 1.355 . S
O6 Dy0 2.403 . S
O6 C8 1.254 . S
O7 Dy0 2.664 1_655 S
O7 Dy3 2.310 . S
O7 C8 1.268 1_655 S
C8 O6 1.254 . S
C8 O7 1.268 1_455 S
C9 O14 1.255 . S
C9 O15 1.267 1_655 S
O10 Dy3 2.351 1_455 S
O10 C18 1.249 . S
O11 Dy0 2.326 . S
O11 C18 1.267 . S
O12 C1 1.185 . S
O12 Dy3 2.398 . S
O13 C1 1.355 . S
O13 Dy3 2.491 . S
O14 Dy3 2.403 . S
O14 C9 1.255 . S
O15 Dy0 2.310 . S
O15 Dy3 2.664 1_455 S
O15 C9 1.267 1_455 S
O16 Dy0 2.351 1_655 S
O16 C19 1.249 . S
O17 Dy3 2.326 . S
O17 C19 1.267 . S
C18 O10 1.249 . S
C18 O11 1.267 . S
C19 O16 1.249 . S
C19 O17 1.267 . S
Dy20 O24 2.398 . S
Dy20 O25 2.491 . S
Dy20 O26 2.403 . S
Dy20 O27 2.664 1_565 S
Dy20 O31 2.326 . S
Dy20 O35 2.310 . S
Dy20 O36 2.351 1_565 S
C21 O32 1.185 . S
C21 O33 1.355 . S
C22 O24 1.185 . S
C22 O25 1.355 . S
Dy23 O27 2.310 . S
Dy23 O30 2.351 1_545 S
Dy23 O32 2.398 . S
Dy23 O33 2.491 . S
Dy23 O34 2.403 . S
Dy23 O35 2.664 1_545 S
Dy23 O37 2.326 . S
O24 Dy20 2.398 . S
O24 C22 1.185 . S
O25 Dy20 2.491 . S
O25 C22 1.355 . S
O26 Dy20 2.403 . S
O26 C28 1.259 . S
O27 Dy20 2.664 1_545 S
O27 Dy23 2.310 . S
O27 C28 1.266 1_545 S
C28 O26 1.259 . S
C28 O27 1.266 1_565 S
C29 O34 1.254 . S
C29 O35 1.268 1_545 S
O30 Dy23 2.351 1_565 S
O30 C38 1.249 . S
O31 Dy20 2.326 . S
O31 C38 1.267 . S
O32 C21 1.185 . S
O32 Dy23 2.398 . S
O33 C21 1.355 . S
O33 Dy23 2.491 . S
O34 Dy23 2.403 . S
O34 C29 1.254 . S
O35 Dy20 2.310 . S
O35 Dy23 2.664 1_565 S
O35 C29 1.268 1_565 S
O36 Dy20 2.351 1_545 S
O36 C39 1.249 . S
O37 Dy23 2.326 . S
O37 C39 1.267 . S
C38 O30 1.249 . S
C38 O31 1.267 . S
C39 O36 1.249 . S
C39 O37 1.267 . S
Dy40 O44 2.398 . S
Dy40 O45 2.491 . S
Dy40 O46 2.403 . S
Dy40 O47 2.664 . S
Dy40 O51 2.326 . S
Dy40 O55 2.310 . S
Dy40 O56 2.351 . S
C41 O52 1.185 . S
C41 O53 1.355 . S
C42 O44 1.185 . S
C42 O45 1.355 . S
Dy43 O47 2.310 . S
Dy43 O50 2.351 . S
Dy43 O52 2.398 . S
Dy43 O53 2.491 . S
Dy43 O54 2.403 . S
Dy43 O55 2.664 . S
Dy43 O57 2.326 . S
O44 Dy40 2.398 . S
O44 C42 1.185 . S
O45 Dy40 2.491 . S
O45 C42 1.355 . S
O46 Dy40 2.403 . S
O46 C48 1.254 . S
O47 Dy40 2.664 . S
O47 Dy43 2.310 . S
O47 C48 1.268 . S
C48 O46 1.254 . S
C48 O47 1.268 . S
C49 O54 1.254 . S
C49 O55 1.268 . S
O50 Dy43 2.351 . S
O50 C58 1.249 . S
O51 Dy40 2.326 . S
O51 C58 1.267 . S
O52 C41 1.185 . S
O52 Dy43 2.398 . S
O53 C41 1.355 . S
O53 Dy43 2.491 . S
O54 Dy43 2.403 . S
O54 C49 1.254 . S
O55 Dy40 2.310 . S
O55 Dy43 2.664 . S
O55 C49 1.268 . S
O56 Dy40 2.351 . S
O56 C59 1.249 . S
O57 Dy43 2.326 . S
O57 C59 1.267 . S
C58 O50 1.249 . S
C58 O51 1.267 . S
C59 O56 1.249 . S
C59 O57 1.267 . S
H60 C78 0.951 . S
H61 C80 0.951 . S
H62 C82 0.950 . S
H63 C83 0.950 . S
H64 C85 0.950 . S
H65 C88 0.950 . S
H66 C89 0.950 . S
H67 C91 0.950 . S
H68 C92 0.950 . S
H69 C93 0.951 . S
H70 C95 0.951 . S
H71 C97 0.950 . S
H72 C98 0.950 . S
H73 C100 0.950 . S
H74 C103 0.950 . S
H75 C104 0.950 . S
H76 C106 0.950 . S
H77 C107 0.950 . S
C78 H60 0.951 . S
C78 C79 1.366 . S
C78 C80 1.388 . S
C79 C78 1.366 . S
C79 C83 1.385 . S
C80 H61 0.951 . S
C80 C78 1.388 . S
C80 C81 1.366 . S
C81 C80 1.366 . S
C81 C82 1.414 . S
C81 C84 1.499 . S
C82 H62 0.950 . S
C82 C81 1.414 . S
C82 C83 1.374 . S
C83 H63 0.950 . S
C83 C79 1.385 . S
C83 C82 1.374 . S
C84 C81 1.499 . S
C84 C85 1.373 . S
C84 C86 1.389 1_554 S
C85 H64 0.950 . S
C85 C84 1.373 . S
C85 C101 1.377 . S
C86 C84 1.389 1_556 S
C86 C87 1.524 . S
C86 C100 1.377 . S
C87 C86 1.524 . S
C87 C88 1.397 . S
C87 C92 1.363 . S
C88 H65 0.950 . S
C88 C87 1.397 . S
C88 C89 1.334 . S
C89 H66 0.950 . S
C89 C88 1.334 . S
C89 C90 1.287 . S
C90 C89 1.287 . S
C90 C91 1.524 . S
C90 H109 0.913 . S
C91 H67 0.950 . S
C91 C90 1.524 . S
C91 C92 1.415 . S
C92 H68 0.950 . S
C92 C87 1.363 . S
C92 C91 1.415 . S
C93 H69 0.951 . S
C93 C94 1.366 . S
C93 C95 1.388 . S
C94 C93 1.366 . S
C94 C98 1.385 . S
C95 H70 0.951 . S
C95 C93 1.388 . S
C95 C96 1.366 . S
C96 C95 1.366 . S
C96 C97 1.414 . S
C96 C99 1.499 . S
C97 H71 0.950 . S
C97 C96 1.414 . S
C97 C98 1.374 . S
C98 H72 0.950 . S
C98 C94 1.385 . S
C98 C97 1.374 . S
C99 C96 1.499 . S
C99 C100 1.373 . S
C99 C101 1.389 1_556 S
C100 H73 0.950 . S
C100 C86 1.377 . S
C100 C99 1.373 . S
C101 C85 1.377 . S
C101 C99 1.389 1_554 S
C101 C102 1.524 . S
C102 C101 1.524 . S
C102 C103 1.397 . S
C102 C107 1.363 . S
C103 H74 0.950 . S
C103 C102 1.397 . S
C103 C104 1.334 . S
C104 H75 0.950 . S
C104 C103 1.334 . S
C104 C105 1.287 . S
C105 C104 1.287 . S
C105 C106 1.524 . S
C105 H108 0.999 . S
C106 H76 0.950 . S
C106 C105 1.524 . S
C106 C107 1.415 . S
C107 H77 0.950 . S
C107 C102 1.363 . S
C107 C106 1.415 . S
H108 C105 0.999 . S
H109 C90 0.913 . S
H110 C128 0.951 . S
H111 C130 0.951 . S
H112 C132 0.950 . S
H113 C133 0.950 . S
H114 C135 0.950 . S
H115 C138 0.950 . S
H116 C139 0.950 . S
H117 C141 0.950 . S
H118 C142 0.950 . S
H119 C143 0.951 . S
H120 C145 0.951 . S
H121 C147 0.950 . S
H122 C148 0.950 . S
H123 C150 0.950 . S
H124 C153 0.950 . S
H125 C154 0.950 . S
H126 C156 0.950 . S
H127 C157 0.950 . S
C128 H110 0.951 . S
C128 C129 1.366 . S
C128 C130 1.388 . S
C129 C128 1.366 . S
C129 C133 1.385 . S
C130 H111 0.951 . S
C130 C128 1.388 . S
C130 C131 1.366 . S
C131 C130 1.366 . S
C131 C132 1.414 . S
C131 C134 1.499 . S
C132 H112 0.950 . S
C132 C131 1.414 . S
C132 C133 1.374 . S
C133 H113 0.950 . S
C133 C129 1.385 . S
C133 C132 1.374 . S
C134 C131 1.499 . S
C134 C135 1.373 . S
C134 C136 1.389 . S
C135 H114 0.950 . S
C135 C134 1.373 . S
C135 C151 1.377 . S
C136 C134 1.389 . S
C136 C137 1.524 . S
C136 C150 1.377 . S
C137 C136 1.524 . S
C137 C138 1.397 . S
C137 C142 1.363 . S
C138 H115 0.950 . S
C138 C137 1.397 . S
C138 C139 1.334 . S
C139 H116 0.950 . S
C139 C138 1.334 . S
C139 C140 1.287 . S
C140 C139 1.287 . S
C140 C141 1.524 . S
C140 H159 0.913 . S
C141 H117 0.950 . S
C141 C140 1.524 . S
C141 C142 1.415 . S
C142 H118 0.950 . S
C142 C137 1.363 . S
C142 C141 1.415 . S
C143 H119 0.951 . S
C143 C144 1.366 . S
C143 C145 1.388 . S
C144 C143 1.366 . S
C144 C148 1.385 . S
C145 H120 0.951 . S
C145 C143 1.388 . S
C145 C146 1.366 . S
C146 C145 1.366 . S
C146 C147 1.414 . S
C146 C149 1.499 . S
C147 H121 0.950 . S
C147 C146 1.414 . S
C147 C148 1.374 . S
C148 H122 0.950 . S
C148 C144 1.385 . S
C148 C147 1.374 . S
C149 C146 1.499 . S
C149 C150 1.373 . S
C149 C151 1.389 . S
C150 H123 0.950 . S
C150 C136 1.377 . S
C150 C149 1.373 . S
C151 C135 1.377 . S
C151 C149 1.389 . S
C151 C152 1.524 . S
C152 C151 1.524 . S
C152 C153 1.397 . S
C152 C157 1.363 . S
C153 H124 0.950 . S
C153 C152 1.397 . S
C153 C154 1.334 . S
C154 H125 0.950 . S
C154 C153 1.334 . S
C154 C155 1.287 . S
C155 C154 1.287 . S
C155 C156 1.524 . S
C155 H158 0.999 . S
C156 H126 0.950 . S
C156 C155 1.524 . S
C156 C157 1.415 . S
C157 H127 0.950 . S
C157 C152 1.363 . S
C157 C156 1.415 . S
H158 C155 0.999 . S
H159 C140 0.913 . S
H160 C178 0.951 . S
H161 C180 0.951 . S
H162 C182 0.950 . S
H163 C183 0.950 . S
H164 C185 0.950 . S
H165 C188 0.950 . S
H166 C189 0.950 . S
H167 C191 0.950 . S
H168 C192 0.950 . S
H169 C193 0.951 . S
H170 C195 0.951 . S
H171 C197 0.950 . S
H172 C198 0.950 . S
H173 C200 0.950 . S
H174 C203 0.950 . S
H175 C204 0.950 . S
H176 C206 0.950 . S
H177 C207 0.950 . S
C178 H160 0.951 . S
C178 C179 1.366 . S
C178 C180 1.388 . S
C179 C178 1.366 . S
C179 C183 1.385 . S
C180 H161 0.951 . S
C180 C178 1.388 . S
C180 C181 1.366 . S
C181 C180 1.366 . S
C181 C182 1.414 . S
C181 C184 1.499 . S
C182 H162 0.950 . S
C182 C181 1.414 . S
C182 C183 1.374 . S
C183 H163 0.950 . S
C183 C179 1.385 . S
C183 C182 1.374 . S
C184 C181 1.499 . S
C184 C185 1.373 . S
C184 C186 1.389 . S
C185 H164 0.950 . S
C185 C184 1.373 . S
C185 C201 1.377 . S
C186 C184 1.389 . S
C186 C187 1.524 . S
C186 C200 1.377 . S
C187 C186 1.524 . S
C187 C188 1.397 . S
C187 C192 1.363 . S
C188 H165 0.950 . S
C188 C187 1.397 . S
C188 C189 1.334 . S
C189 H166 0.950 . S
C189 C188 1.334 . S
C189 C190 1.287 . S
C190 C189 1.287 . S
C190 C191 1.524 . S
C190 H209 0.913 . S
C191 H167 0.950 . S
C191 C190 1.524 . S
C191 C192 1.415 . S
C192 H168 0.950 . S
C192 C187 1.363 . S
C192 C191 1.415 . S
C193 H169 0.951 . S
C193 C194 1.366 . S
C193 C195 1.388 . S
C194 C193 1.366 . S
C194 C198 1.385 . S
C195 H170 0.951 . S
C195 C193 1.388 . S
C195 C196 1.366 . S
C196 C195 1.366 . S
C196 C197 1.414 . S
C196 C199 1.499 . S
C197 H171 0.950 . S
C197 C196 1.414 . S
C197 C198 1.374 . S
C198 H172 0.950 . S
C198 C194 1.385 . S
C198 C197 1.374 . S
C199 C196 1.499 . S
C199 C200 1.373 . S
C199 C201 1.389 . S
C200 H173 0.950 . S
C200 C186 1.377 . S
C200 C199 1.373 . S
C201 C185 1.377 . S
C201 C199 1.389 . S
C201 C202 1.524 . S
C202 C201 1.524 . S
C202 C203 1.397 . S
C202 C207 1.363 . S
C203 H174 0.950 . S
C203 C202 1.397 . S
C203 C204 1.334 . S
C204 H175 0.950 . S
C204 C203 1.334 . S
C204 C205 1.287 . S
C205 C204 1.287 . S
C205 C206 1.524 . S
C205 H208 0.999 1_556 S
C206 H176 0.950 . S
C206 C205 1.524 . S
C206 C207 1.415 . S
C207 H177 0.950 . S
C207 C202 1.363 . S
C207 C206 1.415 . S
H208 C205 0.999 1_554 S
H209 C190 0.913 . S
H210 C228 0.951 . S
H211 C230 0.951 1_554 S
H212 C232 0.950 . S
H213 C233 0.950 . S
H214 C235 0.950 . S
H215 C238 0.950 1_556 S
H216 C239 0.950 1_556 S
H217 C241 0.950 . S
H218 C242 0.950 . S
H219 C243 0.951 . S
H220 C245 0.951 1_556 S
H221 C247 0.950 . S
H222 C248 0.950 . S
H223 C250 0.950 . S
H224 C253 0.950 . S
H225 C254 0.950 1_554 S
H226 C256 0.950 . S
H227 C257 0.950 . S
C228 H210 0.951 . S
C228 C229 1.366 . S
C228 C230 1.388 . S
C229 C228 1.366 . S
C229 C233 1.385 . S
C230 H211 0.951 1_556 S
C230 C228 1.388 . S
C230 C231 1.366 . S
C231 C230 1.366 . S
C231 C232 1.414 . S
C231 C234 1.499 . S
C232 H212 0.950 . S
C232 C231 1.414 . S
C232 C233 1.374 . S
C233 H213 0.950 . S
C233 C229 1.385 . S
C233 C232 1.374 . S
C234 C231 1.499 . S
C234 C235 1.373 . S
C234 C236 1.389 1_556 S
C235 H214 0.950 . S
C235 C234 1.373 . S
C235 C251 1.377 . S
C236 C234 1.389 1_554 S
C236 C237 1.524 . S
C236 C250 1.377 . S
C237 C236 1.524 . S
C237 C238 1.397 . S
C237 C242 1.363 . S
C238 H215 0.950 1_554 S
C238 C237 1.397 . S
C238 C239 1.334 . S
C239 H216 0.950 1_554 S
C239 C238 1.334 . S
C239 C240 1.287 . S
C240 C239 1.287 . S
C240 C241 1.524 . S
C240 H259 0.913 . S
C241 H217 0.950 . S
C241 C240 1.524 . S
C241 C242 1.415 . S
C242 H218 0.950 . S
C242 C237 1.363 . S
C242 C241 1.415 . S
C243 H219 0.951 . S
C243 C244 1.366 . S
C243 C245 1.388 . S
C244 C243 1.366 . S
C244 C248 1.385 . S
C245 H220 0.951 1_554 S
C245 C243 1.388 . S
C245 C246 1.366 . S
C246 C245 1.366 . S
C246 C247 1.414 . S
C246 C249 1.499 . S
C247 H221 0.950 . S
C247 C246 1.414 . S
C247 C248 1.374 . S
C248 H222 0.950 . S
C248 C244 1.385 . S
C248 C247 1.374 . S
C249 C246 1.499 . S
C249 C250 1.373 . S
C249 C251 1.389 1_554 S
C250 H223 0.950 . S
C250 C236 1.377 . S
C250 C249 1.373 . S
C251 C235 1.377 . S
C251 C249 1.389 1_556 S
C251 C252 1.524 . S
C252 C251 1.524 . S
C252 C253 1.397 1_556 S
C252 C257 1.363 . S
C253 H224 0.950 . S
C253 C252 1.397 1_554 S
C253 C254 1.334 1_554 S
C254 H225 0.950 1_556 S
C254 C253 1.334 1_556 S
C254 C255 1.287 . S
C255 C254 1.287 . S
C255 C256 1.524 . S
C255 H258 0.999 . S
C256 H226 0.950 . S
C256 C255 1.524 . S
C256 C257 1.415 . S
C257 H227 0.950 . S
C257 C252 1.363 . S
C257 C256 1.415 . S
H258 C255 0.999 . S
H259 C240 0.913 . S
H260 C278 0.951 . S
H261 C280 0.951 . S
H262 C282 0.950 . S
H263 C283 0.950 . S
H264 C285 0.950 . S
H265 C288 0.950 . S
H266 C289 0.950 . S
H267 C291 0.950 . S
H268 C292 0.950 . S
H269 C293 0.951 . S
H270 C295 0.951 . S
H271 C297 0.950 . S
H272 C298 0.950 . S
H273 C300 0.950 . S
H274 C303 0.950 . S
H275 C304 0.950 . S
H276 C306 0.950 . S
H277 C307 0.950 . S
C278 H260 0.951 . S
C278 C279 1.366 . S
C278 C280 1.388 . S
C279 C278 1.366 . S
C279 C283 1.385 . S
C280 H261 0.951 . S
C280 C278 1.388 . S
C280 C281 1.366 . S
C281 C280 1.366 . S
C281 C282 1.414 . S
C281 C284 1.499 . S
C282 H262 0.950 . S
C282 C281 1.414 . S
C282 C283 1.374 . S
C283 H263 0.950 . S
C283 C279 1.385 . S
C283 C282 1.374 . S
C284 C281 1.499 . S
C284 C285 1.373 . S
C284 C286 1.389 . S
C285 H264 0.950 . S
C285 C284 1.373 . S
C285 C301 1.377 . S
C286 C284 1.389 . S
C286 C287 1.524 . S
C286 C300 1.377 . S
C287 C286 1.524 . S
C287 C288 1.397 . S
C287 C292 1.363 . S
C288 H265 0.950 . S
C288 C287 1.397 . S
C288 C289 1.334 . S
C289 H266 0.950 . S
C289 C288 1.334 . S
C289 C290 1.287 . S
C290 C289 1.287 . S
C290 C291 1.524 . S
C290 H309 0.913 . S
C291 H267 0.950 . S
C291 C290 1.524 . S
C291 C292 1.415 . S
C292 H268 0.950 . S
C292 C287 1.363 . S
C292 C291 1.415 . S
C293 H269 0.951 . S
C293 C294 1.366 . S
C293 C295 1.388 . S
C294 C293 1.366 . S
C294 C298 1.385 . S
C295 H270 0.951 . S
C295 C293 1.388 . S
C295 C296 1.366 . S
C296 C295 1.366 . S
C296 C297 1.414 . S
C296 C299 1.499 . S
C297 H271 0.950 . S
C297 C296 1.414 . S
C297 C298 1.374 . S
C298 H272 0.950 . S
C298 C294 1.385 . S
C298 C297 1.374 . S
C299 C296 1.499 . S
C299 C300 1.373 . S
C299 C301 1.389 . S
C300 H273 0.950 . S
C300 C286 1.377 . S
C300 C299 1.373 . S
C301 C285 1.377 . S
C301 C299 1.389 . S
C301 C302 1.524 . S
C302 C301 1.524 . S
C302 C303 1.397 . S
C302 C307 1.363 . S
C303 H274 0.950 . S
C303 C302 1.397 . S
C303 C304 1.334 . S
C304 H275 0.950 . S
C304 C303 1.334 . S
C304 C305 1.287 . S
C305 C304 1.287 . S
C305 C306 1.524 . S
C305 H308 0.999 . S
C306 H276 0.950 . S
C306 C305 1.524 . S
C306 C307 1.415 . S
C307 H277 0.950 . S
C307 C302 1.363 . S
C307 C306 1.415 . S
H308 C305 0.999 . S
H309 C290 0.913 . S
H310 C328 0.951 . S
H311 C330 0.951 . S
H312 C332 0.950 . S
H313 C333 0.950 . S
H314 C335 0.950 . S
H315 C338 0.950 . S
H316 C339 0.950 . S
H317 C341 0.950 . S
H318 C342 0.950 . S
H319 C343 0.951 . S
H320 C345 0.951 . S
H321 C347 0.950 . S
H322 C348 0.950 . S
H323 C350 0.950 . S
H324 C353 0.950 . S
H325 C354 0.950 . S
H326 C356 0.950 . S
H327 C357 0.950 . S
C328 H310 0.951 . S
C328 C329 1.366 . S
C328 C330 1.388 . S
C329 C328 1.366 . S
C329 C333 1.385 . S
C330 H311 0.951 . S
C330 C328 1.388 . S
C330 C331 1.366 . S
C331 C330 1.366 . S
C331 C332 1.414 . S
C331 C334 1.499 . S
C332 H312 0.950 . S
C332 C331 1.414 . S
C332 C333 1.374 . S
C333 H313 0.950 . S
C333 C329 1.385 . S
C333 C332 1.374 . S
C334 C331 1.499 . S
C334 C335 1.373 . S
C334 C336 1.389 . S
C335 H314 0.950 . S
C335 C334 1.373 . S
C335 C351 1.377 . S
C336 C334 1.389 . S
C336 C337 1.524 . S
C336 C350 1.377 . S
C337 C336 1.524 . S
C337 C338 1.397 . S
C337 C342 1.363 . S
C338 H315 0.950 . S
C338 C337 1.397 . S
C338 C339 1.334 . S
C339 H316 0.950 . S
C339 C338 1.334 . S
C339 C340 1.287 . S
C340 C339 1.287 . S
C340 C341 1.524 . S
C340 H359 0.913 . S
C341 H317 0.950 . S
C341 C340 1.524 . S
C341 C342 1.415 . S
C342 H318 0.950 . S
C342 C337 1.363 . S
C342 C341 1.415 . S
C343 H319 0.951 . S
C343 C344 1.366 . S
C343 C345 1.388 . S
C344 C343 1.366 . S
C344 C348 1.385 . S
C345 H320 0.951 . S
C345 C343 1.388 . S
C345 C346 1.366 . S
C346 C345 1.366 . S
C346 C347 1.414 . S
C346 C349 1.499 . S
C347 H321 0.950 . S
C347 C346 1.414 . S
C347 C348 1.374 . S
C348 H322 0.950 . S
C348 C344 1.385 . S
C348 C347 1.374 . S
C349 C346 1.499 . S
C349 C350 1.373 . S
C349 C351 1.389 . S
C350 H323 0.950 . S
C350 C336 1.377 . S
C350 C349 1.373 . S
C351 C335 1.377 . S
C351 C349 1.389 . S
C351 C352 1.524 . S
C352 C351 1.524 . S
C352 C353 1.397 . S
C352 C357 1.363 . S
C353 H324 0.950 . S
C353 C352 1.397 . S
C353 C354 1.334 . S
C354 H325 0.950 . S
C354 C353 1.334 . S
C354 C355 1.287 . S
C355 C354 1.287 . S
C355 C356 1.524 . S
C355 H358 0.999 . S
C356 H326 0.950 . S
C356 C355 1.524 . S
C356 C357 1.415 . S
C357 H327 0.950 . S
C357 C352 1.363 . S
C357 C356 1.415 . S
H358 C355 0.999 . S
H359 C340 0.913 . S
H360 C378 0.951 . S
H361 C380 0.951 . S
H362 C382 0.950 . S
H363 C383 0.950 . S
H364 C385 0.950 . S
H365 C388 0.950 . S
H366 C389 0.950 . S
H367 C391 0.950 . S
H368 C392 0.950 . S
H369 C393 0.951 . S
H370 C395 0.951 . S
H371 C397 0.950 . S
H372 C398 0.950 . S
H373 C400 0.950 . S
H374 C403 0.950 . S
H375 C404 0.950 . S
H376 C406 0.950 . S
H377 C407 0.950 . S
C378 H360 0.951 . S
C378 C379 1.366 1_556 S
C378 C380 1.388 . S
C379 C378 1.366 1_554 S
C379 C383 1.385 1_454 S
C380 H361 0.951 . S
C380 C378 1.388 . S
C380 C381 1.366 . S
C381 C380 1.366 . S
C381 C382 1.414 1_455 S
C381 C384 1.499 . S
C382 H362 0.950 . S
C382 C381 1.414 1_655 S
C382 C383 1.374 . S
C383 H363 0.950 . S
C383 C379 1.385 1_656 S
C383 C382 1.374 . S
C384 C381 1.499 . S
C384 C385 1.373 1_455 S
C384 C386 1.389 . S
C385 H364 0.950 . S
C385 C384 1.373 1_655 S
C385 C401 1.377 . S
C386 C384 1.389 . S
C386 C387 1.524 . S
C386 C400 1.377 . S
C387 C386 1.524 . S
C387 C388 1.397 . S
C387 C392 1.363 . S
C388 H365 0.950 . S
C388 C387 1.397 . S
C388 C389 1.334 . S
C389 H366 0.950 . S
C389 C388 1.334 . S
C389 C390 1.287 . S
C390 C389 1.287 . S
C390 C391 1.524 . S
C390 H409 0.913 . S
C391 H367 0.950 . S
C391 C390 1.524 . S
C391 C392 1.415 . S
C392 H368 0.950 . S
C392 C387 1.363 . S
C392 C391 1.415 . S
C393 H369 0.951 . S
C393 C394 1.366 . S
C393 C395 1.388 . S
C394 C393 1.366 . S
C394 C398 1.385 1_655 S
C395 H370 0.951 . S
C395 C393 1.388 . S
C395 C396 1.366 . S
C396 C395 1.366 . S
C396 C397 1.414 1_655 S
C396 C399 1.499 . S
C397 H371 0.950 . S
C397 C396 1.414 1_455 S
C397 C398 1.374 . S
C398 H372 0.950 . S
C398 C394 1.385 1_455 S
C398 C397 1.374 . S
C399 C396 1.499 . S
C399 C400 1.373 1_655 S
C399 C401 1.389 . S
C400 H373 0.950 . S
C400 C386 1.377 . S
C400 C399 1.373 1_455 S
C401 C385 1.377 . S
C401 C399 1.389 . S
C401 C402 1.524 . S
C402 C401 1.524 . S
C402 C403 1.397 . S
C402 C407 1.363 . S
C403 H374 0.950 . S
C403 C402 1.397 . S
C403 C404 1.334 . S
C404 H375 0.950 . S
C404 C403 1.334 . S
C404 C405 1.287 . S
C405 C404 1.287 . S
C405 C406 1.524 . S
C405 H408 0.999 . S
C406 H376 0.950 . S
C406 C405 1.524 . S
C406 C407 1.415 . S
C407 H377 0.950 . S
C407 C402 1.363 . S
C407 C406 1.415 . S
H408 C405 0.999 . S
H409 C390 0.913 . S
H410 C428 0.951 . S
H411 C430 0.951 . S
H412 C432 0.950 . S
H413 C433 0.950 . S
H414 C435 0.950 . S
H415 C438 0.950 . S
H416 C439 0.950 . S
H417 C441 0.950 . S
H418 C442 0.950 . S
H419 C443 0.951 . S
H420 C445 0.951 . S
H421 C447 0.950 . S
H422 C448 0.960 . S
H423 C450 0.950 . S
H424 C453 0.950 . S
H425 C454 0.950 . S
H426 C456 0.950 . S
H427 C457 0.950 . S
C428 H410 0.951 . S
C428 C429 1.366 . S
C428 C430 1.388 . S
C429 C428 1.366 . S
C429 C433 1.385 1_565 S
C430 H411 0.951 . S
C430 C428 1.388 . S
C430 C431 1.361 1_565 S
C431 C430 1.361 1_545 S
C431 C432 1.418 . S
C431 C434 1.499 . S
C432 H412 0.950 . S
C432 C431 1.418 . S
C432 C433 1.374 . S
C433 H413 0.950 . S
C433 C429 1.385 1_545 S
C433 C432 1.374 . S
C434 C431 1.499 . S
C434 C435 1.373 1_545 S
C434 C436 1.389 . S
C435 H414 0.950 . S
C435 C434 1.373 1_565 S
C435 C451 1.377 1_554 S
C436 C434 1.389 . S
C436 C437 1.524 . S
C436 C450 1.377 1_554 S
C437 C436 1.524 . S
C437 C438 1.397 . S
C437 C442 1.363 . S
C438 H415 0.950 . S
C438 C437 1.397 . S
C438 C439 1.334 . S
C439 H416 0.950 . S
C439 C438 1.334 . S
C439 C440 1.287 . S
C440 C439 1.287 . S
C440 C441 1.524 . S
C440 H459 0.913 . S
C441 H417 0.950 . S
C441 C440 1.524 . S
C441 C442 1.415 . S
C442 H418 0.950 . S
C442 C437 1.363 . S
C442 C441 1.415 . S
C443 H419 0.951 . S
C443 C444 1.366 . S
C443 C445 1.388 . S
C444 C443 1.366 . S
C444 C448 1.374 1_545 S
C445 H420 0.951 . S
C445 C443 1.388 . S
C445 C446 1.380 . S
C446 C445 1.380 . S
C446 C447 1.402 1_545 S
C446 C449 1.497 1_545 S
C447 H421 0.950 . S
C447 C446 1.402 1_565 S
C447 C448 1.375 . S
C448 H422 0.960 . S
C448 C444 1.374 1_565 S
C448 C447 1.375 . S
C449 C446 1.497 1_565 S
C449 C450 1.369 1_565 S
C449 C451 1.394 . S
C450 H423 0.950 . S
C450 C436 1.377 1_556 S
C450 C449 1.369 1_545 S
C451 C435 1.377 1_556 S
C451 C449 1.394 . S
C451 C452 1.524 . S
C452 C451 1.524 . S
C452 C453 1.397 . S
C452 C457 1.363 . S
C453 H424 0.950 . S
C453 C452 1.397 . S
C453 C454 1.334 . S
C454 H425 0.950 . S
C454 C453 1.334 . S
C454 C455 1.287 . S
C455 C454 1.287 . S
C455 C456 1.524 . S
C455 H458 0.999 . S
C456 H426 0.950 . S
C456 C455 1.524 . S
C456 C457 1.415 . S
C457 H427 0.950 . S
C457 C452 1.363 . S
C457 C456 1.415 . S
H458 C455 0.999 . S
H459 C440 0.913 . S
H460 C478 0.951 . S
H461 C480 0.951 . S
H462 C482 0.950 . S
H463 C483 0.950 . S
H464 C485 0.950 . S
H465 C488 0.950 . S
H466 C489 0.950 . S
H467 C491 0.950 . S
H468 C492 0.950 . S
H469 C493 0.951 . S
H470 C495 0.951 . S
H471 C497 0.950 . S
H472 C498 0.950 . S
H473 C500 0.950 . S
H474 C503 0.950 . S
H475 C504 0.950 . S
H476 C506 0.950 . S
H477 C507 0.950 . S
C478 H460 0.951 . S
C478 C479 1.366 . S
C478 C480 1.388 . S
C479 C478 1.366 . S
C479 C483 1.385 . S
C480 H461 0.951 . S
C480 C478 1.388 . S
C480 C481 1.366 . S
C481 C480 1.366 . S
C481 C482 1.414 . S
C481 C484 1.499 . S
C482 H462 0.950 . S
C482 C481 1.414 . S
C482 C483 1.374 . S
C483 H463 0.950 . S
C483 C479 1.385 . S
C483 C482 1.374 . S
C484 C481 1.499 . S
C484 C485 1.373 . S
C484 C486 1.389 . S
C485 H464 0.950 . S
C485 C484 1.373 . S
C485 C501 1.377 . S
C486 C484 1.389 . S
C486 C487 1.524 . S
C486 C500 1.377 . S
C487 C486 1.524 . S
C487 C488 1.397 . S
C487 C492 1.363 . S
C488 H465 0.950 . S
C488 C487 1.397 . S
C488 C489 1.334 . S
C489 H466 0.950 . S
C489 C488 1.334 . S
C489 C490 1.287 . S
C490 C489 1.287 . S
C490 C491 1.524 . S
C490 H509 0.913 . S
C491 H467 0.950 . S
C491 C490 1.524 . S
C491 C492 1.415 . S
C492 H468 0.950 . S
C492 C487 1.363 . S
C492 C491 1.415 . S
C493 H469 0.951 . S
C493 C494 1.366 1_554 S
C493 C495 1.388 . S
C494 C493 1.366 1_556 S
C494 C498 1.385 1_556 S
C495 H470 0.951 . S
C495 C493 1.388 . S
C495 C496 1.366 . S
C496 C495 1.366 . S
C496 C497 1.414 . S
C496 C499 1.499 . S
C497 H471 0.950 . S
C497 C496 1.414 . S
C497 C498 1.374 . S
C498 H472 0.950 . S
C498 C494 1.385 1_554 S
C498 C497 1.374 . S
C499 C496 1.499 . S
C499 C500 1.373 . S
C499 C501 1.389 . S
C500 H473 0.950 . S
C500 C486 1.377 . S
C500 C499 1.373 . S
C501 C485 1.377 . S
C501 C499 1.389 . S
C501 C502 1.524 . S
C502 C501 1.524 . S
C502 C503 1.397 . S
C502 C507 1.363 . S
C503 H474 0.950 . S
C503 C502 1.397 . S
C503 C504 1.334 . S
C504 H475 0.950 . S
C504 C503 1.334 . S
C504 C505 1.287 . S
C505 C504 1.287 . S
C505 C506 1.524 . S
C505 H508 0.999 . S
C506 H476 0.950 . S
C506 C505 1.524 . S
C506 C507 1.415 . S
C507 H477 0.950 . S
C507 C502 1.363 . S
C507 C506 1.415 . S
H508 C505 0.999 . S
H509 C490 0.913 . S
C79 C2 1.921 . S
C94 C58 1.868 . S
C129 C21 1.919 . S
C144 C19 1.994 . S
C179 C38 1.867 . S
C194 C42 1.920 . S
C229 C59 1.994 . S
C244 C1 1.918 . S
C279 C22 1.921 . S
C294 C18 1.868 . S
C329 C41 1.919 . S
C344 C39 1.994 . S
C379 C9 0.389 1_455 S
C394 C8 0.390 1_655 S
C429 C29 0.392 1_565 S
C444 C28 0.392 1_545 S
C479 C49 0.392 . S
C494 C48 0.392 . S
