# Generated by pormake.
# Topology upa, (4)-cn, num edge types: 1
# Building blocks:
#     Node 0, Type 0, BuildingBlock: KUFVIS_clean_sbu_0, # of connection points: 4
#     Node 1, Type 0, BuildingBlock: KUFVIS_clean_sbu_0, # of connection points: 4
#     Node 2, Type 0, BuildingBlock: KUFVIS_clean_sbu_0, # of connection points: 4
#     Node 3, Type 0, BuildingBlock: KUFVIS_clean_sbu_0, # of connection points: 4
#     Node 4, Type 0, BuildingBlock: KUFVIS_clean_sbu_0, # of connection points: 4
#     Node 5, Type 0, BuildingBlock: KUFVIS_clean_sbu_0, # of connection points: 4
#     Node 6, Type 0, BuildingBlock: KUFVIS_clean_sbu_0, # of connection points: 4
#     Node 7, Type 0, BuildingBlock: KUFVIS_clean_sbu_0, # of connection points: 4
#     Edge 8, Type (0, 0), BuildingBlock: CIFDUS_clean_linker_0, # of connection points: 2
#     Edge 9, Type (0, 0), BuildingBlock: CIFDUS_clean_linker_0, # of connection points: 2
#     Edge 10, Type (0, 0), BuildingBlock: CIFDUS_clean_linker_0, # of connection points: 2
#     Edge 11, Type (0, 0), BuildingBlock: CIFDUS_clean_linker_0, # of connection points: 2
#     Edge 12, Type (0, 0), BuildingBlock: CIFDUS_clean_linker_0, # of connection points: 2
#     Edge 13, Type (0, 0), BuildingBlock: CIFDUS_clean_linker_0, # of connection points: 2
#     Edge 14, Type (0, 0), BuildingBlock: CIFDUS_clean_linker_0, # of connection points: 2
#     Edge 15, Type (0, 0), BuildingBlock: CIFDUS_clean_linker_0, # of connection points: 2
#     Edge 16, Type (0, 0), BuildingBlock: CIFDUS_clean_linker_0, # of connection points: 2
#     Edge 17, Type (0, 0), BuildingBlock: CIFDUS_clean_linker_0, # of connection points: 2
#     Edge 18, Type (0, 0), BuildingBlock: CIFDUS_clean_linker_0, # of connection points: 2
#     Edge 19, Type (0, 0), BuildingBlock: CIFDUS_clean_linker_0, # of connection points: 2
#     Edge 20, Type (0, 0), BuildingBlock: CIFDUS_clean_linker_0, # of connection points: 2
#     Edge 21, Type (0, 0), BuildingBlock: CIFDUS_clean_linker_0, # of connection points: 2
#     Edge 22, Type (0, 0), BuildingBlock: CIFDUS_clean_linker_0, # of connection points: 2
#     Edge 23, Type (0, 0), BuildingBlock: CIFDUS_clean_linker_0, # of connection points: 2
# Relax obj value: 0.185
# Max RMSD: 0.139
# Mean RMSD: 0.139
data_MOF--net-upa--node1-KUFVIS_clean_sbu_0--edge1-CIFDUS_clean_linker_0
_symmetry_space_group_name_H-M    P1
_symmetry_Int_Tables_number       1
_symmetry_cell_setting            triclinic
loop_
_symmetry_equiv_pos_as_xyz
'x, y, z'
_cell_length_a     22.318773
_cell_length_b     22.330064
_cell_length_c     38.427267
_cell_angle_alpha  89.567278
_cell_angle_beta   90.015975
_cell_angle_gamma 90.016339
loop_
_atom_site_label
_atom_site_type_symbol
_atom_site_fract_x
_atom_site_fract_y
_atom_site_fract_z
_atom_type_partial_charge
Mn0 Mn 0.18357 0.21423 0.3513 0.0
Mn1 Mn 0.26158 0.08881 0.36872 0.0
C2 C 0.13546 0.12909 0.3708 0.0
C3 C 0.12243 0.26746 0.31242 0.0
C4 C 0.25454 0.19356 0.41869 0.0
O5 O 0.26353 0.23084 0.32685 0.0
O6 O 0.311 0.14412 0.33955 0.0
C7 C 0.26568 0.04186 0.29685 0.0
N8 N 0.24937 0.03507 0.33081 0.0
C9 C 0.20154 0.94078 0.31883 0.0
C10 C 0.21819 0.94664 0.28379 0.0
C11 C 0.2504 0.99739 0.27277 0.0
C12 C 0.21823 0.98643 0.34167 0.0
H13 H 0.28987 0.08107 0.28814 0.0
C14 C 0.30914 0.19607 0.32508 0.0
O15 O 0.1471 0.29431 0.33876 0.0
O16 O 0.13926 0.21314 0.30672 0.0
N17 N 0.2184 0.03123 0.39614 0.0
C18 C 0.20623 0.03206 0.43089 0.0
C19 C 0.17481 0.98408 0.44614 0.0
C20 C 0.15634 0.93576 0.42555 0.0
C21 C 0.17016 0.93549 0.38996 0.0
C22 C 0.2024 0.9841 0.37632 0.0
H23 H 0.22004 0.06918 0.44685 0.0
O24 O 0.11093 0.18107 0.3746 0.0
O25 O 0.18761 0.1289 0.35589 0.0
O26 O 0.22209 0.22758 0.39938 0.0
O27 O 0.27295 0.1418 0.40926 0.0
C28 C 0.15296 0.88903 0.36746 0.0
C29 C 0.16859 0.8917 0.33192 0.0
H30 H 0.20624 0.91262 0.26511 0.0
H31 H 0.26317 1.00235 0.24573 0.0
H32 H 0.1644 0.98459 0.47364 0.0
H33 H 0.13145 0.89921 0.43731 0.0
H34 H 0.1276 0.85109 0.3772 0.0
H35 H 0.15511 0.8557 0.31491 0.0
Mn36 Mn 0.29379 0.67491 0.8465 0.0
Mn37 Mn 0.41441 0.75313 0.87233 0.0
C38 C 0.37659 0.62647 0.86869 0.0
C39 C 0.24642 0.61703 0.80424 0.0
C40 C 0.30238 0.73903 0.91661 0.0
O41 O 0.27972 0.75658 0.8234 0.0
O42 O 0.3628 0.80448 0.84195 0.0
C43 C 0.47234 0.76547 0.80325 0.0
N44 N 0.47417 0.74582 0.83689 0.0
C45 C 0.57109 0.70103 0.82818 0.0
C46 C 0.5704 0.72124 0.79356 0.0
C47 C 0.5208 0.75358 0.78105 0.0
C48 C 0.52163 0.71446 0.84914 0.0
H49 H 0.43408 0.78973 0.79335 0.0
C50 C 0.31363 0.80287 0.82466 0.0
O51 O 0.21603 0.63953 0.82992 0.0
O52 O 0.30144 0.63424 0.80111 0.0
N53 N 0.46847 0.70814 0.90113 0.0
C54 C 0.46252 0.69237 0.9353 0.0
C55 C 0.50866 0.66026 0.95187 0.0
C56 C 0.56042 0.64481 0.9332 0.0
C57 C 0.56593 0.66232 0.89823 0.0
C58 C 0.51888 0.69506 0.88324 0.0
H59 H 0.42277 0.70386 0.94978 0.0
O60 O 0.32463 0.60083 0.86942 0.0
O61 O 0.3781 0.67993 0.85526 0.0
O62 O 0.27239 0.70864 0.89451 0.0
O63 O 0.35511 0.75932 0.91058 0.0
C64 C 0.61614 0.64836 0.87763 0.0
C65 C 0.6187 0.66766 0.84263 0.0
H66 H 0.60754 0.71194 0.77631 0.0
H67 H 0.51981 0.76906 0.7543 0.0
H68 H 0.50412 0.64703 0.97889 0.0
H69 H 0.59557 0.6194 0.94595 0.0
H70 H 0.65301 0.62273 0.88843 0.0
H71 H 0.65755 0.65666 0.82708 0.0
Mn72 Mn 0.84976 0.79173 0.3548 0.0
Mn73 Mn 0.77138 0.91012 0.38343 0.0
C74 C 0.89761 0.8686 0.38324 0.0
C75 C 0.91001 0.75055 0.31118 0.0
C76 C 0.7794 0.79251 0.42343 0.0
O77 O 0.77008 0.78235 0.32912 0.0
O78 O 0.72186 0.86281 0.35036 0.0
C79 C 0.76783 0.97431 0.31567 0.0
N80 N 0.7835 0.97288 0.34994 0.0
C81 C 0.83226 0.06878 0.34502 0.0
C82 C 0.81627 0.07142 0.30976 0.0
C83 C 0.78389 0.02397 0.29504 0.0
C84 C 0.81496 0.01817 0.3643 0.0
H85 H 0.74365 0.93767 0.30406 0.0
C86 C 0.72392 0.81613 0.33121 0.0
O87 O 0.88539 0.71642 0.3348 0.0
O88 O 0.89421 0.80614 0.31096 0.0
N89 N 0.81347 0.96082 0.41512 0.0
C90 C 0.82242 0.95288 0.44994 0.0
C91 C 0.85213 0.99744 0.46895 0.0
C92 C 0.87202 0.04977 0.45202 0.0
C93 C 0.86086 0.05763 0.41636 0.0
C94 C 0.82997 0.01222 0.39894 0.0
H95 H 0.80725 0.91274 0.46308 0.0
O96 O 0.92226 0.81639 0.3812 0.0
O97 O 0.84602 0.87437 0.36788 0.0
O98 O 0.81071 0.76447 0.40079 0.0
O99 O 0.76118 0.84662 0.41929 0.0
C100 C 0.87893 0.10885 0.39745 0.0
C101 C 0.86493 0.11427 0.36176 0.0
H102 H 0.82872 0.10956 0.29373 0.0
H103 H 0.77161 0.02553 0.2678 0.0
H104 H 0.86008 0.99126 0.49653 0.0
H105 H 0.89556 0.0837 0.46667 0.0
H106 H 0.90352 0.14438 0.41012 0.0
H107 H 0.87917 0.15379 0.34746 0.0
Mn108 Mn 0.71655 0.34169 0.85968 0.0
Mn109 Mn 0.59236 0.2634 0.87955 0.0
C110 C 0.63604 0.38837 0.88544 0.0
C111 C 0.76399 0.40561 0.81945 0.0
C112 C 0.70292 0.26473 0.92579 0.0
O113 O 0.72924 0.26416 0.83252 0.0
O114 O 0.6444 0.2162 0.84788 0.0
C115 C 0.54019 0.26797 0.80866 0.0
N116 N 0.5359 0.28019 0.84325 0.0
C117 C 0.44207 0.3314 0.83466 0.0
C118 C 0.44532 0.31901 0.799 0.0
C119 C 0.4946 0.28713 0.78596 0.0
C120 C 0.48882 0.31113 0.85603 0.0
H121 H 0.5783 0.24417 0.7984 0.0
C122 C 0.69438 0.21866 0.83156 0.0
O123 O 0.79482 0.37901 0.84385 0.0
O124 O 0.70873 0.38971 0.81649 0.0
N125 N 0.53706 0.3033 0.90957 0.0
C126 C 0.53904 0.3085 0.94486 0.0
C127 C 0.49182 0.33716 0.96226 0.0
C128 C 0.44299 0.35985 0.94321 0.0
C129 C 0.4412 0.35252 0.90701 0.0
C130 C 0.48896 0.32249 0.89122 0.0
H131 H 0.57649 0.29117 0.95961 0.0
O132 O 0.68873 0.41222 0.88662 0.0
O133 O 0.63204 0.33847 0.86843 0.0
O134 O 0.73553 0.29791 0.90595 0.0
O135 O 0.6494 0.24838 0.91809 0.0
C136 C 0.3938 0.37358 0.886 0.0
C137 C 0.3944 0.36332 0.84982 0.0
H138 H 0.41033 0.33384 0.78139 0.0
H139 H 0.49759 0.27761 0.75844 0.0
H140 H 0.49329 0.34217 0.99023 0.0
H141 H 0.40703 0.38259 0.95666 0.0
H142 H 0.35663 0.39763 0.89742 0.0
H143 H 0.35777 0.37983 0.83391 0.0
Mn144 Mn 0.68545 0.30602 0.18835 0.0
Mn145 Mn 0.76462 0.43028 0.16955 0.0
C146 C 0.63962 0.3868 0.16205 0.0
C147 C 0.62112 0.25709 0.22763 0.0
C148 C 0.76362 0.32085 0.12303 0.0
O149 O 0.76226 0.29289 0.21646 0.0
O150 O 0.81123 0.37742 0.20157 0.0
C151 C 0.75931 0.48101 0.2405 0.0
N152 N 0.74748 0.48599 0.20582 0.0
C153 C 0.69661 0.57987 0.21414 0.0
C154 C 0.7086 0.57587 0.2499 0.0
C155 C 0.7401 0.52623 0.26312 0.0
C156 C 0.71691 0.53344 0.19287 0.0
H157 H 0.78288 0.44264 0.2509 0.0
C158 C 0.80803 0.32731 0.21791 0.0
O159 O 0.64855 0.22721 0.20339 0.0
O160 O 0.63614 0.31251 0.23095 0.0
N161 N 0.72542 0.48637 0.13927 0.0
C162 C 0.72087 0.48523 0.10392 0.0
C163 C 0.69262 0.53289 0.08637 0.0
C164 C 0.66972 0.58133 0.10533 0.0
C165 C 0.67646 0.58229 0.14161 0.0
C166 C 0.70607 0.5341 0.15757 0.0
H167 H 0.73836 0.44809 0.08923 0.0
O168 O 0.61561 0.33422 0.16058 0.0
O169 O 0.68907 0.39064 0.17977 0.0
O170 O 0.73029 0.28793 0.1426 0.0
O171 O 0.78003 0.37414 0.13096 0.0
C172 C 0.65533 0.62934 0.16253 0.0
C173 C 0.66513 0.62799 0.1988 0.0
H174 H 0.69376 0.61056 0.26744 0.0
H175 H 0.74932 0.52271 0.29071 0.0
H176 H 0.68809 0.53207 0.05834 0.0
H177 H 0.64732 0.61764 0.09176 0.0
H178 H 0.63162 0.66686 0.15098 0.0
H179 H 0.64864 0.6644 0.21462 0.0
Mn180 Mn 0.21161 0.17657 0.6865 0.0
Mn181 Mn 0.08612 0.25293 0.66728 0.0
C182 C 0.1271 0.12716 0.66757 0.0
C183 C 0.26306 0.1171 0.72712 0.0
C184 C 0.19267 0.24545 0.61806 0.0
O185 O 0.2273 0.25752 0.70951 0.0
O186 O 0.14025 0.30359 0.69593 0.0
C187 C 0.03721 0.25855 0.73885 0.0
N188 N 0.03141 0.24133 0.70508 0.0
C189 C 0.93743 0.19256 0.71736 0.0
C190 C 0.94223 0.21018 0.75219 0.0
C191 C 0.99233 0.24332 0.76297 0.0
C192 C 0.98342 0.2093 0.69447 0.0
H193 H 0.07595 0.2834 0.74739 0.0
C194 C 0.19202 0.3028 0.71044 0.0
O195 O 0.29116 0.14029 0.70055 0.0
O196 O 0.20867 0.13458 0.73192 0.0
N197 N 0.02969 0.2084 0.64021 0.0
C198 C 0.0316 0.19523 0.60565 0.0
C199 C 0.98431 0.16294 0.59062 0.0
C200 C 0.93561 0.14456 0.61124 0.0
C201 C 0.93426 0.15932 0.64664 0.0
C202 C 0.98217 0.19249 0.66004 0.0
H203 H 0.06904 0.20899 0.5897 0.0
O204 O 0.17932 0.1028 0.66438 0.0
O205 O 0.12648 0.17994 0.68138 0.0
O206 O 0.22628 0.21335 0.63783 0.0
O207 O 0.14041 0.26358 0.62696 0.0
C208 C 0.88749 0.14205 0.66919 0.0
C209 C 0.88913 0.15856 0.70454 0.0
H210 H 0.90787 0.19827 0.77091 0.0
H211 H 0.99651 0.25681 0.78985 0.0
H212 H 0.98565 0.15178 0.56327 0.0
H213 H 0.89962 0.11895 0.59966 0.0
H214 H 0.85013 0.1159 0.65964 0.0
H215 H 0.85298 0.14488 0.72162 0.0
Mn216 Mn 0.35107 0.7288 0.19234 0.0
Mn217 Mn 0.27484 0.60751 0.16593 0.0
C218 C 0.40095 0.64642 0.17121 0.0
C219 C 0.40815 0.77532 0.23539 0.0
C220 C 0.28881 0.71989 0.12143 0.0
O221 O 0.26848 0.74234 0.21412 0.0
O222 O 0.22216 0.65866 0.19525 0.0
C223 C 0.26169 0.54996 0.23528 0.0
N224 N 0.28192 0.54802 0.20185 0.0
C225 C 0.32845 0.45215 0.21197 0.0
C226 C 0.30759 0.45292 0.24637 0.0
C227 C 0.27406 0.50205 0.25806 0.0
C228 C 0.31441 0.50101 0.19039 0.0
H229 H 0.2367 0.58796 0.2446 0.0
C230 C 0.22258 0.70795 0.2122 0.0
O231 O 0.3864 0.80631 0.20948 0.0
O232 O 0.39016 0.72057 0.23832 0.0
N233 N 0.32117 0.55382 0.13808 0.0
C234 C 0.33762 0.55969 0.10407 0.0
C235 C 0.37075 0.51389 0.08823 0.0
C236 C 0.38662 0.46259 0.1075 0.0
C237 C 0.36847 0.45716 0.14231 0.0
C238 C 0.33457 0.50376 0.15651 0.0
H239 H 0.32584 0.59914 0.08916 0.0
O240 O 0.42612 0.69856 0.1706 0.0
O241 O 0.34707 0.64457 0.18379 0.0
O242 O 0.3185 0.75012 0.14378 0.0
O243 O 0.26911 0.66683 0.12733 0.0
C244 C 0.38305 0.40755 0.16354 0.0
C245 C 0.3632 0.40512 0.19838 0.0
H246 H 0.31735 0.41622 0.26408 0.0
H247 H 0.25812 0.50316 0.28464 0.0
H248 H 0.38451 0.51836 0.06134 0.0
H249 H 0.4129 0.42775 0.09534 0.0
H250 H 0.40971 0.37113 0.15338 0.0
H251 H 0.37494 0.36687 0.21449 0.0
Mn252 Mn 0.78834 0.84322 0.69347 0.0
Mn253 Mn 0.90793 0.76356 0.66743 0.0
C254 C 0.86593 0.88948 0.66446 0.0
C255 C 0.74498 0.90581 0.73511 0.0
C256 C 0.79206 0.77014 0.62613 0.0
O257 O 0.77827 0.76498 0.72087 0.0
O258 O 0.85897 0.7154 0.70084 0.0
C259 C 0.9691 0.76245 0.73592 0.0
N260 N 0.9692 0.77688 0.7014 0.0
C261 C 0.06499 0.8257 0.70655 0.0
C262 C 0.06603 0.81098 0.74208 0.0
C263 C 0.01788 0.77919 0.7568 0.0
C264 C 0.01521 0.80774 0.68702 0.0
H265 H 0.93191 0.73874 0.74752 0.0
C266 C 0.81181 0.71853 0.71974 0.0
O267 O 0.71199 0.87945 0.71184 0.0
O268 O 0.80071 0.89043 0.73631 0.0
N269 N 0.96026 0.8042 0.63559 0.0
C270 C 0.95403 0.81166 0.60054 0.0
C271 C 0.9995 0.84064 0.58155 0.0
C272 C 0.05098 0.8613 0.59875 0.0
C273 C 0.05715 0.85159 0.63467 0.0
C274 C 0.01089 0.82138 0.65208 0.0
H275 H 0.91453 0.79595 0.58719 0.0
O276 O 0.81362 0.91419 0.66561 0.0
O277 O 0.87154 0.83893 0.68115 0.0
O278 O 0.76292 0.80165 0.64818 0.0
O279 O 0.84608 0.75224 0.631 0.0
C280 C 0.1075 0.87038 0.65384 0.0
C281 C 0.11128 0.85772 0.6898 0.0
H282 H 0.10349 0.82395 0.7583 0.0
H283 H 0.01822 0.76789 0.78424 0.0
H284 H 0.99464 0.84747 0.55378 0.0
H285 H 0.08561 0.88428 0.58409 0.0
H286 H 0.14364 0.89448 0.64116 0.0
H287 H 0.15017 0.87247 0.70428 0.0
H288 H 0.07958 0.07154 0.42402 0.0
H289 H 0.1 0.07513 0.31254 0.0
H290 H 0.02123 0.99982 0.30653 0.0
H291 H 0.94646 0.93372 0.33308 0.0
H292 H 0.9436 0.91019 0.44425 0.0
H293 H 0.01586 0.99251 0.45094 0.0
C294 C 0.0675 0.05454 0.39861 0.0
C295 C 0.09564 0.07748 0.36878 0.0
C296 C 0.02472 1.0089 0.3955 0.0
C297 C 0.07935 0.05666 0.33579 0.0
C298 C 0.03417 0.01419 0.33235 0.0
C299 C 0.96115 0.94755 0.35874 0.0
C300 C 0.93728 0.91965 0.38834 0.0
C301 C 1.00628 0.99044 0.36201 0.0
C302 C 0.9592 0.93415 0.42138 0.0
C303 C 1.00093 0.98038 0.4251 0.0
H304 H 0.42756 0.56624 0.92261 0.0
H305 H 0.43927 0.59775 0.81206 0.0
H306 H 0.51616 0.52036 0.80706 0.0
H307 H 0.57864 0.44301 0.83413 0.0
H308 H 0.58647 0.42881 0.94571 0.0
H309 H 0.50346 0.50063 0.95097 0.0
C310 C 0.44825 0.55694 0.8977 0.0
C311 C 0.42907 0.58768 0.86782 0.0
C312 C 0.49472 0.51493 0.89534 0.0
C313 C 0.45473 0.57501 0.83541 0.0
C314 C 0.49812 0.53063 0.83252 0.0
C315 C 0.56129 0.4552 0.85951 0.0
C316 C 0.58485 0.42821 0.88947 0.0
C317 C 0.51792 0.49994 0.86226 0.0
C318 C 0.56586 0.4469 0.92239 0.0
C319 C 0.51923 0.48834 0.92533 0.0
H320 H 0.5843 0.44653 0.21171 0.0
H321 H 0.60133 0.43459 0.10049 0.0
H322 H 0.52982 0.51747 0.09288 0.0
H323 H 0.46321 0.59408 0.11904 0.0
H324 H 0.42889 0.58646 0.22931 0.0
H325 H 0.50651 0.51022 0.23669 0.0
C326 C 0.57282 0.46298 0.18589 0.0
C327 C 0.6004 0.43818 0.1567 0.0
C328 C 0.52825 0.50631 0.18181 0.0
C329 C 0.58266 0.45606 0.12323 0.0
C330 C 0.54144 0.50264 0.11894 0.0
C331 C 0.47197 0.57441 0.14442 0.0
C332 C 0.44029 0.59447 0.17353 0.0
C333 C 0.51408 0.52823 0.14814 0.0
C334 C 0.45233 0.57024 0.20655 0.0
C335 C 0.49683 0.52721 0.21079 0.0
H336 H 0.06772 0.06857 0.61647 0.0
H337 H 0.07623 0.09364 0.72742 0.0
H338 H 1.00135 0.01515 0.73634 0.0
H339 H 0.93363 0.93982 0.71248 0.0
H340 H 0.90534 0.93216 0.60189 0.0
H341 H 0.98753 1.0038 0.59228 0.0
C342 C 0.05186 0.05757 0.64241 0.0
C343 C 0.07601 0.08697 0.67125 0.0
C344 C 1.00635 0.015 0.64719 0.0
C345 C 0.05677 0.072 0.70493 0.0
C346 C 0.01452 0.02701 0.71003 0.0
C347 C 0.9464 0.95333 0.68631 0.0
C348 C 0.91705 0.92845 0.65771 0.0
C349 C 0.98935 0.99803 0.68136 0.0
C350 C 0.93025 0.94878 0.624 0.0
C351 C 0.97647 0.99007 0.61861 0.0
H352 H 0.19764 0.28053 0.45593 0.0
H353 H 0.33189 0.1422 0.46546 0.0
H354 H 0.3309 0.15231 0.52854 0.0
H355 H 0.28104 0.18933 0.58122 0.0
H356 H 0.14391 0.32479 0.57151 0.0
H357 H 0.15772 0.32731 0.50865 0.0
C358 C 0.22787 0.25363 0.47166 0.0
C359 C 0.26417 0.2101 0.45575 0.0
C360 C 0.22604 0.25853 0.50816 0.0
C361 C 0.30296 0.17571 0.47682 0.0
C362 C 0.30228 0.18125 0.51304 0.0
C363 C 0.25519 0.22051 0.56551 0.0
C364 C 0.2109 0.25617 0.58126 0.0
C365 C 0.26231 0.22083 0.52908 0.0
C366 C 0.17788 0.29624 0.56024 0.0
C367 C 0.1856 0.29765 0.52416 0.0
H368 H 0.34403 0.80889 0.96955 0.0
H369 H 0.20981 0.67592 0.94592 0.0
H370 H 0.18812 0.66369 1.00769 0.0
H371 H 0.21767 0.67967 0.06857 0.0
H372 H 0.35196 0.81256 0.0922 0.0
H373 H 0.36226 0.83623 0.03049 0.0
C374 C 0.30908 0.77815 0.97779 0.0
C375 C 0.27939 0.74275 0.95292 0.0
C376 C 0.29719 0.77069 1.01353 0.0
C377 C 0.23373 0.7037 0.96426 0.0
C378 C 0.2215 0.69628 0.99973 0.0
C379 C 0.24833 0.71471 0.06035 0.0
C380 C 0.28461 0.74351 0.08517 0.0
C381 C 0.25457 0.72784 0.02464 0.0
C382 C 0.32352 0.78933 0.07388 0.0
C383 C 0.3298 0.80272 0.03845 0.0
H384 H 0.83208 0.69839 0.57369 0.0
H385 H 0.69561 0.82868 0.59788 0.0
H386 H 0.6726 0.84012 0.53625 0.0
H387 H 0.70378 0.82691 0.47546 0.0
H388 H 0.84124 0.69774 0.45125 0.0
H389 H 0.85024 0.67159 0.51269 0.0
C390 C 0.79621 0.72818 0.56562 0.0
C391 C 0.76662 0.7635 0.59055 0.0
C392 C 0.78382 0.73549 0.52994 0.0
C393 C 0.71962 0.80114 0.57947 0.0
C394 C 0.70666 0.80815 0.54407 0.0
C395 C 0.73468 0.79194 0.48347 0.0
C396 C 0.77256 0.76529 0.45866 0.0
C397 C 0.74043 0.77769 0.51903 0.0
C398 C 0.81167 0.71941 0.4696 0.0
C399 C 0.81724 0.70467 0.50489 0.0
H400 H 0.79391 0.31857 0.96153 0.0
H401 H 0.65674 0.18325 0.97202 0.0
H402 H 0.67136 0.18105 0.03482 0.0
H403 H 0.70984 0.23028 0.08716 0.0
H404 H 0.84392 0.36868 0.07674 0.0
H405 H 0.84446 0.35587 1.01385 0.0
C406 C 0.7684 0.28728 0.97737 0.0
C407 C 0.72352 0.25195 0.96193 0.0
C408 C 0.77584 0.28733 1.01375 0.0
C409 C 0.69107 0.21164 0.98309 0.0
C410 C 0.69921 0.21047 1.01914 0.0
C411 C 0.74054 0.25645 0.07131 0.0
C412 C 0.77595 0.30115 0.08681 0.0
C413 C 0.73948 0.25009 0.0349 0.0
C414 C 0.81549 0.33445 0.06563 0.0
C415 C 0.81568 0.32738 0.02953 0.0
H416 H 0.52974 0.32287 0.25226 0.0
H417 H 0.59065 0.14028 0.24377 0.0
H418 H 0.49908 0.1054 0.2732 0.0
H419 H 0.40185 0.12751 0.30122 0.0
H420 H 0.33957 0.31046 0.30579 0.0
H421 H 0.43155 0.34447 0.27748 0.0
C422 C 0.52345 0.27536 0.25716 0.0
C423 C 0.56761 0.23419 0.24647 0.0
C424 C 0.47021 0.25582 0.27306 0.0
C425 C 0.55775 0.17282 0.25209 0.0
C426 C 0.50533 0.15299 0.26882 0.0
C427 C 0.4083 0.17489 0.29607 0.0
C428 C 0.36372 0.21642 0.30601 0.0
C429 C 0.46122 0.19415 0.27939 0.0
C430 C 0.37278 0.27747 0.29855 0.0
C431 C 0.42558 0.297 0.28247 0.0
H432 H 0.3852 0.89558 0.80314 0.0
H433 H 0.20137 0.83496 0.80305 0.0
H434 H 0.17057 0.92782 0.77427 0.0
H435 H 0.1951 0.02617 0.74999 0.0
H436 H 0.37886 0.08527 0.74517 0.0
H437 H 0.41065 0.99295 0.77539 0.0
C438 C 0.33835 0.90265 0.79686 0.0
C439 C 0.29554 0.8583 0.80561 0.0
C440 C 0.32102 0.95599 0.77976 0.0
C441 C 0.23524 0.86804 0.79672 0.0
C442 C 0.21756 0.92131 0.78038 0.0
C443 C 0.24217 0.0193 0.75588 0.0
C444 C 0.28456 0.06316 0.74612 0.0
C445 C 0.25995 0.96565 0.77206 0.0
C446 C 0.34544 0.05258 0.75284 0.0
C447 C 0.36346 0.99977 0.77002 0.0
H448 H 0.63218 0.89006 0.31134 0.0
H449 H 0.69083 0.70594 0.30754 0.0
H450 H 0.59674 0.6777 0.27963 0.0
H451 H 0.49798 0.70458 0.257 0.0
H452 H 0.4409 0.88904 0.25587 0.0
H453 H 0.53422 0.91801 0.28548 0.0
C454 C 0.62446 0.84374 0.30434 0.0
C455 C 0.6686 0.80006 0.31177 0.0
C456 C 0.57038 0.8279 0.28782 0.0
C457 C 0.658 0.74046 0.30206 0.0
C458 C 0.604 0.72422 0.28629 0.0
C459 C 0.50545 0.75114 0.26366 0.0
C460 C 0.4619 0.79454 0.25507 0.0
C461 C 0.5598 0.76743 0.27933 0.0
C462 C 0.4733 0.85481 0.26271 0.0
C463 C 0.52673 0.87127 0.27947 0.0
H464 H 0.62318 0.12732 0.80894 0.0
H465 H 0.80723 0.18706 0.81053 0.0
H466 H 0.83854 0.09395 0.78294 0.0
H467 H 0.81412 0.9957 0.75884 0.0
H468 H 0.63007 0.93746 0.75359 0.0
H469 H 0.59822 0.02986 0.78257 0.0
C470 C 0.67019 0.12014 0.80318 0.0
C471 C 0.71284 0.16431 0.81204 0.0
C472 C 0.68785 0.06658 0.78698 0.0
C473 C 0.77339 0.15426 0.80394 0.0
C474 C 0.79138 0.10079 0.78833 0.0
C475 C 0.767 1.00271 0.76442 0.0
C476 C 0.72452 0.95911 0.75469 0.0
C477 C 0.74908 0.05655 0.77999 0.0
C478 C 0.66361 0.96989 0.76119 0.0
C479 C 0.64548 0.02284 0.7776 0.0
H480 H 0.0291 0.20206 0.29072 0.0
H481 H 0.09211 0.3843 0.29606 0.0
H482 H 0.99928 0.41909 0.2678 0.0
H483 H 0.9009 0.39663 0.24096 0.0
H484 H 0.8368 0.21407 0.23988 0.0
H485 H 0.92922 0.18052 0.26784 0.0
C486 C 0.02291 0.24946 0.28538 0.0
C487 C 0.06806 0.29055 0.29465 0.0
C488 C 0.96899 0.26894 0.2703 0.0
C489 C 0.05841 0.35185 0.2887 0.0
C490 C 1.0053 0.3716 0.27267 0.0
C491 C 0.90702 0.34948 0.24691 0.0
C492 C 0.86189 0.30786 0.23793 0.0
C493 C 0.96032 0.33045 0.26328 0.0
C494 C 0.87044 0.24712 0.2464 0.0
C495 C 0.92353 0.22782 0.26222 0.0
H496 H 0.12201 0.39542 0.73236 0.0
H497 H 0.30594 0.3355 0.72908 0.0
H498 H 0.33831 0.42923 0.75557 0.0
H499 H 0.31477 0.52794 0.77932 0.0
H500 H 0.13091 0.58568 0.787 0.0
H501 H 0.09803 0.4932 0.75844 0.0
C502 C 0.16926 0.40278 0.73736 0.0
C503 C 0.21154 0.35836 0.7284 0.0
C504 C 0.18753 0.45665 0.75295 0.0
C505 C 0.2724 0.3686 0.73564 0.0
C506 C 0.29099 0.4224 0.75063 0.0
C507 C 0.26747 0.52082 0.77426 0.0
C508 C 0.22529 0.56426 0.78453 0.0
C509 C 0.24901 0.46681 0.75913 0.0
C510 C 0.16416 0.55336 0.77888 0.0
C511 C 0.14547 0.50038 0.76274 0.0
H512 H 0.13225 0.6346 0.23452 0.0
H513 H 0.18558 0.82031 0.22985 0.0
H514 H 0.09133 0.84938 0.25738 0.0
H515 H 0.99533 0.82216 0.28378 0.0
H516 H 0.94404 0.63641 0.2928 0.0
H517 H 0.03602 0.60706 0.26222 0.0
C518 C 0.12332 0.68148 0.23953 0.0
C519 C 0.16616 0.72531 0.2301 0.0
C520 C 0.06935 0.69774 0.25595 0.0
C521 C 0.15384 0.78571 0.23707 0.0
C522 C 0.09976 0.80234 0.25263 0.0
C523 C 1.00365 0.77519 0.27864 0.0
C524 C 0.96226 0.73148 0.29006 0.0
C525 C 0.05734 0.75876 0.26223 0.0
C526 C 0.97476 0.67086 0.28397 0.0
C527 C 0.02748 0.65416 0.26664 0.0
H528 H 0.69533 0.4959 0.79593 0.0
H529 H 0.8796 0.43859 0.80157 0.0
H530 H 0.91082 0.53104 0.77131 0.0
H531 H 0.88469 0.62798 0.74299 0.0
H532 H 0.7002 0.68602 0.74163 0.0
H533 H 0.67003 0.59328 0.77078 0.0
C534 C 0.74242 0.50314 0.79026 0.0
C535 C 0.78508 0.45973 0.80034 0.0
C536 C 0.75986 0.5568 0.77394 0.0
C537 C 0.84592 0.47089 0.79372 0.0
C538 C 0.86365 0.52381 0.77653 0.0
C539 C 0.8379 0.62045 0.74923 0.0
C540 C 0.79466 0.66408 0.73999 0.0
C541 C 0.82093 0.56711 0.76651 0.0
C542 C 0.73438 0.65368 0.7486 0.0
C543 C 0.71708 0.60043 0.76509 0.0
loop_
_geom_bond_atom_site_label_1
_geom_bond_atom_site_label_2
_geom_bond_distance
_geom_bond_site_symmetry_2
_ccdc_geom_bond_type
Mn0 O5 2.095 . S
Mn0 O15 2.162 . S
Mn0 O16 2.297 . S
Mn0 O24 2.385 . S
Mn0 O25 2.209 . S
Mn0 O26 2.094 . S
Mn1 O6 2.121 . S
Mn1 N8 2.257 . S
Mn1 N17 2.282 . S
Mn1 O25 2.215 . S
Mn1 O27 2.117 . S
C2 O24 1.234 . S
C2 O25 1.283 . S
C3 O15 1.281 . S
C3 O16 1.236 . S
C4 O26 1.240 . S
C4 O27 1.264 . S
O5 Mn0 2.095 . S
O5 C14 1.250 . S
O6 Mn1 2.121 . S
O6 C14 1.258 . S
C7 N8 1.326 . S
C7 C11 1.460 1_545 S
C7 H13 0.929 . S
N8 Mn1 2.257 . S
N8 C7 1.326 . S
N8 C12 1.362 1_545 S
C9 C10 1.258 . S
C9 C12 1.431 . S
C9 C29 1.449 . S
C10 C9 1.258 . S
C10 C11 1.477 . S
C10 H30 0.931 . S
C11 C7 1.460 1_565 S
C11 C10 1.477 . S
C11 H31 0.930 . S
C12 N8 1.362 1_565 S
C12 C9 1.431 . S
C12 C22 1.476 . S
H13 C7 0.929 . S
C14 O5 1.250 . S
C14 O6 1.258 . S
O15 Mn0 2.162 . S
O15 C3 1.281 . S
O16 Mn0 2.297 . S
O16 C3 1.236 . S
N17 Mn1 2.282 . S
N17 C18 1.328 . S
N17 C22 1.318 1_545 S
C18 N17 1.328 . S
C18 C19 1.457 1_545 S
C18 H23 0.929 . S
C19 C18 1.457 1_565 S
C19 C20 1.291 . S
C19 H32 0.931 . S
C20 C19 1.291 . S
C20 C21 1.373 . S
C20 H33 0.929 . S
C21 C20 1.373 . S
C21 C22 1.396 . S
C21 C28 1.403 . S
C22 C12 1.476 . S
C22 N17 1.318 1_565 S
C22 C21 1.396 . S
H23 C18 0.929 . S
O24 Mn0 2.385 . S
O24 C2 1.234 . S
O25 Mn0 2.209 . S
O25 Mn1 2.215 . S
O25 C2 1.283 . S
O26 Mn0 2.094 . S
O26 C4 1.240 . S
O27 Mn1 2.117 . S
O27 C4 1.264 . S
C28 C21 1.403 . S
C28 C29 1.399 . S
C28 H34 0.929 . S
C29 C9 1.449 . S
C29 C28 1.399 . S
C29 H35 0.930 . S
H30 C10 0.931 . S
H31 C11 0.930 . S
H32 C19 0.931 . S
H33 C20 0.929 . S
H34 C28 0.929 . S
H35 C29 0.930 . S
Mn36 O41 2.095 . S
Mn36 O51 2.162 . S
Mn36 O52 2.297 . S
Mn36 O60 2.385 . S
Mn36 O61 2.209 . S
Mn36 O62 2.094 . S
Mn37 O42 2.121 . S
Mn37 N44 2.257 . S
Mn37 N53 2.282 . S
Mn37 O61 2.215 . S
Mn37 O63 2.117 . S
C38 O60 1.234 . S
C38 O61 1.283 . S
C39 O51 1.281 . S
C39 O52 1.236 . S
C40 O62 1.240 . S
C40 O63 1.264 . S
O41 Mn36 2.095 . S
O41 C50 1.250 . S
O42 Mn37 2.121 . S
O42 C50 1.258 . S
C43 N44 1.326 . S
C43 C47 1.460 . S
C43 H49 0.929 . S
N44 Mn37 2.257 . S
N44 C43 1.326 . S
N44 C48 1.362 . S
C45 C46 1.258 . S
C45 C48 1.431 . S
C45 C65 1.449 . S
C46 C45 1.258 . S
C46 C47 1.477 . S
C46 H66 0.931 . S
C47 C43 1.460 . S
C47 C46 1.477 . S
C47 H67 0.930 . S
C48 N44 1.362 . S
C48 C45 1.431 . S
C48 C58 1.476 . S
H49 C43 0.929 . S
C50 O41 1.250 . S
C50 O42 1.258 . S
O51 Mn36 2.162 . S
O51 C39 1.281 . S
O52 Mn36 2.297 . S
O52 C39 1.236 . S
N53 Mn37 2.282 . S
N53 C54 1.328 . S
N53 C58 1.318 . S
C54 N53 1.328 . S
C54 C55 1.457 . S
C54 H59 0.929 . S
C55 C54 1.457 . S
C55 C56 1.291 . S
C55 H68 0.931 . S
C56 C55 1.291 . S
C56 C57 1.373 . S
C56 H69 0.929 . S
C57 C56 1.373 . S
C57 C58 1.396 . S
C57 C64 1.403 . S
C58 C48 1.476 . S
C58 N53 1.318 . S
C58 C57 1.396 . S
H59 C54 0.929 . S
O60 Mn36 2.385 . S
O60 C38 1.234 . S
O61 Mn36 2.209 . S
O61 Mn37 2.215 . S
O61 C38 1.283 . S
O62 Mn36 2.094 . S
O62 C40 1.240 . S
O63 Mn37 2.117 . S
O63 C40 1.264 . S
C64 C57 1.403 . S
C64 C65 1.399 . S
C64 H70 0.929 . S
C65 C45 1.449 . S
C65 C64 1.399 . S
C65 H71 0.930 . S
H66 C46 0.931 . S
H67 C47 0.930 . S
H68 C55 0.931 . S
H69 C56 0.929 . S
H70 C64 0.929 . S
H71 C65 0.930 . S
Mn72 O77 2.095 . S
Mn72 O87 2.162 . S
Mn72 O88 2.297 . S
Mn72 O96 2.385 . S
Mn72 O97 2.209 . S
Mn72 O98 2.094 . S
Mn73 O78 2.121 . S
Mn73 N80 2.257 . S
Mn73 N89 2.282 . S
Mn73 O97 2.215 . S
Mn73 O99 2.117 . S
C74 O96 1.234 . S
C74 O97 1.283 . S
C75 O87 1.281 . S
C75 O88 1.236 . S
C76 O98 1.240 . S
C76 O99 1.264 . S
O77 Mn72 2.095 . S
O77 C86 1.250 . S
O78 Mn73 2.121 . S
O78 C86 1.258 . S
C79 N80 1.326 . S
C79 C83 1.460 1_565 S
C79 H85 0.929 . S
N80 Mn73 2.257 . S
N80 C79 1.326 . S
N80 C84 1.362 1_565 S
C81 C82 1.258 . S
C81 C84 1.431 . S
C81 C101 1.449 . S
C82 C81 1.258 . S
C82 C83 1.477 . S
C82 H102 0.931 . S
C83 C79 1.460 1_545 S
C83 C82 1.477 . S
C83 H103 0.930 . S
C84 N80 1.362 1_545 S
C84 C81 1.431 . S
C84 C94 1.476 . S
H85 C79 0.929 . S
C86 O77 1.250 . S
C86 O78 1.258 . S
O87 Mn72 2.162 . S
O87 C75 1.281 . S
O88 Mn72 2.297 . S
O88 C75 1.236 . S
N89 Mn73 2.282 . S
N89 C90 1.328 . S
N89 C94 1.318 1_565 S
C90 N89 1.328 . S
C90 C91 1.457 1_565 S
C90 H95 0.929 . S
C91 C90 1.457 1_545 S
C91 C92 1.291 . S
C91 H104 0.931 . S
C92 C91 1.291 . S
C92 C93 1.373 . S
C92 H105 0.929 . S
C93 C92 1.373 . S
C93 C94 1.396 . S
C93 C100 1.403 . S
C94 C84 1.476 . S
C94 N89 1.318 1_545 S
C94 C93 1.396 . S
H95 C90 0.929 . S
O96 Mn72 2.385 . S
O96 C74 1.234 . S
O97 Mn72 2.209 . S
O97 Mn73 2.215 . S
O97 C74 1.283 . S
O98 Mn72 2.094 . S
O98 C76 1.240 . S
O99 Mn73 2.117 . S
O99 C76 1.264 . S
C100 C93 1.403 . S
C100 C101 1.399 . S
C100 H106 0.929 . S
C101 C81 1.449 . S
C101 C100 1.399 . S
C101 H107 0.930 . S
H102 C82 0.931 . S
H103 C83 0.930 . S
H104 C91 0.931 . S
H105 C92 0.929 . S
H106 C100 0.929 . S
H107 C101 0.930 . S
Mn108 O113 2.095 . S
Mn108 O123 2.162 . S
Mn108 O124 2.297 . S
Mn108 O132 2.385 . S
Mn108 O133 2.209 . S
Mn108 O134 2.094 . S
Mn109 O114 2.121 . S
Mn109 N116 2.257 . S
Mn109 N125 2.282 . S
Mn109 O133 2.215 . S
Mn109 O135 2.117 . S
C110 O132 1.234 . S
C110 O133 1.283 . S
C111 O123 1.281 . S
C111 O124 1.236 . S
C112 O134 1.240 . S
C112 O135 1.264 . S
O113 Mn108 2.095 . S
O113 C122 1.250 . S
O114 Mn109 2.121 . S
O114 C122 1.258 . S
C115 N116 1.326 . S
C115 C119 1.460 . S
C115 H121 0.929 . S
N116 Mn109 2.257 . S
N116 C115 1.326 . S
N116 C120 1.362 . S
C117 C118 1.258 . S
C117 C120 1.431 . S
C117 C137 1.449 . S
C118 C117 1.258 . S
C118 C119 1.477 . S
C118 H138 0.931 . S
C119 C115 1.460 . S
C119 C118 1.477 . S
C119 H139 0.930 . S
C120 N116 1.362 . S
C120 C117 1.431 . S
C120 C130 1.476 . S
H121 C115 0.929 . S
C122 O113 1.250 . S
C122 O114 1.258 . S
O123 Mn108 2.162 . S
O123 C111 1.281 . S
O124 Mn108 2.297 . S
O124 C111 1.236 . S
N125 Mn109 2.282 . S
N125 C126 1.328 . S
N125 C130 1.318 . S
C126 N125 1.328 . S
C126 C127 1.457 . S
C126 H131 0.929 . S
C127 C126 1.457 . S
C127 C128 1.291 . S
C127 H140 0.931 . S
C128 C127 1.291 . S
C128 C129 1.373 . S
C128 H141 0.929 . S
C129 C128 1.373 . S
C129 C130 1.396 . S
C129 C136 1.403 . S
C130 C120 1.476 . S
C130 N125 1.318 . S
C130 C129 1.396 . S
H131 C126 0.929 . S
O132 Mn108 2.385 . S
O132 C110 1.234 . S
O133 Mn108 2.209 . S
O133 Mn109 2.215 . S
O133 C110 1.283 . S
O134 Mn108 2.094 . S
O134 C112 1.240 . S
O135 Mn109 2.117 . S
O135 C112 1.264 . S
C136 C129 1.403 . S
C136 C137 1.399 . S
C136 H142 0.929 . S
C137 C117 1.449 . S
C137 C136 1.399 . S
C137 H143 0.930 . S
H138 C118 0.931 . S
H139 C119 0.930 . S
H140 C127 0.931 . S
H141 C128 0.929 . S
H142 C136 0.929 . S
H143 C137 0.930 . S
Mn144 O149 2.095 . S
Mn144 O159 2.162 . S
Mn144 O160 2.297 . S
Mn144 O168 2.385 . S
Mn144 O169 2.209 . S
Mn144 O170 2.094 . S
Mn145 O150 2.121 . S
Mn145 N152 2.257 . S
Mn145 N161 2.282 . S
Mn145 O169 2.215 . S
Mn145 O171 2.117 . S
C146 O168 1.234 . S
C146 O169 1.283 . S
C147 O159 1.281 . S
C147 O160 1.236 . S
C148 O170 1.240 . S
C148 O171 1.264 . S
O149 Mn144 2.095 . S
O149 C158 1.250 . S
O150 Mn145 2.121 . S
O150 C158 1.258 . S
C151 N152 1.326 . S
C151 C155 1.460 . S
C151 H157 0.929 . S
N152 Mn145 2.257 . S
N152 C151 1.326 . S
N152 C156 1.362 . S
C153 C154 1.258 . S
C153 C156 1.431 . S
C153 C173 1.449 . S
C154 C153 1.258 . S
C154 C155 1.477 . S
C154 H174 0.931 . S
C155 C151 1.460 . S
C155 C154 1.477 . S
C155 H175 0.930 . S
C156 N152 1.362 . S
C156 C153 1.431 . S
C156 C166 1.476 . S
H157 C151 0.929 . S
C158 O149 1.250 . S
C158 O150 1.258 . S
O159 Mn144 2.162 . S
O159 C147 1.281 . S
O160 Mn144 2.297 . S
O160 C147 1.236 . S
N161 Mn145 2.282 . S
N161 C162 1.328 . S
N161 C166 1.318 . S
C162 N161 1.328 . S
C162 C163 1.457 . S
C162 H167 0.929 . S
C163 C162 1.457 . S
C163 C164 1.291 . S
C163 H176 0.931 . S
C164 C163 1.291 . S
C164 C165 1.373 . S
C164 H177 0.929 . S
C165 C164 1.373 . S
C165 C166 1.396 . S
C165 C172 1.403 . S
C166 C156 1.476 . S
C166 N161 1.318 . S
C166 C165 1.396 . S
H167 C162 0.929 . S
O168 Mn144 2.385 . S
O168 C146 1.234 . S
O169 Mn144 2.209 . S
O169 Mn145 2.215 . S
O169 C146 1.283 . S
O170 Mn144 2.094 . S
O170 C148 1.240 . S
O171 Mn145 2.117 . S
O171 C148 1.264 . S
C172 C165 1.403 . S
C172 C173 1.399 . S
C172 H178 0.929 . S
C173 C153 1.449 . S
C173 C172 1.399 . S
C173 H179 0.930 . S
H174 C154 0.931 . S
H175 C155 0.930 . S
H176 C163 0.931 . S
H177 C164 0.929 . S
H178 C172 0.929 . S
H179 C173 0.930 . S
Mn180 O185 2.095 . S
Mn180 O195 2.162 . S
Mn180 O196 2.297 . S
Mn180 O204 2.385 . S
Mn180 O205 2.209 . S
Mn180 O206 2.094 . S
Mn181 O186 2.121 . S
Mn181 N188 2.257 . S
Mn181 N197 2.282 . S
Mn181 O205 2.215 . S
Mn181 O207 2.117 . S
C182 O204 1.234 . S
C182 O205 1.283 . S
C183 O195 1.281 . S
C183 O196 1.236 . S
C184 O206 1.240 . S
C184 O207 1.264 . S
O185 Mn180 2.095 . S
O185 C194 1.250 . S
O186 Mn181 2.121 . S
O186 C194 1.258 . S
C187 N188 1.326 . S
C187 C191 1.460 1_455 S
C187 H193 0.929 . S
N188 Mn181 2.257 . S
N188 C187 1.326 . S
N188 C192 1.362 1_455 S
C189 C190 1.258 . S
C189 C192 1.431 . S
C189 C209 1.449 . S
C190 C189 1.258 . S
C190 C191 1.477 . S
C190 H210 0.931 . S
C191 C187 1.460 1_655 S
C191 C190 1.477 . S
C191 H211 0.930 . S
C192 N188 1.362 1_655 S
C192 C189 1.431 . S
C192 C202 1.476 . S
H193 C187 0.929 . S
C194 O185 1.250 . S
C194 O186 1.258 . S
O195 Mn180 2.162 . S
O195 C183 1.281 . S
O196 Mn180 2.297 . S
O196 C183 1.236 . S
N197 Mn181 2.282 . S
N197 C198 1.328 . S
N197 C202 1.318 1_455 S
C198 N197 1.328 . S
C198 C199 1.457 1_455 S
C198 H203 0.929 . S
C199 C198 1.457 1_655 S
C199 C200 1.291 . S
C199 H212 0.931 . S
C200 C199 1.291 . S
C200 C201 1.373 . S
C200 H213 0.929 . S
C201 C200 1.373 . S
C201 C202 1.396 . S
C201 C208 1.403 . S
C202 C192 1.476 . S
C202 N197 1.318 1_655 S
C202 C201 1.396 . S
H203 C198 0.929 . S
O204 Mn180 2.385 . S
O204 C182 1.234 . S
O205 Mn180 2.209 . S
O205 Mn181 2.215 . S
O205 C182 1.283 . S
O206 Mn180 2.094 . S
O206 C184 1.240 . S
O207 Mn181 2.117 . S
O207 C184 1.264 . S
C208 C201 1.403 . S
C208 C209 1.399 . S
C208 H214 0.929 . S
C209 C189 1.449 . S
C209 C208 1.399 . S
C209 H215 0.930 . S
H210 C190 0.931 . S
H211 C191 0.930 . S
H212 C199 0.931 . S
H213 C200 0.929 . S
H214 C208 0.929 . S
H215 C209 0.930 . S
Mn216 O221 2.095 . S
Mn216 O231 2.162 . S
Mn216 O232 2.297 . S
Mn216 O240 2.385 . S
Mn216 O241 2.209 . S
Mn216 O242 2.094 . S
Mn217 O222 2.121 . S
Mn217 N224 2.257 . S
Mn217 N233 2.282 . S
Mn217 O241 2.215 . S
Mn217 O243 2.117 . S
C218 O240 1.234 . S
C218 O241 1.283 . S
C219 O231 1.281 . S
C219 O232 1.236 . S
C220 O242 1.240 . S
C220 O243 1.264 . S
O221 Mn216 2.095 . S
O221 C230 1.250 . S
O222 Mn217 2.121 . S
O222 C230 1.258 . S
C223 N224 1.326 . S
C223 C227 1.460 . S
C223 H229 0.929 . S
N224 Mn217 2.257 . S
N224 C223 1.326 . S
N224 C228 1.362 . S
C225 C226 1.258 . S
C225 C228 1.431 . S
C225 C245 1.449 . S
C226 C225 1.258 . S
C226 C227 1.477 . S
C226 H246 0.931 . S
C227 C223 1.460 . S
C227 C226 1.477 . S
C227 H247 0.930 . S
C228 N224 1.362 . S
C228 C225 1.431 . S
C228 C238 1.476 . S
H229 C223 0.929 . S
C230 O221 1.250 . S
C230 O222 1.258 . S
O231 Mn216 2.162 . S
O231 C219 1.281 . S
O232 Mn216 2.297 . S
O232 C219 1.236 . S
N233 Mn217 2.282 . S
N233 C234 1.328 . S
N233 C238 1.318 . S
C234 N233 1.328 . S
C234 C235 1.457 . S
C234 H239 0.929 . S
C235 C234 1.457 . S
C235 C236 1.291 . S
C235 H248 0.931 . S
C236 C235 1.291 . S
C236 C237 1.373 . S
C236 H249 0.929 . S
C237 C236 1.373 . S
C237 C238 1.396 . S
C237 C244 1.403 . S
C238 C228 1.476 . S
C238 N233 1.318 . S
C238 C237 1.396 . S
H239 C234 0.929 . S
O240 Mn216 2.385 . S
O240 C218 1.234 . S
O241 Mn216 2.209 . S
O241 Mn217 2.215 . S
O241 C218 1.283 . S
O242 Mn216 2.094 . S
O242 C220 1.240 . S
O243 Mn217 2.117 . S
O243 C220 1.264 . S
C244 C237 1.403 . S
C244 C245 1.399 . S
C244 H250 0.929 . S
C245 C225 1.449 . S
C245 C244 1.399 . S
C245 H251 0.930 . S
H246 C226 0.931 . S
H247 C227 0.930 . S
H248 C235 0.931 . S
H249 C236 0.929 . S
H250 C244 0.929 . S
H251 C245 0.930 . S
Mn252 O257 2.095 . S
Mn252 O267 2.162 . S
Mn252 O268 2.297 . S
Mn252 O276 2.385 . S
Mn252 O277 2.209 . S
Mn252 O278 2.094 . S
Mn253 O258 2.121 . S
Mn253 N260 2.257 . S
Mn253 N269 2.282 . S
Mn253 O277 2.215 . S
Mn253 O279 2.117 . S
C254 O276 1.234 . S
C254 O277 1.283 . S
C255 O267 1.281 . S
C255 O268 1.236 . S
C256 O278 1.240 . S
C256 O279 1.264 . S
O257 Mn252 2.095 . S
O257 C266 1.250 . S
O258 Mn253 2.121 . S
O258 C266 1.258 . S
C259 N260 1.326 . S
C259 C263 1.460 1_655 S
C259 H265 0.929 . S
N260 Mn253 2.257 . S
N260 C259 1.326 . S
N260 C264 1.362 1_655 S
C261 C262 1.258 . S
C261 C264 1.431 . S
C261 C281 1.449 . S
C262 C261 1.258 . S
C262 C263 1.477 . S
C262 H282 0.931 . S
C263 C259 1.460 1_455 S
C263 C262 1.477 . S
C263 H283 0.930 . S
C264 N260 1.362 1_455 S
C264 C261 1.431 . S
C264 C274 1.476 . S
H265 C259 0.929 . S
C266 O257 1.250 . S
C266 O258 1.258 . S
O267 Mn252 2.162 . S
O267 C255 1.281 . S
O268 Mn252 2.297 . S
O268 C255 1.236 . S
N269 Mn253 2.282 . S
N269 C270 1.328 . S
N269 C274 1.318 1_655 S
C270 N269 1.328 . S
C270 C271 1.457 1_655 S
C270 H275 0.929 . S
C271 C270 1.457 1_455 S
C271 C272 1.291 . S
C271 H284 0.931 . S
C272 C271 1.291 . S
C272 C273 1.373 . S
C272 H285 0.929 . S
C273 C272 1.373 . S
C273 C274 1.396 . S
C273 C280 1.403 . S
C274 C264 1.476 . S
C274 N269 1.318 1_455 S
C274 C273 1.396 . S
H275 C270 0.929 . S
O276 Mn252 2.385 . S
O276 C254 1.234 . S
O277 Mn252 2.209 . S
O277 Mn253 2.215 . S
O277 C254 1.283 . S
O278 Mn252 2.094 . S
O278 C256 1.240 . S
O279 Mn253 2.117 . S
O279 C256 1.264 . S
C280 C273 1.403 . S
C280 C281 1.399 . S
C280 H286 0.929 . S
C281 C261 1.449 . S
C281 C280 1.399 . S
C281 H287 0.930 . S
H282 C262 0.931 . S
H283 C263 0.930 . S
H284 C271 0.931 . S
H285 C272 0.929 . S
H286 C280 0.929 . S
H287 C281 0.930 . S
H288 C294 0.930 1_655 S
H289 C297 0.930 . S
H290 C298 0.930 . S
H291 C299 0.930 1_455 S
H292 C302 0.930 . S
H293 C303 0.930 . S
C294 H288 0.930 1_455 S
C294 C295 1.355 . S
C294 C296 1.415 1_455 S
C295 C294 1.355 . S
C295 C297 1.419 . S
C296 C294 1.415 1_655 S
C296 C301 1.425 1_645 S
C296 C303 1.409 . S
C297 H289 0.930 . S
C297 C295 1.419 . S
C297 C298 1.362 1_545 S
C298 H290 0.930 . S
C298 C297 1.362 1_565 S
C298 C301 1.409 . S
C299 H291 0.930 1_655 S
C299 C300 1.355 . S
C299 C301 1.415 1_655 S
C300 C299 1.355 . S
C300 C302 1.419 . S
C301 C296 1.425 1_465 S
C301 C298 1.409 . S
C301 C299 1.415 1_455 S
C302 H292 0.930 . S
C302 C300 1.419 . S
C302 C303 1.362 1_565 S
C303 H293 0.930 . S
C303 C296 1.409 . S
C303 C302 1.362 1_545 S
H304 C310 0.930 . S
H305 C313 0.930 . S
H306 C314 0.930 . S
H307 C315 0.930 . S
H308 C318 0.930 . S
H309 C319 0.930 . S
C310 H304 0.930 . S
C310 C311 1.355 . S
C310 C312 1.415 . S
C311 C310 1.355 . S
C311 C313 1.419 . S
C312 C310 1.415 . S
C312 C317 1.425 . S
C312 C319 1.409 . S
C313 H305 0.930 . S
C313 C311 1.419 . S
C313 C314 1.362 . S
C314 H306 0.930 . S
C314 C313 1.362 . S
C314 C317 1.409 . S
C315 H307 0.930 . S
C315 C316 1.355 . S
C315 C317 1.415 . S
C316 C315 1.355 . S
C316 C318 1.419 . S
C317 C312 1.425 . S
C317 C314 1.409 . S
C317 C315 1.415 . S
C318 H308 0.930 . S
C318 C316 1.419 . S
C318 C319 1.362 . S
C319 H309 0.930 . S
C319 C312 1.409 . S
C319 C318 1.362 . S
H320 C326 0.930 . S
H321 C329 0.930 . S
H322 C330 0.930 . S
H323 C331 0.930 . S
H324 C334 0.930 . S
H325 C335 0.930 . S
C326 H320 0.930 . S
C326 C327 1.355 . S
C326 C328 1.415 . S
C327 C326 1.355 . S
C327 C329 1.419 . S
C328 C326 1.415 . S
C328 C333 1.425 . S
C328 C335 1.409 . S
C329 H321 0.930 . S
C329 C327 1.419 . S
C329 C330 1.362 . S
C330 H322 0.930 . S
C330 C329 1.362 . S
C330 C333 1.409 . S
C331 H323 0.930 . S
C331 C332 1.355 . S
C331 C333 1.415 . S
C332 C331 1.355 . S
C332 C334 1.419 . S
C333 C328 1.425 . S
C333 C330 1.409 . S
C333 C331 1.415 . S
C334 H324 0.930 . S
C334 C332 1.419 . S
C334 C335 1.362 . S
C335 H325 0.930 . S
C335 C328 1.409 . S
C335 C334 1.362 . S
H336 C342 0.930 . S
H337 C345 0.930 . S
H338 C346 0.930 . S
H339 C347 0.930 . S
H340 C350 0.930 . S
H341 C351 0.930 . S
C342 H336 0.930 . S
C342 C343 1.355 . S
C342 C344 1.415 1_455 S
C343 C342 1.355 . S
C343 C345 1.419 1_545 S
C344 C342 1.415 1_655 S
C344 C349 1.425 1_645 S
C344 C351 1.409 . S
C345 H337 0.930 . S
C345 C343 1.419 1_565 S
C345 C346 1.362 . S
C346 H338 0.930 . S
C346 C345 1.362 . S
C346 C349 1.409 . S
C347 H339 0.930 . S
C347 C348 1.355 . S
C347 C349 1.415 1_655 S
C348 C347 1.355 . S
C348 C350 1.419 1_565 S
C349 C344 1.425 1_465 S
C349 C346 1.409 . S
C349 C347 1.415 1_455 S
C350 H340 0.930 . S
C350 C348 1.419 1_545 S
C350 C351 1.362 . S
C351 H341 0.930 . S
C351 C344 1.409 . S
C351 C350 1.362 . S
H352 C358 0.930 . S
H353 C361 0.930 . S
H354 C362 0.930 . S
H355 C363 0.930 . S
H356 C366 0.930 . S
H357 C367 0.930 . S
C358 H352 0.930 . S
C358 C359 1.355 . S
C358 C360 1.415 . S
C359 C358 1.355 . S
C359 C361 1.419 . S
C360 C358 1.415 . S
C360 C365 1.425 . S
C360 C367 1.409 . S
C361 H353 0.930 . S
C361 C359 1.419 . S
C361 C362 1.362 . S
C362 H354 0.930 . S
C362 C361 1.362 . S
C362 C365 1.409 . S
C363 H355 0.930 . S
C363 C364 1.355 . S
C363 C365 1.415 . S
C364 C363 1.355 . S
C364 C366 1.419 . S
C365 C360 1.425 . S
C365 C362 1.409 . S
C365 C363 1.415 . S
C366 H356 0.930 . S
C366 C364 1.419 . S
C366 C367 1.362 . S
C367 H357 0.930 . S
C367 C360 1.409 . S
C367 C366 1.362 . S
H368 C374 0.930 . S
H369 C377 0.930 . S
H370 C378 0.930 1_554 S
H371 C379 0.930 . S
H372 C382 0.930 . S
H373 C383 0.930 1_556 S
C374 H368 0.930 . S
C374 C375 1.355 . S
C374 C376 1.415 . S
C375 C374 1.355 . S
C375 C377 1.419 . S
C376 C374 1.415 . S
C376 C381 1.425 1_556 S
C376 C383 1.409 1_556 S
C377 H369 0.930 . S
C377 C375 1.419 . S
C377 C378 1.362 . S
C378 H370 0.930 1_556 S
C378 C377 1.362 . S
C378 C381 1.409 1_556 S
C379 H371 0.930 . S
C379 C380 1.355 . S
C379 C381 1.415 . S
C380 C379 1.355 . S
C380 C382 1.419 . S
C381 C376 1.425 1_554 S
C381 C378 1.409 1_554 S
C381 C379 1.415 . S
C382 H372 0.930 . S
C382 C380 1.419 . S
C382 C383 1.362 . S
C383 H373 0.930 1_554 S
C383 C376 1.409 1_554 S
C383 C382 1.362 . S
H384 C390 0.930 . S
H385 C393 0.930 . S
H386 C394 0.930 . S
H387 C395 0.930 . S
H388 C398 0.930 . S
H389 C399 0.930 . S
C390 H384 0.930 . S
C390 C391 1.355 . S
C390 C392 1.415 . S
C391 C390 1.355 . S
C391 C393 1.419 . S
C392 C390 1.415 . S
C392 C397 1.425 . S
C392 C399 1.409 . S
C393 H385 0.930 . S
C393 C391 1.419 . S
C393 C394 1.362 . S
C394 H386 0.930 . S
C394 C393 1.362 . S
C394 C397 1.409 . S
C395 H387 0.930 . S
C395 C396 1.355 . S
C395 C397 1.415 . S
C396 C395 1.355 . S
C396 C398 1.419 . S
C397 C392 1.425 . S
C397 C394 1.409 . S
C397 C395 1.415 . S
C398 H388 0.930 . S
C398 C396 1.419 . S
C398 C399 1.362 . S
C399 H389 0.930 . S
C399 C392 1.409 . S
C399 C398 1.362 . S
H400 C406 0.930 . S
H401 C409 0.930 . S
H402 C410 0.930 . S
H403 C411 0.930 . S
H404 C414 0.930 . S
H405 C415 0.930 . S
C406 H400 0.930 . S
C406 C407 1.355 . S
C406 C408 1.421 . S
C407 C406 1.355 . S
C407 C409 1.419 . S
C408 C406 1.421 . S
C408 C413 1.425 1_556 S
C408 C415 1.403 1_556 S
C409 H401 0.930 . S
C409 C407 1.419 . S
C409 C410 1.362 . S
C410 H402 0.930 . S
C410 C409 1.362 . S
C410 C413 1.403 1_556 S
C411 H403 0.930 . S
C411 C412 1.355 . S
C411 C413 1.421 . S
C412 C411 1.355 . S
C412 C414 1.419 . S
C413 C408 1.425 1_554 S
C413 C410 1.403 1_554 S
C413 C411 1.421 . S
C414 H404 0.930 . S
C414 C412 1.419 . S
C414 C415 1.362 . S
C415 H405 0.930 . S
C415 C408 1.403 1_554 S
C415 C414 1.362 . S
H416 C422 0.930 . S
H417 C425 0.930 . S
H418 C426 0.930 . S
H419 C427 0.930 . S
H420 C430 0.930 . S
H421 C431 0.930 . S
C422 H416 0.930 . S
C422 C423 1.355 . S
C422 C424 1.415 . S
C423 C422 1.355 . S
C423 C425 1.419 . S
C424 C422 1.415 . S
C424 C429 1.425 . S
C424 C431 1.409 . S
C425 H417 0.930 . S
C425 C423 1.419 . S
C425 C426 1.362 . S
C426 H418 0.930 . S
C426 C425 1.362 . S
C426 C429 1.409 . S
C427 H419 0.930 . S
C427 C428 1.355 . S
C427 C429 1.415 . S
C428 C427 1.355 . S
C428 C430 1.419 . S
C429 C424 1.425 . S
C429 C426 1.409 . S
C429 C427 1.415 . S
C430 H420 0.930 . S
C430 C428 1.419 . S
C430 C431 1.362 . S
C431 H421 0.930 . S
C431 C424 1.409 . S
C431 C430 1.362 . S
H432 C438 0.930 . S
H433 C441 0.930 . S
H434 C442 0.930 . S
H435 C443 0.930 . S
H436 C446 0.930 . S
H437 C447 0.930 . S
C438 H432 0.930 . S
C438 C439 1.355 . S
C438 C440 1.415 . S
C439 C438 1.355 . S
C439 C441 1.419 . S
C440 C438 1.415 . S
C440 C445 1.425 . S
C440 C447 1.409 . S
C441 H433 0.930 . S
C441 C439 1.419 . S
C441 C442 1.362 . S
C442 H434 0.930 . S
C442 C441 1.362 . S
C442 C445 1.409 . S
C443 H435 0.930 . S
C443 C444 1.355 . S
C443 C445 1.415 . S
C444 C443 1.355 . S
C444 C446 1.419 . S
C445 C440 1.425 . S
C445 C442 1.409 . S
C445 C443 1.415 . S
C446 H436 0.930 . S
C446 C444 1.419 . S
C446 C447 1.362 . S
C447 H437 0.930 . S
C447 C440 1.409 . S
C447 C446 1.362 . S
H448 C454 0.930 . S
H449 C457 0.930 . S
H450 C458 0.930 . S
H451 C459 0.930 . S
H452 C462 0.930 . S
H453 C463 0.930 . S
C454 H448 0.930 . S
C454 C455 1.355 . S
C454 C456 1.415 . S
C455 C454 1.355 . S
C455 C457 1.419 . S
C456 C454 1.415 . S
C456 C461 1.425 . S
C456 C463 1.409 . S
C457 H449 0.930 . S
C457 C455 1.419 . S
C457 C458 1.362 . S
C458 H450 0.930 . S
C458 C457 1.362 . S
C458 C461 1.409 . S
C459 H451 0.930 . S
C459 C460 1.355 . S
C459 C461 1.415 . S
C460 C459 1.355 . S
C460 C462 1.419 . S
C461 C456 1.425 . S
C461 C458 1.409 . S
C461 C459 1.415 . S
C462 H452 0.930 . S
C462 C460 1.419 . S
C462 C463 1.362 . S
C463 H453 0.930 . S
C463 C456 1.409 . S
C463 C462 1.362 . S
H464 C470 0.930 . S
H465 C473 0.930 . S
H466 C474 0.930 . S
H467 C475 0.930 . S
H468 C478 0.930 . S
H469 C479 0.930 . S
C470 H464 0.930 . S
C470 C471 1.355 . S
C470 C472 1.415 . S
C471 C470 1.355 . S
C471 C473 1.419 . S
C472 C470 1.415 . S
C472 C477 1.425 . S
C472 C479 1.409 . S
C473 H465 0.930 . S
C473 C471 1.419 . S
C473 C474 1.362 . S
C474 H466 0.930 . S
C474 C473 1.362 . S
C474 C477 1.409 . S
C475 H467 0.930 . S
C475 C476 1.355 . S
C475 C477 1.415 . S
C476 C475 1.355 . S
C476 C478 1.419 . S
C477 C472 1.425 . S
C477 C474 1.409 . S
C477 C475 1.415 . S
C478 H468 0.930 . S
C478 C476 1.419 . S
C478 C479 1.362 . S
C479 H469 0.930 . S
C479 C472 1.409 . S
C479 C478 1.362 . S
H480 C486 0.930 . S
H481 C489 0.930 . S
H482 C490 0.930 . S
H483 C491 0.930 . S
H484 C494 0.930 . S
H485 C495 0.930 . S
C486 H480 0.930 . S
C486 C487 1.355 . S
C486 C488 1.415 . S
C487 C486 1.355 . S
C487 C489 1.419 . S
C488 C486 1.415 . S
C488 C493 1.425 . S
C488 C495 1.409 . S
C489 H481 0.930 . S
C489 C487 1.419 . S
C489 C490 1.362 . S
C490 H482 0.930 . S
C490 C489 1.362 . S
C490 C493 1.409 . S
C491 H483 0.930 . S
C491 C492 1.355 . S
C491 C493 1.415 . S
C492 C491 1.355 . S
C492 C494 1.419 . S
C493 C488 1.425 . S
C493 C490 1.409 . S
C493 C491 1.415 . S
C494 H484 0.930 . S
C494 C492 1.419 . S
C494 C495 1.362 . S
C495 H485 0.930 . S
C495 C488 1.409 . S
C495 C494 1.362 . S
H496 C502 0.930 . S
H497 C505 0.930 . S
H498 C506 0.930 . S
H499 C507 0.930 . S
H500 C510 0.930 . S
H501 C511 0.930 . S
C502 H496 0.930 . S
C502 C503 1.355 . S
C502 C504 1.415 . S
C503 C502 1.355 . S
C503 C505 1.419 . S
C504 C502 1.415 . S
C504 C509 1.425 . S
C504 C511 1.409 . S
C505 H497 0.930 . S
C505 C503 1.419 . S
C505 C506 1.362 . S
C506 H498 0.930 . S
C506 C505 1.362 . S
C506 C509 1.409 . S
C507 H499 0.930 . S
C507 C508 1.355 . S
C507 C509 1.415 . S
C508 C507 1.355 . S
C508 C510 1.419 . S
C509 C504 1.425 . S
C509 C506 1.409 . S
C509 C507 1.415 . S
C510 H500 0.930 . S
C510 C508 1.419 . S
C510 C511 1.362 . S
C511 H501 0.930 . S
C511 C504 1.409 . S
C511 C510 1.362 . S
H512 C518 0.930 . S
H513 C521 0.930 . S
H514 C522 0.930 . S
H515 C523 0.930 . S
H516 C526 0.930 1_655 S
H517 C527 0.930 . S
C518 H512 0.930 . S
C518 C519 1.355 . S
C518 C520 1.415 . S
C519 C518 1.355 . S
C519 C521 1.419 . S
C520 C518 1.415 . S
C520 C525 1.425 . S
C520 C527 1.409 . S
C521 H513 0.930 . S
C521 C519 1.419 . S
C521 C522 1.362 . S
C522 H514 0.930 . S
C522 C521 1.362 . S
C522 C525 1.409 . S
C523 H515 0.930 . S
C523 C524 1.355 . S
C523 C525 1.415 . S
C524 C523 1.355 . S
C524 C526 1.419 . S
C525 C520 1.425 . S
C525 C522 1.409 . S
C525 C523 1.415 . S
C526 H516 0.930 1_455 S
C526 C524 1.419 . S
C526 C527 1.362 . S
C527 H517 0.930 . S
C527 C520 1.409 . S
C527 C526 1.362 . S
H528 C534 0.930 . S
H529 C537 0.930 . S
H530 C538 0.930 . S
H531 C539 0.930 . S
H532 C542 0.930 . S
H533 C543 0.930 . S
C534 H528 0.930 . S
C534 C535 1.355 . S
C534 C536 1.415 . S
C535 C534 1.355 . S
C535 C537 1.419 . S
C536 C534 1.415 . S
C536 C541 1.425 . S
C536 C543 1.409 . S
C537 H529 0.930 . S
C537 C535 1.419 . S
C537 C538 1.362 . S
C538 H530 0.930 . S
C538 C537 1.362 . S
C538 C541 1.409 . S
C539 H531 0.930 . S
C539 C540 1.355 . S
C539 C541 1.415 . S
C540 C539 1.355 . S
C540 C542 1.419 . S
C541 C536 1.425 . S
C541 C538 1.409 . S
C541 C539 1.415 . S
C542 H532 0.930 . S
C542 C540 1.419 . S
C542 C543 1.362 . S
C543 H533 0.930 . S
C543 C536 1.409 . S
C543 C542 1.362 . S
C295 C2 0.653 . S
C300 C74 0.682 . S
C311 C38 0.568 . S
C316 C110 0.559 . S
C327 C146 0.596 . S
C332 C218 0.644 . S
C343 C182 0.584 . S
C348 C254 0.558 . S
C359 C4 1.426 . S
C364 C184 1.436 . S
C375 C40 1.498 . S
C380 C220 1.483 . S
C391 C256 1.476 . S
C396 C76 1.431 . S
C407 C112 1.424 . S
C412 C148 1.441 . S
C423 C147 1.680 . S
C428 C14 1.618 . S
C439 C50 1.602 . S
C444 C183 1.671 1_565 S
C455 C86 1.621 . S
C460 C219 1.707 . S
C471 C122 1.660 . S
C476 C255 1.727 1_545 S
C487 C3 1.664 1_655 S
C492 C158 1.579 . S
C503 C194 1.629 . S
C508 C39 1.712 . S
C519 C230 1.659 . S
C524 C75 1.712 1_455 S
C535 C111 1.693 . S
C540 C266 1.637 . S
