# Generated by pormake.
# Topology yfh, (5)-cn, num edge types: 1
# Building blocks:
#     Node 0, Type 0, BuildingBlock: XOMCOT_clean_sbu_1, # of connection points: 5
#     Node 1, Type 0, BuildingBlock: XOMCOT_clean_sbu_1, # of connection points: 5
#     Node 2, Type 0, BuildingBlock: XOMCOT_clean_sbu_1, # of connection points: 5
#     Node 3, Type 0, BuildingBlock: XOMCOT_clean_sbu_1, # of connection points: 5
#     Node 4, Type 0, BuildingBlock: XOMCOT_clean_sbu_1, # of connection points: 5
#     Node 5, Type 0, BuildingBlock: XOMCOT_clean_sbu_1, # of connection points: 5
#     Node 6, Type 0, BuildingBlock: XOMCOT_clean_sbu_1, # of connection points: 5
#     Node 7, Type 0, BuildingBlock: XOMCOT_clean_sbu_1, # of connection points: 5
#     Edge 8, Type (0, 0), BuildingBlock: TEMPAE_clean_linker_10, # of connection points: 2
#     Edge 9, Type (0, 0), BuildingBlock: TEMPAE_clean_linker_10, # of connection points: 2
#     Edge 10, Type (0, 0), BuildingBlock: TEMPAE_clean_linker_10, # of connection points: 2
#     Edge 11, Type (0, 0), BuildingBlock: TEMPAE_clean_linker_10, # of connection points: 2
#     Edge 12, Type (0, 0), BuildingBlock: TEMPAE_clean_linker_10, # of connection points: 2
#     Edge 13, Type (0, 0), BuildingBlock: TEMPAE_clean_linker_10, # of connection points: 2
#     Edge 14, Type (0, 0), BuildingBlock: TEMPAE_clean_linker_10, # of connection points: 2
#     Edge 15, Type (0, 0), BuildingBlock: TEMPAE_clean_linker_10, # of connection points: 2
#     Edge 16, Type (0, 0), BuildingBlock: TEMPAE_clean_linker_10, # of connection points: 2
#     Edge 17, Type (0, 0), BuildingBlock: TEMPAE_clean_linker_10, # of connection points: 2
#     Edge 18, Type (0, 0), BuildingBlock: TEMPAE_clean_linker_10, # of connection points: 2
#     Edge 19, Type (0, 0), BuildingBlock: TEMPAE_clean_linker_10, # of connection points: 2
#     Edge 20, Type (0, 0), BuildingBlock: TEMPAE_clean_linker_10, # of connection points: 2
#     Edge 21, Type (0, 0), BuildingBlock: TEMPAE_clean_linker_10, # of connection points: 2
#     Edge 22, Type (0, 0), BuildingBlock: TEMPAE_clean_linker_10, # of connection points: 2
#     Edge 23, Type (0, 0), BuildingBlock: TEMPAE_clean_linker_10, # of connection points: 2
#     Edge 24, Type (0, 0), BuildingBlock: TEMPAE_clean_linker_10, # of connection points: 2
#     Edge 25, Type (0, 0), BuildingBlock: TEMPAE_clean_linker_10, # of connection points: 2
#     Edge 26, Type (0, 0), BuildingBlock: TEMPAE_clean_linker_10, # of connection points: 2
#     Edge 27, Type (0, 0), BuildingBlock: TEMPAE_clean_linker_10, # of connection points: 2
# Relax obj value: 0.390
# Max RMSD: 0.272
# Mean RMSD: 0.272
data_MOF--net-yfh--node1-XOMCOT_clean_sbu_1--edge1-TEMPAE_clean_linker_10
_symmetry_space_group_name_H-M    P1
_symmetry_Int_Tables_number       1
_symmetry_cell_setting            triclinic
loop_
_symmetry_equiv_pos_as_xyz
'x, y, z'
_cell_length_a     28.101183
_cell_length_b     28.172965
_cell_length_c     59.791456
_cell_angle_alpha  90.1207
_cell_angle_beta   90.047778
_cell_angle_gamma 89.91848
loop_
_atom_site_label
_atom_site_type_symbol
_atom_site_fract_x
_atom_site_fract_y
_atom_site_fract_z
_atom_type_partial_charge
C0 C 0.38667 0.11827 0.06784 0.0
C1 C 0.36947 0.12206 0.04633 0.0
N2 N 0.32923 0.14803 0.04699 0.0
N3 N 0.35787 0.14272 0.08177 0.0
C4 C 0.32277 0.15965 0.06863 0.0
H5 H 0.41928 0.10085 0.07287 0.0
Co6 Co 0.36845 0.15504 0.11182 0.0
C7 C 0.33811 0.2553 0.11801 0.0
O8 O 0.37807 0.26275 0.12876 0.0
N9 N 0.37876 0.16676 0.143 0.0
C10 C 0.40848 0.18598 0.17649 0.0
C11 C 0.41586 0.18734 0.15381 0.0
C12 C 0.34916 0.15389 0.15981 0.0
N13 N 0.36664 0.16453 0.1802 0.0
O14 O 0.31465 0.11502 0.11824 0.0
H15 H 0.4467 0.20294 0.14603 0.0
H16 H 0.31541 0.1363 0.15741 0.0
O17 O 0.32874 0.21385 0.11019 0.0
C18 C 0.32947 0.07327 0.12301 0.0
O19 O 0.37537 0.06647 0.1257 0.0
N20 N 0.42399 0.18754 0.10368 0.0
C21 C 0.50602 0.20244 0.07844 0.0
C22 C 0.46511 0.23009 0.07487 0.0
C23 C 0.42431 0.22179 0.08753 0.0
C24 C 0.46433 0.16241 0.10826 0.0
C25 C 0.50614 0.17035 0.09634 0.0
H26 H 0.39162 0.23826 0.08216 0.0
H27 H 0.46294 0.13318 0.11994 0.0
H28 H 0.29438 0.18242 0.07455 0.0
H29 H 0.38594 0.10815 0.03132 0.0
H30 H 0.43305 0.19782 0.18929 0.0
H31 H 0.46261 0.25413 0.06081 0.0
H32 H 0.53692 0.14841 0.09983 0.0
C33 C 0.43352 0.85849 0.32313 0.0
C34 C 0.42513 0.83919 0.30232 0.0
N35 N 0.38327 0.81591 0.30301 0.0
N36 N 0.39716 0.84734 0.3368 0.0
C37 C 0.36741 0.82104 0.32415 0.0
H38 H 0.46344 0.88044 0.32788 0.0
Co39 Co 0.38996 0.86896 0.36579 0.0
C40 C 0.29001 0.84845 0.37792 0.0
O41 O 0.28915 0.89025 0.38766 0.0
N42 N 0.38369 0.8908 0.39576 0.0
C43 C 0.37813 0.9332 0.42715 0.0
C44 C 0.37729 0.93497 0.4042 0.0
C45 C 0.38743 0.86295 0.4141 0.0
N46 N 0.38496 0.88785 0.43338 0.0
O47 O 0.42841 0.81596 0.37555 0.0
H48 H 0.37238 0.96699 0.39466 0.0
H49 H 0.3939 0.82515 0.41337 0.0
O50 O 0.3288 0.83354 0.36896 0.0
C51 C 0.4707 0.83004 0.37995 0.0
O52 O 0.47926 0.87586 0.38031 0.0
N53 N 0.35935 0.92273 0.35415 0.0
C54 C 0.34205 0.99713 0.32457 0.0
C55 C 0.30937 0.9599 0.32663 0.0
C56 C 0.31917 0.92242 0.34119 0.0
C57 C 0.39047 0.95965 0.35283 0.0
C58 C 0.38203 0.99769 0.33855 0.0
H59 H 0.29712 0.89129 0.33998 0.0
H60 H 0.42393 0.95783 0.36175 0.0
H61 H 0.33425 0.80653 0.33018 0.0
H62 H 0.4472 0.84355 0.28764 0.0
H63 H 0.37479 0.96326 0.43834 0.0
H64 H 0.27906 0.95731 0.31548 0.0
H65 H 0.40846 0.0255 0.33722 0.0
C66 C 0.65707 0.90417 0.5743 0.0
C67 C 0.67944 0.89755 0.55406 0.0
N68 N 0.71213 0.86288 0.55651 0.0
N69 N 0.67561 0.87382 0.58936 0.0
C70 C 0.7093 0.84944 0.5781 0.0
H71 H 0.6283 0.92866 0.57774 0.0
Co72 Co 0.65497 0.86728 0.61854 0.0
C73 C 0.68433 0.771 0.63251 0.0
O74 O 0.64283 0.76818 0.64245 0.0
N75 N 0.63435 0.86199 0.64873 0.0
C76 C 0.59503 0.85452 0.68097 0.0
C77 C 0.59171 0.85135 0.65803 0.0
C78 C 0.66274 0.8711 0.66652 0.0
N79 N 0.63971 0.86732 0.68614 0.0
O80 O 0.70367 0.91227 0.62747 0.0
H81 H 0.55979 0.84201 0.64905 0.0
H82 H 0.69974 0.88123 0.66527 0.0
O83 O 0.69629 0.80991 0.6228 0.0
C84 C 0.682 0.95224 0.62878 0.0
O85 O 0.63563 0.95249 0.62584 0.0
N86 N 0.60436 0.83031 0.60764 0.0
C87 C 0.53361 0.80472 0.5771 0.0
C88 C 0.57455 0.7767 0.57965 0.0
C89 C 0.61005 0.79075 0.59459 0.0
C90 C 0.56347 0.85621 0.60629 0.0
C91 C 0.52735 0.84367 0.59144 0.0
H92 H 0.64393 0.77302 0.59345 0.0
H93 H 0.5608 0.88955 0.6152 0.0
H94 H 0.73108 0.82193 0.58546 0.0
H95 H 0.67106 0.9156 0.53858 0.0
H96 H 0.56635 0.85004 0.69286 0.0
H97 H 0.58117 0.74675 0.56869 0.0
H98 H 0.49717 0.8673 0.58961 0.0
C99 C 0.61715 0.13792 0.82021 0.0
C100 C 0.61846 0.15669 0.79895 0.0
N101 N 0.63856 0.20002 0.8002 0.0
N102 N 0.63727 0.16904 0.83454 0.0
C103 C 0.64903 0.20673 0.82194 0.0
H104 H 0.60464 0.10296 0.82475 0.0
Co105 Co 0.65206 0.16035 0.86449 0.0
C106 C 0.72691 0.23383 0.87343 0.0
O107 O 0.7048 0.24843 0.89154 0.0
N108 N 0.66745 0.15176 0.89472 0.0
C109 C 0.70813 0.13882 0.92606 0.0
C110 C 0.70952 0.13673 0.90309 0.0
C111 C 0.64115 0.16256 0.9129 0.0
N112 N 0.66506 0.15528 0.93219 0.0
O113 O 0.60787 0.21146 0.87165 0.0
H114 H 0.73986 0.12619 0.89313 0.0
H115 H 0.60573 0.17731 0.91209 0.0
O116 O 0.70804 0.20151 0.86136 0.0
C117 C 0.56759 0.18997 0.87148 0.0
O118 O 0.56829 0.14344 0.86968 0.0
N119 N 0.68844 0.1075 0.8566 0.0
C120 C 0.70509 0.02749 0.83082 0.0
C121 C 0.73289 0.06825 0.82783 0.0
C122 C 0.72379 0.10838 0.84093 0.0
C123 C 0.66592 0.0662 0.86175 0.0
C124 C 0.67367 0.02554 0.84896 0.0
H125 H 0.74057 0.14136 0.83634 0.0
H126 H 0.6373 0.06646 0.87384 0.0
H127 H 0.66779 0.23742 0.82832 0.0
H128 H 0.60732 0.13914 0.7837 0.0
H129 H 0.73675 0.12922 0.9373 0.0
H130 H 0.75694 0.07109 0.81374 0.0
H131 H 0.65143 0.99466 0.85159 0.0
C132 C 0.88982 0.39625 0.66858 0.0
C133 C 0.86906 0.39442 0.68944 0.0
N134 N 0.82604 0.37389 0.68725 0.0
N135 N 0.86025 0.37605 0.65356 0.0
C136 C 0.82148 0.3636 0.66536 0.0
H137 H 0.92483 0.40987 0.66476 0.0
Co138 Co 0.87113 0.36361 0.62361 0.0
C139 C 0.79907 0.28864 0.61245 0.0
O140 O 0.7862 0.31027 0.59396 0.0
N141 N 0.88215 0.35084 0.59331 0.0
C142 C 0.89909 0.31417 0.56129 0.0
C143 C 0.89898 0.31021 0.58422 0.0
C144 C 0.87244 0.3788 0.57559 0.0
N145 N 0.88218 0.35743 0.55589 0.0
O146 O 0.81928 0.40624 0.61655 0.0
H147 H 0.90949 0.27916 0.59362 0.0
H148 H 0.85692 0.41368 0.57697 0.0
O149 O 0.83004 0.30778 0.62518 0.0
C150 C 0.83566 0.44863 0.61632 0.0
O151 O 0.88178 0.45485 0.61838 0.0
N152 N 0.92397 0.32707 0.63166 0.0
C153 C 1.0009 0.30039 0.65794 0.0
C154 C 0.9604 0.27145 0.6566 0.0
C155 C 0.92188 0.28575 0.64353 0.0
C156 C 0.96545 0.35173 0.63016 0.0
C157 C 1.00453 0.3391 0.64329 0.0
H158 H 0.88932 0.26594 0.6449 0.0
H159 H 0.96624 0.38465 0.62089 0.0
H160 H 0.79132 0.34508 0.65827 0.0
H161 H 0.88484 0.40604 0.70503 0.0
H162 H 0.91068 0.28719 0.5496 0.0
H163 H 0.95659 0.2407 0.66729 0.0
H164 H 0.03495 0.36263 0.6438 0.0
C165 C 0.11918 0.38673 0.91207 0.0
C166 C 0.12694 0.36581 0.93253 0.0
N167 N 0.15515 0.32772 0.92936 0.0
N168 N 0.14313 0.36233 0.89624 0.0
C169 C 0.16403 0.32611 0.90723 0.0
H170 H 0.09912 0.41887 0.90903 0.0
Co171 Co 0.14995 0.38106 0.86679 0.0
C172 C 0.24461 0.34531 0.85176 0.0
O173 O 0.24813 0.38321 0.83916 0.0
N174 N 0.15551 0.40018 0.83653 0.0
C175 C 0.16222 0.43949 0.80439 0.0
C176 C 0.16386 0.44319 0.82728 0.0
C177 C 0.14937 0.37105 0.81873 0.0
N178 N 0.15293 0.39406 0.79904 0.0
O179 O 0.10397 0.33272 0.85829 0.0
H180 H 0.17075 0.4757 0.8362 0.0
H181 H 0.14098 0.33372 0.82017 0.0
O182 O 0.20649 0.33836 0.8632 0.0
C183 C 0.06371 0.35384 0.85661 0.0
O184 O 0.06299 0.40025 0.85895 0.0
N185 N 0.18844 0.43108 0.87695 0.0
C186 C 0.21684 0.50194 0.9067 0.0
C187 C 0.24464 0.46102 0.90377 0.0
C188 C 0.22951 0.42562 0.88899 0.0
C189 C 0.16261 0.47187 0.87878 0.0
C190 C 0.17665 0.50813 0.89316 0.0
H191 H 0.2479 0.3921 0.88951 0.0
H192 H 0.12827 0.47433 0.87067 0.0
H193 H 0.1874 0.30041 0.89947 0.0
H194 H 0.11398 0.37828 0.94855 0.0
H195 H 0.16695 0.46822 0.79261 0.0
H196 H 0.27539 0.45453 0.91427 0.0
H197 H 0.15323 0.53835 0.8954 0.0
C198 C 0.15407 0.61716 0.15879 0.0
C199 C 0.17566 0.62409 0.1792 0.0
N200 N 0.20498 0.66175 0.17751 0.0
N201 N 0.16972 0.65028 0.14437 0.0
C202 C 0.20092 0.67669 0.15617 0.0
H203 H 0.12777 0.59046 0.1548 0.0
Co204 Co 0.14813 0.65702 0.11539 0.0
C205 C 0.17475 0.75394 0.10139 0.0
O206 O 0.13315 0.75594 0.09142 0.0
N207 N 0.12637 0.66242 0.08549 0.0
C208 C 0.08499 0.6659 0.05375 0.0
C209 C 0.08238 0.66819 0.07669 0.0
C210 C 0.15491 0.6575 0.06742 0.0
N211 N 0.13072 0.6587 0.04793 0.0
O212 O 0.19834 0.61447 0.10588 0.0
H213 H 0.04994 0.6732 0.08599 0.0
H214 H 0.19274 0.65099 0.06858 0.0
O215 O 0.18755 0.7154 0.11119 0.0
C216 C 0.18068 0.57321 0.10248 0.0
O217 O 0.13425 0.5682 0.10362 0.0
N218 N 0.09673 0.69232 0.12678 0.0
C219 C 0.02528 0.7181 0.15688 0.0
C220 C 0.06526 0.74709 0.15386 0.0
C221 C 0.10116 0.73296 0.13917 0.0
C222 C 0.05702 0.66497 0.12882 0.0
C223 C 0.02048 0.67761 0.14341 0.0
H224 H 0.13431 0.75199 0.13996 0.0
H225 H 0.05561 0.63081 0.12055 0.0
H226 H 0.22001 0.70662 0.14936 0.0
H227 H 0.16901 0.60398 0.19428 0.0
H228 H 0.05522 0.66833 0.04232 0.0
H229 H 0.07083 0.77809 0.16428 0.0
H230 H 0.99114 0.65323 0.14574 0.0
C231 C 0.93865 0.66502 0.41064 0.0
C232 C 0.93183 0.68477 0.43151 0.0
N233 N 0.89049 0.70908 0.4312 0.0
N234 N 0.90182 0.67697 0.39735 0.0
C235 C 0.87348 0.70427 0.41025 0.0
H236 H 0.96778 0.64224 0.40562 0.0
Co237 Co 0.89189 0.65578 0.3684 0.0
C238 C 0.78996 0.67381 0.35942 0.0
O239 O 0.78824 0.631 0.35076 0.0
N240 N 0.8824 0.63463 0.33841 0.0
C241 C 0.87138 0.59321 0.307 0.0
C242 C 0.87274 0.59106 0.32991 0.0
C243 C 0.88553 0.66261 0.32007 0.0
N244 N 0.87979 0.63825 0.30082 0.0
O245 O 0.92796 0.70977 0.35824 0.0
H246 H 0.86651 0.5592 0.33938 0.0
H247 H 0.89372 0.70006 0.3207 0.0
O248 O 0.8297 0.68999 0.36681 0.0
C249 C 0.97023 0.69659 0.35316 0.0
O250 O 0.97945 0.65094 0.35199 0.0
N251 N 0.86414 0.60106 0.38042 0.0
C252 C 0.85312 0.52467 0.40964 0.0
C253 C 0.8208 0.56276 0.40989 0.0
C254 C 0.8272 0.60087 0.39529 0.0
C255 C 0.89503 0.56379 0.37965 0.0
C256 C 0.88915 0.52453 0.39343 0.0
H257 H 0.80554 0.63205 0.39781 0.0
H258 H 0.92628 0.56586 0.36914 0.0
H259 H 0.84037 0.71969 0.4046 0.0
H260 H 0.95446 0.67996 0.44599 0.0
H261 H 0.86532 0.56367 0.29575 0.0
H262 H 0.79347 0.5654 0.42258 0.0
H263 H 0.91483 0.49591 0.39246 0.0
C264 C 0.3265 0.1845 0.00969 0.0
C265 C 0.30273 0.16671 0.02845 0.0
C266 C 0.30154 0.20852 -0.00719 0.0
C267 C 0.25157 0.21396 -0.00535 0.0
C268 C 0.22719 0.19402 0.01308 0.0
C269 C 0.2532 0.17106 0.0299 0.0
C270 C 0.32887 0.22998 0.97359 0.0
C271 C 0.17383 0.19819 0.01536 0.0
C272 C 0.19379 0.31927 0.96602 0.0
C273 C 0.17705 0.29871 0.94619 0.0
C274 C 0.21824 0.29206 0.98192 0.0
C275 C 0.22522 0.24293 0.97803 0.0
C276 C 0.20746 0.22178 0.95822 0.0
C277 C 0.18401 0.25012 0.94239 0.0
C278 C 0.23744 0.31609 0.00266 0.0
C279 C 0.21339 0.16936 0.95372 0.0
H280 H 0.36491 0.18165 0.00878 0.0
H281 H 0.23498 0.15696 0.0444 0.0
H282 H 0.31401 0.2177 0.9574 0.0
H283 H 0.32526 0.2692 0.97404 0.0
H284 H 0.36732 0.22081 0.97414 0.0
H285 H 0.15994 0.17706 0.02959 0.0
H286 H 0.16385 0.23589 0.01799 0.0
H287 H 0.15611 0.18611 -0.00023 0.0
H288 H 0.18909 0.35703 0.96873 0.0
H289 H 0.1708 0.23436 0.92706 0.0
H290 H 0.27659 0.31123 0.00358 0.0
H291 H 0.22199 0.29959 0.01783 0.0
H292 H 0.22943 0.35472 0.00301 0.0
H293 H 0.25175 0.16034 0.9526 0.0
H294 H 0.1957 0.15813 0.93795 0.0
H295 H 0.19832 0.14855 0.96776 0.0
C296 C 0.24848 0.6563 0.21329 0.0
C297 C 0.23254 0.6834 0.19511 0.0
C298 C 0.27429 0.67719 0.23081 0.0
C299 C 0.28446 0.72635 0.2301 0.0
C300 C 0.26896 0.75384 0.2117 0.0
C301 C 0.24308 0.73206 0.19447 0.0
C302 C 0.29025 0.64677 0.2502 0.0
C303 C 0.27906 0.80643 0.21037 0.0
C304 C 0.30882 0.79018 0.28477 0.0
C305 C 0.35868 0.79326 0.28472 0.0
C306 C 0.28427 0.76828 0.26716 0.0
C307 C 0.31016 0.74931 0.24893 0.0
C308 C 0.36043 0.75245 0.24866 0.0
C309 C 0.3841 0.77435 0.26659 0.0
C310 C 0.23059 0.76563 0.26804 0.0
C311 C 0.38916 0.73263 0.22946 0.0
H312 H 0.24099 0.61863 0.21376 0.0
H313 H 0.23021 0.75347 0.18071 0.0
H314 H 0.32943 0.6491 0.2522 0.0
H315 H 0.27404 0.66002 0.26593 0.0
H316 H 0.28031 0.6089 0.24798 0.0
H317 H 0.26622 0.82232 0.19447 0.0
H318 H 0.26157 0.82505 0.22452 0.0
H319 H 0.31786 0.81294 0.21185 0.0
H320 H 0.28875 0.80555 0.29843 0.0
H321 H 0.42259 0.7762 0.26654 0.0
H322 H 0.2189 0.72809 0.267 0.0
H323 H 0.21506 0.78447 0.25349 0.0
H324 H 0.21588 0.78148 0.28361 0.0
H325 H 0.38228 0.69404 0.22766 0.0
H326 H 0.428 0.73808 0.23177 0.0
H327 H 0.37812 0.74976 0.21359 0.0
C328 C 0.89315 0.75188 0.46728 0.0
C329 C 0.86686 0.73188 0.4497 0.0
C330 C 0.87024 0.77423 0.48532 0.0
C331 C 0.8199 0.77644 0.48577 0.0
C332 C 0.79319 0.75618 0.46811 0.0
C333 C 0.81698 0.73406 0.45035 0.0
C334 C 0.89982 0.79558 0.50387 0.0
C335 C 0.73942 0.75761 0.46802 0.0
C336 C 0.75435 0.7939 0.54055 0.0
C337 C 0.74124 0.8419 0.53931 0.0
C338 C 0.78102 0.77241 0.52351 0.0
C339 C 0.79484 0.79959 0.50473 0.0
C340 C 0.78253 0.84826 0.50355 0.0
C341 C 0.75579 0.86882 0.52085 0.0
C342 C 0.79323 0.72032 0.52531 0.0
C343 C 0.79679 0.87837 0.4838 0.0
H344 H 0.93166 0.75057 0.46676 0.0
H345 H 0.79636 0.71777 0.43711 0.0
H346 H 0.89198 0.83406 0.50542 0.0
H347 H 0.89045 0.77889 0.52006 0.0
H348 H 0.9386 0.79097 0.50098 0.0
H349 H 0.72401 0.74073 0.45284 0.0
H350 H 0.72543 0.73909 0.48299 0.0
H351 H 0.72684 0.79491 0.46887 0.0
H352 H 0.7426 0.77267 0.55457 0.0
H353 H 0.74625 0.90602 0.51996 0.0
H354 H 0.8321 0.71498 0.52325 0.0
H355 H 0.77532 0.70034 0.51169 0.0
H356 H 0.78221 0.70492 0.54159 0.0
H357 H 0.83583 0.8764 0.48123 0.0
H358 H 0.78646 0.91618 0.48596 0.0
H359 H 0.77965 0.86457 0.46838 0.0
C360 C 0.74552 0.35569 0.70063 0.0
C361 C 0.79461 0.35808 0.70461 0.0
C362 C 0.71498 0.3337 0.71593 0.0
C363 C 0.73423 0.3134 0.73556 0.0
C364 C 0.78349 0.31769 0.74019 0.0
C365 C 0.81312 0.34022 0.72466 0.0
C366 C 0.66255 0.33042 0.71062 0.0
C367 C 0.80529 0.2964 0.761 0.0
C368 C 0.65805 0.27847 0.78497 0.0
C369 C 0.65531 0.22915 0.78218 0.0
C370 C 0.68184 0.30683 0.76937 0.0
C371 C 0.7036 0.28513 0.75064 0.0
C372 C 0.69875 0.23564 0.74709 0.0
C373 C 0.67443 0.20821 0.76291 0.0
C374 C 0.68566 0.35958 0.7735 0.0
C375 C 0.72155 0.21126 0.72727 0.0
H376 H 0.73122 0.37006 0.68523 0.0
H377 H 0.85113 0.34158 0.72763 0.0
H378 H 0.65294 0.29291 0.70722 0.0
H379 H 0.64106 0.34238 0.72514 0.0
H380 H 0.65263 0.35205 0.69581 0.0
H381 H 0.84366 0.30517 0.76272 0.0
H382 H 0.78633 0.30925 0.77612 0.0
H383 H 0.80151 0.25721 0.76052 0.0
H384 H 0.64277 0.29463 0.79979 0.0
H385 H 0.67282 0.17004 0.76087 0.0
H386 H 0.67593 0.37961 0.75821 0.0
H387 H 0.72302 0.36876 0.77767 0.0
H388 H 0.66247 0.37152 0.78747 0.0
H389 H 0.71089 0.22899 0.7115 0.0
H390 H 0.71176 0.17313 0.72616 0.0
H391 H 0.76085 0.21393 0.7286 0.0
C392 C 0.59944 0.16508 0.95915 0.0
C393 C 0.64835 0.16507 0.95453 0.0
C394 C 0.5824 0.17479 0.98067 0.0
C395 C 0.61509 0.18423 -0.00186 0.0
C396 C 0.66449 0.1846 -0.00634 0.0
C397 C 0.68056 0.17513 0.97187 0.0
C398 C 0.52934 0.17402 0.98478 0.0
C399 C 0.70031 0.19431 0.01194 0.0
C400 C 0.55611 0.2404 0.04858 0.0
C401 C 0.54348 0.19998 0.06089 0.0
C402 C 0.58254 0.23634 0.02874 0.0
C403 C 0.59701 0.19086 0.02125 0.0
C404 C 0.5881 0.15054 0.03463 0.0
C405 C 0.56119 0.15552 0.05418 0.0
C406 C 0.59158 0.2802 0.01495 0.0
C407 C 0.60335 0.10144 0.02735 0.0
H408 H 0.57432 0.15664 0.94601 0.0
H409 H 0.71835 0.17595 0.96841 0.0
H410 H 0.52044 0.14513 -0.00336 0.0
H411 H 0.51774 0.20793 -0.00746 0.0
H412 H 0.50865 0.16848 0.96915 0.0
H413 H 0.73736 0.19546 0.0055 0.0
H414 H 0.69219 0.22859 0.02027 0.0
H415 H 0.69803 0.16626 0.02489 0.0
H416 H 0.54329 0.27497 0.05382 0.0
H417 H 0.55123 0.12381 0.06325 0.0
H418 H 0.56771 0.27999 0.00015 0.0
H419 H 0.62872 0.28068 0.00869 0.0
H420 H 0.58489 0.31328 0.0246 0.0
H421 H 0.58071 0.08958 0.01319 0.0
H422 H 0.60007 0.07512 0.04107 0.0
H423 H 0.64074 0.10166 0.02142 0.0
C424 C 0.2968 0.0521 0.29917 0.0
C425 C 0.33948 0.02968 0.3052 0.0
C426 C 0.29391 0.07945 0.27956 0.0
C427 C 0.33436 0.08338 0.26557 0.0
C428 C 0.37763 0.06132 0.27183 0.0
C429 C 0.37967 0.03497 0.29158 0.0
C430 C 0.24747 0.10317 0.27355 0.0
C431 C 0.42147 0.06402 0.25724 0.0
C432 C 0.32967 0.1025 0.20318 0.0
C433 C 0.34941 0.14798 0.20142 0.0
C434 C 0.32098 0.08216 0.22415 0.0
C435 C 0.33176 0.10831 0.24376 0.0
C436 C 0.34777 0.15577 0.24202 0.0
C437 C 0.35689 0.17491 0.22082 0.0
C438 C 0.30444 0.03123 0.22523 0.0
C439 C 0.35867 0.18511 0.26254 0.0
H440 H 0.26569 0.04791 0.30969 0.0
H441 H 0.41242 0.01678 0.29591 0.0
H442 H 0.25344 0.14118 0.26963 0.0
H443 H 0.23237 0.08632 0.25835 0.0
H444 H 0.22088 0.1006 0.28724 0.0
H445 H 0.45248 0.04543 0.26474 0.0
H446 H 0.41395 0.04785 0.24067 0.0
H447 H 0.43136 0.10161 0.25436 0.0
H448 H 0.32421 0.08145 0.18822 0.0
H449 H 0.37152 0.21034 0.21939 0.0
H450 H 0.27527 0.0273 0.23756 0.0
H451 H 0.33434 1.00837 0.23084 0.0
H452 H 0.29187 0.01803 0.20873 0.0
H453 H 0.33029 0.18097 0.27527 0.0
H454 H 0.36248 0.22338 0.25848 0.0
H455 H 0.39248 0.17261 0.27012 0.0
C456 C 0.38796 0.82282 0.4611 0.0
C457 C 0.39554 0.87061 0.45553 0.0
C458 C 0.4035 0.80446 0.48169 0.0
C459 C 0.4273 0.83462 0.49697 0.0
C460 C 0.4329 0.88336 0.4919 0.0
C461 C 0.41695 0.90071 0.47129 0.0
C462 C 0.39638 0.75245 0.48663 0.0
C463 C 0.45816 0.9168 0.50774 0.0
C464 C 0.45421 0.80961 0.55785 0.0
C465 C 0.50323 0.80023 0.55685 0.0
C466 C 0.42765 0.817 0.53825 0.0
C467 C 0.4508 0.81511 0.51725 0.0
C468 C 0.49922 0.80148 0.51607 0.0
C469 C 0.52484 0.79426 0.53587 0.0
C470 C 0.37587 0.83065 0.54016 0.0
C471 C 0.52529 0.79889 0.494 0.0
H472 H 0.37069 0.79952 0.44918 0.0
H473 H 0.42347 0.93749 0.46712 0.0
H474 H 0.43105 0.73372 0.48555 0.0
H475 H 0.38271 0.74752 0.50387 0.0
H476 H 0.3713 0.73551 0.47467 0.0
H477 H 0.45663 0.95425 0.502 0.0
H478 H 0.44218 0.91476 0.52466 0.0
H479 H 0.49609 0.90624 0.50927 0.0
H480 H 0.43717 0.81366 0.574 0.0
H481 H 0.56278 0.78765 0.53484 0.0
H482 H 0.35435 0.8126 0.52712 0.0
H483 H 0.37213 0.86947 0.53756 0.0
H484 H 0.3611 0.8218 0.55686 0.0
H485 H 0.50422 0.77877 0.48149 0.0
H486 H 0.56079 0.78186 0.49568 0.0
H487 H 0.53038 0.83531 0.48738 0.0
C488 C 0.6547 0.99244 0.80129 0.0
C489 C 0.69901 0.99405 0.812 0.0
C490 C 0.64847 0.96699 0.78141 0.0
C491 C 0.68731 0.9415 0.77226 0.0
C492 C 0.73167 0.94113 0.78358 0.0
C493 C 0.73731 0.96831 0.80318 0.0
C494 C 0.60098 0.9696 0.76958 0.0
C495 C 0.77343 0.91328 0.77463 0.0
C496 C 0.64784 0.85614 0.72679 0.0
C497 C 0.65667 0.88293 0.70757 0.0
C498 C 0.66105 0.87317 0.748 0.0
C499 C 0.68186 0.91878 0.74995 0.0
C500 C 0.69198 0.94533 0.73043 0.0
C501 C 0.67984 0.92671 0.70945 0.0
C502 C 0.65104 0.84326 0.76836 0.0
C503 C 0.71271 0.99471 0.73175 0.0
H504 H 0.62539 1.01325 0.80791 0.0
H505 H 0.77162 0.96998 0.81145 0.0
H506 H 0.60554 0.98653 0.75298 0.0
H507 H 0.58675 0.93342 0.76668 0.0
H508 H 0.57421 0.99027 0.77921 0.0
H509 H 0.80313 0.91143 0.78688 0.0
H510 H 0.76232 0.87665 0.77022 0.0
H511 H 0.7868 0.93021 0.75914 0.0
H512 H 0.63023 0.8221 0.72517 0.0
H513 H 0.68612 0.94751 0.69451 0.0
H514 H 0.62104 0.85892 0.77791 0.0
H515 H 0.68248 0.84265 0.7796 0.0
H516 H 0.64157 0.80619 0.76382 0.0
H517 H 0.68702 0.01881 0.74015 0.0
H518 H 0.721 1.00941 0.71497 0.0
H519 H 0.74573 0.99464 0.7419 0.0
C520 C 0.12058 0.40426 0.76111 0.0
C521 C 0.14233 0.3753 0.77718 0.0
C522 C 0.10487 0.38553 0.74071 0.0
C523 C 0.11137 0.3366 0.73615 0.0
C524 C 0.13578 0.30767 0.75172 0.0
C525 C 0.15072 0.32734 0.77216 0.0
C526 C 0.07867 0.41762 0.72462 0.0
C527 C 0.14411 0.25558 0.74726 0.0
C528 C 1.01285 0.29203 0.69898 0.0
C529 C 0.03297 0.29742 0.67765 0.0
C530 C 0.03939 0.3009 0.71833 0.0
C531 C 0.08736 0.31544 0.71637 0.0
C532 C 0.1092 0.3167 0.69504 0.0
C533 C 0.08161 0.30792 0.67586 0.0
C534 C 1.01457 0.29926 0.74074 0.0
C535 C 0.16058 0.33101 0.69234 0.0
H536 H 0.11356 0.44119 0.76494 0.0
H537 H 0.16826 0.30502 0.78439 0.0
H538 H 0.09441 0.41492 0.70766 0.0
H539 H 0.04095 0.40631 0.72335 0.0
H540 H 0.07952 0.4554 0.72997 0.0
H541 H 0.17015 0.23999 0.75916 0.0
H542 H 0.11003 0.23608 0.74891 0.0
H543 H 0.15717 0.24997 0.72995 0.0
H544 H 0.97516 0.28469 0.70062 0.0
H545 H 0.09749 0.31163 0.65944 0.0
H546 H 1.00945 0.33597 0.74708 0.0
H547 H 0.03652 0.27992 0.75316 0.0
H548 H 0.97916 0.28189 0.73967 0.0
H549 H 0.1637 0.37006 0.69428 0.0
H550 H 0.17464 0.32107 0.67561 0.0
H551 H 0.1831 0.31433 0.7054 0.0
C552 C 0.21534 0.58158 0.92544 0.0
C553 C 0.22258 0.5324 0.92677 0.0
C554 C 0.20779 0.60877 0.94481 0.0
C555 C 0.20705 0.58602 0.9659 0.0
C556 C 0.2186 0.53721 0.96745 0.0
C557 C 0.22633 0.511 0.94786 0.0
C558 C 0.19649 0.66091 0.9425 0.0
C559 C 0.21825 0.51154 0.98962 0.0
C560 C 0.19765 0.65173 0.02124 0.0
C561 C 0.14904 0.64645 0.02612 0.0
C562 C 0.21701 0.63407 0.00123 0.0
C563 C 0.18699 0.61079 0.98572 0.0
C564 C 0.13754 0.60763 0.98999 0.0
C565 C 0.11923 0.62542 0.01012 0.0
C566 C 0.26982 0.63843 -0.00284 0.0
C567 C 0.10419 0.58324 0.97381 0.0
H568 H 0.2128 0.59827 0.90915 0.0
H569 H 0.23129 0.47291 0.94903 0.0
H570 H 0.15759 0.66634 0.94442 0.0
H571 H 0.21445 0.68187 0.95577 0.0
H572 H 0.20732 0.6749 0.92591 0.0
H573 H 0.23387 0.47539 0.98833 0.0
H574 H 0.23827 0.53192 0.00241 0.0
H575 H 0.18103 0.50817 -0.0044 0.0
H576 H 0.22084 0.6688 0.03327 0.0
H577 H 0.08181 0.62071 0.01371 0.0
H578 H 0.27678 0.65159 0.97999 0.0
H579 H 0.2867 0.60294 -0.00143 0.0
H580 H 0.28717 0.66268 0.00935 0.0
H581 H 0.1082 0.59843 0.95682 0.0
H582 H 0.06633 0.58656 0.97892 0.0
H583 H 0.11328 0.54495 0.97272 0.0
C584 C 0.01611 0.73069 0.19787 0.0
C585 C 0.99468 0.72356 0.17693 0.0
C586 C 0.99047 0.72413 0.21768 0.0
C587 C 0.94216 0.71023 0.21652 0.0
C588 C 0.9191 0.70746 0.1955 0.0
C589 C 0.94576 0.71391 0.17589 0.0
C590 C 0.01651 0.72742 0.23975 0.0
C591 C 0.86735 0.69381 0.19363 0.0
C592 C 0.90979 0.62497 0.26269 0.0
C593 C 0.88908 0.65526 0.27856 0.0
C594 C 0.92497 0.64214 0.24195 0.0
C595 C 0.91898 0.69084 0.23684 0.0
C596 C 0.89555 0.72111 0.25221 0.0
C597 C 0.88112 0.70299 0.273 0.0
C598 C 0.95005 0.60862 0.22608 0.0
C599 C 0.88775 0.773 0.24717 0.0
H600 H 0.054 0.73755 0.19889 0.0
H601 H 0.92893 0.70891 0.15973 0.0
H602 H 0.9954 0.74795 0.2521 0.0
H603 H 0.02169 0.69122 0.24663 0.0
H604 H 0.05198 0.74439 0.23798 0.0
H605 H 0.85251 0.70257 0.1769 0.0
H606 H 0.86371 0.65501 0.19626 0.0
H607 H 0.84584 0.71197 0.20664 0.0
H608 H 0.91654 0.58823 0.26693 0.0
H609 H 0.86443 0.72636 0.28509 0.0
H610 H 0.98781 0.61946 0.22426 0.0
H611 H 0.9335 0.61024 0.20925 0.0
H612 H 0.94912 0.57126 0.23197 0.0
H613 H 0.92211 0.79216 0.2484 0.0
H614 H 0.86224 0.78967 0.25901 0.0
H615 H 0.87428 0.77769 0.22986 0.0
C616 C 0.81204 0.4747 0.43866 0.0
C617 C 0.85419 0.48994 0.42836 0.0
C618 C 0.81338 0.44814 0.45851 0.0
C619 C 0.8579 0.43617 0.46807 0.0
C620 C 0.90045 0.44882 0.45701 0.0
C621 C 0.8981 0.47589 0.43747 0.0
C622 C 0.76726 0.43537 0.46991 0.0
C623 C 0.94867 0.4364 0.46658 0.0
C624 C 0.87189 0.42608 0.53077 0.0
C625 C 0.8746 0.37678 0.53384 0.0
C626 C 0.86448 0.44564 0.50955 0.0
C627 C 0.86056 0.41524 0.49078 0.0
C628 C 0.86277 0.36547 0.49367 0.0
C629 C 0.86954 0.3468 0.51519 0.0
C630 C 0.86214 0.499 0.50718 0.0
C631 C 0.85911 0.33206 0.47397 0.0
H632 H 0.77797 0.4848 0.43161 0.0
H633 H 0.93101 0.48816 0.43006 0.0
H634 H 0.76731 0.39745 0.47486 0.0
H635 H 0.76342 0.45672 0.48543 0.0
H636 H 0.73587 0.44217 0.45907 0.0
H637 H 0.97798 0.4438 0.45464 0.0
H638 H 0.95498 0.45743 0.48201 0.0
H639 H 0.95009 0.39834 0.47125 0.0
H640 H 0.87652 0.44973 0.54488 0.0
H641 H 0.87078 0.3087 0.51737 0.0
H642 H 0.82963 0.50943 0.49786 0.0
H643 H 0.89322 0.51166 0.49745 0.0
H644 H 0.86203 0.51744 0.52363 0.0
H645 H 0.82637 0.33963 0.46423 0.0
H646 H 0.85863 0.29423 0.47918 0.0
H647 H 0.8898 0.33761 0.46261 0.0
C648 C 0.24676 0.80718 0.10375 0.0
C649 C 0.19798 0.79977 0.10684 0.0
C650 C 0.26687 0.85256 0.10717 0.0
C651 C 0.23772 0.89079 0.11457 0.0
C652 C 0.18885 0.88257 0.11865 0.0
C653 C 0.16953 0.83756 0.11436 0.0
C654 C 0.31894 0.86001 0.10221 0.0
C655 C 0.15674 0.92148 0.12734 0.0
C656 C 0.30019 0.99833 0.14004 0.0
C657 C 0.29833 0.0311 0.12245 0.0
C658 C 0.27927 0.95317 0.13801 0.0
C659 C 0.25776 0.93967 0.11751 0.0
C660 C 0.25513 0.97312 0.09982 0.0
C661 C 0.27489 0.01868 0.10263 0.0
C662 C 0.28129 0.91952 0.15762 0.0
C663 C 0.23339 0.96005 0.07755 0.0
H664 H 0.26872 0.77807 0.09786 0.0
H665 H 0.1318 0.83182 0.117 0.0
H666 H 0.32295 0.88741 0.08903 0.0
H667 H 0.33754 0.87329 0.11734 0.0
H668 H 0.33673 0.82689 0.09651 0.0
H669 H 0.12044 0.90836 0.13127 0.0
H670 H 0.17221 0.93747 0.14268 0.0
H671 H 0.15368 0.95012 0.11472 0.0
H672 H 0.31905 1.00774 0.15525 0.0
H673 H 0.27471 0.04354 0.0888 0.0
H674 H 0.30469 0.88899 0.15354 0.0
H675 H 0.24536 0.90511 0.16118 0.0
H676 H 0.2951 0.93697 0.17299 0.0
H677 H 0.25287 0.92945 0.07024 0.0
H678 H 0.23432 0.98994 0.06547 0.0
H679 H 0.19588 0.9489 0.07983 0.0
C680 C 0.73478 0.74438 0.35995 0.0
C681 C 0.74415 0.6969 0.36522 0.0
C682 C 0.68908 0.76398 0.36342 0.0
C683 C 0.6525 0.73581 0.37303 0.0
C684 C 0.66276 0.68847 0.37928 0.0
C685 C 0.70808 0.66945 0.37497 0.0
C686 C 0.67949 0.81435 0.35616 0.0
C687 C 0.62569 0.65765 0.39031 0.0
C688 C 0.54638 0.80296 0.39738 0.0
C689 C 0.5121 0.79761 0.38051 0.0
C690 C 0.59143 0.78136 0.39564 0.0
C691 C 0.60326 0.75537 0.3761 0.0
C692 C 0.56817 0.74883 0.35927 0.0
C693 C 0.52279 0.76955 0.36182 0.0
C694 C 0.6269 0.78785 0.41438 0.0
C695 C 0.57938 0.72217 0.33799 0.0
H696 H 0.76253 0.76551 0.3523 0.0
H697 H 0.7154 0.63277 0.37925 0.0
H698 H 0.65057 0.81476 0.3435 0.0
H699 H 0.6672 0.83584 0.3706 0.0
H700 H 0.71149 0.8315 0.34888 0.0
H701 H 0.64032 0.62276 0.39558 0.0
H702 H 0.61087 0.67594 0.40522 0.0
H703 H 0.59576 0.65132 0.37858 0.0
H704 H 0.53838 0.82537 0.41167 0.0
H705 H 0.49683 0.7666 0.34846 0.0
H706 H 0.65649 0.81083 0.40867 0.0
H707 H 0.64258 0.75317 0.41921 0.0
H708 H 0.61052 0.80435 0.42942 0.0
H709 H 0.60846 0.7405 0.32891 0.0
H710 H 0.54804 0.71942 0.32673 0.0
H711 H 0.59212 0.68587 0.34192 0.0
C712 C 0.67946 0.03766 0.63922 0.0
C713 C 0.70632 0.99877 0.63158 0.0
C714 C 0.69684 0.08424 0.638 0.0
C715 C 0.74258 0.09261 0.62897 0.0
C716 C 0.77125 0.05327 0.62257 0.0
C717 C 0.75277 1.0067 0.62393 0.0
C718 C 0.66493 0.12473 0.64514 0.0
C719 C 0.82051 0.06057 0.61321 0.0
C720 C 0.75944 0.21265 0.60053 0.0
C721 C 0.78297 0.23914 0.61707 0.0
C722 C 0.74695 0.16486 0.60408 0.0
C723 C 0.75831 0.14263 0.62468 0.0
C724 C 0.78179 0.16924 0.64151 0.0
C725 C 0.7935 0.21712 0.63757 0.0
C726 C 0.72124 0.1382 0.58578 0.0
C727 C 0.79433 0.14725 0.66375 0.0
H728 H 0.64366 0.03187 0.64537 0.0
H729 H 0.77365 0.97694 0.6179 0.0
H730 H 0.68399 0.14875 0.6568 0.0
H731 H 0.65473 0.14598 0.63028 0.0
H732 H 0.63194 0.11212 0.65344 0.0
H733 H 0.84023 0.02659 0.61135 0.0
H734 H 0.81791 0.07767 0.59655 0.0
H735 H 0.84127 0.08469 0.62418 0.0
H736 H 0.7512 0.22908 0.58462 0.0
H737 H 0.81095 0.23731 0.65064 0.0
H738 H 0.68594 0.12635 0.59191 0.0
H739 H 0.74163 0.10594 0.5811 0.0
H740 H 0.71587 0.16014 0.57057 0.0
H741 H 0.76136 0.13757 0.67284 0.0
H742 H 0.81548 0.1716 0.67449 0.0
H743 H 0.81493 0.11407 0.66114 0.0
C744 C 0.47935 0.18688 0.86718 0.0
C745 C 0.52026 0.21429 0.87144 0.0
C746 C 0.434 0.2074 0.86548 0.0
C747 C 0.42852 0.25687 0.86844 0.0
C748 C 0.46927 0.28483 0.87349 0.0
C749 C 0.51479 0.2633 0.87472 0.0
C750 C 0.39213 0.17611 0.85961 0.0
C751 C 0.46485 0.33761 0.87717 0.0
C752 C 0.32301 0.31428 0.83876 0.0
C753 C 0.2889 0.31759 0.85582 0.0
C754 C 0.36834 0.29485 0.84271 0.0
C755 C 0.38069 0.27916 0.86446 0.0
C756 C 0.34623 0.28198 0.88178 0.0
C757 C 0.30059 0.30069 0.8772 0.0
C758 C 0.4031 0.29117 0.82352 0.0
C759 C 0.35791 0.26622 0.90527 0.0
H760 H 0.4827 0.14896 0.86453 0.0
H761 H 0.54594 0.2848 0.8781 0.0
H762 H 0.36346 0.1803 0.87219 0.0
H763 H 0.37723 0.18698 0.8432 0.0
H764 H 0.40201 0.13797 0.85865 0.0
H765 H 0.49876 0.35368 0.88299 0.0
H766 H 0.45407 0.35508 0.86135 0.0
H767 H 0.43669 0.34515 0.8897 0.0
H768 H 0.31431 0.32748 0.82223 0.0
H769 H 0.27486 0.30402 0.8906 0.0
H770 H 0.41393 0.25362 0.82108 0.0
H771 H 0.43575 0.31167 0.8274 0.0
H772 H 0.3879 0.3046 0.80758 0.0
H773 H 0.36767 0.22806 0.90533 0.0
H774 H 0.32769 0.27168 0.91697 0.0
H775 H 0.38917 0.28621 0.91159 0.0
C776 C 0.77957 0.50521 0.63438 0.0
C777 C 0.80516 0.49128 0.6154 0.0
C778 C 0.76062 0.55139 0.6362 0.0
C779 C 0.7667 0.58415 0.61842 0.0
C780 C 0.79075 0.5693 0.59877 0.0
C781 C 0.81049 0.52337 0.5977 0.0
C782 C 0.73592 0.56578 0.65758 0.0
C783 C 0.79678 0.60231 0.57912 0.0
C784 C 0.68034 0.68829 0.61828 0.0
C785 C 0.70813 0.72546 0.62691 0.0
C786 C 0.6995 0.64294 0.61456 0.0
C787 C 0.74742 0.63367 0.62036 0.0
C788 C 0.77604 0.67132 0.62875 0.0
C789 C 0.75619 0.71707 0.63163 0.0
C790 C 0.66802 0.60464 0.60487 0.0
C791 C 0.82706 0.66279 0.6355 0.0
H792 H 0.77686 0.48089 0.64836 0.0
H793 H 0.83131 0.5129 0.58323 0.0
H794 H 0.75501 0.59609 0.66535 0.0
H795 H 0.69915 0.57787 0.65394 0.0
H796 H 0.73424 0.53629 0.66986 0.0
H797 H 0.81291 0.58416 0.56444 0.0
H798 H 0.76184 0.61728 0.57408 0.0
H799 H 0.81989 0.63254 0.58393 0.0
H800 H 0.6431 0.69466 0.61455 0.0
H801 H 0.77758 0.7456 0.63849 0.0
H802 H 0.66198 0.57658 0.61754 0.0
H803 H 0.68566 0.58767 0.59031 0.0
H804 H 0.6329 0.61866 0.59944 0.0
H805 H 0.82838 0.63622 0.64917 0.0
H806 H 0.84486 0.69578 0.64131 0.0
H807 H 0.84744 0.64797 0.62123 0.0
C808 C 0.79966 0.23715 0.84867 0.0
C809 C 0.77661 0.24985 0.86869 0.0
C810 C 0.84754 0.24953 0.84468 0.0
C811 C 0.8733 0.27542 0.86105 0.0
C812 C 0.85011 0.28861 0.8812 0.0
C813 C 0.80227 0.27577 0.88474 0.0
C814 C 0.87045 0.23515 0.82287 0.0
C815 C 0.87582 0.31662 0.89904 0.0
C816 C 1.00963 0.28309 0.86254 0.0
C817 C 0.01726 0.32885 0.85409 0.0
C818 C 0.96313 0.26412 0.86398 0.0
C819 C 0.92346 0.29147 0.85674 0.0
C820 C 0.93158 0.3364 0.84693 0.0
C821 C 0.9781 0.35441 0.84577 0.0
C822 C 0.95619 0.21585 0.87431 0.0
C823 C 0.89082 0.36685 0.8388 0.0
H824 H 0.78025 0.21752 0.83603 0.0
H825 H 0.78513 0.28565 0.9003 0.0
H826 H 0.88022 0.26726 0.81321 0.0
H827 H 0.90378 0.21516 0.82613 0.0
H828 H 0.84658 0.21288 0.8124 0.0
H829 H 0.85333 0.32301 0.91402 0.0
H830 H 0.90847 0.29747 0.90431 0.0
H831 H 0.8871 0.35143 0.89222 0.0
H832 H 0.03954 0.26321 0.86914 0.0
H833 H 0.98361 0.38967 0.83902 0.0
H834 H 0.93284 0.19367 0.86358 0.0
H835 H 0.93827 0.2198 0.89074 0.0
H836 H 0.99048 0.19695 0.87689 0.0
H837 H 0.86738 0.34626 0.82744 0.0
H838 H 0.90331 0.399 0.82983 0.0
H839 H 0.86888 0.37832 0.85326 0.0
C840 C 0.24975 0.52175 0.11345 0.0
C841 C 0.21004 0.52983 0.0998 0.0
C842 C 0.27078 0.47632 0.11467 0.0
C843 C 0.25216 0.43842 0.10163 0.0
C844 C 0.21397 0.44744 0.08678 0.0
C845 C 0.19305 0.49277 0.08627 0.0
C846 C 0.31129 0.46827 0.13081 0.0
C847 C 0.19379 0.40867 0.07211 0.0
C848 C 0.32989 0.32818 0.09506 0.0
C849 C 0.31065 0.29759 0.11115 0.0
C850 C 0.31033 0.37343 0.09126 0.0
C851 C 0.27116 0.389 0.10425 0.0
C852 C 0.25083 0.35762 0.12015 0.0
C853 C 0.27085 0.31222 0.1234 0.0
C854 C 0.33272 0.40519 0.07391 0.0
C855 C 0.20914 0.37274 0.13439 0.0
H856 H 0.26241 0.55005 0.12422 0.0
H857 H 0.16224 0.49891 0.07573 0.0
H858 H 0.2999 0.44319 0.14405 0.0
H859 H 0.34197 0.45187 0.12205 0.0
H860 H 0.32328 0.50173 0.13889 0.0
H861 H 0.16719 0.42247 0.06 0.0
H862 H 0.22269 0.39072 0.06269 0.0
H863 H 0.17639 0.38144 0.08268 0.0
H864 H 0.36142 0.31737 0.08596 0.0
H865 H 0.25677 0.28903 0.13624 0.0
H866 H 0.34925 0.43631 0.08223 0.0
H867 H 0.30518 0.4189 0.06229 0.0
H868 H 0.36048 0.38649 0.06402 0.0
H869 H 0.21944 0.40356 0.14491 0.0
H870 H 0.19652 0.34379 0.14548 0.0
H871 H 0.17916 0.38429 0.1236 0.0
C872 C 0.23479 0.77816 0.37497 0.0
C873 C 0.24358 0.82664 0.37208 0.0
C874 C 0.18902 0.75921 0.37101 0.0
C875 C 0.1518 0.7892 0.36324 0.0
C876 C 0.1614 0.83779 0.3594 0.0
C877 C 0.20677 0.85598 0.36424 0.0
C878 C 0.18011 0.70741 0.37576 0.0
C879 C 0.12364 0.87074 0.35032 0.0
C880 C 0.04497 0.72765 0.33644 0.0
C881 C 1.01128 0.72929 0.35371 0.0
C882 C 0.09007 0.74875 0.33893 0.0
C883 C 0.10258 0.77019 0.35958 0.0
C884 C 0.0681 0.77292 0.37688 0.0
C885 C 0.02265 0.75298 0.37362 0.0
C886 C 0.12485 0.7466 0.31972 0.0
C887 C 0.08006 0.79451 0.39932 0.0
H888 H 0.26313 0.7555 0.38109 0.0
H889 H 0.21361 0.89346 0.36171 0.0
H890 H 0.15151 0.70391 0.38844 0.0
H891 H 0.16766 0.6892 0.36037 0.0
H892 H 0.21246 0.68897 0.38198 0.0
H893 H 0.13776 0.90676 0.34678 0.0
H894 H 0.10841 0.85591 0.33467 0.0
H895 H 0.09411 0.87409 0.36252 0.0
H896 H 0.03651 0.70846 0.32121 0.0
H897 H 0.99718 0.75291 0.38724 0.0
H898 H 0.15483 0.72266 0.32404 0.0
H899 H 0.1401 0.78226 0.31651 0.0
H900 H 0.108 0.73342 0.30408 0.0
H901 H 0.10968 0.77436 0.40713 0.0
H902 H 0.04921 0.79441 0.41093 0.0
H903 H 0.09236 0.8316 0.3972 0.0
loop_
_geom_bond_atom_site_label_1
_geom_bond_atom_site_label_2
_geom_bond_distance
_geom_bond_site_symmetry_2
_ccdc_geom_bond_type
C0 C1 1.351 . S
C0 N3 1.368 . S
C0 H5 0.931 . S
C1 C0 1.351 . S
C1 N2 1.373 . S
C1 H29 0.930 . S
N2 C1 1.373 . S
N2 C4 1.340 . S
N3 C0 1.368 . S
N3 C4 1.321 . S
N3 Co6 2.135 . S
C4 N2 1.340 . S
C4 N3 1.321 . S
C4 H28 0.930 . S
H5 C0 0.931 . S
Co6 N3 2.135 . S
Co6 N9 2.121 . S
Co6 O14 2.055 . S
Co6 O17 2.039 . S
Co6 N20 2.140 . S
C7 O8 1.227 . S
C7 O17 1.265 . S
O8 C7 1.227 . S
N9 Co6 2.121 . S
N9 C11 1.375 . S
N9 C12 1.313 . S
C10 C11 1.338 . S
C10 N13 1.377 . S
C10 H30 0.930 . S
C11 N9 1.375 . S
C11 C10 1.338 . S
C11 H15 0.931 . S
C12 N9 1.313 . S
C12 N13 1.344 . S
C12 H16 0.930 . S
N13 C10 1.377 . S
N13 C12 1.344 . S
O14 Co6 2.055 . S
O14 C18 1.253 . S
H15 C11 0.931 . S
H16 C12 0.930 . S
O17 Co6 2.039 . S
O17 C7 1.265 . S
C18 O14 1.253 . S
C18 O19 1.227 . S
O19 C18 1.227 . S
N20 Co6 2.140 . S
N20 C23 1.346 . S
N20 C24 1.345 . S
C21 C22 1.387 . S
C21 C25 1.391 . S
C22 C21 1.387 . S
C22 C23 1.369 . S
C22 H31 0.929 . S
C23 N20 1.346 . S
C23 C22 1.369 . S
C23 H26 0.928 . S
C24 N20 1.345 . S
C24 C25 1.371 . S
C24 H27 0.931 . S
C25 C21 1.391 . S
C25 C24 1.371 . S
C25 H32 0.930 . S
H26 C23 0.928 . S
H27 C24 0.931 . S
H28 C4 0.930 . S
H29 C1 0.930 . S
H30 C10 0.930 . S
H31 C22 0.929 . S
H32 C25 0.930 . S
C33 C34 1.351 . S
C33 N36 1.368 . S
C33 H38 0.931 . S
C34 C33 1.351 . S
C34 N35 1.373 . S
C34 H62 0.930 . S
N35 C34 1.373 . S
N35 C37 1.340 . S
N36 C33 1.368 . S
N36 C37 1.321 . S
N36 Co39 2.135 . S
C37 N35 1.340 . S
C37 N36 1.321 . S
C37 H61 0.930 . S
H38 C33 0.931 . S
Co39 N36 2.135 . S
Co39 N42 2.121 . S
Co39 O47 2.055 . S
Co39 O50 2.039 . S
Co39 N53 2.140 . S
C40 O41 1.227 . S
C40 O50 1.265 . S
O41 C40 1.227 . S
N42 Co39 2.121 . S
N42 C44 1.375 . S
N42 C45 1.313 . S
C43 C44 1.338 . S
C43 N46 1.377 . S
C43 H63 0.930 . S
C44 N42 1.375 . S
C44 C43 1.338 . S
C44 H48 0.931 . S
C45 N42 1.313 . S
C45 N46 1.344 . S
C45 H49 0.930 . S
N46 C43 1.377 . S
N46 C45 1.344 . S
O47 Co39 2.055 . S
O47 C51 1.253 . S
H48 C44 0.931 . S
H49 C45 0.930 . S
O50 Co39 2.039 . S
O50 C40 1.265 . S
C51 O47 1.253 . S
C51 O52 1.227 . S
O52 C51 1.227 . S
N53 Co39 2.140 . S
N53 C56 1.346 . S
N53 C57 1.345 . S
C54 C55 1.387 1_545 S
C54 C58 1.391 1_545 S
C55 C54 1.387 1_565 S
C55 C56 1.369 . S
C55 H64 0.929 . S
C56 N53 1.346 . S
C56 C55 1.369 . S
C56 H59 0.928 . S
C57 N53 1.345 . S
C57 C58 1.371 . S
C57 H60 0.931 . S
C58 C54 1.391 1_565 S
C58 C57 1.371 . S
C58 H65 0.930 1_565 S
H59 C56 0.928 . S
H60 C57 0.931 . S
H61 C37 0.930 . S
H62 C34 0.930 . S
H63 C43 0.930 . S
H64 C55 0.929 . S
H65 C58 0.930 1_545 S
C66 C67 1.351 . S
C66 N69 1.368 . S
C66 H71 0.931 . S
C67 C66 1.351 . S
C67 N68 1.373 . S
C67 H95 0.930 . S
N68 C67 1.373 . S
N68 C70 1.340 . S
N69 C66 1.368 . S
N69 C70 1.321 . S
N69 Co72 2.135 . S
C70 N68 1.340 . S
C70 N69 1.321 . S
C70 H94 0.930 . S
H71 C66 0.931 . S
Co72 N69 2.135 . S
Co72 N75 2.121 . S
Co72 O80 2.055 . S
Co72 O83 2.039 . S
Co72 N86 2.140 . S
C73 O74 1.227 . S
C73 O83 1.265 . S
O74 C73 1.227 . S
N75 Co72 2.121 . S
N75 C77 1.375 . S
N75 C78 1.313 . S
C76 C77 1.338 . S
C76 N79 1.377 . S
C76 H96 0.930 . S
C77 N75 1.375 . S
C77 C76 1.338 . S
C77 H81 0.931 . S
C78 N75 1.313 . S
C78 N79 1.344 . S
C78 H82 0.930 . S
N79 C76 1.377 . S
N79 C78 1.344 . S
O80 Co72 2.055 . S
O80 C84 1.253 . S
H81 C77 0.931 . S
H82 C78 0.930 . S
O83 Co72 2.039 . S
O83 C73 1.265 . S
C84 O80 1.253 . S
C84 O85 1.227 . S
O85 C84 1.227 . S
N86 Co72 2.140 . S
N86 C89 1.346 . S
N86 C90 1.345 . S
C87 C88 1.387 . S
C87 C91 1.391 . S
C88 C87 1.387 . S
C88 C89 1.369 . S
C88 H97 0.929 . S
C89 N86 1.346 . S
C89 C88 1.369 . S
C89 H92 0.928 . S
C90 N86 1.345 . S
C90 C91 1.371 . S
C90 H93 0.931 . S
C91 C87 1.391 . S
C91 C90 1.371 . S
C91 H98 0.930 . S
H92 C89 0.928 . S
H93 C90 0.931 . S
H94 C70 0.930 . S
H95 C67 0.930 . S
H96 C76 0.930 . S
H97 C88 0.929 . S
H98 C91 0.930 . S
C99 C100 1.351 . S
C99 N102 1.368 . S
C99 H104 0.931 . S
C100 C99 1.351 . S
C100 N101 1.373 . S
C100 H128 0.930 . S
N101 C100 1.373 . S
N101 C103 1.340 . S
N102 C99 1.368 . S
N102 C103 1.321 . S
N102 Co105 2.135 . S
C103 N101 1.340 . S
C103 N102 1.321 . S
C103 H127 0.930 . S
H104 C99 0.931 . S
Co105 N102 2.135 . S
Co105 N108 2.121 . S
Co105 O113 2.055 . S
Co105 O116 2.039 . S
Co105 N119 2.140 . S
C106 O107 1.227 . S
C106 O116 1.265 . S
O107 C106 1.227 . S
N108 Co105 2.121 . S
N108 C110 1.375 . S
N108 C111 1.313 . S
C109 C110 1.338 . S
C109 N112 1.377 . S
C109 H129 0.930 . S
C110 N108 1.375 . S
C110 C109 1.338 . S
C110 H114 0.931 . S
C111 N108 1.313 . S
C111 N112 1.344 . S
C111 H115 0.930 . S
N112 C109 1.377 . S
N112 C111 1.344 . S
O113 Co105 2.055 . S
O113 C117 1.253 . S
H114 C110 0.931 . S
H115 C111 0.930 . S
O116 Co105 2.039 . S
O116 C106 1.265 . S
C117 O113 1.253 . S
C117 O118 1.227 . S
O118 C117 1.227 . S
N119 Co105 2.140 . S
N119 C122 1.346 . S
N119 C123 1.345 . S
C120 C121 1.387 1_565 S
C120 C124 1.391 1_565 S
C121 C120 1.387 1_545 S
C121 C122 1.369 . S
C121 H130 0.929 . S
C122 N119 1.346 . S
C122 C121 1.369 . S
C122 H125 0.928 . S
C123 N119 1.345 . S
C123 C124 1.371 . S
C123 H126 0.931 . S
C124 C120 1.391 1_545 S
C124 C123 1.371 . S
C124 H131 0.930 1_545 S
H125 C122 0.928 . S
H126 C123 0.931 . S
H127 C103 0.930 . S
H128 C100 0.930 . S
H129 C109 0.930 . S
H130 C121 0.929 . S
H131 C124 0.930 1_565 S
C132 C133 1.351 . S
C132 N135 1.368 . S
C132 H137 0.931 . S
C133 C132 1.351 . S
C133 N134 1.373 . S
C133 H161 0.930 . S
N134 C133 1.373 . S
N134 C136 1.340 . S
N135 C132 1.368 . S
N135 C136 1.321 . S
N135 Co138 2.135 . S
C136 N134 1.340 . S
C136 N135 1.321 . S
C136 H160 0.930 . S
H137 C132 0.931 . S
Co138 N135 2.135 . S
Co138 N141 2.121 . S
Co138 O146 2.055 . S
Co138 O149 2.039 . S
Co138 N152 2.140 . S
C139 O140 1.227 . S
C139 O149 1.265 . S
O140 C139 1.227 . S
N141 Co138 2.121 . S
N141 C143 1.375 . S
N141 C144 1.313 . S
C142 C143 1.338 . S
C142 N145 1.377 . S
C142 H162 0.930 . S
C143 N141 1.375 . S
C143 C142 1.338 . S
C143 H147 0.931 . S
C144 N141 1.313 . S
C144 N145 1.344 . S
C144 H148 0.930 . S
N145 C142 1.377 . S
N145 C144 1.344 . S
O146 Co138 2.055 . S
O146 C150 1.253 . S
H147 C143 0.931 . S
H148 C144 0.930 . S
O149 Co138 2.039 . S
O149 C139 1.265 . S
C150 O146 1.253 . S
C150 O151 1.227 . S
O151 C150 1.227 . S
N152 Co138 2.140 . S
N152 C155 1.346 . S
N152 C156 1.345 . S
C153 C154 1.387 1_455 S
C153 C157 1.391 1_455 S
C154 C153 1.387 1_655 S
C154 C155 1.369 . S
C154 H163 0.929 . S
C155 N152 1.346 . S
C155 C154 1.369 . S
C155 H158 0.928 . S
C156 N152 1.345 . S
C156 C157 1.371 . S
C156 H159 0.931 . S
C157 C153 1.391 1_655 S
C157 C156 1.371 . S
C157 H164 0.930 1_655 S
H158 C155 0.928 . S
H159 C156 0.931 . S
H160 C136 0.930 . S
H161 C133 0.930 . S
H162 C142 0.930 . S
H163 C154 0.929 . S
H164 C157 0.930 1_455 S
C165 C166 1.351 . S
C165 N168 1.368 . S
C165 H170 0.931 . S
C166 C165 1.351 . S
C166 N167 1.373 . S
C166 H194 0.930 . S
N167 C166 1.373 . S
N167 C169 1.340 . S
N168 C165 1.368 . S
N168 C169 1.321 . S
N168 Co171 2.135 . S
C169 N167 1.340 . S
C169 N168 1.321 . S
C169 H193 0.930 . S
H170 C165 0.931 . S
Co171 N168 2.135 . S
Co171 N174 2.121 . S
Co171 O179 2.055 . S
Co171 O182 2.039 . S
Co171 N185 2.140 . S
C172 O173 1.227 . S
C172 O182 1.265 . S
O173 C172 1.227 . S
N174 Co171 2.121 . S
N174 C176 1.375 . S
N174 C177 1.313 . S
C175 C176 1.338 . S
C175 N178 1.377 . S
C175 H195 0.930 . S
C176 N174 1.375 . S
C176 C175 1.338 . S
C176 H180 0.931 . S
C177 N174 1.313 . S
C177 N178 1.344 . S
C177 H181 0.930 . S
N178 C175 1.377 . S
N178 C177 1.344 . S
O179 Co171 2.055 . S
O179 C183 1.253 . S
H180 C176 0.931 . S
H181 C177 0.930 . S
O182 Co171 2.039 . S
O182 C172 1.265 . S
C183 O179 1.253 . S
C183 O184 1.227 . S
O184 C183 1.227 . S
N185 Co171 2.140 . S
N185 C188 1.346 . S
N185 C189 1.345 . S
C186 C187 1.387 . S
C186 C190 1.391 . S
C187 C186 1.387 . S
C187 C188 1.369 . S
C187 H196 0.929 . S
C188 N185 1.346 . S
C188 C187 1.369 . S
C188 H191 0.928 . S
C189 N185 1.345 . S
C189 C190 1.371 . S
C189 H192 0.931 . S
C190 C186 1.391 . S
C190 C189 1.371 . S
C190 H197 0.930 . S
H191 C188 0.928 . S
H192 C189 0.931 . S
H193 C169 0.930 . S
H194 C166 0.930 . S
H195 C175 0.930 . S
H196 C187 0.929 . S
H197 C190 0.930 . S
C198 C199 1.351 . S
C198 N201 1.368 . S
C198 H203 0.931 . S
C199 C198 1.351 . S
C199 N200 1.373 . S
C199 H227 0.930 . S
N200 C199 1.373 . S
N200 C202 1.340 . S
N201 C198 1.368 . S
N201 C202 1.321 . S
N201 Co204 2.135 . S
C202 N200 1.340 . S
C202 N201 1.321 . S
C202 H226 0.930 . S
H203 C198 0.931 . S
Co204 N201 2.135 . S
Co204 N207 2.121 . S
Co204 O212 2.055 . S
Co204 O215 2.039 . S
Co204 N218 2.140 . S
C205 O206 1.227 . S
C205 O215 1.265 . S
O206 C205 1.227 . S
N207 Co204 2.121 . S
N207 C209 1.375 . S
N207 C210 1.313 . S
C208 C209 1.338 . S
C208 N211 1.377 . S
C208 H228 0.930 . S
C209 N207 1.375 . S
C209 C208 1.338 . S
C209 H213 0.931 . S
C210 N207 1.313 . S
C210 N211 1.344 . S
C210 H214 0.930 . S
N211 C208 1.377 . S
N211 C210 1.344 . S
O212 Co204 2.055 . S
O212 C216 1.253 . S
H213 C209 0.931 . S
H214 C210 0.930 . S
O215 Co204 2.039 . S
O215 C205 1.265 . S
C216 O212 1.253 . S
C216 O217 1.227 . S
O217 C216 1.227 . S
N218 Co204 2.140 . S
N218 C221 1.346 . S
N218 C222 1.345 . S
C219 C220 1.387 1_655 S
C219 C223 1.391 1_655 S
C220 C219 1.387 1_455 S
C220 C221 1.369 . S
C220 H229 0.929 . S
C221 N218 1.346 . S
C221 C220 1.369 . S
C221 H224 0.928 . S
C222 N218 1.345 . S
C222 C223 1.371 . S
C222 H225 0.931 . S
C223 C219 1.391 1_455 S
C223 C222 1.371 . S
C223 H230 0.930 1_455 S
H224 C221 0.928 . S
H225 C222 0.931 . S
H226 C202 0.930 . S
H227 C199 0.930 . S
H228 C208 0.930 . S
H229 C220 0.929 . S
H230 C223 0.930 1_655 S
C231 C232 1.351 . S
C231 N234 1.368 . S
C231 H236 0.931 . S
C232 C231 1.351 . S
C232 N233 1.373 . S
C232 H260 0.930 . S
N233 C232 1.373 . S
N233 C235 1.340 . S
N234 C231 1.368 . S
N234 C235 1.321 . S
N234 Co237 2.135 . S
C235 N233 1.340 . S
C235 N234 1.321 . S
C235 H259 0.930 . S
H236 C231 0.931 . S
Co237 N234 2.135 . S
Co237 N240 2.121 . S
Co237 O245 2.055 . S
Co237 O248 2.039 . S
Co237 N251 2.140 . S
C238 O239 1.227 . S
C238 O248 1.265 . S
O239 C238 1.227 . S
N240 Co237 2.121 . S
N240 C242 1.375 . S
N240 C243 1.313 . S
C241 C242 1.338 . S
C241 N244 1.377 . S
C241 H261 0.930 . S
C242 N240 1.375 . S
C242 C241 1.338 . S
C242 H246 0.931 . S
C243 N240 1.313 . S
C243 N244 1.344 . S
C243 H247 0.930 . S
N244 C241 1.377 . S
N244 C243 1.344 . S
O245 Co237 2.055 . S
O245 C249 1.253 . S
H246 C242 0.931 . S
H247 C243 0.930 . S
O248 Co237 2.039 . S
O248 C238 1.265 . S
C249 O245 1.253 . S
C249 O250 1.227 . S
O250 C249 1.227 . S
N251 Co237 2.140 . S
N251 C254 1.346 . S
N251 C255 1.345 . S
C252 C253 1.387 . S
C252 C256 1.391 . S
C253 C252 1.387 . S
C253 C254 1.369 . S
C253 H262 0.929 . S
C254 N251 1.346 . S
C254 C253 1.369 . S
C254 H257 0.928 . S
C255 N251 1.345 . S
C255 C256 1.371 . S
C255 H258 0.931 . S
C256 C252 1.391 . S
C256 C255 1.371 . S
C256 H263 0.930 . S
H257 C254 0.928 . S
H258 C255 0.931 . S
H259 C235 0.930 . S
H260 C232 0.930 . S
H261 C241 0.930 . S
H262 C253 0.929 . S
H263 C256 0.930 . S
C264 C265 1.391 . S
C264 C266 1.394 . S
C264 H280 0.931 . S
C265 C264 1.391 . S
C265 C269 1.376 . S
C266 C264 1.394 . S
C266 C267 1.369 . S
C266 C270 1.531 1_554 S
C267 C266 1.369 . S
C267 C268 1.410 . S
C267 C275 1.503 1_554 S
C268 C267 1.410 . S
C268 C269 1.392 . S
C268 C271 1.511 . S
C269 C265 1.376 . S
C269 C268 1.392 . S
C269 H281 0.929 . S
C270 C266 1.531 1_556 S
C270 H282 0.960 . S
C270 H283 0.962 . S
C270 H284 0.960 . S
C271 C268 1.511 . S
C271 H285 0.961 . S
C271 H286 0.961 . S
C271 H287 0.961 . S
C272 C273 1.370 . S
C272 C274 1.363 . S
C272 H288 0.931 . S
C273 C272 1.370 . S
C273 C277 1.408 . S
C274 C272 1.363 . S
C274 C275 1.370 . S
C274 C278 1.524 . S
C275 C267 1.503 1_556 S
C275 C274 1.370 . S
C275 C276 1.403 . S
C276 C275 1.403 . S
C276 C277 1.404 . S
C276 C279 1.539 . S
C277 C273 1.408 . S
C277 C276 1.404 . S
C277 H289 0.930 . S
C278 C274 1.524 . S
C278 H290 0.956 . S
C278 H291 0.961 1_556 S
C278 H292 0.961 . S
C279 C276 1.539 . S
C279 H293 0.958 . S
C279 H294 0.961 . S
C279 H295 0.960 1_556 S
H280 C264 0.931 . S
H281 C269 0.929 . S
H282 C270 0.960 . S
H283 C270 0.962 . S
H284 C270 0.960 . S
H285 C271 0.961 . S
H286 C271 0.961 . S
H287 C271 0.961 . S
H288 C272 0.931 . S
H289 C277 0.930 . S
H290 C278 0.956 . S
H291 C278 0.961 1_554 S
H292 C278 0.961 . S
H293 C279 0.958 . S
H294 C279 0.961 . S
H295 C279 0.960 1_554 S
C296 C297 1.391 . S
C296 C298 1.394 . S
C296 H312 0.931 . S
C297 C296 1.391 . S
C297 C301 1.376 . S
C298 C296 1.394 . S
C298 C299 1.369 . S
C298 C302 1.531 . S
C299 C298 1.369 . S
C299 C300 1.410 . S
C299 C307 1.503 . S
C300 C299 1.410 . S
C300 C301 1.392 . S
C300 C303 1.511 . S
C301 C297 1.376 . S
C301 C300 1.392 . S
C301 H313 0.929 . S
C302 C298 1.531 . S
C302 H314 0.960 . S
C302 H315 0.962 . S
C302 H316 0.960 . S
C303 C300 1.511 . S
C303 H317 0.961 . S
C303 H318 0.961 . S
C303 H319 0.961 . S
C304 C305 1.370 . S
C304 C306 1.363 . S
C304 H320 0.931 . S
C305 C304 1.370 . S
C305 C309 1.408 . S
C306 C304 1.363 . S
C306 C307 1.370 . S
C306 C310 1.524 . S
C307 C299 1.503 . S
C307 C306 1.370 . S
C307 C308 1.403 . S
C308 C307 1.403 . S
C308 C309 1.404 . S
C308 C311 1.539 . S
C309 C305 1.408 . S
C309 C308 1.404 . S
C309 H321 0.930 . S
C310 C306 1.524 . S
C310 H322 0.956 . S
C310 H323 0.961 . S
C310 H324 0.961 . S
C311 C308 1.539 . S
C311 H325 0.958 . S
C311 H326 0.961 . S
C311 H327 0.960 . S
H312 C296 0.931 . S
H313 C301 0.929 . S
H314 C302 0.960 . S
H315 C302 0.962 . S
H316 C302 0.960 . S
H317 C303 0.961 . S
H318 C303 0.961 . S
H319 C303 0.961 . S
H320 C304 0.931 . S
H321 C309 0.930 . S
H322 C310 0.956 . S
H323 C310 0.961 . S
H324 C310 0.961 . S
H325 C311 0.958 . S
H326 C311 0.961 . S
H327 C311 0.960 . S
C328 C329 1.391 . S
C328 C330 1.394 . S
C328 H344 0.931 . S
C329 C328 1.391 . S
C329 C333 1.376 . S
C330 C328 1.394 . S
C330 C331 1.369 . S
C330 C334 1.531 . S
C331 C330 1.369 . S
C331 C332 1.410 . S
C331 C339 1.503 . S
C332 C331 1.410 . S
C332 C333 1.392 . S
C332 C335 1.511 . S
C333 C329 1.376 . S
C333 C332 1.392 . S
C333 H345 0.929 . S
C334 C330 1.531 . S
C334 H346 0.960 . S
C334 H347 0.962 . S
C334 H348 0.960 . S
C335 C332 1.511 . S
C335 H349 0.961 . S
C335 H350 0.961 . S
C335 H351 0.961 . S
C336 C337 1.370 . S
C336 C338 1.363 . S
C336 H352 0.931 . S
C337 C336 1.370 . S
C337 C341 1.408 . S
C338 C336 1.363 . S
C338 C339 1.370 . S
C338 C342 1.524 . S
C339 C331 1.503 . S
C339 C338 1.370 . S
C339 C340 1.403 . S
C340 C339 1.403 . S
C340 C341 1.404 . S
C340 C343 1.539 . S
C341 C337 1.408 . S
C341 C340 1.404 . S
C341 H353 0.930 . S
C342 C338 1.524 . S
C342 H354 0.956 . S
C342 H355 0.961 . S
C342 H356 0.961 . S
C343 C340 1.539 . S
C343 H357 0.958 . S
C343 H358 0.961 . S
C343 H359 0.960 . S
H344 C328 0.931 . S
H345 C333 0.929 . S
H346 C334 0.960 . S
H347 C334 0.962 . S
H348 C334 0.960 . S
H349 C335 0.961 . S
H350 C335 0.961 . S
H351 C335 0.961 . S
H352 C336 0.931 . S
H353 C341 0.930 . S
H354 C342 0.956 . S
H355 C342 0.961 . S
H356 C342 0.961 . S
H357 C343 0.958 . S
H358 C343 0.961 . S
H359 C343 0.960 . S
C360 C361 1.391 . S
C360 C362 1.394 . S
C360 H376 0.931 . S
C361 C360 1.391 . S
C361 C365 1.376 . S
C362 C360 1.394 . S
C362 C363 1.369 . S
C362 C366 1.531 . S
C363 C362 1.369 . S
C363 C364 1.410 . S
C363 C371 1.503 . S
C364 C363 1.410 . S
C364 C365 1.392 . S
C364 C367 1.511 . S
C365 C361 1.376 . S
C365 C364 1.392 . S
C365 H377 0.929 . S
C366 C362 1.531 . S
C366 H378 0.960 . S
C366 H379 0.962 . S
C366 H380 0.960 . S
C367 C364 1.511 . S
C367 H381 0.961 . S
C367 H382 0.961 . S
C367 H383 0.961 . S
C368 C369 1.370 . S
C368 C370 1.363 . S
C368 H384 0.931 . S
C369 C368 1.370 . S
C369 C373 1.408 . S
C370 C368 1.363 . S
C370 C371 1.370 . S
C370 C374 1.524 . S
C371 C363 1.503 . S
C371 C370 1.370 . S
C371 C372 1.403 . S
C372 C371 1.403 . S
C372 C373 1.404 . S
C372 C375 1.539 . S
C373 C369 1.408 . S
C373 C372 1.404 . S
C373 H385 0.930 . S
C374 C370 1.524 . S
C374 H386 0.956 . S
C374 H387 0.961 . S
C374 H388 0.961 . S
C375 C372 1.539 . S
C375 H389 0.958 . S
C375 H390 0.961 . S
C375 H391 0.960 . S
H376 C360 0.931 . S
H377 C365 0.929 . S
H378 C366 0.960 . S
H379 C366 0.962 . S
H380 C366 0.960 . S
H381 C367 0.961 . S
H382 C367 0.961 . S
H383 C367 0.961 . S
H384 C368 0.931 . S
H385 C373 0.930 . S
H386 C374 0.956 . S
H387 C374 0.961 . S
H388 C374 0.961 . S
H389 C375 0.958 . S
H390 C375 0.961 . S
H391 C375 0.960 . S
C392 C393 1.391 . S
C392 C394 1.394 . S
C392 H408 0.931 . S
C393 C392 1.391 . S
C393 C397 1.376 . S
C394 C392 1.394 . S
C394 C395 1.369 . S
C394 C398 1.531 . S
C395 C394 1.369 . S
C395 C396 1.410 . S
C395 C403 1.503 1_556 S
C396 C395 1.410 . S
C396 C397 1.392 . S
C396 C399 1.511 . S
C397 C393 1.376 . S
C397 C396 1.392 . S
C397 H409 0.929 . S
C398 C394 1.531 . S
C398 H410 0.943 1_556 S
C398 H411 0.962 . S
C398 H412 0.960 . S
C399 C396 1.511 . S
C399 H413 0.961 . S
C399 H414 0.961 1_556 S
C399 H415 0.951 1_556 S
C400 C401 1.370 . S
C400 C402 1.363 . S
C400 H416 0.931 . S
C401 C400 1.370 . S
C401 C405 1.408 . S
C402 C400 1.363 . S
C402 C403 1.370 . S
C402 C406 1.524 1_554 S
C403 C395 1.503 1_554 S
C403 C402 1.370 . S
C403 C404 1.403 . S
C404 C403 1.403 . S
C404 C405 1.404 . S
C404 C407 1.539 . S
C405 C401 1.408 . S
C405 C404 1.404 . S
C405 H417 0.930 . S
C406 C402 1.524 1_556 S
C406 H418 0.956 . S
C406 H419 0.961 . S
C406 H420 0.952 1_556 S
C407 C404 1.539 . S
C407 H421 0.960 . S
C407 H422 0.961 . S
C407 H423 0.960 . S
H408 C392 0.931 . S
H409 C397 0.929 . S
H410 C398 0.943 1_554 S
H411 C398 0.962 . S
H412 C398 0.960 . S
H413 C399 0.961 . S
H414 C399 0.961 1_554 S
H415 C399 0.951 1_554 S
H416 C400 0.931 . S
H417 C405 0.930 . S
H418 C406 0.956 . S
H419 C406 0.961 . S
H420 C406 0.952 1_554 S
H421 C407 0.960 . S
H422 C407 0.961 . S
H423 C407 0.960 . S
C424 C425 1.391 . S
C424 C426 1.394 . S
C424 H440 0.931 . S
C425 C424 1.391 . S
C425 C429 1.376 . S
C426 C424 1.394 . S
C426 C427 1.369 . S
C426 C430 1.531 . S
C427 C426 1.369 . S
C427 C428 1.410 . S
C427 C435 1.503 . S
C428 C427 1.410 . S
C428 C429 1.392 . S
C428 C431 1.511 . S
C429 C425 1.376 . S
C429 C428 1.392 . S
C429 H441 0.929 1_545 S
C430 C426 1.531 . S
C430 H442 0.960 . S
C430 H443 0.962 . S
C430 H444 0.960 . S
C431 C428 1.511 . S
C431 H445 0.961 1_545 S
C431 H446 0.960 1_545 S
C431 H447 0.961 . S
C432 C433 1.370 . S
C432 C434 1.363 . S
C432 H448 0.931 . S
C433 C432 1.370 . S
C433 C437 1.408 . S
C434 C432 1.363 . S
C434 C435 1.370 . S
C434 C438 1.524 . S
C435 C427 1.503 . S
C435 C434 1.370 . S
C435 C436 1.403 . S
C436 C435 1.403 . S
C436 C437 1.404 . S
C436 C439 1.539 . S
C437 C433 1.408 . S
C437 C436 1.404 . S
C437 H449 0.930 . S
C438 C434 1.524 . S
C438 H450 0.956 . S
C438 H451 0.961 1_545 S
C438 H452 0.961 1_545 S
C439 C436 1.539 . S
C439 H453 0.958 . S
C439 H454 0.961 . S
C439 H455 0.960 . S
H440 C424 0.931 . S
H441 C429 0.929 1_565 S
H442 C430 0.960 . S
H443 C430 0.962 . S
H444 C430 0.960 . S
H445 C431 0.961 1_565 S
H446 C431 0.960 1_565 S
H447 C431 0.961 . S
H448 C432 0.931 . S
H449 C437 0.930 . S
H450 C438 0.956 . S
H451 C438 0.961 1_565 S
H452 C438 0.961 1_565 S
H453 C439 0.958 . S
H454 C439 0.961 . S
H455 C439 0.960 . S
C456 C457 1.391 . S
C456 C458 1.394 . S
C456 H472 0.931 . S
C457 C456 1.391 . S
C457 C461 1.376 . S
C458 C456 1.394 . S
C458 C459 1.369 . S
C458 C462 1.531 . S
C459 C458 1.369 . S
C459 C460 1.410 . S
C459 C467 1.503 . S
C460 C459 1.410 . S
C460 C461 1.392 . S
C460 C463 1.511 . S
C461 C457 1.376 . S
C461 C460 1.392 . S
C461 H473 0.929 . S
C462 C458 1.531 . S
C462 H474 0.960 . S
C462 H475 0.962 . S
C462 H476 0.960 . S
C463 C460 1.511 . S
C463 H477 0.961 1_565 S
C463 H478 0.961 . S
C463 H479 0.961 . S
C464 C465 1.370 . S
C464 C466 1.363 . S
C464 H480 0.931 . S
C465 C464 1.370 . S
C465 C469 1.408 . S
C466 C464 1.363 . S
C466 C467 1.370 . S
C466 C470 1.524 . S
C467 C459 1.503 . S
C467 C466 1.370 . S
C467 C468 1.403 . S
C468 C467 1.403 . S
C468 C469 1.404 . S
C468 C471 1.539 . S
C469 C465 1.408 . S
C469 C468 1.404 . S
C469 H481 0.930 . S
C470 C466 1.524 . S
C470 H482 0.956 . S
C470 H483 0.961 . S
C470 H484 0.961 . S
C471 C468 1.539 . S
C471 H485 0.958 . S
C471 H486 0.961 . S
C471 H487 0.960 . S
H472 C456 0.931 . S
H473 C461 0.929 . S
H474 C462 0.960 . S
H475 C462 0.962 . S
H476 C462 0.960 . S
H477 C463 0.961 1_545 S
H478 C463 0.961 . S
H479 C463 0.961 . S
H480 C464 0.931 . S
H481 C469 0.930 . S
H482 C470 0.956 . S
H483 C470 0.961 . S
H484 C470 0.961 . S
H485 C471 0.958 . S
H486 C471 0.961 . S
H487 C471 0.960 . S
C488 C489 1.391 . S
C488 C490 1.394 . S
C488 H504 0.931 1_565 S
C489 C488 1.391 . S
C489 C493 1.376 . S
C490 C488 1.394 . S
C490 C491 1.369 . S
C490 C494 1.531 . S
C491 C490 1.369 . S
C491 C492 1.410 . S
C491 C499 1.503 . S
C492 C491 1.410 . S
C492 C493 1.392 . S
C492 C495 1.511 . S
C493 C489 1.376 . S
C493 C492 1.392 . S
C493 H505 0.929 . S
C494 C490 1.531 . S
C494 H506 0.960 1_565 S
C494 H507 0.962 . S
C494 H508 0.960 1_565 S
C495 C492 1.511 . S
C495 H509 0.961 . S
C495 H510 0.961 . S
C495 H511 0.961 . S
C496 C497 1.370 . S
C496 C498 1.363 . S
C496 H512 0.931 . S
C497 C496 1.370 . S
C497 C501 1.408 . S
C498 C496 1.363 . S
C498 C499 1.370 . S
C498 C502 1.524 . S
C499 C491 1.503 . S
C499 C498 1.370 . S
C499 C500 1.403 . S
C500 C499 1.403 . S
C500 C501 1.404 . S
C500 C503 1.539 1_565 S
C501 C497 1.408 . S
C501 C500 1.404 . S
C501 H513 0.930 . S
C502 C498 1.524 . S
C502 H514 0.956 . S
C502 H515 0.961 . S
C502 H516 0.961 . S
C503 C500 1.539 1_545 S
C503 H517 0.958 . S
C503 H518 0.961 . S
C503 H519 0.960 . S
H504 C488 0.931 1_545 S
H505 C493 0.929 . S
H506 C494 0.960 1_545 S
H507 C494 0.962 . S
H508 C494 0.960 1_545 S
H509 C495 0.961 . S
H510 C495 0.961 . S
H511 C495 0.961 . S
H512 C496 0.931 . S
H513 C501 0.930 . S
H514 C502 0.956 . S
H515 C502 0.961 . S
H516 C502 0.961 . S
H517 C503 0.958 . S
H518 C503 0.961 . S
H519 C503 0.960 . S
C520 C521 1.391 . S
C520 C522 1.394 . S
C520 H536 0.931 . S
C521 C520 1.391 . S
C521 C525 1.376 . S
C522 C520 1.394 . S
C522 C523 1.369 . S
C522 C526 1.531 1_455 S
C523 C522 1.369 . S
C523 C524 1.410 . S
C523 C531 1.503 . S
C524 C523 1.410 . S
C524 C525 1.392 . S
C524 C527 1.511 . S
C525 C521 1.376 . S
C525 C524 1.392 . S
C525 H537 0.929 . S
C526 C522 1.531 1_655 S
C526 H538 0.960 . S
C526 H539 0.962 . S
C526 H540 0.960 . S
C527 C524 1.511 . S
C527 H541 0.961 . S
C527 H542 0.961 . S
C527 H543 0.961 . S
C528 C529 1.370 . S
C528 C530 1.363 . S
C528 H544 0.931 . S
C529 C528 1.370 . S
C529 C533 1.408 . S
C530 C528 1.363 . S
C530 C531 1.370 . S
C530 C534 1.524 . S
C531 C523 1.503 . S
C531 C530 1.370 . S
C531 C532 1.403 . S
C532 C531 1.403 . S
C532 C533 1.404 . S
C532 C535 1.539 . S
C533 C529 1.408 . S
C533 C532 1.404 . S
C533 H545 0.930 . S
C534 C530 1.524 . S
C534 H546 0.956 1_455 S
C534 H547 0.961 . S
C534 H548 0.961 . S
C535 C532 1.539 . S
C535 H549 0.958 . S
C535 H550 0.961 . S
C535 H551 0.960 . S
H536 C520 0.931 . S
H537 C525 0.929 . S
H538 C526 0.960 . S
H539 C526 0.962 . S
H540 C526 0.960 . S
H541 C527 0.961 . S
H542 C527 0.961 . S
H543 C527 0.961 . S
H544 C528 0.931 . S
H545 C533 0.930 . S
H546 C534 0.956 1_655 S
H547 C534 0.961 . S
H548 C534 0.961 . S
H549 C535 0.958 . S
H550 C535 0.961 . S
H551 C535 0.960 . S
C552 C553 1.391 . S
C552 C554 1.394 . S
C552 H568 0.931 . S
C553 C552 1.391 . S
C553 C557 1.376 . S
C554 C552 1.394 . S
C554 C555 1.369 . S
C554 C558 1.531 . S
C555 C554 1.369 . S
C555 C556 1.410 . S
C555 C563 1.503 1_556 S
C556 C555 1.410 . S
C556 C557 1.392 . S
C556 C559 1.511 . S
C557 C553 1.376 . S
C557 C556 1.392 . S
C557 H569 0.929 . S
C558 C554 1.531 . S
C558 H570 0.960 1_556 S
C558 H571 0.962 1_556 S
C558 H572 0.960 . S
C559 C556 1.511 . S
C559 H573 0.961 . S
C559 H574 0.937 1_556 S
C559 H575 0.961 . S
C560 C561 1.370 . S
C560 C562 1.363 . S
C560 H576 0.931 . S
C561 C560 1.370 . S
C561 C565 1.408 . S
C562 C560 1.363 . S
C562 C563 1.370 . S
C562 C566 1.524 . S
C563 C555 1.503 1_554 S
C563 C562 1.370 . S
C563 C564 1.403 . S
C564 C563 1.403 . S
C564 C565 1.404 . S
C564 C567 1.565 . S
C565 C561 1.408 . S
C565 C564 1.404 . S
C565 H577 0.930 . S
C566 C562 1.524 . S
C566 H578 0.956 . S
C566 H579 0.961 . S
C566 H580 0.961 . S
C567 C564 1.565 . S
C567 H581 0.953 1_554 S
C567 H582 0.974 . S
C567 H583 0.928 1_554 S
H568 C552 0.931 . S
H569 C557 0.929 . S
H570 C558 0.960 1_554 S
H571 C558 0.962 1_554 S
H572 C558 0.960 . S
H573 C559 0.961 . S
H574 C559 0.937 1_554 S
H575 C559 0.961 . S
H576 C560 0.931 . S
H577 C565 0.930 . S
H578 C566 0.956 . S
H579 C566 0.961 . S
H580 C566 0.961 . S
H581 C567 0.953 1_556 S
H582 C567 0.974 . S
H583 C567 0.928 1_556 S
C584 C585 1.391 . S
C584 C586 1.394 . S
C584 H600 0.931 1_655 S
C585 C584 1.391 . S
C585 C589 1.376 . S
C586 C584 1.394 . S
C586 C587 1.369 . S
C586 C590 1.531 1_655 S
C587 C586 1.369 . S
C587 C588 1.410 . S
C587 C595 1.503 . S
C588 C587 1.410 . S
C588 C589 1.392 . S
C588 C591 1.511 . S
C589 C585 1.376 . S
C589 C588 1.392 . S
C589 H601 0.929 . S
C590 C586 1.531 1_455 S
C590 H602 0.960 1_455 S
C590 H603 0.962 . S
C590 H604 0.960 . S
C591 C588 1.511 . S
C591 H605 0.961 . S
C591 H606 0.961 . S
C591 H607 0.961 . S
C592 C593 1.370 . S
C592 C594 1.363 . S
C592 H608 0.931 . S
C593 C592 1.370 . S
C593 C597 1.408 . S
C594 C592 1.363 . S
C594 C595 1.370 . S
C594 C598 1.524 . S
C595 C587 1.503 . S
C595 C594 1.370 . S
C595 C596 1.403 . S
C596 C595 1.403 . S
C596 C597 1.404 . S
C596 C599 1.539 . S
C597 C593 1.408 . S
C597 C596 1.404 . S
C597 H609 0.930 . S
C598 C594 1.524 . S
C598 H610 0.956 1_655 S
C598 H611 0.961 . S
C598 H612 0.964 . S
C599 C596 1.539 . S
C599 H613 0.958 . S
C599 H614 0.961 . S
C599 H615 0.960 . S
H600 C584 0.931 1_455 S
H601 C589 0.929 . S
H602 C590 0.960 1_655 S
H603 C590 0.962 . S
H604 C590 0.960 . S
H605 C591 0.961 . S
H606 C591 0.961 . S
H607 C591 0.961 . S
H608 C592 0.931 . S
H609 C597 0.930 . S
H610 C598 0.956 1_455 S
H611 C598 0.961 . S
H612 C598 0.964 . S
H613 C599 0.958 . S
H614 C599 0.961 . S
H615 C599 0.960 . S
C616 C617 1.391 . S
C616 C618 1.394 . S
C616 H632 0.931 . S
C617 C616 1.391 . S
C617 C621 1.376 . S
C618 C616 1.394 . S
C618 C619 1.369 . S
C618 C622 1.531 . S
C619 C618 1.369 . S
C619 C620 1.410 . S
C619 C627 1.503 . S
C620 C619 1.410 . S
C620 C621 1.392 . S
C620 C623 1.511 . S
C621 C617 1.376 . S
C621 C620 1.392 . S
C621 H633 0.929 . S
C622 C618 1.531 . S
C622 H634 0.960 . S
C622 H635 0.962 . S
C622 H636 0.960 . S
C623 C620 1.511 . S
C623 H637 0.961 . S
C623 H638 0.961 . S
C623 H639 0.961 . S
C624 C625 1.370 . S
C624 C626 1.363 . S
C624 H640 0.931 . S
C625 C624 1.370 . S
C625 C629 1.408 . S
C626 C624 1.363 . S
C626 C627 1.370 . S
C626 C630 1.524 . S
C627 C619 1.503 . S
C627 C626 1.370 . S
C627 C628 1.403 . S
C628 C627 1.403 . S
C628 C629 1.404 . S
C628 C631 1.539 . S
C629 C625 1.408 . S
C629 C628 1.404 . S
C629 H641 0.930 . S
C630 C626 1.524 . S
C630 H642 0.956 . S
C630 H643 0.961 . S
C630 H644 0.961 . S
C631 C628 1.539 . S
C631 H645 0.958 . S
C631 H646 0.961 . S
C631 H647 0.960 . S
H632 C616 0.931 . S
H633 C621 0.929 . S
H634 C622 0.960 . S
H635 C622 0.962 . S
H636 C622 0.960 . S
H637 C623 0.961 . S
H638 C623 0.961 . S
H639 C623 0.961 . S
H640 C624 0.931 . S
H641 C629 0.930 . S
H642 C630 0.956 . S
H643 C630 0.961 . S
H644 C630 0.961 . S
H645 C631 0.958 . S
H646 C631 0.961 . S
H647 C631 0.960 . S
C648 C649 1.391 . S
C648 C650 1.394 . S
C648 H664 0.931 . S
C649 C648 1.391 . S
C649 C653 1.376 . S
C650 C648 1.394 . S
C650 C651 1.369 . S
C650 C654 1.531 . S
C651 C650 1.369 . S
C651 C652 1.410 . S
C651 C659 1.503 . S
C652 C651 1.410 . S
C652 C653 1.392 . S
C652 C655 1.511 . S
C653 C649 1.376 . S
C653 C652 1.392 . S
C653 H665 0.929 . S
C654 C650 1.531 . S
C654 H666 0.960 . S
C654 H667 0.962 . S
C654 H668 0.960 . S
C655 C652 1.511 . S
C655 H669 0.961 . S
C655 H670 0.961 . S
C655 H671 0.961 . S
C656 C657 1.370 1_565 S
C656 C658 1.363 . S
C656 H672 0.931 . S
C657 C656 1.370 1_545 S
C657 C661 1.408 . S
C658 C656 1.363 . S
C658 C659 1.370 . S
C658 C662 1.524 . S
C659 C651 1.503 . S
C659 C658 1.370 . S
C659 C660 1.403 . S
C660 C659 1.403 . S
C660 C661 1.404 1_565 S
C660 C663 1.539 . S
C661 C657 1.408 . S
C661 C660 1.404 1_545 S
C661 H673 0.930 . S
C662 C658 1.524 . S
C662 H674 0.956 . S
C662 H675 0.961 . S
C662 H676 0.961 . S
C663 C660 1.539 . S
C663 H677 0.958 . S
C663 H678 0.961 . S
C663 H679 0.960 . S
H664 C648 0.931 . S
H665 C653 0.929 . S
H666 C654 0.960 . S
H667 C654 0.962 . S
H668 C654 0.960 . S
H669 C655 0.961 . S
H670 C655 0.961 . S
H671 C655 0.961 . S
H672 C656 0.931 . S
H673 C661 0.930 . S
H674 C662 0.956 . S
H675 C662 0.961 . S
H676 C662 0.961 . S
H677 C663 0.958 . S
H678 C663 0.961 . S
H679 C663 0.960 . S
C680 C681 1.391 . S
C680 C682 1.394 . S
C680 H696 0.931 . S
C681 C680 1.391 . S
C681 C685 1.376 . S
C682 C680 1.394 . S
C682 C683 1.369 . S
C682 C686 1.531 . S
C683 C682 1.369 . S
C683 C684 1.410 . S
C683 C691 1.503 . S
C684 C683 1.410 . S
C684 C685 1.392 . S
C684 C687 1.511 . S
C685 C681 1.376 . S
C685 C684 1.392 . S
C685 H697 0.929 . S
C686 C682 1.531 . S
C686 H698 0.960 . S
C686 H699 0.962 . S
C686 H700 0.960 . S
C687 C684 1.511 . S
C687 H701 0.961 . S
C687 H702 0.961 . S
C687 H703 0.961 . S
C688 C689 1.370 . S
C688 C690 1.363 . S
C688 H704 0.931 . S
C689 C688 1.370 . S
C689 C693 1.408 . S
C690 C688 1.363 . S
C690 C691 1.370 . S
C690 C694 1.524 . S
C691 C683 1.503 . S
C691 C690 1.370 . S
C691 C692 1.403 . S
C692 C691 1.403 . S
C692 C693 1.404 . S
C692 C695 1.539 . S
C693 C689 1.408 . S
C693 C692 1.404 . S
C693 H705 0.930 . S
C694 C690 1.524 . S
C694 H706 0.956 . S
C694 H707 0.961 . S
C694 H708 0.961 . S
C695 C692 1.539 . S
C695 H709 0.958 . S
C695 H710 0.961 . S
C695 H711 0.960 . S
H696 C680 0.931 . S
H697 C685 0.929 . S
H698 C686 0.960 . S
H699 C686 0.962 . S
H700 C686 0.960 . S
H701 C687 0.961 . S
H702 C687 0.961 . S
H703 C687 0.961 . S
H704 C688 0.931 . S
H705 C693 0.930 . S
H706 C694 0.956 . S
H707 C694 0.961 . S
H708 C694 0.961 . S
H709 C695 0.958 . S
H710 C695 0.961 . S
H711 C695 0.960 . S
C712 C713 1.391 1_545 S
C712 C714 1.394 . S
C712 H728 0.931 . S
C713 C712 1.391 1_565 S
C713 C717 1.376 . S
C714 C712 1.394 . S
C714 C715 1.369 . S
C714 C718 1.531 . S
C715 C714 1.369 . S
C715 C716 1.410 . S
C715 C723 1.503 . S
C716 C715 1.410 . S
C716 C717 1.392 1_545 S
C716 C719 1.511 . S
C717 C713 1.376 . S
C717 C716 1.392 1_565 S
C717 H729 0.929 . S
C718 C714 1.531 . S
C718 H730 0.960 . S
C718 H731 0.962 . S
C718 H732 0.960 . S
C719 C716 1.511 . S
C719 H733 0.961 . S
C719 H734 0.961 . S
C719 H735 0.961 . S
C720 C721 1.370 . S
C720 C722 1.363 . S
C720 H736 0.931 . S
C721 C720 1.370 . S
C721 C725 1.408 . S
C722 C720 1.363 . S
C722 C723 1.370 . S
C722 C726 1.524 . S
C723 C715 1.503 . S
C723 C722 1.370 . S
C723 C724 1.403 . S
C724 C723 1.403 . S
C724 C725 1.404 . S
C724 C727 1.539 . S
C725 C721 1.408 . S
C725 C724 1.404 . S
C725 H737 0.930 . S
C726 C722 1.524 . S
C726 H738 0.956 . S
C726 H739 0.961 . S
C726 H740 0.961 . S
C727 C724 1.539 . S
C727 H741 0.958 . S
C727 H742 0.961 . S
C727 H743 0.960 . S
H728 C712 0.931 . S
H729 C717 0.929 . S
H730 C718 0.960 . S
H731 C718 0.962 . S
H732 C718 0.960 . S
H733 C719 0.961 . S
H734 C719 0.961 . S
H735 C719 0.961 . S
H736 C720 0.931 . S
H737 C725 0.930 . S
H738 C726 0.956 . S
H739 C726 0.961 . S
H740 C726 0.961 . S
H741 C727 0.958 . S
H742 C727 0.961 . S
H743 C727 0.960 . S
C744 C745 1.391 . S
C744 C746 1.394 . S
C744 H760 0.931 . S
C745 C744 1.391 . S
C745 C749 1.376 . S
C746 C744 1.394 . S
C746 C747 1.369 . S
C746 C750 1.531 . S
C747 C746 1.369 . S
C747 C748 1.410 . S
C747 C755 1.503 . S
C748 C747 1.410 . S
C748 C749 1.392 . S
C748 C751 1.511 . S
C749 C745 1.376 . S
C749 C748 1.392 . S
C749 H761 0.929 . S
C750 C746 1.531 . S
C750 H762 0.960 . S
C750 H763 0.962 . S
C750 H764 0.960 . S
C751 C748 1.511 . S
C751 H765 0.961 . S
C751 H766 0.961 . S
C751 H767 0.961 . S
C752 C753 1.370 . S
C752 C754 1.363 . S
C752 H768 0.931 . S
C753 C752 1.370 . S
C753 C757 1.408 . S
C754 C752 1.363 . S
C754 C755 1.370 . S
C754 C758 1.524 . S
C755 C747 1.503 . S
C755 C754 1.370 . S
C755 C756 1.403 . S
C756 C755 1.403 . S
C756 C757 1.404 . S
C756 C759 1.539 . S
C757 C753 1.408 . S
C757 C756 1.404 . S
C757 H769 0.930 . S
C758 C754 1.524 . S
C758 H770 0.956 . S
C758 H771 0.961 . S
C758 H772 0.961 . S
C759 C756 1.539 . S
C759 H773 0.958 . S
C759 H774 0.961 . S
C759 H775 0.960 . S
H760 C744 0.931 . S
H761 C749 0.929 . S
H762 C750 0.960 . S
H763 C750 0.962 . S
H764 C750 0.960 . S
H765 C751 0.961 . S
H766 C751 0.961 . S
H767 C751 0.961 . S
H768 C752 0.931 . S
H769 C757 0.930 . S
H770 C758 0.956 . S
H771 C758 0.961 . S
H772 C758 0.961 . S
H773 C759 0.958 . S
H774 C759 0.961 . S
H775 C759 0.960 . S
C776 C777 1.391 . S
C776 C778 1.394 . S
C776 H792 0.931 . S
C777 C776 1.391 . S
C777 C781 1.376 . S
C778 C776 1.394 . S
C778 C779 1.369 . S
C778 C782 1.531 . S
C779 C778 1.369 . S
C779 C780 1.410 . S
C779 C787 1.503 . S
C780 C779 1.410 . S
C780 C781 1.392 . S
C780 C783 1.511 . S
C781 C777 1.376 . S
C781 C780 1.392 . S
C781 H793 0.929 . S
C782 C778 1.531 . S
C782 H794 0.960 . S
C782 H795 0.962 . S
C782 H796 0.960 . S
C783 C780 1.511 . S
C783 H797 0.961 . S
C783 H798 0.961 . S
C783 H799 0.961 . S
C784 C785 1.370 . S
C784 C786 1.363 . S
C784 H800 0.931 . S
C785 C784 1.370 . S
C785 C789 1.408 . S
C786 C784 1.363 . S
C786 C787 1.370 . S
C786 C790 1.524 . S
C787 C779 1.503 . S
C787 C786 1.370 . S
C787 C788 1.403 . S
C788 C787 1.403 . S
C788 C789 1.404 . S
C788 C791 1.539 . S
C789 C785 1.408 . S
C789 C788 1.404 . S
C789 H801 0.930 . S
C790 C786 1.524 . S
C790 H802 0.956 . S
C790 H803 0.961 . S
C790 H804 0.961 . S
C791 C788 1.539 . S
C791 H805 0.958 . S
C791 H806 0.961 . S
C791 H807 0.960 . S
H792 C776 0.931 . S
H793 C781 0.929 . S
H794 C782 0.960 . S
H795 C782 0.962 . S
H796 C782 0.960 . S
H797 C783 0.961 . S
H798 C783 0.961 . S
H799 C783 0.961 . S
H800 C784 0.931 . S
H801 C789 0.930 . S
H802 C790 0.956 . S
H803 C790 0.961 . S
H804 C790 0.961 . S
H805 C791 0.958 . S
H806 C791 0.961 . S
H807 C791 0.960 . S
C808 C809 1.391 . S
C808 C810 1.394 . S
C808 H824 0.931 . S
C809 C808 1.391 . S
C809 C813 1.376 . S
C810 C808 1.394 . S
C810 C811 1.369 . S
C810 C814 1.531 . S
C811 C810 1.369 . S
C811 C812 1.410 . S
C811 C819 1.503 . S
C812 C811 1.410 . S
C812 C813 1.392 . S
C812 C815 1.511 . S
C813 C809 1.376 . S
C813 C812 1.392 . S
C813 H825 0.929 . S
C814 C810 1.531 . S
C814 H826 0.960 . S
C814 H827 0.962 . S
C814 H828 0.960 . S
C815 C812 1.511 . S
C815 H829 0.961 . S
C815 H830 0.961 . S
C815 H831 0.961 . S
C816 C817 1.370 1_655 S
C816 C818 1.363 . S
C816 H832 0.931 1_655 S
C817 C816 1.370 1_455 S
C817 C821 1.408 1_455 S
C818 C816 1.363 . S
C818 C819 1.370 . S
C818 C822 1.524 . S
C819 C811 1.503 . S
C819 C818 1.370 . S
C819 C820 1.403 . S
C820 C819 1.403 . S
C820 C821 1.404 . S
C820 C823 1.539 . S
C821 C817 1.408 1_655 S
C821 C820 1.404 . S
C821 H833 0.930 . S
C822 C818 1.524 . S
C822 H834 0.956 . S
C822 H835 0.961 . S
C822 H836 0.961 . S
C823 C820 1.539 . S
C823 H837 0.958 . S
C823 H838 0.961 . S
C823 H839 0.960 . S
H824 C808 0.931 . S
H825 C813 0.929 . S
H826 C814 0.960 . S
H827 C814 0.962 . S
H828 C814 0.960 . S
H829 C815 0.961 . S
H830 C815 0.961 . S
H831 C815 0.961 . S
H832 C816 0.931 1_455 S
H833 C821 0.930 . S
H834 C822 0.956 . S
H835 C822 0.961 . S
H836 C822 0.961 . S
H837 C823 0.958 . S
H838 C823 0.961 . S
H839 C823 0.960 . S
C840 C841 1.391 . S
C840 C842 1.394 . S
C840 H856 0.931 . S
C841 C840 1.391 . S
C841 C845 1.376 . S
C842 C840 1.394 . S
C842 C843 1.369 . S
C842 C846 1.531 . S
C843 C842 1.369 . S
C843 C844 1.410 . S
C843 C851 1.503 . S
C844 C843 1.410 . S
C844 C845 1.392 . S
C844 C847 1.511 . S
C845 C841 1.376 . S
C845 C844 1.392 . S
C845 H857 0.929 . S
C846 C842 1.531 . S
C846 H858 0.960 . S
C846 H859 0.962 . S
C846 H860 0.960 . S
C847 C844 1.511 . S
C847 H861 0.961 . S
C847 H862 0.961 . S
C847 H863 0.961 . S
C848 C849 1.370 . S
C848 C850 1.363 . S
C848 H864 0.931 . S
C849 C848 1.370 . S
C849 C853 1.408 . S
C850 C848 1.363 . S
C850 C851 1.370 . S
C850 C854 1.524 . S
C851 C843 1.503 . S
C851 C850 1.370 . S
C851 C852 1.403 . S
C852 C851 1.403 . S
C852 C853 1.404 . S
C852 C855 1.539 . S
C853 C849 1.408 . S
C853 C852 1.404 . S
C853 H865 0.930 . S
C854 C850 1.524 . S
C854 H866 0.956 . S
C854 H867 0.961 . S
C854 H868 0.961 . S
C855 C852 1.539 . S
C855 H869 0.958 . S
C855 H870 0.961 . S
C855 H871 0.960 . S
H856 C840 0.931 . S
H857 C845 0.929 . S
H858 C846 0.960 . S
H859 C846 0.962 . S
H860 C846 0.960 . S
H861 C847 0.961 . S
H862 C847 0.961 . S
H863 C847 0.961 . S
H864 C848 0.931 . S
H865 C853 0.930 . S
H866 C854 0.956 . S
H867 C854 0.961 . S
H868 C854 0.961 . S
H869 C855 0.958 . S
H870 C855 0.961 . S
H871 C855 0.960 . S
C872 C873 1.391 . S
C872 C874 1.394 . S
C872 H888 0.931 . S
C873 C872 1.391 . S
C873 C877 1.376 . S
C874 C872 1.394 . S
C874 C875 1.369 . S
C874 C878 1.531 . S
C875 C874 1.369 . S
C875 C876 1.410 . S
C875 C883 1.503 . S
C876 C875 1.410 . S
C876 C877 1.392 . S
C876 C879 1.511 . S
C877 C873 1.376 . S
C877 C876 1.392 . S
C877 H889 0.929 . S
C878 C874 1.531 . S
C878 H890 0.960 . S
C878 H891 0.962 . S
C878 H892 0.960 . S
C879 C876 1.511 . S
C879 H893 0.961 . S
C879 H894 0.961 . S
C879 H895 0.961 . S
C880 C881 1.370 1_455 S
C880 C882 1.363 . S
C880 H896 0.931 . S
C881 C880 1.370 1_655 S
C881 C885 1.408 1_655 S
C882 C880 1.363 . S
C882 C883 1.370 . S
C882 C886 1.524 . S
C883 C875 1.503 . S
C883 C882 1.370 . S
C883 C884 1.403 . S
C884 C883 1.403 . S
C884 C885 1.404 . S
C884 C887 1.539 . S
C885 C881 1.408 1_455 S
C885 C884 1.404 . S
C885 H897 0.930 1_455 S
C886 C882 1.524 . S
C886 H898 0.956 . S
C886 H899 0.961 . S
C886 H900 0.961 . S
C887 C884 1.539 . S
C887 H901 0.958 . S
C887 H902 0.961 . S
C887 H903 0.960 . S
H888 C872 0.931 . S
H889 C877 0.929 . S
H890 C878 0.960 . S
H891 C878 0.962 . S
H892 C878 0.960 . S
H893 C879 0.961 . S
H894 C879 0.961 . S
H895 C879 0.961 . S
H896 C880 0.931 . S
H897 C885 0.930 1_655 S
H898 C886 0.956 . S
H899 C886 0.961 . S
H900 C886 0.961 . S
H901 C887 0.958 . S
H902 C887 0.961 . S
H903 C887 0.960 . S
C265 N2 0.260 . S
C273 N167 0.305 . S
C297 N200 0.318 . S
C305 N35 0.305 . S
C329 N233 0.372 . S
C337 N68 0.321 . S
C361 N134 0.433 . S
C369 N101 0.378 . S
C393 N112 1.266 . S
C401 C21 1.239 . S
C425 C54 1.264 . S
C433 N13 1.251 . S
C457 N46 1.269 . S
C465 C87 1.211 . S
C489 C120 1.183 . S
C497 N79 1.258 . S
C521 N178 1.260 . S
C529 C153 1.242 . S
C553 C186 1.266 . S
C561 N211 1.250 . S
C585 C219 1.270 . S
C593 N244 1.230 . S
C617 C252 1.283 . S
C625 N145 1.234 . S
C649 C205 1.805 . S
C657 C18 1.849 . S
C681 C238 1.807 . S
C689 C51 1.847 . S
C713 C84 1.850 . S
C721 C139 1.780 . S
C745 C117 1.849 . S
C753 C172 1.778 . S
C777 C150 1.837 . S
C785 C73 1.787 . S
C809 C106 1.758 . S
C817 C183 1.847 . S
C841 C216 1.838 . S
C849 C7 1.782 . S
C873 C40 1.807 . S
C881 C249 1.847 . S
