# Generated by pormake.
# Topology unh, (4)-cn, num edge types: 1
# Building blocks:
#     Node 0, Type 0, BuildingBlock: NAWXER_clean_sbu_0, # of connection points: 4
#     Node 1, Type 0, BuildingBlock: NAWXER_clean_sbu_0, # of connection points: 4
#     Node 2, Type 0, BuildingBlock: NAWXER_clean_sbu_0, # of connection points: 4
#     Node 3, Type 0, BuildingBlock: NAWXER_clean_sbu_0, # of connection points: 4
#     Node 4, Type 0, BuildingBlock: NAWXER_clean_sbu_0, # of connection points: 4
#     Node 5, Type 0, BuildingBlock: NAWXER_clean_sbu_0, # of connection points: 4
#     Edge 6, Type (0, 0), BuildingBlock: TEMPAE_clean_linker_10, # of connection points: 2
#     Edge 7, Type (0, 0), BuildingBlock: TEMPAE_clean_linker_10, # of connection points: 2
#     Edge 8, Type (0, 0), BuildingBlock: TEMPAE_clean_linker_10, # of connection points: 2
#     Edge 9, Type (0, 0), BuildingBlock: TEMPAE_clean_linker_10, # of connection points: 2
#     Edge 10, Type (0, 0), BuildingBlock: TEMPAE_clean_linker_10, # of connection points: 2
#     Edge 11, Type (0, 0), BuildingBlock: TEMPAE_clean_linker_10, # of connection points: 2
#     Edge 12, Type (0, 0), BuildingBlock: TEMPAE_clean_linker_10, # of connection points: 2
#     Edge 13, Type (0, 0), BuildingBlock: TEMPAE_clean_linker_10, # of connection points: 2
#     Edge 14, Type (0, 0), BuildingBlock: TEMPAE_clean_linker_10, # of connection points: 2
#     Edge 15, Type (0, 0), BuildingBlock: TEMPAE_clean_linker_10, # of connection points: 2
#     Edge 16, Type (0, 0), BuildingBlock: TEMPAE_clean_linker_10, # of connection points: 2
#     Edge 17, Type (0, 0), BuildingBlock: TEMPAE_clean_linker_10, # of connection points: 2
# Relax obj value: 0.020
# Max RMSD: 0.247
# Mean RMSD: 0.247
data_MOF--net-unh--node1-NAWXER_clean_sbu_0--edge1-TEMPAE_clean_linker_10
_symmetry_space_group_name_H-M    P1
_symmetry_Int_Tables_number       1
_symmetry_cell_setting            triclinic
loop_
_symmetry_equiv_pos_as_xyz
'x, y, z'
_cell_length_a     45.58325
_cell_length_b     45.592303
_cell_length_c     21.688277
_cell_angle_alpha  89.987233
_cell_angle_beta   89.997727
_cell_angle_gamma 120.01497
loop_
_atom_site_label
_atom_site_type_symbol
_atom_site_fract_x
_atom_site_fract_y
_atom_site_fract_z
_atom_type_partial_charge
C0 C 0.09838 0.55446 0.1797 0.0
C1 C 0.18581 0.6311 0.03843 0.0
O2 O 0.11367 0.58651 0.1765 0.0
Zn3 Zn 0.14169 0.59179 0.10745 0.0
O4 O 0.10578 0.53775 0.14109 0.0
Zn5 Zn 0.14172 0.55091 0.06529 0.0
O6 O 0.1707 0.53424 0.0919 0.0
O7 O 0.1774 0.57823 0.14543 0.0
O8 O 0.17751 0.60021 0.02753 0.0
O9 O 0.17072 0.63747 0.08096 0.0
O10 O 0.10589 0.56909 0.03146 0.0
O11 O 0.11384 0.52825 0.99606 0.0
C12 C 0.18571 0.55565 0.13453 0.0
C13 C 0.09856 0.54502 0.99279 0.0
C14 C 0.5572 0.18353 0.20557 0.0
C15 C 0.54659 0.09628 0.34708 0.0
O16 O 0.53572 0.16841 0.24807 0.0
Zn17 Zn 0.55246 0.13947 0.27464 0.0
O18 O 0.57985 0.17531 0.19472 0.0
Zn19 Zn 0.59346 0.13964 0.23261 0.0
O20 O 0.58836 0.11174 0.16349 0.0
O21 O 0.53949 0.10368 0.19871 0.0
O22 O 0.57079 0.1038 0.30859 0.0
O23 O 0.52967 0.1114 0.34362 0.0
O24 O 0.6017 0.17527 0.31272 0.0
O25 O 0.63909 0.16872 0.25917 0.0
C26 C 0.5563 0.09639 0.16014 0.0
C27 C 0.63263 0.18367 0.30181 0.0
C28 C 0.46229 0.55411 0.32617 0.0
C29 C 0.45188 0.63057 0.46831 0.0
O30 O 0.47914 0.58615 0.32956 0.0
Zn31 Zn 0.45646 0.59134 0.39881 0.0
O32 O 0.43817 0.53736 0.36477 0.0
Zn33 Zn 0.41549 0.55043 0.44081 0.0
O34 O 0.36984 0.53392 0.41429 0.0
O35 O 0.40721 0.57801 0.36101 0.0
O36 O 0.4292 0.59968 0.47907 0.0
O37 O 0.47328 0.63698 0.42564 0.0
O38 O 0.46947 0.56841 0.47454 0.0
O39 O 0.42063 0.52751 0.50973 0.0
C40 C 0.37629 0.55545 0.37185 0.0
C41 C 0.45269 0.54424 0.51303 0.0
C42 C 0.82364 0.44991 0.63476 0.0
C43 C 0.91073 0.46057 0.49281 0.0
O44 O 0.83863 0.47133 0.59211 0.0
Zn45 Zn 0.86758 0.45465 0.56542 0.0
O46 O 0.83195 0.42732 0.6456 0.0
Zn47 Zn 0.86763 0.41377 0.60749 0.0
O48 O 0.89568 0.41901 0.67646 0.0
O49 O 0.90352 0.46778 0.64119 0.0
O50 O 0.90339 0.43648 0.53144 0.0
O51 O 0.89547 0.47735 0.49616 0.0
O52 O 0.83174 0.40536 0.52772 0.0
O53 O 0.83859 0.3681 0.58104 0.0
C54 C 0.91095 0.45106 0.67973 0.0
C55 C 0.82345 0.37447 0.53861 0.0
C56 C 0.37704 0.82163 0.80169 0.0
C57 C 0.45387 0.90871 0.66017 0.0
O58 O 0.37074 0.83665 0.75892 0.0
Zn59 Zn 0.41645 0.86554 0.73251 0.0
O60 O 0.40791 0.82989 0.81277 0.0
Zn61 Zn 0.45727 0.86552 0.77494 0.0
O62 O 0.47995 0.89349 0.84405 0.0
O63 O 0.43916 0.90144 0.80836 0.0
O64 O 0.47055 0.90139 0.69901 0.0
O65 O 0.42181 0.89341 0.66318 0.0
O66 O 0.42992 0.82972 0.69497 0.0
O67 O 0.47388 0.83642 0.74862 0.0
C68 C 0.46321 0.90881 0.84711 0.0
C69 C 0.45246 0.82137 0.70602 0.0
C70 C 0.54665 0.45066 0.82627 0.0
C71 C 0.55727 0.37421 0.96816 0.0
O72 O 0.52989 0.41861 0.82956 0.0
Zn73 Zn 0.55257 0.41344 0.89882 0.0
O74 O 0.57072 0.46743 0.86493 0.0
Zn75 Zn 0.59344 0.45436 0.94095 0.0
O76 O 0.63913 0.47105 0.91448 0.0
O77 O 0.60188 0.42697 0.86108 0.0
O78 O 0.57987 0.40511 0.97902 0.0
O79 O 0.53586 0.3678 0.92551 0.0
O80 O 0.5394 0.43623 0.97457 0.0
O81 O 0.58818 0.47713 0.00995 0.0
C82 C 0.63277 0.44959 0.87198 0.0
C83 C 0.55612 0.46036 0.01315 0.0
C84 C 0.07225 0.51876 0.89199 0.0
C85 C 0.07222 0.53626 0.94512 0.0
C86 C 0.04647 0.50826 0.84783 0.0
C87 C 0.01957 0.51481 0.85755 0.0
C88 C 0.0198 0.53322 0.91035 0.0
C89 C 0.04635 0.54404 0.9533 0.0
C90 C 0.04752 0.48922 0.79165 0.0
C91 C 0.9913 0.54024 0.92277 0.0
C92 C 0.96296 0.50245 0.71941 0.0
C93 C 0.93736 0.46865 0.72729 0.0
C94 C 0.98954 0.51826 0.7623 0.0
C95 C 0.99008 0.49998 0.81472 0.0
C96 C 0.96346 0.46634 0.82412 0.0
C97 C 0.93764 0.45101 0.78004 0.0
C98 C 0.01772 0.55398 0.75023 0.0
C99 C 0.96275 0.44614 0.87989 0.0
H100 H 0.09241 0.51302 0.88507 0.0
H101 H 0.04619 0.55748 0.9944 0.0
H102 H 0.02624 0.4627 0.79342 0.0
H103 H 0.04436 0.50089 0.74911 0.0
H104 H 0.07162 0.4888 0.78825 0.0
H105 H 0.99646 0.55698 0.96338 0.0
H106 H 0.98693 0.55224 0.882 0.0
H107 H 0.96753 0.516 0.93126 0.0
H108 H 0.96289 0.51616 0.67861 0.0
H109 H 0.91771 0.42499 0.78675 0.0
H110 H 0.04168 0.55392 0.74154 0.0
H111 H 0.02188 0.57013 0.79125 0.0
H112 H 0.01235 0.56557 0.70986 0.0
H113 H 0.9843 0.44132 0.87779 0.0
H114 H 0.93886 0.42139 0.88303 0.0
H115 H 0.96569 0.46069 0.9227 0.0
C116 C 0.48982 0.93549 0.94751 0.0
C117 C 0.47195 0.9352 0.89466 0.0
C118 C 0.50022 0.96129 0.99159 0.0
C119 C 0.49318 0.98788 0.9821 0.0
C120 C 0.47443 0.98733 0.92957 0.0
C121 C 0.46374 0.96078 0.88667 0.0
C122 C 0.51965 0.9606 0.04747 0.0
C123 C 0.46687 0.01549 0.91741 0.0
C124 C 0.50515 0.04413 0.12057 0.0
C125 C 0.53881 0.07004 0.11248 0.0
C126 C 0.4895 0.01757 0.07763 0.0
C127 C 0.50777 0.01736 0.02493 0.0
C128 C 0.54124 0.04429 0.01531 0.0
C129 C 0.55643 0.07008 0.05946 0.0
C130 C 0.45397 0.98905 0.08994 0.0
C131 C 0.56142 0.04536 0.95924 0.0
H132 H 0.4959 0.91557 0.95429 0.0
H133 H 0.45002 0.9607 0.8458 0.0
H134 H 0.54602 0.98215 0.04546 0.0
H135 H 0.50797 0.96351 0.0902 0.0
H136 H 0.52053 0.93673 0.05066 0.0
H137 H 0.44999 0.01012 0.87695 0.0
H138 H 0.4548 0.01961 0.95835 0.0
H139 H 0.49091 0.03946 0.90882 0.0
H140 H 0.49147 0.04395 0.16158 0.0
H141 H 0.58233 0.09026 0.05261 0.0
H142 H 0.45445 0.96529 0.0985 0.0
H143 H 0.43764 0.98465 0.04909 0.0
H144 H 0.44232 0.99418 0.13048 0.0
H145 H 0.56667 0.0241 0.9611 0.0
H146 H 0.58595 0.06947 0.95592 0.0
H147 H 0.54665 0.04219 0.91663 0.0
C148 C 0.46301 0.5028 0.28643 0.0
C149 C 0.47103 0.53654 0.27846 0.0
C150 C 0.47379 0.48705 0.24346 0.0
C151 C 0.49243 0.50531 0.19086 0.0
C152 C 0.49923 0.53887 0.18136 0.0
C153 C 0.48875 0.55415 0.22553 0.0
C154 C 0.4665 0.45143 0.25565 0.0
C155 C 0.51852 0.55904 0.1254 0.0
C156 C 0.55608 0.4869 0.11362 0.0
C157 C 0.53851 0.46916 0.06068 0.0
C158 C 0.54075 0.4974 0.15767 0.0
C159 C 0.50721 0.4906 0.14805 0.0
C160 C 0.489 0.47198 0.09542 0.0
C161 C 0.50479 0.46118 0.05256 0.0
C162 C 0.56087 0.51667 0.21367 0.0
C163 C 0.45338 0.4647 0.0831 0.0
H164 H 0.44939 0.48912 0.32737 0.0
H165 H 0.49469 0.58012 0.21877 0.0
H166 H 0.45453 0.43519 0.21472 0.0
H167 H 0.49063 0.4517 0.26428 0.0
H168 H 0.44962 0.43981 0.2961 0.0
H169 H 0.51914 0.58366 0.12214 0.0
H170 H 0.54498 0.56411 0.12736 0.0
H171 H 0.50691 0.54436 0.08271 0.0
H172 H 0.58203 0.4928 0.12049 0.0
H173 H 0.49115 0.44756 0.01161 0.0
H174 H 0.54617 0.50501 0.25632 0.0
H175 H 0.56589 0.54311 0.21173 0.0
H176 H 0.58553 0.51734 0.21696 0.0
H177 H 0.43708 0.45267 0.12396 0.0
H178 H 0.44183 0.44788 0.04258 0.0
H179 H 0.45366 0.48883 0.07453 0.0
C180 C 0.93724 0.48718 0.39228 0.0
C181 C 0.93706 0.46935 0.4451 0.0
C182 C 0.96302 0.49768 0.34811 0.0
C183 C 0.98972 0.49078 0.35748 0.0
C184 C 0.98928 0.47204 0.40996 0.0
C185 C 0.96273 0.46125 0.45294 0.0
C186 C 0.9622 0.51708 0.29228 0.0
C187 C 0.01754 0.46463 0.42201 0.0
C188 C 0.04616 0.50316 0.21903 0.0
C189 C 0.07197 0.53684 0.22725 0.0
C190 C 0.01955 0.48738 0.2619 0.0
C191 C 0.01921 0.50554 0.31465 0.0
C192 C 0.04604 0.53904 0.32437 0.0
C193 C 0.07187 0.55437 0.28029 0.0
C194 C 0.99114 0.45182 0.24948 0.0
C195 C 0.04697 0.5591 0.38049 0.0
H196 H 0.91725 0.49318 0.38561 0.0
H197 H 0.96275 0.44755 0.49379 0.0
H198 H 0.98366 0.5435 0.29433 0.0
H199 H 0.96522 0.5055 0.24951 0.0
H200 H 0.93824 0.51779 0.28912 0.0
H201 H 0.01223 0.44769 0.46238 0.0
H202 H 0.02176 0.45268 0.38099 0.0
H203 H 0.04145 0.48871 0.43068 0.0
H204 H 0.04608 0.48956 0.17799 0.0
H205 H 0.09197 0.58028 0.28724 0.0
H206 H 0.96732 0.45218 0.24098 0.0
H207 H 0.98681 0.43546 0.29026 0.0
H208 H 0.99636 0.44028 0.20887 0.0
H209 H 0.0256 0.56421 0.37868 0.0
H210 H 0.071 0.58371 0.38385 0.0
H211 H 0.04387 0.54433 0.42307 0.0
C212 C 0.51885 0.06884 0.44641 0.0
C213 C 0.53787 0.06992 0.39476 0.0
C214 C 0.50852 0.04305 0.49053 0.0
C215 C 0.5169 0.01731 0.48236 0.0
C216 C 0.53682 0.01867 0.4311 0.0
C217 C 0.54733 0.04517 0.38809 0.0
C218 C 0.48777 0.04285 0.54502 0.0
C219 C 0.54587 0.99144 0.42039 0.0
C220 C 0.5047 0.96167 0.62197 0.0
C221 C 0.47152 0.93505 0.61257 0.0
C222 C 0.52032 0.9883 0.57911 0.0
C223 C 0.50254 0.98781 0.52516 0.0
C224 C 0.46964 0.96013 0.51423 0.0
C225 C 0.45442 0.93431 0.55835 0.0
C226 C 0.55519 0.01764 0.59285 0.0
C227 C 0.45004 0.95828 0.45679 0.0
H228 H 0.51176 0.0881 0.45222 0.0
H229 H 0.56198 0.04585 0.34818 0.0
H230 H 0.46181 0.02066 0.54191 0.0
H231 H 0.4991 0.04043 0.58863 0.0
H232 H 0.48582 0.06616 0.54736 0.0
H233 H 0.56352 0.99744 0.38092 0.0
H234 H 0.55769 0.98786 0.46226 0.0
H235 H 0.52249 0.967 0.41097 0.0
H236 H 0.51794 0.96238 0.66395 0.0
H237 H 0.4289 0.91356 0.55055 0.0
H238 H 0.55361 0.04086 0.60072 0.0
H239 H 0.57228 0.02268 0.55294 0.0
H240 H 0.56665 0.013 0.63426 0.0
H241 H 0.44375 0.97884 0.45752 0.0
H242 H 0.4261 0.93365 0.45258 0.0
H243 H 0.46569 0.96205 0.41514 0.0
C244 C 0.5455 0.50181 0.78685 0.0
C245 C 0.53787 0.46821 0.77857 0.0
C246 C 0.53465 0.5175 0.74387 0.0
C247 C 0.51636 0.49933 0.69095 0.0
C248 C 0.50996 0.46594 0.68115 0.0
C249 C 0.52049 0.4507 0.72535 0.0
C250 C 0.54149 0.55294 0.75639 0.0
C251 C 0.49107 0.44588 0.62484 0.0
C252 C 0.45251 0.51727 0.61317 0.0
C253 C 0.47023 0.53536 0.56058 0.0
C254 C 0.46782 0.50677 0.65727 0.0
C255 C 0.50152 0.51395 0.64806 0.0
C256 C 0.51987 0.5329 0.59579 0.0
C257 C 0.50408 0.54367 0.55287 0.0
C258 C 0.44754 0.48712 0.71287 0.0
C259 C 0.55566 0.5406 0.58393 0.0
H260 H 0.55885 0.5154 0.82803 0.0
H261 H 0.51486 0.42484 0.71836 0.0
H262 H 0.55354 0.5694 0.71571 0.0
H263 H 0.51718 0.55234 0.76471 0.0
H264 H 0.55813 0.56452 0.79713 0.0
H265 H 0.49076 0.42142 0.62141 0.0
H266 H 0.46451 0.44051 0.62646 0.0
H267 H 0.50278 0.46079 0.58239 0.0
H268 H 0.42645 0.5111 0.61974 0.0
H269 H 0.51784 0.55757 0.5122 0.0
H270 H 0.46197 0.49871 0.75579 0.0
H271 H 0.44283 0.4608 0.71068 0.0
H272 H 0.42272 0.48613 0.71586 0.0
H273 H 0.57173 0.55262 0.62503 0.0
H274 H 0.56726 0.55759 0.54361 0.0
H275 H 0.55571 0.51664 0.57527 0.0
C276 C 0.22791 0.57673 0.22085 0.0
C277 C 0.21321 0.55514 0.17013 0.0
C278 C 0.25443 0.57691 0.25412 0.0
C279 C 0.2667 0.55517 0.23596 0.0
C280 C 0.25197 0.53332 0.18486 0.0
C281 C 0.22533 0.53348 0.15272 0.0
C282 C 0.26934 0.60038 0.30868 0.0
C283 C 0.26449 0.50991 0.1639 0.0
C284 C 0.35525 0.57719 0.28648 0.0
C285 C 0.34831 0.55504 0.33632 0.0
C286 C 0.32893 0.57744 0.25328 0.0
C287 C 0.29487 0.55516 0.27056 0.0
C288 C 0.28769 0.53273 0.32077 0.0
C289 C 0.31447 0.53287 0.35291 0.0
C290 C 0.33756 0.60156 0.19971 0.0
C291 C 0.25169 0.50871 0.34076 0.0
H292 H 0.21867 0.59351 0.23469 0.0
H293 H 0.21424 0.51681 0.11345 0.0
H294 H 0.26698 0.58553 0.35079 0.0
H295 H 0.29676 0.61803 0.30099 0.0
H296 H 0.25675 0.6155 0.31716 0.0
H297 H 0.25044 0.49462 0.12307 0.0
H298 H 0.29181 0.52485 0.15211 0.0
H299 H 0.26186 0.49243 0.20183 0.0
H300 H 0.3813 0.59438 0.27329 0.0
H301 H 0.30884 0.51573 0.39147 0.0
H302 H 0.32741 0.61882 0.20812 0.0
H303 H 0.32546 0.58718 0.15698 0.0
H304 H 0.36531 0.61708 0.19186 0.0
H305 H 0.23893 0.5232 0.35311 0.0
H306 H 0.2504 0.49301 0.38098 0.0
H307 H 0.23722 0.49161 0.30213 0.0
C308 C 0.65369 0.2258 0.38823 0.0
C309 C 0.66061 0.21119 0.33742 0.0
C310 C 0.68001 0.25234 0.42149 0.0
C311 C 0.71404 0.26471 0.40322 0.0
C312 C 0.72119 0.25007 0.35203 0.0
C313 C 0.69441 0.22341 0.3199 0.0
C314 C 0.67143 0.26716 0.47616 0.0
C315 C 0.75713 0.26271 0.33095 0.0
C316 C 0.7805 0.35332 0.45352 0.0
C317 C 0.79585 0.34645 0.50322 0.0
C318 C 0.75389 0.32696 0.42047 0.0
C319 C 0.74221 0.29293 0.43775 0.0
C320 C 0.75758 0.28581 0.48783 0.0
C321 C 0.78427 0.31264 0.51981 0.0
C322 C 0.73826 0.33552 0.36704 0.0
C323 C 0.74572 0.24985 0.50781 0.0
H324 H 0.62766 0.21648 0.40215 0.0
H325 H 0.70001 0.21239 0.28056 0.0
H326 H 0.684 0.26485 0.51819 0.0
H327 H 0.6811 0.29456 0.46852 0.0
H328 H 0.64371 0.25447 0.48475 0.0
H329 H 0.7584 0.2487 0.29007 0.0
H330 H 0.76943 0.29001 0.31917 0.0
H331 H 0.77206 0.26014 0.3688 0.0
H332 H 0.78929 0.37935 0.44033 0.0
H333 H 0.79587 0.30706 0.55828 0.0
H334 H 0.71084 0.32527 0.3756 0.0
H335 H 0.74054 0.32347 0.32425 0.0
H336 H 0.75039 0.36326 0.35923 0.0
H337 H 0.71847 0.23702 0.52025 0.0
H338 H 0.7602 0.24862 0.54796 0.0
H339 H 0.74837 0.23541 0.46914 0.0
C340 C 0.47468 0.78178 0.68784 0.0
C341 C 0.45291 0.79381 0.67056 0.0
C342 C 0.4748 0.75511 0.65577 0.0
C343 C 0.45279 0.74024 0.60491 0.0
C344 C 0.43093 0.75239 0.58693 0.0
C345 C 0.43116 0.77895 0.62009 0.0
C346 C 0.49835 0.74272 0.67653 0.0
C347 C 0.40727 0.73731 0.53264 0.0
C348 C 0.47469 0.69239 0.48747 0.0
C349 C 0.45254 0.65857 0.50416 0.0
C350 C 0.47499 0.71919 0.51981 0.0
C351 C 0.45277 0.71205 0.57034 0.0
C352 C 0.43055 0.67801 0.5878 0.0
C353 C 0.43062 0.65166 0.55438 0.0
C354 C 0.49893 0.75516 0.49963 0.0
C355 C 0.40665 0.66942 0.64172 0.0
H356 H 0.49149 0.793 0.72691 0.0
H357 H 0.41429 0.7881 0.60636 0.0
H358 H 0.48352 0.71543 0.68849 0.0
H359 H 0.51574 0.74533 0.63843 0.0
H360 H 0.51376 0.75687 0.7172 0.0
H361 H 0.39205 0.74981 0.5243 0.0
H362 H 0.42199 0.73964 0.49036 0.0
H363 H 0.38971 0.7099 0.54055 0.0
H364 H 0.49164 0.69799 0.44863 0.0
H365 H 0.41346 0.62563 0.56766 0.0
H366 H 0.51611 0.76971 0.53813 0.0
H367 H 0.48437 0.76786 0.48733 0.0
H368 H 0.51456 0.75643 0.45932 0.0
H369 H 0.4212 0.68166 0.68423 0.0
H370 H 0.39126 0.64168 0.64982 0.0
H371 H 0.38926 0.67943 0.63352 0.0
C372 C 0.69463 0.47233 0.85314 0.0
C373 C 0.66082 0.45012 0.83648 0.0
C374 C 0.72147 0.47257 0.82105 0.0
C375 C 0.71438 0.4502 0.7708 0.0
C376 C 0.68035 0.42788 0.75342 0.0
C377 C 0.65397 0.42803 0.78658 0.0
C378 C 0.75743 0.49663 0.84114 0.0
C379 C 0.67182 0.40382 0.6998 0.0
C380 C 0.78401 0.47206 0.65304 0.0
C381 C 0.79615 0.4504 0.67041 0.0
C382 C 0.75735 0.47217 0.68519 0.0
C383 C 0.74262 0.45028 0.73626 0.0
C384 C 0.75491 0.42856 0.7544 0.0
C385 C 0.78145 0.42879 0.72112 0.0
C386 C 0.7448 0.49557 0.66426 0.0
C387 C 0.73999 0.40504 0.80893 0.0
H388 H 0.70018 0.48942 0.89175 0.0
H389 H 0.62794 0.41081 0.77333 0.0
H390 H 0.77023 0.48217 0.85352 0.0
H391 H 0.77192 0.51377 0.80256 0.0
H392 H 0.75865 0.51228 0.88137 0.0
H393 H 0.64408 0.38827 0.69187 0.0
H394 H 0.68395 0.41826 0.65712 0.0
H395 H 0.682 0.38659 0.70822 0.0
H396 H 0.7951 0.48876 0.61378 0.0
H397 H 0.7907 0.41201 0.73494 0.0
H398 H 0.74735 0.51299 0.70223 0.0
H399 H 0.7175 0.48061 0.65236 0.0
H400 H 0.75889 0.51093 0.62349 0.0
H401 H 0.74228 0.41985 0.85105 0.0
H402 H 0.75264 0.38998 0.81744 0.0
H403 H 0.7126 0.38735 0.80117 0.0
C404 C 0.35572 0.7793 0.88783 0.0
C405 C 0.34895 0.7942 0.83727 0.0
C406 C 0.32929 0.75282 0.92103 0.0
C407 C 0.2953 0.7408 0.90298 0.0
C408 C 0.28829 0.75575 0.85209 0.0
C409 C 0.31517 0.78233 0.81999 0.0
C410 C 0.33774 0.73766 0.97536 0.0
C411 C 0.25237 0.74351 0.83127 0.0
C412 C 0.22848 0.65224 0.95286 0.0
C413 C 0.21338 0.65912 1.00295 0.0
C414 C 0.25509 0.67859 0.91975 0.0
C415 C 0.26702 0.71261 0.93741 0.0
C416 C 0.25188 0.71974 0.98784 0.0
C417 C 0.22518 0.69292 0.01986 0.0
C418 C 0.27046 0.67002 0.86592 0.0
C419 C 0.26403 0.75569 0.00822 0.0
H420 H 0.38172 0.78834 0.90156 0.0
H421 H 0.30968 0.79359 0.78087 0.0
H422 H 0.32528 0.73996 0.01757 0.0
H423 H 0.32785 0.71025 0.96738 0.0
H424 H 0.36545 0.75011 0.98384 0.0
H425 H 0.25122 0.75776 0.79068 0.0
H426 H 0.23984 0.71623 0.81916 0.0
H427 H 0.23759 0.7461 0.86938 0.0
H428 H 0.2195 0.62622 0.93941 0.0
H429 H 0.21376 0.6985 0.05863 0.0
H430 H 0.29785 0.67998 0.87427 0.0
H431 H 0.26827 0.68233 0.82341 0.0
H432 H 0.25807 0.6423 0.85775 0.0
H433 H 0.29128 0.76828 0.02061 0.0
H434 H 0.24965 0.75693 0.04852 0.0
H435 H 0.26152 0.77035 0.96979 0.0
C436 C 0.53475 0.3124 0.98691 0.0
C437 C 0.55671 0.34621 0.00386 0.0
C438 C 0.53455 0.2856 0.01911 0.0
C439 C 0.55667 0.29274 0.06978 0.0
C440 C 0.57871 0.32677 0.08749 0.0
C441 C 0.57855 0.35311 0.05419 0.0
C442 C 0.51079 0.24964 0.99866 0.0
C443 C 0.6025 0.33535 0.14157 0.0
C444 C 0.53473 0.22289 0.18709 0.0
C445 C 0.55668 0.21104 0.17003 0.0
C446 C 0.53456 0.24953 0.155 0.0
C447 C 0.55669 0.26455 0.10433 0.0
C448 C 0.57872 0.25257 0.08653 0.0
C449 C 0.57853 0.22603 0.11972 0.0
C450 C 0.51083 0.26174 0.17555 0.0
C451 C 0.6025 0.26781 0.03243 0.0
H452 H 0.51786 0.3068 0.94796 0.0
H453 H 0.59557 0.37914 0.06767 0.0
H454 H 0.5255 0.23707 0.98649 0.0
H455 H 0.49353 0.23497 0.03697 0.0
H456 H 0.49526 0.24838 0.95819 0.0
H457 H 0.61779 0.36308 0.14979 0.0
H458 H 0.58788 0.32301 0.18397 0.0
H459 H 0.61999 0.32544 0.13348 0.0
H460 H 0.51784 0.21157 0.22604 0.0
H461 H 0.59553 0.21702 0.10615 0.0
H462 H 0.49352 0.25913 0.1373 0.0
H463 H 0.52553 0.28902 0.18767 0.0
H464 H 0.49533 0.24748 0.21607 0.0
H465 H 0.58787 0.2655 0.99005 0.0
H466 H 0.61782 0.25541 0.0242 0.0
H467 H 0.61996 0.29522 0.04051 0.0
loop_
_geom_bond_atom_site_label_1
_geom_bond_atom_site_label_2
_geom_bond_distance
_geom_bond_site_symmetry_2
_ccdc_geom_bond_type
C0 O2 1.247 . S
C0 O4 1.258 . S
C1 O8 1.247 . S
C1 O9 1.258 . S
O2 C0 1.247 . S
O2 Zn3 2.028 . S
Zn3 O2 2.028 . S
Zn3 O7 2.035 . S
Zn3 O9 2.035 . S
Zn3 O10 2.028 . S
O4 C0 1.258 . S
O4 Zn5 2.035 . S
Zn5 O4 2.035 . S
Zn5 O6 2.028 . S
Zn5 O8 2.028 . S
Zn5 O11 2.035 . S
O6 Zn5 2.028 . S
O6 C12 1.247 . S
O7 Zn3 2.035 . S
O7 C12 1.258 . S
O8 C1 1.247 . S
O8 Zn5 2.028 . S
O9 C1 1.258 . S
O9 Zn3 2.035 . S
O10 Zn3 2.028 . S
O10 C13 1.247 . S
O11 Zn5 2.035 . S
O11 C13 1.258 . S
C12 O6 1.247 . S
C12 O7 1.258 . S
C13 O10 1.247 . S
C13 O11 1.258 . S
C14 O16 1.247 . S
C14 O18 1.258 . S
C15 O22 1.247 . S
C15 O23 1.258 . S
O16 C14 1.247 . S
O16 Zn17 2.028 . S
Zn17 O16 2.028 . S
Zn17 O21 2.035 . S
Zn17 O23 2.035 . S
Zn17 O24 2.028 . S
O18 C14 1.258 . S
O18 Zn19 2.035 . S
Zn19 O18 2.035 . S
Zn19 O20 2.028 . S
Zn19 O22 2.028 . S
Zn19 O25 2.035 . S
O20 Zn19 2.028 . S
O20 C26 1.247 . S
O21 Zn17 2.035 . S
O21 C26 1.258 . S
O22 C15 1.247 . S
O22 Zn19 2.028 . S
O23 C15 1.258 . S
O23 Zn17 2.035 . S
O24 Zn17 2.028 . S
O24 C27 1.247 . S
O25 Zn19 2.035 . S
O25 C27 1.258 . S
C26 O20 1.247 . S
C26 O21 1.258 . S
C27 O24 1.247 . S
C27 O25 1.258 . S
C28 O30 1.247 . S
C28 O32 1.258 . S
C29 O36 1.247 . S
C29 O37 1.258 . S
O30 C28 1.247 . S
O30 Zn31 2.028 . S
Zn31 O30 2.028 . S
Zn31 O35 2.035 . S
Zn31 O37 2.035 . S
Zn31 O38 2.028 . S
O32 C28 1.258 . S
O32 Zn33 2.035 . S
Zn33 O32 2.035 . S
Zn33 O34 2.028 . S
Zn33 O36 2.028 . S
Zn33 O39 2.035 . S
O34 Zn33 2.028 . S
O34 C40 1.247 . S
O35 Zn31 2.035 . S
O35 C40 1.258 . S
O36 C29 1.247 . S
O36 Zn33 2.028 . S
O37 C29 1.258 . S
O37 Zn31 2.035 . S
O38 Zn31 2.028 . S
O38 C41 1.247 . S
O39 Zn33 2.035 . S
O39 C41 1.258 . S
C40 O34 1.247 . S
C40 O35 1.258 . S
C41 O38 1.247 . S
C41 O39 1.258 . S
C42 O44 1.247 . S
C42 O46 1.258 . S
C43 O50 1.247 . S
C43 O51 1.258 . S
O44 C42 1.247 . S
O44 Zn45 2.028 . S
Zn45 O44 2.028 . S
Zn45 O49 2.035 . S
Zn45 O51 2.035 . S
Zn45 O52 2.028 . S
O46 C42 1.258 . S
O46 Zn47 2.035 . S
Zn47 O46 2.035 . S
Zn47 O48 2.028 . S
Zn47 O50 2.028 . S
Zn47 O53 2.035 . S
O48 Zn47 2.028 . S
O48 C54 1.247 . S
O49 Zn45 2.035 . S
O49 C54 1.258 . S
O50 C43 1.247 . S
O50 Zn47 2.028 . S
O51 C43 1.258 . S
O51 Zn45 2.035 . S
O52 Zn45 2.028 . S
O52 C55 1.247 . S
O53 Zn47 2.035 . S
O53 C55 1.258 . S
C54 O48 1.247 . S
C54 O49 1.258 . S
C55 O52 1.247 . S
C55 O53 1.258 . S
C56 O58 1.247 . S
C56 O60 1.258 . S
C57 O64 1.247 . S
C57 O65 1.258 . S
O58 C56 1.247 . S
O58 Zn59 2.028 . S
Zn59 O58 2.028 . S
Zn59 O63 2.035 . S
Zn59 O65 2.035 . S
Zn59 O66 2.028 . S
O60 C56 1.258 . S
O60 Zn61 2.035 . S
Zn61 O60 2.035 . S
Zn61 O62 2.028 . S
Zn61 O64 2.028 . S
Zn61 O67 2.035 . S
O62 Zn61 2.028 . S
O62 C68 1.247 . S
O63 Zn59 2.035 . S
O63 C68 1.258 . S
O64 C57 1.247 . S
O64 Zn61 2.028 . S
O65 C57 1.258 . S
O65 Zn59 2.035 . S
O66 Zn59 2.028 . S
O66 C69 1.247 . S
O67 Zn61 2.035 . S
O67 C69 1.258 . S
C68 O62 1.247 . S
C68 O63 1.258 . S
C69 O66 1.247 . S
C69 O67 1.258 . S
C70 O72 1.247 . S
C70 O74 1.258 . S
C71 O78 1.247 . S
C71 O79 1.258 . S
O72 C70 1.247 . S
O72 Zn73 2.028 . S
Zn73 O72 2.028 . S
Zn73 O77 2.035 . S
Zn73 O79 2.035 . S
Zn73 O80 2.028 . S
O74 C70 1.258 . S
O74 Zn75 2.035 . S
Zn75 O74 2.035 . S
Zn75 O76 2.028 . S
Zn75 O78 2.028 . S
Zn75 O81 2.035 . S
O76 Zn75 2.028 . S
O76 C82 1.247 . S
O77 Zn73 2.035 . S
O77 C82 1.258 . S
O78 C71 1.247 . S
O78 Zn75 2.028 . S
O79 C71 1.258 . S
O79 Zn73 2.035 . S
O80 Zn73 2.028 . S
O80 C83 1.247 . S
O81 Zn75 2.035 . S
O81 C83 1.258 . S
C82 O76 1.247 . S
C82 O77 1.258 . S
C83 O80 1.247 . S
C83 O81 1.258 . S
C84 C85 1.391 . S
C84 C86 1.394 . S
C84 H100 0.931 . S
C85 C84 1.391 . S
C85 C89 1.376 . S
C86 C84 1.394 . S
C86 C87 1.369 . S
C86 C90 1.531 . S
C87 C86 1.369 . S
C87 C88 1.410 . S
C87 C95 1.503 1_455 S
C88 C87 1.410 . S
C88 C89 1.392 . S
C88 C91 1.511 1_455 S
C89 C85 1.376 . S
C89 C88 1.392 . S
C89 H101 0.929 1_556 S
C90 C86 1.531 . S
C90 H102 0.960 . S
C90 H103 0.962 . S
C90 H104 0.960 . S
C91 C88 1.511 1_655 S
C91 H105 0.961 . S
C91 H106 0.961 . S
C91 H107 0.961 . S
C92 C93 1.370 . S
C92 C94 1.363 . S
C92 H108 0.931 . S
C93 C92 1.370 . S
C93 C97 1.408 . S
C94 C92 1.363 . S
C94 C95 1.370 . S
C94 C98 1.524 1_655 S
C95 C87 1.503 1_655 S
C95 C94 1.370 . S
C95 C96 1.403 . S
C96 C95 1.403 . S
C96 C97 1.404 . S
C96 C99 1.539 . S
C97 C93 1.408 . S
C97 C96 1.404 . S
C97 H109 0.930 . S
C98 C94 1.524 1_455 S
C98 H110 0.956 . S
C98 H111 0.961 . S
C98 H112 0.961 1_455 S
C99 C96 1.539 . S
C99 H113 0.958 . S
C99 H114 0.961 . S
C99 H115 0.960 . S
H100 C84 0.931 . S
H101 C89 0.929 1_554 S
H102 C90 0.960 . S
H103 C90 0.962 . S
H104 C90 0.960 . S
H105 C91 0.961 . S
H106 C91 0.961 . S
H107 C91 0.961 . S
H108 C92 0.931 . S
H109 C97 0.930 . S
H110 C98 0.956 . S
H111 C98 0.961 . S
H112 C98 0.961 1_655 S
H113 C99 0.958 . S
H114 C99 0.961 . S
H115 C99 0.960 . S
C116 C117 1.391 . S
C116 C118 1.394 . S
C116 H132 0.931 . S
C117 C116 1.391 . S
C117 C121 1.376 . S
C118 C116 1.394 . S
C118 C119 1.369 . S
C118 C122 1.531 1_565 S
C119 C118 1.369 . S
C119 C120 1.410 . S
C119 C127 1.503 1_566 S
C120 C119 1.410 . S
C120 C121 1.392 . S
C120 C123 1.511 . S
C121 C117 1.376 . S
C121 C120 1.392 . S
C121 H133 0.929 . S
C122 C118 1.531 1_545 S
C122 H134 0.960 . S
C122 H135 0.962 1_545 S
C122 H136 0.960 . S
C123 C120 1.511 . S
C123 H137 0.961 . S
C123 H138 0.961 1_556 S
C123 H139 0.961 . S
C124 C125 1.370 . S
C124 C126 1.363 . S
C124 H140 0.931 . S
C125 C124 1.370 . S
C125 C129 1.408 . S
C126 C124 1.363 . S
C126 C127 1.370 . S
C126 C130 1.524 1_545 S
C127 C119 1.503 1_544 S
C127 C126 1.370 . S
C127 C128 1.403 . S
C128 C127 1.403 . S
C128 C129 1.404 . S
C128 C131 1.539 1_554 S
C129 C125 1.408 . S
C129 C128 1.404 . S
C129 H141 0.930 . S
C130 C126 1.524 1_565 S
C130 H142 0.956 . S
C130 H143 0.961 . S
C130 H144 0.961 . S
C131 C128 1.539 1_556 S
C131 H145 0.958 . S
C131 H146 0.961 . S
C131 H147 0.960 . S
H132 C116 0.931 . S
H133 C121 0.929 . S
H134 C122 0.960 . S
H135 C122 0.962 1_565 S
H136 C122 0.960 . S
H137 C123 0.961 . S
H138 C123 0.961 1_554 S
H139 C123 0.961 . S
H140 C124 0.931 . S
H141 C129 0.930 . S
H142 C130 0.956 . S
H143 C130 0.961 . S
H144 C130 0.961 . S
H145 C131 0.958 . S
H146 C131 0.961 . S
H147 C131 0.960 . S
C148 C149 1.391 . S
C148 C150 1.394 . S
C148 H164 0.931 . S
C149 C148 1.391 . S
C149 C153 1.376 . S
C150 C148 1.394 . S
C150 C151 1.369 . S
C150 C154 1.531 . S
C151 C150 1.369 . S
C151 C152 1.410 . S
C151 C159 1.503 . S
C152 C151 1.410 . S
C152 C153 1.392 . S
C152 C155 1.511 . S
C153 C149 1.376 . S
C153 C152 1.392 . S
C153 H165 0.929 . S
C154 C150 1.531 . S
C154 H166 0.960 . S
C154 H167 0.962 . S
C154 H168 0.960 . S
C155 C152 1.511 . S
C155 H169 0.961 . S
C155 H170 0.961 . S
C155 H171 0.961 . S
C156 C157 1.370 . S
C156 C158 1.363 . S
C156 H172 0.931 . S
C157 C156 1.370 . S
C157 C161 1.408 . S
C158 C156 1.363 . S
C158 C159 1.370 . S
C158 C162 1.524 . S
C159 C151 1.503 . S
C159 C158 1.370 . S
C159 C160 1.403 . S
C160 C159 1.403 . S
C160 C161 1.404 . S
C160 C163 1.539 . S
C161 C157 1.408 . S
C161 C160 1.404 . S
C161 H173 0.930 . S
C162 C158 1.524 . S
C162 H174 0.956 . S
C162 H175 0.961 . S
C162 H176 0.961 . S
C163 C160 1.539 . S
C163 H177 0.958 . S
C163 H178 0.961 . S
C163 H179 0.960 . S
H164 C148 0.931 . S
H165 C153 0.929 . S
H166 C154 0.960 . S
H167 C154 0.962 . S
H168 C154 0.960 . S
H169 C155 0.961 . S
H170 C155 0.961 . S
H171 C155 0.961 . S
H172 C156 0.931 . S
H173 C161 0.930 . S
H174 C162 0.956 . S
H175 C162 0.961 . S
H176 C162 0.961 . S
H177 C163 0.958 . S
H178 C163 0.961 . S
H179 C163 0.960 . S
C180 C181 1.391 . S
C180 C182 1.394 . S
C180 H196 0.931 . S
C181 C180 1.391 . S
C181 C185 1.376 . S
C182 C180 1.394 . S
C182 C183 1.369 . S
C182 C186 1.531 . S
C183 C182 1.369 . S
C183 C184 1.410 . S
C183 C191 1.503 1_655 S
C184 C183 1.410 . S
C184 C185 1.392 . S
C184 C187 1.511 1_655 S
C185 C181 1.376 . S
C185 C184 1.392 . S
C185 H197 0.929 . S
C186 C182 1.531 . S
C186 H198 0.960 1_655 S
C186 H199 0.962 . S
C186 H200 0.960 . S
C187 C184 1.511 1_455 S
C187 H201 0.961 1_455 S
C187 H202 0.961 . S
C187 H203 0.961 . S
C188 C189 1.370 . S
C188 C190 1.363 . S
C188 H204 0.931 . S
C189 C188 1.370 . S
C189 C193 1.408 . S
C190 C188 1.363 . S
C190 C191 1.370 . S
C190 C194 1.524 1_455 S
C191 C183 1.503 1_455 S
C191 C190 1.370 . S
C191 C192 1.403 . S
C192 C191 1.403 . S
C192 C193 1.404 . S
C192 C195 1.539 . S
C193 C189 1.408 . S
C193 C192 1.404 . S
C193 H205 0.930 . S
C194 C190 1.524 1_655 S
C194 H206 0.956 . S
C194 H207 0.961 . S
C194 H208 0.961 . S
C195 C192 1.539 . S
C195 H209 0.958 . S
C195 H210 0.961 . S
C195 H211 0.960 . S
H196 C180 0.931 . S
H197 C185 0.929 . S
H198 C186 0.960 1_455 S
H199 C186 0.962 . S
H200 C186 0.960 . S
H201 C187 0.961 1_655 S
H202 C187 0.961 . S
H203 C187 0.961 . S
H204 C188 0.931 . S
H205 C193 0.930 . S
H206 C194 0.956 . S
H207 C194 0.961 . S
H208 C194 0.961 . S
H209 C195 0.958 . S
H210 C195 0.961 . S
H211 C195 0.960 . S
C212 C213 1.391 . S
C212 C214 1.394 . S
C212 H228 0.931 . S
C213 C212 1.391 . S
C213 C217 1.376 . S
C214 C212 1.394 . S
C214 C215 1.369 . S
C214 C218 1.531 1_545 S
C215 C214 1.369 . S
C215 C216 1.410 . S
C215 C223 1.503 1_545 S
C216 C215 1.410 . S
C216 C217 1.392 . S
C216 C219 1.511 . S
C217 C213 1.376 . S
C217 C216 1.392 . S
C217 H229 0.929 . S
C218 C214 1.531 1_565 S
C218 H230 0.960 . S
C218 H231 0.962 . S
C218 H232 0.960 . S
C219 C216 1.511 . S
C219 H233 0.961 . S
C219 H234 0.961 . S
C219 H235 0.961 . S
C220 C221 1.370 . S
C220 C222 1.363 . S
C220 H236 0.931 . S
C221 C220 1.370 . S
C221 C225 1.408 . S
C222 C220 1.363 . S
C222 C223 1.370 . S
C222 C226 1.524 1_565 S
C223 C215 1.503 1_565 S
C223 C222 1.370 . S
C223 C224 1.403 . S
C224 C223 1.403 . S
C224 C225 1.404 . S
C224 C227 1.539 . S
C225 C221 1.408 . S
C225 C224 1.404 . S
C225 H237 0.930 . S
C226 C222 1.524 1_545 S
C226 H238 0.956 . S
C226 H239 0.961 . S
C226 H240 0.961 . S
C227 C224 1.539 . S
C227 H241 0.958 . S
C227 H242 0.961 . S
C227 H243 0.960 . S
H228 C212 0.931 . S
H229 C217 0.929 . S
H230 C218 0.960 . S
H231 C218 0.962 . S
H232 C218 0.960 . S
H233 C219 0.961 . S
H234 C219 0.961 . S
H235 C219 0.961 . S
H236 C220 0.931 . S
H237 C225 0.930 . S
H238 C226 0.956 . S
H239 C226 0.961 . S
H240 C226 0.961 . S
H241 C227 0.958 . S
H242 C227 0.961 . S
H243 C227 0.960 . S
C244 C245 1.391 . S
C244 C246 1.394 . S
C244 H260 0.931 . S
C245 C244 1.391 . S
C245 C249 1.376 . S
C246 C244 1.394 . S
C246 C247 1.369 . S
C246 C250 1.531 . S
C247 C246 1.369 . S
C247 C248 1.410 . S
C247 C255 1.503 . S
C248 C247 1.410 . S
C248 C249 1.392 . S
C248 C251 1.511 . S
C249 C245 1.376 . S
C249 C248 1.392 . S
C249 H261 0.929 . S
C250 C246 1.531 . S
C250 H262 0.960 . S
C250 H263 0.962 . S
C250 H264 0.960 . S
C251 C248 1.511 . S
C251 H265 0.961 . S
C251 H266 0.961 . S
C251 H267 0.961 . S
C252 C253 1.370 . S
C252 C254 1.363 . S
C252 H268 0.931 . S
C253 C252 1.370 . S
C253 C257 1.408 . S
C254 C252 1.363 . S
C254 C255 1.370 . S
C254 C258 1.524 . S
C255 C247 1.503 . S
C255 C254 1.370 . S
C255 C256 1.403 . S
C256 C255 1.403 . S
C256 C257 1.404 . S
C256 C259 1.539 . S
C257 C253 1.408 . S
C257 C256 1.404 . S
C257 H269 0.930 . S
C258 C254 1.524 . S
C258 H270 0.956 . S
C258 H271 0.961 . S
C258 H272 0.961 . S
C259 C256 1.539 . S
C259 H273 0.958 . S
C259 H274 0.961 . S
C259 H275 0.960 . S
H260 C244 0.931 . S
H261 C249 0.929 . S
H262 C250 0.960 . S
H263 C250 0.962 . S
H264 C250 0.960 . S
H265 C251 0.961 . S
H266 C251 0.961 . S
H267 C251 0.961 . S
H268 C252 0.931 . S
H269 C257 0.930 . S
H270 C258 0.956 . S
H271 C258 0.961 . S
H272 C258 0.961 . S
H273 C259 0.958 . S
H274 C259 0.961 . S
H275 C259 0.960 . S
C276 C277 1.391 . S
C276 C278 1.394 . S
C276 H292 0.931 . S
C277 C276 1.391 . S
C277 C281 1.376 . S
C278 C276 1.394 . S
C278 C279 1.369 . S
C278 C282 1.531 . S
C279 C278 1.369 . S
C279 C280 1.410 . S
C279 C287 1.503 . S
C280 C279 1.410 . S
C280 C281 1.392 . S
C280 C283 1.511 . S
C281 C277 1.376 . S
C281 C280 1.392 . S
C281 H293 0.929 . S
C282 C278 1.531 . S
C282 H294 0.960 . S
C282 H295 0.962 . S
C282 H296 0.960 . S
C283 C280 1.511 . S
C283 H297 0.961 . S
C283 H298 0.961 . S
C283 H299 0.961 . S
C284 C285 1.370 . S
C284 C286 1.363 . S
C284 H300 0.931 . S
C285 C284 1.370 . S
C285 C289 1.408 . S
C286 C284 1.363 . S
C286 C287 1.370 . S
C286 C290 1.524 . S
C287 C279 1.503 . S
C287 C286 1.370 . S
C287 C288 1.403 . S
C288 C287 1.403 . S
C288 C289 1.404 . S
C288 C291 1.539 . S
C289 C285 1.408 . S
C289 C288 1.404 . S
C289 H301 0.930 . S
C290 C286 1.524 . S
C290 H302 0.956 . S
C290 H303 0.961 . S
C290 H304 0.961 . S
C291 C288 1.539 . S
C291 H305 0.958 . S
C291 H306 0.961 . S
C291 H307 0.960 . S
H292 C276 0.931 . S
H293 C281 0.929 . S
H294 C282 0.960 . S
H295 C282 0.962 . S
H296 C282 0.960 . S
H297 C283 0.961 . S
H298 C283 0.961 . S
H299 C283 0.961 . S
H300 C284 0.931 . S
H301 C289 0.930 . S
H302 C290 0.956 . S
H303 C290 0.961 . S
H304 C290 0.961 . S
H305 C291 0.958 . S
H306 C291 0.961 . S
H307 C291 0.960 . S
C308 C309 1.391 . S
C308 C310 1.394 . S
C308 H324 0.931 . S
C309 C308 1.391 . S
C309 C313 1.376 . S
C310 C308 1.394 . S
C310 C311 1.369 . S
C310 C314 1.531 . S
C311 C310 1.369 . S
C311 C312 1.410 . S
C311 C319 1.503 . S
C312 C311 1.410 . S
C312 C313 1.392 . S
C312 C315 1.511 . S
C313 C309 1.376 . S
C313 C312 1.392 . S
C313 H325 0.929 . S
C314 C310 1.531 . S
C314 H326 0.960 . S
C314 H327 0.962 . S
C314 H328 0.960 . S
C315 C312 1.511 . S
C315 H329 0.961 . S
C315 H330 0.961 . S
C315 H331 0.961 . S
C316 C317 1.370 . S
C316 C318 1.363 . S
C316 H332 0.931 . S
C317 C316 1.370 . S
C317 C321 1.408 . S
C318 C316 1.363 . S
C318 C319 1.370 . S
C318 C322 1.524 . S
C319 C311 1.503 . S
C319 C318 1.370 . S
C319 C320 1.403 . S
C320 C319 1.403 . S
C320 C321 1.404 . S
C320 C323 1.539 . S
C321 C317 1.408 . S
C321 C320 1.404 . S
C321 H333 0.930 . S
C322 C318 1.524 . S
C322 H334 0.956 . S
C322 H335 0.961 . S
C322 H336 0.961 . S
C323 C320 1.539 . S
C323 H337 0.958 . S
C323 H338 0.961 . S
C323 H339 0.960 . S
H324 C308 0.931 . S
H325 C313 0.929 . S
H326 C314 0.960 . S
H327 C314 0.962 . S
H328 C314 0.960 . S
H329 C315 0.961 . S
H330 C315 0.961 . S
H331 C315 0.961 . S
H332 C316 0.931 . S
H333 C321 0.930 . S
H334 C322 0.956 . S
H335 C322 0.961 . S
H336 C322 0.961 . S
H337 C323 0.958 . S
H338 C323 0.961 . S
H339 C323 0.960 . S
C340 C341 1.391 . S
C340 C342 1.394 . S
C340 H356 0.931 . S
C341 C340 1.391 . S
C341 C345 1.376 . S
C342 C340 1.394 . S
C342 C343 1.369 . S
C342 C346 1.531 . S
C343 C342 1.369 . S
C343 C344 1.410 . S
C343 C351 1.503 . S
C344 C343 1.410 . S
C344 C345 1.392 . S
C344 C347 1.511 . S
C345 C341 1.376 . S
C345 C344 1.392 . S
C345 H357 0.929 . S
C346 C342 1.531 . S
C346 H358 0.960 . S
C346 H359 0.962 . S
C346 H360 0.960 . S
C347 C344 1.511 . S
C347 H361 0.961 . S
C347 H362 0.961 . S
C347 H363 0.961 . S
C348 C349 1.370 . S
C348 C350 1.363 . S
C348 H364 0.931 . S
C349 C348 1.370 . S
C349 C353 1.408 . S
C350 C348 1.363 . S
C350 C351 1.370 . S
C350 C354 1.524 . S
C351 C343 1.503 . S
C351 C350 1.370 . S
C351 C352 1.403 . S
C352 C351 1.403 . S
C352 C353 1.404 . S
C352 C355 1.539 . S
C353 C349 1.408 . S
C353 C352 1.404 . S
C353 H365 0.930 . S
C354 C350 1.524 . S
C354 H366 0.956 . S
C354 H367 0.961 . S
C354 H368 0.961 . S
C355 C352 1.539 . S
C355 H369 0.958 . S
C355 H370 0.961 . S
C355 H371 0.960 . S
H356 C340 0.931 . S
H357 C345 0.929 . S
H358 C346 0.960 . S
H359 C346 0.962 . S
H360 C346 0.960 . S
H361 C347 0.961 . S
H362 C347 0.961 . S
H363 C347 0.961 . S
H364 C348 0.931 . S
H365 C353 0.930 . S
H366 C354 0.956 . S
H367 C354 0.961 . S
H368 C354 0.961 . S
H369 C355 0.958 . S
H370 C355 0.961 . S
H371 C355 0.960 . S
C372 C373 1.391 . S
C372 C374 1.394 . S
C372 H388 0.931 . S
C373 C372 1.391 . S
C373 C377 1.376 . S
C374 C372 1.394 . S
C374 C375 1.369 . S
C374 C378 1.531 . S
C375 C374 1.369 . S
C375 C376 1.410 . S
C375 C383 1.503 . S
C376 C375 1.410 . S
C376 C377 1.392 . S
C376 C379 1.511 . S
C377 C373 1.376 . S
C377 C376 1.392 . S
C377 H389 0.929 . S
C378 C374 1.531 . S
C378 H390 0.960 . S
C378 H391 0.962 . S
C378 H392 0.960 . S
C379 C376 1.511 . S
C379 H393 0.961 . S
C379 H394 0.961 . S
C379 H395 0.961 . S
C380 C381 1.370 . S
C380 C382 1.363 . S
C380 H396 0.931 . S
C381 C380 1.370 . S
C381 C385 1.408 . S
C382 C380 1.363 . S
C382 C383 1.370 . S
C382 C386 1.524 . S
C383 C375 1.503 . S
C383 C382 1.370 . S
C383 C384 1.403 . S
C384 C383 1.403 . S
C384 C385 1.404 . S
C384 C387 1.539 . S
C385 C381 1.408 . S
C385 C384 1.404 . S
C385 H397 0.930 . S
C386 C382 1.524 . S
C386 H398 0.956 . S
C386 H399 0.961 . S
C386 H400 0.961 . S
C387 C384 1.539 . S
C387 H401 0.958 . S
C387 H402 0.961 . S
C387 H403 0.960 . S
H388 C372 0.931 . S
H389 C377 0.929 . S
H390 C378 0.960 . S
H391 C378 0.962 . S
H392 C378 0.960 . S
H393 C379 0.961 . S
H394 C379 0.961 . S
H395 C379 0.961 . S
H396 C380 0.931 . S
H397 C385 0.930 . S
H398 C386 0.956 . S
H399 C386 0.961 . S
H400 C386 0.961 . S
H401 C387 0.958 . S
H402 C387 0.961 . S
H403 C387 0.960 . S
C404 C405 1.391 . S
C404 C406 1.394 . S
C404 H420 0.931 . S
C405 C404 1.391 . S
C405 C409 1.376 . S
C406 C404 1.394 . S
C406 C407 1.369 . S
C406 C410 1.531 1_556 S
C407 C406 1.369 . S
C407 C408 1.410 . S
C407 C415 1.503 . S
C408 C407 1.410 . S
C408 C409 1.392 . S
C408 C411 1.511 . S
C409 C405 1.376 . S
C409 C408 1.392 . S
C409 H421 0.929 . S
C410 C406 1.531 1_554 S
C410 H422 0.960 . S
C410 H423 0.962 . S
C410 H424 0.960 . S
C411 C408 1.511 . S
C411 H425 0.961 . S
C411 H426 0.961 . S
C411 H427 0.961 . S
C412 C413 1.370 . S
C412 C414 1.363 . S
C412 H428 0.931 . S
C413 C412 1.370 . S
C413 C417 1.408 . S
C414 C412 1.363 . S
C414 C415 1.370 . S
C414 C418 1.524 . S
C415 C407 1.503 . S
C415 C414 1.370 . S
C415 C416 1.403 . S
C416 C415 1.403 . S
C416 C417 1.404 . S
C416 C419 1.539 . S
C417 C413 1.408 . S
C417 C416 1.404 . S
C417 H429 0.930 1_556 S
C418 C414 1.524 . S
C418 H430 0.956 . S
C418 H431 0.961 . S
C418 H432 0.961 . S
C419 C416 1.539 . S
C419 H433 0.958 1_556 S
C419 H434 0.961 . S
C419 H435 0.960 . S
H420 C404 0.931 . S
H421 C409 0.929 . S
H422 C410 0.960 . S
H423 C410 0.962 . S
H424 C410 0.960 . S
H425 C411 0.961 . S
H426 C411 0.961 . S
H427 C411 0.961 . S
H428 C412 0.931 . S
H429 C417 0.930 1_554 S
H430 C418 0.956 . S
H431 C418 0.961 . S
H432 C418 0.961 . S
H433 C419 0.958 1_554 S
H434 C419 0.961 . S
H435 C419 0.960 . S
C436 C437 1.391 . S
C436 C438 1.394 . S
C436 H452 0.931 1_554 S
C437 C436 1.391 . S
C437 C441 1.376 . S
C438 C436 1.394 . S
C438 C439 1.369 . S
C438 C442 1.531 . S
C439 C438 1.369 . S
C439 C440 1.410 . S
C439 C447 1.503 . S
C440 C439 1.410 . S
C440 C441 1.392 . S
C440 C443 1.511 . S
C441 C437 1.376 . S
C441 C440 1.392 . S
C441 H453 0.929 . S
C442 C438 1.531 . S
C442 H454 0.960 . S
C442 H455 0.962 . S
C442 H456 0.960 1_554 S
C443 C440 1.511 . S
C443 H457 0.961 . S
C443 H458 0.961 . S
C443 H459 0.961 . S
C444 C445 1.370 . S
C444 C446 1.363 . S
C444 H460 0.931 . S
C445 C444 1.370 . S
C445 C449 1.408 . S
C446 C444 1.363 . S
C446 C447 1.370 . S
C446 C450 1.524 . S
C447 C439 1.503 . S
C447 C446 1.370 . S
C447 C448 1.403 . S
C448 C447 1.403 . S
C448 C449 1.404 . S
C448 C451 1.539 1_554 S
C449 C445 1.408 . S
C449 C448 1.404 . S
C449 H461 0.930 . S
C450 C446 1.524 . S
C450 H462 0.956 . S
C450 H463 0.961 . S
C450 H464 0.961 . S
C451 C448 1.539 1_556 S
C451 H465 0.958 . S
C451 H466 0.961 . S
C451 H467 0.960 . S
H452 C436 0.931 1_556 S
H453 C441 0.929 . S
H454 C442 0.960 . S
H455 C442 0.962 . S
H456 C442 0.960 1_556 S
H457 C443 0.961 . S
H458 C443 0.961 . S
H459 C443 0.961 . S
H460 C444 0.931 . S
H461 C449 0.930 . S
H462 C450 0.956 . S
H463 C450 0.961 . S
H464 C450 0.961 . S
H465 C451 0.958 . S
H466 C451 0.961 . S
H467 C451 0.960 . S
C85 C13 1.815 1_556 S
C93 C54 1.817 . S
C117 C68 1.833 . S
C125 C26 1.821 . S
C149 C28 1.825 . S
C157 C83 1.831 1_554 S
C181 C43 1.829 . S
C189 C0 1.818 . S
C213 C15 1.835 . S
C221 C57 1.824 . S
C245 C70 1.832 . S
C253 C41 1.829 . S
C277 C12 1.596 . S
C285 C40 1.615 . S
C309 C27 1.598 . S
C317 C55 1.619 . S
C341 C69 1.616 . S
C349 C29 1.626 . S
C373 C82 1.596 . S
C381 C42 1.620 . S
C405 C56 1.605 . S
C413 C1 1.613 1_556 S
C437 C71 1.610 1_554 S
C445 C14 1.624 . S
