# Generated by pormake.
# Topology uks, (4)-cn, num edge types: 1
# Building blocks:
#     Node 0, Type 0, BuildingBlock: NAWXER_clean_sbu_0, # of connection points: 4
#     Node 1, Type 0, BuildingBlock: NAWXER_clean_sbu_0, # of connection points: 4
#     Node 2, Type 0, BuildingBlock: NAWXER_clean_sbu_0, # of connection points: 4
#     Node 3, Type 0, BuildingBlock: NAWXER_clean_sbu_0, # of connection points: 4
#     Node 4, Type 0, BuildingBlock: NAWXER_clean_sbu_0, # of connection points: 4
#     Node 5, Type 0, BuildingBlock: NAWXER_clean_sbu_0, # of connection points: 4
#     Node 6, Type 0, BuildingBlock: NAWXER_clean_sbu_0, # of connection points: 4
#     Node 7, Type 0, BuildingBlock: NAWXER_clean_sbu_0, # of connection points: 4
#     Node 8, Type 0, BuildingBlock: NAWXER_clean_sbu_0, # of connection points: 4
#     Node 9, Type 0, BuildingBlock: NAWXER_clean_sbu_0, # of connection points: 4
#     Node 10, Type 0, BuildingBlock: NAWXER_clean_sbu_0, # of connection points: 4
#     Node 11, Type 0, BuildingBlock: NAWXER_clean_sbu_0, # of connection points: 4
#     Node 12, Type 0, BuildingBlock: NAWXER_clean_sbu_0, # of connection points: 4
#     Node 13, Type 0, BuildingBlock: NAWXER_clean_sbu_0, # of connection points: 4
#     Node 14, Type 0, BuildingBlock: NAWXER_clean_sbu_0, # of connection points: 4
#     Node 15, Type 0, BuildingBlock: NAWXER_clean_sbu_0, # of connection points: 4
#     Node 16, Type 0, BuildingBlock: NAWXER_clean_sbu_0, # of connection points: 4
#     Node 17, Type 0, BuildingBlock: NAWXER_clean_sbu_0, # of connection points: 4
#     Node 18, Type 0, BuildingBlock: NAWXER_clean_sbu_0, # of connection points: 4
#     Node 19, Type 0, BuildingBlock: NAWXER_clean_sbu_0, # of connection points: 4
#     Node 20, Type 0, BuildingBlock: NAWXER_clean_sbu_0, # of connection points: 4
#     Node 21, Type 0, BuildingBlock: NAWXER_clean_sbu_0, # of connection points: 4
#     Node 22, Type 0, BuildingBlock: NAWXER_clean_sbu_0, # of connection points: 4
#     Node 23, Type 0, BuildingBlock: NAWXER_clean_sbu_0, # of connection points: 4
#     Edge 24, Type (0, 0), BuildingBlock: AJUNOK_clean_linker_0, # of connection points: 2
#     Edge 25, Type (0, 0), BuildingBlock: AJUNOK_clean_linker_0, # of connection points: 2
#     Edge 26, Type (0, 0), BuildingBlock: AJUNOK_clean_linker_0, # of connection points: 2
#     Edge 27, Type (0, 0), BuildingBlock: AJUNOK_clean_linker_0, # of connection points: 2
#     Edge 28, Type (0, 0), BuildingBlock: AJUNOK_clean_linker_0, # of connection points: 2
#     Edge 29, Type (0, 0), BuildingBlock: AJUNOK_clean_linker_0, # of connection points: 2
#     Edge 30, Type (0, 0), BuildingBlock: AJUNOK_clean_linker_0, # of connection points: 2
#     Edge 31, Type (0, 0), BuildingBlock: AJUNOK_clean_linker_0, # of connection points: 2
#     Edge 32, Type (0, 0), BuildingBlock: AJUNOK_clean_linker_0, # of connection points: 2
#     Edge 33, Type (0, 0), BuildingBlock: AJUNOK_clean_linker_0, # of connection points: 2
#     Edge 34, Type (0, 0), BuildingBlock: AJUNOK_clean_linker_0, # of connection points: 2
#     Edge 35, Type (0, 0), BuildingBlock: AJUNOK_clean_linker_0, # of connection points: 2
#     Edge 36, Type (0, 0), BuildingBlock: AJUNOK_clean_linker_0, # of connection points: 2
#     Edge 37, Type (0, 0), BuildingBlock: AJUNOK_clean_linker_0, # of connection points: 2
#     Edge 38, Type (0, 0), BuildingBlock: AJUNOK_clean_linker_0, # of connection points: 2
#     Edge 39, Type (0, 0), BuildingBlock: AJUNOK_clean_linker_0, # of connection points: 2
#     Edge 40, Type (0, 0), BuildingBlock: AJUNOK_clean_linker_0, # of connection points: 2
#     Edge 41, Type (0, 0), BuildingBlock: AJUNOK_clean_linker_0, # of connection points: 2
#     Edge 42, Type (0, 0), BuildingBlock: AJUNOK_clean_linker_0, # of connection points: 2
#     Edge 43, Type (0, 0), BuildingBlock: AJUNOK_clean_linker_0, # of connection points: 2
#     Edge 44, Type (0, 0), BuildingBlock: AJUNOK_clean_linker_0, # of connection points: 2
#     Edge 45, Type (0, 0), BuildingBlock: AJUNOK_clean_linker_0, # of connection points: 2
#     Edge 46, Type (0, 0), BuildingBlock: AJUNOK_clean_linker_0, # of connection points: 2
#     Edge 47, Type (0, 0), BuildingBlock: AJUNOK_clean_linker_0, # of connection points: 2
#     Edge 48, Type (0, 0), BuildingBlock: AJUNOK_clean_linker_0, # of connection points: 2
#     Edge 49, Type (0, 0), BuildingBlock: AJUNOK_clean_linker_0, # of connection points: 2
#     Edge 50, Type (0, 0), BuildingBlock: AJUNOK_clean_linker_0, # of connection points: 2
#     Edge 51, Type (0, 0), BuildingBlock: AJUNOK_clean_linker_0, # of connection points: 2
#     Edge 52, Type (0, 0), BuildingBlock: AJUNOK_clean_linker_0, # of connection points: 2
#     Edge 53, Type (0, 0), BuildingBlock: AJUNOK_clean_linker_0, # of connection points: 2
#     Edge 54, Type (0, 0), BuildingBlock: AJUNOK_clean_linker_0, # of connection points: 2
#     Edge 55, Type (0, 0), BuildingBlock: AJUNOK_clean_linker_0, # of connection points: 2
#     Edge 56, Type (0, 0), BuildingBlock: AJUNOK_clean_linker_0, # of connection points: 2
#     Edge 57, Type (0, 0), BuildingBlock: AJUNOK_clean_linker_0, # of connection points: 2
#     Edge 58, Type (0, 0), BuildingBlock: AJUNOK_clean_linker_0, # of connection points: 2
#     Edge 59, Type (0, 0), BuildingBlock: AJUNOK_clean_linker_0, # of connection points: 2
#     Edge 60, Type (0, 0), BuildingBlock: AJUNOK_clean_linker_0, # of connection points: 2
#     Edge 61, Type (0, 0), BuildingBlock: AJUNOK_clean_linker_0, # of connection points: 2
#     Edge 62, Type (0, 0), BuildingBlock: AJUNOK_clean_linker_0, # of connection points: 2
#     Edge 63, Type (0, 0), BuildingBlock: AJUNOK_clean_linker_0, # of connection points: 2
#     Edge 64, Type (0, 0), BuildingBlock: AJUNOK_clean_linker_0, # of connection points: 2
#     Edge 65, Type (0, 0), BuildingBlock: AJUNOK_clean_linker_0, # of connection points: 2
#     Edge 66, Type (0, 0), BuildingBlock: AJUNOK_clean_linker_0, # of connection points: 2
#     Edge 67, Type (0, 0), BuildingBlock: AJUNOK_clean_linker_0, # of connection points: 2
#     Edge 68, Type (0, 0), BuildingBlock: AJUNOK_clean_linker_0, # of connection points: 2
#     Edge 69, Type (0, 0), BuildingBlock: AJUNOK_clean_linker_0, # of connection points: 2
#     Edge 70, Type (0, 0), BuildingBlock: AJUNOK_clean_linker_0, # of connection points: 2
#     Edge 71, Type (0, 0), BuildingBlock: AJUNOK_clean_linker_0, # of connection points: 2
# Relax obj value: 0.065
# Max RMSD: 0.064
# Mean RMSD: 0.064
data_MOF--net-uks--node1-NAWXER_clean_sbu_0--edge1-AJUNOK_clean_linker_0
_symmetry_space_group_name_H-M    P1
_symmetry_Int_Tables_number       1
_symmetry_cell_setting            triclinic
loop_
_symmetry_equiv_pos_as_xyz
'x, y, z'
_cell_length_a     38.839151
_cell_length_b     38.996183
_cell_length_c     38.793523
_cell_angle_alpha  89.844741
_cell_angle_beta   89.491376
_cell_angle_gamma 89.996256
loop_
_atom_site_label
_atom_site_type_symbol
_atom_site_fract_x
_atom_site_fract_y
_atom_site_fract_z
_atom_type_partial_charge
C0 C 0.10207 0.3876 0.67953 0.0
C1 C 0.21278 0.39538 0.74353 0.0
O2 O 0.13111 0.37912 0.66626 0.0
Zn3 Zn 0.15927 0.39278 0.70646 0.0
O4 O 0.10095 0.40017 0.70989 0.0
Zn5 Zn 0.13234 0.41249 0.75237 0.0
O6 O 0.12491 0.46281 0.75405 0.0
O7 O 0.15091 0.44637 0.70619 0.0
O8 O 0.18592 0.40536 0.76 0.0
O9 O 0.20986 0.38698 0.71193 0.0
O10 O 0.13936 0.35504 0.73989 0.0
O11 O 0.1129 0.37809 0.78484 0.0
C12 C 0.13746 0.47025 0.72446 0.0
C13 C 0.12169 0.3516 0.76756 0.0
C14 C 0.58568 0.64546 0.20116 0.0
C15 C 0.70562 0.6399 0.23677 0.0
O16 O 0.58982 0.63313 0.23148 0.0
Zn17 Zn 0.63036 0.62251 0.26678 0.0
O18 O 0.61152 0.65727 0.18452 0.0
Zn19 Zn 0.64582 0.64692 0.2187 0.0
O20 O 0.64326 0.59264 0.2182 0.0
O21 O 0.62678 0.57216 0.26879 0.0
O22 O 0.69465 0.65503 0.20993 0.0
O23 O 0.68426 0.6278 0.25898 0.0
O24 O 0.62064 0.65313 0.30625 0.0
O25 O 0.63319 0.68162 0.25855 0.0
C26 C 0.63587 0.567 0.23753 0.0
C27 C 0.62435 0.68153 0.29039 0.0
C28 C 0.33405 0.17824 0.71893 0.0
C29 C 0.43723 0.18779 0.64282 0.0
O30 O 0.3346 0.19265 0.68934 0.0
Zn31 Zn 0.38249 0.18128 0.67612 0.0
O32 O 0.36099 0.16266 0.72941 0.0
Zn33 Zn 0.41216 0.15176 0.71322 0.0
O34 O 0.43753 0.17601 0.74941 0.0
O35 O 0.40929 0.20966 0.71335 0.0
O36 O 0.44074 0.16919 0.66976 0.0
O37 O 0.40765 0.19985 0.63548 0.0
O38 O 0.37945 0.12725 0.66893 0.0
O39 O 0.41162 0.10216 0.70813 0.0
C40 C 0.42938 0.20596 0.73894 0.0
C41 C 0.39111 0.09981 0.68282 0.0
C42 C 0.9391 0.86295 0.18709 0.0
C43 C 0.81618 0.86427 0.21853 0.0
O44 O 0.93312 0.87905 0.21529 0.0
Zn45 Zn 0.88902 0.89308 0.24573 0.0
O46 O 0.91387 0.85062 0.17057 0.0
Zn47 Zn 0.87642 0.8636 0.20125 0.0
O48 O 0.87113 0.91739 0.19479 0.0
O49 O 0.88706 0.94229 0.24307 0.0
O50 O 0.82886 0.85033 0.1916 0.0
O51 O 0.83577 0.87997 0.23966 0.0
O52 O 0.89704 0.87172 0.28988 0.0
O53 O 0.88606 0.8351 0.24773 0.0
C54 C 0.87516 0.94452 0.21274 0.0
C55 C 0.89286 0.84115 0.27944 0.0
C56 C 0.14787 0.08727 0.83392 0.0
C57 C 0.12253 0.20851 0.80209 0.0
O58 O 0.13004 0.09678 0.80817 0.0
Zn59 Zn 0.13458 0.14722 0.81346 0.0
O60 O 0.16221 0.11024 0.85251 0.0
Zn61 Zn 0.16727 0.16454 0.8555 0.0
O62 O 0.14504 0.17679 0.89972 0.0
O63 O 0.10866 0.15742 0.86078 0.0
O64 O 0.14339 0.20368 0.82684 0.0
O65 O 0.11095 0.18271 0.78553 0.0
O66 O 0.1861 0.15755 0.7982 0.0
O67 O 0.21597 0.17334 0.84345 0.0
C68 C 0.11435 0.16946 0.89083 0.0
C69 C 0.21448 0.16771 0.81113 0.0
C70 C 0.94922 0.64008 0.3527 0.0
C71 C 0.84132 0.63349 0.29096 0.0
O72 O 0.94439 0.62762 0.32285 0.0
Zn73 Zn 0.89548 0.63318 0.32189 0.0
O74 O 0.92339 0.64955 0.37114 0.0
Zn75 Zn 0.86845 0.65267 0.36643 0.0
O76 O 0.85061 0.61917 0.39989 0.0
O77 O 0.87838 0.5949 0.35656 0.0
O78 O 0.83759 0.64394 0.32203 0.0
O79 O 0.87063 0.62394 0.27984 0.0
O80 O 0.89187 0.68738 0.32563 0.0
O81 O 0.86245 0.70224 0.37229 0.0
C82 C 0.86188 0.59228 0.38511 0.0
C83 C 0.87952 0.71068 0.34534 0.0
C84 C 0.45187 0.37561 0.88483 0.0
C85 C 0.3453 0.38987 0.81627 0.0
O86 O 0.4214 0.37001 0.89599 0.0
Zn87 Zn 0.39788 0.38484 0.85366 0.0
O88 O 0.45645 0.38776 0.85441 0.0
Zn89 Zn 0.42721 0.40109 0.80953 0.0
O90 O 0.43771 0.44967 0.8037 0.0
O91 O 0.40832 0.43891 0.85134 0.0
O92 O 0.37288 0.39762 0.79957 0.0
O93 O 0.34776 0.38156 0.84791 0.0
O94 O 0.41633 0.34481 0.82137 0.0
O95 O 0.44601 0.367 0.77799 0.0
C96 C 0.42358 0.46046 0.83131 0.0
C97 C 0.43495 0.34079 0.79435 0.0
C98 C 0.56353 0.90937 0.31824 0.0
C99 C 0.67769 0.88237 0.27006 0.0
O100 O 0.57204 0.91016 0.28647 0.0
Zn101 Zn 0.61982 0.89612 0.29231 0.0
O102 O 0.58555 0.89942 0.34055 0.0
Zn103 Zn 0.63807 0.88363 0.34322 0.0
O104 O 0.65783 0.92007 0.37136 0.0
O105 O 0.63928 0.9385 0.32102 0.0
O106 O 0.67492 0.87867 0.30278 0.0
O107 O 0.65191 0.89309 0.2531 0.0
O108 O 0.61526 0.84328 0.3069 0.0
O109 O 0.63513 0.83596 0.35944 0.0
C110 C 0.65253 0.94474 0.35048 0.0
C111 C 0.62205 0.82333 0.33229 0.0
C112 C 0.77138 0.14655 0.36062 0.0
C113 C 0.71428 0.13455 0.47383 0.0
O114 O 0.78594 0.13621 0.38804 0.0
Zn115 Zn 0.74422 0.13582 0.41754 0.0
O116 O 0.73873 0.15079 0.36053 0.0
Zn117 Zn 0.69574 0.1486 0.3944 0.0
O118 O 0.68058 0.19602 0.39046 0.0
O119 O 0.7307 0.18929 0.41642 0.0
O120 O 0.69413 0.14164 0.44886 0.0
O121 O 0.74599 0.12867 0.46746 0.0
O122 O 0.71587 0.09221 0.39984 0.0
O123 O 0.66807 0.11152 0.37672 0.0
C124 C 0.70653 0.20882 0.40562 0.0
C125 C 0.68727 0.08638 0.38465 0.0
C126 C 0.8959 0.16728 0.95828 0.0
C127 C 0.91134 0.20726 0.83785 0.0
O128 O 0.90582 0.19835 0.95454 0.0
Zn129 Zn 0.91704 0.23491 0.91553 0.0
O130 O 0.89001 0.14892 0.93177 0.0
Zn131 Zn 0.90174 0.18439 0.89754 0.0
O132 O 0.95544 0.19055 0.90762 0.0
O133 O 0.96618 0.24325 0.92501 0.0
O134 O 0.90069 0.17765 0.8469 0.0
O135 O 0.91751 0.22949 0.86121 0.0
O136 O 0.87961 0.26828 0.92396 0.0
O137 O 0.85984 0.21812 0.9073 0.0
C138 C 0.97695 0.21313 0.918 0.0
C139 C 0.85413 0.2487 0.91769 0.0
C140 C 0.8586 0.35625 0.44683 0.0
C141 C 0.81302 0.38745 0.33508 0.0
O142 O 0.83057 0.37352 0.44933 0.0
Zn143 Zn 0.79385 0.39678 0.41564 0.0
O144 O 0.87165 0.35033 0.41736 0.0
Zn145 Zn 0.83665 0.37347 0.39077 0.0
O146 O 0.84226 0.42755 0.40139 0.0
O147 O 0.79472 0.4448 0.42735 0.0
O148 O 0.84138 0.37258 0.34142 0.0
O149 O 0.79363 0.39744 0.36008 0.0
O150 O 0.75231 0.37135 0.42605 0.0
O151 O 0.79216 0.34108 0.39858 0.0
C152 C 0.82435 0.4517 0.41511 0.0
C153 C 0.76201 0.34352 0.4121 0.0
C154 C 0.65261 0.3157 0.84128 0.0
C155 C 0.67172 0.3843 0.94527 0.0
O156 O 0.64682 0.30011 0.86975 0.0
Zn157 Zn 0.64774 0.3087 0.92325 0.0
O158 O 0.66217 0.34696 0.84171 0.0
Zn159 Zn 0.66308 0.35292 0.89177 0.0
O160 O 0.70445 0.32079 0.90631 0.0
O161 O 0.6853 0.2774 0.93746 0.0
O162 O 0.6771 0.39531 0.91472 0.0
O163 O 0.6611 0.35364 0.95039 0.0
O164 O 0.59815 0.30422 0.93545 0.0
O165 O 0.60991 0.35055 0.90484 0.0
C166 C 0.71047 0.29343 0.92344 0.0
C167 C 0.58798 0.33181 0.92098 0.0
C168 C 0.75684 0.39465 0.19739 0.0
C169 C 0.70919 0.40978 0.08279 0.0
O170 O 0.77234 0.40662 0.17097 0.0
Zn171 Zn 0.73399 0.40141 0.13988 0.0
O172 O 0.72579 0.38391 0.19495 0.0
Zn173 Zn 0.68648 0.37935 0.15697 0.0
O174 O 0.68011 0.33002 0.15449 0.0
O175 O 0.73103 0.3468 0.13561 0.0
O176 O 0.68766 0.39593 0.10397 0.0
O177 O 0.73925 0.41711 0.093 0.0
O178 O 0.69722 0.43634 0.16193 0.0
O179 O 0.65103 0.40723 0.17855 0.0
C180 C 0.70961 0.32259 0.1422 0.0
C181 C 0.66734 0.43543 0.17625 0.0
C182 C 0.6367 0.24316 0.71115 0.0
C183 C 0.66489 0.18176 0.60508 0.0
O184 O 0.63239 0.26128 0.68396 0.0
Zn185 Zn 0.6359 0.25567 0.62933 0.0
O186 O 0.64384 0.21145 0.70814 0.0
Zn187 Zn 0.64763 0.20984 0.65839 0.0
O188 O 0.68909 0.24438 0.65074 0.0
O189 O 0.6733 0.28952 0.62053 0.0
O190 O 0.66601 0.16956 0.63548 0.0
O191 O 0.65398 0.21239 0.5999 0.0
O192 O 0.58771 0.26131 0.61388 0.0
O193 O 0.59596 0.21224 0.64082 0.0
C194 C 0.69655 0.27328 0.63697 0.0
C195 C 0.57605 0.23252 0.62429 0.0
C196 C 0.76999 0.18704 0.14417 0.0
C197 C 0.82338 0.07617 0.16723 0.0
O198 O 0.80219 0.18878 0.15095 0.0
Zn199 Zn 0.84392 0.15538 0.16333 0.0
O200 O 0.75509 0.158 0.14325 0.0
Zn201 Zn 0.7954 0.13046 0.15371 0.0
O202 O 0.80445 0.14475 0.20591 0.0
O203 O 0.85569 0.16911 0.21036 0.0
O204 O 0.79239 0.08102 0.15795 0.0
O205 O 0.84395 0.10161 0.16962 0.0
O206 O 0.87549 0.16156 0.12476 0.0
O207 O 0.82739 0.13639 0.10909 0.0
C208 C 0.82784 0.15853 0.22432 0.0
C209 C 0.85723 0.14817 0.10126 0.0
C210 C 0.91649 0.25785 0.6965 0.0
C211 C 0.90548 0.30502 0.5788 0.0
O212 O 0.92036 0.24099 0.66867 0.0
Zn213 Zn 0.9132 0.27923 0.63619 0.0
O214 O 0.90962 0.28997 0.69507 0.0
Zn215 Zn 0.90081 0.32906 0.65764 0.0
O216 O 0.85225 0.34182 0.66472 0.0
O217 O 0.85975 0.28946 0.64432 0.0
O218 O 0.90104 0.32606 0.60359 0.0
O219 O 0.91348 0.27399 0.58551 0.0
O220 O 0.95696 0.31213 0.64347 0.0
O221 O 0.93821 0.36104 0.66486 0.0
C222 C 0.83964 0.31358 0.65426 0.0
C223 C 0.96312 0.34267 0.65394 0.0
C224 C 0.33261 0.72009 0.16368 0.0
C225 C 0.44708 0.66962 0.15559 0.0
O226 O 0.355 0.73903 0.14868 0.0
Zn227 Zn 0.40709 0.73772 0.13313 0.0
O228 O 0.34013 0.68959 0.1728 0.0
Zn229 Zn 0.38786 0.6911 0.15791 0.0
O230 O 0.40673 0.72888 0.19179 0.0
O231 O 0.42397 0.77494 0.16318 0.0
O232 O 0.42017 0.65439 0.1667 0.0
O233 O 0.4446 0.69967 0.1425 0.0
O234 O 0.40354 0.73893 0.08213 0.0
O235 O 0.38228 0.69121 0.10397 0.0
C236 C 0.41955 0.75903 0.19172 0.0
C237 C 0.38846 0.71023 0.07777 0.0
C238 C 0.39388 0.84674 0.45221 0.0
C239 C 0.40923 0.81078 0.33089 0.0
O240 O 0.37982 0.86697 0.43026 0.0
Zn241 Zn 0.37276 0.87077 0.37534 0.0
O242 O 0.40933 0.82007 0.44132 0.0
Zn243 Zn 0.4012 0.82648 0.39204 0.0
O244 O 0.43115 0.87021 0.37939 0.0
O245 O 0.39744 0.91241 0.36182 0.0
O246 O 0.41971 0.79483 0.35755 0.0
O247 O 0.39133 0.83812 0.33477 0.0
O248 O 0.32283 0.86708 0.37037 0.0
O249 O 0.34723 0.81878 0.38686 0.0
C250 C 0.4274 0.90064 0.36766 0.0
C251 C 0.32016 0.83556 0.37853 0.0
C252 C 0.24579 0.832 0.8607 0.0
C253 C 0.18733 0.94513 0.86276 0.0
O254 O 0.25667 0.85358 0.88277 0.0
Zn255 Zn 0.24756 0.9037 0.90129 0.0
O256 O 0.21873 0.83888 0.84349 0.0
Zn257 Zn 0.21139 0.88517 0.86321 0.0
O258 O 0.25795 0.90663 0.8436 0.0
O259 O 0.2927 0.92203 0.88574 0.0
O260 O 0.17751 0.91896 0.8459 0.0
O261 O 0.21242 0.94193 0.8838 0.0
O262 O 0.23534 0.89467 0.94966 0.0
O263 O 0.1967 0.87245 0.91514 0.0
C264 C 0.28682 0.91856 0.85361 0.0
C265 C 0.20806 0.87703 0.94572 0.0
C266 C 0.1931 0.75565 0.37594 0.0
C267 C 0.08601 0.68948 0.38233 0.0
O268 O 0.1634 0.76722 0.3836 0.0
Zn269 Zn 0.13826 0.72391 0.38074 0.0
O270 O 0.1966 0.72369 0.36911 0.0
Zn271 Zn 0.1666 0.67825 0.36605 0.0
O272 O 0.16876 0.66653 0.31616 0.0
O273 O 0.13795 0.71276 0.32704 0.0
O274 O 0.11267 0.67186 0.3743 0.0
O275 O 0.08918 0.7212 0.3896 0.0
O276 O 0.15718 0.69471 0.42284 0.0
O277 O 0.18601 0.64987 0.40369 0.0
C278 C 0.14927 0.6906 0.30546 0.0
C279 C 0.17446 0.66744 0.42894 0.0
C280 C 0.34852 0.65854 0.94199 0.0
C281 C 0.30245 0.62087 0.82971 0.0
O282 O 0.36751 0.66643 0.91598 0.0
Zn283 Zn 0.36783 0.65977 0.86144 0.0
O284 O 0.32156 0.64067 0.93714 0.0
Zn285 Zn 0.32372 0.63603 0.88698 0.0
O286 O 0.36532 0.60241 0.87734 0.0
O287 O 0.40753 0.63002 0.85082 0.0
O288 O 0.288 0.61458 0.85876 0.0
O289 O 0.33122 0.63672 0.82866 0.0
O290 O 0.36264 0.70747 0.84552 0.0
O291 O 0.31554 0.68673 0.87026 0.0
C292 C 0.39511 0.60223 0.86302 0.0
C293 C 0.33113 0.71097 0.85445 0.0
C294 C 0.08147 0.83027 0.15047 0.0
C295 C 0.19992 0.78482 0.15047 0.0
O296 O 0.08624 0.80339 0.13213 0.0
Zn297 Zn 0.12681 0.77061 0.116 0.0
O298 O 0.1072 0.84438 0.16485 0.0
Zn299 Zn 0.14325 0.8126 0.14951 0.0
O300 O 0.15102 0.82301 0.09613 0.0
O301 O 0.13254 0.77915 0.06593 0.0
O302 O 0.19122 0.81242 0.16597 0.0
O303 O 0.17824 0.76977 0.13129 0.0
O304 O 0.11503 0.72603 0.1386 0.0
O305 O 0.12825 0.76707 0.17536 0.0
C306 C 0.14655 0.80872 0.06682 0.0
C307 C 0.11942 0.7361 0.16958 0.0
C308 C 0.24409 0.63089 0.69405 0.0
C309 C 0.20213 0.64328 0.57511 0.0
O310 O 0.21535 0.64669 0.69159 0.0
Zn311 Zn 0.1795 0.66245 0.65321 0.0
O312 O 0.26023 0.62212 0.66669 0.0
Zn313 Zn 0.22545 0.63794 0.63429 0.0
O314 O 0.22946 0.69234 0.63982 0.0
O315 O 0.17992 0.71273 0.65862 0.0
O316 O 0.23054 0.63037 0.58472 0.0
O317 O 0.1815 0.65544 0.59809 0.0
O318 O 0.14094 0.63378 0.66976 0.0
O319 O 0.18512 0.60396 0.6498 0.0
C320 C 0.21097 0.71797 0.6492 0.0
C321 C 0.15525 0.60492 0.664 0.0
C322 C 0.28144 0.85102 0.65117 0.0
C323 C 0.34028 0.96361 0.64714 0.0
O324 O 0.2676 0.87973 0.64393 0.0
Zn325 Zn 0.3093 0.9084 0.64666 0.0
O326 O 0.31371 0.8501 0.65782 0.0
Zn327 Zn 0.357 0.88368 0.66119 0.0
O328 O 0.36868 0.88135 0.71083 0.0
O329 O 0.32008 0.90848 0.7002 0.0
O330 O 0.35979 0.93817 0.65453 0.0
O331 O 0.30894 0.95804 0.63935 0.0
O332 O 0.3399 0.89113 0.60439 0.0
O333 O 0.38698 0.8664 0.62369 0.0
C334 C 0.34292 0.89868 0.72166 0.0
C335 C 0.36839 0.87561 0.59837 0.0
C336 C 0.11819 0.26992 0.81963 0.0
C337 C 0.11365 0.24466 0.79392 0.0
C338 C 0.11748 0.30507 0.81182 0.0
C339 C 0.1125 0.31621 0.77792 0.0
H340 H 0.12427 0.2625 0.84578 0.0
H341 H 0.1235 0.32336 0.83186 0.0
S342 S 0.09333 0.26122 0.70239 0.0
N343 N 0.09938 0.23372 0.73421 0.0
N344 N 0.09814 0.29975 0.71927 0.0
C345 C 0.10486 0.29144 0.75259 0.0
C346 C 0.10534 0.25565 0.76065 0.0
C347 C 0.76566 0.66309 0.23883 0.0
C348 C 0.74268 0.63556 0.24331 0.0
C349 C 0.79919 0.66134 0.25205 0.0
C350 C 0.81071 0.63178 0.26929 0.0
H351 H 0.75694 0.68688 0.22735 0.0
H352 H 0.81546 0.68388 0.2506 0.0
S353 S 0.76208 0.55136 0.2835 0.0
N354 N 0.73494 0.57678 0.26313 0.0
N355 N 0.79798 0.57365 0.28756 0.0
C356 C 0.78888 0.60335 0.27164 0.0
C357 C 0.7548 0.60518 0.25864 0.0
C358 C 0.44906 0.29947 0.74725 0.0
C359 C 0.44188 0.30549 0.7822 0.0
C360 C 0.4486 0.26611 0.73407 0.0
C361 C 0.44133 0.23766 0.75541 0.0
H362 H 0.4526 0.3207 0.7295 0.0
H363 H 0.4516 0.26277 0.70647 0.0
S364 S 0.42788 0.23906 0.84986 0.0
N365 N 0.43276 0.27976 0.83897 0.0
N366 N 0.43168 0.21707 0.8137 0.0
C367 C 0.43775 0.24292 0.79089 0.0
C368 C 0.43799 0.27692 0.8044 0.0
C369 C 0.7369 0.85836 0.27374 0.0
C370 C 0.71127 0.87386 0.25343 0.0
C371 C 0.77018 0.85309 0.26102 0.0
C372 C 0.77928 0.86252 0.22727 0.0
H373 H 0.73175 0.85122 0.30029 0.0
H374 H 0.78941 0.84276 0.27828 0.0
S375 S 0.72175 0.90111 0.16217 0.0
N376 N 0.69698 0.89647 0.19674 0.0
N377 N 0.76003 0.88607 0.17278 0.0
C378 C 0.75373 0.87609 0.20579 0.0
C379 C 0.71958 0.88186 0.21889 0.0
C380 C 0.83497 0.13972 0.28553 0.0
C381 C 0.82056 0.16244 0.26138 0.0
C382 C 0.82049 0.13608 0.31883 0.0
C383 C 0.79092 0.15473 0.32855 0.0
H384 H 0.85595 0.12299 0.27788 0.0
H385 H 0.83106 0.11699 0.33609 0.0
S386 S 0.74667 0.22072 0.27563 0.0
N387 N 0.77758 0.20595 0.25026 0.0
N388 N 0.75055 0.19975 0.31242 0.0
C389 C 0.77804 0.17929 0.30522 0.0
C390 C 0.79277 0.18293 0.27168 0.0
C391 C 0.90183 0.21122 0.73955 0.0
C392 C 0.91967 0.24156 0.73097 0.0
C393 C 0.90015 0.19928 0.77397 0.0
C394 C 0.91638 0.21723 0.80088 0.0
H395 H 0.88768 0.19761 0.71992 0.0
H396 H 0.88494 0.17666 0.77969 0.0
S397 S 0.9711 0.29497 0.79032 0.0
N398 N 0.95683 0.28706 0.75121 0.0
N399 N 0.95449 0.2647 0.81519 0.0
C400 C 0.93613 0.24638 0.7919 0.0
C401 C 0.93753 0.25852 0.75717 0.0
C402 C 0.76501 0.39505 0.29408 0.0
C403 C 0.80053 0.39103 0.2994 0.0
C404 C 0.75151 0.39651 0.26095 0.0
C405 C 0.77296 0.39447 0.23165 0.0
H406 H 0.74719 0.39627 0.3157 0.0
H407 H 0.72389 0.39923 0.25834 0.0
S408 S 0.86796 0.38534 0.23125 0.0
N409 N 0.85719 0.38591 0.27255 0.0
N410 N 0.83158 0.38924 0.20983 0.0
C411 C 0.80864 0.39136 0.23638 0.0
C412 C 0.82247 0.38939 0.27036 0.0
C413 C 0.63826 0.29686 0.74638 0.0
C414 C 0.63796 0.26067 0.74512 0.0
C415 C 0.64327 0.3145 0.7774 0.0
C416 C 0.64782 0.29673 0.80853 0.0
H417 H 0.63541 0.3119 0.72307 0.0
H418 H 0.64349 0.34228 0.77693 0.0
S419 S 0.6486 0.20191 0.81965 0.0
N420 N 0.64221 0.20775 0.77806 0.0
N421 N 0.65143 0.24069 0.83631 0.0
C422 C 0.64701 0.26051 0.8078 0.0
C423 C 0.64211 0.24257 0.77616 0.0
C424 C 0.29172 0.76675 0.17882 0.0
C425 C 0.29747 0.73343 0.16612 0.0
C426 C 0.25991 0.78321 0.17443 0.0
C427 C 0.23329 0.76723 0.15618 0.0
H428 H 0.31233 0.78052 0.19135 0.0
H429 H 0.25656 0.80892 0.18443 0.0
S430 S 0.2369 0.68001 0.11676 0.0
N431 N 0.27476 0.68495 0.13498 0.0
N432 N 0.21549 0.7156 0.12513 0.0
C433 C 0.23898 0.73351 0.14366 0.0
C434 C 0.27095 0.71665 0.14907 0.0
C435 C 0.28725 0.78092 0.37645 0.0
C436 C 0.28677 0.81698 0.37737 0.0
C437 C 0.25688 0.76182 0.37572 0.0
C438 C 0.22435 0.77772 0.37616 0.0
H439 H 0.31142 0.76705 0.37612 0.0
H440 H 0.25914 0.73413 0.37516 0.0
S441 S 0.20849 0.87158 0.37837 0.0
N442 N 0.25089 0.8681 0.37838 0.0
N443 N 0.19342 0.83198 0.37737 0.0
C444 C 0.22327 0.81383 0.37703 0.0
C445 C 0.2545 0.83348 0.37746 0.0
C446 C 0.30233 0.80216 0.86525 0.0
C447 C 0.2677 0.80138 0.85424 0.0
C448 C 0.32399 0.77364 0.86218 0.0
C449 C 0.31166 0.74285 0.84875 0.0
H450 H 0.31274 0.82479 0.87741 0.0
H451 H 0.34978 0.77506 0.87251 0.0
S452 S 0.2243 0.72714 0.81406 0.0
N453 N 0.22312 0.76749 0.82698 0.0
N454 N 0.2635 0.71316 0.82253 0.0
C455 C 0.27762 0.7418 0.83642 0.0
C456 C 0.25571 0.77121 0.83882 0.0
C457 C 0.26328 0.75526 0.64865 0.0
C458 C 0.22712 0.75276 0.65 0.0
C459 C 0.28009 0.787 0.64921 0.0
C460 C 0.26171 0.8181 0.65079 0.0
H461 H 0.27905 0.73238 0.64737 0.0
H462 H 0.30797 0.787 0.64807 0.0
S463 S 0.16651 0.82627 0.65482 0.0
N464 N 0.17326 0.78446 0.65324 0.0
N465 N 0.20497 0.84438 0.65383 0.0
C466 C 0.22547 0.81621 0.65206 0.0
C467 C 0.2082 0.78357 0.65187 0.0
C468 C 0.9173 0.78559 0.29666 0.0
C469 C 0.89385 0.81202 0.30331 0.0
C470 C 0.91365 0.7537 0.31264 0.0
C471 C 0.88589 0.74676 0.3353 0.0
H472 H 0.93762 0.78906 0.27763 0.0
H473 H 0.93184 0.73374 0.30573 0.0
S474 S 0.81869 0.80871 0.36266 0.0
N475 N 0.84334 0.8306 0.33551 0.0
N476 N 0.83591 0.77003 0.36536 0.0
C477 C 0.86342 0.77375 0.34382 0.0
C478 C 0.86747 0.80656 0.32771 0.0
C479 C 0.27808 0.39424 0.74432 0.0
C480 C 0.2464 0.39301 0.7622 0.0
C481 C 0.30971 0.3933 0.76197 0.0
C482 C 0.31118 0.39053 0.79828 0.0
H483 H 0.2785 0.39655 0.71649 0.0
H484 H 0.33327 0.39469 0.74687 0.0
S485 S 0.23554 0.38446 0.85724 0.0
N486 N 0.21865 0.38767 0.81848 0.0
N487 N 0.27764 0.38554 0.85124 0.0
C488 C 0.27965 0.38856 0.81637 0.0
C489 C 0.24749 0.38991 0.79848 0.0
C490 C 0.59869 0.77418 0.29879 0.0
C491 C 0.61745 0.78566 0.32747 0.0
C492 C 0.59921 0.73979 0.28866 0.0
C493 C 0.61801 0.7151 0.30701 0.0
H494 H 0.58478 0.79221 0.28281 0.0
H495 H 0.58597 0.73272 0.26524 0.0
S496 S 0.66849 0.73037 0.38606 0.0
N497 N 0.65322 0.7686 0.37583 0.0
N498 N 0.65363 0.70359 0.35678 0.0
C499 C 0.63478 0.72541 0.3372 0.0
C500 C 0.63459 0.76077 0.34746 0.0
C501 C 0.30695 0.17197 0.7776 0.0
C502 C 0.3031 0.17866 0.74201 0.0
C503 C 0.27842 0.16956 0.80004 0.0
C504 C 0.24471 0.17314 0.78777 0.0
H505 H 0.33234 0.1682 0.78832 0.0
H506 H 0.2828 0.16381 0.82698 0.0
S507 S 0.22031 0.19327 0.69743 0.0
N508 N 0.26274 0.19073 0.6961 0.0
N509 N 0.20912 0.18583 0.73793 0.0
C510 C 0.24046 0.18081 0.75242 0.0
C511 C 0.26959 0.18371 0.72968 0.0
C512 C 0.31721 0.93782 0.76544 0.0
C513 C 0.33819 0.90912 0.75829 0.0
C514 C 0.3049 0.94447 0.79877 0.0
C515 C 0.31329 0.92295 0.82647 0.0
H516 H 0.3081 0.95401 0.74468 0.0
H517 H 0.2858 0.96448 0.80219 0.0
S518 S 0.37314 0.84893 0.82321 0.0
N519 N 0.37128 0.8623 0.7828 0.0
N520 N 0.34827 0.87514 0.84577 0.0
C521 C 0.33761 0.89678 0.82057 0.0
C522 C 0.35005 0.88975 0.78637 0.0
C523 C 0.10768 0.71252 0.26186 0.0
C524 C 0.13791 0.69376 0.26888 0.0
C525 C 0.09888 0.72203 0.22819 0.0
C526 C 0.11963 0.71291 0.19986 0.0
H527 H 0.09154 0.72176 0.28279 0.0
H528 H 0.07725 0.7392 0.22462 0.0
S529 S 0.19887 0.65997 0.20327 0.0
N530 N 0.18658 0.66318 0.24402 0.0
N531 N 0.1699 0.68109 0.18057 0.0
C532 C 0.14815 0.69149 0.20604 0.0
C533 C 0.1573 0.68185 0.24056 0.0
C534 C 0.30608 0.61109 0.7665 0.0
C535 C 0.28541 0.61491 0.79634 0.0
C536 C 0.29234 0.61476 0.73341 0.0
C537 C 0.25744 0.62278 0.72889 0.0
H538 H 0.33356 0.60696 0.76878 0.0
H539 H 0.30956 0.61298 0.71137 0.0
S540 S 0.19146 0.63085 0.79858 0.0
N541 N 0.22777 0.6237 0.81919 0.0
N542 N 0.20157 0.63043 0.75716 0.0
C543 C 0.23597 0.62422 0.75851 0.0
C544 C 0.25003 0.62022 0.7922 0.0
C545 C 0.40838 0.81958 0.2667 0.0
C546 C 0.41724 0.79878 0.29523 0.0
C547 C 0.41231 0.80797 0.23263 0.0
C548 C 0.42513 0.77506 0.22576 0.0
H549 H 0.39712 0.84469 0.27065 0.0
H550 H 0.40307 0.82393 0.21176 0.0
S551 S 0.45686 0.7123 0.29022 0.0
N552 N 0.44312 0.745 0.31356 0.0
N553 N 0.4502 0.72318 0.24967 0.0
C554 C 0.4363 0.75494 0.25374 0.0
C555 C 0.43246 0.76677 0.2884 0.0
C556 C 0.77394 0.30507 0.91932 0.0
C557 C 0.74693 0.28153 0.9258 0.0
C558 C 0.8086 0.29467 0.918 0.0
C559 C 0.81776 0.26014 0.92254 0.0
H560 H 0.76827 0.33189 0.9147 0.0
H561 H 0.8282 0.31363 0.91219 0.0
S562 S 0.75761 0.18865 0.9434 0.0
N563 N 0.73231 0.22243 0.93929 0.0
N564 N 0.79719 0.20269 0.93646 0.0
C565 C 0.79119 0.2365 0.93033 0.0
C566 C 0.75591 0.24721 0.93211 0.0
C567 C 0.79037 0.27455 0.66309 0.0
C568 C 0.80215 0.30707 0.65307 0.0
C569 C 0.75636 0.26454 0.6578 0.0
C570 C 0.73229 0.2864 0.64179 0.0
H571 H 0.80789 0.25626 0.67463 0.0
H572 H 0.74922 0.23891 0.66598 0.0
S573 S 0.75033 0.37476 0.61074 0.0
N574 N 0.78743 0.36164 0.62668 0.0
N575 N 0.72292 0.34276 0.61644 0.0
C576 C 0.74356 0.31941 0.63204 0.0
C577 C 0.77855 0.32979 0.63782 0.0
C578 C 0.75359 0.27998 0.12305 0.0
C579 C 0.72115 0.28644 0.13821 0.0
C580 C 0.76823 0.24726 0.1236 0.0
C581 C 0.75094 0.2194 0.13887 0.0
H582 H 0.7686 0.30064 0.11179 0.0
H583 H 0.79388 0.24397 0.11286 0.0
S584 S 0.66433 0.22143 0.17968 0.0
N585 N 0.67119 0.26139 0.16715 0.0
N586 N 0.69884 0.19959 0.16768 0.0
C587 C 0.71766 0.22478 0.15228 0.0
C588 C 0.70274 0.25836 0.15206 0.0
C589 C 0.73874 0.2921 0.44161 0.0
C590 C 0.73973 0.31318 0.41229 0.0
C591 C 0.72499 0.25895 0.43993 0.0
C592 C 0.71136 0.24611 0.40904 0.0
H593 H 0.75083 0.30037 0.46525 0.0
H594 H 0.72684 0.24251 0.46241 0.0
S595 S 0.70533 0.29284 0.32604 0.0
N596 N 0.7243 0.32019 0.35222 0.0
N597 N 0.69741 0.25806 0.34926 0.0
C598 C 0.70992 0.26796 0.38027 0.0
C599 C 0.72454 0.3015 0.38183 0.0
C600 C 0.1474 0.54215 0.65888 0.0
C601 C 0.14152 0.57215 0.67795 0.0
C602 C 0.1446 0.5097 0.67408 0.0
C603 C 0.13616 0.50553 0.70931 0.0
H604 H 0.15601 0.54383 0.63227 0.0
H605 H 0.15038 0.48769 0.65807 0.0
S606 S 0.11534 0.57604 0.77006 0.0
N607 N 0.12449 0.59586 0.7334 0.0
N608 N 0.1192 0.53457 0.7622 0.0
C609 C 0.12813 0.53527 0.72829 0.0
C610 C 0.13081 0.5686 0.71257 0.0
C611 C 0.51042 0.67163 0.14557 0.0
C612 C 0.48204 0.65645 0.16262 0.0
C613 C 0.54406 0.6667 0.15719 0.0
C614 C 0.55063 0.64648 0.1864 0.0
H615 H 0.50651 0.68895 0.12408 0.0
H616 H 0.56479 0.68019 0.14413 0.0
S617 S 0.4859 0.59662 0.23694 0.0
N618 N 0.46313 0.61718 0.20771 0.0
N619 N 0.52635 0.60753 0.2295 0.0
C620 C 0.52277 0.62894 0.20204 0.0
C621 C 0.48848 0.63392 0.19009 0.0
C622 C 0.38521 1.00335 0.67005 0.0
C623 C 0.35388 0.99897 0.65238 0.0
C624 C 0.39731 0.03593 0.67918 0.0
C625 C 0.37893 0.06574 0.67065 0.0
H626 H 0.4002 0.98134 0.67801 0.0
H627 H 0.42111 0.03768 0.69342 0.0
S628 S 0.29635 0.06888 0.62291 0.0
N629 N 0.30533 0.02759 0.62567 0.0
N630 N 0.32821 0.0889 0.6423 0.0
C631 C 0.34813 0.06193 0.65193 0.0
C632 C 0.33558 0.0286 0.64297 0.0
C633 C 0.03742 0.8613 0.18668 0.0
C634 C 0.04559 0.84235 0.15692 0.0
C635 C 1.00304 0.86864 0.19565 0.0
C636 C 0.97536 0.85748 0.17516 0.0
H637 H 0.05759 0.86937 0.20397 0.0
H638 H 0.99818 0.8824 0.21941 0.0
S639 S 0.98326 0.81061 0.09222 0.0
N640 N 0.02331 0.81522 0.10528 0.0
N641 N 0.95901 0.82899 0.12204 0.0
C642 C 0.98335 0.84 0.14441 0.0
C643 C 1.01832 0.83246 0.13533 0.0
C644 C 0.15883 0.98974 0.82469 0.0
C645 C 0.17231 0.98002 0.85694 0.0
C646 C 0.14963 0.02415 0.81761 0.0
C647 C 0.15351 0.05016 0.84251 0.0
H648 H 0.15684 0.971 0.80426 0.0
H649 H 0.14071 0.0306 0.79202 0.0
S650 S 0.1825 0.03703 0.93271 0.0
N651 N 0.18539 0.99868 0.91507 0.0
N652 N 0.16814 0.06257 0.90207 0.0
C653 C 0.16502 0.0402 0.87545 0.0
C654 C 0.17438 1.00541 0.88256 0.0
C655 C 0.98929 0.67685 0.38616 0.0
C656 C 0.98431 0.64861 0.36416 0.0
C657 C 0.02236 0.68929 0.39303 0.0
C658 C 0.05164 0.67356 0.37864 0.0
H659 H 0.96743 0.69062 0.39678 0.0
H660 H 0.0249 0.71191 0.40895 0.0
S661 S 0.05242 0.59659 0.32208 0.0
N662 N 1.01126 0.60384 0.33001 0.0
N663 N 0.07348 0.62657 0.34317 0.0
C664 C 0.04702 0.64405 0.35814 0.0
C665 C 1.01333 0.63175 0.35081 0.0
C666 C 0.40505 0.54202 0.88126 0.0
C667 C 0.41134 0.56829 0.85711 0.0
C668 C 0.41087 0.50754 0.87314 0.0
C669 C 0.42306 0.49763 0.84034 0.0
H670 H 0.39369 0.54801 0.90615 0.0
H671 H 0.40428 0.48842 0.89239 0.0
S672 S 0.44695 0.55689 0.76889 0.0
N673 N 0.43312 0.58246 0.79995 0.0
N674 N 0.44423 0.5175 0.78448 0.0
C675 C 0.4318 0.52384 0.81668 0.0
C676 C 0.42594 0.55918 0.82512 0.0
C677 C 0.46606 0.9159 0.3193 0.0
C678 C 0.45873 0.91754 0.35483 0.0
C679 C 0.50023 0.91603 0.30703 0.0
C680 C 0.52802 0.91767 0.33003 0.0
H681 H 0.44557 0.9108 0.30123 0.0
H682 H 0.50484 0.91196 0.27977 0.0
S683 S 0.5215 0.92964 0.42489 0.0
N684 N 0.48122 0.92584 0.41219 0.0
N685 N 0.54533 0.92724 0.38951 0.0
C686 C 0.52061 0.92329 0.36524 0.0
C687 C 0.48595 0.92292 0.37756 0.0
C688 C 0.71158 0.15509 0.56956 0.0
C689 C 0.67639 0.16161 0.57513 0.0
C690 C 0.72372 0.14361 0.5373 0.0
C691 C 0.70094 0.1383 0.50971 0.0
H692 H 0.73004 0.16113 0.58942 0.0
H693 H 0.75124 0.14109 0.53336 0.0
S694 S 0.60556 0.14655 0.51389 0.0
N695 N 0.61865 0.15858 0.55237 0.0
N696 N 0.64078 0.13606 0.49222 0.0
C697 C 0.66531 0.14201 0.51627 0.0
C698 C 0.65321 0.15404 0.54885 0.0
C699 C 0.89973 0.16498 0.05532 0.0
C700 C 0.86928 0.14769 0.0647 0.0
C701 C 0.90941 0.16881 1.02067 0.0
C702 C 0.88932 0.15525 0.99392 0.0
H703 H 0.91551 0.17702 0.07472 0.0
H704 H 0.93216 0.18389 1.0147 0.0
S705 S 0.80926 0.10461 1.00437 0.0
N706 N 0.82054 0.11421 0.04414 0.0
N707 N 0.83906 0.1217 0.97903 0.0
C708 C 0.86011 0.13596 1.00282 0.0
C709 C 0.84999 0.13219 0.0382 0.0
C710 C 0.88309 0.35062 0.5402 0.0
C711 C 0.89765 0.31761 0.54352 0.0
C712 C 0.87168 0.36302 0.5086 0.0
C713 C 0.8748 0.34336 0.47859 0.0
H714 H 0.87927 0.36698 0.56243 0.0
H715 H 0.85976 0.38814 0.50781 0.0
S716 S 0.91307 0.25643 0.47199 0.0
N717 N 0.91595 0.26604 0.51334 0.0
N718 N 0.89497 0.28994 0.45328 0.0
C719 C 0.89068 0.31097 0.48083 0.0
C720 C 0.90194 0.29794 0.51344 0.0
C721 C 0.6552 0.40564 1.00257 0.0
C722 C 0.68006 0.40426 0.97611 0.0
C723 C 0.66472 0.41049 0.03689 0.0
C724 C 0.69953 0.41382 0.04606 0.0
H725 H 0.62851 0.39985 0.99708 0.0
H726 H 0.64479 0.40914 0.05657 0.0
S727 S 0.77393 0.41697 0.98532 0.0
N728 N 0.74028 0.41056 0.96041 0.0
N729 N 0.75855 0.41991 0.02504 0.0
C730 C 0.72431 0.41603 1.01934 0.0
C731 C 0.71445 0.41118 0.98425 0.0
C732 C 0.82311 0.5494 0.41423 0.0
C733 C 0.85503 0.55751 0.39897 0.0
C734 C 0.81401 0.51514 0.42115 0.0
C735 C 0.8366 0.48784 0.41323 0.0
H736 H 0.80429 0.56937 0.41897 0.0
H737 H 0.78844 0.50998 0.43126 0.0
S738 S 0.92568 0.49659 0.37859 0.0
N739 N 0.91087 0.53622 0.38011 0.0
N740 N 0.89412 0.47214 0.39335 0.0
C741 C 0.86962 0.49608 0.4004 0.0
C742 C 0.87871 0.53082 0.39319 0.0
C743 C 0.51073 0.38862 0.90493 0.0
C744 C 0.48299 0.3656 0.90427 0.0
C745 C 0.54398 0.37764 0.91317 0.0
C746 C 0.55121 0.34295 0.92057 0.0
H747 H 0.5071 0.41502 0.89694 0.0
H748 H 0.5646 0.39633 0.91178 0.0
S749 S 0.48675 0.27287 0.92528 0.0
N750 N 0.46408 0.30706 0.91444 0.0
N751 N 0.5269 0.28614 0.92958 0.0
C752 C 0.52322 0.32005 0.92249 0.0
C753 C 0.48904 0.33143 0.91434 0.0
C754 C 0.69469 0.02265 0.39158 0.0
C755 C 0.67721 0.05049 0.37633 0.0
C756 C 0.68624 0.98851 0.38372 0.0
C757 C 0.66035 0.98083 0.35986 0.0
H758 H 0.71514 0.02721 0.40982 0.0
H759 H 0.70055 0.96803 0.39592 0.0
S760 S 0.60578 0.04402 0.31367 0.0
N761 N 0.63192 0.06771 0.33699 0.0
N762 N 0.61631 1.00387 0.32202 0.0
C763 C 0.64238 1.00837 0.34474 0.0
C764 C 0.6507 0.04306 0.35303 0.0
C765 C 0.05655 0.1569 0.91465 0.0
C766 C 0.08365 0.18043 0.91073 0.0
C767 C 0.02255 0.16795 0.91961 0.0
C768 C 1.01398 0.20312 0.9203 0.0
H769 H 0.0613 0.12974 0.91107 0.0
H770 H 1.00255 0.14861 0.92076 0.0
S771 S 0.07625 0.27511 0.91508 0.0
N772 N 0.10037 0.2404 0.91126 0.0
N773 N 0.03628 0.26139 0.92023 0.0
C774 C 0.04123 0.22693 0.91934 0.0
C775 C 0.07609 0.21552 0.91462 0.0
C776 C 0.86349 0.03996 0.201 0.0
C777 C 0.83606 0.04208 0.17755 0.0
C778 C 0.8763 1.00832 0.21195 0.0
C779 C 0.86259 0.9776 0.19936 0.0
H780 H 0.87486 0.06299 0.21156 0.0
H781 H 0.89707 1.00795 0.23041 0.0
S782 S 0.79075 0.96908 0.13728 0.0
N783 N 0.79562 1.01085 0.14204 0.0
N784 N 0.81995 0.95107 0.16216 0.0
C785 C 0.83538 0.97927 0.17556 0.0
C786 C 0.82198 1.0116 0.16482 0.0
C787 C 0.03971 0.39967 0.67362 0.0
C788 C 0.06834 0.37962 0.66376 0.0
C789 C 1.00593 0.38816 0.66898 0.0
C790 C 0.99914 0.356 0.65426 0.0
H791 H 0.04344 0.42372 0.68702 0.0
H792 H 0.98506 0.40405 0.67852 0.0
S793 S 0.06494 0.29618 0.61853 0.0
N794 N 0.0877 0.32798 0.63474 0.0
N795 N 0.02415 0.3062 0.62549 0.0
C796 C 0.02751 0.3369 0.64159 0.0
C797 C 0.06209 0.3488 0.64634 0.0
C798 C 0.65934 0.49805 0.1731 0.0
C799 C 0.65356 0.46739 0.19109 0.0
C800 C 0.65227 0.52968 0.1882 0.0
C801 C 0.63963 0.53223 0.22234 0.0
H802 H 0.67033 0.49764 0.14732 0.0
H803 H 0.65792 0.55237 0.17304 0.0
S804 S 0.61879 0.45892 0.28001 0.0
N805 N 0.63312 0.44083 0.24418 0.0
N806 N 0.62012 0.50076 0.27313 0.0
C807 C 0.63258 0.50159 0.24032 0.0
C808 C 0.63943 0.46906 0.22456 0.0
C809 C 0.4778 0.23468 0.62494 0.0
C810 C 0.46944 0.19949 0.62561 0.0
C811 C 0.51232 0.24576 0.62163 0.0
C812 C 0.53954 0.22196 0.61915 0.0
H813 H 0.45803 0.2536 0.6302 0.0
H814 H 0.51788 0.27288 0.62381 0.0
S815 S 0.53041 0.12739 0.61315 0.0
N816 N 0.49064 0.14141 0.61877 0.0
N817 N 0.555 0.16192 0.61229 0.0
C818 C 0.53099 0.18697 0.61649 0.0
C819 C 0.49609 0.17583 0.61978 0.0
C820 C 0.36868 0.88126 0.50057 0.0
C821 C 0.39033 0.85425 0.48989 0.0
C822 C 0.36271 0.88819 0.53552 0.0
C823 C 0.37828 0.86873 0.56175 0.0
H824 H 0.3555 0.89696 0.48178 0.0
H825 H 0.34531 0.90897 0.54197 0.0
S826 S 0.43862 0.79612 0.54818 0.0
N827 N 0.42849 0.8085 0.50878 0.0
N828 N 0.4174 0.82185 0.57463 0.0
C829 C 0.40087 0.84227 0.55167 0.0
C830 C 0.40679 0.83493 0.51581 0.0
C831 C 0.18265 0.85459 0.03849 0.0
C832 C 0.1602 0.8263 0.03508 0.0
C833 C 0.19759 0.87093 1.00966 0.0
C834 C 0.19051 0.86017 0.97589 0.0
H835 H 0.1894 0.86397 0.06379 0.0
H836 H 0.21499 0.89217 1.01399 0.0
S837 S 0.13298 0.7878 0.95229 0.0
N838 N 0.13142 0.78853 0.99483 0.0
N839 N 0.15899 0.81937 0.94071 0.0
C840 C 0.16763 0.83227 0.97196 0.0
C841 C 0.15268 0.81533 1.00144 0.0
C842 C 0.2175 0.63659 0.51179 0.0
C843 C 0.19347 0.64613 0.53762 0.0
C844 C 0.21082 0.64194 0.47645 0.0
C845 C 0.17997 0.65734 0.46559 0.0
H846 H 0.24209 0.6257 0.5189 0.0
H847 H 0.23049 0.63527 0.45767 0.0
S848 S 0.10678 0.68328 0.52203 0.0
N849 N 0.13612 0.66895 0.54897 0.0
N850 N 0.12394 0.67916 0.48322 0.0
C851 C 0.15518 0.66555 0.49097 0.0
C852 C 0.16181 0.65992 0.52674 0.0
C853 C 0.39434 0.70857 1.01292 0.0
C854 C 0.37714 0.69815 0.0432 0.0
C855 C 0.38503 0.69543 0.98053 0.0
C856 C 0.35783 0.67162 0.97693 0.0
H857 H 0.41563 0.72644 1.0143 0.0
H858 H 0.39937 0.70413 0.9581 0.0
S859 S 0.3029 0.63801 0.04818 0.0
N860 N 0.33044 0.66375 0.06735 0.0
N861 N 0.31296 0.63943 1.00678 0.0
C862 C 0.33992 0.66166 1.007 0.0
C863 C 0.34956 0.6748 0.03996 0.0
loop_
_geom_bond_atom_site_label_1
_geom_bond_atom_site_label_2
_geom_bond_distance
_geom_bond_site_symmetry_2
_ccdc_geom_bond_type
C0 O2 1.247 . S
C0 O4 1.258 . S
C1 O8 1.247 . S
C1 O9 1.258 . S
O2 C0 1.247 . S
O2 Zn3 2.028 . S
Zn3 O2 2.028 . S
Zn3 O7 2.035 . S
Zn3 O9 2.035 . S
Zn3 O10 2.028 . S
O4 C0 1.258 . S
O4 Zn5 2.035 . S
Zn5 O4 2.035 . S
Zn5 O6 2.028 . S
Zn5 O8 2.028 . S
Zn5 O11 2.035 . S
O6 Zn5 2.028 . S
O6 C12 1.247 . S
O7 Zn3 2.035 . S
O7 C12 1.258 . S
O8 C1 1.247 . S
O8 Zn5 2.028 . S
O9 C1 1.258 . S
O9 Zn3 2.035 . S
O10 Zn3 2.028 . S
O10 C13 1.247 . S
O11 Zn5 2.035 . S
O11 C13 1.258 . S
C12 O6 1.247 . S
C12 O7 1.258 . S
C13 O10 1.247 . S
C13 O11 1.258 . S
C14 O16 1.247 . S
C14 O18 1.258 . S
C15 O22 1.247 . S
C15 O23 1.258 . S
O16 C14 1.247 . S
O16 Zn17 2.028 . S
Zn17 O16 2.028 . S
Zn17 O21 2.035 . S
Zn17 O23 2.035 . S
Zn17 O24 2.028 . S
O18 C14 1.258 . S
O18 Zn19 2.035 . S
Zn19 O18 2.035 . S
Zn19 O20 2.028 . S
Zn19 O22 2.028 . S
Zn19 O25 2.035 . S
O20 Zn19 2.028 . S
O20 C26 1.247 . S
O21 Zn17 2.035 . S
O21 C26 1.258 . S
O22 C15 1.247 . S
O22 Zn19 2.028 . S
O23 C15 1.258 . S
O23 Zn17 2.035 . S
O24 Zn17 2.028 . S
O24 C27 1.247 . S
O25 Zn19 2.035 . S
O25 C27 1.258 . S
C26 O20 1.247 . S
C26 O21 1.258 . S
C27 O24 1.247 . S
C27 O25 1.258 . S
C28 O30 1.247 . S
C28 O32 1.258 . S
C29 O36 1.247 . S
C29 O37 1.258 . S
O30 C28 1.247 . S
O30 Zn31 2.028 . S
Zn31 O30 2.028 . S
Zn31 O35 2.035 . S
Zn31 O37 2.035 . S
Zn31 O38 2.028 . S
O32 C28 1.258 . S
O32 Zn33 2.035 . S
Zn33 O32 2.035 . S
Zn33 O34 2.028 . S
Zn33 O36 2.028 . S
Zn33 O39 2.035 . S
O34 Zn33 2.028 . S
O34 C40 1.247 . S
O35 Zn31 2.035 . S
O35 C40 1.258 . S
O36 C29 1.247 . S
O36 Zn33 2.028 . S
O37 C29 1.258 . S
O37 Zn31 2.035 . S
O38 Zn31 2.028 . S
O38 C41 1.247 . S
O39 Zn33 2.035 . S
O39 C41 1.258 . S
C40 O34 1.247 . S
C40 O35 1.258 . S
C41 O38 1.247 . S
C41 O39 1.258 . S
C42 O44 1.247 . S
C42 O46 1.258 . S
C43 O50 1.247 . S
C43 O51 1.258 . S
O44 C42 1.247 . S
O44 Zn45 2.028 . S
Zn45 O44 2.028 . S
Zn45 O49 2.035 . S
Zn45 O51 2.035 . S
Zn45 O52 2.028 . S
O46 C42 1.258 . S
O46 Zn47 2.035 . S
Zn47 O46 2.035 . S
Zn47 O48 2.028 . S
Zn47 O50 2.028 . S
Zn47 O53 2.035 . S
O48 Zn47 2.028 . S
O48 C54 1.247 . S
O49 Zn45 2.035 . S
O49 C54 1.258 . S
O50 C43 1.247 . S
O50 Zn47 2.028 . S
O51 C43 1.258 . S
O51 Zn45 2.035 . S
O52 Zn45 2.028 . S
O52 C55 1.247 . S
O53 Zn47 2.035 . S
O53 C55 1.258 . S
C54 O48 1.247 . S
C54 O49 1.258 . S
C55 O52 1.247 . S
C55 O53 1.258 . S
C56 O58 1.247 . S
C56 O60 1.258 . S
C57 O64 1.247 . S
C57 O65 1.258 . S
O58 C56 1.247 . S
O58 Zn59 2.028 . S
Zn59 O58 2.028 . S
Zn59 O63 2.035 . S
Zn59 O65 2.035 . S
Zn59 O66 2.028 . S
O60 C56 1.258 . S
O60 Zn61 2.035 . S
Zn61 O60 2.035 . S
Zn61 O62 2.028 . S
Zn61 O64 2.028 . S
Zn61 O67 2.035 . S
O62 Zn61 2.028 . S
O62 C68 1.247 . S
O63 Zn59 2.035 . S
O63 C68 1.258 . S
O64 C57 1.247 . S
O64 Zn61 2.028 . S
O65 C57 1.258 . S
O65 Zn59 2.035 . S
O66 Zn59 2.028 . S
O66 C69 1.247 . S
O67 Zn61 2.035 . S
O67 C69 1.258 . S
C68 O62 1.247 . S
C68 O63 1.258 . S
C69 O66 1.247 . S
C69 O67 1.258 . S
C70 O72 1.247 . S
C70 O74 1.258 . S
C71 O78 1.247 . S
C71 O79 1.258 . S
O72 C70 1.247 . S
O72 Zn73 2.028 . S
Zn73 O72 2.028 . S
Zn73 O77 2.035 . S
Zn73 O79 2.035 . S
Zn73 O80 2.028 . S
O74 C70 1.258 . S
O74 Zn75 2.035 . S
Zn75 O74 2.035 . S
Zn75 O76 2.028 . S
Zn75 O78 2.028 . S
Zn75 O81 2.035 . S
O76 Zn75 2.028 . S
O76 C82 1.247 . S
O77 Zn73 2.035 . S
O77 C82 1.258 . S
O78 C71 1.247 . S
O78 Zn75 2.028 . S
O79 C71 1.258 . S
O79 Zn73 2.035 . S
O80 Zn73 2.028 . S
O80 C83 1.247 . S
O81 Zn75 2.035 . S
O81 C83 1.258 . S
C82 O76 1.247 . S
C82 O77 1.258 . S
C83 O80 1.247 . S
C83 O81 1.258 . S
C84 O86 1.247 . S
C84 O88 1.258 . S
C85 O92 1.247 . S
C85 O93 1.258 . S
O86 C84 1.247 . S
O86 Zn87 2.028 . S
Zn87 O86 2.028 . S
Zn87 O91 2.035 . S
Zn87 O93 2.035 . S
Zn87 O94 2.028 . S
O88 C84 1.258 . S
O88 Zn89 2.035 . S
Zn89 O88 2.035 . S
Zn89 O90 2.028 . S
Zn89 O92 2.028 . S
Zn89 O95 2.035 . S
O90 Zn89 2.028 . S
O90 C96 1.247 . S
O91 Zn87 2.035 . S
O91 C96 1.258 . S
O92 C85 1.247 . S
O92 Zn89 2.028 . S
O93 C85 1.258 . S
O93 Zn87 2.035 . S
O94 Zn87 2.028 . S
O94 C97 1.247 . S
O95 Zn89 2.035 . S
O95 C97 1.258 . S
C96 O90 1.247 . S
C96 O91 1.258 . S
C97 O94 1.247 . S
C97 O95 1.258 . S
C98 O100 1.247 . S
C98 O102 1.258 . S
C99 O106 1.247 . S
C99 O107 1.258 . S
O100 C98 1.247 . S
O100 Zn101 2.028 . S
Zn101 O100 2.028 . S
Zn101 O105 2.035 . S
Zn101 O107 2.035 . S
Zn101 O108 2.028 . S
O102 C98 1.258 . S
O102 Zn103 2.035 . S
Zn103 O102 2.035 . S
Zn103 O104 2.028 . S
Zn103 O106 2.028 . S
Zn103 O109 2.035 . S
O104 Zn103 2.028 . S
O104 C110 1.247 . S
O105 Zn101 2.035 . S
O105 C110 1.258 . S
O106 C99 1.247 . S
O106 Zn103 2.028 . S
O107 C99 1.258 . S
O107 Zn101 2.035 . S
O108 Zn101 2.028 . S
O108 C111 1.247 . S
O109 Zn103 2.035 . S
O109 C111 1.258 . S
C110 O104 1.247 . S
C110 O105 1.258 . S
C111 O108 1.247 . S
C111 O109 1.258 . S
C112 O114 1.247 . S
C112 O116 1.258 . S
C113 O120 1.247 . S
C113 O121 1.258 . S
O114 C112 1.247 . S
O114 Zn115 2.028 . S
Zn115 O114 2.028 . S
Zn115 O119 2.035 . S
Zn115 O121 2.035 . S
Zn115 O122 2.028 . S
O116 C112 1.258 . S
O116 Zn117 2.035 . S
Zn117 O116 2.035 . S
Zn117 O118 2.028 . S
Zn117 O120 2.028 . S
Zn117 O123 2.035 . S
O118 Zn117 2.028 . S
O118 C124 1.247 . S
O119 Zn115 2.035 . S
O119 C124 1.258 . S
O120 C113 1.247 . S
O120 Zn117 2.028 . S
O121 C113 1.258 . S
O121 Zn115 2.035 . S
O122 Zn115 2.028 . S
O122 C125 1.247 . S
O123 Zn117 2.035 . S
O123 C125 1.258 . S
C124 O118 1.247 . S
C124 O119 1.258 . S
C125 O122 1.247 . S
C125 O123 1.258 . S
C126 O128 1.247 . S
C126 O130 1.258 . S
C127 O134 1.247 . S
C127 O135 1.258 . S
O128 C126 1.247 . S
O128 Zn129 2.028 . S
Zn129 O128 2.028 . S
Zn129 O133 2.035 . S
Zn129 O135 2.035 . S
Zn129 O136 2.028 . S
O130 C126 1.258 . S
O130 Zn131 2.035 . S
Zn131 O130 2.035 . S
Zn131 O132 2.028 . S
Zn131 O134 2.028 . S
Zn131 O137 2.035 . S
O132 Zn131 2.028 . S
O132 C138 1.247 . S
O133 Zn129 2.035 . S
O133 C138 1.258 . S
O134 C127 1.247 . S
O134 Zn131 2.028 . S
O135 C127 1.258 . S
O135 Zn129 2.035 . S
O136 Zn129 2.028 . S
O136 C139 1.247 . S
O137 Zn131 2.035 . S
O137 C139 1.258 . S
C138 O132 1.247 . S
C138 O133 1.258 . S
C139 O136 1.247 . S
C139 O137 1.258 . S
C140 O142 1.247 . S
C140 O144 1.258 . S
C141 O148 1.247 . S
C141 O149 1.258 . S
O142 C140 1.247 . S
O142 Zn143 2.028 . S
Zn143 O142 2.028 . S
Zn143 O147 2.035 . S
Zn143 O149 2.035 . S
Zn143 O150 2.028 . S
O144 C140 1.258 . S
O144 Zn145 2.035 . S
Zn145 O144 2.035 . S
Zn145 O146 2.028 . S
Zn145 O148 2.028 . S
Zn145 O151 2.035 . S
O146 Zn145 2.028 . S
O146 C152 1.247 . S
O147 Zn143 2.035 . S
O147 C152 1.258 . S
O148 C141 1.247 . S
O148 Zn145 2.028 . S
O149 C141 1.258 . S
O149 Zn143 2.035 . S
O150 Zn143 2.028 . S
O150 C153 1.247 . S
O151 Zn145 2.035 . S
O151 C153 1.258 . S
C152 O146 1.247 . S
C152 O147 1.258 . S
C153 O150 1.247 . S
C153 O151 1.258 . S
C154 O156 1.247 . S
C154 O158 1.258 . S
C155 O162 1.247 . S
C155 O163 1.258 . S
O156 C154 1.247 . S
O156 Zn157 2.028 . S
Zn157 O156 2.028 . S
Zn157 O161 2.035 . S
Zn157 O163 2.035 . S
Zn157 O164 2.028 . S
O158 C154 1.258 . S
O158 Zn159 2.035 . S
Zn159 O158 2.035 . S
Zn159 O160 2.028 . S
Zn159 O162 2.028 . S
Zn159 O165 2.035 . S
O160 Zn159 2.028 . S
O160 C166 1.247 . S
O161 Zn157 2.035 . S
O161 C166 1.258 . S
O162 C155 1.247 . S
O162 Zn159 2.028 . S
O163 C155 1.258 . S
O163 Zn157 2.035 . S
O164 Zn157 2.028 . S
O164 C167 1.247 . S
O165 Zn159 2.035 . S
O165 C167 1.258 . S
C166 O160 1.247 . S
C166 O161 1.258 . S
C167 O164 1.247 . S
C167 O165 1.258 . S
C168 O170 1.247 . S
C168 O172 1.258 . S
C169 O176 1.247 . S
C169 O177 1.258 . S
O170 C168 1.247 . S
O170 Zn171 2.028 . S
Zn171 O170 2.028 . S
Zn171 O175 2.035 . S
Zn171 O177 2.035 . S
Zn171 O178 2.028 . S
O172 C168 1.258 . S
O172 Zn173 2.035 . S
Zn173 O172 2.035 . S
Zn173 O174 2.028 . S
Zn173 O176 2.028 . S
Zn173 O179 2.035 . S
O174 Zn173 2.028 . S
O174 C180 1.247 . S
O175 Zn171 2.035 . S
O175 C180 1.258 . S
O176 C169 1.247 . S
O176 Zn173 2.028 . S
O177 C169 1.258 . S
O177 Zn171 2.035 . S
O178 Zn171 2.028 . S
O178 C181 1.247 . S
O179 Zn173 2.035 . S
O179 C181 1.258 . S
C180 O174 1.247 . S
C180 O175 1.258 . S
C181 O178 1.247 . S
C181 O179 1.258 . S
C182 O184 1.247 . S
C182 O186 1.258 . S
C183 O190 1.247 . S
C183 O191 1.258 . S
O184 C182 1.247 . S
O184 Zn185 2.028 . S
Zn185 O184 2.028 . S
Zn185 O189 2.035 . S
Zn185 O191 2.035 . S
Zn185 O192 2.028 . S
O186 C182 1.258 . S
O186 Zn187 2.035 . S
Zn187 O186 2.035 . S
Zn187 O188 2.028 . S
Zn187 O190 2.028 . S
Zn187 O193 2.035 . S
O188 Zn187 2.028 . S
O188 C194 1.247 . S
O189 Zn185 2.035 . S
O189 C194 1.258 . S
O190 C183 1.247 . S
O190 Zn187 2.028 . S
O191 C183 1.258 . S
O191 Zn185 2.035 . S
O192 Zn185 2.028 . S
O192 C195 1.247 . S
O193 Zn187 2.035 . S
O193 C195 1.258 . S
C194 O188 1.247 . S
C194 O189 1.258 . S
C195 O192 1.247 . S
C195 O193 1.258 . S
C196 O198 1.247 . S
C196 O200 1.258 . S
C197 O204 1.247 . S
C197 O205 1.258 . S
O198 C196 1.247 . S
O198 Zn199 2.028 . S
Zn199 O198 2.028 . S
Zn199 O203 2.035 . S
Zn199 O205 2.035 . S
Zn199 O206 2.028 . S
O200 C196 1.258 . S
O200 Zn201 2.035 . S
Zn201 O200 2.035 . S
Zn201 O202 2.028 . S
Zn201 O204 2.028 . S
Zn201 O207 2.035 . S
O202 Zn201 2.028 . S
O202 C208 1.247 . S
O203 Zn199 2.035 . S
O203 C208 1.258 . S
O204 C197 1.247 . S
O204 Zn201 2.028 . S
O205 C197 1.258 . S
O205 Zn199 2.035 . S
O206 Zn199 2.028 . S
O206 C209 1.247 . S
O207 Zn201 2.035 . S
O207 C209 1.258 . S
C208 O202 1.247 . S
C208 O203 1.258 . S
C209 O206 1.247 . S
C209 O207 1.258 . S
C210 O212 1.247 . S
C210 O214 1.258 . S
C211 O218 1.247 . S
C211 O219 1.258 . S
O212 C210 1.247 . S
O212 Zn213 2.028 . S
Zn213 O212 2.028 . S
Zn213 O217 2.035 . S
Zn213 O219 2.035 . S
Zn213 O220 2.028 . S
O214 C210 1.258 . S
O214 Zn215 2.035 . S
Zn215 O214 2.035 . S
Zn215 O216 2.028 . S
Zn215 O218 2.028 . S
Zn215 O221 2.035 . S
O216 Zn215 2.028 . S
O216 C222 1.247 . S
O217 Zn213 2.035 . S
O217 C222 1.258 . S
O218 C211 1.247 . S
O218 Zn215 2.028 . S
O219 C211 1.258 . S
O219 Zn213 2.035 . S
O220 Zn213 2.028 . S
O220 C223 1.247 . S
O221 Zn215 2.035 . S
O221 C223 1.258 . S
C222 O216 1.247 . S
C222 O217 1.258 . S
C223 O220 1.247 . S
C223 O221 1.258 . S
C224 O226 1.247 . S
C224 O228 1.258 . S
C225 O232 1.247 . S
C225 O233 1.258 . S
O226 C224 1.247 . S
O226 Zn227 2.028 . S
Zn227 O226 2.028 . S
Zn227 O231 2.035 . S
Zn227 O233 2.035 . S
Zn227 O234 2.028 . S
O228 C224 1.258 . S
O228 Zn229 2.035 . S
Zn229 O228 2.035 . S
Zn229 O230 2.028 . S
Zn229 O232 2.028 . S
Zn229 O235 2.035 . S
O230 Zn229 2.028 . S
O230 C236 1.247 . S
O231 Zn227 2.035 . S
O231 C236 1.258 . S
O232 C225 1.247 . S
O232 Zn229 2.028 . S
O233 C225 1.258 . S
O233 Zn227 2.035 . S
O234 Zn227 2.028 . S
O234 C237 1.247 . S
O235 Zn229 2.035 . S
O235 C237 1.258 . S
C236 O230 1.247 . S
C236 O231 1.258 . S
C237 O234 1.247 . S
C237 O235 1.258 . S
C238 O240 1.247 . S
C238 O242 1.258 . S
C239 O246 1.247 . S
C239 O247 1.258 . S
O240 C238 1.247 . S
O240 Zn241 2.028 . S
Zn241 O240 2.028 . S
Zn241 O245 2.035 . S
Zn241 O247 2.035 . S
Zn241 O248 2.028 . S
O242 C238 1.258 . S
O242 Zn243 2.035 . S
Zn243 O242 2.035 . S
Zn243 O244 2.028 . S
Zn243 O246 2.028 . S
Zn243 O249 2.035 . S
O244 Zn243 2.028 . S
O244 C250 1.247 . S
O245 Zn241 2.035 . S
O245 C250 1.258 . S
O246 C239 1.247 . S
O246 Zn243 2.028 . S
O247 C239 1.258 . S
O247 Zn241 2.035 . S
O248 Zn241 2.028 . S
O248 C251 1.247 . S
O249 Zn243 2.035 . S
O249 C251 1.258 . S
C250 O244 1.247 . S
C250 O245 1.258 . S
C251 O248 1.247 . S
C251 O249 1.258 . S
C252 O254 1.247 . S
C252 O256 1.258 . S
C253 O260 1.247 . S
C253 O261 1.258 . S
O254 C252 1.247 . S
O254 Zn255 2.028 . S
Zn255 O254 2.028 . S
Zn255 O259 2.035 . S
Zn255 O261 2.035 . S
Zn255 O262 2.028 . S
O256 C252 1.258 . S
O256 Zn257 2.035 . S
Zn257 O256 2.035 . S
Zn257 O258 2.028 . S
Zn257 O260 2.028 . S
Zn257 O263 2.035 . S
O258 Zn257 2.028 . S
O258 C264 1.247 . S
O259 Zn255 2.035 . S
O259 C264 1.258 . S
O260 C253 1.247 . S
O260 Zn257 2.028 . S
O261 C253 1.258 . S
O261 Zn255 2.035 . S
O262 Zn255 2.028 . S
O262 C265 1.247 . S
O263 Zn257 2.035 . S
O263 C265 1.258 . S
C264 O258 1.247 . S
C264 O259 1.258 . S
C265 O262 1.247 . S
C265 O263 1.258 . S
C266 O268 1.247 . S
C266 O270 1.258 . S
C267 O274 1.247 . S
C267 O275 1.258 . S
O268 C266 1.247 . S
O268 Zn269 2.028 . S
Zn269 O268 2.028 . S
Zn269 O273 2.035 . S
Zn269 O275 2.035 . S
Zn269 O276 2.028 . S
O270 C266 1.258 . S
O270 Zn271 2.035 . S
Zn271 O270 2.035 . S
Zn271 O272 2.028 . S
Zn271 O274 2.028 . S
Zn271 O277 2.035 . S
O272 Zn271 2.028 . S
O272 C278 1.247 . S
O273 Zn269 2.035 . S
O273 C278 1.258 . S
O274 C267 1.247 . S
O274 Zn271 2.028 . S
O275 C267 1.258 . S
O275 Zn269 2.035 . S
O276 Zn269 2.028 . S
O276 C279 1.247 . S
O277 Zn271 2.035 . S
O277 C279 1.258 . S
C278 O272 1.247 . S
C278 O273 1.258 . S
C279 O276 1.247 . S
C279 O277 1.258 . S
C280 O282 1.247 . S
C280 O284 1.258 . S
C281 O288 1.247 . S
C281 O289 1.258 . S
O282 C280 1.247 . S
O282 Zn283 2.028 . S
Zn283 O282 2.028 . S
Zn283 O287 2.035 . S
Zn283 O289 2.035 . S
Zn283 O290 2.028 . S
O284 C280 1.258 . S
O284 Zn285 2.035 . S
Zn285 O284 2.035 . S
Zn285 O286 2.028 . S
Zn285 O288 2.028 . S
Zn285 O291 2.035 . S
O286 Zn285 2.028 . S
O286 C292 1.247 . S
O287 Zn283 2.035 . S
O287 C292 1.258 . S
O288 C281 1.247 . S
O288 Zn285 2.028 . S
O289 C281 1.258 . S
O289 Zn283 2.035 . S
O290 Zn283 2.028 . S
O290 C293 1.247 . S
O291 Zn285 2.035 . S
O291 C293 1.258 . S
C292 O286 1.247 . S
C292 O287 1.258 . S
C293 O290 1.247 . S
C293 O291 1.258 . S
C294 O296 1.247 . S
C294 O298 1.258 . S
C295 O302 1.247 . S
C295 O303 1.258 . S
O296 C294 1.247 . S
O296 Zn297 2.028 . S
Zn297 O296 2.028 . S
Zn297 O301 2.035 . S
Zn297 O303 2.035 . S
Zn297 O304 2.028 . S
O298 C294 1.258 . S
O298 Zn299 2.035 . S
Zn299 O298 2.035 . S
Zn299 O300 2.028 . S
Zn299 O302 2.028 . S
Zn299 O305 2.035 . S
O300 Zn299 2.028 . S
O300 C306 1.247 . S
O301 Zn297 2.035 . S
O301 C306 1.258 . S
O302 C295 1.247 . S
O302 Zn299 2.028 . S
O303 C295 1.258 . S
O303 Zn297 2.035 . S
O304 Zn297 2.028 . S
O304 C307 1.247 . S
O305 Zn299 2.035 . S
O305 C307 1.258 . S
C306 O300 1.247 . S
C306 O301 1.258 . S
C307 O304 1.247 . S
C307 O305 1.258 . S
C308 O310 1.247 . S
C308 O312 1.258 . S
C309 O316 1.247 . S
C309 O317 1.258 . S
O310 C308 1.247 . S
O310 Zn311 2.028 . S
Zn311 O310 2.028 . S
Zn311 O315 2.035 . S
Zn311 O317 2.035 . S
Zn311 O318 2.028 . S
O312 C308 1.258 . S
O312 Zn313 2.035 . S
Zn313 O312 2.035 . S
Zn313 O314 2.028 . S
Zn313 O316 2.028 . S
Zn313 O319 2.035 . S
O314 Zn313 2.028 . S
O314 C320 1.247 . S
O315 Zn311 2.035 . S
O315 C320 1.258 . S
O316 C309 1.247 . S
O316 Zn313 2.028 . S
O317 C309 1.258 . S
O317 Zn311 2.035 . S
O318 Zn311 2.028 . S
O318 C321 1.247 . S
O319 Zn313 2.035 . S
O319 C321 1.258 . S
C320 O314 1.247 . S
C320 O315 1.258 . S
C321 O318 1.247 . S
C321 O319 1.258 . S
C322 O324 1.247 . S
C322 O326 1.258 . S
C323 O330 1.247 . S
C323 O331 1.258 . S
O324 C322 1.247 . S
O324 Zn325 2.028 . S
Zn325 O324 2.028 . S
Zn325 O329 2.035 . S
Zn325 O331 2.035 . S
Zn325 O332 2.028 . S
O326 C322 1.258 . S
O326 Zn327 2.035 . S
Zn327 O326 2.035 . S
Zn327 O328 2.028 . S
Zn327 O330 2.028 . S
Zn327 O333 2.035 . S
O328 Zn327 2.028 . S
O328 C334 1.247 . S
O329 Zn325 2.035 . S
O329 C334 1.258 . S
O330 C323 1.247 . S
O330 Zn327 2.028 . S
O331 C323 1.258 . S
O331 Zn325 2.035 . S
O332 Zn325 2.028 . S
O332 C335 1.247 . S
O333 Zn327 2.035 . S
O333 C335 1.258 . S
C334 O328 1.247 . S
C334 O329 1.258 . S
C335 O332 1.247 . S
C335 O333 1.258 . S
C336 C337 1.369 . S
C336 C338 1.419 . S
C336 H340 0.930 . S
C337 C336 1.369 . S
C337 C346 1.429 . S
C338 C336 1.419 . S
C338 C339 1.363 . S
C338 H341 0.929 . S
C339 C338 1.363 . S
C339 C345 1.428 . S
H340 C336 0.930 . S
H341 C338 0.929 . S
S342 N343 1.613 . S
S342 N344 1.610 . S
N343 S342 1.613 . S
N343 C346 1.350 . S
N344 S342 1.610 . S
N344 C345 1.351 . S
C345 C339 1.428 . S
C345 N344 1.351 . S
C345 C346 1.434 . S
C346 C337 1.429 . S
C346 N343 1.350 . S
C346 C345 1.434 . S
C347 C348 1.369 . S
C347 C349 1.419 . S
C347 H351 0.930 . S
C348 C347 1.369 . S
C348 C357 1.429 . S
C349 C347 1.419 . S
C349 C350 1.363 . S
C349 H352 0.929 . S
C350 C349 1.363 . S
C350 C356 1.428 . S
H351 C347 0.930 . S
H352 C349 0.929 . S
S353 N354 1.613 . S
S353 N355 1.610 . S
N354 S353 1.613 . S
N354 C357 1.350 . S
N355 S353 1.610 . S
N355 C356 1.351 . S
C356 C350 1.428 . S
C356 N355 1.351 . S
C356 C357 1.434 . S
C357 C348 1.429 . S
C357 N354 1.350 . S
C357 C356 1.434 . S
C358 C359 1.369 . S
C358 C360 1.419 . S
C358 H362 0.930 . S
C359 C358 1.369 . S
C359 C368 1.429 . S
C360 C358 1.419 . S
C360 C361 1.363 . S
C360 H363 0.929 . S
C361 C360 1.363 . S
C361 C367 1.428 . S
H362 C358 0.930 . S
H363 C360 0.929 . S
S364 N365 1.613 . S
S364 N366 1.610 . S
N365 S364 1.613 . S
N365 C368 1.350 . S
N366 S364 1.610 . S
N366 C367 1.351 . S
C367 C361 1.428 . S
C367 N366 1.351 . S
C367 C368 1.434 . S
C368 C359 1.429 . S
C368 N365 1.350 . S
C368 C367 1.434 . S
C369 C370 1.369 . S
C369 C371 1.419 . S
C369 H373 0.930 . S
C370 C369 1.369 . S
C370 C379 1.429 . S
C371 C369 1.419 . S
C371 C372 1.363 . S
C371 H374 0.929 . S
C372 C371 1.363 . S
C372 C378 1.428 . S
H373 C369 0.930 . S
H374 C371 0.929 . S
S375 N376 1.613 . S
S375 N377 1.610 . S
N376 S375 1.613 . S
N376 C379 1.350 . S
N377 S375 1.610 . S
N377 C378 1.351 . S
C378 C372 1.428 . S
C378 N377 1.351 . S
C378 C379 1.434 . S
C379 C370 1.429 . S
C379 N376 1.350 . S
C379 C378 1.434 . S
C380 C381 1.369 . S
C380 C382 1.419 . S
C380 H384 0.930 . S
C381 C380 1.369 . S
C381 C390 1.429 . S
C382 C380 1.419 . S
C382 C383 1.363 . S
C382 H385 0.929 . S
C383 C382 1.363 . S
C383 C389 1.428 . S
H384 C380 0.930 . S
H385 C382 0.929 . S
S386 N387 1.613 . S
S386 N388 1.610 . S
N387 S386 1.613 . S
N387 C390 1.350 . S
N388 S386 1.610 . S
N388 C389 1.351 . S
C389 C383 1.428 . S
C389 N388 1.351 . S
C389 C390 1.434 . S
C390 C381 1.429 . S
C390 N387 1.350 . S
C390 C389 1.434 . S
C391 C392 1.369 . S
C391 C393 1.419 . S
C391 H395 0.930 . S
C392 C391 1.369 . S
C392 C401 1.429 . S
C393 C391 1.419 . S
C393 C394 1.363 . S
C393 H396 0.929 . S
C394 C393 1.363 . S
C394 C400 1.428 . S
H395 C391 0.930 . S
H396 C393 0.929 . S
S397 N398 1.613 . S
S397 N399 1.610 . S
N398 S397 1.613 . S
N398 C401 1.350 . S
N399 S397 1.610 . S
N399 C400 1.351 . S
C400 C394 1.428 . S
C400 N399 1.351 . S
C400 C401 1.434 . S
C401 C392 1.429 . S
C401 N398 1.350 . S
C401 C400 1.434 . S
C402 C403 1.369 . S
C402 C404 1.419 . S
C402 H406 0.930 . S
C403 C402 1.369 . S
C403 C412 1.429 . S
C404 C402 1.419 . S
C404 C405 1.363 . S
C404 H407 0.929 . S
C405 C404 1.363 . S
C405 C411 1.428 . S
H406 C402 0.930 . S
H407 C404 0.929 . S
S408 N409 1.613 . S
S408 N410 1.610 . S
N409 S408 1.613 . S
N409 C412 1.350 . S
N410 S408 1.610 . S
N410 C411 1.351 . S
C411 C405 1.428 . S
C411 N410 1.351 . S
C411 C412 1.434 . S
C412 C403 1.429 . S
C412 N409 1.350 . S
C412 C411 1.434 . S
C413 C414 1.369 . S
C413 C415 1.419 . S
C413 H417 0.930 . S
C414 C413 1.369 . S
C414 C423 1.429 . S
C415 C413 1.419 . S
C415 C416 1.363 . S
C415 H418 0.929 . S
C416 C415 1.363 . S
C416 C422 1.428 . S
H417 C413 0.930 . S
H418 C415 0.929 . S
S419 N420 1.613 . S
S419 N421 1.610 . S
N420 S419 1.613 . S
N420 C423 1.350 . S
N421 S419 1.610 . S
N421 C422 1.351 . S
C422 C416 1.428 . S
C422 N421 1.351 . S
C422 C423 1.434 . S
C423 C414 1.429 . S
C423 N420 1.350 . S
C423 C422 1.434 . S
C424 C425 1.369 . S
C424 C426 1.419 . S
C424 H428 0.930 . S
C425 C424 1.369 . S
C425 C434 1.429 . S
C426 C424 1.419 . S
C426 C427 1.363 . S
C426 H429 0.929 . S
C427 C426 1.363 . S
C427 C433 1.428 . S
H428 C424 0.930 . S
H429 C426 0.929 . S
S430 N431 1.613 . S
S430 N432 1.610 . S
N431 S430 1.613 . S
N431 C434 1.350 . S
N432 S430 1.610 . S
N432 C433 1.351 . S
C433 C427 1.428 . S
C433 N432 1.351 . S
C433 C434 1.434 . S
C434 C425 1.429 . S
C434 N431 1.350 . S
C434 C433 1.434 . S
C435 C436 1.369 . S
C435 C437 1.419 . S
C435 H439 0.930 . S
C436 C435 1.369 . S
C436 C445 1.429 . S
C437 C435 1.419 . S
C437 C438 1.363 . S
C437 H440 0.929 . S
C438 C437 1.363 . S
C438 C444 1.428 . S
H439 C435 0.930 . S
H440 C437 0.929 . S
S441 N442 1.613 . S
S441 N443 1.610 . S
N442 S441 1.613 . S
N442 C445 1.350 . S
N443 S441 1.610 . S
N443 C444 1.351 . S
C444 C438 1.428 . S
C444 N443 1.351 . S
C444 C445 1.434 . S
C445 C436 1.429 . S
C445 N442 1.350 . S
C445 C444 1.434 . S
C446 C447 1.369 . S
C446 C448 1.419 . S
C446 H450 0.930 . S
C447 C446 1.369 . S
C447 C456 1.429 . S
C448 C446 1.419 . S
C448 C449 1.363 . S
C448 H451 0.929 . S
C449 C448 1.363 . S
C449 C455 1.428 . S
H450 C446 0.930 . S
H451 C448 0.929 . S
S452 N453 1.613 . S
S452 N454 1.610 . S
N453 S452 1.613 . S
N453 C456 1.350 . S
N454 S452 1.610 . S
N454 C455 1.351 . S
C455 C449 1.428 . S
C455 N454 1.351 . S
C455 C456 1.434 . S
C456 C447 1.429 . S
C456 N453 1.350 . S
C456 C455 1.434 . S
C457 C458 1.369 . S
C457 C459 1.419 . S
C457 H461 0.930 . S
C458 C457 1.369 . S
C458 C467 1.429 . S
C459 C457 1.419 . S
C459 C460 1.363 . S
C459 H462 0.929 . S
C460 C459 1.363 . S
C460 C466 1.428 . S
H461 C457 0.930 . S
H462 C459 0.929 . S
S463 N464 1.613 . S
S463 N465 1.610 . S
N464 S463 1.613 . S
N464 C467 1.350 . S
N465 S463 1.610 . S
N465 C466 1.351 . S
C466 C460 1.428 . S
C466 N465 1.351 . S
C466 C467 1.434 . S
C467 C458 1.429 . S
C467 N464 1.350 . S
C467 C466 1.434 . S
C468 C469 1.369 . S
C468 C470 1.419 . S
C468 H472 0.930 . S
C469 C468 1.369 . S
C469 C478 1.429 . S
C470 C468 1.419 . S
C470 C471 1.363 . S
C470 H473 0.929 . S
C471 C470 1.363 . S
C471 C477 1.428 . S
H472 C468 0.930 . S
H473 C470 0.929 . S
S474 N475 1.613 . S
S474 N476 1.610 . S
N475 S474 1.613 . S
N475 C478 1.350 . S
N476 S474 1.610 . S
N476 C477 1.351 . S
C477 C471 1.428 . S
C477 N476 1.351 . S
C477 C478 1.434 . S
C478 C469 1.429 . S
C478 N475 1.350 . S
C478 C477 1.434 . S
C479 C480 1.369 . S
C479 C481 1.419 . S
C479 H483 0.930 . S
C480 C479 1.369 . S
C480 C489 1.429 . S
C481 C479 1.419 . S
C481 C482 1.363 . S
C481 H484 0.929 . S
C482 C481 1.363 . S
C482 C488 1.428 . S
H483 C479 0.930 . S
H484 C481 0.929 . S
S485 N486 1.613 . S
S485 N487 1.610 . S
N486 S485 1.613 . S
N486 C489 1.350 . S
N487 S485 1.610 . S
N487 C488 1.351 . S
C488 C482 1.428 . S
C488 N487 1.351 . S
C488 C489 1.434 . S
C489 C480 1.429 . S
C489 N486 1.350 . S
C489 C488 1.434 . S
C490 C491 1.369 . S
C490 C492 1.419 . S
C490 H494 0.930 . S
C491 C490 1.369 . S
C491 C500 1.429 . S
C492 C490 1.419 . S
C492 C493 1.363 . S
C492 H495 0.929 . S
C493 C492 1.363 . S
C493 C499 1.428 . S
H494 C490 0.930 . S
H495 C492 0.929 . S
S496 N497 1.613 . S
S496 N498 1.610 . S
N497 S496 1.613 . S
N497 C500 1.350 . S
N498 S496 1.610 . S
N498 C499 1.351 . S
C499 C493 1.428 . S
C499 N498 1.351 . S
C499 C500 1.434 . S
C500 C491 1.429 . S
C500 N497 1.350 . S
C500 C499 1.434 . S
C501 C502 1.369 . S
C501 C503 1.419 . S
C501 H505 0.930 . S
C502 C501 1.369 . S
C502 C511 1.429 . S
C503 C501 1.419 . S
C503 C504 1.363 . S
C503 H506 0.929 . S
C504 C503 1.363 . S
C504 C510 1.428 . S
H505 C501 0.930 . S
H506 C503 0.929 . S
S507 N508 1.613 . S
S507 N509 1.610 . S
N508 S507 1.613 . S
N508 C511 1.350 . S
N509 S507 1.610 . S
N509 C510 1.351 . S
C510 C504 1.428 . S
C510 N509 1.351 . S
C510 C511 1.434 . S
C511 C502 1.429 . S
C511 N508 1.350 . S
C511 C510 1.434 . S
C512 C513 1.369 . S
C512 C514 1.419 . S
C512 H516 0.930 . S
C513 C512 1.369 . S
C513 C522 1.429 . S
C514 C512 1.419 . S
C514 C515 1.363 . S
C514 H517 0.929 . S
C515 C514 1.363 . S
C515 C521 1.428 . S
H516 C512 0.930 . S
H517 C514 0.929 . S
S518 N519 1.613 . S
S518 N520 1.610 . S
N519 S518 1.613 . S
N519 C522 1.350 . S
N520 S518 1.610 . S
N520 C521 1.351 . S
C521 C515 1.428 . S
C521 N520 1.351 . S
C521 C522 1.434 . S
C522 C513 1.429 . S
C522 N519 1.350 . S
C522 C521 1.434 . S
C523 C524 1.369 . S
C523 C525 1.419 . S
C523 H527 0.930 . S
C524 C523 1.369 . S
C524 C533 1.429 . S
C525 C523 1.419 . S
C525 C526 1.363 . S
C525 H528 0.929 . S
C526 C525 1.363 . S
C526 C532 1.428 . S
H527 C523 0.930 . S
H528 C525 0.929 . S
S529 N530 1.613 . S
S529 N531 1.610 . S
N530 S529 1.613 . S
N530 C533 1.350 . S
N531 S529 1.610 . S
N531 C532 1.351 . S
C532 C526 1.428 . S
C532 N531 1.351 . S
C532 C533 1.434 . S
C533 C524 1.429 . S
C533 N530 1.350 . S
C533 C532 1.434 . S
C534 C535 1.369 . S
C534 C536 1.419 . S
C534 H538 0.930 . S
C535 C534 1.369 . S
C535 C544 1.429 . S
C536 C534 1.419 . S
C536 C537 1.363 . S
C536 H539 0.929 . S
C537 C536 1.363 . S
C537 C543 1.428 . S
H538 C534 0.930 . S
H539 C536 0.929 . S
S540 N541 1.613 . S
S540 N542 1.610 . S
N541 S540 1.613 . S
N541 C544 1.350 . S
N542 S540 1.610 . S
N542 C543 1.351 . S
C543 C537 1.428 . S
C543 N542 1.351 . S
C543 C544 1.434 . S
C544 C535 1.429 . S
C544 N541 1.350 . S
C544 C543 1.434 . S
C545 C546 1.369 . S
C545 C547 1.419 . S
C545 H549 0.930 . S
C546 C545 1.369 . S
C546 C555 1.429 . S
C547 C545 1.419 . S
C547 C548 1.363 . S
C547 H550 0.929 . S
C548 C547 1.363 . S
C548 C554 1.428 . S
H549 C545 0.930 . S
H550 C547 0.929 . S
S551 N552 1.613 . S
S551 N553 1.610 . S
N552 S551 1.613 . S
N552 C555 1.350 . S
N553 S551 1.610 . S
N553 C554 1.351 . S
C554 C548 1.428 . S
C554 N553 1.351 . S
C554 C555 1.434 . S
C555 C546 1.429 . S
C555 N552 1.350 . S
C555 C554 1.434 . S
C556 C557 1.369 . S
C556 C558 1.419 . S
C556 H560 0.930 . S
C557 C556 1.369 . S
C557 C566 1.429 . S
C558 C556 1.419 . S
C558 C559 1.363 . S
C558 H561 0.929 . S
C559 C558 1.363 . S
C559 C565 1.428 . S
H560 C556 0.930 . S
H561 C558 0.929 . S
S562 N563 1.613 . S
S562 N564 1.610 . S
N563 S562 1.613 . S
N563 C566 1.350 . S
N564 S562 1.610 . S
N564 C565 1.351 . S
C565 C559 1.428 . S
C565 N564 1.351 . S
C565 C566 1.434 . S
C566 C557 1.429 . S
C566 N563 1.350 . S
C566 C565 1.434 . S
C567 C568 1.369 . S
C567 C569 1.419 . S
C567 H571 0.930 . S
C568 C567 1.369 . S
C568 C577 1.429 . S
C569 C567 1.419 . S
C569 C570 1.363 . S
C569 H572 0.929 . S
C570 C569 1.363 . S
C570 C576 1.428 . S
H571 C567 0.930 . S
H572 C569 0.929 . S
S573 N574 1.613 . S
S573 N575 1.610 . S
N574 S573 1.613 . S
N574 C577 1.350 . S
N575 S573 1.610 . S
N575 C576 1.351 . S
C576 C570 1.428 . S
C576 N575 1.351 . S
C576 C577 1.434 . S
C577 C568 1.429 . S
C577 N574 1.350 . S
C577 C576 1.434 . S
C578 C579 1.369 . S
C578 C580 1.419 . S
C578 H582 0.930 . S
C579 C578 1.369 . S
C579 C588 1.429 . S
C580 C578 1.419 . S
C580 C581 1.363 . S
C580 H583 0.929 . S
C581 C580 1.363 . S
C581 C587 1.428 . S
H582 C578 0.930 . S
H583 C580 0.929 . S
S584 N585 1.613 . S
S584 N586 1.610 . S
N585 S584 1.613 . S
N585 C588 1.350 . S
N586 S584 1.610 . S
N586 C587 1.351 . S
C587 C581 1.428 . S
C587 N586 1.351 . S
C587 C588 1.434 . S
C588 C579 1.429 . S
C588 N585 1.350 . S
C588 C587 1.434 . S
C589 C590 1.369 . S
C589 C591 1.419 . S
C589 H593 0.930 . S
C590 C589 1.369 . S
C590 C599 1.429 . S
C591 C589 1.419 . S
C591 C592 1.363 . S
C591 H594 0.929 . S
C592 C591 1.363 . S
C592 C598 1.428 . S
H593 C589 0.930 . S
H594 C591 0.929 . S
S595 N596 1.613 . S
S595 N597 1.610 . S
N596 S595 1.613 . S
N596 C599 1.350 . S
N597 S595 1.610 . S
N597 C598 1.351 . S
C598 C592 1.428 . S
C598 N597 1.351 . S
C598 C599 1.434 . S
C599 C590 1.429 . S
C599 N596 1.350 . S
C599 C598 1.434 . S
C600 C601 1.369 . S
C600 C602 1.419 . S
C600 H604 0.930 . S
C601 C600 1.369 . S
C601 C610 1.429 . S
C602 C600 1.419 . S
C602 C603 1.363 . S
C602 H605 0.929 . S
C603 C602 1.363 . S
C603 C609 1.428 . S
H604 C600 0.930 . S
H605 C602 0.929 . S
S606 N607 1.613 . S
S606 N608 1.610 . S
N607 S606 1.613 . S
N607 C610 1.350 . S
N608 S606 1.610 . S
N608 C609 1.351 . S
C609 C603 1.428 . S
C609 N608 1.351 . S
C609 C610 1.434 . S
C610 C601 1.429 . S
C610 N607 1.350 . S
C610 C609 1.434 . S
C611 C612 1.369 . S
C611 C613 1.419 . S
C611 H615 0.930 . S
C612 C611 1.369 . S
C612 C621 1.429 . S
C613 C611 1.419 . S
C613 C614 1.363 . S
C613 H616 0.929 . S
C614 C613 1.363 . S
C614 C620 1.428 . S
H615 C611 0.930 . S
H616 C613 0.929 . S
S617 N618 1.613 . S
S617 N619 1.610 . S
N618 S617 1.613 . S
N618 C621 1.350 . S
N619 S617 1.610 . S
N619 C620 1.351 . S
C620 C614 1.428 . S
C620 N619 1.351 . S
C620 C621 1.434 . S
C621 C612 1.429 . S
C621 N618 1.350 . S
C621 C620 1.434 . S
C622 C623 1.369 . S
C622 C624 1.419 1_565 S
C622 H626 0.930 . S
C623 C622 1.369 . S
C623 C632 1.429 . S
C624 C622 1.419 1_545 S
C624 C625 1.363 . S
C624 H627 0.929 . S
C625 C624 1.363 . S
C625 C631 1.428 . S
H626 C622 0.930 . S
H627 C624 0.929 . S
S628 N629 1.613 1_545 S
S628 N630 1.610 . S
N629 S628 1.613 1_565 S
N629 C632 1.350 . S
N630 S628 1.610 . S
N630 C631 1.351 . S
C631 C625 1.428 . S
C631 N630 1.351 . S
C631 C632 1.434 1_545 S
C632 C623 1.429 . S
C632 N629 1.350 . S
C632 C631 1.434 1_565 S
C633 C634 1.369 . S
C633 C635 1.419 1_455 S
C633 H637 0.930 . S
C634 C633 1.369 . S
C634 C643 1.429 . S
C635 C633 1.419 1_655 S
C635 C636 1.363 . S
C635 H638 0.929 . S
C636 C635 1.363 . S
C636 C642 1.428 . S
H637 C633 0.930 . S
H638 C635 0.929 . S
S639 N640 1.613 1_655 S
S639 N641 1.610 . S
N640 S639 1.613 1_455 S
N640 C643 1.350 . S
N641 S639 1.610 . S
N641 C642 1.351 . S
C642 C636 1.428 . S
C642 N641 1.351 . S
C642 C643 1.434 1_655 S
C643 C634 1.429 . S
C643 N640 1.350 . S
C643 C642 1.434 1_455 S
C644 C645 1.369 . S
C644 C646 1.419 1_565 S
C644 H648 0.930 . S
C645 C644 1.369 . S
C645 C654 1.429 . S
C646 C644 1.419 1_545 S
C646 C647 1.363 . S
C646 H649 0.929 . S
C647 C646 1.363 . S
C647 C653 1.428 . S
H648 C644 0.930 . S
H649 C646 0.929 . S
S650 N651 1.613 1_545 S
S650 N652 1.610 . S
N651 S650 1.613 1_565 S
N651 C654 1.350 . S
N652 S650 1.610 . S
N652 C653 1.351 . S
C653 C647 1.428 . S
C653 N652 1.351 . S
C653 C654 1.434 1_545 S
C654 C645 1.429 . S
C654 N651 1.350 . S
C654 C653 1.434 1_565 S
C655 C656 1.369 . S
C655 C657 1.419 1_655 S
C655 H659 0.930 . S
C656 C655 1.369 . S
C656 C665 1.429 . S
C657 C655 1.419 1_455 S
C657 C658 1.363 . S
C657 H660 0.929 . S
C658 C657 1.363 . S
C658 C664 1.428 . S
H659 C655 0.930 . S
H660 C657 0.929 . S
S661 N662 1.613 1_455 S
S661 N663 1.610 . S
N662 S661 1.613 1_655 S
N662 C665 1.350 . S
N663 S661 1.610 . S
N663 C664 1.351 . S
C664 C658 1.428 . S
C664 N663 1.351 . S
C664 C665 1.434 1_455 S
C665 C656 1.429 . S
C665 N662 1.350 . S
C665 C664 1.434 1_655 S
C666 C667 1.369 . S
C666 C668 1.419 . S
C666 H670 0.930 . S
C667 C666 1.369 . S
C667 C676 1.429 . S
C668 C666 1.419 . S
C668 C669 1.363 . S
C668 H671 0.929 . S
C669 C668 1.363 . S
C669 C675 1.428 . S
H670 C666 0.930 . S
H671 C668 0.929 . S
S672 N673 1.613 . S
S672 N674 1.610 . S
N673 S672 1.613 . S
N673 C676 1.350 . S
N674 S672 1.610 . S
N674 C675 1.351 . S
C675 C669 1.428 . S
C675 N674 1.351 . S
C675 C676 1.434 . S
C676 C667 1.429 . S
C676 N673 1.350 . S
C676 C675 1.434 . S
C677 C678 1.369 . S
C677 C679 1.419 . S
C677 H681 0.930 . S
C678 C677 1.369 . S
C678 C687 1.429 . S
C679 C677 1.419 . S
C679 C680 1.363 . S
C679 H682 0.929 . S
C680 C679 1.363 . S
C680 C686 1.428 . S
H681 C677 0.930 . S
H682 C679 0.929 . S
S683 N684 1.613 . S
S683 N685 1.610 . S
N684 S683 1.613 . S
N684 C687 1.350 . S
N685 S683 1.610 . S
N685 C686 1.351 . S
C686 C680 1.428 . S
C686 N685 1.351 . S
C686 C687 1.434 . S
C687 C678 1.429 . S
C687 N684 1.350 . S
C687 C686 1.434 . S
C688 C689 1.369 . S
C688 C690 1.419 . S
C688 H692 0.930 . S
C689 C688 1.369 . S
C689 C698 1.429 . S
C690 C688 1.419 . S
C690 C691 1.363 . S
C690 H693 0.929 . S
C691 C690 1.363 . S
C691 C697 1.428 . S
H692 C688 0.930 . S
H693 C690 0.929 . S
S694 N695 1.613 . S
S694 N696 1.610 . S
N695 S694 1.613 . S
N695 C698 1.350 . S
N696 S694 1.610 . S
N696 C697 1.351 . S
C697 C691 1.428 . S
C697 N696 1.351 . S
C697 C698 1.434 . S
C698 C689 1.429 . S
C698 N695 1.350 . S
C698 C697 1.434 . S
C699 C700 1.369 . S
C699 C701 1.419 1_554 S
C699 H703 0.930 . S
C700 C699 1.369 . S
C700 C709 1.429 . S
C701 C699 1.419 1_556 S
C701 C702 1.363 . S
C701 H704 0.929 . S
C702 C701 1.363 . S
C702 C708 1.428 . S
H703 C699 0.930 . S
H704 C701 0.929 . S
S705 N706 1.613 1_556 S
S705 N707 1.610 . S
N706 S705 1.613 1_554 S
N706 C709 1.350 . S
N707 S705 1.610 . S
N707 C708 1.351 . S
C708 C702 1.428 . S
C708 N707 1.351 . S
C708 C709 1.434 1_556 S
C709 C700 1.429 . S
C709 N706 1.350 . S
C709 C708 1.434 1_554 S
C710 C711 1.369 . S
C710 C712 1.419 . S
C710 H714 0.930 . S
C711 C710 1.369 . S
C711 C720 1.429 . S
C712 C710 1.419 . S
C712 C713 1.363 . S
C712 H715 0.929 . S
C713 C712 1.363 . S
C713 C719 1.428 . S
H714 C710 0.930 . S
H715 C712 0.929 . S
S716 N717 1.613 . S
S716 N718 1.610 . S
N717 S716 1.613 . S
N717 C720 1.350 . S
N718 S716 1.610 . S
N718 C719 1.351 . S
C719 C713 1.428 . S
C719 N718 1.351 . S
C719 C720 1.434 . S
C720 C711 1.429 . S
C720 N717 1.350 . S
C720 C719 1.434 . S
C721 C722 1.369 . S
C721 C723 1.419 1_556 S
C721 H725 0.930 . S
C722 C721 1.369 . S
C722 C731 1.429 . S
C723 C721 1.419 1_554 S
C723 C724 1.363 . S
C723 H726 0.929 . S
C724 C723 1.363 . S
C724 C730 1.428 . S
H725 C721 0.930 . S
H726 C723 0.929 . S
S727 N728 1.613 1_554 S
S727 N729 1.610 . S
N728 S727 1.613 1_556 S
N728 C731 1.350 . S
N729 S727 1.610 . S
N729 C730 1.351 . S
C730 C724 1.428 . S
C730 N729 1.351 . S
C730 C731 1.434 1_554 S
C731 C722 1.429 . S
C731 N728 1.350 . S
C731 C730 1.434 1_556 S
C732 C733 1.369 . S
C732 C734 1.419 . S
C732 H736 0.930 . S
C733 C732 1.369 . S
C733 C742 1.429 . S
C734 C732 1.419 . S
C734 C735 1.363 . S
C734 H737 0.929 . S
C735 C734 1.363 . S
C735 C741 1.428 . S
H736 C732 0.930 . S
H737 C734 0.929 . S
S738 N739 1.613 . S
S738 N740 1.610 . S
N739 S738 1.613 . S
N739 C742 1.350 . S
N740 S738 1.610 . S
N740 C741 1.351 . S
C741 C735 1.428 . S
C741 N740 1.351 . S
C741 C742 1.434 . S
C742 C733 1.429 . S
C742 N739 1.350 . S
C742 C741 1.434 . S
C743 C744 1.369 . S
C743 C745 1.419 . S
C743 H747 0.930 . S
C744 C743 1.369 . S
C744 C753 1.429 . S
C745 C743 1.419 . S
C745 C746 1.363 . S
C745 H748 0.929 . S
C746 C745 1.363 . S
C746 C752 1.428 . S
H747 C743 0.930 . S
H748 C745 0.929 . S
S749 N750 1.613 . S
S749 N751 1.610 . S
N750 S749 1.613 . S
N750 C753 1.350 . S
N751 S749 1.610 . S
N751 C752 1.351 . S
C752 C746 1.428 . S
C752 N751 1.351 . S
C752 C753 1.434 . S
C753 C744 1.429 . S
C753 N750 1.350 . S
C753 C752 1.434 . S
C754 C755 1.369 . S
C754 C756 1.419 1_545 S
C754 H758 0.930 . S
C755 C754 1.369 . S
C755 C764 1.429 . S
C756 C754 1.419 1_565 S
C756 C757 1.363 . S
C756 H759 0.929 . S
C757 C756 1.363 . S
C757 C763 1.428 . S
H758 C754 0.930 . S
H759 C756 0.929 . S
S760 N761 1.613 . S
S760 N762 1.610 1_545 S
N761 S760 1.613 . S
N761 C764 1.350 . S
N762 S760 1.610 1_565 S
N762 C763 1.351 . S
C763 C757 1.428 . S
C763 N762 1.351 . S
C763 C764 1.434 1_565 S
C764 C755 1.429 . S
C764 N761 1.350 . S
C764 C763 1.434 1_545 S
C765 C766 1.369 . S
C765 C767 1.419 1_455 S
C765 H769 0.930 . S
C766 C765 1.369 . S
C766 C775 1.429 . S
C767 C765 1.419 1_655 S
C767 C768 1.363 . S
C767 H770 0.929 . S
C768 C767 1.363 . S
C768 C774 1.428 . S
H769 C765 0.930 . S
H770 C767 0.929 . S
S771 N772 1.613 . S
S771 N773 1.610 1_455 S
N772 S771 1.613 . S
N772 C775 1.350 . S
N773 S771 1.610 1_655 S
N773 C774 1.351 . S
C774 C768 1.428 . S
C774 N773 1.351 . S
C774 C775 1.434 1_655 S
C775 C766 1.429 . S
C775 N772 1.350 . S
C775 C774 1.434 1_455 S
C776 C777 1.369 . S
C776 C778 1.419 1_545 S
C776 H780 0.930 . S
C777 C776 1.369 . S
C777 C786 1.429 . S
C778 C776 1.419 1_565 S
C778 C779 1.363 . S
C778 H781 0.929 . S
C779 C778 1.363 . S
C779 C785 1.428 . S
H780 C776 0.930 . S
H781 C778 0.929 . S
S782 N783 1.613 1_565 S
S782 N784 1.610 . S
N783 S782 1.613 1_545 S
N783 C786 1.350 . S
N784 S782 1.610 . S
N784 C785 1.351 . S
C785 C779 1.428 . S
C785 N784 1.351 . S
C785 C786 1.434 1_565 S
C786 C777 1.429 . S
C786 N783 1.350 . S
C786 C785 1.434 1_545 S
C787 C788 1.369 . S
C787 C789 1.419 1_455 S
C787 H791 0.930 . S
C788 C787 1.369 . S
C788 C797 1.429 . S
C789 C787 1.419 1_655 S
C789 C790 1.363 . S
C789 H792 0.929 . S
C790 C789 1.363 . S
C790 C796 1.428 . S
H791 C787 0.930 . S
H792 C789 0.929 . S
S793 N794 1.613 . S
S793 N795 1.610 1_455 S
N794 S793 1.613 . S
N794 C797 1.350 . S
N795 S793 1.610 1_655 S
N795 C796 1.351 . S
C796 C790 1.428 . S
C796 N795 1.351 . S
C796 C797 1.434 1_655 S
C797 C788 1.429 . S
C797 N794 1.350 . S
C797 C796 1.434 1_455 S
C798 C799 1.369 . S
C798 C800 1.419 . S
C798 H802 0.930 . S
C799 C798 1.369 . S
C799 C808 1.429 . S
C800 C798 1.419 . S
C800 C801 1.363 . S
C800 H803 0.929 . S
C801 C800 1.363 . S
C801 C807 1.428 . S
H802 C798 0.930 . S
H803 C800 0.929 . S
S804 N805 1.613 . S
S804 N806 1.610 . S
N805 S804 1.613 . S
N805 C808 1.350 . S
N806 S804 1.610 . S
N806 C807 1.351 . S
C807 C801 1.428 . S
C807 N806 1.351 . S
C807 C808 1.434 . S
C808 C799 1.429 . S
C808 N805 1.350 . S
C808 C807 1.434 . S
C809 C810 1.369 . S
C809 C811 1.419 . S
C809 H813 0.930 . S
C810 C809 1.369 . S
C810 C819 1.429 . S
C811 C809 1.419 . S
C811 C812 1.363 . S
C811 H814 0.929 . S
C812 C811 1.363 . S
C812 C818 1.428 . S
H813 C809 0.930 . S
H814 C811 0.929 . S
S815 N816 1.613 . S
S815 N817 1.610 . S
N816 S815 1.613 . S
N816 C819 1.350 . S
N817 S815 1.610 . S
N817 C818 1.351 . S
C818 C812 1.428 . S
C818 N817 1.351 . S
C818 C819 1.434 . S
C819 C810 1.429 . S
C819 N816 1.350 . S
C819 C818 1.434 . S
C820 C821 1.369 . S
C820 C822 1.419 . S
C820 H824 0.930 . S
C821 C820 1.369 . S
C821 C830 1.429 . S
C822 C820 1.419 . S
C822 C823 1.363 . S
C822 H825 0.929 . S
C823 C822 1.363 . S
C823 C829 1.428 . S
H824 C820 0.930 . S
H825 C822 0.929 . S
S826 N827 1.613 . S
S826 N828 1.610 . S
N827 S826 1.613 . S
N827 C830 1.350 . S
N828 S826 1.610 . S
N828 C829 1.351 . S
C829 C823 1.428 . S
C829 N828 1.351 . S
C829 C830 1.434 . S
C830 C821 1.429 . S
C830 N827 1.350 . S
C830 C829 1.434 . S
C831 C832 1.369 . S
C831 C833 1.419 1_554 S
C831 H835 0.930 . S
C832 C831 1.369 . S
C832 C841 1.429 . S
C833 C831 1.419 1_556 S
C833 C834 1.363 . S
C833 H836 0.929 . S
C834 C833 1.363 . S
C834 C840 1.428 . S
H835 C831 0.930 . S
H836 C833 0.929 . S
S837 N838 1.613 1_556 S
S837 N839 1.610 . S
N838 S837 1.613 1_554 S
N838 C841 1.350 . S
N839 S837 1.610 . S
N839 C840 1.351 . S
C840 C834 1.428 . S
C840 N839 1.351 . S
C840 C841 1.434 1_556 S
C841 C832 1.429 . S
C841 N838 1.350 . S
C841 C840 1.434 1_554 S
C842 C843 1.369 . S
C842 C844 1.419 . S
C842 H846 0.930 . S
C843 C842 1.369 . S
C843 C852 1.429 . S
C844 C842 1.419 . S
C844 C845 1.363 . S
C844 H847 0.929 . S
C845 C844 1.363 . S
C845 C851 1.428 . S
H846 C842 0.930 . S
H847 C844 0.929 . S
S848 N849 1.613 . S
S848 N850 1.610 . S
N849 S848 1.613 . S
N849 C852 1.350 . S
N850 S848 1.610 . S
N850 C851 1.351 . S
C851 C845 1.428 . S
C851 N850 1.351 . S
C851 C852 1.434 . S
C852 C843 1.429 . S
C852 N849 1.350 . S
C852 C851 1.434 . S
C853 C854 1.369 . S
C853 C855 1.419 1_554 S
C853 H857 0.930 . S
C854 C853 1.369 . S
C854 C863 1.429 . S
C855 C853 1.419 1_556 S
C855 C856 1.363 . S
C855 H858 0.929 . S
C856 C855 1.363 . S
C856 C862 1.428 . S
H857 C853 0.930 . S
H858 C855 0.929 . S
S859 N860 1.613 1_556 S
S859 N861 1.610 . S
N860 S859 1.613 1_554 S
N860 C863 1.350 . S
N861 S859 1.610 . S
N861 C862 1.351 . S
C862 C856 1.428 . S
C862 N861 1.351 . S
C862 C863 1.434 1_556 S
C863 C854 1.429 . S
C863 N860 1.350 . S
C863 C862 1.434 1_554 S
C337 C57 1.485 . S
C339 C13 1.486 . S
C348 C15 1.484 . S
C350 C71 1.486 . S
C359 C97 1.482 . S
C361 C40 1.482 . S
C370 C99 1.483 . S
C372 C43 1.485 . S
C381 C208 1.482 . S
C383 C112 1.482 . S
C392 C210 1.485 . S
C394 C127 1.485 . S
C403 C141 1.486 . S
C405 C168 1.484 . S
C414 C182 1.485 . S
C416 C154 1.482 . S
C425 C224 1.484 . S
C427 C295 1.482 . S
C436 C251 1.485 . S
C438 C266 1.482 . S
C447 C252 1.486 . S
C449 C293 1.484 . S
C458 C320 1.486 . S
C460 C322 1.483 . S
C469 C55 1.483 . S
C471 C83 1.485 . S
C480 C1 1.484 . S
C482 C85 1.485 . S
C491 C111 1.485 . S
C493 C27 1.483 . S
C502 C28 1.486 . S
C504 C69 1.483 . S
C513 C334 1.484 . S
C515 C264 1.482 . S
C524 C278 1.485 . S
C526 C307 1.482 . S
C535 C281 1.484 . S
C537 C308 1.486 . S
C546 C239 1.482 . S
C548 C236 1.485 . S
C557 C166 1.485 . S
C559 C139 1.485 . S
C568 C222 1.486 . S
C570 C194 1.483 . S
C579 C180 1.486 . S
C581 C196 1.483 . S
C590 C153 1.481 . S
C592 C124 1.483 . S
C601 C321 1.505 . S
C603 C12 1.507 . S
C612 C225 1.505 . S
C614 C14 1.507 . S
C623 C323 1.506 . S
C625 C41 1.505 . S
C634 C294 1.507 . S
C636 C42 1.505 . S
C645 C253 1.507 . S
C647 C56 1.506 . S
C656 C70 1.507 . S
C658 C267 1.505 . S
C667 C292 1.505 . S
C669 C96 1.507 . S
C678 C250 1.507 . S
C680 C98 1.505 . S
C689 C183 1.507 . S
C691 C113 1.505 . S
C700 C209 1.506 . S
C702 C126 1.506 . S
C711 C211 1.507 . S
C713 C140 1.506 . S
C722 C155 1.506 . S
C724 C169 1.505 . S
C733 C82 1.505 . S
C735 C152 1.505 . S
C744 C84 1.505 . S
C746 C167 1.506 . S
C755 C125 1.506 . S
C757 C110 1.506 . S
C766 C68 1.505 . S
C768 C138 1.506 . S
C777 C197 1.507 . S
C779 C54 1.505 . S
C788 C0 1.505 . S
C790 C223 1.506 . S
C799 C181 1.505 . S
C801 C26 1.506 . S
C810 C29 1.506 . S
C812 C195 1.505 . S
C821 C238 1.506 . S
C823 C335 1.505 . S
C832 C306 1.506 . S
C834 C265 1.505 . S
C843 C309 1.505 . S
C845 C279 1.506 . S
C854 C237 1.507 . S
C856 C280 1.506 . S
