# Generated by pormake.
# Topology ilc, (8)-cn, num edge types: 1
# Building blocks:
#     Node 0, Type 0, BuildingBlock: EBIMEJ_clean_sbu_0, # of connection points: 8
#     Node 1, Type 0, BuildingBlock: EBIMEJ_clean_sbu_0, # of connection points: 8
#     Node 2, Type 0, BuildingBlock: EBIMEJ_clean_sbu_0, # of connection points: 8
#     Edge 3, Type (0, 0), BuildingBlock: ZUJKAS_clean_linker_0, # of connection points: 2
#     Edge 4, Type (0, 0), BuildingBlock: ZUJKAS_clean_linker_0, # of connection points: 2
#     Edge 5, Type (0, 0), BuildingBlock: ZUJKAS_clean_linker_0, # of connection points: 2
#     Edge 6, Type (0, 0), BuildingBlock: ZUJKAS_clean_linker_0, # of connection points: 2
#     Edge 7, Type (0, 0), BuildingBlock: ZUJKAS_clean_linker_0, # of connection points: 2
#     Edge 8, Type (0, 0), BuildingBlock: ZUJKAS_clean_linker_0, # of connection points: 2
#     Edge 9, Type (0, 0), BuildingBlock: ZUJKAS_clean_linker_0, # of connection points: 2
#     Edge 10, Type (0, 0), BuildingBlock: ZUJKAS_clean_linker_0, # of connection points: 2
#     Edge 11, Type (0, 0), BuildingBlock: ZUJKAS_clean_linker_0, # of connection points: 2
#     Edge 12, Type (0, 0), BuildingBlock: ZUJKAS_clean_linker_0, # of connection points: 2
#     Edge 13, Type (0, 0), BuildingBlock: ZUJKAS_clean_linker_0, # of connection points: 2
#     Edge 14, Type (0, 0), BuildingBlock: ZUJKAS_clean_linker_0, # of connection points: 2
# Relax obj value: 0.132
# Max RMSD: 0.226
# Mean RMSD: 0.226
data_MOF--net-ilc--node1-EBIMEJ_clean_sbu_0--edge1-ZUJKAS_clean_linker_0
_symmetry_space_group_name_H-M    P1
_symmetry_Int_Tables_number       1
_symmetry_cell_setting            triclinic
loop_
_symmetry_equiv_pos_as_xyz
'x, y, z'
_cell_length_a     31.95227
_cell_length_b     29.224447
_cell_length_c     21.099224
_cell_angle_alpha  84.899942
_cell_angle_beta   96.357521
_cell_angle_gamma 136.04938
loop_
_atom_site_label
_atom_site_type_symbol
_atom_site_fract_x
_atom_site_fract_y
_atom_site_fract_z
_atom_type_partial_charge
Co0 Co 0.99027 0.9409 0.13713 0.0
Co1 Co 0.06011 0.97787 0.01439 0.0
Co2 Co 0.96248 0.97614 1.00686 0.0
H3 H 0.97657 0.94758 0.05985 0.0
O4 O 0.97947 0.92281 0.04689 0.0
H5 H 0.04911 0.01123 0.96378 0.0
O6 O 0.04481 0.03381 0.97942 0.0
Co7 Co 0.04382 0.03133 0.88813 0.0
O8 O 0.11042 0.03938 0.87389 0.0
O9 O 0.13969 0.03323 0.97333 0.0
O10 O 0.97164 0.01538 0.85857 0.0
O11 O 0.94566 0.02186 0.9492 0.0
O12 O 0.03048 0.96095 0.22733 0.0
O13 O 0.9507 0.93627 0.21044 0.0
O14 O 0.97674 0.93373 0.87699 0.0
O15 O 1.0181 0.91095 0.94526 0.0
C16 C 0.86637 0.88709 0.09917 0.0
C17 C 0.05924 0.90539 0.12473 0.0
C18 C 0.10832 0.13393 0.82297 0.0
C19 C 0.0457 0.06891 0.11221 0.0
C20 C 0.14804 0.04675 0.91338 0.0
C21 C 0.9455 0.02489 0.88781 0.0
C22 C 0.99083 0.95218 0.25123 0.0
C23 C 0.98151 0.89549 0.89784 0.0
O24 O 0.90152 0.88791 0.13582 0.0
O25 O 0.88191 0.91854 0.04541 0.0
O26 O 0.07468 0.92845 0.06751 0.0
O27 O 0.02772 0.90723 0.15438 0.0
O28 O 0.07099 0.11835 0.85915 0.0
O29 O 0.10821 0.0909 0.82364 0.0
O30 O 0.05985 0.03825 0.12566 0.0
O31 O 0.99956 0.04314 0.07438 0.0
Co32 Co 0.66575 0.27288 0.46784 0.0
Co33 Co 0.73399 0.32009 0.34174 0.0
Co34 Co 0.63905 0.32146 0.34584 0.0
H35 H 0.65273 0.28883 0.39372 0.0
O36 O 0.65433 0.26469 0.37597 0.0
H37 H 0.71789 0.34865 0.29076 0.0
O38 O 0.71642 0.37381 0.3062 0.0
Co39 Co 0.7021 0.35824 0.21491 0.0
O40 O 0.7838 0.39375 0.20584 0.0
O41 O 0.81198 0.3757 0.2988 0.0
O42 O 0.65814 0.38452 0.20415 0.0
O43 O 0.62209 0.3705 0.2974 0.0
O44 O 0.59089 0.18144 0.50322 0.0
O45 O 0.67685 0.23445 0.54471 0.0
O46 O 0.63486 0.25951 0.21964 0.0
O47 O 0.69273 0.25203 0.27457 0.0
C48 C 0.55791 0.25334 0.45419 0.0
C49 C 0.76104 0.27834 0.45651 0.0
C50 C 0.71296 0.3898 0.10105 0.0
C51 C 0.7332 0.41042 0.44917 0.0
C52 C 0.82178 0.39852 0.24137 0.0
C53 C 0.63093 0.38911 0.23846 0.0
C54 C 0.62177 0.18189 0.54606 0.0
C55 C 0.64763 0.22774 0.23563 0.0
O56 O 0.59548 0.25674 0.48869 0.0
O57 O 0.56437 0.27021 0.39477 0.0
O58 O 0.75248 0.27424 0.39534 0.0
O59 O 0.74255 0.29573 0.48804 0.0
O60 O 0.7527 0.39962 0.13709 0.0
O61 O 0.66693 0.3617 0.12984 0.0
O62 O 0.73728 0.37108 0.46698 0.0
O63 O 0.68902 0.39185 0.41212 0.0
Co64 Co 0.34826 0.63112 0.8069 0.0
Co65 Co 0.39061 0.63729 0.67681 0.0
Co66 Co 0.30357 0.64971 0.67865 0.0
H67 H 0.32155 0.62543 0.73209 0.0
O68 O 0.31855 0.59536 0.72128 0.0
H69 H 0.37873 0.66924 0.62629 0.0
O70 O 0.37943 0.69655 0.64052 0.0
Co71 Co 0.36771 0.68273 0.55035 0.0
O72 O 0.41829 0.66929 0.52739 0.0
O73 O 0.46097 0.67895 0.62411 0.0
O74 O 0.30322 0.68023 0.52609 0.0
O75 O 0.28527 0.69354 0.61945 0.0
O76 O 0.34871 0.66831 0.88516 0.0
O77 O 0.41168 0.66549 0.88037 0.0
O78 O 0.29262 0.58581 0.55141 0.0
O79 O 0.33369 0.56081 0.61659 0.0
C80 C 0.22283 0.57885 0.78538 0.0
C81 C 0.39237 0.56888 0.78967 0.0
C82 C 0.43906 0.78745 0.49015 0.0
C83 C 0.40496 0.75481 0.7642 0.0
C84 C 0.45922 0.67917 0.5628 0.0
C85 C 0.28312 0.69575 0.55781 0.0
C86 C 0.39361 0.68209 0.91235 0.0
C87 C 0.2925 0.54429 0.57514 0.0
O88 O 0.26219 0.58387 0.81831 0.0
O89 O 0.23074 0.60251 0.72824 0.0
O90 O 0.40435 0.5877 0.73094 0.0
O91 O 0.36845 0.57927 0.82224 0.0
O92 O 0.45357 0.77545 0.54159 0.0
O93 O 0.38443 0.73942 0.4726 0.0
O94 O 0.41674 0.72166 0.77243 0.0
O95 O 0.35334 0.72664 0.73814 0.0
H96 H 0.19994 0.18446 0.75281 0.0
H97 H 0.19412 0.19949 0.6392 0.0
H98 H 0.06703 0.20798 0.65961 0.0
H99 H 0.07094 0.19013 0.77422 0.0
H100 H 1.01243 0.09067 0.62046 0.0
H101 H 0.204 0.2757 0.47098 0.0
H102 H 0.22631 0.252 0.53588 0.0
H103 H 0.20557 0.29289 0.55227 0.0
C104 C 0.17387 0.19403 0.73371 0.0
C105 C 0.13337 0.18257 0.77108 0.0
C106 C 0.17094 0.20335 0.66828 0.0
C107 C 0.12819 0.20227 0.64062 0.0
C108 C 0.09922 0.20745 0.68019 0.0
H109 H 0.91846 0.95446 0.30323 0.0
H110 H 0.94292 0.01194 0.39959 0.0
C111 C 0.1016 0.19732 0.74581 0.0
C112 C 0.098 0.1696 0.57846 0.0
H113 H 0.13028 0.16163 0.43412 0.0
C114 C 0.03764 0.10711 0.57879 0.0
C115 C 0.13095 0.19025 0.52473 0.0
C116 C 0.1952 0.25682 0.52092 0.0
C117 C 1.01156 0.06235 0.52975 0.0
C118 C 0.04612 0.08182 0.47792 0.0
C119 C 0.1044 0.14627 0.47485 0.0
C120 C 1.0243 0.03604 0.42718 0.0
C121 C 0.94929 0.99326 0.53651 0.0
C122 C 0.06067 0.0284 0.41206 0.0
C123 C 0.04705 -0.00392 0.35677 0.0
C124 C 0.99688 0.97109 0.31606 0.0
C125 C 0.95749 0.97349 0.33406 0.0
C126 C 0.97121 0.00597 0.38932 0.0
H127 H 0.93641 0.98109 0.58667 0.0
H128 H 0.9156 0.989 0.50716 0.0
H129 H 0.94651 0.95609 0.51988 0.0
H130 H 0.10142 0.05055 0.4413 0.0
H131 H 0.07773 0.99422 0.34404 0.0
H132 H 0.67975 0.16849 0.63604 0.0
H133 H 0.6736 0.17788 0.74663 0.0
H134 H 0.50248 0.11181 0.69993 0.0
H135 H 0.50935 0.10441 0.58831 0.0
H136 H 0.606 0.25205 0.70843 0.0
H137 H 0.60354 0.12425 0.92044 0.0
H138 H 0.64482 0.13782 0.85694 0.0
H139 H 0.56446 0.08358 0.84488 0.0
C140 C 0.63866 0.1514 0.64999 0.0
C141 C 0.59727 0.14069 0.60381 0.0
C142 C 0.63506 0.15664 0.71359 0.0
C143 C 0.58897 0.1489 0.73037 0.0
C144 C 0.53931 0.12027 0.68686 0.0
H145 H 0.62954 0.36691 0.0162 0.0
H146 H 0.60544 0.32373 0.90991 0.0
C147 C 0.54321 0.11565 0.62304 0.0
C148 C 0.60464 0.19285 0.77929 0.0
H149 H 0.65818 0.23649 0.93376 0.0
C150 C 0.61605 0.24793 0.75815 0.0
C151 C 0.61903 0.18814 0.84327 0.0
C152 C 0.60681 0.12984 0.86799 0.0
C153 C 0.64374 0.29965 0.79929 0.0
C154 C 0.6598 0.29556 0.86274 0.0
C155 C 0.6467 0.23973 0.88434 0.0
C156 C 0.68619 0.34576 0.90988 0.0
C157 C 0.65766 0.3592 0.77451 0.0
C158 C 0.74201 0.37734 0.94202 0.0
C159 C 0.75578 0.40185 1.00281 0.0
C160 C 0.71313 0.39361 0.03159 0.0
C161 C 0.66234 0.3723 0.9951 0.0
C162 C 0.6487 0.34801 0.93427 0.0
H163 H 0.65452 0.36134 0.72155 0.0
H164 H 0.6249 0.35721 0.79213 0.0
H165 H 0.70366 0.40527 0.79239 0.0
H166 H 0.77151 0.37619 0.92336 0.0
H167 H 0.79589 0.41936 0.02985 0.0
H168 H 0.48721 0.71004 0.97955 0.0
H169 H 0.53943 0.77129 0.07926 0.0
H170 H 0.42442 0.79987 0.07718 0.0
H171 H 0.37216 0.73917 0.97728 0.0
H172 H 0.56823 0.91816 0.11627 0.0
H173 H 0.42464 0.67304 0.2406 0.0
H174 H 0.45486 0.68581 0.16606 0.0
H175 H 0.39756 0.68362 0.16717 0.0
C176 C 0.47357 0.73006 1.00005 0.0
C177 C 0.42523 0.71926 0.97155 0.0
C178 C 0.50382 0.76553 0.05632 0.0
C179 C 0.48609 0.79061 0.08438 0.0
C180 C 0.43908 0.78161 0.05512 0.0
H181 H 0.42003 0.84054 0.39503 0.0
H182 H 0.46956 0.88076 0.2954 0.0
C183 C 0.40875 0.7461 0.99892 0.0
C184 C 0.50982 0.81724 0.14887 0.0
H185 H 0.48181 0.76627 0.30363 0.0
C186 C 0.55085 0.88537 0.15753 0.0
C187 C 0.48611 0.77388 0.20198 0.0
C188 C 0.43826 0.69994 0.19411 0.0
C189 C 0.56664 0.91084 0.21884 0.0
C190 C 0.54053 0.86716 0.27136 0.0
C191 C 0.50275 0.79966 0.26285 0.0
C192 C 0.53854 0.88557 0.33245 0.0
C193 C 0.60807 0.98339 0.22711 0.0
C194 C 0.56575 0.8831 0.38749 0.0
C195 C 0.53854 0.8623 0.44509 0.0
C196 C 0.48284 0.84101 0.44636 0.0
C197 C 0.46236 0.85545 0.39445 0.0
C198 C 0.49092 0.87883 0.33765 0.0
H199 H 0.64028 0.01185 0.18898 0.0
H200 H 0.58038 0.99341 0.2245 0.0
H201 H 0.63405 0.00013 0.27418 0.0
H202 H 0.60262 0.88831 0.38417 0.0
H203 H 0.55599 0.85344 0.48545 0.0
H204 H 0.31317 0.74964 0.43867 0.0
H205 H 0.27538 0.78494 0.36942 0.0
H206 H 0.16 0.73082 0.5137 0.0
H207 H 0.20055 0.69727 0.586 0.0
H208 H 0.16961 0.71845 0.31583 0.0
H209 H 0.22779 0.9075 0.46404 0.0
H210 H 0.25549 0.8716 0.48547 0.0
H211 H 0.17976 0.82749 0.50139 0.0
C212 C 0.28026 0.74557 0.45679 0.0
C213 C 0.26017 0.72027 0.51866 0.0
C214 C 0.25836 0.76585 0.41643 0.0
C215 C 0.21485 0.76121 0.4357 0.0
C216 C 0.19453 0.73643 0.49771 0.0
H217 H 1.01677 0.83501 0.23583 0.0
H218 H 0.05597 0.80163 0.30688 0.0
C219 C 0.21749 0.71686 0.53909 0.0
C220 C 0.19044 0.7805 0.38905 0.0
H221 H 0.16989 0.88091 0.36667 0.0
C222 C 0.16994 0.75419 0.32714 0.0
C223 C 0.19098 0.82751 0.40296 0.0
C224 C 0.21521 0.86071 0.46682 0.0
C225 C 0.14967 0.77277 0.27958 0.0
C226 C 0.14992 0.81938 0.29367 0.0
C227 C 0.17001 0.84548 0.35553 0.0
C228 C 0.12564 0.83836 0.2467 0.0
C229 C 0.12692 0.74125 0.21493 0.0
C230 C 0.15116 0.86993 0.18788 0.0
C231 C 0.12852 0.88954 0.14609 0.0
C232 C 0.08001 0.87806 0.16251 0.0
C233 C 0.0541 0.845 0.22085 0.0
C234 C 0.07665 0.82587 0.26216 0.0
H235 H 0.11734 0.69635 0.2159 0.0
H236 H 0.08516 0.72776 0.19727 0.0
H237 H 0.16184 0.77695 0.18045 0.0
H238 H 0.1896 0.88101 0.17506 0.0
H239 H 0.15022 0.91554 0.10224 0.0
H240 H 0.31761 0.4762 0.55394 0.0
H241 H 0.26603 0.39175 0.47392 0.0
H242 H 0.12582 0.38464 0.44128 0.0
H243 H 0.17922 0.4723 0.5194 0.0
H244 H 0.08731 0.25427 0.43955 0.0
H245 H 0.27103 0.45512 0.28426 0.0
H246 H 0.29639 0.45013 0.36253 0.0
H247 H 0.25474 0.4705 0.35398 0.0
C248 C 0.27473 0.45511 0.53146 0.0
C249 C 0.25252 0.48095 0.54245 0.0
C250 C 0.24529 0.40683 0.48568 0.0
C251 C 0.19221 0.38208 0.45186 0.0
C252 C 0.16676 0.40323 0.46704 0.0
H253 H 1.02156 0.14236 0.10548 0.0
H254 H 0.05488 0.22213 0.18389 0.0
C255 C 0.19716 0.45303 0.51164 0.0
C256 C 0.16816 0.34084 0.39555 0.0
H257 H 0.20641 0.3452 0.2487 0.0
C258 C 0.11285 0.27417 0.3975 0.0
C259 C 0.20118 0.36749 0.3404 0.0
C260 C 0.25889 0.43988 0.33457 0.0
C261 C 0.0914 0.23265 0.34653 0.0
C262 C 0.12632 0.25857 0.2932 0.0
C263 C 0.18019 0.32569 0.29011 0.0
C264 C 0.11 0.21526 0.24291 0.0
C265 C 0.03216 0.16104 0.3498 0.0
C266 C 0.13139 0.18677 0.24988 0.0
C267 C 0.1129 0.14173 0.20538 0.0
C268 C 0.07234 0.12414 0.15319 0.0
C269 C 0.0528 0.15487 0.14512 0.0
C270 C 0.07155 0.20019 0.1898 0.0
H271 H 1.01285 0.14669 0.39692 0.0
H272 H 0.99927 0.15095 0.31217 0.0
H273 H 0.03862 0.12994 0.33981 0.0
H274 H 0.16102 0.19792 0.29087 0.0
H275 H 0.12861 0.11883 0.21338 0.0
H276 H 0.57521 0.80015 0.55306 0.0
H277 H 0.64191 0.83577 0.46962 0.0
H278 H 0.52024 0.6332 0.41401 0.0
H279 H 0.4507 0.59926 0.49217 0.0
H280 H 0.70683 0.82399 0.4357 0.0
H281 H 0.52261 0.69865 0.24563 0.0
H282 H 0.51153 0.70397 0.32553 0.0
H283 H 0.50595 0.64092 0.305 0.0
C284 C 0.56326 0.76334 0.5233 0.0
C285 C 0.50775 0.69699 0.52896 0.0
C286 C 0.60134 0.78367 0.47534 0.0
C287 C 0.58538 0.73774 0.43292 0.0
C288 C 0.53259 0.6705 0.4432 0.0
H289 H 0.78266 0.7657 0.15398 0.0
H290 H 0.71355 0.73194 0.23301 0.0
C291 C 0.49347 0.65066 0.48927 0.0
C292 C 0.62293 0.76007 0.37757 0.0
H293 H 0.61394 0.73918 0.21723 0.0
C294 C 0.68624 0.80574 0.38797 0.0
C295 C 0.59702 0.73739 0.31433 0.0
C296 C 0.53061 0.69312 0.2969 0.0
C297 C 0.72335 0.8273 0.33804 0.0
C298 C 0.69684 0.80243 0.2759 0.0
C299 C 0.63411 0.75785 0.26501 0.0
C300 C 0.73335 0.82008 0.22227 0.0
C301 C 0.79078 0.87568 0.35198 0.0
C302 C 0.76524 0.87942 0.18754 0.0
C303 C 0.80359 0.89799 0.14083 0.0
C304 C 0.81107 0.85776 0.12845 0.0
C305 C 0.77666 0.79691 0.16117 0.0
C306 C 0.73785 0.77802 0.20707 0.0
H307 H 0.80461 0.88963 0.40303 0.0
H308 H 0.80624 0.85403 0.33882 0.0
H309 H 0.8141 0.92102 0.32249 0.0
H310 H 0.76244 0.91264 0.19844 0.0
H311 H 0.83106 0.94617 0.11826 0.0
H312 H 0.77755 0.20225 0.42215 0.0
H313 H 0.8073 0.15696 0.49431 0.0
H314 H 0.83173 0.2603 0.65156 0.0
H315 H 0.80313 0.30556 0.58112 0.0
H316 H 0.91432 0.22007 0.57802 0.0
H317 H 0.71221 0.06931 0.71764 0.0
H318 H 0.71729 0.10501 0.64073 0.0
H319 H 0.7541 0.15483 0.71098 0.0
C320 C 0.79018 0.21608 0.47184 0.0
C321 C 0.78737 0.25738 0.49543 0.0
C322 C 0.80676 0.18978 0.51324 0.0
C323 C 0.82024 0.20372 0.579 0.0
C324 C 0.82007 0.2472 0.60165 0.0
H325 H 0.91639 0.08946 0.92028 0.0
H326 H 0.88629 0.13336 0.84637 0.0
C327 C 0.804 0.27353 0.56074 0.0
C328 C 0.83482 0.17372 0.62465 0.0
H329 H 0.79055 0.07963 0.76129 0.0
C330 C 0.8869 0.18882 0.61769 0.0
C331 C 0.79976 0.13376 0.67735 0.0
C332 C 0.74243 0.11421 0.68701 0.0
C333 C 0.90545 0.16636 0.66221 0.0
C334 C 0.87006 0.12572 0.71464 0.0
C335 C 0.81794 0.11069 0.72156 0.0
C336 C 0.88519 0.09642 0.76094 0.0
C337 C 0.96412 0.18846 0.65362 0.0
C338 C 0.89234 0.05878 0.73843 0.0
C339 C 0.90939 0.03388 0.78027 0.0
C340 C 0.91917 0.04478 0.84656 0.0
C341 C 0.90914 0.07977 0.86981 0.0
C342 C 0.89223 0.10521 0.82741 0.0
H343 H 0.99484 0.23524 0.62558 0.0
H344 H 0.98795 0.19578 0.7003 0.0
H345 H 0.95461 0.15037 0.62705 0.0
H346 H 0.88532 0.04905 0.68799 0.0
H347 H 0.91598 0.00677 0.76008 0.0
H348 H 0.84049 0.47289 0.51586 0.0
H349 H 0.89864 0.56698 0.58611 0.0
H350 H 0.78055 0.58861 0.5229 0.0
H351 H 0.72226 0.49489 0.45197 0.0
H352 H 0.91111 0.71266 0.55258 0.0
H353 H 0.80071 0.51772 0.74255 0.0
H354 H 0.8432 0.52176 0.68871 0.0
H355 H 0.77518 0.49854 0.65941 0.0
C356 C 0.82756 0.49846 0.51593 0.0
C357 C 0.77567 0.47527 0.47996 0.0
C358 C 0.86098 0.55229 0.5559 0.0
C359 C 0.84275 0.58332 0.56063 0.0
C360 C 0.79481 0.56466 0.52009 0.0
H361 H 0.89233 0.84008 0.8027 0.0
H362 H 0.86071 0.76293 0.72296 0.0
C363 C 0.76147 0.51098 0.4798 0.0
C364 C 0.86702 0.62766 0.61407 0.0
H365 H 0.85983 0.62581 0.77462 0.0
C366 C 0.90039 0.69399 0.6012 0.0
C367 C 0.85284 0.60278 0.67735 0.0
C368 C 0.81571 0.53125 0.69322 0.0
C369 C 0.91936 0.73613 0.65022 0.0
C370 C 0.90329 0.7106 0.71312 0.0
C371 C 0.87164 0.64486 0.72623 0.0
C372 C 0.91726 0.75102 0.76542 0.0
C373 C 0.95631 0.80758 0.63441 0.0
C374 C 0.95641 0.76622 0.81783 0.0
C375 C 0.97418 0.80984 0.86399 0.0
C376 C 0.95295 0.83878 0.85819 0.0
C377 C 0.91018 0.81939 0.80806 0.0
C378 C 0.89242 0.77576 0.76217 0.0
H379 H 0.97853 0.82332 0.58902 0.0
H380 H 0.9262 0.81451 0.629 0.0
H381 H 0.99159 0.84019 0.67312 0.0
H382 H 0.97525 0.74664 0.8215 0.0
H383 H 1.00707 0.82362 0.90208 0.0
H384 H 0.5312 0.31989 0.48109 0.0
H385 H 0.46323 0.28767 0.56153 0.0
H386 H 0.40238 0.0996 0.58617 0.0
H387 H 0.47041 0.13208 0.50657 0.0
H388 H 0.34037 0.18598 0.5794 0.0
H389 H 0.4668 0.1712 0.76519 0.0
H390 H 0.49202 0.20197 0.68576 0.0
H391 H 0.43334 0.11439 0.70178 0.0
C392 C 0.50173 0.27089 0.50217 0.0
C393 C 0.50568 0.22822 0.48713 0.0
C394 C 0.46336 0.2527 0.54873 0.0
C395 C 0.42856 0.19173 0.58147 0.0
C396 C 0.42968 0.14753 0.56312 0.0
H397 H 0.17686 0.98346 0.88318 0.0
H398 H 0.2479 0.02178 0.80383 0.0
C399 C 0.46808 0.16578 0.517 0.0
C400 C 0.39305 0.17515 0.63627 0.0
H401 H 0.3736 0.12842 0.79407 0.0
C402 C 0.34802 0.17395 0.62642 0.0
C403 C 0.40289 0.15969 0.69817 0.0
C404 C 0.45196 0.16265 0.71361 0.0
C405 C 0.31158 0.15568 0.6757 0.0
C406 C 0.32082 0.13901 0.73719 0.0
C407 C 0.36624 0.14098 0.74718 0.0
C408 C 0.28344 0.11874 0.7914 0.0
C409 C 0.2623 0.15263 0.6609 0.0
C410 C 0.28195 0.16141 0.81369 0.0
C411 C 0.2422 0.13986 0.85975 0.0
C412 C 0.20352 0.07545 0.88543 0.0
C413 C 0.20762 0.03406 0.8661 0.0
C414 C 0.24754 0.05568 0.81991 0.0
H415 H 0.25084 0.15004 0.60878 0.0
H416 H 0.22066 0.10932 0.68463 0.0
H417 H 0.27792 0.19779 0.67877 0.0
H418 H 0.30984 0.21064 0.7936 0.0
H419 H 0.23877 0.1722 0.87225 0.0
H420 H 0.68352 0.47986 0.14309 0.0
H421 H 0.63967 0.50649 0.06871 0.0
H422 H 0.48089 0.38175 0.17582 0.0
H423 H 0.52518 0.35443 0.25152 0.0
H424 H 0.53675 0.41976 0.99176 0.0
H425 H 0.51777 0.5479 0.14572 0.0
H426 H 0.56291 0.53274 0.17027 0.0
H427 H 0.48221 0.46741 0.17383 0.0
C428 C 0.63982 0.45918 0.15213 0.0
C429 C 0.60822 0.41539 0.20402 0.0
C430 C 0.61458 0.47422 0.10899 0.0
C431 C 0.55695 0.44647 0.11626 0.0
C432 C 0.52589 0.40473 0.1695 0.0
H433 H 0.33697 0.48141 0.88826 0.0
H434 H 0.3761 0.4495 0.96346 0.0
C435 C 0.55136 0.38943 0.21314 0.0
C436 C 0.52928 0.45929 0.06592 0.0
H437 H 0.47562 0.5273 0.03961 0.0
C438 C 0.52328 0.44319 1.0023 0.0
C439 C 0.51194 0.4902 0.0792 0.0
C440 C 0.51941 0.5112 0.1458 0.0
C441 C 0.49976 0.45615 0.95215 0.0
C442 C 0.48267 0.4874 0.96535 0.0
C443 C 0.48861 0.50338 0.02905 0.0
C444 C 0.4569 0.50236 0.91466 0.0
C445 C 0.49224 0.43481 0.88571 0.0
C446 C 0.48828 0.54176 0.86053 0.0
C447 C 0.46524 0.5594 0.81632 0.0
C448 C 0.41075 0.5388 0.82587 0.0
C449 C 0.37876 0.49773 0.87892 0.0
C450 C 0.4014 0.47981 0.92247 0.0
H451 H 0.49065 0.39551 0.8865 0.0
H452 H 0.45038 0.41639 0.85971 0.0
H453 H 0.53139 0.47763 0.85875 0.0
H454 H 0.53188 0.56125 0.85382 0.0
H455 H 0.49182 0.59241 0.77703 0.0
H456 H 0.38098 0.82576 0.78282 0.0
H457 H 0.42723 0.90583 0.8671 0.0
H458 H 0.54987 0.88969 0.92616 0.0
H459 H 0.50681 0.81334 0.84046 0.0
H460 H 0.42695 0.87593 0.99628 0.0
H461 H 0.66469 0.08477 0.92966 0.0
H462 H 0.60484 0.0224 0.87302 0.0
H463 H 0.63596 0.00487 0.93381 0.0
C464 C 0.41908 0.84093 0.81246 0.0
C465 C 0.43989 0.81282 0.80511 0.0
C466 C 0.4451 0.8862 0.86091 0.0
C467 C 0.49217 0.90392 0.9027 0.0
C468 C 0.51473 0.87817 0.8936 0.0
H469 H 0.69142 0.17734 0.21975 0.0
H470 H 0.65298 0.09474 0.1437 0.0
C471 C 0.48963 0.83404 0.8446 0.0
C472 C 0.51473 0.94569 0.95832 0.0
H473 H 0.64002 0.0931 0.02557 0.0
C474 C 0.47353 0.92355 1.00275 0.0
C475 C 0.57603 0.00623 0.96815 0.0
C476 C 0.62295 0.03131 0.92351 0.0
C477 C 0.49171 0.96118 0.05604 0.0
C478 C 0.55191 0.02436 0.06297 0.0
C479 C 0.59362 0.04512 0.01992 0.0
C480 C 0.57238 0.07102 0.11268 0.0
C481 C 0.44656 0.93191 0.10503 0.0
C482 C 0.541 0.08722 0.11932 0.0
C483 C 0.56386 0.13611 0.16169 0.0
C484 C 0.61842 0.16949 0.19833 0.0
C485 C 0.64876 0.15188 0.19299 0.0
C486 C 0.62665 0.10427 0.14961 0.0
H487 H 0.41255 0.8772 0.10593 0.0
H488 H 0.46906 0.95008 0.1536 0.0
H489 H 0.4219 0.94543 0.09246 0.0
H490 H 0.50025 0.06429 0.08974 0.0
H491 H 0.53984 0.14918 0.16429 0.0
H492 H 0.1677 0.61981 0.78586 0.0
H493 H 0.09888 0.58797 0.86476 0.0
H494 H 0.09028 0.44003 0.94243 0.0
H495 H 0.15974 0.47264 0.86525 0.0
H496 H 0.98391 0.47305 0.90069 0.0
H497 H 0.15412 0.55211 0.09725 0.0
H498 H 0.17162 0.57068 0.01466 0.0
H499 H 0.13297 0.49047 0.0478 0.0
C500 C 0.14969 0.57927 0.81859 0.0
C501 C 0.16932 0.54889 0.81942 0.0
C502 C 0.1108 0.56147 0.86414 0.0
C503 C 0.09079 0.51293 0.91107 0.0
C504 C 0.10649 0.47902 0.90827 0.0
H505 H 0.87091 0.35078 0.24077 0.0
H506 H 0.93807 0.37913 0.16155 0.0
C507 C 0.14565 0.49717 0.86349 0.0
C508 C 0.05572 0.49934 0.96444 0.0
H509 H 0.05728 0.49647 0.12743 0.0
C510 C 1.00014 0.47851 0.9502 0.0
C511 C 0.07668 0.5063 0.02938 0.0
C512 C 0.13736 0.53172 0.04833 0.0
C513 C 0.96462 0.46336 0.99877 0.0
C514 C 0.98562 0.4703 0.06365 0.0
C515 C 0.04105 0.49092 0.0779 0.0
C516 C 0.95137 0.45817 0.11701 0.0
C517 C 0.90422 0.43875 0.98012 0.0
C518 C 0.93932 0.49544 0.1208 0.0
C519 C 0.90173 0.47978 0.16616 0.0
C520 C 0.87564 0.42689 0.2095 0.0
C521 C 0.89133 0.39266 0.20904 0.0
C522 C 0.92902 0.40829 0.16316 0.0
H523 H 0.88748 0.41913 0.93089 0.0
H524 H 0.86978 0.39945 0.01347 0.0
H525 H 0.90898 0.48017 0.98177 0.0
H526 H 0.95713 0.53516 0.08695 0.0
H527 H 0.89015 0.50677 0.16499 0.0
loop_
_geom_bond_atom_site_label_1
_geom_bond_atom_site_label_2
_geom_bond_distance
_geom_bond_site_symmetry_2
_ccdc_geom_bond_type
Co0 H3 2.400 . S
Co0 O4 2.009 . S
Co0 O12 2.115 . S
Co0 O13 2.315 . S
Co0 O24 2.053 . S
Co0 O27 2.094 1_655 S
Co0 O30 2.122 1_665 S
Co1 O4 2.126 1_456 S
Co1 H5 2.388 1_565 S
Co1 O6 2.053 1_565 S
Co1 O9 2.047 1_565 S
Co1 O15 2.113 1_455 S
Co1 O26 2.063 1_556 S
Co2 H3 2.388 1_545 S
Co2 O4 2.053 1_545 S
Co2 O6 2.126 1_654 S
Co2 O11 2.063 1_554 S
Co2 O25 2.047 1_545 S
Co2 O31 2.113 1_655 S
H3 Co0 2.400 . S
H3 Co2 2.388 1_565 S
H3 O4 0.760 . S
O4 Co0 2.009 . S
O4 Co1 2.126 1_654 S
O4 Co2 2.053 1_565 S
O4 H3 0.760 . S
H5 Co1 2.388 1_545 S
H5 O6 0.760 . S
H5 Co7 2.400 . S
O6 Co1 2.053 1_545 S
O6 Co2 2.126 1_456 S
O6 H5 0.760 . S
O6 Co7 2.009 . S
Co7 H5 2.400 . S
Co7 O6 2.009 . S
Co7 O8 2.053 . S
Co7 O10 2.094 1_455 S
Co7 O14 2.122 1_445 S
Co7 O28 2.115 . S
Co7 O29 2.315 . S
O8 Co7 2.053 . S
O8 C20 1.259 . S
O9 Co1 2.047 1_545 S
O9 C20 1.257 . S
O10 Co7 2.094 1_655 S
O10 C21 1.253 . S
O11 Co2 2.063 1_556 S
O11 C21 1.268 . S
O12 Co0 2.115 . S
O12 C22 1.281 . S
O13 Co0 2.315 . S
O13 C22 1.252 . S
O14 Co7 2.122 1_665 S
O14 C23 1.272 . S
O15 Co1 2.113 1_655 S
O15 C23 1.245 . S
C16 O24 1.259 . S
C16 O25 1.257 . S
C17 O26 1.268 . S
C17 O27 1.253 . S
C18 O28 1.281 . S
C18 O29 1.252 . S
C19 O30 1.272 . S
C19 O31 1.245 . S
C20 O8 1.259 . S
C20 O9 1.257 . S
C21 O10 1.253 . S
C21 O11 1.268 . S
C22 O12 1.281 . S
C22 O13 1.252 . S
C23 O14 1.272 . S
C23 O15 1.245 . S
O24 Co0 2.053 . S
O24 C16 1.259 . S
O25 Co2 2.047 1_565 S
O25 C16 1.257 . S
O26 Co1 2.063 1_554 S
O26 C17 1.268 . S
O27 Co0 2.094 1_455 S
O27 C17 1.253 . S
O28 Co7 2.115 . S
O28 C18 1.281 . S
O29 Co7 2.315 . S
O29 C18 1.252 . S
O30 Co0 2.122 1_445 S
O30 C19 1.272 . S
O31 Co2 2.113 1_455 S
O31 C19 1.245 . S
Co32 H35 2.400 . S
Co32 O36 2.009 . S
Co32 O44 2.115 . S
Co32 O45 2.315 . S
Co32 O56 2.053 . S
Co32 O59 2.094 . S
Co32 O62 2.122 . S
Co33 O36 2.126 . S
Co33 H37 2.388 . S
Co33 O38 2.053 . S
Co33 O41 2.047 . S
Co33 O47 2.113 . S
Co33 O58 2.063 . S
Co34 H35 2.388 . S
Co34 O36 2.053 . S
Co34 O38 2.126 . S
Co34 O43 2.063 . S
Co34 O57 2.047 . S
Co34 O63 2.113 . S
H35 Co32 2.400 . S
H35 Co34 2.388 . S
H35 O36 0.760 . S
O36 Co32 2.009 . S
O36 Co33 2.126 . S
O36 Co34 2.053 . S
O36 H35 0.760 . S
H37 Co33 2.388 . S
H37 O38 0.760 . S
H37 Co39 2.400 . S
O38 Co33 2.053 . S
O38 Co34 2.126 . S
O38 H37 0.760 . S
O38 Co39 2.009 . S
Co39 H37 2.400 . S
Co39 O38 2.009 . S
Co39 O40 2.053 . S
Co39 O42 2.094 . S
Co39 O46 2.122 . S
Co39 O60 2.115 . S
Co39 O61 2.315 . S
O40 Co39 2.053 . S
O40 C52 1.259 . S
O41 Co33 2.047 . S
O41 C52 1.257 . S
O42 Co39 2.094 . S
O42 C53 1.253 . S
O43 Co34 2.063 . S
O43 C53 1.268 . S
O44 Co32 2.115 . S
O44 C54 1.281 . S
O45 Co32 2.315 . S
O45 C54 1.252 . S
O46 Co39 2.122 . S
O46 C55 1.272 . S
O47 Co33 2.113 . S
O47 C55 1.245 . S
C48 O56 1.259 . S
C48 O57 1.257 . S
C49 O58 1.268 . S
C49 O59 1.253 . S
C50 O60 1.281 . S
C50 O61 1.252 . S
C51 O62 1.272 . S
C51 O63 1.245 . S
C52 O40 1.259 . S
C52 O41 1.257 . S
C53 O42 1.253 . S
C53 O43 1.268 . S
C54 O44 1.281 . S
C54 O45 1.252 . S
C55 O46 1.272 . S
C55 O47 1.245 . S
O56 Co32 2.053 . S
O56 C48 1.259 . S
O57 Co34 2.047 . S
O57 C48 1.257 . S
O58 Co33 2.063 . S
O58 C49 1.268 . S
O59 Co32 2.094 . S
O59 C49 1.253 . S
O60 Co39 2.115 . S
O60 C50 1.281 . S
O61 Co39 2.315 . S
O61 C50 1.252 . S
O62 Co32 2.122 . S
O62 C51 1.272 . S
O63 Co34 2.113 . S
O63 C51 1.245 . S
Co64 H67 2.400 . S
Co64 O68 2.009 . S
Co64 O76 2.115 . S
Co64 O77 2.315 . S
Co64 O88 2.053 . S
Co64 O91 2.094 . S
Co64 O94 2.122 . S
Co65 O68 2.126 . S
Co65 H69 2.388 . S
Co65 O70 2.053 . S
Co65 O73 2.047 . S
Co65 O79 2.113 . S
Co65 O90 2.063 . S
Co66 H67 2.388 . S
Co66 O68 2.053 . S
Co66 O70 2.126 . S
Co66 O75 2.063 . S
Co66 O89 2.047 . S
Co66 O95 2.113 . S
H67 Co64 2.400 . S
H67 Co66 2.388 . S
H67 O68 0.760 . S
O68 Co64 2.009 . S
O68 Co65 2.126 . S
O68 Co66 2.053 . S
O68 H67 0.760 . S
H69 Co65 2.388 . S
H69 O70 0.760 . S
H69 Co71 2.400 . S
O70 Co65 2.053 . S
O70 Co66 2.126 . S
O70 H69 0.760 . S
O70 Co71 2.009 . S
Co71 H69 2.400 . S
Co71 O70 2.009 . S
Co71 O72 2.053 . S
Co71 O74 2.094 . S
Co71 O78 2.122 . S
Co71 O92 2.115 . S
Co71 O93 2.315 . S
O72 Co71 2.053 . S
O72 C84 1.259 . S
O73 Co65 2.047 . S
O73 C84 1.257 . S
O74 Co71 2.094 . S
O74 C85 1.253 . S
O75 Co66 2.063 . S
O75 C85 1.268 . S
O76 Co64 2.115 . S
O76 C86 1.281 . S
O77 Co64 2.315 . S
O77 C86 1.252 . S
O78 Co71 2.122 . S
O78 C87 1.272 . S
O79 Co65 2.113 . S
O79 C87 1.245 . S
C80 O88 1.259 . S
C80 O89 1.257 . S
C81 O90 1.268 . S
C81 O91 1.253 . S
C82 O92 1.281 . S
C82 O93 1.252 . S
C83 O94 1.272 . S
C83 O95 1.245 . S
C84 O72 1.259 . S
C84 O73 1.257 . S
C85 O74 1.253 . S
C85 O75 1.268 . S
C86 O76 1.281 . S
C86 O77 1.252 . S
C87 O78 1.272 . S
C87 O79 1.245 . S
O88 Co64 2.053 . S
O88 C80 1.259 . S
O89 Co66 2.047 . S
O89 C80 1.257 . S
O90 Co65 2.063 . S
O90 C81 1.268 . S
O91 Co64 2.094 . S
O91 C81 1.253 . S
O92 Co71 2.115 . S
O92 C82 1.281 . S
O93 Co71 2.315 . S
O93 C82 1.252 . S
O94 Co64 2.122 . S
O94 C83 1.272 . S
O95 Co66 2.113 . S
O95 C83 1.245 . S
H96 C104 0.929 . S
H97 C106 0.930 1_665 S
H98 C108 0.930 . S
H99 C111 0.929 . S
H100 C114 0.930 . S
H101 C116 0.960 . S
H102 C116 0.960 . S
H103 C116 0.960 . S
C104 H96 0.929 . S
C104 C105 1.377 . S
C104 C106 1.384 . S
C105 C104 1.377 . S
C105 C111 1.390 . S
C106 H97 0.930 1_445 S
C106 C104 1.384 . S
C106 C107 1.372 . S
C107 C106 1.372 . S
C107 C108 1.400 . S
C107 C112 1.490 . S
C108 H98 0.930 . S
C108 C107 1.400 . S
C108 C111 1.386 . S
H109 C125 0.930 . S
H110 C126 0.931 1_545 S
C111 H99 0.929 . S
C111 C105 1.390 . S
C111 C108 1.386 . S
C112 C107 1.490 . S
C112 C114 1.395 1_445 S
C112 C115 1.403 . S
H113 C119 0.930 . S
C114 H100 0.930 . S
C114 C112 1.395 1_665 S
C114 C117 1.403 . S
C115 C112 1.403 . S
C115 C116 1.524 . S
C115 C119 1.400 . S
C116 H101 0.960 . S
C116 H102 0.960 . S
C116 H103 0.960 . S
C116 C115 1.524 . S
C117 C114 1.403 . S
C117 C118 1.392 . S
C117 C121 1.495 . S
C118 C117 1.392 . S
C118 C119 1.385 1_665 S
C118 C120 1.478 . S
C119 H113 0.930 . S
C119 C115 1.400 . S
C119 C118 1.385 1_445 S
C120 C118 1.478 . S
C120 C122 1.381 . S
C120 C126 1.383 . S
C121 C117 1.495 . S
C121 H127 0.959 . S
C121 H128 0.961 . S
C121 H129 0.960 . S
C122 C120 1.381 . S
C122 C123 1.394 . S
C122 H130 0.930 . S
C123 C122 1.394 . S
C123 C124 1.383 . S
C123 H131 0.929 . S
C124 C123 1.383 . S
C124 C125 1.377 . S
C125 H109 0.930 . S
C125 C124 1.377 . S
C125 C126 1.379 . S
C126 H110 0.931 1_565 S
C126 C120 1.383 . S
C126 C125 1.379 . S
H127 C121 0.959 . S
H128 C121 0.961 . S
H129 C121 0.960 . S
H130 C122 0.930 . S
H131 C123 0.929 . S
H132 C140 0.929 . S
H133 C142 0.930 . S
H134 C144 0.930 . S
H135 C147 0.929 . S
H136 C150 0.930 . S
H137 C152 0.960 . S
H138 C152 0.960 . S
H139 C152 0.960 . S
C140 H132 0.929 . S
C140 C141 1.377 . S
C140 C142 1.384 . S
C141 C140 1.377 . S
C141 C147 1.390 . S
C142 H133 0.930 . S
C142 C140 1.384 . S
C142 C143 1.372 . S
C143 C142 1.372 . S
C143 C144 1.400 . S
C143 C148 1.490 . S
C144 H134 0.930 . S
C144 C143 1.400 . S
C144 C147 1.386 . S
H145 C161 0.930 . S
H146 C162 0.932 . S
C147 H135 0.929 . S
C147 C141 1.390 . S
C147 C144 1.386 . S
C148 C143 1.490 . S
C148 C150 1.395 . S
C148 C151 1.403 . S
H149 C155 0.930 . S
C150 H136 0.930 . S
C150 C148 1.395 . S
C150 C153 1.403 . S
C151 C148 1.403 . S
C151 C152 1.524 . S
C151 C155 1.400 . S
C152 H137 0.960 . S
C152 H138 0.960 . S
C152 H139 0.960 . S
C152 C151 1.524 . S
C153 C150 1.403 . S
C153 C154 1.392 . S
C153 C157 1.495 . S
C154 C153 1.392 . S
C154 C155 1.385 . S
C154 C156 1.478 . S
C155 H149 0.930 . S
C155 C151 1.400 . S
C155 C154 1.385 . S
C156 C154 1.478 . S
C156 C158 1.381 . S
C156 C162 1.385 . S
C157 C153 1.495 . S
C157 H163 0.959 . S
C157 H164 0.961 . S
C157 H165 0.960 . S
C158 C156 1.381 . S
C158 C159 1.394 1_556 S
C158 H166 0.930 . S
C159 C158 1.394 1_554 S
C159 C160 1.383 . S
C159 H167 0.929 . S
C160 C159 1.383 . S
C160 C161 1.377 . S
C161 H145 0.930 . S
C161 C160 1.377 . S
C161 C162 1.376 1_554 S
C162 H146 0.932 . S
C162 C156 1.385 . S
C162 C161 1.376 1_556 S
H163 C157 0.959 . S
H164 C157 0.961 . S
H165 C157 0.960 . S
H166 C158 0.930 . S
H167 C159 0.929 . S
H168 C176 0.929 . S
H169 C178 0.930 . S
H170 C180 0.930 . S
H171 C183 0.929 . S
H172 C186 0.930 . S
H173 C188 0.960 . S
H174 C188 0.960 . S
H175 C188 0.960 . S
C176 H168 0.929 . S
C176 C177 1.377 . S
C176 C178 1.384 1_556 S
C177 C176 1.377 . S
C177 C183 1.390 . S
C178 H169 0.930 . S
C178 C176 1.384 1_554 S
C178 C179 1.372 . S
C179 C178 1.372 . S
C179 C180 1.400 . S
C179 C184 1.490 . S
C180 H170 0.930 . S
C180 C179 1.400 . S
C180 C183 1.386 1_554 S
H181 C197 0.930 . S
H182 C198 0.931 . S
C183 H171 0.929 . S
C183 C177 1.390 . S
C183 C180 1.386 1_556 S
C184 C179 1.490 . S
C184 C186 1.395 . S
C184 C187 1.403 . S
H185 C191 0.930 . S
C186 H172 0.930 . S
C186 C184 1.395 . S
C186 C189 1.403 . S
C187 C184 1.403 . S
C187 C188 1.524 . S
C187 C191 1.400 . S
C188 H173 0.960 . S
C188 H174 0.960 . S
C188 H175 0.960 . S
C188 C187 1.524 . S
C189 C186 1.403 . S
C189 C190 1.392 . S
C189 C193 1.495 . S
C190 C189 1.392 . S
C190 C191 1.385 . S
C190 C192 1.478 . S
C191 H185 0.930 . S
C191 C187 1.400 . S
C191 C190 1.385 . S
C192 C190 1.478 . S
C192 C194 1.381 . S
C192 C198 1.383 . S
C193 C189 1.495 . S
C193 H199 0.959 . S
C193 H200 0.961 . S
C193 H201 0.960 . S
C194 C192 1.381 . S
C194 C195 1.394 . S
C194 H202 0.930 . S
C195 C194 1.394 . S
C195 C196 1.383 . S
C195 H203 0.929 . S
C196 C195 1.383 . S
C196 C197 1.377 . S
C197 H181 0.930 . S
C197 C196 1.377 . S
C197 C198 1.379 . S
C198 H182 0.931 . S
C198 C192 1.383 . S
C198 C197 1.379 . S
H199 C193 0.959 . S
H200 C193 0.961 . S
H201 C193 0.960 . S
H202 C194 0.930 . S
H203 C195 0.929 . S
H204 C212 0.929 . S
H205 C214 0.930 . S
H206 C216 0.930 . S
H207 C219 0.929 . S
H208 C222 0.930 . S
H209 C224 0.960 . S
H210 C224 0.960 . S
H211 C224 0.960 . S
C212 H204 0.929 . S
C212 C213 1.377 . S
C212 C214 1.384 . S
C213 C212 1.377 . S
C213 C219 1.390 . S
C214 H205 0.930 . S
C214 C212 1.384 . S
C214 C215 1.372 . S
C215 C214 1.372 . S
C215 C216 1.400 . S
C215 C220 1.490 . S
C216 H206 0.930 . S
C216 C215 1.400 . S
C216 C219 1.386 . S
H217 C233 0.930 . S
H218 C234 0.931 . S
C219 H207 0.929 . S
C219 C213 1.390 . S
C219 C216 1.386 . S
C220 C215 1.490 . S
C220 C222 1.395 . S
C220 C223 1.403 . S
H221 C227 0.930 . S
C222 H208 0.930 . S
C222 C220 1.395 . S
C222 C225 1.403 . S
C223 C220 1.403 . S
C223 C224 1.524 . S
C223 C227 1.400 . S
C224 H209 0.960 . S
C224 H210 0.960 . S
C224 H211 0.960 . S
C224 C223 1.524 . S
C225 C222 1.403 . S
C225 C226 1.392 . S
C225 C229 1.495 . S
C226 C225 1.392 . S
C226 C227 1.385 . S
C226 C228 1.478 . S
C227 H221 0.930 . S
C227 C223 1.400 . S
C227 C226 1.385 . S
C228 C226 1.478 . S
C228 C230 1.381 . S
C228 C234 1.383 . S
C229 C225 1.495 . S
C229 H235 0.959 . S
C229 H236 0.961 . S
C229 H237 0.960 . S
C230 C228 1.381 . S
C230 C231 1.394 . S
C230 H238 0.930 . S
C231 C230 1.394 . S
C231 C232 1.383 . S
C231 H239 0.929 1_565 S
C232 C231 1.383 . S
C232 C233 1.377 . S
C233 H217 0.930 . S
C233 C232 1.377 . S
C233 C234 1.379 . S
C234 H218 0.931 . S
C234 C228 1.383 . S
C234 C233 1.379 . S
H235 C229 0.959 . S
H236 C229 0.961 . S
H237 C229 0.960 . S
H238 C230 0.930 . S
H239 C231 0.929 1_545 S
H240 C248 0.929 . S
H241 C250 0.930 . S
H242 C252 0.930 . S
H243 C255 0.929 . S
H244 C258 0.930 . S
H245 C260 0.960 . S
H246 C260 0.960 . S
H247 C260 0.960 . S
C248 H240 0.929 . S
C248 C249 1.377 . S
C248 C250 1.384 . S
C249 C248 1.377 . S
C249 C255 1.390 . S
C250 H241 0.930 . S
C250 C248 1.384 . S
C250 C251 1.372 . S
C251 C250 1.372 . S
C251 C252 1.400 . S
C251 C256 1.490 . S
C252 H242 0.930 . S
C252 C251 1.400 . S
C252 C255 1.386 . S
H253 C269 0.930 . S
H254 C270 0.931 . S
C255 H243 0.929 . S
C255 C249 1.390 . S
C255 C252 1.386 . S
C256 C251 1.490 . S
C256 C258 1.395 . S
C256 C259 1.403 . S
H257 C263 0.930 . S
C258 H244 0.930 . S
C258 C256 1.395 . S
C258 C261 1.403 . S
C259 C256 1.403 . S
C259 C260 1.524 . S
C259 C263 1.400 . S
C260 H245 0.960 . S
C260 H246 0.960 . S
C260 H247 0.960 . S
C260 C259 1.524 . S
C261 C258 1.403 . S
C261 C262 1.392 . S
C261 C265 1.495 . S
C262 C261 1.392 . S
C262 C263 1.385 . S
C262 C264 1.478 . S
C263 H257 0.930 . S
C263 C259 1.400 . S
C263 C262 1.385 . S
C264 C262 1.478 . S
C264 C266 1.381 . S
C264 C270 1.383 . S
C265 C261 1.495 . S
C265 H271 0.959 . S
C265 H272 0.961 . S
C265 H273 0.960 . S
C266 C264 1.381 . S
C266 C267 1.394 . S
C266 H274 0.930 . S
C267 C266 1.394 . S
C267 C268 1.383 . S
C267 H275 0.929 . S
C268 C267 1.383 . S
C268 C269 1.377 . S
C269 H253 0.930 . S
C269 C268 1.377 . S
C269 C270 1.379 . S
C270 H254 0.931 . S
C270 C264 1.383 . S
C270 C269 1.379 . S
H271 C265 0.959 . S
H272 C265 0.961 . S
H273 C265 0.960 . S
H274 C266 0.930 . S
H275 C267 0.929 . S
H276 C284 0.929 . S
H277 C286 0.930 . S
H278 C288 0.930 . S
H279 C291 0.929 . S
H280 C294 0.930 . S
H281 C296 0.960 . S
H282 C296 0.960 . S
H283 C296 0.960 . S
C284 H276 0.929 . S
C284 C285 1.377 . S
C284 C286 1.384 . S
C285 C284 1.377 . S
C285 C291 1.390 . S
C286 H277 0.930 . S
C286 C284 1.384 . S
C286 C287 1.372 . S
C287 C286 1.372 . S
C287 C288 1.400 . S
C287 C292 1.490 . S
C288 H278 0.930 . S
C288 C287 1.400 . S
C288 C291 1.386 . S
H289 C305 0.930 . S
H290 C306 0.931 . S
C291 H279 0.929 . S
C291 C285 1.390 . S
C291 C288 1.386 . S
C292 C287 1.490 . S
C292 C294 1.395 . S
C292 C295 1.403 . S
H293 C299 0.930 . S
C294 H280 0.930 . S
C294 C292 1.395 . S
C294 C297 1.403 . S
C295 C292 1.403 . S
C295 C296 1.524 . S
C295 C299 1.400 . S
C296 H281 0.960 . S
C296 H282 0.960 . S
C296 H283 0.960 . S
C296 C295 1.524 . S
C297 C294 1.403 . S
C297 C298 1.392 . S
C297 C301 1.495 . S
C298 C297 1.392 . S
C298 C299 1.385 . S
C298 C300 1.478 . S
C299 H293 0.930 . S
C299 C295 1.400 . S
C299 C298 1.385 . S
C300 C298 1.478 . S
C300 C302 1.381 . S
C300 C306 1.383 . S
C301 C297 1.495 . S
C301 H307 0.959 . S
C301 H308 0.961 . S
C301 H309 0.960 1_565 S
C302 C300 1.381 . S
C302 C303 1.394 . S
C302 H310 0.930 . S
C303 C302 1.394 . S
C303 C304 1.383 . S
C303 H311 0.929 1_565 S
C304 C303 1.383 . S
C304 C305 1.377 . S
C305 H289 0.930 . S
C305 C304 1.377 . S
C305 C306 1.379 . S
C306 H290 0.931 . S
C306 C300 1.383 . S
C306 C305 1.379 . S
H307 C301 0.959 . S
H308 C301 0.961 . S
H309 C301 0.960 1_545 S
H310 C302 0.930 . S
H311 C303 0.929 1_545 S
H312 C320 0.929 . S
H313 C322 0.930 . S
H314 C324 0.930 . S
H315 C327 0.929 . S
H316 C330 0.930 . S
H317 C332 0.960 . S
H318 C332 0.960 . S
H319 C332 0.960 . S
C320 H312 0.929 . S
C320 C321 1.377 . S
C320 C322 1.384 . S
C321 C320 1.377 . S
C321 C327 1.390 . S
C322 H313 0.930 . S
C322 C320 1.384 . S
C322 C323 1.372 . S
C323 C322 1.372 . S
C323 C324 1.400 . S
C323 C328 1.490 . S
C324 H314 0.930 . S
C324 C323 1.400 . S
C324 C327 1.386 . S
H325 C341 0.930 . S
H326 C342 0.931 . S
C327 H315 0.929 . S
C327 C321 1.390 . S
C327 C324 1.386 . S
C328 C323 1.490 . S
C328 C330 1.395 . S
C328 C331 1.403 . S
H329 C335 0.930 . S
C330 H316 0.930 . S
C330 C328 1.395 . S
C330 C333 1.403 . S
C331 C328 1.403 . S
C331 C332 1.524 . S
C331 C335 1.400 . S
C332 H317 0.960 . S
C332 H318 0.960 . S
C332 H319 0.960 . S
C332 C331 1.524 . S
C333 C330 1.403 . S
C333 C334 1.392 . S
C333 C337 1.495 . S
C334 C333 1.392 . S
C334 C335 1.385 . S
C334 C336 1.478 . S
C335 H329 0.930 . S
C335 C331 1.400 . S
C335 C334 1.385 . S
C336 C334 1.478 . S
C336 C338 1.381 . S
C336 C342 1.383 . S
C337 C333 1.495 . S
C337 H343 0.959 . S
C337 H344 0.961 . S
C337 H345 0.960 . S
C338 C336 1.381 . S
C338 C339 1.394 . S
C338 H346 0.930 . S
C339 C338 1.394 . S
C339 C340 1.383 . S
C339 H347 0.929 . S
C340 C339 1.383 . S
C340 C341 1.377 . S
C341 H325 0.930 . S
C341 C340 1.377 . S
C341 C342 1.379 . S
C342 H326 0.931 . S
C342 C336 1.383 . S
C342 C341 1.379 . S
H343 C337 0.959 . S
H344 C337 0.961 . S
H345 C337 0.960 . S
H346 C338 0.930 . S
H347 C339 0.929 . S
H348 C356 0.929 . S
H349 C358 0.930 . S
H350 C360 0.930 . S
H351 C363 0.929 . S
H352 C366 0.930 . S
H353 C368 0.960 . S
H354 C368 0.960 . S
H355 C368 0.960 . S
C356 H348 0.929 . S
C356 C357 1.377 . S
C356 C358 1.384 . S
C357 C356 1.377 . S
C357 C363 1.390 . S
C358 H349 0.930 . S
C358 C356 1.384 . S
C358 C359 1.372 . S
C359 C358 1.372 . S
C359 C360 1.400 . S
C359 C364 1.490 . S
C360 H350 0.930 . S
C360 C359 1.400 . S
C360 C363 1.386 . S
H361 C377 0.930 . S
H362 C378 0.931 . S
C363 H351 0.929 . S
C363 C357 1.390 . S
C363 C360 1.386 . S
C364 C359 1.490 . S
C364 C366 1.395 . S
C364 C367 1.403 . S
H365 C371 0.930 . S
C366 H352 0.930 . S
C366 C364 1.395 . S
C366 C369 1.403 . S
C367 C364 1.403 . S
C367 C368 1.524 . S
C367 C371 1.400 . S
C368 H353 0.960 . S
C368 H354 0.960 . S
C368 H355 0.960 . S
C368 C367 1.524 . S
C369 C366 1.403 . S
C369 C370 1.392 . S
C369 C373 1.495 . S
C370 C369 1.392 . S
C370 C371 1.385 . S
C370 C372 1.478 . S
C371 H365 0.930 . S
C371 C367 1.400 . S
C371 C370 1.385 . S
C372 C370 1.478 . S
C372 C374 1.381 . S
C372 C378 1.383 . S
C373 C369 1.495 . S
C373 H379 0.959 . S
C373 H380 0.961 . S
C373 H381 0.960 . S
C374 C372 1.381 . S
C374 C375 1.394 . S
C374 H382 0.930 . S
C375 C374 1.394 . S
C375 C376 1.383 . S
C375 H383 0.929 . S
C376 C375 1.383 . S
C376 C377 1.377 . S
C377 H361 0.930 . S
C377 C376 1.377 . S
C377 C378 1.379 . S
C378 H362 0.931 . S
C378 C372 1.383 . S
C378 C377 1.379 . S
H379 C373 0.959 . S
H380 C373 0.961 . S
H381 C373 0.960 . S
H382 C374 0.930 . S
H383 C375 0.929 . S
H384 C392 0.929 . S
H385 C394 0.930 . S
H386 C396 0.930 . S
H387 C399 0.929 . S
H388 C402 0.930 . S
H389 C404 0.960 . S
H390 C404 0.960 . S
H391 C404 0.960 . S
C392 H384 0.929 . S
C392 C393 1.377 . S
C392 C394 1.384 . S
C393 C392 1.377 . S
C393 C399 1.390 . S
C394 H385 0.930 . S
C394 C392 1.384 . S
C394 C395 1.372 . S
C395 C394 1.372 . S
C395 C396 1.400 . S
C395 C400 1.490 . S
C396 H386 0.930 . S
C396 C395 1.400 . S
C396 C399 1.386 . S
H397 C413 0.930 1_565 S
H398 C414 0.931 . S
C399 H387 0.929 . S
C399 C393 1.390 . S
C399 C396 1.386 . S
C400 C395 1.490 . S
C400 C402 1.395 . S
C400 C403 1.403 . S
H401 C407 0.930 . S
C402 H388 0.930 . S
C402 C400 1.395 . S
C402 C405 1.403 . S
C403 C400 1.403 . S
C403 C404 1.524 . S
C403 C407 1.400 . S
C404 H389 0.960 . S
C404 H390 0.960 . S
C404 H391 0.960 . S
C404 C403 1.524 . S
C405 C402 1.403 . S
C405 C406 1.392 . S
C405 C409 1.495 . S
C406 C405 1.392 . S
C406 C407 1.385 . S
C406 C408 1.478 . S
C407 H401 0.930 . S
C407 C403 1.400 . S
C407 C406 1.385 . S
C408 C406 1.478 . S
C408 C410 1.381 . S
C408 C414 1.383 . S
C409 C405 1.495 . S
C409 H415 0.959 . S
C409 H416 0.961 . S
C409 H417 0.960 . S
C410 C408 1.381 . S
C410 C411 1.394 . S
C410 H418 0.930 . S
C411 C410 1.394 . S
C411 C412 1.383 . S
C411 H419 0.929 . S
C412 C411 1.383 . S
C412 C413 1.377 . S
C413 H397 0.930 1_545 S
C413 C412 1.377 . S
C413 C414 1.379 . S
C414 H398 0.931 . S
C414 C408 1.383 . S
C414 C413 1.379 . S
H415 C409 0.959 . S
H416 C409 0.961 . S
H417 C409 0.960 . S
H418 C410 0.930 . S
H419 C411 0.929 . S
H420 C428 0.929 . S
H421 C430 0.930 . S
H422 C432 0.930 . S
H423 C435 0.929 . S
H424 C438 0.930 . S
H425 C440 0.960 . S
H426 C440 0.960 . S
H427 C440 0.960 . S
C428 H420 0.929 . S
C428 C429 1.377 . S
C428 C430 1.384 . S
C429 C428 1.377 . S
C429 C435 1.390 . S
C430 H421 0.930 . S
C430 C428 1.384 . S
C430 C431 1.372 . S
C431 C430 1.372 . S
C431 C432 1.400 . S
C431 C436 1.490 . S
C432 H422 0.930 . S
C432 C431 1.400 . S
C432 C435 1.386 . S
H433 C449 0.930 . S
H434 C450 0.931 . S
C435 H423 0.929 . S
C435 C429 1.390 . S
C435 C432 1.386 . S
C436 C431 1.490 . S
C436 C438 1.395 1_554 S
C436 C439 1.403 . S
H437 C443 0.930 . S
C438 H424 0.930 . S
C438 C436 1.395 1_556 S
C438 C441 1.403 . S
C439 C436 1.403 . S
C439 C440 1.524 . S
C439 C443 1.400 . S
C440 H425 0.960 . S
C440 H426 0.960 . S
C440 H427 0.960 . S
C440 C439 1.524 . S
C441 C438 1.403 . S
C441 C442 1.392 . S
C441 C445 1.495 . S
C442 C441 1.392 . S
C442 C443 1.385 1_556 S
C442 C444 1.478 . S
C443 H437 0.930 . S
C443 C439 1.400 . S
C443 C442 1.385 1_554 S
C444 C442 1.478 . S
C444 C446 1.381 . S
C444 C450 1.383 . S
C445 C441 1.495 . S
C445 H451 0.959 . S
C445 H452 0.961 . S
C445 H453 0.960 . S
C446 C444 1.381 . S
C446 C447 1.394 . S
C446 H454 0.930 . S
C447 C446 1.394 . S
C447 C448 1.383 . S
C447 H455 0.929 . S
C448 C447 1.383 . S
C448 C449 1.377 . S
C449 H433 0.930 . S
C449 C448 1.377 . S
C449 C450 1.379 . S
C450 H434 0.931 . S
C450 C444 1.383 . S
C450 C449 1.379 . S
H451 C445 0.959 . S
H452 C445 0.961 . S
H453 C445 0.960 . S
H454 C446 0.930 . S
H455 C447 0.929 . S
H456 C464 0.929 . S
H457 C466 0.930 . S
H458 C468 0.930 . S
H459 C471 0.929 . S
H460 C474 0.930 . S
H461 C476 0.960 . S
H462 C476 0.960 . S
H463 C476 0.960 . S
C464 H456 0.929 . S
C464 C465 1.377 . S
C464 C466 1.384 . S
C465 C464 1.377 . S
C465 C471 1.390 . S
C466 H457 0.930 . S
C466 C464 1.384 . S
C466 C467 1.372 . S
C467 C466 1.372 . S
C467 C468 1.400 . S
C467 C472 1.490 . S
C468 H458 0.930 . S
C468 C467 1.400 . S
C468 C471 1.386 . S
H469 C485 0.930 . S
H470 C486 0.931 . S
C471 H459 0.929 . S
C471 C465 1.390 . S
C471 C468 1.386 . S
C472 C467 1.490 . S
C472 C474 1.395 . S
C472 C475 1.403 1_565 S
H473 C479 0.930 . S
C474 H460 0.930 . S
C474 C472 1.395 . S
C474 C477 1.403 1_556 S
C475 C472 1.403 1_545 S
C475 C476 1.524 . S
C475 C479 1.400 1_556 S
C476 H461 0.960 . S
C476 H462 0.960 . S
C476 H463 0.960 . S
C476 C475 1.524 . S
C477 C474 1.403 1_554 S
C477 C478 1.392 1_565 S
C477 C481 1.495 . S
C478 C477 1.392 1_545 S
C478 C479 1.385 . S
C478 C480 1.478 . S
C479 H473 0.930 . S
C479 C475 1.400 1_554 S
C479 C478 1.385 . S
C480 C478 1.478 . S
C480 C482 1.381 . S
C480 C486 1.383 . S
C481 C477 1.495 . S
C481 H487 0.959 . S
C481 H488 0.961 . S
C481 H489 0.960 . S
C482 C480 1.381 . S
C482 C483 1.394 . S
C482 H490 0.930 . S
C483 C482 1.394 . S
C483 C484 1.383 . S
C483 H491 0.929 . S
C484 C483 1.383 . S
C484 C485 1.377 . S
C485 H469 0.930 . S
C485 C484 1.377 . S
C485 C486 1.379 . S
C486 H470 0.931 . S
C486 C480 1.383 . S
C486 C485 1.379 . S
H487 C481 0.959 . S
H488 C481 0.961 . S
H489 C481 0.960 . S
H490 C482 0.930 . S
H491 C483 0.929 . S
H492 C500 0.929 . S
H493 C502 0.930 . S
H494 C504 0.930 . S
H495 C507 0.929 . S
H496 C510 0.930 . S
H497 C512 0.960 . S
H498 C512 0.960 . S
H499 C512 0.960 . S
C500 H492 0.929 . S
C500 C501 1.377 . S
C500 C502 1.384 . S
C501 C500 1.377 . S
C501 C507 1.390 . S
C502 H493 0.930 . S
C502 C500 1.384 . S
C502 C503 1.372 . S
C503 C502 1.372 . S
C503 C504 1.400 . S
C503 C508 1.490 . S
C504 H494 0.930 . S
C504 C503 1.400 . S
C504 C507 1.386 . S
H505 C521 0.930 . S
H506 C522 0.931 . S
C507 H495 0.929 . S
C507 C501 1.390 . S
C507 C504 1.386 . S
C508 C503 1.490 . S
C508 C510 1.395 1_455 S
C508 C511 1.403 1_556 S
H509 C515 0.930 . S
C510 H496 0.930 . S
C510 C508 1.395 1_655 S
C510 C513 1.403 . S
C511 C508 1.403 1_554 S
C511 C512 1.524 . S
C511 C515 1.400 . S
C512 H497 0.960 . S
C512 H498 0.960 . S
C512 H499 0.960 . S
C512 C511 1.524 . S
C513 C510 1.403 . S
C513 C514 1.392 1_556 S
C513 C517 1.495 . S
C514 C513 1.392 1_554 S
C514 C515 1.385 1_655 S
C514 C516 1.478 . S
C515 H509 0.930 . S
C515 C511 1.400 . S
C515 C514 1.385 1_455 S
C516 C514 1.478 . S
C516 C518 1.381 . S
C516 C522 1.383 . S
C517 C513 1.495 . S
C517 H523 0.959 . S
C517 H524 0.961 . S
C517 H525 0.960 . S
C518 C516 1.381 . S
C518 C519 1.394 . S
C518 H526 0.930 . S
C519 C518 1.394 . S
C519 C520 1.383 . S
C519 H527 0.929 . S
C520 C519 1.383 . S
C520 C521 1.377 . S
C521 H505 0.930 . S
C521 C520 1.377 . S
C521 C522 1.379 . S
C522 H506 0.931 . S
C522 C516 1.383 . S
C522 C521 1.379 . S
H523 C517 0.959 . S
H524 C517 0.961 . S
H525 C517 0.960 . S
H526 C518 0.930 . S
H527 C519 0.929 . S
C105 C18 0.647 . S
C124 C22 0.687 . S
C141 C54 0.660 . S
C160 C50 0.741 . S
C177 C86 0.673 . S
C196 C82 0.756 . S
C213 C85 2.690 . S
C232 C17 2.688 . S
C249 C87 0.776 . S
C268 C19 0.720 . S
C285 C84 1.723 . S
C304 C16 1.726 . S
C321 C49 2.690 . S
C340 C21 2.681 . S
C357 C51 0.788 . S
C376 C23 0.740 . S
C393 C48 1.729 . S
C412 C20 1.714 . S
C429 C53 2.690 . S
C448 C81 2.690 . S
C465 C83 0.796 . S
C484 C55 0.842 . S
C501 C80 1.728 . S
C520 C52 1.713 . S
