# Generated by pormake.
# Topology ukt, (4)-cn, num edge types: 1
# Building blocks:
#     Node 0, Type 0, BuildingBlock: ICAMEG_clean_sbu_1, # of connection points: 4
#     Node 1, Type 0, BuildingBlock: ICAMEG_clean_sbu_1, # of connection points: 4
#     Node 2, Type 0, BuildingBlock: ICAMEG_clean_sbu_1, # of connection points: 4
#     Node 3, Type 0, BuildingBlock: ICAMEG_clean_sbu_1, # of connection points: 4
#     Node 4, Type 0, BuildingBlock: ICAMEG_clean_sbu_1, # of connection points: 4
#     Node 5, Type 0, BuildingBlock: ICAMEG_clean_sbu_1, # of connection points: 4
#     Node 6, Type 0, BuildingBlock: ICAMEG_clean_sbu_1, # of connection points: 4
#     Node 7, Type 0, BuildingBlock: ICAMEG_clean_sbu_1, # of connection points: 4
#     Node 8, Type 0, BuildingBlock: ICAMEG_clean_sbu_1, # of connection points: 4
#     Node 9, Type 0, BuildingBlock: ICAMEG_clean_sbu_1, # of connection points: 4
#     Node 10, Type 0, BuildingBlock: ICAMEG_clean_sbu_1, # of connection points: 4
#     Node 11, Type 0, BuildingBlock: ICAMEG_clean_sbu_1, # of connection points: 4
#     Node 12, Type 0, BuildingBlock: ICAMEG_clean_sbu_1, # of connection points: 4
#     Node 13, Type 0, BuildingBlock: ICAMEG_clean_sbu_1, # of connection points: 4
#     Node 14, Type 0, BuildingBlock: ICAMEG_clean_sbu_1, # of connection points: 4
#     Node 15, Type 0, BuildingBlock: ICAMEG_clean_sbu_1, # of connection points: 4
#     Edge 16, Type (0, 0), BuildingBlock: ZUJKAS_clean_linker_0, # of connection points: 2
#     Edge 17, Type (0, 0), BuildingBlock: ZUJKAS_clean_linker_0, # of connection points: 2
#     Edge 18, Type (0, 0), BuildingBlock: ZUJKAS_clean_linker_0, # of connection points: 2
#     Edge 19, Type (0, 0), BuildingBlock: ZUJKAS_clean_linker_0, # of connection points: 2
#     Edge 20, Type (0, 0), BuildingBlock: ZUJKAS_clean_linker_0, # of connection points: 2
#     Edge 21, Type (0, 0), BuildingBlock: ZUJKAS_clean_linker_0, # of connection points: 2
#     Edge 22, Type (0, 0), BuildingBlock: ZUJKAS_clean_linker_0, # of connection points: 2
#     Edge 23, Type (0, 0), BuildingBlock: ZUJKAS_clean_linker_0, # of connection points: 2
#     Edge 24, Type (0, 0), BuildingBlock: ZUJKAS_clean_linker_0, # of connection points: 2
#     Edge 25, Type (0, 0), BuildingBlock: ZUJKAS_clean_linker_0, # of connection points: 2
#     Edge 26, Type (0, 0), BuildingBlock: ZUJKAS_clean_linker_0, # of connection points: 2
#     Edge 27, Type (0, 0), BuildingBlock: ZUJKAS_clean_linker_0, # of connection points: 2
#     Edge 28, Type (0, 0), BuildingBlock: ZUJKAS_clean_linker_0, # of connection points: 2
#     Edge 29, Type (0, 0), BuildingBlock: ZUJKAS_clean_linker_0, # of connection points: 2
#     Edge 30, Type (0, 0), BuildingBlock: ZUJKAS_clean_linker_0, # of connection points: 2
#     Edge 31, Type (0, 0), BuildingBlock: ZUJKAS_clean_linker_0, # of connection points: 2
#     Edge 32, Type (0, 0), BuildingBlock: ZUJKAS_clean_linker_0, # of connection points: 2
#     Edge 33, Type (0, 0), BuildingBlock: ZUJKAS_clean_linker_0, # of connection points: 2
#     Edge 34, Type (0, 0), BuildingBlock: ZUJKAS_clean_linker_0, # of connection points: 2
#     Edge 35, Type (0, 0), BuildingBlock: ZUJKAS_clean_linker_0, # of connection points: 2
#     Edge 36, Type (0, 0), BuildingBlock: ZUJKAS_clean_linker_0, # of connection points: 2
#     Edge 37, Type (0, 0), BuildingBlock: ZUJKAS_clean_linker_0, # of connection points: 2
#     Edge 38, Type (0, 0), BuildingBlock: ZUJKAS_clean_linker_0, # of connection points: 2
#     Edge 39, Type (0, 0), BuildingBlock: ZUJKAS_clean_linker_0, # of connection points: 2
#     Edge 40, Type (0, 0), BuildingBlock: ZUJKAS_clean_linker_0, # of connection points: 2
#     Edge 41, Type (0, 0), BuildingBlock: ZUJKAS_clean_linker_0, # of connection points: 2
#     Edge 42, Type (0, 0), BuildingBlock: ZUJKAS_clean_linker_0, # of connection points: 2
#     Edge 43, Type (0, 0), BuildingBlock: ZUJKAS_clean_linker_0, # of connection points: 2
#     Edge 44, Type (0, 0), BuildingBlock: ZUJKAS_clean_linker_0, # of connection points: 2
#     Edge 45, Type (0, 0), BuildingBlock: ZUJKAS_clean_linker_0, # of connection points: 2
#     Edge 46, Type (0, 0), BuildingBlock: ZUJKAS_clean_linker_0, # of connection points: 2
#     Edge 47, Type (0, 0), BuildingBlock: ZUJKAS_clean_linker_0, # of connection points: 2
# Relax obj value: 0.233
# Max RMSD: 0.141
# Mean RMSD: 0.141
data_MOF--net-ukt--node1-ICAMEG_clean_sbu_1--edge1-ZUJKAS_clean_linker_0
_symmetry_space_group_name_H-M    P1
_symmetry_Int_Tables_number       1
_symmetry_cell_setting            triclinic
loop_
_symmetry_equiv_pos_as_xyz
'x, y, z'
_cell_length_a     56.96044
_cell_length_b     56.96095
_cell_length_c     51.212583
_cell_angle_alpha  89.997062
_cell_angle_beta   90.00691
_cell_angle_gamma 89.995906
loop_
_atom_site_label
_atom_site_type_symbol
_atom_site_fract_x
_atom_site_fract_y
_atom_site_fract_z
_atom_type_partial_charge
Co0 Co 0.5664 0.16593 0.10222 0.0
Co1 Co 0.53106 0.16447 0.04725 0.0
O2 O 0.53732 0.15788 0.08408 0.0
C3 C 0.52941 0.1906 0.13202 0.0
O4 O 0.51963 0.19614 0.10964 0.0
C5 C 0.52873 0.11316 0.05117 0.0
O6 O 0.54727 0.11481 0.06625 0.0
O7 O 0.56279 0.15333 0.03654 0.0
O8 O 0.58547 0.15412 0.0724 0.0
H9 H 0.54874 0.19725 0.95831 0.0
H10 H 0.53069 0.1368 0.12908 0.0
O11 O 0.54799 0.17816 0.13254 0.0
H12 H 0.60195 0.08773 0.12542 0.0
H13 H 0.6191 0.17168 0.18089 0.0
H14 H 0.6114 0.18807 0.08671 0.0
H15 H 0.60211 0.12789 0.10741 0.0
H16 H 0.58285 0.1612 0.15725 0.0
O17 O 0.51899 0.13169 0.04236 0.0
H18 H 0.5566 0.189 0.00479 0.0
H19 H 0.49147 0.1532 0.01135 0.0
H20 H 0.64805 0.19866 0.10953 0.0
H21 H 0.52982 0.0968 0.14755 0.0
H22 H 0.65206 0.19047 0.15696 0.0
H23 H 0.56562 0.07195 0.14569 0.0
O24 O 0.56658 0.19799 0.08681 0.0
H25 H 0.45396 0.15872 0.09442 0.0
H26 H 0.50266 0.20727 0.03592 0.0
H27 H 0.46371 0.22167 0.04958 0.0
H28 H 0.43907 0.1973 0.07903 0.0
H29 H 0.49311 0.14509 0.08043 0.0
H30 H 0.48299 0.16087 0.96488 0.0
H31 H 0.51171 0.18313 0.93807 0.0
O32 O 0.54348 0.19703 0.05123 0.0
C33 C 0.58234 0.15018 0.04816 0.0
C34 C 0.53606 0.1876 0.96981 0.0
C35 C 0.49916 0.16716 0.97349 0.0
N36 N 0.52441 0.17082 0.0108 0.0
C37 C 0.54037 0.18295 0.99616 0.0
C38 C 0.50408 0.16283 0.99978 0.0
C39 C 0.51528 0.17966 0.95846 0.0
C40 C 0.5464 0.12617 0.12845 0.0
N41 N 0.56645 0.13471 0.11732 0.0
C42 C 0.54577 0.1035 0.13883 0.0
C43 C 0.56586 0.08956 0.13775 0.0
C44 C 0.58625 0.09839 0.12637 0.0
C45 C 0.58622 0.12113 0.11616 0.0
C46 C 0.61759 0.17529 0.16021 0.0
C47 C 0.61308 0.18431 0.10732 0.0
C48 C 0.59708 0.16944 0.14673 0.0
N49 N 0.59509 0.17386 0.12059 0.0
C50 C 0.63384 0.19041 0.12015 0.0
C51 C 0.63607 0.18583 0.14677 0.0
C52 C 0.55721 0.2077 0.06694 0.0
C53 C 0.46451 0.16947 0.08153 0.0
C54 C 0.49206 0.1966 0.04878 0.0
C55 C 0.47 0.20482 0.05641 0.0
C56 C 0.45618 0.19113 0.07292 0.0
N57 N 0.50009 0.17532 0.05729 0.0
C58 C 0.48664 0.1618 0.07347 0.0
Co59 Co 0.33439 0.5683 0.10094 0.0
Co60 Co 0.33641 0.53157 0.04715 0.0
O61 O 0.34239 0.53868 0.08389 0.0
C62 C 0.30829 0.53223 0.13067 0.0
O63 O 0.30343 0.52197 0.10837 0.0
C64 C 0.3877 0.52931 0.05222 0.0
O65 O 0.38587 0.54799 0.06706 0.0
O66 O 0.3476 0.56315 0.03573 0.0
O67 O 0.34757 0.58639 0.07116 0.0
H68 H 0.30469 0.54714 0.95725 0.0
H69 H 0.36181 0.53249 0.12985 0.0
O70 O 0.32077 0.55078 0.13119 0.0
H71 H 0.41256 0.60257 0.12647 0.0
H72 H 0.32721 0.62265 0.17805 0.0
H73 H 0.31422 0.61365 0.08338 0.0
H74 H 0.37304 0.60323 0.1068 0.0
H75 H 0.3375 0.58567 0.15576 0.0
O76 O 0.36929 0.51955 0.04314 0.0
H77 H 0.31226 0.55601 0.00364 0.0
H78 H 0.34844 0.4913 0.01249 0.0
H79 H 0.30386 0.651 0.10483 0.0
H80 H 0.40114 0.53112 0.14998 0.0
H81 H 0.31034 0.65568 0.15252 0.0
H82 H 0.42684 0.56632 0.14827 0.0
O83 O 0.30285 0.56899 0.08417 0.0
H84 H 0.34177 0.4557 0.09679 0.0
H85 H 0.29409 0.50254 0.03559 0.0
H86 H 0.27968 0.46385 0.05013 0.0
H87 H 0.30361 0.44015 0.08094 0.0
H88 H 0.35541 0.49459 0.08191 0.0
H89 H 0.34146 0.48181 0.96612 0.0
H90 H 0.31935 0.5098 0.9382 0.0
O91 O 0.30373 0.54386 0.05027 0.0
C92 C 0.35135 0.58278 0.04697 0.0
C93 C 0.31428 0.53476 0.96923 0.0
C94 C 0.33494 0.49811 0.97421 0.0
N95 N 0.3306 0.5241 0.01078 0.0
C96 C 0.31855 0.53966 0.99553 0.0
C97 C 0.33888 0.5036 0.00042 0.0
C98 C 0.32253 0.51382 0.95856 0.0
C99 C 0.3728 0.54795 0.12927 0.0
N100 N 0.36509 0.56795 0.11732 0.0
C101 C 0.39509 0.54704 0.1406 0.0
C102 C 0.40951 0.56679 0.13961 0.0
C103 C 0.40152 0.58712 0.12736 0.0
C104 C 0.37914 0.58739 0.11622 0.0
C105 C 0.32433 0.62084 0.15726 0.0
C106 C 0.31721 0.61559 0.10411 0.0
C107 C 0.33007 0.59992 0.14454 0.0
N108 N 0.32657 0.59755 0.11827 0.0
C109 C 0.31125 0.63677 0.11616 0.0
C110 C 0.31487 0.63937 0.14292 0.0
C111 C 0.2932 0.55868 0.06483 0.0
C112 C 0.33121 0.46585 0.08332 0.0
C113 C 0.30455 0.49236 0.04906 0.0
C114 C 0.29633 0.47044 0.05718 0.0
C115 C 0.30978 0.45714 0.07445 0.0
N116 N 0.32559 0.50077 0.05785 0.0
C117 C 0.33888 0.48783 0.07476 0.0
Co118 Co 0.93229 0.33389 0.10252 0.0
Co119 Co 0.96824 0.33507 0.04805 0.0
O120 O 0.96162 0.34175 0.08476 0.0
C121 C 0.96873 0.30805 0.132 0.0
O122 O 0.97849 0.30275 0.10954 0.0
C123 C 0.9699 0.38653 0.05156 0.0
O124 O 0.95156 0.38487 0.06694 0.0
O125 O 0.93631 0.34556 0.03693 0.0
O126 O 0.91373 0.34659 0.07285 0.0
H127 H 0.95167 0.30122 0.95935 0.0
H128 H 0.96846 0.3618 0.13025 0.0
O129 O 0.95032 0.32074 0.1327 0.0
H130 H 0.8982 0.41232 0.12735 0.0
H131 H 0.87916 0.32766 0.18077 0.0
H132 H 0.88672 0.31342 0.08616 0.0
H133 H 0.89734 0.37253 0.10837 0.0
H134 H 0.91577 0.3377 0.1576 0.0
O135 O 0.97973 0.36802 0.04285 0.0
H136 H 0.94345 0.30965 0.00571 0.0
H137 H 0.0078 0.34685 0.01228 0.0
H138 H 0.84972 0.30329 0.1085 0.0
H139 H 0.97003 0.4014 0.14968 0.0
H140 H 0.84578 0.3104 0.15616 0.0
H141 H 0.93473 0.42698 0.14822 0.0
O142 O 0.93143 0.30208 0.08633 0.0
H143 H 0.04476 0.3426 0.09607 0.0
H144 H 0.99772 0.29295 0.03705 0.0
H145 H 0.03684 0.27942 0.05122 0.0
H146 H 0.06065 0.30435 0.08093 0.0
H147 H 0.00545 0.35534 0.08159 0.0
H148 H 0.01663 0.339 0.96593 0.0
H149 H 0.98849 0.31595 0.93917 0.0
O150 O 0.9565 0.30233 0.05235 0.0
C151 C 0.91689 0.34965 0.04846 0.0
C152 C 0.96411 0.31122 0.97083 0.0
C153 C 0.00055 0.33245 0.97451 0.0
N154 N 0.97522 0.32855 0.01171 0.0
C155 C 0.95958 0.31598 0.9971 0.0
C156 C 0.99544 0.33687 0.00072 0.0
C157 C 0.98476 0.31951 0.95951 0.0
C158 C 0.95297 0.37274 0.12978 0.0
N159 N 0.9328 0.36482 0.11834 0.0
C160 C 0.95399 0.39519 0.14071 0.0
C161 C 0.93419 0.40954 0.13985 0.0
C162 C 0.91368 0.40133 0.12813 0.0
C163 C 0.91332 0.3788 0.11738 0.0
C164 C 0.88066 0.3245 0.16 0.0
C165 C 0.88509 0.31667 0.10688 0.0
C166 C 0.90136 0.33009 0.14679 0.0
N167 N 0.90333 0.32625 0.12054 0.0
C168 C 0.86412 0.31085 0.11943 0.0
C169 C 0.86193 0.31482 0.14618 0.0
C170 C 0.94177 0.29206 0.06724 0.0
C171 C 0.03457 0.33161 0.08309 0.0
C172 C 0.00795 0.30384 0.05005 0.0
C173 C 0.03011 0.29612 0.05795 0.0
C174 C 0.04347 0.31013 0.07461 0.0
N175 N 0.99936 0.32494 0.05844 0.0
C176 C 0.01235 0.33877 0.07475 0.0
Co177 Co 0.1645 0.93022 0.10357 0.0
Co178 Co 0.16294 0.96654 0.0494 0.0
O179 O 0.15674 0.95974 0.08618 0.0
C180 C 0.19092 0.96623 0.133 0.0
O181 O 0.19622 0.97599 0.11054 0.0
C182 C 0.11161 0.969 0.05404 0.0
O183 O 0.11329 0.95046 0.06911 0.0
O184 O 0.15172 0.9349 0.03822 0.0
O185 O 0.15132 0.91197 0.0739 0.0
H186 H 0.19513 0.95014 0.9599 0.0
H187 H 0.13718 0.96644 0.13196 0.0
O188 O 0.17808 0.94793 0.13372 0.0
H189 H 0.08601 0.89666 0.12902 0.0
H190 H 0.17104 0.87648 0.18128 0.0
H191 H 0.1844 0.88459 0.08657 0.0
H192 H 0.12561 0.89558 0.10958 0.0
H193 H 0.16109 0.91334 0.15855 0.0
O194 O 0.13011 0.97864 0.04502 0.0
H195 H 0.18726 0.94166 0.00632 0.0
H196 H 0.15124 0.00656 0.01425 0.0
H197 H 0.19443 0.84734 0.10846 0.0
H198 H 0.09778 0.96822 0.15186 0.0
H199 H 0.18776 0.84312 0.15617 0.0
H200 H 0.07187 0.93317 0.15038 0.0
O201 O 0.1961 0.92919 0.08695 0.0
H202 H 0.15757 0.0428 0.09827 0.0
H203 H 0.20541 0.99534 0.03784 0.0
H204 H 0.21987 0.03409 0.0521 0.0
H205 H 0.19586 0.05812 0.08251 0.0
H206 H 0.14389 0.00385 0.08368 0.0
H207 H 0.15853 0.01566 0.96784 0.0
H208 H 0.1807 0.98737 0.94037 0.0
O209 O 0.19555 0.95417 0.0529 0.0
C210 C 0.14775 0.91539 0.04963 0.0
C211 C 0.18551 0.96264 0.97169 0.0
C212 C 0.16494 0.9994 0.97614 0.0
N213 N 0.16898 0.97369 0.01301 0.0
C214 C 0.18107 0.95797 0.998 0.0
C215 C 0.16083 0.99414 0.00238 0.0
C216 C 0.17739 0.98352 0.96074 0.0
C217 C 0.1261 0.95104 0.13148 0.0
N218 N 0.13373 0.93089 0.11977 0.0
C219 C 0.10377 0.95219 0.14268 0.0
C220 C 0.08923 0.93252 0.14181 0.0
C221 C 0.09714 0.91203 0.12982 0.0
C222 C 0.11957 0.91154 0.11881 0.0
C223 C 0.174 0.87809 0.16048 0.0
C224 C 0.18134 0.88284 0.10731 0.0
C225 C 0.16846 0.89894 0.14752 0.0
N226 N 0.17206 0.90107 0.12124 0.0
C227 C 0.1871 0.86173 0.11961 0.0
C228 C 0.18338 0.85938 0.14638 0.0
C229 C 0.20591 0.93935 0.06761 0.0
C230 C 0.16817 0.03252 0.08497 0.0
C231 C 0.19491 0.00566 0.05114 0.0
C232 C 0.20316 0.02761 0.0591 0.0
C233 C 0.18967 0.04109 0.07615 0.0
N234 N 0.1738 0.99739 0.05987 0.0
C235 C 0.16047 0.0105 0.07657 0.0
Co236 Co 0.56533 0.33296 0.3984 0.0
Co237 Co 0.53024 0.33547 0.45349 0.0
O238 O 0.5363 0.34127 0.41646 0.0
C239 C 0.52841 0.30748 0.36929 0.0
O240 O 0.5188 0.30213 0.39182 0.0
C241 C 0.52769 0.38666 0.44815 0.0
O242 O 0.54619 0.38473 0.43306 0.0
O243 O 0.56198 0.34692 0.46375 0.0
O244 O 0.5845 0.34536 0.42782 0.0
H245 H 0.54846 0.30469 0.54319 0.0
H246 H 0.52943 0.36149 0.37103 0.0
O247 O 0.54683 0.32014 0.36846 0.0
H248 H 0.60057 0.4108 0.37319 0.0
H249 H 0.61773 0.32584 0.31963 0.0
H250 H 0.61043 0.31118 0.41419 0.0
H251 H 0.60092 0.37098 0.39212 0.0
H252 H 0.58155 0.33671 0.34319 0.0
O253 O 0.51807 0.36831 0.45756 0.0
H254 H 0.55606 0.31195 0.49646 0.0
H255 H 0.49077 0.34739 0.4893 0.0
H256 H 0.64699 0.3002 0.39146 0.0
H257 H 0.52836 0.40113 0.35165 0.0
H258 H 0.6508 0.30752 0.34382 0.0
H259 H 0.5641 0.4261 0.35275 0.0
O260 O 0.56564 0.30121 0.41457 0.0
H261 H 0.45288 0.33993 0.40665 0.0
H262 H 0.50206 0.29284 0.46614 0.0
H263 H 0.46309 0.27802 0.45312 0.0
H264 H 0.4382 0.30165 0.42319 0.0
H265 H 0.49206 0.35398 0.42001 0.0
H266 H 0.48255 0.3407 0.53602 0.0
H267 H 0.51147 0.31913 0.56326 0.0
O268 O 0.54277 0.30289 0.45031 0.0
C269 C 0.58148 0.34981 0.45197 0.0
C270 C 0.53568 0.31404 0.5315 0.0
C271 C 0.4987 0.33428 0.52749 0.0
N272 N 0.52378 0.32989 0.49014 0.0
C273 C 0.53985 0.31814 0.50502 0.0
C274 C 0.50347 0.33805 0.50107 0.0
C275 C 0.51494 0.32217 0.54276 0.0
C276 C 0.54511 0.37217 0.37133 0.0
N277 N 0.56524 0.36389 0.38255 0.0
C278 C 0.54438 0.39463 0.36044 0.0
C279 C 0.56442 0.40865 0.36109 0.0
C280 C 0.58489 0.40007 0.37257 0.0
C281 C 0.58497 0.37753 0.3833 0.0
C282 C 0.6163 0.3226 0.3404 0.0
C283 C 0.61202 0.31456 0.3935 0.0
C284 C 0.59584 0.32868 0.35383 0.0
N285 N 0.59396 0.32475 0.38007 0.0
C286 C 0.63274 0.30825 0.38071 0.0
C287 C 0.63485 0.31233 0.35399 0.0
C288 C 0.55643 0.29191 0.43478 0.0
C289 C 0.46353 0.3295 0.41976 0.0
C290 C 0.49136 0.30319 0.45305 0.0
C291 C 0.46928 0.29473 0.4458 0.0
C292 C 0.45532 0.30801 0.42902 0.0
N293 N 0.49926 0.3243 0.44392 0.0
C294 C 0.48569 0.33741 0.42746 0.0
Co295 Co 0.16616 0.56639 0.39786 0.0
Co296 Co 0.16435 0.53114 0.45287 0.0
O297 O 0.15825 0.53724 0.41591 0.0
C298 C 0.19181 0.52978 0.36848 0.0
O299 O 0.19741 0.52019 0.39094 0.0
C300 C 0.11316 0.52821 0.44786 0.0
O301 O 0.11488 0.54674 0.43278 0.0
O302 O 0.15269 0.56276 0.46331 0.0
O303 O 0.15374 0.58538 0.42742 0.0
H304 H 0.19559 0.54936 0.54237 0.0
H305 H 0.13783 0.53029 0.3706 0.0
O306 O 0.17898 0.54809 0.36779 0.0
H307 H 0.08783 0.60093 0.37332 0.0
H308 H 0.17229 0.61904 0.31919 0.0
H309 H 0.18758 0.61167 0.41362 0.0
H310 H 0.12775 0.60162 0.39196 0.0
H311 H 0.16192 0.5827 0.34273 0.0
O312 O 0.13163 0.51872 0.45716 0.0
H313 H 0.18797 0.55702 0.49571 0.0
H314 H 0.15295 0.49151 0.48866 0.0
H315 H 0.19804 0.6484 0.3909 0.0
H316 H 0.09808 0.52887 0.35151 0.0
H317 H 0.1904 0.65224 0.34333 0.0
H318 H 0.07277 0.56436 0.35289 0.0
O319 O 0.198 0.56698 0.41382 0.0
H320 H 0.16022 0.45388 0.40582 0.0
H321 H 0.20728 0.50327 0.46511 0.0
H322 H 0.22233 0.46445 0.45185 0.0
H323 H 0.19871 0.43946 0.42202 0.0
H324 H 0.14593 0.49291 0.41941 0.0
H325 H 0.16 0.48322 0.5353 0.0
H326 H 0.18155 0.51223 0.56245 0.0
O327 O 0.19682 0.54394 0.44946 0.0
C328 C 0.14949 0.58226 0.4516 0.0
C329 C 0.18625 0.53655 0.53072 0.0
C330 C 0.16625 0.49944 0.52676 0.0
N331 N 0.17022 0.52464 0.48945 0.0
C332 C 0.18195 0.54076 0.50428 0.0
C333 C 0.16227 0.50425 0.50038 0.0
C334 C 0.17835 0.51572 0.54198 0.0
C335 C 0.127 0.54586 0.37102 0.0
N336 N 0.13514 0.56604 0.38224 0.0
C337 C 0.10447 0.54493 0.36029 0.0
C338 C 0.09027 0.56484 0.3611 0.0
C339 C 0.0987 0.58536 0.37258 0.0
C340 C 0.12131 0.58563 0.38314 0.0
C341 C 0.17566 0.61759 0.33992 0.0
C342 C 0.18406 0.61328 0.39295 0.0
C343 C 0.16987 0.59705 0.35335 0.0
N344 N 0.17398 0.59515 0.37956 0.0
C345 C 0.19008 0.63409 0.38018 0.0
C346 C 0.18581 0.63622 0.35348 0.0
C347 C 0.20755 0.55777 0.43389 0.0
C348 C 0.17064 0.46458 0.41888 0.0
C349 C 0.19694 0.49252 0.45207 0.0
C350 C 0.20552 0.47054 0.44468 0.0
C351 C 0.19226 0.45651 0.42795 0.0
N352 N 0.1757 0.50028 0.44312 0.0
C353 C 0.1626 0.48665 0.42672 0.0
Co354 Co 0.93256 0.1653 0.39752 0.0
Co355 Co 0.96798 0.16406 0.45243 0.0
O356 O 0.96168 0.15736 0.41564 0.0
C357 C 0.96935 0.19023 0.36774 0.0
O358 O 0.97881 0.1961 0.39018 0.0
C359 C 0.97036 0.11273 0.44865 0.0
O360 O 0.95179 0.11433 0.4336 0.0
O361 O 0.93626 0.15297 0.46322 0.0
O362 O 0.91353 0.15353 0.4274 0.0
H363 H 0.95039 0.19709 0.54128 0.0
H364 H 0.96832 0.13619 0.3707 0.0
O365 O 0.95097 0.17749 0.36715 0.0
H366 H 0.89718 0.08698 0.37455 0.0
H367 H 0.87984 0.17081 0.31885 0.0
H368 H 0.8875 0.18734 0.41299 0.0
H369 H 0.89694 0.12717 0.39245 0.0
H370 H 0.91613 0.16046 0.3425 0.0
O371 O 0.98006 0.13129 0.45742 0.0
H372 H 0.94249 0.18872 0.49483 0.0
H373 H 0.00762 0.15289 0.48831 0.0
H374 H 0.85082 0.1978 0.39016 0.0
H375 H 0.96928 0.09615 0.35234 0.0
H376 H 0.84683 0.18954 0.34274 0.0
H377 H 0.93354 0.07123 0.3543 0.0
O378 O 0.93231 0.19739 0.41285 0.0
H379 H 0.04502 0.1582 0.40515 0.0
H380 H 0.99638 0.20688 0.46358 0.0
H381 H 0.03532 0.22124 0.44982 0.0
H382 H 0.05993 0.19681 0.42041 0.0
H383 H 0.00588 0.14461 0.41923 0.0
H384 H 0.01614 0.16069 0.53474 0.0
H385 H 0.98745 0.18302 0.56152 0.0
O386 O 0.95554 0.1966 0.44834 0.0
C387 C 0.9167 0.14973 0.45167 0.0
C388 C 0.96307 0.18741 0.52979 0.0
C389 C -4e-05 0.16695 0.52613 0.0
N390 N 0.97467 0.17052 0.48884 0.0
C391 C 0.95872 0.18268 0.50347 0.0
C392 C 0.99502 0.16255 0.49987 0.0
C393 C 0.98385 0.17949 0.54114 0.0
C394 C 0.95264 0.12553 0.37137 0.0
N395 N 0.93257 0.13405 0.38249 0.0
C396 C 0.95331 0.10284 0.36105 0.0
C397 C 0.93326 0.08886 0.36219 0.0
C398 C 0.91286 0.09767 0.37356 0.0
C399 C 0.91284 0.12043 0.38371 0.0
C400 C 0.88135 0.17446 0.33952 0.0
C401 C 0.88583 0.18355 0.39239 0.0
C402 C 0.90187 0.16868 0.353 0.0
N403 N 0.90385 0.17313 0.37913 0.0
C404 C 0.86505 0.18958 0.37955 0.0
C405 C 0.86283 0.18496 0.35294 0.0
C406 C 0.94173 0.20719 0.43265 0.0
C407 C 0.03448 0.16897 0.41801 0.0
C408 C 0.00697 0.19618 0.45073 0.0
C409 C 0.02902 0.20438 0.44305 0.0
C410 C 0.04283 0.19065 0.42656 0.0
N411 N 0.99893 0.17488 0.44229 0.0
C412 C 0.01236 0.16133 0.42613 0.0
Co413 Co 0.33453 0.93221 0.39922 0.0
Co414 Co 0.33612 0.96889 0.45308 0.0
O415 O 0.3424 0.96181 0.41639 0.0
C416 C 0.3084 0.96813 0.3693 0.0
O417 O 0.30301 0.97807 0.39163 0.0
C418 C 0.38747 0.97098 0.44855 0.0
O419 O 0.38568 0.95233 0.43365 0.0
O420 O 0.34709 0.93726 0.46459 0.0
O421 O 0.34743 0.91408 0.42912 0.0
H422 H 0.30354 0.95336 0.54259 0.0
H423 H 0.36221 0.96803 0.37064 0.0
O424 O 0.3212 0.9498 0.36883 0.0
H425 H 0.41291 0.89794 0.37451 0.0
H426 H 0.32799 0.87796 0.32195 0.0
H427 H 0.31421 0.88685 0.4165 0.0
H428 H 0.37322 0.89727 0.39374 0.0
H429 H 0.33809 0.91492 0.34441 0.0
O430 O 0.36903 0.9808 0.45747 0.0
H431 H 0.31149 0.9445 0.49628 0.0
H432 H 0.34799 0.00908 0.48792 0.0
H433 H 0.30403 0.84953 0.39488 0.0
H434 H 0.40171 0.96941 0.35096 0.0
H435 H 0.3109 0.84491 0.34725 0.0
H436 H 0.42739 0.9342 0.35291 0.0
O437 O 0.30286 0.93152 0.41568 0.0
H438 H 0.34217 0.0448 0.40361 0.0
H439 H 0.2938 0.99804 0.4642 0.0
H440 H 0.27965 0.0368 0.44957 0.0
H441 H 0.30393 0.06047 0.41908 0.0
H442 H 0.35554 0.00584 0.41857 0.0
H443 H 0.34062 0.01855 0.53422 0.0
H444 H 0.31816 0.99062 0.56185 0.0
O445 O 0.30344 0.9567 0.44956 0.0
C446 C 0.35091 0.91763 0.45338 0.0
C447 C 0.31328 0.96571 0.53073 0.0
C448 C 0.33412 0.00228 0.52604 0.0
N449 N 0.33002 0.97634 0.48938 0.0
C450 C 0.31777 0.96082 0.50448 0.0
C451 C 0.33828 0.9968 0.49986 0.0
C452 C 0.32151 0.98661 0.54153 0.0
C453 C 0.37319 0.95257 0.37133 0.0
N454 N 0.36537 0.93256 0.38318 0.0
C455 C 0.39558 0.95349 0.36025 0.0
C456 C 0.40999 0.93373 0.36138 0.0
C457 C 0.40188 0.91339 0.37351 0.0
C458 C 0.3794 0.91312 0.3844 0.0
C459 C 0.32493 0.87975 0.34272 0.0
C460 C 0.31737 0.88493 0.3958 0.0
C461 C 0.33056 0.90065 0.35552 0.0
N462 N 0.32685 0.90299 0.38176 0.0
C463 C 0.31151 0.86378 0.38365 0.0
C464 C 0.31535 0.86121 0.35693 0.0
C465 C 0.29305 0.94186 0.43491 0.0
C466 C 0.33146 0.03467 0.41694 0.0
C467 C 0.30441 0.00821 0.45086 0.0
C468 C 0.29634 0.03017 0.4427 0.0
C469 C 0.30998 0.04344 0.4256 0.0
N470 N 0.3255 -0.00026 0.44229 0.0
C471 C 0.33898 0.01265 0.42555 0.0
Co472 Co 0.43152 0.83219 0.8982 0.0
Co473 Co 0.46745 0.83577 0.95255 0.0
O474 O 0.46044 0.84171 0.91576 0.0
C475 C 0.46905 0.80936 0.86755 0.0
O476 O 0.47922 0.80395 0.88975 0.0
C477 C 0.46848 0.88706 0.94783 0.0
O478 O 0.44952 0.8848 0.93351 0.0
O479 O 0.4357 0.84648 0.96362 0.0
O480 O 0.41226 0.84267 0.92854 0.0
H481 H 0.45194 0.80402 0.04245 0.0
H482 H 0.46502 0.86341 0.87073 0.0
O483 O 0.45008 0.8212 0.86741 0.0
H484 H 0.39127 0.90846 0.87663 0.0
H485 H 0.37785 0.82412 0.82061 0.0
H486 H 0.38831 0.80705 0.91429 0.0
H487 H 0.39367 0.86823 0.89423 0.0
H488 H 0.41381 0.83655 0.84362 0.0
O489 O 0.4789 0.86886 0.95655 0.0
H490 H 0.44314 0.81139 0.996 0.0
H491 H 0.50737 0.84845 0.98741 0.0
H492 H 0.35197 0.79447 0.89212 0.0
H493 H 0.46332 0.90353 0.85264 0.0
H494 H 0.34658 0.803 0.84493 0.0
H495 H 0.42626 0.92636 0.85563 0.0
O496 O 0.43345 0.80015 0.91332 0.0
H497 H 0.54367 0.84239 0.90377 0.0
H498 H 0.49692 0.79375 0.96413 0.0
H499 H 0.53595 0.77996 0.94997 0.0
H500 H 0.55961 0.80437 0.91959 0.0
H501 H 0.50445 0.85541 0.91827 0.0
H502 H 0.51678 0.84167 0.03383 0.0
H503 H 0.48899 0.81922 0.06165 0.0
O504 O 0.45567 0.80283 0.94948 0.0
C505 C 0.41574 0.84782 0.95245 0.0
C506 C 0.46422 0.81376 0.03051 0.0
C507 C 0.5006 0.83491 0.02568 0.0
N508 N 0.47482 0.83015 0.98898 0.0
C509 C 0.45937 0.81792 0.00418 0.0
C510 C 0.49516 0.83873 0.99943 0.0
C511 C 0.48501 0.82231 0.04128 0.0
C512 C 0.44876 0.87316 0.87185 0.0
N513 N 0.42944 0.86345 0.88339 0.0
C514 C 0.44794 0.8959 0.86168 0.0
C515 C 0.42715 0.90871 0.86339 0.0
C516 C 0.40751 0.89868 0.87519 0.0
C517 C 0.40899 0.87591 0.88517 0.0
C518 C 0.37996 0.82037 0.84119 0.0
C519 C 0.38599 0.81099 0.89381 0.0
C520 C 0.4003 0.82733 0.85431 0.0
N521 N 0.40303 0.82274 0.88034 0.0
C522 C 0.36542 0.80375 0.88133 0.0
C523 C 0.36242 0.80852 0.85485 0.0
C524 C 0.44286 0.79123 0.93361 0.0
C525 C 0.53355 0.83162 0.91706 0.0
C526 C 0.50709 0.80444 0.95085 0.0
C527 C 0.52919 0.79656 0.94295 0.0
C528 C 0.54247 0.81028 0.92592 0.0
N529 N 0.49848 0.82541 0.9421 0.0
C530 C 0.51138 0.83895 0.92541 0.0
Co531 Co 0.66616 0.43028 0.89815 0.0
Co532 Co 0.66445 0.4667 0.9522 0.0
O533 O 0.65801 0.4597 0.91551 0.0
C534 C 0.69096 0.46668 0.86763 0.0
O535 O 0.69643 0.47682 0.88983 0.0
C536 C 0.61315 0.46898 0.94791 0.0
O537 O 0.61484 0.45011 0.93335 0.0
O538 O 0.65329 0.43518 0.96365 0.0
O539 O 0.65427 0.41179 0.92838 0.0
H540 H 0.69685 0.45084 0.04175 0.0
H541 H 0.63709 0.46542 0.87027 0.0
O542 O 0.67849 0.44811 0.86744 0.0
H543 H 0.58809 0.3942 0.87546 0.0
H544 H 0.6723 0.37604 0.82082 0.0
H545 H 0.68828 0.38562 0.91487 0.0
H546 H 0.62818 0.39443 0.89365 0.0
H547 H 0.66168 0.41275 0.84351 0.0
O548 O 0.63165 0.47885 0.95661 0.0
H549 H 0.68881 0.44205 0.99543 0.0
H550 H 0.653 0.50701 0.98703 0.0
H551 H 0.69901 0.34855 0.89302 0.0
H552 H 0.59716 0.46589 0.85161 0.0
H553 H 0.69103 0.34359 0.84565 0.0
H554 H 0.57234 0.43011 0.85423 0.0
O555 O 0.69816 0.43043 0.91371 0.0
H556 H 0.65885 0.54282 0.90307 0.0
H557 H 0.70717 0.49535 0.96305 0.0
H558 H 0.7216 0.53403 0.94848 0.0
H559 H 0.69735 0.55805 0.91829 0.0
H560 H 0.64519 0.50395 0.91797 0.0
H561 H 0.66046 0.51643 0.03332 0.0
H562 H 0.68262 0.48827 0.06098 0.0
O563 O 0.69703 0.45422 0.94872 0.0
C564 C 0.65023 0.41539 0.95253 0.0
C565 C 0.68724 0.46329 0.02988 0.0
C566 C 0.6668 0.50009 0.02515 0.0
N567 N 0.67064 0.47409 0.98851 0.0
C568 C 0.68271 0.45844 0.00362 0.0
C569 C 0.66259 0.49464 0.99898 0.0
C570 C 0.67924 0.48428 0.04066 0.0
C571 C 0.62648 0.44971 0.87123 0.0
N572 N 0.635 0.42989 0.88289 0.0
C573 C 0.60385 0.45011 0.86074 0.0
C574 C 0.58992 0.43004 0.86225 0.0
C575 C 0.59874 0.40989 0.87417 0.0
C576 C 0.62144 0.41014 0.88448 0.0
C577 C 0.67583 0.37797 0.84148 0.0
C578 C 0.68461 0.38353 0.89429 0.0
C579 C 0.66989 0.39873 0.85441 0.0
N580 N 0.6742 0.40124 0.88052 0.0
C581 C 0.69079 0.36253 0.88201 0.0
C582 C 0.68633 0.35977 0.85542 0.0
C583 C 0.70778 0.44021 0.93339 0.0
C584 C 0.66954 0.53254 0.91627 0.0
C585 C 0.69655 0.50568 0.94987 0.0
C586 C 0.70478 0.52759 0.94173 0.0
C587 C 0.69116 0.54106 0.9248 0.0
N588 N 0.67531 0.49747 0.94144 0.0
C589 C 0.66186 0.51057 0.92485 0.0
Co590 Co 0.06714 0.66714 0.89636 0.0
Co591 Co 0.0315 0.66291 0.95088 0.0
O592 O 0.03826 0.6575 0.91393 0.0
C593 C 0.0296 0.69061 0.86635 0.0
O594 O 0.01989 0.69618 0.88875 0.0
C595 C 0.02971 0.61169 0.94531 0.0
O596 O 0.04865 0.61382 0.93093 0.0
O597 O 0.06317 0.65156 0.96147 0.0
O598 O 0.08651 0.65618 0.92643 0.0
H599 H 0.048 0.69282 0.04134 0.0
H600 H 0.03336 0.63639 0.86862 0.0
O601 O 0.04843 0.67855 0.86585 0.0
H602 H 0.10696 0.59099 0.87334 0.0
H603 H 0.12043 0.67598 0.81856 0.0
H604 H 0.11058 0.69183 0.91259 0.0
H605 H 0.10481 0.631 0.89161 0.0
H606 H 0.08452 0.66343 0.8416 0.0
O607 O 0.01958 0.62994 0.95428 0.0
H608 H 0.05643 0.68613 0.99467 0.0
H609 H 0.99156 0.65026 0.98572 0.0
H610 H 0.14685 0.70452 0.89038 0.0
H611 H 0.03481 0.59652 0.84987 0.0
H612 H 0.15195 0.6966 0.84302 0.0
H613 H 0.07179 0.57351 0.85226 0.0
O614 O 0.06548 0.699 0.91202 0.0
H615 H 0.95498 0.65825 0.9024 0.0
H616 H 0.00269 0.70513 0.96355 0.0
H617 H 0.9638 0.71972 0.94991 0.0
H618 H 0.93966 0.6962 0.91914 0.0
H619 H 0.99407 0.64442 0.91639 0.0
H620 H 0.98252 0.65636 0.03234 0.0
H621 H 0.01081 0.67787 0.06046 0.0
O622 O 0.04374 0.6957 0.94846 0.0
C623 C 0.08308 0.65045 0.95019 0.0
C624 C 0.0355 0.68349 0.02927 0.0
C625 C 0.99876 0.663 0.02423 0.0
N626 N 0.02441 0.66801 0.98746 0.0
C627 C 0.04014 0.67972 0.00282 0.0
C628 C 0.00399 0.65956 0.99786 0.0
C629 C 0.01464 0.67508 0.03999 0.0
C630 C 0.04958 0.62658 0.86948 0.0
N631 N 0.069 0.63605 0.88106 0.0
C632 C 0.05027 0.60397 0.85894 0.0
C633 C 0.07102 0.59106 0.86032 0.0
C634 C 0.09075 0.60085 0.87216 0.0
C635 C 0.08941 0.62349 0.88251 0.0
C636 C 0.11845 0.67947 0.83922 0.0
C637 C 0.11276 0.68815 0.89202 0.0
C638 C 0.09814 0.67243 0.85235 0.0
N639 N 0.09558 0.67668 0.87847 0.0
C640 C 0.13329 0.69545 0.87953 0.0
C641 C 0.13613 0.69103 0.85295 0.0
C642 C 0.05642 0.70755 0.9327 0.0
C643 C 0.96531 0.66863 0.91587 0.0
C644 C 0.99231 0.69483 0.9501 0.0
C645 C 0.97028 0.70315 0.94249 0.0
C646 C 0.95674 0.68994 0.92524 0.0
N647 N 0.00057 0.6739 0.94084 0.0
C648 C 0.9874 0.66084 0.92393 0.0
Co649 Co 0.83246 0.06777 0.8993 0.0
Co650 Co 0.83523 0.03197 0.95383 0.0
O651 O 0.84113 0.03862 0.91695 0.0
C652 C 0.80803 0.03091 0.86919 0.0
O653 O 0.80217 0.0213 0.89157 0.0
C654 C 0.88643 0.02926 0.94875 0.0
O655 O 0.88471 0.04816 0.93424 0.0
O656 O 0.84703 0.06342 0.9646 0.0
O657 O 0.84393 0.08679 0.9294 0.0
H658 H 0.80459 0.04895 0.04387 0.0
H659 H 0.86223 0.03303 0.87174 0.0
O660 O 0.82057 0.04942 0.86875 0.0
H661 H 0.9099 0.10517 0.8766 0.0
H662 H 0.82555 0.12126 0.82142 0.0
H663 H 0.80918 0.11202 0.91541 0.0
H664 H 0.86978 0.10429 0.89466 0.0
H665 H 0.83685 0.08497 0.84453 0.0
O666 O 0.86796 0.01948 0.95765 0.0
H667 H 0.81193 0.05727 0.99731 0.0
H668 H 0.84685 0.99184 0.98883 0.0
H669 H 0.79776 0.14868 0.89313 0.0
H670 H 0.90221 0.0332 0.8532 0.0
H671 H 0.80594 0.15347 0.84578 0.0
H672 H 0.92636 0.06944 0.85566 0.0
O673 O 0.8005 0.06711 0.91482 0.0
H674 H 0.83903 0.95539 0.9054 0.0
H675 H 0.79238 0.00392 0.96595 0.0
H676 H 0.77724 0.9653 0.95212 0.0
H677 H 0.80065 0.94074 0.92165 0.0
H678 H 0.85341 0.99422 0.91958 0.0
H679 H 0.84008 0.98289 0.03537 0.0
H680 H 0.81873 0.01152 0.06319 0.0
O681 O 0.80269 0.0448 0.95095 0.0
C682 C 0.84908 0.08325 0.9533 0.0
C683 C 0.81385 0.0363 0.03193 0.0
C684 C 0.8338 0.99923 0.02717 0.0
N685 N 0.82961 0.02497 0.99034 0.0
C686 C 0.81799 0.04088 0.00554 0.0
C687 C 0.83761 0.00441 0.00085 0.0
C688 C 0.82181 0.0153 0.04276 0.0
C689 C 0.87255 0.04893 0.87263 0.0
N690 N 0.86364 0.06865 0.88413 0.0
C691 C 0.89521 0.0489 0.8622 0.0
C692 C 0.90876 0.06923 0.86363 0.0
C693 C 0.89955 0.08927 0.87539 0.0
C694 C 0.87683 0.08866 0.88562 0.0
C695 C 0.82195 0.11941 0.84207 0.0
C696 C 0.81296 0.11406 0.89485 0.0
C697 C 0.82827 0.09889 0.85525 0.0
N698 N 0.82388 0.09649 0.88135 0.0
C699 C 0.80638 0.13482 0.88232 0.0
C700 C 0.81095 0.13748 0.85575 0.0
C701 C 0.79142 0.05803 0.93521 0.0
C702 C 0.8287 0.9659 0.91873 0.0
C703 C 0.80263 0.99336 0.95263 0.0
C704 C 0.794 0.97148 0.94492 0.0
C705 C 0.80715 0.95771 0.92783 0.0
N706 N 0.8238 0.00125 0.94364 0.0
C707 C 0.8368 0.98785 0.9269 0.0
Co708 Co 0.43249 0.66668 0.60089 0.0
Co709 Co 0.46768 0.66504 0.54583 0.0
O710 O 0.4615 0.65854 0.58269 0.0
C711 C 0.46948 0.69163 0.63039 0.0
O712 O 0.47914 0.69709 0.60792 0.0
C713 C 0.4697 0.61372 0.54999 0.0
O714 O 0.45123 0.61556 0.56514 0.0
O715 O 0.43583 0.65414 0.53523 0.0
O716 O 0.4133 0.6548 0.5712 0.0
H717 H 0.44997 0.69788 0.45691 0.0
H718 H 0.46825 0.63762 0.62777 0.0
O719 O 0.45102 0.67903 0.63108 0.0
H720 H 0.39695 0.58861 0.62458 0.0
H721 H 0.38006 0.67284 0.67973 0.0
H722 H 0.38748 0.68884 0.58545 0.0
H723 H 0.39676 0.62871 0.6064 0.0
H724 H 0.41622 0.66219 0.656 0.0
O725 O 0.47947 0.63214 0.54095 0.0
H726 H 0.44221 0.68976 0.50344 0.0
H727 H 0.50705 0.65338 0.50979 0.0
H728 H 0.35093 0.69959 0.60835 0.0
H729 H 0.46916 0.59768 0.6464 0.0
H730 H 0.34706 0.6916 0.65584 0.0
H731 H 0.43334 0.57286 0.64478 0.0
O732 O 0.43233 0.69868 0.58535 0.0
H733 H 0.54491 0.65873 0.59267 0.0
H734 H 0.49637 0.70758 0.5343 0.0
H735 H 0.5355 0.72167 0.54775 0.0
H736 H 0.56006 0.69715 0.57712 0.0
H737 H 0.50559 0.64541 0.5789 0.0
H738 H 0.51542 0.66092 0.46326 0.0
H739 H 0.4868 0.6834 0.43653 0.0
O740 O 0.45553 0.69771 0.54984 0.0
C741 C 0.41632 0.65096 0.54691 0.0
C742 C 0.46261 0.68813 0.46838 0.0
C743 C 0.49934 0.66736 0.47193 0.0
N744 N 0.47426 0.6713 0.50934 0.0
C745 C 0.45835 0.68355 0.49474 0.0
C746 C 0.49448 0.66311 0.49824 0.0
C747 C 0.48327 0.67998 0.45695 0.0
C748 C 0.45254 0.627 0.62724 0.0
N749 N 0.43245 0.63552 0.61615 0.0
C750 C 0.45318 0.60437 0.63772 0.0
C751 C 0.43308 0.59044 0.63677 0.0
C752 C 0.41266 0.59926 0.62543 0.0
C753 C 0.41267 0.62196 0.61512 0.0
C754 C 0.38152 0.67636 0.65902 0.0
C755 C 0.38586 0.68516 0.60608 0.0
C756 C 0.40196 0.67042 0.6455 0.0
N757 N 0.40387 0.67472 0.61933 0.0
C758 C 0.36515 0.69135 0.61896 0.0
C759 C 0.36301 0.68688 0.64561 0.0
C760 C 0.44181 0.70841 0.56555 0.0
C761 C 0.5344 0.66954 0.57981 0.0
C762 C 0.50694 0.69685 0.54714 0.0
C763 C 0.52909 0.70489 0.55464 0.0
C764 C 0.54287 0.69112 0.57111 0.0
N765 N 0.49877 0.67565 0.55573 0.0
C766 C 0.51217 0.66205 0.57188 0.0
Co767 Co 0.83313 0.43129 0.59926 0.0
Co768 Co 0.83519 0.46734 0.54491 0.0
O769 O 0.84134 0.46061 0.58173 0.0
C770 C 0.80789 0.46774 0.6293 0.0
O771 O 0.80247 0.47773 0.60699 0.0
C772 C 0.88644 0.46948 0.54974 0.0
O773 O 0.88451 0.45078 0.56454 0.0
O774 O 0.84632 0.43571 0.53382 0.0
O775 O 0.8453 0.41261 0.56932 0.0
H776 H 0.80333 0.45094 0.45525 0.0
H777 H 0.86189 0.46667 0.62714 0.0
O778 O 0.82053 0.44929 0.62969 0.0
H779 H 0.91111 0.39554 0.62303 0.0
H780 H 0.82651 0.37756 0.67697 0.0
H781 H 0.81121 0.38649 0.58271 0.0
H782 H 0.87116 0.39556 0.60444 0.0
H783 H 0.83724 0.41412 0.65408 0.0
O784 O 0.86807 0.47934 0.54067 0.0
H785 H 0.81101 0.44246 0.50171 0.0
H786 H 0.84703 0.50733 0.5098 0.0
H787 H 0.80037 0.34954 0.60476 0.0
H788 H 0.90167 0.46736 0.64618 0.0
H789 H 0.80802 0.34491 0.65224 0.0
H790 H 0.9266 0.43163 0.6441 0.0
O791 O 0.80127 0.4313 0.58337 0.0
H792 H 0.84067 0.54382 0.59335 0.0
H793 H 0.79263 0.49603 0.53343 0.0
H794 H 0.77822 0.53487 0.54748 0.0
H795 H 0.80233 0.55906 0.57764 0.0
H796 H 0.85432 0.50479 0.57896 0.0
H797 H 0.83992 0.51643 0.46336 0.0
H798 H 0.81784 0.48815 0.43579 0.0
O799 O 0.80254 0.45498 0.54826 0.0
C800 C 0.84939 0.41602 0.54516 0.0
C801 C 0.8129 0.46343 0.46708 0.0
C802 C 0.83346 0.50018 0.47163 0.0
N803 N 0.82927 0.47448 0.50848 0.0
C804 C 0.81723 0.45876 0.49342 0.0
C805 C 0.83747 0.49492 0.49789 0.0
C806 C 0.82107 0.48431 0.45617 0.0
C807 C 0.87255 0.45099 0.62641 0.0
N808 N 0.86417 0.43107 0.61483 0.0
C809 C 0.8951 0.45151 0.63712 0.0
C810 C 0.90908 0.43146 0.63591 0.0
C811 C 0.90041 0.41121 0.62407 0.0
C812 C 0.87779 0.41134 0.61355 0.0
C813 C 0.82313 0.37934 0.65627 0.0
C814 C 0.81473 0.38454 0.60333 0.0
C815 C 0.82913 0.40002 0.64322 0.0
N816 N 0.82502 0.40235 0.61705 0.0
C817 C 0.80849 0.36361 0.61573 0.0
C818 C 0.81276 0.36103 0.64238 0.0
C819 C 0.79173 0.441 0.56359 0.0
C820 C 0.83004 0.53347 0.58016 0.0
C821 C 0.80319 0.50643 0.5466 0.0
C822 C 0.79496 0.52843 0.55445 0.0
C823 C 0.80851 0.542 0.57136 0.0
N824 N 0.82434 0.49822 0.55529 0.0
C825 C 0.83772 0.51141 0.57187 0.0
Co826 Co 0.06664 0.83164 0.60151 0.0
Co827 Co 0.03156 0.83545 0.54649 0.0
O828 O 0.0378 0.84081 0.58356 0.0
C829 C 0.02922 0.80716 0.63072 0.0
O830 O 0.0199 0.80154 0.60812 0.0
C831 C 0.02917 0.8866 0.55238 0.0
O832 O 0.04792 0.88454 0.56708 0.0
O833 O 0.06323 0.84715 0.5364 0.0
O834 O 0.08617 0.8432 0.57187 0.0
H835 H 0.04943 0.8059 0.45621 0.0
H836 H 0.03187 0.86148 0.62896 0.0
O837 O 0.04777 0.81963 0.63161 0.0
H838 H 0.10456 0.90842 0.62586 0.0
H839 H 0.11906 0.82335 0.68012 0.0
H840 H 0.11079 0.80795 0.58581 0.0
H841 H 0.10348 0.86851 0.60721 0.0
H842 H 0.08321 0.83531 0.65659 0.0
O843 O 0.01935 0.86832 0.54304 0.0
H844 H 0.05723 0.81255 0.50302 0.0
H845 H 0.99195 0.84784 0.51107 0.0
H846 H 0.14703 0.79588 0.60852 0.0
H847 H 0.03224 0.90124 0.64807 0.0
H848 H 0.15133 0.80357 0.65602 0.0
H849 H 0.06876 0.92502 0.64649 0.0
O850 O 0.06582 0.79988 0.58555 0.0
H851 H 0.95441 0.83917 0.5938 0.0
H852 H 0.00335 0.79298 0.53321 0.0
H853 H 0.96445 0.77795 0.54618 0.0
H854 H 0.93969 0.80112 0.57667 0.0
H855 H 0.99352 0.85345 0.58048 0.0
H856 H 0.98353 0.84177 0.46429 0.0
H857 H 0.01236 0.82058 0.43656 0.0
O858 O 0.04411 0.80278 0.54902 0.0
C859 C 0.08295 0.84875 0.54802 0.0
C860 C 0.0367 0.81509 0.46811 0.0
C861 C -0.00027 0.83525 0.47264 0.0
N862 N 0.02497 0.83038 0.50978 0.0
C863 C 0.04099 0.81884 0.49464 0.0
C864 C 0.00461 0.83868 0.4991 0.0
C865 C 0.01591 0.82335 0.45709 0.0
C866 C 0.04789 0.87164 0.62846 0.0
N867 N 0.06766 0.86265 0.61712 0.0
C868 C 0.04797 0.89418 0.6392 0.0
C869 C 0.06846 0.90752 0.63827 0.0
C870 C 0.08855 0.89823 0.62668 0.0
C871 C 0.08782 0.87563 0.61612 0.0
C872 C 0.11743 0.81997 0.65941 0.0
C873 C 0.11262 0.81153 0.60644 0.0
C874 C 0.09716 0.82667 0.64599 0.0
N875 N 0.09503 0.82255 0.6198 0.0
C876 C 0.13314 0.80458 0.61921 0.0
C877 C 0.13553 0.80887 0.64587 0.0
C878 C 0.05697 0.79117 0.56483 0.0
C879 C 0.96502 0.82894 0.58046 0.0
C880 C 0.9927 0.80313 0.54654 0.0
C881 C 0.97067 0.79456 0.55377 0.0
C882 C 0.95678 0.80757 0.57086 0.0
N883 N 0.00064 0.82412 0.55601 0.0
C884 C 0.98712 0.83698 0.57277 0.0
Co885 Co 0.66683 0.0678 0.60287 0.0
Co886 Co 0.66461 0.03226 0.5481 0.0
O887 O 0.65857 0.03865 0.58502 0.0
C888 C 0.69219 0.0311 0.63239 0.0
O889 O 0.69782 0.02156 0.60991 0.0
C890 C 0.61335 0.02985 0.55296 0.0
O891 O 0.61517 0.04846 0.5679 0.0
O892 O 0.65328 0.06394 0.53743 0.0
O893 O 0.65458 0.08674 0.57317 0.0
H894 H 0.69604 0.04962 0.45848 0.0
H895 H 0.63811 0.03215 0.63038 0.0
O896 O 0.67947 0.04948 0.63307 0.0
H897 H 0.58892 0.10333 0.62724 0.0
H898 H 0.67364 0.12079 0.68119 0.0
H899 H 0.68864 0.11279 0.58676 0.0
H900 H 0.62883 0.10348 0.60857 0.0
H901 H 0.66289 0.08442 0.65791 0.0
O902 O 0.63178 0.02013 0.54387 0.0
H903 H 0.68848 0.05766 0.50506 0.0
H904 H 0.65286 0.99251 0.51263 0.0
H905 H 0.69949 0.14954 0.60922 0.0
H906 H 0.59837 0.03128 0.64951 0.0
H907 H 0.692 0.1537 0.65678 0.0
H908 H 0.57346 0.06704 0.64792 0.0
O909 O 0.69867 0.06798 0.58688 0.0
H910 H 0.65971 0.95537 0.59581 0.0
H911 H 0.70727 0.00387 0.53611 0.0
H912 H 0.72193 0.965 0.54972 0.0
H913 H 0.69806 0.94046 0.57976 0.0
H914 H 0.64581 0.99444 0.58186 0.0
H915 H 0.65985 0.98385 0.46606 0.0
H916 H 0.68167 0.01249 0.43869 0.0
O917 O 0.6972 0.04475 0.55142 0.0
C918 C 0.65028 0.08353 0.54901 0.0
C919 C 0.68658 0.03697 0.47022 0.0
C920 C 0.66624 7e-05 0.47447 0.0
N921 N 0.67043 0.02548 0.51158 0.0
C922 C 0.68231 0.04139 0.49662 0.0
C923 C 0.6623 0.00508 0.5008 0.0
C924 C 0.67849 0.01614 0.45913 0.0
C925 C 0.62746 0.04784 0.62986 0.0
N926 N 0.63582 0.06787 0.61851 0.0
C927 C 0.60494 0.04722 0.64062 0.0
C928 C 0.59095 0.06728 0.63969 0.0
C929 C 0.59961 0.08765 0.62808 0.0
C930 C 0.62221 0.08761 0.61749 0.0
C931 C 0.67695 0.1192 0.66045 0.0
C932 C 0.68518 0.11454 0.60743 0.0
C933 C 0.67094 0.09864 0.64718 0.0
N934 N 0.67497 0.09657 0.62097 0.0
C935 C 0.69143 0.13535 0.62005 0.0
C936 C 0.68724 0.13766 0.64674 0.0
C937 C 0.70809 0.05856 0.56686 0.0
C938 C 0.67024 0.96587 0.58266 0.0
C939 C 0.69681 0.99331 0.54924 0.0
C940 C 0.70518 0.9713 0.55683 0.0
C941 C 0.69178 0.95753 0.57368 0.0
N942 N 0.67566 0.00135 0.55811 0.0
C943 C 0.66242 0.98796 0.57462 0.0
H944 H 0.58787 0.23612 0.09349 0.0
H945 H 0.60216 0.27477 0.08033 0.0
H946 H 0.55664 0.27331 0.01307 0.0
H947 H 0.54199 0.23484 0.02612 0.0
H948 H 0.62539 0.28306 0.03415 0.0
H949 H 0.54657 0.33967 0.04109 0.0
H950 H 0.54847 0.3114 0.05694 0.0
H951 H 0.54148 0.3133 0.02275 0.0
C952 C 0.58053 0.24417 0.07615 0.0
C953 C 0.56381 0.23227 0.06082 0.0
C954 C 0.58875 0.26627 0.06867 0.0
C955 C 0.58029 0.277 0.04589 0.0
C956 C 0.56306 0.26557 0.03102 0.0
H957 H 0.64471 0.3697 0.93734 0.0
H958 H 0.62856 0.33729 0.96268 0.0
C959 C 0.55482 0.24346 0.03845 0.0
C960 C 0.59111 0.29897 0.03619 0.0
H961 H 0.57838 0.35432 0.01489 0.0
C962 C 0.61518 0.29876 0.03029 0.0
C963 C 0.57782 0.31949 0.0314 0.0
C964 C 0.5522 0.32113 0.03862 0.0
C965 C 0.62608 0.31817 0.01863 0.0
C966 C 0.61249 0.33816 0.01244 0.0
C967 C 0.58868 0.33883 0.01943 0.0
C968 C 0.62243 0.35798 0.99744 0.0
C969 C 0.652 0.31702 0.01271 0.0
C970 C 0.62395 0.38044 0.0085 0.0
C971 C 0.63321 0.39912 0.99405 0.0
C972 C 0.64085 0.39564 0.96819 0.0
C973 C 0.63909 0.37306 0.95719 0.0
C974 C 0.62995 0.35445 0.97168 0.0
H975 H 0.66099 0.30351 0.02476 0.0
H976 H 0.65449 0.31231 0.99186 0.0
H977 H 0.66055 0.33427 0.01616 0.0
H978 H 0.61809 0.38349 0.02833 0.0
H979 H 0.6342 0.41628 0.0031 0.0
H980 H 0.08234 0.61915 0.99061 0.0
H981 H 0.11609 0.60176 0.01299 0.0
H982 H 0.16291 0.64391 0.96614 0.0
H983 H 0.12936 0.66038 0.94287 0.0
H984 H 0.17782 0.60119 0.96729 0.0
H985 H 0.1572 0.6271 0.06899 0.0
H986 H 0.13425 0.61005 0.05435 0.0
H987 H 0.14128 0.63858 0.04137 0.0
C988 C 0.09985 0.62487 0.98532 0.0
C989 C 0.10324 0.64116 0.96506 0.0
C990 C 0.11912 0.61503 0.99824 0.0
C991 C 0.14208 0.62181 0.99162 0.0
C992 C 0.14539 0.63839 0.97164 0.0
H993 H 0.27041 0.59936 0.07706 0.0
H994 H 0.23275 0.61299 0.06016 0.0
C995 C 0.1262 0.64783 0.95837 0.0
C996 C 0.1628 0.61087 0.00436 0.0
H997 H 0.18857 0.59999 0.06336 0.0
C998 C 0.18019 0.60101 0.98831 0.0
C999 C 0.166 0.61079 0.03178 0.0
C1000 C 0.14881 0.62241 0.0501 0.0
C1001 C 0.20079 0.5914 0.99878 0.0
C1002 C 0.20367 0.59062 0.02624 0.0
C1003 C 0.1862 0.60029 0.04234 0.0
C1004 C 0.22534 0.5812 0.03848 0.0
C1005 C 0.21961 0.58307 0.98018 0.0
C1006 C 0.23335 0.55847 0.0327 0.0
C1007 C 0.25514 0.55081 0.0419 0.0
C1008 C 0.269 0.5655 0.05769 0.0
C1009 C 0.26019 0.58762 0.06492 0.0
C1010 C 0.23863 0.59544 0.05527 0.0
H1011 H 0.21758 0.59106 0.96051 0.0
H1012 H 0.23741 0.58738 0.9876 0.0
H1013 H 0.21829 0.56375 0.97788 0.0
H1014 H 0.22304 0.54685 0.02052 0.0
H1015 H 0.2613 0.53354 0.0363 0.0
H1016 H 0.84292 0.13 0.9443 0.0
H1017 H 0.86103 0.16275 0.96743 0.0
H1018 H 0.89686 0.11416 0.01835 0.0
H1019 H 0.87789 0.08123 0.99597 0.0
H1020 H 0.88158 0.15034 0.04538 0.0
H1021 H 0.9271 0.18397 0.95784 0.0
H1022 H 0.89605 0.18268 0.9525 0.0
H1023 H 0.91231 0.15599 0.95812 0.0
C1024 C 0.85459 0.12627 0.96048 0.0
C1025 C 0.85911 0.10304 0.96821 0.0
C1026 C 0.86509 0.14501 0.97356 0.0
C1027 C 0.88086 0.14091 0.99413 0.0
C1028 C 0.88491 0.11774 0.00238 0.0
H1029 H 0.96816 0.25932 0.04158 0.0
H1030 H 0.95583 0.22029 0.0273 0.0
C1031 C 0.87404 0.09896 0.9896 0.0
C1032 C 0.89299 0.16085 0.007 0.0
H1033 H 0.92414 0.2106 0.99397 0.0
C1034 C 0.89114 0.16339 0.0342 0.0
C1035 C 0.90604 0.17754 0.99255 0.0
C1036 C 0.91073 0.17476 0.9637 0.0
C1037 C 0.90111 0.18269 0.04717 0.0
C1038 C 0.91251 0.20036 0.0324 0.0
C1039 C 0.91516 0.19728 0.00535 0.0
C1040 C 0.92103 0.22264 0.04416 0.0
C1041 C 0.89948 0.18375 0.07655 0.0
C1042 C 0.90577 0.23686 0.05879 0.0
C1043 C 0.91298 0.25896 0.06747 0.0
C1044 C 0.93536 0.26757 0.06101 0.0
C1045 C 0.95078 0.25319 0.04678 0.0
C1046 C 0.94373 0.23088 0.03859 0.0
H1047 H 0.89858 0.16585 0.08512 0.0
H1048 H 0.91471 0.1931 0.0852 0.0
H1049 H 0.88316 0.19311 0.08216 0.0
H1050 H 0.88792 0.23132 0.06264 0.0
H1051 H 0.90059 0.26974 0.07812 0.0
H1052 H 0.41658 0.87832 0.99361 0.0
H1053 H 0.38287 0.89542 0.01633 0.0
H1054 H 0.33595 0.85414 0.96864 0.0
H1055 H 0.36947 0.83798 0.94505 0.0
H1056 H 0.3213 0.89691 0.97037 0.0
H1057 H 0.34141 0.86963 0.07176 0.0
H1058 H 0.36451 0.88672 0.0575 0.0
H1059 H 0.35736 0.8584 0.04404 0.0
C1060 C 0.39906 0.87272 0.98822 0.0
C1061 C 0.39562 0.85678 0.96761 0.0
C1062 C 0.3798 0.88239 0.00133 0.0
C1063 C 0.35683 0.87578 0.99454 0.0
C1064 C 0.35348 0.85951 0.97427 0.0
H1065 H 0.22824 0.89836 0.0796 0.0
H1066 H 0.2659 0.88455 0.06284 0.0
C1067 C 0.37265 0.85025 0.96081 0.0
C1068 C 0.33614 0.88668 0.00736 0.0
H1069 H 0.31025 0.89706 0.06641 0.0
C1070 C 0.31887 0.89685 0.99138 0.0
C1071 C 0.33284 0.88645 0.03477 0.0
C1072 C 0.3499 0.8745 0.05299 0.0
C1073 C 0.29831 0.90649 0.00191 0.0
C1074 C 0.29535 0.90698 0.02936 0.0
C1075 C 0.31269 0.89698 0.0454 0.0
C1076 C 0.27374 0.91649 0.04163 0.0
C1077 C 0.27961 0.91518 0.98334 0.0
C1078 C 0.26599 0.93936 0.0361 0.0
C1079 C 0.24421 0.94713 0.04521 0.0
C1080 C 0.23011 0.9324 0.06067 0.0
C1081 C 0.23867 0.91013 0.06771 0.0
C1082 C 0.26021 0.9022 0.05814 0.0
H1083 H 0.28163 0.90737 0.96358 0.0
H1084 H 0.26175 0.91096 0.99064 0.0
H1085 H 0.28112 0.93451 0.98129 0.0
H1086 H 0.27649 0.951 0.02415 0.0
H1087 H 0.23825 0.96451 0.03977 0.0
H1088 H 0.5421 0.26591 0.47689 0.0
H1089 H 0.55727 0.2279 0.49101 0.0
H1090 H 0.60113 0.22448 0.42251 0.0
H1091 H 0.58633 0.26265 0.40824 0.0
H1092 H 0.5592 0.18263 0.46683 0.0
H1093 H 0.64758 0.22117 0.48449 0.0
H1094 H 0.62183 0.23904 0.4793 0.0
H1095 H 0.63595 0.22496 0.45214 0.0
C1096 C 0.55477 0.25701 0.4646 0.0
C1097 C 0.56321 0.26754 0.44157 0.0
C1098 C 0.56338 0.23525 0.47271 0.0
C1099 C 0.58057 0.22362 0.458 0.0
C1100 C 0.58813 0.2334 0.43433 0.0
H1101 H 0.63487 0.08376 0.49817 0.0
H1102 H 0.61805 0.11682 0.47398 0.0
C1103 C 0.57956 0.25519 0.42618 0.0
C1104 C 0.59158 0.20204 0.4684 0.0
H1105 H 0.64294 0.18092 0.49347 0.0
C1106 C 0.57755 0.18213 0.47246 0.0
C1107 C 0.61547 0.20163 0.47597 0.0
C1108 C 0.63112 0.22286 0.473 0.0
C1109 C 0.58674 0.16182 0.48419 0.0
C1110 C 0.6106 0.16147 0.4918 0.0
C1111 C 0.6247 0.18126 0.48741 0.0
C1112 C 0.62092 0.14138 0.50604 0.0
C1113 C 0.57071 0.14123 0.48924 0.0
C1114 C 0.6285 0.14443 0.53185 0.0
C1115 C 0.63815 0.12569 0.5457 0.0
C1116 C 0.64055 0.10349 0.53393 0.0
C1117 C 0.63323 0.10058 0.50787 0.0
C1118 C 0.62349 0.1194 0.49404 0.0
H1119 H 0.55193 0.14587 0.48646 0.0
H1120 H 0.57511 0.12682 0.47551 0.0
H1121 H 0.57316 0.13451 0.50942 0.0
H1122 H 0.62673 0.16132 0.54139 0.0
H1123 H 0.64366 0.12865 0.56567 0.0
H1124 H 0.41608 0.6353 0.49621 0.0
H1125 H 0.3828 0.61921 0.47178 0.0
H1126 H 0.33808 0.62905 0.53881 0.0
H1127 H 0.37101 0.64518 0.56336 0.0
H1128 H 0.35413 0.57926 0.48581 0.0
H1129 H 0.3028 0.66175 0.47788 0.0
H1130 H 0.33374 0.66139 0.48563 0.0
H1131 H 0.31237 0.655 0.51046 0.0
C1132 C 0.39914 0.63417 0.50573 0.0
C1133 C 0.39623 0.64163 0.53175 0.0
C1134 C 0.38019 0.62493 0.49175 0.0
C1135 C 0.35799 0.62323 0.50343 0.0
C1136 C 0.35502 0.63057 0.52934 0.0
H1137 H 0.23446 0.54262 0.47494 0.0
H1138 H 0.2728 0.5574 0.48834 0.0
C1139 C 0.37393 0.6397 0.54337 0.0
C1140 C 0.3379 0.61329 0.48888 0.0
H1141 H 0.28248 0.6262 0.46818 0.0
C1142 C 0.33854 0.58954 0.48165 0.0
C1143 C 0.31776 0.62686 0.48322 0.0
C1144 C 0.31661 0.65273 0.48946 0.0
C1145 C 0.31909 0.57872 0.46987 0.0
C1146 C 0.29848 0.59201 0.4655 0.0
C1147 C 0.29825 0.616 0.47172 0.0
C1148 C 0.27653 0.58125 0.45571 0.0
C1149 C 0.32069 0.55317 0.46235 0.0
C1150 C 0.26587 0.58979 0.43292 0.0
C1151 C 0.24386 0.58148 0.42522 0.0
C1152 C 0.23198 0.56459 0.44034 0.0
C1153 C 0.24307 0.55557 0.46277 0.0
C1154 C 0.26509 0.56389 0.4704 0.0
H1155 H 0.33923 0.54752 0.45985 0.0
H1156 H 0.3128 0.54232 0.47805 0.0
H1157 H 0.31099 0.54966 0.44395 0.0
H1158 H 0.27437 0.60329 0.4214 0.0
H1159 H 0.23588 0.58885 0.40786 0.0
H1160 H 0.86548 0.41649 0.4946 0.0
H1161 H 0.88156 0.38347 0.46971 0.0
H1162 H 0.87106 0.33784 0.53584 0.0
H1163 H 0.85494 0.37048 0.56086 0.0
H1164 H 0.92124 0.35422 0.48351 0.0
H1165 H 0.83837 0.30377 0.47405 0.0
H1166 H 0.83896 0.33461 0.4823 0.0
H1167 H 0.8449 0.31285 0.50685 0.0
C1168 C 0.86647 0.39941 0.50383 0.0
C1169 C 0.85882 0.39615 0.52973 0.0
C1170 C 0.8757 0.3806 0.48958 0.0
C1171 C 0.8772 0.35823 0.50087 0.0
C1172 C 0.86969 0.35493 0.52668 0.0
H1173 H 0.957 0.23448 0.47331 0.0
H1174 H 0.94253 0.27309 0.48605 0.0
C1175 C 0.86058 0.37367 0.54097 0.0
C1176 C 0.88705 0.33826 0.48606 0.0
H1177 H 0.87386 0.28308 0.46483 0.0
C1178 C 0.91086 0.33875 0.47909 0.0
C1179 C 0.87335 0.3183 0.48004 0.0
C1180 C 0.84741 0.31734 0.48595 0.0
C1181 C 0.92163 0.31927 0.46731 0.0
C1182 C 0.90822 0.29879 0.46269 0.0
C1183 C 0.88415 0.29875 0.46857 0.0
C1184 C 0.91892 0.2767 0.45318 0.0
C1185 C 0.94726 0.3207 0.46011 0.0
C1186 C 0.91041 0.26587 0.43049 0.0
C1187 C 0.91852 0.24367 0.42319 0.0
C1188 C 0.93519 0.2318 0.43861 0.0
C1189 C 0.94422 0.24308 0.46091 0.0
C1190 C 0.93608 0.26527 0.46816 0.0
H1191 H 0.953 0.3392 0.45748 0.0
H1192 H 0.95792 0.31293 0.47606 0.0
H1193 H 0.95096 0.31082 0.44188 0.0
H1194 H 0.89705 0.27436 0.41876 0.0
H1195 H 0.91115 0.23556 0.40591 0.0
H1196 H 0.08208 0.87969 0.50726 0.0
H1197 H 0.11573 0.89756 0.48519 0.0
H1198 H 0.16283 0.85693 0.53335 0.0
H1199 H 0.12934 0.84 0.55631 0.0
H1200 H 0.17698 0.89988 0.53166 0.0
H1201 H 0.15783 0.87222 0.43016 0.0
H1202 H 0.13446 0.88907 0.44423 0.0
H1203 H 0.14184 0.86084 0.45777 0.0
C1204 C 0.09963 0.87442 0.51292 0.0
C1205 C 0.10311 0.8584 0.53344 0.0
C1206 C 0.11885 0.88453 0.50018 0.0
C1207 C 0.14186 0.87829 0.50724 0.0
C1208 C 0.14527 0.86202 0.52751 0.0
H1209 H 0.27061 0.90091 0.42304 0.0
H1210 H 0.23288 0.88729 0.4397 0.0
C1211 C 0.12612 0.85232 0.54061 0.0
C1212 C 0.16251 0.88943 0.49458 0.0
H1213 H 0.18874 0.89981 0.43573 0.0
C1214 C 0.17957 0.89978 0.51067 0.0
C1215 C 0.166 0.88916 0.4672 0.0
C1216 C 0.14918 0.87702 0.44886 0.0
C1217 C 0.20016 0.90952 0.5003 0.0
C1218 C 0.20333 0.90991 0.47287 0.0
C1219 C 0.18615 0.8998 0.45672 0.0
C1220 C 0.22505 0.91932 0.46074 0.0
C1221 C 0.21866 0.91836 0.519 0.0
C1222 C 0.23287 0.94219 0.46622 0.0
C1223 C 0.25471 0.94985 0.45718 0.0
C1224 C 0.2688 0.93503 0.44182 0.0
C1225 C 0.2602 0.91276 0.43485 0.0
C1226 C 0.2386 0.90494 0.44436 0.0
H1227 H 0.2165 0.91067 0.5388 0.0
H1228 H 0.2366 0.91414 0.51193 0.0
H1229 H 0.2171 0.9377 0.52089 0.0
H1230 H 0.22236 0.95391 0.47807 0.0
H1231 H 0.26071 0.96723 0.46256 0.0
H1232 H 0.45723 0.76573 0.97614 0.0
H1233 H 0.44382 0.72679 0.98923 0.0
H1234 H 0.40245 0.72161 0.91895 0.0
H1235 H 0.41547 0.76065 0.90573 0.0
H1236 H 0.37696 0.71364 0.96367 0.0
H1237 H 0.45823 0.66016 0.96425 0.0
H1238 H 0.46106 0.68719 0.982 0.0
H1239 H 0.45613 0.68791 0.94732 0.0
C1240 C 0.44562 0.75619 0.96318 0.0
C1241 C 0.43734 0.76645 0.93993 0.0
C1242 C 0.4381 0.73383 0.97064 0.0
C1243 C 0.42234 0.72123 0.95493 0.0
C1244 C 0.41472 0.73102 0.93128 0.0
H1245 H 0.36872 0.58144 0.99694 0.0
H1246 H 0.38561 0.61406 0.97196 0.0
C1247 C 0.4222 0.75336 0.92378 0.0
C1248 C 0.41187 0.69907 0.96454 0.0
H1249 H 0.4254 0.64468 0.9882 0.0
C1250 C 0.38752 0.69844 0.96867 0.0
C1251 C 0.42564 0.6792 0.97086 0.0
C1252 C 0.45169 0.6785 0.96565 0.0
C1253 C 0.3767 0.67885 0.98003 0.0
C1254 C 0.39064 0.65953 0.98766 0.0
C1255 C 0.41482 0.65966 0.98249 0.0
C1256 C 0.38055 0.63974 0.00254 0.0
C1257 C 0.35048 0.67911 0.98422 0.0
C1258 C 0.37238 0.64346 0.028 0.0
C1259 C 0.36284 0.62498 0.04233 0.0
C1260 C 0.36125 0.60235 0.03144 0.0
C1261 C 0.36955 0.59866 0.00587 0.0
C1262 C 0.37927 0.61722 0.99159 0.0
H1263 H 0.34169 0.69241 0.97171 0.0
H1264 H 0.34276 0.6616 0.98005 0.0
H1265 H 0.34672 0.68348 0.00492 0.0
H1266 H 0.37349 0.66071 0.03685 0.0
H1267 H 0.35669 0.62849 0.06196 0.0
H1268 H 0.73657 0.40949 0.90737 0.0
H1269 H 0.77505 0.39523 0.92129 0.0
H1270 H 0.77294 0.44137 0.98797 0.0
H1271 H 0.73461 0.45601 0.9742 0.0
H1272 H 0.81794 0.43837 0.96253 0.0
H1273 H 0.77909 0.3511 0.98551 0.0
H1274 H 0.77465 0.36159 0.95278 0.0
H1275 H 0.76131 0.37679 0.97967 0.0
C1276 C 0.74438 0.41689 0.92482 0.0
C1277 C 0.73231 0.43372 0.93983 0.0
C1278 C 0.76635 0.40863 0.93276 0.0
C1279 C 0.7766 0.41699 0.95585 0.0
C1280 C 0.76524 0.43466 0.97012 0.0
H1281 H 0.87212 0.35807 0.06516 0.0
H1282 H 0.83955 0.37439 0.04026 0.0
C1283 C 0.74329 0.44295 0.96222 0.0
C1284 C 0.79831 0.40625 0.96624 0.0
H1285 H 0.81945 0.35585 0.99358 0.0
C1286 C 0.81841 0.42027 0.9691 0.0
C1287 C 0.79867 0.38271 0.97503 0.0
C1288 C 0.77727 0.36714 0.97334 0.0
C1289 C 0.83884 0.41141 0.98088 0.0
C1290 C 0.83912 0.38791 0.98977 0.0
C1291 C 0.81916 0.37381 0.98653 0.0
C1292 C 0.85925 0.37811 0.0044 0.0
C1293 C 0.85966 0.42743 0.98463 0.0
C1294 C 0.88108 0.3746 0.99235 0.0
C1295 C 0.89985 0.3652 0.00654 0.0
C1296 C 0.89704 0.35915 0.03302 0.0
C1297 C 0.87501 0.36256 0.04486 0.0
C1298 C 0.85632 0.37187 0.03066 0.0
H1299 H 0.85521 0.44608 0.98065 0.0
H1300 H 0.86651 0.42599 0.00487 0.0
H1301 H 0.87391 0.42211 0.9711 0.0
H1302 H 0.88355 0.37901 0.97196 0.0
H1303 H 0.91655 0.36276 0.99679 0.0
H1304 H 0.08414 0.73851 0.90566 0.0
H1305 H 0.09795 0.77692 0.92028 0.0
H1306 H 0.05653 0.77052 0.99037 0.0
H1307 H 0.04234 0.73222 0.97591 0.0
H1308 H 0.05642 0.81662 0.96702 0.0
H1309 H 0.14612 0.77985 0.98092 0.0
H1310 H 0.13361 0.77633 0.94894 0.0
H1311 H 0.12066 0.76147 0.9763 0.0
C1312 C 0.07766 0.74536 0.92402 0.0
C1313 C 0.06234 0.73208 0.93976 0.0
C1314 C 0.08565 0.7673 0.93236 0.0
C1315 C 0.07854 0.77631 0.95657 0.0
C1316 C 0.06227 0.76377 0.97165 0.0
H1317 H 0.14073 0.87015 0.06554 0.0
H1318 H 0.12375 0.83789 0.04065 0.0
C1319 C 0.05423 0.74184 0.96335 0.0
C1320 C 0.08927 0.79795 0.96716 0.0
H1321 H 0.14071 0.81971 0.9913 0.0
C1322 C 0.07488 0.81745 0.97211 0.0
C1323 C 0.11332 0.79876 0.97401 0.0
C1324 C 0.12937 0.77797 0.97001 0.0
C1325 C 0.08392 0.83773 0.98405 0.0
C1326 C 0.10792 0.83844 0.99101 0.0
C1327 C 0.12235 0.81908 0.98572 0.0
C1328 C 0.11806 0.85836 0.00566 0.0
C1329 C 0.06762 0.8579 0.99003 0.0
C1330 C 0.12067 0.88051 0.99405 0.0
C1331 C 0.13049 0.89909 0.00821 0.0
C1332 C 0.13781 0.89576 0.03422 0.0
C1333 C 0.13525 0.87343 0.04562 0.0
C1334 C 0.12556 0.85492 0.03143 0.0
H1335 H 0.0489 0.85317 0.98697 0.0
H1336 H 0.06997 0.8638 0.01054 0.0
H1337 H 0.07192 0.87293 0.9771 0.0
H1338 H 0.11523 0.88338 0.97404 0.0
H1339 H 0.13222 0.91604 0.99882 0.0
H1340 H 0.62785 0.1452 0.06419 0.0
H1341 H 0.66069 0.12886 0.03966 0.0
H1342 H 0.61541 0.11712 0.97349 0.0
H1343 H 0.5822 0.13344 0.99788 0.0
H1344 H 0.645 0.07762 0.98883 0.0
H1345 H 0.69454 0.16085 0.97687 0.0
H1346 H 0.68525 0.15493 0.00975 0.0
H1347 H 0.66365 0.16011 0.98483 0.0
C1348 C 0.62479 0.13925 0.04439 0.0
C1349 C 0.60235 0.14073 0.03299 0.0
C1350 C 0.64364 0.13 0.03038 0.0
C1351 C 0.64048 0.12205 0.00472 0.0
C1352 C 0.61816 0.1233 0.99326 0.0
H1353 H 0.7619 0.08744 0.90846 0.0
H1354 H 0.72322 0.10127 0.92207 0.0
C1355 C 0.59925 0.13268 0.00722 0.0
C1356 C 0.66054 0.11206 0.9902 0.0
H1357 H 0.71537 0.12545 0.96803 0.0
C1358 C 0.66031 0.08808 0.98397 0.0
C1359 C 0.68029 0.12586 0.98365 0.0
C1360 C 0.68097 0.15192 0.98888 0.0
C1361 C 0.67983 0.07729 0.9723 0.0
C1362 C 0.70007 0.09086 0.96702 0.0
C1363 C 0.69987 0.11504 0.97226 0.0
C1364 C 0.72211 0.08028 0.95724 0.0
C1365 C 0.6787 0.05148 0.96588 0.0
C1366 C 0.73419 0.06369 0.9724 0.0
C1367 C 0.75632 0.05572 0.96472 0.0
C1368 C 0.76688 0.06433 0.94179 0.0
C1369 C 0.75435 0.0804 0.92622 0.0
C1370 C 0.73223 0.08836 0.93396 0.0
H1371 H 0.66026 0.04533 0.96397 0.0
H1372 H 0.6882 0.04756 0.94745 0.0
H1373 H 0.68708 0.04134 0.98186 0.0
H1374 H 0.7269 0.05758 0.99071 0.0
H1375 H 0.76545 0.0434 0.97724 0.0
H1376 H 0.45681 0.73549 0.52458 0.0
H1377 H 0.44284 0.77442 0.51227 0.0
H1378 H 0.39853 0.7763 0.5805 0.0
H1379 H 0.41214 0.73721 0.59292 0.0
H1380 H 0.37471 0.78552 0.53505 0.0
H1381 H 0.45489 0.84029 0.54067 0.0
H1382 H 0.45906 0.81399 0.52193 0.0
H1383 H 0.45267 0.81192 0.55626 0.0
C1384 C 0.4444 0.74429 0.53726 0.0
C1385 C 0.43554 0.73311 0.5597 0.0
C1386 C 0.43655 0.76665 0.53027 0.0
C1387 C 0.41986 0.77835 0.54564 0.0
C1388 C 0.41153 0.7676 0.56846 0.0
H1389 H 0.36678 0.91857 0.50405 0.0
H1390 H 0.38287 0.88575 0.52935 0.0
C1391 C 0.41935 0.74523 0.5755 0.0
C1392 C 0.40937 0.80064 0.53642 0.0
H1393 H 0.42297 0.8558 0.51514 0.0
C1394 C 0.3852 0.80101 0.53108 0.0
C1395 C 0.42304 0.82089 0.53149 0.0
C1396 C 0.44881 0.8219 0.53813 0.0
C1397 C 0.37455 0.82071 0.51975 0.0
C1398 C 0.38848 0.8404 0.51336 0.0
C1399 C 0.41241 0.84053 0.51987 0.0
C1400 C 0.37878 0.86031 0.49835 0.0
C1401 C 0.34853 0.82016 0.51424 0.0
C1402 C 0.37144 0.85681 0.47252 0.0
C1403 C 0.36236 0.87542 0.45801 0.0
C1404 C 0.36042 0.89796 0.46906 0.0
C1405 C 0.36791 0.90143 0.49498 0.0
C1406 C 0.37715 0.88275 0.50946 0.0
H1407 H 0.33943 0.80668 0.52623 0.0
H1408 H 0.3404 0.83754 0.5181 0.0
H1409 H 0.34567 0.81579 0.49336 0.0
H1410 H 0.37288 0.83966 0.46353 0.0
H1411 H 0.35685 0.87206 0.43812 0.0
H1412 H 0.76499 0.4566 0.5226 0.0
H1413 H 0.72636 0.44248 0.50933 0.0
H1414 H 0.72414 0.39671 0.57635 0.0
H1415 H 0.76292 0.41047 0.58973 0.0
H1416 H 0.71561 0.37385 0.52984 0.0
H1417 H 0.66014 0.45347 0.5377 0.0
H1418 H 0.6866 0.45815 0.51938 0.0
H1419 H 0.68838 0.451 0.55353 0.0
C1420 C 0.75617 0.44382 0.53481 0.0
C1421 C 0.76717 0.43462 0.55721 0.0
C1422 C 0.73399 0.43588 0.52726 0.0
C1423 C 0.72229 0.41875 0.54202 0.0
C1424 C 0.73285 0.41005 0.56478 0.0
H1425 H 0.58196 0.36614 0.50243 0.0
H1426 H 0.61545 0.38224 0.5265 0.0
C1427 C 0.75503 0.41796 0.57238 0.0
C1428 C 0.70016 0.40831 0.53229 0.0
H1429 H 0.64468 0.42182 0.512 0.0
C1430 C 0.7 0.38428 0.52625 0.0
C1431 C 0.67976 0.4219 0.52786 0.0
C1432 C 0.67858 0.44752 0.53519 0.0
C1433 C 0.68029 0.37366 0.5149 0.0
C1434 C 0.66037 0.38751 0.50918 0.0
C1435 C 0.66012 0.41132 0.5162 0.0
C1436 C 0.6401 0.37778 0.49477 0.0
C1437 C 0.68102 0.34774 0.50886 0.0
C1438 C 0.6429 0.37022 0.46892 0.0
C1439 C 0.62389 0.36109 0.45509 0.0
C1440 C 0.60163 0.35937 0.46686 0.0
C1441 C 0.59886 0.36711 0.49279 0.0
C1442 C 0.61793 0.37636 0.50658 0.0
H1443 H 0.69473 0.33857 0.52046 0.0
H1444 H 0.66377 0.33937 0.51284 0.0
H1445 H 0.68515 0.34526 0.48787 0.0
H1446 H 0.65982 0.37153 0.45937 0.0
H1447 H 0.6267 0.35538 0.43516 0.0
H1448 H 0.14414 0.62763 0.43527 0.0
H1449 H 0.12749 0.66046 0.45956 0.0
H1450 H 0.11576 0.61536 0.52588 0.0
H1451 H 0.13241 0.58217 0.50174 0.0
H1452 H 0.07611 0.64502 0.50999 0.0
H1453 H 0.15945 0.69429 0.52262 0.0
H1454 H 0.15368 0.68485 0.48976 0.0
H1455 H 0.15866 0.66337 0.51484 0.0
C1456 C 0.13811 0.6246 0.45504 0.0
C1457 C 0.13971 0.60223 0.46657 0.0
C1458 C 0.12867 0.64344 0.46891 0.0
C1459 C 0.12066 0.64033 0.49454 0.0
C1460 C 0.12198 0.61806 0.50612 0.0
H1461 H 0.08586 0.76111 0.59154 0.0
H1462 H 0.09954 0.72249 0.57756 0.0
C1463 C 0.13156 0.59917 0.49231 0.0
C1464 C 0.11062 0.66042 0.50898 0.0
H1465 H 0.12409 0.71511 0.5315 0.0
C1466 C 0.0866 0.66026 0.515 0.0
C1467 C 0.12446 0.6801 0.51569 0.0
C1468 C 0.15055 0.68069 0.51064 0.0
C1469 C 0.07581 0.6798 0.52666 0.0
C1470 C 0.08944 0.69994 0.53217 0.0
C1471 C 0.11365 0.69967 0.5271 0.0
C1472 C 0.07891 0.72195 0.54211 0.0
C1473 C 0.04995 0.67877 0.53286 0.0
C1474 C 0.06258 0.73431 0.5269 0.0
C1475 C 0.0547 0.75643 0.53479 0.0
C1476 C 0.06315 0.76666 0.55798 0.0
C1477 C 0.07895 0.75382 0.57358 0.0
C1478 C 0.08683 0.73173 0.56564 0.0
H1479 H 0.04365 0.66036 0.53441 0.0
H1480 H 0.04599 0.68806 0.5514 0.0
H1481 H 0.03998 0.68745 0.51694 0.0
H1482 H 0.0566 0.72727 0.50842 0.0
H1483 H 0.04258 0.76579 0.52224 0.0
H1484 H 0.73476 0.04284 0.5259 0.0
H1485 H 0.77315 0.0572 0.51219 0.0
H1486 H 0.77536 0.10358 0.57868 0.0
H1487 H 0.73679 0.08957 0.59252 0.0
H1488 H 0.7834 0.12608 0.53173 0.0
H1489 H 0.83964 0.04707 0.54023 0.0
H1490 H 0.8131 0.04191 0.52222 0.0
H1491 H 0.81149 0.04947 0.55627 0.0
C1492 C 0.74352 0.05581 0.53792 0.0
C1493 C 0.73258 0.06509 0.56029 0.0
C1494 C 0.76558 0.06388 0.53011 0.0
C1495 C 0.7772 0.08126 0.54458 0.0
C1496 C 0.7667 0.09006 0.56733 0.0
H1497 H 0.91676 0.13428 0.50246 0.0
H1498 H 0.88358 0.11844 0.52726 0.0
C1499 C 0.74465 0.08199 0.5752 0.0
C1500 C 0.79917 0.0918 0.53455 0.0
H1501 H 0.85456 0.0785 0.51378 0.0
C1502 C 0.79907 0.11575 0.52813 0.0
C1503 C 0.81964 0.07833 0.53008 0.0
C1504 C 0.82113 0.05282 0.53779 0.0
C1505 C 0.81856 0.12639 0.51635 0.0
C1506 C 0.83854 0.11263 0.51059 0.0
C1507 C 0.83908 0.08892 0.51801 0.0
C1508 C 0.85859 0.12233 0.49577 0.0
C1509 C 0.81755 0.15222 0.5099 0.0
C1510 C 0.85548 0.1295 0.46982 0.0
C1511 C 0.87432 0.13848 0.45557 0.0
C1512 C 0.8967 0.14044 0.46701 0.0
C1513 C 0.89976 0.13313 0.49306 0.0
C1514 C 0.88087 0.12403 0.50726 0.0
H1515 H 0.80388 0.16142 0.5215 0.0
H1516 H 0.83476 0.16078 0.51353 0.0
H1517 H 0.8132 0.15438 0.48891 0.0
H1518 H 0.83847 0.12798 0.4605 0.0
H1519 H 0.87129 0.14386 0.43556 0.0
H1520 H 0.50388 0.8982 0.98177 0.0
H1521 H 0.51373 0.93709 0.99882 0.0
H1522 H 0.46051 0.96813 0.94988 0.0
H1523 H 0.45033 0.92935 0.93289 0.0
H1524 H 0.52804 0.97858 0.97292 0.0
H1525 H 0.44265 0.99005 0.02384 0.0
H1526 H 0.45249 0.962 0.01163 0.0
H1527 H 0.4404 0.98341 0.98965 0.0
C1528 C 0.49438 0.91331 0.97447 0.0
C1529 C 0.47616 0.91067 0.95617 0.0
C1530 C 0.50002 0.9355 0.98426 0.0
C1531 C 0.48751 0.95536 0.97598 0.0
C1532 C 0.47 0.95292 0.95693 0.0
H1533 H 0.49371 0.10315 0.01628 0.0
H1534 H 0.48351 0.06467 0.99826 0.0
C1535 C 0.46431 0.93076 0.94715 0.0
C1536 C 0.49261 0.97859 0.98754 0.0
H1537 H 0.46841 0.02271 0.02377 0.0
C1538 C 0.51505 0.98822 0.98411 0.0
C1539 C 0.47557 0.99106 0.0021 0.0
C1540 C 0.45148 0.98107 0.00728 0.0
C1541 C 0.52084 0.01023 0.99457 0.0
C1542 C 0.50383 0.02266 0.00919 0.0
C1543 C 0.48137 0.01308 0.01254 0.0
C1544 C 0.50911 0.04565 0.0212 0.0
C1545 C 0.54497 0.02019 0.98951 0.0
C1546 C 0.52637 0.04751 0.04061 0.0
C1547 C 0.53222 0.06941 0.05098 0.0
C1548 C 0.52081 0.08982 0.04216 0.0
C1549 C 0.50286 0.08777 0.02343 0.0
C1550 C 0.49703 0.06583 0.01309 0.0
H1551 H 0.5538 0.01128 0.97289 0.0
H1552 H 0.54401 0.03929 0.98529 0.0
H1553 H 0.55602 0.01773 0.00714 0.0
H1554 H 0.53553 0.03204 0.04751 0.0
H1555 H 0.546 0.07035 0.06552 0.0
H1556 H 0.39806 0.49404 0.01783 0.0
H1557 H 0.43674 0.48339 0.00077 0.0
H1558 H 0.46883 0.53609 0.04956 0.0
H1559 H 0.43036 0.54667 0.067 0.0
H1560 H 0.46696 0.51408 0.974 0.0
H1561 H 0.50945 0.47791 0.06291 0.0
H1562 H 0.47806 0.4817 0.06022 0.0
H1563 H 0.49661 0.50644 0.0672 0.0
C1564 C 0.41338 0.50312 0.02525 0.0
C1565 C 0.41114 0.52121 0.04377 0.0
C1566 C 0.43544 0.49706 0.01541 0.0
C1567 C 0.45562 0.50883 0.02408 0.0
C1568 C 0.45351 0.52653 0.04296 0.0
H1569 H 0.60308 0.50441 0.98223 0.0
H1570 H 0.56449 0.5153 0.99938 0.0
C1571 C 0.43148 0.53261 0.05281 0.0
C1572 C 0.4787 0.50358 0.01223 0.0
H1573 H 0.53414 0.4848 0.02634 0.0
C1574 C 0.48163 0.50755 0.98538 0.0
C1575 C 0.49779 0.49521 0.02721 0.0
C1576 C 0.49535 0.48985 0.05594 0.0
C1577 C 0.50331 0.50368 0.97313 0.0
C1578 C 0.52239 0.49529 0.98811 0.0
C1579 C 0.51947 0.49134 0.01497 0.0
C1580 C 0.54543 0.4899 0.97623 0.0
C1581 C 0.50574 0.50903 0.9444 0.0
C1582 C 0.54739 0.47213 0.95741 0.0
C1583 C 0.56936 0.46589 0.94752 0.0
C1584 C 0.58978 0.47722 0.95644 0.0
C1585 C 0.58769 0.49538 0.9749 0.0
C1586 C 0.56569 0.50159 0.98478 0.0
H1587 H 0.49169 0.52103 0.93745 0.0
H1588 H 0.52306 0.51711 0.9401 0.0
H1589 H 0.5044 0.49244 0.93314 0.0
H1590 H 0.532 0.46262 0.95089 0.0
H1591 H 0.57037 0.45179 0.93337 0.0
H1592 H 0.99414 0.60085 0.97913 0.0
H1593 H 0.98414 0.56211 0.99645 0.0
H1594 H 0.03725 0.53057 0.94779 0.0
H1595 H 0.04759 0.56922 0.93052 0.0
H1596 H 0.96977 0.5203 0.9711 0.0
H1597 H 0.05523 0.50951 0.02209 0.0
H1598 H 0.04533 0.53742 0.00952 0.0
H1599 H 0.05741 0.51579 0.9878 0.0
C1600 C 0.00358 0.58566 0.97193 0.0
C1601 C 0.02183 0.58814 0.95364 0.0
C1602 C 0.99784 0.56356 0.98188 0.0
C1603 C 0.01029 0.5436 0.97377 0.0
C1604 C 0.0278 0.54586 0.95469 0.0
H1605 H 0.00482 0.39643 0.01654 0.0
H1606 H 0.01467 0.43472 0.99787 0.0
C1607 C 0.03358 0.56794 0.94475 0.0
C1608 C 0.00521 0.52049 0.98566 0.0
H1609 H 0.02947 0.47688 0.02261 0.0
C1610 C 0.98277 0.51081 0.98242 0.0
C1611 C 0.02226 0.50823 0.00042 0.0
C1612 C 0.04636 0.51831 0.00542 0.0
C1613 C 0.977 0.48893 0.99325 0.0
C1614 C 0.99403 0.4767 0.00806 0.0
C1615 C 0.01649 0.48636 0.01124 0.0
C1616 C 0.98883 0.45382 0.02039 0.0
C1617 C 0.95288 0.47889 0.98836 0.0
C1618 C 0.97153 0.45206 0.03977 0.0
C1619 C 0.96588 0.43025 0.05051 0.0
C1620 C 0.97752 0.40983 0.04211 0.0
C1621 C 0.99548 0.4118 0.02339 0.0
C1622 C 0.00111 0.43364 0.01267 0.0
H1623 H 0.94404 0.48756 0.97159 0.0
H1624 H 0.95385 0.45973 0.98447 0.0
H1625 H 0.94183 0.48159 0.00595 0.0
H1626 H 0.96221 0.46754 0.04637 0.0
H1627 H 0.95207 0.42937 0.06502 0.0
H1628 H 0.10155 0.00407 0.01925 0.0
H1629 H 0.063 0.01473 0.00183 0.0
H1630 H 0.03047 0.96242 0.05078 0.0
H1631 H 0.06881 0.95183 0.06857 0.0
H1632 H 0.03272 0.98418 0.97506 0.0
H1633 H 0.99007 0.02078 0.06364 0.0
H1634 H 0.02144 0.0168 0.06113 0.0
H1635 H 0.00273 0.99218 0.06814 0.0
C1636 C 0.08617 0.99507 0.02662 0.0
C1637 C 0.08824 0.9771 0.04531 0.0
C1638 C 0.06418 0.00115 0.01658 0.0
C1639 C 0.04391 0.9895 0.02519 0.0
C1640 C 0.04587 0.9719 0.04422 0.0
H1641 H 0.89659 0.99381 0.98302 0.0
H1642 H 0.93519 0.98298 0.00016 0.0
C1643 C 0.06782 0.9658 0.05427 0.0
C1644 C 0.02088 0.99481 0.01322 0.0
H1645 H 0.96542 0.01369 0.02705 0.0
C1646 C 0.01802 0.99077 0.98636 0.0
C1647 C 0.00177 0.00326 0.02809 0.0
C1648 C 0.00413 0.00872 0.0568 0.0
C1649 C 0.99637 0.99463 0.97402 0.0
C1650 C 0.97725 0.00307 0.9889 0.0
C1651 C 0.98012 0.00711 0.01575 0.0
C1652 C 0.95422 0.00837 0.97695 0.0
C1653 C 0.99401 0.98922 0.9453 0.0
C1654 C 0.95222 0.0261 0.95807 0.0
C1655 C 0.93023 0.0323 0.94819 0.0
C1656 C 0.90983 0.02097 0.95716 0.0
C1657 C 0.91196 0.00283 0.97564 0.0
C1658 C 0.93398 0.99666 0.98553 0.0
H1659 H 0.00812 0.97725 0.93841 0.0
H1660 H 0.97673 0.98107 0.94099 0.0
H1661 H 0.9953 0.00579 0.934 0.0
H1662 H 0.9676 0.03561 0.95153 0.0
H1663 H 0.9292 0.04639 0.93403 0.0
H1664 H 0.45308 0.57112 0.5659 0.0
H1665 H 0.46355 0.53249 0.54875 0.0
H1666 H 0.51394 0.56451 0.49697 0.0
H1667 H 0.5038 0.60325 0.51417 0.0
H1668 H 0.45907 0.51852 0.49655 0.0
H1669 H 0.55132 0.51096 0.53063 0.0
H1670 H 0.53104 0.53214 0.54401 0.0
H1671 H 0.54491 0.53748 0.51306 0.0
C1672 C 0.46661 0.56996 0.5511 0.0
C1673 C 0.47761 0.59026 0.54138 0.0
C1674 C 0.47253 0.54787 0.5413 0.0
C1675 C 0.48963 0.54566 0.52177 0.0
C1676 C 0.50098 0.56582 0.51238 0.0
H1677 H 0.54415 0.42917 0.43173 0.0
H1678 H 0.53358 0.46792 0.44849 0.0
C1679 C 0.4951 0.58795 0.52218 0.0
C1680 C 0.49462 0.52239 0.51022 0.0
H1681 H 0.53808 0.4821 0.50064 0.0
C1682 C 0.4763 0.51048 0.49753 0.0
C1683 C 0.51714 0.51205 0.51149 0.0
C1684 C 0.53721 0.52368 0.52572 0.0
C1685 C 0.48001 0.48858 0.48569 0.0
C1686 C 0.50253 0.47824 0.48697 0.0
C1687 C 0.52085 0.49016 0.49964 0.0
C1688 C 0.5075 0.45491 0.47555 0.0
C1689 C 0.45994 0.47693 0.47149 0.0
C1690 C 0.49616 0.4348 0.4851 0.0
C1691 C 0.50209 0.41262 0.47553 0.0
C1692 C 0.51963 0.41018 0.4564 0.0
C1693 C 0.53059 0.43043 0.44648 0.0
C1694 C 0.52461 0.45259 0.45605 0.0
H1695 H 0.44584 0.48966 0.46652 0.0
H1696 H 0.46611 0.46841 0.45324 0.0
H1697 H 0.45221 0.46317 0.4842 0.0
H1698 H 0.48318 0.43621 0.50048 0.0
H1699 H 0.49343 0.39736 0.48368 0.0
H1700 H 0.10283 0.4938 0.48337 0.0
H1701 H 0.06404 0.4831 0.50014 0.0
H1702 H 0.03194 0.53385 0.44884 0.0
H1703 H 0.0705 0.54446 0.43171 0.0
H1704 H 0.03299 0.51413 0.5252 0.0
H1705 H 0.99231 0.4748 0.43694 0.0
H1706 H 0.02359 0.47908 0.44005 0.0
H1707 H 0.00485 0.50334 0.43172 0.0
C1708 C 0.08749 0.50242 0.47535 0.0
C1709 C 0.08974 0.51999 0.45621 0.0
C1710 C 0.06537 0.49634 0.48501 0.0
C1711 C 0.04516 0.50755 0.47555 0.0
C1712 C 0.0473 0.52471 0.45607 0.0
H1713 H 0.89712 0.50397 0.51448 0.0
H1714 H 0.93601 0.51437 0.49778 0.0
C1715 C 0.06938 0.53082 0.4464 0.0
C1716 C 0.02196 0.50237 0.48716 0.0
H1717 H 0.96686 0.48287 0.4726 0.0
C1718 C 0.01855 0.50715 0.51377 0.0
C1719 C 0.00318 0.49341 0.47211 0.0
C1720 C 0.00614 0.48714 0.44367 0.0
C1721 C 0.99667 0.50356 0.52569 0.0
C1722 C 0.97789 0.49464 0.51064 0.0
C1723 C 0.9813 0.48984 0.48403 0.0
C1724 C 0.95465 0.4896 0.5222 0.0
C1725 C 0.9937 0.50979 0.55414 0.0
C1726 C 0.95234 0.47236 0.54158 0.0
C1727 C 0.9302 0.46641 0.55119 0.0
C1728 C 0.90995 0.4775 0.54145 0.0
C1729 C 0.91237 0.49515 0.52244 0.0
C1730 C 0.93455 0.50107 0.51282 0.0
H1731 H 0.00766 0.52196 0.56098 0.0
H1732 H 0.97633 0.51804 0.55771 0.0
H1733 H 0.99476 0.49355 0.56605 0.0
H1734 H 0.96761 0.46305 0.54875 0.0
H1735 H 0.92894 0.4527 0.56579 0.0
H1736 H 0.04634 0.92904 0.56817 0.0
H1737 H 0.03572 0.96782 0.55149 0.0
H1738 H 0.98387 0.9363 0.50111 0.0
H1739 H 0.99416 0.89746 0.51785 0.0
H1740 H 0.03923 0.98172 0.49927 0.0
H1741 H 0.94775 0.99027 0.53543 0.0
H1742 H 0.96806 0.96888 0.54835 0.0
H1743 H 0.95343 0.96362 0.51781 0.0
C1744 C 0.03244 0.93036 0.55381 0.0
C1745 C 0.0211 0.91016 0.54432 0.0
C1746 C 0.02644 0.95253 0.54428 0.0
C1747 C 0.0089 0.95492 0.52525 0.0
C1748 C 0.99717 0.93487 0.51615 0.0
H1749 H 0.95358 0.06987 0.43383 0.0
H1750 H 0.96426 0.03153 0.45164 0.0
C1751 C 0.00314 0.91267 0.52567 0.0
C1752 C 0.00391 0.97821 0.51376 0.0
H1753 H 0.96046 0.01858 0.50441 0.0
C1754 C 0.02206 0.98988 0.50052 0.0
C1755 C 0.98146 0.9887 0.51536 0.0
C1756 C 0.96159 0.97736 0.5302 0.0
C1757 C 0.01825 0.01163 0.48838 0.0
C1758 C 0.99578 0.02207 0.48991 0.0
C1759 C 0.97765 0.01044 0.50322 0.0
C1760 C 0.99066 0.04515 0.47795 0.0
C1761 C 0.03811 0.02299 0.47354 0.0
C1762 C 0.00214 0.06546 0.48674 0.0
C1763 C 0.99614 0.08741 0.47656 0.0
C1764 C 0.97841 0.08941 0.45757 0.0
C1765 C 0.9673 0.06895 0.44845 0.0
C1766 C 0.97333 0.04703 0.45862 0.0
H1767 H 0.05217 0.01018 0.4687 0.0
H1768 H 0.03168 0.03108 0.45516 0.0
H1769 H 0.04597 0.03704 0.48573 0.0
H1770 H 0.01529 0.0644 0.50197 0.0
H1771 H 0.00493 0.10285 0.48411 0.0
H1772 H 0.5707 0.04695 0.56808 0.0
H1773 H 0.5322 0.03651 0.55061 0.0
H1774 H 0.56427 0.98444 0.50097 0.0
H1775 H 0.60298 0.99495 0.51807 0.0
H1776 H 0.53388 0.01536 0.47473 0.0
H1777 H 0.49173 0.97812 0.56328 0.0
H1778 H 0.50453 0.00663 0.56795 0.0
H1779 H 0.5231 0.98199 0.56053 0.0
C1780 C 0.56957 0.03306 0.55369 0.0
C1781 C 0.58991 0.02179 0.54444 0.0
C1782 C 0.54753 0.02704 0.54383 0.0
C1783 C 0.5454 0.00956 0.5247 0.0
C1784 C 0.56558 0.99793 0.51581 0.0
H1785 H 0.43015 0.95383 0.43357 0.0
H1786 H 0.46862 0.9643 0.45111 0.0
C1787 C 0.58766 0.00392 0.52566 0.0
C1788 C 0.52228 0.00441 0.51286 0.0
H1789 H 0.46687 0.98551 0.52695 0.0
C1790 C 0.51924 0.0087 0.48608 0.0
C1791 C 0.50324 0.99587 0.5278 0.0
C1792 C 0.50578 0.99017 0.55644 0.0
C1793 C 0.49751 0.005 0.47388 0.0
C1794 C 0.47847 0.99645 0.48882 0.0
C1795 C 0.48151 0.99218 0.5156 0.0
C1796 C 0.45537 0.99127 0.47697 0.0
C1797 C 0.49497 0.0107 0.44524 0.0
C1798 C 0.43517 0.0029 0.48581 0.0
C1799 C 0.41311 0.9969 0.47591 0.0
C1800 C 0.4109 0.97901 0.45714 0.0
C1801 C 0.43125 0.96774 0.44796 0.0
C1802 C 0.45328 0.97376 0.45786 0.0
H1803 H 0.50902 0.02276 0.4384 0.0
H1804 H 0.49622 0.99425 0.43373 0.0
H1805 H 0.47765 0.01887 0.44115 0.0
H1806 H 0.43646 0.01641 0.50063 0.0
H1807 H 0.39778 0.00588 0.48345 0.0
H1808 H 0.48782 0.28221 0.36187 0.0
H1809 H 0.47499 0.26274 0.32156 0.0
H1810 H 0.53605 0.28958 0.28162 0.0
H1811 H 0.54845 0.30955 0.32115 0.0
H1812 H 0.4976 0.29175 0.25112 0.0
H1813 H 0.50532 0.20296 0.29601 0.0
H1814 H 0.48478 0.22282 0.31087 0.0
H1815 H 0.51569 0.22901 0.31233 0.0
C1816 C 0.49835 0.28411 0.34439 0.0
C1817 C 0.51929 0.29721 0.34479 0.0
C1818 C 0.49106 0.27289 0.32143 0.0
C1819 C 0.50479 0.27435 0.2987 0.0
C1820 C 0.52516 0.28818 0.2989 0.0
H1821 H 0.55036 0.18947 0.17973 0.0
H1822 H 0.53765 0.20878 0.21957 0.0
C1823 C 0.53229 0.29955 0.32162 0.0
C1824 C 0.4992 0.26064 0.27488 0.0
H1825 H 0.50002 0.20475 0.25088 0.0
C1826 C 0.49768 0.2727 0.25102 0.0
C1827 C 0.49928 0.23579 0.2749 0.0
C1828 C 0.5015 0.22179 0.29981 0.0
C1829 C 0.49821 0.26071 0.2271 0.0
C1830 C 0.49952 0.23589 0.2271 0.0
C1831 C 0.49905 0.22377 0.25098 0.0
C1832 C 0.50541 0.2225 0.20315 0.0
C1833 C 0.49927 0.27482 0.20216 0.0
C1834 C 0.49126 0.22331 0.18069 0.0
C1835 C 0.49872 0.21251 0.15756 0.0
C1836 C 0.52025 0.20043 0.15672 0.0
C1837 C 0.53372 0.19868 0.17962 0.0
C1838 C 0.52642 0.20967 0.20251 0.0
H1839 H 0.50221 0.29381 0.20592 0.0
H1840 H 0.51357 0.26833 0.18932 0.0
H1841 H 0.48242 0.27297 0.19149 0.0
H1842 H 0.4747 0.23265 0.18091 0.0
H1843 H 0.48783 0.21391 0.14029 0.0
H1844 H 0.21778 0.48967 0.36086 0.0
H1845 H 0.23717 0.47719 0.32037 0.0
H1846 H 0.20868 0.53758 0.28057 0.0
H1847 H 0.1888 0.54964 0.3203 0.0
H1848 H 0.20725 0.49896 0.25012 0.0
H1849 H 0.29604 0.50908 0.29444 0.0
H1850 H 0.27678 0.48809 0.30948 0.0
H1851 H 0.26982 0.51883 0.31087 0.0
C1852 C 0.2155 0.50012 0.34338 0.0
C1853 C 0.20198 0.52079 0.34388 0.0
C1854 C 0.22666 0.49302 0.32031 0.0
C1855 C 0.22472 0.50669 0.29758 0.0
C1856 C 0.21045 0.52675 0.29787 0.0
H1857 H 0.30806 0.55398 0.17794 0.0
H1858 H 0.28877 0.54122 0.21779 0.0
C1859 C 0.19914 0.53369 0.32069 0.0
C1860 C 0.23843 0.50141 0.27368 0.0
H1861 H 0.29415 0.50371 0.24933 0.0
C1862 C 0.22629 0.49953 0.2499 0.0
C1863 C 0.26327 0.50216 0.27354 0.0
C1864 C 0.27734 0.5048 0.29836 0.0
C1865 C 0.23815 0.50033 0.2259 0.0
C1866 C 0.26291 0.50232 0.22576 0.0
C1867 C 0.27516 0.50222 0.24955 0.0
C1868 C 0.27604 0.50845 0.2017 0.0
C1869 C 0.22391 0.50092 0.20104 0.0
C1870 C 0.27567 0.49407 0.17943 0.0
C1871 C 0.28647 0.50154 0.15629 0.0
C1872 C 0.29808 0.52332 0.15528 0.0
C1873 C 0.29924 0.53713 0.17798 0.0
C1874 C 0.28827 0.52981 0.20086 0.0
H1875 H 0.20486 0.50331 0.20488 0.0
H1876 H 0.22993 0.51537 0.18811 0.0
H1877 H 0.22622 0.48411 0.19041 0.0
H1878 H 0.26678 0.47728 0.1798 0.0
H1879 H 0.28553 0.49039 0.13919 0.0
H1880 H 0.94937 0.31122 0.18047 0.0
H1881 H 0.96216 0.29187 0.22023 0.0
H1882 H 0.02185 0.2629 0.17959 0.0
H1883 H 0.00869 0.28183 0.13913 0.0
H1884 H 0.00018 0.22993 0.20613 0.0
H1885 H 0.01234 0.30477 0.27251 0.0
H1886 H 0.98389 0.30687 0.25782 0.0
H1887 H 0.0098 0.30857 0.23761 0.0
C1888 C 0.96543 0.30105 0.17997 0.0
C1889 C 0.97798 0.29803 0.15658 0.0
C1890 C 0.97288 0.29016 0.20287 0.0
C1891 C 0.99328 0.27634 0.20311 0.0
C1892 C 0.00618 0.27368 0.17993 0.0
H1893 H 0.00906 0.21677 0.36046 0.0
H1894 H 0.0221 0.23551 0.31987 0.0
C1895 C 0.99862 0.28447 0.15684 0.0
C1896 C 0.99934 0.26284 0.22695 0.0
H1897 H -8e-05 0.26791 0.29328 0.0
C1898 C 0.00075 0.23828 0.22516 0.0
C1899 C 0.00084 0.27363 0.25178 0.0
C1900 C 0.00192 0.29994 0.25497 0.0
C1901 C 0.00129 0.22422 0.24763 0.0
C1902 C -0.00035 0.23498 0.27247 0.0
C1903 C 0.00061 0.25956 0.27426 0.0
C1904 C 0.99385 0.2214 0.29634 0.0
C1905 C 0.00285 0.19794 0.24444 0.0
C1906 C 0.97372 0.2072 0.29661 0.0
C1907 C 0.96635 0.1964 0.3196 0.0
C1908 C 0.9787 0.1999 0.34304 0.0
C1909 C 0.99915 0.21375 0.34273 0.0
C1910 C 0.00664 0.22445 0.31956 0.0
H1911 H 0.01338 0.19331 0.22692 0.0
H1912 H 0.01086 0.18944 0.26181 0.0
H1913 H 0.98496 0.19068 0.24154 0.0
H1914 H 0.96309 0.20517 0.27922 0.0
H1915 H 0.95045 0.18598 0.31913 0.0
H1916 H 0.3122 0.94857 0.32098 0.0
H1917 H 0.29294 0.96086 0.28097 0.0
H1918 H 0.2628 0.02033 0.32097 0.0
H1919 H 0.28164 0.00766 0.36168 0.0
H1920 H 0.23034 0.99786 0.29436 0.0
H1921 H 0.30534 0.01099 0.22843 0.0
H1922 H 0.30786 0.98268 0.24337 0.0
H1923 H 0.30897 0.00874 0.26338 0.0
C1924 C 0.30178 0.96448 0.3213 0.0
C1925 C 0.29841 0.9771 0.34458 0.0
C1926 C 0.29095 0.97165 0.29825 0.0
C1927 C 0.27684 0.99183 0.29776 0.0
C1928 C 0.27382 0.00482 0.32083 0.0
H1929 H 0.21717 0.00616 0.14013 0.0
H1930 H 0.23593 0.01942 0.18065 0.0
C1931 C 0.28456 0.99755 0.34407 0.0
C1932 C 0.26337 0.99753 0.27379 0.0
H1933 H 0.26882 0.9978 0.20749 0.0
C1934 C 0.23879 0.99848 0.27539 0.0
C1935 C 0.27429 0.99907 0.24902 0.0
C1936 C 0.30059 0.0006 0.24602 0.0
C1937 C 0.22485 0.99861 0.25282 0.0
C1938 C 0.23579 0.99702 0.22807 0.0
C1939 C 0.26035 0.99844 0.22645 0.0
C1940 C 0.22244 0.99087 0.20417 0.0
C1941 C 0.19852 -0.00034 0.2558 0.0
C1942 C 0.20867 0.97044 0.20391 0.0
C1943 C 0.19789 0.96293 0.18097 0.0
C1944 C 0.20096 0.97546 0.15757 0.0
C1945 C 0.21449 0.99611 0.15784 0.0
C1946 C 0.22518 0.00373 0.18096 0.0
H1947 H 0.19357 0.01011 0.27328 0.0
H1948 H 0.18999 0.00749 0.23836 0.0
H1949 H 0.1916 0.98163 0.25865 0.0
H1950 H 0.20691 0.95975 0.22129 0.0
H1951 H 0.18773 0.94686 0.18146 0.0
H1952 H 0.4478 0.81072 0.81999 0.0
H1953 H 0.46014 0.79133 0.78005 0.0
H1954 H 0.52344 0.76754 0.81803 0.0
H1955 H 0.51071 0.78635 0.85874 0.0
H1956 H 0.49748 0.79499 0.74818 0.0
H1957 H 0.49531 0.7063 0.79398 0.0
H1958 H 0.48421 0.73195 0.81045 0.0
H1959 H 0.51531 0.72712 0.80803 0.0
C1960 C 0.46445 0.80153 0.81992 0.0
C1961 C 0.47812 0.7998 0.84268 0.0
C1962 C 0.47153 0.7905 0.79697 0.0
C1963 C 0.49252 0.77763 0.79614 0.0
C1964 C 0.5069 0.7769 0.81841 0.0
H1965 H 0.51001 0.71693 0.63794 0.0
H1966 H 0.52259 0.73662 0.6782 0.0
C1967 C 0.49966 0.78775 0.8416 0.0
C1968 C 0.4981 0.76403 0.77223 0.0
H1969 H 0.49982 0.70799 0.74872 0.0
C1970 C 0.49843 0.77597 0.74825 0.0
C1971 C 0.49934 0.73921 0.77246 0.0
C1972 C 0.49838 0.72529 0.79753 0.0
C1973 C 0.49808 0.76377 0.72444 0.0
C1974 C 0.49818 0.73892 0.72469 0.0
C1975 C 0.49974 0.72704 0.74865 0.0
C1976 C 0.49273 0.72503 0.70096 0.0
C1977 C 0.49575 0.77759 0.69941 0.0
C1978 C 0.47242 0.7111 0.70075 0.0
C1979 C 0.46544 0.69959 0.67806 0.0
C1980 C 0.47852 0.70189 0.65493 0.0
C1981 C 0.49942 0.71505 0.65538 0.0
C1982 C 0.50656 0.72641 0.67831 0.0
H1983 H 0.4918 0.79641 0.70306 0.0
H1984 H 0.51248 0.77661 0.68837 0.0
H1985 H 0.48162 0.77019 0.68696 0.0
H1986 H 0.46147 0.70975 0.71799 0.0
H1987 H 0.4493 0.68954 0.67848 0.0
H1988 H 0.81006 0.44691 0.67705 0.0
H1989 H 0.79012 0.45869 0.71686 0.0
H1990 H 0.76319 0.52034 0.67814 0.0
H1991 H 0.78262 0.50818 0.63756 0.0
H1992 H 0.79234 0.49676 0.74804 0.0
H1993 H 0.70349 0.48949 0.70329 0.0
H1994 H 0.72952 0.47935 0.68678 0.0
H1995 H 0.72323 0.51022 0.6886 0.0
C1996 C 0.80004 0.46308 0.67692 0.0
C1997 C 0.79767 0.47645 0.654 0.0
C1998 C 0.78869 0.46984 0.69979 0.0
C1999 C 0.77484 0.49019 0.7004 0.0
C2000 C 0.77335 0.50428 0.67794 0.0
H2001 H 0.71467 0.50793 0.85879 0.0
H2002 H 0.73355 0.52041 0.81802 0.0
C2003 C 0.78455 0.49737 0.65483 0.0
C2004 C 0.76119 0.49546 0.72434 0.0
H2005 H 0.70533 0.49481 0.74845 0.0
C2006 C 0.7733 0.49677 0.74818 0.0
C2007 C 0.73634 0.49545 0.72437 0.0
C2008 C 0.72229 0.4934 0.69947 0.0
C2009 C 0.76134 0.49625 0.77212 0.0
C2010 C 0.73651 0.49513 0.77216 0.0
C2011 C 0.72436 0.49567 0.74831 0.0
C2012 C 0.72309 0.48957 0.79619 0.0
C2013 C 0.77547 0.49505 0.79703 0.0
C2014 C 0.71007 0.46869 0.7971 0.0
C2015 C 0.69901 0.46174 0.82009 0.0
C2016 C 0.70087 0.47545 0.8428 0.0
C2017 C 0.71317 0.49685 0.84167 0.0
C2018 C 0.72405 0.50395 0.81845 0.0
H2019 H 0.79441 0.49186 0.79325 0.0
H2020 H 0.77386 0.51195 0.80765 0.0
H2021 H 0.76882 0.48087 0.80994 0.0
H2022 H 0.70907 0.45731 0.78018 0.0
H2023 H 0.68964 0.44519 0.82021 0.0
H2024 H 0.98957 0.78034 0.63725 0.0
H2025 H 0.97611 0.76143 0.67758 0.0
H2026 H 0.03427 0.79222 0.71932 0.0
H2027 H 0.04733 0.81155 0.67968 0.0
H2028 H 0.99829 0.72916 0.70457 0.0
H2029 H 0.98304 0.80357 0.7707 0.0
H2030 H 0.98596 0.80747 0.73585 0.0
H2031 H 0.01161 0.80657 0.75653 0.0
C2032 C 0.9992 0.78342 0.65517 0.0
C2033 C 0.01954 0.79743 0.65524 0.0
C2034 C 0.99147 0.77263 0.67819 0.0
C2035 C 0.0039 0.77575 0.70163 0.0
C2036 C 0.02391 0.79012 0.70174 0.0
H2037 H 0.04879 0.68697 0.81783 0.0
H2038 H 0.03564 0.70569 0.77785 0.0
C2039 C 0.03153 0.801 0.6789 0.0
C2040 C 0.99789 0.76209 0.72538 0.0
H2041 H 0.99658 0.76714 0.79169 0.0
C2042 C 0.99727 0.7375 0.72358 0.0
C2043 C 0.99581 0.77283 0.75019 0.0
C2044 C 0.99386 0.79908 0.75335 0.0
C2045 C 0.997 0.72342 0.74605 0.0
C2046 C 0.99811 0.73424 0.7709 0.0
C2047 C 0.9963 0.75877 0.77267 0.0
C2048 C 0.00427 0.72085 0.7948 0.0
C2049 C 0.99632 0.69711 0.74285 0.0
C2050 C 0.9913 0.72347 0.81796 0.0
C2051 C 0.99907 0.71306 0.84118 0.0
C2052 C 0.01999 0.69992 0.8416 0.0
C2053 C 0.03253 0.69684 0.81822 0.0
C2054 C 0.02488 0.70736 0.79518 0.0
H2055 H 0.98603 0.69214 0.72527 0.0
H2056 H 0.01446 0.69045 0.74005 0.0
H2057 H 0.98852 0.68834 0.76017 0.0
H2058 H 0.97546 0.734 0.81819 0.0
H2059 H 0.989 0.71574 0.85887 0.0
H2060 H 0.7187 0.99132 0.63956 0.0
H2061 H 0.73736 0.97811 0.68015 0.0
H2062 H 0.70731 0.03722 0.72088 0.0
H2063 H 0.68822 0.05004 0.68099 0.0
H2064 H 0.76982 -1e-05 0.70718 0.0
H2065 H 0.69463 0.9867 0.77275 0.0
H2066 H 0.69105 0.98937 0.73784 0.0
H2067 H 0.69229 0.01519 0.75822 0.0
C2068 C 0.71575 0.00123 0.6573 0.0
C2069 C 0.70198 0.02173 0.65703 0.0
C2070 C 0.72639 0.99365 0.68048 0.0
C2071 C 0.72336 0.00639 0.70372 0.0
C2072 C 0.70931 0.02662 0.70347 0.0
H2073 H 0.81231 0.05 0.82069 0.0
H2074 H 0.79353 0.03723 0.78058 0.0
C2075 C 0.69857 0.03409 0.68048 0.0
C2076 C 0.73675 0.00037 0.72767 0.0
H2077 H 0.73116 0.99957 0.79394 0.0
C2078 C 0.76133 0.99926 0.72612 0.0
C2079 C 0.72578 0.99868 0.75239 0.0
C2080 C 0.69946 0.99726 0.75532 0.0
C2081 C 0.77522 0.99885 0.74873 0.0
C2082 C 0.76424 0.0003 0.77347 0.0
C2083 C 0.73967 0.99903 0.775 0.0
C2084 C 0.77757 0.00623 0.79747 0.0
C2085 C 0.80155 0.99761 0.74579 0.0
C2086 C 0.77452 0.99336 0.82063 0.0
C2087 C 0.78497 0.00092 0.84391 0.0
C2088 C 0.79859 0.02152 0.8444 0.0
C2089 C 0.80208 0.03398 0.82103 0.0
C2090 C 0.79152 0.02653 0.79792 0.0
H2091 H 0.80644 0.98718 0.72829 0.0
H2092 H 0.8086 0.0156 0.74301 0.0
H2093 H 0.81 0.98967 0.76322 0.0
H2094 H 0.76365 0.97775 0.8208 0.0
H2095 H 0.78197 0.99092 0.86159 0.0
loop_
_geom_bond_atom_site_label_1
_geom_bond_atom_site_label_2
_geom_bond_distance
_geom_bond_site_symmetry_2
_ccdc_geom_bond_type
Co0 O2 2.143 . S
Co0 O8 2.074 . S
Co0 O11 2.093 . S
Co0 O24 2.097 . S
Co0 N41 2.151 . S
Co0 N49 2.214 . S
Co1 O2 2.160 . S
Co1 O7 2.058 . S
Co1 O17 2.057 . S
Co1 O32 2.037 . S
Co1 N36 2.145 1_554 S
Co1 N57 2.257 . S
O2 Co0 2.143 . S
O2 Co1 2.160 . S
C3 O4 1.278 . S
C3 O11 1.224 . S
O4 C3 1.278 . S
C5 O6 1.245 . S
C5 O17 1.232 . S
O6 C5 1.245 . S
O7 Co1 2.058 . S
O7 C33 1.269 . S
O8 Co0 2.074 . S
O8 C33 1.257 . S
H9 C34 0.930 . S
H10 C40 0.930 . S
O11 Co0 2.093 . S
O11 C3 1.224 . S
H12 C44 0.929 . S
H13 C46 0.930 . S
H14 C47 0.930 . S
H15 C45 0.929 . S
H16 C48 0.928 . S
O17 Co1 2.057 . S
O17 C5 1.232 . S
H18 C37 0.929 . S
H19 C38 0.929 . S
H20 C50 0.931 . S
H21 C42 0.929 . S
H22 C51 0.930 . S
H23 C43 0.931 . S
O24 Co0 2.097 . S
O24 C52 1.214 . S
H25 C53 0.929 . S
H26 C54 0.929 . S
H27 C55 0.930 . S
H28 C56 0.929 . S
H29 C58 0.930 . S
H30 C35 0.930 . S
H31 C39 0.930 . S
O32 Co1 2.037 . S
O32 C52 1.234 . S
C33 O7 1.269 . S
C33 O8 1.257 . S
C34 H9 0.930 . S
C34 C37 1.388 . S
C34 C39 1.418 . S
C35 H30 0.930 . S
C35 C38 1.404 . S
C35 C39 1.353 . S
N36 Co1 2.145 1_556 S
N36 C37 1.397 . S
N36 C38 1.334 . S
C37 H18 0.929 . S
C37 C34 1.388 . S
C37 N36 1.397 . S
C38 H19 0.929 . S
C38 C35 1.404 . S
C38 N36 1.334 . S
C39 H31 0.930 . S
C39 C34 1.418 . S
C39 C35 1.353 . S
C40 H10 0.930 . S
C40 N41 1.330 . S
C40 C42 1.446 . S
N41 Co0 2.151 . S
N41 C40 1.330 . S
N41 C45 1.418 . S
C42 H21 0.929 . S
C42 C40 1.446 . S
C42 C43 1.332 . S
C43 H23 0.931 . S
C43 C42 1.332 . S
C43 C44 1.267 . S
C44 H12 0.929 . S
C44 C43 1.267 . S
C44 C45 1.251 . S
C45 H15 0.929 . S
C45 N41 1.418 . S
C45 C44 1.251 . S
C46 H13 0.930 . S
C46 C48 1.406 . S
C46 C51 1.261 . S
C47 H14 0.930 . S
C47 N49 1.325 . S
C47 C50 1.357 . S
C48 H16 0.928 . S
C48 C46 1.406 . S
C48 N49 1.261 . S
N49 Co0 2.214 . S
N49 C47 1.325 . S
N49 C48 1.261 . S
C50 H20 0.931 . S
C50 C47 1.357 . S
C50 C51 1.312 . S
C51 H22 0.930 . S
C51 C46 1.261 . S
C51 C50 1.312 . S
C52 O24 1.214 . S
C52 O32 1.234 . S
C53 H25 0.929 . S
C53 C56 1.391 . S
C53 C58 1.391 . S
C54 H26 0.929 . S
C54 C55 1.390 . S
C54 N57 1.391 . S
C55 H27 0.930 . S
C55 C54 1.390 . S
C55 C56 1.392 . S
C56 H28 0.929 . S
C56 C53 1.391 . S
C56 C55 1.392 . S
N57 Co1 2.257 . S
N57 C54 1.391 . S
N57 C58 1.388 . S
C58 H29 0.930 . S
C58 C53 1.391 . S
C58 N57 1.388 . S
Co59 O61 2.143 . S
Co59 O67 2.074 . S
Co59 O70 2.093 . S
Co59 O83 2.097 . S
Co59 N100 2.151 . S
Co59 N108 2.214 . S
Co60 O61 2.160 . S
Co60 O66 2.058 . S
Co60 O76 2.057 . S
Co60 O91 2.037 . S
Co60 N95 2.145 1_554 S
Co60 N116 2.257 . S
O61 Co59 2.143 . S
O61 Co60 2.160 . S
C62 O63 1.278 . S
C62 O70 1.224 . S
O63 C62 1.278 . S
C64 O65 1.245 . S
C64 O76 1.232 . S
O65 C64 1.245 . S
O66 Co60 2.058 . S
O66 C92 1.269 . S
O67 Co59 2.074 . S
O67 C92 1.257 . S
H68 C93 0.930 . S
H69 C99 0.930 . S
O70 Co59 2.093 . S
O70 C62 1.224 . S
H71 C103 0.929 . S
H72 C105 0.930 . S
H73 C106 0.930 . S
H74 C104 0.929 . S
H75 C107 0.928 . S
O76 Co60 2.057 . S
O76 C64 1.232 . S
H77 C96 0.929 . S
H78 C97 0.929 . S
H79 C109 0.931 . S
H80 C101 0.929 . S
H81 C110 0.930 . S
H82 C102 0.931 . S
O83 Co59 2.097 . S
O83 C111 1.214 . S
H84 C112 0.929 . S
H85 C113 0.929 . S
H86 C114 0.930 . S
H87 C115 0.929 . S
H88 C117 0.930 . S
H89 C94 0.930 . S
H90 C98 0.930 . S
O91 Co60 2.037 . S
O91 C111 1.234 . S
C92 O66 1.269 . S
C92 O67 1.257 . S
C93 H68 0.930 . S
C93 C96 1.388 . S
C93 C98 1.418 . S
C94 H89 0.930 . S
C94 C97 1.404 . S
C94 C98 1.353 . S
N95 Co60 2.145 1_556 S
N95 C96 1.397 . S
N95 C97 1.334 . S
C96 H77 0.929 . S
C96 C93 1.388 . S
C96 N95 1.397 . S
C97 H78 0.929 . S
C97 C94 1.404 . S
C97 N95 1.334 . S
C98 H90 0.930 . S
C98 C93 1.418 . S
C98 C94 1.353 . S
C99 H69 0.930 . S
C99 N100 1.330 . S
C99 C101 1.446 . S
N100 Co59 2.151 . S
N100 C99 1.330 . S
N100 C104 1.418 . S
C101 H80 0.929 . S
C101 C99 1.446 . S
C101 C102 1.332 . S
C102 H82 0.931 . S
C102 C101 1.332 . S
C102 C103 1.267 . S
C103 H71 0.929 . S
C103 C102 1.267 . S
C103 C104 1.251 . S
C104 H74 0.929 . S
C104 N100 1.418 . S
C104 C103 1.251 . S
C105 H72 0.930 . S
C105 C107 1.406 . S
C105 C110 1.261 . S
C106 H73 0.930 . S
C106 N108 1.325 . S
C106 C109 1.357 . S
C107 H75 0.928 . S
C107 C105 1.406 . S
C107 N108 1.261 . S
N108 Co59 2.214 . S
N108 C106 1.325 . S
N108 C107 1.261 . S
C109 H79 0.931 . S
C109 C106 1.357 . S
C109 C110 1.312 . S
C110 H81 0.930 . S
C110 C105 1.261 . S
C110 C109 1.312 . S
C111 O83 1.214 . S
C111 O91 1.234 . S
C112 H84 0.929 . S
C112 C115 1.391 . S
C112 C117 1.391 . S
C113 H85 0.929 . S
C113 C114 1.390 . S
C113 N116 1.391 . S
C114 H86 0.930 . S
C114 C113 1.390 . S
C114 C115 1.392 . S
C115 H87 0.929 . S
C115 C112 1.391 . S
C115 C114 1.392 . S
N116 Co60 2.257 . S
N116 C113 1.391 . S
N116 C117 1.388 . S
C117 H88 0.930 . S
C117 C112 1.391 . S
C117 N116 1.388 . S
Co118 O120 2.143 . S
Co118 O126 2.074 . S
Co118 O129 2.093 . S
Co118 O142 2.097 . S
Co118 N159 2.151 . S
Co118 N167 2.214 . S
Co119 O120 2.160 . S
Co119 O125 2.058 . S
Co119 O135 2.057 . S
Co119 O150 2.037 . S
Co119 N154 2.145 1_554 S
Co119 N175 2.257 . S
O120 Co118 2.143 . S
O120 Co119 2.160 . S
C121 O122 1.278 . S
C121 O129 1.224 . S
O122 C121 1.278 . S
C123 O124 1.245 . S
C123 O135 1.232 . S
O124 C123 1.245 . S
O125 Co119 2.058 . S
O125 C151 1.269 . S
O126 Co118 2.074 . S
O126 C151 1.257 . S
H127 C152 0.930 . S
H128 C158 0.930 . S
O129 Co118 2.093 . S
O129 C121 1.224 . S
H130 C162 0.929 . S
H131 C164 0.930 . S
H132 C165 0.930 . S
H133 C163 0.929 . S
H134 C166 0.928 . S
O135 Co119 2.057 . S
O135 C123 1.232 . S
H136 C155 0.929 . S
H137 C156 0.929 . S
H138 C168 0.931 . S
H139 C160 0.929 . S
H140 C169 0.930 . S
H141 C161 0.931 . S
O142 Co118 2.097 . S
O142 C170 1.214 . S
H143 C171 0.929 . S
H144 C172 0.929 . S
H145 C173 0.930 . S
H146 C174 0.929 . S
H147 C176 0.930 . S
H148 C153 0.930 . S
H149 C157 0.930 . S
O150 Co119 2.037 . S
O150 C170 1.234 . S
C151 O125 1.269 . S
C151 O126 1.257 . S
C152 H127 0.930 . S
C152 C155 1.388 . S
C152 C157 1.418 . S
C153 H148 0.930 . S
C153 C156 1.404 . S
C153 C157 1.353 . S
N154 Co119 2.145 1_556 S
N154 C155 1.397 . S
N154 C156 1.334 . S
C155 H136 0.929 . S
C155 C152 1.388 . S
C155 N154 1.397 . S
C156 H137 0.929 . S
C156 C153 1.404 . S
C156 N154 1.334 . S
C157 H149 0.930 . S
C157 C152 1.418 . S
C157 C153 1.353 . S
C158 H128 0.930 . S
C158 N159 1.330 . S
C158 C160 1.446 . S
N159 Co118 2.151 . S
N159 C158 1.330 . S
N159 C163 1.418 . S
C160 H139 0.929 . S
C160 C158 1.446 . S
C160 C161 1.332 . S
C161 H141 0.931 . S
C161 C160 1.332 . S
C161 C162 1.267 . S
C162 H130 0.929 . S
C162 C161 1.267 . S
C162 C163 1.251 . S
C163 H133 0.929 . S
C163 N159 1.418 . S
C163 C162 1.251 . S
C164 H131 0.930 . S
C164 C166 1.406 . S
C164 C169 1.261 . S
C165 H132 0.930 . S
C165 N167 1.325 . S
C165 C168 1.357 . S
C166 H134 0.928 . S
C166 C164 1.406 . S
C166 N167 1.261 . S
N167 Co118 2.214 . S
N167 C165 1.325 . S
N167 C166 1.261 . S
C168 H138 0.931 . S
C168 C165 1.357 . S
C168 C169 1.312 . S
C169 H140 0.930 . S
C169 C164 1.261 . S
C169 C168 1.312 . S
C170 O142 1.214 . S
C170 O150 1.234 . S
C171 H143 0.929 . S
C171 C174 1.391 . S
C171 C176 1.391 . S
C172 H144 0.929 . S
C172 C173 1.390 1_655 S
C172 N175 1.391 . S
C173 H145 0.930 . S
C173 C172 1.390 1_455 S
C173 C174 1.392 . S
C174 H146 0.929 . S
C174 C171 1.391 . S
C174 C173 1.392 . S
N175 Co119 2.257 . S
N175 C172 1.391 . S
N175 C176 1.388 1_655 S
C176 H147 0.930 . S
C176 C171 1.391 . S
C176 N175 1.388 1_455 S
Co177 O179 2.143 . S
Co177 O185 2.074 . S
Co177 O188 2.093 . S
Co177 O201 2.097 . S
Co177 N218 2.151 . S
Co177 N226 2.214 . S
Co178 O179 2.160 . S
Co178 O184 2.058 . S
Co178 O194 2.057 . S
Co178 O209 2.037 . S
Co178 N213 2.145 1_554 S
Co178 N234 2.257 . S
O179 Co177 2.143 . S
O179 Co178 2.160 . S
C180 O181 1.278 . S
C180 O188 1.224 . S
O181 C180 1.278 . S
C182 O183 1.245 . S
C182 O194 1.232 . S
O183 C182 1.245 . S
O184 Co178 2.058 . S
O184 C210 1.269 . S
O185 Co177 2.074 . S
O185 C210 1.257 . S
H186 C211 0.930 . S
H187 C217 0.930 . S
O188 Co177 2.093 . S
O188 C180 1.224 . S
H189 C221 0.929 . S
H190 C223 0.930 . S
H191 C224 0.930 . S
H192 C222 0.929 . S
H193 C225 0.928 . S
O194 Co178 2.057 . S
O194 C182 1.232 . S
H195 C214 0.929 . S
H196 C215 0.929 . S
H197 C227 0.931 . S
H198 C219 0.929 . S
H199 C228 0.930 . S
H200 C220 0.931 . S
O201 Co177 2.097 . S
O201 C229 1.214 . S
H202 C230 0.929 . S
H203 C231 0.929 . S
H204 C232 0.930 . S
H205 C233 0.929 . S
H206 C235 0.930 . S
H207 C212 0.930 . S
H208 C216 0.930 . S
O209 Co178 2.037 . S
O209 C229 1.234 . S
C210 O184 1.269 . S
C210 O185 1.257 . S
C211 H186 0.930 . S
C211 C214 1.388 . S
C211 C216 1.418 . S
C212 H207 0.930 . S
C212 C215 1.404 . S
C212 C216 1.353 . S
N213 Co178 2.145 1_556 S
N213 C214 1.397 . S
N213 C215 1.334 . S
C214 H195 0.929 . S
C214 C211 1.388 . S
C214 N213 1.397 . S
C215 H196 0.929 . S
C215 C212 1.404 . S
C215 N213 1.334 . S
C216 H208 0.930 . S
C216 C211 1.418 . S
C216 C212 1.353 . S
C217 H187 0.930 . S
C217 N218 1.330 . S
C217 C219 1.446 . S
N218 Co177 2.151 . S
N218 C217 1.330 . S
N218 C222 1.418 . S
C219 H198 0.929 . S
C219 C217 1.446 . S
C219 C220 1.332 . S
C220 H200 0.931 . S
C220 C219 1.332 . S
C220 C221 1.267 . S
C221 H189 0.929 . S
C221 C220 1.267 . S
C221 C222 1.251 . S
C222 H192 0.929 . S
C222 N218 1.418 . S
C222 C221 1.251 . S
C223 H190 0.930 . S
C223 C225 1.406 . S
C223 C228 1.261 . S
C224 H191 0.930 . S
C224 N226 1.325 . S
C224 C227 1.357 . S
C225 H193 0.928 . S
C225 C223 1.406 . S
C225 N226 1.261 . S
N226 Co177 2.214 . S
N226 C224 1.325 . S
N226 C225 1.261 . S
C227 H197 0.931 . S
C227 C224 1.357 . S
C227 C228 1.312 . S
C228 H199 0.930 . S
C228 C223 1.261 . S
C228 C227 1.312 . S
C229 O201 1.214 . S
C229 O209 1.234 . S
C230 H202 0.929 . S
C230 C233 1.391 . S
C230 C235 1.391 . S
C231 H203 0.929 . S
C231 C232 1.390 1_565 S
C231 N234 1.391 . S
C232 H204 0.930 . S
C232 C231 1.390 1_545 S
C232 C233 1.392 . S
C233 H205 0.929 . S
C233 C230 1.391 . S
C233 C232 1.392 . S
N234 Co178 2.257 . S
N234 C231 1.391 . S
N234 C235 1.388 1_565 S
C235 H206 0.930 . S
C235 C230 1.391 . S
C235 N234 1.388 1_545 S
Co236 O238 2.143 . S
Co236 O244 2.074 . S
Co236 O247 2.093 . S
Co236 O260 2.097 . S
Co236 N277 2.151 . S
Co236 N285 2.214 . S
Co237 O238 2.160 . S
Co237 O243 2.058 . S
Co237 O253 2.057 . S
Co237 O268 2.037 . S
Co237 N272 2.145 . S
Co237 N293 2.257 . S
O238 Co236 2.143 . S
O238 Co237 2.160 . S
C239 O240 1.278 . S
C239 O247 1.224 . S
O240 C239 1.278 . S
C241 O242 1.245 . S
C241 O253 1.232 . S
O242 C241 1.245 . S
O243 Co237 2.058 . S
O243 C269 1.269 . S
O244 Co236 2.074 . S
O244 C269 1.257 . S
H245 C270 0.930 . S
H246 C276 0.930 . S
O247 Co236 2.093 . S
O247 C239 1.224 . S
H248 C280 0.929 . S
H249 C282 0.930 . S
H250 C283 0.930 . S
H251 C281 0.929 . S
H252 C284 0.928 . S
O253 Co237 2.057 . S
O253 C241 1.232 . S
H254 C273 0.929 . S
H255 C274 0.929 . S
H256 C286 0.931 . S
H257 C278 0.929 . S
H258 C287 0.930 . S
H259 C279 0.931 . S
O260 Co236 2.097 . S
O260 C288 1.214 . S
H261 C289 0.929 . S
H262 C290 0.929 . S
H263 C291 0.930 . S
H264 C292 0.929 . S
H265 C294 0.930 . S
H266 C271 0.930 . S
H267 C275 0.930 . S
O268 Co237 2.037 . S
O268 C288 1.234 . S
C269 O243 1.269 . S
C269 O244 1.257 . S
C270 H245 0.930 . S
C270 C273 1.388 . S
C270 C275 1.418 . S
C271 H266 0.930 . S
C271 C274 1.404 . S
C271 C275 1.353 . S
N272 Co237 2.145 . S
N272 C273 1.397 . S
N272 C274 1.334 . S
C273 H254 0.929 . S
C273 C270 1.388 . S
C273 N272 1.397 . S
C274 H255 0.929 . S
C274 C271 1.404 . S
C274 N272 1.334 . S
C275 H267 0.930 . S
C275 C270 1.418 . S
C275 C271 1.353 . S
C276 H246 0.930 . S
C276 N277 1.330 . S
C276 C278 1.446 . S
N277 Co236 2.151 . S
N277 C276 1.330 . S
N277 C281 1.418 . S
C278 H257 0.929 . S
C278 C276 1.446 . S
C278 C279 1.332 . S
C279 H259 0.931 . S
C279 C278 1.332 . S
C279 C280 1.267 . S
C280 H248 0.929 . S
C280 C279 1.267 . S
C280 C281 1.251 . S
C281 H251 0.929 . S
C281 N277 1.418 . S
C281 C280 1.251 . S
C282 H249 0.930 . S
C282 C284 1.406 . S
C282 C287 1.261 . S
C283 H250 0.930 . S
C283 N285 1.325 . S
C283 C286 1.357 . S
C284 H252 0.928 . S
C284 C282 1.406 . S
C284 N285 1.261 . S
N285 Co236 2.214 . S
N285 C283 1.325 . S
N285 C284 1.261 . S
C286 H256 0.931 . S
C286 C283 1.357 . S
C286 C287 1.312 . S
C287 H258 0.930 . S
C287 C282 1.261 . S
C287 C286 1.312 . S
C288 O260 1.214 . S
C288 O268 1.234 . S
C289 H261 0.929 . S
C289 C292 1.391 . S
C289 C294 1.391 . S
C290 H262 0.929 . S
C290 C291 1.390 . S
C290 N293 1.391 . S
C291 H263 0.930 . S
C291 C290 1.390 . S
C291 C292 1.392 . S
C292 H264 0.929 . S
C292 C289 1.391 . S
C292 C291 1.392 . S
N293 Co237 2.257 . S
N293 C290 1.391 . S
N293 C294 1.388 . S
C294 H265 0.930 . S
C294 C289 1.391 . S
C294 N293 1.388 . S
Co295 O297 2.143 . S
Co295 O303 2.074 . S
Co295 O306 2.093 . S
Co295 O319 2.097 . S
Co295 N336 2.151 . S
Co295 N344 2.214 . S
Co296 O297 2.160 . S
Co296 O302 2.058 . S
Co296 O312 2.057 . S
Co296 O327 2.037 . S
Co296 N331 2.145 . S
Co296 N352 2.257 . S
O297 Co295 2.143 . S
O297 Co296 2.160 . S
C298 O299 1.278 . S
C298 O306 1.224 . S
O299 C298 1.278 . S
C300 O301 1.245 . S
C300 O312 1.232 . S
O301 C300 1.245 . S
O302 Co296 2.058 . S
O302 C328 1.269 . S
O303 Co295 2.074 . S
O303 C328 1.257 . S
H304 C329 0.930 . S
H305 C335 0.930 . S
O306 Co295 2.093 . S
O306 C298 1.224 . S
H307 C339 0.929 . S
H308 C341 0.930 . S
H309 C342 0.930 . S
H310 C340 0.929 . S
H311 C343 0.928 . S
O312 Co296 2.057 . S
O312 C300 1.232 . S
H313 C332 0.929 . S
H314 C333 0.929 . S
H315 C345 0.931 . S
H316 C337 0.929 . S
H317 C346 0.930 . S
H318 C338 0.931 . S
O319 Co295 2.097 . S
O319 C347 1.214 . S
H320 C348 0.929 . S
H321 C349 0.929 . S
H322 C350 0.930 . S
H323 C351 0.929 . S
H324 C353 0.930 . S
H325 C330 0.930 . S
H326 C334 0.930 . S
O327 Co296 2.037 . S
O327 C347 1.234 . S
C328 O302 1.269 . S
C328 O303 1.257 . S
C329 H304 0.930 . S
C329 C332 1.388 . S
C329 C334 1.418 . S
C330 H325 0.930 . S
C330 C333 1.404 . S
C330 C334 1.353 . S
N331 Co296 2.145 . S
N331 C332 1.397 . S
N331 C333 1.334 . S
C332 H313 0.929 . S
C332 C329 1.388 . S
C332 N331 1.397 . S
C333 H314 0.929 . S
C333 C330 1.404 . S
C333 N331 1.334 . S
C334 H326 0.930 . S
C334 C329 1.418 . S
C334 C330 1.353 . S
C335 H305 0.930 . S
C335 N336 1.330 . S
C335 C337 1.446 . S
N336 Co295 2.151 . S
N336 C335 1.330 . S
N336 C340 1.418 . S
C337 H316 0.929 . S
C337 C335 1.446 . S
C337 C338 1.332 . S
C338 H318 0.931 . S
C338 C337 1.332 . S
C338 C339 1.267 . S
C339 H307 0.929 . S
C339 C338 1.267 . S
C339 C340 1.251 . S
C340 H310 0.929 . S
C340 N336 1.418 . S
C340 C339 1.251 . S
C341 H308 0.930 . S
C341 C343 1.406 . S
C341 C346 1.261 . S
C342 H309 0.930 . S
C342 N344 1.325 . S
C342 C345 1.357 . S
C343 H311 0.928 . S
C343 C341 1.406 . S
C343 N344 1.261 . S
N344 Co295 2.214 . S
N344 C342 1.325 . S
N344 C343 1.261 . S
C345 H315 0.931 . S
C345 C342 1.357 . S
C345 C346 1.312 . S
C346 H317 0.930 . S
C346 C341 1.261 . S
C346 C345 1.312 . S
C347 O319 1.214 . S
C347 O327 1.234 . S
C348 H320 0.929 . S
C348 C351 1.391 . S
C348 C353 1.391 . S
C349 H321 0.929 . S
C349 C350 1.390 . S
C349 N352 1.391 . S
C350 H322 0.930 . S
C350 C349 1.390 . S
C350 C351 1.392 . S
C351 H323 0.929 . S
C351 C348 1.391 . S
C351 C350 1.392 . S
N352 Co296 2.257 . S
N352 C349 1.391 . S
N352 C353 1.388 . S
C353 H324 0.930 . S
C353 C348 1.391 . S
C353 N352 1.388 . S
Co354 O356 2.143 . S
Co354 O362 2.074 . S
Co354 O365 2.093 . S
Co354 O378 2.097 . S
Co354 N395 2.151 . S
Co354 N403 2.214 . S
Co355 O356 2.160 . S
Co355 O361 2.058 . S
Co355 O371 2.057 . S
Co355 O386 2.037 . S
Co355 N390 2.145 . S
Co355 N411 2.257 . S
O356 Co354 2.143 . S
O356 Co355 2.160 . S
C357 O358 1.278 . S
C357 O365 1.224 . S
O358 C357 1.278 . S
C359 O360 1.245 . S
C359 O371 1.232 . S
O360 C359 1.245 . S
O361 Co355 2.058 . S
O361 C387 1.269 . S
O362 Co354 2.074 . S
O362 C387 1.257 . S
H363 C388 0.930 . S
H364 C394 0.930 . S
O365 Co354 2.093 . S
O365 C357 1.224 . S
H366 C398 0.929 . S
H367 C400 0.930 . S
H368 C401 0.930 . S
H369 C399 0.929 . S
H370 C402 0.928 . S
O371 Co355 2.057 . S
O371 C359 1.232 . S
H372 C391 0.929 . S
H373 C392 0.929 . S
H374 C404 0.931 . S
H375 C396 0.929 . S
H376 C405 0.930 . S
H377 C397 0.931 . S
O378 Co354 2.097 . S
O378 C406 1.214 . S
H379 C407 0.929 . S
H380 C408 0.929 . S
H381 C409 0.930 . S
H382 C410 0.929 . S
H383 C412 0.930 . S
H384 C389 0.930 . S
H385 C393 0.930 . S
O386 Co355 2.037 . S
O386 C406 1.234 . S
C387 O361 1.269 . S
C387 O362 1.257 . S
C388 H363 0.930 . S
C388 C391 1.388 . S
C388 C393 1.418 . S
C389 H384 0.930 . S
C389 C392 1.404 . S
C389 C393 1.353 . S
N390 Co355 2.145 . S
N390 C391 1.397 . S
N390 C392 1.334 . S
C391 H372 0.929 . S
C391 C388 1.388 . S
C391 N390 1.397 . S
C392 H373 0.929 . S
C392 C389 1.404 . S
C392 N390 1.334 . S
C393 H385 0.930 . S
C393 C388 1.418 . S
C393 C389 1.353 . S
C394 H364 0.930 . S
C394 N395 1.330 . S
C394 C396 1.446 . S
N395 Co354 2.151 . S
N395 C394 1.330 . S
N395 C399 1.418 . S
C396 H375 0.929 . S
C396 C394 1.446 . S
C396 C397 1.332 . S
C397 H377 0.931 . S
C397 C396 1.332 . S
C397 C398 1.267 . S
C398 H366 0.929 . S
C398 C397 1.267 . S
C398 C399 1.251 . S
C399 H369 0.929 . S
C399 N395 1.418 . S
C399 C398 1.251 . S
C400 H367 0.930 . S
C400 C402 1.406 . S
C400 C405 1.261 . S
C401 H368 0.930 . S
C401 N403 1.325 . S
C401 C404 1.357 . S
C402 H370 0.928 . S
C402 C400 1.406 . S
C402 N403 1.261 . S
N403 Co354 2.214 . S
N403 C401 1.325 . S
N403 C402 1.261 . S
C404 H374 0.931 . S
C404 C401 1.357 . S
C404 C405 1.312 . S
C405 H376 0.930 . S
C405 C400 1.261 . S
C405 C404 1.312 . S
C406 O378 1.214 . S
C406 O386 1.234 . S
C407 H379 0.929 . S
C407 C410 1.391 . S
C407 C412 1.391 . S
C408 H380 0.929 . S
C408 C409 1.390 1_655 S
C408 N411 1.391 . S
C409 H381 0.930 . S
C409 C408 1.390 1_455 S
C409 C410 1.392 . S
C410 H382 0.929 . S
C410 C407 1.391 . S
C410 C409 1.392 . S
N411 Co355 2.257 . S
N411 C408 1.391 . S
N411 C412 1.388 1_655 S
C412 H383 0.930 . S
C412 C407 1.391 . S
C412 N411 1.388 1_455 S
Co413 O415 2.143 . S
Co413 O421 2.074 . S
Co413 O424 2.093 . S
Co413 O437 2.097 . S
Co413 N454 2.151 . S
Co413 N462 2.214 . S
Co414 O415 2.160 . S
Co414 O420 2.058 . S
Co414 O430 2.057 . S
Co414 O445 2.037 . S
Co414 N449 2.145 . S
Co414 N470 2.257 . S
O415 Co413 2.143 . S
O415 Co414 2.160 . S
C416 O417 1.278 . S
C416 O424 1.224 . S
O417 C416 1.278 . S
C418 O419 1.245 . S
C418 O430 1.232 . S
O419 C418 1.245 . S
O420 Co414 2.058 . S
O420 C446 1.269 . S
O421 Co413 2.074 . S
O421 C446 1.257 . S
H422 C447 0.930 . S
H423 C453 0.930 . S
O424 Co413 2.093 . S
O424 C416 1.224 . S
H425 C457 0.929 . S
H426 C459 0.930 . S
H427 C460 0.930 . S
H428 C458 0.929 . S
H429 C461 0.928 . S
O430 Co414 2.057 . S
O430 C418 1.232 . S
H431 C450 0.929 . S
H432 C451 0.929 . S
H433 C463 0.931 . S
H434 C455 0.929 . S
H435 C464 0.930 . S
H436 C456 0.931 . S
O437 Co413 2.097 . S
O437 C465 1.214 . S
H438 C466 0.929 . S
H439 C467 0.929 . S
H440 C468 0.930 . S
H441 C469 0.929 . S
H442 C471 0.930 . S
H443 C448 0.930 . S
H444 C452 0.930 . S
O445 Co414 2.037 . S
O445 C465 1.234 . S
C446 O420 1.269 . S
C446 O421 1.257 . S
C447 H422 0.930 . S
C447 C450 1.388 . S
C447 C452 1.418 . S
C448 H443 0.930 . S
C448 C451 1.404 . S
C448 C452 1.353 . S
N449 Co414 2.145 . S
N449 C450 1.397 . S
N449 C451 1.334 . S
C450 H431 0.929 . S
C450 C447 1.388 . S
C450 N449 1.397 . S
C451 H432 0.929 . S
C451 C448 1.404 . S
C451 N449 1.334 . S
C452 H444 0.930 . S
C452 C447 1.418 . S
C452 C448 1.353 . S
C453 H423 0.930 . S
C453 N454 1.330 . S
C453 C455 1.446 . S
N454 Co413 2.151 . S
N454 C453 1.330 . S
N454 C458 1.418 . S
C455 H434 0.929 . S
C455 C453 1.446 . S
C455 C456 1.332 . S
C456 H436 0.931 . S
C456 C455 1.332 . S
C456 C457 1.267 . S
C457 H425 0.929 . S
C457 C456 1.267 . S
C457 C458 1.251 . S
C458 H428 0.929 . S
C458 N454 1.418 . S
C458 C457 1.251 . S
C459 H426 0.930 . S
C459 C461 1.406 . S
C459 C464 1.261 . S
C460 H427 0.930 . S
C460 N462 1.325 . S
C460 C463 1.357 . S
C461 H429 0.928 . S
C461 C459 1.406 . S
C461 N462 1.261 . S
N462 Co413 2.214 . S
N462 C460 1.325 . S
N462 C461 1.261 . S
C463 H433 0.931 . S
C463 C460 1.357 . S
C463 C464 1.312 . S
C464 H435 0.930 . S
C464 C459 1.261 . S
C464 C463 1.312 . S
C465 O437 1.214 . S
C465 O445 1.234 . S
C466 H438 0.929 . S
C466 C469 1.391 . S
C466 C471 1.391 . S
C467 H439 0.929 . S
C467 C468 1.390 1_565 S
C467 N470 1.391 . S
C468 H440 0.930 . S
C468 C467 1.390 1_545 S
C468 C469 1.392 . S
C469 H441 0.929 . S
C469 C466 1.391 . S
C469 C468 1.392 . S
N470 Co414 2.257 . S
N470 C467 1.391 . S
N470 C471 1.388 1_565 S
C471 H442 0.930 . S
C471 C466 1.391 . S
C471 N470 1.388 1_545 S
Co472 O474 2.143 . S
Co472 O480 2.074 . S
Co472 O483 2.093 . S
Co472 O496 2.097 . S
Co472 N513 2.151 . S
Co472 N521 2.214 . S
Co473 O474 2.160 . S
Co473 O479 2.058 . S
Co473 O489 2.057 . S
Co473 O504 2.037 . S
Co473 N508 2.145 1_556 S
Co473 N529 2.257 . S
O474 Co472 2.143 . S
O474 Co473 2.160 . S
C475 O476 1.278 . S
C475 O483 1.224 . S
O476 C475 1.278 . S
C477 O478 1.245 . S
C477 O489 1.232 . S
O478 C477 1.245 . S
O479 Co473 2.058 . S
O479 C505 1.269 . S
O480 Co472 2.074 . S
O480 C505 1.257 . S
H481 C506 0.930 . S
H482 C512 0.930 . S
O483 Co472 2.093 . S
O483 C475 1.224 . S
H484 C516 0.929 . S
H485 C518 0.930 . S
H486 C519 0.930 . S
H487 C517 0.929 . S
H488 C520 0.928 . S
O489 Co473 2.057 . S
O489 C477 1.232 . S
H490 C509 0.929 . S
H491 C510 0.929 . S
H492 C522 0.931 . S
H493 C514 0.929 . S
H494 C523 0.930 . S
H495 C515 0.931 . S
O496 Co472 2.097 . S
O496 C524 1.214 . S
H497 C525 0.929 . S
H498 C526 0.929 . S
H499 C527 0.930 . S
H500 C528 0.929 . S
H501 C530 0.930 . S
H502 C507 0.930 . S
H503 C511 0.930 . S
O504 Co473 2.037 . S
O504 C524 1.234 . S
C505 O479 1.269 . S
C505 O480 1.257 . S
C506 H481 0.930 . S
C506 C509 1.388 . S
C506 C511 1.418 . S
C507 H502 0.930 . S
C507 C510 1.404 . S
C507 C511 1.353 . S
N508 Co473 2.145 1_554 S
N508 C509 1.397 . S
N508 C510 1.334 . S
C509 H490 0.929 . S
C509 C506 1.388 . S
C509 N508 1.397 . S
C510 H491 0.929 . S
C510 C507 1.404 . S
C510 N508 1.334 . S
C511 H503 0.930 . S
C511 C506 1.418 . S
C511 C507 1.353 . S
C512 H482 0.930 . S
C512 N513 1.330 . S
C512 C514 1.446 . S
N513 Co472 2.151 . S
N513 C512 1.330 . S
N513 C517 1.418 . S
C514 H493 0.929 . S
C514 C512 1.446 . S
C514 C515 1.332 . S
C515 H495 0.931 . S
C515 C514 1.332 . S
C515 C516 1.267 . S
C516 H484 0.929 . S
C516 C515 1.267 . S
C516 C517 1.251 . S
C517 H487 0.929 . S
C517 N513 1.418 . S
C517 C516 1.251 . S
C518 H485 0.930 . S
C518 C520 1.406 . S
C518 C523 1.261 . S
C519 H486 0.930 . S
C519 N521 1.325 . S
C519 C522 1.357 . S
C520 H488 0.928 . S
C520 C518 1.406 . S
C520 N521 1.261 . S
N521 Co472 2.214 . S
N521 C519 1.325 . S
N521 C520 1.261 . S
C522 H492 0.931 . S
C522 C519 1.357 . S
C522 C523 1.312 . S
C523 H494 0.930 . S
C523 C518 1.261 . S
C523 C522 1.312 . S
C524 O496 1.214 . S
C524 O504 1.234 . S
C525 H497 0.929 . S
C525 C528 1.391 . S
C525 C530 1.391 . S
C526 H498 0.929 . S
C526 C527 1.390 . S
C526 N529 1.391 . S
C527 H499 0.930 . S
C527 C526 1.390 . S
C527 C528 1.392 . S
C528 H500 0.929 . S
C528 C525 1.391 . S
C528 C527 1.392 . S
N529 Co473 2.257 . S
N529 C526 1.391 . S
N529 C530 1.388 . S
C530 H501 0.930 . S
C530 C525 1.391 . S
C530 N529 1.388 . S
Co531 O533 2.143 . S
Co531 O539 2.074 . S
Co531 O542 2.093 . S
Co531 O555 2.097 . S
Co531 N572 2.151 . S
Co531 N580 2.214 . S
Co532 O533 2.160 . S
Co532 O538 2.058 . S
Co532 O548 2.057 . S
Co532 O563 2.037 . S
Co532 N567 2.145 1_556 S
Co532 N588 2.257 . S
O533 Co531 2.143 . S
O533 Co532 2.160 . S
C534 O535 1.278 . S
C534 O542 1.224 . S
O535 C534 1.278 . S
C536 O537 1.245 . S
C536 O548 1.232 . S
O537 C536 1.245 . S
O538 Co532 2.058 . S
O538 C564 1.269 . S
O539 Co531 2.074 . S
O539 C564 1.257 . S
H540 C565 0.930 . S
H541 C571 0.930 . S
O542 Co531 2.093 . S
O542 C534 1.224 . S
H543 C575 0.929 . S
H544 C577 0.930 . S
H545 C578 0.930 . S
H546 C576 0.929 . S
H547 C579 0.928 . S
O548 Co532 2.057 . S
O548 C536 1.232 . S
H549 C568 0.929 . S
H550 C569 0.929 . S
H551 C581 0.931 . S
H552 C573 0.929 . S
H553 C582 0.930 . S
H554 C574 0.931 . S
O555 Co531 2.097 . S
O555 C583 1.214 . S
H556 C584 0.929 . S
H557 C585 0.929 . S
H558 C586 0.930 . S
H559 C587 0.929 . S
H560 C589 0.930 . S
H561 C566 0.930 . S
H562 C570 0.930 . S
O563 Co532 2.037 . S
O563 C583 1.234 . S
C564 O538 1.269 . S
C564 O539 1.257 . S
C565 H540 0.930 . S
C565 C568 1.388 . S
C565 C570 1.418 . S
C566 H561 0.930 . S
C566 C569 1.404 . S
C566 C570 1.353 . S
N567 Co532 2.145 1_554 S
N567 C568 1.397 . S
N567 C569 1.334 . S
C568 H549 0.929 . S
C568 C565 1.388 . S
C568 N567 1.397 . S
C569 H550 0.929 . S
C569 C566 1.404 . S
C569 N567 1.334 . S
C570 H562 0.930 . S
C570 C565 1.418 . S
C570 C566 1.353 . S
C571 H541 0.930 . S
C571 N572 1.330 . S
C571 C573 1.446 . S
N572 Co531 2.151 . S
N572 C571 1.330 . S
N572 C576 1.418 . S
C573 H552 0.929 . S
C573 C571 1.446 . S
C573 C574 1.332 . S
C574 H554 0.931 . S
C574 C573 1.332 . S
C574 C575 1.267 . S
C575 H543 0.929 . S
C575 C574 1.267 . S
C575 C576 1.251 . S
C576 H546 0.929 . S
C576 N572 1.418 . S
C576 C575 1.251 . S
C577 H544 0.930 . S
C577 C579 1.406 . S
C577 C582 1.261 . S
C578 H545 0.930 . S
C578 N580 1.325 . S
C578 C581 1.357 . S
C579 H547 0.928 . S
C579 C577 1.406 . S
C579 N580 1.261 . S
N580 Co531 2.214 . S
N580 C578 1.325 . S
N580 C579 1.261 . S
C581 H551 0.931 . S
C581 C578 1.357 . S
C581 C582 1.312 . S
C582 H553 0.930 . S
C582 C577 1.261 . S
C582 C581 1.312 . S
C583 O555 1.214 . S
C583 O563 1.234 . S
C584 H556 0.929 . S
C584 C587 1.391 . S
C584 C589 1.391 . S
C585 H557 0.929 . S
C585 C586 1.390 . S
C585 N588 1.391 . S
C586 H558 0.930 . S
C586 C585 1.390 . S
C586 C587 1.392 . S
C587 H559 0.929 . S
C587 C584 1.391 . S
C587 C586 1.392 . S
N588 Co532 2.257 . S
N588 C585 1.391 . S
N588 C589 1.388 . S
C589 H560 0.930 . S
C589 C584 1.391 . S
C589 N588 1.388 . S
Co590 O592 2.143 . S
Co590 O598 2.074 . S
Co590 O601 2.093 . S
Co590 O614 2.097 . S
Co590 N631 2.151 . S
Co590 N639 2.214 . S
Co591 O592 2.160 . S
Co591 O597 2.058 . S
Co591 O607 2.057 . S
Co591 O622 2.037 . S
Co591 N626 2.145 1_556 S
Co591 N647 2.257 . S
O592 Co590 2.143 . S
O592 Co591 2.160 . S
C593 O594 1.278 . S
C593 O601 1.224 . S
O594 C593 1.278 . S
C595 O596 1.245 . S
C595 O607 1.232 . S
O596 C595 1.245 . S
O597 Co591 2.058 . S
O597 C623 1.269 . S
O598 Co590 2.074 . S
O598 C623 1.257 . S
H599 C624 0.930 . S
H600 C630 0.930 . S
O601 Co590 2.093 . S
O601 C593 1.224 . S
H602 C634 0.929 . S
H603 C636 0.930 . S
H604 C637 0.930 . S
H605 C635 0.929 . S
H606 C638 0.928 . S
O607 Co591 2.057 . S
O607 C595 1.232 . S
H608 C627 0.929 . S
H609 C628 0.929 . S
H610 C640 0.931 . S
H611 C632 0.929 . S
H612 C641 0.930 . S
H613 C633 0.931 . S
O614 Co590 2.097 . S
O614 C642 1.214 . S
H615 C643 0.929 . S
H616 C644 0.929 . S
H617 C645 0.930 . S
H618 C646 0.929 . S
H619 C648 0.930 . S
H620 C625 0.930 . S
H621 C629 0.930 . S
O622 Co591 2.037 . S
O622 C642 1.234 . S
C623 O597 1.269 . S
C623 O598 1.257 . S
C624 H599 0.930 . S
C624 C627 1.388 . S
C624 C629 1.418 . S
C625 H620 0.930 . S
C625 C628 1.404 . S
C625 C629 1.353 . S
N626 Co591 2.145 1_554 S
N626 C627 1.397 . S
N626 C628 1.334 . S
C627 H608 0.929 . S
C627 C624 1.388 . S
C627 N626 1.397 . S
C628 H609 0.929 . S
C628 C625 1.404 . S
C628 N626 1.334 . S
C629 H621 0.930 . S
C629 C624 1.418 . S
C629 C625 1.353 . S
C630 H600 0.930 . S
C630 N631 1.330 . S
C630 C632 1.446 . S
N631 Co590 2.151 . S
N631 C630 1.330 . S
N631 C635 1.418 . S
C632 H611 0.929 . S
C632 C630 1.446 . S
C632 C633 1.332 . S
C633 H613 0.931 . S
C633 C632 1.332 . S
C633 C634 1.267 . S
C634 H602 0.929 . S
C634 C633 1.267 . S
C634 C635 1.251 . S
C635 H605 0.929 . S
C635 N631 1.418 . S
C635 C634 1.251 . S
C636 H603 0.930 . S
C636 C638 1.406 . S
C636 C641 1.261 . S
C637 H604 0.930 . S
C637 N639 1.325 . S
C637 C640 1.357 . S
C638 H606 0.928 . S
C638 C636 1.406 . S
C638 N639 1.261 . S
N639 Co590 2.214 . S
N639 C637 1.325 . S
N639 C638 1.261 . S
C640 H610 0.931 . S
C640 C637 1.357 . S
C640 C641 1.312 . S
C641 H612 0.930 . S
C641 C636 1.261 . S
C641 C640 1.312 . S
C642 O614 1.214 . S
C642 O622 1.234 . S
C643 H615 0.929 . S
C643 C646 1.391 . S
C643 C648 1.391 . S
C644 H616 0.929 . S
C644 C645 1.390 1_455 S
C644 N647 1.391 . S
C645 H617 0.930 . S
C645 C644 1.390 1_655 S
C645 C646 1.392 . S
C646 H618 0.929 . S
C646 C643 1.391 . S
C646 C645 1.392 . S
N647 Co591 2.257 . S
N647 C644 1.391 . S
N647 C648 1.388 1_455 S
C648 H619 0.930 . S
C648 C643 1.391 . S
C648 N647 1.388 1_655 S
Co649 O651 2.143 . S
Co649 O657 2.074 . S
Co649 O660 2.093 . S
Co649 O673 2.097 . S
Co649 N690 2.151 . S
Co649 N698 2.214 . S
Co650 O651 2.160 . S
Co650 O656 2.058 . S
Co650 O666 2.057 . S
Co650 O681 2.037 . S
Co650 N685 2.145 1_556 S
Co650 N706 2.257 . S
O651 Co649 2.143 . S
O651 Co650 2.160 . S
C652 O653 1.278 . S
C652 O660 1.224 . S
O653 C652 1.278 . S
C654 O655 1.245 . S
C654 O666 1.232 . S
O655 C654 1.245 . S
O656 Co650 2.058 . S
O656 C682 1.269 . S
O657 Co649 2.074 . S
O657 C682 1.257 . S
H658 C683 0.930 . S
H659 C689 0.930 . S
O660 Co649 2.093 . S
O660 C652 1.224 . S
H661 C693 0.929 . S
H662 C695 0.930 . S
H663 C696 0.930 . S
H664 C694 0.929 . S
H665 C697 0.928 . S
O666 Co650 2.057 . S
O666 C654 1.232 . S
H667 C686 0.929 . S
H668 C687 0.929 . S
H669 C699 0.931 . S
H670 C691 0.929 . S
H671 C700 0.930 . S
H672 C692 0.931 . S
O673 Co649 2.097 . S
O673 C701 1.214 . S
H674 C702 0.929 . S
H675 C703 0.929 . S
H676 C704 0.930 . S
H677 C705 0.929 . S
H678 C707 0.930 . S
H679 C684 0.930 . S
H680 C688 0.930 . S
O681 Co650 2.037 . S
O681 C701 1.234 . S
C682 O656 1.269 . S
C682 O657 1.257 . S
C683 H658 0.930 . S
C683 C686 1.388 . S
C683 C688 1.418 . S
C684 H679 0.930 . S
C684 C687 1.404 . S
C684 C688 1.353 . S
N685 Co650 2.145 1_554 S
N685 C686 1.397 . S
N685 C687 1.334 . S
C686 H667 0.929 . S
C686 C683 1.388 . S
C686 N685 1.397 . S
C687 H668 0.929 . S
C687 C684 1.404 . S
C687 N685 1.334 . S
C688 H680 0.930 . S
C688 C683 1.418 . S
C688 C684 1.353 . S
C689 H659 0.930 . S
C689 N690 1.330 . S
C689 C691 1.446 . S
N690 Co649 2.151 . S
N690 C689 1.330 . S
N690 C694 1.418 . S
C691 H670 0.929 . S
C691 C689 1.446 . S
C691 C692 1.332 . S
C692 H672 0.931 . S
C692 C691 1.332 . S
C692 C693 1.267 . S
C693 H661 0.929 . S
C693 C692 1.267 . S
C693 C694 1.251 . S
C694 H664 0.929 . S
C694 N690 1.418 . S
C694 C693 1.251 . S
C695 H662 0.930 . S
C695 C697 1.406 . S
C695 C700 1.261 . S
C696 H663 0.930 . S
C696 N698 1.325 . S
C696 C699 1.357 . S
C697 H665 0.928 . S
C697 C695 1.406 . S
C697 N698 1.261 . S
N698 Co649 2.214 . S
N698 C696 1.325 . S
N698 C697 1.261 . S
C699 H669 0.931 . S
C699 C696 1.357 . S
C699 C700 1.312 . S
C700 H671 0.930 . S
C700 C695 1.261 . S
C700 C699 1.312 . S
C701 O673 1.214 . S
C701 O681 1.234 . S
C702 H674 0.929 . S
C702 C705 1.391 . S
C702 C707 1.391 . S
C703 H675 0.929 . S
C703 C704 1.390 1_545 S
C703 N706 1.391 . S
C704 H676 0.930 . S
C704 C703 1.390 1_565 S
C704 C705 1.392 . S
C705 H677 0.929 . S
C705 C702 1.391 . S
C705 C704 1.392 . S
N706 Co650 2.257 . S
N706 C703 1.391 . S
N706 C707 1.388 1_545 S
C707 H678 0.930 . S
C707 C702 1.391 . S
C707 N706 1.388 1_565 S
Co708 O710 2.143 . S
Co708 O716 2.074 . S
Co708 O719 2.093 . S
Co708 O732 2.097 . S
Co708 N749 2.151 . S
Co708 N757 2.214 . S
Co709 O710 2.160 . S
Co709 O715 2.058 . S
Co709 O725 2.057 . S
Co709 O740 2.037 . S
Co709 N744 2.145 . S
Co709 N765 2.257 . S
O710 Co708 2.143 . S
O710 Co709 2.160 . S
C711 O712 1.278 . S
C711 O719 1.224 . S
O712 C711 1.278 . S
C713 O714 1.245 . S
C713 O725 1.232 . S
O714 C713 1.245 . S
O715 Co709 2.058 . S
O715 C741 1.269 . S
O716 Co708 2.074 . S
O716 C741 1.257 . S
H717 C742 0.930 . S
H718 C748 0.930 . S
O719 Co708 2.093 . S
O719 C711 1.224 . S
H720 C752 0.929 . S
H721 C754 0.930 . S
H722 C755 0.930 . S
H723 C753 0.929 . S
H724 C756 0.928 . S
O725 Co709 2.057 . S
O725 C713 1.232 . S
H726 C745 0.929 . S
H727 C746 0.929 . S
H728 C758 0.931 . S
H729 C750 0.929 . S
H730 C759 0.930 . S
H731 C751 0.931 . S
O732 Co708 2.097 . S
O732 C760 1.214 . S
H733 C761 0.929 . S
H734 C762 0.929 . S
H735 C763 0.930 . S
H736 C764 0.929 . S
H737 C766 0.930 . S
H738 C743 0.930 . S
H739 C747 0.930 . S
O740 Co709 2.037 . S
O740 C760 1.234 . S
C741 O715 1.269 . S
C741 O716 1.257 . S
C742 H717 0.930 . S
C742 C745 1.388 . S
C742 C747 1.418 . S
C743 H738 0.930 . S
C743 C746 1.404 . S
C743 C747 1.353 . S
N744 Co709 2.145 . S
N744 C745 1.397 . S
N744 C746 1.334 . S
C745 H726 0.929 . S
C745 C742 1.388 . S
C745 N744 1.397 . S
C746 H727 0.929 . S
C746 C743 1.404 . S
C746 N744 1.334 . S
C747 H739 0.930 . S
C747 C742 1.418 . S
C747 C743 1.353 . S
C748 H718 0.930 . S
C748 N749 1.330 . S
C748 C750 1.446 . S
N749 Co708 2.151 . S
N749 C748 1.330 . S
N749 C753 1.418 . S
C750 H729 0.929 . S
C750 C748 1.446 . S
C750 C751 1.332 . S
C751 H731 0.931 . S
C751 C750 1.332 . S
C751 C752 1.267 . S
C752 H720 0.929 . S
C752 C751 1.267 . S
C752 C753 1.251 . S
C753 H723 0.929 . S
C753 N749 1.418 . S
C753 C752 1.251 . S
C754 H721 0.930 . S
C754 C756 1.406 . S
C754 C759 1.261 . S
C755 H722 0.930 . S
C755 N757 1.325 . S
C755 C758 1.357 . S
C756 H724 0.928 . S
C756 C754 1.406 . S
C756 N757 1.261 . S
N757 Co708 2.214 . S
N757 C755 1.325 . S
N757 C756 1.261 . S
C758 H728 0.931 . S
C758 C755 1.357 . S
C758 C759 1.312 . S
C759 H730 0.930 . S
C759 C754 1.261 . S
C759 C758 1.312 . S
C760 O732 1.214 . S
C760 O740 1.234 . S
C761 H733 0.929 . S
C761 C764 1.391 . S
C761 C766 1.391 . S
C762 H734 0.929 . S
C762 C763 1.390 . S
C762 N765 1.391 . S
C763 H735 0.930 . S
C763 C762 1.390 . S
C763 C764 1.392 . S
C764 H736 0.929 . S
C764 C761 1.391 . S
C764 C763 1.392 . S
N765 Co709 2.257 . S
N765 C762 1.391 . S
N765 C766 1.388 . S
C766 H737 0.930 . S
C766 C761 1.391 . S
C766 N765 1.388 . S
Co767 O769 2.143 . S
Co767 O775 2.074 . S
Co767 O778 2.093 . S
Co767 O791 2.097 . S
Co767 N808 2.151 . S
Co767 N816 2.214 . S
Co768 O769 2.160 . S
Co768 O774 2.058 . S
Co768 O784 2.057 . S
Co768 O799 2.037 . S
Co768 N803 2.145 . S
Co768 N824 2.257 . S
O769 Co767 2.143 . S
O769 Co768 2.160 . S
C770 O771 1.278 . S
C770 O778 1.224 . S
O771 C770 1.278 . S
C772 O773 1.245 . S
C772 O784 1.232 . S
O773 C772 1.245 . S
O774 Co768 2.058 . S
O774 C800 1.269 . S
O775 Co767 2.074 . S
O775 C800 1.257 . S
H776 C801 0.930 . S
H777 C807 0.930 . S
O778 Co767 2.093 . S
O778 C770 1.224 . S
H779 C811 0.929 . S
H780 C813 0.930 . S
H781 C814 0.930 . S
H782 C812 0.929 . S
H783 C815 0.928 . S
O784 Co768 2.057 . S
O784 C772 1.232 . S
H785 C804 0.929 . S
H786 C805 0.929 . S
H787 C817 0.931 . S
H788 C809 0.929 . S
H789 C818 0.930 . S
H790 C810 0.931 . S
O791 Co767 2.097 . S
O791 C819 1.214 . S
H792 C820 0.929 . S
H793 C821 0.929 . S
H794 C822 0.930 . S
H795 C823 0.929 . S
H796 C825 0.930 . S
H797 C802 0.930 . S
H798 C806 0.930 . S
O799 Co768 2.037 . S
O799 C819 1.234 . S
C800 O774 1.269 . S
C800 O775 1.257 . S
C801 H776 0.930 . S
C801 C804 1.388 . S
C801 C806 1.418 . S
C802 H797 0.930 . S
C802 C805 1.404 . S
C802 C806 1.353 . S
N803 Co768 2.145 . S
N803 C804 1.397 . S
N803 C805 1.334 . S
C804 H785 0.929 . S
C804 C801 1.388 . S
C804 N803 1.397 . S
C805 H786 0.929 . S
C805 C802 1.404 . S
C805 N803 1.334 . S
C806 H798 0.930 . S
C806 C801 1.418 . S
C806 C802 1.353 . S
C807 H777 0.930 . S
C807 N808 1.330 . S
C807 C809 1.446 . S
N808 Co767 2.151 . S
N808 C807 1.330 . S
N808 C812 1.418 . S
C809 H788 0.929 . S
C809 C807 1.446 . S
C809 C810 1.332 . S
C810 H790 0.931 . S
C810 C809 1.332 . S
C810 C811 1.267 . S
C811 H779 0.929 . S
C811 C810 1.267 . S
C811 C812 1.251 . S
C812 H782 0.929 . S
C812 N808 1.418 . S
C812 C811 1.251 . S
C813 H780 0.930 . S
C813 C815 1.406 . S
C813 C818 1.261 . S
C814 H781 0.930 . S
C814 N816 1.325 . S
C814 C817 1.357 . S
C815 H783 0.928 . S
C815 C813 1.406 . S
C815 N816 1.261 . S
N816 Co767 2.214 . S
N816 C814 1.325 . S
N816 C815 1.261 . S
C817 H787 0.931 . S
C817 C814 1.357 . S
C817 C818 1.312 . S
C818 H789 0.930 . S
C818 C813 1.261 . S
C818 C817 1.312 . S
C819 O791 1.214 . S
C819 O799 1.234 . S
C820 H792 0.929 . S
C820 C823 1.391 . S
C820 C825 1.391 . S
C821 H793 0.929 . S
C821 C822 1.390 . S
C821 N824 1.391 . S
C822 H794 0.930 . S
C822 C821 1.390 . S
C822 C823 1.392 . S
C823 H795 0.929 . S
C823 C820 1.391 . S
C823 C822 1.392 . S
N824 Co768 2.257 . S
N824 C821 1.391 . S
N824 C825 1.388 . S
C825 H796 0.930 . S
C825 C820 1.391 . S
C825 N824 1.388 . S
Co826 O828 2.143 . S
Co826 O834 2.074 . S
Co826 O837 2.093 . S
Co826 O850 2.097 . S
Co826 N867 2.151 . S
Co826 N875 2.214 . S
Co827 O828 2.160 . S
Co827 O833 2.058 . S
Co827 O843 2.057 . S
Co827 O858 2.037 . S
Co827 N862 2.145 . S
Co827 N883 2.257 . S
O828 Co826 2.143 . S
O828 Co827 2.160 . S
C829 O830 1.278 . S
C829 O837 1.224 . S
O830 C829 1.278 . S
C831 O832 1.245 . S
C831 O843 1.232 . S
O832 C831 1.245 . S
O833 Co827 2.058 . S
O833 C859 1.269 . S
O834 Co826 2.074 . S
O834 C859 1.257 . S
H835 C860 0.930 . S
H836 C866 0.930 . S
O837 Co826 2.093 . S
O837 C829 1.224 . S
H838 C870 0.929 . S
H839 C872 0.930 . S
H840 C873 0.930 . S
H841 C871 0.929 . S
H842 C874 0.928 . S
O843 Co827 2.057 . S
O843 C831 1.232 . S
H844 C863 0.929 . S
H845 C864 0.929 . S
H846 C876 0.931 . S
H847 C868 0.929 . S
H848 C877 0.930 . S
H849 C869 0.931 . S
O850 Co826 2.097 . S
O850 C878 1.214 . S
H851 C879 0.929 . S
H852 C880 0.929 . S
H853 C881 0.930 . S
H854 C882 0.929 . S
H855 C884 0.930 . S
H856 C861 0.930 . S
H857 C865 0.930 . S
O858 Co827 2.037 . S
O858 C878 1.234 . S
C859 O833 1.269 . S
C859 O834 1.257 . S
C860 H835 0.930 . S
C860 C863 1.388 . S
C860 C865 1.418 . S
C861 H856 0.930 . S
C861 C864 1.404 . S
C861 C865 1.353 . S
N862 Co827 2.145 . S
N862 C863 1.397 . S
N862 C864 1.334 . S
C863 H844 0.929 . S
C863 C860 1.388 . S
C863 N862 1.397 . S
C864 H845 0.929 . S
C864 C861 1.404 . S
C864 N862 1.334 . S
C865 H857 0.930 . S
C865 C860 1.418 . S
C865 C861 1.353 . S
C866 H836 0.930 . S
C866 N867 1.330 . S
C866 C868 1.446 . S
N867 Co826 2.151 . S
N867 C866 1.330 . S
N867 C871 1.418 . S
C868 H847 0.929 . S
C868 C866 1.446 . S
C868 C869 1.332 . S
C869 H849 0.931 . S
C869 C868 1.332 . S
C869 C870 1.267 . S
C870 H838 0.929 . S
C870 C869 1.267 . S
C870 C871 1.251 . S
C871 H841 0.929 . S
C871 N867 1.418 . S
C871 C870 1.251 . S
C872 H839 0.930 . S
C872 C874 1.406 . S
C872 C877 1.261 . S
C873 H840 0.930 . S
C873 N875 1.325 . S
C873 C876 1.357 . S
C874 H842 0.928 . S
C874 C872 1.406 . S
C874 N875 1.261 . S
N875 Co826 2.214 . S
N875 C873 1.325 . S
N875 C874 1.261 . S
C876 H846 0.931 . S
C876 C873 1.357 . S
C876 C877 1.312 . S
C877 H848 0.930 . S
C877 C872 1.261 . S
C877 C876 1.312 . S
C878 O850 1.214 . S
C878 O858 1.234 . S
C879 H851 0.929 . S
C879 C882 1.391 . S
C879 C884 1.391 . S
C880 H852 0.929 . S
C880 C881 1.390 1_455 S
C880 N883 1.391 . S
C881 H853 0.930 . S
C881 C880 1.390 1_655 S
C881 C882 1.392 . S
C882 H854 0.929 . S
C882 C879 1.391 . S
C882 C881 1.392 . S
N883 Co827 2.257 . S
N883 C880 1.391 . S
N883 C884 1.388 1_455 S
C884 H855 0.930 . S
C884 C879 1.391 . S
C884 N883 1.388 1_655 S
Co885 O887 2.143 . S
Co885 O893 2.074 . S
Co885 O896 2.093 . S
Co885 O909 2.097 . S
Co885 N926 2.151 . S
Co885 N934 2.214 . S
Co886 O887 2.160 . S
Co886 O892 2.058 . S
Co886 O902 2.057 . S
Co886 O917 2.037 . S
Co886 N921 2.145 . S
Co886 N942 2.257 . S
O887 Co885 2.143 . S
O887 Co886 2.160 . S
C888 O889 1.278 . S
C888 O896 1.224 . S
O889 C888 1.278 . S
C890 O891 1.245 . S
C890 O902 1.232 . S
O891 C890 1.245 . S
O892 Co886 2.058 . S
O892 C918 1.269 . S
O893 Co885 2.074 . S
O893 C918 1.257 . S
H894 C919 0.930 . S
H895 C925 0.930 . S
O896 Co885 2.093 . S
O896 C888 1.224 . S
H897 C929 0.929 . S
H898 C931 0.930 . S
H899 C932 0.930 . S
H900 C930 0.929 . S
H901 C933 0.928 . S
O902 Co886 2.057 . S
O902 C890 1.232 . S
H903 C922 0.929 . S
H904 C923 0.929 . S
H905 C935 0.931 . S
H906 C927 0.929 . S
H907 C936 0.930 . S
H908 C928 0.931 . S
O909 Co885 2.097 . S
O909 C937 1.214 . S
H910 C938 0.929 . S
H911 C939 0.929 . S
H912 C940 0.930 . S
H913 C941 0.929 . S
H914 C943 0.930 . S
H915 C920 0.930 . S
H916 C924 0.930 . S
O917 Co886 2.037 . S
O917 C937 1.234 . S
C918 O892 1.269 . S
C918 O893 1.257 . S
C919 H894 0.930 . S
C919 C922 1.388 . S
C919 C924 1.418 . S
C920 H915 0.930 . S
C920 C923 1.404 . S
C920 C924 1.353 . S
N921 Co886 2.145 . S
N921 C922 1.397 . S
N921 C923 1.334 . S
C922 H903 0.929 . S
C922 C919 1.388 . S
C922 N921 1.397 . S
C923 H904 0.929 . S
C923 C920 1.404 . S
C923 N921 1.334 . S
C924 H916 0.930 . S
C924 C919 1.418 . S
C924 C920 1.353 . S
C925 H895 0.930 . S
C925 N926 1.330 . S
C925 C927 1.446 . S
N926 Co885 2.151 . S
N926 C925 1.330 . S
N926 C930 1.418 . S
C927 H906 0.929 . S
C927 C925 1.446 . S
C927 C928 1.332 . S
C928 H908 0.931 . S
C928 C927 1.332 . S
C928 C929 1.267 . S
C929 H897 0.929 . S
C929 C928 1.267 . S
C929 C930 1.251 . S
C930 H900 0.929 . S
C930 N926 1.418 . S
C930 C929 1.251 . S
C931 H898 0.930 . S
C931 C933 1.406 . S
C931 C936 1.261 . S
C932 H899 0.930 . S
C932 N934 1.325 . S
C932 C935 1.357 . S
C933 H901 0.928 . S
C933 C931 1.406 . S
C933 N934 1.261 . S
N934 Co885 2.214 . S
N934 C932 1.325 . S
N934 C933 1.261 . S
C935 H905 0.931 . S
C935 C932 1.357 . S
C935 C936 1.312 . S
C936 H907 0.930 . S
C936 C931 1.261 . S
C936 C935 1.312 . S
C937 O909 1.214 . S
C937 O917 1.234 . S
C938 H910 0.929 . S
C938 C941 1.391 . S
C938 C943 1.391 . S
C939 H911 0.929 . S
C939 C940 1.390 1_545 S
C939 N942 1.391 . S
C940 H912 0.930 . S
C940 C939 1.390 1_565 S
C940 C941 1.392 . S
C941 H913 0.929 . S
C941 C938 1.391 . S
C941 C940 1.392 . S
N942 Co886 2.257 . S
N942 C939 1.391 . S
N942 C943 1.388 1_545 S
C943 H914 0.930 . S
C943 C938 1.391 . S
C943 N942 1.388 1_565 S
H944 C952 0.929 . S
H945 C954 0.930 . S
H946 C956 0.911 1_556 S
H947 C959 0.929 1_556 S
H948 C962 0.930 . S
H949 C964 0.960 . S
H950 C964 0.960 . S
H951 C964 0.960 . S
C952 H944 0.929 . S
C952 C953 1.377 . S
C952 C954 1.384 . S
C953 C952 1.377 . S
C953 C959 1.390 . S
C954 H945 0.930 . S
C954 C952 1.384 . S
C954 C955 1.372 . S
C955 C954 1.372 . S
C955 C956 1.413 . S
C955 C960 1.490 . S
C956 H946 0.911 1_554 S
C956 C955 1.413 . S
C956 C959 1.391 . S
H957 C973 0.930 . S
H958 C974 0.931 . S
C959 H947 0.929 1_554 S
C959 C953 1.390 . S
C959 C956 1.391 . S
C960 C955 1.490 . S
C960 C962 1.395 . S
C960 C963 1.403 1_554 S
H961 C967 0.930 . S
C962 H948 0.930 . S
C962 C960 1.395 . S
C962 C965 1.403 . S
C963 C960 1.403 1_556 S
C963 C964 1.524 . S
C963 C967 1.400 . S
C964 H949 0.960 . S
C964 H950 0.960 . S
C964 H951 0.960 . S
C964 C963 1.524 . S
C965 C962 1.403 . S
C965 C966 1.392 1_554 S
C965 C969 1.495 . S
C966 C965 1.392 1_556 S
C966 C967 1.385 . S
C966 C968 1.478 . S
C967 H961 0.930 . S
C967 C963 1.400 . S
C967 C966 1.385 . S
C968 C966 1.478 . S
C968 C970 1.381 1_556 S
C968 C974 1.383 . S
C969 C965 1.495 . S
C969 H975 0.959 . S
C969 H976 0.961 . S
C969 H977 0.960 . S
C970 C968 1.381 1_554 S
C970 C971 1.394 1_554 S
C970 H978 0.930 . S
C971 C970 1.394 1_556 S
C971 C972 1.383 . S
C971 H979 0.929 1_556 S
C972 C971 1.383 . S
C972 C973 1.377 . S
C973 H957 0.930 . S
C973 C972 1.377 . S
C973 C974 1.379 . S
C974 H958 0.931 . S
C974 C968 1.383 . S
C974 C973 1.379 . S
H975 C969 0.959 . S
H976 C969 0.961 . S
H977 C969 0.960 . S
H978 C970 0.930 . S
H979 C971 0.929 1_554 S
H980 C988 0.929 . S
H981 C990 0.930 . S
H982 C992 0.930 . S
H983 C995 0.929 1_554 S
H984 C998 0.930 . S
H985 C1000 0.960 . S
H986 C1000 0.960 . S
H987 C1000 0.960 . S
C988 H980 0.929 . S
C988 C989 1.377 . S
C988 C990 1.384 . S
C989 C988 1.377 . S
C989 C995 1.390 . S
C990 H981 0.930 . S
C990 C988 1.384 . S
C990 C991 1.372 . S
C991 C990 1.372 . S
C991 C992 1.400 1_556 S
C991 C996 1.490 . S
C992 H982 0.930 . S
C992 C991 1.400 1_554 S
C992 C995 1.386 1_554 S
H993 C1009 0.930 . S
H994 C1010 0.931 . S
C995 H983 0.929 1_556 S
C995 C989 1.390 . S
C995 C992 1.386 1_556 S
C996 C991 1.490 . S
C996 C998 1.395 . S
C996 C999 1.403 1_556 S
H997 C1003 0.930 . S
C998 H984 0.930 . S
C998 C996 1.395 . S
C998 C1001 1.403 . S
C999 C996 1.403 1_554 S
C999 C1000 1.524 . S
C999 C1003 1.400 . S
C1000 H985 0.960 . S
C1000 H986 0.960 . S
C1000 H987 0.960 . S
C1000 C999 1.524 . S
C1001 C998 1.403 . S
C1001 C1002 1.392 1_556 S
C1001 C1005 1.495 . S
C1002 C1001 1.392 1_554 S
C1002 C1003 1.385 . S
C1002 C1004 1.478 . S
C1003 H997 0.930 . S
C1003 C999 1.400 . S
C1003 C1002 1.385 . S
C1004 C1002 1.478 . S
C1004 C1006 1.381 1_554 S
C1004 C1010 1.383 . S
C1005 C1001 1.495 . S
C1005 H1011 0.959 . S
C1005 H1012 0.961 . S
C1005 H1013 0.960 . S
C1006 C1004 1.381 1_556 S
C1006 C1007 1.394 1_556 S
C1006 H1014 0.930 . S
C1007 C1006 1.394 1_554 S
C1007 C1008 1.383 . S
C1007 H1015 0.929 1_554 S
C1008 C1007 1.383 . S
C1008 C1009 1.377 . S
C1009 H993 0.930 . S
C1009 C1008 1.377 . S
C1009 C1010 1.379 . S
C1010 H994 0.931 . S
C1010 C1004 1.383 . S
C1010 C1009 1.379 . S
H1011 C1005 0.959 . S
H1012 C1005 0.961 . S
H1013 C1005 0.960 . S
H1014 C1006 0.930 . S
H1015 C1007 0.929 1_556 S
H1016 C1024 0.925 1_554 S
H1017 C1026 0.917 1_554 S
H1018 C1028 0.930 . S
H1019 C1031 0.929 . S
H1020 C1034 0.930 . S
H1021 C1036 0.960 . S
H1022 C1036 0.960 . S
H1023 C1036 0.960 . S
C1024 H1016 0.925 1_556 S
C1024 C1025 1.377 . S
C1024 C1026 1.389 . S
C1025 C1024 1.377 . S
C1025 C1031 1.390 . S
C1026 H1017 0.917 1_556 S
C1026 C1024 1.389 . S
C1026 C1027 1.380 . S
C1027 C1026 1.380 . S
C1027 C1028 1.400 . S
C1027 C1032 1.490 . S
C1028 H1018 0.930 . S
C1028 C1027 1.400 . S
C1028 C1031 1.386 . S
H1029 C1045 0.930 . S
H1030 C1046 0.931 1_556 S
C1031 H1019 0.929 . S
C1031 C1025 1.390 . S
C1031 C1028 1.386 . S
C1032 C1027 1.490 . S
C1032 C1034 1.395 1_556 S
C1032 C1035 1.403 . S
H1033 C1039 0.930 . S
C1034 H1020 0.930 . S
C1034 C1032 1.395 1_554 S
C1034 C1037 1.403 . S
C1035 C1032 1.403 . S
C1035 C1036 1.524 . S
C1035 C1039 1.400 . S
C1036 H1021 0.960 . S
C1036 H1022 0.960 . S
C1036 H1023 0.960 . S
C1036 C1035 1.524 . S
C1037 C1034 1.403 . S
C1037 C1038 1.392 . S
C1037 C1041 1.495 . S
C1038 C1037 1.392 . S
C1038 C1039 1.385 1_554 S
C1038 C1040 1.478 . S
C1039 H1033 0.930 . S
C1039 C1035 1.400 . S
C1039 C1038 1.385 1_556 S
C1040 C1038 1.478 . S
C1040 C1042 1.381 . S
C1040 C1046 1.383 . S
C1041 C1037 1.495 . S
C1041 H1047 0.959 . S
C1041 H1048 0.961 . S
C1041 H1049 0.960 . S
C1042 C1040 1.381 . S
C1042 C1043 1.394 . S
C1042 H1050 0.930 . S
C1043 C1042 1.394 . S
C1043 C1044 1.383 . S
C1043 H1051 0.929 . S
C1044 C1043 1.383 . S
C1044 C1045 1.377 . S
C1045 H1029 0.930 . S
C1045 C1044 1.377 . S
C1045 C1046 1.379 . S
C1046 H1030 0.931 1_554 S
C1046 C1040 1.383 . S
C1046 C1045 1.379 . S
H1047 C1041 0.959 . S
H1048 C1041 0.961 . S
H1049 C1041 0.960 . S
H1050 C1042 0.930 . S
H1051 C1043 0.929 . S
H1052 C1060 0.929 . S
H1053 C1062 0.930 . S
H1054 C1064 0.930 1_554 S
H1055 C1067 0.929 . S
H1056 C1070 0.930 . S
H1057 C1072 0.960 . S
H1058 C1072 0.960 . S
H1059 C1072 0.960 . S
C1060 H1052 0.929 . S
C1060 C1061 1.377 . S
C1060 C1062 1.384 . S
C1061 C1060 1.377 . S
C1061 C1067 1.390 . S
C1062 H1053 0.930 . S
C1062 C1060 1.384 . S
C1062 C1063 1.372 . S
C1063 C1062 1.372 . S
C1063 C1064 1.400 . S
C1063 C1068 1.490 . S
C1064 H1054 0.930 1_556 S
C1064 C1063 1.400 . S
C1064 C1067 1.386 . S
H1065 C1081 0.930 . S
H1066 C1082 0.931 . S
C1067 H1055 0.929 . S
C1067 C1061 1.390 . S
C1067 C1064 1.386 . S
C1068 C1063 1.490 . S
C1068 C1070 1.395 . S
C1068 C1071 1.403 1_556 S
H1069 C1075 0.930 . S
C1070 H1056 0.930 . S
C1070 C1068 1.395 . S
C1070 C1073 1.403 . S
C1071 C1068 1.403 1_554 S
C1071 C1072 1.524 . S
C1071 C1075 1.400 . S
C1072 H1057 0.960 . S
C1072 H1058 0.960 . S
C1072 H1059 0.960 . S
C1072 C1071 1.524 . S
C1073 C1070 1.403 . S
C1073 C1074 1.392 1_556 S
C1073 C1077 1.495 . S
C1074 C1073 1.392 1_554 S
C1074 C1075 1.385 . S
C1074 C1076 1.478 . S
C1075 H1069 0.930 . S
C1075 C1071 1.400 . S
C1075 C1074 1.385 . S
C1076 C1074 1.478 . S
C1076 C1078 1.381 . S
C1076 C1082 1.383 . S
C1077 C1073 1.495 . S
C1077 H1083 0.959 . S
C1077 H1084 0.961 . S
C1077 H1085 0.960 . S
C1078 C1076 1.381 . S
C1078 C1079 1.394 . S
C1078 H1086 0.930 1_554 S
C1079 C1078 1.394 . S
C1079 C1080 1.383 . S
C1079 H1087 0.929 . S
C1080 C1079 1.383 . S
C1080 C1081 1.377 . S
C1081 H1065 0.930 . S
C1081 C1080 1.377 . S
C1081 C1082 1.379 . S
C1082 H1066 0.931 . S
C1082 C1076 1.383 . S
C1082 C1081 1.379 . S
H1083 C1077 0.959 . S
H1084 C1077 0.961 . S
H1085 C1077 0.960 . S
H1086 C1078 0.930 1_556 S
H1087 C1079 0.929 . S
H1088 C1096 0.929 . S
H1089 C1098 0.930 . S
H1090 C1100 0.930 . S
H1091 C1103 0.929 . S
H1092 C1106 0.930 . S
H1093 C1108 0.960 . S
H1094 C1108 0.960 . S
H1095 C1108 0.960 . S
C1096 H1088 0.929 . S
C1096 C1097 1.377 . S
C1096 C1098 1.384 . S
C1097 C1096 1.377 . S
C1097 C1103 1.390 . S
C1098 H1089 0.930 . S
C1098 C1096 1.384 . S
C1098 C1099 1.372 . S
C1099 C1098 1.372 . S
C1099 C1100 1.400 . S
C1099 C1104 1.490 . S
C1100 H1090 0.930 . S
C1100 C1099 1.400 . S
C1100 C1103 1.386 . S
H1101 C1117 0.930 . S
H1102 C1118 0.931 . S
C1103 H1091 0.929 . S
C1103 C1097 1.390 . S
C1103 C1100 1.386 . S
C1104 C1099 1.490 . S
C1104 C1106 1.395 . S
C1104 C1107 1.403 . S
H1105 C1111 0.930 . S
C1106 H1092 0.930 . S
C1106 C1104 1.395 . S
C1106 C1109 1.403 . S
C1107 C1104 1.403 . S
C1107 C1108 1.524 . S
C1107 C1111 1.400 . S
C1108 H1093 0.960 . S
C1108 H1094 0.960 . S
C1108 H1095 0.960 . S
C1108 C1107 1.524 . S
C1109 C1106 1.403 . S
C1109 C1110 1.392 . S
C1109 C1113 1.495 . S
C1110 C1109 1.392 . S
C1110 C1111 1.385 . S
C1110 C1112 1.478 . S
C1111 H1105 0.930 . S
C1111 C1107 1.400 . S
C1111 C1110 1.385 . S
C1112 C1110 1.478 . S
C1112 C1114 1.381 . S
C1112 C1118 1.383 . S
C1113 C1109 1.495 . S
C1113 H1119 0.959 . S
C1113 H1120 0.961 . S
C1113 H1121 0.960 . S
C1114 C1112 1.381 . S
C1114 C1115 1.394 . S
C1114 H1122 0.930 . S
C1115 C1114 1.394 . S
C1115 C1116 1.383 . S
C1115 H1123 0.929 . S
C1116 C1115 1.383 . S
C1116 C1117 1.377 . S
C1117 H1101 0.930 . S
C1117 C1116 1.377 . S
C1117 C1118 1.379 . S
C1118 H1102 0.931 . S
C1118 C1112 1.383 . S
C1118 C1117 1.379 . S
H1119 C1113 0.959 . S
H1120 C1113 0.961 . S
H1121 C1113 0.960 . S
H1122 C1114 0.930 . S
H1123 C1115 0.929 . S
H1124 C1132 0.929 . S
H1125 C1134 0.930 . S
H1126 C1136 0.930 . S
H1127 C1139 0.929 . S
H1128 C1142 0.930 . S
H1129 C1144 0.960 . S
H1130 C1144 0.960 . S
H1131 C1144 0.960 . S
C1132 H1124 0.929 . S
C1132 C1133 1.377 . S
C1132 C1134 1.384 . S
C1133 C1132 1.377 . S
C1133 C1139 1.390 . S
C1134 H1125 0.930 . S
C1134 C1132 1.384 . S
C1134 C1135 1.372 . S
C1135 C1134 1.372 . S
C1135 C1136 1.400 . S
C1135 C1140 1.490 . S
C1136 H1126 0.930 . S
C1136 C1135 1.400 . S
C1136 C1139 1.386 . S
H1137 C1153 0.930 . S
H1138 C1154 0.931 . S
C1139 H1127 0.929 . S
C1139 C1133 1.390 . S
C1139 C1136 1.386 . S
C1140 C1135 1.490 . S
C1140 C1142 1.395 . S
C1140 C1143 1.403 . S
H1141 C1147 0.930 . S
C1142 H1128 0.930 . S
C1142 C1140 1.395 . S
C1142 C1145 1.403 . S
C1143 C1140 1.403 . S
C1143 C1144 1.524 . S
C1143 C1147 1.400 . S
C1144 H1129 0.960 . S
C1144 H1130 0.960 . S
C1144 H1131 0.960 . S
C1144 C1143 1.524 . S
C1145 C1142 1.403 . S
C1145 C1146 1.392 . S
C1145 C1149 1.495 . S
C1146 C1145 1.392 . S
C1146 C1147 1.385 . S
C1146 C1148 1.478 . S
C1147 H1141 0.930 . S
C1147 C1143 1.400 . S
C1147 C1146 1.385 . S
C1148 C1146 1.478 . S
C1148 C1150 1.381 . S
C1148 C1154 1.383 . S
C1149 C1145 1.495 . S
C1149 H1155 0.959 . S
C1149 H1156 0.961 . S
C1149 H1157 0.960 . S
C1150 C1148 1.381 . S
C1150 C1151 1.394 . S
C1150 H1158 0.930 . S
C1151 C1150 1.394 . S
C1151 C1152 1.383 . S
C1151 H1159 0.929 . S
C1152 C1151 1.383 . S
C1152 C1153 1.377 . S
C1153 H1137 0.930 . S
C1153 C1152 1.377 . S
C1153 C1154 1.379 . S
C1154 H1138 0.931 . S
C1154 C1148 1.383 . S
C1154 C1153 1.379 . S
H1155 C1149 0.959 . S
H1156 C1149 0.961 . S
H1157 C1149 0.960 . S
H1158 C1150 0.930 . S
H1159 C1151 0.929 . S
H1160 C1168 0.929 . S
H1161 C1170 0.930 . S
H1162 C1172 0.930 . S
H1163 C1175 0.929 . S
H1164 C1178 0.930 . S
H1165 C1180 0.960 . S
H1166 C1180 0.960 . S
H1167 C1180 0.960 . S
C1168 H1160 0.929 . S
C1168 C1169 1.377 . S
C1168 C1170 1.384 . S
C1169 C1168 1.377 . S
C1169 C1175 1.390 . S
C1170 H1161 0.930 . S
C1170 C1168 1.384 . S
C1170 C1171 1.372 . S
C1171 C1170 1.372 . S
C1171 C1172 1.400 . S
C1171 C1176 1.490 . S
C1172 H1162 0.930 . S
C1172 C1171 1.400 . S
C1172 C1175 1.386 . S
H1173 C1189 0.930 . S
H1174 C1190 0.931 . S
C1175 H1163 0.929 . S
C1175 C1169 1.390 . S
C1175 C1172 1.386 . S
C1176 C1171 1.490 . S
C1176 C1178 1.395 . S
C1176 C1179 1.403 . S
H1177 C1183 0.930 . S
C1178 H1164 0.930 . S
C1178 C1176 1.395 . S
C1178 C1181 1.403 . S
C1179 C1176 1.403 . S
C1179 C1180 1.524 . S
C1179 C1183 1.400 . S
C1180 H1165 0.960 . S
C1180 H1166 0.960 . S
C1180 H1167 0.960 . S
C1180 C1179 1.524 . S
C1181 C1178 1.403 . S
C1181 C1182 1.392 . S
C1181 C1185 1.495 . S
C1182 C1181 1.392 . S
C1182 C1183 1.385 . S
C1182 C1184 1.478 . S
C1183 H1177 0.930 . S
C1183 C1179 1.400 . S
C1183 C1182 1.385 . S
C1184 C1182 1.478 . S
C1184 C1186 1.381 . S
C1184 C1190 1.383 . S
C1185 C1181 1.495 . S
C1185 H1191 0.959 . S
C1185 H1192 0.961 . S
C1185 H1193 0.960 . S
C1186 C1184 1.381 . S
C1186 C1187 1.394 . S
C1186 H1194 0.930 . S
C1187 C1186 1.394 . S
C1187 C1188 1.383 . S
C1187 H1195 0.929 . S
C1188 C1187 1.383 . S
C1188 C1189 1.377 . S
C1189 H1173 0.930 . S
C1189 C1188 1.377 . S
C1189 C1190 1.379 . S
C1190 H1174 0.931 . S
C1190 C1184 1.383 . S
C1190 C1189 1.379 . S
H1191 C1185 0.959 . S
H1192 C1185 0.961 . S
H1193 C1185 0.960 . S
H1194 C1186 0.930 . S
H1195 C1187 0.929 . S
H1196 C1204 0.929 . S
H1197 C1206 0.930 . S
H1198 C1208 0.930 . S
H1199 C1211 0.929 . S
H1200 C1214 0.930 . S
H1201 C1216 0.960 . S
H1202 C1216 0.960 . S
H1203 C1216 0.960 . S
C1204 H1196 0.929 . S
C1204 C1205 1.377 . S
C1204 C1206 1.384 . S
C1205 C1204 1.377 . S
C1205 C1211 1.390 . S
C1206 H1197 0.930 . S
C1206 C1204 1.384 . S
C1206 C1207 1.372 . S
C1207 C1206 1.372 . S
C1207 C1208 1.400 . S
C1207 C1212 1.490 . S
C1208 H1198 0.930 . S
C1208 C1207 1.400 . S
C1208 C1211 1.386 . S
H1209 C1225 0.930 . S
H1210 C1226 0.931 . S
C1211 H1199 0.929 . S
C1211 C1205 1.390 . S
C1211 C1208 1.386 . S
C1212 C1207 1.490 . S
C1212 C1214 1.395 . S
C1212 C1215 1.403 . S
H1213 C1219 0.930 . S
C1214 H1200 0.930 . S
C1214 C1212 1.395 . S
C1214 C1217 1.403 . S
C1215 C1212 1.403 . S
C1215 C1216 1.524 . S
C1215 C1219 1.400 . S
C1216 H1201 0.960 . S
C1216 H1202 0.960 . S
C1216 H1203 0.960 . S
C1216 C1215 1.524 . S
C1217 C1214 1.403 . S
C1217 C1218 1.392 . S
C1217 C1221 1.495 . S
C1218 C1217 1.392 . S
C1218 C1219 1.385 . S
C1218 C1220 1.478 . S
C1219 H1213 0.930 . S
C1219 C1215 1.400 . S
C1219 C1218 1.385 . S
C1220 C1218 1.478 . S
C1220 C1222 1.381 . S
C1220 C1226 1.383 . S
C1221 C1217 1.495 . S
C1221 H1227 0.959 . S
C1221 H1228 0.961 . S
C1221 H1229 0.960 . S
C1222 C1220 1.381 . S
C1222 C1223 1.394 . S
C1222 H1230 0.930 . S
C1223 C1222 1.394 . S
C1223 C1224 1.383 . S
C1223 H1231 0.929 . S
C1224 C1223 1.383 . S
C1224 C1225 1.377 . S
C1225 H1209 0.930 . S
C1225 C1224 1.377 . S
C1225 C1226 1.379 . S
C1226 H1210 0.931 . S
C1226 C1220 1.383 . S
C1226 C1225 1.379 . S
H1227 C1221 0.959 . S
H1228 C1221 0.961 . S
H1229 C1221 0.960 . S
H1230 C1222 0.930 . S
H1231 C1223 0.929 . S
H1232 C1240 0.929 . S
H1233 C1242 0.930 . S
H1234 C1244 0.930 . S
H1235 C1247 0.929 . S
H1236 C1250 0.930 . S
H1237 C1252 0.960 . S
H1238 C1252 0.960 . S
H1239 C1252 0.960 . S
C1240 H1232 0.929 . S
C1240 C1241 1.377 . S
C1240 C1242 1.384 . S
C1241 C1240 1.377 . S
C1241 C1247 1.390 . S
C1242 H1233 0.930 . S
C1242 C1240 1.384 . S
C1242 C1243 1.372 . S
C1243 C1242 1.372 . S
C1243 C1244 1.400 . S
C1243 C1248 1.490 . S
C1244 H1234 0.930 . S
C1244 C1243 1.400 . S
C1244 C1247 1.386 . S
H1245 C1261 0.930 . S
H1246 C1262 0.931 . S
C1247 H1235 0.929 . S
C1247 C1241 1.390 . S
C1247 C1244 1.386 . S
C1248 C1243 1.490 . S
C1248 C1250 1.395 . S
C1248 C1251 1.403 1_556 S
H1249 C1255 0.930 . S
C1250 H1236 0.930 . S
C1250 C1248 1.395 . S
C1250 C1253 1.403 . S
C1251 C1248 1.403 1_554 S
C1251 C1252 1.524 . S
C1251 C1255 1.400 . S
C1252 H1237 0.960 . S
C1252 H1238 0.960 . S
C1252 H1239 0.960 . S
C1252 C1251 1.524 . S
C1253 C1250 1.403 . S
C1253 C1254 1.392 1_556 S
C1253 C1257 1.495 . S
C1254 C1253 1.392 1_554 S
C1254 C1255 1.385 . S
C1254 C1256 1.478 . S
C1255 H1249 0.930 . S
C1255 C1251 1.400 . S
C1255 C1254 1.385 . S
C1256 C1254 1.478 . S
C1256 C1258 1.381 . S
C1256 C1262 1.383 . S
C1257 C1253 1.495 . S
C1257 H1263 0.959 . S
C1257 H1264 0.961 . S
C1257 H1265 0.960 . S
C1258 C1256 1.381 . S
C1258 C1259 1.394 . S
C1258 H1266 0.930 . S
C1259 C1258 1.394 . S
C1259 C1260 1.383 . S
C1259 H1267 0.929 . S
C1260 C1259 1.383 . S
C1260 C1261 1.377 . S
C1261 H1245 0.930 . S
C1261 C1260 1.377 . S
C1261 C1262 1.379 . S
C1262 H1246 0.931 . S
C1262 C1256 1.383 . S
C1262 C1261 1.379 . S
H1263 C1257 0.959 . S
H1264 C1257 0.961 . S
H1265 C1257 0.960 . S
H1266 C1258 0.930 . S
H1267 C1259 0.929 . S
H1268 C1276 0.929 . S
H1269 C1278 0.930 . S
H1270 C1280 0.917 1_554 S
H1271 C1283 0.929 1_554 S
H1272 C1286 0.930 . S
H1273 C1288 0.960 . S
H1274 C1288 0.960 1_556 S
H1275 C1288 0.960 . S
C1276 H1268 0.929 . S
C1276 C1277 1.377 . S
C1276 C1278 1.384 . S
C1277 C1276 1.377 . S
C1277 C1283 1.390 . S
C1278 H1269 0.930 . S
C1278 C1276 1.384 . S
C1278 C1279 1.372 . S
C1279 C1278 1.372 . S
C1279 C1280 1.409 . S
C1279 C1284 1.490 . S
C1280 H1270 0.917 1_556 S
C1280 C1279 1.409 . S
C1280 C1283 1.389 . S
H1281 C1297 0.930 . S
H1282 C1298 0.931 . S
C1283 H1271 0.929 1_556 S
C1283 C1277 1.390 . S
C1283 C1280 1.389 . S
C1284 C1279 1.490 . S
C1284 C1286 1.395 . S
C1284 C1287 1.403 1_556 S
H1285 C1291 0.930 . S
C1286 H1272 0.930 . S
C1286 C1284 1.395 . S
C1286 C1289 1.403 . S
C1287 C1284 1.403 1_554 S
C1287 C1288 1.524 . S
C1287 C1291 1.400 . S
C1288 H1273 0.960 . S
C1288 H1274 0.960 1_554 S
C1288 H1275 0.960 . S
C1288 C1287 1.524 . S
C1289 C1286 1.403 . S
C1289 C1290 1.392 1_556 S
C1289 C1293 1.495 . S
C1290 C1289 1.392 1_554 S
C1290 C1291 1.385 . S
C1290 C1292 1.478 . S
C1291 H1285 0.930 . S
C1291 C1287 1.400 . S
C1291 C1290 1.385 . S
C1292 C1290 1.478 . S
C1292 C1294 1.381 1_554 S
C1292 C1298 1.383 . S
C1293 C1289 1.495 . S
C1293 H1299 0.959 . S
C1293 H1300 0.961 . S
C1293 H1301 0.960 . S
C1294 C1292 1.381 1_556 S
C1294 C1295 1.394 1_556 S
C1294 H1302 0.930 . S
C1295 C1294 1.394 1_554 S
C1295 C1296 1.383 . S
C1295 H1303 0.929 1_554 S
C1296 C1295 1.383 . S
C1296 C1297 1.377 . S
C1297 H1281 0.930 . S
C1297 C1296 1.377 . S
C1297 C1298 1.379 . S
C1298 H1282 0.931 . S
C1298 C1292 1.383 . S
C1298 C1297 1.379 . S
H1299 C1293 0.959 . S
H1300 C1293 0.961 . S
H1301 C1293 0.960 . S
H1302 C1294 0.930 . S
H1303 C1295 0.929 1_556 S
H1304 C1312 0.929 . S
H1305 C1314 0.930 . S
H1306 C1316 0.930 . S
H1307 C1319 0.929 . S
H1308 C1322 0.930 . S
H1309 C1324 0.960 . S
H1310 C1324 0.960 . S
H1311 C1324 0.960 . S
C1312 H1304 0.929 . S
C1312 C1313 1.377 . S
C1312 C1314 1.384 . S
C1313 C1312 1.377 . S
C1313 C1319 1.390 . S
C1314 H1305 0.930 . S
C1314 C1312 1.384 . S
C1314 C1315 1.372 . S
C1315 C1314 1.372 . S
C1315 C1316 1.400 . S
C1315 C1320 1.490 . S
C1316 H1306 0.930 . S
C1316 C1315 1.400 . S
C1316 C1319 1.386 . S
H1317 C1333 0.930 . S
H1318 C1334 0.931 . S
C1319 H1307 0.929 . S
C1319 C1313 1.390 . S
C1319 C1316 1.386 . S
C1320 C1315 1.490 . S
C1320 C1322 1.395 1_556 S
C1320 C1323 1.403 . S
H1321 C1327 0.930 . S
C1322 H1308 0.930 . S
C1322 C1320 1.395 1_554 S
C1322 C1325 1.403 . S
C1323 C1320 1.403 . S
C1323 C1324 1.524 . S
C1323 C1327 1.400 . S
C1324 H1309 0.960 . S
C1324 H1310 0.960 . S
C1324 H1311 0.960 . S
C1324 C1323 1.524 . S
C1325 C1322 1.403 . S
C1325 C1326 1.392 . S
C1325 C1329 1.495 . S
C1326 C1325 1.392 . S
C1326 C1327 1.385 1_554 S
C1326 C1328 1.478 . S
C1327 H1321 0.930 . S
C1327 C1323 1.400 . S
C1327 C1326 1.385 1_556 S
C1328 C1326 1.478 . S
C1328 C1330 1.381 . S
C1328 C1334 1.383 . S
C1329 C1325 1.495 . S
C1329 H1335 0.959 . S
C1329 H1336 0.961 . S
C1329 H1337 0.960 . S
C1330 C1328 1.381 . S
C1330 C1331 1.394 . S
C1330 H1338 0.930 . S
C1331 C1330 1.394 . S
C1331 C1332 1.383 . S
C1331 H1339 0.929 . S
C1332 C1331 1.383 . S
C1332 C1333 1.377 . S
C1333 H1317 0.930 . S
C1333 C1332 1.377 . S
C1333 C1334 1.379 . S
C1334 H1318 0.931 . S
C1334 C1328 1.383 . S
C1334 C1333 1.379 . S
H1335 C1329 0.959 . S
H1336 C1329 0.961 . S
H1337 C1329 0.960 . S
H1338 C1330 0.930 . S
H1339 C1331 0.929 . S
H1340 C1348 0.929 . S
H1341 C1350 0.930 . S
H1342 C1352 0.930 . S
H1343 C1355 0.929 1_556 S
H1344 C1358 0.930 . S
H1345 C1360 0.960 . S
H1346 C1360 0.960 . S
H1347 C1360 0.960 . S
C1348 H1340 0.929 . S
C1348 C1349 1.377 . S
C1348 C1350 1.384 . S
C1349 C1348 1.377 . S
C1349 C1355 1.390 . S
C1350 H1341 0.930 . S
C1350 C1348 1.384 . S
C1350 C1351 1.372 . S
C1351 C1350 1.372 . S
C1351 C1352 1.400 1_554 S
C1351 C1356 1.490 . S
C1352 H1342 0.930 . S
C1352 C1351 1.400 1_556 S
C1352 C1355 1.386 1_556 S
H1353 C1369 0.930 . S
H1354 C1370 0.931 . S
C1355 H1343 0.929 1_554 S
C1355 C1349 1.390 . S
C1355 C1352 1.386 1_554 S
C1356 C1351 1.490 . S
C1356 C1358 1.395 . S
C1356 C1359 1.403 1_554 S
H1357 C1363 0.930 . S
C1358 H1344 0.930 . S
C1358 C1356 1.395 . S
C1358 C1361 1.403 . S
C1359 C1356 1.403 1_556 S
C1359 C1360 1.524 . S
C1359 C1363 1.400 . S
C1360 H1345 0.960 . S
C1360 H1346 0.960 . S
C1360 H1347 0.960 . S
C1360 C1359 1.524 . S
C1361 C1358 1.403 . S
C1361 C1362 1.392 1_554 S
C1361 C1365 1.495 . S
C1362 C1361 1.392 1_556 S
C1362 C1363 1.385 . S
C1362 C1364 1.478 . S
C1363 H1357 0.930 . S
C1363 C1359 1.400 . S
C1363 C1362 1.385 . S
C1364 C1362 1.478 . S
C1364 C1366 1.381 1_556 S
C1364 C1370 1.383 . S
C1365 C1361 1.495 . S
C1365 H1371 0.959 . S
C1365 H1372 0.961 . S
C1365 H1373 0.960 . S
C1366 C1364 1.381 1_554 S
C1366 C1367 1.394 1_554 S
C1366 H1374 0.930 . S
C1367 C1366 1.394 1_556 S
C1367 C1368 1.383 . S
C1367 H1375 0.929 1_556 S
C1368 C1367 1.383 . S
C1368 C1369 1.377 . S
C1369 H1353 0.930 . S
C1369 C1368 1.377 . S
C1369 C1370 1.379 . S
C1370 H1354 0.931 . S
C1370 C1364 1.383 . S
C1370 C1369 1.379 . S
H1371 C1365 0.959 . S
H1372 C1365 0.961 . S
H1373 C1365 0.960 . S
H1374 C1366 0.930 . S
H1375 C1367 0.929 1_554 S
H1376 C1384 0.929 . S
H1377 C1386 0.930 . S
H1378 C1388 0.930 . S
H1379 C1391 0.929 . S
H1380 C1394 0.930 . S
H1381 C1396 0.960 . S
H1382 C1396 0.960 . S
H1383 C1396 0.960 . S
C1384 H1376 0.929 . S
C1384 C1385 1.377 . S
C1384 C1386 1.384 . S
C1385 C1384 1.377 . S
C1385 C1391 1.390 . S
C1386 H1377 0.930 . S
C1386 C1384 1.384 . S
C1386 C1387 1.372 . S
C1387 C1386 1.372 . S
C1387 C1388 1.400 . S
C1387 C1392 1.490 . S
C1388 H1378 0.930 . S
C1388 C1387 1.400 . S
C1388 C1391 1.386 . S
H1389 C1405 0.930 . S
H1390 C1406 0.931 . S
C1391 H1379 0.929 . S
C1391 C1385 1.390 . S
C1391 C1388 1.386 . S
C1392 C1387 1.490 . S
C1392 C1394 1.395 . S
C1392 C1395 1.403 . S
H1393 C1399 0.930 . S
C1394 H1380 0.930 . S
C1394 C1392 1.395 . S
C1394 C1397 1.403 . S
C1395 C1392 1.403 . S
C1395 C1396 1.524 . S
C1395 C1399 1.400 . S
C1396 H1381 0.960 . S
C1396 H1382 0.960 . S
C1396 H1383 0.960 . S
C1396 C1395 1.524 . S
C1397 C1394 1.403 . S
C1397 C1398 1.392 . S
C1397 C1401 1.495 . S
C1398 C1397 1.392 . S
C1398 C1399 1.385 . S
C1398 C1400 1.478 . S
C1399 H1393 0.930 . S
C1399 C1395 1.400 . S
C1399 C1398 1.385 . S
C1400 C1398 1.478 . S
C1400 C1402 1.381 . S
C1400 C1406 1.383 . S
C1401 C1397 1.495 . S
C1401 H1407 0.959 . S
C1401 H1408 0.961 . S
C1401 H1409 0.960 . S
C1402 C1400 1.381 . S
C1402 C1403 1.394 . S
C1402 H1410 0.930 . S
C1403 C1402 1.394 . S
C1403 C1404 1.383 . S
C1403 H1411 0.929 . S
C1404 C1403 1.383 . S
C1404 C1405 1.377 . S
C1405 H1389 0.930 . S
C1405 C1404 1.377 . S
C1405 C1406 1.379 . S
C1406 H1390 0.931 . S
C1406 C1400 1.383 . S
C1406 C1405 1.379 . S
H1407 C1401 0.959 . S
H1408 C1401 0.961 . S
H1409 C1401 0.960 . S
H1410 C1402 0.930 . S
H1411 C1403 0.929 . S
H1412 C1420 0.929 . S
H1413 C1422 0.930 . S
H1414 C1424 0.930 . S
H1415 C1427 0.929 . S
H1416 C1430 0.930 . S
H1417 C1432 0.960 . S
H1418 C1432 0.960 . S
H1419 C1432 0.960 . S
C1420 H1412 0.929 . S
C1420 C1421 1.377 . S
C1420 C1422 1.384 . S
C1421 C1420 1.377 . S
C1421 C1427 1.390 . S
C1422 H1413 0.930 . S
C1422 C1420 1.384 . S
C1422 C1423 1.372 . S
C1423 C1422 1.372 . S
C1423 C1424 1.400 . S
C1423 C1428 1.490 . S
C1424 H1414 0.930 . S
C1424 C1423 1.400 . S
C1424 C1427 1.386 . S
H1425 C1441 0.930 . S
H1426 C1442 0.931 . S
C1427 H1415 0.929 . S
C1427 C1421 1.390 . S
C1427 C1424 1.386 . S
C1428 C1423 1.490 . S
C1428 C1430 1.395 . S
C1428 C1431 1.403 . S
H1429 C1435 0.930 . S
C1430 H1416 0.930 . S
C1430 C1428 1.395 . S
C1430 C1433 1.403 . S
C1431 C1428 1.403 . S
C1431 C1432 1.524 . S
C1431 C1435 1.400 . S
C1432 H1417 0.960 . S
C1432 H1418 0.960 . S
C1432 H1419 0.960 . S
C1432 C1431 1.524 . S
C1433 C1430 1.403 . S
C1433 C1434 1.392 . S
C1433 C1437 1.495 . S
C1434 C1433 1.392 . S
C1434 C1435 1.385 . S
C1434 C1436 1.478 . S
C1435 H1429 0.930 . S
C1435 C1431 1.400 . S
C1435 C1434 1.385 . S
C1436 C1434 1.478 . S
C1436 C1438 1.381 . S
C1436 C1442 1.383 . S
C1437 C1433 1.495 . S
C1437 H1443 0.959 . S
C1437 H1444 0.961 . S
C1437 H1445 0.960 . S
C1438 C1436 1.381 . S
C1438 C1439 1.394 . S
C1438 H1446 0.930 . S
C1439 C1438 1.394 . S
C1439 C1440 1.383 . S
C1439 H1447 0.929 . S
C1440 C1439 1.383 . S
C1440 C1441 1.377 . S
C1441 H1425 0.930 . S
C1441 C1440 1.377 . S
C1441 C1442 1.379 . S
C1442 H1426 0.931 . S
C1442 C1436 1.383 . S
C1442 C1441 1.379 . S
H1443 C1437 0.959 . S
H1444 C1437 0.961 . S
H1445 C1437 0.960 . S
H1446 C1438 0.930 . S
H1447 C1439 0.929 . S
H1448 C1456 0.929 . S
H1449 C1458 0.930 . S
H1450 C1460 0.930 . S
H1451 C1463 0.929 . S
H1452 C1466 0.930 . S
H1453 C1468 0.960 . S
H1454 C1468 0.960 . S
H1455 C1468 0.960 . S
C1456 H1448 0.929 . S
C1456 C1457 1.377 . S
C1456 C1458 1.384 . S
C1457 C1456 1.377 . S
C1457 C1463 1.390 . S
C1458 H1449 0.930 . S
C1458 C1456 1.384 . S
C1458 C1459 1.372 . S
C1459 C1458 1.372 . S
C1459 C1460 1.400 . S
C1459 C1464 1.490 . S
C1460 H1450 0.930 . S
C1460 C1459 1.400 . S
C1460 C1463 1.386 . S
H1461 C1477 0.930 . S
H1462 C1478 0.931 . S
C1463 H1451 0.929 . S
C1463 C1457 1.390 . S
C1463 C1460 1.386 . S
C1464 C1459 1.490 . S
C1464 C1466 1.395 . S
C1464 C1467 1.403 . S
H1465 C1471 0.930 . S
C1466 H1452 0.930 . S
C1466 C1464 1.395 . S
C1466 C1469 1.403 . S
C1467 C1464 1.403 . S
C1467 C1468 1.524 . S
C1467 C1471 1.400 . S
C1468 H1453 0.960 . S
C1468 H1454 0.960 . S
C1468 H1455 0.960 . S
C1468 C1467 1.524 . S
C1469 C1466 1.403 . S
C1469 C1470 1.392 . S
C1469 C1473 1.495 . S
C1470 C1469 1.392 . S
C1470 C1471 1.385 . S
C1470 C1472 1.478 . S
C1471 H1465 0.930 . S
C1471 C1467 1.400 . S
C1471 C1470 1.385 . S
C1472 C1470 1.478 . S
C1472 C1474 1.381 . S
C1472 C1478 1.383 . S
C1473 C1469 1.495 . S
C1473 H1479 0.959 . S
C1473 H1480 0.961 . S
C1473 H1481 0.960 . S
C1474 C1472 1.381 . S
C1474 C1475 1.394 . S
C1474 H1482 0.930 . S
C1475 C1474 1.394 . S
C1475 C1476 1.383 . S
C1475 H1483 0.929 . S
C1476 C1475 1.383 . S
C1476 C1477 1.377 . S
C1477 H1461 0.930 . S
C1477 C1476 1.377 . S
C1477 C1478 1.379 . S
C1478 H1462 0.931 . S
C1478 C1472 1.383 . S
C1478 C1477 1.379 . S
H1479 C1473 0.959 . S
H1480 C1473 0.961 . S
H1481 C1473 0.960 . S
H1482 C1474 0.930 . S
H1483 C1475 0.929 . S
H1484 C1492 0.929 . S
H1485 C1494 0.930 . S
H1486 C1496 0.930 . S
H1487 C1499 0.929 . S
H1488 C1502 0.930 . S
H1489 C1504 0.960 . S
H1490 C1504 0.960 . S
H1491 C1504 0.960 . S
C1492 H1484 0.929 . S
C1492 C1493 1.377 . S
C1492 C1494 1.384 . S
C1493 C1492 1.377 . S
C1493 C1499 1.390 . S
C1494 H1485 0.930 . S
C1494 C1492 1.384 . S
C1494 C1495 1.372 . S
C1495 C1494 1.372 . S
C1495 C1496 1.400 . S
C1495 C1500 1.490 . S
C1496 H1486 0.930 . S
C1496 C1495 1.400 . S
C1496 C1499 1.386 . S
H1497 C1513 0.930 . S
H1498 C1514 0.931 . S
C1499 H1487 0.929 . S
C1499 C1493 1.390 . S
C1499 C1496 1.386 . S
C1500 C1495 1.490 . S
C1500 C1502 1.395 . S
C1500 C1503 1.403 . S
H1501 C1507 0.930 . S
C1502 H1488 0.930 . S
C1502 C1500 1.395 . S
C1502 C1505 1.403 . S
C1503 C1500 1.403 . S
C1503 C1504 1.524 . S
C1503 C1507 1.400 . S
C1504 H1489 0.960 . S
C1504 H1490 0.960 . S
C1504 H1491 0.960 . S
C1504 C1503 1.524 . S
C1505 C1502 1.403 . S
C1505 C1506 1.392 . S
C1505 C1509 1.495 . S
C1506 C1505 1.392 . S
C1506 C1507 1.385 . S
C1506 C1508 1.478 . S
C1507 H1501 0.930 . S
C1507 C1503 1.400 . S
C1507 C1506 1.385 . S
C1508 C1506 1.478 . S
C1508 C1510 1.381 . S
C1508 C1514 1.383 . S
C1509 C1505 1.495 . S
C1509 H1515 0.959 . S
C1509 H1516 0.961 . S
C1509 H1517 0.960 . S
C1510 C1508 1.381 . S
C1510 C1511 1.394 . S
C1510 H1518 0.930 . S
C1511 C1510 1.394 . S
C1511 C1512 1.383 . S
C1511 H1519 0.929 . S
C1512 C1511 1.383 . S
C1512 C1513 1.377 . S
C1513 H1497 0.930 . S
C1513 C1512 1.377 . S
C1513 C1514 1.379 . S
C1514 H1498 0.931 . S
C1514 C1508 1.383 . S
C1514 C1513 1.379 . S
H1515 C1509 0.959 . S
H1516 C1509 0.961 . S
H1517 C1509 0.960 . S
H1518 C1510 0.930 . S
H1519 C1511 0.929 . S
H1520 C1528 0.929 . S
H1521 C1530 0.930 1_554 S
H1522 C1532 0.930 . S
H1523 C1535 0.929 . S
H1524 C1538 0.930 . S
H1525 C1540 0.965 . S
H1526 C1540 0.960 1_554 S
H1527 C1540 0.960 . S
C1528 H1520 0.929 . S
C1528 C1529 1.377 . S
C1528 C1530 1.384 . S
C1529 C1528 1.377 . S
C1529 C1535 1.390 . S
C1530 H1521 0.930 1_556 S
C1530 C1528 1.384 . S
C1530 C1531 1.372 . S
C1531 C1530 1.372 . S
C1531 C1532 1.400 . S
C1531 C1536 1.490 . S
C1532 H1522 0.930 . S
C1532 C1531 1.400 . S
C1532 C1535 1.386 . S
H1533 C1549 0.930 . S
H1534 C1550 0.931 1_556 S
C1535 H1523 0.929 . S
C1535 C1529 1.390 . S
C1535 C1532 1.386 . S
C1536 C1531 1.490 . S
C1536 C1538 1.395 . S
C1536 C1539 1.403 . S
H1537 C1543 0.930 . S
C1538 H1524 0.930 . S
C1538 C1536 1.395 . S
C1538 C1541 1.403 1_566 S
C1539 C1536 1.403 . S
C1539 C1540 1.524 . S
C1539 C1543 1.400 1_566 S
C1540 H1525 0.965 . S
C1540 H1526 0.960 1_556 S
C1540 H1527 0.960 . S
C1540 C1539 1.524 . S
C1541 C1538 1.403 1_544 S
C1541 C1542 1.392 . S
C1541 C1545 1.495 . S
C1542 C1541 1.392 . S
C1542 C1543 1.385 . S
C1542 C1544 1.478 . S
C1543 H1537 0.930 . S
C1543 C1539 1.400 1_544 S
C1543 C1542 1.385 . S
C1544 C1542 1.478 . S
C1544 C1546 1.381 . S
C1544 C1550 1.383 . S
C1545 C1541 1.495 . S
C1545 H1551 0.959 . S
C1545 H1552 0.961 1_554 S
C1545 H1553 0.960 . S
C1546 C1544 1.381 . S
C1546 C1547 1.394 . S
C1546 H1554 0.930 . S
C1547 C1546 1.394 . S
C1547 C1548 1.383 . S
C1547 H1555 0.929 . S
C1548 C1547 1.383 . S
C1548 C1549 1.377 . S
C1549 H1533 0.930 . S
C1549 C1548 1.377 . S
C1549 C1550 1.379 . S
C1550 H1534 0.931 1_554 S
C1550 C1544 1.383 . S
C1550 C1549 1.379 . S
H1551 C1545 0.959 . S
H1552 C1545 0.961 1_556 S
H1553 C1545 0.960 . S
H1554 C1546 0.930 . S
H1555 C1547 0.929 . S
H1556 C1564 0.929 . S
H1557 C1566 0.930 . S
H1558 C1568 0.930 . S
H1559 C1571 0.929 . S
H1560 C1574 0.930 . S
H1561 C1576 0.960 . S
H1562 C1576 0.960 . S
H1563 C1576 0.960 . S
C1564 H1556 0.929 . S
C1564 C1565 1.377 . S
C1564 C1566 1.384 . S
C1565 C1564 1.377 . S
C1565 C1571 1.390 . S
C1566 H1557 0.930 . S
C1566 C1564 1.384 . S
C1566 C1567 1.372 . S
C1567 C1566 1.372 . S
C1567 C1568 1.400 . S
C1567 C1572 1.490 . S
C1568 H1558 0.930 . S
C1568 C1567 1.400 . S
C1568 C1571 1.386 . S
H1569 C1585 0.930 . S
H1570 C1586 0.931 . S
C1571 H1559 0.929 . S
C1571 C1565 1.390 . S
C1571 C1568 1.386 . S
C1572 C1567 1.490 . S
C1572 C1574 1.395 1_554 S
C1572 C1575 1.403 . S
H1573 C1579 0.930 . S
C1574 H1560 0.930 . S
C1574 C1572 1.395 1_556 S
C1574 C1577 1.403 . S
C1575 C1572 1.403 . S
C1575 C1576 1.524 . S
C1575 C1579 1.400 . S
C1576 H1561 0.960 . S
C1576 H1562 0.960 . S
C1576 H1563 0.960 . S
C1576 C1575 1.524 . S
C1577 C1574 1.403 . S
C1577 C1578 1.392 . S
C1577 C1581 1.495 . S
C1578 C1577 1.392 . S
C1578 C1579 1.385 1_556 S
C1578 C1580 1.478 . S
C1579 H1573 0.930 . S
C1579 C1575 1.400 . S
C1579 C1578 1.385 1_554 S
C1580 C1578 1.478 . S
C1580 C1582 1.381 . S
C1580 C1586 1.383 . S
C1581 C1577 1.495 . S
C1581 H1587 0.959 . S
C1581 H1588 0.961 . S
C1581 H1589 0.960 . S
C1582 C1580 1.381 . S
C1582 C1583 1.394 . S
C1582 H1590 0.930 . S
C1583 C1582 1.394 . S
C1583 C1584 1.383 . S
C1583 H1591 0.929 . S
C1584 C1583 1.383 . S
C1584 C1585 1.377 . S
C1585 H1569 0.930 . S
C1585 C1584 1.377 . S
C1585 C1586 1.379 . S
C1586 H1570 0.931 . S
C1586 C1580 1.383 . S
C1586 C1585 1.379 . S
H1587 C1581 0.959 . S
H1588 C1581 0.961 . S
H1589 C1581 0.960 . S
H1590 C1582 0.930 . S
H1591 C1583 0.929 . S
H1592 C1600 0.929 . S
H1593 C1602 0.930 . S
H1594 C1604 0.930 . S
H1595 C1607 0.929 . S
H1596 C1610 0.930 . S
H1597 C1612 0.960 . S
H1598 C1612 0.960 . S
H1599 C1612 0.960 . S
C1600 H1592 0.929 . S
C1600 C1601 1.377 1_655 S
C1600 C1602 1.384 . S
C1601 C1600 1.377 1_455 S
C1601 C1607 1.390 . S
C1602 H1593 0.930 . S
C1602 C1600 1.384 . S
C1602 C1603 1.372 1_655 S
C1603 C1602 1.372 1_455 S
C1603 C1604 1.400 . S
C1603 C1608 1.493 . S
C1604 H1594 0.930 . S
C1604 C1603 1.400 . S
C1604 C1607 1.386 . S
H1605 C1621 0.930 . S
H1606 C1622 0.931 . S
C1607 H1595 0.929 . S
C1607 C1601 1.390 . S
C1607 C1604 1.386 . S
C1608 C1603 1.493 . S
C1608 C1610 1.381 1_455 S
C1608 C1611 1.414 1_556 S
H1609 C1615 0.930 . S
C1610 H1596 0.930 . S
C1610 C1608 1.381 1_655 S
C1610 C1613 1.403 . S
C1611 C1608 1.414 1_554 S
C1611 C1612 1.524 . S
C1611 C1615 1.400 . S
C1612 H1597 0.960 . S
C1612 H1598 0.960 . S
C1612 H1599 0.960 . S
C1612 C1611 1.524 . S
C1613 C1610 1.403 . S
C1613 C1614 1.392 1_556 S
C1613 C1617 1.495 . S
C1614 C1613 1.392 1_554 S
C1614 C1615 1.385 1_655 S
C1614 C1616 1.478 . S
C1615 H1609 0.930 . S
C1615 C1611 1.400 . S
C1615 C1614 1.385 1_455 S
C1616 C1614 1.478 . S
C1616 C1618 1.381 . S
C1616 C1622 1.383 1_655 S
C1617 C1613 1.495 . S
C1617 H1623 0.959 . S
C1617 H1624 0.961 . S
C1617 H1625 0.960 . S
C1618 C1616 1.381 . S
C1618 C1619 1.394 . S
C1618 H1626 0.930 . S
C1619 C1618 1.394 . S
C1619 C1620 1.383 . S
C1619 H1627 0.929 . S
C1620 C1619 1.383 . S
C1620 C1621 1.377 1_655 S
C1621 H1605 0.930 . S
C1621 C1620 1.377 1_455 S
C1621 C1622 1.379 . S
C1622 H1606 0.931 . S
C1622 C1616 1.383 1_455 S
C1622 C1621 1.379 . S
H1623 C1617 0.959 . S
H1624 C1617 0.961 . S
H1625 C1617 0.960 . S
H1626 C1618 0.930 . S
H1627 C1619 0.929 . S
H1628 C1636 0.929 . S
H1629 C1638 0.930 . S
H1630 C1640 0.930 . S
H1631 C1643 0.929 . S
H1632 C1646 0.930 . S
H1633 C1648 0.960 1_655 S
H1634 C1648 0.960 . S
H1635 C1648 0.960 . S
C1636 H1628 0.929 . S
C1636 C1637 1.377 1_545 S
C1636 C1638 1.384 . S
C1637 C1636 1.377 1_565 S
C1637 C1643 1.390 . S
C1638 H1629 0.930 . S
C1638 C1636 1.384 . S
C1638 C1639 1.372 1_545 S
C1639 C1638 1.372 1_565 S
C1639 C1640 1.400 . S
C1639 C1644 1.493 . S
C1640 H1630 0.930 . S
C1640 C1639 1.400 . S
C1640 C1643 1.386 . S
H1641 C1657 0.930 . S
H1642 C1658 0.931 . S
C1643 H1631 0.929 . S
C1643 C1637 1.390 . S
C1643 C1640 1.386 . S
C1644 C1639 1.493 . S
C1644 C1646 1.383 1_564 S
C1644 C1647 1.411 . S
H1645 C1651 0.930 . S
C1646 H1632 0.930 . S
C1646 C1644 1.383 1_546 S
C1646 C1649 1.360 1_455 S
C1647 C1644 1.411 . S
C1647 C1648 1.524 . S
C1647 C1651 1.400 1_455 S
C1648 H1633 0.960 1_455 S
C1648 H1634 0.960 . S
C1648 H1635 0.960 . S
C1648 C1647 1.524 . S
C1649 C1646 1.360 1_655 S
C1649 C1650 1.433 . S
C1649 C1653 1.498 . S
C1650 C1649 1.433 . S
C1650 C1651 1.385 1_546 S
C1650 C1652 1.478 . S
C1651 H1645 0.930 . S
C1651 C1647 1.400 1_655 S
C1651 C1650 1.385 1_564 S
C1652 C1650 1.478 . S
C1652 C1654 1.381 . S
C1652 C1658 1.383 1_545 S
C1653 C1649 1.498 . S
C1653 H1659 0.959 1_655 S
C1653 H1660 0.961 . S
C1653 H1661 0.960 . S
C1654 C1652 1.381 . S
C1654 C1655 1.394 . S
C1654 H1662 0.930 . S
C1655 C1654 1.394 . S
C1655 C1656 1.383 . S
C1655 H1663 0.929 . S
C1656 C1655 1.383 . S
C1656 C1657 1.377 1_545 S
C1657 H1641 0.930 . S
C1657 C1656 1.377 1_565 S
C1657 C1658 1.379 . S
C1658 H1642 0.931 . S
C1658 C1652 1.383 1_565 S
C1658 C1657 1.379 . S
H1659 C1653 0.959 1_455 S
H1660 C1653 0.961 . S
H1661 C1653 0.960 . S
H1662 C1654 0.930 . S
H1663 C1655 0.929 . S
H1664 C1672 0.929 . S
H1665 C1674 0.930 . S
H1666 C1676 0.930 . S
H1667 C1679 0.929 . S
H1668 C1682 0.930 . S
H1669 C1684 0.960 . S
H1670 C1684 0.960 . S
H1671 C1684 0.960 . S
C1672 H1664 0.929 . S
C1672 C1673 1.377 . S
C1672 C1674 1.384 . S
C1673 C1672 1.377 . S
C1673 C1679 1.390 . S
C1674 H1665 0.930 . S
C1674 C1672 1.384 . S
C1674 C1675 1.372 . S
C1675 C1674 1.372 . S
C1675 C1676 1.400 . S
C1675 C1680 1.490 . S
C1676 H1666 0.930 . S
C1676 C1675 1.400 . S
C1676 C1679 1.386 . S
H1677 C1693 0.930 . S
H1678 C1694 0.931 . S
C1679 H1667 0.929 . S
C1679 C1673 1.390 . S
C1679 C1676 1.386 . S
C1680 C1675 1.490 . S
C1680 C1682 1.395 . S
C1680 C1683 1.403 . S
H1681 C1687 0.930 . S
C1682 H1668 0.930 . S
C1682 C1680 1.395 . S
C1682 C1685 1.403 . S
C1683 C1680 1.403 . S
C1683 C1684 1.524 . S
C1683 C1687 1.400 . S
C1684 H1669 0.960 . S
C1684 H1670 0.960 . S
C1684 H1671 0.960 . S
C1684 C1683 1.524 . S
C1685 C1682 1.403 . S
C1685 C1686 1.392 . S
C1685 C1689 1.495 . S
C1686 C1685 1.392 . S
C1686 C1687 1.385 . S
C1686 C1688 1.478 . S
C1687 H1681 0.930 . S
C1687 C1683 1.400 . S
C1687 C1686 1.385 . S
C1688 C1686 1.478 . S
C1688 C1690 1.381 . S
C1688 C1694 1.383 . S
C1689 C1685 1.495 . S
C1689 H1695 0.959 . S
C1689 H1696 0.961 . S
C1689 H1697 0.960 . S
C1690 C1688 1.381 . S
C1690 C1691 1.394 . S
C1690 H1698 0.930 . S
C1691 C1690 1.394 . S
C1691 C1692 1.383 . S
C1691 H1699 0.929 . S
C1692 C1691 1.383 . S
C1692 C1693 1.377 . S
C1693 H1677 0.930 . S
C1693 C1692 1.377 . S
C1693 C1694 1.379 . S
C1694 H1678 0.931 . S
C1694 C1688 1.383 . S
C1694 C1693 1.379 . S
H1695 C1689 0.959 . S
H1696 C1689 0.961 . S
H1697 C1689 0.960 . S
H1698 C1690 0.930 . S
H1699 C1691 0.929 . S
H1700 C1708 0.929 . S
H1701 C1710 0.930 . S
H1702 C1712 0.930 . S
H1703 C1715 0.929 . S
H1704 C1718 0.930 . S
H1705 C1720 0.960 1_655 S
H1706 C1720 0.960 . S
H1707 C1720 0.960 . S
C1708 H1700 0.929 . S
C1708 C1709 1.377 . S
C1708 C1710 1.384 . S
C1709 C1708 1.377 . S
C1709 C1715 1.390 . S
C1710 H1701 0.930 . S
C1710 C1708 1.384 . S
C1710 C1711 1.372 . S
C1711 C1710 1.372 . S
C1711 C1712 1.400 . S
C1711 C1716 1.490 . S
C1712 H1702 0.930 . S
C1712 C1711 1.400 . S
C1712 C1715 1.386 . S
H1713 C1729 0.930 . S
H1714 C1730 0.931 . S
C1715 H1703 0.929 . S
C1715 C1709 1.390 . S
C1715 C1712 1.386 . S
C1716 C1711 1.490 . S
C1716 C1718 1.395 . S
C1716 C1719 1.403 . S
H1717 C1723 0.930 . S
C1718 H1704 0.930 . S
C1718 C1716 1.395 . S
C1718 C1721 1.403 1_455 S
C1719 C1716 1.403 . S
C1719 C1720 1.524 . S
C1719 C1723 1.400 1_455 S
C1720 H1705 0.960 1_455 S
C1720 H1706 0.960 . S
C1720 H1707 0.960 . S
C1720 C1719 1.524 . S
C1721 C1718 1.403 1_655 S
C1721 C1722 1.392 . S
C1721 C1725 1.495 . S
C1722 C1721 1.392 . S
C1722 C1723 1.385 . S
C1722 C1724 1.478 . S
C1723 H1717 0.930 . S
C1723 C1719 1.400 1_655 S
C1723 C1722 1.385 . S
C1724 C1722 1.478 . S
C1724 C1726 1.381 . S
C1724 C1730 1.383 . S
C1725 C1721 1.495 . S
C1725 H1731 0.959 1_655 S
C1725 H1732 0.961 . S
C1725 H1733 0.960 . S
C1726 C1724 1.381 . S
C1726 C1727 1.394 . S
C1726 H1734 0.930 . S
C1727 C1726 1.394 . S
C1727 C1728 1.383 . S
C1727 H1735 0.929 . S
C1728 C1727 1.383 . S
C1728 C1729 1.377 . S
C1729 H1713 0.930 . S
C1729 C1728 1.377 . S
C1729 C1730 1.379 . S
C1730 H1714 0.931 . S
C1730 C1724 1.383 . S
C1730 C1729 1.379 . S
H1731 C1725 0.959 1_455 S
H1732 C1725 0.961 . S
H1733 C1725 0.960 . S
H1734 C1726 0.930 . S
H1735 C1727 0.929 . S
H1736 C1744 0.929 . S
H1737 C1746 0.930 . S
H1738 C1748 0.926 1_655 S
H1739 C1751 0.930 1_655 S
H1740 C1754 0.930 . S
H1741 C1756 0.960 . S
H1742 C1756 0.960 . S
H1743 C1756 0.960 . S
C1744 H1736 0.929 . S
C1744 C1745 1.377 . S
C1744 C1746 1.384 . S
C1745 C1744 1.377 . S
C1745 C1751 1.390 . S
C1746 H1737 0.930 . S
C1746 C1744 1.384 . S
C1746 C1747 1.372 . S
C1747 C1746 1.372 . S
C1747 C1748 1.403 . S
C1747 C1752 1.490 . S
C1748 H1738 0.926 1_455 S
C1748 C1747 1.403 . S
C1748 C1751 1.387 . S
H1749 C1765 0.930 . S
H1750 C1766 0.931 . S
C1751 H1739 0.930 1_455 S
C1751 C1745 1.390 . S
C1751 C1748 1.387 . S
C1752 C1747 1.490 . S
C1752 C1754 1.395 . S
C1752 C1755 1.403 1_455 S
H1753 C1759 0.930 . S
C1754 H1740 0.930 . S
C1754 C1752 1.395 . S
C1754 C1757 1.403 1_565 S
C1755 C1752 1.403 1_655 S
C1755 C1756 1.524 . S
C1755 C1759 1.400 1_565 S
C1756 H1741 0.960 . S
C1756 H1742 0.960 . S
C1756 H1743 0.960 . S
C1756 C1755 1.524 . S
C1757 C1754 1.403 1_545 S
C1757 C1758 1.392 . S
C1757 C1761 1.495 . S
C1758 C1757 1.392 . S
C1758 C1759 1.385 1_455 S
C1758 C1760 1.478 1_455 S
C1759 H1753 0.930 . S
C1759 C1755 1.400 1_545 S
C1759 C1758 1.385 1_655 S
C1760 C1758 1.478 1_655 S
C1760 C1762 1.380 1_655 S
C1760 C1766 1.382 . S
C1761 C1757 1.495 . S
C1761 H1767 0.959 . S
C1761 H1768 0.961 . S
C1761 H1769 0.960 . S
C1762 C1760 1.380 1_455 S
C1762 C1763 1.388 1_455 S
C1762 H1770 0.941 . S
C1763 C1762 1.388 1_655 S
C1763 C1764 1.383 . S
C1763 H1771 0.929 . S
C1764 C1763 1.383 . S
C1764 C1765 1.377 . S
C1765 H1749 0.930 . S
C1765 C1764 1.377 . S
C1765 C1766 1.379 . S
C1766 H1750 0.931 . S
C1766 C1760 1.382 . S
C1766 C1765 1.379 . S
H1767 C1761 0.959 . S
H1768 C1761 0.961 . S
H1769 C1761 0.960 . S
H1770 C1762 0.941 . S
H1771 C1763 0.929 . S
H1772 C1780 0.929 . S
H1773 C1782 0.930 . S
H1774 C1784 0.930 . S
H1775 C1787 0.929 . S
H1776 C1790 0.930 . S
H1777 C1792 0.960 . S
H1778 C1792 0.960 . S
H1779 C1792 0.960 1_565 S
C1780 H1772 0.929 . S
C1780 C1781 1.377 . S
C1780 C1782 1.384 . S
C1781 C1780 1.377 . S
C1781 C1787 1.390 1_545 S
C1782 H1773 0.930 . S
C1782 C1780 1.384 . S
C1782 C1783 1.372 . S
C1783 C1782 1.372 . S
C1783 C1784 1.400 1_545 S
C1783 C1788 1.490 . S
C1784 H1774 0.930 . S
C1784 C1783 1.400 1_565 S
C1784 C1787 1.386 . S
H1785 C1801 0.930 . S
H1786 C1802 0.931 . S
C1787 H1775 0.929 . S
C1787 C1781 1.390 1_565 S
C1787 C1784 1.386 . S
C1788 C1783 1.490 . S
C1788 C1790 1.395 . S
C1788 C1791 1.403 . S
H1789 C1795 0.930 . S
C1790 H1776 0.930 . S
C1790 C1788 1.395 . S
C1790 C1793 1.403 1_545 S
C1791 C1788 1.403 . S
C1791 C1792 1.524 . S
C1791 C1795 1.403 . S
C1792 H1777 0.960 . S
C1792 H1778 0.960 . S
C1792 H1779 0.960 1_545 S
C1792 C1791 1.524 . S
C1793 C1790 1.403 1_565 S
C1793 C1794 1.392 . S
C1793 C1797 1.495 . S
C1794 C1793 1.392 . S
C1794 C1795 1.383 1_565 S
C1794 C1796 1.478 . S
C1795 H1789 0.930 . S
C1795 C1791 1.403 . S
C1795 C1794 1.383 1_545 S
C1796 C1794 1.478 . S
C1796 C1798 1.381 1_565 S
C1796 C1802 1.383 . S
C1797 C1793 1.495 . S
C1797 H1803 0.959 . S
C1797 H1804 0.961 . S
C1797 H1805 0.960 1_565 S
C1798 C1796 1.381 1_545 S
C1798 C1799 1.394 . S
C1798 H1806 0.930 . S
C1799 C1798 1.394 . S
C1799 C1800 1.383 1_545 S
C1799 H1807 0.929 . S
C1800 C1799 1.383 1_565 S
C1800 C1801 1.377 . S
C1801 H1785 0.930 . S
C1801 C1800 1.377 . S
C1801 C1802 1.379 . S
C1802 H1786 0.931 . S
C1802 C1796 1.383 . S
C1802 C1801 1.379 . S
H1803 C1797 0.959 . S
H1804 C1797 0.961 . S
H1805 C1797 0.960 1_545 S
H1806 C1798 0.930 . S
H1807 C1799 0.929 . S
H1808 C1816 0.929 . S
H1809 C1818 0.930 . S
H1810 C1820 0.930 . S
H1811 C1823 0.929 . S
H1812 C1826 0.930 . S
H1813 C1828 0.960 . S
H1814 C1828 0.960 . S
H1815 C1828 0.960 . S
C1816 H1808 0.929 . S
C1816 C1817 1.377 . S
C1816 C1818 1.384 . S
C1817 C1816 1.377 . S
C1817 C1823 1.390 . S
C1818 H1809 0.930 . S
C1818 C1816 1.384 . S
C1818 C1819 1.372 . S
C1819 C1818 1.372 . S
C1819 C1820 1.400 . S
C1819 C1824 1.490 . S
C1820 H1810 0.930 . S
C1820 C1819 1.400 . S
C1820 C1823 1.386 . S
H1821 C1837 0.930 . S
H1822 C1838 0.931 . S
C1823 H1811 0.929 . S
C1823 C1817 1.390 . S
C1823 C1820 1.386 . S
C1824 C1819 1.490 . S
C1824 C1826 1.395 . S
C1824 C1827 1.403 . S
H1825 C1831 0.930 . S
C1826 H1812 0.930 . S
C1826 C1824 1.395 . S
C1826 C1829 1.403 . S
C1827 C1824 1.403 . S
C1827 C1828 1.524 . S
C1827 C1831 1.400 . S
C1828 H1813 0.960 . S
C1828 H1814 0.960 . S
C1828 H1815 0.960 . S
C1828 C1827 1.524 . S
C1829 C1826 1.403 . S
C1829 C1830 1.392 . S
C1829 C1833 1.495 . S
C1830 C1829 1.392 . S
C1830 C1831 1.385 . S
C1830 C1832 1.478 . S
C1831 H1825 0.930 . S
C1831 C1827 1.400 . S
C1831 C1830 1.385 . S
C1832 C1830 1.478 . S
C1832 C1834 1.381 . S
C1832 C1838 1.383 . S
C1833 C1829 1.495 . S
C1833 H1839 0.959 . S
C1833 H1840 0.961 . S
C1833 H1841 0.960 . S
C1834 C1832 1.381 . S
C1834 C1835 1.394 . S
C1834 H1842 0.930 . S
C1835 C1834 1.394 . S
C1835 C1836 1.383 . S
C1835 H1843 0.929 . S
C1836 C1835 1.383 . S
C1836 C1837 1.377 . S
C1837 H1821 0.930 . S
C1837 C1836 1.377 . S
C1837 C1838 1.379 . S
C1838 H1822 0.931 . S
C1838 C1832 1.383 . S
C1838 C1837 1.379 . S
H1839 C1833 0.959 . S
H1840 C1833 0.961 . S
H1841 C1833 0.960 . S
H1842 C1834 0.930 . S
H1843 C1835 0.929 . S
H1844 C1852 0.929 . S
H1845 C1854 0.930 . S
H1846 C1856 0.930 . S
H1847 C1859 0.929 . S
H1848 C1862 0.930 . S
H1849 C1864 0.960 . S
H1850 C1864 0.960 . S
H1851 C1864 0.960 . S
C1852 H1844 0.929 . S
C1852 C1853 1.377 . S
C1852 C1854 1.384 . S
C1853 C1852 1.377 . S
C1853 C1859 1.390 . S
C1854 H1845 0.930 . S
C1854 C1852 1.384 . S
C1854 C1855 1.372 . S
C1855 C1854 1.372 . S
C1855 C1856 1.400 . S
C1855 C1860 1.490 . S
C1856 H1846 0.930 . S
C1856 C1855 1.400 . S
C1856 C1859 1.386 . S
H1857 C1873 0.930 . S
H1858 C1874 0.931 . S
C1859 H1847 0.929 . S
C1859 C1853 1.390 . S
C1859 C1856 1.386 . S
C1860 C1855 1.490 . S
C1860 C1862 1.395 . S
C1860 C1863 1.403 . S
H1861 C1867 0.930 . S
C1862 H1848 0.930 . S
C1862 C1860 1.395 . S
C1862 C1865 1.403 . S
C1863 C1860 1.403 . S
C1863 C1864 1.524 . S
C1863 C1867 1.400 . S
C1864 H1849 0.960 . S
C1864 H1850 0.960 . S
C1864 H1851 0.960 . S
C1864 C1863 1.524 . S
C1865 C1862 1.403 . S
C1865 C1866 1.392 . S
C1865 C1869 1.495 . S
C1866 C1865 1.392 . S
C1866 C1867 1.385 . S
C1866 C1868 1.478 . S
C1867 H1861 0.930 . S
C1867 C1863 1.400 . S
C1867 C1866 1.385 . S
C1868 C1866 1.478 . S
C1868 C1870 1.381 . S
C1868 C1874 1.383 . S
C1869 C1865 1.495 . S
C1869 H1875 0.959 . S
C1869 H1876 0.961 . S
C1869 H1877 0.960 . S
C1870 C1868 1.381 . S
C1870 C1871 1.394 . S
C1870 H1878 0.930 . S
C1871 C1870 1.394 . S
C1871 C1872 1.383 . S
C1871 H1879 0.929 . S
C1872 C1871 1.383 . S
C1872 C1873 1.377 . S
C1873 H1857 0.930 . S
C1873 C1872 1.377 . S
C1873 C1874 1.379 . S
C1874 H1858 0.931 . S
C1874 C1868 1.383 . S
C1874 C1873 1.379 . S
H1875 C1869 0.959 . S
H1876 C1869 0.961 . S
H1877 C1869 0.960 . S
H1878 C1870 0.930 . S
H1879 C1871 0.929 . S
H1880 C1888 0.929 . S
H1881 C1890 0.930 . S
H1882 C1892 0.960 . S
H1883 C1895 0.923 1_455 S
H1884 C1898 0.930 . S
H1885 C1900 0.960 . S
H1886 C1900 0.960 . S
H1887 C1900 0.960 . S
C1888 H1880 0.929 . S
C1888 C1889 1.377 . S
C1888 C1890 1.384 . S
C1889 C1888 1.377 . S
C1889 C1895 1.390 . S
C1890 H1881 0.930 . S
C1890 C1888 1.384 . S
C1890 C1891 1.372 . S
C1891 C1890 1.372 . S
C1891 C1892 1.400 . S
C1891 C1896 1.490 . S
C1892 H1882 0.960 . S
C1892 C1891 1.400 . S
C1892 C1895 1.386 . S
H1893 C1909 0.930 1_455 S
H1894 C1910 0.931 1_455 S
C1895 H1883 0.923 1_655 S
C1895 C1889 1.390 . S
C1895 C1892 1.386 . S
C1896 C1891 1.490 . S
C1896 C1898 1.395 . S
C1896 C1899 1.403 . S
H1897 C1903 0.930 . S
C1898 H1884 0.930 . S
C1898 C1896 1.395 . S
C1898 C1901 1.403 . S
C1899 C1896 1.403 . S
C1899 C1900 1.524 . S
C1899 C1903 1.400 . S
C1900 H1885 0.960 . S
C1900 H1886 0.960 . S
C1900 H1887 0.960 . S
C1900 C1899 1.524 . S
C1901 C1898 1.403 . S
C1901 C1902 1.392 . S
C1901 C1905 1.495 . S
C1902 C1901 1.392 . S
C1902 C1903 1.385 . S
C1902 C1904 1.478 . S
C1903 H1897 0.930 . S
C1903 C1899 1.400 . S
C1903 C1902 1.385 . S
C1904 C1902 1.478 . S
C1904 C1906 1.381 . S
C1904 C1910 1.383 . S
C1905 C1901 1.495 . S
C1905 H1911 0.959 . S
C1905 H1912 0.961 . S
C1905 H1913 0.960 . S
C1906 C1904 1.381 . S
C1906 C1907 1.394 . S
C1906 H1914 0.930 . S
C1907 C1906 1.394 . S
C1907 C1908 1.383 . S
C1907 H1915 0.929 . S
C1908 C1907 1.383 . S
C1908 C1909 1.377 . S
C1909 H1893 0.930 1_655 S
C1909 C1908 1.377 . S
C1909 C1910 1.379 . S
C1910 H1894 0.931 1_655 S
C1910 C1904 1.383 . S
C1910 C1909 1.379 . S
H1911 C1905 0.959 . S
H1912 C1905 0.961 . S
H1913 C1905 0.960 . S
H1914 C1906 0.930 . S
H1915 C1907 0.929 . S
H1916 C1924 0.929 . S
H1917 C1926 0.930 . S
H1918 C1928 0.930 1_545 S
H1919 C1931 0.929 1_545 S
H1920 C1934 0.930 . S
H1921 C1936 0.960 . S
H1922 C1936 0.960 . S
H1923 C1936 0.955 1_545 S
C1924 H1916 0.929 . S
C1924 C1925 1.377 . S
C1924 C1926 1.384 . S
C1925 C1924 1.377 . S
C1925 C1931 1.390 . S
C1926 H1917 0.930 . S
C1926 C1924 1.384 . S
C1926 C1927 1.372 . S
C1927 C1926 1.372 . S
C1927 C1928 1.400 . S
C1927 C1932 1.490 . S
C1928 H1918 0.930 1_565 S
C1928 C1927 1.400 . S
C1928 C1931 1.386 . S
H1929 C1945 0.930 1_545 S
H1930 C1946 0.931 1_545 S
C1931 H1919 0.929 1_565 S
C1931 C1925 1.390 . S
C1931 C1928 1.386 . S
C1932 C1927 1.490 . S
C1932 C1934 1.395 . S
C1932 C1935 1.403 . S
H1933 C1939 0.930 . S
C1934 H1920 0.930 . S
C1934 C1932 1.395 . S
C1934 C1937 1.403 . S
C1935 C1932 1.403 . S
C1935 C1936 1.524 . S
C1935 C1939 1.400 . S
C1936 H1921 0.960 . S
C1936 H1922 0.960 . S
C1936 H1923 0.955 1_565 S
C1936 C1935 1.524 . S
C1937 C1934 1.403 . S
C1937 C1938 1.392 . S
C1937 C1941 1.495 . S
C1938 C1937 1.392 . S
C1938 C1939 1.385 . S
C1938 C1940 1.478 . S
C1939 H1933 0.930 . S
C1939 C1935 1.400 . S
C1939 C1938 1.385 . S
C1940 C1938 1.478 . S
C1940 C1942 1.381 . S
C1940 C1946 1.383 . S
C1941 C1937 1.495 . S
C1941 H1947 0.959 . S
C1941 H1948 0.961 . S
C1941 H1949 0.960 . S
C1942 C1940 1.381 . S
C1942 C1943 1.394 . S
C1942 H1950 0.930 . S
C1943 C1942 1.394 . S
C1943 C1944 1.383 . S
C1943 H1951 0.929 . S
C1944 C1943 1.383 . S
C1944 C1945 1.377 . S
C1945 H1929 0.930 1_565 S
C1945 C1944 1.377 . S
C1945 C1946 1.379 . S
C1946 H1930 0.931 1_565 S
C1946 C1940 1.383 . S
C1946 C1945 1.379 . S
H1947 C1941 0.959 . S
H1948 C1941 0.961 . S
H1949 C1941 0.960 . S
H1950 C1942 0.930 . S
H1951 C1943 0.929 . S
H1952 C1960 0.929 . S
H1953 C1962 0.930 . S
H1954 C1964 0.930 . S
H1955 C1967 0.929 . S
H1956 C1970 0.930 . S
H1957 C1972 0.960 . S
H1958 C1972 0.960 . S
H1959 C1972 0.960 . S
C1960 H1952 0.929 . S
C1960 C1961 1.377 . S
C1960 C1962 1.384 . S
C1961 C1960 1.377 . S
C1961 C1967 1.390 . S
C1962 H1953 0.930 . S
C1962 C1960 1.384 . S
C1962 C1963 1.372 . S
C1963 C1962 1.372 . S
C1963 C1964 1.400 . S
C1963 C1968 1.490 . S
C1964 H1954 0.930 . S
C1964 C1963 1.400 . S
C1964 C1967 1.386 . S
H1965 C1981 0.930 . S
H1966 C1982 0.931 . S
C1967 H1955 0.929 . S
C1967 C1961 1.390 . S
C1967 C1964 1.386 . S
C1968 C1963 1.490 . S
C1968 C1970 1.395 . S
C1968 C1971 1.403 . S
H1969 C1975 0.930 . S
C1970 H1956 0.930 . S
C1970 C1968 1.395 . S
C1970 C1973 1.403 . S
C1971 C1968 1.403 . S
C1971 C1972 1.524 . S
C1971 C1975 1.400 . S
C1972 H1957 0.960 . S
C1972 H1958 0.960 . S
C1972 H1959 0.960 . S
C1972 C1971 1.524 . S
C1973 C1970 1.403 . S
C1973 C1974 1.392 . S
C1973 C1977 1.495 . S
C1974 C1973 1.392 . S
C1974 C1975 1.385 . S
C1974 C1976 1.478 . S
C1975 H1969 0.930 . S
C1975 C1971 1.400 . S
C1975 C1974 1.385 . S
C1976 C1974 1.478 . S
C1976 C1978 1.381 . S
C1976 C1982 1.383 . S
C1977 C1973 1.495 . S
C1977 H1983 0.959 . S
C1977 H1984 0.961 . S
C1977 H1985 0.960 . S
C1978 C1976 1.381 . S
C1978 C1979 1.394 . S
C1978 H1986 0.930 . S
C1979 C1978 1.394 . S
C1979 C1980 1.383 . S
C1979 H1987 0.929 . S
C1980 C1979 1.383 . S
C1980 C1981 1.377 . S
C1981 H1965 0.930 . S
C1981 C1980 1.377 . S
C1981 C1982 1.379 . S
C1982 H1966 0.931 . S
C1982 C1976 1.383 . S
C1982 C1981 1.379 . S
H1983 C1977 0.959 . S
H1984 C1977 0.961 . S
H1985 C1977 0.960 . S
H1986 C1978 0.930 . S
H1987 C1979 0.929 . S
H1988 C1996 0.929 . S
H1989 C1998 0.930 . S
H1990 C2000 0.930 . S
H1991 C2003 0.929 . S
H1992 C2006 0.930 . S
H1993 C2008 0.960 . S
H1994 C2008 0.960 . S
H1995 C2008 0.960 . S
C1996 H1988 0.929 . S
C1996 C1997 1.377 . S
C1996 C1998 1.384 . S
C1997 C1996 1.377 . S
C1997 C2003 1.390 . S
C1998 H1989 0.930 . S
C1998 C1996 1.384 . S
C1998 C1999 1.372 . S
C1999 C1998 1.372 . S
C1999 C2000 1.400 . S
C1999 C2004 1.490 . S
C2000 H1990 0.930 . S
C2000 C1999 1.400 . S
C2000 C2003 1.386 . S
H2001 C2017 0.930 . S
H2002 C2018 0.931 . S
C2003 H1991 0.929 . S
C2003 C1997 1.390 . S
C2003 C2000 1.386 . S
C2004 C1999 1.490 . S
C2004 C2006 1.395 . S
C2004 C2007 1.403 . S
H2005 C2011 0.930 . S
C2006 H1992 0.930 . S
C2006 C2004 1.395 . S
C2006 C2009 1.403 . S
C2007 C2004 1.403 . S
C2007 C2008 1.524 . S
C2007 C2011 1.400 . S
C2008 H1993 0.960 . S
C2008 H1994 0.960 . S
C2008 H1995 0.960 . S
C2008 C2007 1.524 . S
C2009 C2006 1.403 . S
C2009 C2010 1.392 . S
C2009 C2013 1.495 . S
C2010 C2009 1.392 . S
C2010 C2011 1.385 . S
C2010 C2012 1.478 . S
C2011 H2005 0.930 . S
C2011 C2007 1.400 . S
C2011 C2010 1.385 . S
C2012 C2010 1.478 . S
C2012 C2014 1.381 . S
C2012 C2018 1.383 . S
C2013 C2009 1.495 . S
C2013 H2019 0.959 . S
C2013 H2020 0.961 . S
C2013 H2021 0.960 . S
C2014 C2012 1.381 . S
C2014 C2015 1.394 . S
C2014 H2022 0.930 . S
C2015 C2014 1.394 . S
C2015 C2016 1.383 . S
C2015 H2023 0.929 . S
C2016 C2015 1.383 . S
C2016 C2017 1.377 . S
C2017 H2001 0.930 . S
C2017 C2016 1.377 . S
C2017 C2018 1.379 . S
C2018 H2002 0.931 . S
C2018 C2012 1.383 . S
C2018 C2017 1.379 . S
H2019 C2013 0.959 . S
H2020 C2013 0.961 . S
H2021 C2013 0.960 . S
H2022 C2014 0.930 . S
H2023 C2015 0.929 . S
H2024 C2032 0.929 . S
H2025 C2034 0.930 . S
H2026 C2036 0.930 . S
H2027 C2039 0.929 . S
H2028 C2042 0.930 . S
H2029 C2044 0.960 1_655 S
H2030 C2044 0.960 1_655 S
H2031 C2044 0.960 . S
C2032 H2024 0.929 . S
C2032 C2033 1.377 . S
C2032 C2034 1.384 . S
C2033 C2032 1.377 . S
C2033 C2039 1.390 . S
C2034 H2025 0.930 . S
C2034 C2032 1.384 . S
C2034 C2035 1.372 . S
C2035 C2034 1.372 . S
C2035 C2036 1.400 . S
C2035 C2040 1.490 . S
C2036 H2026 0.930 . S
C2036 C2035 1.400 . S
C2036 C2039 1.386 . S
H2037 C2053 0.930 . S
H2038 C2054 0.931 . S
C2039 H2027 0.929 . S
C2039 C2033 1.390 . S
C2039 C2036 1.386 . S
C2040 C2035 1.490 . S
C2040 C2042 1.395 . S
C2040 C2043 1.403 . S
H2041 C2047 0.930 . S
C2042 H2028 0.930 . S
C2042 C2040 1.395 . S
C2042 C2045 1.403 . S
C2043 C2040 1.403 . S
C2043 C2044 1.524 . S
C2043 C2047 1.400 . S
C2044 H2029 0.960 1_455 S
C2044 H2030 0.960 1_455 S
C2044 H2031 0.960 . S
C2044 C2043 1.524 . S
C2045 C2042 1.403 . S
C2045 C2046 1.392 . S
C2045 C2049 1.495 . S
C2046 C2045 1.392 . S
C2046 C2047 1.385 . S
C2046 C2048 1.478 . S
C2047 H2041 0.930 . S
C2047 C2043 1.400 . S
C2047 C2046 1.385 . S
C2048 C2046 1.478 . S
C2048 C2050 1.381 . S
C2048 C2054 1.383 . S
C2049 C2045 1.495 . S
C2049 H2055 0.959 . S
C2049 H2056 0.961 . S
C2049 H2057 0.960 . S
C2050 C2048 1.381 . S
C2050 C2051 1.394 . S
C2050 H2058 0.930 . S
C2051 C2050 1.394 . S
C2051 C2052 1.383 . S
C2051 H2059 0.929 . S
C2052 C2051 1.383 . S
C2052 C2053 1.377 . S
C2053 H2037 0.930 . S
C2053 C2052 1.377 . S
C2053 C2054 1.379 . S
C2054 H2038 0.931 . S
C2054 C2048 1.383 . S
C2054 C2053 1.379 . S
H2055 C2049 0.959 . S
H2056 C2049 0.961 . S
H2057 C2049 0.960 . S
H2058 C2050 0.930 . S
H2059 C2051 0.929 . S
H2060 C2068 0.929 1_565 S
H2061 C2070 0.930 1_565 S
H2062 C2072 0.930 . S
H2063 C2075 0.929 . S
H2064 C2078 0.930 . S
H2065 C2080 0.960 . S
H2066 C2080 0.960 . S
H2067 C2080 0.960 . S
C2068 H2060 0.929 1_545 S
C2068 C2069 1.377 . S
C2068 C2070 1.384 . S
C2069 C2068 1.377 . S
C2069 C2075 1.390 . S
C2070 H2061 0.930 1_545 S
C2070 C2068 1.384 . S
C2070 C2071 1.372 . S
C2071 C2070 1.372 . S
C2071 C2072 1.400 . S
C2071 C2076 1.490 . S
C2072 H2062 0.930 . S
C2072 C2071 1.400 . S
C2072 C2075 1.386 . S
H2073 C2089 0.930 . S
H2074 C2090 0.931 . S
C2075 H2063 0.929 . S
C2075 C2069 1.390 . S
C2075 C2072 1.386 . S
C2076 C2071 1.490 . S
C2076 C2078 1.395 . S
C2076 C2079 1.403 . S
H2077 C2083 0.930 . S
C2078 H2064 0.930 . S
C2078 C2076 1.395 . S
C2078 C2081 1.403 . S
C2079 C2076 1.403 . S
C2079 C2080 1.524 . S
C2079 C2083 1.400 . S
C2080 H2065 0.960 . S
C2080 H2066 0.960 . S
C2080 H2067 0.960 . S
C2080 C2079 1.524 . S
C2081 C2078 1.403 . S
C2081 C2082 1.392 . S
C2081 C2085 1.495 1_545 S
C2082 C2081 1.392 . S
C2082 C2083 1.385 . S
C2082 C2084 1.478 . S
C2083 H2077 0.930 . S
C2083 C2079 1.400 . S
C2083 C2082 1.385 . S
C2084 C2082 1.478 . S
C2084 C2086 1.381 . S
C2084 C2090 1.383 . S
C2085 C2081 1.495 1_565 S
C2085 H2091 0.959 . S
C2085 H2092 0.961 1_565 S
C2085 H2093 0.960 . S
C2086 C2084 1.381 . S
C2086 C2087 1.394 . S
C2086 H2094 0.930 1_545 S
C2087 C2086 1.394 . S
C2087 C2088 1.383 . S
C2087 H2095 0.929 1_545 S
C2088 C2087 1.383 . S
C2088 C2089 1.377 . S
C2089 H2073 0.930 . S
C2089 C2088 1.377 . S
C2089 C2090 1.379 . S
C2090 H2074 0.931 . S
C2090 C2084 1.383 . S
C2090 C2089 1.379 . S
H2091 C2085 0.959 . S
H2092 C2085 0.961 1_545 S
H2093 C2085 0.960 . S
H2094 C2086 0.930 1_565 S
H2095 C2087 0.929 1_565 S
C953 C52 0.787 . S
C972 C564 0.798 . S
C989 C623 0.785 . S
C1008 C111 0.782 . S
C1025 C682 0.788 . S
C1044 C170 0.778 . S
C1061 C505 0.786 . S
C1080 C229 0.796 . S
C1097 C288 0.781 . S
C1116 C918 0.776 . S
C1133 C741 0.789 . S
C1152 C347 0.795 . S
C1169 C800 0.789 . S
C1188 C406 0.810 . S
C1205 C859 0.786 . S
C1224 C465 0.794 . S
C1241 C524 0.786 . S
C1260 C92 0.800 . S
C1277 C583 0.781 . S
C1296 C151 0.787 . S
C1313 C642 0.787 . S
C1332 C210 0.774 . S
C1349 C33 0.787 . S
C1368 C701 0.810 . S
C1385 C760 0.784 . S
C1404 C446 0.799 . S
C1421 C819 0.791 . S
C1440 C269 0.790 . S
C1457 C328 0.785 . S
C1476 C878 0.805 . S
C1493 C937 0.791 . S
C1512 C387 0.792 . S
C1529 C477 1.767 . S
C1548 C5 1.742 . S
C1565 C64 1.775 . S
C1584 C536 1.763 . S
C1601 C595 1.771 . S
C1620 C123 1.746 . S
C1637 C182 1.775 . S
C1656 C654 1.767 . S
C1673 C713 1.776 . S
C1692 C241 1.783 . S
C1709 C300 1.775 . S
C1728 C772 1.789 . S
C1745 C831 1.775 . S
C1764 C359 1.789 . S
C1781 C890 1.767 . S
C1800 C418 1.771 . S
C1817 C239 1.705 . S
C1836 C3 1.699 . S
C1853 C298 1.703 . S
C1872 C62 1.713 . S
C1889 C121 1.705 . S
C1908 C357 1.719 . S
C1925 C416 1.707 . S
C1944 C180 1.711 . S
C1961 C475 1.702 . S
C1980 C711 1.680 . S
C1997 C770 1.703 . S
C2016 C534 1.694 . S
C2033 C829 1.709 . S
C2052 C593 1.703 . S
C2069 C888 1.710 . S
C2088 C652 1.725 . S
