# Generated by pormake.
# Topology ume, (4)-cn, num edge types: 1
# Building blocks:
#     Node 0, Type 0, BuildingBlock: QUQFOY_clean_sbu_1, # of connection points: 4
#     Node 1, Type 0, BuildingBlock: QUQFOY_clean_sbu_1, # of connection points: 4
#     Node 2, Type 0, BuildingBlock: QUQFOY_clean_sbu_1, # of connection points: 4
#     Node 3, Type 0, BuildingBlock: QUQFOY_clean_sbu_1, # of connection points: 4
#     Node 4, Type 0, BuildingBlock: QUQFOY_clean_sbu_1, # of connection points: 4
#     Node 5, Type 0, BuildingBlock: QUQFOY_clean_sbu_1, # of connection points: 4
#     Node 6, Type 0, BuildingBlock: QUQFOY_clean_sbu_1, # of connection points: 4
#     Node 7, Type 0, BuildingBlock: QUQFOY_clean_sbu_1, # of connection points: 4
#     Node 8, Type 0, BuildingBlock: QUQFOY_clean_sbu_1, # of connection points: 4
#     Node 9, Type 0, BuildingBlock: QUQFOY_clean_sbu_1, # of connection points: 4
#     Node 10, Type 0, BuildingBlock: QUQFOY_clean_sbu_1, # of connection points: 4
#     Node 11, Type 0, BuildingBlock: QUQFOY_clean_sbu_1, # of connection points: 4
#     Node 12, Type 0, BuildingBlock: QUQFOY_clean_sbu_1, # of connection points: 4
#     Node 13, Type 0, BuildingBlock: QUQFOY_clean_sbu_1, # of connection points: 4
#     Node 14, Type 0, BuildingBlock: QUQFOY_clean_sbu_1, # of connection points: 4
#     Node 15, Type 0, BuildingBlock: QUQFOY_clean_sbu_1, # of connection points: 4
#     Edge 16, Type (0, 0), BuildingBlock: TEMPAE_clean_linker_10, # of connection points: 2
#     Edge 17, Type (0, 0), BuildingBlock: TEMPAE_clean_linker_10, # of connection points: 2
#     Edge 18, Type (0, 0), BuildingBlock: TEMPAE_clean_linker_10, # of connection points: 2
#     Edge 19, Type (0, 0), BuildingBlock: TEMPAE_clean_linker_10, # of connection points: 2
#     Edge 20, Type (0, 0), BuildingBlock: TEMPAE_clean_linker_10, # of connection points: 2
#     Edge 21, Type (0, 0), BuildingBlock: TEMPAE_clean_linker_10, # of connection points: 2
#     Edge 22, Type (0, 0), BuildingBlock: TEMPAE_clean_linker_10, # of connection points: 2
#     Edge 23, Type (0, 0), BuildingBlock: TEMPAE_clean_linker_10, # of connection points: 2
#     Edge 24, Type (0, 0), BuildingBlock: TEMPAE_clean_linker_10, # of connection points: 2
#     Edge 25, Type (0, 0), BuildingBlock: TEMPAE_clean_linker_10, # of connection points: 2
#     Edge 26, Type (0, 0), BuildingBlock: TEMPAE_clean_linker_10, # of connection points: 2
#     Edge 27, Type (0, 0), BuildingBlock: TEMPAE_clean_linker_10, # of connection points: 2
#     Edge 28, Type (0, 0), BuildingBlock: TEMPAE_clean_linker_10, # of connection points: 2
#     Edge 29, Type (0, 0), BuildingBlock: TEMPAE_clean_linker_10, # of connection points: 2
#     Edge 30, Type (0, 0), BuildingBlock: TEMPAE_clean_linker_10, # of connection points: 2
#     Edge 31, Type (0, 0), BuildingBlock: TEMPAE_clean_linker_10, # of connection points: 2
#     Edge 32, Type (0, 0), BuildingBlock: TEMPAE_clean_linker_10, # of connection points: 2
#     Edge 33, Type (0, 0), BuildingBlock: TEMPAE_clean_linker_10, # of connection points: 2
#     Edge 34, Type (0, 0), BuildingBlock: TEMPAE_clean_linker_10, # of connection points: 2
#     Edge 35, Type (0, 0), BuildingBlock: TEMPAE_clean_linker_10, # of connection points: 2
#     Edge 36, Type (0, 0), BuildingBlock: TEMPAE_clean_linker_10, # of connection points: 2
#     Edge 37, Type (0, 0), BuildingBlock: TEMPAE_clean_linker_10, # of connection points: 2
#     Edge 38, Type (0, 0), BuildingBlock: TEMPAE_clean_linker_10, # of connection points: 2
#     Edge 39, Type (0, 0), BuildingBlock: TEMPAE_clean_linker_10, # of connection points: 2
#     Edge 40, Type (0, 0), BuildingBlock: TEMPAE_clean_linker_10, # of connection points: 2
#     Edge 41, Type (0, 0), BuildingBlock: TEMPAE_clean_linker_10, # of connection points: 2
#     Edge 42, Type (0, 0), BuildingBlock: TEMPAE_clean_linker_10, # of connection points: 2
#     Edge 43, Type (0, 0), BuildingBlock: TEMPAE_clean_linker_10, # of connection points: 2
#     Edge 44, Type (0, 0), BuildingBlock: TEMPAE_clean_linker_10, # of connection points: 2
#     Edge 45, Type (0, 0), BuildingBlock: TEMPAE_clean_linker_10, # of connection points: 2
#     Edge 46, Type (0, 0), BuildingBlock: TEMPAE_clean_linker_10, # of connection points: 2
#     Edge 47, Type (0, 0), BuildingBlock: TEMPAE_clean_linker_10, # of connection points: 2
# Relax obj value: 0.052
# Max RMSD: 0.121
# Mean RMSD: 0.121
data_MOF--net-ume--node1-QUQFOY_clean_sbu_1--edge1-TEMPAE_clean_linker_10
_symmetry_space_group_name_H-M    P1
_symmetry_Int_Tables_number       1
_symmetry_cell_setting            triclinic
loop_
_symmetry_equiv_pos_as_xyz
'x, y, z'
_cell_length_a     29.065453
_cell_length_b     29.070512
_cell_length_c     116.65904
_cell_angle_alpha  89.983784
_cell_angle_beta   90.005152
_cell_angle_gamma 89.943719
loop_
_atom_site_label
_atom_site_type_symbol
_atom_site_fract_x
_atom_site_fract_y
_atom_site_fract_z
_atom_type_partial_charge
O0 O 0.23911 0.10758 0.33756 0.0
Cd1 Cd 0.23907 0.07257 0.32219 0.0
Cd2 Cd 0.28332 0.15081 0.3157 0.0
O3 O 0.27023 0.17352 0.33225 0.0
O4 O 0.19004 0.02488 0.32411 0.0
O5 O 0.18475 0.0815 0.31156 0.0
C6 C 0.16608 0.04632 0.31649 0.0
C7 C 0.27146 0.19363 0.29908 0.0
C8 C 0.2526 0.14805 0.33996 0.0
C9 C 0.33705 0.0615 0.31495 0.0
O10 O 0.33666 0.10495 0.31389 0.0
O11 O 0.30069 0.04001 0.31786 0.0
O12 O 0.30447 0.2032 0.30607 0.0
O13 O 0.24251 0.16202 0.30202 0.0
O14 O 0.90752 0.74337 0.58739 0.0
Cd15 Cd 0.93864 0.74449 0.57132 0.0
Cd16 Cd 0.85852 0.7857 0.56707 0.0
O17 O 0.83677 0.76474 0.58299 0.0
O18 O 0.98939 0.69789 0.57268 0.0
O19 O 0.93012 0.6888 0.56109 0.0
C20 C 0.96736 0.67224 0.56552 0.0
C21 C 0.82132 0.77375 0.54972 0.0
C22 C 0.866 0.75096 0.59034 0.0
C23 C 0.94293 0.84459 0.56617 0.0
O24 O 0.89961 0.84285 0.56739 0.0
O25 O 0.96667 0.80768 0.56607 0.0
O26 O 0.80652 0.80396 0.55695 0.0
O27 O 0.85535 0.74774 0.55273 0.0
O28 O 0.27241 0.40658 0.83723 0.0
Cd29 Cd 0.26861 0.43714 0.82119 0.0
Cd30 Cd 0.22899 0.3562 0.81706 0.0
O31 O 0.25499 0.33511 0.83263 0.0
O32 O 0.31383 0.48935 0.82219 0.0
O33 O 0.32407 0.4295 0.81086 0.0
C34 C 0.3399 0.46728 0.81513 0.0
C35 C 0.24597 0.32677 0.79907 0.0
C36 C 0.26795 0.36449 0.84002 0.0
C37 C 0.16715 0.43755 0.81654 0.0
O38 O 0.16967 0.3943 0.81799 0.0
O39 O 0.20372 0.46181 0.81608 0.0
O40 O 0.22001 0.30415 0.80608 0.0
O41 O 0.26462 0.36451 0.80262 0.0
O42 O 0.61338 0.77477 0.0877 0.0
Cd43 Cd 0.57793 0.77333 0.0724 0.0
Cd44 Cd 0.65656 0.72923 0.06606 0.0
O45 O 0.67966 0.74402 0.08248 0.0
O46 O 0.52968 0.82198 0.07425 0.0
O47 O 0.58597 0.82729 0.06161 0.0
C48 C 0.55074 0.84587 0.06655 0.0
C49 C 0.69835 0.74156 0.04931 0.0
C50 C 0.65413 0.76211 0.09012 0.0
C51 C 0.56778 0.67468 0.06557 0.0
O52 O 0.61125 0.67527 0.06452 0.0
O53 O 0.546 0.71112 0.06831 0.0
O54 O 0.70888 0.7088 0.05629 0.0
O55 O 0.66623 0.76991 0.05229 0.0
O56 O 0.25426 0.40261 0.92764 0.0
Cd57 Cd 0.25884 0.435 0.94331 0.0
Cd58 Cd 0.29534 0.35209 0.94888 0.0
O59 O 0.2758 0.33239 0.9325 0.0
O60 O 0.21458 0.48797 0.94207 0.0
O61 O 0.20407 0.42961 0.95388 0.0
C62 C 0.18863 0.4672 0.9494 0.0
C63 C 0.27233 0.32008 0.96619 0.0
C64 C 0.26152 0.36081 0.925 0.0
C65 C 0.35923 0.43285 0.94981 0.0
O66 O 0.35509 0.38934 0.95007 0.0
O67 O 0.32435 0.45846 0.9479 0.0
O68 O 0.3006 0.29842 0.95955 0.0
O69 O 0.25443 0.35804 0.96253 0.0
O70 O 0.61322 0.74811 0.1773 0.0
Cd71 Cd 0.58016 0.75398 0.19285 0.0
Cd72 Cd 0.6631 0.79005 0.19848 0.0
O73 O 0.6836 0.76826 0.18231 0.0
O74 O 0.52705 0.70995 0.19164 0.0
O75 O 0.58495 0.69973 0.20361 0.0
C76 C 0.5475 0.68423 0.19909 0.0
C77 C 0.69405 0.76801 0.21599 0.0
C78 C 0.65535 0.75404 0.17477 0.0
C79 C 0.58265 0.85478 0.1989 0.0
O80 O 0.62616 0.85034 0.19921 0.0
O81 O 0.5569 0.81992 0.19715 0.0
O82 O 0.71629 0.79552 0.2093 0.0
O83 O 0.65601 0.7504 0.21232 0.0
O84 O 0.27705 0.11074 0.42789 0.0
Cd85 Cd 0.27464 0.0799 0.44398 0.0
Cd86 Cd 0.2329 0.15998 0.44781 0.0
O87 O 0.25625 0.18179 0.43208 0.0
O88 O 0.32093 0.0288 0.44275 0.0
O89 O 0.33013 0.08809 0.45431 0.0
C90 C 0.34659 0.05076 0.44991 0.0
C91 C 0.2443 0.19618 0.46531 0.0
C92 C 0.27048 0.15233 0.42485 0.0
C93 C 0.17405 0.07564 0.44856 0.0
O94 O 0.17568 0.11885 0.4471 0.0
O95 O 0.21108 0.05216 0.44905 0.0
O96 O 0.21459 0.21166 0.45804 0.0
O97 O 0.27 0.16194 0.4623 0.0
O98 O 0.90731 0.7749 0.67844 0.0
Cd99 Cd 0.9367 0.77265 0.69463 0.0
Cd100 Cd 0.85578 0.73313 0.69861 0.0
O101 O 0.83554 0.75776 0.68284 0.0
O102 O 0.98861 0.81821 0.69366 0.0
O103 O 0.92792 0.82862 0.70471 0.0
C104 C 0.96587 0.84448 0.70055 0.0
C105 C 0.82533 0.75026 0.71649 0.0
C106 C 0.86545 0.76995 0.67549 0.0
C107 C 0.93732 0.67164 0.69954 0.0
O108 O 0.89415 0.67404 0.69795 0.0
O109 O 0.9615 0.70824 0.70003 0.0
O110 O 0.80321 0.72405 0.70944 0.0
O111 O 0.86303 0.76923 0.71301 0.0
O112 O 0.74442 0.60821 0.83729 0.0
Cd113 Cd 0.74809 0.5789 0.82112 0.0
Cd114 Cd 0.78676 0.66039 0.81729 0.0
O115 O 0.76032 0.68026 0.83292 0.0
O116 O 0.70318 0.52636 0.82193 0.0
O117 O 0.69243 0.58702 0.81089 0.0
C118 C 0.67686 0.54885 0.815 0.0
C119 C 0.7698 0.69074 0.79938 0.0
C120 C 0.74811 0.6502 0.84023 0.0
C121 C 0.84943 0.57965 0.81648 0.0
O122 O 0.84646 0.62277 0.81813 0.0
O123 O 0.81309 0.5551 0.81588 0.0
O124 O 0.79538 0.71321 0.8065 0.0
O125 O 0.7515 0.65259 0.80277 0.0
O126 O 0.40557 0.24718 0.08779 0.0
Cd127 Cd 0.43861 0.25279 0.07223 0.0
Cd128 Cd 0.35579 0.28924 0.06659 0.0
O129 O 0.33528 0.2677 0.08277 0.0
O130 O 0.49157 0.2085 0.07344 0.0
O131 O 0.43362 0.19857 0.06148 0.0
C132 C 0.47104 0.18289 0.06599 0.0
C133 C 0.32456 0.2673 0.0491 0.0
C134 C 0.36348 0.25338 0.09032 0.0
C135 C 0.43645 0.35356 0.06613 0.0
O136 O 0.39293 0.34933 0.06581 0.0
O137 O 0.46209 0.31859 0.06791 0.0
O138 O 0.30251 0.29498 0.0558 0.0
O139 O 0.36257 0.24948 0.05275 0.0
O140 O 0.7647 0.90199 0.33751 0.0
Cd141 Cd 0.75926 0.93439 0.32187 0.0
Cd142 Cd 0.72311 0.85124 0.3164 0.0
O143 O 0.74376 0.83158 0.33271 0.0
O144 O 0.80317 0.98759 0.32303 0.0
O145 O 0.81377 0.92928 0.31121 0.0
C146 C 0.8291 0.96691 0.31567 0.0
C147 C 0.74581 0.81973 0.29901 0.0
C148 C 0.75809 0.8601 0.34017 0.0
C149 C 0.65863 0.9317 0.31559 0.0
O150 O 0.66303 0.8882 0.31538 0.0
O151 O 0.69343 0.95748 0.31738 0.0
O152 O 0.71801 0.79772 0.30568 0.0
O153 O 0.76344 0.85778 0.30267 0.0
O154 O 0.11306 0.26677 0.58675 0.0
Cd155 Cd 0.08242 0.26414 0.57067 0.0
Cd156 Cd 0.16369 0.22435 0.56667 0.0
O157 O 0.18427 0.24595 0.58264 0.0
O158 O 0.03064 0.30961 0.57192 0.0
O159 O 0.08994 0.31988 0.5604 0.0
C160 C 0.05237 0.33575 0.56481 0.0
C161 C 0.20094 0.23735 0.54936 0.0
C162 C 0.15453 0.25992 0.58984 0.0
C163 C 0.08044 0.16369 0.56568 0.0
O164 O 0.12372 0.16643 0.56688 0.0
O165 O 0.0559 0.2001 0.56556 0.0
O166 O 0.21635 0.20747 0.5566 0.0
O167 O 0.16623 0.26249 0.55234 0.0
O168 O 0.75059 0.90352 0.42811 0.0
Cd169 Cd 0.75427 0.93528 0.44405 0.0
Cd170 Cd 0.79385 0.85407 0.44832 0.0
O171 O 0.77107 0.83254 0.43251 0.0
O172 O 0.70875 0.98703 0.44278 0.0
O173 O 0.69912 0.92838 0.45453 0.0
C174 C 0.68301 0.96571 0.45005 0.0
C175 C 0.78095 0.81741 0.46572 0.0
C176 C 0.75683 0.86174 0.42521 0.0
C177 C 0.85496 0.93723 0.4489 0.0
O178 O 0.85204 0.89386 0.44791 0.0
O179 O 0.81861 0.96186 0.4489 0.0
O180 O 0.81072 0.8017 0.45849 0.0
O181 O 0.75602 0.85223 0.46271 0.0
O182 O 0.1061 0.24931 0.67809 0.0
Cd183 Cd 0.07692 0.25271 0.69429 0.0
Cd184 Cd 0.15879 0.29081 0.69818 0.0
O185 O 0.17821 0.26517 0.68244 0.0
O186 O 0.02418 0.208 0.6935 0.0
O187 O 0.08502 0.19693 0.70446 0.0
C188 C 0.0467 0.18157 0.7004 0.0
C189 C 0.18901 0.27288 0.71603 0.0
C190 C 0.14806 0.25321 0.67513 0.0
C191 C 0.07848 0.35386 0.69921 0.0
O192 O 0.12158 0.35069 0.69756 0.0
O193 O 0.05364 0.31768 0.69968 0.0
O194 O 0.21169 0.29861 0.70898 0.0
O195 O 0.15081 0.2549 0.71258 0.0
O196 O 0.77824 0.60815 0.92755 0.0
Cd197 Cd 0.77843 0.57328 0.94294 0.0
Cd198 Cd 0.73416 0.65166 0.94938 0.0
O199 O 0.74688 0.67411 0.9328 0.0
O200 O 0.82744 0.52546 0.94102 0.0
O201 O 0.83287 0.5822 0.95352 0.0
C202 C 0.85148 0.54692 0.94862 0.0
C203 C 0.74631 0.69456 0.96596 0.0
C204 C 0.76455 0.64855 0.92511 0.0
C205 C 0.68054 0.56245 0.95028 0.0
O206 O 0.68091 0.60591 0.95129 0.0
O207 O 0.71687 0.54089 0.94735 0.0
O208 O 0.71319 0.70416 0.959 0.0
O209 O 0.77523 0.6629 0.96301 0.0
O210 O 0.40519 0.27601 0.17736 0.0
Cd211 Cd 0.44074 0.27474 0.19265 0.0
Cd212 Cd 0.36228 0.23043 0.19904 0.0
O213 O 0.33908 0.2451 0.18261 0.0
O214 O 0.48879 0.32348 0.19076 0.0
O215 O 0.43259 0.32874 0.20342 0.0
C216 C 0.46771 0.34736 0.19846 0.0
C217 C 0.32024 0.24225 0.21578 0.0
C218 C 0.36449 0.2632 0.17496 0.0
C219 C 0.45135 0.17615 0.1995 0.0
O220 O 0.4079 0.17665 0.20058 0.0
O221 O 0.47297 0.21262 0.19674 0.0
O222 O 0.31005 0.20954 0.20876 0.0
O223 O 0.35214 0.27086 0.21284 0.0
C224 C 0.89541 0.01945 0.31982 0.0
C225 C 0.87676 0.98321 0.31337 0.0
C226 C 0.94229 0.0309 0.31904 0.0
C227 C 0.9714 1.00584 0.31156 0.0
C228 C 0.95228 0.97093 0.30455 0.0
C229 C 0.90528 0.95988 0.30558 0.0
C230 C 0.96115 0.06827 0.3267 0.0
C231 C 0.98187 0.94378 0.29635 0.0
C232 C 0.09055 0.05693 0.30619 0.0
C233 C 0.11747 0.03297 0.31422 0.0
C234 C 0.04328 0.04741 0.30491 0.0
C235 C 0.0223 0.01346 0.31189 0.0
C236 C 0.04967 0.98823 0.31973 0.0
C237 C 0.09679 0.99813 0.32076 0.0
C238 C 0.0155 0.07466 0.29634 0.0
C239 C 0.02883 0.95185 0.32738 0.0
H240 H 0.87377 0.03773 0.32586 0.0
H241 H 0.89125 0.93193 0.30053 0.0
H242 H 0.9851 0.05294 0.33306 0.0
H243 H 0.98101 0.09355 0.32159 0.0
H244 H 0.93355 0.08682 0.33141 0.0
H245 H 0.96104 0.92173 0.29056 0.0
H246 H 1.0032 0.96726 0.29107 0.0
H247 H 1.00572 0.92142 0.30127 0.0
H248 H 0.10615 0.08385 0.30108 0.0
H249 H 0.11716 0.97937 0.32699 0.0
H250 H 0.99053 0.09691 0.30092 0.0
H251 H 0.9954 0.05116 0.29077 0.0
H252 H 0.03752 0.09677 0.29084 0.0
H253 H 1.00314 0.96785 0.33318 0.0
H254 H 0.05509 0.93399 0.33269 0.0
H255 H 0.01048 0.92584 0.32215 0.0
C256 C 0.95912 0.59611 0.55537 0.0
C257 C 0.98242 0.62403 0.56329 0.0
C258 C 0.97022 0.54914 0.55414 0.0
C259 C 1.00503 0.52939 0.5611 0.0
C260 C 0.02961 0.55779 0.56883 0.0
C261 C 0.01821 0.60465 0.56978 0.0
C262 C 0.94366 0.52033 0.54567 0.0
C263 C 0.06673 0.53827 0.57648 0.0
C264 C 1.00066 0.40253 0.56921 0.0
C265 C 0.0368 0.38388 0.5627 0.0
C266 C 0.98907 0.44941 0.56848 0.0
C267 C 0.01379 0.47859 0.56095 0.0
C268 C 0.04886 0.45957 0.55395 0.0
C269 C 0.06015 0.41256 0.55496 0.0
C270 C 0.95168 0.46812 0.57617 0.0
C271 C 0.07558 0.48922 0.54568 0.0
H272 H 0.93149 0.61071 0.5503 0.0
H273 H 0.03644 0.62577 0.57594 0.0
H274 H 0.96764 0.50049 0.54016 0.0
H275 H 0.92201 0.49511 0.55034 0.0
H276 H 0.921 0.54156 0.54011 0.0
H277 H 0.08414 0.56526 0.58164 0.0
H278 H 0.0515 0.51267 0.58243 0.0
H279 H 0.09299 0.5201 0.57128 0.0
H280 H 0.98239 0.38083 0.57523 0.0
H281 H 0.08803 0.39854 0.54987 0.0
H282 H 0.92564 0.48692 0.57102 0.0
H283 H 0.96672 0.49301 0.58232 0.0
H284 H 0.93404 0.44058 0.58109 0.0
H285 H 0.05172 0.5097 0.54028 0.0
H286 H 0.09827 0.46853 0.54001 0.0
H287 H 0.09722 0.51387 0.55053 0.0
C288 C 0.60957 0.49767 0.81922 0.0
C289 C 0.62874 0.53367 0.81278 0.0
C290 C 0.56255 0.48679 0.81843 0.0
C291 C 0.53382 0.51209 0.8109 0.0
C292 C 0.55338 0.54698 0.80396 0.0
C293 C 0.60049 0.55756 0.80503 0.0
C294 C 0.54322 0.44951 0.82605 0.0
C295 C 0.52422 0.57428 0.79568 0.0
C296 C 0.41599 0.45906 0.80501 0.0
C297 C 0.38803 0.48245 0.81291 0.0
C298 C 0.46309 0.46963 0.80388 0.0
C299 C 0.48293 0.50399 0.81094 0.0
C300 C 0.45449 0.52877 0.81864 0.0
C301 C 0.40747 0.51792 0.81947 0.0
C302 C 0.49193 0.44291 0.79543 0.0
C303 C 0.47413 0.56546 0.82638 0.0
H304 H 0.63096 0.47903 0.82526 0.0
H305 H 0.61492 0.58535 0.8 0.0
H306 H 0.51831 0.46477 0.83218 0.0
H307 H 0.52428 0.42381 0.82085 0.0
H308 H 0.57043 0.43144 0.831 0.0
H309 H 0.5453 0.59682 0.79007 0.0
H310 H 0.50362 0.55082 0.79022 0.0
H311 H 0.49968 0.59612 0.80052 0.0
H312 H 0.40134 0.43168 0.79987 0.0
H313 H 0.3863 0.53616 0.82563 0.0
H314 H 0.51665 0.42074 0.80013 0.0
H315 H 0.51233 0.46674 0.79002 0.0
H316 H 0.47065 0.42075 0.78978 0.0
H317 H 0.49929 0.54975 0.83238 0.0
H318 H 0.44712 0.58314 0.83148 0.0
H319 H 0.49284 0.59156 0.82125 0.0
C320 C 0.46396 0.10694 0.0558 0.0
C321 C 0.48725 0.1352 0.06365 0.0
C322 C 0.47493 0.05993 0.05472 0.0
C323 C 0.50973 0.04052 0.06173 0.0
C324 C 0.53475 0.06935 0.06928 0.0
C325 C 0.52336 0.11626 0.07011 0.0
C326 C 0.44784 0.03063 0.04645 0.0
C327 C 0.57201 0.0502 0.07694 0.0
C328 C 0.50207 0.91496 0.07078 0.0
C329 C 0.53707 0.8944 0.06425 0.0
C330 C 0.49205 0.96208 0.06978 0.0
C331 C 0.51733 0.98959 0.06199 0.0
C332 C 0.55139 0.96872 0.05501 0.0
C333 C 0.56101 0.92145 0.05626 0.0
C334 C 0.45553 0.98278 0.07742 0.0
C335 C 0.57871 0.99663 0.04649 0.0
H336 H 0.4361 0.1212 0.05074 0.0
H337 H 0.54161 0.13768 0.0762 0.0
H338 H 0.47136 0.00937 0.04116 0.0
H339 H 0.4254 1.00672 0.05132 0.0
H340 H 0.42588 0.05167 0.04068 0.0
H341 H 0.59049 0.0776 0.08171 0.0
H342 H 0.55659 0.02608 0.08324 0.0
H343 H 0.59737 0.03044 0.07182 0.0
H344 H 0.48331 0.8945 0.07698 0.0
H345 H 0.58808 0.90594 0.05117 0.0
H346 H 0.42963 1.00137 0.07218 0.0
H347 H 0.47145 1.00824 0.08329 0.0
H348 H 0.43754 0.95642 0.08266 0.0
H349 H 0.55527 0.017 0.04095 0.0
H350 H 0.60079 0.97469 0.04096 0.0
H351 H 0.60101 0.02137 0.05113 0.0
C352 C 0.1124 0.4601 0.95946 0.0
C353 C 0.14087 0.48341 0.95166 0.0
C354 C 0.06538 0.47116 0.96048 0.0
C355 C 0.04619 0.50605 0.95346 0.0
C356 C 0.07524 0.53105 0.94596 0.0
C357 C 0.12215 0.51959 0.94519 0.0
C358 C 0.03584 0.44407 0.9687 0.0
C359 C 0.05632 0.56838 0.93828 0.0
C360 C 0.92072 0.49856 0.94433 0.0
C361 C 0.9001 0.53348 0.95086 0.0
C362 C 0.96785 0.48856 0.94533 0.0
C363 C 0.99529 0.51376 0.95316 0.0
C364 C 0.97438 0.5478 0.96013 0.0
C365 C 0.9271 0.55741 0.95886 0.0
C366 C 0.98862 0.4521 0.93769 0.0
C367 C 1.00222 0.57503 0.96867 0.0
H368 H 0.12649 0.43219 0.96453 0.0
H369 H 0.14375 0.53784 0.93914 0.0
H370 H 0.01457 0.46761 0.97399 0.0
H371 H 0.01193 0.42178 0.9638 0.0
H372 H 0.05671 0.42197 0.97448 0.0
H373 H 0.08386 0.58683 0.93355 0.0
H374 H 0.03229 0.55306 0.93196 0.0
H375 H 0.03651 0.59376 0.94339 0.0
H376 H 0.9003 0.47982 0.93812 0.0
H377 H 0.91154 0.5844 0.96397 0.0
H378 H 1.00703 0.42608 0.94293 0.0
H379 H 0.01425 0.46802 0.93187 0.0
H380 H 0.96232 0.43425 0.93241 0.0
H381 H 0.02236 0.55152 0.97425 0.0
H382 H 0.98026 0.59722 0.97417 0.0
H383 H 0.02717 0.5972 0.96407 0.0
C384 C 0.51624 0.41645 0.19421 0.0
C385 C 0.48129 0.39589 0.20074 0.0
C386 C 0.52622 0.46356 0.19521 0.0
C387 C 0.50096 0.49105 0.20302 0.0
C388 C 0.46693 0.4702 0.20999 0.0
C389 C 0.45734 0.42293 0.20874 0.0
C390 C 0.56271 0.48425 0.18757 0.0
C391 C 0.43962 0.4981 0.21852 0.0
C392 C 0.55445 0.60818 0.20925 0.0
C393 C 0.5312 0.63659 0.20142 0.0
C394 C 0.54342 0.5612 0.21031 0.0
C395 C 0.50859 0.54196 0.2033 0.0
C396 C 0.4836 0.57095 0.19576 0.0
C397 C 0.49505 0.61783 0.19495 0.0
C398 C 0.5705 0.53173 0.21856 0.0
C399 C 0.4463 0.55199 0.1881 0.0
H400 H 0.535 0.396 0.188 0.0
H401 H 0.43032 0.40744 0.21384 0.0
H402 H 0.54677 0.50982 0.18172 0.0
H403 H 0.58865 0.50271 0.1928 0.0
H404 H 0.58065 0.4579 0.18231 0.0
H405 H 0.4175 0.47617 0.22404 0.0
H406 H 0.46308 0.51832 0.22408 0.0
H407 H 0.41737 0.52296 0.2139 0.0
H408 H 0.58234 0.6223 0.21431 0.0
H409 H 0.47682 0.63936 0.18887 0.0
H410 H 0.59291 0.50781 0.21368 0.0
H411 H 0.54697 0.51049 0.22385 0.0
H412 H 0.59251 0.55265 0.22434 0.0
H413 H 0.46169 0.52792 0.18178 0.0
H414 H 0.42781 0.5795 0.18335 0.0
H415 H 0.42095 0.53222 0.19321 0.0
C416 C 0.41399 0.99959 0.44571 0.0
C417 C 0.39479 0.03563 0.45214 0.0
C418 C 0.46089 0.98825 0.4466 0.0
C419 C 0.48953 0.01313 0.45421 0.0
C420 C 0.46997 0.04817 0.46113 0.0
C421 C 0.42295 0.0592 0.45996 0.0
C422 C 0.48018 0.95087 0.43899 0.0
C423 C 0.49905 0.07507 0.46948 0.0
C424 C 0.60671 0.95837 0.46016 0.0
C425 C 0.635 0.98142 0.45228 0.0
C426 C 0.55974 0.96969 0.46129 0.0
C427 C 0.54037 1.00448 0.45426 0.0
C428 C 0.56918 0.02895 0.4466 0.0
C429 C 0.61603 0.01733 0.44575 0.0
C430 C 0.53049 0.94325 0.4697 0.0
C431 C 0.5501 0.06607 0.43888 0.0
H432 H 0.39269 0.98115 0.43962 0.0
H433 H 0.40851 0.08702 0.46499 0.0
H434 H 0.5055 0.96593 0.43294 0.0
H435 H 0.49864 0.92487 0.44422 0.0
H436 H 0.45302 0.93319 0.43395 0.0
H437 H 0.47795 0.09778 0.47506 0.0
H438 H 0.51925 0.05133 0.47498 0.0
H439 H 0.52395 0.0967 0.46471 0.0
H440 H 0.62097 0.93067 0.46527 0.0
H441 H 0.63744 0.03538 0.43962 0.0
H442 H 0.5057 0.92135 0.46497 0.0
H443 H 0.51017 0.96728 0.47508 0.0
H444 H 0.55147 0.92086 0.47538 0.0
H445 H 0.52498 0.05079 0.43281 0.0
H446 H 0.57741 0.08359 0.43385 0.0
H447 H 0.53147 0.09223 0.44401 0.0
C448 C 0.99543 0.11434 0.69618 0.0
C449 C 0.03137 0.13353 0.70263 0.0
C450 C 0.98448 0.06735 0.697 0.0
C451 C 0.00964 0.03869 0.70458 0.0
C452 C 0.04443 0.0583 0.71155 0.0
C453 C 0.05509 0.10536 0.71044 0.0
C454 C 0.94733 0.04796 0.68935 0.0
C455 C 0.07154 0.02923 0.71987 0.0
C456 C 0.95686 0.9208 0.71051 0.0
C457 C 0.9806 0.89278 0.70268 0.0
C458 C 0.96717 0.96796 0.71158 0.0
C459 C 1.0016 0.98782 0.70455 0.0
C460 C 0.02667 0.95936 0.69692 0.0
C461 C 0.01609 0.91227 0.69613 0.0
C462 C 0.94016 0.99682 0.71997 0.0
C463 C 0.06342 0.97902 0.68919 0.0
H464 H 0.97693 0.13568 0.69011 0.0
H465 H 0.08281 0.11982 0.71549 0.0
H466 H 0.96271 0.02307 0.68324 0.0
H467 H 0.92158 0.029 0.69454 0.0
H468 H 0.92929 0.07514 0.68438 0.0
H469 H 0.09395 0.05036 0.72551 0.0
H470 H 0.04797 0.00865 0.72532 0.0
H471 H 0.09352 1.00467 0.71507 0.0
H472 H 0.92945 0.9061 0.71564 0.0
H473 H 0.03459 0.89107 0.69003 0.0
H474 H 0.9181 0.02149 0.71523 0.0
H475 H 0.96383 0.01729 0.72542 0.0
H476 H 0.91787 0.97556 0.72561 0.0
H477 H 0.04776 1.00417 0.68318 0.0
H478 H 0.08119 0.95203 0.6841 0.0
H479 H 0.08945 0.99776 0.69434 0.0
C480 C 0.57883 0.92848 0.30767 0.0
C481 C 0.612 0.95162 0.31424 0.0
C482 C 0.53338 0.9447 0.30695 0.0
C483 C 0.52034 0.98428 0.31323 0.0
C484 C 0.5538 1.00799 0.31982 0.0
C485 C 0.5994 0.99174 0.32011 0.0
C486 C 0.49924 0.91928 0.29954 0.0
C487 C 0.54113 0.04982 0.32681 0.0
C488 C 0.41366 0.05357 0.30556 0.0
C489 C 0.38145 0.03719 0.31352 0.0
C490 C 0.45836 0.03533 0.30505 0.0
C491 C 0.47171 1.00086 0.31296 0.0
C492 C 0.43895 0.98342 0.32086 0.0
C493 C 0.39395 1.00137 0.32093 0.0
C494 C 0.49165 0.05383 0.29625 0.0
C495 C 0.45203 0.94733 0.32958 0.0
H496 H 0.5885 0.89754 0.30307 0.0
H497 H 0.6248 0.00943 0.32529 0.0
H498 H 0.47127 0.90501 0.30494 0.0
H499 H 0.48313 0.94333 0.29333 0.0
H500 H 0.51546 0.8906 0.29471 0.0
H501 H 0.57096 0.06394 0.33161 0.0
H502 H 0.52725 0.07715 0.32114 0.0
H503 H 0.51365 0.04082 0.33302 0.0
H504 H 0.40401 0.08123 0.29979 0.0
H505 H 0.3693 0.98911 0.3272 0.0
H506 H 0.50763 0.02511 0.29141 0.0
H507 H 0.51979 0.07273 0.30061 0.0
H508 H 0.47472 0.07751 0.29007 0.0
H509 H 0.46635 0.91657 0.32523 0.0
H510 H 0.42231 0.93653 0.33492 0.0
H511 H 0.47929 0.96103 0.3353 0.0
C512 C 0.94778 0.92574 0.57267 0.0
C513 C 0.96487 0.89045 0.56566 0.0
C514 C 0.96635 0.9702 0.57229 0.0
C515 C 1.00198 0.98025 0.56441 0.0
C516 C 0.01901 0.94487 0.55716 0.0
C517 C 1.00077 0.90006 0.55802 0.0
C518 C 0.94833 1.00622 0.58048 0.0
C519 C 0.05613 0.9545 0.54845 0.0
C520 C 0.02066 0.10811 0.55843 0.0
C521 C 0.05947 0.11729 0.56517 0.0
C522 C 1.00252 0.06322 0.55773 0.0
C523 C 0.02276 0.02722 0.56424 0.0
C524 C 0.06156 0.03669 0.57117 0.0
C525 C 0.07979 0.08132 0.5714 0.0
C526 C 0.96182 0.05424 0.55003 0.0
C527 C 0.08324 0.99993 0.57858 0.0
H528 H 0.92016 0.91827 0.57863 0.0
H529 H 0.01362 0.87292 0.55251 0.0
H530 H 0.97689 0.01949 0.58585 0.0
H531 H 0.9341 0.0358 0.57563 0.0
H532 H 0.92104 0.99258 0.58621 0.0
H533 H 0.06373 0.92406 0.54302 0.0
H534 H 0.04553 0.98346 0.54284 0.0
H535 H 0.08823 0.96508 0.55286 0.0
H536 H 1.00517 0.13574 0.55352 0.0
H537 H 0.10961 0.08834 0.5767 0.0
H538 H 0.93172 0.04365 0.55523 0.0
H539 H 0.96972 0.02551 0.54408 0.0
H540 H 0.95214 0.08501 0.54491 0.0
H541 H 0.05741 0.98633 0.58471 0.0
H542 H 0.11318 0.013 0.58352 0.0
H543 H 0.09484 0.9707 0.5732 0.0
C544 C 0.08508 0.44108 0.8226 0.0
C545 C 0.12102 0.4592 0.81597 0.0
C546 C 0.04088 0.46053 0.82234 0.0
C547 C 0.0318 0.49815 0.81497 0.0
C548 C 0.06777 0.51605 0.80806 0.0
C549 C 0.11224 0.49688 0.8088 0.0
C550 C 1.00416 0.44139 0.83016 0.0
C551 C 0.05919 0.55526 0.79985 0.0
C552 C 0.90478 0.52083 0.80871 0.0
C553 C 0.89576 0.55844 0.81587 0.0
C554 C 0.94933 0.50184 0.80799 0.0
C555 C 0.98516 0.51985 0.81493 0.0
C556 C 0.97587 0.55746 0.82229 0.0
C557 C 0.93158 0.57672 0.82252 0.0
C558 C 0.95813 0.46263 0.7998 0.0
C559 C 0.01243 0.57672 0.83013 0.0
H560 H 0.09184 0.41215 0.82822 0.0
H561 H 0.13986 0.51065 0.80359 0.0
H562 H 0.9912 0.46891 0.83592 0.0
H563 H 0.97452 0.42899 0.82505 0.0
H564 H 0.01702 0.4125 0.83552 0.0
H565 H 0.08992 0.56325 0.79455 0.0
H566 H 0.0301 0.54668 0.79407 0.0
H567 H 0.0493 0.5866 0.80468 0.0
H568 H 0.87726 0.50691 0.80349 0.0
H569 H 0.92465 0.60559 0.82814 0.0
H570 H 0.96777 0.43126 0.80466 0.0
H571 H 0.98745 0.47115 0.79409 0.0
H572 H 0.92757 0.45471 0.79444 0.0
H573 H 0.02521 0.54929 0.83594 0.0
H574 H 0.99949 0.60573 0.83543 0.0
H575 H 0.04222 0.58897 0.82505 0.0
C576 C 0.56037 0.59753 0.05641 0.0
C577 C 0.54372 0.6301 0.06425 0.0
C578 C 0.54196 0.55292 0.05593 0.0
C579 C 0.50702 0.54 0.06374 0.0
C580 C 0.48942 0.57307 0.07154 0.0
C581 C 0.50755 0.61798 0.07159 0.0
C582 C 0.56066 0.51933 0.04722 0.0
C583 C 0.45286 0.56046 0.08017 0.0
C584 C 0.43397 0.43354 0.05827 0.0
C585 C 0.45659 0.40014 0.06489 0.0
C586 C 0.45056 0.47885 0.0576 0.0
C587 C 0.48998 0.49153 0.06399 0.0
C588 C 0.5131 0.45785 0.07065 0.0
C589 C 0.49652 0.41239 0.07089 0.0
C590 C 0.42578 0.51319 0.0501 0.0
C591 C 0.55469 0.47013 0.07778 0.0
H592 H 0.58829 0.60687 0.0507 0.0
H593 H 0.49504 0.64289 0.07776 0.0
H594 H 0.579 0.491 0.05167 0.0
H595 H 0.53205 0.50366 0.04228 0.0
H596 H 0.58488 0.53589 0.04112 0.0
H597 H 0.44217 0.5903 0.08549 0.0
H598 H 0.42211 0.54654 0.07575 0.0
H599 H 0.46603 0.53302 0.08593 0.0
H600 H 0.40319 0.42415 0.05357 0.0
H601 H 0.51381 0.38682 0.07611 0.0
H602 H 0.45025 0.52895 0.04395 0.0
H603 H 0.41156 0.54139 0.05543 0.0
H604 H 0.39714 0.49725 0.0452 0.0
H605 H 0.58245 0.4836 0.07219 0.0
H606 H 0.56827 0.44021 0.08265 0.0
H607 H 0.54563 0.49779 0.08394 0.0
C608 C 0.43885 0.43003 0.95785 0.0
C609 C 0.40572 0.45295 0.95121 0.0
C610 C 0.48427 0.44625 0.95855 0.0
C611 C 0.4973 0.48561 0.95219 0.0
C612 C 0.46386 0.50915 0.94555 0.0
C613 C 0.41829 0.4929 0.94526 0.0
C614 C 0.51839 0.42104 0.96603 0.0
C615 C 0.47653 0.55074 0.93847 0.0
C616 C 0.60399 0.55491 0.95971 0.0
C617 C 0.63618 0.53824 0.95177 0.0
C618 C 0.55929 0.53678 0.96026 0.0
C619 C 0.54593 0.50209 0.95243 0.0
C620 C 0.57867 0.48433 0.94456 0.0
C621 C 0.62366 0.5022 0.94444 0.0
C622 C 0.52602 0.55565 0.96902 0.0
C623 C 0.56557 0.44798 0.93592 0.0
H624 H 0.4292 0.39923 0.9625 0.0
H625 H 0.39292 0.5104 0.94002 0.0
H626 H 0.54633 0.40646 0.96067 0.0
H627 H 0.53455 0.44529 0.97217 0.0
H628 H 0.50214 0.39261 0.97094 0.0
H629 H 0.44668 0.56481 0.93366 0.0
H630 H 0.49047 0.57819 0.94408 0.0
H631 H 0.50395 0.54148 0.93226 0.0
H632 H 0.61365 0.58273 0.96541 0.0
H633 H 0.64829 0.4897 0.93819 0.0
H634 H 0.51003 0.52712 0.97392 0.0
H635 H 0.49788 0.57447 0.96462 0.0
H636 H 0.54296 0.57948 0.97515 0.0
H637 H 0.55125 0.41739 0.94034 0.0
H638 H 0.59528 0.43693 0.9306 0.0
H639 H 0.5383 0.46153 0.93018 0.0
C640 C 0.52257 0.91381 0.19419 0.0
C641 C 0.56265 0.90146 0.20013 0.0
C642 C 0.50605 0.95933 0.19443 0.0
C643 C 0.52942 0.99298 0.20103 0.0
C644 C 0.56901 0.98022 0.20735 0.0
C645 C 0.58552 0.93485 0.20668 0.0
C646 C 0.46426 0.97168 0.18738 0.0
C647 C 0.59407 0.01454 0.21478 0.0
C648 C 0.51154 0.11942 0.19342 0.0
C649 C 0.47558 0.13161 0.20082 0.0
C650 C 0.52971 0.0745 0.19345 0.0
C651 C 0.51239 0.04149 0.2013 0.0
C652 C 0.4777 0.05449 0.20918 0.0
C653 C 0.45923 0.09911 0.20871 0.0
C654 C 0.56599 0.0618 0.18475 0.0
C655 C 0.4593 0.02096 0.21793 0.0
H656 H 0.50508 0.88825 0.18902 0.0
H657 H 0.61641 0.9254 0.21133 0.0
H658 H 0.43667 0.98521 0.19301 0.0
H659 H 0.47313 0.99932 0.1812 0.0
H660 H 0.45054 0.94178 0.18254 0.0
H661 H 0.6229 0.99858 0.21961 0.0
H662 H 0.60807 0.04271 0.2094 0.0
H663 H 0.56983 0.03036 0.22099 0.0
H664 H 0.52381 0.14429 0.1872 0.0
H665 H 0.43147 0.10851 0.21447 0.0
H666 H 0.55262 0.03441 0.17902 0.0
H667 H 0.59687 0.04778 0.18911 0.0
H668 H 0.57655 0.09163 0.17941 0.0
H669 H 0.4408 0.99266 0.21354 0.0
H670 H 0.4353 0.03759 0.22408 0.0
H671 H 0.48808 1.00524 0.22281 0.0
C672 C 0.90997 0.99877 0.45552 0.0
C673 C 0.90147 0.95816 0.44941 0.0
C674 C 0.95476 0.01721 0.45618 0.0
C675 C 0.99147 0.99533 0.45028 0.0
C676 C 0.98275 0.95464 0.444 0.0
C677 C 0.93815 0.93626 0.44379 0.0
C678 C 0.96286 0.06003 0.4632 0.0
C679 C 0.02033 0.93101 0.43725 0.0
C680 C 0.09391 0.06836 0.44141 0.0
C681 C 0.12828 0.05342 0.44898 0.0
C682 C 0.04948 0.04959 0.44172 0.0
C683 C 0.03849 0.01612 0.4501 0.0
C684 C 0.07296 1.0013 0.45789 0.0
C685 C 0.1178 0.01956 0.45711 0.0
C686 C 0.0145 0.06514 0.43295 0.0
C687 C 0.0623 0.96663 0.46715 0.0
H688 H 0.88183 0.01557 0.45996 0.0
H689 H 0.93174 0.90504 0.43896 0.0
H690 H 0.99097 0.05395 0.46947 0.0
H691 H 0.97394 0.0886 0.45754 0.0
H692 H 0.93154 0.07103 0.46793 0.0
H693 H 1.00783 0.8997 0.43277 0.0
H694 H 0.03456 0.95507 0.43077 0.0
H695 H 0.04899 0.92107 0.44302 0.0
H696 H 0.10207 0.09443 0.43508 0.0
H697 H 0.14422 0.00843 0.46306 0.0
H698 H 0.98438 0.08074 0.4373 0.0
H699 H 1.00181 0.03509 0.42801 0.0
H700 H 0.02888 0.09068 0.42684 0.0
H701 H 0.03278 0.97876 0.47237 0.0
H702 H 0.09213 0.9605 0.4729 0.0
H703 H 0.05211 0.93342 0.46323 0.0
C704 C 0.01957 0.40903 0.70701 0.0
C705 C 0.05762 0.40029 0.69997 0.0
C706 C 1.00082 0.45363 0.70784 0.0
C707 C 0.01956 0.48981 0.70114 0.0
C708 C 0.0577 0.48085 0.69394 0.0
C709 C 0.07667 0.43648 0.69359 0.0
C710 C 0.96099 0.46207 0.71587 0.0
C711 C 0.07777 0.51785 0.68634 0.0
C712 C 0.94152 0.58995 0.69331 0.0
C713 C 0.95899 0.62559 0.70013 0.0
C714 C 0.96095 0.54577 0.69356 0.0
C715 C 0.99787 0.53641 0.70112 0.0
C716 C 0.01513 0.57206 0.70823 0.0
C717 C 0.99601 0.61655 0.70749 0.0
C718 C 0.94255 0.5094 0.68553 0.0
C719 C 0.05357 0.56313 0.71663 0.0
H720 H 1.00506 0.38122 0.71204 0.0
H721 H 0.1059 0.42977 0.68805 0.0
H722 H 0.96901 0.49117 0.72169 0.0
H723 H 0.92997 0.47183 0.71089 0.0
H724 H 0.9527 0.4313 0.72112 0.0
H725 H 0.10736 0.50522 0.6812 0.0
H726 H 0.05095 0.53088 0.68039 0.0
H727 H 0.08942 0.54738 0.6916 0.0
H728 H 0.91311 0.59695 0.68754 0.0
H729 H 0.00927 0.64396 0.71285 0.0
H730 H 0.92966 0.47955 0.6905 0.0
H731 H 0.97061 0.49669 0.67991 0.0
H732 H 0.91417 0.5225 0.68004 0.0
H733 H 0.04445 0.53381 0.72229 0.0
H734 H 0.06108 0.59363 0.72205 0.0
H735 H 0.08536 0.55342 0.71196 0.0
C736 C 0.22123 0.14139 0.35976 0.0
C737 C 0.25156 0.16289 0.35211 0.0
C738 C 0.22491 0.1482 0.37162 0.0
C739 C 0.26022 0.17681 0.37598 0.0
C740 C 0.28911 0.20097 0.36827 0.0
C741 C 0.28427 0.19391 0.35639 0.0
C742 C 0.1928 0.12236 0.3795 0.0
C743 C 0.32713 0.23177 0.37257 0.0
C744 C 0.24981 0.20141 0.4079 0.0
C745 C 0.27473 0.16446 0.41254 0.0
C746 C 0.24685 0.20776 0.39596 0.0
C747 C 0.26975 0.1767 0.38854 0.0
C748 C 0.29774 0.14151 0.39324 0.0
C749 C 0.29965 0.13567 0.40516 0.0
C750 C 0.21668 0.24567 0.3913 0.0
C751 C 0.32337 0.10806 0.38566 0.0
H752 H 0.19554 0.11775 0.35649 0.0
H753 H 0.30794 0.21052 0.35053 0.0
H754 H 0.21232 0.09543 0.38418 0.0
H755 H 0.17787 0.14595 0.38599 0.0
H756 H 0.16425 0.10554 0.37476 0.0
H757 H 0.34166 0.25349 0.36563 0.0
H758 H 0.31452 0.25441 0.37955 0.0
H759 H 0.35521 0.21028 0.37617 0.0
H760 H 0.23038 0.22378 0.41354 0.0
H761 H 0.31941 0.10736 0.40869 0.0
H762 H 0.18456 0.23053 0.38782 0.0
H763 H 0.23407 0.26393 0.38417 0.0
H764 H 0.20729 0.27107 0.39802 0.0
H765 H 0.2984 0.08539 0.38121 0.0
H766 H 0.34758 0.0861 0.3906 0.0
H767 H 0.34303 0.12679 0.37898 0.0
C768 C 0.8796 0.72122 0.61011 0.0
C769 C 0.8538 0.74885 0.60265 0.0
C770 C 0.87398 0.72438 0.62203 0.0
C771 C 0.84249 0.75672 0.62662 0.0
C772 C 0.81465 0.78308 0.61912 0.0
C773 C 0.82033 0.7785 0.6072 0.0
C774 C 0.90359 0.6948 0.62971 0.0
C775 C 0.78111 0.8183 0.62366 0.0
C776 C 0.81881 0.74497 0.65856 0.0
C777 C 0.85343 0.773 0.66318 0.0
C778 C 0.81326 0.74076 0.64663 0.0
C779 C 0.84245 0.76587 0.63919 0.0
C780 C 0.87515 0.79675 0.64386 0.0
C781 C 0.88058 0.79953 0.65579 0.0
C782 C 0.77838 0.70711 0.64201 0.0
C783 C 0.90624 0.82501 0.63625 0.0
H784 H 0.90528 0.69802 0.60663 0.0
H785 H 0.80053 0.80021 0.60147 0.0
H786 H 0.92913 0.71669 0.6342 0.0
H787 H 0.88221 0.67784 0.63636 0.0
H788 H 0.92244 0.66789 0.62484 0.0
H789 H 0.758 0.83167 0.61684 0.0
H790 H 0.7598 0.80345 0.63062 0.0
H791 H 0.80047 0.84764 0.62736 0.0
H792 H 0.79797 0.72409 0.66424 0.0
H793 H 0.90717 0.82148 0.65933 0.0
H794 H 0.79657 0.67688 0.63837 0.0
H795 H 0.75802 0.72289 0.63499 0.0
H796 H 0.75443 0.69486 0.64877 0.0
H797 H 0.93103 0.80204 0.63182 0.0
H798 H 0.92599 0.85109 0.64117 0.0
H799 H 0.88584 0.84287 0.62955 0.0
C800 C 0.24754 0.31488 0.85684 0.0
C801 C 0.27311 0.35136 0.85222 0.0
C802 C 0.24553 0.30771 0.86876 0.0
C803 C 0.27028 0.33729 0.87617 0.0
C804 C 0.29884 0.37195 0.87147 0.0
C805 C 0.29956 0.37883 0.85957 0.0
C806 C 0.21443 0.27063 0.87343 0.0
C807 C 0.32658 0.40366 0.87904 0.0
C808 C 0.22748 0.37139 0.9056 0.0
C809 C 0.25768 0.34736 0.91281 0.0
C810 C 0.22911 0.36579 0.89368 0.0
C811 C 0.26245 0.33611 0.8888 0.0
C812 C 0.29122 0.30963 0.89606 0.0
C813 C 0.28822 0.31529 0.90802 0.0
C814 C 0.19703 0.39392 0.88628 0.0
C815 C 0.3274 0.27789 0.89121 0.0
H816 H 0.22684 0.29366 0.85121 0.0
H817 H 0.31973 0.4068 0.85603 0.0
H818 H 0.23199 0.25085 0.88028 0.0
H819 H 0.18349 0.28677 0.87729 0.0
H820 H 0.20304 0.24641 0.86663 0.0
H821 H 0.35104 0.42508 0.87403 0.0
H822 H 0.30303 0.4269 0.88378 0.0
H823 H 0.34626 0.38356 0.88547 0.0
H824 H 0.20357 0.39594 0.90929 0.0
H825 H 0.31187 0.29688 0.91356 0.0
H826 H 0.1805 0.37186 0.87971 0.0
H827 H 0.21694 0.4208 0.8817 0.0
H828 H 0.1697 0.41108 0.89138 0.0
H829 H 0.31298 0.2566 0.88419 0.0
H830 H 0.34208 0.25479 0.89786 0.0
H831 H 0.35575 0.2987 0.88751 0.0
C832 C 0.70174 0.73388 0.10668 0.0
C833 C 0.66941 0.765 0.10222 0.0
C834 C 0.70938 0.73075 0.11857 0.0
C835 C 0.68437 0.75966 0.12612 0.0
C836 C 0.65451 0.79355 0.12155 0.0
C837 C 0.64725 0.79563 0.10969 0.0
C838 C 0.74166 0.69433 0.12309 0.0
C839 C 0.62763 0.8256 0.12924 0.0
C840 C 0.64263 0.72146 0.15529 0.0
C841 C 0.66957 0.74838 0.16265 0.0
C842 C 0.64958 0.7222 0.1434 0.0
C843 C 0.68407 0.75097 0.13871 0.0
C844 C 0.71362 0.77569 0.14615 0.0
C845 C 0.70614 0.77395 0.15807 0.0
C846 C 0.61769 0.69467 0.13582 0.0
C847 C 0.75091 0.80657 0.14151 0.0
H848 H 0.71896 0.71008 0.10095 0.0
H849 H 0.62267 0.82018 0.10629 0.0
H850 H 0.76338 0.70821 0.13009 0.0
H851 H 0.72128 0.66549 0.12669 0.0
H852 H 0.76434 0.68046 0.11624 0.0
H853 H 0.60994 0.85319 0.12434 0.0
H854 H 0.60129 0.80571 0.13402 0.0
H855 H 0.6507 0.84181 0.13565 0.0
H856 H 0.61468 0.70114 0.15878 0.0
H857 H 0.72708 0.79488 0.16371 0.0
H858 H 0.63763 0.67513 0.12934 0.0
H859 H 0.59438 0.71839 0.13114 0.0
H860 H 0.59632 0.67011 0.1408 0.0
H861 H 0.76982 0.78943 0.13444 0.0
H862 H 0.77584 0.81672 0.14827 0.0
H863 H 0.73506 0.83825 0.13795 0.0
C864 C 0.76638 0.70047 0.85711 0.0
C865 C 0.74309 0.66245 0.8525 0.0
C866 C 0.76894 0.70715 0.86904 0.0
C867 C 0.74725 0.67538 0.87649 0.0
C868 C 0.7208 0.63902 0.87182 0.0
C869 C 0.71932 0.63283 0.85991 0.0
C870 C 0.79754 0.74627 0.87366 0.0
C871 C 0.69641 0.60479 0.87943 0.0
C872 C 0.79657 0.64251 0.90537 0.0
C873 C 0.76537 0.66319 0.91295 0.0
C874 C 0.79286 0.64892 0.8935 0.0
C875 C 0.75658 0.67615 0.88905 0.0
C876 C 0.72669 0.69949 0.89669 0.0
C877 C 0.73163 0.69296 0.90858 0.0
C878 C 0.82607 0.62407 0.88569 0.0
C879 C 0.68755 0.72873 0.8923 0.0
H880 H 0.78494 0.72345 0.85144 0.0
H881 H 0.70084 0.60367 0.8564 0.0
H882 H 0.77935 0.76403 0.88075 0.0
H883 H 0.83018 0.73241 0.87719 0.0
H884 H 0.80604 0.77185 0.86691 0.0
H885 H 0.67311 0.58187 0.8745 0.0
H886 H 0.7222 0.58313 0.88392 0.0
H887 H 0.67598 0.6229 0.88608 0.0
H888 H 0.82301 0.61982 0.90871 0.0
H889 H 0.70727 0.70887 0.9144 0.0
H890 H 0.84011 0.648 0.87917 0.0
H891 H 0.8077 0.59625 0.88107 0.0
H892 H 0.85522 0.60851 0.89049 0.0
H893 H 0.69936 0.75164 0.88529 0.0
H894 H 0.67207 0.75008 0.89919 0.0
H895 H 0.6604 0.70611 0.88871 0.0
C896 C 0.37125 0.29639 0.15535 0.0
C897 C 0.34919 0.26587 0.16285 0.0
C898 C 0.36403 0.29405 0.14349 0.0
C899 C 0.33431 0.26002 0.13896 0.0
C900 C 0.30938 0.23123 0.14654 0.0
C901 C 0.31698 0.23462 0.15844 0.0
C902 C 0.39083 0.32597 0.13575 0.0
C903 C 0.27723 0.19468 0.14208 0.0
C904 C 0.3126 0.27361 0.10699 0.0
C905 C 0.34926 0.24797 0.10245 0.0
C906 C 0.30508 0.27559 0.1189 0.0
C907 C 0.33468 0.25107 0.12638 0.0
C908 C 0.36927 0.22223 0.12174 0.0
C909 C 0.37625 0.22123 0.10986 0.0
C910 C 0.26768 0.30652 0.12349 0.0
C911 C 0.40122 0.19491 0.12937 0.0
H912 H 0.39574 0.32104 0.15872 0.0
H913 H 0.29982 0.2109 0.16419 0.0
H914 H 0.41726 0.30602 0.13101 0.0
H915 H 0.36774 0.34202 0.12932 0.0
H916 H 0.40842 0.35369 0.14062 0.0
H917 H 0.25456 0.18093 0.14894 0.0
H918 H 0.25549 0.20838 0.13504 0.0
H919 H 0.29771 0.16579 0.13852 0.0
H920 H 0.29161 0.29439 0.10131 0.0
H921 H 0.40426 0.20085 0.1064 0.0
H922 H 0.28341 0.3383 0.127 0.0
H923 H 0.2488 0.28951 0.13058 0.0
H924 H 0.24274 0.3165 0.11671 0.0
H925 H 0.42443 0.21875 0.13402 0.0
H926 H 0.4227 0.17028 0.12442 0.0
H927 H 0.38132 0.17546 0.13587 0.0
C928 C 0.73372 0.81362 0.35722 0.0
C929 C 0.76303 0.84655 0.35234 0.0
C930 C 0.7318 0.80758 0.36918 0.0
C931 C 0.76038 0.8346 0.37635 0.0
C932 C 0.79252 0.86523 0.37136 0.0
C933 C 0.79313 0.87114 0.35944 0.0
C934 C 0.6969 0.77479 0.37416 0.0
C935 C 0.82435 0.89403 0.37866 0.0
C936 C 0.72394 0.87575 0.40577 0.0
C937 C 0.75164 0.84889 0.41299 0.0
C938 C 0.72414 0.86914 0.39387 0.0
C939 C 0.7534 0.83537 0.38901 0.0
C940 C 0.77951 0.80637 0.3963 0.0
C941 C 0.77804 0.81325 0.40823 0.0
C942 C 0.69501 0.90024 0.38644 0.0
C943 C 0.81134 0.77022 0.39147 0.0
H944 H 0.71019 0.79474 0.35176 0.0
H945 H 0.81613 0.89634 0.35569 0.0
H946 H 0.71245 0.75373 0.38108 0.0
H947 H 0.66825 0.79474 0.37801 0.0
H948 H 0.68241 0.75145 0.36754 0.0
H949 H 0.85081 0.91201 0.37345 0.0
H950 H 0.80403 0.92027 0.38336 0.0
H951 H 0.84197 0.87227 0.38512 0.0
H952 H 0.7031 0.90303 0.40942 0.0
H953 H 0.79968 0.79249 0.41376 0.0
H954 H 0.67542 0.87971 0.38009 0.0
H955 H 0.71759 0.92411 0.38161 0.0
H956 H 0.67035 0.92099 0.39157 0.0
H957 H 0.79387 0.75005 0.38467 0.0
H958 H 0.82393 0.74624 0.39819 0.0
H959 H 0.84152 0.78725 0.38748 0.0
C960 C 0.13189 0.22293 0.65554 0.0
C961 C 0.16024 0.24854 0.66286 0.0
C962 C 0.13829 0.22383 0.64362 0.0
C963 C 0.17334 0.2518 0.63888 0.0
C964 C 0.20354 0.27598 0.64625 0.0
C965 C 0.19688 0.27373 0.65818 0.0
C966 C 0.10595 0.19666 0.63609 0.0
C967 C 0.24096 0.30656 0.64154 0.0
C968 C 0.19726 0.23258 0.60717 0.0
C969 C 0.16609 0.26346 0.60215 0.0
C970 C 0.20169 0.22962 0.61916 0.0
C971 C 0.17503 0.25895 0.62623 0.0
C972 C 0.14608 0.29245 0.62114 0.0
C973 C 0.14151 0.29388 0.60918 0.0
C974 C 0.23239 0.19302 0.62423 0.0
C975 C 0.11792 0.32518 0.62835 0.0
H976 H 0.10375 0.20312 0.65912 0.0
H977 H 0.21873 0.29385 0.6638 0.0
H978 H 0.08326 0.22061 0.6313 0.0
H979 H 0.12564 0.1764 0.62969 0.0
H980 H 0.08396 0.17281 0.64112 0.0
H981 H 0.26496 0.31843 0.64833 0.0
H982 H 0.26096 0.28833 0.63483 0.0
H983 H 0.22513 0.33721 0.63745 0.0
H984 H 0.216 0.2087 0.60177 0.0
H985 H 0.11759 0.31798 0.60531 0.0
H986 H 0.2108 0.16564 0.6281 0.0
H987 H 0.25405 0.20752 0.63118 0.0
H988 H 0.25514 0.17708 0.61769 0.0
H989 H 0.0905 0.30584 0.63287 0.0
H990 H 0.10147 0.35254 0.6231 0.0
H991 H 0.13982 0.34166 0.63496 0.0
C992 C 0.31373 0.22284 0.28211 0.0
C993 C 0.27149 0.21301 0.28736 0.0
C994 C 0.31633 0.23298 0.27038 0.0
C995 C 0.27542 0.23529 0.26381 0.0
C996 C 0.2323 0.22903 0.26927 0.0
C997 C 0.23089 0.21677 0.28094 0.0
C998 C 0.36318 0.23771 0.26489 0.0
C999 C 0.18782 0.23338 0.26269 0.0
C1000 C 0.29753 0.28293 0.23393 0.0
C1001 C 0.30105 0.24231 0.22752 0.0
C1002 C 0.28525 0.28162 0.2456 0.0
C1003 C 0.27873 0.23855 0.25107 0.0
C1004 C 0.28085 0.19762 0.24451 0.0
C1005 C 0.29099 0.20014 0.23278 0.0
C1006 C 0.28113 0.32613 0.25217 0.0
C1007 C 0.27583 0.15082 0.25001 0.0
H1008 H 0.34526 0.21948 0.28701 0.0
H1009 H 0.19815 0.2094 0.285 0.0
H1010 H 0.36832 0.2096 0.25858 0.0
H1011 H 0.36567 0.27069 0.26017 0.0
H1012 H 0.39153 0.23623 0.27127 0.0
H1013 H 0.15775 0.23682 0.26851 0.0
H1014 H 0.18889 0.26361 0.25688 0.0
H1015 H 0.18267 0.20237 0.25731 0.0
H1016 H 0.30505 0.31562 0.22987 0.0
H1017 H 0.29416 0.16859 0.22788 0.0
H1018 H 0.31212 0.33107 0.25757 0.0
H1019 H 0.25082 0.32526 0.25796 0.0
H1020 H 0.27793 0.35621 0.24634 0.0
H1021 H 0.30387 0.14555 0.25634 0.0
H1022 H 0.2772 0.12245 0.24364 0.0
H1023 H 0.2428 0.14852 0.25471 0.0
C1024 C 0.82222 0.79019 0.48302 0.0
C1025 C 0.78037 0.80038 0.47763 0.0
C1026 C 0.82421 0.78141 0.49483 0.0
C1027 C 0.78303 0.78073 0.50132 0.0
C1028 C 0.74025 0.78771 0.49574 0.0
C1029 C 0.73952 0.79873 0.48399 0.0
C1030 C 0.87074 0.77608 0.50046 0.0
C1031 C 0.69545 0.78507 0.50224 0.0
C1032 C 0.8013 0.73334 0.53139 0.0
C1033 C 0.80453 0.77399 0.53778 0.0
C1034 C 0.79062 0.73469 0.51963 0.0
C1035 C 0.78566 0.77779 0.51407 0.0
C1036 C 0.78798 0.81882 0.52059 0.0
C1037 C 0.79632 0.81629 0.53241 0.0
C1038 C 0.78617 0.69014 0.51309 0.0
C1039 C 0.78484 0.86559 0.51499 0.0
H1040 H 0.85389 0.79206 0.47813 0.0
H1041 H 0.70712 0.80646 0.4798 0.0
H1042 H 0.87607 0.80435 0.50672 0.0
H1043 H 0.87247 0.74326 0.50528 0.0
H1044 H 0.89938 0.77675 0.49416 0.0
H1045 H 0.6654 0.78282 0.49638 0.0
H1046 H 0.6953 0.75475 0.50803 0.0
H1047 H 0.69132 0.81617 0.50764 0.0
H1048 H 0.80752 0.70059 0.53557 0.0
H1049 H 0.79944 0.8478 0.53732 0.0
H1050 H 0.81721 0.6847 0.50773 0.0
H1051 H 0.75603 0.69139 0.50725 0.0
H1052 H 0.78244 0.66016 0.51893 0.0
H1053 H 0.8134 0.86971 0.50875 0.0
H1054 H 0.78674 0.8941 0.52131 0.0
H1055 H 0.75219 0.86888 0.51015 0.0
C1056 C 0.16919 0.26903 0.73671 0.0
C1057 C 0.20306 0.26939 0.72817 0.0
C1058 C 0.18088 0.27417 0.7483 0.0
C1059 C 0.2278 0.27786 0.75147 0.0
C1060 C 0.26235 0.27482 0.74294 0.0
C1061 C 0.24951 0.27174 0.73133 0.0
C1062 C 0.14282 0.27876 0.75705 0.0
C1063 C 0.31274 0.27652 0.74601 0.0
C1064 C 0.24991 0.34733 0.77844 0.0
C1065 C 0.24912 0.31316 0.7869 0.0
C1066 C 0.24444 0.33613 0.76682 0.0
C1067 C 0.23994 0.28941 0.76355 0.0
C1068 C 0.24261 0.25452 0.77201 0.0
C1069 C 0.24606 0.26688 0.78364 0.0
C1070 C 0.24028 0.37457 0.75816 0.0
C1071 C 0.24005 0.20427 0.76883 0.0
H1072 H 0.13321 0.26776 0.73426 0.0
H1073 H 0.27576 0.27183 0.72473 0.0
H1074 H 0.14731 0.25312 0.76399 0.0
H1075 H 0.14428 0.31338 0.76104 0.0
H1076 H 0.10817 0.27402 0.75321 0.0
H1077 H 0.33497 0.26593 0.73873 0.0
H1078 H 0.32227 0.31205 0.74852 0.0
H1079 H 0.31999 0.25382 0.75345 0.0
H1080 H 0.25175 0.38318 0.78096 0.0
H1081 H 0.24566 0.2404 0.79018 0.0
H1082 H 0.20548 0.37391 0.75424 0.0
H1083 H 0.26556 0.36981 0.75115 0.0
H1084 H 0.24584 0.40898 0.76206 0.0
H1085 H 0.2043 0.19538 0.76637 0.0
H1086 H 0.25051 0.18163 0.77605 0.0
H1087 H 0.26243 0.19695 0.76134 0.0
C1088 C 0.70419 0.72362 0.98297 0.0
C1089 C 0.74639 0.7139 0.97768 0.0
C1090 C 0.70171 0.73357 0.99471 0.0
C1091 C 0.7427 0.73583 1.00126 0.0
C1092 C 0.78577 0.72972 0.99575 0.0
C1093 C 0.78706 0.71763 0.98407 0.0
C1094 C 0.65492 0.73813 1.00025 0.0
C1095 C 0.83033 0.73404 1.0023 0.0
C1096 C 0.72073 0.78272 0.03121 0.0
C1097 C 0.71744 0.74193 0.03756 0.0
C1098 C 0.73289 0.78171 0.01952 0.0
C1099 C 0.73954 0.73878 0.01399 0.0
C1100 C 0.73767 0.69769 0.02051 0.0
C1101 C 0.72763 0.69991 0.03225 0.0
C1102 C 0.73677 0.82638 0.01302 0.0
C1103 C 0.74282 0.65104 0.01494 0.0
H1104 H 0.6726 0.72028 0.9781 0.0
H1105 H 0.81977 0.71034 0.97998 0.0
H1106 H 0.64995 0.70989 1.00653 0.0
H1107 H 0.65238 0.77101 1.00501 0.0
H1108 H 0.62649 0.73675 0.99389 0.0
H1109 H 0.86028 0.73775 0.99645 0.0
H1110 H 0.82919 0.7641 0.00815 0.0
H1111 H 0.83572 0.7029 0.00762 0.0
H1112 H 0.71309 0.81529 0.03532 0.0
H1113 H 0.72465 0.66825 0.0371 0.0
H1114 H 0.70567 0.83144 0.00766 0.0
H1115 H 0.76697 0.82569 1.00719 0.0
H1116 H 0.73999 0.85632 0.01888 0.0
H1117 H 0.71475 0.64587 0.00862 0.0
H1118 H 0.7416 0.62251 0.02127 0.0
H1119 H 0.77583 0.6489 0.01022 0.0
C1120 C 0.34441 0.26107 0.02848 0.0
C1121 C 0.3105 0.26204 0.03701 0.0
C1122 C 0.33276 0.26565 0.01687 0.0
C1123 C 0.28586 0.26928 0.01367 0.0
C1124 C 0.25127 0.26644 0.0222 0.0
C1125 C 0.26406 0.26405 0.03382 0.0
C1126 C 0.37089 0.27006 0.00814 0.0
C1127 C 0.20089 0.26787 0.01911 0.0
C1128 C 0.26486 0.33964 0.9868 0.0
C1129 C 0.26668 0.30583 0.97826 0.0
C1130 C 0.26939 0.328 0.99841 0.0
C1131 C 0.27384 0.28116 1.0016 0.0
C1132 C 0.27176 0.24659 0.99305 0.0
C1133 C 0.26941 0.25941 0.98143 0.0
C1134 C 0.27297 0.36614 1.00716 0.0
C1135 C 0.27408 0.19622 0.99612 0.0
H1136 H 0.38038 0.26008 0.03094 0.0
H1137 H 0.23779 0.26463 0.04042 0.0
H1138 H 0.36648 0.24435 1.00121 0.0
H1139 H 0.36945 0.30464 1.00411 0.0
H1140 H 0.40552 0.26532 0.012 0.0
H1141 H 0.1788 0.2564 0.02633 0.0
H1142 H 0.19092 0.30353 0.01681 0.0
H1143 H 0.19392 0.24578 0.01155 0.0
H1144 H 0.26332 0.3756 0.98435 0.0
H1145 H 0.27065 0.2332 0.97483 0.0
H1146 H 0.30758 0.3654 0.01118 0.0
H1147 H 0.24736 0.36112 0.01408 0.0
H1148 H 0.26749 0.40068 1.00331 0.0
H1149 H 0.30991 0.18688 0.99842 0.0
H1150 H 0.26301 0.174 0.98889 0.0
H1151 H 0.2521 0.18881 1.00368 0.0
C1152 C 0.74871 0.75933 0.2837 0.0
C1153 C 0.7513 0.8057 0.28692 0.0
C1154 C 0.74634 0.7467 0.27207 0.0
C1155 C 0.74415 0.7814 0.26355 0.0
C1156 C 0.74842 0.82819 0.26678 0.0
C1157 C 0.75294 0.83965 0.27841 0.0
C1158 C 0.74418 0.69638 0.26895 0.0
C1159 C 0.74473 0.86646 0.25806 0.0
C1160 C 0.75436 0.7647 0.23133 0.0
C1161 C 0.70796 0.76268 0.2281 0.0
C1162 C 0.767 0.76699 0.24296 0.0
C1163 C 0.7323 0.76968 0.25146 0.0
C1164 C 0.68545 0.76603 0.24823 0.0
C1165 C 0.67396 0.76158 0.2366 0.0
C1166 C 0.81734 0.76848 0.24609 0.0
C1167 C 0.6472 0.77028 0.25693 0.0
H1168 H 0.7476 0.73301 0.29028 0.0
H1169 H 0.75438 0.87557 0.28088 0.0
H1170 H 0.70841 0.68707 0.26661 0.0
H1171 H 0.76632 0.68909 0.26141 0.0
H1172 H 0.75516 0.67403 0.27618 0.0
H1173 H 0.75004 0.90095 0.26194 0.0
H1174 H 0.77041 0.86161 0.25114 0.0
H1175 H 0.71015 0.86571 0.25402 0.0
H1176 H 0.78071 0.76537 0.22475 0.0
H1177 H 0.63802 0.76057 0.23411 0.0
H1178 H 0.82432 0.74621 0.25362 0.0
H1179 H 0.82711 0.8041 0.24844 0.0
H1180 H 0.83957 0.75725 0.23886 0.0
H1181 H 0.65166 0.74453 0.26385 0.0
H1182 H 0.61264 0.76549 0.25305 0.0
H1183 H 0.64845 0.80483 0.26097 0.0
C1184 C 0.28466 0.21587 0.48367 0.0
C1185 C 0.244 0.2127 0.47727 0.0
C1186 C 0.28333 0.22658 0.49543 0.0
C1187 C 0.24023 0.23163 0.50099 0.0
C1188 C 0.19919 0.22928 0.49446 0.0
C1189 C 0.2017 0.22091 0.48264 0.0
C1190 C 0.3279 0.23103 0.50197 0.0
C1191 C 0.15242 0.23251 0.50007 0.0
C1192 C 0.22804 0.19573 0.53209 0.0
C1193 C 0.218 0.23769 0.53744 0.0
C1194 C 0.23666 0.19348 0.52028 0.0
C1195 C 0.23733 0.23452 0.51373 0.0
C1196 C 0.2305 0.27741 0.51927 0.0
C1197 C 0.21963 0.2784 0.53102 0.0
C1198 C 0.24184 0.14684 0.51471 0.0
C1199 C 0.23312 0.32206 0.5127 0.0
H1200 H 0.3174 0.20965 0.47949 0.0
H1201 H 0.1702 0.21783 0.47772 0.0
H1202 H 0.32675 0.26134 0.50775 0.0
H1203 H 0.3332 0.20014 0.50739 0.0
H1204 H 0.35791 0.23447 0.49613 0.0
H1205 H 0.1239 0.23051 0.49374 0.0
H1206 H 0.14831 0.20406 0.50633 0.0
H1207 H 0.14915 0.26524 0.50486 0.0
H1208 H 0.22617 0.16415 0.53702 0.0
H1209 H 0.21199 0.31089 0.53517 0.0
H1210 H 0.27459 0.14495 0.50987 0.0
H1211 H 0.21347 0.14143 0.50848 0.0
H1212 H 0.24121 0.11833 0.52105 0.0
H1213 H 0.2634 0.32208 0.50691 0.0
H1214 H 0.23543 0.35223 0.51852 0.0
H1215 H 0.20198 0.32609 0.5073 0.0
C1216 C 0.76507 0.7495 0.73185 0.0
C1217 C 0.81139 0.75316 0.72864 0.0
C1218 C 0.7525 0.74561 0.74345 0.0
C1219 C 0.78724 0.74308 0.75195 0.0
C1220 C 0.83399 0.74818 0.74875 0.0
C1221 C 0.84537 0.7541 0.73716 0.0
C1222 C 0.70221 0.74242 0.74656 0.0
C1223 C 0.8723 0.74419 0.75745 0.0
C1224 C 0.76872 0.75159 0.78416 0.0
C1225 C 0.76671 0.70505 0.78725 0.0
C1226 C 0.77198 0.76476 0.77259 0.0
C1227 C 0.77558 0.73048 0.764 0.0
C1228 C 0.77228 0.68345 0.76709 0.0
C1229 C 0.76693 0.6714 0.77866 0.0
C1230 C 0.77324 0.81525 0.76959 0.0
C1231 C 0.77747 0.64568 0.75829 0.0
H1232 H 0.73873 0.74896 0.72526 0.0
H1233 H 0.88126 0.75638 0.73468 0.0
H1234 H 0.69364 0.7065 0.74894 0.0
H1235 H 0.69449 0.76446 0.75409 0.0
H1236 H 0.67962 0.75289 0.73933 0.0
H1237 H 0.90673 0.75023 0.7536 0.0
H1238 H 0.86712 0.76921 0.7645 0.0
H1239 H 0.87194 0.70928 0.76131 0.0
H1240 H 0.76835 0.77765 0.79081 0.0
H1241 H 0.76592 0.63536 0.78105 0.0
H1242 H 0.75059 0.82246 0.76214 0.0
H1243 H 0.80872 0.82519 0.76714 0.0
H1244 H 0.7623 0.83717 0.7769 0.0
H1245 H 0.7519 0.65006 0.75133 0.0
H1246 H 0.77306 0.61088 0.76208 0.0
H1247 H 0.81214 0.64765 0.75434 0.0
loop_
_geom_bond_atom_site_label_1
_geom_bond_atom_site_label_2
_geom_bond_distance
_geom_bond_site_symmetry_2
_ccdc_geom_bond_type
O0 Cd1 2.223 . S
O0 C8 1.315 . S
Cd1 O0 2.223 . S
Cd1 O4 2.297 . S
Cd1 O5 2.439 . S
Cd1 O11 2.240 . S
Cd2 O3 2.240 . S
Cd2 O10 2.223 . S
Cd2 O12 2.297 . S
Cd2 O13 2.439 . S
O3 Cd2 2.240 . S
O3 C8 1.279 . S
O4 Cd1 2.297 . S
O4 C6 1.247 . S
O5 Cd1 2.439 . S
O5 C6 1.208 . S
C6 O4 1.247 . S
C6 O5 1.208 . S
C7 O12 1.247 . S
C7 O13 1.208 . S
C8 O0 1.315 . S
C8 O3 1.279 . S
C9 O10 1.315 . S
C9 O11 1.279 . S
O10 Cd2 2.223 . S
O10 C9 1.315 . S
O11 Cd1 2.240 . S
O11 C9 1.279 . S
O12 Cd2 2.297 . S
O12 C7 1.247 . S
O13 Cd2 2.439 . S
O13 C7 1.208 . S
O14 Cd15 2.223 . S
O14 C22 1.315 . S
Cd15 O14 2.223 . S
Cd15 O18 2.297 . S
Cd15 O19 2.439 . S
Cd15 O25 2.240 . S
Cd16 O17 2.240 . S
Cd16 O24 2.223 . S
Cd16 O26 2.297 . S
Cd16 O27 2.439 . S
O17 Cd16 2.240 . S
O17 C22 1.279 . S
O18 Cd15 2.297 . S
O18 C20 1.247 . S
O19 Cd15 2.439 . S
O19 C20 1.208 . S
C20 O18 1.247 . S
C20 O19 1.208 . S
C21 O26 1.247 . S
C21 O27 1.208 . S
C22 O14 1.315 . S
C22 O17 1.279 . S
C23 O24 1.315 . S
C23 O25 1.279 . S
O24 Cd16 2.223 . S
O24 C23 1.315 . S
O25 Cd15 2.240 . S
O25 C23 1.279 . S
O26 Cd16 2.297 . S
O26 C21 1.247 . S
O27 Cd16 2.439 . S
O27 C21 1.208 . S
O28 Cd29 2.223 . S
O28 C36 1.315 . S
Cd29 O28 2.223 . S
Cd29 O32 2.297 . S
Cd29 O33 2.439 . S
Cd29 O39 2.240 . S
Cd30 O31 2.240 . S
Cd30 O38 2.223 . S
Cd30 O40 2.297 . S
Cd30 O41 2.439 . S
O31 Cd30 2.240 . S
O31 C36 1.279 . S
O32 Cd29 2.297 . S
O32 C34 1.247 . S
O33 Cd29 2.439 . S
O33 C34 1.208 . S
C34 O32 1.247 . S
C34 O33 1.208 . S
C35 O40 1.247 . S
C35 O41 1.208 . S
C36 O28 1.315 . S
C36 O31 1.279 . S
C37 O38 1.315 . S
C37 O39 1.279 . S
O38 Cd30 2.223 . S
O38 C37 1.315 . S
O39 Cd29 2.240 . S
O39 C37 1.279 . S
O40 Cd30 2.297 . S
O40 C35 1.247 . S
O41 Cd30 2.439 . S
O41 C35 1.208 . S
O42 Cd43 2.223 . S
O42 C50 1.315 . S
Cd43 O42 2.223 . S
Cd43 O46 2.297 . S
Cd43 O47 2.439 . S
Cd43 O53 2.240 . S
Cd44 O45 2.240 . S
Cd44 O52 2.223 . S
Cd44 O54 2.297 . S
Cd44 O55 2.439 . S
O45 Cd44 2.240 . S
O45 C50 1.279 . S
O46 Cd43 2.297 . S
O46 C48 1.247 . S
O47 Cd43 2.439 . S
O47 C48 1.208 . S
C48 O46 1.247 . S
C48 O47 1.208 . S
C49 O54 1.247 . S
C49 O55 1.208 . S
C50 O42 1.315 . S
C50 O45 1.279 . S
C51 O52 1.315 . S
C51 O53 1.279 . S
O52 Cd44 2.223 . S
O52 C51 1.315 . S
O53 Cd43 2.240 . S
O53 C51 1.279 . S
O54 Cd44 2.297 . S
O54 C49 1.247 . S
O55 Cd44 2.439 . S
O55 C49 1.208 . S
O56 Cd57 2.223 . S
O56 C64 1.315 . S
Cd57 O56 2.223 . S
Cd57 O60 2.297 . S
Cd57 O61 2.439 . S
Cd57 O67 2.240 . S
Cd58 O59 2.240 . S
Cd58 O66 2.223 . S
Cd58 O68 2.297 . S
Cd58 O69 2.439 . S
O59 Cd58 2.240 . S
O59 C64 1.279 . S
O60 Cd57 2.297 . S
O60 C62 1.247 . S
O61 Cd57 2.439 . S
O61 C62 1.208 . S
C62 O60 1.247 . S
C62 O61 1.208 . S
C63 O68 1.247 . S
C63 O69 1.208 . S
C64 O56 1.315 . S
C64 O59 1.279 . S
C65 O66 1.315 . S
C65 O67 1.279 . S
O66 Cd58 2.223 . S
O66 C65 1.315 . S
O67 Cd57 2.240 . S
O67 C65 1.279 . S
O68 Cd58 2.297 . S
O68 C63 1.247 . S
O69 Cd58 2.439 . S
O69 C63 1.208 . S
O70 Cd71 2.223 . S
O70 C78 1.315 . S
Cd71 O70 2.223 . S
Cd71 O74 2.297 . S
Cd71 O75 2.439 . S
Cd71 O81 2.240 . S
Cd72 O73 2.240 . S
Cd72 O80 2.223 . S
Cd72 O82 2.297 . S
Cd72 O83 2.439 . S
O73 Cd72 2.240 . S
O73 C78 1.279 . S
O74 Cd71 2.297 . S
O74 C76 1.247 . S
O75 Cd71 2.439 . S
O75 C76 1.208 . S
C76 O74 1.247 . S
C76 O75 1.208 . S
C77 O82 1.247 . S
C77 O83 1.208 . S
C78 O70 1.315 . S
C78 O73 1.279 . S
C79 O80 1.315 . S
C79 O81 1.279 . S
O80 Cd72 2.223 . S
O80 C79 1.315 . S
O81 Cd71 2.240 . S
O81 C79 1.279 . S
O82 Cd72 2.297 . S
O82 C77 1.247 . S
O83 Cd72 2.439 . S
O83 C77 1.208 . S
O84 Cd85 2.223 . S
O84 C92 1.315 . S
Cd85 O84 2.223 . S
Cd85 O88 2.297 . S
Cd85 O89 2.439 . S
Cd85 O95 2.240 . S
Cd86 O87 2.240 . S
Cd86 O94 2.223 . S
Cd86 O96 2.297 . S
Cd86 O97 2.439 . S
O87 Cd86 2.240 . S
O87 C92 1.279 . S
O88 Cd85 2.297 . S
O88 C90 1.247 . S
O89 Cd85 2.439 . S
O89 C90 1.208 . S
C90 O88 1.247 . S
C90 O89 1.208 . S
C91 O96 1.247 . S
C91 O97 1.208 . S
C92 O84 1.315 . S
C92 O87 1.279 . S
C93 O94 1.315 . S
C93 O95 1.279 . S
O94 Cd86 2.223 . S
O94 C93 1.315 . S
O95 Cd85 2.240 . S
O95 C93 1.279 . S
O96 Cd86 2.297 . S
O96 C91 1.247 . S
O97 Cd86 2.439 . S
O97 C91 1.208 . S
O98 Cd99 2.223 . S
O98 C106 1.315 . S
Cd99 O98 2.223 . S
Cd99 O102 2.297 . S
Cd99 O103 2.439 . S
Cd99 O109 2.240 . S
Cd100 O101 2.240 . S
Cd100 O108 2.223 . S
Cd100 O110 2.297 . S
Cd100 O111 2.439 . S
O101 Cd100 2.240 . S
O101 C106 1.279 . S
O102 Cd99 2.297 . S
O102 C104 1.247 . S
O103 Cd99 2.439 . S
O103 C104 1.208 . S
C104 O102 1.247 . S
C104 O103 1.208 . S
C105 O110 1.247 . S
C105 O111 1.208 . S
C106 O98 1.315 . S
C106 O101 1.279 . S
C107 O108 1.315 . S
C107 O109 1.279 . S
O108 Cd100 2.223 . S
O108 C107 1.315 . S
O109 Cd99 2.240 . S
O109 C107 1.279 . S
O110 Cd100 2.297 . S
O110 C105 1.247 . S
O111 Cd100 2.439 . S
O111 C105 1.208 . S
O112 Cd113 2.223 . S
O112 C120 1.315 . S
Cd113 O112 2.223 . S
Cd113 O116 2.297 . S
Cd113 O117 2.439 . S
Cd113 O123 2.240 . S
Cd114 O115 2.240 . S
Cd114 O122 2.223 . S
Cd114 O124 2.297 . S
Cd114 O125 2.439 . S
O115 Cd114 2.240 . S
O115 C120 1.279 . S
O116 Cd113 2.297 . S
O116 C118 1.247 . S
O117 Cd113 2.439 . S
O117 C118 1.208 . S
C118 O116 1.247 . S
C118 O117 1.208 . S
C119 O124 1.247 . S
C119 O125 1.208 . S
C120 O112 1.315 . S
C120 O115 1.279 . S
C121 O122 1.315 . S
C121 O123 1.279 . S
O122 Cd114 2.223 . S
O122 C121 1.315 . S
O123 Cd113 2.240 . S
O123 C121 1.279 . S
O124 Cd114 2.297 . S
O124 C119 1.247 . S
O125 Cd114 2.439 . S
O125 C119 1.208 . S
O126 Cd127 2.223 . S
O126 C134 1.315 . S
Cd127 O126 2.223 . S
Cd127 O130 2.297 . S
Cd127 O131 2.439 . S
Cd127 O137 2.240 . S
Cd128 O129 2.240 . S
Cd128 O136 2.223 . S
Cd128 O138 2.297 . S
Cd128 O139 2.439 . S
O129 Cd128 2.240 . S
O129 C134 1.279 . S
O130 Cd127 2.297 . S
O130 C132 1.247 . S
O131 Cd127 2.439 . S
O131 C132 1.208 . S
C132 O130 1.247 . S
C132 O131 1.208 . S
C133 O138 1.247 . S
C133 O139 1.208 . S
C134 O126 1.315 . S
C134 O129 1.279 . S
C135 O136 1.315 . S
C135 O137 1.279 . S
O136 Cd128 2.223 . S
O136 C135 1.315 . S
O137 Cd127 2.240 . S
O137 C135 1.279 . S
O138 Cd128 2.297 . S
O138 C133 1.247 . S
O139 Cd128 2.439 . S
O139 C133 1.208 . S
O140 Cd141 2.223 . S
O140 C148 1.315 . S
Cd141 O140 2.223 . S
Cd141 O144 2.297 . S
Cd141 O145 2.439 . S
Cd141 O151 2.240 . S
Cd142 O143 2.240 . S
Cd142 O150 2.223 . S
Cd142 O152 2.297 . S
Cd142 O153 2.439 . S
O143 Cd142 2.240 . S
O143 C148 1.279 . S
O144 Cd141 2.297 . S
O144 C146 1.247 . S
O145 Cd141 2.439 . S
O145 C146 1.208 . S
C146 O144 1.247 . S
C146 O145 1.208 . S
C147 O152 1.247 . S
C147 O153 1.208 . S
C148 O140 1.315 . S
C148 O143 1.279 . S
C149 O150 1.315 . S
C149 O151 1.279 . S
O150 Cd142 2.223 . S
O150 C149 1.315 . S
O151 Cd141 2.240 . S
O151 C149 1.279 . S
O152 Cd142 2.297 . S
O152 C147 1.247 . S
O153 Cd142 2.439 . S
O153 C147 1.208 . S
O154 Cd155 2.223 . S
O154 C162 1.315 . S
Cd155 O154 2.223 . S
Cd155 O158 2.297 . S
Cd155 O159 2.439 . S
Cd155 O165 2.240 . S
Cd156 O157 2.240 . S
Cd156 O164 2.223 . S
Cd156 O166 2.297 . S
Cd156 O167 2.439 . S
O157 Cd156 2.240 . S
O157 C162 1.279 . S
O158 Cd155 2.297 . S
O158 C160 1.247 . S
O159 Cd155 2.439 . S
O159 C160 1.208 . S
C160 O158 1.247 . S
C160 O159 1.208 . S
C161 O166 1.247 . S
C161 O167 1.208 . S
C162 O154 1.315 . S
C162 O157 1.279 . S
C163 O164 1.315 . S
C163 O165 1.279 . S
O164 Cd156 2.223 . S
O164 C163 1.315 . S
O165 Cd155 2.240 . S
O165 C163 1.279 . S
O166 Cd156 2.297 . S
O166 C161 1.247 . S
O167 Cd156 2.439 . S
O167 C161 1.208 . S
O168 Cd169 2.223 . S
O168 C176 1.315 . S
Cd169 O168 2.223 . S
Cd169 O172 2.297 . S
Cd169 O173 2.439 . S
Cd169 O179 2.240 . S
Cd170 O171 2.240 . S
Cd170 O178 2.223 . S
Cd170 O180 2.297 . S
Cd170 O181 2.439 . S
O171 Cd170 2.240 . S
O171 C176 1.279 . S
O172 Cd169 2.297 . S
O172 C174 1.247 . S
O173 Cd169 2.439 . S
O173 C174 1.208 . S
C174 O172 1.247 . S
C174 O173 1.208 . S
C175 O180 1.247 . S
C175 O181 1.208 . S
C176 O168 1.315 . S
C176 O171 1.279 . S
C177 O178 1.315 . S
C177 O179 1.279 . S
O178 Cd170 2.223 . S
O178 C177 1.315 . S
O179 Cd169 2.240 . S
O179 C177 1.279 . S
O180 Cd170 2.297 . S
O180 C175 1.247 . S
O181 Cd170 2.439 . S
O181 C175 1.208 . S
O182 Cd183 2.223 . S
O182 C190 1.315 . S
Cd183 O182 2.223 . S
Cd183 O186 2.297 . S
Cd183 O187 2.439 . S
Cd183 O193 2.240 . S
Cd184 O185 2.240 . S
Cd184 O192 2.223 . S
Cd184 O194 2.297 . S
Cd184 O195 2.439 . S
O185 Cd184 2.240 . S
O185 C190 1.279 . S
O186 Cd183 2.297 . S
O186 C188 1.247 . S
O187 Cd183 2.439 . S
O187 C188 1.208 . S
C188 O186 1.247 . S
C188 O187 1.208 . S
C189 O194 1.247 . S
C189 O195 1.208 . S
C190 O182 1.315 . S
C190 O185 1.279 . S
C191 O192 1.315 . S
C191 O193 1.279 . S
O192 Cd184 2.223 . S
O192 C191 1.315 . S
O193 Cd183 2.240 . S
O193 C191 1.279 . S
O194 Cd184 2.297 . S
O194 C189 1.247 . S
O195 Cd184 2.439 . S
O195 C189 1.208 . S
O196 Cd197 2.223 . S
O196 C204 1.315 . S
Cd197 O196 2.223 . S
Cd197 O200 2.297 . S
Cd197 O201 2.439 . S
Cd197 O207 2.240 . S
Cd198 O199 2.240 . S
Cd198 O206 2.223 . S
Cd198 O208 2.297 . S
Cd198 O209 2.439 . S
O199 Cd198 2.240 . S
O199 C204 1.279 . S
O200 Cd197 2.297 . S
O200 C202 1.247 . S
O201 Cd197 2.439 . S
O201 C202 1.208 . S
C202 O200 1.247 . S
C202 O201 1.208 . S
C203 O208 1.247 . S
C203 O209 1.208 . S
C204 O196 1.315 . S
C204 O199 1.279 . S
C205 O206 1.315 . S
C205 O207 1.279 . S
O206 Cd198 2.223 . S
O206 C205 1.315 . S
O207 Cd197 2.240 . S
O207 C205 1.279 . S
O208 Cd198 2.297 . S
O208 C203 1.247 . S
O209 Cd198 2.439 . S
O209 C203 1.208 . S
O210 Cd211 2.223 . S
O210 C218 1.315 . S
Cd211 O210 2.223 . S
Cd211 O214 2.297 . S
Cd211 O215 2.439 . S
Cd211 O221 2.240 . S
Cd212 O213 2.240 . S
Cd212 O220 2.223 . S
Cd212 O222 2.297 . S
Cd212 O223 2.439 . S
O213 Cd212 2.240 . S
O213 C218 1.279 . S
O214 Cd211 2.297 . S
O214 C216 1.247 . S
O215 Cd211 2.439 . S
O215 C216 1.208 . S
C216 O214 1.247 . S
C216 O215 1.208 . S
C217 O222 1.247 . S
C217 O223 1.208 . S
C218 O210 1.315 . S
C218 O213 1.279 . S
C219 O220 1.315 . S
C219 O221 1.279 . S
O220 Cd212 2.223 . S
O220 C219 1.315 . S
O221 Cd211 2.240 . S
O221 C219 1.279 . S
O222 Cd212 2.297 . S
O222 C217 1.247 . S
O223 Cd212 2.439 . S
O223 C217 1.208 . S
C224 C225 1.391 . S
C224 C226 1.394 1_565 S
C224 H240 0.931 1_565 S
C225 C224 1.391 . S
C225 C229 1.376 . S
C226 C224 1.394 1_545 S
C226 C227 1.369 1_545 S
C226 C230 1.531 . S
C227 C226 1.369 1_565 S
C227 C228 1.410 . S
C227 C235 1.503 1_665 S
C228 C227 1.410 . S
C228 C229 1.392 . S
C228 C231 1.511 1_655 S
C229 C225 1.376 . S
C229 C228 1.392 . S
C229 H241 0.929 . S
C230 C226 1.531 . S
C230 H242 0.960 . S
C230 H243 0.962 . S
C230 H244 0.960 . S
C231 C228 1.511 1_455 S
C231 H245 0.961 . S
C231 H246 0.961 . S
C231 H247 0.961 . S
C232 C233 1.370 . S
C232 C234 1.363 . S
C232 H248 0.931 . S
C233 C232 1.370 . S
C233 C237 1.408 . S
C234 C232 1.363 . S
C234 C235 1.370 . S
C234 C238 1.524 . S
C235 C227 1.503 1_445 S
C235 C234 1.370 . S
C235 C236 1.403 . S
C236 C235 1.403 . S
C236 C237 1.404 . S
C236 C239 1.539 1_545 S
C237 C233 1.408 . S
C237 C236 1.404 . S
C237 H249 0.930 . S
C238 C234 1.524 . S
C238 H250 0.956 1_455 S
C238 H251 0.961 1_545 S
C238 H252 0.961 . S
C239 C236 1.539 1_565 S
C239 H253 0.958 1_565 S
C239 H254 0.961 . S
C239 H255 0.960 . S
H240 C224 0.931 1_545 S
H241 C229 0.929 . S
H242 C230 0.960 . S
H243 C230 0.962 . S
H244 C230 0.960 . S
H245 C231 0.961 . S
H246 C231 0.961 . S
H247 C231 0.961 . S
H248 C232 0.931 . S
H249 C237 0.930 . S
H250 C238 0.956 1_655 S
H251 C238 0.961 1_565 S
H252 C238 0.961 . S
H253 C239 0.958 1_545 S
H254 C239 0.961 . S
H255 C239 0.960 . S
C256 C257 1.391 . S
C256 C258 1.394 1_655 S
C256 H272 0.931 . S
C257 C256 1.391 . S
C257 C261 1.376 . S
C258 C256 1.394 1_455 S
C258 C259 1.369 1_455 S
C258 C262 1.531 . S
C259 C258 1.369 1_655 S
C259 C260 1.410 . S
C259 C267 1.503 1_655 S
C260 C259 1.410 . S
C260 C261 1.392 . S
C260 C263 1.511 . S
C261 C257 1.376 . S
C261 C260 1.392 . S
C261 H273 0.929 . S
C262 C258 1.531 . S
C262 H274 0.960 . S
C262 H275 0.962 . S
C262 H276 0.960 . S
C263 C260 1.511 . S
C263 H277 0.961 . S
C263 H278 0.961 . S
C263 H279 0.961 . S
C264 C265 1.370 . S
C264 C266 1.363 1_455 S
C264 H280 0.931 1_455 S
C265 C264 1.370 . S
C265 C269 1.408 . S
C266 C264 1.363 1_655 S
C266 C267 1.370 1_655 S
C266 C270 1.524 . S
C267 C259 1.503 1_455 S
C267 C266 1.370 1_455 S
C267 C268 1.403 . S
C268 C267 1.403 . S
C268 C269 1.404 . S
C268 C271 1.539 . S
C269 C265 1.408 . S
C269 C268 1.404 . S
C269 H281 0.930 . S
C270 C266 1.524 . S
C270 H282 0.956 . S
C270 H283 0.961 . S
C270 H284 0.961 . S
C271 C268 1.539 . S
C271 H285 0.958 . S
C271 H286 0.961 . S
C271 H287 0.960 . S
H272 C256 0.931 . S
H273 C261 0.929 . S
H274 C262 0.960 . S
H275 C262 0.962 . S
H276 C262 0.960 . S
H277 C263 0.961 . S
H278 C263 0.961 . S
H279 C263 0.961 . S
H280 C264 0.931 1_655 S
H281 C269 0.930 . S
H282 C270 0.956 . S
H283 C270 0.961 . S
H284 C270 0.961 . S
H285 C271 0.958 . S
H286 C271 0.961 . S
H287 C271 0.960 . S
C288 C289 1.391 . S
C288 C290 1.394 . S
C288 H304 0.931 . S
C289 C288 1.391 . S
C289 C293 1.376 . S
C290 C288 1.394 . S
C290 C291 1.369 . S
C290 C294 1.531 . S
C291 C290 1.369 . S
C291 C292 1.410 . S
C291 C299 1.503 . S
C292 C291 1.410 . S
C292 C293 1.392 . S
C292 C295 1.511 . S
C293 C289 1.376 . S
C293 C292 1.392 . S
C293 H305 0.929 . S
C294 C290 1.531 . S
C294 H306 0.960 . S
C294 H307 0.962 . S
C294 H308 0.960 . S
C295 C292 1.511 . S
C295 H309 0.961 . S
C295 H310 0.961 . S
C295 H311 0.961 . S
C296 C297 1.370 . S
C296 C298 1.363 . S
C296 H312 0.931 . S
C297 C296 1.370 . S
C297 C301 1.408 . S
C298 C296 1.363 . S
C298 C299 1.370 . S
C298 C302 1.524 . S
C299 C291 1.503 . S
C299 C298 1.370 . S
C299 C300 1.403 . S
C300 C299 1.403 . S
C300 C301 1.404 . S
C300 C303 1.539 . S
C301 C297 1.408 . S
C301 C300 1.404 . S
C301 H313 0.930 . S
C302 C298 1.524 . S
C302 H314 0.956 . S
C302 H315 0.961 . S
C302 H316 0.961 . S
C303 C300 1.539 . S
C303 H317 0.958 . S
C303 H318 0.961 . S
C303 H319 0.960 . S
H304 C288 0.931 . S
H305 C293 0.929 . S
H306 C294 0.960 . S
H307 C294 0.962 . S
H308 C294 0.960 . S
H309 C295 0.961 . S
H310 C295 0.961 . S
H311 C295 0.961 . S
H312 C296 0.931 . S
H313 C301 0.930 . S
H314 C302 0.956 . S
H315 C302 0.961 . S
H316 C302 0.961 . S
H317 C303 0.958 . S
H318 C303 0.961 . S
H319 C303 0.960 . S
C320 C321 1.391 . S
C320 C322 1.394 . S
C320 H336 0.931 . S
C321 C320 1.391 . S
C321 C325 1.376 . S
C322 C320 1.394 . S
C322 C323 1.369 . S
C322 C326 1.531 1_545 S
C323 C322 1.369 . S
C323 C324 1.410 . S
C323 C331 1.503 1_545 S
C324 C323 1.410 . S
C324 C325 1.392 . S
C324 C327 1.511 . S
C325 C321 1.376 . S
C325 C324 1.392 . S
C325 H337 0.929 . S
C326 C322 1.531 1_565 S
C326 H338 0.960 . S
C326 H339 0.962 . S
C326 H340 0.960 . S
C327 C324 1.511 . S
C327 H341 0.961 . S
C327 H342 0.961 . S
C327 H343 0.961 . S
C328 C329 1.370 . S
C328 C330 1.363 . S
C328 H344 0.931 . S
C329 C328 1.370 . S
C329 C333 1.408 . S
C330 C328 1.363 . S
C330 C331 1.370 . S
C330 C334 1.524 . S
C331 C323 1.503 1_565 S
C331 C330 1.370 . S
C331 C332 1.403 . S
C332 C331 1.403 . S
C332 C333 1.404 . S
C332 C335 1.539 . S
C333 C329 1.408 . S
C333 C332 1.404 . S
C333 H345 0.930 . S
C334 C330 1.524 . S
C334 H346 0.956 . S
C334 H347 0.961 1_565 S
C334 H348 0.961 . S
C335 C332 1.539 . S
C335 H349 0.958 . S
C335 H350 0.961 . S
C335 H351 0.960 1_565 S
H336 C320 0.931 . S
H337 C325 0.929 . S
H338 C326 0.960 . S
H339 C326 0.962 . S
H340 C326 0.960 . S
H341 C327 0.961 . S
H342 C327 0.961 . S
H343 C327 0.961 . S
H344 C328 0.931 . S
H345 C333 0.930 . S
H346 C334 0.956 . S
H347 C334 0.961 1_545 S
H348 C334 0.961 . S
H349 C335 0.958 . S
H350 C335 0.961 . S
H351 C335 0.960 1_545 S
C352 C353 1.391 . S
C352 C354 1.394 . S
C352 H368 0.931 . S
C353 C352 1.391 . S
C353 C357 1.376 . S
C354 C352 1.394 . S
C354 C355 1.369 . S
C354 C358 1.531 . S
C355 C354 1.369 . S
C355 C356 1.410 . S
C355 C363 1.503 1_455 S
C356 C355 1.410 . S
C356 C357 1.392 . S
C356 C359 1.511 . S
C357 C353 1.376 . S
C357 C356 1.392 . S
C357 H369 0.929 . S
C358 C354 1.531 . S
C358 H370 0.960 . S
C358 H371 0.962 . S
C358 H372 0.960 . S
C359 C356 1.511 . S
C359 H373 0.961 . S
C359 H374 0.961 1_455 S
C359 H375 0.961 . S
C360 C361 1.370 . S
C360 C362 1.363 . S
C360 H376 0.931 . S
C361 C360 1.370 . S
C361 C365 1.408 . S
C362 C360 1.363 . S
C362 C363 1.370 . S
C362 C366 1.524 . S
C363 C355 1.503 1_655 S
C363 C362 1.370 . S
C363 C364 1.403 . S
C364 C363 1.403 . S
C364 C365 1.404 . S
C364 C367 1.539 1_655 S
C365 C361 1.408 . S
C365 C364 1.404 . S
C365 H377 0.930 . S
C366 C362 1.524 . S
C366 H378 0.956 . S
C366 H379 0.961 . S
C366 H380 0.961 . S
C367 C364 1.539 1_455 S
C367 H381 0.958 . S
C367 H382 0.959 1_455 S
C367 H383 0.960 . S
H368 C352 0.931 . S
H369 C357 0.929 . S
H370 C358 0.960 . S
H371 C358 0.962 . S
H372 C358 0.960 . S
H373 C359 0.961 . S
H374 C359 0.961 1_655 S
H375 C359 0.961 . S
H376 C360 0.931 . S
H377 C365 0.930 . S
H378 C366 0.956 . S
H379 C366 0.961 . S
H380 C366 0.961 . S
H381 C367 0.958 . S
H382 C367 0.959 1_655 S
H383 C367 0.960 . S
C384 C385 1.391 . S
C384 C386 1.394 . S
C384 H400 0.931 . S
C385 C384 1.391 . S
C385 C389 1.376 . S
C386 C384 1.394 . S
C386 C387 1.369 . S
C386 C390 1.531 . S
C387 C386 1.369 . S
C387 C388 1.410 . S
C387 C395 1.503 . S
C388 C387 1.410 . S
C388 C389 1.392 . S
C388 C391 1.511 . S
C389 C385 1.376 . S
C389 C388 1.392 . S
C389 H401 0.929 . S
C390 C386 1.531 . S
C390 H402 0.960 . S
C390 H403 0.962 . S
C390 H404 0.960 . S
C391 C388 1.511 . S
C391 H405 0.961 . S
C391 H406 0.961 . S
C391 H407 0.961 . S
C392 C393 1.370 . S
C392 C394 1.363 . S
C392 H408 0.931 . S
C393 C392 1.370 . S
C393 C397 1.408 . S
C394 C392 1.363 . S
C394 C395 1.370 . S
C394 C398 1.524 . S
C395 C387 1.503 . S
C395 C394 1.370 . S
C395 C396 1.403 . S
C396 C395 1.403 . S
C396 C397 1.404 . S
C396 C399 1.539 . S
C397 C393 1.408 . S
C397 C396 1.404 . S
C397 H409 0.930 . S
C398 C394 1.524 . S
C398 H410 0.956 . S
C398 H411 0.961 . S
C398 H412 0.961 . S
C399 C396 1.539 . S
C399 H413 0.958 . S
C399 H414 0.961 . S
C399 H415 0.960 . S
H400 C384 0.931 . S
H401 C389 0.929 . S
H402 C390 0.960 . S
H403 C390 0.962 . S
H404 C390 0.960 . S
H405 C391 0.961 . S
H406 C391 0.961 . S
H407 C391 0.961 . S
H408 C392 0.931 . S
H409 C397 0.930 . S
H410 C398 0.956 . S
H411 C398 0.961 . S
H412 C398 0.961 . S
H413 C399 0.958 . S
H414 C399 0.961 . S
H415 C399 0.960 . S
C416 C417 1.391 . S
C416 C418 1.394 1_545 S
C416 H432 0.931 1_545 S
C417 C416 1.391 . S
C417 C421 1.376 . S
C418 C416 1.394 1_565 S
C418 C419 1.369 1_565 S
C418 C422 1.531 . S
C419 C418 1.369 1_545 S
C419 C420 1.410 . S
C419 C427 1.503 1_545 S
C420 C419 1.410 . S
C420 C421 1.392 . S
C420 C423 1.511 . S
C421 C417 1.376 . S
C421 C420 1.392 . S
C421 H433 0.929 . S
C422 C418 1.531 . S
C422 H434 0.960 . S
C422 H435 0.962 . S
C422 H436 0.960 . S
C423 C420 1.511 . S
C423 H437 0.961 . S
C423 H438 0.961 . S
C423 H439 0.961 . S
C424 C425 1.370 . S
C424 C426 1.363 . S
C424 H440 0.931 . S
C425 C424 1.370 . S
C425 C429 1.408 . S
C426 C424 1.363 . S
C426 C427 1.370 . S
C426 C430 1.524 . S
C427 C419 1.503 1_565 S
C427 C426 1.370 . S
C427 C428 1.403 . S
C428 C427 1.403 . S
C428 C429 1.404 . S
C428 C431 1.539 . S
C429 C425 1.408 . S
C429 C428 1.404 . S
C429 H441 0.930 . S
C430 C426 1.524 . S
C430 H442 0.956 . S
C430 H443 0.961 1_565 S
C430 H444 0.961 . S
C431 C428 1.539 . S
C431 H445 0.958 . S
C431 H446 0.961 . S
C431 H447 0.960 1_565 S
H432 C416 0.931 1_565 S
H433 C421 0.929 . S
H434 C422 0.960 . S
H435 C422 0.962 . S
H436 C422 0.960 . S
H437 C423 0.961 . S
H438 C423 0.961 . S
H439 C423 0.961 . S
H440 C424 0.931 . S
H441 C429 0.930 . S
H442 C430 0.956 . S
H443 C430 0.961 1_545 S
H444 C430 0.961 . S
H445 C431 0.958 . S
H446 C431 0.961 . S
H447 C431 0.960 1_545 S
C448 C449 1.391 . S
C448 C450 1.394 1_455 S
C448 H464 0.931 1_455 S
C449 C448 1.391 . S
C449 C453 1.376 . S
C450 C448 1.394 1_655 S
C450 C451 1.369 1_655 S
C450 C454 1.531 . S
C451 C450 1.369 1_455 S
C451 C452 1.410 . S
C451 C459 1.503 1_445 S
C452 C451 1.410 . S
C452 C453 1.392 . S
C452 C455 1.511 1_545 S
C453 C449 1.376 . S
C453 C452 1.392 . S
C453 H465 0.929 . S
C454 C450 1.531 . S
C454 H466 0.960 . S
C454 H467 0.962 . S
C454 H468 0.960 . S
C455 C452 1.511 1_565 S
C455 H469 0.961 . S
C455 H470 0.961 . S
C455 H471 0.961 . S
C456 C457 1.370 . S
C456 C458 1.363 . S
C456 H472 0.931 . S
C457 C456 1.370 . S
C457 C461 1.408 . S
C458 C456 1.363 . S
C458 C459 1.370 . S
C458 C462 1.524 . S
C459 C451 1.503 1_665 S
C459 C458 1.370 . S
C459 C460 1.403 . S
C460 C459 1.403 . S
C460 C461 1.404 . S
C460 C463 1.539 1_655 S
C461 C457 1.408 . S
C461 C460 1.404 . S
C461 H473 0.930 . S
C462 C458 1.524 . S
C462 H474 0.956 1_565 S
C462 H475 0.961 1_565 S
C462 H476 0.961 . S
C463 C460 1.539 1_455 S
C463 H477 0.958 . S
C463 H478 0.961 . S
C463 H479 0.960 . S
H464 C448 0.931 1_655 S
H465 C453 0.929 . S
H466 C454 0.960 . S
H467 C454 0.962 . S
H468 C454 0.960 . S
H469 C455 0.961 . S
H470 C455 0.961 . S
H471 C455 0.961 . S
H472 C456 0.931 . S
H473 C461 0.930 . S
H474 C462 0.956 1_545 S
H475 C462 0.961 1_545 S
H476 C462 0.961 . S
H477 C463 0.958 . S
H478 C463 0.961 . S
H479 C463 0.960 . S
C480 C481 1.391 . S
C480 C482 1.394 . S
C480 H496 0.931 . S
C481 C480 1.391 . S
C481 C485 1.376 . S
C482 C480 1.394 . S
C482 C483 1.369 . S
C482 C486 1.531 . S
C483 C482 1.369 . S
C483 C484 1.410 1_565 S
C483 C491 1.503 1_565 S
C484 C483 1.410 1_545 S
C484 C485 1.392 1_545 S
C484 C487 1.511 . S
C485 C481 1.376 . S
C485 C484 1.392 1_565 S
C485 H497 0.929 1_565 S
C486 C482 1.531 . S
C486 H498 0.960 . S
C486 H499 0.962 . S
C486 H500 0.960 . S
C487 C484 1.511 . S
C487 H501 0.961 . S
C487 H502 0.961 . S
C487 H503 0.961 . S
C488 C489 1.370 . S
C488 C490 1.363 . S
C488 H504 0.931 . S
C489 C488 1.370 . S
C489 C493 1.408 . S
C490 C488 1.363 . S
C490 C491 1.370 . S
C490 C494 1.524 . S
C491 C483 1.503 1_545 S
C491 C490 1.370 . S
C491 C492 1.403 . S
C492 C491 1.403 . S
C492 C493 1.404 . S
C492 C495 1.539 1_545 S
C493 C489 1.408 . S
C493 C492 1.404 . S
C493 H505 0.930 . S
C494 C490 1.524 . S
C494 H506 0.956 . S
C494 H507 0.961 . S
C494 H508 0.961 . S
C495 C492 1.539 1_565 S
C495 H509 0.958 . S
C495 H510 0.961 . S
C495 H511 0.960 . S
H496 C480 0.931 . S
H497 C485 0.929 1_545 S
H498 C486 0.960 . S
H499 C486 0.962 . S
H500 C486 0.960 . S
H501 C487 0.961 . S
H502 C487 0.961 . S
H503 C487 0.961 . S
H504 C488 0.931 . S
H505 C493 0.930 . S
H506 C494 0.956 . S
H507 C494 0.961 . S
H508 C494 0.961 . S
H509 C495 0.958 . S
H510 C495 0.961 . S
H511 C495 0.960 . S
C512 C513 1.391 . S
C512 C514 1.394 . S
C512 H528 0.931 . S
C513 C512 1.391 . S
C513 C517 1.376 . S
C514 C512 1.394 . S
C514 C515 1.369 . S
C514 C518 1.531 . S
C515 C514 1.369 . S
C515 C516 1.410 1_655 S
C515 C523 1.503 1_665 S
C516 C515 1.410 1_455 S
C516 C517 1.392 1_455 S
C516 C519 1.511 . S
C517 C513 1.376 . S
C517 C516 1.392 1_655 S
C517 H529 0.929 . S
C518 C514 1.531 . S
C518 H530 0.960 1_565 S
C518 H531 0.962 1_565 S
C518 H532 0.960 . S
C519 C516 1.511 . S
C519 H533 0.961 . S
C519 H534 0.961 . S
C519 H535 0.961 . S
C520 C521 1.370 . S
C520 C522 1.363 1_455 S
C520 H536 0.931 1_455 S
C521 C520 1.370 . S
C521 C525 1.408 . S
C522 C520 1.363 1_655 S
C522 C523 1.370 1_655 S
C522 C526 1.524 . S
C523 C515 1.503 1_445 S
C523 C522 1.370 1_455 S
C523 C524 1.403 . S
C524 C523 1.403 . S
C524 C525 1.404 . S
C524 C527 1.539 1_545 S
C525 C521 1.408 . S
C525 C524 1.404 . S
C525 H537 0.930 . S
C526 C522 1.524 . S
C526 H538 0.956 . S
C526 H539 0.961 . S
C526 H540 0.961 . S
C527 C524 1.539 1_565 S
C527 H541 0.958 . S
C527 H542 0.961 1_565 S
C527 H543 0.960 . S
H528 C512 0.931 . S
H529 C517 0.929 . S
H530 C518 0.960 1_545 S
H531 C518 0.962 1_545 S
H532 C518 0.960 . S
H533 C519 0.961 . S
H534 C519 0.961 . S
H535 C519 0.961 . S
H536 C520 0.931 1_655 S
H537 C525 0.930 . S
H538 C526 0.956 . S
H539 C526 0.961 . S
H540 C526 0.961 . S
H541 C527 0.958 . S
H542 C527 0.961 1_545 S
H543 C527 0.960 . S
C544 C545 1.391 . S
C544 C546 1.394 . S
C544 H560 0.931 . S
C545 C544 1.391 . S
C545 C549 1.376 . S
C546 C544 1.394 . S
C546 C547 1.369 . S
C546 C550 1.525 1_455 S
C547 C546 1.369 . S
C547 C548 1.410 . S
C547 C555 1.503 1_455 S
C548 C547 1.410 . S
C548 C549 1.392 . S
C548 C551 1.511 . S
C549 C545 1.376 . S
C549 C548 1.392 . S
C549 H561 0.929 . S
C550 C546 1.525 1_655 S
C550 H562 0.965 . S
C550 H563 0.966 . S
C550 H564 0.957 1_655 S
C551 C548 1.511 . S
C551 H565 0.961 . S
C551 H566 0.961 . S
C551 H567 0.961 . S
C552 C553 1.370 . S
C552 C554 1.363 . S
C552 H568 0.931 . S
C553 C552 1.370 . S
C553 C557 1.408 . S
C554 C552 1.363 . S
C554 C555 1.370 . S
C554 C558 1.524 . S
C555 C547 1.503 1_655 S
C555 C554 1.370 . S
C555 C556 1.403 . S
C556 C555 1.403 . S
C556 C557 1.404 . S
C556 C559 1.539 1_655 S
C557 C553 1.408 . S
C557 C556 1.404 . S
C557 H569 0.930 . S
C558 C554 1.524 . S
C558 H570 0.956 . S
C558 H571 0.961 . S
C558 H572 0.961 . S
C559 C556 1.539 1_455 S
C559 H573 0.958 . S
C559 H574 0.961 1_455 S
C559 H575 0.960 . S
H560 C544 0.931 . S
H561 C549 0.929 . S
H562 C550 0.965 . S
H563 C550 0.966 . S
H564 C550 0.957 1_455 S
H565 C551 0.961 . S
H566 C551 0.961 . S
H567 C551 0.961 . S
H568 C552 0.931 . S
H569 C557 0.930 . S
H570 C558 0.956 . S
H571 C558 0.961 . S
H572 C558 0.961 . S
H573 C559 0.958 . S
H574 C559 0.961 1_655 S
H575 C559 0.960 . S
C576 C577 1.391 . S
C576 C578 1.394 . S
C576 H592 0.931 . S
C577 C576 1.391 . S
C577 C581 1.376 . S
C578 C576 1.394 . S
C578 C579 1.369 . S
C578 C582 1.531 . S
C579 C578 1.369 . S
C579 C580 1.410 . S
C579 C587 1.503 . S
C580 C579 1.410 . S
C580 C581 1.392 . S
C580 C583 1.511 . S
C581 C577 1.376 . S
C581 C580 1.392 . S
C581 H593 0.929 . S
C582 C578 1.531 . S
C582 H594 0.960 . S
C582 H595 0.962 . S
C582 H596 0.960 . S
C583 C580 1.511 . S
C583 H597 0.961 . S
C583 H598 0.961 . S
C583 H599 0.961 . S
C584 C585 1.370 . S
C584 C586 1.363 . S
C584 H600 0.931 . S
C585 C584 1.370 . S
C585 C589 1.408 . S
C586 C584 1.363 . S
C586 C587 1.370 . S
C586 C590 1.524 . S
C587 C579 1.503 . S
C587 C586 1.370 . S
C587 C588 1.403 . S
C588 C587 1.403 . S
C588 C589 1.404 . S
C588 C591 1.539 . S
C589 C585 1.408 . S
C589 C588 1.404 . S
C589 H601 0.930 . S
C590 C586 1.524 . S
C590 H602 0.956 . S
C590 H603 0.961 . S
C590 H604 0.961 . S
C591 C588 1.539 . S
C591 H605 0.958 . S
C591 H606 0.961 . S
C591 H607 0.960 . S
H592 C576 0.931 . S
H593 C581 0.929 . S
H594 C582 0.960 . S
H595 C582 0.962 . S
H596 C582 0.960 . S
H597 C583 0.961 . S
H598 C583 0.961 . S
H599 C583 0.961 . S
H600 C584 0.931 . S
H601 C589 0.930 . S
H602 C590 0.956 . S
H603 C590 0.961 . S
H604 C590 0.961 . S
H605 C591 0.958 . S
H606 C591 0.961 . S
H607 C591 0.960 . S
C608 C609 1.391 . S
C608 C610 1.394 . S
C608 H624 0.931 . S
C609 C608 1.391 . S
C609 C613 1.376 . S
C610 C608 1.394 . S
C610 C611 1.369 . S
C610 C614 1.531 . S
C611 C610 1.369 . S
C611 C612 1.410 . S
C611 C619 1.503 . S
C612 C611 1.410 . S
C612 C613 1.392 . S
C612 C615 1.511 . S
C613 C609 1.376 . S
C613 C612 1.392 . S
C613 H625 0.929 . S
C614 C610 1.531 . S
C614 H626 0.960 . S
C614 H627 0.962 . S
C614 H628 0.960 . S
C615 C612 1.511 . S
C615 H629 0.961 . S
C615 H630 0.961 . S
C615 H631 0.961 . S
C616 C617 1.370 . S
C616 C618 1.363 . S
C616 H632 0.931 . S
C617 C616 1.370 . S
C617 C621 1.408 . S
C618 C616 1.363 . S
C618 C619 1.370 . S
C618 C622 1.524 . S
C619 C611 1.503 . S
C619 C618 1.370 . S
C619 C620 1.403 . S
C620 C619 1.403 . S
C620 C621 1.404 . S
C620 C623 1.539 . S
C621 C617 1.408 . S
C621 C620 1.404 . S
C621 H633 0.930 . S
C622 C618 1.524 . S
C622 H634 0.956 . S
C622 H635 0.961 . S
C622 H636 0.961 . S
C623 C620 1.539 . S
C623 H637 0.958 . S
C623 H638 0.961 . S
C623 H639 0.960 . S
H624 C608 0.931 . S
H625 C613 0.929 . S
H626 C614 0.960 . S
H627 C614 0.962 . S
H628 C614 0.960 . S
H629 C615 0.961 . S
H630 C615 0.961 . S
H631 C615 0.961 . S
H632 C616 0.931 . S
H633 C621 0.930 . S
H634 C622 0.956 . S
H635 C622 0.961 . S
H636 C622 0.961 . S
H637 C623 0.958 . S
H638 C623 0.961 . S
H639 C623 0.960 . S
C640 C641 1.391 . S
C640 C642 1.394 . S
C640 H656 0.931 . S
C641 C640 1.391 . S
C641 C645 1.376 . S
C642 C640 1.394 . S
C642 C643 1.369 . S
C642 C646 1.531 . S
C643 C642 1.369 . S
C643 C644 1.410 . S
C643 C651 1.503 1_565 S
C644 C643 1.410 . S
C644 C645 1.392 . S
C644 C647 1.511 1_565 S
C645 C641 1.376 . S
C645 C644 1.392 . S
C645 H657 0.929 . S
C646 C642 1.531 . S
C646 H658 0.960 . S
C646 H659 0.962 . S
C646 H660 0.960 . S
C647 C644 1.511 1_545 S
C647 H661 0.961 . S
C647 H662 0.961 . S
C647 H663 0.961 . S
C648 C649 1.370 . S
C648 C650 1.363 . S
C648 H664 0.931 . S
C649 C648 1.370 . S
C649 C653 1.408 . S
C650 C648 1.363 . S
C650 C651 1.370 . S
C650 C654 1.524 . S
C651 C643 1.503 1_545 S
C651 C650 1.370 . S
C651 C652 1.403 . S
C652 C651 1.403 . S
C652 C653 1.404 . S
C652 C655 1.539 . S
C653 C649 1.408 . S
C653 C652 1.404 . S
C653 H665 0.930 . S
C654 C650 1.524 . S
C654 H666 0.956 1_545 S
C654 H667 0.961 . S
C654 H668 0.961 . S
C655 C652 1.539 . S
C655 H669 0.958 . S
C655 H670 0.961 . S
C655 H671 0.960 1_545 S
H656 C640 0.931 . S
H657 C645 0.929 . S
H658 C646 0.960 . S
H659 C646 0.962 . S
H660 C646 0.960 . S
H661 C647 0.961 . S
H662 C647 0.961 . S
H663 C647 0.961 . S
H664 C648 0.931 . S
H665 C653 0.930 . S
H666 C654 0.956 1_565 S
H667 C654 0.961 . S
H668 C654 0.961 . S
H669 C655 0.958 . S
H670 C655 0.961 . S
H671 C655 0.960 1_565 S
C672 C673 1.391 . S
C672 C674 1.394 1_565 S
C672 H688 0.931 1_565 S
C673 C672 1.391 . S
C673 C677 1.376 . S
C674 C672 1.394 1_545 S
C674 C675 1.369 1_545 S
C674 C678 1.531 . S
C675 C674 1.369 1_565 S
C675 C676 1.410 . S
C675 C683 1.503 1_665 S
C676 C675 1.410 . S
C676 C677 1.392 . S
C676 C679 1.511 1_655 S
C677 C673 1.376 . S
C677 C676 1.392 . S
C677 H689 0.929 . S
C678 C674 1.531 . S
C678 H690 0.960 . S
C678 H691 0.962 . S
C678 H692 0.960 . S
C679 C676 1.511 1_455 S
C679 H693 0.961 . S
C679 H694 0.961 . S
C679 H695 0.961 . S
C680 C681 1.370 . S
C680 C682 1.363 . S
C680 H696 0.931 . S
C681 C680 1.370 . S
C681 C685 1.408 . S
C682 C680 1.363 . S
C682 C683 1.370 . S
C682 C686 1.524 . S
C683 C675 1.503 1_445 S
C683 C682 1.370 . S
C683 C684 1.403 . S
C684 C683 1.403 . S
C684 C685 1.404 . S
C684 C687 1.539 . S
C685 C681 1.408 . S
C685 C684 1.404 . S
C685 H697 0.930 . S
C686 C682 1.524 . S
C686 H698 0.956 1_455 S
C686 H699 0.961 1_545 S
C686 H700 0.961 . S
C687 C684 1.539 . S
C687 H701 0.958 . S
C687 H702 0.961 1_545 S
C687 H703 0.960 1_545 S
H688 C672 0.931 1_545 S
H689 C677 0.929 . S
H690 C678 0.960 . S
H691 C678 0.962 . S
H692 C678 0.960 . S
H693 C679 0.961 . S
H694 C679 0.961 . S
H695 C679 0.961 . S
H696 C680 0.931 . S
H697 C685 0.930 . S
H698 C686 0.956 1_655 S
H699 C686 0.961 1_565 S
H700 C686 0.961 . S
H701 C687 0.958 . S
H702 C687 0.961 1_565 S
H703 C687 0.960 1_565 S
C704 C705 1.391 . S
C704 C706 1.394 1_455 S
C704 H720 0.931 1_455 S
C705 C704 1.391 . S
C705 C709 1.376 . S
C706 C704 1.394 1_655 S
C706 C707 1.369 1_655 S
C706 C710 1.531 . S
C707 C706 1.369 1_455 S
C707 C708 1.410 . S
C707 C715 1.503 1_455 S
C708 C707 1.410 . S
C708 C709 1.392 . S
C708 C711 1.511 . S
C709 C705 1.376 . S
C709 C708 1.392 . S
C709 H721 0.929 . S
C710 C706 1.531 . S
C710 H722 0.960 . S
C710 H723 0.962 . S
C710 H724 0.960 . S
C711 C708 1.511 . S
C711 H725 0.961 . S
C711 H726 0.961 . S
C711 H727 0.961 . S
C712 C713 1.370 . S
C712 C714 1.363 . S
C712 H728 0.931 . S
C713 C712 1.370 . S
C713 C717 1.408 . S
C714 C712 1.363 . S
C714 C715 1.370 . S
C714 C718 1.524 . S
C715 C707 1.503 1_655 S
C715 C714 1.370 . S
C715 C716 1.403 . S
C716 C715 1.403 . S
C716 C717 1.404 . S
C716 C719 1.539 1_655 S
C717 C713 1.408 . S
C717 C716 1.404 . S
C717 H729 0.930 . S
C718 C714 1.524 . S
C718 H730 0.956 . S
C718 H731 0.961 1_655 S
C718 H732 0.961 . S
C719 C716 1.539 1_455 S
C719 H733 0.958 1_455 S
C719 H734 0.961 . S
C719 H735 0.960 . S
H720 C704 0.931 1_655 S
H721 C709 0.929 . S
H722 C710 0.960 . S
H723 C710 0.962 . S
H724 C710 0.960 . S
H725 C711 0.961 . S
H726 C711 0.961 . S
H727 C711 0.961 . S
H728 C712 0.931 . S
H729 C717 0.930 . S
H730 C718 0.956 . S
H731 C718 0.961 1_455 S
H732 C718 0.961 . S
H733 C719 0.958 1_655 S
H734 C719 0.961 . S
H735 C719 0.960 . S
C736 C737 1.391 . S
C736 C738 1.394 . S
C736 H752 0.931 . S
C737 C736 1.391 . S
C737 C741 1.376 . S
C738 C736 1.394 . S
C738 C739 1.369 . S
C738 C742 1.531 . S
C739 C738 1.369 . S
C739 C740 1.410 . S
C739 C747 1.503 . S
C740 C739 1.410 . S
C740 C741 1.392 . S
C740 C743 1.511 . S
C741 C737 1.376 . S
C741 C740 1.392 . S
C741 H753 0.929 . S
C742 C738 1.531 . S
C742 H754 0.960 . S
C742 H755 0.962 . S
C742 H756 0.960 . S
C743 C740 1.511 . S
C743 H757 0.961 . S
C743 H758 0.961 . S
C743 H759 0.961 . S
C744 C745 1.370 . S
C744 C746 1.363 . S
C744 H760 0.931 . S
C745 C744 1.370 . S
C745 C749 1.408 . S
C746 C744 1.363 . S
C746 C747 1.370 . S
C746 C750 1.524 . S
C747 C739 1.503 . S
C747 C746 1.370 . S
C747 C748 1.403 . S
C748 C747 1.403 . S
C748 C749 1.404 . S
C748 C751 1.539 . S
C749 C745 1.408 . S
C749 C748 1.404 . S
C749 H761 0.930 . S
C750 C746 1.524 . S
C750 H762 0.956 . S
C750 H763 0.961 . S
C750 H764 0.961 . S
C751 C748 1.539 . S
C751 H765 0.958 . S
C751 H766 0.961 . S
C751 H767 0.960 . S
H752 C736 0.931 . S
H753 C741 0.929 . S
H754 C742 0.960 . S
H755 C742 0.962 . S
H756 C742 0.960 . S
H757 C743 0.961 . S
H758 C743 0.961 . S
H759 C743 0.961 . S
H760 C744 0.931 . S
H761 C749 0.930 . S
H762 C750 0.956 . S
H763 C750 0.961 . S
H764 C750 0.961 . S
H765 C751 0.958 . S
H766 C751 0.961 . S
H767 C751 0.960 . S
C768 C769 1.391 . S
C768 C770 1.394 . S
C768 H784 0.931 . S
C769 C768 1.391 . S
C769 C773 1.376 . S
C770 C768 1.394 . S
C770 C771 1.369 . S
C770 C774 1.531 . S
C771 C770 1.369 . S
C771 C772 1.410 . S
C771 C779 1.503 . S
C772 C771 1.410 . S
C772 C773 1.392 . S
C772 C775 1.511 . S
C773 C769 1.376 . S
C773 C772 1.392 . S
C773 H785 0.929 . S
C774 C770 1.531 . S
C774 H786 0.960 . S
C774 H787 0.962 . S
C774 H788 0.960 . S
C775 C772 1.511 . S
C775 H789 0.961 . S
C775 H790 0.961 . S
C775 H791 0.961 . S
C776 C777 1.370 . S
C776 C778 1.363 . S
C776 H792 0.931 . S
C777 C776 1.370 . S
C777 C781 1.408 . S
C778 C776 1.363 . S
C778 C779 1.370 . S
C778 C782 1.524 . S
C779 C771 1.503 . S
C779 C778 1.370 . S
C779 C780 1.403 . S
C780 C779 1.403 . S
C780 C781 1.404 . S
C780 C783 1.539 . S
C781 C777 1.408 . S
C781 C780 1.404 . S
C781 H793 0.930 . S
C782 C778 1.524 . S
C782 H794 0.956 . S
C782 H795 0.961 . S
C782 H796 0.961 . S
C783 C780 1.539 . S
C783 H797 0.958 . S
C783 H798 0.961 . S
C783 H799 0.960 . S
H784 C768 0.931 . S
H785 C773 0.929 . S
H786 C774 0.960 . S
H787 C774 0.962 . S
H788 C774 0.960 . S
H789 C775 0.961 . S
H790 C775 0.961 . S
H791 C775 0.961 . S
H792 C776 0.931 . S
H793 C781 0.930 . S
H794 C782 0.956 . S
H795 C782 0.961 . S
H796 C782 0.961 . S
H797 C783 0.958 . S
H798 C783 0.961 . S
H799 C783 0.960 . S
C800 C801 1.391 . S
C800 C802 1.394 . S
C800 H816 0.931 . S
C801 C800 1.391 . S
C801 C805 1.376 . S
C802 C800 1.394 . S
C802 C803 1.369 . S
C802 C806 1.531 . S
C803 C802 1.369 . S
C803 C804 1.410 . S
C803 C811 1.503 . S
C804 C803 1.410 . S
C804 C805 1.392 . S
C804 C807 1.511 . S
C805 C801 1.376 . S
C805 C804 1.392 . S
C805 H817 0.929 . S
C806 C802 1.531 . S
C806 H818 0.960 . S
C806 H819 0.962 . S
C806 H820 0.960 . S
C807 C804 1.511 . S
C807 H821 0.961 . S
C807 H822 0.961 . S
C807 H823 0.961 . S
C808 C809 1.370 . S
C808 C810 1.363 . S
C808 H824 0.931 . S
C809 C808 1.370 . S
C809 C813 1.408 . S
C810 C808 1.363 . S
C810 C811 1.370 . S
C810 C814 1.524 . S
C811 C803 1.503 . S
C811 C810 1.370 . S
C811 C812 1.403 . S
C812 C811 1.403 . S
C812 C813 1.404 . S
C812 C815 1.539 . S
C813 C809 1.408 . S
C813 C812 1.404 . S
C813 H825 0.930 . S
C814 C810 1.524 . S
C814 H826 0.956 . S
C814 H827 0.961 . S
C814 H828 0.961 . S
C815 C812 1.539 . S
C815 H829 0.958 . S
C815 H830 0.961 . S
C815 H831 0.960 . S
H816 C800 0.931 . S
H817 C805 0.929 . S
H818 C806 0.960 . S
H819 C806 0.962 . S
H820 C806 0.960 . S
H821 C807 0.961 . S
H822 C807 0.961 . S
H823 C807 0.961 . S
H824 C808 0.931 . S
H825 C813 0.930 . S
H826 C814 0.956 . S
H827 C814 0.961 . S
H828 C814 0.961 . S
H829 C815 0.958 . S
H830 C815 0.961 . S
H831 C815 0.960 . S
C832 C833 1.391 . S
C832 C834 1.394 . S
C832 H848 0.931 . S
C833 C832 1.391 . S
C833 C837 1.376 . S
C834 C832 1.394 . S
C834 C835 1.369 . S
C834 C838 1.531 . S
C835 C834 1.369 . S
C835 C836 1.410 . S
C835 C843 1.503 . S
C836 C835 1.410 . S
C836 C837 1.392 . S
C836 C839 1.511 . S
C837 C833 1.376 . S
C837 C836 1.392 . S
C837 H849 0.929 . S
C838 C834 1.531 . S
C838 H850 0.960 . S
C838 H851 0.962 . S
C838 H852 0.960 . S
C839 C836 1.511 . S
C839 H853 0.961 . S
C839 H854 0.961 . S
C839 H855 0.961 . S
C840 C841 1.370 . S
C840 C842 1.363 . S
C840 H856 0.931 . S
C841 C840 1.370 . S
C841 C845 1.408 . S
C842 C840 1.363 . S
C842 C843 1.370 . S
C842 C846 1.524 . S
C843 C835 1.503 . S
C843 C842 1.370 . S
C843 C844 1.403 . S
C844 C843 1.403 . S
C844 C845 1.404 . S
C844 C847 1.539 . S
C845 C841 1.408 . S
C845 C844 1.404 . S
C845 H857 0.930 . S
C846 C842 1.524 . S
C846 H858 0.956 . S
C846 H859 0.961 . S
C846 H860 0.961 . S
C847 C844 1.539 . S
C847 H861 0.958 . S
C847 H862 0.961 . S
C847 H863 0.960 . S
H848 C832 0.931 . S
H849 C837 0.929 . S
H850 C838 0.960 . S
H851 C838 0.962 . S
H852 C838 0.960 . S
H853 C839 0.961 . S
H854 C839 0.961 . S
H855 C839 0.961 . S
H856 C840 0.931 . S
H857 C845 0.930 . S
H858 C846 0.956 . S
H859 C846 0.961 . S
H860 C846 0.961 . S
H861 C847 0.958 . S
H862 C847 0.961 . S
H863 C847 0.960 . S
C864 C865 1.391 . S
C864 C866 1.394 . S
C864 H880 0.931 . S
C865 C864 1.391 . S
C865 C869 1.376 . S
C866 C864 1.394 . S
C866 C867 1.369 . S
C866 C870 1.531 . S
C867 C866 1.369 . S
C867 C868 1.410 . S
C867 C875 1.503 . S
C868 C867 1.410 . S
C868 C869 1.392 . S
C868 C871 1.511 . S
C869 C865 1.376 . S
C869 C868 1.392 . S
C869 H881 0.929 . S
C870 C866 1.531 . S
C870 H882 0.960 . S
C870 H883 0.962 . S
C870 H884 0.960 . S
C871 C868 1.511 . S
C871 H885 0.961 . S
C871 H886 0.961 . S
C871 H887 0.961 . S
C872 C873 1.370 . S
C872 C874 1.363 . S
C872 H888 0.931 . S
C873 C872 1.370 . S
C873 C877 1.408 . S
C874 C872 1.363 . S
C874 C875 1.370 . S
C874 C878 1.524 . S
C875 C867 1.503 . S
C875 C874 1.370 . S
C875 C876 1.403 . S
C876 C875 1.403 . S
C876 C877 1.404 . S
C876 C879 1.539 . S
C877 C873 1.408 . S
C877 C876 1.404 . S
C877 H889 0.930 . S
C878 C874 1.524 . S
C878 H890 0.956 . S
C878 H891 0.961 . S
C878 H892 0.961 . S
C879 C876 1.539 . S
C879 H893 0.958 . S
C879 H894 0.961 . S
C879 H895 0.960 . S
H880 C864 0.931 . S
H881 C869 0.929 . S
H882 C870 0.960 . S
H883 C870 0.962 . S
H884 C870 0.960 . S
H885 C871 0.961 . S
H886 C871 0.961 . S
H887 C871 0.961 . S
H888 C872 0.931 . S
H889 C877 0.930 . S
H890 C878 0.956 . S
H891 C878 0.961 . S
H892 C878 0.961 . S
H893 C879 0.958 . S
H894 C879 0.961 . S
H895 C879 0.960 . S
C896 C897 1.391 . S
C896 C898 1.394 . S
C896 H912 0.931 . S
C897 C896 1.391 . S
C897 C901 1.376 . S
C898 C896 1.394 . S
C898 C899 1.369 . S
C898 C902 1.531 . S
C899 C898 1.369 . S
C899 C900 1.410 . S
C899 C907 1.503 . S
C900 C899 1.410 . S
C900 C901 1.392 . S
C900 C903 1.511 . S
C901 C897 1.376 . S
C901 C900 1.392 . S
C901 H913 0.929 . S
C902 C898 1.531 . S
C902 H914 0.960 . S
C902 H915 0.962 . S
C902 H916 0.960 . S
C903 C900 1.511 . S
C903 H917 0.961 . S
C903 H918 0.961 . S
C903 H919 0.961 . S
C904 C905 1.370 . S
C904 C906 1.363 . S
C904 H920 0.931 . S
C905 C904 1.370 . S
C905 C909 1.408 . S
C906 C904 1.363 . S
C906 C907 1.370 . S
C906 C910 1.524 . S
C907 C899 1.503 . S
C907 C906 1.370 . S
C907 C908 1.403 . S
C908 C907 1.403 . S
C908 C909 1.404 . S
C908 C911 1.539 . S
C909 C905 1.408 . S
C909 C908 1.404 . S
C909 H921 0.930 . S
C910 C906 1.524 . S
C910 H922 0.956 . S
C910 H923 0.961 . S
C910 H924 0.961 . S
C911 C908 1.539 . S
C911 H925 0.958 . S
C911 H926 0.961 . S
C911 H927 0.960 . S
H912 C896 0.931 . S
H913 C901 0.929 . S
H914 C902 0.960 . S
H915 C902 0.962 . S
H916 C902 0.960 . S
H917 C903 0.961 . S
H918 C903 0.961 . S
H919 C903 0.961 . S
H920 C904 0.931 . S
H921 C909 0.930 . S
H922 C910 0.956 . S
H923 C910 0.961 . S
H924 C910 0.961 . S
H925 C911 0.958 . S
H926 C911 0.961 . S
H927 C911 0.960 . S
C928 C929 1.391 . S
C928 C930 1.394 . S
C928 H944 0.931 . S
C929 C928 1.391 . S
C929 C933 1.376 . S
C930 C928 1.394 . S
C930 C931 1.369 . S
C930 C934 1.531 . S
C931 C930 1.369 . S
C931 C932 1.410 . S
C931 C939 1.503 . S
C932 C931 1.410 . S
C932 C933 1.392 . S
C932 C935 1.511 . S
C933 C929 1.376 . S
C933 C932 1.392 . S
C933 H945 0.929 . S
C934 C930 1.531 . S
C934 H946 0.960 . S
C934 H947 0.962 . S
C934 H948 0.960 . S
C935 C932 1.511 . S
C935 H949 0.961 . S
C935 H950 0.961 . S
C935 H951 0.961 . S
C936 C937 1.370 . S
C936 C938 1.363 . S
C936 H952 0.931 . S
C937 C936 1.370 . S
C937 C941 1.408 . S
C938 C936 1.363 . S
C938 C939 1.370 . S
C938 C942 1.524 . S
C939 C931 1.503 . S
C939 C938 1.370 . S
C939 C940 1.403 . S
C940 C939 1.403 . S
C940 C941 1.404 . S
C940 C943 1.539 . S
C941 C937 1.408 . S
C941 C940 1.404 . S
C941 H953 0.930 . S
C942 C938 1.524 . S
C942 H954 0.956 . S
C942 H955 0.961 . S
C942 H956 0.961 . S
C943 C940 1.539 . S
C943 H957 0.958 . S
C943 H958 0.961 . S
C943 H959 0.960 . S
H944 C928 0.931 . S
H945 C933 0.929 . S
H946 C934 0.960 . S
H947 C934 0.962 . S
H948 C934 0.960 . S
H949 C935 0.961 . S
H950 C935 0.961 . S
H951 C935 0.961 . S
H952 C936 0.931 . S
H953 C941 0.930 . S
H954 C942 0.956 . S
H955 C942 0.961 . S
H956 C942 0.961 . S
H957 C943 0.958 . S
H958 C943 0.961 . S
H959 C943 0.960 . S
C960 C961 1.391 . S
C960 C962 1.394 . S
C960 H976 0.931 . S
C961 C960 1.391 . S
C961 C965 1.376 . S
C962 C960 1.394 . S
C962 C963 1.369 . S
C962 C966 1.531 . S
C963 C962 1.369 . S
C963 C964 1.410 . S
C963 C971 1.503 . S
C964 C963 1.410 . S
C964 C965 1.392 . S
C964 C967 1.511 . S
C965 C961 1.376 . S
C965 C964 1.392 . S
C965 H977 0.929 . S
C966 C962 1.531 . S
C966 H978 0.960 . S
C966 H979 0.962 . S
C966 H980 0.960 . S
C967 C964 1.511 . S
C967 H981 0.961 . S
C967 H982 0.961 . S
C967 H983 0.961 . S
C968 C969 1.370 . S
C968 C970 1.363 . S
C968 H984 0.931 . S
C969 C968 1.370 . S
C969 C973 1.408 . S
C970 C968 1.363 . S
C970 C971 1.370 . S
C970 C974 1.524 . S
C971 C963 1.503 . S
C971 C970 1.370 . S
C971 C972 1.403 . S
C972 C971 1.403 . S
C972 C973 1.404 . S
C972 C975 1.539 . S
C973 C969 1.408 . S
C973 C972 1.404 . S
C973 H985 0.930 . S
C974 C970 1.524 . S
C974 H986 0.956 . S
C974 H987 0.961 . S
C974 H988 0.961 . S
C975 C972 1.539 . S
C975 H989 0.958 . S
C975 H990 0.961 . S
C975 H991 0.960 . S
H976 C960 0.931 . S
H977 C965 0.929 . S
H978 C966 0.960 . S
H979 C966 0.962 . S
H980 C966 0.960 . S
H981 C967 0.961 . S
H982 C967 0.961 . S
H983 C967 0.961 . S
H984 C968 0.931 . S
H985 C973 0.930 . S
H986 C974 0.956 . S
H987 C974 0.961 . S
H988 C974 0.961 . S
H989 C975 0.958 . S
H990 C975 0.961 . S
H991 C975 0.960 . S
C992 C993 1.391 . S
C992 C994 1.394 . S
C992 H1008 0.931 . S
C993 C992 1.391 . S
C993 C997 1.376 . S
C994 C992 1.394 . S
C994 C995 1.369 . S
C994 C998 1.531 . S
C995 C994 1.369 . S
C995 C996 1.410 . S
C995 C1003 1.503 . S
C996 C995 1.410 . S
C996 C997 1.392 . S
C996 C999 1.511 . S
C997 C993 1.376 . S
C997 C996 1.392 . S
C997 H1009 0.929 . S
C998 C994 1.531 . S
C998 H1010 0.960 . S
C998 H1011 0.962 . S
C998 H1012 0.960 . S
C999 C996 1.511 . S
C999 H1013 0.961 . S
C999 H1014 0.961 . S
C999 H1015 0.961 . S
C1000 C1001 1.370 . S
C1000 C1002 1.363 . S
C1000 H1016 0.931 . S
C1001 C1000 1.370 . S
C1001 C1005 1.408 . S
C1002 C1000 1.363 . S
C1002 C1003 1.370 . S
C1002 C1006 1.524 . S
C1003 C995 1.503 . S
C1003 C1002 1.370 . S
C1003 C1004 1.403 . S
C1004 C1003 1.403 . S
C1004 C1005 1.404 . S
C1004 C1007 1.539 . S
C1005 C1001 1.408 . S
C1005 C1004 1.404 . S
C1005 H1017 0.930 . S
C1006 C1002 1.524 . S
C1006 H1018 0.956 . S
C1006 H1019 0.961 . S
C1006 H1020 0.961 . S
C1007 C1004 1.539 . S
C1007 H1021 0.958 . S
C1007 H1022 0.961 . S
C1007 H1023 0.960 . S
H1008 C992 0.931 . S
H1009 C997 0.929 . S
H1010 C998 0.960 . S
H1011 C998 0.962 . S
H1012 C998 0.960 . S
H1013 C999 0.961 . S
H1014 C999 0.961 . S
H1015 C999 0.961 . S
H1016 C1000 0.931 . S
H1017 C1005 0.930 . S
H1018 C1006 0.956 . S
H1019 C1006 0.961 . S
H1020 C1006 0.961 . S
H1021 C1007 0.958 . S
H1022 C1007 0.961 . S
H1023 C1007 0.960 . S
C1024 C1025 1.391 . S
C1024 C1026 1.394 . S
C1024 H1040 0.931 . S
C1025 C1024 1.391 . S
C1025 C1029 1.376 . S
C1026 C1024 1.394 . S
C1026 C1027 1.369 . S
C1026 C1030 1.531 . S
C1027 C1026 1.369 . S
C1027 C1028 1.410 . S
C1027 C1035 1.503 . S
C1028 C1027 1.410 . S
C1028 C1029 1.392 . S
C1028 C1031 1.511 . S
C1029 C1025 1.376 . S
C1029 C1028 1.392 . S
C1029 H1041 0.929 . S
C1030 C1026 1.531 . S
C1030 H1042 0.960 . S
C1030 H1043 0.962 . S
C1030 H1044 0.960 . S
C1031 C1028 1.511 . S
C1031 H1045 0.961 . S
C1031 H1046 0.961 . S
C1031 H1047 0.961 . S
C1032 C1033 1.370 . S
C1032 C1034 1.363 . S
C1032 H1048 0.931 . S
C1033 C1032 1.370 . S
C1033 C1037 1.408 . S
C1034 C1032 1.363 . S
C1034 C1035 1.370 . S
C1034 C1038 1.524 . S
C1035 C1027 1.503 . S
C1035 C1034 1.370 . S
C1035 C1036 1.403 . S
C1036 C1035 1.403 . S
C1036 C1037 1.404 . S
C1036 C1039 1.539 . S
C1037 C1033 1.408 . S
C1037 C1036 1.404 . S
C1037 H1049 0.930 . S
C1038 C1034 1.524 . S
C1038 H1050 0.956 . S
C1038 H1051 0.961 . S
C1038 H1052 0.961 . S
C1039 C1036 1.539 . S
C1039 H1053 0.958 . S
C1039 H1054 0.961 . S
C1039 H1055 0.960 . S
H1040 C1024 0.931 . S
H1041 C1029 0.929 . S
H1042 C1030 0.960 . S
H1043 C1030 0.962 . S
H1044 C1030 0.960 . S
H1045 C1031 0.961 . S
H1046 C1031 0.961 . S
H1047 C1031 0.961 . S
H1048 C1032 0.931 . S
H1049 C1037 0.930 . S
H1050 C1038 0.956 . S
H1051 C1038 0.961 . S
H1052 C1038 0.961 . S
H1053 C1039 0.958 . S
H1054 C1039 0.961 . S
H1055 C1039 0.960 . S
C1056 C1057 1.391 . S
C1056 C1058 1.394 . S
C1056 H1072 0.931 . S
C1057 C1056 1.391 . S
C1057 C1061 1.376 . S
C1058 C1056 1.394 . S
C1058 C1059 1.369 . S
C1058 C1062 1.531 . S
C1059 C1058 1.369 . S
C1059 C1060 1.410 . S
C1059 C1067 1.503 . S
C1060 C1059 1.410 . S
C1060 C1061 1.392 . S
C1060 C1063 1.511 . S
C1061 C1057 1.376 . S
C1061 C1060 1.392 . S
C1061 H1073 0.929 . S
C1062 C1058 1.531 . S
C1062 H1074 0.960 . S
C1062 H1075 0.962 . S
C1062 H1076 0.960 . S
C1063 C1060 1.511 . S
C1063 H1077 0.961 . S
C1063 H1078 0.961 . S
C1063 H1079 0.961 . S
C1064 C1065 1.370 . S
C1064 C1066 1.363 . S
C1064 H1080 0.931 . S
C1065 C1064 1.370 . S
C1065 C1069 1.408 . S
C1066 C1064 1.363 . S
C1066 C1067 1.370 . S
C1066 C1070 1.524 . S
C1067 C1059 1.503 . S
C1067 C1066 1.370 . S
C1067 C1068 1.403 . S
C1068 C1067 1.403 . S
C1068 C1069 1.404 . S
C1068 C1071 1.539 . S
C1069 C1065 1.408 . S
C1069 C1068 1.404 . S
C1069 H1081 0.930 . S
C1070 C1066 1.524 . S
C1070 H1082 0.956 . S
C1070 H1083 0.961 . S
C1070 H1084 0.961 . S
C1071 C1068 1.539 . S
C1071 H1085 0.958 . S
C1071 H1086 0.961 . S
C1071 H1087 0.960 . S
H1072 C1056 0.931 . S
H1073 C1061 0.929 . S
H1074 C1062 0.960 . S
H1075 C1062 0.962 . S
H1076 C1062 0.960 . S
H1077 C1063 0.961 . S
H1078 C1063 0.961 . S
H1079 C1063 0.961 . S
H1080 C1064 0.931 . S
H1081 C1069 0.930 . S
H1082 C1070 0.956 . S
H1083 C1070 0.961 . S
H1084 C1070 0.961 . S
H1085 C1071 0.958 . S
H1086 C1071 0.961 . S
H1087 C1071 0.960 . S
C1088 C1089 1.391 . S
C1088 C1090 1.394 . S
C1088 H1104 0.931 . S
C1089 C1088 1.391 . S
C1089 C1093 1.376 . S
C1090 C1088 1.394 . S
C1090 C1091 1.369 . S
C1090 C1094 1.531 . S
C1091 C1090 1.369 . S
C1091 C1092 1.410 . S
C1091 C1099 1.503 1_556 S
C1092 C1091 1.410 . S
C1092 C1093 1.392 . S
C1092 C1095 1.511 . S
C1093 C1089 1.376 . S
C1093 C1092 1.392 . S
C1093 H1105 0.929 . S
C1094 C1090 1.531 . S
C1094 H1106 0.960 1_556 S
C1094 H1107 0.962 . S
C1094 H1108 0.960 . S
C1095 C1092 1.511 . S
C1095 H1109 0.961 . S
C1095 H1110 0.961 1_556 S
C1095 H1111 0.961 . S
C1096 C1097 1.370 . S
C1096 C1098 1.363 . S
C1096 H1112 0.931 . S
C1097 C1096 1.370 . S
C1097 C1101 1.408 . S
C1098 C1096 1.363 . S
C1098 C1099 1.370 . S
C1098 C1102 1.586 . S
C1099 C1091 1.503 1_554 S
C1099 C1098 1.370 . S
C1099 C1100 1.403 . S
C1100 C1099 1.403 . S
C1100 C1101 1.404 . S
C1100 C1103 1.539 . S
C1101 C1097 1.408 . S
C1101 C1100 1.404 . S
C1101 H1113 0.930 . S
C1102 C1098 1.586 . S
C1102 H1114 0.911 1_554 S
C1102 H1115 0.912 1_554 S
C1102 H1116 1.003 . S
C1103 C1100 1.539 . S
C1103 H1117 0.958 . S
C1103 H1118 0.961 . S
C1103 H1119 0.960 . S
H1104 C1088 0.931 . S
H1105 C1093 0.929 . S
H1106 C1094 0.960 1_554 S
H1107 C1094 0.962 . S
H1108 C1094 0.960 . S
H1109 C1095 0.961 . S
H1110 C1095 0.961 1_554 S
H1111 C1095 0.961 . S
H1112 C1096 0.931 . S
H1113 C1101 0.930 . S
H1114 C1102 0.911 1_556 S
H1115 C1102 0.912 1_556 S
H1116 C1102 1.003 . S
H1117 C1103 0.958 . S
H1118 C1103 0.961 . S
H1119 C1103 0.960 . S
C1120 C1121 1.391 . S
C1120 C1122 1.394 . S
C1120 H1136 0.931 . S
C1121 C1120 1.391 . S
C1121 C1125 1.376 . S
C1122 C1120 1.394 . S
C1122 C1123 1.369 . S
C1122 C1126 1.531 . S
C1123 C1122 1.369 . S
C1123 C1124 1.410 . S
C1123 C1131 1.503 1_554 S
C1124 C1123 1.410 . S
C1124 C1125 1.392 . S
C1124 C1127 1.511 . S
C1125 C1121 1.376 . S
C1125 C1124 1.392 . S
C1125 H1137 0.929 . S
C1126 C1122 1.531 . S
C1126 H1138 0.960 1_554 S
C1126 H1139 0.965 . S
C1126 H1140 0.960 . S
C1127 C1124 1.511 . S
C1127 H1141 0.961 . S
C1127 H1142 0.961 . S
C1127 H1143 0.961 . S
C1128 C1129 1.370 . S
C1128 C1130 1.363 . S
C1128 H1144 0.931 . S
C1129 C1128 1.370 . S
C1129 C1133 1.408 . S
C1130 C1128 1.363 . S
C1130 C1131 1.370 . S
C1130 C1134 1.524 . S
C1131 C1123 1.503 1_556 S
C1131 C1130 1.370 . S
C1131 C1132 1.403 . S
C1132 C1131 1.403 . S
C1132 C1133 1.404 . S
C1132 C1135 1.539 . S
C1133 C1129 1.408 . S
C1133 C1132 1.404 . S
C1133 H1145 0.930 . S
C1134 C1130 1.524 . S
C1134 H1146 0.958 1_556 S
C1134 H1147 0.961 1_556 S
C1134 H1148 0.961 . S
C1135 C1132 1.539 . S
C1135 H1149 0.958 . S
C1135 H1150 0.961 . S
C1135 H1151 0.960 . S
H1136 C1120 0.931 . S
H1137 C1125 0.929 . S
H1138 C1126 0.960 1_556 S
H1139 C1126 0.965 . S
H1140 C1126 0.960 . S
H1141 C1127 0.961 . S
H1142 C1127 0.961 . S
H1143 C1127 0.961 . S
H1144 C1128 0.931 . S
H1145 C1133 0.930 . S
H1146 C1134 0.958 1_554 S
H1147 C1134 0.961 1_554 S
H1148 C1134 0.961 . S
H1149 C1135 0.958 . S
H1150 C1135 0.961 . S
H1151 C1135 0.960 . S
C1152 C1153 1.391 . S
C1152 C1154 1.394 . S
C1152 H1168 0.931 . S
C1153 C1152 1.391 . S
C1153 C1157 1.376 . S
C1154 C1152 1.394 . S
C1154 C1155 1.369 . S
C1154 C1158 1.531 . S
C1155 C1154 1.369 . S
C1155 C1156 1.410 . S
C1155 C1163 1.503 . S
C1156 C1155 1.410 . S
C1156 C1157 1.392 . S
C1156 C1159 1.511 . S
C1157 C1153 1.376 . S
C1157 C1156 1.392 . S
C1157 H1169 0.929 . S
C1158 C1154 1.531 . S
C1158 H1170 0.960 . S
C1158 H1171 0.962 . S
C1158 H1172 0.960 . S
C1159 C1156 1.511 . S
C1159 H1173 0.961 . S
C1159 H1174 0.961 . S
C1159 H1175 0.961 . S
C1160 C1161 1.370 . S
C1160 C1162 1.363 . S
C1160 H1176 0.931 . S
C1161 C1160 1.370 . S
C1161 C1165 1.408 . S
C1162 C1160 1.363 . S
C1162 C1163 1.370 . S
C1162 C1166 1.524 . S
C1163 C1155 1.503 . S
C1163 C1162 1.370 . S
C1163 C1164 1.403 . S
C1164 C1163 1.403 . S
C1164 C1165 1.404 . S
C1164 C1167 1.539 . S
C1165 C1161 1.408 . S
C1165 C1164 1.404 . S
C1165 H1177 0.930 . S
C1166 C1162 1.524 . S
C1166 H1178 0.956 . S
C1166 H1179 0.961 . S
C1166 H1180 0.961 . S
C1167 C1164 1.539 . S
C1167 H1181 0.958 . S
C1167 H1182 0.961 . S
C1167 H1183 0.960 . S
H1168 C1152 0.931 . S
H1169 C1157 0.929 . S
H1170 C1158 0.960 . S
H1171 C1158 0.962 . S
H1172 C1158 0.960 . S
H1173 C1159 0.961 . S
H1174 C1159 0.961 . S
H1175 C1159 0.961 . S
H1176 C1160 0.931 . S
H1177 C1165 0.930 . S
H1178 C1166 0.956 . S
H1179 C1166 0.961 . S
H1180 C1166 0.961 . S
H1181 C1167 0.958 . S
H1182 C1167 0.961 . S
H1183 C1167 0.960 . S
C1184 C1185 1.391 . S
C1184 C1186 1.394 . S
C1184 H1200 0.931 . S
C1185 C1184 1.391 . S
C1185 C1189 1.376 . S
C1186 C1184 1.394 . S
C1186 C1187 1.369 . S
C1186 C1190 1.531 . S
C1187 C1186 1.369 . S
C1187 C1188 1.410 . S
C1187 C1195 1.503 . S
C1188 C1187 1.410 . S
C1188 C1189 1.392 . S
C1188 C1191 1.511 . S
C1189 C1185 1.376 . S
C1189 C1188 1.392 . S
C1189 H1201 0.929 . S
C1190 C1186 1.531 . S
C1190 H1202 0.960 . S
C1190 H1203 0.962 . S
C1190 H1204 0.960 . S
C1191 C1188 1.511 . S
C1191 H1205 0.961 . S
C1191 H1206 0.961 . S
C1191 H1207 0.961 . S
C1192 C1193 1.370 . S
C1192 C1194 1.363 . S
C1192 H1208 0.931 . S
C1193 C1192 1.370 . S
C1193 C1197 1.408 . S
C1194 C1192 1.363 . S
C1194 C1195 1.370 . S
C1194 C1198 1.524 . S
C1195 C1187 1.503 . S
C1195 C1194 1.370 . S
C1195 C1196 1.403 . S
C1196 C1195 1.403 . S
C1196 C1197 1.404 . S
C1196 C1199 1.539 . S
C1197 C1193 1.408 . S
C1197 C1196 1.404 . S
C1197 H1209 0.930 . S
C1198 C1194 1.524 . S
C1198 H1210 0.956 . S
C1198 H1211 0.961 . S
C1198 H1212 0.961 . S
C1199 C1196 1.539 . S
C1199 H1213 0.958 . S
C1199 H1214 0.961 . S
C1199 H1215 0.960 . S
H1200 C1184 0.931 . S
H1201 C1189 0.929 . S
H1202 C1190 0.960 . S
H1203 C1190 0.962 . S
H1204 C1190 0.960 . S
H1205 C1191 0.961 . S
H1206 C1191 0.961 . S
H1207 C1191 0.961 . S
H1208 C1192 0.931 . S
H1209 C1197 0.930 . S
H1210 C1198 0.956 . S
H1211 C1198 0.961 . S
H1212 C1198 0.961 . S
H1213 C1199 0.958 . S
H1214 C1199 0.961 . S
H1215 C1199 0.960 . S
C1216 C1217 1.391 . S
C1216 C1218 1.394 . S
C1216 H1232 0.931 . S
C1217 C1216 1.391 . S
C1217 C1221 1.376 . S
C1218 C1216 1.394 . S
C1218 C1219 1.369 . S
C1218 C1222 1.531 . S
C1219 C1218 1.369 . S
C1219 C1220 1.410 . S
C1219 C1227 1.503 . S
C1220 C1219 1.410 . S
C1220 C1221 1.392 . S
C1220 C1223 1.511 . S
C1221 C1217 1.376 . S
C1221 C1220 1.392 . S
C1221 H1233 0.929 . S
C1222 C1218 1.531 . S
C1222 H1234 0.960 . S
C1222 H1235 0.962 . S
C1222 H1236 0.960 . S
C1223 C1220 1.511 . S
C1223 H1237 0.961 . S
C1223 H1238 0.961 . S
C1223 H1239 0.961 . S
C1224 C1225 1.370 . S
C1224 C1226 1.363 . S
C1224 H1240 0.931 . S
C1225 C1224 1.370 . S
C1225 C1229 1.408 . S
C1226 C1224 1.363 . S
C1226 C1227 1.370 . S
C1226 C1230 1.524 . S
C1227 C1219 1.503 . S
C1227 C1226 1.370 . S
C1227 C1228 1.403 . S
C1228 C1227 1.403 . S
C1228 C1229 1.404 . S
C1228 C1231 1.539 . S
C1229 C1225 1.408 . S
C1229 C1228 1.404 . S
C1229 H1241 0.930 . S
C1230 C1226 1.524 . S
C1230 H1242 0.956 . S
C1230 H1243 0.961 . S
C1230 H1244 0.961 . S
C1231 C1228 1.539 . S
C1231 H1245 0.958 . S
C1231 H1246 0.961 . S
C1231 H1247 0.960 . S
H1232 C1216 0.931 . S
H1233 C1221 0.929 . S
H1234 C1222 0.960 . S
H1235 C1222 0.962 . S
H1236 C1222 0.960 . S
H1237 C1223 0.961 . S
H1238 C1223 0.961 . S
H1239 C1223 0.961 . S
H1240 C1224 0.931 . S
H1241 C1229 0.930 . S
H1242 C1230 0.956 . S
H1243 C1230 0.961 . S
H1244 C1230 0.961 . S
H1245 C1231 0.958 . S
H1246 C1231 0.961 . S
H1247 C1231 0.960 . S
C225 C146 1.314 . S
C233 C6 1.316 . S
C257 C20 1.292 . S
C265 C160 1.329 . S
C289 C118 1.313 . S
C297 C34 1.316 . S
C321 C132 1.329 . S
C329 C48 1.331 . S
C353 C62 1.293 . S
C361 C202 1.332 . S
C385 C216 1.338 . S
C393 C76 1.312 . S
C417 C90 1.310 . S
C425 C174 1.317 . S
C449 C188 1.321 . S
C457 C104 1.314 . S
C481 C149 1.760 . S
C489 C9 1.766 . S
C513 C23 1.775 . S
C521 C163 1.757 . S
C545 C37 1.774 . S
C553 C121 1.757 . S
C577 C51 1.765 . S
C585 C135 1.765 . S
C609 C65 1.744 . S
C617 C205 1.768 . S
C641 C79 1.749 . S
C649 C219 1.756 . S
C673 C177 1.745 . S
C681 C93 1.758 . S
C705 C191 1.743 . S
C713 C107 1.759 . S
C737 C8 1.160 . S
C745 C92 1.174 . S
C769 C22 1.183 . S
C777 C106 1.178 . S
C801 C36 1.226 . S
C809 C64 1.210 . S
C833 C50 1.232 . S
C841 C78 1.207 . S
C865 C120 1.218 . S
C873 C204 1.210 . S
C897 C218 1.146 . S
C905 C134 1.177 . S
C929 C148 1.213 . S
C937 C176 1.210 . S
C961 C190 1.225 . S
C969 C162 1.196 . S
C993 C7 1.401 . S
C1001 C217 1.401 . S
C1025 C175 1.393 . S
C1033 C21 1.400 . S
C1057 C189 1.409 . S
C1065 C35 1.406 . S
C1089 C203 1.403 . S
C1097 C49 1.402 . S
C1121 C133 1.410 . S
C1129 C63 1.407 . S
C1153 C147 1.393 . S
C1161 C77 1.404 . S
C1185 C91 1.401 . S
C1193 C161 1.407 . S
C1217 C105 1.391 . S
C1225 C119 1.402 . S
