# Generated by pormake.
# Topology ukf, (4)-cn, num edge types: 1
# Building blocks:
#     Node 0, Type 0, BuildingBlock: GALJAG_clean_sbu_0, # of connection points: 4
#     Node 1, Type 0, BuildingBlock: GALJAG_clean_sbu_0, # of connection points: 4
#     Node 2, Type 0, BuildingBlock: GALJAG_clean_sbu_0, # of connection points: 4
#     Node 3, Type 0, BuildingBlock: GALJAG_clean_sbu_0, # of connection points: 4
#     Node 4, Type 0, BuildingBlock: GALJAG_clean_sbu_0, # of connection points: 4
#     Node 5, Type 0, BuildingBlock: GALJAG_clean_sbu_0, # of connection points: 4
#     Node 6, Type 0, BuildingBlock: GALJAG_clean_sbu_0, # of connection points: 4
#     Node 7, Type 0, BuildingBlock: GALJAG_clean_sbu_0, # of connection points: 4
#     Node 8, Type 0, BuildingBlock: GALJAG_clean_sbu_0, # of connection points: 4
#     Node 9, Type 0, BuildingBlock: GALJAG_clean_sbu_0, # of connection points: 4
#     Node 10, Type 0, BuildingBlock: GALJAG_clean_sbu_0, # of connection points: 4
#     Node 11, Type 0, BuildingBlock: GALJAG_clean_sbu_0, # of connection points: 4
#     Edge 12, Type (0, 0), BuildingBlock: UVAHIK_clean_linker_0, # of connection points: 2
#     Edge 13, Type (0, 0), BuildingBlock: UVAHIK_clean_linker_0, # of connection points: 2
#     Edge 14, Type (0, 0), BuildingBlock: UVAHIK_clean_linker_0, # of connection points: 2
#     Edge 15, Type (0, 0), BuildingBlock: UVAHIK_clean_linker_0, # of connection points: 2
#     Edge 16, Type (0, 0), BuildingBlock: UVAHIK_clean_linker_0, # of connection points: 2
#     Edge 17, Type (0, 0), BuildingBlock: UVAHIK_clean_linker_0, # of connection points: 2
#     Edge 18, Type (0, 0), BuildingBlock: UVAHIK_clean_linker_0, # of connection points: 2
#     Edge 19, Type (0, 0), BuildingBlock: UVAHIK_clean_linker_0, # of connection points: 2
#     Edge 20, Type (0, 0), BuildingBlock: UVAHIK_clean_linker_0, # of connection points: 2
#     Edge 21, Type (0, 0), BuildingBlock: UVAHIK_clean_linker_0, # of connection points: 2
#     Edge 22, Type (0, 0), BuildingBlock: UVAHIK_clean_linker_0, # of connection points: 2
#     Edge 23, Type (0, 0), BuildingBlock: UVAHIK_clean_linker_0, # of connection points: 2
#     Edge 24, Type (0, 0), BuildingBlock: UVAHIK_clean_linker_0, # of connection points: 2
#     Edge 25, Type (0, 0), BuildingBlock: UVAHIK_clean_linker_0, # of connection points: 2
#     Edge 26, Type (0, 0), BuildingBlock: UVAHIK_clean_linker_0, # of connection points: 2
#     Edge 27, Type (0, 0), BuildingBlock: UVAHIK_clean_linker_0, # of connection points: 2
#     Edge 28, Type (0, 0), BuildingBlock: UVAHIK_clean_linker_0, # of connection points: 2
#     Edge 29, Type (0, 0), BuildingBlock: UVAHIK_clean_linker_0, # of connection points: 2
#     Edge 30, Type (0, 0), BuildingBlock: UVAHIK_clean_linker_0, # of connection points: 2
#     Edge 31, Type (0, 0), BuildingBlock: UVAHIK_clean_linker_0, # of connection points: 2
#     Edge 32, Type (0, 0), BuildingBlock: UVAHIK_clean_linker_0, # of connection points: 2
#     Edge 33, Type (0, 0), BuildingBlock: UVAHIK_clean_linker_0, # of connection points: 2
#     Edge 34, Type (0, 0), BuildingBlock: UVAHIK_clean_linker_0, # of connection points: 2
#     Edge 35, Type (0, 0), BuildingBlock: UVAHIK_clean_linker_0, # of connection points: 2
# Relax obj value: 0.079
# Max RMSD: 0.071
# Mean RMSD: 0.071
data_MOF--net-ukf--node1-GALJAG_clean_sbu_0--edge1-UVAHIK_clean_linker_0
_symmetry_space_group_name_H-M    P1
_symmetry_Int_Tables_number       1
_symmetry_cell_setting            triclinic
loop_
_symmetry_equiv_pos_as_xyz
'x, y, z'
_cell_length_a     40.935819
_cell_length_b     40.92743
_cell_length_c     89.105528
_cell_angle_alpha  89.995072
_cell_angle_beta   90.002791
_cell_angle_gamma 119.99683
loop_
_atom_site_label
_atom_site_type_symbol
_atom_site_fract_x
_atom_site_fract_y
_atom_site_fract_z
_atom_type_partial_charge
In0 In 0.4054 0.22313 0.0546 0.0
O1 O 0.42024 0.20753 0.07706 0.0
O2 O 0.37714 0.22204 0.07691 0.0
C3 C 0.45952 0.21866 0.03914 0.0
C4 C 0.42841 0.29756 0.05232 0.0
C5 C 0.34464 0.163 0.04222 0.0
O6 O 0.45751 0.21685 0.05329 0.0
O7 O 0.43423 0.22279 0.0328 0.0
O8 O 0.35487 0.19646 0.03834 0.0
O9 O 0.36416 0.16031 0.05255 0.0
C10 C 0.39658 0.21195 0.08454 0.0
O11 O 0.39403 0.27246 0.05136 0.0
O12 O 0.45058 0.28503 0.05436 0.0
In13 In 0.17959 0.40642 0.38951 0.0
O14 O 0.11716 0.39086 0.38702 0.0
O15 O 0.15973 0.44831 0.38537 0.0
C16 C 0.18426 0.34784 0.37789 0.0
C17 C 0.18082 0.40226 0.41975 0.0
C18 C 0.23959 0.45972 0.37449 0.0
O19 O 0.15882 0.35495 0.37388 0.0
O20 O 0.20584 0.3692 0.38803 0.0
O21 O 0.23927 0.45676 0.38861 0.0
O22 O 0.20968 0.43576 0.368 0.0
C23 C 0.12503 0.42465 0.38519 0.0
O24 O 0.20216 0.43188 0.41251 0.0
O25 O 0.15862 0.3745 0.41175 0.0
In26 In 0.7779 0.18227 0.72315 0.0
O27 O 0.72801 0.12234 0.71893 0.0
O28 O 0.71625 0.16607 0.72405 0.0
C29 C 0.83791 0.18117 0.71097 0.0
C30 C 0.78984 0.18443 0.75302 0.0
C31 C 0.78285 0.24067 0.70733 0.0
O32 O 0.80441 0.1574 0.70732 0.0
O33 O 0.84067 0.20413 0.72099 0.0
O34 O 0.78385 0.24052 0.72149 0.0
O35 O 0.77917 0.21126 0.70115 0.0
C36 C 0.70325 0.13175 0.72096 0.0
O37 O 0.79451 0.21268 0.74559 0.0
O38 O 0.77909 0.1548 0.74537 0.0
In39 In 0.59281 0.77279 0.05834 0.0
O40 O 0.60393 0.72401 0.05301 0.0
O41 O 0.54966 0.71087 0.06082 0.0
C42 C 0.65022 0.83511 0.04563 0.0
C43 C 0.60547 0.78623 0.08802 0.0
C44 C 0.53645 0.77246 0.04268 0.0
O45 O 0.64516 0.80251 0.04301 0.0
O46 O 0.62736 0.83587 0.05489 0.0
O47 O 0.53885 0.77578 0.05679 0.0
O48 O 0.56244 0.7692 0.0365 0.0
C49 C 0.57078 0.69864 0.05641 0.0
O50 O 0.57975 0.78844 0.08112 0.0
O51 O 0.62504 0.77715 0.07995 0.0
In52 In 0.81659 0.59149 0.39139 0.0
O53 O 0.87632 0.60162 0.38627 0.0
O54 O 0.83442 0.54766 0.39398 0.0
C55 C 0.81516 0.65141 0.37936 0.0
C56 C 0.8137 0.6001 0.42129 0.0
C57 C 0.75983 0.53819 0.3749 0.0
O58 O 0.8419 0.64508 0.37678 0.0
O59 O 0.79032 0.62829 0.38821 0.0
O60 O 0.7569 0.5421 0.3888 0.0
O61 O 0.79138 0.56134 0.36928 0.0
C62 C 0.86793 0.56831 0.38969 0.0
O63 O 0.78923 0.57171 0.4142 0.0
O64 O 0.84004 0.62463 0.4133 0.0
In65 In 0.22663 0.82598 0.72139 0.0
O66 O 0.27671 0.88635 0.71839 0.0
O67 O 0.28828 0.84157 0.72074 0.0
C68 C 0.16975 0.83057 0.70785 0.0
C69 C 0.21403 0.82398 0.75119 0.0
C70 C 0.21889 0.7639 0.70758 0.0
O71 O 0.20304 0.84732 0.70283 0.0
O72 O 0.16565 0.813 0.71995 0.0
O73 O 0.22078 0.76754 0.72167 0.0
O74 O 0.22096 0.79155 0.7005 0.0
C75 C 0.30137 0.87645 0.719 0.0
O76 O 0.20626 0.79497 0.74359 0.0
O77 O 0.22804 0.85426 0.74373 0.0
In78 In 0.77403 0.59632 0.61163 0.0
O79 O 0.7767 0.57462 0.58848 0.0
O80 O 0.78182 0.62892 0.58981 0.0
C81 C 0.78499 0.54482 0.62614 0.0
C82 C 0.6996 0.5729 0.6146 0.0
C83 C 0.8333 0.65787 0.6239 0.0
O84 O 0.79009 0.55033 0.61218 0.0
O85 O 0.77471 0.56546 0.63273 0.0
O86 O 0.80053 0.64304 0.62943 0.0
O87 O 0.8357 0.64247 0.61202 0.0
C88 C 0.78094 0.60339 0.58156 0.0
O89 O 0.72447 0.60741 0.61526 0.0
O90 O 0.71241 0.551 0.61259 0.0
In91 In 0.18372 0.7748 0.94126 0.0
O92 O 0.21322 0.79067 0.91862 0.0
O93 O 0.15621 0.77815 0.91938 0.0
C94 C 0.24002 0.77618 0.95736 0.0
C95 C 0.13268 0.70029 0.94308 0.0
C96 C 0.18531 0.83604 0.95354 0.0
O97 O 0.24144 0.77966 0.94326 0.0
O98 O 0.21025 0.77213 0.96333 0.0
O99 O 0.15906 0.8029 0.95636 0.0
O100 O 0.20956 0.83788 0.94434 0.0
C101 C 0.18523 0.78768 0.91149 0.0
O102 O 0.12416 0.7252 0.94634 0.0
O103 O 0.16626 0.71313 0.93884 0.0
In104 In 0.40701 0.17962 0.27498 0.0
O105 O 0.42218 0.20909 0.25234 0.0
O106 O 0.37807 0.15188 0.25282 0.0
C107 C 0.46218 0.23748 0.29035 0.0
C108 C 0.42836 0.12711 0.27801 0.0
C109 C 0.34799 0.183 0.28699 0.0
O110 O 0.46108 0.23657 0.27619 0.0
O111 O 0.4355 0.20917 0.29673 0.0
O112 O 0.35617 0.15833 0.29104 0.0
O113 O 0.36847 0.20437 0.27663 0.0
C114 C 0.39797 0.181 0.24502 0.0
O115 O 0.39424 0.1187 0.27926 0.0
O116 O 0.4509 0.16137 0.27524 0.0
In117 In 0.22463 0.40827 0.61057 0.0
O118 O 0.22244 0.43228 0.58783 0.0
O119 O 0.21511 0.37712 0.58819 0.0
C120 C 0.21691 0.45939 0.62685 0.0
C121 C 0.29862 0.42997 0.61356 0.0
C122 C 0.16372 0.3472 0.62222 0.0
O123 O 0.21158 0.45595 0.61284 0.0
O124 O 0.2261 0.43697 0.63264 0.0
O125 O 0.197 0.3556 0.62565 0.0
O126 O 0.16156 0.36876 0.61266 0.0
C127 C 0.21679 0.4037 0.58041 0.0
O128 O 0.27319 0.39562 0.61386 0.0
O129 O 0.28659 0.45261 0.6118 0.0
In130 In 0.8238 0.22504 0.9435 0.0
O131 O 0.88482 0.27359 0.94709 0.0
O132 O 0.84126 0.287 0.94479 0.0
C133 C 0.82262 0.16339 0.95525 0.0
C134 C 0.82257 0.216 0.91347 0.0
C135 C 0.76399 0.21968 0.95831 0.0
O136 O 0.84421 0.19617 0.9603 0.0
O137 O 0.80321 0.16229 0.9441 0.0
O138 O 0.76572 0.21966 0.94416 0.0
O139 O 0.79247 0.22245 0.96498 0.0
C140 C 0.8759 0.29902 0.9467 0.0
O141 O 0.7943 0.21137 0.92088 0.0
O142 O 0.85179 0.22532 0.92122 0.0
In143 In 0.59838 0.82079 0.27786 0.0
O144 O 0.58614 0.79121 0.25528 0.0
O145 O 0.62807 0.84928 0.25592 0.0
C146 C 0.5439 0.76202 0.29314 0.0
C147 C 0.57345 0.87071 0.27978 0.0
C148 C 0.6588 0.82143 0.29055 0.0
O149 O 0.54642 0.76224 0.27901 0.0
O150 O 0.56889 0.79148 0.29955 0.0
O151 O 0.6488 0.845 0.2942 0.0
O152 O 0.63923 0.79893 0.2803 0.0
C153 C 0.60987 0.81985 0.24808 0.0
O154 O 0.60758 0.8804 0.28215 0.0
O155 O 0.55261 0.83645 0.27647 0.0
C156 C 0.16455 0.86751 0.97252 0.0
C157 C 0.18973 0.87006 0.96126 0.0
C158 C 0.1716 0.89953 0.9808 0.0
C159 C 0.20897 0.96371 0.00343 0.0
H160 H 0.26429 0.06402 0.98625 0.0
C161 C 0.30804 0.09329 0.03849 0.0
C162 C 0.31507 0.12933 0.03431 0.0
C163 C 0.28409 0.06164 0.02995 0.0
C164 C 0.24822 0.03632 0.99127 0.0
H165 H 0.24128 0.90838 0.94948 0.0
H166 H 0.25396 0.96354 0.96399 0.0
H167 H 0.23704 0.00932 0.96984 0.0
H168 H 0.30083 0.16022 0.01837 0.0
H169 H 0.25814 0.10469 0.00357 0.0
H170 H 0.21993 0.99074 0.02486 0.0
C171 C 0.22836 0.93725 0.96634 0.0
C172 C 0.23303 0.00481 0.98183 0.0
C173 C 0.22125 0.90543 0.95807 0.0
C174 C 0.29608 0.13281 0.02183 0.0
C175 C 0.27184 0.101 0.01329 0.0
C176 C 0.22385 0.99524 0.01286 0.0
C177 C 0.20403 0.93471 0.978 0.0
C178 C 0.21438 0.96806 0.98781 0.0
C179 C 0.26626 0.06511 0.01704 0.0
C180 C 0.24484 0.03195 0.00695 0.0
H181 H 0.13996 0.84063 0.9752 0.0
H182 H 0.15196 0.89658 0.98956 0.0
H183 H 0.19491 0.93594 0.00849 0.0
H184 H 0.32227 0.08963 0.04804 0.0
H185 H 0.2811 0.03474 0.03311 0.0
C186 C 0.22366 0.31775 0.37416 0.0
C187 C 0.1917 0.32016 0.37017 0.0
C188 C 0.23475 0.2965 0.36555 0.0
C189 C 0.20755 0.22169 0.33779 0.0
H190 H 0.31056 0.28299 0.32378 0.0
C191 C 0.30046 0.16878 0.30754 0.0
C192 C 0.32029 0.19006 0.2949 0.0
C193 C 0.27894 0.17969 0.31624 0.0
C194 C 0.28174 0.26553 0.32758 0.0
H195 H 0.1449 0.30015 0.35459 0.0
H196 H 0.16418 0.26227 0.33959 0.0
H197 H 0.28385 0.31021 0.34076 0.0
H198 H 0.33128 0.23803 0.28099 0.0
H199 H 0.29439 0.25717 0.29625 0.0
H200 H 0.20598 0.17675 0.32467 0.0
C201 C 0.18062 0.27714 0.34937 0.0
C202 C 0.26656 0.28102 0.33736 0.0
C203 C 0.16968 0.29885 0.35792 0.0
C204 C 0.31654 0.22112 0.29069 0.0
C205 C 0.29549 0.23219 0.29944 0.0
C206 C 0.22309 0.20587 0.32816 0.0
C207 C 0.21395 0.27681 0.35285 0.0
C208 C 0.22933 0.25935 0.34255 0.0
C209 C 0.27734 0.21224 0.31251 0.0
C210 C 0.26026 0.22785 0.32288 0.0
H211 H 0.24117 0.33365 0.38357 0.0
H212 H 0.26035 0.2964 0.36855 0.0
H213 H 0.17878 0.20444 0.34167 0.0
H214 H 0.30282 0.14471 0.31105 0.0
H215 H 0.26526 0.16392 0.32631 0.0
C216 C 0.86798 0.16169 0.69091 0.0
C217 C 0.87151 0.18496 0.70312 0.0
C218 C 0.89969 0.16893 0.68239 0.0
C219 C 0.00535 0.22734 0.68163 0.0
H220 H 0.99069 0.22358 0.63857 0.0
C221 C 0.13274 0.29526 0.64131 0.0
C222 C 0.12979 0.31708 0.62979 0.0
C223 C 0.10083 0.27013 0.64959 0.0
C224 C 0.99536 0.22488 0.65057 0.0
H225 H 0.91121 0.23297 0.71637 0.0
H226 H 0.9659 0.24608 0.70145 0.0
H227 H 0.93619 0.19669 0.6551 0.0
H228 H 0.09088 0.32856 0.61751 0.0
H229 H 0.03584 0.28583 0.63204 0.0
H230 H 0.06455 0.25799 0.67714 0.0
C231 C 0.93905 0.22181 0.69851 0.0
C232 C 0.96398 0.20889 0.66008 0.0
C233 C 0.90751 0.21446 0.70704 0.0
C234 C 0.09413 0.31212 0.6263 0.0
C235 C 0.06239 0.28728 0.6346 0.0
C236 C 0.03674 0.24368 0.67213 0.0
C237 C 0.93553 0.19967 0.68587 0.0
C238 C 0.96856 0.21095 0.67576 0.0
C239 C 0.06535 0.26646 0.64656 0.0
C240 C 0.03218 0.24372 0.65648 0.0
H241 H 0.84059 0.13866 0.68766 0.0
H242 H 0.89597 0.15091 0.67288 0.0
H243 H 0.01002 0.22874 0.69363 0.0
H244 H 0.15985 0.29838 0.64421 0.0
H245 H 0.10411 0.25416 0.65856 0.0
C246 C 0.6768 0.90308 0.03946 0.0
C247 C 0.67763 0.86945 0.03742 0.0
C248 C 0.69859 0.93445 0.03045 0.0
C249 C 0.7804 0.98459 0.00679 0.0
H250 H 0.71866 0.01608 0.98504 0.0
C251 C 0.83306 0.12986 0.97678 0.0
C252 C 0.81628 0.12851 0.96285 0.0
C253 C 0.82164 0.09669 0.98504 0.0
C254 C 0.73629 0.00749 0.99093 0.0
H255 H 0.70365 0.84305 0.02489 0.0
H256 H 0.74267 0.89876 0.00921 0.0
H257 H 0.6888 0.96179 0.00179 0.0
H258 H 0.77645 0.09118 0.94618 0.0
H259 H 0.75647 0.03371 0.96061 0.0
H260 H 0.8281 0.03136 0.99618 0.0
C261 C 0.72475 0.90036 0.01777 0.0
C262 C 0.71921 0.97659 0.00057 0.0
C263 C 0.70241 0.86857 0.0267 0.0
C264 C 0.78972 0.09324 0.95693 0.0
C265 C 0.77818 0.0603 0.9652 0.0
C266 C 0.79767 0.01615 0.99729 0.0
C267 C 0.72214 0.93316 0.01933 0.0
C268 C 0.74104 0.96494 0.00864 0.0
C269 C 0.79309 0.0618 0.97953 0.0
C270 C 0.77569 0.02782 0.98927 0.0
H271 H 0.65813 0.90479 0.04764 0.0
H272 H 0.69631 0.95952 0.03192 0.0
H273 H 0.79775 0.97612 0.01296 0.0
H274 H 0.85361 0.15664 0.98162 0.0
H275 H 0.83349 0.09864 0.99609 0.0
C276 C 0.70673 0.83952 0.31119 0.0
C277 C 0.6882 0.81732 0.29859 0.0
C278 C 0.73072 0.83182 0.31984 0.0
C279 C 0.75357 0.7901 0.34189 0.0
H280 H 0.80796 0.74402 0.3248 0.0
C281 C 0.77923 0.68484 0.37477 0.0
C282 C 0.811 0.68131 0.37176 0.0
C283 C 0.77245 0.7099 0.36657 0.0
C284 C 0.79359 0.75745 0.32983 0.0
H285 H 0.68162 0.77079 0.28477 0.0
H286 H 0.7224 0.75689 0.29987 0.0
H287 H 0.7835 0.77429 0.3084 0.0
H288 H 0.86157 0.70256 0.35824 0.0
H289 H 0.85012 0.74707 0.34402 0.0
H290 H 0.76381 0.77343 0.36333 0.0
C291 C 0.71921 0.78067 0.30305 0.0
C292 C 0.77905 0.7744 0.32038 0.0
C293 C 0.69548 0.78847 0.29441 0.0
C294 C 0.83677 0.70459 0.36078 0.0
C295 C 0.83005 0.72989 0.35257 0.0
C296 C 0.76841 0.77347 0.35136 0.0
C297 C 0.73655 0.80167 0.31607 0.0
C298 C 0.75767 0.78974 0.32623 0.0
C299 C 0.79738 0.73234 0.35518 0.0
C300 C 0.78743 0.75571 0.34541 0.0
H301 H 0.70176 0.86204 0.31466 0.0
H302 H 0.74403 0.84896 0.32965 0.0
H303 H 0.7372 0.80145 0.34686 0.0
H304 H 0.75876 0.66727 0.38314 0.0
H305 H 0.74668 0.71037 0.36877 0.0
C306 C 0.86664 0.69432 0.64695 0.0
C307 C 0.86711 0.68795 0.63149 0.0
C308 C 0.90015 0.7184 0.65456 0.0
C309 C 0.00324 0.75719 0.65049 0.0
H310 H 0.00788 0.81138 0.68686 0.0
C311 C 0.14099 0.83742 0.68411 0.0
C312 C 0.13719 0.82721 0.69933 0.0
C313 C 0.10909 0.82821 0.67539 0.0
C314 C 0.00699 0.79645 0.67669 0.0
H315 H 0.90236 0.70378 0.61165 0.0
H316 H 0.96043 0.74699 0.62472 0.0
H317 H 0.94983 0.78149 0.67205 0.0
H318 H 0.09733 0.80158 0.71759 0.0
H319 H 0.04174 0.7859 0.70243 0.0
H320 H 0.06022 0.77191 0.65519 0.0
C321 C 0.9346 0.73239 0.63115 0.0
C322 C 0.97368 0.77914 0.66823 0.0
C323 C 0.90124 0.70788 0.62361 0.0
C324 C 0.10113 0.80977 0.70588 0.0
C325 C 0.06929 0.80093 0.69721 0.0
C326 C 0.03656 0.77483 0.65884 0.0
C327 C 0.93478 0.73704 0.64682 0.0
C328 C 0.97114 0.7587 0.65514 0.0
C329 C 0.07282 0.809 0.68177 0.0
C330 C 0.03865 0.79411 0.67216 0.0
H331 H 0.84074 0.67915 0.65332 0.0
H332 H 0.89906 0.72085 0.66662 0.0
H333 H 0.00233 0.74109 0.64071 0.0
H334 H 0.16841 0.85086 0.67874 0.0
H335 H 0.11269 0.83513 0.66355 0.0
C336 C 0.70149 0.21669 0.95849 0.0
C337 C 0.73148 0.21737 0.96642 0.0
C338 C 0.67111 0.21534 0.96618 0.0
C339 C 0.62209 0.19028 0.00266 0.0
H340 H 0.58469 0.25613 0.98983 0.0
C341 C 0.51816 0.21416 0.03828 0.0
C342 C 0.48946 0.2167 0.03068 0.0
C343 C 0.5469 0.21299 0.03028 0.0
C344 C 0.59445 0.23719 0.99344 0.0
H345 H 0.75311 0.21681 0.98857 0.0
H346 H 0.70008 0.21456 0.00202 0.0
H347 H 0.63616 0.25609 0.97611 0.0
H348 H 0.46796 0.2195 0.00877 0.0
H349 H 0.51784 0.21694 0.99477 0.0
H350 H 0.58038 0.17136 0.01999 0.0
C351 C 0.6999 0.21478 0.98986 0.0
C352 C 0.62396 0.2372 0.98558 0.0
C353 C 0.73035 0.21628 0.98217 0.0
C354 C 0.48983 0.21771 0.01493 0.0
C355 C 0.51851 0.21646 0.00692 0.0
C356 C 0.5925 0.19019 0.0105 0.0
C357 C 0.67005 0.21448 0.98195 0.0
C358 C 0.63819 0.21385 0.99013 0.0
C359 C 0.54747 0.21424 0.0145 0.0
C360 C 0.57843 0.21375 0.00601 0.0
H361 H 0.70157 0.21741 0.94634 0.0
H362 H 0.6483 0.21469 0.95978 0.0
H363 H 0.63212 0.17159 0.00631 0.0
H364 H 0.51865 0.21344 0.05043 0.0
H365 H 0.56904 0.21178 0.03647 0.0
C366 C 0.2719 0.48981 0.35043 0.0
C367 C 0.27202 0.48947 0.36619 0.0
C368 C 0.30205 0.5185 0.34253 0.0
C369 C 0.40194 0.59346 0.3465 0.0
H370 H 0.37987 0.63507 0.31139 0.0
C371 C 0.51324 0.73032 0.31725 0.0
C372 C 0.51371 0.73007 0.30149 0.0
C373 C 0.48431 0.70033 0.32515 0.0
C374 C 0.38649 0.62347 0.32108 0.0
H375 H 0.30378 0.51865 0.38606 0.0
H376 H 0.35619 0.5692 0.37227 0.0
H377 H 0.32836 0.58394 0.32523 0.0
H378 H 0.48454 0.69822 0.28163 0.0
H379 H 0.43399 0.64581 0.29544 0.0
H380 H 0.46012 0.63347 0.34241 0.0
C381 C 0.33311 0.54698 0.366 0.0
C382 C 0.35701 0.59413 0.329 0.0
C383 C 0.30301 0.51815 0.37391 0.0
C384 C 0.48485 0.69921 0.29378 0.0
C385 C 0.45582 0.66932 0.30167 0.0
C386 C 0.43143 0.62295 0.33861 0.0
C387 C 0.33288 0.54759 0.35022 0.0
C388 C 0.36436 0.57873 0.34179 0.0
C389 C 0.4552 0.66962 0.31744 0.0
C390 C 0.424 0.63822 0.3258 0.0
H391 H 0.24847 0.46792 0.34419 0.0
H392 H 0.30127 0.51775 0.33038 0.0
H393 H 0.40863 0.58188 0.35618 0.0
H394 H 0.53513 0.75378 0.32349 0.0
H395 H 0.48436 0.7015 0.3373 0.0
C396 C 0.7877 0.27298 0.68294 0.0
C397 C 0.7856 0.27268 0.69868 0.0
C398 C 0.79022 0.30325 0.67475 0.0
C399 C 0.81398 0.40296 0.67867 0.0
H400 H 0.75673 0.38291 0.64179 0.0
C401 C 0.78621 0.51285 0.64981 0.0
C402 C 0.78923 0.51556 0.6341 0.0
C403 C 0.78852 0.4842 0.65737 0.0
C404 C 0.77324 0.38898 0.65197 0.0
H405 H 0.78434 0.30365 0.71819 0.0
H406 H 0.7879 0.35611 0.7039 0.0
H407 H 0.75496 0.33071 0.65566 0.0
H408 H 0.79752 0.4908 0.61398 0.0
H409 H 0.80139 0.44049 0.62722 0.0
H410 H 0.83155 0.4612 0.6751 0.0
C411 C 0.78839 0.33338 0.69788 0.0
C412 C 0.77228 0.35909 0.65992 0.0
C413 C 0.78608 0.3032 0.70607 0.0
C414 C 0.79509 0.48936 0.6261 0.0
C415 C 0.79709 0.46048 0.63366 0.0
C416 C 0.81474 0.4328 0.67077 0.0
C417 C 0.79049 0.33378 0.68212 0.0
C418 C 0.79245 0.3657 0.67341 0.0
C419 C 0.79362 0.45751 0.64936 0.0
C420 C 0.79421 0.42609 0.65739 0.0
H421 H 0.78758 0.24989 0.67695 0.0
H422 H 0.79232 0.30289 0.66264 0.0
H423 H 0.83041 0.40914 0.68887 0.0
H424 H 0.78167 0.53265 0.65627 0.0
H425 H 0.78535 0.48237 0.66946 0.0
C426 C 0.26858 0.77447 0.98193 0.0
C427 C 0.27053 0.77621 0.96619 0.0
C428 C 0.29724 0.77406 0.99029 0.0
C429 C 0.37331 0.75145 0.98745 0.0
H430 H 0.41249 0.81402 0.02297 0.0
C431 C 0.50583 0.7714 0.0183 0.0
C432 C 0.50569 0.77242 0.03404 0.0
C433 C 0.47688 0.77161 0.01009 0.0
C434 C 0.40153 0.796 0.01319 0.0
H435 H 0.30392 0.77897 0.94683 0.0
H436 H 0.35403 0.77828 0.96145 0.0
H437 H 0.36235 0.8149 0.00851 0.0
H438 H 0.47506 0.77415 0.05359 0.0
H439 H 0.42411 0.77388 0.03928 0.0
H440 H 0.41219 0.73228 0.99217 0.0
C441 C 0.33023 0.77696 0.96731 0.0
C442 C 0.37286 0.79658 0.0049 0.0
C443 C 0.30167 0.77758 0.95896 0.0
C444 C 0.47597 0.77351 0.04145 0.0
C445 C 0.44692 0.77358 0.03325 0.0
C446 C 0.40184 0.75073 0.99578 0.0
C447 C 0.32829 0.77518 0.98306 0.0
C448 C 0.35854 0.77439 0.99192 0.0
C449 C 0.44707 0.7727 0.01747 0.0
C450 C 0.41637 0.77309 0.00872 0.0
H451 H 0.24486 0.77332 0.9878 0.0
H452 H 0.29481 0.7723 0.0024 0.0
H453 H 0.36242 0.73362 0.97762 0.0
H454 H 0.52848 0.7707 0.01228 0.0
H455 H 0.47816 0.77148 0.99795 0.0
C456 C 0.52364 0.2981 0.29132 0.0
C457 C 0.49255 0.26898 0.29883 0.0
C458 C 0.55262 0.32763 0.29939 0.0
C459 C 0.59417 0.35253 0.33743 0.0
H460 H 0.6408 0.45505 0.32236 0.0
C461 C 0.69586 0.481 0.37308 0.0
C462 C 0.72898 0.50834 0.366 0.0
C463 C 0.66702 0.45212 0.36474 0.0
C464 C 0.62825 0.42651 0.32663 0.0
H465 H 0.46706 0.24807 0.32062 0.0
H466 H 0.5172 0.29992 0.3347 0.0
H467 H 0.59018 0.40395 0.30808 0.0
H468 H 0.75783 0.52722 0.34464 0.0
H469 H 0.70729 0.47672 0.33003 0.0
H470 H 0.63201 0.37521 0.35606 0.0
C471 C 0.51966 0.29964 0.32261 0.0
C472 C 0.59931 0.39722 0.31845 0.0
C473 C 0.4908 0.27005 0.31454 0.0
C474 C 0.73257 0.50652 0.35039 0.0
C475 C 0.7036 0.47775 0.34202 0.0
C476 C 0.62294 0.38182 0.34565 0.0
C477 C 0.55099 0.32871 0.31514 0.0
C478 C 0.5819 0.35989 0.32377 0.0
C479 C 0.67064 0.45013 0.34913 0.0
C480 C 0.64023 0.4191 0.34034 0.0
H481 H 0.52577 0.29791 0.2792 0.0
H482 H 0.57658 0.34928 0.2933 0.0
H483 H 0.58188 0.32402 0.34171 0.0
H484 H 0.6923 0.48174 0.3851 0.0
H485 H 0.64174 0.43146 0.37049 0.0
C486 C 0.20654 0.51446 0.62857 0.0
C487 C 0.21351 0.48797 0.63572 0.0
C488 C 0.20449 0.54228 0.63691 0.0
C489 C 0.23405 0.59258 0.67312 0.0
H490 H 0.16232 0.62452 0.66264 0.0
C491 C 0.21675 0.70175 0.70815 0.0
C492 C 0.21525 0.73027 0.69993 0.0
C493 C 0.21434 0.67045 0.70081 0.0
C494 C 0.18264 0.61602 0.66563 0.0
H495 H 0.22305 0.46927 0.6572 0.0
H496 H 0.21886 0.51746 0.6718 0.0
H497 H 0.16173 0.57258 0.64897 0.0
H498 H 0.20954 0.74824 0.67767 0.0
H499 H 0.20535 0.6936 0.66486 0.0
H500 H 0.25496 0.6361 0.68976 0.0
C501 C 0.21565 0.5172 0.65973 0.0
C502 C 0.18237 0.58634 0.6578 0.0
C503 C 0.21785 0.48947 0.65138 0.0
C504 C 0.21078 0.72668 0.68429 0.0
C505 C 0.20815 0.69529 0.67696 0.0
C506 C 0.2342 0.62214 0.681 0.0
C507 C 0.20921 0.54409 0.65258 0.0
C508 C 0.20831 0.57449 0.66135 0.0
C509 C 0.21014 0.66697 0.68513 0.0
C510 C 0.20873 0.6344 0.67725 0.0
H511 H 0.2032 0.51405 0.6165 0.0
H512 H 0.20004 0.56287 0.63101 0.0
H513 H 0.2548 0.58457 0.676 0.0
H514 H 0.22011 0.70376 0.72023 0.0
H515 H 0.2156 0.64887 0.7074 0.0
C516 C 0.41363 0.19306 0.10865 0.0
C517 C 0.39238 0.20605 0.10094 0.0
C518 C 0.41038 0.18808 0.12419 0.0
C519 C 0.38355 0.22016 0.15803 0.0
H520 H 0.38358 0.13438 0.17654 0.0
C521 C 0.41522 0.2163 0.22078 0.0
C522 C 0.39361 0.18233 0.22861 0.0
C523 C 0.41172 0.21777 0.20524 0.0
C524 C 0.38315 0.15829 0.17154 0.0
H525 H 0.35078 0.22368 0.10343 0.0
H526 H 0.34507 0.21497 0.13065 0.0
H527 H 0.38275 0.13868 0.14923 0.0
H528 H 0.35118 0.1233 0.22637 0.0
H529 H 0.34506 0.12585 0.19914 0.0
H530 H 0.38404 0.23983 0.18034 0.0
C531 C 0.36443 0.20887 0.12466 0.0
C532 C 0.38307 0.16095 0.15591 0.0
C533 C 0.36757 0.2137 0.10908 0.0
C534 C 0.36824 0.14986 0.22061 0.0
C535 C 0.36487 0.15129 0.20503 0.0
C536 C 0.3838 0.21759 0.17367 0.0
C537 C 0.38589 0.1961 0.13238 0.0
C538 C 0.38367 0.19211 0.14898 0.0
C539 C 0.38663 0.18527 0.19718 0.0
C540 C 0.38401 0.18683 0.18059 0.0
H541 H 0.43303 0.18696 0.10268 0.0
H542 H 0.42767 0.17869 0.12983 0.0
H543 H 0.38429 0.24466 0.15304 0.0
H544 H 0.43505 0.2418 0.22664 0.0
H545 H 0.42927 0.24425 0.19951 0.0
C546 C 0.20163 0.43374 0.44469 0.0
C547 C 0.18212 0.40041 0.43627 0.0
C548 C 0.20325 0.43226 0.46031 0.0
C549 C 0.19919 0.37229 0.49128 0.0
H550 H 0.17759 0.4379 0.51552 0.0
C551 C 0.19842 0.36726 0.5563 0.0
C552 C 0.21216 0.40167 0.56394 0.0
C553 C 0.19314 0.36551 0.54073 0.0
C554 C 0.18426 0.41975 0.50894 0.0
H555 H 0.1492 0.3394 0.43753 0.0
H556 H 0.15265 0.33682 0.46494 0.0
H557 H 0.17155 0.43797 0.48833 0.0
H558 H 0.23201 0.46135 0.5613 0.0
H559 H 0.22416 0.45867 0.53421 0.0
H560 H 0.21312 0.35489 0.51179 0.0
C561 C 0.16647 0.36403 0.4594 0.0
C562 C 0.18057 0.41969 0.49337 0.0
C563 C 0.16436 0.36553 0.44376 0.0
C564 C 0.22106 0.43435 0.55573 0.0
C565 C 0.21625 0.43272 0.54019 0.0
C566 C 0.20337 0.37269 0.50688 0.0
C567 C 0.18583 0.39742 0.46782 0.0
C568 C 0.18822 0.39615 0.48438 0.0
C569 C 0.20191 0.39823 0.53247 0.0
C570 C 0.19623 0.39666 0.51591 0.0
H571 H 0.21558 0.46102 0.43922 0.0
H572 H 0.21864 0.4584 0.46653 0.0
H573 H 0.20558 0.3541 0.48458 0.0
H574 H 0.19116 0.34158 0.56237 0.0
H575 H 0.18161 0.33838 0.53523 0.0
C576 C 0.78726 0.19849 0.88923 0.0
C577 C 0.82125 0.21076 0.89703 0.0
C578 C 0.78574 0.19368 0.87369 0.0
C579 C 0.84504 0.22453 0.83991 0.0
H580 H 0.75838 0.13944 0.82151 0.0
C581 C 0.80962 0.22039 0.7771 0.0
C582 C 0.79617 0.18609 0.76939 0.0
C583 C 0.81492 0.22209 0.79263 0.0
C584 C 0.78296 0.16314 0.82647 0.0
H585 H 0.88028 0.22746 0.89471 0.0
H586 H 0.87764 0.21905 0.86747 0.0
H587 H 0.76346 0.14405 0.8488 0.0
H588 H 0.77812 0.12675 0.77184 0.0
H589 H 0.78742 0.12971 0.79902 0.0
H590 H 0.86451 0.24365 0.81757 0.0
C591 C 0.85222 0.21337 0.87339 0.0
C592 C 0.78568 0.166 0.8421 0.0
C593 C 0.85371 0.21803 0.88898 0.0
C594 C 0.78843 0.15356 0.77749 0.0
C595 C 0.7936 0.15523 0.79306 0.0
C596 C 0.84226 0.22175 0.82428 0.0
C597 C 0.8182 0.20115 0.86558 0.0
C598 C 0.81653 0.19694 0.849 0.0
C599 C 0.80678 0.18951 0.8008 0.0
C600 C 0.81098 0.19124 0.81738 0.0
H601 H 0.76177 0.19271 0.89512 0.0
H602 H 0.75923 0.18477 0.86798 0.0
H603 H 0.86903 0.24884 0.84488 0.0
H604 H 0.8158 0.24595 0.77117 0.0
H605 H 0.82461 0.24882 0.79827 0.0
C606 C 0.63856 0.78777 0.11192 0.0
C607 C 0.61171 0.79338 0.10431 0.0
C608 C 0.64345 0.79357 0.12743 0.0
C609 C 0.62498 0.84046 0.15916 0.0
H610 H 0.62932 0.76395 0.18335 0.0
C611 C 0.63987 0.85184 0.22382 0.0
C612 C 0.61536 0.81884 0.23174 0.0
C613 C 0.64393 0.85076 0.20827 0.0
C614 C 0.62814 0.78556 0.17674 0.0
H615 H 0.56933 0.81 0.10689 0.0
H616 H 0.57772 0.81994 0.13389 0.0
H617 H 0.62792 0.75891 0.15604 0.0
H618 H 0.57636 0.75877 0.22965 0.0
H619 H 0.58329 0.75691 0.20257 0.0
H620 H 0.62398 0.86646 0.17987 0.0
C621 C 0.59527 0.81141 0.1279 0.0
C622 C 0.62774 0.78288 0.1611 0.0
C623 C 0.59027 0.80545 0.11244 0.0
C624 C 0.59548 0.78468 0.22386 0.0
C625 C 0.59966 0.78356 0.20835 0.0
C626 C 0.62554 0.84322 0.1748 0.0
C627 C 0.62174 0.80533 0.13559 0.0
C628 C 0.6255 0.80995 0.15214 0.0
C629 C 0.62373 0.81661 0.20036 0.0
C630 C 0.62648 0.81545 0.18377 0.0
H631 H 0.65555 0.77856 0.10592 0.0
H632 H 0.66428 0.78895 0.13302 0.0
H633 H 0.62369 0.862 0.15255 0.0
H634 H 0.65562 0.87856 0.22962 0.0
H635 H 0.66294 0.87663 0.20243 0.0
C636 C 0.79945 0.64178 0.55794 0.0
C637 C 0.78435 0.60654 0.56507 0.0
C638 C 0.80307 0.64442 0.54229 0.0
C639 C 0.76241 0.5912 0.50813 0.0
H640 H 0.85993 0.65383 0.48947 0.0
C641 C 0.78645 0.57229 0.4462 0.0
C642 C 0.81128 0.60386 0.43767 0.0
C643 C 0.78344 0.57534 0.46166 0.0
C644 C 0.83233 0.63673 0.49444 0.0
H645 H 0.76078 0.54649 0.56153 0.0
H646 H 0.76611 0.55104 0.53421 0.0
H647 H 0.85368 0.65501 0.51673 0.0
H648 H 0.8524 0.66352 0.43857 0.0
H649 H 0.84629 0.66931 0.4656 0.0
H650 H 0.74059 0.57332 0.48605 0.0
C651 C 0.77547 0.57657 0.54071 0.0
C652 C 0.82886 0.63735 0.51006 0.0
C653 C 0.77258 0.57402 0.55632 0.0
C654 C 0.83314 0.63867 0.44491 0.0
C655 C 0.82973 0.6419 0.46041 0.0
C656 C 0.76569 0.59104 0.49255 0.0
C657 C 0.79084 0.61177 0.53357 0.0
C658 C 0.79402 0.61399 0.51702 0.0
C659 C 0.80473 0.61024 0.46898 0.0
C660 C 0.80086 0.61311 0.4855 0.0
H661 H 0.80886 0.6673 0.56444 0.0
H662 H 0.81493 0.67185 0.53699 0.0
H663 H 0.73514 0.57333 0.51326 0.0
H664 H 0.7695 0.54498 0.44095 0.0
H665 H 0.76465 0.55009 0.46788 0.0
C666 C 0.2199 0.80564 0.88709 0.0
C667 C 0.18649 0.79453 0.89516 0.0
C668 C 0.22116 0.81147 0.87161 0.0
C669 C 0.16028 0.78511 0.83827 0.0
H670 H 0.24945 0.86678 0.81966 0.0
C671 C 0.19176 0.78774 0.77515 0.0
C672 C 0.20785 0.82246 0.76757 0.0
C673 C 0.18697 0.78614 0.79069 0.0
C674 C 0.22415 0.84409 0.82468 0.0
H675 H 0.12829 0.7812 0.8934 0.0
H676 H 0.13052 0.79153 0.8663 0.0
H677 H 0.24532 0.8617 0.84694 0.0
H678 H 0.23101 0.8827 0.77029 0.0
H679 H 0.22248 0.87991 0.79751 0.0
H680 H 0.13911 0.76752 0.816 0.0
C681 C 0.15565 0.79541 0.87194 0.0
C682 C 0.22197 0.84093 0.84031 0.0
C683 C 0.15441 0.78966 0.88746 0.0
C684 C 0.21862 0.85554 0.77584 0.0
C685 C 0.2139 0.85395 0.79142 0.0
C686 C 0.1625 0.78822 0.82264 0.0
C687 C 0.18903 0.80627 0.86384 0.0
C688 C 0.19022 0.81112 0.84728 0.0
C689 C 0.1982 0.81923 0.79903 0.0
C690 C 0.19467 0.81747 0.81565 0.0
H691 H 0.24508 0.80956 0.89271 0.0
H692 H 0.24715 0.81927 0.86569 0.0
H693 H 0.13555 0.76166 0.84327 0.0
H694 H 0.18324 0.76175 0.76909 0.0
H695 H 0.1753 0.75901 0.79622 0.0
C696 C 0.51841 0.63186 0.05738 0.0
C697 C 0.55695 0.65769 0.05525 0.0
C698 C 0.50463 0.5931 0.05644 0.0
C699 C 0.528 0.52189 0.04229 0.0
H700 H 0.44867 0.45603 0.06976 0.0
C701 C 0.48107 0.3642 0.05042 0.0
C702 C 0.44216 0.33852 0.05143 0.0
C703 C 0.49468 0.40302 0.05013 0.0
C704 C 0.4705 0.47401 0.0619 0.0
H705 H 0.61131 0.66316 0.05044 0.0
H706 H 0.5874 0.59515 0.04913 0.0
H707 H 0.47423 0.52396 0.07111 0.0
H708 H 0.38692 0.33334 0.05278 0.0
H709 H 0.41078 0.40147 0.05243 0.0
H710 H 0.52466 0.47169 0.03334 0.0
C711 C 0.56768 0.60494 0.05127 0.0
C712 C 0.48519 0.513 0.06265 0.0
C713 C 0.58147 0.6439 0.0521 0.0
C714 C 0.41705 0.35247 0.052 0.0
C715 C 0.43072 0.39143 0.05187 0.0
C716 C 0.5135 0.48286 0.04163 0.0
C717 C 0.52905 0.57903 0.05349 0.0
C718 C 0.51405 0.5375 0.05282 0.0
C719 C 0.46971 0.41712 0.051 0.0
C720 C 0.48453 0.45849 0.05141 0.0
H721 H 0.49869 0.64157 0.05969 0.0
H722 H 0.47465 0.57418 0.05789 0.0
H723 H 0.54976 0.53975 0.03439 0.0
H724 H 0.50115 0.35431 0.04994 0.0
H725 H 0.52486 0.42206 0.0496 0.0
C726 C 0.88185 0.51581 0.39222 0.0
C727 C 0.89442 0.55369 0.38859 0.0
C728 C 0.90606 0.50115 0.39113 0.0
C729 C 0.99479 0.51768 0.37342 0.0
H730 H 0.99052 0.44842 0.40412 0.0
C731 C 0.10817 0.47419 0.37985 0.0
C732 C 0.09653 0.43659 0.38365 0.0
C733 C 0.08231 0.48695 0.37943 0.0
C734 C 0.99168 0.46727 0.39534 0.0
H735 H 0.94233 0.60599 0.38097 0.0
H736 H 0.98508 0.58048 0.37925 0.0
H737 H 0.94903 0.47498 0.40583 0.0
H738 H 0.04849 0.38262 0.38967 0.0
H739 H 0.00301 0.405 0.38897 0.0
H740 H 0.0379 0.5103 0.36306 0.0
C741 C 0.95623 0.56197 0.38276 0.0
C742 C 0.96794 0.48259 0.39632 0.0
C743 C 0.93186 0.57668 0.38384 0.0
C744 C 0.05824 0.41173 0.3867 0.0
C745 C 0.03231 0.42462 0.38639 0.0
C746 C 0.01864 0.50244 0.37246 0.0
C747 C 0.94359 0.524 0.38642 0.0
C748 C 0.96921 0.50804 0.38539 0.0
C749 C 0.04417 0.46251 0.38289 0.0
C750 C 0.01744 0.47714 0.38344 0.0
H751 H 0.85309 0.49724 0.39585 0.0
H752 H 0.89513 0.47166 0.3938 0.0
H753 H 0.9961 0.53666 0.36467 0.0
H754 H 0.1375 0.49406 0.37742 0.0
H755 H 0.09249 0.51636 0.37686 0.0
C756 C 0.64775 0.06626 0.71797 0.0
C757 C 0.66217 0.10515 0.71992 0.0
C758 C 0.60871 0.04148 0.71735 0.0
C759 C 0.51768 0.03518 0.72759 0.0
H760 H 0.47507 0.95004 0.70029 0.0
C761 C 0.35677 0.94237 0.7181 0.0
C762 C 0.34242 0.90321 0.71806 0.0
C763 C 0.39577 0.96732 0.71778 0.0
C764 C 0.48658 0.97357 0.70805 0.0
H765 H 0.64707 0.14866 0.72244 0.0
H766 H 0.57942 0.10582 0.72105 0.0
H767 H 0.54321 0.99255 0.70087 0.0
H768 H 0.3576 0.85947 0.71742 0.0
H769 H 0.42543 0.9029 0.71683 0.0
H770 H 0.46102 0.01629 0.7347 0.0
C771 C 0.59798 0.09416 0.72034 0.0
C772 C 0.52566 0.99787 0.70842 0.0
C773 C 0.63686 0.11879 0.72104 0.0
C774 C 0.36778 0.88952 0.71746 0.0
C775 C 0.40667 0.9144 0.71703 0.0
C776 C 0.47863 0.01102 0.72716 0.0
C777 C 0.58332 0.05514 0.7186 0.0
C778 C 0.54173 0.02899 0.71821 0.0
C779 C 0.42116 0.95359 0.71729 0.0
C780 C 0.46262 0.97988 0.71741 0.0
H781 H 0.66659 0.05493 0.71711 0.0
H782 H 0.59844 0.01156 0.71615 0.0
H783 H 0.52905 0.05842 0.73548 0.0
H784 H 0.33791 0.95374 0.71855 0.0
H785 H 0.40607 0.99739 0.71785 0.0
C786 C 0.63328 0.5195 0.61548 0.0
C787 C 0.65858 0.55859 0.61575 0.0
C788 C 0.59442 0.50532 0.61604 0.0
C789 C 0.52193 0.53021 0.62622 0.0
H790 H 0.45801 0.44552 0.60048 0.0
C791 C 0.36533 0.48222 0.61555 0.0
C792 C 0.33941 0.4433 0.61493 0.0
C793 C 0.40401 0.49552 0.61644 0.0
C794 C 0.47539 0.46883 0.60789 0.0
H795 H 0.66297 0.6135 0.61699 0.0
H796 H 0.59476 0.58871 0.6178 0.0
H797 H 0.52602 0.47098 0.60034 0.0
H798 H 0.33368 0.38774 0.61489 0.0
H799 H 0.40159 0.41103 0.61645 0.0
H800 H 0.47121 0.52825 0.63363 0.0
C801 C 0.6051 0.56901 0.61732 0.0
C802 C 0.51442 0.48349 0.60781 0.0
C803 C 0.64415 0.58325 0.61679 0.0
C804 C 0.353 0.41788 0.61534 0.0
C805 C 0.39186 0.43124 0.61616 0.0
C806 C 0.48288 0.5156 0.62628 0.0
C807 C 0.57976 0.52983 0.61683 0.0
C808 C 0.53821 0.5144 0.61696 0.0
C809 C 0.4178 0.47025 0.61667 0.0
C810 C 0.45916 0.4848 0.61708 0.0
H811 H 0.64349 0.49971 0.61477 0.0
H812 H 0.57584 0.47502 0.61592 0.0
H813 H 0.53932 0.55362 0.63358 0.0
H814 H 0.35577 0.50257 0.61525 0.0
H815 H 0.42318 0.52571 0.61661 0.0
C816 C 0.11935 0.63384 0.94196 0.0
C817 C 0.10613 0.65922 0.94423 0.0
C818 C 0.09488 0.59498 0.94297 0.0
C819 C 0.00139 0.52297 0.95769 0.0
H820 H 0.01423 0.45756 0.92975 0.0
C821 C 0.89044 0.36564 0.94947 0.0
C822 C 0.9034 0.33983 0.94794 0.0
C823 C 0.91583 0.4044 0.94994 0.0
C824 C 0.01058 0.4754 0.93776 0.0
H825 H 0.05683 0.66376 0.94935 0.0
H826 H 0.01366 0.59561 0.9508 0.0
H827 H 0.0562 0.52556 0.92837 0.0
H828 H 0.95317 0.33435 0.94589 0.0
H829 H 0.99778 0.4024 0.94659 0.0
H830 H 0.95515 0.4726 0.96683 0.0
C831 C 0.04318 0.60583 0.94849 0.0
C832 C 0.03465 0.51444 0.93698 0.0
C833 C 0.06782 0.64487 0.94757 0.0
C834 C 0.94239 0.35358 0.94709 0.0
C835 C 0.96786 0.3925 0.9474 0.0
C836 C 0.97713 0.48391 0.95839 0.0
C837 C 0.05642 0.58037 0.94616 0.0
C838 C 0.03042 0.53878 0.94694 0.0
C839 C 0.9548 0.41832 0.94875 0.0
C840 C 0.98145 0.45969 0.94842 0.0
H841 H 0.14879 0.64398 0.93948 0.0
H842 H 0.10631 0.5764 0.9414 0.0
H843 H 0.99765 0.54072 0.9657 0.0
H844 H 0.86054 0.35592 0.95018 0.0
H845 H 0.90484 0.42352 0.95083 0.0
C846 C 0.51943 0.8828 0.27944 0.0
C847 C 0.55845 0.89691 0.28069 0.0
C848 C 0.50471 0.90705 0.27999 0.0
C849 C 0.52768 0.00348 0.29145 0.0
H850 H 0.44466 0.98382 0.26491 0.0
C851 C 0.48045 0.11245 0.28007 0.0
C852 C 0.44155 0.09956 0.27952 0.0
C853 C 0.49364 0.08699 0.2811 0.0
C854 C 0.46751 0.98941 0.27253 0.0
H855 H 0.61269 0.94757 0.28355 0.0
H856 H 0.5871 0.99026 0.2842 0.0
H857 H 0.47057 0.94163 0.26471 0.0
H858 H 0.38592 0.04985 0.27971 0.0
H859 H 0.40907 0.00506 0.28138 0.0
H860 H 0.52502 0.0518 0.299 0.0
C861 C 0.56775 0.96027 0.28305 0.0
C862 C 0.4824 0.96522 0.27243 0.0
C863 C 0.58249 0.93588 0.2826 0.0
C864 C 0.41605 0.06058 0.28012 0.0
C865 C 0.4293 0.03499 0.281 0.0
C866 C 0.51293 0.02782 0.29146 0.0
C867 C 0.52864 0.94616 0.28169 0.0
C868 C 0.51275 0.97195 0.28187 0.0
C869 C 0.46829 0.04797 0.28147 0.0
C870 C 0.48277 0.02113 0.28197 0.0
H871 H 0.5001 0.85285 0.27807 0.0
H872 H 0.47444 0.89502 0.2792 0.0
H873 H 0.55056 0.00922 0.29906 0.0
H874 H 0.50085 0.14233 0.27965 0.0
H875 H 0.52381 0.09789 0.28126 0.0
loop_
_geom_bond_atom_site_label_1
_geom_bond_atom_site_label_2
_geom_bond_distance
_geom_bond_site_symmetry_2
_ccdc_geom_bond_type
In0 O1 2.294 . S
In0 O2 2.326 . S
In0 O6 2.266 . S
In0 O7 2.326 . S
In0 O8 2.266 . S
In0 O9 2.326 . S
In0 O11 2.294 . S
In0 O12 2.326 . S
O1 In0 2.294 . S
O1 C10 1.240 . S
O2 In0 2.326 . S
O2 C10 1.252 . S
C3 O6 1.252 . S
C3 O7 1.260 . S
C4 O11 1.240 . S
C4 O12 1.252 . S
C5 O8 1.252 . S
C5 O9 1.260 . S
O6 In0 2.266 . S
O6 C3 1.252 . S
O7 In0 2.326 . S
O7 C3 1.260 . S
O8 In0 2.266 . S
O8 C5 1.252 . S
O9 In0 2.326 . S
O9 C5 1.260 . S
C10 O1 1.240 . S
C10 O2 1.252 . S
O11 In0 2.294 . S
O11 C4 1.240 . S
O12 In0 2.326 . S
O12 C4 1.252 . S
In13 O14 2.294 . S
In13 O15 2.326 . S
In13 O19 2.266 . S
In13 O20 2.326 . S
In13 O21 2.266 . S
In13 O22 2.326 . S
In13 O24 2.294 . S
In13 O25 2.326 . S
O14 In13 2.294 . S
O14 C23 1.240 . S
O15 In13 2.326 . S
O15 C23 1.252 . S
C16 O19 1.252 . S
C16 O20 1.260 . S
C17 O24 1.240 . S
C17 O25 1.252 . S
C18 O21 1.252 . S
C18 O22 1.260 . S
O19 In13 2.266 . S
O19 C16 1.252 . S
O20 In13 2.326 . S
O20 C16 1.260 . S
O21 In13 2.266 . S
O21 C18 1.252 . S
O22 In13 2.326 . S
O22 C18 1.260 . S
C23 O14 1.240 . S
C23 O15 1.252 . S
O24 In13 2.294 . S
O24 C17 1.240 . S
O25 In13 2.326 . S
O25 C17 1.252 . S
In26 O27 2.294 . S
In26 O28 2.326 . S
In26 O32 2.266 . S
In26 O33 2.326 . S
In26 O34 2.266 . S
In26 O35 2.326 . S
In26 O37 2.294 . S
In26 O38 2.326 . S
O27 In26 2.294 . S
O27 C36 1.240 . S
O28 In26 2.326 . S
O28 C36 1.252 . S
C29 O32 1.252 . S
C29 O33 1.260 . S
C30 O37 1.240 . S
C30 O38 1.252 . S
C31 O34 1.252 . S
C31 O35 1.260 . S
O32 In26 2.266 . S
O32 C29 1.252 . S
O33 In26 2.326 . S
O33 C29 1.260 . S
O34 In26 2.266 . S
O34 C31 1.252 . S
O35 In26 2.326 . S
O35 C31 1.260 . S
C36 O27 1.240 . S
C36 O28 1.252 . S
O37 In26 2.294 . S
O37 C30 1.240 . S
O38 In26 2.326 . S
O38 C30 1.252 . S
In39 O40 2.294 . S
In39 O41 2.326 . S
In39 O45 2.266 . S
In39 O46 2.326 . S
In39 O47 2.266 . S
In39 O48 2.326 . S
In39 O50 2.294 . S
In39 O51 2.326 . S
O40 In39 2.294 . S
O40 C49 1.240 . S
O41 In39 2.326 . S
O41 C49 1.252 . S
C42 O45 1.252 . S
C42 O46 1.260 . S
C43 O50 1.240 . S
C43 O51 1.252 . S
C44 O47 1.252 . S
C44 O48 1.260 . S
O45 In39 2.266 . S
O45 C42 1.252 . S
O46 In39 2.326 . S
O46 C42 1.260 . S
O47 In39 2.266 . S
O47 C44 1.252 . S
O48 In39 2.326 . S
O48 C44 1.260 . S
C49 O40 1.240 . S
C49 O41 1.252 . S
O50 In39 2.294 . S
O50 C43 1.240 . S
O51 In39 2.326 . S
O51 C43 1.252 . S
In52 O53 2.294 . S
In52 O54 2.326 . S
In52 O58 2.266 . S
In52 O59 2.326 . S
In52 O60 2.266 . S
In52 O61 2.326 . S
In52 O63 2.294 . S
In52 O64 2.326 . S
O53 In52 2.294 . S
O53 C62 1.240 . S
O54 In52 2.326 . S
O54 C62 1.252 . S
C55 O58 1.252 . S
C55 O59 1.260 . S
C56 O63 1.240 . S
C56 O64 1.252 . S
C57 O60 1.252 . S
C57 O61 1.260 . S
O58 In52 2.266 . S
O58 C55 1.252 . S
O59 In52 2.326 . S
O59 C55 1.260 . S
O60 In52 2.266 . S
O60 C57 1.252 . S
O61 In52 2.326 . S
O61 C57 1.260 . S
C62 O53 1.240 . S
C62 O54 1.252 . S
O63 In52 2.294 . S
O63 C56 1.240 . S
O64 In52 2.326 . S
O64 C56 1.252 . S
In65 O66 2.294 . S
In65 O67 2.326 . S
In65 O71 2.266 . S
In65 O72 2.326 . S
In65 O73 2.266 . S
In65 O74 2.326 . S
In65 O76 2.294 . S
In65 O77 2.326 . S
O66 In65 2.294 . S
O66 C75 1.240 . S
O67 In65 2.326 . S
O67 C75 1.252 . S
C68 O71 1.252 . S
C68 O72 1.260 . S
C69 O76 1.240 . S
C69 O77 1.252 . S
C70 O73 1.252 . S
C70 O74 1.260 . S
O71 In65 2.266 . S
O71 C68 1.252 . S
O72 In65 2.326 . S
O72 C68 1.260 . S
O73 In65 2.266 . S
O73 C70 1.252 . S
O74 In65 2.326 . S
O74 C70 1.260 . S
C75 O66 1.240 . S
C75 O67 1.252 . S
O76 In65 2.294 . S
O76 C69 1.240 . S
O77 In65 2.326 . S
O77 C69 1.252 . S
In78 O79 2.294 . S
In78 O80 2.326 . S
In78 O84 2.266 . S
In78 O85 2.326 . S
In78 O86 2.266 . S
In78 O87 2.326 . S
In78 O89 2.294 . S
In78 O90 2.326 . S
O79 In78 2.294 . S
O79 C88 1.240 . S
O80 In78 2.326 . S
O80 C88 1.252 . S
C81 O84 1.252 . S
C81 O85 1.260 . S
C82 O89 1.240 . S
C82 O90 1.252 . S
C83 O86 1.252 . S
C83 O87 1.260 . S
O84 In78 2.266 . S
O84 C81 1.252 . S
O85 In78 2.326 . S
O85 C81 1.260 . S
O86 In78 2.266 . S
O86 C83 1.252 . S
O87 In78 2.326 . S
O87 C83 1.260 . S
C88 O79 1.240 . S
C88 O80 1.252 . S
O89 In78 2.294 . S
O89 C82 1.240 . S
O90 In78 2.326 . S
O90 C82 1.252 . S
In91 O92 2.294 . S
In91 O93 2.326 . S
In91 O97 2.266 . S
In91 O98 2.326 . S
In91 O99 2.266 . S
In91 O100 2.326 . S
In91 O102 2.294 . S
In91 O103 2.326 . S
O92 In91 2.294 . S
O92 C101 1.240 . S
O93 In91 2.326 . S
O93 C101 1.252 . S
C94 O97 1.252 . S
C94 O98 1.260 . S
C95 O102 1.240 . S
C95 O103 1.252 . S
C96 O99 1.252 . S
C96 O100 1.260 . S
O97 In91 2.266 . S
O97 C94 1.252 . S
O98 In91 2.326 . S
O98 C94 1.260 . S
O99 In91 2.266 . S
O99 C96 1.252 . S
O100 In91 2.326 . S
O100 C96 1.260 . S
C101 O92 1.240 . S
C101 O93 1.252 . S
O102 In91 2.294 . S
O102 C95 1.240 . S
O103 In91 2.326 . S
O103 C95 1.252 . S
In104 O105 2.294 . S
In104 O106 2.326 . S
In104 O110 2.266 . S
In104 O111 2.326 . S
In104 O112 2.266 . S
In104 O113 2.326 . S
In104 O115 2.294 . S
In104 O116 2.326 . S
O105 In104 2.294 . S
O105 C114 1.240 . S
O106 In104 2.326 . S
O106 C114 1.252 . S
C107 O110 1.252 . S
C107 O111 1.260 . S
C108 O115 1.240 . S
C108 O116 1.252 . S
C109 O112 1.252 . S
C109 O113 1.260 . S
O110 In104 2.266 . S
O110 C107 1.252 . S
O111 In104 2.326 . S
O111 C107 1.260 . S
O112 In104 2.266 . S
O112 C109 1.252 . S
O113 In104 2.326 . S
O113 C109 1.260 . S
C114 O105 1.240 . S
C114 O106 1.252 . S
O115 In104 2.294 . S
O115 C108 1.240 . S
O116 In104 2.326 . S
O116 C108 1.252 . S
In117 O118 2.294 . S
In117 O119 2.326 . S
In117 O123 2.266 . S
In117 O124 2.326 . S
In117 O125 2.266 . S
In117 O126 2.326 . S
In117 O128 2.294 . S
In117 O129 2.326 . S
O118 In117 2.294 . S
O118 C127 1.240 . S
O119 In117 2.326 . S
O119 C127 1.252 . S
C120 O123 1.252 . S
C120 O124 1.260 . S
C121 O128 1.240 . S
C121 O129 1.252 . S
C122 O125 1.252 . S
C122 O126 1.260 . S
O123 In117 2.266 . S
O123 C120 1.252 . S
O124 In117 2.326 . S
O124 C120 1.260 . S
O125 In117 2.266 . S
O125 C122 1.252 . S
O126 In117 2.326 . S
O126 C122 1.260 . S
C127 O118 1.240 . S
C127 O119 1.252 . S
O128 In117 2.294 . S
O128 C121 1.240 . S
O129 In117 2.326 . S
O129 C121 1.252 . S
In130 O131 2.294 . S
In130 O132 2.326 . S
In130 O136 2.266 . S
In130 O137 2.326 . S
In130 O138 2.266 . S
In130 O139 2.326 . S
In130 O141 2.294 . S
In130 O142 2.326 . S
O131 In130 2.294 . S
O131 C140 1.240 . S
O132 In130 2.326 . S
O132 C140 1.252 . S
C133 O136 1.252 . S
C133 O137 1.260 . S
C134 O141 1.240 . S
C134 O142 1.252 . S
C135 O138 1.252 . S
C135 O139 1.260 . S
O136 In130 2.266 . S
O136 C133 1.252 . S
O137 In130 2.326 . S
O137 C133 1.260 . S
O138 In130 2.266 . S
O138 C135 1.252 . S
O139 In130 2.326 . S
O139 C135 1.260 . S
C140 O131 1.240 . S
C140 O132 1.252 . S
O141 In130 2.294 . S
O141 C134 1.240 . S
O142 In130 2.326 . S
O142 C134 1.252 . S
In143 O144 2.294 . S
In143 O145 2.326 . S
In143 O149 2.266 . S
In143 O150 2.326 . S
In143 O151 2.266 . S
In143 O152 2.326 . S
In143 O154 2.294 . S
In143 O155 2.326 . S
O144 In143 2.294 . S
O144 C153 1.240 . S
O145 In143 2.326 . S
O145 C153 1.252 . S
C146 O149 1.252 . S
C146 O150 1.260 . S
C147 O154 1.240 . S
C147 O155 1.252 . S
C148 O151 1.252 . S
C148 O152 1.260 . S
O149 In143 2.266 . S
O149 C146 1.252 . S
O150 In143 2.326 . S
O150 C146 1.260 . S
O151 In143 2.266 . S
O151 C148 1.252 . S
O152 In143 2.326 . S
O152 C148 1.260 . S
C153 O144 1.240 . S
C153 O145 1.252 . S
O154 In143 2.294 . S
O154 C147 1.240 . S
O155 In143 2.326 . S
O155 C147 1.252 . S
C156 C157 1.349 . S
C156 C158 1.327 . S
C156 H181 0.950 . S
C157 C156 1.349 . S
C157 C173 1.349 . S
C158 C156 1.327 . S
C158 C177 1.429 . S
C158 H182 0.950 . S
C159 C176 1.574 1_565 S
C159 C178 1.368 1_554 S
C159 H183 0.949 . S
H160 C164 0.949 . S
C161 C162 1.349 . S
C161 C163 1.327 . S
C161 H184 0.950 . S
C162 C161 1.349 . S
C162 C174 1.349 . S
C163 C161 1.327 . S
C163 C179 1.429 . S
C163 H185 0.950 . S
C164 H160 0.949 . S
C164 C172 1.574 1_545 S
C164 C180 1.368 1_556 S
H165 C173 0.950 . S
H166 C171 0.950 . S
H167 C172 0.949 . S
H168 C174 0.950 . S
H169 C175 0.950 . S
H170 C176 0.949 . S
C171 H166 0.950 . S
C171 C173 1.327 . S
C171 C177 1.429 . S
C172 C164 1.574 1_565 S
C172 H167 0.949 . S
C172 C178 1.368 . S
C173 C157 1.349 . S
C173 H165 0.950 . S
C173 C171 1.327 . S
C174 C162 1.349 . S
C174 H168 0.950 . S
C174 C175 1.327 . S
C175 H169 0.950 . S
C175 C174 1.327 . S
C175 C179 1.429 . S
C176 C159 1.574 1_545 S
C176 H170 0.949 . S
C176 C180 1.368 . S
C177 C158 1.429 . S
C177 C171 1.429 . S
C177 C178 1.523 . S
C178 C159 1.368 1_556 S
C178 C172 1.368 . S
C178 C177 1.523 . S
C179 C163 1.429 . S
C179 C175 1.429 . S
C179 C180 1.523 . S
C180 C164 1.368 1_554 S
C180 C176 1.368 . S
C180 C179 1.523 . S
H181 C156 0.950 . S
H182 C158 0.950 . S
H183 C159 0.949 . S
H184 C161 0.950 . S
H185 C163 0.950 . S
C186 C187 1.349 . S
C186 C188 1.327 . S
C186 H211 0.950 . S
C187 C186 1.349 . S
C187 C203 1.349 . S
C188 C186 1.327 . S
C188 C207 1.429 . S
C188 H212 0.950 . S
C189 C206 1.574 . S
C189 C208 1.368 . S
C189 H213 0.949 . S
H190 C194 0.949 . S
C191 C192 1.349 . S
C191 C193 1.327 . S
C191 H214 0.950 . S
C192 C191 1.349 . S
C192 C204 1.349 . S
C193 C191 1.327 . S
C193 C209 1.429 . S
C193 H215 0.950 . S
C194 H190 0.949 . S
C194 C202 1.574 . S
C194 C210 1.368 . S
H195 C203 0.950 . S
H196 C201 0.950 . S
H197 C202 0.949 . S
H198 C204 0.950 . S
H199 C205 0.950 . S
H200 C206 0.949 . S
C201 H196 0.950 . S
C201 C203 1.327 . S
C201 C207 1.429 . S
C202 C194 1.574 . S
C202 H197 0.949 . S
C202 C208 1.368 . S
C203 C187 1.349 . S
C203 H195 0.950 . S
C203 C201 1.327 . S
C204 C192 1.349 . S
C204 H198 0.950 . S
C204 C205 1.327 . S
C205 H199 0.950 . S
C205 C204 1.327 . S
C205 C209 1.429 . S
C206 C189 1.574 . S
C206 H200 0.949 . S
C206 C210 1.368 . S
C207 C188 1.429 . S
C207 C201 1.429 . S
C207 C208 1.523 . S
C208 C189 1.368 . S
C208 C202 1.368 . S
C208 C207 1.523 . S
C209 C193 1.429 . S
C209 C205 1.429 . S
C209 C210 1.523 . S
C210 C194 1.368 . S
C210 C206 1.368 . S
C210 C209 1.523 . S
H211 C186 0.950 . S
H212 C188 0.950 . S
H213 C189 0.949 . S
H214 C191 0.950 . S
H215 C193 0.950 . S
C216 C217 1.349 . S
C216 C218 1.327 . S
C216 H241 0.950 . S
C217 C216 1.349 . S
C217 C233 1.349 . S
C218 C216 1.327 . S
C218 C237 1.429 . S
C218 H242 0.950 . S
C219 C236 1.574 . S
C219 C238 1.368 1_455 S
C219 H243 0.949 . S
H220 C224 0.949 . S
C221 C222 1.349 . S
C221 C223 1.327 . S
C221 H244 0.950 . S
C222 C221 1.349 . S
C222 C234 1.349 . S
C223 C221 1.327 . S
C223 C239 1.429 . S
C223 H245 0.950 . S
C224 H220 0.949 . S
C224 C232 1.574 . S
C224 C240 1.368 1_655 S
H225 C233 0.950 . S
H226 C231 0.950 . S
H227 C232 0.949 . S
H228 C234 0.950 . S
H229 C235 0.950 . S
H230 C236 0.949 . S
C231 H226 0.950 . S
C231 C233 1.327 . S
C231 C237 1.429 . S
C232 C224 1.574 . S
C232 H227 0.949 . S
C232 C238 1.368 . S
C233 C217 1.349 . S
C233 H225 0.950 . S
C233 C231 1.327 . S
C234 C222 1.349 . S
C234 H228 0.950 . S
C234 C235 1.327 . S
C235 H229 0.950 . S
C235 C234 1.327 . S
C235 C239 1.429 . S
C236 C219 1.574 . S
C236 H230 0.949 . S
C236 C240 1.368 . S
C237 C218 1.429 . S
C237 C231 1.429 . S
C237 C238 1.523 . S
C238 C219 1.368 1_655 S
C238 C232 1.368 . S
C238 C237 1.523 . S
C239 C223 1.429 . S
C239 C235 1.429 . S
C239 C240 1.523 . S
C240 C224 1.368 1_455 S
C240 C236 1.368 . S
C240 C239 1.523 . S
H241 C216 0.950 . S
H242 C218 0.950 . S
H243 C219 0.949 . S
H244 C221 0.950 . S
H245 C223 0.950 . S
C246 C247 1.349 . S
C246 C248 1.327 . S
C246 H271 0.950 . S
C247 C246 1.349 . S
C247 C263 1.349 . S
C248 C246 1.327 . S
C248 C267 1.429 . S
C248 H272 0.950 . S
C249 C266 1.574 1_564 S
C249 C268 1.368 . S
C249 H273 0.949 . S
H250 C254 0.949 . S
C251 C252 1.349 . S
C251 C253 1.327 . S
C251 H274 0.950 . S
C252 C251 1.349 . S
C252 C264 1.349 . S
C253 C251 1.327 . S
C253 C269 1.429 . S
C253 H275 0.950 . S
C254 H250 0.949 . S
C254 C262 1.574 1_546 S
C254 C270 1.368 . S
H255 C263 0.950 . S
H256 C261 0.950 . S
H257 C262 0.949 . S
H258 C264 0.950 . S
H259 C265 0.950 . S
H260 C266 0.949 . S
C261 H256 0.950 . S
C261 C263 1.327 . S
C261 C267 1.429 . S
C262 C254 1.574 1_564 S
C262 H257 0.949 . S
C262 C268 1.368 . S
C263 C247 1.349 . S
C263 H255 0.950 . S
C263 C261 1.327 . S
C264 C252 1.349 . S
C264 H258 0.950 . S
C264 C265 1.327 . S
C265 H259 0.950 . S
C265 C264 1.327 . S
C265 C269 1.429 . S
C266 C249 1.574 1_546 S
C266 H260 0.949 . S
C266 C270 1.368 . S
C267 C248 1.429 . S
C267 C261 1.429 . S
C267 C268 1.523 . S
C268 C249 1.368 . S
C268 C262 1.368 . S
C268 C267 1.523 . S
C269 C253 1.429 . S
C269 C265 1.429 . S
C269 C270 1.523 . S
C270 C254 1.368 . S
C270 C266 1.368 . S
C270 C269 1.523 . S
H271 C246 0.950 . S
H272 C248 0.950 . S
H273 C249 0.949 . S
H274 C251 0.950 . S
H275 C253 0.950 . S
C276 C277 1.349 . S
C276 C278 1.327 . S
C276 H301 0.950 . S
C277 C276 1.349 . S
C277 C293 1.349 . S
C278 C276 1.327 . S
C278 C297 1.429 . S
C278 H302 0.950 . S
C279 C296 1.574 . S
C279 C298 1.368 . S
C279 H303 0.949 . S
H280 C284 0.949 . S
C281 C282 1.349 . S
C281 C283 1.327 . S
C281 H304 0.950 . S
C282 C281 1.349 . S
C282 C294 1.349 . S
C283 C281 1.327 . S
C283 C299 1.429 . S
C283 H305 0.950 . S
C284 H280 0.949 . S
C284 C292 1.574 . S
C284 C300 1.368 . S
H285 C293 0.950 . S
H286 C291 0.950 . S
H287 C292 0.949 . S
H288 C294 0.950 . S
H289 C295 0.950 . S
H290 C296 0.949 . S
C291 H286 0.950 . S
C291 C293 1.327 . S
C291 C297 1.429 . S
C292 C284 1.574 . S
C292 H287 0.949 . S
C292 C298 1.368 . S
C293 C277 1.349 . S
C293 H285 0.950 . S
C293 C291 1.327 . S
C294 C282 1.349 . S
C294 H288 0.950 . S
C294 C295 1.327 . S
C295 H289 0.950 . S
C295 C294 1.327 . S
C295 C299 1.429 . S
C296 C279 1.574 . S
C296 H290 0.949 . S
C296 C300 1.368 . S
C297 C278 1.429 . S
C297 C291 1.429 . S
C297 C298 1.523 . S
C298 C279 1.368 . S
C298 C292 1.368 . S
C298 C297 1.523 . S
C299 C283 1.429 . S
C299 C295 1.429 . S
C299 C300 1.523 . S
C300 C284 1.368 . S
C300 C296 1.368 . S
C300 C299 1.523 . S
H301 C276 0.950 . S
H302 C278 0.950 . S
H303 C279 0.949 . S
H304 C281 0.950 . S
H305 C283 0.950 . S
C306 C307 1.349 . S
C306 C308 1.327 . S
C306 H331 0.950 . S
C307 C306 1.349 . S
C307 C323 1.349 . S
C308 C306 1.327 . S
C308 C327 1.429 . S
C308 H332 0.950 . S
C309 C326 1.573 1_655 S
C309 C328 1.369 . S
C309 H333 0.954 . S
H310 C314 0.954 . S
C311 C312 1.349 . S
C311 C313 1.327 . S
C311 H334 0.950 . S
C312 C311 1.349 . S
C312 C324 1.349 . S
C313 C311 1.327 . S
C313 C329 1.429 . S
C313 H335 0.950 . S
C314 H310 0.954 . S
C314 C322 1.573 1_455 S
C314 C330 1.369 . S
H315 C323 0.950 . S
H316 C321 0.950 . S
H317 C322 0.949 . S
H318 C324 0.950 . S
H319 C325 0.950 . S
H320 C326 0.949 . S
C321 H316 0.950 . S
C321 C323 1.327 . S
C321 C327 1.429 . S
C322 C314 1.573 1_655 S
C322 H317 0.949 . S
C322 C328 1.368 . S
C323 C307 1.349 . S
C323 H315 0.950 . S
C323 C321 1.327 . S
C324 C312 1.349 . S
C324 H318 0.950 . S
C324 C325 1.327 . S
C325 H319 0.950 . S
C325 C324 1.327 . S
C325 C329 1.429 . S
C326 C309 1.573 1_455 S
C326 H320 0.949 . S
C326 C330 1.368 . S
C327 C308 1.429 . S
C327 C321 1.429 . S
C327 C328 1.523 . S
C328 C309 1.369 . S
C328 C322 1.368 . S
C328 C327 1.523 . S
C329 C313 1.429 . S
C329 C325 1.429 . S
C329 C330 1.523 . S
C330 C314 1.369 . S
C330 C326 1.368 . S
C330 C329 1.523 . S
H331 C306 0.950 . S
H332 C308 0.950 . S
H333 C309 0.954 . S
H334 C311 0.950 . S
H335 C313 0.950 . S
C336 C337 1.349 . S
C336 C338 1.327 . S
C336 H361 0.950 . S
C337 C336 1.349 . S
C337 C353 1.349 . S
C338 C336 1.327 . S
C338 C357 1.429 . S
C338 H362 0.950 . S
C339 C356 1.574 . S
C339 C358 1.368 1_554 S
C339 H363 0.949 . S
H340 C344 0.949 . S
C341 C342 1.349 . S
C341 C343 1.327 . S
C341 H364 0.950 . S
C342 C341 1.349 . S
C342 C354 1.349 . S
C343 C341 1.327 . S
C343 C359 1.429 . S
C343 H365 0.950 . S
C344 H340 0.949 . S
C344 C352 1.574 . S
C344 C360 1.368 1_556 S
H345 C353 0.950 . S
H346 C351 0.950 . S
H347 C352 0.949 . S
H348 C354 0.950 . S
H349 C355 0.950 . S
H350 C356 0.949 . S
C351 H346 0.950 . S
C351 C353 1.327 . S
C351 C357 1.429 . S
C352 C344 1.574 . S
C352 H347 0.949 . S
C352 C358 1.368 . S
C353 C337 1.349 . S
C353 H345 0.950 . S
C353 C351 1.327 . S
C354 C342 1.349 . S
C354 H348 0.950 . S
C354 C355 1.327 . S
C355 H349 0.950 . S
C355 C354 1.327 . S
C355 C359 1.429 . S
C356 C339 1.574 . S
C356 H350 0.949 . S
C356 C360 1.368 . S
C357 C338 1.429 . S
C357 C351 1.429 . S
C357 C358 1.523 . S
C358 C339 1.368 1_556 S
C358 C352 1.368 . S
C358 C357 1.523 . S
C359 C343 1.429 . S
C359 C355 1.429 . S
C359 C360 1.523 . S
C360 C344 1.368 1_554 S
C360 C356 1.368 . S
C360 C359 1.523 . S
H361 C336 0.950 . S
H362 C338 0.950 . S
H363 C339 0.949 . S
H364 C341 0.950 . S
H365 C343 0.950 . S
C366 C367 1.349 . S
C366 C368 1.327 . S
C366 H391 0.950 . S
C367 C366 1.349 . S
C367 C383 1.349 . S
C368 C366 1.327 . S
C368 C387 1.429 . S
C368 H392 0.950 . S
C369 C386 1.574 . S
C369 C388 1.368 . S
C369 H393 0.949 . S
H370 C374 0.949 . S
C371 C372 1.349 . S
C371 C373 1.327 . S
C371 H394 0.950 . S
C372 C371 1.349 . S
C372 C384 1.349 . S
C373 C371 1.327 . S
C373 C389 1.429 . S
C373 H395 0.950 . S
C374 H370 0.949 . S
C374 C382 1.574 . S
C374 C390 1.368 . S
H375 C383 0.950 . S
H376 C381 0.950 . S
H377 C382 0.949 . S
H378 C384 0.950 . S
H379 C385 0.950 . S
H380 C386 0.949 . S
C381 H376 0.950 . S
C381 C383 1.327 . S
C381 C387 1.429 . S
C382 C374 1.574 . S
C382 H377 0.949 . S
C382 C388 1.368 . S
C383 C367 1.349 . S
C383 H375 0.950 . S
C383 C381 1.327 . S
C384 C372 1.349 . S
C384 H378 0.950 . S
C384 C385 1.327 . S
C385 H379 0.950 . S
C385 C384 1.327 . S
C385 C389 1.429 . S
C386 C369 1.574 . S
C386 H380 0.949 . S
C386 C390 1.368 . S
C387 C368 1.429 . S
C387 C381 1.429 . S
C387 C388 1.523 . S
C388 C369 1.368 . S
C388 C382 1.368 . S
C388 C387 1.523 . S
C389 C373 1.429 . S
C389 C385 1.429 . S
C389 C390 1.523 . S
C390 C374 1.368 . S
C390 C386 1.368 . S
C390 C389 1.523 . S
H391 C366 0.950 . S
H392 C368 0.950 . S
H393 C369 0.949 . S
H394 C371 0.950 . S
H395 C373 0.950 . S
C396 C397 1.349 . S
C396 C398 1.327 . S
C396 H421 0.950 . S
C397 C396 1.349 . S
C397 C413 1.349 . S
C398 C396 1.327 . S
C398 C417 1.429 . S
C398 H422 0.950 . S
C399 C416 1.574 . S
C399 C418 1.368 . S
C399 H423 0.949 . S
H400 C404 0.949 . S
C401 C402 1.349 . S
C401 C403 1.327 . S
C401 H424 0.950 . S
C402 C401 1.349 . S
C402 C414 1.349 . S
C403 C401 1.327 . S
C403 C419 1.429 . S
C403 H425 0.950 . S
C404 H400 0.949 . S
C404 C412 1.574 . S
C404 C420 1.368 . S
H405 C413 0.950 . S
H406 C411 0.950 . S
H407 C412 0.949 . S
H408 C414 0.950 . S
H409 C415 0.950 . S
H410 C416 0.949 . S
C411 H406 0.950 . S
C411 C413 1.327 . S
C411 C417 1.429 . S
C412 C404 1.574 . S
C412 H407 0.949 . S
C412 C418 1.368 . S
C413 C397 1.349 . S
C413 H405 0.950 . S
C413 C411 1.327 . S
C414 C402 1.349 . S
C414 H408 0.950 . S
C414 C415 1.327 . S
C415 H409 0.950 . S
C415 C414 1.327 . S
C415 C419 1.429 . S
C416 C399 1.574 . S
C416 H410 0.949 . S
C416 C420 1.368 . S
C417 C398 1.429 . S
C417 C411 1.429 . S
C417 C418 1.523 . S
C418 C399 1.368 . S
C418 C412 1.368 . S
C418 C417 1.523 . S
C419 C403 1.429 . S
C419 C415 1.429 . S
C419 C420 1.523 . S
C420 C404 1.368 . S
C420 C416 1.368 . S
C420 C419 1.523 . S
H421 C396 0.950 . S
H422 C398 0.950 . S
H423 C399 0.949 . S
H424 C401 0.950 . S
H425 C403 0.950 . S
C426 C427 1.349 . S
C426 C428 1.327 . S
C426 H451 0.950 . S
C427 C426 1.349 . S
C427 C443 1.349 . S
C428 C426 1.327 . S
C428 C447 1.429 . S
C428 H452 0.950 . S
C429 C446 1.574 . S
C429 C448 1.368 . S
C429 H453 0.949 . S
H430 C434 0.949 . S
C431 C432 1.349 . S
C431 C433 1.327 . S
C431 H454 0.950 . S
C432 C431 1.349 . S
C432 C444 1.349 . S
C433 C431 1.327 . S
C433 C449 1.429 . S
C433 H455 0.950 . S
C434 H430 0.949 . S
C434 C442 1.574 . S
C434 C450 1.368 . S
H435 C443 0.950 . S
H436 C441 0.950 . S
H437 C442 0.949 . S
H438 C444 0.950 . S
H439 C445 0.950 . S
H440 C446 0.949 . S
C441 H436 0.950 . S
C441 C443 1.327 . S
C441 C447 1.429 . S
C442 C434 1.574 . S
C442 H437 0.949 . S
C442 C448 1.368 1_554 S
C443 C427 1.349 . S
C443 H435 0.950 . S
C443 C441 1.327 . S
C444 C432 1.349 . S
C444 H438 0.950 . S
C444 C445 1.327 . S
C445 H439 0.950 . S
C445 C444 1.327 . S
C445 C449 1.429 . S
C446 C429 1.574 . S
C446 H440 0.949 . S
C446 C450 1.368 1_556 S
C447 C428 1.429 . S
C447 C441 1.429 . S
C447 C448 1.523 . S
C448 C429 1.368 . S
C448 C442 1.368 1_556 S
C448 C447 1.523 . S
C449 C433 1.429 . S
C449 C445 1.429 . S
C449 C450 1.523 . S
C450 C434 1.368 . S
C450 C446 1.368 1_554 S
C450 C449 1.523 . S
H451 C426 0.950 . S
H452 C428 0.950 . S
H453 C429 0.949 . S
H454 C431 0.950 . S
H455 C433 0.950 . S
C456 C457 1.349 . S
C456 C458 1.327 . S
C456 H481 0.950 . S
C457 C456 1.349 . S
C457 C473 1.349 . S
C458 C456 1.327 . S
C458 C477 1.429 . S
C458 H482 0.950 . S
C459 C476 1.574 . S
C459 C478 1.368 . S
C459 H483 0.949 . S
H460 C464 0.949 . S
C461 C462 1.349 . S
C461 C463 1.327 . S
C461 H484 0.950 . S
C462 C461 1.349 . S
C462 C474 1.349 . S
C463 C461 1.327 . S
C463 C479 1.429 . S
C463 H485 0.950 . S
C464 H460 0.949 . S
C464 C472 1.574 . S
C464 C480 1.368 . S
H465 C473 0.950 . S
H466 C471 0.950 . S
H467 C472 0.949 . S
H468 C474 0.950 . S
H469 C475 0.950 . S
H470 C476 0.949 . S
C471 H466 0.950 . S
C471 C473 1.327 . S
C471 C477 1.429 . S
C472 C464 1.574 . S
C472 H467 0.949 . S
C472 C478 1.368 . S
C473 C457 1.349 . S
C473 H465 0.950 . S
C473 C471 1.327 . S
C474 C462 1.349 . S
C474 H468 0.950 . S
C474 C475 1.327 . S
C475 H469 0.950 . S
C475 C474 1.327 . S
C475 C479 1.429 . S
C476 C459 1.574 . S
C476 H470 0.949 . S
C476 C480 1.368 . S
C477 C458 1.429 . S
C477 C471 1.429 . S
C477 C478 1.523 . S
C478 C459 1.368 . S
C478 C472 1.368 . S
C478 C477 1.523 . S
C479 C463 1.429 . S
C479 C475 1.429 . S
C479 C480 1.523 . S
C480 C464 1.368 . S
C480 C476 1.368 . S
C480 C479 1.523 . S
H481 C456 0.950 . S
H482 C458 0.950 . S
H483 C459 0.949 . S
H484 C461 0.950 . S
H485 C463 0.950 . S
C486 C487 1.349 . S
C486 C488 1.327 . S
C486 H511 0.950 . S
C487 C486 1.349 . S
C487 C503 1.349 . S
C488 C486 1.327 . S
C488 C507 1.429 . S
C488 H512 0.950 . S
C489 C506 1.574 . S
C489 C508 1.368 . S
C489 H513 0.949 . S
H490 C494 0.949 . S
C491 C492 1.349 . S
C491 C493 1.327 . S
C491 H514 0.950 . S
C492 C491 1.349 . S
C492 C504 1.349 . S
C493 C491 1.327 . S
C493 C509 1.429 . S
C493 H515 0.950 . S
C494 H490 0.949 . S
C494 C502 1.574 . S
C494 C510 1.368 . S
H495 C503 0.950 . S
H496 C501 0.950 . S
H497 C502 0.949 . S
H498 C504 0.950 . S
H499 C505 0.950 . S
H500 C506 0.949 . S
C501 H496 0.950 . S
C501 C503 1.327 . S
C501 C507 1.429 . S
C502 C494 1.574 . S
C502 H497 0.949 . S
C502 C508 1.368 . S
C503 C487 1.349 . S
C503 H495 0.950 . S
C503 C501 1.327 . S
C504 C492 1.349 . S
C504 H498 0.950 . S
C504 C505 1.327 . S
C505 H499 0.950 . S
C505 C504 1.327 . S
C505 C509 1.429 . S
C506 C489 1.574 . S
C506 H500 0.949 . S
C506 C510 1.368 . S
C507 C488 1.429 . S
C507 C501 1.429 . S
C507 C508 1.523 . S
C508 C489 1.368 . S
C508 C502 1.368 . S
C508 C507 1.523 . S
C509 C493 1.429 . S
C509 C505 1.429 . S
C509 C510 1.523 . S
C510 C494 1.368 . S
C510 C506 1.368 . S
C510 C509 1.523 . S
H511 C486 0.950 . S
H512 C488 0.950 . S
H513 C489 0.949 . S
H514 C491 0.950 . S
H515 C493 0.950 . S
C516 C517 1.349 . S
C516 C518 1.327 . S
C516 H541 0.950 . S
C517 C516 1.349 . S
C517 C533 1.349 . S
C518 C516 1.327 . S
C518 C537 1.429 . S
C518 H542 0.950 . S
C519 C536 1.574 . S
C519 C538 1.368 . S
C519 H543 0.949 . S
H520 C524 0.949 . S
C521 C522 1.349 . S
C521 C523 1.327 . S
C521 H544 0.950 . S
C522 C521 1.349 . S
C522 C534 1.349 . S
C523 C521 1.327 . S
C523 C539 1.429 . S
C523 H545 0.950 . S
C524 H520 0.949 . S
C524 C532 1.574 . S
C524 C540 1.368 . S
H525 C533 0.950 . S
H526 C531 0.950 . S
H527 C532 0.949 . S
H528 C534 0.950 . S
H529 C535 0.950 . S
H530 C536 0.949 . S
C531 H526 0.950 . S
C531 C533 1.327 . S
C531 C537 1.429 . S
C532 C524 1.574 . S
C532 H527 0.949 . S
C532 C538 1.368 . S
C533 C517 1.349 . S
C533 H525 0.950 . S
C533 C531 1.327 . S
C534 C522 1.349 . S
C534 H528 0.950 . S
C534 C535 1.327 . S
C535 H529 0.950 . S
C535 C534 1.327 . S
C535 C539 1.429 . S
C536 C519 1.574 . S
C536 H530 0.949 . S
C536 C540 1.368 . S
C537 C518 1.429 . S
C537 C531 1.429 . S
C537 C538 1.523 . S
C538 C519 1.368 . S
C538 C532 1.368 . S
C538 C537 1.523 . S
C539 C523 1.429 . S
C539 C535 1.429 . S
C539 C540 1.523 . S
C540 C524 1.368 . S
C540 C536 1.368 . S
C540 C539 1.523 . S
H541 C516 0.950 . S
H542 C518 0.950 . S
H543 C519 0.949 . S
H544 C521 0.950 . S
H545 C523 0.950 . S
C546 C547 1.349 . S
C546 C548 1.327 . S
C546 H571 0.950 . S
C547 C546 1.349 . S
C547 C563 1.349 . S
C548 C546 1.327 . S
C548 C567 1.429 . S
C548 H572 0.950 . S
C549 C566 1.574 . S
C549 C568 1.368 . S
C549 H573 0.949 . S
H550 C554 0.949 . S
C551 C552 1.349 . S
C551 C553 1.327 . S
C551 H574 0.950 . S
C552 C551 1.349 . S
C552 C564 1.349 . S
C553 C551 1.327 . S
C553 C569 1.429 . S
C553 H575 0.950 . S
C554 H550 0.949 . S
C554 C562 1.574 . S
C554 C570 1.368 . S
H555 C563 0.950 . S
H556 C561 0.950 . S
H557 C562 0.949 . S
H558 C564 0.950 . S
H559 C565 0.950 . S
H560 C566 0.949 . S
C561 H556 0.950 . S
C561 C563 1.327 . S
C561 C567 1.429 . S
C562 C554 1.574 . S
C562 H557 0.949 . S
C562 C568 1.368 . S
C563 C547 1.349 . S
C563 H555 0.950 . S
C563 C561 1.327 . S
C564 C552 1.349 . S
C564 H558 0.950 . S
C564 C565 1.327 . S
C565 H559 0.950 . S
C565 C564 1.327 . S
C565 C569 1.429 . S
C566 C549 1.574 . S
C566 H560 0.949 . S
C566 C570 1.368 . S
C567 C548 1.429 . S
C567 C561 1.429 . S
C567 C568 1.523 . S
C568 C549 1.368 . S
C568 C562 1.368 . S
C568 C567 1.523 . S
C569 C553 1.429 . S
C569 C565 1.429 . S
C569 C570 1.523 . S
C570 C554 1.368 . S
C570 C566 1.368 . S
C570 C569 1.523 . S
H571 C546 0.950 . S
H572 C548 0.950 . S
H573 C549 0.949 . S
H574 C551 0.950 . S
H575 C553 0.950 . S
C576 C577 1.349 . S
C576 C578 1.327 . S
C576 H601 0.950 . S
C577 C576 1.349 . S
C577 C593 1.349 . S
C578 C576 1.327 . S
C578 C597 1.429 . S
C578 H602 0.950 . S
C579 C596 1.574 . S
C579 C598 1.368 . S
C579 H603 0.949 . S
H580 C584 0.949 . S
C581 C582 1.349 . S
C581 C583 1.327 . S
C581 H604 0.950 . S
C582 C581 1.349 . S
C582 C594 1.349 . S
C583 C581 1.327 . S
C583 C599 1.429 . S
C583 H605 0.950 . S
C584 H580 0.949 . S
C584 C592 1.574 . S
C584 C600 1.368 . S
H585 C593 0.950 . S
H586 C591 0.950 . S
H587 C592 0.949 . S
H588 C594 0.950 . S
H589 C595 0.950 . S
H590 C596 0.949 . S
C591 H586 0.950 . S
C591 C593 1.327 . S
C591 C597 1.429 . S
C592 C584 1.574 . S
C592 H587 0.949 . S
C592 C598 1.368 . S
C593 C577 1.349 . S
C593 H585 0.950 . S
C593 C591 1.327 . S
C594 C582 1.349 . S
C594 H588 0.950 . S
C594 C595 1.327 . S
C595 H589 0.950 . S
C595 C594 1.327 . S
C595 C599 1.429 . S
C596 C579 1.574 . S
C596 H590 0.949 . S
C596 C600 1.368 . S
C597 C578 1.429 . S
C597 C591 1.429 . S
C597 C598 1.523 . S
C598 C579 1.368 . S
C598 C592 1.368 . S
C598 C597 1.523 . S
C599 C583 1.429 . S
C599 C595 1.429 . S
C599 C600 1.523 . S
C600 C584 1.368 . S
C600 C596 1.368 . S
C600 C599 1.523 . S
H601 C576 0.950 . S
H602 C578 0.950 . S
H603 C579 0.949 . S
H604 C581 0.950 . S
H605 C583 0.950 . S
C606 C607 1.349 . S
C606 C608 1.327 . S
C606 H631 0.950 . S
C607 C606 1.349 . S
C607 C623 1.349 . S
C608 C606 1.327 . S
C608 C627 1.429 . S
C608 H632 0.950 . S
C609 C626 1.574 . S
C609 C628 1.368 . S
C609 H633 0.949 . S
H610 C614 0.949 . S
C611 C612 1.349 . S
C611 C613 1.327 . S
C611 H634 0.950 . S
C612 C611 1.349 . S
C612 C624 1.349 . S
C613 C611 1.327 . S
C613 C629 1.429 . S
C613 H635 0.950 . S
C614 H610 0.949 . S
C614 C622 1.574 . S
C614 C630 1.368 . S
H615 C623 0.950 . S
H616 C621 0.950 . S
H617 C622 0.949 . S
H618 C624 0.950 . S
H619 C625 0.950 . S
H620 C626 0.949 . S
C621 H616 0.950 . S
C621 C623 1.327 . S
C621 C627 1.429 . S
C622 C614 1.574 . S
C622 H617 0.949 . S
C622 C628 1.368 . S
C623 C607 1.349 . S
C623 H615 0.950 . S
C623 C621 1.327 . S
C624 C612 1.349 . S
C624 H618 0.950 . S
C624 C625 1.327 . S
C625 H619 0.950 . S
C625 C624 1.327 . S
C625 C629 1.429 . S
C626 C609 1.574 . S
C626 H620 0.949 . S
C626 C630 1.368 . S
C627 C608 1.429 . S
C627 C621 1.429 . S
C627 C628 1.523 . S
C628 C609 1.368 . S
C628 C622 1.368 . S
C628 C627 1.523 . S
C629 C613 1.429 . S
C629 C625 1.429 . S
C629 C630 1.523 . S
C630 C614 1.368 . S
C630 C626 1.368 . S
C630 C629 1.523 . S
H631 C606 0.950 . S
H632 C608 0.950 . S
H633 C609 0.949 . S
H634 C611 0.950 . S
H635 C613 0.950 . S
C636 C637 1.349 . S
C636 C638 1.327 . S
C636 H661 0.950 . S
C637 C636 1.349 . S
C637 C653 1.349 . S
C638 C636 1.327 . S
C638 C657 1.429 . S
C638 H662 0.950 . S
C639 C656 1.574 . S
C639 C658 1.368 . S
C639 H663 0.949 . S
H640 C644 0.949 . S
C641 C642 1.349 . S
C641 C643 1.327 . S
C641 H664 0.950 . S
C642 C641 1.349 . S
C642 C654 1.349 . S
C643 C641 1.327 . S
C643 C659 1.429 . S
C643 H665 0.950 . S
C644 H640 0.949 . S
C644 C652 1.574 . S
C644 C660 1.368 . S
H645 C653 0.950 . S
H646 C651 0.950 . S
H647 C652 0.949 . S
H648 C654 0.950 . S
H649 C655 0.950 . S
H650 C656 0.949 . S
C651 H646 0.950 . S
C651 C653 1.327 . S
C651 C657 1.429 . S
C652 C644 1.574 . S
C652 H647 0.949 . S
C652 C658 1.368 . S
C653 C637 1.349 . S
C653 H645 0.950 . S
C653 C651 1.327 . S
C654 C642 1.349 . S
C654 H648 0.950 . S
C654 C655 1.327 . S
C655 H649 0.950 . S
C655 C654 1.327 . S
C655 C659 1.429 . S
C656 C639 1.574 . S
C656 H650 0.949 . S
C656 C660 1.368 . S
C657 C638 1.429 . S
C657 C651 1.429 . S
C657 C658 1.523 . S
C658 C639 1.368 . S
C658 C652 1.368 . S
C658 C657 1.523 . S
C659 C643 1.429 . S
C659 C655 1.429 . S
C659 C660 1.523 . S
C660 C644 1.368 . S
C660 C656 1.368 . S
C660 C659 1.523 . S
H661 C636 0.950 . S
H662 C638 0.950 . S
H663 C639 0.949 . S
H664 C641 0.950 . S
H665 C643 0.950 . S
C666 C667 1.349 . S
C666 C668 1.327 . S
C666 H691 0.950 . S
C667 C666 1.349 . S
C667 C683 1.349 . S
C668 C666 1.327 . S
C668 C687 1.429 . S
C668 H692 0.950 . S
C669 C686 1.574 . S
C669 C688 1.368 . S
C669 H693 0.949 . S
H670 C674 0.949 . S
C671 C672 1.349 . S
C671 C673 1.327 . S
C671 H694 0.950 . S
C672 C671 1.349 . S
C672 C684 1.349 . S
C673 C671 1.327 . S
C673 C689 1.429 . S
C673 H695 0.950 . S
C674 H670 0.949 . S
C674 C682 1.574 . S
C674 C690 1.368 . S
H675 C683 0.950 . S
H676 C681 0.950 . S
H677 C682 0.949 . S
H678 C684 0.950 . S
H679 C685 0.950 . S
H680 C686 0.949 . S
C681 H676 0.950 . S
C681 C683 1.327 . S
C681 C687 1.429 . S
C682 C674 1.574 . S
C682 H677 0.949 . S
C682 C688 1.368 . S
C683 C667 1.349 . S
C683 H675 0.950 . S
C683 C681 1.327 . S
C684 C672 1.349 . S
C684 H678 0.950 . S
C684 C685 1.327 . S
C685 H679 0.950 . S
C685 C684 1.327 . S
C685 C689 1.429 . S
C686 C669 1.574 . S
C686 H680 0.949 . S
C686 C690 1.368 . S
C687 C668 1.429 . S
C687 C681 1.429 . S
C687 C688 1.523 . S
C688 C669 1.368 . S
C688 C682 1.368 . S
C688 C687 1.523 . S
C689 C673 1.429 . S
C689 C685 1.429 . S
C689 C690 1.523 . S
C690 C674 1.368 . S
C690 C686 1.368 . S
C690 C689 1.523 . S
H691 C666 0.950 . S
H692 C668 0.950 . S
H693 C669 0.949 . S
H694 C671 0.950 . S
H695 C673 0.950 . S
C696 C697 1.349 . S
C696 C698 1.327 . S
C696 H721 0.950 . S
C697 C696 1.349 . S
C697 C713 1.349 . S
C698 C696 1.327 . S
C698 C717 1.429 . S
C698 H722 0.950 . S
C699 C716 1.574 . S
C699 C718 1.368 . S
C699 H723 0.949 . S
H700 C704 0.949 . S
C701 C702 1.349 . S
C701 C703 1.327 . S
C701 H724 0.950 . S
C702 C701 1.349 . S
C702 C714 1.349 . S
C703 C701 1.327 . S
C703 C719 1.429 . S
C703 H725 0.950 . S
C704 H700 0.949 . S
C704 C712 1.574 . S
C704 C720 1.368 . S
H705 C713 0.950 . S
H706 C711 0.950 . S
H707 C712 0.949 . S
H708 C714 0.950 . S
H709 C715 0.950 . S
H710 C716 0.949 . S
C711 H706 0.950 . S
C711 C713 1.327 . S
C711 C717 1.429 . S
C712 C704 1.574 . S
C712 H707 0.949 . S
C712 C718 1.368 . S
C713 C697 1.349 . S
C713 H705 0.950 . S
C713 C711 1.327 . S
C714 C702 1.349 . S
C714 H708 0.950 . S
C714 C715 1.327 . S
C715 H709 0.950 . S
C715 C714 1.327 . S
C715 C719 1.429 . S
C716 C699 1.574 . S
C716 H710 0.949 . S
C716 C720 1.368 . S
C717 C698 1.429 . S
C717 C711 1.429 . S
C717 C718 1.523 . S
C718 C699 1.368 . S
C718 C712 1.368 . S
C718 C717 1.523 . S
C719 C703 1.429 . S
C719 C715 1.429 . S
C719 C720 1.523 . S
C720 C704 1.368 . S
C720 C716 1.368 . S
C720 C719 1.523 . S
H721 C696 0.950 . S
H722 C698 0.950 . S
H723 C699 0.949 . S
H724 C701 0.950 . S
H725 C703 0.950 . S
C726 C727 1.349 . S
C726 C728 1.327 . S
C726 H751 0.950 . S
C727 C726 1.349 . S
C727 C743 1.349 . S
C728 C726 1.327 . S
C728 C747 1.429 . S
C728 H752 0.950 . S
C729 C746 1.574 . S
C729 C748 1.368 1_455 S
C729 H753 0.949 . S
H730 C734 0.949 . S
C731 C732 1.349 . S
C731 C733 1.327 . S
C731 H754 0.950 . S
C732 C731 1.349 . S
C732 C744 1.349 . S
C733 C731 1.327 . S
C733 C749 1.429 . S
C733 H755 0.950 . S
C734 H730 0.949 . S
C734 C742 1.574 . S
C734 C750 1.368 1_655 S
H735 C743 0.950 . S
H736 C741 0.950 . S
H737 C742 0.949 . S
H738 C744 0.950 . S
H739 C745 0.950 . S
H740 C746 0.949 . S
C741 H736 0.950 . S
C741 C743 1.327 . S
C741 C747 1.429 . S
C742 C734 1.574 . S
C742 H737 0.949 . S
C742 C748 1.368 . S
C743 C727 1.349 . S
C743 H735 0.950 . S
C743 C741 1.327 . S
C744 C732 1.349 . S
C744 H738 0.950 . S
C744 C745 1.327 . S
C745 H739 0.950 . S
C745 C744 1.327 . S
C745 C749 1.429 . S
C746 C729 1.574 . S
C746 H740 0.949 . S
C746 C750 1.368 . S
C747 C728 1.429 . S
C747 C741 1.429 . S
C747 C748 1.523 . S
C748 C729 1.368 1_655 S
C748 C742 1.368 . S
C748 C747 1.523 . S
C749 C733 1.429 . S
C749 C745 1.429 . S
C749 C750 1.523 . S
C750 C734 1.368 1_455 S
C750 C746 1.368 . S
C750 C749 1.523 . S
H751 C726 0.950 . S
H752 C728 0.950 . S
H753 C729 0.949 . S
H754 C731 0.950 . S
H755 C733 0.950 . S
C756 C757 1.349 . S
C756 C758 1.327 . S
C756 H781 0.950 . S
C757 C756 1.349 . S
C757 C773 1.349 . S
C758 C756 1.327 . S
C758 C777 1.429 . S
C758 H782 0.950 . S
C759 C776 1.574 . S
C759 C778 1.368 . S
C759 H783 0.949 . S
H760 C764 0.949 . S
C761 C762 1.349 . S
C761 C763 1.327 . S
C761 H784 0.950 . S
C762 C761 1.349 . S
C762 C774 1.349 . S
C763 C761 1.327 . S
C763 C779 1.429 . S
C763 H785 0.950 . S
C764 H760 0.949 . S
C764 C772 1.574 . S
C764 C780 1.368 . S
H765 C773 0.950 . S
H766 C771 0.950 . S
H767 C772 0.949 . S
H768 C774 0.950 . S
H769 C775 0.950 . S
H770 C776 0.949 . S
C771 H766 0.950 . S
C771 C773 1.327 . S
C771 C777 1.429 . S
C772 C764 1.574 . S
C772 H767 0.949 . S
C772 C778 1.368 1_565 S
C773 C757 1.349 . S
C773 H765 0.950 . S
C773 C771 1.327 . S
C774 C762 1.349 . S
C774 H768 0.950 . S
C774 C775 1.327 . S
C775 H769 0.950 . S
C775 C774 1.327 . S
C775 C779 1.429 . S
C776 C759 1.574 . S
C776 H770 0.949 . S
C776 C780 1.368 1_545 S
C777 C758 1.429 . S
C777 C771 1.429 . S
C777 C778 1.523 . S
C778 C759 1.368 . S
C778 C772 1.368 1_545 S
C778 C777 1.523 . S
C779 C763 1.429 . S
C779 C775 1.429 . S
C779 C780 1.523 . S
C780 C764 1.368 . S
C780 C776 1.368 1_565 S
C780 C779 1.523 . S
H781 C756 0.950 . S
H782 C758 0.950 . S
H783 C759 0.949 . S
H784 C761 0.950 . S
H785 C763 0.950 . S
C786 C787 1.349 . S
C786 C788 1.327 . S
C786 H811 0.950 . S
C787 C786 1.349 . S
C787 C803 1.349 . S
C788 C786 1.327 . S
C788 C807 1.429 . S
C788 H812 0.950 . S
C789 C806 1.574 . S
C789 C808 1.368 . S
C789 H813 0.949 . S
H790 C794 0.949 . S
C791 C792 1.349 . S
C791 C793 1.327 . S
C791 H814 0.950 . S
C792 C791 1.349 . S
C792 C804 1.349 . S
C793 C791 1.327 . S
C793 C809 1.429 . S
C793 H815 0.950 . S
C794 H790 0.949 . S
C794 C802 1.574 . S
C794 C810 1.368 . S
H795 C803 0.950 . S
H796 C801 0.950 . S
H797 C802 0.949 . S
H798 C804 0.950 . S
H799 C805 0.950 . S
H800 C806 0.949 . S
C801 H796 0.950 . S
C801 C803 1.327 . S
C801 C807 1.429 . S
C802 C794 1.574 . S
C802 H797 0.949 . S
C802 C808 1.368 . S
C803 C787 1.349 . S
C803 H795 0.950 . S
C803 C801 1.327 . S
C804 C792 1.349 . S
C804 H798 0.950 . S
C804 C805 1.327 . S
C805 H799 0.950 . S
C805 C804 1.327 . S
C805 C809 1.429 . S
C806 C789 1.574 . S
C806 H800 0.949 . S
C806 C810 1.368 . S
C807 C788 1.429 . S
C807 C801 1.429 . S
C807 C808 1.523 . S
C808 C789 1.368 . S
C808 C802 1.368 . S
C808 C807 1.523 . S
C809 C793 1.429 . S
C809 C805 1.429 . S
C809 C810 1.523 . S
C810 C794 1.368 . S
C810 C806 1.368 . S
C810 C809 1.523 . S
H811 C786 0.950 . S
H812 C788 0.950 . S
H813 C789 0.949 . S
H814 C791 0.950 . S
H815 C793 0.950 . S
C816 C817 1.349 . S
C816 C818 1.327 . S
C816 H841 0.950 . S
C817 C816 1.349 . S
C817 C833 1.349 . S
C818 C816 1.327 . S
C818 C837 1.429 . S
C818 H842 0.950 . S
C819 C836 1.574 . S
C819 C838 1.368 1_655 S
C819 H843 0.949 . S
H820 C824 0.949 . S
C821 C822 1.349 . S
C821 C823 1.327 . S
C821 H844 0.950 . S
C822 C821 1.349 . S
C822 C834 1.349 . S
C823 C821 1.327 . S
C823 C839 1.429 . S
C823 H845 0.950 . S
C824 H820 0.949 . S
C824 C832 1.574 . S
C824 C840 1.368 1_455 S
H825 C833 0.950 . S
H826 C831 0.950 . S
H827 C832 0.949 . S
H828 C834 0.950 . S
H829 C835 0.950 . S
H830 C836 0.949 . S
C831 H826 0.950 . S
C831 C833 1.327 . S
C831 C837 1.429 . S
C832 C824 1.574 . S
C832 H827 0.949 . S
C832 C838 1.368 . S
C833 C817 1.349 . S
C833 H825 0.950 . S
C833 C831 1.327 . S
C834 C822 1.349 . S
C834 H828 0.950 . S
C834 C835 1.327 . S
C835 H829 0.950 . S
C835 C834 1.327 . S
C835 C839 1.429 . S
C836 C819 1.574 . S
C836 H830 0.949 . S
C836 C840 1.368 . S
C837 C818 1.429 . S
C837 C831 1.429 . S
C837 C838 1.523 . S
C838 C819 1.368 1_455 S
C838 C832 1.368 . S
C838 C837 1.523 . S
C839 C823 1.429 . S
C839 C835 1.429 . S
C839 C840 1.523 . S
C840 C824 1.368 1_655 S
C840 C836 1.368 . S
C840 C839 1.523 . S
H841 C816 0.950 . S
H842 C818 0.950 . S
H843 C819 0.949 . S
H844 C821 0.950 . S
H845 C823 0.950 . S
C846 C847 1.349 . S
C846 C848 1.327 . S
C846 H871 0.950 . S
C847 C846 1.349 . S
C847 C863 1.349 . S
C848 C846 1.327 . S
C848 C867 1.429 . S
C848 H872 0.950 . S
C849 C866 1.574 . S
C849 C868 1.368 1_545 S
C849 H873 0.949 . S
H850 C854 0.949 . S
C851 C852 1.349 . S
C851 C853 1.327 . S
C851 H874 0.950 . S
C852 C851 1.349 . S
C852 C864 1.349 . S
C853 C851 1.327 . S
C853 C869 1.429 . S
C853 H875 0.950 . S
C854 H850 0.949 . S
C854 C862 1.574 . S
C854 C870 1.368 1_565 S
H855 C863 0.950 . S
H856 C861 0.950 . S
H857 C862 0.949 . S
H858 C864 0.950 . S
H859 C865 0.950 . S
H860 C866 0.949 . S
C861 H856 0.950 . S
C861 C863 1.327 . S
C861 C867 1.429 . S
C862 C854 1.574 . S
C862 H857 0.949 . S
C862 C868 1.368 . S
C863 C847 1.349 . S
C863 H855 0.950 . S
C863 C861 1.327 . S
C864 C852 1.349 . S
C864 H858 0.950 . S
C864 C865 1.327 . S
C865 H859 0.950 . S
C865 C864 1.327 . S
C865 C869 1.429 . S
C866 C849 1.574 . S
C866 H860 0.949 . S
C866 C870 1.368 . S
C867 C848 1.429 . S
C867 C861 1.429 . S
C867 C868 1.523 . S
C868 C849 1.368 1_565 S
C868 C862 1.368 . S
C868 C867 1.523 . S
C869 C853 1.429 . S
C869 C865 1.429 . S
C869 C870 1.523 . S
C870 C854 1.368 1_545 S
C870 C866 1.368 . S
C870 C869 1.523 . S
H871 C846 0.950 . S
H872 C848 0.950 . S
H873 C849 0.949 . S
H874 C851 0.950 . S
H875 C853 0.950 . S
C157 C96 1.403 . S
C162 C5 1.403 . S
C187 C16 1.404 . S
C192 C109 1.404 . S
C217 C29 1.403 . S
C222 C122 1.403 . S
C247 C42 1.403 . S
C252 C133 1.403 . S
C277 C148 1.404 . S
C282 C55 1.404 . S
C307 C83 1.403 . S
C312 C68 1.403 . S
C337 C135 1.134 . S
C342 C3 1.134 . S
C367 C18 1.134 . S
C372 C146 1.134 . S
C397 C31 1.134 . S
C402 C81 1.134 . S
C427 C94 1.134 . S
C432 C44 1.134 . S
C457 C107 1.134 . S
C462 C57 1.134 . S
C487 C120 1.134 . S
C492 C70 1.134 . S
C517 C10 1.693 . S
C522 C114 1.693 . S
C547 C17 1.693 . S
C552 C127 1.693 . S
C577 C134 1.693 . S
C582 C30 1.693 . S
C607 C43 1.693 . S
C612 C153 1.693 . S
C637 C88 1.693 . S
C642 C56 1.693 . S
C667 C101 1.693 . S
C672 C69 1.693 . S
C697 C49 1.632 . S
C702 C4 1.632 . S
C727 C62 1.631 . S
C732 C23 1.631 . S
C757 C36 1.631 . S
C762 C75 1.631 . S
C787 C82 1.632 . S
C792 C121 1.632 . S
C817 C95 1.631 . S
C822 C140 1.631 . S
C847 C147 1.631 . S
C852 C108 1.631 . S
