# Generated by pormake.
# Topology una, (4)-cn, num edge types: 1
# Building blocks:
#     Node 0, Type 0, BuildingBlock: TATPOV_clean_sbu_0, # of connection points: 4
#     Node 1, Type 0, BuildingBlock: TATPOV_clean_sbu_0, # of connection points: 4
#     Node 2, Type 0, BuildingBlock: TATPOV_clean_sbu_0, # of connection points: 4
#     Node 3, Type 0, BuildingBlock: TATPOV_clean_sbu_0, # of connection points: 4
#     Node 4, Type 0, BuildingBlock: TATPOV_clean_sbu_0, # of connection points: 4
#     Node 5, Type 0, BuildingBlock: TATPOV_clean_sbu_0, # of connection points: 4
#     Node 6, Type 0, BuildingBlock: TATPOV_clean_sbu_0, # of connection points: 4
#     Node 7, Type 0, BuildingBlock: TATPOV_clean_sbu_0, # of connection points: 4
#     Node 8, Type 0, BuildingBlock: TATPOV_clean_sbu_0, # of connection points: 4
#     Node 9, Type 0, BuildingBlock: TATPOV_clean_sbu_0, # of connection points: 4
#     Node 10, Type 0, BuildingBlock: TATPOV_clean_sbu_0, # of connection points: 4
#     Node 11, Type 0, BuildingBlock: TATPOV_clean_sbu_0, # of connection points: 4
#     Edge 12, Type (0, 0), BuildingBlock: CIFDUS_clean_linker_0, # of connection points: 2
#     Edge 13, Type (0, 0), BuildingBlock: CIFDUS_clean_linker_0, # of connection points: 2
#     Edge 14, Type (0, 0), BuildingBlock: CIFDUS_clean_linker_0, # of connection points: 2
#     Edge 15, Type (0, 0), BuildingBlock: CIFDUS_clean_linker_0, # of connection points: 2
#     Edge 16, Type (0, 0), BuildingBlock: CIFDUS_clean_linker_0, # of connection points: 2
#     Edge 17, Type (0, 0), BuildingBlock: CIFDUS_clean_linker_0, # of connection points: 2
#     Edge 18, Type (0, 0), BuildingBlock: CIFDUS_clean_linker_0, # of connection points: 2
#     Edge 19, Type (0, 0), BuildingBlock: CIFDUS_clean_linker_0, # of connection points: 2
#     Edge 20, Type (0, 0), BuildingBlock: CIFDUS_clean_linker_0, # of connection points: 2
#     Edge 21, Type (0, 0), BuildingBlock: CIFDUS_clean_linker_0, # of connection points: 2
#     Edge 22, Type (0, 0), BuildingBlock: CIFDUS_clean_linker_0, # of connection points: 2
#     Edge 23, Type (0, 0), BuildingBlock: CIFDUS_clean_linker_0, # of connection points: 2
#     Edge 24, Type (0, 0), BuildingBlock: CIFDUS_clean_linker_0, # of connection points: 2
#     Edge 25, Type (0, 0), BuildingBlock: CIFDUS_clean_linker_0, # of connection points: 2
#     Edge 26, Type (0, 0), BuildingBlock: CIFDUS_clean_linker_0, # of connection points: 2
#     Edge 27, Type (0, 0), BuildingBlock: CIFDUS_clean_linker_0, # of connection points: 2
#     Edge 28, Type (0, 0), BuildingBlock: CIFDUS_clean_linker_0, # of connection points: 2
#     Edge 29, Type (0, 0), BuildingBlock: CIFDUS_clean_linker_0, # of connection points: 2
#     Edge 30, Type (0, 0), BuildingBlock: CIFDUS_clean_linker_0, # of connection points: 2
#     Edge 31, Type (0, 0), BuildingBlock: CIFDUS_clean_linker_0, # of connection points: 2
#     Edge 32, Type (0, 0), BuildingBlock: CIFDUS_clean_linker_0, # of connection points: 2
#     Edge 33, Type (0, 0), BuildingBlock: CIFDUS_clean_linker_0, # of connection points: 2
#     Edge 34, Type (0, 0), BuildingBlock: CIFDUS_clean_linker_0, # of connection points: 2
#     Edge 35, Type (0, 0), BuildingBlock: CIFDUS_clean_linker_0, # of connection points: 2
# Relax obj value: 0.134
# Max RMSD: 0.160
# Mean RMSD: 0.160
data_MOF--net-una--node1-TATPOV_clean_sbu_0--edge1-CIFDUS_clean_linker_0
_symmetry_space_group_name_H-M    P1
_symmetry_Int_Tables_number       1
_symmetry_cell_setting            triclinic
loop_
_symmetry_equiv_pos_as_xyz
'x, y, z'
_cell_length_a     52.181846
_cell_length_b     51.845828
_cell_length_c     18.513167
_cell_angle_alpha  90.454263
_cell_angle_beta   89.953638
_cell_angle_gamma 120.35895
loop_
_atom_site_label
_atom_site_type_symbol
_atom_site_fract_x
_atom_site_fract_y
_atom_site_fract_z
_atom_type_partial_charge
Zn0 Zn 0.17654 0.46415 0.05723 0.0
Zn1 Zn 0.13063 0.43267 -0.0168 0.0
O2 O 0.16136 0.44305 0.90346 0.0
O3 O 0.19987 0.45875 -0.02374 0.0
O4 O 0.09079 0.40578 0.9354 0.0
O5 O 0.17228 0.50009 0.05611 0.0
O6 O 0.1275 0.47011 0.01281 0.0
C7 C 0.18863 0.45138 0.91352 0.0
C8 C 0.14858 0.41016 0.11857 0.0
O9 O 0.13652 0.40561 0.05638 0.0
O10 O 0.16346 0.43663 0.14237 0.0
C11 C 0.07649 0.37737 0.93806 0.0
O12 O 0.08802 0.36361 0.97275 0.0
C13 C 0.14725 0.49578 0.03629 0.0
Zn14 Zn 0.68833 0.16687 0.305 0.0
Zn15 Zn 0.69233 0.12847 0.21979 0.0
O16 O 0.71528 0.16574 0.15937 0.0
O17 O 0.70944 0.19787 0.22619 0.0
O18 O 0.68838 0.09401 0.1588 0.0
O19 O 0.6443 0.14478 0.31308 0.0
O20 O 0.64758 0.1161 0.22993 0.0
C21 C 0.71983 0.192 0.17055 0.0
C22 C 0.72538 0.14745 0.36561 0.0
O23 O 0.71996 0.13315 0.30599 0.0
O24 O 0.7129 0.16233 0.38029 0.0
C25 C 0.68947 0.07217 0.18624 0.0
O26 O 0.69571 0.07307 0.25527 0.0
C27 C 0.63189 0.12336 0.26854 0.0
Zn28 Zn 0.51334 0.69846 0.43356 0.0
Zn29 Zn 0.5597 0.69678 0.37738 0.0
O30 O 0.55471 0.72499 0.30993 0.0
O31 O 0.51516 0.72492 0.35183 0.0
O32 O 0.59079 0.69113 0.32631 0.0
O33 O 0.48676 0.65411 0.42877 0.0
O34 O 0.52425 0.65288 0.3775 0.0
C35 C 0.53612 0.73401 0.30655 0.0
C36 C 0.56524 0.72498 0.52569 0.0
O37 O 0.57763 0.7184 0.47512 0.0
O38 O 0.53832 0.71803 0.52084 0.0
C39 C 0.6154 0.69547 0.35097 0.0
O40 O 0.62345 0.70581 0.41711 0.0
C41 C 0.49752 0.63951 0.39996 0.0
Zn42 Zn 0.80161 0.53163 0.57684 0.0
Zn43 Zn 0.85569 0.56098 0.53103 0.0
O44 O 0.83099 0.55801 0.44107 0.0
O45 O 0.78593 0.53874 0.48586 0.0
O46 O 0.89834 0.58234 0.49621 0.0
O47 O 0.80239 0.49398 0.58718 0.0
O48 O 0.84989 0.5195 0.56035 0.0
C49 C 0.80362 0.54977 0.4334 0.0
C50 C 0.83427 0.58478 0.65623 0.0
O51 O 0.85414 0.58949 0.60953 0.0
O52 O 0.81028 0.55996 0.65788 0.0
C53 C 0.90701 0.59655 0.43709 0.0
O54 O 0.88785 0.5992 0.39647 0.0
C55 C 0.82683 0.49494 0.57764 0.0
Zn56 Zn 0.28048 0.81895 0.72286 0.0
Zn57 Zn 0.29747 0.8717 0.67896 0.0
O58 O 0.27573 0.84564 0.59012 0.0
O59 O 0.25396 0.80059 0.63702 0.0
O60 O 0.31179 0.91347 0.64354 0.0
O61 O 0.32133 0.82523 0.71979 0.0
O62 O 0.33736 0.87287 0.70143 0.0
C63 C 0.25789 0.81756 0.58434 0.0
C64 C 0.25724 0.84574 0.81143 0.0
O65 O 0.26756 0.86516 0.76148 0.0
O66 O 0.26299 0.82481 0.81231 0.0
C67 C 0.33019 0.93604 0.68063 0.0
O68 O 0.3386 0.93175 0.74412 0.0
C69 C 0.34258 0.85167 0.71193 0.0
Zn70 Zn 0.47302 0.29692 0.89601 0.0
Zn71 Zn 0.43751 0.30566 0.82051 0.0
O72 O 0.44945 0.28648 0.74087 0.0
O73 O 0.47137 0.26986 0.81324 0.0
O74 O 0.40816 0.31542 0.77597 0.0
O75 O 0.50546 0.33955 0.89784 0.0
O76 O 0.47272 0.34825 0.84607 0.0
C77 C 0.46171 0.27089 0.75111 0.0
C78 C 0.41853 0.26545 0.9568 0.0
O79 O 0.4128 0.27226 0.89526 0.0
O80 O 0.44504 0.27871 -0.02062 0.0
C81 C 0.39924 0.32931 0.81611 0.0
O82 O 0.4083 0.33483 0.88365 0.0
C83 C 0.49839 0.35779 0.87349 0.0
Zn84 Zn 0.51126 0.82418 0.85409 0.0
Zn85 Zn 0.55302 0.87526 0.87535 0.0
O86 O 0.54521 0.85278 0.9725 0.0
O87 O 0.49984 0.81503 0.95765 0.0
O88 O 0.58431 0.91768 0.90194 0.0
O89 O 0.48836 0.8362 0.79094 0.0
O90 O 0.51825 0.88069 0.83684 0.0
C91 C 0.52205 0.83033 -0.00197 0.0
C92 C 0.56429 0.83268 0.78937 0.0
O93 O 0.57262 0.86012 0.8011 0.0
O94 O 0.53937 0.81246 0.81239 0.0
C95 C 0.60435 0.92353 0.94893 0.0
O96 O 0.60612 0.90141 -0.02226 0.0
C97 C 0.49502 0.86305 0.80048 0.0
Zn98 Zn 0.6999 0.54031 0.94474 0.0
Zn99 Zn 0.68465 0.57853 -0.00722 0.0
O100 O 0.702 0.56935 0.08196 0.0
O101 O 0.71479 0.53732 0.04177 0.0
O102 O 0.67058 0.60558 0.03372 0.0
O103 O 0.65889 0.51125 0.91151 0.0
O104 O 0.64499 0.54173 0.95608 0.0
C105 C 0.7134 0.55302 0.09254 0.0
C106 C 0.73374 0.59737 0.87959 0.0
O107 O 0.71808 0.60455 0.91862 0.0
O108 O 0.72923 0.57103 0.87988 0.0
C109 C 0.6836 0.62343 0.08641 0.0
O110 O 0.7082 0.62599 0.11242 0.0
C111 C 0.63861 0.51711 0.92498 0.0
Zn112 Zn 0.16762 0.70107 0.10546 0.0
Zn113 Zn 0.11362 0.6839 0.1447 0.0
O114 O 0.13819 0.70335 0.23713 0.0
O115 O 0.18399 0.71838 0.2024 0.0
O116 O 0.07172 0.67009 0.17761 0.0
O117 O 0.15774 0.66004 0.07789 0.0
O118 O 0.11181 0.64412 0.11208 0.0
C119 C 0.16595 0.71658 0.25045 0.0
C120 C 0.14516 0.73244 0.02979 0.0
O121 O 0.12205 0.71666 0.06778 0.0
O122 O 0.1673 0.72885 0.03392 0.0
C123 C 0.06302 0.65726 0.23834 0.0
O124 O 0.08134 0.65267 0.27737 0.0
C125 C 0.13147 0.63877 0.08683 0.0
Zn126 Zn 0.46897 0.16767 0.2462 0.0
Zn127 Zn 0.42866 0.12499 0.32705 0.0
O128 O 0.44503 0.15837 0.40121 0.0
O129 O 0.47551 0.19588 0.33207 0.0
O130 O 0.39787 0.08851 0.38028 0.0
O131 O 0.49346 0.1481 0.23354 0.0
O132 O 0.45982 0.11267 0.30192 0.0
C133 C 0.46309 0.18613 0.39269 0.0
C134 C 0.41235 0.14909 0.1921 0.0
O135 O 0.40534 0.13492 0.2516 0.0
O136 O 0.43903 0.16223 0.17113 0.0
C137 C 0.40447 0.08375 0.44301 0.0
O138 O 0.43021 0.10334 0.47144 0.0
C139 C 0.48385 0.12355 0.26589 0.0
Zn140 Zn 0.29359 0.46219 0.40058 0.0
Zn141 Zn 0.30128 0.42495 0.47763 0.0
O142 O 0.28337 0.43859 0.55564 0.0
O143 O 0.27195 0.46632 0.48864 0.0
O144 O 0.31093 0.3959 0.52559 0.0
O145 O 0.33661 0.49073 0.38378 0.0
O146 O 0.34344 0.45945 0.44905 0.0
C147 C 0.27133 0.45453 0.54893 0.0
C148 C 0.25803 0.40489 0.34645 0.0
O149 O 0.26697 0.39914 0.40498 0.0
O150 O 0.26974 0.43158 0.32531 0.0
C151 C 0.32022 0.40039 0.59055 0.0
O152 O 0.32209 0.42323 0.62652 0.0
C153 C 0.35397 0.4836 0.41313 0.0
Zn154 Zn 0.80797 0.29673 0.71654 0.0
Zn155 Zn 0.86001 0.30992 0.72169 0.0
O156 O 0.84297 0.29609 0.82469 0.0
O157 O 0.80256 0.29912 0.82216 0.0
O158 O 0.90381 0.32584 0.73579 0.0
O159 O 0.81301 0.32968 0.65402 0.0
O160 O 0.85988 0.34772 0.68172 0.0
C161 C 0.8206 0.29445 0.85704 0.0
C162 C 0.81702 0.25212 0.65013 0.0
O163 O 0.84433 0.27248 0.65413 0.0
O164 O 0.7973 0.25673 0.67636 0.0
C165 C 0.91412 0.31201 0.77055 0.0
O166 O 0.89569 0.28515 0.79513 0.0
C167 C 0.83945 0.35125 0.65407 0.0
H168 H 0.142 0.38965 0.2563 0.0
H169 H 0.17518 0.38507 0.04636 0.0
H170 H 0.21105 0.37424 0.10148 0.0
H171 H 0.24214 0.38276 0.20984 0.0
H172 H 0.20712 0.38384 0.41972 0.0
H173 H 0.16212 0.37812 0.36457 0.0
C174 C 0.15584 0.38443 0.22263 0.0
C175 C 0.15645 0.38873 0.14773 0.0
C176 C 0.1765 0.3782 0.25481 0.0
C177 C 0.17437 0.38189 0.1043 0.0
C178 C 0.19525 0.37614 0.13588 0.0
C179 C 0.22379 0.37972 0.24349 0.0
C180 C 0.22806 0.3843 0.31839 0.0
C181 C 0.19798 0.3766 0.21125 0.0
C182 C 0.20425 0.38036 0.36178 0.0
C183 C 0.17869 0.37764 0.33017 0.0
H184 H 0.83396 0.2405 0.51946 0.0
H185 H 0.77613 0.1986 0.70087 0.0
H186 H 0.74483 0.15431 0.62816 0.0
H187 H 0.72637 0.13555 0.50635 0.0
H188 H 0.78257 0.1774 0.32309 0.0
H189 H 0.82241 0.21288 0.40261 0.0
C190 C 0.81533 0.22107 0.54366 0.0
C191 C 0.80679 0.22298 0.61455 0.0
C192 C 0.79679 0.19582 0.50066 0.0
C193 C 0.78269 0.19773 0.64574 0.0
C194 C 0.76468 0.17243 0.60414 0.0
C195 C 0.74802 0.15124 0.48444 0.0
C196 C 0.75151 0.15426 0.40943 0.0
C197 C 0.7703 0.17224 0.53034 0.0
C198 C 0.7795 0.17467 0.38101 0.0
C199 C 0.8021 0.1954 0.42646 0.0
H200 H 0.59736 0.78465 0.52209 0.0
H201 H 0.56738 0.70937 0.66354 0.0
H202 H 0.57191 0.7408 0.76738 0.0
H203 H 0.57044 0.78491 0.80934 0.0
H204 H 0.59511 0.85876 0.66574 0.0
H205 H 0.60728 0.83323 0.57149 0.0
C206 C 0.59354 0.77569 0.57635 0.0
C207 C 0.58224 0.7449 0.58572 0.0
C208 C 0.59429 0.79351 0.63485 0.0
C209 C 0.57653 0.73312 0.65559 0.0
C210 C 0.5786 0.751 0.71467 0.0
C211 C 0.57951 0.79583 0.75819 0.0
C212 C 0.58131 0.82328 0.74358 0.0
C213 C 0.58531 0.78053 0.70385 0.0
C214 C 0.59343 0.83755 0.67786 0.0
C215 C 0.60009 0.82279 0.62382 0.0
H216 H 0.80892 0.61663 0.62404 0.0
H217 H 0.85878 0.60344 0.78981 0.0
H218 H 0.83609 0.61951 0.88196 0.0
H219 H 0.79035 0.61889 0.91482 0.0
H220 H 0.73393 0.62121 0.7489 0.0
H221 H 0.77101 0.6292 0.65742 0.0
C222 C 0.81606 0.6191 0.67999 0.0
C223 C 0.83531 0.60885 0.7006 0.0
C224 C 0.80086 0.62569 0.7328 0.0
C225 C 0.8442 0.61149 0.77296 0.0
C226 C 0.83075 0.62015 0.82567 0.0
C227 C 0.78713 0.62304 0.85909 0.0
C228 C 0.7595 0.61921 0.83811 0.0
C229 C 0.80727 0.6247 0.80653 0.0
C230 C 0.75513 0.62424 0.76611 0.0
C231 C 0.77612 0.62816 0.71368 0.0
H232 H 0.19985 0.81434 0.77872 0.0
H233 H 0.26077 0.86576 0.94936 0.0
H234 H 0.2224 0.83794 0.03941 0.0
H235 H 0.1791 0.7894 0.06756 0.0
H236 H 0.12311 0.73223 0.89616 0.0
H237 H 0.15083 0.77181 0.80833 0.0
C238 C 0.204 0.82051 0.8355 0.0
C239 C 0.23286 0.84199 0.85788 0.0
C240 C 0.18268 0.80258 0.88675 0.0
C241 C 0.23856 0.84954 0.93125 0.0
C242 C 0.21673 0.83324 -0.01736 0.0
C243 C 0.17202 0.78638 0.01146 0.0
C244 C 0.1493 0.75814 -0.01215 0.0
C245 C 0.18969 0.80823 0.96104 0.0
C246 C 0.14037 0.75395 0.91531 0.0
C247 C 0.15661 0.77643 0.86506 0.0
H248 H 0.39296 0.14393 0.05352 0.0
H249 H 0.39275 0.18127 0.26192 0.0
H250 H 0.38786 0.22079 0.2048 0.0
H251 H 0.39904 0.25188 0.09547 0.0
H252 H 0.39567 0.21282 0.88698 0.0
H253 H 0.38558 0.16635 0.9438 0.0
C254 C 0.38996 0.15964 0.08634 0.0
C255 C 0.39364 0.16004 0.16153 0.0
C256 C 0.38723 0.18241 0.05298 0.0
C257 C 0.38985 0.1805 0.20382 0.0
C258 C 0.38757 0.20345 0.17109 0.0
C259 C 0.39436 0.23258 0.0625 0.0
C260 C 0.39851 0.2358 -0.01253 0.0
C261 C 0.38848 0.20581 0.09564 0.0
C262 C 0.39247 0.21076 0.94497 0.0
C263 C 0.38713 0.18428 -0.02249 0.0
H264 H 0.1028 0.50462 0.08906 0.0
H265 H 0.18444 0.54597 0.96786 0.0
H266 H 0.18427 0.59276 0.96458 0.0
H267 H 0.16427 0.62325 0.00586 0.0
H268 H 0.08474 0.58507 0.13477 0.0
H269 H 0.08029 0.53565 0.12431 0.0
C270 C 0.12017 0.52383 0.06114 0.0
C271 C 0.14373 0.52208 0.0291 0.0
C272 C 0.12041 0.55121 0.06124 0.0
C273 C 0.16628 0.54702 -0.00663 0.0
C274 C 0.16619 0.57375 -0.00857 0.0
C275 C 0.14573 0.60412 0.03128 0.0
C276 C 0.12511 0.60794 0.07186 0.0
C277 C 0.14388 0.57631 0.0268 0.0
C278 C 0.10098 0.58276 0.10329 0.0
C279 C 0.09856 0.55455 0.09772 0.0
H280 H 0.5868 0.10467 0.36417 0.0
H281 H 0.6068 0.11717 0.13694 0.0
H282 H 0.55922 0.11407 0.11292 0.0
H283 H 0.51693 0.11775 0.16079 0.0
H284 H 0.49558 0.10242 0.38709 0.0
H285 H 0.53832 0.09601 0.40734 0.0
C286 C 0.58015 0.10556 0.30916 0.0
C287 C 0.60021 0.11142 0.25244 0.0
C288 C 0.55276 0.1037 0.29585 0.0
C289 C 0.59154 0.1125 0.1813 0.0
C290 C 0.5645 0.11108 0.16769 0.0
C291 C 0.52115 0.11202 0.21397 0.0
C292 C 0.50352 0.11097 0.27258 0.0
C293 C 0.54564 0.10817 0.22507 0.0
C294 C 0.50889 0.10329 0.3412 0.0
C295 C 0.53348 0.0999 0.35292 0.0
H296 H 0.38689 0.52004 0.30492 0.0
H297 H 0.39228 0.4976 0.52586 0.0
H298 H 0.4407 0.54323 0.53944 0.0
H299 H 0.47683 0.59363 0.4941 0.0
H300 H 0.47197 0.61509 0.27218 0.0
H301 H 0.42823 0.56559 0.2526 0.0
C302 C 0.39914 0.52476 0.3553 0.0
C303 C 0.38601 0.50581 0.41457 0.0
C304 C 0.42686 0.551 0.36262 0.0
C305 C 0.40205 0.51188 0.47947 0.0
C306 C 0.42959 0.53811 0.48744 0.0
C307 C 0.46672 0.58692 0.44096 0.0
C308 C 0.47736 0.60766 0.38449 0.0
C309 C 0.44157 0.55845 0.43031 0.0
C310 C 0.46414 0.59917 0.31597 0.0
C311 C 0.43903 0.57102 0.30502 0.0
H312 H 0.87299 0.48589 0.61353 0.0
H313 H 0.78104 0.44025 0.54634 0.0
H314 H 0.77848 0.39236 0.55474 0.0
H315 H 0.80041 0.36307 0.58957 0.0
H316 H 0.89092 0.40626 0.66634 0.0
H317 H 0.89623 0.45538 0.6442 0.0
C318 C 0.85255 0.46542 0.60036 0.0
C319 C 0.82713 0.46661 0.58035 0.0
C320 C 0.85094 0.43752 0.60687 0.0
C321 C 0.80076 0.43995 0.56318 0.0
C322 C 0.79928 0.4125 0.56756 0.0
C323 C 0.82149 0.38315 0.60096 0.0
C324 C 0.84512 0.38093 0.63025 0.0
C325 C 0.82397 0.41099 0.59069 0.0
C326 C 0.87232 0.4073 0.64381 0.0
C327 C 0.87528 0.43539 0.63165 0.0
H328 H 0.39316 0.89403 0.78166 0.0
H329 H 0.35928 0.81924 0.63341 0.0
H330 H 0.40619 0.81987 0.63819 0.0
H331 H 0.45358 0.83661 0.69677 0.0
H332 H 0.48754 0.90876 0.85249 0.0
H333 H 0.44443 0.91481 0.83149 0.0
C334 C 0.39646 0.8784 0.74945 0.0
C335 C 0.37285 0.85642 0.7078 0.0
C336 C 0.42339 0.87825 0.75427 0.0
C337 C 0.37713 0.83611 0.66643 0.0
C338 C 0.40391 0.83644 0.66911 0.0
C339 C 0.45186 0.85404 0.72531 0.0
C340 C 0.47345 0.87187 0.77688 0.0
C341 C 0.42672 0.85664 0.7148 0.0
C342 C 0.47115 0.89467 0.81255 0.0
C343 C 0.44636 0.89794 0.80102 0.0
H344 H 0.50834 0.4081 0.94728 0.0
H345 H 0.54199 0.37617 0.7773 0.0
H346 H 0.58706 0.42504 0.77017 0.0
H347 H 0.61951 0.47408 0.82314 0.0
H348 H 0.58817 0.50671 -0.0032 0.0
H349 H 0.53939 0.46083 -0.00929 0.0
C350 C 0.52533 0.41228 0.90773 0.0
C351 C 0.52215 0.38883 0.86285 0.0
C352 C 0.55161 0.44042 0.90503 0.0
C353 C 0.5442 0.39409 0.81217 0.0
C354 C 0.56995 0.42193 0.80825 0.0
C355 C 0.60182 0.47142 0.85877 0.0
C356 C 0.6075 0.49349 0.91095 0.0
C357 C 0.57431 0.44488 0.85603 0.0
C358 C 0.5843 0.48998 0.9561 0.0
C359 C 0.5565 0.46363 0.95307 0.0
H360 H 0.27782 0.44701 0.69118 0.0
H361 H 0.22738 0.46829 0.54342 0.0
H362 H 0.19685 0.46872 0.64302 0.0
H363 H 0.18344 0.4614 0.77193 0.0
H364 H 0.23581 0.44296 0.92014 0.0
H365 H 0.26654 0.44293 0.82062 0.0
C366 C 0.26024 0.45191 0.68089 0.0
C367 C 0.25476 0.45746 0.61008 0.0
C368 C 0.243 0.45242 0.73843 0.0
C369 C 0.23213 0.46407 0.59756 0.0
C370 C 0.21455 0.46415 0.65441 0.0
C371 C 0.20158 0.45736 0.7822 0.0
C372 C 0.20725 0.45196 0.85294 0.0
C373 C 0.21958 0.45804 0.72495 0.0
C374 C 0.23107 0.4472 0.866 0.0
C375 C 0.24861 0.44714 0.80917 0.0
H376 H 0.76915 0.2003 0.10264 0.0
H377 H 0.71268 0.23812 0.12881 0.0
H378 H 0.74243 0.27697 0.04099 0.0
H379 H 0.78126 0.2967 0.94846 0.0
H380 H 0.83849 0.25953 0.92428 0.0
H381 H 0.81243 0.2246 0.02204 0.0
C382 C 0.76347 0.21713 0.08903 0.0
C383 C 0.73846 0.21609 0.12034 0.0
C384 C 0.78101 0.23966 0.03987 0.0
C385 C 0.73168 0.2384 0.10435 0.0
C386 C 0.74871 0.26059 0.05446 0.0
C387 C 0.78849 0.28144 0.96579 0.0
C388 C 0.81144 0.28037 0.92853 0.0
C389 C 0.77304 0.26104 0.02087 0.0
C390 C 0.82088 0.2608 0.95209 0.0
C391 C 0.80572 0.24054 0.00733 0.0
H392 H 0.49604 0.75039 0.26986 0.0
H393 H 0.58385 0.76688 0.21933 0.0
H394 H 0.58909 0.80252 0.12683 0.0
H395 H 0.56715 0.82585 0.05381 0.0
H396 H 0.4777 0.8056 0.09669 0.0
H397 H 0.47493 0.77526 0.20032 0.0
C398 C 0.5164 0.7619 0.23892 0.0
C399 C 0.5394 0.75579 0.25106 0.0
C400 C 0.51907 0.78195 0.18506 0.0
C401 C 0.56564 0.7709 0.21047 0.0
C402 C 0.56874 0.79142 0.15785 0.0
C403 C 0.54742 0.81546 0.08727 0.0
C404 C 0.52279 0.81813 0.06872 0.0
C405 C 0.54544 0.7968 0.14402 0.0
C406 C 0.49698 0.80398 0.11084 0.0
C407 C 0.49532 0.78645 0.16947 0.0
H408 H 0.75655 0.55687 0.41135 0.0
H409 H 0.8246 0.5486 0.29918 0.0
H410 H 0.80205 0.54838 0.18306 0.0
H411 H 0.76196 0.54865 0.11449 0.0
H412 H 0.6959 0.56034 0.22613 0.0
H413 H 0.7187 0.56101 0.34236 0.0
C414 C 0.76647 0.55511 0.36139 0.0
C415 C 0.79192 0.55238 0.3634 0.0
C416 C 0.75366 0.5554 0.29529 0.0
C417 C 0.80497 0.55069 0.29862 0.0
C418 C 0.79202 0.55041 0.23245 0.0
C419 C 0.75252 0.5512 0.16441 0.0
C420 C 0.72706 0.55389 0.16243 0.0
C421 C 0.76616 0.55236 0.23033 0.0
C422 C 0.71539 0.558 0.22688 0.0
C423 C 0.7284 0.5584 0.29304 0.0
H424 H 0.21563 0.76953 0.26907 0.0
H425 H 0.14224 0.6991 0.38511 0.0
H426 H 0.16397 0.72506 0.4999 0.0
H427 H 0.20512 0.76669 0.5664 0.0
H428 H 0.27674 0.8385 0.44877 0.0
H429 H 0.25415 0.81322 0.33448 0.0
C430 C 0.20446 0.75989 0.31964 0.0
C431 C 0.17779 0.73228 0.31943 0.0
C432 C 0.21666 0.77521 0.38452 0.0
C433 C 0.16296 0.72027 0.38458 0.0
C434 C 0.17536 0.73506 0.44989 0.0
C435 C 0.21563 0.77685 0.51563 0.0
C436 C 0.24267 0.80418 0.51563 0.0
C437 C 0.20237 0.76237 0.45042 0.0
C438 C 0.2559 0.81747 0.44981 0.0
C439 C 0.24311 0.80296 0.38465 0.0
H440 H 0.47064 0.2844 0.60841 0.0
H441 H 0.45677 0.21656 0.76237 0.0
H442 H 0.4571 0.18462 0.66512 0.0
H443 H 0.45916 0.1751 0.53592 0.0
H444 H 0.47635 0.24399 0.38201 0.0
H445 H 0.47737 0.27663 0.47956 0.0
C446 C 0.46778 0.26265 0.62038 0.0
C447 C 0.4634 0.25264 0.69203 0.0
C448 C 0.46872 0.2447 0.56438 0.0
C449 C 0.46019 0.22467 0.70742 0.0
C450 C 0.46032 0.2064 0.65193 0.0
C451 C 0.46341 0.19738 0.52393 0.0
C452 C 0.46747 0.2071 0.45208 0.0
C453 C 0.4643 0.21607 0.58019 0.0
C454 C 0.47329 0.2361 0.43711 0.0
C455 C 0.47367 0.25467 0.49274 0.0
H456 H 0.04892 0.39801 0.85096 0.0
H457 H 0.03622 0.31785 0.9532 0.0
H458 H 0.98536 0.29012 0.90724 0.0
H459 H 0.94361 0.28927 0.84338 0.0
H460 H 0.95666 0.36953 0.74073 0.0
H461 H 0.00825 0.39641 0.78108 0.0
C462 C 0.0351 0.37444 0.86296 0.0
C463 C 0.04634 0.36013 0.90602 0.0
C464 C 0.00586 0.3586 0.83638 0.0
C465 C 0.02816 0.32949 0.92038 0.0
C466 C -0.00098 0.31359 0.89421 0.0
C467 C 0.95779 0.31257 0.82933 0.0
C468 C 0.94613 0.32735 0.78951 0.0
C469 C 0.9875 0.32801 0.85294 0.0
C470 C 0.96493 0.35754 0.77147 0.0
C471 C -0.00553 0.37301 0.79469 0.0
H472 H 0.64172 0.94183 0.06476 0.0
H473 H 0.60826 0.97475 0.89767 0.0
H474 H 0.63416 0.02455 0.95268 0.0
H475 H 0.66266 0.05761 0.05393 0.0
H476 H 0.69421 0.02395 0.22372 0.0
H477 H 0.67295 0.97575 0.16154 0.0
C478 C 0.64037 0.95996 0.03977 0.0
C479 C 0.62285 0.95444 -0.02257 0.0
C480 C 0.65486 0.98843 0.07245 0.0
C481 C 0.62141 0.97827 0.94589 0.0
C482 C 0.63619 0.00678 -0.02261 0.0
C483 C 0.66527 0.03988 0.07686 0.0
C484 C 0.67986 0.04438 0.14372 0.0
C485 C 0.65244 0.01196 0.04155 0.0
C486 C 0.68294 0.02109 0.17262 0.0
C487 C 0.67074 0.99346 0.13714 0.0
H488 H 0.70088 0.65588 0.21165 0.0
H489 H 0.63423 0.62486 0.04358 0.0
H490 H 0.60832 0.64595 0.10879 0.0
H491 H 0.60292 0.67051 0.21648 0.0
H492 H 0.66869 0.70044 0.38643 0.0
H493 H 0.69665 0.68259 0.31719 0.0
C494 C 0.68085 0.65398 0.18885 0.0
C495 C 0.66948 0.63865 0.12287 0.0
C496 C 0.66579 0.66582 0.22716 0.0
C497 C 0.64345 0.63641 0.09433 0.0
C498 C 0.62857 0.64843 0.13166 0.0
C499 C 0.62348 0.67335 0.23833 0.0
C500 C 0.63355 0.68666 0.30689 0.0
C501 C 0.63927 0.66275 0.19862 0.0
C502 C 0.66031 0.69019 0.33401 0.0
C503 C 0.67632 0.67996 0.29444 0.0
H504 H 0.03974 0.63335 0.36907 0.0
H505 H 0.01849 0.6605 0.1687 0.0
H506 H 0.96876 0.64505 0.21345 0.0
H507 H 0.93103 0.62303 0.3086 0.0
H508 H 0.95239 0.59574 0.50868 0.0
H509 H 0.00242 0.61226 0.46491 0.0
C510 C 0.02427 0.6359 0.33507 0.0
C511 C 0.03286 0.64798 0.26548 0.0
C512 C -0.00428 0.62702 0.36115 0.0
C513 C 0.01249 0.65123 0.22242 0.0
C514 C 0.98403 0.64241 0.24799 0.0
C515 C 0.94665 0.62083 0.34286 0.0
C516 C 0.93787 0.6081 0.41184 0.0
C517 C 0.97538 0.6302 0.31719 0.0
C518 C 0.95847 0.60541 0.45535 0.0
C519 C 0.9871 0.61481 0.43032 0.0
H520 H 0.41025 0.06944 0.5804 0.0
H521 H 0.35483 0.03413 0.39053 0.0
H522 H 0.32572 0.98571 0.44914 0.0
H523 H 0.31822 0.9525 0.55112 0.0
H524 H 0.37395 0.98806 0.74054 0.0
H525 H 0.40054 0.0373 0.68533 0.0
C526 C 0.39167 0.05124 0.55193 0.0
C527 C 0.38493 0.05536 0.48089 0.0
C528 C 0.37513 0.02344 0.58576 0.0
C529 C 0.36058 0.03158 0.44516 0.0
C530 C 0.34396 0.00384 0.47857 0.0
C531 C 0.33601 0.97106 0.58062 0.0
C532 C 0.34423 0.96645 0.64966 0.0
C533 C 0.35138 -0.00064 0.54837 0.0
C534 C 0.36721 0.99086 0.68723 0.0
C535 C 0.3825 0.01907 0.65564 0.0
H536 H 0.33524 0.4003 0.7308 0.0
H537 H 0.33026 0.35894 0.52406 0.0
H538 H 0.35286 0.33196 0.57637 0.0
H539 H 0.37691 0.32257 0.67928 0.0
H540 H 0.38147 0.36408 0.88574 0.0
H541 H 0.35603 0.38833 0.83505 0.0
C542 C 0.3389 0.38524 0.69719 0.0
C543 C 0.3313 0.38188 0.62347 0.0
C544 C 0.35196 0.36988 0.72752 0.0
C545 C 0.33595 0.36202 0.58096 0.0
C546 C 0.34896 0.34663 0.61079 0.0
C547 C 0.37213 0.33673 0.71333 0.0
C548 C 0.38137 0.34166 0.78609 0.0
C549 C 0.35751 0.35076 0.68377 0.0
C550 C 0.37478 0.35994 0.8295 0.0
C551 C 0.36025 0.37391 0.80055 0.0
loop_
_geom_bond_atom_site_label_1
_geom_bond_atom_site_label_2
_geom_bond_distance
_geom_bond_site_symmetry_2
_ccdc_geom_bond_type
Zn0 O3 2.031 . S
Zn0 O5 2.049 . S
Zn0 O10 2.067 . S
Zn1 O2 1.962 1_554 S
Zn1 O4 1.986 . S
Zn1 O6 1.996 . S
Zn1 O9 1.943 . S
O2 Zn1 1.962 1_556 S
O2 C7 1.254 . S
O3 Zn0 2.031 . S
O3 C7 1.269 1_554 S
O4 Zn1 1.986 . S
O4 C11 1.262 . S
O5 Zn0 2.049 . S
O5 C13 1.260 . S
O6 Zn1 1.996 . S
O6 C13 1.257 . S
C7 O2 1.254 . S
C7 O3 1.269 1_556 S
C8 O9 1.249 . S
C8 O10 1.270 . S
O9 Zn1 1.943 . S
O9 C8 1.249 . S
O10 Zn0 2.067 . S
O10 C8 1.270 . S
C11 O4 1.262 . S
C11 O12 1.232 1_554 S
O12 C11 1.232 1_556 S
C13 O5 1.260 . S
C13 O6 1.257 . S
Zn14 O17 2.031 . S
Zn14 O19 2.049 . S
Zn14 O24 2.067 . S
Zn15 O16 1.962 . S
Zn15 O18 1.986 . S
Zn15 O20 1.996 . S
Zn15 O23 1.943 . S
O16 Zn15 1.962 . S
O16 C21 1.254 . S
O17 Zn14 2.031 . S
O17 C21 1.269 . S
O18 Zn15 1.986 . S
O18 C25 1.262 . S
O19 Zn14 2.049 . S
O19 C27 1.260 . S
O20 Zn15 1.996 . S
O20 C27 1.257 . S
C21 O16 1.254 . S
C21 O17 1.269 . S
C22 O23 1.249 . S
C22 O24 1.270 . S
O23 Zn15 1.943 . S
O23 C22 1.249 . S
O24 Zn14 2.067 . S
O24 C22 1.270 . S
C25 O18 1.262 . S
C25 O26 1.232 . S
O26 C25 1.232 . S
C27 O19 1.260 . S
C27 O20 1.257 . S
Zn28 O31 2.031 . S
Zn28 O33 2.049 . S
Zn28 O38 2.067 . S
Zn29 O30 1.962 . S
Zn29 O32 1.986 . S
Zn29 O34 1.996 . S
Zn29 O37 1.943 . S
O30 Zn29 1.962 . S
O30 C35 1.254 . S
O31 Zn28 2.031 . S
O31 C35 1.269 . S
O32 Zn29 1.986 . S
O32 C39 1.262 . S
O33 Zn28 2.049 . S
O33 C41 1.260 . S
O34 Zn29 1.996 . S
O34 C41 1.257 . S
C35 O30 1.254 . S
C35 O31 1.269 . S
C36 O37 1.249 . S
C36 O38 1.270 . S
O37 Zn29 1.943 . S
O37 C36 1.249 . S
O38 Zn28 2.067 . S
O38 C36 1.270 . S
C39 O32 1.262 . S
C39 O40 1.232 . S
O40 C39 1.232 . S
C41 O33 1.260 . S
C41 O34 1.257 . S
Zn42 O45 2.031 . S
Zn42 O47 2.049 . S
Zn42 O52 2.067 . S
Zn43 O44 1.962 . S
Zn43 O46 1.986 . S
Zn43 O48 1.996 . S
Zn43 O51 1.943 . S
O44 Zn43 1.962 . S
O44 C49 1.254 . S
O45 Zn42 2.031 . S
O45 C49 1.269 . S
O46 Zn43 1.986 . S
O46 C53 1.262 . S
O47 Zn42 2.049 . S
O47 C55 1.260 . S
O48 Zn43 1.996 . S
O48 C55 1.257 . S
C49 O44 1.254 . S
C49 O45 1.269 . S
C50 O51 1.249 . S
C50 O52 1.270 . S
O51 Zn43 1.943 . S
O51 C50 1.249 . S
O52 Zn42 2.067 . S
O52 C50 1.270 . S
C53 O46 1.262 . S
C53 O54 1.232 . S
O54 C53 1.232 . S
C55 O47 1.260 . S
C55 O48 1.257 . S
Zn56 O59 2.031 . S
Zn56 O61 2.049 . S
Zn56 O66 2.067 . S
Zn57 O58 1.962 . S
Zn57 O60 1.986 . S
Zn57 O62 1.996 . S
Zn57 O65 1.943 . S
O58 Zn57 1.962 . S
O58 C63 1.254 . S
O59 Zn56 2.031 . S
O59 C63 1.269 . S
O60 Zn57 1.986 . S
O60 C67 1.262 . S
O61 Zn56 2.049 . S
O61 C69 1.260 . S
O62 Zn57 1.996 . S
O62 C69 1.257 . S
C63 O58 1.254 . S
C63 O59 1.269 . S
C64 O65 1.249 . S
C64 O66 1.270 . S
O65 Zn57 1.943 . S
O65 C64 1.249 . S
O66 Zn56 2.067 . S
O66 C64 1.270 . S
C67 O60 1.262 . S
C67 O68 1.232 . S
O68 C67 1.232 . S
C69 O61 1.260 . S
C69 O62 1.257 . S
Zn70 O73 2.031 . S
Zn70 O75 2.049 . S
Zn70 O80 2.067 . S
Zn71 O72 1.962 . S
Zn71 O74 1.986 . S
Zn71 O76 1.996 . S
Zn71 O79 1.943 . S
O72 Zn71 1.962 . S
O72 C77 1.254 . S
O73 Zn70 2.031 . S
O73 C77 1.269 . S
O74 Zn71 1.986 . S
O74 C81 1.262 . S
O75 Zn70 2.049 . S
O75 C83 1.260 . S
O76 Zn71 1.996 . S
O76 C83 1.257 . S
C77 O72 1.254 . S
C77 O73 1.269 . S
C78 O79 1.249 . S
C78 O80 1.270 . S
O79 Zn71 1.943 . S
O79 C78 1.249 . S
O80 Zn70 2.067 . S
O80 C78 1.270 . S
C81 O74 1.262 . S
C81 O82 1.232 . S
O82 C81 1.232 . S
C83 O75 1.260 . S
C83 O76 1.257 . S
Zn84 O87 2.031 . S
Zn84 O89 2.049 . S
Zn84 O94 2.067 . S
Zn85 O86 1.965 . S
Zn85 O88 1.986 . S
Zn85 O90 1.996 . S
Zn85 O93 1.943 . S
O86 Zn85 1.965 . S
O86 C91 1.255 . S
O87 Zn84 2.031 . S
O87 C91 1.269 . S
O88 Zn85 1.986 . S
O88 C95 1.262 . S
O89 Zn84 2.049 . S
O89 C97 1.260 . S
O90 Zn85 1.996 . S
O90 C97 1.257 . S
C91 O86 1.255 . S
C91 O87 1.269 . S
C92 O93 1.249 . S
C92 O94 1.270 . S
O93 Zn85 1.943 . S
O93 C92 1.249 . S
O94 Zn84 2.067 . S
O94 C92 1.270 . S
C95 O88 1.262 . S
C95 O96 1.232 . S
O96 C95 1.232 . S
C97 O89 1.260 . S
C97 O90 1.257 . S
Zn98 O101 2.031 . S
Zn98 O103 2.049 1_554 S
Zn98 O108 2.067 1_554 S
Zn99 O100 1.962 . S
Zn99 O102 1.986 . S
Zn99 O104 1.996 . S
Zn99 O107 1.943 1_554 S
O100 Zn99 1.962 . S
O100 C105 1.254 . S
O101 Zn98 2.031 . S
O101 C105 1.269 . S
O102 Zn99 1.986 . S
O102 C109 1.262 . S
O103 Zn98 2.049 1_556 S
O103 C111 1.260 1_556 S
O104 Zn99 1.996 . S
O104 C111 1.257 . S
C105 O100 1.254 . S
C105 O101 1.269 . S
C106 O107 1.249 . S
C106 O108 1.270 . S
O107 Zn99 1.943 1_556 S
O107 C106 1.249 . S
O108 Zn98 2.067 1_556 S
O108 C106 1.270 . S
C109 O102 1.262 . S
C109 O110 1.232 . S
O110 C109 1.232 . S
C111 O103 1.260 1_554 S
C111 O104 1.257 . S
Zn112 O115 2.031 . S
Zn112 O117 2.049 . S
Zn112 O122 2.067 . S
Zn113 O114 1.962 . S
Zn113 O116 1.986 . S
Zn113 O118 1.996 . S
Zn113 O121 1.943 . S
O114 Zn113 1.962 . S
O114 C119 1.254 . S
O115 Zn112 2.031 . S
O115 C119 1.269 . S
O116 Zn113 1.986 . S
O116 C123 1.262 . S
O117 Zn112 2.049 . S
O117 C125 1.260 . S
O118 Zn113 1.996 . S
O118 C125 1.257 . S
C119 O114 1.254 . S
C119 O115 1.269 . S
C120 O121 1.249 . S
C120 O122 1.270 . S
O121 Zn113 1.943 . S
O121 C120 1.249 . S
O122 Zn112 2.067 . S
O122 C120 1.270 . S
C123 O116 1.262 . S
C123 O124 1.232 . S
O124 C123 1.232 . S
C125 O117 1.260 . S
C125 O118 1.257 . S
Zn126 O129 2.031 . S
Zn126 O131 2.049 . S
Zn126 O136 2.067 . S
Zn127 O128 1.962 . S
Zn127 O130 1.986 . S
Zn127 O132 1.996 . S
Zn127 O135 1.943 . S
O128 Zn127 1.962 . S
O128 C133 1.254 . S
O129 Zn126 2.031 . S
O129 C133 1.269 . S
O130 Zn127 1.986 . S
O130 C137 1.262 . S
O131 Zn126 2.049 . S
O131 C139 1.260 . S
O132 Zn127 1.996 . S
O132 C139 1.257 . S
C133 O128 1.254 . S
C133 O129 1.269 . S
C134 O135 1.249 . S
C134 O136 1.270 . S
O135 Zn127 1.943 . S
O135 C134 1.249 . S
O136 Zn126 2.067 . S
O136 C134 1.270 . S
C137 O130 1.262 . S
C137 O138 1.232 . S
O138 C137 1.232 . S
C139 O131 1.260 . S
C139 O132 1.257 . S
Zn140 O143 2.031 . S
Zn140 O145 2.049 . S
Zn140 O150 2.067 . S
Zn141 O142 1.962 . S
Zn141 O144 1.986 . S
Zn141 O146 1.996 . S
Zn141 O149 1.943 . S
O142 Zn141 1.962 . S
O142 C147 1.254 . S
O143 Zn140 2.031 . S
O143 C147 1.269 . S
O144 Zn141 1.986 . S
O144 C151 1.262 . S
O145 Zn140 2.049 . S
O145 C153 1.260 . S
O146 Zn141 1.996 . S
O146 C153 1.257 . S
C147 O142 1.254 . S
C147 O143 1.269 . S
C148 O149 1.249 . S
C148 O150 1.270 . S
O149 Zn141 1.943 . S
O149 C148 1.249 . S
O150 Zn140 2.067 . S
O150 C148 1.270 . S
C151 O144 1.262 . S
C151 O152 1.232 . S
O152 C151 1.232 . S
C153 O145 1.260 . S
C153 O146 1.257 . S
Zn154 O157 2.031 . S
Zn154 O159 2.049 . S
Zn154 O164 2.067 . S
Zn155 O156 1.962 . S
Zn155 O158 1.986 . S
Zn155 O160 1.996 . S
Zn155 O163 1.943 . S
O156 Zn155 1.962 . S
O156 C161 1.254 . S
O157 Zn154 2.031 . S
O157 C161 1.269 . S
O158 Zn155 1.986 . S
O158 C165 1.262 . S
O159 Zn154 2.049 . S
O159 C167 1.260 . S
O160 Zn155 1.996 . S
O160 C167 1.257 . S
C161 O156 1.254 . S
C161 O157 1.269 . S
C162 O163 1.249 . S
C162 O164 1.270 . S
O163 Zn155 1.943 . S
O163 C162 1.249 . S
O164 Zn154 2.067 . S
O164 C162 1.270 . S
C165 O158 1.262 . S
C165 O166 1.232 . S
O166 C165 1.232 . S
C167 O159 1.260 . S
C167 O160 1.257 . S
H168 C174 0.930 . S
H169 C177 0.930 . S
H170 C178 0.930 . S
H171 C179 0.930 . S
H172 C182 0.930 . S
H173 C183 0.930 . S
C174 H168 0.930 . S
C174 C175 1.355 . S
C174 C176 1.415 . S
C175 C174 1.355 . S
C175 C177 1.419 . S
C176 C174 1.415 . S
C176 C181 1.425 . S
C176 C183 1.409 . S
C177 H169 0.930 . S
C177 C175 1.419 . S
C177 C178 1.362 . S
C178 H170 0.930 . S
C178 C177 1.362 . S
C178 C181 1.409 . S
C179 H171 0.930 . S
C179 C180 1.355 . S
C179 C181 1.415 . S
C180 C179 1.355 . S
C180 C182 1.419 . S
C181 C176 1.425 . S
C181 C178 1.409 . S
C181 C179 1.415 . S
C182 H172 0.930 . S
C182 C180 1.419 . S
C182 C183 1.362 . S
C183 H173 0.930 . S
C183 C176 1.409 . S
C183 C182 1.362 . S
H184 C190 0.930 . S
H185 C193 0.930 . S
H186 C194 0.930 . S
H187 C195 0.930 . S
H188 C198 0.930 . S
H189 C199 0.930 . S
C190 H184 0.930 . S
C190 C191 1.355 . S
C190 C192 1.415 . S
C191 C190 1.355 . S
C191 C193 1.419 . S
C192 C190 1.415 . S
C192 C197 1.425 . S
C192 C199 1.409 . S
C193 H185 0.930 . S
C193 C191 1.419 . S
C193 C194 1.362 . S
C194 H186 0.930 . S
C194 C193 1.362 . S
C194 C197 1.409 . S
C195 H187 0.930 . S
C195 C196 1.355 . S
C195 C197 1.415 . S
C196 C195 1.355 . S
C196 C198 1.419 . S
C197 C192 1.425 . S
C197 C194 1.409 . S
C197 C195 1.415 . S
C198 H188 0.930 . S
C198 C196 1.419 . S
C198 C199 1.362 . S
C199 H189 0.930 . S
C199 C192 1.409 . S
C199 C198 1.362 . S
H200 C206 0.930 . S
H201 C209 0.930 . S
H202 C210 0.930 . S
H203 C211 0.930 . S
H204 C214 0.930 . S
H205 C215 0.930 . S
C206 H200 0.930 . S
C206 C207 1.355 . S
C206 C208 1.415 . S
C207 C206 1.355 . S
C207 C209 1.419 . S
C208 C206 1.415 . S
C208 C213 1.425 . S
C208 C215 1.409 . S
C209 H201 0.930 . S
C209 C207 1.419 . S
C209 C210 1.362 . S
C210 H202 0.930 . S
C210 C209 1.362 . S
C210 C213 1.409 . S
C211 H203 0.930 . S
C211 C212 1.355 . S
C211 C213 1.415 . S
C212 C211 1.355 . S
C212 C214 1.419 . S
C213 C208 1.425 . S
C213 C210 1.409 . S
C213 C211 1.415 . S
C214 H204 0.930 . S
C214 C212 1.419 . S
C214 C215 1.362 . S
C215 H205 0.930 . S
C215 C208 1.409 . S
C215 C214 1.362 . S
H216 C222 0.930 . S
H217 C225 0.930 . S
H218 C226 0.930 . S
H219 C227 0.930 . S
H220 C230 0.930 . S
H221 C231 0.930 . S
C222 H216 0.930 . S
C222 C223 1.355 . S
C222 C224 1.415 . S
C223 C222 1.355 . S
C223 C225 1.419 . S
C224 C222 1.415 . S
C224 C229 1.425 . S
C224 C231 1.409 . S
C225 H217 0.930 . S
C225 C223 1.419 . S
C225 C226 1.362 . S
C226 H218 0.930 . S
C226 C225 1.362 . S
C226 C229 1.409 . S
C227 H219 0.930 . S
C227 C228 1.355 . S
C227 C229 1.415 . S
C228 C227 1.355 . S
C228 C230 1.419 . S
C229 C224 1.425 . S
C229 C226 1.409 . S
C229 C227 1.415 . S
C230 H220 0.930 . S
C230 C228 1.419 . S
C230 C231 1.362 . S
C231 H221 0.930 . S
C231 C224 1.409 . S
C231 C230 1.362 . S
H232 C238 0.930 . S
H233 C241 0.930 . S
H234 C242 0.930 . S
H235 C243 0.930 . S
H236 C246 0.930 . S
H237 C247 0.930 . S
C238 H232 0.930 . S
C238 C239 1.355 . S
C238 C240 1.415 . S
C239 C238 1.355 . S
C239 C241 1.419 . S
C240 C238 1.415 . S
C240 C245 1.425 . S
C240 C247 1.409 . S
C241 H233 0.930 . S
C241 C239 1.419 . S
C241 C242 1.362 . S
C242 H234 0.930 . S
C242 C241 1.362 . S
C242 C245 1.409 . S
C243 H235 0.930 . S
C243 C244 1.355 . S
C243 C245 1.415 1_554 S
C244 C243 1.355 . S
C244 C246 1.419 . S
C245 C240 1.425 . S
C245 C242 1.409 . S
C245 C243 1.415 1_556 S
C246 H236 0.930 . S
C246 C244 1.419 . S
C246 C247 1.362 1_554 S
C247 H237 0.930 . S
C247 C240 1.409 . S
C247 C246 1.362 1_556 S
H248 C254 0.930 . S
H249 C257 0.930 . S
H250 C258 0.930 . S
H251 C259 0.930 . S
H252 C262 0.930 1_556 S
H253 C263 0.930 . S
C254 H248 0.930 . S
C254 C255 1.355 . S
C254 C256 1.415 . S
C255 C254 1.355 . S
C255 C257 1.419 . S
C256 C254 1.415 . S
C256 C261 1.425 . S
C256 C263 1.409 . S
C257 H249 0.930 . S
C257 C255 1.419 . S
C257 C258 1.362 . S
C258 H250 0.930 . S
C258 C257 1.362 . S
C258 C261 1.409 . S
C259 H251 0.930 . S
C259 C260 1.355 . S
C259 C261 1.415 . S
C260 C259 1.355 . S
C260 C262 1.419 . S
C261 C256 1.425 . S
C261 C258 1.409 . S
C261 C259 1.415 . S
C262 H252 0.930 1_554 S
C262 C260 1.419 . S
C262 C263 1.362 . S
C263 H253 0.930 . S
C263 C256 1.409 . S
C263 C262 1.362 . S
H264 C270 0.930 . S
H265 C273 0.930 . S
H266 C274 0.930 . S
H267 C275 0.930 . S
H268 C278 0.930 . S
H269 C279 0.930 . S
C270 H264 0.930 . S
C270 C271 1.355 . S
C270 C272 1.415 . S
C271 C270 1.355 . S
C271 C273 1.419 . S
C272 C270 1.415 . S
C272 C277 1.425 . S
C272 C279 1.409 . S
C273 H265 0.930 . S
C273 C271 1.419 . S
C273 C274 1.362 . S
C274 H266 0.930 . S
C274 C273 1.362 . S
C274 C277 1.409 . S
C275 H267 0.930 . S
C275 C276 1.355 . S
C275 C277 1.415 . S
C276 C275 1.355 . S
C276 C278 1.419 . S
C277 C272 1.425 . S
C277 C274 1.409 . S
C277 C275 1.415 . S
C278 H268 0.930 . S
C278 C276 1.419 . S
C278 C279 1.362 . S
C279 H269 0.930 . S
C279 C272 1.409 . S
C279 C278 1.362 . S
H280 C286 0.930 . S
H281 C289 0.930 . S
H282 C290 0.930 . S
H283 C291 0.930 . S
H284 C294 0.930 . S
H285 C295 0.930 . S
C286 H280 0.930 . S
C286 C287 1.355 . S
C286 C288 1.415 . S
C287 C286 1.355 . S
C287 C289 1.419 . S
C288 C286 1.415 . S
C288 C293 1.425 . S
C288 C295 1.409 . S
C289 H281 0.930 . S
C289 C287 1.419 . S
C289 C290 1.362 . S
C290 H282 0.930 . S
C290 C289 1.362 . S
C290 C293 1.409 . S
C291 H283 0.930 . S
C291 C292 1.355 . S
C291 C293 1.415 . S
C292 C291 1.355 . S
C292 C294 1.419 . S
C293 C288 1.425 . S
C293 C290 1.409 . S
C293 C291 1.415 . S
C294 H284 0.930 . S
C294 C292 1.419 . S
C294 C295 1.362 . S
C295 H285 0.930 . S
C295 C288 1.409 . S
C295 C294 1.362 . S
H296 C302 0.930 . S
H297 C305 0.930 . S
H298 C306 0.930 . S
H299 C307 0.930 . S
H300 C310 0.930 . S
H301 C311 0.930 . S
C302 H296 0.930 . S
C302 C303 1.355 . S
C302 C304 1.415 . S
C303 C302 1.355 . S
C303 C305 1.419 . S
C304 C302 1.415 . S
C304 C309 1.425 . S
C304 C311 1.409 . S
C305 H297 0.930 . S
C305 C303 1.419 . S
C305 C306 1.362 . S
C306 H298 0.930 . S
C306 C305 1.362 . S
C306 C309 1.409 . S
C307 H299 0.930 . S
C307 C308 1.355 . S
C307 C309 1.415 . S
C308 C307 1.355 . S
C308 C310 1.419 . S
C309 C304 1.425 . S
C309 C306 1.409 . S
C309 C307 1.415 . S
C310 H300 0.930 . S
C310 C308 1.419 . S
C310 C311 1.362 . S
C311 H301 0.930 . S
C311 C304 1.409 . S
C311 C310 1.362 . S
H312 C318 0.930 . S
H313 C321 0.930 . S
H314 C322 0.930 . S
H315 C323 0.930 . S
H316 C326 0.930 . S
H317 C327 0.930 . S
C318 H312 0.930 . S
C318 C319 1.355 . S
C318 C320 1.415 . S
C319 C318 1.355 . S
C319 C321 1.419 . S
C320 C318 1.415 . S
C320 C325 1.425 . S
C320 C327 1.409 . S
C321 H313 0.930 . S
C321 C319 1.419 . S
C321 C322 1.362 . S
C322 H314 0.930 . S
C322 C321 1.362 . S
C322 C325 1.409 . S
C323 H315 0.930 . S
C323 C324 1.355 . S
C323 C325 1.415 . S
C324 C323 1.355 . S
C324 C326 1.419 . S
C325 C320 1.425 . S
C325 C322 1.409 . S
C325 C323 1.415 . S
C326 H316 0.930 . S
C326 C324 1.419 . S
C326 C327 1.362 . S
C327 H317 0.930 . S
C327 C320 1.409 . S
C327 C326 1.362 . S
H328 C334 0.930 . S
H329 C337 0.930 . S
H330 C338 0.930 . S
H331 C339 0.930 . S
H332 C342 0.930 . S
H333 C343 0.930 . S
C334 H328 0.930 . S
C334 C335 1.355 . S
C334 C336 1.415 . S
C335 C334 1.355 . S
C335 C337 1.419 . S
C336 C334 1.415 . S
C336 C341 1.425 . S
C336 C343 1.409 . S
C337 H329 0.930 . S
C337 C335 1.419 . S
C337 C338 1.362 . S
C338 H330 0.930 . S
C338 C337 1.362 . S
C338 C341 1.409 . S
C339 H331 0.930 . S
C339 C340 1.355 . S
C339 C341 1.415 . S
C340 C339 1.355 . S
C340 C342 1.419 . S
C341 C336 1.425 . S
C341 C338 1.409 . S
C341 C339 1.415 . S
C342 H332 0.930 . S
C342 C340 1.419 . S
C342 C343 1.362 . S
C343 H333 0.930 . S
C343 C336 1.409 . S
C343 C342 1.362 . S
H344 C350 0.930 . S
H345 C353 0.930 . S
H346 C354 0.930 . S
H347 C355 0.930 . S
H348 C358 0.930 . S
H349 C359 0.930 . S
C350 H344 0.930 . S
C350 C351 1.355 . S
C350 C352 1.415 . S
C351 C350 1.355 . S
C351 C353 1.419 . S
C352 C350 1.415 . S
C352 C357 1.425 . S
C352 C359 1.409 . S
C353 H345 0.930 . S
C353 C351 1.419 . S
C353 C354 1.362 . S
C354 H346 0.930 . S
C354 C353 1.362 . S
C354 C357 1.409 . S
C355 H347 0.930 . S
C355 C356 1.352 1_556 S
C355 C357 1.415 . S
C356 C355 1.352 1_554 S
C356 C358 1.419 . S
C357 C352 1.425 . S
C357 C354 1.409 . S
C357 C355 1.415 . S
C358 H348 0.930 . S
C358 C356 1.419 . S
C358 C359 1.362 1_554 S
C359 H349 0.930 . S
C359 C352 1.409 . S
C359 C358 1.362 1_556 S
H360 C366 0.930 . S
H361 C369 0.930 . S
H362 C370 0.930 . S
H363 C371 0.930 . S
H364 C374 0.930 . S
H365 C375 0.930 . S
C366 H360 0.930 . S
C366 C367 1.355 . S
C366 C368 1.415 . S
C367 C366 1.355 . S
C367 C369 1.419 . S
C368 C366 1.415 . S
C368 C373 1.425 . S
C368 C375 1.409 . S
C369 H361 0.930 . S
C369 C367 1.419 . S
C369 C370 1.362 . S
C370 H362 0.930 . S
C370 C369 1.362 . S
C370 C373 1.409 . S
C371 H363 0.930 . S
C371 C372 1.355 . S
C371 C373 1.415 . S
C372 C371 1.355 . S
C372 C374 1.419 . S
C373 C368 1.425 . S
C373 C370 1.409 . S
C373 C371 1.415 . S
C374 H364 0.930 . S
C374 C372 1.419 . S
C374 C375 1.362 . S
C375 H365 0.930 . S
C375 C368 1.409 . S
C375 C374 1.362 . S
H376 C382 0.930 . S
H377 C385 0.930 . S
H378 C386 0.928 1_556 S
H379 C387 0.930 . S
H380 C390 0.930 . S
H381 C391 0.930 . S
C382 H376 0.930 . S
C382 C383 1.355 . S
C382 C384 1.415 1_554 S
C383 C382 1.355 . S
C383 C385 1.419 . S
C384 C382 1.415 1_556 S
C384 C389 1.425 . S
C384 C391 1.409 . S
C385 H377 0.930 . S
C385 C383 1.419 . S
C385 C386 1.362 . S
C386 H378 0.928 1_554 S
C386 C385 1.362 . S
C386 C389 1.409 1_554 S
C387 H379 0.930 . S
C387 C388 1.355 . S
C387 C389 1.415 . S
C388 C387 1.355 . S
C388 C390 1.419 . S
C389 C384 1.425 . S
C389 C386 1.409 1_556 S
C389 C387 1.415 . S
C390 H380 0.930 . S
C390 C388 1.419 . S
C390 C391 1.362 . S
C391 H381 0.930 . S
C391 C384 1.409 . S
C391 C390 1.362 . S
H392 C398 0.930 . S
H393 C401 0.930 . S
H394 C402 0.930 . S
H395 C403 0.930 . S
H396 C406 0.930 . S
H397 C407 0.930 . S
C398 H392 0.930 . S
C398 C399 1.355 . S
C398 C400 1.415 . S
C399 C398 1.355 . S
C399 C401 1.419 . S
C400 C398 1.415 . S
C400 C405 1.425 . S
C400 C407 1.409 . S
C401 H393 0.930 . S
C401 C399 1.419 . S
C401 C402 1.362 . S
C402 H394 0.930 . S
C402 C401 1.362 . S
C402 C405 1.409 . S
C403 H395 0.930 . S
C403 C404 1.355 . S
C403 C405 1.415 . S
C404 C403 1.355 . S
C404 C406 1.419 . S
C405 C400 1.425 . S
C405 C402 1.409 . S
C405 C403 1.415 . S
C406 H396 0.930 . S
C406 C404 1.419 . S
C406 C407 1.362 . S
C407 H397 0.930 . S
C407 C400 1.409 . S
C407 C406 1.362 . S
H408 C414 0.930 . S
H409 C417 0.930 . S
H410 C418 0.930 . S
H411 C419 0.930 . S
H412 C422 0.930 . S
H413 C423 0.930 . S
C414 H408 0.930 . S
C414 C415 1.355 . S
C414 C416 1.415 . S
C415 C414 1.355 . S
C415 C417 1.419 . S
C416 C414 1.415 . S
C416 C421 1.425 . S
C416 C423 1.409 . S
C417 H409 0.930 . S
C417 C415 1.419 . S
C417 C418 1.362 . S
C418 H410 0.930 . S
C418 C417 1.362 . S
C418 C421 1.409 . S
C419 H411 0.930 . S
C419 C420 1.355 . S
C419 C421 1.415 . S
C420 C419 1.355 . S
C420 C422 1.419 . S
C421 C416 1.425 . S
C421 C418 1.409 . S
C421 C419 1.415 . S
C422 H412 0.930 . S
C422 C420 1.419 . S
C422 C423 1.362 . S
C423 H413 0.930 . S
C423 C416 1.409 . S
C423 C422 1.362 . S
H424 C430 0.930 . S
H425 C433 0.930 . S
H426 C434 0.930 . S
H427 C435 0.930 . S
H428 C438 0.930 . S
H429 C439 0.930 . S
C430 H424 0.930 . S
C430 C431 1.355 . S
C430 C432 1.415 . S
C431 C430 1.355 . S
C431 C433 1.419 . S
C432 C430 1.415 . S
C432 C437 1.425 . S
C432 C439 1.409 . S
C433 H425 0.930 . S
C433 C431 1.419 . S
C433 C434 1.362 . S
C434 H426 0.930 . S
C434 C433 1.362 . S
C434 C437 1.409 . S
C435 H427 0.930 . S
C435 C436 1.355 . S
C435 C437 1.415 . S
C436 C435 1.355 . S
C436 C438 1.419 . S
C437 C432 1.425 . S
C437 C434 1.409 . S
C437 C435 1.415 . S
C438 H428 0.930 . S
C438 C436 1.419 . S
C438 C439 1.362 . S
C439 H429 0.930 . S
C439 C432 1.409 . S
C439 C438 1.362 . S
H440 C446 0.930 . S
H441 C449 0.930 . S
H442 C450 0.930 . S
H443 C451 0.930 . S
H444 C454 0.930 . S
H445 C455 0.930 . S
C446 H440 0.930 . S
C446 C447 1.355 . S
C446 C448 1.415 . S
C447 C446 1.355 . S
C447 C449 1.419 . S
C448 C446 1.415 . S
C448 C453 1.425 . S
C448 C455 1.409 . S
C449 H441 0.930 . S
C449 C447 1.419 . S
C449 C450 1.362 . S
C450 H442 0.930 . S
C450 C449 1.362 . S
C450 C453 1.409 . S
C451 H443 0.930 . S
C451 C452 1.355 . S
C451 C453 1.415 . S
C452 C451 1.355 . S
C452 C454 1.419 . S
C453 C448 1.425 . S
C453 C450 1.409 . S
C453 C451 1.415 . S
C454 H444 0.930 . S
C454 C452 1.419 . S
C454 C455 1.362 . S
C455 H445 0.930 . S
C455 C448 1.409 . S
C455 C454 1.362 . S
H456 C462 0.930 . S
H457 C465 0.930 . S
H458 C466 0.930 . S
H459 C467 0.930 . S
H460 C470 0.930 . S
H461 C471 0.930 . S
C462 H456 0.930 . S
C462 C463 1.355 . S
C462 C464 1.426 . S
C463 C462 1.355 . S
C463 C465 1.419 . S
C464 C462 1.426 . S
C464 C469 1.443 1_455 S
C464 C471 1.390 1_455 S
C465 H457 0.930 . S
C465 C463 1.419 . S
C465 C466 1.362 . S
C466 H458 0.930 . S
C466 C465 1.362 . S
C466 C469 1.389 1_455 S
C467 H459 0.930 . S
C467 C468 1.355 . S
C467 C469 1.427 . S
C468 C467 1.355 . S
C468 C470 1.419 . S
C469 C464 1.443 1_655 S
C469 C466 1.389 1_655 S
C469 C467 1.427 . S
C470 H460 0.930 . S
C470 C468 1.419 . S
C470 C471 1.362 . S
C471 H461 0.930 . S
C471 C464 1.390 1_655 S
C471 C470 1.362 . S
H472 C478 0.930 . S
H473 C481 0.930 . S
H474 C482 0.930 . S
H475 C483 0.930 . S
H476 C486 0.930 . S
H477 C487 0.930 . S
C478 H472 0.930 . S
C478 C479 1.355 1_554 S
C478 C480 1.415 . S
C479 C478 1.355 1_556 S
C479 C481 1.419 . S
C480 C478 1.415 . S
C480 C485 1.425 1_565 S
C480 C487 1.409 . S
C481 H473 0.930 . S
C481 C479 1.419 . S
C481 C482 1.362 1_565 S
C482 H474 0.930 . S
C482 C481 1.362 1_545 S
C482 C485 1.409 1_556 S
C483 H475 0.930 . S
C483 C484 1.355 . S
C483 C485 1.415 . S
C484 C483 1.355 . S
C484 C486 1.419 . S
C485 C480 1.425 1_545 S
C485 C482 1.409 1_554 S
C485 C483 1.415 . S
C486 H476 0.930 . S
C486 C484 1.419 . S
C486 C487 1.362 1_545 S
C487 H477 0.930 . S
C487 C480 1.409 . S
C487 C486 1.362 1_565 S
H488 C494 0.930 . S
H489 C497 0.930 . S
H490 C498 0.930 . S
H491 C499 0.930 . S
H492 C502 0.930 . S
H493 C503 0.930 . S
C494 H488 0.930 . S
C494 C495 1.355 . S
C494 C496 1.415 . S
C495 C494 1.355 . S
C495 C497 1.419 . S
C496 C494 1.415 . S
C496 C501 1.425 . S
C496 C503 1.409 . S
C497 H489 0.930 . S
C497 C495 1.419 . S
C497 C498 1.362 . S
C498 H490 0.930 . S
C498 C497 1.362 . S
C498 C501 1.409 . S
C499 H491 0.930 . S
C499 C500 1.355 . S
C499 C501 1.415 . S
C500 C499 1.355 . S
C500 C502 1.419 . S
C501 C496 1.425 . S
C501 C498 1.409 . S
C501 C499 1.415 . S
C502 H492 0.930 . S
C502 C500 1.419 . S
C502 C503 1.362 . S
C503 H493 0.930 . S
C503 C496 1.409 . S
C503 C502 1.362 . S
H504 C510 0.930 . S
H505 C513 0.930 . S
H506 C514 0.930 . S
H507 C515 0.930 . S
H508 C518 0.930 . S
H509 C519 0.930 . S
C510 H504 0.930 . S
C510 C511 1.355 . S
C510 C512 1.415 . S
C511 C510 1.355 . S
C511 C513 1.419 . S
C512 C510 1.415 . S
C512 C517 1.425 1_455 S
C512 C519 1.409 . S
C513 H505 0.930 . S
C513 C511 1.419 . S
C513 C514 1.362 1_455 S
C514 H506 0.930 . S
C514 C513 1.362 1_655 S
C514 C517 1.409 . S
C515 H507 0.930 . S
C515 C516 1.355 . S
C515 C517 1.415 . S
C516 C515 1.355 . S
C516 C518 1.419 . S
C517 C512 1.425 1_655 S
C517 C514 1.409 . S
C517 C515 1.415 . S
C518 H508 0.930 . S
C518 C516 1.419 . S
C518 C519 1.362 1_655 S
C519 H509 0.930 . S
C519 C512 1.409 . S
C519 C518 1.362 1_455 S
H520 C526 0.930 . S
H521 C529 0.930 . S
H522 C530 0.930 . S
H523 C531 0.930 . S
H524 C534 0.930 . S
H525 C535 0.930 . S
C526 H520 0.930 . S
C526 C527 1.355 . S
C526 C528 1.415 . S
C527 C526 1.355 . S
C527 C529 1.419 . S
C528 C526 1.415 . S
C528 C533 1.425 1_545 S
C528 C535 1.409 . S
C529 H521 0.930 . S
C529 C527 1.419 . S
C529 C530 1.362 1_545 S
C530 H522 0.930 . S
C530 C529 1.362 1_565 S
C530 C533 1.409 . S
C531 H523 0.930 . S
C531 C532 1.355 . S
C531 C533 1.415 . S
C532 C531 1.355 . S
C532 C534 1.419 . S
C533 C528 1.425 1_565 S
C533 C530 1.409 . S
C533 C531 1.415 . S
C534 H524 0.930 . S
C534 C532 1.419 . S
C534 C535 1.363 1_565 S
C535 H525 0.930 . S
C535 C528 1.409 . S
C535 C534 1.363 1_545 S
H536 C542 0.930 . S
H537 C545 0.930 . S
H538 C546 0.930 . S
H539 C547 0.930 . S
H540 C550 0.930 . S
H541 C551 0.930 . S
C542 H536 0.930 . S
C542 C543 1.355 . S
C542 C544 1.415 . S
C543 C542 1.355 . S
C543 C545 1.419 . S
C544 C542 1.415 . S
C544 C549 1.425 . S
C544 C551 1.409 . S
C545 H537 0.930 . S
C545 C543 1.419 . S
C545 C546 1.362 . S
C546 H538 0.930 . S
C546 C545 1.362 . S
C546 C549 1.409 . S
C547 H539 0.930 . S
C547 C548 1.355 . S
C547 C549 1.415 . S
C548 C547 1.355 . S
C548 C550 1.419 . S
C549 C544 1.425 . S
C549 C546 1.409 . S
C549 C547 1.415 . S
C550 H540 0.930 . S
C550 C548 1.419 . S
C550 C551 1.362 . S
C551 H541 0.930 . S
C551 C544 1.409 . S
C551 C550 1.362 . S
C175 C8 1.410 . S
C180 C148 1.356 . S
C191 C162 1.395 . S
C196 C22 1.368 . S
C207 C36 1.436 . S
C212 C92 1.345 . S
C223 C50 1.437 . S
C228 C106 1.352 . S
C239 C64 1.358 . S
C244 C120 1.435 . S
C255 C134 1.348 . S
C260 C78 1.422 1_554 S
C271 C13 1.424 . S
C276 C125 1.494 . S
C287 C27 1.482 . S
C292 C139 1.435 . S
C303 C153 1.501 . S
C308 C41 1.417 . S
C319 C55 1.419 . S
C324 C167 1.499 . S
C335 C69 1.460 . S
C340 C97 1.457 . S
C351 C83 1.420 . S
C356 C111 1.500 . S
C367 C147 0.937 . S
C372 C7 0.920 . S
C383 C21 0.913 . S
C388 C161 0.947 . S
C399 C35 0.951 . S
C404 C91 0.915 1_554 S
C415 C49 0.921 . S
C420 C105 0.948 . S
C431 C119 0.912 . S
C436 C63 0.950 . S
C447 C77 0.930 . S
C452 C133 0.926 . S
C463 C11 1.475 1_556 S
C468 C165 1.459 . S
C479 C95 1.484 . S
C484 C25 1.497 . S
C495 C109 1.475 . S
C500 C39 1.490 . S
C511 C123 1.506 . S
C516 C53 1.507 . S
C527 C137 1.471 . S
C532 C67 1.486 . S
C543 C151 1.494 . S
C548 C81 1.504 . S
