# Generated by pormake.
# Topology mer, (4)-cn, num edge types: 1
# Building blocks:
#     Node 0, Type 0, BuildingBlock: NAHDIM_clean_sbu_0, # of connection points: 4
#     Node 1, Type 0, BuildingBlock: NAHDIM_clean_sbu_0, # of connection points: 4
#     Node 2, Type 0, BuildingBlock: NAHDIM_clean_sbu_0, # of connection points: 4
#     Node 3, Type 0, BuildingBlock: NAHDIM_clean_sbu_0, # of connection points: 4
#     Node 4, Type 0, BuildingBlock: NAHDIM_clean_sbu_0, # of connection points: 4
#     Node 5, Type 0, BuildingBlock: NAHDIM_clean_sbu_0, # of connection points: 4
#     Node 6, Type 0, BuildingBlock: NAHDIM_clean_sbu_0, # of connection points: 4
#     Node 7, Type 0, BuildingBlock: NAHDIM_clean_sbu_0, # of connection points: 4
#     Node 8, Type 0, BuildingBlock: NAHDIM_clean_sbu_0, # of connection points: 4
#     Node 9, Type 0, BuildingBlock: NAHDIM_clean_sbu_0, # of connection points: 4
#     Node 10, Type 0, BuildingBlock: NAHDIM_clean_sbu_0, # of connection points: 4
#     Node 11, Type 0, BuildingBlock: NAHDIM_clean_sbu_0, # of connection points: 4
#     Node 12, Type 0, BuildingBlock: NAHDIM_clean_sbu_0, # of connection points: 4
#     Node 13, Type 0, BuildingBlock: NAHDIM_clean_sbu_0, # of connection points: 4
#     Node 14, Type 0, BuildingBlock: NAHDIM_clean_sbu_0, # of connection points: 4
#     Node 15, Type 0, BuildingBlock: NAHDIM_clean_sbu_0, # of connection points: 4
#     Node 16, Type 0, BuildingBlock: NAHDIM_clean_sbu_0, # of connection points: 4
#     Node 17, Type 0, BuildingBlock: NAHDIM_clean_sbu_0, # of connection points: 4
#     Node 18, Type 0, BuildingBlock: NAHDIM_clean_sbu_0, # of connection points: 4
#     Node 19, Type 0, BuildingBlock: NAHDIM_clean_sbu_0, # of connection points: 4
#     Node 20, Type 0, BuildingBlock: NAHDIM_clean_sbu_0, # of connection points: 4
#     Node 21, Type 0, BuildingBlock: NAHDIM_clean_sbu_0, # of connection points: 4
#     Node 22, Type 0, BuildingBlock: NAHDIM_clean_sbu_0, # of connection points: 4
#     Node 23, Type 0, BuildingBlock: NAHDIM_clean_sbu_0, # of connection points: 4
#     Node 24, Type 0, BuildingBlock: NAHDIM_clean_sbu_0, # of connection points: 4
#     Node 25, Type 0, BuildingBlock: NAHDIM_clean_sbu_0, # of connection points: 4
#     Node 26, Type 0, BuildingBlock: NAHDIM_clean_sbu_0, # of connection points: 4
#     Node 27, Type 0, BuildingBlock: NAHDIM_clean_sbu_0, # of connection points: 4
#     Node 28, Type 0, BuildingBlock: NAHDIM_clean_sbu_0, # of connection points: 4
#     Node 29, Type 0, BuildingBlock: NAHDIM_clean_sbu_0, # of connection points: 4
#     Node 30, Type 0, BuildingBlock: NAHDIM_clean_sbu_0, # of connection points: 4
#     Node 31, Type 0, BuildingBlock: NAHDIM_clean_sbu_0, # of connection points: 4
#     Edge 32, Type (0, 0), BuildingBlock: UVAHIK_clean_linker_0, # of connection points: 2
#     Edge 33, Type (0, 0), BuildingBlock: UVAHIK_clean_linker_0, # of connection points: 2
#     Edge 34, Type (0, 0), BuildingBlock: UVAHIK_clean_linker_0, # of connection points: 2
#     Edge 35, Type (0, 0), BuildingBlock: UVAHIK_clean_linker_0, # of connection points: 2
#     Edge 36, Type (0, 0), BuildingBlock: UVAHIK_clean_linker_0, # of connection points: 2
#     Edge 37, Type (0, 0), BuildingBlock: UVAHIK_clean_linker_0, # of connection points: 2
#     Edge 38, Type (0, 0), BuildingBlock: UVAHIK_clean_linker_0, # of connection points: 2
#     Edge 39, Type (0, 0), BuildingBlock: UVAHIK_clean_linker_0, # of connection points: 2
#     Edge 40, Type (0, 0), BuildingBlock: UVAHIK_clean_linker_0, # of connection points: 2
#     Edge 41, Type (0, 0), BuildingBlock: UVAHIK_clean_linker_0, # of connection points: 2
#     Edge 42, Type (0, 0), BuildingBlock: UVAHIK_clean_linker_0, # of connection points: 2
#     Edge 43, Type (0, 0), BuildingBlock: UVAHIK_clean_linker_0, # of connection points: 2
#     Edge 44, Type (0, 0), BuildingBlock: UVAHIK_clean_linker_0, # of connection points: 2
#     Edge 45, Type (0, 0), BuildingBlock: UVAHIK_clean_linker_0, # of connection points: 2
#     Edge 46, Type (0, 0), BuildingBlock: UVAHIK_clean_linker_0, # of connection points: 2
#     Edge 47, Type (0, 0), BuildingBlock: UVAHIK_clean_linker_0, # of connection points: 2
#     Edge 48, Type (0, 0), BuildingBlock: UVAHIK_clean_linker_0, # of connection points: 2
#     Edge 49, Type (0, 0), BuildingBlock: UVAHIK_clean_linker_0, # of connection points: 2
#     Edge 50, Type (0, 0), BuildingBlock: UVAHIK_clean_linker_0, # of connection points: 2
#     Edge 51, Type (0, 0), BuildingBlock: UVAHIK_clean_linker_0, # of connection points: 2
#     Edge 52, Type (0, 0), BuildingBlock: UVAHIK_clean_linker_0, # of connection points: 2
#     Edge 53, Type (0, 0), BuildingBlock: UVAHIK_clean_linker_0, # of connection points: 2
#     Edge 54, Type (0, 0), BuildingBlock: UVAHIK_clean_linker_0, # of connection points: 2
#     Edge 55, Type (0, 0), BuildingBlock: UVAHIK_clean_linker_0, # of connection points: 2
#     Edge 56, Type (0, 0), BuildingBlock: UVAHIK_clean_linker_0, # of connection points: 2
#     Edge 57, Type (0, 0), BuildingBlock: UVAHIK_clean_linker_0, # of connection points: 2
#     Edge 58, Type (0, 0), BuildingBlock: UVAHIK_clean_linker_0, # of connection points: 2
#     Edge 59, Type (0, 0), BuildingBlock: UVAHIK_clean_linker_0, # of connection points: 2
#     Edge 60, Type (0, 0), BuildingBlock: UVAHIK_clean_linker_0, # of connection points: 2
#     Edge 61, Type (0, 0), BuildingBlock: UVAHIK_clean_linker_0, # of connection points: 2
#     Edge 62, Type (0, 0), BuildingBlock: UVAHIK_clean_linker_0, # of connection points: 2
#     Edge 63, Type (0, 0), BuildingBlock: UVAHIK_clean_linker_0, # of connection points: 2
#     Edge 64, Type (0, 0), BuildingBlock: UVAHIK_clean_linker_0, # of connection points: 2
#     Edge 65, Type (0, 0), BuildingBlock: UVAHIK_clean_linker_0, # of connection points: 2
#     Edge 66, Type (0, 0), BuildingBlock: UVAHIK_clean_linker_0, # of connection points: 2
#     Edge 67, Type (0, 0), BuildingBlock: UVAHIK_clean_linker_0, # of connection points: 2
#     Edge 68, Type (0, 0), BuildingBlock: UVAHIK_clean_linker_0, # of connection points: 2
#     Edge 69, Type (0, 0), BuildingBlock: UVAHIK_clean_linker_0, # of connection points: 2
#     Edge 70, Type (0, 0), BuildingBlock: UVAHIK_clean_linker_0, # of connection points: 2
#     Edge 71, Type (0, 0), BuildingBlock: UVAHIK_clean_linker_0, # of connection points: 2
#     Edge 72, Type (0, 0), BuildingBlock: UVAHIK_clean_linker_0, # of connection points: 2
#     Edge 73, Type (0, 0), BuildingBlock: UVAHIK_clean_linker_0, # of connection points: 2
#     Edge 74, Type (0, 0), BuildingBlock: UVAHIK_clean_linker_0, # of connection points: 2
#     Edge 75, Type (0, 0), BuildingBlock: UVAHIK_clean_linker_0, # of connection points: 2
#     Edge 76, Type (0, 0), BuildingBlock: UVAHIK_clean_linker_0, # of connection points: 2
#     Edge 77, Type (0, 0), BuildingBlock: UVAHIK_clean_linker_0, # of connection points: 2
#     Edge 78, Type (0, 0), BuildingBlock: UVAHIK_clean_linker_0, # of connection points: 2
#     Edge 79, Type (0, 0), BuildingBlock: UVAHIK_clean_linker_0, # of connection points: 2
#     Edge 80, Type (0, 0), BuildingBlock: UVAHIK_clean_linker_0, # of connection points: 2
#     Edge 81, Type (0, 0), BuildingBlock: UVAHIK_clean_linker_0, # of connection points: 2
#     Edge 82, Type (0, 0), BuildingBlock: UVAHIK_clean_linker_0, # of connection points: 2
#     Edge 83, Type (0, 0), BuildingBlock: UVAHIK_clean_linker_0, # of connection points: 2
#     Edge 84, Type (0, 0), BuildingBlock: UVAHIK_clean_linker_0, # of connection points: 2
#     Edge 85, Type (0, 0), BuildingBlock: UVAHIK_clean_linker_0, # of connection points: 2
#     Edge 86, Type (0, 0), BuildingBlock: UVAHIK_clean_linker_0, # of connection points: 2
#     Edge 87, Type (0, 0), BuildingBlock: UVAHIK_clean_linker_0, # of connection points: 2
#     Edge 88, Type (0, 0), BuildingBlock: UVAHIK_clean_linker_0, # of connection points: 2
#     Edge 89, Type (0, 0), BuildingBlock: UVAHIK_clean_linker_0, # of connection points: 2
#     Edge 90, Type (0, 0), BuildingBlock: UVAHIK_clean_linker_0, # of connection points: 2
#     Edge 91, Type (0, 0), BuildingBlock: UVAHIK_clean_linker_0, # of connection points: 2
#     Edge 92, Type (0, 0), BuildingBlock: UVAHIK_clean_linker_0, # of connection points: 2
#     Edge 93, Type (0, 0), BuildingBlock: UVAHIK_clean_linker_0, # of connection points: 2
#     Edge 94, Type (0, 0), BuildingBlock: UVAHIK_clean_linker_0, # of connection points: 2
#     Edge 95, Type (0, 0), BuildingBlock: UVAHIK_clean_linker_0, # of connection points: 2
# Relax obj value: 0.160
# Max RMSD: 0.165
# Mean RMSD: 0.152
data_MOF--net-mer--node1-NAHDIM_clean_sbu_0--edge1-UVAHIK_clean_linker_0
_symmetry_space_group_name_H-M    P1
_symmetry_Int_Tables_number       1
_symmetry_cell_setting            triclinic
loop_
_symmetry_equiv_pos_as_xyz
'x, y, z'
_cell_length_a     88.967227
_cell_length_b     86.943894
_cell_length_c     56.930806
_cell_angle_alpha  90.02875
_cell_angle_beta   90.007916
_cell_angle_gamma 90.016083
loop_
_atom_site_label
_atom_site_type_symbol
_atom_site_fract_x
_atom_site_fract_y
_atom_site_fract_z
_atom_type_partial_charge
C0 C 0.06398 0.23808 0.29034 0.0
O1 O 0.07304 0.2436 0.2742 0.0
O2 O 0.09725 0.25875 0.30006 0.0
Zn3 Zn 0.09014 0.24107 0.31963 0.0
O4 O 0.09136 0.24662 0.3538 0.0
C5 C 0.10949 0.22006 0.29436 0.0
O6 O 0.1068 0.22928 0.27657 0.0
O7 O 0.06891 0.23594 0.31104 0.0
C8 C 0.10427 0.24748 0.36325 0.0
O9 O 0.11624 0.24509 0.35023 0.0
C10 C 0.09317 0.27249 0.3041 0.0
O11 O 0.08426 0.27535 0.32198 0.0
O12 O 0.10338 0.22278 0.31408 0.0
C13 C 0.68514 0.11453 0.31892 0.0
O14 O 0.68895 0.10111 0.31015 0.0
O15 O 0.7129 0.08808 0.33899 0.0
Zn16 Zn 0.70993 0.10941 0.35162 0.0
O17 O 0.72835 0.12178 0.34434 0.0
C18 C 0.7101 0.09704 0.39883 0.0
O19 O 0.71444 0.08443 0.38807 0.0
O20 O 0.69226 0.11983 0.33651 0.0
C21 C 0.74089 0.11826 0.35353 0.0
O22 O 0.74161 0.10649 0.36795 0.0
C23 C 0.72007 0.0857 0.32002 0.0
O24 O 0.72518 0.09749 0.308 0.0
O25 O 0.70728 0.10899 0.38677 0.0
C26 C 0.92817 0.75246 0.28674 0.0
O27 O 0.91949 0.74701 0.27003 0.0
O28 O 0.89536 0.73045 0.29547 0.0
Zn29 Zn 0.90172 0.74832 0.31532 0.0
O30 O 0.90067 0.74262 0.34942 0.0
C31 C 0.88281 0.76886 0.28898 0.0
O32 O 0.88662 0.75982 0.27146 0.0
O33 O 0.92288 0.75412 0.30732 0.0
C34 C 0.88822 0.73887 0.35873 0.0
O35 O 0.87606 0.73856 0.34565 0.0
C36 C 0.90006 0.71687 0.29911 0.0
O37 O 0.9092 0.71424 0.31678 0.0
O38 O 0.88802 0.76619 0.30935 0.0
C39 C 0.30581 0.87077 0.33271 0.0
O40 O 0.30835 0.87704 0.35333 0.0
O41 O 0.27071 0.89952 0.33356 0.0
Zn42 Zn 0.27433 0.87759 0.34226 0.0
O43 O 0.25644 0.86524 0.33237 0.0
C44 C 0.28051 0.88688 0.39008 0.0
O45 O 0.28383 0.90007 0.38009 0.0
O46 O 0.29243 0.86983 0.32509 0.0
C47 C 0.2439 0.86778 0.34229 0.0
O48 O 0.24306 0.87845 0.35858 0.0
C49 C 0.2675 0.90313 0.31254 0.0
O50 O 0.26671 0.89227 0.29651 0.0
O51 O 0.27662 0.87557 0.37729 0.0
C52 C 0.06577 0.75163 0.71249 0.0
O53 O 0.07302 0.7432 0.72792 0.0
O54 O 0.10099 0.73354 0.70668 0.0
Zn55 Zn 0.09395 0.75106 0.68665 0.0
O56 O 0.09523 0.74523 0.65259 0.0
C57 C 0.11161 0.77293 0.71278 0.0
O58 O 0.10764 0.76428 0.73066 0.0
O59 O 0.07255 0.75626 0.69416 0.0
C60 C 0.10788 0.74395 0.64245 0.0
O61 O 0.12022 0.74625 0.65465 0.0
C62 C 0.09671 0.71979 0.70317 0.0
O63 O 0.08756 0.71682 0.68563 0.0
O64 O 0.10698 0.7695 0.69233 0.0
C65 C 0.30269 0.12893 0.6854 0.0
O66 O 0.28958 0.12608 0.69507 0.0
O67 O 0.28746 0.09108 0.66226 0.0
Zn68 Zn 0.28845 0.11252 0.64914 0.0
O69 O 0.26926 0.12381 0.65608 0.0
C70 C 0.28818 0.10015 0.60204 0.0
O71 O 0.28381 0.08761 0.61295 0.0
O72 O 0.3053 0.12394 0.66482 0.0
C73 C 0.25676 0.12024 0.6468 0.0
O74 O 0.25616 0.10869 0.63193 0.0
C75 C 0.27819 0.08724 0.67821 0.0
O76 O 0.26892 0.09757 0.68677 0.0
O77 O 0.2912 0.11211 0.614 0.0
C78 C 0.92482 0.23183 0.67325 0.0
O79 O 0.91927 0.22746 0.65293 0.0
O80 O 0.88962 0.26282 0.69915 0.0
Zn81 Zn 0.89536 0.24477 0.67923 0.0
O82 O 0.89449 0.25032 0.64501 0.0
C83 C 0.8683 0.22954 0.69373 0.0
O84 O 0.86415 0.24376 0.69807 0.0
O85 O 0.91647 0.23907 0.68757 0.0
C86 C 0.88242 0.25472 0.63517 0.0
O87 O 0.87011 0.25597 0.64777 0.0
C88 C 0.89372 0.27652 0.69483 0.0
O89 O 0.90196 0.27933 0.67616 0.0
O90 O 0.88138 0.22704 0.68558 0.0
C91 C 0.67879 0.87795 0.66902 0.0
O92 O 0.67854 0.89306 0.66926 0.0
O93 O 0.71117 0.90205 0.65948 0.0
Zn94 Zn 0.7075 0.88145 0.64471 0.0
O95 O 0.72568 0.86837 0.65061 0.0
C96 C 0.711 0.89453 0.59871 0.0
O97 O 0.71825 0.90514 0.61061 0.0
O98 O 0.68969 0.871 0.65923 0.0
C99 C 0.73873 0.87429 0.65141 0.0
O100 O 0.74027 0.88918 0.64833 0.0
C101 C 0.71241 0.90373 0.68157 0.0
O102 O 0.71034 0.89184 0.69544 0.0
O103 O 0.70499 0.88339 0.60971 0.0
C104 C 0.90726 0.7465 0.68818 0.0
O105 O 0.8992 0.73636 0.69973 0.0
O106 O 0.87147 0.73067 0.67356 0.0
Zn107 Zn 0.88225 0.74685 0.65503 0.0
O108 O 0.88544 0.73985 0.62182 0.0
C109 C 0.86421 0.77168 0.67271 0.0
O110 O 0.86837 0.76611 0.69316 0.0
O111 O 0.90213 0.75228 0.66931 0.0
C112 C 0.87415 0.73676 0.60898 0.0
O113 O 0.86061 0.73767 0.61808 0.0
C114 C 0.87281 0.71633 0.66988 0.0
O115 O 0.88207 0.71147 0.65351 0.0
O116 O 0.8691 0.76546 0.65404 0.0
C117 C 0.26736 0.92532 0.69367 0.0
O118 O 0.27867 0.91791 0.68409 0.0
O119 O 0.27042 0.88425 0.70263 0.0
Zn120 Zn 0.2543 0.89634 0.68604 0.0
O121 O 0.25782 0.89588 0.65118 0.0
C122 C 0.23075 0.88205 0.71313 0.0
O123 O 0.24041 0.88369 0.73041 0.0
O124 O 0.25503 0.91826 0.69685 0.0
C125 C 0.25587 0.8836 0.63948 0.0
O126 O 0.25132 0.87113 0.65041 0.0
C127 C 0.28266 0.88044 0.69268 0.0
O128 O 0.28504 0.88448 0.67077 0.0
O129 O 0.23419 0.88693 0.69281 0.0
C130 C 0.0826 0.25164 0.67495 0.0
O131 O 0.08654 0.26534 0.66741 0.0
O132 O 0.12114 0.26452 0.67832 0.0
Zn133 Zn 0.11279 0.24565 0.66249 0.0
O134 O 0.11075 0.24966 0.62777 0.0
C135 C 0.13652 0.22654 0.68257 0.0
O136 O 0.13837 0.23798 0.69738 0.0
O137 O 0.09232 0.24096 0.6751 0.0
C138 C 0.12097 0.24566 0.61341 0.0
O139 O 0.13314 0.23889 0.62141 0.0
C140 C 0.13316 0.2706 0.67066 0.0
O141 O 0.14008 0.26424 0.65275 0.0
O142 O 0.12628 0.22739 0.66708 0.0
C143 C 0.73835 0.05994 0.72165 0.0
O144 O 0.7326 0.06855 0.73836 0.0
O145 O 0.7193 0.09524 0.71308 0.0
Zn146 Zn 0.73667 0.08778 0.69364 0.0
O147 O 0.73131 0.08856 0.65938 0.0
C148 C 0.7531 0.11489 0.7066 0.0
O149 O 0.73951 0.11992 0.71131 0.0
O150 O 0.74124 0.0659 0.70178 0.0
C151 C 0.72696 0.10085 0.64941 0.0
O152 O 0.72582 0.11353 0.66184 0.0
C153 C 0.70566 0.09401 0.70673 0.0
O154 O 0.70244 0.08725 0.68671 0.0
O155 O 0.75476 0.10122 0.6991 0.0
C156 C 0.90716 0.2439 0.3032 0.0
O157 O 0.89743 0.25028 0.28885 0.0
O158 O 0.87358 0.26374 0.32011 0.0
Zn159 Zn 0.88331 0.2465 0.33783 0.0
O160 O 0.88572 0.25234 0.37171 0.0
C161 C 0.86062 0.22585 0.31997 0.0
O162 O 0.85969 0.23607 0.30305 0.0
O163 O 0.90346 0.24139 0.32441 0.0
C164 C 0.87425 0.25603 0.38377 0.0
O165 O 0.86102 0.25636 0.37354 0.0
C166 C 0.87649 0.27783 0.32378 0.0
O167 O 0.88656 0.28157 0.33967 0.0
O168 O 0.87008 0.22785 0.3364 0.0
C169 C 0.73812 0.9264 0.27652 0.0
O170 O 0.72767 0.91882 0.26504 0.0
O171 O 0.72506 0.88804 0.28552 0.0
Zn172 Zn 0.74202 0.89796 0.30319 0.0
O173 O 0.73702 0.89874 0.33759 0.0
C174 C 0.76452 0.87991 0.27938 0.0
O175 O 0.75597 0.88243 0.26097 0.0
O176 O 0.74557 0.91962 0.2925 0.0
C177 C 0.73153 0.88732 0.34854 0.0
O178 O 0.72898 0.87445 0.33711 0.0
C179 C 0.7114 0.89067 0.29071 0.0
O180 O 0.70827 0.90039 0.30769 0.0
O181 O 0.76078 0.88554 0.29912 0.0
C182 C 0.08365 0.73997 0.30866 0.0
O183 O 0.09331 0.73343 0.29433 0.0
O184 O 0.11223 0.71421 0.32793 0.0
Zn185 Zn 0.10688 0.73446 0.34287 0.0
O186 O 0.10531 0.73239 0.37809 0.0
C187 C 0.12079 0.7628 0.3256 0.0
O188 O 0.10712 0.76664 0.31918 0.0
O189 O 0.08708 0.7416 0.33019 0.0
C190 C 0.11672 0.73489 0.39101 0.0
O191 O 0.12957 0.73855 0.38109 0.0
C192 C 0.12015 0.70418 0.3384 0.0
O193 O 0.12477 0.70687 0.35992 0.0
O194 O 0.12304 0.74987 0.33539 0.0
C195 C 0.26186 0.06475 0.28679 0.0
O196 O 0.27486 0.07144 0.28291 0.0
O197 O 0.27006 0.10487 0.28879 0.0
Zn198 Zn 0.25448 0.09392 0.30817 0.0
O199 O 0.26078 0.0934 0.34207 0.0
C200 C 0.23072 0.11143 0.28675 0.0
O201 O 0.23903 0.10977 0.26785 0.0
O202 O 0.25147 0.07227 0.2969 0.0
C203 C 0.26365 0.10581 0.35299 0.0
O204 O 0.26259 0.11897 0.34177 0.0
C205 C 0.28384 0.1055 0.2946 0.0
O206 O 0.28836 0.09848 0.31377 0.0
O207 O 0.23504 0.10544 0.30594 0.0
C208 C 0.57306 0.74328 0.81063 0.0
O209 O 0.58147 0.75006 0.79475 0.0
O210 O 0.60839 0.76051 0.81875 0.0
Zn211 Zn 0.60057 0.74286 0.83774 0.0
O212 O 0.60253 0.74721 0.87221 0.0
C213 C 0.61525 0.72079 0.80836 0.0
O214 O 0.61044 0.73008 0.79179 0.0
O215 O 0.57887 0.73924 0.83007 0.0
C216 C 0.61523 0.74974 0.88167 0.0
O217 O 0.62734 0.74979 0.86847 0.0
C218 C 0.60398 0.77428 0.82162 0.0
O219 O 0.59423 0.77739 0.83829 0.0
O220 O 0.61233 0.72392 0.82968 0.0
C221 C 0.1794 0.61514 0.84094 0.0
O222 O 0.17954 0.60003 0.84067 0.0
O223 O 0.21282 0.59183 0.84464 0.0
Zn224 Zn 0.21 0.6126 0.85927 0.0
O225 O 0.22717 0.62573 0.84852 0.0
C226 C 0.21098 0.59884 0.9058 0.0
O227 O 0.21082 0.5858 0.89412 0.0
O228 O 0.19084 0.62241 0.84839 0.0
C229 C 0.2404 0.62025 0.84869 0.0
O230 O 0.24255 0.60617 0.85635 0.0
C231 C 0.21213 0.59005 0.82252 0.0
O232 O 0.20879 0.60186 0.80911 0.0
O233 O 0.2105 0.61146 0.89456 0.0
C234 C 0.43003 0.26658 0.79447 0.0
O235 O 0.42097 0.26203 0.77763 0.0
O236 O 0.3934 0.24859 0.80873 0.0
Zn237 Zn 0.40328 0.26662 0.82442 0.0
O238 O 0.40212 0.26346 0.85927 0.0
C239 C 0.38705 0.28774 0.79523 0.0
O240 O 0.39029 0.27754 0.77897 0.0
O241 O 0.42484 0.26904 0.81493 0.0
C242 C 0.3893 0.26358 0.86909 0.0
O243 O 0.37728 0.26584 0.85613 0.0
C244 C 0.39974 0.2361 0.80275 0.0
O245 O 0.41418 0.23421 0.80652 0.0
O246 O 0.39172 0.28563 0.81606 0.0
C247 C 0.81055 0.37717 0.83559 0.0
O248 O 0.80869 0.39212 0.83411 0.0
O249 O 0.77687 0.39843 0.84457 0.0
Zn250 Zn 0.78034 0.37689 0.85574 0.0
O251 O 0.76409 0.36351 0.84249 0.0
C252 C 0.78309 0.38747 0.90359 0.0
O253 O 0.78809 0.40002 0.89338 0.0
O254 O 0.80022 0.3689 0.84445 0.0
C255 C 0.75041 0.36708 0.84575 0.0
O256 O 0.7472 0.3795 0.85793 0.0
C257 C 0.775 0.40131 0.82289 0.0
O258 O 0.77559 0.39 0.80762 0.0
O259 O 0.7793 0.37605 0.89097 0.0
C260 C 0.56352 0.25439 0.2075 0.0
O261 O 0.57283 0.24782 0.22233 0.0
O262 O 0.5982 0.237 0.19528 0.0
Zn263 Zn 0.58957 0.25481 0.1775 0.0
O264 O 0.5907 0.25068 0.14284 0.0
C265 C 0.60613 0.27621 0.20577 0.0
O266 O 0.60232 0.26661 0.22256 0.0
O267 O 0.56822 0.2583 0.18728 0.0
C268 C 0.60357 0.24997 0.13326 0.0
O269 O 0.6156 0.25189 0.14634 0.0
C270 C 0.59786 0.22318 0.18806 0.0
O271 O 0.59159 0.22001 0.16774 0.0
O272 O 0.60176 0.27359 0.1849 0.0
C273 C 0.81545 0.61245 0.16516 0.0
O274 O 0.81383 0.59757 0.16825 0.0
O275 O 0.78283 0.58952 0.15677 0.0
Zn276 Zn 0.78535 0.61105 0.14493 0.0
O277 O 0.76865 0.62399 0.15788 0.0
C278 C 0.7897 0.60109 0.09688 0.0
O279 O 0.79775 0.59016 0.10663 0.0
O280 O 0.80501 0.62008 0.15533 0.0
C281 C 0.7552 0.61914 0.15685 0.0
O282 O 0.7525 0.60564 0.14737 0.0
C283 C 0.77976 0.58691 0.1782 0.0
O284 O 0.77865 0.59851 0.19288 0.0
O285 O 0.78367 0.61127 0.10983 0.0
C286 C 0.42605 0.74646 0.16614 0.0
O287 O 0.42192 0.75644 0.15006 0.0
O288 O 0.38862 0.76361 0.18466 0.0
Zn289 Zn 0.39447 0.74352 0.16978 0.0
O290 O 0.39215 0.74506 0.13478 0.0
C291 C 0.36909 0.72907 0.19246 0.0
O292 O 0.36498 0.74338 0.19608 0.0
O293 O 0.41603 0.73903 0.17723 0.0
C294 C 0.37935 0.74479 0.12488 0.0
O295 O 0.36721 0.74354 0.13787 0.0
C296 C 0.39537 0.76875 0.20271 0.0
O297 O 0.40659 0.76088 0.21168 0.0
O298 O 0.38137 0.72638 0.1818 0.0
C299 C 0.1768 0.37618 0.16591 0.0
O300 O 0.17862 0.39103 0.16903 0.0
O301 O 0.20902 0.39901 0.15424 0.0
Zn302 Zn 0.20573 0.37766 0.14193 0.0
O303 O 0.22301 0.36464 0.15253 0.0
C304 C 0.20304 0.38964 0.09458 0.0
O305 O 0.20027 0.40268 0.10543 0.0
O306 O 0.18669 0.36859 0.1547 0.0
C307 C 0.23632 0.36943 0.14911 0.0
O308 O 0.23836 0.38268 0.13847 0.0
C309 C 0.21348 0.4011 0.17521 0.0
O310 O 0.21548 0.38913 0.18894 0.0
O311 O 0.20541 0.37759 0.10663 0.0
C312 C 0.40664 0.25072 0.20255 0.0
O313 O 0.39718 0.24334 0.21624 0.0
O314 O 0.37566 0.22853 0.18137 0.0
Zn315 Zn 0.38259 0.24886 0.16843 0.0
O316 O 0.38451 0.24767 0.13318 0.0
C317 C 0.35638 0.26402 0.189 0.0
O318 O 0.35357 0.25057 0.19852 0.0
O319 O 0.4027 0.25417 0.18176 0.0
C320 C 0.37382 0.25199 0.11991 0.0
O321 O 0.3613 0.25701 0.12942 0.0
C322 C 0.36522 0.22095 0.17146 0.0
O323 O 0.35898 0.22647 0.15234 0.0
O324 O 0.36804 0.26574 0.17642 0.0
C325 C 0.75964 0.42756 0.22055 0.0
O326 O 0.77136 0.41948 0.22716 0.0
O327 O 0.76567 0.38711 0.21637 0.0
Zn328 Zn 0.75021 0.39908 0.19826 0.0
O329 O 0.75545 0.39865 0.16395 0.0
C330 C 0.72577 0.38405 0.22219 0.0
O331 O 0.73456 0.38569 0.24056 0.0
O332 O 0.74928 0.42109 0.20877 0.0
C333 C 0.75476 0.38612 0.15251 0.0
O334 O 0.75059 0.37351 0.16343 0.0
C335 C 0.77924 0.38628 0.20952 0.0
O336 O 0.78334 0.39371 0.19047 0.0
O337 O 0.73009 0.38913 0.20239 0.0
C338 C 0.58389 0.74683 0.20418 0.0
O339 O 0.58966 0.7586 0.21549 0.0
O340 O 0.61959 0.76464 0.19683 0.0
Zn341 Zn 0.61291 0.74537 0.18039 0.0
O342 O 0.61289 0.74881 0.14551 0.0
C343 C 0.64032 0.73029 0.19456 0.0
O344 O 0.64485 0.74447 0.19819 0.0
O345 O 0.5919 0.73957 0.18941 0.0
C346 C 0.62475 0.75156 0.13383 0.0
O347 O 0.6377 0.75243 0.14484 0.0
C348 C 0.61662 0.77789 0.18862 0.0
O349 O 0.60865 0.77902 0.16928 0.0
O350 O 0.62698 0.72791 0.18744 0.0
C351 C 0.23315 0.55928 0.22566 0.0
O352 O 0.22174 0.56654 0.2352 0.0
O353 O 0.22031 0.59702 0.21953 0.0
Zn354 Zn 0.23831 0.58849 0.20254 0.0
O355 O 0.23458 0.58874 0.16772 0.0
C356 C 0.25517 0.61498 0.21766 0.0
O357 O 0.24168 0.6202 0.22259 0.0
O358 O 0.24192 0.56653 0.21196 0.0
C359 C 0.23328 0.60124 0.15634 0.0
O360 O 0.23436 0.61438 0.16762 0.0
C361 C 0.20725 0.59773 0.21055 0.0
O362 O 0.20503 0.59249 0.18918 0.0
O363 O 0.25656 0.60149 0.20931 0.0
C364 C 0.41277 0.74244 0.79851 0.0
O365 O 0.4055 0.75146 0.7839 0.0
O366 O 0.37843 0.76204 0.80925 0.0
Zn367 Zn 0.38486 0.74242 0.82524 0.0
O368 O 0.38429 0.74471 0.86045 0.0
C369 C 0.35813 0.72746 0.80777 0.0
O370 O 0.35386 0.74167 0.80375 0.0
O371 O 0.40605 0.73724 0.81651 0.0
C372 C 0.37242 0.74235 0.87234 0.0
O373 O 0.35993 0.73867 0.86138 0.0
C374 C 0.37217 0.77304 0.82023 0.0
O375 O 0.37015 0.77195 0.84301 0.0
O376 O 0.37113 0.725 0.81625 0.0
C377 C 0.23475 0.4334 0.77515 0.0
O378 O 0.22814 0.4247 0.75935 0.0
O379 O 0.22439 0.39356 0.78195 0.0
Zn380 Zn 0.23911 0.40502 0.80209 0.0
O381 O 0.23292 0.40347 0.8359 0.0
C382 C 0.26431 0.39126 0.77851 0.0
O383 O 0.25582 0.39327 0.75988 0.0
O384 O 0.24004 0.42732 0.79367 0.0
C385 C 0.23219 0.39056 0.84628 0.0
O386 O 0.23555 0.37799 0.83458 0.0
C387 C 0.21053 0.39275 0.78717 0.0
O388 O 0.20556 0.40002 0.80585 0.0
O389 O 0.2595 0.39558 0.79846 0.0
C390 C 0.58736 0.24197 0.8021 0.0
O391 O 0.59383 0.23141 0.78905 0.0
O392 O 0.61655 0.21631 0.81996 0.0
Zn393 Zn 0.61259 0.23714 0.83398 0.0
O394 O 0.61031 0.23537 0.86915 0.0
C395 C 0.63051 0.26104 0.8107 0.0
O396 O 0.61909 0.26241 0.79623 0.0
O397 O 0.5935 0.24606 0.82126 0.0
C398 C 0.62116 0.23839 0.88295 0.0
O399 O 0.63421 0.24241 0.87409 0.0
C400 C 0.62646 0.20776 0.82927 0.0
O401 O 0.63368 0.2127 0.84792 0.0
O402 O 0.62996 0.25115 0.8271 0.0
C403 C 0.76351 0.56187 0.78676 0.0
O404 O 0.77629 0.56933 0.78878 0.0
O405 O 0.76714 0.60287 0.78426 0.0
Zn406 Zn 0.7519 0.59066 0.80239 0.0
O407 O 0.75774 0.59071 0.83662 0.0
C408 C 0.72686 0.60569 0.77941 0.0
O409 O 0.73524 0.60423 0.76054 0.0
O410 O 0.7513 0.56887 0.79115 0.0
C411 C 0.75201 0.60026 0.85096 0.0
O412 O 0.74206 0.61023 0.8433 0.0
C413 C 0.76788 0.61725 0.78806 0.0
O414 O 0.75862 0.62347 0.8033 0.0
O415 O 0.73159 0.60039 0.79883 0.0
C416 C 0.20786 0.12223 0.30627 0.0
C417 C 0.2169 0.12087 0.28613 0.0
C418 C 0.19531 0.13184 0.30624 0.0
C419 C 0.16894 0.15283 0.26756 0.0
H420 H 0.16358 0.17851 0.32265 0.0
C421 C 0.12829 0.20493 0.27103 0.0
C422 C 0.12032 0.20725 0.29205 0.0
C423 C 0.13927 0.19347 0.26953 0.0
C424 C 0.16478 0.17128 0.30726 0.0
H425 H 0.21961 0.12821 0.24997 0.0
H426 H 0.19777 0.14518 0.25003 0.0
H427 H 0.18417 0.16016 0.32142 0.0
H428 H 0.11722 0.19897 0.32769 0.0
H429 H 0.13623 0.17894 0.32497 0.0
H430 H 0.14958 0.16417 0.25335 0.0
C431 C 0.20032 0.13867 0.26576 0.0
C432 C 0.17659 0.16075 0.30656 0.0
C433 C 0.21288 0.12902 0.26577 0.0
C434 C 0.12324 0.19757 0.31129 0.0
C435 C 0.13419 0.18614 0.30978 0.0
C436 C 0.1571 0.16341 0.26826 0.0
C437 C 0.19152 0.14035 0.28611 0.0
C438 C 0.1788 0.15138 0.28674 0.0
C439 C 0.1425 0.18412 0.28903 0.0
C440 C 0.15489 0.17272 0.28815 0.0
H441 H 0.21057 0.11601 0.3222 0.0
H442 H 0.1886 0.13267 0.32207 0.0
H443 H 0.17026 0.14567 0.25213 0.0
H444 H 0.1263 0.21219 0.25588 0.0
H445 H 0.14557 0.19226 0.25335 0.0
C446 C 0.75398 0.13905 0.33108 0.0
C447 C 0.75443 0.1275 0.34833 0.0
C448 C 0.76662 0.1481 0.32661 0.0
C449 C 0.80071 0.1624 0.35488 0.0
H450 H 0.81255 0.17341 0.29151 0.0
C451 C 0.85191 0.20112 0.33782 0.0
C452 C 0.85008 0.21273 0.32089 0.0
C453 C 0.84136 0.18931 0.33985 0.0
C454 C 0.80932 0.17053 0.30931 0.0
H455 H 0.76857 0.1162 0.37414 0.0
H456 H 0.79064 0.13211 0.36638 0.0
H457 H 0.7919 0.15534 0.29759 0.0
H458 H 0.83596 0.22083 0.2924 0.0
H459 H 0.81738 0.20042 0.29628 0.0
H460 H 0.81776 0.17787 0.36671 0.0
C461 C 0.78047 0.13417 0.35642 0.0
C462 C 0.79752 0.16017 0.31277 0.0
C463 C 0.76785 0.12504 0.36078 0.0
C464 C 0.83771 0.21204 0.3056 0.0
C465 C 0.82709 0.20028 0.30774 0.0
C466 C 0.81243 0.17282 0.35143 0.0
C467 C 0.77994 0.14586 0.33939 0.0
C468 C 0.79302 0.15611 0.3356 0.0
C469 C 0.82868 0.1889 0.32512 0.0
C470 C 0.8168 0.17712 0.32862 0.0
H471 H 0.74382 0.1412 0.32113 0.0
H472 H 0.76583 0.15713 0.31357 0.0
H473 H 0.79735 0.15965 0.37267 0.0
H474 H 0.8614 0.20125 0.34973 0.0
H475 H 0.84308 0.18057 0.35313 0.0
C476 C 0.86555 0.78415 0.26318 0.0
C477 C 0.87218 0.7817 0.28528 0.0
C478 C 0.85505 0.79593 0.26002 0.0
C479 C 0.84112 0.83205 0.28656 0.0
H480 H 0.80411 0.82222 0.25381 0.0
C481 C 0.78724 0.86772 0.29726 0.0
C482 C 0.77807 0.87014 0.27751 0.0
C483 C 0.7997 0.85802 0.29592 0.0
C484 C 0.81448 0.82524 0.26266 0.0
H485 H 0.87317 0.78986 0.32129 0.0
H486 H 0.85482 0.81028 0.3158 0.0
H487 H 0.82425 0.80324 0.25555 0.0
H488 H 0.77496 0.8645 0.2407 0.0
H489 H 0.79681 0.84755 0.23836 0.0
H490 H 0.83123 0.85394 0.29407 0.0
C491 C 0.85784 0.80322 0.30085 0.0
C492 C 0.82602 0.81437 0.26366 0.0
C493 C 0.86829 0.79143 0.30402 0.0
C494 C 0.78178 0.86284 0.25626 0.0
C495 C 0.79424 0.85308 0.25493 0.0
C496 C 0.82959 0.84292 0.28556 0.0
C497 C 0.85103 0.80553 0.27886 0.0
C498 C 0.83935 0.81756 0.27598 0.0
C499 C 0.80328 0.8505 0.2748 0.0
C500 C 0.81604 0.83953 0.27395 0.0
H501 H 0.86834 0.77687 0.24837 0.0
H502 H 0.85009 0.79753 0.24282 0.0
H503 H 0.85137 0.83495 0.29583 0.0
H504 H 0.78471 0.87316 0.31392 0.0
H505 H 0.8063 0.8561 0.31164 0.0
C506 C 0.1476 0.77025 0.33212 0.0
C507 C 0.13339 0.77373 0.32276 0.0
C508 C 0.15934 0.78084 0.33062 0.0
C509 C 0.16649 0.82227 0.32373 0.0
H510 H 0.20762 0.80849 0.31573 0.0
C511 C 0.21743 0.85942 0.34978 0.0
C512 C 0.23062 0.85834 0.33634 0.0
C513 C 0.20518 0.84986 0.34505 0.0
C514 C 0.1962 0.8126 0.31764 0.0
H515 H 0.12046 0.7909 0.30391 0.0
H516 H 0.14107 0.80934 0.30097 0.0
H517 H 0.18715 0.79012 0.31204 0.0
H518 H 0.24112 0.84681 0.30679 0.0
H519 H 0.21966 0.83031 0.29826 0.0
H520 H 0.17556 0.8448 0.3291 0.0
C521 C 0.14304 0.7985 0.30982 0.0
C522 C 0.18446 0.80201 0.31583 0.0
C523 C 0.13126 0.78791 0.3114 0.0
C524 C 0.23116 0.84782 0.31762 0.0
C525 C 0.21888 0.83832 0.31279 0.0
C526 C 0.17824 0.83288 0.32543 0.0
C527 C 0.15718 0.79514 0.31961 0.0
C528 C 0.1695 0.80666 0.3193 0.0
C529 C 0.20583 0.83906 0.32667 0.0
C530 C 0.19324 0.82812 0.32282 0.0
H531 H 0.14961 0.75945 0.34107 0.0
H532 H 0.16999 0.77797 0.3387 0.0
H533 H 0.15511 0.82622 0.32667 0.0
H534 H 0.21667 0.8674 0.36436 0.0
H535 H 0.1954 0.8506 0.3563 0.0
C536 C 0.1284 0.78908 0.73818 0.0
C537 C 0.12185 0.78615 0.71615 0.0
C538 C 0.13867 0.80112 0.74095 0.0
C539 C 0.15228 0.83699 0.71313 0.0
H540 H 0.18974 0.82749 0.74478 0.0
C541 C 0.20655 0.87133 0.69789 0.0
C542 C 0.21653 0.87354 0.71673 0.0
C543 C 0.19371 0.86229 0.70065 0.0
C544 C 0.17924 0.83045 0.73628 0.0
H545 H 0.12068 0.79378 0.6799 0.0
H546 H 0.13861 0.81467 0.68473 0.0
H547 H 0.16948 0.80863 0.74457 0.0
H548 H 0.22057 0.86845 0.7535 0.0
H549 H 0.19803 0.85273 0.75835 0.0
H550 H 0.16216 0.85869 0.70439 0.0
C551 C 0.13572 0.80778 0.69991 0.0
C552 C 0.16763 0.81963 0.73615 0.0
C553 C 0.12552 0.79572 0.69712 0.0
C554 C 0.21314 0.86691 0.73861 0.0
C555 C 0.20027 0.85784 0.74136 0.0
C556 C 0.16387 0.84782 0.7133 0.0
C557 C 0.14252 0.81052 0.72179 0.0
C558 C 0.15415 0.82266 0.72414 0.0
C559 C 0.19053 0.85526 0.72231 0.0
C560 C 0.1776 0.84455 0.72445 0.0
H561 H 0.12578 0.78194 0.75321 0.0
H562 H 0.14364 0.80305 0.75808 0.0
H563 H 0.14191 0.83975 0.70408 0.0
H564 H 0.20882 0.87627 0.6808 0.0
H565 H 0.18656 0.86037 0.68553 0.0
C566 C 0.24374 0.14095 0.66949 0.0
C567 C 0.24311 0.12915 0.65262 0.0
C568 C 0.23103 0.14976 0.67453 0.0
C569 C 0.19565 0.16253 0.64817 0.0
H570 H 0.18618 0.17555 0.71165 0.0
C571 C 0.14458 0.20091 0.66715 0.0
C572 C 0.14705 0.2134 0.68236 0.0
C573 C 0.15515 0.18912 0.6653 0.0
C574 C 0.18874 0.17208 0.69382 0.0
H575 H 0.22855 0.11712 0.62818 0.0
H576 H 0.20631 0.13253 0.63702 0.0
H577 H 0.20684 0.15758 0.70496 0.0
H578 H 0.16232 0.22303 0.70818 0.0
H579 H 0.18091 0.20257 0.70466 0.0
H580 H 0.17785 0.17727 0.6369 0.0
C581 C 0.2167 0.13503 0.64618 0.0
C582 C 0.20055 0.16179 0.68999 0.0
C583 C 0.22942 0.12617 0.64119 0.0
C584 C 0.16007 0.21356 0.69631 0.0
C585 C 0.1707 0.20179 0.69438 0.0
C586 C 0.18388 0.17284 0.65197 0.0
C587 C 0.21741 0.14699 0.66277 0.0
C588 C 0.20423 0.15704 0.6671 0.0
C589 C 0.16848 0.18958 0.67853 0.0
C590 C 0.18038 0.17786 0.67481 0.0
H591 H 0.25411 0.14353 0.67866 0.0
H592 H 0.23199 0.15901 0.68718 0.0
H593 H 0.19836 0.15928 0.6303 0.0
H594 H 0.13458 0.20036 0.65631 0.0
H595 H 0.15297 0.17974 0.65325 0.0
C596 C 0.78061 0.12043 0.70201 0.0
C597 C 0.76616 0.12532 0.70867 0.0
C598 C 0.79275 0.13063 0.7027 0.0
C599 C 0.80521 0.16786 0.72763 0.0
H600 H 0.83136 0.16905 0.67316 0.0
C601 C 0.84332 0.21956 0.70682 0.0
C602 C 0.85772 0.21669 0.69772 0.0
C603 C 0.83312 0.20754 0.70999 0.0
C604 C 0.82432 0.16871 0.68867 0.0
H605 H 0.75321 0.14464 0.72182 0.0
H606 H 0.77432 0.16242 0.72281 0.0
H607 H 0.81183 0.14947 0.67571 0.0
H608 H 0.87281 0.1989 0.68513 0.0
H609 H 0.85498 0.17788 0.69079 0.0
H610 H 0.81754 0.18729 0.74038 0.0
C611 C 0.77632 0.15067 0.71729 0.0
C612 C 0.81313 0.15748 0.69014 0.0
C613 C 0.76419 0.1405 0.71657 0.0
C614 C 0.86178 0.2015 0.69212 0.0
C615 C 0.85155 0.18947 0.69525 0.0
C616 C 0.8164 0.17909 0.72616 0.0
C617 C 0.7907 0.14591 0.71012 0.0
C618 C 0.80332 0.15707 0.70948 0.0
C619 C 0.83708 0.19238 0.70411 0.0
C620 C 0.82594 0.17977 0.70651 0.0
H621 H 0.78252 0.10879 0.69593 0.0
H622 H 0.80373 0.12657 0.69733 0.0
H623 H 0.79799 0.16767 0.74294 0.0
H624 H 0.83982 0.23113 0.71129 0.0
H625 H 0.82198 0.2102 0.71654 0.0
C626 C 0.84655 0.79041 0.6917 0.0
C627 C 0.85294 0.78413 0.67125 0.0
C628 C 0.83496 0.80122 0.69012 0.0
C629 C 0.8048 0.81292 0.65022 0.0
H630 H 0.8018 0.84894 0.69016 0.0
C631 C 0.75052 0.84839 0.6565 0.0
C632 C 0.75205 0.86446 0.65521 0.0
C633 C 0.76313 0.83905 0.6593 0.0
C634 C 0.80255 0.83896 0.67883 0.0
H635 H 0.85263 0.78476 0.63312 0.0
H636 H 0.83251 0.80362 0.63043 0.0
H637 H 0.8239 0.83225 0.693 0.0
H638 H 0.76801 0.88333 0.65636 0.0
H639 H 0.79007 0.86694 0.66121 0.0
H640 H 0.78357 0.81959 0.63594 0.0
C641 C 0.8363 0.80003 0.64766 0.0
C642 C 0.81511 0.82936 0.68058 0.0
C643 C 0.84788 0.78928 0.64923 0.0
C644 C 0.76645 0.87099 0.65724 0.0
C645 C 0.77908 0.86162 0.66015 0.0
C646 C 0.79224 0.82243 0.64858 0.0
C647 C 0.82953 0.8059 0.66807 0.0
C648 C 0.81637 0.81627 0.66624 0.0
C649 C 0.77755 0.84555 0.66096 0.0
C650 C 0.79096 0.83553 0.66287 0.0
H651 H 0.85022 0.7867 0.70893 0.0
H652 H 0.8299 0.8055 0.70614 0.0
H653 H 0.80537 0.8028 0.63914 0.0
H654 H 0.73958 0.843 0.65511 0.0
H655 H 0.7616 0.8267 0.66018 0.0
C656 C 0.62886 0.70439 0.77907 0.0
C657 C 0.62435 0.70711 0.80237 0.0
C658 C 0.63802 0.69182 0.77363 0.0
C659 C 0.65138 0.65442 0.79644 0.0
H660 H 0.68659 0.66259 0.75831 0.0
C661 C 0.70431 0.61678 0.79933 0.0
C662 C 0.71277 0.61469 0.77874 0.0
C663 C 0.69179 0.62643 0.79941 0.0
C664 C 0.67667 0.66 0.76859 0.0
H665 H 0.62559 0.69857 0.83813 0.0
H666 H 0.6416 0.67674 0.82865 0.0
H667 H 0.66776 0.68262 0.76361 0.0
H668 H 0.71435 0.62059 0.7418 0.0
H669 H 0.69235 0.63739 0.7419 0.0
H670 H 0.66045 0.63191 0.80185 0.0
C671 C 0.63797 0.68423 0.81456 0.0
C672 C 0.66589 0.67149 0.77165 0.0
C673 C 0.62888 0.69681 0.82001 0.0
C674 C 0.70811 0.62202 0.75798 0.0
C675 C 0.69556 0.6317 0.75807 0.0
C676 C 0.66214 0.64291 0.79332 0.0
C677 C 0.64276 0.68168 0.79136 0.0
C678 C 0.6533 0.66893 0.78603 0.0
C679 C 0.68742 0.63421 0.77889 0.0
C680 C 0.67507 0.64569 0.77979 0.0
H681 H 0.62551 0.71208 0.76506 0.0
H682 H 0.64144 0.69007 0.75557 0.0
H683 H 0.64165 0.65203 0.80729 0.0
H684 H 0.70758 0.6113 0.81564 0.0
H685 H 0.68591 0.62826 0.81583 0.0
C686 C 0.26797 0.62391 0.84174 0.0
C687 C 0.25322 0.62965 0.84051 0.0
C688 C 0.2801 0.63296 0.83457 0.0
C689 C 0.29007 0.66738 0.79971 0.0
H690 H 0.32416 0.66971 0.84198 0.0
C691 C 0.33222 0.71764 0.79966 0.0
C692 C 0.34729 0.71466 0.80544 0.0
C693 C 0.32156 0.70586 0.80028 0.0
C694 C 0.31488 0.66898 0.82971 0.0
H695 H 0.23961 0.64926 0.83034 0.0
H696 H 0.26079 0.66508 0.81805 0.0
H697 H 0.30394 0.65165 0.85012 0.0
H698 H 0.36319 0.6968 0.81503 0.0
H699 H 0.34461 0.6762 0.81578 0.0
H700 H 0.3009 0.68495 0.77954 0.0
C701 C 0.26296 0.65353 0.82432 0.0
C702 C 0.30327 0.65864 0.83441 0.0
C703 C 0.25084 0.64451 0.83155 0.0
C704 C 0.35163 0.6995 0.81069 0.0
C705 C 0.34098 0.68771 0.81125 0.0
C706 C 0.30171 0.67771 0.79495 0.0
C707 C 0.27773 0.64791 0.82594 0.0
C708 C 0.29062 0.65791 0.81969 0.0
C709 C 0.32576 0.69083 0.80661 0.0
C710 C 0.31413 0.6788 0.81013 0.0
H711 H 0.27017 0.61248 0.84844 0.0
H712 H 0.29135 0.62827 0.8358 0.0
H713 H 0.28055 0.6669 0.78785 0.0
H714 H 0.32851 0.72919 0.79551 0.0
H715 H 0.30992 0.70869 0.79683 0.0
C716 C 0.37292 0.31124 0.80764 0.0
C717 C 0.37706 0.30087 0.78986 0.0
C718 C 0.36254 0.3229 0.80312 0.0
C719 C 0.33103 0.33184 0.764 0.0
H720 H 0.33352 0.37192 0.79366 0.0
C721 C 0.28354 0.37666 0.75529 0.0
C722 C 0.27894 0.38329 0.77663 0.0
C723 C 0.2969 0.36825 0.75403 0.0
C724 C 0.33268 0.36077 0.78529 0.0
H725 H 0.37402 0.29497 0.75312 0.0
H726 H 0.35596 0.31544 0.7452 0.0
H727 H 0.35474 0.35422 0.79643 0.0
H728 H 0.285 0.38673 0.81319 0.0
H729 H 0.30821 0.37202 0.81101 0.0
H730 H 0.30884 0.33823 0.75335 0.0
C731 C 0.3606 0.3144 0.76272 0.0
C732 C 0.34481 0.35063 0.78688 0.0
C733 C 0.37099 0.30272 0.76724 0.0
C734 C 0.2882 0.38174 0.79649 0.0
C735 C 0.30157 0.37341 0.7952 0.0
C736 C 0.31892 0.34199 0.76237 0.0
C737 C 0.35608 0.32447 0.78071 0.0
C738 C 0.34399 0.33592 0.77669 0.0
C739 C 0.30597 0.36639 0.77405 0.0
C740 C 0.31948 0.35642 0.77343 0.0
H741 H 0.37738 0.31014 0.82526 0.0
H742 H 0.35916 0.33033 0.81746 0.0
H743 H 0.32996 0.32052 0.75621 0.0
H744 H 0.27667 0.37769 0.73965 0.0
H745 H 0.30008 0.36308 0.73744 0.0
C746 C 0.65565 0.26984 0.8248 0.0
C747 C 0.64361 0.27144 0.80901 0.0
C748 C 0.66768 0.28011 0.82432 0.0
C749 C 0.67737 0.31946 0.80687 0.0
H750 H 0.7178 0.30554 0.82085 0.0
C751 C 0.72327 0.35968 0.8432 0.0
C752 C 0.73829 0.35706 0.83673 0.0
C753 C 0.71193 0.34967 0.8358 0.0
C754 C 0.70664 0.30965 0.81655 0.0
H755 H 0.63494 0.28488 0.77991 0.0
H756 H 0.65611 0.30282 0.77898 0.0
H757 H 0.69798 0.28676 0.81435 0.0
H758 H 0.75312 0.34227 0.81659 0.0
H759 H 0.7333 0.32495 0.80339 0.0
H760 H 0.68607 0.34238 0.80905 0.0
C761 C 0.65611 0.29368 0.79189 0.0
C762 C 0.69523 0.29886 0.81311 0.0
C763 C 0.64403 0.28336 0.79235 0.0
C764 C 0.74167 0.34451 0.82209 0.0
C765 C 0.73032 0.33455 0.81458 0.0
C766 C 0.68881 0.33027 0.81024 0.0
C767 C 0.668 0.29223 0.80802 0.0
C768 C 0.6804 0.30365 0.80878 0.0
C769 C 0.71535 0.33687 0.82167 0.0
C770 C 0.70351 0.32548 0.81562 0.0
H771 H 0.6557 0.2608 0.83788 0.0
H772 H 0.67652 0.2788 0.83724 0.0
H773 H 0.66605 0.32353 0.80368 0.0
H774 H 0.7203 0.36924 0.85447 0.0
H775 H 0.70056 0.35168 0.84186 0.0
C776 C 0.6221 0.29161 0.23338 0.0
C777 C 0.61612 0.2894 0.21078 0.0
C778 C 0.63229 0.30351 0.23769 0.0
C779 C 0.64699 0.34003 0.21327 0.0
H780 H 0.68335 0.32908 0.24689 0.0
C781 C 0.70216 0.37379 0.20424 0.0
C782 C 0.71145 0.3755 0.22404 0.0
C783 C 0.68916 0.36486 0.20542 0.0
C784 C 0.67315 0.33243 0.23786 0.0
H785 H 0.61581 0.29822 0.17512 0.0
H786 H 0.63364 0.31887 0.1826 0.0
H787 H 0.6629 0.31054 0.24396 0.0
H788 H 0.71411 0.36958 0.26082 0.0
H789 H 0.69131 0.35398 0.26287 0.0
H790 H 0.65741 0.36179 0.20666 0.0
C791 C 0.63036 0.31151 0.19706 0.0
C792 C 0.66143 0.3218 0.23616 0.0
C793 C 0.62021 0.2996 0.19274 0.0
C794 C 0.70722 0.36843 0.24523 0.0
C795 C 0.69421 0.35945 0.24638 0.0
C796 C 0.6587 0.35066 0.21497 0.0
C797 C 0.63665 0.31348 0.2195 0.0
C798 C 0.64835 0.32537 0.22344 0.0
C799 C 0.68514 0.35741 0.2264 0.0
C800 C 0.67204 0.34686 0.22687 0.0
H801 H 0.61912 0.28398 0.24768 0.0
H802 H 0.63684 0.30485 0.25522 0.0
H803 H 0.63693 0.3432 0.20369 0.0
H804 H 0.70508 0.37909 0.18764 0.0
H805 H 0.68253 0.36336 0.18962 0.0
C806 C 0.74555 0.64353 0.17471 0.0
C807 C 0.74269 0.62885 0.16537 0.0
C808 C 0.73371 0.65304 0.18159 0.0
C809 C 0.69377 0.65975 0.1696 0.0
H810 H 0.69639 0.68675 0.22369 0.0
C811 C 0.64636 0.70223 0.19161 0.0
C812 C 0.65102 0.71734 0.19652 0.0
C813 C 0.65676 0.69021 0.19125 0.0
C814 C 0.69553 0.67931 0.20849 0.0
H815 H 0.72517 0.61244 0.15667 0.0
H816 H 0.70449 0.62904 0.16884 0.0
H817 H 0.71613 0.66777 0.21671 0.0
H818 H 0.67014 0.73158 0.20588 0.0
H819 H 0.6883 0.71064 0.20497 0.0
H820 H 0.6734 0.67148 0.16102 0.0
C821 C 0.7159 0.63325 0.17053 0.0
C822 C 0.70682 0.66845 0.20449 0.0
C823 C 0.72775 0.62373 0.16365 0.0
C824 C 0.66619 0.72007 0.202 0.0
C825 C 0.67659 0.70805 0.20162 0.0
C826 C 0.68249 0.67059 0.17359 0.0
C827 C 0.71874 0.64809 0.1793 0.0
C828 C 0.70617 0.65871 0.1848 0.0
C829 C 0.67204 0.69304 0.19579 0.0
C830 C 0.68335 0.68064 0.19289 0.0
H831 H 0.75694 0.64782 0.17631 0.0
H832 H 0.73627 0.66448 0.18801 0.0
H833 H 0.69304 0.65258 0.15407 0.0
H834 H 0.63473 0.69971 0.18749 0.0
H835 H 0.65287 0.67872 0.18705 0.0
C836 C 0.28274 0.62008 0.21307 0.0
C837 C 0.2684 0.62516 0.21995 0.0
C838 C 0.29498 0.63015 0.21343 0.0
C839 C 0.30806 0.66773 0.23657 0.0
H840 H 0.33281 0.66799 0.18051 0.0
C841 C 0.34516 0.71924 0.21 0.0
C842 C 0.35911 0.71625 0.19939 0.0
C843 C 0.3353 0.70721 0.2152 0.0
C844 C 0.32619 0.66792 0.19647 0.0
H845 H 0.25579 0.64463 0.23339 0.0
H846 H 0.27708 0.66219 0.23376 0.0
H847 H 0.31347 0.64844 0.18507 0.0
H848 H 0.37389 0.69823 0.18666 0.0
H849 H 0.35673 0.67723 0.19591 0.0
H850 H 0.32061 0.68746 0.24769 0.0
C851 C 0.27891 0.6504 0.22831 0.0
C852 C 0.3151 0.65669 0.19909 0.0
C853 C 0.26668 0.64035 0.22795 0.0
C854 C 0.36318 0.70093 0.1947 0.0
C855 C 0.35333 0.6889 0.1999 0.0
C856 C 0.31917 0.67897 0.23394 0.0
C857 C 0.29315 0.64549 0.22069 0.0
C858 C 0.30577 0.6566 0.21901 0.0
C859 C 0.33919 0.69192 0.20992 0.0
C860 C 0.32822 0.67931 0.21371 0.0
H861 H 0.28446 0.60842 0.20694 0.0
H862 H 0.30586 0.62596 0.20776 0.0
H863 H 0.3012 0.66783 0.25227 0.0
H864 H 0.34168 0.73091 0.21386 0.0
H865 H 0.32443 0.70994 0.22266 0.0
C866 C 0.26406 0.36511 0.15216 0.0
C867 C 0.24933 0.36013 0.15675 0.0
C868 C 0.27635 0.35607 0.15868 0.0
C869 C 0.28786 0.32376 0.19686 0.0
H870 H 0.31875 0.31779 0.14971 0.0
C871 C 0.33078 0.27389 0.19939 0.0
C872 C 0.34528 0.27662 0.19057 0.0
C873 C 0.31978 0.28534 0.19821 0.0
C874 C 0.31039 0.31954 0.16327 0.0
H875 H 0.23594 0.34192 0.17232 0.0
H876 H 0.25738 0.32609 0.18348 0.0
H877 H 0.29822 0.33552 0.14204 0.0
H878 H 0.35991 0.29379 0.17498 0.0
H879 H 0.34083 0.31381 0.17336 0.0
H880 H 0.29998 0.30757 0.21796 0.0
C881 C 0.25944 0.33705 0.17503 0.0
C882 C 0.2986 0.32969 0.15884 0.0
C883 C 0.24715 0.34607 0.16847 0.0
C884 C 0.34878 0.29126 0.18167 0.0
C885 C 0.33783 0.30272 0.18063 0.0
C886 C 0.29971 0.31361 0.20133 0.0
C887 C 0.27416 0.34188 0.16998 0.0
C888 C 0.28713 0.3318 0.17547 0.0
C889 C 0.3231 0.29976 0.18831 0.0
C890 C 0.31103 0.31128 0.18448 0.0
H891 H 0.26613 0.37593 0.14329 0.0
H892 H 0.28757 0.36018 0.1548 0.0
H893 H 0.27927 0.3253 0.21013 0.0
H894 H 0.32773 0.26272 0.20635 0.0
H895 H 0.30851 0.28264 0.20411 0.0
C896 C 0.92786 0.24518 0.2733 0.0
C897 C 0.92253 0.24014 0.29523 0.0
C898 C 0.94277 0.24244 0.2667 0.0
C899 C 0.97641 0.2192 0.28178 0.0
H900 H -0.00125 0.25514 0.26161 0.0
C901 C 0.03875 0.22788 0.30156 0.0
C902 C 0.04797 0.23524 0.285 0.0
C903 C 0.0234 0.22618 0.29742 0.0
C904 C 0.99265 0.24489 0.26672 0.0
H905 H 0.92846 0.22776 0.32701 0.0
H906 H 0.95434 0.22311 0.31563 0.0
H907 H 0.97141 0.25627 0.26379 0.0
H908 H 0.04843 0.24612 0.25071 0.0
H909 H 0.02147 0.24323 0.24356 0.0
H910 H -0.00229 0.20806 0.28574 0.0
C911 C 0.94704 0.22905 0.3034 0.0
C912 C 0.97698 0.24553 0.26796 0.0
C913 C 0.93222 0.23186 0.31003 0.0
C914 C 0.0416 0.24043 0.26384 0.0
C915 C 0.02618 0.23883 0.25977 0.0
C916 C 0.99206 0.21856 0.28058 0.0
C917 C 0.95255 0.23449 0.28183 0.0
C918 C 0.96875 0.23287 0.2763 0.0
C919 C 0.01691 0.23186 0.27667 0.0
C920 C 0.00036 0.23157 0.27381 0.0
H921 H 0.92064 0.25155 0.26148 0.0
H922 H 0.94671 0.24669 0.24991 0.0
H923 H 0.97033 0.20916 0.28783 0.0
H924 H 0.04333 0.2237 0.318 0.0
H925 H 0.01652 0.22095 0.31093 0.0
C926 C 0.71852 0.05731 0.32604 0.0
C927 C 0.72303 0.06981 0.3121 0.0
C928 C 0.72182 0.04229 0.31919 0.0
C929 C 0.73117 0.01806 0.26857 0.0
H930 H 0.7453 0.99021 0.31695 0.0
C931 C 0.75165 0.95099 0.28464 0.0
C932 C 0.73972 0.9432 0.27366 0.0
C933 C 0.75187 0.96702 0.28547 0.0
C934 C 0.7416 -0.00214 0.3031 0.0
H935 H 0.73427 0.07636 0.27978 0.0
H936 H 0.74002 0.04999 0.2678 0.0
H937 H 0.74108 0.01709 0.32645 0.0
H938 H 0.71927 0.9461 0.2534 0.0
H939 H 0.7195 0.97412 0.25524 0.0
H940 H 0.73159 -0.00132 0.24527 0.0
C941 C 0.73391 0.05188 0.284 0.0
C942 C 0.73899 0.01323 0.30865 0.0
C943 C 0.73067 0.06696 0.29092 0.0
C944 C 0.72858 0.95178 0.26207 0.0
C945 C 0.72875 0.96784 0.26303 0.0
C946 C 0.73375 0.00261 0.26301 0.0
C947 C 0.72966 0.03942 0.29823 0.0
C948 C 0.73349 0.02343 0.29159 0.0
C949 C 0.74011 0.9756 0.27547 0.0
C950 C 0.73881 0.99231 0.28032 0.0
H951 H 0.71257 0.0591 0.34241 0.0
H952 H 0.71817 0.0329 0.33031 0.0
H953 H 0.7269 0.02569 0.25509 0.0
H954 H 0.76053 0.9447 0.29342 0.0
H955 H 0.76095 0.97268 0.29473 0.0
C956 C 0.05907 0.75314 0.31514 0.0
C957 C 0.06876 0.74499 0.30015 0.0
C958 C 0.04463 0.75706 0.3078 0.0
C959 C 0.01512 0.74365 0.26861 0.0
H960 H 0.99537 0.78115 0.28882 0.0
C961 C 0.951 0.75096 0.26107 0.0
C962 C 0.94425 0.7555 0.28229 0.0
C963 C 0.96653 0.75245 0.25795 0.0
C964 C 0.00075 0.77065 0.28297 0.0
H965 H 0.0711 0.73507 0.26536 0.0
H966 H 0.04573 0.7419 0.25257 0.0
H967 H 0.02259 0.77871 0.29285 0.0
H968 H 0.94832 0.76591 0.31635 0.0
H969 H 0.97529 0.76839 0.311 0.0
H970 H 0.99324 0.73531 0.25969 0.0
C971 C 0.04934 0.74516 0.27005 0.0
C972 C 0.01631 0.76925 0.28528 0.0
C973 C 0.06386 0.74128 0.27736 0.0
C974 C 0.95319 0.76222 0.29984 0.0
C975 C 0.96865 0.76378 0.29669 0.0
C976 C -0.00044 0.74504 0.26629 0.0
C977 C 0.03951 0.7529 0.28533 0.0
C978 C 0.02358 0.75553 0.27889 0.0
C979 C 0.97554 0.75861 0.27592 0.0
C980 C 0.99216 0.75835 0.27422 0.0
H981 H 0.06252 0.75623 0.33277 0.0
H982 H 0.03726 0.76283 0.32013 0.0
H983 H 0.02037 0.73288 0.26371 0.0
H984 H 0.9444 0.7458 0.24716 0.0
H985 H 0.97152 0.74849 0.24169 0.0
C986 C 0.26515 0.93077 0.3238 0.0
C987 C 0.26473 0.91937 0.30632 0.0
C988 C 0.26268 0.94614 0.31809 0.0
C989 C 0.26476 0.97348 0.26934 0.0
H990 H 0.24234 -0.00068 0.3124 0.0
C991 C 0.2459 0.04108 0.28574 0.0
C992 C 0.25989 0.04817 0.28201 0.0
C993 C 0.24448 0.02512 0.28414 0.0
C994 C 0.24841 0.99226 0.29992 0.0
H995 H 0.26129 0.91514 0.26913 0.0
H996 H 0.25693 0.94213 0.25917 0.0
H997 H 0.24323 0.97171 0.31884 0.0
H998 H 0.28314 0.0442 0.2723 0.0
H999 H 0.28075 0.01637 0.27002 0.0
H1000 H 0.27004 0.99412 0.25053 0.0
C1001 C 0.25927 0.93911 0.27726 0.0
C1002 C 0.24908 0.97645 0.30381 0.0
C1003 C 0.26171 0.92367 0.28299 0.0
C1004 C 0.27222 0.03908 0.27536 0.0
C1005 C 0.27082 0.02311 0.27389 0.0
C1006 C 0.26408 0.98934 0.26542 0.0
C1007 C 0.25972 0.95049 0.29478 0.0
C1008 C 0.25757 0.96695 0.28892 0.0
C1009 C 0.25703 0.01593 0.27891 0.0
C1010 C 0.25617 -0.00106 0.28099 0.0
H1011 H 0.26748 0.92785 0.34193 0.0
H1012 H 0.26337 0.95468 0.33192 0.0
H1013 H 0.27143 0.96645 0.2576 0.0
H1014 H 0.23612 0.04779 0.2906 0.0
H1015 H 0.23363 0.01995 0.28767 0.0
C1016 C 0.04085 0.74593 0.731 0.0
C1017 C 0.04952 0.75455 0.71513 0.0
C1018 C 0.02521 0.74744 0.73137 0.0
C1019 C 0.99461 0.75865 0.6917 0.0
H1020 H 0.96959 0.7551 0.74721 0.0
C1021 C 0.93076 0.76197 0.68426 0.0
C1022 C 0.92272 0.75027 0.69573 0.0
C1023 C 0.94586 0.76453 0.68948 0.0
C1024 C 0.97646 0.75605 0.73158 0.0
H1025 H 0.04875 0.77233 0.68843 0.0
H1026 H 0.02156 0.77522 0.68944 0.0
H1027 H -0.00303 0.75615 0.75138 0.0
H1028 H 0.92397 0.73262 0.72258 0.0
H1029 H 0.95051 0.73695 0.73144 0.0
H1030 H 0.97428 0.75829 0.67185 0.0
C1031 C 0.02677 0.76696 0.70112 0.0
C1032 C 0.99211 0.75665 0.73395 0.0
C1033 C 0.04235 0.76535 0.70061 0.0
C1034 C 0.92989 0.74169 0.71339 0.0
C1035 C 0.94506 0.74422 0.71855 0.0
C1036 C 0.97904 0.7581 0.68935 0.0
C1037 C 0.01798 0.7577 0.71598 0.0
C1038 C 0.00135 0.75789 0.71399 0.0
C1039 C 0.95329 0.7554 0.70619 0.0
C1040 C 0.96979 0.75673 0.70922 0.0
H1041 H 0.04607 0.73752 0.74243 0.0
H1042 H 0.01876 0.74007 0.74292 0.0
H1043 H 0.00138 0.75921 0.67591 0.0
H1044 H 0.9255 0.76894 0.6708 0.0
H1045 H 0.95183 0.77344 0.68 0.0
C1046 C 0.28188 0.94989 0.69318 0.0
C1047 C 0.26871 0.94188 0.69911 0.0
C1048 C 0.28284 0.96574 0.69659 0.0
C1049 C 0.25873 -0.00014 0.70102 0.0
H1050 H 0.2965 0.02001 0.71567 0.0
C1051 C 0.26531 0.06595 0.69993 0.0
C1052 C 0.27744 0.07111 0.68623 0.0
C1053 C 0.26416 0.05046 0.70623 0.0
C1054 C 0.28587 0.01453 0.71162 0.0
H1055 H 0.24643 0.94411 0.71425 0.0
H1056 H 0.24821 0.97183 0.72053 0.0
H1057 H 0.29453 0.99209 0.71895 0.0
H1058 H 0.29816 0.06422 0.66909 0.0
H1059 H 0.29618 0.03724 0.68017 0.0
H1060 H 0.25018 0.0223 0.6933 0.0
C1061 C 0.25769 0.96586 0.71284 0.0
C1062 C 0.28475 -0.00144 0.71343 0.0
C1063 C 0.2567 0.94998 0.70933 0.0
C1064 C 0.28865 0.06059 0.67959 0.0
C1065 C 0.28758 0.04516 0.68609 0.0
C1066 C 0.25983 0.01585 0.69939 0.0
C1067 C 0.27069 0.97396 0.70615 0.0
C1068 C 0.27129 0.991 0.70751 0.0
C1069 C 0.27523 0.03991 0.69919 0.0
C1070 C 0.27352 0.02328 0.70407 0.0
H1071 H 0.29134 0.94399 0.68527 0.0
H1072 H 0.29294 0.97162 0.69089 0.0
H1073 H 0.24825 0.99442 0.69605 0.0
H1074 H 0.2565 0.07379 0.70534 0.0
H1075 H 0.25457 0.0467 0.71644 0.0
C1076 C 0.06238 0.23348 0.68796 0.0
C1077 C 0.0668 0.24836 0.68115 0.0
C1078 C 0.04723 0.23009 0.6918 0.0
C1079 C 0.01434 0.2241 0.68061 0.0
H1080 H 0.98696 0.25385 0.70783 0.0
C1081 C 0.95094 0.22493 0.66085 0.0
C1082 C 0.941 0.23 0.67838 0.0
C1083 C 0.96643 0.22501 0.66481 0.0
C1084 C 0.99445 0.24528 0.70053 0.0
H1085 H 0.05885 0.27146 0.67386 0.0
H1086 H 0.03247 0.2655 0.68023 0.0
H1087 H 0.01391 0.25851 0.70941 0.0
H1088 H 0.93942 0.23818 0.71432 0.0
H1089 H 0.96644 0.23806 0.72133 0.0
H1090 H 0.99486 0.2109 0.67164 0.0
C1091 C 0.04069 0.25649 0.68289 0.0
C1092 C 0.00989 0.24805 0.70118 0.0
C1093 C 0.05583 0.25988 0.67907 0.0
C1094 C 0.94681 0.23436 0.70036 0.0
C1095 C 0.96229 0.23437 0.70435 0.0
C1096 C -0.00111 0.2213 0.68 0.0
C1097 C 0.0362 0.2415 0.68893 0.0
C1098 C 0.01999 0.23767 0.69076 0.0
C1099 C 0.9723 0.23007 0.68642 0.0
C1100 C 0.98875 0.23202 0.6895 0.0
H1101 H 0.07058 0.22436 0.68985 0.0
H1102 H 0.04413 0.21849 0.69674 0.0
H1103 H 0.02181 0.21592 0.67227 0.0
H1104 H 0.94682 0.22149 0.64374 0.0
H1105 H 0.97383 0.22177 0.65053 0.0
C1106 C 0.74594 0.03414 0.70664 0.0
C1107 C 0.73987 0.04314 0.72479 0.0
C1108 C 0.74571 0.01815 0.70806 0.0
C1109 C 0.72361 0.98731 0.73465 0.0
H1110 H 0.75332 0.96187 0.7034 0.0
C1111 C 0.71516 0.92215 0.71522 0.0
C1112 C 0.71708 0.91872 0.69127 0.0
C1113 C 0.71971 0.93641 0.72415 0.0
C1114 C 0.74499 0.96882 0.71235 0.0
H1115 H 0.72961 0.04244 0.75934 0.0
H1116 H 0.72933 0.01438 0.76191 0.0
H1117 H 0.75901 0.98879 0.71168 0.0
H1118 H 0.72552 0.92735 0.65802 0.0
H1119 H 0.73358 0.95207 0.67366 0.0
H1120 H 0.70948 0.96734 0.73472 0.0
C1121 C 0.73406 0.01975 0.74642 0.0
C1122 C 0.74821 0.98423 0.71703 0.0
C1123 C 0.73429 0.03581 0.74499 0.0
C1124 C 0.72381 0.92968 0.67652 0.0
C1125 C 0.72856 0.94377 0.68551 0.0
C1126 C 0.72045 0.97183 0.73017 0.0
C1127 C 0.73946 0.01074 0.72771 0.0
C1128 C 0.73732 0.9938 0.72734 0.0
C1129 C 0.72652 0.94729 0.70936 0.0
C1130 C 0.7309 0.96265 0.71816 0.0
H1131 H 0.75039 0.03941 0.69086 0.0
H1132 H 0.74977 0.01161 0.69316 0.0
H1133 H 0.71492 0.99438 0.74244 0.0
H1134 H 0.71001 0.9139 0.72697 0.0
H1135 H 0.718 0.93891 0.7426 0.0
C1136 C 0.54832 0.73197 0.82207 0.0
C1137 C 0.55684 0.74093 0.80645 0.0
C1138 C 0.53285 0.73042 0.819 0.0
C1139 C 0.50175 0.73598 0.77645 0.0
H1140 H 0.47787 0.73916 0.83322 0.0
C1141 C 0.43738 0.7474 0.77837 0.0
C1142 C 0.42904 0.7396 0.79562 0.0
C1143 C 0.45304 0.74599 0.77759 0.0
C1144 C 0.48437 0.73803 0.81722 0.0
H1145 H 0.55589 0.75494 0.77497 0.0
H1146 H 0.52876 0.7525 0.76989 0.0
H1147 H 0.50509 0.73975 0.8359 0.0
H1148 H 0.43047 0.72344 0.82461 0.0
H1149 H 0.45768 0.72094 0.82311 0.0
H1150 H 0.48083 0.73462 0.75781 0.0
C1151 C 0.53409 0.74648 0.78432 0.0
C1152 C 0.49999 0.73835 0.81875 0.0
C1153 C 0.54962 0.74796 0.78731 0.0
C1154 C 0.43657 0.72976 0.81128 0.0
C1155 C 0.45217 0.72837 0.81049 0.0
C1156 C 0.48605 0.73573 0.77491 0.0
C1157 C 0.5255 0.73789 0.80035 0.0
C1158 C 0.50888 0.73729 0.79842 0.0
C1159 C 0.4606 0.73677 0.79406 0.0
C1160 C 0.47723 0.73671 0.79532 0.0
H1161 H 0.55357 0.72626 0.83685 0.0
H1162 H 0.52661 0.72344 0.83138 0.0
H1163 H 0.50829 0.73501 0.76048 0.0
H1164 H 0.4319 0.75503 0.76602 0.0
H1165 H 0.45926 0.75265 0.76479 0.0
C1166 C 0.22738 0.45771 0.75425 0.0
C1167 C 0.2351 0.45031 0.77259 0.0
C1168 C 0.22666 0.47379 0.75341 0.0
C1169 C 0.24344 0.50918 0.77953 0.0
H1170 H 0.20348 0.52621 0.77144 0.0
C1171 C 0.22361 0.56397 0.82519 0.0
C1172 C 0.21571 0.57498 0.81203 0.0
C1173 C 0.22727 0.54978 0.81536 0.0
C1174 C 0.21475 0.52166 0.7733 0.0
H1175 H 0.2487 0.45397 0.80377 0.0
H1176 H 0.24725 0.48174 0.80253 0.0
H1177 H 0.20801 0.49915 0.76239 0.0
H1178 H 0.20539 0.57976 0.77829 0.0
H1179 H 0.21149 0.5546 0.76127 0.0
H1180 H 0.24991 0.5315 0.79184 0.0
C1181 C 0.24189 0.47526 0.78859 0.0
C1182 C 0.21738 0.50618 0.76805 0.0
C1183 C 0.2426 0.45928 0.78944 0.0
C1184 C 0.2115 0.57149 0.78882 0.0
C1185 C 0.21496 0.55713 0.7791 0.0
C1186 C 0.24077 0.52458 0.785 0.0
C1187 C 0.23372 0.48273 0.77082 0.0
C1188 C 0.23163 0.49965 0.77191 0.0
C1189 C 0.22295 0.54621 0.79228 0.0
C1190 C 0.2263 0.5308 0.78266 0.0
H1191 H 0.22154 0.45111 0.74094 0.0
H1192 H 0.22039 0.47921 0.73937 0.0
H1193 H 0.25463 0.50459 0.78216 0.0
H1194 H 0.22706 0.56635 0.84308 0.0
H1195 H 0.23325 0.54146 0.826 0.0
C1196 C 0.45325 0.25957 0.772 0.0
C1197 C 0.44637 0.26764 0.79048 0.0
C1198 C 0.46893 0.25916 0.77014 0.0
C1199 C 0.50213 0.26321 0.80818 0.0
H1200 H 0.52455 0.26134 0.74982 0.0
C1201 C 0.566 0.25991 0.80946 0.0
C1202 C 0.57234 0.24801 0.79602 0.0
C1203 C 0.55114 0.26438 0.80589 0.0
C1204 C 0.51839 0.26182 0.76622 0.0
H1205 H 0.45036 0.28256 0.82037 0.0
H1206 H 0.47757 0.28225 0.81671 0.0
H1207 H 0.49733 0.26566 0.74885 0.0
H1208 H 0.56836 0.23214 0.76725 0.0
H1209 H 0.54223 0.23989 0.7612 0.0
H1210 H 0.52301 0.25924 0.82558 0.0
C1211 C 0.47097 0.27578 0.80414 0.0
C1212 C 0.50284 0.26426 0.76568 0.0
C1213 C 0.45537 0.27603 0.80618 0.0
C1214 C 0.56377 0.2413 0.77797 0.0
C1215 C 0.54883 0.24578 0.77442 0.0
C1216 C 0.5176 0.26088 0.80871 0.0
C1217 C 0.47796 0.26695 0.78658 0.0
C1218 C 0.49454 0.26496 0.7867 0.0
C1219 C 0.54226 0.25703 0.78885 0.0
C1220 C 0.52591 0.26014 0.78778 0.0
H1221 H 0.44657 0.253 0.75965 0.0
H1222 H 0.47395 0.25217 0.75649 0.0
H1223 H 0.49607 0.26324 0.82468 0.0
H1224 H 0.57237 0.26548 0.82328 0.0
H1225 H 0.54644 0.2733 0.81697 0.0
C1226 C 0.77189 0.42099 0.79106 0.0
C1227 C 0.77232 0.41728 0.81509 0.0
C1228 C 0.76954 0.43618 0.78387 0.0
C1229 C 0.75445 0.47322 0.80458 0.0
H1230 H 0.78106 0.49142 0.75834 0.0
C1231 C 0.77694 0.53687 0.78103 0.0
C1232 C 0.76339 0.54512 0.78236 0.0
C1233 C 0.77683 0.52082 0.78009 0.0
C1234 C 0.77351 0.48647 0.7712 0.0
H1235 H 0.77054 0.42654 0.85039 0.0
H1236 H 0.76649 0.45294 0.83786 0.0
H1237 H 0.78301 0.46397 0.76721 0.0
H1238 H 0.73908 0.54306 0.78201 0.0
H1239 H 0.73891 0.51506 0.78016 0.0
H1240 H 0.74536 0.49572 0.80939 0.0
C1241 C 0.76782 0.44413 0.82457 0.0
C1242 C 0.77454 0.47075 0.77613 0.0
C1243 C 0.77026 0.42901 0.83174 0.0
C1244 C 0.74972 0.53704 0.78128 0.0
C1245 C 0.74962 0.521 0.78031 0.0
C1246 C 0.75338 0.48888 0.79961 0.0
C1247 C 0.76745 0.44788 0.80058 0.0
C1248 C 0.76525 0.46407 0.79329 0.0
C1249 C 0.76317 0.5127 0.7804 0.0
C1250 C 0.76311 0.49575 0.78324 0.0
H1251 H 0.77345 0.41219 0.77781 0.0
H1252 H 0.76924 0.43876 0.76526 0.0
H1253 H 0.74702 0.46833 0.81767 0.0
H1254 H 0.78767 0.54275 0.78173 0.0
H1255 H 0.78747 0.51477 0.78036 0.0
C1256 C 0.43148 0.2634 0.19658 0.0
C1257 C 0.42206 0.25422 0.21054 0.0
C1258 C 0.44644 0.26575 0.20288 0.0
C1259 C 0.47684 0.24665 0.23395 0.0
H1260 H 0.49795 0.28462 0.22011 0.0
C1261 C 0.54164 0.25033 0.23452 0.0
C1262 C 0.5476 0.25678 0.21388 0.0
C1263 C 0.52635 0.25186 0.23971 0.0
C1264 C 0.4922 0.27397 0.22415 0.0
H1265 H 0.42074 0.24082 0.24261 0.0
H1266 H 0.44703 0.24489 0.2536 0.0
H1267 H 0.47052 0.28421 0.21977 0.0
H1268 H 0.54236 0.27034 0.18296 0.0
H1269 H 0.51577 0.27294 0.19194 0.0
H1270 H 0.49852 0.23626 0.2374 0.0
C1271 C 0.4428 0.25019 0.2377 0.0
C1272 C 0.47652 0.27373 0.22396 0.0
C1273 C 0.42776 0.2479 0.23144 0.0
C1274 C 0.53811 0.26519 0.19895 0.0
C1275 C 0.52289 0.26681 0.20422 0.0
C1276 C 0.49254 0.2469 0.23419 0.0
C1277 C 0.45234 0.25895 0.22327 0.0
C1278 C 0.46869 0.25994 0.22801 0.0
C1279 C 0.5168 0.25999 0.22447 0.0
C1280 C 0.50036 0.26043 0.22846 0.0
H1281 H 0.42742 0.2685 0.18043 0.0
H1282 H 0.45354 0.27237 0.1912 0.0
H1283 H 0.47114 0.23582 0.23695 0.0
H1284 H 0.54869 0.24382 0.24641 0.0
H1285 H 0.52196 0.24656 0.25549 0.0
C1286 C 0.77779 0.55876 0.17012 0.0
C1287 C 0.77691 0.57101 0.18616 0.0
C1288 C 0.77457 0.54379 0.17725 0.0
C1289 C 0.7723 0.51857 0.22878 0.0
H1290 H 0.74928 0.49298 0.18611 0.0
C1291 C 0.74654 0.45291 0.2178 0.0
C1292 C 0.75939 0.4444 0.22387 0.0
C1293 C 0.74697 0.46895 0.21759 0.0
C1294 C 0.7555 0.5 0.19846 0.0
H1295 H 0.77217 0.57712 0.22237 0.0
H1296 H 0.76649 0.55084 0.23482 0.0
H1297 H 0.75333 0.5199 0.17674 0.0
H1298 H 0.78245 0.44603 0.236 0.0
H1299 H 0.7833 0.47402 0.23515 0.0
H1300 H 0.77451 0.49855 0.25045 0.0
C1301 C 0.76974 0.55289 0.21676 0.0
C1302 C 0.758 0.51539 0.1929 0.0
C1303 C 0.77295 0.56792 0.2096 0.0
C1304 C 0.77238 0.45226 0.23116 0.0
C1305 C 0.77284 0.46832 0.2308 0.0
C1306 C 0.7698 0.50312 0.23436 0.0
C1307 C 0.77038 0.5407 0.20057 0.0
C1308 C 0.76668 0.52476 0.20773 0.0
C1309 C 0.76028 0.47682 0.22329 0.0
C1310 C 0.76158 0.49361 0.21904 0.0
H1311 H 0.78088 0.56072 0.15197 0.0
H1312 H 0.77544 0.53459 0.16448 0.0
H1313 H 0.77906 0.52552 0.24052 0.0
H1314 H 0.73628 0.44719 0.21242 0.0
H1315 H 0.73701 0.47519 0.21221 0.0
C1316 C 0.45319 0.75115 0.15764 0.0
C1317 C 0.44211 0.74427 0.1717 0.0
C1318 C 0.46838 0.74935 0.16306 0.0
C1319 C 0.49408 0.74131 0.21163 0.0
H1320 H 0.52253 0.73353 0.16142 0.0
C1321 C 0.56166 0.73063 0.19383 0.0
C1322 C 0.56768 0.7433 0.20597 0.0
C1323 C 0.54615 0.7285 0.1925 0.0
C1324 C 0.51473 0.73549 0.17572 0.0
H1325 H 0.43824 0.73011 0.2025 0.0
H1326 H 0.46486 0.72703 0.212 0.0
H1327 H 0.49575 0.73407 0.15278 0.0
H1328 H 0.56219 0.76308 0.22755 0.0
H1329 H 0.53505 0.75944 0.22501 0.0
H1330 H 0.51316 0.74292 0.23451 0.0
C1331 C 0.46174 0.73383 0.19682 0.0
C1332 C 0.49941 0.73598 0.1707 0.0
C1333 C 0.44653 0.73553 0.1913 0.0
C1334 C 0.5579 0.75324 0.21799 0.0
C1335 C 0.54235 0.75112 0.21663 0.0
C1336 C 0.50946 0.74091 0.21664 0.0
C1337 C 0.47281 0.74071 0.18272 0.0
C1338 C 0.48895 0.73911 0.18852 0.0
C1339 C 0.53632 0.739 0.20325 0.0
C1340 C 0.51995 0.73815 0.19867 0.0
H1341 H 0.45016 0.75797 0.14245 0.0
H1342 H 0.47667 0.75495 0.15205 0.0
H1343 H 0.48625 0.74383 0.22568 0.0
H1344 H 0.5689 0.72264 0.18461 0.0
H1345 H 0.54183 0.71889 0.18244 0.0
C1346 C 0.21481 0.42947 0.16879 0.0
C1347 C 0.21691 0.41677 0.18367 0.0
C1348 C 0.21846 0.44425 0.17639 0.0
C1349 C 0.22435 0.46776 0.22924 0.0
H1350 H 0.24305 0.49545 0.18459 0.0
C1351 C 0.24694 0.53468 0.21838 0.0
C1352 C 0.23446 0.5424 0.22783 0.0
C1353 C 0.24709 0.51865 0.21704 0.0
C1354 C 0.23809 0.48783 0.19748 0.0
H1355 H 0.22434 0.40963 0.21829 0.0
H1356 H 0.2308 0.43554 0.23152 0.0
H1357 H 0.23889 0.46877 0.17383 0.0
H1358 H 0.21282 0.53936 0.24478 0.0
H1359 H 0.21293 0.51145 0.24193 0.0
H1360 H 0.22354 0.48691 0.25289 0.0
C1361 C 0.22624 0.43403 0.21404 0.0
C1362 C 0.2355 0.47257 0.19115 0.0
C1363 C 0.22258 0.4192 0.20642 0.0
C1364 C 0.22258 0.53375 0.23732 0.0
C1365 C 0.22269 0.51772 0.23581 0.0
C1366 C 0.22697 0.48306 0.23562 0.0
C1367 C 0.22432 0.44669 0.19901 0.0
C1368 C 0.22829 0.46246 0.20674 0.0
C1369 C 0.23472 0.51002 0.22494 0.0
C1370 C 0.23361 0.49334 0.21962 0.0
H1371 H 0.21039 0.42802 0.1512 0.0
H1372 H 0.21657 0.45381 0.16455 0.0
H1373 H 0.21875 0.46023 0.24162 0.0
H1374 H 0.25636 0.54102 0.21122 0.0
H1375 H 0.25669 0.51304 0.20905 0.0
C1376 C 0.11983 0.24867 0.3998 0.0
C1377 C 0.10578 0.25018 0.38879 0.0
C1378 C 0.12115 0.25024 0.42412 0.0
C1379 C 0.09854 0.24759 0.47831 0.0
H1380 H 0.13406 0.26543 0.50694 0.0
C1381 C 0.10528 0.25345 0.57884 0.0
C1382 C 0.11908 0.24829 0.58793 0.0
C1383 C 0.10336 0.25534 0.55465 0.0
C1384 C 0.12411 0.26037 0.49916 0.0
H1385 H 0.08216 0.25509 0.39456 0.0
H1386 H 0.08451 0.25815 0.43698 0.0
H1387 H 0.13114 0.26611 0.46433 0.0
H1388 H 0.14178 0.24141 0.57881 0.0
H1389 H 0.13842 0.24475 0.53663 0.0
H1390 H 0.09156 0.2418 0.51318 0.0
C1391 C 0.09446 0.2554 0.42687 0.0
C1392 C 0.12244 0.26073 0.47477 0.0
C1393 C 0.09313 0.25374 0.40254 0.0
C1394 C 0.131 0.24537 0.57237 0.0
C1395 C 0.12912 0.24738 0.54822 0.0
C1396 C 0.10017 0.24733 0.5027 0.0
C1397 C 0.10845 0.25347 0.438 0.0
C1398 C 0.10974 0.25414 0.46402 0.0
C1399 C 0.11524 0.25225 0.53909 0.0
C1400 C 0.11306 0.25353 0.51335 0.0
H1401 H 0.12979 0.24589 0.38972 0.0
H1402 H 0.13206 0.24845 0.43211 0.0
H1403 H 0.08873 0.24219 0.47063 0.0
H1404 H 0.09588 0.25582 0.59037 0.0
H1405 H 0.09258 0.25923 0.5481 0.0
C1406 C 0.71871 0.11436 0.6127 0.0
C1407 C 0.72336 0.10082 0.62404 0.0
C1408 C 0.71563 0.11433 0.58861 0.0
C1409 C 0.70695 0.08836 0.53882 0.0
H1410 H 0.72252 0.12176 0.50081 0.0
C1411 C 0.71268 0.08442 0.43814 0.0
C1412 C 0.70941 0.09759 0.42478 0.0
C1413 C 0.71284 0.08511 0.46265 0.0
C1414 C 0.7179 0.11246 0.51121 0.0
H1415 H 0.72826 0.07659 0.61902 0.0
H1416 H 0.72307 0.07659 0.57708 0.0
H1417 H 0.72564 0.1225 0.54333 0.0
H1418 H 0.70337 0.12174 0.42673 0.0
H1419 H 0.70358 0.12291 0.46954 0.0
H1420 H 0.69944 0.0782 0.50663 0.0
C1421 C 0.72161 0.08719 0.58681 0.0
C1422 C 0.71968 0.11289 0.53558 0.0
C1423 C 0.72469 0.08722 0.61085 0.0
C1424 C 0.70599 0.11139 0.43649 0.0
C1425 C 0.70619 0.11209 0.46101 0.0
C1426 C 0.70519 0.08792 0.51445 0.0
C1427 C 0.71711 0.10075 0.57538 0.0
C1428 C 0.71439 0.10076 0.54964 0.0
C1429 C 0.70975 0.09899 0.47436 0.0
C1430 C 0.71078 0.09989 0.50035 0.0
H1431 H 0.71752 0.12502 0.62238 0.0
H1432 H 0.71203 0.12493 0.58036 0.0
H1433 H 0.70251 0.07896 0.54919 0.0
H1434 H 0.71537 0.0736 0.42968 0.0
H1435 H 0.7158 0.07486 0.47241 0.0
C1436 C 0.90047 0.7356 0.39801 0.0
C1437 C 0.88736 0.73569 0.38422 0.0
C1438 C 0.89961 0.7335 0.42229 0.0
C1439 C 0.87451 0.72029 0.47023 0.0
H1440 H 0.89888 0.74765 0.50826 0.0
C1441 C 0.86366 0.73148 0.56894 0.0
C1442 C 0.87619 0.73351 0.58368 0.0
C1443 C 0.86554 0.72978 0.54471 0.0
C1444 C 0.89218 0.73975 0.49793 0.0
H1445 H 0.8631 0.73324 0.38505 0.0
H1446 H 0.86158 0.72982 0.42749 0.0
H1447 H 0.90121 0.74831 0.46573 0.0
H1448 H 0.90055 0.73463 0.58465 0.0
H1449 H 0.90382 0.73152 0.54242 0.0
H1450 H 0.86528 0.71197 0.50258 0.0
C1451 C 0.87255 0.73118 0.41949 0.0
C1452 C 0.89351 0.74012 0.47352 0.0
C1453 C 0.87341 0.73323 0.39517 0.0
C1454 C 0.89065 0.73322 0.57377 0.0
C1455 C 0.89253 0.73151 0.54956 0.0
C1456 C 0.87316 0.71993 0.4947 0.0
C1457 C 0.88562 0.7315 0.43336 0.0
C1458 C 0.88463 0.73048 0.45936 0.0
C1459 C 0.87999 0.73006 0.5347 0.0
C1460 C 0.88192 0.72973 0.5088 0.0
H1461 H 0.91141 0.73733 0.3901 0.0
H1462 H 0.90991 0.73355 0.43241 0.0
H1463 H 0.86765 0.71258 0.45983 0.0
H1464 H 0.85237 0.73163 0.57602 0.0
H1465 H 0.85565 0.72881 0.53373 0.0
C1466 C 0.26448 0.89651 0.60255 0.0
C1467 C 0.25916 0.88327 0.61401 0.0
C1468 C 0.26771 0.8962 0.57855 0.0
C1469 C 0.25913 0.87494 0.52424 0.0
H1470 H 0.29442 0.89593 0.5003 0.0
C1471 C 0.27589 0.8716 0.42666 0.0
C1472 C 0.2801 0.88552 0.41597 0.0
C1473 C 0.2744 0.87062 0.45104 0.0
C1474 C 0.28446 0.89011 0.5067 0.0
H1475 H 0.25311 0.85929 0.60927 0.0
H1476 H 0.25884 0.85873 0.56738 0.0
H1477 H 0.28958 0.89558 0.54249 0.0
H1478 H 0.28647 0.90922 0.42258 0.0
H1479 H 0.28375 0.90755 0.46508 0.0
H1480 H 0.25391 0.86961 0.48848 0.0
C1481 C 0.26037 0.8694 0.57693 0.0
C1482 C 0.28168 0.88992 0.53086 0.0
C1483 C 0.25714 0.8697 0.60095 0.0
C1484 C 0.28321 0.89832 0.43025 0.0
C1485 C 0.28172 0.89734 0.45463 0.0
C1486 C 0.2619 0.87514 0.5001 0.0
C1487 C 0.26569 0.88264 0.56546 0.0
C1488 C 0.26893 0.88242 0.53988 0.0
C1489 C 0.2771 0.88354 0.46528 0.0
C1490 C 0.27455 0.8828 0.49104 0.0
H1491 H 0.26614 0.90716 0.61209 0.0
H1492 H 0.27159 0.90665 0.57018 0.0
H1493 H 0.24909 0.86925 0.5306 0.0
H1494 H 0.27349 0.86148 0.41618 0.0
H1495 H 0.27106 0.85976 0.45873 0.0
C1496 C 0.10164 0.73114 0.42777 0.0
C1497 C 0.11557 0.73386 0.41688 0.0
C1498 C 0.10053 0.73068 0.45225 0.0
C1499 C 0.12295 0.72574 0.50636 0.0
H1500 H 0.09044 0.7484 0.53567 0.0
C1501 C 0.12249 0.74099 0.60509 0.0
C1502 C 0.10864 0.74071 0.61696 0.0
C1503 C 0.12309 0.73876 0.58079 0.0
C1504 C 0.09945 0.74181 0.52779 0.0
H1505 H 0.13929 0.73797 0.42315 0.0
H1506 H 0.13732 0.73724 0.46581 0.0
H1507 H 0.09185 0.74693 0.49301 0.0
H1508 H 0.08462 0.73739 0.61273 0.0
H1509 H 0.08571 0.73329 0.57043 0.0
H1510 H 0.13061 0.7207 0.54115 0.0
C1511 C 0.12729 0.73534 0.45543 0.0
C1512 C 0.10026 0.74098 0.50333 0.0
C1513 C 0.12839 0.73586 0.43098 0.0
C1514 C 0.09546 0.73779 0.6041 0.0
C1515 C 0.09607 0.73552 0.57982 0.0
C1516 C 0.12211 0.72652 0.53084 0.0
C1517 C 0.11333 0.73287 0.46634 0.0
C1518 C 0.11209 0.73305 0.49234 0.0
C1519 C 0.10987 0.73616 0.56784 0.0
C1520 C 0.11042 0.73468 0.54184 0.0
H1521 H 0.09155 0.72951 0.41741 0.0
H1522 H 0.08964 0.72859 0.46015 0.0
H1523 H 0.13208 0.71936 0.49839 0.0
H1524 H 0.13285 0.74323 0.61447 0.0
H1525 H 0.13389 0.73951 0.57209 0.0
C1526 C 0.26798 0.09148 0.39055 0.0
C1527 C 0.26799 0.10543 0.37808 0.0
C1528 C 0.2717 0.09116 0.41438 0.0
C1529 C 0.27363 0.11615 0.46671 0.0
H1530 H 0.29633 0.08218 0.49295 0.0
C1531 C 0.29104 0.11465 0.56425 0.0
C1532 C 0.28833 0.10072 0.57606 0.0
C1533 C 0.29004 0.11542 0.53978 0.0
C1534 C 0.28992 0.0917 0.48588 0.0
H1535 H 0.27224 0.12994 0.38075 0.0
H1536 H 0.27895 0.12934 0.42225 0.0
H1537 H 0.29183 0.08326 0.4507 0.0
H1538 H 0.28292 0.07658 0.57137 0.0
H1539 H 0.28116 0.07795 0.5287 0.0
H1540 H 0.27164 0.12454 0.50191 0.0
C1541 C 0.2758 0.11868 0.41371 0.0
C1542 C 0.28731 0.09231 0.46169 0.0
C1543 C 0.27202 0.11901 0.38988 0.0
C1544 C 0.28506 0.08749 0.56282 0.0
C1545 C 0.28413 0.08825 0.53835 0.0
C1546 C 0.27629 0.11557 0.49088 0.0
C1547 C 0.27559 0.10477 0.42628 0.0
C1548 C 0.27901 0.10447 0.45184 0.0
C1549 C 0.2864 0.10226 0.52658 0.0
C1550 C 0.28434 0.10327 0.50076 0.0
H1551 H 0.26489 0.08081 0.382 0.0
H1552 H 0.27121 0.08027 0.42359 0.0
H1553 H 0.26699 0.12556 0.45979 0.0
H1554 H 0.29363 0.12505 0.57391 0.0
H1555 H 0.29204 0.12634 0.53118 0.0
C1556 C 0.86287 0.26164 0.42311 0.0
C1557 C 0.87567 0.25882 0.40931 0.0
C1558 C 0.86411 0.26313 0.44749 0.0
C1559 C 0.88866 0.25154 0.49622 0.0
H1560 H 0.86513 0.28069 0.53238 0.0
C1561 C 0.89541 0.25657 0.59629 0.0
C1562 C 0.88212 0.25754 0.60955 0.0
C1563 C 0.89506 0.2583 0.57192 0.0
C1564 C 0.87168 0.27241 0.52252 0.0
H1565 H 0.89991 0.25599 0.41017 0.0
H1566 H 0.90206 0.25872 0.45262 0.0
H1567 H 0.86377 0.28103 0.4895 0.0
H1568 H 0.85808 0.26152 0.60766 0.0
H1569 H 0.85743 0.26434 0.56505 0.0
H1570 H 0.8964 0.24273 0.52909 0.0
C1571 C 0.89103 0.25952 0.44465 0.0
C1572 C 0.87091 0.27262 0.49798 0.0
C1573 C 0.8898 0.25803 0.42031 0.0
C1574 C 0.86852 0.2607 0.59796 0.0
C1575 C 0.86816 0.26241 0.57354 0.0
C1576 C 0.88941 0.25132 0.5207 0.0
C1577 C 0.87817 0.26184 0.45856 0.0
C1578 C 0.87936 0.26214 0.48457 0.0
C1579 C 0.8814 0.26101 0.56022 0.0
C1580 C 0.8809 0.26171 0.53415 0.0
H1581 H 0.85182 0.26233 0.41518 0.0
H1582 H 0.85397 0.26478 0.45772 0.0
H1583 H 0.89508 0.24311 0.48644 0.0
H1584 H 0.9061 0.25427 0.60468 0.0
H1585 H 0.90549 0.25743 0.56222 0.0
C1586 C 0.70536 0.88232 0.55979 0.0
C1587 C 0.71096 0.89485 0.57273 0.0
C1588 C 0.70646 0.8821 0.5353 0.0
C1589 C 0.72871 0.89909 0.48719 0.0
H1590 H 0.69756 0.88181 0.44748 0.0
C1591 C 0.73177 0.90205 0.38631 0.0
C1592 C 0.72819 0.88855 0.37393 0.0
C1593 C 0.72893 0.90316 0.41037 0.0
C1594 C 0.7064 0.88655 0.45838 0.0
H1595 H 0.72154 0.91726 0.57003 0.0
H1596 H 0.7232 0.91701 0.52734 0.0
H1597 H 0.69357 0.88348 0.48986 0.0
H1598 H 0.71858 0.8657 0.37705 0.0
H1599 H 0.71367 0.86765 0.41915 0.0
H1600 H 0.74153 0.90216 0.45577 0.0
C1601 C 0.71827 0.90719 0.53614 0.0
C1602 C 0.70412 0.88751 0.48264 0.0
C1603 C 0.71723 0.90737 0.56061 0.0
C1604 C 0.7215 0.87625 0.38608 0.0
C1605 C 0.7186 0.8774 0.41016 0.0
C1606 C 0.73095 0.89819 0.46296 0.0
C1607 C 0.71313 0.89444 0.52321 0.0
C1608 C 0.71527 0.89377 0.49733 0.0
C1609 C 0.72239 0.89083 0.42258 0.0
C1610 C 0.71984 0.89189 0.44829 0.0
H1611 H 0.70049 0.87246 0.5686 0.0
H1612 H 0.70253 0.87204 0.52593 0.0
H1613 H 0.73766 0.90368 0.49801 0.0
H1614 H 0.73688 0.91177 0.37748 0.0
H1615 H 0.73179 0.91374 0.41939 0.0
C1616 C 0.61 0.75258 0.09645 0.0
C1617 C 0.62396 0.75313 0.10798 0.0
C1618 C 0.60921 0.75332 0.072 0.0
C1619 C 0.63051 0.76444 0.01888 0.0
H1620 H 0.60305 0.73626 0.98808 0.0
C1621 C 0.63043 0.75351 0.91835 0.0
C1622 C 0.61636 0.7518 0.90742 0.0
C1623 C 0.63149 0.75462 0.94281 0.0
C1624 C 0.61063 0.74434 0.9964 0.0
H1625 H 0.64804 0.75525 0.10285 0.0
H1626 H 0.64666 0.75639 0.06006 0.0
H1627 H 0.60469 0.73649 0.03072 0.0
H1628 H 0.59232 0.75039 0.91356 0.0
H1629 H 0.59416 0.75245 0.95609 0.0
H1630 H 0.6365 0.7722 0.9844 0.0
C1631 C 0.63631 0.75552 0.06999 0.0
C1632 C 0.61158 0.74448 0.02086 0.0
C1633 C 0.63711 0.75479 0.09451 0.0
C1634 C 0.60335 0.75158 0.92141 0.0
C1635 C 0.60441 0.75268 0.94582 0.0
C1636 C 0.62957 0.7643 0.99435 0.0
C1637 C 0.62236 0.75461 0.05846 0.0
C1638 C 0.62148 0.75456 0.0324 0.0
C1639 C 0.61849 0.75402 0.95682 0.0
C1640 C 0.61958 0.75428 0.98285 0.0
H1641 H 0.59965 0.75143 0.1063 0.0
H1642 H 0.59827 0.75287 0.06369 0.0
H1643 H 0.63814 0.77245 0.02726 0.0
H1644 H 0.64067 0.75372 0.90807 0.0
H1645 H 0.64251 0.75551 0.95077 0.0
C1646 C 0.21318 0.58502 0.94428 0.0
C1647 C 0.21226 0.5989 0.93172 0.0
C1648 C 0.21488 0.58512 0.96869 0.0
C1649 C 0.21011 0.60975 0.02116 0.0
H1650 H 0.23857 0.58146 0.04934 0.0
C1651 C 0.22904 0.61468 0.11796 0.0
C1652 C 0.23048 0.60093 0.13072 0.0
C1653 C 0.22645 0.61435 0.09375 0.0
C1654 C 0.23045 0.58931 0.04178 0.0
H1655 H 0.21227 0.62377 0.93499 0.0
H1656 H 0.21538 0.62392 0.97748 0.0
H1657 H 0.2345 0.58093 0.00701 0.0
H1658 H 0.23022 0.57603 0.12807 0.0
H1659 H 0.22559 0.57546 0.08592 0.0
H1660 H 0.20613 0.61817 0.05594 0.0
C1661 C 0.2146 0.61296 0.96851 0.0
C1662 C 0.22811 0.58899 0.01752 0.0
C1663 C 0.21291 0.61287 0.94412 0.0
C1664 C 0.22923 0.58684 0.11876 0.0
C1665 C 0.22665 0.5865 0.09457 0.0
C1666 C 0.21246 0.61006 0.04542 0.0
C1667 C 0.2157 0.59909 0.98107 0.0
C1668 C 0.21794 0.59923 0.00692 0.0
C1669 C 0.22526 0.60025 0.08177 0.0
C1670 C 0.22268 0.59986 0.056 0.0
H1671 H 0.21267 0.57406 0.93527 0.0
H1672 H 0.21549 0.57423 0.97788 0.0
H1673 H 0.20204 0.61763 0.01357 0.0
H1674 H 0.22998 0.62573 0.12664 0.0
H1675 H 0.22561 0.62514 0.08435 0.0
C1676 C 0.36334 0.25542 0.07947 0.0
C1677 C 0.37554 0.2517 0.09408 0.0
C1678 C 0.36503 0.25559 0.05509 0.0
C1679 C 0.39353 0.26007 0.0091 0.0
H1680 H 0.36273 0.24309 0.96845 0.0
C1681 C 0.4006 0.25766 0.90838 0.0
C1682 C 0.38792 0.2613 0.89474 0.0
C1683 C 0.39929 0.25563 0.93264 0.0
C1684 C 0.37136 0.24802 0.97955 0.0
H1685 H 0.39906 0.24507 0.09453 0.0
H1686 H 0.40199 0.24539 0.0519 0.0
H1687 H 0.36005 0.24101 0.01097 0.0
H1688 H 0.36392 0.26564 0.89587 0.0
H1689 H 0.36169 0.26238 0.93819 0.0
H1690 H 0.40472 0.26735 0.97778 0.0
C1691 C 0.39115 0.24827 0.05937 0.0
C1692 C 0.36983 0.2468 0.0039 0.0
C1693 C 0.38944 0.24801 0.08377 0.0
C1694 C 0.3739 0.26279 0.90586 0.0
C1695 C 0.3726 0.26082 0.93012 0.0
C1696 C 0.39503 0.26136 0.98476 0.0
C1697 C 0.37897 0.25212 0.04478 0.0
C1698 C 0.38086 0.25289 0.01893 0.0
C1699 C 0.38528 0.25724 0.94382 0.0
C1700 C 0.38392 0.25543 0.96969 0.0
H1701 H 0.35248 0.25831 0.08685 0.0
H1702 H 0.35549 0.25876 0.04431 0.0
H1703 H 0.40211 0.26506 0.02025 0.0
H1704 H 0.41156 0.25634 0.90033 0.0
H1705 H 0.40924 0.25266 0.94261 0.0
C1706 C 0.75687 0.37218 0.11413 0.0
C1707 C 0.7585 0.38579 0.12719 0.0
C1708 C 0.76016 0.37195 0.09013 0.0
C1709 C 0.78115 0.39271 0.04411 0.0
H1710 H 0.75351 0.37222 0.00174 0.0
C1711 C 0.78425 0.39982 0.94334 0.0
C1712 C 0.78134 0.3868 0.92942 0.0
C1713 C 0.78206 0.39933 0.96763 0.0
C1714 C 0.76146 0.37781 0.01334 0.0
H1715 H 0.76501 0.40982 0.12534 0.0
H1716 H 0.77068 0.40942 0.08346 0.0
H1717 H 0.74862 0.37195 0.04384 0.0
H1718 H 0.77414 0.36296 0.93017 0.0
H1719 H 0.77053 0.36205 0.97255 0.0
H1720 H 0.79398 0.39859 0.01361 0.0
C1721 C 0.76698 0.39889 0.09182 0.0
C1722 C 0.75865 0.37766 0.03748 0.0
C1723 C 0.76363 0.39914 0.11579 0.0
C1724 C 0.77641 0.37322 0.94037 0.0
C1725 C 0.77426 0.37272 0.96465 0.0
C1726 C 0.78399 0.39282 0.01996 0.0
C1727 C 0.76522 0.38531 0.0787 0.0
C1728 C 0.76843 0.38517 0.05312 0.0
C1729 C 0.77695 0.3858 0.97856 0.0
C1730 C 0.77414 0.38542 0.00429 0.0
H1731 H 0.75298 0.36169 0.12239 0.0
H1732 H 0.75886 0.36126 0.08054 0.0
H1733 H 0.78901 0.39842 0.05575 0.0
H1734 H 0.78803 0.41047 0.93545 0.0
H1735 H 0.78407 0.40967 0.97779 0.0
C1736 C 0.6192 0.24775 0.09686 0.0
C1737 C 0.60502 0.24726 0.10771 0.0
C1738 C 0.62056 0.24555 0.07266 0.0
C1739 C 0.59873 0.24764 0.01762 0.0
H1740 H 0.63256 0.22504 0.99204 0.0
C1741 C 0.60476 0.23504 0.91841 0.0
C1742 C 0.61904 0.2378 0.9087 0.0
C1743 C 0.60272 0.23509 0.94275 0.0
C1744 C 0.6231 0.23146 0.99893 0.0
H1745 H 0.58117 0.24382 0.10169 0.0
H1746 H 0.58359 0.23976 0.05948 0.0
H1747 H 0.62953 0.22706 0.03451 0.0
H1748 H 0.64241 0.24249 0.91696 0.0
H1749 H 0.63882 0.24259 0.95937 0.0
H1750 H 0.59234 0.25206 0.98201 0.0
C1751 C 0.59363 0.2421 0.06964 0.0
C1752 C 0.62138 0.23264 0.02325 0.0
C1753 C 0.59225 0.24435 0.09385 0.0
C1754 C 0.63127 0.24033 0.92386 0.0
C1755 C 0.62923 0.2403 0.94817 0.0
C1756 C 0.60043 0.2464 0.9933 0.0
C1757 C 0.60779 0.24276 0.05873 0.0
C1758 C 0.60925 0.24087 0.03289 0.0
C1759 C 0.61492 0.23779 0.95788 0.0
C1760 C 0.61271 0.23842 0.9837 0.0
H1761 H 0.62925 0.25001 0.10701 0.0
H1762 H 0.63162 0.24636 0.06479 0.0
H1763 H 0.58938 0.25425 0.02444 0.0
H1764 H 0.59512 0.23302 0.90722 0.0
H1765 H 0.59159 0.23296 0.94974 0.0
C1766 C 0.77763 0.61247 0.06122 0.0
C1767 C 0.78693 0.60118 0.07125 0.0
C1768 C 0.77437 0.61221 0.03725 0.0
C1769 C 0.78733 0.59711 0.98029 0.0
H1770 H 0.74604 0.60451 0.96158 0.0
C1771 C 0.76655 0.58912 0.88466 0.0
C1772 C 0.75644 0.60018 0.876 0.0
C1773 C 0.77058 0.58901 0.90839 0.0
C1774 C 0.75766 0.6026 0.96648 0.0
H1775 H 0.80033 0.5809 0.06385 0.0
H1776 H 0.79458 0.58043 0.0219 0.0
H1777 H 0.75269 0.60486 0.00306 0.0
H1778 H 0.74278 0.61991 0.88544 0.0
H1779 H 0.74994 0.61983 0.92669 0.0
H1780 H 0.7923 0.59493 0.94363 0.0
C1781 C 0.78989 0.58954 0.03262 0.0
C1782 C 0.76146 0.60278 0.99025 0.0
C1783 C 0.79313 0.58977 0.05667 0.0
C1784 C 0.75053 0.61117 0.89155 0.0
C1785 C 0.75457 0.61108 0.91524 0.0
C1786 C 0.78353 0.59696 0.95646 0.0
C1787 C 0.78034 0.60066 0.02272 0.0
C1788 C 0.77635 0.60014 0.99742 0.0
C1789 C 0.76459 0.59997 0.92397 0.0
C1790 C 0.76865 0.59979 0.94928 0.0
H1791 H 0.77272 0.62147 0.07191 0.0
H1792 H 0.76718 0.62109 0.03007 0.0
H1793 H 0.79893 0.59518 0.98527 0.0
H1794 H 0.77129 0.58047 0.87314 0.0
H1795 H 0.7782 0.5802 0.91461 0.0
C1796 C 0.35958 0.74144 0.91149 0.0
C1797 C 0.37274 0.74357 0.89824 0.0
C1798 C 0.36 0.74218 0.93601 0.0
C1799 C 0.38602 0.73787 0.98572 0.0
H1800 H 0.35512 0.75917 0.02108 0.0
C1801 C 0.39123 0.74759 0.08528 0.0
C1802 C 0.37825 0.74548 0.09898 0.0
C1803 C 0.39031 0.74784 0.06081 0.0
C1804 C 0.36374 0.75303 0.01147 0.0
H1805 H 0.39664 0.7484 0.90033 0.0
H1806 H 0.39736 0.74973 0.94306 0.0
H1807 H 0.35392 0.75873 0.97822 0.0
H1808 H 0.3541 0.74213 0.09772 0.0
H1809 H 0.35254 0.74235 0.05493 0.0
H1810 H 0.39579 0.73204 0.01884 0.0
C1811 C 0.38674 0.74732 0.9345 0.0
C1812 C 0.36306 0.75279 0.98693 0.0
C1813 C 0.3863 0.74664 0.91001 0.0
C1814 C 0.36431 0.74381 0.08767 0.0
C1815 C 0.3634 0.74401 0.06315 0.0
C1816 C 0.38668 0.73806 0.01021 0.0
C1817 C 0.37362 0.745 0.94777 0.0
C1818 C 0.37423 0.74525 0.97381 0.0
C1819 C 0.37641 0.74593 0.04944 0.0
C1820 C 0.37558 0.74569 0.02338 0.0
H1821 H 0.34894 0.73906 0.90296 0.0
H1822 H 0.34973 0.74021 0.94578 0.0
H1823 H 0.39465 0.73173 0.97612 0.0
H1824 H 0.40214 0.74903 0.09344 0.0
H1825 H 0.40052 0.74961 0.05079 0.0
C1826 C 0.22394 0.40326 0.88358 0.0
C1827 C 0.22784 0.3898 0.87133 0.0
C1828 C 0.22014 0.40264 0.90735 0.0
C1829 C 0.22533 0.37898 0.9602 0.0
H1830 H 0.19268 0.4037 0.98496 0.0
C1831 C 0.20713 0.37512 0.05712 0.0
C1832 C 0.20421 0.3891 0.06867 0.0
C1833 C 0.20899 0.37471 0.03278 0.0
C1834 C 0.20191 0.39683 0.97835 0.0
H1835 H 0.23061 0.36509 0.87438 0.0
H1836 H 0.22391 0.36402 0.91592 0.0
H1837 H 0.19782 0.40381 0.94286 0.0
H1838 H 0.2007 0.41357 0.06363 0.0
H1839 H 0.20412 0.41286 0.02117 0.0
H1840 H 0.22957 0.37214 0.99566 0.0
C1841 C 0.22394 0.37507 0.90715 0.0
C1842 C 0.20485 0.39689 0.95423 0.0
C1843 C 0.22771 0.37568 0.88333 0.0
C1844 C 0.20291 0.40261 0.05528 0.0
C1845 C 0.20479 0.40219 0.03091 0.0
C1846 C 0.22241 0.37893 0.9843 0.0
C1847 C 0.22018 0.38856 0.91944 0.0
C1848 C 0.21665 0.38803 0.94491 0.0
C1849 C 0.208 0.38825 0.01941 0.0
C1850 C 0.21072 0.38792 0.99367 0.0
H1851 H 0.22393 0.41433 0.87487 0.0
H1852 H 0.21748 0.41326 0.91639 0.0
H1853 H 0.23464 0.37221 0.95361 0.0
H1854 H 0.20813 0.36449 0.0669 0.0
H1855 H 0.21122 0.36375 0.02441 0.0
C1856 C 0.15483 0.37541 0.19349 0.0
C1857 C 0.1641 0.36799 0.17701 0.0
C1858 C 0.14382 0.36714 0.20566 0.0
C1859 C 0.12279 0.33027 0.20567 0.0
H1860 H 0.12388 0.33461 0.27346 0.0
C1861 C 0.10631 0.28158 0.26795 0.0
C1862 C 0.09838 0.28504 0.28862 0.0
C1863 C 0.1115 0.29332 0.2534 0.0
C1864 C 0.1232 0.33346 0.25454 0.0
H1865 H 0.16863 0.34628 0.15956 0.0
H1866 H 0.14957 0.33192 0.18077 0.0
H1867 H 0.1378 0.35267 0.24895 0.0
H1868 H 0.08949 0.30355 0.31009 0.0
H1869 H 0.09871 0.32415 0.2846 0.0
H1870 H 0.10868 0.31068 0.21133 0.0
C1871 C 0.15069 0.34411 0.18424 0.0
C1872 C 0.13116 0.34381 0.24049 0.0
C1873 C 0.16172 0.35233 0.17221 0.0
C1874 C 0.0956 0.30052 0.2943 0.0
C1875 C 0.10089 0.3123 0.27976 0.0
C1876 C 0.11487 0.31991 0.21971 0.0
C1877 C 0.14181 0.35134 0.20141 0.0
C1878 C 0.1314 0.34203 0.21595 0.0
C1879 C 0.10893 0.3088 0.2592 0.0
C1880 C 0.11537 0.32112 0.24431 0.0
H1881 H 0.15637 0.38748 0.19753 0.0
H1882 H 0.13705 0.37303 0.21865 0.0
H1883 H 0.12255 0.32879 0.18678 0.0
H1884 H 0.10862 0.26977 0.26304 0.0
H1885 H 0.11787 0.29026 0.23787 0.0
C1886 C 0.60687 0.19605 0.19321 0.0
C1887 C 0.6049 0.21094 0.2023 0.0
C1888 C 0.61426 0.18479 0.20642 0.0
C1889 C 0.64138 0.1813 0.25497 0.0
H1890 H 0.62868 0.13863 0.25669 0.0
C1891 C 0.66947 0.13833 0.31692 0.0
C1892 C 0.67368 0.12412 0.30716 0.0
C1893 C 0.65981 0.14814 0.30481 0.0
C1894 C 0.6324 0.15049 0.25622 0.0
H1895 H 0.60857 0.22554 0.23271 0.0
H1896 H 0.6212 0.20592 0.25577 0.0
H1897 H 0.61415 0.15733 0.23395 0.0
H1898 H 0.67052 0.10877 0.2775 0.0
H1899 H 0.65371 0.12605 0.25621 0.0
H1900 H 0.65962 0.17455 0.27704 0.0
C1901 C 0.61737 0.203 0.23827 0.0
C1902 C 0.62411 0.16118 0.2432 0.0
C1903 C 0.61006 0.21423 0.22507 0.0
C1904 C 0.66751 0.11966 0.28547 0.0
C1905 C 0.65784 0.12952 0.27331 0.0
C1906 C 0.64962 0.17066 0.26796 0.0
C1907 C 0.61977 0.18823 0.22898 0.0
C1908 C 0.62849 0.17672 0.24255 0.0
C1909 C 0.65416 0.144 0.28264 0.0
C1910 C 0.64519 0.15517 0.26884 0.0
H1911 H 0.60301 0.19317 0.17571 0.0
H1912 H 0.61604 0.17355 0.19872 0.0
H1913 H 0.64526 0.1931 0.25439 0.0
H1914 H 0.6739 0.14205 0.33371 0.0
H1915 H 0.65694 0.15911 0.31265 0.0
C1916 C 0.83073 0.63631 0.17017 0.0
C1917 C 0.82856 0.62063 0.17506 0.0
C1918 C 0.84209 0.64456 0.18138 0.0
C1919 C 0.86306 0.64484 0.2363 0.0
H1920 H 0.88431 0.67845 0.20625 0.0
C1921 C 0.89849 0.68883 0.28893 0.0
C1922 C 0.89518 0.70423 0.28352 0.0
C1923 C 0.89336 0.67694 0.27443 0.0
C1924 C 0.87848 0.66908 0.21487 0.0
H1925 H 0.83706 0.60113 0.19477 0.0
H1926 H 0.85697 0.61563 0.21447 0.0
H1927 H 0.87019 0.66018 0.1823 0.0
H1928 H 0.88423 0.71927 0.25836 0.0
H1929 H 0.87526 0.69862 0.23326 0.0
H1930 H 0.87089 0.65408 0.26894 0.0
C1931 C 0.84977 0.62151 0.20204 0.0
C1932 C 0.87041 0.65863 0.20118 0.0
C1933 C 0.83842 0.61321 0.19068 0.0
C1934 C 0.88694 0.70753 0.26308 0.0
C1935 C 0.88192 0.69569 0.24855 0.0
C1936 C 0.87115 0.6553 0.25001 0.0
C1937 C 0.85153 0.63734 0.19781 0.0
C1938 C 0.86221 0.6467 0.21181 0.0
C1939 C 0.88496 0.68026 0.25414 0.0
C1940 C 0.87852 0.66781 0.23948 0.0
H1941 H 0.82337 0.64235 0.15815 0.0
H1942 H 0.84303 0.65677 0.17795 0.0
H1943 H 0.85675 0.63586 0.24503 0.0
H1944 H 0.90485 0.68593 0.30454 0.0
H1945 H 0.89591 0.66515 0.2791 0.0
C1946 C 0.39699 0.78836 0.23488 0.0
C1947 C 0.38993 0.78285 0.21445 0.0
C1948 C 0.39106 0.80094 0.24703 0.0
C1949 C 0.36362 0.83304 0.24223 0.0
H1950 H 0.35877 0.82673 0.30924 0.0
C1951 C 0.31563 0.85946 0.29547 0.0
C1952 C 0.31826 0.8643 0.31866 0.0
C1953 C 0.327 0.85242 0.28251 0.0
C1954 C 0.3603 0.82886 0.29064 0.0
H1955 H 0.37145 0.78661 0.19022 0.0
H1956 H 0.36101 0.80833 0.21155 0.0
H1957 H 0.37422 0.80901 0.28659 0.0
H1958 H 0.33503 0.86604 0.34619 0.0
H1959 H 0.35495 0.85355 0.32348 0.0
H1960 H 0.34913 0.85253 0.2462 0.0
C1961 C 0.37123 0.8031 0.21807 0.0
C1962 C 0.36916 0.8187 0.27765 0.0
C1963 C 0.37716 0.79055 0.20592 0.0
C1964 C 0.33266 0.86238 0.32838 0.0
C1965 C 0.34403 0.8552 0.31543 0.0
C1966 C 0.35472 0.84318 0.25522 0.0
C1967 C 0.37795 0.80827 0.23898 0.0
C1968 C 0.37055 0.82041 0.25318 0.0
C1969 C 0.34125 0.84998 0.29246 0.0
C1970 C 0.35262 0.84091 0.27944 0.0
H1971 H 0.40692 0.78276 0.2418 0.0
H1972 H 0.39659 0.80478 0.26293 0.0
H1973 H 0.36472 0.83484 0.22348 0.0
H1974 H 0.30469 0.86084 0.28741 0.0
H1975 H 0.32443 0.84833 0.26498 0.0
C1976 C 0.1561 0.61642 0.81621 0.0
C1977 C 0.16671 0.62378 0.83066 0.0
C1978 C 0.14513 0.62502 0.80446 0.0
C1979 C 0.12674 0.66325 0.80299 0.0
H1980 H 0.12482 0.65662 0.73569 0.0
C1981 C 0.11062 0.71096 0.73878 0.0
C1982 C 0.10186 0.70739 0.71899 0.0
C1983 C 0.1157 0.69936 0.75368 0.0
C1984 C 0.12497 0.65844 0.75451 0.0
H1985 H 0.1737 0.64575 0.84509 0.0
H1986 H 0.15465 0.66066 0.82472 0.0
H1987 H 0.13844 0.63841 0.76036 0.0
H1988 H 0.09138 0.68883 0.69945 0.0
H1989 H 0.10035 0.66847 0.72557 0.0
H1990 H 0.11372 0.68356 0.79706 0.0
C1991 C 0.15472 0.64829 0.82246 0.0
C1992 C 0.13276 0.648 0.76865 0.0
C1993 C 0.16572 0.63975 0.834 0.0
C1994 C 0.09815 0.69194 0.71454 0.0
C1995 C 0.1033 0.68029 0.72944 0.0
C1996 C 0.11895 0.67366 0.78888 0.0
C1997 C 0.1445 0.64108 0.80721 0.0
C1998 C 0.13411 0.65057 0.79293 0.0
C1999 C 0.11216 0.68389 0.74914 0.0
C2000 C 0.11839 0.67163 0.7644 0.0
H2001 H 0.15658 0.60412 0.8133 0.0
H2002 H 0.13732 0.61916 0.79292 0.0
H2003 H 0.12738 0.66537 0.82172 0.0
H2004 H 0.11368 0.72275 0.74274 0.0
H2005 H 0.12272 0.70249 0.76847 0.0
C2006 C 0.30929 0.14742 0.71725 0.0
C2007 C 0.31378 0.13862 0.69778 0.0
C2008 C 0.31942 0.15729 0.72829 0.0
C2009 C 0.35879 0.16484 0.73977 0.0
H2010 H 0.3459 0.20718 0.74686 0.0
C2011 C 0.39762 0.21256 0.77748 0.0
C2012 C 0.39076 0.22397 0.79127 0.0
C2013 C 0.38886 0.20165 0.76566 0.0
C2014 C 0.34961 0.19537 0.74539 0.0
H2015 H 0.33254 0.13283 0.67509 0.0
H2016 H 0.35041 0.14998 0.69487 0.0
H2017 H 0.32948 0.18876 0.72747 0.0
H2018 H 0.36946 0.23251 0.80441 0.0
H2019 H 0.35429 0.21324 0.78471 0.0
H2020 H 0.37874 0.17128 0.7584 0.0
C2021 C 0.33898 0.14926 0.70133 0.0
C2022 C 0.34023 0.18486 0.73414 0.0
C2023 C 0.32875 0.13954 0.69 0.0
C2024 C 0.37506 0.22399 0.79362 0.0
C2025 C 0.36635 0.21298 0.78216 0.0
C2026 C 0.36813 0.17532 0.7514 0.0
C2027 C 0.33431 0.15839 0.72032 0.0
C2028 C 0.34467 0.16949 0.73141 0.0
C2029 C 0.37309 0.20184 0.76768 0.0
C2030 C 0.36357 0.19069 0.75456 0.0
H2031 H 0.29784 0.14697 0.72367 0.0
H2032 H 0.31561 0.16413 0.74304 0.0
H2033 H 0.36241 0.153 0.73791 0.0
H2034 H 0.40971 0.21232 0.77532 0.0
H2035 H 0.39443 0.19332 0.75452 0.0
C2036 C 0.88177 0.28561 0.73195 0.0
C2037 C 0.8892 0.28908 0.71084 0.0
C2038 C 0.87711 0.29734 0.74697 0.0
C2039 C 0.86564 0.3375 0.7468 0.0
H2040 H 0.86688 0.3321 0.81441 0.0
C2041 C 0.83316 0.37777 0.8093 0.0
C2042 C 0.82382 0.3697 0.82496 0.0
C2043 C 0.84459 0.37009 0.79714 0.0
C2044 C 0.86651 0.33381 0.79557 0.0
H2045 H 0.89779 0.30757 0.68908 0.0
H2046 H 0.88949 0.32816 0.71541 0.0
H2047 H 0.88075 0.31444 0.78912 0.0
H2048 H 0.81968 0.34753 0.84118 0.0
H2049 H 0.83951 0.33421 0.82007 0.0
H2050 H 0.85088 0.35647 0.75321 0.0
C2051 C 0.88729 0.31632 0.72023 0.0
C2052 C 0.87443 0.32371 0.78111 0.0
C2053 C 0.89206 0.30455 0.70521 0.0
C2054 C 0.82663 0.35405 0.82914 0.0
C2055 C 0.83809 0.34644 0.81717 0.0
C2056 C 0.85771 0.34762 0.76129 0.0
C2057 C 0.87972 0.31282 0.74123 0.0
C2058 C 0.87363 0.32511 0.75655 0.0
C2059 C 0.84698 0.35428 0.80066 0.0
C2060 C 0.85764 0.34554 0.78578 0.0
H2061 H 0.87939 0.27382 0.73684 0.0
H2062 H 0.87106 0.29426 0.7628 0.0
H2063 H 0.86474 0.33882 0.72794 0.0
H2064 H 0.83128 0.38985 0.80574 0.0
H2065 H 0.85134 0.37644 0.78463 0.0
C2066 C 0.65723 0.8762 0.6973 0.0
C2067 C 0.66732 0.86897 0.68183 0.0
C2068 C 0.64742 0.86743 0.71108 0.0
C2069 C 0.63105 0.82841 0.71706 0.0
H2070 H 0.631 0.83735 0.78383 0.0
C2071 C 0.61815 0.78251 0.78594 0.0
C2072 C 0.60922 0.78642 0.8054 0.0
C2073 C 0.62288 0.79377 0.77019 0.0
C2074 C 0.63067 0.83486 0.76519 0.0
H2075 H 0.6746 0.84695 0.66795 0.0
H2076 H 0.65761 0.83174 0.6919 0.0
H2077 H 0.64306 0.85521 0.75663 0.0
H2078 H 0.5983 0.80526 0.82365 0.0
H2079 H 0.60673 0.82505 0.79605 0.0
H2080 H 0.61912 0.80782 0.72568 0.0
C2081 C 0.65717 0.84415 0.69335 0.0
C2082 C 0.63755 0.84509 0.74961 0.0
C2083 C 0.66699 0.85288 0.67973 0.0
C2084 C 0.60519 0.80189 0.80883 0.0
C2085 C 0.61003 0.81322 0.79308 0.0
C2086 C 0.62421 0.81819 0.73262 0.0
C2087 C 0.64744 0.8513 0.70945 0.0
C2088 C 0.63818 0.84175 0.72546 0.0
C2089 C 0.61886 0.80924 0.77354 0.0
C2090 C 0.62432 0.82109 0.7569 0.0
H2091 H 0.6572 0.88859 0.69929 0.0
H2092 H 0.63996 0.87325 0.72321 0.0
H2093 H 0.63111 0.82568 0.6985 0.0
H2094 H 0.62147 0.7707 0.78276 0.0
H2095 H 0.62991 0.79038 0.75553 0.0
C2096 C 0.85333 0.71081 0.70032 0.0
C2097 C 0.86323 0.70539 0.68296 0.0
C2098 C 0.84354 0.70076 0.71169 0.0
C2099 C 0.83662 0.65993 0.72512 0.0
H2100 H 0.79554 0.67385 0.73337 0.0
C2101 C 0.78902 0.62035 0.75932 0.0
C2102 C 0.77904 0.62687 0.77566 0.0
C2103 C 0.79955 0.62953 0.74768 0.0
C2104 C 0.807 0.66985 0.73142 0.0
H2105 H 0.87092 0.68506 0.66439 0.0
H2106 H 0.85369 0.66746 0.68426 0.0
H2107 H 0.81369 0.69052 0.71403 0.0
H2108 H 0.77236 0.64811 0.79276 0.0
H2109 H 0.79078 0.66405 0.77267 0.0
H2110 H 0.82988 0.63925 0.74263 0.0
C2111 C 0.85359 0.67951 0.68911 0.0
C2112 C 0.8174 0.6794 0.72034 0.0
C2113 C 0.86341 0.68959 0.67768 0.0
C2114 C 0.77983 0.64273 0.78019 0.0
C2115 C 0.79034 0.65189 0.76857 0.0
C2116 C 0.8262 0.65036 0.73625 0.0
C2117 C 0.8434 0.68504 0.70599 0.0
C2118 C 0.83236 0.67461 0.71725 0.0
C2119 C 0.80029 0.64541 0.75214 0.0
C2120 C 0.8113 0.65528 0.73968 0.0
H2121 H 0.85298 0.72289 0.70495 0.0
H2122 H 0.83602 0.70531 0.72494 0.0
H2123 H 0.8481 0.65598 0.72314 0.0
H2124 H 0.78868 0.60815 0.75543 0.0
H2125 H 0.80697 0.62423 0.73495 0.0
C2126 C 0.36909 0.78815 0.78312 0.0
C2127 C 0.36599 0.78628 0.80715 0.0
C2128 C 0.36223 0.79993 0.77035 0.0
C2129 C 0.34019 0.83611 0.77678 0.0
H2130 H 0.32478 0.82474 0.71544 0.0
C2131 C 0.29241 0.86865 0.72975 0.0
C2132 C 0.29396 0.87127 0.70552 0.0
C2133 C 0.30285 0.85961 0.74175 0.0
C2134 C 0.3292 0.82816 0.7324 0.0
H2135 H 0.35364 0.79556 0.83679 0.0
H2136 H 0.34141 0.81582 0.81445 0.0
H2137 H 0.34029 0.80662 0.73719 0.0
H2138 H 0.30779 0.86665 0.67492 0.0
H2139 H 0.32594 0.8507 0.69591 0.0
H2140 H 0.32855 0.85747 0.77219 0.0
C2141 C 0.34934 0.80841 0.8055 0.0
C2142 C 0.33813 0.8178 0.74486 0.0
C2143 C 0.35628 0.79671 0.81831 0.0
C2144 C 0.30627 0.86482 0.69359 0.0
C2145 C 0.31663 0.85565 0.70556 0.0
C2146 C 0.33114 0.84642 0.76438 0.0
C2147 C 0.35204 0.81002 0.78129 0.0
C2148 C 0.34359 0.82157 0.76732 0.0
C2149 C 0.31497 0.85289 0.72972 0.0
C2150 C 0.32543 0.84247 0.74219 0.0
H2151 H 0.37663 0.78037 0.77407 0.0
H2152 H 0.36479 0.80102 0.75183 0.0
H2153 H 0.34443 0.83949 0.79385 0.0
H2154 H 0.28306 0.87349 0.73946 0.0
H2155 H 0.30121 0.85753 0.76034 0.0
C2156 C 0.13188 0.29169 0.70065 0.0
C2157 C 0.13936 0.28459 0.6818 0.0
C2158 C 0.13788 0.30484 0.71123 0.0
C2159 C 0.16522 0.33635 0.70152 0.0
H2160 H 0.16593 0.33852 0.76954 0.0
C2161 C 0.20567 0.37549 0.75287 0.0
C2162 C 0.20043 0.3827 0.77339 0.0
C2163 C 0.1966 0.36506 0.74078 0.0
C2164 C 0.1656 0.33822 0.75053 0.0
H2165 H 0.15896 0.28578 0.65918 0.0
H2166 H 0.1695 0.30853 0.67782 0.0
H2167 H 0.15311 0.3172 0.75026 0.0
H2168 H 0.18138 0.38498 0.79691 0.0
H2169 H 0.16551 0.36671 0.77573 0.0
H2170 H 0.17805 0.35718 0.70184 0.0
C2171 C 0.15888 0.3041 0.68421 0.0
C2172 C 0.15826 0.326 0.73947 0.0
C2173 C 0.15289 0.29098 0.67364 0.0
C2174 C 0.18576 0.37958 0.78119 0.0
C2175 C 0.1767 0.36907 0.76914 0.0
C2176 C 0.17259 0.34855 0.71257 0.0
C2177 C 0.15147 0.31116 0.70317 0.0
C2178 C 0.1582 0.32479 0.71485 0.0
C2179 C 0.18211 0.36156 0.74898 0.0
C2180 C 0.17307 0.34948 0.7372 0.0
H2181 H 0.12139 0.28708 0.70729 0.0
H2182 H 0.13182 0.3101 0.72565 0.0
H2183 H 0.16513 0.3359 0.68251 0.0
H2184 H 0.21692 0.37766 0.74636 0.0
H2185 H 0.20115 0.35933 0.72545 0.0
C2186 C 0.69698 0.10673 0.74362 0.0
C2187 C 0.69376 0.10137 0.72088 0.0
C2188 C 0.6863 0.11508 0.75622 0.0
C2189 C 0.65534 0.14133 0.74623 0.0
H2190 H 0.65048 0.13834 0.81377 0.0
C2191 C 0.62308 0.18759 0.79821 0.0
C2192 C 0.63052 0.19287 0.81845 0.0
C2193 C 0.62773 0.17406 0.78708 0.0
C2194 C 0.65172 0.13933 0.79491 0.0
H2195 H 0.67659 0.09998 0.69391 0.0
H2196 H 0.65792 0.11476 0.71595 0.0
H2197 H 0.66425 0.11835 0.7927 0.0
H2198 H 0.6483 0.18782 0.84337 0.0
H2199 H 0.65657 0.1645 0.82378 0.0
H2200 H 0.6435 0.16266 0.74847 0.0
C2201 C 0.66875 0.11249 0.72392 0.0
C2202 C 0.65956 0.12787 0.78286 0.0
C2203 C 0.67941 0.10399 0.71137 0.0
C2204 C 0.64234 0.18409 0.82779 0.0
C2205 C 0.647 0.17062 0.81665 0.0
C2206 C 0.64757 0.15284 0.75829 0.0
C2207 C 0.6722 0.11834 0.7463 0.0
C2208 C 0.66181 0.12899 0.75851 0.0
C2209 C 0.63991 0.16557 0.79596 0.0
C2210 C 0.64606 0.1522 0.78285 0.0
H2211 H 0.70791 0.10483 0.75148 0.0
H2212 H 0.68935 0.11958 0.77331 0.0
H2213 H 0.65703 0.14259 0.72749 0.0
H2214 H 0.61385 0.19404 0.79068 0.0
H2215 H 0.62191 0.17038 0.77134 0.0
C2216 C 0.78572 0.36885 0.24294 0.0
C2217 C 0.79012 0.37663 0.22244 0.0
C2218 C 0.79572 0.35909 0.25451 0.0
C2219 C 0.83593 0.34903 0.26032 0.0
H2220 H 0.81998 0.30977 0.28089 0.0
C2221 C 0.86969 0.30545 0.31675 0.0
C2222 C 0.86793 0.28981 0.31114 0.0
C2223 C 0.86084 0.3166 0.30569 0.0
C2224 C 0.82464 0.32064 0.2751 0.0
H2225 H 0.80861 0.38058 0.19832 0.0
H2226 H 0.82603 0.36337 0.21841 0.0
H2227 H 0.80335 0.32836 0.2624 0.0
H2228 H 0.85591 0.27365 0.28891 0.0
H2229 H 0.84066 0.29307 0.26953 0.0
H2230 H 0.85732 0.34108 0.27266 0.0
C2231 C 0.81488 0.36495 0.22565 0.0
C2232 C 0.81506 0.33137 0.26478 0.0
C2233 C 0.80487 0.37474 0.21407 0.0
C2234 C 0.85746 0.28559 0.2938 0.0
C2235 C 0.84865 0.29671 0.28277 0.0
C2236 C 0.84553 0.33826 0.27071 0.0
C2237 C 0.81035 0.35687 0.24582 0.0
C2238 C 0.82059 0.34568 0.25723 0.0
C2239 C 0.85008 0.31231 0.28883 0.0
C2240 C 0.83999 0.32392 0.27808 0.0
H2241 H 0.77447 0.37015 0.24995 0.0
H2242 H 0.79198 0.35323 0.27023 0.0
H2243 H 0.84049 0.36001 0.25484 0.0
H2244 H 0.87766 0.30907 0.33002 0.0
H2245 H 0.86213 0.32853 0.31083 0.0
C2246 C 0.63081 0.79052 0.22126 0.0
C2247 C 0.62294 0.79175 0.19994 0.0
C2248 C 0.63776 0.80337 0.23114 0.0
C2249 C 0.65455 0.83998 0.21418 0.0
H2250 H 0.65631 0.84667 0.28149 0.0
C2251 C 0.70262 0.87264 0.25938 0.0
C2252 C 0.69927 0.88216 0.27863 0.0
C2253 C 0.6914 0.86378 0.24889 0.0
C2254 C 0.65576 0.84511 0.26263 0.0
H2255 H 0.61575 0.80756 0.17268 0.0
H2256 H 0.62797 0.83004 0.18999 0.0
H2257 H 0.63941 0.82714 0.2656 0.0
H2258 H 0.68143 0.89022 0.30152 0.0
H2259 H 0.66181 0.87464 0.28317 0.0
H2260 H 0.67111 0.85775 0.21124 0.0
C2261 C 0.62882 0.81908 0.19892 0.0
C2262 C 0.6462 0.83383 0.25356 0.0
C2263 C 0.62178 0.80622 0.18908 0.0
C2264 C 0.68438 0.88296 0.28676 0.0
C2265 C 0.67315 0.874 0.27633 0.0
C2266 C 0.66415 0.85121 0.22325 0.0
C2267 C 0.63705 0.81773 0.21989 0.0
C2268 C 0.64573 0.83093 0.22929 0.0
C2269 C 0.67659 0.86419 0.25746 0.0
C2270 C 0.6651 0.85366 0.2476 0.0
H2271 H 0.63189 0.77954 0.2301 0.0
H2272 H 0.64417 0.80192 0.24716 0.0
H2273 H 0.65452 0.83794 0.19541 0.0
H2274 H 0.71398 0.87179 0.25266 0.0
H2275 H 0.69444 0.85618 0.23457 0.0
C2276 C 0.13574 0.68031 0.33603 0.0
C2277 C 0.12512 0.69021 0.32581 0.0
C2278 C 0.1415 0.6679 0.32335 0.0
C2279 C 0.1479 0.65575 0.26236 0.0
H2280 H 0.16086 0.61791 0.29218 0.0
C2281 C 0.18159 0.60954 0.21224 0.0
C2282 C 0.19493 0.60519 0.22367 0.0
C2283 C 0.17051 0.61775 0.22432 0.0
C2284 C 0.15725 0.62841 0.28362 0.0
H2285 H 0.1116 0.69438 0.29472 0.0
H2286 H 0.12149 0.67254 0.27273 0.0
H2287 H 0.14557 0.63624 0.31421 0.0
H2288 H 0.20684 0.60541 0.25694 0.0
H2289 H 0.1875 0.61966 0.27797 0.0
H2290 H 0.15984 0.64804 0.23193 0.0
C2291 C 0.1256 0.67457 0.29037 0.0
C2292 C 0.14855 0.63892 0.29623 0.0
C2293 C 0.11989 0.68705 0.30301 0.0
C2294 C 0.19671 0.60866 0.24761 0.0
C2295 C 0.18558 0.61671 0.25972 0.0
C2296 C 0.15651 0.64519 0.24971 0.0
C2297 C 0.1367 0.66504 0.30022 0.0
C2298 C 0.14412 0.65291 0.28595 0.0
C2299 C 0.17249 0.62157 0.2481 0.0
C2300 C 0.16159 0.63161 0.26041 0.0
H2301 H 0.13999 0.68243 0.35356 0.0
H2302 H 0.15018 0.66094 0.33139 0.0
H2303 H 0.14487 0.66649 0.25397 0.0
H2304 H 0.17989 0.60701 0.1938 0.0
H2305 H 0.16048 0.62129 0.21499 0.0
C2306 C 0.30912 0.11756 0.28859 0.0
C2307 C 0.2945 0.11462 0.28039 0.0
C2308 C 0.31882 0.12705 0.27583 0.0
C2309 C 0.32509 0.14418 0.21729 0.0
H2310 H 0.34411 0.17719 0.25218 0.0
C2311 C 0.34658 0.19946 0.17316 0.0
C2312 C 0.35945 0.20668 0.18227 0.0
C2313 C 0.3405 0.18657 0.18428 0.0
C2314 C 0.33914 0.16788 0.24219 0.0
H2315 H 0.27876 0.11885 0.25198 0.0
H2316 H 0.29568 0.13538 0.22977 0.0
H2317 H 0.33028 0.15733 0.27316 0.0
H2318 H 0.37638 0.2057 0.20967 0.0
H2319 H 0.3659 0.18305 0.22885 0.0
H2320 H 0.33377 0.15485 0.18627 0.0
C2321 C 0.29967 0.13031 0.246 0.0
C2322 C 0.3312 0.15651 0.25423 0.0
C2323 C 0.28994 0.12093 0.25882 0.0
C2324 C 0.36638 0.20046 0.20231 0.0
C2325 C 0.36034 0.18752 0.21337 0.0
C2326 C 0.33311 0.15551 0.20524 0.0
C2327 C 0.31412 0.13365 0.25453 0.0
C2328 C 0.32385 0.14471 0.24188 0.0
C2329 C 0.3472 0.18057 0.20468 0.0
C2330 C 0.33998 0.16766 0.21752 0.0
H2331 H 0.31297 0.11283 0.30513 0.0
H2332 H 0.32995 0.12933 0.28271 0.0
H2333 H 0.3197 0.13509 0.20735 0.0
H2334 H 0.34095 0.20397 0.15777 0.0
H2335 H 0.33025 0.18164 0.1773 0.0
loop_
_geom_bond_atom_site_label_1
_geom_bond_atom_site_label_2
_geom_bond_distance
_geom_bond_site_symmetry_2
_ccdc_geom_bond_type
C0 O1 1.160 . S
C0 O7 1.185 . S
O1 C0 1.160 . S
O2 Zn3 1.899 . S
O2 C10 1.284 . S
Zn3 O2 1.899 . S
Zn3 O4 2.032 . S
Zn3 O7 2.086 . S
Zn3 O12 1.977 . S
O4 Zn3 2.032 . S
O4 C8 1.278 . S
C5 O6 1.203 . S
C5 O12 1.267 . S
O6 C5 1.203 . S
O7 C0 1.185 . S
O7 Zn3 2.086 . S
C8 O4 1.278 . S
C8 O9 1.211 . S
O9 C8 1.211 . S
C10 O2 1.284 . S
C10 O11 1.273 . S
O11 C10 1.273 . S
O12 Zn3 1.977 . S
O12 C5 1.267 . S
C13 O14 1.160 . S
C13 O20 1.185 . S
O14 C13 1.160 . S
O15 Zn16 1.899 . S
O15 C23 1.284 . S
Zn16 O15 1.899 . S
Zn16 O17 2.032 . S
Zn16 O20 2.086 . S
Zn16 O25 1.977 . S
O17 Zn16 2.032 . S
O17 C21 1.278 . S
C18 O19 1.203 . S
C18 O25 1.267 . S
O19 C18 1.203 . S
O20 C13 1.185 . S
O20 Zn16 2.086 . S
C21 O17 1.278 . S
C21 O22 1.211 . S
O22 C21 1.211 . S
C23 O15 1.284 . S
C23 O24 1.273 . S
O24 C23 1.273 . S
O25 Zn16 1.977 . S
O25 C18 1.267 . S
C26 O27 1.160 . S
C26 O33 1.185 . S
O27 C26 1.160 . S
O28 Zn29 1.899 . S
O28 C36 1.284 . S
Zn29 O28 1.899 . S
Zn29 O30 2.032 . S
Zn29 O33 2.086 . S
Zn29 O38 1.977 . S
O30 Zn29 2.032 . S
O30 C34 1.278 . S
C31 O32 1.203 . S
C31 O38 1.267 . S
O32 C31 1.203 . S
O33 C26 1.185 . S
O33 Zn29 2.086 . S
C34 O30 1.278 . S
C34 O35 1.211 . S
O35 C34 1.211 . S
C36 O28 1.284 . S
C36 O37 1.273 . S
O37 C36 1.273 . S
O38 Zn29 1.977 . S
O38 C31 1.267 . S
C39 O40 1.160 . S
C39 O46 1.185 . S
O40 C39 1.160 . S
O41 Zn42 1.899 . S
O41 C49 1.284 . S
Zn42 O41 1.899 . S
Zn42 O43 2.032 . S
Zn42 O46 2.086 . S
Zn42 O51 1.977 . S
O43 Zn42 2.032 . S
O43 C47 1.278 . S
C44 O45 1.203 . S
C44 O51 1.267 . S
O45 C44 1.203 . S
O46 C39 1.185 . S
O46 Zn42 2.086 . S
C47 O43 1.278 . S
C47 O48 1.211 . S
O48 C47 1.211 . S
C49 O41 1.284 . S
C49 O50 1.273 . S
O50 C49 1.273 . S
O51 Zn42 1.977 . S
O51 C44 1.267 . S
C52 O53 1.160 . S
C52 O59 1.185 . S
O53 C52 1.160 . S
O54 Zn55 1.899 . S
O54 C62 1.284 . S
Zn55 O54 1.899 . S
Zn55 O56 2.032 . S
Zn55 O59 2.086 . S
Zn55 O64 1.977 . S
O56 Zn55 2.032 . S
O56 C60 1.278 . S
C57 O58 1.203 . S
C57 O64 1.267 . S
O58 C57 1.203 . S
O59 C52 1.185 . S
O59 Zn55 2.086 . S
C60 O56 1.278 . S
C60 O61 1.211 . S
O61 C60 1.211 . S
C62 O54 1.284 . S
C62 O63 1.273 . S
O63 C62 1.273 . S
O64 Zn55 1.977 . S
O64 C57 1.267 . S
C65 O66 1.160 . S
C65 O72 1.185 . S
O66 C65 1.160 . S
O67 Zn68 1.899 . S
O67 C75 1.284 . S
Zn68 O67 1.899 . S
Zn68 O69 2.032 . S
Zn68 O72 2.086 . S
Zn68 O77 1.977 . S
O69 Zn68 2.032 . S
O69 C73 1.278 . S
C70 O71 1.203 . S
C70 O77 1.267 . S
O71 C70 1.203 . S
O72 C65 1.185 . S
O72 Zn68 2.086 . S
C73 O69 1.278 . S
C73 O74 1.211 . S
O74 C73 1.211 . S
C75 O67 1.284 . S
C75 O76 1.273 . S
O76 C75 1.273 . S
O77 Zn68 1.977 . S
O77 C70 1.267 . S
C78 O79 1.160 . S
C78 O85 1.185 . S
O79 C78 1.160 . S
O80 Zn81 1.899 . S
O80 C88 1.284 . S
Zn81 O80 1.899 . S
Zn81 O82 2.032 . S
Zn81 O85 2.086 . S
Zn81 O90 1.977 . S
O82 Zn81 2.032 . S
O82 C86 1.278 . S
C83 O84 1.203 . S
C83 O90 1.267 . S
O84 C83 1.203 . S
O85 C78 1.185 . S
O85 Zn81 2.086 . S
C86 O82 1.278 . S
C86 O87 1.211 . S
O87 C86 1.211 . S
C88 O80 1.284 . S
C88 O89 1.273 . S
O89 C88 1.273 . S
O90 Zn81 1.977 . S
O90 C83 1.267 . S
C91 O92 1.160 . S
C91 O98 1.185 . S
O92 C91 1.160 . S
O93 Zn94 1.899 . S
O93 C101 1.284 . S
Zn94 O93 1.899 . S
Zn94 O95 2.032 . S
Zn94 O98 2.086 . S
Zn94 O103 1.977 . S
O95 Zn94 2.032 . S
O95 C99 1.278 . S
C96 O97 1.203 . S
C96 O103 1.267 . S
O97 C96 1.203 . S
O98 C91 1.185 . S
O98 Zn94 2.086 . S
C99 O95 1.278 . S
C99 O100 1.211 . S
O100 C99 1.211 . S
C101 O93 1.284 . S
C101 O102 1.273 . S
O102 C101 1.273 . S
O103 Zn94 1.977 . S
O103 C96 1.267 . S
C104 O105 1.160 . S
C104 O111 1.185 . S
O105 C104 1.160 . S
O106 Zn107 1.899 . S
O106 C114 1.284 . S
Zn107 O106 1.899 . S
Zn107 O108 2.032 . S
Zn107 O111 2.086 . S
Zn107 O116 1.977 . S
O108 Zn107 2.032 . S
O108 C112 1.278 . S
C109 O110 1.203 . S
C109 O116 1.267 . S
O110 C109 1.203 . S
O111 C104 1.185 . S
O111 Zn107 2.086 . S
C112 O108 1.278 . S
C112 O113 1.211 . S
O113 C112 1.211 . S
C114 O106 1.284 . S
C114 O115 1.273 . S
O115 C114 1.273 . S
O116 Zn107 1.977 . S
O116 C109 1.267 . S
C117 O118 1.160 . S
C117 O124 1.185 . S
O118 C117 1.160 . S
O119 Zn120 1.899 . S
O119 C127 1.284 . S
Zn120 O119 1.899 . S
Zn120 O121 2.032 . S
Zn120 O124 2.086 . S
Zn120 O129 1.977 . S
O121 Zn120 2.032 . S
O121 C125 1.278 . S
C122 O123 1.203 . S
C122 O129 1.267 . S
O123 C122 1.203 . S
O124 C117 1.185 . S
O124 Zn120 2.086 . S
C125 O121 1.278 . S
C125 O126 1.211 . S
O126 C125 1.211 . S
C127 O119 1.284 . S
C127 O128 1.273 . S
O128 C127 1.273 . S
O129 Zn120 1.977 . S
O129 C122 1.267 . S
C130 O131 1.160 . S
C130 O137 1.185 . S
O131 C130 1.160 . S
O132 Zn133 1.899 . S
O132 C140 1.284 . S
Zn133 O132 1.899 . S
Zn133 O134 2.032 . S
Zn133 O137 2.086 . S
Zn133 O142 1.977 . S
O134 Zn133 2.032 . S
O134 C138 1.278 . S
C135 O136 1.203 . S
C135 O142 1.267 . S
O136 C135 1.203 . S
O137 C130 1.185 . S
O137 Zn133 2.086 . S
C138 O134 1.278 . S
C138 O139 1.211 . S
O139 C138 1.211 . S
C140 O132 1.284 . S
C140 O141 1.273 . S
O141 C140 1.273 . S
O142 Zn133 1.977 . S
O142 C135 1.267 . S
C143 O144 1.160 . S
C143 O150 1.185 . S
O144 C143 1.160 . S
O145 Zn146 1.899 . S
O145 C153 1.284 . S
Zn146 O145 1.899 . S
Zn146 O147 2.032 . S
Zn146 O150 2.086 . S
Zn146 O155 1.977 . S
O147 Zn146 2.032 . S
O147 C151 1.278 . S
C148 O149 1.203 . S
C148 O155 1.267 . S
O149 C148 1.203 . S
O150 C143 1.185 . S
O150 Zn146 2.086 . S
C151 O147 1.278 . S
C151 O152 1.211 . S
O152 C151 1.211 . S
C153 O145 1.284 . S
C153 O154 1.273 . S
O154 C153 1.273 . S
O155 Zn146 1.977 . S
O155 C148 1.267 . S
C156 O157 1.160 . S
C156 O163 1.185 . S
O157 C156 1.160 . S
O158 Zn159 1.899 . S
O158 C166 1.284 . S
Zn159 O158 1.899 . S
Zn159 O160 2.032 . S
Zn159 O163 2.086 . S
Zn159 O168 1.977 . S
O160 Zn159 2.032 . S
O160 C164 1.278 . S
C161 O162 1.203 . S
C161 O168 1.267 . S
O162 C161 1.203 . S
O163 C156 1.185 . S
O163 Zn159 2.086 . S
C164 O160 1.278 . S
C164 O165 1.211 . S
O165 C164 1.211 . S
C166 O158 1.284 . S
C166 O167 1.273 . S
O167 C166 1.273 . S
O168 Zn159 1.977 . S
O168 C161 1.267 . S
C169 O170 1.160 . S
C169 O176 1.185 . S
O170 C169 1.160 . S
O171 Zn172 1.899 . S
O171 C179 1.284 . S
Zn172 O171 1.899 . S
Zn172 O173 2.032 . S
Zn172 O176 2.086 . S
Zn172 O181 1.977 . S
O173 Zn172 2.032 . S
O173 C177 1.278 . S
C174 O175 1.203 . S
C174 O181 1.267 . S
O175 C174 1.203 . S
O176 C169 1.185 . S
O176 Zn172 2.086 . S
C177 O173 1.278 . S
C177 O178 1.211 . S
O178 C177 1.211 . S
C179 O171 1.284 . S
C179 O180 1.273 . S
O180 C179 1.273 . S
O181 Zn172 1.977 . S
O181 C174 1.267 . S
C182 O183 1.160 . S
C182 O189 1.185 . S
O183 C182 1.160 . S
O184 Zn185 1.899 . S
O184 C192 1.284 . S
Zn185 O184 1.899 . S
Zn185 O186 2.032 . S
Zn185 O189 2.086 . S
Zn185 O194 1.977 . S
O186 Zn185 2.032 . S
O186 C190 1.278 . S
C187 O188 1.203 . S
C187 O194 1.267 . S
O188 C187 1.203 . S
O189 C182 1.185 . S
O189 Zn185 2.086 . S
C190 O186 1.278 . S
C190 O191 1.211 . S
O191 C190 1.211 . S
C192 O184 1.284 . S
C192 O193 1.273 . S
O193 C192 1.273 . S
O194 Zn185 1.977 . S
O194 C187 1.267 . S
C195 O196 1.160 . S
C195 O202 1.185 . S
O196 C195 1.160 . S
O197 Zn198 1.899 . S
O197 C205 1.284 . S
Zn198 O197 1.899 . S
Zn198 O199 2.032 . S
Zn198 O202 2.086 . S
Zn198 O207 1.977 . S
O199 Zn198 2.032 . S
O199 C203 1.278 . S
C200 O201 1.203 . S
C200 O207 1.267 . S
O201 C200 1.203 . S
O202 C195 1.185 . S
O202 Zn198 2.086 . S
C203 O199 1.278 . S
C203 O204 1.211 . S
O204 C203 1.211 . S
C205 O197 1.284 . S
C205 O206 1.273 . S
O206 C205 1.273 . S
O207 Zn198 1.977 . S
O207 C200 1.267 . S
C208 O209 1.160 . S
C208 O215 1.185 . S
O209 C208 1.160 . S
O210 Zn211 1.899 . S
O210 C218 1.284 . S
Zn211 O210 1.899 . S
Zn211 O212 2.032 . S
Zn211 O215 2.086 . S
Zn211 O220 1.977 . S
O212 Zn211 2.032 . S
O212 C216 1.278 . S
C213 O214 1.203 . S
C213 O220 1.267 . S
O214 C213 1.203 . S
O215 C208 1.185 . S
O215 Zn211 2.086 . S
C216 O212 1.278 . S
C216 O217 1.211 . S
O217 C216 1.211 . S
C218 O210 1.284 . S
C218 O219 1.273 . S
O219 C218 1.273 . S
O220 Zn211 1.977 . S
O220 C213 1.267 . S
C221 O222 1.160 . S
C221 O228 1.185 . S
O222 C221 1.160 . S
O223 Zn224 1.899 . S
O223 C231 1.284 . S
Zn224 O223 1.899 . S
Zn224 O225 2.032 . S
Zn224 O228 2.086 . S
Zn224 O233 1.977 . S
O225 Zn224 2.032 . S
O225 C229 1.278 . S
C226 O227 1.203 . S
C226 O233 1.267 . S
O227 C226 1.203 . S
O228 C221 1.185 . S
O228 Zn224 2.086 . S
C229 O225 1.278 . S
C229 O230 1.211 . S
O230 C229 1.211 . S
C231 O223 1.284 . S
C231 O232 1.273 . S
O232 C231 1.273 . S
O233 Zn224 1.977 . S
O233 C226 1.267 . S
C234 O235 1.160 . S
C234 O241 1.185 . S
O235 C234 1.160 . S
O236 Zn237 1.899 . S
O236 C244 1.284 . S
Zn237 O236 1.899 . S
Zn237 O238 2.032 . S
Zn237 O241 2.086 . S
Zn237 O246 1.977 . S
O238 Zn237 2.032 . S
O238 C242 1.278 . S
C239 O240 1.203 . S
C239 O246 1.267 . S
O240 C239 1.203 . S
O241 C234 1.185 . S
O241 Zn237 2.086 . S
C242 O238 1.278 . S
C242 O243 1.211 . S
O243 C242 1.211 . S
C244 O236 1.284 . S
C244 O245 1.273 . S
O245 C244 1.273 . S
O246 Zn237 1.977 . S
O246 C239 1.267 . S
C247 O248 1.160 . S
C247 O254 1.185 . S
O248 C247 1.160 . S
O249 Zn250 1.899 . S
O249 C257 1.284 . S
Zn250 O249 1.899 . S
Zn250 O251 2.032 . S
Zn250 O254 2.086 . S
Zn250 O259 1.977 . S
O251 Zn250 2.032 . S
O251 C255 1.278 . S
C252 O253 1.203 . S
C252 O259 1.267 . S
O253 C252 1.203 . S
O254 C247 1.185 . S
O254 Zn250 2.086 . S
C255 O251 1.278 . S
C255 O256 1.211 . S
O256 C255 1.211 . S
C257 O249 1.284 . S
C257 O258 1.273 . S
O258 C257 1.273 . S
O259 Zn250 1.977 . S
O259 C252 1.267 . S
C260 O261 1.160 . S
C260 O267 1.185 . S
O261 C260 1.160 . S
O262 Zn263 1.899 . S
O262 C270 1.284 . S
Zn263 O262 1.899 . S
Zn263 O264 2.032 . S
Zn263 O267 2.086 . S
Zn263 O272 1.977 . S
O264 Zn263 2.032 . S
O264 C268 1.278 . S
C265 O266 1.203 . S
C265 O272 1.267 . S
O266 C265 1.203 . S
O267 C260 1.185 . S
O267 Zn263 2.086 . S
C268 O264 1.278 . S
C268 O269 1.211 . S
O269 C268 1.211 . S
C270 O262 1.284 . S
C270 O271 1.273 . S
O271 C270 1.273 . S
O272 Zn263 1.977 . S
O272 C265 1.267 . S
C273 O274 1.160 . S
C273 O280 1.185 . S
O274 C273 1.160 . S
O275 Zn276 1.899 . S
O275 C283 1.284 . S
Zn276 O275 1.899 . S
Zn276 O277 2.032 . S
Zn276 O280 2.086 . S
Zn276 O285 1.977 . S
O277 Zn276 2.032 . S
O277 C281 1.278 . S
C278 O279 1.203 . S
C278 O285 1.267 . S
O279 C278 1.203 . S
O280 C273 1.185 . S
O280 Zn276 2.086 . S
C281 O277 1.278 . S
C281 O282 1.211 . S
O282 C281 1.211 . S
C283 O275 1.284 . S
C283 O284 1.273 . S
O284 C283 1.273 . S
O285 Zn276 1.977 . S
O285 C278 1.267 . S
C286 O287 1.160 . S
C286 O293 1.185 . S
O287 C286 1.160 . S
O288 Zn289 1.899 . S
O288 C296 1.284 . S
Zn289 O288 1.899 . S
Zn289 O290 2.032 . S
Zn289 O293 2.086 . S
Zn289 O298 1.977 . S
O290 Zn289 2.032 . S
O290 C294 1.278 . S
C291 O292 1.203 . S
C291 O298 1.267 . S
O292 C291 1.203 . S
O293 C286 1.185 . S
O293 Zn289 2.086 . S
C294 O290 1.278 . S
C294 O295 1.211 . S
O295 C294 1.211 . S
C296 O288 1.284 . S
C296 O297 1.273 . S
O297 C296 1.273 . S
O298 Zn289 1.977 . S
O298 C291 1.267 . S
C299 O300 1.160 . S
C299 O306 1.185 . S
O300 C299 1.160 . S
O301 Zn302 1.899 . S
O301 C309 1.284 . S
Zn302 O301 1.899 . S
Zn302 O303 2.032 . S
Zn302 O306 2.086 . S
Zn302 O311 1.977 . S
O303 Zn302 2.032 . S
O303 C307 1.278 . S
C304 O305 1.203 . S
C304 O311 1.267 . S
O305 C304 1.203 . S
O306 C299 1.185 . S
O306 Zn302 2.086 . S
C307 O303 1.278 . S
C307 O308 1.211 . S
O308 C307 1.211 . S
C309 O301 1.284 . S
C309 O310 1.273 . S
O310 C309 1.273 . S
O311 Zn302 1.977 . S
O311 C304 1.267 . S
C312 O313 1.160 . S
C312 O319 1.185 . S
O313 C312 1.160 . S
O314 Zn315 1.899 . S
O314 C322 1.284 . S
Zn315 O314 1.899 . S
Zn315 O316 2.032 . S
Zn315 O319 2.086 . S
Zn315 O324 1.977 . S
O316 Zn315 2.032 . S
O316 C320 1.278 . S
C317 O318 1.203 . S
C317 O324 1.267 . S
O318 C317 1.203 . S
O319 C312 1.185 . S
O319 Zn315 2.086 . S
C320 O316 1.278 . S
C320 O321 1.211 . S
O321 C320 1.211 . S
C322 O314 1.284 . S
C322 O323 1.273 . S
O323 C322 1.273 . S
O324 Zn315 1.977 . S
O324 C317 1.267 . S
C325 O326 1.160 . S
C325 O332 1.185 . S
O326 C325 1.160 . S
O327 Zn328 1.899 . S
O327 C335 1.284 . S
Zn328 O327 1.899 . S
Zn328 O329 2.032 . S
Zn328 O332 2.086 . S
Zn328 O337 1.977 . S
O329 Zn328 2.032 . S
O329 C333 1.278 . S
C330 O331 1.203 . S
C330 O337 1.267 . S
O331 C330 1.203 . S
O332 C325 1.185 . S
O332 Zn328 2.086 . S
C333 O329 1.278 . S
C333 O334 1.211 . S
O334 C333 1.211 . S
C335 O327 1.284 . S
C335 O336 1.273 . S
O336 C335 1.273 . S
O337 Zn328 1.977 . S
O337 C330 1.267 . S
C338 O339 1.160 . S
C338 O345 1.185 . S
O339 C338 1.160 . S
O340 Zn341 1.899 . S
O340 C348 1.284 . S
Zn341 O340 1.899 . S
Zn341 O342 2.032 . S
Zn341 O345 2.086 . S
Zn341 O350 1.977 . S
O342 Zn341 2.032 . S
O342 C346 1.278 . S
C343 O344 1.203 . S
C343 O350 1.267 . S
O344 C343 1.203 . S
O345 C338 1.185 . S
O345 Zn341 2.086 . S
C346 O342 1.278 . S
C346 O347 1.211 . S
O347 C346 1.211 . S
C348 O340 1.284 . S
C348 O349 1.273 . S
O349 C348 1.273 . S
O350 Zn341 1.977 . S
O350 C343 1.267 . S
C351 O352 1.160 . S
C351 O358 1.185 . S
O352 C351 1.160 . S
O353 Zn354 1.899 . S
O353 C361 1.284 . S
Zn354 O353 1.899 . S
Zn354 O355 2.032 . S
Zn354 O358 2.086 . S
Zn354 O363 1.977 . S
O355 Zn354 2.032 . S
O355 C359 1.278 . S
C356 O357 1.203 . S
C356 O363 1.267 . S
O357 C356 1.203 . S
O358 C351 1.185 . S
O358 Zn354 2.086 . S
C359 O355 1.278 . S
C359 O360 1.211 . S
O360 C359 1.211 . S
C361 O353 1.284 . S
C361 O362 1.273 . S
O362 C361 1.273 . S
O363 Zn354 1.977 . S
O363 C356 1.267 . S
C364 O365 1.160 . S
C364 O371 1.185 . S
O365 C364 1.160 . S
O366 Zn367 1.899 . S
O366 C374 1.284 . S
Zn367 O366 1.899 . S
Zn367 O368 2.032 . S
Zn367 O371 2.086 . S
Zn367 O376 1.977 . S
O368 Zn367 2.032 . S
O368 C372 1.278 . S
C369 O370 1.203 . S
C369 O376 1.267 . S
O370 C369 1.203 . S
O371 C364 1.185 . S
O371 Zn367 2.086 . S
C372 O368 1.278 . S
C372 O373 1.211 . S
O373 C372 1.211 . S
C374 O366 1.284 . S
C374 O375 1.273 . S
O375 C374 1.273 . S
O376 Zn367 1.977 . S
O376 C369 1.267 . S
C377 O378 1.160 . S
C377 O384 1.185 . S
O378 C377 1.160 . S
O379 Zn380 1.899 . S
O379 C387 1.284 . S
Zn380 O379 1.899 . S
Zn380 O381 2.032 . S
Zn380 O384 2.086 . S
Zn380 O389 1.977 . S
O381 Zn380 2.032 . S
O381 C385 1.278 . S
C382 O383 1.203 . S
C382 O389 1.267 . S
O383 C382 1.203 . S
O384 C377 1.185 . S
O384 Zn380 2.086 . S
C385 O381 1.278 . S
C385 O386 1.211 . S
O386 C385 1.211 . S
C387 O379 1.284 . S
C387 O388 1.273 . S
O388 C387 1.273 . S
O389 Zn380 1.977 . S
O389 C382 1.267 . S
C390 O391 1.160 . S
C390 O397 1.185 . S
O391 C390 1.160 . S
O392 Zn393 1.899 . S
O392 C400 1.284 . S
Zn393 O392 1.899 . S
Zn393 O394 2.032 . S
Zn393 O397 2.086 . S
Zn393 O402 1.977 . S
O394 Zn393 2.032 . S
O394 C398 1.278 . S
C395 O396 1.203 . S
C395 O402 1.267 . S
O396 C395 1.203 . S
O397 C390 1.185 . S
O397 Zn393 2.086 . S
C398 O394 1.278 . S
C398 O399 1.211 . S
O399 C398 1.211 . S
C400 O392 1.284 . S
C400 O401 1.273 . S
O401 C400 1.273 . S
O402 Zn393 1.977 . S
O402 C395 1.267 . S
C403 O404 1.160 . S
C403 O410 1.185 . S
O404 C403 1.160 . S
O405 Zn406 1.899 . S
O405 C413 1.284 . S
Zn406 O405 1.899 . S
Zn406 O407 2.032 . S
Zn406 O410 2.086 . S
Zn406 O415 1.977 . S
O407 Zn406 2.032 . S
O407 C411 1.278 . S
C408 O409 1.203 . S
C408 O415 1.267 . S
O409 C408 1.203 . S
O410 C403 1.185 . S
O410 Zn406 2.086 . S
C411 O407 1.278 . S
C411 O412 1.211 . S
O412 C411 1.211 . S
C413 O405 1.284 . S
C413 O414 1.273 . S
O414 C413 1.273 . S
O415 Zn406 1.977 . S
O415 C408 1.267 . S
C416 C417 1.349 . S
C416 C418 1.327 . S
C416 H441 0.950 . S
C417 C416 1.349 . S
C417 C433 1.349 . S
C418 C416 1.327 . S
C418 C437 1.429 . S
C418 H442 0.950 . S
C419 C436 1.574 . S
C419 C438 1.368 . S
C419 H443 0.949 . S
H420 C424 0.949 . S
C421 C422 1.349 . S
C421 C423 1.327 . S
C421 H444 0.950 . S
C422 C421 1.349 . S
C422 C434 1.349 . S
C423 C421 1.327 . S
C423 C439 1.429 . S
C423 H445 0.950 . S
C424 H420 0.949 . S
C424 C432 1.574 . S
C424 C440 1.368 . S
H425 C433 0.950 . S
H426 C431 0.950 . S
H427 C432 0.949 . S
H428 C434 0.950 . S
H429 C435 0.950 . S
H430 C436 0.949 . S
C431 H426 0.950 . S
C431 C433 1.327 . S
C431 C437 1.429 . S
C432 C424 1.574 . S
C432 H427 0.949 . S
C432 C438 1.368 . S
C433 C417 1.349 . S
C433 H425 0.950 . S
C433 C431 1.327 . S
C434 C422 1.349 . S
C434 H428 0.950 . S
C434 C435 1.327 . S
C435 H429 0.950 . S
C435 C434 1.327 . S
C435 C439 1.429 . S
C436 C419 1.574 . S
C436 H430 0.949 . S
C436 C440 1.368 . S
C437 C418 1.429 . S
C437 C431 1.429 . S
C437 C438 1.523 . S
C438 C419 1.368 . S
C438 C432 1.368 . S
C438 C437 1.523 . S
C439 C423 1.429 . S
C439 C435 1.429 . S
C439 C440 1.523 . S
C440 C424 1.368 . S
C440 C436 1.368 . S
C440 C439 1.523 . S
H441 C416 0.950 . S
H442 C418 0.950 . S
H443 C419 0.949 . S
H444 C421 0.950 . S
H445 C423 0.950 . S
C446 C447 1.349 . S
C446 C448 1.327 . S
C446 H471 0.950 . S
C447 C446 1.349 . S
C447 C463 1.349 . S
C448 C446 1.327 . S
C448 C467 1.429 . S
C448 H472 0.950 . S
C449 C466 1.574 . S
C449 C468 1.368 . S
C449 H473 0.949 . S
H450 C454 0.949 . S
C451 C452 1.349 . S
C451 C453 1.327 . S
C451 H474 0.950 . S
C452 C451 1.349 . S
C452 C464 1.349 . S
C453 C451 1.327 . S
C453 C469 1.429 . S
C453 H475 0.950 . S
C454 H450 0.949 . S
C454 C462 1.574 . S
C454 C470 1.368 . S
H455 C463 0.950 . S
H456 C461 0.950 . S
H457 C462 0.949 . S
H458 C464 0.950 . S
H459 C465 0.950 . S
H460 C466 0.949 . S
C461 H456 0.950 . S
C461 C463 1.327 . S
C461 C467 1.429 . S
C462 C454 1.574 . S
C462 H457 0.949 . S
C462 C468 1.368 . S
C463 C447 1.349 . S
C463 H455 0.950 . S
C463 C461 1.327 . S
C464 C452 1.349 . S
C464 H458 0.950 . S
C464 C465 1.327 . S
C465 H459 0.950 . S
C465 C464 1.327 . S
C465 C469 1.429 . S
C466 C449 1.574 . S
C466 H460 0.949 . S
C466 C470 1.368 . S
C467 C448 1.429 . S
C467 C461 1.429 . S
C467 C468 1.523 . S
C468 C449 1.368 . S
C468 C462 1.368 . S
C468 C467 1.523 . S
C469 C453 1.429 . S
C469 C465 1.429 . S
C469 C470 1.523 . S
C470 C454 1.368 . S
C470 C466 1.368 . S
C470 C469 1.523 . S
H471 C446 0.950 . S
H472 C448 0.950 . S
H473 C449 0.949 . S
H474 C451 0.950 . S
H475 C453 0.950 . S
C476 C477 1.349 . S
C476 C478 1.327 . S
C476 H501 0.950 . S
C477 C476 1.349 . S
C477 C493 1.349 . S
C478 C476 1.327 . S
C478 C497 1.429 . S
C478 H502 0.950 . S
C479 C496 1.574 . S
C479 C498 1.368 . S
C479 H503 0.949 . S
H480 C484 0.949 . S
C481 C482 1.349 . S
C481 C483 1.327 . S
C481 H504 0.950 . S
C482 C481 1.349 . S
C482 C494 1.349 . S
C483 C481 1.327 . S
C483 C499 1.429 . S
C483 H505 0.950 . S
C484 H480 0.949 . S
C484 C492 1.574 . S
C484 C500 1.368 . S
H485 C493 0.950 . S
H486 C491 0.950 . S
H487 C492 0.949 . S
H488 C494 0.950 . S
H489 C495 0.950 . S
H490 C496 0.949 . S
C491 H486 0.950 . S
C491 C493 1.327 . S
C491 C497 1.429 . S
C492 C484 1.574 . S
C492 H487 0.949 . S
C492 C498 1.368 . S
C493 C477 1.349 . S
C493 H485 0.950 . S
C493 C491 1.327 . S
C494 C482 1.349 . S
C494 H488 0.950 . S
C494 C495 1.327 . S
C495 H489 0.950 . S
C495 C494 1.327 . S
C495 C499 1.429 . S
C496 C479 1.574 . S
C496 H490 0.949 . S
C496 C500 1.368 . S
C497 C478 1.429 . S
C497 C491 1.429 . S
C497 C498 1.523 . S
C498 C479 1.368 . S
C498 C492 1.368 . S
C498 C497 1.523 . S
C499 C483 1.429 . S
C499 C495 1.429 . S
C499 C500 1.523 . S
C500 C484 1.368 . S
C500 C496 1.368 . S
C500 C499 1.523 . S
H501 C476 0.950 . S
H502 C478 0.950 . S
H503 C479 0.949 . S
H504 C481 0.950 . S
H505 C483 0.950 . S
C506 C507 1.349 . S
C506 C508 1.327 . S
C506 H531 0.950 . S
C507 C506 1.349 . S
C507 C523 1.349 . S
C508 C506 1.327 . S
C508 C527 1.429 . S
C508 H532 0.950 . S
C509 C526 1.574 . S
C509 C528 1.368 . S
C509 H533 0.949 . S
H510 C514 0.949 . S
C511 C512 1.349 . S
C511 C513 1.327 . S
C511 H534 0.950 . S
C512 C511 1.349 . S
C512 C524 1.349 . S
C513 C511 1.327 . S
C513 C529 1.429 . S
C513 H535 0.950 . S
C514 H510 0.949 . S
C514 C522 1.574 . S
C514 C530 1.368 . S
H515 C523 0.950 . S
H516 C521 0.950 . S
H517 C522 0.949 . S
H518 C524 0.950 . S
H519 C525 0.950 . S
H520 C526 0.949 . S
C521 H516 0.950 . S
C521 C523 1.327 . S
C521 C527 1.429 . S
C522 C514 1.574 . S
C522 H517 0.949 . S
C522 C528 1.368 . S
C523 C507 1.349 . S
C523 H515 0.950 . S
C523 C521 1.327 . S
C524 C512 1.349 . S
C524 H518 0.950 . S
C524 C525 1.327 . S
C525 H519 0.950 . S
C525 C524 1.327 . S
C525 C529 1.429 . S
C526 C509 1.574 . S
C526 H520 0.949 . S
C526 C530 1.368 . S
C527 C508 1.429 . S
C527 C521 1.429 . S
C527 C528 1.523 . S
C528 C509 1.368 . S
C528 C522 1.368 . S
C528 C527 1.523 . S
C529 C513 1.429 . S
C529 C525 1.429 . S
C529 C530 1.523 . S
C530 C514 1.368 . S
C530 C526 1.368 . S
C530 C529 1.523 . S
H531 C506 0.950 . S
H532 C508 0.950 . S
H533 C509 0.949 . S
H534 C511 0.950 . S
H535 C513 0.950 . S
C536 C537 1.349 . S
C536 C538 1.327 . S
C536 H561 0.950 . S
C537 C536 1.349 . S
C537 C553 1.349 . S
C538 C536 1.327 . S
C538 C557 1.429 . S
C538 H562 0.950 . S
C539 C556 1.574 . S
C539 C558 1.368 . S
C539 H563 0.949 . S
H540 C544 0.949 . S
C541 C542 1.349 . S
C541 C543 1.327 . S
C541 H564 0.950 . S
C542 C541 1.349 . S
C542 C554 1.349 . S
C543 C541 1.327 . S
C543 C559 1.429 . S
C543 H565 0.950 . S
C544 H540 0.949 . S
C544 C552 1.574 . S
C544 C560 1.368 . S
H545 C553 0.950 . S
H546 C551 0.950 . S
H547 C552 0.949 . S
H548 C554 0.950 . S
H549 C555 0.950 . S
H550 C556 0.949 . S
C551 H546 0.950 . S
C551 C553 1.327 . S
C551 C557 1.429 . S
C552 C544 1.574 . S
C552 H547 0.949 . S
C552 C558 1.368 . S
C553 C537 1.349 . S
C553 H545 0.950 . S
C553 C551 1.327 . S
C554 C542 1.349 . S
C554 H548 0.950 . S
C554 C555 1.327 . S
C555 H549 0.950 . S
C555 C554 1.327 . S
C555 C559 1.429 . S
C556 C539 1.574 . S
C556 H550 0.949 . S
C556 C560 1.368 . S
C557 C538 1.429 . S
C557 C551 1.429 . S
C557 C558 1.523 . S
C558 C539 1.368 . S
C558 C552 1.368 . S
C558 C557 1.523 . S
C559 C543 1.429 . S
C559 C555 1.429 . S
C559 C560 1.523 . S
C560 C544 1.368 . S
C560 C556 1.368 . S
C560 C559 1.523 . S
H561 C536 0.950 . S
H562 C538 0.950 . S
H563 C539 0.949 . S
H564 C541 0.950 . S
H565 C543 0.950 . S
C566 C567 1.349 . S
C566 C568 1.327 . S
C566 H591 0.950 . S
C567 C566 1.349 . S
C567 C583 1.349 . S
C568 C566 1.327 . S
C568 C587 1.429 . S
C568 H592 0.950 . S
C569 C586 1.574 . S
C569 C588 1.368 . S
C569 H593 0.949 . S
H570 C574 0.949 . S
C571 C572 1.349 . S
C571 C573 1.327 . S
C571 H594 0.950 . S
C572 C571 1.349 . S
C572 C584 1.349 . S
C573 C571 1.327 . S
C573 C589 1.429 . S
C573 H595 0.950 . S
C574 H570 0.949 . S
C574 C582 1.574 . S
C574 C590 1.368 . S
H575 C583 0.950 . S
H576 C581 0.950 . S
H577 C582 0.949 . S
H578 C584 0.950 . S
H579 C585 0.950 . S
H580 C586 0.949 . S
C581 H576 0.950 . S
C581 C583 1.327 . S
C581 C587 1.429 . S
C582 C574 1.574 . S
C582 H577 0.949 . S
C582 C588 1.368 . S
C583 C567 1.349 . S
C583 H575 0.950 . S
C583 C581 1.327 . S
C584 C572 1.349 . S
C584 H578 0.950 . S
C584 C585 1.327 . S
C585 H579 0.950 . S
C585 C584 1.327 . S
C585 C589 1.429 . S
C586 C569 1.574 . S
C586 H580 0.949 . S
C586 C590 1.368 . S
C587 C568 1.429 . S
C587 C581 1.429 . S
C587 C588 1.523 . S
C588 C569 1.368 . S
C588 C582 1.368 . S
C588 C587 1.523 . S
C589 C573 1.429 . S
C589 C585 1.429 . S
C589 C590 1.523 . S
C590 C574 1.368 . S
C590 C586 1.368 . S
C590 C589 1.523 . S
H591 C566 0.950 . S
H592 C568 0.950 . S
H593 C569 0.949 . S
H594 C571 0.950 . S
H595 C573 0.950 . S
C596 C597 1.349 . S
C596 C598 1.327 . S
C596 H621 0.950 . S
C597 C596 1.349 . S
C597 C613 1.349 . S
C598 C596 1.327 . S
C598 C617 1.429 . S
C598 H622 0.950 . S
C599 C616 1.574 . S
C599 C618 1.368 . S
C599 H623 0.949 . S
H600 C604 0.949 . S
C601 C602 1.349 . S
C601 C603 1.327 . S
C601 H624 0.950 . S
C602 C601 1.349 . S
C602 C614 1.349 . S
C603 C601 1.327 . S
C603 C619 1.429 . S
C603 H625 0.950 . S
C604 H600 0.949 . S
C604 C612 1.574 . S
C604 C620 1.368 . S
H605 C613 0.950 . S
H606 C611 0.950 . S
H607 C612 0.949 . S
H608 C614 0.950 . S
H609 C615 0.950 . S
H610 C616 0.949 . S
C611 H606 0.950 . S
C611 C613 1.327 . S
C611 C617 1.429 . S
C612 C604 1.574 . S
C612 H607 0.949 . S
C612 C618 1.368 . S
C613 C597 1.349 . S
C613 H605 0.950 . S
C613 C611 1.327 . S
C614 C602 1.349 . S
C614 H608 0.950 . S
C614 C615 1.327 . S
C615 H609 0.950 . S
C615 C614 1.327 . S
C615 C619 1.429 . S
C616 C599 1.574 . S
C616 H610 0.949 . S
C616 C620 1.368 . S
C617 C598 1.429 . S
C617 C611 1.429 . S
C617 C618 1.523 . S
C618 C599 1.368 . S
C618 C612 1.368 . S
C618 C617 1.523 . S
C619 C603 1.429 . S
C619 C615 1.429 . S
C619 C620 1.523 . S
C620 C604 1.368 . S
C620 C616 1.368 . S
C620 C619 1.523 . S
H621 C596 0.950 . S
H622 C598 0.950 . S
H623 C599 0.949 . S
H624 C601 0.950 . S
H625 C603 0.950 . S
C626 C627 1.349 . S
C626 C628 1.327 . S
C626 H651 0.950 . S
C627 C626 1.349 . S
C627 C643 1.349 . S
C628 C626 1.327 . S
C628 C647 1.429 . S
C628 H652 0.950 . S
C629 C646 1.574 . S
C629 C648 1.368 . S
C629 H653 0.949 . S
H630 C634 0.949 . S
C631 C632 1.349 . S
C631 C633 1.327 . S
C631 H654 0.950 . S
C632 C631 1.349 . S
C632 C644 1.349 . S
C633 C631 1.327 . S
C633 C649 1.429 . S
C633 H655 0.950 . S
C634 H630 0.949 . S
C634 C642 1.574 . S
C634 C650 1.368 . S
H635 C643 0.950 . S
H636 C641 0.950 . S
H637 C642 0.949 . S
H638 C644 0.950 . S
H639 C645 0.950 . S
H640 C646 0.949 . S
C641 H636 0.950 . S
C641 C643 1.327 . S
C641 C647 1.429 . S
C642 C634 1.574 . S
C642 H637 0.949 . S
C642 C648 1.368 . S
C643 C627 1.349 . S
C643 H635 0.950 . S
C643 C641 1.327 . S
C644 C632 1.349 . S
C644 H638 0.950 . S
C644 C645 1.327 . S
C645 H639 0.950 . S
C645 C644 1.327 . S
C645 C649 1.429 . S
C646 C629 1.574 . S
C646 H640 0.949 . S
C646 C650 1.368 . S
C647 C628 1.429 . S
C647 C641 1.429 . S
C647 C648 1.523 . S
C648 C629 1.368 . S
C648 C642 1.368 . S
C648 C647 1.523 . S
C649 C633 1.429 . S
C649 C645 1.429 . S
C649 C650 1.523 . S
C650 C634 1.368 . S
C650 C646 1.368 . S
C650 C649 1.523 . S
H651 C626 0.950 . S
H652 C628 0.950 . S
H653 C629 0.949 . S
H654 C631 0.950 . S
H655 C633 0.950 . S
C656 C657 1.349 . S
C656 C658 1.327 . S
C656 H681 0.950 . S
C657 C656 1.349 . S
C657 C673 1.349 . S
C658 C656 1.327 . S
C658 C677 1.429 . S
C658 H682 0.950 . S
C659 C676 1.574 . S
C659 C678 1.368 . S
C659 H683 0.949 . S
H660 C664 0.949 . S
C661 C662 1.349 . S
C661 C663 1.327 . S
C661 H684 0.950 . S
C662 C661 1.349 . S
C662 C674 1.349 . S
C663 C661 1.327 . S
C663 C679 1.429 . S
C663 H685 0.950 . S
C664 H660 0.949 . S
C664 C672 1.574 . S
C664 C680 1.368 . S
H665 C673 0.950 . S
H666 C671 0.950 . S
H667 C672 0.949 . S
H668 C674 0.950 . S
H669 C675 0.950 . S
H670 C676 0.949 . S
C671 H666 0.950 . S
C671 C673 1.327 . S
C671 C677 1.429 . S
C672 C664 1.574 . S
C672 H667 0.949 . S
C672 C678 1.368 . S
C673 C657 1.349 . S
C673 H665 0.950 . S
C673 C671 1.327 . S
C674 C662 1.349 . S
C674 H668 0.950 . S
C674 C675 1.327 . S
C675 H669 0.950 . S
C675 C674 1.327 . S
C675 C679 1.429 . S
C676 C659 1.574 . S
C676 H670 0.949 . S
C676 C680 1.368 . S
C677 C658 1.429 . S
C677 C671 1.429 . S
C677 C678 1.523 . S
C678 C659 1.368 . S
C678 C672 1.368 . S
C678 C677 1.523 . S
C679 C663 1.429 . S
C679 C675 1.429 . S
C679 C680 1.523 . S
C680 C664 1.368 . S
C680 C676 1.368 . S
C680 C679 1.523 . S
H681 C656 0.950 . S
H682 C658 0.950 . S
H683 C659 0.949 . S
H684 C661 0.950 . S
H685 C663 0.950 . S
C686 C687 1.349 . S
C686 C688 1.327 . S
C686 H711 0.950 . S
C687 C686 1.349 . S
C687 C703 1.349 . S
C688 C686 1.327 . S
C688 C707 1.429 . S
C688 H712 0.950 . S
C689 C706 1.574 . S
C689 C708 1.368 . S
C689 H713 0.949 . S
H690 C694 0.949 . S
C691 C692 1.349 . S
C691 C693 1.327 . S
C691 H714 0.950 . S
C692 C691 1.349 . S
C692 C704 1.349 . S
C693 C691 1.327 . S
C693 C709 1.429 . S
C693 H715 0.950 . S
C694 H690 0.949 . S
C694 C702 1.574 . S
C694 C710 1.368 . S
H695 C703 0.950 . S
H696 C701 0.950 . S
H697 C702 0.949 . S
H698 C704 0.950 . S
H699 C705 0.950 . S
H700 C706 0.949 . S
C701 H696 0.950 . S
C701 C703 1.327 . S
C701 C707 1.429 . S
C702 C694 1.574 . S
C702 H697 0.949 . S
C702 C708 1.368 . S
C703 C687 1.349 . S
C703 H695 0.950 . S
C703 C701 1.327 . S
C704 C692 1.349 . S
C704 H698 0.950 . S
C704 C705 1.327 . S
C705 H699 0.950 . S
C705 C704 1.327 . S
C705 C709 1.429 . S
C706 C689 1.574 . S
C706 H700 0.949 . S
C706 C710 1.368 . S
C707 C688 1.429 . S
C707 C701 1.429 . S
C707 C708 1.523 . S
C708 C689 1.368 . S
C708 C702 1.368 . S
C708 C707 1.523 . S
C709 C693 1.429 . S
C709 C705 1.429 . S
C709 C710 1.523 . S
C710 C694 1.368 . S
C710 C706 1.368 . S
C710 C709 1.523 . S
H711 C686 0.950 . S
H712 C688 0.950 . S
H713 C689 0.949 . S
H714 C691 0.950 . S
H715 C693 0.950 . S
C716 C717 1.349 . S
C716 C718 1.327 . S
C716 H741 0.950 . S
C717 C716 1.349 . S
C717 C733 1.349 . S
C718 C716 1.327 . S
C718 C737 1.429 . S
C718 H742 0.950 . S
C719 C736 1.574 . S
C719 C738 1.368 . S
C719 H743 0.949 . S
H720 C724 0.949 . S
C721 C722 1.349 . S
C721 C723 1.327 . S
C721 H744 0.950 . S
C722 C721 1.349 . S
C722 C734 1.349 . S
C723 C721 1.327 . S
C723 C739 1.429 . S
C723 H745 0.950 . S
C724 H720 0.949 . S
C724 C732 1.574 . S
C724 C740 1.368 . S
H725 C733 0.950 . S
H726 C731 0.950 . S
H727 C732 0.949 . S
H728 C734 0.950 . S
H729 C735 0.950 . S
H730 C736 0.949 . S
C731 H726 0.950 . S
C731 C733 1.327 . S
C731 C737 1.429 . S
C732 C724 1.574 . S
C732 H727 0.949 . S
C732 C738 1.368 . S
C733 C717 1.349 . S
C733 H725 0.950 . S
C733 C731 1.327 . S
C734 C722 1.349 . S
C734 H728 0.950 . S
C734 C735 1.327 . S
C735 H729 0.950 . S
C735 C734 1.327 . S
C735 C739 1.429 . S
C736 C719 1.574 . S
C736 H730 0.949 . S
C736 C740 1.368 . S
C737 C718 1.429 . S
C737 C731 1.429 . S
C737 C738 1.523 . S
C738 C719 1.368 . S
C738 C732 1.368 . S
C738 C737 1.523 . S
C739 C723 1.429 . S
C739 C735 1.429 . S
C739 C740 1.523 . S
C740 C724 1.368 . S
C740 C736 1.368 . S
C740 C739 1.523 . S
H741 C716 0.950 . S
H742 C718 0.950 . S
H743 C719 0.949 . S
H744 C721 0.950 . S
H745 C723 0.950 . S
C746 C747 1.349 . S
C746 C748 1.327 . S
C746 H771 0.950 . S
C747 C746 1.349 . S
C747 C763 1.349 . S
C748 C746 1.327 . S
C748 C767 1.429 . S
C748 H772 0.950 . S
C749 C766 1.574 . S
C749 C768 1.368 . S
C749 H773 0.949 . S
H750 C754 0.949 . S
C751 C752 1.349 . S
C751 C753 1.327 . S
C751 H774 0.950 . S
C752 C751 1.349 . S
C752 C764 1.349 . S
C753 C751 1.327 . S
C753 C769 1.429 . S
C753 H775 0.950 . S
C754 H750 0.949 . S
C754 C762 1.574 . S
C754 C770 1.368 . S
H755 C763 0.950 . S
H756 C761 0.950 . S
H757 C762 0.949 . S
H758 C764 0.950 . S
H759 C765 0.950 . S
H760 C766 0.949 . S
C761 H756 0.950 . S
C761 C763 1.327 . S
C761 C767 1.429 . S
C762 C754 1.574 . S
C762 H757 0.949 . S
C762 C768 1.368 . S
C763 C747 1.349 . S
C763 H755 0.950 . S
C763 C761 1.327 . S
C764 C752 1.349 . S
C764 H758 0.950 . S
C764 C765 1.327 . S
C765 H759 0.950 . S
C765 C764 1.327 . S
C765 C769 1.429 . S
C766 C749 1.574 . S
C766 H760 0.949 . S
C766 C770 1.368 . S
C767 C748 1.429 . S
C767 C761 1.429 . S
C767 C768 1.523 . S
C768 C749 1.368 . S
C768 C762 1.368 . S
C768 C767 1.523 . S
C769 C753 1.429 . S
C769 C765 1.429 . S
C769 C770 1.523 . S
C770 C754 1.368 . S
C770 C766 1.368 . S
C770 C769 1.523 . S
H771 C746 0.950 . S
H772 C748 0.950 . S
H773 C749 0.949 . S
H774 C751 0.950 . S
H775 C753 0.950 . S
C776 C777 1.349 . S
C776 C778 1.327 . S
C776 H801 0.950 . S
C777 C776 1.349 . S
C777 C793 1.349 . S
C778 C776 1.327 . S
C778 C797 1.429 . S
C778 H802 0.950 . S
C779 C796 1.574 . S
C779 C798 1.368 . S
C779 H803 0.949 . S
H780 C784 0.949 . S
C781 C782 1.349 . S
C781 C783 1.327 . S
C781 H804 0.950 . S
C782 C781 1.349 . S
C782 C794 1.349 . S
C783 C781 1.327 . S
C783 C799 1.429 . S
C783 H805 0.950 . S
C784 H780 0.949 . S
C784 C792 1.574 . S
C784 C800 1.368 . S
H785 C793 0.950 . S
H786 C791 0.950 . S
H787 C792 0.949 . S
H788 C794 0.950 . S
H789 C795 0.950 . S
H790 C796 0.949 . S
C791 H786 0.950 . S
C791 C793 1.327 . S
C791 C797 1.429 . S
C792 C784 1.574 . S
C792 H787 0.949 . S
C792 C798 1.368 . S
C793 C777 1.349 . S
C793 H785 0.950 . S
C793 C791 1.327 . S
C794 C782 1.349 . S
C794 H788 0.950 . S
C794 C795 1.327 . S
C795 H789 0.950 . S
C795 C794 1.327 . S
C795 C799 1.429 . S
C796 C779 1.574 . S
C796 H790 0.949 . S
C796 C800 1.368 . S
C797 C778 1.429 . S
C797 C791 1.429 . S
C797 C798 1.523 . S
C798 C779 1.368 . S
C798 C792 1.368 . S
C798 C797 1.523 . S
C799 C783 1.429 . S
C799 C795 1.429 . S
C799 C800 1.523 . S
C800 C784 1.368 . S
C800 C796 1.368 . S
C800 C799 1.523 . S
H801 C776 0.950 . S
H802 C778 0.950 . S
H803 C779 0.949 . S
H804 C781 0.950 . S
H805 C783 0.950 . S
C806 C807 1.349 . S
C806 C808 1.327 . S
C806 H831 0.950 . S
C807 C806 1.349 . S
C807 C823 1.349 . S
C808 C806 1.327 . S
C808 C827 1.429 . S
C808 H832 0.950 . S
C809 C826 1.574 . S
C809 C828 1.368 . S
C809 H833 0.949 . S
H810 C814 0.949 . S
C811 C812 1.349 . S
C811 C813 1.327 . S
C811 H834 0.950 . S
C812 C811 1.349 . S
C812 C824 1.349 . S
C813 C811 1.327 . S
C813 C829 1.429 . S
C813 H835 0.950 . S
C814 H810 0.949 . S
C814 C822 1.574 . S
C814 C830 1.368 . S
H815 C823 0.950 . S
H816 C821 0.950 . S
H817 C822 0.949 . S
H818 C824 0.950 . S
H819 C825 0.950 . S
H820 C826 0.949 . S
C821 H816 0.950 . S
C821 C823 1.327 . S
C821 C827 1.429 . S
C822 C814 1.574 . S
C822 H817 0.949 . S
C822 C828 1.368 . S
C823 C807 1.349 . S
C823 H815 0.950 . S
C823 C821 1.327 . S
C824 C812 1.349 . S
C824 H818 0.950 . S
C824 C825 1.327 . S
C825 H819 0.950 . S
C825 C824 1.327 . S
C825 C829 1.429 . S
C826 C809 1.574 . S
C826 H820 0.949 . S
C826 C830 1.368 . S
C827 C808 1.429 . S
C827 C821 1.429 . S
C827 C828 1.523 . S
C828 C809 1.368 . S
C828 C822 1.368 . S
C828 C827 1.523 . S
C829 C813 1.429 . S
C829 C825 1.429 . S
C829 C830 1.523 . S
C830 C814 1.368 . S
C830 C826 1.368 . S
C830 C829 1.523 . S
H831 C806 0.950 . S
H832 C808 0.950 . S
H833 C809 0.949 . S
H834 C811 0.950 . S
H835 C813 0.950 . S
C836 C837 1.349 . S
C836 C838 1.327 . S
C836 H861 0.950 . S
C837 C836 1.349 . S
C837 C853 1.349 . S
C838 C836 1.327 . S
C838 C857 1.429 . S
C838 H862 0.950 . S
C839 C856 1.574 . S
C839 C858 1.368 . S
C839 H863 0.949 . S
H840 C844 0.949 . S
C841 C842 1.349 . S
C841 C843 1.327 . S
C841 H864 0.950 . S
C842 C841 1.349 . S
C842 C854 1.349 . S
C843 C841 1.327 . S
C843 C859 1.429 . S
C843 H865 0.950 . S
C844 H840 0.949 . S
C844 C852 1.574 . S
C844 C860 1.368 . S
H845 C853 0.950 . S
H846 C851 0.950 . S
H847 C852 0.949 . S
H848 C854 0.950 . S
H849 C855 0.950 . S
H850 C856 0.949 . S
C851 H846 0.950 . S
C851 C853 1.327 . S
C851 C857 1.429 . S
C852 C844 1.574 . S
C852 H847 0.949 . S
C852 C858 1.368 . S
C853 C837 1.349 . S
C853 H845 0.950 . S
C853 C851 1.327 . S
C854 C842 1.349 . S
C854 H848 0.950 . S
C854 C855 1.327 . S
C855 H849 0.950 . S
C855 C854 1.327 . S
C855 C859 1.429 . S
C856 C839 1.574 . S
C856 H850 0.949 . S
C856 C860 1.368 . S
C857 C838 1.429 . S
C857 C851 1.429 . S
C857 C858 1.523 . S
C858 C839 1.368 . S
C858 C852 1.368 . S
C858 C857 1.523 . S
C859 C843 1.429 . S
C859 C855 1.429 . S
C859 C860 1.523 . S
C860 C844 1.368 . S
C860 C856 1.368 . S
C860 C859 1.523 . S
H861 C836 0.950 . S
H862 C838 0.950 . S
H863 C839 0.949 . S
H864 C841 0.950 . S
H865 C843 0.950 . S
C866 C867 1.349 . S
C866 C868 1.327 . S
C866 H891 0.950 . S
C867 C866 1.349 . S
C867 C883 1.349 . S
C868 C866 1.327 . S
C868 C887 1.429 . S
C868 H892 0.950 . S
C869 C886 1.574 . S
C869 C888 1.368 . S
C869 H893 0.949 . S
H870 C874 0.949 . S
C871 C872 1.349 . S
C871 C873 1.327 . S
C871 H894 0.950 . S
C872 C871 1.349 . S
C872 C884 1.349 . S
C873 C871 1.327 . S
C873 C889 1.429 . S
C873 H895 0.950 . S
C874 H870 0.949 . S
C874 C882 1.574 . S
C874 C890 1.368 . S
H875 C883 0.950 . S
H876 C881 0.950 . S
H877 C882 0.949 . S
H878 C884 0.950 . S
H879 C885 0.950 . S
H880 C886 0.949 . S
C881 H876 0.950 . S
C881 C883 1.327 . S
C881 C887 1.429 . S
C882 C874 1.574 . S
C882 H877 0.949 . S
C882 C888 1.368 . S
C883 C867 1.349 . S
C883 H875 0.950 . S
C883 C881 1.327 . S
C884 C872 1.349 . S
C884 H878 0.950 . S
C884 C885 1.327 . S
C885 H879 0.950 . S
C885 C884 1.327 . S
C885 C889 1.429 . S
C886 C869 1.574 . S
C886 H880 0.949 . S
C886 C890 1.368 . S
C887 C868 1.429 . S
C887 C881 1.429 . S
C887 C888 1.523 . S
C888 C869 1.368 . S
C888 C882 1.368 . S
C888 C887 1.523 . S
C889 C873 1.429 . S
C889 C885 1.429 . S
C889 C890 1.523 . S
C890 C874 1.368 . S
C890 C886 1.368 . S
C890 C889 1.523 . S
H891 C866 0.950 . S
H892 C868 0.950 . S
H893 C869 0.949 . S
H894 C871 0.950 . S
H895 C873 0.950 . S
C896 C897 1.349 . S
C896 C898 1.327 . S
C896 H921 0.950 . S
C897 C896 1.349 . S
C897 C913 1.349 . S
C898 C896 1.327 . S
C898 C917 1.429 . S
C898 H922 0.950 . S
C899 C916 1.574 1_655 S
C899 C918 1.368 . S
C899 H923 0.949 . S
H900 C904 0.949 . S
C901 C902 1.349 . S
C901 C903 1.327 . S
C901 H924 0.950 . S
C902 C901 1.349 . S
C902 C914 1.349 . S
C903 C901 1.327 . S
C903 C919 1.429 . S
C903 H925 0.950 . S
C904 H900 0.949 . S
C904 C912 1.574 1_455 S
C904 C920 1.368 . S
H905 C913 0.950 . S
H906 C911 0.950 . S
H907 C912 0.949 . S
H908 C914 0.950 . S
H909 C915 0.950 . S
H910 C916 0.949 . S
C911 H906 0.950 . S
C911 C913 1.327 . S
C911 C917 1.429 . S
C912 C904 1.574 1_655 S
C912 H907 0.949 . S
C912 C918 1.368 . S
C913 C897 1.349 . S
C913 H905 0.950 . S
C913 C911 1.327 . S
C914 C902 1.349 . S
C914 H908 0.950 . S
C914 C915 1.327 . S
C915 H909 0.950 . S
C915 C914 1.327 . S
C915 C919 1.429 . S
C916 C899 1.574 1_455 S
C916 H910 0.949 . S
C916 C920 1.368 . S
C917 C898 1.429 . S
C917 C911 1.429 . S
C917 C918 1.523 . S
C918 C899 1.368 . S
C918 C912 1.368 . S
C918 C917 1.523 . S
C919 C903 1.429 . S
C919 C915 1.429 . S
C919 C920 1.523 . S
C920 C904 1.368 . S
C920 C916 1.368 . S
C920 C919 1.523 . S
H921 C896 0.950 . S
H922 C898 0.950 . S
H923 C899 0.949 . S
H924 C901 0.950 . S
H925 C903 0.950 . S
C926 C927 1.349 . S
C926 C928 1.327 . S
C926 H951 0.950 . S
C927 C926 1.349 . S
C927 C943 1.349 . S
C928 C926 1.327 . S
C928 C947 1.429 . S
C928 H952 0.950 . S
C929 C946 1.540 1_545 S
C929 C948 1.368 . S
C929 H953 0.949 . S
H930 C934 0.949 . S
C931 C932 1.349 . S
C931 C933 1.327 . S
C931 H954 0.950 . S
C932 C931 1.349 . S
C932 C944 1.349 . S
C933 C931 1.327 . S
C933 C949 1.429 . S
C933 H955 0.950 . S
C934 H930 0.949 . S
C934 C942 1.574 1_565 S
C934 C950 1.368 . S
H935 C943 0.950 . S
H936 C941 0.950 . S
H937 C942 0.949 . S
H938 C944 0.950 . S
H939 C945 0.950 . S
H940 C946 0.965 . S
C941 H936 0.950 . S
C941 C943 1.327 . S
C941 C947 1.429 . S
C942 C934 1.574 1_545 S
C942 H937 0.949 . S
C942 C948 1.368 . S
C943 C927 1.349 . S
C943 H935 0.950 . S
C943 C941 1.327 . S
C944 C932 1.349 . S
C944 H938 0.950 . S
C944 C945 1.327 . S
C945 H939 0.950 . S
C945 C944 1.327 . S
C945 C949 1.429 . S
C946 C929 1.540 1_565 S
C946 H940 0.965 . S
C946 C950 1.385 . S
C947 C928 1.429 . S
C947 C941 1.429 . S
C947 C948 1.523 . S
C948 C929 1.368 . S
C948 C942 1.368 . S
C948 C947 1.523 . S
C949 C933 1.429 . S
C949 C945 1.429 . S
C949 C950 1.523 . S
C950 C934 1.368 . S
C950 C946 1.385 . S
C950 C949 1.523 . S
H951 C926 0.950 . S
H952 C928 0.950 . S
H953 C929 0.949 . S
H954 C931 0.950 . S
H955 C933 0.950 . S
C956 C957 1.349 . S
C956 C958 1.327 . S
C956 H981 0.950 . S
C957 C956 1.349 . S
C957 C973 1.349 . S
C958 C956 1.327 . S
C958 C977 1.429 . S
C958 H982 0.950 . S
C959 C976 1.574 1_455 S
C959 C978 1.368 . S
C959 H983 0.949 . S
H960 C964 0.949 . S
C961 C962 1.349 . S
C961 C963 1.327 . S
C961 H984 0.950 . S
C962 C961 1.349 . S
C962 C974 1.349 . S
C963 C961 1.327 . S
C963 C979 1.429 . S
C963 H985 0.950 . S
C964 H960 0.949 . S
C964 C972 1.574 1_655 S
C964 C980 1.368 . S
H965 C973 0.950 . S
H966 C971 0.950 . S
H967 C972 0.949 . S
H968 C974 0.950 . S
H969 C975 0.950 . S
H970 C976 0.949 . S
C971 H966 0.950 . S
C971 C973 1.327 . S
C971 C977 1.429 . S
C972 C964 1.574 1_455 S
C972 H967 0.949 . S
C972 C978 1.368 . S
C973 C957 1.349 . S
C973 H965 0.950 . S
C973 C971 1.327 . S
C974 C962 1.349 . S
C974 H968 0.950 . S
C974 C975 1.327 . S
C975 H969 0.950 . S
C975 C974 1.327 . S
C975 C979 1.429 . S
C976 C959 1.574 1_655 S
C976 H970 0.949 . S
C976 C980 1.368 . S
C977 C958 1.429 . S
C977 C971 1.429 . S
C977 C978 1.523 . S
C978 C959 1.368 . S
C978 C972 1.368 . S
C978 C977 1.523 . S
C979 C963 1.429 . S
C979 C975 1.429 . S
C979 C980 1.523 . S
C980 C964 1.368 . S
C980 C976 1.368 . S
C980 C979 1.523 . S
H981 C956 0.950 . S
H982 C958 0.950 . S
H983 C959 0.949 . S
H984 C961 0.950 . S
H985 C963 0.950 . S
C986 C987 1.349 . S
C986 C988 1.327 . S
C986 H1011 0.950 . S
C987 C986 1.349 . S
C987 C1003 1.349 . S
C988 C986 1.327 . S
C988 C1007 1.429 . S
C988 H1012 0.950 . S
C989 C1006 1.541 1_565 S
C989 C1008 1.368 . S
C989 H1013 0.949 . S
H990 C994 0.949 . S
C991 C992 1.349 . S
C991 C993 1.327 . S
C991 H1014 0.950 . S
C992 C991 1.349 . S
C992 C1004 1.349 . S
C993 C991 1.327 . S
C993 C1009 1.429 . S
C993 H1015 0.950 . S
C994 H990 0.949 . S
C994 C1002 1.574 1_545 S
C994 C1010 1.368 . S
H995 C1003 0.950 . S
H996 C1001 0.950 . S
H997 C1002 0.949 . S
H998 C1004 0.950 . S
H999 C1005 0.950 . S
H1000 C1006 0.965 . S
C1001 H996 0.950 . S
C1001 C1003 1.327 . S
C1001 C1007 1.429 . S
C1002 C994 1.574 1_565 S
C1002 H997 0.949 . S
C1002 C1008 1.368 . S
C1003 C987 1.349 . S
C1003 H995 0.950 . S
C1003 C1001 1.327 . S
C1004 C992 1.349 . S
C1004 H998 0.950 . S
C1004 C1005 1.327 . S
C1005 H999 0.950 . S
C1005 C1004 1.327 . S
C1005 C1009 1.429 . S
C1006 C989 1.541 1_545 S
C1006 H1000 0.965 . S
C1006 C1010 1.384 . S
C1007 C988 1.429 . S
C1007 C1001 1.429 . S
C1007 C1008 1.523 . S
C1008 C989 1.368 . S
C1008 C1002 1.368 . S
C1008 C1007 1.523 . S
C1009 C993 1.429 . S
C1009 C1005 1.429 . S
C1009 C1010 1.523 . S
C1010 C994 1.368 . S
C1010 C1006 1.384 . S
C1010 C1009 1.523 . S
H1011 C986 0.950 . S
H1012 C988 0.950 . S
H1013 C989 0.949 . S
H1014 C991 0.950 . S
H1015 C993 0.950 . S
C1016 C1017 1.349 . S
C1016 C1018 1.327 . S
C1016 H1041 0.950 . S
C1017 C1016 1.349 . S
C1017 C1033 1.349 . S
C1018 C1016 1.327 . S
C1018 C1037 1.429 . S
C1018 H1042 0.950 . S
C1019 C1036 1.574 1_455 S
C1019 C1038 1.368 . S
C1019 H1043 0.949 . S
H1020 C1024 0.949 . S
C1021 C1022 1.349 . S
C1021 C1023 1.327 . S
C1021 H1044 0.950 . S
C1022 C1021 1.349 . S
C1022 C1034 1.349 . S
C1023 C1021 1.327 . S
C1023 C1039 1.429 . S
C1023 H1045 0.950 . S
C1024 H1020 0.949 . S
C1024 C1032 1.574 1_655 S
C1024 C1040 1.368 . S
H1025 C1033 0.950 . S
H1026 C1031 0.950 . S
H1027 C1032 0.949 . S
H1028 C1034 0.950 . S
H1029 C1035 0.950 . S
H1030 C1036 0.949 . S
C1031 H1026 0.950 . S
C1031 C1033 1.327 . S
C1031 C1037 1.429 . S
C1032 C1024 1.574 1_455 S
C1032 H1027 0.949 . S
C1032 C1038 1.368 . S
C1033 C1017 1.349 . S
C1033 H1025 0.950 . S
C1033 C1031 1.327 . S
C1034 C1022 1.349 . S
C1034 H1028 0.950 . S
C1034 C1035 1.327 . S
C1035 H1029 0.950 . S
C1035 C1034 1.327 . S
C1035 C1039 1.429 . S
C1036 C1019 1.574 1_655 S
C1036 H1030 0.949 . S
C1036 C1040 1.368 . S
C1037 C1018 1.429 . S
C1037 C1031 1.429 . S
C1037 C1038 1.523 . S
C1038 C1019 1.368 . S
C1038 C1032 1.368 . S
C1038 C1037 1.523 . S
C1039 C1023 1.429 . S
C1039 C1035 1.429 . S
C1039 C1040 1.523 . S
C1040 C1024 1.368 . S
C1040 C1036 1.368 . S
C1040 C1039 1.523 . S
H1041 C1016 0.950 . S
H1042 C1018 0.950 . S
H1043 C1019 0.949 . S
H1044 C1021 0.950 . S
H1045 C1023 0.950 . S
C1046 C1047 1.349 . S
C1046 C1048 1.327 . S
C1046 H1071 0.950 . S
C1047 C1046 1.349 . S
C1047 C1063 1.349 . S
C1048 C1046 1.327 . S
C1048 C1067 1.429 . S
C1048 H1072 0.950 . S
C1049 C1066 1.574 1_565 S
C1049 C1068 1.368 . S
C1049 H1073 0.949 . S
H1050 C1054 0.949 . S
C1051 C1052 1.349 . S
C1051 C1053 1.327 . S
C1051 H1074 0.950 . S
C1052 C1051 1.349 . S
C1052 C1064 1.349 . S
C1053 C1051 1.327 . S
C1053 C1069 1.429 . S
C1053 H1075 0.950 . S
C1054 H1050 0.949 . S
C1054 C1062 1.574 1_545 S
C1054 C1070 1.368 . S
H1055 C1063 0.950 . S
H1056 C1061 0.950 . S
H1057 C1062 0.949 . S
H1058 C1064 0.950 . S
H1059 C1065 0.950 . S
H1060 C1066 0.949 . S
C1061 H1056 0.950 . S
C1061 C1063 1.327 . S
C1061 C1067 1.429 . S
C1062 C1054 1.574 1_565 S
C1062 H1057 0.949 . S
C1062 C1068 1.368 . S
C1063 C1047 1.349 . S
C1063 H1055 0.950 . S
C1063 C1061 1.327 . S
C1064 C1052 1.349 . S
C1064 H1058 0.950 . S
C1064 C1065 1.327 . S
C1065 H1059 0.950 . S
C1065 C1064 1.327 . S
C1065 C1069 1.429 . S
C1066 C1049 1.574 1_545 S
C1066 H1060 0.949 . S
C1066 C1070 1.368 . S
C1067 C1048 1.429 . S
C1067 C1061 1.429 . S
C1067 C1068 1.523 . S
C1068 C1049 1.368 . S
C1068 C1062 1.368 . S
C1068 C1067 1.523 . S
C1069 C1053 1.429 . S
C1069 C1065 1.429 . S
C1069 C1070 1.523 . S
C1070 C1054 1.368 . S
C1070 C1066 1.368 . S
C1070 C1069 1.523 . S
H1071 C1046 0.950 . S
H1072 C1048 0.950 . S
H1073 C1049 0.949 . S
H1074 C1051 0.950 . S
H1075 C1053 0.950 . S
C1076 C1077 1.349 . S
C1076 C1078 1.327 . S
C1076 H1101 0.950 . S
C1077 C1076 1.349 . S
C1077 C1093 1.349 . S
C1078 C1076 1.327 . S
C1078 C1097 1.429 . S
C1078 H1102 0.950 . S
C1079 C1096 1.574 1_455 S
C1079 C1098 1.368 . S
C1079 H1103 0.949 . S
H1080 C1084 0.949 . S
C1081 C1082 1.349 . S
C1081 C1083 1.327 . S
C1081 H1104 0.950 . S
C1082 C1081 1.349 . S
C1082 C1094 1.349 . S
C1083 C1081 1.327 . S
C1083 C1099 1.429 . S
C1083 H1105 0.950 . S
C1084 H1080 0.949 . S
C1084 C1092 1.574 1_655 S
C1084 C1100 1.368 . S
H1085 C1093 0.950 . S
H1086 C1091 0.950 . S
H1087 C1092 0.949 . S
H1088 C1094 0.950 . S
H1089 C1095 0.950 . S
H1090 C1096 0.949 . S
C1091 H1086 0.950 . S
C1091 C1093 1.327 . S
C1091 C1097 1.429 . S
C1092 C1084 1.574 1_455 S
C1092 H1087 0.949 . S
C1092 C1098 1.368 . S
C1093 C1077 1.349 . S
C1093 H1085 0.950 . S
C1093 C1091 1.327 . S
C1094 C1082 1.349 . S
C1094 H1088 0.950 . S
C1094 C1095 1.327 . S
C1095 H1089 0.950 . S
C1095 C1094 1.327 . S
C1095 C1099 1.429 . S
C1096 C1079 1.574 1_655 S
C1096 H1090 0.949 . S
C1096 C1100 1.368 . S
C1097 C1078 1.429 . S
C1097 C1091 1.429 . S
C1097 C1098 1.523 . S
C1098 C1079 1.368 . S
C1098 C1092 1.368 . S
C1098 C1097 1.523 . S
C1099 C1083 1.429 . S
C1099 C1095 1.429 . S
C1099 C1100 1.523 . S
C1100 C1084 1.368 . S
C1100 C1096 1.368 . S
C1100 C1099 1.523 . S
H1101 C1076 0.950 . S
H1102 C1078 0.950 . S
H1103 C1079 0.949 . S
H1104 C1081 0.950 . S
H1105 C1083 0.950 . S
C1106 C1107 1.349 . S
C1106 C1108 1.327 . S
C1106 H1131 0.950 . S
C1107 C1106 1.349 . S
C1107 C1123 1.349 . S
C1108 C1106 1.327 . S
C1108 C1127 1.429 . S
C1108 H1132 0.950 . S
C1109 C1126 1.574 1_545 S
C1109 C1128 1.368 . S
C1109 H1133 0.949 . S
H1110 C1114 0.949 . S
C1111 C1112 1.349 . S
C1111 C1113 1.327 . S
C1111 H1134 0.950 . S
C1112 C1111 1.349 . S
C1112 C1124 1.349 . S
C1113 C1111 1.327 . S
C1113 C1129 1.429 . S
C1113 H1135 0.950 . S
C1114 H1110 0.949 . S
C1114 C1122 1.574 1_565 S
C1114 C1130 1.368 . S
H1115 C1123 0.950 . S
H1116 C1121 0.950 . S
H1117 C1122 0.949 . S
H1118 C1124 0.950 . S
H1119 C1125 0.950 . S
H1120 C1126 0.949 . S
C1121 H1116 0.950 . S
C1121 C1123 1.327 . S
C1121 C1127 1.429 . S
C1122 C1114 1.574 1_545 S
C1122 H1117 0.949 . S
C1122 C1128 1.368 . S
C1123 C1107 1.349 . S
C1123 H1115 0.950 . S
C1123 C1121 1.327 . S
C1124 C1112 1.349 . S
C1124 H1118 0.950 . S
C1124 C1125 1.327 . S
C1125 H1119 0.950 . S
C1125 C1124 1.327 . S
C1125 C1129 1.429 . S
C1126 C1109 1.574 1_565 S
C1126 H1120 0.949 . S
C1126 C1130 1.368 . S
C1127 C1108 1.429 . S
C1127 C1121 1.429 . S
C1127 C1128 1.523 . S
C1128 C1109 1.368 . S
C1128 C1122 1.368 . S
C1128 C1127 1.523 . S
C1129 C1113 1.429 . S
C1129 C1125 1.429 . S
C1129 C1130 1.523 . S
C1130 C1114 1.368 . S
C1130 C1126 1.368 . S
C1130 C1129 1.523 . S
H1131 C1106 0.950 . S
H1132 C1108 0.950 . S
H1133 C1109 0.949 . S
H1134 C1111 0.950 . S
H1135 C1113 0.950 . S
C1136 C1137 1.349 . S
C1136 C1138 1.327 . S
C1136 H1161 0.950 . S
C1137 C1136 1.349 . S
C1137 C1153 1.349 . S
C1138 C1136 1.327 . S
C1138 C1157 1.429 . S
C1138 H1162 0.950 . S
C1139 C1156 1.574 . S
C1139 C1158 1.368 . S
C1139 H1163 0.949 . S
H1140 C1144 0.949 . S
C1141 C1142 1.349 . S
C1141 C1143 1.327 . S
C1141 H1164 0.950 . S
C1142 C1141 1.349 . S
C1142 C1154 1.349 . S
C1143 C1141 1.327 . S
C1143 C1159 1.429 . S
C1143 H1165 0.950 . S
C1144 H1140 0.949 . S
C1144 C1152 1.574 . S
C1144 C1160 1.368 . S
H1145 C1153 0.950 . S
H1146 C1151 0.950 . S
H1147 C1152 0.949 . S
H1148 C1154 0.950 . S
H1149 C1155 0.950 . S
H1150 C1156 0.949 . S
C1151 H1146 0.950 . S
C1151 C1153 1.327 . S
C1151 C1157 1.429 . S
C1152 C1144 1.574 . S
C1152 H1147 0.949 . S
C1152 C1158 1.368 . S
C1153 C1137 1.349 . S
C1153 H1145 0.950 . S
C1153 C1151 1.327 . S
C1154 C1142 1.349 . S
C1154 H1148 0.950 . S
C1154 C1155 1.327 . S
C1155 H1149 0.950 . S
C1155 C1154 1.327 . S
C1155 C1159 1.429 . S
C1156 C1139 1.574 . S
C1156 H1150 0.949 . S
C1156 C1160 1.368 . S
C1157 C1138 1.429 . S
C1157 C1151 1.429 . S
C1157 C1158 1.523 . S
C1158 C1139 1.368 . S
C1158 C1152 1.368 . S
C1158 C1157 1.523 . S
C1159 C1143 1.429 . S
C1159 C1155 1.429 . S
C1159 C1160 1.523 . S
C1160 C1144 1.368 . S
C1160 C1156 1.368 . S
C1160 C1159 1.523 . S
H1161 C1136 0.950 . S
H1162 C1138 0.950 . S
H1163 C1139 0.949 . S
H1164 C1141 0.950 . S
H1165 C1143 0.950 . S
C1166 C1167 1.349 . S
C1166 C1168 1.327 . S
C1166 H1191 0.950 . S
C1167 C1166 1.349 . S
C1167 C1183 1.349 . S
C1168 C1166 1.327 . S
C1168 C1187 1.429 . S
C1168 H1192 0.950 . S
C1169 C1186 1.574 . S
C1169 C1188 1.368 . S
C1169 H1193 0.949 . S
H1170 C1174 0.949 . S
C1171 C1172 1.349 . S
C1171 C1173 1.327 . S
C1171 H1194 0.950 . S
C1172 C1171 1.349 . S
C1172 C1184 1.349 . S
C1173 C1171 1.327 . S
C1173 C1189 1.429 . S
C1173 H1195 0.950 . S
C1174 H1170 0.949 . S
C1174 C1182 1.574 . S
C1174 C1190 1.368 . S
H1175 C1183 0.950 . S
H1176 C1181 0.950 . S
H1177 C1182 0.949 . S
H1178 C1184 0.950 . S
H1179 C1185 0.950 . S
H1180 C1186 0.949 . S
C1181 H1176 0.950 . S
C1181 C1183 1.327 . S
C1181 C1187 1.429 . S
C1182 C1174 1.574 . S
C1182 H1177 0.949 . S
C1182 C1188 1.368 . S
C1183 C1167 1.349 . S
C1183 H1175 0.950 . S
C1183 C1181 1.327 . S
C1184 C1172 1.349 . S
C1184 H1178 0.950 . S
C1184 C1185 1.327 . S
C1185 H1179 0.950 . S
C1185 C1184 1.327 . S
C1185 C1189 1.429 . S
C1186 C1169 1.574 . S
C1186 H1180 0.949 . S
C1186 C1190 1.368 . S
C1187 C1168 1.429 . S
C1187 C1181 1.429 . S
C1187 C1188 1.523 . S
C1188 C1169 1.368 . S
C1188 C1182 1.368 . S
C1188 C1187 1.523 . S
C1189 C1173 1.429 . S
C1189 C1185 1.429 . S
C1189 C1190 1.523 . S
C1190 C1174 1.368 . S
C1190 C1186 1.368 . S
C1190 C1189 1.523 . S
H1191 C1166 0.950 . S
H1192 C1168 0.950 . S
H1193 C1169 0.949 . S
H1194 C1171 0.950 . S
H1195 C1173 0.950 . S
C1196 C1197 1.349 . S
C1196 C1198 1.327 . S
C1196 H1221 0.950 . S
C1197 C1196 1.349 . S
C1197 C1213 1.349 . S
C1198 C1196 1.327 . S
C1198 C1217 1.429 . S
C1198 H1222 0.950 . S
C1199 C1216 1.574 . S
C1199 C1218 1.368 . S
C1199 H1223 0.949 . S
H1200 C1204 0.949 . S
C1201 C1202 1.349 . S
C1201 C1203 1.327 . S
C1201 H1224 0.950 . S
C1202 C1201 1.349 . S
C1202 C1214 1.349 . S
C1203 C1201 1.327 . S
C1203 C1219 1.429 . S
C1203 H1225 0.950 . S
C1204 H1200 0.949 . S
C1204 C1212 1.574 . S
C1204 C1220 1.368 . S
H1205 C1213 0.950 . S
H1206 C1211 0.950 . S
H1207 C1212 0.949 . S
H1208 C1214 0.950 . S
H1209 C1215 0.950 . S
H1210 C1216 0.949 . S
C1211 H1206 0.950 . S
C1211 C1213 1.327 . S
C1211 C1217 1.429 . S
C1212 C1204 1.574 . S
C1212 H1207 0.949 . S
C1212 C1218 1.368 . S
C1213 C1197 1.349 . S
C1213 H1205 0.950 . S
C1213 C1211 1.327 . S
C1214 C1202 1.349 . S
C1214 H1208 0.950 . S
C1214 C1215 1.327 . S
C1215 H1209 0.950 . S
C1215 C1214 1.327 . S
C1215 C1219 1.429 . S
C1216 C1199 1.574 . S
C1216 H1210 0.949 . S
C1216 C1220 1.368 . S
C1217 C1198 1.429 . S
C1217 C1211 1.429 . S
C1217 C1218 1.523 . S
C1218 C1199 1.368 . S
C1218 C1212 1.368 . S
C1218 C1217 1.523 . S
C1219 C1203 1.429 . S
C1219 C1215 1.429 . S
C1219 C1220 1.523 . S
C1220 C1204 1.368 . S
C1220 C1216 1.368 . S
C1220 C1219 1.523 . S
H1221 C1196 0.950 . S
H1222 C1198 0.950 . S
H1223 C1199 0.949 . S
H1224 C1201 0.950 . S
H1225 C1203 0.950 . S
C1226 C1227 1.349 . S
C1226 C1228 1.327 . S
C1226 H1251 0.950 . S
C1227 C1226 1.349 . S
C1227 C1243 1.349 . S
C1228 C1226 1.327 . S
C1228 C1247 1.429 . S
C1228 H1252 0.950 . S
C1229 C1246 1.574 . S
C1229 C1248 1.368 . S
C1229 H1253 0.949 . S
H1230 C1234 0.949 . S
C1231 C1232 1.349 . S
C1231 C1233 1.327 . S
C1231 H1254 0.950 . S
C1232 C1231 1.349 . S
C1232 C1244 1.349 . S
C1233 C1231 1.327 . S
C1233 C1249 1.429 . S
C1233 H1255 0.950 . S
C1234 H1230 0.949 . S
C1234 C1242 1.574 . S
C1234 C1250 1.368 . S
H1235 C1243 0.950 . S
H1236 C1241 0.950 . S
H1237 C1242 0.949 . S
H1238 C1244 0.950 . S
H1239 C1245 0.950 . S
H1240 C1246 0.949 . S
C1241 H1236 0.950 . S
C1241 C1243 1.327 . S
C1241 C1247 1.429 . S
C1242 C1234 1.574 . S
C1242 H1237 0.949 . S
C1242 C1248 1.368 . S
C1243 C1227 1.349 . S
C1243 H1235 0.950 . S
C1243 C1241 1.327 . S
C1244 C1232 1.349 . S
C1244 H1238 0.950 . S
C1244 C1245 1.327 . S
C1245 H1239 0.950 . S
C1245 C1244 1.327 . S
C1245 C1249 1.429 . S
C1246 C1229 1.574 . S
C1246 H1240 0.949 . S
C1246 C1250 1.368 . S
C1247 C1228 1.429 . S
C1247 C1241 1.429 . S
C1247 C1248 1.523 . S
C1248 C1229 1.368 . S
C1248 C1242 1.368 . S
C1248 C1247 1.523 . S
C1249 C1233 1.429 . S
C1249 C1245 1.429 . S
C1249 C1250 1.523 . S
C1250 C1234 1.368 . S
C1250 C1246 1.368 . S
C1250 C1249 1.523 . S
H1251 C1226 0.950 . S
H1252 C1228 0.950 . S
H1253 C1229 0.949 . S
H1254 C1231 0.950 . S
H1255 C1233 0.950 . S
C1256 C1257 1.349 . S
C1256 C1258 1.327 . S
C1256 H1281 0.950 . S
C1257 C1256 1.349 . S
C1257 C1273 1.349 . S
C1258 C1256 1.327 . S
C1258 C1277 1.429 . S
C1258 H1282 0.950 . S
C1259 C1276 1.574 . S
C1259 C1278 1.368 . S
C1259 H1283 0.949 . S
H1260 C1264 0.949 . S
C1261 C1262 1.349 . S
C1261 C1263 1.327 . S
C1261 H1284 0.950 . S
C1262 C1261 1.349 . S
C1262 C1274 1.349 . S
C1263 C1261 1.327 . S
C1263 C1279 1.429 . S
C1263 H1285 0.950 . S
C1264 H1260 0.949 . S
C1264 C1272 1.574 . S
C1264 C1280 1.368 . S
H1265 C1273 0.950 . S
H1266 C1271 0.950 . S
H1267 C1272 0.949 . S
H1268 C1274 0.950 . S
H1269 C1275 0.950 . S
H1270 C1276 0.949 . S
C1271 H1266 0.950 . S
C1271 C1273 1.327 . S
C1271 C1277 1.429 . S
C1272 C1264 1.574 . S
C1272 H1267 0.949 . S
C1272 C1278 1.368 . S
C1273 C1257 1.349 . S
C1273 H1265 0.950 . S
C1273 C1271 1.327 . S
C1274 C1262 1.349 . S
C1274 H1268 0.950 . S
C1274 C1275 1.327 . S
C1275 H1269 0.950 . S
C1275 C1274 1.327 . S
C1275 C1279 1.429 . S
C1276 C1259 1.574 . S
C1276 H1270 0.949 . S
C1276 C1280 1.368 . S
C1277 C1258 1.429 . S
C1277 C1271 1.429 . S
C1277 C1278 1.523 . S
C1278 C1259 1.368 . S
C1278 C1272 1.368 . S
C1278 C1277 1.523 . S
C1279 C1263 1.429 . S
C1279 C1275 1.429 . S
C1279 C1280 1.523 . S
C1280 C1264 1.368 . S
C1280 C1276 1.368 . S
C1280 C1279 1.523 . S
H1281 C1256 0.950 . S
H1282 C1258 0.950 . S
H1283 C1259 0.949 . S
H1284 C1261 0.950 . S
H1285 C1263 0.950 . S
C1286 C1287 1.349 . S
C1286 C1288 1.327 . S
C1286 H1311 0.950 . S
C1287 C1286 1.349 . S
C1287 C1303 1.349 . S
C1288 C1286 1.327 . S
C1288 C1307 1.429 . S
C1288 H1312 0.950 . S
C1289 C1306 1.574 . S
C1289 C1308 1.368 . S
C1289 H1313 0.949 . S
H1290 C1294 0.949 . S
C1291 C1292 1.349 . S
C1291 C1293 1.327 . S
C1291 H1314 0.950 . S
C1292 C1291 1.349 . S
C1292 C1304 1.349 . S
C1293 C1291 1.327 . S
C1293 C1309 1.429 . S
C1293 H1315 0.950 . S
C1294 H1290 0.949 . S
C1294 C1302 1.574 . S
C1294 C1310 1.368 . S
H1295 C1303 0.950 . S
H1296 C1301 0.950 . S
H1297 C1302 0.949 . S
H1298 C1304 0.950 . S
H1299 C1305 0.950 . S
H1300 C1306 0.949 . S
C1301 H1296 0.950 . S
C1301 C1303 1.327 . S
C1301 C1307 1.429 . S
C1302 C1294 1.574 . S
C1302 H1297 0.949 . S
C1302 C1308 1.368 . S
C1303 C1287 1.349 . S
C1303 H1295 0.950 . S
C1303 C1301 1.327 . S
C1304 C1292 1.349 . S
C1304 H1298 0.950 . S
C1304 C1305 1.327 . S
C1305 H1299 0.950 . S
C1305 C1304 1.327 . S
C1305 C1309 1.429 . S
C1306 C1289 1.574 . S
C1306 H1300 0.949 . S
C1306 C1310 1.368 . S
C1307 C1288 1.429 . S
C1307 C1301 1.429 . S
C1307 C1308 1.523 . S
C1308 C1289 1.368 . S
C1308 C1302 1.368 . S
C1308 C1307 1.523 . S
C1309 C1293 1.429 . S
C1309 C1305 1.429 . S
C1309 C1310 1.523 . S
C1310 C1294 1.368 . S
C1310 C1306 1.368 . S
C1310 C1309 1.523 . S
H1311 C1286 0.950 . S
H1312 C1288 0.950 . S
H1313 C1289 0.949 . S
H1314 C1291 0.950 . S
H1315 C1293 0.950 . S
C1316 C1317 1.349 . S
C1316 C1318 1.327 . S
C1316 H1341 0.950 . S
C1317 C1316 1.349 . S
C1317 C1333 1.349 . S
C1318 C1316 1.327 . S
C1318 C1337 1.429 . S
C1318 H1342 0.950 . S
C1319 C1336 1.574 . S
C1319 C1338 1.368 . S
C1319 H1343 0.949 . S
H1320 C1324 0.949 . S
C1321 C1322 1.349 . S
C1321 C1323 1.327 . S
C1321 H1344 0.950 . S
C1322 C1321 1.349 . S
C1322 C1334 1.349 . S
C1323 C1321 1.327 . S
C1323 C1339 1.429 . S
C1323 H1345 0.950 . S
C1324 H1320 0.949 . S
C1324 C1332 1.574 . S
C1324 C1340 1.368 . S
H1325 C1333 0.950 . S
H1326 C1331 0.950 . S
H1327 C1332 0.949 . S
H1328 C1334 0.950 . S
H1329 C1335 0.950 . S
H1330 C1336 0.949 . S
C1331 H1326 0.950 . S
C1331 C1333 1.327 . S
C1331 C1337 1.429 . S
C1332 C1324 1.574 . S
C1332 H1327 0.949 . S
C1332 C1338 1.368 . S
C1333 C1317 1.349 . S
C1333 H1325 0.950 . S
C1333 C1331 1.327 . S
C1334 C1322 1.349 . S
C1334 H1328 0.950 . S
C1334 C1335 1.327 . S
C1335 H1329 0.950 . S
C1335 C1334 1.327 . S
C1335 C1339 1.429 . S
C1336 C1319 1.574 . S
C1336 H1330 0.949 . S
C1336 C1340 1.368 . S
C1337 C1318 1.429 . S
C1337 C1331 1.429 . S
C1337 C1338 1.523 . S
C1338 C1319 1.368 . S
C1338 C1332 1.368 . S
C1338 C1337 1.523 . S
C1339 C1323 1.429 . S
C1339 C1335 1.429 . S
C1339 C1340 1.523 . S
C1340 C1324 1.368 . S
C1340 C1336 1.368 . S
C1340 C1339 1.523 . S
H1341 C1316 0.950 . S
H1342 C1318 0.950 . S
H1343 C1319 0.949 . S
H1344 C1321 0.950 . S
H1345 C1323 0.950 . S
C1346 C1347 1.349 . S
C1346 C1348 1.327 . S
C1346 H1371 0.950 . S
C1347 C1346 1.349 . S
C1347 C1363 1.349 . S
C1348 C1346 1.327 . S
C1348 C1367 1.429 . S
C1348 H1372 0.950 . S
C1349 C1366 1.574 . S
C1349 C1368 1.368 . S
C1349 H1373 0.949 . S
H1350 C1354 0.949 . S
C1351 C1352 1.349 . S
C1351 C1353 1.327 . S
C1351 H1374 0.950 . S
C1352 C1351 1.349 . S
C1352 C1364 1.349 . S
C1353 C1351 1.327 . S
C1353 C1369 1.429 . S
C1353 H1375 0.950 . S
C1354 H1350 0.949 . S
C1354 C1362 1.574 . S
C1354 C1370 1.368 . S
H1355 C1363 0.950 . S
H1356 C1361 0.950 . S
H1357 C1362 0.949 . S
H1358 C1364 0.950 . S
H1359 C1365 0.950 . S
H1360 C1366 0.949 . S
C1361 H1356 0.950 . S
C1361 C1363 1.327 . S
C1361 C1367 1.429 . S
C1362 C1354 1.574 . S
C1362 H1357 0.949 . S
C1362 C1368 1.368 . S
C1363 C1347 1.349 . S
C1363 H1355 0.950 . S
C1363 C1361 1.327 . S
C1364 C1352 1.349 . S
C1364 H1358 0.950 . S
C1364 C1365 1.327 . S
C1365 H1359 0.950 . S
C1365 C1364 1.327 . S
C1365 C1369 1.429 . S
C1366 C1349 1.574 . S
C1366 H1360 0.949 . S
C1366 C1370 1.368 . S
C1367 C1348 1.429 . S
C1367 C1361 1.429 . S
C1367 C1368 1.523 . S
C1368 C1349 1.368 . S
C1368 C1362 1.368 . S
C1368 C1367 1.523 . S
C1369 C1353 1.429 . S
C1369 C1365 1.429 . S
C1369 C1370 1.523 . S
C1370 C1354 1.368 . S
C1370 C1366 1.368 . S
C1370 C1369 1.523 . S
H1371 C1346 0.950 . S
H1372 C1348 0.950 . S
H1373 C1349 0.949 . S
H1374 C1351 0.950 . S
H1375 C1353 0.950 . S
C1376 C1377 1.349 . S
C1376 C1378 1.327 . S
C1376 H1401 0.950 . S
C1377 C1376 1.349 . S
C1377 C1393 1.349 . S
C1378 C1376 1.327 . S
C1378 C1397 1.429 . S
C1378 H1402 0.950 . S
C1379 C1396 1.574 . S
C1379 C1398 1.368 . S
C1379 H1403 0.949 . S
H1380 C1384 0.949 . S
C1381 C1382 1.349 . S
C1381 C1383 1.327 . S
C1381 H1404 0.950 . S
C1382 C1381 1.349 . S
C1382 C1394 1.349 . S
C1383 C1381 1.327 . S
C1383 C1399 1.429 . S
C1383 H1405 0.950 . S
C1384 H1380 0.949 . S
C1384 C1392 1.574 . S
C1384 C1400 1.368 . S
H1385 C1393 0.950 . S
H1386 C1391 0.950 . S
H1387 C1392 0.949 . S
H1388 C1394 0.950 . S
H1389 C1395 0.950 . S
H1390 C1396 0.949 . S
C1391 H1386 0.950 . S
C1391 C1393 1.327 . S
C1391 C1397 1.429 . S
C1392 C1384 1.574 . S
C1392 H1387 0.949 . S
C1392 C1398 1.368 . S
C1393 C1377 1.349 . S
C1393 H1385 0.950 . S
C1393 C1391 1.327 . S
C1394 C1382 1.349 . S
C1394 H1388 0.950 . S
C1394 C1395 1.327 . S
C1395 H1389 0.950 . S
C1395 C1394 1.327 . S
C1395 C1399 1.429 . S
C1396 C1379 1.574 . S
C1396 H1390 0.949 . S
C1396 C1400 1.368 . S
C1397 C1378 1.429 . S
C1397 C1391 1.429 . S
C1397 C1398 1.523 . S
C1398 C1379 1.368 . S
C1398 C1392 1.368 . S
C1398 C1397 1.523 . S
C1399 C1383 1.429 . S
C1399 C1395 1.429 . S
C1399 C1400 1.523 . S
C1400 C1384 1.368 . S
C1400 C1396 1.368 . S
C1400 C1399 1.523 . S
H1401 C1376 0.950 . S
H1402 C1378 0.950 . S
H1403 C1379 0.949 . S
H1404 C1381 0.950 . S
H1405 C1383 0.950 . S
C1406 C1407 1.349 . S
C1406 C1408 1.327 . S
C1406 H1431 0.950 . S
C1407 C1406 1.349 . S
C1407 C1423 1.349 . S
C1408 C1406 1.327 . S
C1408 C1427 1.429 . S
C1408 H1432 0.950 . S
C1409 C1426 1.574 . S
C1409 C1428 1.368 . S
C1409 H1433 0.949 . S
H1410 C1414 0.949 . S
C1411 C1412 1.349 . S
C1411 C1413 1.327 . S
C1411 H1434 0.950 . S
C1412 C1411 1.349 . S
C1412 C1424 1.349 . S
C1413 C1411 1.327 . S
C1413 C1429 1.429 . S
C1413 H1435 0.950 . S
C1414 H1410 0.949 . S
C1414 C1422 1.574 . S
C1414 C1430 1.368 . S
H1415 C1423 0.950 . S
H1416 C1421 0.950 . S
H1417 C1422 0.949 . S
H1418 C1424 0.950 . S
H1419 C1425 0.950 . S
H1420 C1426 0.949 . S
C1421 H1416 0.950 . S
C1421 C1423 1.327 . S
C1421 C1427 1.429 . S
C1422 C1414 1.574 . S
C1422 H1417 0.949 . S
C1422 C1428 1.368 . S
C1423 C1407 1.349 . S
C1423 H1415 0.950 . S
C1423 C1421 1.327 . S
C1424 C1412 1.349 . S
C1424 H1418 0.950 . S
C1424 C1425 1.327 . S
C1425 H1419 0.950 . S
C1425 C1424 1.327 . S
C1425 C1429 1.429 . S
C1426 C1409 1.574 . S
C1426 H1420 0.949 . S
C1426 C1430 1.368 . S
C1427 C1408 1.429 . S
C1427 C1421 1.429 . S
C1427 C1428 1.523 . S
C1428 C1409 1.368 . S
C1428 C1422 1.368 . S
C1428 C1427 1.523 . S
C1429 C1413 1.429 . S
C1429 C1425 1.429 . S
C1429 C1430 1.523 . S
C1430 C1414 1.368 . S
C1430 C1426 1.368 . S
C1430 C1429 1.523 . S
H1431 C1406 0.950 . S
H1432 C1408 0.950 . S
H1433 C1409 0.949 . S
H1434 C1411 0.950 . S
H1435 C1413 0.950 . S
C1436 C1437 1.349 . S
C1436 C1438 1.327 . S
C1436 H1461 0.950 . S
C1437 C1436 1.349 . S
C1437 C1453 1.349 . S
C1438 C1436 1.327 . S
C1438 C1457 1.429 . S
C1438 H1462 0.950 . S
C1439 C1456 1.574 . S
C1439 C1458 1.368 . S
C1439 H1463 0.949 . S
H1440 C1444 0.949 . S
C1441 C1442 1.349 . S
C1441 C1443 1.327 . S
C1441 H1464 0.950 . S
C1442 C1441 1.349 . S
C1442 C1454 1.349 . S
C1443 C1441 1.327 . S
C1443 C1459 1.429 . S
C1443 H1465 0.950 . S
C1444 H1440 0.949 . S
C1444 C1452 1.574 . S
C1444 C1460 1.368 . S
H1445 C1453 0.950 . S
H1446 C1451 0.950 . S
H1447 C1452 0.949 . S
H1448 C1454 0.950 . S
H1449 C1455 0.950 . S
H1450 C1456 0.949 . S
C1451 H1446 0.950 . S
C1451 C1453 1.327 . S
C1451 C1457 1.429 . S
C1452 C1444 1.574 . S
C1452 H1447 0.949 . S
C1452 C1458 1.368 . S
C1453 C1437 1.349 . S
C1453 H1445 0.950 . S
C1453 C1451 1.327 . S
C1454 C1442 1.349 . S
C1454 H1448 0.950 . S
C1454 C1455 1.327 . S
C1455 H1449 0.950 . S
C1455 C1454 1.327 . S
C1455 C1459 1.429 . S
C1456 C1439 1.574 . S
C1456 H1450 0.949 . S
C1456 C1460 1.368 . S
C1457 C1438 1.429 . S
C1457 C1451 1.429 . S
C1457 C1458 1.523 . S
C1458 C1439 1.368 . S
C1458 C1452 1.368 . S
C1458 C1457 1.523 . S
C1459 C1443 1.429 . S
C1459 C1455 1.429 . S
C1459 C1460 1.523 . S
C1460 C1444 1.368 . S
C1460 C1456 1.368 . S
C1460 C1459 1.523 . S
H1461 C1436 0.950 . S
H1462 C1438 0.950 . S
H1463 C1439 0.949 . S
H1464 C1441 0.950 . S
H1465 C1443 0.950 . S
C1466 C1467 1.349 . S
C1466 C1468 1.327 . S
C1466 H1491 0.950 . S
C1467 C1466 1.349 . S
C1467 C1483 1.349 . S
C1468 C1466 1.327 . S
C1468 C1487 1.429 . S
C1468 H1492 0.950 . S
C1469 C1486 1.574 . S
C1469 C1488 1.368 . S
C1469 H1493 0.949 . S
H1470 C1474 0.949 . S
C1471 C1472 1.349 . S
C1471 C1473 1.327 . S
C1471 H1494 0.950 . S
C1472 C1471 1.349 . S
C1472 C1484 1.349 . S
C1473 C1471 1.327 . S
C1473 C1489 1.429 . S
C1473 H1495 0.950 . S
C1474 H1470 0.949 . S
C1474 C1482 1.574 . S
C1474 C1490 1.368 . S
H1475 C1483 0.950 . S
H1476 C1481 0.950 . S
H1477 C1482 0.949 . S
H1478 C1484 0.950 . S
H1479 C1485 0.950 . S
H1480 C1486 0.949 . S
C1481 H1476 0.950 . S
C1481 C1483 1.327 . S
C1481 C1487 1.429 . S
C1482 C1474 1.574 . S
C1482 H1477 0.949 . S
C1482 C1488 1.368 . S
C1483 C1467 1.349 . S
C1483 H1475 0.950 . S
C1483 C1481 1.327 . S
C1484 C1472 1.349 . S
C1484 H1478 0.950 . S
C1484 C1485 1.327 . S
C1485 H1479 0.950 . S
C1485 C1484 1.327 . S
C1485 C1489 1.429 . S
C1486 C1469 1.574 . S
C1486 H1480 0.949 . S
C1486 C1490 1.368 . S
C1487 C1468 1.429 . S
C1487 C1481 1.429 . S
C1487 C1488 1.523 . S
C1488 C1469 1.368 . S
C1488 C1482 1.368 . S
C1488 C1487 1.523 . S
C1489 C1473 1.429 . S
C1489 C1485 1.429 . S
C1489 C1490 1.523 . S
C1490 C1474 1.368 . S
C1490 C1486 1.368 . S
C1490 C1489 1.523 . S
H1491 C1466 0.950 . S
H1492 C1468 0.950 . S
H1493 C1469 0.949 . S
H1494 C1471 0.950 . S
H1495 C1473 0.950 . S
C1496 C1497 1.349 . S
C1496 C1498 1.327 . S
C1496 H1521 0.950 . S
C1497 C1496 1.349 . S
C1497 C1513 1.349 . S
C1498 C1496 1.327 . S
C1498 C1517 1.429 . S
C1498 H1522 0.950 . S
C1499 C1516 1.574 . S
C1499 C1518 1.368 . S
C1499 H1523 0.949 . S
H1500 C1504 0.949 . S
C1501 C1502 1.349 . S
C1501 C1503 1.327 . S
C1501 H1524 0.950 . S
C1502 C1501 1.349 . S
C1502 C1514 1.349 . S
C1503 C1501 1.327 . S
C1503 C1519 1.429 . S
C1503 H1525 0.950 . S
C1504 H1500 0.949 . S
C1504 C1512 1.574 . S
C1504 C1520 1.368 . S
H1505 C1513 0.950 . S
H1506 C1511 0.950 . S
H1507 C1512 0.949 . S
H1508 C1514 0.950 . S
H1509 C1515 0.950 . S
H1510 C1516 0.949 . S
C1511 H1506 0.950 . S
C1511 C1513 1.327 . S
C1511 C1517 1.429 . S
C1512 C1504 1.574 . S
C1512 H1507 0.949 . S
C1512 C1518 1.368 . S
C1513 C1497 1.349 . S
C1513 H1505 0.950 . S
C1513 C1511 1.327 . S
C1514 C1502 1.349 . S
C1514 H1508 0.950 . S
C1514 C1515 1.327 . S
C1515 H1509 0.950 . S
C1515 C1514 1.327 . S
C1515 C1519 1.429 . S
C1516 C1499 1.574 . S
C1516 H1510 0.949 . S
C1516 C1520 1.368 . S
C1517 C1498 1.429 . S
C1517 C1511 1.429 . S
C1517 C1518 1.523 . S
C1518 C1499 1.368 . S
C1518 C1512 1.368 . S
C1518 C1517 1.523 . S
C1519 C1503 1.429 . S
C1519 C1515 1.429 . S
C1519 C1520 1.523 . S
C1520 C1504 1.368 . S
C1520 C1516 1.368 . S
C1520 C1519 1.523 . S
H1521 C1496 0.950 . S
H1522 C1498 0.950 . S
H1523 C1499 0.949 . S
H1524 C1501 0.950 . S
H1525 C1503 0.950 . S
C1526 C1527 1.349 . S
C1526 C1528 1.327 . S
C1526 H1551 0.950 . S
C1527 C1526 1.349 . S
C1527 C1543 1.349 . S
C1528 C1526 1.327 . S
C1528 C1547 1.429 . S
C1528 H1552 0.950 . S
C1529 C1546 1.574 . S
C1529 C1548 1.368 . S
C1529 H1553 0.949 . S
H1530 C1534 0.949 . S
C1531 C1532 1.349 . S
C1531 C1533 1.327 . S
C1531 H1554 0.950 . S
C1532 C1531 1.349 . S
C1532 C1544 1.349 . S
C1533 C1531 1.327 . S
C1533 C1549 1.429 . S
C1533 H1555 0.950 . S
C1534 H1530 0.949 . S
C1534 C1542 1.574 . S
C1534 C1550 1.368 . S
H1535 C1543 0.950 . S
H1536 C1541 0.950 . S
H1537 C1542 0.949 . S
H1538 C1544 0.950 . S
H1539 C1545 0.950 . S
H1540 C1546 0.949 . S
C1541 H1536 0.950 . S
C1541 C1543 1.327 . S
C1541 C1547 1.429 . S
C1542 C1534 1.574 . S
C1542 H1537 0.949 . S
C1542 C1548 1.368 . S
C1543 C1527 1.349 . S
C1543 H1535 0.950 . S
C1543 C1541 1.327 . S
C1544 C1532 1.349 . S
C1544 H1538 0.950 . S
C1544 C1545 1.327 . S
C1545 H1539 0.950 . S
C1545 C1544 1.327 . S
C1545 C1549 1.429 . S
C1546 C1529 1.574 . S
C1546 H1540 0.949 . S
C1546 C1550 1.368 . S
C1547 C1528 1.429 . S
C1547 C1541 1.429 . S
C1547 C1548 1.523 . S
C1548 C1529 1.368 . S
C1548 C1542 1.368 . S
C1548 C1547 1.523 . S
C1549 C1533 1.429 . S
C1549 C1545 1.429 . S
C1549 C1550 1.523 . S
C1550 C1534 1.368 . S
C1550 C1546 1.368 . S
C1550 C1549 1.523 . S
H1551 C1526 0.950 . S
H1552 C1528 0.950 . S
H1553 C1529 0.949 . S
H1554 C1531 0.950 . S
H1555 C1533 0.950 . S
C1556 C1557 1.349 . S
C1556 C1558 1.327 . S
C1556 H1581 0.950 . S
C1557 C1556 1.349 . S
C1557 C1573 1.349 . S
C1558 C1556 1.327 . S
C1558 C1577 1.429 . S
C1558 H1582 0.950 . S
C1559 C1576 1.574 . S
C1559 C1578 1.368 . S
C1559 H1583 0.949 . S
H1560 C1564 0.949 . S
C1561 C1562 1.349 . S
C1561 C1563 1.327 . S
C1561 H1584 0.950 . S
C1562 C1561 1.349 . S
C1562 C1574 1.349 . S
C1563 C1561 1.327 . S
C1563 C1579 1.429 . S
C1563 H1585 0.950 . S
C1564 H1560 0.949 . S
C1564 C1572 1.574 . S
C1564 C1580 1.368 . S
H1565 C1573 0.950 . S
H1566 C1571 0.950 . S
H1567 C1572 0.949 . S
H1568 C1574 0.950 . S
H1569 C1575 0.950 . S
H1570 C1576 0.949 . S
C1571 H1566 0.950 . S
C1571 C1573 1.327 . S
C1571 C1577 1.429 . S
C1572 C1564 1.574 . S
C1572 H1567 0.949 . S
C1572 C1578 1.368 . S
C1573 C1557 1.349 . S
C1573 H1565 0.950 . S
C1573 C1571 1.327 . S
C1574 C1562 1.349 . S
C1574 H1568 0.950 . S
C1574 C1575 1.327 . S
C1575 H1569 0.950 . S
C1575 C1574 1.327 . S
C1575 C1579 1.429 . S
C1576 C1559 1.574 . S
C1576 H1570 0.949 . S
C1576 C1580 1.368 . S
C1577 C1558 1.429 . S
C1577 C1571 1.429 . S
C1577 C1578 1.523 . S
C1578 C1559 1.368 . S
C1578 C1572 1.368 . S
C1578 C1577 1.523 . S
C1579 C1563 1.429 . S
C1579 C1575 1.429 . S
C1579 C1580 1.523 . S
C1580 C1564 1.368 . S
C1580 C1576 1.368 . S
C1580 C1579 1.523 . S
H1581 C1556 0.950 . S
H1582 C1558 0.950 . S
H1583 C1559 0.949 . S
H1584 C1561 0.950 . S
H1585 C1563 0.950 . S
C1586 C1587 1.349 . S
C1586 C1588 1.327 . S
C1586 H1611 0.950 . S
C1587 C1586 1.349 . S
C1587 C1603 1.349 . S
C1588 C1586 1.327 . S
C1588 C1607 1.429 . S
C1588 H1612 0.950 . S
C1589 C1606 1.574 . S
C1589 C1608 1.368 . S
C1589 H1613 0.949 . S
H1590 C1594 0.949 . S
C1591 C1592 1.349 . S
C1591 C1593 1.327 . S
C1591 H1614 0.950 . S
C1592 C1591 1.349 . S
C1592 C1604 1.349 . S
C1593 C1591 1.327 . S
C1593 C1609 1.429 . S
C1593 H1615 0.950 . S
C1594 H1590 0.949 . S
C1594 C1602 1.574 . S
C1594 C1610 1.368 . S
H1595 C1603 0.950 . S
H1596 C1601 0.950 . S
H1597 C1602 0.949 . S
H1598 C1604 0.950 . S
H1599 C1605 0.950 . S
H1600 C1606 0.949 . S
C1601 H1596 0.950 . S
C1601 C1603 1.327 . S
C1601 C1607 1.429 . S
C1602 C1594 1.574 . S
C1602 H1597 0.949 . S
C1602 C1608 1.368 . S
C1603 C1587 1.349 . S
C1603 H1595 0.950 . S
C1603 C1601 1.327 . S
C1604 C1592 1.349 . S
C1604 H1598 0.950 . S
C1604 C1605 1.327 . S
C1605 H1599 0.950 . S
C1605 C1604 1.327 . S
C1605 C1609 1.429 . S
C1606 C1589 1.574 . S
C1606 H1600 0.949 . S
C1606 C1610 1.368 . S
C1607 C1588 1.429 . S
C1607 C1601 1.429 . S
C1607 C1608 1.523 . S
C1608 C1589 1.368 . S
C1608 C1602 1.368 . S
C1608 C1607 1.523 . S
C1609 C1593 1.429 . S
C1609 C1605 1.429 . S
C1609 C1610 1.523 . S
C1610 C1594 1.368 . S
C1610 C1606 1.368 . S
C1610 C1609 1.523 . S
H1611 C1586 0.950 . S
H1612 C1588 0.950 . S
H1613 C1589 0.949 . S
H1614 C1591 0.950 . S
H1615 C1593 0.950 . S
C1616 C1617 1.349 . S
C1616 C1618 1.327 . S
C1616 H1641 0.950 . S
C1617 C1616 1.349 . S
C1617 C1633 1.349 . S
C1618 C1616 1.327 . S
C1618 C1637 1.429 . S
C1618 H1642 0.950 . S
C1619 C1636 1.574 1_554 S
C1619 C1638 1.368 . S
C1619 H1643 0.949 . S
H1620 C1624 0.949 . S
C1621 C1622 1.349 . S
C1621 C1623 1.327 . S
C1621 H1644 0.950 . S
C1622 C1621 1.349 . S
C1622 C1634 1.349 . S
C1623 C1621 1.327 . S
C1623 C1639 1.429 . S
C1623 H1645 0.950 . S
C1624 H1620 0.949 . S
C1624 C1632 1.574 1_556 S
C1624 C1640 1.368 . S
H1625 C1633 0.950 . S
H1626 C1631 0.950 . S
H1627 C1632 0.949 . S
H1628 C1634 0.950 . S
H1629 C1635 0.950 . S
H1630 C1636 0.949 . S
C1631 H1626 0.950 . S
C1631 C1633 1.327 . S
C1631 C1637 1.429 . S
C1632 C1624 1.574 1_554 S
C1632 H1627 0.949 . S
C1632 C1638 1.368 . S
C1633 C1617 1.349 . S
C1633 H1625 0.950 . S
C1633 C1631 1.327 . S
C1634 C1622 1.349 . S
C1634 H1628 0.950 . S
C1634 C1635 1.327 . S
C1635 H1629 0.950 . S
C1635 C1634 1.327 . S
C1635 C1639 1.429 . S
C1636 C1619 1.574 1_556 S
C1636 H1630 0.949 . S
C1636 C1640 1.368 . S
C1637 C1618 1.429 . S
C1637 C1631 1.429 . S
C1637 C1638 1.523 . S
C1638 C1619 1.368 . S
C1638 C1632 1.368 . S
C1638 C1637 1.523 . S
C1639 C1623 1.429 . S
C1639 C1635 1.429 . S
C1639 C1640 1.523 . S
C1640 C1624 1.368 . S
C1640 C1636 1.368 . S
C1640 C1639 1.523 . S
H1641 C1616 0.950 . S
H1642 C1618 0.950 . S
H1643 C1619 0.949 . S
H1644 C1621 0.950 . S
H1645 C1623 0.950 . S
C1646 C1647 1.349 . S
C1646 C1648 1.327 . S
C1646 H1671 0.950 . S
C1647 C1646 1.349 . S
C1647 C1663 1.349 . S
C1648 C1646 1.327 . S
C1648 C1667 1.429 . S
C1648 H1672 0.950 . S
C1649 C1666 1.572 1_556 S
C1649 C1668 1.369 . S
C1649 H1673 0.950 . S
H1650 C1654 0.949 . S
C1651 C1652 1.349 . S
C1651 C1653 1.327 . S
C1651 H1674 0.950 . S
C1652 C1651 1.349 . S
C1652 C1664 1.349 . S
C1653 C1651 1.327 . S
C1653 C1669 1.429 . S
C1653 H1675 0.950 . S
C1654 H1650 0.949 . S
C1654 C1662 1.574 1_554 S
C1654 C1670 1.368 . S
H1655 C1663 0.950 . S
H1656 C1661 0.950 . S
H1657 C1662 0.949 . S
H1658 C1664 0.950 . S
H1659 C1665 0.950 . S
H1660 C1666 0.949 . S
C1661 H1656 0.950 . S
C1661 C1663 1.327 . S
C1661 C1667 1.429 . S
C1662 C1654 1.574 1_556 S
C1662 H1657 0.949 . S
C1662 C1668 1.368 . S
C1663 C1647 1.349 . S
C1663 H1655 0.950 . S
C1663 C1661 1.327 . S
C1664 C1652 1.349 . S
C1664 H1658 0.950 . S
C1664 C1665 1.327 . S
C1665 H1659 0.950 . S
C1665 C1664 1.327 . S
C1665 C1669 1.429 . S
C1666 C1649 1.572 1_554 S
C1666 H1660 0.949 . S
C1666 C1670 1.368 . S
C1667 C1648 1.429 . S
C1667 C1661 1.429 . S
C1667 C1668 1.523 . S
C1668 C1649 1.369 . S
C1668 C1662 1.368 . S
C1668 C1667 1.523 . S
C1669 C1653 1.429 . S
C1669 C1665 1.429 . S
C1669 C1670 1.523 . S
C1670 C1654 1.368 . S
C1670 C1666 1.368 . S
C1670 C1669 1.523 . S
H1671 C1646 0.950 . S
H1672 C1648 0.950 . S
H1673 C1649 0.950 . S
H1674 C1651 0.950 . S
H1675 C1653 0.950 . S
C1676 C1677 1.349 . S
C1676 C1678 1.327 . S
C1676 H1701 0.950 . S
C1677 C1676 1.349 . S
C1677 C1693 1.349 . S
C1678 C1676 1.327 . S
C1678 C1697 1.429 . S
C1678 H1702 0.950 . S
C1679 C1696 1.574 1_554 S
C1679 C1698 1.368 . S
C1679 H1703 0.949 . S
H1680 C1684 0.949 . S
C1681 C1682 1.349 . S
C1681 C1683 1.327 . S
C1681 H1704 0.950 . S
C1682 C1681 1.349 . S
C1682 C1694 1.349 . S
C1683 C1681 1.327 . S
C1683 C1699 1.429 . S
C1683 H1705 0.950 . S
C1684 H1680 0.949 . S
C1684 C1692 1.574 1_556 S
C1684 C1700 1.368 . S
H1685 C1693 0.950 . S
H1686 C1691 0.950 . S
H1687 C1692 0.949 . S
H1688 C1694 0.950 . S
H1689 C1695 0.950 . S
H1690 C1696 0.949 . S
C1691 H1686 0.950 . S
C1691 C1693 1.327 . S
C1691 C1697 1.429 . S
C1692 C1684 1.574 1_554 S
C1692 H1687 0.949 . S
C1692 C1698 1.368 . S
C1693 C1677 1.349 . S
C1693 H1685 0.950 . S
C1693 C1691 1.327 . S
C1694 C1682 1.349 . S
C1694 H1688 0.950 . S
C1694 C1695 1.327 . S
C1695 H1689 0.950 . S
C1695 C1694 1.327 . S
C1695 C1699 1.429 . S
C1696 C1679 1.574 1_556 S
C1696 H1690 0.949 . S
C1696 C1700 1.368 . S
C1697 C1678 1.429 . S
C1697 C1691 1.429 . S
C1697 C1698 1.523 . S
C1698 C1679 1.368 . S
C1698 C1692 1.368 . S
C1698 C1697 1.523 . S
C1699 C1683 1.429 . S
C1699 C1695 1.429 . S
C1699 C1700 1.523 . S
C1700 C1684 1.368 . S
C1700 C1696 1.368 . S
C1700 C1699 1.523 . S
H1701 C1676 0.950 . S
H1702 C1678 0.950 . S
H1703 C1679 0.949 . S
H1704 C1681 0.950 . S
H1705 C1683 0.950 . S
C1706 C1707 1.349 . S
C1706 C1708 1.327 . S
C1706 H1731 0.950 . S
C1707 C1706 1.349 . S
C1707 C1723 1.349 . S
C1708 C1706 1.327 . S
C1708 C1727 1.429 . S
C1708 H1732 0.950 . S
C1709 C1726 1.574 1_554 S
C1709 C1728 1.368 . S
C1709 H1733 0.949 . S
H1710 C1714 0.949 . S
C1711 C1712 1.349 . S
C1711 C1713 1.327 . S
C1711 H1734 0.950 . S
C1712 C1711 1.349 . S
C1712 C1724 1.349 . S
C1713 C1711 1.327 . S
C1713 C1729 1.429 . S
C1713 H1735 0.950 . S
C1714 H1710 0.949 . S
C1714 C1722 1.574 1_556 S
C1714 C1730 1.368 . S
H1715 C1723 0.950 . S
H1716 C1721 0.950 . S
H1717 C1722 0.949 . S
H1718 C1724 0.950 . S
H1719 C1725 0.950 . S
H1720 C1726 0.949 . S
C1721 H1716 0.950 . S
C1721 C1723 1.327 . S
C1721 C1727 1.429 . S
C1722 C1714 1.574 1_554 S
C1722 H1717 0.949 . S
C1722 C1728 1.368 . S
C1723 C1707 1.349 . S
C1723 H1715 0.950 . S
C1723 C1721 1.327 . S
C1724 C1712 1.349 . S
C1724 H1718 0.950 . S
C1724 C1725 1.327 . S
C1725 H1719 0.950 . S
C1725 C1724 1.327 . S
C1725 C1729 1.429 . S
C1726 C1709 1.574 1_556 S
C1726 H1720 0.949 . S
C1726 C1730 1.368 . S
C1727 C1708 1.429 . S
C1727 C1721 1.429 . S
C1727 C1728 1.523 . S
C1728 C1709 1.368 . S
C1728 C1722 1.368 . S
C1728 C1727 1.523 . S
C1729 C1713 1.429 . S
C1729 C1725 1.429 . S
C1729 C1730 1.523 . S
C1730 C1714 1.368 . S
C1730 C1726 1.368 . S
C1730 C1729 1.523 . S
H1731 C1706 0.950 . S
H1732 C1708 0.950 . S
H1733 C1709 0.949 . S
H1734 C1711 0.950 . S
H1735 C1713 0.950 . S
C1736 C1737 1.349 . S
C1736 C1738 1.327 . S
C1736 H1761 0.950 . S
C1737 C1736 1.349 . S
C1737 C1753 1.349 . S
C1738 C1736 1.327 . S
C1738 C1757 1.429 . S
C1738 H1762 0.950 . S
C1739 C1756 1.574 1_554 S
C1739 C1758 1.368 . S
C1739 H1763 0.949 . S
H1740 C1744 0.949 . S
C1741 C1742 1.349 . S
C1741 C1743 1.327 . S
C1741 H1764 0.950 . S
C1742 C1741 1.349 . S
C1742 C1754 1.349 . S
C1743 C1741 1.327 . S
C1743 C1759 1.429 . S
C1743 H1765 0.950 . S
C1744 H1740 0.949 . S
C1744 C1752 1.574 1_556 S
C1744 C1760 1.368 . S
H1745 C1753 0.950 . S
H1746 C1751 0.950 . S
H1747 C1752 0.949 . S
H1748 C1754 0.950 . S
H1749 C1755 0.950 . S
H1750 C1756 0.949 . S
C1751 H1746 0.950 . S
C1751 C1753 1.327 . S
C1751 C1757 1.429 . S
C1752 C1744 1.574 1_554 S
C1752 H1747 0.949 . S
C1752 C1758 1.368 . S
C1753 C1737 1.349 . S
C1753 H1745 0.950 . S
C1753 C1751 1.327 . S
C1754 C1742 1.349 . S
C1754 H1748 0.950 . S
C1754 C1755 1.327 . S
C1755 H1749 0.950 . S
C1755 C1754 1.327 . S
C1755 C1759 1.429 . S
C1756 C1739 1.574 1_556 S
C1756 H1750 0.949 . S
C1756 C1760 1.368 . S
C1757 C1738 1.429 . S
C1757 C1751 1.429 . S
C1757 C1758 1.523 . S
C1758 C1739 1.368 . S
C1758 C1752 1.368 . S
C1758 C1757 1.523 . S
C1759 C1743 1.429 . S
C1759 C1755 1.429 . S
C1759 C1760 1.523 . S
C1760 C1744 1.368 . S
C1760 C1756 1.368 . S
C1760 C1759 1.523 . S
H1761 C1736 0.950 . S
H1762 C1738 0.950 . S
H1763 C1739 0.949 . S
H1764 C1741 0.950 . S
H1765 C1743 0.950 . S
C1766 C1767 1.349 . S
C1766 C1768 1.327 . S
C1766 H1791 0.950 . S
C1767 C1766 1.349 . S
C1767 C1783 1.349 . S
C1768 C1766 1.327 . S
C1768 C1787 1.429 . S
C1768 H1792 0.950 . S
C1769 C1786 1.546 1_554 S
C1769 C1788 1.380 . S
C1769 H1793 0.964 . S
H1770 C1774 0.949 . S
C1771 C1772 1.349 . S
C1771 C1773 1.327 . S
C1771 H1794 0.950 . S
C1772 C1771 1.349 . S
C1772 C1784 1.349 . S
C1773 C1771 1.327 . S
C1773 C1789 1.429 . S
C1773 H1795 0.950 . S
C1774 H1770 0.949 . S
C1774 C1782 1.574 1_556 S
C1774 C1790 1.368 . S
H1775 C1783 0.950 . S
H1776 C1781 0.950 . S
H1777 C1782 0.949 . S
H1778 C1784 0.950 . S
H1779 C1785 0.950 . S
H1780 C1786 0.949 . S
C1781 H1776 0.950 . S
C1781 C1783 1.327 . S
C1781 C1787 1.429 . S
C1782 C1774 1.574 1_554 S
C1782 H1777 0.949 . S
C1782 C1788 1.368 . S
C1783 C1767 1.349 . S
C1783 H1775 0.950 . S
C1783 C1781 1.327 . S
C1784 C1772 1.349 . S
C1784 H1778 0.950 . S
C1784 C1785 1.327 . S
C1785 H1779 0.950 . S
C1785 C1784 1.327 . S
C1785 C1789 1.429 . S
C1786 C1769 1.546 1_556 S
C1786 H1780 0.949 . S
C1786 C1790 1.368 . S
C1787 C1768 1.429 . S
C1787 C1781 1.429 . S
C1787 C1788 1.523 . S
C1788 C1769 1.380 . S
C1788 C1782 1.368 . S
C1788 C1787 1.523 . S
C1789 C1773 1.429 . S
C1789 C1785 1.429 . S
C1789 C1790 1.523 . S
C1790 C1774 1.368 . S
C1790 C1786 1.368 . S
C1790 C1789 1.523 . S
H1791 C1766 0.950 . S
H1792 C1768 0.950 . S
H1793 C1769 0.964 . S
H1794 C1771 0.950 . S
H1795 C1773 0.950 . S
C1796 C1797 1.349 . S
C1796 C1798 1.327 . S
C1796 H1821 0.950 . S
C1797 C1796 1.349 . S
C1797 C1813 1.349 . S
C1798 C1796 1.327 . S
C1798 C1817 1.429 . S
C1798 H1822 0.950 . S
C1799 C1816 1.574 1_556 S
C1799 C1818 1.368 . S
C1799 H1823 0.949 . S
H1800 C1804 0.949 . S
C1801 C1802 1.349 . S
C1801 C1803 1.327 . S
C1801 H1824 0.950 . S
C1802 C1801 1.349 . S
C1802 C1814 1.349 . S
C1803 C1801 1.327 . S
C1803 C1819 1.429 . S
C1803 H1825 0.950 . S
C1804 H1800 0.949 . S
C1804 C1812 1.574 1_554 S
C1804 C1820 1.368 . S
H1805 C1813 0.950 . S
H1806 C1811 0.950 . S
H1807 C1812 0.949 . S
H1808 C1814 0.950 . S
H1809 C1815 0.950 . S
H1810 C1816 0.949 . S
C1811 H1806 0.950 . S
C1811 C1813 1.327 . S
C1811 C1817 1.429 . S
C1812 C1804 1.574 1_556 S
C1812 H1807 0.949 . S
C1812 C1818 1.368 . S
C1813 C1797 1.349 . S
C1813 H1805 0.950 . S
C1813 C1811 1.327 . S
C1814 C1802 1.349 . S
C1814 H1808 0.950 . S
C1814 C1815 1.327 . S
C1815 H1809 0.950 . S
C1815 C1814 1.327 . S
C1815 C1819 1.429 . S
C1816 C1799 1.574 1_554 S
C1816 H1810 0.949 . S
C1816 C1820 1.368 . S
C1817 C1798 1.429 . S
C1817 C1811 1.429 . S
C1817 C1818 1.523 . S
C1818 C1799 1.368 . S
C1818 C1812 1.368 . S
C1818 C1817 1.523 . S
C1819 C1803 1.429 . S
C1819 C1815 1.429 . S
C1819 C1820 1.523 . S
C1820 C1804 1.368 . S
C1820 C1816 1.368 . S
C1820 C1819 1.523 . S
H1821 C1796 0.950 . S
H1822 C1798 0.950 . S
H1823 C1799 0.949 . S
H1824 C1801 0.950 . S
H1825 C1803 0.950 . S
C1826 C1827 1.349 . S
C1826 C1828 1.327 . S
C1826 H1851 0.950 . S
C1827 C1826 1.349 . S
C1827 C1843 1.349 . S
C1828 C1826 1.327 . S
C1828 C1847 1.429 . S
C1828 H1852 0.950 . S
C1829 C1846 1.574 1_556 S
C1829 C1848 1.368 . S
C1829 H1853 0.949 . S
H1830 C1834 0.949 . S
C1831 C1832 1.349 . S
C1831 C1833 1.327 . S
C1831 H1854 0.950 . S
C1832 C1831 1.349 . S
C1832 C1844 1.349 . S
C1833 C1831 1.327 . S
C1833 C1849 1.429 . S
C1833 H1855 0.950 . S
C1834 H1830 0.949 . S
C1834 C1842 1.574 1_554 S
C1834 C1850 1.368 . S
H1835 C1843 0.950 . S
H1836 C1841 0.950 . S
H1837 C1842 0.949 . S
H1838 C1844 0.950 . S
H1839 C1845 0.950 . S
H1840 C1846 0.949 . S
C1841 H1836 0.950 . S
C1841 C1843 1.327 . S
C1841 C1847 1.429 . S
C1842 C1834 1.574 1_556 S
C1842 H1837 0.949 . S
C1842 C1848 1.368 . S
C1843 C1827 1.349 . S
C1843 H1835 0.950 . S
C1843 C1841 1.327 . S
C1844 C1832 1.349 . S
C1844 H1838 0.950 . S
C1844 C1845 1.327 . S
C1845 H1839 0.950 . S
C1845 C1844 1.327 . S
C1845 C1849 1.429 . S
C1846 C1829 1.574 1_554 S
C1846 H1840 0.949 . S
C1846 C1850 1.368 . S
C1847 C1828 1.429 . S
C1847 C1841 1.429 . S
C1847 C1848 1.523 . S
C1848 C1829 1.368 . S
C1848 C1842 1.368 . S
C1848 C1847 1.523 . S
C1849 C1833 1.429 . S
C1849 C1845 1.429 . S
C1849 C1850 1.523 . S
C1850 C1834 1.368 . S
C1850 C1846 1.368 . S
C1850 C1849 1.523 . S
H1851 C1826 0.950 . S
H1852 C1828 0.950 . S
H1853 C1829 0.949 . S
H1854 C1831 0.950 . S
H1855 C1833 0.950 . S
C1856 C1857 1.349 . S
C1856 C1858 1.327 . S
C1856 H1881 0.950 . S
C1857 C1856 1.349 . S
C1857 C1873 1.349 . S
C1858 C1856 1.327 . S
C1858 C1877 1.429 . S
C1858 H1882 0.950 . S
C1859 C1876 1.574 . S
C1859 C1878 1.368 . S
C1859 H1883 0.949 . S
H1860 C1864 0.949 . S
C1861 C1862 1.349 . S
C1861 C1863 1.327 . S
C1861 H1884 0.950 . S
C1862 C1861 1.349 . S
C1862 C1874 1.349 . S
C1863 C1861 1.327 . S
C1863 C1879 1.429 . S
C1863 H1885 0.950 . S
C1864 H1860 0.949 . S
C1864 C1872 1.574 . S
C1864 C1880 1.368 . S
H1865 C1873 0.950 . S
H1866 C1871 0.950 . S
H1867 C1872 0.949 . S
H1868 C1874 0.950 . S
H1869 C1875 0.950 . S
H1870 C1876 0.949 . S
C1871 H1866 0.950 . S
C1871 C1873 1.327 . S
C1871 C1877 1.429 . S
C1872 C1864 1.574 . S
C1872 H1867 0.949 . S
C1872 C1878 1.368 . S
C1873 C1857 1.349 . S
C1873 H1865 0.950 . S
C1873 C1871 1.327 . S
C1874 C1862 1.349 . S
C1874 H1868 0.950 . S
C1874 C1875 1.327 . S
C1875 H1869 0.950 . S
C1875 C1874 1.327 . S
C1875 C1879 1.429 . S
C1876 C1859 1.574 . S
C1876 H1870 0.949 . S
C1876 C1880 1.368 . S
C1877 C1858 1.429 . S
C1877 C1871 1.429 . S
C1877 C1878 1.523 . S
C1878 C1859 1.368 . S
C1878 C1872 1.368 . S
C1878 C1877 1.523 . S
C1879 C1863 1.429 . S
C1879 C1875 1.429 . S
C1879 C1880 1.523 . S
C1880 C1864 1.368 . S
C1880 C1876 1.368 . S
C1880 C1879 1.523 . S
H1881 C1856 0.950 . S
H1882 C1858 0.950 . S
H1883 C1859 0.949 . S
H1884 C1861 0.950 . S
H1885 C1863 0.950 . S
C1886 C1887 1.349 . S
C1886 C1888 1.327 . S
C1886 H1911 0.950 . S
C1887 C1886 1.349 . S
C1887 C1903 1.349 . S
C1888 C1886 1.327 . S
C1888 C1907 1.429 . S
C1888 H1912 0.950 . S
C1889 C1906 1.574 . S
C1889 C1908 1.368 . S
C1889 H1913 0.949 . S
H1890 C1894 0.949 . S
C1891 C1892 1.349 . S
C1891 C1893 1.327 . S
C1891 H1914 0.950 . S
C1892 C1891 1.349 . S
C1892 C1904 1.349 . S
C1893 C1891 1.327 . S
C1893 C1909 1.429 . S
C1893 H1915 0.950 . S
C1894 H1890 0.949 . S
C1894 C1902 1.574 . S
C1894 C1910 1.368 . S
H1895 C1903 0.950 . S
H1896 C1901 0.950 . S
H1897 C1902 0.949 . S
H1898 C1904 0.950 . S
H1899 C1905 0.950 . S
H1900 C1906 0.949 . S
C1901 H1896 0.950 . S
C1901 C1903 1.327 . S
C1901 C1907 1.429 . S
C1902 C1894 1.574 . S
C1902 H1897 0.949 . S
C1902 C1908 1.368 . S
C1903 C1887 1.349 . S
C1903 H1895 0.950 . S
C1903 C1901 1.327 . S
C1904 C1892 1.349 . S
C1904 H1898 0.950 . S
C1904 C1905 1.327 . S
C1905 H1899 0.950 . S
C1905 C1904 1.327 . S
C1905 C1909 1.429 . S
C1906 C1889 1.574 . S
C1906 H1900 0.949 . S
C1906 C1910 1.368 . S
C1907 C1888 1.429 . S
C1907 C1901 1.429 . S
C1907 C1908 1.523 . S
C1908 C1889 1.368 . S
C1908 C1902 1.368 . S
C1908 C1907 1.523 . S
C1909 C1893 1.429 . S
C1909 C1905 1.429 . S
C1909 C1910 1.523 . S
C1910 C1894 1.368 . S
C1910 C1906 1.368 . S
C1910 C1909 1.523 . S
H1911 C1886 0.950 . S
H1912 C1888 0.950 . S
H1913 C1889 0.949 . S
H1914 C1891 0.950 . S
H1915 C1893 0.950 . S
C1916 C1917 1.349 . S
C1916 C1918 1.327 . S
C1916 H1941 0.950 . S
C1917 C1916 1.349 . S
C1917 C1933 1.349 . S
C1918 C1916 1.327 . S
C1918 C1937 1.429 . S
C1918 H1942 0.950 . S
C1919 C1936 1.574 . S
C1919 C1938 1.368 . S
C1919 H1943 0.949 . S
H1920 C1924 0.949 . S
C1921 C1922 1.349 . S
C1921 C1923 1.327 . S
C1921 H1944 0.950 . S
C1922 C1921 1.349 . S
C1922 C1934 1.349 . S
C1923 C1921 1.327 . S
C1923 C1939 1.429 . S
C1923 H1945 0.950 . S
C1924 H1920 0.949 . S
C1924 C1932 1.574 . S
C1924 C1940 1.368 . S
H1925 C1933 0.950 . S
H1926 C1931 0.950 . S
H1927 C1932 0.949 . S
H1928 C1934 0.950 . S
H1929 C1935 0.950 . S
H1930 C1936 0.949 . S
C1931 H1926 0.950 . S
C1931 C1933 1.327 . S
C1931 C1937 1.429 . S
C1932 C1924 1.574 . S
C1932 H1927 0.949 . S
C1932 C1938 1.368 . S
C1933 C1917 1.349 . S
C1933 H1925 0.950 . S
C1933 C1931 1.327 . S
C1934 C1922 1.349 . S
C1934 H1928 0.950 . S
C1934 C1935 1.327 . S
C1935 H1929 0.950 . S
C1935 C1934 1.327 . S
C1935 C1939 1.429 . S
C1936 C1919 1.574 . S
C1936 H1930 0.949 . S
C1936 C1940 1.368 . S
C1937 C1918 1.429 . S
C1937 C1931 1.429 . S
C1937 C1938 1.523 . S
C1938 C1919 1.368 . S
C1938 C1932 1.368 . S
C1938 C1937 1.523 . S
C1939 C1923 1.429 . S
C1939 C1935 1.429 . S
C1939 C1940 1.523 . S
C1940 C1924 1.368 . S
C1940 C1936 1.368 . S
C1940 C1939 1.523 . S
H1941 C1916 0.950 . S
H1942 C1918 0.950 . S
H1943 C1919 0.949 . S
H1944 C1921 0.950 . S
H1945 C1923 0.950 . S
C1946 C1947 1.349 . S
C1946 C1948 1.327 . S
C1946 H1971 0.950 . S
C1947 C1946 1.349 . S
C1947 C1963 1.349 . S
C1948 C1946 1.327 . S
C1948 C1967 1.429 . S
C1948 H1972 0.950 . S
C1949 C1966 1.574 . S
C1949 C1968 1.368 . S
C1949 H1973 0.949 . S
H1950 C1954 0.949 . S
C1951 C1952 1.349 . S
C1951 C1953 1.327 . S
C1951 H1974 0.950 . S
C1952 C1951 1.349 . S
C1952 C1964 1.349 . S
C1953 C1951 1.327 . S
C1953 C1969 1.429 . S
C1953 H1975 0.950 . S
C1954 H1950 0.949 . S
C1954 C1962 1.574 . S
C1954 C1970 1.368 . S
H1955 C1963 0.950 . S
H1956 C1961 0.950 . S
H1957 C1962 0.949 . S
H1958 C1964 0.950 . S
H1959 C1965 0.950 . S
H1960 C1966 0.949 . S
C1961 H1956 0.950 . S
C1961 C1963 1.327 . S
C1961 C1967 1.429 . S
C1962 C1954 1.574 . S
C1962 H1957 0.949 . S
C1962 C1968 1.368 . S
C1963 C1947 1.349 . S
C1963 H1955 0.950 . S
C1963 C1961 1.327 . S
C1964 C1952 1.349 . S
C1964 H1958 0.950 . S
C1964 C1965 1.327 . S
C1965 H1959 0.950 . S
C1965 C1964 1.327 . S
C1965 C1969 1.429 . S
C1966 C1949 1.574 . S
C1966 H1960 0.949 . S
C1966 C1970 1.368 . S
C1967 C1948 1.429 . S
C1967 C1961 1.429 . S
C1967 C1968 1.523 . S
C1968 C1949 1.368 . S
C1968 C1962 1.368 . S
C1968 C1967 1.523 . S
C1969 C1953 1.429 . S
C1969 C1965 1.429 . S
C1969 C1970 1.523 . S
C1970 C1954 1.368 . S
C1970 C1966 1.368 . S
C1970 C1969 1.523 . S
H1971 C1946 0.950 . S
H1972 C1948 0.950 . S
H1973 C1949 0.949 . S
H1974 C1951 0.950 . S
H1975 C1953 0.950 . S
C1976 C1977 1.349 . S
C1976 C1978 1.327 . S
C1976 H2001 0.950 . S
C1977 C1976 1.349 . S
C1977 C1993 1.349 . S
C1978 C1976 1.327 . S
C1978 C1997 1.429 . S
C1978 H2002 0.950 . S
C1979 C1996 1.574 . S
C1979 C1998 1.368 . S
C1979 H2003 0.949 . S
H1980 C1984 0.949 . S
C1981 C1982 1.349 . S
C1981 C1983 1.327 . S
C1981 H2004 0.950 . S
C1982 C1981 1.349 . S
C1982 C1994 1.349 . S
C1983 C1981 1.327 . S
C1983 C1999 1.429 . S
C1983 H2005 0.950 . S
C1984 H1980 0.949 . S
C1984 C1992 1.574 . S
C1984 C2000 1.368 . S
H1985 C1993 0.950 . S
H1986 C1991 0.950 . S
H1987 C1992 0.949 . S
H1988 C1994 0.950 . S
H1989 C1995 0.950 . S
H1990 C1996 0.949 . S
C1991 H1986 0.950 . S
C1991 C1993 1.327 . S
C1991 C1997 1.429 . S
C1992 C1984 1.574 . S
C1992 H1987 0.949 . S
C1992 C1998 1.368 . S
C1993 C1977 1.349 . S
C1993 H1985 0.950 . S
C1993 C1991 1.327 . S
C1994 C1982 1.349 . S
C1994 H1988 0.950 . S
C1994 C1995 1.327 . S
C1995 H1989 0.950 . S
C1995 C1994 1.327 . S
C1995 C1999 1.429 . S
C1996 C1979 1.574 . S
C1996 H1990 0.949 . S
C1996 C2000 1.368 . S
C1997 C1978 1.429 . S
C1997 C1991 1.429 . S
C1997 C1998 1.523 . S
C1998 C1979 1.368 . S
C1998 C1992 1.368 . S
C1998 C1997 1.523 . S
C1999 C1983 1.429 . S
C1999 C1995 1.429 . S
C1999 C2000 1.523 . S
C2000 C1984 1.368 . S
C2000 C1996 1.368 . S
C2000 C1999 1.523 . S
H2001 C1976 0.950 . S
H2002 C1978 0.950 . S
H2003 C1979 0.949 . S
H2004 C1981 0.950 . S
H2005 C1983 0.950 . S
C2006 C2007 1.349 . S
C2006 C2008 1.327 . S
C2006 H2031 0.950 . S
C2007 C2006 1.349 . S
C2007 C2023 1.349 . S
C2008 C2006 1.327 . S
C2008 C2027 1.429 . S
C2008 H2032 0.950 . S
C2009 C2026 1.574 . S
C2009 C2028 1.368 . S
C2009 H2033 0.949 . S
H2010 C2014 0.949 . S
C2011 C2012 1.349 . S
C2011 C2013 1.327 . S
C2011 H2034 0.950 . S
C2012 C2011 1.349 . S
C2012 C2024 1.349 . S
C2013 C2011 1.327 . S
C2013 C2029 1.429 . S
C2013 H2035 0.950 . S
C2014 H2010 0.949 . S
C2014 C2022 1.574 . S
C2014 C2030 1.368 . S
H2015 C2023 0.950 . S
H2016 C2021 0.950 . S
H2017 C2022 0.949 . S
H2018 C2024 0.950 . S
H2019 C2025 0.950 . S
H2020 C2026 0.949 . S
C2021 H2016 0.950 . S
C2021 C2023 1.327 . S
C2021 C2027 1.429 . S
C2022 C2014 1.574 . S
C2022 H2017 0.949 . S
C2022 C2028 1.368 . S
C2023 C2007 1.349 . S
C2023 H2015 0.950 . S
C2023 C2021 1.327 . S
C2024 C2012 1.349 . S
C2024 H2018 0.950 . S
C2024 C2025 1.327 . S
C2025 H2019 0.950 . S
C2025 C2024 1.327 . S
C2025 C2029 1.429 . S
C2026 C2009 1.574 . S
C2026 H2020 0.949 . S
C2026 C2030 1.368 . S
C2027 C2008 1.429 . S
C2027 C2021 1.429 . S
C2027 C2028 1.523 . S
C2028 C2009 1.368 . S
C2028 C2022 1.368 . S
C2028 C2027 1.523 . S
C2029 C2013 1.429 . S
C2029 C2025 1.429 . S
C2029 C2030 1.523 . S
C2030 C2014 1.368 . S
C2030 C2026 1.368 . S
C2030 C2029 1.523 . S
H2031 C2006 0.950 . S
H2032 C2008 0.950 . S
H2033 C2009 0.949 . S
H2034 C2011 0.950 . S
H2035 C2013 0.950 . S
C2036 C2037 1.349 . S
C2036 C2038 1.327 . S
C2036 H2061 0.950 . S
C2037 C2036 1.349 . S
C2037 C2053 1.349 . S
C2038 C2036 1.327 . S
C2038 C2057 1.429 . S
C2038 H2062 0.950 . S
C2039 C2056 1.574 . S
C2039 C2058 1.368 . S
C2039 H2063 0.949 . S
H2040 C2044 0.949 . S
C2041 C2042 1.349 . S
C2041 C2043 1.327 . S
C2041 H2064 0.950 . S
C2042 C2041 1.349 . S
C2042 C2054 1.349 . S
C2043 C2041 1.327 . S
C2043 C2059 1.429 . S
C2043 H2065 0.950 . S
C2044 H2040 0.949 . S
C2044 C2052 1.574 . S
C2044 C2060 1.368 . S
H2045 C2053 0.950 . S
H2046 C2051 0.950 . S
H2047 C2052 0.949 . S
H2048 C2054 0.950 . S
H2049 C2055 0.950 . S
H2050 C2056 0.949 . S
C2051 H2046 0.950 . S
C2051 C2053 1.327 . S
C2051 C2057 1.429 . S
C2052 C2044 1.574 . S
C2052 H2047 0.949 . S
C2052 C2058 1.368 . S
C2053 C2037 1.349 . S
C2053 H2045 0.950 . S
C2053 C2051 1.327 . S
C2054 C2042 1.349 . S
C2054 H2048 0.950 . S
C2054 C2055 1.327 . S
C2055 H2049 0.950 . S
C2055 C2054 1.327 . S
C2055 C2059 1.429 . S
C2056 C2039 1.574 . S
C2056 H2050 0.949 . S
C2056 C2060 1.368 . S
C2057 C2038 1.429 . S
C2057 C2051 1.429 . S
C2057 C2058 1.523 . S
C2058 C2039 1.368 . S
C2058 C2052 1.368 . S
C2058 C2057 1.523 . S
C2059 C2043 1.429 . S
C2059 C2055 1.429 . S
C2059 C2060 1.523 . S
C2060 C2044 1.368 . S
C2060 C2056 1.368 . S
C2060 C2059 1.523 . S
H2061 C2036 0.950 . S
H2062 C2038 0.950 . S
H2063 C2039 0.949 . S
H2064 C2041 0.950 . S
H2065 C2043 0.950 . S
C2066 C2067 1.349 . S
C2066 C2068 1.327 . S
C2066 H2091 0.950 . S
C2067 C2066 1.349 . S
C2067 C2083 1.349 . S
C2068 C2066 1.327 . S
C2068 C2087 1.429 . S
C2068 H2092 0.950 . S
C2069 C2086 1.574 . S
C2069 C2088 1.368 . S
C2069 H2093 0.949 . S
H2070 C2074 0.949 . S
C2071 C2072 1.349 . S
C2071 C2073 1.327 . S
C2071 H2094 0.950 . S
C2072 C2071 1.349 . S
C2072 C2084 1.349 . S
C2073 C2071 1.327 . S
C2073 C2089 1.429 . S
C2073 H2095 0.950 . S
C2074 H2070 0.949 . S
C2074 C2082 1.574 . S
C2074 C2090 1.368 . S
H2075 C2083 0.950 . S
H2076 C2081 0.950 . S
H2077 C2082 0.949 . S
H2078 C2084 0.950 . S
H2079 C2085 0.950 . S
H2080 C2086 0.949 . S
C2081 H2076 0.950 . S
C2081 C2083 1.327 . S
C2081 C2087 1.429 . S
C2082 C2074 1.574 . S
C2082 H2077 0.949 . S
C2082 C2088 1.368 . S
C2083 C2067 1.349 . S
C2083 H2075 0.950 . S
C2083 C2081 1.327 . S
C2084 C2072 1.349 . S
C2084 H2078 0.950 . S
C2084 C2085 1.327 . S
C2085 H2079 0.950 . S
C2085 C2084 1.327 . S
C2085 C2089 1.429 . S
C2086 C2069 1.574 . S
C2086 H2080 0.949 . S
C2086 C2090 1.368 . S
C2087 C2068 1.429 . S
C2087 C2081 1.429 . S
C2087 C2088 1.523 . S
C2088 C2069 1.368 . S
C2088 C2082 1.368 . S
C2088 C2087 1.523 . S
C2089 C2073 1.429 . S
C2089 C2085 1.429 . S
C2089 C2090 1.523 . S
C2090 C2074 1.368 . S
C2090 C2086 1.368 . S
C2090 C2089 1.523 . S
H2091 C2066 0.950 . S
H2092 C2068 0.950 . S
H2093 C2069 0.949 . S
H2094 C2071 0.950 . S
H2095 C2073 0.950 . S
C2096 C2097 1.349 . S
C2096 C2098 1.327 . S
C2096 H2121 0.950 . S
C2097 C2096 1.349 . S
C2097 C2113 1.349 . S
C2098 C2096 1.327 . S
C2098 C2117 1.429 . S
C2098 H2122 0.950 . S
C2099 C2116 1.574 . S
C2099 C2118 1.368 . S
C2099 H2123 0.949 . S
H2100 C2104 0.949 . S
C2101 C2102 1.349 . S
C2101 C2103 1.327 . S
C2101 H2124 0.950 . S
C2102 C2101 1.349 . S
C2102 C2114 1.349 . S
C2103 C2101 1.327 . S
C2103 C2119 1.429 . S
C2103 H2125 0.950 . S
C2104 H2100 0.949 . S
C2104 C2112 1.574 . S
C2104 C2120 1.368 . S
H2105 C2113 0.950 . S
H2106 C2111 0.950 . S
H2107 C2112 0.949 . S
H2108 C2114 0.950 . S
H2109 C2115 0.950 . S
H2110 C2116 0.949 . S
C2111 H2106 0.950 . S
C2111 C2113 1.327 . S
C2111 C2117 1.429 . S
C2112 C2104 1.574 . S
C2112 H2107 0.949 . S
C2112 C2118 1.368 . S
C2113 C2097 1.349 . S
C2113 H2105 0.950 . S
C2113 C2111 1.327 . S
C2114 C2102 1.349 . S
C2114 H2108 0.950 . S
C2114 C2115 1.327 . S
C2115 H2109 0.950 . S
C2115 C2114 1.327 . S
C2115 C2119 1.429 . S
C2116 C2099 1.574 . S
C2116 H2110 0.949 . S
C2116 C2120 1.368 . S
C2117 C2098 1.429 . S
C2117 C2111 1.429 . S
C2117 C2118 1.523 . S
C2118 C2099 1.368 . S
C2118 C2112 1.368 . S
C2118 C2117 1.523 . S
C2119 C2103 1.429 . S
C2119 C2115 1.429 . S
C2119 C2120 1.523 . S
C2120 C2104 1.368 . S
C2120 C2116 1.368 . S
C2120 C2119 1.523 . S
H2121 C2096 0.950 . S
H2122 C2098 0.950 . S
H2123 C2099 0.949 . S
H2124 C2101 0.950 . S
H2125 C2103 0.950 . S
C2126 C2127 1.349 . S
C2126 C2128 1.327 . S
C2126 H2151 0.950 . S
C2127 C2126 1.349 . S
C2127 C2143 1.349 . S
C2128 C2126 1.327 . S
C2128 C2147 1.429 . S
C2128 H2152 0.950 . S
C2129 C2146 1.574 . S
C2129 C2148 1.368 . S
C2129 H2153 0.949 . S
H2130 C2134 0.949 . S
C2131 C2132 1.349 . S
C2131 C2133 1.327 . S
C2131 H2154 0.950 . S
C2132 C2131 1.349 . S
C2132 C2144 1.349 . S
C2133 C2131 1.327 . S
C2133 C2149 1.429 . S
C2133 H2155 0.950 . S
C2134 H2130 0.949 . S
C2134 C2142 1.574 . S
C2134 C2150 1.368 . S
H2135 C2143 0.950 . S
H2136 C2141 0.950 . S
H2137 C2142 0.949 . S
H2138 C2144 0.950 . S
H2139 C2145 0.950 . S
H2140 C2146 0.949 . S
C2141 H2136 0.950 . S
C2141 C2143 1.327 . S
C2141 C2147 1.429 . S
C2142 C2134 1.574 . S
C2142 H2137 0.949 . S
C2142 C2148 1.368 . S
C2143 C2127 1.349 . S
C2143 H2135 0.950 . S
C2143 C2141 1.327 . S
C2144 C2132 1.349 . S
C2144 H2138 0.950 . S
C2144 C2145 1.327 . S
C2145 H2139 0.950 . S
C2145 C2144 1.327 . S
C2145 C2149 1.429 . S
C2146 C2129 1.574 . S
C2146 H2140 0.949 . S
C2146 C2150 1.368 . S
C2147 C2128 1.429 . S
C2147 C2141 1.429 . S
C2147 C2148 1.523 . S
C2148 C2129 1.368 . S
C2148 C2142 1.368 . S
C2148 C2147 1.523 . S
C2149 C2133 1.429 . S
C2149 C2145 1.429 . S
C2149 C2150 1.523 . S
C2150 C2134 1.368 . S
C2150 C2146 1.368 . S
C2150 C2149 1.523 . S
H2151 C2126 0.950 . S
H2152 C2128 0.950 . S
H2153 C2129 0.949 . S
H2154 C2131 0.950 . S
H2155 C2133 0.950 . S
C2156 C2157 1.349 . S
C2156 C2158 1.327 . S
C2156 H2181 0.950 . S
C2157 C2156 1.349 . S
C2157 C2173 1.349 . S
C2158 C2156 1.327 . S
C2158 C2177 1.429 . S
C2158 H2182 0.950 . S
C2159 C2176 1.574 . S
C2159 C2178 1.368 . S
C2159 H2183 0.949 . S
H2160 C2164 0.949 . S
C2161 C2162 1.349 . S
C2161 C2163 1.327 . S
C2161 H2184 0.950 . S
C2162 C2161 1.349 . S
C2162 C2174 1.349 . S
C2163 C2161 1.327 . S
C2163 C2179 1.429 . S
C2163 H2185 0.950 . S
C2164 H2160 0.949 . S
C2164 C2172 1.574 . S
C2164 C2180 1.368 . S
H2165 C2173 0.950 . S
H2166 C2171 0.950 . S
H2167 C2172 0.949 . S
H2168 C2174 0.950 . S
H2169 C2175 0.950 . S
H2170 C2176 0.949 . S
C2171 H2166 0.950 . S
C2171 C2173 1.327 . S
C2171 C2177 1.429 . S
C2172 C2164 1.574 . S
C2172 H2167 0.949 . S
C2172 C2178 1.368 . S
C2173 C2157 1.349 . S
C2173 H2165 0.950 . S
C2173 C2171 1.327 . S
C2174 C2162 1.349 . S
C2174 H2168 0.950 . S
C2174 C2175 1.327 . S
C2175 H2169 0.950 . S
C2175 C2174 1.327 . S
C2175 C2179 1.429 . S
C2176 C2159 1.574 . S
C2176 H2170 0.949 . S
C2176 C2180 1.368 . S
C2177 C2158 1.429 . S
C2177 C2171 1.429 . S
C2177 C2178 1.523 . S
C2178 C2159 1.368 . S
C2178 C2172 1.368 . S
C2178 C2177 1.523 . S
C2179 C2163 1.429 . S
C2179 C2175 1.429 . S
C2179 C2180 1.523 . S
C2180 C2164 1.368 . S
C2180 C2176 1.368 . S
C2180 C2179 1.523 . S
H2181 C2156 0.950 . S
H2182 C2158 0.950 . S
H2183 C2159 0.949 . S
H2184 C2161 0.950 . S
H2185 C2163 0.950 . S
C2186 C2187 1.349 . S
C2186 C2188 1.327 . S
C2186 H2211 0.950 . S
C2187 C2186 1.349 . S
C2187 C2203 1.349 . S
C2188 C2186 1.327 . S
C2188 C2207 1.429 . S
C2188 H2212 0.950 . S
C2189 C2206 1.574 . S
C2189 C2208 1.368 . S
C2189 H2213 0.949 . S
H2190 C2194 0.949 . S
C2191 C2192 1.349 . S
C2191 C2193 1.327 . S
C2191 H2214 0.950 . S
C2192 C2191 1.349 . S
C2192 C2204 1.349 . S
C2193 C2191 1.327 . S
C2193 C2209 1.429 . S
C2193 H2215 0.950 . S
C2194 H2190 0.949 . S
C2194 C2202 1.574 . S
C2194 C2210 1.368 . S
H2195 C2203 0.950 . S
H2196 C2201 0.950 . S
H2197 C2202 0.949 . S
H2198 C2204 0.950 . S
H2199 C2205 0.950 . S
H2200 C2206 0.949 . S
C2201 H2196 0.950 . S
C2201 C2203 1.327 . S
C2201 C2207 1.429 . S
C2202 C2194 1.574 . S
C2202 H2197 0.949 . S
C2202 C2208 1.368 . S
C2203 C2187 1.349 . S
C2203 H2195 0.950 . S
C2203 C2201 1.327 . S
C2204 C2192 1.349 . S
C2204 H2198 0.950 . S
C2204 C2205 1.327 . S
C2205 H2199 0.950 . S
C2205 C2204 1.327 . S
C2205 C2209 1.429 . S
C2206 C2189 1.574 . S
C2206 H2200 0.949 . S
C2206 C2210 1.368 . S
C2207 C2188 1.429 . S
C2207 C2201 1.429 . S
C2207 C2208 1.523 . S
C2208 C2189 1.368 . S
C2208 C2202 1.368 . S
C2208 C2207 1.523 . S
C2209 C2193 1.429 . S
C2209 C2205 1.429 . S
C2209 C2210 1.523 . S
C2210 C2194 1.368 . S
C2210 C2206 1.368 . S
C2210 C2209 1.523 . S
H2211 C2186 0.950 . S
H2212 C2188 0.950 . S
H2213 C2189 0.949 . S
H2214 C2191 0.950 . S
H2215 C2193 0.950 . S
C2216 C2217 1.349 . S
C2216 C2218 1.327 . S
C2216 H2241 0.950 . S
C2217 C2216 1.349 . S
C2217 C2233 1.349 . S
C2218 C2216 1.327 . S
C2218 C2237 1.429 . S
C2218 H2242 0.950 . S
C2219 C2236 1.574 . S
C2219 C2238 1.368 . S
C2219 H2243 0.949 . S
H2220 C2224 0.949 . S
C2221 C2222 1.349 . S
C2221 C2223 1.327 . S
C2221 H2244 0.950 . S
C2222 C2221 1.349 . S
C2222 C2234 1.349 . S
C2223 C2221 1.327 . S
C2223 C2239 1.429 . S
C2223 H2245 0.950 . S
C2224 H2220 0.949 . S
C2224 C2232 1.574 . S
C2224 C2240 1.368 . S
H2225 C2233 0.950 . S
H2226 C2231 0.950 . S
H2227 C2232 0.949 . S
H2228 C2234 0.950 . S
H2229 C2235 0.950 . S
H2230 C2236 0.949 . S
C2231 H2226 0.950 . S
C2231 C2233 1.327 . S
C2231 C2237 1.429 . S
C2232 C2224 1.574 . S
C2232 H2227 0.949 . S
C2232 C2238 1.368 . S
C2233 C2217 1.349 . S
C2233 H2225 0.950 . S
C2233 C2231 1.327 . S
C2234 C2222 1.349 . S
C2234 H2228 0.950 . S
C2234 C2235 1.327 . S
C2235 H2229 0.950 . S
C2235 C2234 1.327 . S
C2235 C2239 1.429 . S
C2236 C2219 1.574 . S
C2236 H2230 0.949 . S
C2236 C2240 1.368 . S
C2237 C2218 1.429 . S
C2237 C2231 1.429 . S
C2237 C2238 1.523 . S
C2238 C2219 1.368 . S
C2238 C2232 1.368 . S
C2238 C2237 1.523 . S
C2239 C2223 1.429 . S
C2239 C2235 1.429 . S
C2239 C2240 1.523 . S
C2240 C2224 1.368 . S
C2240 C2236 1.368 . S
C2240 C2239 1.523 . S
H2241 C2216 0.950 . S
H2242 C2218 0.950 . S
H2243 C2219 0.949 . S
H2244 C2221 0.950 . S
H2245 C2223 0.950 . S
C2246 C2247 1.349 . S
C2246 C2248 1.327 . S
C2246 H2271 0.950 . S
C2247 C2246 1.349 . S
C2247 C2263 1.349 . S
C2248 C2246 1.327 . S
C2248 C2267 1.429 . S
C2248 H2272 0.950 . S
C2249 C2266 1.574 . S
C2249 C2268 1.368 . S
C2249 H2273 0.949 . S
H2250 C2254 0.949 . S
C2251 C2252 1.349 . S
C2251 C2253 1.327 . S
C2251 H2274 0.950 . S
C2252 C2251 1.349 . S
C2252 C2264 1.349 . S
C2253 C2251 1.327 . S
C2253 C2269 1.429 . S
C2253 H2275 0.950 . S
C2254 H2250 0.949 . S
C2254 C2262 1.574 . S
C2254 C2270 1.368 . S
H2255 C2263 0.950 . S
H2256 C2261 0.950 . S
H2257 C2262 0.949 . S
H2258 C2264 0.950 . S
H2259 C2265 0.950 . S
H2260 C2266 0.949 . S
C2261 H2256 0.950 . S
C2261 C2263 1.327 . S
C2261 C2267 1.429 . S
C2262 C2254 1.574 . S
C2262 H2257 0.949 . S
C2262 C2268 1.368 . S
C2263 C2247 1.349 . S
C2263 H2255 0.950 . S
C2263 C2261 1.327 . S
C2264 C2252 1.349 . S
C2264 H2258 0.950 . S
C2264 C2265 1.327 . S
C2265 H2259 0.950 . S
C2265 C2264 1.327 . S
C2265 C2269 1.429 . S
C2266 C2249 1.574 . S
C2266 H2260 0.949 . S
C2266 C2270 1.368 . S
C2267 C2248 1.429 . S
C2267 C2261 1.429 . S
C2267 C2268 1.523 . S
C2268 C2249 1.368 . S
C2268 C2262 1.368 . S
C2268 C2267 1.523 . S
C2269 C2253 1.429 . S
C2269 C2265 1.429 . S
C2269 C2270 1.523 . S
C2270 C2254 1.368 . S
C2270 C2266 1.368 . S
C2270 C2269 1.523 . S
H2271 C2246 0.950 . S
H2272 C2248 0.950 . S
H2273 C2249 0.949 . S
H2274 C2251 0.950 . S
H2275 C2253 0.950 . S
C2276 C2277 1.349 . S
C2276 C2278 1.327 . S
C2276 H2301 0.950 . S
C2277 C2276 1.349 . S
C2277 C2293 1.349 . S
C2278 C2276 1.327 . S
C2278 C2297 1.429 . S
C2278 H2302 0.950 . S
C2279 C2296 1.574 . S
C2279 C2298 1.368 . S
C2279 H2303 0.949 . S
H2280 C2284 0.949 . S
C2281 C2282 1.349 . S
C2281 C2283 1.327 . S
C2281 H2304 0.950 . S
C2282 C2281 1.349 . S
C2282 C2294 1.349 . S
C2283 C2281 1.327 . S
C2283 C2299 1.429 . S
C2283 H2305 0.950 . S
C2284 H2280 0.949 . S
C2284 C2292 1.574 . S
C2284 C2300 1.368 . S
H2285 C2293 0.950 . S
H2286 C2291 0.950 . S
H2287 C2292 0.949 . S
H2288 C2294 0.950 . S
H2289 C2295 0.950 . S
H2290 C2296 0.949 . S
C2291 H2286 0.950 . S
C2291 C2293 1.327 . S
C2291 C2297 1.429 . S
C2292 C2284 1.574 . S
C2292 H2287 0.949 . S
C2292 C2298 1.368 . S
C2293 C2277 1.349 . S
C2293 H2285 0.950 . S
C2293 C2291 1.327 . S
C2294 C2282 1.349 . S
C2294 H2288 0.950 . S
C2294 C2295 1.327 . S
C2295 H2289 0.950 . S
C2295 C2294 1.327 . S
C2295 C2299 1.429 . S
C2296 C2279 1.574 . S
C2296 H2290 0.949 . S
C2296 C2300 1.368 . S
C2297 C2278 1.429 . S
C2297 C2291 1.429 . S
C2297 C2298 1.523 . S
C2298 C2279 1.368 . S
C2298 C2292 1.368 . S
C2298 C2297 1.523 . S
C2299 C2283 1.429 . S
C2299 C2295 1.429 . S
C2299 C2300 1.523 . S
C2300 C2284 1.368 . S
C2300 C2296 1.368 . S
C2300 C2299 1.523 . S
H2301 C2276 0.950 . S
H2302 C2278 0.950 . S
H2303 C2279 0.949 . S
H2304 C2281 0.950 . S
H2305 C2283 0.950 . S
C2306 C2307 1.349 . S
C2306 C2308 1.327 . S
C2306 H2331 0.950 . S
C2307 C2306 1.349 . S
C2307 C2323 1.349 . S
C2308 C2306 1.327 . S
C2308 C2327 1.429 . S
C2308 H2332 0.950 . S
C2309 C2326 1.574 . S
C2309 C2328 1.368 . S
C2309 H2333 0.949 . S
H2310 C2314 0.949 . S
C2311 C2312 1.349 . S
C2311 C2313 1.327 . S
C2311 H2334 0.950 . S
C2312 C2311 1.349 . S
C2312 C2324 1.349 . S
C2313 C2311 1.327 . S
C2313 C2329 1.429 . S
C2313 H2335 0.950 . S
C2314 H2310 0.949 . S
C2314 C2322 1.574 . S
C2314 C2330 1.368 . S
H2315 C2323 0.950 . S
H2316 C2321 0.950 . S
H2317 C2322 0.949 . S
H2318 C2324 0.950 . S
H2319 C2325 0.950 . S
H2320 C2326 0.949 . S
C2321 H2316 0.950 . S
C2321 C2323 1.327 . S
C2321 C2327 1.429 . S
C2322 C2314 1.574 . S
C2322 H2317 0.949 . S
C2322 C2328 1.368 . S
C2323 C2307 1.349 . S
C2323 H2315 0.950 . S
C2323 C2321 1.327 . S
C2324 C2312 1.349 . S
C2324 H2318 0.950 . S
C2324 C2325 1.327 . S
C2325 H2319 0.950 . S
C2325 C2324 1.327 . S
C2325 C2329 1.429 . S
C2326 C2309 1.574 . S
C2326 H2320 0.949 . S
C2326 C2330 1.368 . S
C2327 C2308 1.429 . S
C2327 C2321 1.429 . S
C2327 C2328 1.523 . S
C2328 C2309 1.368 . S
C2328 C2322 1.368 . S
C2328 C2327 1.523 . S
C2329 C2313 1.429 . S
C2329 C2325 1.429 . S
C2329 C2330 1.523 . S
C2330 C2314 1.368 . S
C2330 C2326 1.368 . S
C2330 C2329 1.523 . S
H2331 C2306 0.950 . S
H2332 C2308 0.950 . S
H2333 C2309 0.949 . S
H2334 C2311 0.950 . S
H2335 C2313 0.950 . S
C417 C200 1.225 . S
C422 C5 1.224 . S
C447 C21 1.257 . S
C452 C161 1.253 . S
C477 C31 1.224 . S
C482 C174 1.225 . S
C507 C187 1.252 . S
C512 C47 1.257 . S
C537 C57 1.225 . S
C542 C122 1.225 . S
C567 C73 1.257 . S
C572 C135 1.253 . S
C597 C148 1.225 . S
C602 C83 1.224 . S
C627 C109 1.253 . S
C632 C99 1.257 . S
C657 C213 1.224 . S
C662 C408 1.225 . S
C687 C229 1.257 . S
C692 C369 1.253 . S
C717 C239 1.224 . S
C722 C382 1.225 . S
C747 C395 1.252 . S
C752 C255 1.257 . S
C777 C265 1.225 . S
C782 C330 1.225 . S
C807 C281 1.257 . S
C812 C343 1.253 . S
C837 C356 1.225 . S
C842 C291 1.224 . S
C867 C307 1.257 . S
C872 C317 1.253 . S
C897 C156 0.992 . S
C902 C0 0.992 . S
C927 C23 0.951 . S
C932 C169 0.947 . S
C957 C182 0.992 . S
C962 C26 0.992 . S
C987 C49 0.951 . S
C992 C195 0.947 . S
C1017 C52 0.992 . S
C1022 C104 0.992 . S
C1047 C117 0.947 . S
C1052 C75 0.951 . S
C1077 C130 0.992 . S
C1082 C78 0.992 . S
C1107 C143 0.947 . S
C1112 C101 0.951 . S
C1137 C208 0.992 . S
C1142 C364 0.992 . S
C1167 C377 0.947 . S
C1172 C231 0.951 . S
C1197 C234 0.992 . S
C1202 C390 0.992 . S
C1227 C257 0.951 . S
C1232 C403 0.947 . S
C1257 C312 0.992 . S
C1262 C260 0.992 . S
C1287 C283 0.951 . S
C1292 C325 0.947 . S
C1317 C286 0.992 . S
C1322 C338 0.992 . S
C1347 C309 0.951 . S
C1352 C351 0.947 . S
C1377 C8 1.406 . S
C1382 C138 1.406 . S
C1407 C151 1.400 . S
C1412 C18 1.404 . S
C1437 C34 1.406 . S
C1442 C112 1.406 . S
C1467 C125 1.400 . S
C1472 C44 1.404 . S
C1497 C190 1.406 . S
C1502 C60 1.406 . S
C1527 C203 1.400 . S
C1532 C70 1.404 . S
C1557 C164 1.406 . S
C1562 C86 1.406 . S
C1587 C96 1.404 . S
C1592 C177 1.400 . S
C1617 C346 1.406 . S
C1622 C216 1.406 . S
C1647 C226 1.404 . S
C1652 C359 1.400 . S
C1677 C320 1.406 . S
C1682 C242 1.406 . S
C1707 C333 1.400 . S
C1712 C252 1.404 . S
C1737 C268 1.406 . S
C1742 C398 1.406 . S
C1767 C278 1.404 . S
C1772 C411 1.400 . S
C1797 C372 1.406 . S
C1802 C294 1.406 . S
C1827 C385 1.400 . S
C1832 C304 1.404 . S
C1857 C299 1.050 . S
C1862 C10 1.044 . S
C1887 C270 1.044 . S
C1892 C13 1.050 . S
C1917 C273 1.050 . S
C1922 C36 1.044 . S
C1947 C296 1.044 . S
C1952 C39 1.050 . S
C1977 C221 1.050 . S
C1982 C62 1.044 . S
C2007 C65 1.050 . S
C2012 C244 1.044 . S
C2037 C88 1.044 . S
C2042 C247 1.050 . S
C2067 C91 1.050 . S
C2072 C218 1.044 . S
C2097 C114 1.261 . S
C2102 C413 1.255 . S
C2127 C374 1.261 . S
C2132 C127 1.255 . S
C2157 C140 1.261 . S
C2162 C387 1.255 . S
C2187 C153 1.255 . S
C2192 C400 1.261 . S
C2217 C335 1.255 . S
C2222 C166 1.261 . S
C2247 C348 1.261 . S
C2252 C179 1.255 . S
C2277 C192 1.261 . S
C2282 C361 1.255 . S
C2307 C205 1.255 . S
C2312 C322 1.261 . S
