# Generated by pormake.
# Topology hbo, (4)-cn, num edge types: 1
# Building blocks:
#     Node 0, Type 0, BuildingBlock: KUFVIS_clean_sbu_0, # of connection points: 4
#     Node 1, Type 0, BuildingBlock: KUFVIS_clean_sbu_0, # of connection points: 4
#     Node 2, Type 0, BuildingBlock: KUFVIS_clean_sbu_0, # of connection points: 4
#     Node 3, Type 0, BuildingBlock: KUFVIS_clean_sbu_0, # of connection points: 4
#     Node 4, Type 0, BuildingBlock: KUFVIS_clean_sbu_0, # of connection points: 4
#     Node 5, Type 0, BuildingBlock: KUFVIS_clean_sbu_0, # of connection points: 4
#     Node 6, Type 0, BuildingBlock: KUFVIS_clean_sbu_0, # of connection points: 4
#     Node 7, Type 0, BuildingBlock: KUFVIS_clean_sbu_0, # of connection points: 4
#     Node 8, Type 0, BuildingBlock: KUFVIS_clean_sbu_0, # of connection points: 4
#     Node 9, Type 0, BuildingBlock: KUFVIS_clean_sbu_0, # of connection points: 4
#     Node 10, Type 0, BuildingBlock: KUFVIS_clean_sbu_0, # of connection points: 4
#     Node 11, Type 0, BuildingBlock: KUFVIS_clean_sbu_0, # of connection points: 4
#     Node 12, Type 0, BuildingBlock: KUFVIS_clean_sbu_0, # of connection points: 4
#     Node 13, Type 0, BuildingBlock: KUFVIS_clean_sbu_0, # of connection points: 4
#     Node 14, Type 0, BuildingBlock: KUFVIS_clean_sbu_0, # of connection points: 4
#     Node 15, Type 0, BuildingBlock: KUFVIS_clean_sbu_0, # of connection points: 4
#     Node 16, Type 0, BuildingBlock: KUFVIS_clean_sbu_0, # of connection points: 4
#     Node 17, Type 0, BuildingBlock: KUFVIS_clean_sbu_0, # of connection points: 4
#     Node 18, Type 0, BuildingBlock: KUFVIS_clean_sbu_0, # of connection points: 4
#     Node 19, Type 0, BuildingBlock: KUFVIS_clean_sbu_0, # of connection points: 4
#     Node 20, Type 0, BuildingBlock: KUFVIS_clean_sbu_0, # of connection points: 4
#     Node 21, Type 0, BuildingBlock: KUFVIS_clean_sbu_0, # of connection points: 4
#     Node 22, Type 0, BuildingBlock: KUFVIS_clean_sbu_0, # of connection points: 4
#     Node 23, Type 0, BuildingBlock: KUFVIS_clean_sbu_0, # of connection points: 4
#     Edge 24, Type (0, 0), None
#     Edge 25, Type (0, 0), None
#     Edge 26, Type (0, 0), None
#     Edge 27, Type (0, 0), None
#     Edge 28, Type (0, 0), None
#     Edge 29, Type (0, 0), None
#     Edge 30, Type (0, 0), None
#     Edge 31, Type (0, 0), None
#     Edge 32, Type (0, 0), None
#     Edge 33, Type (0, 0), None
#     Edge 34, Type (0, 0), None
#     Edge 35, Type (0, 0), None
#     Edge 36, Type (0, 0), None
#     Edge 37, Type (0, 0), None
#     Edge 38, Type (0, 0), None
#     Edge 39, Type (0, 0), None
#     Edge 40, Type (0, 0), None
#     Edge 41, Type (0, 0), None
#     Edge 42, Type (0, 0), None
#     Edge 43, Type (0, 0), None
#     Edge 44, Type (0, 0), None
#     Edge 45, Type (0, 0), None
#     Edge 46, Type (0, 0), None
#     Edge 47, Type (0, 0), None
#     Edge 48, Type (0, 0), None
#     Edge 49, Type (0, 0), None
#     Edge 50, Type (0, 0), None
#     Edge 51, Type (0, 0), None
#     Edge 52, Type (0, 0), None
#     Edge 53, Type (0, 0), None
#     Edge 54, Type (0, 0), None
#     Edge 55, Type (0, 0), None
#     Edge 56, Type (0, 0), None
#     Edge 57, Type (0, 0), None
#     Edge 58, Type (0, 0), None
#     Edge 59, Type (0, 0), None
#     Edge 60, Type (0, 0), None
#     Edge 61, Type (0, 0), None
#     Edge 62, Type (0, 0), None
#     Edge 63, Type (0, 0), None
#     Edge 64, Type (0, 0), None
#     Edge 65, Type (0, 0), None
#     Edge 66, Type (0, 0), None
#     Edge 67, Type (0, 0), None
#     Edge 68, Type (0, 0), None
#     Edge 69, Type (0, 0), None
#     Edge 70, Type (0, 0), None
#     Edge 71, Type (0, 0), None
# Relax obj value: 0.256
# Max RMSD: 0.294
# Mean RMSD: 0.266
data_MOF--net-hbo--node1-KUFVIS_clean_sbu_0--edge1-none
_symmetry_space_group_name_H-M    P1
_symmetry_Int_Tables_number       1
_symmetry_cell_setting            triclinic
loop_
_symmetry_equiv_pos_as_xyz
'x, y, z'
_cell_length_a     24.86933
_cell_length_b     23.977127
_cell_length_c     23.675214
_cell_angle_alpha  91.195994
_cell_angle_beta   89.74516
_cell_angle_gamma 94.568634
loop_
_atom_site_label
_atom_site_type_symbol
_atom_site_fract_x
_atom_site_fract_y
_atom_site_fract_z
_atom_type_partial_charge
Mn0 Mn 0.09507 0.37156 0.28383 0.0
Mn1 Mn 0.06172 0.34304 0.14465 0.0
C2 C 0.17206 0.35838 0.22094 0.0
C3 C 0.11447 0.27187 0.30443 0.0
C4 C 0.07468 0.45966 0.19169 0.0
O5 O 0.01153 0.3544 0.2879 0.0
O6 O -0.00213 0.32835 0.19698 0.0
C7 C 0.94161 0.2836 0.06802 0.0
N8 N 0.00408 0.3141 0.07789 0.0
C9 C 0.04157 0.19786 0.99079 0.0
C10 C -0.02861 0.17608 0.98898 0.0
C11 C 0.92403 0.21793 0.02576 0.0
C12 C 0.05391 0.29155 0.05022 0.0
H13 H -0.02511 0.30892 0.08375 0.0
C14 C -0.0199 0.33694 0.24751 0.0
O15 O 0.11329 0.31114 0.33954 0.0
O16 O 0.09801 0.28556 0.25671 0.0
N17 N 0.1239 0.36598 0.09385 0.0
C18 C 0.18429 0.39574 0.10279 0.0
C19 C 0.24468 0.37247 0.07129 0.0
C20 C 0.24494 0.31258 0.02297 0.0
C21 C 0.18159 0.26919 0.00652 0.0
C22 C 0.10802 0.31652 0.05598 0.0
H23 H 0.18964 0.42976 0.13346 0.0
O24 O 0.17593 0.38499 0.26834 0.0
O25 O 0.12033 0.34207 0.20952 0.0
O26 O 0.08556 0.44107 0.23967 0.0
O27 O 0.05606 0.42734 0.15042 0.0
C28 C 0.16394 0.20753 0.97005 0.0
C29 C 0.09968 0.17422 0.96288 0.0
H30 H -0.04286 0.1384 0.96596 0.0
H31 H 0.88385 0.20034 0.02144 0.0
H32 H 0.28279 0.3938 0.08201 0.0
H33 H 0.27206 0.32904 0.99478 0.0
H34 H 0.19609 0.18687 0.94988 0.0
H35 H 0.09578 0.13566 0.93822 0.0
Mn36 Mn 0.10182 0.6465 0.75763 0.0
Mn37 Mn 0.07197 0.63906 0.90237 0.0
C38 C 0.18777 0.67223 0.81544 0.0
C39 C 0.11716 0.72129 0.69033 0.0
C40 C 0.04626 0.52657 0.80873 0.0
O41 O 0.02244 0.64735 0.75525 0.0
O42 O 0.02002 0.67679 0.84498 0.0
C43 C 0.93975 0.62115 0.9969 0.0
N44 N 0.00213 0.6471 0.9794 0.0
C45 C 0.01147 0.73895 0.0871 0.0
C46 C 0.94493 0.70904 0.10312 0.0
C47 C 0.90946 0.65257 0.06095 0.0
C48 C 0.04268 0.71495 0.03086 0.0
H49 H -0.02158 0.62931 0.97536 0.0
C50 C -0.00251 0.6668 0.79598 0.0
O51 O 0.10813 0.6693 0.67438 0.0
O52 O 0.11159 0.72967 0.74324 0.0
N53 N 0.13272 0.70276 0.94386 0.0
C54 C 0.19177 0.72841 0.91851 0.0
C55 C 0.22903 0.78357 0.96174 0.0
C56 C 0.19933 0.80818 0.02939 0.0
C57 C 0.13488 0.78287 0.05308 0.0
C58 C 0.09968 0.73572 0.01538 0.0
H59 H 0.15328 0.70421 0.9244 0.0
O60 O 0.18415 0.65882 0.76296 0.0
O61 O 0.13568 0.65759 0.83671 0.0
O62 O 0.07691 0.55437 0.76975 0.0
O63 O 0.03616 0.55764 0.8573 0.0
C64 C 0.10357 0.80037 0.10145 0.0
C65 C 0.04707 0.78029 0.11712 0.0
H66 H 0.92524 0.72414 0.14057 0.0
H67 H 0.87241 0.6348 0.07926 0.0
H68 H 0.27007 0.7983 0.93969 0.0
H69 H 0.22037 0.79979 0.99544 0.0
H70 H 0.12344 0.83206 0.12904 0.0
H71 H 0.03094 0.79829 0.15527 0.0
Mn72 Mn 0.83297 0.63698 0.22942 0.0
Mn73 Mn 0.88427 0.62606 0.35402 0.0
C74 C 0.83579 0.71686 0.2868 0.0
C75 C 0.74541 0.65239 0.19097 0.0
C76 C 0.95311 0.63407 0.24505 0.0
O77 O 0.82426 0.54988 0.23967 0.0
O78 O 0.85743 0.54554 0.32672 0.0
C79 C 0.7845 0.58682 0.4117 0.0
N80 N 0.82561 0.62773 0.40648 0.0
C81 C 0.78002 0.68883 0.46921 0.0
C82 C 0.73717 0.64747 0.47359 0.0
C83 C 0.73959 0.59627 0.44508 0.0
C84 C 0.82351 0.67828 0.43316 0.0
H85 H 0.78507 0.54704 0.38987 0.0
C86 C 0.83475 0.5209 0.28277 0.0
O87 O 0.7872 0.64826 0.15911 0.0
O88 O 0.7532 0.64239 0.24239 0.0
N89 N 0.9132 0.6968 0.38745 0.0
C90 C -0.02483 0.71964 0.38848 0.0
C91 C -0.01236 0.80045 0.4674 0.0
C92 C 0.92741 0.80921 0.49717 0.0
C93 C 0.87211 0.76911 0.47685 0.0
C94 C 0.86752 0.71702 0.42688 0.0
H95 H 0.00417 0.7011 0.36048 0.0
O96 O 0.8439 0.7203 0.23359 0.0
O97 O 0.83618 0.66603 0.30558 0.0
O98 O 0.91442 0.63669 0.21002 0.0
O99 O 0.94497 0.6281 0.29839 0.0
C100 C 0.82497 0.77684 0.50615 0.0
C101 C 0.77969 0.73866 0.50123 0.0
H102 H 0.70251 0.65411 0.50009 0.0
H103 H 0.70681 0.56401 0.44883 0.0
H104 H 0.02273 0.827 0.48234 0.0
H105 H 0.92469 0.84035 0.53058 0.0
H106 H 0.82437 0.81213 0.53494 0.0
H107 H 0.74439 0.74629 0.52617 0.0
Mn108 Mn 0.80121 0.3358 0.79394 0.0
Mn109 Mn 0.85435 0.38613 0.67644 0.0
C110 C 0.80222 0.27078 0.71775 0.0
C111 C 0.70646 0.30682 0.83591 0.0
C112 C 0.91803 0.33446 0.76954 0.0
O113 O 0.82896 0.43043 0.81066 0.0
O114 O 0.85214 0.45653 0.72614 0.0
C115 C 0.76104 0.44885 0.65164 0.0
N116 N 0.79575 0.41089 0.6333 0.0
C117 C 0.74454 0.39361 0.5479 0.0
C118 C 0.71039 0.43459 0.56521 0.0
C119 C 0.71855 0.46212 0.61733 0.0
C120 C 0.78811 0.38359 0.58304 0.0
H121 H 0.76481 0.46847 0.69288 0.0
C122 C 0.8437 0.47135 0.77719 0.0
O123 O 0.75165 0.31106 0.86348 0.0
O124 O 0.71445 0.31747 0.78427 0.0
N125 N 0.8635 0.33311 0.61836 0.0
C126 C 0.90437 0.28677 0.62004 0.0
C127 C 0.89225 0.22294 0.52686 0.0
C128 C 0.84222 0.24862 0.48738 0.0
C129 C 0.81039 0.30509 0.50992 0.0
C130 C 0.82224 0.34274 0.57059 0.0
H131 H 0.93058 0.28452 0.65662 0.0
O132 O 0.80061 0.25648 0.76938 0.0
O133 O 0.80335 0.32618 0.71158 0.0
O134 O 0.88062 0.32852 0.80647 0.0
O135 O 0.91328 0.3584 0.72175 0.0
C136 C 0.76322 0.3168 0.48222 0.0
C137 C 0.73288 0.36086 0.49905 0.0
H138 H 0.67641 0.44394 0.53952 0.0
H139 H 0.69135 0.49255 0.63167 0.0
H140 H 0.90883 0.18347 0.51529 0.0
H141 H 0.82505 0.22425 0.45308 0.0
H142 H 0.74659 0.28911 0.44933 0.0
H143 H 0.69723 0.36753 0.47466 0.0
Mn144 Mn 0.17535 0.13758 0.35345 0.0
Mn145 Mn 0.30076 0.10627 0.37705 0.0
C146 C 0.24957 0.15486 0.27742 0.0
C147 C 0.14033 0.22072 0.3185 0.0
C148 C 0.20291 0.01802 0.35385 0.0
O149 O 0.1809 0.12505 0.44167 0.0
O150 O 0.27003 0.12706 0.44859 0.0
C151 C 0.35478 0.21363 0.41727 0.0
N152 N 0.35634 0.16529 0.38649 0.0
C153 C 0.45219 0.1808 0.37231 0.0
C154 C 0.4516 0.23056 0.4047 0.0
C155 C 0.40266 0.24753 0.42626 0.0
C156 C 0.40311 0.14904 0.36432 0.0
H157 H 0.3172 0.22567 0.43509 0.0
C158 C 0.22416 0.12736 0.47128 0.0
O159 O 0.13988 0.17569 0.28724 0.0
O160 O 0.16688 0.21948 0.36465 0.0
N161 N 0.33784 0.0866 0.31385 0.0
C162 C 0.31414 0.05343 0.26155 0.0
C163 C 0.39533 0.02492 0.19584 0.0
C164 C 0.45443 0.05173 0.22727 0.0
C165 C 0.45315 0.08915 0.28946 0.0
C166 C 0.39792 0.10447 0.32707 0.0
H167 H 0.27039 0.04476 0.25852 0.0
O168 O 0.19909 0.14775 0.26677 0.0
O169 O 0.25538 0.15304 0.33163 0.0
O170 O 0.16984 0.05209 0.33708 0.0
O171 O 0.25045 0.03557 0.3706 0.0
C172 C 0.49996 0.1193 0.30725 0.0
C173 C 0.49972 0.16434 0.34648 0.0
H174 H 0.48839 0.25706 0.41186 0.0
H175 H 0.40196 0.28651 0.45 0.0
H176 H 0.39654 0.00238 0.15529 0.0
H177 H 0.49202 0.05014 0.20481 0.0
H178 H 0.53625 0.11052 0.28634 0.0
H179 H 0.53726 0.18914 0.35457 0.0
Mn180 Mn 0.34588 0.73314 0.83728 0.0
Mn181 Mn 0.36076 0.58605 0.85954 0.0
C182 C 0.25518 0.68729 0.83855 0.0
C183 C 0.33497 0.78886 0.75534 0.0
C184 C 0.36646 0.69284 0.96014 0.0
O185 O 0.42639 0.71827 0.82699 0.0
O186 O 0.4313 0.6247 0.83887 0.0
C187 C 0.4174 0.52162 0.73091 0.0
N188 N 0.37745 0.50504 0.78617 0.0
C189 C 0.26963 0.46827 0.70519 0.0
C190 C 0.31568 0.48673 0.64713 0.0
C191 C 0.38889 0.51328 0.65937 0.0
C192 C 0.29335 0.47275 0.77466 0.0
H193 H 0.40157 0.51566 0.77358 0.0
C194 C 0.45273 0.67455 0.82963 0.0
O195 O 0.35103 0.81145 0.8034 0.0
O196 O 0.33451 0.73558 0.75314 0.0
N197 N 0.28431 0.55766 0.87673 0.0
C198 C 0.24527 0.60128 0.9119 0.0
C199 C 0.17048 0.58982 0.89962 0.0
C200 C 0.14183 0.53429 0.84931 0.0
C201 C 0.1828 0.48934 0.80416 0.0
C202 C 0.25302 0.49475 0.81729 0.0
H203 H 0.27978 0.58085 0.89498 0.0
O204 O 0.26653 0.73993 0.84298 0.0
O205 O 0.30521 0.66026 0.8421 0.0
O206 O 0.35867 0.73434 0.92693 0.0
O207 O 0.36572 0.64039 0.93732 0.0
C208 C 0.1722 0.4786 0.74304 0.0
C209 C 0.21251 0.47024 0.69948 0.0
H210 H 0.29148 0.4825 0.6047 0.0
H211 H 0.3524 0.50051 0.64498 0.0
H212 H 0.14271 0.6099 0.92326 0.0
H213 H 0.10961 0.51159 0.867 0.0
H214 H 0.17077 0.46892 0.78545 0.0
H215 H 0.19812 0.47274 0.65665 0.0
Mn216 Mn 0.75027 0.83417 0.34756 0.0
Mn217 Mn 0.62217 0.85661 0.37218 0.0
C218 C 0.6795 0.81499 0.26902 0.0
C219 C 0.79787 0.75802 0.30838 0.0
C220 C 0.71152 0.94865 0.35753 0.0
O221 O 0.74046 0.84988 0.43485 0.0
O222 O 0.65165 0.83254 0.44341 0.0
C223 C 0.56601 0.74914 0.40263 0.0
N224 N 0.56741 0.79698 0.37267 0.0
C225 C 0.47144 0.78768 0.35894 0.0
C226 C 0.46899 0.73788 0.3895 0.0
C227 C 0.51645 0.71822 0.41082 0.0
C228 C 0.52198 0.8163 0.35154 0.0
H229 H 0.60234 0.7359 0.42139 0.0
C230 C 0.69754 0.84586 0.46515 0.0
O231 O 0.78981 0.80256 0.28022 0.0
O232 O 0.76989 0.75272 0.35411 0.0
N233 N 0.5894 0.88113 0.3087 0.0
C234 C 0.61508 0.91887 0.26105 0.0
C235 C 0.53579 0.954 0.19875 0.0
C236 C 0.47578 0.92535 0.22635 0.0
C237 C 0.47536 0.88288 0.28354 0.0
C238 C 0.52914 0.8632 0.31892 0.0
H239 H 0.65889 0.92701 0.25918 0.0
O240 O 0.73026 0.82265 0.25974 0.0
O241 O 0.67166 0.81452 0.32328 0.0
O242 O 0.74589 0.91833 0.33474 0.0
O243 O 0.66722 0.92798 0.37723 0.0
C244 C 0.4274 0.85536 0.30095 0.0
C245 C 0.42507 0.80873 0.33642 0.0
H246 H 0.43075 0.7141 0.39659 0.0
H247 H 0.51459 0.68011 0.43469 0.0
H248 H 0.53582 0.97934 0.16091 0.0
H249 H 0.43866 0.92979 0.20438 0.0
H250 H 0.3916 0.86925 0.28476 0.0
H251 H 0.38608 0.78726 0.34509 0.0
Mn252 Mn 0.57615 0.22759 0.86201 0.0
Mn253 Mn 0.53246 0.35421 0.87955 0.0
C254 C 0.65114 0.29231 0.86193 0.0
C255 C 0.59985 0.17032 0.78038 0.0
C256 C 0.56057 0.2685 0.97931 0.0
O257 O 0.49167 0.21858 0.85723 0.0
O258 O 0.49545 0.30299 0.82726 0.0
C259 C 0.49305 0.43229 0.763 0.0
N260 N 0.52721 0.41511 0.81766 0.0
C261 C 0.63062 0.50329 0.75913 0.0
C262 C 0.58479 0.5132 0.70352 0.0
C263 C 0.51808 0.47854 0.70649 0.0
C264 C 0.58303 0.43943 0.83199 0.0
H265 H 0.45725 0.40651 0.75325 0.0
C266 C 0.46771 0.26086 0.84261 0.0
O267 O 0.59495 0.15024 0.83046 0.0
O268 O 0.58504 0.21971 0.77704 0.0
N269 N 0.57113 0.40747 0.92429 0.0
C270 C 0.58911 0.39642 0.97533 0.0
C271 C 0.63866 0.37584 0.97372 0.0
C272 C 0.67388 0.39672 0.93089 0.0
C273 C 0.66588 0.44418 0.89678 0.0
C274 C 0.60584 0.42729 0.88579 0.0
H275 H 0.56043 0.38731 0.00858 0.0
O276 O 0.65136 0.24105 0.87302 0.0
O277 O 0.60245 0.31208 0.85031 0.0
O278 O 0.57752 0.22862 0.94964 0.0
O279 O 0.53076 0.30351 0.95377 0.0
C280 C 0.71939 0.50809 0.82957 0.0
C281 C 0.69141 0.52641 0.77099 0.0
H282 H 0.59728 0.53859 0.66787 0.0
H283 H 0.49342 0.48112 0.66937 0.0
H284 H 0.64863 0.34316 0.00106 0.0
H285 H 0.70195 0.36994 0.91756 0.0
H286 H 0.76074 0.51604 0.82594 0.0
H287 H 0.71447 0.54859 0.73878 0.0
Mn288 Mn 0.22743 0.82871 0.64985 0.0
Mn289 Mn 0.10332 0.86569 0.62792 0.0
C290 C 0.15339 0.76252 0.65918 0.0
C291 C 0.29837 0.81541 0.71568 0.0
C292 C 0.17573 0.83719 0.5317 0.0
O293 O 0.23717 0.91415 0.65502 0.0
O294 O 0.15489 0.93178 0.62439 0.0
C295 C 0.09441 0.93816 0.73018 0.0
N296 N 0.07633 0.89249 0.69818 0.0
C297 C -0.00342 0.87938 0.7548 0.0
C298 C 0.01391 0.92624 0.78809 0.0
C299 C 0.06336 0.95563 0.77587 0.0
C300 C 0.0292 0.86378 0.70989 0.0
H301 H 0.13178 0.96191 0.72084 0.0
C302 C 0.20249 0.94766 0.63984 0.0
O303 O 0.3068 0.81773 0.66147 0.0
O304 O 0.24961 0.82228 0.73128 0.0
N305 N 0.04751 0.80755 0.63188 0.0
C306 C 0.03956 0.76043 0.59932 0.0
C307 C -0.00556 0.72317 0.60971 0.0
C308 C -0.04259 0.73635 0.6515 0.0
C309 C -0.03208 0.7841 0.68611 0.0
C310 C 0.01431 0.81835 0.67523 0.0
H311 H 0.06891 0.75092 0.56763 0.0
O312 O 0.20106 0.74755 0.64723 0.0
O313 O 0.15058 0.81667 0.66545 0.0
O314 O 0.21852 0.834 0.56142 0.0
O315 O 0.12893 0.84041 0.55386 0.0
C316 C 0.93527 0.79871 0.73177 0.0
C317 C 0.94824 0.84731 0.76459 0.0
H318 H -0.0103 0.93982 0.82317 0.0
H319 H 0.07722 0.99205 0.80115 0.0
H320 H -0.01214 0.68421 0.58614 0.0
H321 H 0.92167 0.70875 0.65648 0.0
H322 H 0.90154 0.77207 0.74417 0.0
H323 H 0.92143 0.85896 0.79805 0.0
Mn324 Mn 0.6116 0.71714 0.15241 0.0
Mn325 Mn 0.60078 0.83801 0.11133 0.0
C326 C 0.63904 0.78919 0.22392 0.0
C327 C 0.69368 0.6716 0.17237 0.0
C328 C 0.50285 0.75728 0.14544 0.0
O329 O 0.60745 0.70305 0.06373 0.0
O330 O 0.61076 0.79246 0.03921 0.0
C331 C 0.70571 0.87302 0.0604 0.0
N332 N 0.66553 0.88425 0.09712 0.0
C333 C 0.70562 0.97758 0.11522 0.0
C334 C 0.74704 0.96689 0.07694 0.0
C335 C 0.74725 0.91442 0.04972 0.0
C336 C 0.66488 0.93488 0.12388 0.0
H337 H 0.70565 0.83279 0.039 0.0
C338 C 0.60796 0.74043 0.02513 0.0
O339 O 0.6471 0.64796 0.18271 0.0
O340 O 0.69207 0.71627 0.14619 0.0
N341 N 0.58977 0.88478 0.17203 0.0
C342 C 0.54948 0.86982 0.2209 0.0
C343 C 0.545 0.95885 0.28914 0.0
C344 C 0.58896 0.01101 0.26277 0.0
C345 C 0.62601 -0.00027 0.20297 0.0
C346 C 0.62474 0.9402 0.16327 0.0
H347 H 0.52978 0.8278 0.22296 0.0
O348 O 0.6165 0.7415 0.23583 0.0
O349 O 0.64164 0.79528 0.16853 0.0
O350 O 0.52957 0.71767 0.16234 0.0
O351 O 0.5264 0.80049 0.12278 0.0
C352 C 0.66743 0.03908 0.18731 0.0
C353 C 0.70558 0.02878 0.14522 0.0
H354 H 0.77955 -0.00145 0.06873 0.0
H355 H 0.77922 0.90606 0.02037 0.0
H356 H 0.523 0.96606 0.32834 0.0
H357 H 0.59632 0.04868 0.28722 0.0
H358 H 0.67293 0.07761 0.20958 0.0
H359 H 0.73741 0.06133 0.13746 0.0
Mn360 Mn 0.70466 0.15087 0.66374 0.0
Mn361 Mn 0.82975 0.12856 0.63499 0.0
C362 C 0.77014 0.2264 0.68276 0.0
C363 C 0.63561 0.1492 0.73559 0.0
C364 C 0.74748 0.13439 0.54298 0.0
O365 O 0.70646 0.06553 0.6575 0.0
O366 O 0.79557 0.05223 0.6553 0.0
C367 C 0.89742 0.08214 0.71827 0.0
N368 N 0.88992 0.12579 0.68418 0.0
C369 C -0.01717 0.12898 0.65192 0.0
C370 C -0.00914 0.08373 0.6868 0.0
C371 C 0.94864 0.06151 0.72141 0.0
C372 C 0.93233 0.1502 0.65383 0.0
H373 H 0.86342 0.06052 0.73933 0.0
C374 C 0.74552 0.03342 0.65497 0.0
O375 O 0.62415 0.14977 0.6821 0.0
O376 O 0.68587 0.14683 0.7467 0.0
N377 N 0.8604 0.19816 0.61452 0.0
C378 C 0.83141 0.24568 0.5857 0.0
C379 C 0.90538 0.3127 0.53367 0.0
C380 C -0.03275 0.28712 0.54505 0.0
C381 C -0.02806 0.22826 0.58408 0.0
C382 C 0.92091 0.19059 0.61693 0.0
H383 H 0.78749 0.2423 0.58273 0.0
O384 O 0.72042 0.23449 0.67214 0.0
O385 O 0.78064 0.17291 0.6813 0.0
O386 O 0.70897 0.15301 0.57279 0.0
O387 O 0.79006 0.12347 0.56617 0.0
C388 C 0.01925 0.20083 0.58376 0.0
C389 C 0.0217 0.14948 0.61175 0.0
H390 H 0.02924 0.06526 0.68696 0.0
H391 H 0.95464 0.02614 0.74766 0.0
H392 H 0.90263 0.34875 0.50662 0.0
H393 H 0.00283 0.30672 0.52494 0.0
H394 H 0.05287 0.21632 0.55775 0.0
H395 H 0.0548 0.1246 0.60114 0.0
Mn396 Mn 0.30077 0.26735 0.17743 0.0
Mn397 Mn 0.33323 0.1459 0.12267 0.0
C398 C 0.2884 0.18981 0.23807 0.0
C399 C 0.22178 0.32584 0.20598 0.0
C400 C 0.42002 0.23836 0.16204 0.0
O401 O 0.31093 0.27434 0.08328 0.0
O402 O 0.32771 0.18946 0.05257 0.0
C403 C 0.22984 0.11494 0.06631 0.0
N404 N 0.26966 0.10021 0.10096 0.0
C405 C 0.22778 0.00678 0.10853 0.0
C406 C 0.18729 0.02074 0.0714 0.0
C407 C 0.18801 0.07513 0.05069 0.0
C408 C 0.26892 0.04813 0.12199 0.0
H409 H 0.2302 0.15695 0.05079 0.0
C410 C 0.32155 0.23956 0.04062 0.0
O411 O 0.27091 0.34685 0.19709 0.0
O412 O 0.21839 0.27277 0.19865 0.0
N413 N 0.34117 0.09558 0.17819 0.0
C414 C 0.38013 0.10656 0.22871 0.0
C415 C 0.38434 0.01226 0.28501 0.0
C416 C 0.34141 0.9624 0.25208 0.0
C417 C 0.30537 0.97795 0.19385 0.0
C418 C 0.30725 0.04046 0.16166 0.0
H419 H 0.40002 0.14844 0.23532 0.0
O420 O 0.30048 0.24013 0.25706 0.0
O421 O 0.2896 0.18597 0.18165 0.0
O422 O 0.38617 0.27426 0.17621 0.0
O423 O 0.40392 0.18935 0.14274 0.0
C424 C 0.26223 0.94104 0.17578 0.0
C425 C 0.22559 0.9543 0.13411 0.0
H426 H 0.15442 0.99035 0.05972 0.0
H427 H 0.15629 0.08635 0.023 0.0
H428 H 0.40552 0.00201 0.32334 0.0
H429 H 0.33174 0.92502 0.27375 0.0
H430 H 0.25302 0.90299 0.19718 0.0
H431 H 0.19266 0.92343 0.12384 0.0
Mn432 Mn 0.82577 0.65404 0.73762 0.0
Mn433 Mn 0.84799 0.65405 0.87123 0.0
C434 C 0.74759 0.66184 0.79917 0.0
C435 C 0.8166 0.72486 0.67043 0.0
C436 C 0.84396 0.53913 0.79005 0.0
O437 O 0.91105 0.66486 0.74497 0.0
O438 O 0.91653 0.6655 0.83825 0.0
C439 C 0.88287 0.77644 0.88087 0.0
N440 N 0.85325 0.73122 0.90117 0.0
C441 C 0.83244 0.78224 0.98684 0.0
C442 C 0.86368 0.82912 0.96693 0.0
C443 C 0.88775 0.82674 0.91308 0.0
C444 C 0.82635 0.73587 0.9508 0.0
H445 H 0.90489 0.77267 0.84211 0.0
C446 C 0.93845 0.6685 0.79118 0.0
O447 O 0.8208 0.67362 0.65349 0.0
O448 O 0.81982 0.73358 0.72321 0.0
N449 N 0.78806 0.65109 0.91238 0.0
C450 C 0.75623 0.59702 0.90716 0.0
C451 C 0.70851 0.56975 0.99948 0.0
C452 C 0.72349 0.62491 0.04799 0.0
C453 C 0.76456 0.68383 0.02745 0.0
C454 C 0.79255 0.69201 0.96269 0.0
H455 H 0.75199 0.58867 0.8652 0.0
O456 O 0.74224 0.64643 0.74708 0.0
O457 O 0.7992 0.67228 0.81163 0.0
O458 O 0.83283 0.56756 0.74643 0.0
O459 O 0.84603 0.56593 0.84046 0.0
C460 C 0.78043 0.73072 0.06243 0.0
C461 C 0.81061 0.77905 0.04204 0.0
H462 H 0.87009 0.86682 0.99281 0.0
H463 H 0.91244 0.86258 0.89799 0.0
H464 H 0.67138 0.54504 0.00853 0.0
H465 H 0.70311 0.6213 0.08699 0.0
H466 H 0.77278 0.73137 0.10651 0.0
H467 H 0.81924 0.81399 0.07125 0.0
Mn468 Mn 0.80648 0.33342 0.30177 0.0
Mn469 Mn 0.82769 0.3638 0.18392 0.0
C470 C 0.72352 0.31657 0.23685 0.0
C471 C 0.80652 0.24397 0.34635 0.0
C472 C 0.82681 0.45596 0.27657 0.0
O473 O 0.89269 0.34268 0.29908 0.0
O474 O 0.89408 0.33198 0.20711 0.0
C475 C 0.81778 0.24938 0.13539 0.0
N476 N 0.81838 0.30589 0.13212 0.0
C477 C 0.80749 0.30419 0.03442 0.0
C478 C 0.80184 0.24549 0.03467 0.0
C479 C 0.80567 0.21754 0.08621 0.0
C480 C 0.80709 0.33207 0.08547 0.0
H481 H 0.82421 0.2297 0.17522 0.0
C482 C 0.91916 0.33519 0.25331 0.0
O483 O 0.8051 0.29065 0.3736 0.0
O484 O 0.81232 0.24973 0.29378 0.0
N485 N 0.76872 0.39145 0.15588 0.0
C486 C 0.72365 0.42533 0.18318 0.0
C487 C 0.67388 0.47272 0.10056 0.0
C488 C 0.70348 0.45242 0.03913 0.0
C489 C 0.7548 0.4085 0.03834 0.0
C490 C 0.78218 0.38146 0.0937 0.0
H491 H 0.72047 0.42847 0.22921 0.0
O492 O 0.71914 0.32154 0.2907 0.0
O493 O 0.77536 0.32039 0.22702 0.0
O494 O 0.8044 0.42239 0.31332 0.0
O495 O 0.84149 0.43518 0.22962 0.0
C496 C 0.76686 0.37717 0.99037 0.0
C497 C 0.80248 0.33519 0.98662 0.0
H498 H 0.79475 0.22152 0.99573 0.0
H499 H 0.80212 0.17229 0.08722 0.0
H500 H 0.64072 0.50003 0.09977 0.0
H501 H 0.6847 0.46465 0.00321 0.0
H502 H 0.73408 0.34573 0.98643 0.0
H503 H 0.80823 0.3148 0.94612 0.0
Mn504 Mn 0.08814 0.33803 0.75458 0.0
Mn505 Mn 0.05245 0.32502 0.86744 0.0
C506 C 0.16806 0.30046 0.80118 0.0
C507 C 0.10449 0.25345 0.69218 0.0
C508 C 0.05149 0.45312 0.80885 0.0
O509 O 0.00759 0.32788 0.74634 0.0
O510 O -0.01787 0.30374 0.83367 0.0
C511 C -0.00576 0.27206 0.9841 0.0
N512 N 0.04278 0.28424 0.94609 0.0
C513 C 0.10979 0.22181 0.05348 0.0
C514 C 0.061 0.19852 0.09001 0.0
C515 C 0.00462 0.21589 0.0735 0.0
C516 C 0.09615 0.27364 0.96906 0.0
H517 H -0.04184 0.28929 0.96717 0.0
C518 C -0.0286 0.31806 0.78354 0.0
O519 O 0.10989 0.30359 0.67574 0.0
O520 O 0.08627 0.25129 0.7416 0.0
N521 N 0.11779 0.34243 0.89501 0.0
C522 C 0.14512 0.38598 0.85819 0.0
C523 C 0.18942 0.4211 0.88211 0.0
C524 C 0.21252 0.42043 0.97604 0.0
C525 C 0.17269 0.36169 0.00856 0.0
C526 C 0.12569 0.32484 0.95632 0.0
H527 H 0.12126 0.35737 0.87431 0.0
O528 O 0.17152 0.34044 0.7656 0.0
O529 O 0.11484 0.28554 0.81511 0.0
O530 O 0.0764 0.42895 0.76689 0.0
O531 O 0.04114 0.41763 0.85209 0.0
C532 C 0.18429 0.29828 0.095 0.0
C533 C 0.15223 0.24017 0.0994 0.0
H534 H 0.06609 0.17805 0.12984 0.0
H535 H -0.02498 0.20141 0.10576 0.0
H536 H 0.20483 0.42759 0.92509 0.0
H537 H 0.24816 0.4388 0.99634 0.0
H538 H 0.22167 0.29108 0.11351 0.0
H539 H 0.15883 0.21322 0.13445 0.0
Mn540 Mn 0.12139 0.62254 0.26389 0.0
Mn541 Mn 0.09443 0.63187 0.12875 0.0
C542 C 0.19952 0.66342 0.21362 0.0
C543 C 0.12214 0.71531 0.32218 0.0
C544 C 0.09106 0.52129 0.18783 0.0
O545 O 0.04117 0.61481 0.26246 0.0
O546 O 0.02862 0.65113 0.17769 0.0
C547 C 0.00015 0.64133 0.06899 0.0
N548 N 0.05407 0.62236 0.05321 0.0
C549 C 0.04818 0.71266 0.9356 0.0
C550 C -0.01033 0.73525 0.94866 0.0
C551 C -0.04175 0.71656 0.00547 0.0
C552 C 0.08569 0.64146 0.99765 0.0
H553 H -0.01822 0.61782 0.10413 0.0
C554 C 0.01043 0.63272 0.22581 0.0
O555 O 0.12977 0.66832 0.34058 0.0
O556 O 0.11218 0.70948 0.27124 0.0
N557 N 0.14906 0.61176 0.08589 0.0
C558 C 0.20279 0.58122 0.09934 0.0
C559 C 0.27928 0.63031 0.02941 0.0
C560 C 0.24963 0.68485 0.99693 0.0
C561 C 0.18573 0.71015 0.01284 0.0
C562 C 0.13905 0.65514 0.0381 0.0
H563 H 0.20347 0.54909 0.13127 0.0
O564 O 0.20323 0.63537 0.25835 0.0
O565 O 0.14828 0.65952 0.19476 0.0
O566 O 0.1202 0.54306 0.22876 0.0
O567 O 0.0763 0.5507 0.14705 0.0
C568 C 0.13799 0.7922 0.95363 0.0
C569 C 0.08036 0.77401 0.9235 0.0
H570 H -0.02387 0.76947 0.92535 0.0
H571 H 0.9213 0.73754 0.01112 0.0
H572 H 0.31612 0.61386 0.01466 0.0
H573 H 0.27247 0.70048 0.96224 0.0
H574 H 0.15496 0.83301 0.93876 0.0
H575 H 0.06177 0.80505 0.89918 0.0
Mn576 Mn 0.74204 0.84729 0.64358 0.0
Mn577 Mn 0.62506 0.90005 0.62347 0.0
C578 C 0.67576 0.83968 0.71648 0.0
C579 C 0.79313 0.76851 0.63926 0.0
C580 C 0.72913 0.97251 0.64578 0.0
O581 O 0.73995 0.85448 0.55681 0.0
O582 O 0.65339 0.87401 0.54871 0.0
C583 C 0.55034 0.80981 0.57592 0.0
N584 N 0.56421 0.84705 0.6187 0.0
C585 C 0.47453 0.83859 0.65644 0.0
C586 C 0.45903 0.79998 0.61305 0.0
C587 C 0.49736 0.78496 0.57298 0.0
C588 C 0.52799 0.86057 0.65837 0.0
H589 H 0.57895 0.80047 0.5433 0.0
C590 C 0.69782 0.85928 0.52713 0.0
O591 O 0.81576 0.81921 0.64287 0.0
O592 O 0.7413 0.76426 0.63441 0.0
N593 N 0.59515 0.9247 0.69324 0.0
C594 C 0.61616 0.96315 0.73213 0.0
C595 C 0.58405 0.97955 0.77745 0.0
C596 C 0.53034 0.95726 0.78154 0.0
C597 C 0.50992 0.91776 0.74104 0.0
C598 C 0.54469 0.90087 0.69847 0.0
H599 H 0.65701 0.98136 0.72881 0.0
O600 O 0.72672 0.83858 0.72673 0.0
O601 O 0.66538 0.84644 0.66325 0.0
O602 O 0.75955 0.93356 0.65638 0.0
O603 O 0.6813 0.96203 0.62799 0.0
C604 C 0.45585 0.89632 0.73956 0.0
C605 C 0.43827 0.8586 0.69596 0.0
H606 H 0.41771 0.78217 0.60975 0.0
H607 H 0.48566 0.75576 0.53891 0.0
H608 H 0.60032 0.01009 0.80845 0.0
H609 H 0.50509 0.97098 0.81568 0.0
H610 H 0.42713 0.91006 0.77031 0.0
H611 H 0.39656 0.84704 0.69134 0.0
Mn612 Mn 0.59665 0.22744 0.16188 0.0
Mn613 Mn 0.57294 0.34941 0.15606 0.0
C614 C 0.67546 0.2939 0.19423 0.0
C615 C 0.61133 0.16973 0.24362 0.0
C616 C 0.57469 0.27232 0.04544 0.0
O617 O 0.5132 0.21476 0.16454 0.0
O618 O 0.49956 0.30527 0.16554 0.0
C619 C 0.5278 0.3705 0.26773 0.0
N620 N 0.56369 0.38724 0.2266 0.0
C621 C 0.58539 0.47509 0.27485 0.0
C622 C 0.54708 0.45929 0.31648 0.0
C623 C 0.51875 0.40656 0.31331 0.0
C624 C 0.59231 0.43768 0.22953 0.0
H625 H 0.50574 0.32988 0.26546 0.0
C626 C 0.48087 0.25367 0.16543 0.0
O627 O 0.61552 0.15236 0.19264 0.0
O628 O 0.59515 0.218 0.24779 0.0
N629 N 0.63775 0.39639 0.14837 0.0
C630 C 0.68708 0.38575 0.10916 0.0
C631 C 0.75923 0.47551 0.11641 0.0
C632 C 0.7342 0.52134 0.1637 0.0
C633 C 0.6741 0.50624 0.19757 0.0
C634 C 0.63177 0.44754 0.18907 0.0
H635 H 0.68698 0.34614 0.08566 0.0
O636 O 0.68063 0.24953 0.16459 0.0
O637 O 0.62323 0.30112 0.19766 0.0
O638 O 0.5929 0.23121 0.07176 0.0
O639 O 0.57291 0.31885 0.07364 0.0
C640 C 0.66043 0.54006 0.24337 0.0
C641 C 0.6174 0.5257 0.27986 0.0
H642 H 0.54017 0.48686 0.35218 0.0
H643 H 0.48993 0.39378 0.34587 0.0
H644 H 0.79863 0.48533 0.09678 0.0
H645 H 0.75934 0.5566 0.17383 0.0
H646 H 0.68501 0.57665 0.2547 0.0
H647 H 0.61098 0.55387 0.31526 0.0
Mn648 Mn 0.19035 0.13047 0.65427 0.0
Mn649 Mn 0.31215 0.08996 0.62188 0.0
C650 C 0.25631 0.12765 0.72464 0.0
C651 C 0.13547 0.20738 0.6694 0.0
C652 C 0.21756 0.00783 0.63872 0.0
O653 O 0.18762 0.13481 0.56688 0.0
O654 O 0.27204 0.1093 0.55296 0.0
C655 C 0.36464 0.19531 0.5779 0.0
N656 N 0.36213 0.15392 0.61654 0.0
C657 C 0.4444 0.19153 0.66016 0.0
C658 C 0.44827 0.2345 0.62077 0.0
C659 C 0.40803 0.23655 0.57964 0.0
C660 C 0.40061 0.15152 0.65627 0.0
H661 H 0.334 0.19656 0.54589 0.0
C662 C 0.22665 0.12363 0.53419 0.0
O663 O 0.11618 0.15572 0.66812 0.0
O664 O 0.18678 0.21471 0.66198 0.0
N665 N 0.35219 0.07041 0.68581 0.0
C666 C 0.34185 0.02689 0.72155 0.0
C667 C 0.37673 0.02049 0.76686 0.0
C668 C 0.42193 0.05861 0.77459 0.0
C669 C 0.43129 0.10298 0.73718 0.0
C670 C 0.39499 0.10763 0.69321 0.0
H671 H 0.3069 -0.00237 0.71614 0.0
O672 O 0.20562 0.12458 0.73645 0.0
O673 O 0.26701 0.13258 0.67099 0.0
O674 O 0.18228 0.04337 0.6483 0.0
O675 O 0.26647 0.02129 0.62754 0.0
C676 C 0.47482 0.14329 0.74248 0.0
C677 C 0.48208 0.1871 0.70346 0.0
H678 H 0.48183 0.26622 0.62187 0.0
H679 H 0.41059 0.26986 0.54947 0.0
H680 H 0.36862 0.9865 0.79583 0.0
H681 H 0.44891 0.05375 0.80962 0.0
H682 H 0.5017 0.14062 0.77739 0.0
H683 H 0.51591 0.21795 0.70704 0.0
Mn684 Mn 0.33471 0.75814 0.14701 0.0
Mn685 Mn 0.34293 0.68494 0.14542 0.0
C686 C 0.24902 0.70833 0.20211 0.0
C687 C 0.32033 0.81896 0.22862 0.0
C688 C 0.36411 0.70634 0.0294 0.0
O689 O 0.41364 0.78883 0.13194 0.0
O690 O 0.41686 0.7128 0.17335 0.0
C691 C 0.39791 0.61227 0.22205 0.0
N692 N 0.36272 0.61824 0.17877 0.0
C693 C 0.36466 0.52338 0.15068 0.0
C694 C 0.40306 0.51597 0.19263 0.0
C695 C 0.41811 0.56022 0.23023 0.0
C696 C 0.34133 0.57455 0.14943 0.0
H697 H 0.41173 0.64747 0.24896 0.0
C698 C 0.44271 0.75386 0.15154 0.0
O699 O 0.31118 0.83238 0.17786 0.0
O700 O 0.34534 0.77544 0.2315 0.0
N701 N 0.27657 0.64348 0.1232 0.0
C702 C 0.22773 0.66734 0.08995 0.0
C703 C 0.2008 0.59372 0.00979 0.0
C704 C 0.23701 0.53866 0.01843 0.0
C705 C 0.28334 0.53686 0.06702 0.0
C706 C 0.29898 0.58501 0.11547 0.0
H707 H 0.20073 0.69613 0.10792 0.0
O708 O 0.25024 0.74438 0.1638 0.0
O709 O 0.29892 0.70024 0.21118 0.0
O710 O 0.33419 0.74375 0.05287 0.0
O711 O 0.37898 0.67219 0.06704 0.0
C712 C 0.31812 0.49348 0.06416 0.0
C713 C 0.35406 0.48411 0.10734 0.0
H714 H 0.42166 0.47679 0.1959 0.0
H715 H 0.44714 0.55508 0.26328 0.0
H716 H 0.16201 0.5764 0.99743 0.0
H717 H 0.20888 0.50428 0.02443 0.0
H718 H 0.32043 0.46701 0.02729 0.0
H719 H 0.37683 0.44742 0.10445 0.0
Mn720 Mn 0.70167 0.12891 0.36165 0.0
Mn721 Mn 0.82427 0.09113 0.38037 0.0
C722 C 0.77137 0.19631 0.36387 0.0
C723 C 0.64186 0.14795 0.2899 0.0
C724 C 0.74989 0.1255 0.4794 0.0
O725 O 0.69099 0.04392 0.3493 0.0
O726 O 0.77059 0.0256 0.38445 0.0
C727 C 0.81845 0.02917 0.26894 0.0
N728 N 0.84589 0.0661 0.30543 0.0
C729 C 0.92037 0.07591 0.23961 0.0
C730 C 0.89381 0.03599 0.20351 0.0
C731 C 0.84215 0.01326 0.21783 0.0
C732 C 0.89426 0.09066 0.2899 0.0
H733 H 0.77826 0.01218 0.27734 0.0
C734 C 0.72426 0.00962 0.36494 0.0
O735 O 0.62473 0.14209 0.34164 0.0
O736 O 0.69137 0.14061 0.28091 0.0
N737 N 0.88671 0.14555 0.37369 0.0
C738 C 0.90739 0.18696 0.41156 0.0
C739 C -0.04241 0.21478 0.39862 0.0
C740 C -0.01293 0.20118 0.35069 0.0
C741 C -0.03332 0.15968 0.31288 0.0
C742 C 0.91643 0.13226 0.32483 0.0
H743 H 0.87692 0.15567 0.40059 0.0
O744 O 0.72253 0.20827 0.37313 0.0
O745 O 0.77807 0.14424 0.3495 0.0
O746 O 0.70663 0.12282 0.44944 0.0
O747 O 0.79747 0.11764 0.45764 0.0
C748 C -0.00528 0.14426 0.26391 0.0
C749 C -0.02855 0.10238 0.22711 0.0
H750 H 0.91223 0.02333 0.16422 0.0
H751 H 0.82046 0.98353 0.18947 0.0
H752 H -0.02588 0.24754 0.42706 0.0
H753 H 0.0257 0.2233 0.34355 0.0
H754 H 0.03389 0.16469 0.25388 0.0
H755 H -0.00708 0.09123 0.18912 0.0
Mn756 Mn 0.29546 0.22181 0.84619 0.0
Mn757 Mn 0.33178 0.355 0.88517 0.0
C758 C 0.22205 0.2779 0.82692 0.0
C759 C 0.29013 0.1573 0.76797 0.0
C760 C 0.32074 0.25256 0.97295 0.0
O761 O 0.37708 0.22563 0.8486 0.0
O762 O 0.39756 0.31873 0.85939 0.0
C763 C 0.36154 0.40499 0.77957 0.0
N764 N 0.34823 0.42619 0.83897 0.0
C765 C 0.31907 0.56325 0.79215 0.0
C766 C 0.32976 0.54496 0.7276 0.0
C767 C 0.35781 0.44365 0.72011 0.0
C768 C 0.33225 0.48595 0.86191 0.0
H769 H 0.36778 0.3551 0.78119 0.0
C770 C 0.41065 0.26815 0.85165 0.0
O771 O 0.28967 0.14049 0.81976 0.0
O772 O 0.29839 0.21027 0.76229 0.0
N773 N 0.27084 0.38922 0.90796 0.0
C774 C 0.21261 0.34695 0.92078 0.0
C775 C 0.12884 0.42099 0.95065 0.0
C776 C 0.15275 0.489 0.94299 0.0
C777 C 0.21482 0.5097 0.90227 0.0
C778 C 0.2798 0.46101 0.90313 0.0
H779 H 0.21315 0.30262 0.92038 0.0
O780 O 0.21625 0.2263 0.8405 0.0
O781 O 0.27476 0.3018 0.83294 0.0
O782 O 0.29511 0.21823 0.93752 0.0
O783 O 0.33774 0.30134 0.95382 0.0
C784 C 0.22207 0.58011 0.81726 0.0
C785 C 0.26876 0.58949 0.77982 0.0
H786 H 0.32499 0.57587 0.69444 0.0
H787 H 0.36139 0.41875 0.74842 0.0
H788 H 0.08768 0.41245 0.96669 0.0
H789 H 0.12021 0.51497 0.95309 0.0
H790 H 0.21874 0.56569 0.83556 0.0
H791 H 0.266 0.61743 0.74461 0.0
Mn792 Mn 0.22088 0.83781 0.34877 0.0
Mn793 Mn 0.09333 0.86095 0.3774 0.0
C794 C 0.15545 0.76446 0.34237 0.0
C795 C 0.28448 0.8324 0.27588 0.0
C796 C 0.17649 0.84132 0.46873 0.0
O797 O 0.22515 0.92325 0.34819 0.0
O798 O 0.13789 0.93624 0.36449 0.0
C799 C 0.05633 0.9115 0.27325 0.0
N800 N 0.04762 0.87319 0.31452 0.0
C801 C 0.95092 0.87478 0.30645 0.0
C802 C -0.04084 0.91322 0.26264 0.0
C803 C 0.0119 0.9308 0.24522 0.0
C804 C -0.00325 0.85371 0.32889 0.0
H805 H 0.09677 0.92866 0.26357 0.0
C806 C 0.18717 0.95553 0.35443 0.0
O807 O 0.29936 0.83514 0.32857 0.0
O808 O 0.23403 0.8349 0.26634 0.0
N809 N 0.04611 0.79394 0.39072 0.0
C810 C 0.06037 0.74831 0.434 0.0
C811 C 0.01775 0.70947 0.47592 0.0
C812 C 0.95046 0.71688 0.47553 0.0
C813 C 0.93152 0.79309 0.39787 0.0
C814 C -0.00754 0.81486 0.3697 0.0
H815 H 0.10248 0.7437 0.44186 0.0
O816 O 0.20568 0.75656 0.34892 0.0
O817 O 0.14378 0.81639 0.33659 0.0
O818 O 0.21847 0.83745 0.43767 0.0
O819 O 0.13105 0.85058 0.4481 0.0
C820 C 0.88916 0.82243 0.37469 0.0
C821 C 0.89908 0.86025 0.3297 0.0
H822 H 0.92518 0.93028 0.2427 0.0
H823 H 0.01819 0.96129 0.21228 0.0
H824 H 0.03388 0.67891 0.50264 0.0
H825 H 0.92444 0.69186 0.50442 0.0
H826 H 0.84842 0.81809 0.39055 0.0
H827 H 0.86502 0.88043 0.31353 0.0
Mn828 Mn 0.62522 0.74287 0.83333 0.0
Mn829 Mn 0.59738 0.61644 0.88599 0.0
C830 C 0.69945 0.685 0.83208 0.0
C831 C 0.63866 0.80629 0.7553 0.0
C832 C 0.60538 0.72311 0.96186 0.0
O833 O 0.54073 0.72786 0.82735 0.0
O834 O 0.5317 0.63656 0.85083 0.0
C835 C 0.5498 0.51154 0.79511 0.0
N836 N 0.58879 0.54324 0.83814 0.0
C837 C 0.66951 0.43215 0.80396 0.0
C838 C 0.63799 0.40196 0.7552 0.0
C839 C 0.58314 0.42396 0.74039 0.0
C840 C 0.63586 0.51784 0.8548 0.0
H841 H 0.51209 0.53152 0.79037 0.0
C842 C 0.51237 0.68068 0.83336 0.0
O843 O 0.63003 0.8236 0.80653 0.0
O844 O 0.63364 0.75252 0.74866 0.0
N845 N 0.6638 0.60225 0.92252 0.0
C846 C 0.70372 0.64673 0.95525 0.0
C847 C 0.7926 0.59736 0.98984 0.0
C848 C 0.79027 0.53084 0.96885 0.0
C849 C 0.74084 0.50245 0.92835 0.0
C850 C 0.67365 0.54184 0.90835 0.0
H851 H 0.69543 0.69035 0.95717 0.0
O852 O 0.70488 0.7387 0.83866 0.0
O853 O 0.64757 0.66368 0.8314 0.0
O854 O 0.62182 0.75639 0.92257 0.0
O855 O 0.59155 0.67231 0.94941 0.0
C856 C 0.76184 0.44663 0.88951 0.0
C857 C 0.72941 0.41421 0.83009 0.0
H858 H 0.65244 0.36704 0.73186 0.0
H859 H 0.564 0.39729 0.70654 0.0
H860 H 0.82908 0.61416 0.00851 0.0
H861 H 0.82525 0.50787 0.97596 0.0
H862 H 0.80051 0.43333 0.9018 0.0
H863 H 0.75045 0.39807 0.79607 0.0
loop_
_geom_bond_atom_site_label_1
_geom_bond_atom_site_label_2
_geom_bond_distance
_geom_bond_site_symmetry_2
_ccdc_geom_bond_type
Mn0 O5 2.095 . S
Mn0 O15 2.162 . S
Mn0 O16 2.297 . S
Mn0 O24 2.385 . S
Mn0 O25 2.209 . S
Mn0 O26 2.094 . S
Mn1 O6 2.121 . S
Mn1 N8 2.257 . S
Mn1 N17 2.282 . S
Mn1 O25 2.215 . S
Mn1 O27 2.117 . S
C2 O24 1.234 . S
C2 O25 1.283 . S
C3 O15 1.281 . S
C3 O16 1.236 . S
C4 O26 1.240 . S
C4 O27 1.264 . S
O5 Mn0 2.095 . S
O5 C14 1.250 . S
O6 Mn1 2.121 . S
O6 C14 1.258 . S
C7 N8 1.326 . S
C7 C11 1.460 1_554 S
C7 H13 0.929 . S
N8 Mn1 2.257 . S
N8 C7 1.326 . S
N8 C12 1.362 . S
C9 C10 1.258 . S
C9 C12 1.431 1_556 S
C9 C29 1.449 . S
C10 C9 1.258 . S
C10 C11 1.477 . S
C10 H30 0.931 . S
C11 C7 1.460 1_556 S
C11 C10 1.477 . S
C11 H31 0.930 . S
C12 N8 1.362 . S
C12 C9 1.431 1_554 S
C12 C22 1.476 . S
H13 C7 0.929 . S
C14 O5 1.250 . S
C14 O6 1.258 . S
O15 Mn0 2.162 . S
O15 C3 1.281 . S
O16 Mn0 2.297 . S
O16 C3 1.236 . S
N17 Mn1 2.282 . S
N17 C18 1.328 . S
N17 C22 1.318 . S
C18 N17 1.328 . S
C18 C19 1.457 . S
C18 H23 0.929 . S
C19 C18 1.457 . S
C19 C20 1.291 . S
C19 H32 0.931 . S
C20 C19 1.291 . S
C20 C21 1.375 . S
C20 H33 0.929 1_554 S
C21 C20 1.375 . S
C21 C22 1.402 . S
C21 C28 1.395 1_554 S
C22 C12 1.476 . S
C22 N17 1.318 . S
C22 C21 1.402 . S
H23 C18 0.929 . S
O24 Mn0 2.385 . S
O24 C2 1.234 . S
O25 Mn0 2.209 . S
O25 Mn1 2.215 . S
O25 C2 1.283 . S
O26 Mn0 2.094 . S
O26 C4 1.240 . S
O27 Mn1 2.117 . S
O27 C4 1.264 . S
C28 C21 1.395 1_556 S
C28 C29 1.399 . S
C28 H34 0.929 . S
C29 C9 1.449 . S
C29 C28 1.399 . S
C29 H35 0.930 . S
H30 C10 0.931 . S
H31 C11 0.930 . S
H32 C19 0.931 . S
H33 C20 0.929 1_556 S
H34 C28 0.929 . S
H35 C29 0.930 . S
Mn36 O41 2.095 . S
Mn36 O51 2.162 . S
Mn36 O52 2.297 . S
Mn36 O60 2.385 . S
Mn36 O61 2.209 . S
Mn36 O62 2.094 . S
Mn37 O42 2.121 . S
Mn37 N44 2.257 . S
Mn37 N53 2.282 . S
Mn37 O61 2.215 . S
Mn37 O63 2.117 . S
C38 O60 1.234 . S
C38 O61 1.283 . S
C39 O51 1.281 . S
C39 O52 1.236 . S
C40 O62 1.240 . S
C40 O63 1.264 . S
O41 Mn36 2.095 . S
O41 C50 1.250 . S
O42 Mn37 2.121 . S
O42 C50 1.258 . S
C43 N44 1.326 . S
C43 C47 1.460 1_556 S
C43 H49 0.929 . S
N44 Mn37 2.257 . S
N44 C43 1.326 . S
N44 C48 1.362 . S
C45 C46 1.258 . S
C45 C48 1.431 1_554 S
C45 C65 1.449 . S
C46 C45 1.258 . S
C46 C47 1.477 . S
C46 H66 0.931 . S
C47 C43 1.460 1_554 S
C47 C46 1.477 . S
C47 H67 0.930 . S
C48 N44 1.362 . S
C48 C45 1.431 1_556 S
C48 C58 1.476 . S
H49 C43 0.929 . S
C50 O41 1.250 . S
C50 O42 1.258 . S
O51 Mn36 2.162 . S
O51 C39 1.281 . S
O52 Mn36 2.297 . S
O52 C39 1.236 . S
N53 Mn37 2.282 . S
N53 C54 1.328 . S
N53 C58 1.318 . S
C54 N53 1.328 . S
C54 C55 1.457 . S
C54 H59 0.929 . S
C55 C54 1.457 . S
C55 C56 1.291 . S
C55 H68 0.931 . S
C56 C55 1.291 . S
C56 C57 1.373 1_556 S
C56 H69 0.929 1_556 S
C57 C56 1.373 1_554 S
C57 C58 1.396 1_554 S
C57 C64 1.403 . S
C58 C48 1.476 . S
C58 N53 1.318 . S
C58 C57 1.396 1_556 S
H59 C54 0.929 . S
O60 Mn36 2.385 . S
O60 C38 1.234 . S
O61 Mn36 2.209 . S
O61 Mn37 2.215 . S
O61 C38 1.283 . S
O62 Mn36 2.094 . S
O62 C40 1.240 . S
O63 Mn37 2.117 . S
O63 C40 1.264 . S
C64 C57 1.403 . S
C64 C65 1.399 . S
C64 H70 0.929 . S
C65 C45 1.449 . S
C65 C64 1.399 . S
C65 H71 0.930 . S
H66 C46 0.931 . S
H67 C47 0.930 . S
H68 C55 0.931 . S
H69 C56 0.929 1_554 S
H70 C64 0.929 . S
H71 C65 0.930 . S
Mn72 O77 2.095 . S
Mn72 O87 2.162 . S
Mn72 O88 2.297 . S
Mn72 O96 2.385 . S
Mn72 O97 2.209 . S
Mn72 O98 2.094 . S
Mn73 O78 2.121 . S
Mn73 N80 2.257 . S
Mn73 N89 2.282 . S
Mn73 O97 2.215 . S
Mn73 O99 2.117 . S
C74 O96 1.234 . S
C74 O97 1.283 . S
C75 O87 1.281 . S
C75 O88 1.236 . S
C76 O98 1.240 . S
C76 O99 1.264 . S
O77 Mn72 2.095 . S
O77 C86 1.250 . S
O78 Mn73 2.121 . S
O78 C86 1.258 . S
C79 N80 1.326 . S
C79 C83 1.460 . S
C79 H85 0.929 . S
N80 Mn73 2.257 . S
N80 C79 1.326 . S
N80 C84 1.362 . S
C81 C82 1.258 . S
C81 C84 1.431 . S
C81 C101 1.449 . S
C82 C81 1.258 . S
C82 C83 1.477 . S
C82 H102 0.931 . S
C83 C79 1.460 . S
C83 C82 1.477 . S
C83 H103 0.930 . S
C84 N80 1.362 . S
C84 C81 1.431 . S
C84 C94 1.476 . S
H85 C79 0.929 . S
C86 O77 1.250 . S
C86 O78 1.258 . S
O87 Mn72 2.162 . S
O87 C75 1.281 . S
O88 Mn72 2.297 . S
O88 C75 1.236 . S
N89 Mn73 2.282 . S
N89 C90 1.328 . S
N89 C94 1.318 . S
C90 N89 1.328 . S
C90 C91 1.457 . S
C90 H95 0.925 1_655 S
C91 C90 1.457 . S
C91 C92 1.291 . S
C91 H104 0.931 1_655 S
C92 C91 1.291 . S
C92 C93 1.373 . S
C92 H105 0.929 . S
C93 C92 1.373 . S
C93 C94 1.396 . S
C93 C100 1.403 . S
C94 C84 1.476 . S
C94 N89 1.318 . S
C94 C93 1.396 . S
H95 C90 0.925 1_455 S
O96 Mn72 2.385 . S
O96 C74 1.234 . S
O97 Mn72 2.209 . S
O97 Mn73 2.215 . S
O97 C74 1.283 . S
O98 Mn72 2.094 . S
O98 C76 1.240 . S
O99 Mn73 2.117 . S
O99 C76 1.264 . S
C100 C93 1.403 . S
C100 C101 1.399 . S
C100 H106 0.929 . S
C101 C81 1.449 . S
C101 C100 1.399 . S
C101 H107 0.930 . S
H102 C82 0.931 . S
H103 C83 0.930 . S
H104 C91 0.931 1_455 S
H105 C92 0.929 . S
H106 C100 0.929 . S
H107 C101 0.930 . S
Mn108 O113 2.095 . S
Mn108 O123 2.162 . S
Mn108 O124 2.297 . S
Mn108 O132 2.385 . S
Mn108 O133 2.209 . S
Mn108 O134 2.094 . S
Mn109 O114 2.121 . S
Mn109 N116 2.257 . S
Mn109 N125 2.282 . S
Mn109 O133 2.215 . S
Mn109 O135 2.117 . S
C110 O132 1.234 . S
C110 O133 1.283 . S
C111 O123 1.281 . S
C111 O124 1.236 . S
C112 O134 1.240 . S
C112 O135 1.264 . S
O113 Mn108 2.095 . S
O113 C122 1.250 . S
O114 Mn109 2.121 . S
O114 C122 1.258 . S
C115 N116 1.326 . S
C115 C119 1.460 . S
C115 H121 0.929 . S
N116 Mn109 2.257 . S
N116 C115 1.326 . S
N116 C120 1.362 . S
C117 C118 1.258 . S
C117 C120 1.431 . S
C117 C137 1.449 . S
C118 C117 1.258 . S
C118 C119 1.477 . S
C118 H138 0.931 . S
C119 C115 1.460 . S
C119 C118 1.477 . S
C119 H139 0.930 . S
C120 N116 1.362 . S
C120 C117 1.431 . S
C120 C130 1.476 . S
H121 C115 0.929 . S
C122 O113 1.250 . S
C122 O114 1.258 . S
O123 Mn108 2.162 . S
O123 C111 1.281 . S
O124 Mn108 2.297 . S
O124 C111 1.236 . S
N125 Mn109 2.282 . S
N125 C126 1.328 . S
N125 C130 1.318 . S
C126 N125 1.328 . S
C126 C127 1.457 . S
C126 H131 0.929 . S
C127 C126 1.457 . S
C127 C128 1.291 . S
C127 H140 0.931 1_655 S
C128 C127 1.291 . S
C128 C129 1.373 . S
C128 H141 0.929 . S
C129 C128 1.373 . S
C129 C130 1.396 . S
C129 C136 1.403 . S
C130 C120 1.476 . S
C130 N125 1.318 . S
C130 C129 1.396 . S
H131 C126 0.929 . S
O132 Mn108 2.385 . S
O132 C110 1.234 . S
O133 Mn108 2.209 . S
O133 Mn109 2.215 . S
O133 C110 1.283 . S
O134 Mn108 2.094 . S
O134 C112 1.240 . S
O135 Mn109 2.117 . S
O135 C112 1.264 . S
C136 C129 1.403 . S
C136 C137 1.399 . S
C136 H142 0.929 . S
C137 C117 1.449 . S
C137 C136 1.399 . S
C137 H143 0.930 . S
H138 C118 0.931 . S
H139 C119 0.930 . S
H140 C127 0.931 1_455 S
H141 C128 0.929 . S
H142 C136 0.929 . S
H143 C137 0.930 . S
Mn144 O149 2.095 . S
Mn144 O159 2.162 . S
Mn144 O160 2.297 . S
Mn144 O168 2.385 . S
Mn144 O169 2.209 . S
Mn144 O170 2.094 . S
Mn145 O150 2.121 . S
Mn145 N152 2.257 . S
Mn145 N161 2.282 . S
Mn145 O169 2.215 . S
Mn145 O171 2.117 . S
C146 O168 1.234 . S
C146 O169 1.283 . S
C147 O159 1.281 . S
C147 O160 1.236 . S
C148 O170 1.240 . S
C148 O171 1.264 . S
O149 Mn144 2.095 . S
O149 C158 1.250 . S
O150 Mn145 2.121 . S
O150 C158 1.258 . S
C151 N152 1.326 . S
C151 C155 1.460 . S
C151 H157 0.929 . S
N152 Mn145 2.257 . S
N152 C151 1.326 . S
N152 C156 1.362 . S
C153 C154 1.258 . S
C153 C156 1.431 . S
C153 C173 1.449 . S
C154 C153 1.258 . S
C154 C155 1.477 . S
C154 H174 0.931 . S
C155 C151 1.460 . S
C155 C154 1.477 . S
C155 H175 0.930 . S
C156 N152 1.362 . S
C156 C153 1.431 . S
C156 C166 1.476 . S
H157 C151 0.929 . S
C158 O149 1.250 . S
C158 O150 1.258 . S
O159 Mn144 2.162 . S
O159 C147 1.281 . S
O160 Mn144 2.297 . S
O160 C147 1.236 . S
N161 Mn145 2.282 . S
N161 C162 1.328 . S
N161 C166 1.318 . S
C162 N161 1.328 . S
C162 C163 1.457 . S
C162 H167 0.929 . S
C163 C162 1.457 . S
C163 C164 1.291 . S
C163 H176 0.931 . S
C164 C163 1.291 . S
C164 C165 1.373 . S
C164 H177 0.929 . S
C165 C164 1.373 . S
C165 C166 1.396 . S
C165 C172 1.403 . S
C166 C156 1.476 . S
C166 N161 1.318 . S
C166 C165 1.396 . S
H167 C162 0.929 . S
O168 Mn144 2.385 . S
O168 C146 1.234 . S
O169 Mn144 2.209 . S
O169 Mn145 2.215 . S
O169 C146 1.283 . S
O170 Mn144 2.094 . S
O170 C148 1.240 . S
O171 Mn145 2.117 . S
O171 C148 1.264 . S
C172 C165 1.403 . S
C172 C173 1.399 . S
C172 H178 0.929 . S
C173 C153 1.449 . S
C173 C172 1.399 . S
C173 H179 0.930 . S
H174 C154 0.931 . S
H175 C155 0.930 . S
H176 C163 0.931 . S
H177 C164 0.929 . S
H178 C172 0.929 . S
H179 C173 0.930 . S
Mn180 O185 2.095 . S
Mn180 O195 2.162 . S
Mn180 O196 2.297 . S
Mn180 O204 2.385 . S
Mn180 O205 2.209 . S
Mn180 O206 2.094 . S
Mn181 O186 2.121 . S
Mn181 N188 2.257 . S
Mn181 N197 2.282 . S
Mn181 O205 2.215 . S
Mn181 O207 2.117 . S
C182 O204 1.234 . S
C182 O205 1.283 . S
C183 O195 1.281 . S
C183 O196 1.236 . S
C184 O206 1.240 . S
C184 O207 1.264 . S
O185 Mn180 2.095 . S
O185 C194 1.250 . S
O186 Mn181 2.121 . S
O186 C194 1.258 . S
C187 N188 1.326 . S
C187 C191 1.460 . S
C187 H193 0.929 . S
N188 Mn181 2.257 . S
N188 C187 1.326 . S
N188 C192 1.362 . S
C189 C190 1.258 . S
C189 C192 1.431 . S
C189 C209 1.449 . S
C190 C189 1.258 . S
C190 C191 1.477 . S
C190 H210 0.931 . S
C191 C187 1.460 . S
C191 C190 1.477 . S
C191 H211 0.930 . S
C192 N188 1.362 . S
C192 C189 1.431 . S
C192 C202 1.476 . S
H193 C187 0.929 . S
C194 O185 1.250 . S
C194 O186 1.258 . S
O195 Mn180 2.162 . S
O195 C183 1.281 . S
O196 Mn180 2.297 . S
O196 C183 1.236 . S
N197 Mn181 2.282 . S
N197 C198 1.328 . S
N197 C202 1.318 . S
C198 N197 1.328 . S
C198 C199 1.457 . S
C198 H203 0.929 . S
C199 C198 1.457 . S
C199 C200 1.291 . S
C199 H212 0.931 . S
C200 C199 1.291 . S
C200 C201 1.373 . S
C200 H213 0.929 . S
C201 C200 1.373 . S
C201 C202 1.396 . S
C201 C208 1.403 . S
C202 C192 1.476 . S
C202 N197 1.318 . S
C202 C201 1.396 . S
H203 C198 0.929 . S
O204 Mn180 2.385 . S
O204 C182 1.234 . S
O205 Mn180 2.209 . S
O205 Mn181 2.215 . S
O205 C182 1.283 . S
O206 Mn180 2.094 . S
O206 C184 1.240 . S
O207 Mn181 2.117 . S
O207 C184 1.264 . S
C208 C201 1.403 . S
C208 C209 1.399 . S
C208 H214 0.929 . S
C209 C189 1.449 . S
C209 C208 1.399 . S
C209 H215 0.930 . S
H210 C190 0.931 . S
H211 C191 0.930 . S
H212 C199 0.931 . S
H213 C200 0.929 . S
H214 C208 0.929 . S
H215 C209 0.930 . S
Mn216 O221 2.095 . S
Mn216 O231 2.162 . S
Mn216 O232 2.297 . S
Mn216 O240 2.385 . S
Mn216 O241 2.209 . S
Mn216 O242 2.094 . S
Mn217 O222 2.121 . S
Mn217 N224 2.257 . S
Mn217 N233 2.282 . S
Mn217 O241 2.215 . S
Mn217 O243 2.117 . S
C218 O240 1.234 . S
C218 O241 1.283 . S
C219 O231 1.281 . S
C219 O232 1.236 . S
C220 O242 1.240 . S
C220 O243 1.264 . S
O221 Mn216 2.095 . S
O221 C230 1.250 . S
O222 Mn217 2.121 . S
O222 C230 1.258 . S
C223 N224 1.326 . S
C223 C227 1.460 . S
C223 H229 0.929 . S
N224 Mn217 2.257 . S
N224 C223 1.326 . S
N224 C228 1.362 . S
C225 C226 1.258 . S
C225 C228 1.431 . S
C225 C245 1.449 . S
C226 C225 1.258 . S
C226 C227 1.477 . S
C226 H246 0.931 . S
C227 C223 1.460 . S
C227 C226 1.477 . S
C227 H247 0.930 . S
C228 N224 1.362 . S
C228 C225 1.431 . S
C228 C238 1.476 . S
H229 C223 0.929 . S
C230 O221 1.250 . S
C230 O222 1.258 . S
O231 Mn216 2.162 . S
O231 C219 1.281 . S
O232 Mn216 2.297 . S
O232 C219 1.236 . S
N233 Mn217 2.282 . S
N233 C234 1.328 . S
N233 C238 1.318 . S
C234 N233 1.328 . S
C234 C235 1.457 . S
C234 H239 0.929 . S
C235 C234 1.457 . S
C235 C236 1.291 . S
C235 H248 0.931 . S
C236 C235 1.291 . S
C236 C237 1.373 . S
C236 H249 0.929 . S
C237 C236 1.373 . S
C237 C238 1.396 . S
C237 C244 1.403 . S
C238 C228 1.476 . S
C238 N233 1.318 . S
C238 C237 1.396 . S
H239 C234 0.929 . S
O240 Mn216 2.385 . S
O240 C218 1.234 . S
O241 Mn216 2.209 . S
O241 Mn217 2.215 . S
O241 C218 1.283 . S
O242 Mn216 2.094 . S
O242 C220 1.240 . S
O243 Mn217 2.117 . S
O243 C220 1.264 . S
C244 C237 1.403 . S
C244 C245 1.399 . S
C244 H250 0.929 . S
C245 C225 1.449 . S
C245 C244 1.399 . S
C245 H251 0.930 . S
H246 C226 0.931 . S
H247 C227 0.930 . S
H248 C235 0.931 . S
H249 C236 0.929 . S
H250 C244 0.929 . S
H251 C245 0.930 . S
Mn252 O257 2.095 . S
Mn252 O267 2.162 . S
Mn252 O268 2.297 . S
Mn252 O276 2.385 . S
Mn252 O277 2.209 . S
Mn252 O278 2.094 . S
Mn253 O258 2.121 . S
Mn253 N260 2.257 . S
Mn253 N269 2.282 . S
Mn253 O277 2.215 . S
Mn253 O279 2.117 . S
C254 O276 1.234 . S
C254 O277 1.283 . S
C255 O267 1.281 . S
C255 O268 1.236 . S
C256 O278 1.240 . S
C256 O279 1.264 . S
O257 Mn252 2.095 . S
O257 C266 1.250 . S
O258 Mn253 2.121 . S
O258 C266 1.258 . S
C259 N260 1.326 . S
C259 C263 1.460 . S
C259 H265 0.929 . S
N260 Mn253 2.257 . S
N260 C259 1.326 . S
N260 C264 1.362 . S
C261 C262 1.258 . S
C261 C264 1.431 . S
C261 C281 1.449 . S
C262 C261 1.258 . S
C262 C263 1.477 . S
C262 H282 0.931 . S
C263 C259 1.460 . S
C263 C262 1.477 . S
C263 H283 0.930 . S
C264 N260 1.362 . S
C264 C261 1.431 . S
C264 C274 1.476 . S
H265 C259 0.929 . S
C266 O257 1.250 . S
C266 O258 1.258 . S
O267 Mn252 2.162 . S
O267 C255 1.281 . S
O268 Mn252 2.297 . S
O268 C255 1.236 . S
N269 Mn253 2.282 . S
N269 C270 1.328 . S
N269 C274 1.318 . S
C270 N269 1.328 . S
C270 C271 1.457 . S
C270 H275 0.929 . S
C271 C270 1.457 . S
C271 C272 1.291 . S
C271 H284 0.931 1_556 S
C272 C271 1.291 . S
C272 C273 1.373 . S
C272 H285 0.929 . S
C273 C272 1.373 . S
C273 C274 1.396 . S
C273 C280 1.403 . S
C274 C264 1.476 . S
C274 N269 1.318 . S
C274 C273 1.396 . S
H275 C270 0.929 . S
O276 Mn252 2.385 . S
O276 C254 1.234 . S
O277 Mn252 2.209 . S
O277 Mn253 2.215 . S
O277 C254 1.283 . S
O278 Mn252 2.094 . S
O278 C256 1.240 . S
O279 Mn253 2.117 . S
O279 C256 1.264 . S
C280 C273 1.403 . S
C280 C281 1.399 . S
C280 H286 0.929 . S
C281 C261 1.449 . S
C281 C280 1.399 . S
C281 H287 0.930 . S
H282 C262 0.931 . S
H283 C263 0.930 . S
H284 C271 0.931 1_554 S
H285 C272 0.929 . S
H286 C280 0.929 . S
H287 C281 0.930 . S
Mn288 O293 2.095 . S
Mn288 O303 2.162 . S
Mn288 O304 2.297 . S
Mn288 O312 2.385 . S
Mn288 O313 2.209 . S
Mn288 O314 2.094 . S
Mn289 O294 2.121 . S
Mn289 N296 2.257 . S
Mn289 N305 2.282 . S
Mn289 O313 2.215 . S
Mn289 O315 2.117 . S
C290 O312 1.234 . S
C290 O313 1.283 . S
C291 O303 1.281 . S
C291 O304 1.236 . S
C292 O314 1.240 . S
C292 O315 1.264 . S
O293 Mn288 2.095 . S
O293 C302 1.250 . S
O294 Mn289 2.121 . S
O294 C302 1.258 . S
C295 N296 1.326 . S
C295 C299 1.460 1_455 S
C295 H301 0.929 . S
N296 Mn289 2.257 . S
N296 C295 1.326 . S
N296 C300 1.362 . S
C297 C298 1.258 . S
C297 C300 1.431 1_655 S
C297 C317 1.449 . S
C298 C297 1.258 . S
C298 C299 1.477 . S
C298 H318 0.931 . S
C299 C295 1.460 1_655 S
C299 C298 1.477 . S
C299 H319 0.930 . S
C300 N296 1.362 . S
C300 C297 1.431 1_455 S
C300 C310 1.476 . S
H301 C295 0.929 . S
C302 O293 1.250 . S
C302 O294 1.258 . S
O303 Mn288 2.162 . S
O303 C291 1.281 . S
O304 Mn288 2.297 . S
O304 C291 1.236 . S
N305 Mn289 2.282 . S
N305 C306 1.328 . S
N305 C310 1.318 . S
C306 N305 1.328 . S
C306 C307 1.457 . S
C306 H311 0.929 . S
C307 C306 1.457 . S
C307 C308 1.291 . S
C307 H320 0.931 . S
C308 C307 1.291 . S
C308 C309 1.373 1_455 S
C308 H321 0.929 1_455 S
C309 C308 1.373 1_655 S
C309 C310 1.396 1_655 S
C309 C316 1.403 . S
C310 C300 1.476 . S
C310 N305 1.318 . S
C310 C309 1.396 1_455 S
H311 C306 0.929 . S
O312 Mn288 2.385 . S
O312 C290 1.234 . S
O313 Mn288 2.209 . S
O313 Mn289 2.215 . S
O313 C290 1.283 . S
O314 Mn288 2.094 . S
O314 C292 1.240 . S
O315 Mn289 2.117 . S
O315 C292 1.264 . S
C316 C309 1.403 . S
C316 C317 1.399 . S
C316 H322 0.929 . S
C317 C297 1.449 . S
C317 C316 1.399 . S
C317 H323 0.930 . S
H318 C298 0.931 . S
H319 C299 0.930 . S
H320 C307 0.931 . S
H321 C308 0.929 1_655 S
H322 C316 0.929 . S
H323 C317 0.930 . S
Mn324 O329 2.095 . S
Mn324 O339 2.162 . S
Mn324 O340 2.297 . S
Mn324 O348 2.385 . S
Mn324 O349 2.209 . S
Mn324 O350 2.094 . S
Mn325 O330 2.121 . S
Mn325 N332 2.257 . S
Mn325 N341 2.282 . S
Mn325 O349 2.215 . S
Mn325 O351 2.117 . S
C326 O348 1.234 . S
C326 O349 1.283 . S
C327 O339 1.281 . S
C327 O340 1.236 . S
C328 O350 1.240 . S
C328 O351 1.264 . S
O329 Mn324 2.095 . S
O329 C338 1.250 . S
O330 Mn325 2.121 . S
O330 C338 1.258 . S
C331 N332 1.326 . S
C331 C335 1.460 1_565 S
C331 H337 0.929 . S
N332 Mn325 2.257 . S
N332 C331 1.326 . S
N332 C336 1.362 . S
C333 C334 1.258 . S
C333 C336 1.431 1_545 S
C333 C353 1.449 . S
C334 C333 1.258 . S
C334 C335 1.477 . S
C334 H354 0.931 . S
C335 C331 1.460 1_545 S
C335 C334 1.477 . S
C335 H355 0.930 . S
C336 N332 1.362 . S
C336 C333 1.431 1_565 S
C336 C346 1.476 . S
H337 C331 0.929 . S
C338 O329 1.250 . S
C338 O330 1.258 . S
O339 Mn324 2.162 . S
O339 C327 1.281 . S
O340 Mn324 2.297 . S
O340 C327 1.236 . S
N341 Mn325 2.282 . S
N341 C342 1.328 . S
N341 C346 1.318 . S
C342 N341 1.328 . S
C342 C343 1.457 . S
C342 H347 0.929 . S
C343 C342 1.457 . S
C343 C344 1.291 . S
C343 H356 0.931 . S
C344 C343 1.291 . S
C344 C345 1.373 1_565 S
C344 H357 0.929 1_565 S
C345 C344 1.373 1_545 S
C345 C346 1.396 1_545 S
C345 C352 1.403 . S
C346 C336 1.476 . S
C346 N341 1.318 . S
C346 C345 1.396 1_565 S
H347 C342 0.929 . S
O348 Mn324 2.385 . S
O348 C326 1.234 . S
O349 Mn324 2.209 . S
O349 Mn325 2.215 . S
O349 C326 1.283 . S
O350 Mn324 2.094 . S
O350 C328 1.240 . S
O351 Mn325 2.117 . S
O351 C328 1.264 . S
C352 C345 1.403 . S
C352 C353 1.399 . S
C352 H358 0.929 . S
C353 C333 1.449 . S
C353 C352 1.399 . S
C353 H359 0.930 . S
H354 C334 0.931 . S
H355 C335 0.930 . S
H356 C343 0.931 . S
H357 C344 0.929 1_545 S
H358 C352 0.929 . S
H359 C353 0.930 . S
Mn360 O365 2.095 . S
Mn360 O375 2.162 . S
Mn360 O376 2.297 . S
Mn360 O384 2.385 . S
Mn360 O385 2.209 . S
Mn360 O386 2.094 . S
Mn361 O366 2.121 . S
Mn361 N368 2.257 . S
Mn361 N377 2.282 . S
Mn361 O385 2.215 . S
Mn361 O387 2.117 . S
C362 O384 1.234 . S
C362 O385 1.283 . S
C363 O375 1.281 . S
C363 O376 1.236 . S
C364 O386 1.240 . S
C364 O387 1.264 . S
O365 Mn360 2.095 . S
O365 C374 1.250 . S
O366 Mn361 2.121 . S
O366 C374 1.258 . S
C367 N368 1.326 . S
C367 C371 1.460 1_655 S
C367 H373 0.929 . S
N368 Mn361 2.257 . S
N368 C367 1.326 . S
N368 C372 1.369 . S
C369 C370 1.258 . S
C369 C372 1.422 1_455 S
C369 C389 1.449 . S
C370 C369 1.258 . S
C370 C371 1.477 . S
C370 H390 0.931 . S
C371 C367 1.460 1_455 S
C371 C370 1.477 . S
C371 H391 0.930 . S
C372 N368 1.369 . S
C372 C369 1.422 1_655 S
C372 C382 1.479 . S
H373 C367 0.929 . S
C374 O365 1.250 . S
C374 O366 1.258 . S
O375 Mn360 2.162 . S
O375 C363 1.281 . S
O376 Mn360 2.297 . S
O376 C363 1.236 . S
N377 Mn361 2.282 . S
N377 C378 1.328 . S
N377 C382 1.318 . S
C378 N377 1.328 . S
C378 C379 1.457 . S
C378 H383 0.929 . S
C379 C378 1.457 . S
C379 C380 1.291 1_655 S
C379 H392 0.931 . S
C380 C379 1.291 1_455 S
C380 C381 1.373 . S
C380 H393 0.929 . S
C381 C380 1.373 . S
C381 C382 1.396 1_455 S
C381 C388 1.403 . S
C382 C372 1.479 . S
C382 N377 1.318 . S
C382 C381 1.396 1_655 S
H383 C378 0.929 . S
O384 Mn360 2.385 . S
O384 C362 1.234 . S
O385 Mn360 2.209 . S
O385 Mn361 2.215 . S
O385 C362 1.283 . S
O386 Mn360 2.094 . S
O386 C364 1.240 . S
O387 Mn361 2.117 . S
O387 C364 1.264 . S
C388 C381 1.403 . S
C388 C389 1.399 . S
C388 H394 0.929 . S
C389 C369 1.449 . S
C389 C388 1.399 . S
C389 H395 0.930 . S
H390 C370 0.931 . S
H391 C371 0.930 . S
H392 C379 0.931 . S
H393 C380 0.929 . S
H394 C388 0.929 . S
H395 C389 0.930 . S
Mn396 O401 2.095 . S
Mn396 O411 2.162 . S
Mn396 O412 2.297 . S
Mn396 O420 2.385 . S
Mn396 O421 2.209 . S
Mn396 O422 2.094 . S
Mn397 O402 2.121 . S
Mn397 N404 2.257 . S
Mn397 N413 2.282 . S
Mn397 O421 2.215 . S
Mn397 O423 2.117 . S
C398 O420 1.234 . S
C398 O421 1.283 . S
C399 O411 1.281 . S
C399 O412 1.236 . S
C400 O422 1.240 . S
C400 O423 1.264 . S
O401 Mn396 2.095 . S
O401 C410 1.250 . S
O402 Mn397 2.121 . S
O402 C410 1.258 . S
C403 N404 1.326 . S
C403 C407 1.460 1_545 S
C403 H409 0.929 . S
N404 Mn397 2.257 . S
N404 C403 1.326 . S
N404 C408 1.362 . S
C405 C406 1.258 . S
C405 C408 1.431 1_565 S
C405 C425 1.449 . S
C406 C405 1.258 . S
C406 C407 1.477 . S
C406 H426 0.931 . S
C407 C403 1.460 1_565 S
C407 C406 1.477 . S
C407 H427 0.930 . S
C408 N404 1.362 . S
C408 C405 1.431 1_545 S
C408 C418 1.476 . S
H409 C403 0.929 . S
C410 O401 1.250 . S
C410 O402 1.258 . S
O411 Mn396 2.162 . S
O411 C399 1.281 . S
O412 Mn396 2.297 . S
O412 C399 1.236 . S
N413 Mn397 2.282 . S
N413 C414 1.328 . S
N413 C418 1.318 . S
C414 N413 1.328 . S
C414 C415 1.457 . S
C414 H419 0.929 . S
C415 C414 1.457 . S
C415 C416 1.291 . S
C415 H428 0.931 . S
C416 C415 1.291 . S
C416 C417 1.373 1_545 S
C416 H429 0.929 1_545 S
C417 C416 1.373 1_565 S
C417 C418 1.396 1_565 S
C417 C424 1.403 . S
C418 C408 1.476 . S
C418 N413 1.318 . S
C418 C417 1.396 1_545 S
H419 C414 0.929 . S
O420 Mn396 2.385 . S
O420 C398 1.234 . S
O421 Mn396 2.209 . S
O421 Mn397 2.215 . S
O421 C398 1.283 . S
O422 Mn396 2.094 . S
O422 C400 1.240 . S
O423 Mn397 2.117 . S
O423 C400 1.264 . S
C424 C417 1.403 . S
C424 C425 1.399 . S
C424 H430 0.929 . S
C425 C405 1.449 . S
C425 C424 1.399 . S
C425 H431 0.930 . S
H426 C406 0.931 . S
H427 C407 0.930 . S
H428 C415 0.931 . S
H429 C416 0.929 1_565 S
H430 C424 0.929 . S
H431 C425 0.930 . S
Mn432 O437 2.095 . S
Mn432 O447 2.162 . S
Mn432 O448 2.297 . S
Mn432 O456 2.385 . S
Mn432 O457 2.209 . S
Mn432 O458 2.094 . S
Mn433 O438 2.121 . S
Mn433 N440 2.257 . S
Mn433 N449 2.282 . S
Mn433 O457 2.215 . S
Mn433 O459 2.117 . S
C434 O456 1.234 . S
C434 O457 1.283 . S
C435 O447 1.281 . S
C435 O448 1.236 . S
C436 O458 1.240 . S
C436 O459 1.264 . S
O437 Mn432 2.095 . S
O437 C446 1.250 . S
O438 Mn433 2.121 . S
O438 C446 1.258 . S
C439 N440 1.326 . S
C439 C443 1.460 1_556 S
C439 H445 0.929 . S
N440 Mn433 2.257 . S
N440 C439 1.326 . S
N440 C444 1.362 . S
C441 C442 1.258 . S
C441 C444 1.431 1_554 S
C441 C461 1.449 . S
C442 C441 1.258 . S
C442 C443 1.477 . S
C442 H462 0.931 . S
C443 C439 1.460 1_554 S
C443 C442 1.477 . S
C443 H463 0.930 . S
C444 N440 1.362 . S
C444 C441 1.431 1_556 S
C444 C454 1.476 . S
H445 C439 0.929 . S
C446 O437 1.250 . S
C446 O438 1.258 . S
O447 Mn432 2.162 . S
O447 C435 1.281 . S
O448 Mn432 2.297 . S
O448 C435 1.236 . S
N449 Mn433 2.282 . S
N449 C450 1.328 . S
N449 C454 1.318 . S
C450 N449 1.328 . S
C450 C451 1.457 . S
C450 H455 0.929 . S
C451 C450 1.457 . S
C451 C452 1.291 . S
C451 H464 0.931 . S
C452 C451 1.291 . S
C452 C453 1.373 1_556 S
C452 H465 0.929 1_556 S
C453 C452 1.373 1_554 S
C453 C454 1.396 1_554 S
C453 C460 1.403 . S
C454 C444 1.476 . S
C454 N449 1.318 . S
C454 C453 1.396 1_556 S
H455 C450 0.929 . S
O456 Mn432 2.385 . S
O456 C434 1.234 . S
O457 Mn432 2.209 . S
O457 Mn433 2.215 . S
O457 C434 1.283 . S
O458 Mn432 2.094 . S
O458 C436 1.240 . S
O459 Mn433 2.117 . S
O459 C436 1.264 . S
C460 C453 1.403 . S
C460 C461 1.399 . S
C460 H466 0.929 . S
C461 C441 1.449 . S
C461 C460 1.399 . S
C461 H467 0.930 . S
H462 C442 0.931 . S
H463 C443 0.930 . S
H464 C451 0.931 . S
H465 C452 0.929 1_554 S
H466 C460 0.929 . S
H467 C461 0.930 . S
Mn468 O473 2.095 . S
Mn468 O483 2.162 . S
Mn468 O484 2.297 . S
Mn468 O492 2.385 . S
Mn468 O493 2.209 . S
Mn468 O494 2.094 . S
Mn469 O474 2.121 . S
Mn469 N476 2.257 . S
Mn469 N485 2.282 . S
Mn469 O493 2.215 . S
Mn469 O495 2.117 . S
C470 O492 1.234 . S
C470 O493 1.283 . S
C471 O483 1.281 . S
C471 O484 1.236 . S
C472 O494 1.240 . S
C472 O495 1.264 . S
O473 Mn468 2.095 . S
O473 C482 1.250 . S
O474 Mn469 2.121 . S
O474 C482 1.258 . S
C475 N476 1.326 . S
C475 C479 1.460 1_554 S
C475 H481 0.929 . S
N476 Mn469 2.257 . S
N476 C475 1.326 . S
N476 C480 1.362 . S
C477 C478 1.258 . S
C477 C480 1.431 1_556 S
C477 C497 1.449 . S
C478 C477 1.258 . S
C478 C479 1.477 . S
C478 H498 0.931 . S
C479 C475 1.460 1_556 S
C479 C478 1.477 . S
C479 H499 0.930 . S
C480 N476 1.362 . S
C480 C477 1.431 1_554 S
C480 C490 1.476 . S
H481 C475 0.929 . S
C482 O473 1.250 . S
C482 O474 1.258 . S
O483 Mn468 2.162 . S
O483 C471 1.281 . S
O484 Mn468 2.297 . S
O484 C471 1.236 . S
N485 Mn469 2.282 . S
N485 C486 1.328 . S
N485 C490 1.318 . S
C486 N485 1.328 . S
C486 C487 1.457 . S
C486 H491 0.929 . S
C487 C486 1.457 . S
C487 C488 1.291 . S
C487 H500 0.931 . S
C488 C487 1.291 . S
C488 C489 1.379 . S
C488 H501 0.929 1_554 S
C489 C488 1.379 . S
C489 C490 1.409 . S
C489 C496 1.385 1_554 S
C490 C480 1.476 . S
C490 N485 1.318 . S
C490 C489 1.409 . S
H491 C486 0.929 . S
O492 Mn468 2.385 . S
O492 C470 1.234 . S
O493 Mn468 2.209 . S
O493 Mn469 2.215 . S
O493 C470 1.283 . S
O494 Mn468 2.094 . S
O494 C472 1.240 . S
O495 Mn469 2.117 . S
O495 C472 1.264 . S
C496 C489 1.385 1_556 S
C496 C497 1.399 . S
C496 H502 0.929 . S
C497 C477 1.449 . S
C497 C496 1.399 . S
C497 H503 0.930 . S
H498 C478 0.931 . S
H499 C479 0.930 . S
H500 C487 0.931 . S
H501 C488 0.929 1_556 S
H502 C496 0.929 . S
H503 C497 0.930 . S
Mn504 O509 2.095 . S
Mn504 O519 2.162 . S
Mn504 O520 2.297 . S
Mn504 O528 2.385 . S
Mn504 O529 2.209 . S
Mn504 O530 2.094 . S
Mn505 O510 2.121 . S
Mn505 N512 2.257 . S
Mn505 N521 2.282 . S
Mn505 O529 2.215 . S
Mn505 O531 2.117 . S
C506 O528 1.234 . S
C506 O529 1.283 . S
C507 O519 1.281 . S
C507 O520 1.236 . S
C508 O530 1.240 . S
C508 O531 1.264 . S
O509 Mn504 2.095 . S
O509 C518 1.250 . S
O510 Mn505 2.121 . S
O510 C518 1.258 . S
C511 N512 1.326 . S
C511 C515 1.460 1_556 S
C511 H517 0.929 . S
N512 Mn505 2.257 . S
N512 C511 1.326 . S
N512 C516 1.362 . S
C513 C514 1.258 . S
C513 C516 1.431 1_554 S
C513 C533 1.449 . S
C514 C513 1.258 . S
C514 C515 1.477 . S
C514 H534 0.931 . S
C515 C511 1.460 1_554 S
C515 C514 1.477 . S
C515 H535 0.930 . S
C516 N512 1.362 . S
C516 C513 1.431 1_556 S
C516 C526 1.476 . S
H517 C511 0.929 . S
C518 O509 1.250 . S
C518 O510 1.258 . S
O519 Mn504 2.162 . S
O519 C507 1.281 . S
O520 Mn504 2.297 . S
O520 C507 1.236 . S
N521 Mn505 2.282 . S
N521 C522 1.328 . S
N521 C526 1.318 . S
C522 N521 1.328 . S
C522 C523 1.457 . S
C522 H527 0.929 . S
C523 C522 1.457 . S
C523 C524 1.291 1_556 S
C523 H536 0.931 . S
C524 C523 1.291 1_554 S
C524 C525 1.373 . S
C524 H537 0.929 . S
C525 C524 1.373 . S
C525 C526 1.396 1_554 S
C525 C532 1.403 . S
C526 C516 1.476 . S
C526 N521 1.318 . S
C526 C525 1.396 1_556 S
H527 C522 0.929 . S
O528 Mn504 2.385 . S
O528 C506 1.234 . S
O529 Mn504 2.209 . S
O529 Mn505 2.215 . S
O529 C506 1.283 . S
O530 Mn504 2.094 . S
O530 C508 1.240 . S
O531 Mn505 2.117 . S
O531 C508 1.264 . S
C532 C525 1.403 . S
C532 C533 1.399 . S
C532 H538 0.929 . S
C533 C513 1.449 . S
C533 C532 1.399 . S
C533 H539 0.930 . S
H534 C514 0.931 . S
H535 C515 0.930 . S
H536 C523 0.931 . S
H537 C524 0.929 . S
H538 C532 0.929 . S
H539 C533 0.930 . S
Mn540 O545 2.095 . S
Mn540 O555 2.162 . S
Mn540 O556 2.297 . S
Mn540 O564 2.385 . S
Mn540 O565 2.209 . S
Mn540 O566 2.094 . S
Mn541 O546 2.121 . S
Mn541 N548 2.257 . S
Mn541 N557 2.282 . S
Mn541 O565 2.215 . S
Mn541 O567 2.117 . S
C542 O564 1.234 . S
C542 O565 1.283 . S
C543 O555 1.281 . S
C543 O556 1.236 . S
C544 O566 1.240 . S
C544 O567 1.264 . S
O545 Mn540 2.095 . S
O545 C554 1.250 . S
O546 Mn541 2.121 . S
O546 C554 1.258 . S
C547 N548 1.326 . S
C547 C551 1.460 1_554 S
C547 H553 0.929 . S
N548 Mn541 2.257 . S
N548 C547 1.326 . S
N548 C552 1.362 . S
C549 C550 1.258 . S
C549 C552 1.431 1_556 S
C549 C569 1.449 . S
C550 C549 1.258 . S
C550 C551 1.477 . S
C550 H570 0.931 . S
C551 C547 1.460 1_556 S
C551 C550 1.477 . S
C551 H571 0.930 . S
C552 N548 1.362 . S
C552 C549 1.431 1_554 S
C552 C562 1.476 . S
H553 C547 0.929 . S
C554 O545 1.250 . S
C554 O546 1.258 . S
O555 Mn540 2.162 . S
O555 C543 1.281 . S
O556 Mn540 2.297 . S
O556 C543 1.236 . S
N557 Mn541 2.282 . S
N557 C558 1.328 . S
N557 C562 1.318 . S
C558 N557 1.328 . S
C558 C559 1.457 . S
C558 H563 0.929 . S
C559 C558 1.457 . S
C559 C560 1.291 . S
C559 H572 0.931 . S
C560 C559 1.291 . S
C560 C561 1.373 1_554 S
C560 H573 0.929 1_554 S
C561 C560 1.373 1_556 S
C561 C562 1.396 1_556 S
C561 C568 1.403 . S
C562 C552 1.476 . S
C562 N557 1.318 . S
C562 C561 1.396 1_554 S
H563 C558 0.929 . S
O564 Mn540 2.385 . S
O564 C542 1.234 . S
O565 Mn540 2.209 . S
O565 Mn541 2.215 . S
O565 C542 1.283 . S
O566 Mn540 2.094 . S
O566 C544 1.240 . S
O567 Mn541 2.117 . S
O567 C544 1.264 . S
C568 C561 1.403 . S
C568 C569 1.399 . S
C568 H574 0.929 . S
C569 C549 1.449 . S
C569 C568 1.399 . S
C569 H575 0.930 . S
H570 C550 0.931 . S
H571 C551 0.930 . S
H572 C559 0.931 . S
H573 C560 0.929 1_556 S
H574 C568 0.929 . S
H575 C569 0.930 . S
Mn576 O581 2.095 . S
Mn576 O591 2.162 . S
Mn576 O592 2.297 . S
Mn576 O600 2.385 . S
Mn576 O601 2.209 . S
Mn576 O602 2.094 . S
Mn577 O582 2.121 . S
Mn577 N584 2.257 . S
Mn577 N593 2.282 . S
Mn577 O601 2.215 . S
Mn577 O603 2.117 . S
C578 O600 1.234 . S
C578 O601 1.283 . S
C579 O591 1.281 . S
C579 O592 1.236 . S
C580 O602 1.240 . S
C580 O603 1.264 . S
O581 Mn576 2.095 . S
O581 C590 1.250 . S
O582 Mn577 2.121 . S
O582 C590 1.258 . S
C583 N584 1.326 . S
C583 C587 1.460 . S
C583 H589 0.929 . S
N584 Mn577 2.257 . S
N584 C583 1.326 . S
N584 C588 1.362 . S
C585 C586 1.258 . S
C585 C588 1.431 . S
C585 C605 1.449 . S
C586 C585 1.258 . S
C586 C587 1.477 . S
C586 H606 0.931 . S
C587 C583 1.460 . S
C587 C586 1.477 . S
C587 H607 0.930 . S
C588 N584 1.362 . S
C588 C585 1.431 . S
C588 C598 1.476 . S
H589 C583 0.929 . S
C590 O581 1.250 . S
C590 O582 1.258 . S
O591 Mn576 2.162 . S
O591 C579 1.281 . S
O592 Mn576 2.297 . S
O592 C579 1.236 . S
N593 Mn577 2.282 . S
N593 C594 1.328 . S
N593 C598 1.318 . S
C594 N593 1.328 . S
C594 C595 1.457 . S
C594 H599 0.929 . S
C595 C594 1.457 . S
C595 C596 1.291 . S
C595 H608 0.931 1_565 S
C596 C595 1.291 . S
C596 C597 1.373 . S
C596 H609 0.929 . S
C597 C596 1.373 . S
C597 C598 1.396 . S
C597 C604 1.403 . S
C598 C588 1.476 . S
C598 N593 1.318 . S
C598 C597 1.396 . S
H599 C594 0.929 . S
O600 Mn576 2.385 . S
O600 C578 1.234 . S
O601 Mn576 2.209 . S
O601 Mn577 2.215 . S
O601 C578 1.283 . S
O602 Mn576 2.094 . S
O602 C580 1.240 . S
O603 Mn577 2.117 . S
O603 C580 1.264 . S
C604 C597 1.403 . S
C604 C605 1.399 . S
C604 H610 0.929 . S
C605 C585 1.449 . S
C605 C604 1.399 . S
C605 H611 0.930 . S
H606 C586 0.931 . S
H607 C587 0.930 . S
H608 C595 0.931 1_545 S
H609 C596 0.929 . S
H610 C604 0.929 . S
H611 C605 0.930 . S
Mn612 O617 2.095 . S
Mn612 O627 2.162 . S
Mn612 O628 2.297 . S
Mn612 O636 2.385 . S
Mn612 O637 2.209 . S
Mn612 O638 2.094 . S
Mn613 O618 2.121 . S
Mn613 N620 2.257 . S
Mn613 N629 2.282 . S
Mn613 O637 2.215 . S
Mn613 O639 2.117 . S
C614 O636 1.234 . S
C614 O637 1.283 . S
C615 O627 1.281 . S
C615 O628 1.236 . S
C616 O638 1.240 . S
C616 O639 1.264 . S
O617 Mn612 2.095 . S
O617 C626 1.250 . S
O618 Mn613 2.121 . S
O618 C626 1.258 . S
C619 N620 1.326 . S
C619 C623 1.460 . S
C619 H625 0.929 . S
N620 Mn613 2.257 . S
N620 C619 1.326 . S
N620 C624 1.362 . S
C621 C622 1.258 . S
C621 C624 1.431 . S
C621 C641 1.449 . S
C622 C621 1.258 . S
C622 C623 1.477 . S
C622 H642 0.931 . S
C623 C619 1.460 . S
C623 C622 1.477 . S
C623 H643 0.930 . S
C624 N620 1.362 . S
C624 C621 1.431 . S
C624 C634 1.476 . S
H625 C619 0.929 . S
C626 O617 1.250 . S
C626 O618 1.258 . S
O627 Mn612 2.162 . S
O627 C615 1.281 . S
O628 Mn612 2.297 . S
O628 C615 1.236 . S
N629 Mn613 2.282 . S
N629 C630 1.328 . S
N629 C634 1.318 . S
C630 N629 1.328 . S
C630 C631 1.457 . S
C630 H635 0.929 . S
C631 C630 1.457 . S
C631 C632 1.291 . S
C631 H644 0.931 . S
C632 C631 1.291 . S
C632 C633 1.373 . S
C632 H645 0.929 . S
C633 C632 1.373 . S
C633 C634 1.396 . S
C633 C640 1.403 . S
C634 C624 1.476 . S
C634 N629 1.318 . S
C634 C633 1.396 . S
H635 C630 0.929 . S
O636 Mn612 2.385 . S
O636 C614 1.234 . S
O637 Mn612 2.209 . S
O637 Mn613 2.215 . S
O637 C614 1.283 . S
O638 Mn612 2.094 . S
O638 C616 1.240 . S
O639 Mn613 2.117 . S
O639 C616 1.264 . S
C640 C633 1.403 . S
C640 C641 1.399 . S
C640 H646 0.929 . S
C641 C621 1.449 . S
C641 C640 1.399 . S
C641 H647 0.930 . S
H642 C622 0.931 . S
H643 C623 0.930 . S
H644 C631 0.931 . S
H645 C632 0.929 . S
H646 C640 0.929 . S
H647 C641 0.930 . S
Mn648 O653 2.095 . S
Mn648 O663 2.162 . S
Mn648 O664 2.297 . S
Mn648 O672 2.385 . S
Mn648 O673 2.209 . S
Mn648 O674 2.094 . S
Mn649 O654 2.121 . S
Mn649 N656 2.257 . S
Mn649 N665 2.282 . S
Mn649 O673 2.215 . S
Mn649 O675 2.117 . S
C650 O672 1.234 . S
C650 O673 1.283 . S
C651 O663 1.281 . S
C651 O664 1.236 . S
C652 O674 1.240 . S
C652 O675 1.264 . S
O653 Mn648 2.095 . S
O653 C662 1.250 . S
O654 Mn649 2.121 . S
O654 C662 1.258 . S
C655 N656 1.326 . S
C655 C659 1.460 . S
C655 H661 0.929 . S
N656 Mn649 2.257 . S
N656 C655 1.326 . S
N656 C660 1.362 . S
C657 C658 1.258 . S
C657 C660 1.431 . S
C657 C677 1.449 . S
C658 C657 1.258 . S
C658 C659 1.477 . S
C658 H678 0.931 . S
C659 C655 1.460 . S
C659 C658 1.477 . S
C659 H679 0.930 . S
C660 N656 1.362 . S
C660 C657 1.431 . S
C660 C670 1.476 . S
H661 C655 0.929 . S
C662 O653 1.250 . S
C662 O654 1.258 . S
O663 Mn648 2.162 . S
O663 C651 1.281 . S
O664 Mn648 2.297 . S
O664 C651 1.236 . S
N665 Mn649 2.282 . S
N665 C666 1.328 . S
N665 C670 1.318 . S
C666 N665 1.328 . S
C666 C667 1.457 . S
C666 H671 0.929 . S
C667 C666 1.457 . S
C667 C668 1.291 . S
C667 H680 0.931 1_545 S
C668 C667 1.291 . S
C668 C669 1.373 . S
C668 H681 0.929 . S
C669 C668 1.373 . S
C669 C670 1.396 . S
C669 C676 1.403 . S
C670 C660 1.476 . S
C670 N665 1.318 . S
C670 C669 1.396 . S
H671 C666 0.929 . S
O672 Mn648 2.385 . S
O672 C650 1.234 . S
O673 Mn648 2.209 . S
O673 Mn649 2.215 . S
O673 C650 1.283 . S
O674 Mn648 2.094 . S
O674 C652 1.240 . S
O675 Mn649 2.117 . S
O675 C652 1.264 . S
C676 C669 1.403 . S
C676 C677 1.399 . S
C676 H682 0.929 . S
C677 C657 1.449 . S
C677 C676 1.399 . S
C677 H683 0.930 . S
H678 C658 0.931 . S
H679 C659 0.930 . S
H680 C667 0.931 1_565 S
H681 C668 0.929 . S
H682 C676 0.929 . S
H683 C677 0.930 . S
Mn684 O689 2.095 . S
Mn684 O699 2.162 . S
Mn684 O700 2.297 . S
Mn684 O708 2.385 . S
Mn684 O709 2.209 . S
Mn684 O710 2.094 . S
Mn685 O690 2.121 . S
Mn685 N692 2.257 . S
Mn685 N701 2.282 . S
Mn685 O709 2.215 . S
Mn685 O711 2.117 . S
C686 O708 1.234 . S
C686 O709 1.283 . S
C687 O699 1.281 . S
C687 O700 1.236 . S
C688 O710 1.240 . S
C688 O711 1.264 . S
O689 Mn684 2.095 . S
O689 C698 1.250 . S
O690 Mn685 2.121 . S
O690 C698 1.258 . S
C691 N692 1.326 . S
C691 C695 1.460 . S
C691 H697 0.929 . S
N692 Mn685 2.257 . S
N692 C691 1.326 . S
N692 C696 1.362 . S
C693 C694 1.258 . S
C693 C696 1.431 . S
C693 C713 1.449 . S
C694 C693 1.258 . S
C694 C695 1.477 . S
C694 H714 0.931 . S
C695 C691 1.460 . S
C695 C694 1.477 . S
C695 H715 0.930 . S
C696 N692 1.362 . S
C696 C693 1.431 . S
C696 C706 1.476 . S
H697 C691 0.929 . S
C698 O689 1.250 . S
C698 O690 1.258 . S
O699 Mn684 2.162 . S
O699 C687 1.281 . S
O700 Mn684 2.297 . S
O700 C687 1.236 . S
N701 Mn685 2.282 . S
N701 C702 1.328 . S
N701 C706 1.318 . S
C702 N701 1.328 . S
C702 C703 1.457 . S
C702 H707 0.929 . S
C703 C702 1.457 . S
C703 C704 1.291 . S
C703 H716 0.931 1_554 S
C704 C703 1.291 . S
C704 C705 1.373 . S
C704 H717 0.929 . S
C705 C704 1.373 . S
C705 C706 1.396 . S
C705 C712 1.403 . S
C706 C696 1.476 . S
C706 N701 1.318 . S
C706 C705 1.396 . S
H707 C702 0.929 . S
O708 Mn684 2.385 . S
O708 C686 1.234 . S
O709 Mn684 2.209 . S
O709 Mn685 2.215 . S
O709 C686 1.283 . S
O710 Mn684 2.094 . S
O710 C688 1.240 . S
O711 Mn685 2.117 . S
O711 C688 1.264 . S
C712 C705 1.403 . S
C712 C713 1.399 . S
C712 H718 0.929 . S
C713 C693 1.449 . S
C713 C712 1.399 . S
C713 H719 0.930 . S
H714 C694 0.931 . S
H715 C695 0.930 . S
H716 C703 0.931 1_556 S
H717 C704 0.929 . S
H718 C712 0.929 . S
H719 C713 0.930 . S
Mn720 O725 2.095 . S
Mn720 O735 2.162 . S
Mn720 O736 2.297 . S
Mn720 O744 2.385 . S
Mn720 O745 2.209 . S
Mn720 O746 2.094 . S
Mn721 O726 2.121 . S
Mn721 N728 2.257 . S
Mn721 N737 2.282 . S
Mn721 O745 2.215 . S
Mn721 O747 2.117 . S
C722 O744 1.234 . S
C722 O745 1.283 . S
C723 O735 1.281 . S
C723 O736 1.236 . S
C724 O746 1.240 . S
C724 O747 1.264 . S
O725 Mn720 2.095 . S
O725 C734 1.250 . S
O726 Mn721 2.121 . S
O726 C734 1.258 . S
C727 N728 1.326 . S
C727 C731 1.460 1_655 S
C727 H733 0.929 . S
N728 Mn721 2.257 . S
N728 C727 1.326 . S
N728 C732 1.362 . S
C729 C730 1.258 . S
C729 C732 1.431 1_455 S
C729 C749 1.449 . S
C730 C729 1.258 . S
C730 C731 1.477 . S
C730 H750 0.931 . S
C731 C727 1.460 1_455 S
C731 C730 1.477 . S
C731 H751 0.930 . S
C732 N728 1.362 . S
C732 C729 1.431 1_655 S
C732 C742 1.476 . S
H733 C727 0.929 . S
C734 O725 1.250 . S
C734 O726 1.258 . S
O735 Mn720 2.162 . S
O735 C723 1.281 . S
O736 Mn720 2.297 . S
O736 C723 1.236 . S
N737 Mn721 2.282 . S
N737 C738 1.328 . S
N737 C742 1.318 . S
C738 N737 1.328 . S
C738 C739 1.457 . S
C738 H743 0.929 . S
C739 C738 1.457 . S
C739 C740 1.275 1_655 S
C739 H752 0.931 . S
C740 C739 1.275 1_455 S
C740 C741 1.378 . S
C740 H753 0.940 . S
C741 C740 1.378 . S
C741 C742 1.396 1_455 S
C741 C748 1.403 . S
C742 C732 1.476 . S
C742 N737 1.318 . S
C742 C741 1.396 1_655 S
H743 C738 0.929 . S
O744 Mn720 2.385 . S
O744 C722 1.234 . S
O745 Mn720 2.209 . S
O745 Mn721 2.215 . S
O745 C722 1.283 . S
O746 Mn720 2.094 . S
O746 C724 1.240 . S
O747 Mn721 2.117 . S
O747 C724 1.264 . S
C748 C741 1.403 . S
C748 C749 1.399 . S
C748 H754 0.929 . S
C749 C729 1.449 . S
C749 C748 1.399 . S
C749 H755 0.930 . S
H750 C730 0.931 . S
H751 C731 0.930 . S
H752 C739 0.931 . S
H753 C740 0.940 . S
H754 C748 0.929 . S
H755 C749 0.930 . S
Mn756 O761 2.095 . S
Mn756 O771 2.162 . S
Mn756 O772 2.297 . S
Mn756 O780 2.385 . S
Mn756 O781 2.209 . S
Mn756 O782 2.094 . S
Mn757 O762 2.121 . S
Mn757 N764 2.257 . S
Mn757 N773 2.282 . S
Mn757 O781 2.215 . S
Mn757 O783 2.117 . S
C758 O780 1.234 . S
C758 O781 1.283 . S
C759 O771 1.281 . S
C759 O772 1.236 . S
C760 O782 1.240 . S
C760 O783 1.264 . S
O761 Mn756 2.095 . S
O761 C770 1.250 . S
O762 Mn757 2.121 . S
O762 C770 1.258 . S
C763 N764 1.326 . S
C763 C767 1.460 . S
C763 H769 0.929 . S
N764 Mn757 2.257 . S
N764 C763 1.326 . S
N764 C768 1.362 . S
C765 C766 1.258 . S
C765 C768 1.431 . S
C765 C785 1.449 . S
C766 C765 1.258 . S
C766 C767 1.477 . S
C766 H786 0.931 . S
C767 C763 1.460 . S
C767 C766 1.477 . S
C767 H787 0.930 . S
C768 N764 1.362 . S
C768 C765 1.431 . S
C768 C778 1.476 . S
H769 C763 0.929 . S
C770 O761 1.250 . S
C770 O762 1.258 . S
O771 Mn756 2.162 . S
O771 C759 1.281 . S
O772 Mn756 2.297 . S
O772 C759 1.236 . S
N773 Mn757 2.282 . S
N773 C774 1.328 . S
N773 C778 1.318 . S
C774 N773 1.328 . S
C774 C775 1.457 . S
C774 H779 0.929 . S
C775 C774 1.457 . S
C775 C776 1.291 . S
C775 H788 0.931 1_556 S
C776 C775 1.291 . S
C776 C777 1.373 . S
C776 H789 0.929 . S
C777 C776 1.373 . S
C777 C778 1.396 . S
C777 C784 1.403 . S
C778 C768 1.476 . S
C778 N773 1.318 . S
C778 C777 1.396 . S
H779 C774 0.929 . S
O780 Mn756 2.385 . S
O780 C758 1.234 . S
O781 Mn756 2.209 . S
O781 Mn757 2.215 . S
O781 C758 1.283 . S
O782 Mn756 2.094 . S
O782 C760 1.240 . S
O783 Mn757 2.117 . S
O783 C760 1.264 . S
C784 C777 1.403 . S
C784 C785 1.399 . S
C784 H790 0.929 . S
C785 C765 1.449 . S
C785 C784 1.399 . S
C785 H791 0.930 . S
H786 C766 0.931 . S
H787 C767 0.930 . S
H788 C775 0.931 1_554 S
H789 C776 0.929 . S
H790 C784 0.929 . S
H791 C785 0.930 . S
Mn792 O797 2.095 . S
Mn792 O807 2.162 . S
Mn792 O808 2.297 . S
Mn792 O816 2.385 . S
Mn792 O817 2.209 . S
Mn792 O818 2.094 . S
Mn793 O798 2.121 . S
Mn793 N800 2.257 . S
Mn793 N809 2.282 . S
Mn793 O817 2.215 . S
Mn793 O819 2.117 . S
C794 O816 1.234 . S
C794 O817 1.283 . S
C795 O807 1.281 . S
C795 O808 1.236 . S
C796 O818 1.240 . S
C796 O819 1.264 . S
O797 Mn792 2.095 . S
O797 C806 1.250 . S
O798 Mn793 2.121 . S
O798 C806 1.258 . S
C799 N800 1.326 . S
C799 C803 1.460 1_455 S
C799 H805 0.929 . S
N800 Mn793 2.257 . S
N800 C799 1.326 . S
N800 C804 1.362 . S
C801 C802 1.258 . S
C801 C804 1.431 1_655 S
C801 C821 1.449 . S
C802 C801 1.258 . S
C802 C803 1.477 . S
C802 H822 0.931 . S
C803 C799 1.460 1_655 S
C803 C802 1.477 . S
C803 H823 0.930 . S
C804 N800 1.362 . S
C804 C801 1.431 1_455 S
C804 C814 1.476 . S
H805 C799 0.929 . S
C806 O797 1.250 . S
C806 O798 1.258 . S
O807 Mn792 2.162 . S
O807 C795 1.281 . S
O808 Mn792 2.297 . S
O808 C795 1.236 . S
N809 Mn793 2.282 . S
N809 C810 1.328 . S
N809 C814 1.318 . S
C810 N809 1.328 . S
C810 C811 1.457 . S
C810 H815 0.929 . S
C811 C810 1.457 . S
C811 C812 1.291 . S
C811 H824 0.931 . S
C812 C811 1.291 . S
C812 C813 1.373 1_455 S
C812 H825 0.929 1_455 S
C813 C812 1.373 1_655 S
C813 C814 1.396 1_655 S
C813 C820 1.403 . S
C814 C804 1.476 . S
C814 N809 1.318 . S
C814 C813 1.396 1_455 S
H815 C810 0.929 . S
O816 Mn792 2.385 . S
O816 C794 1.234 . S
O817 Mn792 2.209 . S
O817 Mn793 2.215 . S
O817 C794 1.283 . S
O818 Mn792 2.094 . S
O818 C796 1.240 . S
O819 Mn793 2.117 . S
O819 C796 1.264 . S
C820 C813 1.403 . S
C820 C821 1.399 . S
C820 H826 0.929 . S
C821 C801 1.449 . S
C821 C820 1.399 . S
C821 H827 0.930 . S
H822 C802 0.931 . S
H823 C803 0.930 . S
H824 C811 0.931 . S
H825 C812 0.929 1_655 S
H826 C820 0.929 . S
H827 C821 0.930 . S
Mn828 O833 2.095 . S
Mn828 O843 2.162 . S
Mn828 O844 2.297 . S
Mn828 O852 2.385 . S
Mn828 O853 2.209 . S
Mn828 O854 2.094 . S
Mn829 O834 2.121 . S
Mn829 N836 2.257 . S
Mn829 N845 2.282 . S
Mn829 O853 2.215 . S
Mn829 O855 2.117 . S
C830 O852 1.234 . S
C830 O853 1.283 . S
C831 O843 1.281 . S
C831 O844 1.236 . S
C832 O854 1.240 . S
C832 O855 1.264 . S
O833 Mn828 2.095 . S
O833 C842 1.250 . S
O834 Mn829 2.121 . S
O834 C842 1.258 . S
C835 N836 1.326 . S
C835 C839 1.460 . S
C835 H841 0.929 . S
N836 Mn829 2.257 . S
N836 C835 1.326 . S
N836 C840 1.362 . S
C837 C838 1.258 . S
C837 C840 1.431 . S
C837 C857 1.449 . S
C838 C837 1.258 . S
C838 C839 1.477 . S
C838 H858 0.931 . S
C839 C835 1.460 . S
C839 C838 1.477 . S
C839 H859 0.930 . S
C840 N836 1.362 . S
C840 C837 1.431 . S
C840 C850 1.476 . S
H841 C835 0.929 . S
C842 O833 1.250 . S
C842 O834 1.258 . S
O843 Mn828 2.162 . S
O843 C831 1.281 . S
O844 Mn828 2.297 . S
O844 C831 1.236 . S
N845 Mn829 2.282 . S
N845 C846 1.328 . S
N845 C850 1.318 . S
C846 N845 1.328 . S
C846 C847 1.457 . S
C846 H851 0.929 . S
C847 C846 1.457 . S
C847 C848 1.291 . S
C847 H860 0.931 . S
C848 C847 1.291 . S
C848 C849 1.373 . S
C848 H861 0.929 . S
C849 C848 1.373 . S
C849 C850 1.396 . S
C849 C856 1.403 . S
C850 C840 1.476 . S
C850 N845 1.318 . S
C850 C849 1.396 . S
H851 C846 0.929 . S
O852 Mn828 2.385 . S
O852 C830 1.234 . S
O853 Mn828 2.209 . S
O853 Mn829 2.215 . S
O853 C830 1.283 . S
O854 Mn828 2.094 . S
O854 C832 1.240 . S
O855 Mn829 2.117 . S
O855 C832 1.264 . S
C856 C849 1.403 . S
C856 C857 1.399 . S
C856 H862 0.929 . S
C857 C837 1.449 . S
C857 C856 1.399 . S
C857 H863 0.930 . S
H858 C838 0.931 . S
H859 C839 0.930 . S
H860 C847 0.931 . S
H861 C848 0.929 . S
H862 C856 0.929 . S
H863 C857 0.930 . S
C544 C4 1.223 . S
C446 C50 1.371 1_655 S
C472 C86 1.396 . S
C518 C112 1.377 1_455 S
C508 C40 1.319 . S
C76 C554 1.247 1_655 S
C436 C122 1.506 . S
C482 C14 1.201 1_655 S
C662 C158 1.392 . S
C184 C688 1.165 1_556 S
C230 C590 1.447 . S
C616 C256 1.163 1_554 S
C796 C292 1.040 . S
C338 C832 1.642 1_554 S
C364 C724 1.115 . S
C410 C760 1.585 1_554 S
C626 C400 1.418 . S
C842 C194 1.357 . S
C220 C734 1.394 1_565 S
C770 C266 1.215 . S
C806 C148 1.275 1_565 S
C328 C698 1.399 . S
C580 C374 1.385 1_565 S
C652 C302 1.184 1_545 S
C3 C147 1.205 . S
C182 C38 1.355 . S
C74 C219 1.203 . S
C111 C254 1.165 . S
C290 C39 1.126 . S
C327 C75 1.036 . S
C362 C110 1.168 . S
C2 C399 1.056 . S
C398 C146 1.287 . S
C183 C291 1.045 . S
C218 C326 1.376 . S
C363 C255 1.061 . S
C579 C435 1.302 . S
C614 C470 1.223 . S
C507 C651 1.161 . S
C542 C686 1.064 . S
C471 C722 1.263 . S
C506 C758 1.175 . S
C794 C543 1.054 . S
C434 C830 1.252 . S
C578 C831 1.267 . S
C723 C615 1.036 . S
C650 C759 1.370 . S
C795 C687 1.059 . S
