# Generated by pormake.
# Topology wku, (7)-cn, num edge types: 1
# Building blocks:
#     Node 0, Type 0, BuildingBlock: OLANEW_clean_sbu_3, # of connection points: 7
#     Node 1, Type 0, BuildingBlock: OLANEW_clean_sbu_3, # of connection points: 7
#     Node 2, Type 0, BuildingBlock: OLANEW_clean_sbu_3, # of connection points: 7
#     Node 3, Type 0, BuildingBlock: OLANEW_clean_sbu_3, # of connection points: 7
#     Node 4, Type 0, BuildingBlock: OLANEW_clean_sbu_3, # of connection points: 7
#     Node 5, Type 0, BuildingBlock: OLANEW_clean_sbu_3, # of connection points: 7
#     Node 6, Type 0, BuildingBlock: OLANEW_clean_sbu_3, # of connection points: 7
#     Node 7, Type 0, BuildingBlock: OLANEW_clean_sbu_3, # of connection points: 7
#     Node 8, Type 0, BuildingBlock: OLANEW_clean_sbu_3, # of connection points: 7
#     Node 9, Type 0, BuildingBlock: OLANEW_clean_sbu_3, # of connection points: 7
#     Node 10, Type 0, BuildingBlock: OLANEW_clean_sbu_3, # of connection points: 7
#     Node 11, Type 0, BuildingBlock: OLANEW_clean_sbu_3, # of connection points: 7
#     Edge 12, Type (0, 0), BuildingBlock: XUDNAN_clean_linker_2, # of connection points: 2
#     Edge 13, Type (0, 0), BuildingBlock: XUDNAN_clean_linker_2, # of connection points: 2
#     Edge 14, Type (0, 0), BuildingBlock: XUDNAN_clean_linker_2, # of connection points: 2
#     Edge 15, Type (0, 0), BuildingBlock: XUDNAN_clean_linker_2, # of connection points: 2
#     Edge 16, Type (0, 0), BuildingBlock: XUDNAN_clean_linker_2, # of connection points: 2
#     Edge 17, Type (0, 0), BuildingBlock: XUDNAN_clean_linker_2, # of connection points: 2
#     Edge 18, Type (0, 0), BuildingBlock: XUDNAN_clean_linker_2, # of connection points: 2
#     Edge 19, Type (0, 0), BuildingBlock: XUDNAN_clean_linker_2, # of connection points: 2
#     Edge 20, Type (0, 0), BuildingBlock: XUDNAN_clean_linker_2, # of connection points: 2
#     Edge 21, Type (0, 0), BuildingBlock: XUDNAN_clean_linker_2, # of connection points: 2
#     Edge 22, Type (0, 0), BuildingBlock: XUDNAN_clean_linker_2, # of connection points: 2
#     Edge 23, Type (0, 0), BuildingBlock: XUDNAN_clean_linker_2, # of connection points: 2
#     Edge 24, Type (0, 0), BuildingBlock: XUDNAN_clean_linker_2, # of connection points: 2
#     Edge 25, Type (0, 0), BuildingBlock: XUDNAN_clean_linker_2, # of connection points: 2
#     Edge 26, Type (0, 0), BuildingBlock: XUDNAN_clean_linker_2, # of connection points: 2
#     Edge 27, Type (0, 0), BuildingBlock: XUDNAN_clean_linker_2, # of connection points: 2
#     Edge 28, Type (0, 0), BuildingBlock: XUDNAN_clean_linker_2, # of connection points: 2
#     Edge 29, Type (0, 0), BuildingBlock: XUDNAN_clean_linker_2, # of connection points: 2
#     Edge 30, Type (0, 0), BuildingBlock: XUDNAN_clean_linker_2, # of connection points: 2
#     Edge 31, Type (0, 0), BuildingBlock: XUDNAN_clean_linker_2, # of connection points: 2
#     Edge 32, Type (0, 0), BuildingBlock: XUDNAN_clean_linker_2, # of connection points: 2
#     Edge 33, Type (0, 0), BuildingBlock: XUDNAN_clean_linker_2, # of connection points: 2
#     Edge 34, Type (0, 0), BuildingBlock: XUDNAN_clean_linker_2, # of connection points: 2
#     Edge 35, Type (0, 0), BuildingBlock: XUDNAN_clean_linker_2, # of connection points: 2
#     Edge 36, Type (0, 0), BuildingBlock: XUDNAN_clean_linker_2, # of connection points: 2
#     Edge 37, Type (0, 0), BuildingBlock: XUDNAN_clean_linker_2, # of connection points: 2
#     Edge 38, Type (0, 0), BuildingBlock: XUDNAN_clean_linker_2, # of connection points: 2
#     Edge 39, Type (0, 0), BuildingBlock: XUDNAN_clean_linker_2, # of connection points: 2
#     Edge 40, Type (0, 0), BuildingBlock: XUDNAN_clean_linker_2, # of connection points: 2
#     Edge 41, Type (0, 0), BuildingBlock: XUDNAN_clean_linker_2, # of connection points: 2
#     Edge 42, Type (0, 0), BuildingBlock: XUDNAN_clean_linker_2, # of connection points: 2
#     Edge 43, Type (0, 0), BuildingBlock: XUDNAN_clean_linker_2, # of connection points: 2
#     Edge 44, Type (0, 0), BuildingBlock: XUDNAN_clean_linker_2, # of connection points: 2
#     Edge 45, Type (0, 0), BuildingBlock: XUDNAN_clean_linker_2, # of connection points: 2
#     Edge 46, Type (0, 0), BuildingBlock: XUDNAN_clean_linker_2, # of connection points: 2
#     Edge 47, Type (0, 0), BuildingBlock: XUDNAN_clean_linker_2, # of connection points: 2
#     Edge 48, Type (0, 0), BuildingBlock: XUDNAN_clean_linker_2, # of connection points: 2
#     Edge 49, Type (0, 0), BuildingBlock: XUDNAN_clean_linker_2, # of connection points: 2
#     Edge 50, Type (0, 0), BuildingBlock: XUDNAN_clean_linker_2, # of connection points: 2
#     Edge 51, Type (0, 0), BuildingBlock: XUDNAN_clean_linker_2, # of connection points: 2
#     Edge 52, Type (0, 0), BuildingBlock: XUDNAN_clean_linker_2, # of connection points: 2
#     Edge 53, Type (0, 0), BuildingBlock: XUDNAN_clean_linker_2, # of connection points: 2
# Relax obj value: 0.106
# Max RMSD: 0.199
# Mean RMSD: 0.198
data_MOF--net-wku--node1-OLANEW_clean_sbu_3--edge1-XUDNAN_clean_linker_2
_symmetry_space_group_name_H-M    P1
_symmetry_Int_Tables_number       1
_symmetry_cell_setting            triclinic
loop_
_symmetry_equiv_pos_as_xyz
'x, y, z'
_cell_length_a     30.928082
_cell_length_b     30.927644
_cell_length_c     125.69268
_cell_angle_alpha  90.085858
_cell_angle_beta   89.804104
_cell_angle_gamma 119.8744
loop_
_atom_site_label
_atom_site_type_symbol
_atom_site_fract_x
_atom_site_fract_y
_atom_site_fract_z
_atom_type_partial_charge
C0 C 0.26589 0.35283 0.05103 0.0
C1 C 0.221 0.31615 0.0466 0.0
C2 C 0.2224 0.28033 0.03978 0.0
C3 C 0.26782 0.28127 0.03763 0.0
C4 C 0.31124 0.31892 0.04233 0.0
N5 N 0.30753 0.3521 0.04856 0.0
C6 C 0.3628 0.32773 0.04153 0.0
C7 C 0.45059 0.38895 0.04636 0.0
C8 C 0.4719 0.36367 0.05142 0.0
C9 C 0.52361 0.38362 0.05133 0.0
C10 C 0.55433 0.42865 0.04613 0.0
C11 C 0.53332 0.4535 0.0409 0.0
C12 C 0.48166 0.43363 0.04095 0.0
Cd13 Cd 0.37597 0.28075 0.01712 0.0
Cd14 Cd 0.33652 0.29147 1.00047 0.0
C15 C 0.33387 0.44837 0.07253 0.0
C16 C 0.36857 0.53184 0.08006 0.0
C17 C 0.3529 0.5109 0.09013 0.0
C18 C 0.32718 0.45922 0.09176 0.0
C19 C 0.31755 0.42776 0.08284 0.0
C20 C 0.35831 0.50055 0.0712 0.0
Co21 Co 0.36421 0.39746 0.05553 0.0
N22 N 0.35697 0.3519 0.06685 0.0
N23 N 0.4209 0.44325 0.06239 0.0
C24 C 0.43141 0.42841 0.07147 0.0
C25 C 0.47274 0.46316 0.07729 0.0
C26 C 0.50036 0.51242 0.07327 0.0
C27 C 0.48625 0.52601 0.06368 0.0
C28 C 0.44468 0.48918 0.05828 0.0
N29 N 0.37952 0.45024 0.0454 0.0
N30 N 0.39779 0.37001 0.04681 0.0
N31 N 0.32132 0.41637 0.06331 0.0
O32 O 0.39676 0.29519 0.9881 0.0
O33 O 0.38534 0.23893 1.00015 0.0
C34 C 0.47603 0.35072 0.01498 0.0
O35 O 0.44213 0.35557 0.01038 0.0
O36 O 0.46343 0.31117 0.02038 0.0
C37 C 0.2779 0.17419 1.00852 0.0
O38 O 0.31034 0.19076 0.01593 0.0
O39 O 0.27655 0.20417 1.0018 0.0
C40 C 0.39535 0.37585 0.07397 0.0
O41 O 0.40088 0.35289 0.08221 0.0
O42 O 0.3413 0.33465 0.01684 0.0
O43 O 0.30845 0.35149 1.00324 0.0
C44 C 0.42085 0.49336 0.04848 0.0
O45 O 0.43873 0.53474 0.04292 0.0
C46 C 0.35202 0.44404 0.03588 0.0
C47 C 0.35619 0.41647 0.02771 0.0
C48 C 0.32004 0.3959 0.01973 0.0
C49 C 0.28213 0.40799 0.01933 0.0
C50 C 0.28015 0.44015 0.02707 0.0
C51 C 0.315 0.45717 0.03549 0.0
C52 C 0.39749 0.25583 0.99065 0.0
O53 O 0.37314 0.29384 0.03692 0.0
C54 C 0.32098 0.35777 0.01294 0.0
C55 C 0.32627 0.29863 0.06617 0.0
C56 C 0.27416 0.27578 0.06568 0.0
C57 C 0.2455 0.22476 0.0636 0.0
C58 C 0.26818 0.19543 0.06336 0.0
C59 C 0.31807 0.21672 0.06665 0.0
C60 C 0.34826 0.26865 0.06596 0.0
C61 C 0.27368 0.3895 0.05946 0.0
O62 O 0.23652 0.39305 0.06362 0.0
H63 H 0.18598 0.31421 0.04855 0.0
H64 H 0.18816 0.25129 0.03633 0.0
H65 H 0.26878 0.25348 0.03254 0.0
H66 H 0.44879 0.32882 0.05546 0.0
H67 H 0.59432 0.44409 0.04608 0.0
H68 H 0.4662 0.45308 0.03671 0.0
H69 H 0.35836 0.53575 0.09673 0.0
H70 H 0.29724 0.38765 0.08384 0.0
H71 H 0.36791 0.51657 0.06331 0.0
H72 H 0.48308 0.45299 0.0847 0.0
H73 H 0.53232 0.54016 0.07763 0.0
H74 H 0.50678 0.56381 0.06069 0.0
H75 H 0.38607 0.40789 0.02807 0.0
H76 H 0.25384 0.39141 0.01323 0.0
H77 H 0.31373 0.48027 0.04181 0.0
H78 H 0.25555 0.29693 0.06693 0.0
H79 H 0.2445 0.15531 0.06309 0.0
H80 H 0.38776 0.28574 0.06755 0.0
C81 C 0.90117 0.26889 0.21585 0.0
C82 C 0.89713 0.22556 0.21137 0.0
C83 C 0.93682 0.2303 0.20488 0.0
C84 C 0.97962 0.27746 0.2031 0.0
C85 C 0.98114 0.31916 0.20782 0.0
N86 N 0.9421 0.31223 0.21374 0.0
C87 C 0.02087 0.37215 0.20719 0.0
C88 C 0.03935 0.45822 0.21209 0.0
C89 C 0.08649 0.48158 0.2169 0.0
C90 C 0.11252 0.53329 0.21834 0.0
C91 C 0.09216 0.56212 0.2148 0.0
C92 C 0.04672 0.53947 0.20941 0.0
C93 C 0.02085 0.48786 0.20791 0.0
Cd94 Cd 0.09396 0.39105 0.18375 0.0
Cd95 Cd 0.04082 0.30707 0.1723 0.0
C96 C 0.86938 0.32864 0.23826 0.0
C97 C 0.83388 0.36857 0.2493 0.0
C98 C 0.83893 0.34486 0.25828 0.0
C99 C 0.85296 0.30854 0.25729 0.0
C100 C 0.86995 0.30175 0.24732 0.0
C101 C 0.84839 0.35973 0.23926 0.0
Co102 Co 0.94669 0.3671 0.22039 0.0
N103 N 0.98583 0.36497 0.2322 0.0
N104 N 0.95058 0.42196 0.22694 0.0
C105 C 0.97278 0.43374 0.2364 0.0
C106 C 0.97236 0.4722 0.2422 0.0
C107 C 0.94714 0.49556 0.23777 0.0
C108 C 0.92241 0.47974 0.22787 0.0
C109 C 0.92441 0.441 0.22254 0.0
N110 N 0.90689 0.37694 0.20969 0.0
N111 N 0.00865 0.40483 0.21209 0.0
N112 N 0.88537 0.32042 0.22794 0.0
O113 O 0.08414 0.33438 0.15581 0.0
O114 O 0.13759 0.39391 0.16627 0.0
C115 C 0.13093 0.49242 0.18103 0.0
O116 O 0.10294 0.46014 0.17428 0.0
O117 O 0.14328 0.47771 0.18935 0.0
C118 C 0.12268 0.29747 0.18511 0.0
O119 O 0.13891 0.3442 0.18578 0.0
O120 O 0.07779 0.26823 0.1824 0.0
C121 C -0.00694 0.40138 0.23942 0.0
O122 O 0.01887 0.40873 0.2482 0.0
O123 O 0.00535 0.35319 0.18221 0.0
O124 O 0.9552 0.28593 0.17339 0.0
C125 C 0.89888 0.41492 0.21268 0.0
O126 O 0.87403 0.42986 0.2067 0.0
C127 C 0.89284 0.35226 0.19958 0.0
C128 C 0.93015 0.35859 0.1925 0.0
C129 C 0.92015 0.32473 0.1842 0.0
C130 C 0.87088 0.2913 0.18161 0.0
C131 C 0.83221 0.29133 0.18745 0.0
C132 C 0.84291 0.31939 0.1969 0.0
C133 C 0.12701 0.37191 0.15724 0.0
O134 O 0.06686 0.38599 0.20307 0.0
C135 C 0.96174 0.32215 0.1792 0.0
C136 C 0.01808 0.34398 0.23161 0.0
C137 C -0.00106 0.29251 0.23047 0.0
C138 C 0.03124 0.27345 0.22935 0.0
C139 C 0.08265 0.30508 0.23026 0.0
C140 C 0.10137 0.35542 0.23292 0.0
C141 C 0.06964 0.37532 0.23241 0.0
C142 C 0.86866 0.27347 0.2239 0.0
O143 O 0.82944 0.23406 0.22785 0.0
H144 H 0.86521 0.1893 0.21301 0.0
H145 H 0.93472 0.19737 0.20136 0.0
H146 H 0.01012 0.28104 0.19821 0.0
H147 H 0.10295 0.46007 0.21965 0.0
H148 H 0.11223 0.60207 0.21594 0.0
H149 H 0.98639 0.47125 0.20352 0.0
H150 H 0.82382 0.34858 0.26582 0.0
H151 H 0.88112 0.27381 0.24651 0.0
H152 H 0.84071 0.37473 0.23222 0.0
H153 H -0.00997 0.48328 0.24991 0.0
H154 H 0.94588 0.52516 0.24211 0.0
H155 H 0.90177 0.49648 0.22464 0.0
H156 H 0.96766 0.38821 0.1939 0.0
H157 H 0.86247 0.26681 0.17481 0.0
H158 H 0.81314 0.31698 0.20189 0.0
H159 H 0.95935 0.26696 0.23059 0.0
H160 H 0.10653 0.28879 0.23058 0.0
H161 H 0.08411 0.41409 0.2345 0.0
C162 C 0.63582 0.90785 0.38391 0.0
C163 C 0.6778 0.90565 0.38049 0.0
C164 C 0.71385 0.94564 0.37426 0.0
C165 C 0.70774 0.98682 0.37167 0.0
C166 C 0.6651 0.98674 0.37543 0.0
N167 N 0.63239 0.94777 0.38124 0.0
C168 C 0.64831 0.02313 0.37333 0.0
C169 C 0.57758 0.03859 0.37595 0.0
C170 C 0.59869 0.08618 0.38055 0.0
C171 C 0.57465 0.11415 0.37972 0.0
C172 C 0.52973 0.09507 0.37418 0.0
C173 C 0.50943 0.04851 0.36927 0.0
C174 C 0.53346 0.02053 0.37007 0.0
Cd175 Cd 0.6895 0.08584 0.34852 0.0
Cd176 Cd 0.72049 0.02791 0.32764 0.0
C177 C 0.52919 0.86931 0.40299 0.0
C178 C 0.44814 0.83944 0.41138 0.0
C179 C 0.47224 0.85507 0.42114 0.0
C180 C 0.51932 0.85955 0.42236 0.0
C181 C 0.5499 0.8714 0.4132 0.0
C182 C 0.477 0.84713 0.40218 0.0
Co183 Co 0.57553 0.94745 0.38555 0.0
N184 N 0.60523 0.98681 0.39818 0.0
N185 N 0.51803 0.94648 0.38973 0.0
C186 C 0.51944 0.96697 0.39913 0.0
C187 C 0.47526 0.9623 0.40327 0.0
C188 C 0.43104 0.93484 0.3973 0.0
C189 C 0.43163 0.91214 0.38755 0.0
C190 C 0.47732 0.9185 0.38394 0.0
N191 N 0.53621 0.90681 0.37369 0.0
N192 N 0.60113 0.00894 0.37714 0.0
N193 N 0.56011 0.88684 0.39352 0.0
O194 O 0.67342 0.06653 0.32189 0.0
O195 O 0.72251 0.13361 0.33098 0.0
C196 C 0.60618 0.09902 0.34705 0.0
O197 O 0.60804 0.06361 0.34232 0.0
O198 O 0.6439 0.12895 0.35258 0.0
C199 C 0.81092 0.12242 0.34426 0.0
O200 O 0.78128 0.12981 0.35009 0.0
O201 O 0.79467 0.08987 0.33689 0.0
C202 C 0.56898 0.98962 0.40402 0.0
O203 O 0.57813 0.01191 0.41333 0.0
O204 O 0.66524 0.00159 0.34531 0.0
O205 O 0.6714 0.94684 0.33569 0.0
C206 C 0.48761 0.89538 0.37474 0.0
O207 O 0.45328 0.86788 0.36774 0.0
C208 C 0.5553 0.89217 0.36488 0.0
C209 C 0.58865 0.92849 0.3579 0.0
C210 C 0.61522 0.91722 0.35046 0.0
C211 C 0.6039 0.86789 0.34925 0.0
C212 C 0.56367 0.82968 0.35483 0.0
C213 C 0.54139 0.84215 0.36317 0.0
C214 C 0.70127 0.11353 0.3222 0.0
O215 O 0.67776 0.06731 0.36828 0.0
C216 C 0.65233 0.95657 0.34358 0.0
C217 C 0.65735 0.01996 0.40003 0.0
C218 C 0.69076 0.00207 0.40132 0.0
C219 C 0.73853 0.03341 0.40532 0.0
C220 C 0.75169 0.08134 0.40876 0.0
C221 C 0.71657 0.0974 0.40824 0.0
C222 C 0.67308 0.06968 0.40248 0.0
C223 C 0.595 0.87334 0.39103 0.0
O224 O 0.59527 0.8353 0.39562 0.0
H225 H 0.68287 0.87455 0.38259 0.0
H226 H 0.7465 0.94473 0.37146 0.0
H227 H 0.73494 0.01705 0.36679 0.0
H228 H 0.6336 0.10162 0.38479 0.0
H229 H 0.51109 0.11667 0.37356 0.0
H230 H 0.51797 0.98531 0.36595 0.0
H231 H 0.44966 0.85002 0.42817 0.0
H232 H 0.58824 0.87999 0.41392 0.0
H233 H 0.459 0.83459 0.39454 0.0
H234 H 0.4746 0.97826 0.41089 0.0
H235 H 0.39619 0.93013 0.40035 0.0
H236 H 0.39754 0.8896 0.38317 0.0
H237 H 0.59383 0.96562 0.35831 0.0
H238 H 0.62324 0.85865 0.34324 0.0
H239 H 0.5117 0.81347 0.36793 0.0
H240 H 0.67938 0.96346 0.40009 0.0
H241 H 0.78623 0.10281 0.41307 0.0
H242 H 0.64651 0.08279 0.40208 0.0
C243 C 0.72094 0.63634 0.54916 0.0
C244 C 0.76545 0.67697 0.5455 0.0
C245 C 0.76228 0.71164 0.53867 0.0
C246 C 0.71542 0.70555 0.53576 0.0
C247 C 0.67256 0.66409 0.53974 0.0
N248 N 0.67795 0.63235 0.54604 0.0
C249 C 0.61999 0.64995 0.53808 0.0
C250 C 0.53245 0.584 0.54192 0.0
C251 C 0.50953 0.61214 0.54453 0.0
C252 C 0.4577 0.59062 0.54406 0.0
C253 C 0.42831 0.54127 0.54075 0.0
C254 C 0.45087 0.51384 0.53763 0.0
C255 C 0.50266 0.5352 0.53814 0.0
Cd256 Cd 0.60161 0.70242 0.51438 0.0
Cd257 Cd 0.68234 0.72815 0.50154 0.0
C258 C 0.65416 0.5379 0.56976 0.0
C259 C 0.62828 0.46038 0.57923 0.0
C260 C 0.64323 0.48681 0.58881 0.0
C261 C 0.66576 0.53896 0.58918 0.0
C262 C 0.66906 0.56393 0.57952 0.0
C263 C 0.63423 0.48596 0.56966 0.0
Co264 Co 0.621 0.58026 0.55172 0.0
N265 N 0.61817 0.61872 0.56357 0.0
N266 N 0.56458 0.52734 0.55747 0.0
C267 C 0.55144 0.53521 0.56707 0.0
C268 C 0.51512 0.49442 0.5728 0.0
C269 C 0.49572 0.44645 0.56826 0.0
C270 C 0.51379 0.44009 0.55837 0.0
C271 C 0.55017 0.48271 0.55312 0.0
N272 N 0.61603 0.53296 0.54098 0.0
N273 N 0.58565 0.60517 0.54276 0.0
N274 N 0.6657 0.56543 0.5599 0.0
O275 O 0.65442 0.7452 0.48551 0.0
O276 O 0.59019 0.72851 0.49581 0.0
C277 C 0.49777 0.64904 0.51739 0.0
O278 O 0.52033 0.63152 0.51199 0.0
O279 O 0.52381 0.69246 0.52131 0.0
C280 C 0.70392 0.82155 0.51555 0.0
O281 O 0.65735 0.794 0.51735 0.0
O282 O 0.72822 0.80454 0.51068 0.0
C283 C 0.58178 0.58718 0.57056 0.0
O284 O 0.57197 0.60328 0.57943 0.0
O285 O 0.64 0.65075 0.51307 0.0
O286 O 0.70296 0.6636 0.50296 0.0
C287 C 0.57944 0.48589 0.54359 0.0
O288 O 0.56924 0.44696 0.53765 0.0
C289 C 0.64456 0.54537 0.53141 0.0
C290 C 0.63651 0.5724 0.52366 0.0
C291 C 0.67151 0.59655 0.51554 0.0
C292 C 0.71067 0.5866 0.51427 0.0
C293 C 0.71518 0.55394 0.52132 0.0
C294 C 0.68314 0.53475 0.53015 0.0
C295 C 0.61257 0.7425 0.48684 0.0
O296 O 0.60775 0.68241 0.53358 0.0
C297 C 0.67013 0.63709 0.50976 0.0
C298 C 0.63311 0.67063 0.56316 0.0
C299 C 0.68339 0.708 0.5635 0.0
C300 C 0.69591 0.75777 0.56497 0.0
C301 C 0.65841 0.76984 0.56664 0.0
C302 C 0.60827 0.7319 0.56674 0.0
C303 C 0.59619 0.68383 0.56387 0.0
C304 C 0.71407 0.59815 0.55703 0.0
O305 O 0.75211 0.59929 0.56194 0.0
H306 H 0.8013 0.68232 0.54795 0.0
H307 H 0.79608 0.7435 0.53575 0.0
H308 H 0.71293 0.73229 0.53062 0.0
H309 H 0.5314 0.65067 0.54691 0.0
H310 H 0.38823 0.52469 0.54036 0.0
H311 H 0.51923 0.51392 0.53528 0.0
H312 H 0.64113 0.46578 0.59583 0.0
H313 H 0.68495 0.60395 0.57933 0.0
H314 H 0.62602 0.46612 0.56217 0.0
H315 H 0.50325 0.49913 0.58062 0.0
H316 H 0.46806 0.41414 0.57257 0.0
H317 H 0.50096 0.40321 0.55515 0.0
H318 H 0.60446 0.57738 0.52445 0.0
H319 H 0.73699 0.60346 0.50777 0.0
H320 H 0.68817 0.51183 0.53597 0.0
H321 H 0.71275 0.69881 0.56318 0.0
H322 H 0.66873 0.80747 0.56899 0.0
H323 H 0.55748 0.65456 0.56429 0.0
C324 C 0.07374 0.72318 0.71586 0.0
C325 C 0.07771 0.76685 0.71163 0.0
C326 C 0.04086 0.76217 0.70433 0.0
C327 C 0.00094 0.71468 0.7015 0.0
C328 C -0.00055 0.67267 0.70603 0.0
N329 N 0.03572 0.67949 0.71275 0.0
C330 C 0.96219 0.61961 0.7044 0.0
C331 C 0.94287 0.53331 0.70902 0.0
C332 C 0.89292 0.50891 0.71239 0.0
C333 C 0.86511 0.45684 0.71254 0.0
C334 C 0.88642 0.42875 0.70904 0.0
C335 C 0.93528 0.45275 0.70519 0.0
C336 C 0.96333 0.5048 0.70514 0.0
Cd337 Cd 0.8985 0.60737 0.67969 0.0
Cd338 Cd 0.95498 0.67606 0.66801 0.0
C339 C 0.10833 0.65925 0.73683 0.0
C340 C 0.16961 0.64212 0.74488 0.0
C341 C 0.15602 0.65078 0.75493 0.0
C342 C 0.12154 0.66734 0.75621 0.0
C343 C 0.09638 0.6697 0.74703 0.0
C344 C 0.1461 0.64684 0.7358 0.0
Co345 Co 0.03104 0.6237 0.71904 0.0
N346 N 0.98712 0.62134 0.7303 0.0
N347 N 0.0275 0.56834 0.72538 0.0
C348 C 0.0046 0.55583 0.7348 0.0
C349 C 0.00831 0.52014 0.74095 0.0
C350 C 0.03798 0.50061 0.737 0.0
C351 C 0.06406 0.51781 0.72725 0.0
C352 C 0.05843 0.55352 0.72156 0.0
N353 N 0.07577 0.61828 0.70904 0.0
N354 N 0.97302 0.58663 0.70962 0.0
N355 N 0.08857 0.67003 0.72747 0.0
O356 O 0.91938 0.64958 0.65135 0.0
O357 O 0.85538 0.60848 0.66205 0.0
C358 C 0.85354 0.50424 0.67853 0.0
O359 O 0.88655 0.53243 0.67185 0.0
O360 O 0.83968 0.52451 0.68557 0.0
C361 C 0.88556 0.71002 0.6798 0.0
O362 O 0.86321 0.66398 0.68234 0.0
O363 O 0.9273 0.7294 0.67505 0.0
C364 C 0.98137 0.58575 0.7376 0.0
O365 O 0.95438 0.57699 0.74628 0.0
O366 O 0.98946 0.64224 0.68022 0.0
O367 O 0.04087 0.70292 0.66975 0.0
C368 C 0.08582 0.58183 0.71206 0.0
O369 O 0.11631 0.57186 0.70668 0.0
C370 C 0.09509 0.64783 0.69972 0.0
C371 C 0.06301 0.63876 0.69129 0.0
C372 C 0.07459 0.67496 0.68346 0.0
C373 C 0.12208 0.71727 0.68329 0.0
C374 C 0.15701 0.72412 0.6912 0.0
C375 C 0.14259 0.68991 0.69966 0.0
C376 C 0.87266 0.62463 0.65273 0.0
O377 O 0.91802 0.60586 0.69941 0.0
C378 C 0.03363 0.67197 0.67708 0.0
C379 C 0.95177 0.63846 0.72956 0.0
C380 C 0.96693 0.68941 0.72958 0.0
C381 C 0.93162 0.7047 0.73086 0.0
C382 C 0.8817 0.6694 0.7328 0.0
C383 C 0.8674 0.61873 0.73353 0.0
C384 C 0.90108 0.60354 0.7305 0.0
C385 C 0.10391 0.71787 0.72427 0.0
O386 O 0.14077 0.75671 0.72897 0.0
H387 H 0.10752 0.80321 0.714 0.0
H388 H 0.04289 0.79531 0.70096 0.0
H389 H 0.97254 0.71109 0.69598 0.0
H390 H 0.87538 0.52988 0.71489 0.0
H391 H 0.8648 0.38848 0.70912 0.0
H392 H 0.00063 0.52257 0.70192 0.0
H393 H 0.17827 0.65119 0.7616 0.0
H394 H 0.06934 0.68211 0.74763 0.0
H395 H 0.15912 0.64389 0.72797 0.0
H396 H -0.0098 0.50875 0.74863 0.0
H397 H 0.04201 0.47339 0.74164 0.0
H398 H 0.08872 0.50476 0.72447 0.0
H399 H 0.02679 0.6053 0.69147 0.0
H400 H 0.1315 0.74541 0.6772 0.0
H401 H 0.16783 0.69559 0.70615 0.0
H402 H 0.00581 0.71742 0.7293 0.0
H403 H 0.85616 0.68214 0.73512 0.0
H404 H 0.88998 0.56448 0.73132 0.0
C405 C 0.33559 0.07112 0.88436 0.0
C406 C 0.2931 0.07158 0.88071 0.0
C407 C 0.26095 0.03328 0.87367 0.0
C408 C 0.27132 -0.00458 0.87051 0.0
C409 C 0.31432 -0.00278 0.87452 0.0
N410 N 0.34339 0.03453 0.88107 0.0
C411 C 0.33409 0.96349 0.87225 0.0
C412 C 0.40586 0.95034 0.87551 0.0
C413 C 0.38272 0.9001 0.87865 0.0
C414 C 0.4075 0.87296 0.87745 0.0
C415 C 0.4553 0.89556 0.87303 0.0
C416 C 0.47801 0.94507 0.86963 0.0
C417 C 0.45331 0.97229 0.87081 0.0
Cd418 Cd 0.29242 0.90181 0.84723 0.0
Cd419 Cd 0.27847 0.95132 0.83106 0.0
C420 C 0.43948 0.11177 0.90412 0.0
C421 C 0.52102 0.16466 0.912 0.0
C422 C 0.49977 0.15022 0.92211 0.0
C423 C 0.448 0.12443 0.92341 0.0
C424 C 0.41767 0.10296 0.9144 0.0
C425 C 0.49081 0.14516 0.90299 0.0
Co426 Co 0.40012 0.03637 0.88603 0.0
N427 N 0.36728 0.99199 0.89787 0.0
N428 N 0.45771 0.0394 0.89093 0.0
C429 C 0.45404 0.01738 0.90024 0.0
C430 C 0.49764 0.02479 0.9052 0.0
C431 C 0.54375 0.05685 0.90019 0.0
C432 C 0.54543 0.08143 0.89059 0.0
C433 C 0.50017 0.07207 0.88613 0.0
N434 N 0.44299 0.08287 0.87525 0.0
N435 N 0.38042 0.9783 0.87666 0.0
N436 N 0.40883 0.09253 0.89476 0.0
O437 O 0.29364 0.90683 0.81781 0.0
O438 O 0.2494 0.85177 0.83006 0.0
C439 C 0.36985 0.88043 0.8466 0.0
O440 O 0.37076 0.91566 0.84122 0.0
O441 O 0.33047 0.8523 0.85193 0.0
C442 C 0.17421 0.87652 0.84417 0.0
O443 O 0.20231 0.86762 0.85008 0.0
O444 O 0.19218 0.90666 0.8364 0.0
C445 C 0.40269 0.9905 0.90421 0.0
O446 O 0.39133 0.9653 0.91318 0.0
O447 O 0.33229 0.99022 0.84609 0.0
O448 O 0.32964 0.0399 0.83414 0.0
C449 C 0.49176 0.09681 0.87705 0.0
O450 O 0.52808 0.12825 0.87082 0.0
C451 C 0.4267 0.09814 0.86617 0.0
C452 C 0.40219 0.06388 0.85819 0.0
C453 C 0.38026 0.07506 0.84972 0.0
C454 C 0.38941 0.12373 0.84847 0.0
C455 C 0.41945 0.16042 0.85592 0.0
C456 C 0.43604 0.14689 0.86506 0.0
C457 C 0.26144 0.86248 0.82025 0.0
O458 O 0.30629 0.91932 0.86704 0.0
C459 C 0.34633 0.0339 0.84285 0.0
C460 C 0.31553 0.95486 0.89865 0.0
C461 C 0.2785 0.96801 0.90004 0.0
C462 C 0.23098 0.93239 0.90357 0.0
C463 C 0.22136 0.88466 0.90636 0.0
C464 C 0.25956 0.87285 0.90555 0.0
C465 C 0.30344 0.90544 0.90028 0.0
C466 C 0.37262 0.10401 0.89225 0.0
O467 O 0.36839 0.13902 0.8973 0.0
H468 H 0.2847 0.10003 0.88326 0.0
H469 H 0.22792 0.0328 0.8707 0.0
H470 H 0.24687 0.96623 0.8651 0.0
H471 H 0.34548 0.88177 0.88195 0.0
H472 H 0.4744 0.87451 0.87208 0.0
H473 H 0.47079 0.00989 0.86778 0.0
H474 H 0.52317 0.16734 0.92903 0.0
H475 H 0.37747 0.08224 0.91526 0.0
H476 H 0.50646 0.15863 0.89517 0.0
H477 H 0.49633 0.00751 0.91277 0.0
H478 H 0.57813 0.06375 0.9039 0.0
H479 H 0.58073 0.10773 0.88699 0.0
H480 H 0.39965 0.02784 0.85873 0.0
H481 H 0.37527 0.13338 0.84153 0.0
H482 H 0.4578 0.17442 0.87105 0.0
H483 H 0.2868 0.00603 0.89926 0.0
H484 H 0.18665 0.85964 0.91035 0.0
H485 H 0.33273 0.89594 0.89978 0.0
C486 C 0.64783 0.72499 0.79608 0.0
C487 C 0.69096 0.76804 0.7994 0.0
C488 C 0.72223 0.76269 0.80684 0.0
C489 C 0.7104 0.71508 0.8107 0.0
C490 C 0.66668 0.67369 0.80704 0.0
N491 N 0.63823 0.68119 0.80014 0.0
C492 C 0.64737 0.62058 0.80959 0.0
C493 C 0.57579 0.53462 0.8063 0.0
C494 C 0.60127 0.50762 0.80535 0.0
C495 C 0.57523 0.45554 0.8057 0.0
C496 C 0.52374 0.42975 0.8073 0.0
C497 C 0.49858 0.45614 0.80895 0.0
C498 C 0.52458 0.50822 0.80861 0.0
Cd499 Cd 0.69643 0.60518 0.83462 0.0
Cd500 Cd 0.69167 0.65255 0.84958 0.0
C501 C 0.54109 0.66028 0.77691 0.0
C502 C 0.46024 0.64197 0.76997 0.0
C503 C 0.47602 0.63843 0.75974 0.0
C504 C 0.52544 0.65123 0.75773 0.0
C505 C 0.55798 0.66159 0.76639 0.0
C506 C 0.49289 0.65307 0.77859 0.0
Co507 Co 0.58261 0.62587 0.79495 0.0
N508 N 0.61833 0.61392 0.78364 0.0
N509 N 0.5262 0.57143 0.78964 0.0
C510 C 0.53219 0.55341 0.78045 0.0
C511 C 0.48975 0.51923 0.77484 0.0
C512 C 0.44252 0.50721 0.779 0.0
C513 C 0.43863 0.53031 0.78839 0.0
C514 C 0.48273 0.56416 0.79354 0.0
N515 N 0.53745 0.63062 0.80508 0.0
N516 N 0.60137 0.58815 0.80501 0.0
N517 N 0.57487 0.67237 0.78573 0.0
O518 O 0.66292 0.58922 0.8623 0.0
O519 O 0.72518 0.59216 0.85342 0.0
C520 C 0.62936 0.50445 0.83509 0.0
O521 O 0.62129 0.53607 0.83985 0.0
O522 O 0.67087 0.5197 0.83026 0.0
C523 C 0.80816 0.69649 0.84229 0.0
O524 O 0.78892 0.66437 0.83482 0.0
O525 O 0.78013 0.70099 0.84907 0.0
C526 C 0.58468 0.57693 0.77711 0.0
O527 O 0.59887 0.56011 0.76897 0.0
O528 O 0.64827 0.64733 0.83381 0.0
O529 O 0.64474 0.69308 0.84677 0.0
C530 C 0.48909 0.59743 0.80253 0.0
O531 O 0.45129 0.59326 0.80816 0.0
C532 C 0.55182 0.66069 0.81444 0.0
C533 C 0.57521 0.64954 0.82243 0.0
C534 C 0.59819 0.6824 0.83087 0.0
C535 C 0.59083 0.72289 0.83222 0.0
C536 C 0.5615 0.73083 0.8249 0.0
C537 C 0.54323 0.70083 0.81574 0.0
C538 C 0.70028 0.58286 0.8621 0.0
O539 O 0.67666 0.60569 0.81478 0.0
C540 C 0.63179 0.67434 0.83758 0.0
C541 C 0.6683 0.62304 0.7847 0.0
C542 C 0.70895 0.67143 0.78459 0.0
C543 C 0.75625 0.67949 0.78704 0.0
C544 C 0.76363 0.63926 0.78908 0.0
C545 C 0.72372 0.58944 0.7883 0.0
C546 C 0.67598 0.58273 0.78641 0.0
C547 C 0.61177 0.72004 0.78785 0.0
O548 O 0.61655 0.75852 0.78244 0.0
H549 H 0.70066 0.80433 0.79626 0.0
H550 H 0.75595 0.79532 0.8095 0.0
H551 H 0.73468 0.7109 0.81627 0.0
H552 H 0.64109 0.52623 0.80417 0.0
H553 H 0.50361 0.38945 0.80756 0.0
H554 H 0.50473 0.52759 0.81047 0.0
H555 H 0.4515 0.63289 0.75308 0.0
H556 H 0.59657 0.67215 0.76498 0.0
H557 H 0.48175 0.65822 0.78645 0.0
H558 H 0.49286 0.50362 0.76735 0.0
H559 H 0.40908 0.48141 0.77476 0.0
H560 H 0.40266 0.52318 0.79128 0.0
H561 H 0.57638 0.61531 0.82194 0.0
H562 H 0.60628 0.74708 0.83908 0.0
H563 H 0.52164 0.70769 0.80991 0.0
H564 H 0.70409 0.70291 0.78284 0.0
H565 H 0.80147 0.6483 0.79062 0.0
H566 H 0.64372 0.54603 0.78608 0.0
C567 C 0.90928 0.63607 0.96521 0.0
C568 C 0.91002 0.67933 0.96879 0.0
C569 C 0.94919 0.71166 0.97562 0.0
C570 C 0.98674 0.70071 0.97864 0.0
C571 C 0.98362 0.65684 0.97474 0.0
N572 N 0.94534 0.62747 0.96844 0.0
C573 C 0.01795 0.63744 0.97663 0.0
C574 C 0.03008 0.56469 0.97354 0.0
C575 C 0.08201 0.58856 0.97185 0.0
C576 C 0.10766 0.56231 0.97297 0.0
C577 C 0.08217 0.51238 0.97605 0.0
C578 C 0.03136 0.4892 0.9784 0.0
C579 C 0.0056 0.51535 0.97726 0.0
Cd580 Cd 0.08188 0.69085 1.00066 0.0
Cd581 Cd 0.03304 0.70316 0.01587 0.0
C582 C 0.86915 0.53517 0.94482 0.0
C583 C 0.817 0.45671 0.93561 0.0
C584 C 0.83029 0.48204 0.92586 0.0
C585 C 0.85531 0.53411 0.92562 0.0
C586 C 0.87711 0.56055 0.93505 0.0
C587 C 0.83684 0.48337 0.94509 0.0
Co588 Co 0.94393 0.57164 0.96294 0.0
N589 N 0.98727 0.60665 0.95105 0.0
N590 N 0.94146 0.51528 0.95742 0.0
C591 C 0.96336 0.52073 0.94798 0.0
C592 C 0.95602 0.47802 0.94257 0.0
C593 C 0.92399 0.43105 0.94725 0.0
C594 C 0.8992 0.4276 0.95696 0.0
C595 C 0.90843 0.47199 0.96189 0.0
N596 N 0.89815 0.52718 0.97365 0.0
N597 N 0.00299 0.59109 0.97214 0.0
N598 N 0.88693 0.56299 0.9546 0.0
O599 O 0.08222 0.69733 0.02944 0.0
O600 O 0.13369 0.74191 0.01663 0.0
C601 C 0.117 0.62742 1.007 0.0
O602 O 0.08222 0.63007 0.01184 0.0
O603 O 0.13525 0.65364 0.99861 0.0
C604 C 0.10189 0.80849 1.00322 0.0
O605 O 0.11367 0.78139 0.99762 0.0
O606 O 0.07026 0.7892 0.01071 0.0
C607 C -0.01012 0.57286 0.94436 0.0
O608 O 0.01884 0.58687 0.9359 0.0
O609 O -0.00738 0.64373 1.00155 0.0
O610 O 0.94461 0.6475 0.01388 0.0
C611 C 0.8834 0.47871 0.97122 0.0
O612 O 0.85183 0.44129 0.97719 0.0
C613 C 0.88275 0.54232 0.98296 0.0
C614 C 0.91759 0.56808 0.99077 0.0
C615 C 0.90727 0.59198 0.99903 0.0
C616 C 0.85872 0.58329 1.00035 0.0
C617 C 0.82143 0.55188 0.99317 0.0
C618 C 0.83407 0.53323 0.98418 0.0
C619 C 0.12546 0.73055 0.02651 0.0
O620 O 0.06325 0.66623 0.98131 0.0
C621 C 0.94945 0.62874 1.00531 0.0
C622 C 0.02743 0.65685 0.95172 0.0
C623 C 0.01933 0.6975 0.95151 0.0
C624 C 0.05935 0.74566 0.95304 0.0
C625 C 0.10755 0.75338 0.95447 0.0
C626 C 0.11617 0.71271 0.9542 0.0
C627 C 0.07547 0.66481 0.95308 0.0
C628 C 0.87568 0.59915 0.9574 0.0
O629 O 0.84044 0.60372 0.9526 0.0
H630 H 0.88199 0.68832 0.96628 0.0
H631 H 0.95077 0.74544 0.97848 0.0
H632 H 0.01695 0.72562 0.98379 0.0
H633 H 0.10317 0.62744 0.96971 0.0
H634 H 0.10194 0.49197 0.97679 0.0
H635 H 0.96717 0.49739 0.97968 0.0
H636 H 0.8113 0.46169 0.91872 0.0
H637 H 0.89646 0.60095 0.93497 0.0
H638 H 0.8236 0.46467 0.95266 0.0
H639 H 0.97321 0.48064 0.93491 0.0
H640 H 0.91718 0.39736 0.94319 0.0
H641 H 0.87286 0.39168 0.9603 0.0
H642 H 0.95376 0.57097 0.99013 0.0
H643 H 0.84971 0.59939 1.00707 0.0
H644 H 0.80608 0.51084 0.97833 0.0
H645 H 0.98241 0.69207 0.95024 0.0
H646 H 0.1381 0.79133 0.95505 0.0
H647 H 0.08113 0.63303 0.95283 0.0
C648 C 0.26125 0.90423 0.13006 0.0
C649 C 0.21717 0.90286 0.13325 0.0
C650 C 0.22098 0.94078 0.14017 0.0
C651 C 0.26806 0.97899 0.14371 0.0
C652 C 0.31048 0.97802 0.14017 0.0
N653 N 0.30442 0.9414 0.1336 0.0
C654 C 0.36319 0.01252 0.14284 0.0
C655 C 0.44939 0.02712 0.14035 0.0
C656 C 0.47678 0.07808 0.13778 0.0
C657 C 0.52857 0.10452 0.13892 0.0
C658 C 0.55343 0.08086 0.14294 0.0
C659 C 0.52634 0.03095 0.14603 0.0
C660 C 0.47458 0.0043 0.1448 0.0
Cd661 Cd 0.3798 0.08217 0.16695 0.0
Cd662 Cd 0.31753 0.03397 0.18114 0.0
C663 C 0.32932 0.8728 0.10979 0.0
C664 C 0.36205 0.82922 0.09912 0.0
C665 C 0.35006 0.8462 0.0899 0.0
C666 C 0.32273 0.87074 0.09042 0.0
C667 C 0.31303 0.88482 0.10034 0.0
C668 C 0.35265 0.8435 0.10915 0.0
Co669 Co 0.36082 0.94136 0.129 0.0
N670 N 0.37386 0.98688 0.11732 0.0
N671 N 0.41685 0.94039 0.12452 0.0
C672 C 0.43963 0.96728 0.11589 0.0
C673 C 0.47976 0.964 0.11164 0.0
C674 C 0.4932 0.93138 0.11664 0.0
C675 C 0.46627 0.90251 0.12557 0.0
C676 C 0.42652 0.90773 0.12935 0.0
N677 N 0.35584 0.89444 0.13974 0.0
N678 N 0.39632 -0.00111 0.13871 0.0
N679 N 0.31632 0.88523 0.11996 0.0
O680 O 0.35794 0.07713 0.19664 0.0
O681 O 0.38427 0.13263 0.18381 0.0
C682 C 0.4829 0.12625 0.16754 0.0
O683 O 0.45541 0.09333 0.1743 0.0
O684 O 0.46176 0.13907 0.16053 0.0
C685 C 0.28318 0.10316 0.16851 0.0
O686 O 0.32481 0.11728 0.16387 0.0
O687 O 0.26675 0.06754 0.17517 0.0
C688 C 0.4158 -0.00494 0.11191 0.0
O689 O 0.43435 0.02676 0.10395 0.0
O690 O 0.3417 0.99284 0.16775 0.0
O691 O 0.28706 0.94675 0.17983 0.0
C692 C 0.39143 0.88118 0.13813 0.0
O693 O 0.39672 0.85067 0.14456 0.0
C694 C 0.32459 0.88098 0.14893 0.0
C695 C 0.33861 0.91446 0.15727 0.0
C696 C 0.30508 0.90712 0.16547 0.0
C697 C 0.26059 0.86194 0.16621 0.0
C698 C 0.24719 0.82512 0.15827 0.0
C699 C 0.27858 0.83691 0.14923 0.0
C700 C 0.37767 0.12227 0.19375 0.0
O701 O 0.37758 0.05743 0.14757 0.0
C702 C 0.31315 0.95036 0.17173 0.0
C703 C 0.35228 0.01807 0.11641 0.0
C704 C 0.30159 -0.00251 0.11412 0.0
C705 C 0.27922 0.0268 0.11478 0.0
C706 C 0.30754 0.07691 0.11754 0.0
C707 C 0.35935 0.09885 0.11943 0.0
C708 C 0.38122 0.06885 0.11869 0.0
C709 C 0.26787 0.87187 0.12237 0.0
O710 O 0.22998 0.83692 0.11705 0.0
H711 H 0.18121 0.87407 0.13043 0.0
H712 H 0.18751 0.94067 0.14276 0.0
H713 H 0.27102 0.00788 0.14903 0.0
H714 H 0.45847 0.09777 0.13499 0.0
H715 H 0.5935 0.10145 0.14386 0.0
H716 H 0.45441 0.96634 0.14758 0.0
H717 H 0.35636 0.83448 0.08217 0.0
H718 H 0.29093 0.90304 0.10072 0.0
H719 H 0.36024 0.82923 0.11633 0.0
H720 H 0.49948 0.98508 0.10465 0.0
H721 H 0.52391 0.92785 0.11349 0.0
H722 H 0.47581 0.87677 0.12925 0.0
H723 H 0.37436 0.94841 0.15691 0.0
H724 H 0.23724 0.85643 0.17305 0.0
H725 H 0.26835 0.8123 0.14244 0.0
H726 H 0.27917 0.95878 0.11193 0.0
H727 H 0.28902 0.09876 0.11757 0.0
H728 H 0.42091 0.0849 0.1197 0.0
C729 C 0.34974 0.26456 0.29815 0.0
C730 C 0.3094 0.2208 0.30218 0.0
C731 C 0.2769 0.22534 0.30947 0.0
C732 C 0.28478 0.27281 0.31251 0.0
C733 C 0.32577 0.31493 0.30815 0.0
N734 N 0.35534 0.30817 0.30138 0.0
C735 C 0.34125 0.36798 0.30982 0.0
C736 C 0.40954 0.4546 0.3058 0.0
C737 C 0.38362 0.47991 0.30336 0.0
C738 C 0.40822 0.53198 0.30339 0.0
C739 C 0.45828 0.55935 0.30631 0.0
C740 C 0.48346 0.53458 0.30944 0.0
C741 C 0.45913 0.48252 0.30925 0.0
Cd742 Cd 0.28549 0.3813 0.33367 0.0
Cd743 Cd 0.28709 0.33424 0.34925 0.0
C744 C 0.44649 0.32927 0.27694 0.0
C745 C 0.52458 0.35899 0.26707 0.0
C746 C 0.49782 0.34882 0.25755 0.0
C747 C 0.44587 0.32435 0.25751 0.0
C748 C 0.42009 0.31474 0.26723 0.0
C749 C 0.49882 0.3501 0.27682 0.0
Co750 Co 0.40766 0.36403 0.29546 0.0
N751 N 0.36859 0.3692 0.28392 0.0
N752 N 0.46086 0.41944 0.28958 0.0
C753 C 0.4524 0.435 0.28035 0.0
C754 C 0.49305 0.47239 0.27477 0.0
C755 C 0.54125 0.49043 0.27908 0.0
C756 C 0.54798 0.47026 0.28862 0.0
C757 C 0.50555 0.43279 0.29372 0.0
N758 N 0.45535 0.36638 0.3058 0.0
N759 N 0.38596 0.40113 0.3049 0.0
N760 N 0.41942 0.31803 0.28688 0.0
O761 O 0.27946 0.37812 0.36361 0.0
O762 O 0.24051 0.38907 0.35014 0.0
C763 C 0.33884 0.48348 0.33591 0.0
O764 O 0.34342 0.45461 0.34244 0.0
O765 O 0.30853 0.46413 0.32817 0.0
C766 C 0.17508 0.28059 0.33978 0.0
O767 O 0.19498 0.31753 0.33338 0.0
O768 O 0.20214 0.2732 0.34626 0.0
C769 C 0.3997 0.40684 0.27716 0.0
O770 O 0.38281 0.41982 0.26888 0.0
O771 O 0.34397 0.35134 0.3345 0.0
O772 O 0.34995 0.31078 0.34814 0.0
C773 C 0.5025 0.40252 0.30306 0.0
O774 O 0.54158 0.41237 0.30888 0.0
C775 C 0.44324 0.33977 0.31567 0.0
C776 C 0.42175 0.35365 0.32372 0.0
C777 C 0.40111 0.32365 0.33273 0.0
C778 C 0.40888 0.2836 0.33442 0.0
C779 C 0.4345 0.27177 0.3268 0.0
C780 C 0.45022 0.29874 0.31719 0.0
C781 C 0.24811 0.38977 0.36016 0.0
O782 O 0.30934 0.38155 0.31425 0.0
C783 C 0.36474 0.32995 0.33901 0.0
C784 C 0.31681 0.35417 0.28497 0.0
C785 C 0.28071 0.30391 0.28585 0.0
C786 C 0.23349 0.29068 0.28971 0.0
C787 C 0.22112 0.32733 0.29202 0.0
C788 C 0.2548 0.37827 0.28975 0.0
C789 C 0.30306 0.39058 0.28636 0.0
C790 C 0.38608 0.27006 0.28987 0.0
O791 O 0.38316 0.23132 0.28487 0.0
H792 H 0.3027 0.18448 0.29967 0.0
H793 H 0.2453 0.19212 0.31267 0.0
H794 H 0.25964 0.27632 0.31799 0.0
H795 H 0.3445 0.45989 0.30148 0.0
H796 H 0.47717 0.59965 0.30639 0.0
H797 H 0.4789 0.46436 0.31206 0.0
H798 H 0.51744 0.3555 0.25002 0.0
H799 H 0.37969 0.29518 0.26728 0.0
H800 H 0.51883 0.35667 0.28423 0.0
H801 H 0.48803 0.48637 0.26726 0.0
H802 H 0.57342 0.51904 0.27489 0.0
H803 H 0.58494 0.48263 0.29171 0.0
H804 H 0.41857 0.38661 0.32268 0.0
H805 H 0.39398 0.26077 0.3415 0.0
H806 H 0.46839 0.28861 0.31109 0.0
H807 H 0.28972 0.27509 0.28412 0.0
H808 H 0.18405 0.31435 0.29506 0.0
H809 H 0.33104 0.4286 0.28474 0.0
C810 C 0.07106 0.34425 0.46151 0.0
C811 C 0.06996 0.29958 0.46399 0.0
C812 C 0.03105 0.26495 0.47062 0.0
C813 C -0.00611 0.27492 0.47448 0.0
C814 C -0.00283 0.32018 0.47165 0.0
N815 N 0.03566 0.35209 0.46559 0.0
C816 C 0.96198 0.33793 0.47423 0.0
C817 C 0.94905 0.4111 0.47265 0.0
C818 C 0.89696 0.38715 0.4713 0.0
C819 C 0.8711 0.4128 0.47316 0.0
C820 C 0.8966 0.46219 0.47662 0.0
C821 C 0.9477 0.48538 0.47857 0.0
C822 C 0.97361 0.4598 0.47673 0.0
Cd823 Cd 0.901 0.2903 0.49934 0.0
Cd824 Cd 0.94493 0.30347 0.51545 0.0
C825 C 0.11169 0.45251 0.44288 0.0
C826 C 0.16553 0.53461 0.43515 0.0
C827 C 0.15199 0.51389 0.42501 0.0
C828 C 0.12063 0.46269 0.42353 0.0
C829 C 0.10018 0.43197 0.43252 0.0
C830 C 0.14573 0.50388 0.44414 0.0
Co831 Co 0.03564 0.40849 0.46092 0.0
N832 N -0.00871 0.37508 0.44903 0.0
N833 N 0.03632 0.46514 0.45617 0.0
C834 C 0.01281 0.46082 0.44702 0.0
C835 C 0.01823 0.50399 0.44219 0.0
C836 C 0.05008 0.55034 0.4471 0.0
C837 C 0.07656 0.55276 0.45644 0.0
C838 C 0.06921 0.50796 0.46079 0.0
N839 N 0.08285 0.45225 0.4717 0.0
N840 N 0.97641 0.38551 0.47044 0.0
N841 N 0.0925 0.42013 0.45203 0.0
O842 O 0.89404 0.30813 0.5287 0.0
O843 O 0.84942 0.2515 0.5167 0.0
C844 C 0.87402 0.36301 0.50132 0.0
O845 O 0.91271 0.36738 0.50589 0.0
O846 O 0.84687 0.32352 0.49595 0.0
C847 C 0.88736 0.1845 0.50777 0.0
O848 O 0.8704 0.19957 0.50027 0.0
O849 O 0.91905 0.21602 0.51421 0.0
C850 C 0.98652 0.4094 0.44301 0.0
O851 O 0.95616 0.39629 0.43482 0.0
O852 O -0.00923 0.33143 0.49904 0.0
O853 O 0.03269 0.35772 0.51395 0.0
C854 C 0.09582 0.50073 0.46968 0.0
O855 O 0.12608 0.53771 0.47589 0.0
C856 C 0.09884 0.43736 0.48101 0.0
C857 C 0.0629 0.40597 0.48806 0.0
C858 C 0.0744 0.38901 0.49732 0.0
C859 C 0.12401 0.41001 0.5004 0.0
C860 C 0.1612 0.44742 0.49403 0.0
C861 C 0.14899 0.45947 0.48407 0.0
C862 C 0.85435 0.26844 0.52622 0.0
O863 O 0.91786 0.30789 0.47939 0.0
C864 C 0.03203 0.35476 0.50389 0.0
C865 C 0.95287 0.32394 0.44925 0.0
C866 C 0.96369 0.28541 0.44795 0.0
C867 C 0.92628 0.23604 0.44952 0.0
C868 C 0.87792 0.22504 0.45218 0.0
C869 C 0.86621 0.26353 0.45303 0.0
C870 C 0.90417 0.31269 0.45149 0.0
C871 C 0.10368 0.38311 0.45387 0.0
O872 O 0.13806 0.37965 0.44836 0.0
H873 H 0.09734 0.29113 0.46073 0.0
H874 H 0.02914 0.23 0.4726 0.0
H875 H 0.96351 0.24798 0.47936 0.0
H876 H 0.87587 0.34867 0.46886 0.0
H877 H 0.87658 0.48201 0.47806 0.0
H878 H 0.01228 0.47761 0.4789 0.0
H879 H 0.16936 0.53779 0.41816 0.0
H880 H 0.07616 0.39214 0.43152 0.0
H881 H 0.15814 0.51939 0.45199 0.0
H882 H -0.00035 0.50223 0.43479 0.0
H883 H 0.05541 0.58441 0.44349 0.0
H884 H 0.10271 0.58833 0.45993 0.0
H885 H 0.02555 0.3984 0.48681 0.0
H886 H 0.13311 0.40093 0.5081 0.0
H887 H 0.17772 0.4884 0.47917 0.0
H888 H 0.00089 0.29345 0.44586 0.0
H889 H 0.84937 0.18628 0.45294 0.0
H890 H 0.89603 0.34282 0.45192 0.0
C891 C 0.71954 0.07148 0.6315 0.0
C892 C 0.76099 0.06751 0.63448 0.0
C893 C 0.75284 0.02625 0.6408 0.0
C894 C 0.70407 0.98986 0.64392 0.0
C895 C 0.66437 -0.00387 0.64064 0.0
N896 N 0.67455 0.03622 0.63475 0.0
C897 C 0.61063 0.96392 0.64294 0.0
C898 C 0.52763 0.95754 0.6405 0.0
C899 C 0.4979 0.90679 0.63787 0.0
C900 C 0.44596 0.88422 0.63795 0.0
C901 C 0.42321 0.91149 0.64103 0.0
C902 C 0.45225 0.96054 0.64452 0.0
C903 C 0.50419 0.98318 0.64442 0.0
Cd904 Cd 0.59575 0.89273 0.66695 0.0
Cd905 Cd 0.63841 0.93457 0.68257 0.0
C906 C 0.66152 0.11878 0.61208 0.0
C907 C 0.6289 0.16593 0.60286 0.0
C908 C 0.64463 0.15627 0.59318 0.0
C909 C 0.67246 0.13214 0.59281 0.0
C910 C 0.67936 0.11162 0.6022 0.0
C911 C 0.63869 0.14851 0.61236 0.0
Co912 Co 0.62173 0.04301 0.63026 0.0
N913 N 0.60739 0.0003 0.61793 0.0
N914 N 0.56927 0.05071 0.62582 0.0
C915 C 0.54896 0.02995 0.61652 0.0
C916 C 0.51317 0.0397 0.61213 0.0
C917 C 0.50164 0.07256 0.61767 0.0
C918 C 0.52669 0.09576 0.62721 0.0
C919 C 0.56215 0.08425 0.63108 0.0
N920 N 0.62908 0.08941 0.6416 0.0
N921 N 0.58104 0.98291 0.63925 0.0
N922 N 0.67091 0.09979 0.62182 0.0
O923 O 0.59704 0.88112 0.69646 0.0
O924 O 0.58503 0.83218 0.68266 0.0
C925 C 0.50325 0.87795 0.67359 0.0
O926 O 0.54348 0.90811 0.67834 0.0
O927 O 0.50603 0.85345 0.66565 0.0
C928 C 0.69752 0.88458 0.67105 0.0
O929 O 0.65806 0.86319 0.66541 0.0
O930 O 0.7027 0.91756 0.67774 0.0
C931 C 0.57059 0.00113 0.612 0.0
O932 O 0.55268 0.9742 0.60333 0.0
O933 O 0.64474 0.98198 0.66722 0.0
O934 O 0.66984 0.0216 0.68249 0.0
C935 C 0.59646 0.10659 0.64012 0.0
O936 O 0.59299 0.13736 0.64683 0.0
C937 C 0.65889 0.09978 0.65095 0.0
C938 C 0.64688 0.06131 0.65797 0.0
C939 C 0.67738 0.06695 0.6666 0.0
C940 C 0.71636 0.1138 0.66919 0.0
C941 C 0.72398 0.15529 0.66318 0.0
C942 C 0.69691 0.14791 0.65364 0.0
C943 C 0.585 0.83837 0.69279 0.0
O944 O 0.59237 0.91758 0.64745 0.0
C945 C 0.66634 0.02225 0.67246 0.0
C946 C 0.61607 0.95909 0.61741 0.0
C947 C 0.6642 0.96626 0.61634 0.0
C948 C 0.67134 0.92518 0.61623 0.0
C949 C 0.63044 0.87692 0.61681 0.0
C950 C 0.58134 0.86904 0.61734 0.0
C951 C 0.57532 0.91083 0.61798 0.0
C952 C 0.71763 0.10795 0.62425 0.0
O953 O 0.75788 0.14264 0.61946 0.0
H954 H 0.79821 0.09473 0.6319 0.0
H955 H 0.78423 0.02225 0.6432 0.0
H956 H 0.6978 0.95823 0.64872 0.0
H957 H 0.51441 0.88457 0.63557 0.0
H958 H 0.38315 0.89457 0.64078 0.0
H959 H 0.52574 0.02034 0.64756 0.0
H960 H 0.63976 0.1725 0.58594 0.0
H961 H 0.70038 0.0922 0.60191 0.0
H962 H 0.63064 0.15988 0.61989 0.0
H963 H 0.4955 0.02347 0.60462 0.0
H964 H 0.47438 0.08109 0.61443 0.0
H965 H 0.51946 0.12252 0.63122 0.0
H966 H 0.61282 0.02655 0.65678 0.0
H967 H 0.73873 0.11831 0.67618 0.0
H968 H 0.70293 0.17919 0.64874 0.0
H969 H 0.69602 0.00327 0.61552 0.0
H970 H 0.63773 0.84631 0.6161 0.0
H971 H 0.53848 0.90634 0.61849 0.0
H972 H 0.30769 0.74361 0.08838 0.0
H973 H 0.445 0.82515 0.10616 0.0
H974 H 0.46938 0.76271 0.10062 0.0
H975 H 0.28305 0.62087 0.09339 0.0
H976 H 0.25929 0.59968 0.08019 0.0
H977 H 0.25491 0.65043 0.08602 0.0
H978 H 0.30118 0.70468 0.06958 0.0
H979 H 0.30754 0.65455 0.06392 0.0
H980 H 0.36205 0.7146 0.06611 0.0
H981 H 0.4758 0.68819 0.09323 0.0
H982 H 0.45882 0.6051 0.08705 0.0
H983 H 0.32038 0.57866 0.07299 0.0
C984 C 0.34285 0.74821 0.09119 0.0
C985 C 0.3746 0.78909 0.09769 0.0
C986 C 0.42006 0.79379 0.10125 0.0
C987 C 0.43437 0.75895 0.098 0.0
C988 C 0.40298 0.72034 0.09112 0.0
C989 C 0.35795 0.71484 0.08786 0.0
C990 C 0.33012 0.67041 0.08061 0.0
C991 C 0.27885 0.63314 0.08534 0.0
C992 C 0.32493 0.68707 0.06939 0.0
C993 C 0.36532 0.64981 0.0806 0.0
C994 C 0.40766 0.6795 0.08654 0.0
C995 C 0.44328 0.66533 0.08842 0.0
C996 C 0.43376 0.61842 0.08475 0.0
C997 C 0.389 0.5863 0.07929 0.0
C998 C 0.35578 0.60339 0.07674 0.0
H999 H 0.74147 0.3282 0.24151 0.0
H1000 H 0.84835 0.45035 0.26084 0.0
H1001 H 0.78096 0.46514 0.26744 0.0
H1002 H 0.65417 0.37541 0.23564 0.0
H1003 H 0.60128 0.31356 0.23707 0.0
H1004 H 0.65986 0.32176 0.23228 0.0
H1005 H 0.65763 0.26322 0.24729 0.0
H1006 H 0.60025 0.25646 0.25241 0.0
H1007 H 0.65386 0.27875 0.26096 0.0
H1008 H 0.69697 0.45881 0.2734 0.0
H1009 H 0.60851 0.43493 0.27702 0.0
H1010 H 0.56017 0.31063 0.25524 0.0
C1011 C 0.7511 0.35986 0.24666 0.0
C1012 C 0.80015 0.38933 0.25038 0.0
C1013 C 0.81107 0.42852 0.25764 0.0
C1014 C 0.77293 0.43672 0.26151 0.0
C1015 C 0.72409 0.40481 0.25815 0.0
C1016 C 0.71346 0.36742 0.2508 0.0
C1017 C 0.65805 0.33392 0.2494 0.0
C1018 C 0.64243 0.33634 0.23792 0.0
C1019 C 0.64152 0.27993 0.25272 0.0
C1020 C 0.63885 0.35797 0.25709 0.0
C1021 C 0.677 0.39912 0.26204 0.0
C1022 C 0.66696 0.42676 0.26949 0.0
C1023 C 0.61671 0.41274 0.2716 0.0
C1024 C 0.57755 0.37133 0.26632 0.0
C1025 C 0.58927 0.34307 0.25927 0.0
H1026 H 0.26263 0.56976 0.4312 0.0
H1027 H 0.15556 0.61671 0.43853 0.0
H1028 H 0.21555 0.70219 0.43224 0.0
H1029 H 0.37845 0.69067 0.43683 0.0
H1030 H 0.41076 0.68209 0.42578 0.0
H1031 H 0.36372 0.62879 0.43291 0.0
H1032 H 0.31714 0.59176 0.41531 0.0
H1033 H 0.36248 0.64522 0.40798 0.0
H1034 H 0.29738 0.62709 0.40731 0.0
H1035 H 0.28702 0.78166 0.42358 0.0
H1036 H 0.36492 0.84777 0.41518 0.0
H1037 H 0.41686 0.74218 0.41127 0.0
C1038 C 0.25303 0.59886 0.43202 0.0
C1039 C 0.20531 0.58737 0.43566 0.0
C1040 C 0.19269 0.62545 0.43613 0.0
C1041 C 0.22627 0.6738 0.4324 0.0
C1042 C 0.27185 0.68296 0.42813 0.0
C1043 C 0.28541 0.64656 0.42809 0.0
C1044 C 0.33404 0.66364 0.42224 0.0
C1045 C 0.37413 0.66651 0.42989 0.0
C1046 C 0.32731 0.62991 0.41264 0.0
C1047 C 0.3453 0.7149 0.4187 0.0
C1048 C 0.3097 0.72603 0.4223 0.0
C1049 C 0.31466 0.77296 0.4206 0.0
C1050 C 0.35839 0.81 0.41561 0.0
C1051 C 0.39562 0.79929 0.41212 0.0
C1052 C 0.38775 0.75055 0.41333 0.0
H1053 H 0.69287 0.42947 0.58342 0.0
H1054 H 0.53651 0.37516 0.57743 0.0
H1055 H 0.51615 0.29153 0.58427 0.0
H1056 H 0.69718 0.31448 0.57865 0.0
H1057 H 0.73985 0.32855 0.58956 0.0
H1058 H 0.73987 0.3784 0.5822 0.0
H1059 H 0.72709 0.41323 0.60005 0.0
H1060 H 0.72387 0.36169 0.60736 0.0
H1061 H 0.67317 0.37461 0.60813 0.0
H1062 H 0.51535 0.21362 0.59243 0.0
H1063 H 0.53457 0.15072 0.59988 0.0
H1064 H 0.68925 0.26437 0.60324 0.0
C1065 C 0.65459 0.39923 0.5831 0.0
C1066 C 0.61636 0.40791 0.57963 0.0
C1067 C 0.56636 0.36845 0.57975 0.0
C1068 C 0.55454 0.32126 0.58379 0.0
C1069 C 0.59316 0.31502 0.58785 0.0
C1070 C 0.6422 0.35315 0.58745 0.0
C1071 C 0.6767 0.33974 0.59317 0.0
C1072 C 0.71567 0.3403 0.58543 0.0
C1073 C 0.70166 0.37438 0.60274 0.0
C1074 C 0.63987 0.28757 0.59675 0.0
C1075 C 0.59181 0.27341 0.59357 0.0
C1076 C 0.55263 0.22481 0.59516 0.0
C1077 C 0.56357 0.1895 0.59957 0.0
C1078 C 0.61292 0.20349 0.60256 0.0
C1079 C 0.65084 0.2535 0.60152 0.0
H1080 H 0.1899 0.56743 0.74983 0.0
H1081 H 0.25745 0.72247 0.74044 0.0
H1082 H 0.33635 0.73969 0.74883 0.0
H1083 H 0.24393 0.58268 0.77417 0.0
H1084 H 0.25765 0.53249 0.77362 0.0
H1085 H 0.20688 0.52892 0.76595 0.0
H1086 H 0.24414 0.51745 0.7484 0.0
H1087 H 0.29301 0.5173 0.75612 0.0
H1088 H 0.30854 0.56038 0.74521 0.0
H1089 H 0.3998 0.74381 0.76146 0.0
H1090 H 0.46254 0.72938 0.77026 0.0
H1091 H 0.3609 0.56994 0.76923 0.0
C1092 C 0.22231 0.60418 0.74897 0.0
C1093 C 0.21796 0.64369 0.74443 0.0
C1094 C 0.26053 0.69168 0.74369 0.0
C1095 C 0.30504 0.70203 0.74868 0.0
C1096 C 0.30678 0.66342 0.75396 0.0
C1097 C 0.26792 0.61481 0.75354 0.0
C1098 C 0.28108 0.58013 0.75947 0.0
C1099 C 0.24524 0.55455 0.76886 0.0
C1100 C 0.28176 0.54155 0.75184 0.0
C1101 C 0.3331 0.61718 0.76337 0.0
C1102 C 0.34594 0.6652 0.76048 0.0
C1103 C 0.39084 0.70631 0.76354 0.0
C1104 C 0.42579 0.69784 0.76876 0.0
C1105 C 0.41637 0.64869 0.77044 0.0
C1106 C 0.36854 0.60788 0.76821 0.0
H1107 H 0.79504 0.3593 0.93169 0.0
H1108 H 0.73016 0.45251 0.93852 0.0
H1109 H 0.65081 0.38945 0.93069 0.0
H1110 H 0.73907 0.30785 0.90815 0.0
H1111 H 0.72228 0.24386 0.9105 0.0
H1112 H 0.77434 0.29333 0.91744 0.0
H1113 H 0.73564 0.2548 0.93571 0.0
H1114 H 0.68495 0.20362 0.92882 0.0
H1115 H 0.67217 0.23867 0.93856 0.0
H1116 H 0.58898 0.32954 0.91829 0.0
H1117 H 0.52509 0.25187 0.91 0.0
H1118 H 0.61868 0.1857 0.91457 0.0
C1119 C 0.76319 0.36492 0.93205 0.0
C1120 C 0.76836 0.4106 0.93566 0.0
C1121 C 0.72642 0.41739 0.93589 0.0
C1122 C 0.68162 0.38233 0.93127 0.0
C1123 C 0.67877 0.33961 0.92696 0.0
C1124 C 0.71673 0.32865 0.92802 0.0
C1125 C 0.70117 0.27749 0.92337 0.0
C1126 C 0.73633 0.28088 0.91433 0.0
C1127 C 0.69829 0.24151 0.93214 0.0
C1128 C 0.64968 0.26305 0.91914 0.0
C1129 C 0.63896 0.30077 0.92094 0.0
C1130 C 0.59596 0.29887 0.91712 0.0
C1131 C 0.56047 0.25511 0.91219 0.0
C1132 C 0.56718 0.21316 0.91165 0.0
C1133 C 0.61316 0.21763 0.91476 0.0
H1134 H 0.12203 0.87891 0.01844 0.0
H1135 H 0.14187 0.86127 0.98483 0.0
H1136 H 0.18642 0.9531 0.98265 0.0
H1137 H 0.10498 0.98617 0.01642 0.0
H1138 H 0.14018 0.01538 0.02828 0.0
H1139 H 0.10742 0.94843 0.02706 0.0
H1140 H 0.18955 0.94769 0.03056 0.0
H1141 H 0.22255 0.0146 0.0318 0.0
H1142 H 0.24331 0.98497 0.02232 0.0
H1143 H 0.22509 0.04561 0.98402 0.0
H1144 H 0.26508 0.13414 0.989 0.0
H1145 H 0.2287 0.09312 0.02219 0.0
C1146 C 0.13524 0.8944 0.01059 0.0
C1147 C 0.1278 0.86311 1.00173 0.0
C1148 C 0.14684 0.88466 0.99167 0.0
C1149 C 0.17202 0.93665 0.99037 0.0
C1150 C 0.17858 0.9664 0.99926 0.0
C1151 C 0.16143 0.94616 0.00921 0.0
C1152 C 0.17593 0.98656 0.01757 0.0
C1153 C 0.12935 0.98397 0.02263 0.0
C1154 C 0.20986 0.98325 0.02606 0.0
C1155 C 0.20404 0.03289 0.01076 0.0
C1156 C 0.2041 0.02015 1.0002 0.0
C1157 C 0.2256 0.056 0.99227 0.0
C1158 C 0.24798 0.1062 0.99519 0.0
C1159 C 0.25001 0.12042 1.00598 0.0
C1160 C 0.22787 0.08323 0.01389 0.0
H1161 H 0.20093 0.09003 0.17952 0.0
H1162 H 0.31334 0.18855 0.15688 0.0
H1163 H 0.2872 0.25119 0.15974 0.0
H1164 H 0.10514 0.12275 0.17286 0.0
H1165 H 0.08611 0.11867 0.18657 0.0
H1166 H 0.11113 0.08061 0.18184 0.0
H1167 H 0.1771 0.11649 0.19685 0.0
H1168 H 0.15372 0.15636 0.20133 0.0
H1169 H 0.21844 0.18289 0.19769 0.0
H1170 H 0.25677 0.30707 0.16687 0.0
H1171 H 0.20952 0.34502 0.17426 0.0
H1172 H 0.11413 0.20875 0.19161 0.0
C1173 C 0.21921 0.12415 0.17492 0.0
C1174 C 0.25949 0.1345 0.16802 0.0
C1175 C 0.28249 0.17979 0.16222 0.0
C1176 C 0.26823 0.2158 0.16387 0.0
C1177 C 0.23071 0.20569 0.17127 0.0
C1178 C 0.20546 0.16042 0.17646 0.0
C1179 C 0.16702 0.15921 0.18415 0.0
C1180 C 0.11422 0.11787 0.18117 0.0
C1181 C 0.17985 0.15339 0.19569 0.0
C1182 C 0.17391 0.21062 0.18232 0.0
C1183 C 0.21188 0.2373 0.1751 0.0
C1184 C 0.22662 0.28638 0.17244 0.0
C1185 C 0.20006 0.30787 0.17682 0.0
C1186 C 0.1585 0.27984 0.18357 0.0
C1187 C 0.14604 0.23102 0.18655 0.0
H1188 H 0.09475 0.23723 0.32594 0.0
H1189 H 0.13501 0.27191 0.35915 0.0
H1190 H 0.04688 0.23983 0.36389 0.0
H1191 H -0.00431 0.26555 0.32528 0.0
H1192 H 0.95517 0.21333 0.317 0.0
H1193 H 0.02179 0.24018 0.316 0.0
H1194 H 0.01353 0.15399 0.3198 0.0
H1195 H 0.94683 0.12673 0.32064 0.0
H1196 H 0.98066 0.11994 0.33155 0.0
H1197 H 0.95467 0.20752 0.365 0.0
H1198 H 0.86295 0.16541 0.36263 0.0
H1199 H 0.88188 0.14596 0.32906 0.0
C1200 C 0.08472 0.23763 0.33419 0.0
C1201 C 0.1214 0.25668 0.34219 0.0
C1202 C 0.10717 0.25668 0.35293 0.0
C1203 C 0.05732 0.23901 0.3557 0.0
C1204 C 0.02187 0.22061 0.34766 0.0
C1205 C 0.03465 0.21872 0.33716 0.0
C1206 C 0.98868 0.19433 0.33021 0.0
C1207 C -0.00954 0.23052 0.32162 0.0
C1208 C 0.98205 0.14587 0.32526 0.0
C1209 C 0.94852 0.1836 0.33841 0.0
C1210 C 0.96841 0.19965 0.34841 0.0
C1211 C 0.9385 0.19433 0.35722 0.0
C1212 C 0.88659 0.17067 0.35581 0.0
C1213 C 0.86544 0.15204 0.34571 0.0
C1214 C 0.89702 0.15934 0.33692 0.0
H1215 H 0.70649 0.88932 0.50172 0.0
H1216 H 0.75919 0.87405 0.5326 0.0
H1217 H 0.81194 0.96607 0.53382 0.0
H1218 H 0.82195 0.98629 0.49247 0.0
H1219 H 0.7967 0.01908 0.48529 0.0
H1220 H 0.75954 0.9527 0.48721 0.0
H1221 H 0.6897 0.96337 0.49603 0.0
H1222 H 0.72616 0.02973 0.49396 0.0
H1223 H 0.70448 0.00538 0.50713 0.0
H1224 H 0.86325 0.05739 0.53098 0.0
H1225 H 0.90534 0.14481 0.52533 0.0
H1226 H 0.81905 0.1024 0.4961 0.0
C1227 C 0.72815 0.90575 0.50886 0.0
C1228 C 0.72836 0.87541 0.51721 0.0
C1229 C 0.75811 0.89726 0.52628 0.0
C1230 C 0.78825 0.94923 0.52697 0.0
C1231 C 0.78816 0.97826 0.51849 0.0
C1232 C 0.75852 0.95748 0.50964 0.0
C1233 C 0.76704 -0.00301 0.50145 0.0
C1234 C 0.78752 0.98822 0.49099 0.0
C1235 C 0.71899 -0.00101 0.49954 0.0
C1236 C 0.80615 0.04341 0.50708 0.0
C1237 C 0.81794 0.03144 0.51684 0.0
C1238 C 0.85404 0.06732 0.5234 0.0
C1239 C 0.87802 0.11697 0.52005 0.0
C1240 C 0.86563 0.13075 0.51024 0.0
C1241 C 0.82943 0.09319 0.50363 0.0
H1242 H 0.79373 0.68738 0.67242 0.0
H1243 H 0.92485 0.80193 0.68847 0.0
H1244 H 0.89233 0.86021 0.68683 0.0
H1245 H 0.78808 0.77074 0.6535 0.0
H1246 H 0.72099 0.73953 0.65297 0.0
H1247 H 0.75186 0.70475 0.65608 0.0
H1248 H 0.70195 0.6738 0.6737 0.0
H1249 H 0.66995 0.7073 0.67048 0.0
H1250 H 0.70239 0.71859 0.68297 0.0
H1251 H 0.84919 0.90691 0.68264 0.0
H1252 H 0.79211 0.93783 0.6783 0.0
H1253 H 0.68774 0.79418 0.66455 0.0
C1254 C 0.81454 0.72422 0.67591 0.0
C1255 C 0.86109 0.7401 0.68084 0.0
C1256 C 0.88867 0.7891 0.68487 0.0
C1257 C 0.87073 0.82246 0.68387 0.0
C1258 C 0.82561 0.80638 0.67864 0.0
C1259 C 0.79751 0.75838 0.6748 0.0
C1260 C 0.75124 0.75167 0.66912 0.0
C1261 C 0.75317 0.74103 0.65721 0.0
C1262 C 0.70356 0.71041 0.67439 0.0
C1263 C 0.75678 0.80286 0.67076 0.0
C1264 C 0.80063 0.83392 0.67607 0.0
C1265 C 0.81461 0.88293 0.67854 0.0
C1266 C 0.78189 0.90016 0.676 0.0
C1267 C 0.73524 0.86838 0.67114 0.0
C1268 C 0.72325 0.81948 0.66818 0.0
H1269 H 0.88611 0.72559 0.82778 0.0
H1270 H 0.85317 0.7312 0.86122 0.0
H1271 H 0.94253 0.77671 0.86524 0.0
H1272 H -0.00627 0.71056 0.83167 0.0
H1273 H 0.02905 0.7508 0.8208 0.0
H1274 H 0.96191 0.71725 0.82034 0.0
H1275 H 0.96198 0.80027 0.81755 0.0
H1276 H 0.02911 0.83398 0.81798 0.0
H1277 H -0.00604 0.85039 0.82694 0.0
H1278 H 0.03445 0.81743 0.86608 0.0
H1279 H 0.12575 0.85935 0.86315 0.0
H1280 H 0.10136 0.83471 0.82919 0.0
C1281 C 0.89788 0.73646 0.83592 0.0
C1282 C 0.86258 0.72483 0.84417 0.0
C1283 C 0.87941 0.73999 0.85473 0.0
C1284 C 0.93017 0.76568 0.85714 0.0
C1285 C 0.96401 0.77666 0.84889 0.0
C1286 C 0.94889 0.76324 0.83847 0.0
C1287 C -0.00631 0.78143 0.83113 0.0
C1288 C -0.00537 0.73738 0.82567 0.0
C1289 C -0.00527 0.81875 0.82292 0.0
C1290 C 0.03584 0.80682 0.8391 0.0
C1291 C 0.01777 0.80288 0.84931 0.0
C1292 C 0.04925 0.8213 0.8581 0.0
C1293 C 0.10085 0.8448 0.8564 0.0
C1294 C 0.12012 0.85048 0.84598 0.0
C1295 C 0.08726 0.83135 0.83723 0.0
H1296 H 0.47347 0.21255 0.93278 0.0
H1297 H 0.38025 0.05326 0.93743 0.0
H1298 H 0.36015 0.06893 0.95577 0.0
H1299 H 0.52523 0.239 0.9589 0.0
H1300 H 0.52804 0.29852 0.95975 0.0
H1301 H 0.53276 0.27451 0.947 0.0
H1302 H 0.45825 0.2821 0.93992 0.0
H1303 H 0.45408 0.30727 0.95255 0.0
H1304 H 0.40019 0.25325 0.94721 0.0
H1305 H 0.35572 0.10412 0.97426 0.0
H1306 H 0.35693 0.15428 0.98976 0.0
H1307 H 0.45246 0.28999 0.97232 0.0
C1308 C 0.44834 0.18084 0.93762 0.0
C1309 C 0.4285 0.13158 0.93373 0.0
C1310 C 0.39563 0.0912 0.94026 0.0
C1311 C 0.38453 0.09986 0.9507 0.0
C1312 C 0.40664 0.14906 0.95442 0.0
C1313 C 0.43737 0.1888 0.94796 0.0
C1314 C 0.45712 0.23816 0.95369 0.0
C1315 C 0.51416 0.26406 0.95491 0.0
C1316 C 0.44143 0.27217 0.94801 0.0
C1317 C 0.43131 0.2205 0.96434 0.0
C1318 C 0.40332 0.16897 0.96474 0.0
C1319 C 0.3772 0.14442 0.97394 0.0
C1320 C 0.37831 0.17323 0.98274 0.0
C1321 C 0.40434 0.22606 0.98221 0.0
C1322 C 0.43193 0.24971 0.97294 0.0
H1323 H 0.11695 0.33402 0.13689 0.0
H1324 H 0.22358 0.44883 0.15796 0.0
H1325 H 0.28805 0.47539 0.14399 0.0
H1326 H 0.20707 0.3052 0.1241 0.0
H1327 H 0.1783 0.29513 0.11121 0.0
H1328 H 0.14105 0.28225 0.12311 0.0
H1329 H 0.10994 0.34157 0.11668 0.0
H1330 H 0.14657 0.35413 0.10474 0.0
H1331 H 0.15479 0.40496 0.11316 0.0
H1332 H 0.34195 0.48688 0.12821 0.0
H1333 H 0.37773 0.49665 0.11033 0.0
H1334 H 0.23452 0.38153 0.09841 0.0
C1335 C 0.15391 0.36466 0.13859 0.0
C1336 C 0.16518 0.38899 0.14861 0.0
C1337 C 0.21396 0.42924 0.15043 0.0
C1338 C 0.25099 0.44441 0.14255 0.0
C1339 C 0.23886 0.41906 0.13287 0.0
C1340 C 0.19135 0.38062 0.13077 0.0
C1341 C 0.18766 0.36172 0.11943 0.0
C1342 C 0.17792 0.30787 0.11947 0.0
C1343 C 0.14737 0.3659 0.11313 0.0
C1344 C 0.23981 0.39744 0.1153 0.0
C1345 C 0.26912 0.42855 0.12338 0.0
C1346 C 0.31909 0.46338 0.12178 0.0
C1347 C 0.33903 0.4686 0.11155 0.0
C1348 C 0.30868 0.44106 0.10281 0.0
C1349 C 0.25878 0.40338 0.10484 0.0
H1350 H 0.87881 0.31818 0.27864 0.0
H1351 H 0.78128 0.21293 0.25498 0.0
H1352 H 0.73018 0.15518 0.26922 0.0
H1353 H 0.87153 0.21949 0.2974 0.0
H1354 H 0.87423 0.25515 0.30899 0.0
H1355 H 0.90508 0.28666 0.29687 0.0
H1356 H 0.8561 0.33431 0.29733 0.0
H1357 H 0.82385 0.30179 0.30924 0.0
H1358 H 0.7889 0.29979 0.29762 0.0
H1359 H 0.68314 0.11498 0.28557 0.0
H1360 H 0.65306 0.08134 0.30342 0.0
H1361 H 0.78391 0.20692 0.31733 0.0
C1362 C 0.84794 0.28201 0.2765 0.0
C1363 C 0.83452 0.26953 0.26568 0.0
C1364 C 0.79303 0.22258 0.26317 0.0
C1365 C 0.76329 0.18991 0.27122 0.0
C1366 C 0.77614 0.20413 0.28178 0.0
C1367 C 0.81849 0.24804 0.28449 0.0
C1368 C 0.82382 0.2532 0.29655 0.0
C1369 C 0.87149 0.25364 0.30017 0.0
C1370 C 0.82311 0.30006 0.30041 0.0
C1371 C 0.77721 0.20577 0.30014 0.0
C1372 C 0.75005 0.17884 0.29141 0.0
C1373 C 0.70471 0.13494 0.29247 0.0
C1374 C 0.68784 0.11625 0.30269 0.0
C1375 C 0.71642 0.14073 0.31184 0.0
C1376 C 0.76119 0.18707 0.31053 0.0
H1377 H 0.60806 0.8872 0.43387 0.0
H1378 H 0.44929 0.77914 0.43328 0.0
H1379 H 0.45591 0.74458 0.45006 0.0
H1380 H 0.64157 0.7977 0.44378 0.0
H1381 H 0.69164 0.84157 0.45211 0.0
H1382 H 0.67512 0.86294 0.4403 0.0
H1383 H 0.66285 0.92595 0.45167 0.0
H1384 H 0.67873 0.90432 0.46354 0.0
H1385 H 0.62027 0.90374 0.46279 0.0
H1386 H 0.47618 0.7217 0.46714 0.0
H1387 H 0.51387 0.70208 0.48234 0.0
H1388 H 0.66094 0.81488 0.47162 0.0
C1389 C 0.57478 0.85655 0.43731 0.0
C1390 C 0.52764 0.83831 0.43238 0.0
C1391 C 0.48546 0.79655 0.43706 0.0
C1392 C 0.48867 0.77593 0.44664 0.0
C1393 C 0.53475 0.79575 0.45147 0.0
C1394 C 0.57745 0.83414 0.44691 0.0
C1395 C 0.62272 0.84475 0.45357 0.0
C1396 C 0.65996 0.83622 0.44705 0.0
C1397 C 0.64761 0.89785 0.45816 0.0
C1398 C 0.59838 0.80579 0.46232 0.0
C1399 C 0.54739 0.779 0.46105 0.0
C1400 C 0.51621 0.74195 0.4682 0.0
C1401 C 0.53785 0.73107 0.47681 0.0
C1402 C 0.59019 0.75628 0.47803 0.0
C1403 C 0.62079 0.79443 0.47074 0.0
H1404 H 0.65131 0.5039 0.61034 0.0
H1405 H 0.74312 0.6369 0.59131 0.0
H1406 H 0.79629 0.67532 0.60669 0.0
H1407 H 0.67052 0.55919 0.63679 0.0
H1408 H 0.67777 0.51043 0.64287 0.0
H1409 H 0.63876 0.49705 0.63132 0.0
H1410 H 0.68941 0.46301 0.62156 0.0
H1411 H 0.72857 0.47629 0.63306 0.0
H1412 H 0.75601 0.50197 0.62029 0.0
H1413 H 0.84729 0.69591 0.62276 0.0
H1414 H 0.89446 0.6972 0.63851 0.0
H1415 H 0.77829 0.54744 0.64677 0.0
C1416 C 0.68252 0.54094 0.60916 0.0
C1417 C 0.69226 0.5663 0.5992 0.0
C1418 C 0.73297 0.61592 0.59864 0.0
C1419 C 0.7642 0.63831 0.60741 0.0
C1420 C 0.7553 0.61069 0.6167 0.0
C1421 C 0.71569 0.56295 0.61765 0.0
C1422 C 0.71884 0.53868 0.62793 0.0
C1423 C 0.6738 0.5256 0.63516 0.0
C1424 C 0.72349 0.49226 0.62557 0.0
C1425 C 0.76681 0.58053 0.63261 0.0
C1426 C 0.78657 0.62178 0.62599 0.0
C1427 C 0.83207 0.66409 0.62805 0.0
C1428 C 0.85876 0.66425 0.63699 0.0
C1429 C 0.84026 0.6224 0.64384 0.0
C1430 C 0.79306 0.58017 0.64174 0.0
H1431 H 0.23761 0.7673 0.81331 0.0
H1432 H 0.20884 0.88901 0.80777 0.0
H1433 H 0.15752 0.84515 0.79219 0.0
H1434 H 0.25241 0.74738 0.78639 0.0
H1435 H 0.22294 0.68043 0.78709 0.0
H1436 H 0.25213 0.71752 0.79871 0.0
H1437 H 0.16953 0.6684 0.80926 0.0
H1438 H 0.14018 0.63098 0.79765 0.0
H1439 H 0.11318 0.66412 0.8041 0.0
H1440 H 0.12153 0.79622 0.77575 0.0
H1441 H 0.10204 0.74446 0.75977 0.0
H1442 H 0.14211 0.64659 0.77663 0.0
C1443 C 0.21931 0.78382 0.80895 0.0
C1444 C 0.22698 0.83147 0.81173 0.0
C1445 C 0.20346 0.8526 0.80572 0.0
C1446 C 0.17403 0.82788 0.7969 0.0
C1447 C 0.16802 0.78165 0.79414 0.0
C1448 C 0.18953 0.75941 0.80001 0.0
C1449 C 0.18026 0.71136 0.7947 0.0
C1450 C 0.22987 0.71438 0.79154 0.0
C1451 C 0.1489 0.66604 0.80186 0.0
C1452 C 0.1511 0.71088 0.78493 0.0
C1453 C 0.14475 0.75189 0.78475 0.0
C1454 C 0.12497 0.76308 0.77591 0.0
C1455 C 0.11334 0.73279 0.76683 0.0
C1456 C 0.12071 0.69101 0.76664 0.0
C1457 C 0.13702 0.67868 0.77617 0.0
H1458 H 0.8699 0.53329 0.90379 0.0
H1459 H 0.80266 0.58102 0.92807 0.0
H1460 H 0.75516 0.59585 0.91434 0.0
H1461 H 0.87908 0.62697 0.88334 0.0
H1462 H 0.86631 0.58415 0.87248 0.0
H1463 H 0.89803 0.58059 0.88417 0.0
H1464 H 0.83095 0.48761 0.88631 0.0
H1465 H 0.79838 0.49119 0.8748 0.0
H1466 H 0.76621 0.47053 0.88736 0.0
H1467 H 0.70544 0.59216 0.89895 0.0
H1468 H 0.66958 0.59225 0.8817 0.0
H1469 H 0.77387 0.55685 0.86608 0.0
C1470 C 0.84681 0.54895 0.90611 0.0
C1471 C 0.84085 0.55712 0.91699 0.0
C1472 C 0.80904 0.57603 0.91979 0.0
C1473 C 0.78125 0.58379 0.91205 0.0
C1474 C 0.78647 0.57364 0.90149 0.0
C1475 C 0.81968 0.55846 0.89839 0.0
C1476 C 0.8179 0.55109 0.88637 0.0
C1477 C 0.86832 0.5879 0.88129 0.0
C1478 C 0.80243 0.49688 0.88355 0.0
C1479 C 0.77757 0.56334 0.8833 0.0
C1480 C 0.75956 0.57513 0.89226 0.0
C1481 C 0.7201 0.58441 0.89182 0.0
C1482 C 0.69969 0.58395 0.88192 0.0
C1483 C 0.71921 0.57533 0.87242 0.0
C1484 C 0.75844 0.56416 0.87315 0.0
H1485 H 0.23008 0.79887 0.08557 0.0
H1486 H 0.35624 0.93301 0.07319 0.0
H1487 H 0.31919 0.91213 0.05512 0.0
H1488 H 0.2248 0.7241 0.06453 0.0
H1489 H 0.15791 0.68524 0.06438 0.0
H1490 H 0.18932 0.71459 0.07656 0.0
H1491 H 0.13551 0.75695 0.07864 0.0
H1492 H 0.10268 0.72633 0.06666 0.0
H1493 H 0.13205 0.79318 0.06778 0.0
H1494 H 0.27176 0.87113 0.0381 0.0
H1495 H 0.21423 0.81819 0.02392 0.0
H1496 H 0.12211 0.70888 0.04768 0.0
C1497 C 0.24843 0.82509 0.07913 0.0
C1498 C 0.29481 0.86862 0.08077 0.0
C1499 C 0.31968 0.90061 0.0721 0.0
C1500 C 0.29923 0.88859 0.06182 0.0
C1501 C 0.25439 0.84407 0.06038 0.0
C1502 C 0.22906 0.81311 0.06884 0.0
C1503 C 0.18404 0.76536 0.06513 0.0
C1504 C 0.18937 0.71965 0.06781 0.0
C1505 C 0.13571 0.76018 0.06983 0.0
C1506 C 0.18738 0.77453 0.05327 0.0
C1507 C 0.22834 0.81987 0.05064 0.0
C1508 C 0.23933 0.83577 0.04009 0.0
C1509 C 0.20665 0.80528 0.03208 0.0
C1510 C 0.16348 0.75952 0.03468 0.0
C1511 C 0.15456 0.74377 0.04541 0.0
H1512 H 0.39753 0.22606 0.25269 0.0
H1513 H 0.4457 0.37176 0.23922 0.0
H1514 H 0.43066 0.33567 0.22108 0.0
H1515 H 0.45889 0.19277 0.2347 0.0
H1516 H 0.41261 0.12762 0.23384 0.0
H1517 H 0.41741 0.16209 0.24574 0.0
H1518 H 0.32454 0.13821 0.24429 0.0
H1519 H 0.31884 0.10218 0.23257 0.0
H1520 H 0.30193 0.15013 0.23207 0.0
H1521 H 0.42092 0.28468 0.20431 0.0
H1522 H 0.40922 0.22207 0.1906 0.0
H1523 H 0.3705 0.11103 0.21538 0.0
C1524 C 0.40216 0.24971 0.24594 0.0
C1525 C 0.42104 0.30131 0.24733 0.0
C1526 C 0.42961 0.33184 0.23828 0.0
C1527 C 0.42175 0.31172 0.22796 0.0
C1528 C 0.40555 0.26102 0.22683 0.0
C1529 C 0.39509 0.23029 0.2356 0.0
C1530 C 0.38251 0.17821 0.2323 0.0
C1531 C 0.4201 0.1644 0.23692 0.0
C1532 C 0.32875 0.13992 0.2355 0.0
C1533 C 0.38793 0.18439 0.22035 0.0
C1534 C 0.40121 0.23232 0.2173 0.0
C1535 C 0.40985 0.24687 0.20663 0.0
C1536 C 0.40347 0.21114 0.1989 0.0
C1537 C 0.38875 0.16147 0.20188 0.0
C1538 C 0.3815 0.1485 0.21278 0.0
H1539 H 0.13529 0.38638 0.41702 0.0
H1540 H 0.10079 0.49736 0.40527 0.0
H1541 H 0.12233 0.48494 0.38705 0.0
H1542 H 0.23724 0.4176 0.40304 0.0
H1543 H 0.22635 0.35629 0.39967 0.0
H1544 H 0.19765 0.36477 0.41132 0.0
H1545 H 0.11024 0.29911 0.40449 0.0
H1546 H 0.13874 0.28954 0.39285 0.0
H1547 H 0.0907 0.30588 0.3914 0.0
H1548 H 0.16249 0.47193 0.3708 0.0
H1549 H 0.21046 0.45291 0.35758 0.0
H1550 H 0.21814 0.35039 0.37993 0.0
C1551 C 0.12965 0.406 0.41053 0.0
C1552 C 0.11634 0.44279 0.41256 0.0
C1553 C 0.11084 0.4689 0.40388 0.0
C1554 C 0.12308 0.46216 0.3935 0.0
C1555 C 0.13936 0.42805 0.39184 0.0
C1556 C 0.14115 0.39921 0.40007 0.0
C1557 C 0.16336 0.36786 0.3963 0.0
C1558 C 0.20885 0.37727 0.40298 0.0
C1559 C 0.12339 0.3123 0.39626 0.0
C1560 C 0.17815 0.38717 0.38504 0.0
C1561 C 0.16262 0.42069 0.38249 0.0
C1562 C 0.17389 0.44491 0.37264 0.0
C1563 C 0.20132 0.43414 0.36521 0.0
C1564 C 0.21822 0.40052 0.36779 0.0
C1565 C 0.20607 0.37663 0.3778 0.0
H1566 H 0.84799 0.29971 0.54624 0.0
H1567 H 0.78029 0.16989 0.52567 0.0
H1568 H 0.7294 0.11833 0.54083 0.0
H1569 H 0.85873 0.24034 0.56902 0.0
H1570 H 0.84364 0.27527 0.57833 0.0
H1571 H 0.87208 0.30255 0.56575 0.0
H1572 H 0.79919 0.31822 0.56124 0.0
H1573 H 0.77176 0.2926 0.57398 0.0
H1574 H 0.73594 0.26719 0.56202 0.0
H1575 H 0.68763 0.08031 0.5588 0.0
H1576 H 0.65328 0.06238 0.57722 0.0
H1577 H 0.75112 0.2169 0.58568 0.0
C1578 C 0.82196 0.26058 0.54486 0.0
C1579 C 0.81814 0.23892 0.53474 0.0
C1580 C 0.78359 0.1875 0.53331 0.0
C1581 C 0.75482 0.1578 0.5419 0.0
C1582 C 0.76085 0.18011 0.55187 0.0
C1583 C 0.79302 0.23058 0.5533 0.0
C1584 C 0.79295 0.24587 0.56474 0.0
C1585 C 0.84494 0.26725 0.56975 0.0
C1586 C 0.7738 0.28315 0.56554 0.0
C1587 C 0.75632 0.19604 0.56959 0.0
C1588 C 0.73798 0.15838 0.56209 0.0
C1589 C 0.70208 0.10948 0.56474 0.0
C1590 C 0.68323 0.09937 0.57523 0.0
C1591 C 0.70069 0.13793 0.58288 0.0
C1592 C 0.73838 0.18646 0.58004 0.0
H1593 H 0.59761 0.74079 0.75027 0.0
H1594 H 0.48801 0.59226 0.7401 0.0
H1595 H 0.49687 0.62201 0.72152 0.0
H1596 H 0.55507 0.80258 0.73558 0.0
H1597 H 0.61458 0.85554 0.73216 0.0
H1598 H 0.6083 0.82093 0.74408 0.0
H1599 H 0.67941 0.80549 0.73786 0.0
H1600 H 0.68663 0.84086 0.72594 0.0
H1601 H 0.67571 0.77804 0.72499 0.0
H1602 H 0.50875 0.67174 0.70442 0.0
H1603 H 0.52542 0.73589 0.69062 0.0
H1604 H 0.62475 0.85104 0.71247 0.0
C1605 C 0.57774 0.71398 0.74403 0.0
C1606 C 0.54317 0.66394 0.74657 0.0
C1607 C 0.51569 0.63045 0.73826 0.0
C1608 C 0.5202 0.64716 0.7277 0.0
C1609 C 0.55267 0.69745 0.72554 0.0
C1610 C 0.5816 0.73018 0.73347 0.0
C1611 C 0.60972 0.78322 0.72938 0.0
C1612 C 0.59605 0.81753 0.73567 0.0
C1613 C 0.66622 0.80307 0.72955 0.0
C1614 C 0.59044 0.77562 0.71809 0.0
C1615 C 0.55829 0.72593 0.71589 0.0
C1616 C 0.53452 0.71069 0.70602 0.0
C1617 C 0.54405 0.74726 0.69824 0.0
C1618 C 0.5761 0.79839 0.70049 0.0
C1619 C 0.59974 0.81226 0.71052 0.0
H1620 H 0.55321 0.33705 0.00965 0.0
H1621 H 0.51387 0.45043 0.01655 0.0
H1622 H 0.5996 0.5164 0.01193 0.0
H1623 H 0.68427 0.40509 0.01793 0.0
H1624 H 0.70366 0.38148 1.00689 0.0
H1625 H 0.64196 0.34475 0.01238 0.0
H1626 H 0.60517 0.3393 0.99356 0.0
H1627 H 0.66668 0.37753 0.9881 0.0
H1628 H 0.62017 0.39592 0.98655 0.0
H1629 H 0.6891 0.56938 1.00596 0.0
H1630 H 0.77539 0.60488 0.99896 0.0
H1631 H 0.75075 0.4554 0.99419 0.0
C1632 C 0.56331 0.37584 0.01047 0.0
C1633 C 0.52801 0.38924 0.01364 0.0
C1634 C 0.54125 0.44002 0.01425 0.0
C1635 C 0.58958 0.47753 0.01163 0.0
C1636 C 0.62335 0.46317 1.00816 0.0
C1637 C 0.61075 0.41354 1.00754 0.0
C1638 C 0.652 0.40768 1.00259 0.0
C1639 C 0.67163 0.38333 0.01042 0.0
C1640 C 0.63497 0.37838 0.99208 0.0
C1641 C 0.6899 0.46166 1.00064 0.0
C1642 C 0.67306 0.49328 1.00397 0.0
C1643 C 0.70265 0.54501 1.00326 0.0
C1644 C 0.75127 0.5648 0.99927 0.0
C1645 C 0.76888 0.53264 0.99592 0.0
C1646 C 0.73753 0.48064 0.99646 0.0
H1647 H 0.17249 0.54616 0.16334 0.0
H1648 H 0.11898 0.55307 0.1947 0.0
H1649 H 0.12369 0.63358 0.19013 0.0
H1650 H 0.26431 0.67457 0.16226 0.0
H1651 H 0.25729 0.67812 0.1481 0.0
H1652 H 0.24357 0.61992 0.15405 0.0
H1653 H 0.15544 0.57996 0.14542 0.0
H1654 H 0.16841 0.63935 0.14009 0.0
H1655 H 0.11493 0.60454 0.14858 0.0
H1656 H 0.12891 0.70968 0.18123 0.0
H1657 H 0.16615 0.79105 0.1725 0.0
H1658 H 0.22969 0.73761 0.14835 0.0
C1659 C 0.16222 0.56506 0.16924 0.0
C1660 C 0.14476 0.54413 0.17933 0.0
C1661 C 0.13222 0.56943 0.18697 0.0
C1662 C 0.1339 0.61426 0.18434 0.0
C1663 C 0.14904 0.63295 0.17408 0.0
C1664 C 0.16509 0.61022 0.16684 0.0
C1665 C 0.18658 0.64116 0.15696 0.0
C1666 C 0.24116 0.65426 0.15525 0.0
C1667 C 0.15441 0.61466 0.14718 0.0
C1668 C 0.18233 0.68613 0.15996 0.0
C1669 C 0.15791 0.67941 0.16955 0.0
C1670 C 0.14983 0.71604 0.17392 0.0
C1671 C 0.17219 0.76268 0.16894 0.0
C1672 C 0.20561 0.77321 0.16024 0.0
C1673 C 0.20644 0.7328 0.15516 0.0
H1674 H 0.49334 0.27549 0.34274 0.0
H1675 H 0.4038 0.18245 0.31672 0.0
H1676 H 0.42548 0.11791 0.32182 0.0
H1677 H 0.59159 0.2564 0.33909 0.0
H1678 H 0.606 0.25703 0.353 0.0
H1679 H 0.57515 0.2898 0.34854 0.0
H1680 H 0.50324 0.23989 0.36199 0.0
H1681 H 0.53418 0.20683 0.36642 0.0
H1682 H 0.4708 0.1727 0.36172 0.0
H1683 H 0.46386 0.06879 0.32863 0.0
H1684 H 0.52487 0.04468 0.33447 0.0
H1685 H 0.59264 0.17293 0.35549 0.0
C1686 C 0.47772 0.24101 0.33826 0.0
C1687 C 0.447 0.23323 0.32942 0.0
C1688 C 0.42762 0.18857 0.32352 0.0
C1689 C 0.43915 0.1517 0.32646 0.0
C1690 C 0.46996 0.16058 0.33526 0.0
C1691 C 0.4893 0.20444 0.34101 0.0
C1692 C 0.52696 0.20842 0.34913 0.0
C1693 C 0.57792 0.25567 0.34732 0.0
C1694 C 0.50762 0.20684 0.36049 0.0
C1695 C 0.52853 0.1615 0.34658 0.0
C1696 C 0.49384 0.13334 0.3389 0.0
C1697 C 0.49085 0.09027 0.3347 0.0
C1698 C 0.52582 0.07703 0.33804 0.0
C1699 C 0.56388 0.10747 0.34531 0.0
C1700 C 0.56393 0.14903 0.34993 0.0
H1701 H 0.23762 0.43086 0.49928 0.0
H1702 H 0.18912 0.54026 0.50038 0.0
H1703 H 0.26452 0.59757 0.5105 0.0
H1704 H 0.30314 0.46307 0.52575 0.0
H1705 H 0.35334 0.45486 0.5208 0.0
H1706 H 0.2914 0.41795 0.51545 0.0
H1707 H 0.32485 0.44818 0.49635 0.0
H1708 H 0.38672 0.48365 0.50164 0.0
H1709 H 0.36121 0.5142 0.49374 0.0
H1710 H 0.34631 0.64514 0.51897 0.0
H1711 H 0.43709 0.68717 0.5219 0.0
H1712 H 0.43597 0.54974 0.51432 0.0
C1713 C 0.24317 0.46686 0.50175 0.0
C1714 C 0.20849 0.48187 0.49908 0.0
C1715 C 0.21616 0.52892 0.50231 0.0
C1716 C 0.25819 0.56113 0.50821 0.0
C1717 C 0.29198 0.54553 0.51078 0.0
C1718 C 0.2855 0.4999 0.5075 0.0
C1719 C 0.33095 0.49545 0.50996 0.0
C1720 C 0.31897 0.45546 0.5185 0.0
C1721 C 0.35218 0.4848 0.49982 0.0
C1722 C 0.36524 0.54717 0.5143 0.0
C1723 C 0.34105 0.57438 0.51525 0.0
C1724 C 0.36572 0.62421 0.51838 0.0
C1725 C 0.41721 0.64778 0.52 0.0
C1726 C 0.44322 0.62169 0.51817 0.0
C1727 C 0.41668 0.57039 0.51572 0.0
H1728 H 0.85941 0.44921 0.66228 0.0
H1729 H 0.80454 0.43825 0.69454 0.0
H1730 H 0.77969 0.34906 0.69496 0.0
H1731 H 0.75794 0.33626 0.65395 0.0
H1732 H 0.79371 0.32054 0.64501 0.0
H1733 H 0.81423 0.38483 0.64792 0.0
H1734 H 0.89981 0.39712 0.65401 0.0
H1735 H 0.87903 0.33248 0.65125 0.0
H1736 H 0.90188 0.35763 0.66429 0.0
H1737 H 0.75656 0.2623 0.6916 0.0
H1738 H 0.72201 0.17905 0.68388 0.0
H1739 H 0.78772 0.24414 0.65326 0.0
C1740 C 0.84273 0.4281 0.66947 0.0
C1741 C 0.83492 0.45052 0.67849 0.0
C1742 C 0.81158 0.42168 0.68764 0.0
C1743 C 0.79778 0.37126 0.68797 0.0
C1744 C 0.8069 0.35047 0.67901 0.0
C1745 C 0.82773 0.37759 0.66984 0.0
C1746 C 0.82691 0.34476 0.66083 0.0
C1747 C 0.79637 0.34671 0.65137 0.0
C1748 C 0.88008 0.35884 0.6574 0.0
C1749 C 0.8009 0.2946 0.66628 0.0
C1750 C 0.79121 0.29916 0.67685 0.0
C1751 C 0.76452 0.25813 0.68339 0.0
C1752 C 0.74534 0.21094 0.67891 0.0
C1753 C 0.75267 0.20518 0.66797 0.0
C1754 C 0.78192 0.24756 0.66165 0.0
H1755 H 0.47912 0.70509 0.83615 0.0
H1756 H 0.60551 0.83113 0.82135 0.0
H1757 H 0.57753 0.88773 0.82878 0.0
H1758 H 0.39039 0.73806 0.83142 0.0
H1759 H 0.35886 0.71653 0.84403 0.0
H1760 H 0.39318 0.68897 0.83856 0.0
H1761 H 0.44466 0.71037 0.85598 0.0
H1762 H 0.41113 0.7393 0.86138 0.0
H1763 H 0.47822 0.77403 0.86055 0.0
H1764 H 0.53074 0.9273 0.83596 0.0
H1765 H 0.46464 0.94652 0.84052 0.0
H1766 H 0.37002 0.79445 0.85133 0.0
C1767 C 0.50057 0.74469 0.83448 0.0
C1768 C 0.54343 0.7643 0.82805 0.0
C1769 C 0.57182 0.81599 0.82611 0.0
C1770 C 0.55672 0.84816 0.83044 0.0
C1771 C 0.51411 0.82767 0.83686 0.0
C1772 C 0.48646 0.77709 0.83886 0.0
C1773 C 0.4401 0.76373 0.84527 0.0
C1774 C 0.39288 0.72456 0.83946 0.0
C1775 C 0.44376 0.74581 0.85646 0.0
C1776 C 0.44335 0.81406 0.84569 0.0
C1777 C 0.48735 0.85079 0.84119 0.0
C1778 C 0.49652 0.89914 0.83963 0.0
C1779 C 0.45862 0.90954 0.84216 0.0
C1780 C 0.41218 0.87158 0.8461 0.0
C1781 C 0.4054 0.82407 0.84839 0.0
H1782 H 0.64201 0.42805 0.84155 0.0
H1783 H 0.532 0.46558 0.83074 0.0
H1784 H 0.46462 0.37957 0.83445 0.0
H1785 H 0.57865 0.29486 0.83376 0.0
H1786 H 0.59674 0.27754 0.84593 0.0
H1787 H 0.63587 0.33843 0.84029 0.0
H1788 H 0.63194 0.37752 0.85829 0.0
H1789 H 0.59089 0.31683 0.86382 0.0
H1790 H 0.57222 0.36349 0.86366 0.0
H1791 H 0.40948 0.29214 0.8406 0.0
H1792 H 0.37017 0.20702 0.84824 0.0
H1793 H 0.51639 0.23124 0.85683 0.0
C1794 C 0.60384 0.41727 0.8396 0.0
C1795 C 0.59162 0.45207 0.83554 0.0
C1796 C 0.54145 0.43829 0.83358 0.0
C1797 C 0.50317 0.38988 0.83572 0.0
C1798 C 0.51602 0.35669 0.84016 0.0
C1799 C 0.5651 0.36968 0.84209 0.0
C1800 C 0.56842 0.32929 0.84811 0.0
C1801 C 0.59656 0.30882 0.84163 0.0
C1802 C 0.59227 0.34791 0.85912 0.0
C1803 C 0.5137 0.29145 0.84911 0.0
C1804 C 0.48404 0.30779 0.84446 0.0
C1805 C 0.43222 0.27876 0.84427 0.0
C1806 C 0.41027 0.23082 0.84865 0.0
C1807 C 0.44037 0.21317 0.85318 0.0
C1808 C 0.49249 0.24433 0.85362 0.0
H1809 H 0.15092 0.57105 0.99671 0.0
H1810 H 0.12906 0.61813 0.02784 0.0
H1811 H 0.15919 0.56654 0.03638 0.0
H1812 H 0.11241 0.44166 1.00535 0.0
H1813 H 0.15707 0.4371 0.99686 0.0
H1814 H 0.13082 0.47518 0.99295 0.0
H1815 H 0.2195 0.55225 0.99102 0.0
H1816 H 0.24553 0.51376 0.99464 0.0
H1817 H 0.26219 0.56986 1.00205 0.0
H1818 H 0.19002 0.50997 0.04164 0.0
H1819 H 0.23448 0.46306 0.04331 0.0
H1820 H 0.24191 0.45685 1.00881 0.0
C1821 C 0.15251 0.57022 1.00531 0.0
C1822 C 0.13721 0.59783 0.01167 0.0
C1823 C 0.13977 0.59628 0.02288 0.0
C1824 C 0.1566 0.56702 0.0278 0.0
C1825 C 0.16998 0.53896 0.02138 0.0
C1826 C 0.16863 0.54047 0.01039 0.0
C1827 C 0.1871 0.5079 1.00546 0.0
C1828 C 0.14432 0.46279 0.99982 0.0
C1829 C 0.23123 0.53778 0.99785 0.0
C1830 C 0.20271 0.49148 0.01537 0.0
C1831 C 0.19035 0.50796 0.02446 0.0
C1832 C 0.20057 0.49733 0.03458 0.0
C1833 C 0.22642 0.47114 0.03543 0.0
C1834 C 0.2435 0.45767 0.02619 0.0
C1835 C 0.22958 0.46637 0.01605 0.0
H1836 H 0.74314 0.21916 0.19604 0.0
H1837 H 0.81061 0.31069 0.16807 0.0
H1838 H 0.7291 0.27143 0.15917 0.0
H1839 H 0.6517 0.10653 0.18131 0.0
H1840 H 0.60311 0.09042 0.19105 0.0
H1841 H 0.66754 0.12256 0.19509 0.0
H1842 H 0.65621 0.19275 0.20358 0.0
H1843 H 0.59176 0.16062 0.19965 0.0
H1844 H 0.63209 0.22435 0.1956 0.0
H1845 H 0.64163 0.23058 0.15404 0.0
H1846 H 0.55008 0.18796 0.15281 0.0
H1847 H 0.538 0.11837 0.18351 0.0
C1848 C 0.74038 0.23045 0.18804 0.0
C1849 C 0.78261 0.26746 0.18265 0.0
C1850 C 0.77831 0.28186 0.17221 0.0
C1851 C 0.73241 0.25975 0.16709 0.0
C1852 C 0.69138 0.22307 0.17251 0.0
C1853 C 0.69465 0.20821 0.18272 0.0
C1854 C 0.64391 0.16963 0.18685 0.0
C1855 C 0.64144 0.1193 0.18868 0.0
C1856 C 0.6302 0.18796 0.19702 0.0
C1857 C 0.61178 0.16706 0.17754 0.0
C1858 C 0.6401 0.19784 0.16933 0.0
C1859 C 0.61886 0.20542 0.16029 0.0
C1860 C 0.56695 0.18123 0.15968 0.0
C1861 C 0.53723 0.14948 0.16799 0.0
C1862 C 0.55996 0.14178 0.17695 0.0
H1863 H 0.38095 0.53562 0.35405 0.0
H1864 H 0.3667 0.55245 0.32021 0.0
H1865 H 0.43162 0.64116 0.32134 0.0
H1866 H 0.39186 0.65521 0.36064 0.0
H1867 H 0.43331 0.66614 0.37164 0.0
H1868 H 0.38823 0.60331 0.36792 0.0
H1869 H 0.45963 0.58281 0.36602 0.0
H1870 H 0.50499 0.64598 0.36949 0.0
H1871 H 0.51108 0.61952 0.35717 0.0
H1872 H 0.49782 0.72465 0.32587 0.0
H1873 H 0.54999 0.80625 0.33389 0.0
H1874 H 0.51816 0.73885 0.36538 0.0
C1875 C 0.3916 0.55817 0.3469 0.0
C1876 C 0.37067 0.53734 0.33694 0.0
C1877 C 0.38379 0.56781 0.32781 0.0
C1878 C 0.42052 0.61797 0.32839 0.0
C1879 C 0.44201 0.63694 0.33825 0.0
C1880 C 0.42689 0.60868 0.34741 0.0
C1881 C 0.45248 0.63981 0.35714 0.0
C1882 C 0.4142 0.64121 0.36478 0.0
C1883 C 0.48393 0.6209 0.36278 0.0
C1884 C 0.48493 0.68997 0.35194 0.0
C1885 C 0.47874 0.68683 0.34102 0.0
C1886 C 0.50322 0.72782 0.3344 0.0
C1887 C 0.53336 0.77401 0.33907 0.0
C1888 C 0.53879 0.77897 0.35029 0.0
C1889 C 0.51495 0.73615 0.3568 0.0
H1890 H 0.69016 0.45875 0.51792 0.0
H1891 H 0.81647 0.60895 0.51858 0.0
H1892 H 0.87189 0.57694 0.51251 0.0
H1893 H 0.75328 0.3939 0.5266 0.0
H1894 H 0.71808 0.34198 0.5178 0.0
H1895 H 0.69086 0.37768 0.52277 0.0
H1896 H 0.67397 0.39329 0.50334 0.0
H1897 H 0.70262 0.35899 0.4983 0.0
H1898 H 0.72515 0.42235 0.49406 0.0
H1899 H 0.91281 0.52682 0.50725 0.0
H1900 H 0.93625 0.46312 0.50282 0.0
H1901 H 0.78055 0.34816 0.50365 0.0
C1902 C 0.72968 0.48466 0.51694 0.0
C1903 C 0.74967 0.53591 0.51882 0.0
C1904 C 0.80107 0.56936 0.51724 0.0
C1905 C 0.83251 0.55157 0.51377 0.0
C1906 C 0.81132 0.50064 0.51176 0.0
C1907 C 0.76106 0.46779 0.51327 0.0
C1908 C 0.74697 0.41517 0.51027 0.0
C1909 C 0.72608 0.38014 0.51994 0.0
C1910 C 0.71 0.39637 0.50093 0.0
C1911 C 0.79736 0.42318 0.50697 0.0
C1912 C 0.83413 0.47263 0.50796 0.0
C1913 C 0.88431 0.48817 0.50629 0.0
C1914 C 0.89724 0.4519 0.50381 0.0
C1915 C 0.85997 0.40127 0.50278 0.0
C1916 C 0.80946 0.38695 0.50413 0.0
H1917 H 0.21196 0.7523 0.67322 0.0
H1918 H 0.21995 0.78524 0.70694 0.0
H1919 H 0.31107 0.84143 0.70526 0.0
H1920 H 0.31004 0.73768 0.67187 0.0
H1921 H 0.33291 0.76589 0.65902 0.0
H1922 H 0.26799 0.73934 0.66218 0.0
H1923 H 0.27082 0.82357 0.65842 0.0
H1924 H 0.33477 0.84793 0.65452 0.0
H1925 H 0.31909 0.87988 0.66448 0.0
H1926 H 0.40133 0.8813 0.70048 0.0
H1927 H 0.48322 0.90048 0.69326 0.0
H1928 H 0.41519 0.8388 0.66273 0.0
C1929 C 0.23246 0.77305 0.68017 0.0
C1930 C 0.2091 0.76475 0.69018 0.0
C1931 C 0.23739 0.79108 0.69918 0.0
C1932 C 0.28898 0.82336 0.69828 0.0
C1933 C 0.31121 0.82898 0.68832 0.0
C1934 C 0.28363 0.80485 0.67941 0.0
C1935 C 0.31646 0.81123 0.66995 0.0
C1936 C 0.30623 0.76052 0.66551 0.0
C1937 C 0.30991 0.84262 0.66134 0.0
C1938 C 0.36712 0.83945 0.6751 0.0
C1939 C 0.3634 0.85089 0.6856 0.0
C1940 C 0.40482 0.87347 0.69222 0.0
C1941 C 0.45108 0.88397 0.68807 0.0
C1942 C 0.45522 0.87079 0.67747 0.0
C1943 C 0.4129 0.84917 0.67086 0.0
H1944 H 0.44903 0.15797 0.10964 0.0
H1945 H 0.34227 0.16655 0.1303 0.0
H1946 H 0.33738 0.22516 0.11817 0.0
H1947 H 0.47949 0.29827 0.09411 0.0
H1948 H 0.49365 0.27354 0.08247 0.0
H1949 H 0.51908 0.27116 0.09522 0.0
H1950 H 0.48176 0.17617 0.09239 0.0
H1951 H 0.45432 0.17868 0.08005 0.0
H1952 H 0.41531 0.13721 0.09041 0.0
H1953 H 0.29102 0.19946 0.10184 0.0
H1954 H 0.25801 0.18162 0.0839 0.0
H1955 H 0.40108 0.20838 0.07184 0.0
C1956 C 0.42845 0.17614 0.11205 0.0
C1957 C 0.391 0.1539 0.11996 0.0
C1958 C 0.36815 0.18067 0.12367 0.0
C1959 C 0.36507 0.2141 0.11675 0.0
C1960 C 0.3892 0.22259 0.10694 0.0
C1961 C 0.42639 0.21061 0.10511 0.0
C1962 C 0.43997 0.21632 0.0933 0.0
C1963 C 0.48573 0.26788 0.09115 0.0
C1964 C 0.44819 0.1745 0.08879 0.0
C1965 C 0.39383 0.21418 0.08882 0.0
C1966 C 0.36539 0.21817 0.09686 0.0
C1967 C 0.3152 0.20245 0.0953 0.0
C1968 C 0.2961 0.19006 0.08507 0.0
C1969 C 0.32794 0.19661 0.07635 0.0
C1970 C 0.37646 0.20507 0.07833 0.0
H1971 H 0.08429 0.31874 0.25211 0.0
H1972 H 0.19422 0.44208 0.23335 0.0
H1973 H 0.23946 0.48421 0.25003 0.0
H1974 H 0.07954 0.39712 0.2733 0.0
H1975 H 0.06734 0.35012 0.28318 0.0
H1976 H 0.04568 0.33206 0.26973 0.0
H1977 H 0.09256 0.28204 0.26805 0.0
H1978 H 0.1111 0.29709 0.28162 0.0
H1979 H 0.15774 0.31229 0.27143 0.0
H1980 H 0.27733 0.50203 0.26876 0.0
H1981 H 0.30777 0.48351 0.28513 0.0
H1982 H 0.15924 0.36608 0.29253 0.0
C1983 C 0.1187 0.35413 0.25148 0.0
C1984 C 0.13746 0.37627 0.24155 0.0
C1985 C 0.18081 0.42378 0.24096 0.0
C1986 C 0.20559 0.44836 0.25037 0.0
C1987 C 0.18422 0.42601 0.26013 0.0
C1988 C 0.14142 0.38008 0.26063 0.0
C1989 C 0.12588 0.36202 0.2718 0.0
C1990 C 0.07671 0.36028 0.27467 0.0
C1991 C 0.12168 0.31042 0.27331 0.0
C1992 C 0.16932 0.4029 0.27774 0.0
C1993 C 0.20251 0.44008 0.27089 0.0
C1994 C 0.25137 0.4729 0.27402 0.0
C1995 C 0.26847 0.46151 0.28335 0.0
C1996 C 0.23726 0.4157 0.28868 0.0
C1997 C 0.18561 0.39626 0.28758 0.0
H1998 H 0.82558 0.30843 0.44179 0.0
H1999 H 0.78805 0.19189 0.46484 0.0
H2000 H 0.70411 0.14555 0.45755 0.0
H2001 H 0.67077 0.2464 0.4322 0.0
H2002 H 0.69567 0.2673 0.41905 0.0
H2003 H 0.72308 0.30816 0.43032 0.0
H2004 H 0.80866 0.32019 0.42479 0.0
H2005 H 0.78096 0.27901 0.41382 0.0
H2006 H 0.81663 0.26632 0.42339 0.0
H2007 H 0.66915 0.09312 0.44298 0.0
H2008 H 0.67805 0.0545 0.42678 0.0
H2009 H 0.73863 0.19456 0.41003 0.0
C2010 C 0.79822 0.27453 0.44565 0.0
C2011 C 0.81361 0.25189 0.45334 0.0
C2012 C 0.77742 0.20877 0.45858 0.0
C2013 C 0.7293 0.18238 0.45445 0.0
C2014 C 0.71937 0.19853 0.44484 0.0
C2015 C 0.75157 0.24615 0.44086 0.0
C2016 C 0.74216 0.24902 0.42907 0.0
C2017 C 0.70573 0.26883 0.42758 0.0
C2018 C 0.79002 0.28033 0.4224 0.0
C2019 C 0.71644 0.19419 0.42647 0.0
C2020 C 0.69813 0.16589 0.43571 0.0
C2021 C 0.68211 0.11501 0.43577 0.0
C2022 C 0.68863 0.0936 0.42663 0.0
C2023 C 0.71068 0.1227 0.41747 0.0
C2024 C 0.72226 0.1726 0.41714 0.0
H2025 H 0.60149 0.7045 0.58664 0.0
H2026 H 0.53768 0.76107 0.56391 0.0
H2027 H 0.4813 0.76151 0.57793 0.0
H2028 H 0.47711 0.63927 0.60545 0.0
H2029 H 0.51803 0.65407 0.61671 0.0
H2030 H 0.53243 0.63409 0.60436 0.0
H2031 H 0.619 0.71222 0.60434 0.0
H2032 H 0.60548 0.73317 0.61641 0.0
H2033 H 0.62456 0.77308 0.60481 0.0
H2034 H 0.45628 0.78253 0.59415 0.0
H2035 H 0.49359 0.84811 0.60709 0.0
H2036 H 0.56755 0.77616 0.62176 0.0
C2037 C 0.57438 0.71567 0.58468 0.0
C2038 C 0.57401 0.73386 0.57448 0.0
C2039 C 0.53873 0.74805 0.57184 0.0
C2040 C 0.50579 0.74688 0.57969 0.0
C2041 C 0.50818 0.73035 0.58997 0.0
C2042 C 0.54157 0.71435 0.59239 0.0
C2043 C 0.547 0.71096 0.60424 0.0
C2044 C 0.5168 0.65637 0.6079 0.0
C2045 C 0.60225 0.73392 0.60763 0.0
C2046 C 0.52253 0.74024 0.608 0.0
C2047 C 0.49443 0.74472 0.59985 0.0
C2048 C 0.47819 0.77927 0.60047 0.0
C2049 C 0.50008 0.81708 0.60801 0.0
C2050 C 0.53748 0.81932 0.61486 0.0
C2051 C 0.5415 0.77625 0.61606 0.0
H2052 H 0.8966 0.62953 0.75336 0.0
H2053 H 0.76947 0.54086 0.73326 0.0
H2054 H 0.72327 0.4889 0.74892 0.0
H2055 H 0.87052 0.51938 0.77276 0.0
H2056 H 0.89505 0.5636 0.78355 0.0
H2057 H 0.92162 0.58142 0.77039 0.0
H2058 H 0.90729 0.65659 0.77072 0.0
H2059 H 0.88134 0.63994 0.78373 0.0
H2060 H 0.84551 0.64658 0.77318 0.0
H2061 H 0.68656 0.4627 0.76674 0.0
H2062 H 0.65811 0.48792 0.78228 0.0
H2063 H 0.80992 0.58354 0.79222 0.0
C2064 C 0.85898 0.59872 0.75233 0.0
C2065 C 0.83546 0.58971 0.74239 0.0
C2066 C 0.78714 0.5488 0.741 0.0
C2067 C 0.76156 0.51843 0.74975 0.0
C2068 C 0.78605 0.52841 0.75959 0.0
C2069 C 0.83406 0.56769 0.76083 0.0
C2070 C 0.8494 0.57745 0.77234 0.0
C2071 C 0.8863 0.55933 0.77491 0.0
C2072 C 0.87201 0.63335 0.77515 0.0
C2073 C 0.79929 0.54436 0.77754 0.0
C2074 C 0.76445 0.51285 0.7701 0.0
C2075 C 0.71367 0.48793 0.77242 0.0
C2076 C 0.69781 0.50355 0.78131 0.0
C2077 C 0.73295 0.54615 0.78708 0.0
C2078 C 0.78276 0.55649 0.78684 0.0
H2079 H 0.14249 0.66194 0.94071 0.0
H2080 H 0.20459 0.78175 0.96362 0.0
H2081 H 0.28336 0.82067 0.95384 0.0
H2082 H 0.28177 0.7023 0.92618 0.0
H2083 H 0.2478 0.68503 0.91384 0.0
H2084 H 0.22189 0.64626 0.92546 0.0
H2085 H 0.14208 0.65151 0.92298 0.0
H2086 H 0.16823 0.69127 0.91176 0.0
H2087 H 0.14599 0.71185 0.92288 0.0
H2088 H 0.31724 0.86999 0.93891 0.0
H2089 H 0.30863 0.91234 0.92345 0.0
H2090 H 0.22387 0.77211 0.90704 0.0
C2091 C 0.17388 0.69491 0.94396 0.0
C2092 C 0.16697 0.72052 0.95251 0.0
C2093 C 0.20863 0.76253 0.95681 0.0
C2094 C 0.25374 0.78467 0.95124 0.0
C2095 C 0.25526 0.7657 0.9412 0.0
C2096 C 0.21701 0.71957 0.93779 0.0
C2097 C 0.21773 0.7148 0.92574 0.0
C2098 C 0.24391 0.68542 0.92263 0.0
C2099 C 0.16542 0.69115 0.92057 0.0
C2100 C 0.25011 0.76908 0.9229 0.0
C2101 C 0.27563 0.79666 0.93183 0.0
C2102 C 0.29917 0.84851 0.93186 0.0
C2103 C 0.29353 0.87237 0.92309 0.0
C2104 C 0.26582 0.84485 0.91419 0.0
C2105 C 0.24559 0.79308 0.91384 0.0
loop_
_geom_bond_atom_site_label_1
_geom_bond_atom_site_label_2
_geom_bond_distance
_geom_bond_site_symmetry_2
_ccdc_geom_bond_type
C0 C1 1.359 . S
C0 N5 1.330 . S
C0 C61 1.504 . S
C1 C0 1.359 . S
C1 C2 1.366 . S
C1 H63 0.929 . S
C2 C1 1.366 . S
C2 C3 1.415 . S
C2 H64 0.932 . S
C3 C2 1.415 . S
C3 C4 1.366 . S
C3 H65 0.931 . S
C4 C3 1.366 . S
C4 N5 1.325 . S
C4 C6 1.516 . S
N5 C0 1.330 . S
N5 C4 1.325 . S
N5 Co21 1.869 . S
C6 C4 1.516 . S
C6 N30 1.316 . S
C6 O53 1.263 . S
C7 C8 1.421 . S
C7 C12 1.360 . S
C7 N30 1.436 . S
C8 C7 1.421 . S
C8 C9 1.379 . S
C8 H66 0.929 . S
C9 C8 1.379 . S
C9 C10 1.417 . S
C10 C9 1.417 . S
C10 C11 1.352 . S
C10 H67 0.929 . S
C11 C10 1.352 . S
C11 C12 1.393 . S
C12 C7 1.360 . S
C12 C11 1.393 . S
C12 H68 0.931 . S
Cd13 O33 2.329 1_554 S
Cd13 O35 2.350 . S
Cd13 O36 2.277 . S
Cd13 O38 2.173 . S
Cd13 O42 2.263 . S
Cd13 O53 2.366 . S
Cd14 O32 2.352 . S
Cd14 O39 2.297 . S
Cd14 O43 2.308 . S
C15 C19 1.403 . S
C15 C20 1.370 . S
C15 N31 1.423 . S
C16 C17 1.389 . S
C16 C20 1.389 . S
C17 C16 1.389 . S
C17 C18 1.379 . S
C17 H69 0.929 . S
C18 C17 1.379 . S
C18 C19 1.405 . S
C19 C15 1.403 . S
C19 C18 1.405 . S
C19 H70 0.932 . S
C20 C15 1.370 . S
C20 C16 1.389 . S
C20 H71 0.931 . S
Co21 N5 1.869 . S
Co21 N22 1.955 . S
Co21 N23 1.864 . S
Co21 N29 1.958 . S
Co21 N30 1.953 . S
Co21 N31 1.974 . S
N22 Co21 1.955 . S
N22 C40 1.329 . S
N22 C55 1.432 . S
N23 Co21 1.864 . S
N23 C24 1.327 . S
N23 C28 1.342 . S
C24 N23 1.327 . S
C24 C25 1.407 . S
C24 C40 1.481 . S
C25 C24 1.407 . S
C25 C26 1.364 . S
C25 H72 0.930 . S
C26 C25 1.364 . S
C26 C27 1.390 . S
C26 H73 0.931 . S
C27 C26 1.390 . S
C27 C28 1.346 . S
C27 H74 0.930 . S
C28 N23 1.342 . S
C28 C27 1.346 . S
C28 C44 1.516 . S
N29 Co21 1.958 . S
N29 C44 1.324 . S
N29 C46 1.427 . S
N30 C6 1.316 . S
N30 C7 1.436 . S
N30 Co21 1.953 . S
N31 C15 1.423 . S
N31 Co21 1.974 . S
N31 C61 1.309 . S
O32 Cd14 2.352 . S
O32 C52 1.235 . S
O33 Cd13 2.329 1_556 S
O33 C52 1.270 . S
C34 O35 1.270 . S
C34 O36 1.248 . S
O35 Cd13 2.350 . S
O35 C34 1.270 . S
O36 Cd13 2.277 . S
O36 C34 1.248 . S
C37 O38 1.277 . S
C37 O39 1.175 1_554 S
O38 Cd13 2.173 . S
O38 C37 1.277 . S
O39 Cd14 2.297 . S
O39 C37 1.175 1_556 S
C40 N22 1.329 . S
C40 C24 1.481 . S
C40 O41 1.246 . S
O41 C40 1.246 . S
O42 Cd13 2.263 . S
O42 C54 1.258 . S
O43 Cd14 2.308 . S
O43 C54 1.274 1_556 S
C44 C28 1.516 . S
C44 N29 1.324 . S
C44 O45 1.238 . S
O45 C44 1.238 . S
C46 N29 1.427 . S
C46 C47 1.394 . S
C46 C51 1.395 . S
C47 C46 1.394 . S
C47 C48 1.380 . S
C47 H75 0.929 . S
C48 C47 1.380 . S
C48 C49 1.384 . S
C48 C54 1.495 . S
C49 C48 1.384 . S
C49 C50 1.382 . S
C49 H76 0.930 . S
C50 C49 1.382 . S
C50 C51 1.398 . S
C51 C46 1.395 . S
C51 C50 1.398 . S
C51 H77 0.930 . S
C52 O32 1.235 . S
C52 O33 1.270 . S
O53 C6 1.263 . S
O53 Cd13 2.366 . S
C54 O42 1.258 . S
C54 O43 1.274 1_554 S
C54 C48 1.495 . S
C55 N22 1.432 . S
C55 C56 1.381 . S
C55 C60 1.385 . S
C56 C55 1.381 . S
C56 C57 1.371 . S
C56 H78 0.932 . S
C57 C56 1.371 . S
C57 C58 1.400 . S
C58 C57 1.400 . S
C58 C59 1.351 . S
C58 H79 0.930 . S
C59 C58 1.351 . S
C59 C60 1.388 . S
C60 C55 1.385 . S
C60 C59 1.388 . S
C60 H80 0.929 . S
C61 C0 1.504 . S
C61 N31 1.309 . S
C61 O62 1.258 . S
O62 C61 1.258 . S
H63 C1 0.929 . S
H64 C2 0.932 . S
H65 C3 0.931 . S
H66 C8 0.929 . S
H67 C10 0.929 . S
H68 C12 0.931 . S
H69 C17 0.929 . S
H70 C19 0.932 . S
H71 C20 0.931 . S
H72 C25 0.930 . S
H73 C26 0.931 . S
H74 C27 0.930 . S
H75 C47 0.929 . S
H76 C49 0.930 . S
H77 C51 0.930 . S
H78 C56 0.932 . S
H79 C58 0.930 . S
H80 C60 0.929 . S
C81 C82 1.359 . S
C81 N86 1.330 . S
C81 C142 1.504 . S
C82 C81 1.359 . S
C82 C83 1.366 . S
C82 H144 0.929 . S
C83 C82 1.366 . S
C83 C84 1.415 1_655 S
C83 H145 0.932 1_655 S
C84 C83 1.415 1_455 S
C84 C85 1.366 . S
C84 H146 0.931 . S
C85 C84 1.366 . S
C85 N86 1.325 1_455 S
C85 C87 1.516 . S
N86 C81 1.330 . S
N86 C85 1.325 1_655 S
N86 Co102 1.869 . S
C87 C85 1.516 . S
C87 N111 1.316 . S
C87 O134 1.263 . S
C88 C89 1.421 . S
C88 C93 1.360 . S
C88 N111 1.436 . S
C89 C88 1.421 . S
C89 C90 1.379 . S
C89 H147 0.929 . S
C90 C89 1.379 . S
C90 C91 1.417 . S
C91 C90 1.417 . S
C91 C92 1.352 . S
C91 H148 0.929 . S
C92 C91 1.352 . S
C92 C93 1.393 . S
C93 C88 1.360 . S
C93 C92 1.393 . S
C93 H149 0.931 1_455 S
Cd94 O114 2.329 . S
Cd94 O116 2.350 . S
Cd94 O117 2.277 . S
Cd94 O119 2.173 . S
Cd94 O123 2.263 . S
Cd94 O134 2.366 . S
Cd95 O113 2.352 . S
Cd95 O120 2.250 . S
Cd95 O124 2.308 1_455 S
C96 C100 1.403 . S
C96 C101 1.370 . S
C96 N112 1.423 . S
C97 C98 1.389 . S
C97 C101 1.389 . S
C98 C97 1.389 . S
C98 C99 1.379 . S
C98 H150 0.929 . S
C99 C98 1.379 . S
C99 C100 1.405 . S
C100 C96 1.403 . S
C100 C99 1.405 . S
C100 H151 0.932 . S
C101 C96 1.370 . S
C101 C97 1.389 . S
C101 H152 0.931 . S
Co102 N86 1.869 . S
Co102 N103 1.955 1_655 S
Co102 N104 1.864 . S
Co102 N110 1.958 . S
Co102 N111 1.953 1_655 S
Co102 N112 1.974 . S
N103 Co102 1.955 1_455 S
N103 C121 1.329 . S
N103 C136 1.432 . S
N104 Co102 1.864 . S
N104 C105 1.327 . S
N104 C109 1.342 . S
C105 N104 1.327 . S
C105 C106 1.407 . S
C105 C121 1.481 1_655 S
C106 C105 1.407 . S
C106 C107 1.364 . S
C106 H153 0.930 . S
C107 C106 1.364 . S
C107 C108 1.390 . S
C107 H154 0.931 . S
C108 C107 1.390 . S
C108 C109 1.346 . S
C108 H155 0.930 . S
C109 N104 1.342 . S
C109 C108 1.346 . S
C109 C125 1.516 . S
N110 Co102 1.958 . S
N110 C125 1.324 . S
N110 C127 1.427 . S
N111 C87 1.316 . S
N111 C88 1.436 . S
N111 Co102 1.953 1_455 S
N112 C96 1.423 . S
N112 Co102 1.974 . S
N112 C142 1.309 . S
O113 Cd95 2.352 . S
O113 C133 1.235 . S
O114 Cd94 2.329 . S
O114 C133 1.270 . S
C115 O116 1.270 . S
C115 O117 1.248 . S
O116 Cd94 2.350 . S
O116 C115 1.270 . S
O117 Cd94 2.277 . S
O117 C115 1.248 . S
C118 O119 1.277 . S
C118 O120 1.230 . S
O119 Cd94 2.173 . S
O119 C118 1.277 . S
O120 Cd95 2.250 . S
O120 C118 1.230 . S
C121 N103 1.329 . S
C121 C105 1.481 1_455 S
C121 O122 1.246 . S
O122 C121 1.246 . S
O123 Cd94 2.263 . S
O123 C135 1.258 1_455 S
O124 Cd95 2.308 1_655 S
O124 C135 1.274 . S
C125 C109 1.516 . S
C125 N110 1.324 . S
C125 O126 1.238 . S
O126 C125 1.238 . S
C127 N110 1.427 . S
C127 C128 1.394 . S
C127 C132 1.395 . S
C128 C127 1.394 . S
C128 C129 1.380 . S
C128 H156 0.929 . S
C129 C128 1.380 . S
C129 C130 1.384 . S
C129 C135 1.495 . S
C130 C129 1.384 . S
C130 C131 1.382 . S
C130 H157 0.930 . S
C131 C130 1.382 . S
C131 C132 1.398 . S
C132 C127 1.395 . S
C132 C131 1.398 . S
C132 H158 0.930 . S
C133 O113 1.235 . S
C133 O114 1.270 . S
O134 C87 1.263 . S
O134 Cd94 2.366 . S
C135 O123 1.258 1_655 S
C135 O124 1.274 . S
C135 C129 1.495 . S
C136 N103 1.432 . S
C136 C137 1.381 . S
C136 C141 1.385 . S
C137 C136 1.381 . S
C137 C138 1.371 . S
C137 H159 0.932 1_455 S
C138 C137 1.371 . S
C138 C139 1.400 . S
C139 C138 1.400 . S
C139 C140 1.351 . S
C139 H160 0.930 . S
C140 C139 1.351 . S
C140 C141 1.388 . S
C141 C136 1.385 . S
C141 C140 1.388 . S
C141 H161 0.929 . S
C142 C81 1.504 . S
C142 N112 1.309 . S
C142 O143 1.258 . S
O143 C142 1.258 . S
H144 C82 0.929 . S
H145 C83 0.932 1_455 S
H146 C84 0.931 . S
H147 C89 0.929 . S
H148 C91 0.929 . S
H149 C93 0.931 1_655 S
H150 C98 0.929 . S
H151 C100 0.932 . S
H152 C101 0.931 . S
H153 C106 0.930 . S
H154 C107 0.931 . S
H155 C108 0.930 . S
H156 C128 0.929 . S
H157 C130 0.930 . S
H158 C132 0.930 . S
H159 C137 0.932 1_655 S
H160 C139 0.930 . S
H161 C141 0.929 . S
C162 C163 1.359 . S
C162 N167 1.330 . S
C162 C223 1.504 . S
C163 C162 1.359 . S
C163 C164 1.366 . S
C163 H225 0.929 . S
C164 C163 1.366 . S
C164 C165 1.415 1_565 S
C164 H226 0.932 1_565 S
C165 C164 1.415 1_545 S
C165 C166 1.366 . S
C165 H227 0.931 . S
C166 C165 1.366 . S
C166 N167 1.325 1_545 S
C166 C168 1.516 . S
N167 C162 1.330 . S
N167 C166 1.325 1_565 S
N167 Co183 1.869 . S
C168 C166 1.516 . S
C168 N192 1.316 . S
C168 O215 1.263 . S
C169 C170 1.421 . S
C169 C174 1.360 . S
C169 N192 1.436 . S
C170 C169 1.421 . S
C170 C171 1.379 . S
C170 H228 0.929 . S
C171 C170 1.379 . S
C171 C172 1.417 . S
C172 C171 1.417 . S
C172 C173 1.352 . S
C172 H229 0.929 . S
C173 C172 1.352 . S
C173 C174 1.393 . S
C174 C169 1.360 . S
C174 C173 1.393 . S
C174 H230 0.931 1_545 S
Cd175 O195 2.329 . S
Cd175 O197 2.350 . S
Cd175 O198 2.277 . S
Cd175 O200 2.173 . S
Cd175 O204 2.263 . S
Cd175 O215 2.366 . S
Cd176 O194 2.352 . S
Cd176 O201 2.250 . S
Cd176 O205 2.308 1_545 S
C177 C181 1.403 . S
C177 C182 1.370 . S
C177 N193 1.423 . S
C178 C179 1.389 . S
C178 C182 1.389 . S
C179 C178 1.389 . S
C179 C180 1.379 . S
C179 H231 0.929 . S
C180 C179 1.379 . S
C180 C181 1.405 . S
C181 C177 1.403 . S
C181 C180 1.405 . S
C181 H232 0.932 . S
C182 C177 1.370 . S
C182 C178 1.389 . S
C182 H233 0.931 . S
Co183 N167 1.869 . S
Co183 N184 1.955 1_565 S
Co183 N185 1.864 . S
Co183 N191 1.958 . S
Co183 N192 1.953 1_565 S
Co183 N193 1.974 . S
N184 Co183 1.955 1_545 S
N184 C202 1.329 . S
N184 C217 1.432 . S
N185 Co183 1.864 . S
N185 C186 1.327 . S
N185 C190 1.342 . S
C186 N185 1.327 . S
C186 C187 1.407 . S
C186 C202 1.481 1_565 S
C187 C186 1.407 . S
C187 C188 1.364 . S
C187 H234 0.930 . S
C188 C187 1.364 . S
C188 C189 1.390 . S
C188 H235 0.931 . S
C189 C188 1.390 . S
C189 C190 1.346 . S
C189 H236 0.930 . S
C190 N185 1.342 . S
C190 C189 1.346 . S
C190 C206 1.516 . S
N191 Co183 1.958 . S
N191 C206 1.324 . S
N191 C208 1.427 . S
N192 C168 1.316 . S
N192 C169 1.436 . S
N192 Co183 1.953 1_545 S
N193 C177 1.423 . S
N193 Co183 1.974 . S
N193 C223 1.309 . S
O194 Cd176 2.352 . S
O194 C214 1.235 . S
O195 Cd175 2.329 . S
O195 C214 1.270 . S
C196 O197 1.270 . S
C196 O198 1.248 . S
O197 Cd175 2.350 . S
O197 C196 1.270 . S
O198 Cd175 2.277 . S
O198 C196 1.248 . S
C199 O200 1.277 . S
C199 O201 1.230 . S
O200 Cd175 2.173 . S
O200 C199 1.277 . S
O201 Cd176 2.250 . S
O201 C199 1.230 . S
C202 N184 1.329 . S
C202 C186 1.481 1_545 S
C202 O203 1.246 . S
O203 C202 1.246 . S
O204 Cd175 2.263 . S
O204 C216 1.258 1_545 S
O205 Cd176 2.308 1_565 S
O205 C216 1.274 . S
C206 C190 1.516 . S
C206 N191 1.324 . S
C206 O207 1.238 . S
O207 C206 1.238 . S
C208 N191 1.427 . S
C208 C209 1.394 . S
C208 C213 1.395 . S
C209 C208 1.394 . S
C209 C210 1.380 . S
C209 H237 0.929 . S
C210 C209 1.380 . S
C210 C211 1.384 . S
C210 C216 1.495 . S
C211 C210 1.384 . S
C211 C212 1.382 . S
C211 H238 0.930 . S
C212 C211 1.382 . S
C212 C213 1.398 . S
C213 C208 1.395 . S
C213 C212 1.398 . S
C213 H239 0.930 . S
C214 O194 1.235 . S
C214 O195 1.270 . S
O215 C168 1.263 . S
O215 Cd175 2.366 . S
C216 O204 1.258 1_565 S
C216 O205 1.274 . S
C216 C210 1.495 . S
C217 N184 1.432 . S
C217 C218 1.381 . S
C217 C222 1.385 . S
C218 C217 1.381 . S
C218 C219 1.371 . S
C218 H240 0.932 1_545 S
C219 C218 1.371 . S
C219 C220 1.400 . S
C220 C219 1.400 . S
C220 C221 1.351 . S
C220 H241 0.930 . S
C221 C220 1.351 . S
C221 C222 1.388 . S
C222 C217 1.385 . S
C222 C221 1.388 . S
C222 H242 0.929 . S
C223 C162 1.504 . S
C223 N193 1.309 . S
C223 O224 1.258 . S
O224 C223 1.258 . S
H225 C163 0.929 . S
H226 C164 0.932 1_545 S
H227 C165 0.931 . S
H228 C170 0.929 . S
H229 C172 0.929 . S
H230 C174 0.931 1_565 S
H231 C179 0.929 . S
H232 C181 0.932 . S
H233 C182 0.931 . S
H234 C187 0.930 . S
H235 C188 0.931 . S
H236 C189 0.930 . S
H237 C209 0.929 . S
H238 C211 0.930 . S
H239 C213 0.930 . S
H240 C218 0.932 1_565 S
H241 C220 0.930 . S
H242 C222 0.929 . S
C243 C244 1.359 . S
C243 N248 1.330 . S
C243 C304 1.504 . S
C244 C243 1.359 . S
C244 C245 1.366 . S
C244 H306 0.929 . S
C245 C244 1.366 . S
C245 C246 1.415 . S
C245 H307 0.932 . S
C246 C245 1.415 . S
C246 C247 1.366 . S
C246 H308 0.931 . S
C247 C246 1.366 . S
C247 N248 1.325 . S
C247 C249 1.516 . S
N248 C243 1.330 . S
N248 C247 1.325 . S
N248 Co264 1.869 . S
C249 C247 1.516 . S
C249 N273 1.316 . S
C249 O296 1.263 . S
C250 C251 1.421 . S
C250 C255 1.360 . S
C250 N273 1.436 . S
C251 C250 1.421 . S
C251 C252 1.379 . S
C251 H309 0.929 . S
C252 C251 1.379 . S
C252 C253 1.417 . S
C253 C252 1.417 . S
C253 C254 1.352 . S
C253 H310 0.929 . S
C254 C253 1.352 . S
C254 C255 1.393 . S
C255 C250 1.360 . S
C255 C254 1.393 . S
C255 H311 0.931 . S
Cd256 O276 2.329 . S
Cd256 O278 2.350 . S
Cd256 O279 2.277 . S
Cd256 O281 2.173 . S
Cd256 O285 2.263 . S
Cd256 O296 2.366 . S
Cd257 O275 2.352 . S
Cd257 O282 2.250 . S
Cd257 O286 2.308 . S
C258 C262 1.403 . S
C258 C263 1.370 . S
C258 N274 1.423 . S
C259 C260 1.389 . S
C259 C263 1.389 . S
C260 C259 1.389 . S
C260 C261 1.379 . S
C260 H312 0.929 . S
C261 C260 1.379 . S
C261 C262 1.405 . S
C262 C258 1.403 . S
C262 C261 1.405 . S
C262 H313 0.932 . S
C263 C258 1.370 . S
C263 C259 1.389 . S
C263 H314 0.931 . S
Co264 N248 1.869 . S
Co264 N265 1.955 . S
Co264 N266 1.864 . S
Co264 N272 1.958 . S
Co264 N273 1.953 . S
Co264 N274 1.974 . S
N265 Co264 1.955 . S
N265 C283 1.329 . S
N265 C298 1.432 . S
N266 Co264 1.864 . S
N266 C267 1.327 . S
N266 C271 1.342 . S
C267 N266 1.327 . S
C267 C268 1.407 . S
C267 C283 1.481 . S
C268 C267 1.407 . S
C268 C269 1.364 . S
C268 H315 0.930 . S
C269 C268 1.364 . S
C269 C270 1.390 . S
C269 H316 0.931 . S
C270 C269 1.390 . S
C270 C271 1.346 . S
C270 H317 0.930 . S
C271 N266 1.342 . S
C271 C270 1.346 . S
C271 C287 1.516 . S
N272 Co264 1.958 . S
N272 C287 1.324 . S
N272 C289 1.427 . S
N273 C249 1.316 . S
N273 C250 1.436 . S
N273 Co264 1.953 . S
N274 C258 1.423 . S
N274 Co264 1.974 . S
N274 C304 1.309 . S
O275 Cd257 2.352 . S
O275 C295 1.235 . S
O276 Cd256 2.329 . S
O276 C295 1.270 . S
C277 O278 1.270 . S
C277 O279 1.248 . S
O278 Cd256 2.350 . S
O278 C277 1.270 . S
O279 Cd256 2.277 . S
O279 C277 1.248 . S
C280 O281 1.277 . S
C280 O282 1.230 . S
O281 Cd256 2.173 . S
O281 C280 1.277 . S
O282 Cd257 2.250 . S
O282 C280 1.230 . S
C283 N265 1.329 . S
C283 C267 1.481 . S
C283 O284 1.246 . S
O284 C283 1.246 . S
O285 Cd256 2.263 . S
O285 C297 1.258 . S
O286 Cd257 2.308 . S
O286 C297 1.274 . S
C287 C271 1.516 . S
C287 N272 1.324 . S
C287 O288 1.238 . S
O288 C287 1.238 . S
C289 N272 1.427 . S
C289 C290 1.394 . S
C289 C294 1.395 . S
C290 C289 1.394 . S
C290 C291 1.380 . S
C290 H318 0.929 . S
C291 C290 1.380 . S
C291 C292 1.384 . S
C291 C297 1.495 . S
C292 C291 1.384 . S
C292 C293 1.382 . S
C292 H319 0.930 . S
C293 C292 1.382 . S
C293 C294 1.398 . S
C294 C289 1.395 . S
C294 C293 1.398 . S
C294 H320 0.930 . S
C295 O275 1.235 . S
C295 O276 1.270 . S
O296 C249 1.263 . S
O296 Cd256 2.366 . S
C297 O285 1.258 . S
C297 O286 1.274 . S
C297 C291 1.495 . S
C298 N265 1.432 . S
C298 C299 1.381 . S
C298 C303 1.385 . S
C299 C298 1.381 . S
C299 C300 1.371 . S
C299 H321 0.932 . S
C300 C299 1.371 . S
C300 C301 1.400 . S
C301 C300 1.400 . S
C301 C302 1.351 . S
C301 H322 0.930 . S
C302 C301 1.351 . S
C302 C303 1.388 . S
C303 C298 1.385 . S
C303 C302 1.388 . S
C303 H323 0.929 . S
C304 C243 1.504 . S
C304 N274 1.309 . S
C304 O305 1.258 . S
O305 C304 1.258 . S
H306 C244 0.929 . S
H307 C245 0.932 . S
H308 C246 0.931 . S
H309 C251 0.929 . S
H310 C253 0.929 . S
H311 C255 0.931 . S
H312 C260 0.929 . S
H313 C262 0.932 . S
H314 C263 0.931 . S
H315 C268 0.930 . S
H316 C269 0.931 . S
H317 C270 0.930 . S
H318 C290 0.929 . S
H319 C292 0.930 . S
H320 C294 0.930 . S
H321 C299 0.932 . S
H322 C301 0.930 . S
H323 C303 0.929 . S
C324 C325 1.359 . S
C324 N329 1.330 . S
C324 C385 1.504 . S
C325 C324 1.359 . S
C325 C326 1.366 . S
C325 H387 0.929 . S
C326 C325 1.366 . S
C326 C327 1.415 1_455 S
C326 H388 0.932 1_455 S
C327 C326 1.415 1_655 S
C327 C328 1.366 . S
C327 H389 0.931 . S
C328 C327 1.366 . S
C328 N329 1.325 1_655 S
C328 C330 1.516 . S
N329 C324 1.330 . S
N329 C328 1.325 1_455 S
N329 Co345 1.869 . S
C330 C328 1.516 . S
C330 N354 1.316 . S
C330 O377 1.263 . S
C331 C332 1.421 . S
C331 C336 1.360 . S
C331 N354 1.436 . S
C332 C331 1.421 . S
C332 C333 1.379 . S
C332 H390 0.929 . S
C333 C332 1.379 . S
C333 C334 1.417 . S
C334 C333 1.417 . S
C334 C335 1.352 . S
C334 H391 0.929 . S
C335 C334 1.352 . S
C335 C336 1.393 . S
C336 C331 1.360 . S
C336 C335 1.393 . S
C336 H392 0.931 1_655 S
Cd337 O357 2.329 . S
Cd337 O359 2.350 . S
Cd337 O360 2.277 . S
Cd337 O362 2.173 . S
Cd337 O366 2.263 . S
Cd337 O377 2.366 . S
Cd338 O356 2.352 . S
Cd338 O363 2.250 . S
Cd338 O367 2.308 1_655 S
C339 C343 1.403 . S
C339 C344 1.370 . S
C339 N355 1.423 . S
C340 C341 1.389 . S
C340 C344 1.389 . S
C341 C340 1.389 . S
C341 C342 1.379 . S
C341 H393 0.929 . S
C342 C341 1.379 . S
C342 C343 1.405 . S
C343 C339 1.403 . S
C343 C342 1.405 . S
C343 H394 0.932 . S
C344 C339 1.370 . S
C344 C340 1.389 . S
C344 H395 0.931 . S
Co345 N329 1.869 . S
Co345 N346 1.955 1_455 S
Co345 N347 1.864 . S
Co345 N353 1.958 . S
Co345 N354 1.953 1_455 S
Co345 N355 1.974 . S
N346 Co345 1.955 1_655 S
N346 C364 1.329 . S
N346 C379 1.432 . S
N347 Co345 1.864 . S
N347 C348 1.327 . S
N347 C352 1.342 . S
C348 N347 1.327 . S
C348 C349 1.407 . S
C348 C364 1.481 1_455 S
C349 C348 1.407 . S
C349 C350 1.364 . S
C349 H396 0.930 . S
C350 C349 1.364 . S
C350 C351 1.390 . S
C350 H397 0.931 . S
C351 C350 1.390 . S
C351 C352 1.346 . S
C351 H398 0.930 . S
C352 N347 1.342 . S
C352 C351 1.346 . S
C352 C368 1.516 . S
N353 Co345 1.958 . S
N353 C368 1.324 . S
N353 C370 1.427 . S
N354 C330 1.316 . S
N354 C331 1.436 . S
N354 Co345 1.953 1_655 S
N355 C339 1.423 . S
N355 Co345 1.974 . S
N355 C385 1.309 . S
O356 Cd338 2.352 . S
O356 C376 1.235 . S
O357 Cd337 2.329 . S
O357 C376 1.270 . S
C358 O359 1.270 . S
C358 O360 1.248 . S
O359 Cd337 2.350 . S
O359 C358 1.270 . S
O360 Cd337 2.277 . S
O360 C358 1.248 . S
C361 O362 1.277 . S
C361 O363 1.230 . S
O362 Cd337 2.173 . S
O362 C361 1.277 . S
O363 Cd338 2.250 . S
O363 C361 1.230 . S
C364 N346 1.329 . S
C364 C348 1.481 1_655 S
C364 O365 1.246 . S
O365 C364 1.246 . S
O366 Cd337 2.263 . S
O366 C378 1.258 1_655 S
O367 Cd338 2.308 1_455 S
O367 C378 1.274 . S
C368 C352 1.516 . S
C368 N353 1.324 . S
C368 O369 1.238 . S
O369 C368 1.238 . S
C370 N353 1.427 . S
C370 C371 1.394 . S
C370 C375 1.395 . S
C371 C370 1.394 . S
C371 C372 1.380 . S
C371 H399 0.929 . S
C372 C371 1.380 . S
C372 C373 1.384 . S
C372 C378 1.495 . S
C373 C372 1.384 . S
C373 C374 1.382 . S
C373 H400 0.930 . S
C374 C373 1.382 . S
C374 C375 1.398 . S
C375 C370 1.395 . S
C375 C374 1.398 . S
C375 H401 0.930 . S
C376 O356 1.235 . S
C376 O357 1.270 . S
O377 C330 1.263 . S
O377 Cd337 2.366 . S
C378 O366 1.258 1_455 S
C378 O367 1.274 . S
C378 C372 1.495 . S
C379 N346 1.432 . S
C379 C380 1.381 . S
C379 C384 1.385 . S
C380 C379 1.381 . S
C380 C381 1.371 . S
C380 H402 0.932 1_655 S
C381 C380 1.371 . S
C381 C382 1.400 . S
C382 C381 1.400 . S
C382 C383 1.351 . S
C382 H403 0.930 . S
C383 C382 1.351 . S
C383 C384 1.388 . S
C384 C379 1.385 . S
C384 C383 1.388 . S
C384 H404 0.929 . S
C385 C324 1.504 . S
C385 N355 1.309 . S
C385 O386 1.258 . S
O386 C385 1.258 . S
H387 C325 0.929 . S
H388 C326 0.932 1_655 S
H389 C327 0.931 . S
H390 C332 0.929 . S
H391 C334 0.929 . S
H392 C336 0.931 1_455 S
H393 C341 0.929 . S
H394 C343 0.932 . S
H395 C344 0.931 . S
H396 C349 0.930 . S
H397 C350 0.931 . S
H398 C351 0.930 . S
H399 C371 0.929 . S
H400 C373 0.930 . S
H401 C375 0.930 . S
H402 C380 0.932 1_455 S
H403 C382 0.930 . S
H404 C384 0.929 . S
C405 C406 1.359 . S
C405 N410 1.330 . S
C405 C466 1.504 . S
C406 C405 1.359 . S
C406 C407 1.366 . S
C406 H468 0.929 . S
C407 C406 1.366 . S
C407 C408 1.415 1_545 S
C407 H469 0.932 1_545 S
C408 C407 1.415 1_565 S
C408 C409 1.366 . S
C408 H470 0.931 . S
C409 C408 1.366 . S
C409 N410 1.325 1_565 S
C409 C411 1.516 . S
N410 C405 1.330 . S
N410 C409 1.325 1_545 S
N410 Co426 1.869 . S
C411 C409 1.516 . S
C411 N435 1.316 . S
C411 O458 1.263 . S
C412 C413 1.421 . S
C412 C417 1.360 . S
C412 N435 1.436 . S
C413 C412 1.421 . S
C413 C414 1.379 . S
C413 H471 0.929 . S
C414 C413 1.379 . S
C414 C415 1.417 . S
C415 C414 1.417 . S
C415 C416 1.352 . S
C415 H472 0.929 . S
C416 C415 1.352 . S
C416 C417 1.393 . S
C417 C412 1.360 . S
C417 C416 1.393 . S
C417 H473 0.931 1_565 S
Cd418 O438 2.329 . S
Cd418 O440 2.350 . S
Cd418 O441 2.277 . S
Cd418 O443 2.173 . S
Cd418 O447 2.263 . S
Cd418 O458 2.366 . S
Cd419 O437 2.352 . S
Cd419 O444 2.250 . S
Cd419 O448 2.308 1_565 S
C420 C424 1.403 . S
C420 C425 1.370 . S
C420 N436 1.423 . S
C421 C422 1.389 . S
C421 C425 1.389 . S
C422 C421 1.389 . S
C422 C423 1.379 . S
C422 H474 0.929 . S
C423 C422 1.379 . S
C423 C424 1.405 . S
C424 C420 1.403 . S
C424 C423 1.405 . S
C424 H475 0.932 . S
C425 C420 1.370 . S
C425 C421 1.389 . S
C425 H476 0.931 . S
Co426 N410 1.869 . S
Co426 N427 1.955 1_545 S
Co426 N428 1.864 . S
Co426 N434 1.958 . S
Co426 N435 1.953 1_545 S
Co426 N436 1.974 . S
N427 Co426 1.955 1_565 S
N427 C445 1.329 . S
N427 C460 1.432 . S
N428 Co426 1.864 . S
N428 C429 1.327 . S
N428 C433 1.342 . S
C429 N428 1.327 . S
C429 C430 1.407 . S
C429 C445 1.481 1_545 S
C430 C429 1.407 . S
C430 C431 1.364 . S
C430 H477 0.930 . S
C431 C430 1.364 . S
C431 C432 1.390 . S
C431 H478 0.931 . S
C432 C431 1.390 . S
C432 C433 1.346 . S
C432 H479 0.930 . S
C433 N428 1.342 . S
C433 C432 1.346 . S
C433 C449 1.516 . S
N434 Co426 1.958 . S
N434 C449 1.324 . S
N434 C451 1.427 . S
N435 C411 1.316 . S
N435 C412 1.436 . S
N435 Co426 1.953 1_565 S
N436 C420 1.423 . S
N436 Co426 1.974 . S
N436 C466 1.309 . S
O437 Cd419 2.352 . S
O437 C457 1.235 . S
O438 Cd418 2.329 . S
O438 C457 1.270 . S
C439 O440 1.270 . S
C439 O441 1.248 . S
O440 Cd418 2.350 . S
O440 C439 1.270 . S
O441 Cd418 2.277 . S
O441 C439 1.248 . S
C442 O443 1.277 . S
C442 O444 1.230 . S
O443 Cd418 2.173 . S
O443 C442 1.277 . S
O444 Cd419 2.250 . S
O444 C442 1.230 . S
C445 N427 1.329 . S
C445 C429 1.481 1_565 S
C445 O446 1.246 . S
O446 C445 1.246 . S
O447 Cd418 2.263 . S
O447 C459 1.258 1_565 S
O448 Cd419 2.308 1_545 S
O448 C459 1.274 . S
C449 C433 1.516 . S
C449 N434 1.324 . S
C449 O450 1.238 . S
O450 C449 1.238 . S
C451 N434 1.427 . S
C451 C452 1.394 . S
C451 C456 1.395 . S
C452 C451 1.394 . S
C452 C453 1.380 . S
C452 H480 0.929 . S
C453 C452 1.380 . S
C453 C454 1.384 . S
C453 C459 1.495 . S
C454 C453 1.384 . S
C454 C455 1.382 . S
C454 H481 0.930 . S
C455 C454 1.382 . S
C455 C456 1.398 . S
C456 C451 1.395 . S
C456 C455 1.398 . S
C456 H482 0.930 . S
C457 O437 1.235 . S
C457 O438 1.270 . S
O458 C411 1.263 . S
O458 Cd418 2.366 . S
C459 O447 1.258 1_545 S
C459 O448 1.274 . S
C459 C453 1.495 . S
C460 N427 1.432 . S
C460 C461 1.381 . S
C460 C465 1.385 . S
C461 C460 1.381 . S
C461 C462 1.371 . S
C461 H483 0.932 1_565 S
C462 C461 1.371 . S
C462 C463 1.400 . S
C463 C462 1.400 . S
C463 C464 1.351 . S
C463 H484 0.930 . S
C464 C463 1.351 . S
C464 C465 1.388 . S
C465 C460 1.385 . S
C465 C464 1.388 . S
C465 H485 0.929 . S
C466 C405 1.504 . S
C466 N436 1.309 . S
C466 O467 1.258 . S
O467 C466 1.258 . S
H468 C406 0.929 . S
H469 C407 0.932 1_565 S
H470 C408 0.931 . S
H471 C413 0.929 . S
H472 C415 0.929 . S
H473 C417 0.931 1_545 S
H474 C422 0.929 . S
H475 C424 0.932 . S
H476 C425 0.931 . S
H477 C430 0.930 . S
H478 C431 0.931 . S
H479 C432 0.930 . S
H480 C452 0.929 . S
H481 C454 0.930 . S
H482 C456 0.930 . S
H483 C461 0.932 1_545 S
H484 C463 0.930 . S
H485 C465 0.929 . S
C486 C487 1.359 . S
C486 N491 1.330 . S
C486 C547 1.504 . S
C487 C486 1.359 . S
C487 C488 1.366 . S
C487 H549 0.929 . S
C488 C487 1.366 . S
C488 C489 1.415 . S
C488 H550 0.932 . S
C489 C488 1.415 . S
C489 C490 1.366 . S
C489 H551 0.931 . S
C490 C489 1.366 . S
C490 N491 1.325 . S
C490 C492 1.516 . S
N491 C486 1.330 . S
N491 C490 1.325 . S
N491 Co507 1.869 . S
C492 C490 1.516 . S
C492 N516 1.316 . S
C492 O539 1.263 . S
C493 C494 1.421 . S
C493 C498 1.360 . S
C493 N516 1.436 . S
C494 C493 1.421 . S
C494 C495 1.379 . S
C494 H552 0.929 . S
C495 C494 1.379 . S
C495 C496 1.417 . S
C496 C495 1.417 . S
C496 C497 1.352 . S
C496 H553 0.929 . S
C497 C496 1.352 . S
C497 C498 1.393 . S
C498 C493 1.360 . S
C498 C497 1.393 . S
C498 H554 0.931 . S
Cd499 O519 2.329 . S
Cd499 O521 2.350 . S
Cd499 O522 2.277 . S
Cd499 O524 2.173 . S
Cd499 O528 2.263 . S
Cd499 O539 2.366 . S
Cd500 O518 2.352 . S
Cd500 O525 2.250 . S
Cd500 O529 2.308 . S
C501 C505 1.403 . S
C501 C506 1.370 . S
C501 N517 1.423 . S
C502 C503 1.389 . S
C502 C506 1.389 . S
C503 C502 1.389 . S
C503 C504 1.379 . S
C503 H555 0.929 . S
C504 C503 1.379 . S
C504 C505 1.405 . S
C505 C501 1.403 . S
C505 C504 1.405 . S
C505 H556 0.932 . S
C506 C501 1.370 . S
C506 C502 1.389 . S
C506 H557 0.931 . S
Co507 N491 1.869 . S
Co507 N508 1.955 . S
Co507 N509 1.864 . S
Co507 N515 1.958 . S
Co507 N516 1.953 . S
Co507 N517 1.974 . S
N508 Co507 1.955 . S
N508 C526 1.329 . S
N508 C541 1.432 . S
N509 Co507 1.864 . S
N509 C510 1.327 . S
N509 C514 1.342 . S
C510 N509 1.327 . S
C510 C511 1.407 . S
C510 C526 1.481 . S
C511 C510 1.407 . S
C511 C512 1.364 . S
C511 H558 0.930 . S
C512 C511 1.364 . S
C512 C513 1.390 . S
C512 H559 0.931 . S
C513 C512 1.390 . S
C513 C514 1.346 . S
C513 H560 0.930 . S
C514 N509 1.342 . S
C514 C513 1.346 . S
C514 C530 1.516 . S
N515 Co507 1.958 . S
N515 C530 1.324 . S
N515 C532 1.427 . S
N516 C492 1.316 . S
N516 C493 1.436 . S
N516 Co507 1.953 . S
N517 C501 1.423 . S
N517 Co507 1.974 . S
N517 C547 1.309 . S
O518 Cd500 2.352 . S
O518 C538 1.235 . S
O519 Cd499 2.329 . S
O519 C538 1.270 . S
C520 O521 1.270 . S
C520 O522 1.248 . S
O521 Cd499 2.350 . S
O521 C520 1.270 . S
O522 Cd499 2.277 . S
O522 C520 1.248 . S
C523 O524 1.277 . S
C523 O525 1.230 . S
O524 Cd499 2.173 . S
O524 C523 1.277 . S
O525 Cd500 2.250 . S
O525 C523 1.230 . S
C526 N508 1.329 . S
C526 C510 1.481 . S
C526 O527 1.246 . S
O527 C526 1.246 . S
O528 Cd499 2.263 . S
O528 C540 1.258 . S
O529 Cd500 2.308 . S
O529 C540 1.274 . S
C530 C514 1.516 . S
C530 N515 1.324 . S
C530 O531 1.238 . S
O531 C530 1.238 . S
C532 N515 1.427 . S
C532 C533 1.394 . S
C532 C537 1.395 . S
C533 C532 1.394 . S
C533 C534 1.380 . S
C533 H561 0.929 . S
C534 C533 1.380 . S
C534 C535 1.384 . S
C534 C540 1.495 . S
C535 C534 1.384 . S
C535 C536 1.382 . S
C535 H562 0.930 . S
C536 C535 1.382 . S
C536 C537 1.398 . S
C537 C532 1.395 . S
C537 C536 1.398 . S
C537 H563 0.930 . S
C538 O518 1.235 . S
C538 O519 1.270 . S
O539 C492 1.263 . S
O539 Cd499 2.366 . S
C540 O528 1.258 . S
C540 O529 1.274 . S
C540 C534 1.495 . S
C541 N508 1.432 . S
C541 C542 1.381 . S
C541 C546 1.385 . S
C542 C541 1.381 . S
C542 C543 1.371 . S
C542 H564 0.932 . S
C543 C542 1.371 . S
C543 C544 1.400 . S
C544 C543 1.400 . S
C544 C545 1.351 . S
C544 H565 0.930 . S
C545 C544 1.351 . S
C545 C546 1.388 . S
C546 C541 1.385 . S
C546 C545 1.388 . S
C546 H566 0.929 . S
C547 C486 1.504 . S
C547 N517 1.309 . S
C547 O548 1.258 . S
O548 C547 1.258 . S
H549 C487 0.929 . S
H550 C488 0.932 . S
H551 C489 0.931 . S
H552 C494 0.929 . S
H553 C496 0.929 . S
H554 C498 0.931 . S
H555 C503 0.929 . S
H556 C505 0.932 . S
H557 C506 0.931 . S
H558 C511 0.930 . S
H559 C512 0.931 . S
H560 C513 0.930 . S
H561 C533 0.929 . S
H562 C535 0.930 . S
H563 C537 0.930 . S
H564 C542 0.932 . S
H565 C544 0.930 . S
H566 C546 0.929 . S
C567 C568 1.359 . S
C567 N572 1.330 . S
C567 C628 1.504 . S
C568 C567 1.359 . S
C568 C569 1.366 . S
C568 H630 0.929 . S
C569 C568 1.366 . S
C569 C570 1.415 1_655 S
C569 H631 0.932 1_655 S
C570 C569 1.415 1_455 S
C570 C571 1.366 . S
C570 H632 0.931 . S
C571 C570 1.366 . S
C571 N572 1.325 1_455 S
C571 C573 1.516 . S
N572 C567 1.330 . S
N572 C571 1.325 1_655 S
N572 Co588 1.869 . S
C573 C571 1.516 . S
C573 N597 1.316 . S
C573 O620 1.263 . S
C574 C575 1.421 . S
C574 C579 1.360 . S
C574 N597 1.436 . S
C575 C574 1.421 . S
C575 C576 1.379 . S
C575 H633 0.929 . S
C576 C575 1.379 . S
C576 C577 1.417 . S
C577 C576 1.417 . S
C577 C578 1.352 . S
C577 H634 0.929 . S
C578 C577 1.352 . S
C578 C579 1.393 . S
C579 C574 1.360 . S
C579 C578 1.393 . S
C579 H635 0.931 1_455 S
Cd580 O600 2.329 1_556 S
Cd580 O602 2.350 . S
Cd580 O603 2.277 . S
Cd580 O605 2.173 . S
Cd580 O609 2.263 . S
Cd580 O620 2.366 . S
Cd581 O599 2.352 . S
Cd581 O606 2.250 . S
Cd581 O610 2.308 1_455 S
C582 C586 1.403 . S
C582 C587 1.370 . S
C582 N598 1.423 . S
C583 C584 1.389 . S
C583 C587 1.389 . S
C584 C583 1.389 . S
C584 C585 1.379 . S
C584 H636 0.929 . S
C585 C584 1.379 . S
C585 C586 1.405 . S
C586 C582 1.403 . S
C586 C585 1.405 . S
C586 H637 0.932 . S
C587 C582 1.370 . S
C587 C583 1.389 . S
C587 H638 0.931 . S
Co588 N572 1.869 . S
Co588 N589 1.955 1_655 S
Co588 N590 1.864 . S
Co588 N596 1.958 . S
Co588 N597 1.953 1_655 S
Co588 N598 1.974 . S
N589 Co588 1.955 1_455 S
N589 C607 1.329 . S
N589 C622 1.432 . S
N590 Co588 1.864 . S
N590 C591 1.327 . S
N590 C595 1.342 . S
C591 N590 1.327 . S
C591 C592 1.407 . S
C591 C607 1.481 1_655 S
C592 C591 1.407 . S
C592 C593 1.364 . S
C592 H639 0.930 . S
C593 C592 1.364 . S
C593 C594 1.390 . S
C593 H640 0.931 . S
C594 C593 1.390 . S
C594 C595 1.346 . S
C594 H641 0.930 . S
C595 N590 1.342 . S
C595 C594 1.346 . S
C595 C611 1.516 . S
N596 Co588 1.958 . S
N596 C611 1.324 . S
N596 C613 1.427 . S
N597 C573 1.316 . S
N597 C574 1.436 . S
N597 Co588 1.953 1_455 S
N598 C582 1.423 . S
N598 Co588 1.974 . S
N598 C628 1.309 . S
O599 Cd581 2.352 . S
O599 C619 1.235 . S
O600 Cd580 2.329 1_554 S
O600 C619 1.270 . S
C601 O602 1.270 . S
C601 O603 1.248 . S
O602 Cd580 2.350 . S
O602 C601 1.270 . S
O603 Cd580 2.277 . S
O603 C601 1.248 . S
C604 O605 1.277 . S
C604 O606 1.230 1_556 S
O605 Cd580 2.173 . S
O605 C604 1.277 . S
O606 Cd581 2.250 . S
O606 C604 1.230 1_554 S
C607 N589 1.329 . S
C607 C591 1.481 1_455 S
C607 O608 1.246 . S
O608 C607 1.246 . S
O609 Cd580 2.263 . S
O609 C621 1.258 1_455 S
O610 Cd581 2.308 1_655 S
O610 C621 1.274 1_554 S
C611 C595 1.516 . S
C611 N596 1.324 . S
C611 O612 1.238 . S
O612 C611 1.238 . S
C613 N596 1.427 . S
C613 C614 1.394 . S
C613 C618 1.395 . S
C614 C613 1.394 . S
C614 C615 1.380 . S
C614 H642 0.929 . S
C615 C614 1.380 . S
C615 C616 1.384 . S
C615 C621 1.495 . S
C616 C615 1.384 . S
C616 C617 1.382 . S
C616 H643 0.930 . S
C617 C616 1.382 . S
C617 C618 1.398 . S
C618 C613 1.395 . S
C618 C617 1.398 . S
C618 H644 0.930 . S
C619 O599 1.235 . S
C619 O600 1.270 . S
O620 C573 1.263 . S
O620 Cd580 2.366 . S
C621 O609 1.258 1_655 S
C621 O610 1.274 1_556 S
C621 C615 1.495 . S
C622 N589 1.432 . S
C622 C623 1.381 . S
C622 C627 1.385 . S
C623 C622 1.381 . S
C623 C624 1.371 . S
C623 H645 0.932 1_455 S
C624 C623 1.371 . S
C624 C625 1.400 . S
C625 C624 1.400 . S
C625 C626 1.351 . S
C625 H646 0.930 . S
C626 C625 1.351 . S
C626 C627 1.388 . S
C627 C622 1.385 . S
C627 C626 1.388 . S
C627 H647 0.929 . S
C628 C567 1.504 . S
C628 N598 1.309 . S
C628 O629 1.258 . S
O629 C628 1.258 . S
H630 C568 0.929 . S
H631 C569 0.932 1_455 S
H632 C570 0.931 . S
H633 C575 0.929 . S
H634 C577 0.929 . S
H635 C579 0.931 1_655 S
H636 C584 0.929 . S
H637 C586 0.932 . S
H638 C587 0.931 . S
H639 C592 0.930 . S
H640 C593 0.931 . S
H641 C594 0.930 . S
H642 C614 0.929 . S
H643 C616 0.930 . S
H644 C618 0.930 . S
H645 C623 0.932 1_655 S
H646 C625 0.930 . S
H647 C627 0.929 . S
C648 C649 1.359 . S
C648 N653 1.330 . S
C648 C709 1.504 . S
C649 C648 1.359 . S
C649 C650 1.366 . S
C649 H711 0.929 . S
C650 C649 1.366 . S
C650 C651 1.415 1_565 S
C650 H712 0.932 1_565 S
C651 C650 1.415 1_545 S
C651 C652 1.366 . S
C651 H713 0.931 . S
C652 C651 1.366 . S
C652 N653 1.325 1_545 S
C652 C654 1.516 . S
N653 C648 1.330 . S
N653 C652 1.325 1_565 S
N653 Co669 1.869 . S
C654 C652 1.516 . S
C654 N678 1.316 . S
C654 O701 1.263 . S
C655 C656 1.421 . S
C655 C660 1.360 . S
C655 N678 1.436 . S
C656 C655 1.421 . S
C656 C657 1.379 . S
C656 H714 0.929 . S
C657 C656 1.379 . S
C657 C658 1.417 . S
C658 C657 1.417 . S
C658 C659 1.352 . S
C658 H715 0.929 . S
C659 C658 1.352 . S
C659 C660 1.393 . S
C660 C655 1.360 . S
C660 C659 1.393 . S
C660 H716 0.931 1_545 S
Cd661 O681 2.329 . S
Cd661 O683 2.350 . S
Cd661 O684 2.277 . S
Cd661 O686 2.173 . S
Cd661 O690 2.263 . S
Cd661 O701 2.366 . S
Cd662 O680 2.352 . S
Cd662 O687 2.250 . S
Cd662 O691 2.308 1_545 S
C663 C667 1.403 . S
C663 C668 1.370 . S
C663 N679 1.423 . S
C664 C665 1.389 . S
C664 C668 1.389 . S
C665 C664 1.389 . S
C665 C666 1.379 . S
C665 H717 0.929 . S
C666 C665 1.379 . S
C666 C667 1.405 . S
C667 C663 1.403 . S
C667 C666 1.405 . S
C667 H718 0.932 . S
C668 C663 1.370 . S
C668 C664 1.389 . S
C668 H719 0.931 . S
Co669 N653 1.869 . S
Co669 N670 1.955 1_565 S
Co669 N671 1.864 . S
Co669 N677 1.958 . S
Co669 N678 1.953 1_565 S
Co669 N679 1.974 . S
N670 Co669 1.955 1_545 S
N670 C688 1.329 . S
N670 C703 1.432 . S
N671 Co669 1.864 . S
N671 C672 1.327 . S
N671 C676 1.342 . S
C672 N671 1.327 . S
C672 C673 1.407 . S
C672 C688 1.481 1_565 S
C673 C672 1.407 . S
C673 C674 1.364 . S
C673 H720 0.930 . S
C674 C673 1.364 . S
C674 C675 1.390 . S
C674 H721 0.931 . S
C675 C674 1.390 . S
C675 C676 1.346 . S
C675 H722 0.930 . S
C676 N671 1.342 . S
C676 C675 1.346 . S
C676 C692 1.516 . S
N677 Co669 1.958 . S
N677 C692 1.324 . S
N677 C694 1.427 . S
N678 C654 1.316 . S
N678 C655 1.436 . S
N678 Co669 1.953 1_545 S
N679 C663 1.423 . S
N679 Co669 1.974 . S
N679 C709 1.309 . S
O680 Cd662 2.352 . S
O680 C700 1.235 . S
O681 Cd661 2.329 . S
O681 C700 1.270 . S
C682 O683 1.270 . S
C682 O684 1.248 . S
O683 Cd661 2.350 . S
O683 C682 1.270 . S
O684 Cd661 2.277 . S
O684 C682 1.248 . S
C685 O686 1.277 . S
C685 O687 1.230 . S
O686 Cd661 2.173 . S
O686 C685 1.277 . S
O687 Cd662 2.250 . S
O687 C685 1.230 . S
C688 N670 1.329 . S
C688 C672 1.481 1_545 S
C688 O689 1.246 . S
O689 C688 1.246 . S
O690 Cd661 2.263 . S
O690 C702 1.258 1_545 S
O691 Cd662 2.308 1_565 S
O691 C702 1.274 . S
C692 C676 1.516 . S
C692 N677 1.324 . S
C692 O693 1.238 . S
O693 C692 1.238 . S
C694 N677 1.427 . S
C694 C695 1.394 . S
C694 C699 1.395 . S
C695 C694 1.394 . S
C695 C696 1.380 . S
C695 H723 0.929 . S
C696 C695 1.380 . S
C696 C697 1.384 . S
C696 C702 1.495 . S
C697 C696 1.384 . S
C697 C698 1.382 . S
C697 H724 0.930 . S
C698 C697 1.382 . S
C698 C699 1.398 . S
C699 C694 1.395 . S
C699 C698 1.398 . S
C699 H725 0.930 . S
C700 O680 1.235 . S
C700 O681 1.270 . S
O701 C654 1.263 . S
O701 Cd661 2.366 . S
C702 O690 1.258 1_565 S
C702 O691 1.274 . S
C702 C696 1.495 . S
C703 N670 1.432 . S
C703 C704 1.381 . S
C703 C708 1.385 . S
C704 C703 1.381 . S
C704 C705 1.371 . S
C704 H726 0.932 1_545 S
C705 C704 1.371 . S
C705 C706 1.400 . S
C706 C705 1.400 . S
C706 C707 1.351 . S
C706 H727 0.930 . S
C707 C706 1.351 . S
C707 C708 1.388 . S
C708 C703 1.385 . S
C708 C707 1.388 . S
C708 H728 0.929 . S
C709 C648 1.504 . S
C709 N679 1.309 . S
C709 O710 1.258 . S
O710 C709 1.258 . S
H711 C649 0.929 . S
H712 C650 0.932 1_545 S
H713 C651 0.931 . S
H714 C656 0.929 . S
H715 C658 0.929 . S
H716 C660 0.931 1_565 S
H717 C665 0.929 . S
H718 C667 0.932 . S
H719 C668 0.931 . S
H720 C673 0.930 . S
H721 C674 0.931 . S
H722 C675 0.930 . S
H723 C695 0.929 . S
H724 C697 0.930 . S
H725 C699 0.930 . S
H726 C704 0.932 1_565 S
H727 C706 0.930 . S
H728 C708 0.929 . S
C729 C730 1.359 . S
C729 N734 1.330 . S
C729 C790 1.504 . S
C730 C729 1.359 . S
C730 C731 1.366 . S
C730 H792 0.929 . S
C731 C730 1.366 . S
C731 C732 1.415 . S
C731 H793 0.932 . S
C732 C731 1.415 . S
C732 C733 1.366 . S
C732 H794 0.931 . S
C733 C732 1.366 . S
C733 N734 1.325 . S
C733 C735 1.516 . S
N734 C729 1.330 . S
N734 C733 1.325 . S
N734 Co750 1.869 . S
C735 C733 1.516 . S
C735 N759 1.316 . S
C735 O782 1.263 . S
C736 C737 1.421 . S
C736 C741 1.360 . S
C736 N759 1.436 . S
C737 C736 1.421 . S
C737 C738 1.379 . S
C737 H795 0.929 . S
C738 C737 1.379 . S
C738 C739 1.417 . S
C739 C738 1.417 . S
C739 C740 1.352 . S
C739 H796 0.929 . S
C740 C739 1.352 . S
C740 C741 1.393 . S
C741 C736 1.360 . S
C741 C740 1.393 . S
C741 H797 0.931 . S
Cd742 O762 2.329 . S
Cd742 O764 2.350 . S
Cd742 O765 2.277 . S
Cd742 O767 2.173 . S
Cd742 O771 2.263 . S
Cd742 O782 2.366 . S
Cd743 O761 2.352 . S
Cd743 O768 2.250 . S
Cd743 O772 2.308 . S
C744 C748 1.403 . S
C744 C749 1.370 . S
C744 N760 1.423 . S
C745 C746 1.389 . S
C745 C749 1.389 . S
C746 C745 1.389 . S
C746 C747 1.379 . S
C746 H798 0.929 . S
C747 C746 1.379 . S
C747 C748 1.405 . S
C748 C744 1.403 . S
C748 C747 1.405 . S
C748 H799 0.932 . S
C749 C744 1.370 . S
C749 C745 1.389 . S
C749 H800 0.931 . S
Co750 N734 1.869 . S
Co750 N751 1.955 . S
Co750 N752 1.864 . S
Co750 N758 1.958 . S
Co750 N759 1.953 . S
Co750 N760 1.974 . S
N751 Co750 1.955 . S
N751 C769 1.329 . S
N751 C784 1.432 . S
N752 Co750 1.864 . S
N752 C753 1.327 . S
N752 C757 1.342 . S
C753 N752 1.327 . S
C753 C754 1.407 . S
C753 C769 1.481 . S
C754 C753 1.407 . S
C754 C755 1.364 . S
C754 H801 0.930 . S
C755 C754 1.364 . S
C755 C756 1.390 . S
C755 H802 0.931 . S
C756 C755 1.390 . S
C756 C757 1.346 . S
C756 H803 0.930 . S
C757 N752 1.342 . S
C757 C756 1.346 . S
C757 C773 1.516 . S
N758 Co750 1.958 . S
N758 C773 1.324 . S
N758 C775 1.427 . S
N759 C735 1.316 . S
N759 C736 1.436 . S
N759 Co750 1.953 . S
N760 C744 1.423 . S
N760 Co750 1.974 . S
N760 C790 1.309 . S
O761 Cd743 2.352 . S
O761 C781 1.235 . S
O762 Cd742 2.329 . S
O762 C781 1.270 . S
C763 O764 1.270 . S
C763 O765 1.248 . S
O764 Cd742 2.350 . S
O764 C763 1.270 . S
O765 Cd742 2.277 . S
O765 C763 1.248 . S
C766 O767 1.277 . S
C766 O768 1.230 . S
O767 Cd742 2.173 . S
O767 C766 1.277 . S
O768 Cd743 2.250 . S
O768 C766 1.230 . S
C769 N751 1.329 . S
C769 C753 1.481 . S
C769 O770 1.246 . S
O770 C769 1.246 . S
O771 Cd742 2.263 . S
O771 C783 1.258 . S
O772 Cd743 2.308 . S
O772 C783 1.274 . S
C773 C757 1.516 . S
C773 N758 1.324 . S
C773 O774 1.238 . S
O774 C773 1.238 . S
C775 N758 1.427 . S
C775 C776 1.394 . S
C775 C780 1.395 . S
C776 C775 1.394 . S
C776 C777 1.380 . S
C776 H804 0.929 . S
C777 C776 1.380 . S
C777 C778 1.384 . S
C777 C783 1.495 . S
C778 C777 1.384 . S
C778 C779 1.382 . S
C778 H805 0.930 . S
C779 C778 1.382 . S
C779 C780 1.398 . S
C780 C775 1.395 . S
C780 C779 1.398 . S
C780 H806 0.930 . S
C781 O761 1.235 . S
C781 O762 1.270 . S
O782 C735 1.263 . S
O782 Cd742 2.366 . S
C783 O771 1.258 . S
C783 O772 1.274 . S
C783 C777 1.495 . S
C784 N751 1.432 . S
C784 C785 1.381 . S
C784 C789 1.385 . S
C785 C784 1.381 . S
C785 C786 1.371 . S
C785 H807 0.932 . S
C786 C785 1.371 . S
C786 C787 1.400 . S
C787 C786 1.400 . S
C787 C788 1.351 . S
C787 H808 0.930 . S
C788 C787 1.351 . S
C788 C789 1.388 . S
C789 C784 1.385 . S
C789 C788 1.388 . S
C789 H809 0.929 . S
C790 C729 1.504 . S
C790 N760 1.309 . S
C790 O791 1.258 . S
O791 C790 1.258 . S
H792 C730 0.929 . S
H793 C731 0.932 . S
H794 C732 0.931 . S
H795 C737 0.929 . S
H796 C739 0.929 . S
H797 C741 0.931 . S
H798 C746 0.929 . S
H799 C748 0.932 . S
H800 C749 0.931 . S
H801 C754 0.930 . S
H802 C755 0.931 . S
H803 C756 0.930 . S
H804 C776 0.929 . S
H805 C778 0.930 . S
H806 C780 0.930 . S
H807 C785 0.932 . S
H808 C787 0.930 . S
H809 C789 0.929 . S
C810 C811 1.359 . S
C810 N815 1.330 . S
C810 C871 1.504 . S
C811 C810 1.359 . S
C811 C812 1.366 . S
C811 H873 0.929 . S
C812 C811 1.366 . S
C812 C813 1.415 1_455 S
C812 H874 0.932 1_455 S
C813 C812 1.415 1_655 S
C813 C814 1.366 . S
C813 H875 0.931 . S
C814 C813 1.366 . S
C814 N815 1.325 1_655 S
C814 C816 1.516 . S
N815 C810 1.330 . S
N815 C814 1.325 1_455 S
N815 Co831 1.869 . S
C816 C814 1.516 . S
C816 N840 1.316 . S
C816 O863 1.263 . S
C817 C818 1.421 . S
C817 C822 1.360 . S
C817 N840 1.436 . S
C818 C817 1.421 . S
C818 C819 1.379 . S
C818 H876 0.929 . S
C819 C818 1.379 . S
C819 C820 1.417 . S
C820 C819 1.417 . S
C820 C821 1.352 . S
C820 H877 0.929 . S
C821 C820 1.352 . S
C821 C822 1.393 . S
C822 C817 1.360 . S
C822 C821 1.393 . S
C822 H878 0.931 1_655 S
Cd823 O843 2.329 . S
Cd823 O845 2.350 . S
Cd823 O846 2.277 . S
Cd823 O848 2.173 . S
Cd823 O852 2.263 . S
Cd823 O863 2.366 . S
Cd824 O842 2.352 . S
Cd824 O849 2.250 . S
Cd824 O853 2.308 1_655 S
C825 C829 1.403 . S
C825 C830 1.370 . S
C825 N841 1.423 . S
C826 C827 1.389 . S
C826 C830 1.389 . S
C827 C826 1.389 . S
C827 C828 1.379 . S
C827 H879 0.929 . S
C828 C827 1.379 . S
C828 C829 1.405 . S
C829 C825 1.403 . S
C829 C828 1.405 . S
C829 H880 0.932 . S
C830 C825 1.370 . S
C830 C826 1.389 . S
C830 H881 0.931 . S
Co831 N815 1.869 . S
Co831 N832 1.955 1_455 S
Co831 N833 1.864 . S
Co831 N839 1.958 . S
Co831 N840 1.953 1_455 S
Co831 N841 1.974 . S
N832 Co831 1.955 1_655 S
N832 C850 1.329 . S
N832 C865 1.432 . S
N833 Co831 1.864 . S
N833 C834 1.327 . S
N833 C838 1.342 . S
C834 N833 1.327 . S
C834 C835 1.407 . S
C834 C850 1.481 1_455 S
C835 C834 1.407 . S
C835 C836 1.364 . S
C835 H882 0.930 . S
C836 C835 1.364 . S
C836 C837 1.390 . S
C836 H883 0.931 . S
C837 C836 1.390 . S
C837 C838 1.346 . S
C837 H884 0.930 . S
C838 N833 1.342 . S
C838 C837 1.346 . S
C838 C854 1.516 . S
N839 Co831 1.958 . S
N839 C854 1.324 . S
N839 C856 1.427 . S
N840 C816 1.316 . S
N840 C817 1.436 . S
N840 Co831 1.953 1_655 S
N841 C825 1.423 . S
N841 Co831 1.974 . S
N841 C871 1.309 . S
O842 Cd824 2.352 . S
O842 C862 1.235 . S
O843 Cd823 2.329 . S
O843 C862 1.270 . S
C844 O845 1.270 . S
C844 O846 1.248 . S
O845 Cd823 2.350 . S
O845 C844 1.270 . S
O846 Cd823 2.277 . S
O846 C844 1.248 . S
C847 O848 1.277 . S
C847 O849 1.230 . S
O848 Cd823 2.173 . S
O848 C847 1.277 . S
O849 Cd824 2.250 . S
O849 C847 1.230 . S
C850 N832 1.329 . S
C850 C834 1.481 1_655 S
C850 O851 1.246 . S
O851 C850 1.246 . S
O852 Cd823 2.263 . S
O852 C864 1.258 1_655 S
O853 Cd824 2.308 1_455 S
O853 C864 1.274 . S
C854 C838 1.516 . S
C854 N839 1.324 . S
C854 O855 1.238 . S
O855 C854 1.238 . S
C856 N839 1.427 . S
C856 C857 1.394 . S
C856 C861 1.395 . S
C857 C856 1.394 . S
C857 C858 1.380 . S
C857 H885 0.929 . S
C858 C857 1.380 . S
C858 C859 1.384 . S
C858 C864 1.495 . S
C859 C858 1.384 . S
C859 C860 1.382 . S
C859 H886 0.930 . S
C860 C859 1.382 . S
C860 C861 1.398 . S
C861 C856 1.395 . S
C861 C860 1.398 . S
C861 H887 0.930 . S
C862 O842 1.235 . S
C862 O843 1.270 . S
O863 C816 1.263 . S
O863 Cd823 2.366 . S
C864 O852 1.258 1_455 S
C864 O853 1.274 . S
C864 C858 1.495 . S
C865 N832 1.432 . S
C865 C866 1.381 . S
C865 C870 1.385 . S
C866 C865 1.381 . S
C866 C867 1.371 . S
C866 H888 0.932 1_655 S
C867 C866 1.371 . S
C867 C868 1.400 . S
C868 C867 1.400 . S
C868 C869 1.351 . S
C868 H889 0.930 . S
C869 C868 1.351 . S
C869 C870 1.388 . S
C870 C865 1.385 . S
C870 C869 1.388 . S
C870 H890 0.929 . S
C871 C810 1.504 . S
C871 N841 1.309 . S
C871 O872 1.258 . S
O872 C871 1.258 . S
H873 C811 0.929 . S
H874 C812 0.932 1_655 S
H875 C813 0.931 . S
H876 C818 0.929 . S
H877 C820 0.929 . S
H878 C822 0.931 1_455 S
H879 C827 0.929 . S
H880 C829 0.932 . S
H881 C830 0.931 . S
H882 C835 0.930 . S
H883 C836 0.931 . S
H884 C837 0.930 . S
H885 C857 0.929 . S
H886 C859 0.930 . S
H887 C861 0.930 . S
H888 C866 0.932 1_455 S
H889 C868 0.930 . S
H890 C870 0.929 . S
C891 C892 1.359 . S
C891 N896 1.330 . S
C891 C952 1.504 . S
C892 C891 1.359 . S
C892 C893 1.366 . S
C892 H954 0.929 . S
C893 C892 1.366 . S
C893 C894 1.415 1_545 S
C893 H955 0.932 1_545 S
C894 C893 1.415 1_565 S
C894 C895 1.366 . S
C894 H956 0.931 . S
C895 C894 1.366 . S
C895 N896 1.325 1_565 S
C895 C897 1.516 . S
N896 C891 1.330 . S
N896 C895 1.325 1_545 S
N896 Co912 1.869 . S
C897 C895 1.516 . S
C897 N921 1.316 . S
C897 O944 1.263 . S
C898 C899 1.421 . S
C898 C903 1.360 . S
C898 N921 1.436 . S
C899 C898 1.421 . S
C899 C900 1.379 . S
C899 H957 0.929 . S
C900 C899 1.379 . S
C900 C901 1.417 . S
C901 C900 1.417 . S
C901 C902 1.352 . S
C901 H958 0.929 . S
C902 C901 1.352 . S
C902 C903 1.393 . S
C903 C898 1.360 . S
C903 C902 1.393 . S
C903 H959 0.931 1_565 S
Cd904 O924 2.329 . S
Cd904 O926 2.350 . S
Cd904 O927 2.277 . S
Cd904 O929 2.173 . S
Cd904 O933 2.263 . S
Cd904 O944 2.366 . S
Cd905 O923 2.352 . S
Cd905 O930 2.250 . S
Cd905 O934 2.308 1_565 S
C906 C910 1.403 . S
C906 C911 1.370 . S
C906 N922 1.423 . S
C907 C908 1.389 . S
C907 C911 1.389 . S
C908 C907 1.389 . S
C908 C909 1.379 . S
C908 H960 0.929 . S
C909 C908 1.379 . S
C909 C910 1.405 . S
C910 C906 1.403 . S
C910 C909 1.405 . S
C910 H961 0.932 . S
C911 C906 1.370 . S
C911 C907 1.389 . S
C911 H962 0.931 . S
Co912 N896 1.869 . S
Co912 N913 1.955 1_545 S
Co912 N914 1.864 . S
Co912 N920 1.958 . S
Co912 N921 1.953 1_545 S
Co912 N922 1.974 . S
N913 Co912 1.955 1_565 S
N913 C931 1.329 . S
N913 C946 1.432 . S
N914 Co912 1.864 . S
N914 C915 1.327 . S
N914 C919 1.342 . S
C915 N914 1.327 . S
C915 C916 1.407 . S
C915 C931 1.481 1_545 S
C916 C915 1.407 . S
C916 C917 1.364 . S
C916 H963 0.930 . S
C917 C916 1.364 . S
C917 C918 1.390 . S
C917 H964 0.931 . S
C918 C917 1.390 . S
C918 C919 1.346 . S
C918 H965 0.930 . S
C919 N914 1.342 . S
C919 C918 1.346 . S
C919 C935 1.516 . S
N920 Co912 1.958 . S
N920 C935 1.324 . S
N920 C937 1.427 . S
N921 C897 1.316 . S
N921 C898 1.436 . S
N921 Co912 1.953 1_565 S
N922 C906 1.423 . S
N922 Co912 1.974 . S
N922 C952 1.309 . S
O923 Cd905 2.352 . S
O923 C943 1.235 . S
O924 Cd904 2.329 . S
O924 C943 1.270 . S
C925 O926 1.270 . S
C925 O927 1.248 . S
O926 Cd904 2.350 . S
O926 C925 1.270 . S
O927 Cd904 2.277 . S
O927 C925 1.248 . S
C928 O929 1.277 . S
C928 O930 1.230 . S
O929 Cd904 2.173 . S
O929 C928 1.277 . S
O930 Cd905 2.250 . S
O930 C928 1.230 . S
C931 N913 1.329 . S
C931 C915 1.481 1_565 S
C931 O932 1.246 . S
O932 C931 1.246 . S
O933 Cd904 2.263 . S
O933 C945 1.258 1_565 S
O934 Cd905 2.308 1_545 S
O934 C945 1.274 . S
C935 C919 1.516 . S
C935 N920 1.324 . S
C935 O936 1.238 . S
O936 C935 1.238 . S
C937 N920 1.427 . S
C937 C938 1.394 . S
C937 C942 1.395 . S
C938 C937 1.394 . S
C938 C939 1.380 . S
C938 H966 0.929 . S
C939 C938 1.380 . S
C939 C940 1.384 . S
C939 C945 1.495 . S
C940 C939 1.384 . S
C940 C941 1.382 . S
C940 H967 0.930 . S
C941 C940 1.382 . S
C941 C942 1.398 . S
C942 C937 1.395 . S
C942 C941 1.398 . S
C942 H968 0.930 . S
C943 O923 1.235 . S
C943 O924 1.270 . S
O944 C897 1.263 . S
O944 Cd904 2.366 . S
C945 O933 1.258 1_545 S
C945 O934 1.274 . S
C945 C939 1.495 . S
C946 N913 1.432 . S
C946 C947 1.381 . S
C946 C951 1.385 . S
C947 C946 1.381 . S
C947 C948 1.371 . S
C947 H969 0.932 1_565 S
C948 C947 1.371 . S
C948 C949 1.400 . S
C949 C948 1.400 . S
C949 C950 1.351 . S
C949 H970 0.930 . S
C950 C949 1.351 . S
C950 C951 1.388 . S
C951 C946 1.385 . S
C951 C950 1.388 . S
C951 H971 0.929 . S
C952 C891 1.504 . S
C952 N922 1.309 . S
C952 O953 1.258 . S
O953 C952 1.258 . S
H954 C892 0.929 . S
H955 C893 0.932 1_565 S
H956 C894 0.931 . S
H957 C899 0.929 . S
H958 C901 0.929 . S
H959 C903 0.931 1_545 S
H960 C908 0.929 . S
H961 C910 0.932 . S
H962 C911 0.931 . S
H963 C916 0.930 . S
H964 C917 0.931 . S
H965 C918 0.930 . S
H966 C938 0.929 . S
H967 C940 0.930 . S
H968 C942 0.930 . S
H969 C947 0.932 1_545 S
H970 C949 0.930 . S
H971 C951 0.929 . S
H972 C984 0.930 . S
H973 C986 0.930 . S
H974 C987 0.930 . S
H975 C991 0.959 . S
H976 C991 0.959 . S
H977 C991 0.961 . S
H978 C992 0.960 . S
H979 C992 0.961 . S
H980 C992 0.959 . S
H981 C995 0.929 . S
H982 C996 0.931 . S
H983 C998 0.930 . S
C984 H972 0.930 . S
C984 C985 1.399 . S
C984 C989 1.399 . S
C985 C984 1.399 . S
C985 C986 1.376 . S
C986 H973 0.930 . S
C986 C985 1.376 . S
C986 C987 1.388 . S
C987 H974 0.930 . S
C987 C986 1.388 . S
C987 C988 1.390 . S
C988 C987 1.390 . S
C988 C989 1.394 . S
C988 C994 1.465 . S
C989 C984 1.399 . S
C989 C988 1.394 . S
C989 C990 1.516 . S
C990 C989 1.516 . S
C990 C991 1.502 . S
C990 C992 1.561 . S
C990 C993 1.526 . S
C991 H975 0.959 . S
C991 H976 0.959 . S
C991 H977 0.961 . S
C991 C990 1.502 . S
C992 H978 0.960 . S
C992 H979 0.961 . S
C992 H980 0.959 . S
C992 C990 1.561 . S
C993 C990 1.526 . S
C993 C994 1.396 . S
C993 C998 1.390 . S
C994 C988 1.465 . S
C994 C993 1.396 . S
C994 C995 1.399 . S
C995 H981 0.929 . S
C995 C994 1.399 . S
C995 C996 1.385 . S
C996 H982 0.931 . S
C996 C995 1.385 . S
C996 C997 1.389 . S
C997 C996 1.389 . S
C997 C998 1.387 . S
C998 H983 0.930 . S
C998 C993 1.390 . S
C998 C997 1.387 . S
H999 C1011 0.930 . S
H1000 C1013 0.930 . S
H1001 C1014 0.930 . S
H1002 C1018 0.959 . S
H1003 C1018 0.959 . S
H1004 C1018 0.961 . S
H1005 C1019 0.960 . S
H1006 C1019 0.961 . S
H1007 C1019 0.959 . S
H1008 C1022 0.929 . S
H1009 C1023 0.931 . S
H1010 C1025 0.930 . S
C1011 H999 0.930 . S
C1011 C1012 1.399 . S
C1011 C1016 1.399 . S
C1012 C1011 1.399 . S
C1012 C1013 1.376 . S
C1013 H1000 0.930 . S
C1013 C1012 1.376 . S
C1013 C1014 1.388 . S
C1014 H1001 0.930 . S
C1014 C1013 1.388 . S
C1014 C1015 1.390 . S
C1015 C1014 1.390 . S
C1015 C1016 1.394 . S
C1015 C1021 1.465 . S
C1016 C1011 1.399 . S
C1016 C1015 1.394 . S
C1016 C1017 1.516 . S
C1017 C1016 1.516 . S
C1017 C1018 1.502 . S
C1017 C1019 1.561 . S
C1017 C1020 1.526 . S
C1018 H1002 0.959 . S
C1018 H1003 0.959 . S
C1018 H1004 0.961 . S
C1018 C1017 1.502 . S
C1019 H1005 0.960 . S
C1019 H1006 0.961 . S
C1019 H1007 0.959 . S
C1019 C1017 1.561 . S
C1020 C1017 1.526 . S
C1020 C1021 1.396 . S
C1020 C1025 1.390 . S
C1021 C1015 1.465 . S
C1021 C1020 1.396 . S
C1021 C1022 1.399 . S
C1022 H1008 0.929 . S
C1022 C1021 1.399 . S
C1022 C1023 1.385 . S
C1023 H1009 0.931 . S
C1023 C1022 1.385 . S
C1023 C1024 1.389 . S
C1024 C1023 1.389 . S
C1024 C1025 1.387 . S
C1025 H1010 0.930 . S
C1025 C1020 1.390 . S
C1025 C1024 1.387 . S
H1026 C1038 0.930 . S
H1027 C1040 0.930 . S
H1028 C1041 0.930 . S
H1029 C1045 0.959 . S
H1030 C1045 0.959 . S
H1031 C1045 0.961 . S
H1032 C1046 0.960 . S
H1033 C1046 0.961 . S
H1034 C1046 0.959 . S
H1035 C1049 0.929 . S
H1036 C1050 0.931 . S
H1037 C1052 0.930 . S
C1038 H1026 0.930 . S
C1038 C1039 1.399 . S
C1038 C1043 1.399 . S
C1039 C1038 1.399 . S
C1039 C1040 1.376 . S
C1040 H1027 0.930 . S
C1040 C1039 1.376 . S
C1040 C1041 1.388 . S
C1041 H1028 0.930 . S
C1041 C1040 1.388 . S
C1041 C1042 1.390 . S
C1042 C1041 1.390 . S
C1042 C1043 1.394 . S
C1042 C1048 1.465 . S
C1043 C1038 1.399 . S
C1043 C1042 1.394 . S
C1043 C1044 1.516 . S
C1044 C1043 1.516 . S
C1044 C1045 1.502 . S
C1044 C1046 1.561 . S
C1044 C1047 1.526 . S
C1045 H1029 0.959 . S
C1045 H1030 0.959 . S
C1045 H1031 0.961 . S
C1045 C1044 1.502 . S
C1046 H1032 0.960 . S
C1046 H1033 0.961 . S
C1046 H1034 0.959 . S
C1046 C1044 1.561 . S
C1047 C1044 1.526 . S
C1047 C1048 1.396 . S
C1047 C1052 1.390 . S
C1048 C1042 1.465 . S
C1048 C1047 1.396 . S
C1048 C1049 1.399 . S
C1049 H1035 0.929 . S
C1049 C1048 1.399 . S
C1049 C1050 1.385 . S
C1050 H1036 0.931 . S
C1050 C1049 1.385 . S
C1050 C1051 1.389 . S
C1051 C1050 1.389 . S
C1051 C1052 1.387 . S
C1052 H1037 0.930 . S
C1052 C1047 1.390 . S
C1052 C1051 1.387 . S
H1053 C1065 0.930 . S
H1054 C1067 0.930 . S
H1055 C1068 0.930 . S
H1056 C1072 0.959 . S
H1057 C1072 0.959 . S
H1058 C1072 0.961 . S
H1059 C1073 0.960 . S
H1060 C1073 0.961 . S
H1061 C1073 0.959 . S
H1062 C1076 0.929 . S
H1063 C1077 0.931 . S
H1064 C1079 0.930 . S
C1065 H1053 0.930 . S
C1065 C1066 1.399 . S
C1065 C1070 1.399 . S
C1066 C1065 1.399 . S
C1066 C1067 1.376 . S
C1067 H1054 0.930 . S
C1067 C1066 1.376 . S
C1067 C1068 1.388 . S
C1068 H1055 0.930 . S
C1068 C1067 1.388 . S
C1068 C1069 1.390 . S
C1069 C1068 1.390 . S
C1069 C1070 1.394 . S
C1069 C1075 1.465 . S
C1070 C1065 1.399 . S
C1070 C1069 1.394 . S
C1070 C1071 1.516 . S
C1071 C1070 1.516 . S
C1071 C1072 1.502 . S
C1071 C1073 1.561 . S
C1071 C1074 1.526 . S
C1072 H1056 0.959 . S
C1072 H1057 0.959 . S
C1072 H1058 0.961 . S
C1072 C1071 1.502 . S
C1073 H1059 0.960 . S
C1073 H1060 0.961 . S
C1073 H1061 0.959 . S
C1073 C1071 1.561 . S
C1074 C1071 1.526 . S
C1074 C1075 1.396 . S
C1074 C1079 1.390 . S
C1075 C1069 1.465 . S
C1075 C1074 1.396 . S
C1075 C1076 1.399 . S
C1076 H1062 0.929 . S
C1076 C1075 1.399 . S
C1076 C1077 1.385 . S
C1077 H1063 0.931 . S
C1077 C1076 1.385 . S
C1077 C1078 1.389 . S
C1078 C1077 1.389 . S
C1078 C1079 1.387 . S
C1079 H1064 0.930 . S
C1079 C1074 1.390 . S
C1079 C1078 1.387 . S
H1080 C1092 0.930 . S
H1081 C1094 0.930 . S
H1082 C1095 0.930 . S
H1083 C1099 0.959 . S
H1084 C1099 0.959 . S
H1085 C1099 0.961 . S
H1086 C1100 0.960 . S
H1087 C1100 0.961 . S
H1088 C1100 0.959 . S
H1089 C1103 0.929 . S
H1090 C1104 0.931 . S
H1091 C1106 0.930 . S
C1092 H1080 0.930 . S
C1092 C1093 1.399 . S
C1092 C1097 1.399 . S
C1093 C1092 1.399 . S
C1093 C1094 1.376 . S
C1094 H1081 0.930 . S
C1094 C1093 1.376 . S
C1094 C1095 1.388 . S
C1095 H1082 0.930 . S
C1095 C1094 1.388 . S
C1095 C1096 1.390 . S
C1096 C1095 1.390 . S
C1096 C1097 1.394 . S
C1096 C1102 1.465 . S
C1097 C1092 1.399 . S
C1097 C1096 1.394 . S
C1097 C1098 1.516 . S
C1098 C1097 1.516 . S
C1098 C1099 1.502 . S
C1098 C1100 1.561 . S
C1098 C1101 1.526 . S
C1099 H1083 0.959 . S
C1099 H1084 0.959 . S
C1099 H1085 0.961 . S
C1099 C1098 1.502 . S
C1100 H1086 0.960 . S
C1100 H1087 0.961 . S
C1100 H1088 0.959 . S
C1100 C1098 1.561 . S
C1101 C1098 1.526 . S
C1101 C1102 1.396 . S
C1101 C1106 1.390 . S
C1102 C1096 1.465 . S
C1102 C1101 1.396 . S
C1102 C1103 1.399 . S
C1103 H1089 0.929 . S
C1103 C1102 1.399 . S
C1103 C1104 1.385 . S
C1104 H1090 0.931 . S
C1104 C1103 1.385 . S
C1104 C1105 1.389 . S
C1105 C1104 1.389 . S
C1105 C1106 1.387 . S
C1106 H1091 0.930 . S
C1106 C1101 1.390 . S
C1106 C1105 1.387 . S
H1107 C1119 0.930 . S
H1108 C1121 0.930 . S
H1109 C1122 0.930 . S
H1110 C1126 0.959 . S
H1111 C1126 0.959 . S
H1112 C1126 0.961 . S
H1113 C1127 0.960 . S
H1114 C1127 0.961 . S
H1115 C1127 0.959 . S
H1116 C1130 0.929 . S
H1117 C1131 0.931 . S
H1118 C1133 0.930 . S
C1119 H1107 0.930 . S
C1119 C1120 1.399 . S
C1119 C1124 1.399 . S
C1120 C1119 1.399 . S
C1120 C1121 1.376 . S
C1121 H1108 0.930 . S
C1121 C1120 1.376 . S
C1121 C1122 1.388 . S
C1122 H1109 0.930 . S
C1122 C1121 1.388 . S
C1122 C1123 1.390 . S
C1123 C1122 1.390 . S
C1123 C1124 1.394 . S
C1123 C1129 1.465 . S
C1124 C1119 1.399 . S
C1124 C1123 1.394 . S
C1124 C1125 1.516 . S
C1125 C1124 1.516 . S
C1125 C1126 1.502 . S
C1125 C1127 1.561 . S
C1125 C1128 1.526 . S
C1126 H1110 0.959 . S
C1126 H1111 0.959 . S
C1126 H1112 0.961 . S
C1126 C1125 1.502 . S
C1127 H1113 0.960 . S
C1127 H1114 0.961 . S
C1127 H1115 0.959 . S
C1127 C1125 1.561 . S
C1128 C1125 1.526 . S
C1128 C1129 1.396 . S
C1128 C1133 1.390 . S
C1129 C1123 1.465 . S
C1129 C1128 1.396 . S
C1129 C1130 1.399 . S
C1130 H1116 0.929 . S
C1130 C1129 1.399 . S
C1130 C1131 1.385 . S
C1131 H1117 0.931 . S
C1131 C1130 1.385 . S
C1131 C1132 1.389 . S
C1132 C1131 1.389 . S
C1132 C1133 1.387 . S
C1133 H1118 0.930 . S
C1133 C1128 1.390 . S
C1133 C1132 1.387 . S
H1134 C1146 0.930 . S
H1135 C1148 0.930 . S
H1136 C1149 0.930 . S
H1137 C1153 0.959 . S
H1138 C1153 0.959 1_545 S
H1139 C1153 0.961 . S
H1140 C1154 0.960 . S
H1141 C1154 0.947 1_545 S
H1142 C1154 0.959 . S
H1143 C1157 0.929 . S
H1144 C1158 0.931 . S
H1145 C1160 0.930 . S
C1146 H1134 0.930 . S
C1146 C1147 1.399 1_554 S
C1146 C1151 1.399 . S
C1147 C1146 1.399 1_556 S
C1147 C1148 1.376 . S
C1148 H1135 0.930 . S
C1148 C1147 1.376 . S
C1148 C1149 1.388 . S
C1149 H1136 0.930 . S
C1149 C1148 1.388 . S
C1149 C1150 1.390 . S
C1150 C1149 1.390 . S
C1150 C1151 1.394 1_556 S
C1150 C1156 1.465 1_565 S
C1151 C1146 1.399 . S
C1151 C1150 1.394 1_554 S
C1151 C1152 1.516 . S
C1152 C1151 1.516 . S
C1152 C1153 1.502 . S
C1152 C1154 1.561 . S
C1152 C1155 1.526 1_565 S
C1153 H1137 0.959 . S
C1153 H1138 0.959 1_565 S
C1153 H1139 0.961 . S
C1153 C1152 1.502 . S
C1154 H1140 0.960 . S
C1154 H1141 0.947 1_565 S
C1154 H1142 0.959 . S
C1154 C1152 1.561 . S
C1155 C1152 1.526 1_545 S
C1155 C1156 1.396 1_554 S
C1155 C1160 1.390 . S
C1156 C1150 1.465 1_545 S
C1156 C1155 1.396 1_556 S
C1156 C1157 1.399 . S
C1157 H1143 0.929 . S
C1157 C1156 1.399 . S
C1157 C1158 1.385 . S
C1158 H1144 0.931 . S
C1158 C1157 1.385 . S
C1158 C1159 1.389 1_556 S
C1159 C1158 1.389 1_554 S
C1159 C1160 1.387 . S
C1160 H1145 0.930 . S
C1160 C1155 1.390 . S
C1160 C1159 1.387 . S
H1161 C1173 0.930 . S
H1162 C1175 0.930 . S
H1163 C1176 0.930 . S
H1164 C1180 0.959 . S
H1165 C1180 0.959 . S
H1166 C1180 0.961 . S
H1167 C1181 0.960 . S
H1168 C1181 0.961 . S
H1169 C1181 0.959 . S
H1170 C1184 0.929 . S
H1171 C1185 0.931 . S
H1172 C1187 0.930 . S
C1173 H1161 0.930 . S
C1173 C1174 1.399 . S
C1173 C1178 1.399 . S
C1174 C1173 1.399 . S
C1174 C1175 1.376 . S
C1175 H1162 0.930 . S
C1175 C1174 1.376 . S
C1175 C1176 1.388 . S
C1176 H1163 0.930 . S
C1176 C1175 1.388 . S
C1176 C1177 1.390 . S
C1177 C1176 1.390 . S
C1177 C1178 1.394 . S
C1177 C1183 1.465 . S
C1178 C1173 1.399 . S
C1178 C1177 1.394 . S
C1178 C1179 1.516 . S
C1179 C1178 1.516 . S
C1179 C1180 1.502 . S
C1179 C1181 1.561 . S
C1179 C1182 1.526 . S
C1180 H1164 0.959 . S
C1180 H1165 0.959 . S
C1180 H1166 0.961 . S
C1180 C1179 1.502 . S
C1181 H1167 0.960 . S
C1181 H1168 0.961 . S
C1181 H1169 0.959 . S
C1181 C1179 1.561 . S
C1182 C1179 1.526 . S
C1182 C1183 1.396 . S
C1182 C1187 1.390 . S
C1183 C1177 1.465 . S
C1183 C1182 1.396 . S
C1183 C1184 1.399 . S
C1184 H1170 0.929 . S
C1184 C1183 1.399 . S
C1184 C1185 1.385 . S
C1185 H1171 0.931 . S
C1185 C1184 1.385 . S
C1185 C1186 1.389 . S
C1186 C1185 1.389 . S
C1186 C1187 1.387 . S
C1187 H1172 0.930 . S
C1187 C1182 1.390 . S
C1187 C1186 1.387 . S
H1188 C1200 0.930 . S
H1189 C1202 0.930 . S
H1190 C1203 0.930 . S
H1191 C1207 0.959 . S
H1192 C1207 0.959 . S
H1193 C1207 0.961 1_455 S
H1194 C1208 0.960 1_455 S
H1195 C1208 0.961 . S
H1196 C1208 0.959 . S
H1197 C1211 0.929 . S
H1198 C1212 0.931 . S
H1199 C1214 0.930 . S
C1200 H1188 0.930 . S
C1200 C1201 1.399 . S
C1200 C1205 1.399 . S
C1201 C1200 1.399 . S
C1201 C1202 1.376 . S
C1202 H1189 0.930 . S
C1202 C1201 1.376 . S
C1202 C1203 1.388 . S
C1203 H1190 0.930 . S
C1203 C1202 1.388 . S
C1203 C1204 1.390 . S
C1204 C1203 1.390 . S
C1204 C1205 1.394 . S
C1204 C1210 1.465 1_455 S
C1205 C1200 1.399 . S
C1205 C1204 1.394 . S
C1205 C1206 1.516 1_455 S
C1206 C1205 1.516 1_655 S
C1206 C1207 1.502 . S
C1206 C1208 1.561 . S
C1206 C1209 1.526 . S
C1207 H1191 0.959 . S
C1207 H1192 0.959 . S
C1207 H1193 0.961 1_655 S
C1207 C1206 1.502 . S
C1208 H1194 0.960 1_655 S
C1208 H1195 0.961 . S
C1208 H1196 0.959 . S
C1208 C1206 1.561 . S
C1209 C1206 1.526 . S
C1209 C1210 1.396 . S
C1209 C1214 1.390 . S
C1210 C1204 1.465 1_655 S
C1210 C1209 1.396 . S
C1210 C1211 1.399 . S
C1211 H1197 0.929 . S
C1211 C1210 1.399 . S
C1211 C1212 1.385 . S
C1212 H1198 0.931 . S
C1212 C1211 1.385 . S
C1212 C1213 1.389 . S
C1213 C1212 1.389 . S
C1213 C1214 1.387 . S
C1214 H1199 0.930 . S
C1214 C1209 1.390 . S
C1214 C1213 1.387 . S
H1215 C1227 0.930 . S
H1216 C1229 0.930 . S
H1217 C1230 0.930 . S
H1218 C1234 0.959 . S
H1219 C1234 0.959 1_545 S
H1220 C1234 0.961 . S
H1221 C1235 0.960 . S
H1222 C1235 0.961 1_545 S
H1223 C1235 0.959 1_545 S
H1224 C1238 0.929 . S
H1225 C1239 0.931 . S
H1226 C1241 0.930 . S
C1227 H1215 0.930 . S
C1227 C1228 1.399 . S
C1227 C1232 1.399 . S
C1228 C1227 1.399 . S
C1228 C1229 1.376 . S
C1229 H1216 0.930 . S
C1229 C1228 1.376 . S
C1229 C1230 1.388 . S
C1230 H1217 0.930 . S
C1230 C1229 1.388 . S
C1230 C1231 1.390 . S
C1231 C1230 1.390 . S
C1231 C1232 1.394 . S
C1231 C1237 1.465 1_565 S
C1232 C1227 1.399 . S
C1232 C1231 1.394 . S
C1232 C1233 1.516 . S
C1233 C1232 1.516 . S
C1233 C1234 1.502 . S
C1233 C1235 1.561 . S
C1233 C1236 1.526 1_565 S
C1234 H1218 0.959 . S
C1234 H1219 0.959 1_565 S
C1234 H1220 0.961 . S
C1234 C1233 1.502 . S
C1235 H1221 0.960 . S
C1235 H1222 0.961 1_565 S
C1235 H1223 0.959 1_565 S
C1235 C1233 1.561 . S
C1236 C1233 1.526 1_545 S
C1236 C1237 1.396 . S
C1236 C1241 1.390 . S
C1237 C1231 1.465 1_545 S
C1237 C1236 1.396 . S
C1237 C1238 1.399 . S
C1238 H1224 0.929 . S
C1238 C1237 1.399 . S
C1238 C1239 1.385 . S
C1239 H1225 0.931 . S
C1239 C1238 1.385 . S
C1239 C1240 1.389 . S
C1240 C1239 1.389 . S
C1240 C1241 1.387 . S
C1241 H1226 0.930 . S
C1241 C1236 1.390 . S
C1241 C1240 1.387 . S
H1242 C1254 0.930 . S
H1243 C1256 0.930 . S
H1244 C1257 0.930 . S
H1245 C1261 0.959 . S
H1246 C1261 0.959 . S
H1247 C1261 0.961 . S
H1248 C1262 0.960 . S
H1249 C1262 0.961 . S
H1250 C1262 0.959 . S
H1251 C1265 0.929 . S
H1252 C1266 0.931 . S
H1253 C1268 0.930 . S
C1254 H1242 0.930 . S
C1254 C1255 1.399 . S
C1254 C1259 1.399 . S
C1255 C1254 1.399 . S
C1255 C1256 1.376 . S
C1256 H1243 0.930 . S
C1256 C1255 1.376 . S
C1256 C1257 1.388 . S
C1257 H1244 0.930 . S
C1257 C1256 1.388 . S
C1257 C1258 1.390 . S
C1258 C1257 1.390 . S
C1258 C1259 1.394 . S
C1258 C1264 1.465 . S
C1259 C1254 1.399 . S
C1259 C1258 1.394 . S
C1259 C1260 1.516 . S
C1260 C1259 1.516 . S
C1260 C1261 1.502 . S
C1260 C1262 1.561 . S
C1260 C1263 1.526 . S
C1261 H1245 0.959 . S
C1261 H1246 0.959 . S
C1261 H1247 0.961 . S
C1261 C1260 1.502 . S
C1262 H1248 0.960 . S
C1262 H1249 0.961 . S
C1262 H1250 0.959 . S
C1262 C1260 1.561 . S
C1263 C1260 1.526 . S
C1263 C1264 1.396 . S
C1263 C1268 1.390 . S
C1264 C1258 1.465 . S
C1264 C1263 1.396 . S
C1264 C1265 1.399 . S
C1265 H1251 0.929 . S
C1265 C1264 1.399 . S
C1265 C1266 1.385 . S
C1266 H1252 0.931 . S
C1266 C1265 1.385 . S
C1266 C1267 1.389 . S
C1267 C1266 1.389 . S
C1267 C1268 1.387 . S
C1268 H1253 0.930 . S
C1268 C1263 1.390 . S
C1268 C1267 1.387 . S
H1269 C1281 0.930 . S
H1270 C1283 0.930 . S
H1271 C1284 0.930 . S
H1272 C1288 0.959 . S
H1273 C1288 0.959 . S
H1274 C1288 0.961 1_655 S
H1275 C1289 0.960 1_655 S
H1276 C1289 0.961 . S
H1277 C1289 0.959 . S
H1278 C1292 0.929 . S
H1279 C1293 0.931 . S
H1280 C1295 0.930 . S
C1281 H1269 0.930 . S
C1281 C1282 1.399 . S
C1281 C1286 1.399 . S
C1282 C1281 1.399 . S
C1282 C1283 1.376 . S
C1283 H1270 0.930 . S
C1283 C1282 1.376 . S
C1283 C1284 1.388 . S
C1284 H1271 0.930 . S
C1284 C1283 1.388 . S
C1284 C1285 1.390 . S
C1285 C1284 1.390 . S
C1285 C1286 1.394 . S
C1285 C1291 1.465 1_655 S
C1286 C1281 1.399 . S
C1286 C1285 1.394 . S
C1286 C1287 1.516 1_655 S
C1287 C1286 1.516 1_455 S
C1287 C1288 1.502 . S
C1287 C1289 1.561 . S
C1287 C1290 1.526 . S
C1288 H1272 0.959 . S
C1288 H1273 0.959 . S
C1288 H1274 0.961 1_455 S
C1288 C1287 1.502 . S
C1289 H1275 0.960 1_455 S
C1289 H1276 0.961 . S
C1289 H1277 0.959 . S
C1289 C1287 1.561 . S
C1290 C1287 1.526 . S
C1290 C1291 1.396 . S
C1290 C1295 1.390 . S
C1291 C1285 1.465 1_455 S
C1291 C1290 1.396 . S
C1291 C1292 1.399 . S
C1292 H1278 0.929 . S
C1292 C1291 1.399 . S
C1292 C1293 1.385 . S
C1293 H1279 0.931 . S
C1293 C1292 1.385 . S
C1293 C1294 1.389 . S
C1294 C1293 1.389 . S
C1294 C1295 1.387 . S
C1295 H1280 0.930 . S
C1295 C1290 1.390 . S
C1295 C1294 1.387 . S
H1296 C1308 0.930 . S
H1297 C1310 0.930 . S
H1298 C1311 0.930 . S
H1299 C1315 0.959 . S
H1300 C1315 0.959 . S
H1301 C1315 0.961 . S
H1302 C1316 0.960 . S
H1303 C1316 0.961 . S
H1304 C1316 0.959 . S
H1305 C1319 0.929 . S
H1306 C1320 0.931 . S
H1307 C1322 0.930 . S
C1308 H1296 0.930 . S
C1308 C1309 1.399 . S
C1308 C1313 1.399 . S
C1309 C1308 1.399 . S
C1309 C1310 1.376 . S
C1310 H1297 0.930 . S
C1310 C1309 1.376 . S
C1310 C1311 1.388 . S
C1311 H1298 0.930 . S
C1311 C1310 1.388 . S
C1311 C1312 1.390 . S
C1312 C1311 1.390 . S
C1312 C1313 1.394 . S
C1312 C1318 1.465 . S
C1313 C1308 1.399 . S
C1313 C1312 1.394 . S
C1313 C1314 1.516 . S
C1314 C1313 1.516 . S
C1314 C1315 1.502 . S
C1314 C1316 1.561 . S
C1314 C1317 1.526 . S
C1315 H1299 0.959 . S
C1315 H1300 0.959 . S
C1315 H1301 0.961 . S
C1315 C1314 1.502 . S
C1316 H1302 0.960 . S
C1316 H1303 0.961 . S
C1316 H1304 0.959 . S
C1316 C1314 1.561 . S
C1317 C1314 1.526 . S
C1317 C1318 1.396 . S
C1317 C1322 1.390 . S
C1318 C1312 1.465 . S
C1318 C1317 1.396 . S
C1318 C1319 1.399 . S
C1319 H1305 0.929 . S
C1319 C1318 1.399 . S
C1319 C1320 1.385 . S
C1320 H1306 0.931 . S
C1320 C1319 1.385 . S
C1320 C1321 1.389 . S
C1321 C1320 1.389 . S
C1321 C1322 1.387 . S
C1322 H1307 0.930 . S
C1322 C1317 1.390 . S
C1322 C1321 1.387 . S
H1323 C1335 0.930 . S
H1324 C1337 0.930 . S
H1325 C1338 0.930 . S
H1326 C1342 0.959 . S
H1327 C1342 0.959 . S
H1328 C1342 0.961 . S
H1329 C1343 0.960 . S
H1330 C1343 0.961 . S
H1331 C1343 0.959 . S
H1332 C1346 0.929 . S
H1333 C1347 0.931 . S
H1334 C1349 0.930 . S
C1335 H1323 0.930 . S
C1335 C1336 1.399 . S
C1335 C1340 1.399 . S
C1336 C1335 1.399 . S
C1336 C1337 1.376 . S
C1337 H1324 0.930 . S
C1337 C1336 1.376 . S
C1337 C1338 1.388 . S
C1338 H1325 0.930 . S
C1338 C1337 1.388 . S
C1338 C1339 1.390 . S
C1339 C1338 1.390 . S
C1339 C1340 1.394 . S
C1339 C1345 1.465 . S
C1340 C1335 1.399 . S
C1340 C1339 1.394 . S
C1340 C1341 1.516 . S
C1341 C1340 1.516 . S
C1341 C1342 1.502 . S
C1341 C1343 1.561 . S
C1341 C1344 1.526 . S
C1342 H1326 0.959 . S
C1342 H1327 0.959 . S
C1342 H1328 0.961 . S
C1342 C1341 1.502 . S
C1343 H1329 0.960 . S
C1343 H1330 0.961 . S
C1343 H1331 0.959 . S
C1343 C1341 1.561 . S
C1344 C1341 1.526 . S
C1344 C1345 1.396 . S
C1344 C1349 1.390 . S
C1345 C1339 1.465 . S
C1345 C1344 1.396 . S
C1345 C1346 1.399 . S
C1346 H1332 0.929 . S
C1346 C1345 1.399 . S
C1346 C1347 1.385 . S
C1347 H1333 0.931 . S
C1347 C1346 1.385 . S
C1347 C1348 1.389 . S
C1348 C1347 1.389 . S
C1348 C1349 1.387 . S
C1349 H1334 0.930 . S
C1349 C1344 1.390 . S
C1349 C1348 1.387 . S
H1350 C1362 0.930 . S
H1351 C1364 0.930 . S
H1352 C1365 0.930 . S
H1353 C1369 0.959 . S
H1354 C1369 0.959 . S
H1355 C1369 0.961 . S
H1356 C1370 0.960 . S
H1357 C1370 0.961 . S
H1358 C1370 0.959 . S
H1359 C1373 0.929 . S
H1360 C1374 0.931 . S
H1361 C1376 0.930 . S
C1362 H1350 0.930 . S
C1362 C1363 1.399 . S
C1362 C1367 1.399 . S
C1363 C1362 1.399 . S
C1363 C1364 1.376 . S
C1364 H1351 0.930 . S
C1364 C1363 1.376 . S
C1364 C1365 1.388 . S
C1365 H1352 0.930 . S
C1365 C1364 1.388 . S
C1365 C1366 1.390 . S
C1366 C1365 1.390 . S
C1366 C1367 1.394 . S
C1366 C1372 1.465 . S
C1367 C1362 1.399 . S
C1367 C1366 1.394 . S
C1367 C1368 1.516 . S
C1368 C1367 1.516 . S
C1368 C1369 1.502 . S
C1368 C1370 1.561 . S
C1368 C1371 1.526 . S
C1369 H1353 0.959 . S
C1369 H1354 0.959 . S
C1369 H1355 0.961 . S
C1369 C1368 1.502 . S
C1370 H1356 0.960 . S
C1370 H1357 0.961 . S
C1370 H1358 0.959 . S
C1370 C1368 1.561 . S
C1371 C1368 1.526 . S
C1371 C1372 1.396 . S
C1371 C1376 1.390 . S
C1372 C1366 1.465 . S
C1372 C1371 1.396 . S
C1372 C1373 1.399 . S
C1373 H1359 0.929 . S
C1373 C1372 1.399 . S
C1373 C1374 1.385 . S
C1374 H1360 0.931 . S
C1374 C1373 1.385 . S
C1374 C1375 1.389 . S
C1375 C1374 1.389 . S
C1375 C1376 1.387 . S
C1376 H1361 0.930 . S
C1376 C1371 1.390 . S
C1376 C1375 1.387 . S
H1377 C1389 0.930 . S
H1378 C1391 0.930 . S
H1379 C1392 0.930 . S
H1380 C1396 0.959 . S
H1381 C1396 0.959 . S
H1382 C1396 0.961 . S
H1383 C1397 0.960 . S
H1384 C1397 0.961 . S
H1385 C1397 0.959 . S
H1386 C1400 0.929 . S
H1387 C1401 0.931 . S
H1388 C1403 0.930 . S
C1389 H1377 0.930 . S
C1389 C1390 1.399 . S
C1389 C1394 1.399 . S
C1390 C1389 1.399 . S
C1390 C1391 1.376 . S
C1391 H1378 0.930 . S
C1391 C1390 1.376 . S
C1391 C1392 1.388 . S
C1392 H1379 0.930 . S
C1392 C1391 1.388 . S
C1392 C1393 1.390 . S
C1393 C1392 1.390 . S
C1393 C1394 1.394 . S
C1393 C1399 1.465 . S
C1394 C1389 1.399 . S
C1394 C1393 1.394 . S
C1394 C1395 1.516 . S
C1395 C1394 1.516 . S
C1395 C1396 1.502 . S
C1395 C1397 1.561 . S
C1395 C1398 1.526 . S
C1396 H1380 0.959 . S
C1396 H1381 0.959 . S
C1396 H1382 0.961 . S
C1396 C1395 1.502 . S
C1397 H1383 0.960 . S
C1397 H1384 0.961 . S
C1397 H1385 0.959 . S
C1397 C1395 1.561 . S
C1398 C1395 1.526 . S
C1398 C1399 1.396 . S
C1398 C1403 1.390 . S
C1399 C1393 1.465 . S
C1399 C1398 1.396 . S
C1399 C1400 1.399 . S
C1400 H1386 0.929 . S
C1400 C1399 1.399 . S
C1400 C1401 1.385 . S
C1401 H1387 0.931 . S
C1401 C1400 1.385 . S
C1401 C1402 1.389 . S
C1402 C1401 1.389 . S
C1402 C1403 1.387 . S
C1403 H1388 0.930 . S
C1403 C1398 1.390 . S
C1403 C1402 1.387 . S
H1404 C1416 0.930 . S
H1405 C1418 0.930 . S
H1406 C1419 0.930 . S
H1407 C1423 0.959 . S
H1408 C1423 0.959 . S
H1409 C1423 0.961 . S
H1410 C1424 0.960 . S
H1411 C1424 0.961 . S
H1412 C1424 0.959 . S
H1413 C1427 0.929 . S
H1414 C1428 0.931 . S
H1415 C1430 0.930 . S
C1416 H1404 0.930 . S
C1416 C1417 1.399 . S
C1416 C1421 1.399 . S
C1417 C1416 1.399 . S
C1417 C1418 1.376 . S
C1418 H1405 0.930 . S
C1418 C1417 1.376 . S
C1418 C1419 1.388 . S
C1419 H1406 0.930 . S
C1419 C1418 1.388 . S
C1419 C1420 1.390 . S
C1420 C1419 1.390 . S
C1420 C1421 1.394 . S
C1420 C1426 1.465 . S
C1421 C1416 1.399 . S
C1421 C1420 1.394 . S
C1421 C1422 1.516 . S
C1422 C1421 1.516 . S
C1422 C1423 1.502 . S
C1422 C1424 1.561 . S
C1422 C1425 1.526 . S
C1423 H1407 0.959 . S
C1423 H1408 0.959 . S
C1423 H1409 0.961 . S
C1423 C1422 1.502 . S
C1424 H1410 0.960 . S
C1424 H1411 0.961 . S
C1424 H1412 0.959 . S
C1424 C1422 1.561 . S
C1425 C1422 1.526 . S
C1425 C1426 1.396 . S
C1425 C1430 1.390 . S
C1426 C1420 1.465 . S
C1426 C1425 1.396 . S
C1426 C1427 1.399 . S
C1427 H1413 0.929 . S
C1427 C1426 1.399 . S
C1427 C1428 1.385 . S
C1428 H1414 0.931 . S
C1428 C1427 1.385 . S
C1428 C1429 1.389 . S
C1429 C1428 1.389 . S
C1429 C1430 1.387 . S
C1430 H1415 0.930 . S
C1430 C1425 1.390 . S
C1430 C1429 1.387 . S
H1431 C1443 0.930 . S
H1432 C1445 0.930 . S
H1433 C1446 0.930 . S
H1434 C1450 0.959 . S
H1435 C1450 0.959 . S
H1436 C1450 0.961 . S
H1437 C1451 0.960 . S
H1438 C1451 0.961 . S
H1439 C1451 0.959 . S
H1440 C1454 0.929 . S
H1441 C1455 0.931 . S
H1442 C1457 0.930 . S
C1443 H1431 0.930 . S
C1443 C1444 1.399 . S
C1443 C1448 1.399 . S
C1444 C1443 1.399 . S
C1444 C1445 1.376 . S
C1445 H1432 0.930 . S
C1445 C1444 1.376 . S
C1445 C1446 1.388 . S
C1446 H1433 0.930 . S
C1446 C1445 1.388 . S
C1446 C1447 1.390 . S
C1447 C1446 1.390 . S
C1447 C1448 1.394 . S
C1447 C1453 1.465 . S
C1448 C1443 1.399 . S
C1448 C1447 1.394 . S
C1448 C1449 1.516 . S
C1449 C1448 1.516 . S
C1449 C1450 1.502 . S
C1449 C1451 1.561 . S
C1449 C1452 1.526 . S
C1450 H1434 0.959 . S
C1450 H1435 0.959 . S
C1450 H1436 0.961 . S
C1450 C1449 1.502 . S
C1451 H1437 0.960 . S
C1451 H1438 0.961 . S
C1451 H1439 0.959 . S
C1451 C1449 1.561 . S
C1452 C1449 1.526 . S
C1452 C1453 1.396 . S
C1452 C1457 1.390 . S
C1453 C1447 1.465 . S
C1453 C1452 1.396 . S
C1453 C1454 1.399 . S
C1454 H1440 0.929 . S
C1454 C1453 1.399 . S
C1454 C1455 1.385 . S
C1455 H1441 0.931 . S
C1455 C1454 1.385 . S
C1455 C1456 1.389 . S
C1456 C1455 1.389 . S
C1456 C1457 1.387 . S
C1457 H1442 0.930 . S
C1457 C1452 1.390 . S
C1457 C1456 1.387 . S
H1458 C1470 0.930 . S
H1459 C1472 0.930 . S
H1460 C1473 0.930 . S
H1461 C1477 0.959 . S
H1462 C1477 0.959 . S
H1463 C1477 0.961 . S
H1464 C1478 0.960 . S
H1465 C1478 0.961 . S
H1466 C1478 0.959 . S
H1467 C1481 0.929 . S
H1468 C1482 0.931 . S
H1469 C1484 0.930 . S
C1470 H1458 0.930 . S
C1470 C1471 1.399 . S
C1470 C1475 1.399 . S
C1471 C1470 1.399 . S
C1471 C1472 1.376 . S
C1472 H1459 0.930 . S
C1472 C1471 1.376 . S
C1472 C1473 1.388 . S
C1473 H1460 0.930 . S
C1473 C1472 1.388 . S
C1473 C1474 1.390 . S
C1474 C1473 1.390 . S
C1474 C1475 1.394 . S
C1474 C1480 1.465 . S
C1475 C1470 1.399 . S
C1475 C1474 1.394 . S
C1475 C1476 1.516 . S
C1476 C1475 1.516 . S
C1476 C1477 1.502 . S
C1476 C1478 1.561 . S
C1476 C1479 1.526 . S
C1477 H1461 0.959 . S
C1477 H1462 0.959 . S
C1477 H1463 0.961 . S
C1477 C1476 1.502 . S
C1478 H1464 0.960 . S
C1478 H1465 0.961 . S
C1478 H1466 0.959 . S
C1478 C1476 1.561 . S
C1479 C1476 1.526 . S
C1479 C1480 1.396 . S
C1479 C1484 1.390 . S
C1480 C1474 1.465 . S
C1480 C1479 1.396 . S
C1480 C1481 1.399 . S
C1481 H1467 0.929 . S
C1481 C1480 1.399 . S
C1481 C1482 1.385 . S
C1482 H1468 0.931 . S
C1482 C1481 1.385 . S
C1482 C1483 1.389 . S
C1483 C1482 1.389 . S
C1483 C1484 1.387 . S
C1484 H1469 0.930 . S
C1484 C1479 1.390 . S
C1484 C1483 1.387 . S
H1485 C1497 0.930 . S
H1486 C1499 0.930 . S
H1487 C1500 0.930 . S
H1488 C1504 0.959 . S
H1489 C1504 0.959 . S
H1490 C1504 0.961 . S
H1491 C1505 0.960 . S
H1492 C1505 0.961 . S
H1493 C1505 0.959 . S
H1494 C1508 0.929 . S
H1495 C1509 0.931 . S
H1496 C1511 0.930 . S
C1497 H1485 0.930 . S
C1497 C1498 1.399 . S
C1497 C1502 1.399 . S
C1498 C1497 1.399 . S
C1498 C1499 1.376 . S
C1499 H1486 0.930 . S
C1499 C1498 1.376 . S
C1499 C1500 1.388 . S
C1500 H1487 0.930 . S
C1500 C1499 1.388 . S
C1500 C1501 1.390 . S
C1501 C1500 1.390 . S
C1501 C1502 1.394 . S
C1501 C1507 1.465 . S
C1502 C1497 1.399 . S
C1502 C1501 1.394 . S
C1502 C1503 1.516 . S
C1503 C1502 1.516 . S
C1503 C1504 1.502 . S
C1503 C1505 1.561 . S
C1503 C1506 1.526 . S
C1504 H1488 0.959 . S
C1504 H1489 0.959 . S
C1504 H1490 0.961 . S
C1504 C1503 1.502 . S
C1505 H1491 0.960 . S
C1505 H1492 0.961 . S
C1505 H1493 0.959 . S
C1505 C1503 1.561 . S
C1506 C1503 1.526 . S
C1506 C1507 1.396 . S
C1506 C1511 1.390 . S
C1507 C1501 1.465 . S
C1507 C1506 1.396 . S
C1507 C1508 1.399 . S
C1508 H1494 0.929 . S
C1508 C1507 1.399 . S
C1508 C1509 1.385 . S
C1509 H1495 0.931 . S
C1509 C1508 1.385 . S
C1509 C1510 1.389 . S
C1510 C1509 1.389 . S
C1510 C1511 1.387 . S
C1511 H1496 0.930 . S
C1511 C1506 1.390 . S
C1511 C1510 1.387 . S
H1512 C1524 0.930 . S
H1513 C1526 0.930 . S
H1514 C1527 0.930 . S
H1515 C1531 0.959 . S
H1516 C1531 0.959 . S
H1517 C1531 0.961 . S
H1518 C1532 0.960 . S
H1519 C1532 0.961 . S
H1520 C1532 0.959 . S
H1521 C1535 0.929 . S
H1522 C1536 0.931 . S
H1523 C1538 0.930 . S
C1524 H1512 0.930 . S
C1524 C1525 1.399 . S
C1524 C1529 1.399 . S
C1525 C1524 1.399 . S
C1525 C1526 1.376 . S
C1526 H1513 0.930 . S
C1526 C1525 1.376 . S
C1526 C1527 1.388 . S
C1527 H1514 0.930 . S
C1527 C1526 1.388 . S
C1527 C1528 1.390 . S
C1528 C1527 1.390 . S
C1528 C1529 1.394 . S
C1528 C1534 1.465 . S
C1529 C1524 1.399 . S
C1529 C1528 1.394 . S
C1529 C1530 1.516 . S
C1530 C1529 1.516 . S
C1530 C1531 1.502 . S
C1530 C1532 1.561 . S
C1530 C1533 1.526 . S
C1531 H1515 0.959 . S
C1531 H1516 0.959 . S
C1531 H1517 0.961 . S
C1531 C1530 1.502 . S
C1532 H1518 0.960 . S
C1532 H1519 0.961 . S
C1532 H1520 0.959 . S
C1532 C1530 1.561 . S
C1533 C1530 1.526 . S
C1533 C1534 1.396 . S
C1533 C1538 1.390 . S
C1534 C1528 1.465 . S
C1534 C1533 1.396 . S
C1534 C1535 1.399 . S
C1535 H1521 0.929 . S
C1535 C1534 1.399 . S
C1535 C1536 1.385 . S
C1536 H1522 0.931 . S
C1536 C1535 1.385 . S
C1536 C1537 1.389 . S
C1537 C1536 1.389 . S
C1537 C1538 1.387 . S
C1538 H1523 0.930 . S
C1538 C1533 1.390 . S
C1538 C1537 1.387 . S
H1539 C1551 0.930 . S
H1540 C1553 0.930 . S
H1541 C1554 0.930 . S
H1542 C1558 0.959 . S
H1543 C1558 0.959 . S
H1544 C1558 0.961 . S
H1545 C1559 0.960 . S
H1546 C1559 0.961 . S
H1547 C1559 0.959 . S
H1548 C1562 0.929 . S
H1549 C1563 0.931 . S
H1550 C1565 0.930 . S
C1551 H1539 0.930 . S
C1551 C1552 1.399 . S
C1551 C1556 1.399 . S
C1552 C1551 1.399 . S
C1552 C1553 1.376 . S
C1553 H1540 0.930 . S
C1553 C1552 1.376 . S
C1553 C1554 1.388 . S
C1554 H1541 0.930 . S
C1554 C1553 1.388 . S
C1554 C1555 1.390 . S
C1555 C1554 1.390 . S
C1555 C1556 1.394 . S
C1555 C1561 1.465 . S
C1556 C1551 1.399 . S
C1556 C1555 1.394 . S
C1556 C1557 1.516 . S
C1557 C1556 1.516 . S
C1557 C1558 1.502 . S
C1557 C1559 1.561 . S
C1557 C1560 1.526 . S
C1558 H1542 0.959 . S
C1558 H1543 0.959 . S
C1558 H1544 0.961 . S
C1558 C1557 1.502 . S
C1559 H1545 0.960 . S
C1559 H1546 0.961 . S
C1559 H1547 0.959 . S
C1559 C1557 1.561 . S
C1560 C1557 1.526 . S
C1560 C1561 1.396 . S
C1560 C1565 1.390 . S
C1561 C1555 1.465 . S
C1561 C1560 1.396 . S
C1561 C1562 1.399 . S
C1562 H1548 0.929 . S
C1562 C1561 1.399 . S
C1562 C1563 1.385 . S
C1563 H1549 0.931 . S
C1563 C1562 1.385 . S
C1563 C1564 1.389 . S
C1564 C1563 1.389 . S
C1564 C1565 1.387 . S
C1565 H1550 0.930 . S
C1565 C1560 1.390 . S
C1565 C1564 1.387 . S
H1566 C1578 0.930 . S
H1567 C1580 0.930 . S
H1568 C1581 0.930 . S
H1569 C1585 0.959 . S
H1570 C1585 0.959 . S
H1571 C1585 0.961 . S
H1572 C1586 0.960 . S
H1573 C1586 0.961 . S
H1574 C1586 0.959 . S
H1575 C1589 0.929 . S
H1576 C1590 0.931 . S
H1577 C1592 0.930 . S
C1578 H1566 0.930 . S
C1578 C1579 1.399 . S
C1578 C1583 1.399 . S
C1579 C1578 1.399 . S
C1579 C1580 1.376 . S
C1580 H1567 0.930 . S
C1580 C1579 1.376 . S
C1580 C1581 1.388 . S
C1581 H1568 0.930 . S
C1581 C1580 1.388 . S
C1581 C1582 1.390 . S
C1582 C1581 1.390 . S
C1582 C1583 1.394 . S
C1582 C1588 1.465 . S
C1583 C1578 1.399 . S
C1583 C1582 1.394 . S
C1583 C1584 1.516 . S
C1584 C1583 1.516 . S
C1584 C1585 1.502 . S
C1584 C1586 1.561 . S
C1584 C1587 1.526 . S
C1585 H1569 0.959 . S
C1585 H1570 0.959 . S
C1585 H1571 0.961 . S
C1585 C1584 1.502 . S
C1586 H1572 0.960 . S
C1586 H1573 0.961 . S
C1586 H1574 0.959 . S
C1586 C1584 1.561 . S
C1587 C1584 1.526 . S
C1587 C1588 1.396 . S
C1587 C1592 1.390 . S
C1588 C1582 1.465 . S
C1588 C1587 1.396 . S
C1588 C1589 1.399 . S
C1589 H1575 0.929 . S
C1589 C1588 1.399 . S
C1589 C1590 1.385 . S
C1590 H1576 0.931 . S
C1590 C1589 1.385 . S
C1590 C1591 1.389 . S
C1591 C1590 1.389 . S
C1591 C1592 1.387 . S
C1592 H1577 0.930 . S
C1592 C1587 1.390 . S
C1592 C1591 1.387 . S
H1593 C1605 0.930 . S
H1594 C1607 0.930 . S
H1595 C1608 0.930 . S
H1596 C1612 0.959 . S
H1597 C1612 0.959 . S
H1598 C1612 0.961 . S
H1599 C1613 0.960 . S
H1600 C1613 0.961 . S
H1601 C1613 0.959 . S
H1602 C1616 0.929 . S
H1603 C1617 0.931 . S
H1604 C1619 0.930 . S
C1605 H1593 0.930 . S
C1605 C1606 1.399 . S
C1605 C1610 1.399 . S
C1606 C1605 1.399 . S
C1606 C1607 1.376 . S
C1607 H1594 0.930 . S
C1607 C1606 1.376 . S
C1607 C1608 1.388 . S
C1608 H1595 0.930 . S
C1608 C1607 1.388 . S
C1608 C1609 1.390 . S
C1609 C1608 1.390 . S
C1609 C1610 1.394 . S
C1609 C1615 1.465 . S
C1610 C1605 1.399 . S
C1610 C1609 1.394 . S
C1610 C1611 1.516 . S
C1611 C1610 1.516 . S
C1611 C1612 1.502 . S
C1611 C1613 1.561 . S
C1611 C1614 1.526 . S
C1612 H1596 0.959 . S
C1612 H1597 0.959 . S
C1612 H1598 0.961 . S
C1612 C1611 1.502 . S
C1613 H1599 0.960 . S
C1613 H1600 0.961 . S
C1613 H1601 0.959 . S
C1613 C1611 1.561 . S
C1614 C1611 1.526 . S
C1614 C1615 1.396 . S
C1614 C1619 1.390 . S
C1615 C1609 1.465 . S
C1615 C1614 1.396 . S
C1615 C1616 1.399 . S
C1616 H1602 0.929 . S
C1616 C1615 1.399 . S
C1616 C1617 1.385 . S
C1617 H1603 0.931 . S
C1617 C1616 1.385 . S
C1617 C1618 1.389 . S
C1618 C1617 1.389 . S
C1618 C1619 1.387 . S
C1619 H1604 0.930 . S
C1619 C1614 1.390 . S
C1619 C1618 1.387 . S
H1620 C1632 0.930 . S
H1621 C1634 0.930 . S
H1622 C1635 0.930 . S
H1623 C1639 0.959 1_554 S
H1624 C1639 0.959 . S
H1625 C1639 0.948 1_554 S
H1626 C1640 0.960 . S
H1627 C1640 0.961 . S
H1628 C1640 0.959 . S
H1629 C1643 0.948 . S
H1630 C1644 0.931 . S
H1631 C1646 0.930 . S
C1632 H1620 0.930 . S
C1632 C1633 1.399 . S
C1632 C1637 1.399 . S
C1633 C1632 1.399 . S
C1633 C1634 1.376 . S
C1634 H1621 0.930 . S
C1634 C1633 1.376 . S
C1634 C1635 1.388 . S
C1635 H1622 0.930 . S
C1635 C1634 1.388 . S
C1635 C1636 1.390 . S
C1636 C1635 1.390 . S
C1636 C1637 1.394 . S
C1636 C1642 1.465 1_554 S
C1637 C1632 1.399 . S
C1637 C1636 1.394 . S
C1637 C1638 1.516 1_554 S
C1638 C1637 1.516 1_556 S
C1638 C1639 1.502 . S
C1638 C1640 1.561 . S
C1638 C1641 1.526 . S
C1639 H1623 0.959 1_556 S
C1639 H1624 0.959 . S
C1639 H1625 0.948 1_556 S
C1639 C1638 1.502 . S
C1640 H1626 0.960 . S
C1640 H1627 0.961 . S
C1640 H1628 0.959 . S
C1640 C1638 1.561 . S
C1641 C1638 1.526 . S
C1641 C1642 1.396 . S
C1641 C1646 1.390 . S
C1642 C1636 1.465 1_556 S
C1642 C1641 1.396 . S
C1642 C1643 1.399 . S
C1643 H1629 0.948 . S
C1643 C1642 1.399 . S
C1643 C1644 1.385 . S
C1644 H1630 0.931 . S
C1644 C1643 1.385 . S
C1644 C1645 1.389 . S
C1645 C1644 1.389 . S
C1645 C1646 1.387 . S
C1646 H1631 0.930 . S
C1646 C1641 1.390 . S
C1646 C1645 1.387 . S
H1647 C1659 0.930 . S
H1648 C1661 0.930 . S
H1649 C1662 0.930 . S
H1650 C1666 0.959 . S
H1651 C1666 0.959 . S
H1652 C1666 0.961 . S
H1653 C1667 0.960 . S
H1654 C1667 0.961 . S
H1655 C1667 0.959 . S
H1656 C1670 0.929 . S
H1657 C1671 0.931 . S
H1658 C1673 0.930 . S
C1659 H1647 0.930 . S
C1659 C1660 1.399 . S
C1659 C1664 1.399 . S
C1660 C1659 1.399 . S
C1660 C1661 1.376 . S
C1661 H1648 0.930 . S
C1661 C1660 1.376 . S
C1661 C1662 1.388 . S
C1662 H1649 0.930 . S
C1662 C1661 1.388 . S
C1662 C1663 1.390 . S
C1663 C1662 1.390 . S
C1663 C1664 1.394 . S
C1663 C1669 1.465 . S
C1664 C1659 1.399 . S
C1664 C1663 1.394 . S
C1664 C1665 1.516 . S
C1665 C1664 1.516 . S
C1665 C1666 1.502 . S
C1665 C1667 1.561 . S
C1665 C1668 1.526 . S
C1666 H1650 0.959 . S
C1666 H1651 0.959 . S
C1666 H1652 0.961 . S
C1666 C1665 1.502 . S
C1667 H1653 0.960 . S
C1667 H1654 0.961 . S
C1667 H1655 0.959 . S
C1667 C1665 1.561 . S
C1668 C1665 1.526 . S
C1668 C1669 1.396 . S
C1668 C1673 1.390 . S
C1669 C1663 1.465 . S
C1669 C1668 1.396 . S
C1669 C1670 1.399 . S
C1670 H1656 0.929 . S
C1670 C1669 1.399 . S
C1670 C1671 1.385 . S
C1671 H1657 0.931 . S
C1671 C1670 1.385 . S
C1671 C1672 1.389 . S
C1672 C1671 1.389 . S
C1672 C1673 1.387 . S
C1673 H1658 0.930 . S
C1673 C1668 1.390 . S
C1673 C1672 1.387 . S
H1674 C1686 0.930 . S
H1675 C1688 0.930 . S
H1676 C1689 0.930 . S
H1677 C1693 0.959 . S
H1678 C1693 0.959 . S
H1679 C1693 0.961 . S
H1680 C1694 0.960 . S
H1681 C1694 0.961 . S
H1682 C1694 0.959 . S
H1683 C1697 0.929 . S
H1684 C1698 0.931 . S
H1685 C1700 0.930 . S
C1686 H1674 0.930 . S
C1686 C1687 1.399 . S
C1686 C1691 1.399 . S
C1687 C1686 1.399 . S
C1687 C1688 1.376 . S
C1688 H1675 0.930 . S
C1688 C1687 1.376 . S
C1688 C1689 1.388 . S
C1689 H1676 0.930 . S
C1689 C1688 1.388 . S
C1689 C1690 1.390 . S
C1690 C1689 1.390 . S
C1690 C1691 1.394 . S
C1690 C1696 1.465 . S
C1691 C1686 1.399 . S
C1691 C1690 1.394 . S
C1691 C1692 1.516 . S
C1692 C1691 1.516 . S
C1692 C1693 1.502 . S
C1692 C1694 1.561 . S
C1692 C1695 1.526 . S
C1693 H1677 0.959 . S
C1693 H1678 0.959 . S
C1693 H1679 0.961 . S
C1693 C1692 1.502 . S
C1694 H1680 0.960 . S
C1694 H1681 0.961 . S
C1694 H1682 0.959 . S
C1694 C1692 1.561 . S
C1695 C1692 1.526 . S
C1695 C1696 1.396 . S
C1695 C1700 1.390 . S
C1696 C1690 1.465 . S
C1696 C1695 1.396 . S
C1696 C1697 1.399 . S
C1697 H1683 0.929 . S
C1697 C1696 1.399 . S
C1697 C1698 1.385 . S
C1698 H1684 0.931 . S
C1698 C1697 1.385 . S
C1698 C1699 1.389 . S
C1699 C1698 1.389 . S
C1699 C1700 1.387 . S
C1700 H1685 0.930 . S
C1700 C1695 1.390 . S
C1700 C1699 1.387 . S
H1701 C1713 0.930 . S
H1702 C1715 0.930 . S
H1703 C1716 0.930 . S
H1704 C1720 0.959 . S
H1705 C1720 0.959 . S
H1706 C1720 0.961 . S
H1707 C1721 0.960 . S
H1708 C1721 0.961 . S
H1709 C1721 0.959 . S
H1710 C1724 0.929 . S
H1711 C1725 0.931 . S
H1712 C1727 0.930 . S
C1713 H1701 0.930 . S
C1713 C1714 1.399 . S
C1713 C1718 1.399 . S
C1714 C1713 1.399 . S
C1714 C1715 1.376 . S
C1715 H1702 0.930 . S
C1715 C1714 1.376 . S
C1715 C1716 1.388 . S
C1716 H1703 0.930 . S
C1716 C1715 1.388 . S
C1716 C1717 1.390 . S
C1717 C1716 1.390 . S
C1717 C1718 1.394 . S
C1717 C1723 1.465 . S
C1718 C1713 1.399 . S
C1718 C1717 1.394 . S
C1718 C1719 1.516 . S
C1719 C1718 1.516 . S
C1719 C1720 1.502 . S
C1719 C1721 1.561 . S
C1719 C1722 1.526 . S
C1720 H1704 0.959 . S
C1720 H1705 0.959 . S
C1720 H1706 0.961 . S
C1720 C1719 1.502 . S
C1721 H1707 0.960 . S
C1721 H1708 0.961 . S
C1721 H1709 0.959 . S
C1721 C1719 1.561 . S
C1722 C1719 1.526 . S
C1722 C1723 1.396 . S
C1722 C1727 1.390 . S
C1723 C1717 1.465 . S
C1723 C1722 1.396 . S
C1723 C1724 1.399 . S
C1724 H1710 0.929 . S
C1724 C1723 1.399 . S
C1724 C1725 1.385 . S
C1725 H1711 0.931 . S
C1725 C1724 1.385 . S
C1725 C1726 1.389 . S
C1726 C1725 1.389 . S
C1726 C1727 1.387 . S
C1727 H1712 0.930 . S
C1727 C1722 1.390 . S
C1727 C1726 1.387 . S
H1728 C1740 0.930 . S
H1729 C1742 0.930 . S
H1730 C1743 0.930 . S
H1731 C1747 0.959 . S
H1732 C1747 0.959 . S
H1733 C1747 0.961 . S
H1734 C1748 0.960 . S
H1735 C1748 0.961 . S
H1736 C1748 0.959 . S
H1737 C1751 0.929 . S
H1738 C1752 0.931 . S
H1739 C1754 0.930 . S
C1740 H1728 0.930 . S
C1740 C1741 1.399 . S
C1740 C1745 1.399 . S
C1741 C1740 1.399 . S
C1741 C1742 1.376 . S
C1742 H1729 0.930 . S
C1742 C1741 1.376 . S
C1742 C1743 1.388 . S
C1743 H1730 0.930 . S
C1743 C1742 1.388 . S
C1743 C1744 1.390 . S
C1744 C1743 1.390 . S
C1744 C1745 1.394 . S
C1744 C1750 1.465 . S
C1745 C1740 1.399 . S
C1745 C1744 1.394 . S
C1745 C1746 1.516 . S
C1746 C1745 1.516 . S
C1746 C1747 1.502 . S
C1746 C1748 1.561 . S
C1746 C1749 1.526 . S
C1747 H1731 0.959 . S
C1747 H1732 0.959 . S
C1747 H1733 0.961 . S
C1747 C1746 1.502 . S
C1748 H1734 0.960 . S
C1748 H1735 0.961 . S
C1748 H1736 0.959 . S
C1748 C1746 1.561 . S
C1749 C1746 1.526 . S
C1749 C1750 1.396 . S
C1749 C1754 1.390 . S
C1750 C1744 1.465 . S
C1750 C1749 1.396 . S
C1750 C1751 1.399 . S
C1751 H1737 0.929 . S
C1751 C1750 1.399 . S
C1751 C1752 1.385 . S
C1752 H1738 0.931 . S
C1752 C1751 1.385 . S
C1752 C1753 1.389 . S
C1753 C1752 1.389 . S
C1753 C1754 1.387 . S
C1754 H1739 0.930 . S
C1754 C1749 1.390 . S
C1754 C1753 1.387 . S
H1755 C1767 0.930 . S
H1756 C1769 0.930 . S
H1757 C1770 0.930 . S
H1758 C1774 0.959 . S
H1759 C1774 0.959 . S
H1760 C1774 0.961 . S
H1761 C1775 0.960 . S
H1762 C1775 0.961 . S
H1763 C1775 0.959 . S
H1764 C1778 0.929 . S
H1765 C1779 0.931 . S
H1766 C1781 0.930 . S
C1767 H1755 0.930 . S
C1767 C1768 1.399 . S
C1767 C1772 1.399 . S
C1768 C1767 1.399 . S
C1768 C1769 1.376 . S
C1769 H1756 0.930 . S
C1769 C1768 1.376 . S
C1769 C1770 1.388 . S
C1770 H1757 0.930 . S
C1770 C1769 1.388 . S
C1770 C1771 1.390 . S
C1771 C1770 1.390 . S
C1771 C1772 1.394 . S
C1771 C1777 1.465 . S
C1772 C1767 1.399 . S
C1772 C1771 1.394 . S
C1772 C1773 1.516 . S
C1773 C1772 1.516 . S
C1773 C1774 1.502 . S
C1773 C1775 1.561 . S
C1773 C1776 1.526 . S
C1774 H1758 0.959 . S
C1774 H1759 0.959 . S
C1774 H1760 0.961 . S
C1774 C1773 1.502 . S
C1775 H1761 0.960 . S
C1775 H1762 0.961 . S
C1775 H1763 0.959 . S
C1775 C1773 1.561 . S
C1776 C1773 1.526 . S
C1776 C1777 1.396 . S
C1776 C1781 1.390 . S
C1777 C1771 1.465 . S
C1777 C1776 1.396 . S
C1777 C1778 1.399 . S
C1778 H1764 0.929 . S
C1778 C1777 1.399 . S
C1778 C1779 1.385 . S
C1779 H1765 0.931 . S
C1779 C1778 1.385 . S
C1779 C1780 1.389 . S
C1780 C1779 1.389 . S
C1780 C1781 1.387 . S
C1781 H1766 0.930 . S
C1781 C1776 1.390 . S
C1781 C1780 1.387 . S
H1782 C1794 0.930 . S
H1783 C1796 0.930 . S
H1784 C1797 0.930 . S
H1785 C1801 0.959 . S
H1786 C1801 0.959 . S
H1787 C1801 0.961 . S
H1788 C1802 0.960 . S
H1789 C1802 0.961 . S
H1790 C1802 0.959 . S
H1791 C1805 0.929 . S
H1792 C1806 0.931 . S
H1793 C1808 0.930 . S
C1794 H1782 0.930 . S
C1794 C1795 1.399 . S
C1794 C1799 1.399 . S
C1795 C1794 1.399 . S
C1795 C1796 1.376 . S
C1796 H1783 0.930 . S
C1796 C1795 1.376 . S
C1796 C1797 1.388 . S
C1797 H1784 0.930 . S
C1797 C1796 1.388 . S
C1797 C1798 1.390 . S
C1798 C1797 1.390 . S
C1798 C1799 1.394 . S
C1798 C1804 1.465 . S
C1799 C1794 1.399 . S
C1799 C1798 1.394 . S
C1799 C1800 1.516 . S
C1800 C1799 1.516 . S
C1800 C1801 1.502 . S
C1800 C1802 1.561 . S
C1800 C1803 1.526 . S
C1801 H1785 0.959 . S
C1801 H1786 0.959 . S
C1801 H1787 0.961 . S
C1801 C1800 1.502 . S
C1802 H1788 0.960 . S
C1802 H1789 0.961 . S
C1802 H1790 0.959 . S
C1802 C1800 1.561 . S
C1803 C1800 1.526 . S
C1803 C1804 1.396 . S
C1803 C1808 1.390 . S
C1804 C1798 1.465 . S
C1804 C1803 1.396 . S
C1804 C1805 1.399 . S
C1805 H1791 0.929 . S
C1805 C1804 1.399 . S
C1805 C1806 1.385 . S
C1806 H1792 0.931 . S
C1806 C1805 1.385 . S
C1806 C1807 1.389 . S
C1807 C1806 1.389 . S
C1807 C1808 1.387 . S
C1808 H1793 0.930 . S
C1808 C1803 1.390 . S
C1808 C1807 1.387 . S
H1809 C1821 0.930 . S
H1810 C1823 0.930 . S
H1811 C1824 0.930 . S
H1812 C1828 0.959 . S
H1813 C1828 0.959 . S
H1814 C1828 0.961 . S
H1815 C1829 0.960 . S
H1816 C1829 0.961 . S
H1817 C1829 0.959 . S
H1818 C1832 0.929 . S
H1819 C1833 0.931 . S
H1820 C1835 0.930 . S
C1821 H1809 0.930 . S
C1821 C1822 1.399 . S
C1821 C1826 1.399 . S
C1822 C1821 1.399 . S
C1822 C1823 1.376 . S
C1823 H1810 0.930 . S
C1823 C1822 1.376 . S
C1823 C1824 1.388 1_556 S
C1824 H1811 0.930 . S
C1824 C1823 1.388 1_554 S
C1824 C1825 1.390 . S
C1825 C1824 1.390 . S
C1825 C1826 1.394 1_554 S
C1825 C1831 1.465 . S
C1826 C1821 1.399 . S
C1826 C1825 1.394 1_556 S
C1826 C1827 1.516 . S
C1827 C1826 1.516 . S
C1827 C1828 1.502 . S
C1827 C1829 1.561 . S
C1827 C1830 1.526 1_556 S
C1828 H1812 0.959 . S
C1828 H1813 0.959 . S
C1828 H1814 0.961 . S
C1828 C1827 1.502 . S
C1829 H1815 0.960 . S
C1829 H1816 0.961 . S
C1829 H1817 0.959 . S
C1829 C1827 1.561 . S
C1830 C1827 1.526 1_554 S
C1830 C1831 1.396 . S
C1830 C1835 1.390 . S
C1831 C1825 1.465 . S
C1831 C1830 1.396 . S
C1831 C1832 1.399 . S
C1832 H1818 0.929 . S
C1832 C1831 1.399 . S
C1832 C1833 1.385 . S
C1833 H1819 0.931 . S
C1833 C1832 1.385 . S
C1833 C1834 1.389 . S
C1834 C1833 1.389 . S
C1834 C1835 1.387 . S
C1835 H1820 0.930 . S
C1835 C1830 1.390 . S
C1835 C1834 1.387 . S
H1836 C1848 0.930 . S
H1837 C1850 0.930 . S
H1838 C1851 0.930 . S
H1839 C1855 0.959 . S
H1840 C1855 0.959 . S
H1841 C1855 0.961 . S
H1842 C1856 0.960 . S
H1843 C1856 0.961 . S
H1844 C1856 0.959 . S
H1845 C1859 0.929 . S
H1846 C1860 0.931 . S
H1847 C1862 0.930 . S
C1848 H1836 0.930 . S
C1848 C1849 1.399 . S
C1848 C1853 1.399 . S
C1849 C1848 1.399 . S
C1849 C1850 1.376 . S
C1850 H1837 0.930 . S
C1850 C1849 1.376 . S
C1850 C1851 1.388 . S
C1851 H1838 0.930 . S
C1851 C1850 1.388 . S
C1851 C1852 1.390 . S
C1852 C1851 1.390 . S
C1852 C1853 1.394 . S
C1852 C1858 1.465 . S
C1853 C1848 1.399 . S
C1853 C1852 1.394 . S
C1853 C1854 1.516 . S
C1854 C1853 1.516 . S
C1854 C1855 1.502 . S
C1854 C1856 1.561 . S
C1854 C1857 1.526 . S
C1855 H1839 0.959 . S
C1855 H1840 0.959 . S
C1855 H1841 0.961 . S
C1855 C1854 1.502 . S
C1856 H1842 0.960 . S
C1856 H1843 0.961 . S
C1856 H1844 0.959 . S
C1856 C1854 1.561 . S
C1857 C1854 1.526 . S
C1857 C1858 1.396 . S
C1857 C1862 1.390 . S
C1858 C1852 1.465 . S
C1858 C1857 1.396 . S
C1858 C1859 1.399 . S
C1859 H1845 0.929 . S
C1859 C1858 1.399 . S
C1859 C1860 1.385 . S
C1860 H1846 0.931 . S
C1860 C1859 1.385 . S
C1860 C1861 1.389 . S
C1861 C1860 1.389 . S
C1861 C1862 1.387 . S
C1862 H1847 0.930 . S
C1862 C1857 1.390 . S
C1862 C1861 1.387 . S
H1863 C1875 0.930 . S
H1864 C1877 0.930 . S
H1865 C1878 0.930 . S
H1866 C1882 0.959 . S
H1867 C1882 0.959 . S
H1868 C1882 0.961 . S
H1869 C1883 0.960 . S
H1870 C1883 0.961 . S
H1871 C1883 0.959 . S
H1872 C1886 0.929 . S
H1873 C1887 0.931 . S
H1874 C1889 0.930 . S
C1875 H1863 0.930 . S
C1875 C1876 1.399 . S
C1875 C1880 1.399 . S
C1876 C1875 1.399 . S
C1876 C1877 1.376 . S
C1877 H1864 0.930 . S
C1877 C1876 1.376 . S
C1877 C1878 1.388 . S
C1878 H1865 0.930 . S
C1878 C1877 1.388 . S
C1878 C1879 1.390 . S
C1879 C1878 1.390 . S
C1879 C1880 1.394 . S
C1879 C1885 1.465 . S
C1880 C1875 1.399 . S
C1880 C1879 1.394 . S
C1880 C1881 1.516 . S
C1881 C1880 1.516 . S
C1881 C1882 1.502 . S
C1881 C1883 1.561 . S
C1881 C1884 1.526 . S
C1882 H1866 0.959 . S
C1882 H1867 0.959 . S
C1882 H1868 0.961 . S
C1882 C1881 1.502 . S
C1883 H1869 0.960 . S
C1883 H1870 0.961 . S
C1883 H1871 0.959 . S
C1883 C1881 1.561 . S
C1884 C1881 1.526 . S
C1884 C1885 1.396 . S
C1884 C1889 1.390 . S
C1885 C1879 1.465 . S
C1885 C1884 1.396 . S
C1885 C1886 1.399 . S
C1886 H1872 0.929 . S
C1886 C1885 1.399 . S
C1886 C1887 1.385 . S
C1887 H1873 0.931 . S
C1887 C1886 1.385 . S
C1887 C1888 1.389 . S
C1888 C1887 1.389 . S
C1888 C1889 1.387 . S
C1889 H1874 0.930 . S
C1889 C1884 1.390 . S
C1889 C1888 1.387 . S
H1890 C1902 0.930 . S
H1891 C1904 0.930 . S
H1892 C1905 0.930 . S
H1893 C1909 0.959 . S
H1894 C1909 0.959 . S
H1895 C1909 0.961 . S
H1896 C1910 0.960 . S
H1897 C1910 0.961 . S
H1898 C1910 0.959 . S
H1899 C1913 0.929 . S
H1900 C1914 0.931 . S
H1901 C1916 0.930 . S
C1902 H1890 0.930 . S
C1902 C1903 1.399 . S
C1902 C1907 1.399 . S
C1903 C1902 1.399 . S
C1903 C1904 1.376 . S
C1904 H1891 0.930 . S
C1904 C1903 1.376 . S
C1904 C1905 1.388 . S
C1905 H1892 0.930 . S
C1905 C1904 1.388 . S
C1905 C1906 1.390 . S
C1906 C1905 1.390 . S
C1906 C1907 1.394 . S
C1906 C1912 1.465 . S
C1907 C1902 1.399 . S
C1907 C1906 1.394 . S
C1907 C1908 1.516 . S
C1908 C1907 1.516 . S
C1908 C1909 1.502 . S
C1908 C1910 1.561 . S
C1908 C1911 1.526 . S
C1909 H1893 0.959 . S
C1909 H1894 0.959 . S
C1909 H1895 0.961 . S
C1909 C1908 1.502 . S
C1910 H1896 0.960 . S
C1910 H1897 0.961 . S
C1910 H1898 0.959 . S
C1910 C1908 1.561 . S
C1911 C1908 1.526 . S
C1911 C1912 1.396 . S
C1911 C1916 1.390 . S
C1912 C1906 1.465 . S
C1912 C1911 1.396 . S
C1912 C1913 1.399 . S
C1913 H1899 0.929 . S
C1913 C1912 1.399 . S
C1913 C1914 1.385 . S
C1914 H1900 0.931 . S
C1914 C1913 1.385 . S
C1914 C1915 1.389 . S
C1915 C1914 1.389 . S
C1915 C1916 1.387 . S
C1916 H1901 0.930 . S
C1916 C1911 1.390 . S
C1916 C1915 1.387 . S
H1917 C1929 0.930 . S
H1918 C1931 0.930 . S
H1919 C1932 0.930 . S
H1920 C1936 0.959 . S
H1921 C1936 0.959 . S
H1922 C1936 0.961 . S
H1923 C1937 0.960 . S
H1924 C1937 0.961 . S
H1925 C1937 0.959 . S
H1926 C1940 0.929 . S
H1927 C1941 0.931 . S
H1928 C1943 0.930 . S
C1929 H1917 0.930 . S
C1929 C1930 1.399 . S
C1929 C1934 1.399 . S
C1930 C1929 1.399 . S
C1930 C1931 1.376 . S
C1931 H1918 0.930 . S
C1931 C1930 1.376 . S
C1931 C1932 1.388 . S
C1932 H1919 0.930 . S
C1932 C1931 1.388 . S
C1932 C1933 1.390 . S
C1933 C1932 1.390 . S
C1933 C1934 1.394 . S
C1933 C1939 1.465 . S
C1934 C1929 1.399 . S
C1934 C1933 1.394 . S
C1934 C1935 1.516 . S
C1935 C1934 1.516 . S
C1935 C1936 1.502 . S
C1935 C1937 1.561 . S
C1935 C1938 1.526 . S
C1936 H1920 0.959 . S
C1936 H1921 0.959 . S
C1936 H1922 0.961 . S
C1936 C1935 1.502 . S
C1937 H1923 0.960 . S
C1937 H1924 0.961 . S
C1937 H1925 0.959 . S
C1937 C1935 1.561 . S
C1938 C1935 1.526 . S
C1938 C1939 1.396 . S
C1938 C1943 1.390 . S
C1939 C1933 1.465 . S
C1939 C1938 1.396 . S
C1939 C1940 1.399 . S
C1940 H1926 0.929 . S
C1940 C1939 1.399 . S
C1940 C1941 1.385 . S
C1941 H1927 0.931 . S
C1941 C1940 1.385 . S
C1941 C1942 1.389 . S
C1942 C1941 1.389 . S
C1942 C1943 1.387 . S
C1943 H1928 0.930 . S
C1943 C1938 1.390 . S
C1943 C1942 1.387 . S
H1944 C1956 0.930 . S
H1945 C1958 0.930 . S
H1946 C1959 0.930 . S
H1947 C1963 0.959 . S
H1948 C1963 0.959 . S
H1949 C1963 0.961 . S
H1950 C1964 0.960 . S
H1951 C1964 0.961 . S
H1952 C1964 0.959 . S
H1953 C1967 0.929 . S
H1954 C1968 0.931 . S
H1955 C1970 0.930 . S
C1956 H1944 0.930 . S
C1956 C1957 1.399 . S
C1956 C1961 1.399 . S
C1957 C1956 1.399 . S
C1957 C1958 1.376 . S
C1958 H1945 0.930 . S
C1958 C1957 1.376 . S
C1958 C1959 1.388 . S
C1959 H1946 0.930 . S
C1959 C1958 1.388 . S
C1959 C1960 1.390 . S
C1960 C1959 1.390 . S
C1960 C1961 1.394 . S
C1960 C1966 1.465 . S
C1961 C1956 1.399 . S
C1961 C1960 1.394 . S
C1961 C1962 1.516 . S
C1962 C1961 1.516 . S
C1962 C1963 1.502 . S
C1962 C1964 1.561 . S
C1962 C1965 1.526 . S
C1963 H1947 0.959 . S
C1963 H1948 0.959 . S
C1963 H1949 0.961 . S
C1963 C1962 1.502 . S
C1964 H1950 0.960 . S
C1964 H1951 0.961 . S
C1964 H1952 0.959 . S
C1964 C1962 1.561 . S
C1965 C1962 1.526 . S
C1965 C1966 1.396 . S
C1965 C1970 1.390 . S
C1966 C1960 1.465 . S
C1966 C1965 1.396 . S
C1966 C1967 1.399 . S
C1967 H1953 0.929 . S
C1967 C1966 1.399 . S
C1967 C1968 1.385 . S
C1968 H1954 0.931 . S
C1968 C1967 1.385 . S
C1968 C1969 1.389 . S
C1969 C1968 1.389 . S
C1969 C1970 1.387 . S
C1970 H1955 0.930 . S
C1970 C1965 1.390 . S
C1970 C1969 1.387 . S
H1971 C1983 0.930 . S
H1972 C1985 0.930 . S
H1973 C1986 0.930 . S
H1974 C1990 0.959 . S
H1975 C1990 0.959 . S
H1976 C1990 0.961 . S
H1977 C1991 0.960 . S
H1978 C1991 0.961 . S
H1979 C1991 0.959 . S
H1980 C1994 0.929 . S
H1981 C1995 0.931 . S
H1982 C1997 0.930 . S
C1983 H1971 0.930 . S
C1983 C1984 1.399 . S
C1983 C1988 1.399 . S
C1984 C1983 1.399 . S
C1984 C1985 1.376 . S
C1985 H1972 0.930 . S
C1985 C1984 1.376 . S
C1985 C1986 1.388 . S
C1986 H1973 0.930 . S
C1986 C1985 1.388 . S
C1986 C1987 1.390 . S
C1987 C1986 1.390 . S
C1987 C1988 1.394 . S
C1987 C1993 1.465 . S
C1988 C1983 1.399 . S
C1988 C1987 1.394 . S
C1988 C1989 1.516 . S
C1989 C1988 1.516 . S
C1989 C1990 1.502 . S
C1989 C1991 1.561 . S
C1989 C1992 1.526 . S
C1990 H1974 0.959 . S
C1990 H1975 0.959 . S
C1990 H1976 0.961 . S
C1990 C1989 1.502 . S
C1991 H1977 0.960 . S
C1991 H1978 0.961 . S
C1991 H1979 0.959 . S
C1991 C1989 1.561 . S
C1992 C1989 1.526 . S
C1992 C1993 1.396 . S
C1992 C1997 1.390 . S
C1993 C1987 1.465 . S
C1993 C1992 1.396 . S
C1993 C1994 1.399 . S
C1994 H1980 0.929 . S
C1994 C1993 1.399 . S
C1994 C1995 1.385 . S
C1995 H1981 0.931 . S
C1995 C1994 1.385 . S
C1995 C1996 1.389 . S
C1996 C1995 1.389 . S
C1996 C1997 1.387 . S
C1997 H1982 0.930 . S
C1997 C1992 1.390 . S
C1997 C1996 1.387 . S
H1998 C2010 0.930 . S
H1999 C2012 0.930 . S
H2000 C2013 0.930 . S
H2001 C2017 0.959 . S
H2002 C2017 0.959 . S
H2003 C2017 0.961 . S
H2004 C2018 0.960 . S
H2005 C2018 0.961 . S
H2006 C2018 0.959 . S
H2007 C2021 0.929 . S
H2008 C2022 0.931 . S
H2009 C2024 0.930 . S
C2010 H1998 0.930 . S
C2010 C2011 1.399 . S
C2010 C2015 1.399 . S
C2011 C2010 1.399 . S
C2011 C2012 1.376 . S
C2012 H1999 0.930 . S
C2012 C2011 1.376 . S
C2012 C2013 1.388 . S
C2013 H2000 0.930 . S
C2013 C2012 1.388 . S
C2013 C2014 1.390 . S
C2014 C2013 1.390 . S
C2014 C2015 1.394 . S
C2014 C2020 1.465 . S
C2015 C2010 1.399 . S
C2015 C2014 1.394 . S
C2015 C2016 1.516 . S
C2016 C2015 1.516 . S
C2016 C2017 1.502 . S
C2016 C2018 1.561 . S
C2016 C2019 1.526 . S
C2017 H2001 0.959 . S
C2017 H2002 0.959 . S
C2017 H2003 0.961 . S
C2017 C2016 1.502 . S
C2018 H2004 0.960 . S
C2018 H2005 0.961 . S
C2018 H2006 0.959 . S
C2018 C2016 1.561 . S
C2019 C2016 1.526 . S
C2019 C2020 1.396 . S
C2019 C2024 1.390 . S
C2020 C2014 1.465 . S
C2020 C2019 1.396 . S
C2020 C2021 1.399 . S
C2021 H2007 0.929 . S
C2021 C2020 1.399 . S
C2021 C2022 1.385 . S
C2022 H2008 0.931 . S
C2022 C2021 1.385 . S
C2022 C2023 1.389 . S
C2023 C2022 1.389 . S
C2023 C2024 1.387 . S
C2024 H2009 0.930 . S
C2024 C2019 1.390 . S
C2024 C2023 1.387 . S
H2025 C2037 0.930 . S
H2026 C2039 0.930 . S
H2027 C2040 0.930 . S
H2028 C2044 0.959 . S
H2029 C2044 0.959 . S
H2030 C2044 0.961 . S
H2031 C2045 0.960 . S
H2032 C2045 0.961 . S
H2033 C2045 0.959 . S
H2034 C2048 0.929 . S
H2035 C2049 0.931 . S
H2036 C2051 0.930 . S
C2037 H2025 0.930 . S
C2037 C2038 1.399 . S
C2037 C2042 1.399 . S
C2038 C2037 1.399 . S
C2038 C2039 1.376 . S
C2039 H2026 0.930 . S
C2039 C2038 1.376 . S
C2039 C2040 1.388 . S
C2040 H2027 0.930 . S
C2040 C2039 1.388 . S
C2040 C2041 1.390 . S
C2041 C2040 1.390 . S
C2041 C2042 1.394 . S
C2041 C2047 1.465 . S
C2042 C2037 1.399 . S
C2042 C2041 1.394 . S
C2042 C2043 1.516 . S
C2043 C2042 1.516 . S
C2043 C2044 1.502 . S
C2043 C2045 1.561 . S
C2043 C2046 1.526 . S
C2044 H2028 0.959 . S
C2044 H2029 0.959 . S
C2044 H2030 0.961 . S
C2044 C2043 1.502 . S
C2045 H2031 0.960 . S
C2045 H2032 0.961 . S
C2045 H2033 0.959 . S
C2045 C2043 1.561 . S
C2046 C2043 1.526 . S
C2046 C2047 1.396 . S
C2046 C2051 1.390 . S
C2047 C2041 1.465 . S
C2047 C2046 1.396 . S
C2047 C2048 1.399 . S
C2048 H2034 0.929 . S
C2048 C2047 1.399 . S
C2048 C2049 1.385 . S
C2049 H2035 0.931 . S
C2049 C2048 1.385 . S
C2049 C2050 1.389 . S
C2050 C2049 1.389 . S
C2050 C2051 1.387 . S
C2051 H2036 0.930 . S
C2051 C2046 1.390 . S
C2051 C2050 1.387 . S
H2052 C2064 0.930 . S
H2053 C2066 0.930 . S
H2054 C2067 0.930 . S
H2055 C2071 0.959 . S
H2056 C2071 0.959 . S
H2057 C2071 0.961 . S
H2058 C2072 0.960 . S
H2059 C2072 0.961 . S
H2060 C2072 0.959 . S
H2061 C2075 0.929 . S
H2062 C2076 0.931 . S
H2063 C2078 0.930 . S
C2064 H2052 0.930 . S
C2064 C2065 1.399 . S
C2064 C2069 1.399 . S
C2065 C2064 1.399 . S
C2065 C2066 1.376 . S
C2066 H2053 0.930 . S
C2066 C2065 1.376 . S
C2066 C2067 1.388 . S
C2067 H2054 0.930 . S
C2067 C2066 1.388 . S
C2067 C2068 1.390 . S
C2068 C2067 1.390 . S
C2068 C2069 1.394 . S
C2068 C2074 1.465 . S
C2069 C2064 1.399 . S
C2069 C2068 1.394 . S
C2069 C2070 1.516 . S
C2070 C2069 1.516 . S
C2070 C2071 1.502 . S
C2070 C2072 1.561 . S
C2070 C2073 1.526 . S
C2071 H2055 0.959 . S
C2071 H2056 0.959 . S
C2071 H2057 0.961 . S
C2071 C2070 1.502 . S
C2072 H2058 0.960 . S
C2072 H2059 0.961 . S
C2072 H2060 0.959 . S
C2072 C2070 1.561 . S
C2073 C2070 1.526 . S
C2073 C2074 1.396 . S
C2073 C2078 1.390 . S
C2074 C2068 1.465 . S
C2074 C2073 1.396 . S
C2074 C2075 1.399 . S
C2075 H2061 0.929 . S
C2075 C2074 1.399 . S
C2075 C2076 1.385 . S
C2076 H2062 0.931 . S
C2076 C2075 1.385 . S
C2076 C2077 1.389 . S
C2077 C2076 1.389 . S
C2077 C2078 1.387 . S
C2078 H2063 0.930 . S
C2078 C2073 1.390 . S
C2078 C2077 1.387 . S
H2079 C2091 0.930 . S
H2080 C2093 0.930 . S
H2081 C2094 0.930 . S
H2082 C2098 0.959 . S
H2083 C2098 0.959 . S
H2084 C2098 0.961 . S
H2085 C2099 0.960 . S
H2086 C2099 0.961 . S
H2087 C2099 0.959 . S
H2088 C2102 0.929 . S
H2089 C2103 0.931 . S
H2090 C2105 0.930 . S
C2091 H2079 0.930 . S
C2091 C2092 1.399 . S
C2091 C2096 1.399 . S
C2092 C2091 1.399 . S
C2092 C2093 1.376 . S
C2093 H2080 0.930 . S
C2093 C2092 1.376 . S
C2093 C2094 1.388 . S
C2094 H2081 0.930 . S
C2094 C2093 1.388 . S
C2094 C2095 1.390 . S
C2095 C2094 1.390 . S
C2095 C2096 1.394 . S
C2095 C2101 1.465 . S
C2096 C2091 1.399 . S
C2096 C2095 1.394 . S
C2096 C2097 1.516 . S
C2097 C2096 1.516 . S
C2097 C2098 1.502 . S
C2097 C2099 1.561 . S
C2097 C2100 1.526 . S
C2098 H2082 0.959 . S
C2098 H2083 0.959 . S
C2098 H2084 0.961 . S
C2098 C2097 1.502 . S
C2099 H2085 0.960 . S
C2099 H2086 0.961 . S
C2099 H2087 0.959 . S
C2099 C2097 1.561 . S
C2100 C2097 1.526 . S
C2100 C2101 1.396 . S
C2100 C2105 1.390 . S
C2101 C2095 1.465 . S
C2101 C2100 1.396 . S
C2101 C2102 1.399 . S
C2102 H2088 0.929 . S
C2102 C2101 1.399 . S
C2102 C2103 1.385 . S
C2103 H2089 0.931 . S
C2103 C2102 1.385 . S
C2103 C2104 1.389 . S
C2104 C2103 1.389 . S
C2104 C2105 1.387 . S
C2105 H2090 0.930 . S
C2105 C2100 1.390 . S
C2105 C2104 1.387 . S
C985 C664 1.346 . S
C997 C16 1.252 . S
C1012 C97 1.231 . S
C1024 C745 1.349 . S
C1039 C826 1.198 . S
C1051 C178 1.257 . S
C1066 C259 1.301 . S
C1078 C907 1.307 . S
C1093 C340 1.312 . S
C1105 C502 1.241 . S
C1120 C583 1.227 . S
C1132 C421 1.172 . S
C1147 C604 3.155 . S
C1159 C37 3.140 . S
C1174 C685 3.143 . S
C1186 C118 3.133 . S
C1201 C766 3.148 . S
C1213 C199 3.173 . S
C1228 C280 3.177 . S
C1240 C847 3.143 . S
C1255 C361 3.169 . S
C1267 C928 3.149 . S
C1282 C523 3.155 . S
C1294 C442 3.176 . S
C1309 C423 2.043 . S
C1321 C52 1.791 . S
C1336 C133 1.848 . S
C1348 C18 2.019 . S
C1363 C99 2.008 . S
C1375 C214 1.807 . S
C1390 C180 2.014 . S
C1402 C295 1.840 . S
C1417 C261 2.034 . S
C1429 C376 1.788 . S
C1444 C457 1.797 . S
C1456 C342 2.046 . S
C1471 C585 2.001 . S
C1483 C538 1.768 . S
C1498 C666 2.060 . S
C1510 C619 1.864 . S
C1525 C747 2.057 . S
C1537 C700 1.884 . S
C1552 C828 2.022 . S
C1564 C781 1.851 . S
C1579 C862 1.874 . S
C1591 C909 2.058 . S
C1606 C504 2.041 . S
C1618 C943 1.885 . S
C1633 C34 1.234 . S
C1645 C617 1.309 . S
C1660 C115 1.313 . S
C1672 C698 1.288 . S
C1687 C779 1.395 . S
C1699 C196 1.264 . S
C1714 C860 1.255 . S
C1726 C277 1.226 . S
C1741 C358 1.322 . S
C1753 C941 1.275 . S
C1768 C536 1.387 . S
C1780 C439 1.285 . S
C1795 C520 1.243 . S
C1807 C455 1.303 . S
C1822 C601 1.259 . S
C1834 C50 1.355 . S
C1849 C131 1.252 . S
C1861 C682 1.315 . S
C1876 C763 1.292 . S
C1888 C212 1.257 . S
C1903 C293 1.358 . S
C1915 C844 1.327 . S
C1930 C374 1.347 . S
C1942 C925 1.195 . S
C1957 C707 0.530 . S
C1969 C59 0.562 . S
C1984 C140 0.801 . S
C1996 C788 0.735 . S
C2011 C869 0.547 . S
C2023 C221 0.535 . S
C2038 C302 0.767 . S
C2050 C950 0.607 . S
C2065 C383 0.785 . S
C2077 C545 0.661 . S
C2092 C626 0.628 . S
C2104 C464 0.514 . S
