# Generated by pormake.
# Topology umv, (4)-cn, num edge types: 1
# Building blocks:
#     Node 0, Type 0, BuildingBlock: QUQFOY_clean_sbu_3, # of connection points: 4
#     Node 1, Type 0, BuildingBlock: QUQFOY_clean_sbu_3, # of connection points: 4
#     Node 2, Type 0, BuildingBlock: QUQFOY_clean_sbu_3, # of connection points: 4
#     Node 3, Type 0, BuildingBlock: QUQFOY_clean_sbu_3, # of connection points: 4
#     Node 4, Type 0, BuildingBlock: QUQFOY_clean_sbu_3, # of connection points: 4
#     Node 5, Type 0, BuildingBlock: QUQFOY_clean_sbu_3, # of connection points: 4
#     Node 6, Type 0, BuildingBlock: QUQFOY_clean_sbu_3, # of connection points: 4
#     Node 7, Type 0, BuildingBlock: QUQFOY_clean_sbu_3, # of connection points: 4
#     Node 8, Type 0, BuildingBlock: QUQFOY_clean_sbu_3, # of connection points: 4
#     Node 9, Type 0, BuildingBlock: QUQFOY_clean_sbu_3, # of connection points: 4
#     Node 10, Type 0, BuildingBlock: QUQFOY_clean_sbu_3, # of connection points: 4
#     Node 11, Type 0, BuildingBlock: QUQFOY_clean_sbu_3, # of connection points: 4
#     Node 12, Type 0, BuildingBlock: QUQFOY_clean_sbu_3, # of connection points: 4
#     Node 13, Type 0, BuildingBlock: QUQFOY_clean_sbu_3, # of connection points: 4
#     Node 14, Type 0, BuildingBlock: QUQFOY_clean_sbu_3, # of connection points: 4
#     Node 15, Type 0, BuildingBlock: QUQFOY_clean_sbu_3, # of connection points: 4
#     Node 16, Type 0, BuildingBlock: QUQFOY_clean_sbu_3, # of connection points: 4
#     Node 17, Type 0, BuildingBlock: QUQFOY_clean_sbu_3, # of connection points: 4
#     Node 18, Type 0, BuildingBlock: QUQFOY_clean_sbu_3, # of connection points: 4
#     Node 19, Type 0, BuildingBlock: QUQFOY_clean_sbu_3, # of connection points: 4
#     Node 20, Type 0, BuildingBlock: QUQFOY_clean_sbu_3, # of connection points: 4
#     Node 21, Type 0, BuildingBlock: QUQFOY_clean_sbu_3, # of connection points: 4
#     Node 22, Type 0, BuildingBlock: QUQFOY_clean_sbu_3, # of connection points: 4
#     Node 23, Type 0, BuildingBlock: QUQFOY_clean_sbu_3, # of connection points: 4
#     Node 24, Type 0, BuildingBlock: QUQFOY_clean_sbu_3, # of connection points: 4
#     Node 25, Type 0, BuildingBlock: QUQFOY_clean_sbu_3, # of connection points: 4
#     Node 26, Type 0, BuildingBlock: QUQFOY_clean_sbu_3, # of connection points: 4
#     Node 27, Type 0, BuildingBlock: QUQFOY_clean_sbu_3, # of connection points: 4
#     Node 28, Type 0, BuildingBlock: QUQFOY_clean_sbu_3, # of connection points: 4
#     Node 29, Type 0, BuildingBlock: QUQFOY_clean_sbu_3, # of connection points: 4
#     Node 30, Type 0, BuildingBlock: QUQFOY_clean_sbu_3, # of connection points: 4
#     Node 31, Type 0, BuildingBlock: QUQFOY_clean_sbu_3, # of connection points: 4
#     Edge 32, Type (0, 0), BuildingBlock: ZUJKAS_clean_linker_0, # of connection points: 2
#     Edge 33, Type (0, 0), BuildingBlock: ZUJKAS_clean_linker_0, # of connection points: 2
#     Edge 34, Type (0, 0), BuildingBlock: ZUJKAS_clean_linker_0, # of connection points: 2
#     Edge 35, Type (0, 0), BuildingBlock: ZUJKAS_clean_linker_0, # of connection points: 2
#     Edge 36, Type (0, 0), BuildingBlock: ZUJKAS_clean_linker_0, # of connection points: 2
#     Edge 37, Type (0, 0), BuildingBlock: ZUJKAS_clean_linker_0, # of connection points: 2
#     Edge 38, Type (0, 0), BuildingBlock: ZUJKAS_clean_linker_0, # of connection points: 2
#     Edge 39, Type (0, 0), BuildingBlock: ZUJKAS_clean_linker_0, # of connection points: 2
#     Edge 40, Type (0, 0), BuildingBlock: ZUJKAS_clean_linker_0, # of connection points: 2
#     Edge 41, Type (0, 0), BuildingBlock: ZUJKAS_clean_linker_0, # of connection points: 2
#     Edge 42, Type (0, 0), BuildingBlock: ZUJKAS_clean_linker_0, # of connection points: 2
#     Edge 43, Type (0, 0), BuildingBlock: ZUJKAS_clean_linker_0, # of connection points: 2
#     Edge 44, Type (0, 0), BuildingBlock: ZUJKAS_clean_linker_0, # of connection points: 2
#     Edge 45, Type (0, 0), BuildingBlock: ZUJKAS_clean_linker_0, # of connection points: 2
#     Edge 46, Type (0, 0), BuildingBlock: ZUJKAS_clean_linker_0, # of connection points: 2
#     Edge 47, Type (0, 0), BuildingBlock: ZUJKAS_clean_linker_0, # of connection points: 2
#     Edge 48, Type (0, 0), BuildingBlock: ZUJKAS_clean_linker_0, # of connection points: 2
#     Edge 49, Type (0, 0), BuildingBlock: ZUJKAS_clean_linker_0, # of connection points: 2
#     Edge 50, Type (0, 0), BuildingBlock: ZUJKAS_clean_linker_0, # of connection points: 2
#     Edge 51, Type (0, 0), BuildingBlock: ZUJKAS_clean_linker_0, # of connection points: 2
#     Edge 52, Type (0, 0), BuildingBlock: ZUJKAS_clean_linker_0, # of connection points: 2
#     Edge 53, Type (0, 0), BuildingBlock: ZUJKAS_clean_linker_0, # of connection points: 2
#     Edge 54, Type (0, 0), BuildingBlock: ZUJKAS_clean_linker_0, # of connection points: 2
#     Edge 55, Type (0, 0), BuildingBlock: ZUJKAS_clean_linker_0, # of connection points: 2
#     Edge 56, Type (0, 0), BuildingBlock: ZUJKAS_clean_linker_0, # of connection points: 2
#     Edge 57, Type (0, 0), BuildingBlock: ZUJKAS_clean_linker_0, # of connection points: 2
#     Edge 58, Type (0, 0), BuildingBlock: ZUJKAS_clean_linker_0, # of connection points: 2
#     Edge 59, Type (0, 0), BuildingBlock: ZUJKAS_clean_linker_0, # of connection points: 2
#     Edge 60, Type (0, 0), BuildingBlock: ZUJKAS_clean_linker_0, # of connection points: 2
#     Edge 61, Type (0, 0), BuildingBlock: ZUJKAS_clean_linker_0, # of connection points: 2
#     Edge 62, Type (0, 0), BuildingBlock: ZUJKAS_clean_linker_0, # of connection points: 2
#     Edge 63, Type (0, 0), BuildingBlock: ZUJKAS_clean_linker_0, # of connection points: 2
#     Edge 64, Type (0, 0), BuildingBlock: ZUJKAS_clean_linker_0, # of connection points: 2
#     Edge 65, Type (0, 0), BuildingBlock: ZUJKAS_clean_linker_0, # of connection points: 2
#     Edge 66, Type (0, 0), BuildingBlock: ZUJKAS_clean_linker_0, # of connection points: 2
#     Edge 67, Type (0, 0), BuildingBlock: ZUJKAS_clean_linker_0, # of connection points: 2
#     Edge 68, Type (0, 0), BuildingBlock: ZUJKAS_clean_linker_0, # of connection points: 2
#     Edge 69, Type (0, 0), BuildingBlock: ZUJKAS_clean_linker_0, # of connection points: 2
#     Edge 70, Type (0, 0), BuildingBlock: ZUJKAS_clean_linker_0, # of connection points: 2
#     Edge 71, Type (0, 0), BuildingBlock: ZUJKAS_clean_linker_0, # of connection points: 2
#     Edge 72, Type (0, 0), BuildingBlock: ZUJKAS_clean_linker_0, # of connection points: 2
#     Edge 73, Type (0, 0), BuildingBlock: ZUJKAS_clean_linker_0, # of connection points: 2
#     Edge 74, Type (0, 0), BuildingBlock: ZUJKAS_clean_linker_0, # of connection points: 2
#     Edge 75, Type (0, 0), BuildingBlock: ZUJKAS_clean_linker_0, # of connection points: 2
#     Edge 76, Type (0, 0), BuildingBlock: ZUJKAS_clean_linker_0, # of connection points: 2
#     Edge 77, Type (0, 0), BuildingBlock: ZUJKAS_clean_linker_0, # of connection points: 2
#     Edge 78, Type (0, 0), BuildingBlock: ZUJKAS_clean_linker_0, # of connection points: 2
#     Edge 79, Type (0, 0), BuildingBlock: ZUJKAS_clean_linker_0, # of connection points: 2
#     Edge 80, Type (0, 0), BuildingBlock: ZUJKAS_clean_linker_0, # of connection points: 2
#     Edge 81, Type (0, 0), BuildingBlock: ZUJKAS_clean_linker_0, # of connection points: 2
#     Edge 82, Type (0, 0), BuildingBlock: ZUJKAS_clean_linker_0, # of connection points: 2
#     Edge 83, Type (0, 0), BuildingBlock: ZUJKAS_clean_linker_0, # of connection points: 2
#     Edge 84, Type (0, 0), BuildingBlock: ZUJKAS_clean_linker_0, # of connection points: 2
#     Edge 85, Type (0, 0), BuildingBlock: ZUJKAS_clean_linker_0, # of connection points: 2
#     Edge 86, Type (0, 0), BuildingBlock: ZUJKAS_clean_linker_0, # of connection points: 2
#     Edge 87, Type (0, 0), BuildingBlock: ZUJKAS_clean_linker_0, # of connection points: 2
#     Edge 88, Type (0, 0), BuildingBlock: ZUJKAS_clean_linker_0, # of connection points: 2
#     Edge 89, Type (0, 0), BuildingBlock: ZUJKAS_clean_linker_0, # of connection points: 2
#     Edge 90, Type (0, 0), BuildingBlock: ZUJKAS_clean_linker_0, # of connection points: 2
#     Edge 91, Type (0, 0), BuildingBlock: ZUJKAS_clean_linker_0, # of connection points: 2
#     Edge 92, Type (0, 0), BuildingBlock: ZUJKAS_clean_linker_0, # of connection points: 2
#     Edge 93, Type (0, 0), BuildingBlock: ZUJKAS_clean_linker_0, # of connection points: 2
#     Edge 94, Type (0, 0), BuildingBlock: ZUJKAS_clean_linker_0, # of connection points: 2
#     Edge 95, Type (0, 0), BuildingBlock: ZUJKAS_clean_linker_0, # of connection points: 2
# Relax obj value: 0.125
# Max RMSD: 0.107
# Mean RMSD: 0.107
data_MOF--net-umv--node1-QUQFOY_clean_sbu_3--edge1-ZUJKAS_clean_linker_0
_symmetry_space_group_name_H-M    P1
_symmetry_Int_Tables_number       1
_symmetry_cell_setting            triclinic
loop_
_symmetry_equiv_pos_as_xyz
'x, y, z'
_cell_length_a     137.77463
_cell_length_b     33.604064
_cell_length_c     79.822899
_cell_angle_alpha  90.007556
_cell_angle_beta   89.983296
_cell_angle_gamma 90.001678
loop_
_atom_site_label
_atom_site_type_symbol
_atom_site_fract_x
_atom_site_fract_y
_atom_site_fract_z
_atom_type_partial_charge
C0 C 0.04544 0.05748 0.33699 0.0
O1 O 0.0492 0.08355 0.34647 0.0
Cd2 Cd 0.05498 0.14584 0.33751 0.0
O3 O 0.04433 0.06388 0.32134 0.0
Cd4 Cd 0.0467 0.12206 0.30229 0.0
C5 C 0.07069 0.11898 0.30533 0.0
O6 O 0.04138 0.16985 0.32259 0.0
O7 O 0.04957 0.19509 0.30239 0.0
O8 O 0.03079 0.10602 0.29154 0.0
C9 C 0.04414 0.20066 0.31499 0.0
O10 O 0.06915 0.13424 0.3197 0.0
C11 C 0.03238 0.1186 0.27682 0.0
O12 O 0.06365 0.10811 0.29608 0.0
O13 O 0.04106 0.12833 0.27337 0.0
C14 C 0.19074 0.17495 0.33766 0.0
O15 O 0.18675 0.15064 0.3477 0.0
Cd16 Cd 0.18461 0.08173 0.34321 0.0
O17 O 0.19371 0.16356 0.32329 0.0
Cd18 Cd 0.19409 0.09888 0.30807 0.0
C19 C 0.16993 0.08366 0.3086 0.0
O20 O 0.20006 0.0644 0.33231 0.0
O21 O 0.19585 0.02591 0.31215 0.0
O22 O 0.20959 0.11842 0.29609 0.0
C23 C 0.19999 0.02983 0.32622 0.0
O24 O 0.17113 0.0739 0.32386 0.0
C25 C 0.20793 0.10361 0.28175 0.0
O26 O 0.17698 0.09708 0.29999 0.0
O27 O 0.19943 0.09038 0.27919 0.0
C28 C 0.04498 0.18268 0.90982 0.0
O29 O 0.04877 0.15653 0.90041 0.0
Cd30 Cd 0.05482 0.09479 0.90949 0.0
O31 O 0.04399 0.17677 0.92553 0.0
Cd32 Cd 0.04673 0.11897 0.9447 0.0
C33 C 0.07071 0.12295 0.94109 0.0
O34 O 0.04131 0.07065 0.9247 0.0
O35 O 0.04967 0.04593 0.94484 0.0
O36 O 0.03096 0.13286 0.95663 0.0
C37 C 0.04411 0.04008 0.93244 0.0
O38 O 0.06917 0.10747 0.92676 0.0
C39 C 0.03317 0.12215 0.97138 0.0
O40 O 0.06366 0.13335 0.95041 0.0
O41 O 0.04205 0.11449 0.97413 0.0
C42 C 0.19052 0.05295 0.91308 0.0
O43 O 0.1865 0.0757 0.90246 0.0
Cd44 Cd 0.18442 0.14514 0.90494 0.0
O45 O 0.19365 0.06655 0.927 0.0
Cd46 Cd 0.19427 0.13364 0.94017 0.0
C47 C 0.17017 0.14853 0.94019 0.0
O48 O 0.19989 0.16465 0.91483 0.0
O49 O 0.19556 0.20587 0.93394 0.0
O50 O 0.21009 0.11668 0.95148 0.0
C51 C 0.19966 0.2001 0.91994 0.0
O52 O 0.17127 0.1558 0.92466 0.0
C53 C 0.20877 0.13396 0.96542 0.0
O54 O 0.17727 0.1364 0.94901 0.0
O55 O 0.20028 0.14701 0.96831 0.0
C56 C 0.94549 0.91897 0.65848 0.0
O57 O 0.94201 0.89216 0.64903 0.0
Cd58 Cd 0.93846 0.82658 0.6578 0.0
O59 O 0.94735 0.91179 0.67385 0.0
Cd60 Cd 0.94655 0.85311 0.69277 0.0
C61 C 0.92251 0.84695 0.6901 0.0
O62 O 0.95286 0.80849 0.6721 0.0
O63 O 0.94568 0.77929 0.69256 0.0
O64 O 0.96201 0.87513 0.70368 0.0
C65 C 0.95109 0.77652 0.67977 0.0
O66 O 0.92419 0.831 0.67592 0.0
C67 C 0.96053 0.86289 0.71849 0.0
O68 O 0.92938 0.86149 0.69883 0.0
O69 O 0.95206 0.85017 0.7218 0.0
C70 C 0.8014 0.81656 0.66026 0.0
O71 O 0.80453 0.84452 0.65102 0.0
Cd72 Cd 0.80585 0.91226 0.65885 0.0
O73 O 0.79879 0.82319 0.67534 0.0
Cd74 Cd 0.79775 0.88299 0.69354 0.0
C75 C 0.82156 0.90244 0.69193 0.0
O76 O 0.79067 0.92323 0.67191 0.0
O77 O 0.79582 0.95642 0.69307 0.0
O78 O 0.78272 0.85776 0.70514 0.0
C79 C 0.79096 0.95597 0.6796 0.0
O80 O 0.81974 0.91772 0.67768 0.0
C81 C 0.78436 0.8702 0.71989 0.0
O82 O 0.81503 0.88398 0.70009 0.0
O83 O 0.7928 0.88372 0.72276 0.0
C84 C 0.94455 0.81364 0.09028 0.0
O85 O 0.94014 0.83896 0.09927 0.0
Cd86 Cd 0.93568 0.90291 0.08985 0.0
O87 O 0.94681 0.82161 0.07514 0.0
Cd88 Cd 0.94554 0.88012 0.05618 0.0
C89 C 0.92148 0.88037 0.05538 0.0
O90 O 0.95029 0.92631 0.0775 0.0
O91 O 0.94341 0.95355 0.05623 0.0
O92 O 0.9618 0.86345 0.04716 0.0
C93 C 0.94838 0.95763 0.06947 0.0
O94 O 0.92233 0.89503 0.07003 0.0
C95 C 0.96063 0.87444 0.03211 0.0
O96 O 0.92891 0.86861 0.04733 0.0
O97 O 0.95208 0.88411 0.0278 0.0
C98 C 0.80005 0.94129 0.08365 0.0
O99 O 0.80528 0.92205 0.09394 0.0
Cd100 Cd 0.81028 0.8553 0.0916 0.0
O101 O 0.79734 0.9256 0.06985 0.0
Cd102 Cd 0.79962 0.85906 0.05652 0.0
C103 C 0.82397 0.85894 0.05566 0.0
O104 O 0.79573 0.82563 0.08224 0.0
O105 O 0.80102 0.78686 0.06296 0.0
O106 O 0.78329 0.86536 0.04543 0.0
C107 C 0.7972 0.79056 0.07731 0.0
O108 O 0.82331 0.85214 0.07129 0.0
C109 C 0.78517 0.84881 0.03152 0.0
O110 O 0.81643 0.8663 0.04699 0.0
O111 O 0.79402 0.84094 0.02857 0.0
C112 C 0.05022 0.56014 0.83791 0.0
O113 O 0.05439 0.58275 0.84841 0.0
Cd114 Cd 0.05968 0.64814 0.84285 0.0
O115 O 0.0487 0.57165 0.8229 0.0
Cd116 Cd 0.0513 0.63418 0.80676 0.0
C117 C 0.07541 0.63215 0.8098 0.0
O118 O 0.04583 0.67521 0.82946 0.0
O119 O 0.05328 0.70716 0.81002 0.0
O120 O 0.03556 0.62073 0.79462 0.0
C121 C 0.04804 0.70826 0.82305 0.0
O122 O 0.0739 0.64364 0.82478 0.0
C123 C 0.03748 0.63565 0.78041 0.0
O124 O 0.06835 0.62301 0.80027 0.0
O125 O 0.04622 0.64605 0.77785 0.0
C126 C 0.19724 0.66832 0.84201 0.0
O127 O 0.19437 0.63831 0.85029 0.0
Cd128 Cd 0.19166 0.57428 0.83905 0.0
O129 O 0.19905 0.66571 0.82636 0.0
Cd130 Cd 0.19928 0.61094 0.80528 0.0
C131 C 0.17533 0.59569 0.8075 0.0
O132 O 0.20627 0.56311 0.8241 0.0
O133 O 0.20019 0.5376 0.80184 0.0
O134 O 0.21444 0.63693 0.79452 0.0
C135 C 0.20529 0.5329 0.81489 0.0
O136 O 0.17724 0.57857 0.82135 0.0
C137 C 0.21261 0.62872 0.77932 0.0
O138 O 0.182 0.61299 0.7992 0.0
O139 O 0.20403 0.61737 0.77602 0.0
C140 C 0.05041 0.67863 0.40942 0.0
O141 O 0.05438 0.65481 0.39917 0.0
Cd142 Cd 0.05899 0.58891 0.40543 0.0
O143 O 0.04866 0.66803 0.42447 0.0
Cd144 Cd 0.05048 0.60619 0.44137 0.0
C145 C 0.07462 0.60528 0.43869 0.0
O146 O 0.04497 0.56411 0.41905 0.0
O147 O 0.0522 0.533 0.43896 0.0
O148 O 0.03466 0.62206 0.45262 0.0
C149 C 0.04708 0.53132 0.4258 0.0
O150 O 0.07307 0.59327 0.42379 0.0
C151 C 0.03627 0.60802 0.46709 0.0
O152 O 0.06759 0.61558 0.44811 0.0
O153 O 0.04491 0.59706 0.47019 0.0
C154 C 0.19802 0.55888 0.41047 0.0
O155 O 0.19517 0.58745 0.40133 0.0
Cd156 Cd 0.19192 0.65258 0.41059 0.0
O157 O 0.19953 0.56373 0.42613 0.0
Cd158 Cd 0.1992 0.62211 0.44557 0.0
C159 C 0.17522 0.63431 0.44201 0.0
O160 O 0.2063 0.66672 0.4256 0.0
O161 O 0.19965 0.69619 0.44642 0.0
O162 O 0.21432 0.59941 0.45764 0.0
C163 C 0.20503 0.69862 0.43358 0.0
O164 O 0.17728 0.64922 0.42777 0.0
C165 C 0.21237 0.61112 0.47238 0.0
O166 O 0.18184 0.61925 0.45115 0.0
O167 O 0.20371 0.6224 0.47505 0.0
C168 C 0.9486 0.43194 0.16228 0.0
O169 O 0.94613 0.40655 0.15133 0.0
Cd170 Cd 0.94052 0.34188 0.15688 0.0
O171 O 0.94851 0.42342 0.17787 0.0
Cd172 Cd 0.94575 0.36181 0.19476 0.0
C173 C 0.92215 0.36003 0.18584 0.0
O174 O 0.95297 0.3182 0.1745 0.0
O175 O 0.94425 0.28825 0.19279 0.0
O176 O 0.96053 0.37959 0.2091 0.0
C177 C 0.95018 0.28569 0.18072 0.0
O178 O 0.92503 0.34845 0.17147 0.0
C179 C 0.95805 0.36543 0.22319 0.0
O180 O 0.92822 0.36976 0.19715 0.0
O181 O 0.94931 0.35386 0.2246 0.0
C182 C 0.79172 0.30938 0.15746 0.0
O183 O 0.79497 0.33576 0.14758 0.0
Cd184 Cd 0.80226 0.39583 0.15589 0.0
O185 O 0.79189 0.31426 0.17333 0.0
Cd186 Cd 0.79601 0.37039 0.19275 0.0
C187 C 0.8197 0.36403 0.18442 0.0
O188 O 0.79005 0.42023 0.17391 0.0
O189 O 0.79856 0.44353 0.19413 0.0
O190 O 0.78086 0.35461 0.20644 0.0
C191 C 0.79303 0.45033 0.18178 0.0
O192 O 0.81737 0.37906 0.17033 0.0
C193 C 0.78355 0.36533 0.22094 0.0
O194 O 0.81324 0.35557 0.19526 0.0
O195 O 0.79248 0.3737 0.22274 0.0
C196 C 0.94674 0.30554 0.58677 0.0
O197 O 0.94341 0.33177 0.59665 0.0
Cd198 Cd 0.9391 0.39707 0.58906 0.0
O199 O 0.94822 0.31328 0.57132 0.0
Cd200 Cd 0.94705 0.37426 0.55354 0.0
C201 C 0.92299 0.37809 0.55673 0.0
O202 O 0.95325 0.41795 0.57471 0.0
O203 O 0.94559 0.44785 0.55499 0.0
O204 O 0.96262 0.35672 0.54167 0.0
C205 C 0.95114 0.45028 0.5676 0.0
O206 O 0.92469 0.39184 0.57131 0.0
C207 C 0.96076 0.36989 0.52713 0.0
O208 O 0.92989 0.36609 0.54743 0.0
O209 O 0.95207 0.38066 0.52435 0.0
C210 C 0.80314 0.42667 0.58909 0.0
O211 O 0.80634 0.39939 0.5986 0.0
Cd212 Cd 0.80792 0.33165 0.5915 0.0
O213 O 0.80049 0.41907 0.5741 0.0
Cd214 Cd 0.7993 0.35742 0.55684 0.0
C215 C 0.82324 0.33969 0.55768 0.0
O216 O 0.79251 0.31938 0.57935 0.0
O217 O 0.79735 0.28379 0.5587 0.0
O218 O 0.78404 0.38137 0.54556 0.0
C219 C 0.79264 0.28584 0.57231 0.0
O220 O 0.82171 0.32712 0.57249 0.0
C221 C 0.78544 0.36758 0.53096 0.0
O222 O 0.81641 0.35522 0.54919 0.0
O223 O 0.79385 0.35389 0.52789 0.0
C224 C 0.54996 0.05638 0.83764 0.0
O225 O 0.55436 0.08104 0.84698 0.0
Cd226 Cd 0.55779 0.14759 0.83963 0.0
O227 O 0.54738 0.06591 0.82283 0.0
Cd228 Cd 0.54895 0.12678 0.80529 0.0
C229 C 0.57313 0.13092 0.80653 0.0
O230 O 0.54308 0.16977 0.82714 0.0
O231 O 0.55011 0.20033 0.80682 0.0
O232 O 0.53319 0.1099 0.79391 0.0
C233 C 0.54471 0.20212 0.81965 0.0
O234 O 0.57178 0.14528 0.8211 0.0
C235 C 0.53492 0.12316 0.77934 0.0
O236 O 0.56601 0.11795 0.79797 0.0
O237 O 0.54359 0.13371 0.77631 0.0
C238 C 0.69394 0.18593 0.83672 0.0
O239 O 0.69051 0.16147 0.84729 0.0
Cd240 Cd 0.68789 0.0928 0.84312 0.0
O241 O 0.69636 0.17465 0.82203 0.0
Cd242 Cd 0.69669 0.10923 0.80725 0.0
C243 C 0.67255 0.09626 0.80912 0.0
O244 O 0.70293 0.07399 0.83118 0.0
O245 O 0.69785 0.03627 0.81134 0.0
O246 O 0.71215 0.12644 0.79464 0.0
C247 C 0.7024 0.03947 0.82506 0.0
O248 O 0.67397 0.08715 0.8244 0.0
C249 C 0.71018 0.11131 0.78047 0.0
O250 O 0.67953 0.10818 0.79997 0.0
O251 O 0.70151 0.09973 0.77823 0.0
C252 C 0.55181 0.18074 0.41012 0.0
O253 O 0.55543 0.15699 0.39945 0.0
Cd254 Cd 0.55841 0.08861 0.40386 0.0
O255 O 0.54962 0.16879 0.42482 0.0
Cd256 Cd 0.55021 0.10372 0.43972 0.0
C257 C 0.57428 0.09336 0.43705 0.0
O258 O 0.54369 0.06714 0.41639 0.0
O259 O 0.55019 0.03073 0.43545 0.0
O260 O 0.53477 0.12082 0.45236 0.0
C261 C 0.54494 0.03289 0.42247 0.0
O262 O 0.5726 0.08348 0.42193 0.0
C263 C 0.53662 0.10517 0.46646 0.0
O264 O 0.56745 0.10563 0.44646 0.0
O265 O 0.54523 0.09277 0.46871 0.0
C266 C 0.7007 0.06502 0.41098 0.0
O267 O 0.69737 0.09246 0.40172 0.0
Cd268 Cd 0.6914 0.15383 0.41147 0.0
O269 O 0.70132 0.06953 0.42683 0.0
Cd270 Cd 0.69854 0.12568 0.44679 0.0
C271 C 0.67469 0.12352 0.44148 0.0
O272 O 0.70435 0.17661 0.42831 0.0
O273 O 0.69524 0.19829 0.44806 0.0
O274 O 0.71415 0.11028 0.45885 0.0
C275 C 0.70106 0.20611 0.43622 0.0
O276 O 0.67667 0.14055 0.42763 0.0
C277 C 0.71191 0.12036 0.47367 0.0
O278 O 0.68144 0.11127 0.45108 0.0
O279 O 0.70302 0.12801 0.4764 0.0
C280 C 0.446 0.92217 0.15878 0.0
O281 O 0.44158 0.89533 0.15063 0.0
Cd282 Cd 0.43622 0.83485 0.16226 0.0
O283 O 0.44789 0.91775 0.17433 0.0
Cd284 Cd 0.44589 0.86282 0.19518 0.0
C285 C 0.42188 0.86664 0.19536 0.0
O286 O 0.4505 0.81205 0.17571 0.0
O287 O 0.44279 0.78994 0.19716 0.0
O288 O 0.46227 0.87817 0.20394 0.0
C289 C 0.44809 0.78263 0.18456 0.0
O290 O 0.42279 0.84891 0.18134 0.0
C291 C 0.46108 0.86785 0.21908 0.0
O292 O 0.42932 0.879 0.20325 0.0
O293 O 0.45244 0.8602 0.22361 0.0
C294 C 0.30505 0.79984 0.16355 0.0
O295 O 0.30996 0.82038 0.15322 0.0
Cd296 Cd 0.31219 0.89025 0.15384 0.0
O297 O 0.30119 0.81599 0.1764 0.0
Cd298 Cd 0.30076 0.88469 0.18803 0.0
C299 C 0.32492 0.89933 0.19041 0.0
O300 O 0.29645 0.91274 0.16122 0.0
O301 O 0.29978 0.95579 0.18027 0.0
O302 O 0.28451 0.87158 0.19859 0.0
C303 C 0.29647 0.94867 0.16578 0.0
O304 O 0.32453 0.9046 0.17464 0.0
C305 C 0.28583 0.88891 0.21253 0.0
O306 O 0.31745 0.88813 0.19851 0.0
O307 O 0.29437 0.9009 0.21565 0.0
C308 C 0.44573 0.8098 0.58806 0.0
O309 O 0.44211 0.8343 0.59842 0.0
Cd310 Cd 0.43741 0.89989 0.59193 0.0
O311 O 0.44717 0.81969 0.57282 0.0
Cd312 Cd 0.44536 0.88143 0.55576 0.0
C313 C 0.4213 0.88233 0.55938 0.0
O314 O 0.45116 0.92448 0.57752 0.0
O315 O 0.44336 0.95455 0.55798 0.0
O316 O 0.46109 0.86571 0.54414 0.0
C317 C 0.44875 0.95695 0.57079 0.0
O318 O 0.42307 0.89466 0.57416 0.0
C319 C 0.45931 0.87932 0.52965 0.0
O320 O 0.42818 0.87189 0.54967 0.0
O321 O 0.45063 0.88995 0.52674 0.0
C322 C 0.29613 0.92463 0.58904 0.0
O323 O 0.29921 0.89623 0.59805 0.0
Cd324 Cd 0.30357 0.83271 0.58814 0.0
O325 O 0.29497 0.9203 0.57327 0.0
Cd326 Cd 0.29639 0.86372 0.55309 0.0
C327 C 0.32033 0.85711 0.55729 0.0
O328 O 0.28982 0.81525 0.57201 0.0
O329 O 0.2979 0.79028 0.5516 0.0
O330 O 0.28095 0.88403 0.54161 0.0
C331 C 0.29216 0.78473 0.56377 0.0
O332 O 0.31824 0.84083 0.57125 0.0
C333 C 0.28285 0.87339 0.52672 0.0
O334 O 0.31369 0.87166 0.54803 0.0
O335 O 0.29157 0.86351 0.52367 0.0
C336 C 0.54757 0.56512 0.33921 0.0
O337 O 0.55076 0.59356 0.3481 0.0
Cd338 Cd 0.55453 0.65765 0.33806 0.0
O339 O 0.5461 0.56961 0.32353 0.0
Cd340 Cd 0.54718 0.62691 0.30364 0.0
C341 C 0.57115 0.63616 0.30691 0.0
O342 O 0.54028 0.67403 0.32287 0.0
O343 O 0.54804 0.70069 0.30242 0.0
O344 O 0.53183 0.60642 0.29164 0.0
C345 C 0.54217 0.7049 0.31452 0.0
O346 O 0.56919 0.65247 0.32091 0.0
C347 C 0.53394 0.61664 0.27678 0.0
O348 O 0.56445 0.62072 0.29806 0.0
O349 O 0.54269 0.62659 0.27408 0.0
C350 C 0.69506 0.68613 0.33912 0.0
O351 O 0.69084 0.66356 0.34957 0.0
Cd352 Cd 0.68602 0.59738 0.34434 0.0
O353 O 0.69697 0.67405 0.32433 0.0
Cd354 Cd 0.69519 0.6105 0.30857 0.0
C355 C 0.67102 0.60994 0.30994 0.0
O356 O 0.70011 0.57021 0.33191 0.0
O357 O 0.69312 0.53776 0.31212 0.0
O358 O 0.71134 0.62389 0.29815 0.0
C359 C 0.69794 0.53696 0.32562 0.0
O360 O 0.67232 0.59941 0.3251 0.0
C361 C 0.70995 0.60895 0.28377 0.0
O362 O 0.6782 0.61969 0.30074 0.0
O363 O 0.70132 0.59852 0.28026 0.0
C364 C 0.55081 0.68132 0.91255 0.0
O365 O 0.5558 0.65798 0.9035 0.0
Cd366 Cd 0.55813 0.58947 0.90933 0.0
O367 O 0.5473 0.66969 0.92649 0.0
Cd368 Cd 0.54816 0.60693 0.94268 0.0
C369 C 0.57222 0.59754 0.94408 0.0
O370 O 0.54273 0.5679 0.91917 0.0
O371 O 0.54869 0.53359 0.93943 0.0
O372 O 0.53223 0.62464 0.95318 0.0
C373 C 0.54382 0.53433 0.92597 0.0
O374 O 0.57123 0.58297 0.92948 0.0
C375 C 0.53346 0.60953 0.96758 0.0
O376 O 0.5651 0.61379 0.95157 0.0
O377 O 0.54193 0.59705 0.97099 0.0
C378 C 0.69215 0.5727 0.90868 0.0
O379 O 0.68887 0.6023 0.90059 0.0
Cd380 Cd 0.68771 0.66788 0.91108 0.0
O381 O 0.69499 0.57646 0.92383 0.0
Cd382 Cd 0.69637 0.63266 0.94406 0.0
C383 C 0.67251 0.65146 0.94443 0.0
O384 O 0.70324 0.67598 0.92345 0.0
O385 O 0.69843 0.7064 0.94552 0.0
O386 O 0.71147 0.60393 0.95398 0.0
C387 C 0.70316 0.7076 0.93191 0.0
O388 O 0.67405 0.66884 0.93051 0.0
C389 C 0.71025 0.61418 0.96914 0.0
O390 O 0.67926 0.63242 0.95177 0.0
O391 O 0.70201 0.6286 0.97291 0.0
C392 C 0.44849 0.427 0.66 0.0
O393 O 0.44503 0.39981 0.65073 0.0
Cd394 Cd 0.44022 0.33642 0.66002 0.0
O395 O 0.44975 0.42133 0.67566 0.0
Cd396 Cd 0.44795 0.36338 0.69504 0.0
C397 C 0.42395 0.36074 0.69152 0.0
O398 O 0.45398 0.31553 0.67537 0.0
O399 O 0.44581 0.28981 0.69545 0.0
O400 O 0.46359 0.38093 0.70659 0.0
C401 C 0.45137 0.28455 0.68301 0.0
O402 O 0.42576 0.34515 0.67731 0.0
C403 C 0.46161 0.37023 0.72143 0.0
O404 O 0.4308 0.37365 0.70074 0.0
O405 O 0.45285 0.36085 0.72442 0.0
C406 C 0.30031 0.30716 0.66105 0.0
O407 O 0.30414 0.33074 0.65054 0.0
Cd408 Cd 0.30807 0.39797 0.65545 0.0
O409 O 0.29831 0.31875 0.67588 0.0
Cd410 Cd 0.29957 0.38302 0.69132 0.0
C411 C 0.3237 0.38766 0.68894 0.0
O412 O 0.29374 0.42219 0.66827 0.0
O413 O 0.30092 0.45596 0.68746 0.0
O414 O 0.28377 0.36993 0.70341 0.0
C415 C 0.29565 0.45581 0.67446 0.0
O416 O 0.32217 0.39828 0.67386 0.0
C417 C 0.28575 0.38464 0.71764 0.0
O418 O 0.31671 0.37687 0.69832 0.0
O419 O 0.29453 0.39423 0.72023 0.0
C420 C 0.44558 0.30047 0.08782 0.0
O421 O 0.44198 0.32259 0.0991 0.0
Cd422 Cd 0.43686 0.38893 0.09539 0.0
O423 O 0.44671 0.31327 0.07289 0.0
Cd424 Cd 0.44413 0.3779 0.05826 0.0
C425 C 0.4201 0.3773 0.06358 0.0
O426 O 0.45022 0.41732 0.08109 0.0
O427 O 0.44232 0.45058 0.06264 0.0
O428 O 0.45952 0.36592 0.04459 0.0
C429 C 0.4477 0.45085 0.0755 0.0
O430 O 0.42211 0.38699 0.07861 0.0
C431 C 0.45709 0.38079 0.03061 0.0
O432 O 0.42682 0.36887 0.05322 0.0
O433 O 0.44825 0.39084 0.02895 0.0
C434 C 0.29379 0.42159 0.08998 0.0
O435 O 0.29631 0.39197 0.09882 0.0
Cd436 Cd 0.30072 0.32882 0.08834 0.0
O437 O 0.29311 0.41881 0.07407 0.0
Cd438 Cd 0.29456 0.36366 0.05319 0.0
C439 C 0.31841 0.35463 0.05941 0.0
O440 O 0.28744 0.31322 0.07079 0.0
O441 O 0.29524 0.29057 0.04959 0.0
O442 O 0.27964 0.38642 0.04049 0.0
C443 C 0.2896 0.28368 0.06176 0.0
O444 O 0.31593 0.33747 0.07299 0.0
C445 C 0.2821 0.37783 0.0256 0.0
O446 O 0.31205 0.36997 0.04982 0.0
O447 O 0.2909 0.36792 0.02334 0.0
H448 H 0.0871 0.14382 0.32116 0.0
H449 H 0.10382 0.13595 0.31208 0.0
H450 H 0.0942 0.07618 0.26725 0.0
H451 H 0.07726 0.08367 0.27634 0.0
H452 H 0.1091 0.03641 0.28411 0.0
H453 H 0.11872 0.19437 0.27531 0.0
H454 H 0.11287 0.1869 0.29513 0.0
H455 H 0.10628 0.17733 0.27605 0.0
C456 C 0.08848 0.12919 0.3093 0.0
C457 C 0.08082 0.11441 0.29946 0.0
C458 C 0.09806 0.12507 0.30405 0.0
C459 C 0.10023 0.10631 0.28882 0.0
C460 C 0.09265 0.09123 0.27895 0.0
H461 H 0.1636 0.11255 0.2783 0.0
H462 H 0.14687 0.11322 0.26778 0.0
C463 C 0.083 0.09547 0.28418 0.0
C464 C 0.11051 0.10028 0.28415 0.0
H465 H 0.13201 0.15031 0.28335 0.0
C466 C 0.11411 0.06127 0.28345 0.0
C467 C 0.11701 0.13268 0.28284 0.0
C468 C 0.11349 0.17516 0.28218 0.0
C469 C 0.12413 0.05392 0.28328 0.0
C470 C 0.13064 0.08642 0.28413 0.0
C471 C 0.12702 0.12535 0.28299 0.0
C472 C 0.14093 0.0811 0.28893 0.0
C473 C 0.12764 0.01142 0.283 0.0
C474 C 0.14312 0.06278 0.30425 0.0
C475 C 0.1526 0.0625 0.3103 0.0
C476 C 0.16011 0.08085 0.30122 0.0
C477 C 0.15798 0.09813 0.28559 0.0
C478 C 0.14844 0.09849 0.27954 0.0
H479 H 0.12251 0.99214 0.27595 0.0
H480 H 0.13495 0.00897 0.27725 0.0
H481 H 0.12801 -2e-05 0.29602 0.0
H482 H 0.13742 0.05017 0.31194 0.0
H483 H 0.15398 0.04887 0.32237 0.0
H484 H 0.16382 0.12342 0.97114 0.0
H485 H 0.14703 0.12341 0.98146 0.0
H486 H 0.1377 0.18164 0.93608 0.0
H487 H 0.1543 0.18241 0.92587 0.0
H488 H 0.12838 0.21018 0.96519 0.0
H489 H 0.12768 0.04453 0.96033 0.0
H490 H 0.13662 0.06709 0.97373 0.0
H491 H 0.13743 0.07348 0.95145 0.0
C492 C 0.1582 0.13676 0.96351 0.0
C493 C 0.16037 0.15234 0.94757 0.0
C494 C 0.14862 0.13663 0.9694 0.0
C495 C 0.14113 0.15206 0.95942 0.0
C496 C 0.14338 0.16958 0.94398 0.0
H497 H 0.08727 0.10639 0.92382 0.0
H498 H 0.10395 0.11366 0.93326 0.0
C499 C 0.15289 0.16972 0.9381 0.0
C500 C 0.13078 0.14699 0.96388 0.0
H501 H 0.1128 0.07737 0.96205 0.0
C502 C 0.12495 0.18114 0.96502 0.0
C503 C 0.12638 0.10897 0.96359 0.0
C504 C 0.13229 0.0713 0.96214 0.0
C505 C 0.11479 0.17844 0.96443 0.0
C506 C 0.11042 0.14058 0.96286 0.0
C507 C 0.11623 0.10631 0.96322 0.0
C508 C 0.10017 0.13615 0.9578 0.0
C509 C 0.10884 0.21613 0.96404 0.0
C510 C 0.09251 0.14651 0.96852 0.0
C511 C 0.08288 0.14257 0.9631 0.0
C512 C 0.08082 0.12808 0.94693 0.0
C513 C 0.08856 0.11766 0.93633 0.0
C514 C 0.09812 0.12165 0.94173 0.0
H515 H 0.11344 0.24328 0.96395 0.0
H516 H 0.10411 0.21648 0.95277 0.0
H517 H 0.10407 0.21724 0.97523 0.0
H518 H 0.09396 0.15743 0.98103 0.0
H519 H 0.07708 0.15065 0.9716 0.0
H520 H 0.90707 0.80249 0.68018 0.0
H521 H 0.88995 0.81474 0.68615 0.0
H522 H 0.89776 0.91291 0.71824 0.0
H523 H 0.915 0.90018 0.71266 0.0
H524 H 0.88152 0.86747 0.72998 0.0
H525 H 0.87783 0.91251 0.66348 0.0
H526 H 0.88263 0.86323 0.66593 0.0
H527 H 0.88947 0.90532 0.67335 0.0
C528 C 0.90516 0.82633 0.68871 0.0
C529 C 0.91235 0.85084 0.69573 0.0
C530 C 0.89539 0.83328 0.6921 0.0
C531 C 0.89262 0.86528 0.70231 0.0
C532 C 0.89978 0.88821 0.71024 0.0
H533 H 0.83505 0.95979 0.68628 0.0
H534 H 0.85239 0.95652 0.69248 0.0
C535 C 0.9096 0.88093 0.70702 0.0
C536 C 0.88229 0.87677 0.70332 0.0
H537 H 0.86319 0.90318 0.67866 0.0
C538 C 0.8775 0.87568 0.71883 0.0
C539 C 0.87714 0.88837 0.6888 0.0
C540 C 0.88205 0.89287 0.67198 0.0
C541 C 0.86754 0.88442 0.72007 0.0
C542 C 0.86228 0.89367 0.70534 0.0
C543 C 0.86719 0.89598 0.68997 0.0
C544 C 0.85161 0.89959 0.70513 0.0
C545 C 0.8628 0.88386 0.73709 0.0
C546 C 0.84535 0.86943 0.71075 0.0
C547 C 0.83539 0.87167 0.7075 0.0
C548 C 0.83161 0.90359 0.6982 0.0
C549 C 0.8378 0.9347 0.69335 0.0
C550 C 0.8477 0.93287 0.69692 0.0
H551 H 0.86815 0.8901 0.74716 0.0
H552 H 0.85684 0.90599 0.73792 0.0
H553 H 0.85973 0.85384 0.73943 0.0
H554 H 0.8482 0.84299 0.71673 0.0
H555 H 0.83077 0.84716 0.71127 0.0
H556 H 0.90437 0.90388 0.0692 0.0
H557 H 0.88819 0.89838 0.05738 0.0
H558 H 0.90002 0.84548 0.01257 0.0
H559 H 0.91642 0.85051 0.02445 0.0
H560 H 0.88075 0.92995 0.02614 0.0
H561 H 0.87947 0.76424 0.0302 0.0
H562 H 0.88848 0.79228 0.0416 0.0
H563 H 0.88931 0.7881 0.01925 0.0
C564 C 0.9036 0.89111 0.05682 0.0
C565 C 0.9117 0.87739 0.04783 0.0
C566 C 0.89433 0.88821 0.05003 0.0
C567 C 0.89293 0.87153 0.03413 0.0
C568 C 0.90097 0.85826 0.02491 0.0
H569 H 0.829 0.87816 0.02319 0.0
H570 H 0.84543 0.87845 0.01106 0.0
C571 C 0.91032 0.86116 0.03173 0.0
C572 C 0.88288 0.8667 0.02804 0.0
H573 H 0.86466 0.79818 0.02887 0.0
C574 C 0.87722 0.9011 0.02609 0.0
C575 C 0.87837 0.82894 0.0279 0.0
C576 C 0.88416 0.79112 0.02986 0.0
C577 C 0.86706 0.89903 0.02597 0.0
C578 C 0.86253 0.86152 0.02767 0.0
C579 C 0.86821 0.82685 0.02761 0.0
C580 C 0.85244 0.8584 0.03379 0.0
C581 C 0.86125 0.93712 0.02588 0.0
C582 C 0.85099 0.84647 0.05042 0.0
C583 C 0.84174 0.84634 0.05733 0.0
C584 C 0.83368 0.8581 0.04776 0.0
C585 C 0.83508 0.86914 0.03091 0.0
C586 C 0.84443 0.86934 0.02396 0.0
H587 H 0.86595 0.96392 0.02499 0.0
H588 H 0.8562 0.93709 0.01507 0.0
H589 H 0.85684 0.93927 0.03749 0.0
H590 H 0.8571 0.83816 0.05823 0.0
H591 H 0.84095 0.83738 0.07029 0.0
H592 H 0.09178 0.65614 0.82598 0.0
H593 H 0.10848 0.65071 0.81651 0.0
H594 H 0.09887 0.59727 0.77028 0.0
H595 H 0.08195 0.60231 0.77975 0.0
H596 H 0.11381 0.55554 0.78599 0.0
H597 H 0.12323 0.71471 0.78129 0.0
H598 H 0.11746 0.70413 0.80092 0.0
H599 H 0.11082 0.69734 0.78169 0.0
C600 C 0.09316 0.64346 0.81373 0.0
C601 C 0.08551 0.62965 0.80362 0.0
C602 C 0.10272 0.64076 0.80827 0.0
C603 C 0.10489 0.62441 0.79255 0.0
C604 C 0.09732 0.61048 0.78236 0.0
H605 H 0.16813 0.63192 0.77927 0.0
H606 H 0.15113 0.63561 0.77037 0.0
C607 C 0.08768 0.61332 0.78781 0.0
C608 C 0.11516 0.61931 0.78768 0.0
H609 H 0.13661 0.66976 0.78781 0.0
C610 C 0.11879 0.58055 0.78591 0.0
C611 C 0.12162 0.65196 0.78716 0.0
C612 C 0.11806 0.69439 0.78768 0.0
C613 C 0.12882 0.57342 0.78534 0.0
C614 C 0.1353 0.60586 0.78689 0.0
C615 C 0.13164 0.64481 0.78693 0.0
C616 C 0.14569 0.59999 0.7909 0.0
C617 C 0.13235 0.53111 0.7838 0.0
C618 C 0.14824 0.57893 0.80542 0.0
C619 C 0.15789 0.57684 0.81054 0.0
C620 C 0.16521 0.59615 0.80135 0.0
C621 C 0.16267 0.61672 0.78663 0.0
C622 C 0.15297 0.61878 0.78149 0.0
H623 H 0.12715 0.51276 0.7765 0.0
H624 H 0.13958 0.52965 0.77767 0.0
H625 H 0.13294 0.51781 0.79649 0.0
H626 H 0.14271 0.56522 0.81316 0.0
H627 H 0.15956 0.56082 0.82195 0.0
H628 H 0.08126 0.63233 0.46918 0.0
H629 H 0.09822 0.63702 0.47846 0.0
H630 H 0.10768 0.58798 0.43127 0.0
H631 H 0.09094 0.58275 0.42202 0.0
H632 H 0.11688 0.5545 0.45992 0.0
H633 H 0.11755 0.72045 0.45945 0.0
H634 H 0.10839 0.6958 0.47173 0.0
H635 H 0.108 0.69267 0.44931 0.0
C636 C 0.08696 0.62242 0.46083 0.0
C637 C 0.08474 0.60744 0.44481 0.0
C638 C 0.09663 0.6252 0.46614 0.0
C639 C 0.10417 0.61307 0.45549 0.0
C640 C 0.10195 0.5974 0.43969 0.0
H641 H 0.15948 0.66262 0.42519 0.0
H642 H 0.1425 0.65832 0.43331 0.0
C643 C 0.09235 0.59463 0.43439 0.0
C644 C 0.11449 0.61775 0.46014 0.0
H645 H 0.13246 0.68748 0.46141 0.0
C646 C 0.12031 0.5835 0.46069 0.0
C647 C 0.11887 0.65571 0.46108 0.0
C648 C 0.11293 0.6934 0.4603 0.0
C649 C 0.13047 0.58621 0.46087 0.0
C650 C 0.13486 0.62423 0.46077 0.0
C651 C 0.12903 0.65842 0.46151 0.0
C652 C 0.1453 0.6292 0.457 0.0
C653 C 0.13639 0.5485 0.45979 0.0
C654 C 0.15253 0.61471 0.46777 0.0
C655 C 0.16232 0.61684 0.46308 0.0
C656 C 0.16498 0.63368 0.4476 0.0
C657 C 0.1577 0.64927 0.43715 0.0
C658 C 0.14798 0.64703 0.44181 0.0
H659 H 0.13179 0.52175 0.45777 0.0
H660 H 0.14173 0.55052 0.4494 0.0
H661 H 0.14048 0.54435 0.47163 0.0
H662 H 0.15061 0.60131 0.47965 0.0
H663 H 0.16776 0.60484 0.47146 0.0
H664 H 0.90745 0.35037 0.16346 0.0
H665 H 0.8901 0.34786 0.16906 0.0
H666 H 0.89545 0.36761 0.22164 0.0
H667 H 0.91296 0.37081 0.21611 0.0
H668 H 0.8806 0.29373 0.19017 0.0
H669 H 0.87456 0.45093 0.20994 0.0
H670 H 0.88543 0.43548 0.19908 0.0
H671 H 0.88382 0.42336 0.22079 0.0
C672 C 0.90498 0.35447 0.17623 0.0
C673 C 0.9116 0.3608 0.18935 0.0
C674 C 0.89505 0.35293 0.1794 0.0
C675 C 0.8915 0.35767 0.19573 0.0
C676 C 0.89805 0.3644 0.2089 0.0
H677 H 0.82824 0.35372 0.21518 0.0
H678 H 0.8457 0.34822 0.22117 0.0
C679 C 0.90804 0.36613 0.20572 0.0
C680 C 0.88093 0.35458 0.19867 0.0
H681 H 0.86079 0.41015 0.20726 0.0
C682 C 0.87628 0.31897 0.19419 0.0
C683 C 0.87534 0.38753 0.20399 0.0
C684 C 0.87999 0.42664 0.20865 0.0
C685 C 0.86614 0.3161 0.19404 0.0
C686 C 0.86055 0.34966 0.19845 0.0
C687 C 0.86517 0.38449 0.20394 0.0
C688 C 0.85003 0.35091 0.19516 0.0
C689 C 0.86144 0.27779 0.18847 0.0
C690 C 0.84679 0.35418 0.17859 0.0
C691 C 0.83691 0.35766 0.17514 0.0
C692 C 0.83008 0.35768 0.18822 0.0
C693 C 0.83334 0.35355 0.20484 0.0
C694 C 0.84328 0.35055 0.20829 0.0
H695 H 0.86656 0.25232 0.18908 0.0
H696 H 0.85499 0.271 0.19632 0.0
H697 H 0.85895 0.28102 0.17531 0.0
H698 H 0.85193 0.35475 0.16832 0.0
H699 H 0.83464 0.36067 0.16221 0.0
H700 H 0.91616 0.34568 0.52739 0.0
H701 H 0.89918 0.3396 0.51852 0.0
H702 H 0.88998 0.39787 0.56397 0.0
H703 H 0.90678 0.40449 0.57281 0.0
H704 H 0.88468 0.29907 0.53497 0.0
H705 H 0.87448 0.45705 0.52858 0.0
H706 H 0.88698 0.44082 0.52912 0.0
H707 H 0.88033 0.44836 0.5483 0.0
C708 C 0.91052 0.35761 0.53539 0.0
C709 C 0.91283 0.37558 0.55081 0.0
C710 C 0.90084 0.35415 0.53028 0.0
C711 C 0.89335 0.36901 0.54043 0.0
C712 C 0.89566 0.38717 0.55573 0.0
H713 H 0.83907 0.30436 0.57169 0.0
H714 H 0.85582 0.30807 0.5623 0.0
C715 C 0.90528 0.39057 0.56085 0.0
C716 C 0.88304 0.36282 0.53599 0.0
H717 H 0.86135 0.4115 0.53582 0.0
C718 C 0.87958 0.32367 0.5347 0.0
C719 C 0.87642 0.3949 0.53521 0.0
C720 C 0.87977 0.43764 0.53519 0.0
C721 C 0.8696 0.31569 0.5343 0.0
C722 C 0.86296 0.34767 0.53554 0.0
C723 C 0.86644 0.38691 0.53515 0.0
C724 C 0.85261 0.34123 0.53971 0.0
C725 C 0.86626 0.27303 0.53325 0.0
C726 C 0.84522 0.35903 0.53022 0.0
C727 C 0.83557 0.3573 0.53568 0.0
C728 C 0.83321 0.33814 0.55082 0.0
C729 C 0.84062 0.31937 0.55998 0.0
C730 C 0.85021 0.32107 0.55453 0.0
H731 H 0.87153 0.25466 0.5261 0.0
H732 H 0.86578 0.26046 0.54608 0.0
H733 H 0.85902 0.27061 0.52721 0.0
H734 H 0.84694 0.37511 0.51885 0.0
H735 H 0.83003 0.3721 0.52834 0.0
H736 H 0.66634 0.11584 0.77743 0.0
H737 H 0.64955 0.11753 0.76724 0.0
H738 H 0.63953 0.07514 0.81523 0.0
H739 H 0.65615 0.07262 0.82537 0.0
H740 H 0.6301 0.03945 0.78794 0.0
H741 H 0.63084 0.20502 0.78304 0.0
H742 H 0.63965 0.17727 0.77122 0.0
H743 H 0.64028 0.17775 0.79367 0.0
C744 C 0.66056 0.10651 0.78574 0.0
C745 C 0.66258 0.09454 0.80229 0.0
C746 C 0.65098 0.1076 0.77991 0.0
C747 C 0.64331 0.09693 0.79056 0.0
C748 C 0.64536 0.08348 0.8068 0.0
H749 H 0.58956 0.15931 0.82112 0.0
H750 H 0.60621 0.15088 0.8118 0.0
C751 C 0.65488 0.08226 0.81261 0.0
C752 C 0.63305 0.10206 0.78559 0.0
H753 H 0.6157 0.17394 0.78198 0.0
C754 C 0.62693 0.06871 0.78617 0.0
C755 C 0.629 0.14035 0.7833 0.0
C756 C 0.63523 0.17729 0.78283 0.0
C757 C 0.6168 0.07291 0.78596 0.0
C758 C 0.61275 0.11147 0.78486 0.0
C759 C 0.61887 0.14446 0.7828 0.0
C760 C 0.60247 0.1189 0.78917 0.0
C761 C 0.61054 0.0365 0.78838 0.0
C762 C 0.59482 0.10423 0.77936 0.0
C763 C 0.5852 0.10881 0.78474 0.0
C764 C 0.58315 0.12819 0.79997 0.0
C765 C 0.59086 0.14399 0.80939 0.0
C766 C 0.6004 0.13938 0.80404 0.0
H767 H 0.6149 0.00927 0.79072 0.0
H768 H 0.60551 0.04093 0.79909 0.0
H769 H 0.60609 0.03154 0.77698 0.0
H770 H 0.59629 0.08874 0.76774 0.0
H771 H 0.57942 0.09652 0.77715 0.0
H772 H 0.65878 0.15105 0.42492 0.0
H773 H 0.64182 0.14363 0.4327 0.0
H774 H 0.65012 0.0782 0.4769 0.0
H775 H 0.66728 0.08526 0.46914 0.0
H776 H 0.63534 0.04187 0.45807 0.0
H777 H 0.62665 0.19977 0.47 0.0
H778 H 0.63282 0.1936 0.45037 0.0
H779 H 0.63896 0.18123 0.4696 0.0
C780 C 0.65705 0.13521 0.43635 0.0
C781 C 0.6644 0.11879 0.44642 0.0
C782 C 0.64734 0.13133 0.44086 0.0
C783 C 0.64474 0.11116 0.45556 0.0
C784 C 0.65201 0.09434 0.46562 0.0
H785 H 0.58131 0.11945 0.46734 0.0
H786 H 0.59826 0.11925 0.47676 0.0
C787 C 0.66179 0.09834 0.46114 0.0
C788 C 0.63435 0.10577 0.45953 0.0
H789 H 0.61317 0.15801 0.46118 0.0
C790 C 0.63049 0.06716 0.45921 0.0
C791 C 0.62806 0.13871 0.46139 0.0
C792 C 0.63185 0.18063 0.46305 0.0
C793 C 0.62043 0.06093 0.45908 0.0
C794 C 0.61414 0.09419 0.459 0.0
C795 C 0.618 0.13252 0.46098 0.0
C796 C 0.60377 0.09048 0.45445 0.0
C797 C 0.61664 0.01886 0.45832 0.0
C798 C 0.60129 0.07459 0.43878 0.0
C799 C 0.59169 0.07483 0.43335 0.0
C800 C 0.58434 0.09125 0.44344 0.0
C801 C 0.5868 0.10654 0.45929 0.0
C802 C 0.59646 0.10638 0.46471 0.0
H803 H 0.6217 -0.0021 0.46459 0.0
H804 H 0.60938 0.01634 0.46428 0.0
H805 H 0.61601 0.0096 0.44502 0.0
H806 H 0.60685 0.06319 0.43046 0.0
H807 H 0.59007 0.06281 0.42108 0.0
H808 H 0.32989 0.87792 0.22255 0.0
H809 H 0.34609 0.8811 0.23529 0.0
H810 H 0.35727 0.93545 0.19028 0.0
H811 H 0.34127 0.93301 0.1777 0.0
H812 H 0.36146 0.8418 0.22355 0.0
H813 H 0.37107 0.00031 0.22506 0.0
H814 H 0.35864 0.9837 0.22315 0.0
H815 H 0.36621 0.98896 0.20482 0.0
C816 C 0.33577 0.89136 0.21555 0.0
C817 C 0.33431 0.90493 0.19906 0.0
C818 C 0.345 0.89324 0.22286 0.0
C819 C 0.35286 0.90923 0.21387 0.0
C820 C 0.35129 0.9241 0.19768 0.0
H821 H 0.40491 0.83771 0.18299 0.0
H822 H 0.38863 0.84777 0.19376 0.0
C823 C 0.34213 0.92214 0.19039 0.0
C824 C 0.36296 0.90513 0.21996 0.0
H825 H 0.38458 0.95419 0.21798 0.0
C826 C 0.36649 0.86661 0.22295 0.0
C827 C 0.36953 0.93747 0.21967 0.0
C828 C 0.36611 0.97995 0.21819 0.0
C829 C 0.37648 0.85903 0.22344 0.0
C830 C 0.38304 0.89064 0.22054 0.0
C831 C 0.37954 0.92978 0.21978 0.0
C832 C 0.39314 0.88294 0.21512 0.0
C833 C 0.37991 0.81682 0.2259 0.0
C834 C 0.40109 0.90034 0.2233 0.0
C835 C 0.4105 0.89484 0.21705 0.0
C836 C 0.41205 0.87234 0.2024 0.0
C837 C 0.40402 0.85513 0.1943 0.0
C838 C 0.39469 0.86049 0.20056 0.0
H839 H 0.37482 0.80006 0.23408 0.0
H840 H 0.38013 0.80149 0.21359 0.0
H841 H 0.38728 0.81586 0.23153 0.0
H842 H 0.40001 0.91829 0.23441 0.0
H843 H 0.41653 0.90857 0.22355 0.0
H844 H 0.33607 0.82979 0.5744 0.0
H845 H 0.35306 0.83402 0.56638 0.0
H846 H 0.34508 0.89172 0.52013 0.0
H847 H 0.3279 0.88816 0.52818 0.0
H848 H 0.36281 0.80409 0.53781 0.0
H849 H 0.36437 0.96961 0.54232 0.0
H850 H 0.35438 0.94146 0.55085 0.0
H851 H 0.35544 0.948 0.52862 0.0
C852 C 0.33787 0.84338 0.56249 0.0
C853 C 0.33061 0.85897 0.552 0.0
C854 C 0.3476 0.84556 0.55789 0.0
C855 C 0.35031 0.86337 0.54273 0.0
C856 C 0.34312 0.87825 0.53199 0.0
H857 H 0.41424 0.85633 0.52901 0.0
H858 H 0.39716 0.85262 0.5203 0.0
C859 C 0.33332 0.87615 0.5366 0.0
C860 C 0.36076 0.86753 0.53888 0.0
H861 H 0.37911 0.93557 0.53992 0.0
C862 C 0.3664 0.83283 0.53784 0.0
C863 C 0.36535 0.90513 0.53896 0.0
C864 C 0.35963 0.94329 0.54033 0.0
C865 C 0.37657 0.83461 0.53812 0.0
C866 C 0.38116 0.87213 0.53924 0.0
C867 C 0.37552 0.90691 0.53901 0.0
C868 C 0.39153 0.87571 0.54367 0.0
C869 C 0.38231 0.79638 0.53854 0.0
C870 C 0.39397 0.89043 0.55953 0.0
C871 C 0.40363 0.89264 0.56451 0.0
C872 C 0.41109 0.88022 0.5537 0.0
C873 C 0.40865 0.86595 0.53766 0.0
C874 C 0.39892 0.86374 0.53267 0.0
H875 H 0.37756 0.7697 0.53924 0.0
H876 H 0.38681 0.7941 0.52705 0.0
H877 H 0.38729 0.79621 0.54948 0.0
H878 H 0.38835 0.89967 0.56822 0.0
H879 H 0.40521 0.9039 0.57693 0.0
H880 H 0.65478 0.58077 0.32484 0.0
H881 H 0.63818 0.58382 0.3148 0.0
H882 H 0.64774 0.64334 0.26986 0.0
H883 H 0.66458 0.64066 0.27994 0.0
H884 H 0.63236 0.68128 0.28586 0.0
H885 H 0.6241 0.52177 0.2783 0.0
H886 H 0.6297 0.53083 0.29821 0.0
H887 H 0.63639 0.54049 0.27923 0.0
C888 C 0.65342 0.59425 0.31274 0.0
C889 C 0.66102 0.61058 0.30321 0.0
C890 C 0.64391 0.59556 0.30693 0.0
C891 C 0.64176 0.61302 0.29143 0.0
C892 C 0.64929 0.62924 0.28177 0.0
H893 H 0.57842 0.6021 0.27822 0.0
H894 H 0.59545 0.59948 0.26927 0.0
C895 C 0.65889 0.62775 0.28755 0.0
C896 C 0.63148 0.61727 0.28644 0.0
H897 H 0.61038 0.56432 0.28595 0.0
C898 C 0.62756 0.65571 0.28537 0.0
C899 C 0.62524 0.58393 0.28541 0.0
C900 C 0.6291 0.54194 0.28516 0.0
C901 C 0.61749 0.66168 0.28507 0.0
C902 C 0.61125 0.62838 0.28617 0.0
C903 C 0.61517 0.5899 0.28543 0.0
C904 C 0.60086 0.63271 0.29052 0.0
C905 C 0.61365 0.70367 0.28436 0.0
C906 C 0.5983 0.65181 0.30551 0.0
C907 C 0.58865 0.65324 0.31067 0.0
C908 C 0.58133 0.63527 0.30102 0.0
C909 C 0.58389 0.61628 0.28593 0.0
C910 C 0.59359 0.61484 0.28077 0.0
H911 H 0.6187 0.72343 0.27741 0.0
H912 H 0.6064 0.70489 0.2783 0.0
H913 H 0.61299 0.7155 0.2973 0.0
H914 H 0.60382 0.66474 0.31349 0.0
H915 H 0.58697 0.668 0.32238 0.0
H916 H 0.66468 0.59809 0.96657 0.0
H917 H 0.64741 0.58906 0.97289 0.0
H918 H 0.64056 0.69348 0.94383 0.0
H919 H 0.65772 0.70228 0.93716 0.0
H920 H 0.63129 0.63835 0.98587 0.0
H921 H 0.62812 0.59778 0.91863 0.0
H922 H 0.63966 0.60183 0.92913 0.0
H923 H 0.6334 0.64586 0.92229 0.0
C924 C 0.65952 0.61964 0.96185 0.0
C925 C 0.66251 0.65042 0.95108 0.0
C926 C 0.64966 0.61449 0.96552 0.0
C927 C 0.64274 0.64024 0.95858 0.0
C928 C 0.64581 0.67301 0.94909 0.0
H929 H 0.58032 0.65484 0.96395 0.0
H930 H 0.59759 0.6617 0.97077 0.0
C931 C 0.65561 0.67792 0.94527 0.0
C932 C 0.63232 0.63 0.95919 0.0
H933 H 0.6135 0.60436 0.93377 0.0
C934 C 0.62736 0.63067 0.97455 0.0
C935 C 0.62732 0.61925 0.94441 0.0
C936 C 0.6324 0.61572 0.9277 0.0
C937 C 0.61739 0.62185 0.9754 0.0
C938 C 0.61232 0.61271 0.96048 0.0
C939 C 0.61738 0.61136 0.94523 0.0
C940 C 0.60173 0.60508 0.95994 0.0
C941 C 0.61242 0.62199 0.99223 0.0
C942 C 0.5983 0.57074 0.95187 0.0
C943 C 0.58854 0.56732 0.94759 0.0
C944 C 0.58199 0.59789 0.95156 0.0
C945 C 0.58524 0.63076 0.96086 0.0
C946 C 0.59509 0.63457 0.96486 0.0
H947 H 0.61769 0.6174 0.00259 0.0
H948 H 0.60887 0.65128 0.99418 0.0
H949 H 0.60676 0.59853 0.99293 0.0
H950 H 0.60329 0.54759 0.94798 0.0
H951 H 0.58618 0.54152 0.94054 0.0
H952 H 0.33995 0.41197 0.6725 0.0
H953 H 0.35667 0.40893 0.68211 0.0
H954 H 0.34721 0.36071 0.72945 0.0
H955 H 0.33029 0.36315 0.71982 0.0
H956 H 0.36574 0.4436 0.71069 0.0
H957 H 0.36673 0.27762 0.71096 0.0
H958 H 0.35712 0.30474 0.7007 0.0
H959 H 0.35754 0.30233 0.72314 0.0
C960 C 0.34137 0.4008 0.68499 0.0
C961 C 0.33378 0.38743 0.69533 0.0
C962 C 0.35094 0.39931 0.69049 0.0
C963 C 0.35316 0.38439 0.70643 0.0
C964 C 0.34563 0.37196 0.71703 0.0
H965 H 0.41694 0.39133 0.72114 0.0
H966 H 0.39989 0.39637 0.72984 0.0
C967 C 0.33598 0.37344 0.71152 0.0
C968 C 0.36347 0.38027 0.71117 0.0
H969 H 0.38158 0.31115 0.71241 0.0
C970 C 0.36922 0.41472 0.71155 0.0
C971 C 0.36793 0.34247 0.71224 0.0
C972 C 0.36207 0.30453 0.71169 0.0
C973 C 0.37939 0.41233 0.71159 0.0
C974 C 0.38385 0.37446 0.71148 0.0
C975 C 0.37809 0.3401 0.71251 0.0
C976 C 0.39421 0.36969 0.7072 0.0
C977 C 0.38526 0.45013 0.71033 0.0
C978 C 0.39662 0.35244 0.69177 0.0
C979 C 0.40627 0.34944 0.6868 0.0
C980 C 0.41375 0.36364 0.69717 0.0
C981 C 0.41134 0.38036 0.71281 0.0
C982 C 0.40162 0.38331 0.7178 0.0
H983 H 0.38061 0.4769 0.70884 0.0
H984 H 0.38967 0.45384 0.72185 0.0
H985 H 0.39032 0.44848 0.69952 0.0
H986 H 0.39099 0.34189 0.68339 0.0
H987 H 0.40784 0.33626 0.67471 0.0
H988 H 0.33369 0.32561 0.0773 0.0
H989 H 0.35088 0.33039 0.07065 0.0
H990 H 0.3441 0.39226 0.0248 0.0
H991 H 0.32674 0.38812 0.03145 0.0
H992 H 0.36124 0.30269 0.04219 0.0
H993 H 0.36301 0.46752 0.04964 0.0
H994 H 0.35281 0.43883 0.05709 0.0
H995 H 0.35428 0.4478 0.03508 0.0
C996 C 0.3358 0.34023 0.06577 0.0
C997 C 0.32883 0.35677 0.05497 0.0
C998 C 0.34565 0.34276 0.06196 0.0
C999 C 0.34875 0.36189 0.04731 0.0
C1000 C 0.34184 0.37778 0.03628 0.0
H1001 H 0.41258 0.35486 0.03307 0.0
H1002 H 0.39538 0.35237 0.02503 0.0
C1003 C 0.33194 0.37532 0.04009 0.0
C1004 C 0.35927 0.36604 0.0442 0.0
H1005 H 0.37773 0.43345 0.04666 0.0
C1006 C 0.36487 0.3313 0.04279 0.0
C1007 C 0.36393 0.40347 0.04505 0.0
C1008 C 0.35825 0.44164 0.04689 0.0
C1009 C 0.37504 0.33279 0.04323 0.0
C1010 C 0.37968 0.37006 0.04493 0.0
C1011 C 0.3741 0.40498 0.04529 0.0
C1012 C 0.39011 0.37299 0.04904 0.0
C1013 C 0.38072 0.2944 0.04306 0.0
C1014 C 0.39278 0.38594 0.06507 0.0
C1015 C 0.40251 0.3874 0.06969 0.0
C1016 C 0.40981 0.37603 0.05833 0.0
C1017 C 0.40713 0.36362 0.04213 0.0
C1018 C 0.39733 0.36212 0.03752 0.0
H1019 H 0.37594 0.26781 0.0435 0.0
H1020 H 0.38515 0.29284 0.03146 0.0
H1021 H 0.38577 0.29332 0.0539 0.0
H1022 H 0.3873 0.39437 0.07414 0.0
H1023 H 0.40429 0.39728 0.08223 0.0
H1024 H 0.01323 0.10035 0.28064 0.0
H1025 H -0.00024 0.14141 0.27086 0.0
H1026 H 0.01956 0.21004 0.24057 0.0
H1027 H 0.03301 0.16869 0.24998 0.0
H1028 H 0.00022 0.22006 0.27965 0.0
H1029 H 0.9958 0.20585 0.21091 0.0
H1030 H 0.00223 0.16934 0.22326 0.0
H1031 H 0.00814 0.21474 0.21703 0.0
C1032 C 0.01465 0.12301 0.2713 0.0
C1033 C 0.0242 0.13171 0.26628 0.0
C1034 C 0.00695 0.14663 0.26583 0.0
C1035 C 0.00868 0.17902 0.25516 0.0
C1036 C 0.01804 0.18496 0.24868 0.0
H1037 H 0.97721 0.38569 0.22322 0.0
H1038 H 0.99018 0.34407 0.23442 0.0
C1039 C 0.02574 0.16118 0.25406 0.0
C1040 C 0.00116 0.21001 0.253 0.0
H1041 H 0.98878 0.26339 0.22368 0.0
C1042 C -0.00236 0.22929 0.26741 0.0
C1043 C -0.0021 0.22225 0.23705 0.0
C1044 C 0.00115 0.20171 0.22119 0.0
C1045 C 0.99104 0.26094 0.26627 0.0
C1046 C 0.98787 0.27339 0.25032 0.0
C1047 C 0.99135 0.25403 0.23591 0.0
C1048 C 0.98054 0.30499 0.24807 0.0
C1049 C 0.98763 0.28129 0.28206 0.0
C1050 C 0.97091 0.29838 0.25305 0.0
C1051 C 0.96347 0.32229 0.24675 0.0
C1052 C 0.96558 0.35262 0.23517 0.0
C1053 C 0.97534 0.36227 0.23197 0.0
C1054 C 0.98277 0.3384 0.23829 0.0
H1055 H 0.99248 0.27479 0.29284 0.0
H1056 H 0.98725 0.31402 0.28026 0.0
H1057 H 0.98024 0.27055 0.28523 0.0
H1058 H 0.96904 0.27258 0.26052 0.0
H1059 H 0.95603 0.31415 0.24949 0.0
H1060 H 0.22715 0.12073 0.28574 0.0
H1061 H 0.24057 0.08597 0.27225 0.0
H1062 H 0.22048 0.02801 0.23878 0.0
H1063 H 0.20696 0.06233 0.25234 0.0
H1064 H 0.2313 0.97581 0.25853 0.0
H1065 H 0.25525 0.0866 0.22778 0.0
H1066 H 0.25198 0.09932 0.24888 0.0
H1067 H 0.24275 0.09709 0.233 0.0
C1068 C 0.2256 0.10178 0.27509 0.0
C1069 C 0.21598 0.09382 0.27026 0.0
C1070 C 0.2333 0.08195 0.26737 0.0
C1071 C 0.23149 0.05428 0.25459 0.0
C1072 C 0.22199 0.04919 0.24867 0.0
H1073 H 0.2666 0.87458 0.20699 0.0
H1074 H 0.25304 0.91145 0.21906 0.0
C1075 C 0.21429 0.06901 0.25638 0.0
C1076 C 0.23923 0.02655 0.24928 0.0
H1077 H 0.26197 0.02222 0.23257 0.0
C1078 C 0.23797 0.98586 0.2527 0.0
C1079 C 0.24796 0.0399 0.24191 0.0
C1080 C 0.24956 0.08307 0.23753 0.0
C1081 C 0.2453 0.95814 0.24916 0.0
C1082 C 0.25403 0.97149 0.24182 0.0
C1083 C 0.25528 0.01217 0.23835 0.0
C1084 C 0.26185 0.94378 0.2369 0.0
C1085 C 0.24371 0.91499 0.25361 0.0
C1086 C 0.27125 0.94882 0.24332 0.0
C1087 C 0.27903 0.92781 0.23643 0.0
C1088 C 0.27752 0.90176 0.2229 0.0
C1089 C 0.26799 0.8944 0.21742 0.0
C1090 C 0.26022 0.91544 0.22432 0.0
H1091 H 0.23791 0.91142 0.26317 0.0
H1092 H 0.24146 0.89846 0.24222 0.0
H1093 H 0.25049 0.90126 0.25843 0.0
H1094 H 0.27263 0.97053 0.25307 0.0
H1095 H 0.28628 0.9341 0.24094 0.0
H1096 H 0.01364 0.13276 0.96835 0.0
H1097 H 0.00135 0.08923 0.98052 0.0
H1098 H 0.02308 0.03526 0.01204 0.0
H1099 H 0.03542 0.07887 6e-05 0.0
H1100 H 0.00479 0.00649 0.97481 0.0
H1101 H -0.00127 0.03957 0.04227 0.0
H1102 H 0.00352 0.076 0.02782 0.0
H1103 H 0.0112 0.03714 0.03571 0.0
C1104 C 0.01574 0.11288 0.9784 0.0
C1105 C 0.02553 0.10867 0.98302 0.0
C1106 C 0.00871 0.08788 0.98527 0.0
C1107 C 0.01135 0.05877 0.99698 0.0
C1108 C 0.02089 0.05772 0.00307 0.0
H1109 H 0.97973 0.85997 0.03873 0.0
H1110 H 0.99332 0.89869 0.02779 0.0
C1111 C 0.02794 0.08278 0.99622 0.0
C1112 C 0.00464 0.02564 0.00059 0.0
H1113 H 0.99206 0.97966 0.03178 0.0
C1114 C 0.00197 0.00064 0.98725 0.0
C1115 C 0.00115 0.0178 0.01686 0.0
C1116 C 0.00372 0.04414 0.0315 0.0
C1117 C 0.99581 0.96799 0.98976 0.0
C1118 C 0.99214 0.96061 0.00597 0.0
C1119 C 0.99495 0.98524 0.01936 0.0
C1120 C 0.98474 0.92973 0.00924 0.0
C1121 C 0.99336 0.94156 0.97507 0.0
C1122 C 0.97558 0.93259 0.00167 0.0
C1123 C 0.96781 0.91024 0.00779 0.0
C1124 C 0.96909 0.88529 0.02175 0.0
C1125 C 0.9785 0.8792 0.02804 0.0
C1126 C 0.98627 0.90145 0.02188 0.0
H1127 H -0.00096 0.94314 0.9652 0.0
H1128 H 0.99251 0.91008 0.97903 0.0
H1129 H 0.98642 0.95162 0.96945 0.0
H1130 H 0.97422 0.95455 0.99203 0.0
H1131 H 0.96065 0.91558 0.00266 0.0
H1132 H 0.22797 0.11851 0.96 0.0
H1133 H 0.24148 0.15869 0.97033 0.0
H1134 H 0.22195 0.22151 0.00326 0.0
H1135 H 0.20845 0.18124 0.99321 0.0
H1136 H 0.2408 0.23964 0.9643 0.0
H1137 H 0.24614 0.21072 0.03198 0.0
H1138 H 0.23977 0.17651 0.01843 0.0
H1139 H 0.23367 0.21963 0.02668 0.0
C1140 C 0.22662 0.13974 0.96995 0.0
C1141 C 0.21712 0.14716 0.97561 0.0
C1142 C 0.23434 0.16284 0.97575 0.0
C1143 C 0.23269 0.19327 0.98743 0.0
C1144 C 0.2234 0.19792 0.99436 0.0
H1145 H 0.26276 0.3947 0.02703 0.0
H1146 H 0.25014 0.35367 0.01433 0.0
C1147 C 0.21568 0.17482 0.98858 0.0
C1148 C 0.24021 0.22382 0.99047 0.0
H1149 H 0.25258 0.27185 0.02138 0.0
C1150 C 0.24347 0.24645 0.97676 0.0
C1151 C 0.24361 0.23274 0.00671 0.0
C1152 C 0.24069 0.20836 0.02177 0.0
C1153 C 0.24986 0.27856 0.97895 0.0
C1154 C 0.25307 0.28799 0.99525 0.0
C1155 C 0.24994 0.26492 0.00891 0.0
C1156 C 0.26004 0.32047 0.99861 0.0
C1157 C 0.25293 0.30269 0.96393 0.0
C1158 C 0.26965 0.31736 0.99297 0.0
C1159 C 0.27688 0.3411 9e-05 0.0
C1160 C 0.27458 0.36757 0.01317 0.0
C1161 C 0.26477 0.37427 0.01711 0.0
C1162 C 0.25755 0.35066 0.00995 0.0
H1163 H 0.248 0.29797 0.95309 0.0
H1164 H 0.25311 0.33493 0.96698 0.0
H1165 H 0.26035 0.29358 0.96011 0.0
H1166 H 0.27172 0.29408 0.9843 0.0
H1167 H 0.28437 0.33529 0.99672 0.0
H1168 H 0.97942 0.8852 0.71434 0.0
H1169 H 0.99341 0.84947 0.72565 0.0
H1170 H 0.97448 0.78248 0.75813 0.0
H1171 H 0.96047 0.81832 0.74708 0.0
H1172 H 0.9935 0.79937 0.77165 0.0
H1173 H 0.9944 0.73302 0.70778 0.0
H1174 H 0.99534 0.78632 0.70864 0.0
H1175 H 0.98432 0.76242 0.71522 0.0
C1176 C 0.97827 0.86399 0.72436 0.0
C1177 C 0.96883 0.85382 0.72953 0.0
C1178 C 0.98626 0.8434 0.7307 0.0
C1179 C 0.98489 0.81248 0.74224 0.0
C1180 C 0.97564 0.80591 0.74902 0.0
H1181 H 0.01818 0.61898 0.78323 0.0
H1182 H 0.00502 0.65954 0.77189 0.0
C1183 C 0.96764 0.82661 0.74275 0.0
C1184 C 0.99274 0.78371 0.74557 0.0
H1185 H 0.00623 0.71065 0.72696 0.0
C1186 C 0.99631 0.78003 0.76191 0.0
C1187 C 0.99629 0.75831 0.73278 0.0
C1188 C 0.99236 0.75982 0.71513 0.0
C1189 C 0.00346 0.75184 0.7658 0.0
C1190 C 0.00696 0.72633 0.75303 0.0
C1191 C 0.00346 0.73019 0.73667 0.0
C1192 C 0.01443 0.69605 0.75659 0.0
C1193 C 0.00731 0.74982 0.78348 0.0
C1194 C 0.02391 0.70126 0.75062 0.0
C1195 C 0.03145 0.67791 0.75696 0.0
C1196 C 0.02956 0.64929 0.7694 0.0
C1197 C 0.01988 0.64111 0.7738 0.0
C1198 C 0.01236 0.66441 0.76744 0.0
H1199 H 0.00536 0.77669 0.79086 0.0
H1200 H 0.00418 0.72346 0.78988 0.0
H1201 H 0.01533 0.74657 0.78348 0.0
H1202 H 0.02559 0.72531 0.74206 0.0
H1203 H 0.03882 0.68479 0.75324 0.0
H1204 H 0.7085 0.06661 0.75203 0.0
H1205 H 0.72125 0.02406 0.74054 0.0
H1206 H 0.7423 0.08072 0.77258 0.0
H1207 H 0.72965 0.12366 0.78406 0.0
H1208 H 0.74943 0.05603 0.74001 0.0
H1209 H 0.72991 0.93676 0.77473 0.0
H1210 H 0.72284 0.96369 0.75958 0.0
H1211 H 0.72736 0.98893 0.77781 0.0
C1212 C 0.7159 0.07115 0.75617 0.0
C1213 C 0.71803 0.09779 0.76926 0.0
C1214 C 0.72315 0.04653 0.7497 0.0
C1215 C 0.7326 0.04844 0.75618 0.0
C1216 C 0.735 0.07848 0.76763 0.0
H1217 H 0.78509 0.91029 0.74963 0.0
H1218 H 0.77178 0.95001 0.76096 0.0
C1219 C 0.72776 0.10313 0.77411 0.0
C1220 C 0.73964 0.01639 0.75271 0.0
H1221 H 0.744 0.91773 0.75992 0.0
C1222 C 0.74826 0.0258 0.74433 0.0
C1223 C 0.73807 0.9771 0.75855 0.0
C1224 C 0.72909 0.96588 0.7683 0.0
C1225 C 0.75534 -0.00332 0.74137 0.0
C1226 C 0.7538 0.95745 0.74728 0.0
C1227 C 0.74515 0.94795 0.75558 0.0
C1228 C 0.76099 0.9258 0.74416 0.0
C1229 C 0.76436 0.00791 0.7317 0.0
C1230 C 0.75906 0.8966 0.73209 0.0
C1231 C 0.76663 0.87359 0.72566 0.0
C1232 C 0.77621 0.87989 0.73117 0.0
C1233 C 0.77782 0.9051 0.74496 0.0
C1234 C 0.77024 0.92808 0.75137 0.0
H1235 H 0.76356 0.03707 0.72529 0.0
H1236 H 0.77059 0.00999 0.74047 0.0
H1237 H 0.7661 0.98489 0.72218 0.0
H1238 H 0.7519 0.89412 0.72656 0.0
H1239 H 0.76513 0.85406 0.71518 0.0
H1240 H 0.72907 0.59276 0.9633 0.0
H1241 H 0.74319 0.62559 0.97553 0.0
H1242 H 0.72468 0.68376 0.01159 0.0
H1243 H 0.71059 0.6506 -0.00032 0.0
H1244 H 0.74318 0.70667 0.97249 0.0
H1245 H 0.74904 0.66525 0.03884 0.0
H1246 H 0.7421 0.63464 0.0246 0.0
H1247 H 0.73661 0.67722 0.03445 0.0
C1248 C 0.72805 0.61104 0.97434 0.0
C1249 C 0.71869 0.6198 0.98029 0.0
C1250 C 0.73613 0.62995 0.98126 0.0
C1251 C 0.73496 0.65746 0.99432 0.0
C1252 C 0.72578 0.66237 0.00162 0.0
H1253 H 0.76565 0.85577 0.03633 0.0
H1254 H 0.75323 0.81122 0.02514 0.0
C1255 C 0.7177 0.64336 0.99475 0.0
C1256 C 0.74278 0.68627 0.9981 0.0
H1257 H 0.75567 0.72799 0.03002 0.0
C1258 C 0.74603 0.71094 0.98502 0.0
C1259 C 0.74638 0.6921 0.01447 0.0
C1260 C 0.74342 0.66563 0.02886 0.0
C1261 C 0.75258 0.74206 0.98799 0.0
C1262 C 0.75603 0.74835 0.00441 0.0
C1263 C 0.75292 0.72329 0.01744 0.0
C1264 C 0.76302 0.78023 0.00845 0.0
C1265 C 0.75554 0.76872 0.97365 0.0
C1266 C 0.77251 0.77875 0.00212 0.0
C1267 C 0.77962 0.80435 0.0084 0.0
C1268 C 0.77734 0.83143 0.02125 0.0
C1269 C 0.76764 0.83515 0.02648 0.0
C1270 C 0.76054 0.80956 0.02019 0.0
H1271 H 0.75052 0.76591 0.96281 0.0
H1272 H 0.75574 0.80034 0.97767 0.0
H1273 H 0.76292 0.76031 0.96939 0.0
H1274 H 0.77457 0.75607 0.99316 0.0
H1275 H 0.78703 0.8007 0.00414 0.0
H1276 H 0.21155 0.59267 0.7487 0.0
H1277 H 0.22464 0.55319 0.73648 0.0
H1278 H 0.2449 0.60409 0.77156 0.0
H1279 H 0.2319 0.64384 0.78386 0.0
H1280 H 0.25257 0.58202 0.7376 0.0
H1281 H 0.23235 0.46289 0.77129 0.0
H1282 H 0.22551 0.49181 0.75646 0.0
H1283 H 0.23018 0.51512 0.77502 0.0
C1284 C 0.21887 0.59694 0.75333 0.0
C1285 C 0.22065 0.62043 0.76759 0.0
C1286 C 0.22632 0.57408 0.7464 0.0
C1287 C 0.23561 0.5749 0.75354 0.0
C1288 C 0.23772 0.60275 0.76608 0.0
H1289 H 0.28749 0.43088 0.74564 0.0
H1290 H 0.27486 0.47472 0.75668 0.0
C1291 C 0.23028 0.62558 0.77304 0.0
C1292 C 0.24259 0.5427 0.75002 0.0
H1293 H 0.24651 0.44363 0.75684 0.0
C1294 C 0.25127 0.55176 0.74176 0.0
C1295 C 0.24085 0.50339 0.75568 0.0
C1296 C 0.23176 0.49254 0.76523 0.0
C1297 C 0.25823 0.52219 0.73868 0.0
C1298 C 0.25651 0.4829 0.7444 0.0
C1299 C 0.24781 0.47387 0.75264 0.0
C1300 C 0.26348 0.45052 0.74104 0.0
C1301 C 0.26727 0.53301 0.72901 0.0
C1302 C 0.26101 0.42025 0.72975 0.0
C1303 C 0.26818 0.39485 0.72355 0.0
C1304 C 0.2779 0.39964 0.72853 0.0
C1305 C 0.28009 0.42672 0.74142 0.0
C1306 C 0.27291 0.45208 0.74762 0.0
H1307 H 0.26652 0.56209 0.72252 0.0
H1308 H 0.27349 0.53513 0.73779 0.0
H1309 H 0.26899 0.50982 0.71956 0.0
H1310 H 0.25372 0.41826 0.72474 0.0
H1311 H 0.26624 0.374 0.71375 0.0
H1312 H 0.03693 0.56028 0.49475 0.0
H1313 H 0.02338 0.52071 0.50534 0.0
H1314 H 0.0036 0.5865 0.474 0.0
H1315 H 0.0171 0.62604 0.46319 0.0
H1316 H 0.00409 0.53432 0.51929 0.0
H1317 H 0.00382 0.47057 0.45494 0.0
H1318 H 0.01365 0.501 0.46264 0.0
H1319 H 0.00244 0.52366 0.45625 0.0
C1320 C 0.02966 0.56741 0.49057 0.0
C1321 C 0.0281 0.59561 0.47784 0.0
C1322 C 0.02193 0.54461 0.49658 0.0
C1323 C 0.01259 0.54995 0.48999 0.0
C1324 C 0.01082 0.58143 0.47889 0.0
H1325 H 0.95958 0.41674 0.49924 0.0
H1326 H 0.97282 0.45744 0.48825 0.0
C1327 C 0.01854 0.60418 0.47285 0.0
C1328 C 0.00504 0.51971 0.49312 0.0
H1329 H 0.99217 0.44569 0.47393 0.0
C1330 C 0.00147 0.51493 0.50941 0.0
C1331 C 0.00172 0.49437 0.48014 0.0
C1332 C 0.00564 0.49727 0.46252 0.0
C1333 C 0.99452 0.48574 0.51306 0.0
C1334 C 0.99125 0.46024 0.50011 0.0
C1335 C 0.99477 0.46515 0.4838 0.0
C1336 C 0.98389 0.42927 0.50335 0.0
C1337 C 0.99059 0.48286 0.53068 0.0
C1338 C 0.98593 0.39797 0.51441 0.0
C1339 C 0.97839 0.37456 0.52068 0.0
C1340 C 0.96874 0.38232 0.51597 0.0
C1341 C 0.96693 0.41023 0.50321 0.0
C1342 C 0.97448 0.43371 0.49699 0.0
H1343 H 0.99229 0.50984 0.53818 0.0
H1344 H 0.9826 0.47854 0.53056 0.0
H1345 H 0.9939 0.45683 0.53704 0.0
H1346 H 0.99322 0.39362 0.51914 0.0
H1347 H 0.98003 0.35295 0.53034 0.0
H1348 H 0.21093 0.65515 0.50104 0.0
H1349 H 0.2236 0.69997 0.51104 0.0
H1350 H 0.24441 0.64223 0.47888 0.0
H1351 H 0.23179 0.59737 0.46867 0.0
H1352 H 0.24386 0.69679 0.52333 0.0
H1353 H 0.23955 0.75667 0.45874 0.0
H1354 H 0.23102 0.72222 0.46792 0.0
H1355 H 0.2425 0.70467 0.46023 0.0
C1356 C 0.21829 0.65068 0.49665 0.0
C1357 C 0.2203 0.62357 0.48366 0.0
C1358 C 0.22551 0.67655 0.50231 0.0
C1359 C 0.2348 0.67518 0.4952 0.0
C1360 C 0.23719 0.6442 0.48419 0.0
H1361 H 0.28418 0.82895 0.49816 0.0
H1362 H 0.27143 0.78439 0.48825 0.0
C1363 C 0.22998 0.61837 0.47849 0.0
C1364 C 0.24143 0.70933 0.49726 0.0
H1365 H 0.25116 0.78813 0.47603 0.0
C1366 C 0.24546 0.7168 0.51303 0.0
C1367 C 0.24338 0.73552 0.48377 0.0
C1368 C 0.23884 0.72973 0.46672 0.0
C1369 C 0.25163 0.74943 0.5156 0.0
C1370 C 0.2536 0.77557 0.50209 0.0
C1371 C 0.24955 0.76814 0.48633 0.0
C1372 C 0.26029 0.80954 0.50412 0.0
C1373 C 0.25616 0.75525 0.53265 0.0
C1374 C 0.25796 0.8406 0.51513 0.0
C1375 C 0.26522 0.86626 0.52078 0.0
C1376 C 0.27488 0.86084 0.51554 0.0
C1377 C 0.27684 0.83361 0.50258 0.0
C1378 C 0.26957 0.80789 0.49697 0.0
H1379 H 0.25541 0.72838 0.54066 0.0
H1380 H 0.26399 0.76262 0.53147 0.0
H1381 H 0.25252 0.78042 0.5391 0.0
H1382 H 0.25075 0.84278 0.52047 0.0
H1383 H 0.26346 0.88736 0.53058 0.0
H1384 H 0.76414 0.34967 0.22082 0.0
H1385 H 0.75179 0.39223 0.23349 0.0
H1386 H 0.77396 0.4551 0.26088 0.0
H1387 H 0.78639 0.41253 0.24838 0.0
H1388 H 0.75446 0.44513 0.27755 0.0
H1389 H 0.75372 0.50892 0.21326 0.0
H1390 H 0.75194 0.45601 0.2146 0.0
H1391 H 0.7634 0.47714 0.22055 0.0
C1392 C 0.76637 0.37142 0.23008 0.0
C1393 C 0.77625 0.37839 0.23331 0.0
C1394 C 0.7593 0.39587 0.23721 0.0
C1395 C 0.76205 0.42742 0.24766 0.0
C1396 C 0.77176 0.4311 0.25266 0.0
H1397 H 0.72912 0.62575 0.28866 0.0
H1398 H 0.74273 0.58605 0.27832 0.0
C1399 C 0.77884 0.40655 0.24557 0.0
C1400 C 0.75508 0.45958 0.25134 0.0
H1401 H 0.74224 0.5342 0.23258 0.0
C1402 C 0.75181 0.46479 0.26779 0.0
C1403 C 0.75176 0.4853 0.23852 0.0
C1404 C 0.75542 0.48194 0.22075 0.0
C1405 C 0.74497 0.49433 0.27168 0.0
C1406 C 0.74153 0.51966 0.25879 0.0
C1407 C 0.74494 0.51482 0.24239 0.0
C1408 C 0.7339 0.54957 0.26201 0.0
C1409 C 0.74125 0.49735 0.28942 0.0
C1410 C 0.72462 0.54428 0.25514 0.0
C1411 C 0.71684 0.5672 0.26086 0.0
C1412 C 0.71827 0.59553 0.27359 0.0
C1413 C 0.72778 0.60381 0.27899 0.0
C1414 C 0.73555 0.58095 0.27322 0.0
H1415 H 0.74315 0.47069 0.29697 0.0
H1416 H 0.74451 0.52377 0.29556 0.0
H1417 H 0.73324 0.50106 0.28956 0.0
H1418 H 0.72326 0.52048 0.24629 0.0
H1419 H 0.70962 0.56025 0.25639 0.0
H1420 H 0.76627 0.38361 0.53643 0.0
H1421 H 0.75291 0.34245 0.52624 0.0
H1422 H 0.77231 0.28438 0.49163 0.0
H1423 H 0.78574 0.32522 0.50175 0.0
H1424 H 0.74461 0.31581 0.49322 0.0
H1425 H 0.76468 0.20037 0.52926 0.0
H1426 H 0.76711 0.25289 0.53149 0.0
H1427 H 0.77153 0.22639 0.51351 0.0
C1428 C 0.76762 0.36333 0.52614 0.0
C1429 C 0.77712 0.35682 0.52023 0.0
C1430 C 0.75998 0.3397 0.52039 0.0
C1431 C 0.76175 0.30967 0.50862 0.0
C1432 C 0.77089 0.30701 0.50099 0.0
H1433 H 0.73142 0.10842 0.471 0.0
H1434 H 0.74375 0.15258 0.48262 0.0
C1435 C 0.77854 0.33061 0.50671 0.0
C1436 C 0.75457 0.27761 0.50628 0.0
H1437 H 0.75056 0.17944 0.51496 0.0
C1438 C 0.74586 0.28603 0.498 0.0
C1439 C 0.75625 0.23898 0.51274 0.0
C1440 C 0.76536 0.22898 0.52238 0.0
C1441 C 0.73886 0.25628 0.49551 0.0
C1442 C 0.74058 0.21751 0.50184 0.0
C1443 C 0.74925 0.20927 0.51028 0.0
C1444 C 0.73375 0.1846 0.49856 0.0
C1445 C 0.72982 0.26622 0.48568 0.0
C1446 C 0.72424 0.1859 0.5048 0.0
C1447 C 0.71716 0.1605 0.49826 0.0
C1448 C 0.71954 0.13381 0.48532 0.0
C1449 C 0.72934 0.12901 0.48081 0.0
C1450 C 0.7364 0.15436 0.48737 0.0
H1451 H 0.73047 0.29511 0.47901 0.0
H1452 H 0.72823 0.24258 0.47635 0.0
H1453 H 0.72355 0.2682 0.49438 0.0
H1454 H 0.72214 0.20855 0.51376 0.0
H1455 H 0.70969 0.16471 0.50211 0.0
H1456 H 0.46009 0.32738 0.75037 0.0
H1457 H 0.473 0.28619 0.76213 0.0
H1458 H 0.49378 0.34273 0.72949 0.0
H1459 H 0.48098 0.38428 0.71782 0.0
H1460 H 0.48179 0.23474 0.73916 0.0
H1461 H 0.50946 0.3252 0.77225 0.0
H1462 H 0.49722 0.34261 0.76875 0.0
H1463 H 0.50606 0.34499 0.7522 0.0
C1464 C 0.46748 0.33244 0.74626 0.0
C1465 C 0.4695 0.35849 0.73292 0.0
C1466 C 0.47484 0.30864 0.75292 0.0
C1467 C 0.4843 0.31112 0.74653 0.0
C1468 C 0.48654 0.34054 0.73469 0.0
H1469 H 0.536 0.16786 0.75084 0.0
H1470 H 0.52293 0.20955 0.73997 0.0
C1471 C 0.4792 0.3643 0.72801 0.0
C1472 C 0.49133 0.27886 0.74985 0.0
H1473 H 0.51428 0.26014 0.7636 0.0
C1474 C 0.48886 0.24016 0.74467 0.0
C1475 C 0.50057 0.28622 0.75677 0.0
C1476 C 0.50348 0.32694 0.76295 0.0
C1477 C 0.49548 0.20865 0.74603 0.0
C1478 C 0.50474 0.21605 0.7529 0.0
C1479 C 0.50719 0.25471 0.75813 0.0
C1480 C 0.51185 0.18392 0.75587 0.0
C1481 C 0.49259 0.16793 0.73982 0.0
C1482 C 0.50979 0.15404 0.76759 0.0
C1483 C 0.51723 0.12998 0.77375 0.0
C1484 C 0.52685 0.13594 0.76844 0.0
C1485 C 0.52867 0.16267 0.75526 0.0
C1486 C 0.52123 0.18674 0.74911 0.0
H1487 H 0.48649 0.16958 0.73074 0.0
H1488 H 0.49881 0.1526 0.73377 0.0
H1489 H 0.49018 0.1496 0.75061 0.0
H1490 H 0.50262 0.15158 0.77306 0.0
H1491 H 0.51558 0.1095 0.78384 0.0
H1492 H 0.47852 0.86167 0.53311 0.0
H1493 H 0.49191 0.90047 0.52149 0.0
H1494 H 0.47183 0.96453 0.49007 0.0
H1495 H 0.45835 0.9261 0.5017 0.0
H1496 H 0.49915 0.92218 0.48851 0.0
H1497 H 0.48287 0.04826 0.52392 0.0
H1498 H 0.47924 -0.00276 0.5272 0.0
H1499 H 0.47499 0.024 0.50916 0.0
C1500 C 0.47698 0.88303 0.5233 0.0
C1501 C 0.46736 0.89146 0.51858 0.0
C1502 C 0.48464 0.90527 0.51673 0.0
C1503 C 0.48277 0.93607 0.50536 0.0
C1504 C 0.47334 0.94136 0.49914 0.0
H1505 H 0.51738 0.12302 0.46355 0.0
H1506 H 0.50408 0.08417 0.47542 0.0
C1507 C 0.46567 0.9191 0.50568 0.0
C1508 C 0.49046 0.96533 0.50158 0.0
H1509 H 0.497 0.06212 0.50822 0.0
C1510 C 0.4987 0.95276 0.4928 0.0
C1511 C 0.48984 0.00506 0.5074 0.0
C1512 C 0.48131 0.01954 0.51757 0.0
C1513 C 0.5063 0.97924 0.48932 0.0
C1514 C 0.50569 0.019 0.49513 0.0
C1515 C 0.49745 0.03154 0.50393 0.0
C1516 C 0.51334 0.04832 0.49125 0.0
C1517 C 0.51483 0.96475 0.47912 0.0
C1518 C 0.52282 0.04295 0.49724 0.0
C1519 C 0.53045 0.0652 0.49052 0.0
C1520 C 0.52866 0.09297 0.47771 0.0
C1521 C 0.519 0.10155 0.47327 0.0
C1522 C 0.51139 0.07928 0.47999 0.0
H1523 H 0.51325 0.93608 0.47274 0.0
H1524 H 0.5169 0.98708 0.46951 0.0
H1525 H 0.52115 0.96016 0.48751 0.0
H1526 H 0.5244 0.01971 0.50623 0.0
H1527 H 0.53779 0.05812 0.49431 0.0
H1528 H 0.4803 0.8779 0.21203 0.0
H1529 H 0.49329 0.83415 0.22172 0.0
H1530 H 0.47385 0.7816 0.25778 0.0
H1531 H 0.46078 0.82511 0.24817 0.0
H1532 H 0.50179 0.80983 0.2545 0.0
H1533 H 0.48041 0.69271 0.22182 0.0
H1534 H 0.47827 0.74518 0.21864 0.0
H1535 H 0.474 0.72125 0.23735 0.0
C1536 C 0.47888 0.85816 0.22248 0.0
C1537 C 0.46945 0.85431 0.22908 0.0
C1538 C 0.4863 0.83305 0.22793 0.0
C1539 C 0.48439 0.80397 0.24006 0.0
C1540 C 0.47536 0.80346 0.24815 0.0
H1541 H 0.51445 0.60489 0.28036 0.0
H1542 H 0.50202 0.64772 0.26821 0.0
C1543 C 0.46793 0.82863 0.24275 0.0
C1544 C 0.49138 0.77132 0.2427 0.0
H1545 H 0.49468 0.6719 0.23576 0.0
C1546 C 0.50028 0.77971 0.25038 0.0
C1547 C 0.48936 0.7322 0.23711 0.0
C1548 C 0.48003 0.72213 0.22814 0.0
C1549 C 0.50714 0.74957 0.2531 0.0
C1550 C 0.5051 0.71035 0.2476 0.0
C1551 C 0.49623 0.70207 0.23978 0.0
C1552 C 0.51184 0.67725 0.25112 0.0
C1553 C 0.51639 0.75968 0.26231 0.0
C1554 C 0.52125 0.67734 0.24442 0.0
C1555 C 0.52839 0.65276 0.2513 0.0
C1556 C 0.52617 0.62808 0.26501 0.0
C1557 C 0.51642 0.62399 0.26996 0.0
C1558 C 0.5093 0.64859 0.26309 0.0
H1559 H 0.51598 0.78923 0.26852 0.0
H1560 H 0.51803 0.73683 0.27195 0.0
H1561 H 0.52251 0.76034 0.25328 0.0
H1562 H 0.52326 0.69871 0.23487 0.0
H1563 H 0.53581 0.65628 0.24705 0.0
H1564 H 0.45471 0.42892 0.00333 0.0
H1565 H 0.46751 0.46792 0.98989 0.0
H1566 H 0.48913 0.40403 0.01824 0.0
H1567 H 0.47645 0.3646 0.03148 0.0
H1568 H 0.47856 0.51638 0.01005 0.0
H1569 H 0.50241 0.41659 0.97329 0.0
H1570 H 0.49025 0.40267 0.97938 0.0
H1571 H 0.50014 0.39804 0.99399 0.0
C1572 C 0.46221 0.422 0.00617 0.0
C1573 C 0.46458 0.39409 0.01864 0.0
C1574 C 0.46951 0.4445 0.99855 0.0
C1575 C 0.47925 0.43901 0.00315 0.0
C1576 C 0.48167 0.40845 0.01435 0.0
H1577 H 0.5334 0.56312 0.99563 0.0
H1578 H 0.51946 0.526 0.00626 0.0
C1579 C 0.4744 0.38596 0.02196 0.0
C1580 C 0.48665 0.46883 0.99844 0.0
H1581 H 0.50929 0.47903 0.9818 0.0
C1582 C 0.48523 0.50838 0.00365 0.0
C1583 C 0.49536 0.45817 0.99027 0.0
C1584 C 0.4971 0.41663 0.98377 0.0
C1585 C 0.49243 0.53734 0.00133 0.0
C1586 C 0.50121 0.52641 0.99351 0.0
C1587 C 0.50257 0.48709 0.98803 0.0
C1588 C 0.50903 0.55539 0.99023 0.0
C1589 C 0.49071 0.57908 0.00762 0.0
C1590 C 0.50765 0.58567 0.9784 0.0
C1591 C 0.5156 0.60706 0.97234 0.0
C1592 C 0.52503 0.5981 0.97792 0.0
C1593 C 0.52623 0.57065 0.99104 0.0
C1594 C 0.51829 0.54921 0.99706 0.0
H1595 H 0.48458 0.58044 0.01664 0.0
H1596 H 0.49733 0.591 0.01378 0.0
H1597 H 0.48896 0.59869 0.99686 0.0
H1598 H 0.50057 0.59066 0.9729 0.0
H1599 H 0.51443 0.62811 0.96226 0.0
H1600 H 0.05806 0.46366 0.42704 0.0
H1601 H 0.05719 0.40735 0.40754 0.0
H1602 H 0.03191 0.45924 0.38428 0.0
H1603 H 0.03296 0.51608 0.40326 0.0
H1604 H 0.04371 0.35199 0.39989 0.0
H1605 H 0.05027 0.44939 0.34505 0.0
H1606 H 0.05165 0.46657 0.36633 0.0
H1607 H 0.0398 0.46425 0.35685 0.0
C1608 C 0.05225 0.46266 0.41791 0.0
C1609 C 0.04566 0.49429 0.41641 0.0
C1610 C 0.05178 0.43067 0.40677 0.0
C1611 C 0.04467 0.42993 0.39417 0.0
C1612 C 0.03765 0.46003 0.39355 0.0
H1613 H 0.02952 0.22526 0.3349 0.0
H1614 H 0.02946 0.28351 0.35322 0.0
C1615 C 0.0382 0.49222 0.40447 0.0
C1616 C 0.04474 0.39834 0.38136 0.0
H1617 H 0.04529 0.38286 0.33912 0.0
C1618 C 0.0441 0.35866 0.38661 0.0
C1619 C 0.04548 0.40724 0.36407 0.0
C1620 C 0.04694 0.44915 0.35773 0.0
C1621 C 0.04393 0.32751 0.37497 0.0
C1622 C 0.04409 0.33658 0.35765 0.0
C1623 C 0.04499 0.37618 0.35241 0.0
C1624 C 0.04344 0.30514 0.34482 0.0
C1625 C 0.04376 0.28524 0.38138 0.0
C1626 C 0.05097 0.29992 0.33316 0.0
C1627 C 0.05089 0.26721 0.32236 0.0
C1628 C 0.04332 0.23935 0.3233 0.0
C1629 C 0.03548 0.24621 0.33414 0.0
C1630 C 0.03548 0.27917 0.34469 0.0
H1631 H 0.04657 0.28326 0.3944 0.0
H1632 H 0.03617 0.27425 0.38143 0.0
H1633 H 0.04816 0.26528 0.37329 0.0
H1634 H 0.05711 0.32003 0.33297 0.0
H1635 H 0.05702 0.2624 0.31411 0.0
H1636 H 0.19852 0.773 0.44208 0.0
H1637 H 0.20022 0.83359 0.42519 0.0
H1638 H 0.21862 0.77053 0.39044 0.0
H1639 H 0.2171 0.71034 0.40727 0.0
H1640 H 0.2241 0.85105 0.39576 0.0
H1641 H 0.18498 0.83147 0.38043 0.0
H1642 H 0.18771 0.83631 0.40235 0.0
H1643 H 0.19198 0.79365 0.39096 0.0
C1644 C 0.20311 0.7724 0.43107 0.0
C1645 C 0.2075 0.73687 0.42574 0.0
C1646 C 0.20405 0.80688 0.42144 0.0
C1647 C 0.20937 0.80602 0.40644 0.0
C1648 C 0.21444 0.77156 0.40193 0.0
H1649 H 0.19816 0.95057 0.31894 0.0
H1650 H 0.20183 0.89462 0.3376 0.0
C1651 C 0.21351 0.73721 0.41151 0.0
C1652 C 0.20876 0.83906 0.39439 0.0
H1653 H 0.19294 0.88636 0.36833 0.0
C1654 C 0.2173 0.85901 0.38978 0.0
C1655 C 0.19991 0.84835 0.38634 0.0
C1656 C 0.19063 0.82616 0.39012 0.0
C1657 C 0.21717 0.88869 0.37744 0.0
C1658 C 0.20825 0.89874 0.36977 0.0
C1659 C 0.19976 0.87844 0.37426 0.0
C1660 C 0.20739 0.93156 0.35764 0.0
C1661 C 0.22657 0.90857 0.37255 0.0
C1662 C 0.20943 0.97053 0.36273 0.0
C1663 C 0.20735 0.00233 0.35217 0.0
C1664 C 0.2031 -0.00433 0.3364 0.0
C1665 C 0.2014 0.95651 0.33104 0.0
C1666 C 0.2035 0.92462 0.34165 0.0
H1667 H 0.23294 0.88988 0.37581 0.0
H1668 H 0.22676 0.91504 0.35891 0.0
H1669 H 0.22725 0.93716 0.37941 0.0
H1670 H 0.21224 0.97651 0.37515 0.0
H1671 H 0.20877 0.03223 0.35661 0.0
H1672 H 0.02925 0.01609 0.91298 0.0
H1673 H 0.0286 0.95658 0.89547 0.0
H1674 H 0.05612 0.91807 0.91561 0.0
H1675 H 0.05661 0.97702 0.93365 0.0
H1676 H 0.04151 0.94279 0.87128 0.0
H1677 H 0.04098 0.81542 0.9154 0.0
H1678 H 0.03848 0.86576 0.92199 0.0
H1679 H 0.0508 0.84927 0.91925 0.0
C1680 C 0.03502 -0.00569 0.91399 0.0
C1681 C 0.04298 0.00095 0.92457 0.0
C1682 C 0.03466 0.96049 0.90397 0.0
C1683 C 0.0423 0.93297 0.90427 0.0
C1684 C 0.05005 0.93858 0.91543 0.0
H1685 H 0.05848 0.77743 0.8222 0.0
H1686 H 0.0567 0.83419 0.84124 0.0
C1687 C 0.05034 0.97223 0.9257 0.0
C1688 C 0.04258 0.90089 0.89166 0.0
H1689 H 0.04461 0.80057 0.88685 0.0
C1690 C 0.0421 0.91162 0.87467 0.0
C1691 C 0.0433 0.86037 0.89616 0.0
C1692 C 0.04332 0.84694 0.9142 0.0
C1693 C 0.04238 0.88286 0.862 0.0
C1694 C 0.04344 0.84245 0.86648 0.0
C1695 C 0.04385 0.83169 0.88347 0.0
C1696 C 0.04401 0.81054 0.85384 0.0
C1697 C 0.04135 0.89598 0.844 0.0
C1698 C 0.03748 0.77865 0.85464 0.0
C1699 C 0.03859 0.74611 0.84405 0.0
C1700 C 0.04622 0.74508 0.83239 0.0
C1701 C 0.0525 0.77778 0.83101 0.0
C1702 C 0.05146 0.81019 0.84182 0.0
H1703 H 0.03779 0.92556 0.84305 0.0
H1704 H 0.04867 0.8985 0.83828 0.0
H1705 H 0.03707 0.87417 0.83661 0.0
H1706 H 0.03167 0.77847 0.86379 0.0
H1707 H 0.03363 0.72126 0.84527 0.0
H1708 H 0.21693 0.51644 0.84132 0.0
H1709 H 0.21857 0.45295 0.85569 0.0
H1710 H 0.20111 0.39635 0.81767 0.0
H1711 H 0.19931 0.4603 0.80324 0.0
H1712 H 0.19366 0.38933 0.8493 0.0
H1713 H 0.2325 0.34742 0.84962 0.0
H1714 H 0.23064 0.39818 0.8558 0.0
H1715 H 0.22751 0.38275 0.83489 0.0
C1716 C 0.21364 0.49029 0.83577 0.0
C1717 C 0.20786 0.49331 0.82133 0.0
C1718 C 0.21467 0.45394 0.84391 0.0
C1719 C 0.21002 0.41999 0.83766 0.0
C1720 C 0.2048 0.42231 0.82259 0.0
H1721 H 0.20855 0.19386 0.88973 0.0
H1722 H 0.21167 0.24697 0.8696 0.0
C1723 C 0.20377 0.45877 0.81439 0.0
C1724 C 0.20925 0.38443 0.84837 0.0
H1725 H 0.22259 0.31909 0.87156 0.0
C1726 C 0.19998 0.37352 0.85396 0.0
C1727 C 0.21751 0.36403 0.85441 0.0
C1728 C 0.22759 0.37345 0.84824 0.0
C1729 C 0.19874 0.34356 0.86591 0.0
C1730 C 0.20702 0.32464 0.87262 0.0
C1731 C 0.21628 0.33438 0.86658 0.0
C1732 C 0.20611 0.2937 0.88556 0.0
C1733 C 0.18859 0.33251 0.8713 0.0
C1734 C 0.20224 0.30285 0.90136 0.0
C1735 C 0.20041 0.27256 0.91291 0.0
C1736 C 0.20246 0.23285 0.90873 0.0
C1737 C 0.2068 0.22418 0.89321 0.0
C1738 C 0.20862 0.25442 0.88172 0.0
H1739 H 0.18305 0.3431 0.86223 0.0
H1740 H 0.18785 0.29977 0.8727 0.0
H1741 H 0.18702 0.34642 0.88362 0.0
H1742 H 0.2004 0.33325 0.90457 0.0
H1743 H 0.19714 0.28006 0.92484 0.0
H1744 H 0.96626 0.75907 0.65971 0.0
H1745 H 0.9678 0.7017 0.64107 0.0
H1746 H 0.94137 0.65247 0.66141 0.0
H1747 H 0.94001 0.70919 0.68058 0.0
H1748 H 0.95466 0.59531 0.65433 0.0
H1749 H 0.95041 0.69754 0.60028 0.0
H1750 H 0.96068 0.70945 0.61317 0.0
H1751 H 0.9486 0.71338 0.62164 0.0
C1752 C 0.96091 0.7355 0.66044 0.0
C1753 C 0.95296 0.73853 0.67137 0.0
C1754 C 0.96175 0.70302 0.64972 0.0
C1755 C 0.95452 0.67371 0.6495 0.0
C1756 C 0.94696 0.67515 0.66129 0.0
H1757 H 0.93975 0.51677 0.56771 0.0
H1758 H 0.94106 0.57284 0.58723 0.0
C1759 C 0.94621 0.70737 0.67226 0.0
C1760 C 0.95452 0.64296 0.63632 0.0
H1761 H 0.95418 0.63031 0.59391 0.0
C1762 C 0.95455 0.60287 0.64112 0.0
C1763 C 0.95415 0.65311 0.61911 0.0
C1764 C 0.95335 0.69569 0.61322 0.0
C1765 C 0.95436 0.57248 0.62913 0.0
C1766 C 0.95444 0.58264 0.61191 0.0
C1767 C 0.95428 0.62273 0.60712 0.0
C1768 C 0.95436 0.55194 0.59871 0.0
C1769 C 0.95378 0.52986 0.63505 0.0
C1770 C 0.96167 0.52299 0.59816 0.0
C1771 C 0.96087 0.49087 0.58725 0.0
C1772 C 0.95287 0.48783 0.57644 0.0
C1773 C 0.94599 0.51858 0.57594 0.0
C1774 C 0.94671 0.55043 0.5871 0.0
H1775 H 0.95101 0.52785 0.6481 0.0
H1776 H 0.949 0.51187 0.62681 0.0
H1777 H 0.96115 0.51656 0.63484 0.0
H1778 H 0.9678 0.52441 0.60665 0.0
H1779 H 0.96632 0.46764 0.58767 0.0
H1780 H 0.79474 0.0331 0.68858 0.0
H1781 H 0.79177 0.0925 0.67151 0.0
H1782 H 0.77736 0.02034 0.63437 0.0
H1783 H 0.78013 0.96132 0.65136 0.0
H1784 H 0.79993 0.09724 0.64024 0.0
H1785 H 0.76014 0.11862 0.63588 0.0
H1786 H 0.76573 0.08887 0.65207 0.0
H1787 H 0.76383 0.06848 0.63149 0.0
C1788 C 0.79071 0.03015 0.677 0.0
C1789 C 0.78778 0.99262 0.67116 0.0
C1790 C 0.78901 0.06402 0.66729 0.0
C1791 C 0.78429 0.06072 0.65176 0.0
C1792 C 0.78084 0.02363 0.64645 0.0
H1793 H 0.79639 0.20754 0.56517 0.0
H1794 H 0.79316 0.15047 0.58352 0.0
C1795 C 0.78253 0.98987 0.65611 0.0
C1796 C 0.78431 0.09439 0.63995 0.0
H1797 H 0.76978 0.15079 0.61477 0.0
C1798 C 0.79333 0.10926 0.6348 0.0
C1799 C 0.77569 0.10976 0.63287 0.0
C1800 C 0.76579 0.09587 0.63847 0.0
C1801 C 0.794 0.13878 0.62252 0.0
C1802 C 0.78541 0.15313 0.61499 0.0
C1803 C 0.77635 0.13894 0.62036 0.0
C1804 C 0.78575 0.1852 0.60245 0.0
C1805 C 0.80389 0.15475 0.61789 0.0
C1806 C 0.78218 0.22283 0.60671 0.0
C1807 C 0.78399 0.25522 0.59633 0.0
C1808 C 0.78939 0.25039 0.58151 0.0
C1809 C 0.7923 0.21209 0.57661 0.0
C1810 C 0.79049 0.1796 0.58706 0.0
H1811 H 0.8095 0.14654 0.62727 0.0
H1812 H 0.80611 0.14221 0.60561 0.0
H1813 H 0.80372 0.18767 0.61672 0.0
H1814 H 0.77847 0.22756 0.61852 0.0
H1815 H 0.78153 0.28437 0.60029 0.0
H1816 H 0.93931 0.2177 0.18212 0.0
H1817 H 0.94016 0.16144 0.16269 0.0
H1818 H 0.96514 0.21412 0.13875 0.0
H1819 H 0.96418 0.27078 0.15781 0.0
H1820 H 0.9509 0.19537 0.11657 0.0
H1821 H 0.95852 0.06758 0.15856 0.0
H1822 H 0.94815 0.09633 0.1648 0.0
H1823 H 0.96002 0.11858 0.16515 0.0
C1824 C 0.94511 0.21676 0.17296 0.0
C1825 C 0.95165 0.24857 0.17136 0.0
C1826 C 0.94559 0.18464 0.1619 0.0
C1827 C 0.95273 0.1837 0.14935 0.0
C1828 C 0.95956 0.21446 0.14833 0.0
H1829 H 0.96392 0.9789 0.08775 0.0
H1830 H 0.96556 0.0379 0.10539 0.0
C1831 C 0.95903 0.24667 0.15924 0.0
C1832 C 0.95263 0.15242 0.13641 0.0
H1833 H 0.95373 0.05219 0.13067 0.0
C1834 C 0.9516 0.16403 0.1196 0.0
C1835 C 0.9536 0.11175 0.14045 0.0
C1836 C 0.95523 0.09776 0.1582 0.0
C1837 C 0.95146 0.13588 0.10666 0.0
C1838 C 0.95213 0.09509 0.11075 0.0
C1839 C 0.9532 0.08355 0.12757 0.0
C1840 C 0.95181 0.06351 0.09792 0.0
C1841 C 0.95076 0.15018 0.08878 0.0
C1842 C 0.94369 0.0592 0.08741 0.0
C1843 C 0.94287 0.02594 0.077 0.0
C1844 C 0.95003 -0.0037 0.07738 0.0
C1845 C 0.95831 0.00151 0.08733 0.0
C1846 C 0.95923 0.03503 0.09742 0.0
H1847 H 0.95327 0.18148 0.08752 0.0
H1848 H 0.95513 0.13122 0.08024 0.0
H1849 H 0.94308 0.14896 0.08468 0.0
H1850 H 0.93778 0.08039 0.08788 0.0
H1851 H 0.93635 0.02211 0.06957 0.0
H1852 H 0.80187 0.51962 0.1915 0.0
H1853 H 0.80133 0.58361 0.17675 0.0
H1854 H 0.7812 0.53422 0.14093 0.0
H1855 H 0.78155 0.47088 0.15565 0.0
H1856 H 0.80729 0.5916 0.14411 0.0
H1857 H 0.76923 0.64199 0.15057 0.0
H1858 H 0.77445 0.6042 0.16391 0.0
H1859 H 0.77004 0.59155 0.14336 0.0
C1860 C 0.79717 0.52278 0.1807 0.0
C1861 C 0.79182 0.49029 0.17462 0.0
C1862 C 0.79687 0.55923 0.17231 0.0
C1863 C 0.79115 0.56361 0.15789 0.0
C1864 C 0.7855 0.53167 0.15225 0.0
H1865 H 0.80083 0.71168 0.07138 0.0
H1866 H 0.79924 0.65674 0.09142 0.0
C1867 C 0.78578 0.49539 0.16059 0.0
C1868 C 0.7919 0.59969 0.14751 0.0
H1869 H 0.77833 0.6702 0.12772 0.0
C1870 C 0.801 0.60921 0.14071 0.0
C1871 C 0.78366 0.6225 0.14317 0.0
C1872 C 0.77382 0.61478 0.15077 0.0
C1873 C 0.80203 0.64032 0.1292 0.0
C1874 C 0.7937 0.66175 0.12418 0.0
C1875 C 0.78466 0.65312 0.13141 0.0
C1876 C 0.79428 0.69411 0.1118 0.0
C1877 C 0.81201 0.65002 0.12257 0.0
C1878 C 0.79169 0.73276 0.11655 0.0
C1879 C 0.79249 0.7639 0.10516 0.0
C1880 C 0.79591 0.75687 0.08883 0.0
C1881 C 0.79826 0.71792 0.08394 0.0
C1882 C 0.79741 0.68665 0.09536 0.0
H1883 H 0.81782 0.63789 0.13076 0.0
H1884 H 0.81288 0.63662 0.10995 0.0
H1885 H 0.81304 0.68269 0.12141 0.0
H1886 H 0.7892 0.73894 0.12917 0.0
H1887 H 0.79057 0.7936 0.10927 0.0
H1888 H 0.52873 0.21613 0.83828 0.0
H1889 H 0.52512 0.27556 0.85477 0.0
H1890 H 0.55131 0.33091 0.83628 0.0
H1891 H 0.55462 0.27229 0.81905 0.0
H1892 H 0.53535 0.29959 0.87958 0.0
H1893 H 0.53346 0.4233 0.83429 0.0
H1894 H 0.53319 0.37193 0.82774 0.0
H1895 H 0.5446 0.39655 0.83168 0.0
C1896 C 0.53356 0.24149 0.83743 0.0
C1897 C 0.54195 0.23988 0.82749 0.0
C1898 C 0.5315 0.27533 0.84685 0.0
C1899 C 0.5379 0.30782 0.84668 0.0
C1900 C 0.54612 0.30671 0.83626 0.0
H1901 H 0.55251 0.46153 0.92756 0.0
H1902 H 0.54952 0.40493 0.90901 0.0
C1903 C 0.54806 0.27314 0.82651 0.0
C1904 C 0.5366 0.34054 0.85885 0.0
H1905 H 0.53752 0.44133 0.86284 0.0
C1906 C 0.53564 0.33063 0.87587 0.0
C1907 C 0.53679 0.38099 0.85404 0.0
C1908 C 0.53695 0.39376 0.83591 0.0
C1909 C 0.53531 0.36004 0.88827 0.0
C1910 C 0.53636 0.40033 0.88355 0.0
C1911 C 0.53686 0.41035 0.86649 0.0
C1912 C 0.53745 0.43251 0.89603 0.0
C1913 C 0.53387 0.34751 0.90626 0.0
C1914 C 0.53172 0.46689 0.89479 0.0
C1915 C 0.5336 0.49952 0.90504 0.0
C1916 C 0.54115 0.4981 0.91683 0.0
C1917 C 0.54658 0.4631 0.91866 0.0
C1918 C 0.54483 0.4307 0.90815 0.0
H1919 H 0.52969 0.31927 0.90704 0.0
H1920 H 0.54105 0.34221 0.91213 0.0
H1921 H 0.52998 0.37066 0.91358 0.0
H1922 H 0.52599 0.46891 0.88553 0.0
H1923 H 0.52929 0.52624 0.90348 0.0
H1924 H 0.69852 0.78379 0.94125 0.0
H1925 H 0.7012 0.84414 0.92456 0.0
H1926 H 0.71734 0.77573 0.88828 0.0
H1927 H 0.71483 0.71575 0.90488 0.0
H1928 H 0.72467 0.85419 0.8937 0.0
H1929 H 0.685 0.84832 0.88069 0.0
H1930 H 0.68831 0.85147 0.90242 0.0
H1931 H 0.69142 0.80787 0.89056 0.0
C1932 C 0.70284 0.78191 0.92994 0.0
C1933 C 0.70629 0.74509 0.92413 0.0
C1934 C 0.70434 0.81626 0.92042 0.0
C1935 C 0.70929 0.81397 0.90508 0.0
C1936 C 0.71345 0.77792 0.90005 0.0
H1937 H 0.69934 0.96073 0.81804 0.0
H1938 H 0.70245 0.90419 0.83667 0.0
C1939 C 0.71196 0.7437 0.9095 0.0
C1940 C 0.70913 0.84743 0.89319 0.0
H1941 H 0.69384 0.89993 0.86796 0.0
C1942 C 0.71795 0.86447 0.88811 0.0
C1943 C 0.70035 0.85974 0.88565 0.0
C1944 C 0.69073 0.84076 0.88995 0.0
C1945 C 0.71819 0.89414 0.87576 0.0
C1946 C 0.70937 0.90709 0.86854 0.0
C1947 C 0.70058 0.88976 0.87354 0.0
C1948 C 0.70894 0.93982 0.8563 0.0
C1949 C 0.72785 0.91085 0.87033 0.0
C1950 C 0.71171 0.97822 0.86112 0.0
C1951 C 0.70994 0.01038 0.85057 0.0
C1952 C 0.70529 0.00469 0.83508 0.0
C1953 C 0.7029 0.96596 0.82993 0.0
C1954 C 0.70468 0.93372 0.84053 0.0
H1955 H 0.73392 0.89037 0.87347 0.0
H1956 H 0.72795 0.91671 0.85664 0.0
H1957 H 0.72915 0.93943 0.87693 0.0
H1958 H 0.71483 0.98359 0.87337 0.0
H1959 H 0.71191 0.03991 0.85484 0.0
H1960 H 0.52594 0.72392 0.33162 0.0
H1961 H 0.5231 0.78418 0.34803 0.0
H1962 H 0.55035 0.83229 0.33058 0.0
H1963 H 0.55296 0.77283 0.31352 0.0
H1964 H 0.53402 0.80293 0.37329 0.0
H1965 H 0.53399 0.93001 0.32945 0.0
H1966 H 0.53277 0.87925 0.32236 0.0
H1967 H 0.5446 0.89997 0.3265 0.0
C1968 C 0.53115 0.74801 0.3309 0.0
C1969 C 0.53966 0.74396 0.32141 0.0
C1970 C 0.52954 0.7823 0.34028 0.0
C1971 C 0.53649 0.81278 0.34049 0.0
C1972 C 0.54477 0.80962 0.3303 0.0
H1973 H 0.55323 0.95915 0.42288 0.0
H1974 H 0.54977 0.90425 0.40366 0.0
C1975 C 0.54629 0.77558 0.32061 0.0
C1976 C 0.53574 0.84494 0.35305 0.0
H1977 H 0.53808 0.94503 0.35822 0.0
C1978 C 0.53473 0.8341 0.36996 0.0
C1979 C 0.53655 0.88555 0.34871 0.0
C1980 C 0.53693 0.89936 0.33074 0.0
C1981 C 0.53488 0.86266 0.38271 0.0
C1982 C 0.53642 0.90296 0.37844 0.0
C1983 C 0.53703 0.914 0.3615 0.0
C1984 C 0.53781 0.93408 0.39128 0.0
C1985 C 0.53341 0.84928 0.40058 0.0
C1986 C 0.53228 0.96906 0.39061 0.0
C1987 C 0.5344 0.00066 0.40128 0.0
C1988 C 0.54202 -0.00237 0.41289 0.0
C1989 C 0.54726 0.96199 0.41412 0.0
C1990 C 0.54525 0.93058 0.40322 0.0
H1991 H 0.52904 0.8215 0.40116 0.0
H1992 H 0.54057 0.84288 0.40633 0.0
H1993 H 0.52971 0.87248 0.40816 0.0
H1994 H 0.52651 0.97234 0.38149 0.0
H1995 H 0.53022 0.02786 0.40018 0.0
H1996 H 0.68739 0.26489 0.43699 0.0
H1997 H 0.68688 0.32335 0.41864 0.0
H1998 H 0.71543 0.29459 0.39996 0.0
H1999 H 0.71583 0.23551 0.4178 0.0
H2000 H 0.69798 0.38952 0.41334 0.0
H2001 H 0.6989 0.2903 0.35791 0.0
H2002 H 0.69715 0.27185 0.37891 0.0
H2003 H 0.70916 0.28327 0.37142 0.0
C2004 C 0.69363 0.27164 0.42924 0.0
C2005 C 0.70159 0.24564 0.42855 0.0
C2006 C 0.69331 0.30482 0.41873 0.0
C2007 C 0.70099 0.31236 0.40761 0.0
C2008 C 0.70931 0.28843 0.40809 0.0
H2009 H 0.71111 0.52384 0.35005 0.0
H2010 H 0.71166 0.46785 0.3695 0.0
C2011 C 0.70957 0.25501 0.41836 0.0
C2012 C 0.7001 0.34374 0.39482 0.0
H2013 H 0.7011 0.35959 0.35266 0.0
C2014 C 0.69861 0.38304 0.40006 0.0
C2015 C 0.70065 0.33487 0.37751 0.0
C2016 C 0.70144 0.29273 0.37108 0.0
C2017 C 0.698 0.41409 0.38842 0.0
C2018 C 0.69921 0.40553 0.37118 0.0
C2019 C 0.70035 0.36605 0.36591 0.0
C2020 C 0.69941 0.43726 0.35844 0.0
C2021 C 0.69597 0.45564 0.39471 0.0
C2022 C 0.69275 0.43712 0.34513 0.0
C2023 C 0.69257 0.46866 0.33375 0.0
C2024 C 0.699 0.50071 0.33568 0.0
C2025 C 0.70599 0.49967 0.34847 0.0
C2026 C 0.70625 0.46796 0.35966 0.0
H2027 H 0.69227 0.45513 0.40708 0.0
H2028 H 0.70293 0.4718 0.39626 0.0
H2029 H 0.69137 0.47248 0.38575 0.0
H2030 H 0.6875 0.41331 0.34389 0.0
H2031 H 0.68712 0.46884 0.32396 0.0
H2032 H 0.43751 0.52057 0.07423 0.0
H2033 H 0.43858 0.57597 0.09406 0.0
H2034 H 0.46217 0.51707 0.11956 0.0
H2035 H 0.46095 0.46121 0.10013 0.0
H2036 H 0.44813 0.54069 0.14101 0.0
H2037 H 0.45827 0.66452 0.09851 0.0
H2038 H 0.44748 0.63877 0.09208 0.0
H2039 H 0.45893 0.61302 0.09221 0.0
C2040 C 0.44303 0.51984 0.08389 0.0
C2041 C 0.44913 0.48668 0.08573 0.0
C2042 C 0.44365 0.55148 0.09517 0.0
C2043 C 0.4505 0.55062 0.10819 0.0
C2044 C 0.45682 0.51817 0.10962 0.0
H2045 H 0.46385 0.75541 0.16837 0.0
H2046 H 0.46507 0.69434 0.15192 0.0
C2047 C 0.45614 0.48641 0.0985 0.0
C2048 C 0.45073 0.58232 0.12095 0.0
H2049 H 0.45333 0.68227 0.12607 0.0
C2050 C 0.44934 0.57166 0.13779 0.0
C2051 C 0.45239 0.6225 0.11667 0.0
C2052 C 0.45445 0.6354 0.09891 0.0
C2053 C 0.4495 0.60031 0.15054 0.0
C2054 C 0.45085 0.64066 0.1462 0.0
C2055 C 0.45229 0.65123 0.12935 0.0
C2056 C 0.45079 0.67284 0.15877 0.0
C2057 C 0.44838 0.58702 0.16849 0.0
C2058 C 0.44253 0.68003 0.16864 0.0
C2059 C 0.44192 0.71453 0.17835 0.0
C2060 C 0.44947 0.74246 0.17792 0.0
C2061 C 0.45794 0.73415 0.16881 0.0
C2062 C 0.45862 0.69945 0.1594 0.0
H2063 H 0.45035 0.55517 0.17005 0.0
H2064 H 0.45296 0.60514 0.17703 0.0
H2065 H 0.44069 0.59057 0.17233 0.0
H2066 H 0.43633 0.66026 0.16806 0.0
H2067 H 0.43528 0.72074 0.18515 0.0
H2068 H 0.28948 0.93992 0.13416 0.0
H2069 H 0.28666 0.99203 0.11341 0.0
H2070 H 0.29507 0.08113 0.14949 0.0
H2071 H 0.298 0.02907 0.17039 0.0
H2072 H 0.27447 0.06127 0.11429 0.0
H2073 H 0.31376 0.09629 0.10905 0.0
H2074 H 0.30932 0.0514 0.11884 0.0
H2075 H 0.30908 0.09777 0.13005 0.0
C2076 C 0.29069 0.97063 0.13773 0.0
C2077 C 0.29409 0.98049 0.15382 0.0
C2078 C 0.28904 0.00027 0.12588 0.0
C2079 C 0.29081 0.04013 0.12991 0.0
C2080 C 0.29383 0.05031 0.14614 0.0
H2081 H 0.27763 0.26192 0.08714 0.0
H2082 H 0.27675 0.19705 0.10063 0.0
C2083 C 0.29547 0.02064 0.15804 0.0
C2084 C 0.28985 0.07095 0.11693 0.0
H2085 H 0.30283 0.14085 0.09572 0.0
C2086 C 0.28066 0.07853 0.11008 0.0
C2087 C 0.298 0.09253 0.11125 0.0
C2088 C 0.30812 0.08393 0.11754 0.0
C2089 C 0.27934 0.10872 0.09818 0.0
C2090 C 0.28741 0.13187 0.09324 0.0
C2091 C 0.29666 0.12299 0.09955 0.0
C2092 C 0.28638 0.16808 0.083 0.0
C2093 C 0.26933 0.11586 0.09116 0.0
C2094 C 0.29198 0.17309 0.06847 0.0
C2095 C 0.29258 0.21035 0.06079 0.0
C2096 C 0.28765 0.24304 0.06771 0.0
C2097 C 0.28156 0.23726 0.08161 0.0
C2098 C 0.28096 0.2001 0.08923 0.0
H2099 H 0.26483 0.08844 0.09171 0.0
H2100 H 0.26564 0.13906 0.09873 0.0
H2101 H 0.26968 0.12628 0.07797 0.0
H2102 H 0.29626 0.14867 0.06356 0.0
H2103 H 0.2973 0.21397 0.05005 0.0
H2104 H 0.46574 0.26166 0.66215 0.0
H2105 H 0.4657 0.2039 0.64357 0.0
H2106 H 0.43882 0.16392 0.66564 0.0
H2107 H 0.43899 0.22117 0.68469 0.0
H2108 H 0.45113 0.1024 0.65812 0.0
H2109 H 0.44719 0.20409 0.6039 0.0
H2110 H 0.45784 0.21437 0.6161 0.0
H2111 H 0.44601 0.22075 0.62528 0.0
C2112 C 0.45994 0.24004 0.66327 0.0
C2113 C 0.45231 0.24591 0.67465 0.0
C2114 C 0.45988 0.20736 0.65258 0.0
C2115 C 0.45209 0.18058 0.6529 0.0
C2116 C 0.44483 0.18468 0.66511 0.0
H2117 H 0.43697 0.02235 0.57069 0.0
H2118 H 0.43763 0.07814 0.59048 0.0
C2119 C 0.44496 0.21718 0.67602 0.0
C2120 C 0.4513 0.14961 0.63991 0.0
H2121 H 0.45058 0.13614 0.59757 0.0
C2122 C 0.45096 0.10969 0.64488 0.0
C2123 C 0.45083 0.15945 0.62268 0.0
C2124 C 0.45038 0.20201 0.61666 0.0
C2125 C 0.45047 0.07908 0.63301 0.0
C2126 C 0.45063 0.08885 0.61576 0.0
C2127 C 0.45065 0.12883 0.6108 0.0
C2128 C 0.45077 0.05786 0.6027 0.0
C2129 C 0.44967 0.03667 0.6391 0.0
C2130 C 0.45819 0.02936 0.60254 0.0
C2131 C 0.45776 -0.00254 0.59146 0.0
C2132 C 0.45002 0.99415 0.58011 0.0
C2133 C 0.443 0.02436 0.57934 0.0
C2134 C 0.44336 0.05603 0.59065 0.0
H2135 H 0.44668 0.03523 0.65202 0.0
H2136 H 0.44495 0.01869 0.63072 0.0
H2137 H 0.45699 0.02298 0.63931 0.0
H2138 H 0.46414 0.03107 0.61137 0.0
H2139 H 0.46331 0.97469 0.59211 0.0
H2140 H 0.28113 0.46707 0.65223 0.0
H2141 H 0.27917 0.52281 0.63288 0.0
H2142 H 0.30416 0.58044 0.65466 0.0
H2143 H 0.30592 0.52533 0.67454 0.0
H2144 H 0.29008 0.63279 0.64736 0.0
H2145 H 0.29664 0.5346 0.5927 0.0
H2146 H 0.28647 0.51897 0.6051 0.0
H2147 H 0.29848 0.5183 0.61399 0.0
C2148 C 0.28612 0.49193 0.65302 0.0
C2149 C 0.29375 0.49187 0.66467 0.0
C2150 C 0.28504 0.5235 0.64189 0.0
C2151 C 0.29171 0.55496 0.642 0.0
C2152 C 0.29901 0.55609 0.65428 0.0
H2153 H 0.3044 0.721 0.56269 0.0
H2154 H 0.30367 0.66256 0.58098 0.0
C2155 C 0.29999 0.52476 0.66564 0.0
C2156 C 0.29125 0.58609 0.62901 0.0
H2157 H 0.29151 0.60066 0.58671 0.0
C2158 C 0.29041 0.62583 0.6341 0.0
C2159 C 0.29187 0.57683 0.61174 0.0
C2160 C 0.29352 0.53491 0.60554 0.0
C2161 C 0.29007 0.6567 0.62235 0.0
C2162 C 0.29024 0.64728 0.60506 0.0
C2163 C 0.2912 0.60759 0.59997 0.0
C2164 C 0.28988 0.67858 0.59213 0.0
C2165 C 0.28982 0.69911 0.62862 0.0
C2166 C 0.2821 0.70544 0.59171 0.0
C2167 C 0.28257 0.73895 0.58149 0.0
C2168 C 0.29071 0.74542 0.57127 0.0
C2169 C 0.29804 0.71652 0.57046 0.0
C2170 C 0.29765 0.68331 0.58094 0.0
H2171 H 0.29244 0.70139 0.64175 0.0
H2172 H 0.29435 0.71884 0.62065 0.0
H2173 H 0.28224 0.71018 0.62829 0.0
H2174 H 0.2759 0.70154 0.59989 0.0
H2175 H 0.27679 0.76074 0.58214 0.0
H2176 H 0.05209 0.70783 0.37776 0.0
H2177 H 0.04754 0.77354 0.36767 0.0
H2178 H 0.03743 0.80529 0.41702 0.0
H2179 H 0.04202 0.73921 0.42741 0.0
H2180 H 0.02874 0.81507 0.36925 0.0
H2181 H 0.05886 0.88845 0.40427 0.0
H2182 H 0.05861 0.83545 0.40065 0.0
H2183 H 0.05068 0.85724 0.41593 0.0
C2184 C 0.04889 0.72864 0.38653 0.0
C2185 C 0.04752 0.71845 0.40346 0.0
C2186 C 0.04623 0.76606 0.38068 0.0
C2187 C 0.04218 0.79403 0.39163 0.0
C2188 C 0.04059 0.78393 0.40845 0.0
H2189 H 0.03962 0.04563 0.36898 0.0
H2190 H 0.03627 0.98233 0.38272 0.0
C2191 C 0.04324 0.74631 0.41435 0.0
C2192 C 0.04031 0.83453 0.38544 0.0
H2193 H 0.0499 0.92781 0.38579 0.0
C2194 C 0.03324 0.84002 0.373 0.0
C2195 C 0.04623 0.86669 0.39042 0.0
C2196 C 0.05407 0.86191 0.40347 0.0
C2197 C 0.03208 0.87695 0.36508 0.0
C2198 C 0.03831 0.90864 0.36952 0.0
C2199 C 0.04512 0.90342 0.38242 0.0
C2200 C 0.03844 0.94686 0.3604 0.0
C2201 C 0.02428 0.88153 0.35197 0.0
C2202 C 0.04052 0.94795 0.34317 0.0
C2203 C 0.04233 0.98424 0.33521 0.0
C2204 C 0.04231 0.01968 0.34451 0.0
C2205 C 0.03982 0.01861 0.36157 0.0
C2206 C 0.03785 0.98255 0.36942 0.0
H2207 H 0.01825 0.86016 0.35407 0.0
H2208 H 0.02128 0.9122 0.35189 0.0
H2209 H 0.02742 0.87524 0.33945 0.0
H2210 H 0.04124 0.92066 0.33606 0.0
H2211 H 0.04426 0.98435 0.32205 0.0
H2212 H 0.2023 0.5448 0.37788 0.0
H2213 H 0.20341 0.48057 0.36381 0.0
H2214 H 0.1982 0.4207 0.41077 0.0
H2215 H 0.19738 0.48522 0.42513 0.0
H2216 H 0.21211 0.38316 0.39097 0.0
H2217 H 0.1789 0.41774 0.35419 0.0
H2218 H 0.18853 0.4532 0.35167 0.0
H2219 H 0.18276 0.4476 0.37175 0.0
C2220 C 0.20145 0.51794 0.38525 0.0
C2221 C 0.19958 0.51988 0.40254 0.0
C2222 C 0.20207 0.48134 0.37718 0.0
C2223 C 0.20063 0.44609 0.38618 0.0
C2224 C 0.19925 0.44774 0.40361 0.0
H2225 H 0.18781 0.20445 0.36897 0.0
H2226 H 0.1915 0.27089 0.37924 0.0
C2227 C 0.19877 0.48449 0.41178 0.0
C2228 C 0.20005 0.40771 0.37728 0.0
H2229 H 0.18676 0.35707 0.34817 0.0
C2230 C 0.20661 0.37747 0.38156 0.0
C2231 C 0.19284 0.40054 0.36499 0.0
C2232 C 0.1853 0.43132 0.36046 0.0
C2233 C 0.20606 0.33991 0.37399 0.0
C2234 C 0.19876 0.33267 0.36196 0.0
C2235 C 0.19239 0.36314 0.35731 0.0
C2236 C 0.1969 0.29244 0.35548 0.0
C2237 C 0.21317 0.30798 0.37908 0.0
C2238 C 0.19853 0.28312 0.3386 0.0
C2239 C 0.19643 0.24496 0.33261 0.0
C2240 C 0.19254 0.21601 0.34342 0.0
C2241 C 0.19078 0.22599 0.36027 0.0
C2242 C 0.19295 0.26383 0.36623 0.0
H2243 H 0.21964 0.32065 0.38545 0.0
H2244 H 0.20955 0.28714 0.38788 0.0
H2245 H 0.21559 0.29063 0.368 0.0
H2246 H 0.20147 0.30524 0.33013 0.0
H2247 H 0.19787 0.23814 0.31958 0.0
H2248 H 0.04329 0.49845 0.81878 0.0
H2249 H 0.0381 0.43266 0.82872 0.0
H2250 H 0.04416 0.46787 0.87961 0.0
H2251 H 0.04931 0.53312 0.86995 0.0
H2252 H 0.05074 0.38213 0.84679 0.0
H2253 H 0.01743 0.41358 0.88328 0.0
H2254 H 0.02209 0.44717 0.86752 0.0
H2255 H 0.02727 0.44661 0.88821 0.0
C2256 C 0.04341 0.49224 0.8321 0.0
C2257 C 0.04678 0.52082 0.84357 0.0
C2258 C 0.0404 0.45484 0.83774 0.0
C2259 C 0.04057 0.4459 0.8549 0.0
C2260 C 0.04374 0.47462 0.86636 0.0
H2261 H 0.04415 0.2566 0.92412 0.0
H2262 H 0.04116 0.31974 0.90953 0.0
C2263 C 0.04681 0.51172 0.86076 0.0
C2264 C 0.03868 0.40519 0.86089 0.0
H2265 H 0.02593 0.35295 0.89019 0.0
C2266 C 0.04518 0.37535 0.85598 0.0
C2267 C 0.03147 0.39688 0.87299 0.0
C2268 C 0.02411 0.42769 0.8782 0.0
C2269 C 0.04507 0.33793 0.86364 0.0
C2270 C 0.03807 0.32998 0.8762 0.0
C2271 C 0.03128 0.35927 0.88058 0.0
C2272 C 0.03817 0.29217 0.88556 0.0
C2273 C 0.05282 0.30816 0.85892 0.0
C2274 C 0.03706 0.25606 0.87703 0.0
C2275 C 0.03894 0.22031 0.8852 0.0
C2276 C 0.04175 0.22013 0.90213 0.0
C2277 C 0.04206 0.25608 0.91105 0.0
C2278 C 0.04033 0.29202 0.90275 0.0
H2279 H 0.05891 0.32225 0.85197 0.0
H2280 H 0.05581 0.29332 0.87022 0.0
H2281 H 0.04961 0.28496 0.85073 0.0
H2282 H 0.03516 0.25563 0.86386 0.0
H2283 H 0.03845 0.19284 0.87814 0.0
H2284 H 0.19778 0.99255 0.93268 0.0
H2285 H 0.20122 0.92384 0.92387 0.0
H2286 H 0.19071 0.9507 0.87429 0.0
H2287 H 0.18715 0.01859 0.88283 0.0
H2288 H 0.18555 0.8697 0.90543 0.0
H2289 H 0.21981 0.90078 0.87099 0.0
H2290 H 0.21567 0.93098 0.88834 0.0
H2291 H 0.21007 0.93584 0.86816 0.0
C2292 C 0.19617 0.9837 0.91994 0.0
C2293 C 0.19219 0.01099 0.90847 0.0
C2294 C 0.19817 0.94464 0.91494 0.0
C2295 C 0.19633 0.93279 0.89841 0.0
C2296 C 0.19227 0.95971 0.88704 0.0
H2297 H 0.19759 0.74328 0.82865 0.0
H2298 H 0.19844 0.8063 0.84404 0.0
C2299 C 0.19019 -0.00159 0.89201 0.0
C2300 C 0.19822 0.8919 0.89282 0.0
H2301 H 0.21204 0.839 0.86528 0.0
C2302 C 0.19144 0.8625 0.89694 0.0
C2303 C 0.20586 0.8833 0.88161 0.0
C2304 C 0.21334 0.91425 0.87704 0.0
C2305 C 0.19179 0.82494 0.88936 0.0
C2306 C 0.19929 0.81655 0.87774 0.0
C2307 C 0.20631 0.84559 0.87418 0.0
C2308 C 0.19962 0.77862 0.86846 0.0
C2309 C 0.1838 0.7955 0.89313 0.0
C2310 C 0.20027 0.74244 0.87708 0.0
C2311 C 0.19962 0.70661 0.86839 0.0
C2312 C 0.19851 0.70638 0.85088 0.0
C2313 C 0.19839 0.74264 0.84215 0.0
C2314 C 0.1989 0.77856 0.85091 0.0
H2315 H 0.1774 0.81006 0.89901 0.0
H2316 H 0.18137 0.78013 0.88155 0.0
H2317 H 0.18655 0.77272 0.90199 0.0
H2318 H 0.2011 0.74191 0.89057 0.0
H2319 H 0.19993 0.67906 0.87541 0.0
H2320 H 0.94783 0.2346 0.56989 0.0
H2321 H 0.94966 0.16816 0.58234 0.0
H2322 H 0.95272 0.2212 0.63127 0.0
H2323 H 0.95065 0.28714 0.61911 0.0
H2324 H 0.96408 0.13204 0.60278 0.0
H2325 H 0.92897 0.14928 0.63624 0.0
H2326 H 0.93274 0.18248 0.61971 0.0
H2327 H 0.93752 0.18824 0.64054 0.0
C2328 C 0.94898 0.23198 0.58327 0.0
C2329 C 0.9489 0.26583 0.59359 0.0
C2330 C 0.95004 0.19416 0.59034 0.0
C2331 C 0.9511 0.18997 0.60774 0.0
C2332 C 0.95166 0.22389 0.61787 0.0
H2333 H 0.95046 0.98719 0.67521 0.0
H2334 H 0.95314 0.0533 0.66308 0.0
C2335 C 0.95048 0.26148 0.61089 0.0
C2336 C 0.95104 0.15024 0.61554 0.0
H2337 H 0.93836 0.09261 0.64306 0.0
C2338 C 0.95846 0.12329 0.61156 0.0
C2339 C 0.94366 0.13911 0.62696 0.0
C2340 C 0.93522 0.16612 0.63102 0.0
C2341 C 0.95876 0.0854 0.61891 0.0
C2342 C 0.95141 0.07448 0.63037 0.0
C2343 C 0.94403 0.10148 0.6344 0.0
C2344 C 0.95079 0.03422 0.63751 0.0
C2345 C 0.96692 0.0574 0.61448 0.0
C2346 C 0.94855 0.00203 0.62709 0.0
C2347 C 0.94692 0.96452 0.63394 0.0
C2348 C 0.94751 0.9586 0.65136 0.0
C2349 C 0.94995 0.99084 0.66175 0.0
C2350 C 0.95151 0.0285 0.65487 0.0
H2351 H 0.97313 0.07333 0.60868 0.0
H2352 H 0.96951 0.04128 0.62576 0.0
H2353 H 0.96423 0.035 0.60537 0.0
H2354 H 0.94778 0.00617 0.61369 0.0
H2355 H 0.94509 0.94028 0.62557 0.0
H2356 H 0.8007 0.49675 0.57193 0.0
H2357 H 0.79967 0.5639 0.58395 0.0
H2358 H 0.80195 0.5144 0.63365 0.0
H2359 H 0.80324 0.44788 0.62188 0.0
H2360 H 0.78661 0.59686 0.6066 0.0
H2361 H 0.82383 0.59492 0.63304 0.0
H2362 H 0.8197 0.55855 0.61802 0.0
H2363 H 0.81661 0.55355 0.63983 0.0
C2364 C 0.80101 0.50031 0.58541 0.0
C2365 C 0.80222 0.46719 0.59595 0.0
C2366 C 0.8004 0.53855 0.59223 0.0
C2367 C 0.80096 0.54399 0.60964 0.0
C2368 C 0.80179 0.51085 0.62017 0.0
H2369 H 0.79819 0.74643 0.67688 0.0
H2370 H 0.79723 0.67959 0.6646 0.0
C2371 C 0.80251 0.47286 0.61339 0.0
C2372 C 0.80072 0.58423 0.61697 0.0
H2373 H 0.81348 0.64734 0.64216 0.0
C2374 C 0.7925 0.60806 0.61429 0.0
C2375 C 0.80844 0.59861 0.62697 0.0
C2376 C 0.81768 0.57524 0.62951 0.0
C2377 C 0.79174 0.64581 0.62164 0.0
C2378 C 0.79938 0.65973 0.63183 0.0
C2379 C 0.8076 0.63606 0.63448 0.0
C2380 C 0.79929 0.69985 0.63913 0.0
C2381 C 0.78277 0.67053 0.61862 0.0
C2382 C 0.80083 0.73283 0.62879 0.0
C2383 C 0.80149 0.77074 0.63571 0.0
C2384 C 0.80059 0.77626 0.65312 0.0
C2385 C 0.79891 0.74308 0.66344 0.0
C2386 C 0.79834 0.70501 0.65648 0.0
H2387 H 0.77684 0.65289 0.61281 0.0
H2388 H 0.78011 0.68345 0.63058 0.0
H2389 H 0.7846 0.69556 0.61011 0.0
H2390 H 0.8017 0.72912 0.61538 0.0
H2391 H 0.80274 0.7957 0.6274 0.0
H2392 H 0.94689 0.50289 0.17891 0.0
H2393 H 0.94936 0.56948 0.16691 0.0
H2394 H 0.95965 0.51651 0.12099 0.0
H2395 H 0.95697 0.45033 0.13264 0.0
H2396 H 0.96534 0.61115 0.15062 0.0
H2397 H 0.93464 0.57636 0.10781 0.0
H2398 H 0.93742 0.54644 0.12594 0.0
H2399 H 0.94447 0.54134 0.10711 0.0
C2400 C 0.94984 0.5056 0.16638 0.0
C2401 C 0.95153 0.47169 0.15653 0.0
C2402 C 0.95127 0.5435 0.15958 0.0
C2403 C 0.95449 0.5476 0.14298 0.0
C2404 C 0.95697 0.51376 0.13371 0.0
H2405 H 0.95259 0.74899 0.0746 0.0
H2406 H 0.95675 0.68482 0.08728 0.0
C2407 C 0.95542 0.47607 0.14036 0.0
C2408 C 0.95423 0.58669 0.13468 0.0
H2409 H 0.9426 0.63754 0.10368 0.0
C2410 C 0.9604 0.61703 0.14033 0.0
C2411 C 0.94775 0.59401 0.1213 0.0
C2412 C 0.94063 0.56298 0.11525 0.0
C2413 C 0.96026 0.65478 0.13284 0.0
C2414 C 0.95372 0.66206 0.11954 0.0
C2415 C 0.94767 0.63153 0.11377 0.0
C2416 C 0.95236 0.70193 0.1123 0.0
C2417 C 0.96707 0.68655 0.13915 0.0
C2418 C 0.94847 0.73237 0.1222 0.0
C2419 C 0.946 0.76871 0.11502 0.0
C2420 C 0.94735 0.7752 0.09776 0.0
C2421 C 0.95143 0.74484 0.08791 0.0
C2422 C 0.95386 0.70833 0.09513 0.0
H2423 H 0.97331 0.67352 0.14604 0.0
H2424 H 0.96986 0.70495 0.12865 0.0
H2425 H 0.96309 0.70641 0.14788 0.0
H2426 H 0.94705 0.72757 0.1354 0.0
H2427 H 0.94291 0.79154 0.12298 0.0
H2428 H 0.79325 0.23378 0.16967 0.0
H2429 H 0.78969 0.17229 0.15429 0.0
H2430 H 0.77764 0.24106 0.11365 0.0
H2431 H 0.78157 0.30245 0.12862 0.0
H2432 H 0.77381 0.13555 0.13916 0.0
H2433 H 0.80068 0.18746 0.09172 0.0
H2434 H 0.79902 0.2125 0.11147 0.0
H2435 H 0.79037 0.21922 0.09484 0.0
C2436 C 0.78967 0.23561 0.1576 0.0
C2437 C 0.78788 0.27259 0.1501 0.0
C2438 C 0.78763 0.2006 0.14885 0.0
C2439 C 0.78364 0.20235 0.13266 0.0
C2440 C 0.78096 0.23922 0.12592 0.0
H2441 H 0.78921 -0.00538 0.06527 0.0
H2442 H 0.78264 0.05865 0.07504 0.0
C2443 C 0.78319 0.27415 0.13448 0.0
C2444 C 0.78341 0.16615 0.1222 0.0
H2445 H 0.79469 0.12293 0.08875 0.0
C2446 C 0.77823 0.13296 0.12797 0.0
C2447 C 0.78916 0.16299 0.10753 0.0
C2448 C 0.79519 0.19727 0.10104 0.0
C2449 C 0.77908 0.09602 0.11996 0.0
C2450 C 0.78529 0.09241 0.10596 0.0
C2451 C 0.78989 0.12613 0.09945 0.0
C2452 C 0.7886 0.05326 0.10001 0.0
C2453 C 0.7737 0.06067 0.12699 0.0
C2454 C 0.79431 0.03007 0.1107 0.0
C2455 C 0.79818 -0.00573 0.10515 0.0
C2456 C 0.7964 0.98078 0.08876 0.0
C2457 C 0.79072 0.00426 0.07795 0.0
C2458 C 0.78691 0.04056 0.08352 0.0
H2459 H 0.76713 0.07008 0.13402 0.0
H2460 H 0.77152 0.0398 0.11688 0.0
H2461 H 0.77852 0.04448 0.13579 0.0
H2462 H 0.7959 0.03999 0.12332 0.0
H2463 H 0.80251 0.97703 0.11385 0.0
H2464 H 0.53531 0.72842 0.92065 0.0
H2465 H 0.53057 0.79105 0.90714 0.0
H2466 H 0.55641 0.78653 0.87663 0.0
H2467 H 0.56097 0.72365 0.88955 0.0
H2468 H 0.53872 0.86141 0.9057 0.0
H2469 H 0.53634 0.80433 0.84129 0.0
H2470 H 0.53714 0.77159 0.85917 0.0
H2471 H 0.54799 0.79161 0.84969 0.0
C2472 C 0.53998 0.74098 0.9111 0.0
C2473 C 0.54846 0.72111 0.90602 0.0
C2474 C 0.53723 0.77652 0.90333 0.0
C2475 C 0.54296 0.79264 0.89047 0.0
C2476 C 0.55166 0.77374 0.88601 0.0
H2477 H 0.5586 0.01922 0.86379 0.0
H2478 H 0.55417 0.95599 0.87642 0.0
C2479 C 0.55433 0.73808 0.89356 0.0
C2480 C 0.54027 0.83037 0.8822 0.0
H2481 H 0.54069 0.87497 0.84388 0.0
C2482 C 0.5389 0.86427 0.89216 0.0
C2483 C 0.54009 0.834 0.86454 0.0
C2484 C 0.54035 0.79826 0.8531 0.0
C2485 C 0.53843 0.90219 0.88495 0.0
C2486 C 0.53971 0.90616 0.86744 0.0
C2487 C 0.54 0.87201 0.85736 0.0
C2488 C 0.54209 0.94488 0.85969 0.0
C2489 C 0.53692 0.93765 0.89625 0.0
C2490 C 0.53711 0.9586 0.84548 0.0
C2491 C 0.53981 -0.00552 0.83791 0.0
C2492 C 0.54749 0.01705 0.84454 0.0
C2493 C 0.55257 0.00273 0.85854 0.0
C2494 C 0.54996 0.96683 0.86591 0.0
H2495 H 0.53223 0.92968 0.90707 0.0
H2496 H 0.54403 0.94739 0.90135 0.0
H2497 H 0.53355 0.96294 0.88944 0.0
H2498 H 0.53112 0.9417 0.84032 0.0
H2499 H 0.53576 0.00493 0.82714 0.0
H2500 H 0.69057 0.55875 0.87522 0.0
H2501 H 0.69231 0.49556 0.86059 0.0
H2502 H 0.6974 0.43601 0.90765 0.0
H2503 H 0.69594 0.49961 0.92246 0.0
H2504 H 0.71017 0.41299 0.88279 0.0
H2505 H 0.67214 0.40802 0.85969 0.0
H2506 H 0.67861 0.45225 0.85386 0.0
H2507 H 0.67608 0.44257 0.87559 0.0
C2508 C 0.692 0.53222 0.88251 0.0
C2509 C 0.69302 0.53408 0.90003 0.0
C2510 C 0.69297 0.49613 0.87411 0.0
C2511 C 0.69479 0.46112 0.88308 0.0
C2512 C 0.69593 0.46281 0.90054 0.0
H2513 H 0.69492 0.21361 0.86856 0.0
H2514 H 0.69649 0.28236 0.87778 0.0
C2515 C 0.69507 0.49907 0.90897 0.0
C2516 C 0.69553 0.42271 0.87422 0.0
H2517 H 0.68271 0.35765 0.84999 0.0
C2518 C 0.70418 0.40093 0.87557 0.0
C2519 C 0.68771 0.40725 0.86475 0.0
C2520 C 0.67808 0.42852 0.86347 0.0
C2521 C 0.70516 0.36366 0.86789 0.0
C2522 C 0.69729 0.34803 0.8587 0.0
C2523 C 0.68875 0.37022 0.85691 0.0
C2524 C 0.69727 0.30665 0.85274 0.0
C2525 C 0.71452 0.34086 0.86988 0.0
C2526 C 0.69716 0.29784 0.83556 0.0
C2527 C 0.6963 0.25836 0.83019 0.0
C2528 C 0.69534 0.22755 0.84198 0.0
C2529 C 0.69557 0.23672 0.85916 0.0
C2530 C 0.69654 0.2759 0.86448 0.0
H2531 H 0.72059 0.36049 0.87386 0.0
H2532 H 0.71354 0.31751 0.87956 0.0
H2533 H 0.71654 0.32591 0.85796 0.0
H2534 H 0.69762 0.32149 0.82637 0.0
H2535 H 0.69614 0.25209 0.81688 0.0
H2536 H 0.54594 0.49141 0.3248 0.0
H2537 H 0.54377 0.4278 0.3393 0.0
H2538 H 0.54191 0.48947 0.38662 0.0
H2539 H 0.54437 0.55273 0.37235 0.0
H2540 H 0.55493 0.43177 0.3877 0.0
H2541 H 0.52095 0.37232 0.36055 0.0
H2542 H 0.52955 0.38574 0.34467 0.0
H2543 H 0.52457 0.42365 0.3581 0.0
C2544 C 0.54494 0.49136 0.33826 0.0
C2545 C 0.54543 0.5269 0.34746 0.0
C2546 C 0.54361 0.45509 0.34651 0.0
C2547 C 0.54255 0.45403 0.36402 0.0
C2548 C 0.54269 0.48967 0.37311 0.0
H2549 H 0.54498 0.24247 0.42941 0.0
H2550 H 0.54143 0.31061 0.42009 0.0
C2551 C 0.54414 0.52575 0.36493 0.0
C2552 C 0.54238 0.41567 0.37305 0.0
H2553 H 0.53147 0.32461 0.37407 0.0
C2554 C 0.54968 0.40862 0.38498 0.0
C2555 C 0.53549 0.38564 0.36952 0.0
C2556 C 0.52714 0.39236 0.35763 0.0
C2557 C 0.55059 0.37155 0.3928 0.0
C2558 C 0.54402 0.34096 0.3886 0.0
C2559 C 0.53648 0.34836 0.37721 0.0
C2560 C 0.5456 0.2999 0.39435 0.0
C2561 C 0.55887 0.36459 0.40482 0.0
C2562 C 0.54905 0.27177 0.3829 0.0
C2563 C 0.55114 0.23325 0.38813 0.0
C2564 C 0.54975 0.22205 0.40495 0.0
C2565 C 0.54617 0.25027 0.4164 0.0
C2566 C 0.54412 0.28906 0.41113 0.0
H2567 H 0.56387 0.3905 0.40554 0.0
H2568 H 0.55593 0.35881 0.41754 0.0
H2569 H 0.56309 0.33797 0.40097 0.0
H2570 H 0.55027 0.27982 0.36992 0.0
H2571 H 0.55383 0.21226 0.37894 0.0
H2572 H 0.70693 0.05483 0.37905 0.0
H2573 H 0.70985 0.99201 0.36455 0.0
H2574 H 0.70387 0.9277 0.41017 0.0
H2575 H 0.70123 0.99076 0.42497 0.0
H2576 H 0.71892 0.89422 0.39084 0.0
H2577 H 0.68605 0.92602 0.35256 0.0
H2578 H 0.69544 0.9629 0.35132 0.0
H2579 H 0.68919 0.9549 0.3708 0.0
C2580 C 0.70635 0.0273 0.38605 0.0
C2581 C 0.70367 0.02746 0.40304 0.0
C2582 C 0.70802 0.99153 0.37775 0.0
C2583 C 0.70682 0.95537 0.38621 0.0
C2584 C 0.70476 0.95545 0.40343 0.0
H2585 H 0.69519 0.71467 0.37097 0.0
H2586 H 0.7001 0.78039 0.38045 0.0
C2587 C 0.70324 0.99137 0.41185 0.0
C2588 C 0.70684 0.91759 0.37682 0.0
H2589 H 0.69404 0.86563 0.34752 0.0
C2590 C 0.71356 0.88804 0.38124 0.0
C2591 C 0.69983 0.90981 0.36428 0.0
C2592 C 0.69216 0.93989 0.35952 0.0
C2593 C 0.71326 0.85036 0.37373 0.0
C2594 C 0.70603 0.84223 0.36167 0.0
C2595 C 0.69961 0.87229 0.3567 0.0
C2596 C 0.70407 0.80151 0.35579 0.0
C2597 C 0.72053 0.81924 0.37903 0.0
C2598 C 0.70451 0.79201 0.33869 0.0
C2599 C 0.70166 0.75431 0.33315 0.0
C2600 C 0.69817 0.726 0.34465 0.0
C2601 C 0.69779 0.73581 0.36176 0.0
C2602 C 0.70071 0.77319 0.36726 0.0
H2603 H 0.7272 0.83302 0.38428 0.0
H2604 H 0.71725 0.80025 0.3889 0.0
H2605 H 0.72258 0.79985 0.36833 0.0
H2606 H 0.70696 0.81389 0.32966 0.0
H2607 H 0.70204 0.74757 0.3199 0.0
H2608 H 0.45144 0.23998 0.06694 0.0
H2609 H 0.4555 0.17146 0.07504 0.0
H2610 H 0.45063 0.20111 0.12693 0.0
H2611 H 0.44664 0.26907 0.11911 0.0
H2612 H 0.46776 0.15141 0.11989 0.0
H2613 H 0.43305 0.09729 0.09195 0.0
H2614 H 0.44117 0.12562 0.07893 0.0
H2615 H 0.43513 0.14936 0.09614 0.0
C2616 C 0.45132 0.23192 0.08007 0.0
C2617 C 0.44858 0.25974 0.09236 0.0
C2618 C 0.45366 0.1929 0.08466 0.0
C2619 C 0.45331 0.18147 0.10155 0.0
C2620 C 0.45096 0.20956 0.11384 0.0
H2621 H 0.45041 -0.00471 0.17188 0.0
H2622 H 0.45425 0.05597 0.15624 0.0
C2623 C 0.4486 0.24829 0.1093 0.0
C2624 C 0.45445 0.13964 0.10662 0.0
H2625 H 0.44168 0.05313 0.10884 0.0
C2626 C 0.46218 0.1295 0.11724 0.0
C2627 C 0.44715 0.11141 0.10309 0.0
C2628 C 0.43861 0.12123 0.09198 0.0
C2629 C 0.46259 0.09208 0.12497 0.0
C2630 C 0.45495 0.06476 0.12227 0.0
C2631 C 0.44752 0.07422 0.11093 0.0
C2632 C 0.45402 0.02741 0.13189 0.0
C2633 C 0.4711 0.08251 0.13615 0.0
C2634 C 0.45252 0.99145 0.1234 0.0
C2635 C 0.45009 0.95718 0.13225 0.0
C2636 C 0.44918 0.95815 0.14979 0.0
C2637 C 0.45108 0.99375 0.15838 0.0
C2638 C 0.45338 0.02828 0.14946 0.0
H2639 H 0.47767 0.09945 0.13233 0.0
H2640 H 0.46932 0.09116 0.14921 0.0
H2641 H 0.47282 0.05023 0.13594 0.0
H2642 H 0.45294 0.99018 0.10985 0.0
H2643 H 0.44879 0.93001 0.12529 0.0
H2644 H 0.31342 0.75575 0.1389 0.0
H2645 H 0.30889 0.68921 0.1297 0.0
H2646 H 0.28769 0.68174 0.16929 0.0
H2647 H 0.29215 0.74892 0.17872 0.0
H2648 H 0.30638 0.61246 0.15594 0.0
H2649 H 0.27576 0.66502 0.11599 0.0
H2650 H 0.28632 0.6961 0.11888 0.0
H2651 H 0.27828 0.68739 0.13612 0.0
C2652 C 0.30786 0.73996 0.14582 0.0
C2653 C 0.30312 0.75771 0.15952 0.0
C2654 C 0.30528 0.702 0.1405 0.0
C2655 C 0.29792 0.68111 0.14875 0.0
C2656 C 0.29336 0.69784 0.16277 0.0
H2657 H 0.28812 0.43242 0.12222 0.0
H2658 H 0.28718 0.49513 0.13759 0.0
C2659 C 0.29596 0.736 0.16817 0.0
C2660 C 0.29504 0.64194 0.14227 0.0
H2661 H 0.28084 0.59844 0.11247 0.0
C2662 C 0.30067 0.60897 0.14669 0.0
C2663 C 0.28769 0.6382 0.13007 0.0
C2664 C 0.28161 0.67342 0.1249 0.0
C2665 C 0.29941 0.57227 0.13868 0.0
C2666 C 0.29217 0.56859 0.12615 0.0
C2667 C 0.28633 0.6014 0.12213 0.0
C2668 C 0.29111 0.53164 0.11633 0.0
C2669 C 0.30618 0.53849 0.14304 0.0
C2670 C 0.29303 0.5318 0.09905 0.0
C2671 C 0.29342 0.49603 0.09014 0.0
C2672 C 0.29197 0.45974 0.09849 0.0
C2673 C 0.28945 0.45997 0.11555 0.0
C2674 C 0.28892 0.49569 0.12436 0.0
H2675 H 0.31265 0.54895 0.15008 0.0
H2676 H 0.30228 0.51669 0.15102 0.0
H2677 H 0.30868 0.52286 0.13156 0.0
H2678 H 0.29468 0.55939 0.09263 0.0
H2679 H 0.29534 0.49665 0.07698 0.0
H2680 H 0.45203 0.44069 0.62708 0.0
H2681 H 0.45497 0.50438 0.61347 0.0
H2682 H 0.45355 0.5636 0.66137 0.0
H2683 H 0.45084 0.49947 0.67524 0.0
H2684 H 0.44187 0.56326 0.61381 0.0
H2685 H 0.47671 0.61794 0.63976 0.0
H2686 H 0.47288 0.56671 0.64162 0.0
H2687 H 0.46815 0.60387 0.65565 0.0
C2688 C 0.45247 0.46719 0.63478 0.0
C2689 C 0.4511 0.46525 0.65221 0.0
C2690 C 0.4542 0.50349 0.62697 0.0
C2691 C 0.45456 0.53858 0.63642 0.0
C2692 C 0.45352 0.5367 0.65391 0.0
H2693 H 0.44574 0.78342 0.62028 0.0
H2694 H 0.44933 0.71668 0.63034 0.0
C2695 C 0.45189 0.50016 0.66179 0.0
C2696 C 0.45483 0.57728 0.62771 0.0
H2697 H 0.46665 0.66637 0.62597 0.0
C2698 C 0.44738 0.58557 0.61624 0.0
C2699 C 0.46203 0.60621 0.63096 0.0
C2700 C 0.47045 0.59814 0.64255 0.0
C2701 C 0.4467 0.62268 0.60842 0.0
C2702 C 0.45372 0.65203 0.61207 0.0
C2703 C 0.46132 0.64352 0.62319 0.0
C2704 C 0.45262 0.69295 0.60581 0.0
C2705 C 0.43823 0.63091 0.59692 0.0
C2706 C 0.45344 0.70161 0.58868 0.0
C2707 C 0.45134 0.73984 0.58281 0.0
C2708 C 0.44838 0.76972 0.59404 0.0
C2709 C 0.44789 0.76101 0.61126 0.0
C2710 C 0.45001 0.72299 0.61708 0.0
H2711 H 0.4327 0.60685 0.59734 0.0
H2712 H 0.43469 0.65946 0.60033 0.0
H2713 H 0.44089 0.63357 0.58385 0.0
H2714 H 0.4555 0.67862 0.57986 0.0
H2715 H 0.45186 0.74574 0.5695 0.0
H2716 H 0.29239 0.9367 0.62203 0.0
H2717 H 0.28975 -0.00014 0.63629 0.0
H2718 H 0.29225 0.06188 0.58915 0.0
H2719 H 0.29462 -0.00162 0.57464 0.0
H2720 H 0.30295 0.05739 0.63766 0.0
H2721 H 0.26918 0.11739 0.60988 0.0
H2722 H 0.27276 0.06599 0.60753 0.0
H2723 H 0.27792 0.10376 0.59424 0.0
C2724 C 0.29225 0.96373 0.61464 0.0
C2725 C 0.29379 0.96272 0.59723 0.0
C2726 C 0.2907 -0.00026 0.62281 0.0
C2727 C 0.2907 0.03545 0.61377 0.0
C2728 C 0.29198 0.03453 0.59631 0.0
H2729 H 0.30171 0.27715 0.62952 0.0
H2730 H 0.29797 0.21005 0.62014 0.0
C2731 C 0.29342 -0.00168 0.58806 0.0
C2732 C 0.29049 0.0737 0.62285 0.0
H2733 H 0.27955 0.16469 0.62392 0.0
C2734 C 0.29771 0.08059 0.63491 0.0
C2735 C 0.28362 0.10377 0.61925 0.0
C2736 C 0.27538 0.09723 0.60714 0.0
C2737 C 0.29858 0.11754 0.64285 0.0
C2738 C 0.29201 0.14815 0.63865 0.0
C2739 C 0.28455 0.14091 0.62709 0.0
C2740 C 0.29354 0.1891 0.64458 0.0
C2741 C 0.30682 0.12434 0.65497 0.0
C2742 C 0.2922 0.19937 0.66145 0.0
C2743 C 0.29437 0.23788 0.66694 0.0
C2744 C 0.29791 0.26639 0.65559 0.0
C2745 C 0.29907 0.25588 0.63864 0.0
C2746 C 0.29687 0.21764 0.6332 0.0
H2747 H 0.3119 0.09871 0.65546 0.0
H2748 H 0.31095 0.15142 0.65142 0.0
H2749 H 0.30384 0.12917 0.66773 0.0
H2750 H 0.28959 0.17752 0.67035 0.0
H2751 H 0.29335 0.24518 0.68004 0.0
loop_
_geom_bond_atom_site_label_1
_geom_bond_atom_site_label_2
_geom_bond_distance
_geom_bond_site_symmetry_2
_ccdc_geom_bond_type
C0 O1 1.306 . S
C0 O3 1.160 . S
O1 C0 1.306 . S
O1 Cd2 2.228 . S
Cd2 O1 2.228 . S
Cd2 O6 2.273 . S
Cd2 O10 2.277 . S
O3 C0 1.160 . S
O3 Cd4 2.203 . S
Cd4 O3 2.203 . S
Cd4 O6 2.411 . S
Cd4 O7 2.333 . S
Cd4 O8 2.352 . S
Cd4 O12 2.277 . S
Cd4 O13 2.356 . S
C5 O10 1.209 . S
C5 O12 1.226 . S
O6 Cd2 2.273 . S
O6 Cd4 2.411 . S
O6 C9 1.320 . S
O7 Cd4 2.333 . S
O7 C9 1.214 . S
O8 Cd4 2.352 . S
O8 C11 1.258 . S
C9 O6 1.320 . S
C9 O7 1.214 . S
O10 Cd2 2.277 . S
O10 C5 1.209 . S
C11 O8 1.258 . S
C11 O13 1.282 . S
O12 Cd4 2.277 . S
O12 C5 1.226 . S
O13 Cd4 2.356 . S
O13 C11 1.282 . S
C14 O15 1.306 . S
C14 O17 1.160 . S
O15 C14 1.306 . S
O15 Cd16 2.228 . S
Cd16 O15 2.228 . S
Cd16 O20 2.273 . S
Cd16 O24 2.277 . S
O17 C14 1.160 . S
O17 Cd18 2.203 . S
Cd18 O17 2.203 . S
Cd18 O20 2.411 . S
Cd18 O21 2.333 . S
Cd18 O22 2.352 . S
Cd18 O26 2.277 . S
Cd18 O27 2.356 . S
C19 O24 1.209 . S
C19 O26 1.226 . S
O20 Cd16 2.273 . S
O20 Cd18 2.411 . S
O20 C23 1.320 . S
O21 Cd18 2.333 . S
O21 C23 1.214 . S
O22 Cd18 2.352 . S
O22 C25 1.258 . S
C23 O20 1.320 . S
C23 O21 1.214 . S
O24 Cd16 2.277 . S
O24 C19 1.209 . S
C25 O22 1.258 . S
C25 O27 1.282 . S
O26 Cd18 2.277 . S
O26 C19 1.226 . S
O27 Cd18 2.356 . S
O27 C25 1.282 . S
C28 O29 1.306 . S
C28 O31 1.160 . S
O29 C28 1.306 . S
O29 Cd30 2.228 . S
Cd30 O29 2.228 . S
Cd30 O34 2.273 . S
Cd30 O38 2.277 . S
O31 C28 1.160 . S
O31 Cd32 2.203 . S
Cd32 O31 2.203 . S
Cd32 O34 2.411 . S
Cd32 O35 2.333 . S
Cd32 O36 2.352 . S
Cd32 O40 2.277 . S
Cd32 O41 2.356 . S
C33 O38 1.209 . S
C33 O40 1.226 . S
O34 Cd30 2.273 . S
O34 Cd32 2.411 . S
O34 C37 1.320 . S
O35 Cd32 2.333 . S
O35 C37 1.214 . S
O36 Cd32 2.352 . S
O36 C39 1.258 . S
C37 O34 1.320 . S
C37 O35 1.214 . S
O38 Cd30 2.277 . S
O38 C33 1.209 . S
C39 O36 1.258 . S
C39 O41 1.282 . S
O40 Cd32 2.277 . S
O40 C33 1.226 . S
O41 Cd32 2.356 . S
O41 C39 1.282 . S
C42 O43 1.306 . S
C42 O45 1.160 . S
O43 C42 1.306 . S
O43 Cd44 2.228 . S
Cd44 O43 2.228 . S
Cd44 O48 2.273 . S
Cd44 O52 2.277 . S
O45 C42 1.160 . S
O45 Cd46 2.203 . S
Cd46 O45 2.203 . S
Cd46 O48 2.411 . S
Cd46 O49 2.333 . S
Cd46 O50 2.352 . S
Cd46 O54 2.277 . S
Cd46 O55 2.356 . S
C47 O52 1.209 . S
C47 O54 1.226 . S
O48 Cd44 2.273 . S
O48 Cd46 2.411 . S
O48 C51 1.320 . S
O49 Cd46 2.333 . S
O49 C51 1.214 . S
O50 Cd46 2.352 . S
O50 C53 1.258 . S
C51 O48 1.320 . S
C51 O49 1.214 . S
O52 Cd44 2.277 . S
O52 C47 1.209 . S
C53 O50 1.258 . S
C53 O55 1.282 . S
O54 Cd46 2.277 . S
O54 C47 1.226 . S
O55 Cd46 2.356 . S
O55 C53 1.282 . S
C56 O57 1.306 . S
C56 O59 1.160 . S
O57 C56 1.306 . S
O57 Cd58 2.228 . S
Cd58 O57 2.228 . S
Cd58 O62 2.273 . S
Cd58 O66 2.277 . S
O59 C56 1.160 . S
O59 Cd60 2.203 . S
Cd60 O59 2.203 . S
Cd60 O62 2.411 . S
Cd60 O63 2.333 . S
Cd60 O64 2.352 . S
Cd60 O68 2.277 . S
Cd60 O69 2.356 . S
C61 O66 1.209 . S
C61 O68 1.226 . S
O62 Cd58 2.273 . S
O62 Cd60 2.411 . S
O62 C65 1.320 . S
O63 Cd60 2.333 . S
O63 C65 1.214 . S
O64 Cd60 2.352 . S
O64 C67 1.258 . S
C65 O62 1.320 . S
C65 O63 1.214 . S
O66 Cd58 2.277 . S
O66 C61 1.209 . S
C67 O64 1.258 . S
C67 O69 1.282 . S
O68 Cd60 2.277 . S
O68 C61 1.226 . S
O69 Cd60 2.356 . S
O69 C67 1.282 . S
C70 O71 1.306 . S
C70 O73 1.160 . S
O71 C70 1.306 . S
O71 Cd72 2.228 . S
Cd72 O71 2.228 . S
Cd72 O76 2.273 . S
Cd72 O80 2.277 . S
O73 C70 1.160 . S
O73 Cd74 2.203 . S
Cd74 O73 2.203 . S
Cd74 O76 2.411 . S
Cd74 O77 2.333 . S
Cd74 O78 2.352 . S
Cd74 O82 2.277 . S
Cd74 O83 2.356 . S
C75 O80 1.209 . S
C75 O82 1.226 . S
O76 Cd72 2.273 . S
O76 Cd74 2.411 . S
O76 C79 1.320 . S
O77 Cd74 2.333 . S
O77 C79 1.214 . S
O78 Cd74 2.352 . S
O78 C81 1.258 . S
C79 O76 1.320 . S
C79 O77 1.214 . S
O80 Cd72 2.277 . S
O80 C75 1.209 . S
C81 O78 1.258 . S
C81 O83 1.282 . S
O82 Cd74 2.277 . S
O82 C75 1.226 . S
O83 Cd74 2.356 . S
O83 C81 1.282 . S
C84 O85 1.306 . S
C84 O87 1.160 . S
O85 C84 1.306 . S
O85 Cd86 2.228 . S
Cd86 O85 2.228 . S
Cd86 O90 2.273 . S
Cd86 O94 2.277 . S
O87 C84 1.160 . S
O87 Cd88 2.203 . S
Cd88 O87 2.203 . S
Cd88 O90 2.411 . S
Cd88 O91 2.333 . S
Cd88 O92 2.352 . S
Cd88 O96 2.277 . S
Cd88 O97 2.356 . S
C89 O94 1.209 . S
C89 O96 1.226 . S
O90 Cd86 2.273 . S
O90 Cd88 2.411 . S
O90 C93 1.320 . S
O91 Cd88 2.333 . S
O91 C93 1.214 . S
O92 Cd88 2.352 . S
O92 C95 1.258 . S
C93 O90 1.320 . S
C93 O91 1.214 . S
O94 Cd86 2.277 . S
O94 C89 1.209 . S
C95 O92 1.258 . S
C95 O97 1.282 . S
O96 Cd88 2.277 . S
O96 C89 1.226 . S
O97 Cd88 2.356 . S
O97 C95 1.282 . S
C98 O99 1.306 . S
C98 O101 1.160 . S
O99 C98 1.306 . S
O99 Cd100 2.228 . S
Cd100 O99 2.228 . S
Cd100 O104 2.273 . S
Cd100 O108 2.277 . S
O101 C98 1.160 . S
O101 Cd102 2.203 . S
Cd102 O101 2.203 . S
Cd102 O104 2.411 . S
Cd102 O105 2.333 . S
Cd102 O106 2.352 . S
Cd102 O110 2.277 . S
Cd102 O111 2.356 . S
C103 O108 1.209 . S
C103 O110 1.226 . S
O104 Cd100 2.273 . S
O104 Cd102 2.411 . S
O104 C107 1.320 . S
O105 Cd102 2.333 . S
O105 C107 1.214 . S
O106 Cd102 2.352 . S
O106 C109 1.258 . S
C107 O104 1.320 . S
C107 O105 1.214 . S
O108 Cd100 2.277 . S
O108 C103 1.209 . S
C109 O106 1.258 . S
C109 O111 1.282 . S
O110 Cd102 2.277 . S
O110 C103 1.226 . S
O111 Cd102 2.356 . S
O111 C109 1.282 . S
C112 O113 1.306 . S
C112 O115 1.160 . S
O113 C112 1.306 . S
O113 Cd114 2.228 . S
Cd114 O113 2.228 . S
Cd114 O118 2.273 . S
Cd114 O122 2.277 . S
O115 C112 1.160 . S
O115 Cd116 2.203 . S
Cd116 O115 2.203 . S
Cd116 O118 2.411 . S
Cd116 O119 2.333 . S
Cd116 O120 2.352 . S
Cd116 O124 2.277 . S
Cd116 O125 2.356 . S
C117 O122 1.209 . S
C117 O124 1.226 . S
O118 Cd114 2.273 . S
O118 Cd116 2.411 . S
O118 C121 1.320 . S
O119 Cd116 2.333 . S
O119 C121 1.214 . S
O120 Cd116 2.352 . S
O120 C123 1.258 . S
C121 O118 1.320 . S
C121 O119 1.214 . S
O122 Cd114 2.277 . S
O122 C117 1.209 . S
C123 O120 1.258 . S
C123 O125 1.282 . S
O124 Cd116 2.277 . S
O124 C117 1.226 . S
O125 Cd116 2.356 . S
O125 C123 1.282 . S
C126 O127 1.306 . S
C126 O129 1.160 . S
O127 C126 1.306 . S
O127 Cd128 2.228 . S
Cd128 O127 2.228 . S
Cd128 O132 2.273 . S
Cd128 O136 2.277 . S
O129 C126 1.160 . S
O129 Cd130 2.203 . S
Cd130 O129 2.203 . S
Cd130 O132 2.411 . S
Cd130 O133 2.333 . S
Cd130 O134 2.352 . S
Cd130 O138 2.277 . S
Cd130 O139 2.356 . S
C131 O136 1.209 . S
C131 O138 1.226 . S
O132 Cd128 2.273 . S
O132 Cd130 2.411 . S
O132 C135 1.320 . S
O133 Cd130 2.333 . S
O133 C135 1.214 . S
O134 Cd130 2.352 . S
O134 C137 1.258 . S
C135 O132 1.320 . S
C135 O133 1.214 . S
O136 Cd128 2.277 . S
O136 C131 1.209 . S
C137 O134 1.258 . S
C137 O139 1.282 . S
O138 Cd130 2.277 . S
O138 C131 1.226 . S
O139 Cd130 2.356 . S
O139 C137 1.282 . S
C140 O141 1.306 . S
C140 O143 1.160 . S
O141 C140 1.306 . S
O141 Cd142 2.228 . S
Cd142 O141 2.228 . S
Cd142 O146 2.273 . S
Cd142 O150 2.277 . S
O143 C140 1.160 . S
O143 Cd144 2.203 . S
Cd144 O143 2.203 . S
Cd144 O146 2.411 . S
Cd144 O147 2.333 . S
Cd144 O148 2.352 . S
Cd144 O152 2.277 . S
Cd144 O153 2.356 . S
C145 O150 1.209 . S
C145 O152 1.226 . S
O146 Cd142 2.273 . S
O146 Cd144 2.411 . S
O146 C149 1.320 . S
O147 Cd144 2.333 . S
O147 C149 1.214 . S
O148 Cd144 2.352 . S
O148 C151 1.258 . S
C149 O146 1.320 . S
C149 O147 1.214 . S
O150 Cd142 2.277 . S
O150 C145 1.209 . S
C151 O148 1.258 . S
C151 O153 1.282 . S
O152 Cd144 2.277 . S
O152 C145 1.226 . S
O153 Cd144 2.356 . S
O153 C151 1.282 . S
C154 O155 1.306 . S
C154 O157 1.160 . S
O155 C154 1.306 . S
O155 Cd156 2.228 . S
Cd156 O155 2.228 . S
Cd156 O160 2.273 . S
Cd156 O164 2.277 . S
O157 C154 1.160 . S
O157 Cd158 2.203 . S
Cd158 O157 2.203 . S
Cd158 O160 2.411 . S
Cd158 O161 2.333 . S
Cd158 O162 2.352 . S
Cd158 O166 2.277 . S
Cd158 O167 2.356 . S
C159 O164 1.209 . S
C159 O166 1.226 . S
O160 Cd156 2.273 . S
O160 Cd158 2.411 . S
O160 C163 1.320 . S
O161 Cd158 2.333 . S
O161 C163 1.214 . S
O162 Cd158 2.352 . S
O162 C165 1.258 . S
C163 O160 1.320 . S
C163 O161 1.214 . S
O164 Cd156 2.277 . S
O164 C159 1.209 . S
C165 O162 1.258 . S
C165 O167 1.282 . S
O166 Cd158 2.277 . S
O166 C159 1.226 . S
O167 Cd158 2.356 . S
O167 C165 1.282 . S
C168 O169 1.306 . S
C168 O171 1.160 . S
O169 C168 1.306 . S
O169 Cd170 2.228 . S
Cd170 O169 2.228 . S
Cd170 O174 2.273 . S
Cd170 O178 2.277 . S
O171 C168 1.160 . S
O171 Cd172 2.203 . S
Cd172 O171 2.203 . S
Cd172 O174 2.411 . S
Cd172 O175 2.333 . S
Cd172 O176 2.352 . S
Cd172 O180 2.277 . S
Cd172 O181 2.356 . S
C173 O178 1.209 . S
C173 O180 1.226 . S
O174 Cd170 2.273 . S
O174 Cd172 2.411 . S
O174 C177 1.320 . S
O175 Cd172 2.333 . S
O175 C177 1.214 . S
O176 Cd172 2.352 . S
O176 C179 1.258 . S
C177 O174 1.320 . S
C177 O175 1.214 . S
O178 Cd170 2.277 . S
O178 C173 1.209 . S
C179 O176 1.258 . S
C179 O181 1.282 . S
O180 Cd172 2.277 . S
O180 C173 1.226 . S
O181 Cd172 2.356 . S
O181 C179 1.282 . S
C182 O183 1.306 . S
C182 O185 1.160 . S
O183 C182 1.306 . S
O183 Cd184 2.228 . S
Cd184 O183 2.228 . S
Cd184 O188 2.273 . S
Cd184 O192 2.277 . S
O185 C182 1.160 . S
O185 Cd186 2.203 . S
Cd186 O185 2.203 . S
Cd186 O188 2.411 . S
Cd186 O189 2.333 . S
Cd186 O190 2.352 . S
Cd186 O194 2.277 . S
Cd186 O195 2.356 . S
C187 O192 1.209 . S
C187 O194 1.226 . S
O188 Cd184 2.273 . S
O188 Cd186 2.411 . S
O188 C191 1.320 . S
O189 Cd186 2.333 . S
O189 C191 1.214 . S
O190 Cd186 2.352 . S
O190 C193 1.258 . S
C191 O188 1.320 . S
C191 O189 1.214 . S
O192 Cd184 2.277 . S
O192 C187 1.209 . S
C193 O190 1.258 . S
C193 O195 1.282 . S
O194 Cd186 2.277 . S
O194 C187 1.226 . S
O195 Cd186 2.356 . S
O195 C193 1.282 . S
C196 O197 1.306 . S
C196 O199 1.160 . S
O197 C196 1.306 . S
O197 Cd198 2.228 . S
Cd198 O197 2.228 . S
Cd198 O202 2.273 . S
Cd198 O206 2.277 . S
O199 C196 1.160 . S
O199 Cd200 2.203 . S
Cd200 O199 2.203 . S
Cd200 O202 2.411 . S
Cd200 O203 2.333 . S
Cd200 O204 2.352 . S
Cd200 O208 2.277 . S
Cd200 O209 2.356 . S
C201 O206 1.209 . S
C201 O208 1.226 . S
O202 Cd198 2.273 . S
O202 Cd200 2.411 . S
O202 C205 1.320 . S
O203 Cd200 2.333 . S
O203 C205 1.214 . S
O204 Cd200 2.352 . S
O204 C207 1.258 . S
C205 O202 1.320 . S
C205 O203 1.214 . S
O206 Cd198 2.277 . S
O206 C201 1.209 . S
C207 O204 1.258 . S
C207 O209 1.282 . S
O208 Cd200 2.277 . S
O208 C201 1.226 . S
O209 Cd200 2.356 . S
O209 C207 1.282 . S
C210 O211 1.306 . S
C210 O213 1.160 . S
O211 C210 1.306 . S
O211 Cd212 2.228 . S
Cd212 O211 2.228 . S
Cd212 O216 2.273 . S
Cd212 O220 2.277 . S
O213 C210 1.160 . S
O213 Cd214 2.203 . S
Cd214 O213 2.203 . S
Cd214 O216 2.411 . S
Cd214 O217 2.333 . S
Cd214 O218 2.352 . S
Cd214 O222 2.277 . S
Cd214 O223 2.356 . S
C215 O220 1.209 . S
C215 O222 1.226 . S
O216 Cd212 2.273 . S
O216 Cd214 2.411 . S
O216 C219 1.320 . S
O217 Cd214 2.333 . S
O217 C219 1.214 . S
O218 Cd214 2.352 . S
O218 C221 1.258 . S
C219 O216 1.320 . S
C219 O217 1.214 . S
O220 Cd212 2.277 . S
O220 C215 1.209 . S
C221 O218 1.258 . S
C221 O223 1.282 . S
O222 Cd214 2.277 . S
O222 C215 1.226 . S
O223 Cd214 2.356 . S
O223 C221 1.282 . S
C224 O225 1.306 . S
C224 O227 1.160 . S
O225 C224 1.306 . S
O225 Cd226 2.228 . S
Cd226 O225 2.228 . S
Cd226 O230 2.273 . S
Cd226 O234 2.277 . S
O227 C224 1.160 . S
O227 Cd228 2.203 . S
Cd228 O227 2.203 . S
Cd228 O230 2.411 . S
Cd228 O231 2.333 . S
Cd228 O232 2.352 . S
Cd228 O236 2.277 . S
Cd228 O237 2.356 . S
C229 O234 1.209 . S
C229 O236 1.226 . S
O230 Cd226 2.273 . S
O230 Cd228 2.411 . S
O230 C233 1.320 . S
O231 Cd228 2.333 . S
O231 C233 1.214 . S
O232 Cd228 2.352 . S
O232 C235 1.258 . S
C233 O230 1.320 . S
C233 O231 1.214 . S
O234 Cd226 2.277 . S
O234 C229 1.209 . S
C235 O232 1.258 . S
C235 O237 1.282 . S
O236 Cd228 2.277 . S
O236 C229 1.226 . S
O237 Cd228 2.356 . S
O237 C235 1.282 . S
C238 O239 1.306 . S
C238 O241 1.160 . S
O239 C238 1.306 . S
O239 Cd240 2.228 . S
Cd240 O239 2.228 . S
Cd240 O244 2.273 . S
Cd240 O248 2.277 . S
O241 C238 1.160 . S
O241 Cd242 2.203 . S
Cd242 O241 2.203 . S
Cd242 O244 2.411 . S
Cd242 O245 2.333 . S
Cd242 O246 2.352 . S
Cd242 O250 2.277 . S
Cd242 O251 2.356 . S
C243 O248 1.209 . S
C243 O250 1.226 . S
O244 Cd240 2.273 . S
O244 Cd242 2.411 . S
O244 C247 1.320 . S
O245 Cd242 2.333 . S
O245 C247 1.214 . S
O246 Cd242 2.352 . S
O246 C249 1.258 . S
C247 O244 1.320 . S
C247 O245 1.214 . S
O248 Cd240 2.277 . S
O248 C243 1.209 . S
C249 O246 1.258 . S
C249 O251 1.282 . S
O250 Cd242 2.277 . S
O250 C243 1.226 . S
O251 Cd242 2.356 . S
O251 C249 1.282 . S
C252 O253 1.306 . S
C252 O255 1.160 . S
O253 C252 1.306 . S
O253 Cd254 2.228 . S
Cd254 O253 2.228 . S
Cd254 O258 2.273 . S
Cd254 O262 2.277 . S
O255 C252 1.160 . S
O255 Cd256 2.203 . S
Cd256 O255 2.203 . S
Cd256 O258 2.411 . S
Cd256 O259 2.333 . S
Cd256 O260 2.352 . S
Cd256 O264 2.277 . S
Cd256 O265 2.356 . S
C257 O262 1.209 . S
C257 O264 1.226 . S
O258 Cd254 2.273 . S
O258 Cd256 2.411 . S
O258 C261 1.320 . S
O259 Cd256 2.333 . S
O259 C261 1.214 . S
O260 Cd256 2.352 . S
O260 C263 1.258 . S
C261 O258 1.320 . S
C261 O259 1.214 . S
O262 Cd254 2.277 . S
O262 C257 1.209 . S
C263 O260 1.258 . S
C263 O265 1.282 . S
O264 Cd256 2.277 . S
O264 C257 1.226 . S
O265 Cd256 2.356 . S
O265 C263 1.282 . S
C266 O267 1.306 . S
C266 O269 1.160 . S
O267 C266 1.306 . S
O267 Cd268 2.228 . S
Cd268 O267 2.228 . S
Cd268 O272 2.273 . S
Cd268 O276 2.277 . S
O269 C266 1.160 . S
O269 Cd270 2.203 . S
Cd270 O269 2.203 . S
Cd270 O272 2.411 . S
Cd270 O273 2.333 . S
Cd270 O274 2.352 . S
Cd270 O278 2.277 . S
Cd270 O279 2.356 . S
C271 O276 1.209 . S
C271 O278 1.226 . S
O272 Cd268 2.273 . S
O272 Cd270 2.411 . S
O272 C275 1.320 . S
O273 Cd270 2.333 . S
O273 C275 1.214 . S
O274 Cd270 2.352 . S
O274 C277 1.258 . S
C275 O272 1.320 . S
C275 O273 1.214 . S
O276 Cd268 2.277 . S
O276 C271 1.209 . S
C277 O274 1.258 . S
C277 O279 1.282 . S
O278 Cd270 2.277 . S
O278 C271 1.226 . S
O279 Cd270 2.356 . S
O279 C277 1.282 . S
C280 O281 1.306 . S
C280 O283 1.160 . S
O281 C280 1.306 . S
O281 Cd282 2.228 . S
Cd282 O281 2.228 . S
Cd282 O286 2.273 . S
Cd282 O290 2.277 . S
O283 C280 1.160 . S
O283 Cd284 2.203 . S
Cd284 O283 2.203 . S
Cd284 O286 2.411 . S
Cd284 O287 2.333 . S
Cd284 O288 2.352 . S
Cd284 O292 2.277 . S
Cd284 O293 2.356 . S
C285 O290 1.209 . S
C285 O292 1.226 . S
O286 Cd282 2.273 . S
O286 Cd284 2.411 . S
O286 C289 1.320 . S
O287 Cd284 2.333 . S
O287 C289 1.214 . S
O288 Cd284 2.352 . S
O288 C291 1.258 . S
C289 O286 1.320 . S
C289 O287 1.214 . S
O290 Cd282 2.277 . S
O290 C285 1.209 . S
C291 O288 1.258 . S
C291 O293 1.282 . S
O292 Cd284 2.277 . S
O292 C285 1.226 . S
O293 Cd284 2.356 . S
O293 C291 1.282 . S
C294 O295 1.306 . S
C294 O297 1.160 . S
O295 C294 1.306 . S
O295 Cd296 2.228 . S
Cd296 O295 2.228 . S
Cd296 O300 2.273 . S
Cd296 O304 2.277 . S
O297 C294 1.160 . S
O297 Cd298 2.203 . S
Cd298 O297 2.203 . S
Cd298 O300 2.411 . S
Cd298 O301 2.333 . S
Cd298 O302 2.352 . S
Cd298 O306 2.277 . S
Cd298 O307 2.356 . S
C299 O304 1.209 . S
C299 O306 1.226 . S
O300 Cd296 2.273 . S
O300 Cd298 2.411 . S
O300 C303 1.320 . S
O301 Cd298 2.333 . S
O301 C303 1.214 . S
O302 Cd298 2.352 . S
O302 C305 1.258 . S
C303 O300 1.320 . S
C303 O301 1.214 . S
O304 Cd296 2.277 . S
O304 C299 1.209 . S
C305 O302 1.258 . S
C305 O307 1.282 . S
O306 Cd298 2.277 . S
O306 C299 1.226 . S
O307 Cd298 2.356 . S
O307 C305 1.282 . S
C308 O309 1.306 . S
C308 O311 1.160 . S
O309 C308 1.306 . S
O309 Cd310 2.228 . S
Cd310 O309 2.228 . S
Cd310 O314 2.273 . S
Cd310 O318 2.277 . S
O311 C308 1.160 . S
O311 Cd312 2.203 . S
Cd312 O311 2.203 . S
Cd312 O314 2.411 . S
Cd312 O315 2.333 . S
Cd312 O316 2.352 . S
Cd312 O320 2.277 . S
Cd312 O321 2.356 . S
C313 O318 1.209 . S
C313 O320 1.226 . S
O314 Cd310 2.273 . S
O314 Cd312 2.411 . S
O314 C317 1.320 . S
O315 Cd312 2.333 . S
O315 C317 1.214 . S
O316 Cd312 2.352 . S
O316 C319 1.258 . S
C317 O314 1.320 . S
C317 O315 1.214 . S
O318 Cd310 2.277 . S
O318 C313 1.209 . S
C319 O316 1.258 . S
C319 O321 1.282 . S
O320 Cd312 2.277 . S
O320 C313 1.226 . S
O321 Cd312 2.356 . S
O321 C319 1.282 . S
C322 O323 1.306 . S
C322 O325 1.160 . S
O323 C322 1.306 . S
O323 Cd324 2.228 . S
Cd324 O323 2.228 . S
Cd324 O328 2.273 . S
Cd324 O332 2.277 . S
O325 C322 1.160 . S
O325 Cd326 2.203 . S
Cd326 O325 2.203 . S
Cd326 O328 2.411 . S
Cd326 O329 2.333 . S
Cd326 O330 2.352 . S
Cd326 O334 2.277 . S
Cd326 O335 2.356 . S
C327 O332 1.209 . S
C327 O334 1.226 . S
O328 Cd324 2.273 . S
O328 Cd326 2.411 . S
O328 C331 1.320 . S
O329 Cd326 2.333 . S
O329 C331 1.214 . S
O330 Cd326 2.352 . S
O330 C333 1.258 . S
C331 O328 1.320 . S
C331 O329 1.214 . S
O332 Cd324 2.277 . S
O332 C327 1.209 . S
C333 O330 1.258 . S
C333 O335 1.282 . S
O334 Cd326 2.277 . S
O334 C327 1.226 . S
O335 Cd326 2.356 . S
O335 C333 1.282 . S
C336 O337 1.306 . S
C336 O339 1.160 . S
O337 C336 1.306 . S
O337 Cd338 2.228 . S
Cd338 O337 2.228 . S
Cd338 O342 2.273 . S
Cd338 O346 2.277 . S
O339 C336 1.160 . S
O339 Cd340 2.203 . S
Cd340 O339 2.203 . S
Cd340 O342 2.411 . S
Cd340 O343 2.333 . S
Cd340 O344 2.352 . S
Cd340 O348 2.277 . S
Cd340 O349 2.356 . S
C341 O346 1.209 . S
C341 O348 1.226 . S
O342 Cd338 2.273 . S
O342 Cd340 2.411 . S
O342 C345 1.320 . S
O343 Cd340 2.333 . S
O343 C345 1.214 . S
O344 Cd340 2.352 . S
O344 C347 1.258 . S
C345 O342 1.320 . S
C345 O343 1.214 . S
O346 Cd338 2.277 . S
O346 C341 1.209 . S
C347 O344 1.258 . S
C347 O349 1.282 . S
O348 Cd340 2.277 . S
O348 C341 1.226 . S
O349 Cd340 2.356 . S
O349 C347 1.282 . S
C350 O351 1.306 . S
C350 O353 1.160 . S
O351 C350 1.306 . S
O351 Cd352 2.228 . S
Cd352 O351 2.228 . S
Cd352 O356 2.273 . S
Cd352 O360 2.277 . S
O353 C350 1.160 . S
O353 Cd354 2.203 . S
Cd354 O353 2.203 . S
Cd354 O356 2.411 . S
Cd354 O357 2.333 . S
Cd354 O358 2.352 . S
Cd354 O362 2.277 . S
Cd354 O363 2.356 . S
C355 O360 1.209 . S
C355 O362 1.226 . S
O356 Cd352 2.273 . S
O356 Cd354 2.411 . S
O356 C359 1.320 . S
O357 Cd354 2.333 . S
O357 C359 1.214 . S
O358 Cd354 2.352 . S
O358 C361 1.258 . S
C359 O356 1.320 . S
C359 O357 1.214 . S
O360 Cd352 2.277 . S
O360 C355 1.209 . S
C361 O358 1.258 . S
C361 O363 1.282 . S
O362 Cd354 2.277 . S
O362 C355 1.226 . S
O363 Cd354 2.356 . S
O363 C361 1.282 . S
C364 O365 1.306 . S
C364 O367 1.160 . S
O365 C364 1.306 . S
O365 Cd366 2.228 . S
Cd366 O365 2.228 . S
Cd366 O370 2.273 . S
Cd366 O374 2.277 . S
O367 C364 1.160 . S
O367 Cd368 2.203 . S
Cd368 O367 2.203 . S
Cd368 O370 2.411 . S
Cd368 O371 2.333 . S
Cd368 O372 2.352 . S
Cd368 O376 2.277 . S
Cd368 O377 2.356 . S
C369 O374 1.209 . S
C369 O376 1.226 . S
O370 Cd366 2.273 . S
O370 Cd368 2.411 . S
O370 C373 1.320 . S
O371 Cd368 2.333 . S
O371 C373 1.214 . S
O372 Cd368 2.352 . S
O372 C375 1.258 . S
C373 O370 1.320 . S
C373 O371 1.214 . S
O374 Cd366 2.277 . S
O374 C369 1.209 . S
C375 O372 1.258 . S
C375 O377 1.282 . S
O376 Cd368 2.277 . S
O376 C369 1.226 . S
O377 Cd368 2.356 . S
O377 C375 1.282 . S
C378 O379 1.306 . S
C378 O381 1.160 . S
O379 C378 1.306 . S
O379 Cd380 2.228 . S
Cd380 O379 2.228 . S
Cd380 O384 2.273 . S
Cd380 O388 2.277 . S
O381 C378 1.160 . S
O381 Cd382 2.203 . S
Cd382 O381 2.203 . S
Cd382 O384 2.411 . S
Cd382 O385 2.333 . S
Cd382 O386 2.352 . S
Cd382 O390 2.277 . S
Cd382 O391 2.356 . S
C383 O388 1.209 . S
C383 O390 1.226 . S
O384 Cd380 2.273 . S
O384 Cd382 2.411 . S
O384 C387 1.320 . S
O385 Cd382 2.333 . S
O385 C387 1.214 . S
O386 Cd382 2.352 . S
O386 C389 1.258 . S
C387 O384 1.320 . S
C387 O385 1.214 . S
O388 Cd380 2.277 . S
O388 C383 1.209 . S
C389 O386 1.258 . S
C389 O391 1.282 . S
O390 Cd382 2.277 . S
O390 C383 1.226 . S
O391 Cd382 2.356 . S
O391 C389 1.282 . S
C392 O393 1.306 . S
C392 O395 1.160 . S
O393 C392 1.306 . S
O393 Cd394 2.228 . S
Cd394 O393 2.228 . S
Cd394 O398 2.273 . S
Cd394 O402 2.277 . S
O395 C392 1.160 . S
O395 Cd396 2.203 . S
Cd396 O395 2.203 . S
Cd396 O398 2.411 . S
Cd396 O399 2.333 . S
Cd396 O400 2.352 . S
Cd396 O404 2.277 . S
Cd396 O405 2.356 . S
C397 O402 1.209 . S
C397 O404 1.226 . S
O398 Cd394 2.273 . S
O398 Cd396 2.411 . S
O398 C401 1.320 . S
O399 Cd396 2.333 . S
O399 C401 1.214 . S
O400 Cd396 2.352 . S
O400 C403 1.258 . S
C401 O398 1.320 . S
C401 O399 1.214 . S
O402 Cd394 2.277 . S
O402 C397 1.209 . S
C403 O400 1.258 . S
C403 O405 1.282 . S
O404 Cd396 2.277 . S
O404 C397 1.226 . S
O405 Cd396 2.356 . S
O405 C403 1.282 . S
C406 O407 1.306 . S
C406 O409 1.160 . S
O407 C406 1.306 . S
O407 Cd408 2.228 . S
Cd408 O407 2.228 . S
Cd408 O412 2.273 . S
Cd408 O416 2.277 . S
O409 C406 1.160 . S
O409 Cd410 2.203 . S
Cd410 O409 2.203 . S
Cd410 O412 2.411 . S
Cd410 O413 2.333 . S
Cd410 O414 2.352 . S
Cd410 O418 2.277 . S
Cd410 O419 2.356 . S
C411 O416 1.209 . S
C411 O418 1.226 . S
O412 Cd408 2.273 . S
O412 Cd410 2.411 . S
O412 C415 1.320 . S
O413 Cd410 2.333 . S
O413 C415 1.214 . S
O414 Cd410 2.352 . S
O414 C417 1.258 . S
C415 O412 1.320 . S
C415 O413 1.214 . S
O416 Cd408 2.277 . S
O416 C411 1.209 . S
C417 O414 1.258 . S
C417 O419 1.282 . S
O418 Cd410 2.277 . S
O418 C411 1.226 . S
O419 Cd410 2.356 . S
O419 C417 1.282 . S
C420 O421 1.306 . S
C420 O423 1.160 . S
O421 C420 1.306 . S
O421 Cd422 2.228 . S
Cd422 O421 2.228 . S
Cd422 O426 2.273 . S
Cd422 O430 2.277 . S
O423 C420 1.160 . S
O423 Cd424 2.203 . S
Cd424 O423 2.203 . S
Cd424 O426 2.411 . S
Cd424 O427 2.333 . S
Cd424 O428 2.352 . S
Cd424 O432 2.277 . S
Cd424 O433 2.356 . S
C425 O430 1.209 . S
C425 O432 1.226 . S
O426 Cd422 2.273 . S
O426 Cd424 2.411 . S
O426 C429 1.320 . S
O427 Cd424 2.333 . S
O427 C429 1.214 . S
O428 Cd424 2.352 . S
O428 C431 1.258 . S
C429 O426 1.320 . S
C429 O427 1.214 . S
O430 Cd422 2.277 . S
O430 C425 1.209 . S
C431 O428 1.258 . S
C431 O433 1.282 . S
O432 Cd424 2.277 . S
O432 C425 1.226 . S
O433 Cd424 2.356 . S
O433 C431 1.282 . S
C434 O435 1.306 . S
C434 O437 1.160 . S
O435 C434 1.306 . S
O435 Cd436 2.228 . S
Cd436 O435 2.228 . S
Cd436 O440 2.273 . S
Cd436 O444 2.277 . S
O437 C434 1.160 . S
O437 Cd438 2.203 . S
Cd438 O437 2.203 . S
Cd438 O440 2.411 . S
Cd438 O441 2.333 . S
Cd438 O442 2.352 . S
Cd438 O446 2.277 . S
Cd438 O447 2.356 . S
C439 O444 1.209 . S
C439 O446 1.226 . S
O440 Cd436 2.273 . S
O440 Cd438 2.411 . S
O440 C443 1.320 . S
O441 Cd438 2.333 . S
O441 C443 1.214 . S
O442 Cd438 2.352 . S
O442 C445 1.258 . S
C443 O440 1.320 . S
C443 O441 1.214 . S
O444 Cd436 2.277 . S
O444 C439 1.209 . S
C445 O442 1.258 . S
C445 O447 1.282 . S
O446 Cd438 2.277 . S
O446 C439 1.226 . S
O447 Cd438 2.356 . S
O447 C445 1.282 . S
H448 C456 0.929 . S
H449 C458 0.930 . S
H450 C460 0.930 . S
H451 C463 0.929 . S
H452 C466 0.930 . S
H453 C468 0.960 . S
H454 C468 0.960 . S
H455 C468 0.960 . S
C456 H448 0.929 . S
C456 C457 1.377 . S
C456 C458 1.384 . S
C457 C456 1.377 . S
C457 C463 1.390 . S
C458 H449 0.930 . S
C458 C456 1.384 . S
C458 C459 1.372 . S
C459 C458 1.372 . S
C459 C460 1.400 . S
C459 C464 1.490 . S
C460 H450 0.930 . S
C460 C459 1.400 . S
C460 C463 1.386 . S
H461 C477 0.930 . S
H462 C478 0.931 . S
C463 H451 0.929 . S
C463 C457 1.390 . S
C463 C460 1.386 . S
C464 C459 1.490 . S
C464 C466 1.395 . S
C464 C467 1.403 . S
H465 C471 0.930 . S
C466 H452 0.930 . S
C466 C464 1.395 . S
C466 C469 1.403 . S
C467 C464 1.403 . S
C467 C468 1.524 . S
C467 C471 1.400 . S
C468 H453 0.960 . S
C468 H454 0.960 . S
C468 H455 0.960 . S
C468 C467 1.524 . S
C469 C466 1.403 . S
C469 C470 1.392 . S
C469 C473 1.495 . S
C470 C469 1.392 . S
C470 C471 1.385 . S
C470 C472 1.478 . S
C471 H465 0.930 . S
C471 C467 1.400 . S
C471 C470 1.385 . S
C472 C470 1.478 . S
C472 C474 1.381 . S
C472 C478 1.383 . S
C473 C469 1.495 . S
C473 H479 0.959 . S
C473 H480 0.961 . S
C473 H481 0.960 . S
C474 C472 1.381 . S
C474 C475 1.394 . S
C474 H482 0.930 . S
C475 C474 1.394 . S
C475 C476 1.383 . S
C475 H483 0.929 . S
C476 C475 1.383 . S
C476 C477 1.377 . S
C477 H461 0.930 . S
C477 C476 1.377 . S
C477 C478 1.379 . S
C478 H462 0.931 . S
C478 C472 1.383 . S
C478 C477 1.379 . S
H479 C473 0.959 . S
H480 C473 0.961 . S
H481 C473 0.960 . S
H482 C474 0.930 . S
H483 C475 0.929 . S
H484 C492 0.929 . S
H485 C494 0.930 . S
H486 C496 0.930 . S
H487 C499 0.929 . S
H488 C502 0.930 . S
H489 C504 0.960 . S
H490 C504 0.960 . S
H491 C504 0.960 . S
C492 H484 0.929 . S
C492 C493 1.377 . S
C492 C494 1.384 . S
C493 C492 1.377 . S
C493 C499 1.390 . S
C494 H485 0.930 . S
C494 C492 1.384 . S
C494 C495 1.372 . S
C495 C494 1.372 . S
C495 C496 1.400 . S
C495 C500 1.490 . S
C496 H486 0.930 . S
C496 C495 1.400 . S
C496 C499 1.386 . S
H497 C513 0.930 . S
H498 C514 0.931 . S
C499 H487 0.929 . S
C499 C493 1.390 . S
C499 C496 1.386 . S
C500 C495 1.490 . S
C500 C502 1.395 . S
C500 C503 1.403 . S
H501 C507 0.930 . S
C502 H488 0.930 . S
C502 C500 1.395 . S
C502 C505 1.403 . S
C503 C500 1.403 . S
C503 C504 1.524 . S
C503 C507 1.400 . S
C504 H489 0.960 . S
C504 H490 0.960 . S
C504 H491 0.960 . S
C504 C503 1.524 . S
C505 C502 1.403 . S
C505 C506 1.392 . S
C505 C509 1.495 . S
C506 C505 1.392 . S
C506 C507 1.385 . S
C506 C508 1.478 . S
C507 H501 0.930 . S
C507 C503 1.400 . S
C507 C506 1.385 . S
C508 C506 1.478 . S
C508 C510 1.381 . S
C508 C514 1.383 . S
C509 C505 1.495 . S
C509 H515 0.959 . S
C509 H516 0.961 . S
C509 H517 0.960 . S
C510 C508 1.381 . S
C510 C511 1.394 . S
C510 H518 0.930 . S
C511 C510 1.394 . S
C511 C512 1.383 . S
C511 H519 0.929 . S
C512 C511 1.383 . S
C512 C513 1.377 . S
C513 H497 0.930 . S
C513 C512 1.377 . S
C513 C514 1.379 . S
C514 H498 0.931 . S
C514 C508 1.383 . S
C514 C513 1.379 . S
H515 C509 0.959 . S
H516 C509 0.961 . S
H517 C509 0.960 . S
H518 C510 0.930 . S
H519 C511 0.929 . S
H520 C528 0.929 . S
H521 C530 0.930 . S
H522 C532 0.930 . S
H523 C535 0.929 . S
H524 C538 0.930 . S
H525 C540 0.960 . S
H526 C540 0.960 . S
H527 C540 0.960 . S
C528 H520 0.929 . S
C528 C529 1.377 . S
C528 C530 1.384 . S
C529 C528 1.377 . S
C529 C535 1.390 . S
C530 H521 0.930 . S
C530 C528 1.384 . S
C530 C531 1.372 . S
C531 C530 1.372 . S
C531 C532 1.400 . S
C531 C536 1.490 . S
C532 H522 0.930 . S
C532 C531 1.400 . S
C532 C535 1.386 . S
H533 C549 0.930 . S
H534 C550 0.931 . S
C535 H523 0.929 . S
C535 C529 1.390 . S
C535 C532 1.386 . S
C536 C531 1.490 . S
C536 C538 1.395 . S
C536 C539 1.403 . S
H537 C543 0.930 . S
C538 H524 0.930 . S
C538 C536 1.395 . S
C538 C541 1.403 . S
C539 C536 1.403 . S
C539 C540 1.524 . S
C539 C543 1.400 . S
C540 H525 0.960 . S
C540 H526 0.960 . S
C540 H527 0.960 . S
C540 C539 1.524 . S
C541 C538 1.403 . S
C541 C542 1.392 . S
C541 C545 1.495 . S
C542 C541 1.392 . S
C542 C543 1.385 . S
C542 C544 1.478 . S
C543 H537 0.930 . S
C543 C539 1.400 . S
C543 C542 1.385 . S
C544 C542 1.478 . S
C544 C546 1.381 . S
C544 C550 1.383 . S
C545 C541 1.495 . S
C545 H551 0.959 . S
C545 H552 0.961 . S
C545 H553 0.960 . S
C546 C544 1.381 . S
C546 C547 1.394 . S
C546 H554 0.930 . S
C547 C546 1.394 . S
C547 C548 1.383 . S
C547 H555 0.929 . S
C548 C547 1.383 . S
C548 C549 1.377 . S
C549 H533 0.930 . S
C549 C548 1.377 . S
C549 C550 1.379 . S
C550 H534 0.931 . S
C550 C544 1.383 . S
C550 C549 1.379 . S
H551 C545 0.959 . S
H552 C545 0.961 . S
H553 C545 0.960 . S
H554 C546 0.930 . S
H555 C547 0.929 . S
H556 C564 0.929 . S
H557 C566 0.930 . S
H558 C568 0.930 . S
H559 C571 0.929 . S
H560 C574 0.930 . S
H561 C576 0.960 . S
H562 C576 0.960 . S
H563 C576 0.960 . S
C564 H556 0.929 . S
C564 C565 1.377 . S
C564 C566 1.384 . S
C565 C564 1.377 . S
C565 C571 1.390 . S
C566 H557 0.930 . S
C566 C564 1.384 . S
C566 C567 1.372 . S
C567 C566 1.372 . S
C567 C568 1.400 . S
C567 C572 1.490 . S
C568 H558 0.930 . S
C568 C567 1.400 . S
C568 C571 1.386 . S
H569 C585 0.930 . S
H570 C586 0.931 . S
C571 H559 0.929 . S
C571 C565 1.390 . S
C571 C568 1.386 . S
C572 C567 1.490 . S
C572 C574 1.395 . S
C572 C575 1.403 . S
H573 C579 0.930 . S
C574 H560 0.930 . S
C574 C572 1.395 . S
C574 C577 1.403 . S
C575 C572 1.403 . S
C575 C576 1.524 . S
C575 C579 1.400 . S
C576 H561 0.960 . S
C576 H562 0.960 . S
C576 H563 0.960 . S
C576 C575 1.524 . S
C577 C574 1.403 . S
C577 C578 1.392 . S
C577 C581 1.495 . S
C578 C577 1.392 . S
C578 C579 1.385 . S
C578 C580 1.478 . S
C579 H573 0.930 . S
C579 C575 1.400 . S
C579 C578 1.385 . S
C580 C578 1.478 . S
C580 C582 1.381 . S
C580 C586 1.383 . S
C581 C577 1.495 . S
C581 H587 0.959 . S
C581 H588 0.961 . S
C581 H589 0.960 . S
C582 C580 1.381 . S
C582 C583 1.394 . S
C582 H590 0.930 . S
C583 C582 1.394 . S
C583 C584 1.383 . S
C583 H591 0.929 . S
C584 C583 1.383 . S
C584 C585 1.377 . S
C585 H569 0.930 . S
C585 C584 1.377 . S
C585 C586 1.379 . S
C586 H570 0.931 . S
C586 C580 1.383 . S
C586 C585 1.379 . S
H587 C581 0.959 . S
H588 C581 0.961 . S
H589 C581 0.960 . S
H590 C582 0.930 . S
H591 C583 0.929 . S
H592 C600 0.929 . S
H593 C602 0.930 . S
H594 C604 0.930 . S
H595 C607 0.929 . S
H596 C610 0.930 . S
H597 C612 0.960 . S
H598 C612 0.960 . S
H599 C612 0.960 . S
C600 H592 0.929 . S
C600 C601 1.377 . S
C600 C602 1.384 . S
C601 C600 1.377 . S
C601 C607 1.390 . S
C602 H593 0.930 . S
C602 C600 1.384 . S
C602 C603 1.372 . S
C603 C602 1.372 . S
C603 C604 1.400 . S
C603 C608 1.490 . S
C604 H594 0.930 . S
C604 C603 1.400 . S
C604 C607 1.386 . S
H605 C621 0.930 . S
H606 C622 0.931 . S
C607 H595 0.929 . S
C607 C601 1.390 . S
C607 C604 1.386 . S
C608 C603 1.490 . S
C608 C610 1.395 . S
C608 C611 1.403 . S
H609 C615 0.930 . S
C610 H596 0.930 . S
C610 C608 1.395 . S
C610 C613 1.403 . S
C611 C608 1.403 . S
C611 C612 1.524 . S
C611 C615 1.400 . S
C612 H597 0.960 . S
C612 H598 0.960 . S
C612 H599 0.960 . S
C612 C611 1.524 . S
C613 C610 1.403 . S
C613 C614 1.392 . S
C613 C617 1.495 . S
C614 C613 1.392 . S
C614 C615 1.385 . S
C614 C616 1.478 . S
C615 H609 0.930 . S
C615 C611 1.400 . S
C615 C614 1.385 . S
C616 C614 1.478 . S
C616 C618 1.381 . S
C616 C622 1.383 . S
C617 C613 1.495 . S
C617 H623 0.959 . S
C617 H624 0.961 . S
C617 H625 0.960 . S
C618 C616 1.381 . S
C618 C619 1.394 . S
C618 H626 0.930 . S
C619 C618 1.394 . S
C619 C620 1.383 . S
C619 H627 0.929 . S
C620 C619 1.383 . S
C620 C621 1.377 . S
C621 H605 0.930 . S
C621 C620 1.377 . S
C621 C622 1.379 . S
C622 H606 0.931 . S
C622 C616 1.383 . S
C622 C621 1.379 . S
H623 C617 0.959 . S
H624 C617 0.961 . S
H625 C617 0.960 . S
H626 C618 0.930 . S
H627 C619 0.929 . S
H628 C636 0.929 . S
H629 C638 0.930 . S
H630 C640 0.930 . S
H631 C643 0.929 . S
H632 C646 0.930 . S
H633 C648 0.960 . S
H634 C648 0.960 . S
H635 C648 0.960 . S
C636 H628 0.929 . S
C636 C637 1.377 . S
C636 C638 1.384 . S
C637 C636 1.377 . S
C637 C643 1.390 . S
C638 H629 0.930 . S
C638 C636 1.384 . S
C638 C639 1.372 . S
C639 C638 1.372 . S
C639 C640 1.400 . S
C639 C644 1.490 . S
C640 H630 0.930 . S
C640 C639 1.400 . S
C640 C643 1.386 . S
H641 C657 0.930 . S
H642 C658 0.931 . S
C643 H631 0.929 . S
C643 C637 1.390 . S
C643 C640 1.386 . S
C644 C639 1.490 . S
C644 C646 1.395 . S
C644 C647 1.403 . S
H645 C651 0.930 . S
C646 H632 0.930 . S
C646 C644 1.395 . S
C646 C649 1.403 . S
C647 C644 1.403 . S
C647 C648 1.524 . S
C647 C651 1.400 . S
C648 H633 0.960 . S
C648 H634 0.960 . S
C648 H635 0.960 . S
C648 C647 1.524 . S
C649 C646 1.403 . S
C649 C650 1.392 . S
C649 C653 1.495 . S
C650 C649 1.392 . S
C650 C651 1.385 . S
C650 C652 1.478 . S
C651 H645 0.930 . S
C651 C647 1.400 . S
C651 C650 1.385 . S
C652 C650 1.478 . S
C652 C654 1.381 . S
C652 C658 1.383 . S
C653 C649 1.495 . S
C653 H659 0.959 . S
C653 H660 0.961 . S
C653 H661 0.960 . S
C654 C652 1.381 . S
C654 C655 1.394 . S
C654 H662 0.930 . S
C655 C654 1.394 . S
C655 C656 1.383 . S
C655 H663 0.929 . S
C656 C655 1.383 . S
C656 C657 1.377 . S
C657 H641 0.930 . S
C657 C656 1.377 . S
C657 C658 1.379 . S
C658 H642 0.931 . S
C658 C652 1.383 . S
C658 C657 1.379 . S
H659 C653 0.959 . S
H660 C653 0.961 . S
H661 C653 0.960 . S
H662 C654 0.930 . S
H663 C655 0.929 . S
H664 C672 0.929 . S
H665 C674 0.930 . S
H666 C676 0.930 . S
H667 C679 0.929 . S
H668 C682 0.930 . S
H669 C684 0.960 . S
H670 C684 0.960 . S
H671 C684 0.960 . S
C672 H664 0.929 . S
C672 C673 1.377 . S
C672 C674 1.384 . S
C673 C672 1.377 . S
C673 C679 1.390 . S
C674 H665 0.930 . S
C674 C672 1.384 . S
C674 C675 1.372 . S
C675 C674 1.372 . S
C675 C676 1.400 . S
C675 C680 1.490 . S
C676 H666 0.930 . S
C676 C675 1.400 . S
C676 C679 1.386 . S
H677 C693 0.930 . S
H678 C694 0.931 . S
C679 H667 0.929 . S
C679 C673 1.390 . S
C679 C676 1.386 . S
C680 C675 1.490 . S
C680 C682 1.395 . S
C680 C683 1.403 . S
H681 C687 0.930 . S
C682 H668 0.930 . S
C682 C680 1.395 . S
C682 C685 1.403 . S
C683 C680 1.403 . S
C683 C684 1.524 . S
C683 C687 1.400 . S
C684 H669 0.960 . S
C684 H670 0.960 . S
C684 H671 0.960 . S
C684 C683 1.524 . S
C685 C682 1.403 . S
C685 C686 1.392 . S
C685 C689 1.495 . S
C686 C685 1.392 . S
C686 C687 1.385 . S
C686 C688 1.478 . S
C687 H681 0.930 . S
C687 C683 1.400 . S
C687 C686 1.385 . S
C688 C686 1.478 . S
C688 C690 1.381 . S
C688 C694 1.383 . S
C689 C685 1.495 . S
C689 H695 0.959 . S
C689 H696 0.961 . S
C689 H697 0.960 . S
C690 C688 1.381 . S
C690 C691 1.394 . S
C690 H698 0.930 . S
C691 C690 1.394 . S
C691 C692 1.383 . S
C691 H699 0.929 . S
C692 C691 1.383 . S
C692 C693 1.377 . S
C693 H677 0.930 . S
C693 C692 1.377 . S
C693 C694 1.379 . S
C694 H678 0.931 . S
C694 C688 1.383 . S
C694 C693 1.379 . S
H695 C689 0.959 . S
H696 C689 0.961 . S
H697 C689 0.960 . S
H698 C690 0.930 . S
H699 C691 0.929 . S
H700 C708 0.929 . S
H701 C710 0.930 . S
H702 C712 0.930 . S
H703 C715 0.929 . S
H704 C718 0.930 . S
H705 C720 0.960 . S
H706 C720 0.960 . S
H707 C720 0.960 . S
C708 H700 0.929 . S
C708 C709 1.377 . S
C708 C710 1.384 . S
C709 C708 1.377 . S
C709 C715 1.390 . S
C710 H701 0.930 . S
C710 C708 1.384 . S
C710 C711 1.372 . S
C711 C710 1.372 . S
C711 C712 1.400 . S
C711 C716 1.490 . S
C712 H702 0.930 . S
C712 C711 1.400 . S
C712 C715 1.386 . S
H713 C729 0.930 . S
H714 C730 0.931 . S
C715 H703 0.929 . S
C715 C709 1.390 . S
C715 C712 1.386 . S
C716 C711 1.490 . S
C716 C718 1.395 . S
C716 C719 1.403 . S
H717 C723 0.930 . S
C718 H704 0.930 . S
C718 C716 1.395 . S
C718 C721 1.403 . S
C719 C716 1.403 . S
C719 C720 1.524 . S
C719 C723 1.400 . S
C720 H705 0.960 . S
C720 H706 0.960 . S
C720 H707 0.960 . S
C720 C719 1.524 . S
C721 C718 1.403 . S
C721 C722 1.392 . S
C721 C725 1.495 . S
C722 C721 1.392 . S
C722 C723 1.385 . S
C722 C724 1.478 . S
C723 H717 0.930 . S
C723 C719 1.400 . S
C723 C722 1.385 . S
C724 C722 1.478 . S
C724 C726 1.381 . S
C724 C730 1.383 . S
C725 C721 1.495 . S
C725 H731 0.959 . S
C725 H732 0.961 . S
C725 H733 0.960 . S
C726 C724 1.381 . S
C726 C727 1.394 . S
C726 H734 0.930 . S
C727 C726 1.394 . S
C727 C728 1.383 . S
C727 H735 0.929 . S
C728 C727 1.383 . S
C728 C729 1.377 . S
C729 H713 0.930 . S
C729 C728 1.377 . S
C729 C730 1.379 . S
C730 H714 0.931 . S
C730 C724 1.383 . S
C730 C729 1.379 . S
H731 C725 0.959 . S
H732 C725 0.961 . S
H733 C725 0.960 . S
H734 C726 0.930 . S
H735 C727 0.929 . S
H736 C744 0.929 . S
H737 C746 0.930 . S
H738 C748 0.930 . S
H739 C751 0.929 . S
H740 C754 0.930 . S
H741 C756 0.960 . S
H742 C756 0.960 . S
H743 C756 0.960 . S
C744 H736 0.929 . S
C744 C745 1.377 . S
C744 C746 1.384 . S
C745 C744 1.377 . S
C745 C751 1.390 . S
C746 H737 0.930 . S
C746 C744 1.384 . S
C746 C747 1.372 . S
C747 C746 1.372 . S
C747 C748 1.400 . S
C747 C752 1.490 . S
C748 H738 0.930 . S
C748 C747 1.400 . S
C748 C751 1.386 . S
H749 C765 0.930 . S
H750 C766 0.931 . S
C751 H739 0.929 . S
C751 C745 1.390 . S
C751 C748 1.386 . S
C752 C747 1.490 . S
C752 C754 1.395 . S
C752 C755 1.403 . S
H753 C759 0.930 . S
C754 H740 0.930 . S
C754 C752 1.395 . S
C754 C757 1.403 . S
C755 C752 1.403 . S
C755 C756 1.524 . S
C755 C759 1.400 . S
C756 H741 0.960 . S
C756 H742 0.960 . S
C756 H743 0.960 . S
C756 C755 1.524 . S
C757 C754 1.403 . S
C757 C758 1.392 . S
C757 C761 1.495 . S
C758 C757 1.392 . S
C758 C759 1.385 . S
C758 C760 1.478 . S
C759 H753 0.930 . S
C759 C755 1.400 . S
C759 C758 1.385 . S
C760 C758 1.478 . S
C760 C762 1.381 . S
C760 C766 1.383 . S
C761 C757 1.495 . S
C761 H767 0.959 . S
C761 H768 0.961 . S
C761 H769 0.960 . S
C762 C760 1.381 . S
C762 C763 1.394 . S
C762 H770 0.930 . S
C763 C762 1.394 . S
C763 C764 1.383 . S
C763 H771 0.929 . S
C764 C763 1.383 . S
C764 C765 1.377 . S
C765 H749 0.930 . S
C765 C764 1.377 . S
C765 C766 1.379 . S
C766 H750 0.931 . S
C766 C760 1.383 . S
C766 C765 1.379 . S
H767 C761 0.959 . S
H768 C761 0.961 . S
H769 C761 0.960 . S
H770 C762 0.930 . S
H771 C763 0.929 . S
H772 C780 0.929 . S
H773 C782 0.930 . S
H774 C784 0.930 . S
H775 C787 0.929 . S
H776 C790 0.930 . S
H777 C792 0.960 . S
H778 C792 0.960 . S
H779 C792 0.960 . S
C780 H772 0.929 . S
C780 C781 1.377 . S
C780 C782 1.384 . S
C781 C780 1.377 . S
C781 C787 1.390 . S
C782 H773 0.930 . S
C782 C780 1.384 . S
C782 C783 1.372 . S
C783 C782 1.372 . S
C783 C784 1.400 . S
C783 C788 1.490 . S
C784 H774 0.930 . S
C784 C783 1.400 . S
C784 C787 1.386 . S
H785 C801 0.930 . S
H786 C802 0.931 . S
C787 H775 0.929 . S
C787 C781 1.390 . S
C787 C784 1.386 . S
C788 C783 1.490 . S
C788 C790 1.395 . S
C788 C791 1.403 . S
H789 C795 0.930 . S
C790 H776 0.930 . S
C790 C788 1.395 . S
C790 C793 1.403 . S
C791 C788 1.403 . S
C791 C792 1.524 . S
C791 C795 1.400 . S
C792 H777 0.960 . S
C792 H778 0.960 . S
C792 H779 0.960 . S
C792 C791 1.524 . S
C793 C790 1.403 . S
C793 C794 1.392 . S
C793 C797 1.495 . S
C794 C793 1.392 . S
C794 C795 1.385 . S
C794 C796 1.478 . S
C795 H789 0.930 . S
C795 C791 1.400 . S
C795 C794 1.385 . S
C796 C794 1.478 . S
C796 C798 1.381 . S
C796 C802 1.383 . S
C797 C793 1.495 . S
C797 H803 0.959 . S
C797 H804 0.961 . S
C797 H805 0.960 . S
C798 C796 1.381 . S
C798 C799 1.394 . S
C798 H806 0.930 . S
C799 C798 1.394 . S
C799 C800 1.383 . S
C799 H807 0.929 . S
C800 C799 1.383 . S
C800 C801 1.377 . S
C801 H785 0.930 . S
C801 C800 1.377 . S
C801 C802 1.379 . S
C802 H786 0.931 . S
C802 C796 1.383 . S
C802 C801 1.379 . S
H803 C797 0.959 . S
H804 C797 0.961 . S
H805 C797 0.960 . S
H806 C798 0.930 . S
H807 C799 0.929 . S
H808 C816 0.929 . S
H809 C818 0.930 . S
H810 C820 0.930 . S
H811 C823 0.929 . S
H812 C826 0.930 . S
H813 C828 0.960 . S
H814 C828 0.960 . S
H815 C828 0.960 . S
C816 H808 0.929 . S
C816 C817 1.377 . S
C816 C818 1.384 . S
C817 C816 1.377 . S
C817 C823 1.390 . S
C818 H809 0.930 . S
C818 C816 1.384 . S
C818 C819 1.372 . S
C819 C818 1.372 . S
C819 C820 1.400 . S
C819 C824 1.490 . S
C820 H810 0.930 . S
C820 C819 1.400 . S
C820 C823 1.386 . S
H821 C837 0.930 . S
H822 C838 0.931 . S
C823 H811 0.929 . S
C823 C817 1.390 . S
C823 C820 1.386 . S
C824 C819 1.490 . S
C824 C826 1.395 . S
C824 C827 1.403 . S
H825 C831 0.930 . S
C826 H812 0.930 . S
C826 C824 1.395 . S
C826 C829 1.403 . S
C827 C824 1.403 . S
C827 C828 1.524 . S
C827 C831 1.400 . S
C828 H813 0.960 . S
C828 H814 0.960 . S
C828 H815 0.960 . S
C828 C827 1.524 . S
C829 C826 1.403 . S
C829 C830 1.392 . S
C829 C833 1.495 . S
C830 C829 1.392 . S
C830 C831 1.385 . S
C830 C832 1.478 . S
C831 H825 0.930 . S
C831 C827 1.400 . S
C831 C830 1.385 . S
C832 C830 1.478 . S
C832 C834 1.381 . S
C832 C838 1.383 . S
C833 C829 1.495 . S
C833 H839 0.959 . S
C833 H840 0.961 . S
C833 H841 0.960 . S
C834 C832 1.381 . S
C834 C835 1.394 . S
C834 H842 0.930 . S
C835 C834 1.394 . S
C835 C836 1.383 . S
C835 H843 0.929 . S
C836 C835 1.383 . S
C836 C837 1.377 . S
C837 H821 0.930 . S
C837 C836 1.377 . S
C837 C838 1.379 . S
C838 H822 0.931 . S
C838 C832 1.383 . S
C838 C837 1.379 . S
H839 C833 0.959 . S
H840 C833 0.961 . S
H841 C833 0.960 . S
H842 C834 0.930 . S
H843 C835 0.929 . S
H844 C852 0.929 . S
H845 C854 0.930 . S
H846 C856 0.930 . S
H847 C859 0.929 . S
H848 C862 0.930 . S
H849 C864 0.960 . S
H850 C864 0.960 . S
H851 C864 0.960 . S
C852 H844 0.929 . S
C852 C853 1.377 . S
C852 C854 1.384 . S
C853 C852 1.377 . S
C853 C859 1.390 . S
C854 H845 0.930 . S
C854 C852 1.384 . S
C854 C855 1.372 . S
C855 C854 1.372 . S
C855 C856 1.400 . S
C855 C860 1.490 . S
C856 H846 0.930 . S
C856 C855 1.400 . S
C856 C859 1.386 . S
H857 C873 0.930 . S
H858 C874 0.931 . S
C859 H847 0.929 . S
C859 C853 1.390 . S
C859 C856 1.386 . S
C860 C855 1.490 . S
C860 C862 1.395 . S
C860 C863 1.403 . S
H861 C867 0.930 . S
C862 H848 0.930 . S
C862 C860 1.395 . S
C862 C865 1.403 . S
C863 C860 1.403 . S
C863 C864 1.524 . S
C863 C867 1.400 . S
C864 H849 0.960 . S
C864 H850 0.960 . S
C864 H851 0.960 . S
C864 C863 1.524 . S
C865 C862 1.403 . S
C865 C866 1.392 . S
C865 C869 1.495 . S
C866 C865 1.392 . S
C866 C867 1.385 . S
C866 C868 1.478 . S
C867 H861 0.930 . S
C867 C863 1.400 . S
C867 C866 1.385 . S
C868 C866 1.478 . S
C868 C870 1.381 . S
C868 C874 1.383 . S
C869 C865 1.495 . S
C869 H875 0.959 . S
C869 H876 0.961 . S
C869 H877 0.960 . S
C870 C868 1.381 . S
C870 C871 1.394 . S
C870 H878 0.930 . S
C871 C870 1.394 . S
C871 C872 1.383 . S
C871 H879 0.929 . S
C872 C871 1.383 . S
C872 C873 1.377 . S
C873 H857 0.930 . S
C873 C872 1.377 . S
C873 C874 1.379 . S
C874 H858 0.931 . S
C874 C868 1.383 . S
C874 C873 1.379 . S
H875 C869 0.959 . S
H876 C869 0.961 . S
H877 C869 0.960 . S
H878 C870 0.930 . S
H879 C871 0.929 . S
H880 C888 0.929 . S
H881 C890 0.930 . S
H882 C892 0.930 . S
H883 C895 0.929 . S
H884 C898 0.930 . S
H885 C900 0.960 . S
H886 C900 0.960 . S
H887 C900 0.960 . S
C888 H880 0.929 . S
C888 C889 1.377 . S
C888 C890 1.384 . S
C889 C888 1.377 . S
C889 C895 1.390 . S
C890 H881 0.930 . S
C890 C888 1.384 . S
C890 C891 1.372 . S
C891 C890 1.372 . S
C891 C892 1.400 . S
C891 C896 1.490 . S
C892 H882 0.930 . S
C892 C891 1.400 . S
C892 C895 1.386 . S
H893 C909 0.930 . S
H894 C910 0.931 . S
C895 H883 0.929 . S
C895 C889 1.390 . S
C895 C892 1.386 . S
C896 C891 1.490 . S
C896 C898 1.395 . S
C896 C899 1.403 . S
H897 C903 0.930 . S
C898 H884 0.930 . S
C898 C896 1.395 . S
C898 C901 1.403 . S
C899 C896 1.403 . S
C899 C900 1.524 . S
C899 C903 1.400 . S
C900 H885 0.960 . S
C900 H886 0.960 . S
C900 H887 0.960 . S
C900 C899 1.524 . S
C901 C898 1.403 . S
C901 C902 1.392 . S
C901 C905 1.495 . S
C902 C901 1.392 . S
C902 C903 1.385 . S
C902 C904 1.478 . S
C903 H897 0.930 . S
C903 C899 1.400 . S
C903 C902 1.385 . S
C904 C902 1.478 . S
C904 C906 1.381 . S
C904 C910 1.383 . S
C905 C901 1.495 . S
C905 H911 0.959 . S
C905 H912 0.961 . S
C905 H913 0.960 . S
C906 C904 1.381 . S
C906 C907 1.394 . S
C906 H914 0.930 . S
C907 C906 1.394 . S
C907 C908 1.383 . S
C907 H915 0.929 . S
C908 C907 1.383 . S
C908 C909 1.377 . S
C909 H893 0.930 . S
C909 C908 1.377 . S
C909 C910 1.379 . S
C910 H894 0.931 . S
C910 C904 1.383 . S
C910 C909 1.379 . S
H911 C905 0.959 . S
H912 C905 0.961 . S
H913 C905 0.960 . S
H914 C906 0.930 . S
H915 C907 0.929 . S
H916 C924 0.929 . S
H917 C926 0.930 . S
H918 C928 0.930 . S
H919 C931 0.929 . S
H920 C934 0.930 . S
H921 C936 0.960 . S
H922 C936 0.960 . S
H923 C936 0.960 . S
C924 H916 0.929 . S
C924 C925 1.377 . S
C924 C926 1.384 . S
C925 C924 1.377 . S
C925 C931 1.390 . S
C926 H917 0.930 . S
C926 C924 1.384 . S
C926 C927 1.372 . S
C927 C926 1.372 . S
C927 C928 1.400 . S
C927 C932 1.490 . S
C928 H918 0.930 . S
C928 C927 1.400 . S
C928 C931 1.386 . S
H929 C945 0.930 . S
H930 C946 0.931 . S
C931 H919 0.929 . S
C931 C925 1.390 . S
C931 C928 1.386 . S
C932 C927 1.490 . S
C932 C934 1.395 . S
C932 C935 1.403 . S
H933 C939 0.930 . S
C934 H920 0.930 . S
C934 C932 1.395 . S
C934 C937 1.403 . S
C935 C932 1.403 . S
C935 C936 1.524 . S
C935 C939 1.400 . S
C936 H921 0.960 . S
C936 H922 0.960 . S
C936 H923 0.960 . S
C936 C935 1.524 . S
C937 C934 1.403 . S
C937 C938 1.392 . S
C937 C941 1.495 . S
C938 C937 1.392 . S
C938 C939 1.385 . S
C938 C940 1.478 . S
C939 H933 0.930 . S
C939 C935 1.400 . S
C939 C938 1.385 . S
C940 C938 1.478 . S
C940 C942 1.381 . S
C940 C946 1.383 . S
C941 C937 1.495 . S
C941 H947 0.959 . S
C941 H948 0.961 . S
C941 H949 0.960 . S
C942 C940 1.381 . S
C942 C943 1.394 . S
C942 H950 0.930 . S
C943 C942 1.394 . S
C943 C944 1.383 . S
C943 H951 0.929 . S
C944 C943 1.383 . S
C944 C945 1.377 . S
C945 H929 0.930 . S
C945 C944 1.377 . S
C945 C946 1.379 . S
C946 H930 0.931 . S
C946 C940 1.383 . S
C946 C945 1.379 . S
H947 C941 0.959 . S
H948 C941 0.961 . S
H949 C941 0.960 . S
H950 C942 0.930 . S
H951 C943 0.929 . S
H952 C960 0.929 . S
H953 C962 0.930 . S
H954 C964 0.930 . S
H955 C967 0.929 . S
H956 C970 0.930 . S
H957 C972 0.960 . S
H958 C972 0.960 . S
H959 C972 0.960 . S
C960 H952 0.929 . S
C960 C961 1.377 . S
C960 C962 1.384 . S
C961 C960 1.377 . S
C961 C967 1.390 . S
C962 H953 0.930 . S
C962 C960 1.384 . S
C962 C963 1.372 . S
C963 C962 1.372 . S
C963 C964 1.400 . S
C963 C968 1.490 . S
C964 H954 0.930 . S
C964 C963 1.400 . S
C964 C967 1.386 . S
H965 C981 0.930 . S
H966 C982 0.931 . S
C967 H955 0.929 . S
C967 C961 1.390 . S
C967 C964 1.386 . S
C968 C963 1.490 . S
C968 C970 1.395 . S
C968 C971 1.403 . S
H969 C975 0.930 . S
C970 H956 0.930 . S
C970 C968 1.395 . S
C970 C973 1.403 . S
C971 C968 1.403 . S
C971 C972 1.524 . S
C971 C975 1.400 . S
C972 H957 0.960 . S
C972 H958 0.960 . S
C972 H959 0.960 . S
C972 C971 1.524 . S
C973 C970 1.403 . S
C973 C974 1.392 . S
C973 C977 1.495 . S
C974 C973 1.392 . S
C974 C975 1.385 . S
C974 C976 1.478 . S
C975 H969 0.930 . S
C975 C971 1.400 . S
C975 C974 1.385 . S
C976 C974 1.478 . S
C976 C978 1.381 . S
C976 C982 1.383 . S
C977 C973 1.495 . S
C977 H983 0.959 . S
C977 H984 0.961 . S
C977 H985 0.960 . S
C978 C976 1.381 . S
C978 C979 1.394 . S
C978 H986 0.930 . S
C979 C978 1.394 . S
C979 C980 1.383 . S
C979 H987 0.929 . S
C980 C979 1.383 . S
C980 C981 1.377 . S
C981 H965 0.930 . S
C981 C980 1.377 . S
C981 C982 1.379 . S
C982 H966 0.931 . S
C982 C976 1.383 . S
C982 C981 1.379 . S
H983 C977 0.959 . S
H984 C977 0.961 . S
H985 C977 0.960 . S
H986 C978 0.930 . S
H987 C979 0.929 . S
H988 C996 0.929 . S
H989 C998 0.930 . S
H990 C1000 0.930 . S
H991 C1003 0.929 . S
H992 C1006 0.930 . S
H993 C1008 0.960 . S
H994 C1008 0.960 . S
H995 C1008 0.960 . S
C996 H988 0.929 . S
C996 C997 1.377 . S
C996 C998 1.384 . S
C997 C996 1.377 . S
C997 C1003 1.390 . S
C998 H989 0.930 . S
C998 C996 1.384 . S
C998 C999 1.372 . S
C999 C998 1.372 . S
C999 C1000 1.400 . S
C999 C1004 1.490 . S
C1000 H990 0.930 . S
C1000 C999 1.400 . S
C1000 C1003 1.386 . S
H1001 C1017 0.930 . S
H1002 C1018 0.931 . S
C1003 H991 0.929 . S
C1003 C997 1.390 . S
C1003 C1000 1.386 . S
C1004 C999 1.490 . S
C1004 C1006 1.395 . S
C1004 C1007 1.403 . S
H1005 C1011 0.930 . S
C1006 H992 0.930 . S
C1006 C1004 1.395 . S
C1006 C1009 1.403 . S
C1007 C1004 1.403 . S
C1007 C1008 1.524 . S
C1007 C1011 1.400 . S
C1008 H993 0.960 . S
C1008 H994 0.960 . S
C1008 H995 0.960 . S
C1008 C1007 1.524 . S
C1009 C1006 1.403 . S
C1009 C1010 1.392 . S
C1009 C1013 1.495 . S
C1010 C1009 1.392 . S
C1010 C1011 1.385 . S
C1010 C1012 1.478 . S
C1011 H1005 0.930 . S
C1011 C1007 1.400 . S
C1011 C1010 1.385 . S
C1012 C1010 1.478 . S
C1012 C1014 1.381 . S
C1012 C1018 1.383 . S
C1013 C1009 1.495 . S
C1013 H1019 0.959 . S
C1013 H1020 0.961 . S
C1013 H1021 0.960 . S
C1014 C1012 1.381 . S
C1014 C1015 1.394 . S
C1014 H1022 0.930 . S
C1015 C1014 1.394 . S
C1015 C1016 1.383 . S
C1015 H1023 0.929 . S
C1016 C1015 1.383 . S
C1016 C1017 1.377 . S
C1017 H1001 0.930 . S
C1017 C1016 1.377 . S
C1017 C1018 1.379 . S
C1018 H1002 0.931 . S
C1018 C1012 1.383 . S
C1018 C1017 1.379 . S
H1019 C1013 0.959 . S
H1020 C1013 0.961 . S
H1021 C1013 0.960 . S
H1022 C1014 0.930 . S
H1023 C1015 0.929 . S
H1024 C1032 0.929 . S
H1025 C1034 0.930 . S
H1026 C1036 0.930 . S
H1027 C1039 0.929 . S
H1028 C1042 0.930 . S
H1029 C1044 0.960 . S
H1030 C1044 0.960 . S
H1031 C1044 0.960 . S
C1032 H1024 0.929 . S
C1032 C1033 1.377 . S
C1032 C1034 1.384 . S
C1033 C1032 1.377 . S
C1033 C1039 1.390 . S
C1034 H1025 0.930 . S
C1034 C1032 1.384 . S
C1034 C1035 1.372 . S
C1035 C1034 1.372 . S
C1035 C1036 1.400 . S
C1035 C1040 1.490 . S
C1036 H1026 0.930 . S
C1036 C1035 1.400 . S
C1036 C1039 1.386 . S
H1037 C1053 0.930 . S
H1038 C1054 0.931 . S
C1039 H1027 0.929 . S
C1039 C1033 1.390 . S
C1039 C1036 1.386 . S
C1040 C1035 1.490 . S
C1040 C1042 1.395 1_455 S
C1040 C1043 1.403 . S
H1041 C1047 0.953 . S
C1042 H1028 0.930 . S
C1042 C1040 1.395 1_655 S
C1042 C1045 1.403 . S
C1043 C1040 1.403 . S
C1043 C1044 1.524 . S
C1043 C1047 1.480 . S
C1044 H1029 0.960 . S
C1044 H1030 0.960 . S
C1044 H1031 0.960 . S
C1044 C1043 1.524 . S
C1045 C1042 1.403 . S
C1045 C1046 1.392 . S
C1045 C1049 1.495 . S
C1046 C1045 1.392 . S
C1046 C1047 1.291 1_655 S
C1046 C1048 1.478 . S
C1047 H1041 0.953 . S
C1047 C1043 1.480 . S
C1047 C1046 1.291 1_455 S
C1048 C1046 1.478 . S
C1048 C1050 1.381 . S
C1048 C1054 1.383 . S
C1049 C1045 1.495 . S
C1049 H1055 0.959 . S
C1049 H1056 0.961 . S
C1049 H1057 0.960 . S
C1050 C1048 1.381 . S
C1050 C1051 1.394 . S
C1050 H1058 0.930 . S
C1051 C1050 1.394 . S
C1051 C1052 1.383 . S
C1051 H1059 0.929 . S
C1052 C1051 1.383 . S
C1052 C1053 1.377 . S
C1053 H1037 0.930 . S
C1053 C1052 1.377 . S
C1053 C1054 1.379 . S
C1054 H1038 0.931 . S
C1054 C1048 1.383 . S
C1054 C1053 1.379 . S
H1055 C1049 0.959 . S
H1056 C1049 0.961 . S
H1057 C1049 0.960 . S
H1058 C1050 0.930 . S
H1059 C1051 0.929 . S
H1060 C1068 0.929 . S
H1061 C1070 0.930 1_565 S
H1062 C1072 0.930 . S
H1063 C1075 0.929 . S
H1064 C1078 0.930 . S
H1065 C1080 0.960 . S
H1066 C1080 0.960 . S
H1067 C1080 0.960 . S
C1068 H1060 0.929 . S
C1068 C1069 1.377 . S
C1068 C1070 1.384 . S
C1069 C1068 1.377 . S
C1069 C1075 1.390 . S
C1070 H1061 0.930 1_545 S
C1070 C1068 1.384 . S
C1070 C1071 1.372 . S
C1071 C1070 1.372 . S
C1071 C1072 1.400 . S
C1071 C1076 1.490 . S
C1072 H1062 0.930 . S
C1072 C1071 1.400 . S
C1072 C1075 1.386 . S
H1073 C1089 0.930 . S
H1074 C1090 0.931 . S
C1075 H1063 0.929 . S
C1075 C1069 1.390 . S
C1075 C1072 1.386 . S
C1076 C1071 1.490 . S
C1076 C1078 1.395 1_545 S
C1076 C1079 1.403 . S
H1077 C1083 0.930 . S
C1078 H1064 0.930 . S
C1078 C1076 1.395 1_565 S
C1078 C1081 1.403 . S
C1079 C1076 1.403 . S
C1079 C1080 1.524 . S
C1079 C1083 1.400 . S
C1080 H1065 0.960 . S
C1080 H1066 0.960 . S
C1080 H1067 0.960 . S
C1080 C1079 1.524 . S
C1081 C1078 1.403 . S
C1081 C1082 1.392 . S
C1081 C1085 1.495 . S
C1082 C1081 1.392 . S
C1082 C1083 1.385 1_565 S
C1082 C1084 1.478 . S
C1083 H1077 0.930 . S
C1083 C1079 1.400 . S
C1083 C1082 1.385 1_545 S
C1084 C1082 1.478 . S
C1084 C1086 1.381 . S
C1084 C1090 1.383 . S
C1085 C1081 1.495 . S
C1085 H1091 0.959 . S
C1085 H1092 0.961 . S
C1085 H1093 0.960 . S
C1086 C1084 1.381 . S
C1086 C1087 1.394 . S
C1086 H1094 0.930 . S
C1087 C1086 1.394 . S
C1087 C1088 1.383 . S
C1087 H1095 0.929 . S
C1088 C1087 1.383 . S
C1088 C1089 1.377 . S
C1089 H1073 0.930 . S
C1089 C1088 1.377 . S
C1089 C1090 1.379 . S
C1090 H1074 0.931 . S
C1090 C1084 1.383 . S
C1090 C1089 1.379 . S
H1091 C1085 0.959 . S
H1092 C1085 0.961 . S
H1093 C1085 0.960 . S
H1094 C1086 0.930 . S
H1095 C1087 0.929 . S
H1096 C1104 0.929 . S
H1097 C1106 0.930 . S
H1098 C1108 0.936 1_554 S
H1099 C1111 0.929 . S
H1100 C1114 0.930 . S
H1101 C1116 0.960 . S
H1102 C1116 0.960 . S
H1103 C1116 0.960 . S
C1104 H1096 0.929 . S
C1104 C1105 1.377 . S
C1104 C1106 1.384 . S
C1105 C1104 1.377 . S
C1105 C1111 1.390 . S
C1106 H1097 0.930 . S
C1106 C1104 1.384 . S
C1106 C1107 1.372 . S
C1107 C1106 1.372 . S
C1107 C1108 1.400 . S
C1107 C1112 1.490 . S
C1108 H1098 0.936 1_556 S
C1108 C1107 1.400 . S
C1108 C1111 1.386 . S
H1109 C1125 0.930 . S
H1110 C1126 0.931 . S
C1111 H1099 0.929 . S
C1111 C1105 1.390 . S
C1111 C1108 1.386 . S
C1112 C1107 1.490 . S
C1112 C1114 1.395 1_545 S
C1112 C1115 1.403 1_556 S
H1113 C1119 0.930 . S
C1114 H1100 0.930 . S
C1114 C1112 1.395 1_565 S
C1114 C1117 1.403 1_455 S
C1115 C1112 1.403 1_554 S
C1115 C1116 1.524 . S
C1115 C1119 1.400 1_455 S
C1116 H1101 0.960 . S
C1116 H1102 0.960 . S
C1116 H1103 0.960 . S
C1116 C1115 1.524 . S
C1117 C1114 1.403 1_655 S
C1117 C1118 1.392 1_556 S
C1117 C1121 1.495 . S
C1118 C1117 1.392 1_554 S
C1118 C1119 1.385 1_565 S
C1118 C1120 1.478 . S
C1119 H1113 0.930 . S
C1119 C1115 1.400 1_655 S
C1119 C1118 1.385 1_545 S
C1120 C1118 1.478 . S
C1120 C1122 1.381 . S
C1120 C1126 1.383 . S
C1121 C1117 1.495 . S
C1121 H1127 0.959 . S
C1121 H1128 0.961 . S
C1121 H1129 0.960 . S
C1122 C1120 1.381 . S
C1122 C1123 1.394 . S
C1122 H1130 0.930 1_554 S
C1123 C1122 1.394 . S
C1123 C1124 1.383 . S
C1123 H1131 0.929 . S
C1124 C1123 1.383 . S
C1124 C1125 1.377 . S
C1125 H1109 0.930 . S
C1125 C1124 1.377 . S
C1125 C1126 1.379 . S
C1126 H1110 0.931 . S
C1126 C1120 1.383 . S
C1126 C1125 1.379 . S
H1127 C1121 0.959 . S
H1128 C1121 0.961 . S
H1129 C1121 0.960 . S
H1130 C1122 0.930 1_556 S
H1131 C1123 0.929 . S
H1132 C1140 0.929 . S
H1133 C1142 0.930 . S
H1134 C1144 0.930 . S
H1135 C1147 0.929 . S
H1136 C1150 0.930 . S
H1137 C1152 0.960 . S
H1138 C1152 0.960 . S
H1139 C1152 0.960 . S
C1140 H1132 0.929 . S
C1140 C1141 1.377 . S
C1140 C1142 1.384 . S
C1141 C1140 1.377 . S
C1141 C1147 1.390 . S
C1142 H1133 0.930 . S
C1142 C1140 1.384 . S
C1142 C1143 1.372 . S
C1143 C1142 1.372 . S
C1143 C1144 1.400 . S
C1143 C1148 1.490 . S
C1144 H1134 0.930 . S
C1144 C1143 1.400 . S
C1144 C1147 1.386 . S
H1145 C1161 0.930 . S
H1146 C1162 0.931 . S
C1147 H1135 0.929 . S
C1147 C1141 1.390 . S
C1147 C1144 1.386 . S
C1148 C1143 1.490 . S
C1148 C1150 1.395 . S
C1148 C1151 1.403 1_556 S
H1149 C1155 0.930 . S
C1150 H1136 0.930 . S
C1150 C1148 1.395 . S
C1150 C1153 1.403 . S
C1151 C1148 1.403 1_554 S
C1151 C1152 1.524 . S
C1151 C1155 1.400 . S
C1152 H1137 0.960 . S
C1152 H1138 0.960 . S
C1152 H1139 0.960 . S
C1152 C1151 1.524 . S
C1153 C1150 1.403 . S
C1153 C1154 1.392 1_556 S
C1153 C1157 1.495 . S
C1154 C1153 1.392 1_554 S
C1154 C1155 1.385 . S
C1154 C1156 1.478 . S
C1155 H1149 0.930 . S
C1155 C1151 1.400 . S
C1155 C1154 1.385 . S
C1156 C1154 1.478 . S
C1156 C1158 1.381 . S
C1156 C1162 1.383 . S
C1157 C1153 1.495 . S
C1157 H1163 0.959 . S
C1157 H1164 0.961 . S
C1157 H1165 0.960 . S
C1158 C1156 1.381 . S
C1158 C1159 1.394 . S
C1158 H1166 0.930 . S
C1159 C1158 1.394 . S
C1159 C1160 1.383 . S
C1159 H1167 0.929 . S
C1160 C1159 1.383 . S
C1160 C1161 1.377 . S
C1161 H1145 0.930 . S
C1161 C1160 1.377 . S
C1161 C1162 1.379 . S
C1162 H1146 0.931 . S
C1162 C1156 1.383 . S
C1162 C1161 1.379 . S
H1163 C1157 0.959 . S
H1164 C1157 0.961 . S
H1165 C1157 0.960 . S
H1166 C1158 0.930 . S
H1167 C1159 0.929 . S
H1168 C1176 0.929 . S
H1169 C1178 0.930 . S
H1170 C1180 0.930 . S
H1171 C1183 0.929 . S
H1172 C1186 0.930 . S
H1173 C1188 0.960 1_455 S
H1174 C1188 0.954 1_455 S
H1175 C1188 0.960 . S
C1176 H1168 0.929 . S
C1176 C1177 1.377 . S
C1176 C1178 1.384 . S
C1177 C1176 1.377 . S
C1177 C1183 1.390 . S
C1178 H1169 0.930 . S
C1178 C1176 1.384 . S
C1178 C1179 1.372 . S
C1179 C1178 1.372 . S
C1179 C1180 1.400 . S
C1179 C1184 1.490 . S
C1180 H1170 0.930 . S
C1180 C1179 1.400 . S
C1180 C1183 1.386 . S
H1181 C1197 0.930 . S
H1182 C1198 0.931 . S
C1183 H1171 0.929 . S
C1183 C1177 1.390 . S
C1183 C1180 1.386 . S
C1184 C1179 1.490 . S
C1184 C1186 1.395 . S
C1184 C1187 1.463 . S
H1185 C1191 0.930 . S
C1186 H1172 0.930 . S
C1186 C1184 1.395 . S
C1186 C1189 1.403 1_655 S
C1187 C1184 1.463 . S
C1187 C1188 1.529 . S
C1187 C1191 1.337 1_655 S
C1188 H1173 0.960 1_655 S
C1188 H1174 0.954 1_655 S
C1188 H1175 0.960 . S
C1188 C1187 1.529 . S
C1189 C1186 1.403 1_455 S
C1189 C1190 1.392 . S
C1189 C1193 1.495 . S
C1190 C1189 1.392 . S
C1190 C1191 1.385 . S
C1190 C1192 1.478 . S
C1191 H1185 0.930 . S
C1191 C1187 1.337 1_455 S
C1191 C1190 1.385 . S
C1192 C1190 1.478 . S
C1192 C1194 1.381 . S
C1192 C1198 1.383 . S
C1193 C1189 1.495 . S
C1193 H1199 0.959 1_455 S
C1193 H1200 0.969 . S
C1193 H1201 0.960 . S
C1194 C1192 1.381 . S
C1194 C1195 1.394 . S
C1194 H1202 0.930 . S
C1195 C1194 1.394 . S
C1195 C1196 1.383 . S
C1195 H1203 0.929 . S
C1196 C1195 1.383 . S
C1196 C1197 1.377 . S
C1197 H1181 0.930 . S
C1197 C1196 1.377 . S
C1197 C1198 1.379 . S
C1198 H1182 0.931 . S
C1198 C1192 1.383 . S
C1198 C1197 1.379 . S
H1199 C1193 0.959 1_655 S
H1200 C1193 0.969 . S
H1201 C1193 0.960 . S
H1202 C1194 0.930 . S
H1203 C1195 0.929 . S
H1204 C1212 0.929 . S
H1205 C1214 0.930 . S
H1206 C1216 0.930 1_565 S
H1207 C1219 0.929 . S
H1208 C1222 0.930 . S
H1209 C1224 0.960 . S
H1210 C1224 0.960 . S
H1211 C1224 0.960 . S
C1212 H1204 0.929 . S
C1212 C1213 1.377 . S
C1212 C1214 1.384 . S
C1213 C1212 1.377 . S
C1213 C1219 1.390 . S
C1214 H1205 0.930 . S
C1214 C1212 1.384 . S
C1214 C1215 1.372 . S
C1215 C1214 1.372 . S
C1215 C1216 1.400 . S
C1215 C1220 1.490 . S
C1216 H1206 0.930 1_545 S
C1216 C1215 1.400 . S
C1216 C1219 1.386 . S
H1217 C1233 0.930 . S
H1218 C1234 0.931 . S
C1219 H1207 0.929 . S
C1219 C1213 1.390 . S
C1219 C1216 1.386 . S
C1220 C1215 1.490 . S
C1220 C1222 1.395 . S
C1220 C1223 1.403 1_545 S
H1221 C1227 0.930 . S
C1222 H1208 0.930 . S
C1222 C1220 1.395 . S
C1222 C1225 1.403 . S
C1223 C1220 1.403 1_565 S
C1223 C1224 1.524 . S
C1223 C1227 1.400 . S
C1224 H1209 0.960 . S
C1224 H1210 0.960 . S
C1224 H1211 0.960 . S
C1224 C1223 1.524 . S
C1225 C1222 1.403 . S
C1225 C1226 1.392 1_545 S
C1225 C1229 1.495 . S
C1226 C1225 1.392 1_565 S
C1226 C1227 1.385 . S
C1226 C1228 1.478 . S
C1227 H1221 0.930 . S
C1227 C1223 1.400 . S
C1227 C1226 1.385 . S
C1228 C1226 1.478 . S
C1228 C1230 1.381 . S
C1228 C1234 1.383 . S
C1229 C1225 1.495 . S
C1229 H1235 0.959 . S
C1229 H1236 0.961 . S
C1229 H1237 0.960 . S
C1230 C1228 1.381 . S
C1230 C1231 1.394 . S
C1230 H1238 0.930 1_565 S
C1231 C1230 1.394 . S
C1231 C1232 1.383 . S
C1231 H1239 0.929 . S
C1232 C1231 1.383 . S
C1232 C1233 1.377 . S
C1233 H1217 0.930 . S
C1233 C1232 1.377 . S
C1233 C1234 1.379 . S
C1234 H1218 0.931 . S
C1234 C1228 1.383 . S
C1234 C1233 1.379 . S
H1235 C1229 0.959 . S
H1236 C1229 0.961 . S
H1237 C1229 0.960 . S
H1238 C1230 0.930 1_545 S
H1239 C1231 0.929 . S
H1240 C1248 0.929 . S
H1241 C1250 0.930 . S
H1242 C1252 0.930 . S
H1243 C1255 0.929 . S
H1244 C1258 0.930 . S
H1245 C1260 0.960 . S
H1246 C1260 0.960 . S
H1247 C1260 0.960 . S
C1248 H1240 0.929 . S
C1248 C1249 1.377 . S
C1248 C1250 1.384 . S
C1249 C1248 1.377 . S
C1249 C1255 1.390 . S
C1250 H1241 0.930 . S
C1250 C1248 1.384 . S
C1250 C1251 1.372 . S
C1251 C1250 1.372 . S
C1251 C1252 1.400 . S
C1251 C1256 1.490 . S
C1252 H1242 0.930 . S
C1252 C1251 1.400 . S
C1252 C1255 1.386 . S
H1253 C1269 0.930 . S
H1254 C1270 0.931 . S
C1255 H1243 0.929 . S
C1255 C1249 1.390 . S
C1255 C1252 1.386 . S
C1256 C1251 1.490 . S
C1256 C1258 1.395 . S
C1256 C1259 1.403 1_556 S
H1257 C1263 0.930 . S
C1258 H1244 0.930 . S
C1258 C1256 1.395 . S
C1258 C1261 1.403 . S
C1259 C1256 1.403 1_554 S
C1259 C1260 1.524 . S
C1259 C1263 1.400 . S
C1260 H1245 0.960 . S
C1260 H1246 0.960 . S
C1260 H1247 0.960 . S
C1260 C1259 1.524 . S
C1261 C1258 1.403 . S
C1261 C1262 1.392 1_556 S
C1261 C1265 1.495 . S
C1262 C1261 1.392 1_554 S
C1262 C1263 1.385 . S
C1262 C1264 1.478 . S
C1263 H1257 0.930 . S
C1263 C1259 1.400 . S
C1263 C1262 1.385 . S
C1264 C1262 1.478 . S
C1264 C1266 1.381 . S
C1264 C1270 1.383 . S
C1265 C1261 1.495 . S
C1265 H1271 0.959 . S
C1265 H1272 0.961 . S
C1265 H1273 0.960 . S
C1266 C1264 1.381 . S
C1266 C1267 1.394 . S
C1266 H1274 0.930 . S
C1267 C1266 1.394 . S
C1267 C1268 1.383 . S
C1267 H1275 0.929 . S
C1268 C1267 1.383 . S
C1268 C1269 1.377 . S
C1269 H1253 0.930 . S
C1269 C1268 1.377 . S
C1269 C1270 1.379 . S
C1270 H1254 0.931 . S
C1270 C1264 1.383 . S
C1270 C1269 1.379 . S
H1271 C1265 0.959 . S
H1272 C1265 0.961 . S
H1273 C1265 0.960 . S
H1274 C1266 0.930 . S
H1275 C1267 0.929 . S
H1276 C1284 0.929 . S
H1277 C1286 0.930 . S
H1278 C1288 0.930 . S
H1279 C1291 0.929 . S
H1280 C1294 0.930 . S
H1281 C1296 0.960 . S
H1282 C1296 0.960 . S
H1283 C1296 0.960 . S
C1284 H1276 0.929 . S
C1284 C1285 1.377 . S
C1284 C1286 1.384 . S
C1285 C1284 1.377 . S
C1285 C1291 1.390 . S
C1286 H1277 0.930 . S
C1286 C1284 1.384 . S
C1286 C1287 1.372 . S
C1287 C1286 1.372 . S
C1287 C1288 1.400 . S
C1287 C1292 1.490 . S
C1288 H1278 0.930 . S
C1288 C1287 1.400 . S
C1288 C1291 1.386 . S
H1289 C1305 0.930 . S
H1290 C1306 0.931 . S
C1291 H1279 0.929 . S
C1291 C1285 1.390 . S
C1291 C1288 1.386 . S
C1292 C1287 1.490 . S
C1292 C1294 1.395 . S
C1292 C1295 1.403 . S
H1293 C1299 0.930 . S
C1294 H1280 0.930 . S
C1294 C1292 1.395 . S
C1294 C1297 1.403 . S
C1295 C1292 1.403 . S
C1295 C1296 1.524 . S
C1295 C1299 1.400 . S
C1296 H1281 0.960 . S
C1296 H1282 0.960 . S
C1296 H1283 0.960 . S
C1296 C1295 1.524 . S
C1297 C1294 1.403 . S
C1297 C1298 1.392 . S
C1297 C1301 1.495 . S
C1298 C1297 1.392 . S
C1298 C1299 1.385 . S
C1298 C1300 1.478 . S
C1299 H1293 0.930 . S
C1299 C1295 1.400 . S
C1299 C1298 1.385 . S
C1300 C1298 1.478 . S
C1300 C1302 1.381 . S
C1300 C1306 1.383 . S
C1301 C1297 1.495 . S
C1301 H1307 0.959 . S
C1301 H1308 0.961 . S
C1301 H1309 0.960 . S
C1302 C1300 1.381 . S
C1302 C1303 1.394 . S
C1302 H1310 0.930 . S
C1303 C1302 1.394 . S
C1303 C1304 1.383 . S
C1303 H1311 0.929 . S
C1304 C1303 1.383 . S
C1304 C1305 1.377 . S
C1305 H1289 0.930 . S
C1305 C1304 1.377 . S
C1305 C1306 1.379 . S
C1306 H1290 0.931 . S
C1306 C1300 1.383 . S
C1306 C1305 1.379 . S
H1307 C1301 0.959 . S
H1308 C1301 0.961 . S
H1309 C1301 0.960 . S
H1310 C1302 0.930 . S
H1311 C1303 0.929 . S
H1312 C1320 0.929 . S
H1313 C1322 0.930 . S
H1314 C1324 0.930 . S
H1315 C1327 0.929 . S
H1316 C1330 0.930 . S
H1317 C1332 0.960 . S
H1318 C1332 0.960 . S
H1319 C1332 0.960 . S
C1320 H1312 0.929 . S
C1320 C1321 1.377 . S
C1320 C1322 1.384 . S
C1321 C1320 1.377 . S
C1321 C1327 1.390 . S
C1322 H1313 0.930 . S
C1322 C1320 1.384 . S
C1322 C1323 1.372 . S
C1323 C1322 1.372 . S
C1323 C1324 1.400 . S
C1323 C1328 1.490 . S
C1324 H1314 0.930 . S
C1324 C1323 1.400 . S
C1324 C1327 1.386 . S
H1325 C1341 0.930 . S
H1326 C1342 0.931 . S
C1327 H1315 0.929 . S
C1327 C1321 1.390 . S
C1327 C1324 1.386 . S
C1328 C1323 1.490 . S
C1328 C1330 1.395 . S
C1328 C1331 1.403 1_455 S
H1329 C1335 0.930 . S
C1330 H1316 0.930 . S
C1330 C1328 1.395 . S
C1330 C1333 1.403 . S
C1331 C1328 1.403 1_655 S
C1331 C1332 1.524 . S
C1331 C1335 1.400 . S
C1332 H1317 0.960 . S
C1332 H1318 0.960 . S
C1332 H1319 0.960 . S
C1332 C1331 1.524 . S
C1333 C1330 1.403 . S
C1333 C1334 1.392 1_455 S
C1333 C1337 1.495 . S
C1334 C1333 1.392 1_655 S
C1334 C1335 1.385 . S
C1334 C1336 1.478 . S
C1335 H1329 0.930 . S
C1335 C1331 1.400 . S
C1335 C1334 1.385 . S
C1336 C1334 1.478 . S
C1336 C1338 1.381 . S
C1336 C1342 1.383 . S
C1337 C1333 1.495 . S
C1337 H1343 0.959 . S
C1337 H1344 0.961 . S
C1337 H1345 0.960 . S
C1338 C1336 1.381 . S
C1338 C1339 1.394 . S
C1338 H1346 0.930 . S
C1339 C1338 1.394 . S
C1339 C1340 1.383 . S
C1339 H1347 0.929 . S
C1340 C1339 1.383 . S
C1340 C1341 1.377 . S
C1341 H1325 0.930 . S
C1341 C1340 1.377 . S
C1341 C1342 1.379 . S
C1342 H1326 0.931 . S
C1342 C1336 1.383 . S
C1342 C1341 1.379 . S
H1343 C1337 0.959 . S
H1344 C1337 0.961 . S
H1345 C1337 0.960 . S
H1346 C1338 0.930 . S
H1347 C1339 0.929 . S
H1348 C1356 0.929 . S
H1349 C1358 0.930 . S
H1350 C1360 0.930 . S
H1351 C1363 0.929 . S
H1352 C1366 0.930 . S
H1353 C1368 0.960 . S
H1354 C1368 0.960 . S
H1355 C1368 0.960 . S
C1356 H1348 0.929 . S
C1356 C1357 1.377 . S
C1356 C1358 1.384 . S
C1357 C1356 1.377 . S
C1357 C1363 1.390 . S
C1358 H1349 0.930 . S
C1358 C1356 1.384 . S
C1358 C1359 1.372 . S
C1359 C1358 1.372 . S
C1359 C1360 1.400 . S
C1359 C1364 1.490 . S
C1360 H1350 0.930 . S
C1360 C1359 1.400 . S
C1360 C1363 1.386 . S
H1361 C1377 0.930 . S
H1362 C1378 0.931 . S
C1363 H1351 0.929 . S
C1363 C1357 1.390 . S
C1363 C1360 1.386 . S
C1364 C1359 1.490 . S
C1364 C1366 1.395 . S
C1364 C1367 1.403 . S
H1365 C1371 0.930 . S
C1366 H1352 0.930 . S
C1366 C1364 1.395 . S
C1366 C1369 1.403 . S
C1367 C1364 1.403 . S
C1367 C1368 1.524 . S
C1367 C1371 1.400 . S
C1368 H1353 0.960 . S
C1368 H1354 0.960 . S
C1368 H1355 0.960 . S
C1368 C1367 1.524 . S
C1369 C1366 1.403 . S
C1369 C1370 1.392 . S
C1369 C1373 1.495 . S
C1370 C1369 1.392 . S
C1370 C1371 1.385 . S
C1370 C1372 1.478 . S
C1371 H1365 0.930 . S
C1371 C1367 1.400 . S
C1371 C1370 1.385 . S
C1372 C1370 1.478 . S
C1372 C1374 1.381 . S
C1372 C1378 1.383 . S
C1373 C1369 1.495 . S
C1373 H1379 0.959 . S
C1373 H1380 0.961 . S
C1373 H1381 0.960 . S
C1374 C1372 1.381 . S
C1374 C1375 1.394 . S
C1374 H1382 0.930 . S
C1375 C1374 1.394 . S
C1375 C1376 1.383 . S
C1375 H1383 0.929 . S
C1376 C1375 1.383 . S
C1376 C1377 1.377 . S
C1377 H1361 0.930 . S
C1377 C1376 1.377 . S
C1377 C1378 1.379 . S
C1378 H1362 0.931 . S
C1378 C1372 1.383 . S
C1378 C1377 1.379 . S
H1379 C1373 0.959 . S
H1380 C1373 0.961 . S
H1381 C1373 0.960 . S
H1382 C1374 0.930 . S
H1383 C1375 0.929 . S
H1384 C1392 0.929 . S
H1385 C1394 0.930 . S
H1386 C1396 0.930 . S
H1387 C1399 0.929 . S
H1388 C1402 0.930 . S
H1389 C1404 0.960 . S
H1390 C1404 0.960 . S
H1391 C1404 0.960 . S
C1392 H1384 0.929 . S
C1392 C1393 1.377 . S
C1392 C1394 1.384 . S
C1393 C1392 1.377 . S
C1393 C1399 1.390 . S
C1394 H1385 0.930 . S
C1394 C1392 1.384 . S
C1394 C1395 1.372 . S
C1395 C1394 1.372 . S
C1395 C1396 1.400 . S
C1395 C1400 1.490 . S
C1396 H1386 0.930 . S
C1396 C1395 1.400 . S
C1396 C1399 1.386 . S
H1397 C1413 0.930 . S
H1398 C1414 0.931 . S
C1399 H1387 0.929 . S
C1399 C1393 1.390 . S
C1399 C1396 1.386 . S
C1400 C1395 1.490 . S
C1400 C1402 1.395 . S
C1400 C1403 1.403 . S
H1401 C1407 0.930 . S
C1402 H1388 0.930 . S
C1402 C1400 1.395 . S
C1402 C1405 1.403 . S
C1403 C1400 1.403 . S
C1403 C1404 1.524 . S
C1403 C1407 1.400 . S
C1404 H1389 0.960 . S
C1404 H1390 0.960 . S
C1404 H1391 0.960 . S
C1404 C1403 1.524 . S
C1405 C1402 1.403 . S
C1405 C1406 1.392 . S
C1405 C1409 1.495 . S
C1406 C1405 1.392 . S
C1406 C1407 1.385 . S
C1406 C1408 1.478 . S
C1407 H1401 0.930 . S
C1407 C1403 1.400 . S
C1407 C1406 1.385 . S
C1408 C1406 1.478 . S
C1408 C1410 1.381 . S
C1408 C1414 1.383 . S
C1409 C1405 1.495 . S
C1409 H1415 0.959 . S
C1409 H1416 0.961 . S
C1409 H1417 0.960 . S
C1410 C1408 1.381 . S
C1410 C1411 1.394 . S
C1410 H1418 0.930 . S
C1411 C1410 1.394 . S
C1411 C1412 1.383 . S
C1411 H1419 0.929 . S
C1412 C1411 1.383 . S
C1412 C1413 1.377 . S
C1413 H1397 0.930 . S
C1413 C1412 1.377 . S
C1413 C1414 1.379 . S
C1414 H1398 0.931 . S
C1414 C1408 1.383 . S
C1414 C1413 1.379 . S
H1415 C1409 0.959 . S
H1416 C1409 0.961 . S
H1417 C1409 0.960 . S
H1418 C1410 0.930 . S
H1419 C1411 0.929 . S
H1420 C1428 0.929 . S
H1421 C1430 0.930 . S
H1422 C1432 0.930 . S
H1423 C1435 0.929 . S
H1424 C1438 0.930 . S
H1425 C1440 0.960 . S
H1426 C1440 0.960 . S
H1427 C1440 0.960 . S
C1428 H1420 0.929 . S
C1428 C1429 1.377 . S
C1428 C1430 1.384 . S
C1429 C1428 1.377 . S
C1429 C1435 1.390 . S
C1430 H1421 0.930 . S
C1430 C1428 1.384 . S
C1430 C1431 1.372 . S
C1431 C1430 1.372 . S
C1431 C1432 1.400 . S
C1431 C1436 1.490 . S
C1432 H1422 0.930 . S
C1432 C1431 1.400 . S
C1432 C1435 1.386 . S
H1433 C1449 0.930 . S
H1434 C1450 0.931 . S
C1435 H1423 0.929 . S
C1435 C1429 1.390 . S
C1435 C1432 1.386 . S
C1436 C1431 1.490 . S
C1436 C1438 1.395 . S
C1436 C1439 1.403 . S
H1437 C1443 0.930 . S
C1438 H1424 0.930 . S
C1438 C1436 1.395 . S
C1438 C1441 1.403 . S
C1439 C1436 1.403 . S
C1439 C1440 1.524 . S
C1439 C1443 1.400 . S
C1440 H1425 0.960 . S
C1440 H1426 0.960 . S
C1440 H1427 0.960 . S
C1440 C1439 1.524 . S
C1441 C1438 1.403 . S
C1441 C1442 1.392 . S
C1441 C1445 1.495 . S
C1442 C1441 1.392 . S
C1442 C1443 1.385 . S
C1442 C1444 1.478 . S
C1443 H1437 0.930 . S
C1443 C1439 1.400 . S
C1443 C1442 1.385 . S
C1444 C1442 1.478 . S
C1444 C1446 1.381 . S
C1444 C1450 1.383 . S
C1445 C1441 1.495 . S
C1445 H1451 0.959 . S
C1445 H1452 0.961 . S
C1445 H1453 0.960 . S
C1446 C1444 1.381 . S
C1446 C1447 1.394 . S
C1446 H1454 0.930 . S
C1447 C1446 1.394 . S
C1447 C1448 1.383 . S
C1447 H1455 0.929 . S
C1448 C1447 1.383 . S
C1448 C1449 1.377 . S
C1449 H1433 0.930 . S
C1449 C1448 1.377 . S
C1449 C1450 1.379 . S
C1450 H1434 0.931 . S
C1450 C1444 1.383 . S
C1450 C1449 1.379 . S
H1451 C1445 0.959 . S
H1452 C1445 0.961 . S
H1453 C1445 0.960 . S
H1454 C1446 0.930 . S
H1455 C1447 0.929 . S
H1456 C1464 0.929 . S
H1457 C1466 0.930 . S
H1458 C1468 0.930 . S
H1459 C1471 0.929 . S
H1460 C1474 0.930 . S
H1461 C1476 0.960 . S
H1462 C1476 0.960 . S
H1463 C1476 0.960 . S
C1464 H1456 0.929 . S
C1464 C1465 1.377 . S
C1464 C1466 1.384 . S
C1465 C1464 1.377 . S
C1465 C1471 1.390 . S
C1466 H1457 0.930 . S
C1466 C1464 1.384 . S
C1466 C1467 1.372 . S
C1467 C1466 1.372 . S
C1467 C1468 1.400 . S
C1467 C1472 1.490 . S
C1468 H1458 0.930 . S
C1468 C1467 1.400 . S
C1468 C1471 1.386 . S
H1469 C1485 0.930 . S
H1470 C1486 0.931 . S
C1471 H1459 0.929 . S
C1471 C1465 1.390 . S
C1471 C1468 1.386 . S
C1472 C1467 1.490 . S
C1472 C1474 1.395 . S
C1472 C1475 1.403 . S
H1473 C1479 0.930 . S
C1474 H1460 0.930 . S
C1474 C1472 1.395 . S
C1474 C1477 1.403 . S
C1475 C1472 1.403 . S
C1475 C1476 1.524 . S
C1475 C1479 1.400 . S
C1476 H1461 0.960 . S
C1476 H1462 0.960 . S
C1476 H1463 0.960 . S
C1476 C1475 1.524 . S
C1477 C1474 1.403 . S
C1477 C1478 1.392 . S
C1477 C1481 1.495 . S
C1478 C1477 1.392 . S
C1478 C1479 1.385 . S
C1478 C1480 1.478 . S
C1479 H1473 0.930 . S
C1479 C1475 1.400 . S
C1479 C1478 1.385 . S
C1480 C1478 1.478 . S
C1480 C1482 1.381 . S
C1480 C1486 1.383 . S
C1481 C1477 1.495 . S
C1481 H1487 0.959 . S
C1481 H1488 0.961 . S
C1481 H1489 0.960 . S
C1482 C1480 1.381 . S
C1482 C1483 1.394 . S
C1482 H1490 0.930 . S
C1483 C1482 1.394 . S
C1483 C1484 1.383 . S
C1483 H1491 0.929 . S
C1484 C1483 1.383 . S
C1484 C1485 1.377 . S
C1485 H1469 0.930 . S
C1485 C1484 1.377 . S
C1485 C1486 1.379 . S
C1486 H1470 0.931 . S
C1486 C1480 1.383 . S
C1486 C1485 1.379 . S
H1487 C1481 0.959 . S
H1488 C1481 0.961 . S
H1489 C1481 0.960 . S
H1490 C1482 0.930 . S
H1491 C1483 0.929 . S
H1492 C1500 0.929 . S
H1493 C1502 0.930 . S
H1494 C1504 0.930 . S
H1495 C1507 0.929 . S
H1496 C1510 0.930 . S
H1497 C1512 0.960 . S
H1498 C1512 0.960 . S
H1499 C1512 0.960 1_565 S
C1500 H1492 0.929 . S
C1500 C1501 1.377 . S
C1500 C1502 1.384 . S
C1501 C1500 1.377 . S
C1501 C1507 1.390 . S
C1502 H1493 0.930 . S
C1502 C1500 1.384 . S
C1502 C1503 1.372 . S
C1503 C1502 1.372 . S
C1503 C1504 1.400 . S
C1503 C1508 1.490 . S
C1504 H1494 0.930 . S
C1504 C1503 1.400 . S
C1504 C1507 1.386 . S
H1505 C1521 0.930 . S
H1506 C1522 0.931 . S
C1507 H1495 0.929 . S
C1507 C1501 1.390 . S
C1507 C1504 1.386 . S
C1508 C1503 1.490 . S
C1508 C1510 1.395 . S
C1508 C1511 1.403 1_565 S
H1509 C1515 0.930 . S
C1510 H1496 0.930 . S
C1510 C1508 1.395 . S
C1510 C1513 1.403 . S
C1511 C1508 1.403 1_545 S
C1511 C1512 1.524 . S
C1511 C1515 1.400 . S
C1512 H1497 0.960 . S
C1512 H1498 0.960 . S
C1512 H1499 0.960 1_545 S
C1512 C1511 1.524 . S
C1513 C1510 1.403 . S
C1513 C1514 1.392 1_565 S
C1513 C1517 1.495 . S
C1514 C1513 1.392 1_545 S
C1514 C1515 1.385 . S
C1514 C1516 1.478 . S
C1515 H1509 0.930 . S
C1515 C1511 1.400 . S
C1515 C1514 1.385 . S
C1516 C1514 1.478 . S
C1516 C1518 1.381 . S
C1516 C1522 1.383 . S
C1517 C1513 1.495 . S
C1517 H1523 0.959 . S
C1517 H1524 0.961 . S
C1517 H1525 0.960 1_565 S
C1518 C1516 1.381 . S
C1518 C1519 1.394 . S
C1518 H1526 0.930 . S
C1519 C1518 1.394 . S
C1519 C1520 1.383 . S
C1519 H1527 0.929 . S
C1520 C1519 1.383 . S
C1520 C1521 1.377 . S
C1521 H1505 0.930 . S
C1521 C1520 1.377 . S
C1521 C1522 1.379 . S
C1522 H1506 0.931 . S
C1522 C1516 1.383 . S
C1522 C1521 1.379 . S
H1523 C1517 0.959 . S
H1524 C1517 0.961 . S
H1525 C1517 0.960 1_545 S
H1526 C1518 0.930 . S
H1527 C1519 0.929 . S
H1528 C1536 0.929 . S
H1529 C1538 0.930 . S
H1530 C1540 0.930 . S
H1531 C1543 0.929 . S
H1532 C1546 0.930 . S
H1533 C1548 0.960 . S
H1534 C1548 0.960 . S
H1535 C1548 0.960 . S
C1536 H1528 0.929 . S
C1536 C1537 1.377 . S
C1536 C1538 1.384 . S
C1537 C1536 1.377 . S
C1537 C1543 1.390 . S
C1538 H1529 0.930 . S
C1538 C1536 1.384 . S
C1538 C1539 1.372 . S
C1539 C1538 1.372 . S
C1539 C1540 1.400 . S
C1539 C1544 1.490 . S
C1540 H1530 0.930 . S
C1540 C1539 1.400 . S
C1540 C1543 1.386 . S
H1541 C1557 0.930 . S
H1542 C1558 0.931 . S
C1543 H1531 0.929 . S
C1543 C1537 1.390 . S
C1543 C1540 1.386 . S
C1544 C1539 1.490 . S
C1544 C1546 1.395 . S
C1544 C1547 1.403 . S
H1545 C1551 0.930 . S
C1546 H1532 0.930 . S
C1546 C1544 1.395 . S
C1546 C1549 1.403 . S
C1547 C1544 1.403 . S
C1547 C1548 1.524 . S
C1547 C1551 1.400 . S
C1548 H1533 0.960 . S
C1548 H1534 0.960 . S
C1548 H1535 0.960 . S
C1548 C1547 1.524 . S
C1549 C1546 1.403 . S
C1549 C1550 1.392 . S
C1549 C1553 1.495 . S
C1550 C1549 1.392 . S
C1550 C1551 1.385 . S
C1550 C1552 1.478 . S
C1551 H1545 0.930 . S
C1551 C1547 1.400 . S
C1551 C1550 1.385 . S
C1552 C1550 1.478 . S
C1552 C1554 1.381 . S
C1552 C1558 1.383 . S
C1553 C1549 1.495 . S
C1553 H1559 0.959 . S
C1553 H1560 0.961 . S
C1553 H1561 0.960 . S
C1554 C1552 1.381 . S
C1554 C1555 1.394 . S
C1554 H1562 0.930 . S
C1555 C1554 1.394 . S
C1555 C1556 1.383 . S
C1555 H1563 0.929 . S
C1556 C1555 1.383 . S
C1556 C1557 1.377 . S
C1557 H1541 0.930 . S
C1557 C1556 1.377 . S
C1557 C1558 1.379 . S
C1558 H1542 0.931 . S
C1558 C1552 1.383 . S
C1558 C1557 1.379 . S
H1559 C1553 0.959 . S
H1560 C1553 0.961 . S
H1561 C1553 0.960 . S
H1562 C1554 0.930 . S
H1563 C1555 0.929 . S
H1564 C1572 0.929 . S
H1565 C1574 0.930 . S
H1566 C1576 0.930 . S
H1567 C1579 0.929 . S
H1568 C1582 0.930 . S
H1569 C1584 0.960 . S
H1570 C1584 0.960 . S
H1571 C1584 0.960 1_554 S
C1572 H1564 0.929 . S
C1572 C1573 1.377 . S
C1572 C1574 1.384 . S
C1573 C1572 1.377 . S
C1573 C1579 1.390 . S
C1574 H1565 0.930 . S
C1574 C1572 1.384 . S
C1574 C1575 1.372 . S
C1575 C1574 1.372 . S
C1575 C1576 1.400 . S
C1575 C1580 1.490 . S
C1576 H1566 0.930 . S
C1576 C1575 1.400 . S
C1576 C1579 1.386 . S
H1577 C1593 0.930 . S
H1578 C1594 0.931 . S
C1579 H1567 0.929 . S
C1579 C1573 1.390 . S
C1579 C1576 1.386 . S
C1580 C1575 1.490 . S
C1580 C1582 1.395 . S
C1580 C1583 1.403 1_554 S
H1581 C1587 0.930 . S
C1582 H1568 0.930 . S
C1582 C1580 1.395 . S
C1582 C1585 1.403 . S
C1583 C1580 1.403 1_556 S
C1583 C1584 1.524 . S
C1583 C1587 1.400 . S
C1584 H1569 0.960 . S
C1584 H1570 0.960 . S
C1584 H1571 0.960 1_556 S
C1584 C1583 1.524 . S
C1585 C1582 1.403 . S
C1585 C1586 1.392 1_554 S
C1585 C1589 1.495 . S
C1586 C1585 1.392 1_556 S
C1586 C1587 1.385 . S
C1586 C1588 1.478 . S
C1587 H1581 0.930 . S
C1587 C1583 1.400 . S
C1587 C1586 1.385 . S
C1588 C1586 1.478 . S
C1588 C1590 1.381 . S
C1588 C1594 1.383 . S
C1589 C1585 1.495 . S
C1589 H1595 0.959 . S
C1589 H1596 0.961 . S
C1589 H1597 0.960 1_554 S
C1590 C1588 1.381 . S
C1590 C1591 1.394 . S
C1590 H1598 0.930 . S
C1591 C1590 1.394 . S
C1591 C1592 1.383 . S
C1591 H1599 0.929 . S
C1592 C1591 1.383 . S
C1592 C1593 1.377 . S
C1593 H1577 0.930 . S
C1593 C1592 1.377 . S
C1593 C1594 1.379 . S
C1594 H1578 0.931 . S
C1594 C1588 1.383 . S
C1594 C1593 1.379 . S
H1595 C1589 0.959 . S
H1596 C1589 0.961 . S
H1597 C1589 0.960 1_556 S
H1598 C1590 0.930 . S
H1599 C1591 0.929 . S
H1600 C1608 0.929 . S
H1601 C1610 0.930 . S
H1602 C1612 0.930 . S
H1603 C1615 0.929 . S
H1604 C1618 0.930 . S
H1605 C1620 0.960 . S
H1606 C1620 0.960 . S
H1607 C1620 0.960 . S
C1608 H1600 0.929 . S
C1608 C1609 1.377 . S
C1608 C1610 1.384 . S
C1609 C1608 1.377 . S
C1609 C1615 1.390 . S
C1610 H1601 0.930 . S
C1610 C1608 1.384 . S
C1610 C1611 1.372 . S
C1611 C1610 1.372 . S
C1611 C1612 1.400 . S
C1611 C1616 1.490 . S
C1612 H1602 0.930 . S
C1612 C1611 1.400 . S
C1612 C1615 1.386 . S
H1613 C1629 0.930 . S
H1614 C1630 0.931 . S
C1615 H1603 0.929 . S
C1615 C1609 1.390 . S
C1615 C1612 1.386 . S
C1616 C1611 1.490 . S
C1616 C1618 1.395 . S
C1616 C1619 1.403 . S
H1617 C1623 0.930 . S
C1618 H1604 0.930 . S
C1618 C1616 1.395 . S
C1618 C1621 1.403 . S
C1619 C1616 1.403 . S
C1619 C1620 1.524 . S
C1619 C1623 1.400 . S
C1620 H1605 0.960 . S
C1620 H1606 0.960 . S
C1620 H1607 0.960 . S
C1620 C1619 1.524 . S
C1621 C1618 1.403 . S
C1621 C1622 1.392 . S
C1621 C1625 1.495 . S
C1622 C1621 1.392 . S
C1622 C1623 1.385 . S
C1622 C1624 1.478 . S
C1623 H1617 0.930 . S
C1623 C1619 1.400 . S
C1623 C1622 1.385 . S
C1624 C1622 1.478 . S
C1624 C1626 1.381 . S
C1624 C1630 1.383 . S
C1625 C1621 1.495 . S
C1625 H1631 0.959 . S
C1625 H1632 0.961 . S
C1625 H1633 0.960 . S
C1626 C1624 1.381 . S
C1626 C1627 1.394 . S
C1626 H1634 0.930 . S
C1627 C1626 1.394 . S
C1627 C1628 1.383 . S
C1627 H1635 0.929 . S
C1628 C1627 1.383 . S
C1628 C1629 1.377 . S
C1629 H1613 0.930 . S
C1629 C1628 1.377 . S
C1629 C1630 1.379 . S
C1630 H1614 0.931 . S
C1630 C1624 1.383 . S
C1630 C1629 1.379 . S
H1631 C1625 0.959 . S
H1632 C1625 0.961 . S
H1633 C1625 0.960 . S
H1634 C1626 0.930 . S
H1635 C1627 0.929 . S
H1636 C1644 0.929 . S
H1637 C1646 0.930 . S
H1638 C1648 0.930 . S
H1639 C1651 0.929 . S
H1640 C1654 0.930 . S
H1641 C1656 0.960 . S
H1642 C1656 0.960 . S
H1643 C1656 0.960 . S
C1644 H1636 0.929 . S
C1644 C1645 1.377 . S
C1644 C1646 1.384 . S
C1645 C1644 1.377 . S
C1645 C1651 1.390 . S
C1646 H1637 0.930 . S
C1646 C1644 1.384 . S
C1646 C1647 1.372 . S
C1647 C1646 1.372 . S
C1647 C1648 1.400 . S
C1647 C1652 1.490 . S
C1648 H1638 0.930 . S
C1648 C1647 1.400 . S
C1648 C1651 1.386 . S
H1649 C1665 0.930 . S
H1650 C1666 0.931 . S
C1651 H1639 0.929 . S
C1651 C1645 1.390 . S
C1651 C1648 1.386 . S
C1652 C1647 1.490 . S
C1652 C1654 1.395 . S
C1652 C1655 1.403 . S
H1653 C1659 0.930 . S
C1654 H1640 0.930 . S
C1654 C1652 1.395 . S
C1654 C1657 1.403 . S
C1655 C1652 1.403 . S
C1655 C1656 1.524 . S
C1655 C1659 1.400 . S
C1656 H1641 0.960 . S
C1656 H1642 0.960 . S
C1656 H1643 0.960 . S
C1656 C1655 1.524 . S
C1657 C1654 1.403 . S
C1657 C1658 1.392 . S
C1657 C1661 1.495 . S
C1658 C1657 1.392 . S
C1658 C1659 1.385 . S
C1658 C1660 1.478 . S
C1659 H1653 0.930 . S
C1659 C1655 1.400 . S
C1659 C1658 1.385 . S
C1660 C1658 1.478 . S
C1660 C1662 1.381 . S
C1660 C1666 1.383 . S
C1661 C1657 1.495 . S
C1661 H1667 0.959 . S
C1661 H1668 0.961 . S
C1661 H1669 0.960 . S
C1662 C1660 1.381 . S
C1662 C1663 1.394 1_565 S
C1662 H1670 0.930 . S
C1663 C1662 1.394 1_545 S
C1663 C1664 1.383 . S
C1663 H1671 0.929 . S
C1664 C1663 1.383 . S
C1664 C1665 1.377 1_545 S
C1665 H1649 0.930 . S
C1665 C1664 1.377 1_565 S
C1665 C1666 1.379 . S
C1666 H1650 0.931 . S
C1666 C1660 1.383 . S
C1666 C1665 1.379 . S
H1667 C1661 0.959 . S
H1668 C1661 0.961 . S
H1669 C1661 0.960 . S
H1670 C1662 0.930 . S
H1671 C1663 0.929 . S
H1672 C1680 0.929 . S
H1673 C1682 0.930 . S
H1674 C1684 0.930 . S
H1675 C1687 0.929 1_545 S
H1676 C1690 0.930 . S
H1677 C1692 0.960 . S
H1678 C1692 0.960 . S
H1679 C1692 0.960 . S
C1680 H1672 0.929 . S
C1680 C1681 1.377 . S
C1680 C1682 1.384 1_545 S
C1681 C1680 1.377 . S
C1681 C1687 1.390 1_545 S
C1682 H1673 0.930 . S
C1682 C1680 1.384 1_565 S
C1682 C1683 1.372 . S
C1683 C1682 1.372 . S
C1683 C1684 1.400 . S
C1683 C1688 1.490 . S
C1684 H1674 0.930 . S
C1684 C1683 1.400 . S
C1684 C1687 1.386 . S
H1685 C1701 0.930 . S
H1686 C1702 0.931 . S
C1687 H1675 0.929 1_565 S
C1687 C1681 1.390 1_565 S
C1687 C1684 1.386 . S
C1688 C1683 1.490 . S
C1688 C1690 1.395 . S
C1688 C1691 1.403 . S
H1689 C1695 0.930 . S
C1690 H1676 0.930 . S
C1690 C1688 1.395 . S
C1690 C1693 1.403 . S
C1691 C1688 1.403 . S
C1691 C1692 1.524 . S
C1691 C1695 1.400 . S
C1692 H1677 0.960 . S
C1692 H1678 0.960 . S
C1692 H1679 0.960 . S
C1692 C1691 1.524 . S
C1693 C1690 1.403 . S
C1693 C1694 1.392 . S
C1693 C1697 1.495 . S
C1694 C1693 1.392 . S
C1694 C1695 1.385 . S
C1694 C1696 1.478 . S
C1695 H1689 0.930 . S
C1695 C1691 1.400 . S
C1695 C1694 1.385 . S
C1696 C1694 1.478 . S
C1696 C1698 1.381 . S
C1696 C1702 1.383 . S
C1697 C1693 1.495 . S
C1697 H1703 0.959 . S
C1697 H1704 0.961 . S
C1697 H1705 0.960 . S
C1698 C1696 1.381 . S
C1698 C1699 1.394 . S
C1698 H1706 0.930 . S
C1699 C1698 1.394 . S
C1699 C1700 1.383 . S
C1699 H1707 0.929 . S
C1700 C1699 1.383 . S
C1700 C1701 1.377 . S
C1701 H1685 0.930 . S
C1701 C1700 1.377 . S
C1701 C1702 1.379 . S
C1702 H1686 0.931 . S
C1702 C1696 1.383 . S
C1702 C1701 1.379 . S
H1703 C1697 0.959 . S
H1704 C1697 0.961 . S
H1705 C1697 0.960 . S
H1706 C1698 0.930 . S
H1707 C1699 0.929 . S
H1708 C1716 0.929 . S
H1709 C1718 0.930 . S
H1710 C1720 0.930 . S
H1711 C1723 0.929 . S
H1712 C1726 0.930 . S
H1713 C1728 0.960 . S
H1714 C1728 0.960 . S
H1715 C1728 0.960 . S
C1716 H1708 0.929 . S
C1716 C1717 1.377 . S
C1716 C1718 1.384 . S
C1717 C1716 1.377 . S
C1717 C1723 1.390 . S
C1718 H1709 0.930 . S
C1718 C1716 1.384 . S
C1718 C1719 1.372 . S
C1719 C1718 1.372 . S
C1719 C1720 1.400 . S
C1719 C1724 1.490 . S
C1720 H1710 0.930 . S
C1720 C1719 1.400 . S
C1720 C1723 1.386 . S
H1721 C1737 0.930 . S
H1722 C1738 0.931 . S
C1723 H1711 0.929 . S
C1723 C1717 1.390 . S
C1723 C1720 1.386 . S
C1724 C1719 1.490 . S
C1724 C1726 1.395 . S
C1724 C1727 1.403 . S
H1725 C1731 0.930 . S
C1726 H1712 0.930 . S
C1726 C1724 1.395 . S
C1726 C1729 1.403 . S
C1727 C1724 1.403 . S
C1727 C1728 1.524 . S
C1727 C1731 1.400 . S
C1728 H1713 0.960 . S
C1728 H1714 0.960 . S
C1728 H1715 0.960 . S
C1728 C1727 1.524 . S
C1729 C1726 1.403 . S
C1729 C1730 1.392 . S
C1729 C1733 1.495 . S
C1730 C1729 1.392 . S
C1730 C1731 1.385 . S
C1730 C1732 1.478 . S
C1731 H1725 0.930 . S
C1731 C1727 1.400 . S
C1731 C1730 1.385 . S
C1732 C1730 1.478 . S
C1732 C1734 1.381 . S
C1732 C1738 1.383 . S
C1733 C1729 1.495 . S
C1733 H1739 0.959 . S
C1733 H1740 0.961 . S
C1733 H1741 0.960 . S
C1734 C1732 1.381 . S
C1734 C1735 1.394 . S
C1734 H1742 0.930 . S
C1735 C1734 1.394 . S
C1735 C1736 1.383 . S
C1735 H1743 0.929 . S
C1736 C1735 1.383 . S
C1736 C1737 1.377 . S
C1737 H1721 0.930 . S
C1737 C1736 1.377 . S
C1737 C1738 1.379 . S
C1738 H1722 0.931 . S
C1738 C1732 1.383 . S
C1738 C1737 1.379 . S
H1739 C1733 0.959 . S
H1740 C1733 0.961 . S
H1741 C1733 0.960 . S
H1742 C1734 0.930 . S
H1743 C1735 0.929 . S
H1744 C1752 0.929 . S
H1745 C1754 0.930 . S
H1746 C1756 0.930 . S
H1747 C1759 0.929 . S
H1748 C1762 0.930 . S
H1749 C1764 0.960 . S
H1750 C1764 0.960 . S
H1751 C1764 0.960 . S
C1752 H1744 0.929 . S
C1752 C1753 1.377 . S
C1752 C1754 1.384 . S
C1753 C1752 1.377 . S
C1753 C1759 1.390 . S
C1754 H1745 0.930 . S
C1754 C1752 1.384 . S
C1754 C1755 1.372 . S
C1755 C1754 1.372 . S
C1755 C1756 1.400 . S
C1755 C1760 1.490 . S
C1756 H1746 0.930 . S
C1756 C1755 1.400 . S
C1756 C1759 1.386 . S
H1757 C1773 0.930 . S
H1758 C1774 0.931 . S
C1759 H1747 0.929 . S
C1759 C1753 1.390 . S
C1759 C1756 1.386 . S
C1760 C1755 1.490 . S
C1760 C1762 1.395 . S
C1760 C1763 1.403 . S
H1761 C1767 0.930 . S
C1762 H1748 0.930 . S
C1762 C1760 1.395 . S
C1762 C1765 1.403 . S
C1763 C1760 1.403 . S
C1763 C1764 1.524 . S
C1763 C1767 1.400 . S
C1764 H1749 0.960 . S
C1764 H1750 0.960 . S
C1764 H1751 0.960 . S
C1764 C1763 1.524 . S
C1765 C1762 1.403 . S
C1765 C1766 1.392 . S
C1765 C1769 1.495 . S
C1766 C1765 1.392 . S
C1766 C1767 1.385 . S
C1766 C1768 1.478 . S
C1767 H1761 0.930 . S
C1767 C1763 1.400 . S
C1767 C1766 1.385 . S
C1768 C1766 1.478 . S
C1768 C1770 1.381 . S
C1768 C1774 1.383 . S
C1769 C1765 1.495 . S
C1769 H1775 0.959 . S
C1769 H1776 0.961 . S
C1769 H1777 0.960 . S
C1770 C1768 1.381 . S
C1770 C1771 1.394 . S
C1770 H1778 0.930 . S
C1771 C1770 1.394 . S
C1771 C1772 1.383 . S
C1771 H1779 0.929 . S
C1772 C1771 1.383 . S
C1772 C1773 1.377 . S
C1773 H1757 0.930 . S
C1773 C1772 1.377 . S
C1773 C1774 1.379 . S
C1774 H1758 0.931 . S
C1774 C1768 1.383 . S
C1774 C1773 1.379 . S
H1775 C1769 0.959 . S
H1776 C1769 0.961 . S
H1777 C1769 0.960 . S
H1778 C1770 0.930 . S
H1779 C1771 0.929 . S
H1780 C1788 0.929 . S
H1781 C1790 0.930 . S
H1782 C1792 0.930 . S
H1783 C1795 0.929 . S
H1784 C1798 0.930 . S
H1785 C1800 0.960 . S
H1786 C1800 0.960 . S
H1787 C1800 0.960 . S
C1788 H1780 0.929 . S
C1788 C1789 1.377 1_545 S
C1788 C1790 1.384 . S
C1789 C1788 1.377 1_565 S
C1789 C1795 1.390 . S
C1790 H1781 0.930 . S
C1790 C1788 1.384 . S
C1790 C1791 1.372 . S
C1791 C1790 1.372 . S
C1791 C1792 1.400 . S
C1791 C1796 1.490 . S
C1792 H1782 0.930 . S
C1792 C1791 1.400 . S
C1792 C1795 1.386 1_545 S
H1793 C1809 0.930 . S
H1794 C1810 0.931 . S
C1795 H1783 0.929 . S
C1795 C1789 1.390 . S
C1795 C1792 1.386 1_565 S
C1796 C1791 1.490 . S
C1796 C1798 1.395 . S
C1796 C1799 1.403 . S
H1797 C1803 0.930 . S
C1798 H1784 0.930 . S
C1798 C1796 1.395 . S
C1798 C1801 1.403 . S
C1799 C1796 1.403 . S
C1799 C1800 1.524 . S
C1799 C1803 1.400 . S
C1800 H1785 0.960 . S
C1800 H1786 0.960 . S
C1800 H1787 0.960 . S
C1800 C1799 1.524 . S
C1801 C1798 1.403 . S
C1801 C1802 1.392 . S
C1801 C1805 1.495 . S
C1802 C1801 1.392 . S
C1802 C1803 1.385 . S
C1802 C1804 1.478 . S
C1803 H1797 0.930 . S
C1803 C1799 1.400 . S
C1803 C1802 1.385 . S
C1804 C1802 1.478 . S
C1804 C1806 1.381 . S
C1804 C1810 1.383 . S
C1805 C1801 1.495 . S
C1805 H1811 0.959 . S
C1805 H1812 0.961 . S
C1805 H1813 0.960 . S
C1806 C1804 1.381 . S
C1806 C1807 1.394 . S
C1806 H1814 0.930 . S
C1807 C1806 1.394 . S
C1807 C1808 1.383 . S
C1807 H1815 0.929 . S
C1808 C1807 1.383 . S
C1808 C1809 1.377 . S
C1809 H1793 0.930 . S
C1809 C1808 1.377 . S
C1809 C1810 1.379 . S
C1810 H1794 0.931 . S
C1810 C1804 1.383 . S
C1810 C1809 1.379 . S
H1811 C1805 0.959 . S
H1812 C1805 0.961 . S
H1813 C1805 0.960 . S
H1814 C1806 0.930 . S
H1815 C1807 0.929 . S
H1816 C1824 0.929 . S
H1817 C1826 0.930 . S
H1818 C1828 0.930 . S
H1819 C1831 0.929 . S
H1820 C1834 0.930 . S
H1821 C1836 0.960 . S
H1822 C1836 0.960 . S
H1823 C1836 0.960 . S
C1824 H1816 0.929 . S
C1824 C1825 1.377 . S
C1824 C1826 1.384 . S
C1825 C1824 1.377 . S
C1825 C1831 1.390 . S
C1826 H1817 0.930 . S
C1826 C1824 1.384 . S
C1826 C1827 1.372 . S
C1827 C1826 1.372 . S
C1827 C1828 1.400 . S
C1827 C1832 1.490 . S
C1828 H1818 0.930 . S
C1828 C1827 1.400 . S
C1828 C1831 1.386 . S
H1829 C1845 0.930 . S
H1830 C1846 0.931 . S
C1831 H1819 0.929 . S
C1831 C1825 1.390 . S
C1831 C1828 1.386 . S
C1832 C1827 1.490 . S
C1832 C1834 1.395 . S
C1832 C1835 1.403 . S
H1833 C1839 0.930 . S
C1834 H1820 0.930 . S
C1834 C1832 1.395 . S
C1834 C1837 1.403 . S
C1835 C1832 1.403 . S
C1835 C1836 1.524 . S
C1835 C1839 1.400 . S
C1836 H1821 0.960 . S
C1836 H1822 0.960 . S
C1836 H1823 0.960 . S
C1836 C1835 1.524 . S
C1837 C1834 1.403 . S
C1837 C1838 1.392 . S
C1837 C1841 1.495 . S
C1838 C1837 1.392 . S
C1838 C1839 1.385 . S
C1838 C1840 1.478 . S
C1839 H1833 0.930 . S
C1839 C1835 1.400 . S
C1839 C1838 1.385 . S
C1840 C1838 1.478 . S
C1840 C1842 1.381 . S
C1840 C1846 1.383 . S
C1841 C1837 1.495 . S
C1841 H1847 0.959 . S
C1841 H1848 0.961 . S
C1841 H1849 0.960 . S
C1842 C1840 1.381 . S
C1842 C1843 1.394 1_545 S
C1842 H1850 0.930 . S
C1843 C1842 1.394 1_565 S
C1843 C1844 1.383 . S
C1843 H1851 0.929 . S
C1844 C1843 1.383 . S
C1844 C1845 1.377 1_565 S
C1845 H1829 0.930 . S
C1845 C1844 1.377 1_545 S
C1845 C1846 1.379 . S
C1846 H1830 0.931 . S
C1846 C1840 1.383 . S
C1846 C1845 1.379 . S
H1847 C1841 0.959 . S
H1848 C1841 0.961 . S
H1849 C1841 0.960 . S
H1850 C1842 0.930 . S
H1851 C1843 0.929 . S
H1852 C1860 0.929 . S
H1853 C1862 0.930 . S
H1854 C1864 0.930 . S
H1855 C1867 0.929 . S
H1856 C1870 0.930 . S
H1857 C1872 0.960 . S
H1858 C1872 0.960 . S
H1859 C1872 0.960 . S
C1860 H1852 0.929 . S
C1860 C1861 1.377 . S
C1860 C1862 1.384 . S
C1861 C1860 1.377 . S
C1861 C1867 1.390 . S
C1862 H1853 0.930 . S
C1862 C1860 1.384 . S
C1862 C1863 1.372 . S
C1863 C1862 1.372 . S
C1863 C1864 1.400 . S
C1863 C1868 1.490 . S
C1864 H1854 0.930 . S
C1864 C1863 1.400 . S
C1864 C1867 1.386 . S
H1865 C1881 0.930 . S
H1866 C1882 0.931 . S
C1867 H1855 0.929 . S
C1867 C1861 1.390 . S
C1867 C1864 1.386 . S
C1868 C1863 1.490 . S
C1868 C1870 1.395 . S
C1868 C1871 1.403 . S
H1869 C1875 0.930 . S
C1870 H1856 0.930 . S
C1870 C1868 1.395 . S
C1870 C1873 1.403 . S
C1871 C1868 1.403 . S
C1871 C1872 1.524 . S
C1871 C1875 1.400 . S
C1872 H1857 0.960 . S
C1872 H1858 0.960 . S
C1872 H1859 0.960 . S
C1872 C1871 1.524 . S
C1873 C1870 1.403 . S
C1873 C1874 1.392 . S
C1873 C1877 1.495 . S
C1874 C1873 1.392 . S
C1874 C1875 1.385 . S
C1874 C1876 1.478 . S
C1875 H1869 0.930 . S
C1875 C1871 1.400 . S
C1875 C1874 1.385 . S
C1876 C1874 1.478 . S
C1876 C1878 1.381 . S
C1876 C1882 1.383 . S
C1877 C1873 1.495 . S
C1877 H1883 0.959 . S
C1877 H1884 0.961 . S
C1877 H1885 0.960 . S
C1878 C1876 1.381 . S
C1878 C1879 1.394 . S
C1878 H1886 0.930 . S
C1879 C1878 1.394 . S
C1879 C1880 1.383 . S
C1879 H1887 0.929 . S
C1880 C1879 1.383 . S
C1880 C1881 1.377 . S
C1881 H1865 0.930 . S
C1881 C1880 1.377 . S
C1881 C1882 1.379 . S
C1882 H1866 0.931 . S
C1882 C1876 1.383 . S
C1882 C1881 1.379 . S
H1883 C1877 0.959 . S
H1884 C1877 0.961 . S
H1885 C1877 0.960 . S
H1886 C1878 0.930 . S
H1887 C1879 0.929 . S
H1888 C1896 0.929 . S
H1889 C1898 0.930 . S
H1890 C1900 0.930 . S
H1891 C1903 0.929 . S
H1892 C1906 0.930 . S
H1893 C1908 0.960 . S
H1894 C1908 0.960 . S
H1895 C1908 0.960 . S
C1896 H1888 0.929 . S
C1896 C1897 1.377 . S
C1896 C1898 1.384 . S
C1897 C1896 1.377 . S
C1897 C1903 1.390 . S
C1898 H1889 0.930 . S
C1898 C1896 1.384 . S
C1898 C1899 1.372 . S
C1899 C1898 1.372 . S
C1899 C1900 1.400 . S
C1899 C1904 1.490 . S
C1900 H1890 0.930 . S
C1900 C1899 1.400 . S
C1900 C1903 1.386 . S
H1901 C1917 0.930 . S
H1902 C1918 0.931 . S
C1903 H1891 0.929 . S
C1903 C1897 1.390 . S
C1903 C1900 1.386 . S
C1904 C1899 1.490 . S
C1904 C1906 1.395 . S
C1904 C1907 1.403 . S
H1905 C1911 0.930 . S
C1906 H1892 0.930 . S
C1906 C1904 1.395 . S
C1906 C1909 1.403 . S
C1907 C1904 1.403 . S
C1907 C1908 1.524 . S
C1907 C1911 1.400 . S
C1908 H1893 0.960 . S
C1908 H1894 0.960 . S
C1908 H1895 0.960 . S
C1908 C1907 1.524 . S
C1909 C1906 1.403 . S
C1909 C1910 1.392 . S
C1909 C1913 1.495 . S
C1910 C1909 1.392 . S
C1910 C1911 1.385 . S
C1910 C1912 1.478 . S
C1911 H1905 0.930 . S
C1911 C1907 1.400 . S
C1911 C1910 1.385 . S
C1912 C1910 1.478 . S
C1912 C1914 1.381 . S
C1912 C1918 1.383 . S
C1913 C1909 1.495 . S
C1913 H1919 0.959 . S
C1913 H1920 0.961 . S
C1913 H1921 0.960 . S
C1914 C1912 1.381 . S
C1914 C1915 1.394 . S
C1914 H1922 0.930 . S
C1915 C1914 1.394 . S
C1915 C1916 1.383 . S
C1915 H1923 0.929 . S
C1916 C1915 1.383 . S
C1916 C1917 1.377 . S
C1917 H1901 0.930 . S
C1917 C1916 1.377 . S
C1917 C1918 1.379 . S
C1918 H1902 0.931 . S
C1918 C1912 1.383 . S
C1918 C1917 1.379 . S
H1919 C1913 0.959 . S
H1920 C1913 0.961 . S
H1921 C1913 0.960 . S
H1922 C1914 0.930 . S
H1923 C1915 0.929 . S
H1924 C1932 0.929 . S
H1925 C1934 0.930 . S
H1926 C1936 0.930 . S
H1927 C1939 0.929 . S
H1928 C1942 0.930 . S
H1929 C1944 0.960 . S
H1930 C1944 0.960 . S
H1931 C1944 0.960 . S
C1932 H1924 0.929 . S
C1932 C1933 1.377 . S
C1932 C1934 1.384 . S
C1933 C1932 1.377 . S
C1933 C1939 1.390 . S
C1934 H1925 0.930 . S
C1934 C1932 1.384 . S
C1934 C1935 1.372 . S
C1935 C1934 1.372 . S
C1935 C1936 1.400 . S
C1935 C1940 1.490 . S
C1936 H1926 0.930 . S
C1936 C1935 1.400 . S
C1936 C1939 1.386 . S
H1937 C1953 0.930 . S
H1938 C1954 0.931 . S
C1939 H1927 0.929 . S
C1939 C1933 1.390 . S
C1939 C1936 1.386 . S
C1940 C1935 1.490 . S
C1940 C1942 1.395 . S
C1940 C1943 1.403 . S
H1941 C1947 0.930 . S
C1942 H1928 0.930 . S
C1942 C1940 1.395 . S
C1942 C1945 1.403 . S
C1943 C1940 1.403 . S
C1943 C1944 1.524 . S
C1943 C1947 1.400 . S
C1944 H1929 0.960 . S
C1944 H1930 0.960 . S
C1944 H1931 0.960 . S
C1944 C1943 1.524 . S
C1945 C1942 1.403 . S
C1945 C1946 1.392 . S
C1945 C1949 1.495 . S
C1946 C1945 1.392 . S
C1946 C1947 1.385 . S
C1946 C1948 1.478 . S
C1947 H1941 0.930 . S
C1947 C1943 1.400 . S
C1947 C1946 1.385 . S
C1948 C1946 1.478 . S
C1948 C1950 1.381 . S
C1948 C1954 1.383 . S
C1949 C1945 1.495 . S
C1949 H1955 0.959 . S
C1949 H1956 0.961 . S
C1949 H1957 0.960 . S
C1950 C1948 1.381 . S
C1950 C1951 1.394 1_565 S
C1950 H1958 0.930 . S
C1951 C1950 1.394 1_545 S
C1951 C1952 1.383 . S
C1951 H1959 0.929 . S
C1952 C1951 1.383 . S
C1952 C1953 1.377 1_545 S
C1953 H1937 0.930 . S
C1953 C1952 1.377 1_565 S
C1953 C1954 1.379 . S
C1954 H1938 0.931 . S
C1954 C1948 1.383 . S
C1954 C1953 1.379 . S
H1955 C1949 0.959 . S
H1956 C1949 0.961 . S
H1957 C1949 0.960 . S
H1958 C1950 0.930 . S
H1959 C1951 0.929 . S
H1960 C1968 0.929 . S
H1961 C1970 0.930 . S
H1962 C1972 0.930 . S
H1963 C1975 0.929 . S
H1964 C1978 0.930 . S
H1965 C1980 0.960 . S
H1966 C1980 0.960 . S
H1967 C1980 0.960 . S
C1968 H1960 0.929 . S
C1968 C1969 1.377 . S
C1968 C1970 1.384 . S
C1969 C1968 1.377 . S
C1969 C1975 1.390 . S
C1970 H1961 0.930 . S
C1970 C1968 1.384 . S
C1970 C1971 1.372 . S
C1971 C1970 1.372 . S
C1971 C1972 1.400 . S
C1971 C1976 1.490 . S
C1972 H1962 0.930 . S
C1972 C1971 1.400 . S
C1972 C1975 1.386 . S
H1973 C1989 0.930 . S
H1974 C1990 0.931 . S
C1975 H1963 0.929 . S
C1975 C1969 1.390 . S
C1975 C1972 1.386 . S
C1976 C1971 1.490 . S
C1976 C1978 1.395 . S
C1976 C1979 1.403 . S
H1977 C1983 0.930 . S
C1978 H1964 0.930 . S
C1978 C1976 1.395 . S
C1978 C1981 1.403 . S
C1979 C1976 1.403 . S
C1979 C1980 1.524 . S
C1979 C1983 1.400 . S
C1980 H1965 0.960 . S
C1980 H1966 0.960 . S
C1980 H1967 0.960 . S
C1980 C1979 1.524 . S
C1981 C1978 1.403 . S
C1981 C1982 1.392 . S
C1981 C1985 1.495 . S
C1982 C1981 1.392 . S
C1982 C1983 1.385 . S
C1982 C1984 1.478 . S
C1983 H1977 0.930 . S
C1983 C1979 1.400 . S
C1983 C1982 1.385 . S
C1984 C1982 1.478 . S
C1984 C1986 1.381 . S
C1984 C1990 1.383 . S
C1985 C1981 1.495 . S
C1985 H1991 0.959 . S
C1985 H1992 0.961 . S
C1985 H1993 0.960 . S
C1986 C1984 1.381 . S
C1986 C1987 1.394 1_565 S
C1986 H1994 0.930 . S
C1987 C1986 1.394 1_545 S
C1987 C1988 1.383 . S
C1987 H1995 0.929 . S
C1988 C1987 1.383 . S
C1988 C1989 1.377 . S
C1989 H1973 0.930 . S
C1989 C1988 1.377 . S
C1989 C1990 1.379 1_545 S
C1990 H1974 0.931 . S
C1990 C1984 1.383 . S
C1990 C1989 1.379 1_565 S
H1991 C1985 0.959 . S
H1992 C1985 0.961 . S
H1993 C1985 0.960 . S
H1994 C1986 0.930 . S
H1995 C1987 0.929 . S
H1996 C2004 0.929 . S
H1997 C2006 0.930 . S
H1998 C2008 0.930 . S
H1999 C2011 0.929 . S
H2000 C2014 0.930 . S
H2001 C2016 0.960 . S
H2002 C2016 0.960 . S
H2003 C2016 0.960 . S
C2004 H1996 0.929 . S
C2004 C2005 1.377 . S
C2004 C2006 1.384 . S
C2005 C2004 1.377 . S
C2005 C2011 1.390 . S
C2006 H1997 0.930 . S
C2006 C2004 1.384 . S
C2006 C2007 1.372 . S
C2007 C2006 1.372 . S
C2007 C2008 1.400 . S
C2007 C2012 1.490 . S
C2008 H1998 0.930 . S
C2008 C2007 1.400 . S
C2008 C2011 1.386 . S
H2009 C2025 0.930 . S
H2010 C2026 0.931 . S
C2011 H1999 0.929 . S
C2011 C2005 1.390 . S
C2011 C2008 1.386 . S
C2012 C2007 1.490 . S
C2012 C2014 1.395 . S
C2012 C2015 1.403 . S
H2013 C2019 0.930 . S
C2014 H2000 0.930 . S
C2014 C2012 1.395 . S
C2014 C2017 1.403 . S
C2015 C2012 1.403 . S
C2015 C2016 1.524 . S
C2015 C2019 1.400 . S
C2016 H2001 0.960 . S
C2016 H2002 0.960 . S
C2016 H2003 0.960 . S
C2016 C2015 1.524 . S
C2017 C2014 1.403 . S
C2017 C2018 1.392 . S
C2017 C2021 1.495 . S
C2018 C2017 1.392 . S
C2018 C2019 1.385 . S
C2018 C2020 1.478 . S
C2019 H2013 0.930 . S
C2019 C2015 1.400 . S
C2019 C2018 1.385 . S
C2020 C2018 1.478 . S
C2020 C2022 1.381 . S
C2020 C2026 1.383 . S
C2021 C2017 1.495 . S
C2021 H2027 0.959 . S
C2021 H2028 0.961 . S
C2021 H2029 0.960 . S
C2022 C2020 1.381 . S
C2022 C2023 1.394 . S
C2022 H2030 0.930 . S
C2023 C2022 1.394 . S
C2023 C2024 1.383 . S
C2023 H2031 0.929 . S
C2024 C2023 1.383 . S
C2024 C2025 1.377 . S
C2025 H2009 0.930 . S
C2025 C2024 1.377 . S
C2025 C2026 1.379 . S
C2026 H2010 0.931 . S
C2026 C2020 1.383 . S
C2026 C2025 1.379 . S
H2027 C2021 0.959 . S
H2028 C2021 0.961 . S
H2029 C2021 0.960 . S
H2030 C2022 0.930 . S
H2031 C2023 0.929 . S
H2032 C2040 0.929 . S
H2033 C2042 0.930 . S
H2034 C2044 0.930 . S
H2035 C2047 0.929 . S
H2036 C2050 0.930 . S
H2037 C2052 0.960 . S
H2038 C2052 0.960 . S
H2039 C2052 0.960 . S
C2040 H2032 0.929 . S
C2040 C2041 1.377 . S
C2040 C2042 1.384 . S
C2041 C2040 1.377 . S
C2041 C2047 1.390 . S
C2042 H2033 0.930 . S
C2042 C2040 1.384 . S
C2042 C2043 1.372 . S
C2043 C2042 1.372 . S
C2043 C2044 1.400 . S
C2043 C2048 1.490 . S
C2044 H2034 0.930 . S
C2044 C2043 1.400 . S
C2044 C2047 1.386 . S
H2045 C2061 0.930 . S
H2046 C2062 0.931 . S
C2047 H2035 0.929 . S
C2047 C2041 1.390 . S
C2047 C2044 1.386 . S
C2048 C2043 1.490 . S
C2048 C2050 1.395 . S
C2048 C2051 1.403 . S
H2049 C2055 0.930 . S
C2050 H2036 0.930 . S
C2050 C2048 1.395 . S
C2050 C2053 1.403 . S
C2051 C2048 1.403 . S
C2051 C2052 1.524 . S
C2051 C2055 1.400 . S
C2052 H2037 0.960 . S
C2052 H2038 0.960 . S
C2052 H2039 0.960 . S
C2052 C2051 1.524 . S
C2053 C2050 1.403 . S
C2053 C2054 1.392 . S
C2053 C2057 1.495 . S
C2054 C2053 1.392 . S
C2054 C2055 1.385 . S
C2054 C2056 1.478 . S
C2055 H2049 0.930 . S
C2055 C2051 1.400 . S
C2055 C2054 1.385 . S
C2056 C2054 1.478 . S
C2056 C2058 1.381 . S
C2056 C2062 1.383 . S
C2057 C2053 1.495 . S
C2057 H2063 0.959 . S
C2057 H2064 0.961 . S
C2057 H2065 0.960 . S
C2058 C2056 1.381 . S
C2058 C2059 1.394 . S
C2058 H2066 0.930 . S
C2059 C2058 1.394 . S
C2059 C2060 1.383 . S
C2059 H2067 0.929 . S
C2060 C2059 1.383 . S
C2060 C2061 1.377 . S
C2061 H2045 0.930 . S
C2061 C2060 1.377 . S
C2061 C2062 1.379 . S
C2062 H2046 0.931 . S
C2062 C2056 1.383 . S
C2062 C2061 1.379 . S
H2063 C2057 0.959 . S
H2064 C2057 0.961 . S
H2065 C2057 0.960 . S
H2066 C2058 0.930 . S
H2067 C2059 0.929 . S
H2068 C2076 0.929 . S
H2069 C2078 0.930 . S
H2070 C2080 0.930 . S
H2071 C2083 0.929 . S
H2072 C2086 0.930 . S
H2073 C2088 0.960 . S
H2074 C2088 0.960 . S
H2075 C2088 0.960 . S
C2076 H2068 0.929 . S
C2076 C2077 1.377 . S
C2076 C2078 1.384 1_565 S
C2077 C2076 1.377 . S
C2077 C2083 1.390 1_565 S
C2078 H2069 0.930 . S
C2078 C2076 1.384 1_545 S
C2078 C2079 1.372 . S
C2079 C2078 1.372 . S
C2079 C2080 1.400 . S
C2079 C2084 1.490 . S
C2080 H2070 0.930 . S
C2080 C2079 1.400 . S
C2080 C2083 1.386 . S
H2081 C2097 0.930 . S
H2082 C2098 0.931 . S
C2083 H2071 0.929 . S
C2083 C2077 1.390 1_545 S
C2083 C2080 1.386 . S
C2084 C2079 1.490 . S
C2084 C2086 1.395 . S
C2084 C2087 1.403 . S
H2085 C2091 0.930 . S
C2086 H2072 0.930 . S
C2086 C2084 1.395 . S
C2086 C2089 1.403 . S
C2087 C2084 1.403 . S
C2087 C2088 1.524 . S
C2087 C2091 1.400 . S
C2088 H2073 0.960 . S
C2088 H2074 0.960 . S
C2088 H2075 0.960 . S
C2088 C2087 1.524 . S
C2089 C2086 1.403 . S
C2089 C2090 1.392 . S
C2089 C2093 1.495 . S
C2090 C2089 1.392 . S
C2090 C2091 1.385 . S
C2090 C2092 1.478 . S
C2091 H2085 0.930 . S
C2091 C2087 1.400 . S
C2091 C2090 1.385 . S
C2092 C2090 1.478 . S
C2092 C2094 1.381 . S
C2092 C2098 1.383 . S
C2093 C2089 1.495 . S
C2093 H2099 0.959 . S
C2093 H2100 0.961 . S
C2093 H2101 0.960 . S
C2094 C2092 1.381 . S
C2094 C2095 1.394 . S
C2094 H2102 0.930 . S
C2095 C2094 1.394 . S
C2095 C2096 1.383 . S
C2095 H2103 0.929 . S
C2096 C2095 1.383 . S
C2096 C2097 1.377 . S
C2097 H2081 0.930 . S
C2097 C2096 1.377 . S
C2097 C2098 1.379 . S
C2098 H2082 0.931 . S
C2098 C2092 1.383 . S
C2098 C2097 1.379 . S
H2099 C2093 0.959 . S
H2100 C2093 0.961 . S
H2101 C2093 0.960 . S
H2102 C2094 0.930 . S
H2103 C2095 0.929 . S
H2104 C2112 0.929 . S
H2105 C2114 0.930 . S
H2106 C2116 0.930 . S
H2107 C2119 0.929 . S
H2108 C2122 0.930 . S
H2109 C2124 0.960 . S
H2110 C2124 0.960 . S
H2111 C2124 0.960 . S
C2112 H2104 0.929 . S
C2112 C2113 1.377 . S
C2112 C2114 1.384 . S
C2113 C2112 1.377 . S
C2113 C2119 1.390 . S
C2114 H2105 0.930 . S
C2114 C2112 1.384 . S
C2114 C2115 1.372 . S
C2115 C2114 1.372 . S
C2115 C2116 1.400 . S
C2115 C2120 1.490 . S
C2116 H2106 0.930 . S
C2116 C2115 1.400 . S
C2116 C2119 1.386 . S
H2117 C2133 0.930 . S
H2118 C2134 0.931 . S
C2119 H2107 0.929 . S
C2119 C2113 1.390 . S
C2119 C2116 1.386 . S
C2120 C2115 1.490 . S
C2120 C2122 1.395 . S
C2120 C2123 1.403 . S
H2121 C2127 0.930 . S
C2122 H2108 0.930 . S
C2122 C2120 1.395 . S
C2122 C2125 1.403 . S
C2123 C2120 1.403 . S
C2123 C2124 1.524 . S
C2123 C2127 1.400 . S
C2124 H2109 0.960 . S
C2124 H2110 0.960 . S
C2124 H2111 0.960 . S
C2124 C2123 1.524 . S
C2125 C2122 1.403 . S
C2125 C2126 1.392 . S
C2125 C2129 1.495 . S
C2126 C2125 1.392 . S
C2126 C2127 1.385 . S
C2126 C2128 1.478 . S
C2127 H2121 0.930 . S
C2127 C2123 1.400 . S
C2127 C2126 1.385 . S
C2128 C2126 1.478 . S
C2128 C2130 1.381 . S
C2128 C2134 1.383 . S
C2129 C2125 1.495 . S
C2129 H2135 0.959 . S
C2129 H2136 0.961 . S
C2129 H2137 0.960 . S
C2130 C2128 1.381 . S
C2130 C2131 1.394 . S
C2130 H2138 0.930 . S
C2131 C2130 1.394 . S
C2131 C2132 1.383 1_545 S
C2131 H2139 0.929 . S
C2132 C2131 1.383 1_565 S
C2132 C2133 1.377 . S
C2133 H2117 0.930 . S
C2133 C2132 1.377 . S
C2133 C2134 1.379 1_565 S
C2134 H2118 0.931 . S
C2134 C2128 1.383 . S
C2134 C2133 1.379 1_545 S
H2135 C2129 0.959 . S
H2136 C2129 0.961 . S
H2137 C2129 0.960 . S
H2138 C2130 0.930 . S
H2139 C2131 0.929 . S
H2140 C2148 0.929 . S
H2141 C2150 0.930 . S
H2142 C2152 0.930 . S
H2143 C2155 0.929 . S
H2144 C2158 0.930 . S
H2145 C2160 0.960 . S
H2146 C2160 0.960 . S
H2147 C2160 0.960 . S
C2148 H2140 0.929 . S
C2148 C2149 1.377 . S
C2148 C2150 1.384 . S
C2149 C2148 1.377 . S
C2149 C2155 1.390 . S
C2150 H2141 0.930 . S
C2150 C2148 1.384 . S
C2150 C2151 1.372 . S
C2151 C2150 1.372 . S
C2151 C2152 1.400 . S
C2151 C2156 1.490 . S
C2152 H2142 0.930 . S
C2152 C2151 1.400 . S
C2152 C2155 1.386 . S
H2153 C2169 0.930 . S
H2154 C2170 0.931 . S
C2155 H2143 0.929 . S
C2155 C2149 1.390 . S
C2155 C2152 1.386 . S
C2156 C2151 1.490 . S
C2156 C2158 1.395 . S
C2156 C2159 1.403 . S
H2157 C2163 0.930 . S
C2158 H2144 0.930 . S
C2158 C2156 1.395 . S
C2158 C2161 1.403 . S
C2159 C2156 1.403 . S
C2159 C2160 1.524 . S
C2159 C2163 1.400 . S
C2160 H2145 0.960 . S
C2160 H2146 0.960 . S
C2160 H2147 0.960 . S
C2160 C2159 1.524 . S
C2161 C2158 1.403 . S
C2161 C2162 1.392 . S
C2161 C2165 1.495 . S
C2162 C2161 1.392 . S
C2162 C2163 1.385 . S
C2162 C2164 1.478 . S
C2163 H2157 0.930 . S
C2163 C2159 1.400 . S
C2163 C2162 1.385 . S
C2164 C2162 1.478 . S
C2164 C2166 1.381 . S
C2164 C2170 1.383 . S
C2165 C2161 1.495 . S
C2165 H2171 0.959 . S
C2165 H2172 0.961 . S
C2165 H2173 0.960 . S
C2166 C2164 1.381 . S
C2166 C2167 1.394 . S
C2166 H2174 0.930 . S
C2167 C2166 1.394 . S
C2167 C2168 1.383 . S
C2167 H2175 0.929 . S
C2168 C2167 1.383 . S
C2168 C2169 1.377 . S
C2169 H2153 0.930 . S
C2169 C2168 1.377 . S
C2169 C2170 1.379 . S
C2170 H2154 0.931 . S
C2170 C2164 1.383 . S
C2170 C2169 1.379 . S
H2171 C2165 0.959 . S
H2172 C2165 0.961 . S
H2173 C2165 0.960 . S
H2174 C2166 0.930 . S
H2175 C2167 0.929 . S
H2176 C2184 0.929 . S
H2177 C2186 0.930 . S
H2178 C2188 0.930 . S
H2179 C2191 0.929 . S
H2180 C2194 0.930 . S
H2181 C2196 0.960 . S
H2182 C2196 0.960 . S
H2183 C2196 0.960 . S
C2184 H2176 0.929 . S
C2184 C2185 1.377 . S
C2184 C2186 1.384 . S
C2185 C2184 1.377 . S
C2185 C2191 1.390 . S
C2186 H2177 0.930 . S
C2186 C2184 1.384 . S
C2186 C2187 1.372 . S
C2187 C2186 1.372 . S
C2187 C2188 1.400 . S
C2187 C2192 1.490 . S
C2188 H2178 0.930 . S
C2188 C2187 1.400 . S
C2188 C2191 1.386 . S
H2189 C2205 0.930 . S
H2190 C2206 0.931 . S
C2191 H2179 0.929 . S
C2191 C2185 1.390 . S
C2191 C2188 1.386 . S
C2192 C2187 1.490 . S
C2192 C2194 1.395 . S
C2192 C2195 1.403 . S
H2193 C2199 0.930 . S
C2194 H2180 0.930 . S
C2194 C2192 1.395 . S
C2194 C2197 1.403 . S
C2195 C2192 1.403 . S
C2195 C2196 1.524 . S
C2195 C2199 1.400 . S
C2196 H2181 0.960 . S
C2196 H2182 0.960 . S
C2196 H2183 0.960 . S
C2196 C2195 1.524 . S
C2197 C2194 1.403 . S
C2197 C2198 1.392 . S
C2197 C2201 1.495 . S
C2198 C2197 1.392 . S
C2198 C2199 1.385 . S
C2198 C2200 1.478 . S
C2199 H2193 0.930 . S
C2199 C2195 1.400 . S
C2199 C2198 1.385 . S
C2200 C2198 1.478 . S
C2200 C2202 1.381 . S
C2200 C2206 1.383 . S
C2201 C2197 1.495 . S
C2201 H2207 0.959 . S
C2201 H2208 0.961 . S
C2201 H2209 0.960 . S
C2202 C2200 1.381 . S
C2202 C2203 1.394 . S
C2202 H2210 0.930 . S
C2203 C2202 1.394 . S
C2203 C2204 1.383 1_565 S
C2203 H2211 0.929 1_565 S
C2204 C2203 1.383 1_545 S
C2204 C2205 1.377 . S
C2205 H2189 0.930 . S
C2205 C2204 1.377 . S
C2205 C2206 1.379 1_545 S
C2206 H2190 0.931 . S
C2206 C2200 1.383 . S
C2206 C2205 1.379 1_565 S
H2207 C2201 0.959 . S
H2208 C2201 0.961 . S
H2209 C2201 0.960 . S
H2210 C2202 0.930 . S
H2211 C2203 0.929 1_545 S
H2212 C2220 0.929 . S
H2213 C2222 0.930 . S
H2214 C2224 0.930 . S
H2215 C2227 0.929 . S
H2216 C2230 0.930 . S
H2217 C2232 0.960 . S
H2218 C2232 0.960 . S
H2219 C2232 0.960 . S
C2220 H2212 0.929 . S
C2220 C2221 1.377 . S
C2220 C2222 1.384 . S
C2221 C2220 1.377 . S
C2221 C2227 1.390 . S
C2222 H2213 0.930 . S
C2222 C2220 1.384 . S
C2222 C2223 1.372 . S
C2223 C2222 1.372 . S
C2223 C2224 1.400 . S
C2223 C2228 1.490 . S
C2224 H2214 0.930 . S
C2224 C2223 1.400 . S
C2224 C2227 1.386 . S
H2225 C2241 0.930 . S
H2226 C2242 0.931 . S
C2227 H2215 0.929 . S
C2227 C2221 1.390 . S
C2227 C2224 1.386 . S
C2228 C2223 1.490 . S
C2228 C2230 1.395 . S
C2228 C2231 1.403 . S
H2229 C2235 0.930 . S
C2230 H2216 0.930 . S
C2230 C2228 1.395 . S
C2230 C2233 1.403 . S
C2231 C2228 1.403 . S
C2231 C2232 1.524 . S
C2231 C2235 1.400 . S
C2232 H2217 0.960 . S
C2232 H2218 0.960 . S
C2232 H2219 0.960 . S
C2232 C2231 1.524 . S
C2233 C2230 1.403 . S
C2233 C2234 1.392 . S
C2233 C2237 1.495 . S
C2234 C2233 1.392 . S
C2234 C2235 1.385 . S
C2234 C2236 1.478 . S
C2235 H2229 0.930 . S
C2235 C2231 1.400 . S
C2235 C2234 1.385 . S
C2236 C2234 1.478 . S
C2236 C2238 1.381 . S
C2236 C2242 1.383 . S
C2237 C2233 1.495 . S
C2237 H2243 0.959 . S
C2237 H2244 0.961 . S
C2237 H2245 0.960 . S
C2238 C2236 1.381 . S
C2238 C2239 1.394 . S
C2238 H2246 0.930 . S
C2239 C2238 1.394 . S
C2239 C2240 1.383 . S
C2239 H2247 0.929 . S
C2240 C2239 1.383 . S
C2240 C2241 1.377 . S
C2241 H2225 0.930 . S
C2241 C2240 1.377 . S
C2241 C2242 1.379 . S
C2242 H2226 0.931 . S
C2242 C2236 1.383 . S
C2242 C2241 1.379 . S
H2243 C2237 0.959 . S
H2244 C2237 0.961 . S
H2245 C2237 0.960 . S
H2246 C2238 0.930 . S
H2247 C2239 0.929 . S
H2248 C2256 0.929 . S
H2249 C2258 0.930 . S
H2250 C2260 0.930 . S
H2251 C2263 0.929 . S
H2252 C2266 0.930 . S
H2253 C2268 0.960 . S
H2254 C2268 0.960 . S
H2255 C2268 0.960 . S
C2256 H2248 0.929 . S
C2256 C2257 1.377 . S
C2256 C2258 1.384 . S
C2257 C2256 1.377 . S
C2257 C2263 1.390 . S
C2258 H2249 0.930 . S
C2258 C2256 1.384 . S
C2258 C2259 1.372 . S
C2259 C2258 1.372 . S
C2259 C2260 1.400 . S
C2259 C2264 1.490 . S
C2260 H2250 0.930 . S
C2260 C2259 1.400 . S
C2260 C2263 1.386 . S
H2261 C2277 0.930 . S
H2262 C2278 0.931 . S
C2263 H2251 0.929 . S
C2263 C2257 1.390 . S
C2263 C2260 1.386 . S
C2264 C2259 1.490 . S
C2264 C2266 1.395 . S
C2264 C2267 1.403 . S
H2265 C2271 0.930 . S
C2266 H2252 0.930 . S
C2266 C2264 1.395 . S
C2266 C2269 1.403 . S
C2267 C2264 1.403 . S
C2267 C2268 1.524 . S
C2267 C2271 1.400 . S
C2268 H2253 0.960 . S
C2268 H2254 0.960 . S
C2268 H2255 0.960 . S
C2268 C2267 1.524 . S
C2269 C2266 1.403 . S
C2269 C2270 1.392 . S
C2269 C2273 1.495 . S
C2270 C2269 1.392 . S
C2270 C2271 1.385 . S
C2270 C2272 1.478 . S
C2271 H2265 0.930 . S
C2271 C2267 1.400 . S
C2271 C2270 1.385 . S
C2272 C2270 1.478 . S
C2272 C2274 1.381 . S
C2272 C2278 1.383 . S
C2273 C2269 1.495 . S
C2273 H2279 0.959 . S
C2273 H2280 0.961 . S
C2273 H2281 0.960 . S
C2274 C2272 1.381 . S
C2274 C2275 1.394 . S
C2274 H2282 0.930 . S
C2275 C2274 1.394 . S
C2275 C2276 1.383 . S
C2275 H2283 0.929 . S
C2276 C2275 1.383 . S
C2276 C2277 1.377 . S
C2277 H2261 0.930 . S
C2277 C2276 1.377 . S
C2277 C2278 1.379 . S
C2278 H2262 0.931 . S
C2278 C2272 1.383 . S
C2278 C2277 1.379 . S
H2279 C2273 0.959 . S
H2280 C2273 0.961 . S
H2281 C2273 0.960 . S
H2282 C2274 0.930 . S
H2283 C2275 0.929 . S
H2284 C2292 0.923 1_545 S
H2285 C2294 0.930 . S
H2286 C2296 0.930 . S
H2287 C2299 0.929 . S
H2288 C2302 0.930 . S
H2289 C2304 0.960 . S
H2290 C2304 0.960 . S
H2291 C2304 0.960 . S
C2292 H2284 0.923 1_565 S
C2292 C2293 1.361 1_565 S
C2292 C2294 1.407 . S
C2293 C2292 1.361 1_545 S
C2293 C2299 1.390 . S
C2294 H2285 0.930 . S
C2294 C2292 1.407 . S
C2294 C2295 1.372 . S
C2295 C2294 1.372 . S
C2295 C2296 1.400 . S
C2295 C2300 1.490 . S
C2296 H2286 0.930 . S
C2296 C2295 1.400 . S
C2296 C2299 1.386 1_565 S
H2297 C2313 0.930 . S
H2298 C2314 0.931 . S
C2299 H2287 0.929 . S
C2299 C2293 1.390 . S
C2299 C2296 1.386 1_545 S
C2300 C2295 1.490 . S
C2300 C2302 1.395 . S
C2300 C2303 1.403 . S
H2301 C2307 0.930 . S
C2302 H2288 0.930 . S
C2302 C2300 1.395 . S
C2302 C2305 1.403 . S
C2303 C2300 1.403 . S
C2303 C2304 1.524 . S
C2303 C2307 1.400 . S
C2304 H2289 0.960 . S
C2304 H2290 0.960 . S
C2304 H2291 0.960 . S
C2304 C2303 1.524 . S
C2305 C2302 1.403 . S
C2305 C2306 1.392 . S
C2305 C2309 1.495 . S
C2306 C2305 1.392 . S
C2306 C2307 1.385 . S
C2306 C2308 1.478 . S
C2307 H2301 0.930 . S
C2307 C2303 1.400 . S
C2307 C2306 1.385 . S
C2308 C2306 1.478 . S
C2308 C2310 1.381 . S
C2308 C2314 1.383 . S
C2309 C2305 1.495 . S
C2309 H2315 0.959 . S
C2309 H2316 0.961 . S
C2309 H2317 0.960 . S
C2310 C2308 1.381 . S
C2310 C2311 1.394 . S
C2310 H2318 0.930 . S
C2311 C2310 1.394 . S
C2311 C2312 1.383 . S
C2311 H2319 0.929 . S
C2312 C2311 1.383 . S
C2312 C2313 1.377 . S
C2313 H2297 0.930 . S
C2313 C2312 1.377 . S
C2313 C2314 1.379 . S
C2314 H2298 0.931 . S
C2314 C2308 1.383 . S
C2314 C2313 1.379 . S
H2315 C2309 0.959 . S
H2316 C2309 0.961 . S
H2317 C2309 0.960 . S
H2318 C2310 0.930 . S
H2319 C2311 0.929 . S
H2320 C2328 0.929 . S
H2321 C2330 0.930 . S
H2322 C2332 0.930 . S
H2323 C2335 0.929 . S
H2324 C2338 0.930 . S
H2325 C2340 0.960 . S
H2326 C2340 0.960 . S
H2327 C2340 0.960 . S
C2328 H2320 0.929 . S
C2328 C2329 1.377 . S
C2328 C2330 1.384 . S
C2329 C2328 1.377 . S
C2329 C2335 1.390 . S
C2330 H2321 0.930 . S
C2330 C2328 1.384 . S
C2330 C2331 1.372 . S
C2331 C2330 1.372 . S
C2331 C2332 1.400 . S
C2331 C2336 1.490 . S
C2332 H2322 0.930 . S
C2332 C2331 1.400 . S
C2332 C2335 1.386 . S
H2333 C2349 0.930 . S
H2334 C2350 0.931 . S
C2335 H2323 0.929 . S
C2335 C2329 1.390 . S
C2335 C2332 1.386 . S
C2336 C2331 1.490 . S
C2336 C2338 1.395 . S
C2336 C2339 1.403 . S
H2337 C2343 0.930 . S
C2338 H2324 0.930 . S
C2338 C2336 1.395 . S
C2338 C2341 1.403 . S
C2339 C2336 1.403 . S
C2339 C2340 1.524 . S
C2339 C2343 1.400 . S
C2340 H2325 0.960 . S
C2340 H2326 0.960 . S
C2340 H2327 0.960 . S
C2340 C2339 1.524 . S
C2341 C2338 1.403 . S
C2341 C2342 1.392 . S
C2341 C2345 1.495 . S
C2342 C2341 1.392 . S
C2342 C2343 1.385 . S
C2342 C2344 1.478 . S
C2343 H2337 0.930 . S
C2343 C2339 1.400 . S
C2343 C2342 1.385 . S
C2344 C2342 1.478 . S
C2344 C2346 1.381 . S
C2344 C2350 1.383 . S
C2345 C2341 1.495 . S
C2345 H2351 0.959 . S
C2345 H2352 0.961 . S
C2345 H2353 0.960 . S
C2346 C2344 1.381 . S
C2346 C2347 1.394 1_545 S
C2346 H2354 0.930 . S
C2347 C2346 1.394 1_565 S
C2347 C2348 1.383 . S
C2347 H2355 0.929 . S
C2348 C2347 1.383 . S
C2348 C2349 1.377 1_565 S
C2349 H2333 0.930 . S
C2349 C2348 1.377 1_545 S
C2349 C2350 1.379 . S
C2350 H2334 0.931 . S
C2350 C2344 1.383 . S
C2350 C2349 1.379 . S
H2351 C2345 0.959 . S
H2352 C2345 0.961 . S
H2353 C2345 0.960 . S
H2354 C2346 0.930 . S
H2355 C2347 0.929 . S
H2356 C2364 0.929 . S
H2357 C2366 0.930 . S
H2358 C2368 0.930 . S
H2359 C2371 0.929 . S
H2360 C2374 0.930 . S
H2361 C2376 0.960 . S
H2362 C2376 0.960 . S
H2363 C2376 0.960 . S
C2364 H2356 0.929 . S
C2364 C2365 1.377 . S
C2364 C2366 1.384 . S
C2365 C2364 1.377 . S
C2365 C2371 1.390 . S
C2366 H2357 0.930 . S
C2366 C2364 1.384 . S
C2366 C2367 1.372 . S
C2367 C2366 1.372 . S
C2367 C2368 1.400 . S
C2367 C2372 1.490 . S
C2368 H2358 0.930 . S
C2368 C2367 1.400 . S
C2368 C2371 1.386 . S
H2369 C2385 0.930 . S
H2370 C2386 0.931 . S
C2371 H2359 0.929 . S
C2371 C2365 1.390 . S
C2371 C2368 1.386 . S
C2372 C2367 1.490 . S
C2372 C2374 1.395 . S
C2372 C2375 1.403 . S
H2373 C2379 0.930 . S
C2374 H2360 0.930 . S
C2374 C2372 1.395 . S
C2374 C2377 1.403 . S
C2375 C2372 1.403 . S
C2375 C2376 1.524 . S
C2375 C2379 1.400 . S
C2376 H2361 0.960 . S
C2376 H2362 0.960 . S
C2376 H2363 0.960 . S
C2376 C2375 1.524 . S
C2377 C2374 1.403 . S
C2377 C2378 1.392 . S
C2377 C2381 1.495 . S
C2378 C2377 1.392 . S
C2378 C2379 1.385 . S
C2378 C2380 1.478 . S
C2379 H2373 0.930 . S
C2379 C2375 1.400 . S
C2379 C2378 1.385 . S
C2380 C2378 1.478 . S
C2380 C2382 1.381 . S
C2380 C2386 1.383 . S
C2381 C2377 1.495 . S
C2381 H2387 0.959 . S
C2381 H2388 0.961 . S
C2381 H2389 0.960 . S
C2382 C2380 1.381 . S
C2382 C2383 1.394 . S
C2382 H2390 0.930 . S
C2383 C2382 1.394 . S
C2383 C2384 1.383 . S
C2383 H2391 0.929 . S
C2384 C2383 1.383 . S
C2384 C2385 1.377 . S
C2385 H2369 0.930 . S
C2385 C2384 1.377 . S
C2385 C2386 1.379 . S
C2386 H2370 0.931 . S
C2386 C2380 1.383 . S
C2386 C2385 1.379 . S
H2387 C2381 0.959 . S
H2388 C2381 0.961 . S
H2389 C2381 0.960 . S
H2390 C2382 0.930 . S
H2391 C2383 0.929 . S
H2392 C2400 0.929 . S
H2393 C2402 0.930 . S
H2394 C2404 0.930 . S
H2395 C2407 0.929 . S
H2396 C2410 0.930 . S
H2397 C2412 0.960 . S
H2398 C2412 0.960 . S
H2399 C2412 0.960 . S
C2400 H2392 0.929 . S
C2400 C2401 1.377 . S
C2400 C2402 1.384 . S
C2401 C2400 1.377 . S
C2401 C2407 1.390 . S
C2402 H2393 0.930 . S
C2402 C2400 1.384 . S
C2402 C2403 1.372 . S
C2403 C2402 1.372 . S
C2403 C2404 1.400 . S
C2403 C2408 1.490 . S
C2404 H2394 0.930 . S
C2404 C2403 1.400 . S
C2404 C2407 1.386 . S
H2405 C2421 0.930 . S
H2406 C2422 0.931 . S
C2407 H2395 0.929 . S
C2407 C2401 1.390 . S
C2407 C2404 1.386 . S
C2408 C2403 1.490 . S
C2408 C2410 1.395 . S
C2408 C2411 1.403 . S
H2409 C2415 0.930 . S
C2410 H2396 0.930 . S
C2410 C2408 1.395 . S
C2410 C2413 1.403 . S
C2411 C2408 1.403 . S
C2411 C2412 1.524 . S
C2411 C2415 1.400 . S
C2412 H2397 0.960 . S
C2412 H2398 0.960 . S
C2412 H2399 0.960 . S
C2412 C2411 1.524 . S
C2413 C2410 1.403 . S
C2413 C2414 1.392 . S
C2413 C2417 1.495 . S
C2414 C2413 1.392 . S
C2414 C2415 1.385 . S
C2414 C2416 1.478 . S
C2415 H2409 0.930 . S
C2415 C2411 1.400 . S
C2415 C2414 1.385 . S
C2416 C2414 1.478 . S
C2416 C2418 1.381 . S
C2416 C2422 1.383 . S
C2417 C2413 1.495 . S
C2417 H2423 0.959 . S
C2417 H2424 0.961 . S
C2417 H2425 0.960 . S
C2418 C2416 1.381 . S
C2418 C2419 1.394 . S
C2418 H2426 0.930 . S
C2419 C2418 1.394 . S
C2419 C2420 1.383 . S
C2419 H2427 0.929 . S
C2420 C2419 1.383 . S
C2420 C2421 1.377 . S
C2421 H2405 0.930 . S
C2421 C2420 1.377 . S
C2421 C2422 1.379 . S
C2422 H2406 0.931 . S
C2422 C2416 1.383 . S
C2422 C2421 1.379 . S
H2423 C2417 0.959 . S
H2424 C2417 0.961 . S
H2425 C2417 0.960 . S
H2426 C2418 0.930 . S
H2427 C2419 0.929 . S
H2428 C2436 0.929 . S
H2429 C2438 0.930 . S
H2430 C2440 0.930 . S
H2431 C2443 0.929 . S
H2432 C2446 0.930 . S
H2433 C2448 0.960 . S
H2434 C2448 0.960 . S
H2435 C2448 0.960 . S
C2436 H2428 0.929 . S
C2436 C2437 1.377 . S
C2436 C2438 1.384 . S
C2437 C2436 1.377 . S
C2437 C2443 1.390 . S
C2438 H2429 0.930 . S
C2438 C2436 1.384 . S
C2438 C2439 1.372 . S
C2439 C2438 1.372 . S
C2439 C2440 1.400 . S
C2439 C2444 1.490 . S
C2440 H2430 0.930 . S
C2440 C2439 1.400 . S
C2440 C2443 1.386 . S
H2441 C2457 0.930 . S
H2442 C2458 0.931 . S
C2443 H2431 0.929 . S
C2443 C2437 1.390 . S
C2443 C2440 1.386 . S
C2444 C2439 1.490 . S
C2444 C2446 1.395 . S
C2444 C2447 1.403 . S
H2445 C2451 0.930 . S
C2446 H2432 0.930 . S
C2446 C2444 1.395 . S
C2446 C2449 1.403 . S
C2447 C2444 1.403 . S
C2447 C2448 1.524 . S
C2447 C2451 1.400 . S
C2448 H2433 0.960 . S
C2448 H2434 0.960 . S
C2448 H2435 0.960 . S
C2448 C2447 1.524 . S
C2449 C2446 1.403 . S
C2449 C2450 1.392 . S
C2449 C2453 1.495 . S
C2450 C2449 1.392 . S
C2450 C2451 1.385 . S
C2450 C2452 1.478 . S
C2451 H2445 0.930 . S
C2451 C2447 1.400 . S
C2451 C2450 1.385 . S
C2452 C2450 1.478 . S
C2452 C2454 1.381 . S
C2452 C2458 1.383 . S
C2453 C2449 1.495 . S
C2453 H2459 0.959 . S
C2453 H2460 0.961 . S
C2453 H2461 0.960 . S
C2454 C2452 1.381 . S
C2454 C2455 1.394 1_545 S
C2454 H2462 0.930 . S
C2455 C2454 1.394 1_565 S
C2455 C2456 1.383 . S
C2455 H2463 0.929 . S
C2456 C2455 1.383 . S
C2456 C2457 1.377 . S
C2457 H2441 0.930 . S
C2457 C2456 1.377 . S
C2457 C2458 1.379 1_565 S
C2458 H2442 0.931 . S
C2458 C2452 1.383 . S
C2458 C2457 1.379 1_545 S
H2459 C2453 0.959 . S
H2460 C2453 0.961 . S
H2461 C2453 0.960 . S
H2462 C2454 0.930 . S
H2463 C2455 0.929 . S
H2464 C2472 0.929 . S
H2465 C2474 0.930 . S
H2466 C2476 0.930 . S
H2467 C2479 0.929 . S
H2468 C2482 0.930 . S
H2469 C2484 0.960 . S
H2470 C2484 0.960 . S
H2471 C2484 0.960 . S
C2472 H2464 0.929 . S
C2472 C2473 1.377 . S
C2472 C2474 1.384 . S
C2473 C2472 1.377 . S
C2473 C2479 1.390 . S
C2474 H2465 0.930 . S
C2474 C2472 1.384 . S
C2474 C2475 1.372 . S
C2475 C2474 1.372 . S
C2475 C2476 1.400 . S
C2475 C2480 1.490 . S
C2476 H2466 0.930 . S
C2476 C2475 1.400 . S
C2476 C2479 1.386 . S
H2477 C2493 0.930 . S
H2478 C2494 0.931 . S
C2479 H2467 0.929 . S
C2479 C2473 1.390 . S
C2479 C2476 1.386 . S
C2480 C2475 1.490 . S
C2480 C2482 1.395 . S
C2480 C2483 1.403 . S
H2481 C2487 0.930 . S
C2482 H2468 0.930 . S
C2482 C2480 1.395 . S
C2482 C2485 1.403 . S
C2483 C2480 1.403 . S
C2483 C2484 1.524 . S
C2483 C2487 1.400 . S
C2484 H2469 0.960 . S
C2484 H2470 0.960 . S
C2484 H2471 0.960 . S
C2484 C2483 1.524 . S
C2485 C2482 1.403 . S
C2485 C2486 1.392 . S
C2485 C2489 1.495 . S
C2486 C2485 1.392 . S
C2486 C2487 1.385 . S
C2486 C2488 1.478 . S
C2487 H2481 0.930 . S
C2487 C2483 1.400 . S
C2487 C2486 1.385 . S
C2488 C2486 1.478 . S
C2488 C2490 1.381 . S
C2488 C2494 1.383 . S
C2489 C2485 1.495 . S
C2489 H2495 0.959 . S
C2489 H2496 0.961 . S
C2489 H2497 0.960 . S
C2490 C2488 1.381 . S
C2490 C2491 1.394 1_565 S
C2490 H2498 0.930 . S
C2491 C2490 1.394 1_545 S
C2491 C2492 1.383 . S
C2491 H2499 0.929 . S
C2492 C2491 1.383 . S
C2492 C2493 1.377 . S
C2493 H2477 0.930 . S
C2493 C2492 1.377 . S
C2493 C2494 1.379 1_545 S
C2494 H2478 0.931 . S
C2494 C2488 1.383 . S
C2494 C2493 1.379 1_565 S
H2495 C2489 0.959 . S
H2496 C2489 0.961 . S
H2497 C2489 0.960 . S
H2498 C2490 0.930 . S
H2499 C2491 0.929 . S
H2500 C2508 0.929 . S
H2501 C2510 0.930 . S
H2502 C2512 0.930 . S
H2503 C2515 0.929 . S
H2504 C2518 0.930 . S
H2505 C2520 0.960 . S
H2506 C2520 0.960 . S
H2507 C2520 0.960 . S
C2508 H2500 0.929 . S
C2508 C2509 1.377 . S
C2508 C2510 1.384 . S
C2509 C2508 1.377 . S
C2509 C2515 1.390 . S
C2510 H2501 0.930 . S
C2510 C2508 1.384 . S
C2510 C2511 1.372 . S
C2511 C2510 1.372 . S
C2511 C2512 1.400 . S
C2511 C2516 1.490 . S
C2512 H2502 0.930 . S
C2512 C2511 1.400 . S
C2512 C2515 1.386 . S
H2513 C2529 0.930 . S
H2514 C2530 0.931 . S
C2515 H2503 0.929 . S
C2515 C2509 1.390 . S
C2515 C2512 1.386 . S
C2516 C2511 1.490 . S
C2516 C2518 1.395 . S
C2516 C2519 1.403 . S
H2517 C2523 0.930 . S
C2518 H2504 0.930 . S
C2518 C2516 1.395 . S
C2518 C2521 1.403 . S
C2519 C2516 1.403 . S
C2519 C2520 1.524 . S
C2519 C2523 1.400 . S
C2520 H2505 0.960 . S
C2520 H2506 0.960 . S
C2520 H2507 0.960 . S
C2520 C2519 1.524 . S
C2521 C2518 1.403 . S
C2521 C2522 1.392 . S
C2521 C2525 1.495 . S
C2522 C2521 1.392 . S
C2522 C2523 1.385 . S
C2522 C2524 1.478 . S
C2523 H2517 0.930 . S
C2523 C2519 1.400 . S
C2523 C2522 1.385 . S
C2524 C2522 1.478 . S
C2524 C2526 1.381 . S
C2524 C2530 1.383 . S
C2525 C2521 1.495 . S
C2525 H2531 0.959 . S
C2525 H2532 0.961 . S
C2525 H2533 0.960 . S
C2526 C2524 1.381 . S
C2526 C2527 1.394 . S
C2526 H2534 0.930 . S
C2527 C2526 1.394 . S
C2527 C2528 1.383 . S
C2527 H2535 0.929 . S
C2528 C2527 1.383 . S
C2528 C2529 1.377 . S
C2529 H2513 0.930 . S
C2529 C2528 1.377 . S
C2529 C2530 1.379 . S
C2530 H2514 0.931 . S
C2530 C2524 1.383 . S
C2530 C2529 1.379 . S
H2531 C2525 0.959 . S
H2532 C2525 0.961 . S
H2533 C2525 0.960 . S
H2534 C2526 0.930 . S
H2535 C2527 0.929 . S
H2536 C2544 0.929 . S
H2537 C2546 0.930 . S
H2538 C2548 0.930 . S
H2539 C2551 0.929 . S
H2540 C2554 0.930 . S
H2541 C2556 0.960 . S
H2542 C2556 0.960 . S
H2543 C2556 0.960 . S
C2544 H2536 0.929 . S
C2544 C2545 1.377 . S
C2544 C2546 1.384 . S
C2545 C2544 1.377 . S
C2545 C2551 1.390 . S
C2546 H2537 0.930 . S
C2546 C2544 1.384 . S
C2546 C2547 1.372 . S
C2547 C2546 1.372 . S
C2547 C2548 1.400 . S
C2547 C2552 1.490 . S
C2548 H2538 0.930 . S
C2548 C2547 1.400 . S
C2548 C2551 1.386 . S
H2549 C2565 0.930 . S
H2550 C2566 0.931 . S
C2551 H2539 0.929 . S
C2551 C2545 1.390 . S
C2551 C2548 1.386 . S
C2552 C2547 1.490 . S
C2552 C2554 1.395 . S
C2552 C2555 1.403 . S
H2553 C2559 0.930 . S
C2554 H2540 0.930 . S
C2554 C2552 1.395 . S
C2554 C2557 1.403 . S
C2555 C2552 1.403 . S
C2555 C2556 1.524 . S
C2555 C2559 1.400 . S
C2556 H2541 0.960 . S
C2556 H2542 0.960 . S
C2556 H2543 0.960 . S
C2556 C2555 1.524 . S
C2557 C2554 1.403 . S
C2557 C2558 1.392 . S
C2557 C2561 1.495 . S
C2558 C2557 1.392 . S
C2558 C2559 1.385 . S
C2558 C2560 1.478 . S
C2559 H2553 0.930 . S
C2559 C2555 1.400 . S
C2559 C2558 1.385 . S
C2560 C2558 1.478 . S
C2560 C2562 1.381 . S
C2560 C2566 1.383 . S
C2561 C2557 1.495 . S
C2561 H2567 0.959 . S
C2561 H2568 0.961 . S
C2561 H2569 0.960 . S
C2562 C2560 1.381 . S
C2562 C2563 1.394 . S
C2562 H2570 0.930 . S
C2563 C2562 1.394 . S
C2563 C2564 1.383 . S
C2563 H2571 0.929 . S
C2564 C2563 1.383 . S
C2564 C2565 1.377 . S
C2565 H2549 0.930 . S
C2565 C2564 1.377 . S
C2565 C2566 1.379 . S
C2566 H2550 0.931 . S
C2566 C2560 1.383 . S
C2566 C2565 1.379 . S
H2567 C2561 0.959 . S
H2568 C2561 0.961 . S
H2569 C2561 0.960 . S
H2570 C2562 0.930 . S
H2571 C2563 0.929 . S
H2572 C2580 0.929 . S
H2573 C2582 0.930 . S
H2574 C2584 0.930 . S
H2575 C2587 0.929 . S
H2576 C2590 0.930 . S
H2577 C2592 0.960 . S
H2578 C2592 0.960 . S
H2579 C2592 0.960 . S
C2580 H2572 0.929 . S
C2580 C2581 1.377 . S
C2580 C2582 1.384 1_545 S
C2581 C2580 1.377 . S
C2581 C2587 1.390 . S
C2582 H2573 0.930 . S
C2582 C2580 1.384 1_565 S
C2582 C2583 1.372 . S
C2583 C2582 1.372 . S
C2583 C2584 1.400 . S
C2583 C2588 1.490 . S
C2584 H2574 0.930 . S
C2584 C2583 1.400 . S
C2584 C2587 1.386 1_565 S
H2585 C2601 0.930 . S
H2586 C2602 0.931 . S
C2587 H2575 0.929 . S
C2587 C2581 1.390 . S
C2587 C2584 1.386 1_545 S
C2588 C2583 1.490 . S
C2588 C2590 1.395 . S
C2588 C2591 1.403 . S
H2589 C2595 0.930 . S
C2590 H2576 0.930 . S
C2590 C2588 1.395 . S
C2590 C2593 1.403 . S
C2591 C2588 1.403 . S
C2591 C2592 1.524 . S
C2591 C2595 1.400 . S
C2592 H2577 0.960 . S
C2592 H2578 0.960 . S
C2592 H2579 0.960 . S
C2592 C2591 1.524 . S
C2593 C2590 1.403 . S
C2593 C2594 1.392 . S
C2593 C2597 1.495 . S
C2594 C2593 1.392 . S
C2594 C2595 1.385 . S
C2594 C2596 1.478 . S
C2595 H2589 0.930 . S
C2595 C2591 1.400 . S
C2595 C2594 1.385 . S
C2596 C2594 1.478 . S
C2596 C2598 1.381 . S
C2596 C2602 1.383 . S
C2597 C2593 1.495 . S
C2597 H2603 0.959 . S
C2597 H2604 0.961 . S
C2597 H2605 0.960 . S
C2598 C2596 1.381 . S
C2598 C2599 1.394 . S
C2598 H2606 0.930 . S
C2599 C2598 1.394 . S
C2599 C2600 1.383 . S
C2599 H2607 0.929 . S
C2600 C2599 1.383 . S
C2600 C2601 1.377 . S
C2601 H2585 0.930 . S
C2601 C2600 1.377 . S
C2601 C2602 1.379 . S
C2602 H2586 0.931 . S
C2602 C2596 1.383 . S
C2602 C2601 1.379 . S
H2603 C2597 0.959 . S
H2604 C2597 0.961 . S
H2605 C2597 0.960 . S
H2606 C2598 0.930 . S
H2607 C2599 0.929 . S
H2608 C2616 0.929 . S
H2609 C2618 0.930 . S
H2610 C2620 0.930 . S
H2611 C2623 0.929 . S
H2612 C2626 0.930 . S
H2613 C2628 0.960 . S
H2614 C2628 0.960 . S
H2615 C2628 0.960 . S
C2616 H2608 0.929 . S
C2616 C2617 1.377 . S
C2616 C2618 1.384 . S
C2617 C2616 1.377 . S
C2617 C2623 1.390 . S
C2618 H2609 0.930 . S
C2618 C2616 1.384 . S
C2618 C2619 1.372 . S
C2619 C2618 1.372 . S
C2619 C2620 1.400 . S
C2619 C2624 1.490 . S
C2620 H2610 0.930 . S
C2620 C2619 1.400 . S
C2620 C2623 1.386 . S
H2621 C2637 0.930 . S
H2622 C2638 0.931 . S
C2623 H2611 0.929 . S
C2623 C2617 1.390 . S
C2623 C2620 1.386 . S
C2624 C2619 1.490 . S
C2624 C2626 1.395 . S
C2624 C2627 1.403 . S
H2625 C2631 0.930 . S
C2626 H2612 0.930 . S
C2626 C2624 1.395 . S
C2626 C2629 1.403 . S
C2627 C2624 1.403 . S
C2627 C2628 1.524 . S
C2627 C2631 1.400 . S
C2628 H2613 0.960 . S
C2628 H2614 0.960 . S
C2628 H2615 0.960 . S
C2628 C2627 1.524 . S
C2629 C2626 1.403 . S
C2629 C2630 1.392 . S
C2629 C2633 1.495 . S
C2630 C2629 1.392 . S
C2630 C2631 1.385 . S
C2630 C2632 1.478 . S
C2631 H2625 0.930 . S
C2631 C2627 1.400 . S
C2631 C2630 1.385 . S
C2632 C2630 1.478 . S
C2632 C2634 1.381 . S
C2632 C2638 1.383 . S
C2633 C2629 1.495 . S
C2633 H2639 0.959 . S
C2633 H2640 0.961 . S
C2633 H2641 0.960 . S
C2634 C2632 1.381 . S
C2634 C2635 1.394 1_545 S
C2634 H2642 0.930 . S
C2635 C2634 1.394 1_565 S
C2635 C2636 1.383 . S
C2635 H2643 0.929 . S
C2636 C2635 1.383 . S
C2636 C2637 1.377 1_565 S
C2637 H2621 0.930 . S
C2637 C2636 1.377 1_545 S
C2637 C2638 1.379 . S
C2638 H2622 0.931 . S
C2638 C2632 1.383 . S
C2638 C2637 1.379 . S
H2639 C2633 0.959 . S
H2640 C2633 0.961 . S
H2641 C2633 0.960 . S
H2642 C2634 0.930 . S
H2643 C2635 0.929 . S
H2644 C2652 0.929 . S
H2645 C2654 0.930 . S
H2646 C2656 0.930 . S
H2647 C2659 0.929 . S
H2648 C2662 0.930 . S
H2649 C2664 0.960 . S
H2650 C2664 0.960 . S
H2651 C2664 0.960 . S
C2652 H2644 0.929 . S
C2652 C2653 1.377 . S
C2652 C2654 1.384 . S
C2653 C2652 1.377 . S
C2653 C2659 1.390 . S
C2654 H2645 0.930 . S
C2654 C2652 1.384 . S
C2654 C2655 1.372 . S
C2655 C2654 1.372 . S
C2655 C2656 1.400 . S
C2655 C2660 1.490 . S
C2656 H2646 0.930 . S
C2656 C2655 1.400 . S
C2656 C2659 1.386 . S
H2657 C2673 0.930 . S
H2658 C2674 0.931 . S
C2659 H2647 0.929 . S
C2659 C2653 1.390 . S
C2659 C2656 1.386 . S
C2660 C2655 1.490 . S
C2660 C2662 1.395 . S
C2660 C2663 1.403 . S
H2661 C2667 0.930 . S
C2662 H2648 0.930 . S
C2662 C2660 1.395 . S
C2662 C2665 1.403 . S
C2663 C2660 1.403 . S
C2663 C2664 1.524 . S
C2663 C2667 1.400 . S
C2664 H2649 0.960 . S
C2664 H2650 0.960 . S
C2664 H2651 0.960 . S
C2664 C2663 1.524 . S
C2665 C2662 1.403 . S
C2665 C2666 1.392 . S
C2665 C2669 1.495 . S
C2666 C2665 1.392 . S
C2666 C2667 1.385 . S
C2666 C2668 1.478 . S
C2667 H2661 0.930 . S
C2667 C2663 1.400 . S
C2667 C2666 1.385 . S
C2668 C2666 1.478 . S
C2668 C2670 1.381 . S
C2668 C2674 1.383 . S
C2669 C2665 1.495 . S
C2669 H2675 0.959 . S
C2669 H2676 0.961 . S
C2669 H2677 0.960 . S
C2670 C2668 1.381 . S
C2670 C2671 1.394 . S
C2670 H2678 0.930 . S
C2671 C2670 1.394 . S
C2671 C2672 1.383 . S
C2671 H2679 0.929 . S
C2672 C2671 1.383 . S
C2672 C2673 1.377 . S
C2673 H2657 0.930 . S
C2673 C2672 1.377 . S
C2673 C2674 1.379 . S
C2674 H2658 0.931 . S
C2674 C2668 1.383 . S
C2674 C2673 1.379 . S
H2675 C2669 0.959 . S
H2676 C2669 0.961 . S
H2677 C2669 0.960 . S
H2678 C2670 0.930 . S
H2679 C2671 0.929 . S
H2680 C2688 0.929 . S
H2681 C2690 0.930 . S
H2682 C2692 0.930 . S
H2683 C2695 0.929 . S
H2684 C2698 0.930 . S
H2685 C2700 0.960 . S
H2686 C2700 0.960 . S
H2687 C2700 0.960 . S
C2688 H2680 0.929 . S
C2688 C2689 1.377 . S
C2688 C2690 1.384 . S
C2689 C2688 1.377 . S
C2689 C2695 1.390 . S
C2690 H2681 0.930 . S
C2690 C2688 1.384 . S
C2690 C2691 1.372 . S
C2691 C2690 1.372 . S
C2691 C2692 1.400 . S
C2691 C2696 1.490 . S
C2692 H2682 0.930 . S
C2692 C2691 1.400 . S
C2692 C2695 1.386 . S
H2693 C2709 0.930 . S
H2694 C2710 0.931 . S
C2695 H2683 0.929 . S
C2695 C2689 1.390 . S
C2695 C2692 1.386 . S
C2696 C2691 1.490 . S
C2696 C2698 1.395 . S
C2696 C2699 1.403 . S
H2697 C2703 0.930 . S
C2698 H2684 0.930 . S
C2698 C2696 1.395 . S
C2698 C2701 1.403 . S
C2699 C2696 1.403 . S
C2699 C2700 1.524 . S
C2699 C2703 1.400 . S
C2700 H2685 0.960 . S
C2700 H2686 0.960 . S
C2700 H2687 0.960 . S
C2700 C2699 1.524 . S
C2701 C2698 1.403 . S
C2701 C2702 1.392 . S
C2701 C2705 1.495 . S
C2702 C2701 1.392 . S
C2702 C2703 1.385 . S
C2702 C2704 1.478 . S
C2703 H2697 0.930 . S
C2703 C2699 1.400 . S
C2703 C2702 1.385 . S
C2704 C2702 1.478 . S
C2704 C2706 1.381 . S
C2704 C2710 1.383 . S
C2705 C2701 1.495 . S
C2705 H2711 0.959 . S
C2705 H2712 0.961 . S
C2705 H2713 0.960 . S
C2706 C2704 1.381 . S
C2706 C2707 1.394 . S
C2706 H2714 0.930 . S
C2707 C2706 1.394 . S
C2707 C2708 1.383 . S
C2707 H2715 0.929 . S
C2708 C2707 1.383 . S
C2708 C2709 1.377 . S
C2709 H2693 0.930 . S
C2709 C2708 1.377 . S
C2709 C2710 1.379 . S
C2710 H2694 0.931 . S
C2710 C2704 1.383 . S
C2710 C2709 1.379 . S
H2711 C2705 0.959 . S
H2712 C2705 0.961 . S
H2713 C2705 0.960 . S
H2714 C2706 0.930 . S
H2715 C2707 0.929 . S
H2716 C2724 0.929 . S
H2717 C2726 0.930 . S
H2718 C2728 0.930 . S
H2719 C2731 0.929 . S
H2720 C2734 0.930 . S
H2721 C2736 0.960 . S
H2722 C2736 0.960 . S
H2723 C2736 0.960 . S
C2724 H2716 0.929 . S
C2724 C2725 1.377 . S
C2724 C2726 1.384 1_565 S
C2725 C2724 1.377 . S
C2725 C2731 1.390 1_565 S
C2726 H2717 0.930 . S
C2726 C2724 1.384 1_545 S
C2726 C2727 1.372 . S
C2727 C2726 1.372 . S
C2727 C2728 1.400 . S
C2727 C2732 1.490 . S
C2728 H2718 0.930 . S
C2728 C2727 1.400 . S
C2728 C2731 1.386 . S
H2729 C2745 0.930 . S
H2730 C2746 0.931 . S
C2731 H2719 0.929 . S
C2731 C2725 1.390 1_545 S
C2731 C2728 1.386 . S
C2732 C2727 1.490 . S
C2732 C2734 1.395 . S
C2732 C2735 1.403 . S
H2733 C2739 0.930 . S
C2734 H2720 0.930 . S
C2734 C2732 1.395 . S
C2734 C2737 1.403 . S
C2735 C2732 1.403 . S
C2735 C2736 1.524 . S
C2735 C2739 1.400 . S
C2736 H2721 0.960 . S
C2736 H2722 0.960 . S
C2736 H2723 0.960 . S
C2736 C2735 1.524 . S
C2737 C2734 1.403 . S
C2737 C2738 1.392 . S
C2737 C2741 1.495 . S
C2738 C2737 1.392 . S
C2738 C2739 1.385 . S
C2738 C2740 1.478 . S
C2739 H2733 0.930 . S
C2739 C2735 1.400 . S
C2739 C2738 1.385 . S
C2740 C2738 1.478 . S
C2740 C2742 1.381 . S
C2740 C2746 1.383 . S
C2741 C2737 1.495 . S
C2741 H2747 0.959 . S
C2741 H2748 0.961 . S
C2741 H2749 0.960 . S
C2742 C2740 1.381 . S
C2742 C2743 1.394 . S
C2742 H2750 0.930 . S
C2743 C2742 1.394 . S
C2743 C2744 1.383 . S
C2743 H2751 0.929 . S
C2744 C2743 1.383 . S
C2744 C2745 1.377 . S
C2745 H2729 0.930 . S
C2745 C2744 1.377 . S
C2745 C2746 1.379 . S
C2746 H2730 0.931 . S
C2746 C2740 1.383 . S
C2746 C2745 1.379 . S
H2747 C2741 0.959 . S
H2748 C2741 0.961 . S
H2749 C2741 0.960 . S
H2750 C2742 0.930 . S
H2751 C2743 0.929 . S
C457 C5 1.399 . S
C476 C19 1.398 . S
C493 C47 1.401 . S
C512 C33 1.407 . S
C529 C61 1.399 . S
C548 C75 1.407 . S
C565 C89 1.399 . S
C584 C103 1.401 . S
C601 C117 1.399 . S
C620 C131 1.402 . S
C637 C145 1.403 . S
C656 C159 1.399 . S
C673 C173 1.400 . S
C692 C187 1.397 . S
C709 C201 1.403 . S
C728 C215 1.396 . S
C745 C243 1.403 . S
C764 C229 1.397 . S
C781 C271 1.400 . S
C800 C257 1.390 . S
C817 C299 1.402 . S
C836 C285 1.400 . S
C853 C327 1.399 . S
C872 C313 1.403 . S
C889 C355 1.399 . S
C908 C341 1.395 . S
C925 C383 1.400 . S
C944 C369 1.405 . S
C961 C411 1.399 . S
C980 C397 1.400 . S
C997 C439 1.400 . S
C1016 C425 1.397 . S
C1033 C11 1.411 . S
C1052 C179 1.396 . S
C1069 C25 1.408 . S
C1088 C305 1.422 . S
C1105 C39 1.412 . S
C1124 C95 1.425 . S
C1141 C53 1.412 . S
C1160 C445 1.401 . S
C1177 C67 1.411 . S
C1196 C123 1.395 . S
C1213 C249 1.410 . S
C1232 C81 1.389 . S
C1249 C389 1.413 . S
C1268 C109 1.413 . S
C1285 C137 1.406 . S
C1304 C417 1.385 . S
C1321 C151 1.406 . S
C1340 C207 1.413 . S
C1357 C165 1.406 . S
C1376 C333 1.411 . S
C1393 C193 1.411 . S
C1412 C361 1.395 . S
C1429 C221 1.406 . S
C1448 C277 1.386 . S
C1465 C403 1.408 . S
C1484 C235 1.423 . S
C1501 C319 1.404 . S
C1520 C263 1.396 . S
C1537 C291 1.405 . S
C1556 C347 1.390 . S
C1573 C431 1.410 . S
C1592 C375 1.427 . S
C1609 C149 0.599 . S
C1628 C9 0.619 . S
C1645 C163 0.596 . S
C1664 C23 0.604 . S
C1681 C37 0.597 . S
C1700 C121 0.577 . S
C1717 C135 0.601 . S
C1736 C51 0.592 . S
C1753 C65 0.604 . S
C1772 C205 0.613 . S
C1789 C79 0.595 . S
C1808 C219 0.608 . S
C1825 C177 0.594 . S
C1844 C93 0.600 . S
C1861 C191 0.594 . S
C1880 C107 0.599 . S
C1897 C233 0.594 . S
C1916 C373 0.583 . S
C1933 C387 0.595 . S
C1952 C247 0.595 . S
C1969 C345 0.596 . S
C1988 C261 0.576 . S
C2005 C275 0.604 . S
C2024 C359 0.620 . S
C2041 C429 0.594 . S
C2060 C289 0.595 . S
C2077 C303 0.602 . S
C2096 C443 0.585 . S
C2113 C401 0.604 . S
C2132 C317 0.606 . S
C2149 C415 0.601 . S
C2168 C331 0.624 . S
C2185 C140 1.544 . S
C2204 C0 1.561 . S
C2221 C154 1.545 . S
C2240 C14 1.546 . S
C2257 C112 1.548 . S
C2276 C28 1.531 . S
C2293 C42 1.548 . S
C2312 C126 1.530 . S
C2329 C196 1.544 . S
C2348 C56 1.542 . S
C2365 C210 1.547 . S
C2384 C70 1.554 . S
C2401 C168 1.544 . S
C2420 C84 1.538 . S
C2437 C182 1.543 . S
C2456 C98 1.529 . S
C2473 C364 1.547 . S
C2492 C224 1.537 . S
C2509 C378 1.543 . S
C2528 C238 1.554 . S
C2545 C336 1.547 . S
C2564 C252 1.550 . S
C2581 C266 1.547 . S
C2600 C350 1.537 . S
C2617 C420 1.550 . S
C2636 C280 1.563 . S
C2653 C294 1.543 . S
C2672 C434 1.527 . S
C2689 C392 1.546 . S
C2708 C308 1.529 . S
C2725 C322 1.549 . S
C2744 C406 1.543 . S
