# Generated by pormake.
# Topology lta, (4)-cn, num edge types: 1
# Building blocks:
#     Node 0, Type 0, BuildingBlock: NAHDIM_clean_sbu_0, # of connection points: 4
#     Node 1, Type 0, BuildingBlock: NAHDIM_clean_sbu_0, # of connection points: 4
#     Node 2, Type 0, BuildingBlock: NAHDIM_clean_sbu_0, # of connection points: 4
#     Node 3, Type 0, BuildingBlock: NAHDIM_clean_sbu_0, # of connection points: 4
#     Node 4, Type 0, BuildingBlock: NAHDIM_clean_sbu_0, # of connection points: 4
#     Node 5, Type 0, BuildingBlock: NAHDIM_clean_sbu_0, # of connection points: 4
#     Node 6, Type 0, BuildingBlock: NAHDIM_clean_sbu_0, # of connection points: 4
#     Node 7, Type 0, BuildingBlock: NAHDIM_clean_sbu_0, # of connection points: 4
#     Node 8, Type 0, BuildingBlock: NAHDIM_clean_sbu_0, # of connection points: 4
#     Node 9, Type 0, BuildingBlock: NAHDIM_clean_sbu_0, # of connection points: 4
#     Node 10, Type 0, BuildingBlock: NAHDIM_clean_sbu_0, # of connection points: 4
#     Node 11, Type 0, BuildingBlock: NAHDIM_clean_sbu_0, # of connection points: 4
#     Node 12, Type 0, BuildingBlock: NAHDIM_clean_sbu_0, # of connection points: 4
#     Node 13, Type 0, BuildingBlock: NAHDIM_clean_sbu_0, # of connection points: 4
#     Node 14, Type 0, BuildingBlock: NAHDIM_clean_sbu_0, # of connection points: 4
#     Node 15, Type 0, BuildingBlock: NAHDIM_clean_sbu_0, # of connection points: 4
#     Node 16, Type 0, BuildingBlock: NAHDIM_clean_sbu_0, # of connection points: 4
#     Node 17, Type 0, BuildingBlock: NAHDIM_clean_sbu_0, # of connection points: 4
#     Node 18, Type 0, BuildingBlock: NAHDIM_clean_sbu_0, # of connection points: 4
#     Node 19, Type 0, BuildingBlock: NAHDIM_clean_sbu_0, # of connection points: 4
#     Node 20, Type 0, BuildingBlock: NAHDIM_clean_sbu_0, # of connection points: 4
#     Node 21, Type 0, BuildingBlock: NAHDIM_clean_sbu_0, # of connection points: 4
#     Node 22, Type 0, BuildingBlock: NAHDIM_clean_sbu_0, # of connection points: 4
#     Node 23, Type 0, BuildingBlock: NAHDIM_clean_sbu_0, # of connection points: 4
#     Edge 24, Type (0, 0), BuildingBlock: XUDNAN_clean_linker_2, # of connection points: 2
#     Edge 25, Type (0, 0), BuildingBlock: XUDNAN_clean_linker_2, # of connection points: 2
#     Edge 26, Type (0, 0), BuildingBlock: XUDNAN_clean_linker_2, # of connection points: 2
#     Edge 27, Type (0, 0), BuildingBlock: XUDNAN_clean_linker_2, # of connection points: 2
#     Edge 28, Type (0, 0), BuildingBlock: XUDNAN_clean_linker_2, # of connection points: 2
#     Edge 29, Type (0, 0), BuildingBlock: XUDNAN_clean_linker_2, # of connection points: 2
#     Edge 30, Type (0, 0), BuildingBlock: XUDNAN_clean_linker_2, # of connection points: 2
#     Edge 31, Type (0, 0), BuildingBlock: XUDNAN_clean_linker_2, # of connection points: 2
#     Edge 32, Type (0, 0), BuildingBlock: XUDNAN_clean_linker_2, # of connection points: 2
#     Edge 33, Type (0, 0), BuildingBlock: XUDNAN_clean_linker_2, # of connection points: 2
#     Edge 34, Type (0, 0), BuildingBlock: XUDNAN_clean_linker_2, # of connection points: 2
#     Edge 35, Type (0, 0), BuildingBlock: XUDNAN_clean_linker_2, # of connection points: 2
#     Edge 36, Type (0, 0), BuildingBlock: XUDNAN_clean_linker_2, # of connection points: 2
#     Edge 37, Type (0, 0), BuildingBlock: XUDNAN_clean_linker_2, # of connection points: 2
#     Edge 38, Type (0, 0), BuildingBlock: XUDNAN_clean_linker_2, # of connection points: 2
#     Edge 39, Type (0, 0), BuildingBlock: XUDNAN_clean_linker_2, # of connection points: 2
#     Edge 40, Type (0, 0), BuildingBlock: XUDNAN_clean_linker_2, # of connection points: 2
#     Edge 41, Type (0, 0), BuildingBlock: XUDNAN_clean_linker_2, # of connection points: 2
#     Edge 42, Type (0, 0), BuildingBlock: XUDNAN_clean_linker_2, # of connection points: 2
#     Edge 43, Type (0, 0), BuildingBlock: XUDNAN_clean_linker_2, # of connection points: 2
#     Edge 44, Type (0, 0), BuildingBlock: XUDNAN_clean_linker_2, # of connection points: 2
#     Edge 45, Type (0, 0), BuildingBlock: XUDNAN_clean_linker_2, # of connection points: 2
#     Edge 46, Type (0, 0), BuildingBlock: XUDNAN_clean_linker_2, # of connection points: 2
#     Edge 47, Type (0, 0), BuildingBlock: XUDNAN_clean_linker_2, # of connection points: 2
#     Edge 48, Type (0, 0), BuildingBlock: XUDNAN_clean_linker_2, # of connection points: 2
#     Edge 49, Type (0, 0), BuildingBlock: XUDNAN_clean_linker_2, # of connection points: 2
#     Edge 50, Type (0, 0), BuildingBlock: XUDNAN_clean_linker_2, # of connection points: 2
#     Edge 51, Type (0, 0), BuildingBlock: XUDNAN_clean_linker_2, # of connection points: 2
#     Edge 52, Type (0, 0), BuildingBlock: XUDNAN_clean_linker_2, # of connection points: 2
#     Edge 53, Type (0, 0), BuildingBlock: XUDNAN_clean_linker_2, # of connection points: 2
#     Edge 54, Type (0, 0), BuildingBlock: XUDNAN_clean_linker_2, # of connection points: 2
#     Edge 55, Type (0, 0), BuildingBlock: XUDNAN_clean_linker_2, # of connection points: 2
#     Edge 56, Type (0, 0), BuildingBlock: XUDNAN_clean_linker_2, # of connection points: 2
#     Edge 57, Type (0, 0), BuildingBlock: XUDNAN_clean_linker_2, # of connection points: 2
#     Edge 58, Type (0, 0), BuildingBlock: XUDNAN_clean_linker_2, # of connection points: 2
#     Edge 59, Type (0, 0), BuildingBlock: XUDNAN_clean_linker_2, # of connection points: 2
#     Edge 60, Type (0, 0), BuildingBlock: XUDNAN_clean_linker_2, # of connection points: 2
#     Edge 61, Type (0, 0), BuildingBlock: XUDNAN_clean_linker_2, # of connection points: 2
#     Edge 62, Type (0, 0), BuildingBlock: XUDNAN_clean_linker_2, # of connection points: 2
#     Edge 63, Type (0, 0), BuildingBlock: XUDNAN_clean_linker_2, # of connection points: 2
#     Edge 64, Type (0, 0), BuildingBlock: XUDNAN_clean_linker_2, # of connection points: 2
#     Edge 65, Type (0, 0), BuildingBlock: XUDNAN_clean_linker_2, # of connection points: 2
#     Edge 66, Type (0, 0), BuildingBlock: XUDNAN_clean_linker_2, # of connection points: 2
#     Edge 67, Type (0, 0), BuildingBlock: XUDNAN_clean_linker_2, # of connection points: 2
#     Edge 68, Type (0, 0), BuildingBlock: XUDNAN_clean_linker_2, # of connection points: 2
#     Edge 69, Type (0, 0), BuildingBlock: XUDNAN_clean_linker_2, # of connection points: 2
#     Edge 70, Type (0, 0), BuildingBlock: XUDNAN_clean_linker_2, # of connection points: 2
#     Edge 71, Type (0, 0), BuildingBlock: XUDNAN_clean_linker_2, # of connection points: 2
# Relax obj value: 0.180
# Max RMSD: 0.068
# Mean RMSD: 0.068
data_MOF--net-lta--node1-NAHDIM_clean_sbu_0--edge1-XUDNAN_clean_linker_2
_symmetry_space_group_name_H-M    P1
_symmetry_Int_Tables_number       1
_symmetry_cell_setting            triclinic
loop_
_symmetry_equiv_pos_as_xyz
'x, y, z'
_cell_length_a     56.883545
_cell_length_b     56.86028
_cell_length_c     56.886152
_cell_angle_alpha  90.030395
_cell_angle_beta   90.026324
_cell_angle_gamma 89.926677
loop_
_atom_site_label
_atom_site_type_symbol
_atom_site_fract_x
_atom_site_fract_y
_atom_site_fract_z
_atom_type_partial_charge
C0 C 0.15438 0.2753 0.47146 0.0
O1 O 0.14895 0.28153 0.49303 0.0
O2 O 0.12407 0.32582 0.48994 0.0
Zn3 Zn 0.11792 0.30835 0.45967 0.0
O4 O 0.11744 0.33085 0.43248 0.0
C5 C 0.08027 0.28177 0.48041 0.0
O6 O 0.09531 0.27973 0.49782 0.0
O7 O 0.14321 0.28433 0.45435 0.0
C8 C 0.10191 0.34688 0.43123 0.0
O9 O 0.08596 0.34844 0.44787 0.0
C10 C 0.13167 0.34681 0.49088 0.0
O11 O 0.13627 0.35814 0.47132 0.0
O12 O 0.08637 0.29281 0.46199 0.0
C13 C 0.69138 0.17737 0.50253 0.0
O14 O 0.66844 0.18014 0.50297 0.0
O15 O 0.66123 0.13071 0.5361 0.0
Zn16 Zn 0.67755 0.1297 0.50475 0.0
O17 O 0.65407 0.13317 0.47866 0.0
C18 C 0.69167 0.08128 0.51245 0.0
O19 O 0.67672 0.08245 0.53 0.0
O20 O 0.69987 0.15672 0.50315 0.0
C21 C 0.66148 0.13444 0.45764 0.0
O22 O 0.68422 0.13351 0.45369 0.0
C23 C 0.63999 0.12429 0.53859 0.0
O24 O 0.62842 0.1162 0.5203 0.0
O25 O 0.6951 0.09938 0.49984 0.0
C26 C 0.85115 0.72088 0.49697 0.0
O27 O 0.86738 0.71128 0.48363 0.0
O28 O 0.85594 0.66927 0.55648 0.0
Zn29 Zn 0.86405 0.68202 0.52465 0.0
O30 O 0.8551 0.65694 0.50149 0.0
C31 C 0.90951 0.69771 0.53998 0.0
O32 O 0.89753 0.70474 0.55844 0.0
O33 O 0.84646 0.71151 0.5167 0.0
C34 C 0.86798 0.65032 0.48449 0.0
O35 O 0.88838 0.66057 0.48105 0.0
C36 C 0.83627 0.65914 0.55941 0.0
O37 O 0.82075 0.65971 0.54231 0.0
O38 O 0.89876 0.68775 0.52315 0.0
C39 C 0.27312 0.84345 0.49674 0.0
O40 O 0.27625 0.8508 0.47508 0.0
O41 O 0.33084 0.87891 0.5353 0.0
Zn42 Zn 0.31114 0.87499 0.50622 0.0
O43 O 0.33153 0.86348 0.47968 0.0
C44 C 0.29031 0.92007 0.51418 0.0
O45 O 0.29445 0.91439 0.53618 0.0
O46 O 0.28618 0.85142 0.51299 0.0
C47 C 0.34016 0.87741 0.46453 0.0
O48 O 0.33516 0.89993 0.46575 0.0
C49 C 0.34932 0.86679 0.5386 0.0
O50 O 0.35586 0.85153 0.52253 0.0
O51 O 0.29586 0.90573 0.49797 0.0
C52 C 0.15507 0.71823 0.50242 0.0
O53 O 0.14584 0.71439 0.48159 0.0
O54 O 0.12989 0.66286 0.48427 0.0
Zn55 Zn 0.12882 0.67686 0.51659 0.0
O56 O 0.13953 0.65251 0.53957 0.0
C57 C 0.07869 0.68451 0.51105 0.0
O58 O 0.08229 0.67584 0.48994 0.0
O59 O 0.15015 0.70455 0.51933 0.0
C60 C 0.14087 0.65778 0.56122 0.0
O61 O 0.13524 0.67917 0.56796 0.0
C62 C 0.14912 0.65656 0.47482 0.0
O63 O 0.16894 0.65997 0.48618 0.0
O64 O 0.09593 0.68666 0.52508 0.0
C65 C 0.28164 0.15867 0.4748 0.0
O66 O 0.29208 0.14731 0.45762 0.0
O67 O 0.33038 0.12055 0.47585 0.0
Zn68 Zn 0.30894 0.12687 0.5031 0.0
O69 O 0.32885 0.13352 0.53149 0.0
C70 C 0.28005 0.08766 0.49134 0.0
O71 O 0.27843 0.09927 0.47145 0.0
O72 O 0.28637 0.15322 0.49596 0.0
C73 C 0.32157 0.12905 0.55212 0.0
O74 O 0.3 0.12133 0.55499 0.0
C75 C 0.3454 0.13485 0.46763 0.0
O76 O 0.34742 0.15587 0.47701 0.0
O77 O 0.29142 0.09675 0.50829 0.0
C78 C 0.82013 0.2918 0.4971 0.0
O79 O 0.81988 0.31487 0.49577 0.0
O80 O 0.86679 0.32053 0.46663 0.0
Zn81 Zn 0.86799 0.30211 0.49663 0.0
O82 O 0.8661 0.32505 0.52334 0.0
C83 C 0.91042 0.27933 0.48089 0.0
O84 O 0.90193 0.28453 0.46005 0.0
O85 O 0.8398 0.2812 0.49778 0.0
C86 C 0.86122 0.3183 0.54404 0.0
O87 O 0.85762 0.29582 0.548 0.0
C88 C 0.88089 0.33753 0.46348 0.0
O89 O 0.89652 0.34234 0.4798 0.0
O90 O 0.89842 0.28425 0.49908 0.0
C91 C 0.73696 0.84587 0.46426 0.0
O92 O 0.73128 0.8564 0.44451 0.0
O93 O 0.6798 0.86944 0.45143 0.0
Zn94 Zn 0.69682 0.87115 0.48247 0.0
O95 O 0.67533 0.86234 0.50904 0.0
C96 C 0.71898 0.91675 0.47429 0.0
O97 O 0.72712 0.90714 0.45493 0.0
O98 O 0.72478 0.84968 0.48258 0.0
C99 C 0.65841 0.87602 0.51417 0.0
O100 O 0.65503 0.89499 0.50142 0.0
C101 C 0.66091 0.85784 0.44868 0.0
O102 O 0.65225 0.84598 0.46648 0.0
O103 O 0.70655 0.90453 0.4882 0.0
C104 C 0.48742 0.18278 0.30099 0.0
O105 O 0.4875 0.18304 0.32409 0.0
O106 O 0.52571 0.1383 0.32779 0.0
Zn107 Zn 0.4949 0.13489 0.31052 0.0
O108 O 0.46825 0.13304 0.33388 0.0
C109 C 0.50964 0.08898 0.2957 0.0
O110 O 0.52586 0.09283 0.31168 0.0
O111 O 0.49022 0.16333 0.29037 0.0
C112 C 0.45913 0.11347 0.33959 0.0
O113 O 0.46695 0.09405 0.32983 0.0
C114 C 0.5268 0.14016 0.35003 0.0
O115 O 0.50726 0.14046 0.36232 0.0
O116 O 0.49494 0.10518 0.29106 0.0
C117 C 0.82172 0.53249 0.30434 0.0
O118 O 0.83008 0.54881 0.31838 0.0
O119 O 0.85981 0.52743 0.3517 0.0
Zn120 Zn 0.85957 0.50556 0.32405 0.0
O121 O 0.85844 0.47261 0.33638 0.0
C122 C 0.89625 0.53041 0.30034 0.0
O123 O 0.88281 0.5486 0.30515 0.0
O124 O 0.83165 0.51246 0.30363 0.0
C125 C 0.87441 0.46704 0.35098 0.0
O126 O 0.89054 0.48266 0.35638 0.0
C127 C 0.84396 0.5259 0.36733 0.0
O128 O 0.82756 0.50979 0.36516 0.0
O129 O 0.88944 0.50998 0.30618 0.0
C130 C 0.49702 0.83672 0.28311 0.0
O131 O 0.50592 0.82585 0.30145 0.0
O132 O 0.46693 0.87307 0.33556 0.0
Zn133 Zn 0.49488 0.87709 0.31433 0.0
O134 O 0.5242 0.86795 0.33175 0.0
C135 C 0.48476 0.92011 0.28949 0.0
O136 O 0.46904 0.907 0.27878 0.0
O137 O 0.49114 0.85819 0.28484 0.0
C138 C 0.54423 0.87305 0.32332 0.0
O139 O 0.5454 0.8834 0.30271 0.0
C140 C 0.46363 0.85403 0.34676 0.0
O141 O 0.47851 0.83657 0.34397 0.0
O142 O 0.49758 0.91104 0.30538 0.0
C143 C 0.15327 0.52048 0.27246 0.0
O144 O 0.16273 0.51687 0.29322 0.0
O145 O 0.11292 0.4932 0.31459 0.0
Zn146 Zn 0.11229 0.52547 0.30029 0.0
O147 O 0.1262 0.54845 0.32325 0.0
C148 C 0.06499 0.51967 0.28406 0.0
O149 O 0.07207 0.49791 0.28082 0.0
O150 O 0.13144 0.52486 0.27104 0.0
C151 C 0.11303 0.56031 0.33684 0.0
O152 O 0.09013 0.55769 0.33545 0.0
C153 C 0.10005 0.48771 0.33197 0.0
O154 O 0.08566 0.50349 0.34081 0.0
O155 O 0.07932 0.53474 0.29214 0.0
C156 C 0.51404 0.81064 0.68991 0.0
O157 O 0.51589 0.81059 0.66689 0.0
O158 O 0.54041 0.85771 0.65934 0.0
Zn159 Zn 0.51219 0.85908 0.6805 0.0
O160 O 0.48329 0.8592 0.66019 0.0
C161 C 0.5291 0.90286 0.70149 0.0
O162 O 0.54904 0.89766 0.69108 0.0
O163 O 0.51201 0.83018 0.70058 0.0
C164 C 0.46451 0.86917 0.66706 0.0
O165 O 0.46391 0.87891 0.688 0.0
C166 C 0.5419 0.87088 0.64137 0.0
O167 O 0.52511 0.88621 0.6372 0.0
O168 O 0.51196 0.88864 0.69999 0.0
C169 C 0.16864 0.44772 0.7027 0.0
O170 O 0.16671 0.43128 0.68659 0.0
O171 O 0.14344 0.50627 0.66247 0.0
Zn172 Zn 0.13546 0.47379 0.67367 0.0
O173 O 0.13889 0.44931 0.64821 0.0
C174 C 0.087 0.48443 0.67104 0.0
O175 O 0.09424 0.49353 0.65111 0.0
O176 O 0.1567 0.46652 0.70075 0.0
C177 C 0.13499 0.45306 0.62653 0.0
O178 O 0.12873 0.47418 0.61958 0.0
C179 C 0.15905 0.51171 0.64749 0.0
O180 O 0.1718 0.49518 0.63758 0.0
O181 O 0.10185 0.47447 0.68445 0.0
C182 C 0.49084 0.16087 0.71042 0.0
O183 O 0.48767 0.16346 0.68769 0.0
O184 O 0.45941 0.11599 0.67888 0.0
Zn185 Zn 0.49083 0.11389 0.69529 0.0
O186 O 0.51695 0.11739 0.67152 0.0
C187 C 0.51287 0.07136 0.71258 0.0
O188 O 0.53213 0.08183 0.70542 0.0
O189 O 0.49278 0.14023 0.71876 0.0
C190 C 0.5364 0.12711 0.67664 0.0
O191 O 0.53979 0.13503 0.69807 0.0
C192 C 0.4574 0.12347 0.65792 0.0
O193 O 0.47633 0.12988 0.64637 0.0
O194 O 0.49331 0.08208 0.71083 0.0
C195 C 0.84294 0.50011 0.73257 0.0
O196 O 0.84608 0.52151 0.7245 0.0
O197 O 0.86107 0.45611 0.67167 0.0
Zn198 Zn 0.86633 0.48603 0.68967 0.0
O199 O 0.85301 0.51366 0.67184 0.0
C200 C 0.91523 0.49346 0.67879 0.0
O201 O 0.90701 0.49684 0.65748 0.0
O202 O 0.85015 0.48267 0.72065 0.0
C203 C 0.86224 0.534 0.67234 0.0
O204 O 0.88127 0.53751 0.68494 0.0
C205 C 0.86135 0.45508 0.64937 0.0
O206 O 0.86467 0.47442 0.6372 0.0
O207 O 0.90098 0.48924 0.69543 0.0
C208 C 0.27417 0.51387 0.14998 0.0
O209 O 0.29513 0.51324 0.15967 0.0
O210 O 0.31389 0.54918 0.108 0.0
Zn211 Zn 0.30129 0.51617 0.10799 0.0
O212 O 0.32586 0.49429 0.12086 0.0
C213 C 0.27991 0.52081 0.06302 0.0
O214 O 0.27159 0.54007 0.07274 0.0
O215 O 0.27244 0.51496 0.12777 0.0
C216 C 0.32985 0.47364 0.11332 0.0
O217 O 0.31711 0.46521 0.09599 0.0
C218 C 0.33086 0.55511 0.12125 0.0
O219 O 0.34006 0.53946 0.13554 0.0
O220 O 0.29311 0.50737 0.07501 0.0
C221 C 0.28453 0.47391 0.8269 0.0
O222 O 0.28017 0.49421 0.83707 0.0
O223 O 0.34768 0.45448 0.86871 0.0
Zn224 Zn 0.32374 0.47746 0.85678 0.0
O225 O 0.34034 0.50572 0.8438 0.0
C226 C 0.29995 0.47358 0.90072 0.0
O227 O 0.30753 0.45181 0.89901 0.0
O228 O 0.30306 0.46278 0.83246 0.0
C229 C 0.35579 0.51499 0.85699 0.0
O230 O 0.35998 0.50551 0.87764 0.0
C231 C 0.3593 0.44046 0.8558 0.0
O232 O 0.35573 0.44045 0.83298 0.0
O233 O 0.30424 0.48794 0.88419 0.0
C234 C 0.50958 0.27925 0.83479 0.0
O235 O 0.51027 0.30231 0.83342 0.0
O236 O 0.54658 0.3094 0.87764 0.0
Zn237 Zn 0.51562 0.29241 0.88143 0.0
O238 O 0.48906 0.31577 0.87972 0.0
C239 C 0.53029 0.28043 0.92829 0.0
O240 O 0.54952 0.29118 0.92144 0.0
O241 O 0.51173 0.26959 0.85482 0.0
C242 C 0.48313 0.32756 0.89775 0.0
O243 O 0.49452 0.32434 0.91758 0.0
C244 C 0.548 0.3313 0.87337 0.0
O245 O 0.52866 0.34354 0.87028 0.0
O246 O 0.51388 0.2771 0.91348 0.0
C247 C 0.73425 0.49978 0.86534 0.0
O248 O 0.72608 0.52107 0.86913 0.0
O249 O 0.68067 0.51721 0.88988 0.0
Zn250 Zn 0.69653 0.48623 0.89621 0.0
O251 O 0.67414 0.45959 0.89051 0.0
C252 C 0.71913 0.50219 0.93819 0.0
O253 O 0.72603 0.51925 0.92425 0.0
O254 O 0.72448 0.48236 0.87526 0.0
C255 C 0.68172 0.43857 0.88987 0.0
O256 O 0.70426 0.43462 0.89307 0.0
C257 C 0.66235 0.51908 0.87725 0.0
O258 O 0.65315 0.50013 0.86778 0.0
O259 O 0.70663 0.48569 0.92984 0.0
C260 C 0.51456 0.68116 0.80392 0.0
O261 O 0.51836 0.65851 0.80132 0.0
O262 O 0.47974 0.64576 0.84902 0.0
Zn263 Zn 0.50816 0.66662 0.85125 0.0
O264 O 0.53663 0.64586 0.85113 0.0
C265 C 0.49012 0.69647 0.8883 0.0
O266 O 0.47237 0.69942 0.87381 0.0
O267 O 0.5097 0.68912 0.82422 0.0
C268 C 0.55655 0.65358 0.8576 0.0
O269 O 0.55857 0.67575 0.86379 0.0
C270 C 0.46308 0.64794 0.83429 0.0
O271 O 0.4635 0.66527 0.81905 0.0
O272 O 0.50735 0.68373 0.88202 0.0
C273 C 0.69322 0.53738 0.18967 0.0
O274 O 0.67699 0.55328 0.18547 0.0
O275 O 0.65784 0.48243 0.15213 0.0
Zn276 Zn 0.67301 0.51425 0.14917 0.0
O277 O 0.6489 0.54011 0.14801 0.0
C278 C 0.69513 0.49785 0.10641 0.0
O279 O 0.68664 0.47742 0.11299 0.0
O280 O 0.69463 0.51936 0.17652 0.0
C281 C 0.6336 0.54187 0.13184 0.0
O282 O 0.63261 0.52568 0.11538 0.0
C283 C 0.63699 0.4793 0.15943 0.0
O284 O 0.62435 0.49754 0.16587 0.0
O285 O 0.69179 0.51579 0.1193 0.0
C286 C 0.48637 0.72819 0.14937 0.0
O287 O 0.48949 0.7065 0.15671 0.0
O288 O 0.51209 0.68438 0.11285 0.0
Zn289 Zn 0.48346 0.70402 0.10613 0.0
O290 O 0.45509 0.68433 0.11273 0.0
C291 C 0.49938 0.71264 0.05822 0.0
O292 O 0.51971 0.70492 0.06602 0.0
O293 O 0.48329 0.73191 0.12757 0.0
C294 C 0.43487 0.69058 0.10558 0.0
O295 O 0.43258 0.71056 0.09422 0.0
C296 C 0.51414 0.66378 0.10442 0.0
O297 O 0.4977 0.65568 0.09036 0.0
O298 O 0.48211 0.71417 0.07229 0.0
C299 C 0.48499 0.312 0.187 0.0
O300 O 0.48764 0.33468 0.19041 0.0
O301 O 0.46058 0.3492 0.13835 0.0
Zn302 Zn 0.48836 0.32693 0.13939 0.0
O303 O 0.51724 0.3464 0.14532 0.0
C304 C 0.50616 0.31577 0.09327 0.0
O305 O 0.51987 0.33377 0.09779 0.0
O306 O 0.48459 0.3041 0.1661 0.0
C307 C 0.53807 0.33901 0.1485 0.0
O308 O 0.54245 0.31634 0.1476 0.0
C309 C 0.46188 0.36862 0.1494 0.0
O310 O 0.4811 0.3736 0.16117 0.0
O311 O 0.49105 0.30951 0.10849 0.0
H312 H 0.07675 0.47075 0.37067 0.0
H313 H 0.12763 0.45111 0.31721 0.0
H314 H 0.13196 0.4121 0.33564 0.0
H315 H 0.10556 0.4431 0.41834 0.0
H316 H 0.07893 0.4336 0.43262 0.0
H317 H 0.07869 0.45948 0.41442 0.0
H318 H 0.04513 0.44167 0.38926 0.0
H319 H 0.04526 0.41571 0.40742 0.0
H320 H 0.04902 0.41309 0.37606 0.0
H321 H 0.13254 0.3762 0.36102 0.0
H322 H 0.12906 0.34562 0.39159 0.0
H323 H 0.07749 0.3884 0.42827 0.0
C324 C 0.08863 0.45818 0.36268 0.0
C325 C 0.10183 0.46399 0.34248 0.0
C326 C 0.11731 0.44707 0.33268 0.0
C327 C 0.11987 0.42484 0.34299 0.0
C328 C 0.10677 0.41976 0.36302 0.0
C329 C 0.09139 0.4359 0.37273 0.0
C330 C 0.08003 0.4263 0.3948 0.0
C331 C 0.08618 0.44153 0.41631 0.0
C332 C 0.05327 0.42406 0.39169 0.0
C333 C 0.09168 0.40239 0.39614 0.0
C334 C 0.10698 0.39894 0.37759 0.0
C335 C 0.12047 0.37859 0.37553 0.0
C336 C 0.1184 0.36135 0.393 0.0
C337 C 0.10294 0.36458 0.41225 0.0
C338 C 0.08927 0.3853 0.41364 0.0
H339 H 0.61343 0.13719 0.46002 0.0
H340 H 0.6716 0.13632 0.4106 0.0
H341 H 0.6435 0.13896 0.37761 0.0
H342 H 0.5746 0.1017 0.42627 0.0
H343 H 0.54859 0.11788 0.43445 0.0
H344 H 0.57334 0.11675 0.45415 0.0
H345 H 0.57475 0.16231 0.45511 0.0
H346 H 0.54999 0.16358 0.4354 0.0
H347 H 0.57696 0.1784 0.42791 0.0
H348 H 0.60896 0.14045 0.34999 0.0
H349 H 0.57052 0.14074 0.32979 0.0
H350 H 0.53517 0.14092 0.39744 0.0
C351 C 0.62031 0.13767 0.44228 0.0
C352 C 0.64473 0.13656 0.43789 0.0
C353 C 0.65297 0.13718 0.4144 0.0
C354 C 0.63715 0.1387 0.39554 0.0
C355 C 0.61319 0.13966 0.40049 0.0
C356 C 0.60481 0.13922 0.42328 0.0
C357 C 0.57822 0.14004 0.42385 0.0
C358 C 0.5681 0.11777 0.43536 0.0
C359 C 0.56947 0.16242 0.4363 0.0
C360 C 0.57295 0.14078 0.3978 0.0
C361 C 0.59334 0.14061 0.38461 0.0
C362 C 0.59287 0.14071 0.36013 0.0
C363 C 0.57096 0.14086 0.34882 0.0
C364 C 0.54983 0.14091 0.36203 0.0
C365 C 0.55097 0.14101 0.38683 0.0
H366 H 0.89002 0.63293 0.44524 0.0
H367 H 0.82841 0.62344 0.4893 0.0
H368 H 0.81574 0.59032 0.46434 0.0
H369 H 0.86146 0.62028 0.39023 0.0
H370 H 0.88649 0.60509 0.37807 0.0
H371 H 0.89076 0.62803 0.39949 0.0
H372 H 0.91435 0.59917 0.42575 0.0
H373 H 0.9101 0.57612 0.40444 0.0
H374 H 0.90113 0.57173 0.4345 0.0
H375 H 0.80994 0.558 0.43486 0.0
H376 H 0.81093 0.52938 0.40219 0.0
H377 H 0.87612 0.5603 0.37732 0.0
C378 C 0.87386 0.62392 0.44965 0.0
C379 C 0.86023 0.63078 0.46923 0.0
C380 C 0.83915 0.61853 0.47436 0.0
C381 C 0.83181 0.59967 0.46032 0.0
C382 C 0.8457 0.59331 0.4412 0.0
C383 C 0.86623 0.6051 0.43579 0.0
C384 C 0.87785 0.59484 0.41416 0.0
C385 C 0.87921 0.61315 0.39432 0.0
C386 C 0.9023 0.58487 0.42008 0.0
C387 C 0.86065 0.57543 0.40829 0.0
C388 C 0.84226 0.5748 0.42412 0.0
C389 C 0.82423 0.55833 0.42231 0.0
C390 C 0.82497 0.54214 0.40373 0.0
C391 C 0.84357 0.54262 0.3872 0.0
C392 C 0.86164 0.55948 0.38964 0.0
H393 H 0.36094 0.90222 0.42885 0.0
H394 H 0.35733 0.83259 0.45995 0.0
H395 H 0.387 0.8184 0.43164 0.0
H396 H 0.36908 0.88252 0.36799 0.0
H397 H 0.38903 0.90615 0.36118 0.0
H398 H 0.36634 0.91038 0.38288 0.0
H399 H 0.39782 0.92263 0.41347 0.0
H400 H 0.42059 0.91838 0.39193 0.0
H401 H 0.422 0.90304 0.41962 0.0
H402 H 0.41898 0.8125 0.40173 0.0
H403 H 0.45044 0.81518 0.37196 0.0
H404 H 0.4327 0.88854 0.36018 0.0
C405 C 0.36617 0.88392 0.42955 0.0
C406 C 0.3568 0.86852 0.44661 0.0
C407 C 0.36421 0.84471 0.44699 0.0
C408 C 0.38104 0.83647 0.43098 0.0
C409 C 0.39015 0.8522 0.41459 0.0
C410 C 0.38287 0.87538 0.41366 0.0
C411 C 0.39599 0.88889 0.39488 0.0
C412 C 0.3791 0.89749 0.37559 0.0
C413 C 0.40993 0.90944 0.40563 0.0
C414 C 0.41218 0.86982 0.38577 0.0
C415 C 0.40844 0.84875 0.39725 0.0
C416 C 0.42192 0.82884 0.39245 0.0
C417 C 0.43978 0.83055 0.37554 0.0
C418 C 0.444 0.85204 0.36368 0.0
C419 C 0.42982 0.87181 0.36879 0.0
H420 H 0.16978 0.52785 0.60361 0.0
H421 H 0.1512 0.5508 0.67389 0.0
H422 H 0.14942 0.59195 0.66009 0.0
H423 H 0.20383 0.58118 0.58574 0.0
H424 H 0.19211 0.58034 0.55631 0.0
H425 H 0.19616 0.5534 0.57252 0.0
H426 H 0.15229 0.54301 0.56602 0.0
H427 H 0.14806 0.56991 0.54997 0.0
H428 H 0.12993 0.56357 0.57516 0.0
H429 H 0.14564 0.62967 0.63811 0.0
H430 H 0.13835 0.66114 0.60914 0.0
H431 H 0.1574 0.61331 0.55272 0.0
C432 C 0.16611 0.54167 0.6162 0.0
C433 C 0.16097 0.53634 0.63984 0.0
C434 C 0.15537 0.55468 0.65571 0.0
C435 C 0.15442 0.57806 0.64807 0.0
C436 C 0.15894 0.58274 0.62448 0.0
C437 C 0.16465 0.56507 0.60874 0.0
C438 C 0.16592 0.5744 0.58385 0.0
C439 C 0.191 0.5722 0.57403 0.0
C440 C 0.14798 0.56199 0.56782 0.0
C441 C 0.15934 0.59987 0.58798 0.0
C442 C 0.15586 0.60442 0.61158 0.0
C443 C 0.14857 0.62641 0.61959 0.0
C444 C 0.14443 0.64416 0.603 0.0
C445 C 0.14727 0.63966 0.57868 0.0
C446 C 0.15515 0.61731 0.57119 0.0
H447 H 0.36838 0.14031 0.55122 0.0
H448 H 0.31214 0.11954 0.59842 0.0
H449 H 0.34051 0.11773 0.63126 0.0
H450 H 0.41135 0.10259 0.57423 0.0
H451 H 0.43536 0.12295 0.57081 0.0
H452 H 0.41035 0.12468 0.55152 0.0
H453 H 0.40412 0.16836 0.56303 0.0
H454 H 0.42925 0.16682 0.58226 0.0
H455 H 0.40117 0.17618 0.5936 0.0
H456 H 0.37558 0.11544 0.65827 0.0
H457 H 0.41445 0.11384 0.67759 0.0
H458 H 0.4475 0.13608 0.6125 0.0
C459 C 0.3619 0.13575 0.56853 0.0
C460 C 0.338 0.13012 0.57225 0.0
C461 C 0.33035 0.124 0.59514 0.0
C462 C 0.34633 0.12292 0.61391 0.0
C463 C 0.36986 0.12812 0.60951 0.0
C464 C 0.37759 0.13456 0.58741 0.0
C465 C 0.40393 0.13825 0.58704 0.0
C466 C 0.41594 0.12109 0.56989 0.0
C467 C 0.40996 0.16393 0.58114 0.0
C468 C 0.40989 0.13247 0.61231 0.0
C469 C 0.39001 0.12679 0.62502 0.0
C470 C 0.39125 0.12007 0.64854 0.0
C471 C 0.41342 0.11915 0.65934 0.0
C472 C 0.43403 0.12487 0.64658 0.0
C473 C 0.4321 0.13172 0.62279 0.0
H474 H 0.866 0.44578 0.60227 0.0
H475 H 0.85166 0.4124 0.66939 0.0
H476 H 0.84922 0.37384 0.64964 0.0
H477 H 0.82746 0.40909 0.56712 0.0
H478 H 0.84727 0.40834 0.54241 0.0
H479 H 0.847 0.43344 0.56174 0.0
H480 H 0.8917 0.4283 0.56904 0.0
H481 H 0.89209 0.40315 0.5498 0.0
H482 H 0.90269 0.40046 0.57954 0.0
H483 H 0.84934 0.33876 0.62274 0.0
H484 H 0.85197 0.30972 0.59054 0.0
H485 H 0.86656 0.3661 0.54119 0.0
C486 C 0.86215 0.43041 0.61281 0.0
C487 C 0.85897 0.43213 0.63737 0.0
C488 C 0.85415 0.41153 0.65054 0.0
C489 C 0.85271 0.38954 0.63949 0.0
C490 C 0.85614 0.38844 0.61528 0.0
C491 C 0.86073 0.40832 0.60209 0.0
C492 C 0.86428 0.40227 0.57642 0.0
C493 C 0.84537 0.41398 0.56102 0.0
C494 C 0.88917 0.40894 0.56823 0.0
C495 C 0.86112 0.37586 0.57728 0.0
C496 C 0.85636 0.36823 0.59982 0.0
C497 C 0.853 0.34452 0.60499 0.0
C498 C 0.85455 0.32816 0.58659 0.0
C499 C 0.85948 0.33562 0.56335 0.0
C500 C 0.86276 0.35981 0.55875 0.0
H501 H 0.55183 0.89785 0.60266 0.0
H502 H 0.57688 0.83779 0.64267 0.0
H503 H 0.60929 0.83243 0.61434 0.0
H504 H 0.56412 0.87453 0.54559 0.0
H505 H 0.57341 0.90229 0.53348 0.0
H506 H 0.55232 0.90165 0.55708 0.0
H507 H 0.57903 0.92891 0.58198 0.0
H508 H 0.60016 0.92972 0.55842 0.0
H509 H 0.60912 0.92051 0.58738 0.0
H510 H 0.63839 0.833 0.58119 0.0
H511 H 0.66314 0.84049 0.54634 0.0
H512 H 0.61934 0.90047 0.52835 0.0
C513 C 0.56416 0.88361 0.60552 0.0
C514 C 0.5618 0.86823 0.62487 0.0
C515 C 0.57835 0.84983 0.628 0.0
C516 C 0.59679 0.8466 0.61198 0.0
C517 C 0.5985 0.86197 0.59301 0.0
C518 C 0.58273 0.88019 0.58978 0.0
C519 C 0.58855 0.89428 0.56797 0.0
C520 C 0.5684 0.8931 0.54997 0.0
C521 C 0.59458 0.91987 0.57433 0.0
C522 C 0.61001 0.88106 0.5594 0.0
C523 C 0.61542 0.86245 0.57404 0.0
C524 C 0.63438 0.84757 0.56962 0.0
C525 C 0.6483 0.85194 0.54976 0.0
C526 C 0.6432 0.87108 0.53464 0.0
C527 C 0.62374 0.88572 0.53957 0.0
H528 H 0.37763 0.16151 0.44337 0.0
H529 H 0.34716 0.09157 0.44686 0.0
H530 H 0.37244 0.07885 0.41411 0.0
H531 H 0.3826 0.16377 0.37996 0.0
H532 H 0.41019 0.17933 0.38042 0.0
H533 H 0.3895 0.18316 0.40408 0.0
H534 H 0.42151 0.17096 0.43415 0.0
H535 H 0.44229 0.16709 0.41059 0.0
H536 H 0.43648 0.14322 0.43059 0.0
H537 H 0.40159 0.07325 0.38187 0.0
H538 H 0.43241 0.07541 0.35147 0.0
H539 H 0.44356 0.14909 0.36827 0.0
C540 C 0.37624 0.14354 0.43722 0.0
C541 C 0.36043 0.12754 0.44772 0.0
C542 C 0.35912 0.10417 0.43911 0.0
C543 C 0.37341 0.09675 0.4205 0.0
C544 C 0.38883 0.11292 0.4106 0.0
C545 C 0.39031 0.13584 0.41856 0.0
C546 C 0.40848 0.14961 0.40483 0.0
C547 C 0.397 0.17018 0.39153 0.0
C548 C 0.42837 0.15822 0.42101 0.0
C549 C 0.41706 0.13078 0.38806 0.0
C550 C 0.4055 0.10975 0.39171 0.0
C551 C 0.4107 0.08964 0.37873 0.0
C552 C 0.42826 0.09104 0.36154 0.0
C553 C 0.44033 0.11243 0.35744 0.0
C554 C 0.43453 0.13254 0.37086 0.0
H555 H 0.90622 0.37706 0.45291 0.0
H556 H 0.85028 0.33224 0.42667 0.0
H557 H 0.8446 0.35905 0.39305 0.0
H558 H 0.8791 0.43059 0.43993 0.0
H559 H 0.90568 0.44555 0.43142 0.0
H560 H 0.90699 0.42163 0.45206 0.0
H561 H 0.93705 0.39999 0.42547 0.0
H562 H 0.93589 0.42392 0.40474 0.0
H563 H 0.92981 0.39433 0.39514 0.0
H564 H 0.84269 0.39246 0.36427 0.0
H565 H 0.84506 0.42982 0.34224 0.0
H566 H 0.90243 0.45245 0.38722 0.0
C567 C 0.89303 0.37265 0.4399 0.0
C568 C 0.87872 0.35254 0.4424 0.0
C569 C 0.86149 0.34754 0.42511 0.0
C570 C 0.85816 0.36263 0.40591 0.0
C571 C 0.87229 0.38254 0.4042 0.0
C572 C 0.88948 0.3875 0.42065 0.0
C573 C 0.90141 0.41069 0.4155 0.0
C574 C 0.89808 0.42814 0.43594 0.0
C575 C 0.92759 0.407 0.40987 0.0
C576 C 0.88784 0.41829 0.39392 0.0
C577 C 0.87126 0.40173 0.38756 0.0
C578 C 0.85581 0.40543 0.3689 0.0
C579 C 0.85725 0.42672 0.35653 0.0
C580 C 0.87398 0.444 0.36295 0.0
C581 C 0.88961 0.43951 0.38172 0.0
H582 H 0.54763 0.85279 0.36692 0.0
H583 H 0.58938 0.88539 0.31201 0.0
H584 H 0.62463 0.88238 0.33717 0.0
H585 H 0.57395 0.8817 0.41425 0.0
H586 H 0.57301 0.85692 0.43397 0.0
H587 H 0.55158 0.85952 0.41085 0.0
H588 H 0.56317 0.81828 0.39521 0.0
H589 H 0.5846 0.81549 0.41839 0.0
H590 H 0.59346 0.81218 0.38815 0.0
H591 H 0.65443 0.87922 0.36965 0.0
H592 H 0.67682 0.87501 0.40663 0.0
H593 H 0.61569 0.84385 0.43995 0.0
C594 C 0.56424 0.85895 0.36 0.0
C595 C 0.56574 0.86931 0.33747 0.0
C596 C 0.5878 0.87732 0.32918 0.0
C597 C 0.60794 0.87568 0.34333 0.0
C598 C 0.60574 0.8658 0.36563 0.0
C599 C 0.5845 0.85739 0.37384 0.0
C600 C 0.58659 0.84861 0.39888 0.0
C601 C 0.57032 0.86252 0.41545 0.0
C602 C 0.58167 0.82206 0.40023 0.0
C603 C 0.61221 0.85391 0.40367 0.0
C604 C 0.62299 0.86371 0.38424 0.0
C605 C 0.64627 0.87127 0.38488 0.0
C606 C 0.65882 0.86887 0.40598 0.0
C607 C 0.64805 0.85897 0.42612 0.0
C608 C 0.62452 0.85118 0.42477 0.0
H609 H 0.11066 0.64341 0.44917 0.0
H610 H 0.18697 0.64131 0.44905 0.0
H611 H 0.18617 0.61835 0.41214 0.0
H612 H 0.10202 0.58545 0.42998 0.0
H613 H 0.07668 0.59208 0.41213 0.0
H614 H 0.08335 0.61002 0.43733 0.0
H615 H 0.08387 0.6472 0.41098 0.0
H616 H 0.07712 0.62937 0.38567 0.0
H617 H 0.10274 0.64798 0.38554 0.0
H618 H 0.17684 0.59356 0.37656 0.0
H619 H 0.15976 0.5688 0.34522 0.0
H620 H 0.08963 0.58717 0.3692 0.0
C621 C 0.12725 0.63843 0.44125 0.0
C622 C 0.14889 0.6442 0.45196 0.0
C623 C 0.17017 0.63712 0.44113 0.0
C624 C 0.1699 0.62412 0.42015 0.0
C625 C 0.14822 0.61844 0.41025 0.0
C626 C 0.12729 0.62544 0.42042 0.0
C627 C 0.10633 0.61612 0.40698 0.0
C628 C 0.09122 0.59996 0.42254 0.0
C629 C 0.09166 0.63638 0.39668 0.0
C630 C 0.11871 0.60241 0.38787 0.0
C631 C 0.14286 0.6041 0.38992 0.0
C632 C 0.15796 0.59226 0.37467 0.0
C633 C 0.14808 0.57822 0.35695 0.0
C634 C 0.12336 0.57607 0.35474 0.0
C635 C 0.10859 0.58853 0.37033 0.0
H636 H 0.39227 0.84752 0.54893 0.0
H637 H 0.33767 0.89267 0.57753 0.0
H638 H 0.36073 0.89732 0.61402 0.0
H639 H 0.40727 0.81811 0.60303 0.0
H640 H 0.43829 0.81724 0.59662 0.0
H641 H 0.41723 0.81704 0.57296 0.0
H642 H 0.43719 0.8537 0.5547 0.0
H643 H 0.45833 0.85398 0.57827 0.0
H644 H 0.44091 0.8798 0.57231 0.0
H645 H 0.38978 0.8971 0.64734 0.0
H646 H 0.42343 0.89321 0.67452 0.0
H647 H 0.4592 0.84878 0.6237 0.0
C648 C 0.3851 0.85832 0.56288 0.0
C649 C 0.36314 0.86967 0.56041 0.0
C650 C 0.35447 0.8838 0.57903 0.0
C651 C 0.3674 0.88651 0.59984 0.0
C652 C 0.38898 0.87506 0.6017 0.0
C653 C 0.39781 0.86133 0.5837 0.0
C654 C 0.42171 0.85137 0.5899 0.0
C655 C 0.42107 0.82434 0.59068 0.0
C656 C 0.44065 0.86025 0.57278 0.0
C657 C 0.42496 0.86169 0.6142 0.0
C658 C 0.40584 0.87519 0.62075 0.0
C659 C 0.40486 0.88657 0.64242 0.0
C660 C 0.42404 0.88423 0.65774 0.0
C661 C 0.44395 0.87071 0.65124 0.0
C662 C 0.44426 0.85924 0.6292 0.0
H663 H 0.13494 0.45609 0.57845 0.0
H664 H 0.13882 0.40603 0.63595 0.0
H665 H 0.13987 0.37334 0.60738 0.0
H666 H 0.09763 0.42271 0.54149 0.0
H667 H 0.11207 0.43111 0.51458 0.0
H668 H 0.11252 0.45061 0.53952 0.0
H669 H 0.15806 0.45154 0.53812 0.0
H670 H 0.15775 0.43206 0.51313 0.0
H671 H 0.17428 0.4243 0.53904 0.0
H672 H 0.1378 0.34609 0.57272 0.0
H673 H 0.13481 0.32621 0.53419 0.0
H674 H 0.13399 0.39412 0.49936 0.0
C675 C 0.13615 0.43826 0.58504 0.0
C676 C 0.13673 0.43359 0.60942 0.0
C677 C 0.1384 0.41002 0.61734 0.0
C678 C 0.13899 0.39134 0.60126 0.0
C679 C 0.13817 0.39655 0.57735 0.0
C680 C 0.13701 0.41943 0.56925 0.0
C681 C 0.13611 0.42024 0.54267 0.0
C682 C 0.11322 0.43185 0.53407 0.0
C683 C 0.15785 0.43278 0.53266 0.0
C684 C 0.13654 0.39422 0.5371 0.0
C685 C 0.13768 0.38084 0.55735 0.0
C686 C 0.13717 0.35636 0.55672 0.0
C687 C 0.1354 0.34524 0.53478 0.0
C688 C 0.13435 0.35863 0.51382 0.0
C689 C 0.13511 0.38342 0.51507 0.0
H690 H 0.5347 0.11323 0.63048 0.0
H691 H 0.58077 0.1448 0.68256 0.0
H692 H 0.61241 0.14719 0.65297 0.0
H693 H 0.57872 0.07811 0.60185 0.0
H694 H 0.5667 0.08247 0.57285 0.0
H695 H 0.54766 0.08326 0.59813 0.0
H696 H 0.53306 0.12474 0.58607 0.0
H697 H 0.55202 0.12407 0.56074 0.0
H698 H 0.55415 0.14793 0.58149 0.0
H699 H 0.63906 0.14596 0.61782 0.0
H700 H 0.65865 0.14189 0.57933 0.0
H701 H 0.59503 0.11131 0.55024 0.0
C702 C 0.55143 0.12065 0.6357 0.0
C703 C 0.55527 0.12881 0.65886 0.0
C704 C 0.57741 0.13844 0.66493 0.0
C705 C 0.59551 0.13985 0.64826 0.0
C706 C 0.59115 0.13159 0.62562 0.0
C707 C 0.56966 0.12222 0.6193 0.0
C708 C 0.56947 0.1147 0.59377 0.0
C709 C 0.5654 0.08806 0.59153 0.0
C710 C 0.55109 0.1287 0.57969 0.0
C711 C 0.59424 0.12132 0.5867 0.0
C712 C 0.60647 0.13098 0.60534 0.0
C713 C 0.62967 0.13843 0.60308 0.0
C714 C 0.64064 0.13603 0.58115 0.0
C715 C 0.62838 0.12629 0.56176 0.0
C716 C 0.60489 0.11882 0.56469 0.0
H717 H 0.88303 0.57565 0.6603 0.0
H718 H 0.8187 0.53557 0.65193 0.0
H719 H 0.80269 0.56666 0.62619 0.0
H720 H 0.85606 0.63518 0.65822 0.0
H721 H 0.8802 0.64704 0.64151 0.0
H722 H 0.88524 0.62336 0.66197 0.0
H723 H 0.90384 0.59835 0.62867 0.0
H724 H 0.89893 0.62193 0.60821 0.0
H725 H 0.8873 0.59309 0.60214 0.0
H726 H 0.79524 0.60001 0.59847 0.0
H727 H 0.79793 0.63167 0.56896 0.0
H728 H 0.8674 0.64969 0.59497 0.0
C729 C 0.86537 0.57367 0.65349 0.0
C730 C 0.85203 0.55329 0.65824 0.0
C731 C 0.8292 0.55108 0.64855 0.0
C732 C 0.81989 0.56871 0.63404 0.0
C733 C 0.83364 0.58844 0.62942 0.0
C734 C 0.85591 0.59099 0.63882 0.0
C735 C 0.868 0.61267 0.62925 0.0
C736 C 0.87264 0.63062 0.64891 0.0
C737 C 0.89085 0.60611 0.6163 0.0
C738 C 0.84936 0.62147 0.6124 0.0
C739 C 0.8295 0.60752 0.61309 0.0
C740 C 0.81057 0.61125 0.59799 0.0
C741 C 0.81227 0.6293 0.58128 0.0
C742 C 0.83286 0.64319 0.57966 0.0
C743 C 0.85131 0.63957 0.59591 0.0
H744 H 0.34582 0.43008 0.09946 0.0
H745 H 0.35832 0.48608 0.14992 0.0
H746 H 0.39217 0.46419 0.16576 0.0
H747 H 0.36227 0.38139 0.13829 0.0
H748 H 0.37617 0.36491 0.11504 0.0
H749 H 0.35198 0.38431 0.10845 0.0
H750 H 0.37773 0.40614 0.07791 0.0
H751 H 0.402 0.38687 0.08444 0.0
H752 H 0.40559 0.41827 0.08691 0.0
H753 H 0.42579 0.43775 0.17465 0.0
H754 H 0.45709 0.40786 0.1765 0.0
H755 H 0.4229 0.36852 0.12066 0.0
C756 C 0.35551 0.43762 0.11401 0.0
C757 C 0.34938 0.4598 0.12346 0.0
C758 C 0.36264 0.46913 0.14238 0.0
C759 C 0.38189 0.45682 0.15154 0.0
C760 C 0.38761 0.43516 0.14168 0.0
C761 C 0.37481 0.42555 0.12341 0.0
C762 C 0.38526 0.40231 0.11551 0.0
C763 C 0.36788 0.38203 0.11957 0.0
C764 C 0.39311 0.40348 0.08966 0.0
C765 C 0.40614 0.4006 0.13196 0.0
C766 C 0.40707 0.41971 0.14695 0.0
C767 C 0.42517 0.42259 0.16316 0.0
C768 C 0.4429 0.40553 0.16401 0.0
C769 C 0.4424 0.38582 0.14878 0.0
C770 C 0.42364 0.38327 0.13269 0.0
H771 H 0.45494 0.61301 0.86623 0.0
H772 H 0.42795 0.64316 0.80149 0.0
H773 H 0.39701 0.61264 0.80031 0.0
H774 H 0.44636 0.55311 0.85107 0.0
H775 H 0.43782 0.54432 0.88027 0.0
H776 H 0.45729 0.56893 0.87628 0.0
H777 H 0.42889 0.59554 0.90006 0.0
H778 H 0.40937 0.57099 0.90422 0.0
H779 H 0.39854 0.59779 0.89121 0.0
H780 H 0.36996 0.57763 0.8056 0.0
H781 H 0.34813 0.54205 0.81773 0.0
H782 H 0.3929 0.53579 0.87925 0.0
C783 C 0.44249 0.61331 0.85182 0.0
C784 C 0.44389 0.63044 0.83391 0.0
C785 C 0.42718 0.63022 0.81543 0.0
C786 C 0.40958 0.61294 0.81459 0.0
C787 C 0.40888 0.59616 0.83244 0.0
C788 C 0.42481 0.59634 0.85078 0.0
C789 C 0.42043 0.57635 0.86773 0.0
C790 C 0.44174 0.5597 0.86889 0.0
C791 C 0.41391 0.58574 0.89225 0.0
C792 C 0.39965 0.56471 0.85597 0.0
C793 C 0.39323 0.57634 0.83562 0.0
C794 C 0.37476 0.56847 0.82157 0.0
C795 C 0.36251 0.54822 0.82857 0.0
C796 C 0.36877 0.53618 0.84946 0.0
C797 C 0.38759 0.54464 0.86325 0.0
H798 H 0.45902 0.3416 0.8584 0.0
H799 H 0.4642 0.35338 0.93367 0.0
H800 H 0.43266 0.38312 0.93112 0.0
H801 H 0.44934 0.40168 0.84246 0.0
H802 H 0.42891 0.39486 0.81922 0.0
H803 H 0.4515 0.37406 0.82703 0.0
H804 H 0.41984 0.34206 0.83392 0.0
H805 H 0.39714 0.36275 0.82611 0.0
H806 H 0.39603 0.34781 0.85402 0.0
H807 H 0.40093 0.41168 0.92041 0.0
H808 H 0.37133 0.43762 0.90225 0.0
H809 H 0.38706 0.40751 0.83382 0.0
C810 C 0.45346 0.35034 0.87438 0.0
C811 C 0.46404 0.34513 0.89626 0.0
C812 C 0.45636 0.35708 0.91672 0.0
C813 C 0.43844 0.37398 0.91546 0.0
C814 C 0.42845 0.37873 0.89361 0.0
C815 C 0.43568 0.3673 0.87344 0.0
C816 C 0.4223 0.37595 0.8521 0.0
C817 C 0.43902 0.38732 0.83415 0.0
C818 C 0.40798 0.35595 0.84088 0.0
C819 C 0.40645 0.39409 0.86343 0.0
C820 C 0.41024 0.39535 0.8874 0.0
C821 C 0.39778 0.41085 0.90167 0.0
C822 C 0.381 0.42551 0.89116 0.0
C823 C 0.37687 0.42461 0.86659 0.0
C824 C 0.38979 0.40863 0.85262 0.0
H825 H 0.63426 0.44103 0.88192 0.0
H826 H 0.69197 0.39147 0.88909 0.0
H827 H 0.66426 0.35851 0.88363 0.0
H828 H 0.59215 0.40783 0.91343 0.0
H829 H 0.56785 0.4159 0.89474 0.0
H830 H 0.59242 0.43554 0.89804 0.0
H831 H 0.59826 0.43594 0.85285 0.0
H832 H 0.5737 0.41626 0.84941 0.0
H833 H 0.60197 0.40852 0.83735 0.0
H834 H 0.62994 0.33095 0.87932 0.0
H835 H 0.59157 0.31087 0.87637 0.0
H836 H 0.5566 0.37863 0.87153 0.0
C837 C 0.64114 0.42326 0.88219 0.0
C838 C 0.6653 0.41883 0.88594 0.0
C839 C 0.67354 0.3953 0.88623 0.0
C840 C 0.65795 0.37646 0.88311 0.0
C841 C 0.63422 0.38147 0.87961 0.0
C842 C 0.62587 0.40429 0.87906 0.0
C843 C 0.59949 0.40493 0.87567 0.0
C844 C 0.58727 0.41674 0.89673 0.0
C845 C 0.59298 0.41713 0.85244 0.0
C846 C 0.59425 0.37887 0.87471 0.0
C847 C 0.61451 0.36562 0.87693 0.0
C848 C 0.61397 0.34113 0.87738 0.0
C849 C 0.5921 0.32989 0.87572 0.0
C850 C 0.5711 0.34317 0.87362 0.0
C851 C 0.57233 0.36796 0.87288 0.0
H852 H 0.61937 0.52847 0.85759 0.0
H853 H 0.6798 0.56213 0.88984 0.0
H854 H 0.66031 0.60075 0.88593 0.0
H855 H 0.60542 0.57545 0.81598 0.0
H856 H 0.57414 0.57167 0.81933 0.0
H857 H 0.5936 0.54692 0.82308 0.0
H858 H 0.57631 0.53954 0.86458 0.0
H859 H 0.55684 0.56424 0.86097 0.0
H860 H 0.57639 0.56304 0.88588 0.0
H861 H 0.63343 0.63543 0.88028 0.0
H862 H 0.60072 0.6634 0.87422 0.0
H863 H 0.55786 0.60682 0.84611 0.0
C864 C 0.62865 0.54398 0.86356 0.0
C865 C 0.65113 0.5423 0.87395 0.0
C866 C 0.66256 0.563 0.88181 0.0
C867 C 0.65167 0.58503 0.8796 0.0
C868 C 0.62939 0.58604 0.86948 0.0
C869 C 0.61801 0.56607 0.8616 0.0
C870 C 0.59366 0.57177 0.85252 0.0
C871 C 0.59159 0.56612 0.82616 0.0
C872 C 0.57469 0.55889 0.86685 0.0
C873 C 0.59298 0.59801 0.85687 0.0
C874 C 0.61383 0.60596 0.86646 0.0
C875 C 0.61707 0.62945 0.87263 0.0
C876 C 0.59839 0.6452 0.86912 0.0
C877 C 0.57674 0.63732 0.85968 0.0
C878 C 0.57421 0.61344 0.85328 0.0
H879 H 0.59535 0.54902 0.10316 0.0
H880 H 0.63597 0.58134 0.15917 0.0
H881 H 0.61025 0.61623 0.15768 0.0
H882 H 0.58446 0.60173 0.07007 0.0
H883 H 0.55488 0.59366 0.06212 0.0
H884 H 0.57655 0.57115 0.06741 0.0
H885 H 0.54951 0.55226 0.0988 0.0
H886 H 0.52771 0.57465 0.09354 0.0
H887 H 0.53883 0.56996 0.12284 0.0
H888 H 0.5807 0.64783 0.14978 0.0
H889 H 0.54791 0.67336 0.1373 0.0
H890 H 0.52587 0.62024 0.08703 0.0
C891 C 0.59884 0.56343 0.11511 0.0
C892 C 0.61771 0.56246 0.13124 0.0
C893 C 0.6216 0.58164 0.14668 0.0
C894 C 0.60713 0.60158 0.14594 0.0
C895 C 0.58876 0.60202 0.12976 0.0
C896 C 0.58445 0.58342 0.11473 0.0
C897 C 0.56327 0.58824 0.0993 0.0
C898 C 0.57022 0.58873 0.07318 0.0
C899 C 0.54367 0.5702 0.10391 0.0
C900 C 0.55641 0.61248 0.10799 0.0
C901 C 0.57143 0.62014 0.12547 0.0
C902 C 0.56877 0.64202 0.13614 0.0
C903 C 0.55012 0.65641 0.12889 0.0
C904 C 0.53429 0.6488 0.11121 0.0
C905 C 0.53762 0.62655 0.10061 0.0
H906 H 0.37294 0.57007 0.13898 0.0
H907 H 0.31241 0.59354 0.0988 0.0
H908 H 0.3311 0.63237 0.0934 0.0
H909 H 0.38622 0.62666 0.16754 0.0
H910 H 0.41751 0.62225 0.16519 0.0
H911 H 0.39822 0.59731 0.16812 0.0
H912 H 0.41554 0.57935 0.12997 0.0
H913 H 0.43481 0.60421 0.1269 0.0
H914 H 0.41521 0.5964 0.10325 0.0
H915 H 0.3576 0.66758 0.09003 0.0
H916 H 0.39036 0.69597 0.08786 0.0
H917 H 0.43371 0.64887 0.12953 0.0
C918 C 0.36339 0.58351 0.12943 0.0
C919 C 0.34117 0.57885 0.11943 0.0
C920 C 0.32945 0.59677 0.10666 0.0
C921 C 0.33988 0.61889 0.10358 0.0
C922 C 0.36199 0.62277 0.11336 0.0
C923 C 0.37361 0.60557 0.12603 0.0
C924 C 0.39794 0.61355 0.13321 0.0
C925 C 0.40009 0.61503 0.16012 0.0
C926 C 0.41699 0.59742 0.1227 0.0
C927 C 0.3984 0.63772 0.12215 0.0
C928 C 0.37741 0.64287 0.11105 0.0
C929 C 0.37405 0.66384 0.09883 0.0
C930 C 0.39276 0.67984 0.09769 0.0
C931 C 0.41459 0.67464 0.10851 0.0
C932 C 0.41723 0.65342 0.12114 0.0
H933 H 0.59081 0.46725 0.1653 0.0
H934 H 0.66005 0.4374 0.15327 0.0
H935 H 0.64264 0.39765 0.15158 0.0
H936 H 0.56759 0.41937 0.20115 0.0
H937 H 0.53869 0.42142 0.18831 0.0
H938 H 0.55691 0.44723 0.19042 0.0
H939 H 0.55276 0.45385 0.14551 0.0
H940 H 0.53457 0.42807 0.14328 0.0
H941 H 0.56072 0.43051 0.12555 0.0
H942 H 0.61726 0.36119 0.14969 0.0
H943 H 0.58575 0.33138 0.14621 0.0
H944 H 0.53346 0.3857 0.15848 0.0
C945 C 0.60238 0.45234 0.16265 0.0
C946 C 0.62679 0.45541 0.15957 0.0
C947 C 0.64127 0.43546 0.15574 0.0
C948 C 0.63157 0.41281 0.15482 0.0
C949 C 0.60737 0.41043 0.15769 0.0
C950 C 0.59298 0.42968 0.16149 0.0
C951 C 0.5674 0.42258 0.16272 0.0
C952 C 0.55704 0.42797 0.1871 0.0
C953 C 0.55303 0.43446 0.14309 0.0
C954 C 0.56962 0.39639 0.15869 0.0
C955 C 0.59279 0.38962 0.1561 0.0
C956 C 0.59904 0.36628 0.1518 0.0
C957 C 0.58105 0.34947 0.14988 0.0
C958 C 0.55718 0.35622 0.15201 0.0
C959 C 0.55154 0.37997 0.15669 0.0
H960 H 0.04485 0.28418 0.44795 0.0
H961 H 0.06001 0.2619 0.51934 0.0
H962 H 0.01793 0.25331 0.52547 0.0
H963 H 0.99444 0.31443 0.46041 0.0
H964 H 0.97877 0.30639 0.43406 0.0
H965 H 0.01034 0.307 0.43401 0.0
H966 H 0.01142 0.26361 0.42002 0.0
H967 H 0.97973 0.26288 0.41996 0.0
H968 H 0.99608 0.24144 0.43665 0.0
H969 H 0.97388 0.25309 0.52578 0.0
H970 H 0.93147 0.26046 0.51989 0.0
H971 H 0.94523 0.28184 0.448 0.0
C972 C 0.03944 0.27692 0.46469 0.0
C973 C 0.05573 0.27369 0.48316 0.0
C974 C 0.04788 0.26443 0.50489 0.0
C975 C 0.02401 0.25943 0.50852 0.0
C976 C 0.0083 0.26348 0.49014 0.0
C977 C 0.01575 0.27177 0.46856 0.0
C978 C 0.99518 0.27665 0.45239 0.0
C979 C 0.99466 0.30265 0.44479 0.0
C980 C 0.99563 0.26015 0.43099 0.0
C981 C 0.97494 0.27083 0.46861 0.0
C982 C 0.98285 0.26297 0.49021 0.0
C983 C 0.96745 0.25871 0.50877 0.0
C984 C 0.94341 0.26301 0.50529 0.0
C985 C 0.93505 0.2715 0.48342 0.0
C986 C 0.95102 0.27486 0.46474 0.0
H987 H 0.68421 0.0383 0.5327 0.0
H988 H 0.72334 0.07288 0.47709 0.0
H989 H 0.7383 0.03435 0.46374 0.0
H990 H 0.72754 0.9908 0.5444 0.0
H991 H 0.7047 0.96943 0.54939 0.0
H992 H 0.69968 -6e-05 0.55644 0.0
H993 H 0.66263 -1e-05 0.52987 0.0
H994 H 0.66758 0.9696 0.52269 0.0
H995 H 0.66526 0.99112 0.49955 0.0
H996 H 0.74533 0.99181 0.45375 0.0
H997 H 0.7439 0.94872 0.44811 0.0
H998 H 0.70029 0.94236 0.5104 0.0
C999 C 0.69635 0.03786 0.51804 0.0
C1000 C 0.70265 0.05861 0.50599 0.0
C1001 C 0.71831 0.05721 0.48666 0.0
C1002 C 0.72696 0.03541 0.47898 0.0
C1003 C 0.71993 0.01523 0.49092 0.0
C1004 C 0.7051 0.01629 0.51015 0.0
C1005 C 0.69871 0.99198 0.51879 0.0
C1006 C 0.70823 0.9878 0.54374 0.0
C1007 C 0.67197 0.98795 0.51764 0.0
C1008 C 0.71161 0.97707 0.50093 0.0
C1009 C 0.724 0.99075 0.48517 0.0
C1010 C 0.736 0.98089 0.4662 0.0
C1011 C 0.73504 0.95641 0.46311 0.0
C1012 C 0.72206 0.94216 0.47884 0.0
C1013 C 0.71059 0.9527 0.49819 0.0
H1014 H 0.93902 0.68579 0.50388 0.0
H1015 H 0.93847 0.71481 0.57451 0.0
H1016 H 0.98186 0.71665 0.57398 0.0
H1017 H 0.98822 0.6491 0.51123 0.0
H1018 H -0.0003 0.65377 0.48208 0.0
H1019 H 0.96862 0.65634 0.48738 0.0
H1020 H 0.96893 0.69854 0.47019 0.0
H1021 H 4e-05 0.69608 0.46476 0.0
H1022 H 0.98883 0.72011 0.48216 0.0
H1023 H 0.0253 0.71294 0.56665 0.0
H1024 H 0.06559 0.70445 0.55291 0.0
H1025 H 0.03745 0.67816 0.48697 0.0
C1026 C 0.94797 0.69278 0.51917 0.0
C1027 C 0.93536 0.70017 0.53924 0.0
C1028 C 0.94777 0.70911 0.5589 0.0
C1029 C 0.9724 0.71023 0.55877 0.0
C1030 C 0.98429 0.70251 0.53878 0.0
C1031 C 0.97249 0.69409 0.5193 0.0
C1032 C 0.98939 0.68611 0.50037 0.0
C1033 C 0.98629 0.65977 0.49496 0.0
C1034 C 0.98663 0.70111 0.47805 0.0
C1035 C 0.01259 0.69089 0.51244 0.0
C1036 C 0.00929 0.70049 0.53452 0.0
C1037 C 0.02811 0.70563 0.54931 0.0
C1038 C 0.05092 0.7007 0.54136 0.0
C1039 C 0.05468 0.6907 0.51884 0.0
C1040 C 0.0352 0.68596 0.50419 0.0
H1041 H 0.28385 0.0578 0.52886 0.0
H1042 H 0.26045 0.06111 0.45629 0.0
H1043 H 0.25508 0.0181 0.45612 0.0
H1044 H 0.31807 0.00954 0.52317 0.0
H1045 H 0.3115 0.99653 0.55129 0.0
H1046 H 0.30898 0.02778 0.54746 0.0
H1047 H 0.26563 0.02645 0.56137 0.0
H1048 H 0.26807 0.99511 0.56553 0.0
H1049 H 0.2452 0.00693 0.54702 0.0
H1050 H 0.25945 0.97475 0.46136 0.0
H1051 H 0.27083 0.93433 0.47257 0.0
H1052 H 0.29033 0.95919 0.542 0.0
C1053 C 0.27686 0.04959 0.51317 0.0
C1054 C 0.27258 0.06282 0.49259 0.0
C1055 C 0.26377 0.05137 0.47231 0.0
C1056 C 0.26062 0.02692 0.47205 0.0
C1057 C 0.266 0.01427 0.49232 0.0
C1058 C 0.27355 0.02525 0.51265 0.0
C1059 C 0.28039 0.00751 0.53128 0.0
C1060 C 0.30626 0.01053 0.53871 0.0
C1061 C 0.26383 0.00909 0.55256 0.0
C1062 C 0.27669 0.98486 0.51783 0.0
C1063 C 0.2681 0.9891 0.49549 0.0
C1064 C 0.26559 0.97113 0.47901 0.0
C1065 C 0.27223 0.94827 0.48547 0.0
C1066 C 0.28124 0.94364 0.50821 0.0
C1067 C 0.28302 0.96213 0.52467 0.0
H1068 H 0.51761 0.95083 0.30628 0.0
H1069 H 0.4571 0.94649 0.25996 0.0
H1070 H 0.45982 0.98923 0.25254 0.0
H1071 H 0.50243 0.00333 0.33323 0.0
H1072 H 0.53204 0.01437 0.33541 0.0
H1073 H 0.52689 0.98319 0.33476 0.0
H1074 H 0.55481 0.97919 0.29895 0.0
H1075 H 0.56 0.01046 0.29945 0.0
H1076 H 0.54946 0.99656 0.27299 0.0
H1077 H 0.46667 0.03307 0.25364 0.0
H1078 H 0.47675 0.07416 0.26358 0.0
H1079 H 0.53323 0.04917 0.30846 0.0
C1080 C 0.50512 0.95876 0.29428 0.0
C1081 C 0.48714 0.94533 0.2837 0.0
C1082 C 0.47108 0.95643 0.26822 0.0
C1083 C 0.47253 0.98068 0.26383 0.0
C1084 C 0.4903 0.99346 0.27485 0.0
C1085 C 0.50639 0.98282 0.28964 0.0
C1086 C 0.52283 0.00061 0.30058 0.0
C1087 C 0.52091 0.00036 0.32759 0.0
C1088 C 0.54828 0.99645 0.2925 0.0
C1089 C 0.51296 0.02305 0.2903 0.0
C1090 C 0.49439 0.0186 0.27527 0.0
C1091 C 0.48143 0.03675 0.26507 0.0
C1092 C 0.48728 0.06003 0.27082 0.0
C1093 C 0.50586 0.06489 0.2867 0.0
C1094 C 0.51915 0.0461 0.29601 0.0
H1095 H 0.92842 0.49638 0.28948 0.0
H1096 H 0.9187 0.57209 0.29148 0.0
H1097 H 0.96069 0.57757 0.28207 0.0
H1098 H 0.98077 0.49507 0.3184 0.0
H1099 H 0.99383 0.47156 0.3016 0.0
H1100 H 0.96241 0.47347 0.30422 0.0
H1101 H 0.95832 0.47397 0.25884 0.0
H1102 H 0.98982 0.47186 0.25604 0.0
H1103 H 0.97418 0.49557 0.24195 0.0
H1104 H 0.00443 0.5748 0.27904 0.0
H1105 H 0.04644 0.56395 0.28088 0.0
H1106 H 0.02744 0.49006 0.28003 0.0
C1107 C 0.93494 0.51412 0.2873 0.0
C1108 C 0.9203 0.53381 0.2912 0.0
C1109 C 0.92958 0.55674 0.28847 0.0
C1110 C 0.9534 0.56003 0.28308 0.0
C1111 C 0.96756 0.54022 0.28017 0.0
C1112 C 0.9586 0.5177 0.28187 0.0
C1113 C 0.97785 0.49938 0.28016 0.0
C1114 C 0.97876 0.48398 0.30242 0.0
C1115 C 0.97486 0.48431 0.25792 0.0
C1116 C -0.00084 0.51513 0.27832 0.0
C1117 C 0.99284 0.53862 0.27806 0.0
C1118 C 0.00958 0.55647 0.27868 0.0
C1119 C 0.03337 0.55014 0.27985 0.0
C1120 C 0.04015 0.52617 0.28041 0.0
C1121 C 0.0228 0.50852 0.27916 0.0
H1122 H 0.55839 0.94098 0.69915 0.0
H1123 H 0.49067 0.91838 0.72598 0.0
H1124 H 0.48157 0.95921 0.7374 0.0
H1125 H 0.56856 0.98948 0.74321 0.0
H1126 H 0.58168 0.00803 0.72116 0.0
H1127 H 0.58473 0.97652 0.71922 0.0
H1128 H 0.56719 0.97747 0.67718 0.0
H1129 H 0.56395 0.00884 0.67902 0.0
H1130 H 0.53877 0.99075 0.6725 0.0
H1131 H 0.47706 0.0028 0.73977 0.0
H1132 H 0.47793 0.04578 0.73362 0.0
H1133 H 0.54873 0.04009 0.70577 0.0
C1134 C 0.54198 0.94448 0.70813 0.0
C1135 C 0.5253 0.92647 0.71176 0.0
C1136 C 0.50378 0.93187 0.7231 0.0
C1137 C 0.49847 0.95502 0.72973 0.0
C1138 C 0.51494 0.97252 0.72512 0.0
C1139 C 0.53638 0.9675 0.71481 0.0
C1140 C 0.54993 0.98977 0.70944 0.0
C1141 C 0.57257 0.99102 0.72414 0.0
C1142 C 0.55525 0.99182 0.68297 0.0
C1143 C 0.53229 0.0081 0.71732 0.0
C1144 C 0.51238 0.99781 0.72665 0.0
C1145 C 0.49277 0.0111 0.73301 0.0
C1146 C 0.49339 0.03549 0.72937 0.0
C1147 C 0.51346 0.04629 0.7194 0.0
C1148 C 0.53331 0.03241 0.71387 0.0
H1149 H 0.95043 0.5036 0.64758 0.0
H1150 H 0.93792 0.48213 0.71974 0.0
H1151 H 0.98071 0.47881 0.72616 0.0
H1152 H 0.99767 0.4651 0.63638 0.0
H1153 H 0.01402 0.48569 0.61873 0.0
H1154 H 0.98248 0.48776 0.62022 0.0
H1155 H 0.98572 0.5311 0.63401 0.0
H1156 H 0.01729 0.5292 0.63244 0.0
H1157 H 0.00329 0.5381 0.65944 0.0
H1158 H 0.02475 0.47521 0.72386 0.0
H1159 H 0.06692 0.47342 0.71346 0.0
H1160 H 0.05035 0.49804 0.64313 0.0
C1161 C 0.95667 0.49843 0.66481 0.0
C1162 C 0.94083 0.49309 0.68314 0.0
C1163 C 0.94973 0.48635 0.70543 0.0
C1164 C 0.974 0.4844 0.70925 0.0
C1165 C 0.98911 0.48944 0.69068 0.0
C1166 C 0.9808 0.49652 0.66897 0.0
C1167 C 0.0007 0.50037 0.65177 0.0
C1168 C -0.00142 0.48373 0.63053 0.0
C1169 C 0.00181 0.52623 0.64396 0.0
C1170 C 0.02147 0.49395 0.66709 0.0
C1171 C 0.01445 0.48771 0.68948 0.0
C1172 C 0.03049 0.48027 0.70645 0.0
C1173 C 0.05437 0.47923 0.70037 0.0
C1174 C 0.06191 0.48568 0.67753 0.0
C1175 C 0.04518 0.4932 0.6608 0.0
H1176 H 0.30239 0.45285 0.94384 0.0
H1177 H 0.27484 0.51409 0.90759 0.0
H1178 H 0.26178 0.53068 0.94557 0.0
H1179 H 0.25771 0.45054 0.99192 0.0
H1180 H 0.27958 0.44221 0.0133 0.0
H1181 H 0.28282 0.4333 0.98305 0.0
H1182 H 0.32405 0.45264 0.98186 0.0
H1183 H 0.32089 0.46172 0.01196 0.0
H1184 H 0.32704 0.48326 0.98956 0.0
H1185 H 0.25597 0.54258 0.98761 0.0
H1186 H 0.25906 0.54948 0.03037 0.0
H1187 H 0.29171 0.48096 0.03888 0.0
C1188 C 0.29295 0.4694 0.9438 0.0
C1189 C 0.2894 0.4821 0.9228 0.0
C1190 C 0.27761 0.50403 0.92352 0.0
C1191 C 0.27004 0.51353 0.94498 0.0
C1192 C 0.27444 0.50086 0.96549 0.0
C1193 C 0.28558 0.47923 0.96506 0.0
C1194 C 0.29066 0.47042 0.98962 0.0
C1195 C 0.27686 0.44777 0.99477 0.0
C1196 C 0.31723 0.46681 0.99346 0.0
C1197 C 0.2814 0.49083 0.00392 0.0
C1198 C 0.27168 0.50801 0.98974 0.0
C1199 C 0.26323 0.52911 -0.00107 0.0
C1200 C 0.2651 0.53289 0.02323 0.0
C1201 C 0.27564 0.51577 0.03793 0.0
C1202 C 0.28347 0.49434 0.02812 0.0
H1203 H 0.55597 0.29793 0.96473 0.0
H1204 H 0.49375 0.25669 0.94913 0.0
H1205 H 0.48303 0.25725 0.99126 0.0
H1206 H 0.56805 0.27357 0.02442 0.0
H1207 H 0.57679 0.30202 0.03533 0.0
H1208 H 0.58169 0.29449 0.00494 0.0
H1209 H 0.55863 0.3317 0.99217 0.0
H1210 H 0.5534 0.3392 0.02241 0.0
H1211 H 0.52896 0.33592 0.0025 0.0
H1212 H 0.47675 0.26649 0.03431 0.0
H1213 H 0.47518 0.28403 0.0741 0.0
H1214 H 0.54074 0.32049 0.06042 0.0
C1215 C 0.54049 0.28832 0.97022 0.0
C1216 C 0.52581 0.27706 0.95367 0.0
C1217 C 0.50536 0.26526 0.96155 0.0
C1218 C 0.49915 0.26546 0.98544 0.0
C1219 C 0.51359 0.27752 0.00118 0.0
C1220 C 0.53392 0.28863 0.99385 0.0
C1221 C 0.54505 0.30259 0.01355 0.0
C1222 C 0.56933 0.29256 0.01994 0.0
C1223 C 0.54658 0.3289 0.00728 0.0
C1224 C 0.52743 0.29826 0.03294 0.0
C1225 C 0.50963 0.28342 0.02566 0.0
C1226 C 0.49076 0.27788 0.04028 0.0
C1227 C 0.49 0.28795 0.06283 0.0
C1228 C 0.50782 0.30365 0.07033 0.0
C1229 C 0.52686 0.30854 0.05522 0.0
H1230 H 0.70792 0.46929 0.97132 0.0
H1231 H 0.73943 0.53826 0.9629 0.0
H1232 H 0.74162 0.54245 0.00604 0.0
H1233 H 0.67126 0.48359 0.01653 0.0
H1234 H 0.67399 0.45622 0.03227 0.0
H1235 H 0.67858 0.4569 0.00103 0.0
H1236 H 0.71997 0.43855 0.00645 0.0
H1237 H 0.71544 0.43767 0.03781 0.0
H1238 H 0.7408 0.45243 0.02589 0.0
H1239 H 0.73464 0.5417 0.0495 0.0
H1240 H 0.72024 0.53548 0.08998 0.0
H1241 H 0.69413 0.46664 0.06993 0.0
C1242 C 0.71584 0.48503 0.97851 0.0
C1243 C 0.72349 0.50345 0.96376 0.0
C1244 C 0.73353 0.52387 0.97387 0.0
C1245 C 0.7349 0.52639 -0.00164 0.0
C1246 C 0.72648 0.50819 0.01242 0.0
C1247 C 0.71742 0.48777 0.00285 0.0
C1248 C 0.70764 0.47172 0.02166 0.0
C1249 C 0.68131 0.46684 0.01762 0.0
C1250 C 0.72182 0.44873 0.02303 0.0
C1251 C 0.7116 0.48679 0.0432 0.0
C1252 C 0.72277 0.50762 0.03758 0.0
C1253 C 0.72635 0.52524 0.05422 0.0
C1254 C 0.71802 0.5216 0.07713 0.0
C1255 C 0.70621 0.50051 0.08311 0.0
C1256 C 0.70347 0.48275 0.066 0.0
H1257 H 0.52337 0.69174 0.92273 0.0
H1258 H 0.45443 0.72158 0.90896 0.0
H1259 H 0.45122 0.73311 0.95072 0.0
H1260 H 0.50962 0.66623 0.97592 0.0
H1261 H 0.53752 0.67198 0.98979 0.0
H1262 H 0.53584 0.66911 0.95836 0.0
H1263 H 0.55491 0.71018 0.95338 0.0
H1264 H 0.55676 0.71316 0.98488 0.0
H1265 H 0.54193 0.73531 0.96772 0.0
H1266 H 0.4535 0.73695 0.99463 0.0
H1267 H 0.46132 0.73334 0.03717 0.0
H1268 H 0.52896 0.70134 0.02198 0.0
C1269 C 0.50779 0.70116 0.92833 0.0
C1270 C 0.48916 0.7058 0.91256 0.0
C1271 C 0.46897 0.71791 0.9207 0.0
C1272 C 0.46701 0.72458 0.94438 0.0
C1273 C 0.48547 0.71919 0.95958 0.0
C1274 C 0.50557 0.70793 0.95183 0.0
C1275 C 0.5221 0.70253 0.97198 0.0
C1276 C 0.52651 0.67588 0.97413 0.0
C1277 C 0.5453 0.71611 0.96933 0.0
C1278 C 0.50782 0.71176 0.99241 0.0
C1279 C 0.48686 0.72155 0.98489 0.0
C1280 C 0.47002 0.7297 0.0007 0.0
C1281 C 0.4746 0.7275 0.02483 0.0
C1282 C 0.49581 0.71719 0.03289 0.0
C1283 C 0.51275 0.70964 0.01639 0.0
H1284 H 0.18089 0.25177 0.50415 0.0
H1285 H 0.17122 0.26037 0.42889 0.0
H1286 H 0.20343 0.23219 0.42161 0.0
H1287 H 0.24407 0.24709 0.50316 0.0
H1288 H 0.24513 0.22521 0.52605 0.0
H1289 H 0.2215 0.24631 0.52538 0.0
H1290 H 0.19108 0.21241 0.52517 0.0
H1291 H 0.21461 0.19121 0.5259 0.0
H1292 H 0.1929 0.18997 0.50284 0.0
H1293 H 0.23639 0.20291 0.42249 0.0
H1294 H 0.26733 0.17383 0.43146 0.0
H1295 H 0.25535 0.18432 0.50615 0.0
C1296 C 0.18555 0.24778 0.48613 0.0
C1297 C 0.17355 0.25829 0.46709 0.0
C1298 C 0.18016 0.25252 0.44377 0.0
C1299 C 0.19845 0.23657 0.43944 0.0
C1300 C 0.20993 0.22656 0.45861 0.0
C1301 C 0.20372 0.23188 0.48149 0.0
C1302 C 0.21864 0.21842 0.49895 0.0
C1303 C 0.2332 0.23527 0.51428 0.0
C1304 C 0.20339 0.20203 0.5141 0.0
C1305 C 0.23414 0.20461 0.4823 0.0
C1306 C 0.22889 0.20962 0.45912 0.0
C1307 C 0.2407 0.19885 0.44057 0.0
C1308 C 0.25825 0.18237 0.44586 0.0
C1309 C 0.26378 0.17679 0.46951 0.0
C1310 C 0.2516 0.18822 0.4879 0.0
H1311 H 0.73952 0.17747 0.50227 0.0
H1312 H 0.6788 0.22383 0.5003 0.0
H1313 H 0.7052 0.25823 0.49863 0.0
H1314 H 0.77543 0.21398 0.53896 0.0
H1315 H 0.80232 0.20683 0.52378 0.0
H1316 H 0.77862 0.18587 0.52462 0.0
H1317 H 0.7786 0.18384 0.47909 0.0
H1318 H 0.80231 0.20477 0.4781 0.0
H1319 H 0.77543 0.21056 0.46232 0.0
H1320 H 0.73818 0.28749 0.49728 0.0
H1321 H 0.77546 0.30962 0.49632 0.0
H1322 H 0.81445 0.24396 0.49929 0.0
C1323 C 0.73173 0.19484 0.50147 0.0
C1324 C 0.7071 0.19798 0.50142 0.0
C1325 C 0.69763 0.22101 0.50037 0.0
C1326 C 0.71247 0.24065 0.49941 0.0
C1327 C 0.73667 0.23692 0.49953 0.0
C1328 C 0.74624 0.2146 0.50053 0.0
C1329 C 0.77283 0.21537 0.5005 0.0
C1330 C 0.78288 0.2049 0.52333 0.0
C1331 C 0.78288 0.2029 0.4787 0.0
C1332 C 0.77673 0.24164 0.49935 0.0
C1333 C 0.75566 0.25376 0.49879 0.0
C1334 C 0.7548 0.27821 0.49771 0.0
C1335 C 0.77607 0.2906 0.49717 0.0
C1336 C 0.79786 0.27852 0.49773 0.0
C1337 C 0.79809 0.25371 0.49884 0.0
H1338 H 0.81634 0.74493 0.52014 0.0
H1339 H 0.85527 0.7431 0.45451 0.0
H1340 H 0.83129 0.77601 0.43945 0.0
H1341 H 0.76057 0.75627 0.4953 0.0
H1342 H 0.75104 0.77566 0.51849 0.0
H1343 H 0.77215 0.75287 0.52461 0.0
H1344 H 0.80122 0.78395 0.54093 0.0
H1345 H 0.78014 0.80685 0.53493 0.0
H1346 H 0.80937 0.80865 0.52285 0.0
H1347 H 0.80157 0.80764 0.43074 0.0
H1348 H 0.76891 0.83631 0.42945 0.0
H1349 H 0.74995 0.81759 0.50097 0.0
C1350 C 0.82 0.75158 0.50268 0.0
C1351 C 0.83769 0.74145 0.48851 0.0
C1352 C 0.84184 0.75061 0.46572 0.0
C1353 C 0.82832 0.76931 0.457 0.0
C1354 C 0.81083 0.7787 0.47134 0.0
C1355 C 0.80674 0.77025 0.49374 0.0
C1356 C 0.78648 0.78301 0.50535 0.0
C1357 C 0.76638 0.76593 0.51127 0.0
C1358 C 0.79481 0.79641 0.52731 0.0
C1359 C 0.7796 0.79972 0.48584 0.0
C1360 C 0.79387 0.79703 0.46639 0.0
C1361 C 0.79039 0.81005 0.44593 0.0
C1362 C 0.77177 0.82625 0.44536 0.0
C1363 C 0.75693 0.82924 0.46512 0.0
C1364 C 0.76107 0.81585 0.48562 0.0
H1365 H 0.17522 0.74688 0.4692 0.0
H1366 H 0.17238 0.73375 0.54438 0.0
H1367 H 0.20108 0.76546 0.55104 0.0
H1368 H 0.23662 0.75761 0.46652 0.0
H1369 H 0.2345 0.78049 0.4447 0.0
H1370 H 0.21263 0.75766 0.44579 0.0
H1371 H 0.17982 0.7891 0.44961 0.0
H1372 H 0.2016 0.81205 0.44848 0.0
H1373 H 0.18143 0.8106 0.47286 0.0
H1374 H 0.23103 0.79717 0.54962 0.0
H1375 H 0.26071 0.82722 0.54017 0.0
H1376 H 0.24443 0.81984 0.4659 0.0
C1377 C 0.18045 0.75084 0.48708 0.0
C1378 C 0.17154 0.73788 0.50627 0.0
C1379 C 0.17899 0.74344 0.52939 0.0
C1380 C 0.19524 0.76145 0.53338 0.0
C1381 C 0.20386 0.77372 0.51407 0.0
C1382 C 0.19675 0.76872 0.49139 0.0
C1383 C 0.20943 0.78406 0.47372 0.0
C1384 C 0.22417 0.76906 0.45668 0.0
C1385 C 0.19203 0.79989 0.46038 0.0
C1386 C 0.22492 0.79827 0.49005 0.0
C1387 C 0.22132 0.79207 0.51325 0.0
C1388 C 0.23394 0.8023 0.53154 0.0
C1389 C 0.25079 0.81931 0.52597 0.0
C1390 C 0.25487 0.82589 0.5023 0.0
C1391 C 0.24163 0.81528 0.48416 0.0
H1392 H 0.48725 0.18845 0.25309 0.0
H1393 H 0.48207 0.22718 0.31873 0.0
H1394 H 0.47932 0.26435 0.29655 0.0
H1395 H 0.52321 0.22958 0.22322 0.0
H1396 H 0.50919 0.22556 0.19508 0.0
H1397 H 0.50958 0.20187 0.21605 0.0
H1398 H 0.46414 0.1992 0.21402 0.0
H1399 H 0.46361 0.22288 0.193 0.0
H1400 H 0.44671 0.22508 0.21971 0.0
H1401 H 0.479 0.29734 0.26746 0.0
H1402 H 0.48062 0.32399 0.23331 0.0
H1403 H 0.4856 0.26373 0.18662 0.0
C1404 C 0.48535 0.20472 0.26282 0.0
C1405 C 0.48487 0.20492 0.28765 0.0
C1406 C 0.48246 0.22659 0.2997 0.0
C1407 C 0.48086 0.2478 0.28727 0.0
C1408 C 0.48159 0.247 0.26282 0.0
C1409 C 0.48369 0.22604 0.2507 0.0
C1410 C 0.48465 0.23009 0.22442 0.0
C1411 C 0.50805 0.22126 0.21409 0.0
C1412 C 0.46351 0.21864 0.21206 0.0
C1413 C 0.48307 0.25664 0.22368 0.0
C1414 C 0.48125 0.26604 0.24601 0.0
C1415 C 0.48025 0.2902 0.24987 0.0
C1416 C 0.48124 0.30518 0.23036 0.0
C1417 C 0.48317 0.29594 0.2073 0.0
C1418 C 0.48394 0.27133 0.204 0.0
H1419 H 0.80336 0.50475 0.26957 0.0
H1420 H 0.79319 0.57126 0.30575 0.0
H1421 H 0.75846 0.57939 0.28098 0.0
H1422 H 0.78799 0.52555 0.21237 0.0
H1423 H 0.77346 0.49871 0.20386 0.0
H1424 H 0.79707 0.49788 0.22493 0.0
H1425 H 0.76981 0.47689 0.25479 0.0
H1426 H 0.7461 0.47767 0.23381 0.0
H1427 H 0.74213 0.49021 0.26265 0.0
H1428 H 0.72509 0.58038 0.25198 0.0
H1429 H 0.69606 0.57457 0.22021 0.0
H1430 H 0.72862 0.5076 0.20299 0.0
C1431 C 0.79379 0.52099 0.27238 0.0
C1432 C 0.80093 0.53736 0.28961 0.0
C1433 C 0.78803 0.55848 0.29262 0.0
C1434 C 0.76826 0.56323 0.27868 0.0
C1435 C 0.76172 0.54672 0.26182 0.0
C1436 C 0.77413 0.52606 0.25858 0.0
C1437 C 0.7638 0.51148 0.2389 0.0
C1438 C 0.78164 0.50822 0.21883 0.0
C1439 C 0.75493 0.48766 0.2481 0.0
C1440 C 0.74365 0.52719 0.23155 0.0
C1441 C 0.74268 0.54739 0.24502 0.0
C1442 C 0.72565 0.56462 0.24132 0.0
C1443 C 0.70925 0.56116 0.22324 0.0
C1444 C 0.71009 0.54065 0.20911 0.0
C1445 C 0.72749 0.52346 0.21347 0.0
H1446 H 0.49549 0.72633 0.19662 0.0
H1447 H 0.47771 0.7747 0.14025 0.0
H1448 H 0.47815 0.80768 0.16849 0.0
H1449 H 0.46069 0.75425 0.2416 0.0
H1450 H 0.48193 0.74892 0.26451 0.0
H1451 H 0.47991 0.72907 0.23991 0.0
H1452 H 0.52419 0.73522 0.23116 0.0
H1453 H 0.52635 0.75509 0.25572 0.0
H1454 H 0.53524 0.76461 0.22684 0.0
H1455 H 0.48038 0.83527 0.20277 0.0
H1456 H 0.48511 0.85585 0.24065 0.0
H1457 H 0.50211 0.7895 0.27448 0.0
C1458 C 0.49164 0.74384 0.19019 0.0
C1459 C 0.48653 0.74794 0.16623 0.0
C1460 C 0.48167 0.77114 0.15853 0.0
C1461 C 0.48185 0.78998 0.17443 0.0
C1462 C 0.48697 0.78531 0.19791 0.0
C1463 C 0.49182 0.76283 0.20578 0.0
C1464 C 0.49705 0.76261 0.23187 0.0
C1465 C 0.4788 0.74784 0.24526 0.0
C1466 C 0.52221 0.75387 0.23667 0.0
C1467 C 0.4945 0.78851 0.23743 0.0
C1468 C 0.48856 0.80126 0.21763 0.0
C1469 C 0.48506 0.82549 0.2184 0.0
C1470 C 0.48777 0.837 0.24001 0.0
C1471 C 0.49403 0.82428 0.26051 0.0
C1472 C 0.49742 0.79972 0.25911 0.0
H1473 H 0.20104 0.515 0.2694 0.0
H1474 H 0.13808 0.52325 0.22693 0.0
H1475 H 0.16216 0.5213 0.19094 0.0
H1476 H 0.23833 0.55058 0.2337 0.0
H1477 H 0.26394 0.53233 0.23781 0.0
H1478 H 0.24167 0.53361 0.26026 0.0
H1479 H 0.23728 0.48827 0.25854 0.0
H1480 H 0.25953 0.48685 0.23606 0.0
H1481 H 0.23094 0.47425 0.23082 0.0
H1482 H 0.1929 0.51897 0.15972 0.0
H1483 H 0.22856 0.51734 0.13515 0.0
H1484 H 0.27151 0.51101 0.19801 0.0
C1485 C 0.19229 0.5163 0.25254 0.0
C1486 C 0.1677 0.51925 0.25096 0.0
C1487 C 0.15692 0.52101 0.22856 0.0
C1488 C 0.17042 0.51987 0.20802 0.0
C1489 C 0.19463 0.517 0.21021 0.0
C1490 C 0.20549 0.51528 0.23187 0.0
C1491 C 0.23186 0.5128 0.22934 0.0
C1492 C 0.2447 0.53357 0.24096 0.0
C1493 C 0.2404 0.48913 0.23927 0.0
C1494 C 0.23411 0.51355 0.20285 0.0
C1495 C 0.21241 0.51584 0.19217 0.0
C1496 C 0.21 0.51713 0.16785 0.0
C1497 C 0.23036 0.51618 0.15407 0.0
C1498 C 0.25281 0.51406 0.16467 0.0
C1499 C 0.25461 0.51262 0.18939 0.0
H1500 H 0.50919 0.72906 0.80372 0.0
H1501 H 0.52176 0.6693 0.75782 0.0
H1502 H 0.52278 0.69594 0.72358 0.0
H1503 H 0.47145 0.76096 0.76447 0.0
H1504 H 0.48296 0.78933 0.77266 0.0
H1505 H 0.48322 0.76555 0.79355 0.0
H1506 H 0.52818 0.77057 0.79897 0.0
H1507 H 0.52806 0.79439 0.77812 0.0
H1508 H 0.54714 0.76947 0.7736 0.0
H1509 H 0.52217 0.72903 0.69437 0.0
H1510 H 0.52068 0.76635 0.67229 0.0
H1511 H 0.50883 0.8044 0.73745 0.0
C1512 C 0.51216 0.72154 0.78648 0.0
C1513 C 0.51538 0.69709 0.78344 0.0
C1514 C 0.51926 0.68798 0.76058 0.0
C1515 C 0.51985 0.70296 0.74102 0.0
C1516 C 0.51656 0.72696 0.74465 0.0
C1517 C 0.51285 0.73621 0.76681 0.0
C1518 C 0.50995 0.76266 0.76596 0.0
C1519 C 0.48543 0.77005 0.77467 0.0
C1520 C 0.5295 0.77499 0.77999 0.0
C1521 C 0.51261 0.76685 0.73984 0.0
C1522 C 0.51637 0.74603 0.72786 0.0
C1523 C 0.51927 0.74545 0.70356 0.0
C1524 C 0.51837 0.76674 0.69118 0.0
C1525 C 0.51466 0.78829 0.70314 0.0
C1526 C 0.51173 0.78824 0.72779 0.0
H1527 H 0.24491 0.49483 0.80955 0.0
H1528 H 0.28756 0.43172 0.80364 0.0
H1529 H 0.26085 0.41666 0.77284 0.0
H1530 H 0.18812 0.46682 0.80008 0.0
H1531 H 0.17685 0.49124 0.78328 0.0
H1532 H 0.19846 0.49621 0.80589 0.0
H1533 H 0.22553 0.51684 0.7756 0.0
H1534 H 0.20401 0.51196 0.75294 0.0
H1535 H 0.23369 0.50151 0.74908 0.0
H1536 H 0.23048 0.40954 0.74121 0.0
H1537 H 0.19949 0.4114 0.71076 0.0
H1538 H 0.17722 0.47927 0.73788 0.0
C1539 C 0.24855 0.47773 0.80198 0.0
C1540 C 0.26828 0.46443 0.80901 0.0
C1541 C 0.27251 0.44221 0.79851 0.0
C1542 C 0.25741 0.43348 0.78107 0.0
C1543 C 0.23819 0.44716 0.77443 0.0
C1544 C 0.23373 0.4688 0.78458 0.0
C1545 C 0.21257 0.48058 0.77363 0.0
C1546 C 0.19283 0.4839 0.79181 0.0
C1547 C 0.21937 0.5041 0.76213 0.0
C1548 C 0.20602 0.46236 0.75544 0.0
C1549 C 0.22084 0.44311 0.75625 0.0
C1550 C 0.21865 0.42445 0.74052 0.0
C1551 C 0.20101 0.42565 0.7233 0.0
C1552 C 0.18593 0.44546 0.72195 0.0
C1553 C 0.18837 0.46383 0.73848 0.0
H1554 H 0.49776 0.16197 0.75825 0.0
H1555 H 0.48818 0.20698 0.6973 0.0
H1556 H 0.49178 0.24199 0.7226 0.0
H1557 H 0.46492 0.19795 0.79897 0.0
H1558 H 0.4844 0.19225 0.82331 0.0
H1559 H 0.48094 0.1706 0.80045 0.0
H1560 H 0.52596 0.17058 0.79349 0.0
H1561 H 0.52957 0.19224 0.81632 0.0
H1562 H 0.54072 0.19791 0.78722 0.0
H1563 H 0.49682 0.27202 0.75412 0.0
H1564 H 0.50263 0.29538 0.79014 0.0
H1565 H 0.50878 0.23102 0.83082 0.0
C1566 C 0.49637 0.17919 0.75023 0.0
C1567 C 0.49268 0.18174 0.72579 0.0
C1568 C 0.49099 0.20457 0.71597 0.0
C1569 C 0.49301 0.22458 0.73019 0.0
C1570 C 0.49669 0.22145 0.75417 0.0
C1571 C 0.49832 0.19937 0.76416 0.0
C1572 C 0.50241 0.20096 0.79044 0.0
C1573 C 0.48194 0.18978 0.80409 0.0
C1574 C 0.52607 0.18976 0.79726 0.0
C1575 C 0.50287 0.2274 0.79361 0.0
C1576 C 0.49955 0.23885 0.77245 0.0
C1577 C 0.49941 0.26327 0.77082 0.0
C1578 C 0.50275 0.27637 0.79139 0.0
C1579 C 0.50615 0.26504 0.81331 0.0
C1580 C 0.50619 0.2402 0.81435 0.0
H1581 H 0.75491 0.53218 0.83634 0.0
H1582 H 0.75712 0.45846 0.8562 0.0
H1583 H 0.78759 0.45127 0.82623 0.0
H1584 H 0.75964 0.52308 0.77573 0.0
H1585 H 0.77782 0.54842 0.77017 0.0
H1586 H 0.75796 0.54838 0.79478 0.0
H1587 H 0.79258 0.55741 0.823 0.0
H1588 H 0.81257 0.55756 0.79844 0.0
H1589 H 0.81799 0.53844 0.82312 0.0
H1590 H 0.81517 0.45133 0.79225 0.0
H1591 H 0.83839 0.45867 0.75643 0.0
H1592 H 0.81837 0.53238 0.75867 0.0
C1593 C 0.76209 0.51461 0.83468 0.0
C1594 C 0.7537 0.49589 0.84864 0.0
C1595 C 0.76331 0.47308 0.84571 0.0
C1596 C 0.78067 0.46883 0.82879 0.0
C1597 C 0.78826 0.48758 0.81504 0.0
C1598 C 0.77938 0.51004 0.81784 0.0
C1599 C 0.78953 0.52678 0.79984 0.0
C1600 C 0.77008 0.53727 0.78421 0.0
C1601 C 0.80403 0.54619 0.81182 0.0
C1602 C 0.80511 0.51009 0.78617 0.0
C1603 C 0.80425 0.48762 0.79535 0.0
C1604 C 0.81621 0.46891 0.78504 0.0
C1605 C 0.82929 0.47325 0.76466 0.0
C1606 C 0.83024 0.49611 0.75481 0.0
C1607 C 0.81819 0.51478 0.76592 0.0
loop_
_geom_bond_atom_site_label_1
_geom_bond_atom_site_label_2
_geom_bond_distance
_geom_bond_site_symmetry_2
_ccdc_geom_bond_type
C0 O1 1.160 . S
C0 O7 1.185 . S
O1 C0 1.160 . S
O2 Zn3 1.899 . S
O2 C10 1.284 . S
Zn3 O2 1.899 . S
Zn3 O4 2.032 . S
Zn3 O7 2.086 . S
Zn3 O12 1.977 . S
O4 Zn3 2.032 . S
O4 C8 1.278 . S
C5 O6 1.203 . S
C5 O12 1.267 . S
O6 C5 1.203 . S
O7 C0 1.185 . S
O7 Zn3 2.086 . S
C8 O4 1.278 . S
C8 O9 1.211 . S
O9 C8 1.211 . S
C10 O2 1.284 . S
C10 O11 1.273 . S
O11 C10 1.273 . S
O12 Zn3 1.977 . S
O12 C5 1.267 . S
C13 O14 1.160 . S
C13 O20 1.185 . S
O14 C13 1.160 . S
O15 Zn16 1.899 . S
O15 C23 1.284 . S
Zn16 O15 1.899 . S
Zn16 O17 2.032 . S
Zn16 O20 2.086 . S
Zn16 O25 1.977 . S
O17 Zn16 2.032 . S
O17 C21 1.278 . S
C18 O19 1.203 . S
C18 O25 1.267 . S
O19 C18 1.203 . S
O20 C13 1.185 . S
O20 Zn16 2.086 . S
C21 O17 1.278 . S
C21 O22 1.211 . S
O22 C21 1.211 . S
C23 O15 1.284 . S
C23 O24 1.273 . S
O24 C23 1.273 . S
O25 Zn16 1.977 . S
O25 C18 1.267 . S
C26 O27 1.160 . S
C26 O33 1.185 . S
O27 C26 1.160 . S
O28 Zn29 1.899 . S
O28 C36 1.284 . S
Zn29 O28 1.899 . S
Zn29 O30 2.032 . S
Zn29 O33 2.086 . S
Zn29 O38 1.977 . S
O30 Zn29 2.032 . S
O30 C34 1.278 . S
C31 O32 1.203 . S
C31 O38 1.267 . S
O32 C31 1.203 . S
O33 C26 1.185 . S
O33 Zn29 2.086 . S
C34 O30 1.278 . S
C34 O35 1.211 . S
O35 C34 1.211 . S
C36 O28 1.284 . S
C36 O37 1.273 . S
O37 C36 1.273 . S
O38 Zn29 1.977 . S
O38 C31 1.267 . S
C39 O40 1.160 . S
C39 O46 1.185 . S
O40 C39 1.160 . S
O41 Zn42 1.899 . S
O41 C49 1.284 . S
Zn42 O41 1.899 . S
Zn42 O43 2.032 . S
Zn42 O46 2.086 . S
Zn42 O51 1.977 . S
O43 Zn42 2.032 . S
O43 C47 1.278 . S
C44 O45 1.203 . S
C44 O51 1.267 . S
O45 C44 1.203 . S
O46 C39 1.185 . S
O46 Zn42 2.086 . S
C47 O43 1.278 . S
C47 O48 1.211 . S
O48 C47 1.211 . S
C49 O41 1.284 . S
C49 O50 1.273 . S
O50 C49 1.273 . S
O51 Zn42 1.977 . S
O51 C44 1.267 . S
C52 O53 1.160 . S
C52 O59 1.185 . S
O53 C52 1.160 . S
O54 Zn55 1.899 . S
O54 C62 1.284 . S
Zn55 O54 1.899 . S
Zn55 O56 2.032 . S
Zn55 O59 2.086 . S
Zn55 O64 1.977 . S
O56 Zn55 2.032 . S
O56 C60 1.278 . S
C57 O58 1.203 . S
C57 O64 1.267 . S
O58 C57 1.203 . S
O59 C52 1.185 . S
O59 Zn55 2.086 . S
C60 O56 1.278 . S
C60 O61 1.211 . S
O61 C60 1.211 . S
C62 O54 1.284 . S
C62 O63 1.273 . S
O63 C62 1.273 . S
O64 Zn55 1.977 . S
O64 C57 1.267 . S
C65 O66 1.160 . S
C65 O72 1.185 . S
O66 C65 1.160 . S
O67 Zn68 1.899 . S
O67 C75 1.284 . S
Zn68 O67 1.899 . S
Zn68 O69 2.032 . S
Zn68 O72 2.086 . S
Zn68 O77 1.977 . S
O69 Zn68 2.032 . S
O69 C73 1.278 . S
C70 O71 1.203 . S
C70 O77 1.267 . S
O71 C70 1.203 . S
O72 C65 1.185 . S
O72 Zn68 2.086 . S
C73 O69 1.278 . S
C73 O74 1.211 . S
O74 C73 1.211 . S
C75 O67 1.284 . S
C75 O76 1.273 . S
O76 C75 1.273 . S
O77 Zn68 1.977 . S
O77 C70 1.267 . S
C78 O79 1.160 . S
C78 O85 1.185 . S
O79 C78 1.160 . S
O80 Zn81 1.899 . S
O80 C88 1.284 . S
Zn81 O80 1.899 . S
Zn81 O82 2.032 . S
Zn81 O85 2.086 . S
Zn81 O90 1.977 . S
O82 Zn81 2.032 . S
O82 C86 1.278 . S
C83 O84 1.203 . S
C83 O90 1.267 . S
O84 C83 1.203 . S
O85 C78 1.185 . S
O85 Zn81 2.086 . S
C86 O82 1.278 . S
C86 O87 1.211 . S
O87 C86 1.211 . S
C88 O80 1.284 . S
C88 O89 1.273 . S
O89 C88 1.273 . S
O90 Zn81 1.977 . S
O90 C83 1.267 . S
C91 O92 1.160 . S
C91 O98 1.185 . S
O92 C91 1.160 . S
O93 Zn94 1.899 . S
O93 C101 1.284 . S
Zn94 O93 1.899 . S
Zn94 O95 2.032 . S
Zn94 O98 2.086 . S
Zn94 O103 1.977 . S
O95 Zn94 2.032 . S
O95 C99 1.278 . S
C96 O97 1.203 . S
C96 O103 1.267 . S
O97 C96 1.203 . S
O98 C91 1.185 . S
O98 Zn94 2.086 . S
C99 O95 1.278 . S
C99 O100 1.211 . S
O100 C99 1.211 . S
C101 O93 1.284 . S
C101 O102 1.273 . S
O102 C101 1.273 . S
O103 Zn94 1.977 . S
O103 C96 1.267 . S
C104 O105 1.160 . S
C104 O111 1.185 . S
O105 C104 1.160 . S
O106 Zn107 1.899 . S
O106 C114 1.284 . S
Zn107 O106 1.899 . S
Zn107 O108 2.032 . S
Zn107 O111 2.086 . S
Zn107 O116 1.977 . S
O108 Zn107 2.032 . S
O108 C112 1.278 . S
C109 O110 1.203 . S
C109 O116 1.267 . S
O110 C109 1.203 . S
O111 C104 1.185 . S
O111 Zn107 2.086 . S
C112 O108 1.278 . S
C112 O113 1.211 . S
O113 C112 1.211 . S
C114 O106 1.284 . S
C114 O115 1.273 . S
O115 C114 1.273 . S
O116 Zn107 1.977 . S
O116 C109 1.267 . S
C117 O118 1.160 . S
C117 O124 1.185 . S
O118 C117 1.160 . S
O119 Zn120 1.899 . S
O119 C127 1.284 . S
Zn120 O119 1.899 . S
Zn120 O121 2.032 . S
Zn120 O124 2.086 . S
Zn120 O129 1.977 . S
O121 Zn120 2.032 . S
O121 C125 1.278 . S
C122 O123 1.203 . S
C122 O129 1.267 . S
O123 C122 1.203 . S
O124 C117 1.185 . S
O124 Zn120 2.086 . S
C125 O121 1.278 . S
C125 O126 1.211 . S
O126 C125 1.211 . S
C127 O119 1.284 . S
C127 O128 1.273 . S
O128 C127 1.273 . S
O129 Zn120 1.977 . S
O129 C122 1.267 . S
C130 O131 1.160 . S
C130 O137 1.185 . S
O131 C130 1.160 . S
O132 Zn133 1.899 . S
O132 C140 1.284 . S
Zn133 O132 1.899 . S
Zn133 O134 2.032 . S
Zn133 O137 2.086 . S
Zn133 O142 1.977 . S
O134 Zn133 2.032 . S
O134 C138 1.278 . S
C135 O136 1.203 . S
C135 O142 1.267 . S
O136 C135 1.203 . S
O137 C130 1.185 . S
O137 Zn133 2.086 . S
C138 O134 1.278 . S
C138 O139 1.211 . S
O139 C138 1.211 . S
C140 O132 1.284 . S
C140 O141 1.273 . S
O141 C140 1.273 . S
O142 Zn133 1.977 . S
O142 C135 1.267 . S
C143 O144 1.160 . S
C143 O150 1.185 . S
O144 C143 1.160 . S
O145 Zn146 1.899 . S
O145 C153 1.284 . S
Zn146 O145 1.899 . S
Zn146 O147 2.032 . S
Zn146 O150 2.086 . S
Zn146 O155 1.977 . S
O147 Zn146 2.032 . S
O147 C151 1.278 . S
C148 O149 1.203 . S
C148 O155 1.267 . S
O149 C148 1.203 . S
O150 C143 1.185 . S
O150 Zn146 2.086 . S
C151 O147 1.278 . S
C151 O152 1.211 . S
O152 C151 1.211 . S
C153 O145 1.284 . S
C153 O154 1.273 . S
O154 C153 1.273 . S
O155 Zn146 1.977 . S
O155 C148 1.267 . S
C156 O157 1.160 . S
C156 O163 1.185 . S
O157 C156 1.160 . S
O158 Zn159 1.899 . S
O158 C166 1.284 . S
Zn159 O158 1.899 . S
Zn159 O160 2.032 . S
Zn159 O163 2.086 . S
Zn159 O168 1.977 . S
O160 Zn159 2.032 . S
O160 C164 1.278 . S
C161 O162 1.203 . S
C161 O168 1.267 . S
O162 C161 1.203 . S
O163 C156 1.185 . S
O163 Zn159 2.086 . S
C164 O160 1.278 . S
C164 O165 1.211 . S
O165 C164 1.211 . S
C166 O158 1.284 . S
C166 O167 1.273 . S
O167 C166 1.273 . S
O168 Zn159 1.977 . S
O168 C161 1.267 . S
C169 O170 1.160 . S
C169 O176 1.185 . S
O170 C169 1.160 . S
O171 Zn172 1.899 . S
O171 C179 1.284 . S
Zn172 O171 1.899 . S
Zn172 O173 2.032 . S
Zn172 O176 2.086 . S
Zn172 O181 1.977 . S
O173 Zn172 2.032 . S
O173 C177 1.278 . S
C174 O175 1.203 . S
C174 O181 1.267 . S
O175 C174 1.203 . S
O176 C169 1.185 . S
O176 Zn172 2.086 . S
C177 O173 1.278 . S
C177 O178 1.211 . S
O178 C177 1.211 . S
C179 O171 1.284 . S
C179 O180 1.273 . S
O180 C179 1.273 . S
O181 Zn172 1.977 . S
O181 C174 1.267 . S
C182 O183 1.160 . S
C182 O189 1.185 . S
O183 C182 1.160 . S
O184 Zn185 1.899 . S
O184 C192 1.284 . S
Zn185 O184 1.899 . S
Zn185 O186 2.032 . S
Zn185 O189 2.086 . S
Zn185 O194 1.977 . S
O186 Zn185 2.032 . S
O186 C190 1.278 . S
C187 O188 1.203 . S
C187 O194 1.267 . S
O188 C187 1.203 . S
O189 C182 1.185 . S
O189 Zn185 2.086 . S
C190 O186 1.278 . S
C190 O191 1.211 . S
O191 C190 1.211 . S
C192 O184 1.284 . S
C192 O193 1.273 . S
O193 C192 1.273 . S
O194 Zn185 1.977 . S
O194 C187 1.267 . S
C195 O196 1.160 . S
C195 O202 1.185 . S
O196 C195 1.160 . S
O197 Zn198 1.899 . S
O197 C205 1.284 . S
Zn198 O197 1.899 . S
Zn198 O199 2.032 . S
Zn198 O202 2.086 . S
Zn198 O207 1.977 . S
O199 Zn198 2.032 . S
O199 C203 1.278 . S
C200 O201 1.203 . S
C200 O207 1.267 . S
O201 C200 1.203 . S
O202 C195 1.185 . S
O202 Zn198 2.086 . S
C203 O199 1.278 . S
C203 O204 1.211 . S
O204 C203 1.211 . S
C205 O197 1.284 . S
C205 O206 1.273 . S
O206 C205 1.273 . S
O207 Zn198 1.977 . S
O207 C200 1.267 . S
C208 O209 1.160 . S
C208 O215 1.185 . S
O209 C208 1.160 . S
O210 Zn211 1.899 . S
O210 C218 1.284 . S
Zn211 O210 1.899 . S
Zn211 O212 2.032 . S
Zn211 O215 2.086 . S
Zn211 O220 1.977 . S
O212 Zn211 2.032 . S
O212 C216 1.278 . S
C213 O214 1.203 . S
C213 O220 1.267 . S
O214 C213 1.203 . S
O215 C208 1.185 . S
O215 Zn211 2.086 . S
C216 O212 1.278 . S
C216 O217 1.211 . S
O217 C216 1.211 . S
C218 O210 1.284 . S
C218 O219 1.273 . S
O219 C218 1.273 . S
O220 Zn211 1.977 . S
O220 C213 1.267 . S
C221 O222 1.160 . S
C221 O228 1.185 . S
O222 C221 1.160 . S
O223 Zn224 1.899 . S
O223 C231 1.284 . S
Zn224 O223 1.899 . S
Zn224 O225 2.032 . S
Zn224 O228 2.086 . S
Zn224 O233 1.977 . S
O225 Zn224 2.032 . S
O225 C229 1.278 . S
C226 O227 1.203 . S
C226 O233 1.267 . S
O227 C226 1.203 . S
O228 C221 1.185 . S
O228 Zn224 2.086 . S
C229 O225 1.278 . S
C229 O230 1.211 . S
O230 C229 1.211 . S
C231 O223 1.284 . S
C231 O232 1.273 . S
O232 C231 1.273 . S
O233 Zn224 1.977 . S
O233 C226 1.267 . S
C234 O235 1.160 . S
C234 O241 1.185 . S
O235 C234 1.160 . S
O236 Zn237 1.899 . S
O236 C244 1.284 . S
Zn237 O236 1.899 . S
Zn237 O238 2.032 . S
Zn237 O241 2.086 . S
Zn237 O246 1.977 . S
O238 Zn237 2.032 . S
O238 C242 1.278 . S
C239 O240 1.203 . S
C239 O246 1.267 . S
O240 C239 1.203 . S
O241 C234 1.185 . S
O241 Zn237 2.086 . S
C242 O238 1.278 . S
C242 O243 1.211 . S
O243 C242 1.211 . S
C244 O236 1.284 . S
C244 O245 1.273 . S
O245 C244 1.273 . S
O246 Zn237 1.977 . S
O246 C239 1.267 . S
C247 O248 1.160 . S
C247 O254 1.185 . S
O248 C247 1.160 . S
O249 Zn250 1.899 . S
O249 C257 1.284 . S
Zn250 O249 1.899 . S
Zn250 O251 2.032 . S
Zn250 O254 2.086 . S
Zn250 O259 1.977 . S
O251 Zn250 2.032 . S
O251 C255 1.278 . S
C252 O253 1.203 . S
C252 O259 1.267 . S
O253 C252 1.203 . S
O254 C247 1.185 . S
O254 Zn250 2.086 . S
C255 O251 1.278 . S
C255 O256 1.211 . S
O256 C255 1.211 . S
C257 O249 1.284 . S
C257 O258 1.273 . S
O258 C257 1.273 . S
O259 Zn250 1.977 . S
O259 C252 1.267 . S
C260 O261 1.160 . S
C260 O267 1.185 . S
O261 C260 1.160 . S
O262 Zn263 1.899 . S
O262 C270 1.284 . S
Zn263 O262 1.899 . S
Zn263 O264 2.032 . S
Zn263 O267 2.086 . S
Zn263 O272 1.977 . S
O264 Zn263 2.032 . S
O264 C268 1.278 . S
C265 O266 1.203 . S
C265 O272 1.267 . S
O266 C265 1.203 . S
O267 C260 1.185 . S
O267 Zn263 2.086 . S
C268 O264 1.278 . S
C268 O269 1.211 . S
O269 C268 1.211 . S
C270 O262 1.284 . S
C270 O271 1.273 . S
O271 C270 1.273 . S
O272 Zn263 1.977 . S
O272 C265 1.267 . S
C273 O274 1.160 . S
C273 O280 1.185 . S
O274 C273 1.160 . S
O275 Zn276 1.899 . S
O275 C283 1.284 . S
Zn276 O275 1.899 . S
Zn276 O277 2.032 . S
Zn276 O280 2.086 . S
Zn276 O285 1.977 . S
O277 Zn276 2.032 . S
O277 C281 1.278 . S
C278 O279 1.203 . S
C278 O285 1.267 . S
O279 C278 1.203 . S
O280 C273 1.185 . S
O280 Zn276 2.086 . S
C281 O277 1.278 . S
C281 O282 1.211 . S
O282 C281 1.211 . S
C283 O275 1.284 . S
C283 O284 1.273 . S
O284 C283 1.273 . S
O285 Zn276 1.977 . S
O285 C278 1.267 . S
C286 O287 1.160 . S
C286 O293 1.185 . S
O287 C286 1.160 . S
O288 Zn289 1.899 . S
O288 C296 1.284 . S
Zn289 O288 1.899 . S
Zn289 O290 2.032 . S
Zn289 O293 2.086 . S
Zn289 O298 1.977 . S
O290 Zn289 2.032 . S
O290 C294 1.278 . S
C291 O292 1.203 . S
C291 O298 1.267 . S
O292 C291 1.203 . S
O293 C286 1.185 . S
O293 Zn289 2.086 . S
C294 O290 1.278 . S
C294 O295 1.211 . S
O295 C294 1.211 . S
C296 O288 1.284 . S
C296 O297 1.273 . S
O297 C296 1.273 . S
O298 Zn289 1.977 . S
O298 C291 1.267 . S
C299 O300 1.160 . S
C299 O306 1.185 . S
O300 C299 1.160 . S
O301 Zn302 1.899 . S
O301 C309 1.284 . S
Zn302 O301 1.899 . S
Zn302 O303 2.032 . S
Zn302 O306 2.086 . S
Zn302 O311 1.977 . S
O303 Zn302 2.032 . S
O303 C307 1.278 . S
C304 O305 1.203 . S
C304 O311 1.267 . S
O305 C304 1.203 . S
O306 C299 1.185 . S
O306 Zn302 2.086 . S
C307 O303 1.278 . S
C307 O308 1.211 . S
O308 C307 1.211 . S
C309 O301 1.284 . S
C309 O310 1.273 . S
O310 C309 1.273 . S
O311 Zn302 1.977 . S
O311 C304 1.267 . S
H312 C324 0.930 . S
H313 C326 0.930 . S
H314 C327 0.930 . S
H315 C331 0.959 . S
H316 C331 0.959 . S
H317 C331 0.961 . S
H318 C332 0.960 . S
H319 C332 0.961 . S
H320 C332 0.959 . S
H321 C335 0.929 . S
H322 C336 0.931 . S
H323 C338 0.930 . S
C324 H312 0.930 . S
C324 C325 1.399 . S
C324 C329 1.399 . S
C325 C324 1.399 . S
C325 C326 1.376 . S
C326 H313 0.930 . S
C326 C325 1.376 . S
C326 C327 1.388 . S
C327 H314 0.930 . S
C327 C326 1.388 . S
C327 C328 1.390 . S
C328 C327 1.390 . S
C328 C329 1.394 . S
C328 C334 1.465 . S
C329 C324 1.399 . S
C329 C328 1.394 . S
C329 C330 1.516 . S
C330 C329 1.516 . S
C330 C331 1.502 . S
C330 C332 1.561 . S
C330 C333 1.526 . S
C331 H315 0.959 . S
C331 H316 0.959 . S
C331 H317 0.961 . S
C331 C330 1.502 . S
C332 H318 0.960 . S
C332 H319 0.961 . S
C332 H320 0.959 . S
C332 C330 1.561 . S
C333 C330 1.526 . S
C333 C334 1.396 . S
C333 C338 1.390 . S
C334 C328 1.465 . S
C334 C333 1.396 . S
C334 C335 1.399 . S
C335 H321 0.929 . S
C335 C334 1.399 . S
C335 C336 1.385 . S
C336 H322 0.931 . S
C336 C335 1.385 . S
C336 C337 1.389 . S
C337 C336 1.389 . S
C337 C338 1.387 . S
C338 H323 0.930 . S
C338 C333 1.390 . S
C338 C337 1.387 . S
H339 C351 0.930 . S
H340 C353 0.930 . S
H341 C354 0.930 . S
H342 C358 0.959 . S
H343 C358 0.959 . S
H344 C358 0.961 . S
H345 C359 0.960 . S
H346 C359 0.961 . S
H347 C359 0.959 . S
H348 C362 0.929 . S
H349 C363 0.931 . S
H350 C365 0.930 . S
C351 H339 0.930 . S
C351 C352 1.399 . S
C351 C356 1.399 . S
C352 C351 1.399 . S
C352 C353 1.376 . S
C353 H340 0.930 . S
C353 C352 1.376 . S
C353 C354 1.388 . S
C354 H341 0.930 . S
C354 C353 1.388 . S
C354 C355 1.390 . S
C355 C354 1.390 . S
C355 C356 1.394 . S
C355 C361 1.465 . S
C356 C351 1.399 . S
C356 C355 1.394 . S
C356 C357 1.516 . S
C357 C356 1.516 . S
C357 C358 1.502 . S
C357 C359 1.561 . S
C357 C360 1.526 . S
C358 H342 0.959 . S
C358 H343 0.959 . S
C358 H344 0.961 . S
C358 C357 1.502 . S
C359 H345 0.960 . S
C359 H346 0.961 . S
C359 H347 0.959 . S
C359 C357 1.561 . S
C360 C357 1.526 . S
C360 C361 1.396 . S
C360 C365 1.390 . S
C361 C355 1.465 . S
C361 C360 1.396 . S
C361 C362 1.399 . S
C362 H348 0.929 . S
C362 C361 1.399 . S
C362 C363 1.385 . S
C363 H349 0.931 . S
C363 C362 1.385 . S
C363 C364 1.389 . S
C364 C363 1.389 . S
C364 C365 1.387 . S
C365 H350 0.930 . S
C365 C360 1.390 . S
C365 C364 1.387 . S
H366 C378 0.930 . S
H367 C380 0.930 . S
H368 C381 0.930 . S
H369 C385 0.959 . S
H370 C385 0.959 . S
H371 C385 0.961 . S
H372 C386 0.960 . S
H373 C386 0.961 . S
H374 C386 0.959 . S
H375 C389 0.929 . S
H376 C390 0.931 . S
H377 C392 0.930 . S
C378 H366 0.930 . S
C378 C379 1.399 . S
C378 C383 1.399 . S
C379 C378 1.399 . S
C379 C380 1.376 . S
C380 H367 0.930 . S
C380 C379 1.376 . S
C380 C381 1.388 . S
C381 H368 0.930 . S
C381 C380 1.388 . S
C381 C382 1.390 . S
C382 C381 1.390 . S
C382 C383 1.394 . S
C382 C388 1.465 . S
C383 C378 1.399 . S
C383 C382 1.394 . S
C383 C384 1.516 . S
C384 C383 1.516 . S
C384 C385 1.502 . S
C384 C386 1.561 . S
C384 C387 1.526 . S
C385 H369 0.959 . S
C385 H370 0.959 . S
C385 H371 0.961 . S
C385 C384 1.502 . S
C386 H372 0.960 . S
C386 H373 0.961 . S
C386 H374 0.959 . S
C386 C384 1.561 . S
C387 C384 1.526 . S
C387 C388 1.396 . S
C387 C392 1.390 . S
C388 C382 1.465 . S
C388 C387 1.396 . S
C388 C389 1.399 . S
C389 H375 0.929 . S
C389 C388 1.399 . S
C389 C390 1.385 . S
C390 H376 0.931 . S
C390 C389 1.385 . S
C390 C391 1.389 . S
C391 C390 1.389 . S
C391 C392 1.387 . S
C392 H377 0.930 . S
C392 C387 1.390 . S
C392 C391 1.387 . S
H393 C405 0.930 . S
H394 C407 0.930 . S
H395 C408 0.930 . S
H396 C412 0.959 . S
H397 C412 0.959 . S
H398 C412 0.961 . S
H399 C413 0.960 . S
H400 C413 0.961 . S
H401 C413 0.959 . S
H402 C416 0.929 . S
H403 C417 0.931 . S
H404 C419 0.930 . S
C405 H393 0.930 . S
C405 C406 1.399 . S
C405 C410 1.399 . S
C406 C405 1.399 . S
C406 C407 1.376 . S
C407 H394 0.930 . S
C407 C406 1.376 . S
C407 C408 1.388 . S
C408 H395 0.930 . S
C408 C407 1.388 . S
C408 C409 1.390 . S
C409 C408 1.390 . S
C409 C410 1.394 . S
C409 C415 1.465 . S
C410 C405 1.399 . S
C410 C409 1.394 . S
C410 C411 1.516 . S
C411 C410 1.516 . S
C411 C412 1.502 . S
C411 C413 1.561 . S
C411 C414 1.526 . S
C412 H396 0.959 . S
C412 H397 0.959 . S
C412 H398 0.961 . S
C412 C411 1.502 . S
C413 H399 0.960 . S
C413 H400 0.961 . S
C413 H401 0.959 . S
C413 C411 1.561 . S
C414 C411 1.526 . S
C414 C415 1.396 . S
C414 C419 1.390 . S
C415 C409 1.465 . S
C415 C414 1.396 . S
C415 C416 1.399 . S
C416 H402 0.929 . S
C416 C415 1.399 . S
C416 C417 1.385 . S
C417 H403 0.931 . S
C417 C416 1.385 . S
C417 C418 1.389 . S
C418 C417 1.389 . S
C418 C419 1.387 . S
C419 H404 0.930 . S
C419 C414 1.390 . S
C419 C418 1.387 . S
H420 C432 0.930 . S
H421 C434 0.930 . S
H422 C435 0.930 . S
H423 C439 0.959 . S
H424 C439 0.959 . S
H425 C439 0.961 . S
H426 C440 0.960 . S
H427 C440 0.961 . S
H428 C440 0.959 . S
H429 C443 0.929 . S
H430 C444 0.931 . S
H431 C446 0.930 . S
C432 H420 0.930 . S
C432 C433 1.399 . S
C432 C437 1.399 . S
C433 C432 1.399 . S
C433 C434 1.376 . S
C434 H421 0.930 . S
C434 C433 1.376 . S
C434 C435 1.388 . S
C435 H422 0.930 . S
C435 C434 1.388 . S
C435 C436 1.390 . S
C436 C435 1.390 . S
C436 C437 1.394 . S
C436 C442 1.465 . S
C437 C432 1.399 . S
C437 C436 1.394 . S
C437 C438 1.516 . S
C438 C437 1.516 . S
C438 C439 1.502 . S
C438 C440 1.561 . S
C438 C441 1.526 . S
C439 H423 0.959 . S
C439 H424 0.959 . S
C439 H425 0.961 . S
C439 C438 1.502 . S
C440 H426 0.960 . S
C440 H427 0.961 . S
C440 H428 0.959 . S
C440 C438 1.561 . S
C441 C438 1.526 . S
C441 C442 1.396 . S
C441 C446 1.390 . S
C442 C436 1.465 . S
C442 C441 1.396 . S
C442 C443 1.399 . S
C443 H429 0.929 . S
C443 C442 1.399 . S
C443 C444 1.385 . S
C444 H430 0.931 . S
C444 C443 1.385 . S
C444 C445 1.389 . S
C445 C444 1.389 . S
C445 C446 1.387 . S
C446 H431 0.930 . S
C446 C441 1.390 . S
C446 C445 1.387 . S
H447 C459 0.930 . S
H448 C461 0.930 . S
H449 C462 0.930 . S
H450 C466 0.959 . S
H451 C466 0.959 . S
H452 C466 0.961 . S
H453 C467 0.960 . S
H454 C467 0.961 . S
H455 C467 0.959 . S
H456 C470 0.929 . S
H457 C471 0.931 . S
H458 C473 0.930 . S
C459 H447 0.930 . S
C459 C460 1.399 . S
C459 C464 1.399 . S
C460 C459 1.399 . S
C460 C461 1.376 . S
C461 H448 0.930 . S
C461 C460 1.376 . S
C461 C462 1.388 . S
C462 H449 0.930 . S
C462 C461 1.388 . S
C462 C463 1.390 . S
C463 C462 1.390 . S
C463 C464 1.394 . S
C463 C469 1.465 . S
C464 C459 1.399 . S
C464 C463 1.394 . S
C464 C465 1.516 . S
C465 C464 1.516 . S
C465 C466 1.502 . S
C465 C467 1.561 . S
C465 C468 1.526 . S
C466 H450 0.959 . S
C466 H451 0.959 . S
C466 H452 0.961 . S
C466 C465 1.502 . S
C467 H453 0.960 . S
C467 H454 0.961 . S
C467 H455 0.959 . S
C467 C465 1.561 . S
C468 C465 1.526 . S
C468 C469 1.396 . S
C468 C473 1.390 . S
C469 C463 1.465 . S
C469 C468 1.396 . S
C469 C470 1.399 . S
C470 H456 0.929 . S
C470 C469 1.399 . S
C470 C471 1.385 . S
C471 H457 0.931 . S
C471 C470 1.385 . S
C471 C472 1.389 . S
C472 C471 1.389 . S
C472 C473 1.387 . S
C473 H458 0.930 . S
C473 C468 1.390 . S
C473 C472 1.387 . S
H474 C486 0.930 . S
H475 C488 0.930 . S
H476 C489 0.930 . S
H477 C493 0.959 . S
H478 C493 0.959 . S
H479 C493 0.961 . S
H480 C494 0.960 . S
H481 C494 0.961 . S
H482 C494 0.959 . S
H483 C497 0.929 . S
H484 C498 0.931 . S
H485 C500 0.930 . S
C486 H474 0.930 . S
C486 C487 1.399 . S
C486 C491 1.399 . S
C487 C486 1.399 . S
C487 C488 1.376 . S
C488 H475 0.930 . S
C488 C487 1.376 . S
C488 C489 1.388 . S
C489 H476 0.930 . S
C489 C488 1.388 . S
C489 C490 1.390 . S
C490 C489 1.390 . S
C490 C491 1.394 . S
C490 C496 1.465 . S
C491 C486 1.399 . S
C491 C490 1.394 . S
C491 C492 1.516 . S
C492 C491 1.516 . S
C492 C493 1.502 . S
C492 C494 1.561 . S
C492 C495 1.526 . S
C493 H477 0.959 . S
C493 H478 0.959 . S
C493 H479 0.961 . S
C493 C492 1.502 . S
C494 H480 0.960 . S
C494 H481 0.961 . S
C494 H482 0.959 . S
C494 C492 1.561 . S
C495 C492 1.526 . S
C495 C496 1.396 . S
C495 C500 1.390 . S
C496 C490 1.465 . S
C496 C495 1.396 . S
C496 C497 1.399 . S
C497 H483 0.929 . S
C497 C496 1.399 . S
C497 C498 1.385 . S
C498 H484 0.931 . S
C498 C497 1.385 . S
C498 C499 1.389 . S
C499 C498 1.389 . S
C499 C500 1.387 . S
C500 H485 0.930 . S
C500 C495 1.390 . S
C500 C499 1.387 . S
H501 C513 0.930 . S
H502 C515 0.930 . S
H503 C516 0.930 . S
H504 C520 0.959 . S
H505 C520 0.959 . S
H506 C520 0.961 . S
H507 C521 0.960 . S
H508 C521 0.961 . S
H509 C521 0.959 . S
H510 C524 0.929 . S
H511 C525 0.931 . S
H512 C527 0.930 . S
C513 H501 0.930 . S
C513 C514 1.399 . S
C513 C518 1.399 . S
C514 C513 1.399 . S
C514 C515 1.376 . S
C515 H502 0.930 . S
C515 C514 1.376 . S
C515 C516 1.388 . S
C516 H503 0.930 . S
C516 C515 1.388 . S
C516 C517 1.390 . S
C517 C516 1.390 . S
C517 C518 1.394 . S
C517 C523 1.465 . S
C518 C513 1.399 . S
C518 C517 1.394 . S
C518 C519 1.516 . S
C519 C518 1.516 . S
C519 C520 1.502 . S
C519 C521 1.561 . S
C519 C522 1.526 . S
C520 H504 0.959 . S
C520 H505 0.959 . S
C520 H506 0.961 . S
C520 C519 1.502 . S
C521 H507 0.960 . S
C521 H508 0.961 . S
C521 H509 0.959 . S
C521 C519 1.561 . S
C522 C519 1.526 . S
C522 C523 1.396 . S
C522 C527 1.390 . S
C523 C517 1.465 . S
C523 C522 1.396 . S
C523 C524 1.399 . S
C524 H510 0.929 . S
C524 C523 1.399 . S
C524 C525 1.385 . S
C525 H511 0.931 . S
C525 C524 1.385 . S
C525 C526 1.389 . S
C526 C525 1.389 . S
C526 C527 1.387 . S
C527 H512 0.930 . S
C527 C522 1.390 . S
C527 C526 1.387 . S
H528 C540 0.930 . S
H529 C542 0.930 . S
H530 C543 0.930 . S
H531 C547 0.959 . S
H532 C547 0.959 . S
H533 C547 0.961 . S
H534 C548 0.960 . S
H535 C548 0.961 . S
H536 C548 0.959 . S
H537 C551 0.929 . S
H538 C552 0.931 . S
H539 C554 0.930 . S
C540 H528 0.930 . S
C540 C541 1.399 . S
C540 C545 1.399 . S
C541 C540 1.399 . S
C541 C542 1.376 . S
C542 H529 0.930 . S
C542 C541 1.376 . S
C542 C543 1.388 . S
C543 H530 0.930 . S
C543 C542 1.388 . S
C543 C544 1.390 . S
C544 C543 1.390 . S
C544 C545 1.394 . S
C544 C550 1.465 . S
C545 C540 1.399 . S
C545 C544 1.394 . S
C545 C546 1.516 . S
C546 C545 1.516 . S
C546 C547 1.502 . S
C546 C548 1.561 . S
C546 C549 1.526 . S
C547 H531 0.959 . S
C547 H532 0.959 . S
C547 H533 0.961 . S
C547 C546 1.502 . S
C548 H534 0.960 . S
C548 H535 0.961 . S
C548 H536 0.959 . S
C548 C546 1.561 . S
C549 C546 1.526 . S
C549 C550 1.396 . S
C549 C554 1.390 . S
C550 C544 1.465 . S
C550 C549 1.396 . S
C550 C551 1.399 . S
C551 H537 0.929 . S
C551 C550 1.399 . S
C551 C552 1.385 . S
C552 H538 0.931 . S
C552 C551 1.385 . S
C552 C553 1.389 . S
C553 C552 1.389 . S
C553 C554 1.387 . S
C554 H539 0.930 . S
C554 C549 1.390 . S
C554 C553 1.387 . S
H555 C567 0.930 . S
H556 C569 0.930 . S
H557 C570 0.930 . S
H558 C574 0.959 . S
H559 C574 0.959 . S
H560 C574 0.961 . S
H561 C575 0.960 . S
H562 C575 0.961 . S
H563 C575 0.959 . S
H564 C578 0.929 . S
H565 C579 0.931 . S
H566 C581 0.930 . S
C567 H555 0.930 . S
C567 C568 1.399 . S
C567 C572 1.399 . S
C568 C567 1.399 . S
C568 C569 1.376 . S
C569 H556 0.930 . S
C569 C568 1.376 . S
C569 C570 1.388 . S
C570 H557 0.930 . S
C570 C569 1.388 . S
C570 C571 1.390 . S
C571 C570 1.390 . S
C571 C572 1.394 . S
C571 C577 1.465 . S
C572 C567 1.399 . S
C572 C571 1.394 . S
C572 C573 1.516 . S
C573 C572 1.516 . S
C573 C574 1.502 . S
C573 C575 1.561 . S
C573 C576 1.526 . S
C574 H558 0.959 . S
C574 H559 0.959 . S
C574 H560 0.961 . S
C574 C573 1.502 . S
C575 H561 0.960 . S
C575 H562 0.961 . S
C575 H563 0.959 . S
C575 C573 1.561 . S
C576 C573 1.526 . S
C576 C577 1.396 . S
C576 C581 1.390 . S
C577 C571 1.465 . S
C577 C576 1.396 . S
C577 C578 1.399 . S
C578 H564 0.929 . S
C578 C577 1.399 . S
C578 C579 1.385 . S
C579 H565 0.931 . S
C579 C578 1.385 . S
C579 C580 1.389 . S
C580 C579 1.389 . S
C580 C581 1.387 . S
C581 H566 0.930 . S
C581 C576 1.390 . S
C581 C580 1.387 . S
H582 C594 0.930 . S
H583 C596 0.930 . S
H584 C597 0.930 . S
H585 C601 0.959 . S
H586 C601 0.959 . S
H587 C601 0.961 . S
H588 C602 0.960 . S
H589 C602 0.961 . S
H590 C602 0.959 . S
H591 C605 0.929 . S
H592 C606 0.931 . S
H593 C608 0.930 . S
C594 H582 0.930 . S
C594 C595 1.399 . S
C594 C599 1.399 . S
C595 C594 1.399 . S
C595 C596 1.376 . S
C596 H583 0.930 . S
C596 C595 1.376 . S
C596 C597 1.388 . S
C597 H584 0.930 . S
C597 C596 1.388 . S
C597 C598 1.390 . S
C598 C597 1.390 . S
C598 C599 1.394 . S
C598 C604 1.465 . S
C599 C594 1.399 . S
C599 C598 1.394 . S
C599 C600 1.516 . S
C600 C599 1.516 . S
C600 C601 1.502 . S
C600 C602 1.561 . S
C600 C603 1.526 . S
C601 H585 0.959 . S
C601 H586 0.959 . S
C601 H587 0.961 . S
C601 C600 1.502 . S
C602 H588 0.960 . S
C602 H589 0.961 . S
C602 H590 0.959 . S
C602 C600 1.561 . S
C603 C600 1.526 . S
C603 C604 1.396 . S
C603 C608 1.390 . S
C604 C598 1.465 . S
C604 C603 1.396 . S
C604 C605 1.399 . S
C605 H591 0.929 . S
C605 C604 1.399 . S
C605 C606 1.385 . S
C606 H592 0.931 . S
C606 C605 1.385 . S
C606 C607 1.389 . S
C607 C606 1.389 . S
C607 C608 1.387 . S
C608 H593 0.930 . S
C608 C603 1.390 . S
C608 C607 1.387 . S
H609 C621 0.930 . S
H610 C623 0.930 . S
H611 C624 0.930 . S
H612 C628 0.959 . S
H613 C628 0.959 . S
H614 C628 0.961 . S
H615 C629 0.960 . S
H616 C629 0.961 . S
H617 C629 0.959 . S
H618 C632 0.929 . S
H619 C633 0.931 . S
H620 C635 0.930 . S
C621 H609 0.930 . S
C621 C622 1.399 . S
C621 C626 1.399 . S
C622 C621 1.399 . S
C622 C623 1.376 . S
C623 H610 0.930 . S
C623 C622 1.376 . S
C623 C624 1.388 . S
C624 H611 0.930 . S
C624 C623 1.388 . S
C624 C625 1.390 . S
C625 C624 1.390 . S
C625 C626 1.394 . S
C625 C631 1.465 . S
C626 C621 1.399 . S
C626 C625 1.394 . S
C626 C627 1.516 . S
C627 C626 1.516 . S
C627 C628 1.502 . S
C627 C629 1.561 . S
C627 C630 1.526 . S
C628 H612 0.959 . S
C628 H613 0.959 . S
C628 H614 0.961 . S
C628 C627 1.502 . S
C629 H615 0.960 . S
C629 H616 0.961 . S
C629 H617 0.959 . S
C629 C627 1.561 . S
C630 C627 1.526 . S
C630 C631 1.396 . S
C630 C635 1.390 . S
C631 C625 1.465 . S
C631 C630 1.396 . S
C631 C632 1.399 . S
C632 H618 0.929 . S
C632 C631 1.399 . S
C632 C633 1.385 . S
C633 H619 0.931 . S
C633 C632 1.385 . S
C633 C634 1.389 . S
C634 C633 1.389 . S
C634 C635 1.387 . S
C635 H620 0.930 . S
C635 C630 1.390 . S
C635 C634 1.387 . S
H636 C648 0.930 . S
H637 C650 0.930 . S
H638 C651 0.930 . S
H639 C655 0.959 . S
H640 C655 0.959 . S
H641 C655 0.961 . S
H642 C656 0.960 . S
H643 C656 0.961 . S
H644 C656 0.959 . S
H645 C659 0.929 . S
H646 C660 0.931 . S
H647 C662 0.930 . S
C648 H636 0.930 . S
C648 C649 1.399 . S
C648 C653 1.399 . S
C649 C648 1.399 . S
C649 C650 1.376 . S
C650 H637 0.930 . S
C650 C649 1.376 . S
C650 C651 1.388 . S
C651 H638 0.930 . S
C651 C650 1.388 . S
C651 C652 1.390 . S
C652 C651 1.390 . S
C652 C653 1.394 . S
C652 C658 1.465 . S
C653 C648 1.399 . S
C653 C652 1.394 . S
C653 C654 1.516 . S
C654 C653 1.516 . S
C654 C655 1.502 . S
C654 C656 1.561 . S
C654 C657 1.526 . S
C655 H639 0.959 . S
C655 H640 0.959 . S
C655 H641 0.961 . S
C655 C654 1.502 . S
C656 H642 0.960 . S
C656 H643 0.961 . S
C656 H644 0.959 . S
C656 C654 1.561 . S
C657 C654 1.526 . S
C657 C658 1.396 . S
C657 C662 1.390 . S
C658 C652 1.465 . S
C658 C657 1.396 . S
C658 C659 1.399 . S
C659 H645 0.929 . S
C659 C658 1.399 . S
C659 C660 1.385 . S
C660 H646 0.931 . S
C660 C659 1.385 . S
C660 C661 1.389 . S
C661 C660 1.389 . S
C661 C662 1.387 . S
C662 H647 0.930 . S
C662 C657 1.390 . S
C662 C661 1.387 . S
H663 C675 0.930 . S
H664 C677 0.930 . S
H665 C678 0.930 . S
H666 C682 0.959 . S
H667 C682 0.959 . S
H668 C682 0.961 . S
H669 C683 0.960 . S
H670 C683 0.961 . S
H671 C683 0.959 . S
H672 C686 0.929 . S
H673 C687 0.931 . S
H674 C689 0.930 . S
C675 H663 0.930 . S
C675 C676 1.399 . S
C675 C680 1.399 . S
C676 C675 1.399 . S
C676 C677 1.376 . S
C677 H664 0.930 . S
C677 C676 1.376 . S
C677 C678 1.388 . S
C678 H665 0.930 . S
C678 C677 1.388 . S
C678 C679 1.390 . S
C679 C678 1.390 . S
C679 C680 1.394 . S
C679 C685 1.465 . S
C680 C675 1.399 . S
C680 C679 1.394 . S
C680 C681 1.516 . S
C681 C680 1.516 . S
C681 C682 1.502 . S
C681 C683 1.561 . S
C681 C684 1.526 . S
C682 H666 0.959 . S
C682 H667 0.959 . S
C682 H668 0.961 . S
C682 C681 1.502 . S
C683 H669 0.960 . S
C683 H670 0.961 . S
C683 H671 0.959 . S
C683 C681 1.561 . S
C684 C681 1.526 . S
C684 C685 1.396 . S
C684 C689 1.390 . S
C685 C679 1.465 . S
C685 C684 1.396 . S
C685 C686 1.399 . S
C686 H672 0.929 . S
C686 C685 1.399 . S
C686 C687 1.385 . S
C687 H673 0.931 . S
C687 C686 1.385 . S
C687 C688 1.389 . S
C688 C687 1.389 . S
C688 C689 1.387 . S
C689 H674 0.930 . S
C689 C684 1.390 . S
C689 C688 1.387 . S
H690 C702 0.930 . S
H691 C704 0.930 . S
H692 C705 0.930 . S
H693 C709 0.959 . S
H694 C709 0.959 . S
H695 C709 0.961 . S
H696 C710 0.960 . S
H697 C710 0.961 . S
H698 C710 0.959 . S
H699 C713 0.929 . S
H700 C714 0.931 . S
H701 C716 0.930 . S
C702 H690 0.930 . S
C702 C703 1.399 . S
C702 C707 1.399 . S
C703 C702 1.399 . S
C703 C704 1.376 . S
C704 H691 0.930 . S
C704 C703 1.376 . S
C704 C705 1.388 . S
C705 H692 0.930 . S
C705 C704 1.388 . S
C705 C706 1.390 . S
C706 C705 1.390 . S
C706 C707 1.394 . S
C706 C712 1.465 . S
C707 C702 1.399 . S
C707 C706 1.394 . S
C707 C708 1.516 . S
C708 C707 1.516 . S
C708 C709 1.502 . S
C708 C710 1.561 . S
C708 C711 1.526 . S
C709 H693 0.959 . S
C709 H694 0.959 . S
C709 H695 0.961 . S
C709 C708 1.502 . S
C710 H696 0.960 . S
C710 H697 0.961 . S
C710 H698 0.959 . S
C710 C708 1.561 . S
C711 C708 1.526 . S
C711 C712 1.396 . S
C711 C716 1.390 . S
C712 C706 1.465 . S
C712 C711 1.396 . S
C712 C713 1.399 . S
C713 H699 0.929 . S
C713 C712 1.399 . S
C713 C714 1.385 . S
C714 H700 0.931 . S
C714 C713 1.385 . S
C714 C715 1.389 . S
C715 C714 1.389 . S
C715 C716 1.387 . S
C716 H701 0.930 . S
C716 C711 1.390 . S
C716 C715 1.387 . S
H717 C729 0.930 . S
H718 C731 0.930 . S
H719 C732 0.930 . S
H720 C736 0.959 . S
H721 C736 0.959 . S
H722 C736 0.961 . S
H723 C737 0.960 . S
H724 C737 0.961 . S
H725 C737 0.959 . S
H726 C740 0.929 . S
H727 C741 0.931 . S
H728 C743 0.930 . S
C729 H717 0.930 . S
C729 C730 1.399 . S
C729 C734 1.399 . S
C730 C729 1.399 . S
C730 C731 1.376 . S
C731 H718 0.930 . S
C731 C730 1.376 . S
C731 C732 1.388 . S
C732 H719 0.930 . S
C732 C731 1.388 . S
C732 C733 1.390 . S
C733 C732 1.390 . S
C733 C734 1.394 . S
C733 C739 1.465 . S
C734 C729 1.399 . S
C734 C733 1.394 . S
C734 C735 1.516 . S
C735 C734 1.516 . S
C735 C736 1.502 . S
C735 C737 1.561 . S
C735 C738 1.526 . S
C736 H720 0.959 . S
C736 H721 0.959 . S
C736 H722 0.961 . S
C736 C735 1.502 . S
C737 H723 0.960 . S
C737 H724 0.961 . S
C737 H725 0.959 . S
C737 C735 1.561 . S
C738 C735 1.526 . S
C738 C739 1.396 . S
C738 C743 1.390 . S
C739 C733 1.465 . S
C739 C738 1.396 . S
C739 C740 1.399 . S
C740 H726 0.929 . S
C740 C739 1.399 . S
C740 C741 1.385 . S
C741 H727 0.931 . S
C741 C740 1.385 . S
C741 C742 1.389 . S
C742 C741 1.389 . S
C742 C743 1.387 . S
C743 H728 0.930 . S
C743 C738 1.390 . S
C743 C742 1.387 . S
H744 C756 0.930 . S
H745 C758 0.930 . S
H746 C759 0.930 . S
H747 C763 0.959 . S
H748 C763 0.959 . S
H749 C763 0.961 . S
H750 C764 0.960 . S
H751 C764 0.961 . S
H752 C764 0.959 . S
H753 C767 0.929 . S
H754 C768 0.931 . S
H755 C770 0.930 . S
C756 H744 0.930 . S
C756 C757 1.399 . S
C756 C761 1.399 . S
C757 C756 1.399 . S
C757 C758 1.376 . S
C758 H745 0.930 . S
C758 C757 1.376 . S
C758 C759 1.388 . S
C759 H746 0.930 . S
C759 C758 1.388 . S
C759 C760 1.390 . S
C760 C759 1.390 . S
C760 C761 1.394 . S
C760 C766 1.465 . S
C761 C756 1.399 . S
C761 C760 1.394 . S
C761 C762 1.516 . S
C762 C761 1.516 . S
C762 C763 1.502 . S
C762 C764 1.561 . S
C762 C765 1.526 . S
C763 H747 0.959 . S
C763 H748 0.959 . S
C763 H749 0.961 . S
C763 C762 1.502 . S
C764 H750 0.960 . S
C764 H751 0.961 . S
C764 H752 0.959 . S
C764 C762 1.561 . S
C765 C762 1.526 . S
C765 C766 1.396 . S
C765 C770 1.390 . S
C766 C760 1.465 . S
C766 C765 1.396 . S
C766 C767 1.399 . S
C767 H753 0.929 . S
C767 C766 1.399 . S
C767 C768 1.385 . S
C768 H754 0.931 . S
C768 C767 1.385 . S
C768 C769 1.389 . S
C769 C768 1.389 . S
C769 C770 1.387 . S
C770 H755 0.930 . S
C770 C765 1.390 . S
C770 C769 1.387 . S
H771 C783 0.930 . S
H772 C785 0.930 . S
H773 C786 0.930 . S
H774 C790 0.959 . S
H775 C790 0.959 . S
H776 C790 0.961 . S
H777 C791 0.960 . S
H778 C791 0.961 . S
H779 C791 0.959 . S
H780 C794 0.929 . S
H781 C795 0.931 . S
H782 C797 0.930 . S
C783 H771 0.930 . S
C783 C784 1.399 . S
C783 C788 1.399 . S
C784 C783 1.399 . S
C784 C785 1.376 . S
C785 H772 0.930 . S
C785 C784 1.376 . S
C785 C786 1.388 . S
C786 H773 0.930 . S
C786 C785 1.388 . S
C786 C787 1.390 . S
C787 C786 1.390 . S
C787 C788 1.394 . S
C787 C793 1.465 . S
C788 C783 1.399 . S
C788 C787 1.394 . S
C788 C789 1.516 . S
C789 C788 1.516 . S
C789 C790 1.502 . S
C789 C791 1.561 . S
C789 C792 1.526 . S
C790 H774 0.959 . S
C790 H775 0.959 . S
C790 H776 0.961 . S
C790 C789 1.502 . S
C791 H777 0.960 . S
C791 H778 0.961 . S
C791 H779 0.959 . S
C791 C789 1.561 . S
C792 C789 1.526 . S
C792 C793 1.396 . S
C792 C797 1.390 . S
C793 C787 1.465 . S
C793 C792 1.396 . S
C793 C794 1.399 . S
C794 H780 0.929 . S
C794 C793 1.399 . S
C794 C795 1.385 . S
C795 H781 0.931 . S
C795 C794 1.385 . S
C795 C796 1.389 . S
C796 C795 1.389 . S
C796 C797 1.387 . S
C797 H782 0.930 . S
C797 C792 1.390 . S
C797 C796 1.387 . S
H798 C810 0.930 . S
H799 C812 0.930 . S
H800 C813 0.930 . S
H801 C817 0.959 . S
H802 C817 0.959 . S
H803 C817 0.961 . S
H804 C818 0.960 . S
H805 C818 0.961 . S
H806 C818 0.959 . S
H807 C821 0.929 . S
H808 C822 0.931 . S
H809 C824 0.930 . S
C810 H798 0.930 . S
C810 C811 1.399 . S
C810 C815 1.399 . S
C811 C810 1.399 . S
C811 C812 1.376 . S
C812 H799 0.930 . S
C812 C811 1.376 . S
C812 C813 1.388 . S
C813 H800 0.930 . S
C813 C812 1.388 . S
C813 C814 1.390 . S
C814 C813 1.390 . S
C814 C815 1.394 . S
C814 C820 1.465 . S
C815 C810 1.399 . S
C815 C814 1.394 . S
C815 C816 1.516 . S
C816 C815 1.516 . S
C816 C817 1.502 . S
C816 C818 1.561 . S
C816 C819 1.526 . S
C817 H801 0.959 . S
C817 H802 0.959 . S
C817 H803 0.961 . S
C817 C816 1.502 . S
C818 H804 0.960 . S
C818 H805 0.961 . S
C818 H806 0.959 . S
C818 C816 1.561 . S
C819 C816 1.526 . S
C819 C820 1.396 . S
C819 C824 1.390 . S
C820 C814 1.465 . S
C820 C819 1.396 . S
C820 C821 1.399 . S
C821 H807 0.929 . S
C821 C820 1.399 . S
C821 C822 1.385 . S
C822 H808 0.931 . S
C822 C821 1.385 . S
C822 C823 1.389 . S
C823 C822 1.389 . S
C823 C824 1.387 . S
C824 H809 0.930 . S
C824 C819 1.390 . S
C824 C823 1.387 . S
H825 C837 0.930 . S
H826 C839 0.930 . S
H827 C840 0.930 . S
H828 C844 0.959 . S
H829 C844 0.959 . S
H830 C844 0.961 . S
H831 C845 0.960 . S
H832 C845 0.961 . S
H833 C845 0.959 . S
H834 C848 0.929 . S
H835 C849 0.931 . S
H836 C851 0.930 . S
C837 H825 0.930 . S
C837 C838 1.399 . S
C837 C842 1.399 . S
C838 C837 1.399 . S
C838 C839 1.376 . S
C839 H826 0.930 . S
C839 C838 1.376 . S
C839 C840 1.388 . S
C840 H827 0.930 . S
C840 C839 1.388 . S
C840 C841 1.390 . S
C841 C840 1.390 . S
C841 C842 1.394 . S
C841 C847 1.465 . S
C842 C837 1.399 . S
C842 C841 1.394 . S
C842 C843 1.516 . S
C843 C842 1.516 . S
C843 C844 1.502 . S
C843 C845 1.561 . S
C843 C846 1.526 . S
C844 H828 0.959 . S
C844 H829 0.959 . S
C844 H830 0.961 . S
C844 C843 1.502 . S
C845 H831 0.960 . S
C845 H832 0.961 . S
C845 H833 0.959 . S
C845 C843 1.561 . S
C846 C843 1.526 . S
C846 C847 1.396 . S
C846 C851 1.390 . S
C847 C841 1.465 . S
C847 C846 1.396 . S
C847 C848 1.399 . S
C848 H834 0.929 . S
C848 C847 1.399 . S
C848 C849 1.385 . S
C849 H835 0.931 . S
C849 C848 1.385 . S
C849 C850 1.389 . S
C850 C849 1.389 . S
C850 C851 1.387 . S
C851 H836 0.930 . S
C851 C846 1.390 . S
C851 C850 1.387 . S
H852 C864 0.930 . S
H853 C866 0.930 . S
H854 C867 0.930 . S
H855 C871 0.959 . S
H856 C871 0.959 . S
H857 C871 0.961 . S
H858 C872 0.960 . S
H859 C872 0.961 . S
H860 C872 0.959 . S
H861 C875 0.929 . S
H862 C876 0.931 . S
H863 C878 0.930 . S
C864 H852 0.930 . S
C864 C865 1.399 . S
C864 C869 1.399 . S
C865 C864 1.399 . S
C865 C866 1.376 . S
C866 H853 0.930 . S
C866 C865 1.376 . S
C866 C867 1.388 . S
C867 H854 0.930 . S
C867 C866 1.388 . S
C867 C868 1.390 . S
C868 C867 1.390 . S
C868 C869 1.394 . S
C868 C874 1.465 . S
C869 C864 1.399 . S
C869 C868 1.394 . S
C869 C870 1.516 . S
C870 C869 1.516 . S
C870 C871 1.502 . S
C870 C872 1.561 . S
C870 C873 1.526 . S
C871 H855 0.959 . S
C871 H856 0.959 . S
C871 H857 0.961 . S
C871 C870 1.502 . S
C872 H858 0.960 . S
C872 H859 0.961 . S
C872 H860 0.959 . S
C872 C870 1.561 . S
C873 C870 1.526 . S
C873 C874 1.396 . S
C873 C878 1.390 . S
C874 C868 1.465 . S
C874 C873 1.396 . S
C874 C875 1.399 . S
C875 H861 0.929 . S
C875 C874 1.399 . S
C875 C876 1.385 . S
C876 H862 0.931 . S
C876 C875 1.385 . S
C876 C877 1.389 . S
C877 C876 1.389 . S
C877 C878 1.387 . S
C878 H863 0.930 . S
C878 C873 1.390 . S
C878 C877 1.387 . S
H879 C891 0.930 . S
H880 C893 0.930 . S
H881 C894 0.930 . S
H882 C898 0.959 . S
H883 C898 0.959 . S
H884 C898 0.961 . S
H885 C899 0.960 . S
H886 C899 0.961 . S
H887 C899 0.959 . S
H888 C902 0.929 . S
H889 C903 0.931 . S
H890 C905 0.930 . S
C891 H879 0.930 . S
C891 C892 1.399 . S
C891 C896 1.399 . S
C892 C891 1.399 . S
C892 C893 1.376 . S
C893 H880 0.930 . S
C893 C892 1.376 . S
C893 C894 1.388 . S
C894 H881 0.930 . S
C894 C893 1.388 . S
C894 C895 1.390 . S
C895 C894 1.390 . S
C895 C896 1.394 . S
C895 C901 1.465 . S
C896 C891 1.399 . S
C896 C895 1.394 . S
C896 C897 1.516 . S
C897 C896 1.516 . S
C897 C898 1.502 . S
C897 C899 1.561 . S
C897 C900 1.526 . S
C898 H882 0.959 . S
C898 H883 0.959 . S
C898 H884 0.961 . S
C898 C897 1.502 . S
C899 H885 0.960 . S
C899 H886 0.961 . S
C899 H887 0.959 . S
C899 C897 1.561 . S
C900 C897 1.526 . S
C900 C901 1.396 . S
C900 C905 1.390 . S
C901 C895 1.465 . S
C901 C900 1.396 . S
C901 C902 1.399 . S
C902 H888 0.929 . S
C902 C901 1.399 . S
C902 C903 1.385 . S
C903 H889 0.931 . S
C903 C902 1.385 . S
C903 C904 1.389 . S
C904 C903 1.389 . S
C904 C905 1.387 . S
C905 H890 0.930 . S
C905 C900 1.390 . S
C905 C904 1.387 . S
H906 C918 0.930 . S
H907 C920 0.930 . S
H908 C921 0.930 . S
H909 C925 0.959 . S
H910 C925 0.959 . S
H911 C925 0.961 . S
H912 C926 0.960 . S
H913 C926 0.961 . S
H914 C926 0.959 . S
H915 C929 0.929 . S
H916 C930 0.931 . S
H917 C932 0.930 . S
C918 H906 0.930 . S
C918 C919 1.399 . S
C918 C923 1.399 . S
C919 C918 1.399 . S
C919 C920 1.376 . S
C920 H907 0.930 . S
C920 C919 1.376 . S
C920 C921 1.388 . S
C921 H908 0.930 . S
C921 C920 1.388 . S
C921 C922 1.390 . S
C922 C921 1.390 . S
C922 C923 1.394 . S
C922 C928 1.465 . S
C923 C918 1.399 . S
C923 C922 1.394 . S
C923 C924 1.516 . S
C924 C923 1.516 . S
C924 C925 1.502 . S
C924 C926 1.561 . S
C924 C927 1.526 . S
C925 H909 0.959 . S
C925 H910 0.959 . S
C925 H911 0.961 . S
C925 C924 1.502 . S
C926 H912 0.960 . S
C926 H913 0.961 . S
C926 H914 0.959 . S
C926 C924 1.561 . S
C927 C924 1.526 . S
C927 C928 1.396 . S
C927 C932 1.390 . S
C928 C922 1.465 . S
C928 C927 1.396 . S
C928 C929 1.399 . S
C929 H915 0.929 . S
C929 C928 1.399 . S
C929 C930 1.385 . S
C930 H916 0.931 . S
C930 C929 1.385 . S
C930 C931 1.389 . S
C931 C930 1.389 . S
C931 C932 1.387 . S
C932 H917 0.930 . S
C932 C927 1.390 . S
C932 C931 1.387 . S
H933 C945 0.930 . S
H934 C947 0.930 . S
H935 C948 0.930 . S
H936 C952 0.959 . S
H937 C952 0.959 . S
H938 C952 0.961 . S
H939 C953 0.960 . S
H940 C953 0.961 . S
H941 C953 0.959 . S
H942 C956 0.929 . S
H943 C957 0.931 . S
H944 C959 0.930 . S
C945 H933 0.930 . S
C945 C946 1.399 . S
C945 C950 1.399 . S
C946 C945 1.399 . S
C946 C947 1.376 . S
C947 H934 0.930 . S
C947 C946 1.376 . S
C947 C948 1.388 . S
C948 H935 0.930 . S
C948 C947 1.388 . S
C948 C949 1.390 . S
C949 C948 1.390 . S
C949 C950 1.394 . S
C949 C955 1.465 . S
C950 C945 1.399 . S
C950 C949 1.394 . S
C950 C951 1.516 . S
C951 C950 1.516 . S
C951 C952 1.502 . S
C951 C953 1.561 . S
C951 C954 1.526 . S
C952 H936 0.959 . S
C952 H937 0.959 . S
C952 H938 0.961 . S
C952 C951 1.502 . S
C953 H939 0.960 . S
C953 H940 0.961 . S
C953 H941 0.959 . S
C953 C951 1.561 . S
C954 C951 1.526 . S
C954 C955 1.396 . S
C954 C959 1.390 . S
C955 C949 1.465 . S
C955 C954 1.396 . S
C955 C956 1.399 . S
C956 H942 0.929 . S
C956 C955 1.399 . S
C956 C957 1.385 . S
C957 H943 0.931 . S
C957 C956 1.385 . S
C957 C958 1.389 . S
C958 C957 1.389 . S
C958 C959 1.387 . S
C959 H944 0.930 . S
C959 C954 1.390 . S
C959 C958 1.387 . S
H960 C972 0.930 . S
H961 C974 0.930 . S
H962 C975 0.930 . S
H963 C979 0.959 . S
H964 C979 0.930 1_655 S
H965 C979 0.994 . S
H966 C980 0.960 1_455 S
H967 C980 0.961 . S
H968 C980 0.959 . S
H969 C983 0.929 . S
H970 C984 0.931 . S
H971 C986 0.930 . S
C972 H960 0.930 . S
C972 C973 1.399 . S
C972 C977 1.399 . S
C973 C972 1.399 . S
C973 C974 1.376 . S
C974 H961 0.930 . S
C974 C973 1.376 . S
C974 C975 1.388 . S
C975 H962 0.930 . S
C975 C974 1.388 . S
C975 C976 1.390 . S
C976 C975 1.390 . S
C976 C977 1.394 . S
C976 C982 1.465 1_455 S
C977 C972 1.399 . S
C977 C976 1.394 . S
C977 C978 1.512 . S
C978 C977 1.512 . S
C978 C979 1.501 . S
C978 C980 1.561 1_455 S
C978 C981 1.530 1_455 S
C979 H963 0.959 . S
C979 H964 0.930 1_455 S
C979 H965 0.994 . S
C979 C978 1.501 . S
C980 H966 0.960 1_655 S
C980 H967 0.961 . S
C980 H968 0.959 . S
C980 C978 1.561 1_655 S
C981 C978 1.530 1_655 S
C981 C982 1.396 . S
C981 C986 1.390 . S
C982 C976 1.465 1_655 S
C982 C981 1.396 . S
C982 C983 1.399 . S
C983 H969 0.929 . S
C983 C982 1.399 . S
C983 C984 1.385 . S
C984 H970 0.931 . S
C984 C983 1.385 . S
C984 C985 1.389 . S
C985 C984 1.389 . S
C985 C986 1.387 . S
C986 H971 0.930 . S
C986 C981 1.390 . S
C986 C985 1.387 . S
H987 C999 0.930 . S
H988 C1001 0.930 . S
H989 C1002 0.930 . S
H990 C1006 0.959 . S
H991 C1006 0.959 . S
H992 C1006 0.961 1_545 S
H993 C1007 0.960 1_545 S
H994 C1007 0.961 . S
H995 C1007 0.959 . S
H996 C1010 0.929 . S
H997 C1011 0.931 . S
H998 C1013 0.930 . S
C999 H987 0.930 . S
C999 C1000 1.399 . S
C999 C1004 1.399 . S
C1000 C999 1.399 . S
C1000 C1001 1.376 . S
C1001 H988 0.930 . S
C1001 C1000 1.376 . S
C1001 C1002 1.388 . S
C1002 H989 0.930 . S
C1002 C1001 1.388 . S
C1002 C1003 1.390 . S
C1003 C1002 1.390 . S
C1003 C1004 1.394 . S
C1003 C1009 1.465 1_545 S
C1004 C999 1.399 . S
C1004 C1003 1.394 . S
C1004 C1005 1.516 1_545 S
C1005 C1004 1.516 1_565 S
C1005 C1006 1.502 . S
C1005 C1007 1.561 . S
C1005 C1008 1.526 . S
C1006 H990 0.959 . S
C1006 H991 0.959 . S
C1006 H992 0.961 1_565 S
C1006 C1005 1.502 . S
C1007 H993 0.960 1_565 S
C1007 H994 0.961 . S
C1007 H995 0.959 . S
C1007 C1005 1.561 . S
C1008 C1005 1.526 . S
C1008 C1009 1.396 . S
C1008 C1013 1.390 . S
C1009 C1003 1.465 1_565 S
C1009 C1008 1.396 . S
C1009 C1010 1.399 . S
C1010 H996 0.929 . S
C1010 C1009 1.399 . S
C1010 C1011 1.385 . S
C1011 H997 0.931 . S
C1011 C1010 1.385 . S
C1011 C1012 1.389 . S
C1012 C1011 1.389 . S
C1012 C1013 1.387 . S
C1013 H998 0.930 . S
C1013 C1008 1.390 . S
C1013 C1012 1.387 . S
H1014 C1026 0.930 . S
H1015 C1028 0.930 . S
H1016 C1029 0.930 . S
H1017 C1033 0.959 . S
H1018 C1033 0.933 1_455 S
H1019 C1033 0.990 . S
H1020 C1034 0.960 1_655 S
H1021 C1034 0.961 . S
H1022 C1034 0.959 . S
H1023 C1037 0.929 . S
H1024 C1038 0.931 . S
H1025 C1040 0.930 . S
C1026 H1014 0.930 . S
C1026 C1027 1.399 . S
C1026 C1031 1.399 . S
C1027 C1026 1.399 . S
C1027 C1028 1.376 . S
C1028 H1015 0.930 . S
C1028 C1027 1.376 . S
C1028 C1029 1.388 . S
C1029 H1016 0.930 . S
C1029 C1028 1.388 . S
C1029 C1030 1.390 . S
C1030 C1029 1.390 . S
C1030 C1031 1.394 . S
C1030 C1036 1.465 1_655 S
C1031 C1026 1.399 . S
C1031 C1030 1.394 . S
C1031 C1032 1.519 1_655 S
C1032 C1031 1.519 1_455 S
C1032 C1033 1.501 1_455 S
C1032 C1034 1.561 . S
C1032 C1035 1.523 . S
C1033 H1017 0.959 . S
C1033 H1018 0.933 1_655 S
C1033 H1019 0.990 . S
C1033 C1032 1.501 1_655 S
C1034 H1020 0.960 1_455 S
C1034 H1021 0.961 . S
C1034 H1022 0.959 . S
C1034 C1032 1.561 . S
C1035 C1032 1.523 . S
C1035 C1036 1.396 . S
C1035 C1040 1.390 . S
C1036 C1030 1.465 1_455 S
C1036 C1035 1.396 . S
C1036 C1037 1.399 . S
C1037 H1023 0.929 . S
C1037 C1036 1.399 . S
C1037 C1038 1.385 . S
C1038 H1024 0.931 . S
C1038 C1037 1.385 . S
C1038 C1039 1.389 . S
C1039 C1038 1.389 . S
C1039 C1040 1.387 . S
C1040 H1025 0.930 . S
C1040 C1035 1.390 . S
C1040 C1039 1.387 . S
H1041 C1053 0.930 . S
H1042 C1055 0.930 . S
H1043 C1056 0.930 . S
H1044 C1060 0.957 1_565 S
H1045 C1060 0.959 1_565 S
H1046 C1060 0.961 . S
H1047 C1061 0.960 . S
H1048 C1061 0.961 1_565 S
H1049 C1061 0.964 . S
H1050 C1064 0.929 . S
H1051 C1065 0.931 . S
H1052 C1067 0.930 . S
C1053 H1041 0.930 . S
C1053 C1054 1.399 . S
C1053 C1058 1.399 . S
C1054 C1053 1.399 . S
C1054 C1055 1.376 . S
C1055 H1042 0.930 . S
C1055 C1054 1.376 . S
C1055 C1056 1.388 . S
C1056 H1043 0.930 . S
C1056 C1055 1.388 . S
C1056 C1057 1.390 . S
C1057 C1056 1.390 . S
C1057 C1058 1.394 . S
C1057 C1063 1.465 1_545 S
C1058 C1053 1.399 . S
C1058 C1057 1.394 . S
C1058 C1059 1.516 . S
C1059 C1058 1.516 . S
C1059 C1060 1.502 . S
C1059 C1061 1.561 . S
C1059 C1062 1.526 1_545 S
C1060 H1044 0.957 1_545 S
C1060 H1045 0.959 1_545 S
C1060 H1046 0.961 . S
C1060 C1059 1.502 . S
C1061 H1047 0.960 . S
C1061 H1048 0.961 1_545 S
C1061 H1049 0.964 . S
C1061 C1059 1.561 . S
C1062 C1059 1.526 1_565 S
C1062 C1063 1.396 . S
C1062 C1067 1.390 . S
C1063 C1057 1.465 1_565 S
C1063 C1062 1.396 . S
C1063 C1064 1.399 . S
C1064 H1050 0.929 . S
C1064 C1063 1.399 . S
C1064 C1065 1.385 . S
C1065 H1051 0.931 . S
C1065 C1064 1.385 . S
C1065 C1066 1.389 . S
C1066 C1065 1.389 . S
C1066 C1067 1.387 . S
C1067 H1052 0.930 . S
C1067 C1062 1.390 . S
C1067 C1066 1.387 . S
H1068 C1080 0.930 . S
H1069 C1082 0.930 . S
H1070 C1083 0.930 . S
H1071 C1087 0.961 . S
H1072 C1087 0.959 1_545 S
H1073 C1087 0.961 . S
H1074 C1088 0.926 1_565 S
H1075 C1088 0.992 . S
H1076 C1088 0.965 . S
H1077 C1091 0.929 . S
H1078 C1092 0.931 . S
H1079 C1094 0.930 . S
C1080 H1068 0.930 . S
C1080 C1081 1.399 . S
C1080 C1085 1.399 . S
C1081 C1080 1.399 . S
C1081 C1082 1.376 . S
C1082 H1069 0.930 . S
C1082 C1081 1.376 . S
C1082 C1083 1.388 . S
C1083 H1070 0.930 . S
C1083 C1082 1.388 . S
C1083 C1084 1.390 . S
C1084 C1083 1.390 . S
C1084 C1085 1.394 . S
C1084 C1090 1.465 1_565 S
C1085 C1080 1.399 . S
C1085 C1084 1.394 . S
C1085 C1086 1.525 . S
C1086 C1085 1.525 . S
C1086 C1087 1.502 . S
C1086 C1088 1.560 1_565 S
C1086 C1089 1.517 1_565 S
C1087 H1071 0.961 . S
C1087 H1072 0.959 1_565 S
C1087 H1073 0.961 . S
C1087 C1086 1.502 . S
C1088 H1074 0.926 1_545 S
C1088 H1075 0.992 . S
C1088 H1076 0.965 . S
C1088 C1086 1.560 1_545 S
C1089 C1086 1.517 1_545 S
C1089 C1090 1.396 . S
C1089 C1094 1.390 . S
C1090 C1084 1.465 1_545 S
C1090 C1089 1.396 . S
C1090 C1091 1.399 . S
C1091 H1077 0.929 . S
C1091 C1090 1.399 . S
C1091 C1092 1.385 . S
C1092 H1078 0.931 . S
C1092 C1091 1.385 . S
C1092 C1093 1.389 . S
C1093 C1092 1.389 . S
C1093 C1094 1.387 . S
C1094 H1079 0.930 . S
C1094 C1089 1.390 . S
C1094 C1093 1.387 . S
H1095 C1107 0.930 . S
H1096 C1109 0.930 . S
H1097 C1110 0.930 . S
H1098 C1114 0.960 . S
H1099 C1114 0.959 1_455 S
H1100 C1114 0.961 . S
H1101 C1115 0.921 1_655 S
H1102 C1115 0.997 . S
H1103 C1115 0.966 . S
H1104 C1118 0.929 . S
H1105 C1119 0.931 . S
H1106 C1121 0.930 . S
C1107 H1095 0.930 . S
C1107 C1108 1.399 . S
C1107 C1112 1.399 . S
C1108 C1107 1.399 . S
C1108 C1109 1.376 . S
C1109 H1096 0.930 . S
C1109 C1108 1.376 . S
C1109 C1110 1.388 . S
C1110 H1097 0.930 . S
C1110 C1109 1.388 . S
C1110 C1111 1.390 . S
C1111 C1110 1.390 . S
C1111 C1112 1.394 . S
C1111 C1117 1.465 1_655 S
C1112 C1107 1.399 . S
C1112 C1111 1.394 . S
C1112 C1113 1.522 . S
C1113 C1112 1.522 . S
C1113 C1114 1.502 . S
C1113 C1115 1.560 1_655 S
C1113 C1116 1.520 1_655 S
C1114 H1098 0.960 . S
C1114 H1099 0.959 1_655 S
C1114 H1100 0.961 . S
C1114 C1113 1.502 . S
C1115 H1101 0.921 1_455 S
C1115 H1102 0.997 . S
C1115 H1103 0.966 . S
C1115 C1113 1.560 1_455 S
C1116 C1113 1.520 1_455 S
C1116 C1117 1.396 . S
C1116 C1121 1.390 . S
C1117 C1111 1.465 1_455 S
C1117 C1116 1.396 . S
C1117 C1118 1.399 . S
C1118 H1104 0.929 . S
C1118 C1117 1.399 . S
C1118 C1119 1.385 . S
C1119 H1105 0.931 . S
C1119 C1118 1.385 . S
C1119 C1120 1.389 . S
C1120 C1119 1.389 . S
C1120 C1121 1.387 . S
C1121 H1106 0.930 . S
C1121 C1116 1.390 . S
C1121 C1120 1.387 . S
H1122 C1134 0.930 . S
H1123 C1136 0.930 . S
H1124 C1137 0.930 . S
H1125 C1141 0.959 . S
H1126 C1141 0.959 . S
H1127 C1141 0.961 1_565 S
H1128 C1142 0.976 . S
H1129 C1142 0.946 1_545 S
H1130 C1142 0.958 1_545 S
H1131 C1145 0.929 . S
H1132 C1146 0.931 . S
H1133 C1148 0.930 . S
C1134 H1122 0.930 . S
C1134 C1135 1.399 . S
C1134 C1139 1.399 . S
C1135 C1134 1.399 . S
C1135 C1136 1.376 . S
C1136 H1123 0.930 . S
C1136 C1135 1.376 . S
C1136 C1137 1.388 . S
C1137 H1124 0.930 . S
C1137 C1136 1.388 . S
C1137 C1138 1.390 . S
C1138 C1137 1.390 . S
C1138 C1139 1.394 . S
C1138 C1144 1.465 1_565 S
C1139 C1134 1.399 . S
C1139 C1138 1.394 . S
C1139 C1140 1.498 1_565 S
C1140 C1139 1.498 1_545 S
C1140 C1141 1.504 . S
C1140 C1142 1.560 1_545 S
C1140 C1143 1.543 . S
C1141 H1125 0.959 . S
C1141 H1126 0.959 . S
C1141 H1127 0.961 1_545 S
C1141 C1140 1.504 . S
C1142 H1128 0.976 . S
C1142 H1129 0.946 1_565 S
C1142 H1130 0.958 1_565 S
C1142 C1140 1.560 1_565 S
C1143 C1140 1.543 . S
C1143 C1144 1.396 . S
C1143 C1148 1.390 . S
C1144 C1138 1.465 1_545 S
C1144 C1143 1.396 . S
C1144 C1145 1.399 . S
C1145 H1131 0.929 . S
C1145 C1144 1.399 . S
C1145 C1146 1.385 . S
C1146 H1132 0.931 . S
C1146 C1145 1.385 . S
C1146 C1147 1.389 . S
C1147 C1146 1.389 . S
C1147 C1148 1.387 . S
C1148 H1133 0.930 . S
C1148 C1143 1.390 . S
C1148 C1147 1.387 . S
H1149 C1161 0.930 . S
H1150 C1163 0.930 . S
H1151 C1164 0.930 . S
H1152 C1168 0.956 1_455 S
H1153 C1168 0.940 1_455 S
H1154 C1168 0.983 . S
H1155 C1169 0.960 . S
H1156 C1169 0.961 1_455 S
H1157 C1169 0.959 . S
H1158 C1172 0.929 . S
H1159 C1173 0.931 . S
H1160 C1175 0.930 . S
C1161 H1149 0.930 . S
C1161 C1162 1.399 . S
C1161 C1166 1.399 . S
C1162 C1161 1.399 . S
C1162 C1163 1.376 . S
C1163 H1150 0.930 . S
C1163 C1162 1.376 . S
C1163 C1164 1.388 . S
C1164 H1151 0.930 . S
C1164 C1163 1.388 . S
C1164 C1165 1.390 . S
C1165 C1164 1.390 . S
C1165 C1166 1.394 . S
C1165 C1171 1.465 1_655 S
C1166 C1161 1.399 . S
C1166 C1165 1.394 . S
C1166 C1167 1.516 . S
C1167 C1166 1.516 . S
C1167 C1168 1.503 . S
C1167 C1169 1.561 . S
C1167 C1170 1.526 1_655 S
C1168 H1152 0.956 1_655 S
C1168 H1153 0.940 1_655 S
C1168 H1154 0.983 . S
C1168 C1167 1.503 . S
C1169 H1155 0.960 . S
C1169 H1156 0.961 1_655 S
C1169 H1157 0.959 . S
C1169 C1167 1.561 . S
C1170 C1167 1.526 1_455 S
C1170 C1171 1.396 . S
C1170 C1175 1.390 . S
C1171 C1165 1.465 1_455 S
C1171 C1170 1.396 . S
C1171 C1172 1.399 . S
C1172 H1158 0.929 . S
C1172 C1171 1.399 . S
C1172 C1173 1.385 . S
C1173 H1159 0.931 . S
C1173 C1172 1.385 . S
C1173 C1174 1.389 . S
C1174 C1173 1.389 . S
C1174 C1175 1.387 . S
C1175 H1160 0.930 . S
C1175 C1170 1.390 . S
C1175 C1174 1.387 . S
H1176 C1188 0.930 . S
H1177 C1190 0.930 . S
H1178 C1191 0.930 . S
H1179 C1195 0.959 . S
H1180 C1195 0.959 . S
H1181 C1195 0.961 1_556 S
H1182 C1196 0.960 1_556 S
H1183 C1196 0.961 . S
H1184 C1196 0.959 . S
H1185 C1199 0.929 . S
H1186 C1200 0.931 . S
H1187 C1202 0.930 . S
C1188 H1176 0.930 . S
C1188 C1189 1.399 . S
C1188 C1193 1.399 . S
C1189 C1188 1.399 . S
C1189 C1190 1.376 . S
C1190 H1177 0.930 . S
C1190 C1189 1.376 . S
C1190 C1191 1.388 . S
C1191 H1178 0.930 . S
C1191 C1190 1.388 . S
C1191 C1192 1.390 . S
C1192 C1191 1.390 . S
C1192 C1193 1.394 . S
C1192 C1198 1.465 1_556 S
C1193 C1188 1.399 . S
C1193 C1192 1.394 . S
C1193 C1194 1.516 1_556 S
C1194 C1193 1.516 1_554 S
C1194 C1195 1.502 . S
C1194 C1196 1.561 . S
C1194 C1197 1.526 . S
C1195 H1179 0.959 . S
C1195 H1180 0.959 . S
C1195 H1181 0.961 1_554 S
C1195 C1194 1.502 . S
C1196 H1182 0.960 1_554 S
C1196 H1183 0.961 . S
C1196 H1184 0.959 . S
C1196 C1194 1.561 . S
C1197 C1194 1.526 . S
C1197 C1198 1.396 . S
C1197 C1202 1.390 . S
C1198 C1192 1.465 1_554 S
C1198 C1197 1.396 . S
C1198 C1199 1.399 . S
C1199 H1185 0.929 . S
C1199 C1198 1.399 . S
C1199 C1200 1.385 . S
C1200 H1186 0.931 . S
C1200 C1199 1.385 . S
C1200 C1201 1.389 . S
C1201 C1200 1.389 . S
C1201 C1202 1.387 . S
C1202 H1187 0.930 . S
C1202 C1197 1.390 . S
C1202 C1201 1.387 . S
H1203 C1215 0.930 . S
H1204 C1217 0.930 . S
H1205 C1218 0.930 . S
H1206 C1222 0.959 . S
H1207 C1222 0.959 . S
H1208 C1222 0.961 1_556 S
H1209 C1223 0.971 . S
H1210 C1223 0.951 1_554 S
H1211 C1223 0.958 1_554 S
H1212 C1226 0.929 . S
H1213 C1227 0.931 . S
H1214 C1229 0.930 . S
C1215 H1203 0.930 . S
C1215 C1216 1.399 . S
C1215 C1220 1.399 . S
C1216 C1215 1.399 . S
C1216 C1217 1.376 . S
C1217 H1204 0.930 . S
C1217 C1216 1.376 . S
C1217 C1218 1.388 . S
C1218 H1205 0.930 . S
C1218 C1217 1.388 . S
C1218 C1219 1.390 . S
C1219 C1218 1.390 . S
C1219 C1220 1.394 . S
C1219 C1225 1.465 1_556 S
C1220 C1215 1.399 . S
C1220 C1219 1.394 . S
C1220 C1221 1.495 1_556 S
C1221 C1220 1.495 1_554 S
C1221 C1222 1.504 . S
C1221 C1223 1.560 1_554 S
C1221 C1224 1.546 . S
C1222 H1206 0.959 . S
C1222 H1207 0.959 . S
C1222 H1208 0.961 1_554 S
C1222 C1221 1.504 . S
C1223 H1209 0.971 . S
C1223 H1210 0.951 1_556 S
C1223 H1211 0.958 1_556 S
C1223 C1221 1.560 1_556 S
C1224 C1221 1.546 . S
C1224 C1225 1.396 . S
C1224 C1229 1.390 . S
C1225 C1219 1.465 1_554 S
C1225 C1224 1.396 . S
C1225 C1226 1.399 . S
C1226 H1212 0.929 . S
C1226 C1225 1.399 . S
C1226 C1227 1.385 . S
C1227 H1213 0.931 . S
C1227 C1226 1.385 . S
C1227 C1228 1.389 . S
C1228 C1227 1.389 . S
C1228 C1229 1.387 . S
C1229 H1214 0.930 . S
C1229 C1224 1.390 . S
C1229 C1228 1.387 . S
H1230 C1242 0.930 . S
H1231 C1244 0.930 . S
H1232 C1245 0.930 . S
H1233 C1249 0.959 1_554 S
H1234 C1249 0.959 1_554 S
H1235 C1249 0.961 . S
H1236 C1250 0.960 . S
H1237 C1250 0.961 1_554 S
H1238 C1250 0.962 . S
H1239 C1253 0.929 . S
H1240 C1254 0.931 . S
H1241 C1256 0.930 . S
C1242 H1230 0.930 . S
C1242 C1243 1.399 . S
C1242 C1247 1.399 . S
C1243 C1242 1.399 . S
C1243 C1244 1.376 . S
C1244 H1231 0.930 . S
C1244 C1243 1.376 . S
C1244 C1245 1.388 . S
C1245 H1232 0.930 . S
C1245 C1244 1.388 . S
C1245 C1246 1.390 . S
C1246 C1245 1.390 . S
C1246 C1247 1.394 . S
C1246 C1252 1.465 1_556 S
C1247 C1242 1.399 . S
C1247 C1246 1.394 . S
C1247 C1248 1.516 . S
C1248 C1247 1.516 . S
C1248 C1249 1.502 . S
C1248 C1250 1.561 . S
C1248 C1251 1.526 1_556 S
C1249 H1233 0.959 1_556 S
C1249 H1234 0.959 1_556 S
C1249 H1235 0.961 . S
C1249 C1248 1.502 . S
C1250 H1236 0.960 . S
C1250 H1237 0.961 1_556 S
C1250 H1238 0.962 . S
C1250 C1248 1.561 . S
C1251 C1248 1.526 1_554 S
C1251 C1252 1.396 . S
C1251 C1256 1.390 . S
C1252 C1246 1.465 1_554 S
C1252 C1251 1.396 . S
C1252 C1253 1.399 . S
C1253 H1239 0.929 . S
C1253 C1252 1.399 . S
C1253 C1254 1.385 . S
C1254 H1240 0.931 . S
C1254 C1253 1.385 . S
C1254 C1255 1.389 . S
C1255 C1254 1.389 . S
C1255 C1256 1.387 . S
C1256 H1241 0.930 . S
C1256 C1251 1.390 . S
C1256 C1255 1.387 . S
H1257 C1269 0.930 . S
H1258 C1271 0.930 . S
H1259 C1272 0.930 . S
H1260 C1276 0.961 . S
H1261 C1276 0.959 1_554 S
H1262 C1276 0.961 . S
H1263 C1277 0.926 1_556 S
H1264 C1277 0.992 . S
H1265 C1277 0.965 . S
H1266 C1280 0.929 . S
H1267 C1281 0.931 . S
H1268 C1283 0.930 . S
C1269 H1257 0.930 . S
C1269 C1270 1.399 . S
C1269 C1274 1.399 . S
C1270 C1269 1.399 . S
C1270 C1271 1.376 . S
C1271 H1258 0.930 . S
C1271 C1270 1.376 . S
C1271 C1272 1.388 . S
C1272 H1259 0.930 . S
C1272 C1271 1.388 . S
C1272 C1273 1.390 . S
C1273 C1272 1.390 . S
C1273 C1274 1.394 . S
C1273 C1279 1.465 1_556 S
C1274 C1269 1.399 . S
C1274 C1273 1.394 . S
C1274 C1275 1.525 . S
C1275 C1274 1.525 . S
C1275 C1276 1.502 . S
C1275 C1277 1.560 1_556 S
C1275 C1278 1.517 1_556 S
C1276 H1260 0.961 . S
C1276 H1261 0.959 1_556 S
C1276 H1262 0.961 . S
C1276 C1275 1.502 . S
C1277 H1263 0.926 1_554 S
C1277 H1264 0.992 . S
C1277 H1265 0.965 . S
C1277 C1275 1.560 1_554 S
C1278 C1275 1.517 1_554 S
C1278 C1279 1.396 . S
C1278 C1283 1.390 . S
C1279 C1273 1.465 1_554 S
C1279 C1278 1.396 . S
C1279 C1280 1.399 . S
C1280 H1266 0.929 . S
C1280 C1279 1.399 . S
C1280 C1281 1.385 . S
C1281 H1267 0.931 . S
C1281 C1280 1.385 . S
C1281 C1282 1.389 . S
C1282 C1281 1.389 . S
C1282 C1283 1.387 . S
C1283 H1268 0.930 . S
C1283 C1278 1.390 . S
C1283 C1282 1.387 . S
H1284 C1296 0.930 . S
H1285 C1298 0.930 . S
H1286 C1299 0.930 . S
H1287 C1303 0.959 . S
H1288 C1303 0.959 . S
H1289 C1303 0.961 . S
H1290 C1304 0.960 . S
H1291 C1304 0.961 . S
H1292 C1304 0.959 . S
H1293 C1307 0.929 . S
H1294 C1308 0.931 . S
H1295 C1310 0.930 . S
C1296 H1284 0.930 . S
C1296 C1297 1.399 . S
C1296 C1301 1.399 . S
C1297 C1296 1.399 . S
C1297 C1298 1.376 . S
C1298 H1285 0.930 . S
C1298 C1297 1.376 . S
C1298 C1299 1.388 . S
C1299 H1286 0.930 . S
C1299 C1298 1.388 . S
C1299 C1300 1.390 . S
C1300 C1299 1.390 . S
C1300 C1301 1.394 . S
C1300 C1306 1.465 . S
C1301 C1296 1.399 . S
C1301 C1300 1.394 . S
C1301 C1302 1.516 . S
C1302 C1301 1.516 . S
C1302 C1303 1.502 . S
C1302 C1304 1.561 . S
C1302 C1305 1.526 . S
C1303 H1287 0.959 . S
C1303 H1288 0.959 . S
C1303 H1289 0.961 . S
C1303 C1302 1.502 . S
C1304 H1290 0.960 . S
C1304 H1291 0.961 . S
C1304 H1292 0.959 . S
C1304 C1302 1.561 . S
C1305 C1302 1.526 . S
C1305 C1306 1.396 . S
C1305 C1310 1.390 . S
C1306 C1300 1.465 . S
C1306 C1305 1.396 . S
C1306 C1307 1.399 . S
C1307 H1293 0.929 . S
C1307 C1306 1.399 . S
C1307 C1308 1.385 . S
C1308 H1294 0.931 . S
C1308 C1307 1.385 . S
C1308 C1309 1.389 . S
C1309 C1308 1.389 . S
C1309 C1310 1.387 . S
C1310 H1295 0.930 . S
C1310 C1305 1.390 . S
C1310 C1309 1.387 . S
H1311 C1323 0.930 . S
H1312 C1325 0.930 . S
H1313 C1326 0.930 . S
H1314 C1330 0.959 . S
H1315 C1330 0.959 . S
H1316 C1330 0.961 . S
H1317 C1331 0.960 . S
H1318 C1331 0.961 . S
H1319 C1331 0.959 . S
H1320 C1334 0.929 . S
H1321 C1335 0.931 . S
H1322 C1337 0.930 . S
C1323 H1311 0.930 . S
C1323 C1324 1.399 . S
C1323 C1328 1.399 . S
C1324 C1323 1.399 . S
C1324 C1325 1.376 . S
C1325 H1312 0.930 . S
C1325 C1324 1.376 . S
C1325 C1326 1.388 . S
C1326 H1313 0.930 . S
C1326 C1325 1.388 . S
C1326 C1327 1.390 . S
C1327 C1326 1.390 . S
C1327 C1328 1.394 . S
C1327 C1333 1.465 . S
C1328 C1323 1.399 . S
C1328 C1327 1.394 . S
C1328 C1329 1.516 . S
C1329 C1328 1.516 . S
C1329 C1330 1.502 . S
C1329 C1331 1.561 . S
C1329 C1332 1.526 . S
C1330 H1314 0.959 . S
C1330 H1315 0.959 . S
C1330 H1316 0.961 . S
C1330 C1329 1.502 . S
C1331 H1317 0.960 . S
C1331 H1318 0.961 . S
C1331 H1319 0.959 . S
C1331 C1329 1.561 . S
C1332 C1329 1.526 . S
C1332 C1333 1.396 . S
C1332 C1337 1.390 . S
C1333 C1327 1.465 . S
C1333 C1332 1.396 . S
C1333 C1334 1.399 . S
C1334 H1320 0.929 . S
C1334 C1333 1.399 . S
C1334 C1335 1.385 . S
C1335 H1321 0.931 . S
C1335 C1334 1.385 . S
C1335 C1336 1.389 . S
C1336 C1335 1.389 . S
C1336 C1337 1.387 . S
C1337 H1322 0.930 . S
C1337 C1332 1.390 . S
C1337 C1336 1.387 . S
H1338 C1350 0.930 . S
H1339 C1352 0.930 . S
H1340 C1353 0.930 . S
H1341 C1357 0.959 . S
H1342 C1357 0.959 . S
H1343 C1357 0.961 . S
H1344 C1358 0.960 . S
H1345 C1358 0.961 . S
H1346 C1358 0.959 . S
H1347 C1361 0.929 . S
H1348 C1362 0.931 . S
H1349 C1364 0.930 . S
C1350 H1338 0.930 . S
C1350 C1351 1.399 . S
C1350 C1355 1.399 . S
C1351 C1350 1.399 . S
C1351 C1352 1.376 . S
C1352 H1339 0.930 . S
C1352 C1351 1.376 . S
C1352 C1353 1.388 . S
C1353 H1340 0.930 . S
C1353 C1352 1.388 . S
C1353 C1354 1.390 . S
C1354 C1353 1.390 . S
C1354 C1355 1.394 . S
C1354 C1360 1.465 . S
C1355 C1350 1.399 . S
C1355 C1354 1.394 . S
C1355 C1356 1.516 . S
C1356 C1355 1.516 . S
C1356 C1357 1.502 . S
C1356 C1358 1.561 . S
C1356 C1359 1.526 . S
C1357 H1341 0.959 . S
C1357 H1342 0.959 . S
C1357 H1343 0.961 . S
C1357 C1356 1.502 . S
C1358 H1344 0.960 . S
C1358 H1345 0.961 . S
C1358 H1346 0.959 . S
C1358 C1356 1.561 . S
C1359 C1356 1.526 . S
C1359 C1360 1.396 . S
C1359 C1364 1.390 . S
C1360 C1354 1.465 . S
C1360 C1359 1.396 . S
C1360 C1361 1.399 . S
C1361 H1347 0.929 . S
C1361 C1360 1.399 . S
C1361 C1362 1.385 . S
C1362 H1348 0.931 . S
C1362 C1361 1.385 . S
C1362 C1363 1.389 . S
C1363 C1362 1.389 . S
C1363 C1364 1.387 . S
C1364 H1349 0.930 . S
C1364 C1359 1.390 . S
C1364 C1363 1.387 . S
H1365 C1377 0.930 . S
H1366 C1379 0.930 . S
H1367 C1380 0.930 . S
H1368 C1384 0.959 . S
H1369 C1384 0.959 . S
H1370 C1384 0.961 . S
H1371 C1385 0.960 . S
H1372 C1385 0.961 . S
H1373 C1385 0.959 . S
H1374 C1388 0.929 . S
H1375 C1389 0.931 . S
H1376 C1391 0.930 . S
C1377 H1365 0.930 . S
C1377 C1378 1.399 . S
C1377 C1382 1.399 . S
C1378 C1377 1.399 . S
C1378 C1379 1.376 . S
C1379 H1366 0.930 . S
C1379 C1378 1.376 . S
C1379 C1380 1.388 . S
C1380 H1367 0.930 . S
C1380 C1379 1.388 . S
C1380 C1381 1.390 . S
C1381 C1380 1.390 . S
C1381 C1382 1.394 . S
C1381 C1387 1.465 . S
C1382 C1377 1.399 . S
C1382 C1381 1.394 . S
C1382 C1383 1.516 . S
C1383 C1382 1.516 . S
C1383 C1384 1.502 . S
C1383 C1385 1.561 . S
C1383 C1386 1.526 . S
C1384 H1368 0.959 . S
C1384 H1369 0.959 . S
C1384 H1370 0.961 . S
C1384 C1383 1.502 . S
C1385 H1371 0.960 . S
C1385 H1372 0.961 . S
C1385 H1373 0.959 . S
C1385 C1383 1.561 . S
C1386 C1383 1.526 . S
C1386 C1387 1.396 . S
C1386 C1391 1.390 . S
C1387 C1381 1.465 . S
C1387 C1386 1.396 . S
C1387 C1388 1.399 . S
C1388 H1374 0.929 . S
C1388 C1387 1.399 . S
C1388 C1389 1.385 . S
C1389 H1375 0.931 . S
C1389 C1388 1.385 . S
C1389 C1390 1.389 . S
C1390 C1389 1.389 . S
C1390 C1391 1.387 . S
C1391 H1376 0.930 . S
C1391 C1386 1.390 . S
C1391 C1390 1.387 . S
H1392 C1404 0.930 . S
H1393 C1406 0.930 . S
H1394 C1407 0.930 . S
H1395 C1411 0.959 . S
H1396 C1411 0.959 . S
H1397 C1411 0.961 . S
H1398 C1412 0.960 . S
H1399 C1412 0.961 . S
H1400 C1412 0.959 . S
H1401 C1415 0.929 . S
H1402 C1416 0.931 . S
H1403 C1418 0.930 . S
C1404 H1392 0.930 . S
C1404 C1405 1.399 . S
C1404 C1409 1.399 . S
C1405 C1404 1.399 . S
C1405 C1406 1.376 . S
C1406 H1393 0.930 . S
C1406 C1405 1.376 . S
C1406 C1407 1.388 . S
C1407 H1394 0.930 . S
C1407 C1406 1.388 . S
C1407 C1408 1.390 . S
C1408 C1407 1.390 . S
C1408 C1409 1.394 . S
C1408 C1414 1.465 . S
C1409 C1404 1.399 . S
C1409 C1408 1.394 . S
C1409 C1410 1.516 . S
C1410 C1409 1.516 . S
C1410 C1411 1.502 . S
C1410 C1412 1.561 . S
C1410 C1413 1.526 . S
C1411 H1395 0.959 . S
C1411 H1396 0.959 . S
C1411 H1397 0.961 . S
C1411 C1410 1.502 . S
C1412 H1398 0.960 . S
C1412 H1399 0.961 . S
C1412 H1400 0.959 . S
C1412 C1410 1.561 . S
C1413 C1410 1.526 . S
C1413 C1414 1.396 . S
C1413 C1418 1.390 . S
C1414 C1408 1.465 . S
C1414 C1413 1.396 . S
C1414 C1415 1.399 . S
C1415 H1401 0.929 . S
C1415 C1414 1.399 . S
C1415 C1416 1.385 . S
C1416 H1402 0.931 . S
C1416 C1415 1.385 . S
C1416 C1417 1.389 . S
C1417 C1416 1.389 . S
C1417 C1418 1.387 . S
C1418 H1403 0.930 . S
C1418 C1413 1.390 . S
C1418 C1417 1.387 . S
H1419 C1431 0.930 . S
H1420 C1433 0.930 . S
H1421 C1434 0.930 . S
H1422 C1438 0.959 . S
H1423 C1438 0.959 . S
H1424 C1438 0.961 . S
H1425 C1439 0.960 . S
H1426 C1439 0.961 . S
H1427 C1439 0.959 . S
H1428 C1442 0.929 . S
H1429 C1443 0.931 . S
H1430 C1445 0.930 . S
C1431 H1419 0.930 . S
C1431 C1432 1.399 . S
C1431 C1436 1.399 . S
C1432 C1431 1.399 . S
C1432 C1433 1.376 . S
C1433 H1420 0.930 . S
C1433 C1432 1.376 . S
C1433 C1434 1.388 . S
C1434 H1421 0.930 . S
C1434 C1433 1.388 . S
C1434 C1435 1.390 . S
C1435 C1434 1.390 . S
C1435 C1436 1.394 . S
C1435 C1441 1.465 . S
C1436 C1431 1.399 . S
C1436 C1435 1.394 . S
C1436 C1437 1.516 . S
C1437 C1436 1.516 . S
C1437 C1438 1.502 . S
C1437 C1439 1.561 . S
C1437 C1440 1.526 . S
C1438 H1422 0.959 . S
C1438 H1423 0.959 . S
C1438 H1424 0.961 . S
C1438 C1437 1.502 . S
C1439 H1425 0.960 . S
C1439 H1426 0.961 . S
C1439 H1427 0.959 . S
C1439 C1437 1.561 . S
C1440 C1437 1.526 . S
C1440 C1441 1.396 . S
C1440 C1445 1.390 . S
C1441 C1435 1.465 . S
C1441 C1440 1.396 . S
C1441 C1442 1.399 . S
C1442 H1428 0.929 . S
C1442 C1441 1.399 . S
C1442 C1443 1.385 . S
C1443 H1429 0.931 . S
C1443 C1442 1.385 . S
C1443 C1444 1.389 . S
C1444 C1443 1.389 . S
C1444 C1445 1.387 . S
C1445 H1430 0.930 . S
C1445 C1440 1.390 . S
C1445 C1444 1.387 . S
H1446 C1458 0.930 . S
H1447 C1460 0.930 . S
H1448 C1461 0.930 . S
H1449 C1465 0.959 . S
H1450 C1465 0.959 . S
H1451 C1465 0.961 . S
H1452 C1466 0.960 . S
H1453 C1466 0.961 . S
H1454 C1466 0.959 . S
H1455 C1469 0.929 . S
H1456 C1470 0.931 . S
H1457 C1472 0.930 . S
C1458 H1446 0.930 . S
C1458 C1459 1.399 . S
C1458 C1463 1.399 . S
C1459 C1458 1.399 . S
C1459 C1460 1.376 . S
C1460 H1447 0.930 . S
C1460 C1459 1.376 . S
C1460 C1461 1.388 . S
C1461 H1448 0.930 . S
C1461 C1460 1.388 . S
C1461 C1462 1.390 . S
C1462 C1461 1.390 . S
C1462 C1463 1.394 . S
C1462 C1468 1.465 . S
C1463 C1458 1.399 . S
C1463 C1462 1.394 . S
C1463 C1464 1.516 . S
C1464 C1463 1.516 . S
C1464 C1465 1.502 . S
C1464 C1466 1.561 . S
C1464 C1467 1.526 . S
C1465 H1449 0.959 . S
C1465 H1450 0.959 . S
C1465 H1451 0.961 . S
C1465 C1464 1.502 . S
C1466 H1452 0.960 . S
C1466 H1453 0.961 . S
C1466 H1454 0.959 . S
C1466 C1464 1.561 . S
C1467 C1464 1.526 . S
C1467 C1468 1.396 . S
C1467 C1472 1.390 . S
C1468 C1462 1.465 . S
C1468 C1467 1.396 . S
C1468 C1469 1.399 . S
C1469 H1455 0.929 . S
C1469 C1468 1.399 . S
C1469 C1470 1.385 . S
C1470 H1456 0.931 . S
C1470 C1469 1.385 . S
C1470 C1471 1.389 . S
C1471 C1470 1.389 . S
C1471 C1472 1.387 . S
C1472 H1457 0.930 . S
C1472 C1467 1.390 . S
C1472 C1471 1.387 . S
H1473 C1485 0.930 . S
H1474 C1487 0.930 . S
H1475 C1488 0.930 . S
H1476 C1492 0.959 . S
H1477 C1492 0.959 . S
H1478 C1492 0.961 . S
H1479 C1493 0.960 . S
H1480 C1493 0.961 . S
H1481 C1493 0.959 . S
H1482 C1496 0.929 . S
H1483 C1497 0.931 . S
H1484 C1499 0.930 . S
C1485 H1473 0.930 . S
C1485 C1486 1.399 . S
C1485 C1490 1.399 . S
C1486 C1485 1.399 . S
C1486 C1487 1.376 . S
C1487 H1474 0.930 . S
C1487 C1486 1.376 . S
C1487 C1488 1.388 . S
C1488 H1475 0.930 . S
C1488 C1487 1.388 . S
C1488 C1489 1.390 . S
C1489 C1488 1.390 . S
C1489 C1490 1.394 . S
C1489 C1495 1.465 . S
C1490 C1485 1.399 . S
C1490 C1489 1.394 . S
C1490 C1491 1.516 . S
C1491 C1490 1.516 . S
C1491 C1492 1.502 . S
C1491 C1493 1.561 . S
C1491 C1494 1.526 . S
C1492 H1476 0.959 . S
C1492 H1477 0.959 . S
C1492 H1478 0.961 . S
C1492 C1491 1.502 . S
C1493 H1479 0.960 . S
C1493 H1480 0.961 . S
C1493 H1481 0.959 . S
C1493 C1491 1.561 . S
C1494 C1491 1.526 . S
C1494 C1495 1.396 . S
C1494 C1499 1.390 . S
C1495 C1489 1.465 . S
C1495 C1494 1.396 . S
C1495 C1496 1.399 . S
C1496 H1482 0.929 . S
C1496 C1495 1.399 . S
C1496 C1497 1.385 . S
C1497 H1483 0.931 . S
C1497 C1496 1.385 . S
C1497 C1498 1.389 . S
C1498 C1497 1.389 . S
C1498 C1499 1.387 . S
C1499 H1484 0.930 . S
C1499 C1494 1.390 . S
C1499 C1498 1.387 . S
H1500 C1512 0.930 . S
H1501 C1514 0.930 . S
H1502 C1515 0.930 . S
H1503 C1519 0.959 . S
H1504 C1519 0.959 . S
H1505 C1519 0.961 . S
H1506 C1520 0.960 . S
H1507 C1520 0.961 . S
H1508 C1520 0.959 . S
H1509 C1523 0.929 . S
H1510 C1524 0.931 . S
H1511 C1526 0.930 . S
C1512 H1500 0.930 . S
C1512 C1513 1.399 . S
C1512 C1517 1.399 . S
C1513 C1512 1.399 . S
C1513 C1514 1.376 . S
C1514 H1501 0.930 . S
C1514 C1513 1.376 . S
C1514 C1515 1.388 . S
C1515 H1502 0.930 . S
C1515 C1514 1.388 . S
C1515 C1516 1.390 . S
C1516 C1515 1.390 . S
C1516 C1517 1.394 . S
C1516 C1522 1.465 . S
C1517 C1512 1.399 . S
C1517 C1516 1.394 . S
C1517 C1518 1.516 . S
C1518 C1517 1.516 . S
C1518 C1519 1.502 . S
C1518 C1520 1.561 . S
C1518 C1521 1.526 . S
C1519 H1503 0.959 . S
C1519 H1504 0.959 . S
C1519 H1505 0.961 . S
C1519 C1518 1.502 . S
C1520 H1506 0.960 . S
C1520 H1507 0.961 . S
C1520 H1508 0.959 . S
C1520 C1518 1.561 . S
C1521 C1518 1.526 . S
C1521 C1522 1.396 . S
C1521 C1526 1.390 . S
C1522 C1516 1.465 . S
C1522 C1521 1.396 . S
C1522 C1523 1.399 . S
C1523 H1509 0.929 . S
C1523 C1522 1.399 . S
C1523 C1524 1.385 . S
C1524 H1510 0.931 . S
C1524 C1523 1.385 . S
C1524 C1525 1.389 . S
C1525 C1524 1.389 . S
C1525 C1526 1.387 . S
C1526 H1511 0.930 . S
C1526 C1521 1.390 . S
C1526 C1525 1.387 . S
H1527 C1539 0.930 . S
H1528 C1541 0.930 . S
H1529 C1542 0.930 . S
H1530 C1546 0.959 . S
H1531 C1546 0.959 . S
H1532 C1546 0.961 . S
H1533 C1547 0.960 . S
H1534 C1547 0.961 . S
H1535 C1547 0.959 . S
H1536 C1550 0.929 . S
H1537 C1551 0.931 . S
H1538 C1553 0.930 . S
C1539 H1527 0.930 . S
C1539 C1540 1.399 . S
C1539 C1544 1.399 . S
C1540 C1539 1.399 . S
C1540 C1541 1.376 . S
C1541 H1528 0.930 . S
C1541 C1540 1.376 . S
C1541 C1542 1.388 . S
C1542 H1529 0.930 . S
C1542 C1541 1.388 . S
C1542 C1543 1.390 . S
C1543 C1542 1.390 . S
C1543 C1544 1.394 . S
C1543 C1549 1.465 . S
C1544 C1539 1.399 . S
C1544 C1543 1.394 . S
C1544 C1545 1.516 . S
C1545 C1544 1.516 . S
C1545 C1546 1.502 . S
C1545 C1547 1.561 . S
C1545 C1548 1.526 . S
C1546 H1530 0.959 . S
C1546 H1531 0.959 . S
C1546 H1532 0.961 . S
C1546 C1545 1.502 . S
C1547 H1533 0.960 . S
C1547 H1534 0.961 . S
C1547 H1535 0.959 . S
C1547 C1545 1.561 . S
C1548 C1545 1.526 . S
C1548 C1549 1.396 . S
C1548 C1553 1.390 . S
C1549 C1543 1.465 . S
C1549 C1548 1.396 . S
C1549 C1550 1.399 . S
C1550 H1536 0.929 . S
C1550 C1549 1.399 . S
C1550 C1551 1.385 . S
C1551 H1537 0.931 . S
C1551 C1550 1.385 . S
C1551 C1552 1.389 . S
C1552 C1551 1.389 . S
C1552 C1553 1.387 . S
C1553 H1538 0.930 . S
C1553 C1548 1.390 . S
C1553 C1552 1.387 . S
H1554 C1566 0.930 . S
H1555 C1568 0.930 . S
H1556 C1569 0.930 . S
H1557 C1573 0.959 . S
H1558 C1573 0.959 . S
H1559 C1573 0.961 . S
H1560 C1574 0.960 . S
H1561 C1574 0.961 . S
H1562 C1574 0.959 . S
H1563 C1577 0.929 . S
H1564 C1578 0.931 . S
H1565 C1580 0.930 . S
C1566 H1554 0.930 . S
C1566 C1567 1.399 . S
C1566 C1571 1.399 . S
C1567 C1566 1.399 . S
C1567 C1568 1.376 . S
C1568 H1555 0.930 . S
C1568 C1567 1.376 . S
C1568 C1569 1.388 . S
C1569 H1556 0.930 . S
C1569 C1568 1.388 . S
C1569 C1570 1.390 . S
C1570 C1569 1.390 . S
C1570 C1571 1.394 . S
C1570 C1576 1.465 . S
C1571 C1566 1.399 . S
C1571 C1570 1.394 . S
C1571 C1572 1.516 . S
C1572 C1571 1.516 . S
C1572 C1573 1.502 . S
C1572 C1574 1.561 . S
C1572 C1575 1.526 . S
C1573 H1557 0.959 . S
C1573 H1558 0.959 . S
C1573 H1559 0.961 . S
C1573 C1572 1.502 . S
C1574 H1560 0.960 . S
C1574 H1561 0.961 . S
C1574 H1562 0.959 . S
C1574 C1572 1.561 . S
C1575 C1572 1.526 . S
C1575 C1576 1.396 . S
C1575 C1580 1.390 . S
C1576 C1570 1.465 . S
C1576 C1575 1.396 . S
C1576 C1577 1.399 . S
C1577 H1563 0.929 . S
C1577 C1576 1.399 . S
C1577 C1578 1.385 . S
C1578 H1564 0.931 . S
C1578 C1577 1.385 . S
C1578 C1579 1.389 . S
C1579 C1578 1.389 . S
C1579 C1580 1.387 . S
C1580 H1565 0.930 . S
C1580 C1575 1.390 . S
C1580 C1579 1.387 . S
H1581 C1593 0.930 . S
H1582 C1595 0.930 . S
H1583 C1596 0.930 . S
H1584 C1600 0.959 . S
H1585 C1600 0.959 . S
H1586 C1600 0.961 . S
H1587 C1601 0.960 . S
H1588 C1601 0.961 . S
H1589 C1601 0.959 . S
H1590 C1604 0.929 . S
H1591 C1605 0.931 . S
H1592 C1607 0.930 . S
C1593 H1581 0.930 . S
C1593 C1594 1.399 . S
C1593 C1598 1.399 . S
C1594 C1593 1.399 . S
C1594 C1595 1.376 . S
C1595 H1582 0.930 . S
C1595 C1594 1.376 . S
C1595 C1596 1.388 . S
C1596 H1583 0.930 . S
C1596 C1595 1.388 . S
C1596 C1597 1.390 . S
C1597 C1596 1.390 . S
C1597 C1598 1.394 . S
C1597 C1603 1.465 . S
C1598 C1593 1.399 . S
C1598 C1597 1.394 . S
C1598 C1599 1.516 . S
C1599 C1598 1.516 . S
C1599 C1600 1.502 . S
C1599 C1601 1.561 . S
C1599 C1602 1.526 . S
C1600 H1584 0.959 . S
C1600 H1585 0.959 . S
C1600 H1586 0.961 . S
C1600 C1599 1.502 . S
C1601 H1587 0.960 . S
C1601 H1588 0.961 . S
C1601 H1589 0.959 . S
C1601 C1599 1.561 . S
C1602 C1599 1.526 . S
C1602 C1603 1.396 . S
C1602 C1607 1.390 . S
C1603 C1597 1.465 . S
C1603 C1602 1.396 . S
C1603 C1604 1.399 . S
C1604 H1590 0.929 . S
C1604 C1603 1.399 . S
C1604 C1605 1.385 . S
C1605 H1591 0.931 . S
C1605 C1604 1.385 . S
C1605 C1606 1.389 . S
C1606 C1605 1.389 . S
C1606 C1607 1.387 . S
C1607 H1592 0.930 . S
C1607 C1602 1.390 . S
C1607 C1606 1.387 . S
C325 C153 1.423 . S
C337 C8 1.369 . S
C352 C21 1.353 . S
C364 C114 1.412 . S
C379 C34 1.343 . S
C391 C127 1.367 . S
C406 C47 1.417 . S
C418 C140 1.411 . S
C433 C179 1.379 . S
C445 C60 1.332 . S
C460 C73 1.351 . S
C472 C192 1.410 . S
C487 C205 1.374 . S
C499 C86 1.333 . S
C514 C166 1.426 . S
C526 C99 1.420 . S
C541 C75 1.377 . S
C553 C112 1.332 . S
C568 C88 1.435 . S
C580 C125 1.410 . S
C595 C138 1.345 . S
C607 C101 1.404 . S
C622 C62 1.370 . S
C634 C151 1.370 . S
C649 C49 1.374 . S
C661 C164 1.333 . S
C676 C177 1.412 . S
C688 C10 1.434 . S
C703 C190 1.355 . S
C715 C23 1.414 . S
C730 C203 1.332 . S
C742 C36 1.373 . S
C757 C216 1.404 . S
C769 C309 1.394 . S
C784 C270 1.428 . S
C796 C229 1.419 . S
C811 C242 1.343 . S
C823 C231 1.402 . S
C838 C255 1.366 . S
C850 C244 1.422 . S
C865 C257 1.382 . S
C877 C268 1.333 . S
C892 C281 1.401 . S
C904 C296 1.435 . S
C919 C218 1.374 . S
C931 C294 1.333 . S
C946 C283 1.373 . S
C958 C307 1.333 . S
C973 C5 1.278 . S
C985 C83 1.281 . S
C1000 C18 1.290 . S
C1012 C96 1.288 . S
C1027 C31 1.277 . S
C1039 C57 1.280 . S
C1054 C70 1.346 . S
C1066 C44 1.349 . S
C1081 C135 1.282 . S
C1093 C109 1.286 . S
C1108 C122 1.281 . S
C1120 C148 1.284 . S
C1135 C161 1.357 . S
C1147 C187 1.354 . S
C1162 C200 1.360 . S
C1174 C174 1.361 . S
C1189 C226 1.299 . S
C1201 C213 1.297 . S
C1216 C239 1.356 . S
C1228 C304 1.353 . S
C1243 C252 1.341 . S
C1255 C278 1.344 . S
C1270 C265 1.282 . S
C1282 C291 1.286 . S
C1297 C0 1.020 . S
C1309 C65 0.943 . S
C1324 C13 0.930 . S
C1336 C78 0.997 . S
C1351 C26 0.977 . S
C1363 C91 0.941 . S
C1378 C52 1.021 . S
C1390 C39 0.946 . S
C1405 C104 0.976 . S
C1417 C299 0.942 . S
C1432 C117 0.944 . S
C1444 C273 0.972 . S
C1459 C286 0.950 . S
C1471 C130 1.019 . S
C1486 C143 0.934 . S
C1498 C208 1.017 . S
C1513 C260 1.016 . S
C1525 C156 0.933 . S
C1540 C221 0.930 . S
C1552 C169 1.011 . S
C1567 C182 1.002 . S
C1579 C234 0.930 . S
C1594 C247 1.020 . S
C1606 C195 0.952 . S
