# Generated by pormake.
# Topology gsi, (4)-cn, num edge types: 1
# Building blocks:
#     Node 0, Type 0, BuildingBlock: ICAMEG_clean_sbu_1, # of connection points: 4
#     Node 1, Type 0, BuildingBlock: ICAMEG_clean_sbu_1, # of connection points: 4
#     Node 2, Type 0, BuildingBlock: ICAMEG_clean_sbu_1, # of connection points: 4
#     Node 3, Type 0, BuildingBlock: ICAMEG_clean_sbu_1, # of connection points: 4
#     Node 4, Type 0, BuildingBlock: ICAMEG_clean_sbu_1, # of connection points: 4
#     Node 5, Type 0, BuildingBlock: ICAMEG_clean_sbu_1, # of connection points: 4
#     Node 6, Type 0, BuildingBlock: ICAMEG_clean_sbu_1, # of connection points: 4
#     Node 7, Type 0, BuildingBlock: ICAMEG_clean_sbu_1, # of connection points: 4
#     Node 8, Type 0, BuildingBlock: ICAMEG_clean_sbu_1, # of connection points: 4
#     Node 9, Type 0, BuildingBlock: ICAMEG_clean_sbu_1, # of connection points: 4
#     Node 10, Type 0, BuildingBlock: ICAMEG_clean_sbu_1, # of connection points: 4
#     Node 11, Type 0, BuildingBlock: ICAMEG_clean_sbu_1, # of connection points: 4
#     Node 12, Type 0, BuildingBlock: ICAMEG_clean_sbu_1, # of connection points: 4
#     Node 13, Type 0, BuildingBlock: ICAMEG_clean_sbu_1, # of connection points: 4
#     Node 14, Type 0, BuildingBlock: ICAMEG_clean_sbu_1, # of connection points: 4
#     Node 15, Type 0, BuildingBlock: ICAMEG_clean_sbu_1, # of connection points: 4
#     Edge 16, Type (0, 0), BuildingBlock: AJUNOK_clean_linker_0, # of connection points: 2
#     Edge 17, Type (0, 0), BuildingBlock: AJUNOK_clean_linker_0, # of connection points: 2
#     Edge 18, Type (0, 0), BuildingBlock: AJUNOK_clean_linker_0, # of connection points: 2
#     Edge 19, Type (0, 0), BuildingBlock: AJUNOK_clean_linker_0, # of connection points: 2
#     Edge 20, Type (0, 0), BuildingBlock: AJUNOK_clean_linker_0, # of connection points: 2
#     Edge 21, Type (0, 0), BuildingBlock: AJUNOK_clean_linker_0, # of connection points: 2
#     Edge 22, Type (0, 0), BuildingBlock: AJUNOK_clean_linker_0, # of connection points: 2
#     Edge 23, Type (0, 0), BuildingBlock: AJUNOK_clean_linker_0, # of connection points: 2
#     Edge 24, Type (0, 0), BuildingBlock: AJUNOK_clean_linker_0, # of connection points: 2
#     Edge 25, Type (0, 0), BuildingBlock: AJUNOK_clean_linker_0, # of connection points: 2
#     Edge 26, Type (0, 0), BuildingBlock: AJUNOK_clean_linker_0, # of connection points: 2
#     Edge 27, Type (0, 0), BuildingBlock: AJUNOK_clean_linker_0, # of connection points: 2
#     Edge 28, Type (0, 0), BuildingBlock: AJUNOK_clean_linker_0, # of connection points: 2
#     Edge 29, Type (0, 0), BuildingBlock: AJUNOK_clean_linker_0, # of connection points: 2
#     Edge 30, Type (0, 0), BuildingBlock: AJUNOK_clean_linker_0, # of connection points: 2
#     Edge 31, Type (0, 0), BuildingBlock: AJUNOK_clean_linker_0, # of connection points: 2
#     Edge 32, Type (0, 0), BuildingBlock: AJUNOK_clean_linker_0, # of connection points: 2
#     Edge 33, Type (0, 0), BuildingBlock: AJUNOK_clean_linker_0, # of connection points: 2
#     Edge 34, Type (0, 0), BuildingBlock: AJUNOK_clean_linker_0, # of connection points: 2
#     Edge 35, Type (0, 0), BuildingBlock: AJUNOK_clean_linker_0, # of connection points: 2
#     Edge 36, Type (0, 0), BuildingBlock: AJUNOK_clean_linker_0, # of connection points: 2
#     Edge 37, Type (0, 0), BuildingBlock: AJUNOK_clean_linker_0, # of connection points: 2
#     Edge 38, Type (0, 0), BuildingBlock: AJUNOK_clean_linker_0, # of connection points: 2
#     Edge 39, Type (0, 0), BuildingBlock: AJUNOK_clean_linker_0, # of connection points: 2
#     Edge 40, Type (0, 0), BuildingBlock: AJUNOK_clean_linker_0, # of connection points: 2
#     Edge 41, Type (0, 0), BuildingBlock: AJUNOK_clean_linker_0, # of connection points: 2
#     Edge 42, Type (0, 0), BuildingBlock: AJUNOK_clean_linker_0, # of connection points: 2
#     Edge 43, Type (0, 0), BuildingBlock: AJUNOK_clean_linker_0, # of connection points: 2
#     Edge 44, Type (0, 0), BuildingBlock: AJUNOK_clean_linker_0, # of connection points: 2
#     Edge 45, Type (0, 0), BuildingBlock: AJUNOK_clean_linker_0, # of connection points: 2
#     Edge 46, Type (0, 0), BuildingBlock: AJUNOK_clean_linker_0, # of connection points: 2
#     Edge 47, Type (0, 0), BuildingBlock: AJUNOK_clean_linker_0, # of connection points: 2
# Relax obj value: 0.181
# Max RMSD: 0.234
# Mean RMSD: 0.183
data_MOF--net-gsi--node1-ICAMEG_clean_sbu_1--edge1-AJUNOK_clean_linker_0
_symmetry_space_group_name_H-M    P1
_symmetry_Int_Tables_number       1
_symmetry_cell_setting            triclinic
loop_
_symmetry_equiv_pos_as_xyz
'x, y, z'
_cell_length_a     27.234341
_cell_length_b     35.70412
_cell_length_c     36.020722
_cell_angle_alpha  90.000154
_cell_angle_beta   90.10831
_cell_angle_gamma 99.907719
loop_
_atom_site_label
_atom_site_type_symbol
_atom_site_fract_x
_atom_site_fract_y
_atom_site_fract_z
_atom_type_partial_charge
Co0 Co 0.15056 0.1616 0.19573 0.0
Co1 Co 0.20375 0.21965 0.12713 0.0
O2 O 0.19037 0.16934 0.15049 0.0
C3 C 0.2109 0.11685 0.24199 0.0
O4 O 0.21423 0.14415 0.26679 0.0
C5 C 0.20672 0.16184 0.06543 0.0
O6 O 0.2002 0.13322 0.08874 0.0
O7 O 0.13041 0.21824 0.12213 0.0
O8 O 0.11001 0.20165 0.18068 0.0
H9 H 0.17424 0.35322 0.10631 0.0
H10 H 0.1575 0.09562 0.14749 0.0
O11 O 0.18913 0.12047 0.21102 0.0
H12 H 0.97777 0.09871 0.15742 0.0
H13 H 0.05324 0.08442 0.29696 0.0
H14 H 0.11813 0.21354 0.25101 0.0
H15 H 0.03924 0.14656 0.1896 0.0
H16 H 0.1016 0.0937 0.23886 0.0
O17 O 0.20596 0.19579 0.07637 0.0
H18 H 0.16269 0.29077 0.13725 0.0
H19 H 0.26834 0.25457 0.06489 0.0
H20 H 0.06973 0.20557 0.30917 0.0
H21 H 0.09731 0.0468 0.11527 0.0
H22 H 0.03687 0.14062 0.33247 0.0
H23 H 0.00665 0.04819 0.1201 0.0
O24 O 0.20104 0.20087 0.22008 0.0
H25 H 0.36345 0.16536 0.13222 0.0
H26 H 0.28783 0.27982 0.15011 0.0
H27 H 0.37745 0.28315 0.16158 0.0
H28 H 0.41607 0.2257 0.15247 0.0
H29 H 0.27412 0.16303 0.12175 0.0
H30 H 0.28067 0.31655 0.03296 0.0
H31 H 0.23356 0.36645 0.05373 0.0
O32 O 0.2035 0.24589 0.17662 0.0
C33 C 0.10035 0.2162 0.14954 0.0
C34 C 0.1951 0.33176 0.09708 0.0
C35 C 0.25477 0.31115 0.05587 0.0
N36 N 0.21498 0.26907 0.10307 0.0
C37 C 0.18882 0.29635 0.11457 0.0
C38 C 0.24749 0.27605 0.07399 0.0
C39 C 0.22834 0.33914 0.06755 0.0
C40 C 0.11816 0.09621 0.14993 0.0
N41 N 0.10201 0.12371 0.17065 0.0
C42 C 0.08422 0.06859 0.13153 0.0
C43 C 0.03338 0.06941 0.13422 0.0
C44 C 0.01716 0.09775 0.15514 0.0
C45 C 0.05219 0.12486 0.17321 0.0
C46 C 0.0673 0.11286 0.28707 0.0
C47 C 0.10389 0.1852 0.26096 0.0
C48 C 0.09474 0.1183 0.25421 0.0
N49 N 0.11251 0.15416 0.2415 0.0
C50 C 0.07655 0.18086 0.29392 0.0
C51 C 0.05814 0.14441 0.30698 0.0
C52 C 0.21417 0.23498 0.2089 0.0
C53 C 0.34723 0.19077 0.13569 0.0
C54 C 0.30422 0.25475 0.14537 0.0
C55 C 0.35511 0.25681 0.15218 0.0
C56 C 0.37672 0.22458 0.14715 0.0
N57 N 0.27542 0.2216 0.13355 0.0
C58 C 0.29641 0.18974 0.12926 0.0
Co59 Co 0.88259 0.35008 0.19672 0.0
Co60 Co 0.82351 0.29445 0.12801 0.0
O61 O 0.84199 0.34503 0.15121 0.0
C62 C 0.81511 0.40967 0.20449 0.0
O63 O 0.79303 0.40035 0.1726 0.0
C64 C 0.82575 0.35172 0.06473 0.0
O65 O 0.84439 0.38031 0.08625 0.0
O66 O 0.89596 0.29224 0.12143 0.0
O67 O 0.91857 0.30812 0.17988 0.0
H68 H 0.83989 0.15784 0.10759 0.0
H69 H 0.88228 0.41826 0.14862 0.0
O70 O 0.84942 0.39251 0.21634 0.0
H71 H 0.05861 0.40461 0.15958 0.0
H72 H 0.9842 0.41975 0.30048 0.0
H73 H 0.91249 0.29412 0.24921 0.0
H74 H 0.99326 0.3596 0.19112 0.0
H75 H 0.93537 0.41465 0.24243 0.0
O76 O 0.81985 0.31769 0.07708 0.0
H77 H 0.85976 0.2211 0.13665 0.0
H78 H 0.75117 0.26089 0.06942 0.0
H79 H 0.96157 0.29793 0.30712 0.0
H80 H 0.94635 0.46412 0.11709 0.0
H81 H 0.99789 0.36111 0.3331 0.0
H82 H 0.03539 0.4575 0.12237 0.0
O83 O 0.82987 0.3128 0.22117 0.0
H84 H 0.67061 0.3567 0.12894 0.0
H85 H 0.73658 0.23954 0.15637 0.0
H86 H 0.64824 0.24166 0.16852 0.0
H87 H 0.61453 0.30051 0.15465 0.0
H88 H 0.75874 0.35358 0.11777 0.0
H89 H 0.73064 0.19817 0.03924 0.0
H90 H 0.77496 0.14603 0.05843 0.0
O91 O 0.82423 0.26814 0.17732 0.0
C92 C 0.92629 0.29302 0.14868 0.0
C93 C 0.82032 0.18032 0.09897 0.0
C94 C 0.75906 0.20297 0.06058 0.0
N95 N 0.80676 0.24477 0.10474 0.0
C96 C 0.83137 0.21624 0.11537 0.0
C97 C 0.77107 0.23851 0.07763 0.0
C98 C 0.78391 0.17373 0.07138 0.0
C99 C 0.92075 0.41533 0.15157 0.0
N100 N 0.93374 0.38647 0.17223 0.0
C101 C 0.95699 0.44134 0.13341 0.0
C102 C 0.00692 0.43757 0.13633 0.0
C103 C 0.01996 0.40792 0.15719 0.0
C104 C 0.9827 0.38247 0.17496 0.0
C105 C 0.96869 0.39206 0.28939 0.0
C106 C 0.9284 0.3217 0.26022 0.0
C107 C 0.94087 0.38898 0.25657 0.0
N108 N 0.92144 0.35408 0.24225 0.0
C109 C 0.95604 0.32369 0.29308 0.0
C110 C 0.97635 0.35915 0.30767 0.0
C111 C 0.81533 0.27889 0.20996 0.0
C112 C 0.68476 0.33081 0.13488 0.0
C113 C 0.7224 0.26532 0.15018 0.0
C114 C 0.67221 0.2663 0.15713 0.0
C115 C 0.65333 0.29931 0.14936 0.0
N116 N 0.75312 0.2963 0.13583 0.0
C117 C 0.73479 0.32879 0.12836 0.0
Co118 Co 0.14221 0.89231 0.29892 0.0
Co119 Co 0.1975 0.83037 0.34937 0.0
O120 O 0.18902 0.88333 0.33878 0.0
C121 C 0.22107 0.96563 0.29644 0.0
O122 O 0.24722 0.95712 0.32492 0.0
C123 C 0.2181 0.86983 0.42545 0.0
O124 O 0.21365 0.90389 0.41365 0.0
O125 O 0.12512 0.81689 0.36021 0.0
O126 O 0.09763 0.84226 0.30939 0.0
H127 H 0.14811 0.68841 0.3387 0.0
H128 H 0.16767 0.94732 0.36128 0.0
O129 O 0.18254 0.94295 0.28544 0.0
H130 H 0.98434 0.91679 0.35999 0.0
H131 H 0.0419 0.96974 0.22156 0.0
H132 H 0.09178 0.84441 0.2381 0.0
H133 H 0.03361 0.88764 0.31456 0.0
H134 H 0.09739 0.9587 0.27305 0.0
O135 O 0.21114 0.84142 0.4035 0.0
H136 H 0.1433 0.75509 0.32458 0.0
H137 H 0.26497 0.79259 0.39724 0.0
H138 H 0.03568 0.85408 0.18651 0.0
H139 H 0.11996 0.97756 0.40686 0.0
H140 H 0.01029 0.91711 0.178 0.0
H141 H 0.02748 0.96238 0.4065 0.0
O142 O 0.18225 0.86781 0.26278 0.0
H143 H 0.3671 0.91359 0.35159 0.0
H144 H 0.26914 0.79319 0.30647 0.0
H145 H 0.35821 0.80931 0.29072 0.0
H146 H 0.40801 0.8698 0.31355 0.0
H147 H 0.27796 0.89657 0.3662 0.0
H148 H 0.26933 0.72622 0.41354 0.0
H149 H 0.21125 0.67352 0.38368 0.0
O150 O 0.18515 0.81549 0.29606 0.0
C151 C 0.09067 0.81936 0.33685 0.0
C152 C 0.1738 0.7111 0.35178 0.0
C153 C 0.24161 0.73233 0.39392 0.0
N154 N 0.20385 0.77793 0.35998 0.0
C155 C 0.17148 0.74902 0.34372 0.0
C156 C 0.23878 0.76992 0.3847 0.0
C157 C 0.2091 0.70277 0.3771 0.0
C158 C 0.12762 0.94092 0.36042 0.0
N159 N 0.10371 0.91621 0.33462 0.0
C160 C 0.10069 0.95797 0.38656 0.0
C161 C 0.04882 0.94939 0.3864 0.0
C162 C 0.02461 0.92383 0.36034 0.0
C163 C 0.0528 0.90733 0.33466 0.0
C164 C 0.05247 0.94208 0.22508 0.0
C165 C 0.0807 0.87185 0.23473 0.0
C166 C 0.08397 0.93566 0.25416 0.0
N167 N 0.09731 0.90073 0.25893 0.0
C168 C 0.04901 0.87719 0.2054 0.0
C169 C 0.03479 0.91256 0.20063 0.0
C170 C 0.19073 0.83401 0.26577 0.0
C171 C 0.34596 0.88693 0.34184 0.0
C172 C 0.29052 0.81944 0.31682 0.0
C173 C 0.341 0.82846 0.3077 0.0
C174 C 0.36888 0.8624 0.32044 0.0
N175 N 0.26832 0.84339 0.33821 0.0
C176 C 0.29536 0.87697 0.35034 0.0
Co177 Co 0.88104 0.6288 0.28957 0.0
Co178 Co 0.80802 0.67416 0.34611 0.0
O179 O 0.8311 0.62731 0.32969 0.0
C180 C 0.81162 0.5527 0.27951 0.0
O181 O 0.78335 0.55887 0.3075 0.0
C182 C 0.81607 0.67237 0.42781 0.0
O183 O 0.85052 0.70276 0.42423 0.0
O184 O 0.8784 0.69801 0.35661 0.0
O185 O 0.91551 0.68042 0.30572 0.0
H186 H 0.82082 0.81597 0.3552 0.0
H187 H 0.86538 0.56443 0.34373 0.0
O188 O 0.84957 0.57705 0.27035 0.0
H189 H 0.04436 0.618 0.3509 0.0
H190 H 1.00295 0.57619 0.20773 0.0
H191 H 0.92684 0.68845 0.23669 0.0
H192 H 0.98915 0.64575 0.30868 0.0
H193 H 0.93947 0.57323 0.25687 0.0
O194 O 0.79912 0.65399 0.39872 0.0
H195 H 0.84282 0.75615 0.33179 0.0
H196 H 0.72613 0.69235 0.39519 0.0
H197 H 0.9906 0.69273 0.18767 0.0
H198 H 0.91933 0.53547 0.38587 0.0
H199 H 0.02933 0.63639 0.17303 0.0
H200 H 0.00962 0.56224 0.38973 0.0
O201 O 0.83725 0.65226 0.25564 0.0
H202 H 0.65927 0.56937 0.35159 0.0
H203 H 0.72252 0.69907 0.30645 0.0
H204 H 0.63479 0.67046 0.29512 0.0
H205 H 0.60267 0.60507 0.31758 0.0
H206 H 0.74662 0.59939 0.36292 0.0
H207 H 0.70342 0.75147 0.41968 0.0
H208 H 0.75161 0.81384 0.40025 0.0
O209 O 0.81406 0.69537 0.29436 0.0
C210 C 0.91517 0.70108 0.33447 0.0
C211 C 0.79987 0.78894 0.36409 0.0
C212 C 0.73399 0.75275 0.40031 0.0
N213 N 0.78627 0.7207 0.3624 0.0
C214 C 0.81208 0.75495 0.35087 0.0
C215 C 0.74704 0.71936 0.38632 0.0
C216 C 0.76094 0.78773 0.38932 0.0
C217 C 0.90459 0.57594 0.34468 0.0
N218 N 0.92403 0.60624 0.32299 0.0
C219 C 0.935 0.55956 0.36887 0.0
C220 C 0.98563 0.57463 0.37109 0.0
C221 C 1.00514 0.6059 0.34933 0.0
C222 C 0.97359 0.62151 0.32545 0.0
C223 C 0.98641 0.60095 0.21389 0.0
C224 C 0.94347 0.66378 0.23052 0.0
C225 C 0.95025 0.5994 0.24158 0.0
N226 N 0.92966 0.63072 0.24987 0.0
C227 C 0.97952 0.66637 0.20267 0.0
C228 C 1.0012 0.63473 0.19444 0.0
C229 C 0.81875 0.68205 0.26192 0.0
C230 C 0.67287 0.59783 0.34154 0.0
C231 C 0.70891 0.67055 0.31625 0.0
C232 C 0.65914 0.65453 0.3098 0.0
C233 C 0.64113 0.61788 0.32246 0.0
N234 N 0.73969 0.65087 0.33534 0.0
C235 C 0.7223 0.61492 0.3478 0.0
Co236 Co 0.37718 0.85719 0.69616 0.0
Co237 Co 0.31469 0.79379 0.63505 0.0
O238 O 0.33172 0.84657 0.6535 0.0
C239 C 0.30299 0.91142 0.7058 0.0
O240 O 0.27434 0.89505 0.67905 0.0
C241 C 0.31376 0.84438 0.56704 0.0
O242 O 0.34235 0.87273 0.58377 0.0
O243 O 0.38688 0.79426 0.62421 0.0
O244 O 0.41505 0.8161 0.67983 0.0
H245 H 0.34353 0.65921 0.62042 0.0
H246 H 0.36497 0.92078 0.64559 0.0
O247 O 0.34286 0.89937 0.71465 0.0
H248 H 0.54484 0.91637 0.64517 0.0
H249 H 0.48561 0.93899 0.78893 0.0
H250 H 0.41779 0.8078 0.75009 0.0
H251 H 0.48708 0.87099 0.68281 0.0
H252 H 0.43026 0.92698 0.73444 0.0
O253 O 0.30278 0.8122 0.58323 0.0
H254 H 0.36071 0.72477 0.64438 0.0
H255 H 0.23454 0.75081 0.587 0.0
H256 H 0.47361 0.81853 0.80451 0.0
H257 H 0.42148 0.96704 0.608 0.0
H258 H 0.50798 0.88453 0.82422 0.0
H259 H 0.51218 0.965 0.60754 0.0
O260 O 0.32971 0.82034 0.72585 0.0
H261 H 0.15698 0.84938 0.63835 0.0
H262 H 0.23459 0.73952 0.67339 0.0
H263 H 0.14753 0.74052 0.691 0.0
H264 H 0.10804 0.79574 0.67344 0.0
H265 H 0.24428 0.84756 0.62194 0.0
H266 H 0.21624 0.68563 0.56201 0.0
H267 H 0.27092 0.63923 0.5788 0.0
O268 O 0.32374 0.77228 0.68576 0.0
C269 C 0.42078 0.79911 0.64922 0.0
C270 C 0.31957 0.67921 0.61273 0.0
C271 C 0.24821 0.69404 0.57991 0.0
N272 N 0.29922 0.74194 0.61652 0.0
C273 C 0.32918 0.71645 0.62616 0.0
C274 C 0.25901 0.73104 0.59385 0.0
C275 C 0.27884 0.66802 0.58938 0.0
C276 C 0.40435 0.9199 0.64591 0.0
N277 N 0.42256 0.89333 0.66666 0.0
C278 C 0.4362 0.94609 0.62439 0.0
C279 C 0.48707 0.94489 0.6241 0.0
C280 C 0.5054 0.9176 0.64518 0.0
C281 C 0.47243 0.89188 0.66636 0.0
C282 C 0.47099 0.9101 0.78056 0.0
C283 C 0.4328 0.83658 0.7584 0.0
C284 C 0.43949 0.9031 0.74978 0.0
N285 N 0.42108 0.86667 0.73891 0.0
C286 C 0.46429 0.8425 0.78928 0.0
C287 C 0.48352 0.87953 0.80035 0.0
C288 C 0.31575 0.78546 0.7176 0.0
C289 C 0.17375 0.82515 0.64616 0.0
C290 C 0.21791 0.7638 0.6658 0.0
C291 C 0.16844 0.7641 0.67572 0.0
C292 C 0.14632 0.79507 0.66587 0.0
N293 N 0.24485 0.79361 0.64678 0.0
C294 C 0.2232 0.8239 0.6368 0.0
Co295 Co 0.91547 0.88468 0.83662 0.0
Co296 Co 0.80604 0.89365 0.87813 0.0
O297 O 0.87441 0.883 0.8814 0.0
C298 C 0.93305 0.81103 0.8689 0.0
O299 O 0.88467 0.79931 0.87045 0.0
C300 C 0.84702 0.92311 0.95263 0.0
O301 O 0.89278 0.92705 0.94013 0.0
O302 O 0.8327 0.94484 0.85672 0.0
O303 O 0.88318 0.92619 0.81416 0.0
H304 H 0.66376 0.94028 0.81429 0.0
H305 H 0.96689 0.8918 0.9094 0.0
O306 O 0.95035 0.84431 0.8573 0.0
H307 H 0.03552 0.00903 0.84155 0.0
H308 H 0.07352 0.88139 0.7651 0.0
H309 H 0.89389 0.88573 0.75605 0.0
H310 H 0.97238 0.96006 0.8125 0.0
H311 H 0.02292 0.88271 0.82161 0.0
O312 O 0.8103 0.91454 0.93041 0.0
H313 H 0.74891 0.92609 0.81975 0.0
H314 H 0.71922 0.8865 0.93003 0.0
H315 H 0.94317 0.88469 0.69878 0.0
H316 H 0.03069 0.93974 0.93933 0.0
H317 H 0.0337 0.88255 0.7031 0.0
H318 H 0.06529 0.99897 0.90541 0.0
O319 O 0.86384 0.84498 0.81414 0.0
H320 H 0.8047 0.78414 0.96642 0.0
H321 H 0.7221 0.83126 0.85836 0.0
H322 H 0.68956 0.76769 0.88351 0.0
H323 H 0.73055 0.74388 0.93822 0.0
H324 H 0.83667 0.84712 0.93994 0.0
H325 H 0.63396 0.90072 0.9259 0.0
H326 H 0.60556 0.92751 0.8676 0.0
O327 O 0.79714 0.87143 0.82671 0.0
C328 C 0.85851 0.95073 0.82694 0.0
C329 C 0.67563 0.9285 0.8398 0.0
C330 C 0.65894 0.90635 0.90245 0.0
N331 N 0.73898 0.90517 0.87503 0.0
C332 C 0.7238 0.92031 0.84303 0.0
C333 C 0.70736 0.89849 0.90467 0.0
C334 C 0.64302 0.92137 0.86973 0.0
C335 C 0.98194 0.91741 0.89439 0.0
N336 N 0.96552 0.92323 0.85935 0.0
C337 C 0.01798 0.9445 0.91152 0.0
C338 C 0.03733 0.97773 0.89249 0.0
C339 C 0.02058 0.98342 0.85669 0.0
C340 C 0.9845 0.95569 0.84046 0.0
C341 C 0.03416 0.8825 0.76284 0.0
C342 C 0.93332 0.88502 0.75814 0.0
C343 C 1.00529 0.88324 0.79476 0.0
N344 N 0.9556 0.88482 0.79213 0.0
C345 C 0.96101 0.88435 0.72563 0.0
C346 C 0.01179 0.88313 0.72807 0.0
C347 C 0.81777 0.8466 0.81021 0.0
C348 C 0.78624 0.79432 0.94277 0.0
C349 C 0.74037 0.82111 0.88207 0.0
C350 C 0.72169 0.78507 0.89622 0.0
C351 C 0.74471 0.77172 0.92689 0.0
N352 N 0.78074 0.84339 0.8981 0.0
C353 C 0.80399 0.83016 0.92779 0.0
Co354 Co 0.09304 0.63354 0.83182 0.0
Co355 Co 0.2003 0.62679 0.8777 0.0
O356 O 0.13119 0.63597 0.87825 0.0
C357 C 0.07208 0.70482 0.86595 0.0
O358 O 0.12011 0.71464 0.87197 0.0
C359 C 0.15686 0.59971 0.9524 0.0
O360 O 0.11136 0.59792 0.93976 0.0
O361 O 0.17598 0.57521 0.85611 0.0
O362 O 0.12874 0.59326 0.81083 0.0
H363 H 0.34771 0.58228 0.81954 0.0
H364 H 0.03655 0.62431 0.90235 0.0
O365 O 0.05522 0.67288 0.85104 0.0
H366 H 0.97867 0.50652 0.83187 0.0
H367 H 0.93963 0.63456 0.75371 0.0
H368 H 0.12001 0.63169 0.75233 0.0
H369 H 0.04129 0.55748 0.8053 0.0
H370 H 0.98656 0.63438 0.81233 0.0
O371 O 0.19383 0.60605 0.93018 0.0
H372 H 0.26191 0.59571 0.82159 0.0
H373 H 0.28412 0.63524 0.93263 0.0
H374 H 0.07447 0.6316 0.69305 0.0
H375 H 0.97334 0.57423 0.92982 0.0
H376 H 0.9836 0.63306 0.69352 0.0
H377 H 0.94414 0.51474 0.89455 0.0
O378 O 0.1446 0.67444 0.81149 0.0
H379 H 0.19322 0.73715 0.9636 0.0
H380 H 0.28429 0.68989 0.86037 0.0
H381 H 0.31364 0.75406 0.88533 0.0
H382 H 0.26835 0.77798 0.93762 0.0
H383 H 0.16443 0.67366 0.93725 0.0
H384 H 0.36994 0.6219 0.93186 0.0
H385 H 0.4024 0.59545 0.87494 0.0
O386 O 0.21146 0.64906 0.82625 0.0
C387 C 0.15195 0.56877 0.82553 0.0
C388 C 0.33403 0.59389 0.84448 0.0
C389 C 0.34649 0.61606 0.90753 0.0
N390 N 0.26802 0.61642 0.87709 0.0
C391 C 0.2855 0.60162 0.84578 0.0
C392 C 0.29774 0.62342 0.90784 0.0
C393 C 0.36468 0.60125 0.87558 0.0
C394 C 0.02388 0.59856 0.88679 0.0
N395 N 0.04294 0.59373 0.85242 0.0
C396 C 0.98815 0.57028 0.9025 0.0
C397 C 0.97181 0.5369 0.88272 0.0
C398 C 0.99121 0.53225 0.84757 0.0
C399 C 0.0269 0.56114 0.83275 0.0
C400 C 0.97918 0.63382 0.75315 0.0
C401 C 0.08041 0.63205 0.75275 0.0
C402 C 1.00597 0.63375 0.78625 0.0
N403 N 0.0559 0.63266 0.78574 0.0
C404 C 0.05485 0.63211 0.7191 0.0
C405 C 1.00387 0.63297 0.71938 0.0
C406 C 0.19121 0.67414 0.80968 0.0
C407 C 0.21361 0.72691 0.94108 0.0
C408 C 0.26422 0.70002 0.88307 0.0
C409 C 0.28109 0.73643 0.89711 0.0
C410 C 0.25566 0.74984 0.92643 0.0
N411 N 0.22324 0.67743 0.89786 0.0
C412 C 0.19773 0.6907 0.92624 0.0
Co413 Co 0.83027 0.1795 0.64308 0.0
Co414 Co 0.81261 0.16392 0.73623 0.0
O415 O 0.80819 0.14512 0.6848 0.0
C416 C 0.74527 0.15971 0.59052 0.0
O417 O 0.7374 0.19468 0.59501 0.0
C418 C 0.85641 0.0925 0.74418 0.0
O419 O 0.88613 0.10322 0.71606 0.0
O420 O 0.88545 0.18297 0.72958 0.0
O421 O 0.88277 0.21155 0.67437 0.0
H422 H 0.87796 0.25713 0.83625 0.0
H423 H 0.82532 0.09654 0.63366 0.0
O424 O 0.77901 0.14779 0.60974 0.0
H425 H 1.00043 0.15312 0.6089 0.0
H426 H 0.87663 0.21201 0.50995 0.0
H427 H 0.85527 0.26317 0.63486 0.0
H428 H 0.93878 0.19383 0.62407 0.0
H429 H 0.85073 0.1689 0.56245 0.0
O430 O 0.82575 0.11343 0.75478 0.0
H431 H 0.85999 0.2358 0.77175 0.0
H432 H 0.77868 0.1309 0.81015 0.0
H433 H 0.88193 0.3074 0.58333 0.0
H434 H 0.88568 0.05477 0.61813 0.0
H435 H 0.89264 0.28186 0.52026 0.0
H436 H 0.97397 0.08304 0.60573 0.0
O437 O 0.78145 0.21217 0.65861 0.0
H438 H 0.65409 0.06932 0.72277 0.0
H439 H 0.72859 0.1963 0.76942 0.0
H440 H 0.6381 0.17421 0.7758 0.0
H441 H 0.60029 0.11023 0.75254 0.0
H442 H 0.74441 0.09279 0.71645 0.0
H443 H 0.79625 0.15084 0.87504 0.0
H444 H 0.84734 0.21403 0.88833 0.0
O445 O 0.79704 0.21458 0.72 0.0
C446 C 0.90453 0.20671 0.70494 0.0
C447 C 0.85595 0.22945 0.83074 0.0
C448 C 0.81027 0.16973 0.85251 0.0
N449 N 0.81868 0.18209 0.78712 0.0
C450 C 0.84545 0.21733 0.79429 0.0
C451 C 0.80039 0.15862 0.81571 0.0
C452 C 0.83878 0.20523 0.85997 0.0
C453 C 0.86356 0.10907 0.6279 0.0
N454 N 0.87837 0.14758 0.62951 0.0
C455 C 0.89761 0.08527 0.61927 0.0
C456 C 0.94717 0.10114 0.61237 0.0
C457 C 0.96204 0.14046 0.61416 0.0
C458 C 0.92695 0.16336 0.62285 0.0
C459 C 0.87196 0.22351 0.53727 0.0
C460 C 0.85981 0.25185 0.60754 0.0
C461 C 0.85706 0.19921 0.56708 0.0
N462 N 0.85108 0.21347 0.60169 0.0
C463 C 0.87494 0.27703 0.57845 0.0
C464 C 0.88096 0.26268 0.54308 0.0
C465 C 0.77837 0.22671 0.69068 0.0
C466 C 0.67014 0.09722 0.73309 0.0
C467 C 0.71243 0.16844 0.75915 0.0
C468 C 0.66118 0.15604 0.76297 0.0
C469 C 0.63997 0.12018 0.74982 0.0
N470 N 0.74172 0.14586 0.74248 0.0
C471 C 0.72123 0.11064 0.72961 0.0
Co472 Co 0.16612 0.33394 0.64064 0.0
Co473 Co 0.18517 0.35187 0.733 0.0
O474 O 0.18705 0.37063 0.68124 0.0
C475 C 0.24357 0.39561 0.60341 0.0
O476 O 0.24881 0.41892 0.63186 0.0
C477 C 0.14758 0.42709 0.74128 0.0
O478 O 0.12535 0.42272 0.70882 0.0
O479 O 0.11233 0.33231 0.72713 0.0
O480 O 0.11739 0.30111 0.67386 0.0
H481 H 0.12104 0.25899 0.83344 0.0
H482 H 0.15825 0.41625 0.6314 0.0
O483 O 0.21403 0.36379 0.60454 0.0
H484 H 0.99026 0.34514 0.60546 0.0
H485 H 0.12271 0.29403 0.50868 0.0
H486 H 0.14505 0.24965 0.63616 0.0
H487 H 0.05874 0.31127 0.6216 0.0
H488 H 0.14606 0.34002 0.5594 0.0
O489 O 0.17144 0.40185 0.75328 0.0
H490 H 0.13568 0.28084 0.76886 0.0
H491 H 0.22611 0.38263 0.80627 0.0
H492 H 0.12097 0.20266 0.58642 0.0
H493 H 0.09124 0.45118 0.6146 0.0
H494 H 0.10971 0.22478 0.52207 0.0
H495 H 0.00628 0.41565 0.6016 0.0
O496 O 0.21944 0.30536 0.65564 0.0
H497 H 0.34105 0.44865 0.71772 0.0
H498 H 0.27178 0.32043 0.76386 0.0
H499 H 0.36215 0.34391 0.76875 0.0
H500 H 0.39734 0.40853 0.74578 0.0
H501 H 0.2509 0.42381 0.7129 0.0
H502 H 0.21124 0.3625 0.87132 0.0
H503 H 0.15775 0.30041 0.88524 0.0
O504 O 0.20142 0.30136 0.71638 0.0
C505 C 0.09468 0.30673 0.70367 0.0
C506 C 0.14412 0.2862 0.82773 0.0
C507 C 0.19464 0.34431 0.84898 0.0
N508 N 0.18124 0.33316 0.78374 0.0
C509 C 0.15279 0.29862 0.79119 0.0
C510 C 0.20291 0.35558 0.81209 0.0
C511 C 0.1647 0.30947 0.85678 0.0
C512 C 0.12205 0.40041 0.62491 0.0
N513 N 0.11322 0.36163 0.62657 0.0
C514 C 0.0839 0.42043 0.61577 0.0
C515 C 0.03622 0.4005 0.60859 0.0
C516 C 0.02721 0.36097 0.61074 0.0
C517 C 0.06629 0.34195 0.61989 0.0
C518 C 0.12752 0.28403 0.5366 0.0
C519 C 0.14008 0.2595 0.60833 0.0
C520 C 0.14097 0.30995 0.56544 0.0
N521 N 0.14693 0.29755 0.60083 0.0
C522 C 0.1265 0.23276 0.58023 0.0
C523 C 0.12021 0.24519 0.54413 0.0
C524 C 0.22274 0.29075 0.68759 0.0
C525 C 0.32616 0.42047 0.72792 0.0
C526 C 0.28681 0.34854 0.75364 0.0
C527 C 0.33799 0.36174 0.75667 0.0
C528 C 0.35772 0.39796 0.74368 0.0
N529 N 0.25611 0.37074 0.73801 0.0
C530 C 0.27517 0.40629 0.72528 0.0
Co531 Co 0.5943 0.13152 0.3303 0.0
Co532 Co 0.70456 0.12194 0.37057 0.0
O533 O 0.63707 0.1343 0.37431 0.0
C534 C 0.58268 0.2077 0.35912 0.0
O535 O 0.63143 0.21685 0.36071 0.0
C536 C 0.66762 0.10047 0.44844 0.0
O537 O 0.6215 0.10126 0.43846 0.0
O538 O 0.67517 0.06998 0.35182 0.0
O539 O 0.62379 0.08793 0.30932 0.0
H540 H 0.84129 0.06812 0.30719 0.0
H541 H 0.54571 0.12924 0.40387 0.0
O542 O 0.5625 0.17426 0.34953 0.0
H543 H 0.47064 0.00965 0.34225 0.0
H544 H 0.43437 0.13539 0.26099 0.0
H545 H 0.61233 0.12624 0.24957 0.0
H546 H 0.53388 0.05606 0.3102 0.0
H547 H 0.48706 0.13556 0.31678 0.0
O548 O 0.70205 0.10379 0.42403 0.0
H549 H 0.75773 0.08528 0.31285 0.0
H550 H 0.79334 0.12975 0.42085 0.0
H551 H 0.56094 0.12572 0.19304 0.0
H552 H 0.48204 0.08381 0.43685 0.0
H553 H 0.47124 0.13027 0.19856 0.0
H554 H 0.44418 0.02344 0.40604 0.0
O555 O 0.64619 0.16898 0.30556 0.0
H556 H 0.71198 0.2385 0.45077 0.0
H557 H 0.79018 0.18091 0.34691 0.0
H558 H 0.82499 0.24601 0.3669 0.0
H559 H 0.7861 0.2752 0.41939 0.0
H560 H 0.67774 0.17387 0.42944 0.0
H561 H 0.87697 0.11254 0.41656 0.0
H562 H 0.9016 0.08175 0.35929 0.0
O563 O 0.71191 0.14133 0.31799 0.0
C564 C 0.64809 0.06333 0.32261 0.0
C565 C 0.83104 0.0816 0.33225 0.0
C566 C 0.85105 0.10648 0.39365 0.0
N567 N 0.77065 0.10867 0.36705 0.0
C568 C 0.7838 0.09146 0.33559 0.0
C569 C 0.80351 0.11599 0.39597 0.0
C570 C 0.86485 0.08922 0.36151 0.0
C571 C 0.52932 0.10306 0.39028 0.0
N572 N 0.54392 0.09517 0.35531 0.0
C573 C 0.49333 0.07743 0.40909 0.0
C574 C 0.47213 0.04356 0.3918 0.0
C575 C 0.48702 0.03577 0.35604 0.0
C576 C 0.52313 0.06207 0.33811 0.0
C577 C 0.47334 0.13318 0.25823 0.0
C578 C 0.57326 0.12797 0.25219 0.0
C579 C 0.50337 0.13324 0.28972 0.0
N580 N 0.55256 0.13026 0.28645 0.0
C581 C 0.54437 0.12777 0.22009 0.0
C582 C 0.49406 0.13034 0.22321 0.0
C583 C 0.69184 0.16639 0.3013 0.0
C584 C 0.72959 0.22595 0.42812 0.0
C585 C 0.77302 0.19325 0.36986 0.0
C586 C 0.79294 0.23021 0.38103 0.0
C587 C 0.77109 0.24657 0.41045 0.0
N588 N 0.73255 0.17298 0.38755 0.0
C589 C 0.7106 0.1891 0.41611 0.0
Co590 Co 0.63702 0.66425 0.69317 0.0
Co591 Co 0.70011 0.72656 0.63176 0.0
O592 O 0.68255 0.67397 0.65054 0.0
C593 C 0.70965 0.60883 0.70392 0.0
O594 O 0.73887 0.62441 0.6772 0.0
C595 C 0.70049 0.67636 0.56321 0.0
O596 O 0.66733 0.64884 0.57693 0.0
O597 O 0.628 0.72656 0.62057 0.0
O598 O 0.60036 0.70597 0.6767 0.0
H599 H 0.67707 0.86274 0.61946 0.0
H600 H 0.648 0.60047 0.64266 0.0
O601 O 0.67012 0.62159 0.71212 0.0
H602 H 0.46876 0.6072 0.6413 0.0
H603 H 0.52733 0.5842 0.78615 0.0
H604 H 0.59776 0.71465 0.74678 0.0
H605 H 0.52717 0.65178 0.67944 0.0
H606 H 0.58231 0.59521 0.73153 0.0
O607 O 0.7126 0.70765 0.58065 0.0
H608 H 0.65789 0.79707 0.64287 0.0
H609 H 0.77684 0.76713 0.5796 0.0
H610 H 0.54237 0.70492 0.8013 0.0
H611 H 0.59083 0.55499 0.60454 0.0
H612 H 0.50675 0.63929 0.82132 0.0
H613 H 0.50046 0.55821 0.60362 0.0
O614 O 0.6851 0.70087 0.72283 0.0
H615 H 0.85732 0.67045 0.63599 0.0
H616 H 0.78059 0.78121 0.6693 0.0
H617 H 0.8681 0.7806 0.68624 0.0
H618 H 0.90714 0.72494 0.66951 0.0
H619 H 0.76967 0.672 0.62006 0.0
H620 H 0.79688 0.8324 0.55517 0.0
H621 H 0.747 0.88082 0.57523 0.0
O622 O 0.69132 0.74849 0.68219 0.0
C623 C 0.59485 0.72287 0.64603 0.0
C624 C 0.6991 0.84191 0.61051 0.0
C625 C 0.76629 0.82486 0.57439 0.0
N626 N 0.71618 0.77815 0.61269 0.0
C627 C 0.68845 0.80463 0.62372 0.0
C628 C 0.75458 0.78785 0.58821 0.0
C629 C 0.73831 0.85203 0.58568 0.0
C630 C 0.60873 0.60179 0.64282 0.0
N631 N 0.59102 0.62852 0.66362 0.0
C632 C 0.57652 0.57607 0.62099 0.0
C633 C 0.52584 0.57793 0.62043 0.0
C634 C 0.50804 0.60541 0.64155 0.0
C635 C 0.54135 0.63065 0.66305 0.0
C636 C 0.54251 0.61293 0.77765 0.0
C637 C 0.58216 0.68603 0.75518 0.0
C638 C 0.5738 0.61936 0.74679 0.0
N639 N 0.59301 0.65559 0.73581 0.0
C640 C 0.55093 0.68068 0.78613 0.0
C641 C 0.53099 0.64385 0.79738 0.0
C642 C 0.69868 0.73573 0.71435 0.0
C643 C 0.84075 0.69487 0.64343 0.0
C644 C 0.79712 0.75677 0.66206 0.0
C645 C 0.8468 0.75666 0.67164 0.0
C646 C 0.86868 0.72544 0.66225 0.0
N647 N 0.7698 0.72657 0.64377 0.0
C648 C 0.79111 0.69594 0.6344 0.0
Co649 Co 0.64548 0.39312 0.80076 0.0
Co650 Co 0.69913 0.32897 0.84936 0.0
O651 O 0.69343 0.38223 0.83865 0.0
C652 C 0.70427 0.45488 0.75637 0.0
O653 O 0.69885 0.43068 0.7286 0.0
C654 C 0.72537 0.37042 0.92333 0.0
O655 O 0.71705 0.40319 0.91056 0.0
O656 O 0.62712 0.31818 0.8623 0.0
O657 O 0.5991 0.3439 0.81159 0.0
H658 H 0.63913 0.18774 0.84454 0.0
H659 H 0.67892 0.45099 0.85832 0.0
O660 O 0.68949 0.44341 0.78881 0.0
H661 H 0.49635 0.41999 0.87224 0.0
H662 H 0.54002 0.47436 0.73285 0.0
H663 H 0.59266 0.34917 0.73834 0.0
H664 H 0.53914 0.38862 0.8241 0.0
H665 H 0.59926 0.46082 0.78071 0.0
O666 O 0.71716 0.34078 0.90294 0.0
H667 H 0.63948 0.25447 0.82727 0.0
H668 H 0.7672 0.2897 0.8948 0.0
H669 H 0.53271 0.3612 0.69035 0.0
H670 H 0.63757 0.48342 0.90658 0.0
H671 H 0.50593 0.42423 0.68738 0.0
H672 H 0.5456 0.46795 0.91376 0.0
O673 O 0.6811 0.36635 0.76338 0.0
H674 H 0.87167 0.40718 0.84516 0.0
H675 H 0.76506 0.28873 0.80375 0.0
H676 H 0.85249 0.30282 0.78364 0.0
H677 H 0.90687 0.36204 0.80492 0.0
H678 H 0.78358 0.3928 0.86348 0.0
H679 H 0.76597 0.22356 0.91469 0.0
H680 H 0.70237 0.17189 0.88884 0.0
O681 O 0.68257 0.31373 0.79664 0.0
C682 C 0.59285 0.32036 0.83866 0.0
C683 C 0.66731 0.20997 0.85573 0.0
C684 C 0.73853 0.23006 0.89506 0.0
N685 N 0.70304 0.27621 0.86026 0.0
C686 C 0.66787 0.24789 0.84594 0.0
C687 C 0.73869 0.26755 0.88399 0.0
C688 C 0.70272 0.2011 0.88066 0.0
C689 C 0.63888 0.44428 0.86118 0.0
N690 N 0.61151 0.41815 0.83827 0.0
C691 C 0.61567 0.46265 0.8886 0.0
C692 C 0.56409 0.45393 0.89264 0.0
C693 C 0.53643 0.42701 0.86936 0.0
C694 C 0.56092 0.40922 0.84224 0.0
C695 C 0.55113 0.4467 0.73398 0.0
C696 C 0.58078 0.37644 0.73755 0.0
C697 C 0.58471 0.43885 0.76105 0.0
N698 N 0.59882 0.40392 0.76282 0.0
C699 C 0.54701 0.38321 0.71015 0.0
C700 C 0.53206 0.41858 0.70847 0.0
C701 C 0.6867 0.33178 0.76603 0.0
C702 C 0.84859 0.38099 0.83616 0.0
C703 C 0.78829 0.31462 0.81321 0.0
C704 C 0.83789 0.3224 0.80169 0.0
C705 C 0.86828 0.3557 0.81349 0.0
N706 N 0.76921 0.33945 0.83569 0.0
C707 C 0.79863 0.37248 0.84681 0.0
Co708 Co 0.36418 0.12912 0.79809 0.0
Co709 Co 0.31049 0.19469 0.84376 0.0
O710 O 0.31487 0.14091 0.83436 0.0
C711 C 0.30669 0.06653 0.7538 0.0
O712 O 0.31326 0.09004 0.72551 0.0
C713 C 0.29748 0.15851 0.91989 0.0
O714 O 0.33131 0.13738 0.91284 0.0
O715 O 0.38162 0.20406 0.85921 0.0
O716 O 0.41071 0.17833 0.80912 0.0
H717 H 0.37704 0.33491 0.83829 0.0
H718 H 0.32836 0.07251 0.85616 0.0
O719 O 0.32031 0.07876 0.78627 0.0
H720 H 0.51054 0.1025 0.87354 0.0
H721 H 0.47185 0.04667 0.73458 0.0
H722 H 0.41992 0.17224 0.73666 0.0
H723 H 0.46972 0.13339 0.82383 0.0
H724 H 0.41044 0.06083 0.78031 0.0
O725 O 0.28802 0.18265 0.89612 0.0
H726 H 0.37364 0.26769 0.82182 0.0
H727 H 0.24262 0.23691 0.8862 0.0
H728 H 0.48205 0.15956 0.69077 0.0
H729 H 0.36779 0.04044 0.90588 0.0
H730 H 0.50852 0.09637 0.68957 0.0
H731 H 0.45953 0.05545 0.91485 0.0
O732 O 0.32964 0.15528 0.75941 0.0
H733 H 0.13673 0.11988 0.83947 0.0
H734 H 0.24744 0.23497 0.79476 0.0
H735 H 0.16039 0.22087 0.77284 0.0
H736 H 0.10413 0.16357 0.79575 0.0
H737 H 0.22467 0.13397 0.85937 0.0
H738 H 0.2473 0.30335 0.90617 0.0
H739 H 0.31388 0.35318 0.88115 0.0
O740 O 0.33032 0.209 0.79127 0.0
C741 C 0.41667 0.20149 0.83652 0.0
C742 C 0.34753 0.31352 0.84912 0.0
C743 C 0.27467 0.29582 0.88711 0.0
N744 N 0.30831 0.248 0.85354 0.0
C745 C 0.34519 0.27531 0.83973 0.0
C746 C 0.27263 0.25807 0.87622 0.0
C747 C 0.31219 0.32374 0.87322 0.0
C748 C 0.36835 0.07891 0.85969 0.0
N749 N 0.39667 0.10454 0.83692 0.0
C750 C 0.39044 0.06079 0.88798 0.0
C751 C 0.44191 0.06926 0.89303 0.0
C752 C 0.47054 0.09568 0.86989 0.0
C753 C 0.44716 0.11321 0.84187 0.0
C754 C 0.46083 0.07438 0.73493 0.0
C755 C 0.43152 0.14483 0.73654 0.0
C756 C 0.42599 0.08257 0.76076 0.0
N757 N 0.41205 0.11759 0.76157 0.0
C758 C 0.46657 0.13773 0.71037 0.0
C759 C 0.48136 0.10227 0.70968 0.0
C760 C 0.32428 0.18998 0.76121 0.0
C761 C 0.16077 0.14521 0.82953 0.0
C762 C 0.22334 0.20971 0.80467 0.0
C763 C 0.17395 0.20212 0.79242 0.0
C764 C 0.14248 0.16974 0.80507 0.0
N765 N 0.24116 0.18528 0.82834 0.0
C766 C 0.21056 0.15339 0.84078 0.0
Co767 Co 0.42442 0.39243 0.33296 0.0
Co768 Co 0.31268 0.38306 0.37775 0.0
O769 O 0.38413 0.38126 0.37752 0.0
C770 C 0.44899 0.31857 0.3571 0.0
O771 O 0.40084 0.30653 0.35977 0.0
C772 C 0.30369 0.42357 0.45012 0.0
O773 O 0.28416 0.44946 0.43211 0.0
O774 O 0.3274 0.4375 0.36119 0.0
O775 O 0.38539 0.43302 0.31785 0.0
H776 H 0.15301 0.41522 0.32679 0.0
H777 H 0.47313 0.39359 0.40653 0.0
O778 O 0.46507 0.35269 0.34716 0.0
H779 H 0.53114 0.52082 0.35349 0.0
H780 H 0.58344 0.41145 0.25885 0.0
H781 H 0.40142 0.40645 0.25436 0.0
H782 H 0.47371 0.47255 0.31839 0.0
H783 H 0.53286 0.3996 0.31572 0.0
O784 O 0.31977 0.39746 0.43198 0.0
H785 H 0.24262 0.41174 0.32617 0.0
H786 H 0.23024 0.35859 0.43203 0.0
H787 H 0.45062 0.41879 0.19684 0.0
H788 H 0.53101 0.44087 0.44253 0.0
H789 H 0.54232 0.42131 0.19887 0.0
H790 H 0.56035 0.50503 0.416 0.0
O791 O 0.37748 0.35312 0.30543 0.0
H792 H 0.34288 0.26829 0.44961 0.0
H793 H 0.23958 0.31515 0.35342 0.0
H794 H 0.22367 0.24726 0.37012 0.0
H795 H 0.27525 0.22342 0.41877 0.0
H796 H 0.35841 0.33581 0.43126 0.0
H797 H 0.14054 0.36164 0.43387 0.0
H798 H 0.1013 0.39009 0.38095 0.0
O799 O 0.30435 0.36679 0.32438 0.0
C800 C 0.35322 0.45055 0.3328 0.0
C801 C 0.16969 0.40287 0.35008 0.0
C802 C 0.1627 0.37286 0.41018 0.0
N803 N 0.24189 0.38548 0.37922 0.0
C804 C 0.22046 0.40088 0.34991 0.0
C805 C 0.21359 0.37137 0.40905 0.0
C806 C 0.14071 0.38878 0.38047 0.0
C807 C 0.48583 0.42144 0.39481 0.0
N808 N 0.46998 0.43034 0.36042 0.0
C809 C 0.51854 0.4481 0.41532 0.0
C810 C 0.53496 0.4841 0.40044 0.0
C811 C 0.51854 0.493 0.36538 0.0
C812 C 0.4858 0.46562 0.3457 0.0
C813 C 0.54352 0.41046 0.25761 0.0
C814 C 0.44135 0.40776 0.25548 0.0
C815 C 0.51468 0.40365 0.2897 0.0
N816 N 0.46429 0.40257 0.28837 0.0
C817 C 0.46899 0.41464 0.22282 0.0
C818 C 0.52043 0.41601 0.22397 0.0
C819 C 0.33012 0.34889 0.30344 0.0
C820 C 0.31976 0.2784 0.42868 0.0
C821 C 0.2622 0.3051 0.37467 0.0
C822 C 0.25297 0.26657 0.38401 0.0
C823 C 0.28192 0.25322 0.41129 0.0
N824 N 0.29912 0.32975 0.39209 0.0
C825 C 0.32799 0.31672 0.41852 0.0
Co826 Co 0.32192 0.67607 0.13927 0.0
Co827 Co 0.3244 0.6652 0.23388 0.0
O828 O 0.30829 0.64382 0.18403 0.0
C829 C 0.22743 0.65535 0.09681 0.0
O830 O 0.22072 0.69053 0.10189 0.0
C831 C 0.3144 0.58214 0.24811 0.0
O832 O 0.27238 0.57802 0.22942 0.0
O833 O 0.39432 0.68297 0.21794 0.0
O834 O 0.38165 0.70881 0.1629 0.0
H835 H 0.31731 0.75187 0.34376 0.0
H836 H 0.31354 0.59247 0.13421 0.0
O837 O 0.26369 0.64365 0.11313 0.0
H838 H 0.47764 0.64442 0.08064 0.0
H839 H 0.33601 0.70167 1.00149 0.0
H840 H 0.34502 0.75928 0.12629 0.0
H841 H 0.42301 0.68728 0.1045 0.0
H842 H 0.32437 0.66132 0.05735 0.0
O843 O 0.34204 0.61486 0.25064 0.0
H844 H 0.28688 0.72109 0.28486 0.0
H845 H 0.40521 0.65743 0.28644 0.0
H846 H 0.35766 0.80072 0.07117 0.0
H847 H 0.36709 0.54854 0.11081 0.0
H848 H 0.35286 0.77195 1.00818 0.0
H849 H 0.44977 0.5745 0.08374 0.0
O850 O 0.27838 0.71063 0.15968 0.0
H851 H 0.13725 0.63884 0.21867 0.0
H852 H 0.27652 0.63413 0.30505 0.0
H853 H 0.19034 0.61579 0.32705 0.0
H854 H 0.11982 0.61824 0.28383 0.0
H855 H 0.22386 0.65746 0.19786 0.0
H856 H 0.43442 0.68593 0.34642 0.0
H857 H 0.39031 0.73379 0.37544 0.0
O858 O 0.30644 0.71554 0.21856 0.0
C859 C 0.40864 0.70555 0.19131 0.0
C860 C 0.33593 0.73058 0.33168 0.0
C861 C 0.4019 0.69369 0.33317 0.0
N862 N 0.34373 0.68691 0.28233 0.0
C863 C 0.31933 0.7133 0.2981 0.0
C864 C 0.3848 0.67734 0.29933 0.0
C865 C 0.37724 0.72055 0.34939 0.0
C866 C 0.34948 0.60396 0.12247 0.0
N867 N 0.36505 0.64238 0.12061 0.0
C868 C 0.37964 0.57895 0.10927 0.0
C869 C 0.42603 0.59353 0.0941 0.0
C870 C 0.44169 0.63275 0.09236 0.0
C871 C 0.41063 0.65688 0.10598 0.0
C872 C 0.33813 0.71456 0.02878 0.0
C873 C 0.34315 0.74649 0.09902 0.0
C874 C 0.33138 0.69184 0.06054 0.0
N875 N 0.3337 0.70785 0.09514 0.0
C876 C 0.35028 0.77013 0.06788 0.0
C877 C 0.34759 0.75398 0.03255 0.0
C878 C 0.28305 0.72715 0.1912 0.0
C879 C 0.16766 0.63824 0.23794 0.0
C880 C 0.24627 0.63617 0.28613 0.0
C881 C 0.19741 0.62531 0.29873 0.0
C882 C 0.15788 0.62659 0.27446 0.0
N883 N 0.25574 0.6486 0.25046 0.0
C884 C 0.21701 0.64905 0.22635 0.0
Co885 Co 0.68509 0.84077 0.13898 0.0
Co886 Co 0.68471 0.8466 0.23334 0.0
O887 O 0.6988 0.87101 0.1846 0.0
C888 C 0.77771 0.8651 0.09569 0.0
O889 O 0.78588 0.83013 0.09952 0.0
C890 C 0.64514 0.91954 0.24161 0.0
O891 O 0.62162 0.91219 0.2099 0.0
O892 O 0.61354 0.8301 0.21841 0.0
O893 O 0.62786 0.80575 0.16298 0.0
H894 H 0.6101 0.74012 0.31814 0.0
H895 H 0.69003 0.92412 0.13521 0.0
O896 O 0.741 0.87544 0.11262 0.0
H897 H 0.52133 0.86932 0.0913 0.0
H898 H 0.66347 0.82066 1.00082 0.0
H899 H 0.669 0.7582 0.12243 0.0
H900 H 0.58075 0.82768 0.10939 0.0
H901 H 0.67603 0.85865 0.05824 0.0
O902 O 0.67049 0.8958 0.25473 0.0
H903 H 0.63244 0.77069 0.25778 0.0
H904 H 0.70366 0.87113 0.31224 0.0
H905 H 0.65531 0.71899 0.06583 0.0
H906 H 0.63192 0.96684 0.11702 0.0
H907 H 0.65284 0.75025 1.00438 0.0
H908 H 0.54684 0.93945 0.09498 0.0
O909 O 0.73188 0.80742 0.15695 0.0
H910 H 0.84723 0.93747 0.24281 0.0
H911 H 0.76054 0.80739 0.26959 0.0
H912 H 0.84933 0.82557 0.28574 0.0
H913 H 0.89338 0.89104 0.27239 0.0
H914 H 0.75831 0.91794 0.22675 0.0
H915 H 0.67988 0.84223 0.37311 0.0
H916 H 0.63309 0.77615 0.37637 0.0
O917 O 0.70082 0.79722 0.21434 0.0
C918 C 0.5999 0.8078 0.19114 0.0
C919 C 0.63044 0.76894 0.31708 0.0
C920 C 0.6696 0.82625 0.34792 0.0
N921 N 0.66931 0.82274 0.28137 0.0
C922 C 0.64349 0.78637 0.28296 0.0
C923 C 0.68269 0.84257 0.31333 0.0
C924 C 0.64335 0.78918 0.34974 0.0
C925 C 0.65326 0.91201 0.12524 0.0
N926 N 0.63896 0.87348 0.12315 0.0
C927 C 0.62045 0.93633 0.11514 0.0
C928 C 0.57268 0.92095 0.10285 0.0
C929 C 0.55833 0.8816 0.10081 0.0
C930 C 0.59211 0.85816 0.11119 0.0
C931 C 0.66433 0.80668 0.02742 0.0
C932 C 0.66728 0.77199 0.09591 0.0
C933 C 0.6715 0.82807 0.06006 0.0
N934 N 0.67289 0.81069 0.09379 0.0
C935 C 0.65976 0.74965 0.0639 0.0
C936 C 0.65838 0.76719 0.02944 0.0
C937 C 0.72715 0.78889 0.18732 0.0
C938 C 0.82845 0.90888 0.24881 0.0
C939 C 0.77934 0.83596 0.26365 0.0
C940 C 0.82968 0.84609 0.27291 0.0
C941 C 0.85434 0.88282 0.2654 0.0
N942 N 0.7542 0.86165 0.2473 0.0
C943 C 0.7781 0.8977 0.23986 0.0
C944 C 0.22916 0.29882 0.2391 0.0
C945 C 0.24344 0.26324 0.23364 0.0
C946 C 0.25789 0.3267 0.26126 0.0
C947 C 0.30287 0.32047 0.2775 0.0
H948 H 0.19521 0.30492 0.22656 0.0
H949 H 0.24485 0.35336 0.26565 0.0
S950 S 0.3577 0.23253 0.2696 0.0
N951 N 0.30551 0.22335 0.24532 0.0
N952 N 0.36071 0.27619 0.2857 0.0
C953 C 0.31812 0.28527 0.27131 0.0
C954 C 0.28806 0.25652 0.24972 0.0
C955 C 0.74671 0.25993 0.25552 0.0
C956 C 0.78668 0.25055 0.23497 0.0
C957 C 0.71529 0.23218 0.27602 0.0
C958 C 0.72343 0.1943 0.27729 0.0
H959 H 0.73878 0.28864 0.25486 0.0
H960 H 0.68486 0.24062 0.29144 0.0
S961 S 0.82419 0.1557 0.2291 0.0
N962 N 0.83312 0.20105 0.21727 0.0
N963 N 0.77508 0.14915 0.25669 0.0
C964 C 0.7639 0.1848 0.25737 0.0
C965 C 0.79522 0.21285 0.23595 0.0
C966 C 0.28477 0.7943 0.21024 0.0
C967 C 0.25716 0.7594 0.1984 0.0
C968 C 0.26123 0.82183 0.22728 0.0
C969 C 0.20975 0.81454 0.23433 0.0
H970 H 0.3251 0.79927 0.20859 0.0
H971 H 0.28416 0.8471 0.23855 0.0
S972 S 0.12042 0.72927 0.20544 0.0
N973 N 0.17504 0.72108 0.19075 0.0
N974 N 0.13139 0.77155 0.22542 0.0
C975 C 0.1814 0.78101 0.2202 0.0
C976 C 0.20505 0.75364 0.20163 0.0
C977 C 0.82799 0.73786 0.22 0.0
C978 C 0.80045 0.70268 0.231 0.0
C979 C 0.80504 0.76463 0.20112 0.0
C980 C 0.75378 0.75697 0.19325 0.0
H981 H 0.86646 0.74582 0.22844 0.0
H982 H 0.82635 0.79268 0.19598 0.0
S983 S 0.66743 0.66678 0.2109 0.0
N984 N 0.72135 0.65955 0.22804 0.0
N985 N 0.67767 0.71035 0.19379 0.0
C986 C 0.72706 0.72066 0.20114 0.0
C987 C 0.75061 0.69327 0.21971 0.0
C988 C 0.29645 0.72165 0.74763 0.0
C989 C 0.28718 0.75908 0.74451 0.0
C990 C 0.26556 0.69445 0.76907 0.0
C991 C 0.22319 0.70332 0.78707 0.0
H992 H 0.32757 0.71323 0.73303 0.0
H993 H 0.27426 0.66601 0.77083 0.0
S994 S 0.1824 0.79733 0.78728 0.0
N995 N 0.23325 0.80384 0.7615 0.0
N996 N 0.17414 0.75248 0.8008 0.0
C997 C 0.21361 0.74073 0.78422 0.0
C998 C 0.24591 0.76868 0.76324 0.0
C999 C 0.76536 0.75358 0.76194 0.0
C1000 C 0.72498 0.76286 0.74166 0.0
C1001 C 0.79594 0.78111 0.78343 0.0
C1002 C 0.78655 0.81862 0.78589 0.0
H1003 H 0.77455 0.7253 0.76004 0.0
H1004 H 0.8269 0.77287 0.79844 0.0
S1005 S 0.68414 0.85666 0.73888 0.0
N1006 N 0.67666 0.81175 0.72569 0.0
N1007 N 0.73315 0.86318 0.76668 0.0
C1008 C 0.74549 0.82788 0.76637 0.0
C1009 C 0.71499 0.80008 0.74408 0.0
C1010 C 0.67662 0.27375 0.72742 0.0
C1011 C 0.70169 0.31101 0.73389 0.0
C1012 C 0.69979 0.24747 0.70823 0.0
C1013 C 0.74918 0.25735 0.6959 0.0
H1014 H 0.64064 0.26392 0.74009 0.0
H1015 H 0.68068 0.21833 0.70616 0.0
S1016 S 0.82724 0.35301 0.70012 0.0
N1017 N 0.77516 0.35812 0.72144 0.0
N1018 N 0.81971 0.30811 0.68668 0.0
C1019 C 0.77266 0.29544 0.69885 0.0
C1020 C 0.74853 0.32251 0.71755 0.0
C1021 C 0.30369 0.27183 0.7024 0.0
C1022 C 0.25326 0.26094 0.69288 0.0
C1023 C 0.32946 0.24657 0.72087 0.0
C1024 C 0.30601 0.20928 0.72921 0.0
H1025 H 0.32188 0.30104 0.69877 0.0
H1026 H 0.36644 0.25727 0.73157 0.0
S1027 S 0.1776 0.16487 0.70308 0.0
N1028 N 0.18275 0.20931 0.68867 0.0
N1029 N 0.23225 0.16099 0.7213 0.0
C1030 C 0.25775 0.19667 0.71543 0.0
C1031 C 0.23094 0.22282 0.69783 0.0
C1032 C 0.24396 0.03674 0.30232 0.0
C1033 C 0.22962 1.0044 0.27998 0.0
C1034 C 0.24067 0.07336 0.28906 0.0
C1035 C 0.22322 0.07908 0.25288 0.0
H1036 H 0.25464 0.03358 0.33098 0.0
H1037 H 0.24958 0.09709 0.30804 0.0
S1038 S 0.18882 1.0038 0.18157 0.0
N1039 N 0.20291 0.98071 0.2187 0.0
N1040 N 0.19745 0.04903 0.19365 0.0
C1041 C 0.21268 0.04708 0.22943 0.0
C1042 C 0.21566 0.00993 0.24302 0.0
C1043 C 0.80204 0.47745 0.20423 0.0
C1044 C 0.80669 0.44442 0.22433 0.0
C1045 C 0.80193 0.51229 0.22242 0.0
C1046 C 0.80468 0.51501 0.26136 0.0
H1047 H 0.80119 0.47685 0.17417 0.0
H1048 H 0.80079 0.53748 0.20589 0.0
S1049 S 0.81485 0.43664 0.32678 0.0
N1050 N 0.81301 0.41657 0.28535 0.0
N1051 N 0.81061 0.48165 0.31945 0.0
C1052 C 0.80708 0.48192 0.28182 0.0
C1053 C 0.80864 0.44672 0.26332 0.0
C1054 C 0.2883 0.13757 0.9868 0.0
C1055 C 0.27039 0.1556 0.95605 0.0
C1056 C 0.26568 0.13781 0.02188 0.0
C1057 C 0.22477 0.15645 0.02751 0.0
H1058 H 0.32096 0.12424 0.9841 0.0
H1059 H 0.28182 0.12493 0.04513 0.0
S1060 S 0.1586 0.20274 0.95567 0.0
N1061 N 0.20437 0.18791 0.93314 0.0
N1062 N 0.16452 0.19033 0.99937 0.0
C1063 C 0.20516 0.17305 0.99694 0.0
C1064 C 0.22722 0.17204 0.96113 0.0
C1065 C 0.78198 0.32698 1.00617 0.0
C1066 C 0.80295 0.35842 0.02802 0.0
C1067 C 0.75613 0.33137 0.97326 0.0
C1068 C 0.75029 0.36749 0.96001 0.0
H1069 H 0.78503 0.29837 0.01459 0.0
H1070 H 0.74057 0.30588 0.95814 0.0
S1071 S 0.7988 0.45956 1.00606 0.0
N1072 N 0.81627 0.42737 0.03374 0.0
N1073 N 0.76845 0.43564 0.97137 0.0
C1074 C 0.77136 0.39938 0.98131 0.0
C1075 C 0.79761 0.39487 0.01522 0.0
C1076 C 0.29327 0.88741 0.51547 0.0
C1077 C 0.28917 0.85062 0.53085 0.0
C1078 C 0.26861 0.89396 0.48222 0.0
C1079 C 0.23862 0.864 0.46306 0.0
H1080 H 0.31582 0.91145 0.52911 0.0
H1081 H 0.27413 0.92252 0.47102 0.0
S1082 S 0.21335 0.76262 0.49205 0.0
N1083 N 0.25213 0.78395 0.52373 0.0
N1084 N 0.20393 0.79653 0.46321 0.0
C1085 C 0.23313 0.82735 0.47866 0.0
C1086 C 0.25888 0.82059 0.51193 0.0
C1087 C 0.77903 0.69071 0.52653 0.0
C1088 C 0.73003 0.67049 0.52958 0.0
C1089 C 0.80752 0.68875 0.49455 0.0
C1090 C 0.78842 0.66669 0.46373 0.0
H1091 H 0.7956 0.70883 0.54895 0.0
H1092 H 0.84435 0.70598 0.49359 0.0
S1093 S 0.66356 0.60534 0.45864 0.0
N1094 N 0.66479 0.62523 0.50013 0.0
N1095 N 0.71814 0.62169 0.43954 0.0
C1096 C 0.74035 0.64455 0.46708 0.0
C1097 C 0.71125 0.64643 0.50005 0.0
C1098 C 0.98658 0.2575 0.17954 0.0
C1099 C 0.96932 0.27218 0.14663 0.0
C1100 C 0.02793 0.23897 0.17976 0.0
C1101 C 0.05482 0.23449 0.14713 0.0
H1102 H 0.9679 0.26024 0.20567 0.0
H1103 H 0.03924 0.22861 0.20615 0.0
S1104 S 0.02475 0.26727 0.05313 0.0
N1105 N 0.98171 0.28029 0.08017 0.0
N1106 N 0.06018 0.24596 0.08048 0.0
C1107 C 0.0377 0.24866 0.11377 0.0
C1108 C 0.99484 0.26725 0.11353 0.0
C1109 C 0.99325 0.73392 0.36557 0.0
C1110 C 0.95618 0.73357 0.33838 0.0
C1111 C 0.03598 0.76246 0.36573 0.0
C1112 C 0.04294 0.7916 0.33872 0.0
H1113 H 0.99011 0.71128 0.3859 0.0
H1114 H 0.06435 0.76094 0.38653 0.0
S1115 S 0.95343 0.80383 0.26323 0.0
N1116 N 0.92723 0.765 0.28521 0.0
N1117 N 0.00626 0.8187 0.28532 0.0
C1118 C 1.0046 0.79194 0.31231 0.0
C1119 C 0.96161 0.76287 0.31216 0.0
C1120 C 0.53911 0.76218 0.67606 0.0
C1121 C 0.55239 0.74408 0.64386 0.0
C1122 C 0.49756 0.7804 0.67685 0.0
C1123 C 0.46639 0.78105 0.6456 0.0
H1124 H 0.56106 0.7622 0.7012 0.0
H1125 H 0.4895 0.79347 0.70275 0.0
S1126 S 0.48552 0.73835 0.55378 0.0
N1127 N 0.53217 0.72867 0.5794 0.0
N1128 N 0.45301 0.76235 0.58084 0.0
C1129 C 0.47969 0.76351 0.61283 0.0
C1130 C 0.52289 0.74529 0.61194 0.0
C1131 C 0.83209 0.04861 0.79836 0.0
C1132 C 0.85793 0.05616 0.76448 0.0
C1133 C 0.83248 0.01475 0.81823 0.0
C1134 C 0.85856 0.9866 0.80516 0.0
H1135 H 0.8114 0.06914 0.80993 0.0
H1136 H 0.81207 0.01071 0.84411 0.0
S1137 S 0.93078 0.99158 0.71695 0.0
N1138 N 0.9095 0.03211 0.71835 0.0
N1139 N 0.90999 0.96857 0.75504 0.0
C1140 C 0.8842 0.99367 0.77101 0.0
C1141 C 0.88398 0.02831 0.75092 0.0
C1142 C 0.13776 0.52951 0.76705 0.0
C1143 C 0.15169 0.53231 0.8049 0.0
C1144 C 0.13587 0.49548 0.74693 0.0
C1145 C 0.14763 0.46252 0.76368 0.0
H1146 H 0.1285 0.55395 0.75255 0.0
H1147 H 0.12567 0.49524 0.71784 0.0
S1148 S 0.18208 0.45352 0.86292 0.0
N1149 N 0.1751 0.49832 0.85869 0.0
N1150 N 0.17057 0.43448 0.82139 0.0
C1151 C 0.16058 0.46472 0.80174 0.0
C1152 C 0.1629 0.49948 0.82215 0.0
C1153 C 0.77501 0.91092 0.04314 0.0
C1154 C 0.80214 0.88821 0.06426 0.0
C1155 C 0.79158 0.92459 1.00791 0.0
C1156 C 0.83672 0.91722 0.99296 0.0
H1157 H 0.73891 0.91583 0.05252 0.0
H1158 H 0.76762 0.9394 0.99145 0.0
S1159 S 0.92537 0.86435 0.03972 0.0
N1160 N 0.87883 0.86248 0.06937 0.0
N1161 N 0.9108 0.88925 1.00396 0.0
C1162 C 0.86638 0.89763 0.01533 0.0
C1163 C 0.8489 0.88289 0.05076 0.0
C1164 C 0.21129 0.59664 1.00828 0.0
C1165 C 0.16741 0.6059 0.99276 0.0
C1166 C 0.22799 0.60965 0.04374 0.0
C1167 C 0.20242 0.63363 0.0646 0.0
H1168 H 0.23413 0.58063 0.99218 0.0
H1169 H 0.26309 0.60303 0.05361 0.0
S1170 S 0.08279 0.66295 0.03841 0.0
N1171 N 0.09604 0.6373 1.00284 0.0
N1172 N 0.1284 0.66284 0.06865 0.0
C1173 C 0.15689 0.64107 0.05043 0.0
C1174 C 0.13919 0.62699 0.01474 0.0
C1175 C 0.65644 0.13013 0.51017 0.0
C1176 C 0.6826 0.10775 0.48796 0.0
C1177 C 0.67566 0.14496 0.54438 0.0
C1178 C 0.72127 0.13733 0.55834 0.0
H1179 H 0.62248 0.13851 0.49998 0.0
H1180 H 0.65554 0.16386 0.55932 0.0
S1181 S 0.80109 0.07608 0.51322 0.0
N1182 N 0.75449 0.07607 0.4838 0.0
N1183 N 0.78956 0.10251 0.54872 0.0
C1184 C 0.74584 0.11251 0.53778 0.0
C1185 C 0.72684 0.09816 0.50245 0.0
C1186 C 0.26265 0.4404 0.54945 0.0
C1187 C 0.26852 0.40655 0.56756 0.0
C1188 C 0.27661 0.44676 0.51197 0.0
C1189 C 0.29754 0.41972 0.4914 0.0
H1190 H 0.24431 0.46096 0.56356 0.0
H1191 H 0.26893 0.47233 0.49864 0.0
S1192 S 0.3263 0.3286 0.52858 0.0
N1193 N 0.29999 0.34726 0.56365 0.0
N1194 N 0.32805 0.35947 0.49433 0.0
C1195 C 0.30675 0.38704 0.51048 0.0
C1196 C 0.29169 0.38037 0.5482 0.0
C1197 C 0.98541 0.71924 0.86996 0.0
C1198 C 0.03728 0.73196 0.8726 0.0
C1199 C 0.9516 0.74474 0.87114 0.0
C1200 C 0.96828 0.78408 0.87469 0.0
H1201 H 0.97069 0.68937 0.86575 0.0
H1202 H 0.91232 0.73364 0.86735 0.0
S1203 S 0.09972 0.83182 0.8871 0.0
N1204 N 0.10324 0.78638 0.8823 0.0
N1205 N 0.03984 0.83425 0.88456 0.0
C1206 C 0.01981 0.797 0.87958 0.0
C1207 C 0.05425 0.77099 0.87855 0.0
C1208 C 0.04361 0.24158 0.70432 0.0
C1209 C 0.04721 0.28087 0.71102 0.0
C1210 C 0.99737 0.21704 0.70505 0.0
C1211 C 0.95318 0.23111 0.71181 0.0
H1212 H 0.07664 0.22995 0.69732 0.0
H1213 H 0.99591 0.18727 0.69835 0.0
S1214 S 0.9427 0.33143 0.73084 0.0
N1215 N 1.00307 0.33235 0.72562 0.0
N1216 N 0.91585 0.28659 0.72546 0.0
C1217 C 0.95644 0.27011 0.71933 0.0
C1218 C 1.00361 0.2949 0.71944 0.0
C1219 C 0.49806 0.22556 0.36439 0.0
C1220 C 0.55025 0.23695 0.36364 0.0
C1221 C 0.46583 0.25218 0.36368 0.0
C1222 C 0.48427 0.29144 0.36203 0.0
H1223 H 0.48169 0.19567 0.36449 0.0
H1224 H 0.42607 0.24168 0.36316 0.0
S1225 S 0.61782 0.33661 0.36317 0.0
N1226 N 0.61889 0.29052 0.36385 0.0
N1227 N 0.55833 0.34058 0.36265 0.0
C1228 C 0.53637 0.3034 0.36304 0.0
C1229 C 0.56931 0.27619 0.36387 0.0
C1230 C 0.73825 0.54573 0.70017 0.0
C1231 C 0.71728 0.57232 0.72099 0.0
C1232 C 0.73699 0.50841 0.71309 0.0
C1233 C 0.71551 0.49633 0.74762 0.0
H1234 H 0.75294 0.553 0.67269 0.0
H1235 H 0.75096 0.48838 0.69505 0.0
S1236 S 0.66249 0.55706 0.81521 0.0
N1237 N 0.67918 0.58532 0.77949 0.0
N1238 N 0.67798 0.51577 0.80416 0.0
C1239 C 0.69819 0.52368 0.77 0.0
C1240 C 0.69867 0.56145 0.75655 0.0
C1241 C 0.27521 0.01189 0.7114 0.0
C1242 C 0.29565 0.02487 0.74603 0.0
C1243 C 0.27432 0.97424 0.69959 0.0
C1244 C 0.29466 0.94823 0.72167 0.0
H1245 H 0.26184 0.03145 0.69243 0.0
H1246 H 0.2605 0.96625 0.67198 0.0
S1247 S 0.34663 0.96594 0.81662 0.0
N1248 N 0.33142 1.0069 0.80402 0.0
N1249 N 0.33105 0.93676 0.78135 0.0
C1250 C 0.3122 0.96001 0.7573 0.0
C1251 C 0.31226 0.99812 0.76964 0.0
C1252 C 0.48325 0.24605 0.87108 0.0
C1253 C 0.4621 0.23118 0.83732 0.0
C1254 C 0.52582 0.2748 0.87161 0.0
C1255 C 0.54771 0.29035 0.83839 0.0
H1256 H 0.4671 0.23515 0.89721 0.0
H1257 H 0.5413 0.28523 0.89812 0.0
S1258 S 0.50597 0.26164 0.74272 0.0
N1259 N 0.46596 0.23475 0.76998 0.0
N1260 N 0.54537 0.28798 0.77093 0.0
C1261 C 0.52663 0.27571 0.80458 0.0
C1262 C 0.48398 0.24637 0.80405 0.0
C1263 C 0.36926 0.53565 0.26667 0.0
C1264 C 0.32507 0.55022 0.27134 0.0
C1265 C 0.37823 0.50396 0.28715 0.0
C1266 C 0.34414 0.48626 0.31409 0.0
H1267 H 0.39635 0.54803 0.24619 0.0
H1268 H 0.41202 0.49301 0.28125 0.0
S1269 S 0.22456 0.51663 0.33894 0.0
N1270 N 0.24759 0.54603 0.30546 0.0
N1271 N 0.26562 0.48823 0.34563 0.0
C1272 C 0.30076 0.50198 0.32009 0.0
C1273 C 0.29094 0.53344 0.2983 0.0
C1274 C 0.67137 0.99801 0.31525 0.0
C1275 C 0.64625 0.02659 0.30176 0.0
C1276 C 0.6704 0.9636 0.29587 0.0
C1277 C 0.64429 0.95603 0.26201 0.0
H1278 H 0.69219 1.00217 0.341 0.0
H1279 H 0.69066 0.94283 0.3076 0.0
S1280 S 0.57262 0.02128 0.21396 0.0
N1281 N 0.59458 0.04459 0.25164 0.0
N1282 N 0.59282 0.98036 0.2158 0.0
C1283 C 0.61896 0.98426 0.24818 0.0
C1284 C 0.61994 0.0193 0.26783 0.0
C1285 C 0.50996 0.79067 0.21106 0.0
C1286 C 0.55175 0.78077 0.19299 0.0
C1287 C 0.46371 0.76584 0.21107 0.0
C1288 C 0.45807 0.73006 0.19365 0.0
H1289 H 0.51263 0.81816 0.22436 0.0
H1290 H 0.43198 0.77488 0.22428 0.0
S1291 S 0.55653 0.68862 0.14623 0.0
N1292 N 0.58445 0.73134 0.15925 0.0
N1293 N 0.49839 0.68475 0.16064 0.0
C1294 C 0.49974 0.71921 0.17693 0.0
C1295 C 0.54638 0.74454 0.17628 0.0
loop_
_geom_bond_atom_site_label_1
_geom_bond_atom_site_label_2
_geom_bond_distance
_geom_bond_site_symmetry_2
_ccdc_geom_bond_type
Co0 O2 2.143 . S
Co0 O8 2.074 . S
Co0 O11 2.093 . S
Co0 O24 2.097 . S
Co0 N41 2.151 . S
Co0 N49 2.214 . S
Co1 O2 2.160 . S
Co1 O7 2.058 . S
Co1 O17 2.057 . S
Co1 O32 2.037 . S
Co1 N36 2.145 . S
Co1 N57 2.257 . S
O2 Co0 2.143 . S
O2 Co1 2.160 . S
C3 O4 1.278 . S
C3 O11 1.224 . S
O4 C3 1.278 . S
C5 O6 1.245 . S
C5 O17 1.232 . S
O6 C5 1.245 . S
O7 Co1 2.058 . S
O7 C33 1.269 . S
O8 Co0 2.074 . S
O8 C33 1.257 . S
H9 C34 0.930 . S
H10 C40 0.930 . S
O11 Co0 2.093 . S
O11 C3 1.224 . S
H12 C44 0.929 . S
H13 C46 0.930 . S
H14 C47 0.930 . S
H15 C45 0.929 . S
H16 C48 0.928 . S
O17 Co1 2.057 . S
O17 C5 1.232 . S
H18 C37 0.929 . S
H19 C38 0.929 . S
H20 C50 0.931 . S
H21 C42 0.929 . S
H22 C51 0.930 . S
H23 C43 0.931 . S
O24 Co0 2.097 . S
O24 C52 1.214 . S
H25 C53 0.929 . S
H26 C54 0.929 . S
H27 C55 0.930 . S
H28 C56 0.929 . S
H29 C58 0.930 . S
H30 C35 0.930 . S
H31 C39 0.930 . S
O32 Co1 2.037 . S
O32 C52 1.234 . S
C33 O7 1.269 . S
C33 O8 1.257 . S
C34 H9 0.930 . S
C34 C37 1.388 . S
C34 C39 1.418 . S
C35 H30 0.930 . S
C35 C38 1.404 . S
C35 C39 1.353 . S
N36 Co1 2.145 . S
N36 C37 1.397 . S
N36 C38 1.334 . S
C37 H18 0.929 . S
C37 C34 1.388 . S
C37 N36 1.397 . S
C38 H19 0.929 . S
C38 C35 1.404 . S
C38 N36 1.334 . S
C39 H31 0.930 . S
C39 C34 1.418 . S
C39 C35 1.353 . S
C40 H10 0.930 . S
C40 N41 1.330 . S
C40 C42 1.446 . S
N41 Co0 2.151 . S
N41 C40 1.330 . S
N41 C45 1.418 . S
C42 H21 0.929 . S
C42 C40 1.446 . S
C42 C43 1.332 1_455 S
C43 H23 0.931 . S
C43 C42 1.332 1_655 S
C43 C44 1.267 . S
C44 H12 0.929 . S
C44 C43 1.267 . S
C44 C45 1.251 1_655 S
C45 H15 0.929 . S
C45 N41 1.418 . S
C45 C44 1.251 1_455 S
C46 H13 0.930 . S
C46 C48 1.406 . S
C46 C51 1.261 . S
C47 H14 0.930 . S
C47 N49 1.325 . S
C47 C50 1.357 . S
C48 H16 0.928 . S
C48 C46 1.406 . S
C48 N49 1.261 . S
N49 Co0 2.214 . S
N49 C47 1.325 . S
N49 C48 1.261 . S
C50 H20 0.931 . S
C50 C47 1.357 . S
C50 C51 1.312 . S
C51 H22 0.930 . S
C51 C46 1.261 . S
C51 C50 1.312 . S
C52 O24 1.214 . S
C52 O32 1.234 . S
C53 H25 0.929 . S
C53 C56 1.391 . S
C53 C58 1.391 . S
C54 H26 0.929 . S
C54 C55 1.390 . S
C54 N57 1.391 . S
C55 H27 0.930 . S
C55 C54 1.390 . S
C55 C56 1.392 . S
C56 H28 0.929 . S
C56 C53 1.391 . S
C56 C55 1.392 . S
N57 Co1 2.257 . S
N57 C54 1.391 . S
N57 C58 1.388 . S
C58 H29 0.930 . S
C58 C53 1.391 . S
C58 N57 1.388 . S
Co59 O61 2.143 . S
Co59 O67 2.074 . S
Co59 O70 2.093 . S
Co59 O83 2.097 . S
Co59 N100 2.151 . S
Co59 N108 2.214 . S
Co60 O61 2.160 . S
Co60 O66 2.058 . S
Co60 O76 2.057 . S
Co60 O91 2.037 . S
Co60 N95 2.145 . S
Co60 N116 2.257 . S
O61 Co59 2.143 . S
O61 Co60 2.160 . S
C62 O63 1.278 . S
C62 O70 1.224 . S
O63 C62 1.278 . S
C64 O65 1.245 . S
C64 O76 1.232 . S
O65 C64 1.245 . S
O66 Co60 2.058 . S
O66 C92 1.269 . S
O67 Co59 2.074 . S
O67 C92 1.257 . S
H68 C93 0.930 . S
H69 C99 0.930 . S
O70 Co59 2.093 . S
O70 C62 1.224 . S
H71 C103 0.929 . S
H72 C105 0.930 . S
H73 C106 0.930 . S
H74 C104 0.929 . S
H75 C107 0.928 . S
O76 Co60 2.057 . S
O76 C64 1.232 . S
H77 C96 0.929 . S
H78 C97 0.929 . S
H79 C109 0.931 . S
H80 C101 0.929 . S
H81 C110 0.930 . S
H82 C102 0.931 . S
O83 Co59 2.097 . S
O83 C111 1.214 . S
H84 C112 0.929 . S
H85 C113 0.929 . S
H86 C114 0.930 . S
H87 C115 0.929 . S
H88 C117 0.930 . S
H89 C94 0.930 . S
H90 C98 0.930 . S
O91 Co60 2.037 . S
O91 C111 1.234 . S
C92 O66 1.269 . S
C92 O67 1.257 . S
C93 H68 0.930 . S
C93 C96 1.388 . S
C93 C98 1.418 . S
C94 H89 0.930 . S
C94 C97 1.404 . S
C94 C98 1.353 . S
N95 Co60 2.145 . S
N95 C96 1.397 . S
N95 C97 1.334 . S
C96 H77 0.929 . S
C96 C93 1.388 . S
C96 N95 1.397 . S
C97 H78 0.929 . S
C97 C94 1.404 . S
C97 N95 1.334 . S
C98 H90 0.930 . S
C98 C93 1.418 . S
C98 C94 1.353 . S
C99 H69 0.930 . S
C99 N100 1.330 . S
C99 C101 1.446 . S
N100 Co59 2.151 . S
N100 C99 1.330 . S
N100 C104 1.418 . S
C101 H80 0.929 . S
C101 C99 1.446 . S
C101 C102 1.332 1_655 S
C102 H82 0.931 . S
C102 C101 1.332 1_455 S
C102 C103 1.267 . S
C103 H71 0.929 . S
C103 C102 1.267 . S
C103 C104 1.251 1_455 S
C104 H74 0.929 . S
C104 N100 1.418 . S
C104 C103 1.251 1_655 S
C105 H72 0.930 . S
C105 C107 1.406 . S
C105 C110 1.261 . S
C106 H73 0.930 . S
C106 N108 1.325 . S
C106 C109 1.357 . S
C107 H75 0.928 . S
C107 C105 1.406 . S
C107 N108 1.261 . S
N108 Co59 2.214 . S
N108 C106 1.325 . S
N108 C107 1.261 . S
C109 H79 0.931 . S
C109 C106 1.357 . S
C109 C110 1.312 . S
C110 H81 0.930 . S
C110 C105 1.261 . S
C110 C109 1.312 . S
C111 O83 1.214 . S
C111 O91 1.234 . S
C112 H84 0.929 . S
C112 C115 1.391 . S
C112 C117 1.391 . S
C113 H85 0.929 . S
C113 C114 1.390 . S
C113 N116 1.391 . S
C114 H86 0.930 . S
C114 C113 1.390 . S
C114 C115 1.392 . S
C115 H87 0.929 . S
C115 C112 1.391 . S
C115 C114 1.392 . S
N116 Co60 2.257 . S
N116 C113 1.391 . S
N116 C117 1.388 . S
C117 H88 0.930 . S
C117 C112 1.391 . S
C117 N116 1.388 . S
Co118 O120 2.143 . S
Co118 O126 2.074 . S
Co118 O129 2.093 . S
Co118 O142 2.097 . S
Co118 N159 2.151 . S
Co118 N167 2.214 . S
Co119 O120 2.160 . S
Co119 O125 2.058 . S
Co119 O135 2.057 . S
Co119 O150 2.037 . S
Co119 N154 2.145 . S
Co119 N175 2.257 . S
O120 Co118 2.143 . S
O120 Co119 2.160 . S
C121 O122 1.278 . S
C121 O129 1.224 . S
O122 C121 1.278 . S
C123 O124 1.245 . S
C123 O135 1.232 . S
O124 C123 1.245 . S
O125 Co119 2.058 . S
O125 C151 1.269 . S
O126 Co118 2.074 . S
O126 C151 1.257 . S
H127 C152 0.930 . S
H128 C158 0.930 . S
O129 Co118 2.093 . S
O129 C121 1.224 . S
H130 C162 0.929 . S
H131 C164 0.930 . S
H132 C165 0.930 . S
H133 C163 0.929 . S
H134 C166 0.928 . S
O135 Co119 2.057 . S
O135 C123 1.232 . S
H136 C155 0.929 . S
H137 C156 0.929 . S
H138 C168 0.931 . S
H139 C160 0.929 . S
H140 C169 0.930 . S
H141 C161 0.931 1_655 S
O142 Co118 2.097 . S
O142 C170 1.214 . S
H143 C171 0.929 . S
H144 C172 0.929 . S
H145 C173 0.930 . S
H146 C174 0.929 . S
H147 C176 0.930 . S
H148 C153 0.930 . S
H149 C157 0.930 . S
O150 Co119 2.037 . S
O150 C170 1.234 . S
C151 O125 1.269 . S
C151 O126 1.257 . S
C152 H127 0.930 . S
C152 C155 1.388 . S
C152 C157 1.418 . S
C153 H148 0.930 . S
C153 C156 1.404 . S
C153 C157 1.353 . S
N154 Co119 2.145 . S
N154 C155 1.397 . S
N154 C156 1.334 . S
C155 H136 0.929 . S
C155 C152 1.388 . S
C155 N154 1.397 . S
C156 H137 0.929 . S
C156 C153 1.404 . S
C156 N154 1.334 . S
C157 H149 0.930 . S
C157 C152 1.418 . S
C157 C153 1.353 . S
C158 H128 0.930 . S
C158 N159 1.330 . S
C158 C160 1.446 . S
N159 Co118 2.151 . S
N159 C158 1.330 . S
N159 C163 1.418 . S
C160 H139 0.929 . S
C160 C158 1.446 . S
C160 C161 1.332 . S
C161 H141 0.931 1_455 S
C161 C160 1.332 . S
C161 C162 1.267 1_455 S
C162 H130 0.929 . S
C162 C161 1.267 1_655 S
C162 C163 1.251 1_655 S
C163 H133 0.929 . S
C163 N159 1.418 . S
C163 C162 1.251 1_455 S
C164 H131 0.930 . S
C164 C166 1.406 . S
C164 C169 1.261 . S
C165 H132 0.930 . S
C165 N167 1.325 . S
C165 C168 1.357 . S
C166 H134 0.928 . S
C166 C164 1.406 . S
C166 N167 1.261 . S
N167 Co118 2.214 . S
N167 C165 1.325 . S
N167 C166 1.261 . S
C168 H138 0.931 . S
C168 C165 1.357 . S
C168 C169 1.312 . S
C169 H140 0.930 . S
C169 C164 1.261 . S
C169 C168 1.312 . S
C170 O142 1.214 . S
C170 O150 1.234 . S
C171 H143 0.929 . S
C171 C174 1.391 . S
C171 C176 1.391 . S
C172 H144 0.929 . S
C172 C173 1.390 . S
C172 N175 1.391 . S
C173 H145 0.930 . S
C173 C172 1.390 . S
C173 C174 1.392 . S
C174 H146 0.929 . S
C174 C171 1.391 . S
C174 C173 1.392 . S
N175 Co119 2.257 . S
N175 C172 1.391 . S
N175 C176 1.388 . S
C176 H147 0.930 . S
C176 C171 1.391 . S
C176 N175 1.388 . S
Co177 O179 2.143 . S
Co177 O185 2.074 . S
Co177 O188 2.093 . S
Co177 O201 2.097 . S
Co177 N218 2.151 . S
Co177 N226 2.214 . S
Co178 O179 2.160 . S
Co178 O184 2.058 . S
Co178 O194 2.057 . S
Co178 O209 2.037 . S
Co178 N213 2.145 . S
Co178 N234 2.257 . S
O179 Co177 2.143 . S
O179 Co178 2.160 . S
C180 O181 1.278 . S
C180 O188 1.224 . S
O181 C180 1.278 . S
C182 O183 1.245 . S
C182 O194 1.232 . S
O183 C182 1.245 . S
O184 Co178 2.058 . S
O184 C210 1.269 . S
O185 Co177 2.074 . S
O185 C210 1.257 . S
H186 C211 0.930 . S
H187 C217 0.930 . S
O188 Co177 2.093 . S
O188 C180 1.224 . S
H189 C221 0.929 . S
H190 C223 0.930 . S
H191 C224 0.930 . S
H192 C222 0.929 . S
H193 C225 0.928 . S
O194 Co178 2.057 . S
O194 C182 1.232 . S
H195 C214 0.929 . S
H196 C215 0.929 . S
H197 C227 0.931 . S
H198 C219 0.929 . S
H199 C228 0.930 . S
H200 C220 0.931 1_455 S
O201 Co177 2.097 . S
O201 C229 1.214 . S
H202 C230 0.929 . S
H203 C231 0.929 . S
H204 C232 0.930 . S
H205 C233 0.929 . S
H206 C235 0.930 . S
H207 C212 0.930 . S
H208 C216 0.930 . S
O209 Co178 2.037 . S
O209 C229 1.234 . S
C210 O184 1.269 . S
C210 O185 1.257 . S
C211 H186 0.930 . S
C211 C214 1.388 . S
C211 C216 1.418 . S
C212 H207 0.930 . S
C212 C215 1.404 . S
C212 C216 1.353 . S
N213 Co178 2.145 . S
N213 C214 1.397 . S
N213 C215 1.334 . S
C214 H195 0.929 . S
C214 C211 1.388 . S
C214 N213 1.397 . S
C215 H196 0.929 . S
C215 C212 1.404 . S
C215 N213 1.334 . S
C216 H208 0.930 . S
C216 C211 1.418 . S
C216 C212 1.353 . S
C217 H187 0.930 . S
C217 N218 1.330 . S
C217 C219 1.446 . S
N218 Co177 2.151 . S
N218 C217 1.330 . S
N218 C222 1.418 . S
C219 H198 0.929 . S
C219 C217 1.446 . S
C219 C220 1.332 . S
C220 H200 0.931 1_655 S
C220 C219 1.332 . S
C220 C221 1.267 1_655 S
C221 H189 0.929 . S
C221 C220 1.267 1_455 S
C221 C222 1.251 1_455 S
C222 H192 0.929 . S
C222 N218 1.418 . S
C222 C221 1.251 1_655 S
C223 H190 0.930 . S
C223 C225 1.406 . S
C223 C228 1.261 . S
C224 H191 0.930 . S
C224 N226 1.325 . S
C224 C227 1.357 . S
C225 H193 0.928 . S
C225 C223 1.406 . S
C225 N226 1.261 . S
N226 Co177 2.214 . S
N226 C224 1.325 . S
N226 C225 1.261 . S
C227 H197 0.931 . S
C227 C224 1.357 . S
C227 C228 1.312 . S
C228 H199 0.930 . S
C228 C223 1.261 . S
C228 C227 1.312 . S
C229 O201 1.214 . S
C229 O209 1.234 . S
C230 H202 0.929 . S
C230 C233 1.391 . S
C230 C235 1.391 . S
C231 H203 0.929 . S
C231 C232 1.390 . S
C231 N234 1.391 . S
C232 H204 0.930 . S
C232 C231 1.390 . S
C232 C233 1.392 . S
C233 H205 0.929 . S
C233 C230 1.391 . S
C233 C232 1.392 . S
N234 Co178 2.257 . S
N234 C231 1.391 . S
N234 C235 1.388 . S
C235 H206 0.930 . S
C235 C230 1.391 . S
C235 N234 1.388 . S
Co236 O238 2.143 . S
Co236 O244 2.074 . S
Co236 O247 2.093 . S
Co236 O260 2.097 . S
Co236 N277 2.151 . S
Co236 N285 2.214 . S
Co237 O238 2.160 . S
Co237 O243 2.058 . S
Co237 O253 2.057 . S
Co237 O268 2.037 . S
Co237 N272 2.145 . S
Co237 N293 2.257 . S
O238 Co236 2.143 . S
O238 Co237 2.160 . S
C239 O240 1.278 . S
C239 O247 1.224 . S
O240 C239 1.278 . S
C241 O242 1.245 . S
C241 O253 1.232 . S
O242 C241 1.245 . S
O243 Co237 2.058 . S
O243 C269 1.269 . S
O244 Co236 2.074 . S
O244 C269 1.257 . S
H245 C270 0.930 . S
H246 C276 0.930 . S
O247 Co236 2.093 . S
O247 C239 1.224 . S
H248 C280 0.929 . S
H249 C282 0.930 . S
H250 C283 0.930 . S
H251 C281 0.929 . S
H252 C284 0.928 . S
O253 Co237 2.057 . S
O253 C241 1.232 . S
H254 C273 0.929 . S
H255 C274 0.929 . S
H256 C286 0.931 . S
H257 C278 0.929 . S
H258 C287 0.930 . S
H259 C279 0.931 . S
O260 Co236 2.097 . S
O260 C288 1.214 . S
H261 C289 0.929 . S
H262 C290 0.929 . S
H263 C291 0.930 . S
H264 C292 0.929 . S
H265 C294 0.930 . S
H266 C271 0.930 . S
H267 C275 0.930 . S
O268 Co237 2.037 . S
O268 C288 1.234 . S
C269 O243 1.269 . S
C269 O244 1.257 . S
C270 H245 0.930 . S
C270 C273 1.388 . S
C270 C275 1.418 . S
C271 H266 0.930 . S
C271 C274 1.404 . S
C271 C275 1.353 . S
N272 Co237 2.145 . S
N272 C273 1.397 . S
N272 C274 1.334 . S
C273 H254 0.929 . S
C273 C270 1.388 . S
C273 N272 1.397 . S
C274 H255 0.929 . S
C274 C271 1.404 . S
C274 N272 1.334 . S
C275 H267 0.930 . S
C275 C270 1.418 . S
C275 C271 1.353 . S
C276 H246 0.930 . S
C276 N277 1.330 . S
C276 C278 1.446 . S
N277 Co236 2.151 . S
N277 C276 1.330 . S
N277 C281 1.418 . S
C278 H257 0.929 . S
C278 C276 1.446 . S
C278 C279 1.332 . S
C279 H259 0.931 . S
C279 C278 1.332 . S
C279 C280 1.267 . S
C280 H248 0.929 . S
C280 C279 1.267 . S
C280 C281 1.251 . S
C281 H251 0.929 . S
C281 N277 1.418 . S
C281 C280 1.251 . S
C282 H249 0.930 . S
C282 C284 1.406 . S
C282 C287 1.261 . S
C283 H250 0.930 . S
C283 N285 1.325 . S
C283 C286 1.357 . S
C284 H252 0.928 . S
C284 C282 1.406 . S
C284 N285 1.261 . S
N285 Co236 2.214 . S
N285 C283 1.325 . S
N285 C284 1.261 . S
C286 H256 0.931 . S
C286 C283 1.357 . S
C286 C287 1.312 . S
C287 H258 0.930 . S
C287 C282 1.261 . S
C287 C286 1.312 . S
C288 O260 1.214 . S
C288 O268 1.234 . S
C289 H261 0.929 . S
C289 C292 1.391 . S
C289 C294 1.391 . S
C290 H262 0.929 . S
C290 C291 1.390 . S
C290 N293 1.391 . S
C291 H263 0.930 . S
C291 C290 1.390 . S
C291 C292 1.392 . S
C292 H264 0.929 . S
C292 C289 1.391 . S
C292 C291 1.392 . S
N293 Co237 2.257 . S
N293 C290 1.391 . S
N293 C294 1.388 . S
C294 H265 0.930 . S
C294 C289 1.391 . S
C294 N293 1.388 . S
Co295 O297 2.143 . S
Co295 O303 2.074 . S
Co295 O306 2.093 . S
Co295 O319 2.097 . S
Co295 N336 2.151 . S
Co295 N344 2.214 . S
Co296 O297 2.160 . S
Co296 O302 2.058 . S
Co296 O312 2.057 . S
Co296 O327 2.037 . S
Co296 N331 2.145 . S
Co296 N352 2.257 . S
O297 Co295 2.143 . S
O297 Co296 2.160 . S
C298 O299 1.278 . S
C298 O306 1.224 . S
O299 C298 1.278 . S
C300 O301 1.245 . S
C300 O312 1.232 . S
O301 C300 1.245 . S
O302 Co296 2.058 . S
O302 C328 1.269 . S
O303 Co295 2.074 . S
O303 C328 1.257 . S
H304 C329 0.930 . S
H305 C335 0.930 1_655 S
O306 Co295 2.093 . S
O306 C298 1.224 . S
H307 C339 0.929 . S
H308 C341 0.930 . S
H309 C342 0.930 . S
H310 C340 0.929 . S
H311 C343 0.928 . S
O312 Co296 2.057 . S
O312 C300 1.232 . S
H313 C332 0.929 . S
H314 C333 0.929 . S
H315 C345 0.931 . S
H316 C337 0.929 . S
H317 C346 0.930 1_455 S
H318 C338 0.931 . S
O319 Co295 2.097 . S
O319 C347 1.214 . S
H320 C348 0.929 . S
H321 C349 0.929 . S
H322 C350 0.930 . S
H323 C351 0.929 . S
H324 C353 0.930 . S
H325 C330 0.930 . S
H326 C334 0.930 . S
O327 Co296 2.037 . S
O327 C347 1.234 . S
C328 O302 1.269 . S
C328 O303 1.257 . S
C329 H304 0.930 . S
C329 C332 1.388 . S
C329 C334 1.418 . S
C330 H325 0.930 . S
C330 C333 1.404 . S
C330 C334 1.353 . S
N331 Co296 2.145 . S
N331 C332 1.397 . S
N331 C333 1.334 . S
C332 H313 0.929 . S
C332 C329 1.388 . S
C332 N331 1.397 . S
C333 H314 0.929 . S
C333 C330 1.404 . S
C333 N331 1.334 . S
C334 H326 0.930 . S
C334 C329 1.418 . S
C334 C330 1.353 . S
C335 H305 0.930 1_455 S
C335 N336 1.330 1_455 S
C335 C337 1.446 . S
N336 Co295 2.151 . S
N336 C335 1.330 1_655 S
N336 C340 1.418 . S
C337 H316 0.929 . S
C337 C335 1.446 . S
C337 C338 1.332 . S
C338 H318 0.931 . S
C338 C337 1.332 . S
C338 C339 1.267 . S
C339 H307 0.929 . S
C339 C338 1.267 . S
C339 C340 1.251 1_455 S
C340 H310 0.929 . S
C340 N336 1.418 . S
C340 C339 1.251 1_655 S
C341 H308 0.930 . S
C341 C343 1.406 . S
C341 C346 1.261 1_455 S
C342 H309 0.930 . S
C342 N344 1.325 . S
C342 C345 1.357 . S
C343 H311 0.928 . S
C343 C341 1.406 . S
C343 N344 1.261 1_455 S
N344 Co295 2.214 . S
N344 C342 1.325 . S
N344 C343 1.261 1_655 S
C345 H315 0.931 . S
C345 C342 1.357 . S
C345 C346 1.312 . S
C346 H317 0.930 1_655 S
C346 C341 1.261 1_655 S
C346 C345 1.312 . S
C347 O319 1.214 . S
C347 O327 1.234 . S
C348 H320 0.929 . S
C348 C351 1.391 . S
C348 C353 1.391 . S
C349 H321 0.929 . S
C349 C350 1.390 . S
C349 N352 1.391 . S
C350 H322 0.930 . S
C350 C349 1.390 . S
C350 C351 1.392 . S
C351 H323 0.929 . S
C351 C348 1.391 . S
C351 C350 1.392 . S
N352 Co296 2.257 . S
N352 C349 1.391 . S
N352 C353 1.388 . S
C353 H324 0.930 . S
C353 C348 1.391 . S
C353 N352 1.388 . S
Co354 O356 2.143 . S
Co354 O362 2.074 . S
Co354 O365 2.093 . S
Co354 O378 2.097 . S
Co354 N395 2.151 . S
Co354 N403 2.214 . S
Co355 O356 2.160 . S
Co355 O361 2.058 . S
Co355 O371 2.057 . S
Co355 O386 2.037 . S
Co355 N390 2.145 . S
Co355 N411 2.257 . S
O356 Co354 2.143 . S
O356 Co355 2.160 . S
C357 O358 1.278 . S
C357 O365 1.224 . S
O358 C357 1.278 . S
C359 O360 1.245 . S
C359 O371 1.232 . S
O360 C359 1.245 . S
O361 Co355 2.058 . S
O361 C387 1.269 . S
O362 Co354 2.074 . S
O362 C387 1.257 . S
H363 C388 0.930 . S
H364 C394 0.930 1_455 S
O365 Co354 2.093 . S
O365 C357 1.224 . S
H366 C398 0.929 . S
H367 C400 0.930 . S
H368 C401 0.930 . S
H369 C399 0.929 . S
H370 C402 0.928 . S
O371 Co355 2.057 . S
O371 C359 1.232 . S
H372 C391 0.929 . S
H373 C392 0.929 . S
H374 C404 0.931 . S
H375 C396 0.929 . S
H376 C405 0.930 1_655 S
H377 C397 0.931 . S
O378 Co354 2.097 . S
O378 C406 1.214 . S
H379 C407 0.929 . S
H380 C408 0.929 . S
H381 C409 0.930 . S
H382 C410 0.929 . S
H383 C412 0.930 . S
H384 C389 0.930 . S
H385 C393 0.930 . S
O386 Co355 2.037 . S
O386 C406 1.234 . S
C387 O361 1.269 . S
C387 O362 1.257 . S
C388 H363 0.930 . S
C388 C391 1.388 . S
C388 C393 1.418 . S
C389 H384 0.930 . S
C389 C392 1.404 . S
C389 C393 1.353 . S
N390 Co355 2.145 . S
N390 C391 1.397 . S
N390 C392 1.334 . S
C391 H372 0.929 . S
C391 C388 1.388 . S
C391 N390 1.397 . S
C392 H373 0.929 . S
C392 C389 1.404 . S
C392 N390 1.334 . S
C393 H385 0.930 . S
C393 C388 1.418 . S
C393 C389 1.353 . S
C394 H364 0.930 1_655 S
C394 N395 1.330 1_655 S
C394 C396 1.446 . S
N395 Co354 2.151 . S
N395 C394 1.330 1_455 S
N395 C399 1.418 . S
C396 H375 0.929 . S
C396 C394 1.446 . S
C396 C397 1.332 . S
C397 H377 0.931 . S
C397 C396 1.332 . S
C397 C398 1.267 . S
C398 H366 0.929 . S
C398 C397 1.267 . S
C398 C399 1.251 1_655 S
C399 H369 0.929 . S
C399 N395 1.418 . S
C399 C398 1.251 1_455 S
C400 H367 0.930 . S
C400 C402 1.406 . S
C400 C405 1.261 1_655 S
C401 H368 0.930 . S
C401 N403 1.325 . S
C401 C404 1.357 . S
C402 H370 0.928 . S
C402 C400 1.406 . S
C402 N403 1.261 1_655 S
N403 Co354 2.214 . S
N403 C401 1.325 . S
N403 C402 1.261 1_455 S
C404 H374 0.931 . S
C404 C401 1.357 . S
C404 C405 1.312 . S
C405 H376 0.930 1_455 S
C405 C400 1.261 1_455 S
C405 C404 1.312 . S
C406 O378 1.214 . S
C406 O386 1.234 . S
C407 H379 0.929 . S
C407 C410 1.391 . S
C407 C412 1.391 . S
C408 H380 0.929 . S
C408 C409 1.390 . S
C408 N411 1.391 . S
C409 H381 0.930 . S
C409 C408 1.390 . S
C409 C410 1.392 . S
C410 H382 0.929 . S
C410 C407 1.391 . S
C410 C409 1.392 . S
N411 Co355 2.257 . S
N411 C408 1.391 . S
N411 C412 1.388 . S
C412 H383 0.930 . S
C412 C407 1.391 . S
C412 N411 1.388 . S
Co413 O415 2.143 . S
Co413 O421 2.074 . S
Co413 O424 2.093 . S
Co413 O437 2.097 . S
Co413 N454 2.151 . S
Co413 N462 2.214 . S
Co414 O415 2.160 . S
Co414 O420 2.058 . S
Co414 O430 2.057 . S
Co414 O445 2.037 . S
Co414 N449 2.145 . S
Co414 N470 2.257 . S
O415 Co413 2.143 . S
O415 Co414 2.160 . S
C416 O417 1.278 . S
C416 O424 1.224 . S
O417 C416 1.278 . S
C418 O419 1.245 . S
C418 O430 1.232 . S
O419 C418 1.245 . S
O420 Co414 2.058 . S
O420 C446 1.269 . S
O421 Co413 2.074 . S
O421 C446 1.257 . S
H422 C447 0.930 . S
H423 C453 0.930 . S
O424 Co413 2.093 . S
O424 C416 1.224 . S
H425 C457 0.929 . S
H426 C459 0.930 . S
H427 C460 0.930 . S
H428 C458 0.929 . S
H429 C461 0.928 . S
O430 Co414 2.057 . S
O430 C418 1.232 . S
H431 C450 0.929 . S
H432 C451 0.929 . S
H433 C463 0.931 . S
H434 C455 0.929 . S
H435 C464 0.930 . S
H436 C456 0.931 . S
O437 Co413 2.097 . S
O437 C465 1.214 . S
H438 C466 0.929 . S
H439 C467 0.929 . S
H440 C468 0.930 . S
H441 C469 0.929 . S
H442 C471 0.930 . S
H443 C448 0.930 . S
H444 C452 0.930 . S
O445 Co414 2.037 . S
O445 C465 1.234 . S
C446 O420 1.269 . S
C446 O421 1.257 . S
C447 H422 0.930 . S
C447 C450 1.388 . S
C447 C452 1.418 . S
C448 H443 0.930 . S
C448 C451 1.404 . S
C448 C452 1.353 . S
N449 Co414 2.145 . S
N449 C450 1.397 . S
N449 C451 1.334 . S
C450 H431 0.929 . S
C450 C447 1.388 . S
C450 N449 1.397 . S
C451 H432 0.929 . S
C451 C448 1.404 . S
C451 N449 1.334 . S
C452 H444 0.930 . S
C452 C447 1.418 . S
C452 C448 1.353 . S
C453 H423 0.930 . S
C453 N454 1.330 . S
C453 C455 1.446 . S
N454 Co413 2.151 . S
N454 C453 1.330 . S
N454 C458 1.418 . S
C455 H434 0.929 . S
C455 C453 1.446 . S
C455 C456 1.332 . S
C456 H436 0.931 . S
C456 C455 1.332 . S
C456 C457 1.267 . S
C457 H425 0.929 . S
C457 C456 1.267 . S
C457 C458 1.251 . S
C458 H428 0.929 . S
C458 N454 1.418 . S
C458 C457 1.251 . S
C459 H426 0.930 . S
C459 C461 1.406 . S
C459 C464 1.261 . S
C460 H427 0.930 . S
C460 N462 1.325 . S
C460 C463 1.357 . S
C461 H429 0.928 . S
C461 C459 1.406 . S
C461 N462 1.261 . S
N462 Co413 2.214 . S
N462 C460 1.325 . S
N462 C461 1.261 . S
C463 H433 0.931 . S
C463 C460 1.357 . S
C463 C464 1.312 . S
C464 H435 0.930 . S
C464 C459 1.261 . S
C464 C463 1.312 . S
C465 O437 1.214 . S
C465 O445 1.234 . S
C466 H438 0.929 . S
C466 C469 1.391 . S
C466 C471 1.391 . S
C467 H439 0.929 . S
C467 C468 1.390 . S
C467 N470 1.391 . S
C468 H440 0.930 . S
C468 C467 1.390 . S
C468 C469 1.392 . S
C469 H441 0.929 . S
C469 C466 1.391 . S
C469 C468 1.392 . S
N470 Co414 2.257 . S
N470 C467 1.391 . S
N470 C471 1.388 . S
C471 H442 0.930 . S
C471 C466 1.391 . S
C471 N470 1.388 . S
Co472 O474 2.143 . S
Co472 O480 2.074 . S
Co472 O483 2.093 . S
Co472 O496 2.097 . S
Co472 N513 2.151 . S
Co472 N521 2.214 . S
Co473 O474 2.160 . S
Co473 O479 2.058 . S
Co473 O489 2.057 . S
Co473 O504 2.037 . S
Co473 N508 2.145 . S
Co473 N529 2.257 . S
O474 Co472 2.143 . S
O474 Co473 2.160 . S
C475 O476 1.278 . S
C475 O483 1.224 . S
O476 C475 1.278 . S
C477 O478 1.245 . S
C477 O489 1.232 . S
O478 C477 1.245 . S
O479 Co473 2.058 . S
O479 C505 1.269 . S
O480 Co472 2.074 . S
O480 C505 1.257 . S
H481 C506 0.930 . S
H482 C512 0.930 . S
O483 Co472 2.093 . S
O483 C475 1.224 . S
H484 C516 0.929 . S
H485 C518 0.930 . S
H486 C519 0.930 . S
H487 C517 0.929 . S
H488 C520 0.928 . S
O489 Co473 2.057 . S
O489 C477 1.232 . S
H490 C509 0.929 . S
H491 C510 0.929 . S
H492 C522 0.931 . S
H493 C514 0.929 . S
H494 C523 0.930 . S
H495 C515 0.931 . S
O496 Co472 2.097 . S
O496 C524 1.214 . S
H497 C525 0.929 . S
H498 C526 0.929 . S
H499 C527 0.930 . S
H500 C528 0.929 . S
H501 C530 0.930 . S
H502 C507 0.930 . S
H503 C511 0.930 . S
O504 Co473 2.037 . S
O504 C524 1.234 . S
C505 O479 1.269 . S
C505 O480 1.257 . S
C506 H481 0.930 . S
C506 C509 1.388 . S
C506 C511 1.418 . S
C507 H502 0.930 . S
C507 C510 1.404 . S
C507 C511 1.353 . S
N508 Co473 2.145 . S
N508 C509 1.397 . S
N508 C510 1.334 . S
C509 H490 0.929 . S
C509 C506 1.388 . S
C509 N508 1.397 . S
C510 H491 0.929 . S
C510 C507 1.404 . S
C510 N508 1.334 . S
C511 H503 0.930 . S
C511 C506 1.418 . S
C511 C507 1.353 . S
C512 H482 0.930 . S
C512 N513 1.330 . S
C512 C514 1.446 . S
N513 Co472 2.151 . S
N513 C512 1.330 . S
N513 C517 1.418 . S
C514 H493 0.929 . S
C514 C512 1.446 . S
C514 C515 1.332 . S
C515 H495 0.931 . S
C515 C514 1.332 . S
C515 C516 1.267 . S
C516 H484 0.929 . S
C516 C515 1.267 . S
C516 C517 1.251 . S
C517 H487 0.929 . S
C517 N513 1.418 . S
C517 C516 1.251 . S
C518 H485 0.930 . S
C518 C520 1.406 . S
C518 C523 1.261 . S
C519 H486 0.930 . S
C519 N521 1.325 . S
C519 C522 1.357 . S
C520 H488 0.928 . S
C520 C518 1.406 . S
C520 N521 1.261 . S
N521 Co472 2.214 . S
N521 C519 1.325 . S
N521 C520 1.261 . S
C522 H492 0.931 . S
C522 C519 1.357 . S
C522 C523 1.312 . S
C523 H494 0.930 . S
C523 C518 1.261 . S
C523 C522 1.312 . S
C524 O496 1.214 . S
C524 O504 1.234 . S
C525 H497 0.929 . S
C525 C528 1.391 . S
C525 C530 1.391 . S
C526 H498 0.929 . S
C526 C527 1.390 . S
C526 N529 1.391 . S
C527 H499 0.930 . S
C527 C526 1.390 . S
C527 C528 1.392 . S
C528 H500 0.929 . S
C528 C525 1.391 . S
C528 C527 1.392 . S
N529 Co473 2.257 . S
N529 C526 1.391 . S
N529 C530 1.388 . S
C530 H501 0.930 . S
C530 C525 1.391 . S
C530 N529 1.388 . S
Co531 O533 2.143 . S
Co531 O539 2.074 . S
Co531 O542 2.093 . S
Co531 O555 2.097 . S
Co531 N572 2.151 . S
Co531 N580 2.214 . S
Co532 O533 2.160 . S
Co532 O538 2.058 . S
Co532 O548 2.057 . S
Co532 O563 2.037 . S
Co532 N567 2.145 . S
Co532 N588 2.257 . S
O533 Co531 2.143 . S
O533 Co532 2.160 . S
C534 O535 1.278 . S
C534 O542 1.224 . S
O535 C534 1.278 . S
C536 O537 1.245 . S
C536 O548 1.232 . S
O537 C536 1.245 . S
O538 Co532 2.058 . S
O538 C564 1.269 . S
O539 Co531 2.074 . S
O539 C564 1.257 . S
H540 C565 0.930 . S
H541 C571 0.930 . S
O542 Co531 2.093 . S
O542 C534 1.224 . S
H543 C575 0.929 . S
H544 C577 0.930 . S
H545 C578 0.930 . S
H546 C576 0.929 . S
H547 C579 0.928 . S
O548 Co532 2.057 . S
O548 C536 1.232 . S
H549 C568 0.929 . S
H550 C569 0.929 . S
H551 C581 0.931 . S
H552 C573 0.929 . S
H553 C582 0.930 . S
H554 C574 0.931 . S
O555 Co531 2.097 . S
O555 C583 1.214 . S
H556 C584 0.929 . S
H557 C585 0.929 . S
H558 C586 0.930 . S
H559 C587 0.929 . S
H560 C589 0.930 . S
H561 C566 0.930 . S
H562 C570 0.930 . S
O563 Co532 2.037 . S
O563 C583 1.234 . S
C564 O538 1.269 . S
C564 O539 1.257 . S
C565 H540 0.930 . S
C565 C568 1.388 . S
C565 C570 1.418 . S
C566 H561 0.930 . S
C566 C569 1.404 . S
C566 C570 1.353 . S
N567 Co532 2.145 . S
N567 C568 1.397 . S
N567 C569 1.334 . S
C568 H549 0.929 . S
C568 C565 1.388 . S
C568 N567 1.397 . S
C569 H550 0.929 . S
C569 C566 1.404 . S
C569 N567 1.334 . S
C570 H562 0.930 . S
C570 C565 1.418 . S
C570 C566 1.353 . S
C571 H541 0.930 . S
C571 N572 1.330 . S
C571 C573 1.446 . S
N572 Co531 2.151 . S
N572 C571 1.330 . S
N572 C576 1.418 . S
C573 H552 0.929 . S
C573 C571 1.446 . S
C573 C574 1.332 . S
C574 H554 0.931 . S
C574 C573 1.332 . S
C574 C575 1.267 . S
C575 H543 0.929 . S
C575 C574 1.267 . S
C575 C576 1.251 . S
C576 H546 0.929 . S
C576 N572 1.418 . S
C576 C575 1.251 . S
C577 H544 0.930 . S
C577 C579 1.406 . S
C577 C582 1.261 . S
C578 H545 0.930 . S
C578 N580 1.325 . S
C578 C581 1.357 . S
C579 H547 0.928 . S
C579 C577 1.406 . S
C579 N580 1.261 . S
N580 Co531 2.214 . S
N580 C578 1.325 . S
N580 C579 1.261 . S
C581 H551 0.931 . S
C581 C578 1.357 . S
C581 C582 1.312 . S
C582 H553 0.930 . S
C582 C577 1.261 . S
C582 C581 1.312 . S
C583 O555 1.214 . S
C583 O563 1.234 . S
C584 H556 0.929 . S
C584 C587 1.391 . S
C584 C589 1.391 . S
C585 H557 0.929 . S
C585 C586 1.390 . S
C585 N588 1.391 . S
C586 H558 0.930 . S
C586 C585 1.390 . S
C586 C587 1.392 . S
C587 H559 0.929 . S
C587 C584 1.391 . S
C587 C586 1.392 . S
N588 Co532 2.257 . S
N588 C585 1.391 . S
N588 C589 1.388 . S
C589 H560 0.930 . S
C589 C584 1.391 . S
C589 N588 1.388 . S
Co590 O592 2.143 . S
Co590 O598 2.074 . S
Co590 O601 2.093 . S
Co590 O614 2.097 . S
Co590 N631 2.151 . S
Co590 N639 2.214 . S
Co591 O592 2.160 . S
Co591 O597 2.058 . S
Co591 O607 2.057 . S
Co591 O622 2.037 . S
Co591 N626 2.145 . S
Co591 N647 2.257 . S
O592 Co590 2.143 . S
O592 Co591 2.160 . S
C593 O594 1.278 . S
C593 O601 1.224 . S
O594 C593 1.278 . S
C595 O596 1.245 . S
C595 O607 1.232 . S
O596 C595 1.245 . S
O597 Co591 2.058 . S
O597 C623 1.269 . S
O598 Co590 2.074 . S
O598 C623 1.257 . S
H599 C624 0.930 . S
H600 C630 0.930 . S
O601 Co590 2.093 . S
O601 C593 1.224 . S
H602 C634 0.929 . S
H603 C636 0.930 . S
H604 C637 0.930 . S
H605 C635 0.929 . S
H606 C638 0.928 . S
O607 Co591 2.057 . S
O607 C595 1.232 . S
H608 C627 0.929 . S
H609 C628 0.929 . S
H610 C640 0.931 . S
H611 C632 0.929 . S
H612 C641 0.930 . S
H613 C633 0.931 . S
O614 Co590 2.097 . S
O614 C642 1.214 . S
H615 C643 0.929 . S
H616 C644 0.929 . S
H617 C645 0.930 . S
H618 C646 0.929 . S
H619 C648 0.930 . S
H620 C625 0.930 . S
H621 C629 0.930 . S
O622 Co591 2.037 . S
O622 C642 1.234 . S
C623 O597 1.269 . S
C623 O598 1.257 . S
C624 H599 0.930 . S
C624 C627 1.388 . S
C624 C629 1.418 . S
C625 H620 0.930 . S
C625 C628 1.404 . S
C625 C629 1.353 . S
N626 Co591 2.145 . S
N626 C627 1.397 . S
N626 C628 1.334 . S
C627 H608 0.929 . S
C627 C624 1.388 . S
C627 N626 1.397 . S
C628 H609 0.929 . S
C628 C625 1.404 . S
C628 N626 1.334 . S
C629 H621 0.930 . S
C629 C624 1.418 . S
C629 C625 1.353 . S
C630 H600 0.930 . S
C630 N631 1.330 . S
C630 C632 1.446 . S
N631 Co590 2.151 . S
N631 C630 1.330 . S
N631 C635 1.418 . S
C632 H611 0.929 . S
C632 C630 1.446 . S
C632 C633 1.332 . S
C633 H613 0.931 . S
C633 C632 1.332 . S
C633 C634 1.267 . S
C634 H602 0.929 . S
C634 C633 1.267 . S
C634 C635 1.251 . S
C635 H605 0.929 . S
C635 N631 1.418 . S
C635 C634 1.251 . S
C636 H603 0.930 . S
C636 C638 1.406 . S
C636 C641 1.261 . S
C637 H604 0.930 . S
C637 N639 1.325 . S
C637 C640 1.357 . S
C638 H606 0.928 . S
C638 C636 1.406 . S
C638 N639 1.261 . S
N639 Co590 2.214 . S
N639 C637 1.325 . S
N639 C638 1.261 . S
C640 H610 0.931 . S
C640 C637 1.357 . S
C640 C641 1.312 . S
C641 H612 0.930 . S
C641 C636 1.261 . S
C641 C640 1.312 . S
C642 O614 1.214 . S
C642 O622 1.234 . S
C643 H615 0.929 . S
C643 C646 1.391 . S
C643 C648 1.391 . S
C644 H616 0.929 . S
C644 C645 1.390 . S
C644 N647 1.391 . S
C645 H617 0.930 . S
C645 C644 1.390 . S
C645 C646 1.392 . S
C646 H618 0.929 . S
C646 C643 1.391 . S
C646 C645 1.392 . S
N647 Co591 2.257 . S
N647 C644 1.391 . S
N647 C648 1.388 . S
C648 H619 0.930 . S
C648 C643 1.391 . S
C648 N647 1.388 . S
Co649 O651 2.143 . S
Co649 O657 2.074 . S
Co649 O660 2.093 . S
Co649 O673 2.097 . S
Co649 N690 2.151 . S
Co649 N698 2.214 . S
Co650 O651 2.160 . S
Co650 O656 2.058 . S
Co650 O666 2.057 . S
Co650 O681 2.037 . S
Co650 N685 2.145 . S
Co650 N706 2.257 . S
O651 Co649 2.143 . S
O651 Co650 2.160 . S
C652 O653 1.278 . S
C652 O660 1.224 . S
O653 C652 1.278 . S
C654 O655 1.245 . S
C654 O666 1.232 . S
O655 C654 1.245 . S
O656 Co650 2.058 . S
O656 C682 1.269 . S
O657 Co649 2.074 . S
O657 C682 1.257 . S
H658 C683 0.930 . S
H659 C689 0.930 . S
O660 Co649 2.093 . S
O660 C652 1.224 . S
H661 C693 0.929 . S
H662 C695 0.930 . S
H663 C696 0.930 . S
H664 C694 0.929 . S
H665 C697 0.928 . S
O666 Co650 2.057 . S
O666 C654 1.232 . S
H667 C686 0.929 . S
H668 C687 0.929 . S
H669 C699 0.931 . S
H670 C691 0.929 . S
H671 C700 0.930 . S
H672 C692 0.931 . S
O673 Co649 2.097 . S
O673 C701 1.214 . S
H674 C702 0.929 . S
H675 C703 0.929 . S
H676 C704 0.930 . S
H677 C705 0.929 . S
H678 C707 0.930 . S
H679 C684 0.930 . S
H680 C688 0.930 . S
O681 Co650 2.037 . S
O681 C701 1.234 . S
C682 O656 1.269 . S
C682 O657 1.257 . S
C683 H658 0.930 . S
C683 C686 1.388 . S
C683 C688 1.418 . S
C684 H679 0.930 . S
C684 C687 1.404 . S
C684 C688 1.353 . S
N685 Co650 2.145 . S
N685 C686 1.397 . S
N685 C687 1.334 . S
C686 H667 0.929 . S
C686 C683 1.388 . S
C686 N685 1.397 . S
C687 H668 0.929 . S
C687 C684 1.404 . S
C687 N685 1.334 . S
C688 H680 0.930 . S
C688 C683 1.418 . S
C688 C684 1.353 . S
C689 H659 0.930 . S
C689 N690 1.330 . S
C689 C691 1.446 . S
N690 Co649 2.151 . S
N690 C689 1.330 . S
N690 C694 1.418 . S
C691 H670 0.929 . S
C691 C689 1.446 . S
C691 C692 1.332 . S
C692 H672 0.931 . S
C692 C691 1.332 . S
C692 C693 1.267 . S
C693 H661 0.929 . S
C693 C692 1.267 . S
C693 C694 1.251 . S
C694 H664 0.929 . S
C694 N690 1.418 . S
C694 C693 1.251 . S
C695 H662 0.930 . S
C695 C697 1.406 . S
C695 C700 1.261 . S
C696 H663 0.930 . S
C696 N698 1.325 . S
C696 C699 1.357 . S
C697 H665 0.928 . S
C697 C695 1.406 . S
C697 N698 1.261 . S
N698 Co649 2.214 . S
N698 C696 1.325 . S
N698 C697 1.261 . S
C699 H669 0.931 . S
C699 C696 1.357 . S
C699 C700 1.312 . S
C700 H671 0.930 . S
C700 C695 1.261 . S
C700 C699 1.312 . S
C701 O673 1.214 . S
C701 O681 1.234 . S
C702 H674 0.929 . S
C702 C705 1.391 . S
C702 C707 1.391 . S
C703 H675 0.929 . S
C703 C704 1.390 . S
C703 N706 1.391 . S
C704 H676 0.930 . S
C704 C703 1.390 . S
C704 C705 1.392 . S
C705 H677 0.929 . S
C705 C702 1.391 . S
C705 C704 1.392 . S
N706 Co650 2.257 . S
N706 C703 1.391 . S
N706 C707 1.388 . S
C707 H678 0.930 . S
C707 C702 1.391 . S
C707 N706 1.388 . S
Co708 O710 2.143 . S
Co708 O716 2.074 . S
Co708 O719 2.093 . S
Co708 O732 2.097 . S
Co708 N749 2.151 . S
Co708 N757 2.214 . S
Co709 O710 2.160 . S
Co709 O715 2.058 . S
Co709 O725 2.057 . S
Co709 O740 2.037 . S
Co709 N744 2.145 . S
Co709 N765 2.257 . S
O710 Co708 2.143 . S
O710 Co709 2.160 . S
C711 O712 1.278 . S
C711 O719 1.224 . S
O712 C711 1.278 . S
C713 O714 1.245 . S
C713 O725 1.232 . S
O714 C713 1.245 . S
O715 Co709 2.058 . S
O715 C741 1.269 . S
O716 Co708 2.074 . S
O716 C741 1.257 . S
H717 C742 0.930 . S
H718 C748 0.930 . S
O719 Co708 2.093 . S
O719 C711 1.224 . S
H720 C752 0.929 . S
H721 C754 0.930 . S
H722 C755 0.930 . S
H723 C753 0.929 . S
H724 C756 0.928 . S
O725 Co709 2.057 . S
O725 C713 1.232 . S
H726 C745 0.929 . S
H727 C746 0.929 . S
H728 C758 0.931 . S
H729 C750 0.929 . S
H730 C759 0.930 . S
H731 C751 0.931 . S
O732 Co708 2.097 . S
O732 C760 1.214 . S
H733 C761 0.929 . S
H734 C762 0.929 . S
H735 C763 0.930 . S
H736 C764 0.929 . S
H737 C766 0.930 . S
H738 C743 0.930 . S
H739 C747 0.930 . S
O740 Co709 2.037 . S
O740 C760 1.234 . S
C741 O715 1.269 . S
C741 O716 1.257 . S
C742 H717 0.930 . S
C742 C745 1.388 . S
C742 C747 1.418 . S
C743 H738 0.930 . S
C743 C746 1.404 . S
C743 C747 1.353 . S
N744 Co709 2.145 . S
N744 C745 1.397 . S
N744 C746 1.334 . S
C745 H726 0.929 . S
C745 C742 1.388 . S
C745 N744 1.397 . S
C746 H727 0.929 . S
C746 C743 1.404 . S
C746 N744 1.334 . S
C747 H739 0.930 . S
C747 C742 1.418 . S
C747 C743 1.353 . S
C748 H718 0.930 . S
C748 N749 1.330 . S
C748 C750 1.446 . S
N749 Co708 2.151 . S
N749 C748 1.330 . S
N749 C753 1.418 . S
C750 H729 0.929 . S
C750 C748 1.446 . S
C750 C751 1.332 . S
C751 H731 0.931 . S
C751 C750 1.332 . S
C751 C752 1.267 . S
C752 H720 0.929 . S
C752 C751 1.267 . S
C752 C753 1.251 . S
C753 H723 0.929 . S
C753 N749 1.418 . S
C753 C752 1.251 . S
C754 H721 0.930 . S
C754 C756 1.406 . S
C754 C759 1.261 . S
C755 H722 0.930 . S
C755 N757 1.325 . S
C755 C758 1.357 . S
C756 H724 0.928 . S
C756 C754 1.406 . S
C756 N757 1.261 . S
N757 Co708 2.214 . S
N757 C755 1.325 . S
N757 C756 1.261 . S
C758 H728 0.931 . S
C758 C755 1.357 . S
C758 C759 1.312 . S
C759 H730 0.930 . S
C759 C754 1.261 . S
C759 C758 1.312 . S
C760 O732 1.214 . S
C760 O740 1.234 . S
C761 H733 0.929 . S
C761 C764 1.391 . S
C761 C766 1.391 . S
C762 H734 0.929 . S
C762 C763 1.390 . S
C762 N765 1.391 . S
C763 H735 0.930 . S
C763 C762 1.390 . S
C763 C764 1.392 . S
C764 H736 0.929 . S
C764 C761 1.391 . S
C764 C763 1.392 . S
N765 Co709 2.257 . S
N765 C762 1.391 . S
N765 C766 1.388 . S
C766 H737 0.930 . S
C766 C761 1.391 . S
C766 N765 1.388 . S
Co767 O769 2.143 . S
Co767 O775 2.074 . S
Co767 O778 2.093 . S
Co767 O791 2.097 . S
Co767 N808 2.151 . S
Co767 N816 2.214 . S
Co768 O769 2.160 . S
Co768 O774 2.058 . S
Co768 O784 2.057 . S
Co768 O799 2.037 . S
Co768 N803 2.145 . S
Co768 N824 2.257 . S
O769 Co767 2.143 . S
O769 Co768 2.160 . S
C770 O771 1.278 . S
C770 O778 1.224 . S
O771 C770 1.278 . S
C772 O773 1.245 . S
C772 O784 1.232 . S
O773 C772 1.245 . S
O774 Co768 2.058 . S
O774 C800 1.269 . S
O775 Co767 2.074 . S
O775 C800 1.257 . S
H776 C801 0.930 . S
H777 C807 0.930 . S
O778 Co767 2.093 . S
O778 C770 1.224 . S
H779 C811 0.929 . S
H780 C813 0.930 . S
H781 C814 0.930 . S
H782 C812 0.929 . S
H783 C815 0.928 . S
O784 Co768 2.057 . S
O784 C772 1.232 . S
H785 C804 0.929 . S
H786 C805 0.929 . S
H787 C817 0.931 . S
H788 C809 0.929 . S
H789 C818 0.930 . S
H790 C810 0.931 . S
O791 Co767 2.097 . S
O791 C819 1.214 . S
H792 C820 0.929 . S
H793 C821 0.929 . S
H794 C822 0.930 . S
H795 C823 0.929 . S
H796 C825 0.930 . S
H797 C802 0.930 . S
H798 C806 0.930 . S
O799 Co768 2.037 . S
O799 C819 1.234 . S
C800 O774 1.269 . S
C800 O775 1.257 . S
C801 H776 0.930 . S
C801 C804 1.388 . S
C801 C806 1.418 . S
C802 H797 0.930 . S
C802 C805 1.404 . S
C802 C806 1.353 . S
N803 Co768 2.145 . S
N803 C804 1.397 . S
N803 C805 1.334 . S
C804 H785 0.929 . S
C804 C801 1.388 . S
C804 N803 1.397 . S
C805 H786 0.929 . S
C805 C802 1.404 . S
C805 N803 1.334 . S
C806 H798 0.930 . S
C806 C801 1.418 . S
C806 C802 1.353 . S
C807 H777 0.930 . S
C807 N808 1.330 . S
C807 C809 1.446 . S
N808 Co767 2.151 . S
N808 C807 1.330 . S
N808 C812 1.418 . S
C809 H788 0.929 . S
C809 C807 1.446 . S
C809 C810 1.332 . S
C810 H790 0.931 . S
C810 C809 1.332 . S
C810 C811 1.267 . S
C811 H779 0.929 . S
C811 C810 1.267 . S
C811 C812 1.251 . S
C812 H782 0.929 . S
C812 N808 1.418 . S
C812 C811 1.251 . S
C813 H780 0.930 . S
C813 C815 1.406 . S
C813 C818 1.261 . S
C814 H781 0.930 . S
C814 N816 1.325 . S
C814 C817 1.357 . S
C815 H783 0.928 . S
C815 C813 1.406 . S
C815 N816 1.261 . S
N816 Co767 2.214 . S
N816 C814 1.325 . S
N816 C815 1.261 . S
C817 H787 0.931 . S
C817 C814 1.357 . S
C817 C818 1.312 . S
C818 H789 0.930 . S
C818 C813 1.261 . S
C818 C817 1.312 . S
C819 O791 1.214 . S
C819 O799 1.234 . S
C820 H792 0.929 . S
C820 C823 1.391 . S
C820 C825 1.391 . S
C821 H793 0.929 . S
C821 C822 1.390 . S
C821 N824 1.391 . S
C822 H794 0.930 . S
C822 C821 1.390 . S
C822 C823 1.392 . S
C823 H795 0.929 . S
C823 C820 1.391 . S
C823 C822 1.392 . S
N824 Co768 2.257 . S
N824 C821 1.391 . S
N824 C825 1.388 . S
C825 H796 0.930 . S
C825 C820 1.391 . S
C825 N824 1.388 . S
Co826 O828 2.143 . S
Co826 O834 2.074 . S
Co826 O837 2.093 . S
Co826 O850 2.097 . S
Co826 N867 2.151 . S
Co826 N875 2.214 . S
Co827 O828 2.160 . S
Co827 O833 2.058 . S
Co827 O843 2.057 . S
Co827 O858 2.037 . S
Co827 N862 2.145 . S
Co827 N883 2.257 . S
O828 Co826 2.143 . S
O828 Co827 2.160 . S
C829 O830 1.278 . S
C829 O837 1.224 . S
O830 C829 1.278 . S
C831 O832 1.245 . S
C831 O843 1.232 . S
O832 C831 1.245 . S
O833 Co827 2.058 . S
O833 C859 1.269 . S
O834 Co826 2.074 . S
O834 C859 1.257 . S
H835 C860 0.930 . S
H836 C866 0.930 . S
O837 Co826 2.093 . S
O837 C829 1.224 . S
H838 C870 0.929 . S
H839 C872 0.930 . S
H840 C873 0.930 . S
H841 C871 0.929 . S
H842 C874 0.928 . S
O843 Co827 2.057 . S
O843 C831 1.232 . S
H844 C863 0.929 . S
H845 C864 0.929 . S
H846 C876 0.931 . S
H847 C868 0.929 . S
H848 C877 0.930 . S
H849 C869 0.931 . S
O850 Co826 2.097 . S
O850 C878 1.214 . S
H851 C879 0.929 . S
H852 C880 0.929 . S
H853 C881 0.930 . S
H854 C882 0.929 . S
H855 C884 0.930 . S
H856 C861 0.930 . S
H857 C865 0.930 . S
O858 Co827 2.037 . S
O858 C878 1.234 . S
C859 O833 1.269 . S
C859 O834 1.257 . S
C860 H835 0.930 . S
C860 C863 1.388 . S
C860 C865 1.418 . S
C861 H856 0.930 . S
C861 C864 1.404 . S
C861 C865 1.353 . S
N862 Co827 2.145 . S
N862 C863 1.397 . S
N862 C864 1.334 . S
C863 H844 0.929 . S
C863 C860 1.388 . S
C863 N862 1.397 . S
C864 H845 0.929 . S
C864 C861 1.404 . S
C864 N862 1.334 . S
C865 H857 0.930 . S
C865 C860 1.418 . S
C865 C861 1.353 . S
C866 H836 0.930 . S
C866 N867 1.330 . S
C866 C868 1.446 . S
N867 Co826 2.151 . S
N867 C866 1.330 . S
N867 C871 1.418 . S
C868 H847 0.929 . S
C868 C866 1.446 . S
C868 C869 1.332 . S
C869 H849 0.931 . S
C869 C868 1.332 . S
C869 C870 1.267 . S
C870 H838 0.929 . S
C870 C869 1.267 . S
C870 C871 1.251 . S
C871 H841 0.929 . S
C871 N867 1.418 . S
C871 C870 1.251 . S
C872 H839 0.930 . S
C872 C874 1.406 . S
C872 C877 1.261 . S
C873 H840 0.930 . S
C873 N875 1.325 . S
C873 C876 1.357 . S
C874 H842 0.928 . S
C874 C872 1.406 . S
C874 N875 1.261 . S
N875 Co826 2.214 . S
N875 C873 1.325 . S
N875 C874 1.261 . S
C876 H846 0.931 . S
C876 C873 1.357 . S
C876 C877 1.312 . S
C877 H848 0.930 . S
C877 C872 1.261 . S
C877 C876 1.312 . S
C878 O850 1.214 . S
C878 O858 1.234 . S
C879 H851 0.929 . S
C879 C882 1.391 . S
C879 C884 1.391 . S
C880 H852 0.929 . S
C880 C881 1.390 . S
C880 N883 1.391 . S
C881 H853 0.930 . S
C881 C880 1.390 . S
C881 C882 1.392 . S
C882 H854 0.929 . S
C882 C879 1.391 . S
C882 C881 1.392 . S
N883 Co827 2.257 . S
N883 C880 1.391 . S
N883 C884 1.388 . S
C884 H855 0.930 . S
C884 C879 1.391 . S
C884 N883 1.388 . S
Co885 O887 2.143 . S
Co885 O893 2.074 . S
Co885 O896 2.093 . S
Co885 O909 2.097 . S
Co885 N926 2.151 . S
Co885 N934 2.214 . S
Co886 O887 2.160 . S
Co886 O892 2.058 . S
Co886 O902 2.057 . S
Co886 O917 2.037 . S
Co886 N921 2.145 . S
Co886 N942 2.257 . S
O887 Co885 2.143 . S
O887 Co886 2.160 . S
C888 O889 1.278 . S
C888 O896 1.224 . S
O889 C888 1.278 . S
C890 O891 1.245 . S
C890 O902 1.232 . S
O891 C890 1.245 . S
O892 Co886 2.058 . S
O892 C918 1.269 . S
O893 Co885 2.074 . S
O893 C918 1.257 . S
H894 C919 0.930 . S
H895 C925 0.930 . S
O896 Co885 2.093 . S
O896 C888 1.224 . S
H897 C929 0.929 . S
H898 C931 0.930 . S
H899 C932 0.930 . S
H900 C930 0.929 . S
H901 C933 0.928 . S
O902 Co886 2.057 . S
O902 C890 1.232 . S
H903 C922 0.929 . S
H904 C923 0.929 . S
H905 C935 0.931 . S
H906 C927 0.929 . S
H907 C936 0.930 . S
H908 C928 0.931 . S
O909 Co885 2.097 . S
O909 C937 1.214 . S
H910 C938 0.929 . S
H911 C939 0.929 . S
H912 C940 0.930 . S
H913 C941 0.929 . S
H914 C943 0.930 . S
H915 C920 0.930 . S
H916 C924 0.930 . S
O917 Co886 2.037 . S
O917 C937 1.234 . S
C918 O892 1.269 . S
C918 O893 1.257 . S
C919 H894 0.930 . S
C919 C922 1.388 . S
C919 C924 1.418 . S
C920 H915 0.930 . S
C920 C923 1.404 . S
C920 C924 1.353 . S
N921 Co886 2.145 . S
N921 C922 1.397 . S
N921 C923 1.334 . S
C922 H903 0.929 . S
C922 C919 1.388 . S
C922 N921 1.397 . S
C923 H904 0.929 . S
C923 C920 1.404 . S
C923 N921 1.334 . S
C924 H916 0.930 . S
C924 C919 1.418 . S
C924 C920 1.353 . S
C925 H895 0.930 . S
C925 N926 1.330 . S
C925 C927 1.446 . S
N926 Co885 2.151 . S
N926 C925 1.330 . S
N926 C930 1.418 . S
C927 H906 0.929 . S
C927 C925 1.446 . S
C927 C928 1.332 . S
C928 H908 0.931 . S
C928 C927 1.332 . S
C928 C929 1.267 . S
C929 H897 0.929 . S
C929 C928 1.267 . S
C929 C930 1.251 . S
C930 H900 0.929 . S
C930 N926 1.418 . S
C930 C929 1.251 . S
C931 H898 0.930 . S
C931 C933 1.406 . S
C931 C936 1.261 . S
C932 H899 0.930 . S
C932 N934 1.325 . S
C932 C935 1.357 . S
C933 H901 0.928 . S
C933 C931 1.406 . S
C933 N934 1.261 . S
N934 Co885 2.214 . S
N934 C932 1.325 . S
N934 C933 1.261 . S
C935 H905 0.931 . S
C935 C932 1.357 . S
C935 C936 1.312 . S
C936 H907 0.930 . S
C936 C931 1.261 . S
C936 C935 1.312 . S
C937 O909 1.214 . S
C937 O917 1.234 . S
C938 H910 0.929 . S
C938 C941 1.391 . S
C938 C943 1.391 . S
C939 H911 0.929 . S
C939 C940 1.390 . S
C939 N942 1.391 . S
C940 H912 0.930 . S
C940 C939 1.390 . S
C940 C941 1.392 . S
C941 H913 0.929 . S
C941 C938 1.391 . S
C941 C940 1.392 . S
N942 Co886 2.257 . S
N942 C939 1.391 . S
N942 C943 1.388 . S
C943 H914 0.930 . S
C943 C938 1.391 . S
C943 N942 1.388 . S
C944 C945 1.369 . S
C944 C946 1.419 . S
C944 H948 0.930 . S
C945 C944 1.369 . S
C945 C954 1.429 . S
C946 C944 1.419 . S
C946 C947 1.363 . S
C946 H949 0.929 . S
C947 C946 1.363 . S
C947 C953 1.428 . S
H948 C944 0.930 . S
H949 C946 0.929 . S
S950 N951 1.613 . S
S950 N952 1.610 . S
N951 S950 1.613 . S
N951 C954 1.350 . S
N952 S950 1.610 . S
N952 C953 1.351 . S
C953 C947 1.428 . S
C953 N952 1.351 . S
C953 C954 1.434 . S
C954 C945 1.429 . S
C954 N951 1.350 . S
C954 C953 1.434 . S
C955 C956 1.369 . S
C955 C957 1.419 . S
C955 H959 0.930 . S
C956 C955 1.369 . S
C956 C965 1.429 . S
C957 C955 1.419 . S
C957 C958 1.363 . S
C957 H960 0.929 . S
C958 C957 1.363 . S
C958 C964 1.428 . S
H959 C955 0.930 . S
H960 C957 0.929 . S
S961 N962 1.613 . S
S961 N963 1.610 . S
N962 S961 1.613 . S
N962 C965 1.350 . S
N963 S961 1.610 . S
N963 C964 1.351 . S
C964 C958 1.428 . S
C964 N963 1.351 . S
C964 C965 1.434 . S
C965 C956 1.429 . S
C965 N962 1.350 . S
C965 C964 1.434 . S
C966 C967 1.369 . S
C966 C968 1.419 . S
C966 H970 0.930 . S
C967 C966 1.369 . S
C967 C976 1.429 . S
C968 C966 1.419 . S
C968 C969 1.363 . S
C968 H971 0.929 . S
C969 C968 1.363 . S
C969 C975 1.428 . S
H970 C966 0.930 . S
H971 C968 0.929 . S
S972 N973 1.613 . S
S972 N974 1.610 . S
N973 S972 1.613 . S
N973 C976 1.350 . S
N974 S972 1.610 . S
N974 C975 1.351 . S
C975 C969 1.428 . S
C975 N974 1.351 . S
C975 C976 1.434 . S
C976 C967 1.429 . S
C976 N973 1.350 . S
C976 C975 1.434 . S
C977 C978 1.369 . S
C977 C979 1.419 . S
C977 H981 0.930 . S
C978 C977 1.369 . S
C978 C987 1.429 . S
C979 C977 1.419 . S
C979 C980 1.363 . S
C979 H982 0.929 . S
C980 C979 1.363 . S
C980 C986 1.428 . S
H981 C977 0.930 . S
H982 C979 0.929 . S
S983 N984 1.613 . S
S983 N985 1.610 . S
N984 S983 1.613 . S
N984 C987 1.350 . S
N985 S983 1.610 . S
N985 C986 1.351 . S
C986 C980 1.428 . S
C986 N985 1.351 . S
C986 C987 1.434 . S
C987 C978 1.429 . S
C987 N984 1.350 . S
C987 C986 1.434 . S
C988 C989 1.369 . S
C988 C990 1.419 . S
C988 H992 0.930 . S
C989 C988 1.369 . S
C989 C998 1.429 . S
C990 C988 1.419 . S
C990 C991 1.363 . S
C990 H993 0.929 . S
C991 C990 1.363 . S
C991 C997 1.428 . S
H992 C988 0.930 . S
H993 C990 0.929 . S
S994 N995 1.613 . S
S994 N996 1.610 . S
N995 S994 1.613 . S
N995 C998 1.350 . S
N996 S994 1.610 . S
N996 C997 1.351 . S
C997 C991 1.428 . S
C997 N996 1.351 . S
C997 C998 1.434 . S
C998 C989 1.429 . S
C998 N995 1.350 . S
C998 C997 1.434 . S
C999 C1000 1.369 . S
C999 C1001 1.419 . S
C999 H1003 0.930 . S
C1000 C999 1.369 . S
C1000 C1009 1.429 . S
C1001 C999 1.419 . S
C1001 C1002 1.363 . S
C1001 H1004 0.929 . S
C1002 C1001 1.363 . S
C1002 C1008 1.428 . S
H1003 C999 0.930 . S
H1004 C1001 0.929 . S
S1005 N1006 1.613 . S
S1005 N1007 1.610 . S
N1006 S1005 1.613 . S
N1006 C1009 1.350 . S
N1007 S1005 1.610 . S
N1007 C1008 1.351 . S
C1008 C1002 1.428 . S
C1008 N1007 1.351 . S
C1008 C1009 1.434 . S
C1009 C1000 1.429 . S
C1009 N1006 1.350 . S
C1009 C1008 1.434 . S
C1010 C1011 1.369 . S
C1010 C1012 1.419 . S
C1010 H1014 0.930 . S
C1011 C1010 1.369 . S
C1011 C1020 1.429 . S
C1012 C1010 1.419 . S
C1012 C1013 1.363 . S
C1012 H1015 0.929 . S
C1013 C1012 1.363 . S
C1013 C1019 1.428 . S
H1014 C1010 0.930 . S
H1015 C1012 0.929 . S
S1016 N1017 1.613 . S
S1016 N1018 1.610 . S
N1017 S1016 1.613 . S
N1017 C1020 1.350 . S
N1018 S1016 1.610 . S
N1018 C1019 1.351 . S
C1019 C1013 1.428 . S
C1019 N1018 1.351 . S
C1019 C1020 1.434 . S
C1020 C1011 1.429 . S
C1020 N1017 1.350 . S
C1020 C1019 1.434 . S
C1021 C1022 1.369 . S
C1021 C1023 1.419 . S
C1021 H1025 0.930 . S
C1022 C1021 1.369 . S
C1022 C1031 1.429 . S
C1023 C1021 1.419 . S
C1023 C1024 1.363 . S
C1023 H1026 0.929 . S
C1024 C1023 1.363 . S
C1024 C1030 1.428 . S
H1025 C1021 0.930 . S
H1026 C1023 0.929 . S
S1027 N1028 1.613 . S
S1027 N1029 1.610 . S
N1028 S1027 1.613 . S
N1028 C1031 1.350 . S
N1029 S1027 1.610 . S
N1029 C1030 1.351 . S
C1030 C1024 1.428 . S
C1030 N1029 1.351 . S
C1030 C1031 1.434 . S
C1031 C1022 1.429 . S
C1031 N1028 1.350 . S
C1031 C1030 1.434 . S
C1032 C1033 1.369 1_545 S
C1032 C1034 1.419 . S
C1032 H1036 0.930 . S
C1033 C1032 1.369 1_565 S
C1033 C1042 1.429 . S
C1034 C1032 1.419 . S
C1034 C1035 1.363 . S
C1034 H1037 0.929 . S
C1035 C1034 1.363 . S
C1035 C1041 1.428 . S
H1036 C1032 0.930 . S
H1037 C1034 0.929 . S
S1038 N1039 1.613 . S
S1038 N1040 1.610 . S
N1039 S1038 1.613 . S
N1039 C1042 1.350 . S
N1040 S1038 1.610 . S
N1040 C1041 1.351 1_565 S
C1041 C1035 1.428 . S
C1041 N1040 1.351 1_545 S
C1041 C1042 1.434 1_545 S
C1042 C1033 1.429 . S
C1042 N1039 1.350 . S
C1042 C1041 1.434 1_565 S
C1043 C1044 1.369 . S
C1043 C1045 1.419 . S
C1043 H1047 0.930 . S
C1044 C1043 1.369 . S
C1044 C1053 1.429 . S
C1045 C1043 1.419 . S
C1045 C1046 1.363 . S
C1045 H1048 0.929 . S
C1046 C1045 1.363 . S
C1046 C1052 1.428 . S
H1047 C1043 0.930 . S
H1048 C1045 0.929 . S
S1049 N1050 1.613 . S
S1049 N1051 1.610 . S
N1050 S1049 1.613 . S
N1050 C1053 1.350 . S
N1051 S1049 1.610 . S
N1051 C1052 1.351 . S
C1052 C1046 1.428 . S
C1052 N1051 1.351 . S
C1052 C1053 1.434 . S
C1053 C1044 1.429 . S
C1053 N1050 1.350 . S
C1053 C1052 1.434 . S
C1054 C1055 1.369 . S
C1054 C1056 1.419 1_556 S
C1054 H1058 0.930 . S
C1055 C1054 1.369 . S
C1055 C1064 1.429 . S
C1056 C1054 1.419 1_554 S
C1056 C1057 1.363 . S
C1056 H1059 0.929 . S
C1057 C1056 1.363 . S
C1057 C1063 1.428 1_554 S
H1058 C1054 0.930 . S
H1059 C1056 0.929 . S
S1060 N1061 1.613 . S
S1060 N1062 1.610 . S
N1061 S1060 1.613 . S
N1061 C1064 1.350 . S
N1062 S1060 1.610 . S
N1062 C1063 1.351 . S
C1063 C1057 1.428 1_556 S
C1063 N1062 1.351 . S
C1063 C1064 1.434 . S
C1064 C1055 1.429 . S
C1064 N1061 1.350 . S
C1064 C1063 1.434 . S
C1065 C1066 1.369 . S
C1065 C1067 1.419 1_554 S
C1065 H1069 0.930 . S
C1066 C1065 1.369 . S
C1066 C1075 1.429 1_554 S
C1067 C1065 1.419 1_556 S
C1067 C1068 1.363 . S
C1067 H1070 0.929 . S
C1068 C1067 1.363 . S
C1068 C1074 1.428 . S
H1069 C1065 0.930 . S
H1070 C1067 0.929 . S
S1071 N1072 1.613 . S
S1071 N1073 1.610 . S
N1072 S1071 1.613 . S
N1072 C1075 1.350 . S
N1073 S1071 1.610 . S
N1073 C1074 1.351 . S
C1074 C1068 1.428 . S
C1074 N1073 1.351 . S
C1074 C1075 1.434 . S
C1075 C1066 1.429 1_556 S
C1075 N1072 1.350 . S
C1075 C1074 1.434 . S
C1076 C1077 1.369 . S
C1076 C1078 1.419 . S
C1076 H1080 0.930 . S
C1077 C1076 1.369 . S
C1077 C1086 1.429 . S
C1078 C1076 1.419 . S
C1078 C1079 1.363 . S
C1078 H1081 0.929 . S
C1079 C1078 1.363 . S
C1079 C1085 1.428 . S
H1080 C1076 0.930 . S
H1081 C1078 0.929 . S
S1082 N1083 1.613 . S
S1082 N1084 1.610 . S
N1083 S1082 1.613 . S
N1083 C1086 1.350 . S
N1084 S1082 1.610 . S
N1084 C1085 1.351 . S
C1085 C1079 1.428 . S
C1085 N1084 1.351 . S
C1085 C1086 1.434 . S
C1086 C1077 1.429 . S
C1086 N1083 1.350 . S
C1086 C1085 1.434 . S
C1087 C1088 1.369 . S
C1087 C1089 1.419 . S
C1087 H1091 0.930 . S
C1088 C1087 1.369 . S
C1088 C1097 1.429 . S
C1089 C1087 1.419 . S
C1089 C1090 1.363 . S
C1089 H1092 0.929 . S
C1090 C1089 1.363 . S
C1090 C1096 1.428 . S
H1091 C1087 0.930 . S
H1092 C1089 0.929 . S
S1093 N1094 1.613 . S
S1093 N1095 1.610 . S
N1094 S1093 1.613 . S
N1094 C1097 1.350 . S
N1095 S1093 1.610 . S
N1095 C1096 1.351 . S
C1096 C1090 1.428 . S
C1096 N1095 1.351 . S
C1096 C1097 1.434 . S
C1097 C1088 1.429 . S
C1097 N1094 1.350 . S
C1097 C1096 1.434 . S
C1098 C1099 1.369 . S
C1098 C1100 1.436 . S
C1098 H1102 0.930 . S
C1099 C1098 1.369 . S
C1099 C1108 1.429 1_655 S
C1100 C1098 1.436 . S
C1100 C1101 1.347 1_655 S
C1100 H1103 0.928 . S
C1101 C1100 1.347 1_455 S
C1101 C1107 1.428 . S
H1102 C1098 0.930 . S
H1103 C1100 0.928 . S
S1104 N1105 1.613 . S
S1104 N1106 1.610 . S
N1105 S1104 1.613 . S
N1105 C1108 1.350 . S
N1106 S1104 1.610 . S
N1106 C1107 1.351 . S
C1107 C1101 1.428 . S
C1107 N1106 1.351 . S
C1107 C1108 1.434 . S
C1108 C1099 1.429 1_455 S
C1108 N1105 1.350 . S
C1108 C1107 1.434 . S
C1109 C1110 1.369 . S
C1109 C1111 1.419 1_655 S
C1109 H1113 0.930 . S
C1110 C1109 1.369 . S
C1110 C1119 1.429 . S
C1111 C1109 1.419 1_455 S
C1111 C1112 1.363 . S
C1111 H1114 0.929 . S
C1112 C1111 1.363 . S
C1112 C1118 1.428 . S
H1113 C1109 0.930 . S
H1114 C1111 0.929 . S
S1115 N1116 1.613 . S
S1115 N1117 1.610 1_655 S
N1116 S1115 1.613 . S
N1116 C1119 1.350 . S
N1117 S1115 1.610 1_455 S
N1117 C1118 1.351 . S
C1118 C1112 1.428 . S
C1118 N1117 1.351 . S
C1118 C1119 1.434 1_455 S
C1119 C1110 1.429 . S
C1119 N1116 1.350 . S
C1119 C1118 1.434 1_655 S
C1120 C1121 1.369 . S
C1120 C1122 1.419 . S
C1120 H1124 0.930 . S
C1121 C1120 1.369 . S
C1121 C1130 1.429 . S
C1122 C1120 1.419 . S
C1122 C1123 1.363 . S
C1122 H1125 0.929 . S
C1123 C1122 1.363 . S
C1123 C1129 1.428 . S
H1124 C1120 0.930 . S
H1125 C1122 0.929 . S
S1126 N1127 1.613 . S
S1126 N1128 1.610 . S
N1127 S1126 1.613 . S
N1127 C1130 1.350 . S
N1128 S1126 1.610 . S
N1128 C1129 1.351 . S
C1129 C1123 1.428 . S
C1129 N1128 1.351 . S
C1129 C1130 1.434 . S
C1130 C1121 1.429 . S
C1130 N1127 1.350 . S
C1130 C1129 1.434 . S
C1131 C1132 1.369 . S
C1131 C1133 1.419 1_545 S
C1131 H1135 0.930 . S
C1132 C1131 1.369 . S
C1132 C1141 1.429 1_545 S
C1133 C1131 1.419 1_565 S
C1133 C1134 1.363 . S
C1133 H1136 0.929 1_565 S
C1134 C1133 1.363 . S
C1134 C1140 1.428 . S
H1135 C1131 0.930 . S
H1136 C1133 0.929 1_545 S
S1137 N1138 1.613 . S
S1137 N1139 1.610 . S
N1138 S1137 1.613 . S
N1138 C1141 1.350 . S
N1139 S1137 1.610 . S
N1139 C1140 1.351 . S
C1140 C1134 1.428 . S
C1140 N1139 1.351 . S
C1140 C1141 1.434 . S
C1141 C1132 1.429 1_565 S
C1141 N1138 1.350 . S
C1141 C1140 1.434 . S
C1142 C1143 1.369 . S
C1142 C1144 1.419 . S
C1142 H1146 0.930 . S
C1143 C1142 1.369 . S
C1143 C1152 1.429 . S
C1144 C1142 1.419 . S
C1144 C1145 1.363 . S
C1144 H1147 0.929 . S
C1145 C1144 1.363 . S
C1145 C1151 1.428 . S
H1146 C1142 0.930 . S
H1147 C1144 0.929 . S
S1148 N1149 1.613 . S
S1148 N1150 1.610 . S
N1149 S1148 1.613 . S
N1149 C1152 1.350 . S
N1150 S1148 1.610 . S
N1150 C1151 1.351 . S
C1151 C1145 1.428 . S
C1151 N1150 1.351 . S
C1151 C1152 1.434 . S
C1152 C1143 1.429 . S
C1152 N1149 1.350 . S
C1152 C1151 1.434 . S
C1153 C1154 1.369 . S
C1153 C1155 1.430 . S
C1153 H1157 0.930 . S
C1154 C1153 1.369 . S
C1154 C1163 1.429 . S
C1155 C1153 1.430 . S
C1155 C1156 1.359 1_554 S
C1155 H1158 0.921 1_554 S
C1156 C1155 1.359 1_556 S
C1156 C1162 1.428 1_556 S
H1157 C1153 0.930 . S
H1158 C1155 0.921 1_556 S
S1159 N1160 1.613 . S
S1159 N1161 1.610 . S
N1160 S1159 1.613 . S
N1160 C1163 1.350 . S
N1161 S1159 1.610 . S
N1161 C1162 1.351 . S
C1162 C1156 1.428 1_554 S
C1162 N1161 1.351 . S
C1162 C1163 1.434 . S
C1163 C1154 1.429 . S
C1163 N1160 1.350 . S
C1163 C1162 1.434 . S
C1164 C1165 1.369 1_554 S
C1164 C1166 1.419 . S
C1164 H1168 0.930 1_554 S
C1165 C1164 1.369 1_556 S
C1165 C1174 1.429 1_556 S
C1166 C1164 1.419 . S
C1166 C1167 1.363 . S
C1166 H1169 0.929 . S
C1167 C1166 1.363 . S
C1167 C1173 1.428 . S
H1168 C1164 0.930 1_556 S
H1169 C1166 0.929 . S
S1170 N1171 1.613 . S
S1170 N1172 1.610 . S
N1171 S1170 1.613 . S
N1171 C1174 1.350 . S
N1172 S1170 1.610 . S
N1172 C1173 1.351 . S
C1173 C1167 1.428 . S
C1173 N1172 1.351 . S
C1173 C1174 1.434 . S
C1174 C1165 1.429 1_554 S
C1174 N1171 1.350 . S
C1174 C1173 1.434 . S
C1175 C1176 1.369 . S
C1175 C1177 1.419 . S
C1175 H1179 0.930 . S
C1176 C1175 1.369 . S
C1176 C1185 1.429 . S
C1177 C1175 1.419 . S
C1177 C1178 1.363 . S
C1177 H1180 0.929 . S
C1178 C1177 1.363 . S
C1178 C1184 1.428 . S
H1179 C1175 0.930 . S
H1180 C1177 0.929 . S
S1181 N1182 1.613 . S
S1181 N1183 1.610 . S
N1182 S1181 1.613 . S
N1182 C1185 1.350 . S
N1183 S1181 1.610 . S
N1183 C1184 1.351 . S
C1184 C1178 1.428 . S
C1184 N1183 1.351 . S
C1184 C1185 1.434 . S
C1185 C1176 1.429 . S
C1185 N1182 1.350 . S
C1185 C1184 1.434 . S
C1186 C1187 1.369 . S
C1186 C1188 1.419 . S
C1186 H1190 0.930 . S
C1187 C1186 1.369 . S
C1187 C1196 1.429 . S
C1188 C1186 1.419 . S
C1188 C1189 1.363 . S
C1188 H1191 0.929 . S
C1189 C1188 1.363 . S
C1189 C1195 1.428 . S
H1190 C1186 0.930 . S
H1191 C1188 0.929 . S
S1192 N1193 1.613 . S
S1192 N1194 1.610 . S
N1193 S1192 1.613 . S
N1193 C1196 1.350 . S
N1194 S1192 1.610 . S
N1194 C1195 1.351 . S
C1195 C1189 1.428 . S
C1195 N1194 1.351 . S
C1195 C1196 1.434 . S
C1196 C1187 1.429 . S
C1196 N1193 1.350 . S
C1196 C1195 1.434 . S
C1197 C1198 1.369 1_655 S
C1197 C1199 1.419 . S
C1197 H1201 0.930 . S
C1198 C1197 1.369 1_455 S
C1198 C1207 1.429 . S
C1199 C1197 1.419 . S
C1199 C1200 1.363 . S
C1199 H1202 0.929 . S
C1200 C1199 1.363 . S
C1200 C1206 1.428 1_655 S
H1201 C1197 0.930 . S
H1202 C1199 0.929 . S
S1203 N1204 1.613 . S
S1203 N1205 1.610 . S
N1204 S1203 1.613 . S
N1204 C1207 1.350 . S
N1205 S1203 1.610 . S
N1205 C1206 1.351 . S
C1206 C1200 1.428 1_455 S
C1206 N1205 1.351 . S
C1206 C1207 1.434 . S
C1207 C1198 1.429 . S
C1207 N1204 1.350 . S
C1207 C1206 1.434 . S
C1208 C1209 1.369 . S
C1208 C1210 1.404 1_455 S
C1208 H1212 0.930 . S
C1209 C1208 1.369 . S
C1209 C1218 1.415 1_455 S
C1210 C1208 1.404 1_655 S
C1210 C1211 1.382 . S
C1210 H1213 0.922 1_655 S
C1211 C1210 1.382 . S
C1211 C1217 1.428 . S
H1212 C1208 0.930 . S
H1213 C1210 0.922 1_455 S
S1214 N1215 1.613 . S
S1214 N1216 1.610 . S
N1215 S1214 1.613 . S
N1215 C1218 1.354 . S
N1216 S1214 1.610 . S
N1216 C1217 1.351 . S
C1217 C1211 1.428 . S
C1217 N1216 1.351 . S
C1217 C1218 1.445 . S
C1218 C1209 1.415 1_655 S
C1218 N1215 1.354 . S
C1218 C1217 1.445 . S
C1219 C1220 1.369 . S
C1219 C1221 1.419 . S
C1219 H1223 0.930 . S
C1220 C1219 1.369 . S
C1220 C1229 1.429 . S
C1221 C1219 1.419 . S
C1221 C1222 1.363 . S
C1221 H1224 0.929 . S
C1222 C1221 1.363 . S
C1222 C1228 1.428 . S
H1223 C1219 0.930 . S
H1224 C1221 0.929 . S
S1225 N1226 1.613 . S
S1225 N1227 1.610 . S
N1226 S1225 1.613 . S
N1226 C1229 1.350 . S
N1227 S1225 1.610 . S
N1227 C1228 1.351 . S
C1228 C1222 1.428 . S
C1228 N1227 1.351 . S
C1228 C1229 1.434 . S
C1229 C1220 1.429 . S
C1229 N1226 1.350 . S
C1229 C1228 1.434 . S
C1230 C1231 1.369 . S
C1230 C1232 1.419 . S
C1230 H1234 0.930 . S
C1231 C1230 1.369 . S
C1231 C1240 1.429 . S
C1232 C1230 1.419 . S
C1232 C1233 1.363 . S
C1232 H1235 0.929 . S
C1233 C1232 1.363 . S
C1233 C1239 1.428 . S
H1234 C1230 0.930 . S
H1235 C1232 0.929 . S
S1236 N1237 1.613 . S
S1236 N1238 1.610 . S
N1237 S1236 1.613 . S
N1237 C1240 1.350 . S
N1238 S1236 1.610 . S
N1238 C1239 1.351 . S
C1239 C1233 1.428 . S
C1239 N1238 1.351 . S
C1239 C1240 1.434 . S
C1240 C1231 1.429 . S
C1240 N1237 1.350 . S
C1240 C1239 1.434 . S
C1241 C1242 1.369 . S
C1241 C1243 1.419 1_545 S
C1241 H1245 0.930 . S
C1242 C1241 1.369 . S
C1242 C1251 1.429 1_545 S
C1243 C1241 1.419 1_565 S
C1243 C1244 1.363 . S
C1243 H1246 0.929 . S
C1244 C1243 1.363 . S
C1244 C1250 1.428 . S
H1245 C1241 0.930 . S
H1246 C1243 0.929 . S
S1247 N1248 1.613 . S
S1247 N1249 1.610 . S
N1248 S1247 1.613 . S
N1248 C1251 1.350 . S
N1249 S1247 1.610 . S
N1249 C1250 1.351 . S
C1250 C1244 1.428 . S
C1250 N1249 1.351 . S
C1250 C1251 1.434 . S
C1251 C1242 1.429 1_565 S
C1251 N1248 1.350 . S
C1251 C1250 1.434 . S
C1252 C1253 1.369 . S
C1252 C1254 1.419 . S
C1252 H1256 0.930 . S
C1253 C1252 1.369 . S
C1253 C1262 1.429 . S
C1254 C1252 1.419 . S
C1254 C1255 1.363 . S
C1254 H1257 0.929 . S
C1255 C1254 1.363 . S
C1255 C1261 1.428 . S
H1256 C1252 0.930 . S
H1257 C1254 0.929 . S
S1258 N1259 1.613 . S
S1258 N1260 1.610 . S
N1259 S1258 1.613 . S
N1259 C1262 1.350 . S
N1260 S1258 1.610 . S
N1260 C1261 1.351 . S
C1261 C1255 1.428 . S
C1261 N1260 1.351 . S
C1261 C1262 1.434 . S
C1262 C1253 1.429 . S
C1262 N1259 1.350 . S
C1262 C1261 1.434 . S
C1263 C1264 1.369 . S
C1263 C1265 1.419 . S
C1263 H1267 0.930 . S
C1264 C1263 1.369 . S
C1264 C1273 1.429 . S
C1265 C1263 1.419 . S
C1265 C1266 1.363 . S
C1265 H1268 0.929 . S
C1266 C1265 1.363 . S
C1266 C1272 1.428 . S
H1267 C1263 0.930 . S
H1268 C1265 0.929 . S
S1269 N1270 1.613 . S
S1269 N1271 1.610 . S
N1270 S1269 1.613 . S
N1270 C1273 1.350 . S
N1271 S1269 1.610 . S
N1271 C1272 1.351 . S
C1272 C1266 1.428 . S
C1272 N1271 1.351 . S
C1272 C1273 1.434 . S
C1273 C1264 1.429 . S
C1273 N1270 1.350 . S
C1273 C1272 1.434 . S
C1274 C1275 1.369 1_565 S
C1274 C1276 1.419 . S
C1274 H1278 0.930 . S
C1275 C1274 1.369 1_545 S
C1275 C1284 1.429 . S
C1276 C1274 1.419 . S
C1276 C1277 1.363 . S
C1276 H1279 0.929 . S
C1277 C1276 1.363 . S
C1277 C1283 1.428 1_565 S
H1278 C1274 0.930 . S
H1279 C1276 0.929 . S
S1280 N1281 1.613 . S
S1280 N1282 1.610 . S
N1281 S1280 1.613 . S
N1281 C1284 1.350 . S
N1282 S1280 1.610 . S
N1282 C1283 1.351 . S
C1283 C1277 1.428 1_545 S
C1283 N1282 1.351 . S
C1283 C1284 1.434 . S
C1284 C1275 1.429 . S
C1284 N1281 1.350 . S
C1284 C1283 1.434 . S
C1285 C1286 1.369 . S
C1285 C1287 1.419 . S
C1285 H1289 0.930 . S
C1286 C1285 1.369 . S
C1286 C1295 1.429 . S
C1287 C1285 1.419 . S
C1287 C1288 1.363 . S
C1287 H1290 0.929 . S
C1288 C1287 1.363 . S
C1288 C1294 1.428 . S
H1289 C1285 0.930 . S
H1290 C1287 0.929 . S
S1291 N1292 1.613 . S
S1291 N1293 1.610 . S
N1292 S1291 1.613 . S
N1292 C1295 1.350 . S
N1293 S1291 1.610 . S
N1293 C1294 1.351 . S
C1294 C1288 1.428 . S
C1294 N1293 1.351 . S
C1294 C1295 1.434 . S
C1295 C1286 1.429 . S
C1295 N1292 1.350 . S
C1295 C1294 1.434 . S
C945 C52 1.585 . S
C947 C819 1.558 . S
C956 C111 1.585 . S
C958 C583 1.559 . S
C967 C878 1.203 . S
C969 C170 1.177 . S
C978 C229 1.179 . S
C980 C937 1.203 . S
C989 C288 1.586 . S
C991 C406 1.555 . S
C1000 C642 1.585 . S
C1002 C347 1.559 . S
C1011 C701 1.180 . S
C1013 C465 1.204 . S
C1022 C524 1.203 . S
C1024 C760 1.180 . S
C1033 C121 1.493 . S
C1035 C3 1.516 . S
C1044 C62 1.509 . S
C1046 C180 1.501 . S
C1055 C713 1.591 . S
C1057 C5 1.653 . S
C1066 C64 1.653 . S
C1068 C654 1.595 . S
C1077 C241 1.649 . S
C1079 C123 1.597 . S
C1088 C595 1.654 . S
C1090 C182 1.592 . S
C1099 C92 2.046 . S
C1101 C33 2.047 . S
C1110 C210 1.584 . S
C1112 C151 1.585 . S
C1121 C623 2.046 . S
C1123 C269 2.048 . S
C1132 C418 1.779 . S
C1134 C328 1.799 . S
C1143 C387 1.801 . S
C1145 C477 1.777 . S
C1154 C888 1.652 . S
C1156 C300 1.681 . S
C1165 C359 1.678 . S
C1167 C829 1.647 . S
C1176 C536 1.681 . S
C1178 C416 1.650 . S
C1187 C475 1.645 . S
C1189 C772 1.678 . S
C1198 C357 1.247 . S
C1200 C298 1.251 . S
C1209 C505 1.822 . S
C1211 C446 1.820 . S
C1220 C534 1.242 . S
C1222 C770 1.251 . S
C1231 C593 1.510 . S
C1233 C652 1.502 . S
C1242 C711 1.498 . S
C1244 C239 1.512 . S
C1253 C741 1.585 . S
C1255 C682 1.584 . S
C1264 C831 1.776 . S
C1266 C800 1.801 . S
C1275 C564 1.797 . S
C1277 C890 1.781 . S
C1286 C918 1.819 . S
C1288 C859 1.821 . S
