# Generated by pormake.
# Topology noo, (5)-cn, num edge types: 1
# Building blocks:
#     Node 0, Type 0, BuildingBlock: BEQFEK_clean_sbu_0, # of connection points: 5
#     Node 1, Type 0, BuildingBlock: BEQFEK_clean_sbu_0, # of connection points: 5
#     Node 2, Type 0, BuildingBlock: BEQFEK_clean_sbu_0, # of connection points: 5
#     Node 3, Type 0, BuildingBlock: BEQFEK_clean_sbu_0, # of connection points: 5
#     Node 4, Type 0, BuildingBlock: BEQFEK_clean_sbu_0, # of connection points: 5
#     Node 5, Type 0, BuildingBlock: BEQFEK_clean_sbu_0, # of connection points: 5
#     Node 6, Type 0, BuildingBlock: BEQFEK_clean_sbu_0, # of connection points: 5
#     Node 7, Type 0, BuildingBlock: BEQFEK_clean_sbu_0, # of connection points: 5
#     Edge 8, Type (0, 0), BuildingBlock: TEMPAE_clean_linker_10, # of connection points: 2
#     Edge 9, Type (0, 0), BuildingBlock: TEMPAE_clean_linker_10, # of connection points: 2
#     Edge 10, Type (0, 0), BuildingBlock: TEMPAE_clean_linker_10, # of connection points: 2
#     Edge 11, Type (0, 0), BuildingBlock: TEMPAE_clean_linker_10, # of connection points: 2
#     Edge 12, Type (0, 0), BuildingBlock: TEMPAE_clean_linker_10, # of connection points: 2
#     Edge 13, Type (0, 0), BuildingBlock: TEMPAE_clean_linker_10, # of connection points: 2
#     Edge 14, Type (0, 0), BuildingBlock: TEMPAE_clean_linker_10, # of connection points: 2
#     Edge 15, Type (0, 0), BuildingBlock: TEMPAE_clean_linker_10, # of connection points: 2
#     Edge 16, Type (0, 0), BuildingBlock: TEMPAE_clean_linker_10, # of connection points: 2
#     Edge 17, Type (0, 0), BuildingBlock: TEMPAE_clean_linker_10, # of connection points: 2
#     Edge 18, Type (0, 0), BuildingBlock: TEMPAE_clean_linker_10, # of connection points: 2
#     Edge 19, Type (0, 0), BuildingBlock: TEMPAE_clean_linker_10, # of connection points: 2
#     Edge 20, Type (0, 0), BuildingBlock: TEMPAE_clean_linker_10, # of connection points: 2
#     Edge 21, Type (0, 0), BuildingBlock: TEMPAE_clean_linker_10, # of connection points: 2
#     Edge 22, Type (0, 0), BuildingBlock: TEMPAE_clean_linker_10, # of connection points: 2
#     Edge 23, Type (0, 0), BuildingBlock: TEMPAE_clean_linker_10, # of connection points: 2
#     Edge 24, Type (0, 0), BuildingBlock: TEMPAE_clean_linker_10, # of connection points: 2
#     Edge 25, Type (0, 0), BuildingBlock: TEMPAE_clean_linker_10, # of connection points: 2
#     Edge 26, Type (0, 0), BuildingBlock: TEMPAE_clean_linker_10, # of connection points: 2
#     Edge 27, Type (0, 0), BuildingBlock: TEMPAE_clean_linker_10, # of connection points: 2
# Relax obj value: 0.154
# Max RMSD: 0.152
# Mean RMSD: 0.152
data_MOF--net-noo--node1-BEQFEK_clean_sbu_0--edge1-TEMPAE_clean_linker_10
_symmetry_space_group_name_H-M    P1
_symmetry_Int_Tables_number       1
_symmetry_cell_setting            triclinic
loop_
_symmetry_equiv_pos_as_xyz
'x, y, z'
_cell_length_a     40.905437
_cell_length_b     40.73549
_cell_length_c     29.5614
_cell_angle_alpha  90.030935
_cell_angle_beta   89.983498
_cell_angle_gamma 89.983296
loop_
_atom_site_label
_atom_site_type_symbol
_atom_site_fract_x
_atom_site_fract_y
_atom_site_fract_z
_atom_type_partial_charge
Co0 Co 0.37319 0.27105 0.04717 0.0
Co1 Co 0.40326 0.20114 0.05867 0.0
C2 C 0.36229 0.21571 0.97894 0.0
O3 O 0.35887 0.24532 0.9925 0.0
O4 O 0.37852 0.19484 1.00193 0.0
C5 C 0.32206 0.32189 0.04795 0.0
O6 O 0.30041 0.29855 0.05434 0.0
C7 C 0.42474 0.13148 0.06288 0.0
C8 C 0.46183 0.13563 0.11703 0.0
C9 C 0.44815 0.11368 0.0867 0.0
N10 N 0.42497 0.16251 0.07845 0.0
N11 N 0.44716 0.16473 0.11075 0.0
C12 C 0.4018 0.11936 0.02721 0.0
H13 H 0.37825 0.13277 0.02937 0.0
H14 H 0.39729 0.09263 0.03091 0.0
H15 H 0.4126 0.1241 0.9934 0.0
C16 C 0.34827 0.25508 0.1411 0.0
N17 N 0.36421 0.24778 0.10224 0.0
N18 N 0.37594 0.21774 0.10541 0.0
C19 C 0.36708 0.20476 0.14548 0.0
C20 C 0.34954 0.228 0.1696 0.0
C21 C 0.33452 0.28805 0.15263 0.0
H22 H 0.34814 0.30765 0.13472 0.0
H23 H 0.30846 0.28892 0.14236 0.0
H24 H 0.33568 0.29244 0.18966 0.0
O25 O 0.42041 0.28092 0.04255 0.0
O26 O 0.44044 0.23071 0.0472 0.0
H27 H 0.39896 0.16934 0.17531 0.0
H28 H 0.3563 0.16181 0.18562 0.0
C29 C 0.37424 0.1703 0.16 0.0
H30 H 0.37351 0.15356 0.13045 0.0
H31 H 0.45267 0.18639 0.12802 0.0
O32 O 0.35219 0.3148 0.04496 0.0
C33 C 0.44459 0.26136 0.04226 0.0
Co34 Co 0.73477 0.37257 0.05101 0.0
Co35 Co 0.80288 0.40576 0.05917 0.0
C36 C 0.7887 0.36421 0.98015 0.0
O37 O 0.75943 0.36018 0.99434 0.0
O38 O 0.80953 0.38056 1.00298 0.0
C39 C 0.67484 0.34826 0.01889 0.0
O40 O 0.68455 0.3639 0.98242 0.0
C41 C 0.86902 0.43478 0.05644 0.0
C42 C 0.86491 0.46917 0.11421 0.0
C43 C 0.88535 0.45961 0.07934 0.0
N44 N 0.84016 0.42996 0.07713 0.0
N45 N 0.83795 0.45051 0.11161 0.0
C46 C 0.87847 0.41883 1.01274 0.0
H47 H 0.85855 0.42226 0.98772 0.0
H48 H 0.88142 0.39205 0.01823 0.0
H49 H 0.90142 0.42918 0.99877 0.0
C50 C 0.75428 0.34629 0.14148 0.0
N51 N 0.76 0.364 0.10372 0.0
N52 N 0.78894 0.3779 0.10691 0.0
C53 C 0.80272 0.36914 0.14652 0.0
C54 C 0.78115 0.34913 0.16999 0.0
C55 C 0.723 0.32852 0.15073 0.0
H56 H 0.7021 0.34547 0.14553 0.0
H57 H 0.72036 0.30807 0.12619 0.0
H58 H 0.72226 0.31861 0.18567 0.0
O59 O 0.72173 0.41954 0.04914 0.0
O60 O 0.77132 0.44118 0.04748 0.0
H61 H 0.83562 0.40264 0.17838 0.0
H62 H 0.84661 0.36021 0.18514 0.0
C63 C 0.83651 0.3785 0.16107 0.0
H64 H 0.8529 0.38035 0.13131 0.0
H65 H 0.81738 0.45267 0.13229 0.0
O66 O 0.69349 0.3476 0.05323 0.0
C67 C 0.74051 0.44424 0.04579 0.0
Co68 Co 0.62667 0.73456 0.05011 0.0
Co69 Co 0.59715 0.80464 0.06235 0.0
C70 C 0.63733 0.78968 0.98176 0.0
O71 O 0.64064 0.76002 0.9951 0.0
O72 O 0.6216 0.81068 1.00523 0.0
C73 C 0.6768 0.68243 0.04824 0.0
O74 O 0.69937 0.70521 0.05196 0.0
C75 C 0.57093 0.87237 0.06123 0.0
C76 C 0.53855 0.8698 0.12113 0.0
C77 C 0.54749 0.88977 0.08541 0.0
N78 N 0.57556 0.84339 0.08206 0.0
N79 N 0.55622 0.84214 0.11783 0.0
C80 C 0.58529 0.88084 0.01616 0.0
H81 H 0.61225 0.88271 0.01945 0.0
H82 H 0.57537 0.90419 1.00266 0.0
H83 H 0.58002 0.86079 0.99182 0.0
C84 C 0.65296 0.75038 0.14323 0.0
N85 N 0.63642 0.75784 0.10495 0.0
N86 N 0.62487 0.78794 0.10862 0.0
C87 C 0.63449 0.80077 0.14849 0.0
C88 C 0.65224 0.77738 0.17192 0.0
C89 C 0.6672 0.71745 0.15374 0.0
H90 H 0.65267 0.69782 0.13731 0.0
H91 H 0.69262 0.71644 0.14079 0.0
H92 H 0.66794 0.71324 0.19083 0.0
O93 O 0.57939 0.72508 0.0462 0.0
O94 O 0.55966 0.77532 0.05177 0.0
H95 H 0.6046 0.83614 0.18225 0.0
H96 H 0.64764 0.84393 0.18663 0.0
C97 C 0.62806 0.83528 0.1635 0.0
H98 H 0.62666 0.85192 0.13392 0.0
H99 H 0.55393 0.82165 0.13876 0.0
O100 O 0.64681 0.69043 0.04776 0.0
C101 C 0.55529 0.74472 0.04666 0.0
Co102 Co 0.26552 0.63146 0.05607 0.0
Co103 Co 0.19596 0.60129 0.06474 0.0
C104 C 0.21229 0.64132 0.98485 0.0
O105 O 0.24157 0.64459 0.99928 0.0
O106 O 0.19087 0.62578 1.00767 0.0
C107 C 0.32507 0.65768 0.02304 0.0
O108 O 0.31389 0.64615 0.98452 0.0
C109 C 0.12667 0.5806 0.06622 0.0
C110 C 0.12901 0.54319 0.12037 0.0
C111 C 0.10809 0.55742 0.08922 0.0
N112 N 0.15719 0.57976 0.08299 0.0
N113 N 0.15836 0.55741 0.1153 0.0
C114 C 0.11571 0.60399 0.0303 0.0
H115 H 0.12897 0.62762 0.03376 0.0
H116 H 0.089 0.60851 0.03245 0.0
H117 H 0.12156 0.59351 0.9966 0.0
C118 C 0.24702 0.65927 0.14612 0.0
N119 N 0.24059 0.64156 0.10855 0.0
N120 N 0.21106 0.62903 0.11181 0.0
C121 C 0.19761 0.63861 0.15128 0.0
C122 C 0.22 0.65781 0.17459 0.0
C123 C 0.27909 0.67557 0.15534 0.0
H124 H 0.29919 0.65765 0.15022 0.0
H125 H 0.28269 0.69582 0.13075 0.0
H126 H 0.28028 0.68552 0.19025 0.0
O127 O 0.27634 0.58388 0.05447 0.0
O128 O 0.22589 0.56425 0.05429 0.0
H129 H 0.1632 0.60565 0.18105 0.0
H130 H 0.15455 0.64832 0.19154 0.0
C131 C 0.16351 0.63055 0.1659 0.0
H132 H 0.14683 0.63084 0.13635 0.0
H133 H 0.17945 0.55151 0.13341 0.0
O134 O 0.30771 0.65486 0.05845 0.0
C135 C 0.25655 0.55989 0.05215 0.0
Co136 Co 0.87264 0.23477 0.60128 0.0
Co137 Co 0.90618 0.3033 0.59189 0.0
C138 C 0.86397 0.28901 0.67115 0.0
O139 O 0.85931 0.25974 0.65695 0.0
O140 O 0.88112 0.30947 0.64868 0.0
C141 C 0.85132 0.17293 0.63162 0.0
O142 O 0.86811 0.18206 0.66737 0.0
C143 C 0.92882 0.37261 0.58912 0.0
C144 C 0.96792 0.36789 0.53782 0.0
C145 C 0.95322 0.39012 0.56686 0.0
N146 N 0.92945 0.34148 0.57393 0.0
N147 N 0.95284 0.33892 0.54333 0.0
C148 C 0.90445 0.38514 0.62268 0.0
H149 H 0.88113 0.37144 0.61937 0.0
H150 H 0.89986 0.41174 0.61771 0.0
H151 H 0.91403 0.38116 0.65736 0.0
C152 C 0.84711 0.25374 0.51021 0.0
N153 N 0.86464 0.25976 0.548 0.0
N154 N 0.87862 0.28873 0.54435 0.0
C155 C 0.87033 0.30211 0.50428 0.0
C156 C 0.85031 0.28035 0.48112 0.0
C157 C 0.82913 0.2224 0.50152 0.0
H158 H 0.84604 0.20136 0.50612 0.0
H159 H 0.80921 0.21979 0.52674 0.0
H160 H 0.81867 0.22169 0.46691 0.0
O161 O 0.91947 0.22239 0.60561 0.0
O162 O 0.94174 0.27175 0.6028 0.0
H163 H 0.90582 0.33437 0.47556 0.0
H164 H 0.86422 0.34487 0.46175 0.0
C165 C 0.88051 0.33559 0.48891 0.0
H166 H 0.88 0.35295 0.51778 0.0
H167 H 0.95879 0.31715 0.5266 0.0
O168 O 0.84863 0.19269 0.59858 0.0
C169 C 0.94449 0.24086 0.6068 0.0
Co170 Co 0.76637 0.87082 0.60205 0.0
Co171 Co 0.69867 0.90487 0.5916 0.0
C172 C 0.71197 0.86347 0.67176 0.0
O173 O 0.74116 0.85856 0.65788 0.0
O174 O 0.6917 0.88033 0.64864 0.0
C175 C 0.82587 0.84581 0.63515 0.0
O176 O 0.81588 0.86102 0.67185 0.0
C177 C 0.63247 0.93403 0.59334 0.0
C178 C 0.63676 0.96785 0.53503 0.0
C179 C 0.61618 0.95864 0.5699 0.0
N180 N 0.66142 0.929 0.57294 0.0
N181 N 0.66372 0.94921 0.53813 0.0
C182 C 0.62288 0.91854 0.63727 0.0
H183 H 0.64269 0.92228 0.66237 0.0
H184 H 0.62003 0.89169 0.63227 0.0
H185 H 0.59986 0.92898 0.65088 0.0
C186 C 0.74759 0.84407 0.5115 0.0
N187 N 0.74165 0.86234 0.54873 0.0
N188 N 0.71284 0.8764 0.54466 0.0
C189 C 0.69943 0.86731 0.50493 0.0
C190 C 0.72106 0.8468 0.48238 0.0
C191 C 0.7787 0.82568 0.5034 0.0
H192 H 0.79977 0.84252 0.50788 0.0
H193 H 0.78102 0.8059 0.52899 0.0
H194 H 0.77945 0.81481 0.46899 0.0
O195 O 0.77961 0.91769 0.60545 0.0
O196 O 0.73054 0.94017 0.60227 0.0
H197 H 0.66731 0.90085 0.47172 0.0
H198 H 0.65598 0.85849 0.46531 0.0
C199 C 0.66594 0.87688 0.48937 0.0
H200 H 0.64918 0.87917 0.51867 0.0
H201 H 0.68437 0.95119 0.51756 0.0
O202 O 0.80756 0.84569 0.60045 0.0
C203 C 0.7613 0.9429 0.60629 0.0
Co204 Co 0.12796 0.77113 0.60702 0.0
Co205 Co 0.09877 0.70088 0.59496 0.0
C206 C 0.13961 0.71562 0.67467 0.0
O207 O 0.14247 0.74535 0.66144 0.0
O208 O 0.12382 0.69455 0.65142 0.0
C209 C 0.17896 0.82182 0.60703 0.0
O210 O 0.20052 0.79831 0.60113 0.0
C211 C 0.07225 0.63318 0.5956 0.0
C212 C 0.04061 0.63583 0.53499 0.0
C213 C 0.04917 0.61575 0.57078 0.0
N214 N 0.07708 0.66223 0.57501 0.0
N215 N 0.05813 0.66355 0.53886 0.0
C216 C 0.08614 0.62458 0.64089 0.0
H217 H 0.08244 0.6454 0.66456 0.0
H218 H 0.11287 0.62063 0.63748 0.0
H219 H 0.07463 0.60227 0.65528 0.0
C220 C 0.15344 0.75576 0.51337 0.0
N221 N 0.13725 0.74812 0.55188 0.0
N222 N 0.12613 0.71784 0.54843 0.0
C223 C 0.13587 0.70504 0.50859 0.0
C224 C 0.15318 0.72863 0.485 0.0
C225 C 0.16684 0.78891 0.50218 0.0
H226 H 0.15278 0.80832 0.51987 0.0
H227 H 0.19279 0.79012 0.5129 0.0
H228 H 0.166 0.79328 0.46513 0.0
O229 O 0.08071 0.78063 0.61168 0.0
O230 O 0.06138 0.73018 0.60676 0.0
H231 H 0.10657 0.66942 0.47442 0.0
H232 H 0.14968 0.66198 0.47073 0.0
C233 C 0.12985 0.67047 0.49357 0.0
H234 H 0.12834 0.65383 0.52316 0.0
H235 H 0.05606 0.68407 0.51795 0.0
O236 O 0.14876 0.81495 0.60953 0.0
C237 C 0.05681 0.76076 0.6119 0.0
Co238 Co 0.23566 0.13114 0.59806 0.0
Co239 Co 0.30541 0.10129 0.5883 0.0
C240 C 0.28909 0.14095 0.6689 0.0
O241 O 0.2597 0.14413 0.65482 0.0
O242 O 0.31049 0.12563 0.64567 0.0
C243 C 0.17366 0.15071 0.62963 0.0
O244 O 0.18335 0.13405 0.66523 0.0
C245 C 0.37493 0.08076 0.58576 0.0
C246 C 0.37221 0.04356 0.53134 0.0
C247 C 0.39337 0.05765 0.56229 0.0
N248 N 0.34427 0.07999 0.56942 0.0
N249 N 0.34289 0.05775 0.53694 0.0
C250 C 0.3861 0.10395 0.62182 0.0
H251 H 0.37253 0.12746 0.61917 0.0
H252 H 0.41273 0.10876 0.61905 0.0
H253 H 0.38084 0.09309 0.65547 0.0
C254 C 0.25376 0.16005 0.5086 0.0
N255 N 0.26036 0.14182 0.5456 0.0
N256 N 0.28982 0.12918 0.54163 0.0
C257 C 0.30297 0.13911 0.50214 0.0
C258 C 0.28055 0.15878 0.47976 0.0
C259 C 0.2219 0.17702 0.50038 0.0
H260 H 0.20174 0.15885 0.50238 0.0
H261 H 0.21777 0.19549 0.52739 0.0
H262 H 0.22143 0.18929 0.46687 0.0
O263 O 0.22533 0.08347 0.59916 0.0
O264 O 0.27584 0.06399 0.59875 0.0
H265 H 0.33644 0.1056 0.47148 0.0
H266 H 0.34526 0.14807 0.46003 0.0
C267 C 0.33668 0.13061 0.4863 0.0
H268 H 0.35395 0.13094 0.51519 0.0
H269 H 0.32166 0.05189 0.5191 0.0
O270 O 0.193 0.15381 0.59627 0.0
C271 C 0.24521 0.05953 0.60111 0.0
C272 C 0.55091 0.94929 0.06593 0.0
C273 C 0.53195 0.92146 0.07483 0.0
C274 C 0.53627 0.98035 0.06225 0.0
C275 C 0.50194 0.98336 0.06743 0.0
C276 C 0.48261 0.95497 0.07392 0.0
C277 C 0.49792 0.92437 0.078 0.0
C278 C 0.55772 0.01012 0.05571 0.0
C279 C 0.44593 0.95711 0.07905 0.0
C280 C 0.47044 0.06222 0.11916 0.0
C281 C 0.45917 0.07935 0.08115 0.0
C282 C 0.48422 0.03093 0.11502 0.0
C283 C 0.48676 0.01631 0.07174 0.0
C284 C 0.47495 0.03318 0.03321 0.0
C285 C 0.4615 0.06471 0.03832 0.0
C286 C 0.49657 0.01376 0.15699 0.0
C287 C 0.47717 0.01822 0.98658 0.0
H288 H 0.57729 0.94701 0.06418 0.0
H289 H 0.48329 0.90272 0.08473 0.0
H290 H 0.5479 0.02597 0.02841 0.0
H291 H 0.55792 0.0249 0.08726 0.0
H292 H 0.5833 0.00333 0.04723 0.0
H293 H 0.43417 0.93254 0.07832 0.0
H294 H 0.43988 0.96909 0.11172 0.0
H295 H 0.43527 0.9724 0.05173 0.0
H296 H 0.46881 0.07353 0.1523 0.0
H297 H 0.45396 0.07824 1.0086 0.0
H298 H 0.52307 0.00848 0.15351 0.0
H299 H 0.48388 0.9899 0.16123 0.0
H300 H 0.49279 0.02859 0.1881 0.0
H301 H 0.50321 0.01493 0.97708 0.0
H302 H 0.46511 0.03367 0.9605 0.0
H303 H 0.46568 0.99355 0.98638 0.0
C304 C 0.94485 0.45591 0.06211 0.0
C305 C 0.91694 0.47509 0.06904 0.0
C306 C 0.9758 0.47057 0.05929 0.0
C307 C 0.97859 0.50512 0.06343 0.0
C308 C 0.95018 0.52465 0.06769 0.0
C309 C 0.91965 0.50933 0.0709 0.0
C310 C 0.00562 0.44894 0.05506 0.0
C311 C 0.95215 0.56156 0.07164 0.0
C312 C 0.05552 0.53662 0.11922 0.0
C313 C 0.07395 0.54704 0.082 0.0
C314 C 0.0243 0.52329 0.11352 0.0
C315 C 0.01119 0.52034 0.06941 0.0
C316 C 0.02937 0.5314 0.03166 0.0
C317 C 0.06076 0.54442 0.03838 0.0
C318 C 0.00564 0.51176 0.15468 0.0
C319 C 0.01602 0.52867 0.9842 0.0
H320 H 0.9427 0.42939 0.06144 0.0
H321 H 0.89791 0.52409 0.07613 0.0
H322 H 0.02228 0.45842 0.0285 0.0
H323 H 0.01931 0.44914 0.08747 0.0
H324 H 0.99911 0.42314 0.04682 0.0
H325 H 0.92775 0.57335 0.06873 0.0
H326 H 0.9628 0.56824 0.10492 0.0
H327 H 0.96842 0.57176 0.04511 0.0
H328 H 0.06577 0.53849 0.15295 0.0
H329 H 0.07535 0.55136 1.00935 0.0
H330 H 1.00042 0.48511 0.15178 0.0
H331 H 0.98181 0.52466 0.15685 0.0
H332 H 0.01929 0.51609 0.18662 0.0
H333 H 0.01315 0.50242 0.97501 0.0
H334 H 0.03222 0.54056 0.95889 0.0
H335 H 0.99145 0.54013 0.98224 0.0
C336 C 0.9766 0.44128 0.5349 0.0
C337 C 0.96392 0.42456 0.57241 0.0
C338 C 0.98983 0.47279 0.53924 0.0
C339 C 0.99038 0.48806 0.58224 0.0
C340 C 0.97724 0.47156 0.62025 0.0
C341 C 0.96435 0.43981 0.61495 0.0
C342 C 0.00362 0.48956 0.49783 0.0
C343 C 0.97738 0.48718 0.66656 0.0
C344 C 0.05297 0.55637 0.59127 0.0
C345 C 0.03388 0.58377 0.5805 0.0
C346 C 0.03879 0.52507 0.59448 0.0
C347 C 0.00479 0.52134 0.58678 0.0
C348 C 0.98522 0.54928 0.57821 0.0
C349 C 1.00008 0.58014 0.57478 0.0
C350 C 0.06049 0.49579 0.60333 0.0
C351 C 0.94887 0.54637 0.57027 0.0
H352 H 0.97644 0.42951 0.50198 0.0
H353 H 0.95569 0.42662 0.64438 0.0
H354 H 0.99074 0.51314 0.49193 0.0
H355 H 0.02984 0.49533 0.50321 0.0
H356 H 0.00136 0.47422 0.4669 0.0
H357 H 0.96473 0.4718 0.69218 0.0
H358 H 0.00294 0.49124 0.67778 0.0
H359 H 0.96531 0.51155 0.66528 0.0
H360 H 0.0792 0.55914 0.59493 0.0
H361 H 0.98531 0.60144 0.56659 0.0
H362 H 0.06223 0.48064 0.57221 0.0
H363 H 0.04989 0.48009 0.63023 0.0
H364 H 0.08557 0.50316 0.61356 0.0
H365 H 0.9444 0.53376 0.53757 0.0
H366 H 0.93664 0.57072 0.5693 0.0
H367 H 0.93736 0.53132 0.59718 0.0
C368 C 0.58194 0.00855 0.57739 0.0
C369 C 0.58458 0.97432 0.57983 0.0
C370 C 0.55147 0.02403 0.58067 0.0
C371 C 0.523 0.00467 0.58558 0.0
C372 C 0.52571 0.97014 0.59009 0.0
C373 C 0.5566 0.95533 0.5872 0.0
C374 C 0.54961 0.06092 0.57627 0.0
C375 C 0.49583 0.94868 0.59498 0.0
C376 C 0.44129 0.04462 0.61219 0.0
C377 C 0.42759 0.04714 0.56886 0.0
C378 C 0.4727 0.03141 0.61829 0.0
C379 C 0.49038 0.02006 0.58021 0.0
C380 C 0.47676 0.02292 0.5364 0.0
C381 C 0.44555 0.03645 0.53131 0.0
C382 C 0.48659 0.02881 0.66545 0.0
C383 C 0.49485 0.01106 0.49491 0.0
H384 H 0.60371 0.02319 0.57181 0.0
H385 H 0.55868 0.9288 0.58829 0.0
H386 H 0.53852 0.06741 0.54321 0.0
H387 H 0.53376 0.07139 0.6031 0.0
H388 H 0.5741 0.07261 0.57839 0.0
H389 H 0.5023 0.92287 0.60317 0.0
H390 H 0.47952 0.95832 0.62185 0.0
H391 H 0.4818 0.94888 0.56286 0.0
H392 H 0.4271 0.05174 0.64151 0.0
H393 H 0.43494 0.03825 0.49779 0.0
H394 H 0.51122 0.04017 0.66679 0.0
H395 H 0.48948 1.00259 0.67474 0.0
H396 H 0.47073 0.04087 0.69105 0.0
H397 H 0.51873 0.02379 0.49208 0.0
H398 H 0.48085 0.01533 0.46325 0.0
H399 H 0.49995 0.9844 0.4979 0.0
C400 C 0.25181 0.50362 0.02051 0.0
C401 C 0.26873 0.52599 0.04786 0.0
C402 C 0.26111 0.47053 0.01856 0.0
C403 C 0.28723 0.45935 0.0459 0.0
C404 C 0.30458 0.48194 0.07338 0.0
C405 C 0.29544 0.51521 0.07344 0.0
C406 C 0.24273 0.44749 0.98763 0.0
C407 C 0.33201 0.47077 0.10387 0.0
C408 C 0.28716 0.36834 0.07444 0.0
C409 C 0.31211 0.35664 0.04635 0.0
C410 C 0.27922 0.4019 0.0753 0.0
C411 C 0.29594 0.4239 0.04622 0.0
C412 C 0.32061 0.41194 0.01697 0.0
C413 C 0.32879 0.37851 0.01798 0.0
C414 C 0.25337 0.41389 0.10782 0.0
C415 C 0.33817 0.43437 0.98437 0.0
H416 H 0.23121 0.51207 1.00058 0.0
H417 H 0.30823 0.53251 0.09499 0.0
H418 H 0.2601 0.43424 0.96528 0.0
H419 H 0.22964 0.42878 1.00796 0.0
H420 H 0.22463 0.46058 0.9662 0.0
H421 H 0.34306 0.49142 0.12309 0.0
H422 H 0.32266 0.45234 0.12829 0.0
H423 H 0.35143 0.45867 0.08369 0.0
H424 H 0.27458 0.35143 0.09677 0.0
H425 H 0.34802 0.36935 0.9961 0.0
H426 H 0.23275 0.42496 0.08884 0.0
H427 H 0.26366 0.43332 0.12995 0.0
H428 H 0.24365 0.39384 0.12945 0.0
H429 H 0.3202 0.44685 0.96213 0.0
H430 H 0.35598 0.42095 0.96282 0.0
H431 H 0.35143 0.45376 1.00326 0.0
C432 C 0.50425 0.25239 0.02877 0.0
C433 C 0.47826 0.27415 0.03683 0.0
C434 C 0.53644 0.26378 0.02467 0.0
C435 C 0.54289 0.29773 0.02919 0.0
C436 C 0.51681 0.31989 0.03706 0.0
C437 C 0.48475 0.30785 0.04054 0.0
C438 C 0.56357 0.23945 0.01578 0.0
C439 C 0.52285 0.35625 0.04243 0.0
C440 C 0.62876 0.32336 0.06263 0.0
C441 C 0.64165 0.33394 0.02114 0.0
C442 C 0.59662 0.31157 0.06573 0.0
C443 C 0.57704 0.30998 0.02631 0.0
C444 C 0.5901 0.32004 0.98419 0.0
C445 C 0.62221 0.33204 0.98215 0.0
C446 C 0.58347 0.30122 0.11129 0.0
C447 C 0.57007 0.31829 0.94135 0.0
H448 H 0.49946 0.22632 0.02561 0.0
H449 H 0.46484 0.3248 0.04692 0.0
H450 H 0.577 0.24634 0.98458 0.0
H451 H 0.58139 0.23994 0.04405 0.0
H452 H 0.55432 0.21397 1.01189 0.0
H453 H 0.49989 0.37023 0.04809 0.0
H454 H 0.53947 0.36063 0.07147 0.0
H455 H 0.5351 0.36607 1.01182 0.0
H456 H 0.64359 0.32486 0.09295 0.0
H457 H 0.63204 0.34007 0.94995 0.0
H458 H 0.57553 0.2752 0.11006 0.0
H459 H 0.56168 0.31617 0.12 0.0
H460 H 0.60186 0.30398 0.13867 0.0
H461 H 0.56154 0.29276 0.93567 0.0
H462 H 0.58407 0.3264 0.91115 0.0
H463 H 0.54801 0.33395 0.94467 0.0
C464 C 0.71371 0.63552 0.06736 0.0
C465 C 0.68565 0.64736 0.04571 0.0
C466 C 0.72117 0.60185 0.06699 0.0
C467 C 0.70058 0.57978 0.04325 0.0
C468 C 0.6726 0.59179 0.02052 0.0
C469 C 0.66522 0.62538 0.0226 0.0
C470 C 0.75082 0.58983 0.0925 0.0
C471 C 0.65063 0.56924 0.99368 0.0
C472 C 0.74003 0.49911 1.00961 0.0
C473 C 0.72704 0.47756 0.0418 0.0
C474 C 0.73056 0.53218 1.00854 0.0
C475 C 0.7086 0.54418 0.04167 0.0
C476 C 0.69507 0.52232 0.07395 0.0
C477 C 0.70407 0.48903 0.07313 0.0
C478 C 0.74461 0.55439 0.97257 0.0
C479 C 0.67228 0.53438 0.11054 0.0
H480 H 0.72933 0.65246 0.08561 0.0
H481 H 0.6436 0.63456 1.00556 0.0
H482 H 0.74348 0.5708 0.11737 0.0
H483 H 0.76836 0.57823 0.06876 0.0
H484 H 0.76354 0.60996 0.11075 0.0
H485 H 0.63032 0.58265 0.97694 0.0
H486 H 0.66509 0.55629 0.96738 0.0
H487 H 0.64004 0.55023 0.01615 0.0
H488 H 0.75786 0.49008 0.98546 0.0
H489 H 0.69451 0.47234 0.09845 0.0
H490 H 0.76073 0.57301 0.98842 0.0
H491 H 0.72469 0.56779 0.95501 0.0
H492 H 0.75905 0.5406 0.947 0.0
H493 H 0.68507 0.55274 0.1319 0.0
H494 H 0.66347 0.51414 0.13258 0.0
H495 H 0.65082 0.54682 0.09534 0.0
C496 C 0.3727 0.67797 0.06804 0.0
C497 C 0.35832 0.67181 0.02579 0.0
C498 C 0.4048 0.68982 0.07126 0.0
C499 C 0.42281 0.69601 0.03128 0.0
C500 C 0.40826 0.69038 0.98853 0.0
C501 C 0.37622 0.67819 0.9863 0.0
C502 C 0.41956 0.69538 0.11746 0.0
C503 C 0.42661 0.6971 0.94518 0.0
C504 C 0.49505 0.75399 0.03998 0.0
C505 C 0.52151 0.73207 0.04178 0.0
C506 C 0.46284 0.74259 0.03615 0.0
C507 C 0.45689 0.70842 0.03426 0.0
C508 C 0.48342 0.68612 0.03581 0.0
C509 C 0.51545 0.69821 0.03946 0.0
C510 C 0.43516 0.76712 0.03438 0.0
C511 C 0.47795 0.64948 0.03407 0.0
H512 H 0.35906 0.673 0.09873 0.0
H513 H 0.36522 0.67361 0.95355 0.0
H514 H 0.44179 0.68003 0.12144 0.0
H515 H 0.42721 0.72137 0.12107 0.0
H516 H 0.40227 0.68938 0.14523 0.0
H517 H 0.41159 0.69199 0.91467 0.0
H518 H 0.43455 0.72314 0.94419 0.0
H519 H 0.44899 0.68175 0.94372 0.0
H520 H 0.49943 0.78021 0.04165 0.0
H521 H 0.53571 0.68109 0.04087 0.0
H522 H 0.41841 0.76319 0.06339 0.0
H523 H 0.42068 0.76352 1.00304 0.0
H524 H 0.44399 0.7929 0.03533 0.0
H525 H 0.46242 0.64176 0.06294 0.0
H526 H 0.50122 0.63544 0.03527 0.0
H527 H 0.46472 0.64284 1.00261 0.0
C528 C 0.80912 0.98162 0.60655 0.0
C529 C 0.77547 0.97617 0.61161 0.0
C530 C 0.82223 0.01343 0.61 0.0
C531 C 0.80122 0.04027 0.61925 0.0
C532 C 0.76734 0.03482 0.62512 0.0
C533 C 0.75488 0.00292 0.621 0.0
C534 C 0.85847 0.0184 0.60316 0.0
C535 C 0.74418 0.06272 0.63554 0.0
C536 C 0.83708 0.11903 0.667 0.0
C537 C 0.83782 0.13928 0.62865 0.0
C538 C 0.82535 0.0867 0.6644 0.0
C539 C 0.81446 0.07421 0.62234 0.0
C540 C 0.81524 0.09449 0.58346 0.0
C541 C 0.82671 0.12685 0.58714 0.0
C542 C 0.82442 0.06598 0.70673 0.0
C543 C 0.80402 0.08197 0.53795 0.0
H544 H 0.82516 0.96113 0.59916 0.0
H545 H 0.72885 0.99898 0.62527 0.0
H546 H 0.86268 0.03523 0.57424 0.0
H547 H 0.86932 0.0301 0.63354 0.0
H548 H 0.87151 0.99496 0.5965 0.0
H549 H 0.71861 0.0542 0.64029 0.0
H550 H 0.75212 0.07564 0.6667 0.0
H551 H 0.74462 0.08089 0.60761 0.0
H552 H 0.84557 0.12848 0.6992 0.0
H553 H 0.82741 0.14227 0.55728 0.0
H554 H 0.83912 0.04337 0.70182 0.0
H555 H 0.79893 0.05819 0.71379 0.0
H556 H 0.83395 0.0793 0.73676 0.0
H557 H 0.81804 0.05965 0.52859 0.0
H558 H 0.80707 0.10054 0.51077 0.0
H559 H 0.77786 0.07489 0.53966 0.0
C560 C 0.01613 0.80677 0.61475 0.0
C561 C 0.02297 0.77309 0.61744 0.0
C562 C 0.98393 0.81843 0.61836 0.0
C563 C 0.95806 0.79589 0.62527 0.0
C564 C 0.96485 0.76194 0.62875 0.0
C565 C 0.99719 0.75094 0.62459 0.0
C566 C 0.97753 0.85481 0.61413 0.0
C567 C 0.93794 0.7372 0.63654 0.0
C568 C 0.87818 0.82898 0.67226 0.0
C569 C 0.85906 0.83146 0.63303 0.0
C570 C 0.91035 0.81708 0.67032 0.0
C571 C 0.92377 0.80775 0.62809 0.0
C572 C 0.90448 0.80986 0.58845 0.0
C573 C 0.87228 0.82151 0.59143 0.0
C574 C 0.93006 0.81475 0.71338 0.0
C575 C 0.91803 0.80029 0.54277 0.0
H576 H 0.03588 0.82403 0.6091 0.0
H577 H 0.00223 0.72487 0.62695 0.0
H578 H 0.96105 0.8595 0.58504 0.0
H579 H 0.96498 0.86399 0.64491 0.0
H580 H 1.00038 0.86912 0.60922 0.0
H581 H 0.94745 0.71175 0.63973 0.0
H582 H 0.92424 0.74344 0.66778 0.0
H583 H 0.92029 0.73795 0.60808 0.0
H584 H 0.86808 0.83651 0.70454 0.0
H585 H 0.8577 0.82346 0.56094 0.0
H586 H 0.95196 0.83071 0.71096 0.0
H587 H 0.93885 0.78922 0.71827 0.0
H588 H 0.91574 0.82215 0.74365 0.0
H589 H 0.93969 0.81561 0.53474 0.0
H590 H 0.89977 0.80323 0.51524 0.0
H591 H 0.92627 0.77435 0.54336 0.0
C592 C 0.25006 0.00333 0.63284 0.0
C593 C 0.23312 0.02562 0.60542 0.0
C594 C 0.24067 0.97028 0.63508 0.0
C595 C 0.21447 0.95907 0.60793 0.0
C596 C 0.19714 0.98157 0.58031 0.0
C597 C 0.20635 0.01481 0.57999 0.0
C598 C 0.25902 0.94734 0.66616 0.0
C599 C 0.16963 0.97034 0.54999 0.0
C600 C 0.2141 0.86792 0.58021 0.0
C601 C 0.1891 0.8565 0.60842 0.0
C602 C 0.2222 0.90142 0.57905 0.0
C603 C 0.20562 0.92366 0.60796 0.0
C604 C 0.18091 0.91199 0.63736 0.0
C605 C 0.17255 0.87861 0.63662 0.0
C606 C 0.24807 0.91309 0.54637 0.0
C607 C 0.16348 0.93469 0.6698 0.0
H608 H 0.2707 0.01182 0.65266 0.0
H609 H 0.19354 0.03205 0.55841 0.0
H610 H 0.24164 0.93433 0.68873 0.0
H611 H 0.27198 0.92843 0.64598 0.0
H612 H 0.27723 0.96046 0.68738 0.0
H613 H 0.15868 0.99091 0.53052 0.0
H614 H 0.17886 0.95167 0.5258 0.0
H615 H 0.15015 0.95852 0.57034 0.0
H616 H 0.22657 0.85082 0.55799 0.0
H617 H 0.15327 0.86966 0.65858 0.0
H618 H 0.26875 0.92419 0.56519 0.0
H619 H 0.23783 0.93244 0.52407 0.0
H620 H 0.25768 0.89288 0.52491 0.0
H621 H 0.18155 0.94723 0.69184 0.0
H622 H 0.14568 0.92146 0.69156 0.0
H623 H 0.15025 0.95401 0.65077 0.0
C624 C 0.98303 0.19287 0.60669 0.0
C625 C 0.97759 0.22662 0.61232 0.0
C626 C 0.01468 0.17966 0.61004 0.0
C627 C 0.04136 0.20067 0.6198 0.0
C628 C 0.0359 0.23462 0.62642 0.0
C629 C 0.00415 0.24719 0.62236 0.0
C630 C 0.01966 0.14336 0.60239 0.0
C631 C 0.06365 0.25775 0.63741 0.0
C632 C 0.12003 0.16414 0.66589 0.0
C633 C 0.14001 0.16396 0.62732 0.0
C634 C 0.0878 0.17588 0.66391 0.0
C635 C 0.07517 0.18739 0.62226 0.0
C636 C 0.09516 0.18713 0.58316 0.0
C637 C 0.12741 0.1756 0.58622 0.0
C638 C 0.06734 0.17621 0.70645 0.0
C639 C 0.08247 0.19901 0.53807 0.0
H640 H 0.96266 0.17684 0.5988 0.0
H641 H 1.00018 0.27328 0.62709 0.0
H642 H 0.03623 0.13948 0.57315 0.0
H643 H 0.03155 0.13215 0.63236 0.0
H644 H 0.99631 0.13029 0.59578 0.0
H645 H 0.05511 0.28332 0.64306 0.0
H646 H 0.07666 0.24928 0.6682 0.0
H647 H 0.08165 0.25783 0.60932 0.0
H648 H 0.12962 0.15523 0.69778 0.0
H649 H 0.14263 0.17537 0.55619 0.0
H650 H 0.0448 0.16154 0.70133 0.0
H651 H 0.05962 0.2017 0.7143 0.0
H652 H 0.08073 0.1662 0.73608 0.0
H653 H 0.06019 0.18508 0.52858 0.0
H654 H 0.10083 0.1963 0.51063 0.0
H655 H 0.07544 0.22525 0.54053 0.0
C656 C 0.30357 0.22744 0.22548 0.0
C657 C 0.33703 0.22462 0.21633 0.0
C658 C 0.29111 0.2198 0.26862 0.0
C659 C 0.3128 0.2097 0.30334 0.0
C660 C 0.34685 0.20862 0.29464 0.0
C661 C 0.35849 0.2158 0.25112 0.0
C662 C 0.25466 0.22083 0.2763 0.0
C663 C 0.37092 0.19857 0.33081 0.0
C664 C 0.28781 0.20643 0.42747 0.0
C665 C 0.28416 0.1726 0.43383 0.0
C666 C 0.29598 0.21918 0.38469 0.0
C667 C 0.30005 0.19751 0.34755 0.0
C668 C 0.29469 0.16342 0.35366 0.0
C669 C 0.28718 0.15136 0.39688 0.0
C670 C 0.30197 0.25555 0.37979 0.0
C671 C 0.29825 0.13948 0.31495 0.0
H672 H 0.28702 0.23411 0.19835 0.0
H673 H 0.38442 0.21386 0.24393 0.0
H674 H 0.24536 0.19548 0.28111 0.0
H675 H 0.24886 0.23479 0.30751 0.0
H676 H 0.24144 0.23215 0.24742 0.0
H677 H 0.39668 0.202 0.31986 0.0
H678 H 0.36678 0.21304 0.3621 0.0
H679 H 0.36727 0.17233 0.33945 0.0
H680 H 0.28574 0.22271 0.45637 0.0
H681 H 0.28439 0.12516 0.4021 0.0
H682 H 0.28832 0.26545 0.35039 0.0
H683 H 0.32834 0.25993 0.37338 0.0
H684 H 0.2947 0.26942 0.41057 0.0
H685 H 0.28383 0.14789 0.28536 0.0
H686 H 0.29011 0.11436 0.32427 0.0
H687 H 0.32423 0.13826 0.30429 0.0
C688 C 0.79197 0.35799 0.25187 0.0
C689 C 0.78559 0.33619 0.21635 0.0
C690 C 0.79954 0.34643 0.29531 0.0
C691 C 0.80137 0.31217 0.30322 0.0
C692 C 0.794 0.29003 0.26762 0.0
C693 C 0.78595 0.30235 0.22455 0.0
C694 C 0.80671 0.37093 0.33236 0.0
C695 C 0.79611 0.25339 0.27447 0.0
C696 C 0.85909 0.28979 0.39888 0.0
C697 C 0.83739 0.28444 0.43472 0.0
C698 C 0.84757 0.29721 0.35537 0.0
C699 C 0.81348 0.29992 0.34774 0.0
C700 C 0.79141 0.29351 0.38366 0.0
C701 C 0.80367 0.2856 0.42679 0.0
C702 C 0.87196 0.30336 0.31797 0.0
C703 C 0.75495 0.29658 0.37712 0.0
H704 H 0.79153 0.38418 0.24538 0.0
H705 H 0.78124 0.28557 0.19684 0.0
H706 H 0.79192 0.3653 0.36285 0.0
H707 H 0.83282 0.36925 0.34222 0.0
H708 H 0.80152 0.39657 0.32173 0.0
H709 H 0.78704 0.23951 0.24465 0.0
H710 H 0.82192 0.24632 0.28072 0.0
H711 H 0.78181 0.24594 0.30464 0.0
H712 H 0.88518 0.28877 0.40519 0.0
H713 H 0.78697 0.28167 0.45476 0.0
H714 H 0.87109 0.32956 0.30785 0.0
H715 H 0.86568 0.28853 0.28771 0.0
H716 H 0.89736 0.29735 0.32839 0.0
H717 H 0.74859 0.32265 0.37067 0.0
H718 H 0.74104 0.28802 0.40716 0.0
H719 H 0.74699 0.28227 0.34716 0.0
C720 C 0.71526 0.79924 0.42928 0.0
C721 C 0.71694 0.83318 0.43633 0.0
C722 C 0.70727 0.78643 0.38643 0.0
C723 C 0.70136 0.80818 0.34988 0.0
C724 C 0.70464 0.84246 0.35664 0.0
C725 C 0.71205 0.85453 0.3999 0.0
C726 C 0.70353 0.74981 0.38085 0.0
C727 C 0.6991 0.86653 0.31855 0.0
C728 C 0.6986 0.77961 0.22708 0.0
C729 C 0.66496 0.78052 0.21856 0.0
C730 C 0.71095 0.78741 0.27023 0.0
C731 C 0.68899 0.79566 0.30561 0.0
C732 C 0.65487 0.79474 0.29747 0.0
C733 C 0.64331 0.78755 0.25391 0.0
C734 C 0.74746 0.7886 0.27726 0.0
C735 C 0.63054 0.80274 0.33431 0.0
H736 H 0.71883 0.78281 0.4577 0.0
H737 H 0.71346 0.8808 0.40553 0.0
H738 H 0.67744 0.74383 0.37468 0.0
H739 H 0.71756 0.7411 0.35106 0.0
H740 H 0.71188 0.73612 0.41123 0.0
H741 H 0.7056 0.89205 0.32831 0.0
H742 H 0.7138 0.85945 0.28854 0.0
H743 H 0.67301 0.86608 0.30834 0.0
H744 H 0.71527 0.77439 0.19947 0.0
H745 H 0.61726 0.78811 0.24713 0.0
H746 H 0.75441 0.77473 0.30808 0.0
H747 H 0.7552 0.81444 0.28243 0.0
H748 H 0.76109 0.77842 0.24792 0.0
H749 H 0.63597 0.78828 0.3652 0.0
H750 H 0.60497 0.79767 0.32376 0.0
H751 H 0.6325 0.82909 0.34344 0.0
C752 C 0.1443 0.72164 0.40249 0.0
C753 C 0.16607 0.72549 0.43856 0.0
C754 C 0.15568 0.71418 0.35891 0.0
C755 C 0.18963 0.70963 0.3516 0.0
C756 C 0.21181 0.71463 0.38781 0.0
C757 C 0.19971 0.7228 0.43095 0.0
C758 C 0.13122 0.70966 0.32117 0.0
C759 C 0.24807 0.70949 0.38165 0.0
C760 C 0.20826 0.65 0.2564 0.0
C761 C 0.2161 0.67121 0.2208 0.0
C762 C 0.20107 0.66218 0.29965 0.0
C763 C 0.20126 0.69652 0.3073 0.0
C764 C 0.2102 0.71803 0.27169 0.0
C765 C 0.21774 0.70505 0.22879 0.0
C766 C 0.19214 0.63832 0.33674 0.0
C767 C 0.21033 0.75475 0.27832 0.0
H768 H 0.11825 0.72367 0.40872 0.0
H769 H 0.2164 0.7255 0.4592 0.0
H770 H 0.13876 0.72391 0.29094 0.0
H771 H 0.13032 0.68342 0.31119 0.0
H772 H 0.10623 0.71749 0.33123 0.0
H773 H 0.26226 0.71754 0.4117 0.0
H774 H 0.25299 0.68304 0.37572 0.0
H775 H 0.25698 0.72304 0.35155 0.0
H776 H 0.20719 0.62379 0.2501 0.0
H777 H 0.22362 0.7214 0.20102 0.0
H778 H 0.16611 0.64168 0.34625 0.0
H779 H 0.20704 0.64314 0.36738 0.0
H780 H 0.19579 0.61237 0.32631 0.0
H781 H 0.18495 0.76346 0.28406 0.0
H782 H 0.22056 0.76791 0.24861 0.0
H783 H 0.22477 0.76141 0.30872 0.0
C784 C 0.65503 0.83291 0.92657 0.0
C785 C 0.65065 0.7996 0.93706 0.0
C786 C 0.66612 0.84274 0.88366 0.0
C787 C 0.67235 0.81875 0.85002 0.0
C788 C 0.66816 0.78508 0.86047 0.0
C789 C 0.65769 0.7759 0.90396 0.0
C790 C 0.67089 0.87885 0.87422 0.0
C791 C 0.67399 0.75879 0.82536 0.0
C792 C 0.6686 0.84778 0.72772 0.0
C793 C 0.70184 0.85052 0.71658 0.0
C794 C 0.6587 0.8368 0.77066 0.0
C795 C 0.68258 0.82899 0.80366 0.0
C796 C 0.71616 0.83158 0.79257 0.0
C797 C 0.72538 0.84199 0.74906 0.0
C798 C 0.62264 0.83378 0.7808 0.0
C799 C 0.74238 0.82406 0.827 0.0
H800 H 0.64981 0.85138 0.95198 0.0
H801 H 0.65413 0.75013 0.91162 0.0
H802 H 0.69616 0.88336 0.86204 0.0
H803 H 0.65399 0.88684 0.84704 0.0
H804 H 0.66645 0.89427 0.90461 0.0
H805 H 0.66998 0.7337 0.83897 0.0
H806 H 0.65731 0.7626 0.79622 0.0
H807 H 0.69935 0.76041 0.81228 0.0
H808 H 0.65025 0.85417 0.70279 0.0
H809 H 0.75112 0.84427 0.7409 0.0
H810 H 0.61585 0.85081 0.80855 0.0
H811 H 0.61697 0.80853 0.79249 0.0
H812 H 0.60722 0.83939 0.75086 0.0
H813 H 0.73969 0.84063 0.85658 0.0
H814 H 0.7674 0.82702 0.81294 0.0
H815 H 0.73965 0.79856 0.83955 0.0
C816 C 0.16168 0.7295 0.75151 0.0
C817 C 0.1535 0.70572 0.71903 0.0
C818 C 0.17249 0.7204 0.79486 0.0
C819 C 0.17575 0.68671 0.80581 0.0
C820 C 0.16854 0.66263 0.7727 0.0
C821 C 0.15723 0.6724 0.7299 0.0
C822 C 0.17944 0.74681 0.82939 0.0
C823 C 0.17224 0.62647 0.78273 0.0
C824 C 0.22728 0.66203 0.90762 0.0
C825 C 0.20318 0.6547 0.93987 0.0
C826 C 0.21877 0.67263 0.86391 0.0
C827 C 0.18538 0.67656 0.85242 0.0
C828 C 0.161 0.67004 0.88523 0.0
C829 C 0.17017 0.65892 0.92836 0.0
C830 C 0.24546 0.67884 0.82969 0.0
C831 C 0.12515 0.67447 0.87465 0.0
H832 H 0.1587 0.7553 0.74354 0.0
H833 H 0.15116 0.65386 0.70496 0.0
H834 H 0.1624 0.74424 0.85839 0.0
H835 H 0.2046 0.74407 0.84284 0.0
H836 H 0.17677 0.77189 0.81512 0.0
H837 H 0.16755 0.61095 0.75252 0.0
H838 H 0.19727 0.62129 0.7953 0.0
H839 H 0.15491 0.61921 0.80981 0.0
H840 H 0.25284 0.65864 0.91611 0.0
H841 H 0.15138 0.65351 0.95313 0.0
H842 H 0.24361 0.70423 0.8164 0.0
H843 H 0.2425 0.66193 0.80053 0.0
H844 H 0.27026 0.67531 0.8442 0.0
H845 H 0.12057 0.6998 0.86242 0.0
H846 H 0.10933 0.66981 0.90452 0.0
H847 H 0.11783 0.65744 0.84717 0.0
C848 C 0.2744 0.16146 0.7464 0.0
C849 C 0.29838 0.15423 0.7139 0.0
C850 C 0.28307 0.1721 0.79005 0.0
C851 C 0.31649 0.1762 0.80125 0.0
C852 C 0.34074 0.16974 0.76821 0.0
C853 C 0.33142 0.15857 0.72514 0.0
C854 C 0.2565 0.17822 0.8245 0.0
C855 C 0.37662 0.17433 0.77849 0.0
C856 C 0.34012 0.22939 0.90207 0.0
C857 C 0.34849 0.2057 0.93454 0.0
C858 C 0.32934 0.22018 0.85873 0.0
C859 C 0.32626 0.18646 0.84779 0.0
C860 C 0.33369 0.16246 0.88089 0.0
C861 C 0.34498 0.17235 0.92367 0.0
C862 C 0.32216 0.24652 0.82421 0.0
C863 C 0.3302 0.12627 0.8709 0.0
H864 H 0.24882 0.15797 0.73813 0.0
H865 H 0.35012 0.15325 0.7002 0.0
H866 H 0.25974 0.16142 0.85371 0.0
H867 H 0.25822 0.20366 0.83766 0.0
H868 H 0.23165 0.17447 0.81025 0.0
H869 H 0.39232 0.16969 0.74849 0.0
H870 H 0.38113 0.19971 0.79063 0.0
H871 H 0.38414 0.15738 0.80593 0.0
H872 H 0.34294 0.25522 0.91004 0.0
H873 H 0.35118 0.15387 0.9486 0.0
H874 H 0.29694 0.2437 0.81099 0.0
H875 H 0.33906 0.24393 0.79506 0.0
H876 H 0.32482 0.27163 0.83841 0.0
H877 H 0.30514 0.12093 0.85856 0.0
H878 H 0.33513 0.11081 0.90108 0.0
H879 H 0.34744 0.11909 0.84367 0.0
C880 C 0.8419 0.27545 0.74808 0.0
C881 C 0.85031 0.2991 0.71558 0.0
C882 C 0.83097 0.28472 0.79134 0.0
C883 C 0.8277 0.31844 0.80211 0.0
C884 C 0.83525 0.34241 0.769 0.0
C885 C 0.84678 0.33247 0.72635 0.0
C886 C 0.82377 0.25842 0.82591 0.0
C887 C 0.8315 0.3786 0.77879 0.0
C888 C 0.77481 0.34321 0.90266 0.0
C889 C 0.79846 0.35079 0.93543 0.0
C890 C 0.78392 0.33257 0.85918 0.0
C891 C 0.81747 0.32876 0.84846 0.0
C892 C 0.8414 0.33553 0.88181 0.0
C893 C 0.83164 0.34677 0.92467 0.0
C894 C 0.75769 0.32618 0.82435 0.0
C895 C 0.8774 0.33119 0.8721 0.0
H896 H 0.84478 0.24962 0.74017 0.0
H897 H 0.85302 0.3509 0.70136 0.0
H898 H 0.84035 0.26131 0.85536 0.0
H899 H 0.7984 0.261 0.83864 0.0
H900 H 0.82688 0.23329 0.81194 0.0
H901 H 0.83662 0.39403 0.74863 0.0
H902 H 0.8063 0.38385 0.79069 0.0
H903 H 0.84846 0.38592 0.80627 0.0
H904 H 0.74913 0.34648 0.91057 0.0
H905 H 0.85007 0.3524 0.94985 0.0
H906 H 0.75969 0.30071 0.81137 0.0
H907 H 0.76107 0.3429 0.7951 0.0
H908 H 0.7327 0.32982 0.8382 0.0
H909 H 0.88221 0.30584 0.86005 0.0
H910 H 0.89281 0.33597 0.90234 0.0
H911 H 0.88502 0.34818 0.84475 0.0
loop_
_geom_bond_atom_site_label_1
_geom_bond_atom_site_label_2
_geom_bond_distance
_geom_bond_site_symmetry_2
_ccdc_geom_bond_type
Co0 O3 1.970 1_554 S
Co0 N17 1.989 . S
Co0 O25 1.967 . S
Co0 O32 1.920 . S
Co1 O4 1.966 1_554 S
Co1 N10 2.022 . S
Co1 N18 1.993 . S
Co1 O26 1.941 . S
C2 O3 1.258 . S
C2 O4 1.263 . S
O3 Co0 1.970 1_556 S
O3 C2 1.258 . S
O4 Co1 1.966 1_556 S
O4 C2 1.263 . S
C5 O6 1.235 . S
C5 O32 1.289 . S
O6 C5 1.235 . S
C7 C9 1.400 . S
C7 N10 1.351 . S
C7 C12 1.501 1_554 S
C8 C9 1.387 . S
C8 N11 1.341 . S
C9 C7 1.400 . S
C9 C8 1.387 . S
N10 Co1 2.022 . S
N10 C7 1.351 . S
N10 N11 1.365 . S
N11 C8 1.341 . S
N11 N10 1.365 . S
N11 H31 0.862 . S
C12 C7 1.501 1_556 S
C12 H13 0.961 . S
C12 H14 0.966 . S
C12 H15 0.960 . S
H13 C12 0.961 . S
H14 C12 0.966 . S
H15 C12 0.960 . S
C16 N17 1.342 . S
C16 C20 1.401 . S
C16 C21 1.499 . S
N17 Co0 1.989 . S
N17 C16 1.342 . S
N17 N18 1.388 . S
N18 Co1 1.993 . S
N18 N17 1.388 . S
N18 C19 1.346 . S
C19 N18 1.346 . S
C19 C20 1.396 . S
C19 C29 1.510 . S
C20 C16 1.401 . S
C20 C19 1.396 . S
C21 C16 1.499 . S
C21 H22 0.959 . S
C21 H23 0.960 . S
C21 H24 0.961 . S
H22 C21 0.959 . S
H23 C21 0.960 . S
H24 C21 0.961 . S
O25 Co0 1.967 . S
O25 C33 1.258 . S
O26 Co1 1.941 . S
O26 C33 1.266 . S
H27 C29 0.959 . S
H28 C29 0.961 . S
C29 C19 1.510 . S
C29 H27 0.959 . S
C29 H28 0.961 . S
C29 H30 0.960 . S
H30 C29 0.960 . S
H31 N11 0.862 . S
O32 Co0 1.920 . S
O32 C5 1.289 . S
C33 O25 1.258 . S
C33 O26 1.266 . S
Co34 O37 1.970 1_554 S
Co34 N51 1.989 . S
Co34 O59 1.967 . S
Co34 O66 1.920 . S
Co35 O38 1.966 1_554 S
Co35 N44 2.022 . S
Co35 N52 1.993 . S
Co35 O60 1.941 . S
C36 O37 1.258 . S
C36 O38 1.263 . S
O37 Co34 1.970 1_556 S
O37 C36 1.258 . S
O38 Co35 1.966 1_556 S
O38 C36 1.263 . S
C39 O40 1.235 . S
C39 O66 1.289 . S
O40 C39 1.235 . S
C41 C43 1.400 . S
C41 N44 1.351 . S
C41 C46 1.501 1_554 S
C42 C43 1.387 . S
C42 N45 1.341 . S
C43 C41 1.400 . S
C43 C42 1.387 . S
N44 Co35 2.022 . S
N44 C41 1.351 . S
N44 N45 1.365 . S
N45 C42 1.341 . S
N45 N44 1.365 . S
N45 H65 0.862 . S
C46 C41 1.501 1_556 S
C46 H47 0.961 . S
C46 H48 0.966 . S
C46 H49 0.960 . S
H47 C46 0.961 . S
H48 C46 0.966 . S
H49 C46 0.960 . S
C50 N51 1.342 . S
C50 C54 1.401 . S
C50 C55 1.499 . S
N51 Co34 1.989 . S
N51 C50 1.342 . S
N51 N52 1.388 . S
N52 Co35 1.993 . S
N52 N51 1.388 . S
N52 C53 1.346 . S
C53 N52 1.346 . S
C53 C54 1.396 . S
C53 C63 1.510 . S
C54 C50 1.401 . S
C54 C53 1.396 . S
C55 C50 1.499 . S
C55 H56 0.959 . S
C55 H57 0.960 . S
C55 H58 0.961 . S
H56 C55 0.959 . S
H57 C55 0.960 . S
H58 C55 0.961 . S
O59 Co34 1.967 . S
O59 C67 1.258 . S
O60 Co35 1.941 . S
O60 C67 1.266 . S
H61 C63 0.959 . S
H62 C63 0.961 . S
C63 C53 1.510 . S
C63 H61 0.959 . S
C63 H62 0.961 . S
C63 H64 0.960 . S
H64 C63 0.960 . S
H65 N45 0.862 . S
O66 Co34 1.920 . S
O66 C39 1.289 . S
C67 O59 1.258 . S
C67 O60 1.266 . S
Co68 O71 1.970 1_554 S
Co68 N85 1.989 . S
Co68 O93 1.967 . S
Co68 O100 1.920 . S
Co69 O72 1.966 1_554 S
Co69 N78 2.022 . S
Co69 N86 1.993 . S
Co69 O94 1.941 . S
C70 O71 1.258 . S
C70 O72 1.263 . S
O71 Co68 1.970 1_556 S
O71 C70 1.258 . S
O72 Co69 1.966 1_556 S
O72 C70 1.263 . S
C73 O74 1.235 . S
C73 O100 1.289 . S
O74 C73 1.235 . S
C75 C77 1.400 . S
C75 N78 1.351 . S
C75 C80 1.501 1_554 S
C76 C77 1.387 . S
C76 N79 1.341 . S
C77 C75 1.400 . S
C77 C76 1.387 . S
N78 Co69 2.022 . S
N78 C75 1.351 . S
N78 N79 1.365 . S
N79 C76 1.341 . S
N79 N78 1.365 . S
N79 H99 0.862 . S
C80 C75 1.501 1_556 S
C80 H81 0.961 . S
C80 H82 0.966 . S
C80 H83 0.960 . S
H81 C80 0.961 . S
H82 C80 0.966 . S
H83 C80 0.960 . S
C84 N85 1.342 . S
C84 C88 1.401 . S
C84 C89 1.499 . S
N85 Co68 1.989 . S
N85 C84 1.342 . S
N85 N86 1.388 . S
N86 Co69 1.993 . S
N86 N85 1.388 . S
N86 C87 1.346 . S
C87 N86 1.346 . S
C87 C88 1.396 . S
C87 C97 1.510 . S
C88 C84 1.401 . S
C88 C87 1.396 . S
C89 C84 1.499 . S
C89 H90 0.959 . S
C89 H91 0.960 . S
C89 H92 0.961 . S
H90 C89 0.959 . S
H91 C89 0.960 . S
H92 C89 0.961 . S
O93 Co68 1.967 . S
O93 C101 1.258 . S
O94 Co69 1.941 . S
O94 C101 1.266 . S
H95 C97 0.959 . S
H96 C97 0.961 . S
C97 C87 1.510 . S
C97 H95 0.959 . S
C97 H96 0.961 . S
C97 H98 0.960 . S
H98 C97 0.960 . S
H99 N79 0.862 . S
O100 Co68 1.920 . S
O100 C73 1.289 . S
C101 O93 1.258 . S
C101 O94 1.266 . S
Co102 O105 1.970 1_554 S
Co102 N119 1.989 . S
Co102 O127 1.967 . S
Co102 O134 1.920 . S
Co103 O106 1.966 1_554 S
Co103 N112 2.022 . S
Co103 N120 1.993 . S
Co103 O128 1.941 . S
C104 O105 1.258 . S
C104 O106 1.263 . S
O105 Co102 1.970 1_556 S
O105 C104 1.258 . S
O106 Co103 1.966 1_556 S
O106 C104 1.263 . S
C107 O108 1.235 . S
C107 O134 1.289 . S
O108 C107 1.235 . S
C109 C111 1.400 . S
C109 N112 1.351 . S
C109 C114 1.501 1_554 S
C110 C111 1.387 . S
C110 N113 1.341 . S
C111 C109 1.400 . S
C111 C110 1.387 . S
N112 Co103 2.022 . S
N112 C109 1.351 . S
N112 N113 1.365 . S
N113 C110 1.341 . S
N113 N112 1.365 . S
N113 H133 0.862 . S
C114 C109 1.501 1_556 S
C114 H115 0.961 . S
C114 H116 0.966 . S
C114 H117 0.960 . S
H115 C114 0.961 . S
H116 C114 0.966 . S
H117 C114 0.960 . S
C118 N119 1.342 . S
C118 C122 1.401 . S
C118 C123 1.499 . S
N119 Co102 1.989 . S
N119 C118 1.342 . S
N119 N120 1.388 . S
N120 Co103 1.993 . S
N120 N119 1.388 . S
N120 C121 1.346 . S
C121 N120 1.346 . S
C121 C122 1.396 . S
C121 C131 1.510 . S
C122 C118 1.401 . S
C122 C121 1.396 . S
C123 C118 1.499 . S
C123 H124 0.959 . S
C123 H125 0.960 . S
C123 H126 0.961 . S
H124 C123 0.959 . S
H125 C123 0.960 . S
H126 C123 0.961 . S
O127 Co102 1.967 . S
O127 C135 1.258 . S
O128 Co103 1.941 . S
O128 C135 1.266 . S
H129 C131 0.959 . S
H130 C131 0.961 . S
C131 C121 1.510 . S
C131 H129 0.959 . S
C131 H130 0.961 . S
C131 H132 0.960 . S
H132 C131 0.960 . S
H133 N113 0.862 . S
O134 Co102 1.920 . S
O134 C107 1.289 . S
C135 O127 1.258 . S
C135 O128 1.266 . S
Co136 O139 1.970 . S
Co136 N153 1.989 . S
Co136 O161 1.967 . S
Co136 O168 1.920 . S
Co137 O140 1.966 . S
Co137 N146 2.022 . S
Co137 N154 1.993 . S
Co137 O162 1.941 . S
C138 O139 1.258 . S
C138 O140 1.263 . S
O139 Co136 1.970 . S
O139 C138 1.258 . S
O140 Co137 1.966 . S
O140 C138 1.263 . S
C141 O142 1.235 . S
C141 O168 1.289 . S
O142 C141 1.235 . S
C143 C145 1.400 . S
C143 N146 1.351 . S
C143 C148 1.501 . S
C144 C145 1.387 . S
C144 N147 1.341 . S
C145 C143 1.400 . S
C145 C144 1.387 . S
N146 Co137 2.022 . S
N146 C143 1.351 . S
N146 N147 1.365 . S
N147 C144 1.341 . S
N147 N146 1.365 . S
N147 H167 0.862 . S
C148 C143 1.501 . S
C148 H149 0.961 . S
C148 H150 0.961 . S
C148 H151 0.960 . S
H149 C148 0.961 . S
H150 C148 0.961 . S
H151 C148 0.960 . S
C152 N153 1.342 . S
C152 C156 1.401 . S
C152 C157 1.499 . S
N153 Co136 1.989 . S
N153 C152 1.342 . S
N153 N154 1.388 . S
N154 Co137 1.993 . S
N154 N153 1.388 . S
N154 C155 1.346 . S
C155 N154 1.346 . S
C155 C156 1.396 . S
C155 C165 1.510 . S
C156 C152 1.401 . S
C156 C155 1.396 . S
C157 C152 1.499 . S
C157 H158 0.959 . S
C157 H159 0.960 . S
C157 H160 0.961 . S
H158 C157 0.959 . S
H159 C157 0.960 . S
H160 C157 0.961 . S
O161 Co136 1.967 . S
O161 C169 1.258 . S
O162 Co137 1.941 . S
O162 C169 1.266 . S
H163 C165 0.959 . S
H164 C165 0.961 . S
C165 C155 1.510 . S
C165 H163 0.959 . S
C165 H164 0.961 . S
C165 H166 0.960 . S
H166 C165 0.960 . S
H167 N147 0.862 . S
O168 Co136 1.920 . S
O168 C141 1.289 . S
C169 O161 1.258 . S
C169 O162 1.266 . S
Co170 O173 1.970 . S
Co170 N187 1.989 . S
Co170 O195 1.967 . S
Co170 O202 1.920 . S
Co171 O174 1.966 . S
Co171 N180 2.022 . S
Co171 N188 1.993 . S
Co171 O196 1.941 . S
C172 O173 1.258 . S
C172 O174 1.263 . S
O173 Co170 1.970 . S
O173 C172 1.258 . S
O174 Co171 1.966 . S
O174 C172 1.263 . S
C175 O176 1.235 . S
C175 O202 1.289 . S
O176 C175 1.235 . S
C177 C179 1.400 . S
C177 N180 1.351 . S
C177 C182 1.501 . S
C178 C179 1.387 . S
C178 N181 1.341 . S
C179 C177 1.400 . S
C179 C178 1.387 . S
N180 Co171 2.022 . S
N180 C177 1.351 . S
N180 N181 1.365 . S
N181 C178 1.341 . S
N181 N180 1.365 . S
N181 H201 0.862 . S
C182 C177 1.501 . S
C182 H183 0.961 . S
C182 H184 0.961 . S
C182 H185 0.960 . S
H183 C182 0.961 . S
H184 C182 0.961 . S
H185 C182 0.960 . S
C186 N187 1.342 . S
C186 C190 1.401 . S
C186 C191 1.499 . S
N187 Co170 1.989 . S
N187 C186 1.342 . S
N187 N188 1.388 . S
N188 Co171 1.993 . S
N188 N187 1.388 . S
N188 C189 1.346 . S
C189 N188 1.346 . S
C189 C190 1.396 . S
C189 C199 1.510 . S
C190 C186 1.401 . S
C190 C189 1.396 . S
C191 C186 1.499 . S
C191 H192 0.959 . S
C191 H193 0.960 . S
C191 H194 0.961 . S
H192 C191 0.959 . S
H193 C191 0.960 . S
H194 C191 0.961 . S
O195 Co170 1.967 . S
O195 C203 1.258 . S
O196 Co171 1.941 . S
O196 C203 1.266 . S
H197 C199 0.959 . S
H198 C199 0.961 . S
C199 C189 1.510 . S
C199 H197 0.959 . S
C199 H198 0.961 . S
C199 H200 0.960 . S
H200 C199 0.960 . S
H201 N181 0.862 . S
O202 Co170 1.920 . S
O202 C175 1.289 . S
C203 O195 1.258 . S
C203 O196 1.266 . S
Co204 O207 1.970 . S
Co204 N221 1.989 . S
Co204 O229 1.967 . S
Co204 O236 1.920 . S
Co205 O208 1.966 . S
Co205 N214 2.022 . S
Co205 N222 1.993 . S
Co205 O230 1.941 . S
C206 O207 1.258 . S
C206 O208 1.263 . S
O207 Co204 1.970 . S
O207 C206 1.258 . S
O208 Co205 1.966 . S
O208 C206 1.263 . S
C209 O210 1.235 . S
C209 O236 1.289 . S
O210 C209 1.235 . S
C211 C213 1.400 . S
C211 N214 1.351 . S
C211 C216 1.501 . S
C212 C213 1.387 . S
C212 N215 1.341 . S
C213 C211 1.400 . S
C213 C212 1.387 . S
N214 Co205 2.022 . S
N214 C211 1.351 . S
N214 N215 1.365 . S
N215 C212 1.341 . S
N215 N214 1.365 . S
N215 H235 0.862 . S
C216 C211 1.501 . S
C216 H217 0.961 . S
C216 H218 0.961 . S
C216 H219 0.960 . S
H217 C216 0.961 . S
H218 C216 0.961 . S
H219 C216 0.960 . S
C220 N221 1.342 . S
C220 C224 1.401 . S
C220 C225 1.499 . S
N221 Co204 1.989 . S
N221 C220 1.342 . S
N221 N222 1.388 . S
N222 Co205 1.993 . S
N222 N221 1.388 . S
N222 C223 1.346 . S
C223 N222 1.346 . S
C223 C224 1.396 . S
C223 C233 1.510 . S
C224 C220 1.401 . S
C224 C223 1.396 . S
C225 C220 1.499 . S
C225 H226 0.959 . S
C225 H227 0.960 . S
C225 H228 0.961 . S
H226 C225 0.959 . S
H227 C225 0.960 . S
H228 C225 0.961 . S
O229 Co204 1.967 . S
O229 C237 1.258 . S
O230 Co205 1.941 . S
O230 C237 1.266 . S
H231 C233 0.959 . S
H232 C233 0.961 . S
C233 C223 1.510 . S
C233 H231 0.959 . S
C233 H232 0.961 . S
C233 H234 0.960 . S
H234 C233 0.960 . S
H235 N215 0.862 . S
O236 Co204 1.920 . S
O236 C209 1.289 . S
C237 O229 1.258 . S
C237 O230 1.266 . S
Co238 O241 1.970 . S
Co238 N255 1.989 . S
Co238 O263 1.967 . S
Co238 O270 1.920 . S
Co239 O242 1.966 . S
Co239 N248 2.022 . S
Co239 N256 1.993 . S
Co239 O264 1.941 . S
C240 O241 1.258 . S
C240 O242 1.263 . S
O241 Co238 1.970 . S
O241 C240 1.258 . S
O242 Co239 1.966 . S
O242 C240 1.263 . S
C243 O244 1.235 . S
C243 O270 1.289 . S
O244 C243 1.235 . S
C245 C247 1.400 . S
C245 N248 1.351 . S
C245 C250 1.501 . S
C246 C247 1.387 . S
C246 N249 1.341 . S
C247 C245 1.400 . S
C247 C246 1.387 . S
N248 Co239 2.022 . S
N248 C245 1.351 . S
N248 N249 1.365 . S
N249 C246 1.341 . S
N249 N248 1.365 . S
N249 H269 0.862 . S
C250 C245 1.501 . S
C250 H251 0.961 . S
C250 H252 0.961 . S
C250 H253 0.960 . S
H251 C250 0.961 . S
H252 C250 0.961 . S
H253 C250 0.960 . S
C254 N255 1.342 . S
C254 C258 1.401 . S
C254 C259 1.499 . S
N255 Co238 1.989 . S
N255 C254 1.342 . S
N255 N256 1.388 . S
N256 Co239 1.993 . S
N256 N255 1.388 . S
N256 C257 1.346 . S
C257 N256 1.346 . S
C257 C258 1.396 . S
C257 C267 1.510 . S
C258 C254 1.401 . S
C258 C257 1.396 . S
C259 C254 1.499 . S
C259 H260 0.959 . S
C259 H261 0.960 . S
C259 H262 0.961 . S
H260 C259 0.959 . S
H261 C259 0.960 . S
H262 C259 0.961 . S
O263 Co238 1.967 . S
O263 C271 1.258 . S
O264 Co239 1.941 . S
O264 C271 1.266 . S
H265 C267 0.959 . S
H266 C267 0.961 . S
C267 C257 1.510 . S
C267 H265 0.959 . S
C267 H266 0.961 . S
C267 H268 0.960 . S
H268 C267 0.960 . S
H269 N249 0.862 . S
O270 Co238 1.920 . S
O270 C243 1.289 . S
C271 O263 1.258 . S
C271 O264 1.266 . S
C272 C273 1.391 . S
C272 C274 1.394 . S
C272 H288 0.931 . S
C273 C272 1.391 . S
C273 C277 1.376 . S
C274 C272 1.394 . S
C274 C275 1.369 . S
C274 C278 1.531 1_565 S
C275 C274 1.369 . S
C275 C276 1.410 . S
C275 C283 1.503 1_565 S
C276 C275 1.410 . S
C276 C277 1.392 . S
C276 C279 1.511 . S
C277 C273 1.376 . S
C277 C276 1.392 . S
C277 H289 0.929 . S
C278 C274 1.531 1_545 S
C278 H290 0.960 . S
C278 H291 0.962 . S
C278 H292 0.960 . S
C279 C276 1.511 . S
C279 H293 0.961 . S
C279 H294 0.961 . S
C279 H295 0.961 . S
C280 C281 1.370 . S
C280 C282 1.363 . S
C280 H296 0.931 . S
C281 C280 1.370 . S
C281 C285 1.408 . S
C282 C280 1.363 . S
C282 C283 1.370 . S
C282 C286 1.524 . S
C283 C275 1.503 1_545 S
C283 C282 1.370 . S
C283 C284 1.403 . S
C284 C283 1.403 . S
C284 C285 1.404 . S
C284 C287 1.539 1_554 S
C285 C281 1.408 . S
C285 C284 1.404 . S
C285 H297 0.930 1_554 S
C286 C282 1.524 . S
C286 H298 0.956 . S
C286 H299 0.961 1_545 S
C286 H300 0.961 . S
C287 C284 1.539 1_556 S
C287 H301 0.958 . S
C287 H302 0.961 . S
C287 H303 0.960 1_545 S
H288 C272 0.931 . S
H289 C277 0.929 . S
H290 C278 0.960 . S
H291 C278 0.962 . S
H292 C278 0.960 . S
H293 C279 0.961 . S
H294 C279 0.961 . S
H295 C279 0.961 . S
H296 C280 0.931 . S
H297 C285 0.930 1_556 S
H298 C286 0.956 . S
H299 C286 0.961 1_565 S
H300 C286 0.961 . S
H301 C287 0.958 . S
H302 C287 0.961 . S
H303 C287 0.960 1_565 S
C304 C305 1.391 . S
C304 C306 1.394 . S
C304 H320 0.931 . S
C305 C304 1.391 . S
C305 C309 1.376 . S
C306 C304 1.394 . S
C306 C307 1.369 . S
C306 C310 1.531 1_655 S
C307 C306 1.369 . S
C307 C308 1.410 . S
C307 C315 1.503 1_655 S
C308 C307 1.410 . S
C308 C309 1.392 . S
C308 C311 1.511 . S
C309 C305 1.376 . S
C309 C308 1.392 . S
C309 H321 0.929 . S
C310 C306 1.531 1_455 S
C310 H322 0.960 1_554 S
C310 H323 0.962 . S
C310 H324 0.960 1_554 S
C311 C308 1.511 . S
C311 H325 0.961 . S
C311 H326 0.961 . S
C311 H327 0.961 . S
C312 C313 1.370 . S
C312 C314 1.363 . S
C312 H328 0.931 . S
C313 C312 1.370 . S
C313 C317 1.408 . S
C314 C312 1.363 . S
C314 C315 1.370 . S
C314 C318 1.524 . S
C315 C307 1.503 1_455 S
C315 C314 1.370 . S
C315 C316 1.403 . S
C316 C315 1.403 . S
C316 C317 1.404 . S
C316 C319 1.539 1_454 S
C317 C313 1.408 . S
C317 C316 1.404 . S
C317 H329 0.930 1_554 S
C318 C314 1.524 . S
C318 H330 0.956 . S
C318 H331 0.961 . S
C318 H332 0.961 . S
C319 C316 1.539 1_656 S
C319 H333 0.958 1_655 S
C319 H334 0.961 . S
C319 H335 0.960 . S
H320 C304 0.931 . S
H321 C309 0.929 . S
H322 C310 0.960 1_556 S
H323 C310 0.962 . S
H324 C310 0.960 1_556 S
H325 C311 0.961 . S
H326 C311 0.961 . S
H327 C311 0.961 . S
H328 C312 0.931 . S
H329 C317 0.930 1_556 S
H330 C318 0.956 . S
H331 C318 0.961 . S
H332 C318 0.961 . S
H333 C319 0.958 1_455 S
H334 C319 0.961 . S
H335 C319 0.960 . S
C336 C337 1.391 . S
C336 C338 1.394 . S
C336 H352 0.931 . S
C337 C336 1.391 . S
C337 C341 1.376 . S
C338 C336 1.394 . S
C338 C339 1.369 . S
C338 C342 1.531 1_655 S
C339 C338 1.369 . S
C339 C340 1.410 . S
C339 C347 1.503 1_655 S
C340 C339 1.410 . S
C340 C341 1.392 . S
C340 C343 1.511 . S
C341 C337 1.376 . S
C341 C340 1.392 . S
C341 H353 0.929 . S
C342 C338 1.531 1_455 S
C342 H354 0.960 . S
C342 H355 0.962 . S
C342 H356 0.960 1_455 S
C343 C340 1.511 . S
C343 H357 0.961 . S
C343 H358 0.961 . S
C343 H359 0.961 . S
C344 C345 1.370 . S
C344 C346 1.363 . S
C344 H360 0.931 . S
C345 C344 1.370 . S
C345 C349 1.408 . S
C346 C344 1.363 . S
C346 C347 1.370 . S
C346 C350 1.524 . S
C347 C339 1.503 1_455 S
C347 C346 1.370 . S
C347 C348 1.403 1_455 S
C348 C347 1.403 1_655 S
C348 C349 1.404 1_655 S
C348 C351 1.539 . S
C349 C345 1.408 . S
C349 C348 1.404 1_455 S
C349 H361 0.930 . S
C350 C346 1.524 . S
C350 H362 0.956 . S
C350 H363 0.961 . S
C350 H364 0.961 . S
C351 C348 1.539 . S
C351 H365 0.958 . S
C351 H366 0.961 . S
C351 H367 0.960 . S
H352 C336 0.931 . S
H353 C341 0.929 . S
H354 C342 0.960 . S
H355 C342 0.962 . S
H356 C342 0.960 1_655 S
H357 C343 0.961 . S
H358 C343 0.961 . S
H359 C343 0.961 . S
H360 C344 0.931 . S
H361 C349 0.930 . S
H362 C350 0.956 . S
H363 C350 0.961 . S
H364 C350 0.961 . S
H365 C351 0.958 . S
H366 C351 0.961 . S
H367 C351 0.960 . S
C368 C369 1.391 . S
C368 C370 1.394 . S
C368 H384 0.931 . S
C369 C368 1.391 . S
C369 C373 1.376 . S
C370 C368 1.394 . S
C370 C371 1.369 . S
C370 C374 1.531 1_565 S
C371 C370 1.369 . S
C371 C372 1.410 . S
C371 C379 1.503 1_565 S
C372 C371 1.410 . S
C372 C373 1.392 . S
C372 C375 1.511 . S
C373 C369 1.376 . S
C373 C372 1.392 . S
C373 H385 0.929 . S
C374 C370 1.531 1_545 S
C374 H386 0.960 . S
C374 H387 0.962 . S
C374 H388 0.960 . S
C375 C372 1.511 . S
C375 H389 0.961 . S
C375 H390 0.961 . S
C375 H391 0.961 . S
C376 C377 1.370 . S
C376 C378 1.363 . S
C376 H392 0.931 . S
C377 C376 1.370 . S
C377 C381 1.408 . S
C378 C376 1.363 . S
C378 C379 1.370 . S
C378 C382 1.524 . S
C379 C371 1.503 1_545 S
C379 C378 1.370 . S
C379 C380 1.403 . S
C380 C379 1.403 . S
C380 C381 1.404 . S
C380 C383 1.539 1_545 S
C381 C377 1.408 . S
C381 C380 1.404 . S
C381 H393 0.930 . S
C382 C378 1.524 . S
C382 H394 0.956 . S
C382 H395 0.961 . S
C382 H396 0.961 . S
C383 C380 1.539 1_565 S
C383 H397 0.958 1_565 S
C383 H398 0.961 . S
C383 H399 0.960 . S
H384 C368 0.931 . S
H385 C373 0.929 . S
H386 C374 0.960 . S
H387 C374 0.962 . S
H388 C374 0.960 . S
H389 C375 0.961 . S
H390 C375 0.961 . S
H391 C375 0.961 . S
H392 C376 0.931 . S
H393 C381 0.930 . S
H394 C382 0.956 . S
H395 C382 0.961 . S
H396 C382 0.961 . S
H397 C383 0.958 1_545 S
H398 C383 0.961 . S
H399 C383 0.960 . S
C400 C401 1.389 1_556 S
C400 C402 1.393 1_556 S
C400 H416 0.933 . S
C401 C400 1.389 1_554 S
C401 C405 1.376 . S
C402 C400 1.393 1_554 S
C402 C403 1.378 . S
C402 C406 1.522 1_554 S
C403 C402 1.378 . S
C403 C404 1.410 . S
C403 C411 1.503 . S
C404 C403 1.410 . S
C404 C405 1.392 . S
C404 C407 1.511 . S
C405 C401 1.376 . S
C405 C404 1.392 . S
C405 H417 0.929 . S
C406 C402 1.522 1_556 S
C406 H418 0.960 . S
C406 H419 0.962 . S
C406 H420 0.960 . S
C407 C404 1.511 . S
C407 H421 0.961 . S
C407 H422 0.961 . S
C407 H423 0.961 . S
C408 C409 1.370 . S
C408 C410 1.363 . S
C408 H424 0.931 . S
C409 C408 1.370 . S
C409 C413 1.408 . S
C410 C408 1.363 . S
C410 C411 1.370 . S
C410 C414 1.524 . S
C411 C403 1.503 . S
C411 C410 1.370 . S
C411 C412 1.403 . S
C412 C411 1.403 . S
C412 C413 1.404 . S
C412 C415 1.539 1_554 S
C413 C409 1.408 . S
C413 C412 1.404 . S
C413 H425 0.930 1_554 S
C414 C410 1.524 . S
C414 H426 0.956 . S
C414 H427 0.961 . S
C414 H428 0.961 . S
C415 C412 1.539 1_556 S
C415 H429 0.958 . S
C415 H430 0.961 . S
C415 H431 0.960 . S
H416 C400 0.933 . S
H417 C405 0.929 . S
H418 C406 0.960 . S
H419 C406 0.962 . S
H420 C406 0.960 . S
H421 C407 0.961 . S
H422 C407 0.961 . S
H423 C407 0.961 . S
H424 C408 0.931 . S
H425 C413 0.930 1_556 S
H426 C414 0.956 . S
H427 C414 0.961 . S
H428 C414 0.961 . S
H429 C415 0.958 . S
H430 C415 0.961 . S
H431 C415 0.960 . S
C432 C433 1.391 . S
C432 C434 1.394 . S
C432 H448 0.931 . S
C433 C432 1.391 . S
C433 C437 1.376 . S
C434 C432 1.394 . S
C434 C435 1.369 . S
C434 C438 1.531 . S
C435 C434 1.369 . S
C435 C436 1.410 . S
C435 C443 1.503 . S
C436 C435 1.410 . S
C436 C437 1.392 . S
C436 C439 1.511 . S
C437 C433 1.376 . S
C437 C436 1.392 . S
C437 H449 0.929 . S
C438 C434 1.531 . S
C438 H450 0.960 1_554 S
C438 H451 0.962 . S
C438 H452 0.960 1_554 S
C439 C436 1.511 . S
C439 H453 0.961 . S
C439 H454 0.961 . S
C439 H455 0.961 . S
C440 C441 1.370 . S
C440 C442 1.363 . S
C440 H456 0.931 . S
C441 C440 1.370 . S
C441 C445 1.392 1_554 S
C442 C440 1.363 . S
C442 C443 1.370 . S
C442 C446 1.524 . S
C443 C435 1.503 . S
C443 C442 1.370 . S
C443 C444 1.403 1_554 S
C444 C443 1.403 1_556 S
C444 C445 1.406 . S
C444 C447 1.539 . S
C445 C441 1.392 1_556 S
C445 C444 1.406 . S
C445 H457 0.943 . S
C446 C442 1.524 . S
C446 H458 0.956 . S
C446 H459 0.961 . S
C446 H460 0.961 . S
C447 C444 1.539 . S
C447 H461 0.958 . S
C447 H462 0.961 . S
C447 H463 0.960 . S
H448 C432 0.931 . S
H449 C437 0.929 . S
H450 C438 0.960 1_556 S
H451 C438 0.962 . S
H452 C438 0.960 1_556 S
H453 C439 0.961 . S
H454 C439 0.961 . S
H455 C439 0.961 . S
H456 C440 0.931 . S
H457 C445 0.943 . S
H458 C446 0.956 . S
H459 C446 0.961 . S
H460 C446 0.961 . S
H461 C447 0.958 . S
H462 C447 0.961 . S
H463 C447 0.960 . S
C464 C465 1.391 . S
C464 C466 1.394 . S
C464 H480 0.931 . S
C465 C464 1.391 . S
C465 C469 1.376 . S
C466 C464 1.394 . S
C466 C467 1.369 . S
C466 C470 1.531 . S
C467 C466 1.369 . S
C467 C468 1.410 . S
C467 C475 1.503 . S
C468 C467 1.410 . S
C468 C469 1.392 . S
C468 C471 1.511 . S
C469 C465 1.376 . S
C469 C468 1.392 . S
C469 H481 0.929 . S
C470 C466 1.531 . S
C470 H482 0.960 . S
C470 H483 0.962 . S
C470 H484 0.960 . S
C471 C468 1.511 . S
C471 H485 0.961 . S
C471 H486 0.961 . S
C471 H487 0.961 . S
C472 C473 1.370 1_556 S
C472 C474 1.363 1_556 S
C472 H488 0.931 . S
C473 C472 1.370 1_554 S
C473 C477 1.408 . S
C474 C472 1.363 1_554 S
C474 C475 1.370 . S
C474 C478 1.524 1_554 S
C475 C467 1.503 . S
C475 C474 1.370 . S
C475 C476 1.403 . S
C476 C475 1.403 . S
C476 C477 1.404 . S
C476 C479 1.539 . S
C477 C473 1.408 . S
C477 C476 1.404 . S
C477 H489 0.930 . S
C478 C474 1.524 1_556 S
C478 H490 0.956 . S
C478 H491 0.961 . S
C478 H492 0.961 . S
C479 C476 1.539 . S
C479 H493 0.958 . S
C479 H494 0.961 . S
C479 H495 0.960 . S
H480 C464 0.931 . S
H481 C469 0.929 . S
H482 C470 0.960 . S
H483 C470 0.962 . S
H484 C470 0.960 . S
H485 C471 0.961 . S
H486 C471 0.961 . S
H487 C471 0.961 . S
H488 C472 0.931 . S
H489 C477 0.930 . S
H490 C478 0.956 . S
H491 C478 0.961 . S
H492 C478 0.961 . S
H493 C479 0.958 . S
H494 C479 0.961 . S
H495 C479 0.960 . S
C496 C497 1.391 . S
C496 C498 1.394 . S
C496 H512 0.931 . S
C497 C496 1.391 . S
C497 C501 1.376 . S
C498 C496 1.394 . S
C498 C499 1.369 . S
C498 C502 1.531 . S
C499 C498 1.369 . S
C499 C500 1.410 . S
C499 C507 1.503 . S
C500 C499 1.410 . S
C500 C501 1.392 . S
C500 C503 1.511 . S
C501 C497 1.376 . S
C501 C500 1.392 . S
C501 H513 0.929 . S
C502 C498 1.531 . S
C502 H514 0.960 . S
C502 H515 0.962 . S
C502 H516 0.960 . S
C503 C500 1.511 . S
C503 H517 0.961 . S
C503 H518 0.961 . S
C503 H519 0.961 . S
C504 C505 1.370 . S
C504 C506 1.363 . S
C504 H520 0.931 . S
C505 C504 1.370 . S
C505 C509 1.408 1_554 S
C506 C504 1.363 . S
C506 C507 1.370 . S
C506 C510 1.524 . S
C507 C499 1.503 . S
C507 C506 1.370 . S
C507 C508 1.403 1_554 S
C508 C507 1.403 1_556 S
C508 C509 1.404 . S
C508 C511 1.539 . S
C509 C505 1.408 1_556 S
C509 C508 1.404 . S
C509 H521 0.930 . S
C510 C506 1.524 . S
C510 H522 0.956 . S
C510 H523 0.961 . S
C510 H524 0.961 . S
C511 C508 1.539 . S
C511 H525 0.958 . S
C511 H526 0.961 . S
C511 H527 0.960 . S
H512 C496 0.931 . S
H513 C501 0.929 . S
H514 C502 0.960 . S
H515 C502 0.962 . S
H516 C502 0.960 . S
H517 C503 0.961 . S
H518 C503 0.961 . S
H519 C503 0.961 . S
H520 C504 0.931 . S
H521 C509 0.930 . S
H522 C510 0.956 . S
H523 C510 0.961 . S
H524 C510 0.961 . S
H525 C511 0.958 . S
H526 C511 0.961 . S
H527 C511 0.960 . S
C528 C529 1.391 1_545 S
C528 C530 1.394 . S
C528 H544 0.931 1_545 S
C529 C528 1.391 1_565 S
C529 C533 1.376 1_565 S
C530 C528 1.394 . S
C530 C531 1.369 . S
C530 C534 1.531 . S
C531 C530 1.369 . S
C531 C532 1.410 . S
C531 C539 1.503 . S
C532 C531 1.410 . S
C532 C533 1.392 . S
C532 C535 1.511 . S
C533 C529 1.376 1_545 S
C533 C532 1.392 . S
C533 H545 0.929 1_545 S
C534 C530 1.531 . S
C534 H546 0.960 . S
C534 H547 0.962 . S
C534 H548 0.960 . S
C535 C532 1.511 . S
C535 H549 0.961 . S
C535 H550 0.961 . S
C535 H551 0.961 . S
C536 C537 1.370 . S
C536 C538 1.363 . S
C536 H552 0.931 . S
C537 C536 1.370 . S
C537 C541 1.408 . S
C538 C536 1.363 . S
C538 C539 1.370 . S
C538 C542 1.524 . S
C539 C531 1.503 . S
C539 C538 1.370 . S
C539 C540 1.403 . S
C540 C539 1.403 . S
C540 C541 1.404 . S
C540 C543 1.539 . S
C541 C537 1.408 . S
C541 C540 1.404 . S
C541 H553 0.930 . S
C542 C538 1.524 . S
C542 H554 0.956 . S
C542 H555 0.961 . S
C542 H556 0.961 . S
C543 C540 1.539 . S
C543 H557 0.958 . S
C543 H558 0.961 . S
C543 H559 0.960 . S
H544 C528 0.931 1_565 S
H545 C533 0.929 1_565 S
H546 C534 0.960 . S
H547 C534 0.962 . S
H548 C534 0.960 . S
H549 C535 0.961 . S
H550 C535 0.961 . S
H551 C535 0.961 . S
H552 C536 0.931 . S
H553 C541 0.930 . S
H554 C542 0.956 . S
H555 C542 0.961 . S
H556 C542 0.961 . S
H557 C543 0.958 . S
H558 C543 0.961 . S
H559 C543 0.960 . S
C560 C561 1.384 1_655 S
C560 C562 1.425 . S
C560 H576 0.908 1_655 S
C561 C560 1.384 1_455 S
C561 C565 1.376 1_455 S
C562 C560 1.425 . S
C562 C563 1.369 . S
C562 C566 1.531 . S
C563 C562 1.369 . S
C563 C564 1.410 . S
C563 C571 1.503 . S
C564 C563 1.410 . S
C564 C565 1.392 . S
C564 C567 1.511 . S
C565 C561 1.376 1_655 S
C565 C564 1.392 . S
C565 H577 0.929 . S
C566 C562 1.531 . S
C566 H578 0.960 . S
C566 H579 0.962 . S
C566 H580 0.960 . S
C567 C564 1.511 . S
C567 H581 0.961 . S
C567 H582 0.961 . S
C567 H583 0.961 . S
C568 C569 1.370 . S
C568 C570 1.363 . S
C568 H584 0.931 . S
C569 C568 1.370 . S
C569 C573 1.408 . S
C570 C568 1.363 . S
C570 C571 1.370 . S
C570 C574 1.524 . S
C571 C563 1.503 . S
C571 C570 1.370 . S
C571 C572 1.403 . S
C572 C571 1.403 . S
C572 C573 1.404 . S
C572 C575 1.539 . S
C573 C569 1.408 . S
C573 C572 1.404 . S
C573 H585 0.930 . S
C574 C570 1.524 . S
C574 H586 0.956 . S
C574 H587 0.961 . S
C574 H588 0.961 . S
C575 C572 1.539 . S
C575 H589 0.958 . S
C575 H590 0.961 . S
C575 H591 0.960 . S
H576 C560 0.908 1_455 S
H577 C565 0.929 . S
H578 C566 0.960 . S
H579 C566 0.962 . S
H580 C566 0.960 . S
H581 C567 0.961 . S
H582 C567 0.961 . S
H583 C567 0.961 . S
H584 C568 0.931 . S
H585 C573 0.930 . S
H586 C574 0.956 . S
H587 C574 0.961 . S
H588 C574 0.961 . S
H589 C575 0.958 . S
H590 C575 0.961 . S
H591 C575 0.960 . S
C592 C593 1.391 1_565 S
C592 C594 1.394 . S
C592 H608 0.931 . S
C593 C592 1.391 1_545 S
C593 C597 1.371 1_545 S
C594 C592 1.394 . S
C594 C595 1.369 . S
C594 C598 1.531 . S
C595 C594 1.369 . S
C595 C596 1.410 . S
C595 C603 1.503 . S
C596 C595 1.410 . S
C596 C597 1.415 . S
C596 C599 1.511 . S
C597 C593 1.371 1_565 S
C597 C596 1.415 . S
C597 H609 0.911 1_565 S
C598 C594 1.531 . S
C598 H610 0.960 . S
C598 H611 0.962 . S
C598 H612 0.960 . S
C599 C596 1.511 . S
C599 H613 0.961 . S
C599 H614 0.961 . S
C599 H615 0.961 . S
C600 C601 1.370 . S
C600 C602 1.363 . S
C600 H616 0.931 . S
C601 C600 1.370 . S
C601 C605 1.408 . S
C602 C600 1.363 . S
C602 C603 1.370 . S
C602 C606 1.524 . S
C603 C595 1.503 . S
C603 C602 1.370 . S
C603 C604 1.403 . S
C604 C603 1.403 . S
C604 C605 1.404 . S
C604 C607 1.539 . S
C605 C601 1.408 . S
C605 C604 1.404 . S
C605 H617 0.930 . S
C606 C602 1.524 . S
C606 H618 0.956 . S
C606 H619 0.961 . S
C606 H620 0.961 . S
C607 C604 1.539 . S
C607 H621 0.958 . S
C607 H622 0.961 . S
C607 H623 0.960 . S
H608 C592 0.931 . S
H609 C597 0.911 1_545 S
H610 C598 0.960 . S
H611 C598 0.962 . S
H612 C598 0.960 . S
H613 C599 0.961 . S
H614 C599 0.961 . S
H615 C599 0.961 . S
H616 C600 0.931 . S
H617 C605 0.930 . S
H618 C606 0.956 . S
H619 C606 0.961 . S
H620 C606 0.961 . S
H621 C607 0.958 . S
H622 C607 0.961 . S
H623 C607 0.960 . S
C624 C625 1.388 1_455 S
C624 C626 1.406 . S
C624 H640 0.921 1_455 S
C625 C624 1.388 1_655 S
C625 C629 1.376 1_655 S
C626 C624 1.406 . S
C626 C627 1.369 . S
C626 C630 1.531 . S
C627 C626 1.369 . S
C627 C628 1.410 . S
C627 C635 1.503 . S
C628 C627 1.410 . S
C628 C629 1.392 . S
C628 C631 1.511 . S
C629 C625 1.376 1_455 S
C629 C628 1.392 . S
C629 H641 0.929 . S
C630 C626 1.531 . S
C630 H642 0.960 . S
C630 H643 0.962 . S
C630 H644 0.960 . S
C631 C628 1.511 . S
C631 H645 0.961 . S
C631 H646 0.961 . S
C631 H647 0.961 . S
C632 C633 1.370 . S
C632 C634 1.363 . S
C632 H648 0.931 . S
C633 C632 1.370 . S
C633 C637 1.408 . S
C634 C632 1.363 . S
C634 C635 1.370 . S
C634 C638 1.524 . S
C635 C627 1.503 . S
C635 C634 1.370 . S
C635 C636 1.403 . S
C636 C635 1.403 . S
C636 C637 1.404 . S
C636 C639 1.539 . S
C637 C633 1.408 . S
C637 C636 1.404 . S
C637 H649 0.930 . S
C638 C634 1.524 . S
C638 H650 0.956 . S
C638 H651 0.961 . S
C638 H652 0.961 . S
C639 C636 1.539 . S
C639 H653 0.958 . S
C639 H654 0.961 . S
C639 H655 0.960 . S
H640 C624 0.921 1_655 S
H641 C629 0.929 . S
H642 C630 0.960 . S
H643 C630 0.962 . S
H644 C630 0.960 . S
H645 C631 0.961 . S
H646 C631 0.961 . S
H647 C631 0.961 . S
H648 C632 0.931 . S
H649 C637 0.930 . S
H650 C638 0.956 . S
H651 C638 0.961 . S
H652 C638 0.961 . S
H653 C639 0.958 . S
H654 C639 0.961 . S
H655 C639 0.960 . S
C656 C657 1.391 . S
C656 C658 1.394 . S
C656 H672 0.931 . S
C657 C656 1.391 . S
C657 C661 1.376 . S
C658 C656 1.394 . S
C658 C659 1.369 . S
C658 C662 1.531 . S
C659 C658 1.369 . S
C659 C660 1.410 . S
C659 C667 1.503 . S
C660 C659 1.410 . S
C660 C661 1.392 . S
C660 C663 1.511 . S
C661 C657 1.376 . S
C661 C660 1.392 . S
C661 H673 0.929 . S
C662 C658 1.531 . S
C662 H674 0.960 . S
C662 H675 0.962 . S
C662 H676 0.960 . S
C663 C660 1.511 . S
C663 H677 0.961 . S
C663 H678 0.961 . S
C663 H679 0.961 . S
C664 C665 1.370 . S
C664 C666 1.363 . S
C664 H680 0.931 . S
C665 C664 1.370 . S
C665 C669 1.408 . S
C666 C664 1.363 . S
C666 C667 1.370 . S
C666 C670 1.524 . S
C667 C659 1.503 . S
C667 C666 1.370 . S
C667 C668 1.403 . S
C668 C667 1.403 . S
C668 C669 1.404 . S
C668 C671 1.539 . S
C669 C665 1.408 . S
C669 C668 1.404 . S
C669 H681 0.930 . S
C670 C666 1.524 . S
C670 H682 0.956 . S
C670 H683 0.961 . S
C670 H684 0.961 . S
C671 C668 1.539 . S
C671 H685 0.958 . S
C671 H686 0.961 . S
C671 H687 0.960 . S
H672 C656 0.931 . S
H673 C661 0.929 . S
H674 C662 0.960 . S
H675 C662 0.962 . S
H676 C662 0.960 . S
H677 C663 0.961 . S
H678 C663 0.961 . S
H679 C663 0.961 . S
H680 C664 0.931 . S
H681 C669 0.930 . S
H682 C670 0.956 . S
H683 C670 0.961 . S
H684 C670 0.961 . S
H685 C671 0.958 . S
H686 C671 0.961 . S
H687 C671 0.960 . S
C688 C689 1.391 . S
C688 C690 1.394 . S
C688 H704 0.931 . S
C689 C688 1.391 . S
C689 C693 1.376 . S
C690 C688 1.394 . S
C690 C691 1.369 . S
C690 C694 1.531 . S
C691 C690 1.369 . S
C691 C692 1.410 . S
C691 C699 1.503 . S
C692 C691 1.410 . S
C692 C693 1.392 . S
C692 C695 1.511 . S
C693 C689 1.376 . S
C693 C692 1.392 . S
C693 H705 0.929 . S
C694 C690 1.531 . S
C694 H706 0.960 . S
C694 H707 0.962 . S
C694 H708 0.960 . S
C695 C692 1.511 . S
C695 H709 0.961 . S
C695 H710 0.961 . S
C695 H711 0.961 . S
C696 C697 1.370 . S
C696 C698 1.363 . S
C696 H712 0.931 . S
C697 C696 1.370 . S
C697 C701 1.408 . S
C698 C696 1.363 . S
C698 C699 1.370 . S
C698 C702 1.524 . S
C699 C691 1.503 . S
C699 C698 1.370 . S
C699 C700 1.403 . S
C700 C699 1.403 . S
C700 C701 1.404 . S
C700 C703 1.539 . S
C701 C697 1.408 . S
C701 C700 1.404 . S
C701 H713 0.930 . S
C702 C698 1.524 . S
C702 H714 0.956 . S
C702 H715 0.961 . S
C702 H716 0.961 . S
C703 C700 1.539 . S
C703 H717 0.958 . S
C703 H718 0.961 . S
C703 H719 0.960 . S
H704 C688 0.931 . S
H705 C693 0.929 . S
H706 C694 0.960 . S
H707 C694 0.962 . S
H708 C694 0.960 . S
H709 C695 0.961 . S
H710 C695 0.961 . S
H711 C695 0.961 . S
H712 C696 0.931 . S
H713 C701 0.930 . S
H714 C702 0.956 . S
H715 C702 0.961 . S
H716 C702 0.961 . S
H717 C703 0.958 . S
H718 C703 0.961 . S
H719 C703 0.960 . S
C720 C721 1.391 . S
C720 C722 1.394 . S
C720 H736 0.931 . S
C721 C720 1.391 . S
C721 C725 1.376 . S
C722 C720 1.394 . S
C722 C723 1.369 . S
C722 C726 1.531 . S
C723 C722 1.369 . S
C723 C724 1.410 . S
C723 C731 1.503 . S
C724 C723 1.410 . S
C724 C725 1.392 . S
C724 C727 1.511 . S
C725 C721 1.376 . S
C725 C724 1.392 . S
C725 H737 0.929 . S
C726 C722 1.531 . S
C726 H738 0.960 . S
C726 H739 0.962 . S
C726 H740 0.960 . S
C727 C724 1.511 . S
C727 H741 0.961 . S
C727 H742 0.961 . S
C727 H743 0.961 . S
C728 C729 1.370 . S
C728 C730 1.363 . S
C728 H744 0.931 . S
C729 C728 1.370 . S
C729 C733 1.408 . S
C730 C728 1.363 . S
C730 C731 1.370 . S
C730 C734 1.524 . S
C731 C723 1.503 . S
C731 C730 1.370 . S
C731 C732 1.403 . S
C732 C731 1.403 . S
C732 C733 1.404 . S
C732 C735 1.539 . S
C733 C729 1.408 . S
C733 C732 1.404 . S
C733 H745 0.930 . S
C734 C730 1.524 . S
C734 H746 0.956 . S
C734 H747 0.961 . S
C734 H748 0.961 . S
C735 C732 1.539 . S
C735 H749 0.958 . S
C735 H750 0.961 . S
C735 H751 0.960 . S
H736 C720 0.931 . S
H737 C725 0.929 . S
H738 C726 0.960 . S
H739 C726 0.962 . S
H740 C726 0.960 . S
H741 C727 0.961 . S
H742 C727 0.961 . S
H743 C727 0.961 . S
H744 C728 0.931 . S
H745 C733 0.930 . S
H746 C734 0.956 . S
H747 C734 0.961 . S
H748 C734 0.961 . S
H749 C735 0.958 . S
H750 C735 0.961 . S
H751 C735 0.960 . S
C752 C753 1.391 . S
C752 C754 1.394 . S
C752 H768 0.931 . S
C753 C752 1.391 . S
C753 C757 1.376 . S
C754 C752 1.394 . S
C754 C755 1.369 . S
C754 C758 1.531 . S
C755 C754 1.369 . S
C755 C756 1.410 . S
C755 C763 1.503 . S
C756 C755 1.410 . S
C756 C757 1.392 . S
C756 C759 1.511 . S
C757 C753 1.376 . S
C757 C756 1.392 . S
C757 H769 0.929 . S
C758 C754 1.531 . S
C758 H770 0.960 . S
C758 H771 0.962 . S
C758 H772 0.960 . S
C759 C756 1.511 . S
C759 H773 0.961 . S
C759 H774 0.961 . S
C759 H775 0.961 . S
C760 C761 1.370 . S
C760 C762 1.363 . S
C760 H776 0.931 . S
C761 C760 1.370 . S
C761 C765 1.408 . S
C762 C760 1.363 . S
C762 C763 1.370 . S
C762 C766 1.524 . S
C763 C755 1.503 . S
C763 C762 1.370 . S
C763 C764 1.403 . S
C764 C763 1.403 . S
C764 C765 1.404 . S
C764 C767 1.539 . S
C765 C761 1.408 . S
C765 C764 1.404 . S
C765 H777 0.930 . S
C766 C762 1.524 . S
C766 H778 0.956 . S
C766 H779 0.961 . S
C766 H780 0.961 . S
C767 C764 1.539 . S
C767 H781 0.958 . S
C767 H782 0.961 . S
C767 H783 0.960 . S
H768 C752 0.931 . S
H769 C757 0.929 . S
H770 C758 0.960 . S
H771 C758 0.962 . S
H772 C758 0.960 . S
H773 C759 0.961 . S
H774 C759 0.961 . S
H775 C759 0.961 . S
H776 C760 0.931 . S
H777 C765 0.930 . S
H778 C766 0.956 . S
H779 C766 0.961 . S
H780 C766 0.961 . S
H781 C767 0.958 . S
H782 C767 0.961 . S
H783 C767 0.960 . S
C784 C785 1.391 . S
C784 C786 1.394 . S
C784 H800 0.931 . S
C785 C784 1.391 . S
C785 C789 1.376 . S
C786 C784 1.394 . S
C786 C787 1.369 . S
C786 C790 1.531 . S
C787 C786 1.369 . S
C787 C788 1.410 . S
C787 C795 1.503 . S
C788 C787 1.410 . S
C788 C789 1.392 . S
C788 C791 1.511 . S
C789 C785 1.376 . S
C789 C788 1.392 . S
C789 H801 0.929 . S
C790 C786 1.531 . S
C790 H802 0.960 . S
C790 H803 0.962 . S
C790 H804 0.960 . S
C791 C788 1.511 . S
C791 H805 0.961 . S
C791 H806 0.961 . S
C791 H807 0.961 . S
C792 C793 1.370 . S
C792 C794 1.363 . S
C792 H808 0.931 . S
C793 C792 1.370 . S
C793 C797 1.408 . S
C794 C792 1.363 . S
C794 C795 1.370 . S
C794 C798 1.524 . S
C795 C787 1.503 . S
C795 C794 1.370 . S
C795 C796 1.403 . S
C796 C795 1.403 . S
C796 C797 1.404 . S
C796 C799 1.539 . S
C797 C793 1.408 . S
C797 C796 1.404 . S
C797 H809 0.930 . S
C798 C794 1.524 . S
C798 H810 0.956 . S
C798 H811 0.961 . S
C798 H812 0.961 . S
C799 C796 1.539 . S
C799 H813 0.958 . S
C799 H814 0.961 . S
C799 H815 0.960 . S
H800 C784 0.931 . S
H801 C789 0.929 . S
H802 C790 0.960 . S
H803 C790 0.962 . S
H804 C790 0.960 . S
H805 C791 0.961 . S
H806 C791 0.961 . S
H807 C791 0.961 . S
H808 C792 0.931 . S
H809 C797 0.930 . S
H810 C798 0.956 . S
H811 C798 0.961 . S
H812 C798 0.961 . S
H813 C799 0.958 . S
H814 C799 0.961 . S
H815 C799 0.960 . S
C816 C817 1.391 . S
C816 C818 1.394 . S
C816 H832 0.931 . S
C817 C816 1.391 . S
C817 C821 1.376 . S
C818 C816 1.394 . S
C818 C819 1.369 . S
C818 C822 1.531 . S
C819 C818 1.369 . S
C819 C820 1.410 . S
C819 C827 1.503 . S
C820 C819 1.410 . S
C820 C821 1.392 . S
C820 C823 1.511 . S
C821 C817 1.376 . S
C821 C820 1.392 . S
C821 H833 0.929 . S
C822 C818 1.531 . S
C822 H834 0.960 . S
C822 H835 0.962 . S
C822 H836 0.960 . S
C823 C820 1.511 . S
C823 H837 0.961 . S
C823 H838 0.961 . S
C823 H839 0.961 . S
C824 C825 1.370 . S
C824 C826 1.363 . S
C824 H840 0.931 . S
C825 C824 1.370 . S
C825 C829 1.408 . S
C826 C824 1.363 . S
C826 C827 1.370 . S
C826 C830 1.524 . S
C827 C819 1.503 . S
C827 C826 1.370 . S
C827 C828 1.403 . S
C828 C827 1.403 . S
C828 C829 1.404 . S
C828 C831 1.539 . S
C829 C825 1.408 . S
C829 C828 1.404 . S
C829 H841 0.930 . S
C830 C826 1.524 . S
C830 H842 0.956 . S
C830 H843 0.961 . S
C830 H844 0.961 . S
C831 C828 1.539 . S
C831 H845 0.958 . S
C831 H846 0.961 . S
C831 H847 0.960 . S
H832 C816 0.931 . S
H833 C821 0.929 . S
H834 C822 0.960 . S
H835 C822 0.962 . S
H836 C822 0.960 . S
H837 C823 0.961 . S
H838 C823 0.961 . S
H839 C823 0.961 . S
H840 C824 0.931 . S
H841 C829 0.930 . S
H842 C830 0.956 . S
H843 C830 0.961 . S
H844 C830 0.961 . S
H845 C831 0.958 . S
H846 C831 0.961 . S
H847 C831 0.960 . S
C848 C849 1.391 . S
C848 C850 1.394 . S
C848 H864 0.931 . S
C849 C848 1.391 . S
C849 C853 1.376 . S
C850 C848 1.394 . S
C850 C851 1.369 . S
C850 C854 1.531 . S
C851 C850 1.369 . S
C851 C852 1.410 . S
C851 C859 1.503 . S
C852 C851 1.410 . S
C852 C853 1.392 . S
C852 C855 1.511 . S
C853 C849 1.376 . S
C853 C852 1.392 . S
C853 H865 0.929 . S
C854 C850 1.531 . S
C854 H866 0.960 . S
C854 H867 0.962 . S
C854 H868 0.960 . S
C855 C852 1.511 . S
C855 H869 0.961 . S
C855 H870 0.961 . S
C855 H871 0.961 . S
C856 C857 1.370 . S
C856 C858 1.363 . S
C856 H872 0.931 . S
C857 C856 1.370 . S
C857 C861 1.408 . S
C858 C856 1.363 . S
C858 C859 1.370 . S
C858 C862 1.524 . S
C859 C851 1.503 . S
C859 C858 1.370 . S
C859 C860 1.403 . S
C860 C859 1.403 . S
C860 C861 1.404 . S
C860 C863 1.539 . S
C861 C857 1.408 . S
C861 C860 1.404 . S
C861 H873 0.930 . S
C862 C858 1.524 . S
C862 H874 0.956 . S
C862 H875 0.961 . S
C862 H876 0.961 . S
C863 C860 1.539 . S
C863 H877 0.958 . S
C863 H878 0.961 . S
C863 H879 0.960 . S
H864 C848 0.931 . S
H865 C853 0.929 . S
H866 C854 0.960 . S
H867 C854 0.962 . S
H868 C854 0.960 . S
H869 C855 0.961 . S
H870 C855 0.961 . S
H871 C855 0.961 . S
H872 C856 0.931 . S
H873 C861 0.930 . S
H874 C862 0.956 . S
H875 C862 0.961 . S
H876 C862 0.961 . S
H877 C863 0.958 . S
H878 C863 0.961 . S
H879 C863 0.960 . S
C880 C881 1.391 . S
C880 C882 1.394 . S
C880 H896 0.931 . S
C881 C880 1.391 . S
C881 C885 1.376 . S
C882 C880 1.394 . S
C882 C883 1.369 . S
C882 C886 1.531 . S
C883 C882 1.369 . S
C883 C884 1.410 . S
C883 C891 1.503 . S
C884 C883 1.410 . S
C884 C885 1.392 . S
C884 C887 1.511 . S
C885 C881 1.376 . S
C885 C884 1.392 . S
C885 H897 0.929 . S
C886 C882 1.531 . S
C886 H898 0.960 . S
C886 H899 0.962 . S
C886 H900 0.960 . S
C887 C884 1.511 . S
C887 H901 0.961 . S
C887 H902 0.961 . S
C887 H903 0.961 . S
C888 C889 1.370 . S
C888 C890 1.363 . S
C888 H904 0.931 . S
C889 C888 1.370 . S
C889 C893 1.408 . S
C890 C888 1.363 . S
C890 C891 1.370 . S
C890 C894 1.524 . S
C891 C883 1.503 . S
C891 C890 1.370 . S
C891 C892 1.403 . S
C892 C891 1.403 . S
C892 C893 1.404 . S
C892 C895 1.539 . S
C893 C889 1.408 . S
C893 C892 1.404 . S
C893 H905 0.930 . S
C894 C890 1.524 . S
C894 H906 0.956 . S
C894 H907 0.961 . S
C894 H908 0.961 . S
C895 C892 1.539 . S
C895 H909 0.958 . S
C895 H910 0.961 . S
C895 H911 0.960 . S
H896 C880 0.931 . S
H897 C885 0.929 . S
H898 C886 0.960 . S
H899 C886 0.962 . S
H900 C886 0.960 . S
H901 C887 0.961 . S
H902 C887 0.961 . S
H903 C887 0.961 . S
H904 C888 0.931 . S
H905 C893 0.930 . S
H906 C894 0.956 . S
H907 C894 0.961 . S
H908 C894 0.961 . S
H909 C895 0.958 . S
H910 C895 0.961 . S
H911 C895 0.960 . S
C273 C77 0.972 . S
C281 C9 0.975 . S
C305 C43 0.946 . S
C313 C111 0.983 . S
C337 C145 1.015 . S
C345 C213 0.931 . S
C369 C179 0.973 . S
C377 C247 0.940 . S
C401 C135 1.671 . S
C409 C5 1.678 . S
C433 C33 1.665 . S
C441 C39 1.677 . S
C465 C73 1.681 . S
C473 C67 1.656 . S
C497 C107 1.670 . S
C505 C101 1.660 . S
C529 C203 1.668 . S
C537 C141 1.680 . S
C561 C237 1.652 . S
C569 C175 1.682 . S
C593 C271 1.666 . S
C601 C209 1.677 . S
C625 C169 1.649 . S
C633 C243 1.682 . S
C657 C20 1.724 . S
C665 C258 1.738 . S
C689 C54 1.740 . S
C697 C156 1.734 . S
C721 C190 1.724 . S
C729 C88 1.738 . S
C753 C224 1.735 . S
C761 C122 1.737 . S
C785 C70 1.902 . S
C793 C172 1.927 . S
C817 C206 1.930 . S
C825 C104 1.915 . S
C849 C240 1.920 . S
C857 C2 1.919 . S
C881 C138 1.929 . S
C889 C36 1.915 . S
