# Generated by pormake.
# Topology uof, (4)-cn, num edge types: 1
# Building blocks:
#     Node 0, Type 0, BuildingBlock: TATPOV_clean_sbu_0, # of connection points: 4
#     Node 1, Type 0, BuildingBlock: TATPOV_clean_sbu_0, # of connection points: 4
#     Node 2, Type 0, BuildingBlock: TATPOV_clean_sbu_0, # of connection points: 4
#     Node 3, Type 0, BuildingBlock: TATPOV_clean_sbu_0, # of connection points: 4
#     Node 4, Type 0, BuildingBlock: TATPOV_clean_sbu_0, # of connection points: 4
#     Node 5, Type 0, BuildingBlock: TATPOV_clean_sbu_0, # of connection points: 4
#     Node 6, Type 0, BuildingBlock: TATPOV_clean_sbu_0, # of connection points: 4
#     Node 7, Type 0, BuildingBlock: TATPOV_clean_sbu_0, # of connection points: 4
#     Node 8, Type 0, BuildingBlock: TATPOV_clean_sbu_0, # of connection points: 4
#     Node 9, Type 0, BuildingBlock: TATPOV_clean_sbu_0, # of connection points: 4
#     Node 10, Type 0, BuildingBlock: TATPOV_clean_sbu_0, # of connection points: 4
#     Node 11, Type 0, BuildingBlock: TATPOV_clean_sbu_0, # of connection points: 4
#     Edge 12, Type (0, 0), BuildingBlock: XIVTED_clean_linker_0, # of connection points: 2
#     Edge 13, Type (0, 0), BuildingBlock: XIVTED_clean_linker_0, # of connection points: 2
#     Edge 14, Type (0, 0), BuildingBlock: XIVTED_clean_linker_0, # of connection points: 2
#     Edge 15, Type (0, 0), BuildingBlock: XIVTED_clean_linker_0, # of connection points: 2
#     Edge 16, Type (0, 0), BuildingBlock: XIVTED_clean_linker_0, # of connection points: 2
#     Edge 17, Type (0, 0), BuildingBlock: XIVTED_clean_linker_0, # of connection points: 2
#     Edge 18, Type (0, 0), BuildingBlock: XIVTED_clean_linker_0, # of connection points: 2
#     Edge 19, Type (0, 0), BuildingBlock: XIVTED_clean_linker_0, # of connection points: 2
#     Edge 20, Type (0, 0), BuildingBlock: XIVTED_clean_linker_0, # of connection points: 2
#     Edge 21, Type (0, 0), BuildingBlock: XIVTED_clean_linker_0, # of connection points: 2
#     Edge 22, Type (0, 0), BuildingBlock: XIVTED_clean_linker_0, # of connection points: 2
#     Edge 23, Type (0, 0), BuildingBlock: XIVTED_clean_linker_0, # of connection points: 2
#     Edge 24, Type (0, 0), BuildingBlock: XIVTED_clean_linker_0, # of connection points: 2
#     Edge 25, Type (0, 0), BuildingBlock: XIVTED_clean_linker_0, # of connection points: 2
#     Edge 26, Type (0, 0), BuildingBlock: XIVTED_clean_linker_0, # of connection points: 2
#     Edge 27, Type (0, 0), BuildingBlock: XIVTED_clean_linker_0, # of connection points: 2
#     Edge 28, Type (0, 0), BuildingBlock: XIVTED_clean_linker_0, # of connection points: 2
#     Edge 29, Type (0, 0), BuildingBlock: XIVTED_clean_linker_0, # of connection points: 2
#     Edge 30, Type (0, 0), BuildingBlock: XIVTED_clean_linker_0, # of connection points: 2
#     Edge 31, Type (0, 0), BuildingBlock: XIVTED_clean_linker_0, # of connection points: 2
#     Edge 32, Type (0, 0), BuildingBlock: XIVTED_clean_linker_0, # of connection points: 2
#     Edge 33, Type (0, 0), BuildingBlock: XIVTED_clean_linker_0, # of connection points: 2
#     Edge 34, Type (0, 0), BuildingBlock: XIVTED_clean_linker_0, # of connection points: 2
#     Edge 35, Type (0, 0), BuildingBlock: XIVTED_clean_linker_0, # of connection points: 2
# Relax obj value: 0.218
# Max RMSD: 0.181
# Mean RMSD: 0.181
data_MOF--net-uof--node1-TATPOV_clean_sbu_0--edge1-XIVTED_clean_linker_0
_symmetry_space_group_name_H-M    P1
_symmetry_Int_Tables_number       1
_symmetry_cell_setting            triclinic
loop_
_symmetry_equiv_pos_as_xyz
'x, y, z'
_cell_length_a     31.142853
_cell_length_b     31.30675
_cell_length_c     64.92152
_cell_angle_alpha  89.956073
_cell_angle_beta   90.062439
_cell_angle_gamma 120.08494
loop_
_atom_site_label
_atom_site_type_symbol
_atom_site_fract_x
_atom_site_fract_y
_atom_site_fract_z
_atom_type_partial_charge
Zn0 Zn 0.25538 0.36881 0.20635 0.0
Zn1 Zn 0.21982 0.30941 0.24008 0.0
O2 O 0.15875 0.30907 0.22708 0.0
O3 O 0.18869 0.36337 0.2018 0.0
O4 O 0.1984 0.27181 0.26721 0.0
O5 O 0.31053 0.42355 0.22289 0.0
O6 O 0.28333 0.37199 0.24902 0.0
C7 C 0.15206 0.33186 0.2122 0.0
C8 C 0.25827 0.27706 0.20418 0.0
O9 O 0.23996 0.27017 0.22216 0.0
O10 O 0.2674 0.31533 0.194 0.0
C11 C 0.19404 0.22944 0.2697 0.0
O12 O 0.19722 0.20578 0.25362 0.0
C13 C 0.31551 0.41305 0.24124 0.0
Zn14 Zn 0.88097 0.2594 0.53436 0.0
Zn15 Zn 0.88799 0.21818 0.56941 0.0
O16 O 0.82249 0.16296 0.55614 0.0
O17 O 0.81713 0.19829 0.52763 0.0
O18 O 0.89453 0.19699 0.59813 0.0
O19 O 0.88327 0.31755 0.54862 0.0
O20 O 0.89829 0.28674 0.57629 0.0
C21 C 0.80026 0.16086 0.53926 0.0
C22 C 0.96671 0.24557 0.53695 0.0
O23 O 0.9484 0.22601 0.5543 0.0
O24 O 0.94551 0.26284 0.52581 0.0
C25 C 0.91912 0.17626 0.60336 0.0
O26 O 0.93712 0.16002 0.58903 0.0
C27 C 0.89511 0.32134 0.56744 0.0
Zn28 Zn 0.61162 0.88151 0.86418 0.0
Zn29 Zn 0.66738 0.8891 0.89736 0.0
O30 O 0.65156 0.8215 0.88526 0.0
O31 O 0.6112 0.8188 0.85691 0.0
O32 O 0.70391 0.89943 0.92464 0.0
O33 O 0.55823 0.88218 0.88138 0.0
O34 O 0.61196 0.90254 0.90666 0.0
C35 C 0.63088 0.80044 0.8683 0.0
C36 C 0.71129 0.96394 0.8626 0.0
O37 O 0.71629 0.94378 0.87871 0.0
O38 O 0.66927 0.94688 0.85402 0.0
C39 C 0.74787 0.93497 0.92771 0.0
O40 O 0.77367 0.96232 0.91204 0.0
C41 C 0.57144 0.89734 0.89961 0.0
Zn42 Zn 0.72672 0.62611 0.20347 0.0
Zn43 Zn 0.76939 0.67895 0.23705 0.0
O44 O 0.82645 0.67308 0.22288 0.0
O45 O 0.79033 0.62973 0.195 0.0
O46 O 0.79215 0.70786 0.26548 0.0
O47 O 0.67218 0.56801 0.21863 0.0
O48 O 0.70197 0.61898 0.24483 0.0
C49 C 0.82887 0.6536 0.20592 0.0
C50 C 0.73274 0.72251 0.20536 0.0
O51 O 0.75656 0.72806 0.22201 0.0
O52 O 0.71573 0.68271 0.19516 0.0
C53 C 0.8101 0.7528 0.27072 0.0
O54 O 0.82206 0.7866 0.25642 0.0
C55 C 0.66836 0.57862 0.23707 0.0
Zn56 Zn 0.10603 0.73677 0.53368 0.0
Zn57 Zn 0.0972 0.7762 0.56921 0.0
O58 O 0.16436 0.83097 0.55723 0.0
O59 O 0.17162 0.79749 0.52855 0.0
O60 O 0.08943 0.79607 0.59799 0.0
O61 O 0.10026 0.67672 0.5478 0.0
O62 O 0.08468 0.70671 0.57557 0.0
C63 C 0.18806 0.83391 0.54072 0.0
C64 C 0.02255 0.75447 0.53534 0.0
O65 O 0.0393 0.77163 0.55317 0.0
O66 O 0.04368 0.73707 0.52426 0.0
C67 C 0.06377 0.81554 0.60333 0.0
O68 O 0.0448 0.83105 0.58909 0.0
C69 C 0.08751 0.6722 0.56652 0.0
Zn70 Zn 0.36457 0.0995 0.86453 0.0
Zn71 Zn 0.31093 0.08715 0.89955 0.0
O72 O 0.3215 0.15332 0.88751 0.0
O73 O 0.36574 0.16334 0.85954 0.0
O74 O 0.27562 0.07542 0.92714 0.0
O75 O 0.41795 0.09593 0.88087 0.0
O76 O 0.37003 0.07922 0.90807 0.0
C77 C 0.3432 0.17788 0.87129 0.0
C78 C 0.2663 0.01344 0.86407 0.0
O79 O 0.26363 0.02922 0.88179 0.0
O80 O 0.30552 0.03639 0.85341 0.0
C81 C 0.23118 0.04085 0.93016 0.0
O82 O 0.20415 0.01537 0.91436 0.0
C83 C 0.40903 0.08386 0.89965 0.0
Zn84 Zn 0.61978 0.73486 0.48315 0.0
Zn85 Zn 0.66762 0.77569 0.44792 0.0
O86 O 0.65572 0.83006 0.46055 0.0
O87 O 0.61465 0.79483 0.48903 0.0
O88 O 0.69483 0.79593 0.41912 0.0
O89 O 0.56503 0.67467 0.46918 0.0
O90 O 0.61033 0.70604 0.4414 0.0
C91 C 0.63491 0.83199 0.47723 0.0
C92 C 0.72141 0.75356 0.4811 0.0
O93 O 0.72174 0.77131 0.46343 0.0
O94 O 0.68273 0.73546 0.49222 0.0
C95 C 0.74 0.82089 0.41356 0.0
O96 O 0.77485 0.84263 0.42756 0.0
C97 C 0.57311 0.67083 0.45038 0.0
Zn98 Zn 0.87463 0.61615 0.81343 0.0
Zn99 Zn 0.88461 0.66547 0.77834 0.0
O100 O 0.81807 0.65508 0.79041 0.0
O101 O 0.80988 0.61313 0.81885 0.0
O102 O 0.89369 0.69376 0.74967 0.0
O103 O 0.8789 0.56101 0.79938 0.0
O104 O 0.89555 0.60747 0.77185 0.0
C105 C 0.79418 0.63428 0.80689 0.0
C106 C 0.96036 0.71593 0.81194 0.0
O107 O 0.94362 0.71762 0.79426 0.0
O108 O 0.93822 0.67721 0.82287 0.0
C109 C 0.91493 0.73901 0.74448 0.0
O110 O 0.92769 0.77302 0.75874 0.0
C111 C 0.89209 0.56962 0.78072 0.0
Zn112 Zn 0.26488 0.89398 0.14536 0.0
Zn113 Zn 0.22156 0.9088 0.11223 0.0
O114 O 0.16398 0.84459 0.12501 0.0
O115 O 0.19982 0.83316 0.15209 0.0
O116 O 0.19664 0.92515 0.08642 0.0
O117 O 0.31794 0.89333 0.12762 0.0
O118 O 0.28606 0.91367 0.10179 0.0
C119 C 0.16136 0.82037 0.14128 0.0
C120 C 0.26099 0.98424 0.14681 0.0
O121 O 0.23814 0.96816 0.12983 0.0
O122 O 0.27691 0.9599 0.1566 0.0
C123 C 0.18046 0.89828 0.07044 0.0
O124 O 0.17415 0.85353 0.07081 0.0
C125 C 0.32015 0.90692 0.10909 0.0
Zn126 Zn 0.37087 0.26256 0.48661 0.0
Zn127 Zn 0.31666 0.21997 0.45204 0.0
O128 O 0.32901 0.16536 0.46371 0.0
O129 O 0.37292 0.20033 0.49169 0.0
O130 O 0.27693 0.19509 0.42581 0.0
O131 O 0.42283 0.31892 0.46959 0.0
O132 O 0.37427 0.28653 0.44261 0.0
C133 C 0.35112 0.16318 0.47994 0.0
C134 C 0.27226 0.2492 0.48746 0.0
O135 O 0.26944 0.23004 0.4699 0.0
O136 O 0.31186 0.26653 0.49796 0.0
C137 C 0.29003 0.18139 0.40976 0.0
O138 O 0.33049 0.17816 0.41027 0.0
C139 C 0.41323 0.32135 0.45081 0.0
Zn140 Zn 0.09696 0.36312 0.814 0.0
Zn141 Zn 0.09363 0.3157 0.7795 0.0
O142 O 0.15938 0.32736 0.79276 0.0
O143 O 0.15841 0.36168 0.82225 0.0
O144 O 0.0879 0.28908 0.75066 0.0
O145 O 0.09989 0.42151 0.79968 0.0
O146 O 0.08104 0.37282 0.7728 0.0
C147 C 0.17825 0.34426 0.81047 0.0
C148 C 0.01226 0.26378 0.81054 0.0
O149 O 0.0348 0.26143 0.79465 0.0
O150 O 0.02919 0.30363 0.82068 0.0
C151 C 0.06505 0.244 0.74514 0.0
O152 O 0.0488 0.20922 0.75923 0.0
C153 C 0.08598 0.41181 0.78114 0.0
Zn154 Zn 0.73299 0.10816 0.1415 0.0
Zn155 Zn 0.76644 0.07957 0.10861 0.0
O156 O 0.82876 0.14166 0.11988 0.0
O157 O 0.80014 0.16976 0.14427 0.0
O158 O 0.78565 0.05604 0.08315 0.0
O159 O 0.6772 0.10545 0.12439 0.0
O160 O 0.70367 0.07896 0.09871 0.0
C161 C 0.83621 0.17328 0.1339 0.0
C162 C 0.73039 0.01433 0.14633 0.0
O163 O 0.74703 0.02308 0.12804 0.0
O164 O 0.72216 0.0449 0.15585 0.0
C165 C 0.80744 0.08197 0.06739 0.0
O166 O 0.82328 0.12956 0.06769 0.0
C167 C 0.67198 0.08895 0.1062 0.0
H168 H 0.87295 0.26423 0.15203 0.0
H169 H 0.07303 0.23853 0.21403 0.0
H170 H 0.9132 0.15574 0.135 0.0
H171 H 0.11765 0.3836 0.19019 0.0
H172 H -0.00235 0.20475 0.19299 0.0
H173 H 0.95012 0.30797 0.1723 0.0
C174 C 0.89857 0.25034 0.15215 0.0
C175 C 0.88695 0.20655 0.14168 0.0
C176 C 0.02368 0.2441 0.1927 0.0
C177 C 0.97309 0.25463 0.16555 0.0
C178 C 0.06626 0.26353 0.2049 0.0
C179 C 0.10163 0.31399 0.20388 0.0
C180 C 0.01576 0.27545 0.17981 0.0
C181 C 0.09124 0.3445 0.19141 0.0
C182 C 0.94219 0.27505 0.1638 0.0
C183 C 0.92101 0.18968 0.14259 0.0
N184 N 0.04907 0.32477 0.17983 0.0
N185 N 0.96199 0.21312 0.15471 0.0
H186 H 0.75681 0.1425 0.50125 0.0
H187 H 0.60841 0.85044 0.51486 0.0
H188 H 0.75255 0.06999 0.55849 0.0
H189 H 0.67879 0.92261 0.45782 0.0
H190 H 0.6368 0.931 0.53054 0.0
H191 H 0.70396 0.06207 0.48547 0.0
C192 C 0.74396 0.10979 0.51069 0.0
C193 C 0.75989 0.11312 0.53123 0.0
C194 C 0.64521 0.92906 0.5145 0.0
C195 C 0.69898 0.02093 0.51309 0.0
C196 C 0.62884 0.8831 0.50543 0.0
C197 C 0.6419 0.87963 0.485 0.0
C198 C 0.67414 0.97196 0.50302 0.0
C199 C 0.66823 0.92343 0.47363 0.0
C200 C 0.71395 0.06391 0.50157 0.0
C201 C 0.74163 0.06926 0.5426 0.0
N202 N 0.68389 0.96788 0.48286 0.0
N203 N 0.71241 0.02487 0.53332 0.0
H204 H 0.60893 0.76151 0.82948 0.0
H205 H 0.74528 0.60565 0.8437 0.0
H206 H 0.66877 0.7479 0.88757 0.0
H207 H 0.75068 0.68123 0.78722 0.0
H208 H 0.69236 0.63402 0.85885 0.0
H209 H 0.63605 0.7085 0.8135 0.0
C210 C 0.62673 0.74651 0.83905 0.0
C211 C 0.63721 0.75987 0.85992 0.0
C212 C 0.70446 0.64361 0.84303 0.0
C213 C 0.66802 0.69888 0.84156 0.0
C214 C 0.73452 0.62729 0.83427 0.0
C215 C 0.75328 0.64176 0.81419 0.0
C216 C 0.69233 0.67402 0.8316 0.0
C217 C 0.73756 0.66956 0.80279 0.0
C218 C 0.64239 0.71645 0.82981 0.0
C219 C 0.6603 0.73902 0.87143 0.0
N220 N 0.70833 0.68521 0.81173 0.0
N221 N 0.67531 0.70984 0.86205 0.0
H222 H 0.84773 0.63492 0.16687 0.0
H223 H 0.14184 0.7779 0.17947 0.0
H224 H 0.92115 0.69949 0.22447 0.0
H225 H 0.06922 0.77781 0.12274 0.0
H226 H 0.06077 0.72812 0.19557 0.0
H227 H 0.92855 0.66623 0.15053 0.0
C228 C 0.88076 0.65485 0.17624 0.0
C229 C 0.87748 0.66493 0.19713 0.0
C230 C 0.06267 0.73846 0.17953 0.0
C231 C 0.97022 0.70065 0.17832 0.0
C232 C 0.10892 0.76664 0.17021 0.0
C233 C 0.11252 0.78259 0.14969 0.0
C234 C 0.01951 0.72529 0.1682 0.0
C235 C 0.06833 0.76668 0.1386 0.0
C236 C 0.92687 0.67293 0.1668 0.0
C237 C 0.9218 0.69104 0.20834 0.0
N238 N 0.02361 0.73906 0.14803 0.0
N239 N 0.96639 0.70818 0.19878 0.0
H240 H 0.30908 0.07414 0.45949 0.0
H241 H 0.23479 0.92275 0.56138 0.0
H242 H 0.37618 0.1427 0.5175 0.0
H243 H 0.23434 0.85529 0.50331 0.0
H244 H 0.2887 0.004 0.54602 0.0
H245 H 0.28295 0.99329 0.47491 0.0
C246 C 0.31922 0.07234 0.4753 0.0
C247 C 0.34431 0.11529 0.48725 0.0
C248 C 0.27756 0.97126 0.53681 0.0
C249 C 0.3136 0.02305 0.50509 0.0
C250 C 0.24684 0.92488 0.54558 0.0
C251 C 0.22935 0.88208 0.53358 0.0
C252 C 0.28992 0.97479 0.5158 0.0
C253 C 0.24636 0.88721 0.51314 0.0
C254 C 0.30429 0.0262 0.4841 0.0
C255 C 0.35652 0.11064 0.50769 0.0
N256 N 0.27474 0.9327 0.50478 0.0
N257 N 0.34011 0.06532 0.51609 0.0
H258 H 0.37143 0.2266 0.83445 0.0
H259 H 0.21552 0.36275 0.84964 0.0
H260 H 0.29584 0.2207 0.89105 0.0
H261 H 0.23116 0.30703 0.79096 0.0
H262 H 0.26788 0.33436 0.86543 0.0
H263 H 0.34305 0.27965 0.81951 0.0
C264 C 0.34977 0.23726 0.84395 0.0
C265 C 0.33536 0.21841 0.86402 0.0
C266 C 0.26047 0.32912 0.84904 0.0
C267 C 0.30306 0.27945 0.84684 0.0
C268 C 0.23075 0.34549 0.83993 0.0
C269 C 0.21818 0.33661 0.81892 0.0
C270 C 0.27844 0.3043 0.83707 0.0
C271 C 0.23942 0.31427 0.80721 0.0
C272 C 0.33343 0.26738 0.8353 0.0
C273 C 0.30747 0.23391 0.8755 0.0
N274 N 0.26821 0.29848 0.81649 0.0
N275 N 0.29184 0.26322 0.86668 0.0
H276 H 0.60216 0.47934 0.23548 0.0
H277 H 0.35898 0.37897 0.26797 0.0
H278 H 0.62347 0.61579 0.26102 0.0
H279 H 0.38476 0.51097 0.23623 0.0
H280 H 0.44816 0.41787 0.2748 0.0
H281 H 0.51438 0.43896 0.24547 0.0
C282 C 0.58869 0.50031 0.24376 0.0
C283 C 0.61997 0.5508 0.24751 0.0
C284 C 0.43386 0.43867 0.26692 0.0
C285 C 0.51997 0.50559 0.25829 0.0
C286 C 0.38302 0.41684 0.26316 0.0
C287 C 0.36456 0.44163 0.25124 0.0
C288 C 0.46604 0.48589 0.25911 0.0
C289 C 0.39758 0.49046 0.24528 0.0
C290 C 0.53879 0.47735 0.24948 0.0
C291 C 0.60059 0.57663 0.25803 0.0
N292 N 0.44696 0.51091 0.24911 0.0
N293 N 0.55135 0.55413 0.26245 0.0
H294 H 0.11873 0.60496 0.56356 0.0
H295 H 0.97142 0.36187 0.59486 0.0
H296 H 0.00498 0.62759 0.5903 0.0
H297 H 0.86956 0.39234 0.56171 0.0
H298 H 0.02273 0.45015 0.60263 0.0
H299 H 0.06998 0.51719 0.57281 0.0
C300 C 0.08426 0.59167 0.57192 0.0
C301 C 0.06579 0.62328 0.57625 0.0
C302 C 0.98827 0.43702 0.59425 0.0
C303 C 0.00961 0.52355 0.5862 0.0
C304 C 0.95878 0.3868 0.58993 0.0
C305 C 0.91653 0.37006 0.57741 0.0
C306 C 0.97457 0.47016 0.58639 0.0
C307 C 0.90213 0.40396 0.57124 0.0
C308 C 0.05663 0.54185 0.57724 0.0
C309 C 0.0206 0.60432 0.58688 0.0
N310 N 0.93142 0.45268 0.57566 0.0
N311 N 0.99311 0.55518 0.59088 0.0
H312 H 0.50874 0.11852 0.89729 0.0
H313 H 0.61282 0.97772 0.92481 0.0
H314 H 0.37374 0.00352 0.92451 0.0
H315 H 0.47301 0.8693 0.89831 0.0
H316 H 0.57608 0.02873 0.93361 0.0
H317 H 0.55048 0.07263 0.9069 0.0
C318 C 0.48844 0.08446 0.9059 0.0
C319 C 0.43788 0.06471 0.91015 0.0
C320 C 0.55323 0.99306 0.92644 0.0
C321 C 0.48465 0.01161 0.92056 0.0
C322 C 0.57388 0.96373 0.92157 0.0
C323 C 0.54597 0.91958 0.91055 0.0
C324 C 0.5042 0.97746 0.92059 0.0
C325 C 0.49585 0.90339 0.90659 0.0
C326 C 0.51222 0.0584 0.91144 0.0
C327 C 0.41292 0.0201 0.92111 0.0
N328 N 0.47661 0.93262 0.91144 0.0
N329 N 0.43612 0.9941 0.92531 0.0
H330 H 0.60948 0.63143 0.42286 0.0
H331 H 0.51286 0.38706 0.45195 0.0
H332 H 0.47652 0.59864 0.45612 0.0
H333 H 0.37488 0.36539 0.4271 0.0
H334 H 0.55256 0.47473 0.44264 0.0
H335 H 0.57235 0.54352 0.41438 0.0
C336 C 0.57179 0.60607 0.42771 0.0
C337 C 0.5461 0.62203 0.44042 0.0
C338 C 0.51404 0.45029 0.43856 0.0
C339 C 0.50381 0.52237 0.43062 0.0
C340 C 0.49147 0.40047 0.44389 0.0
C341 C 0.44072 0.3692 0.44022 0.0
C342 C 0.48507 0.46895 0.43028 0.0
C343 C 0.41426 0.38837 0.43001 0.0
C344 C 0.55094 0.55606 0.42297 0.0
C345 C 0.49762 0.58761 0.44646 0.0
N346 N 0.43634 0.43754 0.42605 0.0
N347 N 0.47808 0.53915 0.44162 0.0
H348 H 0.96852 0.60554 0.75336 0.0
H349 H 0.11833 0.51062 0.78302 0.0
H350 H 0.86796 0.47359 0.78682 0.0
H351 H 0.00231 0.37332 0.75798 0.0
H352 H 0.06918 0.54955 0.77411 0.0
H353 H 0.0201 0.56884 0.74542 0.0
C354 C 0.95627 0.56815 0.75838 0.0
C355 C 0.91424 0.54264 0.77099 0.0
C356 C 0.05539 0.51134 0.76995 0.0
C357 C 0.97261 0.50086 0.7618 0.0
C358 C 0.08329 0.4892 0.77505 0.0
C359 C 0.0643 0.43888 0.77116 0.0
C360 C 0.00764 0.48238 0.76164 0.0
C361 C 0.01836 0.41238 0.76106 0.0
C362 C 0.98591 0.54757 0.75395 0.0
C363 C 0.90034 0.49455 0.77723 0.0
N364 N 0.99071 0.43404 0.75729 0.0
N365 N 0.92975 0.47525 0.77269 0.0
H366 H 0.36032 0.9837 0.082 0.0
H367 H 0.60848 0.12554 0.10779 0.0
H368 H 0.38963 0.87795 0.11207 0.0
H369 H 0.62361 0.00602 0.08292 0.0
H370 H 0.51973 0.07942 0.09936 0.0
H371 H 0.44841 0.03276 0.07289 0.0
C372 C 0.38483 0.96974 0.08598 0.0
C373 C 0.36785 0.92696 0.09805 0.0
C374 C 0.54294 0.06418 0.09509 0.0
C375 C 0.46801 0.98274 0.08761 0.0
C376 C 0.59345 0.09042 0.09991 0.0
C377 C 0.62332 0.06957 0.09602 0.0
C378 C 0.52213 0.01623 0.08702 0.0
C379 C 0.6019 0.02357 0.08605 0.0
C380 C 0.43505 -0.00196 0.08093 0.0
C381 C 0.40136 0.91093 0.10294 0.0
N382 N 0.55218 -0.0024 0.08254 0.0
N383 N 0.45008 0.93911 0.09785 0.0
H384 H 0.29034 0.0217 0.18568 0.0
H385 H 0.27129 0.26301 0.1635 0.0
H386 H 0.24893 0.05405 0.12667 0.0
H387 H 0.26656 0.20534 0.22442 0.0
H388 H 0.27964 0.19529 0.149 0.0
H389 H 0.29797 0.098 0.19935 0.0
C390 C 0.28318 0.04499 0.17557 0.0
C391 C 0.26843 0.03129 0.15509 0.0
C392 C 0.27707 0.19777 0.16555 0.0
C393 C 0.27736 0.11845 0.17055 0.0
C394 C 0.27249 0.23641 0.17382 0.0
C395 C 0.26757 0.23932 0.19515 0.0
C396 C 0.27726 0.16231 0.17876 0.0
C397 C 0.26947 0.204 0.20785 0.0
C398 C 0.28746 0.08842 0.18339 0.0
C399 C 0.2598 0.06292 0.14264 0.0
N400 N 0.274 0.16684 0.19945 0.0
N401 N 0.26427 0.10501 0.15059 0.0
H402 H 0.00528 0.26571 0.49809 0.0
H403 H 0.253 0.26382 0.52727 0.0
H404 H 0.0333 0.23186 0.55943 0.0
H405 H 0.19323 0.23943 0.46558 0.0
H406 H 0.17927 0.26496 0.53979 0.0
H407 H 0.08139 0.2692 0.48632 0.0
C408 C 0.02751 0.25914 0.5091 0.0
C409 C 0.01285 0.24823 0.52975 0.0
C410 C 0.18248 0.25938 0.52353 0.0
C411 C 0.10001 0.2525 0.5164 0.0
C412 C 0.22451 0.25892 0.51638 0.0
C413 C 0.22904 0.25129 0.49539 0.0
C414 C 0.14535 0.25296 0.50951 0.0
C415 C 0.19106 0.24505 0.48192 0.0
C416 C 0.07082 0.26099 0.50235 0.0
C417 C 0.04309 0.24003 0.54334 0.0
N418 N 0.15088 0.2462 0.4892 0.0
N419 N 0.08543 0.24248 0.53643 0.0
H420 H 0.93258 0.26006 0.8297 0.0
H421 H 0.80652 0.98312 0.86284 0.0
H422 H 0.98845 0.16781 0.80682 0.0
H423 H 0.71506 0.04292 0.84294 0.0
H424 H 0.87956 0.05628 0.84893 0.0
H425 H 0.85693 0.18566 0.8413 0.0
C426 C 0.92887 0.22416 0.82718 0.0
C427 C 0.96653 0.21976 0.81734 0.0
C428 C 0.84339 0.05311 0.84758 0.0
C429 C 0.88138 0.13557 0.8308 0.0
C430 C 0.80193 0.01172 0.85555 0.0
C431 C 0.75495 0.00721 0.85392 0.0
C432 C 0.83785 0.09069 0.83852 0.0
C433 C 0.75076 0.04509 0.84433 0.0
C434 C 0.88582 0.18198 0.83366 0.0
C435 C 0.96004 0.17255 0.81429 0.0
N436 N 0.79195 0.08579 0.83718 0.0
N437 N 0.91843 0.13214 0.82127 0.0
H438 H 0.72746 -0.00533 0.18771 0.0
H439 H 0.69324 0.72723 0.16846 0.0
H440 H 0.71451 0.93016 0.12765 0.0
H441 H 0.75482 0.80901 0.22476 0.0
H442 H 0.68458 0.79535 0.15523 0.0
H443 H 0.72136 0.92036 0.20341 0.0
C444 C 0.72273 0.96467 0.17788 0.0
C445 C 0.72199 0.96862 0.15638 0.0
C446 C 0.69982 0.7983 0.17051 0.0
C447 C 0.71479 0.88413 0.17409 0.0
C448 C 0.70475 0.75942 0.17809 0.0
C449 C 0.72534 0.76269 0.19765 0.0
C450 C 0.71531 0.84069 0.1826 0.0
C451 C 0.73927 0.80521 0.20949 0.0
C452 C 0.71951 0.92254 0.18681 0.0
C453 C 0.71587 0.92885 0.14429 0.0
N454 N 0.73417 0.84275 0.20174 0.0
N455 N 0.71261 0.88832 0.15332 0.0
H456 H 0.80285 0.76919 0.45905 0.0
H457 H 0.95564 0.76827 0.55729 0.0
H458 H 0.74206 0.73938 0.52059 0.0
H459 H 0.98878 0.74162 0.49565 0.0
H460 H 0.88224 0.76843 0.54402 0.0
H461 H 0.87679 0.76977 0.47222 0.0
C462 C 0.8051 0.76286 0.47533 0.0
C463 C 0.76626 0.75413 0.48876 0.0
C464 C 0.90558 0.76247 0.53344 0.0
C465 C 0.85064 0.75511 0.50385 0.0
C466 C 0.94754 0.76256 0.54097 0.0
C467 C 0.97826 0.75482 0.52754 0.0
C468 C 0.89472 0.7553 0.51231 0.0
C469 C 0.96594 0.74748 0.50654 0.0
C470 C 0.84716 0.76301 0.48279 0.0
C471 C 0.77104 0.74602 0.50969 0.0
N472 N 0.92518 0.74813 0.49954 0.0
N473 N 0.81262 0.74695 0.51662 0.0
H474 H 0.24628 0.98214 0.82398 0.0
H475 H -0.00323 0.73275 0.85123 0.0
H476 H 0.18803 0.94235 0.88571 0.0
H477 H 0.02819 0.79694 0.79032 0.0
H478 H 0.07278 0.80421 0.86378 0.0
H479 H 0.17226 0.90861 0.81096 0.0
C480 C 0.21806 0.95784 0.83479 0.0
C481 C 0.22308 0.96847 0.85593 0.0
C482 C 0.06297 0.80263 0.84767 0.0
C483 C 0.13884 0.88459 0.84121 0.0
C484 C 0.01968 0.76184 0.84049 0.0
C485 C 0.00607 0.75901 0.81972 0.0
C486 C 0.09316 0.84057 0.83395 0.0
C487 C 0.03716 0.79779 0.80649 0.0
C488 C 0.17581 0.91611 0.82735 0.0
C489 C 0.18541 0.93584 0.86927 0.0
N490 N 0.07943 0.83698 0.81382 0.0
N491 N 0.14492 0.89529 0.86168 0.0
H492 H 0.22073 0.20846 0.40144 0.0
H493 H 0.21101 0.15476 0.28067 0.0
H494 H 0.30146 0.14551 0.37283 0.0
H495 H 0.18045 0.26365 0.30667 0.0
H496 H 0.22542 0.13414 0.31536 0.0
H497 H 0.18738 0.21171 0.36775 0.0
C498 C 0.2309 0.19459 0.38814 0.0
C499 C 0.26443 0.17712 0.38995 0.0
C500 C 0.21499 0.16212 0.31346 0.0
C501 C 0.22614 0.18072 0.35136 0.0
C502 C 0.20646 0.17378 0.29367 0.0
C503 C 0.19498 0.21141 0.29072 0.0
C504 C 0.21145 0.18782 0.33046 0.0
C505 C 0.18964 0.23471 0.3082 0.0
C506 C 0.21197 0.19671 0.36891 0.0
C507 C 0.27612 0.15967 0.37214 0.0
N508 N 0.19818 0.22272 0.32732 0.0
N509 N 0.25719 0.16211 0.35356 0.0
H510 H 0.91578 0.23465 0.63373 0.0
H511 H 0.02799 0.15461 0.72519 0.0
H512 H 0.96143 0.12737 0.62229 0.0
H513 H 0.06137 0.3048 0.716 0.0
H514 H 0.99057 0.13388 0.69054 0.0
H515 H 0.95301 0.2491 0.66791 0.0
C516 C 0.93293 0.2135 0.63849 0.0
C517 C 0.93565 0.17985 0.62504 0.0
C518 C 0.00658 0.17138 0.69616 0.0
C519 C 0.97839 0.19642 0.66427 0.0
C520 C 0.02794 0.18326 0.71585 0.0
C521 C 0.04791 0.23153 0.72352 0.0
C522 C 0.00405 0.20771 0.68442 0.0
C523 C 0.0467 0.26718 0.71077 0.0
C524 C 0.95456 0.22215 0.65795 0.0
C525 C 0.95869 0.15379 0.63214 0.0
N526 N 0.02454 0.25439 0.69202 0.0
N527 N 0.97917 0.16253 0.65134 0.0
H528 H 0.76012 0.98279 0.05922 0.0
H529 H 0.83194 0.01918 0.93972 0.0
H530 H 0.85545 0.12471 0.0312 0.0
H531 H 0.70473 0.88916 0.96428 0.0
H532 H 0.85404 0.05264 0.97456 0.0
H533 H 0.75279 0.94324 0.02594 0.0
C534 C 0.78011 0.00566 0.04615 0.0
C535 C 0.80807 0.05731 0.04799 0.0
C536 C 0.82162 0.01655 0.97234 0.0
C537 C 0.79976 0.01204 0.00983 0.0
C538 C 0.80904 -0.00277 0.95245 0.0
C539 C 0.76599 0.95146 0.94899 0.0
C540 C 0.79121 0.98983 0.98896 0.0
C541 C 0.73798 0.92475 0.96617 0.0
C542 C 0.77571 0.98298 0.02714 0.0
C543 C 0.83315 0.08487 0.03048 0.0
N544 N 0.75086 0.9445 0.98539 0.0
N545 N 0.82819 0.06192 0.01212 0.0
H546 H 0.7601 0.68852 0.30193 0.0
H547 H 0.82789 0.87966 0.393 0.0
H548 H 0.85291 0.84421 0.28936 0.0
H549 H 0.68244 0.75158 0.38521 0.0
H550 H 0.85009 0.8656 0.35819 0.0
H551 H 0.74574 0.70847 0.3366 0.0
C552 C 0.77818 0.72693 0.30653 0.0
C553 C 0.80753 0.76479 0.29262 0.0
C554 C 0.81329 0.841 0.36418 0.0
C555 C 0.7911 0.78768 0.33242 0.0
C556 C 0.80058 0.84894 0.38395 0.0
C557 C 0.75319 0.81685 0.39201 0.0
C558 C 0.77882 0.79992 0.35277 0.0
C559 C 0.71928 0.7775 0.37965 0.0
C560 C 0.76958 0.73822 0.32629 0.0
C561 C 0.82979 0.8139 0.29956 0.0
N562 N 0.73297 0.76982 0.36081 0.0
N563 N 0.82114 0.82404 0.31904 0.0
H564 H 0.07235 0.76043 0.63389 0.0
H565 H 0.94751 0.82806 0.7247 0.0
H566 H 0.01682 0.85987 0.6222 0.0
H567 H 0.92655 0.68213 0.71583 0.0
H568 H 0.98627 0.85145 0.69035 0.0
H569 H 0.03535 0.74429 0.66811 0.0
C570 C 0.05305 0.77952 0.6386 0.0
C571 C 0.04744 0.81136 0.62505 0.0
C572 C 0.97275 0.81429 0.69599 0.0
C573 C 0.00496 0.79285 0.66434 0.0
C574 C 0.95065 0.8009 0.71551 0.0
C575 C 0.93364 0.75303 0.72314 0.0
C576 C 0.979 0.77994 0.68441 0.0
C577 C 0.93878 0.71933 0.7106 0.0
C578 C 0.03159 0.76992 0.6581 0.0
C579 C 0.02179 0.83485 0.63211 0.0
N580 N 0.96153 0.73363 0.69202 0.0
N581 N 0.00143 0.82516 0.65133 0.0
H582 H 0.21494 -0.00413 0.06204 0.0
H583 H 0.151 0.95315 0.94193 0.0
H584 H 0.13926 0.85158 0.03385 0.0
H585 H 0.27184 0.08791 0.96675 0.0
H586 H 0.13019 0.91929 0.9768 0.0
H587 H 0.21949 0.03303 0.0284 0.0
C588 C 0.19854 0.97188 0.04885 0.0
C589 C 0.17708 0.92044 0.05075 0.0
C590 C 0.16087 0.95648 0.9746 0.0
C591 C 0.18216 0.96297 0.01222 0.0
C592 C 0.17265 0.97602 0.95472 0.0
C593 C 0.2136 0.02335 0.95137 0.0
C594 C 0.18978 0.98465 0.9913 0.0
C595 C 0.24025 0.05114 0.96859 0.0
C596 C 0.20142 0.99322 0.02965 0.0
C597 C 0.15652 0.89136 0.03308 0.0
N598 N 0.22803 0.03128 0.98781 0.0
N599 N 0.15975 0.91305 0.01453 0.0
loop_
_geom_bond_atom_site_label_1
_geom_bond_atom_site_label_2
_geom_bond_distance
_geom_bond_site_symmetry_2
_ccdc_geom_bond_type
Zn0 O3 2.031 . S
Zn0 O5 2.049 . S
Zn0 O10 2.067 . S
Zn1 O2 1.962 . S
Zn1 O4 1.986 . S
Zn1 O6 1.996 . S
Zn1 O9 1.943 . S
O2 Zn1 1.962 . S
O2 C7 1.254 . S
O3 Zn0 2.031 . S
O3 C7 1.269 . S
O4 Zn1 1.986 . S
O4 C11 1.262 . S
O5 Zn0 2.049 . S
O5 C13 1.260 . S
O6 Zn1 1.996 . S
O6 C13 1.257 . S
C7 O2 1.254 . S
C7 O3 1.269 . S
C8 O9 1.249 . S
C8 O10 1.270 . S
O9 Zn1 1.943 . S
O9 C8 1.249 . S
O10 Zn0 2.067 . S
O10 C8 1.270 . S
C11 O4 1.262 . S
C11 O12 1.232 . S
O12 C11 1.232 . S
C13 O5 1.260 . S
C13 O6 1.257 . S
Zn14 O17 2.031 . S
Zn14 O19 2.049 . S
Zn14 O24 2.067 1_655 S
Zn15 O16 1.962 . S
Zn15 O18 1.986 . S
Zn15 O20 1.996 . S
Zn15 O23 1.938 1_655 S
O16 Zn15 1.962 . S
O16 C21 1.254 . S
O17 Zn14 2.031 . S
O17 C21 1.269 . S
O18 Zn15 1.986 . S
O18 C25 1.262 . S
O19 Zn14 2.049 . S
O19 C27 1.260 . S
O20 Zn15 1.996 . S
O20 C27 1.257 . S
C21 O16 1.254 . S
C21 O17 1.269 . S
C22 O23 1.250 . S
C22 O24 1.270 . S
O23 Zn15 1.938 1_455 S
O23 C22 1.250 . S
O24 Zn14 2.067 1_455 S
O24 C22 1.270 . S
C25 O18 1.262 . S
C25 O26 1.232 . S
O26 C25 1.232 . S
C27 O19 1.260 . S
C27 O20 1.257 . S
Zn28 O31 2.031 . S
Zn28 O33 2.049 . S
Zn28 O38 2.067 1_565 S
Zn29 O30 1.962 . S
Zn29 O32 1.986 . S
Zn29 O34 1.996 . S
Zn29 O37 1.939 1_565 S
O30 Zn29 1.962 . S
O30 C35 1.254 . S
O31 Zn28 2.031 . S
O31 C35 1.269 . S
O32 Zn29 1.986 . S
O32 C39 1.262 . S
O33 Zn28 2.049 . S
O33 C41 1.260 . S
O34 Zn29 1.996 . S
O34 C41 1.257 . S
C35 O30 1.254 . S
C35 O31 1.269 . S
C36 O37 1.251 . S
C36 O38 1.270 . S
O37 Zn29 1.939 1_545 S
O37 C36 1.251 . S
O38 Zn28 2.067 1_545 S
O38 C36 1.270 . S
C39 O32 1.262 . S
C39 O40 1.232 . S
O40 C39 1.232 . S
C41 O33 1.260 . S
C41 O34 1.257 . S
Zn42 O45 2.031 . S
Zn42 O47 2.049 . S
Zn42 O52 2.067 . S
Zn43 O44 1.962 . S
Zn43 O46 1.986 . S
Zn43 O48 1.996 . S
Zn43 O51 1.943 . S
O44 Zn43 1.962 . S
O44 C49 1.254 . S
O45 Zn42 2.031 . S
O45 C49 1.269 . S
O46 Zn43 1.986 . S
O46 C53 1.262 . S
O47 Zn42 2.049 . S
O47 C55 1.260 . S
O48 Zn43 1.996 . S
O48 C55 1.257 . S
C49 O44 1.254 . S
C49 O45 1.269 . S
C50 O51 1.249 . S
C50 O52 1.270 . S
O51 Zn43 1.943 . S
O51 C50 1.249 . S
O52 Zn42 2.067 . S
O52 C50 1.270 . S
C53 O46 1.262 . S
C53 O54 1.232 . S
O54 C53 1.232 . S
C55 O47 1.260 . S
C55 O48 1.257 . S
Zn56 O59 2.031 . S
Zn56 O61 2.049 . S
Zn56 O66 2.067 1_455 S
Zn57 O58 1.962 . S
Zn57 O60 1.986 . S
Zn57 O62 1.996 . S
Zn57 O65 1.938 1_455 S
O58 Zn57 1.962 . S
O58 C63 1.254 . S
O59 Zn56 2.031 . S
O59 C63 1.269 . S
O60 Zn57 1.986 . S
O60 C67 1.262 . S
O61 Zn56 2.049 . S
O61 C69 1.260 . S
O62 Zn57 1.996 . S
O62 C69 1.257 . S
C63 O58 1.254 . S
C63 O59 1.269 . S
C64 O65 1.250 . S
C64 O66 1.270 . S
O65 Zn57 1.938 1_655 S
O65 C64 1.250 . S
O66 Zn56 2.067 1_655 S
O66 C64 1.270 . S
C67 O60 1.262 . S
C67 O68 1.232 . S
O68 C67 1.232 . S
C69 O61 1.260 . S
C69 O62 1.257 . S
Zn70 O73 2.031 . S
Zn70 O75 2.049 . S
Zn70 O80 2.067 1_545 S
Zn71 O72 1.962 . S
Zn71 O74 1.986 . S
Zn71 O76 1.996 . S
Zn71 O79 1.939 1_545 S
O72 Zn71 1.962 . S
O72 C77 1.254 . S
O73 Zn70 2.031 . S
O73 C77 1.269 . S
O74 Zn71 1.986 . S
O74 C81 1.262 . S
O75 Zn70 2.049 . S
O75 C83 1.260 . S
O76 Zn71 1.996 . S
O76 C83 1.257 . S
C77 O72 1.254 . S
C77 O73 1.269 . S
C78 O79 1.251 . S
C78 O80 1.270 . S
O79 Zn71 1.939 1_565 S
O79 C78 1.251 . S
O80 Zn70 2.067 1_565 S
O80 C78 1.270 . S
C81 O74 1.262 . S
C81 O82 1.232 . S
O82 C81 1.232 . S
C83 O75 1.260 . S
C83 O76 1.257 . S
Zn84 O87 2.031 . S
Zn84 O89 2.049 . S
Zn84 O94 2.067 . S
Zn85 O86 1.962 . S
Zn85 O88 1.986 . S
Zn85 O90 1.996 . S
Zn85 O93 1.943 . S
O86 Zn85 1.962 . S
O86 C91 1.254 . S
O87 Zn84 2.031 . S
O87 C91 1.269 . S
O88 Zn85 1.986 . S
O88 C95 1.262 . S
O89 Zn84 2.049 . S
O89 C97 1.260 . S
O90 Zn85 1.996 . S
O90 C97 1.257 . S
C91 O86 1.254 . S
C91 O87 1.269 . S
C92 O93 1.249 . S
C92 O94 1.270 . S
O93 Zn85 1.943 . S
O93 C92 1.249 . S
O94 Zn84 2.067 . S
O94 C92 1.270 . S
C95 O88 1.262 . S
C95 O96 1.232 . S
O96 C95 1.232 . S
C97 O89 1.260 . S
C97 O90 1.257 . S
Zn98 O101 2.031 . S
Zn98 O103 2.049 . S
Zn98 O108 2.067 1_655 S
Zn99 O100 1.962 . S
Zn99 O102 1.986 . S
Zn99 O104 1.996 . S
Zn99 O107 1.939 1_655 S
O100 Zn99 1.962 . S
O100 C105 1.254 . S
O101 Zn98 2.031 . S
O101 C105 1.269 . S
O102 Zn99 1.986 . S
O102 C109 1.262 . S
O103 Zn98 2.049 . S
O103 C111 1.260 . S
O104 Zn99 1.996 . S
O104 C111 1.257 . S
C105 O100 1.254 . S
C105 O101 1.269 . S
C106 O107 1.251 . S
C106 O108 1.270 . S
O107 Zn99 1.939 1_455 S
O107 C106 1.251 . S
O108 Zn98 2.067 1_455 S
O108 C106 1.270 . S
C109 O102 1.262 . S
C109 O110 1.232 . S
O110 C109 1.232 . S
C111 O103 1.260 . S
C111 O104 1.257 . S
Zn112 O115 2.031 . S
Zn112 O117 2.049 . S
Zn112 O122 2.067 1_565 S
Zn113 O114 1.962 . S
Zn113 O116 1.986 . S
Zn113 O118 1.996 . S
Zn113 O121 1.938 1_565 S
O114 Zn113 1.962 . S
O114 C119 1.254 . S
O115 Zn112 2.031 . S
O115 C119 1.269 . S
O116 Zn113 1.986 . S
O116 C123 1.262 . S
O117 Zn112 2.049 . S
O117 C125 1.260 . S
O118 Zn113 1.996 . S
O118 C125 1.257 . S
C119 O114 1.254 . S
C119 O115 1.269 . S
C120 O121 1.250 . S
C120 O122 1.270 . S
O121 Zn113 1.938 1_545 S
O121 C120 1.250 . S
O122 Zn112 2.067 1_545 S
O122 C120 1.270 . S
C123 O116 1.262 . S
C123 O124 1.232 . S
O124 C123 1.232 . S
C125 O117 1.260 . S
C125 O118 1.257 . S
Zn126 O129 2.031 . S
Zn126 O131 2.049 . S
Zn126 O136 2.067 . S
Zn127 O128 1.962 . S
Zn127 O130 1.986 . S
Zn127 O132 1.996 . S
Zn127 O135 1.943 . S
O128 Zn127 1.962 . S
O128 C133 1.254 . S
O129 Zn126 2.031 . S
O129 C133 1.269 . S
O130 Zn127 1.986 . S
O130 C137 1.262 . S
O131 Zn126 2.049 . S
O131 C139 1.260 . S
O132 Zn127 1.996 . S
O132 C139 1.257 . S
C133 O128 1.254 . S
C133 O129 1.269 . S
C134 O135 1.249 . S
C134 O136 1.270 . S
O135 Zn127 1.943 . S
O135 C134 1.249 . S
O136 Zn126 2.067 . S
O136 C134 1.270 . S
C137 O130 1.262 . S
C137 O138 1.232 . S
O138 C137 1.232 . S
C139 O131 1.260 . S
C139 O132 1.257 . S
Zn140 O143 2.031 . S
Zn140 O145 2.049 . S
Zn140 O150 2.067 1_455 S
Zn141 O142 1.962 . S
Zn141 O144 1.986 . S
Zn141 O146 1.996 . S
Zn141 O149 1.939 1_455 S
O142 Zn141 1.962 . S
O142 C147 1.254 . S
O143 Zn140 2.031 . S
O143 C147 1.269 . S
O144 Zn141 1.986 . S
O144 C151 1.262 . S
O145 Zn140 2.049 . S
O145 C153 1.260 . S
O146 Zn141 1.996 . S
O146 C153 1.257 . S
C147 O142 1.254 . S
C147 O143 1.269 . S
C148 O149 1.251 . S
C148 O150 1.270 . S
O149 Zn141 1.939 1_655 S
O149 C148 1.251 . S
O150 Zn140 2.067 1_655 S
O150 C148 1.270 . S
C151 O144 1.262 . S
C151 O152 1.232 . S
O152 C151 1.232 . S
C153 O145 1.260 . S
C153 O146 1.257 . S
Zn154 O157 2.031 . S
Zn154 O159 2.049 . S
Zn154 O164 2.067 1_545 S
Zn155 O156 1.962 . S
Zn155 O158 1.986 . S
Zn155 O160 1.996 . S
Zn155 O163 1.938 1_545 S
O156 Zn155 1.962 . S
O156 C161 1.254 . S
O157 Zn154 2.031 . S
O157 C161 1.269 . S
O158 Zn155 1.986 . S
O158 C165 1.262 . S
O159 Zn154 2.049 . S
O159 C167 1.260 . S
O160 Zn155 1.996 . S
O160 C167 1.257 . S
C161 O156 1.254 . S
C161 O157 1.269 . S
C162 O163 1.250 . S
C162 O164 1.270 . S
O163 Zn155 1.938 1_565 S
O163 C162 1.250 . S
O164 Zn154 2.067 1_565 S
O164 C162 1.270 . S
C165 O158 1.262 . S
C165 O166 1.232 . S
O166 C165 1.232 . S
C167 O159 1.260 . S
C167 O160 1.257 . S
H168 C174 0.930 . S
H169 C178 0.930 . S
H170 C183 0.929 . S
H171 C181 0.929 . S
H172 C176 0.929 . S
H173 C182 0.929 . S
C174 H168 0.930 . S
C174 C175 1.367 . S
C174 C182 1.378 . S
C175 C174 1.367 . S
C175 C183 1.433 . S
C176 H172 0.929 . S
C176 C178 1.378 . S
C176 C180 1.350 . S
C177 C180 1.463 1_655 S
C177 C182 1.350 . S
C177 N185 1.427 . S
C178 H169 0.930 . S
C178 C176 1.378 . S
C178 C179 1.367 . S
C179 C178 1.367 . S
C179 C181 1.433 . S
C180 C176 1.350 . S
C180 C177 1.463 1_455 S
C180 N184 1.427 . S
C181 H171 0.929 . S
C181 C179 1.433 . S
C181 N184 1.384 . S
C182 H173 0.929 . S
C182 C174 1.378 . S
C182 C177 1.350 . S
C183 H170 0.929 . S
C183 C175 1.433 . S
C183 N185 1.384 . S
N184 C180 1.427 . S
N184 C181 1.384 . S
N185 C177 1.427 . S
N185 C183 1.384 . S
H186 C192 0.930 . S
H187 C196 0.930 . S
H188 C201 0.929 . S
H189 C199 0.929 . S
H190 C194 0.929 . S
H191 C200 0.929 . S
C192 H186 0.930 . S
C192 C193 1.367 . S
C192 C200 1.378 . S
C193 C192 1.367 . S
C193 C201 1.433 . S
C194 H190 0.929 . S
C194 C196 1.378 . S
C194 C198 1.350 . S
C195 C198 1.463 1_545 S
C195 C200 1.350 . S
C195 N203 1.427 . S
C196 H187 0.930 . S
C196 C194 1.378 . S
C196 C197 1.367 . S
C197 C196 1.367 . S
C197 C199 1.433 . S
C198 C194 1.350 . S
C198 C195 1.463 1_565 S
C198 N202 1.427 . S
C199 H189 0.929 . S
C199 C197 1.433 . S
C199 N202 1.384 . S
C200 H191 0.929 . S
C200 C192 1.378 . S
C200 C195 1.350 . S
C201 H188 0.929 . S
C201 C193 1.433 . S
C201 N203 1.384 . S
N202 C198 1.427 . S
N202 C199 1.384 . S
N203 C195 1.427 . S
N203 C201 1.384 . S
H204 C210 0.930 . S
H205 C214 0.930 . S
H206 C219 0.929 . S
H207 C217 0.929 . S
H208 C212 0.929 . S
H209 C218 0.929 . S
C210 H204 0.930 . S
C210 C211 1.367 . S
C210 C218 1.378 . S
C211 C210 1.367 . S
C211 C219 1.433 . S
C212 H208 0.929 . S
C212 C214 1.378 . S
C212 C216 1.350 . S
C213 C216 1.463 . S
C213 C218 1.350 . S
C213 N221 1.427 . S
C214 H205 0.930 . S
C214 C212 1.378 . S
C214 C215 1.367 . S
C215 C214 1.367 . S
C215 C217 1.433 . S
C216 C212 1.350 . S
C216 C213 1.463 . S
C216 N220 1.427 . S
C217 H207 0.929 . S
C217 C215 1.433 . S
C217 N220 1.384 . S
C218 H209 0.929 . S
C218 C210 1.378 . S
C218 C213 1.350 . S
C219 H206 0.929 . S
C219 C211 1.433 . S
C219 N221 1.384 . S
N220 C216 1.427 . S
N220 C217 1.384 . S
N221 C213 1.427 . S
N221 C219 1.384 . S
H222 C228 0.930 . S
H223 C232 0.930 . S
H224 C237 0.929 . S
H225 C235 0.929 . S
H226 C230 0.929 . S
H227 C236 0.929 . S
C228 H222 0.930 . S
C228 C229 1.367 . S
C228 C236 1.378 . S
C229 C228 1.367 . S
C229 C237 1.433 . S
C230 H226 0.929 . S
C230 C232 1.378 . S
C230 C234 1.350 . S
C231 C234 1.463 1_655 S
C231 C236 1.350 . S
C231 N239 1.427 . S
C232 H223 0.930 . S
C232 C230 1.378 . S
C232 C233 1.367 . S
C233 C232 1.367 . S
C233 C235 1.433 . S
C234 C230 1.350 . S
C234 C231 1.463 1_455 S
C234 N238 1.427 . S
C235 H225 0.929 . S
C235 C233 1.433 . S
C235 N238 1.384 . S
C236 H227 0.929 . S
C236 C228 1.378 . S
C236 C231 1.350 . S
C237 H224 0.929 . S
C237 C229 1.433 . S
C237 N239 1.384 . S
N238 C234 1.427 . S
N238 C235 1.384 . S
N239 C231 1.427 . S
N239 C237 1.384 . S
H240 C246 0.930 . S
H241 C250 0.930 . S
H242 C255 0.929 . S
H243 C253 0.929 . S
H244 C248 0.927 . S
H245 C254 0.927 . S
C246 H240 0.930 . S
C246 C247 1.367 . S
C246 C254 1.378 . S
C247 C246 1.367 . S
C247 C255 1.433 . S
C248 H244 0.927 . S
C248 C250 1.378 . S
C248 C252 1.350 . S
C249 C252 1.463 1_545 S
C249 C254 1.350 . S
C249 N257 1.427 . S
C250 H241 0.930 . S
C250 C248 1.378 . S
C250 C251 1.367 . S
C251 C250 1.367 . S
C251 C253 1.433 . S
C252 C248 1.350 . S
C252 C249 1.463 1_565 S
C252 N256 1.427 . S
C253 H243 0.929 . S
C253 C251 1.433 . S
C253 N256 1.384 . S
C254 H245 0.927 . S
C254 C246 1.378 . S
C254 C249 1.350 . S
C255 H242 0.929 . S
C255 C247 1.433 . S
C255 N257 1.384 . S
N256 C252 1.427 . S
N256 C253 1.384 . S
N257 C249 1.427 . S
N257 C255 1.384 . S
H258 C264 0.930 . S
H259 C268 0.930 . S
H260 C273 0.929 . S
H261 C271 0.929 . S
H262 C266 0.929 . S
H263 C272 0.929 . S
C264 H258 0.930 . S
C264 C265 1.367 . S
C264 C272 1.378 . S
C265 C264 1.367 . S
C265 C273 1.433 . S
C266 H262 0.929 . S
C266 C268 1.378 . S
C266 C270 1.350 . S
C267 C270 1.463 . S
C267 C272 1.350 . S
C267 N275 1.427 . S
C268 H259 0.930 . S
C268 C266 1.378 . S
C268 C269 1.367 . S
C269 C268 1.367 . S
C269 C271 1.433 . S
C270 C266 1.350 . S
C270 C267 1.463 . S
C270 N274 1.427 . S
C271 H261 0.929 . S
C271 C269 1.433 . S
C271 N274 1.384 . S
C272 H263 0.929 . S
C272 C264 1.378 . S
C272 C267 1.350 . S
C273 H260 0.929 . S
C273 C265 1.433 . S
C273 N275 1.384 . S
N274 C270 1.427 . S
N274 C271 1.384 . S
N275 C267 1.427 . S
N275 C273 1.384 . S
H276 C282 0.930 . S
H277 C286 0.930 . S
H278 C291 0.929 . S
H279 C289 0.929 . S
H280 C284 0.929 . S
H281 C290 0.929 . S
C282 H276 0.930 . S
C282 C283 1.367 . S
C282 C290 1.378 . S
C283 C282 1.367 . S
C283 C291 1.433 . S
C284 H280 0.929 . S
C284 C286 1.378 . S
C284 C288 1.350 . S
C285 C288 1.463 . S
C285 C290 1.350 . S
C285 N293 1.427 . S
C286 H277 0.930 . S
C286 C284 1.378 . S
C286 C287 1.367 . S
C287 C286 1.367 . S
C287 C289 1.433 . S
C288 C284 1.350 . S
C288 C285 1.463 . S
C288 N292 1.427 . S
C289 H279 0.929 . S
C289 C287 1.433 . S
C289 N292 1.384 . S
C290 H281 0.929 . S
C290 C282 1.378 . S
C290 C285 1.350 . S
C291 H278 0.929 . S
C291 C283 1.433 . S
C291 N293 1.384 . S
N292 C288 1.427 . S
N292 C289 1.384 . S
N293 C285 1.427 . S
N293 C291 1.384 . S
H294 C300 0.951 . S
H295 C304 0.951 . S
H296 C309 0.929 . S
H297 C307 0.929 . S
H298 C302 0.929 . S
H299 C308 0.929 . S
C300 H294 0.951 . S
C300 C301 1.349 1_655 S
C300 C308 1.375 . S
C301 C300 1.349 1_455 S
C301 C309 1.433 . S
C302 H298 0.929 . S
C302 C304 1.375 . S
C302 C306 1.350 1_455 S
C303 C306 1.463 1_455 S
C303 C308 1.350 1_455 S
C303 N311 1.427 . S
C304 H295 0.951 . S
C304 C302 1.375 . S
C304 C305 1.349 1_455 S
C305 C304 1.349 1_655 S
C305 C307 1.433 . S
C306 C302 1.350 1_655 S
C306 C303 1.463 1_655 S
C306 N310 1.427 . S
C307 H297 0.929 . S
C307 C305 1.433 . S
C307 N310 1.384 . S
C308 H299 0.929 . S
C308 C300 1.375 . S
C308 C303 1.350 1_655 S
C309 H296 0.929 . S
C309 C301 1.433 . S
C309 N311 1.384 . S
N310 C306 1.427 . S
N310 C307 1.384 . S
N311 C303 1.427 . S
N311 C309 1.384 . S
H312 C318 0.930 . S
H313 C322 0.930 . S
H314 C327 0.929 . S
H315 C325 0.929 . S
H316 C320 0.929 1_545 S
H317 C326 0.929 1_565 S
C318 H312 0.930 . S
C318 C319 1.367 . S
C318 C326 1.378 . S
C319 C318 1.367 . S
C319 C327 1.433 . S
C320 H316 0.929 1_565 S
C320 C322 1.378 . S
C320 C324 1.350 . S
C321 C324 1.463 1_545 S
C321 C326 1.350 . S
C321 N329 1.427 . S
C322 H313 0.930 . S
C322 C320 1.378 . S
C322 C323 1.367 . S
C323 C322 1.367 . S
C323 C325 1.433 . S
C324 C320 1.350 . S
C324 C321 1.463 1_565 S
C324 N328 1.427 . S
C325 H315 0.929 . S
C325 C323 1.433 . S
C325 N328 1.384 . S
C326 H317 0.929 1_545 S
C326 C318 1.378 . S
C326 C321 1.350 . S
C327 H314 0.929 . S
C327 C319 1.433 . S
C327 N329 1.384 . S
N328 C324 1.427 . S
N328 C325 1.384 . S
N329 C321 1.427 . S
N329 C327 1.384 . S
H330 C336 0.930 . S
H331 C340 0.930 . S
H332 C345 0.929 . S
H333 C343 0.929 . S
H334 C338 0.929 . S
H335 C344 0.929 . S
C336 H330 0.930 . S
C336 C337 1.367 . S
C336 C344 1.378 . S
C337 C336 1.367 . S
C337 C345 1.433 . S
C338 H334 0.929 . S
C338 C340 1.378 . S
C338 C342 1.350 . S
C339 C342 1.463 . S
C339 C344 1.350 . S
C339 N347 1.427 . S
C340 H331 0.930 . S
C340 C338 1.378 . S
C340 C341 1.367 . S
C341 C340 1.367 . S
C341 C343 1.433 . S
C342 C338 1.350 . S
C342 C339 1.463 . S
C342 N346 1.427 . S
C343 H333 0.929 . S
C343 C341 1.433 . S
C343 N346 1.384 . S
C344 H335 0.929 . S
C344 C336 1.378 . S
C344 C339 1.350 . S
C345 H332 0.929 . S
C345 C337 1.433 . S
C345 N347 1.384 . S
N346 C342 1.427 . S
N346 C343 1.384 . S
N347 C339 1.427 . S
N347 C345 1.384 . S
H348 C354 0.930 . S
H349 C358 0.930 . S
H350 C363 0.929 . S
H351 C361 0.929 . S
H352 C356 0.932 . S
H353 C362 0.932 . S
C354 H348 0.930 . S
C354 C355 1.367 . S
C354 C362 1.373 1_655 S
C355 C354 1.367 . S
C355 C363 1.433 . S
C356 H352 0.932 . S
C356 C358 1.373 1_655 S
C356 C360 1.351 1_655 S
C357 C360 1.463 1_655 S
C357 C362 1.351 1_655 S
C357 N365 1.427 . S
C358 H349 0.930 . S
C358 C356 1.373 1_455 S
C358 C359 1.367 . S
C359 C358 1.367 . S
C359 C361 1.433 . S
C360 C356 1.351 1_455 S
C360 C357 1.463 1_455 S
C360 N364 1.427 . S
C361 H351 0.929 . S
C361 C359 1.433 . S
C361 N364 1.384 . S
C362 H353 0.932 . S
C362 C354 1.373 1_455 S
C362 C357 1.351 1_455 S
C363 H350 0.929 . S
C363 C355 1.433 . S
C363 N365 1.384 . S
N364 C360 1.427 . S
N364 C361 1.384 . S
N365 C357 1.427 . S
N365 C363 1.384 . S
H366 C372 0.930 . S
H367 C376 0.930 . S
H368 C381 0.929 . S
H369 C379 0.929 . S
H370 C374 0.929 . S
H371 C380 0.929 . S
C372 H366 0.930 . S
C372 C373 1.367 . S
C372 C380 1.378 . S
C373 C372 1.367 . S
C373 C381 1.433 . S
C374 H370 0.929 . S
C374 C376 1.378 . S
C374 C378 1.350 . S
C375 C378 1.463 1_565 S
C375 C380 1.350 . S
C375 N383 1.427 . S
C376 H367 0.930 . S
C376 C374 1.378 . S
C376 C377 1.367 . S
C377 C376 1.367 . S
C377 C379 1.433 . S
C378 C374 1.350 . S
C378 C375 1.463 1_545 S
C378 N382 1.427 . S
C379 H369 0.929 . S
C379 C377 1.433 . S
C379 N382 1.384 . S
C380 H371 0.929 . S
C380 C372 1.378 . S
C380 C375 1.350 . S
C381 H368 0.929 . S
C381 C373 1.433 . S
C381 N383 1.384 . S
N382 C378 1.427 . S
N382 C379 1.384 . S
N383 C375 1.427 . S
N383 C381 1.384 . S
H384 C390 0.930 1_565 S
H385 C394 0.930 . S
H386 C399 0.929 . S
H387 C397 0.929 . S
H388 C392 0.929 . S
H389 C398 0.929 . S
C390 H384 0.930 1_545 S
C390 C391 1.367 . S
C390 C398 1.378 . S
C391 C390 1.367 . S
C391 C399 1.433 . S
C392 H388 0.929 . S
C392 C394 1.378 . S
C392 C396 1.350 . S
C393 C396 1.463 . S
C393 C398 1.350 . S
C393 N401 1.427 . S
C394 H385 0.930 . S
C394 C392 1.378 . S
C394 C395 1.367 . S
C395 C394 1.367 . S
C395 C397 1.433 . S
C396 C392 1.350 . S
C396 C393 1.463 . S
C396 N400 1.427 . S
C397 H387 0.929 . S
C397 C395 1.433 . S
C397 N400 1.384 . S
C398 H389 0.929 . S
C398 C390 1.378 . S
C398 C393 1.350 . S
C399 H386 0.929 . S
C399 C391 1.433 . S
C399 N401 1.384 . S
N400 C396 1.427 . S
N400 C397 1.384 . S
N401 C393 1.427 . S
N401 C399 1.384 . S
H402 C408 0.930 1_655 S
H403 C412 0.930 . S
H404 C417 0.929 . S
H405 C415 0.929 . S
H406 C410 0.929 . S
H407 C416 0.929 . S
C408 H402 0.930 1_455 S
C408 C409 1.367 . S
C408 C416 1.378 . S
C409 C408 1.367 . S
C409 C417 1.433 . S
C410 H406 0.929 . S
C410 C412 1.378 . S
C410 C414 1.350 . S
C411 C414 1.463 . S
C411 C416 1.350 . S
C411 N419 1.427 . S
C412 H403 0.930 . S
C412 C410 1.378 . S
C412 C413 1.367 . S
C413 C412 1.367 . S
C413 C415 1.433 . S
C414 C410 1.350 . S
C414 C411 1.463 . S
C414 N418 1.427 . S
C415 H405 0.929 . S
C415 C413 1.433 . S
C415 N418 1.384 . S
C416 H407 0.929 . S
C416 C408 1.378 . S
C416 C411 1.350 . S
C417 H404 0.929 . S
C417 C409 1.433 . S
C417 N419 1.384 . S
N418 C414 1.427 . S
N418 C415 1.384 . S
N419 C411 1.427 . S
N419 C417 1.384 . S
H420 C426 0.930 . S
H421 C430 0.930 1_565 S
H422 C435 0.929 . S
H423 C433 0.929 . S
H424 C428 0.929 . S
H425 C434 0.929 . S
C426 H420 0.930 . S
C426 C427 1.367 . S
C426 C434 1.378 . S
C427 C426 1.367 . S
C427 C435 1.433 . S
C428 H424 0.929 . S
C428 C430 1.378 . S
C428 C432 1.350 . S
C429 C432 1.463 . S
C429 C434 1.350 . S
C429 N437 1.427 . S
C430 H421 0.930 1_545 S
C430 C428 1.378 . S
C430 C431 1.367 . S
C431 C430 1.367 . S
C431 C433 1.433 . S
C432 C428 1.350 . S
C432 C429 1.463 . S
C432 N436 1.427 . S
C433 H423 0.929 . S
C433 C431 1.433 . S
C433 N436 1.384 . S
C434 H425 0.929 . S
C434 C426 1.378 . S
C434 C429 1.350 . S
C435 H422 0.929 . S
C435 C427 1.433 . S
C435 N437 1.384 . S
N436 C432 1.427 . S
N436 C433 1.384 . S
N437 C429 1.427 . S
N437 C435 1.384 . S
H438 C444 0.930 . S
H439 C448 0.930 . S
H440 C453 0.929 . S
H441 C451 0.929 . S
H442 C446 0.929 . S
H443 C452 0.929 . S
C444 H438 0.930 . S
C444 C445 1.367 . S
C444 C452 1.378 . S
C445 C444 1.367 . S
C445 C453 1.433 . S
C446 H442 0.929 . S
C446 C448 1.378 . S
C446 C450 1.350 . S
C447 C450 1.463 . S
C447 C452 1.350 . S
C447 N455 1.427 . S
C448 H439 0.930 . S
C448 C446 1.378 . S
C448 C449 1.367 . S
C449 C448 1.367 . S
C449 C451 1.433 . S
C450 C446 1.350 . S
C450 C447 1.463 . S
C450 N454 1.427 . S
C451 H441 0.929 . S
C451 C449 1.433 . S
C451 N454 1.384 . S
C452 H443 0.929 . S
C452 C444 1.378 . S
C452 C447 1.350 . S
C453 H440 0.929 . S
C453 C445 1.433 . S
C453 N455 1.384 . S
N454 C450 1.427 . S
N454 C451 1.384 . S
N455 C447 1.427 . S
N455 C453 1.384 . S
H456 C462 0.930 . S
H457 C466 0.930 . S
H458 C471 0.929 . S
H459 C469 0.929 1_455 S
H460 C464 0.929 . S
H461 C470 0.929 . S
C462 H456 0.930 . S
C462 C463 1.367 . S
C462 C470 1.378 . S
C463 C462 1.367 . S
C463 C471 1.433 . S
C464 H460 0.929 . S
C464 C466 1.378 . S
C464 C468 1.350 . S
C465 C468 1.463 . S
C465 C470 1.350 . S
C465 N473 1.427 . S
C466 H457 0.930 . S
C466 C464 1.378 . S
C466 C467 1.367 . S
C467 C466 1.367 . S
C467 C469 1.433 . S
C468 C464 1.350 . S
C468 C465 1.463 . S
C468 N472 1.427 . S
C469 H459 0.929 1_655 S
C469 C467 1.433 . S
C469 N472 1.384 . S
C470 H461 0.929 . S
C470 C462 1.378 . S
C470 C465 1.350 . S
C471 H458 0.929 . S
C471 C463 1.433 . S
C471 N473 1.384 . S
N472 C468 1.427 . S
N472 C469 1.384 . S
N473 C465 1.427 . S
N473 C471 1.384 . S
H474 C480 0.930 . S
H475 C484 0.930 1_655 S
H476 C489 0.929 . S
H477 C487 0.929 . S
H478 C482 0.929 . S
H479 C488 0.929 . S
C480 H474 0.930 . S
C480 C481 1.367 . S
C480 C488 1.378 . S
C481 C480 1.367 . S
C481 C489 1.433 . S
C482 H478 0.929 . S
C482 C484 1.378 . S
C482 C486 1.350 . S
C483 C486 1.463 . S
C483 C488 1.350 . S
C483 N491 1.427 . S
C484 H475 0.930 1_455 S
C484 C482 1.378 . S
C484 C485 1.367 . S
C485 C484 1.367 . S
C485 C487 1.433 . S
C486 C482 1.350 . S
C486 C483 1.463 . S
C486 N490 1.427 . S
C487 H477 0.929 . S
C487 C485 1.433 . S
C487 N490 1.384 . S
C488 H479 0.929 . S
C488 C480 1.378 . S
C488 C483 1.350 . S
C489 H476 0.929 . S
C489 C481 1.433 . S
C489 N491 1.384 . S
N490 C486 1.427 . S
N490 C487 1.384 . S
N491 C483 1.427 . S
N491 C489 1.384 . S
H492 C498 0.930 . S
H493 C502 0.930 . S
H494 C507 0.929 . S
H495 C505 0.929 . S
H496 C500 0.929 . S
H497 C506 0.929 . S
C498 H492 0.930 . S
C498 C499 1.367 . S
C498 C506 1.378 . S
C499 C498 1.367 . S
C499 C507 1.433 . S
C500 H496 0.929 . S
C500 C502 1.378 . S
C500 C504 1.350 . S
C501 C504 1.463 . S
C501 C506 1.350 . S
C501 N509 1.427 . S
C502 H493 0.930 . S
C502 C500 1.378 . S
C502 C503 1.367 . S
C503 C502 1.367 . S
C503 C505 1.433 . S
C504 C500 1.350 . S
C504 C501 1.463 . S
C504 N508 1.427 . S
C505 H495 0.929 . S
C505 C503 1.433 . S
C505 N508 1.384 . S
C506 H497 0.929 . S
C506 C498 1.378 . S
C506 C501 1.350 . S
C507 H494 0.929 . S
C507 C499 1.433 . S
C507 N509 1.384 . S
N508 C504 1.427 . S
N508 C505 1.384 . S
N509 C501 1.427 . S
N509 C507 1.384 . S
H510 C516 0.930 . S
H511 C520 0.930 . S
H512 C525 0.929 . S
H513 C523 0.929 . S
H514 C518 0.930 1_655 S
H515 C524 0.930 1_455 S
C516 H510 0.930 . S
C516 C517 1.367 . S
C516 C524 1.378 . S
C517 C516 1.367 . S
C517 C525 1.433 . S
C518 H514 0.930 1_455 S
C518 C520 1.378 . S
C518 C522 1.350 . S
C519 C522 1.463 1_655 S
C519 C524 1.350 . S
C519 N527 1.427 . S
C520 H511 0.930 . S
C520 C518 1.378 . S
C520 C521 1.367 . S
C521 C520 1.367 . S
C521 C523 1.433 . S
C522 C518 1.350 . S
C522 C519 1.463 1_455 S
C522 N526 1.427 . S
C523 H513 0.929 . S
C523 C521 1.433 . S
C523 N526 1.384 . S
C524 H515 0.930 1_655 S
C524 C516 1.378 . S
C524 C519 1.350 . S
C525 H512 0.929 . S
C525 C517 1.433 . S
C525 N527 1.384 . S
N526 C522 1.427 . S
N526 C523 1.384 . S
N527 C519 1.427 . S
N527 C525 1.384 . S
H528 C534 0.930 . S
H529 C538 0.930 . S
H530 C543 0.929 . S
H531 C541 0.929 . S
H532 C536 0.929 . S
H533 C542 0.929 . S
C534 H528 0.930 . S
C534 C535 1.367 . S
C534 C542 1.378 1_545 S
C535 C534 1.367 . S
C535 C543 1.433 . S
C536 H532 0.929 . S
C536 C538 1.378 1_545 S
C536 C540 1.350 1_545 S
C537 C540 1.463 1_544 S
C537 C542 1.350 1_545 S
C537 N545 1.427 . S
C538 H529 0.930 . S
C538 C536 1.378 1_565 S
C538 C539 1.367 . S
C539 C538 1.367 . S
C539 C541 1.433 . S
C540 C536 1.350 1_565 S
C540 C537 1.463 1_566 S
C540 N544 1.427 . S
C541 H531 0.929 . S
C541 C539 1.433 . S
C541 N544 1.384 . S
C542 H533 0.929 . S
C542 C534 1.378 1_565 S
C542 C537 1.350 1_565 S
C543 H530 0.929 . S
C543 C535 1.433 . S
C543 N545 1.384 . S
N544 C540 1.427 . S
N544 C541 1.384 . S
N545 C537 1.427 . S
N545 C543 1.384 . S
H546 C552 0.930 . S
H547 C556 0.930 . S
H548 C561 0.929 . S
H549 C559 0.929 . S
H550 C554 0.929 . S
H551 C560 0.929 . S
C552 H546 0.930 . S
C552 C553 1.367 . S
C552 C560 1.378 . S
C553 C552 1.367 . S
C553 C561 1.433 . S
C554 H550 0.929 . S
C554 C556 1.378 . S
C554 C558 1.350 . S
C555 C558 1.463 . S
C555 C560 1.350 . S
C555 N563 1.427 . S
C556 H547 0.930 . S
C556 C554 1.378 . S
C556 C557 1.367 . S
C557 C556 1.367 . S
C557 C559 1.433 . S
C558 C554 1.350 . S
C558 C555 1.463 . S
C558 N562 1.427 . S
C559 H549 0.929 . S
C559 C557 1.433 . S
C559 N562 1.384 . S
C560 H551 0.929 . S
C560 C552 1.378 . S
C560 C555 1.350 . S
C561 H548 0.929 . S
C561 C553 1.433 . S
C561 N563 1.384 . S
N562 C558 1.427 . S
N562 C559 1.384 . S
N563 C555 1.427 . S
N563 C561 1.384 . S
H564 C570 0.930 . S
H565 C574 0.930 . S
H566 C579 0.929 . S
H567 C577 0.929 . S
H568 C572 0.929 . S
H569 C578 0.929 . S
C570 H564 0.930 . S
C570 C571 1.367 . S
C570 C578 1.378 . S
C571 C570 1.367 . S
C571 C579 1.433 . S
C572 H568 0.929 . S
C572 C574 1.378 . S
C572 C576 1.350 . S
C573 C576 1.463 1_455 S
C573 C578 1.350 . S
C573 N581 1.427 . S
C574 H565 0.930 . S
C574 C572 1.378 . S
C574 C575 1.367 . S
C575 C574 1.367 . S
C575 C577 1.433 . S
C576 C572 1.350 . S
C576 C573 1.463 1_655 S
C576 N580 1.427 . S
C577 H567 0.929 . S
C577 C575 1.433 . S
C577 N580 1.384 . S
C578 H569 0.929 . S
C578 C570 1.378 . S
C578 C573 1.350 . S
C579 H566 0.929 . S
C579 C571 1.433 . S
C579 N581 1.384 . S
N580 C576 1.427 . S
N580 C577 1.384 . S
N581 C573 1.427 . S
N581 C579 1.384 . S
H582 C588 0.930 . S
H583 C592 0.930 . S
H584 C597 0.929 . S
H585 C595 0.929 . S
H586 C590 0.929 . S
H587 C596 0.929 . S
C588 H582 0.930 . S
C588 C589 1.367 1_545 S
C588 C596 1.378 . S
C589 C588 1.367 1_565 S
C589 C597 1.433 . S
C590 H586 0.929 . S
C590 C592 1.378 . S
C590 C594 1.350 1_565 S
C591 C594 1.463 1_564 S
C591 C596 1.350 1_565 S
C591 N599 1.427 . S
C592 H583 0.930 . S
C592 C590 1.378 . S
C592 C593 1.367 1_565 S
C593 C592 1.367 1_545 S
C593 C595 1.433 . S
C594 C590 1.350 1_545 S
C594 C591 1.463 1_546 S
C594 N598 1.427 . S
C595 H585 0.929 . S
C595 C593 1.433 . S
C595 N598 1.384 . S
C596 H587 0.929 . S
C596 C588 1.378 . S
C596 C591 1.350 1_545 S
C597 H584 0.929 . S
C597 C589 1.433 . S
C597 N599 1.384 . S
N598 C594 1.427 . S
N598 C595 1.384 . S
N599 C591 1.427 . S
N599 C597 1.384 . S
C175 C161 1.412 . S
C179 C7 1.406 . S
C193 C21 1.407 . S
C197 C91 1.408 . S
C211 C35 1.406 . S
C215 C105 1.411 . S
C229 C49 1.407 . S
C233 C119 1.408 . S
C247 C133 1.416 . S
C251 C63 1.413 . S
C265 C77 1.406 . S
C269 C147 1.409 . S
C283 C55 1.226 . S
C287 C13 1.241 . S
C301 C69 1.227 . S
C305 C27 1.230 . S
C319 C83 1.223 . S
C323 C41 1.238 . S
C337 C97 1.240 . S
C341 C139 1.224 . S
C355 C111 1.237 . S
C359 C153 1.223 . S
C373 C125 1.241 . S
C377 C167 1.227 . S
C391 C120 0.527 . S
C395 C8 0.522 . S
C409 C22 0.539 . S
C413 C134 0.523 . S
C427 C148 0.522 . S
C431 C36 0.536 . S
C445 C162 0.522 . S
C449 C50 0.527 . S
C463 C92 0.547 . S
C467 C64 0.544 . S
C481 C78 0.521 . S
C485 C106 0.534 . S
C499 C137 1.560 . S
C503 C11 1.560 . S
C517 C25 1.561 . S
C521 C151 1.561 . S
C535 C165 1.561 . S
C539 C39 1.560 . S
C553 C53 1.562 . S
C557 C95 1.561 . S
C571 C67 1.561 . S
C575 C109 1.561 . S
C589 C123 1.561 . S
C593 C81 1.560 . S
