# Generated by pormake.
# Topology svb, (7)-cn, num edge types: 1
# Building blocks:
#     Node 0, Type 0, BuildingBlock: NUHQUE_clean_sbu_2, # of connection points: 7
#     Node 1, Type 0, BuildingBlock: NUHQUE_clean_sbu_2, # of connection points: 7
#     Node 2, Type 0, BuildingBlock: NUHQUE_clean_sbu_2, # of connection points: 7
#     Node 3, Type 0, BuildingBlock: NUHQUE_clean_sbu_2, # of connection points: 7
#     Node 4, Type 0, BuildingBlock: NUHQUE_clean_sbu_2, # of connection points: 7
#     Node 5, Type 0, BuildingBlock: NUHQUE_clean_sbu_2, # of connection points: 7
#     Node 6, Type 0, BuildingBlock: NUHQUE_clean_sbu_2, # of connection points: 7
#     Node 7, Type 0, BuildingBlock: NUHQUE_clean_sbu_2, # of connection points: 7
#     Node 8, Type 0, BuildingBlock: NUHQUE_clean_sbu_2, # of connection points: 7
#     Node 9, Type 0, BuildingBlock: NUHQUE_clean_sbu_2, # of connection points: 7
#     Node 10, Type 0, BuildingBlock: NUHQUE_clean_sbu_2, # of connection points: 7
#     Node 11, Type 0, BuildingBlock: NUHQUE_clean_sbu_2, # of connection points: 7
#     Node 12, Type 0, BuildingBlock: NUHQUE_clean_sbu_2, # of connection points: 7
#     Node 13, Type 0, BuildingBlock: NUHQUE_clean_sbu_2, # of connection points: 7
#     Node 14, Type 0, BuildingBlock: NUHQUE_clean_sbu_2, # of connection points: 7
#     Node 15, Type 0, BuildingBlock: NUHQUE_clean_sbu_2, # of connection points: 7
#     Edge 16, Type (0, 0), BuildingBlock: MIFKUJ_clean_linker_0, # of connection points: 2
#     Edge 17, Type (0, 0), BuildingBlock: MIFKUJ_clean_linker_0, # of connection points: 2
#     Edge 18, Type (0, 0), BuildingBlock: MIFKUJ_clean_linker_0, # of connection points: 2
#     Edge 19, Type (0, 0), BuildingBlock: MIFKUJ_clean_linker_0, # of connection points: 2
#     Edge 20, Type (0, 0), BuildingBlock: MIFKUJ_clean_linker_0, # of connection points: 2
#     Edge 21, Type (0, 0), BuildingBlock: MIFKUJ_clean_linker_0, # of connection points: 2
#     Edge 22, Type (0, 0), BuildingBlock: MIFKUJ_clean_linker_0, # of connection points: 2
#     Edge 23, Type (0, 0), BuildingBlock: MIFKUJ_clean_linker_0, # of connection points: 2
#     Edge 24, Type (0, 0), BuildingBlock: MIFKUJ_clean_linker_0, # of connection points: 2
#     Edge 25, Type (0, 0), BuildingBlock: MIFKUJ_clean_linker_0, # of connection points: 2
#     Edge 26, Type (0, 0), BuildingBlock: MIFKUJ_clean_linker_0, # of connection points: 2
#     Edge 27, Type (0, 0), BuildingBlock: MIFKUJ_clean_linker_0, # of connection points: 2
#     Edge 28, Type (0, 0), BuildingBlock: MIFKUJ_clean_linker_0, # of connection points: 2
#     Edge 29, Type (0, 0), BuildingBlock: MIFKUJ_clean_linker_0, # of connection points: 2
#     Edge 30, Type (0, 0), BuildingBlock: MIFKUJ_clean_linker_0, # of connection points: 2
#     Edge 31, Type (0, 0), BuildingBlock: MIFKUJ_clean_linker_0, # of connection points: 2
#     Edge 32, Type (0, 0), BuildingBlock: MIFKUJ_clean_linker_0, # of connection points: 2
#     Edge 33, Type (0, 0), BuildingBlock: MIFKUJ_clean_linker_0, # of connection points: 2
#     Edge 34, Type (0, 0), BuildingBlock: MIFKUJ_clean_linker_0, # of connection points: 2
#     Edge 35, Type (0, 0), BuildingBlock: MIFKUJ_clean_linker_0, # of connection points: 2
#     Edge 36, Type (0, 0), BuildingBlock: MIFKUJ_clean_linker_0, # of connection points: 2
#     Edge 37, Type (0, 0), BuildingBlock: MIFKUJ_clean_linker_0, # of connection points: 2
#     Edge 38, Type (0, 0), BuildingBlock: MIFKUJ_clean_linker_0, # of connection points: 2
#     Edge 39, Type (0, 0), BuildingBlock: MIFKUJ_clean_linker_0, # of connection points: 2
#     Edge 40, Type (0, 0), BuildingBlock: MIFKUJ_clean_linker_0, # of connection points: 2
#     Edge 41, Type (0, 0), BuildingBlock: MIFKUJ_clean_linker_0, # of connection points: 2
#     Edge 42, Type (0, 0), BuildingBlock: MIFKUJ_clean_linker_0, # of connection points: 2
#     Edge 43, Type (0, 0), BuildingBlock: MIFKUJ_clean_linker_0, # of connection points: 2
#     Edge 44, Type (0, 0), BuildingBlock: MIFKUJ_clean_linker_0, # of connection points: 2
#     Edge 45, Type (0, 0), BuildingBlock: MIFKUJ_clean_linker_0, # of connection points: 2
#     Edge 46, Type (0, 0), BuildingBlock: MIFKUJ_clean_linker_0, # of connection points: 2
#     Edge 47, Type (0, 0), BuildingBlock: MIFKUJ_clean_linker_0, # of connection points: 2
#     Edge 48, Type (0, 0), BuildingBlock: MIFKUJ_clean_linker_0, # of connection points: 2
#     Edge 49, Type (0, 0), BuildingBlock: MIFKUJ_clean_linker_0, # of connection points: 2
#     Edge 50, Type (0, 0), BuildingBlock: MIFKUJ_clean_linker_0, # of connection points: 2
#     Edge 51, Type (0, 0), BuildingBlock: MIFKUJ_clean_linker_0, # of connection points: 2
#     Edge 52, Type (0, 0), BuildingBlock: MIFKUJ_clean_linker_0, # of connection points: 2
#     Edge 53, Type (0, 0), BuildingBlock: MIFKUJ_clean_linker_0, # of connection points: 2
#     Edge 54, Type (0, 0), BuildingBlock: MIFKUJ_clean_linker_0, # of connection points: 2
#     Edge 55, Type (0, 0), BuildingBlock: MIFKUJ_clean_linker_0, # of connection points: 2
#     Edge 56, Type (0, 0), BuildingBlock: MIFKUJ_clean_linker_0, # of connection points: 2
#     Edge 57, Type (0, 0), BuildingBlock: MIFKUJ_clean_linker_0, # of connection points: 2
#     Edge 58, Type (0, 0), BuildingBlock: MIFKUJ_clean_linker_0, # of connection points: 2
#     Edge 59, Type (0, 0), BuildingBlock: MIFKUJ_clean_linker_0, # of connection points: 2
#     Edge 60, Type (0, 0), BuildingBlock: MIFKUJ_clean_linker_0, # of connection points: 2
#     Edge 61, Type (0, 0), BuildingBlock: MIFKUJ_clean_linker_0, # of connection points: 2
#     Edge 62, Type (0, 0), BuildingBlock: MIFKUJ_clean_linker_0, # of connection points: 2
#     Edge 63, Type (0, 0), BuildingBlock: MIFKUJ_clean_linker_0, # of connection points: 2
#     Edge 64, Type (0, 0), BuildingBlock: MIFKUJ_clean_linker_0, # of connection points: 2
#     Edge 65, Type (0, 0), BuildingBlock: MIFKUJ_clean_linker_0, # of connection points: 2
#     Edge 66, Type (0, 0), BuildingBlock: MIFKUJ_clean_linker_0, # of connection points: 2
#     Edge 67, Type (0, 0), BuildingBlock: MIFKUJ_clean_linker_0, # of connection points: 2
#     Edge 68, Type (0, 0), BuildingBlock: MIFKUJ_clean_linker_0, # of connection points: 2
#     Edge 69, Type (0, 0), BuildingBlock: MIFKUJ_clean_linker_0, # of connection points: 2
#     Edge 70, Type (0, 0), BuildingBlock: MIFKUJ_clean_linker_0, # of connection points: 2
#     Edge 71, Type (0, 0), BuildingBlock: MIFKUJ_clean_linker_0, # of connection points: 2
# Relax obj value: 0.352
# Max RMSD: 0.314
# Mean RMSD: 0.297
data_MOF--net-svb--node1-NUHQUE_clean_sbu_2--edge1-MIFKUJ_clean_linker_0
_symmetry_space_group_name_H-M    P1
_symmetry_Int_Tables_number       1
_symmetry_cell_setting            triclinic
loop_
_symmetry_equiv_pos_as_xyz
'x, y, z'
_cell_length_a     74.16561
_cell_length_b     73.025576
_cell_length_c     32.729435
_cell_angle_alpha  95.649317
_cell_angle_beta   93.160357
_cell_angle_gamma 89.988451
loop_
_atom_site_label
_atom_site_type_symbol
_atom_site_fract_x
_atom_site_fract_y
_atom_site_fract_z
_atom_type_partial_charge
O0 O 0.05389 0.3469 0.20797 0.0
Tb1 Tb 0.07549 0.34283 0.16477 0.0
Eu2 Eu 0.11381 0.34621 0.10476 0.0
C3 C 0.0578 0.34738 0.24791 0.0
O4 O 0.07478 0.3459 0.26069 0.0
C5 C 0.1123 0.33606 0.19688 0.0
O6 O 0.11965 0.32664 0.04882 0.0
C7 C 0.13671 0.37337 0.1121 0.0
C8 C 0.12068 0.30867 0.04962 0.0
O9 O 0.11947 0.30165 0.08482 0.0
C10 C 0.07075 0.35735 0.07791 0.0
C11 C 0.15018 0.38878 0.11579 0.0
C12 C 0.14663 0.40555 0.13902 0.0
C13 C 0.15933 0.42005 0.14324 0.0
C14 C 0.17587 0.41751 0.12436 0.0
C15 C 0.17992 0.4009 0.10087 0.0
C16 C 0.16683 0.38664 0.09677 0.0
O17 O 0.10061 0.34953 0.1993 0.0
O18 O 0.11692 0.32952 0.15997 0.0
O19 O 0.07094 0.31336 0.1672 0.0
O20 O 0.08373 0.32242 0.11633 0.0
C21 C 0.07841 0.30813 0.13297 0.0
O22 O 0.08734 0.35207 0.06891 0.0
O23 O 0.06506 0.35869 0.11577 0.0
O24 O 0.14021 0.35712 0.09319 0.0
O25 O 0.1205 0.37494 0.12683 0.0
H26 H 0.13391 0.40741 0.15365 0.0
H27 H 0.18583 0.42846 0.1292 0.0
H28 H 0.1695 0.37388 0.07841 0.0
O29 O 0.91561 0.8138 0.49823 0.0
Tb30 Tb 0.92449 0.83426 0.45943 0.0
Eu31 Eu 0.92664 0.87102 0.39756 0.0
C32 C 0.90863 0.81859 0.53381 0.0
O33 O 0.90493 0.83597 0.544 0.0
C34 C 0.93748 0.87101 0.49126 0.0
O35 O 0.94437 0.87862 0.34649 0.0
C36 C 0.89781 0.89078 0.41039 0.0
C37 C 0.95581 0.86609 0.33148 0.0
O38 O 0.95691 0.85044 0.34808 0.0
C39 C 0.91253 0.82871 0.36509 0.0
C40 C 0.88032 0.89937 0.39792 0.0
C41 C 0.86428 0.89549 0.41716 0.0
C42 C 0.84829 0.9057 0.41068 0.0
C43 C 0.84867 0.91968 0.38387 0.0
C44 C 0.86458 0.92416 0.36542 0.0
C45 C 0.8802 0.91371 0.37217 0.0
O46 O 0.92228 0.86166 0.49 0.0
O47 O 0.94452 0.87304 0.45595 0.0
O48 O 0.95041 0.82798 0.48869 0.0
O49 O 0.94947 0.83427 0.42649 0.0
C50 C 0.95994 0.83051 0.45774 0.0
O51 O 0.92061 0.84418 0.35845 0.0
O52 O 0.90928 0.82436 0.40232 0.0
O53 O 0.91292 0.89722 0.39768 0.0
O54 O 0.89853 0.87314 0.41577 0.0
H55 H 0.86456 0.88516 0.43877 0.0
H56 H 0.8365 0.92734 0.37749 0.0
H57 H 0.89262 0.91748 0.35913 0.0
O58 O 0.40904 0.69623 0.53237 0.0
Tb59 Tb 0.41839 0.67844 0.57878 0.0
Eu60 Eu 0.42482 0.64186 0.63096 0.0
C61 C 0.41899 0.69735 0.50058 0.0
O62 O 0.43384 0.68757 0.4984 0.0
C63 C 0.43154 0.64261 0.53637 0.0
O64 O 0.44623 0.63479 0.67873 0.0
C65 C 0.39746 0.61946 0.62245 0.0
C66 C 0.44211 0.63429 0.71723 0.0
O67 O 0.42517 0.63648 0.72643 0.0
C68 C 0.40647 0.68017 0.66668 0.0
C69 C 0.38139 0.61247 0.64111 0.0
C70 C 0.36401 0.61721 0.62614 0.0
C71 C 0.34856 0.60872 0.63893 0.0
C72 C 0.35067 0.59595 0.66815 0.0
C73 C 0.36785 0.59016 0.68156 0.0
C74 C 0.38317 0.59877 0.66851 0.0
O75 O 0.41768 0.6538 0.53597 0.0
O76 O 0.43946 0.63917 0.57178 0.0
O77 O 0.44105 0.69767 0.5839 0.0
O78 O 0.44444 0.67212 0.60906 0.0
C79 C 0.45238 0.68732 0.60259 0.0
O80 O 0.41859 0.66739 0.67299 0.0
O81 O 0.40077 0.68328 0.62921 0.0
O82 O 0.41354 0.61499 0.63742 0.0
O83 O 0.39679 0.63614 0.61032 0.0
H84 H 0.36257 0.62666 0.60263 0.0
H85 H 0.33878 0.58981 0.67909 0.0
H86 H 0.39648 0.59401 0.67769 0.0
O87 O 0.55781 0.15471 0.81721 0.0
Tb88 Tb 0.57751 0.16476 0.86633 0.0
Eu89 Eu 0.61446 0.17003 0.93457 0.0
C90 C 0.56253 0.14848 0.78019 0.0
O91 O 0.57974 0.14681 0.7732 0.0
C92 C 0.61202 0.18129 0.84224 0.0
O93 O 0.62158 0.1904 0.99125 0.0
C94 C 0.63559 0.14189 0.92342 0.0
C95 C 0.60878 0.20111 1.00717 0.0
O96 O 0.59237 0.19949 0.99006 0.0
C97 C 0.57567 0.15169 0.95308 0.0
C98 C 0.64808 0.12591 0.91758 0.0
C99 C 0.64319 0.10973 0.89175 0.0
C100 C 0.6559 0.09552 0.88405 0.0
C101 C 0.67337 0.09756 0.90282 0.0
C102 C 0.67831 0.11326 0.92926 0.0
C103 C 0.66561 0.1273 0.93655 0.0
O104 O 0.60216 0.16625 0.83413 0.0
O105 O 0.61588 0.1876 0.88096 0.0
O106 O 0.561 0.18932 0.86298 0.0
O107 O 0.58284 0.18962 0.90784 0.0
C108 C 0.56997 0.19925 0.89241 0.0
O109 O 0.58955 0.16235 0.96625 0.0
O110 O 0.57166 0.14708 0.91364 0.0
O111 O 0.64039 0.1571 0.94659 0.0
O112 O 0.61902 0.14189 0.90664 0.0
H113 H 0.62978 0.10838 0.87684 0.0
H114 H 0.6831 0.08662 0.8974 0.0
H115 H 0.66962 0.13959 0.95625 0.0
O116 O 0.05298 0.65679 0.32917 0.0
Tb117 Tb 0.07337 0.66636 0.37705 0.0
Eu118 Eu 0.11053 0.67 0.44025 0.0
C119 C 0.05773 0.64833 0.29401 0.0
O120 O 0.07483 0.64444 0.28938 0.0
C121 C 0.10775 0.6813 0.3494 0.0
O122 O 0.11952 0.68859 0.49771 0.0
C123 C 0.13038 0.64112 0.4271 0.0
C124 C 0.11749 0.70659 0.49914 0.0
O125 O 0.11202 0.71372 0.46531 0.0
C126 C 0.07178 0.65331 0.46293 0.0
C127 C 0.14243 0.62488 0.42067 0.0
C128 C 0.13722 0.60894 0.39457 0.0
C129 C 0.1492 0.59398 0.38912 0.0
C130 C 0.16642 0.59517 0.40929 0.0
C131 C 0.1719 0.61097 0.43489 0.0
C132 C 0.15974 0.62562 0.44061 0.0
O133 O 0.09749 0.66653 0.34289 0.0
O134 O 0.11206 0.6879 0.38757 0.0
O135 O 0.05944 0.69256 0.37351 0.0
O136 O 0.07883 0.68986 0.42276 0.0
C137 C 0.06762 0.70096 0.40622 0.0
O138 O 0.08579 0.66406 0.47468 0.0
O139 O 0.0677 0.64827 0.42371 0.0
O140 O 0.13609 0.65629 0.44916 0.0
O141 O 0.11349 0.64149 0.41234 0.0
H142 H 0.12397 0.60812 0.37877 0.0
H143 H 0.17571 0.58381 0.40421 0.0
H144 H 0.16377 0.63765 0.4611 0.0
O145 O 0.56149 0.85212 0.74138 0.0
Tb146 Tb 0.57994 0.84146 0.69471 0.0
Eu147 Eu 0.61853 0.83898 0.63426 0.0
C148 C 0.56278 0.84621 0.77828 0.0
O149 O 0.57591 0.83491 0.78684 0.0
C150 C 0.61512 0.82545 0.72422 0.0
O151 O 0.62533 0.82032 0.57754 0.0
C152 C 0.64161 0.86616 0.64953 0.0
C153 C 0.62408 0.80229 0.57696 0.0
O154 O 0.62047 0.79526 0.61103 0.0
C155 C 0.57765 0.85381 0.60546 0.0
C156 C 0.65215 0.88281 0.64102 0.0
C157 C 0.64845 0.90012 0.66212 0.0
C158 C 0.66003 0.91533 0.66064 0.0
C159 C 0.67527 0.91319 0.63689 0.0
C160 C 0.67927 0.89628 0.61463 0.0
C161 C 0.6676 0.88111 0.61719 0.0
O162 O 0.60526 0.84035 0.73115 0.0
O163 O 0.61934 0.82022 0.6862 0.0
O164 O 0.56325 0.81747 0.69999 0.0
O165 O 0.58406 0.81533 0.65765 0.0
C166 C 0.57147 0.80646 0.67366 0.0
O167 O 0.59282 0.84512 0.59636 0.0
O168 O 0.57321 0.85803 0.64387 0.0
O169 O 0.64569 0.84992 0.63137 0.0
O170 O 0.62459 0.86752 0.65932 0.0
H171 H 0.63705 0.90153 0.68153 0.0
H172 H 0.6843 0.92482 0.63647 0.0
H173 H 0.67069 0.86791 0.60114 0.0
O174 O 0.41063 0.30991 0.9885 0.0
Tb175 Tb 0.42277 0.33023 0.95369 0.0
Eu176 Eu 0.43135 0.36541 0.90099 0.0
C177 C 0.40437 0.31438 0.025 0.0
O178 O 0.40328 0.33182 0.03872 0.0
C179 C 0.43665 0.36615 0.99794 0.0
O180 O 0.45297 0.37354 0.85875 0.0
C181 C 0.40162 0.38398 0.90099 0.0
C182 C 0.44984 0.37239 0.81839 0.0
O183 O 0.43339 0.36838 0.80317 0.0
C184 C 0.41589 0.32644 0.85998 0.0
C185 C 0.38481 0.3952 0.9001 0.0
C186 C 0.36915 0.39077 0.92033 0.0
C187 C 0.35393 0.40259 0.92071 0.0
C188 C 0.35455 0.41842 0.8994 0.0
C189 C 0.37006 0.42308 0.8801 0.0
C190 C 0.38498 0.41139 0.88037 0.0
O191 O 0.42218 0.35552 0.99445 0.0
O192 O 0.44509 0.3691 0.96477 0.0
O193 O 0.44593 0.31385 0.97121 0.0
O194 O 0.44952 0.33438 0.9307 0.0
C195 C 0.45757 0.32201 0.95092 0.0
O196 O 0.42862 0.33891 0.85948 0.0
O197 O 0.40808 0.32406 0.89427 0.0
O198 O 0.41684 0.39012 0.88816 0.0
O199 O 0.40241 0.36729 0.91307 0.0
H200 H 0.36908 0.37862 0.93681 0.0
H201 H 0.34302 0.42752 0.89856 0.0
H202 H 0.39686 0.41505 0.86503 0.0
O203 O 0.90186 0.18756 0.99237 0.0
Tb204 Tb 0.91758 0.17588 0.04189 0.0
Eu205 Eu 0.93269 0.14376 0.10876 0.0
C206 C 0.90921 0.18789 0.95663 0.0
O207 O 0.92464 0.17939 0.95136 0.0
C208 C 0.94127 0.14364 1.0146 0.0
O209 O 0.9544 0.13991 0.15873 0.0
C210 C 0.90729 0.1189 0.10203 0.0
C211 C 0.95049 0.14152 0.19771 0.0
O212 O 0.93357 0.1441 0.20677 0.0
C213 C 0.90995 0.1804 0.13397 0.0
C214 C 0.89086 0.11181 0.11956 0.0
C215 C 0.87362 0.11745 0.10559 0.0
C216 C 0.85788 0.10932 0.11793 0.0
C217 C 0.85948 0.09557 0.14499 0.0
C218 C 0.8765 0.08939 0.15868 0.0
C219 C 0.89214 0.09759 0.14581 0.0
O220 O 0.92461 0.14965 1.00935 0.0
O221 O 0.94856 0.14295 0.05203 0.0
O222 O 0.93317 0.19993 0.03069 0.0
O223 O 0.94548 0.18018 0.06644 0.0
C224 C 0.94802 0.19528 0.0496 0.0
O225 O 0.92447 0.17069 0.14176 0.0
O226 O 0.902 0.17975 0.09679 0.0
O227 O 0.92307 0.11678 0.12137 0.0
O228 O 0.906 0.13441 0.08463 0.0
H229 H 0.87238 0.12782 0.08411 0.0
H230 H 0.84741 0.08878 0.15331 0.0
H231 H 0.90529 0.0926 0.15557 0.0
O232 O 0.95214 0.65661 0.81741 0.0
Tb233 Tb 0.93318 0.66605 0.86348 0.0
Eu234 Eu 0.8968 0.67401 0.92151 0.0
C235 C 0.94726 0.6468 0.78262 0.0
O236 O 0.93051 0.64091 0.77632 0.0
C237 C 0.90111 0.68635 0.83195 0.0
O238 O 0.88996 0.6937 0.97689 0.0
C239 C 0.87313 0.64809 0.90094 0.0
C240 C 0.90322 0.70251 0.99929 0.0
O241 O 0.91989 0.6994 0.98916 0.0
C242 C 0.93267 0.65058 0.94745 0.0
C243 C 0.86538 0.63044 0.91101 0.0
C244 C 0.87099 0.61366 0.89062 0.0
C245 C 0.86208 0.59708 0.89543 0.0
C246 C 0.84732 0.5974 0.9205 0.0
C247 C 0.84135 0.61398 0.94044 0.0
C248 C 0.85057 0.63041 0.93617 0.0
O249 O 0.90921 0.6704 0.82515 0.0
O250 O 0.89772 0.6926 0.86995 0.0
O251 O 0.95186 0.68922 0.86802 0.0
O252 O 0.92978 0.69037 0.90677 0.0
C253 C 0.94356 0.69927 0.89598 0.0
O254 O 0.92037 0.6629 0.95832 0.0
O255 O 0.93633 0.64633 0.9087 0.0
O256 O 0.86961 0.66324 0.92441 0.0
O257 O 0.88948 0.64784 0.8871 0.0
H258 H 0.88198 0.61353 0.87011 0.0
H259 H 0.83993 0.58479 0.92315 0.0
H260 H 0.8455 0.64326 0.95054 0.0
O261 O 0.10457 0.2135 0.54964 0.0
Tb262 Tb 0.09983 0.19252 0.59173 0.0
Eu263 Eu 0.09567 0.15094 0.63451 0.0
C264 C 0.0951 0.21321 0.51416 0.0
O265 O 0.08247 0.20061 0.50543 0.0
C266 C 0.08208 0.15868 0.54221 0.0
O267 O 0.07241 0.14688 0.67442 0.0
C268 C 0.11684 0.12248 0.62832 0.0
C269 C 0.07534 0.14727 0.7145 0.0
O270 O 0.092 0.14911 0.73023 0.0
C271 C 0.11921 0.18756 0.67425 0.0
C272 C 0.13349 0.11378 0.64511 0.0
C273 C 0.15059 0.11945 0.63442 0.0
C274 C 0.16629 0.10993 0.64546 0.0
C275 C 0.16483 0.09472 0.66825 0.0
C276 C 0.14792 0.08847 0.67893 0.0
C277 C 0.13229 0.09823 0.6674 0.0
O278 O 0.09565 0.17032 0.54248 0.0
O279 O 0.07767 0.15203 0.57634 0.0
O280 O 0.07995 0.21141 0.61913 0.0
O281 O 0.07763 0.18282 0.62512 0.0
C282 C 0.07084 0.19888 0.63495 0.0
O283 O 0.10792 0.17404 0.67892 0.0
O284 O 0.12206 0.19273 0.63761 0.0
O285 O 0.10249 0.12328 0.6503 0.0
O286 O 0.11872 0.13699 0.60784 0.0
H287 H 0.15171 0.1311 0.61659 0.0
H288 H 0.17695 0.08736 0.67663 0.0
H289 H 0.11912 0.09326 0.67418 0.0
O290 O 0.60441 0.3083 0.49959 0.0
Tb291 Tb 0.59667 0.32938 0.45857 0.0
Eu292 Eu 0.59247 0.37129 0.41122 0.0
C293 C 0.61177 0.31217 0.53709 0.0
O294 O 0.61618 0.32929 0.54973 0.0
C295 C 0.5813 0.36422 0.50367 0.0
O296 O 0.5714 0.37878 0.36265 0.0
C297 C 0.6186 0.39563 0.42148 0.0
C298 C 0.55481 0.37218 0.3617 0.0
O299 O 0.55031 0.36246 0.39124 0.0
C300 C 0.60905 0.33198 0.37107 0.0
C301 C 0.63423 0.40551 0.40605 0.0
C302 C 0.65197 0.40154 0.42037 0.0
C303 C 0.66693 0.41209 0.41117 0.0
C304 C 0.66375 0.42679 0.38675 0.0
C305 C 0.64616 0.43164 0.37315 0.0
C306 C 0.6315 0.42069 0.38261 0.0
O307 O 0.59492 0.35263 0.50539 0.0
O308 O 0.57631 0.37095 0.46869 0.0
O309 O 0.57447 0.30987 0.44268 0.0
O310 O 0.57086 0.33771 0.43136 0.0
C311 C 0.56319 0.3217 0.4289 0.0
O312 O 0.59843 0.34629 0.36662 0.0
O313 O 0.61463 0.3276 0.40786 0.0
O314 O 0.60211 0.39926 0.40767 0.0
O315 O 0.62055 0.37851 0.43067 0.0
H316 H 0.65399 0.39069 0.44042 0.0
H317 H 0.67509 0.43462 0.37818 0.0
H318 H 0.61788 0.42452 0.37331 0.0
O319 O 0.40795 0.80975 0.05383 0.0
Tb320 Tb 0.41907 0.82894 0.10414 0.0
Eu321 Eu 0.42077 0.86614 0.18296 0.0
C322 C 0.40582 0.81462 1.0162 0.0
O323 O 0.40899 0.83176 1.00987 0.0
C324 C 0.43288 0.86556 0.09252 0.0
O325 O 0.43855 0.87333 0.24213 0.0
C326 C 0.3921 0.8857 0.16903 0.0
C327 C 0.45117 0.8613 0.25132 0.0
O328 O 0.45259 0.84639 0.22585 0.0
C329 C 0.40695 0.82383 0.19376 0.0
C330 C 0.37411 0.8936 0.1791 0.0
C331 C 0.35813 0.88746 0.15599 0.0
C332 C 0.34152 0.89655 0.16229 0.0
C333 C 0.34119 0.91198 0.19152 0.0
C334 C 0.35703 0.91891 0.2131 0.0
C335 C 0.3733 0.90939 0.20725 0.0
O336 O 0.41761 0.85638 0.08504 0.0
O337 O 0.43929 0.86803 0.13097 0.0
O338 O 0.44417 0.81816 0.08043 0.0
O339 O 0.44448 0.83168 0.14114 0.0
C340 C 0.45431 0.82397 0.1127 0.0
O341 O 0.41377 0.83984 0.20948 0.0
O342 O 0.40508 0.8185 0.15394 0.0
O343 O 0.40664 0.89215 0.19082 0.0
O344 O 0.39337 0.86823 0.15502 0.0
H345 H 0.35867 0.87591 0.13262 0.0
H346 H 0.32855 0.91915 0.19607 0.0
H347 H 0.38565 0.915 0.22279 0.0
O348 O 0.88777 0.30571 0.52097 0.0
Tb349 Tb 0.90013 0.31727 0.57975 0.0
Eu350 Eu 0.91379 0.35185 0.65331 0.0
C351 C 0.89835 0.30358 0.48985 0.0
O352 O 0.91529 0.30887 0.49613 0.0
C353 C 0.92774 0.34676 0.56268 0.0
O354 O 0.93175 0.35772 0.71216 0.0
C355 C 0.88845 0.37581 0.64356 0.0
C356 C 0.94718 0.34887 0.71669 0.0
O357 O 0.95217 0.33739 0.68596 0.0
C358 C 0.88734 0.31877 0.66629 0.0
C359 C 0.87418 0.39002 0.63888 0.0
C360 C 0.8584 0.38663 0.6126 0.0
C361 C 0.84526 0.40056 0.60869 0.0
C362 C 0.84807 0.41769 0.63194 0.0
C363 C 0.86351 0.42121 0.65817 0.0
C364 C 0.87642 0.40735 0.66156 0.0
O365 O 0.91134 0.34047 0.55221 0.0
O366 O 0.93322 0.34938 0.60183 0.0
O367 O 0.90973 0.28913 0.57838 0.0
O368 O 0.92536 0.31044 0.61267 0.0
C369 C 0.92408 0.29278 0.60228 0.0
O370 O 0.90265 0.32705 0.67904 0.0
O371 O 0.88102 0.31897 0.62788 0.0
O372 O 0.90335 0.37946 0.66676 0.0
O373 O 0.88743 0.35901 0.62478 0.0
H374 H 0.8565 0.37338 0.5949 0.0
H375 H 0.83792 0.42832 0.63048 0.0
H376 H 0.88838 0.41021 0.68174 0.0
O377 O 0.45181 0.15894 0.30873 0.0
Tb378 Tb 0.43398 0.16676 0.35851 0.0
Eu379 Eu 0.39587 0.17383 0.41577 0.0
C380 C 0.45225 0.16908 0.27759 0.0
O381 O 0.44171 0.18353 0.27725 0.0
C382 C 0.39974 0.18368 0.32336 0.0
O383 O 0.39131 0.19587 0.46798 0.0
C384 C 0.36942 0.15024 0.4059 0.0
C385 C 0.40523 0.20434 0.48842 0.0
O386 O 0.42158 0.19985 0.47788 0.0
C387 C 0.4321 0.15056 0.44117 0.0
C388 C 0.36011 0.13476 0.42235 0.0
C389 C 0.36399 0.11645 0.40784 0.0
C390 C 0.35321 0.10188 0.4177 0.0
C391 C 0.33879 0.10556 0.44312 0.0
C392 C 0.33485 0.12363 0.45818 0.0
C393 C 0.34543 0.13821 0.44765 0.0
O394 O 0.41008 0.16909 0.31803 0.0
O395 O 0.39573 0.19032 0.36065 0.0
O396 O 0.45471 0.18771 0.37643 0.0
O397 O 0.42796 0.19254 0.39459 0.0
C398 C 0.44415 0.19929 0.39605 0.0
O399 O 0.41963 0.1627 0.45207 0.0
O400 O 0.4358 0.1464 0.40242 0.0
O401 O 0.36811 0.16675 0.42553 0.0
O402 O 0.38519 0.14715 0.38981 0.0
H403 H 0.3747 0.11357 0.38692 0.0
H404 H 0.33025 0.09436 0.45023 0.0
H405 H 0.34176 0.15221 0.45796 0.0
O406 O 0.55151 0.66058 0.19057 0.0
Tb407 Tb 0.57205 0.6677 0.14972 0.0
Eu408 Eu 0.61016 0.66938 0.10125 0.0
C409 C 0.55468 0.64891 0.21827 0.0
O410 O 0.57049 0.64085 0.22049 0.0
C411 C 0.6061 0.68371 0.19558 0.0
O412 O 0.61944 0.6862 0.05032 0.0
C413 C 0.62826 0.63996 0.11477 0.0
C414 C 0.61611 0.70407 0.0517 0.0
O415 O 0.60941 0.71216 0.08509 0.0
C416 C 0.57271 0.65114 0.06089 0.0
C417 C 0.63928 0.62326 0.12171 0.0
C418 C 0.63368 0.60938 0.14598 0.0
C419 C 0.64567 0.59505 0.1557 0.0
C420 C 0.66306 0.59474 0.14053 0.0
C421 C 0.66846 0.608 0.11552 0.0
C422 C 0.65655 0.62204 0.10612 0.0
O423 O 0.59459 0.66995 0.19525 0.0
O424 O 0.61152 0.68869 0.1605 0.0
O425 O 0.55435 0.69131 0.14381 0.0
O426 O 0.58066 0.69189 0.12151 0.0
C427 C 0.56585 0.70101 0.1264 0.0
O428 O 0.58604 0.66259 0.05678 0.0
O429 O 0.5685 0.64716 0.09751 0.0
O430 O 0.63509 0.65393 0.09791 0.0
O431 O 0.61114 0.64176 0.12333 0.0
H432 H 0.62044 0.61008 0.15843 0.0
H433 H 0.67239 0.58391 0.14767 0.0
H434 H 0.66111 0.63245 0.08754 0.0
O435 O 0.10795 0.80907 1.0073 0.0
Tb436 Tb 0.09807 0.82725 0.9617 0.0
Eu437 Eu 0.09247 0.86665 0.91229 0.0
C438 C 0.09764 0.80652 0.03786 0.0
O439 O 0.08236 0.81554 0.04004 0.0
C440 C 0.07858 0.86114 1.00176 0.0
O441 O 0.07441 0.87451 0.85826 0.0
C442 C 0.12013 0.88843 0.93171 0.0
C443 C 0.05692 0.87106 0.85722 0.0
O444 O 0.05022 0.86494 0.88963 0.0
C445 C 0.11083 0.82856 0.8743 0.0
C446 C 0.13703 0.89742 0.9204 0.0
C447 C 0.15394 0.89272 0.93844 0.0
C448 C 0.1698 0.90264 0.93243 0.0
C449 C 0.16846 0.91742 0.90775 0.0
C450 C 0.1517 0.92262 0.89014 0.0
C451 C 0.13613 0.91245 0.89644 0.0
O452 O 0.09278 0.8505 1.00674 0.0
O453 O 0.07389 0.86643 0.96531 0.0
O454 O 0.07783 0.80558 0.94942 0.0
O455 O 0.07217 0.83197 0.92988 0.0
C456 C 0.06581 0.81556 0.93172 0.0
O457 O 0.09909 0.84178 0.8688 0.0
O458 O 0.11641 0.82489 0.91163 0.0
O459 O 0.1045 0.89391 0.91615 0.0
O460 O 0.12032 0.87081 0.93765 0.0
H461 H 0.15469 0.88154 0.9579 0.0
H462 H 0.18035 0.92559 0.90408 0.0
H463 H 0.12321 0.91655 0.88326 0.0
H464 H 0.95506 0.22192 1.00083 0.0
H465 H 0.98447 0.23449 0.98812 0.0
H466 H 0.01007 0.19944 0.07283 0.0
H467 H 0.98066 0.18622 0.08409 0.0
H468 H 1.00378 0.25416 0.03903 0.0
H469 H 0.05241 0.19075 0.05655 0.0
H470 H 0.05382 0.15826 0.02802 0.0
H471 H 0.01834 0.16962 0.92562 0.0
H472 H 0.01667 0.20215 0.95343 0.0
H473 H 0.07142 0.27645 0.16641 0.0
H474 H 0.05979 0.24823 0.1277 0.0
H475 H 0.07234 0.26955 1.01437 0.0
H476 H 0.08345 0.29787 0.05261 0.0
H477 H 0.06248 0.22142 0.03516 0.0
H478 H 0.03702 0.2844 0.9975 0.0
H479 H 0.03699 0.31788 1.01851 0.0
H480 H 0.02598 0.30752 0.14168 0.0
H481 H 0.02589 0.27403 0.12121 0.0
C482 C 0.967 0.21687 1.01662 0.0
C483 C 0.96567 0.20339 0.04406 0.0
C484 C 0.98379 0.22391 1.00897 0.0
C485 C 0.99952 0.21778 0.02911 0.0
C486 C 0.99819 0.20405 0.05608 0.0
C487 C 0.98138 0.19679 0.06323 0.0
C488 C 0.01676 0.22778 0.02752 0.0
C489 C 0.01652 0.24694 0.03654 0.0
C490 C 0.0335 0.21857 0.0238 0.0
C491 C 0.03435 0.19891 1.0073 0.0
C492 C 0.04494 0.18634 0.02791 0.0
C493 C 0.04572 0.1679 1.0119 0.0
C494 C 0.0361 0.16187 0.97513 0.0
C495 C 0.02565 0.17427 0.95427 0.0
C496 C 0.02473 0.1927 0.97024 0.0
C497 C 0.07247 0.2747 0.13339 0.0
C498 C 0.07775 0.28941 0.11227 0.0
C499 C 0.0662 0.25843 0.11132 0.0
C500 C 0.06493 0.25702 0.06816 0.0
C501 C 0.07325 0.27038 0.0476 0.0
C502 C 0.07943 0.28669 0.06959 0.0
C503 C 0.04905 0.24731 0.04778 0.0
C504 C 0.04959 0.22842 0.03536 0.0
C505 C 0.03248 0.2568 0.04602 0.0
C506 C 0.0314 0.27684 0.05786 0.0
C507 C 0.03442 0.28934 0.02893 0.0
C508 C 0.03448 0.30828 0.04076 0.0
C509 C 0.03147 0.31481 0.0814 0.0
C510 C 0.02825 0.30244 0.1102 0.0
C511 C 0.02814 0.2835 0.09849 0.0
H512 H 0.03164 0.32946 0.0906 0.0
H513 H 0.03676 0.1476 0.96274 0.0
H514 H 0.05283 0.72752 0.36346 0.0
H515 H 0.04766 0.75954 0.38838 0.0
H516 H 0.07186 0.75015 0.50752 0.0
H517 H 0.07682 0.7178 0.48259 0.0
H518 H 0.03844 0.76504 0.5111 0.0
H519 H 0.09255 0.78169 0.45589 0.0
H520 H 0.11605 0.77997 0.40525 0.0
H521 H 0.07791 0.79805 0.31432 0.0
H522 H 0.05423 0.79983 0.36419 0.0
H523 H 0.98287 0.83877 0.5239 0.0
H524 H 0.01473 0.83051 0.53054 0.0
H525 H 0.01253 0.8096 0.40225 0.0
H526 H 0.98111 0.81949 0.39479 0.0
H527 H 0.04724 0.81793 0.43003 0.0
H528 H 0.99566 0.77968 0.47738 0.0
H529 H 0.96969 0.77933 0.52151 0.0
H530 H 1.00318 0.80185 0.62568 0.0
H531 H 0.02921 0.8024 0.58195 0.0
C532 C 0.05721 0.73235 0.3948 0.0
C533 C 0.06521 0.72033 0.42115 0.0
C534 C 0.05453 0.75069 0.40886 0.0
C535 C 0.05979 0.75732 0.44951 0.0
C536 C 0.06803 0.74536 0.47584 0.0
C537 C 0.07081 0.72695 0.46163 0.0
C538 C 0.05395 0.77589 0.46526 0.0
C539 C 0.04111 0.77698 0.49514 0.0
C540 C 0.05725 0.79134 0.44386 0.0
C541 C 0.07162 0.79101 0.41396 0.0
C542 C 0.0892 0.78536 0.42511 0.0
C543 C 0.10257 0.78437 0.39651 0.0
C544 C 0.09853 0.78897 0.35661 0.0
C545 C 0.08112 0.79463 0.34528 0.0
C546 C 0.06772 0.79572 0.37379 0.0
C547 C 0.98948 0.83315 0.49678 0.0
C548 C 0.97963 0.82928 0.45905 0.0
C549 C 1.00765 0.82846 0.50059 0.0
C550 C 0.01577 0.81881 0.46732 0.0
C551 C 1.00649 0.81693 0.42845 0.0
C552 C 0.98849 0.82235 0.42424 0.0
C553 C 0.03127 0.80658 0.47445 0.0
C554 C 0.04576 0.80659 0.44866 0.0
C555 C 0.02966 0.79211 0.4999 0.0
C556 C 0.01434 0.79094 0.52663 0.0
C557 C 0.99746 0.78437 0.5098 0.0
C558 C 0.98273 0.78421 0.53465 0.0
C559 C 0.98479 0.79052 0.57638 0.0
C560 C 1.00161 0.79689 0.59341 0.0
C561 C 0.01637 0.79707 0.56865 0.0
H562 H 0.97331 0.79052 0.5954 0.0
H563 H 0.1089 0.78811 0.33451 0.0
H564 H 0.54652 0.78739 0.70885 0.0
H565 H 0.54046 0.75464 0.69854 0.0
H566 H 0.58383 0.74754 0.6155 0.0
H567 H 0.5895 0.78082 0.62498 0.0
H568 H 0.55653 0.7319 0.58067 0.0
H569 H 0.58449 0.72368 0.70549 0.0
H570 H 0.59577 0.72959 0.77782 0.0
H571 H 0.54175 0.72629 0.8173 0.0
H572 H 0.53001 0.72082 0.74534 0.0
H573 H 0.47856 0.66571 0.63547 0.0
H574 H 0.51125 0.67212 0.64262 0.0
H575 H 0.50194 0.72406 0.59271 0.0
H576 H 0.46981 0.71764 0.58491 0.0
H577 H 0.52928 0.69868 0.68729 0.0
H578 H 0.52253 0.73459 0.54024 0.0
H579 H 0.51487 0.72784 0.46593 0.0
H580 H 0.53421 0.67263 0.47055 0.0
H581 H 0.54156 0.67898 0.54518 0.0
C582 C 0.5549 0.77883 0.68875 0.0
C583 C 0.56836 0.78656 0.66741 0.0
C584 C 0.55169 0.76 0.68348 0.0
C585 C 0.56204 0.74844 0.65711 0.0
C586 C 0.57588 0.75613 0.63651 0.0
C587 C 0.57901 0.77511 0.64164 0.0
C588 C 0.55576 0.7293 0.64572 0.0
C589 C 0.55113 0.72424 0.60405 0.0
C590 C 0.54953 0.71847 0.67575 0.0
C591 C 0.55636 0.72164 0.71964 0.0
C592 C 0.57497 0.72425 0.72951 0.0
C593 C 0.58146 0.72754 0.77052 0.0
C594 C 0.56949 0.72823 0.80212 0.0
C595 C 0.55101 0.72567 0.79277 0.0
C596 C 0.54443 0.7224 0.75181 0.0
C597 C 0.48364 0.67842 0.62587 0.0
C598 C 0.47177 0.6912 0.60952 0.0
C599 C 0.50227 0.68196 0.62955 0.0
C600 C 0.50916 0.69813 0.61624 0.0
C601 C 0.49713 0.71099 0.60091 0.0
C602 C 0.47867 0.70751 0.59731 0.0
C603 C 0.52843 0.70337 0.62329 0.0
C604 C 0.53565 0.70561 0.66404 0.0
C605 C 0.5376 0.71118 0.59246 0.0
C606 C 0.53227 0.70713 0.54826 0.0
C607 C 0.52492 0.72094 0.52544 0.0
C608 C 0.5206 0.71719 0.48333 0.0
C609 C 0.52389 0.69975 0.46359 0.0
C610 C 0.5315 0.68606 0.48596 0.0
C611 C 0.53557 0.68968 0.52823 0.0
H612 H 0.52065 0.69688 0.43094 0.0
H613 H 0.57454 0.73082 0.83384 0.0
H614 H 0.47479 0.29591 0.99066 0.0
H615 H 0.50672 0.28906 0.99336 0.0
H616 H 0.51671 0.33455 0.92236 0.0
H617 H 0.4842 0.34093 0.91818 0.0
H618 H 0.53202 0.30813 0.88911 0.0
H619 H 0.54396 0.33111 0.02496 0.0
H620 H 0.53982 0.3406 0.09834 0.0
H621 H 0.53098 0.28432 0.11965 0.0
H622 H 0.53501 0.27451 0.04653 0.0
H623 H 0.59279 0.22388 0.93729 0.0
H624 H 0.58725 0.25677 0.95572 0.0
H625 H 0.53502 0.25122 0.89053 0.0
H626 H 0.54038 0.2186 0.87269 0.0
H627 H 0.56006 0.27393 0.99973 0.0
H628 H 0.52757 0.28196 0.83495 0.0
H629 H 0.53563 0.27235 0.7639 0.0
H630 H 0.59165 0.27105 0.80441 0.0
H631 H 0.58397 0.28077 0.87516 0.0
C632 C 0.48382 0.30457 0.97599 0.0
C633 C 0.47709 0.31873 0.95369 0.0
C634 C 0.50222 0.30094 0.97837 0.0
C635 C 0.51439 0.3116 0.95908 0.0
C636 C 0.50768 0.32624 0.93788 0.0
C637 C 0.48913 0.32976 0.93514 0.0
C638 C 0.53302 0.30467 0.95406 0.0
C639 C 0.53856 0.30121 0.91368 0.0
C640 C 0.54261 0.29646 0.98616 0.0
C641 C 0.53968 0.30213 0.03012 0.0
C642 C 0.54094 0.32079 0.04524 0.0
C643 C 0.5387 0.32621 0.08683 0.0
C644 C 0.53505 0.31309 0.1136 0.0
C645 C 0.53378 0.29449 0.09889 0.0
C646 C 0.53614 0.28898 0.0574 0.0
C647 C 0.58005 0.22972 0.92749 0.0
C648 C 0.56684 0.21879 0.90414 0.0
C649 C 0.57703 0.24848 0.93759 0.0
C650 C 0.56093 0.25643 0.92372 0.0
C651 C 0.54776 0.24541 0.90062 0.0
C652 C 0.55073 0.22677 0.89069 0.0
C653 C 0.55682 0.27597 0.93464 0.0
C654 C 0.55429 0.28183 0.97589 0.0
C655 C 0.55061 0.28695 0.90369 0.0
C656 C 0.5552 0.28225 0.86036 0.0
C657 C 0.54163 0.27993 0.82852 0.0
C658 C 0.54613 0.27433 0.78827 0.0
C659 C 0.56413 0.27107 0.77951 0.0
C660 C 0.57769 0.27353 0.81094 0.0
C661 C 0.57328 0.27908 0.85115 0.0
H662 H 0.56755 0.26656 0.74844 0.0
H663 H 0.53326 0.31733 0.14574 0.0
H664 H 0.92326 0.72441 0.94082 0.0
H665 H 0.93109 0.75683 0.96219 0.0
H666 H 0.98049 0.74995 0.89873 0.0
H667 H 0.97324 0.71766 0.87923 0.0
H668 H 0.97179 0.76759 1.00373 0.0
H669 H 0.97244 0.78402 0.83316 0.0
H670 H 0.95179 0.77976 0.7715 0.0
H671 H 0.90631 0.78018 0.84724 0.0
H672 H 0.92669 0.78468 0.90957 0.0
H673 H 0.05138 0.78145 0.92558 0.0
H674 H 0.01978 0.77377 0.93307 0.0
H675 H 1.00573 0.83123 0.93656 0.0
H676 H 0.03742 0.83899 0.92911 0.0
H677 H 0.9807 0.80675 0.89097 0.0
H678 H 0.01194 0.81358 0.02233 0.0
H679 H 0.03703 0.80888 0.07268 0.0
H680 H 0.0256 0.75108 0.06229 0.0
H681 H 1.00087 0.75508 1.01103 0.0
C682 C 0.93596 0.72979 0.93237 0.0
C683 C 0.94794 0.71852 0.90941 0.0
C684 C 0.94021 0.7483 0.94394 0.0
C685 C 0.95619 0.75564 0.9315 0.0
C686 C 0.96795 0.74444 0.90809 0.0
C687 C 0.96389 0.72602 0.89721 0.0
C688 C 0.96207 0.77459 0.94442 0.0
C689 C 0.97356 0.77668 0.97994 0.0
C690 C 0.96349 0.78678 0.91384 0.0
C691 C 0.95113 0.78493 0.87623 0.0
C692 C 0.95803 0.78353 0.83681 0.0
C693 C 0.94636 0.78097 0.80165 0.0
C694 C 0.92774 0.7798 0.80541 0.0
C695 C 0.92074 0.78115 0.84436 0.0
C696 C 0.93235 0.78369 0.87963 0.0
C697 C 0.04147 0.79237 0.92705 0.0
C698 C 0.04669 0.81075 0.92674 0.0
C699 C 0.02353 0.78804 0.93176 0.0
C700 C 0.01069 0.80207 0.937 0.0
C701 C 0.01559 0.82033 0.93354 0.0
C702 C 0.0336 0.82468 0.92863 0.0
C703 C 0.99231 0.79721 0.94671 0.0
C704 C 0.97853 0.79851 0.9161 0.0
C705 C 0.98946 0.78708 0.98062 0.0
C706 C 1.00405 0.78477 1.01315 0.0
C707 C 0.01455 0.79987 0.03095 0.0
C708 C 0.02884 0.79732 0.05953 0.0
C709 C 0.03276 0.77978 0.07095 0.0
C710 C 0.02245 0.7647 0.05369 0.0
C711 C 0.00825 0.76712 0.02487 0.0
H712 H 0.04386 0.77787 0.09298 0.0
H713 H 0.91873 0.77782 0.77817 0.0
H714 H 0.05953 0.2313 0.67243 0.0
H715 H 0.02938 0.23791 0.69624 0.0
H716 H 0.01505 0.18048 0.67143 0.0
H717 H 0.04547 0.17372 0.64871 0.0
H718 H 1.00058 0.20551 0.61612 0.0
H719 H 1.00137 0.19734 0.75592 0.0
H720 H 0.0115 0.19882 0.82926 0.0
H721 H 1.00764 0.25767 0.83971 0.0
H722 H 0.99779 0.25671 0.76644 0.0
H723 H 0.92002 0.25579 0.58798 0.0
H724 H 0.93971 0.23208 0.61349 0.0
H725 H 0.97457 0.27425 0.677 0.0
H726 H 0.95458 0.29803 0.65249 0.0
H727 H 0.97107 0.24573 0.72314 0.0
H728 H 0.98299 0.25401 0.5818 0.0
H729 H 0.97836 0.25346 0.50648 0.0
H730 H 0.96338 0.19637 0.49812 0.0
H731 H 0.9676 0.19667 0.57346 0.0
C732 C 0.05015 0.22001 0.67357 0.0
C733 C 0.05448 0.20214 0.65769 0.0
C734 C 0.03305 0.22372 0.6879 0.0
C735 C 0.02 0.20967 0.6855 0.0
C736 C 0.02501 0.19145 0.67392 0.0
C737 C 0.04228 0.18767 0.66041 0.0
C738 C 1.00096 0.21511 0.68048 0.0
C739 C 0.99368 0.21375 0.63986 0.0
C740 C 0.99237 0.22616 0.71139 0.0
C741 C 0.99887 0.22694 0.75537 0.0
C742 C 1.00286 0.21063 0.77366 0.0
C743 C 0.00849 0.21137 0.81529 0.0
C744 C 0.01019 0.2283 0.83907 0.0
C745 C 1.00629 0.24456 0.82126 0.0
C746 C 1.00065 0.24392 0.77966 0.0
C747 C 0.93186 0.25998 0.60755 0.0
C748 C 0.93601 0.27869 0.61786 0.0
C749 C 0.94302 0.24643 0.6222 0.0
C750 C 0.95863 0.25141 0.64694 0.0
C751 C 0.96252 0.27012 0.65811 0.0
C752 C 0.95124 0.28369 0.64379 0.0
C753 C 0.97177 0.23731 0.65833 0.0
C754 C 0.97764 0.237 0.69985 0.0
C755 C 0.97958 0.2251 0.62807 0.0
C756 C 0.97528 0.22545 0.58334 0.0
C757 C 0.97833 0.24145 0.564 0.0
C758 C 0.97589 0.24115 0.52127 0.0
C759 C 0.97063 0.22488 0.49754 0.0
C760 C 0.96745 0.20896 0.51652 0.0
C761 C 0.9698 0.2092 0.55923 0.0
H762 H 0.96911 0.22457 0.46444 0.0
H763 H 0.01453 0.22881 0.8713 0.0
H764 H 0.47804 0.21172 0.41634 0.0
H765 H 0.48731 0.24313 0.44042 0.0
H766 H 0.43151 0.25995 0.44077 0.0
H767 H 0.42211 0.2282 0.41696 0.0
H768 H 0.45369 0.27984 0.39262 0.0
H769 H 0.45365 0.26612 0.53092 0.0
H770 H 0.45881 0.24794 0.59016 0.0
H771 H 0.51568 0.24729 0.57319 0.0
H772 H 0.51108 0.26559 0.51427 0.0
H773 H 0.5371 0.34419 0.4591 0.0
H774 H 0.50545 0.3356 0.46605 0.0
H775 H 0.51414 0.28376 0.39483 0.0
H776 H 0.54592 0.29189 0.38969 0.0
H777 H 0.50154 0.29661 0.50162 0.0
H778 H 0.47174 0.28243 0.33235 0.0
H779 H 0.47066 0.29832 0.2693 0.0
H780 H 0.47817 0.35034 0.34167 0.0
H781 H 0.47844 0.33489 0.40516 0.0
C782 C 0.46776 0.22203 0.42233 0.0
C783 C 0.44944 0.21769 0.41469 0.0
C784 C 0.47302 0.23991 0.43648 0.0
C785 C 0.46005 0.25376 0.4429 0.0
C786 C 0.44166 0.24936 0.43647 0.0
C787 C 0.43636 0.23131 0.42282 0.0
C788 C 0.46635 0.27301 0.44994 0.0
C789 C 0.46385 0.28384 0.41694 0.0
C790 C 0.47911 0.27846 0.48253 0.0
C791 C 0.482 0.2675 0.51833 0.0
C792 C 0.46727 0.26219 0.53987 0.0
C793 C 0.47009 0.25181 0.57335 0.0
C794 C 0.48749 0.24644 0.58532 0.0
C795 C 0.50219 0.25152 0.56399 0.0
C796 C 0.49951 0.26202 0.53072 0.0
C797 C 0.53201 0.33125 0.44378 0.0
C798 C 0.54372 0.31862 0.42379 0.0
C799 C 0.51402 0.32639 0.44785 0.0
C800 C 0.50757 0.30917 0.43063 0.0
C801 C 0.51894 0.29722 0.40782 0.0
C802 C 0.53701 0.3018 0.40493 0.0
C803 C 0.4903 0.30179 0.44196 0.0
C804 C 0.4907 0.29324 0.47846 0.0
C805 C 0.47605 0.29802 0.412 0.0
C806 C 0.47503 0.30745 0.37369 0.0
C807 C 0.47279 0.29729 0.33492 0.0
C808 C 0.47234 0.30623 0.29902 0.0
C809 C 0.47426 0.32535 0.30142 0.0
C810 C 0.47655 0.33556 0.33976 0.0
C811 C 0.47682 0.3267 0.37573 0.0
H812 H 0.47404 0.33224 0.27359 0.0
H813 H 0.48958 0.23832 0.6111 0.0
H814 H 0.53638 0.71788 0.0963 0.0
H815 H 0.53112 0.75108 0.09989 0.0
H816 H 0.58497 0.76133 0.15407 0.0
H817 H 0.59054 0.728 0.14885 0.0
H818 H 0.53988 0.77098 0.1912 0.0
H819 H 0.59028 0.78833 0.11238 0.0
H820 H 0.61043 0.78549 0.05455 0.0
H821 H 0.56441 0.78388 0.9686 0.0
H822 H 0.54407 0.78681 0.02584 0.0
H823 H 0.47759 0.84013 0.17308 0.0
H824 H 0.51 0.83417 0.18203 0.0
H825 H 0.5075 0.79974 0.06673 0.0
H826 H 0.4754 0.80589 0.05758 0.0
H827 H 0.54134 0.81451 0.0843 0.0
H828 H 0.49561 0.77874 0.14972 0.0
H829 H 0.46892 0.78058 0.19174 0.0
H830 H 0.4996 0.81187 0.28975 0.0
H831 H 0.5264 0.8105 0.2478 0.0
C832 C 0.54725 0.72727 0.10763 0.0
C833 C 0.56385 0.72061 0.1219 0.0
C834 C 0.5443 0.74613 0.10961 0.0
C835 C 0.55774 0.75853 0.12698 0.0
C836 C 0.57462 0.75195 0.13988 0.0
C837 C 0.57775 0.73299 0.13683 0.0
C838 C 0.55249 0.77779 0.13693 0.0
C839 C 0.54091 0.7811 0.16924 0.0
C840 C 0.55361 0.79064 0.10773 0.0
C841 C 0.56571 0.78777 0.07331 0.0
C842 C 0.58449 0.78718 0.08111 0.0
C843 C 0.59594 0.78568 0.04846 0.0
C844 C 0.58871 0.7847 1.00795 0.0
C845 C 0.57002 0.78485 0.99995 0.0
C846 C 0.55853 0.78648 0.03248 0.0
C847 C 0.4841 0.83157 0.14943 0.0
C848 C 0.47401 0.82278 0.11553 0.0
C849 C 0.50263 0.82845 0.15421 0.0
C850 C 0.51105 0.81628 0.12541 0.0
C851 C 0.50128 0.80921 0.08933 0.0
C852 C 0.48286 0.81245 0.08444 0.0
C853 C 0.52792 0.80688 0.13676 0.0
C854 C 0.54151 0.8054 0.10858 0.0
C855 C 0.52817 0.79514 0.16873 0.0
C856 C 0.51289 0.79455 0.19576 0.0
C857 C 0.49667 0.78585 0.18042 0.0
C858 C 0.48152 0.78692 0.20403 0.0
C859 C 0.48254 0.79646 0.24321 0.0
C860 C 0.49882 0.80461 0.25925 0.0
C861 C 0.514 0.80369 0.23558 0.0
H862 H 0.47065 0.79759 0.2609 0.0
H863 H 0.5976 0.78388 0.98278 0.0
H864 H 0.33422 0.42826 0.96556 0.0
H865 H 0.30576 0.42446 0.99652 0.0
H866 H 0.30784 0.36584 0.96392 0.0
H867 H 0.33611 0.36981 0.92965 0.0
H868 H 0.27491 0.37592 0.95061 0.0
H869 H 0.31514 0.38709 0.06738 0.0
H870 H 0.33955 0.40221 0.11269 0.0
H871 H 0.30884 0.45211 0.1247 0.0
H872 H 0.28434 0.43738 0.07899 0.0
H873 H 0.20046 0.36927 0.08716 0.0
H874 H 0.23012 0.36614 0.05784 0.0
H875 H 0.23058 0.42406 0.04295 0.0
H876 H 0.20061 0.42722 0.06972 0.0
H877 H 0.26297 0.4099 0.08513 0.0
H878 H 0.22354 0.39685 0.96188 0.0
H879 H 0.19944 0.37949 0.91983 0.0
H880 H 0.22964 0.32958 0.9262 0.0
H881 H 0.25382 0.34662 0.96883 0.0
C882 C 0.32867 0.4145 0.96446 0.0
C883 C 0.33751 0.39938 0.94427 0.0
C884 C 0.31238 0.4123 0.98301 0.0
C885 C 0.30454 0.39481 0.98347 0.0
C886 C 0.3135 0.37953 0.96425 0.0
C887 C 0.32982 0.38177 0.94497 0.0
C888 C 0.28675 0.39292 1.00285 0.0
C889 C 0.2725 0.38307 0.98043 0.0
C890 C 0.28327 0.4022 0.04184 0.0
C891 C 0.29794 0.41114 0.06951 0.0
C892 C 0.31363 0.40132 0.07947 0.0
C893 C 0.32748 0.40982 0.10525 0.0
C894 C 0.32575 0.42812 0.12151 0.0
C895 C 0.31015 0.43794 0.11208 0.0
C896 C 0.29627 0.42951 0.08628 0.0
C897 C 0.20661 0.38133 0.07695 0.0
C898 C 0.1979 0.39857 0.08141 0.0
C899 C 0.22372 0.37951 0.06042 0.0
C900 C 0.23269 0.39488 0.04837 0.0
C901 C 0.22405 0.41201 0.05237 0.0
C902 C 0.20686 0.4138 0.06812 0.0
C903 C 0.25123 0.3934 0.03239 0.0
C904 C 0.26557 0.4026 0.05557 0.0
C905 C 0.25486 0.38316 0.99472 0.0
C906 C 0.24038 0.37297 0.96895 0.0
C907 C 0.22496 0.38214 0.95466 0.0
C908 C 0.21131 0.37237 0.93064 0.0
C909 C 0.21298 0.35343 0.92047 0.0
C910 C 0.22835 0.34424 0.93418 0.0
C911 C 0.24203 0.35395 0.95824 0.0
H912 H 0.2024 0.34589 0.90187 0.0
H913 H 0.33649 0.43468 0.14146 0.0
H914 H 0.84876 0.95778 0.38298 0.0
H915 H 0.85135 0.98539 0.34734 0.0
H916 H 0.8854 0.95632 0.2604 0.0
H917 H 0.88259 0.9284 0.29541 0.0
H918 H 0.8993 0.99039 0.28949 0.0
H919 H 0.84243 0.96568 0.23186 0.0
H920 H 0.81158 0.95337 0.23393 0.0
H921 H 0.79511 1.00394 0.2993 0.0
H922 H 0.82595 0.01647 0.29812 0.0
H923 H 0.89722 0.05849 0.14648 0.0
H924 H 0.8961 0.03053 0.18183 0.0
H925 H 0.85691 0.05589 0.26186 0.0
H926 H 0.85773 0.08369 0.22595 0.0
H927 H 0.84588 0.02305 0.23518 0.0
H928 H 0.90221 0.0479 0.29465 0.0
H929 H 0.93304 0.06055 0.29484 0.0
H930 H 0.9506 0.01051 0.2291 0.0
H931 H 0.9198 0.99765 0.22803 0.0
C932 C 0.85652 0.95707 0.35579 0.0
C933 C 0.86537 0.94072 0.34201 0.0
C934 C 0.85808 0.97296 0.33556 0.0
C935 C 0.8685 0.97294 0.30101 0.0
C936 C 0.87733 0.95669 0.28706 0.0
C937 C 0.87572 0.94074 0.30718 0.0
C938 C 0.87035 0.98998 0.27993 0.0
C939 C 0.88765 0.99741 0.27706 0.0
C940 C 0.85513 0.99942 0.26469 0.0
C941 C 0.83655 0.99195 0.26522 0.0
C942 C 0.83227 0.97413 0.24695 0.0
C943 C 0.81478 0.96711 0.24792 0.0
C944 C 0.8014 0.97784 0.26682 0.0
C945 C 0.80549 0.99563 0.2847 0.0
C946 C 0.82297 1.0027 0.28386 0.0
C947 C 0.88864 0.05822 0.17215 0.0
C948 C 0.87759 0.07333 0.18348 0.0
C949 C 0.88799 0.0422 0.19237 0.0
C950 C 0.87649 0.04104 0.22482 0.0
C951 C 0.86583 0.05634 0.23685 0.0
C952 C 0.86634 0.07226 0.2164 0.0
C953 C 0.87487 0.02365 0.24493 0.0
C954 C 0.85758 0.0161 0.24757 0.0
C955 C 0.89011 0.0142 0.26025 0.0
C956 C 0.90865 0.02188 0.2609 0.0
C957 C 0.91261 0.03965 0.27995 0.0
C958 C 0.93009 0.04685 0.28027 0.0
C959 C 0.94376 0.03636 0.2619 0.0
C960 C 0.93999 0.01863 0.24326 0.0
C961 C 0.92253 0.01137 0.24282 0.0
H962 H 0.95728 0.04196 0.26218 0.0
H963 H 0.78787 0.97239 0.26754 0.0
H964 H 0.19107 0.58389 0.47017 0.0
H965 H 0.22107 0.58621 0.50485 0.0
H966 H 0.2242 0.64341 0.48313 0.0
H967 H 0.19458 0.64095 0.44641 0.0
H968 H 0.25554 0.62759 0.47041 0.0
H969 H 0.21474 0.63041 0.57843 0.0
H970 H 0.18923 0.62064 0.61652 0.0
H971 H 0.21585 0.56954 0.63387 0.0
H972 H 0.24143 0.57889 0.59538 0.0
H973 H 0.33289 0.64073 0.61589 0.0
H974 H 0.30284 0.6441 0.58183 0.0
H975 H 0.29345 0.58582 0.58172 0.0
H976 H 0.32327 0.58227 0.61449 0.0
H977 H 0.26478 0.60632 0.60937 0.0
H978 H 0.30449 0.6033 0.4959 0.0
H979 H 0.32992 0.61377 0.45845 0.0
H980 H 0.30508 0.66668 0.45344 0.0
H981 H 0.27961 0.65659 0.49138 0.0
C982 C 0.19821 0.59691 0.47226 0.0
C983 C 0.1903 0.61226 0.45571 0.0
C984 C 0.2153 0.59828 0.49257 0.0
C985 C 0.22476 0.61509 0.49735 0.0
C986 C 0.2171 0.63034 0.48013 0.0
C987 C 0.20007 0.62894 0.45951 0.0
C988 C 0.24264 0.6167 0.52036 0.0
C989 C 0.25749 0.62323 0.50109 0.0
C990 C 0.24525 0.61095 0.56033 0.0
C991 C 0.22994 0.60531 0.58374 0.0
C992 C 0.2151 0.61704 0.59013 0.0
C993 C 0.20064 0.61158 0.61183 0.0
C994 C 0.2009 0.59446 0.62753 0.0
C995 C 0.21566 0.58279 0.62166 0.0
C996 C 0.23016 0.58817 0.59995 0.0
C997 C 0.32443 0.62865 0.60841 0.0
C998 C 0.33041 0.61129 0.61854 0.0
C999 C 0.30728 0.6306 0.58904 0.0
C1000 C 0.2959 0.6152 0.57942 0.0
C1001 C 0.30191 0.59791 0.58929 0.0
C1002 C 0.31897 0.59594 0.60831 0.0
C1003 C 0.27769 0.61676 0.55902 0.0
C1004 C 0.26275 0.61087 0.57889 0.0
C1005 C 0.275 0.62324 0.51982 0.0
C1006 C 0.29027 0.62927 0.4969 0.0
C1007 C 0.30453 0.61722 0.48712 0.0
C1008 C 0.31894 0.62307 0.46575 0.0
C1009 C 0.31915 0.6409 0.4537 0.0
C1010 C 0.30492 0.65289 0.46288 0.0
C1011 C 0.2905 0.64711 0.48429 0.0
H1012 H 0.33031 0.64541 0.43714 0.0
H1013 H 0.18969 0.59026 0.64431 0.0
H1014 H 0.6288 0.93573 0.66507 0.0
H1015 H 0.62468 0.9663 0.70221 0.0
H1016 H 0.68013 0.96615 0.74914 0.0
H1017 H 0.68433 0.93582 0.71198 0.0
H1018 H 0.65689 0.97911 0.8094 0.0
H1019 H 0.66938 0.98956 0.67039 0.0
H1020 H 0.66415 0.98599 0.59496 0.0
H1021 H 0.61109 0.00882 0.6064 0.0
H1022 H 0.61592 0.01228 0.682 0.0
H1023 H 0.67266 0.08281 0.81505 0.0
H1024 H 0.66957 0.05244 0.77614 0.0
H1025 H 0.62726 0.03852 0.853 0.0
H1026 H 0.6302 0.06915 0.89177 0.0
H1027 H 0.64181 0.03241 0.73106 0.0
H1028 H 0.63562 0.99268 0.87264 0.0
H1029 H 0.64294 0.99659 0.94749 0.0
H1030 H 0.68676 0.03288 0.92972 0.0
H1031 H 0.67987 0.02896 0.85479 0.0
C1032 C 0.64005 0.94216 0.68362 0.0
C1033 C 0.65693 0.93336 0.6853 0.0
C1034 C 0.63771 0.95968 0.7047 0.0
C1035 C 0.65212 0.96866 0.72842 0.0
C1036 C 0.66879 0.95959 0.73115 0.0
C1037 C 0.6712 0.94226 0.70965 0.0
C1038 C 0.65017 0.9877 0.74938 0.0
C1039 C 0.65338 0.9907 0.79225 0.0
C1040 C 0.64582 1.00299 0.72722 0.0
C1041 C 0.64293 1.00097 0.68183 0.0
C1042 C 0.65654 0.99366 0.65683 0.0
C1043 C 0.65366 0.99169 0.61405 0.0
C1044 C 0.63728 0.99712 0.5959 0.0
C1045 C 0.62376 1.00458 0.62051 0.0
C1046 C 0.62656 1.00656 0.66332 0.0
C1047 C 0.6624 0.07343 0.82301 0.0
C1048 C 0.6516 0.07841 0.85632 0.0
C1049 C 0.66064 0.05605 0.80074 0.0
C1050 C 0.64828 0.04305 0.81169 0.0
C1051 C 0.63696 0.04824 0.84399 0.0
C1052 C 0.63854 0.06579 0.86595 0.0
C1053 C 0.64831 0.02377 0.79113 0.0
C1054 C 0.64488 0.02074 0.74832 0.0
C1055 C 0.6526 0.00846 0.81329 0.0
C1056 C 0.65707 0.01069 0.8582 0.0
C1057 C 0.64685 1.00144 0.88473 0.0
C1058 C 0.65092 1.00366 0.92716 0.0
C1059 C 0.66526 0.01503 0.94336 0.0
C1060 C 0.67561 0.02414 0.91715 0.0
C1061 C 0.67162 0.02193 0.87471 0.0
H1062 H 0.66838 0.01675 0.97622 0.0
H1063 H 0.63507 0.99559 0.56277 0.0
H1064 H 0.80856 0.60163 0.90891 0.0
H1065 H 0.78011 0.6019 0.94362 0.0
H1066 H 0.80726 0.62683 0.05522 0.0
H1067 H 0.83583 0.62701 1.0201 0.0
H1068 H 0.78263 0.59252 0.05824 0.0
H1069 H 0.78437 0.65409 1.01628 0.0
H1070 H 0.7881 0.67683 0.96643 0.0
H1071 H 0.744 0.65214 0.88985 0.0
H1072 H 0.7402 0.62905 0.93894 0.0
H1073 H 0.70061 0.60851 0.16017 0.0
H1074 H 0.73094 0.61043 0.13471 0.0
H1075 H 0.70782 0.60821 1.01025 0.0
H1076 H 0.67752 0.60724 0.03604 0.0
H1077 H 0.73209 0.63281 1.01849 0.0
H1078 H 0.73062 0.57058 0.05347 0.0
H1079 H 0.72665 0.54573 0.09809 0.0
H1080 H 0.76942 0.56859 0.18142 0.0
H1081 H 0.77349 0.59373 0.13754 0.0
C1082 C 0.80844 0.60715 0.94087 0.0
C1083 C 0.82432 0.61425 0.96199 0.0
C1084 C 0.79223 0.60732 0.96057 0.0
C1085 C 0.79166 0.61437 1.00188 0.0
C1086 C 0.80751 0.62132 0.02329 0.0
C1087 C 0.82373 0.62149 1.00328 0.0
C1088 C 0.77434 0.61444 0.02221 0.0
C1089 C 0.77163 0.60153 0.05028 0.0
C1090 C 0.75992 0.62581 1.01058 0.0
C1091 C 0.76213 0.63973 0.98111 0.0
C1092 C 0.77559 0.65339 0.98862 0.0
C1093 C 0.77769 0.66637 0.96054 0.0
C1094 C 0.76632 0.6659 0.92494 0.0
C1095 C 0.75281 0.65247 0.91741 0.0
C1096 C 0.75067 0.63945 0.94537 0.0
C1097 C 0.70211 0.60827 0.12738 0.0
C1098 C 0.68683 0.60766 0.09997 0.0
C1099 C 0.71942 0.6093 0.11279 0.0
C1100 C 0.72177 0.60924 0.07042 0.0
C1101 C 0.70643 0.60835 0.04306 0.0
C1102 C 0.68913 0.60771 0.05772 0.0
C1103 C 0.7401 0.61065 0.05447 0.0
C1104 C 0.74304 0.62384 0.027 0.0
C1105 C 0.75462 0.59926 0.06607 0.0
C1106 C 0.75222 0.58415 0.09246 0.0
C1107 C 0.73909 0.57039 0.08147 0.0
C1108 C 0.73684 0.55624 0.1066 0.0
C1109 C 0.74774 0.55561 0.14263 0.0
C1110 C 0.76096 0.56911 0.15354 0.0
C1111 C 0.76325 0.5833 0.12854 0.0
H1112 H 0.74598 0.54465 0.16204 0.0
H1113 H 0.76796 0.67597 0.90325 0.0
H1114 H 0.17322 0.93275 0.83049 0.0
H1115 H 0.17141 0.96068 0.7948 0.0
H1116 H 0.12558 0.97872 0.86359 0.0
H1117 H 0.12705 0.95055 0.8984 0.0
H1118 H 0.11955 0.98693 0.78943 0.0
H1119 H 0.16996 0.99661 0.8863 0.0
H1120 H 0.19896 0.98943 0.92159 0.0
H1121 H 0.22537 0.9892 0.80805 0.0
H1122 H 0.19646 0.99613 0.77193 0.0
H1123 H 0.12594 0.08096 0.7408 0.0
H1124 H 0.1253 0.05305 0.77679 0.0
H1125 H 0.16673 0.02909 0.70136 0.0
H1126 H 0.16723 0.05661 0.66494 0.0
H1127 H 0.17446 0.02491 0.78174 0.0
H1128 H 0.1226 0.01499 0.68574 0.0
H1129 H 0.0933 0.02328 0.65339 0.0
H1130 H 0.06939 0.02572 0.77034 0.0
H1131 H 0.09862 0.01763 0.80346 0.0
C1132 C 0.16276 0.94268 0.83799 0.0
C1133 C 0.15031 0.9394 0.86737 0.0
C1134 C 0.16176 0.95872 0.81767 0.0
C1135 C 0.14855 0.97213 0.82689 0.0
C1136 C 0.13591 0.9687 0.85576 0.0
C1137 C 0.13676 0.95254 0.87567 0.0
C1138 C 0.14797 0.98971 0.80671 0.0
C1139 C 0.13154 0.99532 0.78832 0.0
C1140 C 0.16357 1.00077 0.80469 0.0
C1141 C 0.181 0.99672 0.82634 0.0
C1142 C 0.18193 0.99491 0.8688 0.0
C1143 C 0.19835 0.9909 0.88896 0.0
C1144 C 0.21399 0.98882 0.86706 0.0
C1145 C 0.21324 0.9908 0.82496 0.0
C1146 C 0.19684 0.99478 0.80464 0.0
C1147 C 0.13476 0.06967 0.73154 0.0
C1148 C 0.14677 0.07123 0.70014 0.0
C1149 C 0.13442 0.0537 0.75224 0.0
C1150 C 0.14599 0.03888 0.74188 0.0
C1151 C 0.15779 0.04034 0.71026 0.0
C1152 C 0.1581 0.0562 0.68954 0.0
C1153 C 0.14614 0.02193 0.76414 0.0
C1154 C 0.16249 0.01649 0.783 0.0
C1155 C 0.13044 0.01121 0.76708 0.0
C1156 C 0.11283 0.01588 0.74712 0.0
C1157 C 0.11112 0.01741 0.70459 0.0
C1158 C 0.09452 0.02205 0.68611 0.0
C1159 C 0.0795 0.02507 0.70982 0.0
C1160 C 0.08104 0.0234 0.75203 0.0
C1161 C 0.09761 0.01876 0.77066 0.0
H1162 H 0.06666 0.02868 0.69546 0.0
H1163 H 0.22669 0.98571 0.88272 0.0
H1164 H 0.68248 0.37882 0.42801 0.0
H1165 H 0.71275 0.37343 0.45808 0.0
H1166 H 0.72482 0.4313 0.46284 0.0
H1167 H 0.69443 0.43707 0.43514 0.0
H1168 H 0.75242 0.40756 0.42861 0.0
H1169 H 0.7159 0.41491 0.54766 0.0
H1170 H 0.69054 0.40702 0.58846 0.0
H1171 H 0.71048 0.35189 0.59043 0.0
H1172 H 0.73584 0.35939 0.5491 0.0
H1173 H 0.82978 0.42486 0.5589 0.0
H1174 H 0.80034 0.42308 0.52247 0.0
H1175 H 0.79277 0.36825 0.55718 0.0
H1176 H 0.82215 0.37043 0.59617 0.0
H1177 H 0.7628 0.38586 0.56687 0.0
H1178 H 0.80039 0.37779 0.45441 0.0
H1179 H 0.82557 0.38379 0.41136 0.0
H1180 H 0.8038 0.43698 0.39253 0.0
H1181 H 0.7786 0.43142 0.43595 0.0
C1182 C 0.69141 0.39051 0.43588 0.0
C1183 C 0.68573 0.40843 0.42866 0.0
C1184 C 0.70883 0.38734 0.45289 0.0
C1185 C 0.72116 0.40194 0.4627 0.0
C1186 C 0.71566 0.41976 0.45523 0.0
C1187 C 0.6982 0.423 0.43894 0.0
C1188 C 0.73974 0.39885 0.48098 0.0
C1189 C 0.75471 0.40294 0.45897 0.0
C1190 C 0.74281 0.39211 0.51988 0.0
C1191 C 0.72763 0.38764 0.54488 0.0
C1192 C 0.71479 0.40105 0.55647 0.0
C1193 C 0.70043 0.39667 0.57976 0.0
C1194 C 0.69887 0.37895 0.59192 0.0
C1195 C 0.71169 0.3656 0.58092 0.0
C1196 C 0.72606 0.36991 0.55759 0.0
C1197 C 0.82194 0.41235 0.55887 0.0
C1198 C 0.8284 0.39785 0.58101 0.0
C1199 C 0.80507 0.41125 0.53742 0.0
C1200 C 0.79418 0.39544 0.53632 0.0
C1201 C 0.8008 0.38064 0.55733 0.0
C1202 C 0.81774 0.3818 0.57929 0.0
C1203 C 0.77567 0.39497 0.5149 0.0
C1204 C 0.76065 0.39023 0.53626 0.0
C1205 C 0.77255 0.4008 0.47496 0.0
C1206 C 0.78766 0.40422 0.4487 0.0
C1207 C 0.80103 0.39082 0.44133 0.0
C1208 C 0.8153 0.39413 0.41682 0.0
C1209 C 0.8163 0.41076 0.39929 0.0
C1210 C 0.80301 0.4241 0.40615 0.0
C1211 C 0.78871 0.42086 0.43066 0.0
H1212 H 0.82736 0.41331 0.38033 0.0
H1213 H 0.68775 0.37558 0.60995 0.0
H1214 H 0.37689 0.92986 0.28518 0.0
H1215 H 0.37882 0.96061 0.32192 0.0
H1216 H 0.33837 0.97971 0.23637 0.0
H1217 H 0.33745 0.94958 0.19767 0.0
H1218 H 0.36327 1.0037 0.24748 0.0
H1219 H 0.33017 0.97081 0.33928 0.0
H1220 H 0.32438 0.94611 0.3832 0.0
H1221 H 0.3723 0.96141 0.45846 0.0
H1222 H 0.37849 0.98607 0.41465 0.0
H1223 H 0.32886 0.08133 0.36847 0.0
H1224 H 0.33245 0.04993 0.33602 0.0
H1225 H 0.3865 0.04831 0.39126 0.0
H1226 H 0.38312 0.0801 0.42299 0.0
H1227 H 0.35832 0.01597 0.39824 0.0
H1228 H 0.38904 0.05108 0.3047 0.0
H1229 H 0.39164 0.07649 0.26101 0.0
H1230 H 0.34406 0.05719 0.18892 0.0
H1231 H 0.341 0.03183 0.23265 0.0
C1232 C 0.36847 0.94062 0.274 0.0
C1233 C 0.35697 0.93709 0.23837 0.0
C1234 C 0.36943 0.95819 0.2954 0.0
C1235 C 0.35861 0.97252 0.28224 0.0
C1236 C 0.34688 0.96893 0.24722 0.0
C1237 C 0.34616 0.95152 0.22542 0.0
C1238 C 0.35979 0.99142 0.30391 0.0
C1239 C 0.36205 1.00629 0.28042 0.0
C1240 C 0.35859 0.99495 0.34706 0.0
C1241 C 0.3549 0.98014 0.37341 0.0
C1242 C 0.33955 0.96881 0.365 0.0
C1243 C 0.33618 0.95483 0.38991 0.0
C1244 C 0.348 0.95215 0.42352 0.0
C1245 C 0.36318 0.96348 0.43237 0.0
C1246 C 0.36662 0.97746 0.40753 0.0
C1247 C 0.3415 0.07425 0.37361 0.0
C1248 C 0.35572 0.083 0.39817 0.0
C1249 C 0.34354 0.05639 0.35511 0.0
C1250 C 0.35971 0.04688 0.3614 0.0
C1251 C 0.37392 0.05549 0.38621 0.0
C1252 C 0.37202 0.07358 0.40409 0.0
C1253 C 0.36155 0.02794 0.34162 0.0
C1254 C 0.35978 0.01317 0.36541 0.0
C1255 C 0.36282 0.02449 0.29869 0.0
C1256 C 0.36469 0.03967 0.27222 0.0
C1257 C 0.37902 0.05237 0.2798 0.0
C1258 C 0.38061 0.06674 0.25497 0.0
C1259 C 0.368 0.06849 0.22227 0.0
C1260 C 0.3538 0.05584 0.21429 0.0
C1261 C 0.35215 0.04145 0.23906 0.0
H1262 H 0.36925 0.07962 0.20307 0.0
H1263 H 0.34536 0.94133 0.44278 0.0
H1264 H 0.83405 0.87322 0.43363 0.0
H1265 H 0.80634 0.86908 0.46928 0.0
H1266 H 0.79615 0.92735 0.47337 0.0
H1267 H 0.82418 0.93172 0.4406 0.0
H1268 H 0.78774 0.91767 0.54135 0.0
H1269 H 0.77332 0.89195 0.40226 0.0
H1270 H 0.77699 0.87116 0.3392 0.0
H1271 H 0.7702 0.82428 0.40656 0.0
H1272 H 0.76671 0.84481 0.47016 0.0
H1273 H 0.69403 0.92198 0.5698 0.0
H1274 H 0.72283 0.92097 0.53718 0.0
H1275 H 0.73163 0.86584 0.56985 0.0
H1276 H 0.70298 0.86694 0.60418 0.0
H1277 H 0.74133 0.87129 0.4873 0.0
H1278 H 0.75334 0.89857 0.62567 0.0
H1279 H 0.74825 0.92041 0.68627 0.0
H1280 H 0.75846 0.96578 0.61655 0.0
H1281 H 0.76332 0.94421 0.55531 0.0
C1282 C 0.82603 0.8852 0.44248 0.0
C1283 C 0.83145 0.90279 0.4333 0.0
C1284 C 0.80996 0.88278 0.4625 0.0
C1285 C 0.79871 0.89783 0.47355 0.0
C1286 C 0.80433 0.9154 0.46518 0.0
C1287 C 0.82041 0.91785 0.4457 0.0
C1288 C 0.7812 0.89562 0.49408 0.0
C1289 C 0.7776 0.9076 0.52905 0.0
C1290 C 0.76787 0.88225 0.47918 0.0
C1291 C 0.76997 0.8699 0.44104 0.0
C1292 C 0.77275 0.8772 0.40368 0.0
C1293 C 0.77477 0.86547 0.36783 0.0
C1294 C 0.77389 0.84641 0.3689 0.0
C1295 C 0.77092 0.83904 0.4058 0.0
C1296 C 0.76891 0.85072 0.44174 0.0
C1297 C 0.70206 0.90962 0.5705 0.0
C1298 C 0.69609 0.89465 0.5905 0.0
C1299 C 0.71857 0.90904 0.55146 0.0
C1300 C 0.72962 0.89342 0.55135 0.0
C1301 C 0.72341 0.87808 0.56949 0.0
C1302 C 0.70691 0.87872 0.58901 0.0
C1303 C 0.7479 0.89358 0.5337 0.0
C1304 C 0.7516 0.88123 0.4995 0.0
C1305 C 0.76125 0.90677 0.5489 0.0
C1306 C 0.75855 0.91977 0.58581 0.0
C1307 C 0.75437 0.91321 0.62317 0.0
C1308 C 0.75154 0.92554 0.65765 0.0
C1309 C 0.75299 0.94447 0.65524 0.0
C1310 C 0.75732 0.95111 0.61837 0.0
C1311 C 0.76013 0.93884 0.58377 0.0
H1312 H 0.7508 0.954 0.68197 0.0
H1313 H 0.77545 0.83734 0.34112 0.0
H1314 H 0.34531 0.43697 0.82643 0.0
H1315 H 0.34728 0.46588 0.79461 0.0
H1316 H 0.3989 0.47763 0.85913 0.0
H1317 H 0.39697 0.4488 0.89117 0.0
H1318 H 0.37568 0.508 0.86179 0.0
H1319 H 0.39883 0.46278 0.76218 0.0
H1320 H 0.39845 0.43364 0.71717 0.0
H1321 H 0.35019 0.45035 0.65264 0.0
H1322 H 0.35012 0.4795 0.69768 0.0
H1323 H 0.39296 0.58331 0.74373 0.0
H1324 H 0.39607 0.55523 0.77877 0.0
H1325 H 0.34938 0.53192 0.70778 0.0
H1326 H 0.34698 0.55908 0.67092 0.0
H1327 H 0.3738 0.50722 0.70989 0.0
H1328 H 0.34869 0.55083 0.81258 0.0
H1329 H 0.34816 0.5798 0.85812 0.0
H1330 H 0.39892 0.56618 0.91689 0.0
H1331 H 0.39984 0.5372 0.87137 0.0
C1332 C 0.35702 0.44578 0.83392 0.0
C1333 C 0.37104 0.44062 0.86101 0.0
C1334 C 0.35818 0.46221 0.81564 0.0
C1335 C 0.37331 0.47379 0.82432 0.0
C1336 C 0.38715 0.46885 0.85198 0.0
C1337 C 0.38608 0.45235 0.86998 0.0
C1338 C 0.37473 0.49097 0.80413 0.0
C1339 C 0.37552 0.50787 0.8286 0.0
C1340 C 0.37433 0.49073 0.76086 0.0
C1341 C 0.37439 0.47326 0.73355 0.0
C1342 C 0.38805 0.46018 0.73861 0.0
C1343 C 0.38793 0.44367 0.71305 0.0
C1344 C 0.37428 0.44012 0.68212 0.0
C1345 C 0.36074 0.45311 0.67663 0.0
C1346 C 0.36079 0.46963 0.70214 0.0
C1347 C 0.38344 0.57215 0.73545 0.0
C1348 C 0.36956 0.57364 0.70485 0.0
C1349 C 0.38512 0.55617 0.7558 0.0
C1350 C 0.3728 0.54152 0.74633 0.0
C1351 C 0.35902 0.54301 0.71579 0.0
C1352 C 0.3575 0.55876 0.69512 0.0
C1353 C 0.37417 0.52441 0.76743 0.0
C1354 C 0.37403 0.50744 0.74311 0.0
C1355 C 0.37502 0.52461 0.81081 0.0
C1356 C 0.37443 0.54196 0.83831 0.0
C1357 C 0.35979 0.55408 0.83504 0.0
C1358 C 0.35941 0.57048 0.86088 0.0
C1359 C 0.37352 0.57485 0.8903 0.0
C1360 C 0.38802 0.56279 0.89405 0.0
C1361 C 0.38847 0.54637 0.86827 0.0
H1362 H 0.3732 0.58757 0.91027 0.0
H1363 H 0.37421 0.42733 0.66237 0.0
H1364 H 0.68831 0.12331 1.0101 0.0
H1365 H 0.71887 0.12503 0.0426 0.0
H1366 H 0.74081 0.1093 0.92488 0.0
H1367 H 0.71025 0.10706 0.89261 0.0
H1368 H 0.75689 0.09084 0.97876 0.0
H1369 H 0.74319 0.15476 0.97481 0.0
H1370 H 0.72548 0.18317 0.9871 0.0
H1371 H 0.73119 0.17959 0.11734 0.0
H1372 H 0.74873 0.15101 0.1058 0.0
H1373 H 0.84826 0.11178 0.0369 0.0
H1374 H 0.81785 0.11518 1.0056 0.0
H1375 H 0.7961 0.11957 0.12562 0.0
H1376 H 0.82655 0.11623 0.15723 0.0
H1377 H 0.78028 0.14445 0.07143 0.0
H1378 H 0.79374 0.07993 0.07339 0.0
H1379 H 0.81211 0.05208 0.05967 0.0
H1380 H 0.80733 0.05778 0.93019 0.0
H1381 H 0.78915 0.08585 0.94322 0.0
C1382 C 0.69968 0.12038 0.99116 0.0
C1383 C 0.69689 0.11504 0.94884 0.0
C1384 C 0.71717 0.12143 1.00972 0.0
C1385 C 0.73226 0.11753 0.98618 0.0
C1386 C 0.72945 0.11234 0.9438 0.0
C1387 C 0.71197 0.11106 0.92536 0.0
C1388 C 0.75092 0.11814 1.00578 0.0
C1389 C 0.76203 0.10272 0.99846 0.0
C1390 C 0.75763 0.13344 0.03236 0.0
C1391 C 0.74712 0.15064 0.03941 0.0
C1392 C 0.74055 0.15996 1.00606 0.0
C1393 C 0.73056 0.1761 1.01289 0.0
C1394 C 0.72717 0.18315 0.05297 0.0
C1395 C 0.73381 0.1741 0.08631 0.0
C1396 C 0.74379 0.15793 0.07964 0.0
C1397 C 0.83706 0.11387 0.05671 0.0
C1398 C 0.83979 0.11371 0.09954 0.0
C1399 C 0.81968 0.11569 0.03876 0.0
C1400 C 0.80471 0.11745 0.06327 0.0
C1401 C 0.80747 0.1182 0.10617 0.0
C1402 C 0.82484 0.11621 0.12414 0.0
C1403 C 0.78611 0.11727 0.04393 0.0
C1404 C 0.77505 0.13268 0.05148 0.0
C1405 C 0.77946 0.10206 1.01725 0.0
C1406 C 0.79024 0.08509 1.00932 0.0
C1407 C 0.79673 0.07533 0.04202 0.0
C1408 C 0.80709 0.05949 0.03437 0.0
C1409 C 0.81092 0.05319 0.99409 0.0
C1410 C 0.80437 0.06269 0.96137 0.0
C1411 C 0.79403 0.07856 0.96888 0.0
H1412 H 0.81894 0.04093 0.98822 0.0
H1413 H 0.71944 0.19565 0.0582 0.0
H1414 H 0.14143 0.56049 0.41325 0.0
H1415 H 0.13963 0.53095 0.37063 0.0
H1416 H 0.14632 0.55902 0.26241 0.0
H1417 H 0.14745 0.58869 0.30516 0.0
H1418 H 0.1245 0.53062 0.24273 0.0
H1419 H 0.18224 0.53897 0.31406 0.0
H1420 H 0.20352 0.54541 0.37434 0.0
H1421 H 0.18438 0.49767 0.42588 0.0
H1422 H 0.16274 0.49112 0.36621 0.0
H1423 H 0.16348 0.45492 0.12103 0.0
H1424 H 0.15844 0.48427 0.16195 0.0
H1425 H 0.14201 0.45503 0.26199 0.0
H1426 H 0.14683 0.42559 0.22092 0.0
H1427 H 0.16801 0.48358 0.2856 0.0
H1428 H 0.11082 0.47516 0.20954 0.0
H1429 H 0.09078 0.4694 0.14694 0.0
H1430 H 0.1111 0.51798 0.10086 0.0
H1431 H 0.13147 0.52389 0.16296 0.0
C1432 C 0.14198 0.56035 0.3802 0.0
C1433 C 0.14439 0.57684 0.36239 0.0
C1434 C 0.14117 0.54345 0.35586 0.0
C1435 C 0.14328 0.54259 0.31324 0.0
C1436 C 0.14472 0.55921 0.29514 0.0
C1437 C 0.14529 0.57618 0.31951 0.0
C1438 C 0.14511 0.52442 0.28821 0.0
C1439 C 0.13415 0.52045 0.25197 0.0
C1440 C 0.15758 0.51091 0.30016 0.0
C1441 C 0.17074 0.51466 0.33585 0.0
C1442 C 0.18248 0.52991 0.33838 0.0
C1443 C 0.19461 0.53358 0.37243 0.0
C1444 C 0.19527 0.52198 0.40397 0.0
C1445 C 0.18383 0.50666 0.40146 0.0
C1446 C 0.17163 0.50296 0.36752 0.0
C1447 C 0.15873 0.45474 0.1517 0.0
C1448 C 0.15554 0.4379 0.1677 0.0
C1449 C 0.15578 0.47153 0.175 0.0
C1450 C 0.14978 0.4719 0.21506 0.0
C1451 C 0.14661 0.45512 0.23116 0.0
C1452 C 0.14927 0.4383 0.20758 0.0
C1453 C 0.14732 0.4898 0.24044 0.0
C1454 C 0.15828 0.49374 0.27659 0.0
C1455 C 0.13507 0.50336 0.22803 0.0
C1456 C 0.1228 0.49987 0.19073 0.0
C1457 C 0.11114 0.48453 0.1859 0.0
C1458 C 0.09969 0.48125 0.15053 0.0
C1459 C 0.0997 0.49329 0.11989 0.0
C1460 C 0.11113 0.50866 0.1246 0.0
C1461 C 0.12261 0.51198 0.15989 0.0
H1462 H 0.09083 0.49073 0.09254 0.0
H1463 H 0.20467 0.52484 0.43031 0.0
H1464 H 0.30118 0.13088 0.42813 0.0
H1465 H 0.27328 0.13216 0.4651 0.0
H1466 H 0.3041 0.12469 0.578 0.0
H1467 H 0.33197 0.12291 0.54048 0.0
H1468 H 0.27648 0.10207 0.56883 0.0
H1469 H 0.28345 0.16665 0.55957 0.0
H1470 H 0.28816 0.19466 0.52504 0.0
H1471 H 0.23952 0.18325 0.44948 0.0
H1472 H 0.23464 0.15504 0.48315 0.0
H1473 H 0.19929 0.11246 0.68808 0.0
H1474 H 0.22872 0.11834 0.66134 0.0
H1475 H 0.20293 0.12424 0.54199 0.0
H1476 H 0.17354 0.11842 0.5685 0.0
H1477 H 0.22898 0.14956 0.5598 0.0
H1478 H 0.22349 0.08401 0.56405 0.0
H1479 H 0.21857 0.05564 0.5971 0.0
H1480 H 0.26447 0.06867 0.6807 0.0
H1481 H 0.2695 0.09728 0.6485 0.0
C1482 C 0.30194 0.12992 0.461 0.0
C1483 C 0.3186 0.12706 0.48176 0.0
C1484 C 0.28604 0.13068 0.48215 0.0
C1485 C 0.28655 0.12877 0.52455 0.0
C1486 C 0.30334 0.12628 0.54539 0.0
C1487 C 0.31924 0.12539 0.52412 0.0
C1488 C 0.26949 0.12806 0.54635 0.0
C1489 C 0.26627 0.11267 0.56755 0.0
C1490 C 0.25591 0.14162 0.54386 0.0
C1491 C 0.25875 0.15865 0.52371 0.0
C1492 C 0.27382 0.17005 0.5354 0.0
C1493 C 0.27651 0.18597 0.516 0.0
C1494 C 0.26417 0.19071 0.48503 0.0
C1495 C 0.24908 0.17956 0.47346 0.0
C1496 C 0.24633 0.16361 0.49273 0.0
C1497 C 0.1999 0.11506 0.65618 0.0
C1498 C 0.18406 0.11492 0.63041 0.0
C1499 C 0.21672 0.11843 0.64092 0.0
C1500 C 0.21808 0.12151 0.59948 0.0
C1501 C 0.20224 0.12195 0.57407 0.0
C1502 C 0.18543 0.11866 0.58933 0.0
C1503 C 0.236 0.12355 0.582 0.0
C1504 C 0.23933 0.13912 0.56151 0.0
C1505 C 0.24968 0.11014 0.58498 0.0
C1506 C 0.24674 0.09288 0.60417 0.0
C1507 C 0.23245 0.0809 0.58968 0.0
C1508 C 0.22965 0.06476 0.60823 0.0
C1509 C 0.24117 0.06038 0.64106 0.0
C1510 C 0.25554 0.0721 0.65532 0.0
C1511 C 0.25837 0.08827 0.63693 0.0
H1512 H 0.23898 0.04788 0.65538 0.0
H1513 H 0.26628 0.20304 0.47005 0.0
H1514 H 0.62192 0.43747 0.30802 0.0
H1515 H 0.61798 0.46532 0.27228 0.0
H1516 H 0.66014 0.4924 0.35197 0.0
H1517 H 0.6637 0.465 0.38853 0.0
H1518 H 0.63407 0.51585 0.342 0.0
H1519 H 0.66647 0.47418 0.24952 0.0
H1520 H 0.67158 0.44525 0.20626 0.0
H1521 H 0.62264 0.4535 0.13417 0.0
H1522 H 0.61712 0.48238 0.17738 0.0
H1523 H 0.66334 0.58667 0.22655 0.0
H1524 H 0.65939 0.55962 0.26375 0.0
H1525 H 0.61415 0.5421 0.18079 0.0
H1526 H 0.61809 0.56942 0.14339 0.0
H1527 H 0.63793 0.5137 0.19083 0.0
H1528 H 0.60734 0.55723 0.28006 0.0
H1529 H 0.60303 0.58644 0.32292 0.0
H1530 H 0.64921 0.5749 0.40104 0.0
H1531 H 0.65397 0.54574 0.35829 0.0
C1532 C 0.63027 0.44938 0.3182 0.0
C1533 C 0.6433 0.44872 0.35108 0.0
C1534 C 0.62811 0.46533 0.29739 0.0
C1535 C 0.63893 0.48109 0.3088 0.0
C1536 C 0.65164 0.48055 0.34217 0.0
C1537 C 0.65379 0.46468 0.36289 0.0
C1538 C 0.63722 0.49813 0.28629 0.0
C1539 C 0.63508 0.51532 0.30897 0.0
C1540 C 0.63799 0.49766 0.24294 0.0
C1541 C 0.64127 0.48032 0.21698 0.0
C1542 C 0.65672 0.46975 0.22465 0.0
C1543 C 0.65971 0.45337 0.20011 0.0
C1544 C 0.64741 0.44751 0.16757 0.0
C1545 C 0.63213 0.45803 0.15944 0.0
C1546 C 0.62907 0.47441 0.18393 0.0
C1547 C 0.65228 0.57728 0.21677 0.0
C1548 C 0.64091 0.58035 0.18224 0.0
C1549 C 0.65004 0.56175 0.23807 0.0
C1550 C 0.63642 0.54869 0.2254 0.0
C1551 C 0.62475 0.55191 0.19138 0.0
C1552 C 0.62687 0.56764 0.17025 0.0
C1553 C 0.63509 0.5314 0.24667 0.0
C1554 C 0.63671 0.51418 0.22379 0.0
C1555 C 0.63391 0.53184 0.28987 0.0
C1556 C 0.63109 0.54935 0.31575 0.0
C1557 C 0.61667 0.56099 0.30619 0.0
C1558 C 0.61413 0.57752 0.3305 0.0
C1559 C 0.62586 0.58254 0.36463 0.0
C1560 C 0.64014 0.571 0.37457 0.0
C1561 C 0.64275 0.55446 0.35034 0.0
H1562 H 0.62387 0.59535 0.38342 0.0
H1563 H 0.64975 0.43483 0.14859 0.0
H1564 H 0.17636 0.89438 1.01219 0.0
H1565 H 0.2055 0.89005 0.0487 0.0
H1566 H 0.23287 0.89778 0.93884 0.0
H1567 H 0.20371 0.90183 0.90187 0.0
H1568 H 0.24864 0.87008 0.97975 0.0
H1569 H 0.23062 0.93264 1.01353 0.0
H1570 H 0.21005 0.95738 0.03801 0.0
H1571 H 0.20983 0.93601 0.15562 0.0
H1572 H 0.23021 0.91098 0.13162 0.0
H1573 H 0.33662 0.89162 0.07797 0.0
H1574 H 0.30785 0.88947 0.03695 0.0
H1575 H 0.27916 0.88847 0.14785 0.0
H1576 H 0.30781 0.89103 0.18872 0.0
H1577 H 0.26404 0.91233 0.10484 0.0
H1578 H 0.2825 0.84996 0.07215 0.0
H1579 H 0.30283 0.82499 0.04776 0.0
H1580 H 0.30222 0.8454 0.92906 0.0
H1581 H 0.28206 0.87065 0.95291 0.0
C1582 C 0.18853 0.89486 0.99549 0.0
C1583 C 0.18757 0.89853 0.95397 0.0
C1584 C 0.20526 0.89253 1.01658 0.0
C1585 C 0.22152 0.89379 0.9968 0.0
C1586 C 0.2206 0.89678 0.95496 0.0
C1587 C 0.20387 0.89923 0.9339 0.0
C1588 C 0.23944 0.89278 1.02017 0.0
C1589 C 0.25209 0.87944 1.00687 0.0
C1590 C 0.24395 0.90474 0.05605 0.0
C1591 C 0.23179 0.91983 0.07064 0.0
C1592 C 0.22607 0.93314 0.04451 0.0
C1593 C 0.21447 0.94722 0.05831 0.0
C1594 C 0.2086 0.94824 0.09831 0.0
C1595 C 0.21437 0.93519 0.12462 0.0
C1596 C 0.22595 0.92106 0.11095 0.0
C1597 C 0.3242 0.89044 0.09346 0.0
C1598 C 0.32456 0.89146 0.13666 0.0
C1599 C 0.30768 0.88926 0.06995 0.0
C1600 C 0.29112 0.88879 0.08905 0.0
C1601 C 0.2916 0.88894 0.13211 0.0
C1602 C 0.30804 0.89029 0.15553 0.0
C1603 C 0.27329 0.88942 0.06491 0.0
C1604 C 0.26064 0.90283 0.07792 0.0
C1605 C 0.26881 0.87747 0.02889 0.0
C1606 C 0.28092 0.86231 1.01446 0.0
C1607 C 0.28681 0.84921 0.04094 0.0
C1608 C 0.29829 0.83499 0.0272 0.0
C1609 C 0.30385 0.83364 0.98692 0.0
C1610 C 0.29792 0.84648 0.96027 0.0
C1611 C 0.28646 0.86074 0.97387 0.0
H1612 H 0.31273 0.82262 0.97634 0.0
H1613 H 0.19961 0.95916 0.10895 0.0
H1614 H 0.86705 0.5912 0.8131 0.0
H1615 H 0.87054 0.56156 0.77223 0.0
H1616 H 0.87081 0.53377 0.88258 0.0
H1617 H 0.86731 0.56338 0.9236 0.0
H1618 H 0.89622 0.51944 0.82515 0.0
H1619 H 0.83311 0.53527 0.82988 0.0
H1620 H 0.80686 0.55554 0.82135 0.0
H1621 H 0.8158 0.55551 0.69282 0.0
H1622 H 0.84231 0.53547 0.70077 0.0
H1623 H 0.8723 0.42861 0.74041 0.0
H1624 H 0.87491 0.45878 0.7802 0.0
H1625 H 0.86332 0.48519 0.66942 0.0
H1626 H 0.86015 0.45503 0.6299 0.0
H1627 H 0.84472 0.50088 0.72652 0.0
H1628 H 0.90701 0.48426 0.71967 0.0
H1629 H 0.93375 0.46457 0.7273 0.0
H1630 H 0.92735 0.4665 0.85724 0.0
H1631 H 0.9004 0.48601 0.85031 0.0
C1632 C 0.86827 0.57882 0.82872 0.0
C1633 C 0.86685 0.57957 0.8715 0.0
C1634 C 0.87016 0.56189 0.80534 0.0
C1635 C 0.87077 0.54547 0.82437 0.0
C1636 C 0.87036 0.54628 0.86731 0.0
C1637 C 0.86828 0.56317 0.89065 0.0
C1638 C 0.87043 0.52738 0.79932 0.0
C1639 C 0.88492 0.51526 0.80378 0.0
C1640 C 0.85584 0.52214 0.77091 0.0
C1641 C 0.8398 0.53404 0.76601 0.0
C1642 C 0.82957 0.53971 0.79988 0.0
C1643 C 0.81463 0.55114 0.79514 0.0
C1644 C 0.80969 0.55685 0.75659 0.0
C1645 C 0.81966 0.5511 0.72268 0.0
C1646 C 0.83464 0.5397 0.72728 0.0
C1647 C 0.8705 0.44088 0.72458 0.0
C1648 C 0.86603 0.43949 0.68209 0.0
C1649 C 0.87205 0.45814 0.74729 0.0
C1650 C 0.86955 0.47436 0.72781 0.0
C1651 C 0.86529 0.47293 0.68525 0.0
C1652 C 0.86348 0.4557 0.66266 0.0
C1653 C 0.87063 0.49278 0.75192 0.0
C1654 C 0.85617 0.50499 0.7475 0.0
C1655 C 0.88534 0.49813 0.7801 0.0
C1656 C 0.90159 0.48647 0.7844 0.0
C1657 C 0.91122 0.48038 0.74983 0.0
C1658 C 0.92643 0.46927 0.75403 0.0
C1659 C 0.93222 0.46425 0.79271 0.0
C1660 C 0.92284 0.47038 0.82729 0.0
C1661 C 0.90761 0.48149 0.82325 0.0
H1662 H 0.94399 0.45564 0.7959 0.0
H1663 H 0.79812 0.56569 0.75297 0.0
H1664 H 0.12974 0.22404 0.68177 0.0
H1665 H 0.13228 0.24489 0.74533 0.0
H1666 H 0.12351 0.19926 0.81618 0.0
H1667 H 0.12088 0.17847 0.75312 0.0
H1668 H 0.10088 0.22656 0.83655 0.0
H1669 H 0.16475 0.22154 0.81911 0.0
H1670 H 0.19268 0.22318 0.78208 0.0
H1671 H 0.18367 0.28062 0.7711 0.0
H1672 H 0.15554 0.27927 0.80761 0.0
H1673 H 0.11746 0.27106 0.03832 0.0
H1674 H 0.11862 0.25101 0.97411 0.0
H1675 H 0.12762 0.29824 0.90834 0.0
H1676 H 0.12648 0.3184 0.97251 0.0
H1677 H 0.14996 0.27095 0.88429 0.0
H1678 H 0.08653 0.27661 0.89924 0.0
H1679 H 0.0572 0.27558 0.93098 0.0
H1680 H 0.0643 0.21805 0.94382 0.0
H1681 H 0.09375 0.21874 0.91228 0.0
C1682 C 0.1289 0.21835 0.71094 0.0
C1683 C 0.12507 0.19954 0.71219 0.0
C1684 C 0.13026 0.23033 0.74736 0.0
C1685 C 0.12797 0.22372 0.78575 0.0
C1686 C 0.12517 0.20478 0.78707 0.0
C1687 C 0.12379 0.19286 0.75086 0.0
C1688 C 0.12718 0.23652 0.82423 0.0
C1689 C 0.11177 0.23605 0.84732 0.0
C1690 C 0.14104 0.24942 0.83766 0.0
C1691 C 0.15794 0.25025 0.81572 0.0
C1692 C 0.16864 0.23449 0.80849 0.0
C1693 C 0.18453 0.23537 0.78766 0.0
C1694 C 0.18992 0.25198 0.77414 0.0
C1695 C 0.17946 0.26776 0.78153 0.0
C1696 C 0.16356 0.26694 0.80232 0.0
C1697 C 0.11975 0.27721 1.01025 0.0
C1698 C 0.12193 0.29639 1.01071 0.0
C1699 C 0.12027 0.26571 0.97342 0.0
C1700 C 0.12305 0.27307 0.93613 0.0
C1701 C 0.12545 0.29219 0.9366 0.0
C1702 C 0.12478 0.30372 0.97338 0.0
C1703 C 0.12377 0.26081 0.89688 0.0
C1704 C 0.13911 0.26141 0.87361 0.0
C1705 C 0.10977 0.24811 0.88306 0.0
C1706 C 0.09245 0.24778 0.90374 0.0
C1707 C 0.08195 0.26378 0.90923 0.0
C1708 C 0.06524 0.26323 0.92694 0.0
C1709 C 0.05888 0.24675 0.93932 0.0
C1710 C 0.06924 0.2308 0.93416 0.0
C1711 C 0.08592 0.23126 0.91629 0.0
H1712 H 0.04592 0.24636 0.95289 0.0
H1713 H 0.20223 0.25264 0.75803 0.0
H1714 H 0.05468 0.83621 0.0237 0.0
H1715 H 0.03268 0.84029 0.07689 0.0
H1716 H 0.04976 0.89672 0.1054 0.0
H1717 H 0.07226 0.89242 0.0527 0.0
H1718 H 0.04512 0.88388 0.17367 0.0
H1719 H 0.00857 0.88122 0.04988 0.0
H1720 H 0.99468 0.87007 0.98186 0.0
H1721 H 0.97396 0.82256 0.03147 0.0
H1722 H 0.98833 0.83298 0.09941 0.0
H1723 H 0.9681 0.89827 0.30316 0.0
H1724 H 0.98797 0.90087 0.24584 0.0
H1725 H 0.98802 0.84181 0.22099 0.0
H1726 H 0.96871 0.83914 0.27803 0.0
H1727 H 0.98239 0.86029 0.14958 0.0
H1728 H 0.02325 0.86193 0.27079 0.0
H1729 H 0.03513 0.87474 0.33953 0.0
H1730 H 0.04524 0.92651 0.29292 0.0
H1731 H 0.03317 0.91405 0.22398 0.0
C1732 C 0.054 0.84937 0.04191 0.0
C1733 C 0.06555 0.86384 0.03485 0.0
C1734 C 0.04117 0.85179 0.07194 0.0
C1735 C 0.03928 0.86884 0.09539 0.0
C1736 C 0.05084 0.88338 0.08809 0.0
C1737 C 0.06372 0.88094 0.05795 0.0
C1738 C 0.02567 0.87119 0.12813 0.0
C1739 C 0.03132 0.87901 0.16788 0.0
C1740 C 1.00754 0.86471 0.12141 0.0
C1741 C 0.99969 0.85787 0.07988 0.0
C1742 C 1.00132 0.86824 0.04622 0.0
C1743 C 0.99332 0.86205 1.00764 0.0
C1744 C 0.98339 0.84565 1.0024 0.0
C1745 C 0.98158 0.83531 0.03562 0.0
C1746 C 0.98975 0.8413 0.07413 0.0
C1747 C 0.97228 0.88589 0.28528 0.0
C1748 C 0.96683 0.8685 0.29542 0.0
C1749 C 0.98371 0.88737 0.25262 0.0
C1750 C 0.98961 0.87151 0.22901 0.0
C1751 C 0.98373 0.85426 0.23855 0.0
C1752 C 0.97268 0.85276 0.27142 0.0
C1753 C 1.00206 0.87251 0.19462 0.0
C1754 C 0.99617 0.86531 0.15476 0.0
C1755 C 0.01984 0.87967 0.20103 0.0
C1756 C 0.0271 0.88714 0.24239 0.0
C1757 C 0.02784 0.8761 0.2753 0.0
C1758 C 0.03465 0.88328 0.31427 0.0
C1759 C 0.04088 0.90145 0.32063 0.0
C1760 C 0.04037 0.91245 0.28798 0.0
C1761 C 0.03356 0.90534 0.24895 0.0
H1762 H 0.04615 0.90699 0.35082 0.0
H1763 H 0.9771 0.84094 0.97259 0.0
H1764 H 0.39051 0.72151 0.49648 0.0
H1765 H 0.38469 0.74363 0.4454 0.0
H1766 H 0.43154 0.72396 0.38232 0.0
H1767 H 0.43744 0.70205 0.4328 0.0
H1768 H 0.4315 0.76099 0.39611 0.0
H1769 H 0.38918 0.7129 0.34336 0.0
H1770 H 0.36341 0.69194 0.34743 0.0
H1771 H 0.32863 0.73822 0.37273 0.0
H1772 H 0.35428 0.75946 0.36935 0.0
H1773 H 0.41595 0.78762 0.18964 0.0
H1774 H 0.41485 0.76726 0.24492 0.0
H1775 H 0.38814 0.80964 0.31997 0.0
H1776 H 0.39008 0.83041 0.26563 0.0
H1777 H 0.37599 0.76401 0.30533 0.0
H1778 H 0.41899 0.81228 0.35676 0.0
H1779 H 0.44547 0.83259 0.35599 0.0
H1780 H 0.47976 0.78546 0.33813 0.0
H1781 H 0.45333 0.76487 0.33627 0.0
C1782 C 0.39947 0.72183 0.47152 0.0
C1783 C 0.41449 0.71007 0.46888 0.0
C1784 C 0.39611 0.73444 0.44231 0.0
C1785 C 0.40769 0.73546 0.41001 0.0
C1786 C 0.42247 0.7235 0.40705 0.0
C1787 C 0.4258 0.71094 0.43599 0.0
C1788 C 0.4051 0.74939 0.37998 0.0
C1789 C 0.41939 0.76158 0.37613 0.0
C1790 C 0.3891 0.7505 0.3547 0.0
C1791 C 0.37369 0.73775 0.35658 0.0
C1792 C 0.37607 0.7186 0.35015 0.0
C1793 C 0.36148 0.70667 0.35226 0.0
C1794 C 0.34441 0.71375 0.36047 0.0
C1795 C 0.34188 0.73276 0.36645 0.0
C1796 C 0.35643 0.74475 0.36442 0.0
C1797 C 0.40953 0.79244 0.21761 0.0
C1798 C 0.40302 0.81053 0.22336 0.0
C1799 C 0.40903 0.78088 0.24923 0.0
C1800 C 0.40164 0.78708 0.28665 0.0
C1801 C 0.39407 0.80471 0.29145 0.0
C1802 C 0.39509 0.81649 0.26038 0.0
C1803 C 0.40256 0.77531 0.32111 0.0
C1804 C 0.38801 0.76352 0.32566 0.0
C1805 C 0.41834 0.77457 0.34722 0.0
C1806 C 0.43403 0.78701 0.34519 0.0
C1807 C 0.43204 0.80623 0.35121 0.0
C1808 C 0.44708 0.81781 0.35151 0.0
C1809 C 0.46425 0.81031 0.34684 0.0
C1810 C 0.46643 0.79124 0.34161 0.0
C1811 C 0.4514 0.77962 0.34048 0.0
H1812 H 0.47589 0.81925 0.34737 0.0
H1813 H 0.33313 0.70449 0.36209 0.0
H1814 H 0.42505 0.14956 0.52177 0.0
H1815 H 0.44665 0.14537 0.57902 0.0
H1816 H 0.48868 0.13431 0.49412 0.0
H1817 H 0.46695 0.13806 0.4364 0.0
H1818 H 0.49303 0.11339 0.55722 0.0
H1819 H 0.48287 0.17776 0.5436 0.0
H1820 H 0.46476 0.20594 0.53917 0.0
H1821 H 0.44494 0.20036 0.65813 0.0
H1822 H 0.46273 0.17204 0.66308 0.0
H1823 H 0.56783 0.13843 0.69886 0.0
H1824 H 0.54515 0.13514 0.64155 0.0
H1825 H 0.50308 0.14716 0.72593 0.0
H1826 H 0.52573 0.15081 0.78338 0.0
H1827 H 0.49872 0.16694 0.66291 0.0
H1828 H 0.50963 0.10313 0.67766 0.0
H1829 H 0.52811 0.07529 0.68272 0.0
H1830 H 0.54686 0.07991 0.56234 0.0
H1831 H 0.52867 0.10794 0.55677 0.0
C1832 C 0.4388 0.14586 0.51514 0.0
C1833 C 0.44429 0.14429 0.47448 0.0
C1834 C 0.45119 0.14359 0.54798 0.0
C1835 C 0.46943 0.14003 0.54105 0.0
C1836 C 0.47471 0.13719 0.50031 0.0
C1837 C 0.46225 0.13928 0.46729 0.0
C1838 C 0.4831 0.14041 0.5763 0.0
C1839 C 0.49441 0.12517 0.5801 0.0
C1840 C 0.48475 0.15567 0.60664 0.0
C1841 C 0.47401 0.17269 0.60355 0.0
C1842 C 0.47454 0.18247 0.56867 0.0
C1843 C 0.46435 0.19847 0.56609 0.0
C1844 C 0.45369 0.20488 0.59833 0.0
C1845 C 0.4532 0.19535 0.6332 0.0
C1846 C 0.46334 0.17934 0.63592 0.0
C1847 C 0.55374 0.14018 0.70535 0.0
C1848 C 0.54862 0.1449 0.74582 0.0
C1849 C 0.54075 0.13821 0.67248 0.0
C1850 C 0.52234 0.14074 0.67932 0.0
C1851 C 0.51718 0.14513 0.71979 0.0
C1852 C 0.53016 0.14716 0.75267 0.0
C1853 C 0.50856 0.13984 0.64417 0.0
C1854 C 0.4973 0.15508 0.64022 0.0
C1855 C 0.50701 0.12462 0.61375 0.0
C1856 C 0.51792 0.10774 0.61697 0.0
C1857 C 0.5178 0.09829 0.65239 0.0
C1858 C 0.52821 0.08246 0.65533 0.0
C1859 C 0.53869 0.07586 0.62292 0.0
C1860 C 0.53875 0.08505 0.58744 0.0
C1861 C 0.52838 0.1009 0.58436 0.0
H1862 H 0.54673 0.0636 0.62525 0.0
H1863 H 0.44586 0.21726 0.59645 0.0
H1864 H 0.12599 0.79383 0.87042 0.0
H1865 H 0.12944 0.77237 0.80877 0.0
H1866 H 0.10948 0.81374 0.73264 0.0
H1867 H 0.10573 0.83498 0.79372 0.0
H1868 H 0.09265 0.78297 0.70932 0.0
H1869 H 0.15519 0.79958 0.73893 0.0
H1870 H 0.18368 0.80333 0.7815 0.0
H1871 H 0.18449 0.74535 0.7941 0.0
H1872 H 0.15586 0.74129 0.75202 0.0
H1873 H 0.11155 0.74362 0.51205 0.0
H1874 H 0.11281 0.76314 0.57702 0.0
H1875 H 0.12897 0.71667 0.6418 0.0
H1876 H 0.12789 0.69692 0.57641 0.0
H1877 H 0.14781 0.74799 0.67299 0.0
H1878 H 0.08526 0.73138 0.64717 0.0
H1879 H 0.05636 0.72708 0.60622 0.0
H1880 H 0.05608 0.78437 0.58669 0.0
H1881 H 0.08492 0.789 0.62761 0.0
C1882 C 0.12265 0.79847 0.84052 0.0
C1883 C 0.11556 0.81619 0.83727 0.0
C1884 C 0.12463 0.78615 0.80514 0.0
C1885 C 0.11975 0.79134 0.76568 0.0
C1886 C 0.11325 0.80925 0.7625 0.0
C1887 C 0.11119 0.82146 0.79766 0.0
C1888 C 0.12045 0.77804 0.72773 0.0
C1889 C 0.10484 0.77555 0.70132 0.0
C1890 C 0.13609 0.76775 0.71744 0.0
C1891 C 0.15329 0.77017 0.74271 0.0
C1892 C 0.16137 0.78765 0.75106 0.0
C1893 C 0.17756 0.78983 0.77505 0.0
C1894 C 0.18586 0.7746 0.7906 0.0
C1895 C 0.17802 0.75715 0.7821 0.0
C1896 C 0.16183 0.7549 0.75816 0.0
C1897 C 0.11553 0.73749 0.53997 0.0
C1898 C 0.11958 0.71861 0.53881 0.0
C1899 C 0.11615 0.74871 0.57729 0.0
C1900 C 0.12074 0.7414 0.61463 0.0
C1901 C 0.12535 0.72268 0.61353 0.0
C1902 C 0.1247 0.71138 0.57606 0.0
C1903 C 0.12014 0.75329 0.65458 0.0
C1904 C 0.13567 0.75544 0.68126 0.0
C1905 C 0.10444 0.76326 0.66537 0.0
C1906 C 0.08719 0.76054 0.64046 0.0
C1907 C 0.07903 0.74304 0.63404 0.0
C1908 C 0.06264 0.74055 0.61093 0.0
C1909 C 0.0543 0.75547 0.59414 0.0
C1910 C 0.06242 0.77286 0.60005 0.0
C1911 C 0.07877 0.77544 0.62328 0.0
H1912 H 0.04152 0.75353 0.57665 0.0
H1913 H 0.1984 0.77631 0.80916 0.0
H1914 H 0.42491 0.8643 1.00938 0.0
H1915 H 0.44609 0.86215 0.95422 0.0
H1916 H 0.49085 0.86563 0.04461 0.0
H1917 H 0.46982 0.86786 0.09961 0.0
H1918 H 0.49804 0.88585 0.98603 0.0
H1919 H 0.47724 0.82479 0.99131 0.0
H1920 H 0.45581 0.79892 0.99051 0.0
H1921 H 0.43675 0.80753 0.86771 0.0
H1922 H 0.45781 0.83374 0.868 0.0
H1923 H 0.56685 0.84549 0.86131 0.0
H1924 H 0.54387 0.85056 0.91204 0.0
H1925 H 0.50435 0.86141 0.81599 0.0
H1926 H 0.52748 0.85668 0.7649 0.0
H1927 H 0.49382 0.83457 0.87457 0.0
H1928 H 0.51737 0.8962 0.87277 0.0
H1929 H 0.54167 0.91945 0.87657 0.0
H1930 H 0.55835 0.90645 0.99804 0.0
H1931 H 0.5343 0.88292 0.99472 0.0
C1932 C 0.43926 0.86459 1.01746 0.0
C1933 C 0.4456 0.86609 0.05896 0.0
C1934 C 0.45139 0.86333 0.98588 0.0
C1935 C 0.47015 0.86347 0.99506 0.0
C1936 C 0.47649 0.8655 0.03654 0.0
C1937 C 0.46439 0.86682 0.06806 0.0
C1938 C 0.48321 0.86145 0.96166 0.0
C1939 C 0.49713 0.87453 0.96189 0.0
C1940 C 0.48207 0.84678 0.92976 0.0
C1941 C 0.46899 0.83138 0.92984 0.0
C1942 C 0.46832 0.82134 0.96431 0.0
C1943 C 0.45628 0.80658 0.96392 0.0
C1944 C 0.44499 0.80157 0.92906 0.0
C1945 C 0.44555 0.81143 0.89466 0.0
C1946 C 0.45752 0.82625 0.89493 0.0
C1947 C 0.55332 0.84915 0.85096 0.0
C1948 C 0.54902 0.85078 0.80905 0.0
C1949 C 0.54019 0.85201 0.88003 0.0
C1950 C 0.52238 0.85635 0.86786 0.0
C1951 C 0.51801 0.85804 0.82606 0.0
C1952 C 0.53126 0.85549 0.79696 0.0
C1953 C 0.50843 0.85901 0.89902 0.0
C1954 C 0.49448 0.84598 0.89848 0.0
C1955 C 0.50975 0.87347 0.93119 0.0
C1956 C 0.52414 0.88768 0.93334 0.0
C1957 C 0.52632 0.89819 0.90015 0.0
C1958 C 0.54002 0.91144 0.90224 0.0
C1959 C 0.55157 0.9144 0.93748 0.0
C1960 C 0.5494 0.90413 0.97075 0.0
C1961 C 0.53573 0.89085 0.96879 0.0
H1962 H 0.56217 0.92466 0.93905 0.0
H1963 H 0.43588 0.78999 0.92863 0.0
H1964 H 0.40665 0.27693 1.00801 0.0
H1965 H 0.40367 0.25343 0.05563 0.0
H1966 H 0.39144 0.29549 0.15193 0.0
H1967 H 0.39452 0.31907 0.10469 0.0
H1968 H 0.41672 0.27203 0.1786 0.0
H1969 H 0.35857 0.26685 0.10509 0.0
H1970 H 0.33771 0.26264 0.04353 0.0
H1971 H 0.36048 0.20953 1.01047 0.0
H1972 H 0.38164 0.21353 0.07158 0.0
H1973 H 0.3862 0.21853 0.32667 0.0
H1974 H 0.38458 0.23894 0.27194 0.0
H1975 H 0.40324 0.19523 0.18655 0.0
H1976 H 0.40496 0.17457 0.24134 0.0
H1977 H 0.3753 0.21823 0.15272 0.0
H1978 H 0.43297 0.22274 0.22544 0.0
H1979 H 0.45285 0.2256 0.2886 0.0
H1980 H 0.43152 0.27927 0.32261 0.0
H1981 H 0.41114 0.27655 0.26002 0.0
C1982 C 0.40311 0.28118 0.03918 0.0
C1983 C 0.4008 0.29991 0.05246 0.0
C1984 C 0.4014 0.26771 0.06639 0.0
C1985 C 0.39727 0.27267 0.10739 0.0
C1986 C 0.39467 0.29132 0.1205 0.0
C1987 C 0.39634 0.30479 0.09333 0.0
C1988 C 0.39619 0.25853 0.13699 0.0
C1989 C 0.40749 0.26041 0.1731 0.0
C1990 C 0.38456 0.24302 0.12937 0.0
C1991 C 0.37181 0.24057 0.09268 0.0
C1992 C 0.35923 0.25434 0.08451 0.0
C1993 C 0.34733 0.25198 0.04974 0.0
C1994 C 0.3478 0.23585 0.02304 0.0
C1995 C 0.36014 0.22203 0.03114 0.0
C1996 C 0.37208 0.22432 0.06586 0.0
C1997 C 0.38964 0.21307 0.29613 0.0
C1998 C 0.39592 0.19494 0.28856 0.0
C1999 C 0.38873 0.2248 0.26487 0.0
C2000 C 0.39399 0.21865 0.22536 0.0
C2001 C 0.39914 0.20023 0.21689 0.0
C2002 C 0.40017 0.18848 0.24828 0.0
C2003 C 0.3956 0.23196 0.19427 0.0
C2004 C 0.38451 0.22987 0.158 0.0
C2005 C 0.40751 0.24721 0.20154 0.0
C2006 C 0.42036 0.24935 0.23823 0.0
C2007 C 0.43242 0.23512 0.24648 0.0
C2008 C 0.44378 0.2367 0.2822 0.0
C2009 C 0.44338 0.25256 0.3097 0.0
C2010 C 0.43175 0.26695 0.30133 0.0
C2011 C 0.42029 0.2654 0.26572 0.0
H2012 H 0.45211 0.25367 0.33744 0.0
H2013 H 0.33858 0.23405 0.99613 0.0
H2014 H 0.94639 0.14158 0.28022 0.0
H2015 H 0.96977 0.14395 0.33589 0.0
H2016 H 0.01076 0.14513 0.24767 0.0
H2017 H 0.98734 0.14228 0.19149 0.0
H2018 H 0.02208 0.12485 0.30595 0.0
H2019 H 0.99762 0.18506 0.30558 0.0
H2020 H 0.97372 0.20852 0.30477 0.0
H2021 H 0.95666 0.19406 0.42065 0.0
H2022 H 0.98048 0.17046 0.42221 0.0
H2023 H 0.08928 0.1627 0.4619 0.0
H2024 H 0.06805 0.15906 0.40122 0.0
H2025 H 0.02581 0.14412 0.47714 0.0
H2026 H 0.04691 0.14731 0.5375 0.0
H2027 H 0.01655 0.17271 0.42313 0.0
H2028 H 0.04189 0.11163 0.42029 0.0
H2029 H 0.06672 0.08916 0.419 0.0
H2030 H 0.08342 0.10727 0.30597 0.0
H2031 H 0.05882 0.13006 0.30693 0.0
C2032 C 0.96037 0.14226 0.27252 0.0
C2033 C 0.96494 0.14184 0.23127 0.0
C2034 C 0.97377 0.14374 0.30452 0.0
C2035 C 0.9921 0.14513 0.29625 0.0
C2036 C 0.99675 0.14418 0.25501 0.0
C2037 C 0.98332 0.14256 0.22286 0.0
C2038 C 1.00627 0.14766 0.33074 0.0
C2039 C 0.02098 0.13552 0.33119 0.0
C2040 C 1.00489 0.16148 0.36408 0.0
C2041 C 0.99074 0.17587 0.3638 0.0
C2042 C 0.98874 0.18683 0.33084 0.0
C2043 C 0.97524 0.20018 0.3303 0.0
C2044 C 0.96369 0.20277 0.36266 0.0
C2045 C 0.96567 0.19207 0.39571 0.0
C2046 C 0.9792 0.17873 0.39649 0.0
C2047 C 0.07552 0.15843 0.46557 0.0
C2048 C 0.06985 0.15519 0.50458 0.0
C2049 C 0.0634 0.15639 0.43088 0.0
C2050 C 0.04532 0.15135 0.43466 0.0
C2051 C 0.03967 0.14805 0.47349 0.0
C2052 C 0.05182 0.14975 0.50795 0.0
C2053 C 0.03214 0.14978 0.39841 0.0
C2054 C 0.01764 0.16214 0.39768 0.0
C2055 C 0.03388 0.13638 0.36457 0.0
C2056 C 0.04866 0.1227 0.36395 0.0
C2057 C 0.05097 0.11095 0.39539 0.0
C2058 C 0.06497 0.09813 0.39467 0.0
C2059 C 0.07668 0.09683 0.3625 0.0
C2060 C 0.07437 0.10832 0.33092 0.0
C2061 C 0.06039 0.12119 0.33152 0.0
H2062 H 0.08751 0.08689 0.36198 0.0
H2063 H 0.95321 0.21307 0.36211 0.0
H2064 H 0.92628 0.82814 0.28957 0.0
H2065 H 0.92029 0.80643 0.22944 0.0
H2066 H 0.88275 0.77707 0.29552 0.0
H2067 H 0.88932 0.79863 0.35722 0.0
H2068 H 0.90143 0.75316 0.25123 0.0
H2069 H 0.86849 0.80599 0.21851 0.0
H2070 H 0.86299 0.83885 0.21137 0.0
H2071 H 0.90405 0.83872 0.12384 0.0
H2072 H 0.90997 0.80592 0.13086 0.0
H2073 H 0.87558 0.70303 0.05254 0.0
H2074 H 0.87259 0.72395 0.11573 0.0
H2075 H 0.92058 0.75306 0.08996 0.0
H2076 H 0.92387 0.73211 0.02796 0.0
H2077 H 0.89055 0.77629 0.1145 0.0
H2078 H 0.92523 0.72393 0.15571 0.0
H2079 H 0.92969 0.69088 0.1626 0.0
H2080 H 0.88277 0.69018 0.23367 0.0
H2081 H 0.87788 0.72319 0.22666 0.0
C2082 C 0.91659 0.8172 0.29152 0.0
C2083 C 0.9081 0.81536 0.32835 0.0
C2084 C 0.9131 0.80476 0.25677 0.0
C2085 C 0.90066 0.79029 0.25719 0.0
C2086 C 0.89229 0.78819 0.29409 0.0
C2087 C 0.89601 0.80056 0.32937 0.0
C2088 C 0.89692 0.77732 0.2192 0.0
C2089 C 0.89864 0.75826 0.22152 0.0
C2090 C 0.89335 0.78378 0.18003 0.0
C2091 C 0.88973 0.8035 0.1754 0.0
C2092 C 0.87641 0.81299 0.1979 0.0
C2093 C 0.87321 0.83161 0.19386 0.0
C2094 C 0.88318 0.84088 0.16721 0.0
C2095 C 0.89634 0.83153 0.14447 0.0
C2096 C 0.8996 0.81291 0.14841 0.0
C2097 C 0.88535 0.71402 0.06024 0.0
C2098 C 0.89998 0.71589 0.03535 0.0
C2099 C 0.88369 0.7259 0.09639 0.0
C2100 C 0.89641 0.74005 0.10767 0.0
C2101 C 0.91061 0.74228 0.08195 0.0
C2102 C 0.91249 0.73024 0.04654 0.0
C2103 C 0.8955 0.75235 0.14668 0.0
C2104 C 0.89295 0.77126 0.14443 0.0
C2105 C 0.89805 0.74574 0.18581 0.0
C2106 C 0.90105 0.72595 0.19021 0.0
C2107 C 0.91576 0.71668 0.17247 0.0
C2108 C 0.91839 0.69797 0.17646 0.0
C2109 C 0.90649 0.68842 0.19844 0.0
C2110 C 0.89196 0.69758 0.21658 0.0
C2111 C 0.88925 0.71629 0.21261 0.0
H2112 H 0.90855 0.67394 0.20151 0.0
H2113 H 0.88069 0.85529 0.16415 0.0
H2114 H 0.0774 0.14617 0.79769 0.0
H2115 H 0.05265 0.14453 0.84324 0.0
H2116 H 0.01413 0.14436 0.73954 0.0
H2117 H 0.03894 0.14616 0.69352 0.0
H2118 H 1.00396 0.16724 0.80532 0.0
H2119 H 0.02315 0.10481 0.78169 0.0
H2120 H 0.04516 0.07946 0.77765 0.0
H2121 H 0.06001 0.09125 0.90622 0.0
H2122 H 0.03826 0.11683 0.91092 0.0
H2123 H 0.93226 0.14343 0.93156 0.0
H2124 H 0.95306 0.1439 0.87578 0.0
H2125 H 0.99836 0.141 0.96335 0.0
H2126 H 0.97792 0.1406 1.01869 0.0
H2127 H 1.0027 0.11776 0.89855 0.0
H2128 H 0.98548 0.18091 0.92362 0.0
H2129 H 0.96638 0.20854 0.92802 0.0
H2130 H 0.94993 0.19791 0.8002 0.0
H2131 H 0.96872 0.17 0.79495 0.0
C2132 C 0.06369 0.14573 0.78442 0.0
C2133 C 0.06018 0.14612 0.74186 0.0
C2134 C 0.04953 0.14473 0.81055 0.0
C2135 C 0.03154 0.14401 0.79474 0.0
C2136 C 0.02792 0.14477 0.75236 0.0
C2137 C 0.04212 0.14573 0.7261 0.0
C2138 C 0.01662 0.1425 0.82278 0.0
C2139 C 1.00346 0.15631 0.82539 0.0
C2140 C 0.01618 0.12832 0.8492 0.0
C2141 C 0.02915 0.11282 0.84657 0.0
C2142 C 0.03119 0.10207 0.80904 0.0
C2143 C 0.04361 0.08765 0.80664 0.0
C2144 C 0.054 0.08377 0.84164 0.0
C2145 C 0.05195 0.09427 0.87913 0.0
C2146 C 0.03957 0.10872 0.88169 0.0
C2147 C 0.94665 0.14288 0.93885 0.0
C2148 C 0.95336 0.14205 0.9797 0.0
C2149 C 0.95853 0.14324 0.90698 0.0
C2150 C 0.97731 0.1427 0.9154 0.0
C2151 C 0.98395 0.14145 0.956 0.0
C2152 C 0.97217 0.14114 0.98769 0.0
C2153 C 0.99025 0.1429 0.88225 0.0
C2154 C 1.00303 0.12872 0.87849 0.0
C2155 C 0.99046 0.15694 0.85524 0.0
C2156 C 0.97832 0.17313 0.85904 0.0
C2157 C 0.97758 0.18424 0.89656 0.0
C2158 C 0.96687 0.20002 0.89918 0.0
C2159 C 0.95694 0.20496 0.86448 0.0
C2160 C 0.95761 0.19406 0.82708 0.0
C2161 C 0.96827 0.17823 0.82427 0.0
H2162 H 0.94874 0.21724 0.86658 0.0
H2163 H 0.06361 0.0726 0.83971 0.0
H2164 H 0.60287 0.17439 0.75948 0.0
H2165 H 0.60451 0.19548 0.70629 0.0
H2166 H 0.62943 0.2366 0.79523 0.0
H2167 H 0.62747 0.21571 0.8488 0.0
H2168 H 0.60364 0.25169 0.75245 0.0
H2169 H 0.65315 0.21215 0.71653 0.0
H2170 H 0.6681 0.18251 0.69849 0.0
H2171 H 0.63196 0.17224 0.5916 0.0
H2172 H 0.61663 0.20172 0.6093 0.0
H2173 H 0.62717 0.31549 0.61554 0.0
H2174 H 0.62892 0.29239 0.66467 0.0
H2175 H 0.60251 0.25283 0.57442 0.0
H2176 H 0.601 0.27586 0.52465 0.0
H2177 H 0.62903 0.23648 0.61642 0.0
H2178 H 0.57866 0.27492 0.65391 0.0
H2179 H 0.56274 0.30398 0.67264 0.0
H2180 H 0.60022 0.31613 0.77649 0.0
H2181 H 0.61645 0.28724 0.75816 0.0
C2182 C 0.60891 0.18783 0.76774 0.0
C2183 C 0.61504 0.19326 0.80866 0.0
C2184 C 0.60991 0.19991 0.73709 0.0
C2185 C 0.61724 0.2177 0.74638 0.0
C2186 C 0.62371 0.223 0.78705 0.0
C2187 C 0.62267 0.21095 0.81772 0.0
C2188 C 0.61734 0.2311 0.71442 0.0
C2189 C 0.60948 0.24846 0.72306 0.0
C2190 C 0.62441 0.22676 0.67524 0.0
C2191 C 0.63364 0.20906 0.66446 0.0
C2192 C 0.6483 0.20351 0.68935 0.0
C2193 C 0.65686 0.18675 0.67915 0.0
C2194 C 0.65095 0.17548 0.64398 0.0
C2195 C 0.63651 0.18097 0.61886 0.0
C2196 C 0.62789 0.19771 0.62894 0.0
C2197 C 0.62181 0.30185 0.60591 0.0
C2198 C 0.61386 0.29762 0.56604 0.0
C2199 C 0.62274 0.28864 0.63424 0.0
C2200 C 0.61556 0.27087 0.62369 0.0
C2201 C 0.6081 0.26642 0.58349 0.0
C2202 C 0.60722 0.27964 0.55502 0.0
C2203 C 0.61552 0.25717 0.6549 0.0
C2204 C 0.62328 0.23975 0.64601 0.0
C2205 C 0.60834 0.26143 0.69392 0.0
C2206 C 0.59883 0.27898 0.70452 0.0
C2207 C 0.5836 0.28388 0.68052 0.0
C2208 C 0.57449 0.30029 0.69112 0.0
C2209 C 0.5805 0.31191 0.72566 0.0
C2210 C 0.59561 0.30714 0.74968 0.0
C2211 C 0.60476 0.29075 0.73922 0.0
H2212 H 0.57344 0.32459 0.73385 0.0
H2213 H 0.6576 0.16251 0.63614 0.0
H2214 H 0.44814 0.88407 0.32416 0.0
H2215 H 0.46819 0.88506 0.387 0.0
H2216 H 0.50275 0.84478 0.32621 0.0
H2217 H 0.48275 0.84341 0.26456 0.0
H2218 H 0.49771 0.8352 0.39878 0.0
H2219 H 0.51386 0.89227 0.3473 0.0
H2220 H 0.5082 0.92302 0.32427 0.0
H2221 H 0.48831 0.94167 0.44188 0.0
H2222 H 0.49365 0.91095 0.46544 0.0
H2223 H 0.57858 0.84073 0.52403 0.0
H2224 H 0.55606 0.84406 0.46808 0.0
H2225 H 0.52385 0.87812 0.55051 0.0
H2226 H 0.54636 0.87467 0.60725 0.0
H2227 H 0.52527 0.89173 0.47276 0.0
H2228 H 0.51146 0.83526 0.52572 0.0
H2229 H 0.51665 0.80439 0.54833 0.0
H2230 H 0.53169 0.78436 0.42726 0.0
H2231 H 0.52691 0.81521 0.40404 0.0
C2232 C 0.4601 0.87557 0.32417 0.0
C2233 C 0.46371 0.86362 0.28913 0.0
C2234 C 0.47162 0.87614 0.36018 0.0
C2235 C 0.48716 0.86497 0.3618 0.0
C2236 C 0.49088 0.85343 0.32637 0.0
C2237 C 0.47936 0.8527 0.29085 0.0
C2238 C 0.49944 0.86469 0.40014 0.0
C2239 C 0.50384 0.8476 0.41452 0.0
C2240 C 0.50717 0.88081 0.42205 0.0
C2241 C 0.50395 0.89926 0.40795 0.0
C2242 C 0.50814 0.90289 0.36813 0.0
C2243 C 0.50502 0.92032 0.35501 0.0
C2244 C 0.49784 0.93427 0.38155 0.0
C2245 C 0.49383 0.93084 0.42133 0.0
C2246 C 0.49691 0.91342 0.43458 0.0
C2247 C 0.56683 0.84911 0.53049 0.0
C2248 C 0.56444 0.85743 0.57058 0.0
C2249 C 0.55384 0.85092 0.49826 0.0
C2250 C 0.53805 0.86121 0.50482 0.0
C2251 C 0.53585 0.87007 0.54443 0.0
C2252 C 0.54878 0.86807 0.57697 0.0
C2253 C 0.52381 0.86221 0.47046 0.0
C2254 C 0.51904 0.87937 0.45699 0.0
C2255 C 0.51573 0.84614 0.44922 0.0
C2256 C 0.51901 0.82764 0.46326 0.0
C2257 C 0.51609 0.82434 0.50402 0.0
C2258 C 0.51891 0.80683 0.51692 0.0
C2259 C 0.5245 0.79243 0.48925 0.0
C2260 C 0.52734 0.79553 0.44864 0.0
C2261 C 0.52459 0.81303 0.43561 0.0
H2262 H 0.5266 0.77886 0.49927 0.0
H2263 H 0.49544 0.94776 0.37134 0.0
H2264 H 0.87558 0.19289 0.14934 0.0
H2265 H 0.86674 0.21377 0.20851 0.0
H2266 H 0.92275 0.21952 0.25158 0.0
H2267 H 0.93133 0.19818 0.19451 0.0
H2268 H 0.90529 0.21539 0.31296 0.0
H2269 H 0.89639 0.25358 0.20022 0.0
H2270 H 0.88291 0.26167 0.13379 0.0
H2271 H 0.82997 0.26025 0.18035 0.0
H2272 H 0.84314 0.25196 0.24693 0.0
H2273 H 0.91432 0.30436 0.41746 0.0
H2274 H 0.90825 0.28423 0.35418 0.0
H2275 H 0.86336 0.25988 0.40766 0.0
H2276 H 0.86932 0.28017 0.4716 0.0
H2277 H 0.86875 0.27174 0.30104 0.0
H2278 H 0.88208 0.22753 0.41344 0.0
H2279 H 0.89904 0.22448 0.47959 0.0
H2280 H 0.94738 0.24309 0.42968 0.0
H2281 H 0.93073 0.24601 0.36335 0.0
C2282 C 0.88592 0.19871 0.1715 0.0
C2283 C 0.90411 0.19382 0.16748 0.0
C2284 C 0.8809 0.21069 0.20524 0.0
C2285 C 0.89406 0.21834 0.23473 0.0
C2286 C 0.91224 0.2137 0.22982 0.0
C2287 C 0.91717 0.2015 0.19695 0.0
C2288 C 0.88935 0.23095 0.27128 0.0
C2289 C 0.89707 0.22753 0.31003 0.0
C2290 C 0.87861 0.24691 0.26823 0.0
C2291 C 0.87072 0.25193 0.22831 0.0
C2292 C 0.88187 0.25487 0.19616 0.0
C2293 C 0.87429 0.25951 0.15852 0.0
C2294 C 0.85559 0.26141 0.15281 0.0
C2295 C 0.84444 0.25873 0.18479 0.0
C2296 C 0.85196 0.25407 0.22248 0.0
C2297 C 0.90287 0.29504 0.41555 0.0
C2298 C 0.8924 0.29372 0.44968 0.0
C2299 C 0.89934 0.28366 0.37919 0.0
C2300 C 0.88531 0.27068 0.37623 0.0
C2301 C 0.87412 0.27 0.40929 0.0
C2302 C 0.87757 0.28154 0.44578 0.0
C2303 C 0.88473 0.25598 0.34164 0.0
C2304 C 0.87629 0.25914 0.30361 0.0
C2305 C 0.89504 0.23992 0.34486 0.0
C2306 C 0.90525 0.23684 0.38361 0.0
C2307 C 0.89638 0.23075 0.4166 0.0
C2308 C 0.90592 0.22906 0.4541 0.0
C2309 C 0.92431 0.23349 0.45884 0.0
C2310 C 0.9332 0.23949 0.42599 0.0
C2311 C 0.92374 0.2411 0.3884 0.0
H2312 H 0.93161 0.23235 0.48802 0.0
H2313 H 0.84975 0.265 0.12364 0.0
H2314 H 0.53883 0.15021 0.94399 0.0
H2315 H 0.51765 0.15025 0.9991 0.0
H2316 H 0.56208 0.14435 0.08726 0.0
H2317 H 0.58337 0.14499 0.03264 0.0
H2318 H 0.52489 0.12134 0.08969 0.0
H2319 H 0.55347 0.18198 0.09517 0.0
H2320 H 0.56321 0.20895 0.06202 0.0
H2321 H 0.5084 0.21824 1.01997 0.0
H2322 H 0.49841 0.19107 0.05227 0.0
H2323 H 0.48274 0.14767 0.27722 0.0
H2324 H 0.50372 0.14224 0.2221 0.0
H2325 H 0.47019 0.17489 0.14554 0.0
H2326 H 0.44979 0.18108 0.2012 0.0
H2327 H 0.50243 0.18355 0.13599 0.0
H2328 H 0.47281 0.12495 0.13296 0.0
H2329 H 0.4622 0.09702 0.16117 0.0
H2330 H 0.51693 0.0828 0.19384 0.0
H2331 H 0.52786 0.11078 0.16627 0.0
C2332 C 0.54404 0.14839 0.97489 0.0
C2333 C 0.56276 0.14751 0.98397 0.0
C2334 C 0.53194 0.14852 1.00637 0.0
C2335 C 0.53832 0.14735 0.04724 0.0
C2336 C 0.55689 0.14521 0.05592 0.0
C2337 C 0.56902 0.14556 0.02468 0.0
C2338 C 0.52585 0.15013 0.08131 0.0
C2339 C 0.52008 0.13493 0.10024 0.0
C2340 C 0.51932 0.16781 0.09433 0.0
C2341 C 0.52523 0.18437 0.07569 0.0
C2342 C 0.54353 0.18967 0.07852 0.0
C2343 C 0.54909 0.205 0.05994 0.0
C2344 C 0.53644 0.21527 0.03877 0.0
C2345 C 0.51819 0.21025 0.0363 0.0
C2346 C 0.51257 0.19489 0.05475 0.0
C2347 C 0.47981 0.15359 0.24853 0.0
C2348 C 0.46456 0.16477 0.24361 0.0
C2349 C 0.49178 0.1504 0.21684 0.0
C2350 C 0.48851 0.15789 0.17906 0.0
C2351 C 0.47316 0.16894 0.17419 0.0
C2352 C 0.46142 0.17242 0.20608 0.0
C2353 C 0.50119 0.15467 0.14495 0.0
C2354 C 0.50709 0.16987 0.12578 0.0
C2355 C 0.50767 0.1369 0.13146 0.0
C2356 C 0.50114 0.12005 0.14791 0.0
C2357 C 0.48257 0.11593 0.14641 0.0
C2358 C 0.4765 0.10008 0.16224 0.0
C2359 C 0.48888 0.08817 0.17938 0.0
C2360 C 0.50736 0.09205 0.18061 0.0
C2361 C 0.5135 0.10789 0.16485 0.0
H2362 H 0.48415 0.07591 0.19164 0.0
H2363 H 0.54077 0.22713 0.02438 0.0
H2364 H 0.62104 0.69187 0.96982 0.0
H2365 H 0.62182 0.71062 0.91121 0.0
H2366 H 0.61751 0.75983 0.99373 0.0
H2367 H 0.61597 0.74146 0.05171 0.0
H2368 H 0.59215 0.75846 0.92263 0.0
H2369 H 0.65608 0.75041 0.95687 0.0
H2370 H 0.68351 0.73202 0.96773 0.0
H2371 H 0.67695 0.7066 0.84379 0.0
H2372 H 0.64932 0.72467 0.83238 0.0
H2373 H 0.61164 0.8322 0.80771 0.0
H2374 H 0.61276 0.81009 0.85936 0.0
H2375 H 0.62516 0.76663 0.76644 0.0
H2376 H 0.62403 0.78871 0.71457 0.0
H2377 H 0.64498 0.76251 0.83729 0.0
H2378 H 0.58202 0.76767 0.80128 0.0
H2379 H 0.55395 0.78437 0.7858 0.0
H2380 H 0.5582 0.81366 0.90633 0.0
H2381 H 0.58645 0.79729 0.92216 0.0
C2382 C 0.62029 0.7067 0.9755 0.0
C2383 C 0.61835 0.71505 1.01575 0.0
C2384 C 0.62067 0.71744 0.94187 0.0
C2385 C 0.61923 0.73678 0.9477 0.0
C2386 C 0.61789 0.74503 0.98798 0.0
C2387 C 0.61732 0.73441 1.02134 0.0
C2388 C 0.61909 0.7486 0.91241 0.0
C2389 C 0.60381 0.75944 0.90438 0.0
C2390 C 0.63393 0.74954 0.88712 0.0
C2391 C 0.65053 0.73872 0.89394 0.0
C2392 C 0.66039 0.74077 0.93206 0.0
C2393 C 0.676 0.73043 0.93829 0.0
C2394 C 0.68194 0.7181 0.90651 0.0
C2395 C 0.67231 0.71613 0.8684 0.0
C2396 C 0.65669 0.72642 0.86203 0.0
C2397 C 0.61462 0.81796 0.79816 0.0
C2398 C 0.61756 0.81233 0.75669 0.0
C2399 C 0.61523 0.80525 0.82783 0.0
C2400 C 0.61878 0.78648 0.817 0.0
C2401 C 0.62238 0.78094 0.77587 0.0
C2402 C 0.62174 0.79366 0.74614 0.0
C2403 C 0.61828 0.77274 0.84844 0.0
C2404 C 0.63332 0.7615 0.85555 0.0
C2405 C 0.60314 0.77116 0.87245 0.0
C2406 C 0.58613 0.78099 0.86326 0.0
C2407 C 0.5769 0.77759 0.82455 0.0
C2408 C 0.56101 0.78706 0.81561 0.0
C2409 C 0.55424 0.80001 0.84512 0.0
C2410 C 0.56338 0.80354 0.88359 0.0
C2411 C 0.57929 0.7941 0.89264 0.0
H2412 H 0.54195 0.80736 0.83813 0.0
H2413 H 0.69402 0.71012 0.91139 0.0
H2414 H 0.92871 0.866 0.57001 0.0
H2415 H 0.94909 0.86653 0.63176 0.0
H2416 H 0.99382 0.87981 0.56116 0.0
H2417 H 0.9736 0.87947 0.49953 0.0
H2418 H 1.00123 0.85085 0.61196 0.0
H2419 H 0.97721 0.9126 0.62303 0.0
H2420 H 0.9528 0.93555 0.62541 0.0
H2421 H 0.93276 0.91349 0.73113 0.0
H2422 H 0.95693 0.89024 0.72903 0.0
H2423 H 0.0665 0.87547 0.77844 0.0
H2424 H 0.04644 0.87549 0.71613 0.0
H2425 H 1.00025 0.86927 0.78812 0.0
H2426 H 0.0201 0.86922 0.85011 0.0
H2427 H 0.99346 0.89438 0.73592 0.0
H2428 H 0.01539 0.83313 0.72733 0.0
H2429 H 0.03774 0.80813 0.72624 0.0
H2430 H 0.05941 0.82631 0.6181 0.0
H2431 H 0.0373 0.8516 0.61879 0.0
C2432 C 0.94285 0.86918 0.56765 0.0
C2433 C 0.94944 0.87273 0.52967 0.0
C2434 C 0.9545 0.86947 0.60301 0.0
C2435 C 0.97302 0.87321 0.60117 0.0
C2436 C 0.97961 0.87687 0.5634 0.0
C2437 C 0.96796 0.87679 0.52818 0.0
C2438 C 0.98555 0.87333 0.63854 0.0
C2439 C 0.99973 0.86056 0.63885 0.0
C2440 C 0.98324 0.88554 0.67419 0.0
C2441 C 0.96877 0.89957 0.67562 0.0
C2442 C 0.96751 0.91255 0.64658 0.0
C2443 C 0.95374 0.92563 0.64792 0.0
C2444 C 0.94121 0.92595 0.67834 0.0
C2445 C 0.94246 0.91322 0.70755 0.0
C2446 C 0.9562 0.90009 0.70633 0.0
C2447 C 0.05206 0.87425 0.78103 0.0
C2448 C 0.04496 0.8724 0.81943 0.0
C2449 C 0.04059 0.87411 0.74529 0.0
C2450 C 0.02177 0.87222 0.74718 0.0
C2451 C 0.01468 0.87074 0.78565 0.0
C2452 C 0.0261 0.87071 0.82118 0.0
C2453 C 0.00936 0.87202 0.70942 0.0
C2454 C 0.99512 0.88473 0.70903 0.0
C2455 C 0.01144 0.85952 0.67397 0.0
C2456 C 0.02491 0.84448 0.67358 0.0
C2457 C 0.02507 0.83195 0.70361 0.0
C2458 C 0.03764 0.81769 0.70298 0.0
C2459 C 0.05006 0.81572 0.6723 0.0
C2460 C 0.04986 0.82794 0.64201 0.0
C2461 C 0.03728 0.84223 0.64246 0.0
H2462 H 0.05981 0.8047 0.67202 0.0
H2463 H 0.93056 0.93609 0.67932 0.0
H2464 H 0.62039 0.71861 0.20642 0.0
H2465 H 0.62496 0.73859 0.27059 0.0
H2466 H 0.60663 0.69502 0.33838 0.0
H2467 H 0.60142 0.67523 0.27407 0.0
H2468 H 0.59191 0.72495 0.36703 0.0
H2469 H 0.65289 0.70929 0.33805 0.0
H2470 H 0.67973 0.70593 0.29674 0.0
H2471 H 0.68042 0.76418 0.28769 0.0
H2472 H 0.65344 0.76786 0.32852 0.0
H2473 H 0.6199 0.76489 0.56568 0.0
H2474 H 0.61899 0.74492 0.50124 0.0
H2475 H 0.62903 0.79168 0.43478 0.0
H2476 H 0.63012 0.81184 0.49948 0.0
H2477 H 0.64822 0.76065 0.40578 0.0
H2478 H 0.58699 0.77561 0.43676 0.0
H2479 H 0.56209 0.77848 0.48368 0.0
H2480 H 0.56304 0.72016 0.49204 0.0
H2481 H 0.58828 0.71701 0.44583 0.0
C2482 C 0.61757 0.71318 0.23503 0.0
C2483 C 0.61065 0.69523 0.23499 0.0
C2484 C 0.62022 0.72464 0.27188 0.0
C2485 C 0.61638 0.71835 0.30979 0.0
C2486 C 0.60971 0.70032 0.30977 0.0
C2487 C 0.60682 0.68893 0.27289 0.0
C2488 C 0.61875 0.73068 0.34922 0.0
C2489 C 0.60435 0.73252 0.37559 0.0
C2490 C 0.6348 0.74098 0.36051 0.0
C2491 C 0.65103 0.73882 0.33599 0.0
C2492 C 0.65869 0.72136 0.32699 0.0
C2493 C 0.67394 0.71941 0.30371 0.0
C2494 C 0.68175 0.73483 0.28951 0.0
C2495 C 0.67435 0.75225 0.29866 0.0
C2496 C 0.65908 0.75428 0.3219 0.0
C2497 C 0.6221 0.77097 0.53749 0.0
C2498 C 0.62502 0.79004 0.53788 0.0
C2499 C 0.62151 0.7595 0.50054 0.0
C2500 C 0.6237 0.76678 0.46295 0.0
C2501 C 0.62726 0.78571 0.46332 0.0
C2502 C 0.62784 0.79724 0.50037 0.0
C2503 C 0.62147 0.75474 0.42329 0.0
C2504 C 0.63583 0.75303 0.39698 0.0
C2505 C 0.60547 0.74441 0.41221 0.0
C2506 C 0.58961 0.74609 0.43806 0.0
C2507 C 0.5819 0.7634 0.44861 0.0
C2508 C 0.56771 0.76508 0.47509 0.0
C2509 C 0.56093 0.74952 0.49076 0.0
C2510 C 0.56826 0.73221 0.4798 0.0
C2511 C 0.58252 0.73046 0.45346 0.0
H2512 H 0.55003 0.7509 0.51148 0.0
H2513 H 0.69356 0.73328 0.27149 0.0
H2514 H 0.54661 0.37711 0.5035 0.0
H2515 H 0.52612 0.37953 0.55935 0.0
H2516 H 0.56817 0.36067 0.64124 0.0
H2517 H 0.58855 0.35731 0.58445 0.0
H2518 H 0.53917 0.3454 0.65792 0.0
H2519 H 0.55235 0.40825 0.64333 0.0
H2520 H 0.55563 0.43609 0.60733 0.0
H2521 H 0.49915 0.43397 0.57039 0.0
H2522 H 0.49557 0.40598 0.60574 0.0
H2523 H 0.48675 0.37029 0.83438 0.0
H2524 H 0.51057 0.3703 0.785 0.0
H2525 H 0.47042 0.37781 0.68788 0.0
H2526 H 0.44666 0.37766 0.73673 0.0
H2527 H 0.50027 0.40009 0.68394 0.0
H2528 H 0.48834 0.33587 0.69705 0.0
H2529 H 0.48562 0.3089 0.73613 0.0
H2530 H 0.54116 0.31511 0.7799 0.0
H2531 H 0.54411 0.34231 0.74153 0.0
C2532 C 0.55166 0.37369 0.53348 0.0
C2533 C 0.56942 0.36724 0.53935 0.0
C2534 C 0.53985 0.37516 0.56571 0.0
C2535 C 0.54552 0.37074 0.60534 0.0
C2536 C 0.56331 0.3643 0.6113 0.0
C2537 C 0.57506 0.36249 0.57874 0.0
C2538 C 0.53275 0.37237 0.6399 0.0
C2539 C 0.53095 0.35755 0.66392 0.0
C2540 C 0.52166 0.38805 0.64806 0.0
C2541 C 0.52373 0.40493 0.62692 0.0
C2542 C 0.54065 0.41366 0.62732 0.0
C2543 C 0.54256 0.42947 0.60706 0.0
C2544 C 0.52762 0.43677 0.58652 0.0
C2545 C 0.51072 0.42829 0.58629 0.0
C2546 C 0.50874 0.41247 0.60648 0.0
C2547 C 0.48301 0.37214 0.8026 0.0
C2548 C 0.46471 0.37399 0.78969 0.0
C2549 C 0.49666 0.37201 0.77426 0.0
C2550 C 0.49238 0.37391 0.73239 0.0
C2551 C 0.47417 0.37631 0.71983 0.0
C2552 C 0.46055 0.37619 0.74793 0.0
C2553 C 0.50665 0.37311 0.70135 0.0
C2554 C 0.50867 0.38807 0.67803 0.0
C2555 C 0.51809 0.3577 0.69423 0.0
C2556 C 0.5164 0.34121 0.71678 0.0
C2557 C 0.49994 0.33155 0.71523 0.0
C2558 C 0.49835 0.31621 0.73721 0.0
C2559 C 0.51318 0.31033 0.76059 0.0
C2560 C 0.52967 0.31969 0.76183 0.0
C2561 C 0.53131 0.33505 0.73995 0.0
H2562 H 0.51186 0.2985 0.77768 0.0
H2563 H 0.52913 0.44901 0.57083 0.0
H2564 H 0.88269 0.2143 0.96353 0.0
H2565 H 0.87461 0.2368 0.91467 0.0
H2566 H 0.91254 0.21181 0.83102 0.0
H2567 H 0.92062 0.18942 0.87941 0.0
H2568 H 0.91682 0.24881 0.8413 0.0
H2569 H 0.86668 0.20586 0.81319 0.0
H2570 H 0.8406 0.18809 0.8318 0.0
H2571 H 0.81429 0.23817 0.87467 0.0
H2572 H 0.84033 0.25623 0.85678 0.0
H2573 H 0.8903 0.2819 0.65144 0.0
H2574 H 0.88919 0.25964 0.70269 0.0
H2575 H 0.87023 0.30202 0.79088 0.0
H2576 H 0.87221 0.32456 0.74016 0.0
H2577 H 0.85489 0.25846 0.78189 0.0
H2578 H 0.90447 0.30143 0.81676 0.0
H2579 H 0.9292 0.32065 0.79674 0.0
H2580 H 0.95602 0.27242 0.74558 0.0
H2581 H 0.93107 0.25286 0.76377 0.0
C2582 C 0.88908 0.21342 0.93444 0.0
C2583 C 0.90234 0.20007 0.92548 0.0
C2584 C 0.88448 0.22633 0.90654 0.0
C2585 C 0.89299 0.22605 0.86909 0.0
C2586 C 0.90586 0.21242 0.85975 0.0
C2587 C 0.91042 0.19955 0.88747 0.0
C2588 C 0.88894 0.24016 0.8399 0.0
C2589 C 0.90327 0.25079 0.82826 0.0
C2590 C 0.8712 0.24323 0.82354 0.0
C2591 C 0.85552 0.23238 0.83403 0.0
C2592 C 0.85539 0.21307 0.82686 0.0
C2593 C 0.8406 0.20295 0.83723 0.0
C2594 C 0.82582 0.21199 0.85451 0.0
C2595 C 0.82576 0.23118 0.86134 0.0
C2596 C 0.84052 0.24137 0.85106 0.0
C2597 C 0.88518 0.28627 0.68119 0.0
C2598 C 0.88098 0.30481 0.69173 0.0
C2599 C 0.88466 0.27359 0.71051 0.0
C2600 C 0.87963 0.27921 0.75051 0.0
C2601 C 0.87403 0.29741 0.76007 0.0
C2602 C 0.87505 0.31023 0.73109 0.0
C2603 C 0.88274 0.26678 0.78339 0.0
C2604 C 0.86834 0.2565 0.79544 0.0
C2605 C 0.90033 0.26424 0.80079 0.0
C2606 C 0.91572 0.27572 0.79092 0.0
C2607 C 0.9155 0.29492 0.80061 0.0
C2608 C 0.92953 0.30588 0.78948 0.0
C2609 C 0.94406 0.29775 0.76934 0.0
C2610 C 0.94464 0.27865 0.76064 0.0
C2611 C 0.93054 0.26762 0.77129 0.0
H2612 H 0.95496 0.30622 0.76091 0.0
H2613 H 0.81439 0.20413 0.86252 0.0
H2614 H 0.06441 0.63698 0.2143 0.0
H2615 H 0.04286 0.63348 0.15489 0.0
H2616 H 0.99929 0.64817 0.23355 0.0
H2617 H 0.02085 0.65183 0.29342 0.0
H2618 H 0.99043 0.61877 0.17387 0.0
H2619 H 0.01436 0.67962 0.18158 0.0
H2620 H 0.03793 0.70366 0.18717 0.0
H2621 H 0.05875 0.68043 0.07376 0.0
H2622 H 0.03544 0.65602 0.06781 0.0
H2623 H 0.92545 0.65013 0.02809 0.0
H2624 H 0.94673 0.64504 0.08534 0.0
H2625 H 0.98832 0.63166 1.00047 0.0
H2626 H 0.96703 0.63678 0.94273 0.0
H2627 H 0.99883 0.65865 0.062 0.0
H2628 H 0.97185 0.5987 0.05323 0.0
H2629 H 0.94681 0.57629 0.0494 0.0
H2630 H 0.93007 0.59966 0.16674 0.0
H2631 H 0.95487 0.62239 0.17102 0.0
C2632 C 0.05023 0.6393 0.21916 0.0
C2633 C 0.04437 0.64477 0.25867 0.0
C2634 C 0.03793 0.63733 0.18508 0.0
C2635 C 0.01949 0.6407 0.18973 0.0
C2636 C 0.01347 0.6455 0.22929 0.0
C2637 C 0.02581 0.64765 0.26343 0.0
C2638 C 1.0067 0.64002 0.15301 0.0
C2639 C 0.99215 0.62758 0.14954 0.0
C2640 C 0.00913 0.65133 0.12099 0.0
C2641 C 0.02328 0.66586 0.1245 0.0
C2642 C 0.02408 0.6795 0.15805 0.0
C2643 C 0.03737 0.69321 0.16125 0.0
C2644 C 0.04985 0.69354 0.1309 0.0
C2645 C 0.04909 0.68013 0.09729 0.0
C2646 C 0.03584 0.66635 0.09398 0.0
C2647 C 0.93901 0.64571 1.02143 0.0
C2648 C 0.94454 0.6439 0.98078 0.0
C2649 C 0.95116 0.64275 0.05427 0.0
C2650 C 0.96913 0.63795 0.04725 0.0
C2651 C 0.97451 0.63534 1.00659 0.0
C2652 C 0.96228 0.63814 0.97359 0.0
C2653 C 0.98255 0.63729 0.08258 0.0
C2654 C 0.99721 0.64961 0.08597 0.0
C2655 C 0.98005 0.62604 0.1147 0.0
C2656 C 0.96515 0.61235 0.11229 0.0
C2657 C 0.96275 0.59916 0.07807 0.0
C2658 C 0.94861 0.58638 0.07585 0.0
C2659 C 0.93683 0.58658 0.10777 0.0
C2660 C 0.93919 0.59953 0.14202 0.0
C2661 C 0.95331 0.61235 0.14439 0.0
H2662 H 0.92589 0.57667 0.10599 0.0
H2663 H 0.06003 0.70425 0.13335 0.0
H2664 H 0.59629 0.33456 0.29159 0.0
H2665 H 0.5988 0.31223 0.23172 0.0
H2666 H 0.63186 0.27769 0.30436 0.0
H2667 H 0.62934 0.30005 0.365 0.0
H2668 H 0.64415 0.27973 0.22347 0.0
H2669 H 0.58889 0.26718 0.28648 0.0
H2670 H 0.55965 0.27552 0.31538 0.0
H2671 H 0.53993 0.29235 0.19915 0.0
H2672 H 0.56916 0.2844 0.16967 0.0
H2673 H 0.63441 0.20096 0.07215 0.0
H2674 H 0.63676 0.22245 0.13498 0.0
H2675 H 0.59295 0.25431 0.08653 0.0
H2676 H 0.59002 0.23248 0.02542 0.0
H2677 H 0.58694 0.25232 0.1595 0.0
H2678 H 0.64116 0.26766 0.0963 0.0
H2679 H 0.67049 0.26181 0.06554 0.0
H2680 H 0.69208 0.24238 0.17773 0.0
H2681 H 0.6628 0.24791 0.209 0.0
C2682 C 0.6043 0.32235 0.29504 0.0
C2683 C 0.61255 0.3192 0.33357 0.0
C2684 C 0.60566 0.3095 0.26057 0.0
C2685 C 0.61534 0.29309 0.26339 0.0
C2686 C 0.62427 0.2902 0.30127 0.0
C2687 C 0.6228 0.30304 0.33601 0.0
C2688 C 0.61532 0.27871 0.22727 0.0
C2689 C 0.63167 0.27352 0.20978 0.0
C2690 C 0.59903 0.27088 0.20859 0.0
C2691 C 0.58129 0.27533 0.22598 0.0
C2692 C 0.57836 0.27276 0.26714 0.0
C2693 C 0.56178 0.27741 0.28362 0.0
C2694 C 0.54796 0.28449 0.25913 0.0
C2695 C 0.55066 0.28688 0.21806 0.0
C2696 C 0.56723 0.28229 0.20145 0.0
C2697 C 0.62545 0.21268 0.07483 0.0
C2698 C 0.61205 0.21495 0.04364 0.0
C2699 C 0.62681 0.22506 0.11081 0.0
C2700 C 0.61512 0.24031 0.11596 0.0
C2701 C 0.60209 0.24273 0.08408 0.0
C2702 C 0.60049 0.23021 0.04878 0.0
C2703 C 0.61581 0.25347 0.15466 0.0
C2704 C 0.59951 0.25842 0.17292 0.0
C2705 C 0.63213 0.26132 0.1735 0.0
C2706 C 0.64973 0.258 0.15481 0.0
C2707 C 0.65213 0.26201 0.1143 0.0
C2708 C 0.66874 0.25878 0.09679 0.0
C2709 C 0.68312 0.25167 0.11962 0.0
C2710 C 0.68092 0.24785 0.16005 0.0
C2711 C 0.66432 0.25104 0.1777 0.0
H2712 H 0.69598 0.24917 0.10601 0.0
H2713 H 0.53514 0.28811 0.27196 0.0
H2714 H 0.96434 0.35336 0.57096 0.0
H2715 H 0.98541 0.3548 0.51638 0.0
H2716 H 0.94117 0.34726 0.42507 0.0
H2717 H 0.92007 0.34565 0.47942 0.0
H2718 H 0.96828 0.32572 0.40214 0.0
H2719 H 0.96291 0.38963 0.44967 0.0
H2720 H 0.9635 0.41682 0.50078 0.0
H2721 H 0.01939 0.40715 0.53272 0.0
H2722 H 0.01907 0.37974 0.48216 0.0
H2723 H 0.02071 0.34649 0.23413 0.0
H2724 H 0.99779 0.34772 0.28577 0.0
H2725 H 0.03983 0.35245 0.38263 0.0
H2726 H 0.06265 0.35128 0.33159 0.0
H2727 H 0.01288 0.37621 0.4006 0.0
H2728 H 0.01821 0.31207 0.35504 0.0
H2729 H 0.01801 0.28486 0.30407 0.0
H2730 H 0.96254 0.29487 0.26869 0.0
H2731 H 0.96247 0.32232 0.31912 0.0
C2732 C 0.95903 0.35224 0.53931 0.0
C2733 C 0.94044 0.34939 0.52979 0.0
C2734 C 0.97113 0.35308 0.508 0.0
C2735 C 0.96496 0.35127 0.46632 0.0
C2736 C 0.94636 0.34865 0.45682 0.0
C2737 C 0.93427 0.3478 0.48808 0.0
C2738 C 0.97788 0.35166 0.4327 0.0
C2739 C 0.97782 0.33694 0.40152 0.0
C2740 C 0.99068 0.36604 0.43202 0.0
C2741 C 0.99092 0.38253 0.46239 0.0
C2742 C 0.97529 0.39322 0.46781 0.0
C2743 C 0.97558 0.40868 0.49664 0.0
C2744 C 0.99146 0.41368 0.52005 0.0
C2745 C 1.00709 0.40325 0.5146 0.0
C2746 C 1.00687 0.38776 0.48583 0.0
C2747 C 0.02505 0.34791 0.26642 0.0
C2748 C 0.04356 0.34884 0.27857 0.0
C2749 C 0.01193 0.34852 0.29597 0.0
C2750 C 0.01703 0.35009 0.33828 0.0
C2751 C 0.03548 0.3513 0.35032 0.0
C2752 C 0.04855 0.35058 0.32094 0.0
C2753 C 1.0033 0.35027 0.37022 0.0
C2754 C 1.00324 0.36508 0.40111 0.0
C2755 C 0.99043 0.33595 0.37067 0.0
C2756 C 0.9904 0.31938 0.34053 0.0
C2757 C 1.00601 0.30857 0.33615 0.0
C2758 C 1.00594 0.29309 0.30738 0.0
C2759 C 0.9903 0.28819 0.28302 0.0
C2760 C 0.97466 0.29872 0.28751 0.0
C2761 C 0.97466 0.31423 0.3162 0.0
H2762 H 0.99027 0.2762 0.26076 0.0
H2763 H 0.99166 0.42566 0.54236 0.0
H2764 H 0.88205 0.71841 0.83066 0.0
H2765 H 0.88281 0.74092 0.77993 0.0
H2766 H 0.91955 0.70638 0.70994 0.0
H2767 H 0.91866 0.68367 0.76008 0.0
H2768 H 0.93015 0.74498 0.7259 0.0
H2769 H 0.87887 0.70718 0.67326 0.0
H2770 H 0.84952 0.69191 0.67817 0.0
H2771 H 0.82501 0.74428 0.71002 0.0
H2772 H 0.85429 0.75984 0.70586 0.0
H2773 H 0.92621 0.78582 0.53674 0.0
H2774 H 0.92464 0.76413 0.58896 0.0
H2775 H 0.88544 0.79858 0.65132 0.0
H2776 H 0.88723 0.82058 0.59961 0.0
H2777 H 0.87588 0.76092 0.64125 0.0
H2778 H 0.92448 0.79932 0.69532 0.0
H2779 H 0.95314 0.81659 0.69781 0.0
H2780 H 0.98189 0.76621 0.67064 0.0
H2781 H 0.95332 0.7487 0.66721 0.0
C2782 C 0.89011 0.71548 0.8042 0.0
C2783 C 0.90015 0.69914 0.79929 0.0
C2784 C 0.89056 0.72839 0.77531 0.0
C2785 C 0.90123 0.72532 0.74117 0.0
C2786 C 0.91124 0.70902 0.73608 0.0
C2787 C 0.91057 0.69598 0.76461 0.0
C2788 C 0.90197 0.73916 0.71085 0.0
C2789 C 0.91837 0.74825 0.70686 0.0
C2790 C 0.88642 0.74397 0.6873 0.0
C2791 C 0.86881 0.73465 0.68967 0.0
C2792 C 0.86726 0.71542 0.68168 0.0
C2793 C 0.85063 0.70672 0.68425 0.0
C2794 C 0.83542 0.71711 0.69452 0.0
C2795 C 0.83681 0.73624 0.70213 0.0
C2796 C 0.85341 0.74501 0.69964 0.0
C2797 C 0.91715 0.78872 0.56138 0.0
C2798 C 0.90676 0.80487 0.56391 0.0
C2799 C 0.91637 0.77638 0.59138 0.0
C2800 C 0.90499 0.77979 0.62416 0.0
C2801 C 0.89432 0.7957 0.62632 0.0
C2802 C 0.89536 0.80825 0.59675 0.0
C2803 C 0.90412 0.76657 0.65581 0.0
C2804 C 0.8877 0.75761 0.66011 0.0
C2805 C 0.91956 0.76216 0.68025 0.0
C2806 C 0.93672 0.77268 0.68061 0.0
C2807 C 0.93687 0.79194 0.68927 0.0
C2808 C 0.95311 0.80178 0.69104 0.0
C2809 C 0.96933 0.7925 0.68449 0.0
C2810 C 0.96932 0.77338 0.67587 0.0
C2811 C 0.9531 0.76349 0.67399 0.0
H2812 H 0.98189 0.80014 0.68604 0.0
H2813 H 0.82256 0.71035 0.69648 0.0
H2814 H 0.58066 0.64926 0.98011 0.0
H2815 H 0.55988 0.64345 0.91964 0.0
H2816 H 0.5163 0.63535 0.9982 0.0
H2817 H 0.53725 0.64031 0.05868 0.0
H2818 H 0.51196 0.61247 0.93395 0.0
H2819 H 0.52493 0.67747 0.9537 0.0
H2820 H 0.54397 0.70542 0.96105 0.0
H2821 H 0.56365 0.69093 0.84126 0.0
H2822 H 0.54492 0.66276 0.83343 0.0
H2823 H 0.43771 0.63202 0.79897 0.0
H2824 H 0.46105 0.63214 0.85455 0.0
H2825 H 0.50227 0.63389 0.76705 0.0
H2826 H 0.4789 0.634 0.7111 0.0
H2827 H 0.50886 0.65881 0.83272 0.0
H2828 H 0.49414 0.59447 0.81241 0.0
H2829 H 0.47377 0.56752 0.80512 0.0
H2830 H 0.45611 0.582 0.92678 0.0
H2831 H 0.4762 0.60919 0.93461 0.0
C2832 C 0.56669 0.64598 0.98447 0.0
C2833 C 0.5606 0.64532 0.02425 0.0
C2834 C 0.55476 0.64283 0.94983 0.0
C2835 C 0.53633 0.63946 0.95417 0.0
C2836 C 0.53039 0.63803 0.99385 0.0
C2837 C 0.54241 0.64083 0.02849 0.0
C2838 C 0.52317 0.63782 0.91768 0.0
C2839 C 0.5112 0.62274 0.91213 0.0
C2840 C 0.52232 0.65096 0.88838 0.0
C2841 C 0.53367 0.66788 0.8932 0.0
C2842 C 0.53343 0.68016 0.92907 0.0
C2843 C 0.54415 0.69607 0.93329 0.0
C2844 C 0.55505 0.69993 0.90168 0.0
C2845 C 0.55522 0.68791 0.86575 0.0
C2846 C 0.54456 0.67198 0.86141 0.0
C2847 C 0.45173 0.63226 0.79138 0.0
C2848 C 0.45641 0.63295 0.75046 0.0
C2849 C 0.4651 0.63225 0.82327 0.0
C2850 C 0.48347 0.63284 0.81505 0.0
C2851 C 0.4882 0.63339 0.77419 0.0
C2852 C 0.47482 0.63336 0.74219 0.0
C2853 C 0.49764 0.63358 0.84934 0.0
C2854 C 0.50976 0.6485 0.85446 0.0
C2855 C 0.49852 0.62042 0.87841 0.0
C2856 C 0.48658 0.60395 0.87396 0.0
C2857 C 0.48583 0.59198 0.83751 0.0
C2858 C 0.47435 0.57664 0.8333 0.0
C2859 C 0.46363 0.57307 0.86543 0.0
C2860 C 0.46441 0.58479 0.9019 0.0
C2861 C 0.47587 0.60015 0.90627 0.0
H2862 H 0.45473 0.5612 0.86209 0.0
H2863 H 0.56332 0.71226 0.90498 0.0
H2864 H 0.38489 0.30629 0.83643 0.0
H2865 H 0.37847 0.28704 0.77133 0.0
H2866 H 0.4317 0.29903 0.73339 0.0
H2867 H 0.43768 0.31882 0.79672 0.0
H2868 H 0.41042 0.30059 0.67181 0.0
H2869 H 0.41807 0.25622 0.77169 0.0
H2870 H 0.41131 0.24164 0.83401 0.0
H2871 H 0.35686 0.23099 0.78603 0.0
H2872 H 0.36326 0.2457 0.72359 0.0
H2873 H 0.43066 0.22803 0.52605 0.0
H2874 H 0.42786 0.24974 0.58665 0.0
H2875 H 0.37196 0.23461 0.59169 0.0
H2876 H 0.37468 0.21236 0.53088 0.0
H2877 H 0.38898 0.23605 0.6667 0.0
H2878 H 0.3855 0.27677 0.55933 0.0
H2879 H 0.39591 0.2887 0.49668 0.0
H2880 H 0.44662 0.30449 0.55987 0.0
H2881 H 0.43667 0.29236 0.62266 0.0
C2882 C 0.39517 0.30475 0.81411 0.0
C2883 C 0.41176 0.31411 0.82175 0.0
C2884 C 0.39154 0.29368 0.77693 0.0
C2885 C 0.40465 0.29136 0.74725 0.0
C2886 C 0.42125 0.30062 0.75532 0.0
C2887 C 0.4247 0.31193 0.79181 0.0
C2888 C 0.4014 0.27944 0.70763 0.0
C2889 C 0.40581 0.28645 0.67089 0.0
C2890 C 0.39493 0.26108 0.70578 0.0
C2891 C 0.39107 0.25226 0.74326 0.0
C2892 C 0.40462 0.25089 0.77459 0.0
C2893 C 0.40086 0.24259 0.8099 0.0
C2894 C 0.38365 0.23546 0.81404 0.0
C2895 C 0.37017 0.23656 0.78282 0.0
C2896 C 0.37386 0.24487 0.74747 0.0
C2897 C 0.4177 0.2293 0.53982 0.0
C2898 C 0.40289 0.21838 0.52367 0.0
C2899 C 0.41613 0.24185 0.57442 0.0
C2900 C 0.3997 0.24401 0.59361 0.0
C2901 C 0.38478 0.23325 0.57738 0.0
C2902 C 0.38633 0.22061 0.54253 0.0
C2903 C 0.39857 0.25707 0.6314 0.0
C2904 C 0.39328 0.2503 0.66766 0.0
C2905 C 0.40464 0.27554 0.63299 0.0
C2906 C 0.41032 0.28362 0.59574 0.0
C2907 C 0.39887 0.28278 0.55987 0.0
C2908 C 0.40471 0.28955 0.5243 0.0
C2909 C 0.42192 0.29734 0.52429 0.0
C2910 C 0.43328 0.2985 0.55996 0.0
C2911 C 0.42754 0.29169 0.59556 0.0
H2912 H 0.42645 0.30246 0.49666 0.0
H2913 H 0.38076 0.22903 0.8414 0.0
H2914 H 0.45953 0.61861 0.5244 0.0
H2915 H 0.47818 0.61474 0.46496 0.0
H2916 H 0.44357 0.65175 0.40228 0.0
H2917 H 0.42413 0.65461 0.46038 0.0
H2918 H 0.45694 0.62697 0.3477 0.0
H2919 H 0.48191 0.66709 0.46335 0.0
H2920 H 0.49088 0.6732 0.53698 0.0
H2921 H 0.53023 0.6301 0.52608 0.0
H2922 H 0.52124 0.6235 0.45236 0.0
H2923 H 0.52098 0.66405 0.22345 0.0
H2924 H 0.49864 0.6593 0.27359 0.0
H2925 H 0.53444 0.62129 0.32982 0.0
H2926 H 0.55699 0.62617 0.28012 0.0
H2927 H 0.52056 0.64497 0.38695 0.0
H2928 H 0.49678 0.60625 0.26927 0.0
H2929 H 0.48613 0.59884 0.19682 0.0
H2930 H 0.4443 0.63924 0.21131 0.0
H2931 H 0.45485 0.64708 0.28373 0.0
C2932 C 0.45563 0.62558 0.49758 0.0
C2933 C 0.44065 0.63738 0.49769 0.0
C2934 C 0.46636 0.62343 0.46365 0.0
C2935 C 0.4627 0.63351 0.42971 0.0
C2936 C 0.44686 0.64402 0.42828 0.0
C2937 C 0.43583 0.64577 0.46177 0.0
C2938 C 0.47623 0.63467 0.39802 0.0
C2939 C 0.47081 0.63103 0.35623 0.0
C2940 C 0.49442 0.63979 0.40906 0.0
C2941 C 0.50078 0.64468 0.4525 0.0
C2942 C 0.49245 0.65889 0.4767 0.0
C2943 C 0.49744 0.66235 0.51853 0.0
C2944 C 0.51095 0.65187 0.53636 0.0
C2945 C 0.51967 0.6381 0.51227 0.0
C2946 C 0.51464 0.6345 0.47046 0.0
C2947 C 0.52409 0.65459 0.24631 0.0
C2948 C 0.5408 0.64547 0.24767 0.0
C2949 C 0.51124 0.65182 0.27489 0.0
C2950 C 0.51475 0.63977 0.30528 0.0
C2951 C 0.5314 0.63063 0.30664 0.0
C2952 C 0.54427 0.6334 0.2781 0.0
C2953 C 0.50132 0.63719 0.33646 0.0
C2954 C 0.50674 0.64075 0.37827 0.0
C2955 C 0.48313 0.6321 0.32533 0.0
C2956 C 0.47671 0.62736 0.28183 0.0
C2957 C 0.48539 0.61365 0.25693 0.0
C2958 C 0.47936 0.60936 0.21588 0.0
C2959 C 0.46458 0.61859 0.19944 0.0
C2960 C 0.45576 0.63211 0.22407 0.0
C2961 C 0.46175 0.63647 0.26513 0.0
H2962 H 0.45993 0.61525 0.16766 0.0
H2963 H 0.51486 0.65456 0.56871 0.0
H2964 H 0.08866 0.68016 0.27534 0.0
H2965 H 0.09123 0.70066 0.22159 0.0
H2966 H 0.13619 0.7285 0.29075 0.0
H2967 H 0.13293 0.70854 0.34593 0.0
H2968 H 0.11709 0.75297 0.26293 0.0
H2969 H 0.13956 0.69729 0.19827 0.0
H2970 H 0.14002 0.66422 0.17434 0.0
H2971 H 0.09262 0.67055 0.09568 0.0
H2972 H 0.09182 0.70364 0.11931 0.0
H2973 H 0.12601 0.78197 0.03963 0.0
H2974 H 0.13259 0.75986 0.09058 0.0
H2975 H 0.08618 0.77903 0.15585 0.0
H2976 H 0.07959 0.80093 0.10575 0.0
H2977 H 0.11266 0.73104 0.11428 0.0
H2978 H 0.09513 0.78179 0.25415 0.0
H2979 H 0.09853 0.81506 0.27613 0.0
H2980 H 0.14424 0.81777 0.20208 0.0
H2981 H 0.14118 0.78461 0.17983 0.0
C2982 C 0.09928 0.69046 0.27893 0.0
C2983 C 0.11072 0.69258 0.31486 0.0
C2984 C 0.1008 0.7022 0.24792 0.0
C2985 C 0.11416 0.71604 0.25134 0.0
C2986 C 0.12577 0.71798 0.28705 0.0
C2987 C 0.12398 0.70648 0.31856 0.0
C2988 C 0.11537 0.72897 0.21868 0.0
C2989 C 0.11625 0.74803 0.23052 0.0
C2990 C 0.1148 0.72279 0.17604 0.0
C2991 C 0.11547 0.70293 0.16107 0.0
C2992 C 0.12916 0.69162 0.17608 0.0
C2993 C 0.12951 0.67287 0.1625 0.0
C2994 C 0.11631 0.66528 0.13365 0.0
C2995 C 0.1028 0.67644 0.11813 0.0
C2996 C 0.10241 0.6952 0.13158 0.0
C2997 C 0.11729 0.78152 0.06499 0.0
C2998 C 0.10235 0.79334 0.06867 0.0
C2999 C 0.12101 0.76882 0.09396 0.0
C3000 C 0.10999 0.76788 0.12734 0.0
C3001 C 0.09505 0.77963 0.13079 0.0
C3002 C 0.09129 0.79217 0.10193 0.0
C3003 C 0.11375 0.75473 0.15887 0.0
C3004 C 0.11375 0.73576 0.1468 0.0
C3005 C 0.1158 0.76089 0.20122 0.0
C3006 C 0.11789 0.78075 0.21533 0.0
C3007 C 0.10597 0.78948 0.24283 0.0
C3008 C 0.1078 0.80831 0.25524 0.0
C3009 C 0.12158 0.81849 0.24056 0.0
C3010 C 0.13356 0.80988 0.21341 0.0
C3011 C 0.13176 0.79109 0.20083 0.0
H3012 H 0.12297 0.83305 0.25022 0.0
H3013 H 0.11659 0.65075 0.12322 0.0
H3014 H 0.07641 0.35294 0.99535 0.0
H3015 H 0.05436 0.35336 0.93763 0.0
H3016 H 0.01244 0.36722 1.0213 0.0
H3017 H 0.0345 0.36641 0.07975 0.0
H3018 H 1.00002 0.34184 0.9634 0.0
H3019 H 0.03015 0.39935 0.96041 0.0
H3020 H 0.05606 0.42049 0.96028 0.0
H3021 H 0.07237 0.39181 0.84753 0.0
H3022 H 0.04668 0.37033 0.84726 0.0
H3023 H 0.93819 0.3631 0.79431 0.0
H3024 H 0.9577 0.36602 0.85799 0.0
H3025 H 1.00213 0.34319 0.79068 0.0
H3026 H 0.98275 0.33991 0.72751 0.0
H3027 H 0.01146 0.3755 0.84285 0.0
H3028 H 0.98419 0.3157 0.85247 0.0
H3029 H 0.95877 0.29395 0.85329 0.0
H3030 H 0.93653 0.32827 0.95202 0.0
H3031 H 0.96207 0.35001 0.95238 0.0
C3032 C 0.06257 0.35636 1.00178 0.0
C3033 C 0.05742 0.35983 0.04264 0.0
C3034 C 0.04989 0.35662 0.96844 0.0
C3035 C 0.03162 0.36058 0.97465 0.0
C3036 C 0.0264 0.36418 1.01538 0.0
C3037 C 0.03912 0.36386 0.0489 0.0
C3038 C 0.01808 0.36051 0.9386 0.0
C3039 C 1.00242 0.34953 0.93749 0.0
C3040 C 0.02113 0.37021 0.90406 0.0
C3041 C 0.03656 0.38314 0.904 0.0
C3042 C 0.03933 0.39747 0.93573 0.0
C3043 C 0.05397 0.40953 0.93571 0.0
C3044 C 0.06587 0.40747 0.90396 0.0
C3045 C 0.06314 0.39338 0.87212 0.0
C3046 C 0.04853 0.38127 0.87201 0.0
C3047 C 0.95213 0.35876 0.79308 0.0
C3048 C 0.95887 0.35135 0.7556 0.0
C3049 C 0.96326 0.36033 0.82958 0.0
C3050 C 0.98145 0.35481 0.82932 0.0
C3051 C 0.9882 0.34759 0.79185 0.0
C3052 C 0.97704 0.34571 0.75565 0.0
C3053 C 0.99363 0.35674 0.86766 0.0
C3054 C 0.00903 0.36804 0.8691 0.0
C3055 C 0.9903 0.34744 0.90249 0.0
C3056 C 0.9749 0.33454 0.90217 0.0
C3057 C 0.97382 0.31864 0.87419 0.0
C3058 C 0.95944 0.30629 0.87454 0.0
C3059 C 0.94595 0.30982 0.90238 0.0
C3060 C 0.94695 0.32559 0.93035 0.0
C3061 C 0.96143 0.33786 0.93048 0.0
H3062 H 0.93477 0.30029 0.9024 0.0
H3063 H 0.0772 0.41682 0.90401 0.0
H3064 H 0.3922 0.71482 0.66592 0.0
H3065 H 0.38845 0.73749 0.72514 0.0
H3066 H 0.40614 0.69754 0.80713 0.0
H3067 H 0.41008 0.67485 0.74818 0.0
H3068 H 0.37675 0.71939 0.8356 0.0
H3069 H 0.43563 0.72648 0.78376 0.0
H3070 H 0.45695 0.731 0.73037 0.0
H3071 H 0.43236 0.78287 0.71061 0.0
H3072 H 0.41068 0.7785 0.76344 0.0
H3073 H 0.40569 0.77707 1.01557 0.0
H3074 H 0.40211 0.75423 0.95586 0.0
H3075 H 0.3933 0.79766 0.87679 0.0
H3076 H 0.39731 0.82058 0.93625 0.0
H3077 H 0.41663 0.77437 0.84523 0.0
H3078 H 0.35857 0.76834 0.89937 0.0
H3079 H 0.33697 0.76383 0.95218 0.0
H3080 H 0.35928 0.71049 0.96732 0.0
H3081 H 0.38119 0.71479 0.91497 0.0
C3082 C 0.39497 0.71073 0.69655 0.0
C3083 C 0.40154 0.69304 0.70228 0.0
C3084 C 0.3929 0.72375 0.73037 0.0
C3085 C 0.39719 0.71926 0.77052 0.0
C3086 C 0.40277 0.70131 0.77643 0.0
C3087 C 0.40506 0.68837 0.74266 0.0
C3088 C 0.39705 0.73357 0.80613 0.0
C3089 C 0.38554 0.73136 0.83793 0.0
C3090 C 0.40829 0.74935 0.80876 0.0
C3091 C 0.42139 0.75205 0.77717 0.0
C3092 C 0.43466 0.73877 0.76775 0.0
C3093 C 0.44682 0.74132 0.73764 0.0
C3094 C 0.44597 0.75718 0.71701 0.0
C3095 C 0.43298 0.77056 0.72655 0.0
C3096 C 0.42075 0.76806 0.75657 0.0
C3097 C 0.40272 0.78176 0.98557 0.0
C3098 C 0.40176 0.80066 0.98074 0.0
C3099 C 0.40062 0.76866 0.95138 0.0
C3100 C 0.39725 0.77416 0.9117 0.0
C3101 C 0.39586 0.79303 0.907 0.0
C3102 C 0.3981 0.80614 0.94111 0.0
C3103 C 0.3962 0.76033 0.87491 0.0
C3104 C 0.40763 0.76255 0.84288 0.0
C3105 C 0.38481 0.74462 0.87206 0.0
C3106 C 0.37163 0.74196 0.90349 0.0
C3107 C 0.35897 0.75571 0.91418 0.0
C3108 C 0.34665 0.75318 0.94399 0.0
C3109 C 0.34678 0.7369 0.96316 0.0
C3110 C 0.35921 0.7231 0.95247 0.0
C3111 C 0.37156 0.72557 0.9227 0.0
H3112 H 0.33724 0.73497 0.98624 0.0
H3113 H 0.45541 0.75914 0.69372 0.0
H3114 H 0.97946 0.66439 0.77799 0.0
H3115 H 0.99931 0.66228 0.7206 0.0
H3116 H 0.96431 0.62117 0.65413 0.0
H3117 H 0.94411 0.62339 0.71142 0.0
H3118 H 1.00312 0.61382 0.64929 0.0
H3119 H 0.95964 0.6596 0.62473 0.0
H3120 H 0.94074 0.6864 0.64473 0.0
H3121 H 0.98818 0.72016 0.67026 0.0
H3122 H 1.00745 0.69341 0.65123 0.0
H3123 H 0.04322 0.62866 0.45616 0.0
H3124 H 0.02105 0.62455 0.50781 0.0
H3125 H 0.04877 0.66568 0.5919 0.0
H3126 H 0.07099 0.66962 0.54139 0.0
H3127 H 0.01067 0.67114 0.58194 0.0
H3128 H 0.05384 0.62347 0.60942 0.0
H3129 H 0.07176 0.59572 0.59107 0.0
H3130 H 0.02308 0.56482 0.5569 0.0
H3131 H 1.00487 0.59248 0.57452 0.0
C3132 C 0.97604 0.65472 0.75144 0.0
C3133 C 0.96013 0.64411 0.74929 0.0
C3134 C 0.98741 0.65355 0.7186 0.0
C3135 C 0.98325 0.64163 0.683 0.0
C3136 C 0.96779 0.63044 0.68134 0.0
C3137 C 0.95623 0.63179 0.71404 0.0
C3138 C 0.99455 0.64188 0.64686 0.0
C3139 C 1.00454 0.62623 0.63403 0.0
C3140 C 0.99644 0.65809 0.62704 0.0
C3141 C 0.985 0.67444 0.637 0.0
C3142 C 0.96607 0.67271 0.63486 0.0
C3143 C 0.95528 0.68787 0.64601 0.0
C3144 C 0.96326 0.70493 0.65895 0.0
C3145 C 0.98204 0.7069 0.66036 0.0
C3146 C 0.99291 0.69173 0.64937 0.0
C3147 C 0.04469 0.63667 0.48582 0.0
C3148 C 0.05897 0.64941 0.49454 0.0
C3149 C 0.032 0.63433 0.51527 0.0
C3150 C 0.03322 0.64488 0.55368 0.0
C3151 C 0.04751 0.65745 0.56246 0.0
C3152 C 0.0603 0.65957 0.53349 0.0
C3153 C 0.01957 0.64318 0.58483 0.0
C3154 C 0.0091 0.65863 0.59677 0.0
C3155 C 0.01709 0.62671 0.60336 0.0
C3156 C 0.02801 0.61009 0.59276 0.0
C3157 C 0.04697 0.6108 0.59759 0.0
C3158 C 0.05718 0.59508 0.58742 0.0
C3159 C 0.04857 0.57853 0.57269 0.0
C3160 C 0.02973 0.57766 0.56822 0.0
C3161 C 0.01946 0.59335 0.57831 0.0
H3162 H 0.0565 0.56637 0.56485 0.0
H3163 H 0.95486 0.71657 0.6679 0.0
H3164 H 0.11298 0.29841 0.1911 0.0
H3165 H 0.11115 0.27853 0.24683 0.0
H3166 H 0.11239 0.32626 0.33558 0.0
H3167 H 0.11391 0.34631 0.27971 0.0
H3168 H 0.13562 0.29504 0.35699 0.0
H3169 H 0.07314 0.30828 0.31494 0.0
H3170 H 0.04759 0.30961 0.26367 0.0
H3171 H 0.05318 0.25201 0.22655 0.0
H3172 H 0.07868 0.25024 0.27774 0.0
H3173 H 0.10983 0.24814 0.52695 0.0
H3174 H 0.11376 0.26991 0.47556 0.0
H3175 H 0.09312 0.22912 0.37997 0.0
H3176 H 0.08818 0.20796 0.43138 0.0
H3177 H 0.07968 0.25839 0.36271 0.0
H3178 H 0.14079 0.2432 0.39971 0.0
H3179 H 0.16778 0.23955 0.44561 0.0
H3180 H 0.16771 0.29742 0.48473 0.0
H3181 H 0.14057 0.30138 0.43941 0.0
C3182 C 0.11319 0.3047 0.22251 0.0
C3183 C 0.11365 0.32397 0.231 0.0
C3184 C 0.112 0.2933 0.25434 0.0
C3185 C 0.11152 0.30089 0.29543 0.0
C3186 C 0.11274 0.32009 0.30416 0.0
C3187 C 0.11362 0.33152 0.27223 0.0
C3188 C 0.10916 0.28877 0.32897 0.0
C3189 C 0.12331 0.28719 0.3587 0.0
C3190 C 0.09334 0.2781 0.33044 0.0
C3191 C 0.0779 0.27916 0.29996 0.0
C3192 C 0.06898 0.29592 0.29571 0.0
C3193 C 0.0545 0.29675 0.26672 0.0
C3194 C 0.04884 0.28096 0.24176 0.0
C3195 C 0.05757 0.26423 0.24593 0.0
C3196 C 0.072 0.26329 0.27501 0.0
C3197 C 0.10621 0.24385 0.49493 0.0
C3198 C 0.09867 0.22632 0.48334 0.0
C3199 C 0.10856 0.25627 0.46537 0.0
C3200 C 0.10399 0.25125 0.42332 0.0
C3201 C 0.09669 0.23358 0.41194 0.0
C3202 C 0.09393 0.22139 0.44149 0.0
C3203 C 0.10629 0.26432 0.39114 0.0
C3204 C 0.09206 0.26617 0.36146 0.0
C3205 C 0.12226 0.27488 0.38914 0.0
C3206 C 0.13853 0.27254 0.41653 0.0
C3207 C 0.14645 0.25512 0.41835 0.0
C3208 C 0.16179 0.253 0.44421 0.0
C3209 C 0.16942 0.26823 0.46817 0.0
C3210 C 0.16176 0.28563 0.46622 0.0
C3211 C 0.1464 0.28782 0.44043 0.0
H3212 H 0.1813 0.26657 0.48816 0.0
H3213 H 0.03767 0.28167 0.21925 0.0
H3214 H 0.4632 0.39196 1.01838 0.0
H3215 H 0.48132 0.39713 0.08323 0.0
H3216 H 0.44952 0.35664 0.13498 0.0
H3217 H 0.43098 0.35192 0.07078 0.0
H3218 H 0.45914 0.38343 0.19309 0.0
H3219 H 0.48959 0.34578 0.09038 0.0
H3220 H 0.50066 0.33951 1.02119 0.0
H3221 H 0.53665 0.3859 0.04333 0.0
H3222 H 0.52534 0.39281 0.11271 0.0
H3223 H 0.52212 0.35503 0.34491 0.0
H3224 H 0.50103 0.35726 0.28583 0.0
H3225 H 0.53613 0.39661 0.23975 0.0
H3226 H 0.55771 0.39397 0.29838 0.0
H3227 H 0.52469 0.37265 0.17934 0.0
H3228 H 0.49532 0.4084 0.28691 0.0
H3229 H 0.48221 0.41481 0.3544 0.0
H3230 H 0.44367 0.37113 0.32312 0.0
H3231 H 0.45679 0.36417 0.25581 0.0
C3232 C 0.45983 0.38441 0.04382 0.0
C3233 C 0.44569 0.37141 0.03916 0.0
C3234 C 0.47027 0.38733 0.08091 0.0
C3235 C 0.46711 0.37696 0.11385 0.0
C3236 C 0.45231 0.36478 0.11009 0.0
C3237 C 0.44169 0.36207 0.07321 0.0
C3238 C 0.48003 0.37764 0.15072 0.0
C3239 C 0.47345 0.38095 0.19015 0.0
C3240 C 0.49879 0.37467 0.14703 0.0
C3241 C 0.50645 0.36995 0.10648 0.0
C3242 C 0.49979 0.35472 0.08044 0.0
C3243 C 0.50603 0.35112 0.04104 0.0
C3244 C 0.51924 0.36239 0.02755 0.0
C3245 C 0.52634 0.37723 0.0537 0.0
C3246 C 0.51999 0.38103 0.09308 0.0
C3247 C 0.52534 0.3643 0.32244 0.0
C3248 C 0.54162 0.37442 0.3266 0.0
C3249 C 0.51317 0.36563 0.28867 0.0
C3250 C 0.51673 0.37737 0.25852 0.0
C3251 C 0.53298 0.38751 0.26261 0.0
C3252 C 0.5453 0.38604 0.29624 0.0
C3253 C 0.50385 0.37849 0.22205 0.0
C3254 C 0.51043 0.37537 0.18253 0.0
C3255 C 0.48506 0.3815 0.22582 0.0
C3256 C 0.47717 0.38566 0.2664 0.0
C3257 C 0.48416 0.40005 0.29455 0.0
C3258 C 0.47671 0.40379 0.33278 0.0
C3259 C 0.46214 0.39337 0.34308 0.0
C3260 C 0.45494 0.37921 0.3151 0.0
C3261 C 0.4624 0.37534 0.27692 0.0
H3262 H 0.45639 0.39628 0.3727 0.0
H3263 H 0.52409 0.35951 0.997 0.0
loop_
_geom_bond_atom_site_label_1
_geom_bond_atom_site_label_2
_geom_bond_distance
_geom_bond_site_symmetry_2
_ccdc_geom_bond_type
O0 Tb1 2.292 . S
O0 C3 1.255 . S
Tb1 O0 2.292 . S
Tb1 O17 2.326 . S
Tb1 O19 2.500 . S
Tb1 O20 2.473 . S
Tb1 O23 2.324 . S
Eu2 O6 2.292 . S
Eu2 C7 2.852 . S
Eu2 O18 2.324 . S
Eu2 O22 2.326 . S
Eu2 O24 2.500 . S
Eu2 O25 2.473 . S
C3 O0 1.255 . S
C3 O4 1.247 . S
O4 C3 1.247 . S
C5 O17 1.242 . S
C5 O18 1.258 . S
O6 Eu2 2.292 . S
O6 C8 1.255 1_554 S
C7 Eu2 2.852 . S
C7 C11 1.503 . S
C7 O24 1.273 . S
C7 O25 1.257 . S
C8 O6 1.255 1_556 S
C8 O9 1.247 . S
O9 C8 1.247 . S
C10 O22 1.242 . S
C10 O23 1.258 . S
C11 C7 1.503 . S
C11 C12 1.379 . S
C11 C16 1.392 . S
C12 C11 1.379 . S
C12 C13 1.404 . S
C12 H26 0.929 . S
C13 C12 1.404 . S
C13 C14 1.389 . S
C14 C13 1.389 . S
C14 C15 1.399 . S
C14 H27 0.931 . S
C15 C14 1.399 . S
C15 C16 1.390 . S
C16 C11 1.392 . S
C16 C15 1.390 . S
C16 H28 0.929 . S
O17 Tb1 2.326 . S
O17 C5 1.242 . S
O18 Eu2 2.324 . S
O18 C5 1.258 . S
O19 Tb1 2.500 . S
O19 C21 1.273 . S
O20 Tb1 2.473 . S
O20 C21 1.257 . S
C21 O19 1.273 . S
C21 O20 1.257 . S
O22 Eu2 2.326 . S
O22 C10 1.242 . S
O23 Tb1 2.324 . S
O23 C10 1.258 . S
O24 Eu2 2.500 . S
O24 C7 1.273 . S
O25 Eu2 2.473 . S
O25 C7 1.257 . S
H26 C12 0.929 . S
H27 C14 0.931 . S
H28 C16 0.929 . S
O29 Tb30 2.292 . S
O29 C32 1.255 . S
Tb30 O29 2.292 . S
Tb30 O46 2.326 . S
Tb30 O48 2.500 . S
Tb30 O49 2.473 . S
Tb30 O52 2.324 . S
Eu31 O35 2.292 . S
Eu31 C36 2.852 . S
Eu31 O47 2.324 . S
Eu31 O51 2.326 . S
Eu31 O53 2.500 . S
Eu31 O54 2.473 . S
C32 O29 1.255 . S
C32 O33 1.247 . S
O33 C32 1.247 . S
C34 O46 1.242 . S
C34 O47 1.258 . S
O35 Eu31 2.292 . S
O35 C37 1.255 . S
C36 Eu31 2.852 . S
C36 C40 1.503 . S
C36 O53 1.273 . S
C36 O54 1.257 . S
C37 O35 1.255 . S
C37 O38 1.247 . S
O38 C37 1.247 . S
C39 O51 1.242 . S
C39 O52 1.258 . S
C40 C36 1.503 . S
C40 C41 1.379 . S
C40 C45 1.392 . S
C41 C40 1.379 . S
C41 C42 1.404 . S
C41 H55 0.929 . S
C42 C41 1.404 . S
C42 C43 1.389 . S
C43 C42 1.389 . S
C43 C44 1.399 . S
C43 H56 0.931 . S
C44 C43 1.399 . S
C44 C45 1.390 . S
C45 C40 1.392 . S
C45 C44 1.390 . S
C45 H57 0.929 . S
O46 Tb30 2.326 . S
O46 C34 1.242 . S
O47 Eu31 2.324 . S
O47 C34 1.258 . S
O48 Tb30 2.500 . S
O48 C50 1.273 . S
O49 Tb30 2.473 . S
O49 C50 1.257 . S
C50 O48 1.273 . S
C50 O49 1.257 . S
O51 Eu31 2.326 . S
O51 C39 1.242 . S
O52 Tb30 2.324 . S
O52 C39 1.258 . S
O53 Eu31 2.500 . S
O53 C36 1.273 . S
O54 Eu31 2.473 . S
O54 C36 1.257 . S
H55 C41 0.929 . S
H56 C43 0.931 . S
H57 C45 0.929 . S
O58 Tb59 2.292 . S
O58 C61 1.255 . S
Tb59 O58 2.292 . S
Tb59 O75 2.326 . S
Tb59 O77 2.500 . S
Tb59 O78 2.473 . S
Tb59 O81 2.324 . S
Eu60 O64 2.292 . S
Eu60 C65 2.852 . S
Eu60 O76 2.324 . S
Eu60 O80 2.326 . S
Eu60 O82 2.500 . S
Eu60 O83 2.473 . S
C61 O58 1.255 . S
C61 O62 1.247 . S
O62 C61 1.247 . S
C63 O75 1.242 . S
C63 O76 1.258 . S
O64 Eu60 2.292 . S
O64 C66 1.255 . S
C65 Eu60 2.852 . S
C65 C69 1.503 . S
C65 O82 1.273 . S
C65 O83 1.257 . S
C66 O64 1.255 . S
C66 O67 1.247 . S
O67 C66 1.247 . S
C68 O80 1.242 . S
C68 O81 1.258 . S
C69 C65 1.503 . S
C69 C70 1.379 . S
C69 C74 1.392 . S
C70 C69 1.379 . S
C70 C71 1.404 . S
C70 H84 0.929 . S
C71 C70 1.404 . S
C71 C72 1.389 . S
C72 C71 1.389 . S
C72 C73 1.399 . S
C72 H85 0.931 . S
C73 C72 1.399 . S
C73 C74 1.390 . S
C74 C69 1.392 . S
C74 C73 1.390 . S
C74 H86 0.929 . S
O75 Tb59 2.326 . S
O75 C63 1.242 . S
O76 Eu60 2.324 . S
O76 C63 1.258 . S
O77 Tb59 2.500 . S
O77 C79 1.273 . S
O78 Tb59 2.473 . S
O78 C79 1.257 . S
C79 O77 1.273 . S
C79 O78 1.257 . S
O80 Eu60 2.326 . S
O80 C68 1.242 . S
O81 Tb59 2.324 . S
O81 C68 1.258 . S
O82 Eu60 2.500 . S
O82 C65 1.273 . S
O83 Eu60 2.473 . S
O83 C65 1.257 . S
H84 C70 0.929 . S
H85 C72 0.931 . S
H86 C74 0.929 . S
O87 Tb88 2.292 . S
O87 C90 1.255 . S
Tb88 O87 2.292 . S
Tb88 O104 2.326 . S
Tb88 O106 2.500 . S
Tb88 O107 2.473 . S
Tb88 O110 2.324 . S
Eu89 O93 2.292 . S
Eu89 C94 2.852 . S
Eu89 O105 2.324 . S
Eu89 O109 2.326 . S
Eu89 O111 2.500 . S
Eu89 O112 2.473 . S
C90 O87 1.255 . S
C90 O91 1.247 . S
O91 C90 1.247 . S
C92 O104 1.242 . S
C92 O105 1.258 . S
O93 Eu89 2.292 . S
O93 C95 1.255 1_556 S
C94 Eu89 2.852 . S
C94 C98 1.503 . S
C94 O111 1.273 . S
C94 O112 1.257 . S
C95 O93 1.255 1_554 S
C95 O96 1.247 . S
O96 C95 1.247 . S
C97 O109 1.242 . S
C97 O110 1.258 . S
C98 C94 1.503 . S
C98 C99 1.379 . S
C98 C103 1.392 . S
C99 C98 1.379 . S
C99 C100 1.404 . S
C99 H113 0.929 . S
C100 C99 1.404 . S
C100 C101 1.389 . S
C101 C100 1.389 . S
C101 C102 1.399 . S
C101 H114 0.931 . S
C102 C101 1.399 . S
C102 C103 1.390 . S
C103 C98 1.392 . S
C103 C102 1.390 . S
C103 H115 0.929 . S
O104 Tb88 2.326 . S
O104 C92 1.242 . S
O105 Eu89 2.324 . S
O105 C92 1.258 . S
O106 Tb88 2.500 . S
O106 C108 1.273 . S
O107 Tb88 2.473 . S
O107 C108 1.257 . S
C108 O106 1.273 . S
C108 O107 1.257 . S
O109 Eu89 2.326 . S
O109 C97 1.242 . S
O110 Tb88 2.324 . S
O110 C97 1.258 . S
O111 Eu89 2.500 . S
O111 C94 1.273 . S
O112 Eu89 2.473 . S
O112 C94 1.257 . S
H113 C99 0.929 . S
H114 C101 0.931 . S
H115 C103 0.929 . S
O116 Tb117 2.292 . S
O116 C119 1.255 . S
Tb117 O116 2.292 . S
Tb117 O133 2.326 . S
Tb117 O135 2.500 . S
Tb117 O136 2.473 . S
Tb117 O139 2.324 . S
Eu118 O122 2.292 . S
Eu118 C123 2.852 . S
Eu118 O134 2.324 . S
Eu118 O138 2.326 . S
Eu118 O140 2.500 . S
Eu118 O141 2.473 . S
C119 O116 1.255 . S
C119 O120 1.247 . S
O120 C119 1.247 . S
C121 O133 1.242 . S
C121 O134 1.258 . S
O122 Eu118 2.292 . S
O122 C124 1.255 . S
C123 Eu118 2.852 . S
C123 C127 1.503 . S
C123 O140 1.273 . S
C123 O141 1.257 . S
C124 O122 1.255 . S
C124 O125 1.247 . S
O125 C124 1.247 . S
C126 O138 1.242 . S
C126 O139 1.258 . S
C127 C123 1.503 . S
C127 C128 1.379 . S
C127 C132 1.392 . S
C128 C127 1.379 . S
C128 C129 1.404 . S
C128 H142 0.929 . S
C129 C128 1.404 . S
C129 C130 1.389 . S
C130 C129 1.389 . S
C130 C131 1.399 . S
C130 H143 0.931 . S
C131 C130 1.399 . S
C131 C132 1.390 . S
C132 C127 1.392 . S
C132 C131 1.390 . S
C132 H144 0.929 . S
O133 Tb117 2.326 . S
O133 C121 1.242 . S
O134 Eu118 2.324 . S
O134 C121 1.258 . S
O135 Tb117 2.500 . S
O135 C137 1.273 . S
O136 Tb117 2.473 . S
O136 C137 1.257 . S
C137 O135 1.273 . S
C137 O136 1.257 . S
O138 Eu118 2.326 . S
O138 C126 1.242 . S
O139 Tb117 2.324 . S
O139 C126 1.258 . S
O140 Eu118 2.500 . S
O140 C123 1.273 . S
O141 Eu118 2.473 . S
O141 C123 1.257 . S
H142 C128 0.929 . S
H143 C130 0.931 . S
H144 C132 0.929 . S
O145 Tb146 2.292 . S
O145 C148 1.255 . S
Tb146 O145 2.292 . S
Tb146 O162 2.326 . S
Tb146 O164 2.500 . S
Tb146 O165 2.473 . S
Tb146 O168 2.324 . S
Eu147 O151 2.292 . S
Eu147 C152 2.852 . S
Eu147 O163 2.324 . S
Eu147 O167 2.326 . S
Eu147 O169 2.500 . S
Eu147 O170 2.473 . S
C148 O145 1.255 . S
C148 O149 1.247 . S
O149 C148 1.247 . S
C150 O162 1.242 . S
C150 O163 1.258 . S
O151 Eu147 2.292 . S
O151 C153 1.255 . S
C152 Eu147 2.852 . S
C152 C156 1.503 . S
C152 O169 1.273 . S
C152 O170 1.257 . S
C153 O151 1.255 . S
C153 O154 1.247 . S
O154 C153 1.247 . S
C155 O167 1.242 . S
C155 O168 1.258 . S
C156 C152 1.503 . S
C156 C157 1.379 . S
C156 C161 1.392 . S
C157 C156 1.379 . S
C157 C158 1.404 . S
C157 H171 0.929 . S
C158 C157 1.404 . S
C158 C159 1.389 . S
C159 C158 1.389 . S
C159 C160 1.399 . S
C159 H172 0.931 . S
C160 C159 1.399 . S
C160 C161 1.390 . S
C161 C156 1.392 . S
C161 C160 1.390 . S
C161 H173 0.929 . S
O162 Tb146 2.326 . S
O162 C150 1.242 . S
O163 Eu147 2.324 . S
O163 C150 1.258 . S
O164 Tb146 2.500 . S
O164 C166 1.273 . S
O165 Tb146 2.473 . S
O165 C166 1.257 . S
C166 O164 1.273 . S
C166 O165 1.257 . S
O167 Eu147 2.326 . S
O167 C155 1.242 . S
O168 Tb146 2.324 . S
O168 C155 1.258 . S
O169 Eu147 2.500 . S
O169 C152 1.273 . S
O170 Eu147 2.473 . S
O170 C152 1.257 . S
H171 C157 0.929 . S
H172 C159 0.931 . S
H173 C161 0.929 . S
O174 Tb175 2.292 . S
O174 C177 1.255 1_556 S
Tb175 O174 2.292 . S
Tb175 O191 2.326 . S
Tb175 O193 2.500 . S
Tb175 O194 2.473 . S
Tb175 O197 2.324 . S
Eu176 O180 2.292 . S
Eu176 C181 2.852 . S
Eu176 O192 2.324 . S
Eu176 O196 2.326 . S
Eu176 O198 2.500 . S
Eu176 O199 2.473 . S
C177 O174 1.255 1_554 S
C177 O178 1.247 . S
O178 C177 1.247 . S
C179 O191 1.242 . S
C179 O192 1.258 . S
O180 Eu176 2.292 . S
O180 C182 1.255 . S
C181 Eu176 2.852 . S
C181 C185 1.503 . S
C181 O198 1.273 . S
C181 O199 1.257 . S
C182 O180 1.255 . S
C182 O183 1.247 . S
O183 C182 1.247 . S
C184 O196 1.242 . S
C184 O197 1.258 . S
C185 C181 1.503 . S
C185 C186 1.379 . S
C185 C190 1.392 . S
C186 C185 1.379 . S
C186 C187 1.404 . S
C186 H200 0.929 . S
C187 C186 1.404 . S
C187 C188 1.389 . S
C188 C187 1.389 . S
C188 C189 1.399 . S
C188 H201 0.931 . S
C189 C188 1.399 . S
C189 C190 1.390 . S
C190 C185 1.392 . S
C190 C189 1.390 . S
C190 H202 0.929 . S
O191 Tb175 2.326 . S
O191 C179 1.242 . S
O192 Eu176 2.324 . S
O192 C179 1.258 . S
O193 Tb175 2.500 . S
O193 C195 1.273 . S
O194 Tb175 2.473 . S
O194 C195 1.257 . S
C195 O193 1.273 . S
C195 O194 1.257 . S
O196 Eu176 2.326 . S
O196 C184 1.242 . S
O197 Tb175 2.324 . S
O197 C184 1.258 . S
O198 Eu176 2.500 . S
O198 C181 1.273 . S
O199 Eu176 2.473 . S
O199 C181 1.257 . S
H200 C186 0.929 . S
H201 C188 0.931 . S
H202 C190 0.929 . S
O203 Tb204 2.294 . S
O203 C206 1.254 1_554 S
Tb204 O203 2.294 . S
Tb204 O220 2.326 . S
Tb204 O222 2.500 . S
Tb204 O223 2.473 . S
Tb204 O226 2.324 . S
Eu205 O209 2.292 . S
Eu205 C210 2.852 . S
Eu205 O221 2.324 . S
Eu205 O225 2.326 . S
Eu205 O227 2.500 . S
Eu205 O228 2.473 . S
C206 O203 1.254 1_556 S
C206 O207 1.247 . S
O207 C206 1.247 . S
C208 O220 1.242 . S
C208 O221 1.258 . S
O209 Eu205 2.292 . S
O209 C211 1.255 . S
C210 Eu205 2.852 . S
C210 C214 1.503 . S
C210 O227 1.273 . S
C210 O228 1.257 . S
C211 O209 1.255 . S
C211 O212 1.247 . S
O212 C211 1.247 . S
C213 O225 1.242 . S
C213 O226 1.258 . S
C214 C210 1.503 . S
C214 C215 1.379 . S
C214 C219 1.392 . S
C215 C214 1.379 . S
C215 C216 1.404 . S
C215 H229 0.929 . S
C216 C215 1.404 . S
C216 C217 1.389 . S
C217 C216 1.389 . S
C217 C218 1.399 . S
C217 H230 0.931 . S
C218 C217 1.399 . S
C218 C219 1.390 . S
C219 C214 1.392 . S
C219 C218 1.390 . S
C219 H231 0.929 . S
O220 Tb204 2.326 . S
O220 C208 1.242 . S
O221 Eu205 2.324 . S
O221 C208 1.258 . S
O222 Tb204 2.500 . S
O222 C224 1.273 . S
O223 Tb204 2.473 . S
O223 C224 1.257 . S
C224 O222 1.273 . S
C224 O223 1.257 . S
O225 Eu205 2.326 . S
O225 C213 1.242 . S
O226 Tb204 2.324 . S
O226 C213 1.258 . S
O227 Eu205 2.500 . S
O227 C210 1.273 . S
O228 Eu205 2.473 . S
O228 C210 1.257 . S
H229 C215 0.929 . S
H230 C217 0.931 . S
H231 C219 0.929 . S
O232 Tb233 2.292 . S
O232 C235 1.255 . S
Tb233 O232 2.292 . S
Tb233 O249 2.326 . S
Tb233 O251 2.500 . S
Tb233 O252 2.473 . S
Tb233 O255 2.324 . S
Eu234 O238 2.292 . S
Eu234 C239 2.852 . S
Eu234 O250 2.324 . S
Eu234 O254 2.326 . S
Eu234 O256 2.500 . S
Eu234 O257 2.473 . S
C235 O232 1.255 . S
C235 O236 1.247 . S
O236 C235 1.247 . S
C237 O249 1.242 . S
C237 O250 1.258 . S
O238 Eu234 2.292 . S
O238 C240 1.272 . S
C239 Eu234 2.852 . S
C239 C243 1.503 . S
C239 O256 1.273 . S
C239 O257 1.257 . S
C240 O238 1.272 . S
C240 O241 1.249 . S
O241 C240 1.249 . S
C242 O254 1.242 . S
C242 O255 1.258 . S
C243 C239 1.503 . S
C243 C244 1.379 . S
C243 C248 1.392 . S
C244 C243 1.379 . S
C244 C245 1.404 . S
C244 H258 0.929 . S
C245 C244 1.404 . S
C245 C246 1.389 . S
C246 C245 1.389 . S
C246 C247 1.399 . S
C246 H259 0.931 . S
C247 C246 1.399 . S
C247 C248 1.390 . S
C248 C243 1.392 . S
C248 C247 1.390 . S
C248 H260 0.929 . S
O249 Tb233 2.326 . S
O249 C237 1.242 . S
O250 Eu234 2.324 . S
O250 C237 1.258 . S
O251 Tb233 2.500 . S
O251 C253 1.273 . S
O252 Tb233 2.473 . S
O252 C253 1.257 . S
C253 O251 1.273 . S
C253 O252 1.257 . S
O254 Eu234 2.326 . S
O254 C242 1.242 . S
O255 Tb233 2.324 . S
O255 C242 1.258 . S
O256 Eu234 2.500 . S
O256 C239 1.273 . S
O257 Eu234 2.473 . S
O257 C239 1.257 . S
H258 C244 0.929 . S
H259 C246 0.931 . S
H260 C248 0.929 . S
O261 Tb262 2.292 . S
O261 C264 1.255 . S
Tb262 O261 2.292 . S
Tb262 O278 2.326 . S
Tb262 O280 2.500 . S
Tb262 O281 2.473 . S
Tb262 O284 2.324 . S
Eu263 O267 2.292 . S
Eu263 C268 2.852 . S
Eu263 O279 2.324 . S
Eu263 O283 2.326 . S
Eu263 O285 2.500 . S
Eu263 O286 2.473 . S
C264 O261 1.255 . S
C264 O265 1.247 . S
O265 C264 1.247 . S
C266 O278 1.242 . S
C266 O279 1.258 . S
O267 Eu263 2.292 . S
O267 C269 1.255 . S
C268 Eu263 2.852 . S
C268 C272 1.503 . S
C268 O285 1.273 . S
C268 O286 1.257 . S
C269 O267 1.255 . S
C269 O270 1.247 . S
O270 C269 1.247 . S
C271 O283 1.242 . S
C271 O284 1.258 . S
C272 C268 1.503 . S
C272 C273 1.379 . S
C272 C277 1.392 . S
C273 C272 1.379 . S
C273 C274 1.404 . S
C273 H287 0.929 . S
C274 C273 1.404 . S
C274 C275 1.389 . S
C275 C274 1.389 . S
C275 C276 1.399 . S
C275 H288 0.931 . S
C276 C275 1.399 . S
C276 C277 1.390 . S
C277 C272 1.392 . S
C277 C276 1.390 . S
C277 H289 0.929 . S
O278 Tb262 2.326 . S
O278 C266 1.242 . S
O279 Eu263 2.324 . S
O279 C266 1.258 . S
O280 Tb262 2.500 . S
O280 C282 1.273 . S
O281 Tb262 2.473 . S
O281 C282 1.257 . S
C282 O280 1.273 . S
C282 O281 1.257 . S
O283 Eu263 2.326 . S
O283 C271 1.242 . S
O284 Tb262 2.324 . S
O284 C271 1.258 . S
O285 Eu263 2.500 . S
O285 C268 1.273 . S
O286 Eu263 2.473 . S
O286 C268 1.257 . S
H287 C273 0.929 . S
H288 C275 0.931 . S
H289 C277 0.929 . S
O290 Tb291 2.292 . S
O290 C293 1.255 . S
Tb291 O290 2.292 . S
Tb291 O307 2.326 . S
Tb291 O309 2.500 . S
Tb291 O310 2.473 . S
Tb291 O313 2.324 . S
Eu292 O296 2.292 . S
Eu292 C297 2.852 . S
Eu292 O308 2.324 . S
Eu292 O312 2.326 . S
Eu292 O314 2.500 . S
Eu292 O315 2.473 . S
C293 O290 1.255 . S
C293 O294 1.247 . S
O294 C293 1.247 . S
C295 O307 1.242 . S
C295 O308 1.258 . S
O296 Eu292 2.292 . S
O296 C298 1.255 . S
C297 Eu292 2.852 . S
C297 C301 1.503 . S
C297 O314 1.273 . S
C297 O315 1.257 . S
C298 O296 1.255 . S
C298 O299 1.247 . S
O299 C298 1.247 . S
C300 O312 1.242 . S
C300 O313 1.258 . S
C301 C297 1.503 . S
C301 C302 1.379 . S
C301 C306 1.392 . S
C302 C301 1.379 . S
C302 C303 1.404 . S
C302 H316 0.929 . S
C303 C302 1.404 . S
C303 C304 1.389 . S
C304 C303 1.389 . S
C304 C305 1.399 . S
C304 H317 0.931 . S
C305 C304 1.399 . S
C305 C306 1.390 . S
C306 C301 1.392 . S
C306 C305 1.390 . S
C306 H318 0.929 . S
O307 Tb291 2.326 . S
O307 C295 1.242 . S
O308 Eu292 2.324 . S
O308 C295 1.258 . S
O309 Tb291 2.500 . S
O309 C311 1.273 . S
O310 Tb291 2.473 . S
O310 C311 1.257 . S
C311 O309 1.273 . S
C311 O310 1.257 . S
O312 Eu292 2.326 . S
O312 C300 1.242 . S
O313 Tb291 2.324 . S
O313 C300 1.258 . S
O314 Eu292 2.500 . S
O314 C297 1.273 . S
O315 Eu292 2.473 . S
O315 C297 1.257 . S
H316 C302 0.929 . S
H317 C304 0.931 . S
H318 C306 0.929 . S
O319 Tb320 2.292 . S
O319 C322 1.255 . S
Tb320 O319 2.292 . S
Tb320 O336 2.326 . S
Tb320 O338 2.500 . S
Tb320 O339 2.473 . S
Tb320 O342 2.324 . S
Eu321 O325 2.292 . S
Eu321 C326 2.852 . S
Eu321 O337 2.324 . S
Eu321 O341 2.326 . S
Eu321 O343 2.500 . S
Eu321 O344 2.473 . S
C322 O319 1.255 . S
C322 O323 1.247 . S
O323 C322 1.247 . S
C324 O336 1.242 . S
C324 O337 1.258 . S
O325 Eu321 2.292 . S
O325 C327 1.255 . S
C326 Eu321 2.852 . S
C326 C330 1.503 . S
C326 O343 1.273 . S
C326 O344 1.257 . S
C327 O325 1.255 . S
C327 O328 1.247 . S
O328 C327 1.247 . S
C329 O341 1.242 . S
C329 O342 1.258 . S
C330 C326 1.503 . S
C330 C331 1.379 . S
C330 C335 1.392 . S
C331 C330 1.379 . S
C331 C332 1.404 . S
C331 H345 0.929 . S
C332 C331 1.404 . S
C332 C333 1.389 . S
C333 C332 1.389 . S
C333 C334 1.399 . S
C333 H346 0.931 . S
C334 C333 1.399 . S
C334 C335 1.390 . S
C335 C330 1.392 . S
C335 C334 1.390 . S
C335 H347 0.929 . S
O336 Tb320 2.326 . S
O336 C324 1.242 . S
O337 Eu321 2.324 . S
O337 C324 1.258 . S
O338 Tb320 2.500 . S
O338 C340 1.273 . S
O339 Tb320 2.473 . S
O339 C340 1.257 . S
C340 O338 1.273 . S
C340 O339 1.257 . S
O341 Eu321 2.326 . S
O341 C329 1.242 . S
O342 Tb320 2.324 . S
O342 C329 1.258 . S
O343 Eu321 2.500 . S
O343 C326 1.273 . S
O344 Eu321 2.473 . S
O344 C326 1.257 . S
H345 C331 0.929 . S
H346 C333 0.931 . S
H347 C335 0.929 . S
O348 Tb349 2.292 . S
O348 C351 1.255 . S
Tb349 O348 2.292 . S
Tb349 O365 2.326 . S
Tb349 O367 2.500 . S
Tb349 O368 2.473 . S
Tb349 O371 2.324 . S
Eu350 O354 2.292 . S
Eu350 C355 2.852 . S
Eu350 O366 2.324 . S
Eu350 O370 2.326 . S
Eu350 O372 2.500 . S
Eu350 O373 2.473 . S
C351 O348 1.255 . S
C351 O352 1.247 . S
O352 C351 1.247 . S
C353 O365 1.242 . S
C353 O366 1.258 . S
O354 Eu350 2.292 . S
O354 C356 1.255 . S
C355 Eu350 2.852 . S
C355 C359 1.503 . S
C355 O372 1.273 . S
C355 O373 1.257 . S
C356 O354 1.255 . S
C356 O357 1.247 . S
O357 C356 1.247 . S
C358 O370 1.242 . S
C358 O371 1.258 . S
C359 C355 1.503 . S
C359 C360 1.379 . S
C359 C364 1.392 . S
C360 C359 1.379 . S
C360 C361 1.404 . S
C360 H374 0.929 . S
C361 C360 1.404 . S
C361 C362 1.389 . S
C362 C361 1.389 . S
C362 C363 1.399 . S
C362 H375 0.931 . S
C363 C362 1.399 . S
C363 C364 1.390 . S
C364 C359 1.392 . S
C364 C363 1.390 . S
C364 H376 0.929 . S
O365 Tb349 2.326 . S
O365 C353 1.242 . S
O366 Eu350 2.324 . S
O366 C353 1.258 . S
O367 Tb349 2.500 . S
O367 C369 1.273 . S
O368 Tb349 2.473 . S
O368 C369 1.257 . S
C369 O367 1.273 . S
C369 O368 1.257 . S
O370 Eu350 2.326 . S
O370 C358 1.242 . S
O371 Tb349 2.324 . S
O371 C358 1.258 . S
O372 Eu350 2.500 . S
O372 C355 1.273 . S
O373 Eu350 2.473 . S
O373 C355 1.257 . S
H374 C360 0.929 . S
H375 C362 0.931 . S
H376 C364 0.929 . S
O377 Tb378 2.292 . S
O377 C380 1.255 . S
Tb378 O377 2.292 . S
Tb378 O394 2.326 . S
Tb378 O396 2.500 . S
Tb378 O397 2.473 . S
Tb378 O400 2.324 . S
Eu379 O383 2.292 . S
Eu379 C384 2.852 . S
Eu379 O395 2.324 . S
Eu379 O399 2.326 . S
Eu379 O401 2.500 . S
Eu379 O402 2.473 . S
C380 O377 1.255 . S
C380 O381 1.247 . S
O381 C380 1.247 . S
C382 O394 1.242 . S
C382 O395 1.258 . S
O383 Eu379 2.292 . S
O383 C385 1.255 . S
C384 Eu379 2.852 . S
C384 C388 1.503 . S
C384 O401 1.273 . S
C384 O402 1.257 . S
C385 O383 1.255 . S
C385 O386 1.247 . S
O386 C385 1.247 . S
C387 O399 1.242 . S
C387 O400 1.258 . S
C388 C384 1.503 . S
C388 C389 1.379 . S
C388 C393 1.392 . S
C389 C388 1.379 . S
C389 C390 1.404 . S
C389 H403 0.929 . S
C390 C389 1.404 . S
C390 C391 1.389 . S
C391 C390 1.389 . S
C391 C392 1.399 . S
C391 H404 0.931 . S
C392 C391 1.399 . S
C392 C393 1.390 . S
C393 C388 1.392 . S
C393 C392 1.390 . S
C393 H405 0.929 . S
O394 Tb378 2.326 . S
O394 C382 1.242 . S
O395 Eu379 2.324 . S
O395 C382 1.258 . S
O396 Tb378 2.500 . S
O396 C398 1.273 . S
O397 Tb378 2.473 . S
O397 C398 1.257 . S
C398 O396 1.273 . S
C398 O397 1.257 . S
O399 Eu379 2.326 . S
O399 C387 1.242 . S
O400 Tb378 2.324 . S
O400 C387 1.258 . S
O401 Eu379 2.500 . S
O401 C384 1.273 . S
O402 Eu379 2.473 . S
O402 C384 1.257 . S
H403 C389 0.929 . S
H404 C391 0.931 . S
H405 C393 0.929 . S
O406 Tb407 2.292 . S
O406 C409 1.255 . S
Tb407 O406 2.292 . S
Tb407 O423 2.326 . S
Tb407 O425 2.500 . S
Tb407 O426 2.473 . S
Tb407 O429 2.324 . S
Eu408 O412 2.292 . S
Eu408 C413 2.852 . S
Eu408 O424 2.324 . S
Eu408 O428 2.326 . S
Eu408 O430 2.500 . S
Eu408 O431 2.473 . S
C409 O406 1.255 . S
C409 O410 1.247 . S
O410 C409 1.247 . S
C411 O423 1.242 . S
C411 O424 1.258 . S
O412 Eu408 2.292 . S
O412 C414 1.255 . S
C413 Eu408 2.852 . S
C413 C417 1.503 . S
C413 O430 1.273 . S
C413 O431 1.257 . S
C414 O412 1.255 . S
C414 O415 1.247 . S
O415 C414 1.247 . S
C416 O428 1.242 . S
C416 O429 1.258 . S
C417 C413 1.503 . S
C417 C418 1.379 . S
C417 C422 1.392 . S
C418 C417 1.379 . S
C418 C419 1.404 . S
C418 H432 0.929 . S
C419 C418 1.404 . S
C419 C420 1.389 . S
C420 C419 1.389 . S
C420 C421 1.399 . S
C420 H433 0.931 . S
C421 C420 1.399 . S
C421 C422 1.390 . S
C422 C417 1.392 . S
C422 C421 1.390 . S
C422 H434 0.929 . S
O423 Tb407 2.326 . S
O423 C411 1.242 . S
O424 Eu408 2.324 . S
O424 C411 1.258 . S
O425 Tb407 2.500 . S
O425 C427 1.273 . S
O426 Tb407 2.473 . S
O426 C427 1.257 . S
C427 O425 1.273 . S
C427 O426 1.257 . S
O428 Eu408 2.326 . S
O428 C416 1.242 . S
O429 Tb407 2.324 . S
O429 C416 1.258 . S
O430 Eu408 2.500 . S
O430 C413 1.273 . S
O431 Eu408 2.473 . S
O431 C413 1.257 . S
H432 C418 0.929 . S
H433 C420 0.931 . S
H434 C422 0.929 . S
O435 Tb436 2.292 . S
O435 C438 1.255 1_556 S
Tb436 O435 2.292 . S
Tb436 O452 2.326 . S
Tb436 O454 2.500 . S
Tb436 O455 2.473 . S
Tb436 O458 2.324 . S
Eu437 O441 2.292 . S
Eu437 C442 2.852 . S
Eu437 O453 2.324 . S
Eu437 O457 2.326 . S
Eu437 O459 2.500 . S
Eu437 O460 2.473 . S
C438 O435 1.255 1_554 S
C438 O439 1.247 . S
O439 C438 1.247 . S
C440 O452 1.242 . S
C440 O453 1.258 . S
O441 Eu437 2.292 . S
O441 C443 1.255 . S
C442 Eu437 2.852 . S
C442 C446 1.503 . S
C442 O459 1.273 . S
C442 O460 1.257 . S
C443 O441 1.255 . S
C443 O444 1.247 . S
O444 C443 1.247 . S
C445 O457 1.242 . S
C445 O458 1.258 . S
C446 C442 1.503 . S
C446 C447 1.379 . S
C446 C451 1.392 . S
C447 C446 1.379 . S
C447 C448 1.404 . S
C447 H461 0.929 . S
C448 C447 1.404 . S
C448 C449 1.389 . S
C449 C448 1.389 . S
C449 C450 1.399 . S
C449 H462 0.931 . S
C450 C449 1.399 . S
C450 C451 1.390 . S
C451 C446 1.392 . S
C451 C450 1.390 . S
C451 H463 0.929 . S
O452 Tb436 2.326 . S
O452 C440 1.242 . S
O453 Eu437 2.324 . S
O453 C440 1.258 . S
O454 Tb436 2.500 . S
O454 C456 1.273 . S
O455 Tb436 2.473 . S
O455 C456 1.257 . S
C456 O454 1.273 . S
C456 O455 1.257 . S
O457 Eu437 2.326 . S
O457 C445 1.242 . S
O458 Tb436 2.324 . S
O458 C445 1.258 . S
O459 Eu437 2.500 . S
O459 C442 1.273 . S
O460 Eu437 2.473 . S
O460 C442 1.257 . S
H461 C447 0.929 . S
H462 C449 0.931 . S
H463 C451 0.929 . S
H464 C482 0.951 . S
H465 C484 0.951 . S
H466 C486 0.950 . S
H467 C487 0.950 . S
H468 C489 0.950 . S
H469 C492 0.954 . S
H470 C493 0.950 . S
H471 C495 0.950 . S
H472 C496 0.950 . S
H473 C497 0.951 . S
H474 C499 0.951 . S
H475 C501 0.950 . S
H476 C502 0.950 . S
H477 C504 0.950 . S
H478 C507 0.950 . S
H479 C508 0.950 . S
H480 C510 0.950 . S
H481 C511 0.950 . S
C482 H464 0.951 . S
C482 C483 1.366 . S
C482 C484 1.388 . S
C483 C482 1.366 . S
C483 C487 1.385 . S
C484 H465 0.951 . S
C484 C482 1.388 . S
C484 C485 1.366 . S
C485 C484 1.366 . S
C485 C486 1.414 . S
C485 C488 1.499 . S
C486 H466 0.950 . S
C486 C485 1.414 . S
C486 C487 1.374 . S
C487 H467 0.950 . S
C487 C483 1.385 . S
C487 C486 1.374 . S
C488 C485 1.499 . S
C488 C489 1.373 . S
C488 C490 1.389 . S
C489 H468 0.950 . S
C489 C488 1.373 . S
C489 C505 1.377 . S
C490 C488 1.389 . S
C490 C491 1.524 1_655 S
C490 C504 1.377 1_655 S
C491 C490 1.524 1_455 S
C491 C492 1.395 1_455 S
C491 C496 1.363 . S
C492 H469 0.954 . S
C492 C491 1.395 1_655 S
C492 C493 1.331 1_655 S
C493 H470 0.950 . S
C493 C492 1.331 1_455 S
C493 C494 1.287 . S
C494 C493 1.287 . S
C494 C495 1.524 1_554 S
C494 H513 0.913 . S
C495 H471 0.950 . S
C495 C494 1.524 1_556 S
C495 C496 1.415 1_556 S
C496 H472 0.950 . S
C496 C491 1.363 . S
C496 C495 1.415 1_554 S
C497 H473 0.951 . S
C497 C498 1.366 . S
C497 C499 1.388 . S
C498 C497 1.366 . S
C498 C502 1.385 . S
C499 H474 0.951 . S
C499 C497 1.388 . S
C499 C500 1.366 . S
C500 C499 1.366 . S
C500 C501 1.414 . S
C500 C503 1.499 . S
C501 H475 0.950 . S
C501 C500 1.414 . S
C501 C502 1.374 . S
C502 H476 0.950 . S
C502 C498 1.385 . S
C502 C501 1.374 . S
C503 C500 1.499 . S
C503 C504 1.373 . S
C503 C505 1.389 1_455 S
C504 H477 0.950 . S
C504 C490 1.377 1_455 S
C504 C503 1.373 . S
C505 C489 1.377 . S
C505 C503 1.389 1_655 S
C505 C506 1.524 . S
C506 C505 1.524 . S
C506 C507 1.397 . S
C506 C511 1.363 . S
C507 H478 0.950 . S
C507 C506 1.397 . S
C507 C508 1.334 . S
C508 H479 0.950 . S
C508 C507 1.334 . S
C508 C509 1.287 . S
C509 C508 1.287 . S
C509 C510 1.524 . S
C509 H512 0.999 . S
C510 H480 0.950 . S
C510 C509 1.524 . S
C510 C511 1.415 . S
C511 H481 0.950 . S
C511 C506 1.363 . S
C511 C510 1.415 . S
H512 C509 0.999 . S
H513 C494 0.913 . S
H514 C532 0.951 . S
H515 C534 0.951 . S
H516 C536 0.950 . S
H517 C537 0.950 . S
H518 C539 0.950 . S
H519 C542 0.950 . S
H520 C543 0.950 . S
H521 C545 0.950 . S
H522 C546 0.950 . S
H523 C547 0.951 . S
H524 C549 0.951 . S
H525 C551 0.950 . S
H526 C552 0.950 . S
H527 C554 0.950 . S
H528 C557 0.950 . S
H529 C558 0.950 . S
H530 C560 0.950 . S
H531 C561 0.950 . S
C532 H514 0.951 . S
C532 C533 1.366 . S
C532 C534 1.388 . S
C533 C532 1.366 . S
C533 C537 1.385 . S
C534 H515 0.951 . S
C534 C532 1.388 . S
C534 C535 1.366 . S
C535 C534 1.366 . S
C535 C536 1.414 . S
C535 C538 1.499 . S
C536 H516 0.950 . S
C536 C535 1.414 . S
C536 C537 1.374 . S
C537 H517 0.950 . S
C537 C533 1.385 . S
C537 C536 1.374 . S
C538 C535 1.499 . S
C538 C539 1.373 1_455 S
C538 C540 1.389 . S
C539 H518 0.950 . S
C539 C538 1.373 1_655 S
C539 C555 1.377 . S
C540 C538 1.389 . S
C540 C541 1.524 . S
C540 C554 1.377 1_455 S
C541 C540 1.524 . S
C541 C542 1.397 . S
C541 C546 1.363 . S
C542 H519 0.950 . S
C542 C541 1.397 . S
C542 C543 1.334 . S
C543 H520 0.950 . S
C543 C542 1.334 . S
C543 C544 1.287 . S
C544 C543 1.287 . S
C544 C545 1.524 . S
C544 H563 0.913 . S
C545 H521 0.950 . S
C545 C544 1.524 . S
C545 C546 1.415 . S
C546 H522 0.950 . S
C546 C541 1.363 . S
C546 C545 1.415 . S
C547 H523 0.951 . S
C547 C548 1.366 . S
C547 C549 1.388 . S
C548 C547 1.366 . S
C548 C552 1.385 . S
C549 H524 0.951 . S
C549 C547 1.388 . S
C549 C550 1.366 . S
C550 C549 1.366 . S
C550 C551 1.414 . S
C550 C553 1.499 . S
C551 H525 0.950 . S
C551 C550 1.414 . S
C551 C552 1.374 . S
C552 H526 0.950 . S
C552 C548 1.385 . S
C552 C551 1.374 . S
C553 C550 1.499 . S
C553 C554 1.373 . S
C553 C555 1.389 . S
C554 H527 0.950 . S
C554 C540 1.377 1_655 S
C554 C553 1.373 . S
C555 C539 1.377 . S
C555 C553 1.389 . S
C555 C556 1.524 . S
C556 C555 1.524 . S
C556 C557 1.397 . S
C556 C561 1.363 . S
C557 H528 0.950 . S
C557 C556 1.397 . S
C557 C558 1.334 . S
C558 H529 0.950 . S
C558 C557 1.334 . S
C558 C559 1.287 . S
C559 C558 1.287 . S
C559 C560 1.524 . S
C559 H562 0.999 . S
C560 H530 0.950 . S
C560 C559 1.524 . S
C560 C561 1.415 . S
C561 H531 0.950 . S
C561 C556 1.363 . S
C561 C560 1.415 . S
H562 C559 0.999 . S
H563 C544 0.913 . S
H564 C582 0.951 . S
H565 C584 0.951 . S
H566 C586 0.950 . S
H567 C587 0.950 . S
H568 C589 0.950 . S
H569 C592 0.950 . S
H570 C593 0.950 . S
H571 C595 0.950 . S
H572 C596 0.950 . S
H573 C597 0.951 . S
H574 C599 0.951 . S
H575 C601 0.950 . S
H576 C602 0.950 . S
H577 C604 0.950 . S
H578 C607 0.950 . S
H579 C608 0.950 . S
H580 C610 0.950 . S
H581 C611 0.950 . S
C582 H564 0.951 . S
C582 C583 1.366 . S
C582 C584 1.388 . S
C583 C582 1.366 . S
C583 C587 1.385 . S
C584 H565 0.951 . S
C584 C582 1.388 . S
C584 C585 1.366 . S
C585 C584 1.366 . S
C585 C586 1.414 . S
C585 C588 1.499 . S
C586 H566 0.950 . S
C586 C585 1.414 . S
C586 C587 1.374 . S
C587 H567 0.950 . S
C587 C583 1.385 . S
C587 C586 1.374 . S
C588 C585 1.499 . S
C588 C589 1.373 . S
C588 C590 1.389 . S
C589 H568 0.950 . S
C589 C588 1.373 . S
C589 C605 1.377 . S
C590 C588 1.389 . S
C590 C591 1.524 . S
C590 C604 1.377 . S
C591 C590 1.524 . S
C591 C592 1.397 . S
C591 C596 1.363 . S
C592 H569 0.950 . S
C592 C591 1.397 . S
C592 C593 1.334 . S
C593 H570 0.950 . S
C593 C592 1.334 . S
C593 C594 1.287 . S
C594 C593 1.287 . S
C594 C595 1.524 . S
C594 H613 0.913 . S
C595 H571 0.950 . S
C595 C594 1.524 . S
C595 C596 1.415 . S
C596 H572 0.950 . S
C596 C591 1.363 . S
C596 C595 1.415 . S
C597 H573 0.951 . S
C597 C598 1.366 . S
C597 C599 1.388 . S
C598 C597 1.366 . S
C598 C602 1.385 . S
C599 H574 0.951 . S
C599 C597 1.388 . S
C599 C600 1.366 . S
C600 C599 1.366 . S
C600 C601 1.414 . S
C600 C603 1.499 . S
C601 H575 0.950 . S
C601 C600 1.414 . S
C601 C602 1.374 . S
C602 H576 0.950 . S
C602 C598 1.385 . S
C602 C601 1.374 . S
C603 C600 1.499 . S
C603 C604 1.373 . S
C603 C605 1.389 . S
C604 H577 0.950 . S
C604 C590 1.377 . S
C604 C603 1.373 . S
C605 C589 1.377 . S
C605 C603 1.389 . S
C605 C606 1.524 . S
C606 C605 1.524 . S
C606 C607 1.397 . S
C606 C611 1.363 . S
C607 H578 0.950 . S
C607 C606 1.397 . S
C607 C608 1.334 . S
C608 H579 0.950 . S
C608 C607 1.334 . S
C608 C609 1.287 . S
C609 C608 1.287 . S
C609 C610 1.524 . S
C609 H612 0.999 . S
C610 H580 0.950 . S
C610 C609 1.524 . S
C610 C611 1.415 . S
C611 H581 0.950 . S
C611 C606 1.363 . S
C611 C610 1.415 . S
H612 C609 0.999 . S
H613 C594 0.913 . S
H614 C632 0.951 . S
H615 C634 0.951 . S
H616 C636 0.950 . S
H617 C637 0.950 . S
H618 C639 0.950 . S
H619 C642 0.950 . S
H620 C643 0.950 . S
H621 C645 0.950 . S
H622 C646 0.950 . S
H623 C647 0.951 . S
H624 C649 0.951 . S
H625 C651 0.950 . S
H626 C652 0.950 . S
H627 C654 0.950 . S
H628 C657 0.950 . S
H629 C658 0.950 . S
H630 C660 0.950 . S
H631 C661 0.950 . S
C632 H614 0.951 . S
C632 C633 1.366 . S
C632 C634 1.388 . S
C633 C632 1.366 . S
C633 C637 1.385 . S
C634 H615 0.951 . S
C634 C632 1.388 . S
C634 C635 1.366 . S
C635 C634 1.366 . S
C635 C636 1.414 . S
C635 C638 1.499 . S
C636 H616 0.950 . S
C636 C635 1.414 . S
C636 C637 1.374 . S
C637 H617 0.950 . S
C637 C633 1.385 . S
C637 C636 1.374 . S
C638 C635 1.499 . S
C638 C639 1.373 . S
C638 C640 1.389 . S
C639 H618 0.950 . S
C639 C638 1.373 . S
C639 C655 1.377 . S
C640 C638 1.389 . S
C640 C641 1.524 . S
C640 C654 1.377 . S
C641 C640 1.524 . S
C641 C642 1.397 . S
C641 C646 1.363 . S
C642 H619 0.950 . S
C642 C641 1.397 . S
C642 C643 1.334 1_556 S
C643 H620 0.950 . S
C643 C642 1.334 1_554 S
C643 C644 1.287 . S
C644 C643 1.287 . S
C644 C645 1.524 . S
C644 H663 0.913 . S
C645 H621 0.950 . S
C645 C644 1.524 . S
C645 C646 1.415 1_554 S
C646 H622 0.950 . S
C646 C641 1.363 . S
C646 C645 1.415 1_556 S
C647 H623 0.951 . S
C647 C648 1.366 . S
C647 C649 1.388 . S
C648 C647 1.366 . S
C648 C652 1.385 . S
C649 H624 0.951 . S
C649 C647 1.388 . S
C649 C650 1.366 . S
C650 C649 1.366 . S
C650 C651 1.414 . S
C650 C653 1.499 . S
C651 H625 0.950 . S
C651 C650 1.414 . S
C651 C652 1.374 . S
C652 H626 0.950 . S
C652 C648 1.385 . S
C652 C651 1.374 . S
C653 C650 1.499 . S
C653 C654 1.373 . S
C653 C655 1.389 . S
C654 H627 0.950 . S
C654 C640 1.377 . S
C654 C653 1.373 . S
C655 C639 1.377 . S
C655 C653 1.389 . S
C655 C656 1.524 . S
C656 C655 1.524 . S
C656 C657 1.397 . S
C656 C661 1.363 . S
C657 H628 0.950 . S
C657 C656 1.397 . S
C657 C658 1.334 . S
C658 H629 0.950 . S
C658 C657 1.334 . S
C658 C659 1.287 . S
C659 C658 1.287 . S
C659 C660 1.524 . S
C659 H662 0.999 . S
C660 H630 0.950 . S
C660 C659 1.524 . S
C660 C661 1.415 . S
C661 H631 0.950 . S
C661 C656 1.363 . S
C661 C660 1.415 . S
H662 C659 0.999 . S
H663 C644 0.913 . S
H664 C682 0.951 . S
H665 C684 0.951 . S
H666 C686 0.950 . S
H667 C687 0.950 . S
H668 C689 0.950 . S
H669 C692 0.950 . S
H670 C693 0.950 . S
H671 C695 0.950 . S
H672 C696 0.950 . S
H673 C697 0.951 . S
H674 C699 0.951 . S
H675 C701 0.950 . S
H676 C702 0.950 . S
H677 C704 0.950 . S
H678 C707 0.950 . S
H679 C708 0.950 1_554 S
H680 C710 0.950 . S
H681 C711 0.950 . S
C682 H664 0.951 . S
C682 C683 1.366 . S
C682 C684 1.388 . S
C683 C682 1.366 . S
C683 C687 1.385 . S
C684 H665 0.951 . S
C684 C682 1.388 . S
C684 C685 1.366 . S
C685 C684 1.366 . S
C685 C686 1.414 . S
C685 C688 1.499 . S
C686 H666 0.950 . S
C686 C685 1.414 . S
C686 C687 1.374 . S
C687 H667 0.950 . S
C687 C683 1.385 . S
C687 C686 1.374 . S
C688 C685 1.499 . S
C688 C689 1.373 1_655 S
C688 C690 1.389 . S
C689 H668 0.950 . S
C689 C688 1.373 1_455 S
C689 C705 1.377 . S
C690 C688 1.389 . S
C690 C691 1.524 . S
C690 C704 1.377 1_655 S
C691 C690 1.524 . S
C691 C692 1.397 . S
C691 C696 1.363 . S
C692 H669 0.950 . S
C692 C691 1.397 . S
C692 C693 1.334 . S
C693 H670 0.950 . S
C693 C692 1.334 . S
C693 C694 1.287 . S
C694 C693 1.287 . S
C694 C695 1.524 . S
C694 H713 0.913 . S
C695 H671 0.950 . S
C695 C694 1.524 . S
C695 C696 1.415 . S
C696 H672 0.950 . S
C696 C691 1.363 . S
C696 C695 1.415 . S
C697 H673 0.951 . S
C697 C698 1.366 . S
C697 C699 1.388 . S
C698 C697 1.366 . S
C698 C702 1.385 . S
C699 H674 0.951 . S
C699 C697 1.388 . S
C699 C700 1.366 . S
C700 C699 1.366 . S
C700 C701 1.414 . S
C700 C703 1.499 . S
C701 H675 0.950 . S
C701 C700 1.414 . S
C701 C702 1.374 . S
C702 H676 0.950 . S
C702 C698 1.385 . S
C702 C701 1.374 . S
C703 C700 1.499 . S
C703 C704 1.373 . S
C703 C705 1.389 . S
C704 H677 0.950 . S
C704 C690 1.377 1_455 S
C704 C703 1.373 . S
C705 C689 1.377 . S
C705 C703 1.389 . S
C705 C706 1.524 . S
C706 C705 1.524 . S
C706 C707 1.397 . S
C706 C711 1.363 . S
C707 H678 0.950 . S
C707 C706 1.397 . S
C707 C708 1.334 . S
C708 H679 0.950 1_556 S
C708 C707 1.334 . S
C708 C709 1.287 . S
C709 C708 1.287 . S
C709 C710 1.524 . S
C709 H712 0.992 1_556 S
C710 H680 0.950 . S
C710 C709 1.524 . S
C710 C711 1.415 . S
C711 H681 0.950 . S
C711 C706 1.363 . S
C711 C710 1.415 . S
H712 C709 0.992 1_554 S
H713 C694 0.913 . S
H714 C732 0.951 . S
H715 C734 0.951 . S
H716 C736 0.950 . S
H717 C737 0.950 . S
H718 C739 0.950 . S
H719 C742 0.950 . S
H720 C743 0.950 . S
H721 C745 0.950 . S
H722 C746 0.950 . S
H723 C747 0.951 . S
H724 C749 0.951 . S
H725 C751 0.950 . S
H726 C752 0.950 . S
H727 C754 0.950 . S
H728 C757 0.950 . S
H729 C758 0.950 . S
H730 C760 0.950 . S
H731 C761 0.950 . S
C732 H714 0.951 . S
C732 C733 1.366 . S
C732 C734 1.388 . S
C733 C732 1.366 . S
C733 C737 1.385 . S
C734 H715 0.951 . S
C734 C732 1.388 . S
C734 C735 1.366 . S
C735 C734 1.366 . S
C735 C736 1.414 . S
C735 C738 1.499 . S
C736 H716 0.950 . S
C736 C735 1.414 . S
C736 C737 1.374 . S
C737 H717 0.950 . S
C737 C733 1.385 . S
C737 C736 1.374 . S
C738 C735 1.499 . S
C738 C739 1.373 . S
C738 C740 1.389 . S
C739 H718 0.950 . S
C739 C738 1.373 . S
C739 C755 1.377 1_455 S
C740 C738 1.389 . S
C740 C741 1.524 . S
C740 C754 1.377 1_455 S
C741 C740 1.524 . S
C741 C742 1.397 . S
C741 C746 1.363 . S
C742 H719 0.950 . S
C742 C741 1.397 . S
C742 C743 1.334 . S
C743 H720 0.950 . S
C743 C742 1.334 . S
C743 C744 1.287 . S
C744 C743 1.287 . S
C744 C745 1.524 . S
C744 H763 0.913 . S
C745 H721 0.950 . S
C745 C744 1.524 . S
C745 C746 1.415 . S
C746 H722 0.950 . S
C746 C741 1.363 . S
C746 C745 1.415 . S
C747 H723 0.951 . S
C747 C748 1.366 . S
C747 C749 1.388 . S
C748 C747 1.366 . S
C748 C752 1.385 . S
C749 H724 0.951 . S
C749 C747 1.388 . S
C749 C750 1.366 . S
C750 C749 1.366 . S
C750 C751 1.414 . S
C750 C753 1.499 . S
C751 H725 0.950 . S
C751 C750 1.414 . S
C751 C752 1.374 . S
C752 H726 0.950 . S
C752 C748 1.385 . S
C752 C751 1.374 . S
C753 C750 1.499 . S
C753 C754 1.373 . S
C753 C755 1.389 . S
C754 H727 0.950 . S
C754 C740 1.377 1_655 S
C754 C753 1.373 . S
C755 C739 1.377 1_655 S
C755 C753 1.389 . S
C755 C756 1.524 . S
C756 C755 1.524 . S
C756 C757 1.397 . S
C756 C761 1.363 . S
C757 H728 0.950 . S
C757 C756 1.397 . S
C757 C758 1.334 . S
C758 H729 0.950 . S
C758 C757 1.334 . S
C758 C759 1.287 . S
C759 C758 1.287 . S
C759 C760 1.524 . S
C759 H762 0.999 . S
C760 H730 0.950 . S
C760 C759 1.524 . S
C760 C761 1.415 . S
C761 H731 0.950 . S
C761 C756 1.363 . S
C761 C760 1.415 . S
H762 C759 0.999 . S
H763 C744 0.913 . S
H764 C782 0.951 . S
H765 C784 0.951 . S
H766 C786 0.950 . S
H767 C787 0.950 . S
H768 C789 0.950 . S
H769 C792 0.950 . S
H770 C793 0.950 . S
H771 C795 0.950 . S
H772 C796 0.950 . S
H773 C797 0.951 . S
H774 C799 0.951 . S
H775 C801 0.950 . S
H776 C802 0.950 . S
H777 C804 0.950 . S
H778 C807 0.950 . S
H779 C808 0.950 . S
H780 C810 0.950 . S
H781 C811 0.950 . S
C782 H764 0.951 . S
C782 C783 1.366 . S
C782 C784 1.388 . S
C783 C782 1.366 . S
C783 C787 1.385 . S
C784 H765 0.951 . S
C784 C782 1.388 . S
C784 C785 1.366 . S
C785 C784 1.366 . S
C785 C786 1.414 . S
C785 C788 1.499 . S
C786 H766 0.950 . S
C786 C785 1.414 . S
C786 C787 1.374 . S
C787 H767 0.950 . S
C787 C783 1.385 . S
C787 C786 1.374 . S
C788 C785 1.499 . S
C788 C789 1.373 . S
C788 C790 1.389 . S
C789 H768 0.950 . S
C789 C788 1.373 . S
C789 C805 1.377 . S
C790 C788 1.389 . S
C790 C791 1.524 . S
C790 C804 1.377 . S
C791 C790 1.524 . S
C791 C792 1.397 . S
C791 C796 1.363 . S
C792 H769 0.950 . S
C792 C791 1.397 . S
C792 C793 1.334 . S
C793 H770 0.950 . S
C793 C792 1.334 . S
C793 C794 1.287 . S
C794 C793 1.287 . S
C794 C795 1.524 . S
C794 H813 0.913 . S
C795 H771 0.950 . S
C795 C794 1.524 . S
C795 C796 1.415 . S
C796 H772 0.950 . S
C796 C791 1.363 . S
C796 C795 1.415 . S
C797 H773 0.951 . S
C797 C798 1.366 . S
C797 C799 1.388 . S
C798 C797 1.366 . S
C798 C802 1.385 . S
C799 H774 0.951 . S
C799 C797 1.388 . S
C799 C800 1.366 . S
C800 C799 1.366 . S
C800 C801 1.414 . S
C800 C803 1.499 . S
C801 H775 0.950 . S
C801 C800 1.414 . S
C801 C802 1.374 . S
C802 H776 0.950 . S
C802 C798 1.385 . S
C802 C801 1.374 . S
C803 C800 1.499 . S
C803 C804 1.373 . S
C803 C805 1.389 . S
C804 H777 0.950 . S
C804 C790 1.377 . S
C804 C803 1.373 . S
C805 C789 1.377 . S
C805 C803 1.389 . S
C805 C806 1.524 . S
C806 C805 1.524 . S
C806 C807 1.397 . S
C806 C811 1.363 . S
C807 H778 0.950 . S
C807 C806 1.397 . S
C807 C808 1.334 . S
C808 H779 0.950 . S
C808 C807 1.334 . S
C808 C809 1.287 . S
C809 C808 1.287 . S
C809 C810 1.524 . S
C809 H812 0.999 . S
C810 H780 0.950 . S
C810 C809 1.524 . S
C810 C811 1.415 . S
C811 H781 0.950 . S
C811 C806 1.363 . S
C811 C810 1.415 . S
H812 C809 0.999 . S
H813 C794 0.913 . S
H814 C832 0.951 . S
H815 C834 0.951 . S
H816 C836 0.950 . S
H817 C837 0.950 . S
H818 C839 0.950 . S
H819 C842 0.950 . S
H820 C843 0.950 . S
H821 C845 0.950 . S
H822 C846 0.950 . S
H823 C847 0.951 . S
H824 C849 0.951 . S
H825 C851 0.950 . S
H826 C852 0.950 . S
H827 C854 0.950 . S
H828 C857 0.950 . S
H829 C858 0.950 . S
H830 C860 0.950 . S
H831 C861 0.950 . S
C832 H814 0.951 . S
C832 C833 1.366 . S
C832 C834 1.388 . S
C833 C832 1.366 . S
C833 C837 1.385 . S
C834 H815 0.951 . S
C834 C832 1.388 . S
C834 C835 1.366 . S
C835 C834 1.366 . S
C835 C836 1.414 . S
C835 C838 1.499 . S
C836 H816 0.950 . S
C836 C835 1.414 . S
C836 C837 1.374 . S
C837 H817 0.950 . S
C837 C833 1.385 . S
C837 C836 1.374 . S
C838 C835 1.499 . S
C838 C839 1.373 . S
C838 C840 1.389 . S
C839 H818 0.950 . S
C839 C838 1.373 . S
C839 C855 1.377 . S
C840 C838 1.389 . S
C840 C841 1.524 . S
C840 C854 1.377 . S
C841 C840 1.524 . S
C841 C842 1.397 . S
C841 C846 1.363 . S
C842 H819 0.950 . S
C842 C841 1.397 . S
C842 C843 1.334 . S
C843 H820 0.950 . S
C843 C842 1.334 . S
C843 C844 1.287 . S
C844 C843 1.287 . S
C844 C845 1.524 1_554 S
C844 H863 0.932 . S
C845 H821 0.950 . S
C845 C844 1.524 1_556 S
C845 C846 1.415 1_556 S
C846 H822 0.950 . S
C846 C841 1.363 . S
C846 C845 1.415 1_554 S
C847 H823 0.951 . S
C847 C848 1.366 . S
C847 C849 1.388 . S
C848 C847 1.366 . S
C848 C852 1.385 . S
C849 H824 0.951 . S
C849 C847 1.388 . S
C849 C850 1.366 . S
C850 C849 1.366 . S
C850 C851 1.414 . S
C850 C853 1.499 . S
C851 H825 0.950 . S
C851 C850 1.414 . S
C851 C852 1.374 . S
C852 H826 0.950 . S
C852 C848 1.385 . S
C852 C851 1.374 . S
C853 C850 1.499 . S
C853 C854 1.373 . S
C853 C855 1.389 . S
C854 H827 0.950 . S
C854 C840 1.377 . S
C854 C853 1.373 . S
C855 C839 1.377 . S
C855 C853 1.389 . S
C855 C856 1.524 . S
C856 C855 1.524 . S
C856 C857 1.397 . S
C856 C861 1.363 . S
C857 H828 0.950 . S
C857 C856 1.397 . S
C857 C858 1.334 . S
C858 H829 0.950 . S
C858 C857 1.334 . S
C858 C859 1.287 . S
C859 C858 1.287 . S
C859 C860 1.524 . S
C859 H862 0.999 . S
C860 H830 0.950 . S
C860 C859 1.524 . S
C860 C861 1.415 . S
C861 H831 0.950 . S
C861 C856 1.363 . S
C861 C860 1.415 . S
H862 C859 0.999 . S
H863 C844 0.932 . S
H864 C882 0.951 . S
H865 C884 0.951 . S
H866 C886 0.950 . S
H867 C887 0.950 . S
H868 C889 0.950 . S
H869 C892 0.950 . S
H870 C893 0.950 . S
H871 C895 0.950 . S
H872 C896 0.950 . S
H873 C897 0.951 . S
H874 C899 0.951 . S
H875 C901 0.950 . S
H876 C902 0.950 . S
H877 C904 0.950 . S
H878 C907 0.950 . S
H879 C908 0.950 . S
H880 C910 0.950 . S
H881 C911 0.950 . S
C882 H864 0.951 . S
C882 C883 1.366 . S
C882 C884 1.388 . S
C883 C882 1.366 . S
C883 C887 1.385 . S
C884 H865 0.951 . S
C884 C882 1.388 . S
C884 C885 1.366 . S
C885 C884 1.366 . S
C885 C886 1.414 . S
C885 C888 1.499 . S
C886 H866 0.950 . S
C886 C885 1.414 . S
C886 C887 1.374 . S
C887 H867 0.950 . S
C887 C883 1.385 . S
C887 C886 1.374 . S
C888 C885 1.499 . S
C888 C889 1.373 . S
C888 C890 1.389 1_556 S
C889 H868 0.950 . S
C889 C888 1.373 . S
C889 C905 1.377 . S
C890 C888 1.389 1_554 S
C890 C891 1.524 . S
C890 C904 1.377 . S
C891 C890 1.524 . S
C891 C892 1.397 . S
C891 C896 1.363 . S
C892 H869 0.950 . S
C892 C891 1.397 . S
C892 C893 1.334 . S
C893 H870 0.950 . S
C893 C892 1.334 . S
C893 C894 1.287 . S
C894 C893 1.287 . S
C894 C895 1.524 . S
C894 H913 0.913 . S
C895 H871 0.950 . S
C895 C894 1.524 . S
C895 C896 1.415 . S
C896 H872 0.950 . S
C896 C891 1.363 . S
C896 C895 1.415 . S
C897 H873 0.951 . S
C897 C898 1.366 . S
C897 C899 1.388 . S
C898 C897 1.366 . S
C898 C902 1.385 . S
C899 H874 0.951 . S
C899 C897 1.388 . S
C899 C900 1.366 . S
C900 C899 1.366 . S
C900 C901 1.414 . S
C900 C903 1.499 1_554 S
C901 H875 0.950 . S
C901 C900 1.414 . S
C901 C902 1.374 . S
C902 H876 0.950 . S
C902 C898 1.385 . S
C902 C901 1.374 . S
C903 C900 1.499 1_556 S
C903 C904 1.373 1_556 S
C903 C905 1.389 . S
C904 H877 0.950 . S
C904 C890 1.377 . S
C904 C903 1.373 1_554 S
C905 C889 1.377 . S
C905 C903 1.389 . S
C905 C906 1.524 . S
C906 C905 1.524 . S
C906 C907 1.397 . S
C906 C911 1.363 . S
C907 H878 0.950 . S
C907 C906 1.397 . S
C907 C908 1.334 . S
C908 H879 0.950 . S
C908 C907 1.334 . S
C908 C909 1.287 . S
C909 C908 1.287 . S
C909 C910 1.524 . S
C909 H912 0.999 . S
C910 H880 0.950 . S
C910 C909 1.524 . S
C910 C911 1.415 . S
C911 H881 0.950 . S
C911 C906 1.363 . S
C911 C910 1.415 . S
H912 C909 0.999 . S
H913 C894 0.913 . S
H914 C932 0.951 . S
H915 C934 0.951 . S
H916 C936 0.950 . S
H917 C937 0.950 . S
H918 C939 0.950 . S
H919 C942 0.950 . S
H920 C943 0.950 . S
H921 C945 0.950 . S
H922 C946 0.950 . S
H923 C947 0.951 . S
H924 C949 0.951 . S
H925 C951 0.950 . S
H926 C952 0.950 . S
H927 C954 0.950 . S
H928 C957 0.950 . S
H929 C958 0.950 . S
H930 C960 0.953 . S
H931 C961 0.950 1_565 S
C932 H914 0.951 . S
C932 C933 1.366 . S
C932 C934 1.388 . S
C933 C932 1.366 . S
C933 C937 1.385 . S
C934 H915 0.951 . S
C934 C932 1.388 . S
C934 C935 1.366 . S
C935 C934 1.366 . S
C935 C936 1.414 . S
C935 C938 1.499 . S
C936 H916 0.950 . S
C936 C935 1.414 . S
C936 C937 1.374 . S
C937 H917 0.950 . S
C937 C933 1.385 . S
C937 C936 1.374 . S
C938 C935 1.499 . S
C938 C939 1.373 . S
C938 C940 1.416 . S
C939 H918 0.950 . S
C939 C938 1.373 . S
C939 C955 1.377 1_565 S
C940 C938 1.416 . S
C940 C941 1.537 . S
C940 C954 1.337 1_565 S
C941 C940 1.537 . S
C941 C942 1.397 . S
C941 C946 1.363 1_565 S
C942 H919 0.950 . S
C942 C941 1.397 . S
C942 C943 1.334 . S
C943 H920 0.950 . S
C943 C942 1.334 . S
C943 C944 1.287 . S
C944 C943 1.287 . S
C944 C945 1.524 1_565 S
C944 H963 0.913 . S
C945 H921 0.950 . S
C945 C944 1.524 1_545 S
C945 C946 1.415 . S
C946 H922 0.950 . S
C946 C941 1.363 1_545 S
C946 C945 1.415 . S
C947 H923 0.951 . S
C947 C948 1.366 . S
C947 C949 1.388 . S
C948 C947 1.366 . S
C948 C952 1.385 . S
C949 H924 0.951 . S
C949 C947 1.388 . S
C949 C950 1.366 . S
C950 C949 1.366 . S
C950 C951 1.414 . S
C950 C953 1.499 . S
C951 H925 0.950 . S
C951 C950 1.414 . S
C951 C952 1.374 . S
C952 H926 0.950 . S
C952 C948 1.385 . S
C952 C951 1.374 . S
C953 C950 1.499 . S
C953 C954 1.373 . S
C953 C955 1.389 . S
C954 H927 0.950 . S
C954 C940 1.337 1_545 S
C954 C953 1.373 . S
C955 C939 1.377 1_545 S
C955 C953 1.389 . S
C955 C956 1.524 . S
C956 C955 1.524 . S
C956 C957 1.397 . S
C956 C961 1.363 . S
C957 H928 0.950 . S
C957 C956 1.397 . S
C957 C958 1.334 . S
C958 H929 0.950 . S
C958 C957 1.334 . S
C958 C959 1.287 . S
C959 C958 1.287 . S
C959 C960 1.524 . S
C959 H962 0.999 . S
C960 H930 0.953 . S
C960 C959 1.524 . S
C960 C961 1.415 . S
C961 H931 0.950 1_545 S
C961 C956 1.363 . S
C961 C960 1.415 . S
H962 C959 0.999 . S
H963 C944 0.913 . S
H964 C982 0.951 . S
H965 C984 0.951 . S
H966 C986 0.950 . S
H967 C987 0.950 . S
H968 C989 0.950 . S
H969 C992 0.950 . S
H970 C993 0.950 . S
H971 C995 0.950 . S
H972 C996 0.950 . S
H973 C997 0.951 . S
H974 C999 0.951 . S
H975 C1001 0.950 . S
H976 C1002 0.950 . S
H977 C1004 0.950 . S
H978 C1007 0.950 . S
H979 C1008 0.950 . S
H980 C1010 0.950 . S
H981 C1011 0.950 . S
C982 H964 0.951 . S
C982 C983 1.366 . S
C982 C984 1.388 . S
C983 C982 1.366 . S
C983 C987 1.385 . S
C984 H965 0.951 . S
C984 C982 1.388 . S
C984 C985 1.366 . S
C985 C984 1.366 . S
C985 C986 1.414 . S
C985 C988 1.499 . S
C986 H966 0.950 . S
C986 C985 1.414 . S
C986 C987 1.374 . S
C987 H967 0.950 . S
C987 C983 1.385 . S
C987 C986 1.374 . S
C988 C985 1.499 . S
C988 C989 1.373 . S
C988 C990 1.389 . S
C989 H968 0.950 . S
C989 C988 1.373 . S
C989 C1005 1.377 . S
C990 C988 1.389 . S
C990 C991 1.524 . S
C990 C1004 1.377 . S
C991 C990 1.524 . S
C991 C992 1.397 . S
C991 C996 1.363 . S
C992 H969 0.950 . S
C992 C991 1.397 . S
C992 C993 1.334 . S
C993 H970 0.950 . S
C993 C992 1.334 . S
C993 C994 1.287 . S
C994 C993 1.287 . S
C994 C995 1.524 . S
C994 H1013 0.913 . S
C995 H971 0.950 . S
C995 C994 1.524 . S
C995 C996 1.415 . S
C996 H972 0.950 . S
C996 C991 1.363 . S
C996 C995 1.415 . S
C997 H973 0.951 . S
C997 C998 1.366 . S
C997 C999 1.388 . S
C998 C997 1.366 . S
C998 C1002 1.385 . S
C999 H974 0.951 . S
C999 C997 1.388 . S
C999 C1000 1.366 . S
C1000 C999 1.366 . S
C1000 C1001 1.414 . S
C1000 C1003 1.499 . S
C1001 H975 0.950 . S
C1001 C1000 1.414 . S
C1001 C1002 1.374 . S
C1002 H976 0.950 . S
C1002 C998 1.385 . S
C1002 C1001 1.374 . S
C1003 C1000 1.499 . S
C1003 C1004 1.373 . S
C1003 C1005 1.389 . S
C1004 H977 0.950 . S
C1004 C990 1.377 . S
C1004 C1003 1.373 . S
C1005 C989 1.377 . S
C1005 C1003 1.389 . S
C1005 C1006 1.524 . S
C1006 C1005 1.524 . S
C1006 C1007 1.397 . S
C1006 C1011 1.363 . S
C1007 H978 0.950 . S
C1007 C1006 1.397 . S
C1007 C1008 1.334 . S
C1008 H979 0.950 . S
C1008 C1007 1.334 . S
C1008 C1009 1.287 . S
C1009 C1008 1.287 . S
C1009 C1010 1.524 . S
C1009 H1012 0.999 . S
C1010 H980 0.950 . S
C1010 C1009 1.524 . S
C1010 C1011 1.415 . S
C1011 H981 0.950 . S
C1011 C1006 1.363 . S
C1011 C1010 1.415 . S
H1012 C1009 0.999 . S
H1013 C994 0.913 . S
H1014 C1032 0.951 . S
H1015 C1034 0.951 . S
H1016 C1036 0.950 . S
H1017 C1037 0.950 . S
H1018 C1039 0.950 . S
H1019 C1042 0.950 . S
H1020 C1043 0.950 . S
H1021 C1045 0.950 . S
H1022 C1046 0.950 . S
H1023 C1047 0.951 . S
H1024 C1049 0.951 . S
H1025 C1051 0.950 . S
H1026 C1052 0.950 . S
H1027 C1054 0.950 . S
H1028 C1057 0.950 . S
H1029 C1058 0.950 . S
H1030 C1060 0.950 1_565 S
H1031 C1061 0.950 1_565 S
C1032 H1014 0.951 . S
C1032 C1033 1.366 . S
C1032 C1034 1.388 . S
C1033 C1032 1.366 . S
C1033 C1037 1.385 . S
C1034 H1015 0.951 . S
C1034 C1032 1.388 . S
C1034 C1035 1.366 . S
C1035 C1034 1.366 . S
C1035 C1036 1.414 . S
C1035 C1038 1.499 . S
C1036 H1016 0.950 . S
C1036 C1035 1.414 . S
C1036 C1037 1.374 . S
C1037 H1017 0.950 . S
C1037 C1033 1.385 . S
C1037 C1036 1.374 . S
C1038 C1035 1.499 . S
C1038 C1039 1.373 . S
C1038 C1040 1.389 1_565 S
C1039 H1018 0.950 . S
C1039 C1038 1.373 . S
C1039 C1055 1.377 1_565 S
C1040 C1038 1.389 1_545 S
C1040 C1041 1.525 1_545 S
C1040 C1054 1.377 . S
C1041 C1040 1.525 1_565 S
C1041 C1042 1.400 . S
C1041 C1046 1.359 1_565 S
C1042 H1019 0.950 . S
C1042 C1041 1.400 . S
C1042 C1043 1.334 . S
C1043 H1020 0.950 . S
C1043 C1042 1.334 . S
C1043 C1044 1.287 . S
C1044 C1043 1.287 . S
C1044 C1045 1.524 1_565 S
C1044 H1063 0.913 . S
C1045 H1021 0.950 . S
C1045 C1044 1.524 1_545 S
C1045 C1046 1.415 . S
C1046 H1022 0.950 . S
C1046 C1041 1.359 1_545 S
C1046 C1045 1.415 . S
C1047 H1023 0.951 . S
C1047 C1048 1.366 . S
C1047 C1049 1.388 . S
C1048 C1047 1.366 . S
C1048 C1052 1.385 . S
C1049 H1024 0.951 . S
C1049 C1047 1.388 . S
C1049 C1050 1.366 . S
C1050 C1049 1.366 . S
C1050 C1051 1.414 . S
C1050 C1053 1.499 . S
C1051 H1025 0.950 . S
C1051 C1050 1.414 . S
C1051 C1052 1.374 . S
C1052 H1026 0.950 . S
C1052 C1048 1.385 . S
C1052 C1051 1.374 . S
C1053 C1050 1.499 . S
C1053 C1054 1.373 . S
C1053 C1055 1.389 . S
C1054 H1027 0.950 . S
C1054 C1040 1.377 . S
C1054 C1053 1.373 . S
C1055 C1039 1.377 1_545 S
C1055 C1053 1.389 . S
C1055 C1056 1.524 . S
C1056 C1055 1.524 . S
C1056 C1057 1.397 . S
C1056 C1061 1.363 . S
C1057 H1028 0.950 . S
C1057 C1056 1.397 . S
C1057 C1058 1.334 . S
C1058 H1029 0.950 . S
C1058 C1057 1.334 . S
C1058 C1059 1.287 . S
C1059 C1058 1.287 . S
C1059 C1060 1.524 . S
C1059 H1062 0.999 . S
C1060 H1030 0.950 1_545 S
C1060 C1059 1.524 . S
C1060 C1061 1.415 . S
C1061 H1031 0.950 1_545 S
C1061 C1056 1.363 . S
C1061 C1060 1.415 . S
H1062 C1059 0.999 . S
H1063 C1044 0.913 . S
H1064 C1082 0.951 . S
H1065 C1084 0.951 . S
H1066 C1086 0.950 1_554 S
H1067 C1087 0.950 1_554 S
H1068 C1089 0.950 . S
H1069 C1092 0.950 . S
H1070 C1093 0.950 . S
H1071 C1095 0.950 . S
H1072 C1096 0.950 . S
H1073 C1097 0.951 . S
H1074 C1099 0.951 . S
H1075 C1101 0.950 . S
H1076 C1102 0.950 . S
H1077 C1104 0.950 . S
H1078 C1107 0.950 . S
H1079 C1108 0.950 . S
H1080 C1110 0.950 . S
H1081 C1111 0.950 . S
C1082 H1064 0.951 . S
C1082 C1083 1.366 . S
C1082 C1084 1.388 . S
C1083 C1082 1.366 . S
C1083 C1087 1.385 . S
C1084 H1065 0.951 . S
C1084 C1082 1.388 . S
C1084 C1085 1.366 . S
C1085 C1084 1.366 . S
C1085 C1086 1.414 . S
C1085 C1088 1.499 . S
C1086 H1066 0.950 1_556 S
C1086 C1085 1.414 . S
C1086 C1087 1.374 . S
C1087 H1067 0.950 1_556 S
C1087 C1083 1.385 . S
C1087 C1086 1.374 . S
C1088 C1085 1.499 . S
C1088 C1089 1.373 1_556 S
C1088 C1090 1.389 . S
C1089 H1068 0.950 . S
C1089 C1088 1.373 1_554 S
C1089 C1105 1.377 . S
C1090 C1088 1.389 . S
C1090 C1091 1.524 . S
C1090 C1104 1.377 . S
C1091 C1090 1.524 . S
C1091 C1092 1.397 . S
C1091 C1096 1.363 . S
C1092 H1069 0.950 . S
C1092 C1091 1.397 . S
C1092 C1093 1.334 . S
C1093 H1070 0.950 . S
C1093 C1092 1.334 . S
C1093 C1094 1.287 . S
C1094 C1093 1.287 . S
C1094 C1095 1.524 . S
C1094 H1113 0.913 . S
C1095 H1071 0.950 . S
C1095 C1094 1.524 . S
C1095 C1096 1.415 . S
C1096 H1072 0.950 . S
C1096 C1091 1.363 . S
C1096 C1095 1.415 . S
C1097 H1073 0.951 . S
C1097 C1098 1.366 . S
C1097 C1099 1.388 . S
C1098 C1097 1.366 . S
C1098 C1102 1.385 1_554 S
C1099 H1074 0.951 . S
C1099 C1097 1.388 . S
C1099 C1100 1.366 . S
C1100 C1099 1.366 . S
C1100 C1101 1.414 1_554 S
C1100 C1103 1.499 1_554 S
C1101 H1075 0.950 . S
C1101 C1100 1.414 1_556 S
C1101 C1102 1.374 . S
C1102 H1076 0.950 . S
C1102 C1098 1.385 1_556 S
C1102 C1101 1.374 . S
C1103 C1100 1.499 1_556 S
C1103 C1104 1.373 . S
C1103 C1105 1.389 1_556 S
C1104 H1077 0.950 . S
C1104 C1090 1.377 . S
C1104 C1103 1.373 . S
C1105 C1089 1.377 . S
C1105 C1103 1.389 1_554 S
C1105 C1106 1.524 . S
C1106 C1105 1.524 . S
C1106 C1107 1.397 . S
C1106 C1111 1.363 . S
C1107 H1078 0.950 . S
C1107 C1106 1.397 . S
C1107 C1108 1.334 . S
C1108 H1079 0.950 . S
C1108 C1107 1.334 . S
C1108 C1109 1.287 . S
C1109 C1108 1.287 . S
C1109 C1110 1.524 . S
C1109 H1112 0.999 . S
C1110 H1080 0.950 . S
C1110 C1109 1.524 . S
C1110 C1111 1.415 . S
C1111 H1081 0.950 . S
C1111 C1106 1.363 . S
C1111 C1110 1.415 . S
H1112 C1109 0.999 . S
H1113 C1094 0.913 . S
H1114 C1132 0.951 . S
H1115 C1134 0.951 . S
H1116 C1136 0.950 . S
H1117 C1137 0.950 . S
H1118 C1139 0.950 . S
H1119 C1142 0.950 . S
H1120 C1143 0.950 . S
H1121 C1145 0.950 . S
H1122 C1146 0.950 . S
H1123 C1147 0.951 . S
H1124 C1149 0.951 . S
H1125 C1151 0.950 . S
H1126 C1152 0.950 . S
H1127 C1154 0.950 . S
H1128 C1157 0.950 . S
H1129 C1158 0.950 . S
H1130 C1160 0.950 . S
H1131 C1161 0.950 . S
C1132 H1114 0.951 . S
C1132 C1133 1.366 . S
C1132 C1134 1.388 . S
C1133 C1132 1.366 . S
C1133 C1137 1.385 . S
C1134 H1115 0.951 . S
C1134 C1132 1.388 . S
C1134 C1135 1.366 . S
C1135 C1134 1.366 . S
C1135 C1136 1.414 . S
C1135 C1138 1.499 . S
C1136 H1116 0.950 . S
C1136 C1135 1.414 . S
C1136 C1137 1.374 . S
C1137 H1117 0.950 . S
C1137 C1133 1.385 . S
C1137 C1136 1.374 . S
C1138 C1135 1.499 . S
C1138 C1139 1.373 . S
C1138 C1140 1.389 . S
C1139 H1118 0.950 . S
C1139 C1138 1.373 . S
C1139 C1155 1.377 1_565 S
C1140 C1138 1.389 . S
C1140 C1141 1.524 . S
C1140 C1154 1.377 1_565 S
C1141 C1140 1.524 . S
C1141 C1142 1.397 . S
C1141 C1146 1.363 . S
C1142 H1119 0.950 . S
C1142 C1141 1.397 . S
C1142 C1143 1.334 . S
C1143 H1120 0.950 . S
C1143 C1142 1.334 . S
C1143 C1144 1.287 . S
C1144 C1143 1.287 . S
C1144 C1145 1.524 . S
C1144 H1163 0.913 . S
C1145 H1121 0.950 . S
C1145 C1144 1.524 . S
C1145 C1146 1.415 . S
C1146 H1122 0.950 . S
C1146 C1141 1.363 . S
C1146 C1145 1.415 . S
C1147 H1123 0.951 . S
C1147 C1148 1.366 . S
C1147 C1149 1.388 . S
C1148 C1147 1.366 . S
C1148 C1152 1.385 . S
C1149 H1124 0.951 . S
C1149 C1147 1.388 . S
C1149 C1150 1.366 . S
C1150 C1149 1.366 . S
C1150 C1151 1.414 . S
C1150 C1153 1.499 . S
C1151 H1125 0.950 . S
C1151 C1150 1.414 . S
C1151 C1152 1.374 . S
C1152 H1126 0.950 . S
C1152 C1148 1.385 . S
C1152 C1151 1.374 . S
C1153 C1150 1.499 . S
C1153 C1154 1.373 . S
C1153 C1155 1.389 . S
C1154 H1127 0.950 . S
C1154 C1140 1.377 1_545 S
C1154 C1153 1.373 . S
C1155 C1139 1.377 1_545 S
C1155 C1153 1.389 . S
C1155 C1156 1.524 . S
C1156 C1155 1.524 . S
C1156 C1157 1.397 . S
C1156 C1161 1.363 . S
C1157 H1128 0.950 . S
C1157 C1156 1.397 . S
C1157 C1158 1.334 . S
C1158 H1129 0.950 . S
C1158 C1157 1.334 . S
C1158 C1159 1.287 . S
C1159 C1158 1.287 . S
C1159 C1160 1.524 . S
C1159 H1162 0.999 . S
C1160 H1130 0.950 . S
C1160 C1159 1.524 . S
C1160 C1161 1.415 . S
C1161 H1131 0.950 . S
C1161 C1156 1.363 . S
C1161 C1160 1.415 . S
H1162 C1159 0.999 . S
H1163 C1144 0.913 . S
H1164 C1182 0.951 . S
H1165 C1184 0.951 . S
H1166 C1186 0.950 . S
H1167 C1187 0.950 . S
H1168 C1189 0.950 . S
H1169 C1192 0.950 . S
H1170 C1193 0.950 . S
H1171 C1195 0.950 . S
H1172 C1196 0.950 . S
H1173 C1197 0.951 . S
H1174 C1199 0.951 . S
H1175 C1201 0.950 . S
H1176 C1202 0.950 . S
H1177 C1204 0.950 . S
H1178 C1207 0.950 . S
H1179 C1208 0.950 . S
H1180 C1210 0.950 . S
H1181 C1211 0.950 . S
C1182 H1164 0.951 . S
C1182 C1183 1.366 . S
C1182 C1184 1.388 . S
C1183 C1182 1.366 . S
C1183 C1187 1.385 . S
C1184 H1165 0.951 . S
C1184 C1182 1.388 . S
C1184 C1185 1.366 . S
C1185 C1184 1.366 . S
C1185 C1186 1.414 . S
C1185 C1188 1.499 . S
C1186 H1166 0.950 . S
C1186 C1185 1.414 . S
C1186 C1187 1.374 . S
C1187 H1167 0.950 . S
C1187 C1183 1.385 . S
C1187 C1186 1.374 . S
C1188 C1185 1.499 . S
C1188 C1189 1.373 . S
C1188 C1190 1.389 . S
C1189 H1168 0.950 . S
C1189 C1188 1.373 . S
C1189 C1205 1.377 . S
C1190 C1188 1.389 . S
C1190 C1191 1.524 . S
C1190 C1204 1.377 . S
C1191 C1190 1.524 . S
C1191 C1192 1.397 . S
C1191 C1196 1.363 . S
C1192 H1169 0.950 . S
C1192 C1191 1.397 . S
C1192 C1193 1.334 . S
C1193 H1170 0.950 . S
C1193 C1192 1.334 . S
C1193 C1194 1.287 . S
C1194 C1193 1.287 . S
C1194 C1195 1.524 . S
C1194 H1213 0.913 . S
C1195 H1171 0.950 . S
C1195 C1194 1.524 . S
C1195 C1196 1.415 . S
C1196 H1172 0.950 . S
C1196 C1191 1.363 . S
C1196 C1195 1.415 . S
C1197 H1173 0.951 . S
C1197 C1198 1.366 . S
C1197 C1199 1.388 . S
C1198 C1197 1.366 . S
C1198 C1202 1.385 . S
C1199 H1174 0.951 . S
C1199 C1197 1.388 . S
C1199 C1200 1.366 . S
C1200 C1199 1.366 . S
C1200 C1201 1.414 . S
C1200 C1203 1.499 . S
C1201 H1175 0.950 . S
C1201 C1200 1.414 . S
C1201 C1202 1.374 . S
C1202 H1176 0.950 . S
C1202 C1198 1.385 . S
C1202 C1201 1.374 . S
C1203 C1200 1.499 . S
C1203 C1204 1.373 . S
C1203 C1205 1.389 . S
C1204 H1177 0.950 . S
C1204 C1190 1.377 . S
C1204 C1203 1.373 . S
C1205 C1189 1.377 . S
C1205 C1203 1.389 . S
C1205 C1206 1.524 . S
C1206 C1205 1.524 . S
C1206 C1207 1.397 . S
C1206 C1211 1.363 . S
C1207 H1178 0.950 . S
C1207 C1206 1.397 . S
C1207 C1208 1.334 . S
C1208 H1179 0.950 . S
C1208 C1207 1.334 . S
C1208 C1209 1.287 . S
C1209 C1208 1.287 . S
C1209 C1210 1.524 . S
C1209 H1212 0.999 . S
C1210 H1180 0.950 . S
C1210 C1209 1.524 . S
C1210 C1211 1.415 . S
C1211 H1181 0.950 . S
C1211 C1206 1.363 . S
C1211 C1210 1.415 . S
H1212 C1209 0.999 . S
H1213 C1194 0.913 . S
H1214 C1232 0.951 . S
H1215 C1234 0.951 . S
H1216 C1236 0.950 . S
H1217 C1237 0.950 . S
H1218 C1239 0.950 . S
H1219 C1242 0.950 . S
H1220 C1243 0.950 . S
H1221 C1245 0.950 . S
H1222 C1246 0.950 . S
H1223 C1247 0.951 . S
H1224 C1249 0.951 . S
H1225 C1251 0.950 . S
H1226 C1252 0.950 . S
H1227 C1254 0.950 . S
H1228 C1257 0.950 . S
H1229 C1258 0.950 . S
H1230 C1260 0.950 . S
H1231 C1261 0.950 . S
C1232 H1214 0.951 . S
C1232 C1233 1.366 . S
C1232 C1234 1.388 . S
C1233 C1232 1.366 . S
C1233 C1237 1.385 . S
C1234 H1215 0.951 . S
C1234 C1232 1.388 . S
C1234 C1235 1.366 . S
C1235 C1234 1.366 . S
C1235 C1236 1.414 . S
C1235 C1238 1.499 . S
C1236 H1216 0.950 . S
C1236 C1235 1.414 . S
C1236 C1237 1.374 . S
C1237 H1217 0.950 . S
C1237 C1233 1.385 . S
C1237 C1236 1.374 . S
C1238 C1235 1.499 . S
C1238 C1239 1.373 . S
C1238 C1240 1.389 . S
C1239 H1218 0.950 . S
C1239 C1238 1.373 . S
C1239 C1255 1.377 1_565 S
C1240 C1238 1.389 . S
C1240 C1241 1.524 . S
C1240 C1254 1.377 1_565 S
C1241 C1240 1.524 . S
C1241 C1242 1.397 . S
C1241 C1246 1.363 . S
C1242 H1219 0.950 . S
C1242 C1241 1.397 . S
C1242 C1243 1.334 . S
C1243 H1220 0.950 . S
C1243 C1242 1.334 . S
C1243 C1244 1.287 . S
C1244 C1243 1.287 . S
C1244 C1245 1.524 . S
C1244 H1263 0.913 . S
C1245 H1221 0.950 . S
C1245 C1244 1.524 . S
C1245 C1246 1.415 . S
C1246 H1222 0.950 . S
C1246 C1241 1.363 . S
C1246 C1245 1.415 . S
C1247 H1223 0.951 . S
C1247 C1248 1.366 . S
C1247 C1249 1.388 . S
C1248 C1247 1.366 . S
C1248 C1252 1.385 . S
C1249 H1224 0.951 . S
C1249 C1247 1.388 . S
C1249 C1250 1.366 . S
C1250 C1249 1.366 . S
C1250 C1251 1.414 . S
C1250 C1253 1.499 . S
C1251 H1225 0.950 . S
C1251 C1250 1.414 . S
C1251 C1252 1.374 . S
C1252 H1226 0.950 . S
C1252 C1248 1.385 . S
C1252 C1251 1.374 . S
C1253 C1250 1.499 . S
C1253 C1254 1.373 . S
C1253 C1255 1.389 . S
C1254 H1227 0.950 . S
C1254 C1240 1.377 1_545 S
C1254 C1253 1.373 . S
C1255 C1239 1.377 1_545 S
C1255 C1253 1.389 . S
C1255 C1256 1.524 . S
C1256 C1255 1.524 . S
C1256 C1257 1.397 . S
C1256 C1261 1.363 . S
C1257 H1228 0.950 . S
C1257 C1256 1.397 . S
C1257 C1258 1.334 . S
C1258 H1229 0.950 . S
C1258 C1257 1.334 . S
C1258 C1259 1.287 . S
C1259 C1258 1.287 . S
C1259 C1260 1.524 . S
C1259 H1262 0.999 . S
C1260 H1230 0.950 . S
C1260 C1259 1.524 . S
C1260 C1261 1.415 . S
C1261 H1231 0.950 . S
C1261 C1256 1.363 . S
C1261 C1260 1.415 . S
H1262 C1259 0.999 . S
H1263 C1244 0.913 . S
H1264 C1282 0.951 . S
H1265 C1284 0.951 . S
H1266 C1286 0.950 . S
H1267 C1287 0.950 . S
H1268 C1289 0.950 . S
H1269 C1292 0.950 . S
H1270 C1293 0.950 . S
H1271 C1295 0.950 . S
H1272 C1296 0.950 . S
H1273 C1297 0.951 . S
H1274 C1299 0.951 . S
H1275 C1301 0.950 . S
H1276 C1302 0.950 . S
H1277 C1304 0.950 . S
H1278 C1307 0.950 . S
H1279 C1308 0.950 . S
H1280 C1310 0.950 . S
H1281 C1311 0.950 . S
C1282 H1264 0.951 . S
C1282 C1283 1.366 . S
C1282 C1284 1.388 . S
C1283 C1282 1.366 . S
C1283 C1287 1.385 . S
C1284 H1265 0.951 . S
C1284 C1282 1.388 . S
C1284 C1285 1.366 . S
C1285 C1284 1.366 . S
C1285 C1286 1.414 . S
C1285 C1288 1.499 . S
C1286 H1266 0.950 . S
C1286 C1285 1.414 . S
C1286 C1287 1.374 . S
C1287 H1267 0.950 . S
C1287 C1283 1.385 . S
C1287 C1286 1.374 . S
C1288 C1285 1.499 . S
C1288 C1289 1.373 . S
C1288 C1290 1.389 . S
C1289 H1268 0.950 . S
C1289 C1288 1.373 . S
C1289 C1305 1.377 . S
C1290 C1288 1.389 . S
C1290 C1291 1.524 . S
C1290 C1304 1.377 . S
C1291 C1290 1.524 . S
C1291 C1292 1.397 . S
C1291 C1296 1.363 . S
C1292 H1269 0.950 . S
C1292 C1291 1.397 . S
C1292 C1293 1.334 . S
C1293 H1270 0.950 . S
C1293 C1292 1.334 . S
C1293 C1294 1.287 . S
C1294 C1293 1.287 . S
C1294 C1295 1.524 . S
C1294 H1313 0.913 . S
C1295 H1271 0.950 . S
C1295 C1294 1.524 . S
C1295 C1296 1.415 . S
C1296 H1272 0.950 . S
C1296 C1291 1.363 . S
C1296 C1295 1.415 . S
C1297 H1273 0.951 . S
C1297 C1298 1.366 . S
C1297 C1299 1.388 . S
C1298 C1297 1.366 . S
C1298 C1302 1.385 . S
C1299 H1274 0.951 . S
C1299 C1297 1.388 . S
C1299 C1300 1.366 . S
C1300 C1299 1.366 . S
C1300 C1301 1.414 . S
C1300 C1303 1.499 . S
C1301 H1275 0.950 . S
C1301 C1300 1.414 . S
C1301 C1302 1.374 . S
C1302 H1276 0.950 . S
C1302 C1298 1.385 . S
C1302 C1301 1.374 . S
C1303 C1300 1.499 . S
C1303 C1304 1.373 . S
C1303 C1305 1.389 . S
C1304 H1277 0.950 . S
C1304 C1290 1.377 . S
C1304 C1303 1.373 . S
C1305 C1289 1.377 . S
C1305 C1303 1.389 . S
C1305 C1306 1.524 . S
C1306 C1305 1.524 . S
C1306 C1307 1.397 . S
C1306 C1311 1.363 . S
C1307 H1278 0.950 . S
C1307 C1306 1.397 . S
C1307 C1308 1.334 . S
C1308 H1279 0.950 . S
C1308 C1307 1.334 . S
C1308 C1309 1.287 . S
C1309 C1308 1.287 . S
C1309 C1310 1.524 . S
C1309 H1312 0.999 . S
C1310 H1280 0.950 . S
C1310 C1309 1.524 . S
C1310 C1311 1.415 . S
C1311 H1281 0.950 . S
C1311 C1306 1.363 . S
C1311 C1310 1.415 . S
H1312 C1309 0.999 . S
H1313 C1294 0.913 . S
H1314 C1332 0.951 . S
H1315 C1334 0.951 . S
H1316 C1336 0.950 . S
H1317 C1337 0.950 . S
H1318 C1339 0.950 . S
H1319 C1342 0.950 . S
H1320 C1343 0.950 . S
H1321 C1345 0.950 . S
H1322 C1346 0.950 . S
H1323 C1347 0.951 . S
H1324 C1349 0.951 . S
H1325 C1351 0.950 . S
H1326 C1352 0.950 . S
H1327 C1354 0.950 . S
H1328 C1357 0.950 . S
H1329 C1358 0.950 . S
H1330 C1360 0.950 . S
H1331 C1361 0.950 . S
C1332 H1314 0.951 . S
C1332 C1333 1.366 . S
C1332 C1334 1.388 . S
C1333 C1332 1.366 . S
C1333 C1337 1.385 . S
C1334 H1315 0.951 . S
C1334 C1332 1.388 . S
C1334 C1335 1.366 . S
C1335 C1334 1.366 . S
C1335 C1336 1.414 . S
C1335 C1338 1.499 . S
C1336 H1316 0.950 . S
C1336 C1335 1.414 . S
C1336 C1337 1.374 . S
C1337 H1317 0.950 . S
C1337 C1333 1.385 . S
C1337 C1336 1.374 . S
C1338 C1335 1.499 . S
C1338 C1339 1.373 . S
C1338 C1340 1.389 . S
C1339 H1318 0.950 . S
C1339 C1338 1.373 . S
C1339 C1355 1.377 . S
C1340 C1338 1.389 . S
C1340 C1341 1.524 . S
C1340 C1354 1.377 . S
C1341 C1340 1.524 . S
C1341 C1342 1.397 . S
C1341 C1346 1.363 . S
C1342 H1319 0.950 . S
C1342 C1341 1.397 . S
C1342 C1343 1.334 . S
C1343 H1320 0.950 . S
C1343 C1342 1.334 . S
C1343 C1344 1.287 . S
C1344 C1343 1.287 . S
C1344 C1345 1.524 . S
C1344 H1363 0.913 . S
C1345 H1321 0.950 . S
C1345 C1344 1.524 . S
C1345 C1346 1.415 . S
C1346 H1322 0.950 . S
C1346 C1341 1.363 . S
C1346 C1345 1.415 . S
C1347 H1323 0.951 . S
C1347 C1348 1.366 . S
C1347 C1349 1.388 . S
C1348 C1347 1.366 . S
C1348 C1352 1.385 . S
C1349 H1324 0.951 . S
C1349 C1347 1.388 . S
C1349 C1350 1.366 . S
C1350 C1349 1.366 . S
C1350 C1351 1.414 . S
C1350 C1353 1.499 . S
C1351 H1325 0.950 . S
C1351 C1350 1.414 . S
C1351 C1352 1.374 . S
C1352 H1326 0.950 . S
C1352 C1348 1.385 . S
C1352 C1351 1.374 . S
C1353 C1350 1.499 . S
C1353 C1354 1.373 . S
C1353 C1355 1.389 . S
C1354 H1327 0.950 . S
C1354 C1340 1.377 . S
C1354 C1353 1.373 . S
C1355 C1339 1.377 . S
C1355 C1353 1.389 . S
C1355 C1356 1.524 . S
C1356 C1355 1.524 . S
C1356 C1357 1.397 . S
C1356 C1361 1.363 . S
C1357 H1328 0.950 . S
C1357 C1356 1.397 . S
C1357 C1358 1.334 . S
C1358 H1329 0.950 . S
C1358 C1357 1.334 . S
C1358 C1359 1.287 . S
C1359 C1358 1.287 . S
C1359 C1360 1.524 . S
C1359 H1362 0.999 . S
C1360 H1330 0.950 . S
C1360 C1359 1.524 . S
C1360 C1361 1.415 . S
C1361 H1331 0.950 . S
C1361 C1356 1.363 . S
C1361 C1360 1.415 . S
H1362 C1359 0.999 . S
H1363 C1344 0.913 . S
H1364 C1382 0.951 . S
H1365 C1384 0.951 . S
H1366 C1386 0.950 . S
H1367 C1387 0.950 . S
H1368 C1389 0.950 . S
H1369 C1392 0.950 . S
H1370 C1393 0.950 1_556 S
H1371 C1395 0.950 . S
H1372 C1396 0.950 . S
H1373 C1397 0.951 1_556 S
H1374 C1399 0.951 . S
H1375 C1401 0.950 . S
H1376 C1402 0.950 . S
H1377 C1404 0.950 . S
H1378 C1407 0.950 . S
H1379 C1408 0.950 . S
H1380 C1410 0.950 . S
H1381 C1411 0.950 . S
C1382 H1364 0.951 . S
C1382 C1383 1.366 1_554 S
C1382 C1384 1.388 . S
C1383 C1382 1.366 1_556 S
C1383 C1387 1.385 . S
C1384 H1365 0.951 . S
C1384 C1382 1.388 . S
C1384 C1385 1.366 1_554 S
C1385 C1384 1.366 1_556 S
C1385 C1386 1.414 . S
C1385 C1388 1.499 . S
C1386 H1366 0.950 . S
C1386 C1385 1.414 . S
C1386 C1387 1.374 . S
C1387 H1367 0.950 . S
C1387 C1383 1.385 . S
C1387 C1386 1.374 . S
C1388 C1385 1.499 . S
C1388 C1389 1.373 . S
C1388 C1390 1.389 1_556 S
C1389 H1368 0.950 . S
C1389 C1388 1.373 . S
C1389 C1405 1.377 . S
C1390 C1388 1.389 1_554 S
C1390 C1391 1.524 . S
C1390 C1404 1.377 . S
C1391 C1390 1.524 . S
C1391 C1392 1.397 1_554 S
C1391 C1396 1.363 . S
C1392 H1369 0.950 . S
C1392 C1391 1.397 1_556 S
C1392 C1393 1.334 1_556 S
C1393 H1370 0.950 1_554 S
C1393 C1392 1.334 1_554 S
C1393 C1394 1.287 . S
C1394 C1393 1.287 . S
C1394 C1395 1.524 . S
C1394 H1413 0.913 . S
C1395 H1371 0.950 . S
C1395 C1394 1.524 . S
C1395 C1396 1.415 . S
C1396 H1372 0.950 . S
C1396 C1391 1.363 . S
C1396 C1395 1.415 . S
C1397 H1373 0.951 1_554 S
C1397 C1398 1.366 . S
C1397 C1399 1.388 1_554 S
C1398 C1397 1.366 . S
C1398 C1402 1.385 . S
C1399 H1374 0.951 . S
C1399 C1397 1.388 1_556 S
C1399 C1400 1.366 1_556 S
C1400 C1399 1.366 1_554 S
C1400 C1401 1.414 . S
C1400 C1403 1.499 . S
C1401 H1375 0.950 . S
C1401 C1400 1.414 . S
C1401 C1402 1.374 . S
C1402 H1376 0.950 . S
C1402 C1398 1.385 . S
C1402 C1401 1.374 . S
C1403 C1400 1.499 . S
C1403 C1404 1.373 . S
C1403 C1405 1.389 1_554 S
C1404 H1377 0.950 . S
C1404 C1390 1.377 . S
C1404 C1403 1.373 . S
C1405 C1389 1.377 . S
C1405 C1403 1.389 1_556 S
C1405 C1406 1.524 . S
C1406 C1405 1.524 . S
C1406 C1407 1.397 1_556 S
C1406 C1411 1.363 . S
C1407 H1378 0.950 . S
C1407 C1406 1.397 1_554 S
C1407 C1408 1.334 . S
C1408 H1379 0.950 . S
C1408 C1407 1.334 . S
C1408 C1409 1.287 1_554 S
C1409 C1408 1.287 1_556 S
C1409 C1410 1.524 . S
C1409 H1412 0.999 . S
C1410 H1380 0.950 . S
C1410 C1409 1.524 . S
C1410 C1411 1.415 . S
C1411 H1381 0.950 . S
C1411 C1406 1.363 . S
C1411 C1410 1.415 . S
H1412 C1409 0.999 . S
H1413 C1394 0.913 . S
H1414 C1432 0.951 . S
H1415 C1434 0.951 . S
H1416 C1436 0.950 . S
H1417 C1437 0.950 . S
H1418 C1439 0.950 . S
H1419 C1442 0.950 . S
H1420 C1443 0.950 . S
H1421 C1445 0.950 . S
H1422 C1446 0.950 . S
H1423 C1447 0.951 . S
H1424 C1449 0.951 . S
H1425 C1451 0.950 . S
H1426 C1452 0.950 . S
H1427 C1454 0.950 . S
H1428 C1457 0.950 . S
H1429 C1458 0.950 . S
H1430 C1460 0.950 . S
H1431 C1461 0.950 . S
C1432 H1414 0.951 . S
C1432 C1433 1.366 . S
C1432 C1434 1.388 . S
C1433 C1432 1.366 . S
C1433 C1437 1.385 . S
C1434 H1415 0.951 . S
C1434 C1432 1.388 . S
C1434 C1435 1.366 . S
C1435 C1434 1.366 . S
C1435 C1436 1.414 . S
C1435 C1438 1.499 . S
C1436 H1416 0.950 . S
C1436 C1435 1.414 . S
C1436 C1437 1.374 . S
C1437 H1417 0.950 . S
C1437 C1433 1.385 . S
C1437 C1436 1.374 . S
C1438 C1435 1.499 . S
C1438 C1439 1.373 . S
C1438 C1440 1.389 . S
C1439 H1418 0.950 . S
C1439 C1438 1.373 . S
C1439 C1455 1.377 . S
C1440 C1438 1.389 . S
C1440 C1441 1.524 . S
C1440 C1454 1.377 . S
C1441 C1440 1.524 . S
C1441 C1442 1.397 . S
C1441 C1446 1.363 . S
C1442 H1419 0.950 . S
C1442 C1441 1.397 . S
C1442 C1443 1.334 . S
C1443 H1420 0.950 . S
C1443 C1442 1.334 . S
C1443 C1444 1.287 . S
C1444 C1443 1.287 . S
C1444 C1445 1.524 . S
C1444 H1463 0.913 . S
C1445 H1421 0.950 . S
C1445 C1444 1.524 . S
C1445 C1446 1.415 . S
C1446 H1422 0.950 . S
C1446 C1441 1.363 . S
C1446 C1445 1.415 . S
C1447 H1423 0.951 . S
C1447 C1448 1.366 . S
C1447 C1449 1.388 . S
C1448 C1447 1.366 . S
C1448 C1452 1.385 . S
C1449 H1424 0.951 . S
C1449 C1447 1.388 . S
C1449 C1450 1.366 . S
C1450 C1449 1.366 . S
C1450 C1451 1.414 . S
C1450 C1453 1.499 . S
C1451 H1425 0.950 . S
C1451 C1450 1.414 . S
C1451 C1452 1.374 . S
C1452 H1426 0.950 . S
C1452 C1448 1.385 . S
C1452 C1451 1.374 . S
C1453 C1450 1.499 . S
C1453 C1454 1.373 . S
C1453 C1455 1.389 . S
C1454 H1427 0.950 . S
C1454 C1440 1.377 . S
C1454 C1453 1.373 . S
C1455 C1439 1.377 . S
C1455 C1453 1.389 . S
C1455 C1456 1.524 . S
C1456 C1455 1.524 . S
C1456 C1457 1.397 . S
C1456 C1461 1.363 . S
C1457 H1428 0.950 . S
C1457 C1456 1.397 . S
C1457 C1458 1.334 . S
C1458 H1429 0.950 . S
C1458 C1457 1.334 . S
C1458 C1459 1.287 . S
C1459 C1458 1.287 . S
C1459 C1460 1.524 . S
C1459 H1462 0.999 . S
C1460 H1430 0.950 . S
C1460 C1459 1.524 . S
C1460 C1461 1.415 . S
C1461 H1431 0.950 . S
C1461 C1456 1.363 . S
C1461 C1460 1.415 . S
H1462 C1459 0.999 . S
H1463 C1444 0.913 . S
H1464 C1482 0.951 . S
H1465 C1484 0.951 . S
H1466 C1486 0.950 . S
H1467 C1487 0.950 . S
H1468 C1489 0.950 . S
H1469 C1492 0.950 . S
H1470 C1493 0.950 . S
H1471 C1495 0.950 . S
H1472 C1496 0.950 . S
H1473 C1497 0.951 . S
H1474 C1499 0.951 . S
H1475 C1501 0.950 . S
H1476 C1502 0.950 . S
H1477 C1504 0.950 . S
H1478 C1507 0.950 . S
H1479 C1508 0.950 . S
H1480 C1510 0.950 . S
H1481 C1511 0.950 . S
C1482 H1464 0.951 . S
C1482 C1483 1.366 . S
C1482 C1484 1.388 . S
C1483 C1482 1.366 . S
C1483 C1487 1.385 . S
C1484 H1465 0.951 . S
C1484 C1482 1.388 . S
C1484 C1485 1.366 . S
C1485 C1484 1.366 . S
C1485 C1486 1.414 . S
C1485 C1488 1.499 . S
C1486 H1466 0.950 . S
C1486 C1485 1.414 . S
C1486 C1487 1.374 . S
C1487 H1467 0.950 . S
C1487 C1483 1.385 . S
C1487 C1486 1.374 . S
C1488 C1485 1.499 . S
C1488 C1489 1.373 . S
C1488 C1490 1.389 . S
C1489 H1468 0.950 . S
C1489 C1488 1.373 . S
C1489 C1505 1.377 . S
C1490 C1488 1.389 . S
C1490 C1491 1.524 . S
C1490 C1504 1.377 . S
C1491 C1490 1.524 . S
C1491 C1492 1.397 . S
C1491 C1496 1.363 . S
C1492 H1469 0.950 . S
C1492 C1491 1.397 . S
C1492 C1493 1.334 . S
C1493 H1470 0.950 . S
C1493 C1492 1.334 . S
C1493 C1494 1.287 . S
C1494 C1493 1.287 . S
C1494 C1495 1.524 . S
C1494 H1513 0.913 . S
C1495 H1471 0.950 . S
C1495 C1494 1.524 . S
C1495 C1496 1.415 . S
C1496 H1472 0.950 . S
C1496 C1491 1.363 . S
C1496 C1495 1.415 . S
C1497 H1473 0.951 . S
C1497 C1498 1.366 . S
C1497 C1499 1.388 . S
C1498 C1497 1.366 . S
C1498 C1502 1.385 . S
C1499 H1474 0.951 . S
C1499 C1497 1.388 . S
C1499 C1500 1.366 . S
C1500 C1499 1.366 . S
C1500 C1501 1.414 . S
C1500 C1503 1.499 . S
C1501 H1475 0.950 . S
C1501 C1500 1.414 . S
C1501 C1502 1.374 . S
C1502 H1476 0.950 . S
C1502 C1498 1.385 . S
C1502 C1501 1.374 . S
C1503 C1500 1.499 . S
C1503 C1504 1.373 . S
C1503 C1505 1.389 . S
C1504 H1477 0.950 . S
C1504 C1490 1.377 . S
C1504 C1503 1.373 . S
C1505 C1489 1.377 . S
C1505 C1503 1.389 . S
C1505 C1506 1.524 . S
C1506 C1505 1.524 . S
C1506 C1507 1.397 . S
C1506 C1511 1.363 . S
C1507 H1478 0.950 . S
C1507 C1506 1.397 . S
C1507 C1508 1.334 . S
C1508 H1479 0.950 . S
C1508 C1507 1.334 . S
C1508 C1509 1.287 . S
C1509 C1508 1.287 . S
C1509 C1510 1.524 . S
C1509 H1512 0.999 . S
C1510 H1480 0.950 . S
C1510 C1509 1.524 . S
C1510 C1511 1.415 . S
C1511 H1481 0.950 . S
C1511 C1506 1.363 . S
C1511 C1510 1.415 . S
H1512 C1509 0.999 . S
H1513 C1494 0.913 . S
H1514 C1532 0.951 . S
H1515 C1534 0.951 . S
H1516 C1536 0.950 . S
H1517 C1537 0.950 . S
H1518 C1539 0.950 . S
H1519 C1542 0.950 . S
H1520 C1543 0.950 . S
H1521 C1545 0.950 . S
H1522 C1546 0.950 . S
H1523 C1547 0.951 . S
H1524 C1549 0.951 . S
H1525 C1551 0.950 . S
H1526 C1552 0.950 . S
H1527 C1554 0.950 . S
H1528 C1557 0.950 . S
H1529 C1558 0.950 . S
H1530 C1560 0.950 . S
H1531 C1561 0.950 . S
C1532 H1514 0.951 . S
C1532 C1533 1.366 . S
C1532 C1534 1.388 . S
C1533 C1532 1.366 . S
C1533 C1537 1.385 . S
C1534 H1515 0.951 . S
C1534 C1532 1.388 . S
C1534 C1535 1.366 . S
C1535 C1534 1.366 . S
C1535 C1536 1.414 . S
C1535 C1538 1.499 . S
C1536 H1516 0.950 . S
C1536 C1535 1.414 . S
C1536 C1537 1.374 . S
C1537 H1517 0.950 . S
C1537 C1533 1.385 . S
C1537 C1536 1.374 . S
C1538 C1535 1.499 . S
C1538 C1539 1.373 . S
C1538 C1540 1.389 . S
C1539 H1518 0.950 . S
C1539 C1538 1.373 . S
C1539 C1555 1.377 . S
C1540 C1538 1.389 . S
C1540 C1541 1.524 . S
C1540 C1554 1.377 . S
C1541 C1540 1.524 . S
C1541 C1542 1.397 . S
C1541 C1546 1.363 . S
C1542 H1519 0.950 . S
C1542 C1541 1.397 . S
C1542 C1543 1.334 . S
C1543 H1520 0.950 . S
C1543 C1542 1.334 . S
C1543 C1544 1.287 . S
C1544 C1543 1.287 . S
C1544 C1545 1.524 . S
C1544 H1563 0.913 . S
C1545 H1521 0.950 . S
C1545 C1544 1.524 . S
C1545 C1546 1.415 . S
C1546 H1522 0.950 . S
C1546 C1541 1.363 . S
C1546 C1545 1.415 . S
C1547 H1523 0.951 . S
C1547 C1548 1.366 . S
C1547 C1549 1.388 . S
C1548 C1547 1.366 . S
C1548 C1552 1.385 . S
C1549 H1524 0.951 . S
C1549 C1547 1.388 . S
C1549 C1550 1.366 . S
C1550 C1549 1.366 . S
C1550 C1551 1.414 . S
C1550 C1553 1.499 . S
C1551 H1525 0.950 . S
C1551 C1550 1.414 . S
C1551 C1552 1.374 . S
C1552 H1526 0.950 . S
C1552 C1548 1.385 . S
C1552 C1551 1.374 . S
C1553 C1550 1.499 . S
C1553 C1554 1.373 . S
C1553 C1555 1.389 . S
C1554 H1527 0.950 . S
C1554 C1540 1.377 . S
C1554 C1553 1.373 . S
C1555 C1539 1.377 . S
C1555 C1553 1.389 . S
C1555 C1556 1.524 . S
C1556 C1555 1.524 . S
C1556 C1557 1.397 . S
C1556 C1561 1.363 . S
C1557 H1528 0.950 . S
C1557 C1556 1.397 . S
C1557 C1558 1.334 . S
C1558 H1529 0.950 . S
C1558 C1557 1.334 . S
C1558 C1559 1.287 . S
C1559 C1558 1.287 . S
C1559 C1560 1.524 . S
C1559 H1562 0.999 . S
C1560 H1530 0.950 . S
C1560 C1559 1.524 . S
C1560 C1561 1.415 . S
C1561 H1531 0.950 . S
C1561 C1556 1.363 . S
C1561 C1560 1.415 . S
H1562 C1559 0.999 . S
H1563 C1544 0.913 . S
H1564 C1582 0.951 . S
H1565 C1584 0.951 . S
H1566 C1586 0.950 . S
H1567 C1587 0.950 . S
H1568 C1589 0.962 . S
H1569 C1592 0.950 1_556 S
H1570 C1593 0.950 . S
H1571 C1595 0.950 . S
H1572 C1596 0.950 . S
H1573 C1597 0.951 . S
H1574 C1599 0.951 . S
H1575 C1601 0.950 . S
H1576 C1602 0.950 . S
H1577 C1604 0.950 . S
H1578 C1607 0.950 . S
H1579 C1608 0.950 . S
H1580 C1610 0.950 . S
H1581 C1611 0.950 . S
C1582 H1564 0.951 . S
C1582 C1583 1.366 1_554 S
C1582 C1584 1.388 . S
C1583 C1582 1.366 1_556 S
C1583 C1587 1.385 . S
C1584 H1565 0.951 . S
C1584 C1582 1.388 . S
C1584 C1585 1.366 1_554 S
C1585 C1584 1.366 1_556 S
C1585 C1586 1.414 . S
C1585 C1588 1.499 1_556 S
C1586 H1566 0.950 . S
C1586 C1585 1.414 . S
C1586 C1587 1.374 . S
C1587 H1567 0.950 . S
C1587 C1583 1.385 . S
C1587 C1586 1.374 . S
C1588 C1585 1.499 1_554 S
C1588 C1589 1.369 1_554 S
C1588 C1590 1.389 . S
C1589 H1568 0.962 . S
C1589 C1588 1.369 1_556 S
C1589 C1605 1.370 1_556 S
C1590 C1588 1.389 . S
C1590 C1591 1.524 . S
C1590 C1604 1.377 . S
C1591 C1590 1.524 . S
C1591 C1592 1.397 . S
C1591 C1596 1.363 . S
C1592 H1569 0.950 1_554 S
C1592 C1591 1.397 . S
C1592 C1593 1.334 . S
C1593 H1570 0.950 . S
C1593 C1592 1.334 . S
C1593 C1594 1.287 . S
C1594 C1593 1.287 . S
C1594 C1595 1.524 . S
C1594 H1613 0.913 . S
C1595 H1571 0.950 . S
C1595 C1594 1.524 . S
C1595 C1596 1.415 . S
C1596 H1572 0.950 . S
C1596 C1591 1.363 . S
C1596 C1595 1.415 . S
C1597 H1573 0.951 . S
C1597 C1598 1.366 . S
C1597 C1599 1.388 . S
C1598 C1597 1.366 . S
C1598 C1602 1.385 . S
C1599 H1574 0.951 . S
C1599 C1597 1.388 . S
C1599 C1600 1.366 . S
C1600 C1599 1.366 . S
C1600 C1601 1.414 . S
C1600 C1603 1.499 . S
C1601 H1575 0.950 . S
C1601 C1600 1.414 . S
C1601 C1602 1.374 . S
C1602 H1576 0.950 . S
C1602 C1598 1.385 . S
C1602 C1601 1.374 . S
C1603 C1600 1.499 . S
C1603 C1604 1.373 . S
C1603 C1605 1.389 . S
C1604 H1577 0.950 . S
C1604 C1590 1.377 . S
C1604 C1603 1.373 . S
C1605 C1589 1.370 1_554 S
C1605 C1603 1.389 . S
C1605 C1606 1.524 . S
C1606 C1605 1.524 . S
C1606 C1607 1.397 . S
C1606 C1611 1.363 1_554 S
C1607 H1578 0.950 . S
C1607 C1606 1.397 . S
C1607 C1608 1.334 . S
C1608 H1579 0.950 . S
C1608 C1607 1.334 . S
C1608 C1609 1.287 1_554 S
C1609 C1608 1.287 1_556 S
C1609 C1610 1.524 . S
C1609 H1612 0.999 . S
C1610 H1580 0.950 . S
C1610 C1609 1.524 . S
C1610 C1611 1.415 . S
C1611 H1581 0.950 . S
C1611 C1606 1.363 1_556 S
C1611 C1610 1.415 . S
H1612 C1609 0.999 . S
H1613 C1594 0.913 . S
H1614 C1632 0.951 . S
H1615 C1634 0.951 . S
H1616 C1636 0.950 . S
H1617 C1637 0.950 . S
H1618 C1639 0.950 . S
H1619 C1642 0.950 . S
H1620 C1643 0.950 . S
H1621 C1645 0.950 . S
H1622 C1646 0.950 . S
H1623 C1647 0.951 . S
H1624 C1649 0.951 . S
H1625 C1651 0.950 . S
H1626 C1652 0.950 . S
H1627 C1654 0.950 . S
H1628 C1657 0.950 . S
H1629 C1658 0.950 . S
H1630 C1660 0.950 . S
H1631 C1661 0.950 . S
C1632 H1614 0.951 . S
C1632 C1633 1.366 . S
C1632 C1634 1.388 . S
C1633 C1632 1.366 . S
C1633 C1637 1.385 . S
C1634 H1615 0.951 . S
C1634 C1632 1.388 . S
C1634 C1635 1.366 . S
C1635 C1634 1.366 . S
C1635 C1636 1.414 . S
C1635 C1638 1.499 . S
C1636 H1616 0.950 . S
C1636 C1635 1.414 . S
C1636 C1637 1.374 . S
C1637 H1617 0.950 . S
C1637 C1633 1.385 . S
C1637 C1636 1.374 . S
C1638 C1635 1.499 . S
C1638 C1639 1.373 . S
C1638 C1640 1.389 . S
C1639 H1618 0.950 . S
C1639 C1638 1.373 . S
C1639 C1655 1.377 . S
C1640 C1638 1.389 . S
C1640 C1641 1.524 . S
C1640 C1654 1.377 . S
C1641 C1640 1.524 . S
C1641 C1642 1.397 . S
C1641 C1646 1.363 . S
C1642 H1619 0.950 . S
C1642 C1641 1.397 . S
C1642 C1643 1.334 . S
C1643 H1620 0.950 . S
C1643 C1642 1.334 . S
C1643 C1644 1.287 . S
C1644 C1643 1.287 . S
C1644 C1645 1.524 . S
C1644 H1663 0.913 . S
C1645 H1621 0.950 . S
C1645 C1644 1.524 . S
C1645 C1646 1.415 . S
C1646 H1622 0.950 . S
C1646 C1641 1.363 . S
C1646 C1645 1.415 . S
C1647 H1623 0.951 . S
C1647 C1648 1.366 . S
C1647 C1649 1.388 . S
C1648 C1647 1.366 . S
C1648 C1652 1.385 . S
C1649 H1624 0.951 . S
C1649 C1647 1.388 . S
C1649 C1650 1.366 . S
C1650 C1649 1.366 . S
C1650 C1651 1.414 . S
C1650 C1653 1.499 . S
C1651 H1625 0.950 . S
C1651 C1650 1.414 . S
C1651 C1652 1.374 . S
C1652 H1626 0.950 . S
C1652 C1648 1.385 . S
C1652 C1651 1.374 . S
C1653 C1650 1.499 . S
C1653 C1654 1.373 . S
C1653 C1655 1.389 . S
C1654 H1627 0.950 . S
C1654 C1640 1.377 . S
C1654 C1653 1.373 . S
C1655 C1639 1.377 . S
C1655 C1653 1.389 . S
C1655 C1656 1.524 . S
C1656 C1655 1.524 . S
C1656 C1657 1.397 . S
C1656 C1661 1.363 . S
C1657 H1628 0.950 . S
C1657 C1656 1.397 . S
C1657 C1658 1.334 . S
C1658 H1629 0.950 . S
C1658 C1657 1.334 . S
C1658 C1659 1.287 . S
C1659 C1658 1.287 . S
C1659 C1660 1.524 . S
C1659 H1662 0.999 . S
C1660 H1630 0.950 . S
C1660 C1659 1.524 . S
C1660 C1661 1.415 . S
C1661 H1631 0.950 . S
C1661 C1656 1.363 . S
C1661 C1660 1.415 . S
H1662 C1659 0.999 . S
H1663 C1644 0.913 . S
H1664 C1682 0.951 . S
H1665 C1684 0.951 . S
H1666 C1686 0.950 . S
H1667 C1687 0.950 . S
H1668 C1689 0.950 . S
H1669 C1692 0.950 . S
H1670 C1693 0.950 . S
H1671 C1695 0.950 . S
H1672 C1696 0.950 . S
H1673 C1697 0.951 . S
H1674 C1699 0.951 . S
H1675 C1701 0.950 . S
H1676 C1702 0.950 . S
H1677 C1704 0.950 . S
H1678 C1707 0.950 . S
H1679 C1708 0.950 . S
H1680 C1710 0.950 . S
H1681 C1711 0.950 . S
C1682 H1664 0.951 . S
C1682 C1683 1.366 . S
C1682 C1684 1.388 . S
C1683 C1682 1.366 . S
C1683 C1687 1.385 . S
C1684 H1665 0.951 . S
C1684 C1682 1.388 . S
C1684 C1685 1.366 . S
C1685 C1684 1.366 . S
C1685 C1686 1.414 . S
C1685 C1688 1.499 . S
C1686 H1666 0.950 . S
C1686 C1685 1.414 . S
C1686 C1687 1.374 . S
C1687 H1667 0.950 . S
C1687 C1683 1.385 . S
C1687 C1686 1.374 . S
C1688 C1685 1.499 . S
C1688 C1689 1.373 . S
C1688 C1690 1.389 . S
C1689 H1668 0.950 . S
C1689 C1688 1.373 . S
C1689 C1705 1.377 . S
C1690 C1688 1.389 . S
C1690 C1691 1.524 . S
C1690 C1704 1.377 . S
C1691 C1690 1.524 . S
C1691 C1692 1.397 . S
C1691 C1696 1.363 . S
C1692 H1669 0.950 . S
C1692 C1691 1.397 . S
C1692 C1693 1.334 . S
C1693 H1670 0.950 . S
C1693 C1692 1.334 . S
C1693 C1694 1.287 . S
C1694 C1693 1.287 . S
C1694 C1695 1.524 . S
C1694 H1713 0.913 . S
C1695 H1671 0.950 . S
C1695 C1694 1.524 . S
C1695 C1696 1.415 . S
C1696 H1672 0.950 . S
C1696 C1691 1.363 . S
C1696 C1695 1.415 . S
C1697 H1673 0.951 . S
C1697 C1698 1.366 . S
C1697 C1699 1.388 . S
C1698 C1697 1.366 . S
C1698 C1702 1.385 . S
C1699 H1674 0.951 . S
C1699 C1697 1.388 . S
C1699 C1700 1.366 . S
C1700 C1699 1.366 . S
C1700 C1701 1.414 . S
C1700 C1703 1.499 . S
C1701 H1675 0.950 . S
C1701 C1700 1.414 . S
C1701 C1702 1.374 . S
C1702 H1676 0.950 . S
C1702 C1698 1.385 . S
C1702 C1701 1.374 . S
C1703 C1700 1.499 . S
C1703 C1704 1.373 . S
C1703 C1705 1.389 . S
C1704 H1677 0.950 . S
C1704 C1690 1.377 . S
C1704 C1703 1.373 . S
C1705 C1689 1.377 . S
C1705 C1703 1.389 . S
C1705 C1706 1.524 . S
C1706 C1705 1.524 . S
C1706 C1707 1.397 . S
C1706 C1711 1.363 . S
C1707 H1678 0.950 . S
C1707 C1706 1.397 . S
C1707 C1708 1.334 . S
C1708 H1679 0.950 . S
C1708 C1707 1.334 . S
C1708 C1709 1.287 . S
C1709 C1708 1.287 . S
C1709 C1710 1.524 . S
C1709 H1712 0.999 . S
C1710 H1680 0.950 . S
C1710 C1709 1.524 . S
C1710 C1711 1.415 . S
C1711 H1681 0.950 . S
C1711 C1706 1.363 . S
C1711 C1710 1.415 . S
H1712 C1709 0.999 . S
H1713 C1694 0.913 . S
H1714 C1732 0.951 . S
H1715 C1734 0.951 . S
H1716 C1736 0.950 . S
H1717 C1737 0.950 . S
H1718 C1739 0.950 . S
H1719 C1742 0.950 . S
H1720 C1743 0.950 1_556 S
H1721 C1745 0.950 . S
H1722 C1746 0.950 1_455 S
H1723 C1747 0.951 . S
H1724 C1749 0.951 . S
H1725 C1751 0.950 . S
H1726 C1752 0.950 . S
H1727 C1754 0.950 . S
H1728 C1757 0.950 . S
H1729 C1758 0.950 . S
H1730 C1760 0.950 . S
H1731 C1761 0.950 . S
C1732 H1714 0.951 . S
C1732 C1733 1.366 . S
C1732 C1734 1.388 . S
C1733 C1732 1.366 . S
C1733 C1737 1.385 . S
C1734 H1715 0.951 . S
C1734 C1732 1.388 . S
C1734 C1735 1.366 . S
C1735 C1734 1.366 . S
C1735 C1736 1.414 . S
C1735 C1738 1.499 . S
C1736 H1716 0.950 . S
C1736 C1735 1.414 . S
C1736 C1737 1.374 . S
C1737 H1717 0.950 . S
C1737 C1733 1.385 . S
C1737 C1736 1.374 . S
C1738 C1735 1.499 . S
C1738 C1739 1.373 . S
C1738 C1740 1.389 . S
C1739 H1718 0.950 . S
C1739 C1738 1.373 . S
C1739 C1755 1.377 . S
C1740 C1738 1.389 . S
C1740 C1741 1.532 . S
C1740 C1754 1.377 1_455 S
C1741 C1740 1.532 . S
C1741 C1742 1.393 1_455 S
C1741 C1746 1.354 1_455 S
C1742 H1719 0.950 . S
C1742 C1741 1.393 1_655 S
C1742 C1743 1.334 . S
C1743 H1720 0.950 1_554 S
C1743 C1742 1.334 . S
C1743 C1744 1.287 . S
C1744 C1743 1.287 . S
C1744 C1745 1.524 . S
C1744 H1763 0.913 1_554 S
C1745 H1721 0.950 . S
C1745 C1744 1.524 . S
C1745 C1746 1.426 . S
C1746 H1722 0.950 1_655 S
C1746 C1741 1.354 1_655 S
C1746 C1745 1.426 . S
C1747 H1723 0.951 . S
C1747 C1748 1.366 . S
C1747 C1749 1.388 . S
C1748 C1747 1.366 . S
C1748 C1752 1.385 . S
C1749 H1724 0.951 . S
C1749 C1747 1.388 . S
C1749 C1750 1.366 . S
C1750 C1749 1.366 . S
C1750 C1751 1.414 . S
C1750 C1753 1.499 . S
C1751 H1725 0.950 . S
C1751 C1750 1.414 . S
C1751 C1752 1.374 . S
C1752 H1726 0.950 . S
C1752 C1748 1.385 . S
C1752 C1751 1.374 . S
C1753 C1750 1.499 . S
C1753 C1754 1.373 . S
C1753 C1755 1.389 1_655 S
C1754 H1727 0.950 . S
C1754 C1740 1.377 1_655 S
C1754 C1753 1.373 . S
C1755 C1739 1.377 . S
C1755 C1753 1.389 1_455 S
C1755 C1756 1.524 . S
C1756 C1755 1.524 . S
C1756 C1757 1.397 . S
C1756 C1761 1.363 . S
C1757 H1728 0.950 . S
C1757 C1756 1.397 . S
C1757 C1758 1.334 . S
C1758 H1729 0.950 . S
C1758 C1757 1.334 . S
C1758 C1759 1.287 . S
C1759 C1758 1.287 . S
C1759 C1760 1.524 . S
C1759 H1762 0.999 . S
C1760 H1730 0.950 . S
C1760 C1759 1.524 . S
C1760 C1761 1.415 . S
C1761 H1731 0.950 . S
C1761 C1756 1.363 . S
C1761 C1760 1.415 . S
H1762 C1759 0.999 . S
H1763 C1744 0.913 1_556 S
H1764 C1782 0.951 . S
H1765 C1784 0.951 . S
H1766 C1786 0.950 . S
H1767 C1787 0.950 . S
H1768 C1789 0.950 . S
H1769 C1792 0.950 . S
H1770 C1793 0.950 . S
H1771 C1795 0.950 . S
H1772 C1796 0.950 . S
H1773 C1797 0.951 . S
H1774 C1799 0.951 . S
H1775 C1801 0.950 . S
H1776 C1802 0.950 . S
H1777 C1804 0.950 . S
H1778 C1807 0.950 . S
H1779 C1808 0.950 . S
H1780 C1810 0.950 . S
H1781 C1811 0.950 . S
C1782 H1764 0.951 . S
C1782 C1783 1.366 . S
C1782 C1784 1.388 . S
C1783 C1782 1.366 . S
C1783 C1787 1.385 . S
C1784 H1765 0.951 . S
C1784 C1782 1.388 . S
C1784 C1785 1.366 . S
C1785 C1784 1.366 . S
C1785 C1786 1.414 . S
C1785 C1788 1.499 . S
C1786 H1766 0.950 . S
C1786 C1785 1.414 . S
C1786 C1787 1.374 . S
C1787 H1767 0.950 . S
C1787 C1783 1.385 . S
C1787 C1786 1.374 . S
C1788 C1785 1.499 . S
C1788 C1789 1.373 . S
C1788 C1790 1.389 . S
C1789 H1768 0.950 . S
C1789 C1788 1.373 . S
C1789 C1805 1.377 . S
C1790 C1788 1.389 . S
C1790 C1791 1.524 . S
C1790 C1804 1.377 . S
C1791 C1790 1.524 . S
C1791 C1792 1.397 . S
C1791 C1796 1.363 . S
C1792 H1769 0.950 . S
C1792 C1791 1.397 . S
C1792 C1793 1.334 . S
C1793 H1770 0.950 . S
C1793 C1792 1.334 . S
C1793 C1794 1.287 . S
C1794 C1793 1.287 . S
C1794 C1795 1.524 . S
C1794 H1813 0.913 . S
C1795 H1771 0.950 . S
C1795 C1794 1.524 . S
C1795 C1796 1.415 . S
C1796 H1772 0.950 . S
C1796 C1791 1.363 . S
C1796 C1795 1.415 . S
C1797 H1773 0.951 . S
C1797 C1798 1.366 . S
C1797 C1799 1.388 . S
C1798 C1797 1.366 . S
C1798 C1802 1.385 . S
C1799 H1774 0.951 . S
C1799 C1797 1.388 . S
C1799 C1800 1.366 . S
C1800 C1799 1.366 . S
C1800 C1801 1.414 . S
C1800 C1803 1.499 . S
C1801 H1775 0.950 . S
C1801 C1800 1.414 . S
C1801 C1802 1.374 . S
C1802 H1776 0.950 . S
C1802 C1798 1.385 . S
C1802 C1801 1.374 . S
C1803 C1800 1.499 . S
C1803 C1804 1.373 . S
C1803 C1805 1.389 . S
C1804 H1777 0.950 . S
C1804 C1790 1.377 . S
C1804 C1803 1.373 . S
C1805 C1789 1.377 . S
C1805 C1803 1.389 . S
C1805 C1806 1.524 . S
C1806 C1805 1.524 . S
C1806 C1807 1.397 . S
C1806 C1811 1.363 . S
C1807 H1778 0.950 . S
C1807 C1806 1.397 . S
C1807 C1808 1.334 . S
C1808 H1779 0.950 . S
C1808 C1807 1.334 . S
C1808 C1809 1.287 . S
C1809 C1808 1.287 . S
C1809 C1810 1.524 . S
C1809 H1812 0.999 . S
C1810 H1780 0.950 . S
C1810 C1809 1.524 . S
C1810 C1811 1.415 . S
C1811 H1781 0.950 . S
C1811 C1806 1.363 . S
C1811 C1810 1.415 . S
H1812 C1809 0.999 . S
H1813 C1794 0.913 . S
H1814 C1832 0.951 . S
H1815 C1834 0.951 . S
H1816 C1836 0.950 . S
H1817 C1837 0.950 . S
H1818 C1839 0.950 . S
H1819 C1842 0.950 . S
H1820 C1843 0.950 . S
H1821 C1845 0.950 . S
H1822 C1846 0.950 . S
H1823 C1847 0.951 . S
H1824 C1849 0.951 . S
H1825 C1851 0.950 . S
H1826 C1852 0.950 . S
H1827 C1854 0.950 . S
H1828 C1857 0.950 . S
H1829 C1858 0.950 . S
H1830 C1860 0.950 . S
H1831 C1861 0.950 . S
C1832 H1814 0.951 . S
C1832 C1833 1.366 . S
C1832 C1834 1.388 . S
C1833 C1832 1.366 . S
C1833 C1837 1.385 . S
C1834 H1815 0.951 . S
C1834 C1832 1.388 . S
C1834 C1835 1.366 . S
C1835 C1834 1.366 . S
C1835 C1836 1.414 . S
C1835 C1838 1.499 . S
C1836 H1816 0.950 . S
C1836 C1835 1.414 . S
C1836 C1837 1.374 . S
C1837 H1817 0.950 . S
C1837 C1833 1.385 . S
C1837 C1836 1.374 . S
C1838 C1835 1.499 . S
C1838 C1839 1.373 . S
C1838 C1840 1.389 . S
C1839 H1818 0.950 . S
C1839 C1838 1.373 . S
C1839 C1855 1.377 . S
C1840 C1838 1.389 . S
C1840 C1841 1.524 . S
C1840 C1854 1.377 . S
C1841 C1840 1.524 . S
C1841 C1842 1.397 . S
C1841 C1846 1.363 . S
C1842 H1819 0.950 . S
C1842 C1841 1.397 . S
C1842 C1843 1.334 . S
C1843 H1820 0.950 . S
C1843 C1842 1.334 . S
C1843 C1844 1.287 . S
C1844 C1843 1.287 . S
C1844 C1845 1.524 . S
C1844 H1863 0.913 . S
C1845 H1821 0.950 . S
C1845 C1844 1.524 . S
C1845 C1846 1.415 . S
C1846 H1822 0.950 . S
C1846 C1841 1.363 . S
C1846 C1845 1.415 . S
C1847 H1823 0.951 . S
C1847 C1848 1.366 . S
C1847 C1849 1.388 . S
C1848 C1847 1.366 . S
C1848 C1852 1.385 . S
C1849 H1824 0.951 . S
C1849 C1847 1.388 . S
C1849 C1850 1.366 . S
C1850 C1849 1.366 . S
C1850 C1851 1.414 . S
C1850 C1853 1.499 . S
C1851 H1825 0.950 . S
C1851 C1850 1.414 . S
C1851 C1852 1.374 . S
C1852 H1826 0.950 . S
C1852 C1848 1.385 . S
C1852 C1851 1.374 . S
C1853 C1850 1.499 . S
C1853 C1854 1.373 . S
C1853 C1855 1.389 . S
C1854 H1827 0.950 . S
C1854 C1840 1.377 . S
C1854 C1853 1.373 . S
C1855 C1839 1.377 . S
C1855 C1853 1.389 . S
C1855 C1856 1.524 . S
C1856 C1855 1.524 . S
C1856 C1857 1.397 . S
C1856 C1861 1.363 . S
C1857 H1828 0.950 . S
C1857 C1856 1.397 . S
C1857 C1858 1.334 . S
C1858 H1829 0.950 . S
C1858 C1857 1.334 . S
C1858 C1859 1.287 . S
C1859 C1858 1.287 . S
C1859 C1860 1.524 . S
C1859 H1862 0.999 . S
C1860 H1830 0.950 . S
C1860 C1859 1.524 . S
C1860 C1861 1.415 . S
C1861 H1831 0.950 . S
C1861 C1856 1.363 . S
C1861 C1860 1.415 . S
H1862 C1859 0.999 . S
H1863 C1844 0.913 . S
H1864 C1882 0.951 . S
H1865 C1884 0.951 . S
H1866 C1886 0.950 . S
H1867 C1887 0.950 . S
H1868 C1889 0.950 . S
H1869 C1892 0.950 . S
H1870 C1893 0.950 . S
H1871 C1895 0.950 . S
H1872 C1896 0.950 . S
H1873 C1897 0.951 . S
H1874 C1899 0.951 . S
H1875 C1901 0.950 . S
H1876 C1902 0.950 . S
H1877 C1904 0.950 . S
H1878 C1907 0.950 . S
H1879 C1908 0.950 . S
H1880 C1910 0.950 . S
H1881 C1911 0.950 . S
C1882 H1864 0.951 . S
C1882 C1883 1.366 . S
C1882 C1884 1.388 . S
C1883 C1882 1.366 . S
C1883 C1887 1.385 . S
C1884 H1865 0.951 . S
C1884 C1882 1.388 . S
C1884 C1885 1.366 . S
C1885 C1884 1.366 . S
C1885 C1886 1.414 . S
C1885 C1888 1.499 . S
C1886 H1866 0.950 . S
C1886 C1885 1.414 . S
C1886 C1887 1.374 . S
C1887 H1867 0.950 . S
C1887 C1883 1.385 . S
C1887 C1886 1.374 . S
C1888 C1885 1.499 . S
C1888 C1889 1.373 . S
C1888 C1890 1.389 . S
C1889 H1868 0.950 . S
C1889 C1888 1.373 . S
C1889 C1905 1.377 . S
C1890 C1888 1.389 . S
C1890 C1891 1.524 . S
C1890 C1904 1.377 . S
C1891 C1890 1.524 . S
C1891 C1892 1.397 . S
C1891 C1896 1.363 . S
C1892 H1869 0.950 . S
C1892 C1891 1.397 . S
C1892 C1893 1.334 . S
C1893 H1870 0.950 . S
C1893 C1892 1.334 . S
C1893 C1894 1.287 . S
C1894 C1893 1.287 . S
C1894 C1895 1.524 . S
C1894 H1913 0.913 . S
C1895 H1871 0.950 . S
C1895 C1894 1.524 . S
C1895 C1896 1.415 . S
C1896 H1872 0.950 . S
C1896 C1891 1.363 . S
C1896 C1895 1.415 . S
C1897 H1873 0.951 . S
C1897 C1898 1.366 . S
C1897 C1899 1.388 . S
C1898 C1897 1.366 . S
C1898 C1902 1.385 . S
C1899 H1874 0.951 . S
C1899 C1897 1.388 . S
C1899 C1900 1.366 . S
C1900 C1899 1.366 . S
C1900 C1901 1.414 . S
C1900 C1903 1.499 . S
C1901 H1875 0.950 . S
C1901 C1900 1.414 . S
C1901 C1902 1.374 . S
C1902 H1876 0.950 . S
C1902 C1898 1.385 . S
C1902 C1901 1.374 . S
C1903 C1900 1.499 . S
C1903 C1904 1.373 . S
C1903 C1905 1.389 . S
C1904 H1877 0.950 . S
C1904 C1890 1.377 . S
C1904 C1903 1.373 . S
C1905 C1889 1.377 . S
C1905 C1903 1.389 . S
C1905 C1906 1.524 . S
C1906 C1905 1.524 . S
C1906 C1907 1.397 . S
C1906 C1911 1.363 . S
C1907 H1878 0.950 . S
C1907 C1906 1.397 . S
C1907 C1908 1.334 . S
C1908 H1879 0.950 . S
C1908 C1907 1.334 . S
C1908 C1909 1.287 . S
C1909 C1908 1.287 . S
C1909 C1910 1.524 . S
C1909 H1912 0.999 . S
C1910 H1880 0.950 . S
C1910 C1909 1.524 . S
C1910 C1911 1.415 . S
C1911 H1881 0.950 . S
C1911 C1906 1.363 . S
C1911 C1910 1.415 . S
H1912 C1909 0.999 . S
H1913 C1894 0.913 . S
H1914 C1932 0.951 . S
H1915 C1934 0.951 . S
H1916 C1936 0.950 . S
H1917 C1937 0.950 . S
H1918 C1939 0.950 . S
H1919 C1942 0.950 . S
H1920 C1943 0.950 . S
H1921 C1945 0.950 . S
H1922 C1946 0.950 . S
H1923 C1947 0.951 . S
H1924 C1949 0.951 . S
H1925 C1951 0.950 . S
H1926 C1952 0.950 . S
H1927 C1954 0.950 . S
H1928 C1957 0.950 . S
H1929 C1958 0.950 . S
H1930 C1960 0.950 . S
H1931 C1961 0.950 . S
C1932 H1914 0.951 . S
C1932 C1933 1.366 1_556 S
C1932 C1934 1.388 . S
C1933 C1932 1.366 1_554 S
C1933 C1937 1.385 . S
C1934 H1915 0.951 . S
C1934 C1932 1.388 . S
C1934 C1935 1.366 . S
C1935 C1934 1.366 . S
C1935 C1936 1.414 1_556 S
C1935 C1938 1.499 . S
C1936 H1916 0.950 . S
C1936 C1935 1.414 1_554 S
C1936 C1937 1.374 . S
C1937 H1917 0.950 . S
C1937 C1933 1.385 . S
C1937 C1936 1.374 . S
C1938 C1935 1.499 . S
C1938 C1939 1.373 . S
C1938 C1940 1.389 . S
C1939 H1918 0.950 . S
C1939 C1938 1.373 . S
C1939 C1955 1.377 . S
C1940 C1938 1.389 . S
C1940 C1941 1.524 . S
C1940 C1954 1.377 . S
C1941 C1940 1.524 . S
C1941 C1942 1.397 . S
C1941 C1946 1.363 . S
C1942 H1919 0.950 . S
C1942 C1941 1.397 . S
C1942 C1943 1.334 . S
C1943 H1920 0.950 . S
C1943 C1942 1.334 . S
C1943 C1944 1.287 . S
C1944 C1943 1.287 . S
C1944 C1945 1.524 . S
C1944 H1963 0.913 . S
C1945 H1921 0.950 . S
C1945 C1944 1.524 . S
C1945 C1946 1.415 . S
C1946 H1922 0.950 . S
C1946 C1941 1.363 . S
C1946 C1945 1.415 . S
C1947 H1923 0.951 . S
C1947 C1948 1.366 . S
C1947 C1949 1.388 . S
C1948 C1947 1.366 . S
C1948 C1952 1.385 . S
C1949 H1924 0.951 . S
C1949 C1947 1.388 . S
C1949 C1950 1.366 . S
C1950 C1949 1.366 . S
C1950 C1951 1.414 . S
C1950 C1953 1.499 . S
C1951 H1925 0.950 . S
C1951 C1950 1.414 . S
C1951 C1952 1.374 . S
C1952 H1926 0.950 . S
C1952 C1948 1.385 . S
C1952 C1951 1.374 . S
C1953 C1950 1.499 . S
C1953 C1954 1.373 . S
C1953 C1955 1.389 . S
C1954 H1927 0.950 . S
C1954 C1940 1.377 . S
C1954 C1953 1.373 . S
C1955 C1939 1.377 . S
C1955 C1953 1.389 . S
C1955 C1956 1.524 . S
C1956 C1955 1.524 . S
C1956 C1957 1.397 . S
C1956 C1961 1.363 . S
C1957 H1928 0.950 . S
C1957 C1956 1.397 . S
C1957 C1958 1.334 . S
C1958 H1929 0.950 . S
C1958 C1957 1.334 . S
C1958 C1959 1.287 . S
C1959 C1958 1.287 . S
C1959 C1960 1.524 . S
C1959 H1962 0.999 . S
C1960 H1930 0.950 . S
C1960 C1959 1.524 . S
C1960 C1961 1.415 . S
C1961 H1931 0.950 . S
C1961 C1956 1.363 . S
C1961 C1960 1.415 . S
H1962 C1959 0.999 . S
H1963 C1944 0.913 . S
H1964 C1982 0.951 . S
H1965 C1984 0.951 . S
H1966 C1986 0.950 . S
H1967 C1987 0.950 . S
H1968 C1989 0.950 . S
H1969 C1992 0.950 . S
H1970 C1993 0.950 . S
H1971 C1995 0.950 . S
H1972 C1996 0.950 . S
H1973 C1997 0.951 . S
H1974 C1999 0.951 . S
H1975 C2001 0.950 . S
H1976 C2002 0.950 . S
H1977 C2004 0.950 . S
H1978 C2007 0.950 . S
H1979 C2008 0.950 . S
H1980 C2010 0.950 . S
H1981 C2011 0.950 . S
C1982 H1964 0.951 . S
C1982 C1983 1.366 . S
C1982 C1984 1.388 . S
C1983 C1982 1.366 . S
C1983 C1987 1.385 . S
C1984 H1965 0.951 . S
C1984 C1982 1.388 . S
C1984 C1985 1.366 . S
C1985 C1984 1.366 . S
C1985 C1986 1.414 . S
C1985 C1988 1.499 . S
C1986 H1966 0.950 . S
C1986 C1985 1.414 . S
C1986 C1987 1.374 . S
C1987 H1967 0.950 . S
C1987 C1983 1.385 . S
C1987 C1986 1.374 . S
C1988 C1985 1.499 . S
C1988 C1989 1.373 . S
C1988 C1990 1.389 . S
C1989 H1968 0.950 . S
C1989 C1988 1.373 . S
C1989 C2005 1.377 . S
C1990 C1988 1.389 . S
C1990 C1991 1.524 . S
C1990 C2004 1.377 . S
C1991 C1990 1.524 . S
C1991 C1992 1.397 . S
C1991 C1996 1.363 . S
C1992 H1969 0.950 . S
C1992 C1991 1.397 . S
C1992 C1993 1.334 . S
C1993 H1970 0.950 . S
C1993 C1992 1.334 . S
C1993 C1994 1.287 . S
C1994 C1993 1.287 . S
C1994 C1995 1.524 . S
C1994 H2013 0.913 . S
C1995 H1971 0.950 . S
C1995 C1994 1.524 . S
C1995 C1996 1.415 . S
C1996 H1972 0.950 . S
C1996 C1991 1.363 . S
C1996 C1995 1.415 . S
C1997 H1973 0.951 . S
C1997 C1998 1.366 . S
C1997 C1999 1.388 . S
C1998 C1997 1.366 . S
C1998 C2002 1.385 . S
C1999 H1974 0.951 . S
C1999 C1997 1.388 . S
C1999 C2000 1.366 . S
C2000 C1999 1.366 . S
C2000 C2001 1.414 . S
C2000 C2003 1.499 . S
C2001 H1975 0.950 . S
C2001 C2000 1.414 . S
C2001 C2002 1.374 . S
C2002 H1976 0.950 . S
C2002 C1998 1.385 . S
C2002 C2001 1.374 . S
C2003 C2000 1.499 . S
C2003 C2004 1.373 . S
C2003 C2005 1.389 . S
C2004 H1977 0.950 . S
C2004 C1990 1.377 . S
C2004 C2003 1.373 . S
C2005 C1989 1.377 . S
C2005 C2003 1.389 . S
C2005 C2006 1.524 . S
C2006 C2005 1.524 . S
C2006 C2007 1.397 . S
C2006 C2011 1.363 . S
C2007 H1978 0.950 . S
C2007 C2006 1.397 . S
C2007 C2008 1.334 . S
C2008 H1979 0.950 . S
C2008 C2007 1.334 . S
C2008 C2009 1.287 . S
C2009 C2008 1.287 . S
C2009 C2010 1.524 . S
C2009 H2012 0.999 . S
C2010 H1980 0.950 . S
C2010 C2009 1.524 . S
C2010 C2011 1.415 . S
C2011 H1981 0.950 . S
C2011 C2006 1.363 . S
C2011 C2010 1.415 . S
H2012 C2009 0.999 . S
H2013 C1994 0.913 . S
H2014 C2032 0.951 . S
H2015 C2034 0.951 . S
H2016 C2036 0.950 . S
H2017 C2037 0.950 . S
H2018 C2039 0.959 . S
H2019 C2042 0.950 . S
H2020 C2043 0.950 . S
H2021 C2045 0.950 . S
H2022 C2046 0.950 . S
H2023 C2047 0.951 . S
H2024 C2049 0.951 . S
H2025 C2051 0.950 . S
H2026 C2052 0.950 . S
H2027 C2054 0.950 . S
H2028 C2057 0.950 . S
H2029 C2058 0.950 . S
H2030 C2060 0.950 . S
H2031 C2061 0.950 . S
C2032 H2014 0.951 . S
C2032 C2033 1.366 . S
C2032 C2034 1.388 . S
C2033 C2032 1.366 . S
C2033 C2037 1.385 . S
C2034 H2015 0.951 . S
C2034 C2032 1.388 . S
C2034 C2035 1.366 . S
C2035 C2034 1.366 . S
C2035 C2036 1.414 . S
C2035 C2038 1.499 . S
C2036 H2016 0.950 . S
C2036 C2035 1.414 . S
C2036 C2037 1.374 . S
C2037 H2017 0.950 . S
C2037 C2033 1.385 . S
C2037 C2036 1.374 . S
C2038 C2035 1.499 . S
C2038 C2039 1.390 . S
C2038 C2040 1.389 . S
C2039 H2018 0.959 . S
C2039 C2038 1.390 . S
C2039 C2055 1.353 1_655 S
C2040 C2038 1.389 . S
C2040 C2041 1.524 . S
C2040 C2054 1.377 1_655 S
C2041 C2040 1.524 . S
C2041 C2042 1.397 . S
C2041 C2046 1.363 . S
C2042 H2019 0.950 . S
C2042 C2041 1.397 . S
C2042 C2043 1.334 . S
C2043 H2020 0.950 . S
C2043 C2042 1.334 . S
C2043 C2044 1.287 . S
C2044 C2043 1.287 . S
C2044 C2045 1.524 . S
C2044 H2063 0.913 . S
C2045 H2021 0.950 . S
C2045 C2044 1.524 . S
C2045 C2046 1.415 . S
C2046 H2022 0.950 . S
C2046 C2041 1.363 . S
C2046 C2045 1.415 . S
C2047 H2023 0.951 . S
C2047 C2048 1.366 . S
C2047 C2049 1.388 . S
C2048 C2047 1.366 . S
C2048 C2052 1.385 . S
C2049 H2024 0.951 . S
C2049 C2047 1.388 . S
C2049 C2050 1.366 . S
C2050 C2049 1.366 . S
C2050 C2051 1.414 . S
C2050 C2053 1.499 . S
C2051 H2025 0.950 . S
C2051 C2050 1.414 . S
C2051 C2052 1.374 . S
C2052 H2026 0.950 . S
C2052 C2048 1.385 . S
C2052 C2051 1.374 . S
C2053 C2050 1.499 . S
C2053 C2054 1.373 . S
C2053 C2055 1.389 . S
C2054 H2027 0.950 . S
C2054 C2040 1.377 1_455 S
C2054 C2053 1.373 . S
C2055 C2039 1.353 1_455 S
C2055 C2053 1.389 . S
C2055 C2056 1.524 . S
C2056 C2055 1.524 . S
C2056 C2057 1.397 . S
C2056 C2061 1.363 . S
C2057 H2028 0.950 . S
C2057 C2056 1.397 . S
C2057 C2058 1.334 . S
C2058 H2029 0.950 . S
C2058 C2057 1.334 . S
C2058 C2059 1.287 . S
C2059 C2058 1.287 . S
C2059 C2060 1.524 . S
C2059 H2062 0.999 . S
C2060 H2030 0.950 . S
C2060 C2059 1.524 . S
C2060 C2061 1.415 . S
C2061 H2031 0.950 . S
C2061 C2056 1.363 . S
C2061 C2060 1.415 . S
H2062 C2059 0.999 . S
H2063 C2044 0.913 . S
H2064 C2082 0.951 . S
H2065 C2084 0.951 . S
H2066 C2086 0.950 . S
H2067 C2087 0.950 . S
H2068 C2089 0.950 . S
H2069 C2092 0.950 . S
H2070 C2093 0.950 . S
H2071 C2095 0.950 . S
H2072 C2096 0.950 . S
H2073 C2097 0.951 . S
H2074 C2099 0.951 . S
H2075 C2101 0.950 . S
H2076 C2102 0.950 . S
H2077 C2104 0.950 . S
H2078 C2107 0.950 . S
H2079 C2108 0.950 . S
H2080 C2110 0.950 . S
H2081 C2111 0.950 . S
C2082 H2064 0.951 . S
C2082 C2083 1.366 . S
C2082 C2084 1.388 . S
C2083 C2082 1.366 . S
C2083 C2087 1.385 . S
C2084 H2065 0.951 . S
C2084 C2082 1.388 . S
C2084 C2085 1.366 . S
C2085 C2084 1.366 . S
C2085 C2086 1.414 . S
C2085 C2088 1.499 . S
C2086 H2066 0.950 . S
C2086 C2085 1.414 . S
C2086 C2087 1.374 . S
C2087 H2067 0.950 . S
C2087 C2083 1.385 . S
C2087 C2086 1.374 . S
C2088 C2085 1.499 . S
C2088 C2089 1.373 . S
C2088 C2090 1.389 . S
C2089 H2068 0.950 . S
C2089 C2088 1.373 . S
C2089 C2105 1.377 . S
C2090 C2088 1.389 . S
C2090 C2091 1.524 . S
C2090 C2104 1.377 . S
C2091 C2090 1.524 . S
C2091 C2092 1.397 . S
C2091 C2096 1.363 . S
C2092 H2069 0.950 . S
C2092 C2091 1.397 . S
C2092 C2093 1.334 . S
C2093 H2070 0.950 . S
C2093 C2092 1.334 . S
C2093 C2094 1.287 . S
C2094 C2093 1.287 . S
C2094 C2095 1.524 . S
C2094 H2113 0.913 . S
C2095 H2071 0.950 . S
C2095 C2094 1.524 . S
C2095 C2096 1.415 . S
C2096 H2072 0.950 . S
C2096 C2091 1.363 . S
C2096 C2095 1.415 . S
C2097 H2073 0.951 . S
C2097 C2098 1.366 . S
C2097 C2099 1.388 . S
C2098 C2097 1.366 . S
C2098 C2102 1.385 . S
C2099 H2074 0.951 . S
C2099 C2097 1.388 . S
C2099 C2100 1.366 . S
C2100 C2099 1.366 . S
C2100 C2101 1.414 . S
C2100 C2103 1.499 . S
C2101 H2075 0.950 . S
C2101 C2100 1.414 . S
C2101 C2102 1.374 . S
C2102 H2076 0.950 . S
C2102 C2098 1.385 . S
C2102 C2101 1.374 . S
C2103 C2100 1.499 . S
C2103 C2104 1.373 . S
C2103 C2105 1.389 . S
C2104 H2077 0.950 . S
C2104 C2090 1.377 . S
C2104 C2103 1.373 . S
C2105 C2089 1.377 . S
C2105 C2103 1.389 . S
C2105 C2106 1.524 . S
C2106 C2105 1.524 . S
C2106 C2107 1.397 . S
C2106 C2111 1.363 . S
C2107 H2078 0.950 . S
C2107 C2106 1.397 . S
C2107 C2108 1.334 . S
C2108 H2079 0.950 . S
C2108 C2107 1.334 . S
C2108 C2109 1.287 . S
C2109 C2108 1.287 . S
C2109 C2110 1.524 . S
C2109 H2112 0.999 . S
C2110 H2080 0.950 . S
C2110 C2109 1.524 . S
C2110 C2111 1.415 . S
C2111 H2081 0.950 . S
C2111 C2106 1.363 . S
C2111 C2110 1.415 . S
H2112 C2109 0.999 . S
H2113 C2094 0.913 . S
H2114 C2132 0.951 . S
H2115 C2134 0.951 . S
H2116 C2136 0.949 . S
H2117 C2137 0.950 . S
H2118 C2139 0.950 . S
H2119 C2142 0.950 . S
H2120 C2143 0.950 . S
H2121 C2145 0.950 . S
H2122 C2146 0.950 . S
H2123 C2147 0.951 . S
H2124 C2149 0.951 . S
H2125 C2151 0.950 . S
H2126 C2152 0.950 1_554 S
H2127 C2154 0.950 . S
H2128 C2157 0.950 . S
H2129 C2158 0.950 . S
H2130 C2160 0.950 . S
H2131 C2161 0.950 . S
C2132 H2114 0.951 . S
C2132 C2133 1.366 . S
C2132 C2134 1.388 . S
C2133 C2132 1.366 . S
C2133 C2137 1.385 . S
C2134 H2115 0.951 . S
C2134 C2132 1.388 . S
C2134 C2135 1.366 . S
C2135 C2134 1.366 . S
C2135 C2136 1.414 . S
C2135 C2138 1.499 . S
C2136 H2116 0.949 . S
C2136 C2135 1.414 . S
C2136 C2137 1.374 . S
C2137 H2117 0.950 . S
C2137 C2133 1.385 . S
C2137 C2136 1.374 . S
C2138 C2135 1.499 . S
C2138 C2139 1.373 1_455 S
C2138 C2140 1.389 . S
C2139 H2118 0.950 . S
C2139 C2138 1.373 1_655 S
C2139 C2155 1.377 . S
C2140 C2138 1.389 . S
C2140 C2141 1.524 . S
C2140 C2154 1.377 1_455 S
C2141 C2140 1.524 . S
C2141 C2142 1.397 . S
C2141 C2146 1.363 . S
C2142 H2119 0.950 . S
C2142 C2141 1.397 . S
C2142 C2143 1.334 . S
C2143 H2120 0.950 . S
C2143 C2142 1.334 . S
C2143 C2144 1.287 . S
C2144 C2143 1.287 . S
C2144 C2145 1.524 . S
C2144 H2163 0.913 . S
C2145 H2121 0.950 . S
C2145 C2144 1.524 . S
C2145 C2146 1.415 . S
C2146 H2122 0.950 . S
C2146 C2141 1.363 . S
C2146 C2145 1.415 . S
C2147 H2123 0.951 . S
C2147 C2148 1.366 . S
C2147 C2149 1.388 . S
C2148 C2147 1.366 . S
C2148 C2152 1.385 . S
C2149 H2124 0.951 . S
C2149 C2147 1.388 . S
C2149 C2150 1.366 . S
C2150 C2149 1.366 . S
C2150 C2151 1.414 . S
C2150 C2153 1.499 . S
C2151 H2125 0.950 . S
C2151 C2150 1.414 . S
C2151 C2152 1.374 . S
C2152 H2126 0.950 1_556 S
C2152 C2148 1.385 . S
C2152 C2151 1.374 . S
C2153 C2150 1.499 . S
C2153 C2154 1.373 . S
C2153 C2155 1.389 . S
C2154 H2127 0.950 . S
C2154 C2140 1.377 1_655 S
C2154 C2153 1.373 . S
C2155 C2139 1.377 . S
C2155 C2153 1.389 . S
C2155 C2156 1.524 . S
C2156 C2155 1.524 . S
C2156 C2157 1.397 . S
C2156 C2161 1.363 . S
C2157 H2128 0.950 . S
C2157 C2156 1.397 . S
C2157 C2158 1.334 . S
C2158 H2129 0.950 . S
C2158 C2157 1.334 . S
C2158 C2159 1.287 . S
C2159 C2158 1.287 . S
C2159 C2160 1.524 . S
C2159 H2162 0.999 . S
C2160 H2130 0.950 . S
C2160 C2159 1.524 . S
C2160 C2161 1.415 . S
C2161 H2131 0.950 . S
C2161 C2156 1.363 . S
C2161 C2160 1.415 . S
H2162 C2159 0.999 . S
H2163 C2144 0.913 . S
H2164 C2182 0.951 . S
H2165 C2184 0.951 . S
H2166 C2186 0.950 . S
H2167 C2187 0.950 . S
H2168 C2189 0.950 . S
H2169 C2192 0.950 . S
H2170 C2193 0.950 . S
H2171 C2195 0.950 . S
H2172 C2196 0.950 . S
H2173 C2197 0.951 . S
H2174 C2199 0.951 . S
H2175 C2201 0.950 . S
H2176 C2202 0.950 . S
H2177 C2204 0.950 . S
H2178 C2207 0.950 . S
H2179 C2208 0.950 . S
H2180 C2210 0.950 . S
H2181 C2211 0.950 . S
C2182 H2164 0.951 . S
C2182 C2183 1.366 . S
C2182 C2184 1.388 . S
C2183 C2182 1.366 . S
C2183 C2187 1.385 . S
C2184 H2165 0.951 . S
C2184 C2182 1.388 . S
C2184 C2185 1.366 . S
C2185 C2184 1.366 . S
C2185 C2186 1.414 . S
C2185 C2188 1.499 . S
C2186 H2166 0.950 . S
C2186 C2185 1.414 . S
C2186 C2187 1.374 . S
C2187 H2167 0.950 . S
C2187 C2183 1.385 . S
C2187 C2186 1.374 . S
C2188 C2185 1.499 . S
C2188 C2189 1.373 . S
C2188 C2190 1.389 . S
C2189 H2168 0.950 . S
C2189 C2188 1.373 . S
C2189 C2205 1.377 . S
C2190 C2188 1.389 . S
C2190 C2191 1.524 . S
C2190 C2204 1.377 . S
C2191 C2190 1.524 . S
C2191 C2192 1.397 . S
C2191 C2196 1.363 . S
C2192 H2169 0.950 . S
C2192 C2191 1.397 . S
C2192 C2193 1.334 . S
C2193 H2170 0.950 . S
C2193 C2192 1.334 . S
C2193 C2194 1.287 . S
C2194 C2193 1.287 . S
C2194 C2195 1.524 . S
C2194 H2213 0.913 . S
C2195 H2171 0.950 . S
C2195 C2194 1.524 . S
C2195 C2196 1.415 . S
C2196 H2172 0.950 . S
C2196 C2191 1.363 . S
C2196 C2195 1.415 . S
C2197 H2173 0.951 . S
C2197 C2198 1.366 . S
C2197 C2199 1.388 . S
C2198 C2197 1.366 . S
C2198 C2202 1.385 . S
C2199 H2174 0.951 . S
C2199 C2197 1.388 . S
C2199 C2200 1.366 . S
C2200 C2199 1.366 . S
C2200 C2201 1.414 . S
C2200 C2203 1.499 . S
C2201 H2175 0.950 . S
C2201 C2200 1.414 . S
C2201 C2202 1.374 . S
C2202 H2176 0.950 . S
C2202 C2198 1.385 . S
C2202 C2201 1.374 . S
C2203 C2200 1.499 . S
C2203 C2204 1.373 . S
C2203 C2205 1.389 . S
C2204 H2177 0.950 . S
C2204 C2190 1.377 . S
C2204 C2203 1.373 . S
C2205 C2189 1.377 . S
C2205 C2203 1.389 . S
C2205 C2206 1.524 . S
C2206 C2205 1.524 . S
C2206 C2207 1.397 . S
C2206 C2211 1.363 . S
C2207 H2178 0.950 . S
C2207 C2206 1.397 . S
C2207 C2208 1.334 . S
C2208 H2179 0.950 . S
C2208 C2207 1.334 . S
C2208 C2209 1.287 . S
C2209 C2208 1.287 . S
C2209 C2210 1.524 . S
C2209 H2212 0.999 . S
C2210 H2180 0.950 . S
C2210 C2209 1.524 . S
C2210 C2211 1.415 . S
C2211 H2181 0.950 . S
C2211 C2206 1.363 . S
C2211 C2210 1.415 . S
H2212 C2209 0.999 . S
H2213 C2194 0.913 . S
H2214 C2232 0.951 . S
H2215 C2234 0.951 . S
H2216 C2236 0.950 . S
H2217 C2237 0.950 . S
H2218 C2239 0.950 . S
H2219 C2242 0.950 . S
H2220 C2243 0.950 . S
H2221 C2245 0.950 . S
H2222 C2246 0.950 . S
H2223 C2247 0.951 . S
H2224 C2249 0.951 . S
H2225 C2251 0.950 . S
H2226 C2252 0.950 . S
H2227 C2254 0.950 . S
H2228 C2257 0.950 . S
H2229 C2258 0.950 . S
H2230 C2260 0.950 . S
H2231 C2261 0.950 . S
C2232 H2214 0.951 . S
C2232 C2233 1.366 . S
C2232 C2234 1.388 . S
C2233 C2232 1.366 . S
C2233 C2237 1.385 . S
C2234 H2215 0.951 . S
C2234 C2232 1.388 . S
C2234 C2235 1.366 . S
C2235 C2234 1.366 . S
C2235 C2236 1.414 . S
C2235 C2238 1.499 . S
C2236 H2216 0.950 . S
C2236 C2235 1.414 . S
C2236 C2237 1.374 . S
C2237 H2217 0.950 . S
C2237 C2233 1.385 . S
C2237 C2236 1.374 . S
C2238 C2235 1.499 . S
C2238 C2239 1.373 . S
C2238 C2240 1.389 . S
C2239 H2218 0.950 . S
C2239 C2238 1.373 . S
C2239 C2255 1.377 . S
C2240 C2238 1.389 . S
C2240 C2241 1.524 . S
C2240 C2254 1.377 . S
C2241 C2240 1.524 . S
C2241 C2242 1.397 . S
C2241 C2246 1.363 . S
C2242 H2219 0.950 . S
C2242 C2241 1.397 . S
C2242 C2243 1.334 . S
C2243 H2220 0.950 . S
C2243 C2242 1.334 . S
C2243 C2244 1.287 . S
C2244 C2243 1.287 . S
C2244 C2245 1.524 . S
C2244 H2263 0.913 . S
C2245 H2221 0.950 . S
C2245 C2244 1.524 . S
C2245 C2246 1.415 . S
C2246 H2222 0.950 . S
C2246 C2241 1.363 . S
C2246 C2245 1.415 . S
C2247 H2223 0.951 . S
C2247 C2248 1.366 . S
C2247 C2249 1.388 . S
C2248 C2247 1.366 . S
C2248 C2252 1.385 . S
C2249 H2224 0.951 . S
C2249 C2247 1.388 . S
C2249 C2250 1.366 . S
C2250 C2249 1.366 . S
C2250 C2251 1.414 . S
C2250 C2253 1.499 . S
C2251 H2225 0.950 . S
C2251 C2250 1.414 . S
C2251 C2252 1.374 . S
C2252 H2226 0.950 . S
C2252 C2248 1.385 . S
C2252 C2251 1.374 . S
C2253 C2250 1.499 . S
C2253 C2254 1.373 . S
C2253 C2255 1.389 . S
C2254 H2227 0.950 . S
C2254 C2240 1.377 . S
C2254 C2253 1.373 . S
C2255 C2239 1.377 . S
C2255 C2253 1.389 . S
C2255 C2256 1.524 . S
C2256 C2255 1.524 . S
C2256 C2257 1.397 . S
C2256 C2261 1.363 . S
C2257 H2228 0.950 . S
C2257 C2256 1.397 . S
C2257 C2258 1.334 . S
C2258 H2229 0.950 . S
C2258 C2257 1.334 . S
C2258 C2259 1.287 . S
C2259 C2258 1.287 . S
C2259 C2260 1.524 . S
C2259 H2262 0.999 . S
C2260 H2230 0.950 . S
C2260 C2259 1.524 . S
C2260 C2261 1.415 . S
C2261 H2231 0.950 . S
C2261 C2256 1.363 . S
C2261 C2260 1.415 . S
H2262 C2259 0.999 . S
H2263 C2244 0.913 . S
H2264 C2282 0.951 . S
H2265 C2284 0.951 . S
H2266 C2286 0.950 . S
H2267 C2287 0.950 . S
H2268 C2289 0.950 . S
H2269 C2292 0.950 . S
H2270 C2293 0.950 . S
H2271 C2295 0.950 . S
H2272 C2296 0.950 . S
H2273 C2297 0.951 . S
H2274 C2299 0.951 . S
H2275 C2301 0.950 . S
H2276 C2302 0.950 . S
H2277 C2304 0.950 . S
H2278 C2307 0.950 . S
H2279 C2308 0.950 . S
H2280 C2310 0.950 . S
H2281 C2311 0.950 . S
C2282 H2264 0.951 . S
C2282 C2283 1.366 . S
C2282 C2284 1.388 . S
C2283 C2282 1.366 . S
C2283 C2287 1.385 . S
C2284 H2265 0.951 . S
C2284 C2282 1.388 . S
C2284 C2285 1.366 . S
C2285 C2284 1.366 . S
C2285 C2286 1.414 . S
C2285 C2288 1.499 . S
C2286 H2266 0.950 . S
C2286 C2285 1.414 . S
C2286 C2287 1.374 . S
C2287 H2267 0.950 . S
C2287 C2283 1.385 . S
C2287 C2286 1.374 . S
C2288 C2285 1.499 . S
C2288 C2289 1.373 . S
C2288 C2290 1.389 . S
C2289 H2268 0.950 . S
C2289 C2288 1.373 . S
C2289 C2305 1.377 . S
C2290 C2288 1.389 . S
C2290 C2291 1.524 . S
C2290 C2304 1.377 . S
C2291 C2290 1.524 . S
C2291 C2292 1.397 . S
C2291 C2296 1.363 . S
C2292 H2269 0.950 . S
C2292 C2291 1.397 . S
C2292 C2293 1.334 . S
C2293 H2270 0.950 . S
C2293 C2292 1.334 . S
C2293 C2294 1.287 . S
C2294 C2293 1.287 . S
C2294 C2295 1.524 . S
C2294 H2313 0.913 . S
C2295 H2271 0.950 . S
C2295 C2294 1.524 . S
C2295 C2296 1.415 . S
C2296 H2272 0.950 . S
C2296 C2291 1.363 . S
C2296 C2295 1.415 . S
C2297 H2273 0.951 . S
C2297 C2298 1.366 . S
C2297 C2299 1.388 . S
C2298 C2297 1.366 . S
C2298 C2302 1.385 . S
C2299 H2274 0.951 . S
C2299 C2297 1.388 . S
C2299 C2300 1.366 . S
C2300 C2299 1.366 . S
C2300 C2301 1.414 . S
C2300 C2303 1.499 . S
C2301 H2275 0.950 . S
C2301 C2300 1.414 . S
C2301 C2302 1.374 . S
C2302 H2276 0.950 . S
C2302 C2298 1.385 . S
C2302 C2301 1.374 . S
C2303 C2300 1.499 . S
C2303 C2304 1.373 . S
C2303 C2305 1.389 . S
C2304 H2277 0.950 . S
C2304 C2290 1.377 . S
C2304 C2303 1.373 . S
C2305 C2289 1.377 . S
C2305 C2303 1.389 . S
C2305 C2306 1.524 . S
C2306 C2305 1.524 . S
C2306 C2307 1.397 . S
C2306 C2311 1.363 . S
C2307 H2278 0.950 . S
C2307 C2306 1.397 . S
C2307 C2308 1.334 . S
C2308 H2279 0.950 . S
C2308 C2307 1.334 . S
C2308 C2309 1.287 . S
C2309 C2308 1.287 . S
C2309 C2310 1.524 . S
C2309 H2312 0.999 . S
C2310 H2280 0.950 . S
C2310 C2309 1.524 . S
C2310 C2311 1.415 . S
C2311 H2281 0.950 . S
C2311 C2306 1.363 . S
C2311 C2310 1.415 . S
H2312 C2309 0.999 . S
H2313 C2294 0.913 . S
H2314 C2332 0.951 . S
H2315 C2334 0.951 . S
H2316 C2336 0.950 . S
H2317 C2337 0.950 . S
H2318 C2339 0.950 . S
H2319 C2342 0.950 . S
H2320 C2343 0.950 . S
H2321 C2345 0.950 1_556 S
H2322 C2346 0.950 . S
H2323 C2347 0.951 . S
H2324 C2349 0.951 . S
H2325 C2351 0.950 . S
H2326 C2352 0.950 . S
H2327 C2354 0.950 . S
H2328 C2357 0.950 . S
H2329 C2358 0.950 . S
H2330 C2360 0.950 . S
H2331 C2361 0.950 . S
C2332 H2314 0.951 . S
C2332 C2333 1.366 . S
C2332 C2334 1.388 1_556 S
C2333 C2332 1.366 . S
C2333 C2337 1.385 1_556 S
C2334 H2315 0.951 . S
C2334 C2332 1.388 1_554 S
C2334 C2335 1.366 . S
C2335 C2334 1.366 . S
C2335 C2336 1.414 . S
C2335 C2338 1.499 . S
C2336 H2316 0.950 . S
C2336 C2335 1.414 . S
C2336 C2337 1.374 . S
C2337 H2317 0.950 . S
C2337 C2333 1.385 1_554 S
C2337 C2336 1.374 . S
C2338 C2335 1.499 . S
C2338 C2339 1.373 . S
C2338 C2340 1.389 . S
C2339 H2318 0.950 . S
C2339 C2338 1.373 . S
C2339 C2355 1.377 . S
C2340 C2338 1.389 . S
C2340 C2341 1.524 . S
C2340 C2354 1.377 . S
C2341 C2340 1.524 . S
C2341 C2342 1.397 . S
C2341 C2346 1.363 . S
C2342 H2319 0.950 . S
C2342 C2341 1.397 . S
C2342 C2343 1.334 . S
C2343 H2320 0.950 . S
C2343 C2342 1.334 . S
C2343 C2344 1.287 . S
C2344 C2343 1.287 . S
C2344 C2345 1.524 . S
C2344 H2363 0.913 1_554 S
C2345 H2321 0.950 1_554 S
C2345 C2344 1.524 . S
C2345 C2346 1.415 . S
C2346 H2322 0.950 . S
C2346 C2341 1.363 . S
C2346 C2345 1.415 . S
C2347 H2323 0.951 . S
C2347 C2348 1.366 . S
C2347 C2349 1.388 . S
C2348 C2347 1.366 . S
C2348 C2352 1.385 . S
C2349 H2324 0.951 . S
C2349 C2347 1.388 . S
C2349 C2350 1.366 . S
C2350 C2349 1.366 . S
C2350 C2351 1.414 . S
C2350 C2353 1.499 . S
C2351 H2325 0.950 . S
C2351 C2350 1.414 . S
C2351 C2352 1.374 . S
C2352 H2326 0.950 . S
C2352 C2348 1.385 . S
C2352 C2351 1.374 . S
C2353 C2350 1.499 . S
C2353 C2354 1.373 . S
C2353 C2355 1.389 . S
C2354 H2327 0.950 . S
C2354 C2340 1.377 . S
C2354 C2353 1.373 . S
C2355 C2339 1.377 . S
C2355 C2353 1.389 . S
C2355 C2356 1.524 . S
C2356 C2355 1.524 . S
C2356 C2357 1.397 . S
C2356 C2361 1.363 . S
C2357 H2328 0.950 . S
C2357 C2356 1.397 . S
C2357 C2358 1.334 . S
C2358 H2329 0.950 . S
C2358 C2357 1.334 . S
C2358 C2359 1.287 . S
C2359 C2358 1.287 . S
C2359 C2360 1.524 . S
C2359 H2362 0.999 . S
C2360 H2330 0.950 . S
C2360 C2359 1.524 . S
C2360 C2361 1.415 . S
C2361 H2331 0.950 . S
C2361 C2356 1.363 . S
C2361 C2360 1.415 . S
H2362 C2359 0.999 . S
H2363 C2344 0.913 1_556 S
H2364 C2382 0.951 . S
H2365 C2384 0.951 . S
H2366 C2386 0.950 . S
H2367 C2387 0.950 . S
H2368 C2389 0.950 . S
H2369 C2392 0.950 . S
H2370 C2393 0.950 . S
H2371 C2395 0.950 . S
H2372 C2396 0.950 . S
H2373 C2397 0.951 . S
H2374 C2399 0.951 . S
H2375 C2401 0.950 . S
H2376 C2402 0.950 . S
H2377 C2404 0.950 . S
H2378 C2407 0.950 . S
H2379 C2408 0.950 . S
H2380 C2410 0.950 . S
H2381 C2411 0.950 . S
C2382 H2364 0.951 . S
C2382 C2383 1.366 . S
C2382 C2384 1.388 . S
C2383 C2382 1.366 . S
C2383 C2387 1.385 . S
C2384 H2365 0.951 . S
C2384 C2382 1.388 . S
C2384 C2385 1.366 . S
C2385 C2384 1.366 . S
C2385 C2386 1.414 . S
C2385 C2388 1.499 . S
C2386 H2366 0.950 . S
C2386 C2385 1.414 . S
C2386 C2387 1.374 . S
C2387 H2367 0.950 . S
C2387 C2383 1.385 . S
C2387 C2386 1.374 . S
C2388 C2385 1.499 . S
C2388 C2389 1.373 . S
C2388 C2390 1.389 . S
C2389 H2368 0.950 . S
C2389 C2388 1.373 . S
C2389 C2405 1.377 . S
C2390 C2388 1.389 . S
C2390 C2391 1.524 . S
C2390 C2404 1.377 . S
C2391 C2390 1.524 . S
C2391 C2392 1.397 . S
C2391 C2396 1.363 . S
C2392 H2369 0.950 . S
C2392 C2391 1.397 . S
C2392 C2393 1.334 . S
C2393 H2370 0.950 . S
C2393 C2392 1.334 . S
C2393 C2394 1.287 . S
C2394 C2393 1.287 . S
C2394 C2395 1.524 . S
C2394 H2413 0.913 . S
C2395 H2371 0.950 . S
C2395 C2394 1.524 . S
C2395 C2396 1.415 . S
C2396 H2372 0.950 . S
C2396 C2391 1.363 . S
C2396 C2395 1.415 . S
C2397 H2373 0.951 . S
C2397 C2398 1.366 . S
C2397 C2399 1.388 . S
C2398 C2397 1.366 . S
C2398 C2402 1.385 . S
C2399 H2374 0.951 . S
C2399 C2397 1.388 . S
C2399 C2400 1.366 . S
C2400 C2399 1.366 . S
C2400 C2401 1.414 . S
C2400 C2403 1.499 . S
C2401 H2375 0.950 . S
C2401 C2400 1.414 . S
C2401 C2402 1.374 . S
C2402 H2376 0.950 . S
C2402 C2398 1.385 . S
C2402 C2401 1.374 . S
C2403 C2400 1.499 . S
C2403 C2404 1.373 . S
C2403 C2405 1.389 . S
C2404 H2377 0.950 . S
C2404 C2390 1.377 . S
C2404 C2403 1.373 . S
C2405 C2389 1.377 . S
C2405 C2403 1.389 . S
C2405 C2406 1.524 . S
C2406 C2405 1.524 . S
C2406 C2407 1.397 . S
C2406 C2411 1.363 . S
C2407 H2378 0.950 . S
C2407 C2406 1.397 . S
C2407 C2408 1.334 . S
C2408 H2379 0.950 . S
C2408 C2407 1.334 . S
C2408 C2409 1.287 . S
C2409 C2408 1.287 . S
C2409 C2410 1.524 . S
C2409 H2412 0.999 . S
C2410 H2380 0.950 . S
C2410 C2409 1.524 . S
C2410 C2411 1.415 . S
C2411 H2381 0.950 . S
C2411 C2406 1.363 . S
C2411 C2410 1.415 . S
H2412 C2409 0.999 . S
H2413 C2394 0.913 . S
H2414 C2432 0.951 . S
H2415 C2434 0.951 . S
H2416 C2436 0.950 . S
H2417 C2437 0.950 . S
H2418 C2439 0.950 . S
H2419 C2442 0.950 . S
H2420 C2443 0.950 . S
H2421 C2445 0.950 . S
H2422 C2446 0.950 . S
H2423 C2447 0.951 . S
H2424 C2449 0.951 . S
H2425 C2451 0.950 . S
H2426 C2452 0.950 . S
H2427 C2454 0.950 . S
H2428 C2457 0.950 . S
H2429 C2458 0.950 . S
H2430 C2460 0.950 . S
H2431 C2461 0.950 . S
C2432 H2414 0.951 . S
C2432 C2433 1.366 . S
C2432 C2434 1.388 . S
C2433 C2432 1.366 . S
C2433 C2437 1.385 . S
C2434 H2415 0.951 . S
C2434 C2432 1.388 . S
C2434 C2435 1.366 . S
C2435 C2434 1.366 . S
C2435 C2436 1.414 . S
C2435 C2438 1.499 . S
C2436 H2416 0.950 . S
C2436 C2435 1.414 . S
C2436 C2437 1.374 . S
C2437 H2417 0.950 . S
C2437 C2433 1.385 . S
C2437 C2436 1.374 . S
C2438 C2435 1.499 . S
C2438 C2439 1.373 . S
C2438 C2440 1.389 . S
C2439 H2418 0.950 . S
C2439 C2438 1.373 . S
C2439 C2455 1.377 1_655 S
C2440 C2438 1.389 . S
C2440 C2441 1.524 . S
C2440 C2454 1.377 . S
C2441 C2440 1.524 . S
C2441 C2442 1.397 . S
C2441 C2446 1.363 . S
C2442 H2419 0.950 . S
C2442 C2441 1.397 . S
C2442 C2443 1.334 . S
C2443 H2420 0.950 . S
C2443 C2442 1.334 . S
C2443 C2444 1.287 . S
C2444 C2443 1.287 . S
C2444 C2445 1.524 . S
C2444 H2463 0.913 . S
C2445 H2421 0.950 . S
C2445 C2444 1.524 . S
C2445 C2446 1.415 . S
C2446 H2422 0.950 . S
C2446 C2441 1.363 . S
C2446 C2445 1.415 . S
C2447 H2423 0.951 . S
C2447 C2448 1.366 . S
C2447 C2449 1.388 . S
C2448 C2447 1.366 . S
C2448 C2452 1.385 . S
C2449 H2424 0.951 . S
C2449 C2447 1.388 . S
C2449 C2450 1.366 . S
C2450 C2449 1.366 . S
C2450 C2451 1.414 . S
C2450 C2453 1.499 . S
C2451 H2425 0.950 . S
C2451 C2450 1.414 . S
C2451 C2452 1.374 . S
C2452 H2426 0.950 . S
C2452 C2448 1.385 . S
C2452 C2451 1.374 . S
C2453 C2450 1.499 . S
C2453 C2454 1.373 1_455 S
C2453 C2455 1.389 . S
C2454 H2427 0.950 . S
C2454 C2440 1.377 . S
C2454 C2453 1.373 1_655 S
C2455 C2439 1.377 1_455 S
C2455 C2453 1.389 . S
C2455 C2456 1.524 . S
C2456 C2455 1.524 . S
C2456 C2457 1.397 . S
C2456 C2461 1.363 . S
C2457 H2428 0.950 . S
C2457 C2456 1.397 . S
C2457 C2458 1.334 . S
C2458 H2429 0.950 . S
C2458 C2457 1.334 . S
C2458 C2459 1.287 . S
C2459 C2458 1.287 . S
C2459 C2460 1.524 . S
C2459 H2462 0.999 . S
C2460 H2430 0.950 . S
C2460 C2459 1.524 . S
C2460 C2461 1.415 . S
C2461 H2431 0.950 . S
C2461 C2456 1.363 . S
C2461 C2460 1.415 . S
H2462 C2459 0.999 . S
H2463 C2444 0.913 . S
H2464 C2482 0.951 . S
H2465 C2484 0.951 . S
H2466 C2486 0.950 . S
H2467 C2487 0.950 . S
H2468 C2489 0.950 . S
H2469 C2492 0.950 . S
H2470 C2493 0.950 . S
H2471 C2495 0.950 . S
H2472 C2496 0.950 . S
H2473 C2497 0.951 . S
H2474 C2499 0.951 . S
H2475 C2501 0.950 . S
H2476 C2502 0.950 . S
H2477 C2504 0.950 . S
H2478 C2507 0.950 . S
H2479 C2508 0.950 . S
H2480 C2510 0.950 . S
H2481 C2511 0.950 . S
C2482 H2464 0.951 . S
C2482 C2483 1.366 . S
C2482 C2484 1.388 . S
C2483 C2482 1.366 . S
C2483 C2487 1.385 . S
C2484 H2465 0.951 . S
C2484 C2482 1.388 . S
C2484 C2485 1.366 . S
C2485 C2484 1.366 . S
C2485 C2486 1.414 . S
C2485 C2488 1.499 . S
C2486 H2466 0.950 . S
C2486 C2485 1.414 . S
C2486 C2487 1.374 . S
C2487 H2467 0.950 . S
C2487 C2483 1.385 . S
C2487 C2486 1.374 . S
C2488 C2485 1.499 . S
C2488 C2489 1.373 . S
C2488 C2490 1.389 . S
C2489 H2468 0.950 . S
C2489 C2488 1.373 . S
C2489 C2505 1.377 . S
C2490 C2488 1.389 . S
C2490 C2491 1.524 . S
C2490 C2504 1.377 . S
C2491 C2490 1.524 . S
C2491 C2492 1.397 . S
C2491 C2496 1.363 . S
C2492 H2469 0.950 . S
C2492 C2491 1.397 . S
C2492 C2493 1.334 . S
C2493 H2470 0.950 . S
C2493 C2492 1.334 . S
C2493 C2494 1.287 . S
C2494 C2493 1.287 . S
C2494 C2495 1.524 . S
C2494 H2513 0.913 . S
C2495 H2471 0.950 . S
C2495 C2494 1.524 . S
C2495 C2496 1.415 . S
C2496 H2472 0.950 . S
C2496 C2491 1.363 . S
C2496 C2495 1.415 . S
C2497 H2473 0.951 . S
C2497 C2498 1.366 . S
C2497 C2499 1.388 . S
C2498 C2497 1.366 . S
C2498 C2502 1.385 . S
C2499 H2474 0.951 . S
C2499 C2497 1.388 . S
C2499 C2500 1.366 . S
C2500 C2499 1.366 . S
C2500 C2501 1.414 . S
C2500 C2503 1.499 . S
C2501 H2475 0.950 . S
C2501 C2500 1.414 . S
C2501 C2502 1.374 . S
C2502 H2476 0.950 . S
C2502 C2498 1.385 . S
C2502 C2501 1.374 . S
C2503 C2500 1.499 . S
C2503 C2504 1.373 . S
C2503 C2505 1.389 . S
C2504 H2477 0.950 . S
C2504 C2490 1.377 . S
C2504 C2503 1.373 . S
C2505 C2489 1.377 . S
C2505 C2503 1.389 . S
C2505 C2506 1.524 . S
C2506 C2505 1.524 . S
C2506 C2507 1.397 . S
C2506 C2511 1.363 . S
C2507 H2478 0.950 . S
C2507 C2506 1.397 . S
C2507 C2508 1.334 . S
C2508 H2479 0.950 . S
C2508 C2507 1.334 . S
C2508 C2509 1.287 . S
C2509 C2508 1.287 . S
C2509 C2510 1.524 . S
C2509 H2512 0.999 . S
C2510 H2480 0.950 . S
C2510 C2509 1.524 . S
C2510 C2511 1.415 . S
C2511 H2481 0.950 . S
C2511 C2506 1.363 . S
C2511 C2510 1.415 . S
H2512 C2509 0.999 . S
H2513 C2494 0.913 . S
H2514 C2532 0.951 . S
H2515 C2534 0.951 . S
H2516 C2536 0.950 . S
H2517 C2537 0.950 . S
H2518 C2539 0.950 . S
H2519 C2542 0.950 . S
H2520 C2543 0.950 . S
H2521 C2545 0.950 . S
H2522 C2546 0.950 . S
H2523 C2547 0.951 . S
H2524 C2549 0.951 . S
H2525 C2551 0.950 . S
H2526 C2552 0.950 . S
H2527 C2554 0.950 . S
H2528 C2557 0.950 . S
H2529 C2558 0.950 . S
H2530 C2560 0.950 . S
H2531 C2561 0.950 . S
C2532 H2514 0.951 . S
C2532 C2533 1.366 . S
C2532 C2534 1.388 . S
C2533 C2532 1.366 . S
C2533 C2537 1.385 . S
C2534 H2515 0.951 . S
C2534 C2532 1.388 . S
C2534 C2535 1.366 . S
C2535 C2534 1.366 . S
C2535 C2536 1.414 . S
C2535 C2538 1.499 . S
C2536 H2516 0.950 . S
C2536 C2535 1.414 . S
C2536 C2537 1.374 . S
C2537 H2517 0.950 . S
C2537 C2533 1.385 . S
C2537 C2536 1.374 . S
C2538 C2535 1.499 . S
C2538 C2539 1.373 . S
C2538 C2540 1.389 . S
C2539 H2518 0.950 . S
C2539 C2538 1.373 . S
C2539 C2555 1.377 . S
C2540 C2538 1.389 . S
C2540 C2541 1.524 . S
C2540 C2554 1.377 . S
C2541 C2540 1.524 . S
C2541 C2542 1.397 . S
C2541 C2546 1.363 . S
C2542 H2519 0.950 . S
C2542 C2541 1.397 . S
C2542 C2543 1.334 . S
C2543 H2520 0.950 . S
C2543 C2542 1.334 . S
C2543 C2544 1.287 . S
C2544 C2543 1.287 . S
C2544 C2545 1.524 . S
C2544 H2563 0.913 . S
C2545 H2521 0.950 . S
C2545 C2544 1.524 . S
C2545 C2546 1.415 . S
C2546 H2522 0.950 . S
C2546 C2541 1.363 . S
C2546 C2545 1.415 . S
C2547 H2523 0.951 . S
C2547 C2548 1.366 . S
C2547 C2549 1.388 . S
C2548 C2547 1.366 . S
C2548 C2552 1.385 . S
C2549 H2524 0.951 . S
C2549 C2547 1.388 . S
C2549 C2550 1.366 . S
C2550 C2549 1.366 . S
C2550 C2551 1.414 . S
C2550 C2553 1.499 . S
C2551 H2525 0.950 . S
C2551 C2550 1.414 . S
C2551 C2552 1.374 . S
C2552 H2526 0.950 . S
C2552 C2548 1.385 . S
C2552 C2551 1.374 . S
C2553 C2550 1.499 . S
C2553 C2554 1.373 . S
C2553 C2555 1.389 . S
C2554 H2527 0.950 . S
C2554 C2540 1.377 . S
C2554 C2553 1.373 . S
C2555 C2539 1.377 . S
C2555 C2553 1.389 . S
C2555 C2556 1.524 . S
C2556 C2555 1.524 . S
C2556 C2557 1.397 . S
C2556 C2561 1.363 . S
C2557 H2528 0.950 . S
C2557 C2556 1.397 . S
C2557 C2558 1.334 . S
C2558 H2529 0.950 . S
C2558 C2557 1.334 . S
C2558 C2559 1.287 . S
C2559 C2558 1.287 . S
C2559 C2560 1.524 . S
C2559 H2562 0.999 . S
C2560 H2530 0.950 . S
C2560 C2559 1.524 . S
C2560 C2561 1.415 . S
C2561 H2531 0.950 . S
C2561 C2556 1.363 . S
C2561 C2560 1.415 . S
H2562 C2559 0.999 . S
H2563 C2544 0.913 . S
H2564 C2582 0.951 . S
H2565 C2584 0.951 . S
H2566 C2586 0.950 . S
H2567 C2587 0.950 . S
H2568 C2589 0.950 . S
H2569 C2592 0.950 . S
H2570 C2593 0.950 . S
H2571 C2595 0.950 . S
H2572 C2596 0.950 . S
H2573 C2597 0.951 . S
H2574 C2599 0.951 . S
H2575 C2601 0.950 . S
H2576 C2602 0.950 . S
H2577 C2604 0.950 . S
H2578 C2607 0.950 . S
H2579 C2608 0.950 . S
H2580 C2610 0.950 . S
H2581 C2611 0.950 . S
C2582 H2564 0.951 . S
C2582 C2583 1.366 . S
C2582 C2584 1.388 . S
C2583 C2582 1.366 . S
C2583 C2587 1.385 . S
C2584 H2565 0.951 . S
C2584 C2582 1.388 . S
C2584 C2585 1.366 . S
C2585 C2584 1.366 . S
C2585 C2586 1.414 . S
C2585 C2588 1.499 . S
C2586 H2566 0.950 . S
C2586 C2585 1.414 . S
C2586 C2587 1.374 . S
C2587 H2567 0.950 . S
C2587 C2583 1.385 . S
C2587 C2586 1.374 . S
C2588 C2585 1.499 . S
C2588 C2589 1.373 . S
C2588 C2590 1.389 . S
C2589 H2568 0.950 . S
C2589 C2588 1.373 . S
C2589 C2605 1.377 . S
C2590 C2588 1.389 . S
C2590 C2591 1.524 . S
C2590 C2604 1.377 . S
C2591 C2590 1.524 . S
C2591 C2592 1.397 . S
C2591 C2596 1.363 . S
C2592 H2569 0.950 . S
C2592 C2591 1.397 . S
C2592 C2593 1.334 . S
C2593 H2570 0.950 . S
C2593 C2592 1.334 . S
C2593 C2594 1.287 . S
C2594 C2593 1.287 . S
C2594 C2595 1.524 . S
C2594 H2613 0.913 . S
C2595 H2571 0.950 . S
C2595 C2594 1.524 . S
C2595 C2596 1.415 . S
C2596 H2572 0.950 . S
C2596 C2591 1.363 . S
C2596 C2595 1.415 . S
C2597 H2573 0.951 . S
C2597 C2598 1.366 . S
C2597 C2599 1.388 . S
C2598 C2597 1.366 . S
C2598 C2602 1.385 . S
C2599 H2574 0.951 . S
C2599 C2597 1.388 . S
C2599 C2600 1.366 . S
C2600 C2599 1.366 . S
C2600 C2601 1.414 . S
C2600 C2603 1.499 . S
C2601 H2575 0.950 . S
C2601 C2600 1.414 . S
C2601 C2602 1.374 . S
C2602 H2576 0.950 . S
C2602 C2598 1.385 . S
C2602 C2601 1.374 . S
C2603 C2600 1.499 . S
C2603 C2604 1.373 . S
C2603 C2605 1.389 . S
C2604 H2577 0.950 . S
C2604 C2590 1.377 . S
C2604 C2603 1.373 . S
C2605 C2589 1.377 . S
C2605 C2603 1.389 . S
C2605 C2606 1.524 . S
C2606 C2605 1.524 . S
C2606 C2607 1.397 . S
C2606 C2611 1.363 . S
C2607 H2578 0.950 . S
C2607 C2606 1.397 . S
C2607 C2608 1.334 . S
C2608 H2579 0.950 . S
C2608 C2607 1.334 . S
C2608 C2609 1.287 . S
C2609 C2608 1.287 . S
C2609 C2610 1.524 . S
C2609 H2612 0.999 . S
C2610 H2580 0.950 . S
C2610 C2609 1.524 . S
C2610 C2611 1.415 . S
C2611 H2581 0.950 . S
C2611 C2606 1.363 . S
C2611 C2610 1.415 . S
H2612 C2609 0.999 . S
H2613 C2594 0.913 . S
H2614 C2632 0.951 . S
H2615 C2634 0.951 . S
H2616 C2636 0.977 . S
H2617 C2637 0.950 . S
H2618 C2639 0.950 . S
H2619 C2642 0.950 . S
H2620 C2643 0.950 . S
H2621 C2645 0.950 . S
H2622 C2646 0.950 . S
H2623 C2647 0.951 . S
H2624 C2649 0.951 . S
H2625 C2651 0.950 1_556 S
H2626 C2652 0.950 . S
H2627 C2654 0.950 . S
H2628 C2657 0.950 . S
H2629 C2658 0.950 . S
H2630 C2660 0.950 . S
H2631 C2661 0.950 . S
C2632 H2614 0.951 . S
C2632 C2633 1.366 . S
C2632 C2634 1.388 . S
C2633 C2632 1.366 . S
C2633 C2637 1.385 . S
C2634 H2615 0.951 . S
C2634 C2632 1.388 . S
C2634 C2635 1.366 . S
C2635 C2634 1.366 . S
C2635 C2636 1.414 . S
C2635 C2638 1.499 . S
C2636 H2616 0.977 . S
C2636 C2635 1.414 . S
C2636 C2637 1.374 . S
C2637 H2617 0.950 . S
C2637 C2633 1.385 . S
C2637 C2636 1.374 . S
C2638 C2635 1.499 . S
C2638 C2639 1.373 1_455 S
C2638 C2640 1.389 . S
C2639 H2618 0.950 . S
C2639 C2638 1.373 1_655 S
C2639 C2655 1.377 . S
C2640 C2638 1.389 . S
C2640 C2641 1.524 . S
C2640 C2654 1.377 1_455 S
C2641 C2640 1.524 . S
C2641 C2642 1.397 . S
C2641 C2646 1.363 . S
C2642 H2619 0.950 . S
C2642 C2641 1.397 . S
C2642 C2643 1.334 . S
C2643 H2620 0.950 . S
C2643 C2642 1.334 . S
C2643 C2644 1.287 . S
C2644 C2643 1.287 . S
C2644 C2645 1.524 . S
C2644 H2663 0.913 . S
C2645 H2621 0.950 . S
C2645 C2644 1.524 . S
C2645 C2646 1.415 . S
C2646 H2622 0.950 . S
C2646 C2641 1.363 . S
C2646 C2645 1.415 . S
C2647 H2623 0.951 . S
C2647 C2648 1.366 1_554 S
C2647 C2649 1.388 . S
C2648 C2647 1.366 1_556 S
C2648 C2652 1.385 . S
C2649 H2624 0.951 . S
C2649 C2647 1.388 . S
C2649 C2650 1.366 . S
C2650 C2649 1.366 . S
C2650 C2651 1.414 . S
C2650 C2653 1.499 . S
C2651 H2625 0.950 1_554 S
C2651 C2650 1.414 . S
C2651 C2652 1.374 1_554 S
C2652 H2626 0.950 . S
C2652 C2648 1.385 . S
C2652 C2651 1.374 1_556 S
C2653 C2650 1.499 . S
C2653 C2654 1.373 . S
C2653 C2655 1.389 . S
C2654 H2627 0.950 . S
C2654 C2640 1.377 1_655 S
C2654 C2653 1.373 . S
C2655 C2639 1.377 . S
C2655 C2653 1.389 . S
C2655 C2656 1.524 . S
C2656 C2655 1.524 . S
C2656 C2657 1.397 . S
C2656 C2661 1.363 . S
C2657 H2628 0.950 . S
C2657 C2656 1.397 . S
C2657 C2658 1.334 . S
C2658 H2629 0.950 . S
C2658 C2657 1.334 . S
C2658 C2659 1.287 . S
C2659 C2658 1.287 . S
C2659 C2660 1.524 . S
C2659 H2662 0.999 . S
C2660 H2630 0.950 . S
C2660 C2659 1.524 . S
C2660 C2661 1.415 . S
C2661 H2631 0.950 . S
C2661 C2656 1.363 . S
C2661 C2660 1.415 . S
H2662 C2659 0.999 . S
H2663 C2644 0.913 . S
H2664 C2682 0.951 . S
H2665 C2684 0.951 . S
H2666 C2686 0.950 . S
H2667 C2687 0.950 . S
H2668 C2689 0.950 . S
H2669 C2692 0.950 . S
H2670 C2693 0.950 . S
H2671 C2695 0.950 . S
H2672 C2696 0.950 . S
H2673 C2697 0.951 . S
H2674 C2699 0.951 . S
H2675 C2701 0.950 . S
H2676 C2702 0.950 . S
H2677 C2704 0.950 . S
H2678 C2707 0.950 . S
H2679 C2708 0.950 . S
H2680 C2710 0.950 . S
H2681 C2711 0.950 . S
C2682 H2664 0.951 . S
C2682 C2683 1.366 . S
C2682 C2684 1.388 . S
C2683 C2682 1.366 . S
C2683 C2687 1.385 . S
C2684 H2665 0.951 . S
C2684 C2682 1.388 . S
C2684 C2685 1.366 . S
C2685 C2684 1.366 . S
C2685 C2686 1.414 . S
C2685 C2688 1.499 . S
C2686 H2666 0.950 . S
C2686 C2685 1.414 . S
C2686 C2687 1.374 . S
C2687 H2667 0.950 . S
C2687 C2683 1.385 . S
C2687 C2686 1.374 . S
C2688 C2685 1.499 . S
C2688 C2689 1.373 . S
C2688 C2690 1.389 . S
C2689 H2668 0.950 . S
C2689 C2688 1.373 . S
C2689 C2705 1.377 . S
C2690 C2688 1.389 . S
C2690 C2691 1.524 . S
C2690 C2704 1.377 . S
C2691 C2690 1.524 . S
C2691 C2692 1.397 . S
C2691 C2696 1.363 . S
C2692 H2669 0.950 . S
C2692 C2691 1.397 . S
C2692 C2693 1.334 . S
C2693 H2670 0.950 . S
C2693 C2692 1.334 . S
C2693 C2694 1.287 . S
C2694 C2693 1.287 . S
C2694 C2695 1.524 . S
C2694 H2713 0.913 . S
C2695 H2671 0.950 . S
C2695 C2694 1.524 . S
C2695 C2696 1.415 . S
C2696 H2672 0.950 . S
C2696 C2691 1.363 . S
C2696 C2695 1.415 . S
C2697 H2673 0.951 . S
C2697 C2698 1.366 . S
C2697 C2699 1.388 . S
C2698 C2697 1.366 . S
C2698 C2702 1.385 . S
C2699 H2674 0.951 . S
C2699 C2697 1.388 . S
C2699 C2700 1.366 . S
C2700 C2699 1.366 . S
C2700 C2701 1.414 . S
C2700 C2703 1.499 . S
C2701 H2675 0.950 . S
C2701 C2700 1.414 . S
C2701 C2702 1.374 . S
C2702 H2676 0.950 . S
C2702 C2698 1.385 . S
C2702 C2701 1.374 . S
C2703 C2700 1.499 . S
C2703 C2704 1.373 . S
C2703 C2705 1.389 . S
C2704 H2677 0.950 . S
C2704 C2690 1.377 . S
C2704 C2703 1.373 . S
C2705 C2689 1.377 . S
C2705 C2703 1.389 . S
C2705 C2706 1.524 . S
C2706 C2705 1.524 . S
C2706 C2707 1.397 . S
C2706 C2711 1.363 . S
C2707 H2678 0.950 . S
C2707 C2706 1.397 . S
C2707 C2708 1.334 . S
C2708 H2679 0.950 . S
C2708 C2707 1.334 . S
C2708 C2709 1.287 . S
C2709 C2708 1.287 . S
C2709 C2710 1.524 . S
C2709 H2712 0.999 . S
C2710 H2680 0.950 . S
C2710 C2709 1.524 . S
C2710 C2711 1.415 . S
C2711 H2681 0.950 . S
C2711 C2706 1.363 . S
C2711 C2710 1.415 . S
H2712 C2709 0.999 . S
H2713 C2694 0.913 . S
H2714 C2732 0.951 . S
H2715 C2734 0.951 . S
H2716 C2736 0.950 . S
H2717 C2737 0.950 . S
H2718 C2739 0.950 . S
H2719 C2742 0.950 . S
H2720 C2743 0.950 1_655 S
H2721 C2745 0.950 . S
H2722 C2746 0.950 . S
H2723 C2747 0.951 . S
H2724 C2749 0.951 . S
H2725 C2751 0.950 . S
H2726 C2752 0.950 . S
H2727 C2754 0.950 . S
H2728 C2757 0.950 . S
H2729 C2758 0.998 . S
H2730 C2760 0.950 . S
H2731 C2761 0.950 . S
C2732 H2714 0.951 . S
C2732 C2733 1.366 . S
C2732 C2734 1.388 . S
C2733 C2732 1.366 . S
C2733 C2737 1.385 . S
C2734 H2715 0.951 . S
C2734 C2732 1.388 . S
C2734 C2735 1.366 . S
C2735 C2734 1.366 . S
C2735 C2736 1.414 . S
C2735 C2738 1.499 . S
C2736 H2716 0.950 . S
C2736 C2735 1.414 . S
C2736 C2737 1.374 . S
C2737 H2717 0.950 . S
C2737 C2733 1.385 . S
C2737 C2736 1.374 . S
C2738 C2735 1.499 . S
C2738 C2739 1.373 . S
C2738 C2740 1.389 1_655 S
C2739 H2718 0.950 . S
C2739 C2738 1.373 . S
C2739 C2755 1.377 . S
C2740 C2738 1.389 1_455 S
C2740 C2741 1.524 . S
C2740 C2754 1.377 . S
C2741 C2740 1.524 . S
C2741 C2742 1.397 1_455 S
C2741 C2746 1.363 . S
C2742 H2719 0.950 . S
C2742 C2741 1.397 1_655 S
C2742 C2743 1.334 1_655 S
C2743 H2720 0.950 1_455 S
C2743 C2742 1.334 1_455 S
C2743 C2744 1.287 . S
C2744 C2743 1.287 . S
C2744 C2745 1.524 . S
C2744 H2763 0.913 . S
C2745 H2721 0.950 . S
C2745 C2744 1.524 . S
C2745 C2746 1.415 . S
C2746 H2722 0.950 . S
C2746 C2741 1.363 . S
C2746 C2745 1.415 . S
C2747 H2723 0.951 . S
C2747 C2748 1.366 . S
C2747 C2749 1.388 . S
C2748 C2747 1.366 . S
C2748 C2752 1.385 . S
C2749 H2724 0.951 . S
C2749 C2747 1.388 . S
C2749 C2750 1.366 . S
C2750 C2749 1.366 . S
C2750 C2751 1.414 . S
C2750 C2753 1.499 . S
C2751 H2725 0.950 . S
C2751 C2750 1.414 . S
C2751 C2752 1.374 . S
C2752 H2726 0.950 . S
C2752 C2748 1.385 . S
C2752 C2751 1.374 . S
C2753 C2750 1.499 . S
C2753 C2754 1.373 . S
C2753 C2755 1.389 1_455 S
C2754 H2727 0.950 . S
C2754 C2740 1.377 . S
C2754 C2753 1.373 . S
C2755 C2739 1.377 . S
C2755 C2753 1.389 1_655 S
C2755 C2756 1.524 . S
C2756 C2755 1.524 . S
C2756 C2757 1.397 1_655 S
C2756 C2761 1.363 . S
C2757 H2728 0.950 . S
C2757 C2756 1.397 1_455 S
C2757 C2758 1.345 . S
C2758 H2729 0.998 . S
C2758 C2757 1.345 . S
C2758 C2759 1.229 1_455 S
C2759 C2758 1.229 1_655 S
C2759 C2760 1.524 . S
C2759 H2762 0.999 . S
C2760 H2730 0.950 . S
C2760 C2759 1.524 . S
C2760 C2761 1.415 . S
C2761 H2731 0.950 . S
C2761 C2756 1.363 . S
C2761 C2760 1.415 . S
H2762 C2759 0.999 . S
H2763 C2744 0.913 . S
H2764 C2782 0.951 . S
H2765 C2784 0.951 . S
H2766 C2786 0.950 . S
H2767 C2787 0.950 . S
H2768 C2789 0.950 . S
H2769 C2792 0.950 . S
H2770 C2793 0.950 . S
H2771 C2795 0.950 . S
H2772 C2796 0.950 . S
H2773 C2797 0.951 . S
H2774 C2799 0.951 . S
H2775 C2801 0.950 . S
H2776 C2802 0.950 . S
H2777 C2804 0.950 . S
H2778 C2807 0.950 . S
H2779 C2808 0.950 . S
H2780 C2810 0.950 . S
H2781 C2811 0.950 . S
C2782 H2764 0.951 . S
C2782 C2783 1.366 . S
C2782 C2784 1.388 . S
C2783 C2782 1.366 . S
C2783 C2787 1.385 . S
C2784 H2765 0.951 . S
C2784 C2782 1.388 . S
C2784 C2785 1.366 . S
C2785 C2784 1.366 . S
C2785 C2786 1.414 . S
C2785 C2788 1.499 . S
C2786 H2766 0.950 . S
C2786 C2785 1.414 . S
C2786 C2787 1.374 . S
C2787 H2767 0.950 . S
C2787 C2783 1.385 . S
C2787 C2786 1.374 . S
C2788 C2785 1.499 . S
C2788 C2789 1.373 . S
C2788 C2790 1.389 . S
C2789 H2768 0.950 . S
C2789 C2788 1.373 . S
C2789 C2805 1.377 . S
C2790 C2788 1.389 . S
C2790 C2791 1.524 . S
C2790 C2804 1.377 . S
C2791 C2790 1.524 . S
C2791 C2792 1.397 . S
C2791 C2796 1.363 . S
C2792 H2769 0.950 . S
C2792 C2791 1.397 . S
C2792 C2793 1.334 . S
C2793 H2770 0.950 . S
C2793 C2792 1.334 . S
C2793 C2794 1.287 . S
C2794 C2793 1.287 . S
C2794 C2795 1.524 . S
C2794 H2813 0.913 . S
C2795 H2771 0.950 . S
C2795 C2794 1.524 . S
C2795 C2796 1.415 . S
C2796 H2772 0.950 . S
C2796 C2791 1.363 . S
C2796 C2795 1.415 . S
C2797 H2773 0.951 . S
C2797 C2798 1.366 . S
C2797 C2799 1.388 . S
C2798 C2797 1.366 . S
C2798 C2802 1.385 . S
C2799 H2774 0.951 . S
C2799 C2797 1.388 . S
C2799 C2800 1.366 . S
C2800 C2799 1.366 . S
C2800 C2801 1.414 . S
C2800 C2803 1.499 . S
C2801 H2775 0.950 . S
C2801 C2800 1.414 . S
C2801 C2802 1.374 . S
C2802 H2776 0.950 . S
C2802 C2798 1.385 . S
C2802 C2801 1.374 . S
C2803 C2800 1.499 . S
C2803 C2804 1.373 . S
C2803 C2805 1.389 . S
C2804 H2777 0.950 . S
C2804 C2790 1.377 . S
C2804 C2803 1.373 . S
C2805 C2789 1.377 . S
C2805 C2803 1.389 . S
C2805 C2806 1.524 . S
C2806 C2805 1.524 . S
C2806 C2807 1.397 . S
C2806 C2811 1.363 . S
C2807 H2778 0.950 . S
C2807 C2806 1.397 . S
C2807 C2808 1.334 . S
C2808 H2779 0.950 . S
C2808 C2807 1.334 . S
C2808 C2809 1.287 . S
C2809 C2808 1.287 . S
C2809 C2810 1.524 . S
C2809 H2812 0.999 . S
C2810 H2780 0.950 . S
C2810 C2809 1.524 . S
C2810 C2811 1.415 . S
C2811 H2781 0.950 . S
C2811 C2806 1.363 . S
C2811 C2810 1.415 . S
H2812 C2809 0.999 . S
H2813 C2794 0.913 . S
H2814 C2832 0.951 . S
H2815 C2834 0.951 . S
H2816 C2836 0.950 . S
H2817 C2837 0.950 . S
H2818 C2839 0.950 . S
H2819 C2842 0.950 . S
H2820 C2843 0.950 . S
H2821 C2845 0.950 . S
H2822 C2846 0.950 . S
H2823 C2847 0.951 . S
H2824 C2849 0.951 . S
H2825 C2851 0.950 . S
H2826 C2852 0.950 . S
H2827 C2854 0.950 . S
H2828 C2857 0.950 . S
H2829 C2858 0.950 . S
H2830 C2860 0.950 . S
H2831 C2861 0.950 . S
C2832 H2814 0.951 . S
C2832 C2833 1.366 1_556 S
C2832 C2834 1.388 . S
C2833 C2832 1.366 1_554 S
C2833 C2837 1.385 . S
C2834 H2815 0.951 . S
C2834 C2832 1.388 . S
C2834 C2835 1.366 . S
C2835 C2834 1.366 . S
C2835 C2836 1.414 . S
C2835 C2838 1.499 . S
C2836 H2816 0.950 . S
C2836 C2835 1.414 . S
C2836 C2837 1.374 1_556 S
C2837 H2817 0.950 . S
C2837 C2833 1.385 . S
C2837 C2836 1.374 1_554 S
C2838 C2835 1.499 . S
C2838 C2839 1.373 . S
C2838 C2840 1.389 . S
C2839 H2818 0.950 . S
C2839 C2838 1.373 . S
C2839 C2855 1.377 . S
C2840 C2838 1.389 . S
C2840 C2841 1.524 . S
C2840 C2854 1.377 . S
C2841 C2840 1.524 . S
C2841 C2842 1.397 . S
C2841 C2846 1.363 . S
C2842 H2819 0.950 . S
C2842 C2841 1.397 . S
C2842 C2843 1.334 . S
C2843 H2820 0.950 . S
C2843 C2842 1.334 . S
C2843 C2844 1.287 . S
C2844 C2843 1.287 . S
C2844 C2845 1.524 . S
C2844 H2863 0.913 . S
C2845 H2821 0.950 . S
C2845 C2844 1.524 . S
C2845 C2846 1.415 . S
C2846 H2822 0.950 . S
C2846 C2841 1.363 . S
C2846 C2845 1.415 . S
C2847 H2823 0.951 . S
C2847 C2848 1.366 . S
C2847 C2849 1.388 . S
C2848 C2847 1.366 . S
C2848 C2852 1.385 . S
C2849 H2824 0.951 . S
C2849 C2847 1.388 . S
C2849 C2850 1.366 . S
C2850 C2849 1.366 . S
C2850 C2851 1.414 . S
C2850 C2853 1.499 . S
C2851 H2825 0.950 . S
C2851 C2850 1.414 . S
C2851 C2852 1.374 . S
C2852 H2826 0.950 . S
C2852 C2848 1.385 . S
C2852 C2851 1.374 . S
C2853 C2850 1.499 . S
C2853 C2854 1.373 . S
C2853 C2855 1.389 . S
C2854 H2827 0.950 . S
C2854 C2840 1.377 . S
C2854 C2853 1.373 . S
C2855 C2839 1.377 . S
C2855 C2853 1.389 . S
C2855 C2856 1.524 . S
C2856 C2855 1.524 . S
C2856 C2857 1.397 . S
C2856 C2861 1.363 . S
C2857 H2828 0.950 . S
C2857 C2856 1.397 . S
C2857 C2858 1.334 . S
C2858 H2829 0.950 . S
C2858 C2857 1.334 . S
C2858 C2859 1.287 . S
C2859 C2858 1.287 . S
C2859 C2860 1.524 . S
C2859 H2862 0.999 . S
C2860 H2830 0.950 . S
C2860 C2859 1.524 . S
C2860 C2861 1.415 . S
C2861 H2831 0.950 . S
C2861 C2856 1.363 . S
C2861 C2860 1.415 . S
H2862 C2859 0.999 . S
H2863 C2844 0.913 . S
H2864 C2882 0.951 . S
H2865 C2884 0.951 . S
H2866 C2886 0.950 . S
H2867 C2887 0.950 . S
H2868 C2889 0.950 . S
H2869 C2892 0.950 . S
H2870 C2893 0.950 . S
H2871 C2895 0.950 . S
H2872 C2896 0.950 . S
H2873 C2897 0.951 . S
H2874 C2899 0.951 . S
H2875 C2901 0.950 . S
H2876 C2902 0.950 . S
H2877 C2904 0.950 . S
H2878 C2907 0.950 . S
H2879 C2908 0.950 . S
H2880 C2910 0.950 . S
H2881 C2911 0.950 . S
C2882 H2864 0.951 . S
C2882 C2883 1.366 . S
C2882 C2884 1.388 . S
C2883 C2882 1.366 . S
C2883 C2887 1.385 . S
C2884 H2865 0.951 . S
C2884 C2882 1.388 . S
C2884 C2885 1.366 . S
C2885 C2884 1.366 . S
C2885 C2886 1.414 . S
C2885 C2888 1.499 . S
C2886 H2866 0.950 . S
C2886 C2885 1.414 . S
C2886 C2887 1.374 . S
C2887 H2867 0.950 . S
C2887 C2883 1.385 . S
C2887 C2886 1.374 . S
C2888 C2885 1.499 . S
C2888 C2889 1.373 . S
C2888 C2890 1.389 . S
C2889 H2868 0.950 . S
C2889 C2888 1.373 . S
C2889 C2905 1.377 . S
C2890 C2888 1.389 . S
C2890 C2891 1.524 . S
C2890 C2904 1.377 . S
C2891 C2890 1.524 . S
C2891 C2892 1.397 . S
C2891 C2896 1.363 . S
C2892 H2869 0.950 . S
C2892 C2891 1.397 . S
C2892 C2893 1.334 . S
C2893 H2870 0.950 . S
C2893 C2892 1.334 . S
C2893 C2894 1.287 . S
C2894 C2893 1.287 . S
C2894 C2895 1.524 . S
C2894 H2913 0.913 . S
C2895 H2871 0.950 . S
C2895 C2894 1.524 . S
C2895 C2896 1.415 . S
C2896 H2872 0.950 . S
C2896 C2891 1.363 . S
C2896 C2895 1.415 . S
C2897 H2873 0.951 . S
C2897 C2898 1.366 . S
C2897 C2899 1.388 . S
C2898 C2897 1.366 . S
C2898 C2902 1.385 . S
C2899 H2874 0.951 . S
C2899 C2897 1.388 . S
C2899 C2900 1.366 . S
C2900 C2899 1.366 . S
C2900 C2901 1.414 . S
C2900 C2903 1.499 . S
C2901 H2875 0.950 . S
C2901 C2900 1.414 . S
C2901 C2902 1.374 . S
C2902 H2876 0.950 . S
C2902 C2898 1.385 . S
C2902 C2901 1.374 . S
C2903 C2900 1.499 . S
C2903 C2904 1.373 . S
C2903 C2905 1.389 . S
C2904 H2877 0.950 . S
C2904 C2890 1.377 . S
C2904 C2903 1.373 . S
C2905 C2889 1.377 . S
C2905 C2903 1.389 . S
C2905 C2906 1.524 . S
C2906 C2905 1.524 . S
C2906 C2907 1.397 . S
C2906 C2911 1.363 . S
C2907 H2878 0.950 . S
C2907 C2906 1.397 . S
C2907 C2908 1.334 . S
C2908 H2879 0.950 . S
C2908 C2907 1.334 . S
C2908 C2909 1.287 . S
C2909 C2908 1.287 . S
C2909 C2910 1.524 . S
C2909 H2912 0.999 . S
C2910 H2880 0.950 . S
C2910 C2909 1.524 . S
C2910 C2911 1.415 . S
C2911 H2881 0.950 . S
C2911 C2906 1.363 . S
C2911 C2910 1.415 . S
H2912 C2909 0.999 . S
H2913 C2894 0.913 . S
H2914 C2932 0.951 . S
H2915 C2934 0.951 . S
H2916 C2936 0.950 . S
H2917 C2937 0.950 . S
H2918 C2939 0.950 . S
H2919 C2942 0.950 . S
H2920 C2943 0.950 . S
H2921 C2945 0.950 . S
H2922 C2946 0.950 . S
H2923 C2947 0.951 . S
H2924 C2949 0.951 . S
H2925 C2951 0.950 . S
H2926 C2952 0.950 . S
H2927 C2954 0.950 . S
H2928 C2957 0.950 . S
H2929 C2958 0.950 . S
H2930 C2960 0.950 . S
H2931 C2961 0.950 . S
C2932 H2914 0.951 . S
C2932 C2933 1.366 . S
C2932 C2934 1.388 . S
C2933 C2932 1.366 . S
C2933 C2937 1.385 . S
C2934 H2915 0.951 . S
C2934 C2932 1.388 . S
C2934 C2935 1.366 . S
C2935 C2934 1.366 . S
C2935 C2936 1.414 . S
C2935 C2938 1.499 . S
C2936 H2916 0.950 . S
C2936 C2935 1.414 . S
C2936 C2937 1.374 . S
C2937 H2917 0.950 . S
C2937 C2933 1.385 . S
C2937 C2936 1.374 . S
C2938 C2935 1.499 . S
C2938 C2939 1.373 . S
C2938 C2940 1.389 . S
C2939 H2918 0.950 . S
C2939 C2938 1.373 . S
C2939 C2955 1.377 . S
C2940 C2938 1.389 . S
C2940 C2941 1.524 . S
C2940 C2954 1.377 . S
C2941 C2940 1.524 . S
C2941 C2942 1.397 . S
C2941 C2946 1.363 . S
C2942 H2919 0.950 . S
C2942 C2941 1.397 . S
C2942 C2943 1.334 . S
C2943 H2920 0.950 . S
C2943 C2942 1.334 . S
C2943 C2944 1.287 . S
C2944 C2943 1.287 . S
C2944 C2945 1.524 . S
C2944 H2963 0.913 . S
C2945 H2921 0.950 . S
C2945 C2944 1.524 . S
C2945 C2946 1.415 . S
C2946 H2922 0.950 . S
C2946 C2941 1.363 . S
C2946 C2945 1.415 . S
C2947 H2923 0.951 . S
C2947 C2948 1.366 . S
C2947 C2949 1.388 . S
C2948 C2947 1.366 . S
C2948 C2952 1.385 . S
C2949 H2924 0.951 . S
C2949 C2947 1.388 . S
C2949 C2950 1.366 . S
C2950 C2949 1.366 . S
C2950 C2951 1.414 . S
C2950 C2953 1.499 . S
C2951 H2925 0.950 . S
C2951 C2950 1.414 . S
C2951 C2952 1.374 . S
C2952 H2926 0.950 . S
C2952 C2948 1.385 . S
C2952 C2951 1.374 . S
C2953 C2950 1.499 . S
C2953 C2954 1.373 . S
C2953 C2955 1.389 . S
C2954 H2927 0.950 . S
C2954 C2940 1.377 . S
C2954 C2953 1.373 . S
C2955 C2939 1.377 . S
C2955 C2953 1.389 . S
C2955 C2956 1.524 . S
C2956 C2955 1.524 . S
C2956 C2957 1.397 . S
C2956 C2961 1.363 . S
C2957 H2928 0.950 . S
C2957 C2956 1.397 . S
C2957 C2958 1.334 . S
C2958 H2929 0.950 . S
C2958 C2957 1.334 . S
C2958 C2959 1.287 . S
C2959 C2958 1.287 . S
C2959 C2960 1.524 . S
C2959 H2962 0.999 . S
C2960 H2930 0.950 . S
C2960 C2959 1.524 . S
C2960 C2961 1.415 . S
C2961 H2931 0.950 . S
C2961 C2956 1.363 . S
C2961 C2960 1.415 . S
H2962 C2959 0.999 . S
H2963 C2944 0.913 . S
H2964 C2982 0.951 . S
H2965 C2984 0.951 . S
H2966 C2986 0.950 . S
H2967 C2987 0.950 . S
H2968 C2989 0.950 . S
H2969 C2992 0.950 . S
H2970 C2993 0.950 . S
H2971 C2995 0.950 . S
H2972 C2996 0.950 . S
H2973 C2997 0.951 . S
H2974 C2999 0.951 . S
H2975 C3001 0.950 . S
H2976 C3002 0.950 . S
H2977 C3004 0.950 . S
H2978 C3007 0.950 . S
H2979 C3008 0.950 . S
H2980 C3010 0.950 . S
H2981 C3011 0.950 . S
C2982 H2964 0.951 . S
C2982 C2983 1.366 . S
C2982 C2984 1.388 . S
C2983 C2982 1.366 . S
C2983 C2987 1.385 . S
C2984 H2965 0.951 . S
C2984 C2982 1.388 . S
C2984 C2985 1.366 . S
C2985 C2984 1.366 . S
C2985 C2986 1.414 . S
C2985 C2988 1.499 . S
C2986 H2966 0.950 . S
C2986 C2985 1.414 . S
C2986 C2987 1.374 . S
C2987 H2967 0.950 . S
C2987 C2983 1.385 . S
C2987 C2986 1.374 . S
C2988 C2985 1.499 . S
C2988 C2989 1.373 . S
C2988 C2990 1.389 . S
C2989 H2968 0.950 . S
C2989 C2988 1.373 . S
C2989 C3005 1.377 . S
C2990 C2988 1.389 . S
C2990 C2991 1.524 . S
C2990 C3004 1.377 . S
C2991 C2990 1.524 . S
C2991 C2992 1.397 . S
C2991 C2996 1.363 . S
C2992 H2969 0.950 . S
C2992 C2991 1.397 . S
C2992 C2993 1.334 . S
C2993 H2970 0.950 . S
C2993 C2992 1.334 . S
C2993 C2994 1.287 . S
C2994 C2993 1.287 . S
C2994 C2995 1.524 . S
C2994 H3013 0.913 . S
C2995 H2971 0.950 . S
C2995 C2994 1.524 . S
C2995 C2996 1.415 . S
C2996 H2972 0.950 . S
C2996 C2991 1.363 . S
C2996 C2995 1.415 . S
C2997 H2973 0.951 . S
C2997 C2998 1.366 . S
C2997 C2999 1.388 . S
C2998 C2997 1.366 . S
C2998 C3002 1.385 . S
C2999 H2974 0.951 . S
C2999 C2997 1.388 . S
C2999 C3000 1.366 . S
C3000 C2999 1.366 . S
C3000 C3001 1.414 . S
C3000 C3003 1.499 . S
C3001 H2975 0.950 . S
C3001 C3000 1.414 . S
C3001 C3002 1.374 . S
C3002 H2976 0.950 . S
C3002 C2998 1.385 . S
C3002 C3001 1.374 . S
C3003 C3000 1.499 . S
C3003 C3004 1.373 . S
C3003 C3005 1.389 . S
C3004 H2977 0.950 . S
C3004 C2990 1.377 . S
C3004 C3003 1.373 . S
C3005 C2989 1.377 . S
C3005 C3003 1.389 . S
C3005 C3006 1.524 . S
C3006 C3005 1.524 . S
C3006 C3007 1.397 . S
C3006 C3011 1.363 . S
C3007 H2978 0.950 . S
C3007 C3006 1.397 . S
C3007 C3008 1.334 . S
C3008 H2979 0.950 . S
C3008 C3007 1.334 . S
C3008 C3009 1.287 . S
C3009 C3008 1.287 . S
C3009 C3010 1.524 . S
C3009 H3012 0.999 . S
C3010 H2980 0.950 . S
C3010 C3009 1.524 . S
C3010 C3011 1.415 . S
C3011 H2981 0.950 . S
C3011 C3006 1.363 . S
C3011 C3010 1.415 . S
H3012 C3009 0.999 . S
H3013 C2994 0.913 . S
H3014 C3032 0.951 . S
H3015 C3034 0.951 . S
H3016 C3036 0.950 . S
H3017 C3037 0.950 . S
H3018 C3039 0.950 . S
H3019 C3042 0.950 . S
H3020 C3043 0.950 . S
H3021 C3045 0.950 . S
H3022 C3046 0.950 . S
H3023 C3047 0.951 . S
H3024 C3049 0.951 . S
H3025 C3051 0.950 1_455 S
H3026 C3052 0.950 . S
H3027 C3054 0.950 . S
H3028 C3057 0.950 . S
H3029 C3058 0.950 . S
H3030 C3060 0.950 . S
H3031 C3061 0.950 . S
C3032 H3014 0.951 . S
C3032 C3033 1.344 1_556 S
C3032 C3034 1.388 . S
C3033 C3032 1.344 1_554 S
C3033 C3037 1.390 . S
C3034 H3015 0.951 . S
C3034 C3032 1.388 . S
C3034 C3035 1.366 . S
C3035 C3034 1.366 . S
C3035 C3036 1.414 . S
C3035 C3038 1.499 . S
C3036 H3016 0.950 . S
C3036 C3035 1.414 . S
C3036 C3037 1.374 1_556 S
C3037 H3017 0.950 . S
C3037 C3033 1.390 . S
C3037 C3036 1.374 1_554 S
C3038 C3035 1.499 . S
C3038 C3039 1.373 . S
C3038 C3040 1.389 . S
C3039 H3018 0.950 . S
C3039 C3038 1.373 . S
C3039 C3055 1.377 . S
C3040 C3038 1.389 . S
C3040 C3041 1.524 . S
C3040 C3054 1.377 . S
C3041 C3040 1.524 . S
C3041 C3042 1.397 . S
C3041 C3046 1.363 . S
C3042 H3019 0.950 . S
C3042 C3041 1.397 . S
C3042 C3043 1.334 . S
C3043 H3020 0.950 . S
C3043 C3042 1.334 . S
C3043 C3044 1.287 . S
C3044 C3043 1.287 . S
C3044 C3045 1.524 . S
C3044 H3063 0.913 . S
C3045 H3021 0.950 . S
C3045 C3044 1.524 . S
C3045 C3046 1.415 . S
C3046 H3022 0.950 . S
C3046 C3041 1.363 . S
C3046 C3045 1.415 . S
C3047 H3023 0.951 . S
C3047 C3048 1.366 . S
C3047 C3049 1.388 . S
C3048 C3047 1.366 . S
C3048 C3052 1.385 . S
C3049 H3024 0.951 . S
C3049 C3047 1.388 . S
C3049 C3050 1.366 . S
C3050 C3049 1.366 . S
C3050 C3051 1.414 . S
C3050 C3053 1.499 1_655 S
C3051 H3025 0.950 1_655 S
C3051 C3050 1.414 . S
C3051 C3052 1.374 . S
C3052 H3026 0.950 . S
C3052 C3048 1.385 . S
C3052 C3051 1.374 . S
C3053 C3050 1.499 1_455 S
C3053 C3054 1.373 . S
C3053 C3055 1.389 . S
C3054 H3027 0.950 . S
C3054 C3040 1.377 . S
C3054 C3053 1.373 . S
C3055 C3039 1.377 . S
C3055 C3053 1.389 . S
C3055 C3056 1.524 1_455 S
C3056 C3055 1.524 1_655 S
C3056 C3057 1.397 . S
C3056 C3061 1.363 . S
C3057 H3028 0.950 . S
C3057 C3056 1.397 . S
C3057 C3058 1.334 . S
C3058 H3029 0.950 . S
C3058 C3057 1.334 . S
C3058 C3059 1.287 . S
C3059 C3058 1.287 . S
C3059 C3060 1.524 . S
C3059 H3062 0.999 . S
C3060 H3030 0.950 . S
C3060 C3059 1.524 . S
C3060 C3061 1.415 . S
C3061 H3031 0.950 . S
C3061 C3056 1.363 . S
C3061 C3060 1.415 . S
H3062 C3059 0.999 . S
H3063 C3044 0.913 . S
H3064 C3082 0.951 . S
H3065 C3084 0.951 . S
H3066 C3086 0.950 . S
H3067 C3087 0.950 . S
H3068 C3089 0.950 . S
H3069 C3092 0.950 . S
H3070 C3093 0.950 . S
H3071 C3095 0.950 . S
H3072 C3096 0.950 . S
H3073 C3097 0.941 1_554 S
H3074 C3099 0.951 . S
H3075 C3101 0.950 . S
H3076 C3102 0.950 . S
H3077 C3104 0.950 . S
H3078 C3107 0.950 . S
H3079 C3108 0.950 . S
H3080 C3110 0.950 . S
H3081 C3111 0.950 . S
C3082 H3064 0.951 . S
C3082 C3083 1.366 . S
C3082 C3084 1.388 . S
C3083 C3082 1.366 . S
C3083 C3087 1.385 . S
C3084 H3065 0.951 . S
C3084 C3082 1.388 . S
C3084 C3085 1.366 . S
C3085 C3084 1.366 . S
C3085 C3086 1.414 . S
C3085 C3088 1.499 . S
C3086 H3066 0.950 . S
C3086 C3085 1.414 . S
C3086 C3087 1.374 . S
C3087 H3067 0.950 . S
C3087 C3083 1.385 . S
C3087 C3086 1.374 . S
C3088 C3085 1.499 . S
C3088 C3089 1.373 . S
C3088 C3090 1.389 . S
C3089 H3068 0.950 . S
C3089 C3088 1.373 . S
C3089 C3105 1.377 . S
C3090 C3088 1.389 . S
C3090 C3091 1.524 . S
C3090 C3104 1.377 . S
C3091 C3090 1.524 . S
C3091 C3092 1.397 . S
C3091 C3096 1.363 . S
C3092 H3069 0.950 . S
C3092 C3091 1.397 . S
C3092 C3093 1.334 . S
C3093 H3070 0.950 . S
C3093 C3092 1.334 . S
C3093 C3094 1.287 . S
C3094 C3093 1.287 . S
C3094 C3095 1.524 . S
C3094 H3113 0.913 . S
C3095 H3071 0.950 . S
C3095 C3094 1.524 . S
C3095 C3096 1.415 . S
C3096 H3072 0.950 . S
C3096 C3091 1.363 . S
C3096 C3095 1.415 . S
C3097 H3073 0.941 1_556 S
C3097 C3098 1.366 . S
C3097 C3099 1.388 . S
C3098 C3097 1.366 . S
C3098 C3102 1.385 . S
C3099 H3074 0.951 . S
C3099 C3097 1.388 . S
C3099 C3100 1.366 . S
C3100 C3099 1.366 . S
C3100 C3101 1.414 . S
C3100 C3103 1.499 . S
C3101 H3075 0.950 . S
C3101 C3100 1.414 . S
C3101 C3102 1.374 . S
C3102 H3076 0.950 . S
C3102 C3098 1.385 . S
C3102 C3101 1.374 . S
C3103 C3100 1.499 . S
C3103 C3104 1.373 . S
C3103 C3105 1.389 . S
C3104 H3077 0.950 . S
C3104 C3090 1.377 . S
C3104 C3103 1.373 . S
C3105 C3089 1.377 . S
C3105 C3103 1.389 . S
C3105 C3106 1.524 . S
C3106 C3105 1.524 . S
C3106 C3107 1.397 . S
C3106 C3111 1.363 . S
C3107 H3078 0.950 . S
C3107 C3106 1.397 . S
C3107 C3108 1.334 . S
C3108 H3079 0.950 . S
C3108 C3107 1.334 . S
C3108 C3109 1.287 . S
C3109 C3108 1.287 . S
C3109 C3110 1.524 . S
C3109 H3112 0.999 . S
C3110 H3080 0.950 . S
C3110 C3109 1.524 . S
C3110 C3111 1.415 . S
C3111 H3081 0.950 . S
C3111 C3106 1.363 . S
C3111 C3110 1.415 . S
H3112 C3109 0.999 . S
H3113 C3094 0.913 . S
H3114 C3132 0.951 . S
H3115 C3134 0.951 . S
H3116 C3136 0.950 . S
H3117 C3137 0.950 . S
H3118 C3139 0.950 . S
H3119 C3142 0.950 . S
H3120 C3143 0.950 . S
H3121 C3145 0.950 . S
H3122 C3146 0.950 . S
H3123 C3147 0.951 . S
H3124 C3149 0.951 . S
H3125 C3151 0.950 . S
H3126 C3152 0.950 . S
H3127 C3154 0.950 . S
H3128 C3157 0.950 . S
H3129 C3158 0.950 . S
H3130 C3160 0.950 . S
H3131 C3161 0.950 . S
C3132 H3114 0.951 . S
C3132 C3133 1.366 . S
C3132 C3134 1.388 . S
C3133 C3132 1.366 . S
C3133 C3137 1.385 . S
C3134 H3115 0.951 . S
C3134 C3132 1.388 . S
C3134 C3135 1.366 . S
C3135 C3134 1.366 . S
C3135 C3136 1.414 . S
C3135 C3138 1.499 . S
C3136 H3116 0.950 . S
C3136 C3135 1.414 . S
C3136 C3137 1.374 . S
C3137 H3117 0.950 . S
C3137 C3133 1.385 . S
C3137 C3136 1.374 . S
C3138 C3135 1.499 . S
C3138 C3139 1.373 1_655 S
C3138 C3140 1.389 . S
C3139 H3118 0.950 . S
C3139 C3138 1.373 1_455 S
C3139 C3155 1.377 . S
C3140 C3138 1.389 . S
C3140 C3141 1.524 . S
C3140 C3154 1.377 1_655 S
C3141 C3140 1.524 . S
C3141 C3142 1.397 . S
C3141 C3146 1.363 . S
C3142 H3119 0.950 . S
C3142 C3141 1.397 . S
C3142 C3143 1.334 . S
C3143 H3120 0.950 . S
C3143 C3142 1.334 . S
C3143 C3144 1.287 . S
C3144 C3143 1.287 . S
C3144 C3145 1.524 . S
C3144 H3163 0.913 . S
C3145 H3121 0.950 . S
C3145 C3144 1.524 . S
C3145 C3146 1.415 . S
C3146 H3122 0.950 . S
C3146 C3141 1.363 . S
C3146 C3145 1.415 . S
C3147 H3123 0.951 . S
C3147 C3148 1.366 . S
C3147 C3149 1.388 . S
C3148 C3147 1.366 . S
C3148 C3152 1.385 . S
C3149 H3124 0.951 . S
C3149 C3147 1.388 . S
C3149 C3150 1.366 . S
C3150 C3149 1.366 . S
C3150 C3151 1.414 . S
C3150 C3153 1.499 . S
C3151 H3125 0.950 . S
C3151 C3150 1.414 . S
C3151 C3152 1.374 . S
C3152 H3126 0.950 . S
C3152 C3148 1.385 . S
C3152 C3151 1.374 . S
C3153 C3150 1.499 . S
C3153 C3154 1.373 . S
C3153 C3155 1.389 . S
C3154 H3127 0.950 . S
C3154 C3140 1.377 1_455 S
C3154 C3153 1.373 . S
C3155 C3139 1.377 . S
C3155 C3153 1.389 . S
C3155 C3156 1.524 . S
C3156 C3155 1.524 . S
C3156 C3157 1.397 . S
C3156 C3161 1.363 . S
C3157 H3128 0.950 . S
C3157 C3156 1.397 . S
C3157 C3158 1.334 . S
C3158 H3129 0.950 . S
C3158 C3157 1.334 . S
C3158 C3159 1.287 . S
C3159 C3158 1.287 . S
C3159 C3160 1.524 . S
C3159 H3162 0.999 . S
C3160 H3130 0.950 . S
C3160 C3159 1.524 . S
C3160 C3161 1.415 . S
C3161 H3131 0.950 . S
C3161 C3156 1.363 . S
C3161 C3160 1.415 . S
H3162 C3159 0.999 . S
H3163 C3144 0.913 . S
H3164 C3182 0.951 . S
H3165 C3184 0.951 . S
H3166 C3186 0.950 . S
H3167 C3187 0.950 . S
H3168 C3189 0.950 . S
H3169 C3192 0.950 . S
H3170 C3193 0.950 . S
H3171 C3195 0.950 . S
H3172 C3196 0.950 . S
H3173 C3197 0.951 . S
H3174 C3199 0.951 . S
H3175 C3201 0.950 . S
H3176 C3202 0.950 . S
H3177 C3204 0.950 . S
H3178 C3207 0.950 . S
H3179 C3208 0.950 . S
H3180 C3210 0.950 . S
H3181 C3211 0.950 . S
C3182 H3164 0.951 . S
C3182 C3183 1.366 . S
C3182 C3184 1.388 . S
C3183 C3182 1.366 . S
C3183 C3187 1.385 . S
C3184 H3165 0.951 . S
C3184 C3182 1.388 . S
C3184 C3185 1.366 . S
C3185 C3184 1.366 . S
C3185 C3186 1.414 . S
C3185 C3188 1.499 . S
C3186 H3166 0.950 . S
C3186 C3185 1.414 . S
C3186 C3187 1.374 . S
C3187 H3167 0.950 . S
C3187 C3183 1.385 . S
C3187 C3186 1.374 . S
C3188 C3185 1.499 . S
C3188 C3189 1.373 . S
C3188 C3190 1.389 . S
C3189 H3168 0.950 . S
C3189 C3188 1.373 . S
C3189 C3205 1.377 . S
C3190 C3188 1.389 . S
C3190 C3191 1.524 . S
C3190 C3204 1.377 . S
C3191 C3190 1.524 . S
C3191 C3192 1.397 . S
C3191 C3196 1.363 . S
C3192 H3169 0.950 . S
C3192 C3191 1.397 . S
C3192 C3193 1.334 . S
C3193 H3170 0.950 . S
C3193 C3192 1.334 . S
C3193 C3194 1.287 . S
C3194 C3193 1.287 . S
C3194 C3195 1.524 . S
C3194 H3213 0.913 . S
C3195 H3171 0.950 . S
C3195 C3194 1.524 . S
C3195 C3196 1.415 . S
C3196 H3172 0.950 . S
C3196 C3191 1.363 . S
C3196 C3195 1.415 . S
C3197 H3173 0.951 . S
C3197 C3198 1.366 . S
C3197 C3199 1.388 . S
C3198 C3197 1.366 . S
C3198 C3202 1.385 . S
C3199 H3174 0.951 . S
C3199 C3197 1.388 . S
C3199 C3200 1.366 . S
C3200 C3199 1.366 . S
C3200 C3201 1.414 . S
C3200 C3203 1.499 . S
C3201 H3175 0.950 . S
C3201 C3200 1.414 . S
C3201 C3202 1.374 . S
C3202 H3176 0.950 . S
C3202 C3198 1.385 . S
C3202 C3201 1.374 . S
C3203 C3200 1.499 . S
C3203 C3204 1.373 . S
C3203 C3205 1.389 . S
C3204 H3177 0.950 . S
C3204 C3190 1.377 . S
C3204 C3203 1.373 . S
C3205 C3189 1.377 . S
C3205 C3203 1.389 . S
C3205 C3206 1.524 . S
C3206 C3205 1.524 . S
C3206 C3207 1.397 . S
C3206 C3211 1.363 . S
C3207 H3178 0.950 . S
C3207 C3206 1.397 . S
C3207 C3208 1.334 . S
C3208 H3179 0.950 . S
C3208 C3207 1.334 . S
C3208 C3209 1.287 . S
C3209 C3208 1.287 . S
C3209 C3210 1.524 . S
C3209 H3212 0.999 . S
C3210 H3180 0.950 . S
C3210 C3209 1.524 . S
C3210 C3211 1.415 . S
C3211 H3181 0.950 . S
C3211 C3206 1.363 . S
C3211 C3210 1.415 . S
H3212 C3209 0.999 . S
H3213 C3194 0.913 . S
H3214 C3232 0.951 1_556 S
H3215 C3234 0.951 . S
H3216 C3236 0.950 . S
H3217 C3237 0.950 . S
H3218 C3239 0.950 . S
H3219 C3242 0.950 . S
H3220 C3243 0.950 . S
H3221 C3245 0.950 . S
H3222 C3246 0.950 . S
H3223 C3247 0.951 . S
H3224 C3249 0.951 . S
H3225 C3251 0.950 . S
H3226 C3252 0.950 . S
H3227 C3254 0.950 . S
H3228 C3257 0.950 . S
H3229 C3258 0.950 . S
H3230 C3260 0.950 . S
H3231 C3261 0.950 . S
C3232 H3214 0.951 1_554 S
C3232 C3233 1.366 1_554 S
C3232 C3234 1.388 . S
C3233 C3232 1.366 1_556 S
C3233 C3237 1.385 1_556 S
C3234 H3215 0.951 . S
C3234 C3232 1.388 . S
C3234 C3235 1.366 . S
C3235 C3234 1.366 . S
C3235 C3236 1.414 . S
C3235 C3238 1.499 . S
C3236 H3216 0.950 . S
C3236 C3235 1.414 . S
C3236 C3237 1.374 . S
C3237 H3217 0.950 . S
C3237 C3233 1.385 1_554 S
C3237 C3236 1.374 . S
C3238 C3235 1.499 . S
C3238 C3239 1.373 . S
C3238 C3240 1.389 . S
C3239 H3218 0.950 . S
C3239 C3238 1.373 . S
C3239 C3255 1.377 . S
C3240 C3238 1.389 . S
C3240 C3241 1.524 . S
C3240 C3254 1.377 . S
C3241 C3240 1.524 . S
C3241 C3242 1.397 . S
C3241 C3246 1.363 . S
C3242 H3219 0.950 . S
C3242 C3241 1.397 . S
C3242 C3243 1.334 1_554 S
C3243 H3220 0.950 . S
C3243 C3242 1.334 1_556 S
C3243 C3244 1.287 . S
C3244 C3243 1.287 . S
C3244 C3245 1.524 1_556 S
C3244 H3263 0.913 . S
C3245 H3221 0.950 . S
C3245 C3244 1.524 1_554 S
C3245 C3246 1.415 . S
C3246 H3222 0.950 . S
C3246 C3241 1.363 . S
C3246 C3245 1.415 . S
C3247 H3223 0.951 . S
C3247 C3248 1.366 . S
C3247 C3249 1.388 . S
C3248 C3247 1.366 . S
C3248 C3252 1.385 . S
C3249 H3224 0.951 . S
C3249 C3247 1.388 . S
C3249 C3250 1.366 . S
C3250 C3249 1.366 . S
C3250 C3251 1.414 . S
C3250 C3253 1.499 . S
C3251 H3225 0.950 . S
C3251 C3250 1.414 . S
C3251 C3252 1.374 . S
C3252 H3226 0.950 . S
C3252 C3248 1.385 . S
C3252 C3251 1.374 . S
C3253 C3250 1.499 . S
C3253 C3254 1.373 . S
C3253 C3255 1.389 . S
C3254 H3227 0.950 . S
C3254 C3240 1.377 . S
C3254 C3253 1.373 . S
C3255 C3239 1.377 . S
C3255 C3253 1.389 . S
C3255 C3256 1.524 . S
C3256 C3255 1.524 . S
C3256 C3257 1.397 . S
C3256 C3261 1.363 . S
C3257 H3228 0.950 . S
C3257 C3256 1.397 . S
C3257 C3258 1.334 . S
C3258 H3229 0.950 . S
C3258 C3257 1.334 . S
C3258 C3259 1.287 . S
C3259 C3258 1.287 . S
C3259 C3260 1.524 . S
C3259 H3262 0.999 . S
C3260 H3230 0.950 . S
C3260 C3259 1.524 . S
C3260 C3261 1.415 . S
C3261 H3231 0.950 . S
C3261 C3256 1.363 . S
C3261 C3260 1.415 . S
H3262 C3259 0.999 . S
H3263 C3244 0.913 . S
C483 C224 0.671 . S
C498 C21 0.777 . S
C533 C137 0.618 . S
C548 C50 0.659 . S
C583 C166 0.738 . S
C598 C79 0.762 . S
C633 C195 0.773 . S
C648 C108 0.738 . S
C683 C253 0.674 . S
C698 C456 0.696 . S
C733 C282 0.616 . S
C748 C369 0.594 . S
C783 C398 0.775 . S
C798 C311 0.782 . S
C833 C427 0.662 . S
C848 C340 0.692 . S
C883 C187 2.339 . S
C898 C15 2.281 . S
C933 C44 2.739 . S
C948 C218 2.728 . S
C983 C131 2.367 . S
C998 C71 2.438 . S
C1033 C158 2.386 . S
C1048 C100 2.368 . S
C1083 C247 2.520 . S
C1098 C421 2.499 . S
C1133 C450 2.659 . S
C1148 C276 2.665 . S
C1183 C303 2.399 . S
C1198 C361 2.376 . S
C1233 C334 2.329 . S
C1248 C390 2.393 . S
C1283 C42 2.656 . S
C1298 C160 2.589 . S
C1333 C189 2.425 . S
C1348 C73 2.441 . S
C1383 C102 2.080 . S
C1398 C216 2.147 . S
C1433 C129 2.700 . S
C1448 C13 2.718 . S
C1483 C392 2.410 . S
C1498 C274 2.479 . S
C1533 C305 2.618 . S
C1548 C419 2.673 . S
C1583 C448 2.416 . S
C1598 C332 2.393 . S
C1633 C245 2.403 . S
C1648 C363 2.348 . S
C1683 C271 1.546 . S
C1698 C8 1.503 . S
C1733 C440 1.747 1_554 S
C1748 C37 1.628 . S
C1783 C61 2.162 . S
C1798 C329 2.029 . S
C1833 C387 1.344 . S
C1848 C90 1.445 . S
C1883 C445 1.526 . S
C1898 C124 1.483 . S
C1933 C324 1.869 . S
C1948 C148 1.892 . S
C1983 C177 2.173 . S
C1998 C382 2.148 . S
C2033 C211 1.257 . S
C2048 C266 1.335 . S
C2083 C39 1.481 . S
C2098 C240 1.440 1_554 S
C2133 C269 1.933 . S
C2148 C208 2.064 1_556 S
C2183 C92 2.056 . S
C2198 C293 2.077 . S
C2233 C327 1.359 . S
C2248 C155 1.391 . S
C2283 C213 1.194 . S
C2298 C351 1.276 . S
C2333 C97 1.999 . S
C2348 C380 2.134 . S
C2383 C414 1.845 1_556 S
C2398 C150 1.991 . S
C2433 C34 1.630 . S
C2448 C443 1.527 . S
C2483 C411 1.360 . S
C2498 C153 1.259 . S
C2533 C295 1.881 . S
C2548 C182 1.762 . S
C2583 C206 2.333 . S
C2598 C358 2.212 . S
C2633 C119 1.676 . S
C2648 C242 1.559 . S
C2683 C300 1.299 . S
C2698 C95 1.257 . S
C2733 C353 1.675 . S
C2748 C3 1.701 . S
C2783 C237 2.018 . S
C2798 C32 2.044 . S
C2833 C416 1.504 . S
C2848 C66 1.513 . S
C2883 C184 1.245 . S
C2898 C385 1.226 . S
C2933 C63 1.916 . S
C2948 C409 1.948 . S
C2983 C121 1.909 . S
C2998 C438 1.929 . S
C3033 C10 1.695 . S
C3048 C356 1.636 . S
C3083 C68 1.442 . S
C3098 C322 1.541 1_556 S
C3133 C235 1.975 . S
C3148 C126 1.840 . S
C3183 C5 1.852 . S
C3198 C264 1.875 . S
C3233 C179 1.394 . S
C3248 C298 1.305 . S
