# Generated by pormake.
# Topology ukg, (4)-cn, num edge types: 1
# Building blocks:
#     Node 0, Type 0, BuildingBlock: ICAMEG_clean_sbu_1, # of connection points: 4
#     Node 1, Type 0, BuildingBlock: ICAMEG_clean_sbu_1, # of connection points: 4
#     Node 2, Type 0, BuildingBlock: ICAMEG_clean_sbu_1, # of connection points: 4
#     Node 3, Type 0, BuildingBlock: ICAMEG_clean_sbu_1, # of connection points: 4
#     Node 4, Type 0, BuildingBlock: ICAMEG_clean_sbu_1, # of connection points: 4
#     Node 5, Type 0, BuildingBlock: ICAMEG_clean_sbu_1, # of connection points: 4
#     Node 6, Type 0, BuildingBlock: ICAMEG_clean_sbu_1, # of connection points: 4
#     Node 7, Type 0, BuildingBlock: ICAMEG_clean_sbu_1, # of connection points: 4
#     Edge 8, Type (0, 0), BuildingBlock: ZUJKAS_clean_linker_0, # of connection points: 2
#     Edge 9, Type (0, 0), BuildingBlock: ZUJKAS_clean_linker_0, # of connection points: 2
#     Edge 10, Type (0, 0), BuildingBlock: ZUJKAS_clean_linker_0, # of connection points: 2
#     Edge 11, Type (0, 0), BuildingBlock: ZUJKAS_clean_linker_0, # of connection points: 2
#     Edge 12, Type (0, 0), BuildingBlock: ZUJKAS_clean_linker_0, # of connection points: 2
#     Edge 13, Type (0, 0), BuildingBlock: ZUJKAS_clean_linker_0, # of connection points: 2
#     Edge 14, Type (0, 0), BuildingBlock: ZUJKAS_clean_linker_0, # of connection points: 2
#     Edge 15, Type (0, 0), BuildingBlock: ZUJKAS_clean_linker_0, # of connection points: 2
#     Edge 16, Type (0, 0), BuildingBlock: ZUJKAS_clean_linker_0, # of connection points: 2
#     Edge 17, Type (0, 0), BuildingBlock: ZUJKAS_clean_linker_0, # of connection points: 2
#     Edge 18, Type (0, 0), BuildingBlock: ZUJKAS_clean_linker_0, # of connection points: 2
#     Edge 19, Type (0, 0), BuildingBlock: ZUJKAS_clean_linker_0, # of connection points: 2
#     Edge 20, Type (0, 0), BuildingBlock: ZUJKAS_clean_linker_0, # of connection points: 2
#     Edge 21, Type (0, 0), BuildingBlock: ZUJKAS_clean_linker_0, # of connection points: 2
#     Edge 22, Type (0, 0), BuildingBlock: ZUJKAS_clean_linker_0, # of connection points: 2
#     Edge 23, Type (0, 0), BuildingBlock: ZUJKAS_clean_linker_0, # of connection points: 2
# Relax obj value: 0.020
# Max RMSD: 0.101
# Mean RMSD: 0.101
data_MOF--net-ukg--node1-ICAMEG_clean_sbu_1--edge1-ZUJKAS_clean_linker_0
_symmetry_space_group_name_H-M    P1
_symmetry_Int_Tables_number       1
_symmetry_cell_setting            triclinic
loop_
_symmetry_equiv_pos_as_xyz
'x, y, z'
_cell_length_a     42.048133
_cell_length_b     42.059205
_cell_length_c     51.651998
_cell_angle_alpha  90.00394
_cell_angle_beta   90.010225
_cell_angle_gamma 90.014167
loop_
_atom_site_label
_atom_site_type_symbol
_atom_site_fract_x
_atom_site_fract_y
_atom_site_fract_z
_atom_type_partial_charge
Co0 Co 0.04002 0.64938 0.18182 0.0
Co1 Co 0.98856 0.66979 0.13236 0.0
O2 O 0.02937 0.65436 0.14527 0.0
C3 C 0.08944 0.69181 0.16102 0.0
O4 O 0.06649 0.70702 0.14905 0.0
C5 C 0.99641 0.60706 0.10821 0.0
O6 O 0.00382 0.59658 0.13138 0.0
O7 O 0.96482 0.64043 0.15549 0.0
O8 O 0.99712 0.63117 0.18934 0.0
H9 H 0.87612 0.70907 0.14005 0.0
H10 H 0.08282 0.62273 0.14173 0.0
O11 O 0.08315 0.66773 0.17508 0.0
H12 H 0.04877 0.53098 0.19431 0.0
H13 H 0.11268 0.62197 0.25598 0.0
H14 H 0.00633 0.66106 0.23133 0.0
H15 H 0.03041 0.5851 0.20498 0.0
H16 H 0.098 0.62777 0.20997 0.0
O17 O 0.9894 0.63624 0.10489 0.0
H18 H 0.92791 0.69025 0.15644 0.0
H19 H 0.96223 0.68062 0.07952 0.0
H20 H 0.01991 0.65536 0.27757 0.0
H21 H 0.10195 0.56904 0.13048 0.0
H22 H 0.07344 0.63569 0.29014 0.0
H23 H 0.08482 0.52269 0.15682 0.0
O24 O 0.02399 0.69273 0.1899 0.0
H25 H 0.07324 0.69904 0.06798 0.0
H26 H 0.98398 0.73908 0.12063 0.0
H27 H 0.01405 0.77631 0.09302 0.0
H28 H 0.05902 0.75633 0.06643 0.0
H29 H 0.04271 0.66268 0.09602 0.0
H30 H 0.91072 0.69909 0.06227 0.0
H31 H 0.86728 0.7136 0.09264 0.0
O32 O 0.98695 0.70337 0.15967 0.0
C33 C 0.97051 0.62838 0.17767 0.0
C34 C 0.8949 0.70296 0.12663 0.0
C35 C 0.91431 0.69732 0.08297 0.0
N36 N 0.94816 0.68471 0.11896 0.0
C37 C 0.92431 0.6924 0.1358 0.0
C38 C 0.94341 0.68683 0.09284 0.0
C39 C 0.88995 0.70546 0.10002 0.0
C40 C 0.07553 0.60272 0.15344 0.0
N41 N 0.05566 0.60706 0.17406 0.0
C42 C 0.08633 0.57236 0.14691 0.0
C43 C 0.07667 0.54636 0.16167 0.0
C44 C 0.05643 0.55099 0.1827 0.0
C45 C 0.04606 0.58169 0.18862 0.0
C46 C 0.08927 0.6305 0.25075 0.0
C47 C 0.02959 0.65229 0.23666 0.0
C48 C 0.08084 0.63389 0.22474 0.0
N49 N 0.05125 0.64449 0.218 0.0
C50 C 0.03718 0.6492 0.26287 0.0
C51 C 0.06723 0.6382 0.26991 0.0
C52 C 0.00223 0.71024 0.18028 0.0
C53 C 0.05363 0.70801 0.07941 0.0
C54 C 0.00356 0.73021 0.10915 0.0
C55 C 0.02045 0.75139 0.09351 0.0
C56 C 0.04567 0.74016 0.07859 0.0
N57 N 0.0115 0.69871 0.10984 0.0
C58 C 0.03616 0.68751 0.09523 0.0
Co59 Co 0.35005 0.5391 0.68109 0.0
Co60 Co 0.32827 0.48835 0.63156 0.0
O61 O 0.34441 0.52875 0.64459 0.0
C62 C 0.30712 0.58878 0.66141 0.0
O63 O 0.29053 0.56578 0.65079 0.0
C64 C 0.3912 0.49532 0.60764 0.0
O65 O 0.40166 0.50231 0.6309 0.0
O66 O 0.35708 0.46384 0.65473 0.0
O67 O 0.36801 0.49609 0.68828 0.0
H68 H 0.28594 0.37699 0.63892 0.0
H69 H 0.37636 0.58191 0.6408 0.0
O70 O 0.332 0.58237 0.67448 0.0
H71 H 0.46873 0.54698 0.6923 0.0
H72 H 0.37914 0.61133 0.75509 0.0
H73 H 0.33901 0.5053 0.73067 0.0
H74 H 0.41463 0.52898 0.70352 0.0
H75 H 0.37247 0.59683 0.70912 0.0
O76 O 0.36194 0.48871 0.60417 0.0
H77 H 0.30586 0.42828 0.65548 0.0
H78 H 0.31744 0.46231 0.57864 0.0
H79 H 0.34554 0.51871 0.77686 0.0
H80 H 0.43003 0.60066 0.62901 0.0
H81 H 0.36574 0.57207 0.78932 0.0
H82 H 0.47669 0.58308 0.6548 0.0
O83 O 0.30676 0.52307 0.6897 0.0
H84 H 0.30084 0.57411 0.56761 0.0
H85 H 0.25899 0.48503 0.61952 0.0
H86 H 0.22242 0.51594 0.59195 0.0
H87 H 0.24332 0.56083 0.56573 0.0
H88 H 0.33652 0.54273 0.59561 0.0
H89 H 0.29787 0.41129 0.56123 0.0
H90 H 0.28184 0.36825 0.59147 0.0
O91 O 0.29467 0.48738 0.65879 0.0
C92 C 0.36979 0.46935 0.67671 0.0
C93 C 0.29275 0.3956 0.62554 0.0
C94 C 0.29948 0.41483 0.58194 0.0
N95 N 0.31253 0.44833 0.61804 0.0
C96 C 0.30395 0.42472 0.63481 0.0
C97 C 0.3106 0.44364 0.5919 0.0
C98 C 0.29049 0.3907 0.59892 0.0
C99 C 0.39651 0.57442 0.65228 0.0
N100 N 0.39235 0.55451 0.6729 0.0
C101 C 0.42686 0.58501 0.64544 0.0
C102 C 0.45303 0.5751 0.65989 0.0
C103 C 0.44859 0.55482 0.68093 0.0
C104 C 0.4179 0.54467 0.68717 0.0
C105 C 0.37038 0.58799 0.74991 0.0
C106 C 0.348 0.52849 0.73594 0.0
C107 C 0.3665 0.57967 0.72392 0.0
N108 N 0.35561 0.55017 0.71724 0.0
C109 C 0.35156 0.53598 0.76213 0.0
C110 C 0.36287 0.56594 0.7691 0.0
C111 C 0.28855 0.502 0.67986 0.0
C112 C 0.29146 0.55455 0.57889 0.0
C113 C 0.26825 0.50456 0.6082 0.0
C114 C 0.24744 0.52194 0.59259 0.0
C115 C 0.25919 0.54711 0.57787 0.0
N116 N 0.29989 0.51197 0.60907 0.0
C117 C 0.31158 0.53661 0.59469 0.0
Co118 Co 0.45954 0.85087 0.18102 0.0
Co119 Co 0.51024 0.82758 0.13179 0.0
O120 O 0.46981 0.84397 0.14463 0.0
C121 C 0.41134 0.8057 0.1621 0.0
O122 O 0.43457 0.79089 0.15017 0.0
C123 C 0.50328 0.89042 0.10758 0.0
O124 O 0.49554 0.90091 0.13066 0.0
O125 O 0.53489 0.8562 0.15507 0.0
O126 O 0.50179 0.8712 0.18708 0.0
H127 H 0.62106 0.78392 0.13962 0.0
H128 H 0.4155 0.87309 0.14 0.0
O129 O 0.41705 0.83042 0.17558 0.0
H130 H 0.44569 0.9694 0.1886 0.0
H131 H 0.38695 0.88004 0.25478 0.0
H132 H 0.49454 0.84411 0.23054 0.0
H133 H 0.46626 0.91682 0.20151 0.0
H134 H 0.40113 0.87183 0.20891 0.0
O135 O 0.51031 0.86122 0.10434 0.0
H136 H 0.56986 0.8043 0.15596 0.0
H137 H 0.53663 0.81676 0.07898 0.0
H138 H 0.48147 0.85227 0.27663 0.0
H139 H 0.39415 0.92515 0.12653 0.0
H140 H 0.42733 0.87036 0.28899 0.0
H141 H 0.40934 0.97379 0.15085 0.0
O142 O 0.47752 0.80878 0.19098 0.0
H143 H 0.42469 0.80068 0.06745 0.0
H144 H 0.51309 0.75828 0.11985 0.0
H145 H 0.48205 0.7219 0.09218 0.0
H146 H 0.4375 0.74308 0.06573 0.0
H147 H 0.45619 0.83618 0.09552 0.0
H148 H 0.58757 0.79674 0.06179 0.0
H149 H 0.63017 0.78005 0.09221 0.0
O150 O 0.51078 0.79409 0.15907 0.0
C151 C 0.5289 0.87121 0.17598 0.0
C152 C 0.60265 0.79104 0.12617 0.0
C153 C 0.58387 0.79828 0.08248 0.0
N154 N 0.55023 0.81151 0.11844 0.0
C155 C 0.57359 0.80252 0.13531 0.0
C156 C 0.55511 0.80966 0.09233 0.0
C157 C 0.60776 0.7889 0.09957 0.0
C158 C 0.42198 0.89411 0.15082 0.0
N159 N 0.44204 0.89192 0.17155 0.0
C160 C 0.40991 0.92354 0.14304 0.0
C161 C 0.41849 0.95083 0.15667 0.0
C162 C 0.43889 0.94839 0.17785 0.0
C163 C 0.45054 0.91857 0.18503 0.0
C164 C 0.41064 0.87222 0.24963 0.0
C165 C 0.471 0.8522 0.23577 0.0
C166 C 0.41878 0.86747 0.2237 0.0
N167 N 0.44871 0.85775 0.21707 0.0
C168 C 0.46371 0.85668 0.2619 0.0
C169 C 0.43331 0.86679 0.26882 0.0
C170 C 0.49748 0.78954 0.18095 0.0
C171 C 0.44411 0.79119 0.07882 0.0
C172 C 0.49372 0.76767 0.10841 0.0
C173 C 0.47626 0.74696 0.09275 0.0
C174 C 0.45128 0.75886 0.0779 0.0
N175 N 0.48656 0.79935 0.10919 0.0
C176 C 0.46212 0.8112 0.09466 0.0
Co177 Co 0.14695 0.95801 0.68059 0.0
Co178 Co 0.17 0.0093 0.63173 0.0
O179 O 0.15361 0.96876 0.64429 0.0
C180 C 0.19216 0.90992 0.66163 0.0
O181 O 0.20787 0.93346 0.65091 0.0
C182 C 0.10694 0.00292 0.60778 0.0
O183 O 0.0966 0.99496 0.63085 0.0
O184 O 0.14162 0.03371 0.65535 0.0
O185 O 0.12711 0.00031 0.68729 0.0
H186 H 0.21404 0.11988 0.64035 0.0
H187 H 0.12389 0.9148 0.63928 0.0
O188 O 0.16687 0.91544 0.67444 0.0
H189 H 0.02832 0.94516 0.68876 0.0
H190 H 0.1178 0.88439 0.75367 0.0
H191 H 0.15453 0.99205 0.73048 0.0
H192 H 0.08123 0.96505 0.70154 0.0
H193 H 0.1257 0.89931 0.70792 0.0
O194 O 0.13616 0.00982 0.60443 0.0
H195 H 0.19363 0.06852 0.65633 0.0
H196 H 0.18054 0.03635 0.57911 0.0
H197 H 0.14669 0.97823 0.77646 0.0
H198 H 0.07148 0.89413 0.62594 0.0
H199 H 0.1282 0.92404 0.78829 0.0
H200 H 0.02322 0.90942 0.65069 0.0
O201 O 0.18931 0.97553 0.6905 0.0
H202 H 0.19626 0.92451 0.5666 0.0
H203 H 0.23923 0.0122 0.61948 0.0
H204 H 0.27535 0.98149 0.59138 0.0
H205 H 0.25389 0.9373 0.56467 0.0
H206 H 0.16103 0.95568 0.59512 0.0
H207 H 0.20058 0.08747 0.56228 0.0
H208 H 0.21761 0.12961 0.593 0.0
O209 O 0.20366 0.00937 0.65887 0.0
C210 C 0.12698 0.02755 0.67641 0.0
C211 C 0.20678 0.10167 0.62677 0.0
C212 C 0.19918 0.0835 0.58295 0.0
N213 N 0.1861 0.04941 0.61867 0.0
C214 C 0.19528 0.07251 0.6357 0.0
C215 C 0.18778 0.05464 0.59259 0.0
C216 C 0.20874 0.10713 0.6002 0.0
C217 C 0.10303 0.92131 0.65029 0.0
N218 N 0.10562 0.94105 0.6712 0.0
C219 C 0.07341 0.90964 0.64258 0.0
C220 C 0.04633 0.91826 0.65646 0.0
C221 C 0.04917 0.93833 0.67781 0.0
C222 C 0.07918 0.94959 0.68492 0.0
C223 C 0.1258 0.90809 0.74875 0.0
C224 C 0.14627 0.9685 0.73548 0.0
C225 C 0.13038 0.91665 0.72289 0.0
N226 N 0.14032 0.9466 0.71655 0.0
C227 C 0.14197 0.96077 0.76155 0.0
C228 C 0.13163 0.93036 0.76817 0.0
C229 C 0.20846 0.99568 0.68056 0.0
C230 C 0.20588 0.94377 0.57809 0.0
C231 C 0.22972 0.99298 0.60794 0.0
C232 C 0.25028 0.97571 0.59203 0.0
C233 C 0.23822 0.95093 0.57704 0.0
N234 N 0.19803 0.98584 0.60883 0.0
C235 C 0.18603 0.96159 0.59419 0.0
Co236 Co 0.95717 0.3496 0.8172 0.0
Co237 Co 0.0088 0.3312 0.86701 0.0
O238 O 0.96764 0.34519 0.85382 0.0
C239 C 0.90891 0.30595 0.83803 0.0
O240 O 0.93234 0.29117 0.84974 0.0
C241 C 0.99857 0.39358 0.89118 0.0
O242 O 0.99108 0.40386 0.86797 0.0
O243 O 0.03167 0.36145 0.84409 0.0
O244 O -0.00036 0.36894 0.80978 0.0
H245 H 0.12277 0.29633 0.86012 0.0
H246 H 0.9133 0.37539 0.85692 0.0
O247 O 0.91452 0.33014 0.82392 0.0
H248 H 0.94517 0.46759 0.80395 0.0
H249 H 0.88426 0.37425 0.74255 0.0
H250 H 0.99153 0.33848 0.7679 0.0
H251 H 0.96519 0.41392 0.79374 0.0
H252 H 0.8988 0.36931 0.78866 0.0
O253 O 0.00643 0.36462 0.89452 0.0
H254 H 0.07048 0.31318 0.84336 0.0
H255 H 0.03489 0.32113 0.92002 0.0
H256 H 0.97809 0.34332 0.72157 0.0
H257 H 0.89251 0.42862 0.8677 0.0
H258 H 0.92411 0.36131 0.70865 0.0
H259 H 0.90854 0.47519 0.84116 0.0
O260 O 0.97454 0.30671 0.80939 0.0
H261 H 0.92449 0.29868 0.93067 0.0
H262 H 0.01578 0.2621 0.87866 0.0
H263 H 0.98677 0.22371 0.90598 0.0
H264 H 0.94078 0.24196 0.93223 0.0
H265 H 0.95401 0.33622 0.90293 0.0
H266 H 0.08687 0.3046 0.93764 0.0
H267 H 0.13121 0.29195 0.90759 0.0
O268 O 0.01202 0.29778 0.83962 0.0
C269 C 0.02592 0.37292 0.82172 0.0
C270 C 0.1036 0.30164 0.87341 0.0
C271 C 0.08346 0.30632 0.91692 0.0
N272 N 0.04958 0.31774 0.88069 0.0
C273 C 0.07391 0.31107 0.86403 0.0
C274 C 0.05409 0.31569 0.90684 0.0
C275 C 0.10832 0.29922 0.90005 0.0
C276 C 0.92012 0.3955 0.84513 0.0
N277 N 0.94029 0.39153 0.82465 0.0
C278 C 0.90838 0.42559 0.85139 0.0
C279 C 0.91742 0.45172 0.83651 0.0
C280 C 0.93799 0.44748 0.81564 0.0
C281 C 0.9493 0.41704 0.80998 0.0
C282 C 0.90788 0.36645 0.74794 0.0
C283 C 0.96806 0.34653 0.76242 0.0
C284 C 0.91623 0.36356 0.77401 0.0
N285 N 0.94606 0.35388 0.78094 0.0
C286 C 0.96056 0.34913 0.73616 0.0
C287 C 0.93025 0.3592 0.72893 0.0
C288 C 0.99707 0.29021 0.81901 0.0
C289 C 0.94456 0.29047 0.91938 0.0
C290 C 0.99576 0.2702 0.89 0.0
C291 C 0.97947 0.24837 0.90547 0.0
C292 C 0.95368 0.25863 0.92021 0.0
N293 N 0.98668 0.3014 0.8893 0.0
C294 C 0.96145 0.31164 0.90373 0.0
Co295 Co 0.64818 0.45818 0.31796 0.0
Co296 Co 0.66925 0.50835 0.36813 0.0
O297 O 0.65356 0.46801 0.3546 0.0
C298 C 0.69155 0.40922 0.33799 0.0
O299 O 0.70666 0.43237 0.34977 0.0
C300 C 0.60625 0.50024 0.39174 0.0
O301 O 0.59601 0.49331 0.36841 0.0
O302 O 0.64034 0.53287 0.3451 0.0
O303 O 0.6292 0.50095 0.31136 0.0
H304 H 0.71048 0.62024 0.36212 0.0
H305 H 0.62289 0.41405 0.35773 0.0
O306 O 0.66734 0.41522 0.32397 0.0
H307 H 0.52971 0.44775 0.30665 0.0
H308 H 0.62084 0.38668 0.24305 0.0
H309 H 0.65829 0.49321 0.26882 0.0
H310 H 0.58337 0.46722 0.29566 0.0
H311 H 0.62717 0.40046 0.2892 0.0
O312 O 0.63539 0.50723 0.39536 0.0
H313 H 0.69119 0.56902 0.34494 0.0
H314 H 0.67946 0.53368 0.42137 0.0
H315 H 0.65206 0.48053 0.22246 0.0
H316 H 0.56968 0.39382 0.36928 0.0
H317 H 0.63321 0.42692 0.20933 0.0
H318 H 0.52262 0.41077 0.3437 0.0
O319 O 0.69105 0.47529 0.30951 0.0
H320 H 0.69705 0.42194 0.43139 0.0
H321 H 0.73843 0.51212 0.38051 0.0
H322 H 0.7751 0.48112 0.40792 0.0
H323 H 0.75444 0.43567 0.43362 0.0
H324 H 0.66126 0.45343 0.40358 0.0
H325 H 0.69838 0.58462 0.4394 0.0
H326 H 0.71417 0.62828 0.40967 0.0
O327 O 0.70306 0.51013 0.34106 0.0
C328 C 0.62734 0.52752 0.3232 0.0
C329 C 0.70378 0.60136 0.37527 0.0
C330 C 0.69694 0.58138 0.41864 0.0
N331 N 0.68449 0.54832 0.38214 0.0
C332 C 0.69293 0.57227 0.36565 0.0
C333 C 0.68619 0.55262 0.40833 0.0
C334 C 0.70581 0.60587 0.40195 0.0
C335 C 0.60257 0.42127 0.34634 0.0
N336 N 0.60625 0.44164 0.32596 0.0
C337 C 0.57248 0.40985 0.35304 0.0
C338 C 0.54608 0.4194 0.33871 0.0
C339 C 0.55004 0.44016 0.31793 0.0
C340 C 0.58048 0.45115 0.31182 0.0
C341 C 0.629 0.41014 0.24853 0.0
C342 C 0.64987 0.4699 0.26325 0.0
C343 C 0.63269 0.41805 0.27462 0.0
N344 N 0.64284 0.44769 0.28167 0.0
C345 C 0.64649 0.46283 0.23697 0.0
C346 C 0.63594 0.43273 0.22962 0.0
C347 C 0.70916 0.49619 0.31968 0.0
C348 C 0.70632 0.44176 0.42035 0.0
C349 C 0.72927 0.49236 0.39161 0.0
C350 C 0.75014 0.47492 0.40713 0.0
C351 C 0.73853 0.44944 0.42156 0.0
N352 N 0.69771 0.48469 0.39054 0.0
C353 C 0.68614 0.45976 0.40466 0.0
Co354 Co 0.5401 0.14696 0.81736 0.0
Co355 Co 0.48953 0.16751 0.86741 0.0
O356 O 0.53011 0.15234 0.85397 0.0
C357 C 0.58839 0.19119 0.83729 0.0
O358 O 0.56499 0.20601 0.84898 0.0
C359 C 0.4984 0.10467 0.89114 0.0
O360 O 0.50559 0.09449 0.86785 0.0
O361 O 0.46543 0.13825 0.84437 0.0
O362 O 0.49762 0.12732 0.81075 0.0
H363 H 0.3771 0.2072 0.86111 0.0
H364 H 0.58454 0.12253 0.85727 0.0
O365 O 0.58277 0.1668 0.82338 0.0
H366 H 0.55232 0.02865 0.80643 0.0
H367 H 0.61218 0.12039 0.74265 0.0
H368 H 0.50502 0.1563 0.76813 0.0
H369 H 0.53205 0.08194 0.79526 0.0
H370 H 0.5982 0.12672 0.78876 0.0
O371 O 0.491 0.13372 0.89469 0.0
H372 H 0.42865 0.18861 0.84406 0.0
H373 H 0.46392 0.17748 0.92058 0.0
H374 H 0.51789 0.15006 0.72181 0.0
H375 H 0.60555 0.06971 0.869 0.0
H376 H 0.57182 0.13199 0.70882 0.0
H377 H 0.58935 0.02229 0.84354 0.0
O378 O 0.52237 0.18952 0.80876 0.0
H379 H 0.57547 0.19655 0.93077 0.0
H380 H 0.48483 0.23663 0.87971 0.0
H381 H 0.51532 0.27375 0.90713 0.0
H382 H 0.561 0.25374 0.9329 0.0
H383 H 0.54449 0.16031 0.90295 0.0
H384 H 0.41267 0.19572 0.93847 0.0
H385 H 0.36887 0.21085 0.90864 0.0
O386 O 0.48741 0.20124 0.84028 0.0
C387 C 0.47102 0.12521 0.82253 0.0
C388 C 0.39604 0.20078 0.8743 0.0
C389 C 0.41599 0.1943 0.91773 0.0
N390 N 0.44933 0.18224 0.88131 0.0
C391 C 0.42531 0.19033 0.86477 0.0
C392 C 0.44493 0.18393 0.90749 0.0
C393 C 0.39143 0.20279 0.90098 0.0
C394 C 0.57765 0.10206 0.84593 0.0
N395 N 0.55724 0.10534 0.82552 0.0
C396 C 0.58951 0.07219 0.85274 0.0
C397 C 0.58037 0.04559 0.83847 0.0
C398 C 0.55958 0.04913 0.81765 0.0
C399 C 0.54815 0.07936 0.81144 0.0
C400 C 0.58858 0.12822 0.74807 0.0
C401 C 0.52846 0.14822 0.76263 0.0
C402 C 0.58055 0.1319 0.77414 0.0
N403 N 0.55075 0.14162 0.78111 0.0
C404 C 0.53564 0.14483 0.73637 0.0
C405 C 0.56592 0.13472 0.7291 0.0
C406 C 0.50126 0.2074 0.81888 0.0
C407 C 0.55556 0.20553 0.91969 0.0
C408 C 0.5047 0.22775 0.89085 0.0
C409 C 0.52184 0.24887 0.90637 0.0
C410 C 0.54746 0.23763 0.92085 0.0
N411 N 0.51279 0.1963 0.88983 0.0
C412 C 0.53784 0.18509 0.90399 0.0
Co413 Co 0.85162 0.0419 0.31714 0.0
Co414 Co 0.83164 0.98942 0.36608 0.0
O415 O 0.846 0.03074 0.3535 0.0
C416 C 0.806 0.08881 0.3374 0.0
O417 O 0.79154 0.06501 0.34887 0.0
C418 C 0.89414 0.99898 0.39026 0.0
O419 O 0.90427 0.0071 0.36715 0.0
O420 O 0.86149 0.96659 0.34271 0.0
O421 O 0.87259 0.00016 0.30999 0.0
H422 H 0.79465 0.87627 0.35769 0.0
H423 H 0.87437 0.08539 0.35834 0.0
O424 O 0.83066 0.08385 0.32366 0.0
H425 H 0.96962 0.05829 0.30723 0.0
H426 H 0.8771 0.11659 0.24388 0.0
H427 H 0.84381 0.00788 0.26728 0.0
H428 H 0.91702 0.03699 0.29513 0.0
H429 H 0.87066 0.10127 0.28969 0.0
O430 O 0.86523 0.99085 0.39355 0.0
H431 H 0.81227 0.92861 0.34162 0.0
H432 H 0.82171 0.96228 0.41874 0.0
H433 H 0.85021 0.02211 0.22123 0.0
H434 H 0.92645 0.10747 0.37102 0.0
H435 H 0.86697 0.07682 0.20929 0.0
H436 H 0.97456 0.09381 0.34544 0.0
O437 O 0.80951 0.0234 0.30791 0.0
H438 H 0.80029 0.07279 0.43094 0.0
H439 H 0.76251 0.98298 0.37779 0.0
H440 H 0.72452 0.01184 0.40557 0.0
H441 H 0.74337 0.05709 0.4324 0.0
H442 H 0.83742 0.04342 0.40274 0.0
H443 H 0.80444 0.91022 0.43569 0.0
H444 H 0.79064 0.86682 0.40505 0.0
O445 O 0.79822 0.98728 0.33872 0.0
C446 C 0.87488 0.97322 0.32121 0.0
C447 C 0.80047 0.89503 0.37123 0.0
C448 C 0.80601 0.91407 0.41501 0.0
N449 N 0.81769 0.94855 0.37921 0.0
C450 C 0.81035 0.92474 0.36224 0.0
C451 C 0.81582 0.94347 0.40531 0.0
C452 C 0.79826 0.88973 0.39781 0.0
C453 C 0.89515 0.07958 0.34698 0.0
N454 N 0.89266 0.05996 0.326 0.0
C455 C 0.92459 0.09205 0.35431 0.0
C456 C 0.95159 0.08435 0.33997 0.0
C457 C 0.94884 0.0644 0.31854 0.0
C458 C 0.91901 0.05233 0.31182 0.0
C459 C 0.86985 0.09266 0.24884 0.0
C460 C 0.85132 0.03167 0.26222 0.0
C461 C 0.8661 0.08387 0.27473 0.0
N462 N 0.85712 0.05364 0.28113 0.0
C463 C 0.85481 0.03961 0.23612 0.0
C464 C 0.86417 0.07033 0.22944 0.0
C465 C 0.79198 0.00166 0.31756 0.0
C466 C 0.79182 0.05305 0.4194 0.0
C467 C 0.77088 0.00267 0.38939 0.0
C468 C 0.74927 0.01888 0.40512 0.0
C469 C 0.75987 0.04426 0.42018 0.0
N470 N 0.80218 0.01141 0.38876 0.0
C471 C 0.81276 0.03624 0.40349 0.0
H472 H 0.98152 0.45634 0.89148 0.0
H473 H 0.98153 0.49276 0.92844 0.0
H474 H 0.0137 0.41698 0.97821 0.0
H475 H 0.01417 0.38049 0.94141 0.0
H476 H 0.94759 0.48747 0.97538 0.0
H477 H 0.07812 0.48851 0.99184 0.0
H478 H 0.06045 0.47391 0.96228 0.0
H479 H 0.06069 0.44954 0.99086 0.0
C480 C 0.98873 0.44744 0.91027 0.0
C481 C 0.99808 0.41558 0.91348 0.0
C482 C 0.98867 0.46826 0.93134 0.0
C483 C 0.9981 0.45764 0.95591 0.0
C484 C 0.00697 0.42577 0.95927 0.0
H485 H 0.01253 0.54407 0.10773 0.0
H486 H 0.01202 0.50781 0.07068 0.0
C487 C 0.00705 0.40493 0.93824 0.0
C488 C 0.99808 0.47975 0.97818 0.0
H489 H 0.04618 0.51352 0.02377 0.0
C490 C 0.96913 0.49333 0.98591 0.0
C491 C 0.02626 0.48722 0.99183 0.0
C492 C 0.05822 0.47429 0.9837 0.0
C493 C 0.9675 0.51381 0.00731 0.0
C494 C 0.99568 0.52122 0.021 0.0
C495 C 0.02463 0.50767 0.01324 0.0
C496 C 0.99567 0.54319 0.04335 0.0
C497 C 0.93557 0.5268 0.01543 0.0
C498 C 0.98702 0.57514 0.04011 0.0
C499 C 0.98724 0.5959 0.06119 0.0
C500 C 0.99628 0.58508 0.08589 0.0
C501 C 0.00527 0.5531 0.089 0.0
C502 C 0.00506 0.53237 0.06787 0.0
H503 H 0.91564 0.51273 0.00715 0.0
H504 H 0.93326 0.527 0.03684 0.0
H505 H 0.93324 0.55162 0.00841 0.0
H506 H 0.98032 0.58407 0.02121 0.0
H507 H 0.98037 0.62043 0.0581 0.0
H508 H 0.45424 0.51126 0.60755 0.0
H509 H 0.49043 0.51227 0.57047 0.0
H510 H 0.41447 0.48092 0.5205 0.0
H511 H 0.378 0.48012 0.55732 0.0
H512 H 0.50696 0.46159 0.53721 0.0
H513 H 0.44897 0.56045 0.48376 0.0
H514 H 0.44094 0.55235 0.51746 0.0
H515 H 0.42277 0.52853 0.49264 0.0
C516 C 0.44519 0.50462 0.58867 0.0
C517 C 0.41322 0.49569 0.58536 0.0
C518 C 0.4659 0.50522 0.56753 0.0
C519 C 0.45497 0.4971 0.54274 0.0
C520 C 0.42318 0.48786 0.53941 0.0
H521 H 0.54332 0.48383 0.39148 0.0
H522 H 0.5069 0.48226 0.42839 0.0
C523 C 0.40244 0.48726 0.56051 0.0
C524 C 0.47701 0.49764 0.52045 0.0
H525 H 0.48995 0.53266 0.46179 0.0
C526 C 0.50337 0.4772 0.52075 0.0
C527 C 0.47211 0.51801 0.49904 0.0
C528 C 0.44483 0.5413 0.49819 0.0
C529 C 0.52478 0.47622 0.49995 0.0
C530 C 0.51991 0.49662 0.47855 0.0
C531 C 0.49352 0.51703 0.47824 0.0
C532 C 0.5421 0.49737 0.45636 0.0
C533 C 0.55206 0.45294 0.5008 0.0
C534 C 0.57381 0.50675 0.45989 0.0
C535 C 0.59468 0.50767 0.43889 0.0
C536 C 0.5841 0.49944 0.41394 0.0
C537 C 0.55221 0.49033 0.41044 0.0
C538 C 0.53137 0.48941 0.43148 0.0
H539 H 0.54785 0.4337 0.51514 0.0
H540 H 0.55607 0.44202 0.4815 0.0
H541 H 0.57409 0.46569 0.50649 0.0
H542 H 0.58236 0.51358 0.47888 0.0
H543 H 0.61906 0.51494 0.44222 0.0
H544 H 0.48659 0.95322 0.10702 0.0
H545 H 0.48583 0.98917 0.0698 0.0
H546 H 0.5192 0.91341 0.02055 0.0
H547 H 0.51976 0.87716 0.05753 0.0
H548 H 0.53686 0.00629 0.03709 0.0
H549 H 0.43979 0.94648 0.98271 0.0
H550 H 0.44742 0.93877 0.01653 0.0
H551 H 0.47198 0.92087 0.99208 0.0
C552 C 0.49375 0.94417 0.08827 0.0
C553 C 0.50316 0.91231 0.08521 0.0
C554 C 0.49328 0.96474 0.06705 0.0
C555 C 0.50203 0.95379 0.04242 0.0
C556 C 0.51178 0.92213 0.03933 0.0
H557 H 0.51582 0.04204 0.89105 0.0
H558 H 0.51759 0.0057 0.92801 0.0
C559 C 0.51224 0.90152 0.06052 0.0
C560 C 0.50155 0.97569 0.02003 0.0
H561 H 0.46719 0.9879 0.961 0.0
C562 C 0.52156 0.00238 0.02048 0.0
C563 C 0.48159 0.9704 0.99842 0.0
C564 C 0.45875 0.94274 0.99739 0.0
C565 C 0.5225 0.02376 -0.00035 0.0
C566 C 0.50248 0.0185 0.97806 0.0
C567 C 0.48253 0.99177 0.97759 0.0
C568 C 0.50165 0.04066 0.95585 0.0
C569 C 0.54532 0.05143 0.00069 0.0
C570 C 0.49174 0.07222 0.95928 0.0
C571 C 0.49071 0.09305 0.93825 0.0
C572 C 0.49935 0.08258 0.91337 0.0
C573 C 0.509 0.05084 0.90996 0.0
C574 C 0.51003 0.03004 0.93103 0.0
H575 H 0.56447 0.04753 0.01518 0.0
H576 H 0.55641 0.05564 0.98149 0.0
H577 H 0.53214 0.07322 0.0063 0.0
H578 H 0.48458 0.08068 0.97821 0.0
H579 H 0.48302 0.1173 0.94151 0.0
H580 H 0.95649 0.01739 0.39065 0.0
H581 H 0.99282 0.01834 0.42761 0.0
H582 H 0.91821 0.98292 0.47711 0.0
H583 H 0.88156 0.98215 0.44035 0.0
H584 H 0.95188 0.03534 0.49756 0.0
H585 H 0.03342 0.94055 0.46286 0.0
H586 H 0.02673 0.97226 0.44021 0.0
H587 H 0.99435 0.94668 0.44924 0.0
C588 C 0.94782 0.00966 0.40936 0.0
C589 C 0.91619 -0.0005 0.41253 0.0
C590 C 0.96866 0.0101 0.43042 0.0
C591 C 0.95829 0.00024 0.45495 0.0
C592 C 0.92667 0.99045 0.45826 0.0
H593 H 0.04415 0.98609 0.60733 0.0
H594 H 0.00786 0.98609 0.57034 0.0
C595 C 0.9058 0.99 0.43723 0.0
C596 C 0.98024 0.00073 0.47732 0.0
H597 H 0.04926 0.96882 0.5004 0.0
C598 C 0.97312 0.02073 0.49827 0.0
C599 C 0.0079 0.98165 0.47808 0.0
C600 C 0.01602 0.95884 0.45652 0.0
C601 C 0.99327 0.02256 0.51987 0.0
C602 C 0.02091 0.00344 0.52065 0.0
C603 C 0.02804 0.98347 0.49968 0.0
C604 C 0.04276 0.00372 0.5431 0.0
C605 C 0.98515 0.04538 0.54142 0.0
C606 C 0.07456 0.01296 0.53986 0.0
C607 C 0.09541 0.01284 0.56091 0.0
C608 C 0.08482 0.00332 0.58555 0.0
C609 C 0.05298 0.99383 0.58866 0.0
C610 C 0.03216 0.99395 0.56759 0.0
H611 H 0.968 0.06386 0.53498 0.0
H612 H 0.9741 0.03202 0.55762 0.0
H613 H 0.00685 0.05732 0.5489 0.0
H614 H 0.08319 0.0204 0.52105 0.0
H615 H 0.11981 0.02019 0.55783 0.0
H616 H 0.13925 0.67738 0.19261 0.0
H617 H 0.19371 0.69717 0.18988 0.0
H618 H 0.16954 0.74994 0.12099 0.0
H619 H 0.11455 0.73118 0.12421 0.0
H620 H 0.23835 0.69038 0.15438 0.0
H621 H 0.20934 0.81851 0.16389 0.0
H622 H 0.18028 0.7877 0.16931 0.0
H623 H 0.19013 0.79984 0.13687 0.0
C624 C 0.1455 0.69326 0.1769 0.0
C625 C 0.12258 0.70299 0.15876 0.0
C626 C 0.17665 0.70453 0.17535 0.0
C627 C 0.1856 0.7255 0.15551 0.0
C628 C 0.16297 0.73451 0.13689 0.0
H629 H 0.38708 0.76548 0.12555 0.0
H630 H 0.33233 0.74615 0.12205 0.0
C631 C 0.13162 0.72364 0.13867 0.0
C632 C 0.2187 0.73766 0.15445 0.0
H633 H 0.26297 0.80569 0.15468 0.0
C634 C 0.24376 0.7156 0.15445 0.0
C635 C 0.2257 0.77058 0.15484 0.0
C636 C 0.19997 0.79553 0.15649 0.0
C637 C 0.27562 0.72549 0.15515 0.0
C638 C 0.28263 0.75841 0.15494 0.0
C639 C 0.25757 0.78047 0.15463 0.0
C640 C 0.3157 0.77059 0.15639 0.0
C641 C 0.30131 0.70053 0.1571 0.0
C642 C 0.32428 0.79169 0.17627 0.0
C643 C 0.35531 0.80328 0.17798 0.0
C644 C 0.37845 0.79375 0.15997 0.0
C645 C 0.36982 0.77286 0.13992 0.0
C646 C 0.3386 0.76166 0.13798 0.0
H647 H 0.29181 0.67757 0.16441 0.0
H648 H 0.31147 0.69621 0.1376 0.0
H649 H 0.32079 0.70837 0.17014 0.0
H650 H 0.307 0.79898 0.19064 0.0
H651 H 0.36126 0.81936 0.19364 0.0
H652 H 0.25305 0.61113 0.63818 0.0
H653 H 0.23493 0.66631 0.63569 0.0
H654 H 0.31963 0.69708 0.67561 0.0
H655 H 0.33764 0.64203 0.67866 0.0
H656 H 0.26573 0.72192 0.69655 0.0
H657 H 0.26569 0.73899 0.59007 0.0
H658 H 0.24314 0.7051 0.60053 0.0
H659 H 0.28545 0.70595 0.60554 0.0
C660 C 0.26793 0.62966 0.64626 0.0
C661 C 0.29673 0.62218 0.65869 0.0
C662 C 0.25765 0.6612 0.64465 0.0
C663 C 0.27615 0.68581 0.65515 0.0
C664 C 0.30506 0.67843 0.66729 0.0
H665 H 0.24636 0.88946 0.63745 0.0
H666 H 0.26703 0.83509 0.63553 0.0
C667 C 0.3153 0.64694 0.66902 0.0
C668 C 0.26455 0.71905 0.65493 0.0
H669 H 0.2403 0.77923 0.61519 0.0
C670 C 0.26031 0.73451 0.67876 0.0
C671 C 0.25787 0.73552 0.63168 0.0
C672 C 0.26354 0.72069 0.60548 0.0
C673 C 0.24905 0.76582 0.68001 0.0
C674 C 0.24119 0.78187 0.65682 0.0
C675 C 0.24601 0.76669 0.63294 0.0
C676 C 0.22801 0.81448 0.65706 0.0
C677 C 0.24605 0.78158 0.70616 0.0
C678 C 0.19892 0.8207 0.66934 0.0
C679 C 0.18713 0.85167 0.67059 0.0
C680 C 0.20412 0.87699 0.65939 0.0
C681 C 0.23281 0.87053 0.64642 0.0
C682 C 0.24462 0.8395 0.64524 0.0
H683 H 0.26081 0.76947 0.72102 0.0
H684 H 0.25323 0.80697 0.7052 0.0
H685 H 0.22089 0.7805 0.71257 0.0
H686 H 0.18542 0.80159 0.67811 0.0
H687 H 0.1648 0.85577 0.6805 0.0
H688 H 0.63971 0.17676 0.80727 0.0
H689 H 0.69411 0.19613 0.81206 0.0
H690 H 0.66637 0.24973 0.87962 0.0
H691 H 0.61151 0.23136 0.87435 0.0
H692 H 0.70211 0.28471 0.84936 0.0
H693 H 0.76133 0.16854 0.86174 0.0
H694 H 0.73894 0.16952 0.83224 0.0
H695 H 0.71867 0.17283 0.86287 0.0
C696 C 0.64523 0.19254 0.82324 0.0
C697 C 0.62138 0.20251 0.84047 0.0
C698 C 0.67641 0.20338 0.82608 0.0
C699 C 0.68453 0.22379 0.84656 0.0
C700 C 0.66071 0.23382 0.86378 0.0
H701 H 0.88563 0.26588 0.87514 0.0
H702 H 0.83074 0.24741 0.88018 0.0
C703 C 0.62938 0.22335 0.86072 0.0
C704 C 0.71753 0.23585 0.84917 0.0
H705 H 0.79518 0.21229 0.84972 0.0
C706 C 0.72244 0.26886 0.84977 0.0
C707 C 0.74409 0.21521 0.85032 0.0
C708 C 0.74047 0.17957 0.85206 0.0
C709 C 0.75319 0.28179 0.85036 0.0
C710 C 0.77976 0.26115 0.84943 0.0
C711 C 0.77484 0.22815 0.84998 0.0
C712 C 0.81277 0.27324 0.84699 0.0
C713 C 0.75677 0.31743 0.85214 0.0
C714 C 0.82099 0.29359 0.82651 0.0
C715 C 0.85216 0.30448 0.8238 0.0
C716 C 0.87592 0.29462 0.84117 0.0
C717 C 0.86783 0.27382 0.86142 0.0
C718 C 0.83649 0.26329 0.86434 0.0
H719 H 0.73583 0.32845 0.8617 0.0
H720 H 0.77848 0.32418 0.86308 0.0
H721 H 0.75847 0.3275 0.83233 0.0
H722 H 0.80338 0.30077 0.81238 0.0
H723 H 0.85775 0.3202 0.80782 0.0
H724 H 0.6769 0.35826 0.30763 0.0
H725 H 0.69563 0.30365 0.31232 0.0
H726 H 0.74847 0.33034 0.38059 0.0
H727 H 0.73077 0.3854 0.3754 0.0
H728 H 0.78366 0.29489 0.35057 0.0
H729 H 0.66709 0.23582 0.36096 0.0
H730 H 0.66864 0.25853 0.33164 0.0
H731 H 0.67146 0.27845 0.36247 0.0
C732 C 0.69236 0.35246 0.32373 0.0
C733 C 0.70236 0.37607 0.34117 0.0
C734 C 0.70282 0.32115 0.32653 0.0
C735 C 0.72285 0.31268 0.34716 0.0
C736 C 0.73285 0.33627 0.36462 0.0
H737 H 0.7648 0.11111 0.37411 0.0
H738 H 0.74575 0.16577 0.37944 0.0
C739 C 0.72277 0.36772 0.36161 0.0
C740 C 0.73474 0.27961 0.34961 0.0
H741 H 0.71097 0.20202 0.349 0.0
C742 C 0.76773 0.2746 0.35057 0.0
C743 C 0.71401 0.25309 0.35021 0.0
C744 C 0.67834 0.25676 0.35157 0.0
C745 C 0.78057 0.24384 0.35097 0.0
C746 C 0.75988 0.21734 0.34945 0.0
C747 C 0.72687 0.22232 0.34969 0.0
C748 C 0.77196 0.18439 0.34669 0.0
C749 C 0.81617 0.24014 0.35315 0.0
C750 C 0.79264 0.17661 0.32632 0.0
C751 C 0.80384 0.14559 0.32345 0.0
C752 C 0.79399 0.12155 0.34054 0.0
C753 C 0.77275 0.12915 0.36062 0.0
C754 C 0.76189 0.16035 0.3637 0.0
H755 H 0.82707 0.26089 0.36309 0.0
H756 H 0.82266 0.21823 0.36391 0.0
H757 H 0.8266 0.23877 0.33345 0.0
H758 H 0.79992 0.19448 0.31245 0.0
H759 H 0.81988 0.14038 0.3076 0.0
H760 H 0.75382 0.54013 0.33423 0.0
H761 H 0.79921 0.55901 0.30913 0.0
H762 H 0.77576 0.49365 0.24773 0.0
H763 H 0.73028 0.4743 0.27269 0.0
H764 H 0.84242 0.49707 0.26061 0.0
H765 H 0.78789 0.61564 0.24398 0.0
H766 H 0.78978 0.60363 0.27733 0.0
H767 H 0.76525 0.5818 0.25507 0.0
C768 C 0.75834 0.52953 0.31547 0.0
C769 C 0.73817 0.50583 0.30541 0.0
C770 C 0.78425 0.54047 0.30113 0.0
C771 C 0.79046 0.52805 0.27646 0.0
C772 C 0.77119 0.50361 0.26672 0.0
H773 H 0.90964 0.61835 0.16053 0.0
H774 H 0.86641 0.59152 0.18334 0.0
C775 C 0.74521 0.49263 0.28102 0.0
C776 C 0.81654 0.54123 0.26055 0.0
H777 H 0.84163 0.60935 0.23108 0.0
C778 C 0.84227 0.52157 0.25405 0.0
C779 C 0.81593 0.57305 0.25174 0.0
C780 C 0.78813 0.59475 0.25715 0.0
C781 C 0.86791 0.53319 0.23942 0.0
C782 C 0.86781 0.56535 0.23139 0.0
C783 C 0.84171 0.58476 0.23742 0.0
C784 C 0.89466 0.5796 0.21697 0.0
C785 C 0.89471 0.51094 0.23246 0.0
C786 C 0.92485 0.5818 0.22837 0.0
C787 C 0.94966 0.59711 0.21542 0.0
C788 C 0.94467 0.6107 0.19084 0.0
C789 C 0.9144 0.60813 0.17938 0.0
C790 C 0.88963 0.59282 0.19238 0.0
H791 H 0.88737 0.48563 0.23405 0.0
H792 H 0.90328 0.51543 0.21246 0.0
H793 H 0.91486 0.51488 0.24596 0.0
H794 H 0.92905 0.57232 0.24757 0.0
H795 H 0.97257 0.59875 0.22491 0.0
H796 H 0.37747 0.40786 0.66012 0.0
H797 H 0.40299 0.36409 0.6833 0.0
H798 H 0.4259 0.42729 0.74632 0.0
H799 H 0.40082 0.47132 0.72332 0.0
H800 H 0.47633 0.3862 0.73168 0.0
H801 H 0.36268 0.32147 0.74736 0.0
H802 H 0.37123 0.33125 0.71422 0.0
H803 H 0.36405 0.36251 0.7372 0.0
C804 C 0.38809 0.41257 0.67884 0.0
C805 C 0.38687 0.44313 0.6899 0.0
C806 C 0.40254 0.38746 0.69209 0.0
C807 C 0.41588 0.39242 0.71665 0.0
C808 C 0.41561 0.42301 0.72741 0.0
H809 H 0.45782 0.2523 0.83383 0.0
H810 H 0.43915 0.29805 0.8091 0.0
C811 C 0.40118 0.44813 0.71421 0.0
C812 C 0.42946 0.36559 0.73151 0.0
H813 H 0.40978 0.29554 0.76074 0.0
C814 C 0.46185 0.36632 0.73803 0.0
C815 C 0.41033 0.33999 0.74003 0.0
C816 C 0.37508 0.33873 0.73459 0.0
C817 C 0.47574 0.34189 0.75271 0.0
C818 C 0.45673 0.31598 0.76076 0.0
C819 C 0.4243 0.31539 0.75438 0.0
C820 C 0.46977 0.28937 0.7762 0.0
C821 C 0.51042 0.34432 0.75993 0.0
C822 C 0.49328 0.26938 0.7659 0.0
C823 C 0.50411 0.24317 0.78 0.0
C824 C 0.49145 0.23637 0.80462 0.0
C825 C 0.46817 0.25677 0.81498 0.0
C826 C 0.4574 0.28294 0.80086 0.0
H827 H 0.51956 0.36895 0.7577 0.0
H828 H 0.51434 0.33653 0.78022 0.0
H829 H 0.52453 0.32858 0.74707 0.0
H830 H 0.5027 0.27362 0.74669 0.0
H831 H 0.52191 0.2279 0.77134 0.0
H832 H 0.59268 0.86073 0.17121 0.0
H833 H 0.63563 0.8869 0.19486 0.0
H834 H 0.56751 0.94889 0.23167 0.0
H835 H 0.52429 0.92174 0.20906 0.0
H836 H 0.65802 0.94496 0.19661 0.0
H837 H 0.61141 0.91419 0.2938 0.0
H838 H 0.59467 0.89803 0.26452 0.0
H839 H 0.5839 0.93735 0.27518 0.0
C840 C 0.58684 0.87999 0.1843 0.0
C841 C 0.55505 0.88892 0.18852 0.0
C842 C 0.61143 0.89495 0.1978 0.0
C843 C 0.60476 0.91938 0.21553 0.0
C844 C 0.57316 0.9294 0.21877 0.0
H845 H 0.7599 0.03484 0.2801 0.0
H846 H 0.71332 0.01738 0.2555 0.0
C847 C 0.54849 0.91402 0.20568 0.0
C848 C 0.63091 0.93388 0.23081 0.0
H849 H 0.6557 0.9489 0.29254 0.0
C850 C 0.65755 0.9458 0.2176 0.0
C851 C 0.63047 0.93456 0.25822 0.0
C852 C 0.60374 0.92006 0.27378 0.0
C853 C 0.68389 0.95807 0.23099 0.0
C854 C 0.68304 0.95959 0.25837 0.0
C855 C 0.65623 0.94802 0.27155 0.0
C856 C 0.71041 0.9712 0.2739 0.0
C857 C 0.71278 0.96803 0.21565 0.0
C858 C 0.72338 0.95171 0.29327 0.0
C859 C 0.74938 0.96195 0.30782 0.0
C860 C 0.76328 0.99179 0.30308 0.0
C861 C 0.74997 0.01155 0.28398 0.0
C862 C 0.72351 0.0015 0.26975 0.0
H863 H 0.71307 0.95696 0.19612 0.0
H864 H 0.71242 0.99421 0.21299 0.0
H865 H 0.7351 0.96149 0.22583 0.0
H866 H 0.71364 0.92828 0.29692 0.0
H867 H 0.75899 0.94612 0.32237 0.0
H868 H 0.05389 0.25926 0.82301 0.0
H869 H 0.07227 0.21384 0.79783 0.0
H870 H 0.98146 0.20917 0.75908 0.0
H871 H 0.96338 0.2557 0.78338 0.0
H872 H 0.05369 0.15493 0.79461 0.0
H873 H 0.03933 0.21046 0.698 0.0
H874 H 0.03534 0.23275 0.72762 0.0
H875 H 0.00283 0.20886 0.7159 0.0
C876 C 0.03779 0.24862 0.80913 0.0
C877 C 0.00728 0.2613 0.805 0.0
C878 C 0.04834 0.22261 0.79473 0.0
C879 C 0.02852 0.20848 0.77613 0.0
C880 C 0.99757 0.22029 0.7727 0.0
H881 H 0.0785 0.02275 0.71149 0.0
H882 H 0.05219 0.06588 0.73479 0.0
C883 C 0.98717 0.24673 0.78676 0.0
C884 C 0.04045 0.18132 0.76055 0.0
H885 H 0.05261 0.15567 0.69861 0.0
C886 C 0.05349 0.15511 0.77361 0.0
C887 C 0.04061 0.18177 0.73313 0.0
C888 C 0.02908 0.2101 0.71783 0.0
C889 C 0.06691 0.12949 0.7601 0.0
C890 C 0.06611 0.12945 0.73269 0.0
C891 C 0.05289 0.15555 0.71961 0.0
C892 C 0.08022 0.10329 0.71719 0.0
C893 C 0.08287 0.10339 0.77541 0.0
C894 C 0.10351 0.11005 0.6985 0.0
C895 C 0.11799 0.08549 0.68464 0.0
C896 C 0.1097 0.05365 0.68942 0.0
C897 C 0.08572 0.04699 0.70761 0.0
C898 C 0.07083 0.07162 0.7211 0.0
H899 H 0.08969 0.11158 0.7951 0.0
H900 H 0.06611 0.08321 0.7777 0.0
H901 H 0.10455 0.09463 0.76544 0.0
H902 H 0.11103 0.13431 0.69504 0.0
H903 H 0.13638 0.09142 0.67078 0.0
H904 H 0.0244 0.3999 0.77343 0.0
H905 H 0.0681 0.42577 0.75046 0.0
H906 H 0.12885 0.41301 0.8169 0.0
H907 H 0.08553 0.38674 0.84002 0.0
H908 H 0.10624 0.47992 0.76314 0.0
H909 H 0.17645 0.36815 0.75726 0.0
H910 H 0.13486 0.36862 0.76586 0.0
H911 H 0.16446 0.37948 0.78934 0.0
C912 C 0.04696 0.40273 0.78328 0.0
C913 C 0.0515 0.39091 0.80852 0.0
C914 C 0.07187 0.4176 0.77012 0.0
C915 C 0.10175 0.42085 0.78188 0.0
C916 C 0.10607 0.41023 0.80737 0.0
H917 H 0.26644 0.52607 0.72589 0.0
H918 H 0.21996 0.50834 0.75046 0.0
C919 C 0.08121 0.39532 0.82056 0.0
C920 C 0.12872 0.43419 0.76706 0.0
H921 H 0.20104 0.41486 0.74161 0.0
C922 C 0.12702 0.46579 0.75844 0.0
C923 C 0.15554 0.41546 0.76074 0.0
C924 C 0.15797 0.38096 0.76855 0.0
C925 C 0.1517 0.47928 0.74378 0.0
C926 C 0.17873 0.46068 0.73785 0.0
C927 C 0.18031 0.42906 0.74635 0.0
C928 C 0.20545 0.47317 0.72227 0.0
C929 C 0.14846 0.51303 0.73428 0.0
C930 C 0.21265 0.45916 0.69836 0.0
C931 C 0.23915 0.46913 0.68429 0.0
C932 C 0.25917 0.49318 0.69398 0.0
C933 C 0.25152 0.50757 0.7178 0.0
C934 C 0.2249 0.49758 0.73183 0.0
H935 H 0.12361 0.5218 0.73588 0.0
H936 H 0.16392 0.52876 0.74608 0.0
H937 H 0.15621 0.51499 0.71379 0.0
H938 H 0.19794 0.44019 0.69073 0.0
H939 H 0.24424 0.45747 0.66606 0.0
H940 H 0.61943 0.58856 0.34064 0.0
H941 H 0.59271 0.63243 0.31856 0.0
H942 H 0.56919 0.57028 0.25497 0.0
H943 H 0.5955 0.52614 0.2769 0.0
H944 H 0.60935 0.65659 0.27031 0.0
H945 H 0.48428 0.61447 0.27062 0.0
H946 H 0.51443 0.5978 0.29151 0.0
H947 H 0.51218 0.58603 0.2581 0.0
C948 C 0.60826 0.58404 0.3221 0.0
C949 C 0.60962 0.55374 0.31059 0.0
C950 C 0.59302 0.60918 0.30952 0.0
C951 C 0.57864 0.60448 0.28531 0.0
C952 C 0.57957 0.57424 0.27389 0.0
H953 H 0.53963 0.74304 0.16686 0.0
H954 H 0.55788 0.69814 0.19279 0.0
C955 C 0.59483 0.54908 0.28642 0.0
C956 C 0.56461 0.63168 0.2712 0.0
H957 H 0.49613 0.65862 0.24321 0.0
C958 C 0.58455 0.65715 0.26454 0.0
C959 C 0.53219 0.63243 0.26392 0.0
C960 C 0.50941 0.60637 0.27159 0.0
C961 C 0.57312 0.68303 0.2502 0.0
C962 C 0.54103 0.68319 0.24204 0.0
C963 C 0.52082 0.65818 0.24928 0.0
C964 C 0.52823 0.70915 0.2258 0.0
C965 C 0.59545 0.71007 0.24397 0.0
C966 C 0.50473 0.72956 0.23552 0.0
C967 C 0.49411 0.7553 0.22073 0.0
C968 C 0.50673 0.76092 0.1959 0.0
C969 C 0.52949 0.73963 0.18594 0.0
C970 C 0.54008 0.71399 0.20075 0.0
H971 H 0.6167 0.71001 0.25676 0.0
H972 H 0.60373 0.7077 0.22367 0.0
H973 H 0.58322 0.73335 0.24591 0.0
H974 H 0.49521 0.72604 0.2548 0.0
H975 H 0.47651 0.77112 0.229 0.0
H976 H 0.47292 0.09322 0.77632 0.0
H977 H 0.4288 0.0674 0.75385 0.0
H978 H 0.3661 0.09067 0.8171 0.0
H979 H 0.4099 0.11684 0.83974 0.0
H980 H 0.38681 0.01684 0.76957 0.0
H981 H 0.32421 0.13138 0.75242 0.0
H982 H 0.36536 0.12945 0.76224 0.0
H983 H 0.3343 0.12327 0.78558 0.0
C984 C 0.44983 0.09272 0.7856 0.0
C985 C 0.44495 0.1074 0.80978 0.0
C986 C 0.42468 0.07786 0.77273 0.0
C987 C 0.3942 0.07753 0.7837 0.0
C988 C 0.38941 0.09111 0.80818 0.0
H989 H 0.22689 0.9751 0.72875 0.0
H990 H 0.2728 0.993 0.75393 0.0
C991 C 0.41453 0.10597 0.82111 0.0
C992 C 0.36717 0.06409 0.76901 0.0
H993 H 0.29769 0.0846 0.73928 0.0
C994 C 0.36725 0.03156 0.76297 0.0
C995 C 0.34198 0.08355 0.76019 0.0
C996 C 0.34141 0.11891 0.7652 0.0
C997 C 0.34256 0.01788 0.74842 0.0
C998 C 0.31713 0.03727 0.73997 0.0
C999 C 0.31716 0.0698 0.74594 0.0
C1000 C 0.29058 0.02464 0.72424 0.0
C1001 C 0.34418 0.98301 0.74171 0.0
C1002 C 0.28532 0.03664 0.69929 0.0
C1003 C 0.25911 0.02662 0.68489 0.0
C1004 C 0.23746 0.00447 0.69523 0.0
C1005 C 0.24312 0.99206 0.72012 0.0
C1006 C 0.26943 0.00214 0.73452 0.0
H1007 H 0.36842 0.97315 0.7447 0.0
H1008 H 0.32745 0.96966 0.75426 0.0
H1009 H 0.33707 0.97898 0.72126 0.0
H1010 H 0.30136 0.0541 0.69107 0.0
H1011 H 0.25558 0.03673 0.66582 0.0
H1012 H 0.94679 0.7436 0.17683 0.0
H1013 H 0.9316 0.79095 0.20095 0.0
H1014 H 0.0234 0.79211 0.23832 0.0
H1015 H 0.03825 0.74363 0.21508 0.0
H1016 H 0.97956 0.80222 0.27244 0.0
H1017 H 0.95459 0.88124 0.18971 0.0
H1018 H 0.93115 0.84581 0.1873 0.0
H1019 H 0.97394 0.8433 0.18571 0.0
C1020 C 0.96389 0.75405 0.19 0.0
C1021 C 0.99377 0.73991 0.19398 0.0
C1022 C 0.95525 0.78134 0.20365 0.0
C1023 C 0.97662 0.79563 0.221 0.0
C1024 C 0.00658 0.78165 0.22491 0.0
H1025 H 0.92161 0.98031 0.28479 0.0
H1026 H 0.95078 0.93843 0.26225 0.0
C1027 C 0.01503 0.75396 0.21161 0.0
C1028 C 0.96688 0.82404 0.2361 0.0
H1029 H 0.93068 0.89625 0.23039 0.0
C1030 C 0.96932 0.823 0.26321 0.0
C1031 C 0.9542 0.85153 0.22413 0.0
C1032 C 0.95368 0.85568 0.1951 0.0
C1033 C 0.95811 0.84803 0.27868 0.0
C1034 C 0.94291 0.87426 0.26677 0.0
C1035 C 0.9418 0.87594 0.23962 0.0
C1036 C 0.927 0.89968 0.28195 0.0
C1037 C 0.96295 0.84606 0.30759 0.0
C1038 C 0.90392 0.89194 0.30056 0.0
C1039 C 0.8877 0.91585 0.31387 0.0
C1040 C 0.89356 0.94803 0.30829 0.0
C1041 C 0.91653 0.95577 0.28955 0.0
C1042 C 0.93322 0.93183 0.27663 0.0
H1043 H 0.98431 0.83168 0.31241 0.0
H1044 H 0.96568 0.86999 0.31638 0.0
H1045 H 0.9421 0.83415 0.31651 0.0
H1046 H 0.89783 0.86738 0.30441 0.0
H1047 H 0.86984 0.90906 0.32793 0.0
loop_
_geom_bond_atom_site_label_1
_geom_bond_atom_site_label_2
_geom_bond_distance
_geom_bond_site_symmetry_2
_ccdc_geom_bond_type
Co0 O2 2.143 . S
Co0 O8 2.074 1_455 S
Co0 O11 2.093 . S
Co0 O24 2.097 . S
Co0 N41 2.151 . S
Co0 N49 2.214 . S
Co1 O2 2.160 1_655 S
Co1 O7 2.058 . S
Co1 O17 2.057 . S
Co1 O32 2.037 . S
Co1 N36 2.145 . S
Co1 N57 2.245 1_655 S
O2 Co0 2.143 . S
O2 Co1 2.160 1_455 S
C3 O4 1.278 . S
C3 O11 1.224 . S
O4 C3 1.278 . S
C5 O6 1.245 . S
C5 O17 1.232 1_455 S
O6 C5 1.245 . S
O7 Co1 2.058 . S
O7 C33 1.269 . S
O8 Co0 2.074 1_655 S
O8 C33 1.257 . S
H9 C34 0.930 . S
H10 C40 0.930 . S
O11 Co0 2.093 . S
O11 C3 1.224 . S
H12 C44 0.929 . S
H13 C46 0.930 . S
H14 C47 0.930 1_655 S
H15 C45 0.929 . S
H16 C48 0.928 . S
O17 Co1 2.057 . S
O17 C5 1.232 1_655 S
H18 C37 0.929 . S
H19 C38 0.929 . S
H20 C50 0.931 1_655 S
H21 C42 0.929 . S
H22 C51 0.930 . S
H23 C43 0.931 . S
O24 Co0 2.097 . S
O24 C52 1.214 1_455 S
H25 C53 0.929 . S
H26 C54 0.929 . S
H27 C55 0.930 1_655 S
H28 C56 0.929 . S
H29 C58 0.930 . S
H30 C35 0.930 . S
H31 C39 0.930 . S
O32 Co1 2.037 . S
O32 C52 1.234 . S
C33 O7 1.269 . S
C33 O8 1.257 . S
C34 H9 0.930 . S
C34 C37 1.388 . S
C34 C39 1.418 . S
C35 H30 0.930 . S
C35 C38 1.404 . S
C35 C39 1.353 . S
N36 Co1 2.145 . S
N36 C37 1.397 . S
N36 C38 1.334 . S
C37 H18 0.929 . S
C37 C34 1.388 . S
C37 N36 1.397 . S
C38 H19 0.929 . S
C38 C35 1.404 . S
C38 N36 1.334 . S
C39 H31 0.930 . S
C39 C34 1.418 . S
C39 C35 1.353 . S
C40 H10 0.930 . S
C40 N41 1.330 . S
C40 C42 1.446 . S
N41 Co0 2.151 . S
N41 C40 1.330 . S
N41 C45 1.418 . S
C42 H21 0.929 . S
C42 C40 1.446 . S
C42 C43 1.332 . S
C43 H23 0.931 . S
C43 C42 1.332 . S
C43 C44 1.267 . S
C44 H12 0.929 . S
C44 C43 1.267 . S
C44 C45 1.251 . S
C45 H15 0.929 . S
C45 N41 1.418 . S
C45 C44 1.251 . S
C46 H13 0.930 . S
C46 C48 1.406 . S
C46 C51 1.261 . S
C47 H14 0.930 1_455 S
C47 N49 1.325 . S
C47 C50 1.357 . S
C48 H16 0.928 . S
C48 C46 1.406 . S
C48 N49 1.261 . S
N49 Co0 2.214 . S
N49 C47 1.325 . S
N49 C48 1.261 . S
C50 H20 0.931 1_455 S
C50 C47 1.357 . S
C50 C51 1.312 . S
C51 H22 0.930 . S
C51 C46 1.261 . S
C51 C50 1.312 . S
C52 O24 1.214 1_655 S
C52 O32 1.234 . S
C53 H25 0.929 . S
C53 C56 1.391 . S
C53 C58 1.391 . S
C54 H26 0.929 . S
C54 C55 1.390 1_655 S
C54 N57 1.379 1_655 S
C55 H27 0.930 1_455 S
C55 C54 1.390 1_455 S
C55 C56 1.392 . S
C56 H28 0.929 . S
C56 C53 1.391 . S
C56 C55 1.392 . S
N57 Co1 2.245 1_455 S
N57 C54 1.379 1_455 S
N57 C58 1.415 . S
C58 H29 0.930 . S
C58 C53 1.391 . S
C58 N57 1.415 . S
Co59 O61 2.143 . S
Co59 O67 2.074 . S
Co59 O70 2.093 . S
Co59 O83 2.097 . S
Co59 N100 2.151 . S
Co59 N108 2.214 . S
Co60 O61 2.160 . S
Co60 O66 2.058 . S
Co60 O76 2.057 . S
Co60 O91 2.037 . S
Co60 N95 2.145 . S
Co60 N116 2.257 . S
O61 Co59 2.143 . S
O61 Co60 2.160 . S
C62 O63 1.278 . S
C62 O70 1.224 . S
O63 C62 1.278 . S
C64 O65 1.245 . S
C64 O76 1.232 . S
O65 C64 1.245 . S
O66 Co60 2.058 . S
O66 C92 1.269 . S
O67 Co59 2.074 . S
O67 C92 1.257 . S
H68 C93 0.930 . S
H69 C99 0.930 . S
O70 Co59 2.093 . S
O70 C62 1.224 . S
H71 C103 0.929 . S
H72 C105 0.930 . S
H73 C106 0.930 . S
H74 C104 0.929 . S
H75 C107 0.928 . S
O76 Co60 2.057 . S
O76 C64 1.232 . S
H77 C96 0.929 . S
H78 C97 0.929 . S
H79 C109 0.931 . S
H80 C101 0.929 . S
H81 C110 0.930 . S
H82 C102 0.931 . S
O83 Co59 2.097 . S
O83 C111 1.214 . S
H84 C112 0.929 . S
H85 C113 0.929 . S
H86 C114 0.930 . S
H87 C115 0.929 . S
H88 C117 0.930 . S
H89 C94 0.930 . S
H90 C98 0.930 . S
O91 Co60 2.037 . S
O91 C111 1.234 . S
C92 O66 1.269 . S
C92 O67 1.257 . S
C93 H68 0.930 . S
C93 C96 1.388 . S
C93 C98 1.418 . S
C94 H89 0.930 . S
C94 C97 1.404 . S
C94 C98 1.353 . S
N95 Co60 2.145 . S
N95 C96 1.397 . S
N95 C97 1.334 . S
C96 H77 0.929 . S
C96 C93 1.388 . S
C96 N95 1.397 . S
C97 H78 0.929 . S
C97 C94 1.404 . S
C97 N95 1.334 . S
C98 H90 0.930 . S
C98 C93 1.418 . S
C98 C94 1.353 . S
C99 H69 0.930 . S
C99 N100 1.330 . S
C99 C101 1.446 . S
N100 Co59 2.151 . S
N100 C99 1.330 . S
N100 C104 1.418 . S
C101 H80 0.929 . S
C101 C99 1.446 . S
C101 C102 1.332 . S
C102 H82 0.931 . S
C102 C101 1.332 . S
C102 C103 1.267 . S
C103 H71 0.929 . S
C103 C102 1.267 . S
C103 C104 1.251 . S
C104 H74 0.929 . S
C104 N100 1.418 . S
C104 C103 1.251 . S
C105 H72 0.930 . S
C105 C107 1.406 . S
C105 C110 1.261 . S
C106 H73 0.930 . S
C106 N108 1.325 . S
C106 C109 1.357 . S
C107 H75 0.928 . S
C107 C105 1.406 . S
C107 N108 1.261 . S
N108 Co59 2.214 . S
N108 C106 1.325 . S
N108 C107 1.261 . S
C109 H79 0.931 . S
C109 C106 1.357 . S
C109 C110 1.312 . S
C110 H81 0.930 . S
C110 C105 1.261 . S
C110 C109 1.312 . S
C111 O83 1.214 . S
C111 O91 1.234 . S
C112 H84 0.929 . S
C112 C115 1.391 . S
C112 C117 1.391 . S
C113 H85 0.929 . S
C113 C114 1.390 . S
C113 N116 1.391 . S
C114 H86 0.930 . S
C114 C113 1.390 . S
C114 C115 1.392 . S
C115 H87 0.929 . S
C115 C112 1.391 . S
C115 C114 1.392 . S
N116 Co60 2.257 . S
N116 C113 1.391 . S
N116 C117 1.388 . S
C117 H88 0.930 . S
C117 C112 1.391 . S
C117 N116 1.388 . S
Co118 O120 2.143 . S
Co118 O126 2.074 . S
Co118 O129 2.093 . S
Co118 O142 2.097 . S
Co118 N159 2.151 . S
Co118 N167 2.214 . S
Co119 O120 2.160 . S
Co119 O125 2.058 . S
Co119 O135 2.057 . S
Co119 O150 2.037 . S
Co119 N154 2.145 . S
Co119 N175 2.257 . S
O120 Co118 2.143 . S
O120 Co119 2.160 . S
C121 O122 1.278 . S
C121 O129 1.224 . S
O122 C121 1.278 . S
C123 O124 1.245 . S
C123 O135 1.232 . S
O124 C123 1.245 . S
O125 Co119 2.058 . S
O125 C151 1.269 . S
O126 Co118 2.074 . S
O126 C151 1.257 . S
H127 C152 0.930 . S
H128 C158 0.930 . S
O129 Co118 2.093 . S
O129 C121 1.224 . S
H130 C162 0.929 . S
H131 C164 0.930 . S
H132 C165 0.930 . S
H133 C163 0.929 . S
H134 C166 0.928 . S
O135 Co119 2.057 . S
O135 C123 1.232 . S
H136 C155 0.929 . S
H137 C156 0.929 . S
H138 C168 0.931 . S
H139 C160 0.929 . S
H140 C169 0.930 . S
H141 C161 0.931 . S
O142 Co118 2.097 . S
O142 C170 1.214 . S
H143 C171 0.929 . S
H144 C172 0.929 . S
H145 C173 0.930 . S
H146 C174 0.929 . S
H147 C176 0.930 . S
H148 C153 0.930 . S
H149 C157 0.930 . S
O150 Co119 2.037 . S
O150 C170 1.234 . S
C151 O125 1.269 . S
C151 O126 1.257 . S
C152 H127 0.930 . S
C152 C155 1.388 . S
C152 C157 1.418 . S
C153 H148 0.930 . S
C153 C156 1.404 . S
C153 C157 1.353 . S
N154 Co119 2.145 . S
N154 C155 1.397 . S
N154 C156 1.334 . S
C155 H136 0.929 . S
C155 C152 1.388 . S
C155 N154 1.397 . S
C156 H137 0.929 . S
C156 C153 1.404 . S
C156 N154 1.334 . S
C157 H149 0.930 . S
C157 C152 1.418 . S
C157 C153 1.353 . S
C158 H128 0.930 . S
C158 N159 1.330 . S
C158 C160 1.446 . S
N159 Co118 2.151 . S
N159 C158 1.330 . S
N159 C163 1.418 . S
C160 H139 0.929 . S
C160 C158 1.446 . S
C160 C161 1.332 . S
C161 H141 0.931 . S
C161 C160 1.332 . S
C161 C162 1.267 . S
C162 H130 0.929 . S
C162 C161 1.267 . S
C162 C163 1.251 . S
C163 H133 0.929 . S
C163 N159 1.418 . S
C163 C162 1.251 . S
C164 H131 0.930 . S
C164 C166 1.406 . S
C164 C169 1.261 . S
C165 H132 0.930 . S
C165 N167 1.325 . S
C165 C168 1.357 . S
C166 H134 0.928 . S
C166 C164 1.406 . S
C166 N167 1.261 . S
N167 Co118 2.214 . S
N167 C165 1.325 . S
N167 C166 1.261 . S
C168 H138 0.931 . S
C168 C165 1.357 . S
C168 C169 1.312 . S
C169 H140 0.930 . S
C169 C164 1.261 . S
C169 C168 1.312 . S
C170 O142 1.214 . S
C170 O150 1.234 . S
C171 H143 0.929 . S
C171 C174 1.391 . S
C171 C176 1.391 . S
C172 H144 0.929 . S
C172 C173 1.390 . S
C172 N175 1.391 . S
C173 H145 0.930 . S
C173 C172 1.390 . S
C173 C174 1.392 . S
C174 H146 0.929 . S
C174 C171 1.391 . S
C174 C173 1.392 . S
N175 Co119 2.257 . S
N175 C172 1.391 . S
N175 C176 1.388 . S
C176 H147 0.930 . S
C176 C171 1.391 . S
C176 N175 1.388 . S
Co177 O179 2.143 . S
Co177 O185 2.074 1_565 S
Co177 O188 2.093 . S
Co177 O201 2.097 . S
Co177 N218 2.151 . S
Co177 N226 2.214 . S
Co178 O179 2.160 1_545 S
Co178 O184 2.058 . S
Co178 O194 2.057 . S
Co178 O209 2.037 . S
Co178 N213 2.145 . S
Co178 N234 2.246 1_545 S
O179 Co177 2.143 . S
O179 Co178 2.160 1_565 S
C180 O181 1.278 . S
C180 O188 1.224 . S
O181 C180 1.278 . S
C182 O183 1.245 . S
C182 O194 1.232 1_565 S
O183 C182 1.245 . S
O184 Co178 2.058 . S
O184 C210 1.269 . S
O185 Co177 2.074 1_545 S
O185 C210 1.257 . S
H186 C211 0.930 . S
H187 C217 0.930 . S
O188 Co177 2.093 . S
O188 C180 1.224 . S
H189 C221 0.929 . S
H190 C223 0.930 . S
H191 C224 0.930 1_545 S
H192 C222 0.929 . S
H193 C225 0.928 . S
O194 Co178 2.057 . S
O194 C182 1.232 1_545 S
H195 C214 0.929 . S
H196 C215 0.929 . S
H197 C227 0.931 1_545 S
H198 C219 0.929 . S
H199 C228 0.930 . S
H200 C220 0.931 . S
O201 Co177 2.097 . S
O201 C229 1.214 1_565 S
H202 C230 0.929 . S
H203 C231 0.929 . S
H204 C232 0.930 1_545 S
H205 C233 0.929 . S
H206 C235 0.930 . S
H207 C212 0.930 . S
H208 C216 0.930 . S
O209 Co178 2.037 . S
O209 C229 1.234 . S
C210 O184 1.269 . S
C210 O185 1.257 . S
C211 H186 0.930 . S
C211 C214 1.388 . S
C211 C216 1.418 . S
C212 H207 0.930 . S
C212 C215 1.404 . S
C212 C216 1.353 . S
N213 Co178 2.145 . S
N213 C214 1.397 . S
N213 C215 1.334 . S
C214 H195 0.929 . S
C214 C211 1.388 . S
C214 N213 1.397 . S
C215 H196 0.929 . S
C215 C212 1.404 . S
C215 N213 1.334 . S
C216 H208 0.930 . S
C216 C211 1.418 . S
C216 C212 1.353 . S
C217 H187 0.930 . S
C217 N218 1.330 . S
C217 C219 1.446 . S
N218 Co177 2.151 . S
N218 C217 1.330 . S
N218 C222 1.418 . S
C219 H198 0.929 . S
C219 C217 1.446 . S
C219 C220 1.332 . S
C220 H200 0.931 . S
C220 C219 1.332 . S
C220 C221 1.267 . S
C221 H189 0.929 . S
C221 C220 1.267 . S
C221 C222 1.251 . S
C222 H192 0.929 . S
C222 N218 1.418 . S
C222 C221 1.251 . S
C223 H190 0.930 . S
C223 C225 1.406 . S
C223 C228 1.261 . S
C224 H191 0.930 1_565 S
C224 N226 1.325 . S
C224 C227 1.357 . S
C225 H193 0.928 . S
C225 C223 1.406 . S
C225 N226 1.261 . S
N226 Co177 2.214 . S
N226 C224 1.325 . S
N226 C225 1.261 . S
C227 H197 0.931 1_565 S
C227 C224 1.357 . S
C227 C228 1.312 . S
C228 H199 0.930 . S
C228 C223 1.261 . S
C228 C227 1.312 . S
C229 O201 1.214 1_545 S
C229 O209 1.234 . S
C230 H202 0.929 . S
C230 C233 1.391 . S
C230 C235 1.391 . S
C231 H203 0.929 . S
C231 C232 1.390 1_545 S
C231 N234 1.379 1_545 S
C232 H204 0.930 1_565 S
C232 C231 1.390 1_565 S
C232 C233 1.392 . S
C233 H205 0.929 . S
C233 C230 1.391 . S
C233 C232 1.392 . S
N234 Co178 2.246 1_565 S
N234 C231 1.379 1_565 S
N234 C235 1.415 . S
C235 H206 0.930 . S
C235 C230 1.391 . S
C235 N234 1.415 . S
Co236 O238 2.143 . S
Co236 O244 2.074 1_655 S
Co236 O247 2.093 . S
Co236 O260 2.097 . S
Co236 N277 2.151 . S
Co236 N285 2.214 . S
Co237 O238 2.160 1_455 S
Co237 O243 2.058 . S
Co237 O253 2.057 . S
Co237 O268 2.037 . S
Co237 N272 2.145 . S
Co237 N293 2.245 1_455 S
O238 Co236 2.143 . S
O238 Co237 2.160 1_655 S
C239 O240 1.278 . S
C239 O247 1.224 . S
O240 C239 1.278 . S
C241 O242 1.245 . S
C241 O253 1.232 1_655 S
O242 C241 1.245 . S
O243 Co237 2.058 . S
O243 C269 1.269 . S
O244 Co236 2.074 1_455 S
O244 C269 1.257 . S
H245 C270 0.930 . S
H246 C276 0.930 . S
O247 Co236 2.093 . S
O247 C239 1.224 . S
H248 C280 0.929 . S
H249 C282 0.930 . S
H250 C283 0.930 1_455 S
H251 C281 0.929 . S
H252 C284 0.928 . S
O253 Co237 2.057 . S
O253 C241 1.232 1_455 S
H254 C273 0.929 . S
H255 C274 0.929 . S
H256 C286 0.931 1_455 S
H257 C278 0.929 . S
H258 C287 0.930 . S
H259 C279 0.931 . S
O260 Co236 2.097 . S
O260 C288 1.214 1_655 S
H261 C289 0.929 . S
H262 C290 0.929 . S
H263 C291 0.930 1_455 S
H264 C292 0.929 . S
H265 C294 0.930 . S
H266 C271 0.930 . S
H267 C275 0.930 . S
O268 Co237 2.037 . S
O268 C288 1.234 . S
C269 O243 1.269 . S
C269 O244 1.257 . S
C270 H245 0.930 . S
C270 C273 1.388 . S
C270 C275 1.418 . S
C271 H266 0.930 . S
C271 C274 1.404 . S
C271 C275 1.353 . S
N272 Co237 2.145 . S
N272 C273 1.397 . S
N272 C274 1.334 . S
C273 H254 0.929 . S
C273 C270 1.388 . S
C273 N272 1.397 . S
C274 H255 0.929 . S
C274 C271 1.404 . S
C274 N272 1.334 . S
C275 H267 0.930 . S
C275 C270 1.418 . S
C275 C271 1.353 . S
C276 H246 0.930 . S
C276 N277 1.330 . S
C276 C278 1.446 . S
N277 Co236 2.151 . S
N277 C276 1.330 . S
N277 C281 1.418 . S
C278 H257 0.929 . S
C278 C276 1.446 . S
C278 C279 1.332 . S
C279 H259 0.931 . S
C279 C278 1.332 . S
C279 C280 1.267 . S
C280 H248 0.929 . S
C280 C279 1.267 . S
C280 C281 1.251 . S
C281 H251 0.929 . S
C281 N277 1.418 . S
C281 C280 1.251 . S
C282 H249 0.930 . S
C282 C284 1.406 . S
C282 C287 1.261 . S
C283 H250 0.930 1_655 S
C283 N285 1.325 . S
C283 C286 1.357 . S
C284 H252 0.928 . S
C284 C282 1.406 . S
C284 N285 1.261 . S
N285 Co236 2.214 . S
N285 C283 1.325 . S
N285 C284 1.261 . S
C286 H256 0.931 1_655 S
C286 C283 1.357 . S
C286 C287 1.312 . S
C287 H258 0.930 . S
C287 C282 1.261 . S
C287 C286 1.312 . S
C288 O260 1.214 1_455 S
C288 O268 1.234 . S
C289 H261 0.929 . S
C289 C292 1.391 . S
C289 C294 1.391 . S
C290 H262 0.929 . S
C290 C291 1.390 1_455 S
C290 N293 1.379 1_455 S
C291 H263 0.930 1_655 S
C291 C290 1.390 1_655 S
C291 C292 1.392 . S
C292 H264 0.929 . S
C292 C289 1.391 . S
C292 C291 1.392 . S
N293 Co237 2.245 1_655 S
N293 C290 1.379 1_655 S
N293 C294 1.415 . S
C294 H265 0.930 . S
C294 C289 1.391 . S
C294 N293 1.415 . S
Co295 O297 2.143 . S
Co295 O303 2.074 . S
Co295 O306 2.093 . S
Co295 O319 2.097 . S
Co295 N336 2.151 . S
Co295 N344 2.214 . S
Co296 O297 2.160 . S
Co296 O302 2.058 . S
Co296 O312 2.057 . S
Co296 O327 2.037 . S
Co296 N331 2.145 . S
Co296 N352 2.257 . S
O297 Co295 2.143 . S
O297 Co296 2.160 . S
C298 O299 1.278 . S
C298 O306 1.224 . S
O299 C298 1.278 . S
C300 O301 1.245 . S
C300 O312 1.232 . S
O301 C300 1.245 . S
O302 Co296 2.058 . S
O302 C328 1.269 . S
O303 Co295 2.074 . S
O303 C328 1.257 . S
H304 C329 0.930 . S
H305 C335 0.930 . S
O306 Co295 2.093 . S
O306 C298 1.224 . S
H307 C339 0.929 . S
H308 C341 0.930 . S
H309 C342 0.930 . S
H310 C340 0.929 . S
H311 C343 0.928 . S
O312 Co296 2.057 . S
O312 C300 1.232 . S
H313 C332 0.929 . S
H314 C333 0.929 . S
H315 C345 0.931 . S
H316 C337 0.929 . S
H317 C346 0.930 . S
H318 C338 0.931 . S
O319 Co295 2.097 . S
O319 C347 1.214 . S
H320 C348 0.929 . S
H321 C349 0.929 . S
H322 C350 0.930 . S
H323 C351 0.929 . S
H324 C353 0.930 . S
H325 C330 0.930 . S
H326 C334 0.930 . S
O327 Co296 2.037 . S
O327 C347 1.234 . S
C328 O302 1.269 . S
C328 O303 1.257 . S
C329 H304 0.930 . S
C329 C332 1.388 . S
C329 C334 1.418 . S
C330 H325 0.930 . S
C330 C333 1.404 . S
C330 C334 1.353 . S
N331 Co296 2.145 . S
N331 C332 1.397 . S
N331 C333 1.334 . S
C332 H313 0.929 . S
C332 C329 1.388 . S
C332 N331 1.397 . S
C333 H314 0.929 . S
C333 C330 1.404 . S
C333 N331 1.334 . S
C334 H326 0.930 . S
C334 C329 1.418 . S
C334 C330 1.353 . S
C335 H305 0.930 . S
C335 N336 1.330 . S
C335 C337 1.446 . S
N336 Co295 2.151 . S
N336 C335 1.330 . S
N336 C340 1.418 . S
C337 H316 0.929 . S
C337 C335 1.446 . S
C337 C338 1.332 . S
C338 H318 0.931 . S
C338 C337 1.332 . S
C338 C339 1.267 . S
C339 H307 0.929 . S
C339 C338 1.267 . S
C339 C340 1.251 . S
C340 H310 0.929 . S
C340 N336 1.418 . S
C340 C339 1.251 . S
C341 H308 0.930 . S
C341 C343 1.406 . S
C341 C346 1.261 . S
C342 H309 0.930 . S
C342 N344 1.325 . S
C342 C345 1.357 . S
C343 H311 0.928 . S
C343 C341 1.406 . S
C343 N344 1.261 . S
N344 Co295 2.214 . S
N344 C342 1.325 . S
N344 C343 1.261 . S
C345 H315 0.931 . S
C345 C342 1.357 . S
C345 C346 1.312 . S
C346 H317 0.930 . S
C346 C341 1.261 . S
C346 C345 1.312 . S
C347 O319 1.214 . S
C347 O327 1.234 . S
C348 H320 0.929 . S
C348 C351 1.391 . S
C348 C353 1.391 . S
C349 H321 0.929 . S
C349 C350 1.390 . S
C349 N352 1.391 . S
C350 H322 0.930 . S
C350 C349 1.390 . S
C350 C351 1.392 . S
C351 H323 0.929 . S
C351 C348 1.391 . S
C351 C350 1.392 . S
N352 Co296 2.257 . S
N352 C349 1.391 . S
N352 C353 1.388 . S
C353 H324 0.930 . S
C353 C348 1.391 . S
C353 N352 1.388 . S
Co354 O356 2.143 . S
Co354 O362 2.074 . S
Co354 O365 2.093 . S
Co354 O378 2.097 . S
Co354 N395 2.151 . S
Co354 N403 2.214 . S
Co355 O356 2.160 . S
Co355 O361 2.058 . S
Co355 O371 2.057 . S
Co355 O386 2.037 . S
Co355 N390 2.145 . S
Co355 N411 2.257 . S
O356 Co354 2.143 . S
O356 Co355 2.160 . S
C357 O358 1.278 . S
C357 O365 1.224 . S
O358 C357 1.278 . S
C359 O360 1.245 . S
C359 O371 1.232 . S
O360 C359 1.245 . S
O361 Co355 2.058 . S
O361 C387 1.269 . S
O362 Co354 2.074 . S
O362 C387 1.257 . S
H363 C388 0.930 . S
H364 C394 0.930 . S
O365 Co354 2.093 . S
O365 C357 1.224 . S
H366 C398 0.929 . S
H367 C400 0.930 . S
H368 C401 0.930 . S
H369 C399 0.929 . S
H370 C402 0.928 . S
O371 Co355 2.057 . S
O371 C359 1.232 . S
H372 C391 0.929 . S
H373 C392 0.929 . S
H374 C404 0.931 . S
H375 C396 0.929 . S
H376 C405 0.930 . S
H377 C397 0.931 . S
O378 Co354 2.097 . S
O378 C406 1.214 . S
H379 C407 0.929 . S
H380 C408 0.929 . S
H381 C409 0.930 . S
H382 C410 0.929 . S
H383 C412 0.930 . S
H384 C389 0.930 . S
H385 C393 0.930 . S
O386 Co355 2.037 . S
O386 C406 1.234 . S
C387 O361 1.269 . S
C387 O362 1.257 . S
C388 H363 0.930 . S
C388 C391 1.388 . S
C388 C393 1.418 . S
C389 H384 0.930 . S
C389 C392 1.404 . S
C389 C393 1.353 . S
N390 Co355 2.145 . S
N390 C391 1.397 . S
N390 C392 1.334 . S
C391 H372 0.929 . S
C391 C388 1.388 . S
C391 N390 1.397 . S
C392 H373 0.929 . S
C392 C389 1.404 . S
C392 N390 1.334 . S
C393 H385 0.930 . S
C393 C388 1.418 . S
C393 C389 1.353 . S
C394 H364 0.930 . S
C394 N395 1.330 . S
C394 C396 1.446 . S
N395 Co354 2.151 . S
N395 C394 1.330 . S
N395 C399 1.418 . S
C396 H375 0.929 . S
C396 C394 1.446 . S
C396 C397 1.332 . S
C397 H377 0.931 . S
C397 C396 1.332 . S
C397 C398 1.267 . S
C398 H366 0.929 . S
C398 C397 1.267 . S
C398 C399 1.251 . S
C399 H369 0.929 . S
C399 N395 1.418 . S
C399 C398 1.251 . S
C400 H367 0.930 . S
C400 C402 1.406 . S
C400 C405 1.261 . S
C401 H368 0.930 . S
C401 N403 1.325 . S
C401 C404 1.357 . S
C402 H370 0.928 . S
C402 C400 1.406 . S
C402 N403 1.261 . S
N403 Co354 2.214 . S
N403 C401 1.325 . S
N403 C402 1.261 . S
C404 H374 0.931 . S
C404 C401 1.357 . S
C404 C405 1.312 . S
C405 H376 0.930 . S
C405 C400 1.261 . S
C405 C404 1.312 . S
C406 O378 1.214 . S
C406 O386 1.234 . S
C407 H379 0.929 . S
C407 C410 1.391 . S
C407 C412 1.391 . S
C408 H380 0.929 . S
C408 C409 1.390 . S
C408 N411 1.391 . S
C409 H381 0.930 . S
C409 C408 1.390 . S
C409 C410 1.392 . S
C410 H382 0.929 . S
C410 C407 1.391 . S
C410 C409 1.392 . S
N411 Co355 2.257 . S
N411 C408 1.391 . S
N411 C412 1.388 . S
C412 H383 0.930 . S
C412 C407 1.391 . S
C412 N411 1.388 . S
Co413 O415 2.143 . S
Co413 O421 2.074 1_545 S
Co413 O424 2.093 . S
Co413 O437 2.097 . S
Co413 N454 2.151 . S
Co413 N462 2.214 . S
Co414 O415 2.160 1_565 S
Co414 O420 2.058 . S
Co414 O430 2.057 . S
Co414 O445 2.037 . S
Co414 N449 2.145 . S
Co414 N470 2.246 1_565 S
O415 Co413 2.143 . S
O415 Co414 2.160 1_545 S
C416 O417 1.278 . S
C416 O424 1.224 . S
O417 C416 1.278 . S
C418 O419 1.245 . S
C418 O430 1.232 1_545 S
O419 C418 1.245 . S
O420 Co414 2.058 . S
O420 C446 1.269 . S
O421 Co413 2.074 1_565 S
O421 C446 1.257 . S
H422 C447 0.930 . S
H423 C453 0.930 . S
O424 Co413 2.093 . S
O424 C416 1.224 . S
H425 C457 0.929 . S
H426 C459 0.930 . S
H427 C460 0.930 1_565 S
H428 C458 0.929 . S
H429 C461 0.928 . S
O430 Co414 2.057 . S
O430 C418 1.232 1_565 S
H431 C450 0.929 . S
H432 C451 0.929 . S
H433 C463 0.931 1_565 S
H434 C455 0.929 . S
H435 C464 0.930 . S
H436 C456 0.931 . S
O437 Co413 2.097 . S
O437 C465 1.214 1_545 S
H438 C466 0.929 . S
H439 C467 0.929 . S
H440 C468 0.930 1_565 S
H441 C469 0.929 . S
H442 C471 0.930 . S
H443 C448 0.930 . S
H444 C452 0.930 . S
O445 Co414 2.037 . S
O445 C465 1.234 . S
C446 O420 1.269 . S
C446 O421 1.257 . S
C447 H422 0.930 . S
C447 C450 1.388 . S
C447 C452 1.418 . S
C448 H443 0.930 . S
C448 C451 1.404 . S
C448 C452 1.353 . S
N449 Co414 2.145 . S
N449 C450 1.397 . S
N449 C451 1.334 . S
C450 H431 0.929 . S
C450 C447 1.388 . S
C450 N449 1.397 . S
C451 H432 0.929 . S
C451 C448 1.404 . S
C451 N449 1.334 . S
C452 H444 0.930 . S
C452 C447 1.418 . S
C452 C448 1.353 . S
C453 H423 0.930 . S
C453 N454 1.330 . S
C453 C455 1.446 . S
N454 Co413 2.151 . S
N454 C453 1.330 . S
N454 C458 1.418 . S
C455 H434 0.929 . S
C455 C453 1.446 . S
C455 C456 1.332 . S
C456 H436 0.931 . S
C456 C455 1.332 . S
C456 C457 1.267 . S
C457 H425 0.929 . S
C457 C456 1.267 . S
C457 C458 1.251 . S
C458 H428 0.929 . S
C458 N454 1.418 . S
C458 C457 1.251 . S
C459 H426 0.930 . S
C459 C461 1.406 . S
C459 C464 1.261 . S
C460 H427 0.930 1_545 S
C460 N462 1.325 . S
C460 C463 1.357 . S
C461 H429 0.928 . S
C461 C459 1.406 . S
C461 N462 1.261 . S
N462 Co413 2.214 . S
N462 C460 1.325 . S
N462 C461 1.261 . S
C463 H433 0.931 1_545 S
C463 C460 1.357 . S
C463 C464 1.312 . S
C464 H435 0.930 . S
C464 C459 1.261 . S
C464 C463 1.312 . S
C465 O437 1.214 1_565 S
C465 O445 1.234 . S
C466 H438 0.929 . S
C466 C469 1.391 . S
C466 C471 1.391 . S
C467 H439 0.929 . S
C467 C468 1.390 1_565 S
C467 N470 1.379 1_565 S
C468 H440 0.930 1_545 S
C468 C467 1.390 1_545 S
C468 C469 1.392 . S
C469 H441 0.929 . S
C469 C466 1.391 . S
C469 C468 1.392 . S
N470 Co414 2.246 1_545 S
N470 C467 1.379 1_545 S
N470 C471 1.415 . S
C471 H442 0.930 . S
C471 C466 1.391 . S
C471 N470 1.415 . S
H472 C480 0.929 . S
H473 C482 0.930 . S
H474 C484 0.930 . S
H475 C487 0.929 . S
H476 C490 0.930 . S
H477 C492 0.960 1_554 S
H478 C492 0.960 . S
H479 C492 0.964 . S
C480 H472 0.929 . S
C480 C481 1.377 . S
C480 C482 1.384 . S
C481 C480 1.377 . S
C481 C487 1.390 . S
C482 H473 0.930 . S
C482 C480 1.384 . S
C482 C483 1.372 . S
C483 C482 1.372 . S
C483 C484 1.400 . S
C483 C488 1.490 . S
C484 H474 0.930 . S
C484 C483 1.400 . S
C484 C487 1.386 . S
H485 C501 0.932 . S
H486 C502 0.931 . S
C487 H475 0.929 . S
C487 C481 1.390 . S
C487 C484 1.386 . S
C488 C483 1.490 . S
C488 C490 1.395 . S
C488 C491 1.403 1_655 S
H489 C495 0.930 . S
C490 H476 0.930 . S
C490 C488 1.395 . S
C490 C493 1.403 . S
C491 C488 1.403 1_455 S
C491 C492 1.524 . S
C491 C495 1.400 1_556 S
C492 H477 0.960 1_556 S
C492 H478 0.960 . S
C492 H479 0.964 . S
C492 C491 1.524 . S
C493 C490 1.403 . S
C493 C494 1.392 1_556 S
C493 C497 1.495 . S
C494 C493 1.392 1_554 S
C494 C495 1.385 1_655 S
C494 C496 1.480 . S
C495 H489 0.930 . S
C495 C491 1.400 1_554 S
C495 C494 1.385 1_455 S
C496 C494 1.480 . S
C496 C498 1.374 1_655 S
C496 C502 1.387 . S
C497 C493 1.495 . S
C497 H503 0.959 . S
C497 H504 0.961 1_556 S
C497 H505 0.960 . S
C498 C496 1.374 1_455 S
C498 C499 1.394 . S
C498 H506 0.930 . S
C499 C498 1.394 . S
C499 C500 1.383 . S
C499 H507 0.929 . S
C500 C499 1.383 . S
C500 C501 1.373 1_455 S
C501 H485 0.932 . S
C501 C500 1.373 1_655 S
C501 C502 1.382 . S
C502 H486 0.931 . S
C502 C496 1.387 . S
C502 C501 1.382 . S
H503 C497 0.959 . S
H504 C497 0.961 1_554 S
H505 C497 0.960 . S
H506 C498 0.930 . S
H507 C499 0.929 . S
H508 C516 0.929 . S
H509 C518 0.930 . S
H510 C520 0.930 . S
H511 C523 0.929 . S
H512 C526 0.930 . S
H513 C528 0.960 . S
H514 C528 0.960 . S
H515 C528 0.960 . S
C516 H508 0.929 . S
C516 C517 1.377 . S
C516 C518 1.384 . S
C517 C516 1.377 . S
C517 C523 1.390 . S
C518 H509 0.930 . S
C518 C516 1.384 . S
C518 C519 1.372 . S
C519 C518 1.372 . S
C519 C520 1.400 . S
C519 C524 1.490 . S
C520 H510 0.930 . S
C520 C519 1.400 . S
C520 C523 1.386 . S
H521 C537 0.930 . S
H522 C538 0.931 . S
C523 H511 0.929 . S
C523 C517 1.390 . S
C523 C520 1.386 . S
C524 C519 1.490 . S
C524 C526 1.395 . S
C524 C527 1.403 . S
H525 C531 0.930 . S
C526 H512 0.930 . S
C526 C524 1.395 . S
C526 C529 1.403 . S
C527 C524 1.403 . S
C527 C528 1.524 . S
C527 C531 1.400 . S
C528 H513 0.960 . S
C528 H514 0.960 . S
C528 H515 0.960 . S
C528 C527 1.524 . S
C529 C526 1.403 . S
C529 C530 1.392 . S
C529 C533 1.495 . S
C530 C529 1.392 . S
C530 C531 1.385 . S
C530 C532 1.478 . S
C531 H525 0.930 . S
C531 C527 1.400 . S
C531 C530 1.385 . S
C532 C530 1.478 . S
C532 C534 1.381 . S
C532 C538 1.383 . S
C533 C529 1.495 . S
C533 H539 0.959 . S
C533 H540 0.961 . S
C533 H541 0.960 . S
C534 C532 1.381 . S
C534 C535 1.394 . S
C534 H542 0.930 . S
C535 C534 1.394 . S
C535 C536 1.383 . S
C535 H543 0.929 . S
C536 C535 1.383 . S
C536 C537 1.377 . S
C537 H521 0.930 . S
C537 C536 1.377 . S
C537 C538 1.379 . S
C538 H522 0.931 . S
C538 C532 1.383 . S
C538 C537 1.379 . S
H539 C533 0.959 . S
H540 C533 0.961 . S
H541 C533 0.960 . S
H542 C534 0.930 . S
H543 C535 0.929 . S
H544 C552 0.929 . S
H545 C554 0.930 . S
H546 C556 0.930 . S
H547 C559 0.929 . S
H548 C562 0.930 . S
H549 C564 0.960 . S
H550 C564 0.960 . S
H551 C564 0.960 . S
C552 H544 0.929 . S
C552 C553 1.377 . S
C552 C554 1.384 . S
C553 C552 1.377 . S
C553 C559 1.390 . S
C554 H545 0.930 . S
C554 C552 1.384 . S
C554 C555 1.372 . S
C555 C554 1.372 . S
C555 C556 1.400 . S
C555 C560 1.490 . S
C556 H546 0.930 . S
C556 C555 1.400 . S
C556 C559 1.386 . S
H557 C573 0.930 . S
H558 C574 0.931 . S
C559 H547 0.929 . S
C559 C553 1.390 . S
C559 C556 1.386 . S
C560 C555 1.490 . S
C560 C562 1.395 1_565 S
C560 C563 1.403 1_554 S
H561 C567 0.930 . S
C562 H548 0.930 . S
C562 C560 1.395 1_545 S
C562 C565 1.403 . S
C563 C560 1.403 1_556 S
C563 C564 1.524 . S
C563 C567 1.400 . S
C564 H549 0.960 . S
C564 H550 0.960 . S
C564 H551 0.960 . S
C564 C563 1.524 . S
C565 C562 1.403 . S
C565 C566 1.392 1_554 S
C565 C569 1.495 . S
C566 C565 1.392 1_556 S
C566 C567 1.385 1_545 S
C566 C568 1.478 . S
C567 H561 0.930 . S
C567 C563 1.400 . S
C567 C566 1.385 1_565 S
C568 C566 1.478 . S
C568 C570 1.381 . S
C568 C574 1.383 . S
C569 C565 1.495 . S
C569 H575 0.959 . S
C569 H576 0.961 . S
C569 H577 0.960 . S
C570 C568 1.381 . S
C570 C571 1.394 . S
C570 H578 0.930 . S
C571 C570 1.394 . S
C571 C572 1.383 . S
C571 H579 0.929 . S
C572 C571 1.383 . S
C572 C573 1.377 . S
C573 H557 0.930 . S
C573 C572 1.377 . S
C573 C574 1.379 . S
C574 H558 0.931 . S
C574 C568 1.383 . S
C574 C573 1.379 . S
H575 C569 0.959 . S
H576 C569 0.961 . S
H577 C569 0.960 . S
H578 C570 0.930 . S
H579 C571 0.929 . S
H580 C588 0.929 . S
H581 C590 0.930 . S
H582 C592 0.930 . S
H583 C595 0.929 . S
H584 C598 0.930 . S
H585 C600 0.960 . S
H586 C600 0.960 1_545 S
H587 C600 0.960 . S
C588 H580 0.929 . S
C588 C589 1.377 . S
C588 C590 1.384 . S
C589 C588 1.377 . S
C589 C595 1.390 1_545 S
C590 H581 0.930 . S
C590 C588 1.384 . S
C590 C591 1.372 . S
C591 C590 1.372 . S
C591 C592 1.400 1_545 S
C591 C596 1.490 . S
C592 H582 0.930 . S
C592 C591 1.400 1_565 S
C592 C595 1.386 . S
H593 C609 0.930 . S
H594 C610 0.931 . S
C595 H583 0.929 . S
C595 C589 1.390 1_565 S
C595 C592 1.386 . S
C596 C591 1.490 . S
C596 C598 1.395 . S
C596 C599 1.403 1_645 S
H597 C603 0.930 . S
C598 H584 0.930 . S
C598 C596 1.395 . S
C598 C601 1.403 . S
C599 C596 1.403 1_465 S
C599 C600 1.524 . S
C599 C603 1.400 . S
C600 H585 0.960 . S
C600 H586 0.960 1_565 S
C600 H587 0.960 . S
C600 C599 1.524 . S
C601 C598 1.403 . S
C601 C602 1.397 1_655 S
C601 C605 1.495 . S
C602 C601 1.397 1_455 S
C602 C603 1.382 1_545 S
C602 C604 1.476 1_545 S
C603 H597 0.930 . S
C603 C599 1.400 . S
C603 C602 1.382 1_565 S
C604 C602 1.476 1_565 S
C604 C606 1.381 1_565 S
C604 C610 1.383 . S
C605 C601 1.495 . S
C605 H611 0.959 . S
C605 H612 0.961 1_545 S
C605 H613 0.960 . S
C606 C604 1.381 1_545 S
C606 C607 1.394 . S
C606 H614 0.930 . S
C607 C606 1.394 . S
C607 C608 1.383 1_545 S
C607 H615 0.929 . S
C608 C607 1.383 1_565 S
C608 C609 1.377 . S
C609 H593 0.930 . S
C609 C608 1.377 . S
C609 C610 1.379 . S
C610 H594 0.931 . S
C610 C604 1.383 . S
C610 C609 1.379 . S
H611 C605 0.959 . S
H612 C605 0.961 1_565 S
H613 C605 0.960 . S
H614 C606 0.930 . S
H615 C607 0.929 . S
H616 C624 0.929 . S
H617 C626 0.930 . S
H618 C628 0.930 . S
H619 C631 0.929 . S
H620 C634 0.930 . S
H621 C636 0.960 . S
H622 C636 0.960 . S
H623 C636 0.960 . S
C624 H616 0.929 . S
C624 C625 1.377 . S
C624 C626 1.384 . S
C625 C624 1.377 . S
C625 C631 1.390 . S
C626 H617 0.930 . S
C626 C624 1.384 . S
C626 C627 1.372 . S
C627 C626 1.372 . S
C627 C628 1.400 . S
C627 C632 1.490 . S
C628 H618 0.930 . S
C628 C627 1.400 . S
C628 C631 1.386 . S
H629 C645 0.930 . S
H630 C646 0.931 . S
C631 H619 0.929 . S
C631 C625 1.390 . S
C631 C628 1.386 . S
C632 C627 1.490 . S
C632 C634 1.395 . S
C632 C635 1.403 . S
H633 C639 0.930 . S
C634 H620 0.930 . S
C634 C632 1.395 . S
C634 C637 1.403 . S
C635 C632 1.403 . S
C635 C636 1.524 . S
C635 C639 1.400 . S
C636 H621 0.960 . S
C636 H622 0.960 . S
C636 H623 0.960 . S
C636 C635 1.524 . S
C637 C634 1.403 . S
C637 C638 1.392 . S
C637 C641 1.495 . S
C638 C637 1.392 . S
C638 C639 1.385 . S
C638 C640 1.478 . S
C639 H633 0.930 . S
C639 C635 1.400 . S
C639 C638 1.385 . S
C640 C638 1.478 . S
C640 C642 1.381 . S
C640 C646 1.383 . S
C641 C637 1.495 . S
C641 H647 0.959 . S
C641 H648 0.961 . S
C641 H649 0.960 . S
C642 C640 1.381 . S
C642 C643 1.394 . S
C642 H650 0.930 . S
C643 C642 1.394 . S
C643 C644 1.383 . S
C643 H651 0.929 . S
C644 C643 1.383 . S
C644 C645 1.377 . S
C645 H629 0.930 . S
C645 C644 1.377 . S
C645 C646 1.379 . S
C646 H630 0.931 . S
C646 C640 1.383 . S
C646 C645 1.379 . S
H647 C641 0.959 . S
H648 C641 0.961 . S
H649 C641 0.960 . S
H650 C642 0.930 . S
H651 C643 0.929 . S
H652 C660 0.929 . S
H653 C662 0.930 . S
H654 C664 0.930 . S
H655 C667 0.929 . S
H656 C670 0.930 . S
H657 C672 0.960 . S
H658 C672 0.960 . S
H659 C672 0.960 . S
C660 H652 0.929 . S
C660 C661 1.377 . S
C660 C662 1.384 . S
C661 C660 1.377 . S
C661 C667 1.390 . S
C662 H653 0.930 . S
C662 C660 1.384 . S
C662 C663 1.372 . S
C663 C662 1.372 . S
C663 C664 1.400 . S
C663 C668 1.490 . S
C664 H654 0.930 . S
C664 C663 1.400 . S
C664 C667 1.386 . S
H665 C681 0.930 . S
H666 C682 0.931 . S
C667 H655 0.929 . S
C667 C661 1.390 . S
C667 C664 1.386 . S
C668 C663 1.490 . S
C668 C670 1.395 . S
C668 C671 1.403 . S
H669 C675 0.930 . S
C670 H656 0.930 . S
C670 C668 1.395 . S
C670 C673 1.403 . S
C671 C668 1.403 . S
C671 C672 1.524 . S
C671 C675 1.400 . S
C672 H657 0.960 . S
C672 H658 0.960 . S
C672 H659 0.960 . S
C672 C671 1.524 . S
C673 C670 1.403 . S
C673 C674 1.392 . S
C673 C677 1.495 . S
C674 C673 1.392 . S
C674 C675 1.385 . S
C674 C676 1.478 . S
C675 H669 0.930 . S
C675 C671 1.400 . S
C675 C674 1.385 . S
C676 C674 1.478 . S
C676 C678 1.381 . S
C676 C682 1.383 . S
C677 C673 1.495 . S
C677 H683 0.959 . S
C677 H684 0.961 . S
C677 H685 0.960 . S
C678 C676 1.381 . S
C678 C679 1.394 . S
C678 H686 0.930 . S
C679 C678 1.394 . S
C679 C680 1.383 . S
C679 H687 0.929 . S
C680 C679 1.383 . S
C680 C681 1.377 . S
C681 H665 0.930 . S
C681 C680 1.377 . S
C681 C682 1.379 . S
C682 H666 0.931 . S
C682 C676 1.383 . S
C682 C681 1.379 . S
H683 C677 0.959 . S
H684 C677 0.961 . S
H685 C677 0.960 . S
H686 C678 0.930 . S
H687 C679 0.929 . S
H688 C696 0.929 . S
H689 C698 0.930 . S
H690 C700 0.930 . S
H691 C703 0.929 . S
H692 C706 0.930 . S
H693 C708 0.960 . S
H694 C708 0.960 . S
H695 C708 0.960 . S
C696 H688 0.929 . S
C696 C697 1.377 . S
C696 C698 1.384 . S
C697 C696 1.377 . S
C697 C703 1.390 . S
C698 H689 0.930 . S
C698 C696 1.384 . S
C698 C699 1.372 . S
C699 C698 1.372 . S
C699 C700 1.400 . S
C699 C704 1.490 . S
C700 H690 0.930 . S
C700 C699 1.400 . S
C700 C703 1.386 . S
H701 C717 0.930 . S
H702 C718 0.931 . S
C703 H691 0.929 . S
C703 C697 1.390 . S
C703 C700 1.386 . S
C704 C699 1.490 . S
C704 C706 1.395 . S
C704 C707 1.403 . S
H705 C711 0.930 . S
C706 H692 0.930 . S
C706 C704 1.395 . S
C706 C709 1.403 . S
C707 C704 1.403 . S
C707 C708 1.524 . S
C707 C711 1.400 . S
C708 H693 0.960 . S
C708 H694 0.960 . S
C708 H695 0.960 . S
C708 C707 1.524 . S
C709 C706 1.403 . S
C709 C710 1.392 . S
C709 C713 1.495 . S
C710 C709 1.392 . S
C710 C711 1.385 . S
C710 C712 1.478 . S
C711 H705 0.930 . S
C711 C707 1.400 . S
C711 C710 1.385 . S
C712 C710 1.478 . S
C712 C714 1.381 . S
C712 C718 1.383 . S
C713 C709 1.495 . S
C713 H719 0.959 . S
C713 H720 0.961 . S
C713 H721 0.960 . S
C714 C712 1.381 . S
C714 C715 1.394 . S
C714 H722 0.930 . S
C715 C714 1.394 . S
C715 C716 1.383 . S
C715 H723 0.929 . S
C716 C715 1.383 . S
C716 C717 1.377 . S
C717 H701 0.930 . S
C717 C716 1.377 . S
C717 C718 1.379 . S
C718 H702 0.931 . S
C718 C712 1.383 . S
C718 C717 1.379 . S
H719 C713 0.959 . S
H720 C713 0.961 . S
H721 C713 0.960 . S
H722 C714 0.930 . S
H723 C715 0.929 . S
H724 C732 0.929 . S
H725 C734 0.930 . S
H726 C736 0.930 . S
H727 C739 0.929 . S
H728 C742 0.930 . S
H729 C744 0.960 . S
H730 C744 0.960 . S
H731 C744 0.960 . S
C732 H724 0.929 . S
C732 C733 1.377 . S
C732 C734 1.384 . S
C733 C732 1.377 . S
C733 C739 1.390 . S
C734 H725 0.930 . S
C734 C732 1.384 . S
C734 C735 1.372 . S
C735 C734 1.372 . S
C735 C736 1.400 . S
C735 C740 1.490 . S
C736 H726 0.930 . S
C736 C735 1.400 . S
C736 C739 1.386 . S
H737 C753 0.930 . S
H738 C754 0.931 . S
C739 H727 0.929 . S
C739 C733 1.390 . S
C739 C736 1.386 . S
C740 C735 1.490 . S
C740 C742 1.395 . S
C740 C743 1.403 . S
H741 C747 0.930 . S
C742 H728 0.930 . S
C742 C740 1.395 . S
C742 C745 1.403 . S
C743 C740 1.403 . S
C743 C744 1.524 . S
C743 C747 1.400 . S
C744 H729 0.960 . S
C744 H730 0.960 . S
C744 H731 0.960 . S
C744 C743 1.524 . S
C745 C742 1.403 . S
C745 C746 1.392 . S
C745 C749 1.495 . S
C746 C745 1.392 . S
C746 C747 1.385 . S
C746 C748 1.478 . S
C747 H741 0.930 . S
C747 C743 1.400 . S
C747 C746 1.385 . S
C748 C746 1.478 . S
C748 C750 1.381 . S
C748 C754 1.383 . S
C749 C745 1.495 . S
C749 H755 0.959 . S
C749 H756 0.961 . S
C749 H757 0.960 . S
C750 C748 1.381 . S
C750 C751 1.394 . S
C750 H758 0.930 . S
C751 C750 1.394 . S
C751 C752 1.383 . S
C751 H759 0.929 . S
C752 C751 1.383 . S
C752 C753 1.377 . S
C753 H737 0.930 . S
C753 C752 1.377 . S
C753 C754 1.379 . S
C754 H738 0.931 . S
C754 C748 1.383 . S
C754 C753 1.379 . S
H755 C749 0.959 . S
H756 C749 0.961 . S
H757 C749 0.960 . S
H758 C750 0.930 . S
H759 C751 0.929 . S
H760 C768 0.929 . S
H761 C770 0.930 . S
H762 C772 0.930 . S
H763 C775 0.929 . S
H764 C778 0.930 . S
H765 C780 0.960 . S
H766 C780 0.960 . S
H767 C780 0.960 . S
C768 H760 0.929 . S
C768 C769 1.377 . S
C768 C770 1.384 . S
C769 C768 1.377 . S
C769 C775 1.390 . S
C770 H761 0.930 . S
C770 C768 1.384 . S
C770 C771 1.372 . S
C771 C770 1.372 . S
C771 C772 1.400 . S
C771 C776 1.490 . S
C772 H762 0.930 . S
C772 C771 1.400 . S
C772 C775 1.386 . S
H773 C789 0.930 . S
H774 C790 0.931 . S
C775 H763 0.929 . S
C775 C769 1.390 . S
C775 C772 1.386 . S
C776 C771 1.490 . S
C776 C778 1.395 . S
C776 C779 1.403 . S
H777 C783 0.930 . S
C778 H764 0.930 . S
C778 C776 1.395 . S
C778 C781 1.403 . S
C779 C776 1.403 . S
C779 C780 1.524 . S
C779 C783 1.400 . S
C780 H765 0.960 . S
C780 H766 0.960 . S
C780 H767 0.960 . S
C780 C779 1.524 . S
C781 C778 1.403 . S
C781 C782 1.392 . S
C781 C785 1.495 . S
C782 C781 1.392 . S
C782 C783 1.385 . S
C782 C784 1.478 . S
C783 H777 0.930 . S
C783 C779 1.400 . S
C783 C782 1.385 . S
C784 C782 1.478 . S
C784 C786 1.381 . S
C784 C790 1.383 . S
C785 C781 1.495 . S
C785 H791 0.959 . S
C785 H792 0.961 . S
C785 H793 0.960 . S
C786 C784 1.381 . S
C786 C787 1.394 . S
C786 H794 0.930 . S
C787 C786 1.394 . S
C787 C788 1.383 . S
C787 H795 0.929 . S
C788 C787 1.383 . S
C788 C789 1.377 . S
C789 H773 0.930 . S
C789 C788 1.377 . S
C789 C790 1.379 . S
C790 H774 0.931 . S
C790 C784 1.383 . S
C790 C789 1.379 . S
H791 C785 0.959 . S
H792 C785 0.961 . S
H793 C785 0.960 . S
H794 C786 0.930 . S
H795 C787 0.929 . S
H796 C804 0.929 . S
H797 C806 0.930 . S
H798 C808 0.930 . S
H799 C811 0.929 . S
H800 C814 0.930 . S
H801 C816 0.960 . S
H802 C816 0.960 . S
H803 C816 0.960 . S
C804 H796 0.929 . S
C804 C805 1.377 . S
C804 C806 1.384 . S
C805 C804 1.377 . S
C805 C811 1.390 . S
C806 H797 0.930 . S
C806 C804 1.384 . S
C806 C807 1.372 . S
C807 C806 1.372 . S
C807 C808 1.400 . S
C807 C812 1.490 . S
C808 H798 0.930 . S
C808 C807 1.400 . S
C808 C811 1.386 . S
H809 C825 0.930 . S
H810 C826 0.931 . S
C811 H799 0.929 . S
C811 C805 1.390 . S
C811 C808 1.386 . S
C812 C807 1.490 . S
C812 C814 1.395 . S
C812 C815 1.403 . S
H813 C819 0.930 . S
C814 H800 0.930 . S
C814 C812 1.395 . S
C814 C817 1.403 . S
C815 C812 1.403 . S
C815 C816 1.524 . S
C815 C819 1.400 . S
C816 H801 0.960 . S
C816 H802 0.960 . S
C816 H803 0.960 . S
C816 C815 1.524 . S
C817 C814 1.403 . S
C817 C818 1.392 . S
C817 C821 1.495 . S
C818 C817 1.392 . S
C818 C819 1.385 . S
C818 C820 1.478 . S
C819 H813 0.930 . S
C819 C815 1.400 . S
C819 C818 1.385 . S
C820 C818 1.478 . S
C820 C822 1.381 . S
C820 C826 1.383 . S
C821 C817 1.495 . S
C821 H827 0.959 . S
C821 H828 0.961 . S
C821 H829 0.960 . S
C822 C820 1.381 . S
C822 C823 1.394 . S
C822 H830 0.930 . S
C823 C822 1.394 . S
C823 C824 1.383 . S
C823 H831 0.929 . S
C824 C823 1.383 . S
C824 C825 1.377 . S
C825 H809 0.930 . S
C825 C824 1.377 . S
C825 C826 1.379 . S
C826 H810 0.931 . S
C826 C820 1.383 . S
C826 C825 1.379 . S
H827 C821 0.959 . S
H828 C821 0.961 . S
H829 C821 0.960 . S
H830 C822 0.930 . S
H831 C823 0.929 . S
H832 C840 0.929 . S
H833 C842 0.930 . S
H834 C844 0.930 . S
H835 C847 0.929 . S
H836 C850 0.930 . S
H837 C852 0.960 . S
H838 C852 0.960 . S
H839 C852 0.960 . S
C840 H832 0.929 . S
C840 C841 1.377 . S
C840 C842 1.384 . S
C841 C840 1.377 . S
C841 C847 1.390 . S
C842 H833 0.930 . S
C842 C840 1.384 . S
C842 C843 1.372 . S
C843 C842 1.372 . S
C843 C844 1.400 . S
C843 C848 1.490 . S
C844 H834 0.930 . S
C844 C843 1.400 . S
C844 C847 1.386 . S
H845 C861 0.930 1_545 S
H846 C862 0.931 . S
C847 H835 0.929 . S
C847 C841 1.390 . S
C847 C844 1.386 . S
C848 C843 1.490 . S
C848 C850 1.395 . S
C848 C851 1.403 . S
H849 C855 0.930 . S
C850 H836 0.930 . S
C850 C848 1.395 . S
C850 C853 1.403 . S
C851 C848 1.403 . S
C851 C852 1.524 . S
C851 C855 1.400 . S
C852 H837 0.960 . S
C852 H838 0.960 . S
C852 H839 0.960 . S
C852 C851 1.524 . S
C853 C850 1.403 . S
C853 C854 1.392 . S
C853 C857 1.495 . S
C854 C853 1.392 . S
C854 C855 1.385 . S
C854 C856 1.478 . S
C855 H849 0.930 . S
C855 C851 1.400 . S
C855 C854 1.385 . S
C856 C854 1.478 . S
C856 C858 1.381 . S
C856 C862 1.383 . S
C857 C853 1.495 . S
C857 H863 0.959 . S
C857 H864 0.961 . S
C857 H865 0.960 . S
C858 C856 1.381 . S
C858 C859 1.394 . S
C858 H866 0.930 . S
C859 C858 1.394 . S
C859 C860 1.383 . S
C859 H867 0.929 . S
C860 C859 1.383 . S
C860 C861 1.377 . S
C861 H845 0.930 1_565 S
C861 C860 1.377 . S
C861 C862 1.379 . S
C862 H846 0.931 . S
C862 C856 1.383 . S
C862 C861 1.379 . S
H863 C857 0.959 . S
H864 C857 0.961 . S
H865 C857 0.960 . S
H866 C858 0.930 . S
H867 C859 0.929 . S
H868 C876 0.929 . S
H869 C878 0.930 . S
H870 C880 0.942 . S
H871 C883 0.929 1_655 S
H872 C886 0.930 . S
H873 C888 0.960 . S
H874 C888 0.960 . S
H875 C888 0.960 . S
C876 H868 0.929 . S
C876 C877 1.377 . S
C876 C878 1.384 . S
C877 C876 1.377 . S
C877 C883 1.390 . S
C878 H869 0.930 . S
C878 C876 1.384 . S
C878 C879 1.372 . S
C879 C878 1.372 . S
C879 C880 1.400 . S
C879 C884 1.490 . S
C880 H870 0.942 . S
C880 C879 1.400 . S
C880 C883 1.386 . S
H881 C897 0.930 . S
H882 C898 0.931 . S
C883 H871 0.929 1_455 S
C883 C877 1.390 . S
C883 C880 1.386 . S
C884 C879 1.490 . S
C884 C886 1.395 . S
C884 C887 1.403 . S
H885 C891 0.930 . S
C886 H872 0.930 . S
C886 C884 1.395 . S
C886 C889 1.403 . S
C887 C884 1.403 . S
C887 C888 1.524 . S
C887 C891 1.400 . S
C888 H873 0.960 . S
C888 H874 0.960 . S
C888 H875 0.960 . S
C888 C887 1.524 . S
C889 C886 1.403 . S
C889 C890 1.392 . S
C889 C893 1.495 . S
C890 C889 1.392 . S
C890 C891 1.385 . S
C890 C892 1.478 . S
C891 H885 0.930 . S
C891 C887 1.400 . S
C891 C890 1.385 . S
C892 C890 1.478 . S
C892 C894 1.381 . S
C892 C898 1.383 . S
C893 C889 1.495 . S
C893 H899 0.959 . S
C893 H900 0.961 . S
C893 H901 0.960 . S
C894 C892 1.381 . S
C894 C895 1.394 . S
C894 H902 0.930 . S
C895 C894 1.394 . S
C895 C896 1.383 . S
C895 H903 0.929 . S
C896 C895 1.383 . S
C896 C897 1.377 . S
C897 H881 0.930 . S
C897 C896 1.377 . S
C897 C898 1.379 . S
C898 H882 0.931 . S
C898 C892 1.383 . S
C898 C897 1.379 . S
H899 C893 0.959 . S
H900 C893 0.961 . S
H901 C893 0.960 . S
H902 C894 0.930 . S
H903 C895 0.929 . S
H904 C912 0.929 . S
H905 C914 0.930 . S
H906 C916 0.930 . S
H907 C919 0.929 . S
H908 C922 0.930 . S
H909 C924 0.960 . S
H910 C924 0.960 . S
H911 C924 0.960 . S
C912 H904 0.929 . S
C912 C913 1.377 . S
C912 C914 1.384 . S
C913 C912 1.377 . S
C913 C919 1.390 . S
C914 H905 0.930 . S
C914 C912 1.384 . S
C914 C915 1.372 . S
C915 C914 1.372 . S
C915 C916 1.400 . S
C915 C920 1.490 . S
C916 H906 0.930 . S
C916 C915 1.400 . S
C916 C919 1.386 . S
H917 C933 0.930 . S
H918 C934 0.931 . S
C919 H907 0.929 . S
C919 C913 1.390 . S
C919 C916 1.386 . S
C920 C915 1.490 . S
C920 C922 1.395 . S
C920 C923 1.403 . S
H921 C927 0.930 . S
C922 H908 0.930 . S
C922 C920 1.395 . S
C922 C925 1.403 . S
C923 C920 1.403 . S
C923 C924 1.524 . S
C923 C927 1.400 . S
C924 H909 0.960 . S
C924 H910 0.960 . S
C924 H911 0.960 . S
C924 C923 1.524 . S
C925 C922 1.403 . S
C925 C926 1.392 . S
C925 C929 1.495 . S
C926 C925 1.392 . S
C926 C927 1.385 . S
C926 C928 1.478 . S
C927 H921 0.930 . S
C927 C923 1.400 . S
C927 C926 1.385 . S
C928 C926 1.478 . S
C928 C930 1.381 . S
C928 C934 1.383 . S
C929 C925 1.495 . S
C929 H935 0.959 . S
C929 H936 0.961 . S
C929 H937 0.960 . S
C930 C928 1.381 . S
C930 C931 1.394 . S
C930 H938 0.930 . S
C931 C930 1.394 . S
C931 C932 1.383 . S
C931 H939 0.929 . S
C932 C931 1.383 . S
C932 C933 1.377 . S
C933 H917 0.930 . S
C933 C932 1.377 . S
C933 C934 1.379 . S
C934 H918 0.931 . S
C934 C928 1.383 . S
C934 C933 1.379 . S
H935 C929 0.959 . S
H936 C929 0.961 . S
H937 C929 0.960 . S
H938 C930 0.930 . S
H939 C931 0.929 . S
H940 C948 0.929 . S
H941 C950 0.930 . S
H942 C952 0.930 . S
H943 C955 0.929 . S
H944 C958 0.930 . S
H945 C960 0.960 . S
H946 C960 0.960 . S
H947 C960 0.960 . S
C948 H940 0.929 . S
C948 C949 1.377 . S
C948 C950 1.384 . S
C949 C948 1.377 . S
C949 C955 1.390 . S
C950 H941 0.930 . S
C950 C948 1.384 . S
C950 C951 1.372 . S
C951 C950 1.372 . S
C951 C952 1.400 . S
C951 C956 1.490 . S
C952 H942 0.930 . S
C952 C951 1.400 . S
C952 C955 1.386 . S
H953 C969 0.930 . S
H954 C970 0.931 . S
C955 H943 0.929 . S
C955 C949 1.390 . S
C955 C952 1.386 . S
C956 C951 1.490 . S
C956 C958 1.395 . S
C956 C959 1.403 . S
H957 C963 0.930 . S
C958 H944 0.930 . S
C958 C956 1.395 . S
C958 C961 1.403 . S
C959 C956 1.403 . S
C959 C960 1.524 . S
C959 C963 1.400 . S
C960 H945 0.960 . S
C960 H946 0.960 . S
C960 H947 0.960 . S
C960 C959 1.524 . S
C961 C958 1.403 . S
C961 C962 1.392 . S
C961 C965 1.495 . S
C962 C961 1.392 . S
C962 C963 1.385 . S
C962 C964 1.478 . S
C963 H957 0.930 . S
C963 C959 1.400 . S
C963 C962 1.385 . S
C964 C962 1.478 . S
C964 C966 1.381 . S
C964 C970 1.383 . S
C965 C961 1.495 . S
C965 H971 0.959 . S
C965 H972 0.961 . S
C965 H973 0.960 . S
C966 C964 1.381 . S
C966 C967 1.394 . S
C966 H974 0.930 . S
C967 C966 1.394 . S
C967 C968 1.383 . S
C967 H975 0.929 . S
C968 C967 1.383 . S
C968 C969 1.377 . S
C969 H953 0.930 . S
C969 C968 1.377 . S
C969 C970 1.379 . S
C970 H954 0.931 . S
C970 C964 1.383 . S
C970 C969 1.379 . S
H971 C965 0.959 . S
H972 C965 0.961 . S
H973 C965 0.960 . S
H974 C966 0.930 . S
H975 C967 0.929 . S
H976 C984 0.929 . S
H977 C986 0.930 . S
H978 C988 0.930 . S
H979 C991 0.929 . S
H980 C994 0.930 . S
H981 C996 0.960 . S
H982 C996 0.960 . S
H983 C996 0.960 . S
C984 H976 0.929 . S
C984 C985 1.377 . S
C984 C986 1.384 . S
C985 C984 1.377 . S
C985 C991 1.390 . S
C986 H977 0.930 . S
C986 C984 1.384 . S
C986 C987 1.372 . S
C987 C986 1.372 . S
C987 C988 1.400 . S
C987 C992 1.490 . S
C988 H978 0.930 . S
C988 C987 1.400 . S
C988 C991 1.386 . S
H989 C1005 0.930 . S
H990 C1006 0.931 . S
C991 H979 0.929 . S
C991 C985 1.390 . S
C991 C988 1.386 . S
C992 C987 1.490 . S
C992 C994 1.395 . S
C992 C995 1.403 . S
H993 C999 0.930 . S
C994 H980 0.930 . S
C994 C992 1.395 . S
C994 C997 1.403 . S
C995 C992 1.403 . S
C995 C996 1.524 . S
C995 C999 1.400 . S
C996 H981 0.960 . S
C996 H982 0.960 . S
C996 H983 0.960 . S
C996 C995 1.524 . S
C997 C994 1.403 . S
C997 C998 1.392 . S
C997 C1001 1.495 . S
C998 C997 1.392 . S
C998 C999 1.385 . S
C998 C1000 1.478 . S
C999 H993 0.930 . S
C999 C995 1.400 . S
C999 C998 1.385 . S
C1000 C998 1.478 . S
C1000 C1002 1.381 . S
C1000 C1006 1.383 . S
C1001 C997 1.495 . S
C1001 H1007 0.959 1_545 S
C1001 H1008 0.961 1_545 S
C1001 H1009 0.960 1_545 S
C1002 C1000 1.381 . S
C1002 C1003 1.394 . S
C1002 H1010 0.930 . S
C1003 C1002 1.394 . S
C1003 C1004 1.383 . S
C1003 H1011 0.929 . S
C1004 C1003 1.383 . S
C1004 C1005 1.377 . S
C1005 H989 0.930 . S
C1005 C1004 1.377 . S
C1005 C1006 1.379 . S
C1006 H990 0.931 . S
C1006 C1000 1.383 . S
C1006 C1005 1.379 . S
H1007 C1001 0.959 1_565 S
H1008 C1001 0.961 1_565 S
H1009 C1001 0.960 1_565 S
H1010 C1002 0.930 . S
H1011 C1003 0.929 . S
H1012 C1020 0.929 . S
H1013 C1022 0.930 . S
H1014 C1024 0.930 . S
H1015 C1027 0.929 1_455 S
H1016 C1030 0.930 . S
H1017 C1032 0.960 . S
H1018 C1032 0.960 . S
H1019 C1032 0.960 . S
C1020 H1012 0.929 . S
C1020 C1021 1.377 . S
C1020 C1022 1.384 . S
C1021 C1020 1.377 . S
C1021 C1027 1.390 . S
C1022 H1013 0.930 . S
C1022 C1020 1.384 . S
C1022 C1023 1.372 . S
C1023 C1022 1.372 . S
C1023 C1024 1.400 . S
C1023 C1028 1.490 . S
C1024 H1014 0.930 . S
C1024 C1023 1.400 . S
C1024 C1027 1.386 . S
H1025 C1041 0.930 . S
H1026 C1042 0.931 . S
C1027 H1015 0.929 1_655 S
C1027 C1021 1.390 . S
C1027 C1024 1.386 . S
C1028 C1023 1.490 . S
C1028 C1030 1.395 . S
C1028 C1031 1.403 . S
H1029 C1035 0.930 . S
C1030 H1016 0.930 . S
C1030 C1028 1.395 . S
C1030 C1033 1.403 . S
C1031 C1028 1.403 . S
C1031 C1032 1.524 . S
C1031 C1035 1.400 . S
C1032 H1017 0.960 . S
C1032 H1018 0.960 . S
C1032 H1019 0.960 . S
C1032 C1031 1.524 . S
C1033 C1030 1.403 . S
C1033 C1034 1.392 . S
C1033 C1037 1.495 . S
C1034 C1033 1.392 . S
C1034 C1035 1.385 . S
C1034 C1036 1.478 . S
C1035 H1029 0.930 . S
C1035 C1031 1.400 . S
C1035 C1034 1.385 . S
C1036 C1034 1.478 . S
C1036 C1038 1.381 . S
C1036 C1042 1.383 . S
C1037 C1033 1.495 . S
C1037 H1043 0.959 . S
C1037 H1044 0.961 . S
C1037 H1045 0.960 . S
C1038 C1036 1.381 . S
C1038 C1039 1.394 . S
C1038 H1046 0.930 . S
C1039 C1038 1.394 . S
C1039 C1040 1.383 . S
C1039 H1047 0.929 . S
C1040 C1039 1.383 . S
C1040 C1041 1.377 . S
C1041 H1025 0.930 . S
C1041 C1040 1.377 . S
C1041 C1042 1.379 . S
C1042 H1026 0.931 . S
C1042 C1036 1.383 . S
C1042 C1041 1.379 . S
H1043 C1037 0.959 . S
H1044 C1037 0.961 . S
H1045 C1037 0.960 . S
H1046 C1038 0.930 . S
H1047 C1039 0.929 . S
C481 C241 1.528 . S
C500 C5 1.529 . S
C517 C64 1.531 . S
C536 C300 1.538 . S
C553 C123 1.532 . S
C572 C359 1.536 . S
C589 C418 1.529 . S
C608 C182 1.515 . S
C625 C3 1.421 . S
C644 C121 1.404 . S
C661 C62 1.421 . S
C680 C180 1.416 . S
C697 C357 1.423 . S
C716 C239 1.439 . S
C733 C298 1.425 . S
C752 C416 1.437 . S
C769 C347 1.184 . S
C788 C33 1.190 . S
C805 C92 1.178 . S
C824 C406 1.184 . S
C841 C151 1.176 . S
C860 C465 1.171 . S
C877 C288 1.181 . S
C896 C210 1.177 . S
C913 C269 1.176 . S
C932 C111 1.187 . S
C949 C328 1.178 . S
C968 C170 1.186 . S
C985 C387 1.178 . S
C1004 C229 1.177 . S
C1021 C52 1.184 . S
C1040 C446 1.173 . S
