# Generated by pormake.
# Topology unf, (4)-cn, num edge types: 1
# Building blocks:
#     Node 0, Type 0, BuildingBlock: GALJAG_clean_sbu_0, # of connection points: 4
#     Node 1, Type 0, BuildingBlock: GALJAG_clean_sbu_0, # of connection points: 4
#     Node 2, Type 0, BuildingBlock: GALJAG_clean_sbu_0, # of connection points: 4
#     Node 3, Type 0, BuildingBlock: GALJAG_clean_sbu_0, # of connection points: 4
#     Node 4, Type 0, BuildingBlock: GALJAG_clean_sbu_0, # of connection points: 4
#     Node 5, Type 0, BuildingBlock: GALJAG_clean_sbu_0, # of connection points: 4
#     Node 6, Type 0, BuildingBlock: GALJAG_clean_sbu_0, # of connection points: 4
#     Node 7, Type 0, BuildingBlock: GALJAG_clean_sbu_0, # of connection points: 4
#     Node 8, Type 0, BuildingBlock: GALJAG_clean_sbu_0, # of connection points: 4
#     Node 9, Type 0, BuildingBlock: GALJAG_clean_sbu_0, # of connection points: 4
#     Node 10, Type 0, BuildingBlock: GALJAG_clean_sbu_0, # of connection points: 4
#     Node 11, Type 0, BuildingBlock: GALJAG_clean_sbu_0, # of connection points: 4
#     Edge 12, Type (0, 0), BuildingBlock: UVAHIK_clean_linker_0, # of connection points: 2
#     Edge 13, Type (0, 0), BuildingBlock: UVAHIK_clean_linker_0, # of connection points: 2
#     Edge 14, Type (0, 0), BuildingBlock: UVAHIK_clean_linker_0, # of connection points: 2
#     Edge 15, Type (0, 0), BuildingBlock: UVAHIK_clean_linker_0, # of connection points: 2
#     Edge 16, Type (0, 0), BuildingBlock: UVAHIK_clean_linker_0, # of connection points: 2
#     Edge 17, Type (0, 0), BuildingBlock: UVAHIK_clean_linker_0, # of connection points: 2
#     Edge 18, Type (0, 0), BuildingBlock: UVAHIK_clean_linker_0, # of connection points: 2
#     Edge 19, Type (0, 0), BuildingBlock: UVAHIK_clean_linker_0, # of connection points: 2
#     Edge 20, Type (0, 0), BuildingBlock: UVAHIK_clean_linker_0, # of connection points: 2
#     Edge 21, Type (0, 0), BuildingBlock: UVAHIK_clean_linker_0, # of connection points: 2
#     Edge 22, Type (0, 0), BuildingBlock: UVAHIK_clean_linker_0, # of connection points: 2
#     Edge 23, Type (0, 0), BuildingBlock: UVAHIK_clean_linker_0, # of connection points: 2
#     Edge 24, Type (0, 0), BuildingBlock: UVAHIK_clean_linker_0, # of connection points: 2
#     Edge 25, Type (0, 0), BuildingBlock: UVAHIK_clean_linker_0, # of connection points: 2
#     Edge 26, Type (0, 0), BuildingBlock: UVAHIK_clean_linker_0, # of connection points: 2
#     Edge 27, Type (0, 0), BuildingBlock: UVAHIK_clean_linker_0, # of connection points: 2
#     Edge 28, Type (0, 0), BuildingBlock: UVAHIK_clean_linker_0, # of connection points: 2
#     Edge 29, Type (0, 0), BuildingBlock: UVAHIK_clean_linker_0, # of connection points: 2
#     Edge 30, Type (0, 0), BuildingBlock: UVAHIK_clean_linker_0, # of connection points: 2
#     Edge 31, Type (0, 0), BuildingBlock: UVAHIK_clean_linker_0, # of connection points: 2
#     Edge 32, Type (0, 0), BuildingBlock: UVAHIK_clean_linker_0, # of connection points: 2
#     Edge 33, Type (0, 0), BuildingBlock: UVAHIK_clean_linker_0, # of connection points: 2
#     Edge 34, Type (0, 0), BuildingBlock: UVAHIK_clean_linker_0, # of connection points: 2
#     Edge 35, Type (0, 0), BuildingBlock: UVAHIK_clean_linker_0, # of connection points: 2
# Relax obj value: 0.104
# Max RMSD: 0.121
# Mean RMSD: 0.121
data_MOF--net-unf--node1-GALJAG_clean_sbu_0--edge1-UVAHIK_clean_linker_0
_symmetry_space_group_name_H-M    P1
_symmetry_Int_Tables_number       1
_symmetry_cell_setting            triclinic
loop_
_symmetry_equiv_pos_as_xyz
'x, y, z'
_cell_length_a     51.388668
_cell_length_b     51.458741
_cell_length_c     45.309105
_cell_angle_alpha  90.031182
_cell_angle_beta   90.021058
_cell_angle_gamma 119.98944
loop_
_atom_site_label
_atom_site_type_symbol
_atom_site_fract_x
_atom_site_fract_y
_atom_site_fract_z
_atom_type_partial_charge
In0 In 0.09778 0.39656 0.06307 0.0
O1 O 0.101 0.39118 0.1125 0.0
O2 O 0.13824 0.42765 0.09114 0.0
C3 C 0.04278 0.34987 0.0521 0.0
C4 C 0.1325 0.3792 0.03469 0.0
C5 C 0.08417 0.43917 0.04937 0.0
O6 O 0.05372 0.35569 0.07786 0.0
O7 O 0.05971 0.3673 0.03228 0.0
O8 O 0.09875 0.43196 0.03201 0.0
O9 O 0.07797 0.42599 0.07397 0.0
C10 C 0.12711 0.4136 0.11487 0.0
O11 O 0.13512 0.40468 0.03043 0.0
O12 O 0.11265 0.36293 0.05316 0.0
In13 In 0.58796 0.69947 0.05562 0.0
O14 O 0.58831 0.70678 0.10508 0.0
O15 O 0.5626 0.7197 0.07849 0.0
C16 C 0.63122 0.68442 0.05642 0.0
C17 C 0.60897 0.74609 0.0179 0.0
C18 C 0.54128 0.64493 0.04319 0.0
O19 O 0.63085 0.70274 0.07472 0.0
O20 O 0.61042 0.67453 0.03758 0.0
O21 O 0.554 0.66509 0.02387 0.0
O22 O 0.55105 0.65295 0.0691 0.0
C23 C 0.57144 0.71802 0.10402 0.0
O24 O 0.58244 0.7243 0.01659 0.0
O25 O 0.62479 0.74435 0.03822 0.0
In26 In 0.29219 0.88824 0.05236 0.0
O27 O 0.26122 0.85076 0.02068 0.0
O28 O 0.24987 0.88394 0.03173 0.0
C29 C 0.34531 0.89157 0.04217 0.0
C30 C 0.272 0.85975 0.10427 0.0
C31 C 0.31227 0.94719 0.04592 0.0
O32 O 0.32531 0.88373 0.02254 0.0
O33 O 0.33782 0.89619 0.06729 0.0
O34 O 0.29629 0.93249 0.06766 0.0
O35 O 0.31741 0.93202 0.0274 0.0
C36 C 0.24302 0.86027 0.01764 0.0
O37 O 0.28074 0.88725 0.10098 0.0
O38 O 0.2738 0.84669 0.08145 0.0
In39 In 0.59374 0.89314 0.42223 0.0
O40 O 0.579 0.8522 0.45184 0.0
O41 O 0.62289 0.87303 0.43314 0.0
C42 C 0.55342 0.90735 0.4432 0.0
C43 C 0.57901 0.86732 0.36865 0.0
C44 C 0.6422 0.94809 0.42927 0.0
O45 O 0.56786 0.89943 0.45988 0.0
O46 O 0.55833 0.90671 0.41606 0.0
O47 O 0.62555 0.94128 0.40678 0.0
O48 O 0.63482 0.92704 0.44747 0.0
C49 C 0.60364 0.85247 0.44934 0.0
O50 O 0.60409 0.89035 0.3739 0.0
O51 O 0.56137 0.85748 0.3904 0.0
In52 In 0.09606 0.6994 0.42538 0.0
O53 O 0.09586 0.70927 0.37649 0.0
O54 O 0.13461 0.70992 0.39367 0.0
C55 C 0.03944 0.68974 0.42741 0.0
C56 C 0.13323 0.74837 0.45705 0.0
C57 C 0.08545 0.64683 0.44845 0.0
O58 O 0.04615 0.67271 0.41345 0.0
O59 O 0.0613 0.71184 0.43969 0.0
O60 O 0.08534 0.66723 0.46381 0.0
O61 O 0.09241 0.65357 0.42173 0.0
C62 C 0.12177 0.71337 0.37154 0.0
O63 O 0.13307 0.72387 0.45995 0.0
O64 O 0.115 0.74798 0.43818 0.0
In65 In 0.28772 0.39579 0.42952 0.0
O66 O 0.27675 0.39019 0.38061 0.0
O67 O 0.27866 0.42776 0.40237 0.0
C68 C 0.2988 0.35015 0.43487 0.0
C69 C 0.23605 0.37739 0.45916 0.0
C70 C 0.3432 0.43821 0.44623 0.0
O71 O 0.29559 0.3593 0.41002 0.0
O72 O 0.2955 0.36341 0.45673 0.0
O73 O 0.32092 0.4283 0.46338 0.0
O74 O 0.33703 0.42806 0.42029 0.0
C75 C 0.27407 0.4132 0.37865 0.0
O76 O 0.25869 0.40313 0.46288 0.0
O77 O 0.23958 0.36118 0.44055 0.0
In78 In 0.88634 0.60303 0.9436 0.0
O79 O 0.84062 0.58263 0.96655 0.0
O80 O 0.87385 0.62723 0.97764 0.0
C81 C 0.90305 0.56199 0.95472 0.0
C82 C 0.85741 0.59755 0.89244 0.0
C83 C 0.94128 0.65221 0.94628 0.0
O84 O 0.8887 0.56834 0.97316 0.0
O85 O 0.90768 0.5753 0.93032 0.0
O86 O 0.92834 0.64115 0.92203 0.0
O87 O 0.92633 0.63869 0.96887 0.0
C88 C 0.84749 0.60587 0.98155 0.0
O89 O 0.87197 0.62218 0.90596 0.0
O90 O 0.85751 0.57557 0.90467 0.0
In91 In 0.39187 0.28752 0.93695 0.0
O92 O 0.36964 0.25827 0.89681 0.0
O93 O 0.41704 0.28679 0.89577 0.0
C94 C 0.34294 0.29386 0.93678 0.0
C95 C 0.39493 0.24628 0.97102 0.0
C96 C 0.43173 0.34215 0.95784 0.0
O97 O 0.3433 0.27206 0.94911 0.0
O98 O 0.367 0.31199 0.92386 0.0
O99 O 0.41534 0.32047 0.97456 0.0
O100 O 0.42906 0.33579 0.93072 0.0
C101 C 0.39377 0.26722 0.88267 0.0
O102 O 0.41461 0.26145 0.95194 0.0
O103 O 0.37427 0.25258 0.9735 0.0
In104 In 0.70229 0.08754 0.92325 0.0
O105 O 0.71438 0.09764 0.87476 0.0
O106 O 0.70717 0.12874 0.89919 0.0
C107 C 0.69805 0.03354 0.91681 0.0
C108 C 0.75245 0.12352 0.95377 0.0
C109 C 0.64782 0.06752 0.94801 0.0
O110 O 0.68615 0.04322 0.8988 0.0
O111 O 0.71238 0.05128 0.9376 0.0
O112 O 0.67097 0.07435 0.96312 0.0
O113 O 0.65251 0.07228 0.92075 0.0
C114 C 0.71389 0.12189 0.87476 0.0
O115 O 0.72854 0.12453 0.95713 0.0
O116 O 0.75085 0.10456 0.93512 0.0
In117 In 0.38345 0.09656 0.55701 0.0
O118 O 0.403 0.13984 0.53001 0.0
O119 O 0.3558 0.11013 0.52881 0.0
C120 C 0.42494 0.08346 0.53734 0.0
C121 C 0.38852 0.12383 0.60928 0.0
C122 C 0.33798 0.03942 0.55899 0.0
O123 O 0.40712 0.08628 0.52027 0.0
O124 O 0.42267 0.08853 0.56417 0.0
O125 O 0.36071 0.04895 0.57552 0.0
O126 O 0.33799 0.05884 0.54201 0.0
C127 C 0.37779 0.13456 0.52026 0.0
O128 O 0.36384 0.10326 0.59939 0.0
O129 O 0.41083 0.13058 0.59291 0.0
In130 In 0.89047 0.2903 0.56896 0.0
O131 O 0.85491 0.26453 0.5335 0.0
O132 O 0.86638 0.24003 0.56358 0.0
C133 C 0.90595 0.34339 0.54355 0.0
C134 C 0.86177 0.28187 0.62076 0.0
C135 C 0.94491 0.29434 0.56895 0.0
O136 O 0.9032 0.32125 0.52899 0.0
O137 O 0.89937 0.33819 0.5705 0.0
O138 O 0.93907 0.31071 0.58514 0.0
O139 O 0.92317 0.27557 0.55361 0.0
C140 C 0.85069 0.23925 0.54181 0.0
O141 O 0.88688 0.28314 0.61866 0.0
O142 O 0.85143 0.28543 0.59679 0.0
In143 In 0.69667 0.59573 0.56357 0.0
O144 O 0.71365 0.61272 0.60969 0.0
O145 O 0.70557 0.56913 0.59857 0.0
C146 C 0.68248 0.63821 0.55087 0.0
C147 C 0.74693 0.60991 0.53285 0.0
C148 C 0.64126 0.54992 0.55195 0.0
O149 O 0.68797 0.63351 0.57687 0.0
O150 O 0.68482 0.62198 0.53139 0.0
O151 O 0.6628 0.55821 0.53405 0.0
O152 O 0.64824 0.56351 0.57637 0.0
C153 C 0.71432 0.58962 0.61777 0.0
O154 O 0.72553 0.58323 0.53495 0.0
O155 O 0.74278 0.62908 0.54606 0.0
C156 C 0.17545 0.38847 0.00166 0.0
C157 C 0.15141 0.36907 0.01987 0.0
C158 C 0.1941 0.37892 0.98904 0.0
C159 C 0.21881 0.32405 0.00151 0.0
H160 H 0.24941 0.3434 0.92154 0.0
C161 C 0.29118 0.27839 0.95428 0.0
C162 C 0.3175 0.2993 0.93973 0.0
C163 C 0.26864 0.28518 0.96048 0.0
C164 C 0.24115 0.33797 0.94396 0.0
H165 H 0.12728 0.32418 0.03826 0.0
H166 H 0.1595 0.30749 0.01608 0.0
H167 H 0.21457 0.35925 0.93946 0.0
H168 H 0.34034 0.3431 0.91893 0.0
H169 H 0.30116 0.35517 0.93016 0.0
H170 H 0.24557 0.30327 0.00636 0.0
C171 C 0.16436 0.33022 0.01195 0.0
C172 C 0.22127 0.34708 0.95422 0.0
C173 C 0.14583 0.33975 0.02456 0.0
C174 C 0.32025 0.32654 0.9302 0.0
C175 C 0.29775 0.3334 0.93651 0.0
C176 C 0.23862 0.31501 0.99131 0.0
C177 C 0.18898 0.34982 0.99445 0.0
C178 C 0.20988 0.34016 0.98311 0.0
C179 C 0.27206 0.3131 0.95239 0.0
C180 C 0.25002 0.32183 0.96244 0.0
H181 H 0.18022 0.41118 -0.00234 0.0
H182 H 0.21304 0.39459 0.97581 0.0
H183 H 0.21094 0.31892 0.02409 0.0
H184 H 0.28836 0.25711 0.96167 0.0
H185 H 0.24882 0.26882 0.97222 0.0
C186 C 0.64883 0.79729 0.00275 0.0
C187 C 0.62029 0.77221 -0.00195 0.0
C188 C 0.6588 0.82294 0.98544 0.0
C189 C 0.6289 0.86194 0.94144 0.0
H190 H 0.71329 0.91557 0.92464 0.0
C191 C 0.67089 0.98101 0.89745 0.0
C192 C 0.69348 0.00294 0.91541 0.0
C193 C 0.66373 0.95105 0.89949 0.0
C194 C 0.68962 0.9007 0.929 0.0
H195 H 0.58034 0.75365 0.97071 0.0
H196 H 0.59795 0.79836 0.94006 0.0
H197 H 0.69679 0.86508 0.94303 0.0
H198 H 0.72763 0.01127 0.94809 0.0
H199 H 0.71528 0.95912 0.95154 0.0
H200 H 0.62188 0.89785 0.92824 0.0
C201 C 0.6124 0.79842 0.9575 0.0
C202 C 0.68018 0.87187 0.93964 0.0
C203 C 0.60235 0.77279 0.97497 0.0
C204 C 0.71002 -0.00522 0.93407 0.0
C205 C 0.70309 0.96495 0.93588 0.0
C206 C 0.63832 0.89067 0.93061 0.0
C207 C 0.64053 0.824 0.96289 0.0
C208 C 0.64986 0.85253 0.94694 0.0
C209 C 0.67932 0.94266 0.91925 0.0
C210 C 0.66889 0.91066 0.9252 0.0
H211 H 0.66315 0.79747 0.0204 0.0
H212 H 0.68036 0.84236 0.99056 0.0
H213 H 0.60544 0.84781 0.94714 0.0
H214 H 0.65783 0.98674 0.88284 0.0
H215 H 0.64543 0.9343 0.88629 0.0
C216 C 0.19629 0.85656 -0.003 0.0
C217 C 0.21462 0.8438 0.00107 0.0
C218 C 0.1677 0.83973 0.98466 0.0
C219 C 0.11654 0.76833 0.94566 0.0
H220 H 0.05505 0.77407 0.98998 0.0
C221 C 0.98938 0.69092 0.92292 0.0
C222 C 0.97196 0.67815 0.94834 0.0
C223 C 0.01908 0.71439 0.92535 0.0
C224 C 0.07195 0.77223 0.97734 0.0
H225 H 0.21817 0.80402 0.99411 0.0
H226 H 0.16797 0.77432 0.97318 0.0
H227 H 0.10769 0.80897 0.00027 0.0
H228 H 0.97165 0.68021 -0.00386 0.0
H229 H 0.02328 0.72085 0.00041 0.0
H230 H 0.08054 0.73048 0.92384 0.0
C231 C 0.17578 0.79747 0.97906 0.0
C232 C 0.10216 0.79248 0.98297 0.0
C233 C 0.20448 0.81441 0.99122 0.0
C234 C 0.9845 0.68964 0.97615 0.0
C235 C 0.01404 0.71308 0.97857 0.0
C236 C 0.08623 0.74799 0.94006 0.0
C237 C 0.15677 0.8097 0.97637 0.0
C238 C 0.12484 0.7904 0.96764 0.0
C239 C 0.03175 0.72558 0.95325 0.0
C240 C 0.06366 0.74931 0.95637 0.0
H241 H 0.20367 0.87931 0.00412 0.0
H242 H 0.15385 0.85 0.98235 0.0
H243 H 0.13347 0.76636 0.93323 0.0
H244 H 0.98023 0.68246 0.90119 0.0
H245 H 0.03214 0.72374 0.90545 0.0
C246 C 0.66283 0.66112 0.51522 0.0
C247 C 0.67298 0.66017 0.54376 0.0
C248 C 0.65307 0.6813 0.50846 0.0
C249 C 0.66174 0.75332 0.53035 0.0
H250 H 0.59007 0.72782 0.48293 0.0
C251 C 0.63903 0.83497 0.46401 0.0
C252 C 0.60979 0.8306 0.46413 0.0
C253 C 0.64509 0.81417 0.47737 0.0
C254 C 0.60992 0.73518 0.49648 0.0
H255 H 0.68098 0.67956 0.58762 0.0
H256 H 0.66423 0.71527 0.57563 0.0
H257 H 0.60338 0.69078 0.49957 0.0
H258 H 0.56396 0.80125 0.47853 0.0
H259 H 0.57453 0.76447 0.50166 0.0
H260 H 0.66861 0.79781 0.52673 0.0
C261 C 0.66381 0.70031 0.55857 0.0
C262 C 0.61768 0.71407 0.50575 0.0
C263 C 0.67332 0.67988 0.56542 0.0
C264 C 0.5867 0.80513 0.4781 0.0
C265 C 0.59272 0.78409 0.49124 0.0
C266 C 0.65412 0.77447 0.52085 0.0
C267 C 0.65348 0.7011 0.53004 0.0
C268 C 0.64391 0.72302 0.52238 0.0
C269 C 0.62198 0.78842 0.49091 0.0
C270 C 0.6284 0.76566 0.50344 0.0
H271 H 0.66226 0.64614 0.4981 0.0
H272 H 0.64563 0.68173 0.48619 0.0
H273 H 0.68215 0.76084 0.54302 0.0
H274 H 0.65729 0.85443 0.45344 0.0
H275 H 0.66776 0.81786 0.47645 0.0
C276 C 0.17379 0.77608 0.49464 0.0
C277 C 0.15281 0.77553 0.4744 0.0
C278 C 0.19235 0.80222 0.51066 0.0
C279 C 0.19936 0.87473 0.53329 0.0
H280 H 0.28496 0.90354 0.53475 0.0
C281 C 0.28811 -0.00098 0.54132 0.0
C282 C 0.31422 0.00764 0.55795 0.0
C283 C 0.26682 0.96876 0.53784 0.0
C284 C 0.26106 0.89553 0.53508 0.0
H285 H 0.13456 0.80166 0.45518 0.0
H286 H 0.16693 0.84706 0.48269 0.0
H287 H 0.25053 0.85333 0.51594 0.0
H288 H 0.33818 0.99153 0.58479 0.0
H289 H 0.30088 0.93837 0.57847 0.0
H290 H 0.21001 0.9174 0.55125 0.0
C291 C 0.16887 0.82733 0.48664 0.0
C292 C 0.24134 0.86678 0.52431 0.0
C293 C 0.15049 0.80137 0.47066 0.0
C294 C 0.31821 0.98548 0.57185 0.0
C295 C 0.29699 0.95511 0.56814 0.0
C296 C 0.21905 0.90345 0.54394 0.0
C297 C 0.19004 0.82811 0.50679 0.0
C298 C 0.21039 0.85647 0.52245 0.0
C299 C 0.27128 0.94647 0.55077 0.0
C300 C 0.25016 0.91447 0.54412 0.0
H301 H 0.17599 0.75642 0.49799 0.0
H302 H 0.2084 0.80215 0.52611 0.0
H303 H 0.17555 0.86713 0.53272 0.0
H304 H 0.28446 0.01564 0.53036 0.0
H305 H 0.24742 0.96279 0.52402 0.0
C306 C 0.00055 0.32509 0.57596 0.0
C307 C 0.97541 0.29887 0.56546 0.0
C308 C 0.02956 0.33153 0.56841 0.0
C309 C 0.06748 0.31459 0.5091 0.0
H310 H 0.13777 0.35514 0.55933 0.0
C311 C 0.18312 0.33814 0.46958 0.0
C312 C 0.20739 0.36706 0.47483 0.0
C313 C 0.15552 0.32857 0.4833 0.0
C314 C 0.11833 0.34398 0.54504 0.0
H315 H 0.96079 0.25776 0.54075 0.0
H316 H 0.0113 0.26858 0.52821 0.0
H317 H 0.088 0.33968 0.57967 0.0
H318 H 0.22209 0.40842 0.49911 0.0
H319 H 0.17358 0.39175 0.52296 0.0
H320 H 0.09759 0.3191 0.47443 0.0
C321 C 0.0087 0.28461 0.54154 0.0
C322 C 0.08987 0.33512 0.55667 0.0
C323 C 0.97978 0.27831 0.54889 0.0
C324 C 0.20373 0.38602 0.49463 0.0
C325 C 0.17605 0.37641 0.50841 0.0
C326 C 0.0958 0.32335 0.49755 0.0
C327 C 0.03387 0.31174 0.55037 0.0
C328 C 0.06413 0.32031 0.53879 0.0
C329 C 0.15155 0.34772 0.50256 0.0
C330 C 0.12154 0.33814 0.51535 0.0
H331 H -0.00221 0.34135 0.58873 0.0
H332 H 0.04847 0.35268 0.57544 0.0
H333 H 0.04824 0.30393 0.4945 0.0
H334 H 0.18533 0.32294 0.45459 0.0
H335 H 0.13719 0.30617 0.47871 0.0
C336 C 0.67986 0.68976 0.07416 0.0
C337 C 0.65363 0.67456 0.05707 0.0
C338 C 0.70129 0.68056 0.07379 0.0
C339 C 0.71225 0.61687 0.05541 0.0
H340 H 0.79308 0.67789 0.0341 0.0
C341 C 0.79482 0.58983 -0.00352 0.0
C342 C 0.82579 0.60915 0.00014 0.0
C343 C 0.7743 0.59584 0.01074 0.0
C344 C 0.77088 0.66057 0.04079 0.0
H345 H 0.6287 0.63734 0.02702 0.0
H346 H 0.66592 0.62125 0.02654 0.0
H347 H 0.75609 0.69248 0.04622 0.0
H348 H 0.8597 0.64843 0.02329 0.0
H349 H 0.82392 0.65836 0.049 0.0
H350 H 0.72682 0.58486 0.04951 0.0
C351 C 0.66995 0.64018 0.04023 0.0
C352 C 0.74966 0.669 0.04765 0.0
C353 C 0.6488 0.64959 0.04028 0.0
C354 C 0.83589 0.63339 0.01981 0.0
C355 C 0.81539 0.63916 0.03438 0.0
C356 C 0.73356 0.60844 0.04885 0.0
C357 C 0.69653 0.65574 0.05671 0.0
C358 C 0.71995 0.64716 0.05418 0.0
C359 C 0.78438 0.62109 0.02923 0.0
C360 C 0.76292 0.63012 0.0406 0.0
H361 H 0.68405 0.70903 0.08736 0.0
H362 H 0.72162 0.6929 0.08671 0.0
H363 H 0.68953 0.59963 0.06075 0.0
H364 H 0.78646 0.57101 0.98138 0.0
H365 H 0.75063 0.58159 0.00595 0.0
C366 C 0.41343 0.21018 0.97801 0.0
C367 C 0.39398 0.22062 0.98647 0.0
C368 C 0.40911 0.18289 0.98876 0.0
C369 C 0.3706 0.12379 0.04469 0.0
H370 H 0.36321 0.07039 0.98075 0.0
C371 C 0.31328 -0.00503 0.05893 0.0
C372 C 0.32454 0.9797 0.04239 0.0
C373 C 0.32457 0.02569 0.05464 0.0
C374 C 0.36574 0.08505 -0.00099 0.0
H375 H 0.35625 0.21198 0.01444 0.0
H376 H 0.34886 0.16434 0.03339 0.0
H377 H 0.37998 0.12266 0.97028 0.0
H378 H 0.35721 0.98459 0.00937 0.0
H379 H 0.37757 0.03813 0.00258 0.0
H380 H 0.35635 0.08608 0.07348 0.0
C381 C 0.36735 0.1772 0.01841 0.0
C382 C 0.37533 0.11504 0.99296 0.0
C383 C 0.3715 0.20438 0.00746 0.0
C384 C 0.3478 -0.00426 0.02213 0.0
C385 C 0.35937 0.02642 0.01815 0.0
C386 C 0.36131 0.09375 0.05084 0.0
C387 C 0.38546 0.16573 0.00835 0.0
C388 C 0.37764 0.13465 0.01566 0.0
C389 C 0.34759 0.04173 0.03399 0.0
C390 C 0.35854 0.07397 0.02801 0.0
H391 H 0.43102 0.22229 0.96194 0.0
H392 H 0.42359 0.17466 0.98094 0.0
H393 H 0.37228 0.13852 0.06258 0.0
H394 H 0.29532 0.98308 0.07471 0.0
H395 H 0.3147 0.03665 0.06696 0.0
C396 C 0.00174 0.32064 0.01619 0.0
C397 C 0.01245 0.32488 0.0453 0.0
C398 C 0.97315 0.29722 0.00927 0.0
C399 C 0.89924 0.24511 0.04098 0.0
H400 H 0.88994 0.20217 0.96781 0.0
C401 C 0.78423 0.16883 0.98484 0.0
C402 C 0.78058 0.14348 0.96955 0.0
C403 C 0.81196 0.18897 -0.00248 0.0
C404 C 0.89211 0.2136 0.98853 0.0
H405 H 0.00162 0.30814 0.09013 0.0
H406 H 0.95142 0.26672 0.0779 0.0
H407 H 0.93963 0.24065 0.98342 0.0
H408 H 0.80233 0.11829 0.95698 0.0
H409 H 0.85033 0.15291 0.9796 0.0
H410 H 0.85154 0.21767 0.0461 0.0
C411 C 0.96516 0.28176 0.06052 0.0
C412 C 0.92059 0.23596 -0.00272 0.0
C413 C -0.0061 0.30532 0.06747 0.0
C414 C 0.80463 0.13788 0.96829 0.0
C415 C 0.83217 0.15779 0.98115 0.0
C416 C 0.87062 0.2226 0.03222 0.0
C417 C 0.9546 0.27739 0.03127 0.0
C418 C 0.92445 0.25227 0.02335 0.0
C419 C 0.83641 0.18395 0.99527 0.0
C420 C 0.86674 0.20678 0.00574 0.0
H421 H 0.01542 0.33548 -0.00135 0.0
H422 H 0.96546 0.29482 0.98664 0.0
H423 H 0.90151 0.25742 0.06111 0.0
H424 H 0.766 0.17363 0.98614 0.0
H425 H 0.81455 0.20903 0.00803 0.0
C426 C 0.39814 0.18478 0.4962 0.0
C427 C 0.37378 0.15611 0.50218 0.0
C428 C 0.39343 0.2063 0.48223 0.0
C429 C 0.33684 0.21736 0.44133 0.0
H430 H 0.37367 0.29343 0.4829 0.0
C431 C 0.31288 0.31386 0.41367 0.0
C432 C 0.30776 0.32722 0.43837 0.0
C433 C 0.32334 0.29365 0.41732 0.0
C434 C 0.36325 0.27231 0.47103 0.0
H435 H 0.32575 0.12684 0.49675 0.0
H436 H 0.31749 0.16437 0.47278 0.0
H437 H 0.3884 0.25653 0.495 0.0
H438 H 0.30897 0.32953 0.4862 0.0
H439 H 0.32688 0.29419 0.49255 0.0
H440 H 0.31066 0.23279 0.41835 0.0
C441 C 0.34025 0.17027 0.47856 0.0
C442 C 0.37199 0.25132 0.47767 0.0
C443 C 0.34495 0.14882 0.49253 0.0
C444 C 0.31279 0.31966 0.46673 0.0
C445 C 0.32331 0.29963 0.47036 0.0
C446 C 0.32813 0.23844 0.43464 0.0
C447 C 0.3643 0.19948 0.47394 0.0
C448 C 0.35833 0.2233 0.46345 0.0
C449 C 0.32903 0.28666 0.44572 0.0
C450 C 0.34066 0.26577 0.45004 0.0
H451 H 0.42064 0.19094 0.50325 0.0
H452 H 0.41246 0.22853 0.47862 0.0
H453 H 0.32616 0.19608 0.42976 0.0
H454 H 0.30925 0.31937 0.39154 0.0
H455 H 0.3276 0.284 0.39795 0.0
C456 C 0.81287 0.21006 0.50233 0.0
C457 C 0.82921 0.21071 0.52748 0.0
C458 C 0.79251 0.18264 0.48921 0.0
C459 C 0.74695 0.10246 0.50688 0.0
H460 H 0.74558 0.08914 0.42247 0.0
C461 C 0.68535 0.98406 0.46003 0.0
C462 C 0.6666 0.97882 0.43558 0.0
C463 C 0.70583 0.01326 0.46875 0.0
C464 C 0.74552 0.09266 0.44604 0.0
H465 H 0.83739 0.18337 0.55838 0.0
H466 H 0.8021 0.13586 0.53559 0.0
H467 H 0.77934 0.13914 0.44281 0.0
H468 H 0.65549 -0.0001 0.40014 0.0
H469 H 0.69132 0.05126 0.41561 0.0
H470 H 0.71339 0.05625 0.51036 0.0
C471 C 0.80468 0.15635 0.52615 0.0
C472 C 0.76476 0.12123 0.45764 0.0
C473 C 0.82501 0.1836 0.53912 0.0
C474 C 0.66973 0.00334 0.41908 0.0
C475 C 0.69023 0.0327 0.42791 0.0
C476 C 0.72779 0.07407 0.49534 0.0
C477 C 0.78806 0.15552 0.5012 0.0
C478 C 0.76603 0.1262 0.48826 0.0
C479 C 0.70789 0.0379 0.45332 0.0
C480 C 0.72727 0.06868 0.46489 0.0
H481 H 0.81576 0.23066 0.49288 0.0
H482 H 0.77989 0.1826 0.47004 0.0
H483 H 0.74696 0.10579 0.53049 0.0
H484 H 0.68364 0.96558 0.47299 0.0
H485 H 0.71965 0.01655 0.488 0.0
C486 C 0.00259 0.70454 0.44435 0.0
C487 C 0.00826 0.6831 0.43139 0.0
C488 C 0.97331 0.69727 0.45143 0.0
C489 C 0.89278 0.64077 0.44028 0.0
H490 H 0.88473 0.66939 0.51706 0.0
C491 C 0.77962 0.59645 0.50306 0.0
C492 C 0.77518 0.61824 0.51719 0.0
C493 C 0.80721 0.6045 0.48976 0.0
C494 C 0.88662 0.66149 0.49543 0.0
H495 H 0.9878 0.63765 0.41455 0.0
H496 H 0.93658 0.62463 0.42756 0.0
H497 H 0.93439 0.68356 0.49846 0.0
H498 H 0.79566 0.6656 0.52767 0.0
H499 H 0.84363 0.67956 0.50456 0.0
H500 H 0.84465 0.61812 0.43781 0.0
C501 C 0.95468 0.64722 0.43184 0.0
C502 C 0.9151 0.6697 0.48469 0.0
C503 C 0.98401 0.65462 0.42449 0.0
C504 C 0.79847 0.64827 0.51713 0.0
C505 C 0.82598 0.65626 0.504 0.0
C506 C 0.86416 0.63239 0.45116 0.0
C507 C 0.9491 0.66827 0.44604 0.0
C508 C 0.91858 0.65961 0.45693 0.0
C509 C 0.8308 0.63442 0.49057 0.0
C510 C 0.86087 0.64284 0.47878 0.0
H511 H 0.02086 0.72678 0.44965 0.0
H512 H 0.96972 0.71424 0.46169 0.0
H513 H 0.89471 0.63279 0.41873 0.0
H514 H 0.762 0.57314 0.50274 0.0
H515 H 0.8104 0.5872 0.47969 0.0
C516 C 0.25636 0.44356 0.35101 0.0
C517 C 0.26469 0.42138 0.35109 0.0
C518 C 0.245 0.44936 0.32536 0.0
C519 C 0.20049 0.43759 0.27537 0.0
H520 H 0.23281 0.43799 0.19792 0.0
C521 C 0.13034 0.40587 0.16883 0.0
C522 C 0.14401 0.42169 0.14287 0.0
C523 C 0.147 0.41176 0.1948 0.0
C524 C 0.22374 0.43838 0.21938 0.0
H525 H 0.26878 0.3887 0.32426 0.0
H526 H 0.24907 0.39886 0.27954 0.0
H527 H 0.26032 0.43831 0.24195 0.0
H528 H 0.18551 0.4568 0.12387 0.0
H529 H 0.21468 0.46702 0.16931 0.0
H530 H 0.16354 0.43692 0.25277 0.0
C531 C 0.2514 0.41186 0.2992 0.0
C532 C 0.23935 0.43829 0.24456 0.0
C533 C 0.2625 0.40589 0.32485 0.0
C534 C 0.17441 0.44419 0.14356 0.0
C535 C 0.19113 0.44996 0.1695 0.0
C536 C 0.18477 0.43749 0.25017 0.0
C537 C 0.24208 0.43329 0.29931 0.0
C538 C 0.22756 0.43725 0.27278 0.0
C539 C 0.17769 0.43349 0.19525 0.0
C540 C 0.19594 0.43726 0.22193 0.0
H541 H 0.25786 0.45586 0.37095 0.0
H542 H 0.23817 0.46614 0.32599 0.0
H543 H 0.19076 0.43658 0.29684 0.0
H544 H 0.10693 0.38841 0.16894 0.0
H545 H 0.13611 0.39845 0.21421 0.0
C546 C 0.54888 0.74597 0.12797 0.0
C547 C 0.5639 0.72957 0.13049 0.0
C548 C 0.54395 0.75889 0.15294 0.0
C549 C 0.54282 0.75675 0.23451 0.0
H550 H 0.5681 0.84132 0.22862 0.0
C551 C 0.54431 0.82513 0.33575 0.0
C552 C 0.57139 0.85224 0.33969 0.0
C553 C 0.5381 0.80969 0.30898 0.0
C554 C 0.56084 0.81768 0.23055 0.0
H555 H 0.58457 0.71285 0.16107 0.0
H556 H 0.57603 0.73538 0.20456 0.0
H557 H 0.56624 0.81345 0.18428 0.0
H558 H 0.61271 0.88505 0.31849 0.0
H559 H 0.60197 0.85803 0.2718 0.0
H560 H 0.53869 0.76125 0.28093 0.0
C561 C 0.56788 0.73814 0.18341 0.0
C562 C 0.55948 0.80166 0.20515 0.0
C563 C 0.57297 0.72542 0.15848 0.0
C564 C 0.59167 0.86417 0.31608 0.0
C565 C 0.58542 0.8488 0.28928 0.0
C566 C 0.54406 0.77273 0.25987 0.0
C567 C 0.55374 0.75539 0.18085 0.0
C568 C 0.55118 0.77122 0.20701 0.0
C569 C 0.55879 0.82117 0.28561 0.0
C570 C 0.5538 0.80352 0.25825 0.0
H571 H 0.5416 0.74946 0.10664 0.0
H572 H 0.53279 0.77189 0.15039 0.0
H573 H 0.53603 0.73322 0.23652 0.0
H574 H 0.5282 0.81548 0.35356 0.0
H575 H 0.51728 0.78859 0.30666 0.0
C576 C 0.25683 0.85922 0.15667 0.0
C577 C 0.25933 0.8438 0.13226 0.0
C578 C 0.24302 0.84382 0.18255 0.0
C579 C 0.21949 0.77354 0.22348 0.0
H580 H 0.163 0.79297 0.25982 0.0
C581 C 0.16678 0.73122 0.33897 0.0
C582 C 0.13664 0.72356 0.34266 0.0
C583 C 0.18166 0.74369 0.31243 0.0
C584 C 0.17848 0.78707 0.24979 0.0
H585 H 0.25016 0.80039 0.11598 0.0
H586 H 0.22581 0.77339 0.16121 0.0
H587 H 0.18997 0.81961 0.21564 0.0
H588 H 0.09798 0.72158 0.32115 0.0
H589 H 0.12381 0.743 0.27476 0.0
H590 H 0.20758 0.74066 0.25758 0.0
C591 C 0.23473 0.79741 0.1604 0.0
C592 C 0.19424 0.80263 0.22471 0.0
C593 C 0.24853 0.81283 0.13447 0.0
C594 C 0.12129 0.72748 0.319 0.0
C595 C 0.13613 0.7399 0.2925 0.0
C596 C 0.20373 0.75799 0.24869 0.0
C597 C 0.23144 0.81268 0.18455 0.0
C598 C 0.21496 0.7961 0.21132 0.0
C599 C 0.16663 0.74872 0.28915 0.0
C600 C 0.18304 0.76459 0.26207 0.0
H601 H 0.26511 0.88313 0.15564 0.0
H602 H 0.24125 0.85627 0.20097 0.0
H603 H 0.23545 0.76815 0.21371 0.0
H604 H 0.17915 0.72843 0.35687 0.0
H605 H 0.20522 0.75044 0.31057 0.0
C606 C 0.82757 0.56764 0.84878 0.0
C607 C 0.84156 0.59483 0.86447 0.0
C608 C 0.81298 0.56541 0.82205 0.0
C609 C 0.81021 0.6126 0.76207 0.0
H610 H 0.73392 0.54217 0.7429 0.0
C611 C 0.73764 0.61231 0.66615 0.0
C612 C 0.72606 0.58764 0.64688 0.0
C613 C 0.75077 0.61159 0.69283 0.0
C614 C 0.75535 0.56184 0.74788 0.0
H615 H 0.85081 0.64082 0.8649 0.0
H616 H 0.82498 0.63684 0.81868 0.0
H617 H 0.759 0.54401 0.7894 0.0
H618 H 0.71828 0.54251 0.64074 0.0
H619 H 0.74125 0.54122 0.68769 0.0
H620 H 0.80642 0.6306 0.72084 0.0
C621 C 0.82576 0.61738 0.82659 0.0
C622 C 0.76974 0.56289 0.77444 0.0
C623 C 0.84042 0.61963 0.85317 0.0
C624 C 0.72706 0.56185 0.6552 0.0
C625 C 0.74009 0.56107 0.68206 0.0
C626 C 0.79579 0.61161 0.73569 0.0
C627 C 0.81207 0.59034 0.81059 0.0
C628 C 0.79718 0.58844 0.78195 0.0
C629 C 0.7525 0.58615 0.70088 0.0
C630 C 0.76808 0.58638 0.72846 0.0
H631 H 0.82814 0.54817 0.857 0.0
H632 H 0.80289 0.54435 0.81013 0.0
H633 H 0.83166 0.63232 0.76684 0.0
H634 H 0.73707 0.63245 0.66041 0.0
H635 H 0.75972 0.63105 0.70714 0.0
C636 C 0.42213 0.26432 0.83912 0.0
C637 C 0.3947 0.25464 0.85374 0.0
C638 C 0.42299 0.25106 0.81248 0.0
C639 C 0.37996 0.18131 0.77024 0.0
H640 H 0.42738 0.22839 0.70359 0.0
C641 C 0.36501 0.13072 0.65446 0.0
C642 C 0.39086 0.139 0.63756 0.0
C643 C 0.36693 0.1452 0.68106 0.0
C644 C 0.41436 0.21493 0.72215 0.0
H645 H 0.3466 0.2241 0.8517 0.0
H646 H 0.34806 0.20114 0.80517 0.0
H647 H 0.42805 0.25359 0.74956 0.0
H648 H 0.43904 0.16885 0.63515 0.0
H649 H 0.4425 0.19407 0.68194 0.0
H650 H 0.36618 0.14269 0.74299 0.0
C651 C 0.36895 0.21864 0.81446 0.0
C652 C 0.41471 0.22935 0.74842 0.0
C653 C 0.36809 0.23192 0.84099 0.0
C654 C 0.41875 0.16204 0.64776 0.0
C655 C 0.42069 0.17657 0.67443 0.0
C656 C 0.37965 0.16692 0.74406 0.0
C657 C 0.39642 0.22782 0.8001 0.0
C658 C 0.39721 0.21269 0.77259 0.0
C659 C 0.39478 0.16826 0.69136 0.0
C660 C 0.39654 0.18358 0.71961 0.0
H661 H 0.443 0.2818 0.84849 0.0
H662 H 0.44449 0.25846 0.80197 0.0
H663 H 0.36674 0.16783 0.78871 0.0
H664 H 0.34317 0.11312 0.64707 0.0
H665 H 0.3465 0.13862 0.69336 0.0
C666 C 0.72858 0.17126 0.85112 0.0
C667 C 0.72226 0.14144 0.8486 0.0
C668 C 0.73935 0.19053 0.82681 0.0
C669 C 0.74676 0.1922 0.74569 0.0
H670 H 0.82165 0.26647 0.75857 0.0
C671 C 0.85744 0.27114 0.67479 0.0
C672 C 0.84464 0.27417 0.64858 0.0
C673 C 0.84012 0.2603 0.70033 0.0
C674 C 0.80061 0.24594 0.7547 0.0
H675 H 0.7209 0.10798 0.81858 0.0
H676 H 0.73943 0.14147 0.77617 0.0
H677 H 0.79359 0.23567 0.8008 0.0
H678 H 0.80415 0.26974 0.62883 0.0
H679 H 0.77379 0.25057 0.67352 0.0
H680 H 0.75444 0.20169 0.69957 0.0
C681 C 0.73607 0.15 0.79682 0.0
C682 C 0.78444 0.22845 0.77884 0.0
C683 C 0.72566 0.13087 0.82114 0.0
C684 C 0.81458 0.26752 0.64872 0.0
C685 C 0.79718 0.25646 0.67423 0.0
C686 C 0.76281 0.20978 0.72158 0.0
C687 C 0.74354 0.18015 0.79954 0.0
C688 C 0.75785 0.20096 0.77449 0.0
C689 C 0.80961 0.25212 0.70009 0.0
C690 C 0.79035 0.23636 0.7258 0.0
H691 H 0.72614 0.17997 0.87207 0.0
H692 H 0.74482 0.21365 0.82943 0.0
H693 H 0.72618 0.17123 0.74176 0.0
H694 H 0.88058 0.27617 0.67533 0.0
H695 H 0.85024 0.25689 0.71984 0.0
C696 C 0.05367 0.46334 0.06021 0.0
C697 C 0.07098 0.45757 0.04013 0.0
C698 C 0.03632 0.47555 0.05048 0.0
C699 C 0.02362 0.51461 0.98882 0.0
H700 H 0.9416 0.47344 0.01785 0.0
C701 C 0.93466 0.5395 0.9415 0.0
C702 C 0.91715 0.54402 0.96242 0.0
C703 C 0.95214 0.52696 0.94992 0.0
C704 C 0.96447 0.48531 0.00972 0.0
H705 H 0.08524 0.46171 0.99451 0.0
H706 H 0.05487 0.48313 0.97746 0.0
H707 H 0.97702 0.45852 0.03548 0.0
H708 H 0.90289 0.53758 0.00815 0.0
H709 H 0.93352 0.51585 0.02294 0.0
H710 H 0.01113 0.54156 0.96321 0.0
C711 C 0.05475 0.47824 0.00072 0.0
C712 C 0.98479 0.47685 0.01987 0.0
C713 C 0.07214 0.466 0.01048 0.0
C714 C 0.91613 0.53428 0.99154 0.0
C715 C 0.93365 0.52179 -1e-05 0.0
C716 C 0.0033 0.52314 0.9787 0.0
C717 C 0.03594 0.48222 0.02048 0.0
C718 C 0.01462 0.49153 0.00967 0.0
C719 C 0.95245 0.51873 0.97943 0.0
C720 C 0.97354 0.50865 0.98913 0.0
H721 H 0.05249 0.45724 0.08325 0.0
H722 H 0.02255 0.479 0.06632 0.0
H723 H 0.04651 0.52645 0.98074 0.0
H724 H 0.93577 0.54668 0.91884 0.0
H725 H 0.96592 0.52432 0.93346 0.0
C726 C 0.51745 0.60456 0.00544 0.0
C727 C 0.52168 0.61317 0.03526 0.0
C728 C 0.50569 0.57451 -0.00229 0.0
C729 C 0.46615 0.49672 0.0247 0.0
H730 H 0.51724 0.48613 0.96869 0.0
C731 C 0.44826 0.37966 -0.00132 0.0
C732 C 0.44852 0.37331 0.96857 0.0
C733 C 0.45906 0.40914 0.00811 0.0
C734 C 0.50259 0.48867 0.98415 0.0
H735 H 0.51439 0.59695 0.08037 0.0
H736 H 0.49348 0.54432 0.0668 0.0
H737 H 0.52801 0.53653 0.98148 0.0
H738 H 0.4619 0.39284 0.92495 0.0
H739 H 0.48036 0.44412 0.94126 0.0
H740 H 0.44042 0.44886 0.02705 0.0
C741 C 0.49949 0.56082 0.04945 0.0
C742 C 0.50869 0.51752 0.99139 0.0
C743 C 0.51143 0.59094 0.0572 0.0
C744 C 0.46146 0.39708 0.94832 0.0
C745 C 0.47211 0.42651 0.9577 0.0
C746 C 0.45988 0.46781 0.01727 0.0
C747 C 0.49775 0.55256 0.01966 0.0
C748 C 0.49045 0.52181 0.01159 0.0
C749 C 0.47021 0.43277 0.98758 0.0
C750 C 0.47798 0.46347 -0.00318 0.0
H751 H 0.52501 0.6212 0.98805 0.0
H752 H 0.50401 0.56858 0.97456 0.0
H753 H 0.45173 0.49946 0.0403 0.0
H754 H 0.43852 0.36175 0.0148 0.0
H755 H 0.45791 0.41333 0.03137 0.0
C756 C 0.39852 0.91083 0.05743 0.0
C757 C 0.37663 0.90033 0.0351 0.0
C758 C 0.42901 0.92526 0.0502 0.0
C759 C 0.48255 0.94294 0.9878 0.0
H760 H 0.53023 0.01722 0.03096 0.0
C761 C 0.59227 0.03911 0.94151 0.0
C762 C 0.61725 0.05127 0.96045 0.0
C763 C 0.56356 0.01983 0.95245 0.0
C764 C 0.51727 -0.0036 0.01894 0.0
H765 H 0.36927 0.89472 0.98785 0.0
H766 H 0.42228 0.92026 0.97518 0.0
H767 H 0.47916 0.98213 0.04705 0.0
H768 H 0.6317 0.05401 0.00588 0.0
H769 H 0.58123 0.02059 0.02514 0.0
H770 H 0.52042 0.95789 0.95907 0.0
C771 C 0.41611 0.91715 -0.0017 0.0
C772 C 0.48809 0.97617 0.02823 0.0
C773 C 0.38565 0.90255 0.00554 0.0
C774 C 0.61282 0.04498 0.9908 0.0
C775 C 0.58399 0.02587 0.0018 0.0
C776 C 0.51161 0.9633 0.97838 0.0
C777 C 0.43815 0.92962 0.02051 0.0
C778 C 0.47022 0.94938 0.01252 0.0
C779 C 0.55924 0.01254 0.98258 0.0
C780 C 0.52906 0.99041 0.99359 0.0
H781 H 0.39218 0.90924 0.08044 0.0
H782 H 0.44541 0.93399 0.06786 0.0
H783 H 0.46961 0.92232 0.97551 0.0
H784 H 0.59499 0.04358 0.91801 0.0
H785 H 0.54476 0.01026 0.93725 0.0
C786 C 0.52086 0.92969 0.4346 0.0
C787 C 0.53579 0.92066 0.45444 0.0
C788 C 0.5086 0.947 0.44432 0.0
C789 C 0.48616 0.9729 0.51053 0.0
H790 H 0.50327 0.04092 0.46066 0.0
C791 C 0.45953 0.06376 0.54804 0.0
C792 C 0.44374 0.07098 0.52739 0.0
C793 C 0.47318 0.04736 0.53942 0.0
C794 C 0.49819 0.02195 0.47472 0.0
H795 H 0.54823 0.92115 0.50026 0.0
H796 H 0.52693 0.95158 0.51728 0.0
H797 H 0.51959 0.00591 0.44537 0.0
H798 H 0.43125 0.06825 0.4813 0.0
H799 H 0.4551 0.03964 0.46624 0.0
H800 H 0.46469 0.98896 0.53984 0.0
C801 C 0.52456 0.94517 0.49423 0.0
C802 C 0.50739 0.00181 0.46593 0.0
C803 C 0.53676 0.92776 0.4845 0.0
C804 C 0.44329 0.06301 0.49768 0.0
C805 C 0.45701 0.04668 0.48905 0.0
C806 C 0.47699 0.99308 0.51935 0.0
C807 C 0.51113 0.95569 0.47407 0.0
C808 C 0.50126 0.97694 0.48361 0.0
C809 C 0.47138 0.038 0.50999 0.0
C810 C 0.48275 0.01771 0.50144 0.0
H811 H 0.51962 0.92437 0.41132 0.0
H812 H 0.49777 0.95418 0.4284 0.0
H813 H 0.48092 0.95383 0.5245 0.0
H814 H 0.4603 0.0697 0.57109 0.0
H815 H 0.48456 0.04141 0.55593 0.0
C816 C 0.93216 0.37972 0.5026 0.0
C817 C 0.9202 0.37398 0.53128 0.0
C818 C 0.95026 0.40921 0.49288 0.0
C819 C 0.00029 0.48435 0.52285 0.0
H820 H -0.00266 0.51143 0.44375 0.0
C821 C 0.06224 0.60881 0.4885 0.0
C822 C 0.07361 0.61607 0.45966 0.0
C823 C 0.04599 0.5789 0.49747 0.0
C824 C -0.00123 0.50406 0.46577 0.0
H825 H 0.91619 0.39443 0.57162 0.0
H826 H 0.94739 0.44586 0.55447 0.0
H827 H 0.96149 0.46001 0.45813 0.0
H828 H 0.07869 0.59799 0.41821 0.0
H829 H 0.05068 0.5457 0.43405 0.0
H830 H 0.03747 0.52839 0.53055 0.0
C831 C 0.94332 0.42762 0.53974 0.0
C832 C 0.97814 0.47466 0.47403 0.0
C833 C 0.92523 0.39818 0.54944 0.0
C834 C 0.07006 0.59302 0.44055 0.0
C835 C 0.0538 0.56309 0.44952 0.0
C836 C 0.02093 0.51372 0.51459 0.0
C837 C 0.95671 0.43344 0.51168 0.0
C838 C 0.97853 0.46459 0.50273 0.0
C839 C 0.04083 0.55568 0.47777 0.0
C840 C 0.02028 0.52395 0.48602 0.0
H841 H 0.9287 0.36148 0.48816 0.0
H842 H 0.96033 0.41299 0.47117 0.0
H843 H 0.00155 0.47703 0.54494 0.0
H844 H 0.0646 0.62611 0.50371 0.0
H845 H 0.03615 0.57394 0.51933 0.0
C846 C 0.3805 0.4618 0.48704 0.0
C847 C 0.37444 0.45567 0.45683 0.0
C848 C 0.40961 0.47276 0.49786 0.0
C849 C 0.48943 0.50638 0.47547 0.0
H850 H 0.49531 0.46658 0.54578 0.0
C851 C 0.60262 0.52205 0.51329 0.0
C852 C 0.60969 0.53063 0.54295 0.0
C853 C 0.57315 0.51013 0.5032 0.0
C854 C 0.49399 0.47795 0.52621 0.0
H855 H 0.3943 0.45796 0.41399 0.0
H856 H 0.44494 0.47689 0.43281 0.0
H857 H 0.44597 0.45504 0.52753 0.0
H858 H 0.59122 0.53119 0.58582 0.0
H859 H 0.53974 0.51019 0.56824 0.0
H860 H 0.53742 0.52914 0.47407 0.0
C861 C 0.42736 0.47342 0.4482 0.0
C862 C 0.46578 0.47154 0.51586 0.0
C863 C 0.3983 0.46251 0.4374 0.0
C864 C 0.58642 0.52481 0.56282 0.0
C865 C 0.55693 0.51277 0.55275 0.0
C866 C 0.51759 0.51269 0.48575 0.0
C867 C 0.43316 0.47779 0.47865 0.0
C868 C 0.46319 0.48569 0.49037 0.0
C869 C 0.55024 0.50642 0.52264 0.0
C870 C 0.52016 0.49851 0.51118 0.0
H871 H 0.36254 0.4568 0.50253 0.0
H872 H 0.41351 0.47651 0.52137 0.0
H873 H 0.48822 0.51793 0.456 0.0
H874 H 0.62009 0.52619 0.49749 0.0
H875 H 0.56849 0.50487 0.47997 0.0
loop_
_geom_bond_atom_site_label_1
_geom_bond_atom_site_label_2
_geom_bond_distance
_geom_bond_site_symmetry_2
_ccdc_geom_bond_type
In0 O1 2.294 . S
In0 O2 2.326 . S
In0 O6 2.266 . S
In0 O7 2.326 . S
In0 O8 2.266 . S
In0 O9 2.326 . S
In0 O11 2.294 . S
In0 O12 2.326 . S
O1 In0 2.294 . S
O1 C10 1.240 . S
O2 In0 2.326 . S
O2 C10 1.252 . S
C3 O6 1.252 . S
C3 O7 1.260 . S
C4 O11 1.240 . S
C4 O12 1.252 . S
C5 O8 1.252 . S
C5 O9 1.260 . S
O6 In0 2.266 . S
O6 C3 1.252 . S
O7 In0 2.326 . S
O7 C3 1.260 . S
O8 In0 2.266 . S
O8 C5 1.252 . S
O9 In0 2.326 . S
O9 C5 1.260 . S
C10 O1 1.240 . S
C10 O2 1.252 . S
O11 In0 2.294 . S
O11 C4 1.240 . S
O12 In0 2.326 . S
O12 C4 1.252 . S
In13 O14 2.294 . S
In13 O15 2.326 . S
In13 O19 2.266 . S
In13 O20 2.326 . S
In13 O21 2.266 . S
In13 O22 2.326 . S
In13 O24 2.294 . S
In13 O25 2.326 . S
O14 In13 2.294 . S
O14 C23 1.240 . S
O15 In13 2.326 . S
O15 C23 1.252 . S
C16 O19 1.252 . S
C16 O20 1.260 . S
C17 O24 1.240 . S
C17 O25 1.252 . S
C18 O21 1.252 . S
C18 O22 1.260 . S
O19 In13 2.266 . S
O19 C16 1.252 . S
O20 In13 2.326 . S
O20 C16 1.260 . S
O21 In13 2.266 . S
O21 C18 1.252 . S
O22 In13 2.326 . S
O22 C18 1.260 . S
C23 O14 1.240 . S
C23 O15 1.252 . S
O24 In13 2.294 . S
O24 C17 1.240 . S
O25 In13 2.326 . S
O25 C17 1.252 . S
In26 O27 2.294 . S
In26 O28 2.326 . S
In26 O32 2.266 . S
In26 O33 2.326 . S
In26 O34 2.266 . S
In26 O35 2.326 . S
In26 O37 2.294 . S
In26 O38 2.326 . S
O27 In26 2.294 . S
O27 C36 1.240 . S
O28 In26 2.326 . S
O28 C36 1.252 . S
C29 O32 1.252 . S
C29 O33 1.260 . S
C30 O37 1.240 . S
C30 O38 1.252 . S
C31 O34 1.252 . S
C31 O35 1.260 . S
O32 In26 2.266 . S
O32 C29 1.252 . S
O33 In26 2.326 . S
O33 C29 1.260 . S
O34 In26 2.266 . S
O34 C31 1.252 . S
O35 In26 2.326 . S
O35 C31 1.260 . S
C36 O27 1.240 . S
C36 O28 1.252 . S
O37 In26 2.294 . S
O37 C30 1.240 . S
O38 In26 2.326 . S
O38 C30 1.252 . S
In39 O40 2.294 . S
In39 O41 2.326 . S
In39 O45 2.266 . S
In39 O46 2.326 . S
In39 O47 2.266 . S
In39 O48 2.326 . S
In39 O50 2.294 . S
In39 O51 2.326 . S
O40 In39 2.294 . S
O40 C49 1.240 . S
O41 In39 2.326 . S
O41 C49 1.252 . S
C42 O45 1.252 . S
C42 O46 1.260 . S
C43 O50 1.240 . S
C43 O51 1.252 . S
C44 O47 1.252 . S
C44 O48 1.260 . S
O45 In39 2.266 . S
O45 C42 1.252 . S
O46 In39 2.326 . S
O46 C42 1.260 . S
O47 In39 2.266 . S
O47 C44 1.252 . S
O48 In39 2.326 . S
O48 C44 1.260 . S
C49 O40 1.240 . S
C49 O41 1.252 . S
O50 In39 2.294 . S
O50 C43 1.240 . S
O51 In39 2.326 . S
O51 C43 1.252 . S
In52 O53 2.294 . S
In52 O54 2.326 . S
In52 O58 2.266 . S
In52 O59 2.326 . S
In52 O60 2.266 . S
In52 O61 2.326 . S
In52 O63 2.294 . S
In52 O64 2.326 . S
O53 In52 2.294 . S
O53 C62 1.240 . S
O54 In52 2.326 . S
O54 C62 1.252 . S
C55 O58 1.252 . S
C55 O59 1.260 . S
C56 O63 1.240 . S
C56 O64 1.252 . S
C57 O60 1.252 . S
C57 O61 1.260 . S
O58 In52 2.266 . S
O58 C55 1.252 . S
O59 In52 2.326 . S
O59 C55 1.260 . S
O60 In52 2.266 . S
O60 C57 1.252 . S
O61 In52 2.326 . S
O61 C57 1.260 . S
C62 O53 1.240 . S
C62 O54 1.252 . S
O63 In52 2.294 . S
O63 C56 1.240 . S
O64 In52 2.326 . S
O64 C56 1.252 . S
In65 O66 2.294 . S
In65 O67 2.326 . S
In65 O71 2.266 . S
In65 O72 2.326 . S
In65 O73 2.266 . S
In65 O74 2.326 . S
In65 O76 2.294 . S
In65 O77 2.326 . S
O66 In65 2.294 . S
O66 C75 1.240 . S
O67 In65 2.326 . S
O67 C75 1.252 . S
C68 O71 1.252 . S
C68 O72 1.260 . S
C69 O76 1.240 . S
C69 O77 1.252 . S
C70 O73 1.252 . S
C70 O74 1.260 . S
O71 In65 2.266 . S
O71 C68 1.252 . S
O72 In65 2.326 . S
O72 C68 1.260 . S
O73 In65 2.266 . S
O73 C70 1.252 . S
O74 In65 2.326 . S
O74 C70 1.260 . S
C75 O66 1.240 . S
C75 O67 1.252 . S
O76 In65 2.294 . S
O76 C69 1.240 . S
O77 In65 2.326 . S
O77 C69 1.252 . S
In78 O79 2.294 . S
In78 O80 2.326 . S
In78 O84 2.266 . S
In78 O85 2.326 . S
In78 O86 2.266 . S
In78 O87 2.326 . S
In78 O89 2.294 . S
In78 O90 2.326 . S
O79 In78 2.294 . S
O79 C88 1.240 . S
O80 In78 2.326 . S
O80 C88 1.252 . S
C81 O84 1.252 . S
C81 O85 1.260 . S
C82 O89 1.240 . S
C82 O90 1.252 . S
C83 O86 1.252 . S
C83 O87 1.260 . S
O84 In78 2.266 . S
O84 C81 1.252 . S
O85 In78 2.326 . S
O85 C81 1.260 . S
O86 In78 2.266 . S
O86 C83 1.252 . S
O87 In78 2.326 . S
O87 C83 1.260 . S
C88 O79 1.240 . S
C88 O80 1.252 . S
O89 In78 2.294 . S
O89 C82 1.240 . S
O90 In78 2.326 . S
O90 C82 1.252 . S
In91 O92 2.294 . S
In91 O93 2.326 . S
In91 O97 2.266 . S
In91 O98 2.326 . S
In91 O99 2.266 . S
In91 O100 2.326 . S
In91 O102 2.294 . S
In91 O103 2.326 . S
O92 In91 2.294 . S
O92 C101 1.240 . S
O93 In91 2.326 . S
O93 C101 1.252 . S
C94 O97 1.252 . S
C94 O98 1.260 . S
C95 O102 1.240 . S
C95 O103 1.252 . S
C96 O99 1.252 . S
C96 O100 1.260 . S
O97 In91 2.266 . S
O97 C94 1.252 . S
O98 In91 2.326 . S
O98 C94 1.260 . S
O99 In91 2.266 . S
O99 C96 1.252 . S
O100 In91 2.326 . S
O100 C96 1.260 . S
C101 O92 1.240 . S
C101 O93 1.252 . S
O102 In91 2.294 . S
O102 C95 1.240 . S
O103 In91 2.326 . S
O103 C95 1.252 . S
In104 O105 2.294 . S
In104 O106 2.326 . S
In104 O110 2.266 . S
In104 O111 2.326 . S
In104 O112 2.266 . S
In104 O113 2.326 . S
In104 O115 2.294 . S
In104 O116 2.326 . S
O105 In104 2.294 . S
O105 C114 1.240 . S
O106 In104 2.326 . S
O106 C114 1.252 . S
C107 O110 1.252 . S
C107 O111 1.260 . S
C108 O115 1.240 . S
C108 O116 1.252 . S
C109 O112 1.252 . S
C109 O113 1.260 . S
O110 In104 2.266 . S
O110 C107 1.252 . S
O111 In104 2.326 . S
O111 C107 1.260 . S
O112 In104 2.266 . S
O112 C109 1.252 . S
O113 In104 2.326 . S
O113 C109 1.260 . S
C114 O105 1.240 . S
C114 O106 1.252 . S
O115 In104 2.294 . S
O115 C108 1.240 . S
O116 In104 2.326 . S
O116 C108 1.252 . S
In117 O118 2.294 . S
In117 O119 2.326 . S
In117 O123 2.266 . S
In117 O124 2.326 . S
In117 O125 2.266 . S
In117 O126 2.326 . S
In117 O128 2.294 . S
In117 O129 2.326 . S
O118 In117 2.294 . S
O118 C127 1.240 . S
O119 In117 2.326 . S
O119 C127 1.252 . S
C120 O123 1.252 . S
C120 O124 1.260 . S
C121 O128 1.240 . S
C121 O129 1.252 . S
C122 O125 1.252 . S
C122 O126 1.260 . S
O123 In117 2.266 . S
O123 C120 1.252 . S
O124 In117 2.326 . S
O124 C120 1.260 . S
O125 In117 2.266 . S
O125 C122 1.252 . S
O126 In117 2.326 . S
O126 C122 1.260 . S
C127 O118 1.240 . S
C127 O119 1.252 . S
O128 In117 2.294 . S
O128 C121 1.240 . S
O129 In117 2.326 . S
O129 C121 1.252 . S
In130 O131 2.294 . S
In130 O132 2.326 . S
In130 O136 2.266 . S
In130 O137 2.326 . S
In130 O138 2.266 . S
In130 O139 2.326 . S
In130 O141 2.294 . S
In130 O142 2.326 . S
O131 In130 2.294 . S
O131 C140 1.240 . S
O132 In130 2.326 . S
O132 C140 1.252 . S
C133 O136 1.252 . S
C133 O137 1.260 . S
C134 O141 1.240 . S
C134 O142 1.252 . S
C135 O138 1.252 . S
C135 O139 1.260 . S
O136 In130 2.266 . S
O136 C133 1.252 . S
O137 In130 2.326 . S
O137 C133 1.260 . S
O138 In130 2.266 . S
O138 C135 1.252 . S
O139 In130 2.326 . S
O139 C135 1.260 . S
C140 O131 1.240 . S
C140 O132 1.252 . S
O141 In130 2.294 . S
O141 C134 1.240 . S
O142 In130 2.326 . S
O142 C134 1.252 . S
In143 O144 2.294 . S
In143 O145 2.326 . S
In143 O149 2.266 . S
In143 O150 2.326 . S
In143 O151 2.266 . S
In143 O152 2.326 . S
In143 O154 2.294 . S
In143 O155 2.326 . S
O144 In143 2.294 . S
O144 C153 1.240 . S
O145 In143 2.326 . S
O145 C153 1.252 . S
C146 O149 1.252 . S
C146 O150 1.260 . S
C147 O154 1.240 . S
C147 O155 1.252 . S
C148 O151 1.252 . S
C148 O152 1.260 . S
O149 In143 2.266 . S
O149 C146 1.252 . S
O150 In143 2.326 . S
O150 C146 1.260 . S
O151 In143 2.266 . S
O151 C148 1.252 . S
O152 In143 2.326 . S
O152 C148 1.260 . S
C153 O144 1.240 . S
C153 O145 1.252 . S
O154 In143 2.294 . S
O154 C147 1.240 . S
O155 In143 2.326 . S
O155 C147 1.252 . S
C156 C157 1.349 . S
C156 C158 1.327 . S
C156 H181 0.950 . S
C157 C156 1.349 . S
C157 C173 1.349 . S
C158 C156 1.327 . S
C158 C177 1.429 . S
C158 H182 0.950 . S
C159 C176 1.571 1_554 S
C159 C178 1.368 . S
C159 H183 0.949 . S
H160 C164 0.949 . S
C161 C162 1.349 . S
C161 C163 1.327 . S
C161 H184 0.950 . S
C162 C161 1.349 . S
C162 C174 1.349 . S
C163 C161 1.327 . S
C163 C179 1.429 . S
C163 H185 0.950 . S
C164 H160 0.949 . S
C164 C172 1.575 . S
C164 C180 1.368 . S
H165 C173 0.950 . S
H166 C171 0.950 . S
H167 C172 0.949 1_554 S
H168 C174 0.950 . S
H169 C175 0.950 . S
H170 C176 0.949 . S
C171 H166 0.950 . S
C171 C173 1.327 . S
C171 C177 1.429 . S
C172 C164 1.575 . S
C172 H167 0.949 1_556 S
C172 C178 1.367 1_556 S
C173 C157 1.349 . S
C173 H165 0.950 . S
C173 C171 1.327 . S
C174 C162 1.349 . S
C174 H168 0.950 . S
C174 C175 1.327 . S
C175 H169 0.950 . S
C175 C174 1.327 . S
C175 C179 1.429 . S
C176 C159 1.571 1_556 S
C176 H170 0.949 . S
C176 C180 1.371 . S
C177 C158 1.429 . S
C177 C171 1.429 . S
C177 C178 1.523 . S
C178 C159 1.368 . S
C178 C172 1.367 1_554 S
C178 C177 1.523 . S
C179 C163 1.429 . S
C179 C175 1.429 . S
C179 C180 1.523 . S
C180 C164 1.368 . S
C180 C176 1.371 . S
C180 C179 1.523 . S
H181 C156 0.950 . S
H182 C158 0.950 . S
H183 C159 0.949 . S
H184 C161 0.950 . S
H185 C163 0.950 . S
C186 C187 1.349 . S
C186 C188 1.327 . S
C186 H211 0.950 . S
C187 C186 1.349 . S
C187 C203 1.349 . S
C188 C186 1.327 . S
C188 C207 1.429 . S
C188 H212 0.950 . S
C189 C206 1.574 . S
C189 C208 1.368 1_556 S
C189 H213 0.949 . S
H190 C194 0.949 . S
C191 C192 1.349 1_565 S
C191 C193 1.327 . S
C191 H214 0.950 . S
C192 C191 1.349 1_545 S
C192 C204 1.349 . S
C193 C191 1.327 . S
C193 C209 1.429 . S
C193 H215 0.950 . S
C194 H190 0.949 . S
C194 C202 1.574 . S
C194 C210 1.368 1_554 S
H195 C203 0.950 . S
H196 C201 0.950 1_556 S
H197 C202 0.949 . S
H198 C204 0.950 . S
H199 C205 0.950 1_554 S
H200 C206 0.949 . S
C201 H196 0.950 1_554 S
C201 C203 1.327 . S
C201 C207 1.429 . S
C202 C194 1.574 . S
C202 H197 0.949 . S
C202 C208 1.368 . S
C203 C187 1.349 . S
C203 H195 0.950 . S
C203 C201 1.327 . S
C204 C192 1.349 . S
C204 H198 0.950 . S
C204 C205 1.327 1_545 S
C205 H199 0.950 1_556 S
C205 C204 1.327 1_565 S
C205 C209 1.429 . S
C206 C189 1.574 . S
C206 H200 0.949 . S
C206 C210 1.368 . S
C207 C188 1.429 . S
C207 C201 1.429 . S
C207 C208 1.523 . S
C208 C189 1.368 1_554 S
C208 C202 1.368 . S
C208 C207 1.523 . S
C209 C193 1.429 . S
C209 C205 1.429 . S
C209 C210 1.523 . S
C210 C194 1.368 1_556 S
C210 C206 1.368 . S
C210 C209 1.523 . S
H211 C186 0.950 . S
H212 C188 0.950 . S
H213 C189 0.949 . S
H214 C191 0.950 . S
H215 C193 0.950 . S
C216 C217 1.349 . S
C216 C218 1.327 . S
C216 H241 0.950 . S
C217 C216 1.349 . S
C217 C233 1.349 . S
C218 C216 1.327 . S
C218 C237 1.429 . S
C218 H242 0.950 . S
C219 C236 1.574 . S
C219 C238 1.368 1_556 S
C219 H243 0.949 . S
H220 C224 0.949 . S
C221 C222 1.349 1_455 S
C221 C223 1.327 . S
C221 H244 0.950 . S
C222 C221 1.349 1_655 S
C222 C234 1.349 . S
C223 C221 1.327 . S
C223 C239 1.429 . S
C223 H245 0.950 . S
C224 H220 0.949 . S
C224 C232 1.574 . S
C224 C240 1.368 1_554 S
H225 C233 0.950 1_556 S
H226 C231 0.934 1_556 S
H227 C232 0.949 . S
H228 C234 0.950 1_554 S
H229 C235 0.950 1_554 S
H230 C236 0.949 . S
C231 H226 0.934 1_554 S
C231 C233 1.333 . S
C231 C237 1.438 . S
C232 C224 1.574 . S
C232 H227 0.949 . S
C232 C238 1.368 . S
C233 C217 1.349 . S
C233 H225 0.950 1_554 S
C233 C231 1.333 . S
C234 C222 1.349 . S
C234 H228 0.950 1_556 S
C234 C235 1.327 1_655 S
C235 H229 0.950 1_556 S
C235 C234 1.327 1_455 S
C235 C239 1.429 . S
C236 C219 1.574 . S
C236 H230 0.949 . S
C236 C240 1.368 . S
C237 C218 1.429 . S
C237 C231 1.438 . S
C237 C238 1.523 . S
C238 C219 1.368 1_554 S
C238 C232 1.368 . S
C238 C237 1.523 . S
C239 C223 1.429 . S
C239 C235 1.429 . S
C239 C240 1.523 . S
C240 C224 1.368 1_556 S
C240 C236 1.368 . S
C240 C239 1.523 . S
H241 C216 0.950 . S
H242 C218 0.950 . S
H243 C219 0.949 . S
H244 C221 0.950 . S
H245 C223 0.950 . S
C246 C247 1.349 . S
C246 C248 1.327 . S
C246 H271 0.950 . S
C247 C246 1.349 . S
C247 C263 1.349 . S
C248 C246 1.327 . S
C248 C267 1.429 . S
C248 H272 0.950 . S
C249 C266 1.574 . S
C249 C268 1.368 . S
C249 H273 0.949 . S
H250 C254 0.949 . S
C251 C252 1.349 . S
C251 C253 1.327 . S
C251 H274 0.950 . S
C252 C251 1.349 . S
C252 C264 1.349 . S
C253 C251 1.327 . S
C253 C269 1.429 . S
C253 H275 0.950 . S
C254 H250 0.949 . S
C254 C262 1.574 . S
C254 C270 1.368 . S
H255 C263 0.950 . S
H256 C261 0.950 . S
H257 C262 0.949 . S
H258 C264 0.950 . S
H259 C265 0.950 . S
H260 C266 0.949 . S
C261 H256 0.950 . S
C261 C263 1.327 . S
C261 C267 1.429 . S
C262 C254 1.574 . S
C262 H257 0.949 . S
C262 C268 1.368 . S
C263 C247 1.349 . S
C263 H255 0.950 . S
C263 C261 1.327 . S
C264 C252 1.349 . S
C264 H258 0.950 . S
C264 C265 1.327 . S
C265 H259 0.950 . S
C265 C264 1.327 . S
C265 C269 1.429 . S
C266 C249 1.574 . S
C266 H260 0.949 . S
C266 C270 1.368 . S
C267 C248 1.429 . S
C267 C261 1.429 . S
C267 C268 1.523 . S
C268 C249 1.368 . S
C268 C262 1.368 . S
C268 C267 1.523 . S
C269 C253 1.429 . S
C269 C265 1.429 . S
C269 C270 1.523 . S
C270 C254 1.368 . S
C270 C266 1.368 . S
C270 C269 1.523 . S
H271 C246 0.950 . S
H272 C248 0.950 . S
H273 C249 0.949 . S
H274 C251 0.950 . S
H275 C253 0.950 . S
C276 C277 1.349 . S
C276 C278 1.327 . S
C276 H301 0.950 . S
C277 C276 1.349 . S
C277 C293 1.349 . S
C278 C276 1.327 . S
C278 C297 1.429 . S
C278 H302 0.950 . S
C279 C296 1.574 . S
C279 C298 1.368 . S
C279 H303 0.949 . S
H280 C284 0.949 . S
C281 C282 1.349 . S
C281 C283 1.327 1_545 S
C281 H304 0.950 . S
C282 C281 1.349 . S
C282 C294 1.349 1_545 S
C283 C281 1.327 1_565 S
C283 C299 1.429 . S
C283 H305 0.950 . S
C284 H280 0.949 . S
C284 C292 1.574 . S
C284 C300 1.368 . S
H285 C293 0.950 . S
H286 C291 0.950 . S
H287 C292 0.949 . S
H288 C294 0.950 . S
H289 C295 0.950 . S
H290 C296 0.949 . S
C291 H286 0.950 . S
C291 C293 1.327 . S
C291 C297 1.429 . S
C292 C284 1.574 . S
C292 H287 0.949 . S
C292 C298 1.368 . S
C293 C277 1.349 . S
C293 H285 0.950 . S
C293 C291 1.327 . S
C294 C282 1.349 1_565 S
C294 H288 0.950 . S
C294 C295 1.327 . S
C295 H289 0.950 . S
C295 C294 1.327 . S
C295 C299 1.429 . S
C296 C279 1.574 . S
C296 H290 0.949 . S
C296 C300 1.368 . S
C297 C278 1.429 . S
C297 C291 1.429 . S
C297 C298 1.523 . S
C298 C279 1.368 . S
C298 C292 1.368 . S
C298 C297 1.523 . S
C299 C283 1.429 . S
C299 C295 1.429 . S
C299 C300 1.523 . S
C300 C284 1.368 . S
C300 C296 1.368 . S
C300 C299 1.523 . S
H301 C276 0.950 . S
H302 C278 0.950 . S
H303 C279 0.949 . S
H304 C281 0.950 . S
H305 C283 0.950 . S
C306 C307 1.349 1_455 S
C306 C308 1.327 . S
C306 H331 0.950 1_455 S
C307 C306 1.349 1_655 S
C307 C323 1.349 . S
C308 C306 1.327 . S
C308 C327 1.429 . S
C308 H332 0.950 . S
C309 C326 1.574 . S
C309 C328 1.368 . S
C309 H333 0.949 . S
H310 C314 0.949 . S
C311 C312 1.349 . S
C311 C313 1.327 . S
C311 H334 0.950 . S
C312 C311 1.349 . S
C312 C324 1.349 . S
C313 C311 1.327 . S
C313 C329 1.429 . S
C313 H335 0.950 . S
C314 H310 0.949 . S
C314 C322 1.574 . S
C314 C330 1.368 . S
H315 C323 0.950 . S
H316 C321 0.950 . S
H317 C322 0.949 . S
H318 C324 0.950 . S
H319 C325 0.950 . S
H320 C326 0.949 . S
C321 H316 0.950 . S
C321 C323 1.327 1_455 S
C321 C327 1.429 . S
C322 C314 1.574 . S
C322 H317 0.949 . S
C322 C328 1.368 . S
C323 C307 1.349 . S
C323 H315 0.950 . S
C323 C321 1.327 1_655 S
C324 C312 1.349 . S
C324 H318 0.950 . S
C324 C325 1.327 . S
C325 H319 0.950 . S
C325 C324 1.327 . S
C325 C329 1.429 . S
C326 C309 1.574 . S
C326 H320 0.949 . S
C326 C330 1.368 . S
C327 C308 1.429 . S
C327 C321 1.429 . S
C327 C328 1.523 . S
C328 C309 1.368 . S
C328 C322 1.368 . S
C328 C327 1.523 . S
C329 C313 1.429 . S
C329 C325 1.429 . S
C329 C330 1.523 . S
C330 C314 1.368 . S
C330 C326 1.368 . S
C330 C329 1.523 . S
H331 C306 0.950 1_655 S
H332 C308 0.950 . S
H333 C309 0.949 . S
H334 C311 0.950 . S
H335 C313 0.950 . S
C336 C337 1.349 . S
C336 C338 1.327 . S
C336 H361 0.950 . S
C337 C336 1.349 . S
C337 C353 1.349 . S
C338 C336 1.327 . S
C338 C357 1.429 . S
C338 H362 0.950 . S
C339 C356 1.574 1_554 S
C339 C358 1.368 . S
C339 H363 0.949 . S
H340 C344 0.949 . S
C341 C342 1.349 . S
C341 C343 1.327 . S
C341 H364 0.950 . S
C342 C341 1.349 . S
C342 C354 1.349 . S
C343 C341 1.327 . S
C343 C359 1.429 . S
C343 H365 0.950 . S
C344 H340 0.949 . S
C344 C352 1.574 1_556 S
C344 C360 1.368 . S
H345 C353 0.950 . S
H346 C351 0.950 . S
H347 C352 0.949 . S
H348 C354 0.950 . S
H349 C355 0.950 . S
H350 C356 0.949 . S
C351 H346 0.950 . S
C351 C353 1.327 . S
C351 C357 1.429 . S
C352 C344 1.574 1_554 S
C352 H347 0.949 . S
C352 C358 1.368 . S
C353 C337 1.349 . S
C353 H345 0.950 . S
C353 C351 1.327 . S
C354 C342 1.349 . S
C354 H348 0.950 . S
C354 C355 1.327 . S
C355 H349 0.950 . S
C355 C354 1.327 . S
C355 C359 1.429 . S
C356 C339 1.574 1_556 S
C356 H350 0.949 . S
C356 C360 1.368 . S
C357 C338 1.429 . S
C357 C351 1.429 . S
C357 C358 1.523 . S
C358 C339 1.368 . S
C358 C352 1.368 . S
C358 C357 1.523 . S
C359 C343 1.429 . S
C359 C355 1.429 . S
C359 C360 1.523 . S
C360 C344 1.368 . S
C360 C356 1.368 . S
C360 C359 1.523 . S
H361 C336 0.950 . S
H362 C338 0.950 . S
H363 C339 0.949 . S
H364 C341 0.950 . S
H365 C343 0.950 . S
C366 C367 1.349 . S
C366 C368 1.327 . S
C366 H391 0.950 . S
C367 C366 1.349 . S
C367 C383 1.349 . S
C368 C366 1.327 . S
C368 C387 1.429 . S
C368 H392 0.950 . S
C369 C386 1.574 . S
C369 C388 1.368 1_554 S
C369 H393 0.949 . S
H370 C374 0.949 . S
C371 C372 1.373 . S
C371 C373 1.299 1_565 S
C371 H394 0.955 . S
C372 C371 1.373 . S
C372 C384 1.349 . S
C373 C371 1.299 1_545 S
C373 C389 1.429 . S
C373 H395 0.950 . S
C374 H370 0.949 . S
C374 C382 1.574 . S
C374 C390 1.368 1_556 S
H375 C383 0.950 1_554 S
H376 C381 0.950 1_554 S
H377 C382 0.949 . S
H378 C384 0.950 1_556 S
H379 C385 0.950 1_556 S
H380 C386 0.949 . S
C381 H376 0.950 1_556 S
C381 C383 1.327 . S
C381 C387 1.429 . S
C382 C374 1.574 . S
C382 H377 0.949 . S
C382 C388 1.368 . S
C383 C367 1.349 . S
C383 H375 0.950 1_556 S
C383 C381 1.327 . S
C384 C372 1.349 . S
C384 H378 0.950 1_554 S
C384 C385 1.327 1_565 S
C385 H379 0.950 1_554 S
C385 C384 1.327 1_545 S
C385 C389 1.429 . S
C386 C369 1.574 . S
C386 H380 0.949 . S
C386 C390 1.368 . S
C387 C368 1.429 . S
C387 C381 1.429 . S
C387 C388 1.523 . S
C388 C369 1.368 1_556 S
C388 C382 1.368 . S
C388 C387 1.523 . S
C389 C373 1.429 . S
C389 C385 1.429 . S
C389 C390 1.523 . S
C390 C374 1.368 1_554 S
C390 C386 1.368 . S
C390 C389 1.523 . S
H391 C366 0.950 . S
H392 C368 0.950 . S
H393 C369 0.949 . S
H394 C371 0.955 . S
H395 C373 0.950 . S
C396 C397 1.349 . S
C396 C398 1.327 1_455 S
C396 H421 0.951 1_554 S
C397 C396 1.349 . S
C397 C413 1.349 1_455 S
C398 C396 1.327 1_655 S
C398 C417 1.429 . S
C398 H422 0.950 1_554 S
C399 C416 1.574 . S
C399 C418 1.368 . S
C399 H423 0.949 . S
H400 C404 0.949 . S
C401 C402 1.349 . S
C401 C403 1.327 . S
C401 H424 0.939 1_556 S
C402 C401 1.349 . S
C402 C414 1.349 . S
C403 C401 1.327 . S
C403 C419 1.429 . S
C403 H425 0.950 1_556 S
C404 H400 0.949 . S
C404 C412 1.574 . S
C404 C420 1.368 . S
H405 C413 0.950 . S
H406 C411 0.950 . S
H407 C412 0.949 . S
H408 C414 0.950 . S
H409 C415 0.950 . S
H410 C416 0.949 . S
C411 H406 0.950 . S
C411 C413 1.327 . S
C411 C417 1.429 . S
C412 C404 1.574 . S
C412 H407 0.949 . S
C412 C418 1.368 1_556 S
C413 C397 1.349 1_655 S
C413 H405 0.950 . S
C413 C411 1.327 . S
C414 C402 1.349 . S
C414 H408 0.950 . S
C414 C415 1.327 . S
C415 H409 0.950 . S
C415 C414 1.327 . S
C415 C419 1.429 . S
C416 C399 1.574 . S
C416 H410 0.949 . S
C416 C420 1.368 1_554 S
C417 C398 1.429 . S
C417 C411 1.429 . S
C417 C418 1.523 . S
C418 C399 1.368 . S
C418 C412 1.368 1_554 S
C418 C417 1.523 . S
C419 C403 1.429 . S
C419 C415 1.429 . S
C419 C420 1.523 . S
C420 C404 1.368 . S
C420 C416 1.368 1_556 S
C420 C419 1.523 . S
H421 C396 0.951 1_556 S
H422 C398 0.950 1_556 S
H423 C399 0.949 . S
H424 C401 0.939 1_554 S
H425 C403 0.950 1_554 S
C426 C427 1.349 . S
C426 C428 1.327 . S
C426 H451 0.950 . S
C427 C426 1.349 . S
C427 C443 1.349 . S
C428 C426 1.327 . S
C428 C447 1.429 . S
C428 H452 0.950 . S
C429 C446 1.574 . S
C429 C448 1.368 . S
C429 H453 0.949 . S
H430 C434 0.949 . S
C431 C432 1.349 . S
C431 C433 1.327 . S
C431 H454 0.950 . S
C432 C431 1.349 . S
C432 C444 1.349 . S
C433 C431 1.327 . S
C433 C449 1.429 . S
C433 H455 0.950 . S
C434 H430 0.949 . S
C434 C442 1.574 . S
C434 C450 1.368 . S
H435 C443 0.950 . S
H436 C441 0.950 . S
H437 C442 0.949 . S
H438 C444 0.950 . S
H439 C445 0.950 . S
H440 C446 0.949 . S
C441 H436 0.950 . S
C441 C443 1.327 . S
C441 C447 1.429 . S
C442 C434 1.574 . S
C442 H437 0.949 . S
C442 C448 1.368 . S
C443 C427 1.349 . S
C443 H435 0.950 . S
C443 C441 1.327 . S
C444 C432 1.349 . S
C444 H438 0.950 . S
C444 C445 1.327 . S
C445 H439 0.950 . S
C445 C444 1.327 . S
C445 C449 1.429 . S
C446 C429 1.574 . S
C446 H440 0.949 . S
C446 C450 1.368 . S
C447 C428 1.429 . S
C447 C441 1.429 . S
C447 C448 1.523 . S
C448 C429 1.368 . S
C448 C442 1.368 . S
C448 C447 1.523 . S
C449 C433 1.429 . S
C449 C445 1.429 . S
C449 C450 1.523 . S
C450 C434 1.368 . S
C450 C446 1.368 . S
C450 C449 1.523 . S
H451 C426 0.950 . S
H452 C428 0.950 . S
H453 C429 0.949 . S
H454 C431 0.950 . S
H455 C433 0.950 . S
C456 C457 1.349 . S
C456 C458 1.327 . S
C456 H481 0.950 . S
C457 C456 1.349 . S
C457 C473 1.349 . S
C458 C456 1.327 . S
C458 C477 1.429 . S
C458 H482 0.950 . S
C459 C476 1.574 . S
C459 C478 1.368 . S
C459 H483 0.949 . S
H460 C464 0.949 . S
C461 C462 1.349 . S
C461 C463 1.327 1_565 S
C461 H484 0.950 . S
C462 C461 1.349 . S
C462 C474 1.349 1_565 S
C463 C461 1.327 1_545 S
C463 C479 1.429 . S
C463 H485 0.950 . S
C464 H460 0.949 . S
C464 C472 1.574 . S
C464 C480 1.368 . S
H465 C473 0.950 . S
H466 C471 0.950 . S
H467 C472 0.949 . S
H468 C474 0.950 . S
H469 C475 0.950 . S
H470 C476 0.949 . S
C471 H466 0.950 . S
C471 C473 1.327 . S
C471 C477 1.429 . S
C472 C464 1.574 . S
C472 H467 0.949 . S
C472 C478 1.368 . S
C473 C457 1.349 . S
C473 H465 0.950 . S
C473 C471 1.327 . S
C474 C462 1.349 1_545 S
C474 H468 0.950 . S
C474 C475 1.327 . S
C475 H469 0.950 . S
C475 C474 1.327 . S
C475 C479 1.429 . S
C476 C459 1.574 . S
C476 H470 0.949 . S
C476 C480 1.368 . S
C477 C458 1.429 . S
C477 C471 1.429 . S
C477 C478 1.523 . S
C478 C459 1.368 . S
C478 C472 1.368 . S
C478 C477 1.523 . S
C479 C463 1.429 . S
C479 C475 1.429 . S
C479 C480 1.523 . S
C480 C464 1.368 . S
C480 C476 1.368 . S
C480 C479 1.523 . S
H481 C456 0.950 . S
H482 C458 0.950 . S
H483 C459 0.949 . S
H484 C461 0.950 . S
H485 C463 0.950 . S
C486 C487 1.349 . S
C486 C488 1.327 1_455 S
C486 H511 0.950 . S
C487 C486 1.349 . S
C487 C503 1.349 1_455 S
C488 C486 1.327 1_655 S
C488 C507 1.429 . S
C488 H512 0.950 . S
C489 C506 1.574 . S
C489 C508 1.368 . S
C489 H513 0.949 . S
H490 C494 0.949 . S
C491 C492 1.349 . S
C491 C493 1.327 . S
C491 H514 0.950 . S
C492 C491 1.349 . S
C492 C504 1.349 . S
C493 C491 1.327 . S
C493 C509 1.429 . S
C493 H515 0.950 . S
C494 H490 0.949 . S
C494 C502 1.574 . S
C494 C510 1.368 . S
H495 C503 0.950 . S
H496 C501 0.950 . S
H497 C502 0.949 . S
H498 C504 0.950 . S
H499 C505 0.950 . S
H500 C506 0.949 . S
C501 H496 0.950 . S
C501 C503 1.327 . S
C501 C507 1.429 . S
C502 C494 1.574 . S
C502 H497 0.949 . S
C502 C508 1.368 . S
C503 C487 1.349 1_655 S
C503 H495 0.950 . S
C503 C501 1.327 . S
C504 C492 1.349 . S
C504 H498 0.950 . S
C504 C505 1.327 . S
C505 H499 0.950 . S
C505 C504 1.327 . S
C505 C509 1.429 . S
C506 C489 1.574 . S
C506 H500 0.949 . S
C506 C510 1.368 . S
C507 C488 1.429 . S
C507 C501 1.429 . S
C507 C508 1.523 . S
C508 C489 1.368 . S
C508 C502 1.368 . S
C508 C507 1.523 . S
C509 C493 1.429 . S
C509 C505 1.429 . S
C509 C510 1.523 . S
C510 C494 1.368 . S
C510 C506 1.368 . S
C510 C509 1.523 . S
H511 C486 0.950 . S
H512 C488 0.950 . S
H513 C489 0.949 . S
H514 C491 0.950 . S
H515 C493 0.950 . S
C516 C517 1.349 . S
C516 C518 1.327 . S
C516 H541 0.950 . S
C517 C516 1.349 . S
C517 C533 1.349 . S
C518 C516 1.327 . S
C518 C537 1.429 . S
C518 H542 0.950 . S
C519 C536 1.574 . S
C519 C538 1.368 . S
C519 H543 0.949 . S
H520 C524 0.949 . S
C521 C522 1.349 . S
C521 C523 1.327 . S
C521 H544 0.950 . S
C522 C521 1.349 . S
C522 C534 1.349 . S
C523 C521 1.327 . S
C523 C539 1.429 . S
C523 H545 0.950 . S
C524 H520 0.949 . S
C524 C532 1.574 . S
C524 C540 1.368 . S
H525 C533 0.950 . S
H526 C531 0.950 . S
H527 C532 0.949 . S
H528 C534 0.950 . S
H529 C535 0.950 . S
H530 C536 0.949 . S
C531 H526 0.950 . S
C531 C533 1.327 . S
C531 C537 1.429 . S
C532 C524 1.574 . S
C532 H527 0.949 . S
C532 C538 1.368 . S
C533 C517 1.349 . S
C533 H525 0.950 . S
C533 C531 1.327 . S
C534 C522 1.349 . S
C534 H528 0.950 . S
C534 C535 1.327 . S
C535 H529 0.950 . S
C535 C534 1.327 . S
C535 C539 1.429 . S
C536 C519 1.574 . S
C536 H530 0.949 . S
C536 C540 1.368 . S
C537 C518 1.429 . S
C537 C531 1.429 . S
C537 C538 1.523 . S
C538 C519 1.368 . S
C538 C532 1.368 . S
C538 C537 1.523 . S
C539 C523 1.429 . S
C539 C535 1.429 . S
C539 C540 1.523 . S
C540 C524 1.368 . S
C540 C536 1.368 . S
C540 C539 1.523 . S
H541 C516 0.950 . S
H542 C518 0.950 . S
H543 C519 0.949 . S
H544 C521 0.950 . S
H545 C523 0.950 . S
C546 C547 1.349 . S
C546 C548 1.327 . S
C546 H571 0.950 . S
C547 C546 1.349 . S
C547 C563 1.349 . S
C548 C546 1.327 . S
C548 C567 1.429 . S
C548 H572 0.950 . S
C549 C566 1.574 . S
C549 C568 1.368 . S
C549 H573 0.949 . S
H550 C554 0.949 . S
C551 C552 1.349 . S
C551 C553 1.327 . S
C551 H574 0.950 . S
C552 C551 1.349 . S
C552 C564 1.349 . S
C553 C551 1.327 . S
C553 C569 1.429 . S
C553 H575 0.950 . S
C554 H550 0.949 . S
C554 C562 1.574 . S
C554 C570 1.368 . S
H555 C563 0.950 . S
H556 C561 0.950 . S
H557 C562 0.949 . S
H558 C564 0.950 . S
H559 C565 0.950 . S
H560 C566 0.949 . S
C561 H556 0.950 . S
C561 C563 1.327 . S
C561 C567 1.429 . S
C562 C554 1.574 . S
C562 H557 0.949 . S
C562 C568 1.368 . S
C563 C547 1.349 . S
C563 H555 0.950 . S
C563 C561 1.327 . S
C564 C552 1.349 . S
C564 H558 0.950 . S
C564 C565 1.327 . S
C565 H559 0.950 . S
C565 C564 1.327 . S
C565 C569 1.429 . S
C566 C549 1.574 . S
C566 H560 0.949 . S
C566 C570 1.368 . S
C567 C548 1.429 . S
C567 C561 1.429 . S
C567 C568 1.523 . S
C568 C549 1.368 . S
C568 C562 1.368 . S
C568 C567 1.523 . S
C569 C553 1.429 . S
C569 C565 1.429 . S
C569 C570 1.523 . S
C570 C554 1.368 . S
C570 C566 1.368 . S
C570 C569 1.523 . S
H571 C546 0.950 . S
H572 C548 0.950 . S
H573 C549 0.949 . S
H574 C551 0.950 . S
H575 C553 0.950 . S
C576 C577 1.349 . S
C576 C578 1.327 . S
C576 H601 0.950 . S
C577 C576 1.349 . S
C577 C593 1.349 . S
C578 C576 1.327 . S
C578 C597 1.429 . S
C578 H602 0.950 . S
C579 C596 1.574 . S
C579 C598 1.368 . S
C579 H603 0.949 . S
H580 C584 0.949 . S
C581 C582 1.349 . S
C581 C583 1.327 . S
C581 H604 0.950 . S
C582 C581 1.349 . S
C582 C594 1.349 . S
C583 C581 1.327 . S
C583 C599 1.429 . S
C583 H605 0.950 . S
C584 H580 0.949 . S
C584 C592 1.574 . S
C584 C600 1.368 . S
H585 C593 0.950 . S
H586 C591 0.950 . S
H587 C592 0.949 . S
H588 C594 0.950 . S
H589 C595 0.950 . S
H590 C596 0.949 . S
C591 H586 0.950 . S
C591 C593 1.327 . S
C591 C597 1.429 . S
C592 C584 1.574 . S
C592 H587 0.949 . S
C592 C598 1.368 . S
C593 C577 1.349 . S
C593 H585 0.950 . S
C593 C591 1.327 . S
C594 C582 1.349 . S
C594 H588 0.950 . S
C594 C595 1.327 . S
C595 H589 0.950 . S
C595 C594 1.327 . S
C595 C599 1.429 . S
C596 C579 1.574 . S
C596 H590 0.949 . S
C596 C600 1.368 . S
C597 C578 1.429 . S
C597 C591 1.429 . S
C597 C598 1.523 . S
C598 C579 1.368 . S
C598 C592 1.368 . S
C598 C597 1.523 . S
C599 C583 1.429 . S
C599 C595 1.429 . S
C599 C600 1.523 . S
C600 C584 1.368 . S
C600 C596 1.368 . S
C600 C599 1.523 . S
H601 C576 0.950 . S
H602 C578 0.950 . S
H603 C579 0.949 . S
H604 C581 0.950 . S
H605 C583 0.950 . S
C606 C607 1.349 . S
C606 C608 1.327 . S
C606 H631 0.950 . S
C607 C606 1.349 . S
C607 C623 1.349 . S
C608 C606 1.327 . S
C608 C627 1.429 . S
C608 H632 0.950 . S
C609 C626 1.574 . S
C609 C628 1.368 . S
C609 H633 0.949 . S
H610 C614 0.949 . S
C611 C612 1.349 . S
C611 C613 1.327 . S
C611 H634 0.950 . S
C612 C611 1.349 . S
C612 C624 1.349 . S
C613 C611 1.327 . S
C613 C629 1.429 . S
C613 H635 0.950 . S
C614 H610 0.949 . S
C614 C622 1.574 . S
C614 C630 1.368 . S
H615 C623 0.950 . S
H616 C621 0.950 . S
H617 C622 0.949 . S
H618 C624 0.950 . S
H619 C625 0.950 . S
H620 C626 0.949 . S
C621 H616 0.950 . S
C621 C623 1.327 . S
C621 C627 1.429 . S
C622 C614 1.574 . S
C622 H617 0.949 . S
C622 C628 1.368 . S
C623 C607 1.349 . S
C623 H615 0.950 . S
C623 C621 1.327 . S
C624 C612 1.349 . S
C624 H618 0.950 . S
C624 C625 1.327 . S
C625 H619 0.950 . S
C625 C624 1.327 . S
C625 C629 1.429 . S
C626 C609 1.574 . S
C626 H620 0.949 . S
C626 C630 1.368 . S
C627 C608 1.429 . S
C627 C621 1.429 . S
C627 C628 1.523 . S
C628 C609 1.368 . S
C628 C622 1.368 . S
C628 C627 1.523 . S
C629 C613 1.429 . S
C629 C625 1.429 . S
C629 C630 1.523 . S
C630 C614 1.368 . S
C630 C626 1.368 . S
C630 C629 1.523 . S
H631 C606 0.950 . S
H632 C608 0.950 . S
H633 C609 0.949 . S
H634 C611 0.950 . S
H635 C613 0.950 . S
C636 C637 1.349 . S
C636 C638 1.327 . S
C636 H661 0.950 . S
C637 C636 1.349 . S
C637 C653 1.349 . S
C638 C636 1.327 . S
C638 C657 1.429 . S
C638 H662 0.950 . S
C639 C656 1.574 . S
C639 C658 1.368 . S
C639 H663 0.949 . S
H640 C644 0.949 . S
C641 C642 1.349 . S
C641 C643 1.327 . S
C641 H664 0.950 . S
C642 C641 1.349 . S
C642 C654 1.349 . S
C643 C641 1.327 . S
C643 C659 1.429 . S
C643 H665 0.950 . S
C644 H640 0.949 . S
C644 C652 1.574 . S
C644 C660 1.368 . S
H645 C653 0.950 . S
H646 C651 0.950 . S
H647 C652 0.949 . S
H648 C654 0.950 . S
H649 C655 0.950 . S
H650 C656 0.949 . S
C651 H646 0.950 . S
C651 C653 1.327 . S
C651 C657 1.429 . S
C652 C644 1.574 . S
C652 H647 0.949 . S
C652 C658 1.368 . S
C653 C637 1.349 . S
C653 H645 0.950 . S
C653 C651 1.327 . S
C654 C642 1.349 . S
C654 H648 0.950 . S
C654 C655 1.327 . S
C655 H649 0.950 . S
C655 C654 1.327 . S
C655 C659 1.429 . S
C656 C639 1.574 . S
C656 H650 0.949 . S
C656 C660 1.368 . S
C657 C638 1.429 . S
C657 C651 1.429 . S
C657 C658 1.523 . S
C658 C639 1.368 . S
C658 C652 1.368 . S
C658 C657 1.523 . S
C659 C643 1.429 . S
C659 C655 1.429 . S
C659 C660 1.523 . S
C660 C644 1.368 . S
C660 C656 1.368 . S
C660 C659 1.523 . S
H661 C636 0.950 . S
H662 C638 0.950 . S
H663 C639 0.949 . S
H664 C641 0.950 . S
H665 C643 0.950 . S
C666 C667 1.349 . S
C666 C668 1.327 . S
C666 H691 0.950 . S
C667 C666 1.349 . S
C667 C683 1.349 . S
C668 C666 1.327 . S
C668 C687 1.429 . S
C668 H692 0.950 . S
C669 C686 1.574 . S
C669 C688 1.368 . S
C669 H693 0.949 . S
H670 C674 0.949 . S
C671 C672 1.349 . S
C671 C673 1.327 . S
C671 H694 0.950 . S
C672 C671 1.349 . S
C672 C684 1.349 . S
C673 C671 1.327 . S
C673 C689 1.429 . S
C673 H695 0.950 . S
C674 H670 0.949 . S
C674 C682 1.574 . S
C674 C690 1.368 . S
H675 C683 0.950 . S
H676 C681 0.950 . S
H677 C682 0.949 . S
H678 C684 0.950 . S
H679 C685 0.950 . S
H680 C686 0.949 . S
C681 H676 0.950 . S
C681 C683 1.327 . S
C681 C687 1.429 . S
C682 C674 1.574 . S
C682 H677 0.949 . S
C682 C688 1.368 . S
C683 C667 1.349 . S
C683 H675 0.950 . S
C683 C681 1.327 . S
C684 C672 1.349 . S
C684 H678 0.950 . S
C684 C685 1.327 . S
C685 H679 0.950 . S
C685 C684 1.327 . S
C685 C689 1.429 . S
C686 C669 1.574 . S
C686 H680 0.949 . S
C686 C690 1.368 . S
C687 C668 1.429 . S
C687 C681 1.429 . S
C687 C688 1.523 . S
C688 C669 1.368 . S
C688 C682 1.368 . S
C688 C687 1.523 . S
C689 C673 1.429 . S
C689 C685 1.429 . S
C689 C690 1.523 . S
C690 C674 1.368 . S
C690 C686 1.368 . S
C690 C689 1.523 . S
H691 C666 0.950 . S
H692 C668 0.950 . S
H693 C669 0.949 . S
H694 C671 0.950 . S
H695 C673 0.950 . S
C696 C697 1.349 . S
C696 C698 1.327 . S
C696 H721 0.950 . S
C697 C696 1.349 . S
C697 C713 1.349 . S
C698 C696 1.327 . S
C698 C717 1.429 . S
C698 H722 0.950 . S
C699 C716 1.574 . S
C699 C718 1.368 . S
C699 H723 0.949 . S
H700 C704 0.949 . S
C701 C702 1.349 . S
C701 C703 1.327 . S
C701 H724 0.950 . S
C702 C701 1.349 . S
C702 C714 1.349 . S
C703 C701 1.327 . S
C703 C719 1.429 . S
C703 H725 0.950 . S
C704 H700 0.949 . S
C704 C712 1.574 . S
C704 C720 1.368 . S
H705 C713 0.950 . S
H706 C711 0.950 . S
H707 C712 0.949 . S
H708 C714 0.950 . S
H709 C715 0.950 . S
H710 C716 0.949 . S
C711 H706 0.950 . S
C711 C713 1.327 . S
C711 C717 1.429 . S
C712 C704 1.574 . S
C712 H707 0.949 . S
C712 C718 1.368 1_656 S
C713 C697 1.349 . S
C713 H705 0.950 . S
C713 C711 1.327 . S
C714 C702 1.349 . S
C714 H708 0.950 . S
C714 C715 1.327 . S
C715 H709 0.950 . S
C715 C714 1.327 . S
C715 C719 1.429 . S
C716 C699 1.574 . S
C716 H710 0.949 . S
C716 C720 1.368 1_454 S
C717 C698 1.429 . S
C717 C711 1.429 . S
C717 C718 1.523 . S
C718 C699 1.368 . S
C718 C712 1.368 1_454 S
C718 C717 1.523 . S
C719 C703 1.429 . S
C719 C715 1.429 . S
C719 C720 1.523 . S
C720 C704 1.368 . S
C720 C716 1.368 1_656 S
C720 C719 1.523 . S
H721 C696 0.950 . S
H722 C698 0.950 . S
H723 C699 0.949 . S
H724 C701 0.950 . S
H725 C703 0.950 . S
C726 C727 1.349 . S
C726 C728 1.327 . S
C726 H751 0.950 . S
C727 C726 1.349 . S
C727 C743 1.349 . S
C728 C726 1.327 . S
C728 C747 1.429 . S
C728 H752 0.950 1_554 S
C729 C746 1.574 . S
C729 C748 1.368 . S
C729 H753 0.949 . S
H730 C734 0.949 . S
C731 C732 1.349 . S
C731 C733 1.327 . S
C731 H754 0.950 . S
C732 C731 1.349 . S
C732 C744 1.349 . S
C733 C731 1.327 . S
C733 C749 1.429 . S
C733 H755 0.950 1_556 S
C734 H730 0.949 . S
C734 C742 1.574 . S
C734 C750 1.368 . S
H735 C743 0.950 . S
H736 C741 0.950 . S
H737 C742 0.949 . S
H738 C744 0.950 . S
H739 C745 0.950 . S
H740 C746 0.949 . S
C741 H736 0.950 . S
C741 C743 1.327 . S
C741 C747 1.429 . S
C742 C734 1.574 . S
C742 H737 0.949 . S
C742 C748 1.368 1_556 S
C743 C727 1.349 . S
C743 H735 0.950 . S
C743 C741 1.327 . S
C744 C732 1.349 . S
C744 H738 0.950 . S
C744 C745 1.327 . S
C745 H739 0.950 . S
C745 C744 1.327 . S
C745 C749 1.429 . S
C746 C729 1.574 . S
C746 H740 0.949 . S
C746 C750 1.368 1_554 S
C747 C728 1.429 . S
C747 C741 1.429 . S
C747 C748 1.523 . S
C748 C729 1.368 . S
C748 C742 1.368 1_554 S
C748 C747 1.523 . S
C749 C733 1.429 . S
C749 C745 1.429 . S
C749 C750 1.523 . S
C750 C734 1.368 . S
C750 C746 1.368 1_556 S
C750 C749 1.523 . S
H751 C726 0.950 . S
H752 C728 0.950 1_556 S
H753 C729 0.949 . S
H754 C731 0.950 . S
H755 C733 0.950 1_554 S
C756 C757 1.349 . S
C756 C758 1.327 . S
C756 H781 0.950 . S
C757 C756 1.349 . S
C757 C773 1.349 . S
C758 C756 1.327 . S
C758 C777 1.429 . S
C758 H782 0.950 1_565 S
C759 C776 1.574 1_554 S
C759 C778 1.368 . S
C759 H783 0.949 . S
H760 C764 0.949 . S
C761 C762 1.349 . S
C761 C763 1.327 . S
C761 H784 0.950 . S
C762 C761 1.349 . S
C762 C774 1.349 . S
C763 C761 1.327 . S
C763 C779 1.429 . S
C763 H785 0.950 1_545 S
C764 H760 0.949 . S
C764 C772 1.574 1_556 S
C764 C780 1.368 . S
H765 C773 0.950 . S
H766 C771 0.950 . S
H767 C772 0.949 . S
H768 C774 0.950 . S
H769 C775 0.950 . S
H770 C776 0.949 . S
C771 H766 0.950 . S
C771 C773 1.327 . S
C771 C777 1.429 . S
C772 C764 1.574 1_554 S
C772 H767 0.949 . S
C772 C778 1.368 1_545 S
C773 C757 1.349 . S
C773 H765 0.950 . S
C773 C771 1.327 . S
C774 C762 1.349 . S
C774 H768 0.950 . S
C774 C775 1.327 . S
C775 H769 0.950 . S
C775 C774 1.327 . S
C775 C779 1.429 . S
C776 C759 1.574 1_556 S
C776 H770 0.949 . S
C776 C780 1.368 1_565 S
C777 C758 1.429 . S
C777 C771 1.429 . S
C777 C778 1.523 . S
C778 C759 1.368 . S
C778 C772 1.368 1_565 S
C778 C777 1.523 . S
C779 C763 1.429 . S
C779 C775 1.429 . S
C779 C780 1.523 . S
C780 C764 1.368 . S
C780 C776 1.368 1_545 S
C780 C779 1.523 . S
H781 C756 0.950 . S
H782 C758 0.950 1_545 S
H783 C759 0.949 . S
H784 C761 0.950 . S
H785 C763 0.950 1_565 S
C786 C787 1.349 . S
C786 C788 1.327 . S
C786 H811 0.950 . S
C787 C786 1.349 . S
C787 C803 1.349 . S
C788 C786 1.327 . S
C788 C807 1.429 . S
C788 H812 0.950 1_565 S
C789 C806 1.574 . S
C789 C808 1.368 . S
C789 H813 0.949 . S
H790 C794 0.949 . S
C791 C792 1.349 . S
C791 C793 1.327 . S
C791 H814 0.950 . S
C792 C791 1.349 . S
C792 C804 1.349 . S
C793 C791 1.327 . S
C793 C809 1.429 . S
C793 H815 0.950 1_545 S
C794 H790 0.949 . S
C794 C802 1.574 . S
C794 C810 1.368 . S
H795 C803 0.950 . S
H796 C801 0.950 . S
H797 C802 0.949 . S
H798 C804 0.950 . S
H799 C805 0.950 . S
H800 C806 0.949 . S
C801 H796 0.950 . S
C801 C803 1.327 . S
C801 C807 1.429 . S
C802 C794 1.574 . S
C802 H797 0.949 . S
C802 C808 1.368 1_545 S
C803 C787 1.349 . S
C803 H795 0.950 . S
C803 C801 1.327 . S
C804 C792 1.349 . S
C804 H798 0.950 . S
C804 C805 1.327 . S
C805 H799 0.950 . S
C805 C804 1.327 . S
C805 C809 1.429 . S
C806 C789 1.574 . S
C806 H800 0.949 . S
C806 C810 1.368 1_565 S
C807 C788 1.429 . S
C807 C801 1.429 . S
C807 C808 1.523 . S
C808 C789 1.368 . S
C808 C802 1.368 1_565 S
C808 C807 1.523 . S
C809 C793 1.429 . S
C809 C805 1.429 . S
C809 C810 1.523 . S
C810 C794 1.368 . S
C810 C806 1.368 1_545 S
C810 C809 1.523 . S
H811 C786 0.950 . S
H812 C788 0.950 1_545 S
H813 C789 0.949 . S
H814 C791 0.950 . S
H815 C793 0.950 1_565 S
C816 C817 1.349 . S
C816 C818 1.327 . S
C816 H841 0.950 . S
C817 C816 1.349 . S
C817 C833 1.349 . S
C818 C816 1.327 . S
C818 C837 1.429 . S
C818 H842 0.950 . S
C819 C836 1.574 . S
C819 C838 1.368 1_455 S
C819 H843 0.949 . S
H820 C824 0.949 . S
C821 C822 1.349 . S
C821 C823 1.327 . S
C821 H844 0.950 . S
C822 C821 1.349 . S
C822 C834 1.349 . S
C823 C821 1.327 . S
C823 C839 1.429 . S
C823 H845 0.950 . S
C824 H820 0.949 . S
C824 C832 1.574 . S
C824 C840 1.368 1_655 S
H825 C833 0.950 . S
H826 C831 0.961 . S
H827 C832 0.949 . S
H828 C834 0.950 . S
H829 C835 0.961 . S
H830 C836 0.949 . S
C831 H826 0.961 . S
C831 C833 1.327 . S
C831 C837 1.429 . S
C832 C824 1.574 . S
C832 H827 0.949 . S
C832 C838 1.368 . S
C833 C817 1.349 . S
C833 H825 0.950 . S
C833 C831 1.327 . S
C834 C822 1.349 . S
C834 H828 0.950 . S
C834 C835 1.327 . S
C835 H829 0.961 . S
C835 C834 1.327 . S
C835 C839 1.429 . S
C836 C819 1.574 . S
C836 H830 0.949 . S
C836 C840 1.368 . S
C837 C818 1.429 . S
C837 C831 1.429 . S
C837 C838 1.523 . S
C838 C819 1.368 1_655 S
C838 C832 1.368 . S
C838 C837 1.523 . S
C839 C823 1.429 . S
C839 C835 1.429 . S
C839 C840 1.523 . S
C840 C824 1.368 1_455 S
C840 C836 1.368 . S
C840 C839 1.523 . S
H841 C816 0.950 . S
H842 C818 0.950 . S
H843 C819 0.949 . S
H844 C821 0.950 . S
H845 C823 0.950 . S
C846 C847 1.349 . S
C846 C848 1.327 . S
C846 H871 0.950 . S
C847 C846 1.349 . S
C847 C863 1.349 . S
C848 C846 1.327 . S
C848 C867 1.429 . S
C848 H872 0.950 . S
C849 C866 1.574 . S
C849 C868 1.368 . S
C849 H873 0.949 . S
H850 C854 0.949 . S
C851 C852 1.349 . S
C851 C853 1.327 . S
C851 H874 0.950 . S
C852 C851 1.349 . S
C852 C864 1.349 . S
C853 C851 1.327 . S
C853 C869 1.429 . S
C853 H875 0.950 . S
C854 H850 0.949 . S
C854 C862 1.574 . S
C854 C870 1.368 . S
H855 C863 0.950 . S
H856 C861 0.950 . S
H857 C862 0.949 . S
H858 C864 0.950 . S
H859 C865 0.950 . S
H860 C866 0.949 . S
C861 H856 0.950 . S
C861 C863 1.327 . S
C861 C867 1.429 . S
C862 C854 1.574 . S
C862 H857 0.949 . S
C862 C868 1.368 . S
C863 C847 1.349 . S
C863 H855 0.950 . S
C863 C861 1.327 . S
C864 C852 1.349 . S
C864 H858 0.950 . S
C864 C865 1.327 . S
C865 H859 0.950 . S
C865 C864 1.327 . S
C865 C869 1.429 . S
C866 C849 1.574 . S
C866 H860 0.949 . S
C866 C870 1.368 . S
C867 C848 1.429 . S
C867 C861 1.429 . S
C867 C868 1.523 . S
C868 C849 1.368 . S
C868 C862 1.368 . S
C868 C867 1.523 . S
C869 C853 1.429 . S
C869 C865 1.429 . S
C869 C870 1.523 . S
C870 C854 1.368 . S
C870 C866 1.368 . S
C870 C869 1.523 . S
H871 C846 0.950 . S
H872 C848 0.950 . S
H873 C849 0.949 . S
H874 C851 0.950 . S
H875 C853 0.950 . S
C157 C4 0.997 . S
C162 C94 0.999 . S
C187 C17 0.997 . S
C192 C107 0.999 . S
C217 C36 0.998 . S
C222 C83 0.999 . S
C247 C146 0.999 . S
C252 C49 0.997 . S
C277 C56 0.997 . S
C282 C122 0.999 . S
C307 C135 0.999 . S
C312 C69 0.998 . S
C337 C16 0.999 . S
C342 C88 0.997 . S
C367 C95 0.997 . S
C372 C31 0.999 . S
C397 C3 0.999 . S
C402 C108 0.998 . S
C427 C127 0.997 . S
C432 C68 0.999 . S
C457 C140 0.997 . S
C462 C44 0.999 . S
C487 C55 0.999 . S
C492 C147 0.998 . S
C517 C75 1.556 . S
C522 C10 1.556 . S
C547 C23 1.556 . S
C552 C43 1.556 . S
C577 C30 1.556 . S
C582 C62 1.556 . S
C607 C82 1.556 . S
C612 C153 1.556 . S
C637 C101 1.556 . S
C642 C121 1.556 . S
C667 C114 1.556 . S
C672 C134 1.556 . S
C697 C5 1.494 . S
C702 C81 1.494 . S
C727 C18 1.494 . S
C732 C96 1.494 . S
C757 C29 1.493 . S
C762 C109 1.493 . S
C787 C42 1.493 . S
C792 C120 1.493 . S
C817 C133 1.493 . S
C822 C57 1.493 . S
C847 C70 1.494 . S
C852 C148 1.494 . S
