# Generated by pormake.
# Topology zfy, (5)-cn, num edge types: 1
# Building blocks:
#     Node 0, Type 0, BuildingBlock: BEQFEK_clean_sbu_0, # of connection points: 5
#     Node 1, Type 0, BuildingBlock: BEQFEK_clean_sbu_0, # of connection points: 5
#     Node 2, Type 0, BuildingBlock: BEQFEK_clean_sbu_0, # of connection points: 5
#     Node 3, Type 0, BuildingBlock: BEQFEK_clean_sbu_0, # of connection points: 5
#     Node 4, Type 0, BuildingBlock: BEQFEK_clean_sbu_0, # of connection points: 5
#     Node 5, Type 0, BuildingBlock: BEQFEK_clean_sbu_0, # of connection points: 5
#     Node 6, Type 0, BuildingBlock: BEQFEK_clean_sbu_0, # of connection points: 5
#     Node 7, Type 0, BuildingBlock: BEQFEK_clean_sbu_0, # of connection points: 5
#     Node 8, Type 0, BuildingBlock: BEQFEK_clean_sbu_0, # of connection points: 5
#     Node 9, Type 0, BuildingBlock: BEQFEK_clean_sbu_0, # of connection points: 5
#     Node 10, Type 0, BuildingBlock: BEQFEK_clean_sbu_0, # of connection points: 5
#     Node 11, Type 0, BuildingBlock: BEQFEK_clean_sbu_0, # of connection points: 5
#     Node 12, Type 0, BuildingBlock: BEQFEK_clean_sbu_0, # of connection points: 5
#     Node 13, Type 0, BuildingBlock: BEQFEK_clean_sbu_0, # of connection points: 5
#     Node 14, Type 0, BuildingBlock: BEQFEK_clean_sbu_0, # of connection points: 5
#     Node 15, Type 0, BuildingBlock: BEQFEK_clean_sbu_0, # of connection points: 5
#     Edge 16, Type (0, 0), BuildingBlock: ZUJKAS_clean_linker_0, # of connection points: 2
#     Edge 17, Type (0, 0), BuildingBlock: ZUJKAS_clean_linker_0, # of connection points: 2
#     Edge 18, Type (0, 0), BuildingBlock: ZUJKAS_clean_linker_0, # of connection points: 2
#     Edge 19, Type (0, 0), BuildingBlock: ZUJKAS_clean_linker_0, # of connection points: 2
#     Edge 20, Type (0, 0), BuildingBlock: ZUJKAS_clean_linker_0, # of connection points: 2
#     Edge 21, Type (0, 0), BuildingBlock: ZUJKAS_clean_linker_0, # of connection points: 2
#     Edge 22, Type (0, 0), BuildingBlock: ZUJKAS_clean_linker_0, # of connection points: 2
#     Edge 23, Type (0, 0), BuildingBlock: ZUJKAS_clean_linker_0, # of connection points: 2
#     Edge 24, Type (0, 0), BuildingBlock: ZUJKAS_clean_linker_0, # of connection points: 2
#     Edge 25, Type (0, 0), BuildingBlock: ZUJKAS_clean_linker_0, # of connection points: 2
#     Edge 26, Type (0, 0), BuildingBlock: ZUJKAS_clean_linker_0, # of connection points: 2
#     Edge 27, Type (0, 0), BuildingBlock: ZUJKAS_clean_linker_0, # of connection points: 2
#     Edge 28, Type (0, 0), BuildingBlock: ZUJKAS_clean_linker_0, # of connection points: 2
#     Edge 29, Type (0, 0), BuildingBlock: ZUJKAS_clean_linker_0, # of connection points: 2
#     Edge 30, Type (0, 0), BuildingBlock: ZUJKAS_clean_linker_0, # of connection points: 2
#     Edge 31, Type (0, 0), BuildingBlock: ZUJKAS_clean_linker_0, # of connection points: 2
#     Edge 32, Type (0, 0), BuildingBlock: ZUJKAS_clean_linker_0, # of connection points: 2
#     Edge 33, Type (0, 0), BuildingBlock: ZUJKAS_clean_linker_0, # of connection points: 2
#     Edge 34, Type (0, 0), BuildingBlock: ZUJKAS_clean_linker_0, # of connection points: 2
#     Edge 35, Type (0, 0), BuildingBlock: ZUJKAS_clean_linker_0, # of connection points: 2
#     Edge 36, Type (0, 0), BuildingBlock: ZUJKAS_clean_linker_0, # of connection points: 2
#     Edge 37, Type (0, 0), BuildingBlock: ZUJKAS_clean_linker_0, # of connection points: 2
#     Edge 38, Type (0, 0), BuildingBlock: ZUJKAS_clean_linker_0, # of connection points: 2
#     Edge 39, Type (0, 0), BuildingBlock: ZUJKAS_clean_linker_0, # of connection points: 2
#     Edge 40, Type (0, 0), BuildingBlock: ZUJKAS_clean_linker_0, # of connection points: 2
#     Edge 41, Type (0, 0), BuildingBlock: ZUJKAS_clean_linker_0, # of connection points: 2
#     Edge 42, Type (0, 0), BuildingBlock: ZUJKAS_clean_linker_0, # of connection points: 2
#     Edge 43, Type (0, 0), BuildingBlock: ZUJKAS_clean_linker_0, # of connection points: 2
#     Edge 44, Type (0, 0), BuildingBlock: ZUJKAS_clean_linker_0, # of connection points: 2
#     Edge 45, Type (0, 0), BuildingBlock: ZUJKAS_clean_linker_0, # of connection points: 2
#     Edge 46, Type (0, 0), BuildingBlock: ZUJKAS_clean_linker_0, # of connection points: 2
#     Edge 47, Type (0, 0), BuildingBlock: ZUJKAS_clean_linker_0, # of connection points: 2
#     Edge 48, Type (0, 0), BuildingBlock: ZUJKAS_clean_linker_0, # of connection points: 2
#     Edge 49, Type (0, 0), BuildingBlock: ZUJKAS_clean_linker_0, # of connection points: 2
#     Edge 50, Type (0, 0), BuildingBlock: ZUJKAS_clean_linker_0, # of connection points: 2
#     Edge 51, Type (0, 0), BuildingBlock: ZUJKAS_clean_linker_0, # of connection points: 2
#     Edge 52, Type (0, 0), BuildingBlock: ZUJKAS_clean_linker_0, # of connection points: 2
#     Edge 53, Type (0, 0), BuildingBlock: ZUJKAS_clean_linker_0, # of connection points: 2
#     Edge 54, Type (0, 0), BuildingBlock: ZUJKAS_clean_linker_0, # of connection points: 2
#     Edge 55, Type (0, 0), BuildingBlock: ZUJKAS_clean_linker_0, # of connection points: 2
# Relax obj value: 0.200
# Max RMSD: 0.146
# Mean RMSD: 0.146
data_MOF--net-zfy--node1-BEQFEK_clean_sbu_0--edge1-ZUJKAS_clean_linker_0
_symmetry_space_group_name_H-M    P1
_symmetry_Int_Tables_number       1
_symmetry_cell_setting            triclinic
loop_
_symmetry_equiv_pos_as_xyz
'x, y, z'
_cell_length_a     70.537826
_cell_length_b     70.540954
_cell_length_c     34.968289
_cell_angle_alpha  90.077991
_cell_angle_beta   90.011755
_cell_angle_gamma 90.003194
loop_
_atom_site_label
_atom_site_type_symbol
_atom_site_fract_x
_atom_site_fract_y
_atom_site_fract_z
_atom_type_partial_charge
Co0 Co 0.31692 0.16631 0.07576 0.0
Co1 Co 0.3113 0.20065 0.02002 0.0
C2 C 0.30521 0.20413 0.10556 0.0
O3 O 0.30985 0.18694 0.11148 0.0
O4 O 0.30554 0.21111 0.07195 0.0
C5 C 0.33473 0.14414 0.1347 0.0
O6 O 0.34126 0.1606 0.14642 0.0
C7 C 0.32496 0.23599 0.98594 0.0
C8 C 0.30763 0.23819 0.93354 0.0
C9 C 0.32239 0.24681 0.95318 0.0
N10 N 0.31262 0.22145 0.98516 0.0
N11 N 0.30214 0.22298 0.95399 0.0
C12 C 0.33851 0.23954 0.01815 0.0
H13 H 0.33285 0.23357 0.04515 0.0
H14 H 0.3522 0.23244 0.01209 0.0
H15 H 0.34115 0.25496 0.02162 0.0
C16 C 0.353 0.16322 0.03282 0.0
N17 N 0.3371 0.17279 0.04224 0.0
N18 N 0.33435 0.18646 0.01728 0.0
C19 C 0.34812 0.18559 0.99044 0.0
C20 C 0.36056 0.17108 0.99986 0.0
C21 C 0.35921 0.14513 0.05136 0.0
H22 H 0.34722 0.13498 0.05199 0.0
H23 H 0.36362 0.14814 0.08118 0.0
H24 H 0.37128 0.13849 0.03605 0.0
O25 O 0.29418 0.15961 0.04509 0.0
O26 O 0.28983 0.18392 0.00555 0.0
H27 H 0.33348 0.19774 0.94254 0.0
H28 H 0.35744 0.19026 0.93207 0.0
C29 C 0.3481 0.19673 0.95399 0.0
H30 H 0.35342 0.21122 0.95967 0.0
H31 H 0.29158 0.21337 0.94618 0.0
O32 O 0.32386 0.14356 0.10574 0.0
C33 C 0.28486 0.16777 0.01854 0.0
Co34 Co 0.58884 0.56565 0.32692 0.0
Co35 Co 0.55467 0.56085 0.26994 0.0
C36 C 0.5503 0.55475 0.35494 0.0
O37 O 0.56748 0.55931 0.36129 0.0
O38 O 0.54354 0.5549 0.32113 0.0
C39 C 0.60995 0.58508 0.38478 0.0
O40 O 0.5935 0.59306 0.39199 0.0
C41 C 0.51829 0.57169 0.23401 0.0
C42 C 0.52155 0.55944 0.17624 0.0
C43 C 0.50966 0.57068 0.19823 0.0
N44 N 0.53475 0.56202 0.23262 0.0
N45 N 0.53641 0.55446 0.19819 0.0
C46 C 0.51112 0.58154 0.26911 0.0
H47 H 0.51575 0.5739 0.29512 0.0
H48 H 0.51706 0.59608 0.27045 0.0
H49 H 0.49541 0.58245 0.2688 0.0
C50 C 0.59369 0.60103 0.28253 0.0
N51 N 0.58343 0.58565 0.29235 0.0
N52 N 0.56892 0.584 0.26891 0.0
C53 C 0.56939 0.59852 0.24371 0.0
C54 C 0.58509 0.6098 0.25157 0.0
C55 C 0.61298 0.60543 0.29823 0.0
H56 H 0.62104 0.59213 0.30266 0.0
H57 H 0.61142 0.6128 0.32608 0.0
H58 H 0.62124 0.61466 0.27873 0.0
O59 O 0.59543 0.54266 0.29776 0.0
O60 O 0.5718 0.5393 0.25615 0.0
H61 H 0.55658 0.5887 0.19186 0.0
H62 H 0.55837 0.61424 0.19518 0.0
C63 C 0.55568 0.60104 0.21144 0.0
H64 H 0.54112 0.60185 0.22299 0.0
H65 H 0.54805 0.54647 0.18923 0.0
O66 O 0.61098 0.57252 0.35878 0.0
C67 C 0.58751 0.53373 0.27039 0.0
Co68 Co 0.18853 0.838 0.57858 0.0
Co69 Co 0.19416 0.80462 0.52016 0.0
C70 C 0.20005 0.7999 0.60588 0.0
O71 O 0.19514 0.81691 0.61298 0.0
O72 O 0.2001 0.7935 0.57172 0.0
C73 C 0.17254 0.86004 0.64032 0.0
O74 O 0.16739 0.84352 0.65417 0.0
C75 C 0.18043 0.76974 0.48374 0.0
C76 C 0.1972 0.76879 0.43048 0.0
C77 C 0.1827 0.75957 0.44981 0.0
N78 N 0.19267 0.78437 0.48374 0.0
N79 N 0.2028 0.7836 0.45202 0.0
C80 C 0.16728 0.76566 0.51628 0.0
H81 H 0.1728 0.77196 0.54313 0.0
H82 H 0.15325 0.77214 0.51043 0.0
H83 H 0.16543 0.75014 0.51998 0.0
C84 C 0.15247 0.84172 0.53623 0.0
N85 N 0.16841 0.83204 0.54466 0.0
N86 N 0.17109 0.8188 0.5187 0.0
C87 C 0.15719 0.82007 0.49217 0.0
C88 C 0.14487 0.83459 0.50253 0.0
C89 C 0.14514 0.85808 0.5592 0.0
H90 H 0.14395 0.85377 0.58954 0.0
H91 H 0.13095 0.86275 0.5493 0.0
H92 H 0.15524 0.8701 0.55728 0.0
O93 O 0.21149 0.84476 0.54881 0.0
O94 O 0.21551 0.82164 0.50628 0.0
H95 H 0.17232 0.80873 0.44402 0.0
H96 H 0.14907 0.81763 0.43257 0.0
C97 C 0.15754 0.81001 0.45442 0.0
H98 H 0.15151 0.79561 0.45787 0.0
H99 H 0.21318 0.79347 0.4446 0.0
O100 O 0.1818 0.86065 0.60918 0.0
C101 C 0.22068 0.83733 0.52121 0.0
Co102 Co 0.91609 0.43839 0.82678 0.0
Co103 Co 0.94983 0.44331 0.76908 0.0
C104 C 0.95491 0.4492 0.85399 0.0
O105 O 0.93769 0.44485 0.86052 0.0
O106 O 0.96158 0.44887 0.82008 0.0
C107 C 0.89503 0.41929 0.8856 0.0
O108 O 0.91145 0.41139 0.89342 0.0
C109 C 0.98542 0.43215 0.73128 0.0
C110 C 0.9823 0.44574 0.67476 0.0
C111 C 0.99395 0.43371 0.69552 0.0
N112 N 0.9694 0.44252 0.73119 0.0
N113 N 0.96784 0.4509 0.69758 0.0
C114 C 0.99098 0.41937 0.7635 0.0
H115 H 0.97878 0.41699 0.78297 0.0
H116 H 0.9962 0.40558 0.75236 0.0
H117 H 0.00257 0.42614 0.78006 0.0
C118 C 0.9111 0.4029 0.78251 0.0
N119 N 0.92136 0.41836 0.79197 0.0
N120 N 0.93551 0.42022 0.76771 0.0
C121 C 0.93467 0.40587 0.74204 0.0
C122 C 0.91925 0.39438 0.75073 0.0
C123 C 0.89222 0.39813 0.79957 0.0
H124 H 0.88377 0.41123 0.80361 0.0
H125 H 0.89442 0.39135 0.8278 0.0
H126 H 0.88401 0.38827 0.78122 0.0
O127 O 0.9091 0.46135 0.79785 0.0
O128 O 0.93266 0.46485 0.75623 0.0
H129 H 0.94724 0.41692 0.69099 0.0
H130 H 0.94382 0.3915 0.69025 0.0
C131 C 0.94763 0.40381 0.70841 0.0
H132 H 0.96229 0.40163 0.71873 0.0
H133 H 0.95644 0.45946 0.68962 0.0
O134 O 0.89408 0.43153 0.85905 0.0
C135 C 0.91694 0.47033 0.77051 0.0
Co136 Co 0.68938 0.83863 0.9301 0.0
Co137 Co 0.69483 0.80454 0.9867 0.0
C138 C 0.70135 0.80073 0.9012 0.0
O139 O 0.69666 0.81788 0.89488 0.0
O140 O 0.70095 0.79388 0.93495 0.0
C141 C 0.67548 0.86167 0.86713 0.0
O142 O 0.67368 0.84562 0.84839 0.0
C143 C 0.68165 0.76922 0.022 0.0
C144 C 0.6982 0.76846 0.07558 0.0
C145 C 0.68401 0.759 0.05574 0.0
N146 N 0.69355 0.78413 0.02254 0.0
N147 N 0.70355 0.78347 0.05445 0.0
C148 C 0.66874 0.7649 0.98914 0.0
H149 H 0.67443 0.7711 0.96237 0.0
H150 H 0.65465 0.77135 0.99447 0.0
H151 H 0.66698 0.74936 0.98564 0.0
C152 C 0.65345 0.84199 0.97226 0.0
N153 N 0.66917 0.83213 0.9632 0.0
N154 N 0.67163 0.81849 0.98835 0.0
C155 C 0.65766 0.81957 0.01478 0.0
C156 C 0.64565 0.83445 0.0053 0.0
C157 C 0.64697 0.85942 0.95168 0.0
H158 H 0.65746 0.87094 0.9561 0.0
H159 H 0.64604 0.85639 0.92064 0.0
H160 H 0.63288 0.86423 0.9619 0.0
O161 O 0.71186 0.84557 0.96102 0.0
O162 O 0.71606 0.82159 1.00139 0.0
H163 H 0.67231 0.80818 0.06339 0.0
H164 H 0.64838 0.81583 0.0734 0.0
C165 C 0.65769 0.80897 0.05187 0.0
H166 H 0.65246 0.79436 0.04695 0.0
H167 H 0.71367 0.79354 0.06226 0.0
O168 O 0.68219 0.86154 0.90084 0.0
C169 C 0.72102 0.83767 0.98808 0.0
Co170 Co 0.41639 0.43734 0.67758 0.0
Co171 Co 0.45035 0.44354 0.73421 0.0
C172 C 0.45397 0.44947 0.64833 0.0
O173 O 0.43689 0.44452 0.64199 0.0
O174 O 0.4608 0.4494 0.68214 0.0
C175 C 0.39225 0.42414 0.61504 0.0
O176 O 0.4077 0.42352 0.59411 0.0
C177 C 0.48539 0.43022 0.77031 0.0
C178 C 0.48658 0.44765 0.82274 0.0
C179 C 0.49565 0.43286 0.80399 0.0
N180 N 0.47084 0.44254 0.76993 0.0
N181 N 0.47176 0.45307 0.80113 0.0
C182 C 0.48928 0.41665 0.73833 0.0
H183 H 0.483 0.42195 0.7113 0.0
H184 H 0.48263 0.40277 0.74481 0.0
H185 H 0.50477 0.41457 0.73461 0.0
C186 C 0.41389 0.40128 0.71937 0.0
N187 N 0.42328 0.41733 0.71075 0.0
N188 N 0.43651 0.42032 0.73655 0.0
C189 C 0.43544 0.40655 0.76335 0.0
C190 C 0.42108 0.39398 0.75324 0.0
C191 C 0.3976 0.39366 0.69661 0.0
H192 H 0.40113 0.39411 0.66574 0.0
H193 H 0.39428 0.3788 0.7046 0.0
H194 H 0.38491 0.40262 0.70158 0.0
O195 O 0.40942 0.46003 0.70811 0.0
O196 O 0.43331 0.46471 0.74853 0.0
H197 H 0.43761 0.39929 0.82339 0.0
H198 H 0.45973 0.40103 0.79817 0.0
C199 C 0.44541 0.40733 0.80115 0.0
H200 H 0.4469 0.42223 0.81074 0.0
H201 H 0.46195 0.46358 0.80821 0.0
O202 O 0.39323 0.42988 0.64943 0.0
C203 C 0.41722 0.46946 0.73497 0.0
Co204 Co 0.81572 0.16611 0.4284 0.0
Co205 Co 0.81048 0.19994 0.48591 0.0
C206 C 0.80496 0.20502 0.40118 0.0
O207 O 0.80935 0.18779 0.39481 0.0
O208 O 0.80513 0.21177 0.43505 0.0
C209 C 0.83565 0.14527 0.37041 0.0
O210 O 0.84417 0.16156 0.36436 0.0
C211 C 0.8207 0.2357 0.5246 0.0
C212 C 0.8074 0.23167 0.58118 0.0
C213 C 0.819 0.24389 0.56073 0.0
N214 N 0.81088 0.21934 0.52427 0.0
N215 N 0.80266 0.21723 0.55793 0.0
C216 C 0.8331 0.24198 0.49229 0.0
H217 H 0.83573 0.23006 0.47222 0.0
H218 H 0.8468 0.2475 0.50329 0.0
H219 H 0.82588 0.25352 0.47642 0.0
C220 C 0.85086 0.16107 0.47367 0.0
N221 N 0.83549 0.17134 0.46373 0.0
N222 N 0.83369 0.18575 0.48741 0.0
C223 C 0.84813 0.18522 0.51287 0.0
C224 C 0.85949 0.16958 0.50496 0.0
C225 C 0.85538 0.14189 0.45763 0.0
H226 H 0.84212 0.1339 0.45223 0.0
H227 H 0.8631 0.14361 0.43023 0.0
H228 H 0.86435 0.13348 0.47738 0.0
O229 O 0.79267 0.15899 0.45664 0.0
O230 O 0.78884 0.18262 0.49806 0.0
H231 H 0.83804 0.19841 0.56415 0.0
H232 H 0.86358 0.19609 0.56201 0.0
C233 C 0.8506 0.19897 0.54513 0.0
H234 H 0.85185 0.21346 0.53341 0.0
H235 H 0.7945 0.20549 0.56559 0.0
O236 O 0.82278 0.14429 0.39575 0.0
C237 C 0.78348 0.16686 0.4837 0.0
Co238 Co 0.08797 0.56608 0.1786 0.0
Co239 Co 0.05369 0.56048 0.23478 0.0
C240 C 0.04973 0.5549 0.14929 0.0
O241 O 0.06696 0.5595 0.14342 0.0
O242 O 0.04273 0.55502 0.18297 0.0
C243 C 0.11152 0.57935 0.11512 0.0
O244 O 0.0959 0.58008 0.09473 0.0
C245 C 0.01773 0.57113 0.27217 0.0
C246 C 0.02075 0.55694 0.3281 0.0
C247 C 0.00913 0.56918 0.30781 0.0
N248 N 0.03378 0.5608 0.27197 0.0
N249 N 0.03528 0.55206 0.30522 0.0
C250 C 0.01216 0.58417 0.24038 0.0
H251 H 0.02433 0.58665 0.2209 0.0
H252 H 0.00699 0.59788 0.25198 0.0
H253 H 1.00051 0.57756 0.2237 0.0
C254 C 0.09168 0.60163 0.22237 0.0
N255 N 0.08185 0.5859 0.21307 0.0
N256 N 0.06768 0.58374 0.23711 0.0
C257 C 0.06811 0.59813 0.2627 0.0
C258 C 0.08331 0.60998 0.25416 0.0
C259 C 0.11035 0.60677 0.20478 0.0
H260 H 0.1201 0.59447 0.20681 0.0
H261 H 0.10822 0.61008 0.17408 0.0
H262 H 0.11713 0.61905 0.21904 0.0
O263 O 0.09476 0.54306 0.2074 0.0
O264 O 0.07089 0.53901 0.24802 0.0
H265 H 0.05517 0.58685 0.31319 0.0
H266 H 0.05833 0.61231 0.3143 0.0
C267 C 0.05484 0.6 0.2959 0.0
H268 H 0.04026 0.60208 0.28505 0.0
H269 H 0.04669 0.54347 0.31294 0.0
O270 O 0.11083 0.5735 0.14943 0.0
C271 C 0.08678 0.53379 0.23415 0.0
Co272 Co 0.81601 0.66592 0.57449 0.0
Co273 Co 0.81116 0.70071 0.51947 0.0
C274 C 0.80501 0.70386 0.60503 0.0
O275 O 0.80933 0.68655 0.61057 0.0
O276 O 0.80547 0.71103 0.57157 0.0
C277 C 0.83114 0.64278 0.63574 0.0
O278 O 0.83463 0.65896 0.65299 0.0
C279 C 0.82374 0.73678 0.48579 0.0
C280 C 0.80799 0.73716 0.43122 0.0
C281 C 0.82147 0.74702 0.45216 0.0
N282 N 0.81248 0.72139 0.48425 0.0
N283 N 0.80293 0.72185 0.45176 0.0
C284 C 0.83605 0.74161 0.51932 0.0
H285 H 0.82994 0.73574 0.54599 0.0
H286 H 0.85029 0.73524 0.5154 0.0
H287 H 0.83769 0.7572 0.52208 0.0
C288 C 0.85185 0.66223 0.5316 0.0
N289 N 0.83622 0.67218 0.54105 0.0
N290 N 0.83407 0.68629 0.51686 0.0
C291 C 0.84818 0.68551 0.49071 0.0
C292 C 0.86001 0.67034 0.49942 0.0
C293 C 0.85707 0.64361 0.54931 0.0
H294 H 0.84479 0.63383 0.54761 0.0
H295 H 0.86057 0.64587 0.57989 0.0
H296 H 0.86932 0.63684 0.53493 0.0
O297 O 0.79317 0.65971 0.54404 0.0
O298 O 0.78948 0.68419 0.50475 0.0
H299 H 0.83557 0.69815 0.44116 0.0
H300 H 0.86067 0.69338 0.43616 0.0
C301 C 0.84941 0.698 0.45619 0.0
H302 H 0.85276 0.71264 0.46529 0.0
H303 H 0.79331 0.71144 0.44315 0.0
O304 O 0.82292 0.64283 0.6034 0.0
C305 C 0.78411 0.66813 0.5175 0.0
Co306 Co 0.08898 0.06607 0.82728 0.0
Co307 Co 0.05487 0.06044 0.77058 0.0
C308 C 0.05101 0.05465 0.85623 0.0
O309 O 0.06819 0.05926 0.86243 0.0
O310 O 0.04414 0.05483 0.82247 0.0
C311 C 0.11131 0.08219 0.88842 0.0
O312 O 0.09482 0.08712 0.90277 0.0
C313 C 0.01984 0.07407 0.73469 0.0
C314 C 0.01827 0.05656 0.68241 0.0
C315 C 0.00935 0.07139 0.70133 0.0
N316 N 0.03437 0.06172 0.73478 0.0
N317 N 0.03324 0.05116 0.70365 0.0
C318 C 0.01611 0.08768 0.76669 0.0
H319 H 0.02254 0.08243 0.79361 0.0
H320 H 0.02269 0.10156 0.75998 0.0
H321 H 1.00064 0.08975 0.77072 0.0
C322 C 0.09231 0.10199 0.78466 0.0
N323 N 0.08261 0.08615 0.79369 0.0
N324 N 0.06918 0.0834 0.76819 0.0
C325 C 0.07037 0.0971 0.74129 0.0
C326 C 0.08503 0.10939 0.75095 0.0
C327 C 0.10884 0.10938 0.80702 0.0
H328 H 0.1048 0.11058 0.83752 0.0
H329 H 0.11338 0.12357 0.79697 0.0
H330 H 0.12087 0.09931 0.80464 0.0
O331 O 0.09567 0.04322 0.7969 0.0
O332 O 0.07159 0.0389 0.75672 0.0
H333 H 0.0678 0.1046 0.68141 0.0
H334 H 0.04585 0.10282 0.70723 0.0
C335 C 0.06013 0.0965 0.70375 0.0
H336 H 0.05855 0.08164 0.69399 0.0
H337 H 0.04295 0.04059 0.69644 0.0
O338 O 0.11183 0.07297 0.85719 0.0
C339 C 0.08763 0.03389 0.77018 0.0
Co340 Co 0.68926 0.33836 0.07499 0.0
Co341 Co 0.69389 0.30345 0.01984 0.0
C342 C 0.70029 0.29998 0.10474 0.0
O343 O 0.69617 0.31738 0.11003 0.0
O344 O 0.6996 0.29258 0.07143 0.0
C345 C 0.6733 0.3609 0.13651 0.0
O346 O 0.6691 0.34458 0.15244 0.0
C347 C 0.68301 0.26731 0.98318 0.0
C348 C 0.69568 0.2708 0.92586 0.0
C349 C 0.68418 0.2589 0.94721 0.0
N350 N 0.69305 0.28354 0.98261 0.0
N351 N 0.70091 0.2853 0.94851 0.0
C352 C 0.67083 0.26139 0.01609 0.0
H353 H 0.66849 0.27348 0.0359 0.0
H354 H 0.657 0.25591 0.0057 0.0
H355 H 0.67806 0.24988 0.032 0.0
C356 C 0.65349 0.34227 0.03219 0.0
N357 N 0.66909 0.33224 0.04149 0.0
N358 N 0.67072 0.31766 0.01822 0.0
C359 C 0.65601 0.31793 0.9934 0.0
C360 C 0.64459 0.33351 1.00148 0.0
C361 C 0.64902 0.36144 0.04837 0.0
H362 H 0.66198 0.37032 0.04822 0.0
H363 H 0.6442 0.35983 0.07837 0.0
H364 H 0.63788 0.3689 0.03188 0.0
O365 O 0.71184 0.34504 0.04476 0.0
O366 O 0.71552 0.32039 0.00582 0.0
H367 H 0.66593 0.30438 0.94235 0.0
H368 H 0.64042 0.30704 0.94446 0.0
C369 C 0.65336 0.30406 0.96139 0.0
H370 H 0.65194 0.28965 0.97338 0.0
H371 H 0.70908 0.2969 0.9401 0.0
O372 O 0.68223 0.36111 0.10497 0.0
C373 C 0.72087 0.33653 0.01829 0.0
Co374 Co 0.41558 0.93859 0.32495 0.0
Co375 Co 0.45033 0.94295 0.26944 0.0
C376 C 0.45408 0.94968 0.35424 0.0
O377 O 0.43667 0.94567 0.35976 0.0
O378 O 0.46138 0.94878 0.32088 0.0
C379 C 0.39297 0.92378 0.38765 0.0
O380 O 0.40925 0.92042 0.40462 0.0
C381 C 0.48632 0.93183 0.23254 0.0
C382 C 0.48286 0.94466 0.17538 0.0
C383 C 0.49472 0.93304 0.19659 0.0
N384 N 0.47014 0.94196 0.23209 0.0
N385 N 0.46839 0.9499 0.19808 0.0
C386 C 0.4922 0.91956 0.26534 0.0
H387 H 0.4801 0.91725 0.28512 0.0
H388 H 0.49761 0.90572 0.25484 0.0
H389 H 0.50374 0.92672 0.28134 0.0
C390 C 0.41158 0.90257 0.28294 0.0
N391 N 0.42162 0.91823 0.29181 0.0
N392 N 0.43605 0.91981 0.2682 0.0
C393 C 0.43563 0.90505 0.24348 0.0
C394 C 0.42013 0.89361 0.25205 0.0
C395 C 0.39258 0.89806 0.29979 0.0
H396 H 0.38346 0.91085 0.29874 0.0
H397 H 0.39442 0.89394 0.33017 0.0
H398 H 0.38527 0.88644 0.28438 0.0
O399 O 0.40882 0.961 0.29426 0.0
O400 O 0.43344 0.96455 0.25529 0.0
H401 H 0.4489 0.91505 0.19225 0.0
H402 H 0.44601 0.88956 0.19397 0.0
C403 C 0.44923 0.90241 0.21104 0.0
H404 H 0.46373 0.90081 0.22262 0.0
H405 H 0.45684 0.95818 0.18979 0.0
O406 O 0.39285 0.93176 0.3551 0.0
C407 C 0.41729 0.96992 0.26765 0.0
Co408 Co 0.18732 0.33796 0.42882 0.0
Co409 Co 0.19309 0.30386 0.4851 0.0
C410 C 0.19928 0.30027 0.39936 0.0
O411 O 0.19434 0.31734 0.39307 0.0
O412 O 0.19916 0.29348 0.43315 0.0
C413 C 0.17227 0.36092 0.36709 0.0
O414 O 0.16924 0.34474 0.34948 0.0
C415 C 0.18023 0.26806 0.51877 0.0
C416 C 0.19665 0.26686 0.57249 0.0
C417 C 0.18264 0.25753 0.55198 0.0
N418 N 0.19193 0.2831 0.52013 0.0
N419 N 0.20188 0.28216 0.55208 0.0
C420 C 0.16737 0.26379 0.48577 0.0
H421 H 0.17335 0.26962 0.45894 0.0
H422 H 0.15339 0.27057 0.49051 0.0
H423 H 0.16521 0.24827 0.48279 0.0
C424 C 0.15139 0.34114 0.47163 0.0
N425 N 0.16726 0.33148 0.46244 0.0
N426 N 0.16989 0.31779 0.48739 0.0
C427 C 0.15596 0.31863 0.51391 0.0
C428 C 0.14367 0.33333 0.50455 0.0
C429 C 0.14552 0.35928 0.45283 0.0
H430 H 0.15725 0.3697 0.45492 0.0
H431 H 0.14265 0.35657 0.42213 0.0
H432 H 0.13269 0.36551 0.46615 0.0
O433 O 0.21012 0.34464 0.45906 0.0
O434 O 0.21428 0.32091 0.50002 0.0
H435 H 0.16968 0.30661 0.56297 0.0
H436 H 0.14489 0.31211 0.57042 0.0
C437 C 0.15545 0.30684 0.54951 0.0
H438 H 0.15146 0.29214 0.54203 0.0
H439 H 0.21188 0.29225 0.56046 0.0
O440 O 0.18012 0.3609 0.39979 0.0
C441 C 0.21933 0.33687 0.48621 0.0
Co442 Co 0.91677 0.93909 0.17915 0.0
Co443 Co 0.95065 0.94436 0.23632 0.0
C444 C 0.9548 0.95004 0.15054 0.0
O445 O 0.93763 0.94553 0.14406 0.0
O446 O 0.96149 0.94987 0.18444 0.0
C447 C 0.89436 0.92323 0.118 0.0
O448 O 0.91081 0.91785 0.1041 0.0
C449 C 0.98495 0.92938 0.27231 0.0
C450 C 0.98879 0.94843 0.32187 0.0
C451 C 0.99627 0.93246 0.30428 0.0
N452 N 0.97129 0.94267 0.27156 0.0
N453 N 0.97374 0.95411 0.3011 0.0
C454 C 0.98738 0.91462 0.24191 0.0
H455 H 0.98091 0.91946 0.2147 0.0
H456 H 0.98012 0.90139 0.25067 0.0
H457 H 0.00264 0.91142 0.23749 0.0
C458 C 0.91286 0.90319 0.22163 0.0
N459 N 0.92278 0.91892 0.21281 0.0
N460 N 0.936 0.92162 0.23879 0.0
C461 C 0.93437 0.90807 0.26591 0.0
C462 C 0.91972 0.89586 0.25577 0.0
C463 C 0.89657 0.89581 0.19858 0.0
H464 H 0.9009 0.89467 0.16824 0.0
H465 H 0.89197 0.88159 0.20835 0.0
H466 H 0.88449 0.90584 0.2006 0.0
O467 O 0.91041 0.96208 0.20947 0.0
O468 O 0.93421 0.96606 0.25046 0.0
H469 H 0.93527 0.90194 0.32649 0.0
H470 H 0.95771 0.90118 0.30241 0.0
C471 C 0.94401 0.90882 0.30407 0.0
H472 H 0.94672 0.92371 0.31254 0.0
H473 H 0.96495 0.96559 0.30745 0.0
O474 O 0.89389 0.93257 0.14908 0.0
C475 C 0.91834 0.97129 0.23651 0.0
Co476 Co 0.31621 0.66489 0.92625 0.0
Co477 Co 0.31101 0.69839 0.98446 0.0
C478 C 0.30485 0.7032 0.89911 0.0
O479 O 0.30953 0.68612 0.89215 0.0
O480 O 0.30501 0.7097 0.93318 0.0
C481 C 0.33257 0.64312 0.86463 0.0
O482 O 0.3386 0.65961 0.85216 0.0
C483 C 0.32419 0.73338 0.02165 0.0
C484 C 0.30785 0.73326 0.0755 0.0
C485 C 0.3219 0.7431 0.0561 0.0
N486 N 0.31238 0.7184 0.02141 0.0
N487 N 0.3025 0.71854 0.05348 0.0
C488 C 0.33693 0.73825 0.98887 0.0
H489 H 0.33129 0.73223 0.96187 0.0
H490 H 0.35115 0.73201 0.99377 0.0
H491 H 0.3384 0.75385 0.98607 0.0
C492 C 0.35213 0.66063 0.96883 0.0
N493 N 0.33642 0.67061 0.9601 0.0
N494 N 0.3341 0.68416 0.98557 0.0
C495 C 0.34815 0.68294 0.01181 0.0
C496 C 0.36007 0.66805 1.0019 0.0
C497 C 0.3587 0.64348 0.94732 0.0
H498 H 0.36102 0.64735 0.91699 0.0
H499 H 0.37218 0.63779 0.95889 0.0
H500 H 0.34762 0.63234 0.94854 0.0
O501 O 0.29344 0.65799 0.95622 0.0
O502 O 0.28964 0.68134 0.99829 0.0
H503 H 0.33377 0.69431 0.0608 0.0
H504 H 0.35765 0.68653 0.07035 0.0
C505 C 0.34832 0.69348 0.04903 0.0
H506 H 0.35363 0.70806 0.04422 0.0
H507 H 0.29248 0.70828 0.06081 0.0
O508 O 0.32273 0.64243 0.89502 0.0
C509 C 0.28438 0.66558 0.9838 0.0
Co510 Co 0.58792 0.06558 0.6786 0.0
Co511 Co 0.55405 0.05967 0.73564 0.0
C512 C 0.54982 0.05463 0.64963 0.0
O513 O 0.56697 0.0593 0.64326 0.0
O514 O 0.54314 0.05454 0.68356 0.0
C515 C 0.61118 0.07982 0.61616 0.0
O516 O 0.59519 0.08185 0.59734 0.0
C517 C 0.51917 0.07297 0.77292 0.0
C518 C 0.51781 0.05465 0.82398 0.0
C519 C 0.50882 0.06977 0.80625 0.0
N520 N 0.53358 0.06047 0.77154 0.0
N521 N 0.53252 0.04939 0.80187 0.0
C522 C 0.51671 0.08859 0.74442 0.0
H523 H 0.52975 0.09037 0.72704 0.0
H524 H 0.51323 0.1021 0.75911 0.0
H525 H 0.50489 0.08494 0.72482 0.0
C526 C 0.59194 0.10082 0.72303 0.0
N527 N 0.5819 0.08528 0.71338 0.0
N528 N 0.56839 0.08262 0.73874 0.0
C529 C 0.56975 0.09623 0.76591 0.0
C530 C 0.58467 0.10825 0.75668 0.0
C531 C 0.60918 0.10754 0.70208 0.0
H532 H 0.6059 0.10871 0.67118 0.0
H533 H 0.61401 0.12157 0.71265 0.0
H534 H 0.62078 0.09707 0.70573 0.0
O535 O 0.59447 0.04235 0.70741 0.0
O536 O 0.57092 0.03802 0.74877 0.0
H537 H 0.55747 0.08114 0.81312 0.0
H538 H 0.56675 0.10423 0.82542 0.0
C539 C 0.55923 0.09593 0.8031 0.0
H540 H 0.54502 0.10228 0.79895 0.0
H541 H 0.54222 0.03867 0.80815 0.0
O542 O 0.61091 0.07287 0.64965 0.0
C543 C 0.58672 0.03292 0.73427 0.0
H544 H 0.48005 0.08941 0.76954 0.0
H545 H 0.45484 0.10817 0.79909 0.0
H546 H 0.4756 0.09311 0.91089 0.0
H547 H 0.50121 0.07481 0.88173 0.0
H548 H 0.43489 0.08811 0.8978 0.0
H549 H 0.46154 0.15984 0.85889 0.0
H550 H 0.46022 0.1425 0.82114 0.0
H551 H 0.47671 0.1392 0.85961 0.0
C552 C 0.47963 0.09045 0.80035 0.0
C553 C 0.49304 0.08098 0.82318 0.0
C554 C 0.46506 0.10107 0.81721 0.0
C555 C 0.46354 0.10224 0.85715 0.0
C556 C 0.47661 0.09247 0.87999 0.0
H557 H 0.39823 0.16999 0.01559 0.0
H558 H 0.42318 0.15381 0.97874 0.0
C559 C 0.49121 0.08198 0.86322 0.0
C560 C 0.4481 0.11326 0.87541 0.0
H561 H 0.43231 0.15836 0.89174 0.0
C562 C 0.43425 0.10346 0.89633 0.0
C563 C 0.44744 0.13328 0.87365 0.0
C564 C 0.4623 0.14444 0.85236 0.0
C565 C 0.4197 0.11318 0.91551 0.0
C566 C 0.41901 0.13317 0.91367 0.0
C567 C 0.43286 0.14301 0.89283 0.0
C568 C 0.40423 0.14405 0.93423 0.0
C569 C 0.40532 0.10208 0.93824 0.0
C570 C 0.38545 0.1441 0.921 0.0
C571 C 0.3713 0.15342 0.94179 0.0
C572 C 0.37576 0.16281 0.97604 0.0
C573 C 0.39458 0.16299 0.98899 0.0
C574 C 0.40877 0.15378 0.96806 0.0
H575 H 0.40923 0.08688 0.94085 0.0
H576 H 0.40381 0.1082 0.96736 0.0
H577 H 0.39129 0.10302 0.92397 0.0
H578 H 0.38171 0.13665 0.89496 0.0
H579 H 0.35679 0.15291 0.93167 0.0
H580 H 0.59684 0.64434 0.27681 0.0
H581 H 0.61233 0.66941 0.23976 0.0
H582 H 0.60655 0.63573 0.13731 0.0
H583 H 0.59199 0.61028 0.17474 0.0
H584 H 0.64111 0.64977 0.14238 0.0
H585 H 0.59013 0.70792 0.1686 0.0
H586 H 0.599 0.69811 0.21236 0.0
H587 H 0.58497 0.68362 0.18073 0.0
C588 C 0.59875 0.64243 0.24631 0.0
C589 C 0.59295 0.62555 0.22848 0.0
C590 C 0.60744 0.6568 0.22509 0.0
C591 C 0.61024 0.65467 0.18553 0.0
C592 C 0.60437 0.6378 0.16769 0.0
H593 H 0.64642 0.74965 0.04365 0.0
H594 H 0.62885 0.72327 0.07109 0.0
C595 C 0.59588 0.62335 0.18899 0.0
C596 C 0.62023 0.66954 0.16316 0.0
H597 H 0.62035 0.71693 0.14329 0.0
C598 C 0.63646 0.66442 0.1423 0.0
C599 C 0.61402 0.68863 0.16248 0.0
C600 C 0.59596 0.69487 0.18191 0.0
C601 C 0.64692 0.67791 0.12164 0.0
C602 C 0.64132 0.69717 0.12275 0.0
C603 C 0.6248 0.70221 0.14276 0.0
C604 C 0.65249 0.71239 0.10385 0.0
C605 C 0.6637 0.67127 0.09845 0.0
C606 C 0.67167 0.71515 0.11304 0.0
C607 C 0.68194 0.72997 0.09648 0.0
C608 C 0.67322 0.74249 0.0706 0.0
C609 C 0.65393 0.73985 0.06187 0.0
C610 C 0.64372 0.7249 0.07815 0.0
H611 H 0.66235 0.65608 0.09051 0.0
H612 H 0.66534 0.67972 0.07188 0.0
H613 H 0.67679 0.67284 0.11577 0.0
H614 H 0.67863 0.70609 0.13369 0.0
H615 H 0.69668 0.73177 0.10435 0.0
H616 H 0.11441 0.81693 0.47003 0.0
H617 H 0.08939 0.83137 0.43062 0.0
H618 H 0.11627 0.88597 0.44311 0.0
H619 H 0.14148 0.87151 0.48113 0.0
H620 H 0.06413 0.85938 0.44987 0.0
H621 H 0.10855 0.88323 0.3287 0.0
H622 H 0.11696 0.86659 0.364 0.0
H623 H 0.11725 0.89165 0.37382 0.0
C624 C 0.11496 0.83198 0.46402 0.0
C625 C 0.12971 0.84316 0.47884 0.0
C626 C 0.1007 0.84021 0.44163 0.0
C627 C 0.1011 0.85971 0.43343 0.0
C628 C 0.11585 0.87084 0.44834 0.0
H629 H 0.02806 0.94516 0.33992 0.0
H630 H 0.05335 0.92628 0.36919 0.0
C631 C 0.1301 0.86262 0.47052 0.0
C632 C 0.08575 0.86866 0.41068 0.0
H633 H 0.07763 0.89721 0.33349 0.0
C634 C 0.06703 0.86743 0.42413 0.0
C635 C 0.08955 0.87915 0.37702 0.0
C636 C 0.10914 0.88009 0.3598 0.0
C637 C 0.05216 0.87703 0.40573 0.0
C638 C 0.05609 0.88799 0.37284 0.0
C639 C 0.0747 0.88887 0.35884 0.0
C640 C 0.04118 0.89923 0.35347 0.0
C641 C 0.03245 0.87594 0.42235 0.0
C642 C 0.02612 0.89026 0.33448 0.0
C643 C 0.0117 0.90101 0.31761 0.0
C644 C 0.01216 0.92093 0.31928 0.0
C645 C 0.02739 0.92985 0.33799 0.0
C646 C 0.04184 0.9191 0.35465 0.0
H647 H 0.03241 0.86971 0.45151 0.0
H648 H 0.02593 0.89026 0.42368 0.0
H649 H 0.02344 0.86696 0.40366 0.0
H650 H 0.0254 0.87493 0.33315 0.0
H651 H 0.9999 0.89367 0.30453 0.0
H652 H 0.91023 0.35898 0.77512 0.0
H653 H 0.89395 0.33391 0.73907 0.0
H654 H 0.89275 0.36984 0.6394 0.0
H655 H 0.90893 0.39494 0.67549 0.0
H656 H 0.85778 0.33777 0.7044 0.0
H657 H 0.91305 0.31888 0.59761 0.0
H658 H 0.91842 0.33165 0.6411 0.0
H659 H 0.90759 0.3437 0.60153 0.0
C660 C 0.90672 0.36135 0.74535 0.0
C661 C 0.91106 0.37871 0.72784 0.0
C662 C 0.89741 0.34709 0.72483 0.0
C663 C 0.89237 0.34992 0.68641 0.0
C664 C 0.89688 0.3672 0.66875 0.0
H665 H 0.82939 0.27762 0.52637 0.0
H666 H 0.84689 0.30399 0.5555 0.0
C667 C 0.90614 0.3815 0.68932 0.0
C668 C 0.88136 0.33521 0.66569 0.0
H669 H 0.88301 0.30439 0.59028 0.0
C670 C 0.8633 0.33045 0.67948 0.0
C671 C 0.88852 0.32584 0.63293 0.0
C672 C 0.90801 0.33012 0.61746 0.0
C673 C 0.8522 0.31654 0.66147 0.0
C674 C 0.85952 0.30683 0.62925 0.0
C675 C 0.87744 0.31184 0.61499 0.0
C676 C 0.84913 0.29085 0.61119 0.0
C677 C 0.83263 0.31252 0.67692 0.0
C678 C 0.84482 0.27463 0.63265 0.0
C679 C 0.83496 0.25956 0.61607 0.0
C680 C 0.82941 0.26021 0.57746 0.0
C681 C 0.83383 0.27643 0.55587 0.0
C682 C 0.84371 0.29158 0.57257 0.0
H683 H 0.82705 0.32469 0.69371 0.0
H684 H 0.82251 0.30929 0.65346 0.0
H685 H 0.83329 0.30006 0.6962 0.0
H686 H 0.84919 0.27357 0.66226 0.0
H687 H 0.83192 0.24723 0.63345 0.0
H688 H 0.64696 0.86962 0.03648 0.0
H689 H 0.62259 0.88547 0.07478 0.0
H690 H 0.58727 0.83564 0.06693 0.0
H691 H 0.61202 0.81958 0.02945 0.0
H692 H 0.58802 0.89473 0.05337 0.0
H693 H 0.5829 0.84739 0.17915 0.0
H694 H 0.60204 0.84579 0.14506 0.0
H695 H 0.57945 0.83505 0.1348 0.0
C696 C 0.63403 0.86204 0.04329 0.0
C697 C 0.6312 0.84349 0.02996 0.0
C698 C 0.62015 0.87107 0.06518 0.0
C699 C 0.60314 0.86172 0.07415 0.0
C700 C 0.60042 0.84302 0.0612 0.0
H701 H 0.49763 0.91813 0.12542 0.0
H702 H 0.52417 0.90079 0.09754 0.0
C703 C 0.61445 0.8339 0.03957 0.0
C704 C 0.58785 0.8721 0.09469 0.0
H705 H 0.55807 0.87022 0.17172 0.0
C706 C 0.58159 0.8894 0.07941 0.0
C707 C 0.5796 0.86533 0.12898 0.0
C708 C 0.58647 0.84747 0.1482 0.0
C709 C 0.56711 0.89992 0.09691 0.0
C710 C 0.55821 0.8927 0.13012 0.0
C711 C 0.56475 0.87563 0.14602 0.0
C712 C 0.54182 0.9025 0.14805 0.0
C713 C 0.56164 0.91878 0.07983 0.0
C714 C 0.54262 0.9087 0.18623 0.0
C715 C 0.52731 0.91852 0.20244 0.0
C716 C 0.51094 0.92221 0.18075 0.0
C717 C 0.51012 0.9157 0.14276 0.0
C718 C 0.52531 0.90582 0.12673 0.0
H719 H 0.57333 0.92483 0.06239 0.0
H720 H 0.54922 0.9168 0.06077 0.0
H721 H 0.55778 0.92918 0.1024 0.0
H722 H 0.55523 0.90628 0.20322 0.0
H723 H 0.52852 0.92362 0.23153 0.0
H724 H 0.30979 0.27768 0.91434 0.0
H725 H 0.3288 0.30298 0.88536 0.0
H726 H 0.37978 0.27711 0.92884 0.0
H727 H 0.36095 0.25166 0.95729 0.0
H728 H 0.35701 0.32859 0.92288 0.0
H729 H 0.38712 0.28182 0.80972 0.0
H730 H 0.36592 0.27571 0.8359 0.0
H731 H 0.3887 0.27363 0.85833 0.0
C732 C 0.32504 0.27751 0.91803 0.0
C733 C 0.33383 0.26289 0.93873 0.0
C734 C 0.33585 0.29195 0.90153 0.0
C735 C 0.35567 0.29184 0.90487 0.0
C736 C 0.3645 0.27741 0.9259 0.0
H737 H 0.43878 0.36423 0.78829 0.0
H738 H 0.4242 0.33965 0.82857 0.0
C739 C 0.35367 0.26302 0.94263 0.0
C740 C 0.36707 0.30658 0.88539 0.0
H741 H 0.39681 0.31374 0.80974 0.0
C742 C 0.36579 0.32537 0.89825 0.0
C743 C 0.37861 0.30226 0.85349 0.0
C744 C 0.38017 0.2823 0.83822 0.0
C745 C 0.37566 0.34004 0.87982 0.0
C746 C 0.3867 0.33584 0.84705 0.0
C747 C 0.38834 0.31694 0.83481 0.0
C748 C 0.39575 0.35094 0.82381 0.0
C749 C 0.37427 0.35986 0.89584 0.0
C750 C 0.3846 0.36529 0.80751 0.0
C751 C 0.3929 0.37929 0.78486 0.0
C752 C 0.41246 0.37905 0.77743 0.0
C753 C 0.42366 0.36468 0.79361 0.0
C754 C 0.41534 0.35067 0.8165 0.0
H755 H 0.37076 0.35968 0.92681 0.0
H756 H 0.38771 0.3678 0.89181 0.0
H757 H 0.36277 0.3676 0.88084 0.0
H758 H 0.36942 0.36559 0.81203 0.0
H759 H 0.38398 0.39039 0.77327 0.0
H760 H 1.00055 0.1093 0.71159 0.0
H761 H 0.97417 0.12681 0.68394 0.0
H762 H 0.95607 0.07648 0.62408 0.0
H763 H 0.98172 0.05852 0.65372 0.0
H764 H 0.96719 0.13471 0.61199 0.0
H765 H 0.90654 0.09349 0.66767 0.0
H766 H 0.93031 0.09048 0.68571 0.0
H767 H 0.92298 0.0787 0.64241 0.0
C768 C 0.99056 0.10167 0.69394 0.0
C769 C 0.99292 0.08225 0.68612 0.0
C770 C 0.9756 0.11185 0.67752 0.0
C771 C 0.96281 0.1029 0.65257 0.0
C772 C 0.96533 0.0836 0.64418 0.0
H773 H 0.894 0.15784 0.47952 0.0
H774 H 0.91921 0.1425 0.51642 0.0
C775 C 0.98015 0.07337 0.66091 0.0
C776 C 0.94751 0.11398 0.63364 0.0
H777 H 0.89998 0.11417 0.61505 0.0
C778 C 0.95246 0.13032 0.61299 0.0
C779 C 0.92822 0.10847 0.63538 0.0
C780 C 0.92166 0.09195 0.65934 0.0
C781 C 0.93878 0.14099 0.59325 0.0
C782 C 0.91967 0.13483 0.59316 0.0
C783 C 0.91464 0.11879 0.61465 0.0
C784 C 0.90466 0.14468 0.57081 0.0
C785 C 0.94497 0.15889 0.57323 0.0
C786 C 0.88781 0.15052 0.58874 0.0
C787 C 0.87325 0.15889 0.5675 0.0
C788 C 0.87533 0.16176 0.52798 0.0
C789 C 0.89217 0.15598 0.51005 0.0
C790 C 0.90664 0.14738 0.53119 0.0
H791 H 0.95806 0.16482 0.58627 0.0
H792 H 0.94814 0.1556 0.54286 0.0
H793 H 0.93373 0.16989 0.57416 0.0
H794 H 0.88584 0.14842 0.61916 0.0
H795 H 0.8602 0.16274 0.58185 0.0
H796 H 0.09254 0.60964 0.32992 0.0
H797 H 0.10699 0.6352 0.36739 0.0
H798 H 0.10798 0.67069 0.26697 0.0
H799 H 0.09244 0.64552 0.23015 0.0
H800 H 0.14023 0.65062 0.36048 0.0
H801 H 0.08713 0.7075 0.34229 0.0
H802 H 0.08244 0.68328 0.32866 0.0
H803 H 0.09529 0.69881 0.29701 0.0
C804 C 0.09535 0.62312 0.31621 0.0
C805 C 0.09109 0.62578 0.27736 0.0
C806 C 0.10378 0.63764 0.33751 0.0
C807 C 0.1083 0.65506 0.32028 0.0
C808 C 0.10413 0.65765 0.28132 0.0
H809 H 0.19492 0.73288 0.39934 0.0
H810 H 0.17675 0.70735 0.36975 0.0
C811 C 0.09543 0.64322 0.26018 0.0
C812 C 0.11839 0.67001 0.34246 0.0
H813 H 0.1178 0.7172 0.36451 0.0
C814 C 0.1352 0.66514 0.36166 0.0
C815 C 0.11173 0.68892 0.34466 0.0
C816 C 0.09305 0.69489 0.3274 0.0
C817 C 0.14574 0.67867 0.38211 0.0
C818 C 0.13968 0.69781 0.38233 0.0
C819 C 0.12262 0.7026 0.36398 0.0
C820 C 0.15089 0.71313 0.40101 0.0
C821 C 0.16307 0.67218 0.40374 0.0
C822 C 0.1423 0.72542 0.42746 0.0
C823 C 0.15256 0.74036 0.44381 0.0
C824 C 0.17176 0.74319 0.43449 0.0
C825 C 0.18026 0.73094 0.40775 0.0
C826 C 0.16993 0.71618 0.39104 0.0
H827 H 0.16208 0.65692 0.41138 0.0
H828 H 0.17577 0.67399 0.38539 0.0
H829 H 0.16513 0.6805 0.43039 0.0
H830 H 0.12753 0.7236 0.43516 0.0
H831 H 0.14514 0.74995 0.46263 0.0
H832 H 0.89622 0.66317 0.5215 0.0
H833 H 0.92103 0.64679 0.48487 0.0
H834 H 0.8831 0.64211 0.38859 0.0
H835 H 0.8582 0.65825 0.42537 0.0
H836 H 0.91612 0.60893 0.45208 0.0
H837 H 0.9338 0.66349 0.34294 0.0
H838 H 0.92244 0.66936 0.38774 0.0
H839 H 0.90906 0.65837 0.35012 0.0
C840 C 0.89333 0.65886 0.49232 0.0
C841 C 0.87546 0.66216 0.47598 0.0
C842 C 0.90745 0.64951 0.47149 0.0
C843 C 0.90396 0.64345 0.43388 0.0
C844 C 0.88619 0.64699 0.4173 0.0
H845 H 0.97584 0.58054 0.27301 0.0
H846 H 0.94962 0.59824 0.30221 0.0
C847 C 0.87202 0.65623 0.43824 0.0
C848 C 0.91851 0.63235 0.41302 0.0
H849 H 0.94892 0.63376 0.33706 0.0
C850 C 0.92331 0.61434 0.42694 0.0
C851 C 0.92765 0.63937 0.37997 0.0
C852 C 0.92314 0.65876 0.36427 0.0
C853 C 0.93709 0.60316 0.40878 0.0
C854 C 0.94668 0.61038 0.37635 0.0
C855 C 0.9416 0.62826 0.36195 0.0
C856 C 0.96261 0.59994 0.35819 0.0
C857 C 0.94106 0.58359 0.42426 0.0
C858 C 0.97872 0.5953 0.37974 0.0
C859 C 0.99366 0.58526 0.36316 0.0
C860 C 0.99301 0.57991 0.32444 0.0
C861 C 0.97697 0.58477 0.30266 0.0
C862 C 0.96192 0.59477 0.31939 0.0
H863 H 0.92881 0.57802 0.44077 0.0
H864 H 0.9444 0.57346 0.40089 0.0
H865 H 0.95341 0.58427 0.44387 0.0
H866 H 0.97979 0.59952 0.40946 0.0
H867 H 0.00589 0.58191 0.38065 0.0
H868 H 0.06745 0.13955 0.71724 0.0
H869 H 0.08197 0.16413 0.67691 0.0
H870 H 0.13651 0.13727 0.69052 0.0
H871 H 0.12195 0.11243 0.72923 0.0
H872 H 0.10943 0.18952 0.69508 0.0
H873 H 0.1347 0.14417 0.57641 0.0
H874 H 0.11804 0.13584 0.61177 0.0
H875 H 0.14308 0.13598 0.62188 0.0
C876 C 0.0825 0.13888 0.71122 0.0
C877 C 0.09363 0.12426 0.72659 0.0
C878 C 0.09078 0.15289 0.68831 0.0
C879 C 0.11029 0.15239 0.68018 0.0
C880 C 0.12138 0.13775 0.69562 0.0
H881 H 0.19562 0.22723 0.59213 0.0
H882 H 0.17694 0.20157 0.62077 0.0
C883 C 0.1131 0.12373 0.71825 0.0
C884 C 0.11933 0.16758 0.65713 0.0
H885 H 0.14866 0.17518 0.58085 0.0
C886 C 0.11778 0.18641 0.66979 0.0
C887 C 0.1302 0.16353 0.62404 0.0
C888 C 0.13145 0.1438 0.6075 0.0
C889 C 0.1274 0.20118 0.65116 0.0
C890 C 0.13879 0.197 0.61898 0.0
C891 C 0.14 0.17828 0.60572 0.0
C892 C 0.15004 0.21185 0.59957 0.0
C893 C 0.12587 0.22109 0.66666 0.0
C894 C 0.14108 0.2259 0.57774 0.0
C895 C 0.15172 0.24048 0.56117 0.0
C896 C 0.17149 0.24119 0.5661 0.0
C897 C 0.18042 0.22694 0.58762 0.0
C898 C 0.1698 0.2123 0.60393 0.0
H899 H 0.11862 0.22155 0.69485 0.0
H900 H 0.14018 0.2275 0.66969 0.0
H901 H 0.1177 0.22995 0.64628 0.0
H902 H 0.12583 0.22578 0.57412 0.0
H903 H 0.14433 0.25155 0.54586 0.0
H904 H 0.5049 0.39504 0.79267 0.0
H905 H 0.53066 0.37736 0.82191 0.0
H906 H 0.5474 0.42716 0.88514 0.0
H907 H 0.52247 0.44539 0.85372 0.0
H908 H 0.57763 0.40927 0.85976 0.0
H909 H 0.53005 0.35685 0.92816 0.0
H910 H 0.52772 0.35715 0.87711 0.0
H911 H 0.5212 0.37776 0.90456 0.0
C912 C 0.51439 0.40251 0.81164 0.0
C913 C 0.51181 0.42187 0.81997 0.0
C914 C 0.5289 0.39218 0.8292 0.0
C915 C 0.54079 0.40079 0.85634 0.0
C916 C 0.5384 0.42014 0.86439 0.0
H917 H 0.60981 0.34436 0.02696 0.0
H918 H 0.58477 0.36039 0.99064 0.0
C919 C 0.52408 0.43055 0.84645 0.0
C920 C 0.5557 0.38974 0.87652 0.0
H921 H 0.56309 0.35062 0.9321 0.0
C922 C 0.57444 0.39645 0.87562 0.0
C923 C 0.5515 0.37318 0.8978 0.0
C924 C 0.5315 0.36591 0.90236 0.0
C925 C 0.58907 0.38711 0.89525 0.0
C926 C 0.585 0.37015 0.91531 0.0
C927 C 0.56626 0.36346 0.91632 0.0
C928 C 0.59983 0.35956 0.93669 0.0
C929 C 0.60858 0.39591 0.89531 0.0
C930 C 0.61644 0.35335 0.91835 0.0
C931 C 0.63084 0.34451 0.93923 0.0
C932 C 0.6287 0.34127 0.97861 0.0
C933 C 0.61177 0.34674 0.99661 0.0
C934 C 0.59748 0.35584 0.97587 0.0
H935 H 0.60801 0.4113 0.88868 0.0
H936 H 0.61567 0.39407 0.9234 0.0
H937 H 0.61739 0.38898 0.87304 0.0
H938 H 0.61839 0.3556 0.88799 0.0
H939 H 0.64385 0.34063 0.92475 0.0
H940 H 0.41205 0.89292 0.17571 0.0
H941 H 0.39704 0.8673 0.13935 0.0
H942 H 0.39397 0.83341 0.24181 0.0
H943 H 0.40996 0.85867 0.27773 0.0
H944 H 0.40377 0.81209 0.18222 0.0
H945 H 0.34148 0.85566 0.14244 0.0
H946 H 0.36341 0.86565 0.12616 0.0
H947 H 0.35889 0.86357 0.17666 0.0
C948 C 0.40851 0.87984 0.19022 0.0
C949 C 0.41224 0.87768 0.22943 0.0
C950 C 0.39966 0.86533 0.16959 0.0
C951 C 0.39395 0.84858 0.188 0.0
C952 C 0.39813 0.84624 0.227 0.0
H953 H 0.30929 0.76909 0.10757 0.0
H954 H 0.3272 0.79438 0.13875 0.0
C955 C 0.40721 0.86065 0.24751 0.0
C956 C 0.38347 0.83357 0.16684 0.0
H957 H 0.34388 0.82543 0.11295 0.0
C958 C 0.39066 0.815 0.16711 0.0
C959 C 0.36618 0.83728 0.14765 0.0
C960 C 0.35692 0.85657 0.14848 0.0
C961 C 0.38111 0.80009 0.14864 0.0
C962 C 0.36419 0.80395 0.12825 0.0
C963 C 0.35697 0.8225 0.12813 0.0
C964 C 0.3533 0.78884 0.10819 0.0
C965 C 0.38898 0.78027 0.15226 0.0
C966 C 0.36187 0.77744 0.08014 0.0
C967 C 0.35173 0.76275 0.06265 0.0
C968 C 0.3326 0.75948 0.07204 0.0
C969 C 0.32396 0.77124 0.09948 0.0
C970 C 0.33417 0.78576 0.11729 0.0
H971 H 0.39846 0.77892 0.17749 0.0
H972 H 0.37744 0.76964 0.15485 0.0
H973 H 0.39745 0.77687 0.12642 0.0
H974 H 0.37651 0.77974 0.07208 0.0
H975 H 0.35918 0.75366 0.04287 0.0
H976 H 0.14604 0.3474 0.57703 0.0
H977 H 0.12081 0.36255 0.61448 0.0
H978 H 0.08184 0.35428 0.52079 0.0
H979 H 0.10691 0.33853 0.48396 0.0
H980 H 0.10158 0.39454 0.59817 0.0
H981 H 0.05077 0.33499 0.60939 0.0
H982 H 0.07496 0.33169 0.59398 0.0
H983 H 0.05727 0.33996 0.56085 0.0
C984 C 0.13194 0.34843 0.56492 0.0
C985 C 0.12823 0.34149 0.52802 0.0
C986 C 0.11759 0.3572 0.58616 0.0
C987 C 0.09931 0.35925 0.57078 0.0
C988 C 0.09566 0.3524 0.53373 0.0
H989 H 0.99721 0.41985 0.62343 0.0
H990 H 0.02337 0.40168 0.59589 0.0
C991 C 0.10998 0.34353 0.51261 0.0
C992 C 0.08436 0.36947 0.59257 0.0
H993 H 0.03876 0.36583 0.62468 0.0
C994 C 0.08793 0.38818 0.60439 0.0
C995 C 0.06656 0.36116 0.60079 0.0
C996 C 0.0622 0.34078 0.59094 0.0
C997 C 0.07396 0.39901 0.62295 0.0
C998 C 0.056 0.39086 0.63012 0.0
C999 C 0.05254 0.37205 0.61901 0.0
C1000 C 0.04031 0.40191 0.64742 0.0
C1001 C 0.07824 0.41929 0.63361 0.0
C1002 C 0.04116 0.40803 0.68562 0.0
C1003 C 0.02617 0.41843 0.70152 0.0
C1004 C 0.01009 0.42281 0.67946 0.0
C1005 C 0.00941 0.41674 0.64117 0.0
C1006 C 0.0243 0.40628 0.62541 0.0
H1007 H 0.09161 0.42442 0.62041 0.0
H1008 H 0.06646 0.42874 0.62467 0.0
H1009 H 0.07967 0.42041 0.66514 0.0
H1010 H 0.05338 0.40472 0.70313 0.0
H1011 H 0.02733 0.42324 0.73081 0.0
H1012 H 0.93697 0.86585 0.29075 0.0
H1013 H 0.92176 0.84063 0.32858 0.0
H1014 H 0.86744 0.86747 0.31258 0.0
H1015 H 0.88255 0.89279 0.27571 0.0
H1016 H 0.89265 0.847 0.39869 0.0
H1017 H 0.86625 0.80909 0.2694 0.0
H1018 H 0.88716 0.82389 0.26844 0.0
H1019 H 0.86411 0.83454 0.27048 0.0
C1020 C 0.92182 0.86636 0.2956 0.0
C1021 C 0.91085 0.88099 0.27971 0.0
C1022 C 0.91318 0.85202 0.31713 0.0
C1023 C 0.89349 0.85216 0.32293 0.0
C1024 C 0.88263 0.86705 0.30802 0.0
H1025 H 0.8081 0.77589 0.40852 0.0
H1026 H 0.82612 0.80188 0.37976 0.0
C1027 C 0.89124 0.8814 0.28677 0.0
C1028 C 0.88401 0.83654 0.34358 0.0
H1029 H 0.85553 0.7981 0.32924 0.0
C1030 C 0.88465 0.83618 0.38365 0.0
C1031 C 0.87351 0.82262 0.32371 0.0
C1032 C 0.8727 0.82235 0.2806 0.0
C1033 C 0.87461 0.82242 0.40452 0.0
C1034 C 0.86399 0.80851 0.38462 0.0
C1035 C 0.86361 0.8088 0.34447 0.0
C1036 C 0.85296 0.7936 0.40467 0.0
C1037 C 0.87496 0.82326 0.44763 0.0
C1038 C 0.86204 0.78033 0.42827 0.0
C1039 C 0.85174 0.76552 0.44488 0.0
C1040 C 0.83217 0.7637 0.43811 0.0
C1041 C 0.82312 0.77705 0.41458 0.0
C1042 C 0.8334 0.79188 0.39811 0.0
H1043 H 0.87954 0.8374 0.45819 0.0
H1044 H 0.86077 0.82001 0.45972 0.0
H1045 H 0.88513 0.81256 0.45855 0.0
H1046 H 0.87721 0.78103 0.43282 0.0
H1047 H 0.85932 0.75505 0.4615 0.0
H1048 H 0.48515 0.55885 0.14317 0.0
H1049 H 0.45942 0.57687 0.11328 0.0
H1050 H 0.47089 0.62406 0.18815 0.0
H1051 H 0.49701 0.6065 0.21722 0.0
H1052 H 0.42921 0.61099 0.17641 0.0
H1053 H 0.47096 0.62638 0.04501 0.0
H1054 H 0.47113 0.60229 0.06197 0.0
H1055 H 0.48201 0.62056 0.09013 0.0
C1056 C 0.48207 0.57299 0.15357 0.0
C1057 C 0.49287 0.581 0.1833 0.0
C1058 C 0.4674 0.58325 0.13644 0.0
C1059 C 0.46329 0.60175 0.1486 0.0
C1060 C 0.47376 0.60971 0.17867 0.0
H1061 H 0.39281 0.68435 0.02718 0.0
H1062 H 0.41801 0.6694 0.06549 0.0
C1063 C 0.48854 0.59951 0.19565 0.0
C1064 C 0.4485 0.61298 0.12893 0.0
H1065 H 0.43863 0.63526 0.04461 0.0
C1066 C 0.43125 0.61638 0.14768 0.0
C1067 C 0.45136 0.62017 0.09167 0.0
C1068 C 0.46989 0.61734 0.07091 0.0
C1069 C 0.41653 0.62636 0.12957 0.0
C1070 C 0.41917 0.63301 0.09178 0.0
C1071 C 0.43663 0.63008 0.07352 0.0
C1072 C 0.40372 0.64235 0.07011 0.0
C1073 C 0.39826 0.62973 0.15094 0.0
C1074 C 0.38745 0.63206 0.05997 0.0
C1075 C 0.37322 0.64051 0.03805 0.0
C1076 C 0.37505 0.65936 0.02575 0.0
C1077 C 0.39119 0.66977 0.03629 0.0
C1078 C 0.40552 0.66126 0.05807 0.0
H1079 H 0.4001 0.6279 0.18227 0.0
H1080 H 0.39275 0.64421 0.14532 0.0
H1081 H 0.38747 0.61939 0.14102 0.0
H1082 H 0.38589 0.6174 0.06856 0.0
H1083 H 0.36078 0.63229 0.03056 0.0
H1084 H 0.62018 0.10705 0.78621 0.0
H1085 H 0.63622 0.13131 0.82448 0.0
H1086 H 0.58593 0.16612 0.82037 0.0
H1087 H 0.56968 0.14145 0.78296 0.0
H1088 H 0.64489 0.16602 0.80363 0.0
H1089 H 0.59905 0.17012 0.9319 0.0
H1090 H 0.59716 0.15115 0.89741 0.0
H1091 H 0.58613 0.17371 0.88832 0.0
C1092 C 0.61254 0.11983 0.79387 0.0
C1093 C 0.5938 0.12254 0.78158 0.0
C1094 C 0.62167 0.13366 0.81574 0.0
C1095 C 0.61226 0.1505 0.82572 0.0
C1096 C 0.59337 0.15309 0.81387 0.0
H1097 H 0.66872 0.25615 0.87651 0.0
H1098 H 0.65122 0.22964 0.84883 0.0
C1099 C 0.58414 0.1391 0.79227 0.0
C1100 C 0.62275 0.16579 0.84608 0.0
H1101 H 0.62155 0.19521 0.92384 0.0
C1102 C 0.63982 0.17228 0.83007 0.0
C1103 C 0.61633 0.17383 0.88088 0.0
C1104 C 0.59877 0.16672 0.90087 0.0
C1105 C 0.65042 0.18676 0.84737 0.0
C1106 C 0.64353 0.19545 0.88113 0.0
C1107 C 0.62671 0.1887 0.89772 0.0
C1108 C 0.65343 0.21183 0.89897 0.0
C1109 C 0.66905 0.19244 0.82948 0.0
C1110 C 0.65994 0.21094 0.93692 0.0
C1111 C 0.66983 0.22624 0.95303 0.0
C1112 C 0.67329 0.24268 0.93146 0.0
C1113 C 0.66648 0.24359 0.89373 0.0
C1114 C 0.6565 0.22843 0.87781 0.0
H1115 H 0.675 0.18084 0.8116 0.0
H1116 H 0.66676 0.20489 0.81068 0.0
H1117 H 0.67967 0.19633 0.8516 0.0
H1118 H 0.65769 0.19827 0.9538 0.0
H1119 H 0.67515 0.22498 0.98194 0.0
H1120 H 0.30017 0.1933 0.18017 0.0
H1121 H 0.28213 0.20983 0.22969 0.0
H1122 H 0.27325 0.25687 0.15321 0.0
H1123 H 0.29108 0.24038 0.10323 0.0
H1124 H 0.28629 0.24531 0.26507 0.0
H1125 H 0.21912 0.2413 0.18256 0.0
H1126 H 0.23987 0.2277 0.16989 0.0
H1127 H 0.23842 0.2524 0.15765 0.0
C1128 C 0.2946 0.20726 0.17392 0.0
C1129 C 0.29695 0.2154 0.13746 0.0
C1130 C 0.28424 0.21668 0.20231 0.0
C1131 C 0.27596 0.23437 0.19486 0.0
C1132 C 0.27913 0.24301 0.15928 0.0
H1133 H 0.20427 0.31088 0.32462 0.0
H1134 H 0.22237 0.29427 0.2753 0.0
C1135 C 0.28948 0.23361 0.13083 0.0
C1136 C 0.26363 0.24353 0.22402 0.0
H1137 H 0.21836 0.25887 0.2403 0.0
C1138 C 0.27142 0.24823 0.25973 0.0
C1139 C 0.24421 0.24727 0.21703 0.0
C1140 C 0.23481 0.24177 0.17986 0.0
C1141 C 0.26043 0.25692 0.28835 0.0
C1142 C 0.24101 0.26067 0.28135 0.0
C1143 C 0.23322 0.25596 0.24565 0.0
C1144 C 0.22869 0.26987 0.31046 0.0
C1145 C 0.26985 0.26244 0.32549 0.0
C1146 C 0.22558 0.26135 0.34618 0.0
C1147 C 0.2152 0.27079 0.37452 0.0
C1148 C 0.20763 0.28895 0.36764 0.0
C1149 C 0.20992 0.29697 0.33106 0.0
C1150 C 0.22031 0.28751 0.30279 0.0
H1151 H 0.28553 0.26294 0.32275 0.0
H1152 H 0.26476 0.2765 0.33548 0.0
H1153 H 0.26628 0.2518 0.34771 0.0
H1154 H 0.23151 0.24753 0.35241 0.0
H1155 H 0.21364 0.26411 0.40221 0.0
H1156 H 0.48945 0.46541 0.65156 0.0
H1157 H 0.50555 0.48339 0.60133 0.0
H1158 H 0.46014 0.47054 0.52298 0.0
H1159 H 0.44382 0.45272 0.57296 0.0
H1160 H 0.51793 0.47369 0.52707 0.0
H1161 H 0.46171 0.52876 0.52292 0.0
H1162 H 0.46347 0.51161 0.56101 0.0
H1163 H 0.45336 0.50497 0.51574 0.0
C1164 C 0.48298 0.46618 0.62353 0.0
C1165 C 0.46521 0.45776 0.61651 0.0
C1166 C 0.49219 0.47652 0.59486 0.0
C1167 C 0.48381 0.47869 0.55872 0.0
C1168 C 0.46663 0.46944 0.55096 0.0
H1169 H 0.51465 0.53918 0.35152 0.0
H1170 H 0.49834 0.52135 0.40171 0.0
C1171 C 0.45739 0.45912 0.57955 0.0
C1172 C 0.49283 0.49098 0.52943 0.0
H1173 H 0.48586 0.53095 0.47601 0.0
C1174 C 0.51096 0.48625 0.516 0.0
C1175 C 0.4837 0.50737 0.51504 0.0
C1176 C 0.46456 0.51363 0.5296 0.0
C1177 C 0.52007 0.49726 0.48803 0.0
C1178 C 0.51096 0.51366 0.47367 0.0
C1179 C 0.49282 0.51839 0.48708 0.0
C1180 C 0.52002 0.52597 0.44448 0.0
C1181 C 0.53921 0.49098 0.47347 0.0
C1182 C 0.53722 0.53516 0.45235 0.0
C1183 C 0.54658 0.54539 0.42379 0.0
C1184 C 0.53886 0.54672 0.38674 0.0
C1185 C 0.52105 0.53842 0.37963 0.0
C1186 C 0.51172 0.52817 0.40827 0.0
H1187 H 0.54203 0.47584 0.48006 0.0
H1188 H 0.54032 0.49305 0.44207 0.0
H1189 H 0.55042 0.4996 0.4874 0.0
H1190 H 0.54365 0.53405 0.4804 0.0
H1191 H 0.56018 0.5517 0.43047 0.0
H1192 H 0.21634 0.76459 0.60132 0.0
H1193 H 0.23365 0.74781 0.65165 0.0
H1194 H 0.22011 0.79241 0.73152 0.0
H1195 H 0.2026 0.80913 0.68179 0.0
H1196 H 0.2652 0.76196 0.68987 0.0
H1197 H 0.20802 0.74506 0.79316 0.0
H1198 H 0.20322 0.75196 0.74442 0.0
H1199 H 0.20885 0.7696 0.77982 0.0
C1200 C 0.21668 0.77065 0.62979 0.0
C1201 C 0.20805 0.78825 0.6374 0.0
C1202 C 0.22667 0.76107 0.65849 0.0
C1203 C 0.22808 0.76878 0.69544 0.0
C1204 C 0.21895 0.786 0.70345 0.0
H1205 H 0.28869 0.73857 0.90359 0.0
H1206 H 0.27137 0.75536 0.85327 0.0
C1207 C 0.20898 0.79559 0.67483 0.0
C1208 C 0.24019 0.75956 0.72484 0.0
H1209 H 0.23971 0.74115 0.81515 0.0
C1210 C 0.2596 0.75728 0.71717 0.0
C1211 C 0.23291 0.75361 0.76057 0.0
C1212 C 0.21208 0.755 0.76995 0.0
C1213 C 0.27199 0.7495 0.74445 0.0
C1214 C 0.26471 0.74355 0.78017 0.0
C1215 C 0.2453 0.74583 0.78785 0.0
C1216 C 0.27682 0.73432 0.80955 0.0
C1217 C 0.29282 0.74809 0.73506 0.0
C1218 C 0.28588 0.71706 0.80157 0.0
C1219 C 0.29585 0.70746 0.83019 0.0
C1220 C 0.29685 0.71485 0.86758 0.0
C1221 C 0.28829 0.73248 0.87515 0.0
C1222 C 0.2783 0.74207 0.84646 0.0
H1223 H 0.29688 0.758 0.71179 0.0
H1224 H 0.30168 0.75117 0.76058 0.0
H1225 H 0.29605 0.73347 0.72529 0.0
H1226 H 0.28467 0.71063 0.77353 0.0
H1227 H 0.30217 0.6939 0.82327 0.0
H1228 H 0.99071 0.4645 0.85045 0.0
H1229 H 0.00742 0.4819 0.90086 0.0
H1230 H 0.9617 0.47026 0.9792 0.0
H1231 H 0.94506 0.45265 0.92942 0.0
H1232 H 0.99393 0.51413 0.93703 0.0
H1233 H 0.00786 0.45784 0.04383 0.0
H1234 H 1.00129 0.45262 0.99504 0.0
H1235 H 0.98348 0.45916 0.02941 0.0
C1236 C 0.98438 0.46526 0.87863 0.0
C1237 C 0.9665 0.45713 0.88576 0.0
C1238 C 0.99392 0.47531 0.90738 0.0
C1239 C 0.98589 0.4773 0.94393 0.0
C1240 C 0.96837 0.46865 0.95149 0.0
H1241 H 0.01396 0.5395 0.15138 0.0
H1242 H 0.99783 0.52199 0.10041 0.0
C1243 C 0.95883 0.45862 0.92283 0.0
C1244 C 0.99509 0.48951 0.9733 0.0
H1245 H 0.01205 0.4897 0.06484 0.0
C1246 C 0.99803 0.50876 0.96488 0.0
C1247 C 1.00032 0.48254 0.00973 0.0
C1248 C 0.99825 0.46187 0.02 0.0
C1249 C 0.00571 0.52128 0.99211 0.0
C1250 C 0.01087 0.51432 0.02859 0.0
C1251 C 0.00798 0.49506 0.03697 0.0
C1252 C 0.01977 0.5266 0.05821 0.0
C1253 C 0.00782 0.54195 0.98185 0.0
C1254 C 0.03733 0.53529 0.0513 0.0
C1255 C 0.04656 0.54539 0.0803 0.0
C1256 C 0.03851 0.5469 0.11704 0.0
C1257 C 0.02058 0.53872 0.12347 0.0
C1258 C 0.01137 0.52861 0.0944 0.0
H1259 H 0.99846 0.54595 0.95761 0.0
H1260 H 0.00449 0.5512 0.00667 0.0
H1261 H 0.02269 0.5447 0.97312 0.0
H1262 H 0.04427 0.53368 0.02387 0.0
H1263 H 0.06037 0.55139 0.07426 0.0
H1264 H 0.80016 0.69282 0.67956 0.0
H1265 H 0.78256 0.7094 0.72967 0.0
H1266 H 0.77385 0.75678 0.65397 0.0
H1267 H 0.79125 0.74026 0.60343 0.0
H1268 H 0.78737 0.7449 0.76526 0.0
H1269 H 0.71968 0.74155 0.68438 0.0
H1270 H 0.74021 0.72773 0.67125 0.0
H1271 H 0.73895 0.75245 0.65905 0.0
C1272 C 0.79472 0.70687 0.6736 0.0
C1273 C 0.79699 0.7151 0.63721 0.0
C1274 C 0.78462 0.71631 0.70233 0.0
C1275 C 0.77651 0.73413 0.69527 0.0
C1276 C 0.7796 0.74284 0.65973 0.0
H1277 H 0.70622 0.81121 0.82638 0.0
H1278 H 0.72398 0.79441 0.77686 0.0
C1279 C 0.78971 0.73342 0.63096 0.0
C1280 C 0.76444 0.74334 0.72479 0.0
H1281 H 0.71941 0.75906 0.74221 0.0
C1282 C 0.7725 0.74795 0.76031 0.0
C1283 C 0.74502 0.74725 0.71829 0.0
C1284 C 0.73535 0.74186 0.68133 0.0
C1285 C 0.76176 0.75673 0.78921 0.0
C1286 C 0.74233 0.76065 0.7827 0.0
C1287 C 0.73428 0.75601 0.74719 0.0
C1288 C 0.73028 0.77002 0.81206 0.0
C1289 C 0.77145 0.76217 0.82611 0.0
C1290 C 0.72729 0.76158 0.84791 0.0
C1291 C 0.7171 0.77115 0.87638 0.0
C1292 C 0.70962 0.78933 0.8695 0.0
C1293 C 0.71182 0.79728 0.83283 0.0
C1294 C 0.72201 0.7877 0.80444 0.0
H1295 H 0.78712 0.76251 0.82299 0.0
H1296 H 0.76657 0.77628 0.83619 0.0
H1297 H 0.76791 0.75158 0.84843 0.0
H1298 H 0.73314 0.74773 0.85412 0.0
H1299 H 0.71561 0.76452 0.90414 0.0
H1300 H 0.70384 0.31101 0.17957 0.0
H1301 H 0.72149 0.29507 0.23029 0.0
H1302 H 0.7334 0.24843 0.15424 0.0
H1303 H 0.71556 0.26415 0.10329 0.0
H1304 H 0.72394 0.23704 0.22873 0.0
H1305 H 0.77953 0.29276 0.23077 0.0
H1306 H 0.75586 0.30147 0.23785 0.0
H1307 H 0.76225 0.29087 0.19287 0.0
C1308 C 0.70999 0.29725 0.17364 0.0
C1309 C 0.7084 0.28897 0.1371 0.0
C1310 C 0.72023 0.28823 0.20265 0.0
C1311 C 0.72919 0.2708 0.19576 0.0
C1312 C 0.72677 0.26198 0.16006 0.0
H1313 H 0.80205 0.19512 0.32564 0.0
H1314 H 0.7844 0.21154 0.27558 0.0
C1315 C 0.7165 0.27098 0.13098 0.0
C1316 C 0.74142 0.26198 0.22546 0.0
H1317 H 0.78146 0.26914 0.27877 0.0
C1318 C 0.73655 0.24402 0.23957 0.0
C1319 C 0.75789 0.27111 0.23959 0.0
C1320 C 0.76434 0.29004 0.2243 0.0
C1321 C 0.74751 0.23508 0.26789 0.0
C1322 C 0.76399 0.2442 0.28198 0.0
C1323 C 0.76884 0.26218 0.26794 0.0
C1324 C 0.77631 0.23524 0.31132 0.0
C1325 C 0.74113 0.21611 0.28306 0.0
C1326 C 0.77848 0.2436 0.34751 0.0
C1327 C 0.78872 0.23431 0.37628 0.0
C1328 C 0.79703 0.21649 0.36929 0.0
C1329 C 0.79573 0.20873 0.33224 0.0
C1330 C 0.78551 0.21803 0.30358 0.0
H1331 H 0.72598 0.21329 0.27644 0.0
H1332 H 0.74973 0.20474 0.2696 0.0
H1333 H 0.74316 0.21528 0.31451 0.0
H1334 H 0.77165 0.25699 0.35396 0.0
H1335 H 0.78944 0.24074 0.40438 0.0
H1336 H 0.99028 0.966 0.15424 0.0
H1337 H 0.00658 0.98377 0.10394 0.0
H1338 H 0.96169 0.97023 0.02484 0.0
H1339 H 0.94519 0.95261 0.07484 0.0
H1340 H 0.01934 0.97388 0.02966 0.0
H1341 H 0.96274 0.02854 0.02454 0.0
H1342 H 0.96458 0.01152 0.06286 0.0
H1343 H 0.95457 0.00467 0.01763 0.0
C1344 C 0.98398 0.96655 0.12601 0.0
C1345 C 0.96629 0.95802 0.11879 0.0
C1346 C 0.99331 0.97678 0.09732 0.0
C1347 C 0.98511 0.97872 0.06095 0.0
C1348 C 0.96804 0.96931 0.05299 0.0
H1349 H 0.01552 0.0387 0.85311 0.0
H1350 H 0.99941 0.0209 0.90359 0.0
C1351 C 0.9587 0.9591 0.0816 0.0
C1352 C 0.99412 0.991 0.03167 0.0
H1353 H 0.98691 0.03072 0.97767 0.0
C1354 C 0.0123 0.98635 0.01839 0.0
C1355 C 0.9849 0.00728 0.01704 0.0
C1356 C 0.96569 0.01345 0.03143 0.0
C1357 C 0.02136 0.99732 0.99029 0.0
C1358 C 0.01213 0.0136 0.97563 0.0
C1359 C 0.99395 0.01826 0.98894 0.0
C1360 C 0.02109 0.02584 0.94622 0.0
C1361 C 0.04055 0.99113 0.97586 0.0
C1362 C 0.03823 0.0352 0.95391 0.0
C1363 C 0.04746 0.04542 0.92518 0.0
C1364 C 0.03969 0.04658 0.88815 0.0
C1365 C 0.02196 0.03809 0.8812 0.0
C1366 C 0.01274 0.02784 0.91 0.0
H1367 H 0.04348 0.97603 0.98273 0.0
H1368 H 0.04165 0.99307 0.94443 0.0
H1369 H 0.05169 0.99989 0.98965 0.0
H1370 H 0.04468 0.03424 0.98194 0.0
H1371 H 0.06101 0.05188 0.93173 0.0
H1372 H 0.49022 0.96418 0.35242 0.0
H1373 H 0.50658 0.98163 0.40319 0.0
H1374 H 0.45941 0.97188 0.47904 0.0
H1375 H 0.44306 0.95426 0.42882 0.0
H1376 H 0.49304 0.01463 0.4379 0.0
H1377 H 0.5047 0.95846 0.54625 0.0
H1378 H 0.49881 0.95318 0.49712 0.0
H1379 H 0.4806 0.96027 0.53015 0.0
C1380 C 0.48347 0.96539 0.38013 0.0
C1381 C 0.46528 0.95777 0.38642 0.0
C1382 C 0.49282 0.97547 0.40909 0.0
C1383 C 0.48429 0.97798 0.44503 0.0
C1384 C 0.46644 0.96987 0.4518 0.0
H1385 H 0.5138 0.03987 0.65245 0.0
H1386 H 0.49709 0.02266 0.60181 0.0
C1387 C 0.45707 0.95982 0.4229 0.0
C1388 C 0.49344 0.99013 0.47455 0.0
H1389 H 0.51003 0.99021 0.56635 0.0
C1390 C 0.49687 0.00927 0.46591 0.0
C1391 C 0.49828 0.98317 0.5112 0.0
C1392 C 0.49558 0.96261 0.52173 0.0
C1393 C 0.50474 0.0217 0.49309 0.0
C1394 C 0.50964 0.01473 0.52972 0.0
C1395 C 0.50618 0.99559 0.53836 0.0
C1396 C 0.51891 0.02684 0.55918 0.0
C1397 C 0.50735 0.04227 0.48256 0.0
C1398 C 0.53661 0.03519 0.55194 0.0
C1399 C 0.54616 0.04513 0.58074 0.0
C1400 C 0.53831 0.0468 0.61763 0.0
C1401 C 0.52027 0.03895 0.62442 0.0
C1402 C 0.51072 0.02901 0.59553 0.0
H1403 H 0.49795 0.04644 0.45849 0.0
H1404 H 0.50442 0.05169 0.50733 0.0
H1405 H 0.52223 0.04459 0.47338 0.0
H1406 H 0.54341 0.03342 0.5244 0.0
H1407 H 0.56005 0.05086 0.57442 0.0
H1408 H 0.11543 0.10941 0.94366 0.0
H1409 H 0.14497 0.12387 0.96594 0.0
H1410 H 0.17697 0.08601 0.89363 0.0
H1411 H 0.14753 0.07185 0.87042 0.0
H1412 H 0.17575 0.11006 0.0024 0.0
H1413 H 0.19661 0.13705 0.85975 0.0
H1414 H 0.17333 0.1276 0.86935 0.0
H1415 H 0.19292 0.11189 0.86017 0.0
C1416 C 0.12876 0.10408 0.93266 0.0
C1417 C 0.12913 0.08961 0.905 0.0
C1418 C 0.14563 0.11238 0.94538 0.0
C1419 C 0.16315 0.10632 0.93076 0.0
C1420 C 0.16359 0.09129 0.90446 0.0
H1421 H 0.2733 0.1312 0.02954 0.0
H1422 H 0.24386 0.11646 0.00799 0.0
C1423 C 0.14674 0.08311 0.89146 0.0
C1424 C 0.18095 0.11579 0.94285 0.0
H1425 H 0.22 0.13883 0.90871 0.0
C1426 C 0.1854 0.11642 0.98195 0.0
C1427 C 0.19334 0.12441 0.91619 0.0
C1428 C 0.18874 0.12541 0.87408 0.0
C1429 C 0.20209 0.1251 0.99507 0.0
C1430 C 0.21492 0.13291 0.96823 0.0
C1431 C 0.21029 0.13261 0.92921 0.0
C1432 C 0.23315 0.14164 0.98005 0.0
C1433 C 0.2056 0.12612 0.03761 0.0
C1434 C 0.23732 0.16045 0.97002 0.0
C1435 C 0.25433 0.16884 0.98172 0.0
C1436 C 0.26744 0.15858 0.00381 0.0
C1437 C 0.26341 0.13958 0.01296 0.0
C1438 C 0.24651 0.13116 1.00091 0.0
H1439 H 0.19219 0.12479 0.05407 0.0
H1440 H 0.21501 0.11426 0.04618 0.0
H1441 H 0.21257 0.13967 0.04567 0.0
H1442 H 0.22727 0.16876 0.95366 0.0
H1443 H 0.25699 0.18349 0.97417 0.0
H1444 H 0.5779 0.51256 0.20724 0.0
H1445 H 0.59284 0.48321 0.18499 0.0
H1446 H 0.63217 0.48559 0.27935 0.0
H1447 H 0.61775 0.51505 0.30114 0.0
H1448 H 0.64993 0.47719 0.21393 0.0
H1449 H 0.58692 0.43089 0.23058 0.0
H1450 H 0.58283 0.45092 0.20006 0.0
H1451 H 0.58791 0.45459 0.24995 0.0
C1452 C 0.58972 0.50683 0.22324 0.0
C1453 C 0.59658 0.51615 0.25604 0.0
C1454 C 0.59816 0.48997 0.21065 0.0
C1455 C 0.6134 0.48201 0.23093 0.0
C1456 C 0.62038 0.49142 0.26335 0.0
H1457 H 0.65534 0.36648 0.20514 0.0
H1458 H 0.64165 0.39605 0.22947 0.0
C1459 C 0.61209 0.5083 0.27575 0.0
C1460 C 0.62242 0.46409 0.21819 0.0
H1461 H 0.61357 0.41745 0.19898 0.0
C1462 C 0.64199 0.46411 0.21077 0.0
C1463 C 0.61212 0.44695 0.21475 0.0
C1464 C 0.59133 0.44572 0.22461 0.0
C1465 C 0.65149 0.44755 0.1995 0.0
C1466 C 0.64104 0.43059 0.19455 0.0
C1467 C 0.62153 0.43049 0.20251 0.0
C1468 C 0.65002 0.41288 0.18058 0.0
C1469 C 0.67268 0.44833 0.19373 0.0
C1470 C 0.65921 0.41252 0.14503 0.0
C1471 C 0.66721 0.39574 0.13129 0.0
C1472 C 0.66591 0.37887 0.15256 0.0
C1473 C 0.65665 0.37923 0.18815 0.0
C1474 C 0.64877 0.3961 0.20203 0.0
H1475 H 0.67915 0.46029 0.20981 0.0
H1476 H 0.67957 0.43494 0.20295 0.0
H1477 H 0.67575 0.45051 0.16293 0.0
H1478 H 0.65992 0.42515 0.12753 0.0
H1479 H 0.67403 0.39593 0.10355 0.0
H1480 H 0.24279 0.82784 0.45946 0.0
H1481 H 0.27199 0.84332 0.43823 0.0
H1482 H 0.26736 0.88358 0.5307 0.0
H1483 H 0.23802 0.86855 0.55159 0.0
H1484 H 0.27643 0.90072 0.46423 0.0
H1485 H 0.32364 0.83902 0.48826 0.0
H1486 H 0.30413 0.83391 0.45696 0.0
H1487 H 0.29967 0.83992 0.50617 0.0
C1488 C 0.24797 0.83999 0.47527 0.0
C1489 C 0.23808 0.84688 0.50734 0.0
C1490 C 0.26474 0.84874 0.46325 0.0
C1491 C 0.27205 0.86437 0.48334 0.0
C1492 C 0.26204 0.87147 0.51491 0.0
H1493 H 0.38725 0.90767 0.45802 0.0
H1494 H 0.3577 0.89433 0.48316 0.0
C1495 C 0.24524 0.86283 0.52679 0.0
C1496 C 0.28998 0.87358 0.47127 0.0
H1497 H 0.33695 0.86521 0.45487 0.0
C1498 C 0.28969 0.89297 0.46233 0.0
C1499 C 0.30733 0.86355 0.46951 0.0
C1500 C 0.30882 0.843 0.4811 0.0
C1501 C 0.30619 0.90253 0.45092 0.0
C1502 C 0.32336 0.8923 0.44749 0.0
C1503 C 0.32374 0.873 0.4572 0.0
C1504 C 0.34101 0.90122 0.43311 0.0
C1505 C 0.30509 0.92355 0.44319 0.0
C1506 C 0.34144 0.90947 0.39665 0.0
C1507 C 0.35821 0.91723 0.3824 0.0
C1508 C 0.375 0.91666 0.4041 0.0
C1509 C 0.37456 0.90839 0.44065 0.0
C1510 C 0.3577 0.90073 0.45501 0.0
H1511 H 0.29291 0.93016 0.45832 0.0
H1512 H 0.3183 0.93087 0.45214 0.0
H1513 H 0.30306 0.92587 0.41208 0.0
H1514 H 0.32888 0.90957 0.37883 0.0
H1515 H 0.35808 0.9233 0.35396 0.0
H1516 H 0.84864 0.63684 0.70469 0.0
H1517 H 0.86275 0.60732 0.72804 0.0
H1518 H 0.84523 0.57872 0.62481 0.0
H1519 H 0.83075 0.60793 0.6017 0.0
H1520 H 0.83845 0.55749 0.68773 0.0
H1521 H 0.91224 0.58468 0.69031 0.0
H1522 H 0.89605 0.59849 0.71849 0.0
H1523 H 0.89312 0.59732 0.66744 0.0
C1524 C 0.84771 0.62424 0.68706 0.0
C1525 C 0.83864 0.62477 0.65127 0.0
C1526 C 0.85591 0.60742 0.70031 0.0
C1527 C 0.85538 0.59093 0.6778 0.0
C1528 C 0.84591 0.59131 0.64254 0.0
H1529 H 0.92638 0.49106 0.70695 0.0
H1530 H 0.91101 0.51991 0.68347 0.0
C1531 C 0.83762 0.60805 0.6294 0.0
C1532 C 0.86459 0.57319 0.69084 0.0
H1533 H 0.90713 0.55428 0.71756 0.0
C1534 C 0.85348 0.55677 0.69419 0.0
C1535 C 0.88426 0.5722 0.69856 0.0
C1536 C 0.89717 0.58905 0.69318 0.0
C1537 C 0.86143 0.53944 0.70556 0.0
C1538 C 0.88096 0.53863 0.71473 0.0
C1539 C 0.89214 0.55498 0.71084 0.0
C1540 C 0.89006 0.52099 0.72863 0.0
C1541 C 0.8489 0.52211 0.7069 0.0
C1542 C 0.8835 0.51214 0.762 0.0
C1543 C 0.89212 0.4956 0.77528 0.0
C1544 C 0.90768 0.4877 0.75578 0.0
C1545 C 0.9144 0.49674 0.72261 0.0
C1546 C 0.90565 0.51324 0.70917 0.0
H1547 H 0.8362 0.52378 0.6884 0.0
H1548 H 0.85672 0.50923 0.69769 0.0
H1549 H 0.8439 0.51992 0.73665 0.0
H1550 H 0.87181 0.51814 0.77804 0.0
H1551 H 0.88669 0.48915 0.80115 0.0
H1552 H 0.7483 0.8229 0.0353 0.0
H1553 H 0.77748 0.83828 0.05694 0.0
H1554 H 0.76161 0.88935 0.99726 0.0
H1555 H 0.7327 0.87398 0.9747 0.0
H1556 H 0.79785 0.87986 0.98313 0.0
H1557 H 0.78451 0.87782 0.13929 0.0
H1558 H 0.78327 0.85489 0.11713 0.0
H1559 H 0.76625 0.87285 0.10456 0.0
C1560 C 0.75093 0.83746 0.02707 0.0
C1561 C 0.73815 0.84721 0.0033 0.0
C1562 C 0.76758 0.84626 0.03962 0.0
C1563 C 0.7716 0.86505 0.02915 0.0
C1564 C 0.75878 0.87485 0.00574 0.0
H1565 H 0.85839 0.93498 0.13413 0.0
H1566 H 0.82869 0.92167 0.1102 0.0
C1567 C 0.74224 0.86604 0.99292 0.0
C1568 C 0.78948 0.87433 0.04131 0.0
H1569 H 0.81564 0.88646 0.1197 0.0
C1570 C 0.80171 0.88139 0.01301 0.0
C1571 C 0.79437 0.87654 0.08029 0.0
C1572 C 0.78133 0.8703 0.11209 0.0
C1573 C 0.8188 0.89042 0.02259 0.0
C1574 C 0.82402 0.89198 0.06153 0.0
C1575 C 0.81169 0.88511 0.08984 0.0
C1576 C 0.84213 0.90081 0.07374 0.0
C1577 C 0.83086 0.8985 0.99093 0.0
C1578 C 0.85958 0.89362 0.06097 0.0
C1579 C 0.87661 0.90137 0.07423 0.0
C1580 C 0.87647 0.91624 0.10103 0.0
C1581 C 0.85898 0.92354 0.11347 0.0
C1582 C 0.84198 0.91591 0.09991 0.0
H1583 H 0.82238 0.90121 0.96471 0.0
H1584 H 0.83772 0.91196 0.99988 0.0
H1585 H 0.84214 0.88818 0.98344 0.0
H1586 H 0.86006 0.88167 0.04151 0.0
H1587 H 0.88985 0.89529 0.06444 0.0
H1588 H 0.43164 0.49674 0.78265 0.0
H1589 H 0.41619 0.52597 0.80364 0.0
H1590 H 0.36565 0.51032 0.74175 0.0
H1591 H 0.3811 0.48131 0.71984 0.0
H1592 H 0.37558 0.54673 0.72843 0.0
H1593 H 0.37574 0.53272 0.88438 0.0
H1594 H 0.39889 0.53133 0.86331 0.0
H1595 H 0.38091 0.51456 0.84953 0.0
C1596 C 0.41718 0.49942 0.77377 0.0
C1597 C 0.4076 0.48665 0.74962 0.0
C1598 C 0.40834 0.51611 0.78594 0.0
C1599 C 0.38967 0.52019 0.7747 0.0
C1600 C 0.38004 0.50742 0.75083 0.0
H1601 H 0.31973 0.60729 0.87821 0.0
H1602 H 0.33267 0.57756 0.85368 0.0
C1603 C 0.3889 0.49082 0.73841 0.0
C1604 C 0.38037 0.53807 0.7867 0.0
H1605 H 0.3677 0.56404 0.86501 0.0
C1606 C 0.37376 0.55049 0.7583 0.0
C1607 C 0.37778 0.54282 0.82566 0.0
C1608 C 0.38353 0.52958 0.85749 0.0
C1609 C 0.36487 0.56766 0.76779 0.0
C1610 C 0.36295 0.57274 0.80674 0.0
C1611 C 0.36932 0.5602 0.83513 0.0
C1612 C 0.35426 0.5909 0.81893 0.0
C1613 C 0.35733 0.58 0.73602 0.0
C1614 C 0.36197 0.60831 0.80724 0.0
C1615 C 0.35445 0.62537 0.8209 0.0
C1616 C 0.33929 0.62529 0.84698 0.0
C1617 C 0.33143 0.60784 0.85817 0.0
C1618 C 0.33883 0.59083 0.84424 0.0
H1619 H 0.35487 0.57172 0.70943 0.0
H1620 H 0.34384 0.58696 0.74444 0.0
H1621 H 0.36787 0.59121 0.72945 0.0
H1622 H 0.37416 0.60871 0.78843 0.0
H1623 H 0.36095 0.63856 0.81205 0.0
H1624 H 0.76582 0.13568 0.45407 0.0
H1625 H 0.73646 0.12093 0.47554 0.0
H1626 H 0.73212 0.16183 0.5669 0.0
H1627 H 0.76138 0.17705 0.54506 0.0
H1628 H 0.72783 0.10429 0.54287 0.0
H1629 H 0.68021 0.16558 0.51741 0.0
H1630 H 0.70411 0.16464 0.49915 0.0
H1631 H 0.69984 0.17089 0.54828 0.0
C1632 C 0.75865 0.14161 0.47873 0.0
C1633 C 0.76593 0.15764 0.49773 0.0
C1634 C 0.74184 0.13313 0.49095 0.0
C1635 C 0.73193 0.14045 0.52242 0.0
C1636 C 0.7393 0.15622 0.54197 0.0
H1637 H 0.64556 0.08167 0.65184 0.0
H1638 H 0.67475 0.09586 0.62793 0.0
C1639 C 0.7561 0.16482 0.52961 0.0
C1640 C 0.71408 0.13127 0.53498 0.0
H1641 H 0.66698 0.13934 0.55062 0.0
C1642 C 0.71451 0.11194 0.54447 0.0
C1643 C 0.69666 0.14119 0.53641 0.0
C1644 C 0.69506 0.16167 0.52442 0.0
C1645 C 0.69806 0.10232 0.55592 0.0
C1646 C 0.68078 0.11241 0.55876 0.0
C1647 C 0.68028 0.13166 0.54868 0.0
C1648 C 0.66313 0.10335 0.5727 0.0
C1649 C 0.69929 0.08137 0.56425 0.0
C1650 C 0.64675 0.10318 0.54987 0.0
C1651 C 0.62992 0.09521 0.5636 0.0
C1652 C 0.62918 0.08732 0.60048 0.0
C1653 C 0.64566 0.08745 0.62316 0.0
C1654 C 0.66242 0.09549 0.60948 0.0
H1655 H 0.71175 0.07479 0.55004 0.0
H1656 H 0.70086 0.07926 0.59553 0.0
H1657 H 0.68628 0.07385 0.55471 0.0
H1658 H 0.64699 0.10927 0.52145 0.0
H1659 H 0.61747 0.0954 0.54549 0.0
H1660 H 0.11741 0.5156 0.20366 0.0
H1661 H 0.13195 0.48611 0.22499 0.0
H1662 H 0.09206 0.48288 0.31822 0.0
H1663 H 0.07702 0.51223 0.29645 0.0
H1664 H 0.14931 0.47735 0.29086 0.0
H1665 H 0.08666 0.43089 0.27058 0.0
H1666 H 0.08771 0.45472 0.252 0.0
H1667 H 0.0822 0.45069 0.30156 0.0
C1668 C 0.11167 0.50865 0.22871 0.0
C1669 C 0.09596 0.51624 0.24823 0.0
C1670 C 0.12002 0.49177 0.24084 0.0
C1671 C 0.11289 0.48211 0.27278 0.0
C1672 C 0.09748 0.48984 0.29291 0.0
H1673 H 0.17204 0.39574 0.40121 0.0
H1674 H 0.15817 0.425 0.377 0.0
C1675 C 0.08899 0.50669 0.28058 0.0
C1676 C 0.12191 0.46415 0.28521 0.0
H1677 H 0.11306 0.4174 0.303 0.0
C1678 C 0.14139 0.46422 0.29339 0.0
C1679 C 0.11164 0.44697 0.28784 0.0
C1680 C 0.09094 0.4457 0.27717 0.0
C1681 C 0.15084 0.44765 0.30472 0.0
C1682 C 0.14041 0.43065 0.30888 0.0
C1683 C 0.12099 0.43049 0.30008 0.0
C1684 C 0.14929 0.41294 0.32295 0.0
C1685 C 0.17196 0.44847 0.31151 0.0
C1686 C 0.14857 0.39629 0.30093 0.0
C1687 C 0.15635 0.37942 0.31488 0.0
C1688 C 0.16494 0.37891 0.35114 0.0
C1689 C 0.16571 0.39566 0.37299 0.0
C1690 C 0.15785 0.41245 0.35913 0.0
H1691 H 0.17856 0.46058 0.2962 0.0
H1692 H 0.17467 0.45041 0.34253 0.0
H1693 H 0.17899 0.43518 0.30212 0.0
H1694 H 0.14192 0.39635 0.273 0.0
H1695 H 0.15546 0.36676 0.29741 0.0
H1696 H 0.61382 0.61603 0.43143 0.0
H1697 H 0.64335 0.63029 0.45429 0.0
H1698 H 0.67532 0.58543 0.40068 0.0
H1699 H 0.64594 0.57127 0.3771 0.0
H1700 H 0.67205 0.61674 0.50017 0.0
H1701 H 0.69904 0.63293 0.35488 0.0
H1702 H 0.67483 0.6259 0.36369 0.0
H1703 H 0.69332 0.60837 0.36166 0.0
C1704 C 0.62712 0.60911 0.42473 0.0
C1705 C 0.62754 0.5926 0.40217 0.0
C1706 C 0.64398 0.6173 0.43776 0.0
C1707 C 0.66153 0.60914 0.42844 0.0
C1708 C 0.66194 0.59222 0.40735 0.0
H1709 H 0.77018 0.63281 0.53308 0.0
H1710 H 0.74041 0.61892 0.51121 0.0
C1711 C 0.64512 0.58407 0.39416 0.0
C1712 C 0.67941 0.61841 0.44052 0.0
H1713 H 0.72073 0.63707 0.40634 0.0
C1714 C 0.68268 0.62126 0.47968 0.0
C1715 C 0.69308 0.62459 0.41367 0.0
C1716 C 0.68986 0.62298 0.37111 0.0
C1717 C 0.69947 0.62973 0.4928 0.0
C1718 C 0.7135 0.63515 0.46602 0.0
C1719 C 0.71004 0.6327 0.42682 0.0
C1720 C 0.73188 0.64338 0.47814 0.0
C1721 C 0.70188 0.63306 0.53517 0.0
C1722 C 0.73734 0.66146 0.46554 0.0
C1723 C 0.75449 0.6694 0.47764 0.0
C1724 C 0.76651 0.65936 0.50254 0.0
C1725 C 0.7612 0.64103 0.51423 0.0
C1726 C 0.74411 0.63309 0.50197 0.0
H1727 H 0.68802 0.6332 0.55027 0.0
H1728 H 0.71055 0.62145 0.54747 0.0
H1729 H 0.70924 0.6467 0.54082 0.0
H1730 H 0.72816 0.66956 0.44686 0.0
H1731 H 0.75815 0.68352 0.46802 0.0
H1732 H 0.07211 0.0062 0.72498 0.0
H1733 H 0.08681 0.97642 0.70478 0.0
H1734 H 0.13871 0.99249 0.76148 0.0
H1735 H 0.12399 0.02201 0.78272 0.0
H1736 H 0.11714 0.96918 0.66093 0.0
H1737 H 0.12957 0.9407 0.80637 0.0
H1738 H 0.1149 0.9612 0.79769 0.0
H1739 H 0.14031 0.96348 0.79927 0.0
C1740 C 0.08666 0.00341 0.73314 0.0
C1741 C 0.09682 0.01641 0.75577 0.0
C1742 C 0.09503 0.98637 0.72161 0.0
C1743 C 0.11371 0.98204 0.73236 0.0
C1744 C 0.12409 0.99527 0.75382 0.0
H1745 H 0.18363 0.8962 0.62392 0.0
H1746 H 0.16969 0.92569 0.6474 0.0
C1747 C 0.11569 0.01222 0.76569 0.0
C1748 C 0.12242 0.96381 0.72059 0.0
H1749 H 0.14456 0.92429 0.755 0.0
C1750 C 0.12306 0.95932 0.68151 0.0
C1751 C 0.12986 0.9508 0.74752 0.0
C1752 C 0.12847 0.95417 0.79007 0.0
C1753 C 0.13123 0.94236 0.66853 0.0
C1754 C 0.13945 0.92977 0.69533 0.0
C1755 C 0.1385 0.93408 0.73447 0.0
C1756 C 0.14884 0.91193 0.68329 0.0
C1757 C 0.13059 0.93793 0.6263 0.0
C1758 C 0.1424 0.89441 0.69721 0.0
C1759 C 0.15058 0.8775 0.68435 0.0
C1760 C 0.16529 0.87785 0.65725 0.0
C1761 C 0.17218 0.89545 0.6445 0.0
C1762 C 0.16413 0.91232 0.65765 0.0
H1763 H 0.11919 0.94599 0.61161 0.0
H1764 H 0.14429 0.94201 0.61306 0.0
H1765 H 0.12826 0.92257 0.62119 0.0
H1766 H 0.13071 0.8938 0.71726 0.0
H1767 H 0.14495 0.86418 0.69472 0.0
H1768 H 0.7343 0.37214 0.03278 0.0
H1769 H 0.76369 0.38641 0.00996 0.0
H1770 H 0.77672 0.33535 0.94728 0.0
H1771 H 0.74708 0.32102 0.96938 0.0
H1772 H 0.79995 0.37438 0.0223 0.0
H1773 H 0.78426 0.37622 0.86681 0.0
H1774 H 0.76621 0.37185 0.9023 0.0
H1775 H 0.78198 0.35314 0.88786 0.0
C1776 C 0.74331 0.36396 0.01387 0.0
C1777 C 0.73829 0.34543 0.00284 0.0
C1778 C 0.76013 0.37214 1.00092 0.0
C1779 C 0.7723 0.36203 0.97664 0.0
C1780 C 0.76735 0.34356 0.9654 0.0
H1781 H 0.89091 0.38899 0.93378 0.0
H1782 H 0.86128 0.37532 0.95738 0.0
C1783 C 0.75044 0.33536 0.9782 0.0
C1784 C 0.79043 0.37068 0.96423 0.0
H1785 H 0.81567 0.384 0.88547 0.0
C1786 C 0.80339 0.37653 0.99238 0.0
C1787 C 0.79477 0.37366 0.92522 0.0
C1788 C 0.78102 0.36856 0.89378 0.0
C1789 C 0.82064 0.38516 0.98258 0.0
C1790 C 0.8252 0.38766 0.94353 0.0
C1791 C 0.81219 0.38194 0.91539 0.0
C1792 C 0.84326 0.39646 0.93111 0.0
C1793 C 0.83362 0.39187 0.01411 0.0
C1794 C 0.84297 0.41278 0.90825 0.0
C1795 C 0.85985 0.42054 0.89449 0.0
C1796 C 0.87738 0.41209 0.90325 0.0
C1797 C 0.87767 0.39594 0.92678 0.0
C1798 C 0.86074 0.38814 0.9404 0.0
H1799 H 0.82593 0.39358 0.04163 0.0
H1800 H 0.84502 0.38125 0.01847 0.0
H1801 H 0.84035 0.40561 0.0066 0.0
H1802 H 0.82963 0.4194 0.9007 0.0
H1803 H 0.85911 0.43297 0.8764 0.0
H1804 H 0.38111 0.98246 0.27916 0.0
H1805 H 0.36671 0.01167 0.25578 0.0
H1806 H 0.41884 0.02623 0.19844 0.0
H1807 H 0.43327 0.99674 0.22095 0.0
H1808 H 0.3771 0.04775 0.27039 0.0
H1809 H 0.3803 0.03404 0.1143 0.0
H1810 H 0.38439 0.01572 0.1493 0.0
H1811 H 0.4029 0.03227 0.13759 0.0
C1812 C 0.3895 0.99177 0.26129 0.0
C1813 C 0.40835 0.98723 0.25185 0.0
C1814 C 0.38124 0.00849 0.24799 0.0
C1815 C 0.39162 0.02104 0.22502 0.0
C1816 C 0.41042 0.01656 0.21543 0.0
H1817 H 0.36326 0.13967 0.18698 0.0
H1818 H 0.3768 0.10989 0.21009 0.0
C1819 C 0.41868 0.99973 0.22848 0.0
C1820 C 0.38289 0.03911 0.21244 0.0
H1821 H 0.37169 0.06521 0.13349 0.0
C1822 C 0.37585 0.05155 0.24044 0.0
C1823 C 0.38108 0.04393 0.17336 0.0
C1824 C 0.38739 0.03072 0.14187 0.0
C1825 C 0.36718 0.06875 0.23046 0.0
C1826 C 0.36591 0.07385 0.19144 0.0
C1827 C 0.37281 0.06134 0.16342 0.0
C1828 C 0.35726 0.09196 0.17888 0.0
C1829 C 0.3591 0.08109 0.26177 0.0
C1830 C 0.34194 0.09178 0.15328 0.0
C1831 C 0.33431 0.10875 0.13973 0.0
C1832 C 0.34185 0.12627 0.15152 0.0
C1833 C 0.35701 0.12643 0.17764 0.0
C1834 C 0.36472 0.10942 0.19099 0.0
H1835 H 0.35642 0.07286 0.2883 0.0
H1836 H 0.3694 0.09247 0.26876 0.0
H1837 H 0.34563 0.08784 0.2526 0.0
H1838 H 0.33599 0.07847 0.14351 0.0
H1839 H 0.32266 0.10812 0.11959 0.0
H1840 H 0.24213 0.32593 0.54588 0.0
H1841 H 0.27106 0.34151 0.5686 0.0
H1842 H 0.26478 0.38447 0.48188 0.0
H1843 H 0.23579 0.36931 0.45947 0.0
H1844 H 0.30418 0.34837 0.52937 0.0
H1845 H 0.27212 0.41598 0.57801 0.0
H1846 H 0.25811 0.39524 0.56722 0.0
H1847 H 0.26654 0.41024 0.52928 0.0
C1848 C 0.24682 0.33878 0.53184 0.0
C1849 C 0.23656 0.34642 0.50098 0.0
C1850 C 0.26336 0.34764 0.54482 0.0
C1851 C 0.2699 0.3643 0.52728 0.0
C1852 C 0.25976 0.37188 0.4964 0.0
H1853 H 0.38443 0.41044 0.54325 0.0
H1854 H 0.35476 0.3961 0.52101 0.0
C1855 C 0.24321 0.36311 0.48351 0.0
C1856 C 0.28766 0.37345 0.54042 0.0
H1857 H 0.3058 0.41517 0.5738 0.0
C1858 C 0.30455 0.36295 0.53926 0.0
C1859 C 0.28804 0.39241 0.55364 0.0
C1860 C 0.27021 0.40408 0.55751 0.0
C1861 C 0.32188 0.37098 0.55051 0.0
C1862 C 0.32236 0.39015 0.56247 0.0
C1863 C 0.30543 0.40056 0.56411 0.0
C1864 C 0.34015 0.39944 0.57505 0.0
C1865 C 0.33944 0.35876 0.55024 0.0
C1866 C 0.34154 0.40667 0.6123 0.0
C1867 C 0.35833 0.41505 0.6249 0.0
C1868 C 0.37412 0.41639 0.60047 0.0
C1869 C 0.37257 0.40953 0.56283 0.0
C1870 C 0.35568 0.40121 0.55017 0.0
H1871 H 0.33587 0.34342 0.54982 0.0
H1872 H 0.34786 0.36192 0.52422 0.0
H1873 H 0.34844 0.36168 0.57562 0.0
H1874 H 0.32969 0.40554 0.6319 0.0
H1875 H 0.359 0.42019 0.65408 0.0
H1876 H 0.86717 0.14085 0.32561 0.0
H1877 H 0.88035 0.11118 0.30098 0.0
H1878 H 0.83334 0.08031 0.34928 0.0
H1879 H 0.82026 0.10982 0.37464 0.0
H1880 H 0.86738 0.06462 0.36774 0.0
H1881 H 0.86385 0.07819 0.21171 0.0
H1882 H 0.87611 0.09633 0.23792 0.0
H1883 H 0.85124 0.0925 0.24616 0.0
C1884 C 0.85949 0.12779 0.33051 0.0
C1885 C 0.84266 0.1277 0.35206 0.0
C1886 C 0.86701 0.11085 0.31628 0.0
C1887 C 0.85771 0.09356 0.32294 0.0
C1888 C 0.84071 0.0935 0.34375 0.0
H1889 H 0.88361 0.9855 0.2168 0.0
H1890 H 0.86883 0.01479 0.23903 0.0
C1891 C 0.83324 0.11039 0.35814 0.0
C1892 C 0.86622 0.07541 0.31018 0.0
H1893 H 0.88175 0.05132 0.23148 0.0
C1894 C 0.87045 0.06167 0.33792 0.0
C1895 C 0.87004 0.07153 0.27125 0.0
C1896 C 0.86492 0.08533 0.23997 0.0
C1897 C 0.87861 0.04422 0.32784 0.0
C1898 C 0.88299 0.04059 0.28906 0.0
C1899 C 0.87854 0.05423 0.26125 0.0
C1900 C 0.89192 0.0226 0.27659 0.0
C1901 C 0.88212 0.02971 0.35873 0.0
C1902 C 0.90986 0.01729 0.29029 0.0
C1903 C 0.91834 1.00047 0.27781 0.0
C1904 C 0.90911 0.98874 0.25107 0.0
C1905 C 0.89114 0.99416 0.23742 0.0
C1906 C 0.88266 0.01092 0.25002 0.0
H1907 H 0.87343 0.03257 0.3846 0.0
H1908 H 0.87891 0.01518 0.34836 0.0
H1909 H 0.89726 0.03021 0.36724 0.0
H1910 H 0.91742 0.02629 0.31023 0.0
H1911 H 0.93224 0.99682 0.2887 0.0
H1912 H 0.14476 0.58429 0.15374 0.0
H1913 H 0.17399 0.59855 0.13035 0.0
H1914 H 0.14892 0.60528 0.01868 0.0
H1915 H 0.11927 0.59143 0.0422 0.0
H1916 H 0.19808 0.58794 0.07407 0.0
H1917 H 0.16731 0.65858 0.04178 0.0
H1918 H 0.15472 0.64086 0.06893 0.0
H1919 H 0.15579 0.63928 0.01764 0.0
C1920 C 0.1454 0.58877 0.12416 0.0
C1921 C 0.1296 0.58686 0.09989 0.0
C1922 C 0.16216 0.59692 0.11084 0.0
C1923 C 0.16353 0.60329 0.07299 0.0
C1924 C 0.14801 0.60088 0.04828 0.0
H1925 H 0.26859 0.63251 0.9583 0.0
H1926 H 0.23957 0.61732 0.98047 0.0
C1927 C 0.13113 0.59285 0.06168 0.0
C1928 C 0.18128 0.61242 0.05971 0.0
H1929 H 0.19923 0.65353 0.02312 0.0
C1930 C 0.19834 0.60229 0.06292 0.0
C1931 C 0.18162 0.63125 0.04578 0.0
C1932 C 0.16392 0.64322 0.04363 0.0
C1933 C 0.21571 0.6104 0.05229 0.0
C1934 C 0.21597 0.62902 0.03731 0.0
C1935 C 0.19895 0.63922 0.0344 0.0
C1936 C 0.23375 0.63815 0.02437 0.0
C1937 C 0.23367 0.59912 0.05794 0.0
C1938 C 0.23992 0.65514 0.0412 0.0
C1939 C 0.25649 0.66399 0.02843 0.0
C1940 C 0.26713 0.65603 0.99841 0.0
C1941 C 0.26085 0.639 0.98163 0.0
C1942 C 0.24429 0.63021 0.99438 0.0
H1943 H 0.23168 0.58753 0.07907 0.0
H1944 H 0.23787 0.59258 0.03034 0.0
H1945 H 0.24546 0.60835 0.06778 0.0
H1946 H 0.23191 0.66155 0.06429 0.0
H1947 H 0.26087 0.67711 0.04191 0.0
H1948 H 0.61814 0.01579 0.70443 0.0
H1949 H 0.63329 0.98655 0.72545 0.0
H1950 H 0.59238 0.98129 0.81647 0.0
H1951 H 0.57678 0.01041 0.79509 0.0
H1952 H 0.64999 0.97793 0.7928 0.0
H1953 H 0.58944 0.92949 0.76617 0.0
H1954 H 0.59006 0.95347 0.74825 0.0
H1955 H 0.58376 0.94895 0.79725 0.0
C1956 C 0.61229 0.00844 0.7289 0.0
C1957 C 0.59616 0.01542 0.74795 0.0
C1958 C 0.62099 0.9917 0.74087 0.0
C1959 C 0.61379 0.98157 0.77212 0.0
C1960 C 0.59791 0.98864 0.79171 0.0
H1961 H 0.67316 0.89613 0.90245 0.0
H1962 H 0.6588 0.92511 0.87799 0.0
C1963 C 0.58909 0.00536 0.7796 0.0
C1964 C 0.62322 0.96382 0.7845 0.0
H1965 H 0.61574 0.91662 0.79988 0.0
C1966 C 0.64252 0.96451 0.79422 0.0
C1967 C 0.61354 0.94626 0.7857 0.0
C1968 C 0.59311 0.94439 0.77343 0.0
C1969 C 0.65233 0.94818 0.80578 0.0
C1970 C 0.64245 0.93078 0.80846 0.0
C1971 C 0.62324 0.93001 0.79807 0.0
C1972 C 0.65168 0.91328 0.82269 0.0
C1973 C 0.67324 0.9497 0.81444 0.0
C1974 C 0.65214 0.89685 0.79999 0.0
C1975 C 0.66021 0.88013 0.81403 0.0
C1976 C 0.66792 0.87956 0.8511 0.0
C1977 C 0.66753 0.8961 0.87363 0.0
C1978 C 0.65939 0.91274 0.85964 0.0
H1979 H 0.6797 0.96222 0.80026 0.0
H1980 H 0.67522 0.95136 0.84574 0.0
H1981 H 0.68095 0.93678 0.80509 0.0
H1982 H 0.64617 0.89695 0.77144 0.0
H1983 H 0.66023 0.86763 0.79602 0.0
loop_
_geom_bond_atom_site_label_1
_geom_bond_atom_site_label_2
_geom_bond_distance
_geom_bond_site_symmetry_2
_ccdc_geom_bond_type
Co0 O3 1.970 . S
Co0 N17 1.989 . S
Co0 O25 1.967 . S
Co0 O32 1.920 . S
Co1 O4 1.966 . S
Co1 N10 2.022 1_554 S
Co1 N18 1.993 . S
Co1 O26 1.933 1_554 S
C2 O3 1.258 . S
C2 O4 1.263 . S
O3 Co0 1.970 . S
O3 C2 1.258 . S
O4 Co1 1.966 . S
O4 C2 1.263 . S
C5 O6 1.235 . S
C5 O32 1.289 . S
O6 C5 1.235 . S
C7 C9 1.400 . S
C7 N10 1.351 . S
C7 C12 1.501 1_556 S
C8 C9 1.387 . S
C8 N11 1.341 . S
C9 C7 1.400 . S
C9 C8 1.387 . S
N10 Co1 2.022 1_556 S
N10 C7 1.351 . S
N10 N11 1.365 . S
N11 C8 1.341 . S
N11 N10 1.365 . S
N11 H31 0.862 . S
C12 C7 1.501 1_554 S
C12 H13 0.961 . S
C12 H14 0.961 . S
C12 H15 0.960 . S
H13 C12 0.961 . S
H14 C12 0.961 . S
H15 C12 0.960 . S
C16 N17 1.342 . S
C16 C20 1.401 1_554 S
C16 C21 1.499 . S
N17 Co0 1.989 . S
N17 C16 1.342 . S
N17 N18 1.388 . S
N18 Co1 1.993 . S
N18 N17 1.388 . S
N18 C19 1.346 1_554 S
C19 N18 1.346 1_556 S
C19 C20 1.396 . S
C19 C29 1.510 . S
C20 C16 1.401 1_556 S
C20 C19 1.396 . S
C21 C16 1.499 . S
C21 H22 0.959 . S
C21 H23 0.960 . S
C21 H24 0.961 . S
H22 C21 0.959 . S
H23 C21 0.960 . S
H24 C21 0.961 . S
O25 Co0 1.967 . S
O25 C33 1.258 . S
O26 Co1 1.933 1_556 S
O26 C33 1.254 1_556 S
H27 C29 0.959 . S
H28 C29 0.961 . S
C29 C19 1.510 . S
C29 H27 0.959 . S
C29 H28 0.961 . S
C29 H30 0.960 . S
H30 C29 0.960 . S
H31 N11 0.862 . S
O32 Co0 1.920 . S
O32 C5 1.289 . S
C33 O25 1.258 . S
C33 O26 1.254 1_554 S
Co34 O37 1.970 . S
Co34 N51 1.989 . S
Co34 O59 1.967 . S
Co34 O66 1.920 . S
Co35 O38 1.966 . S
Co35 N44 2.022 . S
Co35 N52 1.993 . S
Co35 O60 1.941 . S
C36 O37 1.258 . S
C36 O38 1.263 . S
O37 Co34 1.970 . S
O37 C36 1.258 . S
O38 Co35 1.966 . S
O38 C36 1.263 . S
C39 O40 1.235 . S
C39 O66 1.289 . S
O40 C39 1.235 . S
C41 C43 1.400 . S
C41 N44 1.351 . S
C41 C46 1.501 . S
C42 C43 1.387 . S
C42 N45 1.341 . S
C43 C41 1.400 . S
C43 C42 1.387 . S
N44 Co35 2.022 . S
N44 C41 1.351 . S
N44 N45 1.365 . S
N45 C42 1.341 . S
N45 N44 1.365 . S
N45 H65 0.862 . S
C46 C41 1.501 . S
C46 H47 0.961 . S
C46 H48 0.961 . S
C46 H49 0.960 . S
H47 C46 0.961 . S
H48 C46 0.961 . S
H49 C46 0.960 . S
C50 N51 1.342 . S
C50 C54 1.401 . S
C50 C55 1.499 . S
N51 Co34 1.989 . S
N51 C50 1.342 . S
N51 N52 1.388 . S
N52 Co35 1.993 . S
N52 N51 1.388 . S
N52 C53 1.346 . S
C53 N52 1.346 . S
C53 C54 1.396 . S
C53 C63 1.510 . S
C54 C50 1.401 . S
C54 C53 1.396 . S
C55 C50 1.499 . S
C55 H56 0.959 . S
C55 H57 0.960 . S
C55 H58 0.961 . S
H56 C55 0.959 . S
H57 C55 0.960 . S
H58 C55 0.961 . S
O59 Co34 1.967 . S
O59 C67 1.258 . S
O60 Co35 1.941 . S
O60 C67 1.266 . S
H61 C63 0.959 . S
H62 C63 0.961 . S
C63 C53 1.510 . S
C63 H61 0.959 . S
C63 H62 0.961 . S
C63 H64 0.960 . S
H64 C63 0.960 . S
H65 N45 0.862 . S
O66 Co34 1.920 . S
O66 C39 1.289 . S
C67 O59 1.258 . S
C67 O60 1.266 . S
Co68 O71 1.970 . S
Co68 N85 1.989 . S
Co68 O93 1.967 . S
Co68 O100 1.920 . S
Co69 O72 1.966 . S
Co69 N78 2.022 . S
Co69 N86 1.993 . S
Co69 O94 1.941 . S
C70 O71 1.258 . S
C70 O72 1.263 . S
O71 Co68 1.970 . S
O71 C70 1.258 . S
O72 Co69 1.966 . S
O72 C70 1.263 . S
C73 O74 1.235 . S
C73 O100 1.289 . S
O74 C73 1.235 . S
C75 C77 1.400 . S
C75 N78 1.351 . S
C75 C80 1.501 . S
C76 C77 1.387 . S
C76 N79 1.341 . S
C77 C75 1.400 . S
C77 C76 1.387 . S
N78 Co69 2.022 . S
N78 C75 1.351 . S
N78 N79 1.365 . S
N79 C76 1.341 . S
N79 N78 1.365 . S
N79 H99 0.862 . S
C80 C75 1.501 . S
C80 H81 0.961 . S
C80 H82 0.961 . S
C80 H83 0.960 . S
H81 C80 0.961 . S
H82 C80 0.961 . S
H83 C80 0.960 . S
C84 N85 1.342 . S
C84 C88 1.401 . S
C84 C89 1.499 . S
N85 Co68 1.989 . S
N85 C84 1.342 . S
N85 N86 1.388 . S
N86 Co69 1.993 . S
N86 N85 1.388 . S
N86 C87 1.346 . S
C87 N86 1.346 . S
C87 C88 1.396 . S
C87 C97 1.510 . S
C88 C84 1.401 . S
C88 C87 1.396 . S
C89 C84 1.499 . S
C89 H90 0.959 . S
C89 H91 0.960 . S
C89 H92 0.961 . S
H90 C89 0.959 . S
H91 C89 0.960 . S
H92 C89 0.961 . S
O93 Co68 1.967 . S
O93 C101 1.258 . S
O94 Co69 1.941 . S
O94 C101 1.266 . S
H95 C97 0.959 . S
H96 C97 0.961 . S
C97 C87 1.510 . S
C97 H95 0.959 . S
C97 H96 0.961 . S
C97 H98 0.960 . S
H98 C97 0.960 . S
H99 N79 0.862 . S
O100 Co68 1.920 . S
O100 C73 1.289 . S
C101 O93 1.258 . S
C101 O94 1.266 . S
Co102 O105 1.970 . S
Co102 N119 1.989 . S
Co102 O127 1.967 . S
Co102 O134 1.920 . S
Co103 O106 1.966 . S
Co103 N112 2.022 . S
Co103 N120 1.993 . S
Co103 O128 1.941 . S
C104 O105 1.258 . S
C104 O106 1.263 . S
O105 Co102 1.970 . S
O105 C104 1.258 . S
O106 Co103 1.966 . S
O106 C104 1.263 . S
C107 O108 1.235 . S
C107 O134 1.289 . S
O108 C107 1.235 . S
C109 C111 1.400 . S
C109 N112 1.351 . S
C109 C114 1.501 . S
C110 C111 1.387 . S
C110 N113 1.341 . S
C111 C109 1.400 . S
C111 C110 1.387 . S
N112 Co103 2.022 . S
N112 C109 1.351 . S
N112 N113 1.365 . S
N113 C110 1.341 . S
N113 N112 1.365 . S
N113 H133 0.862 . S
C114 C109 1.501 . S
C114 H115 0.961 . S
C114 H116 0.961 . S
C114 H117 0.960 . S
H115 C114 0.961 . S
H116 C114 0.961 . S
H117 C114 0.960 . S
C118 N119 1.342 . S
C118 C122 1.401 . S
C118 C123 1.499 . S
N119 Co102 1.989 . S
N119 C118 1.342 . S
N119 N120 1.388 . S
N120 Co103 1.993 . S
N120 N119 1.388 . S
N120 C121 1.346 . S
C121 N120 1.346 . S
C121 C122 1.396 . S
C121 C131 1.510 . S
C122 C118 1.401 . S
C122 C121 1.396 . S
C123 C118 1.499 . S
C123 H124 0.959 . S
C123 H125 0.960 . S
C123 H126 0.961 . S
H124 C123 0.959 . S
H125 C123 0.960 . S
H126 C123 0.961 . S
O127 Co102 1.967 . S
O127 C135 1.258 . S
O128 Co103 1.941 . S
O128 C135 1.266 . S
H129 C131 0.959 . S
H130 C131 0.961 . S
C131 C121 1.510 . S
C131 H129 0.959 . S
C131 H130 0.961 . S
C131 H132 0.960 . S
H132 C131 0.960 . S
H133 N113 0.862 . S
O134 Co102 1.920 . S
O134 C107 1.289 . S
C135 O127 1.258 . S
C135 O128 1.266 . S
Co136 O139 1.970 . S
Co136 N153 1.989 . S
Co136 O161 1.967 . S
Co136 O168 1.920 . S
Co137 O140 1.966 . S
Co137 N146 2.022 1_556 S
Co137 N154 1.993 . S
Co137 O162 1.933 1_556 S
C138 O139 1.258 . S
C138 O140 1.263 . S
O139 Co136 1.970 . S
O139 C138 1.258 . S
O140 Co137 1.966 . S
O140 C138 1.263 . S
C141 O142 1.235 . S
C141 O168 1.289 . S
O142 C141 1.235 . S
C143 C145 1.400 . S
C143 N146 1.351 . S
C143 C148 1.501 1_554 S
C144 C145 1.387 . S
C144 N147 1.341 . S
C145 C143 1.400 . S
C145 C144 1.387 . S
N146 Co137 2.022 1_554 S
N146 C143 1.351 . S
N146 N147 1.365 . S
N147 C144 1.341 . S
N147 N146 1.365 . S
N147 H167 0.862 . S
C148 C143 1.501 1_556 S
C148 H149 0.961 . S
C148 H150 0.961 . S
C148 H151 0.960 . S
H149 C148 0.961 . S
H150 C148 0.961 . S
H151 C148 0.960 . S
C152 N153 1.342 . S
C152 C156 1.401 1_556 S
C152 C157 1.499 . S
N153 Co136 1.989 . S
N153 C152 1.342 . S
N153 N154 1.388 . S
N154 Co137 1.993 . S
N154 N153 1.388 . S
N154 C155 1.346 1_556 S
C155 N154 1.346 1_554 S
C155 C156 1.396 . S
C155 C165 1.510 . S
C156 C152 1.401 1_554 S
C156 C155 1.396 . S
C157 C152 1.499 . S
C157 H158 0.959 . S
C157 H159 0.960 . S
C157 H160 0.961 . S
H158 C157 0.959 . S
H159 C157 0.960 . S
H160 C157 0.961 . S
O161 Co136 1.967 . S
O161 C169 1.258 . S
O162 Co137 1.933 1_554 S
O162 C169 1.254 1_554 S
H163 C165 0.959 . S
H164 C165 0.961 . S
C165 C155 1.510 . S
C165 H163 0.959 . S
C165 H164 0.961 . S
C165 H166 0.960 . S
H166 C165 0.960 . S
H167 N147 0.862 . S
O168 Co136 1.920 . S
O168 C141 1.289 . S
C169 O161 1.258 . S
C169 O162 1.254 1_556 S
Co170 O173 1.970 . S
Co170 N187 1.989 . S
Co170 O195 1.967 . S
Co170 O202 1.920 . S
Co171 O174 1.966 . S
Co171 N180 2.022 . S
Co171 N188 1.993 . S
Co171 O196 1.941 . S
C172 O173 1.258 . S
C172 O174 1.263 . S
O173 Co170 1.970 . S
O173 C172 1.258 . S
O174 Co171 1.966 . S
O174 C172 1.263 . S
C175 O176 1.235 . S
C175 O202 1.289 . S
O176 C175 1.235 . S
C177 C179 1.400 . S
C177 N180 1.351 . S
C177 C182 1.501 . S
C178 C179 1.387 . S
C178 N181 1.341 . S
C179 C177 1.400 . S
C179 C178 1.387 . S
N180 Co171 2.022 . S
N180 C177 1.351 . S
N180 N181 1.365 . S
N181 C178 1.341 . S
N181 N180 1.365 . S
N181 H201 0.862 . S
C182 C177 1.501 . S
C182 H183 0.961 . S
C182 H184 0.961 . S
C182 H185 0.960 . S
H183 C182 0.961 . S
H184 C182 0.961 . S
H185 C182 0.960 . S
C186 N187 1.342 . S
C186 C190 1.401 . S
C186 C191 1.499 . S
N187 Co170 1.989 . S
N187 C186 1.342 . S
N187 N188 1.388 . S
N188 Co171 1.993 . S
N188 N187 1.388 . S
N188 C189 1.346 . S
C189 N188 1.346 . S
C189 C190 1.396 . S
C189 C199 1.510 . S
C190 C186 1.401 . S
C190 C189 1.396 . S
C191 C186 1.499 . S
C191 H192 0.959 . S
C191 H193 0.960 . S
C191 H194 0.961 . S
H192 C191 0.959 . S
H193 C191 0.960 . S
H194 C191 0.961 . S
O195 Co170 1.967 . S
O195 C203 1.258 . S
O196 Co171 1.941 . S
O196 C203 1.266 . S
H197 C199 0.959 . S
H198 C199 0.961 . S
C199 C189 1.510 . S
C199 H197 0.959 . S
C199 H198 0.961 . S
C199 H200 0.960 . S
H200 C199 0.960 . S
H201 N181 0.862 . S
O202 Co170 1.920 . S
O202 C175 1.289 . S
C203 O195 1.258 . S
C203 O196 1.266 . S
Co204 O207 1.970 . S
Co204 N221 1.989 . S
Co204 O229 1.967 . S
Co204 O236 1.920 . S
Co205 O208 1.966 . S
Co205 N214 2.022 . S
Co205 N222 1.993 . S
Co205 O230 1.941 . S
C206 O207 1.258 . S
C206 O208 1.263 . S
O207 Co204 1.970 . S
O207 C206 1.258 . S
O208 Co205 1.966 . S
O208 C206 1.263 . S
C209 O210 1.235 . S
C209 O236 1.289 . S
O210 C209 1.235 . S
C211 C213 1.400 . S
C211 N214 1.351 . S
C211 C216 1.501 . S
C212 C213 1.387 . S
C212 N215 1.341 . S
C213 C211 1.400 . S
C213 C212 1.387 . S
N214 Co205 2.022 . S
N214 C211 1.351 . S
N214 N215 1.365 . S
N215 C212 1.341 . S
N215 N214 1.365 . S
N215 H235 0.862 . S
C216 C211 1.501 . S
C216 H217 0.961 . S
C216 H218 0.961 . S
C216 H219 0.960 . S
H217 C216 0.961 . S
H218 C216 0.961 . S
H219 C216 0.960 . S
C220 N221 1.342 . S
C220 C224 1.401 . S
C220 C225 1.499 . S
N221 Co204 1.989 . S
N221 C220 1.342 . S
N221 N222 1.388 . S
N222 Co205 1.993 . S
N222 N221 1.388 . S
N222 C223 1.346 . S
C223 N222 1.346 . S
C223 C224 1.396 . S
C223 C233 1.510 . S
C224 C220 1.401 . S
C224 C223 1.396 . S
C225 C220 1.499 . S
C225 H226 0.959 . S
C225 H227 0.960 . S
C225 H228 0.961 . S
H226 C225 0.959 . S
H227 C225 0.960 . S
H228 C225 0.961 . S
O229 Co204 1.967 . S
O229 C237 1.258 . S
O230 Co205 1.941 . S
O230 C237 1.266 . S
H231 C233 0.959 . S
H232 C233 0.961 . S
C233 C223 1.510 . S
C233 H231 0.959 . S
C233 H232 0.961 . S
C233 H234 0.960 . S
H234 C233 0.960 . S
H235 N215 0.862 . S
O236 Co204 1.920 . S
O236 C209 1.289 . S
C237 O229 1.258 . S
C237 O230 1.266 . S
Co238 O241 1.970 . S
Co238 N255 1.989 . S
Co238 O263 1.967 . S
Co238 O270 1.920 . S
Co239 O242 1.966 . S
Co239 N248 2.022 . S
Co239 N256 1.993 . S
Co239 O264 1.941 . S
C240 O241 1.258 . S
C240 O242 1.263 . S
O241 Co238 1.970 . S
O241 C240 1.258 . S
O242 Co239 1.966 . S
O242 C240 1.263 . S
C243 O244 1.235 . S
C243 O270 1.289 . S
O244 C243 1.235 . S
C245 C247 1.400 . S
C245 N248 1.351 . S
C245 C250 1.501 . S
C246 C247 1.387 . S
C246 N249 1.341 . S
C247 C245 1.400 . S
C247 C246 1.387 . S
N248 Co239 2.022 . S
N248 C245 1.351 . S
N248 N249 1.365 . S
N249 C246 1.341 . S
N249 N248 1.365 . S
N249 H269 0.862 . S
C250 C245 1.501 . S
C250 H251 0.961 . S
C250 H252 0.961 . S
C250 H253 0.960 . S
H251 C250 0.961 . S
H252 C250 0.961 . S
H253 C250 0.960 . S
C254 N255 1.342 . S
C254 C258 1.401 . S
C254 C259 1.499 . S
N255 Co238 1.989 . S
N255 C254 1.342 . S
N255 N256 1.388 . S
N256 Co239 1.993 . S
N256 N255 1.388 . S
N256 C257 1.346 . S
C257 N256 1.346 . S
C257 C258 1.396 . S
C257 C267 1.510 . S
C258 C254 1.401 . S
C258 C257 1.396 . S
C259 C254 1.499 . S
C259 H260 0.959 . S
C259 H261 0.960 . S
C259 H262 0.961 . S
H260 C259 0.959 . S
H261 C259 0.960 . S
H262 C259 0.961 . S
O263 Co238 1.967 . S
O263 C271 1.258 . S
O264 Co239 1.941 . S
O264 C271 1.266 . S
H265 C267 0.959 . S
H266 C267 0.961 . S
C267 C257 1.510 . S
C267 H265 0.959 . S
C267 H266 0.961 . S
C267 H268 0.960 . S
H268 C267 0.960 . S
H269 N249 0.862 . S
O270 Co238 1.920 . S
O270 C243 1.289 . S
C271 O263 1.258 . S
C271 O264 1.266 . S
Co272 O275 1.970 . S
Co272 N289 1.989 . S
Co272 O297 1.967 . S
Co272 O304 1.920 . S
Co273 O276 1.966 . S
Co273 N282 2.022 . S
Co273 N290 1.993 . S
Co273 O298 1.941 . S
C274 O275 1.258 . S
C274 O276 1.263 . S
O275 Co272 1.970 . S
O275 C274 1.258 . S
O276 Co273 1.966 . S
O276 C274 1.263 . S
C277 O278 1.235 . S
C277 O304 1.289 . S
O278 C277 1.235 . S
C279 C281 1.400 . S
C279 N282 1.351 . S
C279 C284 1.501 . S
C280 C281 1.387 . S
C280 N283 1.341 . S
C281 C279 1.400 . S
C281 C280 1.387 . S
N282 Co273 2.022 . S
N282 C279 1.351 . S
N282 N283 1.365 . S
N283 C280 1.341 . S
N283 N282 1.365 . S
N283 H303 0.862 . S
C284 C279 1.501 . S
C284 H285 0.961 . S
C284 H286 0.961 . S
C284 H287 0.960 . S
H285 C284 0.961 . S
H286 C284 0.961 . S
H287 C284 0.960 . S
C288 N289 1.342 . S
C288 C292 1.401 . S
C288 C293 1.499 . S
N289 Co272 1.989 . S
N289 C288 1.342 . S
N289 N290 1.388 . S
N290 Co273 1.993 . S
N290 N289 1.388 . S
N290 C291 1.346 . S
C291 N290 1.346 . S
C291 C292 1.396 . S
C291 C301 1.510 . S
C292 C288 1.401 . S
C292 C291 1.396 . S
C293 C288 1.499 . S
C293 H294 0.959 . S
C293 H295 0.960 . S
C293 H296 0.961 . S
H294 C293 0.959 . S
H295 C293 0.960 . S
H296 C293 0.961 . S
O297 Co272 1.967 . S
O297 C305 1.258 . S
O298 Co273 1.941 . S
O298 C305 1.266 . S
H299 C301 0.959 . S
H300 C301 0.961 . S
C301 C291 1.510 . S
C301 H299 0.959 . S
C301 H300 0.961 . S
C301 H302 0.960 . S
H302 C301 0.960 . S
H303 N283 0.862 . S
O304 Co272 1.920 . S
O304 C277 1.289 . S
C305 O297 1.258 . S
C305 O298 1.266 . S
Co306 O309 1.970 . S
Co306 N323 1.989 . S
Co306 O331 1.967 . S
Co306 O338 1.920 . S
Co307 O310 1.966 . S
Co307 N316 2.022 . S
Co307 N324 1.993 . S
Co307 O332 1.941 . S
C308 O309 1.258 . S
C308 O310 1.263 . S
O309 Co306 1.970 . S
O309 C308 1.258 . S
O310 Co307 1.966 . S
O310 C308 1.263 . S
C311 O312 1.235 . S
C311 O338 1.289 . S
O312 C311 1.235 . S
C313 C315 1.400 . S
C313 N316 1.351 . S
C313 C318 1.501 . S
C314 C315 1.387 . S
C314 N317 1.341 . S
C315 C313 1.400 . S
C315 C314 1.387 . S
N316 Co307 2.022 . S
N316 C313 1.351 . S
N316 N317 1.365 . S
N317 C314 1.341 . S
N317 N316 1.365 . S
N317 H337 0.862 . S
C318 C313 1.501 . S
C318 H319 0.961 . S
C318 H320 0.961 . S
C318 H321 0.960 . S
H319 C318 0.961 . S
H320 C318 0.961 . S
H321 C318 0.960 . S
C322 N323 1.342 . S
C322 C326 1.401 . S
C322 C327 1.499 . S
N323 Co306 1.989 . S
N323 C322 1.342 . S
N323 N324 1.388 . S
N324 Co307 1.993 . S
N324 N323 1.388 . S
N324 C325 1.346 . S
C325 N324 1.346 . S
C325 C326 1.396 . S
C325 C335 1.510 . S
C326 C322 1.401 . S
C326 C325 1.396 . S
C327 C322 1.499 . S
C327 H328 0.959 . S
C327 H329 0.960 . S
C327 H330 0.961 . S
H328 C327 0.959 . S
H329 C327 0.960 . S
H330 C327 0.961 . S
O331 Co306 1.967 . S
O331 C339 1.258 . S
O332 Co307 1.941 . S
O332 C339 1.266 . S
H333 C335 0.959 . S
H334 C335 0.961 . S
C335 C325 1.510 . S
C335 H333 0.959 . S
C335 H334 0.961 . S
C335 H336 0.960 . S
H336 C335 0.960 . S
H337 N317 0.862 . S
O338 Co306 1.920 . S
O338 C311 1.289 . S
C339 O331 1.258 . S
C339 O332 1.266 . S
Co340 O343 1.970 . S
Co340 N357 1.989 . S
Co340 O365 1.967 . S
Co340 O372 1.920 . S
Co341 O344 1.966 . S
Co341 N350 2.022 1_554 S
Co341 N358 1.993 . S
Co341 O366 1.933 1_554 S
C342 O343 1.258 . S
C342 O344 1.263 . S
O343 Co340 1.970 . S
O343 C342 1.258 . S
O344 Co341 1.966 . S
O344 C342 1.263 . S
C345 O346 1.235 . S
C345 O372 1.289 . S
O346 C345 1.235 . S
C347 C349 1.400 . S
C347 N350 1.351 . S
C347 C352 1.501 1_556 S
C348 C349 1.387 . S
C348 N351 1.341 . S
C349 C347 1.400 . S
C349 C348 1.387 . S
N350 Co341 2.022 1_556 S
N350 C347 1.351 . S
N350 N351 1.365 . S
N351 C348 1.341 . S
N351 N350 1.365 . S
N351 H371 0.862 . S
C352 C347 1.501 1_554 S
C352 H353 0.961 . S
C352 H354 0.961 . S
C352 H355 0.960 . S
H353 C352 0.961 . S
H354 C352 0.961 . S
H355 C352 0.960 . S
C356 N357 1.342 . S
C356 C360 1.401 1_554 S
C356 C361 1.499 . S
N357 Co340 1.989 . S
N357 C356 1.342 . S
N357 N358 1.388 . S
N358 Co341 1.993 . S
N358 N357 1.388 . S
N358 C359 1.346 1_554 S
C359 N358 1.346 1_556 S
C359 C360 1.396 . S
C359 C369 1.510 . S
C360 C356 1.401 1_556 S
C360 C359 1.396 . S
C361 C356 1.499 . S
C361 H362 0.959 . S
C361 H363 0.960 . S
C361 H364 0.961 . S
H362 C361 0.959 . S
H363 C361 0.960 . S
H364 C361 0.961 . S
O365 Co340 1.967 . S
O365 C373 1.258 . S
O366 Co341 1.933 1_556 S
O366 C373 1.254 1_556 S
H367 C369 0.959 . S
H368 C369 0.961 . S
C369 C359 1.510 . S
C369 H367 0.959 . S
C369 H368 0.961 . S
C369 H370 0.960 . S
H370 C369 0.960 . S
H371 N351 0.862 . S
O372 Co340 1.920 . S
O372 C345 1.289 . S
C373 O365 1.258 . S
C373 O366 1.254 1_554 S
Co374 O377 1.970 . S
Co374 N391 1.989 . S
Co374 O399 1.967 . S
Co374 O406 1.920 . S
Co375 O378 1.966 . S
Co375 N384 2.022 . S
Co375 N392 1.993 . S
Co375 O400 1.941 . S
C376 O377 1.258 . S
C376 O378 1.263 . S
O377 Co374 1.970 . S
O377 C376 1.258 . S
O378 Co375 1.966 . S
O378 C376 1.263 . S
C379 O380 1.235 . S
C379 O406 1.289 . S
O380 C379 1.235 . S
C381 C383 1.400 . S
C381 N384 1.351 . S
C381 C386 1.501 . S
C382 C383 1.387 . S
C382 N385 1.341 . S
C383 C381 1.400 . S
C383 C382 1.387 . S
N384 Co375 2.022 . S
N384 C381 1.351 . S
N384 N385 1.365 . S
N385 C382 1.341 . S
N385 N384 1.365 . S
N385 H405 0.862 . S
C386 C381 1.501 . S
C386 H387 0.961 . S
C386 H388 0.961 . S
C386 H389 0.960 . S
H387 C386 0.961 . S
H388 C386 0.961 . S
H389 C386 0.960 . S
C390 N391 1.342 . S
C390 C394 1.401 . S
C390 C395 1.499 . S
N391 Co374 1.989 . S
N391 C390 1.342 . S
N391 N392 1.388 . S
N392 Co375 1.993 . S
N392 N391 1.388 . S
N392 C393 1.346 . S
C393 N392 1.346 . S
C393 C394 1.396 . S
C393 C403 1.510 . S
C394 C390 1.401 . S
C394 C393 1.396 . S
C395 C390 1.499 . S
C395 H396 0.959 . S
C395 H397 0.960 . S
C395 H398 0.961 . S
H396 C395 0.959 . S
H397 C395 0.960 . S
H398 C395 0.961 . S
O399 Co374 1.967 . S
O399 C407 1.258 . S
O400 Co375 1.941 . S
O400 C407 1.266 . S
H401 C403 0.959 . S
H402 C403 0.961 . S
C403 C393 1.510 . S
C403 H401 0.959 . S
C403 H402 0.961 . S
C403 H404 0.960 . S
H404 C403 0.960 . S
H405 N385 0.862 . S
O406 Co374 1.920 . S
O406 C379 1.289 . S
C407 O399 1.258 . S
C407 O400 1.266 . S
Co408 O411 1.970 . S
Co408 N425 1.989 . S
Co408 O433 1.967 . S
Co408 O440 1.920 . S
Co409 O412 1.966 . S
Co409 N418 2.022 . S
Co409 N426 1.993 . S
Co409 O434 1.941 . S
C410 O411 1.258 . S
C410 O412 1.263 . S
O411 Co408 1.970 . S
O411 C410 1.258 . S
O412 Co409 1.966 . S
O412 C410 1.263 . S
C413 O414 1.235 . S
C413 O440 1.289 . S
O414 C413 1.235 . S
C415 C417 1.400 . S
C415 N418 1.351 . S
C415 C420 1.501 . S
C416 C417 1.387 . S
C416 N419 1.341 . S
C417 C415 1.400 . S
C417 C416 1.387 . S
N418 Co409 2.022 . S
N418 C415 1.351 . S
N418 N419 1.365 . S
N419 C416 1.341 . S
N419 N418 1.365 . S
N419 H439 0.862 . S
C420 C415 1.501 . S
C420 H421 0.961 . S
C420 H422 0.961 . S
C420 H423 0.960 . S
H421 C420 0.961 . S
H422 C420 0.961 . S
H423 C420 0.960 . S
C424 N425 1.342 . S
C424 C428 1.401 . S
C424 C429 1.499 . S
N425 Co408 1.989 . S
N425 C424 1.342 . S
N425 N426 1.388 . S
N426 Co409 1.993 . S
N426 N425 1.388 . S
N426 C427 1.346 . S
C427 N426 1.346 . S
C427 C428 1.396 . S
C427 C437 1.510 . S
C428 C424 1.401 . S
C428 C427 1.396 . S
C429 C424 1.499 . S
C429 H430 0.959 . S
C429 H431 0.960 . S
C429 H432 0.961 . S
H430 C429 0.959 . S
H431 C429 0.960 . S
H432 C429 0.961 . S
O433 Co408 1.967 . S
O433 C441 1.258 . S
O434 Co409 1.941 . S
O434 C441 1.266 . S
H435 C437 0.959 . S
H436 C437 0.961 . S
C437 C427 1.510 . S
C437 H435 0.959 . S
C437 H436 0.961 . S
C437 H438 0.960 . S
H438 C437 0.960 . S
H439 N419 0.862 . S
O440 Co408 1.920 . S
O440 C413 1.289 . S
C441 O433 1.258 . S
C441 O434 1.266 . S
Co442 O445 1.970 . S
Co442 N459 1.989 . S
Co442 O467 1.967 . S
Co442 O474 1.920 . S
Co443 O446 1.966 . S
Co443 N452 2.022 . S
Co443 N460 1.993 . S
Co443 O468 1.941 . S
C444 O445 1.258 . S
C444 O446 1.263 . S
O445 Co442 1.970 . S
O445 C444 1.258 . S
O446 Co443 1.966 . S
O446 C444 1.263 . S
C447 O448 1.235 . S
C447 O474 1.289 . S
O448 C447 1.235 . S
C449 C451 1.400 . S
C449 N452 1.351 . S
C449 C454 1.501 . S
C450 C451 1.387 . S
C450 N453 1.341 . S
C451 C449 1.400 . S
C451 C450 1.387 . S
N452 Co443 2.022 . S
N452 C449 1.351 . S
N452 N453 1.365 . S
N453 C450 1.341 . S
N453 N452 1.365 . S
N453 H473 0.862 . S
C454 C449 1.501 . S
C454 H455 0.961 . S
C454 H456 0.961 . S
C454 H457 0.960 . S
H455 C454 0.961 . S
H456 C454 0.961 . S
H457 C454 0.960 . S
C458 N459 1.342 . S
C458 C462 1.401 . S
C458 C463 1.499 . S
N459 Co442 1.989 . S
N459 C458 1.342 . S
N459 N460 1.388 . S
N460 Co443 1.993 . S
N460 N459 1.388 . S
N460 C461 1.346 . S
C461 N460 1.346 . S
C461 C462 1.396 . S
C461 C471 1.510 . S
C462 C458 1.401 . S
C462 C461 1.396 . S
C463 C458 1.499 . S
C463 H464 0.959 . S
C463 H465 0.960 . S
C463 H466 0.961 . S
H464 C463 0.959 . S
H465 C463 0.960 . S
H466 C463 0.961 . S
O467 Co442 1.967 . S
O467 C475 1.258 . S
O468 Co443 1.941 . S
O468 C475 1.266 . S
H469 C471 0.959 . S
H470 C471 0.961 . S
C471 C461 1.510 . S
C471 H469 0.959 . S
C471 H470 0.961 . S
C471 H472 0.960 . S
H472 C471 0.960 . S
H473 N453 0.862 . S
O474 Co442 1.920 . S
O474 C447 1.289 . S
C475 O467 1.258 . S
C475 O468 1.266 . S
Co476 O479 1.970 . S
Co476 N493 1.989 . S
Co476 O501 1.967 . S
Co476 O508 1.920 . S
Co477 O480 1.966 . S
Co477 N486 2.022 1_556 S
Co477 N494 1.993 . S
Co477 O502 1.933 1_556 S
C478 O479 1.258 . S
C478 O480 1.263 . S
O479 Co476 1.970 . S
O479 C478 1.258 . S
O480 Co477 1.966 . S
O480 C478 1.263 . S
C481 O482 1.235 . S
C481 O508 1.289 . S
O482 C481 1.235 . S
C483 C485 1.400 . S
C483 N486 1.351 . S
C483 C488 1.501 1_554 S
C484 C485 1.387 . S
C484 N487 1.341 . S
C485 C483 1.400 . S
C485 C484 1.387 . S
N486 Co477 2.022 1_554 S
N486 C483 1.351 . S
N486 N487 1.365 . S
N487 C484 1.341 . S
N487 N486 1.365 . S
N487 H507 0.862 . S
C488 C483 1.501 1_556 S
C488 H489 0.961 . S
C488 H490 0.961 . S
C488 H491 0.960 . S
H489 C488 0.961 . S
H490 C488 0.961 . S
H491 C488 0.960 . S
C492 N493 1.342 . S
C492 C496 1.401 1_556 S
C492 C497 1.499 . S
N493 Co476 1.989 . S
N493 C492 1.342 . S
N493 N494 1.388 . S
N494 Co477 1.993 . S
N494 N493 1.388 . S
N494 C495 1.346 1_556 S
C495 N494 1.346 1_554 S
C495 C496 1.396 . S
C495 C505 1.510 . S
C496 C492 1.401 1_554 S
C496 C495 1.396 . S
C497 C492 1.499 . S
C497 H498 0.959 . S
C497 H499 0.960 . S
C497 H500 0.961 . S
H498 C497 0.959 . S
H499 C497 0.960 . S
H500 C497 0.961 . S
O501 Co476 1.967 . S
O501 C509 1.258 . S
O502 Co477 1.933 1_554 S
O502 C509 1.254 1_554 S
H503 C505 0.959 . S
H504 C505 0.961 . S
C505 C495 1.510 . S
C505 H503 0.959 . S
C505 H504 0.961 . S
C505 H506 0.960 . S
H506 C505 0.960 . S
H507 N487 0.862 . S
O508 Co476 1.920 . S
O508 C481 1.289 . S
C509 O501 1.258 . S
C509 O502 1.254 1_556 S
Co510 O513 1.970 . S
Co510 N527 1.989 . S
Co510 O535 1.967 . S
Co510 O542 1.920 . S
Co511 O514 1.966 . S
Co511 N520 2.022 . S
Co511 N528 1.993 . S
Co511 O536 1.941 . S
C512 O513 1.258 . S
C512 O514 1.263 . S
O513 Co510 1.970 . S
O513 C512 1.258 . S
O514 Co511 1.966 . S
O514 C512 1.263 . S
C515 O516 1.235 . S
C515 O542 1.289 . S
O516 C515 1.235 . S
C517 C519 1.400 . S
C517 N520 1.351 . S
C517 C522 1.501 . S
C518 C519 1.387 . S
C518 N521 1.341 . S
C519 C517 1.400 . S
C519 C518 1.387 . S
N520 Co511 2.022 . S
N520 C517 1.351 . S
N520 N521 1.365 . S
N521 C518 1.341 . S
N521 N520 1.365 . S
N521 H541 0.862 . S
C522 C517 1.501 . S
C522 H523 0.961 . S
C522 H524 0.961 . S
C522 H525 0.960 . S
H523 C522 0.961 . S
H524 C522 0.961 . S
H525 C522 0.960 . S
C526 N527 1.342 . S
C526 C530 1.401 . S
C526 C531 1.499 . S
N527 Co510 1.989 . S
N527 C526 1.342 . S
N527 N528 1.388 . S
N528 Co511 1.993 . S
N528 N527 1.388 . S
N528 C529 1.346 . S
C529 N528 1.346 . S
C529 C530 1.396 . S
C529 C539 1.510 . S
C530 C526 1.401 . S
C530 C529 1.396 . S
C531 C526 1.499 . S
C531 H532 0.959 . S
C531 H533 0.960 . S
C531 H534 0.961 . S
H532 C531 0.959 . S
H533 C531 0.960 . S
H534 C531 0.961 . S
O535 Co510 1.967 . S
O535 C543 1.258 . S
O536 Co511 1.941 . S
O536 C543 1.266 . S
H537 C539 0.959 . S
H538 C539 0.961 . S
C539 C529 1.510 . S
C539 H537 0.959 . S
C539 H538 0.961 . S
C539 H540 0.960 . S
H540 C539 0.960 . S
H541 N521 0.862 . S
O542 Co510 1.920 . S
O542 C515 1.289 . S
C543 O535 1.258 . S
C543 O536 1.266 . S
H544 C552 0.929 . S
H545 C554 0.930 . S
H546 C556 0.930 . S
H547 C559 0.929 . S
H548 C562 0.930 . S
H549 C564 0.960 . S
H550 C564 0.960 . S
H551 C564 0.960 . S
C552 H544 0.929 . S
C552 C553 1.377 . S
C552 C554 1.384 . S
C553 C552 1.377 . S
C553 C559 1.390 . S
C554 H545 0.930 . S
C554 C552 1.384 . S
C554 C555 1.372 . S
C555 C554 1.372 . S
C555 C556 1.400 . S
C555 C560 1.490 . S
C556 H546 0.930 . S
C556 C555 1.400 . S
C556 C559 1.386 . S
H557 C573 0.930 1_554 S
H558 C574 0.931 . S
C559 H547 0.929 . S
C559 C553 1.390 . S
C559 C556 1.386 . S
C560 C555 1.490 . S
C560 C562 1.395 . S
C560 C563 1.403 . S
H561 C567 0.930 . S
C562 H548 0.930 . S
C562 C560 1.395 . S
C562 C565 1.403 . S
C563 C560 1.403 . S
C563 C564 1.524 . S
C563 C567 1.400 . S
C564 H549 0.960 . S
C564 H550 0.960 . S
C564 H551 0.960 . S
C564 C563 1.524 . S
C565 C562 1.403 . S
C565 C566 1.392 . S
C565 C569 1.495 . S
C566 C565 1.392 . S
C566 C567 1.385 . S
C566 C568 1.478 . S
C567 H561 0.930 . S
C567 C563 1.400 . S
C567 C566 1.385 . S
C568 C566 1.478 . S
C568 C570 1.381 . S
C568 C574 1.383 . S
C569 C565 1.495 . S
C569 H575 0.959 . S
C569 H576 0.961 . S
C569 H577 0.960 . S
C570 C568 1.381 . S
C570 C571 1.394 . S
C570 H578 0.930 . S
C571 C570 1.394 . S
C571 C572 1.383 . S
C571 H579 0.929 . S
C572 C571 1.383 . S
C572 C573 1.377 . S
C573 H557 0.930 1_556 S
C573 C572 1.377 . S
C573 C574 1.379 . S
C574 H558 0.931 . S
C574 C568 1.383 . S
C574 C573 1.379 . S
H575 C569 0.959 . S
H576 C569 0.961 . S
H577 C569 0.960 . S
H578 C570 0.930 . S
H579 C571 0.929 . S
H580 C588 0.929 . S
H581 C590 0.930 . S
H582 C592 0.930 . S
H583 C595 0.929 . S
H584 C598 0.930 . S
H585 C600 0.960 . S
H586 C600 0.960 . S
H587 C600 0.960 . S
C588 H580 0.929 . S
C588 C589 1.377 . S
C588 C590 1.384 . S
C589 C588 1.377 . S
C589 C595 1.390 . S
C590 H581 0.930 . S
C590 C588 1.384 . S
C590 C591 1.372 . S
C591 C590 1.372 . S
C591 C592 1.400 . S
C591 C596 1.490 . S
C592 H582 0.930 . S
C592 C591 1.400 . S
C592 C595 1.386 . S
H593 C609 0.930 . S
H594 C610 0.931 . S
C595 H583 0.929 . S
C595 C589 1.390 . S
C595 C592 1.386 . S
C596 C591 1.490 . S
C596 C598 1.395 . S
C596 C599 1.403 . S
H597 C603 0.930 . S
C598 H584 0.930 . S
C598 C596 1.395 . S
C598 C601 1.403 . S
C599 C596 1.403 . S
C599 C600 1.524 . S
C599 C603 1.400 . S
C600 H585 0.960 . S
C600 H586 0.960 . S
C600 H587 0.960 . S
C600 C599 1.524 . S
C601 C598 1.403 . S
C601 C602 1.392 . S
C601 C605 1.495 . S
C602 C601 1.392 . S
C602 C603 1.385 . S
C602 C604 1.478 . S
C603 H597 0.930 . S
C603 C599 1.400 . S
C603 C602 1.385 . S
C604 C602 1.478 . S
C604 C606 1.381 . S
C604 C610 1.383 . S
C605 C601 1.495 . S
C605 H611 0.959 . S
C605 H612 0.961 . S
C605 H613 0.960 . S
C606 C604 1.381 . S
C606 C607 1.394 . S
C606 H614 0.930 . S
C607 C606 1.394 . S
C607 C608 1.383 . S
C607 H615 0.929 . S
C608 C607 1.383 . S
C608 C609 1.377 . S
C609 H593 0.930 . S
C609 C608 1.377 . S
C609 C610 1.379 . S
C610 H594 0.931 . S
C610 C604 1.383 . S
C610 C609 1.379 . S
H611 C605 0.959 . S
H612 C605 0.961 . S
H613 C605 0.960 . S
H614 C606 0.930 . S
H615 C607 0.929 . S
H616 C624 0.929 . S
H617 C626 0.930 . S
H618 C628 0.930 . S
H619 C631 0.929 . S
H620 C634 0.930 . S
H621 C636 0.960 . S
H622 C636 0.960 . S
H623 C636 0.960 . S
C624 H616 0.929 . S
C624 C625 1.377 . S
C624 C626 1.384 . S
C625 C624 1.377 . S
C625 C631 1.390 . S
C626 H617 0.930 . S
C626 C624 1.384 . S
C626 C627 1.372 . S
C627 C626 1.372 . S
C627 C628 1.400 . S
C627 C632 1.490 . S
C628 H618 0.930 . S
C628 C627 1.400 . S
C628 C631 1.386 . S
H629 C645 0.930 . S
H630 C646 0.931 . S
C631 H619 0.929 . S
C631 C625 1.390 . S
C631 C628 1.386 . S
C632 C627 1.490 . S
C632 C634 1.395 . S
C632 C635 1.403 . S
H633 C639 0.930 . S
C634 H620 0.930 . S
C634 C632 1.395 . S
C634 C637 1.403 . S
C635 C632 1.403 . S
C635 C636 1.524 . S
C635 C639 1.400 . S
C636 H621 0.960 . S
C636 H622 0.960 . S
C636 H623 0.960 . S
C636 C635 1.524 . S
C637 C634 1.403 . S
C637 C638 1.392 . S
C637 C641 1.495 . S
C638 C637 1.392 . S
C638 C639 1.385 . S
C638 C640 1.478 . S
C639 H633 0.930 . S
C639 C635 1.400 . S
C639 C638 1.385 . S
C640 C638 1.478 . S
C640 C642 1.381 . S
C640 C646 1.383 . S
C641 C637 1.495 . S
C641 H647 0.959 . S
C641 H648 0.961 . S
C641 H649 0.960 . S
C642 C640 1.381 . S
C642 C643 1.394 . S
C642 H650 0.930 . S
C643 C642 1.394 . S
C643 C644 1.383 . S
C643 H651 0.929 1_455 S
C644 C643 1.383 . S
C644 C645 1.377 . S
C645 H629 0.930 . S
C645 C644 1.377 . S
C645 C646 1.379 . S
C646 H630 0.931 . S
C646 C640 1.383 . S
C646 C645 1.379 . S
H647 C641 0.959 . S
H648 C641 0.961 . S
H649 C641 0.960 . S
H650 C642 0.930 . S
H651 C643 0.929 1_655 S
H652 C660 0.929 . S
H653 C662 0.930 . S
H654 C664 0.930 . S
H655 C667 0.929 . S
H656 C670 0.930 . S
H657 C672 0.960 . S
H658 C672 0.960 . S
H659 C672 0.960 . S
C660 H652 0.929 . S
C660 C661 1.377 . S
C660 C662 1.384 . S
C661 C660 1.377 . S
C661 C667 1.390 . S
C662 H653 0.930 . S
C662 C660 1.384 . S
C662 C663 1.372 . S
C663 C662 1.372 . S
C663 C664 1.400 . S
C663 C668 1.490 . S
C664 H654 0.930 . S
C664 C663 1.400 . S
C664 C667 1.386 . S
H665 C681 0.930 . S
H666 C682 0.931 . S
C667 H655 0.929 . S
C667 C661 1.390 . S
C667 C664 1.386 . S
C668 C663 1.490 . S
C668 C670 1.395 . S
C668 C671 1.403 . S
H669 C675 0.930 . S
C670 H656 0.930 . S
C670 C668 1.395 . S
C670 C673 1.403 . S
C671 C668 1.403 . S
C671 C672 1.524 . S
C671 C675 1.400 . S
C672 H657 0.960 . S
C672 H658 0.960 . S
C672 H659 0.960 . S
C672 C671 1.524 . S
C673 C670 1.403 . S
C673 C674 1.392 . S
C673 C677 1.495 . S
C674 C673 1.392 . S
C674 C675 1.385 . S
C674 C676 1.478 . S
C675 H669 0.930 . S
C675 C671 1.400 . S
C675 C674 1.385 . S
C676 C674 1.478 . S
C676 C678 1.381 . S
C676 C682 1.383 . S
C677 C673 1.495 . S
C677 H683 0.959 . S
C677 H684 0.961 . S
C677 H685 0.960 . S
C678 C676 1.381 . S
C678 C679 1.394 . S
C678 H686 0.930 . S
C679 C678 1.394 . S
C679 C680 1.383 . S
C679 H687 0.929 . S
C680 C679 1.383 . S
C680 C681 1.377 . S
C681 H665 0.930 . S
C681 C680 1.377 . S
C681 C682 1.379 . S
C682 H666 0.931 . S
C682 C676 1.383 . S
C682 C681 1.379 . S
H683 C677 0.959 . S
H684 C677 0.961 . S
H685 C677 0.960 . S
H686 C678 0.930 . S
H687 C679 0.929 . S
H688 C696 0.929 . S
H689 C698 0.930 . S
H690 C700 0.930 . S
H691 C703 0.929 . S
H692 C706 0.930 . S
H693 C708 0.960 . S
H694 C708 0.960 . S
H695 C708 0.960 . S
C696 H688 0.929 . S
C696 C697 1.377 . S
C696 C698 1.384 . S
C697 C696 1.377 . S
C697 C703 1.390 . S
C698 H689 0.930 . S
C698 C696 1.384 . S
C698 C699 1.372 . S
C699 C698 1.372 . S
C699 C700 1.400 . S
C699 C704 1.490 . S
C700 H690 0.930 . S
C700 C699 1.400 . S
C700 C703 1.386 . S
H701 C717 0.930 . S
H702 C718 0.931 . S
C703 H691 0.929 . S
C703 C697 1.390 . S
C703 C700 1.386 . S
C704 C699 1.490 . S
C704 C706 1.395 . S
C704 C707 1.403 . S
H705 C711 0.930 . S
C706 H692 0.930 . S
C706 C704 1.395 . S
C706 C709 1.403 . S
C707 C704 1.403 . S
C707 C708 1.524 . S
C707 C711 1.400 . S
C708 H693 0.960 . S
C708 H694 0.960 . S
C708 H695 0.960 . S
C708 C707 1.524 . S
C709 C706 1.403 . S
C709 C710 1.392 . S
C709 C713 1.495 . S
C710 C709 1.392 . S
C710 C711 1.385 . S
C710 C712 1.478 . S
C711 H705 0.930 . S
C711 C707 1.400 . S
C711 C710 1.385 . S
C712 C710 1.478 . S
C712 C714 1.381 . S
C712 C718 1.383 . S
C713 C709 1.495 . S
C713 H719 0.959 . S
C713 H720 0.961 . S
C713 H721 0.960 . S
C714 C712 1.381 . S
C714 C715 1.394 . S
C714 H722 0.930 . S
C715 C714 1.394 . S
C715 C716 1.383 . S
C715 H723 0.929 . S
C716 C715 1.383 . S
C716 C717 1.377 . S
C717 H701 0.930 . S
C717 C716 1.377 . S
C717 C718 1.379 . S
C718 H702 0.931 . S
C718 C712 1.383 . S
C718 C717 1.379 . S
H719 C713 0.959 . S
H720 C713 0.961 . S
H721 C713 0.960 . S
H722 C714 0.930 . S
H723 C715 0.929 . S
H724 C732 0.929 . S
H725 C734 0.930 . S
H726 C736 0.930 . S
H727 C739 0.929 . S
H728 C742 0.930 . S
H729 C744 0.960 . S
H730 C744 0.960 . S
H731 C744 0.960 . S
C732 H724 0.929 . S
C732 C733 1.377 . S
C732 C734 1.384 . S
C733 C732 1.377 . S
C733 C739 1.390 . S
C734 H725 0.930 . S
C734 C732 1.384 . S
C734 C735 1.372 . S
C735 C734 1.372 . S
C735 C736 1.400 . S
C735 C740 1.490 . S
C736 H726 0.930 . S
C736 C735 1.400 . S
C736 C739 1.386 . S
H737 C753 0.930 . S
H738 C754 0.931 . S
C739 H727 0.929 . S
C739 C733 1.390 . S
C739 C736 1.386 . S
C740 C735 1.490 . S
C740 C742 1.395 . S
C740 C743 1.403 . S
H741 C747 0.930 . S
C742 H728 0.930 . S
C742 C740 1.395 . S
C742 C745 1.403 . S
C743 C740 1.403 . S
C743 C744 1.524 . S
C743 C747 1.400 . S
C744 H729 0.960 . S
C744 H730 0.960 . S
C744 H731 0.960 . S
C744 C743 1.524 . S
C745 C742 1.403 . S
C745 C746 1.392 . S
C745 C749 1.495 . S
C746 C745 1.392 . S
C746 C747 1.385 . S
C746 C748 1.478 . S
C747 H741 0.930 . S
C747 C743 1.400 . S
C747 C746 1.385 . S
C748 C746 1.478 . S
C748 C750 1.381 . S
C748 C754 1.383 . S
C749 C745 1.495 . S
C749 H755 0.959 . S
C749 H756 0.961 . S
C749 H757 0.960 . S
C750 C748 1.381 . S
C750 C751 1.394 . S
C750 H758 0.930 . S
C751 C750 1.394 . S
C751 C752 1.383 . S
C751 H759 0.929 . S
C752 C751 1.383 . S
C752 C753 1.377 . S
C753 H737 0.930 . S
C753 C752 1.377 . S
C753 C754 1.379 . S
C754 H738 0.931 . S
C754 C748 1.383 . S
C754 C753 1.379 . S
H755 C749 0.959 . S
H756 C749 0.961 . S
H757 C749 0.960 . S
H758 C750 0.930 . S
H759 C751 0.929 . S
H760 C768 0.944 . S
H761 C770 0.930 . S
H762 C772 0.930 . S
H763 C775 0.929 . S
H764 C778 0.930 . S
H765 C780 0.960 . S
H766 C780 0.960 . S
H767 C780 0.960 . S
C768 H760 0.944 . S
C768 C769 1.377 . S
C768 C770 1.384 . S
C769 C768 1.377 . S
C769 C775 1.390 . S
C770 H761 0.930 . S
C770 C768 1.384 . S
C770 C771 1.372 . S
C771 C770 1.372 . S
C771 C772 1.400 . S
C771 C776 1.490 . S
C772 H762 0.930 . S
C772 C771 1.400 . S
C772 C775 1.386 . S
H773 C789 0.930 . S
H774 C790 0.931 . S
C775 H763 0.929 . S
C775 C769 1.390 . S
C775 C772 1.386 . S
C776 C771 1.490 . S
C776 C778 1.395 . S
C776 C779 1.403 . S
H777 C783 0.930 . S
C778 H764 0.930 . S
C778 C776 1.395 . S
C778 C781 1.403 . S
C779 C776 1.403 . S
C779 C780 1.524 . S
C779 C783 1.400 . S
C780 H765 0.960 . S
C780 H766 0.960 . S
C780 H767 0.960 . S
C780 C779 1.524 . S
C781 C778 1.403 . S
C781 C782 1.392 . S
C781 C785 1.495 . S
C782 C781 1.392 . S
C782 C783 1.385 . S
C782 C784 1.478 . S
C783 H777 0.930 . S
C783 C779 1.400 . S
C783 C782 1.385 . S
C784 C782 1.478 . S
C784 C786 1.381 . S
C784 C790 1.383 . S
C785 C781 1.495 . S
C785 H791 0.959 . S
C785 H792 0.961 . S
C785 H793 0.960 . S
C786 C784 1.381 . S
C786 C787 1.394 . S
C786 H794 0.930 . S
C787 C786 1.394 . S
C787 C788 1.383 . S
C787 H795 0.929 . S
C788 C787 1.383 . S
C788 C789 1.377 . S
C789 H773 0.930 . S
C789 C788 1.377 . S
C789 C790 1.379 . S
C790 H774 0.931 . S
C790 C784 1.383 . S
C790 C789 1.379 . S
H791 C785 0.959 . S
H792 C785 0.961 . S
H793 C785 0.960 . S
H794 C786 0.930 . S
H795 C787 0.929 . S
H796 C804 0.929 . S
H797 C806 0.930 . S
H798 C808 0.930 . S
H799 C811 0.929 . S
H800 C814 0.930 . S
H801 C816 0.960 . S
H802 C816 0.960 . S
H803 C816 0.960 . S
C804 H796 0.929 . S
C804 C805 1.377 . S
C804 C806 1.384 . S
C805 C804 1.377 . S
C805 C811 1.390 . S
C806 H797 0.930 . S
C806 C804 1.384 . S
C806 C807 1.372 . S
C807 C806 1.372 . S
C807 C808 1.400 . S
C807 C812 1.490 . S
C808 H798 0.930 . S
C808 C807 1.400 . S
C808 C811 1.386 . S
H809 C825 0.930 . S
H810 C826 0.931 . S
C811 H799 0.929 . S
C811 C805 1.390 . S
C811 C808 1.386 . S
C812 C807 1.490 . S
C812 C814 1.395 . S
C812 C815 1.403 . S
H813 C819 0.930 . S
C814 H800 0.930 . S
C814 C812 1.395 . S
C814 C817 1.403 . S
C815 C812 1.403 . S
C815 C816 1.524 . S
C815 C819 1.400 . S
C816 H801 0.960 . S
C816 H802 0.960 . S
C816 H803 0.960 . S
C816 C815 1.524 . S
C817 C814 1.403 . S
C817 C818 1.392 . S
C817 C821 1.495 . S
C818 C817 1.392 . S
C818 C819 1.385 . S
C818 C820 1.478 . S
C819 H813 0.930 . S
C819 C815 1.400 . S
C819 C818 1.385 . S
C820 C818 1.478 . S
C820 C822 1.381 . S
C820 C826 1.383 . S
C821 C817 1.495 . S
C821 H827 0.959 . S
C821 H828 0.961 . S
C821 H829 0.960 . S
C822 C820 1.381 . S
C822 C823 1.394 . S
C822 H830 0.930 . S
C823 C822 1.394 . S
C823 C824 1.383 . S
C823 H831 0.929 . S
C824 C823 1.383 . S
C824 C825 1.377 . S
C825 H809 0.930 . S
C825 C824 1.377 . S
C825 C826 1.379 . S
C826 H810 0.931 . S
C826 C820 1.383 . S
C826 C825 1.379 . S
H827 C821 0.959 . S
H828 C821 0.961 . S
H829 C821 0.960 . S
H830 C822 0.930 . S
H831 C823 0.929 . S
H832 C840 0.929 . S
H833 C842 0.930 . S
H834 C844 0.930 . S
H835 C847 0.929 . S
H836 C850 0.930 . S
H837 C852 0.960 . S
H838 C852 0.960 . S
H839 C852 0.960 . S
C840 H832 0.929 . S
C840 C841 1.377 . S
C840 C842 1.384 . S
C841 C840 1.377 . S
C841 C847 1.390 . S
C842 H833 0.930 . S
C842 C840 1.384 . S
C842 C843 1.372 . S
C843 C842 1.372 . S
C843 C844 1.400 . S
C843 C848 1.490 . S
C844 H834 0.930 . S
C844 C843 1.400 . S
C844 C847 1.386 . S
H845 C861 0.930 . S
H846 C862 0.931 . S
C847 H835 0.929 . S
C847 C841 1.390 . S
C847 C844 1.386 . S
C848 C843 1.490 . S
C848 C850 1.395 . S
C848 C851 1.403 . S
H849 C855 0.930 . S
C850 H836 0.930 . S
C850 C848 1.395 . S
C850 C853 1.403 . S
C851 C848 1.403 . S
C851 C852 1.524 . S
C851 C855 1.400 . S
C852 H837 0.960 . S
C852 H838 0.960 . S
C852 H839 0.960 . S
C852 C851 1.524 . S
C853 C850 1.403 . S
C853 C854 1.392 . S
C853 C857 1.495 . S
C854 C853 1.392 . S
C854 C855 1.385 . S
C854 C856 1.478 . S
C855 H849 0.930 . S
C855 C851 1.400 . S
C855 C854 1.385 . S
C856 C854 1.478 . S
C856 C858 1.381 . S
C856 C862 1.383 . S
C857 C853 1.495 . S
C857 H863 0.959 . S
C857 H864 0.961 . S
C857 H865 0.960 . S
C858 C856 1.381 . S
C858 C859 1.419 . S
C858 H866 0.930 . S
C859 C858 1.419 . S
C859 C860 1.389 . S
C859 H867 0.900 1_655 S
C860 C859 1.389 . S
C860 C861 1.377 . S
C861 H845 0.930 . S
C861 C860 1.377 . S
C861 C862 1.379 . S
C862 H846 0.931 . S
C862 C856 1.383 . S
C862 C861 1.379 . S
H863 C857 0.959 . S
H864 C857 0.961 . S
H865 C857 0.960 . S
H866 C858 0.930 . S
H867 C859 0.900 1_455 S
H868 C876 0.929 . S
H869 C878 0.930 . S
H870 C880 0.930 . S
H871 C883 0.929 . S
H872 C886 0.930 . S
H873 C888 0.960 . S
H874 C888 0.960 . S
H875 C888 0.960 . S
C876 H868 0.929 . S
C876 C877 1.377 . S
C876 C878 1.384 . S
C877 C876 1.377 . S
C877 C883 1.390 . S
C878 H869 0.930 . S
C878 C876 1.384 . S
C878 C879 1.372 . S
C879 C878 1.372 . S
C879 C880 1.400 . S
C879 C884 1.490 . S
C880 H870 0.930 . S
C880 C879 1.400 . S
C880 C883 1.386 . S
H881 C897 0.930 . S
H882 C898 0.931 . S
C883 H871 0.929 . S
C883 C877 1.390 . S
C883 C880 1.386 . S
C884 C879 1.490 . S
C884 C886 1.395 . S
C884 C887 1.403 . S
H885 C891 0.930 . S
C886 H872 0.930 . S
C886 C884 1.395 . S
C886 C889 1.403 . S
C887 C884 1.403 . S
C887 C888 1.524 . S
C887 C891 1.400 . S
C888 H873 0.960 . S
C888 H874 0.960 . S
C888 H875 0.960 . S
C888 C887 1.524 . S
C889 C886 1.403 . S
C889 C890 1.392 . S
C889 C893 1.495 . S
C890 C889 1.392 . S
C890 C891 1.385 . S
C890 C892 1.478 . S
C891 H885 0.930 . S
C891 C887 1.400 . S
C891 C890 1.385 . S
C892 C890 1.478 . S
C892 C894 1.381 . S
C892 C898 1.383 . S
C893 C889 1.495 . S
C893 H899 0.959 . S
C893 H900 0.961 . S
C893 H901 0.960 . S
C894 C892 1.381 . S
C894 C895 1.394 . S
C894 H902 0.930 . S
C895 C894 1.394 . S
C895 C896 1.383 . S
C895 H903 0.929 . S
C896 C895 1.383 . S
C896 C897 1.377 . S
C897 H881 0.930 . S
C897 C896 1.377 . S
C897 C898 1.379 . S
C898 H882 0.931 . S
C898 C892 1.383 . S
C898 C897 1.379 . S
H899 C893 0.959 . S
H900 C893 0.961 . S
H901 C893 0.960 . S
H902 C894 0.930 . S
H903 C895 0.929 . S
H904 C912 0.929 . S
H905 C914 0.930 . S
H906 C916 0.930 . S
H907 C919 0.929 . S
H908 C922 0.930 . S
H909 C924 0.960 . S
H910 C924 0.960 . S
H911 C924 0.960 . S
C912 H904 0.929 . S
C912 C913 1.377 . S
C912 C914 1.384 . S
C913 C912 1.377 . S
C913 C919 1.390 . S
C914 H905 0.930 . S
C914 C912 1.384 . S
C914 C915 1.372 . S
C915 C914 1.372 . S
C915 C916 1.400 . S
C915 C920 1.490 . S
C916 H906 0.930 . S
C916 C915 1.400 . S
C916 C919 1.386 . S
H917 C933 0.930 1_554 S
H918 C934 0.931 . S
C919 H907 0.929 . S
C919 C913 1.390 . S
C919 C916 1.386 . S
C920 C915 1.490 . S
C920 C922 1.395 . S
C920 C923 1.403 . S
H921 C927 0.930 . S
C922 H908 0.930 . S
C922 C920 1.395 . S
C922 C925 1.403 . S
C923 C920 1.403 . S
C923 C924 1.524 . S
C923 C927 1.400 . S
C924 H909 0.960 . S
C924 H910 0.960 . S
C924 H911 0.960 . S
C924 C923 1.524 . S
C925 C922 1.403 . S
C925 C926 1.392 . S
C925 C929 1.495 . S
C926 C925 1.392 . S
C926 C927 1.385 . S
C926 C928 1.478 . S
C927 H921 0.930 . S
C927 C923 1.400 . S
C927 C926 1.385 . S
C928 C926 1.478 . S
C928 C930 1.381 . S
C928 C934 1.383 . S
C929 C925 1.495 . S
C929 H935 0.959 . S
C929 H936 0.961 . S
C929 H937 0.960 . S
C930 C928 1.381 . S
C930 C931 1.394 . S
C930 H938 0.930 . S
C931 C930 1.394 . S
C931 C932 1.383 . S
C931 H939 0.929 . S
C932 C931 1.383 . S
C932 C933 1.377 . S
C933 H917 0.930 1_556 S
C933 C932 1.377 . S
C933 C934 1.379 . S
C934 H918 0.931 . S
C934 C928 1.383 . S
C934 C933 1.379 . S
H935 C929 0.959 . S
H936 C929 0.961 . S
H937 C929 0.960 . S
H938 C930 0.930 . S
H939 C931 0.929 . S
H940 C948 0.929 . S
H941 C950 0.930 . S
H942 C952 0.930 . S
H943 C955 0.929 . S
H944 C958 0.930 . S
H945 C960 0.960 . S
H946 C960 0.960 . S
H947 C960 0.960 . S
C948 H940 0.929 . S
C948 C949 1.377 . S
C948 C950 1.384 . S
C949 C948 1.377 . S
C949 C955 1.390 . S
C950 H941 0.930 . S
C950 C948 1.384 . S
C950 C951 1.372 . S
C951 C950 1.372 . S
C951 C952 1.400 . S
C951 C956 1.490 . S
C952 H942 0.930 . S
C952 C951 1.400 . S
C952 C955 1.386 . S
H953 C969 0.930 . S
H954 C970 0.931 . S
C955 H943 0.929 . S
C955 C949 1.390 . S
C955 C952 1.386 . S
C956 C951 1.490 . S
C956 C958 1.395 . S
C956 C959 1.403 . S
H957 C963 0.930 . S
C958 H944 0.930 . S
C958 C956 1.395 . S
C958 C961 1.403 . S
C959 C956 1.403 . S
C959 C960 1.524 . S
C959 C963 1.400 . S
C960 H945 0.960 . S
C960 H946 0.960 . S
C960 H947 0.960 . S
C960 C959 1.524 . S
C961 C958 1.403 . S
C961 C962 1.392 . S
C961 C965 1.495 . S
C962 C961 1.392 . S
C962 C963 1.385 . S
C962 C964 1.478 . S
C963 H957 0.930 . S
C963 C959 1.400 . S
C963 C962 1.385 . S
C964 C962 1.478 . S
C964 C966 1.381 . S
C964 C970 1.383 . S
C965 C961 1.495 . S
C965 H971 0.959 . S
C965 H972 0.961 . S
C965 H973 0.960 . S
C966 C964 1.381 . S
C966 C967 1.394 . S
C966 H974 0.930 . S
C967 C966 1.394 . S
C967 C968 1.383 . S
C967 H975 0.929 . S
C968 C967 1.383 . S
C968 C969 1.377 . S
C969 H953 0.930 . S
C969 C968 1.377 . S
C969 C970 1.379 . S
C970 H954 0.931 . S
C970 C964 1.383 . S
C970 C969 1.379 . S
H971 C965 0.959 . S
H972 C965 0.961 . S
H973 C965 0.960 . S
H974 C966 0.930 . S
H975 C967 0.929 . S
H976 C984 0.929 . S
H977 C986 0.930 . S
H978 C988 0.930 . S
H979 C991 0.929 . S
H980 C994 0.930 . S
H981 C996 0.960 . S
H982 C996 0.960 . S
H983 C996 0.960 . S
C984 H976 0.929 . S
C984 C985 1.377 . S
C984 C986 1.384 . S
C985 C984 1.377 . S
C985 C991 1.390 . S
C986 H977 0.930 . S
C986 C984 1.384 . S
C986 C987 1.372 . S
C987 C986 1.372 . S
C987 C988 1.400 . S
C987 C992 1.490 . S
C988 H978 0.930 . S
C988 C987 1.400 . S
C988 C991 1.386 . S
H989 C1005 0.930 1_655 S
H990 C1006 0.931 . S
C991 H979 0.929 . S
C991 C985 1.390 . S
C991 C988 1.386 . S
C992 C987 1.490 . S
C992 C994 1.395 . S
C992 C995 1.403 . S
H993 C999 0.930 . S
C994 H980 0.930 . S
C994 C992 1.395 . S
C994 C997 1.403 . S
C995 C992 1.403 . S
C995 C996 1.524 . S
C995 C999 1.400 . S
C996 H981 0.960 . S
C996 H982 0.960 . S
C996 H983 0.960 . S
C996 C995 1.524 . S
C997 C994 1.403 . S
C997 C998 1.392 . S
C997 C1001 1.495 . S
C998 C997 1.392 . S
C998 C999 1.385 . S
C998 C1000 1.478 . S
C999 H993 0.930 . S
C999 C995 1.400 . S
C999 C998 1.385 . S
C1000 C998 1.478 . S
C1000 C1002 1.381 . S
C1000 C1006 1.383 . S
C1001 C997 1.495 . S
C1001 H1007 0.959 . S
C1001 H1008 0.961 . S
C1001 H1009 0.960 . S
C1002 C1000 1.381 . S
C1002 C1003 1.394 . S
C1002 H1010 0.930 . S
C1003 C1002 1.394 . S
C1003 C1004 1.383 . S
C1003 H1011 0.929 . S
C1004 C1003 1.383 . S
C1004 C1005 1.377 . S
C1005 H989 0.930 1_455 S
C1005 C1004 1.377 . S
C1005 C1006 1.379 . S
C1006 H990 0.931 . S
C1006 C1000 1.383 . S
C1006 C1005 1.379 . S
H1007 C1001 0.959 . S
H1008 C1001 0.961 . S
H1009 C1001 0.960 . S
H1010 C1002 0.930 . S
H1011 C1003 0.929 . S
H1012 C1020 0.929 . S
H1013 C1022 0.930 . S
H1014 C1024 0.930 . S
H1015 C1027 0.929 . S
H1016 C1030 0.930 . S
H1017 C1032 0.960 . S
H1018 C1032 0.960 . S
H1019 C1032 0.960 . S
C1020 H1012 0.929 . S
C1020 C1021 1.377 . S
C1020 C1022 1.384 . S
C1021 C1020 1.377 . S
C1021 C1027 1.390 . S
C1022 H1013 0.930 . S
C1022 C1020 1.384 . S
C1022 C1023 1.372 . S
C1023 C1022 1.372 . S
C1023 C1024 1.400 . S
C1023 C1028 1.490 . S
C1024 H1014 0.930 . S
C1024 C1023 1.400 . S
C1024 C1027 1.386 . S
H1025 C1041 0.930 . S
H1026 C1042 0.931 . S
C1027 H1015 0.929 . S
C1027 C1021 1.390 . S
C1027 C1024 1.386 . S
C1028 C1023 1.490 . S
C1028 C1030 1.395 . S
C1028 C1031 1.403 . S
H1029 C1035 0.930 . S
C1030 H1016 0.930 . S
C1030 C1028 1.395 . S
C1030 C1033 1.403 . S
C1031 C1028 1.403 . S
C1031 C1032 1.524 . S
C1031 C1035 1.400 . S
C1032 H1017 0.960 . S
C1032 H1018 0.960 . S
C1032 H1019 0.960 . S
C1032 C1031 1.524 . S
C1033 C1030 1.403 . S
C1033 C1034 1.392 . S
C1033 C1037 1.495 . S
C1034 C1033 1.392 . S
C1034 C1035 1.385 . S
C1034 C1036 1.478 . S
C1035 H1029 0.930 . S
C1035 C1031 1.400 . S
C1035 C1034 1.385 . S
C1036 C1034 1.478 . S
C1036 C1038 1.381 . S
C1036 C1042 1.383 . S
C1037 C1033 1.495 . S
C1037 H1043 0.959 . S
C1037 H1044 0.961 . S
C1037 H1045 0.960 . S
C1038 C1036 1.381 . S
C1038 C1039 1.394 . S
C1038 H1046 0.930 . S
C1039 C1038 1.394 . S
C1039 C1040 1.383 . S
C1039 H1047 0.929 . S
C1040 C1039 1.383 . S
C1040 C1041 1.377 . S
C1041 H1025 0.930 . S
C1041 C1040 1.377 . S
C1041 C1042 1.379 . S
C1042 H1026 0.931 . S
C1042 C1036 1.383 . S
C1042 C1041 1.379 . S
H1043 C1037 0.959 . S
H1044 C1037 0.961 . S
H1045 C1037 0.960 . S
H1046 C1038 0.930 . S
H1047 C1039 0.929 . S
H1048 C1056 0.929 . S
H1049 C1058 0.930 . S
H1050 C1060 0.930 . S
H1051 C1063 0.929 . S
H1052 C1066 0.930 . S
H1053 C1068 0.960 . S
H1054 C1068 0.960 . S
H1055 C1068 0.960 . S
C1056 H1048 0.929 . S
C1056 C1057 1.377 . S
C1056 C1058 1.384 . S
C1057 C1056 1.377 . S
C1057 C1063 1.390 . S
C1058 H1049 0.930 . S
C1058 C1056 1.384 . S
C1058 C1059 1.372 . S
C1059 C1058 1.372 . S
C1059 C1060 1.400 . S
C1059 C1064 1.490 . S
C1060 H1050 0.930 . S
C1060 C1059 1.400 . S
C1060 C1063 1.386 . S
H1061 C1077 0.930 . S
H1062 C1078 0.931 . S
C1063 H1051 0.929 . S
C1063 C1057 1.390 . S
C1063 C1060 1.386 . S
C1064 C1059 1.490 . S
C1064 C1066 1.395 . S
C1064 C1067 1.403 . S
H1065 C1071 0.930 . S
C1066 H1052 0.930 . S
C1066 C1064 1.395 . S
C1066 C1069 1.403 . S
C1067 C1064 1.403 . S
C1067 C1068 1.524 . S
C1067 C1071 1.400 . S
C1068 H1053 0.960 . S
C1068 H1054 0.960 . S
C1068 H1055 0.960 . S
C1068 C1067 1.524 . S
C1069 C1066 1.403 . S
C1069 C1070 1.392 . S
C1069 C1073 1.495 . S
C1070 C1069 1.392 . S
C1070 C1071 1.385 . S
C1070 C1072 1.478 . S
C1071 H1065 0.930 . S
C1071 C1067 1.400 . S
C1071 C1070 1.385 . S
C1072 C1070 1.478 . S
C1072 C1074 1.381 . S
C1072 C1078 1.383 . S
C1073 C1069 1.495 . S
C1073 H1079 0.959 . S
C1073 H1080 0.961 . S
C1073 H1081 0.960 . S
C1074 C1072 1.381 . S
C1074 C1075 1.394 . S
C1074 H1082 0.930 . S
C1075 C1074 1.394 . S
C1075 C1076 1.383 . S
C1075 H1083 0.929 . S
C1076 C1075 1.383 . S
C1076 C1077 1.377 . S
C1077 H1061 0.930 . S
C1077 C1076 1.377 . S
C1077 C1078 1.379 . S
C1078 H1062 0.931 . S
C1078 C1072 1.383 . S
C1078 C1077 1.379 . S
H1079 C1073 0.959 . S
H1080 C1073 0.961 . S
H1081 C1073 0.960 . S
H1082 C1074 0.930 . S
H1083 C1075 0.929 . S
H1084 C1092 0.929 . S
H1085 C1094 0.930 . S
H1086 C1096 0.930 . S
H1087 C1099 0.929 . S
H1088 C1102 0.930 . S
H1089 C1104 0.960 . S
H1090 C1104 0.960 . S
H1091 C1104 0.960 . S
C1092 H1084 0.929 . S
C1092 C1093 1.377 . S
C1092 C1094 1.384 . S
C1093 C1092 1.377 . S
C1093 C1099 1.390 . S
C1094 H1085 0.930 . S
C1094 C1092 1.384 . S
C1094 C1095 1.372 . S
C1095 C1094 1.372 . S
C1095 C1096 1.400 . S
C1095 C1100 1.490 . S
C1096 H1086 0.930 . S
C1096 C1095 1.400 . S
C1096 C1099 1.386 . S
H1097 C1113 0.930 . S
H1098 C1114 0.931 . S
C1099 H1087 0.929 . S
C1099 C1093 1.390 . S
C1099 C1096 1.386 . S
C1100 C1095 1.490 . S
C1100 C1102 1.395 . S
C1100 C1103 1.403 . S
H1101 C1107 0.930 . S
C1102 H1088 0.930 . S
C1102 C1100 1.395 . S
C1102 C1105 1.403 . S
C1103 C1100 1.403 . S
C1103 C1104 1.524 . S
C1103 C1107 1.400 . S
C1104 H1089 0.960 . S
C1104 H1090 0.960 . S
C1104 H1091 0.960 . S
C1104 C1103 1.524 . S
C1105 C1102 1.403 . S
C1105 C1106 1.392 . S
C1105 C1109 1.495 . S
C1106 C1105 1.392 . S
C1106 C1107 1.385 . S
C1106 C1108 1.478 . S
C1107 H1101 0.930 . S
C1107 C1103 1.400 . S
C1107 C1106 1.385 . S
C1108 C1106 1.478 . S
C1108 C1110 1.381 . S
C1108 C1114 1.383 . S
C1109 C1105 1.495 . S
C1109 H1115 0.959 . S
C1109 H1116 0.961 . S
C1109 H1117 0.960 . S
C1110 C1108 1.381 . S
C1110 C1111 1.394 . S
C1110 H1118 0.930 . S
C1111 C1110 1.394 . S
C1111 C1112 1.383 . S
C1111 H1119 0.929 . S
C1112 C1111 1.383 . S
C1112 C1113 1.377 . S
C1113 H1097 0.930 . S
C1113 C1112 1.377 . S
C1113 C1114 1.379 . S
C1114 H1098 0.931 . S
C1114 C1108 1.383 . S
C1114 C1113 1.379 . S
H1115 C1109 0.959 . S
H1116 C1109 0.961 . S
H1117 C1109 0.960 . S
H1118 C1110 0.930 . S
H1119 C1111 0.929 . S
H1120 C1128 0.929 . S
H1121 C1130 0.930 . S
H1122 C1132 0.930 . S
H1123 C1135 0.929 . S
H1124 C1138 0.930 . S
H1125 C1140 0.960 . S
H1126 C1140 0.960 . S
H1127 C1140 0.960 . S
C1128 H1120 0.929 . S
C1128 C1129 1.377 . S
C1128 C1130 1.384 . S
C1129 C1128 1.377 . S
C1129 C1135 1.390 . S
C1130 H1121 0.930 . S
C1130 C1128 1.384 . S
C1130 C1131 1.372 . S
C1131 C1130 1.372 . S
C1131 C1132 1.400 . S
C1131 C1136 1.490 . S
C1132 H1122 0.930 . S
C1132 C1131 1.400 . S
C1132 C1135 1.386 . S
H1133 C1149 0.930 . S
H1134 C1150 0.931 . S
C1135 H1123 0.929 . S
C1135 C1129 1.390 . S
C1135 C1132 1.386 . S
C1136 C1131 1.490 . S
C1136 C1138 1.395 . S
C1136 C1139 1.403 . S
H1137 C1143 0.930 . S
C1138 H1124 0.930 . S
C1138 C1136 1.395 . S
C1138 C1141 1.403 . S
C1139 C1136 1.403 . S
C1139 C1140 1.524 . S
C1139 C1143 1.400 . S
C1140 H1125 0.960 . S
C1140 H1126 0.960 . S
C1140 H1127 0.960 . S
C1140 C1139 1.524 . S
C1141 C1138 1.403 . S
C1141 C1142 1.392 . S
C1141 C1145 1.495 . S
C1142 C1141 1.392 . S
C1142 C1143 1.385 . S
C1142 C1144 1.478 . S
C1143 H1137 0.930 . S
C1143 C1139 1.400 . S
C1143 C1142 1.385 . S
C1144 C1142 1.478 . S
C1144 C1146 1.381 . S
C1144 C1150 1.383 . S
C1145 C1141 1.495 . S
C1145 H1151 0.959 . S
C1145 H1152 0.961 . S
C1145 H1153 0.960 . S
C1146 C1144 1.381 . S
C1146 C1147 1.394 . S
C1146 H1154 0.930 . S
C1147 C1146 1.394 . S
C1147 C1148 1.383 . S
C1147 H1155 0.929 . S
C1148 C1147 1.383 . S
C1148 C1149 1.377 . S
C1149 H1133 0.930 . S
C1149 C1148 1.377 . S
C1149 C1150 1.379 . S
C1150 H1134 0.931 . S
C1150 C1144 1.383 . S
C1150 C1149 1.379 . S
H1151 C1145 0.959 . S
H1152 C1145 0.961 . S
H1153 C1145 0.960 . S
H1154 C1146 0.930 . S
H1155 C1147 0.929 . S
H1156 C1164 0.929 . S
H1157 C1166 0.930 . S
H1158 C1168 0.930 . S
H1159 C1171 0.929 . S
H1160 C1174 0.930 . S
H1161 C1176 0.960 . S
H1162 C1176 0.960 . S
H1163 C1176 0.960 . S
C1164 H1156 0.929 . S
C1164 C1165 1.377 . S
C1164 C1166 1.384 . S
C1165 C1164 1.377 . S
C1165 C1171 1.390 . S
C1166 H1157 0.930 . S
C1166 C1164 1.384 . S
C1166 C1167 1.372 . S
C1167 C1166 1.372 . S
C1167 C1168 1.400 . S
C1167 C1172 1.490 . S
C1168 H1158 0.930 . S
C1168 C1167 1.400 . S
C1168 C1171 1.386 . S
H1169 C1185 0.930 . S
H1170 C1186 0.931 . S
C1171 H1159 0.929 . S
C1171 C1165 1.390 . S
C1171 C1168 1.386 . S
C1172 C1167 1.490 . S
C1172 C1174 1.395 . S
C1172 C1175 1.403 . S
H1173 C1179 0.930 . S
C1174 H1160 0.930 . S
C1174 C1172 1.395 . S
C1174 C1177 1.403 . S
C1175 C1172 1.403 . S
C1175 C1176 1.524 . S
C1175 C1179 1.400 . S
C1176 H1161 0.960 . S
C1176 H1162 0.960 . S
C1176 H1163 0.960 . S
C1176 C1175 1.524 . S
C1177 C1174 1.403 . S
C1177 C1178 1.392 . S
C1177 C1181 1.495 . S
C1178 C1177 1.392 . S
C1178 C1179 1.385 . S
C1178 C1180 1.478 . S
C1179 H1173 0.930 . S
C1179 C1175 1.400 . S
C1179 C1178 1.385 . S
C1180 C1178 1.478 . S
C1180 C1182 1.381 . S
C1180 C1186 1.383 . S
C1181 C1177 1.495 . S
C1181 H1187 0.959 . S
C1181 H1188 0.961 . S
C1181 H1189 0.960 . S
C1182 C1180 1.381 . S
C1182 C1183 1.394 . S
C1182 H1190 0.930 . S
C1183 C1182 1.394 . S
C1183 C1184 1.383 . S
C1183 H1191 0.929 . S
C1184 C1183 1.383 . S
C1184 C1185 1.377 . S
C1185 H1169 0.930 . S
C1185 C1184 1.377 . S
C1185 C1186 1.379 . S
C1186 H1170 0.931 . S
C1186 C1180 1.383 . S
C1186 C1185 1.379 . S
H1187 C1181 0.959 . S
H1188 C1181 0.961 . S
H1189 C1181 0.960 . S
H1190 C1182 0.930 . S
H1191 C1183 0.929 . S
H1192 C1200 0.929 . S
H1193 C1202 0.930 . S
H1194 C1204 0.930 . S
H1195 C1207 0.929 . S
H1196 C1210 0.930 . S
H1197 C1212 0.960 . S
H1198 C1212 0.960 . S
H1199 C1212 0.960 . S
C1200 H1192 0.929 . S
C1200 C1201 1.377 . S
C1200 C1202 1.384 . S
C1201 C1200 1.377 . S
C1201 C1207 1.390 . S
C1202 H1193 0.930 . S
C1202 C1200 1.384 . S
C1202 C1203 1.372 . S
C1203 C1202 1.372 . S
C1203 C1204 1.400 . S
C1203 C1208 1.490 . S
C1204 H1194 0.930 . S
C1204 C1203 1.400 . S
C1204 C1207 1.386 . S
H1205 C1221 0.930 . S
H1206 C1222 0.931 . S
C1207 H1195 0.929 . S
C1207 C1201 1.390 . S
C1207 C1204 1.386 . S
C1208 C1203 1.490 . S
C1208 C1210 1.395 . S
C1208 C1211 1.403 . S
H1209 C1215 0.930 . S
C1210 H1196 0.930 . S
C1210 C1208 1.395 . S
C1210 C1213 1.403 . S
C1211 C1208 1.403 . S
C1211 C1212 1.524 . S
C1211 C1215 1.400 . S
C1212 H1197 0.960 . S
C1212 H1198 0.960 . S
C1212 H1199 0.960 . S
C1212 C1211 1.524 . S
C1213 C1210 1.403 . S
C1213 C1214 1.392 . S
C1213 C1217 1.495 . S
C1214 C1213 1.392 . S
C1214 C1215 1.385 . S
C1214 C1216 1.478 . S
C1215 H1209 0.930 . S
C1215 C1211 1.400 . S
C1215 C1214 1.385 . S
C1216 C1214 1.478 . S
C1216 C1218 1.381 . S
C1216 C1222 1.383 . S
C1217 C1213 1.495 . S
C1217 H1223 0.959 . S
C1217 H1224 0.961 . S
C1217 H1225 0.960 . S
C1218 C1216 1.381 . S
C1218 C1219 1.394 . S
C1218 H1226 0.930 . S
C1219 C1218 1.394 . S
C1219 C1220 1.383 . S
C1219 H1227 0.929 . S
C1220 C1219 1.383 . S
C1220 C1221 1.377 . S
C1221 H1205 0.930 . S
C1221 C1220 1.377 . S
C1221 C1222 1.379 . S
C1222 H1206 0.931 . S
C1222 C1216 1.383 . S
C1222 C1221 1.379 . S
H1223 C1217 0.959 . S
H1224 C1217 0.961 . S
H1225 C1217 0.960 . S
H1226 C1218 0.930 . S
H1227 C1219 0.929 . S
H1228 C1236 0.929 . S
H1229 C1238 0.930 . S
H1230 C1240 0.930 . S
H1231 C1243 0.929 . S
H1232 C1246 0.930 . S
H1233 C1248 0.960 . S
H1234 C1248 0.960 . S
H1235 C1248 0.960 . S
C1236 H1228 0.929 . S
C1236 C1237 1.377 . S
C1236 C1238 1.384 . S
C1237 C1236 1.377 . S
C1237 C1243 1.390 . S
C1238 H1229 0.930 . S
C1238 C1236 1.384 . S
C1238 C1239 1.372 . S
C1239 C1238 1.372 . S
C1239 C1240 1.400 . S
C1239 C1244 1.490 . S
C1240 H1230 0.930 . S
C1240 C1239 1.400 . S
C1240 C1243 1.386 . S
H1241 C1257 0.930 . S
H1242 C1258 0.931 . S
C1243 H1231 0.929 . S
C1243 C1237 1.390 . S
C1243 C1240 1.386 . S
C1244 C1239 1.490 . S
C1244 C1246 1.395 1_655 S
C1244 C1247 1.403 1_556 S
H1245 C1251 0.930 . S
C1246 H1232 0.930 . S
C1246 C1244 1.395 1_455 S
C1246 C1249 1.403 . S
C1247 C1244 1.403 1_554 S
C1247 C1248 1.524 . S
C1247 C1251 1.400 . S
C1248 H1233 0.960 . S
C1248 H1234 0.960 . S
C1248 H1235 0.960 . S
C1248 C1247 1.524 . S
C1249 C1246 1.403 . S
C1249 C1250 1.392 1_556 S
C1249 C1253 1.495 . S
C1250 C1249 1.392 1_554 S
C1250 C1251 1.385 1_455 S
C1250 C1252 1.478 . S
C1251 H1245 0.930 . S
C1251 C1247 1.400 . S
C1251 C1250 1.385 1_655 S
C1252 C1250 1.478 . S
C1252 C1254 1.381 . S
C1252 C1258 1.383 . S
C1253 C1249 1.495 . S
C1253 H1259 0.959 . S
C1253 H1260 0.961 . S
C1253 H1261 0.960 . S
C1254 C1252 1.381 . S
C1254 C1255 1.394 . S
C1254 H1262 0.930 . S
C1255 C1254 1.394 . S
C1255 C1256 1.383 . S
C1255 H1263 0.929 . S
C1256 C1255 1.383 . S
C1256 C1257 1.377 . S
C1257 H1241 0.930 . S
C1257 C1256 1.377 . S
C1257 C1258 1.379 . S
C1258 H1242 0.931 . S
C1258 C1252 1.383 . S
C1258 C1257 1.379 . S
H1259 C1253 0.959 . S
H1260 C1253 0.961 . S
H1261 C1253 0.960 . S
H1262 C1254 0.930 . S
H1263 C1255 0.929 . S
H1264 C1272 0.929 . S
H1265 C1274 0.930 . S
H1266 C1276 0.930 . S
H1267 C1279 0.929 . S
H1268 C1282 0.930 . S
H1269 C1284 0.960 . S
H1270 C1284 0.960 . S
H1271 C1284 0.960 . S
C1272 H1264 0.929 . S
C1272 C1273 1.377 . S
C1272 C1274 1.384 . S
C1273 C1272 1.377 . S
C1273 C1279 1.390 . S
C1274 H1265 0.930 . S
C1274 C1272 1.384 . S
C1274 C1275 1.372 . S
C1275 C1274 1.372 . S
C1275 C1276 1.400 . S
C1275 C1280 1.490 . S
C1276 H1266 0.930 . S
C1276 C1275 1.400 . S
C1276 C1279 1.386 . S
H1277 C1293 0.930 . S
H1278 C1294 0.931 . S
C1279 H1267 0.929 . S
C1279 C1273 1.390 . S
C1279 C1276 1.386 . S
C1280 C1275 1.490 . S
C1280 C1282 1.395 . S
C1280 C1283 1.403 . S
H1281 C1287 0.930 . S
C1282 H1268 0.930 . S
C1282 C1280 1.395 . S
C1282 C1285 1.403 . S
C1283 C1280 1.403 . S
C1283 C1284 1.524 . S
C1283 C1287 1.400 . S
C1284 H1269 0.960 . S
C1284 H1270 0.960 . S
C1284 H1271 0.960 . S
C1284 C1283 1.524 . S
C1285 C1282 1.403 . S
C1285 C1286 1.392 . S
C1285 C1289 1.495 . S
C1286 C1285 1.392 . S
C1286 C1287 1.385 . S
C1286 C1288 1.478 . S
C1287 H1281 0.930 . S
C1287 C1283 1.400 . S
C1287 C1286 1.385 . S
C1288 C1286 1.478 . S
C1288 C1290 1.381 . S
C1288 C1294 1.383 . S
C1289 C1285 1.495 . S
C1289 H1295 0.959 . S
C1289 H1296 0.961 . S
C1289 H1297 0.960 . S
C1290 C1288 1.381 . S
C1290 C1291 1.394 . S
C1290 H1298 0.930 . S
C1291 C1290 1.394 . S
C1291 C1292 1.383 . S
C1291 H1299 0.929 . S
C1292 C1291 1.383 . S
C1292 C1293 1.377 . S
C1293 H1277 0.930 . S
C1293 C1292 1.377 . S
C1293 C1294 1.379 . S
C1294 H1278 0.931 . S
C1294 C1288 1.383 . S
C1294 C1293 1.379 . S
H1295 C1289 0.959 . S
H1296 C1289 0.961 . S
H1297 C1289 0.960 . S
H1298 C1290 0.930 . S
H1299 C1291 0.929 . S
H1300 C1308 0.929 . S
H1301 C1310 0.930 . S
H1302 C1312 0.930 . S
H1303 C1315 0.929 . S
H1304 C1318 0.930 . S
H1305 C1320 0.960 . S
H1306 C1320 0.960 . S
H1307 C1320 0.960 . S
C1308 H1300 0.929 . S
C1308 C1309 1.377 . S
C1308 C1310 1.384 . S
C1309 C1308 1.377 . S
C1309 C1315 1.390 . S
C1310 H1301 0.930 . S
C1310 C1308 1.384 . S
C1310 C1311 1.372 . S
C1311 C1310 1.372 . S
C1311 C1312 1.400 . S
C1311 C1316 1.490 . S
C1312 H1302 0.930 . S
C1312 C1311 1.400 . S
C1312 C1315 1.386 . S
H1313 C1329 0.930 . S
H1314 C1330 0.931 . S
C1315 H1303 0.929 . S
C1315 C1309 1.390 . S
C1315 C1312 1.386 . S
C1316 C1311 1.490 . S
C1316 C1318 1.395 . S
C1316 C1319 1.403 . S
H1317 C1323 0.930 . S
C1318 H1304 0.930 . S
C1318 C1316 1.395 . S
C1318 C1321 1.403 . S
C1319 C1316 1.403 . S
C1319 C1320 1.524 . S
C1319 C1323 1.400 . S
C1320 H1305 0.960 . S
C1320 H1306 0.960 . S
C1320 H1307 0.960 . S
C1320 C1319 1.524 . S
C1321 C1318 1.403 . S
C1321 C1322 1.392 . S
C1321 C1325 1.495 . S
C1322 C1321 1.392 . S
C1322 C1323 1.385 . S
C1322 C1324 1.478 . S
C1323 H1317 0.930 . S
C1323 C1319 1.400 . S
C1323 C1322 1.385 . S
C1324 C1322 1.478 . S
C1324 C1326 1.381 . S
C1324 C1330 1.383 . S
C1325 C1321 1.495 . S
C1325 H1331 0.959 . S
C1325 H1332 0.961 . S
C1325 H1333 0.960 . S
C1326 C1324 1.381 . S
C1326 C1327 1.394 . S
C1326 H1334 0.930 . S
C1327 C1326 1.394 . S
C1327 C1328 1.383 . S
C1327 H1335 0.929 . S
C1328 C1327 1.383 . S
C1328 C1329 1.377 . S
C1329 H1313 0.930 . S
C1329 C1328 1.377 . S
C1329 C1330 1.379 . S
C1330 H1314 0.931 . S
C1330 C1324 1.383 . S
C1330 C1329 1.379 . S
H1331 C1325 0.959 . S
H1332 C1325 0.961 . S
H1333 C1325 0.960 . S
H1334 C1326 0.930 . S
H1335 C1327 0.929 . S
H1336 C1344 0.929 . S
H1337 C1346 0.930 . S
H1338 C1348 0.930 . S
H1339 C1351 0.929 . S
H1340 C1354 0.930 . S
H1341 C1356 0.960 . S
H1342 C1356 0.960 . S
H1343 C1356 0.960 . S
C1344 H1336 0.929 . S
C1344 C1345 1.377 . S
C1344 C1346 1.384 . S
C1345 C1344 1.377 . S
C1345 C1351 1.390 . S
C1346 H1337 0.930 . S
C1346 C1344 1.384 . S
C1346 C1347 1.372 . S
C1347 C1346 1.372 . S
C1347 C1348 1.400 . S
C1347 C1352 1.490 . S
C1348 H1338 0.930 . S
C1348 C1347 1.400 . S
C1348 C1351 1.386 . S
H1349 C1365 0.930 . S
H1350 C1366 0.931 . S
C1351 H1339 0.929 . S
C1351 C1345 1.390 . S
C1351 C1348 1.386 . S
C1352 C1347 1.490 . S
C1352 C1354 1.395 1_655 S
C1352 C1355 1.403 1_565 S
H1353 C1359 0.930 . S
C1354 H1340 0.930 . S
C1354 C1352 1.395 1_455 S
C1354 C1357 1.403 1_554 S
C1355 C1352 1.403 1_545 S
C1355 C1356 1.524 . S
C1355 C1359 1.400 1_554 S
C1356 H1341 0.960 . S
C1356 H1342 0.960 . S
C1356 H1343 0.960 . S
C1356 C1355 1.524 . S
C1357 C1354 1.403 1_556 S
C1357 C1358 1.392 1_565 S
C1357 C1361 1.495 . S
C1358 C1357 1.392 1_545 S
C1358 C1359 1.385 1_455 S
C1358 C1360 1.478 . S
C1359 H1353 0.930 . S
C1359 C1355 1.400 1_556 S
C1359 C1358 1.385 1_655 S
C1360 C1358 1.478 . S
C1360 C1362 1.381 . S
C1360 C1366 1.383 . S
C1361 C1357 1.495 . S
C1361 H1367 0.959 . S
C1361 H1368 0.961 . S
C1361 H1369 0.960 . S
C1362 C1360 1.381 . S
C1362 C1363 1.394 . S
C1362 H1370 0.930 . S
C1363 C1362 1.394 . S
C1363 C1364 1.383 . S
C1363 H1371 0.929 . S
C1364 C1363 1.383 . S
C1364 C1365 1.377 . S
C1365 H1349 0.930 . S
C1365 C1364 1.377 . S
C1365 C1366 1.379 . S
C1366 H1350 0.931 . S
C1366 C1360 1.383 . S
C1366 C1365 1.379 . S
H1367 C1361 0.959 . S
H1368 C1361 0.961 . S
H1369 C1361 0.960 . S
H1370 C1362 0.930 . S
H1371 C1363 0.929 . S
H1372 C1380 0.929 . S
H1373 C1382 0.930 . S
H1374 C1384 0.930 . S
H1375 C1387 0.929 . S
H1376 C1390 0.930 . S
H1377 C1392 0.960 . S
H1378 C1392 0.960 . S
H1379 C1392 0.960 . S
C1380 H1372 0.929 . S
C1380 C1381 1.377 . S
C1380 C1382 1.384 . S
C1381 C1380 1.377 . S
C1381 C1387 1.390 . S
C1382 H1373 0.930 . S
C1382 C1380 1.384 . S
C1382 C1383 1.372 . S
C1383 C1382 1.372 . S
C1383 C1384 1.400 . S
C1383 C1388 1.490 . S
C1384 H1374 0.930 . S
C1384 C1383 1.400 . S
C1384 C1387 1.386 . S
H1385 C1401 0.930 . S
H1386 C1402 0.931 . S
C1387 H1375 0.929 . S
C1387 C1381 1.390 . S
C1387 C1384 1.386 . S
C1388 C1383 1.490 . S
C1388 C1390 1.395 . S
C1388 C1391 1.403 . S
H1389 C1395 0.930 . S
C1390 H1376 0.930 . S
C1390 C1388 1.395 . S
C1390 C1393 1.403 1_565 S
C1391 C1388 1.403 . S
C1391 C1392 1.524 . S
C1391 C1395 1.400 1_565 S
C1392 H1377 0.960 . S
C1392 H1378 0.960 . S
C1392 H1379 0.960 . S
C1392 C1391 1.524 . S
C1393 C1390 1.403 1_545 S
C1393 C1394 1.392 . S
C1393 C1397 1.495 . S
C1394 C1393 1.392 . S
C1394 C1395 1.385 . S
C1394 C1396 1.478 . S
C1395 H1389 0.930 . S
C1395 C1391 1.400 1_545 S
C1395 C1394 1.385 . S
C1396 C1394 1.478 . S
C1396 C1398 1.381 . S
C1396 C1402 1.383 . S
C1397 C1393 1.495 . S
C1397 H1403 0.959 . S
C1397 H1404 0.961 . S
C1397 H1405 0.960 . S
C1398 C1396 1.381 . S
C1398 C1399 1.394 . S
C1398 H1406 0.930 . S
C1399 C1398 1.394 . S
C1399 C1400 1.383 . S
C1399 H1407 0.929 . S
C1400 C1399 1.383 . S
C1400 C1401 1.377 . S
C1401 H1385 0.930 . S
C1401 C1400 1.377 . S
C1401 C1402 1.379 . S
C1402 H1386 0.931 . S
C1402 C1396 1.383 . S
C1402 C1401 1.379 . S
H1403 C1397 0.959 . S
H1404 C1397 0.961 . S
H1405 C1397 0.960 . S
H1406 C1398 0.930 . S
H1407 C1399 0.929 . S
H1408 C1416 0.929 . S
H1409 C1418 0.930 . S
H1410 C1420 0.930 . S
H1411 C1423 0.929 . S
H1412 C1426 0.930 . S
H1413 C1428 0.960 . S
H1414 C1428 0.960 . S
H1415 C1428 0.960 . S
C1416 H1408 0.929 . S
C1416 C1417 1.377 . S
C1416 C1418 1.384 . S
C1417 C1416 1.377 . S
C1417 C1423 1.390 . S
C1418 H1409 0.930 . S
C1418 C1416 1.384 . S
C1418 C1419 1.372 . S
C1419 C1418 1.372 . S
C1419 C1420 1.400 . S
C1419 C1424 1.490 . S
C1420 H1410 0.930 . S
C1420 C1419 1.400 . S
C1420 C1423 1.386 . S
H1421 C1437 0.930 . S
H1422 C1438 0.931 . S
C1423 H1411 0.929 . S
C1423 C1417 1.390 . S
C1423 C1420 1.386 . S
C1424 C1419 1.490 . S
C1424 C1426 1.395 . S
C1424 C1427 1.403 . S
H1425 C1431 0.930 . S
C1426 H1412 0.930 . S
C1426 C1424 1.395 . S
C1426 C1429 1.403 . S
C1427 C1424 1.403 . S
C1427 C1428 1.524 . S
C1427 C1431 1.400 . S
C1428 H1413 0.960 . S
C1428 H1414 0.960 . S
C1428 H1415 0.960 . S
C1428 C1427 1.524 . S
C1429 C1426 1.403 . S
C1429 C1430 1.392 . S
C1429 C1433 1.495 1_556 S
C1430 C1429 1.392 . S
C1430 C1431 1.385 . S
C1430 C1432 1.478 . S
C1431 H1425 0.930 . S
C1431 C1427 1.400 . S
C1431 C1430 1.385 . S
C1432 C1430 1.478 . S
C1432 C1434 1.381 1_556 S
C1432 C1438 1.383 . S
C1433 C1429 1.495 1_554 S
C1433 H1439 0.959 . S
C1433 H1440 0.961 . S
C1433 H1441 0.960 . S
C1434 C1432 1.381 1_554 S
C1434 C1435 1.394 . S
C1434 H1442 0.930 . S
C1435 C1434 1.394 . S
C1435 C1436 1.383 . S
C1435 H1443 0.929 . S
C1436 C1435 1.383 . S
C1436 C1437 1.377 1_554 S
C1437 H1421 0.930 . S
C1437 C1436 1.377 1_556 S
C1437 C1438 1.379 . S
C1438 H1422 0.931 . S
C1438 C1432 1.383 . S
C1438 C1437 1.379 . S
H1439 C1433 0.959 . S
H1440 C1433 0.961 . S
H1441 C1433 0.960 . S
H1442 C1434 0.930 . S
H1443 C1435 0.929 . S
H1444 C1452 0.929 . S
H1445 C1454 0.930 . S
H1446 C1456 0.930 . S
H1447 C1459 0.929 . S
H1448 C1462 0.930 . S
H1449 C1464 0.960 . S
H1450 C1464 0.960 . S
H1451 C1464 0.960 . S
C1452 H1444 0.929 . S
C1452 C1453 1.377 . S
C1452 C1454 1.384 . S
C1453 C1452 1.377 . S
C1453 C1459 1.390 . S
C1454 H1445 0.930 . S
C1454 C1452 1.384 . S
C1454 C1455 1.372 . S
C1455 C1454 1.372 . S
C1455 C1456 1.400 . S
C1455 C1460 1.490 . S
C1456 H1446 0.930 . S
C1456 C1455 1.400 . S
C1456 C1459 1.386 . S
H1457 C1473 0.930 . S
H1458 C1474 0.931 . S
C1459 H1447 0.929 . S
C1459 C1453 1.390 . S
C1459 C1456 1.386 . S
C1460 C1455 1.490 . S
C1460 C1462 1.395 . S
C1460 C1463 1.403 . S
H1461 C1467 0.930 . S
C1462 H1448 0.930 . S
C1462 C1460 1.395 . S
C1462 C1465 1.403 . S
C1463 C1460 1.403 . S
C1463 C1464 1.524 . S
C1463 C1467 1.400 . S
C1464 H1449 0.960 . S
C1464 H1450 0.960 . S
C1464 H1451 0.960 . S
C1464 C1463 1.524 . S
C1465 C1462 1.403 . S
C1465 C1466 1.392 . S
C1465 C1469 1.495 . S
C1466 C1465 1.392 . S
C1466 C1467 1.385 . S
C1466 C1468 1.478 . S
C1467 H1461 0.930 . S
C1467 C1463 1.400 . S
C1467 C1466 1.385 . S
C1468 C1466 1.478 . S
C1468 C1470 1.381 . S
C1468 C1474 1.383 . S
C1469 C1465 1.495 . S
C1469 H1475 0.959 . S
C1469 H1476 0.961 . S
C1469 H1477 0.960 . S
C1470 C1468 1.381 . S
C1470 C1471 1.394 . S
C1470 H1478 0.930 . S
C1471 C1470 1.394 . S
C1471 C1472 1.383 . S
C1471 H1479 0.929 . S
C1472 C1471 1.383 . S
C1472 C1473 1.377 . S
C1473 H1457 0.930 . S
C1473 C1472 1.377 . S
C1473 C1474 1.379 . S
C1474 H1458 0.931 . S
C1474 C1468 1.383 . S
C1474 C1473 1.379 . S
H1475 C1469 0.959 . S
H1476 C1469 0.961 . S
H1477 C1469 0.960 . S
H1478 C1470 0.930 . S
H1479 C1471 0.929 . S
H1480 C1488 0.929 . S
H1481 C1490 0.930 . S
H1482 C1492 0.930 . S
H1483 C1495 0.929 . S
H1484 C1498 0.930 . S
H1485 C1500 0.960 . S
H1486 C1500 0.960 . S
H1487 C1500 0.960 . S
C1488 H1480 0.929 . S
C1488 C1489 1.377 . S
C1488 C1490 1.384 . S
C1489 C1488 1.377 . S
C1489 C1495 1.390 . S
C1490 H1481 0.930 . S
C1490 C1488 1.384 . S
C1490 C1491 1.372 . S
C1491 C1490 1.372 . S
C1491 C1492 1.400 . S
C1491 C1496 1.490 . S
C1492 H1482 0.930 . S
C1492 C1491 1.400 . S
C1492 C1495 1.386 . S
H1493 C1509 0.930 . S
H1494 C1510 0.931 . S
C1495 H1483 0.929 . S
C1495 C1489 1.390 . S
C1495 C1492 1.386 . S
C1496 C1491 1.490 . S
C1496 C1498 1.395 . S
C1496 C1499 1.403 . S
H1497 C1503 0.930 . S
C1498 H1484 0.930 . S
C1498 C1496 1.395 . S
C1498 C1501 1.403 . S
C1499 C1496 1.403 . S
C1499 C1500 1.524 . S
C1499 C1503 1.400 . S
C1500 H1485 0.960 . S
C1500 H1486 0.960 . S
C1500 H1487 0.960 . S
C1500 C1499 1.524 . S
C1501 C1498 1.403 . S
C1501 C1502 1.392 . S
C1501 C1505 1.495 . S
C1502 C1501 1.392 . S
C1502 C1503 1.385 . S
C1502 C1504 1.478 . S
C1503 H1497 0.930 . S
C1503 C1499 1.400 . S
C1503 C1502 1.385 . S
C1504 C1502 1.478 . S
C1504 C1506 1.381 . S
C1504 C1510 1.383 . S
C1505 C1501 1.495 . S
C1505 H1511 0.959 . S
C1505 H1512 0.961 . S
C1505 H1513 0.960 . S
C1506 C1504 1.381 . S
C1506 C1507 1.394 . S
C1506 H1514 0.930 . S
C1507 C1506 1.394 . S
C1507 C1508 1.383 . S
C1507 H1515 0.929 . S
C1508 C1507 1.383 . S
C1508 C1509 1.377 . S
C1509 H1493 0.930 . S
C1509 C1508 1.377 . S
C1509 C1510 1.379 . S
C1510 H1494 0.931 . S
C1510 C1504 1.383 . S
C1510 C1509 1.379 . S
H1511 C1505 0.959 . S
H1512 C1505 0.961 . S
H1513 C1505 0.960 . S
H1514 C1506 0.930 . S
H1515 C1507 0.929 . S
H1516 C1524 0.929 . S
H1517 C1526 0.930 . S
H1518 C1528 0.930 . S
H1519 C1531 0.929 . S
H1520 C1534 0.930 . S
H1521 C1536 0.960 . S
H1522 C1536 0.960 . S
H1523 C1536 0.960 . S
C1524 H1516 0.929 . S
C1524 C1525 1.377 . S
C1524 C1526 1.384 . S
C1525 C1524 1.377 . S
C1525 C1531 1.390 . S
C1526 H1517 0.930 . S
C1526 C1524 1.384 . S
C1526 C1527 1.372 . S
C1527 C1526 1.372 . S
C1527 C1528 1.400 . S
C1527 C1532 1.490 . S
C1528 H1518 0.930 . S
C1528 C1527 1.400 . S
C1528 C1531 1.386 . S
H1529 C1545 0.930 . S
H1530 C1546 0.931 . S
C1531 H1519 0.929 . S
C1531 C1525 1.390 . S
C1531 C1528 1.386 . S
C1532 C1527 1.490 . S
C1532 C1534 1.395 . S
C1532 C1535 1.403 . S
H1533 C1539 0.930 . S
C1534 H1520 0.930 . S
C1534 C1532 1.395 . S
C1534 C1537 1.403 . S
C1535 C1532 1.403 . S
C1535 C1536 1.524 . S
C1535 C1539 1.400 . S
C1536 H1521 0.960 . S
C1536 H1522 0.960 . S
C1536 H1523 0.960 . S
C1536 C1535 1.524 . S
C1537 C1534 1.403 . S
C1537 C1538 1.392 . S
C1537 C1541 1.495 . S
C1538 C1537 1.392 . S
C1538 C1539 1.385 . S
C1538 C1540 1.478 . S
C1539 H1533 0.930 . S
C1539 C1535 1.400 . S
C1539 C1538 1.385 . S
C1540 C1538 1.478 . S
C1540 C1542 1.381 . S
C1540 C1546 1.383 . S
C1541 C1537 1.495 . S
C1541 H1547 0.959 . S
C1541 H1548 0.961 . S
C1541 H1549 0.960 . S
C1542 C1540 1.381 . S
C1542 C1543 1.394 . S
C1542 H1550 0.930 . S
C1543 C1542 1.394 . S
C1543 C1544 1.383 . S
C1543 H1551 0.929 . S
C1544 C1543 1.383 . S
C1544 C1545 1.377 . S
C1545 H1529 0.930 . S
C1545 C1544 1.377 . S
C1545 C1546 1.379 . S
C1546 H1530 0.931 . S
C1546 C1540 1.383 . S
C1546 C1545 1.379 . S
H1547 C1541 0.959 . S
H1548 C1541 0.961 . S
H1549 C1541 0.960 . S
H1550 C1542 0.930 . S
H1551 C1543 0.929 . S
H1552 C1560 0.929 . S
H1553 C1562 0.930 . S
H1554 C1564 0.930 . S
H1555 C1567 0.929 . S
H1556 C1570 0.930 . S
H1557 C1572 0.960 . S
H1558 C1572 0.960 . S
H1559 C1572 0.960 . S
C1560 H1552 0.929 . S
C1560 C1561 1.377 1_554 S
C1560 C1562 1.384 . S
C1561 C1560 1.377 1_556 S
C1561 C1567 1.390 . S
C1562 H1553 0.930 . S
C1562 C1560 1.384 . S
C1562 C1563 1.372 . S
C1563 C1562 1.372 . S
C1563 C1564 1.400 . S
C1563 C1568 1.490 . S
C1564 H1554 0.930 . S
C1564 C1563 1.400 . S
C1564 C1567 1.386 1_554 S
H1565 C1581 0.930 . S
H1566 C1582 0.931 . S
C1567 H1555 0.929 . S
C1567 C1561 1.390 . S
C1567 C1564 1.386 1_556 S
C1568 C1563 1.490 . S
C1568 C1570 1.395 . S
C1568 C1571 1.403 . S
H1569 C1575 0.930 . S
C1570 H1556 0.930 . S
C1570 C1568 1.395 . S
C1570 C1573 1.403 . S
C1571 C1568 1.403 . S
C1571 C1572 1.524 . S
C1571 C1575 1.400 . S
C1572 H1557 0.960 . S
C1572 H1558 0.960 . S
C1572 H1559 0.960 . S
C1572 C1571 1.524 . S
C1573 C1570 1.403 . S
C1573 C1574 1.392 . S
C1573 C1577 1.495 . S
C1574 C1573 1.392 . S
C1574 C1575 1.385 . S
C1574 C1576 1.478 . S
C1575 H1569 0.930 . S
C1575 C1571 1.400 . S
C1575 C1574 1.385 . S
C1576 C1574 1.478 . S
C1576 C1578 1.381 . S
C1576 C1582 1.383 . S
C1577 C1573 1.495 . S
C1577 H1583 0.959 1_554 S
C1577 H1584 0.961 . S
C1577 H1585 0.960 . S
C1578 C1576 1.381 . S
C1578 C1579 1.394 . S
C1578 H1586 0.930 . S
C1579 C1578 1.394 . S
C1579 C1580 1.383 . S
C1579 H1587 0.929 . S
C1580 C1579 1.383 . S
C1580 C1581 1.377 . S
C1581 H1565 0.930 . S
C1581 C1580 1.377 . S
C1581 C1582 1.379 . S
C1582 H1566 0.931 . S
C1582 C1576 1.383 . S
C1582 C1581 1.379 . S
H1583 C1577 0.959 1_556 S
H1584 C1577 0.961 . S
H1585 C1577 0.960 . S
H1586 C1578 0.930 . S
H1587 C1579 0.929 . S
H1588 C1596 0.929 . S
H1589 C1598 0.930 . S
H1590 C1600 0.930 . S
H1591 C1603 0.929 . S
H1592 C1606 0.930 . S
H1593 C1608 0.960 . S
H1594 C1608 0.960 . S
H1595 C1608 0.960 . S
C1596 H1588 0.929 . S
C1596 C1597 1.377 . S
C1596 C1598 1.384 . S
C1597 C1596 1.377 . S
C1597 C1603 1.390 . S
C1598 H1589 0.930 . S
C1598 C1596 1.384 . S
C1598 C1599 1.372 . S
C1599 C1598 1.372 . S
C1599 C1600 1.400 . S
C1599 C1604 1.490 . S
C1600 H1590 0.930 . S
C1600 C1599 1.400 . S
C1600 C1603 1.386 . S
H1601 C1617 0.930 . S
H1602 C1618 0.931 . S
C1603 H1591 0.929 . S
C1603 C1597 1.390 . S
C1603 C1600 1.386 . S
C1604 C1599 1.490 . S
C1604 C1606 1.395 . S
C1604 C1607 1.403 . S
H1605 C1611 0.930 . S
C1606 H1592 0.930 . S
C1606 C1604 1.395 . S
C1606 C1609 1.403 . S
C1607 C1604 1.403 . S
C1607 C1608 1.524 . S
C1607 C1611 1.400 . S
C1608 H1593 0.960 . S
C1608 H1594 0.960 . S
C1608 H1595 0.960 . S
C1608 C1607 1.524 . S
C1609 C1606 1.403 . S
C1609 C1610 1.392 . S
C1609 C1613 1.495 . S
C1610 C1609 1.392 . S
C1610 C1611 1.385 . S
C1610 C1612 1.478 . S
C1611 H1605 0.930 . S
C1611 C1607 1.400 . S
C1611 C1610 1.385 . S
C1612 C1610 1.478 . S
C1612 C1614 1.381 . S
C1612 C1618 1.383 . S
C1613 C1609 1.495 . S
C1613 H1619 0.959 . S
C1613 H1620 0.961 . S
C1613 H1621 0.960 . S
C1614 C1612 1.381 . S
C1614 C1615 1.394 . S
C1614 H1622 0.930 . S
C1615 C1614 1.394 . S
C1615 C1616 1.383 . S
C1615 H1623 0.929 . S
C1616 C1615 1.383 . S
C1616 C1617 1.377 . S
C1617 H1601 0.930 . S
C1617 C1616 1.377 . S
C1617 C1618 1.379 . S
C1618 H1602 0.931 . S
C1618 C1612 1.383 . S
C1618 C1617 1.379 . S
H1619 C1613 0.959 . S
H1620 C1613 0.961 . S
H1621 C1613 0.960 . S
H1622 C1614 0.930 . S
H1623 C1615 0.929 . S
H1624 C1632 0.929 . S
H1625 C1634 0.930 . S
H1626 C1636 0.930 . S
H1627 C1639 0.929 . S
H1628 C1642 0.930 . S
H1629 C1644 0.960 . S
H1630 C1644 0.960 . S
H1631 C1644 0.960 . S
C1632 H1624 0.929 . S
C1632 C1633 1.377 . S
C1632 C1634 1.384 . S
C1633 C1632 1.377 . S
C1633 C1639 1.390 . S
C1634 H1625 0.930 . S
C1634 C1632 1.384 . S
C1634 C1635 1.372 . S
C1635 C1634 1.372 . S
C1635 C1636 1.400 . S
C1635 C1640 1.490 . S
C1636 H1626 0.930 . S
C1636 C1635 1.400 . S
C1636 C1639 1.386 . S
H1637 C1653 0.930 . S
H1638 C1654 0.931 . S
C1639 H1627 0.929 . S
C1639 C1633 1.390 . S
C1639 C1636 1.386 . S
C1640 C1635 1.490 . S
C1640 C1642 1.395 . S
C1640 C1643 1.403 . S
H1641 C1647 0.930 . S
C1642 H1628 0.930 . S
C1642 C1640 1.395 . S
C1642 C1645 1.403 . S
C1643 C1640 1.403 . S
C1643 C1644 1.524 . S
C1643 C1647 1.400 . S
C1644 H1629 0.960 . S
C1644 H1630 0.960 . S
C1644 H1631 0.960 . S
C1644 C1643 1.524 . S
C1645 C1642 1.403 . S
C1645 C1646 1.392 . S
C1645 C1649 1.495 . S
C1646 C1645 1.392 . S
C1646 C1647 1.385 . S
C1646 C1648 1.478 . S
C1647 H1641 0.930 . S
C1647 C1643 1.400 . S
C1647 C1646 1.385 . S
C1648 C1646 1.478 . S
C1648 C1650 1.381 . S
C1648 C1654 1.383 . S
C1649 C1645 1.495 . S
C1649 H1655 0.959 . S
C1649 H1656 0.961 . S
C1649 H1657 0.960 . S
C1650 C1648 1.381 . S
C1650 C1651 1.394 . S
C1650 H1658 0.930 . S
C1651 C1650 1.394 . S
C1651 C1652 1.383 . S
C1651 H1659 0.929 . S
C1652 C1651 1.383 . S
C1652 C1653 1.377 . S
C1653 H1637 0.930 . S
C1653 C1652 1.377 . S
C1653 C1654 1.379 . S
C1654 H1638 0.931 . S
C1654 C1648 1.383 . S
C1654 C1653 1.379 . S
H1655 C1649 0.959 . S
H1656 C1649 0.961 . S
H1657 C1649 0.960 . S
H1658 C1650 0.930 . S
H1659 C1651 0.929 . S
H1660 C1668 0.929 . S
H1661 C1670 0.930 . S
H1662 C1672 0.930 . S
H1663 C1675 0.929 . S
H1664 C1678 0.930 . S
H1665 C1680 0.960 . S
H1666 C1680 0.960 . S
H1667 C1680 0.960 . S
C1668 H1660 0.929 . S
C1668 C1669 1.377 . S
C1668 C1670 1.384 . S
C1669 C1668 1.377 . S
C1669 C1675 1.390 . S
C1670 H1661 0.930 . S
C1670 C1668 1.384 . S
C1670 C1671 1.372 . S
C1671 C1670 1.372 . S
C1671 C1672 1.400 . S
C1671 C1676 1.490 . S
C1672 H1662 0.930 . S
C1672 C1671 1.400 . S
C1672 C1675 1.386 . S
H1673 C1689 0.930 . S
H1674 C1690 0.931 . S
C1675 H1663 0.929 . S
C1675 C1669 1.390 . S
C1675 C1672 1.386 . S
C1676 C1671 1.490 . S
C1676 C1678 1.395 . S
C1676 C1679 1.403 . S
H1677 C1683 0.930 . S
C1678 H1664 0.930 . S
C1678 C1676 1.395 . S
C1678 C1681 1.403 . S
C1679 C1676 1.403 . S
C1679 C1680 1.524 . S
C1679 C1683 1.400 . S
C1680 H1665 0.960 . S
C1680 H1666 0.960 . S
C1680 H1667 0.960 . S
C1680 C1679 1.524 . S
C1681 C1678 1.403 . S
C1681 C1682 1.392 . S
C1681 C1685 1.495 . S
C1682 C1681 1.392 . S
C1682 C1683 1.385 . S
C1682 C1684 1.478 . S
C1683 H1677 0.930 . S
C1683 C1679 1.400 . S
C1683 C1682 1.385 . S
C1684 C1682 1.478 . S
C1684 C1686 1.381 . S
C1684 C1690 1.383 . S
C1685 C1681 1.495 . S
C1685 H1691 0.959 . S
C1685 H1692 0.961 . S
C1685 H1693 0.960 . S
C1686 C1684 1.381 . S
C1686 C1687 1.394 . S
C1686 H1694 0.930 . S
C1687 C1686 1.394 . S
C1687 C1688 1.383 . S
C1687 H1695 0.929 . S
C1688 C1687 1.383 . S
C1688 C1689 1.377 . S
C1689 H1673 0.930 . S
C1689 C1688 1.377 . S
C1689 C1690 1.379 . S
C1690 H1674 0.931 . S
C1690 C1684 1.383 . S
C1690 C1689 1.379 . S
H1691 C1685 0.959 . S
H1692 C1685 0.961 . S
H1693 C1685 0.960 . S
H1694 C1686 0.930 . S
H1695 C1687 0.929 . S
H1696 C1704 0.929 . S
H1697 C1706 0.930 . S
H1698 C1708 0.930 . S
H1699 C1711 0.929 . S
H1700 C1714 0.930 . S
H1701 C1716 0.960 . S
H1702 C1716 0.960 . S
H1703 C1716 0.960 . S
C1704 H1696 0.929 . S
C1704 C1705 1.377 . S
C1704 C1706 1.384 . S
C1705 C1704 1.377 . S
C1705 C1711 1.390 . S
C1706 H1697 0.930 . S
C1706 C1704 1.384 . S
C1706 C1707 1.372 . S
C1707 C1706 1.372 . S
C1707 C1708 1.400 . S
C1707 C1712 1.490 . S
C1708 H1698 0.930 . S
C1708 C1707 1.400 . S
C1708 C1711 1.386 . S
H1709 C1725 0.930 . S
H1710 C1726 0.931 . S
C1711 H1699 0.929 . S
C1711 C1705 1.390 . S
C1711 C1708 1.386 . S
C1712 C1707 1.490 . S
C1712 C1714 1.395 . S
C1712 C1715 1.403 . S
H1713 C1719 0.930 . S
C1714 H1700 0.930 . S
C1714 C1712 1.395 . S
C1714 C1717 1.403 . S
C1715 C1712 1.403 . S
C1715 C1716 1.524 . S
C1715 C1719 1.400 . S
C1716 H1701 0.960 . S
C1716 H1702 0.960 . S
C1716 H1703 0.960 . S
C1716 C1715 1.524 . S
C1717 C1714 1.403 . S
C1717 C1718 1.392 . S
C1717 C1721 1.495 . S
C1718 C1717 1.392 . S
C1718 C1719 1.385 . S
C1718 C1720 1.478 . S
C1719 H1713 0.930 . S
C1719 C1715 1.400 . S
C1719 C1718 1.385 . S
C1720 C1718 1.478 . S
C1720 C1722 1.381 . S
C1720 C1726 1.383 . S
C1721 C1717 1.495 . S
C1721 H1727 0.959 . S
C1721 H1728 0.961 . S
C1721 H1729 0.960 . S
C1722 C1720 1.381 . S
C1722 C1723 1.394 . S
C1722 H1730 0.930 . S
C1723 C1722 1.394 . S
C1723 C1724 1.383 . S
C1723 H1731 0.929 . S
C1724 C1723 1.383 . S
C1724 C1725 1.377 . S
C1725 H1709 0.930 . S
C1725 C1724 1.377 . S
C1725 C1726 1.379 . S
C1726 H1710 0.931 . S
C1726 C1720 1.383 . S
C1726 C1725 1.379 . S
H1727 C1721 0.959 . S
H1728 C1721 0.961 . S
H1729 C1721 0.960 . S
H1730 C1722 0.930 . S
H1731 C1723 0.929 . S
H1732 C1740 0.929 . S
H1733 C1742 0.930 . S
H1734 C1744 0.944 . S
H1735 C1747 0.929 . S
H1736 C1750 0.930 . S
H1737 C1752 0.960 . S
H1738 C1752 0.960 . S
H1739 C1752 0.960 . S
C1740 H1732 0.929 . S
C1740 C1741 1.377 . S
C1740 C1742 1.384 1_545 S
C1741 C1740 1.377 . S
C1741 C1747 1.390 . S
C1742 H1733 0.930 . S
C1742 C1740 1.384 1_565 S
C1742 C1743 1.372 . S
C1743 C1742 1.372 . S
C1743 C1744 1.400 1_565 S
C1743 C1748 1.490 . S
C1744 H1734 0.944 . S
C1744 C1743 1.400 1_545 S
C1744 C1747 1.386 . S
H1745 C1761 0.930 . S
H1746 C1762 0.931 . S
C1747 H1735 0.929 . S
C1747 C1741 1.390 . S
C1747 C1744 1.386 . S
C1748 C1743 1.490 . S
C1748 C1750 1.395 . S
C1748 C1751 1.403 . S
H1749 C1755 0.930 . S
C1750 H1736 0.930 . S
C1750 C1748 1.395 . S
C1750 C1753 1.403 . S
C1751 C1748 1.403 . S
C1751 C1752 1.524 . S
C1751 C1755 1.400 . S
C1752 H1737 0.960 . S
C1752 H1738 0.960 . S
C1752 H1739 0.960 . S
C1752 C1751 1.524 . S
C1753 C1750 1.403 . S
C1753 C1754 1.392 . S
C1753 C1757 1.495 . S
C1754 C1753 1.392 . S
C1754 C1755 1.385 . S
C1754 C1756 1.478 . S
C1755 H1749 0.930 . S
C1755 C1751 1.400 . S
C1755 C1754 1.385 . S
C1756 C1754 1.478 . S
C1756 C1758 1.381 . S
C1756 C1762 1.383 . S
C1757 C1753 1.495 . S
C1757 H1763 0.959 . S
C1757 H1764 0.961 . S
C1757 H1765 0.960 . S
C1758 C1756 1.381 . S
C1758 C1759 1.394 . S
C1758 H1766 0.930 . S
C1759 C1758 1.394 . S
C1759 C1760 1.383 . S
C1759 H1767 0.929 . S
C1760 C1759 1.383 . S
C1760 C1761 1.377 . S
C1761 H1745 0.930 . S
C1761 C1760 1.377 . S
C1761 C1762 1.379 . S
C1762 H1746 0.931 . S
C1762 C1756 1.383 . S
C1762 C1761 1.379 . S
H1763 C1757 0.959 . S
H1764 C1757 0.961 . S
H1765 C1757 0.960 . S
H1766 C1758 0.930 . S
H1767 C1759 0.929 . S
H1768 C1776 0.929 . S
H1769 C1778 0.930 . S
H1770 C1780 0.930 . S
H1771 C1783 0.929 . S
H1772 C1786 0.930 1_554 S
H1773 C1788 0.960 . S
H1774 C1788 0.960 . S
H1775 C1788 0.960 . S
C1776 H1768 0.929 . S
C1776 C1777 1.377 . S
C1776 C1778 1.384 1_554 S
C1777 C1776 1.377 . S
C1777 C1783 1.390 1_554 S
C1778 H1769 0.930 . S
C1778 C1776 1.384 1_556 S
C1778 C1779 1.372 . S
C1779 C1778 1.372 . S
C1779 C1780 1.400 . S
C1779 C1784 1.490 . S
C1780 H1770 0.930 . S
C1780 C1779 1.400 . S
C1780 C1783 1.386 . S
H1781 C1797 0.930 . S
H1782 C1798 0.931 . S
C1783 H1771 0.929 . S
C1783 C1777 1.390 1_556 S
C1783 C1780 1.386 . S
C1784 C1779 1.490 . S
C1784 C1786 1.395 . S
C1784 C1787 1.403 . S
H1785 C1791 0.930 . S
C1786 H1772 0.930 1_556 S
C1786 C1784 1.395 . S
C1786 C1789 1.403 . S
C1787 C1784 1.403 . S
C1787 C1788 1.524 . S
C1787 C1791 1.400 . S
C1788 H1773 0.960 . S
C1788 H1774 0.960 . S
C1788 H1775 0.960 . S
C1788 C1787 1.524 . S
C1789 C1786 1.403 . S
C1789 C1790 1.392 . S
C1789 C1793 1.495 1_556 S
C1790 C1789 1.392 . S
C1790 C1791 1.385 . S
C1790 C1792 1.478 . S
C1791 H1785 0.930 . S
C1791 C1787 1.400 . S
C1791 C1790 1.385 . S
C1792 C1790 1.478 . S
C1792 C1794 1.381 . S
C1792 C1798 1.383 . S
C1793 C1789 1.495 1_554 S
C1793 H1799 0.959 . S
C1793 H1800 0.961 . S
C1793 H1801 0.960 1_554 S
C1794 C1792 1.381 . S
C1794 C1795 1.394 . S
C1794 H1802 0.930 . S
C1795 C1794 1.394 . S
C1795 C1796 1.383 . S
C1795 H1803 0.929 . S
C1796 C1795 1.383 . S
C1796 C1797 1.377 . S
C1797 H1781 0.930 . S
C1797 C1796 1.377 . S
C1797 C1798 1.379 . S
C1798 H1782 0.931 . S
C1798 C1792 1.383 . S
C1798 C1797 1.379 . S
H1799 C1793 0.959 . S
H1800 C1793 0.961 . S
H1801 C1793 0.960 1_556 S
H1802 C1794 0.930 . S
H1803 C1795 0.929 . S
H1804 C1812 0.929 . S
H1805 C1814 0.930 . S
H1806 C1816 0.930 . S
H1807 C1819 0.929 . S
H1808 C1822 0.930 . S
H1809 C1824 0.960 . S
H1810 C1824 0.960 . S
H1811 C1824 0.960 . S
C1812 H1804 0.929 . S
C1812 C1813 1.377 . S
C1812 C1814 1.384 . S
C1813 C1812 1.377 . S
C1813 C1819 1.390 . S
C1814 H1805 0.930 . S
C1814 C1812 1.384 . S
C1814 C1815 1.372 1_565 S
C1815 C1814 1.372 1_545 S
C1815 C1816 1.400 . S
C1815 C1820 1.490 . S
C1816 H1806 0.930 . S
C1816 C1815 1.400 . S
C1816 C1819 1.386 1_545 S
H1817 C1833 0.930 . S
H1818 C1834 0.931 . S
C1819 H1807 0.929 . S
C1819 C1813 1.390 . S
C1819 C1816 1.386 1_565 S
C1820 C1815 1.490 . S
C1820 C1822 1.395 . S
C1820 C1823 1.403 . S
H1821 C1827 0.930 . S
C1822 H1808 0.930 . S
C1822 C1820 1.395 . S
C1822 C1825 1.403 . S
C1823 C1820 1.403 . S
C1823 C1824 1.524 . S
C1823 C1827 1.400 . S
C1824 H1809 0.960 . S
C1824 H1810 0.960 . S
C1824 H1811 0.960 . S
C1824 C1823 1.524 . S
C1825 C1822 1.403 . S
C1825 C1826 1.392 . S
C1825 C1829 1.495 . S
C1826 C1825 1.392 . S
C1826 C1827 1.385 . S
C1826 C1828 1.478 . S
C1827 H1821 0.930 . S
C1827 C1823 1.400 . S
C1827 C1826 1.385 . S
C1828 C1826 1.478 . S
C1828 C1830 1.381 . S
C1828 C1834 1.383 . S
C1829 C1825 1.495 . S
C1829 H1835 0.959 . S
C1829 H1836 0.961 . S
C1829 H1837 0.960 . S
C1830 C1828 1.381 . S
C1830 C1831 1.394 . S
C1830 H1838 0.930 . S
C1831 C1830 1.394 . S
C1831 C1832 1.383 . S
C1831 H1839 0.929 . S
C1832 C1831 1.383 . S
C1832 C1833 1.377 . S
C1833 H1817 0.930 . S
C1833 C1832 1.377 . S
C1833 C1834 1.379 . S
C1834 H1818 0.931 . S
C1834 C1828 1.383 . S
C1834 C1833 1.379 . S
H1835 C1829 0.959 . S
H1836 C1829 0.961 . S
H1837 C1829 0.960 . S
H1838 C1830 0.930 . S
H1839 C1831 0.929 . S
H1840 C1848 0.929 . S
H1841 C1850 0.930 . S
H1842 C1852 0.930 . S
H1843 C1855 0.929 . S
H1844 C1858 0.930 . S
H1845 C1860 0.960 . S
H1846 C1860 0.960 . S
H1847 C1860 0.960 . S
C1848 H1840 0.929 . S
C1848 C1849 1.377 . S
C1848 C1850 1.384 . S
C1849 C1848 1.377 . S
C1849 C1855 1.390 . S
C1850 H1841 0.930 . S
C1850 C1848 1.384 . S
C1850 C1851 1.372 . S
C1851 C1850 1.372 . S
C1851 C1852 1.400 . S
C1851 C1856 1.490 . S
C1852 H1842 0.930 . S
C1852 C1851 1.400 . S
C1852 C1855 1.386 . S
H1853 C1869 0.930 . S
H1854 C1870 0.931 . S
C1855 H1843 0.929 . S
C1855 C1849 1.390 . S
C1855 C1852 1.386 . S
C1856 C1851 1.490 . S
C1856 C1858 1.395 . S
C1856 C1859 1.403 . S
H1857 C1863 0.930 . S
C1858 H1844 0.930 . S
C1858 C1856 1.395 . S
C1858 C1861 1.403 . S
C1859 C1856 1.403 . S
C1859 C1860 1.524 . S
C1859 C1863 1.400 . S
C1860 H1845 0.960 . S
C1860 H1846 0.960 . S
C1860 H1847 0.960 . S
C1860 C1859 1.524 . S
C1861 C1858 1.403 . S
C1861 C1862 1.392 . S
C1861 C1865 1.495 . S
C1862 C1861 1.392 . S
C1862 C1863 1.385 . S
C1862 C1864 1.478 . S
C1863 H1857 0.930 . S
C1863 C1859 1.400 . S
C1863 C1862 1.385 . S
C1864 C1862 1.478 . S
C1864 C1866 1.381 . S
C1864 C1870 1.383 . S
C1865 C1861 1.495 . S
C1865 H1871 0.959 . S
C1865 H1872 0.961 . S
C1865 H1873 0.960 . S
C1866 C1864 1.381 . S
C1866 C1867 1.394 . S
C1866 H1874 0.930 . S
C1867 C1866 1.394 . S
C1867 C1868 1.383 . S
C1867 H1875 0.929 . S
C1868 C1867 1.383 . S
C1868 C1869 1.377 . S
C1869 H1853 0.930 . S
C1869 C1868 1.377 . S
C1869 C1870 1.379 . S
C1870 H1854 0.931 . S
C1870 C1864 1.383 . S
C1870 C1869 1.379 . S
H1871 C1865 0.959 . S
H1872 C1865 0.961 . S
H1873 C1865 0.960 . S
H1874 C1866 0.930 . S
H1875 C1867 0.929 . S
H1876 C1884 0.929 . S
H1877 C1886 0.930 . S
H1878 C1888 0.930 . S
H1879 C1891 0.929 . S
H1880 C1894 0.930 . S
H1881 C1896 0.960 . S
H1882 C1896 0.960 . S
H1883 C1896 0.960 . S
C1884 H1876 0.929 . S
C1884 C1885 1.377 . S
C1884 C1886 1.384 . S
C1885 C1884 1.377 . S
C1885 C1891 1.390 . S
C1886 H1877 0.930 . S
C1886 C1884 1.384 . S
C1886 C1887 1.372 . S
C1887 C1886 1.372 . S
C1887 C1888 1.400 . S
C1887 C1892 1.490 . S
C1888 H1878 0.930 . S
C1888 C1887 1.400 . S
C1888 C1891 1.386 . S
H1889 C1905 0.930 . S
H1890 C1906 0.931 1_545 S
C1891 H1879 0.929 . S
C1891 C1885 1.390 . S
C1891 C1888 1.386 . S
C1892 C1887 1.490 . S
C1892 C1894 1.395 . S
C1892 C1895 1.403 . S
H1893 C1899 0.930 . S
C1894 H1880 0.930 . S
C1894 C1892 1.395 . S
C1894 C1897 1.403 . S
C1895 C1892 1.403 . S
C1895 C1896 1.524 . S
C1895 C1899 1.400 . S
C1896 H1881 0.960 . S
C1896 H1882 0.960 . S
C1896 H1883 0.960 . S
C1896 C1895 1.524 . S
C1897 C1894 1.403 . S
C1897 C1898 1.392 . S
C1897 C1901 1.495 . S
C1898 C1897 1.392 . S
C1898 C1899 1.385 . S
C1898 C1900 1.478 . S
C1899 H1893 0.930 . S
C1899 C1895 1.400 . S
C1899 C1898 1.385 . S
C1900 C1898 1.478 . S
C1900 C1902 1.381 1_545 S
C1900 C1906 1.383 1_545 S
C1901 C1897 1.495 . S
C1901 H1907 0.959 . S
C1901 H1908 0.961 1_545 S
C1901 H1909 0.960 . S
C1902 C1900 1.381 1_565 S
C1902 C1903 1.394 . S
C1902 H1910 0.930 1_565 S
C1903 C1902 1.394 . S
C1903 C1904 1.383 . S
C1903 H1911 0.929 . S
C1904 C1903 1.383 . S
C1904 C1905 1.377 . S
C1905 H1889 0.930 . S
C1905 C1904 1.377 . S
C1905 C1906 1.379 . S
C1906 H1890 0.931 1_565 S
C1906 C1900 1.383 1_565 S
C1906 C1905 1.379 . S
H1907 C1901 0.959 . S
H1908 C1901 0.961 1_565 S
H1909 C1901 0.960 . S
H1910 C1902 0.930 1_545 S
H1911 C1903 0.929 . S
H1912 C1920 0.929 . S
H1913 C1922 0.930 . S
H1914 C1924 0.930 . S
H1915 C1927 0.929 . S
H1916 C1930 0.930 . S
H1917 C1932 0.960 1_556 S
H1918 C1932 0.960 . S
H1919 C1932 0.960 . S
C1920 H1912 0.929 . S
C1920 C1921 1.377 . S
C1920 C1922 1.384 . S
C1921 C1920 1.377 . S
C1921 C1927 1.390 . S
C1922 H1913 0.930 . S
C1922 C1920 1.384 . S
C1922 C1923 1.372 . S
C1923 C1922 1.372 . S
C1923 C1924 1.400 . S
C1923 C1928 1.490 . S
C1924 H1914 0.930 . S
C1924 C1923 1.400 . S
C1924 C1927 1.386 . S
H1925 C1941 0.930 . S
H1926 C1942 0.931 . S
C1927 H1915 0.929 . S
C1927 C1921 1.390 . S
C1927 C1924 1.386 . S
C1928 C1923 1.490 . S
C1928 C1930 1.395 . S
C1928 C1931 1.403 . S
H1929 C1935 0.930 . S
C1930 H1916 0.930 . S
C1930 C1928 1.395 . S
C1930 C1933 1.403 . S
C1931 C1928 1.403 . S
C1931 C1932 1.524 . S
C1931 C1935 1.400 . S
C1932 H1917 0.960 1_554 S
C1932 H1918 0.960 . S
C1932 H1919 0.960 . S
C1932 C1931 1.524 . S
C1933 C1930 1.403 . S
C1933 C1934 1.392 . S
C1933 C1937 1.495 . S
C1934 C1933 1.392 . S
C1934 C1935 1.385 . S
C1934 C1936 1.478 . S
C1935 H1929 0.930 . S
C1935 C1931 1.400 . S
C1935 C1934 1.385 . S
C1936 C1934 1.478 . S
C1936 C1938 1.381 . S
C1936 C1942 1.383 1_554 S
C1937 C1933 1.495 . S
C1937 H1943 0.959 . S
C1937 H1944 0.961 . S
C1937 H1945 0.960 . S
C1938 C1936 1.381 . S
C1938 C1939 1.394 . S
C1938 H1946 0.930 . S
C1939 C1938 1.394 . S
C1939 C1940 1.359 1_554 S
C1939 H1947 0.929 . S
C1940 C1939 1.359 1_556 S
C1940 C1941 1.389 . S
C1941 H1925 0.930 . S
C1941 C1940 1.389 . S
C1941 C1942 1.379 . S
C1942 H1926 0.931 . S
C1942 C1936 1.383 1_556 S
C1942 C1941 1.379 . S
H1943 C1937 0.959 . S
H1944 C1937 0.961 . S
H1945 C1937 0.960 . S
H1946 C1938 0.930 . S
H1947 C1939 0.929 . S
H1948 C1956 0.929 . S
H1949 C1958 0.930 . S
H1950 C1960 0.934 . S
H1951 C1963 0.929 . S
H1952 C1966 0.930 . S
H1953 C1968 0.960 . S
H1954 C1968 0.960 . S
H1955 C1968 0.960 . S
C1956 H1948 0.929 . S
C1956 C1957 1.377 . S
C1956 C1958 1.384 1_545 S
C1957 C1956 1.377 . S
C1957 C1963 1.390 . S
C1958 H1949 0.930 . S
C1958 C1956 1.384 1_565 S
C1958 C1959 1.372 . S
C1959 C1958 1.372 . S
C1959 C1960 1.400 1_565 S
C1959 C1964 1.490 . S
C1960 H1950 0.934 . S
C1960 C1959 1.400 1_545 S
C1960 C1963 1.386 . S
H1961 C1977 0.930 . S
H1962 C1978 0.931 . S
C1963 H1951 0.929 . S
C1963 C1957 1.390 . S
C1963 C1960 1.386 . S
C1964 C1959 1.490 . S
C1964 C1966 1.395 . S
C1964 C1967 1.403 . S
H1965 C1971 0.930 . S
C1966 H1952 0.930 . S
C1966 C1964 1.395 . S
C1966 C1969 1.403 . S
C1967 C1964 1.403 . S
C1967 C1968 1.524 . S
C1967 C1971 1.400 . S
C1968 H1953 0.960 . S
C1968 H1954 0.960 . S
C1968 H1955 0.960 . S
C1968 C1967 1.524 . S
C1969 C1966 1.403 . S
C1969 C1970 1.392 . S
C1969 C1973 1.495 . S
C1970 C1969 1.392 . S
C1970 C1971 1.385 . S
C1970 C1972 1.478 . S
C1971 H1965 0.930 . S
C1971 C1967 1.400 . S
C1971 C1970 1.385 . S
C1972 C1970 1.478 . S
C1972 C1974 1.381 . S
C1972 C1978 1.383 . S
C1973 C1969 1.495 . S
C1973 H1979 0.959 . S
C1973 H1980 0.961 . S
C1973 H1981 0.960 . S
C1974 C1972 1.381 . S
C1974 C1975 1.394 . S
C1974 H1982 0.930 . S
C1975 C1974 1.394 . S
C1975 C1976 1.383 . S
C1975 H1983 0.929 . S
C1976 C1975 1.383 . S
C1976 C1977 1.377 . S
C1977 H1961 0.930 . S
C1977 C1976 1.377 . S
C1977 C1978 1.379 . S
C1978 H1962 0.931 . S
C1978 C1972 1.383 . S
C1978 C1977 1.379 . S
H1979 C1973 0.959 . S
H1980 C1973 0.961 . S
H1981 C1973 0.960 . S
H1982 C1974 0.930 . S
H1983 C1975 0.929 . S
C553 C519 1.265 . S
C572 C20 1.311 . S
C589 C54 1.321 . S
C608 C145 1.270 . S
C625 C88 1.320 . S
C644 C451 1.222 1_455 S
C661 C122 1.322 . S
C680 C213 1.248 . S
C697 C156 1.319 . S
C716 C383 1.240 . S
C733 C9 1.252 . S
C752 C190 1.311 . S
C769 C315 1.265 1_655 S
C788 C224 1.325 . S
C805 C258 1.322 . S
C824 C77 1.288 . S
C841 C292 1.322 . S
C860 C247 1.245 1_655 S
C877 C326 1.320 . S
C896 C417 1.224 . S
C913 C179 1.260 . S
C932 C360 1.309 . S
C949 C394 1.319 . S
C968 C485 1.241 . S
C985 C428 1.321 . S
C1004 C111 1.271 1_455 S
C1021 C462 1.322 . S
C1040 C281 1.291 . S
C1057 C43 1.252 . S
C1076 C496 1.311 . S
C1093 C530 1.319 . S
C1112 C349 1.235 . S
C1129 C2 2.377 . S
C1148 C410 2.367 . S
C1165 C172 2.376 . S
C1184 C36 2.371 . S
C1201 C70 2.378 . S
C1220 C478 2.379 . S
C1237 C104 2.379 . S
C1256 C240 2.376 . S
C1273 C274 2.378 . S
C1292 C138 2.368 . S
C1309 C342 2.378 . S
C1328 C206 2.369 . S
C1345 C444 2.376 . S
C1364 C308 2.370 . S
C1381 C376 2.379 . S
C1400 C512 2.376 . S
C1417 C311 1.111 . S
C1436 C33 1.154 . S
C1453 C67 1.156 . S
C1472 C345 1.149 . S
C1489 C101 1.156 . S
C1508 C379 1.146 . S
C1525 C277 1.113 . S
C1544 C135 1.152 . S
C1561 C169 1.156 . S
C1580 C447 1.102 . S
C1597 C203 1.156 . S
C1616 C481 1.109 . S
C1633 C237 1.156 . S
C1652 C515 1.150 . S
C1669 C271 1.157 . S
C1688 C413 1.147 . S
C1705 C39 1.111 . S
C1724 C305 1.154 . S
C1741 C339 1.157 . S
C1760 C73 1.111 . S
C1777 C373 1.155 . S
C1796 C107 1.131 . S
C1813 C407 1.156 . S
C1832 C5 1.132 . S
C1849 C441 1.156 . S
C1868 C175 1.083 . S
C1885 C209 1.111 . S
C1904 C475 1.152 . S
C1921 C243 1.111 . S
C1940 C509 1.164 . S
C1957 C543 1.156 . S
C1976 C141 1.151 . S
