# Generated by pormake.
# Topology uno, (4)-cn, num edge types: 1
# Building blocks:
#     Node 0, Type 0, BuildingBlock: ESEHIV_clean_sbu_0, # of connection points: 4
#     Node 1, Type 0, BuildingBlock: ESEHIV_clean_sbu_0, # of connection points: 4
#     Node 2, Type 0, BuildingBlock: ESEHIV_clean_sbu_0, # of connection points: 4
#     Node 3, Type 0, BuildingBlock: ESEHIV_clean_sbu_0, # of connection points: 4
#     Node 4, Type 0, BuildingBlock: ESEHIV_clean_sbu_0, # of connection points: 4
#     Node 5, Type 0, BuildingBlock: ESEHIV_clean_sbu_0, # of connection points: 4
#     Node 6, Type 0, BuildingBlock: ESEHIV_clean_sbu_0, # of connection points: 4
#     Node 7, Type 0, BuildingBlock: ESEHIV_clean_sbu_0, # of connection points: 4
#     Node 8, Type 0, BuildingBlock: ESEHIV_clean_sbu_0, # of connection points: 4
#     Node 9, Type 0, BuildingBlock: ESEHIV_clean_sbu_0, # of connection points: 4
#     Node 10, Type 0, BuildingBlock: ESEHIV_clean_sbu_0, # of connection points: 4
#     Node 11, Type 0, BuildingBlock: ESEHIV_clean_sbu_0, # of connection points: 4
#     Node 12, Type 0, BuildingBlock: ESEHIV_clean_sbu_0, # of connection points: 4
#     Node 13, Type 0, BuildingBlock: ESEHIV_clean_sbu_0, # of connection points: 4
#     Node 14, Type 0, BuildingBlock: ESEHIV_clean_sbu_0, # of connection points: 4
#     Node 15, Type 0, BuildingBlock: ESEHIV_clean_sbu_0, # of connection points: 4
#     Node 16, Type 0, BuildingBlock: ESEHIV_clean_sbu_0, # of connection points: 4
#     Node 17, Type 0, BuildingBlock: ESEHIV_clean_sbu_0, # of connection points: 4
#     Node 18, Type 0, BuildingBlock: ESEHIV_clean_sbu_0, # of connection points: 4
#     Node 19, Type 0, BuildingBlock: ESEHIV_clean_sbu_0, # of connection points: 4
#     Node 20, Type 0, BuildingBlock: ESEHIV_clean_sbu_0, # of connection points: 4
#     Node 21, Type 0, BuildingBlock: ESEHIV_clean_sbu_0, # of connection points: 4
#     Node 22, Type 0, BuildingBlock: ESEHIV_clean_sbu_0, # of connection points: 4
#     Node 23, Type 0, BuildingBlock: ESEHIV_clean_sbu_0, # of connection points: 4
#     Edge 24, Type (0, 0), BuildingBlock: AJUNOK_clean_linker_0, # of connection points: 2
#     Edge 25, Type (0, 0), BuildingBlock: AJUNOK_clean_linker_0, # of connection points: 2
#     Edge 26, Type (0, 0), BuildingBlock: AJUNOK_clean_linker_0, # of connection points: 2
#     Edge 27, Type (0, 0), BuildingBlock: AJUNOK_clean_linker_0, # of connection points: 2
#     Edge 28, Type (0, 0), BuildingBlock: AJUNOK_clean_linker_0, # of connection points: 2
#     Edge 29, Type (0, 0), BuildingBlock: AJUNOK_clean_linker_0, # of connection points: 2
#     Edge 30, Type (0, 0), BuildingBlock: AJUNOK_clean_linker_0, # of connection points: 2
#     Edge 31, Type (0, 0), BuildingBlock: AJUNOK_clean_linker_0, # of connection points: 2
#     Edge 32, Type (0, 0), BuildingBlock: AJUNOK_clean_linker_0, # of connection points: 2
#     Edge 33, Type (0, 0), BuildingBlock: AJUNOK_clean_linker_0, # of connection points: 2
#     Edge 34, Type (0, 0), BuildingBlock: AJUNOK_clean_linker_0, # of connection points: 2
#     Edge 35, Type (0, 0), BuildingBlock: AJUNOK_clean_linker_0, # of connection points: 2
#     Edge 36, Type (0, 0), BuildingBlock: AJUNOK_clean_linker_0, # of connection points: 2
#     Edge 37, Type (0, 0), BuildingBlock: AJUNOK_clean_linker_0, # of connection points: 2
#     Edge 38, Type (0, 0), BuildingBlock: AJUNOK_clean_linker_0, # of connection points: 2
#     Edge 39, Type (0, 0), BuildingBlock: AJUNOK_clean_linker_0, # of connection points: 2
#     Edge 40, Type (0, 0), BuildingBlock: AJUNOK_clean_linker_0, # of connection points: 2
#     Edge 41, Type (0, 0), BuildingBlock: AJUNOK_clean_linker_0, # of connection points: 2
#     Edge 42, Type (0, 0), BuildingBlock: AJUNOK_clean_linker_0, # of connection points: 2
#     Edge 43, Type (0, 0), BuildingBlock: AJUNOK_clean_linker_0, # of connection points: 2
#     Edge 44, Type (0, 0), BuildingBlock: AJUNOK_clean_linker_0, # of connection points: 2
#     Edge 45, Type (0, 0), BuildingBlock: AJUNOK_clean_linker_0, # of connection points: 2
#     Edge 46, Type (0, 0), BuildingBlock: AJUNOK_clean_linker_0, # of connection points: 2
#     Edge 47, Type (0, 0), BuildingBlock: AJUNOK_clean_linker_0, # of connection points: 2
#     Edge 48, Type (0, 0), BuildingBlock: AJUNOK_clean_linker_0, # of connection points: 2
#     Edge 49, Type (0, 0), BuildingBlock: AJUNOK_clean_linker_0, # of connection points: 2
#     Edge 50, Type (0, 0), BuildingBlock: AJUNOK_clean_linker_0, # of connection points: 2
#     Edge 51, Type (0, 0), BuildingBlock: AJUNOK_clean_linker_0, # of connection points: 2
#     Edge 52, Type (0, 0), BuildingBlock: AJUNOK_clean_linker_0, # of connection points: 2
#     Edge 53, Type (0, 0), BuildingBlock: AJUNOK_clean_linker_0, # of connection points: 2
#     Edge 54, Type (0, 0), BuildingBlock: AJUNOK_clean_linker_0, # of connection points: 2
#     Edge 55, Type (0, 0), BuildingBlock: AJUNOK_clean_linker_0, # of connection points: 2
#     Edge 56, Type (0, 0), BuildingBlock: AJUNOK_clean_linker_0, # of connection points: 2
#     Edge 57, Type (0, 0), BuildingBlock: AJUNOK_clean_linker_0, # of connection points: 2
#     Edge 58, Type (0, 0), BuildingBlock: AJUNOK_clean_linker_0, # of connection points: 2
#     Edge 59, Type (0, 0), BuildingBlock: AJUNOK_clean_linker_0, # of connection points: 2
#     Edge 60, Type (0, 0), BuildingBlock: AJUNOK_clean_linker_0, # of connection points: 2
#     Edge 61, Type (0, 0), BuildingBlock: AJUNOK_clean_linker_0, # of connection points: 2
#     Edge 62, Type (0, 0), BuildingBlock: AJUNOK_clean_linker_0, # of connection points: 2
#     Edge 63, Type (0, 0), BuildingBlock: AJUNOK_clean_linker_0, # of connection points: 2
#     Edge 64, Type (0, 0), BuildingBlock: AJUNOK_clean_linker_0, # of connection points: 2
#     Edge 65, Type (0, 0), BuildingBlock: AJUNOK_clean_linker_0, # of connection points: 2
#     Edge 66, Type (0, 0), BuildingBlock: AJUNOK_clean_linker_0, # of connection points: 2
#     Edge 67, Type (0, 0), BuildingBlock: AJUNOK_clean_linker_0, # of connection points: 2
#     Edge 68, Type (0, 0), BuildingBlock: AJUNOK_clean_linker_0, # of connection points: 2
#     Edge 69, Type (0, 0), BuildingBlock: AJUNOK_clean_linker_0, # of connection points: 2
#     Edge 70, Type (0, 0), BuildingBlock: AJUNOK_clean_linker_0, # of connection points: 2
#     Edge 71, Type (0, 0), BuildingBlock: AJUNOK_clean_linker_0, # of connection points: 2
# Relax obj value: 0.396
# Max RMSD: 0.221
# Mean RMSD: 0.195
data_MOF--net-uno--node1-ESEHIV_clean_sbu_0--edge1-AJUNOK_clean_linker_0
_symmetry_space_group_name_H-M    P1
_symmetry_Int_Tables_number       1
_symmetry_cell_setting            triclinic
loop_
_symmetry_equiv_pos_as_xyz
'x, y, z'
_cell_length_a     41.695183
_cell_length_b     44.00434
_cell_length_c     43.466374
_cell_angle_alpha  90.320843
_cell_angle_beta   89.932326
_cell_angle_gamma 93.940585
loop_
_atom_site_label
_atom_site_type_symbol
_atom_site_fract_x
_atom_site_fract_y
_atom_site_fract_z
_atom_type_partial_charge
Cu0 Cu 0.05411 0.24495 0.25841 0.0
N1 N 0.07917 0.24018 0.29317 0.0
N2 N 0.11466 0.21644 0.3211 0.0
C3 C 0.08892 0.21329 0.3024 0.0
C4 C 0.12065 0.24683 0.32468 0.0
C5 C 0.09861 0.26143 0.30744 0.0
O6 O 0.0357 0.20461 0.24765 0.0
C7 C 0.08766 0.25503 0.20021 0.0
O8 O 0.06924 0.23255 0.1884 0.0
H9 H 0.08016 0.19186 0.29237 0.0
H10 H 0.09903 0.28561 0.30294 0.0
N11 N 0.02129 0.26933 0.26892 0.0
N12 N 0.99559 0.30955 0.28398 0.0
C13 C 0.02379 0.29945 0.27449 0.0
C14 C 0.99064 0.25995 0.27533 0.0
C15 C 0.97463 0.2848 0.28459 0.0
C16 C 0.05288 0.18383 0.23785 0.0
O17 O 0.08323 0.19078 0.23118 0.0
H18 H 0.04586 0.31363 0.27167 0.0
H19 H 0.98088 0.23656 0.274 0.0
O20 O 0.0831 0.26391 0.2277 0.0
H21 H 0.14146 0.25769 0.33616 0.0
H22 H 0.94979 0.28452 0.2919 0.0
Cu23 Cu 0.06234 0.8078 0.46963 0.0
N24 N 0.07156 0.83161 0.43482 0.0
N25 N 0.06725 0.86526 0.39706 0.0
C26 C 0.0516 0.84906 0.41945 0.0
C27 C 0.098 0.85773 0.39833 0.0
C28 C 0.10054 0.83676 0.42142 0.0
O29 O 0.02579 0.77945 0.46003 0.0
C30 C 0.06665 0.8529 0.52037 0.0
O31 O 0.05243 0.86555 0.54367 0.0
H32 H 0.02659 0.85087 0.4254 0.0
H33 H 0.12232 0.82702 0.42885 0.0
N34 N 0.09784 0.78609 0.47989 0.0
N35 N 0.14082 0.77107 0.50498 0.0
C36 C 0.11395 0.78652 0.50675 0.0
C37 C 0.11461 0.76916 0.46064 0.0
C38 C 0.14121 0.76003 0.47595 0.0
C39 C 1.00634 0.76912 0.48067 0.0
O40 O 0.01169 0.77702 0.5095 0.0
H41 H 0.10681 0.79899 0.52674 0.0
H42 H 0.10862 0.76488 0.43672 0.0
O43 O 0.05019 0.83355 0.5038 0.0
H44 H 0.11737 0.8673 0.384 0.0
H45 H 0.15993 0.7471 0.46616 0.0
Cu46 Cu 0.44195 0.77056 0.81107 0.0
N47 N 0.41801 0.78169 0.84468 0.0
N48 N 0.3833 0.81457 0.86147 0.0
C49 C 0.41188 0.811 0.84792 0.0
C50 C 0.37158 0.786 0.86835 0.0
C51 C 0.39304 0.76572 0.85783 0.0
O52 O 0.46944 0.80678 0.8009 0.0
C53 C 0.41491 0.74928 0.75293 0.0
O54 O 0.4441 0.74287 0.74494 0.0
H55 H 0.42497 0.8288 0.83511 0.0
H56 H 0.38833 0.74132 0.85562 0.0
N57 N 0.46586 0.73771 0.81996 0.0
N58 N 0.48298 0.69085 0.81847 0.0
C59 C 0.45947 0.70884 0.81045 0.0
C60 C 0.49407 0.73804 0.83497 0.0
C61 C 0.50467 0.70903 0.8342 0.0
C62 C 0.46117 0.82582 0.78095 0.0
O63 O 0.43641 0.81837 0.76315 0.0
H64 H 0.43808 0.70133 0.7977 0.0
H65 H 0.50642 0.75813 0.84499 0.0
O66 O 0.41024 0.76058 0.77937 0.0
H67 H 0.34744 0.77995 0.87646 0.0
H68 H 0.52711 0.70209 0.84344 0.0
Cu69 Cu 0.4553 0.21363 0.95424 0.0
N70 N 0.45943 0.20045 0.91361 0.0
N71 N 0.47173 0.17066 0.87402 0.0
C72 C 0.46902 0.17307 0.90489 0.0
C73 C 0.46322 0.19756 0.8629 0.0
C74 C 0.4558 0.21595 0.88741 0.0
O75 O 0.49534 0.23633 0.96504 0.0
C76 C 0.43595 0.17726 1.0059 0.0
O77 O 0.4396 0.20264 0.02196 0.0
H78 H 0.47439 0.15541 0.92094 0.0
H79 H 0.44847 0.23902 0.88624 0.0
N80 N 0.42054 0.23819 0.95916 0.0
N81 N 0.37568 0.25504 0.97991 0.0
C82 C 0.39352 0.23091 0.9754 0.0
C83 C 0.41953 0.26792 0.95257 0.0
C84 C 0.39197 0.27838 0.96534 0.0
C85 C 0.51811 0.22443 0.97895 0.0
O86 O 0.51349 0.19633 0.98889 0.0
H87 H 0.38816 0.20885 0.98555 0.0
H88 H 0.43842 0.28143 0.94087 0.0
O89 O 0.44566 0.17719 0.97817 0.0
H90 H 0.4619 0.20338 0.8388 0.0
H91 H 0.38521 0.30169 0.96505 0.0
Cu92 Cu 0.06843 1.00494 0.27693 0.0
N93 N 0.10582 0.02253 0.29435 0.0
N94 N 0.13901 0.03533 0.33333 0.0
C95 C 0.10827 0.02916 0.32446 0.0
C96 C 0.15652 0.03305 0.30732 0.0
C97 C 0.13594 0.02517 0.28326 0.0
O98 O 0.04445 0.03751 0.26161 0.0
C99 C 0.03399 0.95467 0.30868 0.0
O100 O 0.02228 0.94486 0.28212 0.0
H101 H 0.0879 0.02726 0.33994 0.0
H102 H 0.14268 0.01941 0.26002 0.0
N103 N 0.07838 0.98068 0.24357 0.0
N104 N 0.08281 0.93919 0.21477 0.0
C105 C 0.08277 0.95069 0.24356 0.0
C106 C 0.07648 0.98853 0.21378 0.0
C107 C 0.079 0.96286 0.1959 0.0
C108 C 0.03742 0.05987 0.27823 0.0
O109 O 0.04001 0.05793 0.30825 0.0
H110 H 0.08303 0.93704 0.26419 0.0
H111 H 0.0713 0.01088 0.20576 0.0
O112 O 0.04923 0.98069 0.31029 0.0
H113 H 0.18244 0.03424 0.30609 0.0
H114 H 0.07608 0.96126 0.17118 0.0
Cu115 Cu 0.31327 0.79774 0.60276 0.0
N116 N 0.30552 0.83597 0.61925 0.0
N117 N 0.2871 0.87044 0.65174 0.0
C118 C 0.29168 0.84075 0.64669 0.0
C119 C 0.2983 0.88495 0.62622 0.0
C120 C 0.30981 0.86364 0.60627 0.0
O121 O 0.27469 0.78037 0.58224 0.0
C122 C 0.31801 0.76281 0.6596 0.0
O123 O 0.28729 0.76531 0.6649 0.0
H124 H 0.28353 0.82255 0.66192 0.0
H125 H 0.31979 0.86787 0.58359 0.0
N126 N 0.34596 0.80021 0.57336 0.0
N127 N 0.3896 0.78407 0.54988 0.0
C128 C 0.37437 0.78784 0.57697 0.0
C129 C 0.3433 0.80522 0.54303 0.0
C130 C 0.37029 0.79553 0.52852 0.0
C131 C 0.24608 0.78265 0.59184 0.0
O132 O 0.24144 0.79453 0.61912 0.0
H133 H 0.38272 0.78031 0.59898 0.0
H134 H 0.32208 0.81289 0.53199 0.0
O135 O 0.33054 0.77321 0.63484 0.0
H136 H 0.29771 0.90909 0.62211 0.0
H137 H 0.37413 0.79475 0.5039 0.0
Cu138 Cu 0.4547 0.01127 0.77749 0.0
N139 N 0.41432 1.00189 0.79406 0.0
N140 N 0.3797 0.98947 0.83186 0.0
C141 C 0.41057 0.99086 0.82259 0.0
C142 C 0.36319 1.00004 0.80788 0.0
C143 C 0.38473 1.00774 0.78449 0.0
O144 O 0.47389 0.97265 0.77164 0.0
C145 C 0.49224 0.0638 0.80031 0.0
O146 O 0.50426 0.0664 0.77244 0.0
H147 H 0.43049 0.98499 0.83674 0.0
H148 H 0.37942 0.01817 0.76277 0.0
N149 N 0.45198 0.03064 0.73979 0.0
N150 N 0.45545 0.07102 0.70861 0.0
C151 C 0.4445 0.05959 0.7358 0.0
C152 C 0.46712 0.02289 0.71393 0.0
C153 C 0.46941 0.0477 0.69473 0.0
C154 C 0.48385 0.95654 0.79339 0.0
O155 O 0.48666 0.9685 0.82108 0.0
H156 H 0.43446 0.07287 0.75401 0.0
H157 H 0.47899 1.00199 0.71083 0.0
O158 O 0.47505 0.03976 0.80727 0.0
H159 H 0.33778 1.00352 0.80771 0.0
H160 H 0.48375 0.04927 0.67399 0.0
Cu161 Cu 0.22643 0.24026 0.1138 0.0
N162 N 0.23132 0.20743 0.14057 0.0
N163 N 0.24797 0.18069 0.18057 0.0
C164 C 0.247 0.20857 0.16776 0.0
C165 C 0.23251 0.16129 0.16054 0.0
C166 C 0.22218 0.17782 0.13599 0.0
O167 O 0.25996 0.23874 0.08249 0.0
C168 C 0.21477 0.29403 0.15407 0.0
O169 O 0.22785 0.31969 0.16544 0.0
H170 H 0.25848 0.22931 0.17732 0.0
H171 H 0.20952 0.16875 0.11592 0.0
N172 N 0.18705 0.23775 0.09285 0.0
N173 N 0.14299 0.25159 0.06895 0.0
C174 C 0.16694 0.26014 0.08863 0.0
C175 C 0.17554 0.21454 0.07479 0.0
C176 C 0.14836 0.22304 0.05998 0.0
C177 C 0.27353 0.26244 0.07011 0.0
O178 O 0.26534 0.28938 0.07911 0.0
H179 H 0.17057 0.28271 0.09854 0.0
H180 H 0.18692 0.19341 0.07158 0.0
O181 O 0.23242 0.27847 0.13679 0.0
H182 H 0.22915 0.13684 0.16333 0.0
H183 H 0.13397 0.2096 0.04347 0.0
Cu184 Cu 0.28392 0.08674 0.29157 0.0
N185 N 0.2428 0.09966 0.28693 0.0
N186 N 0.19922 0.12412 0.29821 0.0
C187 C 0.23127 0.12353 0.30168 0.0
C188 C 0.19026 0.09991 0.2803 0.0
C189 C 0.21714 0.08453 0.27385 0.0
O190 O 0.27915 0.05527 0.32223 0.0
C191 C 0.31554 0.14798 0.2908 0.0
O192 O 0.33511 0.16912 0.30347 0.0
H193 H 0.24586 0.13936 0.31583 0.0
H194 H 0.21756 0.06301 0.26182 0.0
N195 N 0.29832 0.06805 0.25642 0.0
N196 N 0.30076 0.05033 0.20867 0.0
C197 C 0.28212 0.06232 0.23013 0.0
C198 C 0.32815 0.05911 0.25143 0.0
C199 C 0.32977 0.04819 0.22178 0.0
C200 C 0.30053 0.03851 0.33196 0.0
O201 O 0.33083 0.04466 0.32464 0.0
H202 H 0.25798 0.06872 0.22592 0.0
H203 H 0.34766 0.06149 0.26781 0.0
O204 O 0.31313 0.12149 0.30298 0.0
H205 H 0.16603 0.0936 0.27261 0.0
H206 H 0.35074 0.04014 0.21046 0.0
Cu207 Cu 0.24107 0.94763 0.47852 0.0
N208 N 0.21861 0.9828 0.47655 0.0
N209 N 0.19123 0.01728 0.45211 0.0
C210 C 0.21691 1.00033 0.45143 0.0
C211 C 0.17661 0.01077 0.47924 0.0
C212 C 0.19364 0.98958 0.49433 0.0
O213 O 0.26804 0.94783 0.44249 0.0
C214 C 0.19676 0.90502 0.50585 0.0
O215 O 0.20956 0.91689 0.53114 0.0
H216 H 0.23149 0.99773 0.43118 0.0
H217 H 0.18622 0.97742 0.51499 0.0
N218 N 0.26692 0.949 0.51319 0.0
N219 N 0.28338 0.961 0.56074 0.0
C220 C 0.26482 0.96838 0.53691 0.0
C221 C 0.28793 0.92886 0.52187 0.0
C222 C 0.2981 0.93616 0.55133 0.0
C223 C 0.25517 0.94411 0.41619 0.0
O224 O 0.2253 0.93254 0.41483 0.0
H225 H 0.24861 0.98654 0.53728 0.0
H226 H 0.29385 0.90923 0.50847 0.0
O227 O 0.20836 0.91379 0.48 0.0
H228 H 0.15336 0.0181 0.48602 0.0
H229 H 0.31321 0.92286 0.56539 0.0
Cu230 Cu 0.25742 0.96149 0.77072 0.0
N231 N 0.29266 0.93835 0.77545 0.0
N232 N 0.32569 0.90817 0.79887 0.0
C233 C 0.29514 0.91598 0.79609 0.0
C234 C 0.34292 0.92568 0.77853 0.0
C235 C 0.3225 0.94446 0.7643 0.0
O236 O 0.25874 0.99006 0.80469 0.0
C237 C 0.21062 0.91379 0.7513 0.0
O238 O 0.18276 0.89826 0.75405 0.0
H239 H 0.27535 0.90707 0.81027 0.0
H240 H 0.32932 0.96254 0.74836 0.0
N241 N 0.26088 0.98415 0.73505 0.0
N242 N 0.26978 0.9965 0.68612 0.0
C243 C 0.27591 0.97714 0.7089 0.0
C244 C 0.2452 1.00911 0.72887 0.0
C245 C 0.25046 0.01668 0.69851 0.0
C246 C 0.23607 0.99487 0.82328 0.0
O247 O 0.2082 0.97931 0.82031 0.0
H248 H 0.28871 0.95675 0.7059 0.0
H249 H 0.22957 0.01989 0.74485 0.0
O250 O 0.21781 0.93552 0.77012 0.0
H251 H 0.36858 0.92554 0.7748 0.0
H252 H 0.23945 0.03445 0.68602 0.0
Cu253 Cu 0.28929 0.03707 0.99625 0.0
N254 N 0.30855 1.00124 0.98798 0.0
N255 N 0.33386 0.97295 0.95424 0.0
C256 C 0.30832 0.98933 0.95957 0.0
C257 C 0.35014 0.97345 0.98111 0.0
C258 C 0.33444 0.991 1.00194 0.0
O259 O 0.26184 0.04383 0.96134 0.0
C260 C 0.32663 0.09 0.01929 0.0
O261 O 0.30236 0.09432 0.03771 0.0
H262 H 0.29296 0.99688 0.94156 0.0
H263 H 0.34379 0.99922 0.02387 0.0
N264 N 0.26711 0.0335 0.0328 0.0
N265 N 0.26256 0.03442 0.08363 0.0
C266 C 0.28185 0.02946 0.05963 0.0
C267 C 0.23702 0.04043 0.03981 0.0
C268 C 0.23407 0.04086 0.07147 0.0
C269 C 0.27495 0.055 0.93709 0.0
O270 O 0.30451 0.06723 0.93906 0.0
H271 H 0.30705 0.02524 0.06145 0.0
H272 H 0.21941 0.0469 0.02326 0.0
O273 O 0.32444 0.06813 0.99997 0.0
H274 H 0.3738 0.96522 0.98421 0.0
H275 H 0.2136 0.04772 0.08449 0.0
Cu276 Cu 0.6987 0.2811 0.92365 0.0
N277 N 0.68278 0.25 0.89754 0.0
N278 N 0.64869 0.23015 0.86194 0.0
C279 C 0.65308 0.24998 0.88552 0.0
C280 C 0.67693 0.21707 0.859 0.0
C281 C 0.69796 0.22932 0.88114 0.0
O282 O 0.66146 0.28888 0.94881 0.0
C283 C 0.72098 0.34167 0.90147 0.0
O284 O 0.72048 0.35181 0.92993 0.0
H285 H 0.63621 0.2666 0.89183 0.0
H286 H 0.72315 0.22531 0.8834 0.0
N287 N 0.73404 0.27034 0.94698 0.0
N288 N 0.78147 0.27488 0.97123 0.0
C289 C 0.75943 0.28925 0.95509 0.0
C290 C 0.74049 0.24288 0.95808 0.0
C291 C 0.7697 0.24565 0.97319 0.0
C292 C 0.65161 0.26786 0.96727 0.0
O293 O 0.67082 0.24624 0.97327 0.0
H294 H 0.7621 0.31301 0.94875 0.0
H295 H 0.7254 0.22213 0.95476 0.0
O296 O 0.71207 0.31398 0.89577 0.0
H297 H 0.68266 0.20139 0.84084 0.0
H298 H 0.78202 0.22737 0.98348 0.0
Cu299 Cu 0.98898 0.50535 0.2369 0.0
N300 N 0.94803 0.51295 0.22382 0.0
N301 N 0.91207 0.53196 0.19258 0.0
C302 C 0.94014 0.5374 0.20777 0.0
C303 C 0.9019 0.50305 0.19993 0.0
C304 C 0.92401 0.49151 0.21927 0.0
O305 O 0.01165 0.54395 0.24681 0.0
C306 C 0.99991 0.48447 0.17653 0.0
O307 O 0.9877 0.50996 0.16849 0.0
H308 H 0.95617 0.5576 0.20498 0.0
H309 H 0.92431 0.46811 0.22663 0.0
N310 N 0.98566 0.48072 0.27121 0.0
N311 N 0.98205 0.43643 0.29587 0.0
C312 C 0.97697 0.4509 0.26933 0.0
C313 C 0.99672 0.48559 0.30001 0.0
C314 C 0.99471 0.45806 0.31532 0.0
C315 C 0.02976 0.55975 0.22863 0.0
O316 O 0.03723 0.54819 0.20185 0.0
H317 H 0.97005 0.43955 0.24794 0.0
H318 H 1.00757 0.50706 0.30848 0.0
O319 O 1.00666 0.48049 0.2047 0.0
H320 H 0.88184 0.48987 0.18961 0.0
H321 H 1.00367 0.4539 0.33817 0.0
Cu322 Cu 0.82414 0.74382 0.42637 0.0
N323 N 0.84329 0.77425 0.40116 0.0
N324 N 0.87969 0.79452 0.36795 0.0
C325 C 0.87311 0.77323 0.38957 0.0
C326 C 0.85289 0.80997 0.36592 0.0
C327 C 0.83039 0.79734 0.38645 0.0
O328 O 0.85873 0.73236 0.4529 0.0
C329 C 0.79725 0.6849 0.4034 0.0
O330 O 0.79654 0.67485 0.43181 0.0
H331 H 0.88894 0.75564 0.39495 0.0
H332 H 0.80585 0.80342 0.38912 0.0
N333 N 0.79064 0.75838 0.44973 0.0
N334 N 0.74513 0.75978 0.4768 0.0
C335 C 0.76586 0.74187 0.46281 0.0
C336 C 0.78543 0.78767 0.45583 0.0
C337 C 0.75718 0.78862 0.47225 0.0
C338 C 0.88105 0.7168 0.44257 0.0
O339 O 0.87619 0.70162 0.4167 0.0
H340 H 0.76242 0.71733 0.46113 0.0
H341 H 0.80079 0.80703 0.44836 0.0
O342 O 0.808 0.71211 0.39802 0.0
H343 H 0.84927 0.82819 0.34994 0.0
H344 H 0.7461 0.80887 0.47993 0.0
Cu345 Cu 1.00407 0.73989 0.23281 0.0
N346 N 0.97521 0.71998 0.20561 0.0
N347 N 0.93815 0.68185 0.19569 0.0
C348 C 0.96822 0.68969 0.20587 0.0
C349 C 0.92624 0.70856 0.18777 0.0
C350 C 0.94911 0.73192 0.19387 0.0
O351 O 0.02728 0.70731 0.25493 0.0
C352 C 0.98465 0.77049 0.28788 0.0
O353 O 0.0131 0.76561 0.29904 0.0
H354 H 0.98347 0.67413 0.21677 0.0
H355 H 0.94526 0.75599 0.19388 0.0
N356 N 0.03304 0.76698 0.21288 0.0
N357 N 0.05814 0.81133 0.19988 0.0
C358 C 0.03127 0.79732 0.21188 0.0
C359 C 0.06197 0.76158 0.20104 0.0
C360 C 0.07769 0.78906 0.1932 0.0
C361 C 0.04446 0.69086 0.23803 0.0
O362 O 0.02771 0.70612 0.25736 0.0
H363 H 0.01162 0.80903 0.22169 0.0
H364 H 0.07161 0.73942 0.19966 0.0
O365 O 0.97747 0.7616 0.26075 0.0
H366 H 0.9015 0.71169 0.18192 0.0
H367 H 0.10196 0.79256 0.18441 0.0
Cu368 Cu 0.53631 0.27518 0.71247 0.0
N369 N 0.56717 0.29667 0.6887 0.0
N370 N 0.60128 0.33806 0.6855 0.0
C371 C 0.57051 0.32728 0.6896 0.0
C372 C 0.61763 0.31316 0.67986 0.0
C373 C 0.59657 0.28766 0.68209 0.0
O374 O 0.50707 0.3055 0.72555 0.0
C375 C 0.55042 0.2512 0.77281 0.0
O376 O 0.51982 0.25249 0.77955 0.0
H377 H 0.55146 0.3411 0.69686 0.0
H378 H 0.60317 0.26435 0.68335 0.0
N379 N 0.5157 0.24272 0.69088 0.0
N380 N 0.49163 0.19647 0.68201 0.0
C381 C 0.5072 0.21519 0.70271 0.0
C382 C 0.50566 0.24147 0.6615 0.0
C383 C 0.49044 0.21315 0.65605 0.0
C384 C 0.48811 0.31598 0.70588 0.0
O385 O 0.48338 0.30116 0.67983 0.0
H386 H 0.51268 0.20903 0.72608 0.0
H387 H 0.50878 0.25998 0.64527 0.0
O388 O 0.56053 0.25962 0.74638 0.0
H389 H 0.64354 0.31308 0.67835 0.0
H390 H 0.47872 0.20604 0.63479 0.0
Cu391 Cu 0.51798 0.50374 0.72243 0.0
N392 N 0.56184 0.49952 0.71947 0.0
N393 N 0.60441 0.4844 0.69363 0.0
C394 C 0.57501 0.47614 0.70527 0.0
C395 C 0.61011 0.51394 0.70211 0.0
C396 C 0.584 0.52306 0.71814 0.0
O397 O 0.49669 0.46325 0.7253 0.0
C398 C 0.52272 0.52886 0.66245 0.0
O399 O 0.54177 0.50687 0.65721 0.0
H400 H 0.56151 0.45484 0.70025 0.0
H401 H 0.57957 0.54625 0.7243 0.0
N402 N 0.5096 0.526 0.75745 0.0
N403 N 0.49879 0.56646 0.78566 0.0
C404 C 0.50787 0.55632 0.75789 0.0
C405 C 0.50186 0.51644 0.78602 0.0
C406 C 0.49534 0.54153 0.80363 0.0
C407 C 0.48777 0.44712 0.70214 0.0
O408 O 0.48969 0.45942 0.67467 0.0
H409 H 0.51318 0.5706 0.73809 0.0
H410 H 0.5004 0.49291 0.79327 0.0
O411 O 0.50679 0.5289 0.6875 0.0
H412 H 0.62959 0.5293 0.69399 0.0
H413 H 0.48779 0.54137 0.82747 0.0
Cu414 Cu 0.9572 0.36195 0.03003 0.0
N415 N 0.94693 0.39346 1.00425 0.0
N416 N 0.91767 0.43363 0.99781 0.0
C417 C 0.91782 0.40455 1.00709 0.0
C418 C 0.94794 0.44121 0.98824 0.0
C419 C 0.96607 0.41632 0.99234 0.0
O420 O 0.91874 0.33367 0.02906 0.0
C421 C 0.9758 0.38017 0.09441 0.0
O422 O 0.9807 0.3523 0.10302 0.0
H423 H 0.89843 0.39309 0.02009 0.0
H424 H 0.99197 0.41636 0.99079 0.0
N425 N 0.99408 0.34255 0.01805 0.0
N426 N 0.03876 0.31704 0.02245 0.0
C427 C 0.01858 0.33567 0.03646 0.0
C428 C 0.99938 0.32853 0.99114 0.0
C429 C 0.02667 0.31284 0.99378 0.0
C430 C 0.90855 0.32729 1.00192 0.0
O431 O 0.92601 0.33742 0.97851 0.0
H432 H 0.02124 0.34414 0.05967 0.0
H433 H 0.98395 0.32866 0.97123 0.0
O434 O 0.9651 0.38505 0.06768 0.0
H435 H 0.9572 0.46407 0.98252 0.0
H436 H 0.03595 0.29833 0.97619 0.0
Cu437 Cu 0.57575 0.66782 0.53825 0.0
N438 N 0.58819 0.63651 0.51296 0.0
N439 N 0.62181 0.60053 0.50169 0.0
C440 C 0.61904 0.62958 0.51084 0.0
C441 C 0.59132 0.58908 0.49679 0.0
C442 C 0.57061 0.61125 0.50404 0.0
O443 O 0.61375 0.69627 0.54024 0.0
C444 C 0.53781 0.63427 0.58219 0.0
O445 O 0.51425 0.63816 0.56292 0.0
H446 H 0.63885 0.6449 0.51833 0.0
H447 H 0.54472 0.60812 0.50589 0.0
N448 N 0.5402 0.68661 0.52274 0.0
N449 N 0.49744 0.71446 0.52022 0.0
C450 C 0.52026 0.70386 0.53853 0.0
C451 C 0.52962 0.68635 0.49348 0.0
C452 C 0.50335 0.70369 0.49182 0.0
C453 C 0.61963 0.71434 0.5178 0.0
O454 O 0.59759 0.7165 0.49653 0.0
H455 H 0.52258 0.70866 0.56292 0.0
H456 H 0.54042 0.67449 0.47467 0.0
O457 O 0.56554 0.64739 0.57706 0.0
H458 H 0.58434 0.56553 0.4913 0.0
H459 H 0.48931 0.70768 0.47148 0.0
Cu460 Cu 0.73296 0.45697 0.53071 0.0
N461 N 0.69911 0.43389 0.54889 0.0
N462 N 0.66444 0.43276 0.5884 0.0
C463 C 0.69561 0.43329 0.57967 0.0
C464 C 0.6477 0.43071 0.56178 0.0
C465 C 0.66907 0.43161 0.53755 0.0
O466 O 0.76646 0.46203 0.56187 0.0
C467 C 0.72452 0.52088 0.5158 0.0
O468 O 0.75486 0.52825 0.52214 0.0
H469 H 0.71576 0.43661 0.5951 0.0
H470 H 0.66315 0.43538 0.51371 0.0
N471 N 0.74814 0.43888 0.49537 0.0
N472 N 0.75855 0.43413 0.44531 0.0
C473 C 0.73883 0.44515 0.46662 0.0
C474 C 0.77461 0.42329 0.49222 0.0
C475 C 0.78122 0.42046 0.46124 0.0
C476 C 0.76574 0.48156 0.5835 0.0
O477 O 0.74495 0.5026 0.58196 0.0
H478 H 0.71973 0.45982 0.46153 0.0
H479 H 0.78933 0.41645 0.5111 0.0
O480 O 0.71307 0.49356 0.51851 0.0
H481 H 0.62205 0.43269 0.55976 0.0
H482 H 0.80197 0.41065 0.45124 0.0
Cu483 Cu 0.75561 0.47695 0.76603 0.0
N484 N 0.71308 0.47015 0.75334 0.0
N485 N 0.6693 0.44578 0.73303 0.0
C486 C 0.70164 0.44759 0.73454 0.0
C487 C 0.66009 0.46902 0.75071 0.0
C488 C 0.68719 0.48397 0.76325 0.0
O489 O 0.78161 0.47909 0.72877 0.0
C490 C 0.75364 0.41864 0.79546 0.0
O491 O 0.74205 0.40799 0.76922 0.0
H492 H 0.71662 0.43171 0.72344 0.0
H493 H 0.68791 0.50285 0.77934 0.0
N494 N 0.76079 0.51483 0.78517 0.0
N495 N 0.76504 0.55 0.82226 0.0
C496 C 0.75524 0.52103 0.81497 0.0
C497 C 0.77424 0.54081 0.77316 0.0
C498 C 0.777 0.56261 0.7961 0.0
C499 C 0.78673 0.45699 0.71086 0.0
O500 O 0.78014 0.42906 0.72051 0.0
H501 H 0.74569 0.50425 0.8313 0.0
H502 H 0.78248 0.54335 0.74965 0.0
O503 O 0.76385 0.44654 0.79732 0.0
H504 H 0.63559 0.47458 0.75484 0.0
H505 H 0.78753 0.58568 0.79394 0.0
Cu506 Cu 0.79578 0.57186 0.03133 0.0
N507 N 0.83273 0.59326 0.04602 0.0
N508 N 0.86689 0.59137 0.08557 0.0
C509 C 0.83667 0.59629 0.07663 0.0
C510 C 0.88329 0.58809 0.05908 0.0
C511 C 0.86219 0.58917 0.03479 0.0
O512 O 0.76497 0.57246 0.06497 0.0
C513 C 0.82635 0.51783 0.03968 0.0
O514 O 0.82797 0.52784 0.06814 0.0
H515 H 0.81656 0.59738 0.09215 0.0
H516 H 0.86679 0.58164 0.01156 0.0
N517 N 0.77982 0.58915 0.99615 0.0
N518 N 0.76822 0.59311 0.94637 0.0
C519 C 0.78849 0.58248 0.96723 0.0
C520 C 0.7532 0.6046 0.99357 0.0
C521 C 0.74585 0.60693 0.96276 0.0
C522 C 0.75312 0.54981 0.08026 0.0
O523 O 0.75751 0.52214 0.07042 0.0
H524 H 0.80757 0.56784 0.96173 0.0
H525 H 0.7389 0.61168 0.01277 0.0
O526 O 0.80997 0.53192 0.0204 0.0
H527 H 0.90744 0.5806 0.05754 0.0
H528 H 0.72483 0.61651 0.9532 0.0
Cu529 Cu 0.76996 0.54913 0.26564 0.0
N530 N 0.813 0.55515 0.25421 0.0
N531 N 0.85788 0.57787 0.23428 0.0
C532 C 0.82553 0.57744 0.23586 0.0
C533 C 0.86585 0.55441 0.25203 0.0
C534 C 0.83812 0.54037 0.26416 0.0
O535 O 0.74516 0.54776 0.22763 0.0
C536 C 0.77141 0.60744 0.29582 0.0
O537 O 0.78516 0.61791 0.27053 0.0
H538 H 0.81121 0.59405 0.22539 0.0
H539 H 0.83647 0.52148 0.28003 0.0
N540 N 0.76349 0.51135 0.28443 0.0
N541 N 0.75901 0.47636 0.32133 0.0
C542 C 0.76976 0.50499 0.31397 0.0
C543 C 0.74853 0.48582 0.27264 0.0
C544 C 0.74565 0.46413 0.29546 0.0
C545 C 0.74021 0.57041 0.21066 0.0
O546 O 0.74712 0.59804 0.22134 0.0
H547 H 0.78061 0.52147 0.33011 0.0
H548 H 0.73945 0.48352 0.24938 0.0
O549 O 0.76075 0.57964 0.29686 0.0
H550 H 0.89005 0.54836 0.2568 0.0
H551 H 0.73414 0.4414 0.29341 0.0
C552 C 0.1695 0.25359 0.16264 0.0
C553 C 0.18082 0.28445 0.1625 0.0
C554 C 0.13845 0.24438 0.17303 0.0
C555 C 0.11781 0.26566 0.18459 0.0
H556 H 0.18487 0.23625 0.15562 0.0
H557 H 0.1312 0.22026 0.17352 0.0
S558 S 0.13413 0.34936 0.18741 0.0
N559 N 0.16726 0.33657 0.17284 0.0
N560 N 0.10975 0.31891 0.19394 0.0
C561 C 0.1283 0.29657 0.18406 0.0
C562 C 0.15956 0.30605 0.17272 0.0
C563 C 0.07125 0.91746 0.37715 0.0
C564 C 0.05519 0.88841 0.37787 0.0
C565 C 0.06257 0.93942 0.35611 0.0
C566 C 0.03789 0.93296 0.33435 0.0
H567 H 0.09126 0.92294 0.39255 0.0
H568 H 0.07659 0.96107 0.35594 0.0
S569 S 0.987 0.86057 0.32844 0.0
N570 N 0.01217 0.8547 0.35681 0.0
N571 N 0.99615 0.89567 0.31643 0.0
C572 C 0.02074 0.90427 0.33576 0.0
C573 C 0.0293 0.88207 0.35771 0.0
C574 C 0.37146 0.74633 0.6762 0.0
C575 C 0.34001 0.75341 0.68412 0.0
C576 C 0.39507 0.74331 0.6987 0.0
C577 C 0.3883 0.74747 0.73008 0.0
H578 H 0.37835 0.74433 0.65227 0.0
H579 H 0.41917 0.73914 0.69122 0.0
S580 S 0.30864 0.76225 0.76337 0.0
N581 N 0.30257 0.76145 0.72584 0.0
N582 N 0.34682 0.75575 0.76817 0.0
C583 C 0.35637 0.75247 0.73849 0.0
C584 C 0.33226 0.7554 0.71552 0.0
C585 C 0.46916 0.11483 0.86656 0.0
C586 C 0.48004 0.14415 0.85675 0.0
C587 C 0.47477 0.08886 0.849 0.0
C588 C 0.4917 0.09105 0.82089 0.0
H589 H 0.45508 0.112 0.88741 0.0
H590 H 0.46469 0.067 0.85708 0.0
S591 S 0.5292 0.16248 0.78725 0.0
N592 N 0.51129 0.17371 0.81881 0.0
N593 N 0.52197 0.12513 0.7857 0.0
C594 C 0.50427 0.1202 0.81169 0.0
C595 C 0.49833 0.14666 0.82957 0.0
C596 C 0.19053 0.17747 0.31065 0.0
C597 C 0.17914 0.1467 0.31012 0.0
C598 C 0.16998 0.20046 0.31728 0.0
C599 C 0.1373 0.19336 0.32399 0.0
H600 H 0.21497 0.18385 0.30391 0.0
H601 H 0.1792 0.2239 0.3147 0.0
S602 S 0.0977 0.11582 0.33292 0.0
N603 N 0.13474 0.10997 0.32203 0.0
N604 N 0.09599 0.15318 0.33497 0.0
C605 C 0.12654 0.16248 0.32674 0.0
C606 C 0.14742 0.13912 0.31961 0.0
C607 C 0.11138 0.87502 0.48723 0.0
C608 C 0.1011 0.86126 0.51491 0.0
C609 C 0.14322 0.88716 0.48348 0.0
C610 C 0.16563 0.88663 0.5077 0.0
H611 H 0.0942 0.87838 0.46918 0.0
H612 H 0.14964 0.89878 0.46222 0.0
S613 S 0.15066 0.85218 0.58457 0.0
N614 N 0.11579 0.84714 0.56666 0.0
N615 N 0.17554 0.86963 0.55978 0.0
C616 C 0.15577 0.87206 0.5352 0.0
C617 C 0.12345 0.85975 0.5389 0.0
C618 C 0.3201 0.85908 0.82614 0.0
C619 C 0.33761 0.8869 0.82036 0.0
C620 C 0.33375 0.836 0.84275 0.0
C621 C 0.36503 0.84043 0.85495 0.0
H622 H 0.2966 0.85435 0.81602 0.0
H623 H 0.32075 0.81389 0.84378 0.0
S624 S 0.41678 0.91232 0.8538 0.0
N625 N 0.38526 0.9195 0.83279 0.0
N626 N 0.40995 0.87697 0.86585 0.0
C627 C 0.38075 0.86964 0.85291 0.0
C628 C 0.3674 0.89264 0.83504 0.0
C629 C 0.38175 0.10523 0.9998 0.0
C630 C 0.35634 0.1107 0.02001 0.0
C631 C 0.40878 0.12572 0.99741 0.0
C632 C 0.41165 0.15268 0.01504 0.0
H633 H 0.38039 0.08545 0.98479 0.0
H634 H 0.42686 0.12106 0.98041 0.0
S635 S 0.35404 0.17568 0.0747 0.0
N636 N 0.33752 0.14337 0.06066 0.0
N637 N 0.38819 0.18219 0.05584 0.0
C638 C 0.38756 0.1574 0.03701 0.0
C639 C 0.35993 0.13639 0.0395 0.0
C640 C 0.13278 0.01912 0.38746 0.0
C641 C 0.15059 0.03556 0.36466 0.0
C642 C 0.14522 0.01534 0.41691 0.0
C643 C 0.1761 0.02758 0.42476 0.0
H644 H 0.10977 1.00745 0.38222 0.0
H645 H 0.13146 1.00092 0.43296 0.0
S646 S 0.23067 0.07628 0.37565 0.0
N647 N 0.19916 0.06746 0.35353 0.0
N648 N 0.22305 0.05915 0.40884 0.0
C649 C 0.1935 0.04544 0.40298 0.0
C650 C 0.18066 0.04971 0.37297 0.0
C651 C 0.25001 0.90691 0.67312 0.0
C652 C 0.27052 0.88314 0.67753 0.0
C653 C 0.23127 0.91739 0.6974 0.0
C654 C 0.23295 0.90496 0.72701 0.0
H655 H 0.24756 0.91674 0.65054 0.0
H656 H 0.21507 0.93507 0.69289 0.0
S657 S 0.28247 0.84249 0.75073 0.0
N658 N 0.29175 0.84817 0.71421 0.0
N659 N 0.25553 0.86706 0.75921 0.0
C660 C 0.25329 0.88138 0.73177 0.0
C661 C 0.27248 0.87081 0.70723 0.0
C662 C 0.37874 0.98164 0.91793 0.0
C663 C 0.34714 0.97005 0.92392 0.0
C664 C 0.38919 0.98743 0.88784 0.0
C665 C 0.36848 0.98195 0.86249 0.0
H666 H 0.39484 0.98835 0.93665 0.0
H667 H 0.41326 0.99773 0.88468 0.0
S668 S 0.28461 0.94818 0.8662 0.0
N669 N 0.29635 0.9503 0.90238 0.0
N670 N 0.31556 0.962 0.84565 0.0
C671 C 0.33732 0.96896 0.86817 0.0
C672 C 0.3269 0.9626 0.89886 0.0
C673 C 0.29793 0.13854 0.23619 0.0
C674 C 0.29678 0.15592 0.26329 0.0
C675 C 0.28131 0.14629 0.20957 0.0
C676 C 0.26409 0.1727 0.20854 0.0
H677 H 0.31323 0.11983 0.235 0.0
H678 H 0.28302 0.13216 0.18923 0.0
S679 S 0.25721 0.22847 0.27211 0.0
N680 N 0.27904 0.20214 0.28674 0.0
N681 N 0.24854 0.2173 0.23656 0.0
C682 C 0.26387 0.19108 0.23511 0.0
C683 C 0.28026 0.18274 0.2624 0.0
C684 C 0.74007 0.36821 0.81997 0.0
C685 C 0.74952 0.39935 0.82343 0.0
C686 C 0.73149 0.34995 0.84534 0.0
C687 C 0.73185 0.36189 0.87549 0.0
H688 H 0.73849 0.35783 0.79732 0.0
H689 H 0.72392 0.32627 0.84101 0.0
S690 S 0.75676 0.44174 0.89755 0.0
N691 N 0.76028 0.44115 0.85971 0.0
N692 N 0.74418 0.40676 0.90748 0.0
C693 C 0.74235 0.3928 0.87951 0.0
C694 C 0.75122 0.41149 0.85352 0.0
C695 C 0.92027 0.56924 0.15019 0.0
C696 C 0.89955 0.54999 0.16827 0.0
C697 C 0.90898 0.58391 0.12417 0.0
C698 C 0.8766 0.57994 0.11508 0.0
H699 H 0.94569 0.57203 0.15525 0.0
H700 H 0.92596 0.59773 0.11042 0.0
S701 S 0.81192 0.5345 0.15705 0.0
N702 N 0.84462 0.53043 0.17734 0.0
N703 N 0.82348 0.55647 0.12794 0.0
C704 C 0.85535 0.56174 0.13386 0.0
C705 C 0.86684 0.54717 0.16052 0.0
C706 C 0.789 0.67659 0.34692 0.0
C707 C 0.78716 0.66472 0.37696 0.0
C708 C 0.78226 0.65812 0.3211 0.0
C709 C 0.77323 0.62688 0.32398 0.0
H710 H 0.79651 0.70031 0.34306 0.0
H711 H 0.78503 0.66841 0.29859 0.0
S712 S 0.76213 0.58472 0.39748 0.0
N713 N 0.77356 0.61989 0.40816 0.0
N714 N 0.76087 0.58512 0.35951 0.0
C715 C 0.76979 0.61486 0.3539 0.0
C716 C 0.77679 0.63375 0.38037 0.0
C717 C 0.90929 0.60916 0.23537 0.0
C718 C 0.87935 0.60173 0.22146 0.0
C719 C 0.92894 0.6344 0.22593 0.0
C720 C 0.9198 0.65334 0.20182 0.0
H721 H 0.91703 0.59636 0.25486 0.0
H722 H 0.95066 0.63973 0.23897 0.0
S723 S 0.84602 0.64102 0.15437 0.0
N724 N 0.84282 0.6137 0.18026 0.0
N725 N 0.88054 0.66034 0.16159 0.0
C726 C 0.89093 0.64494 0.18625 0.0
C727 C 0.87053 0.61945 0.19629 0.0
C728 C 0.64364 0.37981 0.68115 0.0
C729 C 0.61549 0.36736 0.6954 0.0
C730 C 0.66048 0.40597 0.69298 0.0
C731 C 0.64965 0.42102 0.71932 0.0
H732 H 0.65312 0.36874 0.66112 0.0
H733 H 0.68243 0.41429 0.68159 0.0
S734 S 0.57809 0.3971 0.76624 0.0
N735 N 0.57815 0.37175 0.73818 0.0
N736 N 0.60934 0.42117 0.75965 0.0
C737 C 0.62113 0.40928 0.73339 0.0
C738 C 0.60415 0.38244 0.72161 0.0
C739 C 0.5586 0.58934 0.60819 0.0
C740 C 0.53402 0.60938 0.60495 0.0
C741 C 0.55428 0.56319 0.62637 0.0
C742 C 0.52543 0.55628 0.6426 0.0
H743 H 0.58101 0.5933 0.59572 0.0
H744 H 0.57394 0.5484 0.62788 0.0
S745 S 0.45435 0.60254 0.64325 0.0
N746 N 0.48008 0.62111 0.61995 0.0
N747 N 0.4724 0.5725 0.65526 0.0
C748 C 0.501 0.57665 0.64034 0.0
C749 C 0.50515 0.603 0.62118 0.0
C750 C 0.62974 0.23173 0.80827 0.0
C751 C 0.62287 0.23024 0.83988 0.0
C752 C 0.60584 0.23744 0.78681 0.0
C753 C 0.574 0.24177 0.79603 0.0
H754 H 0.65413 0.23009 0.80018 0.0
H755 H 0.61273 0.23938 0.76283 0.0
S756 S 0.54295 0.23597 0.87607 0.0
N757 N 0.58159 0.23051 0.87926 0.0
N758 N 0.53649 0.24131 0.83907 0.0
C759 C 0.56644 0.23852 0.8275 0.0
C760 C 0.59091 0.2328 0.84936 0.0
C761 C 0.99769 0.4281 0.16582 0.0
C762 C 0.99821 0.45822 0.15475 0.0
C763 C 0.99092 0.40293 0.14622 0.0
C764 C 0.98435 0.40687 0.11479 0.0
H765 H 1.00131 0.42388 0.19005 0.0
H766 H 0.99004 0.38029 0.15597 0.0
S767 S 0.98644 0.48099 0.07365 0.0
N768 N 0.99412 0.49035 0.10983 0.0
N769 N 0.98174 0.44347 0.07305 0.0
C770 C 0.98626 0.43688 0.10321 0.0
C771 C 0.99311 0.4624 0.12314 0.0
C772 C 0.93737 0.78854 0.35957 0.0
C773 C 0.90719 0.79505 0.34774 0.0
C774 C 0.96298 0.78241 0.34006 0.0
C775 C 0.95931 0.78228 0.30789 0.0
H776 H 0.94075 0.78689 0.3842 0.0
H777 H 0.98528 0.77634 0.35036 0.0
S778 S 0.8862 0.80126 0.26522 0.0
N779 N 0.87591 0.80339 0.30181 0.0
N780 N 0.924 0.79233 0.26506 0.0
C781 C 0.92989 0.79077 0.29575 0.0
C782 C 0.90386 0.79709 0.31567 0.0
C783 C 0.60474 0.44649 0.65099 0.0
C784 C 0.62125 0.46853 0.66991 0.0
C785 C 0.61969 0.43367 0.62559 0.0
C786 C 0.65172 0.44238 0.61768 0.0
H787 H 0.57964 0.43981 0.65482 0.0
H788 H 0.60566 0.41746 0.61136 0.0
S789 S 0.70682 0.49647 0.66211 0.0
N790 N 0.67259 0.49572 0.68106 0.0
N791 N 0.70018 0.47322 0.63261 0.0
C792 C 0.66903 0.46332 0.63732 0.0
C793 C 0.65388 0.47602 0.66347 0.0
C794 C 0.87661 0.47007 0.98721 0.0
C795 C 0.89482 0.45443 1.00824 0.0
C796 C 0.85352 0.48968 0.9975 0.0
C797 C 0.84816 0.49448 0.0292 0.0
H798 H 0.88019 0.46697 0.96275 0.0
H799 H 0.8403 0.50163 0.98047 0.0
S800 S 0.89071 0.45873 0.09331 0.0
N801 N 0.90646 0.44484 0.0618 0.0
N802 N 0.86355 0.48158 0.0814 0.0
C803 C 0.8664 0.4787 0.05036 0.0
C804 C 0.88963 0.45874 0.03982 0.0
C805 C 0.67853 0.53928 0.48638 0.0
C806 C 0.70185 0.54437 0.50952 0.0
C807 C 0.65329 0.55853 0.48316 0.0
C808 C 0.65005 0.58326 0.50333 0.0
H809 H 0.67937 0.51979 0.47112 0.0
H810 H 0.63566 0.55357 0.46525 0.0
S811 S 0.70394 0.60462 0.56932 0.0
N812 N 0.72013 0.57529 0.55318 0.0
N813 N 0.67206 0.61071 0.54835 0.0
C814 C 0.67356 0.58867 0.52649 0.0
C815 C 0.69961 0.56938 0.52928 0.0
C816 C 0.02139 0.11351 0.28037 0.0
C817 C 0.03506 0.09007 0.26385 0.0
C818 C 0.02469 0.14374 0.27018 0.0
C819 C 0.04242 0.15164 0.24347 0.0
H820 H 1.00936 0.10871 0.30209 0.0
H821 H 0.01537 0.16126 0.2846 0.0
S822 S 0.08028 0.09868 0.19026 0.0
N823 N 0.06445 0.07663 0.21772 0.0
N824 N 0.07138 0.1336 0.19933 0.0
C825 C 0.05452 0.12829 0.22578 0.0
C826 C 0.05063 0.09744 0.23575 0.0
C827 C 0.2242 0.77509 0.53851 0.0
C828 C 0.21857 0.77639 0.57043 0.0
C829 C 0.19873 0.77257 0.51742 0.0
C830 C 0.1665 0.77105 0.52729 0.0
H831 H 0.2485 0.77716 0.52955 0.0
H832 H 0.20442 0.77292 0.49312 0.0
S833 S 0.13859 0.76952 0.60838 0.0
N834 N 0.17817 0.77349 0.61094 0.0
N835 N 0.13037 0.7681 0.57123 0.0
C836 C 0.16047 0.77097 0.55914 0.0
C837 C 0.18645 0.77376 0.58069 0.0
C838 C 0.47293 0.90957 0.76117 0.0
C839 C 0.48489 0.92303 0.78872 0.0
C840 C 0.46737 0.87791 0.75819 0.0
C841 C 0.47384 0.85824 0.78246 0.0
H842 H 0.46606 0.9236 0.7422 0.0
H843 H 0.45654 0.8689 0.73709 0.0
S844 S 0.50947 0.88146 0.85801 0.0
N845 N 0.50616 0.91385 0.83968 0.0
N846 N 0.49589 0.85438 0.83401 0.0
C847 C 0.48812 0.87117 0.8093 0.0
C848 C 0.49359 0.90352 0.81243 0.0
C849 C 0.32037 0.28522 0.03985 0.0
C850 C 0.29883 0.25996 0.04615 0.0
C851 C 0.34486 0.28361 0.01783 0.0
C852 C 0.34879 0.25675 1.00088 0.0
H853 H 0.31876 0.30635 0.05248 0.0
H854 H 0.36135 0.30343 0.0147 0.0
S855 S 0.29655 0.18507 1.0061 0.0
N856 N 0.28185 0.2077 0.03222 0.0
N857 N 0.32725 0.20495 0.99031 0.0
C858 C 0.3268 0.23155 1.00627 0.0
C859 C 0.30202 0.23309 0.02898 0.0
C860 C 0.26269 0.02973 0.16957 0.0
C861 C 0.29221 0.04531 0.17715 0.0
C862 C 0.25301 0.02622 0.13885 0.0
C863 C 0.27256 0.03831 0.11499 0.0
H864 H 0.24713 0.02026 0.18757 0.0
H865 H 0.2303 0.01386 0.13364 0.0
S866 S 0.34991 0.08463 0.12342 0.0
N867 N 0.33951 0.07504 0.1589 0.0
N868 N 0.32129 0.06886 0.10114 0.0
C869 C 0.30176 0.05462 0.12243 0.0
C870 C 0.31162 0.058 0.15358 0.0
C871 C 0.3 0.97754 0.39332 0.0
C872 C 0.26891 0.96296 0.39049 0.0
C873 C 0.31071 1.0012 0.37352 0.0
C874 C 0.29056 0.01139 0.35046 0.0
H875 H 0.31566 0.97167 0.41192 0.0
H876 H 0.33428 0.01254 0.37728 0.0
S877 S 0.20933 0.97764 0.32988 0.0
N878 N 0.21988 0.95801 0.35999 0.0
N879 N 0.2398 1.00269 0.32324 0.0
C880 C 0.26036 0.9957 0.34599 0.0
C881 C 0.24965 0.97134 0.3658 0.0
C882 C 0.24942 0.99226 0.63329 0.0
C883 C 0.27505 0.99113 0.65402 0.0
C884 C 0.25265 0.98316 0.6027 0.0
C885 C 0.28177 0.97286 0.59159 0.0
H886 H 0.22621 0.9988 0.64115 0.0
H887 H 0.23167 0.98299 0.58806 0.0
S888 S 0.35704 0.96869 0.63629 0.0
N889 N 0.3309 0.98075 0.66138 0.0
N890 N 0.33751 0.96451 0.60332 0.0
C891 C 0.30804 0.97293 0.61185 0.0
C892 C 0.30454 0.98183 0.6432 0.0
C893 C 0.22397 0.01132 0.87713 0.0
C894 C 0.24287 0.0149 0.85041 0.0
C895 C 0.2332 0.02625 0.90466 0.0
C896 C 0.26164 0.04545 0.90651 0.0
H897 H 0.20283 0.99557 0.87733 0.0
H898 H 0.2188 0.02136 0.92502 0.0
S899 S 0.31666 0.06633 0.84149 0.0
N900 N 0.28911 0.04198 0.82644 0.0
N901 N 0.30645 0.07004 0.87794 0.0
C902 C 0.27933 0.05108 0.87924 0.0
C903 C 0.26999 0.03577 0.85129 0.0
C904 C 0.08939 0.29132 0.01536 0.0
C905 C 0.06602 0.3025 0.03523 0.0
C906 C 0.11457 0.27493 0.02653 0.0
C907 C 0.11801 0.26972 0.05809 0.0
H908 H 0.08822 0.295 0.99082 0.0
H909 H 0.13158 0.26626 0.0104 0.0
S910 S 0.06453 0.29339 0.12042 0.0
N911 N 0.04839 0.30608 0.0887 0.0
N912 N 0.09694 0.27678 0.10928 0.0
C913 C 0.09576 0.28129 0.07843 0.0
C914 C 0.06952 0.29736 0.06713 0.0
C915 C 0.60728 0.2384 0.99494 0.0
C916 C 0.6169 0.26246 0.97499 0.0
C917 C 0.57504 0.22745 0.99735 0.0
C918 C 0.55086 0.24018 0.98007 0.0
H919 H 0.62502 0.22674 1.00768 0.0
H920 H 0.56929 0.20795 0.01194 0.0
S921 S 0.56248 0.3066 0.92779 0.0
N922 N 0.59901 0.30088 0.94008 0.0
N923 N 0.53832 0.28058 0.94487 0.0
C924 C 0.5597 0.26589 0.96191 0.0
C925 C 0.5927 0.27699 0.95934 0.0
C926 C 0.01322 0.3596 0.30609 0.0
C927 C 0.9895 0.34054 0.29122 0.0
C928 C 1.00954 0.3908 0.3099 0.0
C929 C 0.98214 0.40396 0.29869 0.0
H930 H 0.0352 0.35045 0.31395 0.0
H931 H 0.02911 0.40501 0.31987 0.0
S932 S 0.912 0.36374 0.26044 0.0
N933 N 0.93683 0.33684 0.26698 0.0
N934 N 0.92987 0.39547 0.27449 0.0
C935 C 0.95749 0.3849 0.28543 0.0
C936 C 0.96116 0.35316 0.28161 0.0
C937 C 0.94948 0.75048 0.49221 0.0
C938 C 0.97597 0.75143 0.47202 0.0
C939 C 0.91925 0.73744 0.4832 0.0
C940 C 0.91436 0.72432 0.45383 0.0
H941 H 0.9516 0.7612 0.51468 0.0
H942 H 0.89925 0.73872 0.49898 0.0
S943 S 0.97697 0.71754 0.39367 0.0
N944 N 0.99603 0.73579 0.42226 0.0
N945 N 0.93954 0.7108 0.40549 0.0
C946 C 0.94121 0.7233 0.43416 0.0
C947 C 0.97189 0.73703 0.44318 0.0
C948 C 0.43741 0.77449 0.51833 0.0
C949 C 0.4177 0.76726 0.54399 0.0
C950 C 0.4636 0.75738 0.51088 0.0
C951 C 0.47142 0.73262 0.52903 0.0
H952 H 0.43245 0.79347 0.50376 0.0
H953 H 0.47793 0.76357 0.4908 0.0
S954 S 0.42688 0.70257 0.59739 0.0
N955 N 0.40727 0.73205 0.58659 0.0
N956 N 0.4571 0.70091 0.57303 0.0
C957 C 0.45226 0.72517 0.55482 0.0
C958 C 0.42528 0.74223 0.56221 0.0
C959 C 0.10054 0.88717 0.21771 0.0
C960 C 0.0785 0.90746 0.20713 0.0
C961 C 0.09462 0.85563 0.21373 0.0
C962 C 0.06609 0.84355 0.19979 0.0
H963 H 0.12203 0.89581 0.22973 0.0
H964 H 0.11163 0.84054 0.22294 0.0
S965 S 1.00102 0.88713 0.16802 0.0
N966 N 0.02756 0.91343 0.18159 0.0
N967 N 0.01616 0.85408 0.17469 0.0
C968 C 0.04424 0.86364 0.18861 0.0
C969 C 0.05052 0.89567 0.19213 0.0
C970 C 0.46296 0.12526 0.72414 0.0
C971 C 0.46029 0.10294 0.70076 0.0
C972 C 0.47192 0.15573 0.71755 0.0
C973 C 0.47928 0.16538 0.68738 0.0
H974 H 0.45939 0.11923 0.74802 0.0
H975 H 0.4736 0.17173 0.73655 0.0
S976 S 0.47279 0.11655 0.61725 0.0
N977 N 0.46216 0.09329 0.64568 0.0
N978 N 0.48143 0.15009 0.63348 0.0
C979 C 0.47546 0.14356 0.66352 0.0
C980 C 0.46551 0.11252 0.6702 0.0
C981 C 0.47409 0.36383 0.68006 0.0
C982 C 0.48075 0.34853 0.70748 0.0
C983 C 0.47447 0.39565 0.67902 0.0
C984 C 0.48121 0.41361 0.70539 0.0
H985 H 0.47053 0.35137 0.65864 0.0
H986 H 0.47098 0.40623 0.65694 0.0
S987 S 0.49316 0.38435 0.78436 0.0
N988 N 0.48948 0.35345 0.76258 0.0
N989 N 0.48965 0.41331 0.76089 0.0
C990 C 0.4849 0.39847 0.73359 0.0
C991 C 0.48482 0.36596 0.73456 0.0
C992 C 0.83089 0.30624 0.9594 0.0
C993 C 0.813 0.28741 0.98 0.0
C994 C 0.86166 0.3186 0.96691 0.0
C995 C 0.87584 0.31309 0.99561 0.0
H996 H 0.82115 0.31111 0.93702 0.0
H997 H 0.87426 0.33294 0.95 0.0
S998 S 0.83847 0.26586 0.05816 0.0
N999 N 0.81124 0.26392 0.03047 0.0
N1000 N 0.86921 0.28775 0.04499 0.0
C1001 C 0.85807 0.29455 0.01668 0.0
C1002 C 0.82669 0.28148 0.00875 0.0
C1003 C 0.06141 0.64198 0.21814 0.0
C1004 C 0.04528 0.65744 0.24115 0.0
C1005 C 0.05771 0.61018 0.21526 0.0
C1006 C 0.03773 0.59256 0.23543 0.0
H1007 H 0.07567 0.65472 0.20108 0.0
H1008 H 0.06953 0.59953 0.19624 0.0
S1009 S 0.99281 0.62183 0.30208 0.0
N1010 N 1.01066 0.65256 0.28633 0.0
N1011 N 1.00377 0.59294 0.28111 0.0
C1012 C 0.0231 0.60764 0.25993 0.0
C1013 C 0.02682 0.64005 0.26278 0.0
C1014 C 0.65631 0.75369 0.49215 0.0
C1015 C 0.65244 0.72852 0.51204 0.0
C1016 C 0.6868 0.76457 0.48175 0.0
C1017 C 0.71453 0.75029 0.49029 0.0
H1018 H 0.63549 0.76455 0.48378 0.0
H1019 H 0.68858 0.78341 0.46578 0.0
S1020 S 0.71829 0.68553 0.54389 0.0
N1021 N 0.6796 0.69124 0.5418 0.0
N1022 N 0.73676 0.7113 0.52137 0.0
C1023 C 0.71129 0.72595 0.51104 0.0
C1024 C 0.6803 0.71522 0.52222 0.0
C1025 C 0.78742 0.45433 0.39947 0.0
C1026 C 0.75904 0.44165 0.41317 0.0
C1027 C 0.78736 0.46521 0.36919 0.0
C1028 C 0.75912 0.46311 0.35146 0.0
H1029 H 0.80945 0.45697 0.41267 0.0
H1030 H 0.80941 0.47565 0.35961 0.0
S1031 S 0.67893 0.43088 0.37648 0.0
N1032 N 0.70227 0.42706 0.40671 0.0
N1033 N 0.70228 0.44694 0.34954 0.0
C1034 C 0.73087 0.44964 0.3646 0.0
C1035 C 0.7308 0.43909 0.39556 0.0
C1036 C 0.78497 0.49935 0.63536 0.0
C1037 C 0.78077 0.47562 0.61366 0.0
C1038 C 0.79026 0.49331 0.66654 0.0
C1039 C 0.79104 0.46321 0.67736 0.0
H1040 H 0.78193 0.52264 0.62861 0.0
H1041 H 0.79114 0.51233 0.68252 0.0
S1042 S 0.78808 0.39339 0.62876 0.0
N1043 N 0.78313 0.42123 0.6043 0.0
N1044 N 0.79258 0.40983 0.66285 0.0
C1045 C 0.79039 0.43956 0.65534 0.0
C1046 C 0.78536 0.44577 0.6235 0.0
C1047 C 0.73847 0.57179 0.90136 0.0
C1048 C 0.76699 0.58518 0.91428 0.0
C1049 C 0.73787 0.56069 0.87104 0.0
C1050 C 0.76554 0.56331 0.85251 0.0
H1051 H 0.71688 0.56883 0.9152 0.0
H1052 H 0.71577 0.54973 0.86204 0.0
S1053 S 0.8458 0.59733 0.87533 0.0
N1054 N 0.82327 0.60086 0.90628 0.0
N1055 N 0.82199 0.58063 0.84899 0.0
C1056 C 0.79391 0.57742 0.86488 0.0
C1057 C 0.79467 0.58817 0.89589 0.0
C1058 C 0.74187 0.58977 0.15662 0.0
C1059 C 0.73505 0.56547 0.17705 0.0
C1060 C 0.74505 0.58472 0.12493 0.0
C1061 C 0.74163 0.55511 0.11222 0.0
H1062 H 0.74696 0.61273 0.16527 0.0
H1063 H 0.75234 0.60408 0.11066 0.0
S1064 S 0.71719 0.48442 0.15494 0.0
N1065 N 0.71997 0.51127 0.18167 0.0
N1066 N 0.7261 0.50176 0.12213 0.0
C1067 C 0.73164 0.53101 0.13196 0.0
C1068 C 0.72834 0.53618 0.16433 0.0
C1069 C 0.4991 0.63943 0.83101 0.0
C1070 C 0.4857 0.6594 0.8102 0.0
C1071 C 0.50268 0.6089 0.82312 0.0
C1072 C 0.49336 0.59739 0.794 0.0
H1073 H 0.50678 0.6475 0.85358 0.0
H1074 H 0.51349 0.59437 0.83962 0.0
S1075 S 0.45657 0.64017 0.73133 0.0
N1076 N 0.46321 0.66547 0.75916 0.0
N1077 N 0.46899 0.60799 0.74473 0.0
C1078 C 0.47952 0.61701 0.77314 0.0
C1079 C 0.4759 0.64804 0.78115 0.0
loop_
_geom_bond_atom_site_label_1
_geom_bond_atom_site_label_2
_geom_bond_distance
_geom_bond_site_symmetry_2
_ccdc_geom_bond_type
Cu0 N1 1.999 . S
Cu0 O6 1.974 . S
Cu0 N11 1.985 . S
Cu0 O20 1.959 . S
N1 Cu0 1.999 . S
N1 C3 1.263 . S
N1 C5 1.389 . S
N2 C3 1.358 . S
N2 C4 1.400 . S
C3 N1 1.263 . S
C3 N2 1.358 . S
C3 H9 0.930 . S
C4 N2 1.400 . S
C4 C5 1.351 . S
C4 H21 0.930 . S
C5 N1 1.389 . S
C5 C4 1.351 . S
C5 H10 0.930 . S
O6 Cu0 1.974 . S
O6 C16 1.282 . S
C7 O8 1.261 . S
C7 O20 1.251 . S
O8 C7 1.261 . S
H9 C3 0.930 . S
H10 C5 0.930 . S
N11 Cu0 1.985 . S
N11 C13 1.335 . S
N11 C14 1.390 . S
N12 C13 1.345 . S
N12 C15 1.336 . S
C13 N11 1.335 . S
C13 N12 1.345 . S
C13 H18 0.930 . S
C14 N11 1.390 . S
C14 C15 1.346 . S
C14 H19 0.930 . S
C15 N12 1.336 . S
C15 C14 1.346 . S
C15 H22 0.929 . S
C16 O6 1.282 . S
C16 O17 1.216 . S
O17 C16 1.216 . S
H18 C13 0.930 . S
H19 C14 0.930 . S
O20 Cu0 1.959 . S
O20 C7 1.251 . S
H21 C4 0.930 . S
H22 C15 0.929 . S
Cu23 N24 1.996 1_455 S
Cu23 O29 1.974 1_455 S
Cu23 N34 1.985 . S
Cu23 O43 1.959 . S
N24 Cu23 1.996 1_655 S
N24 C26 1.277 . S
N24 C28 1.379 1_655 S
N25 C26 1.358 . S
N25 C27 1.400 1_655 S
C26 N24 1.277 . S
C26 N25 1.358 . S
C26 H32 0.930 . S
C27 N25 1.400 1_455 S
C27 C28 1.351 . S
C27 H44 0.930 . S
C28 N24 1.379 1_455 S
C28 C27 1.351 . S
C28 H33 0.930 . S
O29 Cu23 1.974 1_655 S
O29 C39 1.282 . S
C30 O31 1.261 . S
C30 O43 1.251 . S
O31 C30 1.261 . S
H32 C26 0.930 . S
H33 C28 0.930 . S
N34 Cu23 1.985 . S
N34 C36 1.335 . S
N34 C37 1.390 1_455 S
N35 C36 1.345 . S
N35 C38 1.336 . S
C36 N34 1.335 . S
C36 N35 1.345 . S
C36 H41 0.930 . S
C37 N34 1.390 1_655 S
C37 C38 1.346 1_655 S
C37 H42 0.930 . S
C38 N35 1.336 . S
C38 C37 1.346 1_455 S
C38 H45 0.929 1_455 S
C39 O29 1.282 . S
C39 O40 1.216 . S
O40 C39 1.216 . S
H41 C36 0.930 . S
H42 C37 0.930 . S
O43 Cu23 1.959 . S
O43 C30 1.251 . S
H44 C27 0.930 . S
H45 C38 0.929 1_655 S
Cu46 N47 1.999 . S
Cu46 O52 1.974 . S
Cu46 N57 1.985 . S
Cu46 O66 1.959 . S
N47 Cu46 1.999 . S
N47 C49 1.263 . S
N47 C51 1.389 . S
N48 C49 1.358 . S
N48 C50 1.400 . S
C49 N47 1.263 . S
C49 N48 1.358 . S
C49 H55 0.930 . S
C50 N48 1.400 . S
C50 C51 1.351 . S
C50 H67 0.930 . S
C51 N47 1.389 . S
C51 C50 1.351 . S
C51 H56 0.930 . S
O52 Cu46 1.974 . S
O52 C62 1.282 . S
C53 O54 1.261 . S
C53 O66 1.251 . S
O54 C53 1.261 . S
H55 C49 0.930 . S
H56 C51 0.930 . S
N57 Cu46 1.985 . S
N57 C59 1.335 . S
N57 C60 1.390 . S
N58 C59 1.345 . S
N58 C61 1.336 . S
C59 N57 1.335 . S
C59 N58 1.345 . S
C59 H64 0.930 . S
C60 N57 1.390 . S
C60 C61 1.346 . S
C60 H65 0.930 . S
C61 N58 1.336 . S
C61 C60 1.346 . S
C61 H68 0.929 . S
C62 O52 1.282 . S
C62 O63 1.216 . S
O63 C62 1.216 . S
H64 C59 0.930 . S
H65 C60 0.930 . S
O66 Cu46 1.959 . S
O66 C53 1.251 . S
H67 C50 0.930 . S
H68 C61 0.929 . S
Cu69 N70 1.999 . S
Cu69 O75 1.974 . S
Cu69 N80 1.985 1_556 S
Cu69 O89 1.959 . S
N70 Cu69 1.999 . S
N70 C72 1.263 . S
N70 C74 1.389 . S
N71 C72 1.358 . S
N71 C73 1.400 . S
C72 N70 1.263 . S
C72 N71 1.358 . S
C72 H78 0.930 . S
C73 N71 1.400 . S
C73 C74 1.351 . S
C73 H90 0.930 . S
C74 N70 1.389 . S
C74 C73 1.351 . S
C74 H79 0.930 . S
O75 Cu69 1.974 . S
O75 C85 1.282 . S
C76 O77 1.261 . S
C76 O89 1.251 1_554 S
O77 C76 1.261 . S
H78 C72 0.930 . S
H79 C74 0.930 . S
N80 Cu69 1.985 1_554 S
N80 C82 1.335 . S
N80 C83 1.390 . S
N81 C82 1.345 . S
N81 C84 1.336 . S
C82 N80 1.335 . S
C82 N81 1.345 . S
C82 H87 0.930 . S
C83 N80 1.390 . S
C83 C84 1.346 . S
C83 H88 0.930 . S
C84 N81 1.336 . S
C84 C83 1.346 . S
C84 H91 0.929 . S
C85 O75 1.282 . S
C85 O86 1.216 1_556 S
O86 C85 1.216 1_554 S
H87 C82 0.930 . S
H88 C83 0.930 . S
O89 Cu69 1.959 . S
O89 C76 1.251 1_556 S
H90 C73 0.930 . S
H91 C84 0.929 . S
Cu92 N93 1.999 1_565 S
Cu92 O98 1.974 1_565 S
Cu92 N103 1.985 1_455 S
Cu92 O112 1.959 . S
N93 Cu92 1.999 1_545 S
N93 C95 1.263 . S
N93 C97 1.389 1_545 S
N94 C95 1.358 . S
N94 C96 1.400 . S
C95 N93 1.263 . S
C95 N94 1.358 . S
C95 H101 0.930 . S
C96 N94 1.400 . S
C96 C97 1.351 1_545 S
C96 H113 0.930 1_545 S
C97 N93 1.389 1_565 S
C97 C96 1.351 1_565 S
C97 H102 0.930 . S
O98 Cu92 1.974 1_545 S
O98 C108 1.282 . S
C99 O100 1.261 . S
C99 O112 1.251 1_655 S
O100 C99 1.261 . S
H101 C95 0.930 . S
H102 C97 0.930 . S
N103 Cu92 1.985 1_655 S
N103 C105 1.335 . S
N103 C106 1.390 1_565 S
N104 C105 1.345 . S
N104 C107 1.336 . S
C105 N103 1.335 . S
C105 N104 1.345 . S
C105 H110 0.930 . S
C106 N103 1.390 1_545 S
C106 C107 1.346 1_545 S
C106 H111 0.930 . S
C107 N104 1.336 . S
C107 C106 1.346 1_565 S
C107 H114 0.929 . S
C108 O98 1.282 . S
C108 O109 1.216 1_455 S
O109 C108 1.216 1_655 S
H110 C105 0.930 . S
H111 C106 0.930 . S
O112 Cu92 1.959 . S
O112 C99 1.251 1_455 S
H113 C96 0.930 1_565 S
H114 C107 0.929 . S
Cu115 N116 1.999 . S
Cu115 O121 1.974 . S
Cu115 N126 1.985 . S
Cu115 O135 1.959 . S
N116 Cu115 1.999 . S
N116 C118 1.263 . S
N116 C120 1.389 . S
N117 C118 1.358 . S
N117 C119 1.400 . S
C118 N116 1.263 . S
C118 N117 1.358 . S
C118 H124 0.930 . S
C119 N117 1.400 . S
C119 C120 1.351 . S
C119 H136 0.930 . S
C120 N116 1.389 . S
C120 C119 1.351 . S
C120 H125 0.930 . S
O121 Cu115 1.974 . S
O121 C131 1.282 . S
C122 O123 1.261 . S
C122 O135 1.251 . S
O123 C122 1.261 . S
H124 C118 0.930 . S
H125 C120 0.930 . S
N126 Cu115 1.985 . S
N126 C128 1.335 . S
N126 C129 1.390 . S
N127 C128 1.345 . S
N127 C130 1.336 . S
C128 N126 1.335 . S
C128 N127 1.345 . S
C128 H133 0.930 . S
C129 N126 1.390 . S
C129 C130 1.346 . S
C129 H134 0.930 . S
C130 N127 1.336 . S
C130 C129 1.346 . S
C130 H137 0.929 . S
C131 O121 1.282 . S
C131 O132 1.216 . S
O132 C131 1.216 . S
H133 C128 0.930 . S
H134 C129 0.930 . S
O135 Cu115 1.959 . S
O135 C122 1.251 . S
H136 C119 0.930 . S
H137 C130 0.929 . S
Cu138 N139 1.999 1_545 S
Cu138 O144 1.974 1_545 S
Cu138 N149 1.985 . S
Cu138 O158 1.959 . S
N139 Cu138 1.999 1_565 S
N139 C141 1.263 . S
N139 C143 1.389 1_565 S
N140 C141 1.358 . S
N140 C142 1.400 . S
C141 N139 1.263 . S
C141 N140 1.358 . S
C141 H147 0.930 . S
C142 N140 1.400 . S
C142 C143 1.351 1_565 S
C142 H159 0.930 1_565 S
C143 N139 1.389 1_545 S
C143 C142 1.351 1_545 S
C143 H148 0.930 . S
O144 Cu138 1.974 1_565 S
O144 C154 1.282 . S
C145 O146 1.261 . S
C145 O158 1.251 . S
O146 C145 1.261 . S
H147 C141 0.930 . S
H148 C143 0.930 . S
N149 Cu138 1.985 . S
N149 C151 1.335 . S
N149 C152 1.390 1_545 S
N150 C151 1.345 . S
N150 C153 1.336 . S
C151 N149 1.335 . S
C151 N150 1.345 . S
C151 H156 0.930 . S
C152 N149 1.390 1_565 S
C152 C153 1.346 1_565 S
C152 H157 0.930 . S
C153 N150 1.336 . S
C153 C152 1.346 1_545 S
C153 H160 0.929 . S
C154 O144 1.282 . S
C154 O155 1.216 . S
O155 C154 1.216 . S
H156 C151 0.930 . S
H157 C152 0.930 . S
O158 Cu138 1.959 . S
O158 C145 1.251 . S
H159 C142 0.930 1_545 S
H160 C153 0.929 . S
Cu161 N162 1.999 . S
Cu161 O167 1.974 . S
Cu161 N172 1.985 . S
Cu161 O181 1.959 . S
N162 Cu161 1.999 . S
N162 C164 1.263 . S
N162 C166 1.389 . S
N163 C164 1.358 . S
N163 C165 1.400 . S
C164 N162 1.263 . S
C164 N163 1.358 . S
C164 H170 0.930 . S
C165 N163 1.400 . S
C165 C166 1.351 . S
C165 H182 0.930 . S
C166 N162 1.389 . S
C166 C165 1.351 . S
C166 H171 0.930 . S
O167 Cu161 1.974 . S
O167 C177 1.282 . S
C168 O169 1.261 . S
C168 O181 1.251 . S
O169 C168 1.261 . S
H170 C164 0.930 . S
H171 C166 0.930 . S
N172 Cu161 1.985 . S
N172 C174 1.335 . S
N172 C175 1.390 . S
N173 C174 1.345 . S
N173 C176 1.336 . S
C174 N172 1.335 . S
C174 N173 1.345 . S
C174 H179 0.930 . S
C175 N172 1.390 . S
C175 C176 1.346 . S
C175 H180 0.930 . S
C176 N173 1.336 . S
C176 C175 1.346 . S
C176 H183 0.929 . S
C177 O167 1.282 . S
C177 O178 1.216 . S
O178 C177 1.216 . S
H179 C174 0.930 . S
H180 C175 0.930 . S
O181 Cu161 1.959 . S
O181 C168 1.251 . S
H182 C165 0.930 . S
H183 C176 0.929 . S
Cu184 N185 1.999 . S
Cu184 O190 1.974 . S
Cu184 N195 1.985 . S
Cu184 O204 1.959 . S
N185 Cu184 1.999 . S
N185 C187 1.263 . S
N185 C189 1.389 . S
N186 C187 1.358 . S
N186 C188 1.400 . S
C187 N185 1.263 . S
C187 N186 1.358 . S
C187 H193 0.930 . S
C188 N186 1.400 . S
C188 C189 1.351 . S
C188 H205 0.930 . S
C189 N185 1.389 . S
C189 C188 1.351 . S
C189 H194 0.930 . S
O190 Cu184 1.974 . S
O190 C200 1.282 . S
C191 O192 1.261 . S
C191 O204 1.251 . S
O192 C191 1.261 . S
H193 C187 0.930 . S
H194 C189 0.930 . S
N195 Cu184 1.985 . S
N195 C197 1.335 . S
N195 C198 1.390 . S
N196 C197 1.345 . S
N196 C199 1.336 . S
C197 N195 1.335 . S
C197 N196 1.345 . S
C197 H202 0.930 . S
C198 N195 1.390 . S
C198 C199 1.346 . S
C198 H203 0.930 . S
C199 N196 1.336 . S
C199 C198 1.346 . S
C199 H206 0.929 . S
C200 O190 1.282 . S
C200 O201 1.216 . S
O201 C200 1.216 . S
H202 C197 0.930 . S
H203 C198 0.930 . S
O204 Cu184 1.959 . S
O204 C191 1.251 . S
H205 C188 0.930 . S
H206 C199 0.929 . S
Cu207 N208 1.999 . S
Cu207 O213 1.974 . S
Cu207 N218 1.985 . S
Cu207 O227 1.959 1_545 S
N208 Cu207 1.999 . S
N208 C210 1.263 . S
N208 C212 1.389 . S
N209 C210 1.358 . S
N209 C211 1.400 . S
C210 N208 1.263 . S
C210 N209 1.358 . S
C210 H216 0.930 . S
C211 N209 1.400 . S
C211 C212 1.351 . S
C211 H228 0.930 . S
C212 N208 1.389 . S
C212 C211 1.351 . S
C212 H217 0.930 . S
O213 Cu207 1.974 . S
O213 C223 1.282 . S
C214 O215 1.261 . S
C214 O227 1.251 . S
O215 C214 1.261 . S
H216 C210 0.930 . S
H217 C212 0.930 . S
N218 Cu207 1.985 . S
N218 C220 1.335 1_545 S
N218 C221 1.390 . S
N219 C220 1.345 . S
N219 C222 1.336 . S
C220 N218 1.335 1_565 S
C220 N219 1.345 . S
C220 H225 0.930 . S
C221 N218 1.390 . S
C221 C222 1.346 1_545 S
C221 H226 0.930 . S
C222 N219 1.336 . S
C222 C221 1.346 1_565 S
C222 H229 0.929 . S
C223 O213 1.282 . S
C223 O224 1.216 . S
O224 C223 1.216 . S
H225 C220 0.930 . S
H226 C221 0.930 . S
O227 Cu207 1.959 1_565 S
O227 C214 1.251 . S
H228 C211 0.930 . S
H229 C222 0.929 . S
Cu230 N231 1.999 . S
Cu230 O236 1.974 . S
Cu230 N241 1.985 . S
Cu230 O250 1.959 . S
N231 Cu230 1.999 . S
N231 C233 1.263 . S
N231 C235 1.389 . S
N232 C233 1.358 . S
N232 C234 1.400 . S
C233 N231 1.263 . S
C233 N232 1.358 . S
C233 H239 0.930 . S
C234 N232 1.400 . S
C234 C235 1.351 . S
C234 H251 0.930 . S
C235 N231 1.389 . S
C235 C234 1.351 . S
C235 H240 0.930 . S
O236 Cu230 1.974 . S
O236 C246 1.282 . S
C237 O238 1.261 . S
C237 O250 1.251 . S
O238 C237 1.261 . S
H239 C233 0.930 . S
H240 C235 0.930 . S
N241 Cu230 1.985 . S
N241 C243 1.335 . S
N241 C244 1.390 . S
N242 C243 1.345 . S
N242 C245 1.336 . S
C243 N241 1.335 . S
C243 N242 1.345 . S
C243 H248 0.930 . S
C244 N241 1.390 . S
C244 C245 1.346 . S
C244 H249 0.930 . S
C245 N242 1.336 . S
C245 C244 1.346 . S
C245 H252 0.929 . S
C246 O236 1.282 . S
C246 O247 1.216 . S
O247 C246 1.216 . S
H248 C243 0.930 . S
H249 C244 0.930 . S
O250 Cu230 1.959 . S
O250 C237 1.251 . S
H251 C234 0.930 . S
H252 C245 0.929 . S
Cu253 N254 1.999 1_554 S
Cu253 O259 1.974 1_554 S
Cu253 N264 1.995 . S
Cu253 O273 1.959 1_565 S
N254 Cu253 1.999 1_556 S
N254 C256 1.263 . S
N254 C258 1.389 . S
N255 C256 1.358 . S
N255 C257 1.400 . S
C256 N254 1.263 . S
C256 N255 1.358 . S
C256 H262 0.930 . S
C257 N255 1.400 . S
C257 C258 1.351 . S
C257 H274 0.930 . S
C258 N254 1.389 . S
C258 C257 1.351 . S
C258 H263 0.930 . S
O259 Cu253 1.974 1_556 S
O259 C269 1.282 . S
C260 O261 1.261 1_554 S
C260 O273 1.251 . S
O261 C260 1.261 1_556 S
H262 C256 0.930 . S
H263 C258 0.930 . S
N264 Cu253 1.995 . S
N264 C266 1.323 1_565 S
N264 C267 1.396 . S
N265 C266 1.345 . S
N265 C268 1.336 . S
C266 N264 1.323 1_545 S
C266 N265 1.345 . S
C266 H271 0.930 . S
C267 N264 1.396 . S
C267 C268 1.346 1_565 S
C267 H272 0.930 . S
C268 N265 1.336 . S
C268 C267 1.346 1_545 S
C268 H275 0.929 . S
C269 O259 1.282 . S
C269 O270 1.216 . S
O270 C269 1.216 . S
H271 C266 0.930 . S
H272 C267 0.930 . S
O273 Cu253 1.959 1_545 S
O273 C260 1.251 . S
H274 C257 0.930 . S
H275 C268 0.929 . S
Cu276 N277 1.999 . S
Cu276 O282 1.974 . S
Cu276 N287 1.985 . S
Cu276 O296 1.959 . S
N277 Cu276 1.999 . S
N277 C279 1.263 . S
N277 C281 1.389 . S
N278 C279 1.358 . S
N278 C280 1.400 . S
C279 N277 1.263 . S
C279 N278 1.358 . S
C279 H285 0.930 . S
C280 N278 1.400 . S
C280 C281 1.351 . S
C280 H297 0.930 . S
C281 N277 1.389 . S
C281 C280 1.351 . S
C281 H286 0.930 . S
O282 Cu276 1.974 . S
O282 C292 1.282 . S
C283 O284 1.261 . S
C283 O296 1.251 . S
O284 C283 1.261 . S
H285 C279 0.930 . S
H286 C281 0.930 . S
N287 Cu276 1.985 . S
N287 C289 1.335 . S
N287 C290 1.390 . S
N288 C289 1.345 . S
N288 C291 1.336 . S
C289 N287 1.335 . S
C289 N288 1.345 . S
C289 H294 0.930 . S
C290 N287 1.390 . S
C290 C291 1.346 . S
C290 H295 0.930 . S
C291 N288 1.336 . S
C291 C290 1.346 . S
C291 H298 0.929 . S
C292 O282 1.282 . S
C292 O293 1.216 . S
O293 C292 1.216 . S
H294 C289 0.930 . S
H295 C290 0.930 . S
O296 Cu276 1.959 . S
O296 C283 1.251 . S
H297 C280 0.930 . S
H298 C291 0.929 . S
Cu299 N300 1.999 . S
Cu299 O305 1.974 . S
Cu299 N310 1.985 1_655 S
Cu299 O319 1.959 . S
N300 Cu299 1.999 . S
N300 C302 1.263 . S
N300 C304 1.389 . S
N301 C302 1.358 . S
N301 C303 1.400 . S
C302 N300 1.263 . S
C302 N301 1.358 . S
C302 H308 0.930 . S
C303 N301 1.400 . S
C303 C304 1.351 . S
C303 H320 0.930 . S
C304 N300 1.389 . S
C304 C303 1.351 . S
C304 H309 0.930 . S
O305 Cu299 1.974 . S
O305 C315 1.282 . S
C306 O307 1.261 . S
C306 O319 1.251 1_455 S
O307 C306 1.261 . S
H308 C302 0.930 . S
H309 C304 0.930 . S
N310 Cu299 1.985 1_455 S
N310 C312 1.335 . S
N310 C313 1.390 . S
N311 C312 1.345 . S
N311 C314 1.336 . S
C312 N310 1.335 . S
C312 N311 1.345 . S
C312 H317 0.930 . S
C313 N310 1.390 . S
C313 C314 1.346 . S
C313 H318 0.930 . S
C314 N311 1.336 . S
C314 C313 1.346 . S
C314 H321 0.929 . S
C315 O305 1.282 . S
C315 O316 1.216 1_655 S
O316 C315 1.216 1_455 S
H317 C312 0.930 . S
H318 C313 0.930 . S
O319 Cu299 1.959 . S
O319 C306 1.251 1_655 S
H320 C303 0.930 . S
H321 C314 0.929 . S
Cu322 N323 1.999 . S
Cu322 O328 1.974 . S
Cu322 N333 1.985 . S
Cu322 O342 1.959 . S
N323 Cu322 1.999 . S
N323 C325 1.263 . S
N323 C327 1.389 . S
N324 C325 1.358 . S
N324 C326 1.400 . S
C325 N323 1.263 . S
C325 N324 1.358 . S
C325 H331 0.930 . S
C326 N324 1.400 . S
C326 C327 1.351 . S
C326 H343 0.930 . S
C327 N323 1.389 . S
C327 C326 1.351 . S
C327 H332 0.930 . S
O328 Cu322 1.974 . S
O328 C338 1.282 . S
C329 O330 1.261 . S
C329 O342 1.251 . S
O330 C329 1.261 . S
H331 C325 0.930 . S
H332 C327 0.930 . S
N333 Cu322 1.985 . S
N333 C335 1.335 . S
N333 C336 1.390 . S
N334 C335 1.345 . S
N334 C337 1.336 . S
C335 N333 1.335 . S
C335 N334 1.345 . S
C335 H340 0.930 . S
C336 N333 1.390 . S
C336 C337 1.346 . S
C336 H341 0.930 . S
C337 N334 1.336 . S
C337 C336 1.346 . S
C337 H344 0.929 . S
C338 O328 1.282 . S
C338 O339 1.216 . S
O339 C338 1.216 . S
H340 C335 0.930 . S
H341 C336 0.930 . S
O342 Cu322 1.959 . S
O342 C329 1.251 . S
H343 C326 0.930 . S
H344 C337 0.929 . S
Cu345 N346 1.999 . S
Cu345 O351 1.974 . S
Cu345 N356 1.985 . S
Cu345 O365 1.959 . S
N346 Cu345 1.999 . S
N346 C348 1.263 . S
N346 C350 1.389 . S
N347 C348 1.358 . S
N347 C349 1.400 . S
C348 N346 1.263 . S
C348 N347 1.358 . S
C348 H354 0.930 . S
C349 N347 1.400 . S
C349 C350 1.351 . S
C349 H366 0.930 . S
C350 N346 1.389 . S
C350 C349 1.351 . S
C350 H355 0.930 . S
O351 Cu345 1.974 . S
O351 C361 1.282 . S
C352 O353 1.261 . S
C352 O365 1.251 . S
O353 C352 1.261 . S
H354 C348 0.930 . S
H355 C350 0.930 . S
N356 Cu345 1.985 . S
N356 C358 1.335 . S
N356 C359 1.390 . S
N357 C358 1.345 . S
N357 C360 1.336 . S
C358 N356 1.335 . S
C358 N357 1.345 . S
C358 H363 0.930 . S
C359 N356 1.390 . S
C359 C360 1.346 . S
C359 H364 0.930 . S
C360 N357 1.336 . S
C360 C359 1.346 . S
C360 H367 0.929 1_655 S
C361 O351 1.282 . S
C361 O362 1.216 . S
O362 C361 1.216 . S
H363 C358 0.930 . S
H364 C359 0.930 . S
O365 Cu345 1.959 . S
O365 C352 1.251 . S
H366 C349 0.930 . S
H367 C360 0.929 1_455 S
Cu368 N369 1.999 . S
Cu368 O374 1.974 . S
Cu368 N379 1.985 . S
Cu368 O388 1.959 . S
N369 Cu368 1.999 . S
N369 C371 1.263 . S
N369 C373 1.389 . S
N370 C371 1.358 . S
N370 C372 1.400 . S
C371 N369 1.263 . S
C371 N370 1.358 . S
C371 H377 0.930 . S
C372 N370 1.400 . S
C372 C373 1.351 . S
C372 H389 0.930 . S
C373 N369 1.389 . S
C373 C372 1.351 . S
C373 H378 0.930 . S
O374 Cu368 1.974 . S
O374 C384 1.282 . S
C375 O376 1.261 . S
C375 O388 1.251 . S
O376 C375 1.261 . S
H377 C371 0.930 . S
H378 C373 0.930 . S
N379 Cu368 1.985 . S
N379 C381 1.335 . S
N379 C382 1.390 . S
N380 C381 1.345 . S
N380 C383 1.336 . S
C381 N379 1.335 . S
C381 N380 1.345 . S
C381 H386 0.930 . S
C382 N379 1.390 . S
C382 C383 1.346 . S
C382 H387 0.930 . S
C383 N380 1.336 . S
C383 C382 1.346 . S
C383 H390 0.929 . S
C384 O374 1.282 . S
C384 O385 1.216 . S
O385 C384 1.216 . S
H386 C381 0.930 . S
H387 C382 0.930 . S
O388 Cu368 1.959 . S
O388 C375 1.251 . S
H389 C372 0.930 . S
H390 C383 0.929 . S
Cu391 N392 1.999 . S
Cu391 O397 1.974 . S
Cu391 N402 1.985 . S
Cu391 O411 1.959 . S
N392 Cu391 1.999 . S
N392 C394 1.263 . S
N392 C396 1.389 . S
N393 C394 1.358 . S
N393 C395 1.400 . S
C394 N392 1.263 . S
C394 N393 1.358 . S
C394 H400 0.930 . S
C395 N393 1.400 . S
C395 C396 1.351 . S
C395 H412 0.930 . S
C396 N392 1.389 . S
C396 C395 1.351 . S
C396 H401 0.930 . S
O397 Cu391 1.974 . S
O397 C407 1.282 . S
C398 O399 1.261 . S
C398 O411 1.251 . S
O399 C398 1.261 . S
H400 C394 0.930 . S
H401 C396 0.930 . S
N402 Cu391 1.985 . S
N402 C404 1.335 . S
N402 C405 1.390 . S
N403 C404 1.345 . S
N403 C406 1.336 . S
C404 N402 1.335 . S
C404 N403 1.345 . S
C404 H409 0.930 . S
C405 N402 1.390 . S
C405 C406 1.346 . S
C405 H410 0.930 . S
C406 N403 1.336 . S
C406 C405 1.346 . S
C406 H413 0.929 . S
C407 O397 1.282 . S
C407 O408 1.216 . S
O408 C407 1.216 . S
H409 C404 0.930 . S
H410 C405 0.930 . S
O411 Cu391 1.959 . S
O411 C398 1.251 . S
H412 C395 0.930 . S
H413 C406 0.929 . S
Cu414 N415 1.999 1_455 S
Cu414 O420 1.974 1_455 S
Cu414 N425 1.985 1_556 S
Cu414 O434 1.959 1_556 S
N415 Cu414 1.999 1_655 S
N415 C417 1.263 . S
N415 C419 1.389 . S
N416 C417 1.358 . S
N416 C418 1.400 . S
C417 N415 1.263 . S
C417 N416 1.358 . S
C417 H423 0.930 . S
C418 N416 1.400 . S
C418 C419 1.351 . S
C418 H435 0.930 . S
C419 N415 1.389 . S
C419 C418 1.351 . S
C419 H424 0.930 1_655 S
O420 Cu414 1.974 1_655 S
O420 C430 1.282 . S
C421 O422 1.261 1_455 S
C421 O434 1.251 . S
O422 C421 1.261 1_655 S
H423 C417 0.930 . S
H424 C419 0.930 1_455 S
N425 Cu414 1.985 1_554 S
N425 C427 1.335 . S
N425 C428 1.390 1_554 S
N426 C427 1.345 . S
N426 C429 1.336 . S
C427 N425 1.335 . S
C427 N426 1.345 . S
C427 H432 0.930 . S
C428 N425 1.390 1_556 S
C428 C429 1.346 1_556 S
C428 H433 0.930 . S
C429 N426 1.336 . S
C429 C428 1.346 1_554 S
C429 H436 0.929 . S
C430 O420 1.282 . S
C430 O431 1.216 . S
O431 C430 1.216 . S
H432 C427 0.930 . S
H433 C428 0.930 . S
O434 Cu414 1.959 1_554 S
O434 C421 1.251 . S
H435 C418 0.930 . S
H436 C429 0.929 . S
Cu437 N438 1.999 . S
Cu437 O443 1.974 . S
Cu437 N448 1.985 . S
Cu437 O457 1.959 . S
N438 Cu437 1.999 . S
N438 C440 1.263 . S
N438 C442 1.389 . S
N439 C440 1.358 . S
N439 C441 1.400 . S
C440 N438 1.263 . S
C440 N439 1.358 . S
C440 H446 0.930 . S
C441 N439 1.400 . S
C441 C442 1.351 . S
C441 H458 0.930 . S
C442 N438 1.389 . S
C442 C441 1.351 . S
C442 H447 0.930 . S
O443 Cu437 1.974 . S
O443 C453 1.282 . S
C444 O445 1.261 . S
C444 O457 1.251 . S
O445 C444 1.261 . S
H446 C440 0.930 . S
H447 C442 0.930 . S
N448 Cu437 1.985 . S
N448 C450 1.335 . S
N448 C451 1.390 . S
N449 C450 1.345 . S
N449 C452 1.336 . S
C450 N448 1.335 . S
C450 N449 1.345 . S
C450 H455 0.930 . S
C451 N448 1.390 . S
C451 C452 1.346 . S
C451 H456 0.930 . S
C452 N449 1.336 . S
C452 C451 1.346 . S
C452 H459 0.929 . S
C453 O443 1.282 . S
C453 O454 1.216 . S
O454 C453 1.216 . S
H455 C450 0.930 . S
H456 C451 0.930 . S
O457 Cu437 1.959 . S
O457 C444 1.251 . S
H458 C441 0.930 . S
H459 C452 0.929 . S
Cu460 N461 1.999 . S
Cu460 O466 1.974 . S
Cu460 N471 1.985 . S
Cu460 O480 1.959 . S
N461 Cu460 1.999 . S
N461 C463 1.263 . S
N461 C465 1.389 . S
N462 C463 1.358 . S
N462 C464 1.400 . S
C463 N461 1.263 . S
C463 N462 1.358 . S
C463 H469 0.930 . S
C464 N462 1.400 . S
C464 C465 1.351 . S
C464 H481 0.930 . S
C465 N461 1.389 . S
C465 C464 1.351 . S
C465 H470 0.930 . S
O466 Cu460 1.974 . S
O466 C476 1.282 . S
C467 O468 1.261 . S
C467 O480 1.251 . S
O468 C467 1.261 . S
H469 C463 0.930 . S
H470 C465 0.930 . S
N471 Cu460 1.985 . S
N471 C473 1.335 . S
N471 C474 1.390 . S
N472 C473 1.345 . S
N472 C475 1.336 . S
C473 N471 1.335 . S
C473 N472 1.345 . S
C473 H478 0.930 . S
C474 N471 1.390 . S
C474 C475 1.346 . S
C474 H479 0.930 . S
C475 N472 1.336 . S
C475 C474 1.346 . S
C475 H482 0.929 . S
C476 O466 1.282 . S
C476 O477 1.216 . S
O477 C476 1.216 . S
H478 C473 0.930 . S
H479 C474 0.930 . S
O480 Cu460 1.959 . S
O480 C467 1.251 . S
H481 C464 0.930 . S
H482 C475 0.929 . S
Cu483 N484 1.999 . S
Cu483 O489 1.974 . S
Cu483 N494 1.985 . S
Cu483 O503 1.959 . S
N484 Cu483 1.999 . S
N484 C486 1.263 . S
N484 C488 1.389 . S
N485 C486 1.358 . S
N485 C487 1.400 . S
C486 N484 1.263 . S
C486 N485 1.358 . S
C486 H492 0.930 . S
C487 N485 1.400 . S
C487 C488 1.351 . S
C487 H504 0.930 . S
C488 N484 1.389 . S
C488 C487 1.351 . S
C488 H493 0.930 . S
O489 Cu483 1.974 . S
O489 C499 1.282 . S
C490 O491 1.261 . S
C490 O503 1.251 . S
O491 C490 1.261 . S
H492 C486 0.930 . S
H493 C488 0.930 . S
N494 Cu483 1.985 . S
N494 C496 1.335 . S
N494 C497 1.390 . S
N495 C496 1.345 . S
N495 C498 1.336 . S
C496 N494 1.335 . S
C496 N495 1.345 . S
C496 H501 0.930 . S
C497 N494 1.390 . S
C497 C498 1.346 . S
C497 H502 0.930 . S
C498 N495 1.336 . S
C498 C497 1.346 . S
C498 H505 0.929 . S
C499 O489 1.282 . S
C499 O500 1.216 . S
O500 C499 1.216 . S
H501 C496 0.930 . S
H502 C497 0.930 . S
O503 Cu483 1.959 . S
O503 C490 1.251 . S
H504 C487 0.930 . S
H505 C498 0.929 . S
Cu506 N507 1.999 1_556 S
Cu506 O512 1.974 1_556 S
Cu506 N517 1.985 . S
Cu506 O526 1.959 . S
N507 Cu506 1.999 1_554 S
N507 C509 1.263 . S
N507 C511 1.389 . S
N508 C509 1.358 . S
N508 C510 1.400 . S
C509 N507 1.263 . S
C509 N508 1.358 . S
C509 H515 0.930 . S
C510 N508 1.400 . S
C510 C511 1.351 . S
C510 H527 0.930 . S
C511 N507 1.389 . S
C511 C510 1.351 . S
C511 H516 0.930 . S
O512 Cu506 1.974 1_554 S
O512 C522 1.282 . S
C513 O514 1.261 . S
C513 O526 1.251 . S
O514 C513 1.261 . S
H515 C509 0.930 . S
H516 C511 0.930 . S
N517 Cu506 1.985 . S
N517 C519 1.335 . S
N517 C520 1.390 . S
N518 C519 1.345 . S
N518 C521 1.336 . S
C519 N517 1.335 . S
C519 N518 1.345 . S
C519 H524 0.930 . S
C520 N517 1.390 . S
C520 C521 1.346 . S
C520 H525 0.930 . S
C521 N518 1.336 . S
C521 C520 1.346 . S
C521 H528 0.929 . S
C522 O512 1.282 . S
C522 O523 1.216 . S
O523 C522 1.216 . S
H524 C519 0.930 . S
H525 C520 0.930 . S
O526 Cu506 1.959 . S
O526 C513 1.251 . S
H527 C510 0.930 . S
H528 C521 0.929 . S
Cu529 N530 1.999 . S
Cu529 O535 1.974 . S
Cu529 N540 1.985 . S
Cu529 O549 1.959 . S
N530 Cu529 1.999 . S
N530 C532 1.263 . S
N530 C534 1.389 . S
N531 C532 1.358 . S
N531 C533 1.400 . S
C532 N530 1.263 . S
C532 N531 1.358 . S
C532 H538 0.930 . S
C533 N531 1.400 . S
C533 C534 1.351 . S
C533 H550 0.930 . S
C534 N530 1.389 . S
C534 C533 1.351 . S
C534 H539 0.930 . S
O535 Cu529 1.974 . S
O535 C545 1.282 . S
C536 O537 1.261 . S
C536 O549 1.251 . S
O537 C536 1.261 . S
H538 C532 0.930 . S
H539 C534 0.930 . S
N540 Cu529 1.985 . S
N540 C542 1.335 . S
N540 C543 1.390 . S
N541 C542 1.345 . S
N541 C544 1.336 . S
C542 N540 1.335 . S
C542 N541 1.345 . S
C542 H547 0.930 . S
C543 N540 1.390 . S
C543 C544 1.346 . S
C543 H548 0.930 . S
C544 N541 1.336 . S
C544 C543 1.346 . S
C544 H551 0.929 . S
C545 O535 1.282 . S
C545 O546 1.216 . S
O546 C545 1.216 . S
H547 C542 0.930 . S
H548 C543 0.930 . S
O549 Cu529 1.959 . S
O549 C536 1.251 . S
H550 C533 0.930 . S
H551 C544 0.929 . S
C552 C553 1.369 . S
C552 C554 1.419 . S
C552 H556 0.930 . S
C553 C552 1.369 . S
C553 C562 1.429 . S
C554 C552 1.419 . S
C554 C555 1.363 . S
C554 H557 0.929 . S
C555 C554 1.363 . S
C555 C561 1.428 . S
H556 C552 0.930 . S
H557 C554 0.929 . S
S558 N559 1.613 . S
S558 N560 1.610 . S
N559 S558 1.613 . S
N559 C562 1.350 . S
N560 S558 1.610 . S
N560 C561 1.351 . S
C561 C555 1.428 . S
C561 N560 1.351 . S
C561 C562 1.434 . S
C562 C553 1.429 . S
C562 N559 1.350 . S
C562 C561 1.434 . S
C563 C564 1.369 . S
C563 C565 1.419 . S
C563 H567 0.930 . S
C564 C563 1.369 . S
C564 C573 1.429 . S
C565 C563 1.419 . S
C565 C566 1.363 . S
C565 H568 0.929 . S
C566 C565 1.363 . S
C566 C572 1.428 . S
H567 C563 0.930 . S
H568 C565 0.929 . S
S569 N570 1.613 . S
S569 N571 1.610 . S
N570 S569 1.613 . S
N570 C573 1.350 . S
N571 S569 1.610 . S
N571 C572 1.351 . S
C572 C566 1.428 . S
C572 N571 1.351 . S
C572 C573 1.434 . S
C573 C564 1.429 . S
C573 N570 1.350 . S
C573 C572 1.434 . S
C574 C575 1.369 . S
C574 C576 1.419 . S
C574 H578 0.930 . S
C575 C574 1.369 . S
C575 C584 1.429 . S
C576 C574 1.419 . S
C576 C577 1.363 . S
C576 H579 0.929 . S
C577 C576 1.363 . S
C577 C583 1.428 . S
H578 C574 0.930 . S
H579 C576 0.929 . S
S580 N581 1.613 . S
S580 N582 1.610 . S
N581 S580 1.613 . S
N581 C584 1.350 . S
N582 S580 1.610 . S
N582 C583 1.351 . S
C583 C577 1.428 . S
C583 N582 1.351 . S
C583 C584 1.434 . S
C584 C575 1.429 . S
C584 N581 1.350 . S
C584 C583 1.434 . S
C585 C586 1.369 . S
C585 C587 1.419 . S
C585 H589 0.930 . S
C586 C585 1.369 . S
C586 C595 1.429 . S
C587 C585 1.419 . S
C587 C588 1.363 . S
C587 H590 0.929 . S
C588 C587 1.363 . S
C588 C594 1.428 . S
H589 C585 0.930 . S
H590 C587 0.929 . S
S591 N592 1.613 . S
S591 N593 1.610 . S
N592 S591 1.613 . S
N592 C595 1.350 . S
N593 S591 1.610 . S
N593 C594 1.351 . S
C594 C588 1.428 . S
C594 N593 1.351 . S
C594 C595 1.434 . S
C595 C586 1.429 . S
C595 N592 1.350 . S
C595 C594 1.434 . S
C596 C597 1.369 . S
C596 C598 1.419 . S
C596 H600 0.930 . S
C597 C596 1.369 . S
C597 C606 1.429 . S
C598 C596 1.419 . S
C598 C599 1.363 . S
C598 H601 0.929 . S
C599 C598 1.363 . S
C599 C605 1.428 . S
H600 C596 0.930 . S
H601 C598 0.929 . S
S602 N603 1.613 . S
S602 N604 1.610 . S
N603 S602 1.613 . S
N603 C606 1.350 . S
N604 S602 1.610 . S
N604 C605 1.351 . S
C605 C599 1.428 . S
C605 N604 1.351 . S
C605 C606 1.434 . S
C606 C597 1.429 . S
C606 N603 1.350 . S
C606 C605 1.434 . S
C607 C608 1.369 . S
C607 C609 1.419 . S
C607 H611 0.930 . S
C608 C607 1.369 . S
C608 C617 1.429 . S
C609 C607 1.419 . S
C609 C610 1.363 . S
C609 H612 0.929 . S
C610 C609 1.363 . S
C610 C616 1.428 . S
H611 C607 0.930 . S
H612 C609 0.929 . S
S613 N614 1.613 . S
S613 N615 1.610 . S
N614 S613 1.613 . S
N614 C617 1.350 . S
N615 S613 1.610 . S
N615 C616 1.351 . S
C616 C610 1.428 . S
C616 N615 1.351 . S
C616 C617 1.434 . S
C617 C608 1.429 . S
C617 N614 1.350 . S
C617 C616 1.434 . S
C618 C619 1.369 . S
C618 C620 1.419 . S
C618 H622 0.930 . S
C619 C618 1.369 . S
C619 C628 1.429 . S
C620 C618 1.419 . S
C620 C621 1.363 . S
C620 H623 0.929 . S
C621 C620 1.363 . S
C621 C627 1.428 . S
H622 C618 0.930 . S
H623 C620 0.929 . S
S624 N625 1.613 . S
S624 N626 1.610 . S
N625 S624 1.613 . S
N625 C628 1.350 . S
N626 S624 1.610 . S
N626 C627 1.351 . S
C627 C621 1.428 . S
C627 N626 1.351 . S
C627 C628 1.434 . S
C628 C619 1.429 . S
C628 N625 1.350 . S
C628 C627 1.434 . S
C629 C630 1.369 . S
C629 C631 1.419 . S
C629 H633 0.930 . S
C630 C629 1.369 . S
C630 C639 1.429 . S
C631 C629 1.419 . S
C631 C632 1.363 . S
C631 H634 0.929 . S
C632 C631 1.363 . S
C632 C638 1.428 . S
H633 C629 0.930 . S
H634 C631 0.929 . S
S635 N636 1.613 . S
S635 N637 1.610 . S
N636 S635 1.613 . S
N636 C639 1.350 . S
N637 S635 1.610 . S
N637 C638 1.351 . S
C638 C632 1.428 . S
C638 N637 1.351 . S
C638 C639 1.434 . S
C639 C630 1.429 . S
C639 N636 1.350 . S
C639 C638 1.434 . S
C640 C641 1.369 . S
C640 C642 1.419 . S
C640 H644 0.930 . S
C641 C640 1.369 . S
C641 C650 1.429 . S
C642 C640 1.419 . S
C642 C643 1.363 . S
C642 H645 0.929 . S
C643 C642 1.363 . S
C643 C649 1.428 . S
H644 C640 0.930 . S
H645 C642 0.929 . S
S646 N647 1.613 . S
S646 N648 1.610 . S
N647 S646 1.613 . S
N647 C650 1.350 . S
N648 S646 1.610 . S
N648 C649 1.351 . S
C649 C643 1.428 . S
C649 N648 1.351 . S
C649 C650 1.434 . S
C650 C641 1.429 . S
C650 N647 1.350 . S
C650 C649 1.434 . S
C651 C652 1.369 . S
C651 C653 1.419 . S
C651 H655 0.930 . S
C652 C651 1.369 . S
C652 C661 1.429 . S
C653 C651 1.419 . S
C653 C654 1.363 . S
C653 H656 0.929 . S
C654 C653 1.363 . S
C654 C660 1.428 . S
H655 C651 0.930 . S
H656 C653 0.929 . S
S657 N658 1.613 . S
S657 N659 1.610 . S
N658 S657 1.613 . S
N658 C661 1.350 . S
N659 S657 1.610 . S
N659 C660 1.351 . S
C660 C654 1.428 . S
C660 N659 1.351 . S
C660 C661 1.434 . S
C661 C652 1.429 . S
C661 N658 1.350 . S
C661 C660 1.434 . S
C662 C663 1.369 . S
C662 C664 1.419 . S
C662 H666 0.930 1_565 S
C663 C662 1.369 . S
C663 C672 1.429 . S
C664 C662 1.419 . S
C664 C665 1.363 . S
C664 H667 0.929 . S
C665 C664 1.363 . S
C665 C671 1.428 . S
H666 C662 0.930 1_545 S
H667 C664 0.929 . S
S668 N669 1.613 . S
S668 N670 1.610 . S
N669 S668 1.613 . S
N669 C672 1.350 . S
N670 S668 1.610 . S
N670 C671 1.351 . S
C671 C665 1.428 . S
C671 N670 1.351 . S
C671 C672 1.434 . S
C672 C663 1.429 . S
C672 N669 1.350 . S
C672 C671 1.434 . S
C673 C674 1.369 . S
C673 C675 1.419 . S
C673 H677 0.930 . S
C674 C673 1.369 . S
C674 C683 1.429 . S
C675 C673 1.419 . S
C675 C676 1.363 . S
C675 H678 0.929 . S
C676 C675 1.363 . S
C676 C682 1.428 . S
H677 C673 0.930 . S
H678 C675 0.929 . S
S679 N680 1.613 . S
S679 N681 1.610 . S
N680 S679 1.613 . S
N680 C683 1.350 . S
N681 S679 1.610 . S
N681 C682 1.351 . S
C682 C676 1.428 . S
C682 N681 1.351 . S
C682 C683 1.434 . S
C683 C674 1.429 . S
C683 N680 1.350 . S
C683 C682 1.434 . S
C684 C685 1.369 . S
C684 C686 1.419 . S
C684 H688 0.930 . S
C685 C684 1.369 . S
C685 C694 1.429 . S
C686 C684 1.419 . S
C686 C687 1.363 . S
C686 H689 0.929 . S
C687 C686 1.363 . S
C687 C693 1.428 . S
H688 C684 0.930 . S
H689 C686 0.929 . S
S690 N691 1.613 . S
S690 N692 1.610 . S
N691 S690 1.613 . S
N691 C694 1.350 . S
N692 S690 1.610 . S
N692 C693 1.351 . S
C693 C687 1.428 . S
C693 N692 1.351 . S
C693 C694 1.434 . S
C694 C685 1.429 . S
C694 N691 1.350 . S
C694 C693 1.434 . S
C695 C696 1.369 . S
C695 C697 1.419 . S
C695 H699 0.930 . S
C696 C695 1.369 . S
C696 C705 1.429 . S
C697 C695 1.419 . S
C697 C698 1.363 . S
C697 H700 0.929 . S
C698 C697 1.363 . S
C698 C704 1.428 . S
H699 C695 0.930 . S
H700 C697 0.929 . S
S701 N702 1.613 . S
S701 N703 1.610 . S
N702 S701 1.613 . S
N702 C705 1.350 . S
N703 S701 1.610 . S
N703 C704 1.351 . S
C704 C698 1.428 . S
C704 N703 1.351 . S
C704 C705 1.434 . S
C705 C696 1.429 . S
C705 N702 1.350 . S
C705 C704 1.434 . S
C706 C707 1.369 . S
C706 C708 1.419 . S
C706 H710 0.930 . S
C707 C706 1.369 . S
C707 C716 1.429 . S
C708 C706 1.419 . S
C708 C709 1.363 . S
C708 H711 0.929 . S
C709 C708 1.363 . S
C709 C715 1.428 . S
H710 C706 0.930 . S
H711 C708 0.929 . S
S712 N713 1.613 . S
S712 N714 1.610 . S
N713 S712 1.613 . S
N713 C716 1.350 . S
N714 S712 1.610 . S
N714 C715 1.351 . S
C715 C709 1.428 . S
C715 N714 1.351 . S
C715 C716 1.434 . S
C716 C707 1.429 . S
C716 N713 1.350 . S
C716 C715 1.434 . S
C717 C718 1.369 . S
C717 C719 1.419 . S
C717 H721 0.930 . S
C718 C717 1.369 . S
C718 C727 1.429 . S
C719 C717 1.419 . S
C719 C720 1.363 . S
C719 H722 0.929 . S
C720 C719 1.363 . S
C720 C726 1.428 . S
H721 C717 0.930 . S
H722 C719 0.929 . S
S723 N724 1.613 . S
S723 N725 1.610 . S
N724 S723 1.613 . S
N724 C727 1.350 . S
N725 S723 1.610 . S
N725 C726 1.351 . S
C726 C720 1.428 . S
C726 N725 1.351 . S
C726 C727 1.434 . S
C727 C718 1.429 . S
C727 N724 1.350 . S
C727 C726 1.434 . S
C728 C729 1.369 . S
C728 C730 1.419 . S
C728 H732 0.930 . S
C729 C728 1.369 . S
C729 C738 1.429 . S
C730 C728 1.419 . S
C730 C731 1.363 . S
C730 H733 0.929 . S
C731 C730 1.363 . S
C731 C737 1.428 . S
H732 C728 0.930 . S
H733 C730 0.929 . S
S734 N735 1.613 . S
S734 N736 1.610 . S
N735 S734 1.613 . S
N735 C738 1.350 . S
N736 S734 1.610 . S
N736 C737 1.351 . S
C737 C731 1.428 . S
C737 N736 1.351 . S
C737 C738 1.434 . S
C738 C729 1.429 . S
C738 N735 1.350 . S
C738 C737 1.434 . S
C739 C740 1.369 . S
C739 C741 1.419 . S
C739 H743 0.930 . S
C740 C739 1.369 . S
C740 C749 1.429 . S
C741 C739 1.419 . S
C741 C742 1.363 . S
C741 H744 0.929 . S
C742 C741 1.363 . S
C742 C748 1.428 . S
H743 C739 0.930 . S
H744 C741 0.929 . S
S745 N746 1.613 . S
S745 N747 1.610 . S
N746 S745 1.613 . S
N746 C749 1.350 . S
N747 S745 1.610 . S
N747 C748 1.351 . S
C748 C742 1.428 . S
C748 N747 1.351 . S
C748 C749 1.434 . S
C749 C740 1.429 . S
C749 N746 1.350 . S
C749 C748 1.434 . S
C750 C751 1.369 . S
C750 C752 1.419 . S
C750 H754 0.930 . S
C751 C750 1.369 . S
C751 C760 1.429 . S
C752 C750 1.419 . S
C752 C753 1.363 . S
C752 H755 0.929 . S
C753 C752 1.363 . S
C753 C759 1.428 . S
H754 C750 0.930 . S
H755 C752 0.929 . S
S756 N757 1.613 . S
S756 N758 1.610 . S
N757 S756 1.613 . S
N757 C760 1.350 . S
N758 S756 1.610 . S
N758 C759 1.351 . S
C759 C753 1.428 . S
C759 N758 1.351 . S
C759 C760 1.434 . S
C760 C751 1.429 . S
C760 N757 1.350 . S
C760 C759 1.434 . S
C761 C762 1.369 . S
C761 C763 1.419 . S
C761 H765 0.930 1_455 S
C762 C761 1.369 . S
C762 C771 1.429 . S
C763 C761 1.419 . S
C763 C764 1.363 . S
C763 H766 0.929 1_455 S
C764 C763 1.363 . S
C764 C770 1.428 . S
H765 C761 0.930 1_655 S
H766 C763 0.929 1_655 S
S767 N768 1.613 . S
S767 N769 1.610 . S
N768 S767 1.613 . S
N768 C771 1.350 . S
N769 S767 1.610 . S
N769 C770 1.351 . S
C770 C764 1.428 . S
C770 N769 1.351 . S
C770 C771 1.434 . S
C771 C762 1.429 . S
C771 N768 1.350 . S
C771 C770 1.434 . S
C772 C773 1.369 . S
C772 C774 1.419 . S
C772 H776 0.930 . S
C773 C772 1.369 . S
C773 C782 1.429 . S
C774 C772 1.419 . S
C774 C775 1.363 . S
C774 H777 0.929 . S
C775 C774 1.363 . S
C775 C781 1.428 . S
H776 C772 0.930 . S
H777 C774 0.929 . S
S778 N779 1.613 . S
S778 N780 1.610 . S
N779 S778 1.613 . S
N779 C782 1.350 . S
N780 S778 1.610 . S
N780 C781 1.351 . S
C781 C775 1.428 . S
C781 N780 1.351 . S
C781 C782 1.434 . S
C782 C773 1.429 . S
C782 N779 1.350 . S
C782 C781 1.434 . S
C783 C784 1.369 . S
C783 C785 1.419 . S
C783 H787 0.930 . S
C784 C783 1.369 . S
C784 C793 1.429 . S
C785 C783 1.419 . S
C785 C786 1.363 . S
C785 H788 0.929 . S
C786 C785 1.363 . S
C786 C792 1.428 . S
H787 C783 0.930 . S
H788 C785 0.929 . S
S789 N790 1.613 . S
S789 N791 1.610 . S
N790 S789 1.613 . S
N790 C793 1.350 . S
N791 S789 1.610 . S
N791 C792 1.351 . S
C792 C786 1.428 . S
C792 N791 1.351 . S
C792 C793 1.434 . S
C793 C784 1.429 . S
C793 N790 1.350 . S
C793 C792 1.434 . S
C794 C795 1.369 . S
C794 C796 1.419 . S
C794 H798 0.930 . S
C795 C794 1.369 . S
C795 C804 1.429 . S
C796 C794 1.419 . S
C796 C797 1.363 . S
C796 H799 0.929 . S
C797 C796 1.363 . S
C797 C803 1.428 . S
H798 C794 0.930 . S
H799 C796 0.929 . S
S800 N801 1.613 . S
S800 N802 1.610 . S
N801 S800 1.613 . S
N801 C804 1.350 . S
N802 S800 1.610 . S
N802 C803 1.351 . S
C803 C797 1.428 . S
C803 N802 1.351 . S
C803 C804 1.434 . S
C804 C795 1.429 . S
C804 N801 1.350 . S
C804 C803 1.434 . S
C805 C806 1.369 . S
C805 C807 1.419 . S
C805 H809 0.930 . S
C806 C805 1.369 . S
C806 C815 1.429 . S
C807 C805 1.419 . S
C807 C808 1.363 . S
C807 H810 0.929 . S
C808 C807 1.363 . S
C808 C814 1.428 . S
H809 C805 0.930 . S
H810 C807 0.929 . S
S811 N812 1.613 . S
S811 N813 1.610 . S
N812 S811 1.613 . S
N812 C815 1.350 . S
N813 S811 1.610 . S
N813 C814 1.351 . S
C814 C808 1.428 . S
C814 N813 1.351 . S
C814 C815 1.434 . S
C815 C806 1.429 . S
C815 N812 1.350 . S
C815 C814 1.434 . S
C816 C817 1.369 . S
C816 C818 1.419 . S
C816 H820 0.930 . S
C817 C816 1.369 . S
C817 C826 1.429 . S
C818 C816 1.419 . S
C818 C819 1.363 . S
C818 H821 0.929 . S
C819 C818 1.363 . S
C819 C825 1.428 . S
H820 C816 0.930 . S
H821 C818 0.929 . S
S822 N823 1.613 . S
S822 N824 1.610 . S
N823 S822 1.613 . S
N823 C826 1.350 . S
N824 S822 1.610 . S
N824 C825 1.351 . S
C825 C819 1.428 . S
C825 N824 1.351 . S
C825 C826 1.434 . S
C826 C817 1.429 . S
C826 N823 1.350 . S
C826 C825 1.434 . S
C827 C828 1.369 . S
C827 C829 1.419 . S
C827 H831 0.930 . S
C828 C827 1.369 . S
C828 C837 1.429 . S
C829 C827 1.419 . S
C829 C830 1.363 . S
C829 H832 0.929 . S
C830 C829 1.363 . S
C830 C836 1.428 . S
H831 C827 0.930 . S
H832 C829 0.929 . S
S833 N834 1.613 . S
S833 N835 1.610 . S
N834 S833 1.613 . S
N834 C837 1.350 . S
N835 S833 1.610 . S
N835 C836 1.351 . S
C836 C830 1.428 . S
C836 N835 1.351 . S
C836 C837 1.434 . S
C837 C828 1.429 . S
C837 N834 1.350 . S
C837 C836 1.434 . S
C838 C839 1.369 . S
C838 C840 1.419 . S
C838 H842 0.930 . S
C839 C838 1.369 . S
C839 C848 1.429 . S
C840 C838 1.419 . S
C840 C841 1.363 . S
C840 H843 0.929 . S
C841 C840 1.363 . S
C841 C847 1.428 . S
H842 C838 0.930 . S
H843 C840 0.929 . S
S844 N845 1.613 . S
S844 N846 1.610 . S
N845 S844 1.613 . S
N845 C848 1.350 . S
N846 S844 1.610 . S
N846 C847 1.351 . S
C847 C841 1.428 . S
C847 N846 1.351 . S
C847 C848 1.434 . S
C848 C839 1.429 . S
C848 N845 1.350 . S
C848 C847 1.434 . S
C849 C850 1.369 . S
C849 C851 1.419 . S
C849 H853 0.930 . S
C850 C849 1.369 . S
C850 C859 1.429 . S
C851 C849 1.419 . S
C851 C852 1.363 . S
C851 H854 0.929 . S
C852 C851 1.363 . S
C852 C858 1.428 . S
H853 C849 0.930 . S
H854 C851 0.929 . S
S855 N856 1.613 . S
S855 N857 1.610 . S
N856 S855 1.613 . S
N856 C859 1.350 . S
N857 S855 1.610 . S
N857 C858 1.351 . S
C858 C852 1.428 . S
C858 N857 1.351 . S
C858 C859 1.434 . S
C859 C850 1.429 . S
C859 N856 1.350 . S
C859 C858 1.434 . S
C860 C861 1.369 . S
C860 C862 1.419 . S
C860 H864 0.930 . S
C861 C860 1.369 . S
C861 C870 1.429 . S
C862 C860 1.419 . S
C862 C863 1.363 . S
C862 H865 0.929 . S
C863 C862 1.363 . S
C863 C869 1.428 . S
H864 C860 0.930 . S
H865 C862 0.929 . S
S866 N867 1.613 . S
S866 N868 1.610 . S
N867 S866 1.613 . S
N867 C870 1.350 . S
N868 S866 1.610 . S
N868 C869 1.351 . S
C869 C863 1.428 . S
C869 N868 1.351 . S
C869 C870 1.434 . S
C870 C861 1.429 . S
C870 N867 1.350 . S
C870 C869 1.434 . S
C871 C872 1.369 . S
C871 C873 1.419 . S
C871 H875 0.930 . S
C872 C871 1.369 . S
C872 C881 1.429 . S
C873 C871 1.419 . S
C873 C874 1.363 . S
C873 H876 0.929 . S
C874 C873 1.363 . S
C874 C880 1.428 . S
H875 C871 0.930 . S
H876 C873 0.929 . S
S877 N878 1.613 . S
S877 N879 1.610 . S
N878 S877 1.613 . S
N878 C881 1.350 . S
N879 S877 1.610 . S
N879 C880 1.351 . S
C880 C874 1.428 . S
C880 N879 1.351 . S
C880 C881 1.434 . S
C881 C872 1.429 . S
C881 N878 1.350 . S
C881 C880 1.434 . S
C882 C883 1.369 . S
C882 C884 1.419 . S
C882 H886 0.930 . S
C883 C882 1.369 . S
C883 C892 1.429 . S
C884 C882 1.419 . S
C884 C885 1.363 . S
C884 H887 0.929 . S
C885 C884 1.363 . S
C885 C891 1.428 1_565 S
H886 C882 0.930 . S
H887 C884 0.929 . S
S888 N889 1.613 . S
S888 N890 1.610 . S
N889 S888 1.613 . S
N889 C892 1.350 1_545 S
N890 S888 1.610 . S
N890 C891 1.351 . S
C891 C885 1.428 1_545 S
C891 N890 1.351 . S
C891 C892 1.434 1_545 S
C892 C883 1.429 . S
C892 N889 1.350 1_565 S
C892 C891 1.434 1_565 S
C893 C894 1.369 . S
C893 C895 1.419 . S
C893 H897 0.930 . S
C894 C893 1.369 . S
C894 C903 1.429 . S
C895 C893 1.419 . S
C895 C896 1.363 . S
C895 H898 0.929 . S
C896 C895 1.363 . S
C896 C902 1.428 . S
H897 C893 0.930 . S
H898 C895 0.929 . S
S899 N900 1.613 . S
S899 N901 1.610 . S
N900 S899 1.613 . S
N900 C903 1.350 . S
N901 S899 1.610 . S
N901 C902 1.351 . S
C902 C896 1.428 . S
C902 N901 1.351 . S
C902 C903 1.434 . S
C903 C894 1.429 . S
C903 N900 1.350 . S
C903 C902 1.434 . S
C904 C905 1.369 . S
C904 C906 1.419 . S
C904 H908 0.930 . S
C905 C904 1.369 . S
C905 C914 1.429 . S
C906 C904 1.419 . S
C906 C907 1.363 . S
C906 H909 0.929 . S
C907 C906 1.363 . S
C907 C913 1.428 . S
H908 C904 0.930 . S
H909 C906 0.929 . S
S910 N911 1.613 . S
S910 N912 1.610 . S
N911 S910 1.613 . S
N911 C914 1.350 . S
N912 S910 1.610 . S
N912 C913 1.351 . S
C913 C907 1.428 . S
C913 N912 1.351 . S
C913 C914 1.434 . S
C914 C905 1.429 . S
C914 N911 1.350 . S
C914 C913 1.434 . S
C915 C916 1.369 . S
C915 C917 1.419 . S
C915 H919 0.930 . S
C916 C915 1.369 . S
C916 C925 1.429 . S
C917 C915 1.419 . S
C917 C918 1.363 . S
C917 H920 0.929 . S
C918 C917 1.363 . S
C918 C924 1.428 . S
H919 C915 0.930 . S
H920 C917 0.929 . S
S921 N922 1.613 . S
S921 N923 1.610 . S
N922 S921 1.613 . S
N922 C925 1.350 . S
N923 S921 1.610 . S
N923 C924 1.351 . S
C924 C918 1.428 . S
C924 N923 1.351 . S
C924 C925 1.434 . S
C925 C916 1.429 . S
C925 N922 1.350 . S
C925 C924 1.434 . S
C926 C927 1.369 . S
C926 C928 1.419 . S
C926 H930 0.930 . S
C927 C926 1.369 . S
C927 C936 1.429 . S
C928 C926 1.419 . S
C928 C929 1.363 . S
C928 H931 0.929 . S
C929 C928 1.363 . S
C929 C935 1.428 . S
H930 C926 0.930 . S
H931 C928 0.929 . S
S932 N933 1.613 . S
S932 N934 1.610 . S
N933 S932 1.613 . S
N933 C936 1.350 1_655 S
N934 S932 1.610 . S
N934 C935 1.351 1_655 S
C935 C929 1.428 . S
C935 N934 1.351 1_455 S
C935 C936 1.434 . S
C936 C927 1.429 . S
C936 N933 1.350 1_455 S
C936 C935 1.434 . S
C937 C938 1.369 . S
C937 C939 1.419 . S
C937 H941 0.930 . S
C938 C937 1.369 . S
C938 C947 1.429 . S
C939 C937 1.419 . S
C939 C940 1.363 . S
C939 H942 0.929 . S
C940 C939 1.363 . S
C940 C946 1.428 . S
H941 C937 0.930 . S
H942 C939 0.929 . S
S943 N944 1.613 . S
S943 N945 1.610 . S
N944 S943 1.613 . S
N944 C947 1.350 . S
N945 S943 1.610 . S
N945 C946 1.351 . S
C946 C940 1.428 . S
C946 N945 1.351 . S
C946 C947 1.434 . S
C947 C938 1.429 . S
C947 N944 1.350 . S
C947 C946 1.434 . S
C948 C949 1.369 . S
C948 C950 1.419 . S
C948 H952 0.930 . S
C949 C948 1.369 . S
C949 C958 1.429 . S
C950 C948 1.419 . S
C950 C951 1.363 . S
C950 H953 0.929 . S
C951 C950 1.363 . S
C951 C957 1.428 . S
H952 C948 0.930 . S
H953 C950 0.929 . S
S954 N955 1.613 . S
S954 N956 1.610 . S
N955 S954 1.613 . S
N955 C958 1.350 . S
N956 S954 1.610 . S
N956 C957 1.351 . S
C957 C951 1.428 . S
C957 N956 1.351 . S
C957 C958 1.434 . S
C958 C949 1.429 . S
C958 N955 1.350 . S
C958 C957 1.434 . S
C959 C960 1.369 . S
C959 C961 1.419 . S
C959 H963 0.930 . S
C960 C959 1.369 . S
C960 C969 1.429 . S
C961 C959 1.419 . S
C961 C962 1.363 . S
C961 H964 0.929 1_655 S
C962 C961 1.363 . S
C962 C968 1.428 . S
H963 C959 0.930 . S
H964 C961 0.929 1_455 S
S965 N966 1.613 . S
S965 N967 1.610 . S
N966 S965 1.613 . S
N966 C969 1.350 . S
N967 S965 1.610 . S
N967 C968 1.351 . S
C968 C962 1.428 . S
C968 N967 1.351 . S
C968 C969 1.434 . S
C969 C960 1.429 . S
C969 N966 1.350 . S
C969 C968 1.434 . S
C970 C971 1.369 . S
C970 C972 1.419 . S
C970 H974 0.930 . S
C971 C970 1.369 . S
C971 C980 1.429 . S
C972 C970 1.419 . S
C972 C973 1.363 . S
C972 H975 0.929 . S
C973 C972 1.363 . S
C973 C979 1.428 . S
H974 C970 0.930 . S
H975 C972 0.929 . S
S976 N977 1.613 . S
S976 N978 1.610 . S
N977 S976 1.613 . S
N977 C980 1.350 . S
N978 S976 1.610 . S
N978 C979 1.351 . S
C979 C973 1.428 . S
C979 N978 1.351 . S
C979 C980 1.434 . S
C980 C971 1.429 . S
C980 N977 1.350 . S
C980 C979 1.434 . S
C981 C982 1.369 . S
C981 C983 1.419 . S
C981 H985 0.930 . S
C982 C981 1.369 . S
C982 C991 1.429 . S
C983 C981 1.419 . S
C983 C984 1.363 . S
C983 H986 0.929 . S
C984 C983 1.363 . S
C984 C990 1.428 . S
H985 C981 0.930 . S
H986 C983 0.929 . S
S987 N988 1.613 . S
S987 N989 1.610 . S
N988 S987 1.613 . S
N988 C991 1.350 . S
N989 S987 1.610 . S
N989 C990 1.351 . S
C990 C984 1.428 . S
C990 N989 1.351 . S
C990 C991 1.434 . S
C991 C982 1.429 . S
C991 N988 1.350 . S
C991 C990 1.434 . S
C992 C993 1.369 . S
C992 C994 1.419 . S
C992 H996 0.930 . S
C993 C992 1.369 . S
C993 C1002 1.429 . S
C994 C992 1.419 . S
C994 C995 1.363 . S
C994 H997 0.929 . S
C995 C994 1.363 . S
C995 C1001 1.428 . S
H996 C992 0.930 . S
H997 C994 0.929 . S
S998 N999 1.613 1_554 S
S998 N1000 1.610 1_554 S
N999 S998 1.613 1_556 S
N999 C1002 1.350 . S
N1000 S998 1.610 1_556 S
N1000 C1001 1.351 . S
C1001 C995 1.428 . S
C1001 N1000 1.351 . S
C1001 C1002 1.434 . S
C1002 C993 1.429 . S
C1002 N999 1.350 . S
C1002 C1001 1.434 . S
C1003 C1004 1.369 . S
C1003 C1005 1.419 . S
C1003 H1007 0.930 . S
C1004 C1003 1.369 . S
C1004 C1013 1.429 . S
C1005 C1003 1.419 . S
C1005 C1006 1.363 . S
C1005 H1008 0.929 . S
C1006 C1005 1.363 . S
C1006 C1012 1.428 . S
H1007 C1003 0.930 . S
H1008 C1005 0.929 . S
S1009 N1010 1.613 . S
S1009 N1011 1.610 . S
N1010 S1009 1.613 . S
N1010 C1013 1.350 . S
N1011 S1009 1.610 . S
N1011 C1012 1.351 . S
C1012 C1006 1.428 . S
C1012 N1011 1.351 . S
C1012 C1013 1.434 . S
C1013 C1004 1.429 . S
C1013 N1010 1.350 . S
C1013 C1012 1.434 . S
C1014 C1015 1.369 . S
C1014 C1016 1.419 . S
C1014 H1018 0.930 . S
C1015 C1014 1.369 . S
C1015 C1024 1.429 . S
C1016 C1014 1.419 . S
C1016 C1017 1.363 . S
C1016 H1019 0.929 . S
C1017 C1016 1.363 . S
C1017 C1023 1.428 . S
H1018 C1014 0.930 . S
H1019 C1016 0.929 . S
S1020 N1021 1.613 . S
S1020 N1022 1.610 . S
N1021 S1020 1.613 . S
N1021 C1024 1.350 . S
N1022 S1020 1.610 . S
N1022 C1023 1.351 . S
C1023 C1017 1.428 . S
C1023 N1022 1.351 . S
C1023 C1024 1.434 . S
C1024 C1015 1.429 . S
C1024 N1021 1.350 . S
C1024 C1023 1.434 . S
C1025 C1026 1.369 . S
C1025 C1027 1.419 . S
C1025 H1029 0.930 . S
C1026 C1025 1.369 . S
C1026 C1035 1.429 . S
C1027 C1025 1.419 . S
C1027 C1028 1.363 . S
C1027 H1030 0.929 . S
C1028 C1027 1.363 . S
C1028 C1034 1.428 . S
H1029 C1025 0.930 . S
H1030 C1027 0.929 . S
S1031 N1032 1.613 . S
S1031 N1033 1.610 . S
N1032 S1031 1.613 . S
N1032 C1035 1.350 . S
N1033 S1031 1.610 . S
N1033 C1034 1.351 . S
C1034 C1028 1.428 . S
C1034 N1033 1.351 . S
C1034 C1035 1.434 . S
C1035 C1026 1.429 . S
C1035 N1032 1.350 . S
C1035 C1034 1.434 . S
C1036 C1037 1.369 . S
C1036 C1038 1.419 . S
C1036 H1040 0.930 . S
C1037 C1036 1.369 . S
C1037 C1046 1.429 . S
C1038 C1036 1.419 . S
C1038 C1039 1.363 . S
C1038 H1041 0.929 . S
C1039 C1038 1.363 . S
C1039 C1045 1.428 . S
H1040 C1036 0.930 . S
H1041 C1038 0.929 . S
S1042 N1043 1.613 . S
S1042 N1044 1.610 . S
N1043 S1042 1.613 . S
N1043 C1046 1.350 . S
N1044 S1042 1.610 . S
N1044 C1045 1.351 . S
C1045 C1039 1.428 . S
C1045 N1044 1.351 . S
C1045 C1046 1.434 . S
C1046 C1037 1.429 . S
C1046 N1043 1.350 . S
C1046 C1045 1.434 . S
C1047 C1048 1.369 . S
C1047 C1049 1.419 . S
C1047 H1051 0.930 . S
C1048 C1047 1.369 . S
C1048 C1057 1.429 . S
C1049 C1047 1.419 . S
C1049 C1050 1.363 . S
C1049 H1052 0.929 . S
C1050 C1049 1.363 . S
C1050 C1056 1.428 . S
H1051 C1047 0.930 . S
H1052 C1049 0.929 . S
S1053 N1054 1.613 . S
S1053 N1055 1.610 . S
N1054 S1053 1.613 . S
N1054 C1057 1.350 . S
N1055 S1053 1.610 . S
N1055 C1056 1.351 . S
C1056 C1050 1.428 . S
C1056 N1055 1.351 . S
C1056 C1057 1.434 . S
C1057 C1048 1.429 . S
C1057 N1054 1.350 . S
C1057 C1056 1.434 . S
C1058 C1059 1.369 . S
C1058 C1060 1.419 . S
C1058 H1062 0.930 . S
C1059 C1058 1.369 . S
C1059 C1068 1.429 . S
C1060 C1058 1.419 . S
C1060 C1061 1.363 . S
C1060 H1063 0.929 . S
C1061 C1060 1.363 . S
C1061 C1067 1.428 . S
H1062 C1058 0.930 . S
H1063 C1060 0.929 . S
S1064 N1065 1.613 . S
S1064 N1066 1.610 . S
N1065 S1064 1.613 . S
N1065 C1068 1.350 . S
N1066 S1064 1.610 . S
N1066 C1067 1.351 . S
C1067 C1061 1.428 . S
C1067 N1066 1.351 . S
C1067 C1068 1.434 . S
C1068 C1059 1.429 . S
C1068 N1065 1.350 . S
C1068 C1067 1.434 . S
C1069 C1070 1.369 . S
C1069 C1071 1.419 . S
C1069 H1073 0.930 . S
C1070 C1069 1.369 . S
C1070 C1079 1.429 . S
C1071 C1069 1.419 . S
C1071 C1072 1.363 . S
C1071 H1074 0.929 . S
C1072 C1071 1.363 . S
C1072 C1078 1.428 . S
H1073 C1069 0.930 . S
H1074 C1071 0.929 . S
S1075 N1076 1.613 . S
S1075 N1077 1.610 . S
N1076 S1075 1.613 . S
N1076 C1079 1.350 . S
N1077 S1075 1.610 . S
N1077 C1078 1.351 . S
C1078 C1072 1.428 . S
C1078 N1077 1.351 . S
C1078 C1079 1.434 . S
C1079 C1070 1.429 . S
C1079 N1076 1.350 . S
C1079 C1078 1.434 . S
C553 C168 1.861 . S
C555 C7 1.815 . S
C564 N25 1.235 . S
C566 C99 1.342 . S
C575 C122 1.793 . S
C577 C53 1.759 . S
C586 N71 1.339 . S
C588 C145 1.453 . S
C597 N186 1.030 . S
C599 N2 1.166 . S
C608 C30 1.531 . S
C610 C214 1.510 . S
C619 N232 1.071 . S
C621 N48 1.206 . S
C630 C260 1.443 . S
C632 C76 1.438 . S
C641 N94 0.752 . S
C643 N209 0.772 . S
C652 N117 1.346 . S
C654 C237 1.517 . S
C663 N255 0.757 . S
C665 N140 0.762 . S
C674 C191 1.577 . S
C676 N163 1.415 . S
C685 C490 1.882 . S
C687 C283 1.880 . S
C696 N301 0.924 . S
C698 N508 0.875 . S
C707 C329 1.847 . S
C709 C536 1.828 . S
C718 N531 0.964 . S
C720 N347 0.964 . S
C729 N370 0.949 . S
C731 N485 0.964 . S
C740 C444 1.607 . S
C742 C398 1.571 . S
C751 N278 1.414 . S
C753 C375 1.505 . S
C762 C306 1.492 . S
C764 C421 1.526 . S
C773 N324 1.483 . S
C775 C352 1.570 . S
C784 N393 1.012 . S
C786 N462 0.952 . S
C795 N416 1.164 . S
C797 C513 1.236 . S
C806 C467 1.273 . S
C808 N439 1.203 . S
C817 C108 2.522 . S
C819 C16 2.366 . S
C828 C131 1.899 . S
C830 N35 1.895 . S
C839 C154 2.669 . S
C841 C62 2.526 . S
C850 C177 2.169 . S
C852 N81 2.173 . S
C861 N196 2.286 . S
C863 N265 2.417 . S
C872 C223 2.113 . S
C874 C200 2.223 . S
C883 N242 2.129 . S
C885 N219 2.289 . S
C894 C246 1.845 . S
C896 C269 1.742 . S
C905 N426 2.197 . S
C907 N173 2.114 . S
C916 C292 2.096 . S
C918 C85 2.216 . S
C927 N12 2.283 . S
C929 N311 2.227 . S
C938 C39 2.413 . S
C940 C338 2.314 . S
C949 N127 2.024 . S
C951 N449 2.124 . S
C960 N104 1.625 . S
C962 N357 1.686 . S
C971 N150 1.656 . S
C973 N380 1.733 . S
C982 C384 2.163 . S
C984 C407 2.339 . S
C993 N288 1.869 . S
C995 C430 1.716 . S
C1004 C361 2.135 . S
C1006 C315 2.311 . S
C1015 C453 2.102 . S
C1017 N334 2.288 . S
C1026 N472 2.345 . S
C1028 N541 2.216 . S
C1037 C476 2.274 . S
C1039 C499 2.421 . S
C1048 N518 2.487 . S
C1050 N495 2.375 . S
C1059 C545 1.856 . S
C1061 C522 1.715 . S
C1070 N58 2.521 . S
C1072 N403 2.431 . S
