# Generated by pormake.
# Topology whk, (6)-cn, num edge types: 1
# Building blocks:
#     Node 0, Type 0, BuildingBlock: UKALOJ_clean_sbu_0, # of connection points: 6
#     Node 1, Type 0, BuildingBlock: UKALOJ_clean_sbu_0, # of connection points: 6
#     Node 2, Type 0, BuildingBlock: UKALOJ_clean_sbu_0, # of connection points: 6
#     Node 3, Type 0, BuildingBlock: UKALOJ_clean_sbu_0, # of connection points: 6
#     Node 4, Type 0, BuildingBlock: UKALOJ_clean_sbu_0, # of connection points: 6
#     Node 5, Type 0, BuildingBlock: UKALOJ_clean_sbu_0, # of connection points: 6
#     Node 6, Type 0, BuildingBlock: UKALOJ_clean_sbu_0, # of connection points: 6
#     Node 7, Type 0, BuildingBlock: UKALOJ_clean_sbu_0, # of connection points: 6
#     Node 8, Type 0, BuildingBlock: UKALOJ_clean_sbu_0, # of connection points: 6
#     Node 9, Type 0, BuildingBlock: UKALOJ_clean_sbu_0, # of connection points: 6
#     Node 10, Type 0, BuildingBlock: UKALOJ_clean_sbu_0, # of connection points: 6
#     Node 11, Type 0, BuildingBlock: UKALOJ_clean_sbu_0, # of connection points: 6
#     Node 12, Type 0, BuildingBlock: UKALOJ_clean_sbu_0, # of connection points: 6
#     Node 13, Type 0, BuildingBlock: UKALOJ_clean_sbu_0, # of connection points: 6
#     Node 14, Type 0, BuildingBlock: UKALOJ_clean_sbu_0, # of connection points: 6
#     Node 15, Type 0, BuildingBlock: UKALOJ_clean_sbu_0, # of connection points: 6
#     Edge 16, Type (0, 0), BuildingBlock: TEMPAE_clean_linker_10, # of connection points: 2
#     Edge 17, Type (0, 0), BuildingBlock: TEMPAE_clean_linker_10, # of connection points: 2
#     Edge 18, Type (0, 0), BuildingBlock: TEMPAE_clean_linker_10, # of connection points: 2
#     Edge 19, Type (0, 0), BuildingBlock: TEMPAE_clean_linker_10, # of connection points: 2
#     Edge 20, Type (0, 0), BuildingBlock: TEMPAE_clean_linker_10, # of connection points: 2
#     Edge 21, Type (0, 0), BuildingBlock: TEMPAE_clean_linker_10, # of connection points: 2
#     Edge 22, Type (0, 0), BuildingBlock: TEMPAE_clean_linker_10, # of connection points: 2
#     Edge 23, Type (0, 0), BuildingBlock: TEMPAE_clean_linker_10, # of connection points: 2
#     Edge 24, Type (0, 0), BuildingBlock: TEMPAE_clean_linker_10, # of connection points: 2
#     Edge 25, Type (0, 0), BuildingBlock: TEMPAE_clean_linker_10, # of connection points: 2
#     Edge 26, Type (0, 0), BuildingBlock: TEMPAE_clean_linker_10, # of connection points: 2
#     Edge 27, Type (0, 0), BuildingBlock: TEMPAE_clean_linker_10, # of connection points: 2
#     Edge 28, Type (0, 0), BuildingBlock: TEMPAE_clean_linker_10, # of connection points: 2
#     Edge 29, Type (0, 0), BuildingBlock: TEMPAE_clean_linker_10, # of connection points: 2
#     Edge 30, Type (0, 0), BuildingBlock: TEMPAE_clean_linker_10, # of connection points: 2
#     Edge 31, Type (0, 0), BuildingBlock: TEMPAE_clean_linker_10, # of connection points: 2
#     Edge 32, Type (0, 0), BuildingBlock: TEMPAE_clean_linker_10, # of connection points: 2
#     Edge 33, Type (0, 0), BuildingBlock: TEMPAE_clean_linker_10, # of connection points: 2
#     Edge 34, Type (0, 0), BuildingBlock: TEMPAE_clean_linker_10, # of connection points: 2
#     Edge 35, Type (0, 0), BuildingBlock: TEMPAE_clean_linker_10, # of connection points: 2
#     Edge 36, Type (0, 0), BuildingBlock: TEMPAE_clean_linker_10, # of connection points: 2
#     Edge 37, Type (0, 0), BuildingBlock: TEMPAE_clean_linker_10, # of connection points: 2
#     Edge 38, Type (0, 0), BuildingBlock: TEMPAE_clean_linker_10, # of connection points: 2
#     Edge 39, Type (0, 0), BuildingBlock: TEMPAE_clean_linker_10, # of connection points: 2
#     Edge 40, Type (0, 0), BuildingBlock: TEMPAE_clean_linker_10, # of connection points: 2
#     Edge 41, Type (0, 0), BuildingBlock: TEMPAE_clean_linker_10, # of connection points: 2
#     Edge 42, Type (0, 0), BuildingBlock: TEMPAE_clean_linker_10, # of connection points: 2
#     Edge 43, Type (0, 0), BuildingBlock: TEMPAE_clean_linker_10, # of connection points: 2
#     Edge 44, Type (0, 0), BuildingBlock: TEMPAE_clean_linker_10, # of connection points: 2
#     Edge 45, Type (0, 0), BuildingBlock: TEMPAE_clean_linker_10, # of connection points: 2
#     Edge 46, Type (0, 0), BuildingBlock: TEMPAE_clean_linker_10, # of connection points: 2
#     Edge 47, Type (0, 0), BuildingBlock: TEMPAE_clean_linker_10, # of connection points: 2
#     Edge 48, Type (0, 0), BuildingBlock: TEMPAE_clean_linker_10, # of connection points: 2
#     Edge 49, Type (0, 0), BuildingBlock: TEMPAE_clean_linker_10, # of connection points: 2
#     Edge 50, Type (0, 0), BuildingBlock: TEMPAE_clean_linker_10, # of connection points: 2
#     Edge 51, Type (0, 0), BuildingBlock: TEMPAE_clean_linker_10, # of connection points: 2
#     Edge 52, Type (0, 0), BuildingBlock: TEMPAE_clean_linker_10, # of connection points: 2
#     Edge 53, Type (0, 0), BuildingBlock: TEMPAE_clean_linker_10, # of connection points: 2
#     Edge 54, Type (0, 0), BuildingBlock: TEMPAE_clean_linker_10, # of connection points: 2
#     Edge 55, Type (0, 0), BuildingBlock: TEMPAE_clean_linker_10, # of connection points: 2
#     Edge 56, Type (0, 0), BuildingBlock: TEMPAE_clean_linker_10, # of connection points: 2
#     Edge 57, Type (0, 0), BuildingBlock: TEMPAE_clean_linker_10, # of connection points: 2
#     Edge 58, Type (0, 0), BuildingBlock: TEMPAE_clean_linker_10, # of connection points: 2
#     Edge 59, Type (0, 0), BuildingBlock: TEMPAE_clean_linker_10, # of connection points: 2
#     Edge 60, Type (0, 0), BuildingBlock: TEMPAE_clean_linker_10, # of connection points: 2
#     Edge 61, Type (0, 0), BuildingBlock: TEMPAE_clean_linker_10, # of connection points: 2
#     Edge 62, Type (0, 0), BuildingBlock: TEMPAE_clean_linker_10, # of connection points: 2
#     Edge 63, Type (0, 0), BuildingBlock: TEMPAE_clean_linker_10, # of connection points: 2
# Relax obj value: 0.436
# Max RMSD: 0.275
# Mean RMSD: 0.275
data_MOF--net-whk--node1-UKALOJ_clean_sbu_0--edge1-TEMPAE_clean_linker_10
_symmetry_space_group_name_H-M    P1
_symmetry_Int_Tables_number       1
_symmetry_cell_setting            triclinic
loop_
_symmetry_equiv_pos_as_xyz
'x, y, z'
_cell_length_a     38.466876
_cell_length_b     38.460811
_cell_length_c     53.776704
_cell_angle_alpha  90.000621
_cell_angle_beta   89.994952
_cell_angle_gamma 90.009546
loop_
_atom_site_label
_atom_site_type_symbol
_atom_site_fract_x
_atom_site_fract_y
_atom_site_fract_z
_atom_type_partial_charge
Zn0 Zn 0.5536 0.18934 0.37526 0.0
O1 O 0.56247 0.16974 0.33997 0.0
C2 C 0.50259 0.13111 0.38426 0.0
Zn3 Zn 0.57666 0.14198 0.39251 0.0
C4 C 0.57699 0.14047 0.33674 0.0
O5 O 0.58606 0.12241 0.35555 0.0
C6 C 0.55314 0.19332 0.43047 0.0
O7 O 0.62424 0.16837 0.39108 0.0
O8 O 0.60242 0.2151 0.37387 0.0
N9 N 0.60223 0.10037 0.40811 0.0
C10 C 0.62345 0.09941 0.42811 0.0
C11 C 0.62455 0.04904 0.4116 0.0
N12 N 0.60295 0.06903 0.39788 0.0
N13 N 0.63748 0.06748 0.43078 0.0
C14 C 0.50463 0.25258 0.3695 0.0
C15 C 0.52573 0.2785 0.33789 0.0
N16 N 0.53055 0.23253 0.36059 0.0
N17 N 0.54349 0.24857 0.34086 0.0
N18 N 0.50141 0.28181 0.35578 0.0
H19 H 0.47925 0.21443 0.39289 0.0
H20 H 0.45523 0.25414 0.38853 0.0
H21 H 0.49275 0.25317 0.40847 0.0
C22 C 0.48158 0.2429 0.39096 0.0
C23 C 0.63247 0.13018 0.44414 0.0
H24 H 0.65984 0.12865 0.45055 0.0
H25 H 0.61535 0.13022 0.46075 0.0
H26 H 0.62895 0.15511 0.43439 0.0
O27 O 0.5659 0.1629 0.429 0.0
O28 O 0.54564 0.20937 0.41065 0.0
C29 C 0.62847 0.19868 0.38239 0.0
O30 O 0.50542 0.16214 0.37627 0.0
O31 O 0.52913 0.11556 0.3929 0.0
Zn32 Zn 0.35649 0.57604 0.39301 0.0
O33 O 0.33072 0.6237 0.39146 0.0
C34 C 0.30677 0.55038 0.43184 0.0
Zn35 Zn 0.30872 0.55211 0.37685 0.0
C36 C 0.29952 0.62744 0.38447 0.0
O37 O 0.2824 0.60098 0.37734 0.0
C38 C 0.36721 0.5016 0.38427 0.0
O39 O 0.32726 0.56331 0.34127 0.0
O40 O 0.37589 0.58504 0.35617 0.0
N41 N 0.26524 0.52959 0.36205 0.0
C42 C 0.24545 0.50316 0.37046 0.0
C43 C 0.21875 0.52584 0.33978 0.0
N44 N 0.24872 0.5435 0.34287 0.0
N45 N 0.21592 0.50058 0.35703 0.0
C46 C 0.39973 0.62183 0.42884 0.0
C47 C 0.45069 0.62085 0.41329 0.0
N48 N 0.39852 0.60098 0.40865 0.0
N49 N 0.43022 0.60044 0.399 0.0
N50 N 0.43217 0.63427 0.43227 0.0
H51 H 0.3713 0.65916 0.45098 0.0
H52 H 0.36777 0.61471 0.46101 0.0
H53 H 0.34411 0.62935 0.43441 0.0
C54 C 0.36889 0.63189 0.44447 0.0
C55 C 0.25553 0.47915 0.39124 0.0
H56 H 0.28405 0.47719 0.3931 0.0
H57 H 0.24461 0.4528 0.38812 0.0
H58 H 0.24498 0.48934 0.40895 0.0
O59 O 0.33628 0.50433 0.3761 0.0
O60 O 0.3824 0.52805 0.39341 0.0
C61 C 0.35684 0.57705 0.33762 0.0
O62 O 0.33569 0.56599 0.42949 0.0
O63 O 0.29022 0.54124 0.41258 0.0
Zn64 Zn 0.94534 0.30798 0.37682 0.0
O65 O 0.93692 0.32717 0.34136 0.0
C66 C 0.99605 0.36648 0.38581 0.0
Zn67 Zn 0.92201 0.35523 0.3941 0.0
C68 C 0.92203 0.35623 0.33812 0.0
O69 O 0.91257 0.37409 0.35693 0.0
C70 C 0.94552 0.30446 0.43225 0.0
O71 O 0.87456 0.32828 0.39292 0.0
O72 O 0.89664 0.28207 0.37519 0.0
N73 N 0.89579 0.39718 0.40881 0.0
C74 C 0.86969 0.39785 0.4256 0.0
C75 C 0.87587 0.4496 0.41209 0.0
N76 N 0.8996 0.4294 0.40046 0.0
N77 N 0.8566 0.43021 0.42771 0.0
C78 C 0.99438 0.24458 0.37154 0.0
C79 C 0.97369 0.21876 0.33976 0.0
N80 N 0.96861 0.26468 0.36247 0.0
N81 N 0.95592 0.24869 0.34264 0.0
N82 N 0.99777 0.21538 0.3578 0.0
H83 H 0.01936 0.28277 0.39508 0.0
H84 H 0.04354 0.24309 0.39087 0.0
H85 H 0.00575 0.24397 0.41057 0.0
C86 C 0.01714 0.25428 0.39314 0.0
C87 C 0.85824 0.36766 0.44138 0.0
H88 H 0.87272 0.34361 0.43749 0.0
H89 H 0.83029 0.36234 0.43844 0.0
H90 H 0.86148 0.37457 0.46129 0.0
O91 O 0.93299 0.33501 0.43084 0.0
O92 O 0.95284 0.28839 0.41238 0.0
C93 C 0.87049 0.29813 0.38388 0.0
O94 O 0.99344 0.33532 0.37803 0.0
O95 O 0.96938 0.38202 0.39425 0.0
Zn96 Zn 0.14286 0.9204 0.39359 0.0
O97 O 0.16918 0.87294 0.39231 0.0
C98 C 0.19259 0.94645 0.43224 0.0
Zn99 Zn 0.1903 0.94471 0.37717 0.0
C100 C 0.20026 0.86951 0.38494 0.0
O101 O 0.21689 0.89605 0.37741 0.0
C102 C 0.13154 0.99485 0.38482 0.0
O103 O 0.17159 0.93347 0.34165 0.0
O104 O 0.12353 0.91083 0.35678 0.0
N105 N 0.23348 0.96754 0.36219 0.0
C106 C 0.25317 0.99412 0.37048 0.0
C107 C 0.2796 0.97173 0.33957 0.0
N108 N 0.24983 0.95381 0.34287 0.0
N109 N 0.28248 0.99698 0.35682 0.0
C110 C 0.09983 0.87428 0.42939 0.0
C111 C 0.0491 0.87446 0.41346 0.0
N112 N 0.10101 0.89517 0.40923 0.0
N113 N 0.06945 0.89523 0.39935 0.0
N114 N 0.06755 0.86128 0.43256 0.0
H115 H 0.12865 0.83728 0.45156 0.0
H116 H 0.13114 0.8817 0.46185 0.0
H117 H 0.15548 0.86782 0.43534 0.0
C118 C 0.13061 0.86466 0.44521 0.0
C119 C 0.24319 0.01798 0.39136 0.0
H120 H 0.21468 0.01968 0.39346 0.0
H121 H 0.25382 0.04444 0.38819 0.0
H122 H 0.2541 0.00784 0.40897 0.0
O123 O 0.1625 0.99233 0.37666 0.0
O124 O 0.11646 0.96824 0.39382 0.0
C125 C 0.14229 0.91909 0.33814 0.0
O126 O 0.1636 0.93091 0.43 0.0
O127 O 0.20905 0.95552 0.4129 0.0
Zn128 Zn 0.05301 0.80857 0.12298 0.0
O129 O 0.06481 0.82655 0.1586 0.0
C130 C 0.00292 0.86758 0.11586 0.0
Zn131 Zn 0.07712 0.8562 0.1067 0.0
C132 C 0.07898 0.85594 0.1622 0.0
O133 O 0.08684 0.87499 0.14364 0.0
C134 C 0.05038 0.80741 0.0679 0.0
O135 O 0.12446 0.82959 0.10776 0.0
O136 O 0.10132 0.78161 0.12216 0.0
N137 N 0.10279 0.89807 0.09141 0.0
C138 C 0.12394 0.89933 0.07137 0.0
C139 C 0.12496 0.94952 0.08817 0.0
N140 N 0.10347 0.9293 0.10181 0.0
N141 N 0.13786 0.93134 0.06884 0.0
C142 C 0.0032 0.7459 0.12941 0.0
C143 C 0.02525 0.71927 0.16036 0.0
N144 N 0.02995 0.76534 0.13772 0.0
N145 N 0.04347 0.74886 0.15706 0.0
N146 N 1e-05 0.71664 0.14309 0.0
H147 H 0.97797 0.78465 0.10649 0.0
H148 H 0.95294 0.74564 0.11162 0.0
H149 H 0.9896 0.74519 0.09088 0.0
C150 C 0.97947 0.75611 0.10851 0.0
C151 C 0.13297 0.86881 0.05512 0.0
H152 H 0.16037 0.87044 0.04876 0.0
H153 H 0.11591 0.86906 0.03849 0.0
H154 H 0.12941 0.84374 0.06466 0.0
O155 O 0.06634 0.83615 0.0702 0.0
O156 O 0.04155 0.79069 0.08717 0.0
C157 C 0.12786 0.79834 0.11477 0.0
O158 O 0.00572 0.83665 0.12404 0.0
O159 O 0.02934 0.88275 0.10664 0.0
Zn160 Zn 0.69141 0.05195 0.1236 0.0
O161 O 0.6711 0.06291 0.1585 0.0
C162 C 0.63385 0.00098 0.11488 0.0
Zn163 Zn 0.64444 0.0757 0.10621 0.0
C164 C 0.64152 0.07689 0.16151 0.0
O165 O 0.62329 0.08505 0.14258 0.0
C166 C 0.69651 0.04988 0.06888 0.0
O167 O 0.66956 0.12375 0.10793 0.0
O168 O 0.71695 0.10127 0.12368 0.0
N169 N 0.60278 0.09981 0.08945 0.0
C170 C 0.60199 0.12068 0.06927 0.0
C171 C 0.55048 0.11877 0.08381 0.0
N172 N 0.57073 0.09867 0.09846 0.0
N173 N 0.56947 0.13261 0.06522 0.0
C174 C 0.7521 0.00133 0.13405 0.0
C175 C 0.78413 0.03132 0.15824 0.0
N176 N 0.73463 0.03073 0.13946 0.0
N177 N 0.75443 0.04919 0.15467 0.0
N178 N 0.78341 0.00129 0.14537 0.0
H179 H 0.71392 0.9617 0.12948 0.0
H180 H 0.75553 0.94949 0.11785 0.0
H181 H 0.72892 0.98017 0.10084 0.0
C182 C 0.73714 0.97152 0.11955 0.0
C183 C 0.63328 0.13124 0.05429 0.0
H184 H 0.63099 0.15869 0.04815 0.0
H185 H 0.63492 0.11453 0.03753 0.0
H186 H 0.65776 0.12838 0.06467 0.0
O187 O 0.66726 0.06519 0.07032 0.0
O188 O 0.71207 0.04116 0.08865 0.0
C189 C 0.70028 0.12762 0.1159 0.0
O190 O 0.66453 0.00366 0.12355 0.0
O191 O 0.61897 0.02748 0.10559 0.0
Zn192 Zn 0.42211 0.643 0.10631 0.0
O193 O 0.37451 0.66923 0.10748 0.0
C194 C 0.44598 0.6944 0.06857 0.0
Zn195 Zn 0.44481 0.69028 0.12389 0.0
C196 C 0.37006 0.69957 0.11605 0.0
O197 O 0.39593 0.7161 0.12477 0.0
C198 C 0.49601 0.63205 0.11511 0.0
O199 O 0.43522 0.67078 0.15918 0.0
O200 O 0.41232 0.62335 0.14323 0.0
N201 N 0.4678 0.7335 0.13866 0.0
C202 C 0.49394 0.75338 0.12985 0.0
C203 C 0.4726 0.77959 0.16125 0.0
N204 N 0.45471 0.74973 0.15825 0.0
N205 N 0.49716 0.78265 0.1435 0.0
C206 C 0.3758 0.60015 0.07063 0.0
C207 C 0.37472 0.54988 0.08731 0.0
N208 N 0.39687 0.6013 0.09069 0.0
N209 N 0.39618 0.57002 0.10102 0.0
N210 N 0.36188 0.56816 0.06803 0.0
H211 H 0.37026 0.65579 0.06413 0.0
H212 H 0.33942 0.62917 0.04805 0.0
H213 H 0.38391 0.6307 0.03787 0.0
C214 C 0.36678 0.63078 0.05447 0.0
C215 C 0.51723 0.74351 0.10856 0.0
H216 H 0.51937 0.71503 0.10664 0.0
H217 H 0.54361 0.75458 0.1112 0.0
H218 H 0.50642 0.7539 0.09097 0.0
O219 O 0.49301 0.66293 0.12337 0.0
O220 O 0.46963 0.6167 0.10606 0.0
C221 C 0.42079 0.64141 0.16219 0.0
O222 O 0.43311 0.664 0.06988 0.0
O223 O 0.45339 0.71024 0.08851 0.0
Zn224 Zn 0.80655 0.44565 0.12576 0.0
O225 O 0.8273 0.43585 0.16061 0.0
C226 C 0.86398 0.4974 0.11652 0.0
Zn227 Zn 0.85366 0.42316 0.10773 0.0
C228 C 0.85676 0.42151 0.16332 0.0
O229 O 0.87454 0.41311 0.14421 0.0
C230 C 0.80094 0.44768 0.0708 0.0
O231 O 0.82821 0.37511 0.10898 0.0
O232 O 0.78153 0.39621 0.12666 0.0
N233 N 0.89513 0.39893 0.09089 0.0
C234 C 0.89572 0.37848 0.07048 0.0
C235 C 0.9471 0.37911 0.0853 0.0
N236 N 0.9271 0.39928 0.10007 0.0
N237 N 0.92804 0.36603 0.06647 0.0
C238 C 0.74511 0.49596 0.13495 0.0
C239 C 0.71391 0.46738 0.16053 0.0
N240 N 0.76315 0.46726 0.14134 0.0
N241 N 0.74382 0.44968 0.15739 0.0
N242 N 0.71397 0.4964 0.1465 0.0
H243 H 0.78365 0.53436 0.12716 0.0
H244 H 0.74119 0.54721 0.11795 0.0
H245 H 0.7646 0.51516 0.09995 0.0
C246 C 0.75913 0.52474 0.11896 0.0
C247 C 0.86437 0.36872 0.05527 0.0
H248 H 0.86636 0.34142 0.04874 0.0
H249 H 0.86297 0.38589 0.03873 0.0
H250 H 0.83986 0.37153 0.06564 0.0
O251 O 0.83127 0.43459 0.0718 0.0
O252 O 0.78533 0.45472 0.09089 0.0
C253 C 0.79807 0.37044 0.11783 0.0
O254 O 0.83317 0.49434 0.12491 0.0
O255 O 0.87937 0.47103 0.1075 0.0
Zn256 Zn 0.44576 0.80469 0.62523 0.0
O257 O 0.43351 0.82372 0.66042 0.0
C258 C 0.49641 0.86326 0.61797 0.0
Zn259 Zn 0.42228 0.85198 0.60799 0.0
C260 C 0.41886 0.85299 0.66347 0.0
O261 O 0.41123 0.87152 0.64458 0.0
C262 C 0.44986 0.80164 0.57034 0.0
O263 O 0.37478 0.82603 0.6083 0.0
O264 O 0.39673 0.77851 0.62422 0.0
N265 N 0.39756 0.89373 0.5918 0.0
C266 C 0.37699 0.89481 0.57147 0.0
C267 C 0.37556 0.94517 0.58797 0.0
N268 N 0.39664 0.92508 0.60202 0.0
N269 N 0.36317 0.92679 0.56857 0.0
C270 C 0.49727 0.74449 0.63522 0.0
C271 C 0.46747 0.71105 0.65854 0.0
N272 N 0.46737 0.76115 0.64055 0.0
N273 N 0.44901 0.74045 0.6552 0.0
N274 N 0.4978 0.71285 0.64608 0.0
H275 H 0.53685 0.78291 0.63246 0.0
H276 H 0.54917 0.74244 0.61898 0.0
H277 H 0.51859 0.77051 0.60312 0.0
C278 C 0.52713 0.76062 0.62145 0.0
C279 C 0.36829 0.86414 0.55527 0.0
H280 H 0.34093 0.86556 0.54881 0.0
H281 H 0.38543 0.86452 0.53868 0.0
H282 H 0.37199 0.83912 0.56486 0.0
O283 O 0.43446 0.83082 0.57192 0.0
O284 O 0.45771 0.78539 0.59002 0.0
C285 C 0.37069 0.79517 0.6159 0.0
O286 O 0.49374 0.8323 0.62617 0.0
O287 O 0.47 0.87825 0.60863 0.0
Zn288 Zn 0.64294 0.41988 0.60579 0.0
O289 O 0.67048 0.37311 0.6034 0.0
C290 C 0.69317 0.44368 0.56802 0.0
Zn291 Zn 0.68993 0.44247 0.6234 0.0
C292 C 0.69973 0.368 0.61358 0.0
O293 O 0.71444 0.39286 0.62506 0.0
C294 C 0.63266 0.49422 0.61554 0.0
O295 O 0.66933 0.43524 0.65886 0.0
O296 O 0.62519 0.40685 0.6425 0.0
N297 N 0.73364 0.46466 0.638 0.0
C298 C 0.75453 0.48971 0.62881 0.0
C299 C 0.77859 0.47012 0.66164 0.0
N300 N 0.74855 0.45262 0.65846 0.0
N301 N 0.78313 0.49335 0.64315 0.0
C302 C 0.5914 0.3626 0.58896 0.0
C303 C 0.56221 0.38858 0.56108 0.0
N304 N 0.60059 0.39643 0.58974 0.0
N305 N 0.5819 0.41266 0.57264 0.0
N306 N 0.56768 0.35685 0.57096 0.0
H307 H 0.6159 0.34584 0.6231 0.0
H308 H 0.58467 0.31574 0.61003 0.0
H309 H 0.62635 0.32037 0.59586 0.0
C310 C 0.6055 0.33474 0.60561 0.0
C311 C 0.74621 0.51155 0.60644 0.0
H312 H 0.71786 0.5142 0.60382 0.0
H313 H 0.75778 0.53786 0.60827 0.0
H314 H 0.75706 0.49903 0.58955 0.0
O315 O 0.66437 0.49143 0.62196 0.0
O316 O 0.61629 0.46744 0.60813 0.0
C317 C 0.64137 0.41813 0.66154 0.0
O318 O 0.66192 0.43309 0.56941 0.0
O319 O 0.71038 0.44872 0.58776 0.0
Zn320 Zn 0.0762 0.64178 0.6073 0.0
O321 O 0.12362 0.66787 0.60769 0.0
C322 C 0.0486 0.69203 0.5694 0.0
Zn323 Zn 0.05233 0.6891 0.62417 0.0
C324 C 0.12749 0.69881 0.61517 0.0
O325 O 0.10129 0.71544 0.62326 0.0
C326 C 0.00205 0.63027 0.61707 0.0
O327 O 0.06439 0.67017 0.6593 0.0
O328 O 0.08713 0.62231 0.64393 0.0
N329 N 0.03074 0.73248 0.63964 0.0
C330 C 0.00111 0.74963 0.63433 0.0
C331 C 0.03095 0.78205 0.65836 0.0
N332 N 0.0491 0.75254 0.65474 0.0
N333 N 0.00081 0.78098 0.64563 0.0
C334 C 0.12187 0.5992 0.57089 0.0
C335 C 0.12366 0.54889 0.58745 0.0
N336 N 0.10119 0.60014 0.59118 0.0
N337 N 0.10234 0.56882 0.60143 0.0
N338 N 0.13596 0.56734 0.56806 0.0
H339 H 0.12657 0.65491 0.56426 0.0
H340 H 0.15778 0.62865 0.54824 0.0
H341 H 0.11329 0.62941 0.53809 0.0
C342 C 0.1304 0.62991 0.55468 0.0
C343 C 0.97137 0.73435 0.61995 0.0
H344 H 0.96238 0.71054 0.62954 0.0
H345 H 0.94886 0.75223 0.61882 0.0
H346 H 0.97982 0.72705 0.60099 0.0
O347 O 0.00446 0.66136 0.62504 0.0
O348 O 0.02859 0.61531 0.6079 0.0
C349 C 0.07913 0.64103 0.66264 0.0
O350 O 0.06411 0.66293 0.57115 0.0
O351 O 0.04044 0.70835 0.58899 0.0
Zn352 Zn 0.85664 0.07487 0.605 0.0
O353 O 0.82977 0.12217 0.60338 0.0
C354 C 0.80889 0.04769 0.5659 0.0
Zn355 Zn 0.80864 0.05132 0.62106 0.0
C356 C 0.79857 0.12586 0.61045 0.0
O357 O 0.78225 0.09981 0.61906 0.0
C358 C 0.86705 0.00053 0.61588 0.0
O359 O 0.82587 0.06393 0.65676 0.0
O360 O 0.87433 0.08601 0.6419 0.0
N361 N 0.76476 0.02947 0.63567 0.0
C362 C 0.74491 0.00283 0.62769 0.0
C363 C 0.71876 0.02593 0.65847 0.0
N364 N 0.74857 0.04366 0.65489 0.0
N365 N 0.7157 0.00034 0.6415 0.0
C366 C 0.90884 0.13216 0.58935 0.0
C367 C 0.93732 0.10715 0.56066 0.0
N368 N 0.8994 0.09838 0.58949 0.0
N369 N 0.91765 0.08274 0.57188 0.0
N370 N 0.93226 0.13851 0.57125 0.0
H371 H 0.88471 0.14756 0.62396 0.0
H372 H 0.91663 0.17764 0.61172 0.0
H373 H 0.87486 0.17478 0.59749 0.0
C374 C 0.89536 0.15938 0.60679 0.0
C375 C 0.75477 0.97851 0.60706 0.0
H376 H 0.7833 0.97662 0.60506 0.0
H377 H 0.74397 0.95218 0.61048 0.0
H378 H 0.74394 0.98841 0.58934 0.0
O379 O 0.8358 0.0036 0.62329 0.0
O380 O 0.88267 0.02673 0.60672 0.0
C381 C 0.85509 0.0784 0.66041 0.0
O382 O 0.83776 0.06345 0.56836 0.0
O383 O 0.79173 0.03921 0.58509 0.0
Zn384 Zn 0.94487 0.19386 0.87362 0.0
O385 O 0.93297 0.17413 0.83859 0.0
C386 C 0.99663 0.13638 0.88141 0.0
Zn387 Zn 0.92223 0.14625 0.89087 0.0
C388 C 0.9194 0.14433 0.83557 0.0
O389 O 0.91234 0.12561 0.85448 0.0
C390 C 0.94828 0.19795 0.92835 0.0
O391 O 0.87414 0.17084 0.88969 0.0
O392 O 0.8953 0.21919 0.87458 0.0
N393 N 0.8985 0.10428 0.90749 0.0
C394 C 0.87784 0.10324 0.92778 0.0
C395 C 0.87919 0.052 0.91273 0.0
N396 N 0.89929 0.07239 0.89816 0.0
N397 N 0.86572 0.07074 0.93157 0.0
C398 C 0.99541 0.25464 0.86325 0.0
C399 C 0.96488 0.28781 0.84024 0.0
N400 N 0.96568 0.23759 0.85805 0.0
N401 N 0.94685 0.25813 0.84359 0.0
N402 N 0.99537 0.28636 0.85251 0.0
H403 H 0.03545 0.21665 0.8658 0.0
H404 H 0.04752 0.25727 0.87912 0.0
H405 H 0.01742 0.22897 0.89525 0.0
C406 C 0.02563 0.23887 0.87684 0.0
C407 C 0.86754 0.13428 0.94313 0.0
H408 H 0.84017 0.13192 0.94943 0.0
H409 H 0.88443 0.13553 0.95981 0.0
H410 H 0.87027 0.15898 0.93297 0.0
O411 O 0.93316 0.16861 0.92684 0.0
O412 O 0.95648 0.21388 0.90862 0.0
C413 C 0.86944 0.20172 0.88235 0.0
O414 O 0.99339 0.16707 0.8728 0.0
O415 O 0.97051 0.12118 0.89098 0.0
Zn416 Zn 0.35559 0.923 0.89415 0.0
O417 O 0.32778 0.87633 0.89636 0.0
C418 C 0.3083 0.95116 0.9331 0.0
Zn419 Zn 0.3079 0.94691 0.87785 0.0
C420 C 0.29673 0.87277 0.88895 0.0
O421 O 0.28085 0.89873 0.87981 0.0
C422 C 0.36714 0.99702 0.88272 0.0
O423 O 0.32503 0.93392 0.8422 0.0
O424 O 0.37286 0.91074 0.85728 0.0
N425 N 0.26434 0.96941 0.86322 0.0
C426 C 0.24499 0.99643 0.87119 0.0
C427 C 0.21831 0.97365 0.84053 0.0
N428 N 0.24782 0.95543 0.84407 0.0
N429 N 0.21576 -0.00063 0.85744 0.0
C430 C 0.40657 0.86506 0.91083 0.0
C431 C 0.43708 0.89104 0.93798 0.0
N432 N 0.39806 0.89906 0.90978 0.0
N433 N 0.41755 0.91526 0.92642 0.0
N434 N 0.43067 0.85921 0.92855 0.0
H435 H 0.38174 0.84803 0.87693 0.0
H436 H 0.41139 0.81702 0.8908 0.0
H437 H 0.36977 0.82416 0.90463 0.0
C438 C 0.39142 0.83712 0.89471 0.0
C439 C 0.25534 0.02066 0.89175 0.0
H440 H 0.2839 0.02207 0.89371 0.0
H441 H 0.24499 0.04715 0.8883 0.0
H442 H 0.24441 0.01101 0.90951 0.0
O443 O 0.33574 0.99428 0.87556 0.0
O444 O 0.38253 0.97068 0.89186 0.0
C445 C 0.35388 0.91864 0.83869 0.0
O446 O 0.33717 0.93541 0.9307 0.0
O447 O 0.29105 0.95932 0.91387 0.0
Zn448 Zn 0.57557 0.35405 0.89269 0.0
O449 O 0.62186 0.3264 0.89518 0.0
C450 C 0.54705 0.30317 0.92888 0.0
Zn451 Zn 0.55093 0.30884 0.87376 0.0
C452 C 0.62592 0.29727 0.88465 0.0
O453 O 0.60047 0.28348 0.87327 0.0
C454 C 0.501 0.36647 0.88155 0.0
O455 O 0.56136 0.33066 0.83901 0.0
O456 O 0.59016 0.3735 0.85686 0.0
N457 N 0.5298 0.26569 0.85753 0.0
C458 C 0.50052 0.24802 0.86298 0.0
C459 C 0.53056 0.21624 0.83866 0.0
N460 N 0.5483 0.24603 0.84225 0.0
N461 N 0.50058 0.21673 0.85159 0.0
C462 C 0.63178 0.40493 0.9129 0.0
C463 C 0.60293 0.43466 0.93899 0.0
N464 N 0.59812 0.39572 0.91034 0.0
N465 N 0.58016 0.41474 0.92634 0.0
N466 N 0.63558 0.42912 0.93083 0.0
H467 H 0.65265 0.3806 0.87996 0.0
H468 H 0.68208 0.40977 0.89595 0.0
H469 H 0.67293 0.36802 0.90902 0.0
C470 C 0.66144 0.38989 0.89843 0.0
C471 C 0.47068 0.26278 0.87754 0.0
H472 H 0.46044 0.28571 0.86748 0.0
H473 H 0.44893 0.24412 0.87953 0.0
H474 H 0.47944 0.27146 0.89612 0.0
O475 O 0.5027 0.33512 0.87415 0.0
O476 O 0.52808 0.38125 0.89004 0.0
C477 C 0.57931 0.35825 0.83732 0.0
O478 O 0.56121 0.33306 0.92813 0.0
O479 O 0.5405 0.28735 0.90875 0.0
Zn480 Zn 0.18967 0.55526 0.87837 0.0
O481 O 0.17208 0.56764 0.84283 0.0
C482 C 0.13127 0.5041 0.88428 0.0
Zn483 Zn 0.14148 0.57831 0.89439 0.0
C484 C 0.14248 0.58117 0.83904 0.0
O485 O 0.12294 0.58838 0.85747 0.0
C486 C 0.19019 0.55144 0.93328 0.0
O487 O 0.16713 0.62616 0.89408 0.0
O488 O 0.2159 0.60415 0.88023 0.0
N489 N 0.09899 0.60286 0.9096 0.0
C490 C 0.09713 0.6236 0.92982 0.0
C491 C 0.04727 0.62447 0.91252 0.0
N492 N 0.06797 0.60343 0.89888 0.0
N493 N 0.06496 0.63713 0.93215 0.0
C494 C 0.25342 0.50702 0.87139 0.0
C495 C 0.27945 0.53045 0.84068 0.0
N496 N 0.23342 0.53359 0.86348 0.0
N497 N 0.24954 0.54798 0.8443 0.0
N498 N 0.28265 0.5048 0.85759 0.0
H499 H 0.2152 0.48042 0.89394 0.0
H500 H 0.2547 0.45628 0.88846 0.0
H501 H 0.25448 0.49237 0.90971 0.0
C502 C 0.24373 0.48252 0.89195 0.0
C503 C 0.12721 0.63274 0.94646 0.0
H504 H 0.15252 0.62967 0.93717 0.0
H505 H 0.12513 0.66001 0.95303 0.0
H506 H 0.12678 0.61543 0.96296 0.0
O507 O 0.1613 0.56712 0.93092 0.0
O508 O 0.20724 0.54308 0.91406 0.0
C509 C 0.19854 0.63026 0.88769 0.0
O510 O 0.1623 0.50736 0.87637 0.0
O511 O 0.11581 0.53017 0.89375 0.0
C512 C 0.58657 0.15355 0.29207 0.0
C513 C 0.58402 0.12874 0.3111 0.0
C514 C 0.59377 0.1437 0.26756 0.0
C515 C 0.5978 0.10806 0.26179 0.0
C516 C 0.59432 0.08273 0.28078 0.0
C517 C 0.5879 0.09343 0.30536 0.0
C518 C 0.59821 0.17159 0.24802 0.0
C519 C 0.5978 0.04445 0.27516 0.0
C520 C 0.59413 0.08658 0.19281 0.0
C521 C 0.62956 0.08422 0.18705 0.0
C522 C 0.58321 0.09291 0.21736 0.0
C523 C 0.60841 0.09785 0.23626 0.0
C524 C 0.64418 0.0955 0.23045 0.0
C525 C 0.65427 0.08834 0.20599 0.0
C526 C 0.54483 0.09459 0.22304 0.0
C527 C 0.67189 0.10154 0.2499 0.0
H528 H 0.58378 0.18093 0.29644 0.0
H529 H 0.58559 0.07421 0.32002 0.0
H530 H 0.62506 0.17072 0.24049 0.0
H531 H 0.58021 0.16693 0.23226 0.0
H532 H 0.59331 0.19809 0.25547 0.0
H533 H 0.59138 0.02798 0.29151 0.0
H534 H 0.58042 0.03718 0.25953 0.0
H535 H 0.6248 0.03859 0.26928 0.0
H536 H 0.575 0.08305 0.17822 0.0
H537 H 0.68173 0.08673 0.20158 0.0
H538 H 0.53773 0.12128 0.22898 0.0
H539 H 0.53845 0.07685 0.23866 0.0
H540 H 0.52863 0.08745 0.20672 0.0
H541 H 0.66957 0.12832 0.25741 0.0
H542 H 0.69856 0.0981 0.24238 0.0
H543 H 0.66831 0.08334 0.26569 0.0
C544 C 0.40936 0.59415 0.19333 0.0
C545 C 0.41311 0.62952 0.18772 0.0
C546 C 0.4025 0.58326 0.21781 0.0
C547 C 0.39844 0.60845 0.23684 0.0
C548 C 0.40212 0.64417 0.23117 0.0
C549 C 0.40978 0.65421 0.20676 0.0
C550 C 0.39942 0.54491 0.22332 0.0
C551 C 0.3971 0.67191 0.25075 0.0
C552 C 0.34303 0.58773 0.29311 0.0
C553 C 0.36812 0.58413 0.31186 0.0
C554 C 0.35264 0.59497 0.26854 0.0
C555 C 0.38828 0.59795 0.26242 0.0
C556 C 0.41383 0.5934 0.28113 0.0
C557 C 0.40341 0.58698 0.30577 0.0
C558 C 0.32456 0.60054 0.2493 0.0
C559 C 0.4521 0.59573 0.27516 0.0
H560 H 0.41222 0.57501 0.17867 0.0
H561 H 0.41241 0.68163 0.20248 0.0
H562 H 0.41718 0.53771 0.23875 0.0
H563 H 0.37259 0.53878 0.2295 0.0
H564 H 0.40563 0.5286 0.20686 0.0
H565 H 0.40123 0.69854 0.2433 0.0
H566 H 0.37037 0.67031 0.25842 0.0
H567 H 0.41539 0.6677 0.2664 0.0
H568 H 0.31568 0.58571 0.29777 0.0
H569 H 0.42285 0.58384 0.32019 0.0
H570 H 0.32835 0.58259 0.23339 0.0
H571 H 0.32617 0.62744 0.24192 0.0
H572 H 0.29807 0.5964 0.25698 0.0
H573 H 0.45852 0.57825 0.25939 0.0
H574 H 0.46866 0.58867 0.29131 0.0
H575 H 0.4587 0.62259 0.26932 0.0
C576 C 0.91279 0.34335 0.29335 0.0
C577 C 0.91508 0.36804 0.31248 0.0
C578 C 0.90556 0.35332 0.26887 0.0
C579 C 0.90128 0.38898 0.26322 0.0
C580 C 0.90457 0.41419 0.28231 0.0
C581 C 0.91098 0.40336 0.30686 0.0
C582 C 0.90131 0.32554 0.24923 0.0
C583 C 0.90084 0.4525 0.27683 0.0
C584 C 0.90443 0.4114 0.19435 0.0
C585 C 0.86896 0.41377 0.18874 0.0
C586 C 0.91553 0.40469 0.2188 0.0
C587 C 0.89048 0.39932 0.23776 0.0
C588 C 0.85466 0.4016 0.23207 0.0
C589 C 0.84439 0.40919 0.20772 0.0
C590 C 0.95396 0.40313 0.22436 0.0
C591 C 0.8271 0.39509 0.25156 0.0
H592 H 0.91576 0.31597 0.29764 0.0
H593 H 0.9131 0.4225 0.32158 0.0
H594 H 0.87441 0.32622 0.24178 0.0
H595 H 0.91918 0.3305 0.23344 0.0
H596 H 0.9065 0.29904 0.25656 0.0
H597 H 0.90728 0.46888 0.29321 0.0
H598 H 0.91806 0.45996 0.26115 0.0
H599 H 0.87376 0.45824 0.27108 0.0
H600 H 0.92345 0.41527 0.17972 0.0
H601 H 0.81689 0.41076 0.20342 0.0
H602 H 0.96121 0.37645 0.23021 0.0
H603 H 0.96034 0.42082 0.24001 0.0
H604 H 0.97003 0.41043 0.208 0.0
H605 H 0.82974 0.36829 0.25896 0.0
H606 H 0.80035 0.39829 0.24411 0.0
H607 H 0.83053 0.41322 0.2674 0.0
C608 C 0.15622 0.90821 0.29367 0.0
C609 C 0.1311 0.91145 0.31244 0.0
C610 C 0.14672 0.90059 0.26914 0.0
C611 C 0.11114 0.89685 0.26306 0.0
C612 C 0.08554 0.90081 0.28181 0.0
C613 C 0.09587 0.90764 0.30642 0.0
C614 C 0.17487 0.89568 0.24985 0.0
C615 C 0.04732 0.89765 0.27589 0.0
C616 C 0.08983 0.90225 0.19409 0.0
C617 C 0.08667 0.867 0.18792 0.0
C618 C 0.09657 0.91251 0.21872 0.0
C619 C 0.10111 0.88683 0.23735 0.0
C620 C 0.09803 0.85123 0.23112 0.0
C621 C 0.09046 0.84179 0.20656 0.0
C622 C 0.09902 0.95074 0.22481 0.0
C623 C 0.10358 0.82302 0.25027 0.0
H624 H 0.18353 0.91091 0.29827 0.0
H625 H 0.0764 0.91044 0.32085 0.0
H626 H 0.17349 0.86895 0.24213 0.0
H627 H 0.17092 0.91398 0.23417 0.0
H628 H 0.20132 0.89987 0.25759 0.0
H629 H 0.03065 0.90371 0.29219 0.0
H630 H 0.04038 0.91549 0.26045 0.0
H631 H 0.0414 0.87084 0.26957 0.0
H632 H 0.08658 0.92179 0.17975 0.0
H633 H 0.08825 0.81447 0.20184 0.0
H634 H 0.12575 0.95713 0.23105 0.0
H635 H 0.08116 0.9572 0.24034 0.0
H636 H 0.09252 0.96743 0.2086 0.0
H637 H 0.13033 0.82481 0.2579 0.0
H638 H 0.09981 0.79655 0.24244 0.0
H639 H 0.08533 0.8265 0.26604 0.0
C640 C 0.33949 0.90706 0.79435 0.0
C641 C 0.36471 0.9102 0.81305 0.0
C642 C 0.34883 0.89912 0.76983 0.0
C643 C 0.38436 0.89497 0.76371 0.0
C644 C 0.41005 0.89876 0.7824 0.0
C645 C 0.39987 0.90591 0.80698 0.0
C646 C 0.3206 0.89438 0.75059 0.0
C647 C 0.44823 0.89513 0.77645 0.0
C648 C 0.40557 0.83933 0.70762 0.0
C649 C 0.41017 0.86437 0.68894 0.0
C650 C 0.39729 0.84901 0.732 0.0
C651 C 0.3943 0.88468 0.73803 0.0
C652 C 0.39944 0.91018 0.71936 0.0
C653 C 0.40689 0.89968 0.69488 0.0
C654 C 0.39111 0.82099 0.7512 0.0
C655 C 0.39711 0.94847 0.72526 0.0
H656 H 0.31223 0.91017 0.799 0.0
H657 H 0.41943 0.90865 0.82136 0.0
H658 H 0.32473 0.91252 0.73483 0.0
H659 H 0.32166 0.86759 0.74297 0.0
H660 H 0.29422 0.89892 0.75834 0.0
H661 H 0.465 0.90105 0.79272 0.0
H662 H 0.45381 0.86823 0.77017 0.0
H663 H 0.45535 0.91284 0.76097 0.0
H664 H 0.40781 0.81196 0.70305 0.0
H665 H 0.41072 0.91907 0.68051 0.0
H666 H 0.36439 0.82333 0.7588 0.0
H667 H 0.4094 0.82419 0.76697 0.0
H668 H 0.39438 0.79443 0.74343 0.0
H669 H 0.37046 0.95498 0.73161 0.0
H670 H 0.40352 0.965 0.70895 0.0
H671 H 0.41513 0.95502 0.74068 0.0
C672 C 0.56067 0.38077 0.79633 0.0
C673 C 0.58761 0.37178 0.81256 0.0
C674 C 0.56775 0.39045 0.7717 0.0
C675 C 0.60247 0.38965 0.76299 0.0
C676 C 0.6298 0.38071 0.77949 0.0
C677 C 0.62204 0.37241 0.8043 0.0
C678 C 0.53808 0.40106 0.75496 0.0
C679 C 0.66704 0.37865 0.77072 0.0
C680 C 0.61711 0.37815 0.69357 0.0
C681 C 0.62845 0.41137 0.68679 0.0
C682 C 0.60855 0.37066 0.71839 0.0
C683 C 0.61019 0.39743 0.73649 0.0
C684 C 0.62011 0.43143 0.72937 0.0
C685 C 0.62981 0.43782 0.70466 0.0
C686 C 0.59901 0.33386 0.72542 0.0
C687 C 0.62091 0.46095 0.74788 0.0
H688 H 0.53403 0.38007 0.80292 0.0
H689 H 0.64267 0.36487 0.81694 0.0
H690 H 0.54378 0.42652 0.74614 0.0
H691 H 0.53497 0.38177 0.73979 0.0
H692 H 0.51307 0.40306 0.76519 0.0
H693 H 0.68515 0.37104 0.78586 0.0
H694 H 0.66919 0.35937 0.75544 0.0
H695 H 0.67544 0.40412 0.76315 0.0
H696 H 0.61647 0.35769 0.6797 0.0
H697 H 0.63843 0.46358 0.69925 0.0
H698 H 0.57286 0.33325 0.73406 0.0
H699 H 0.61772 0.32387 0.73941 0.0
H700 H 0.59907 0.31607 0.70914 0.0
H701 H 0.59563 0.46273 0.75775 0.0
H702 H 0.62643 0.48637 0.7389 0.0
H703 H 0.64118 0.45599 0.76211 0.0
C704 C 0.09119 0.59496 0.69453 0.0
C705 C 0.08738 0.63011 0.68829 0.0
C706 C 0.09815 0.58499 0.7192 0.0
C707 C 0.10218 0.61087 0.73774 0.0
C708 C 0.09856 0.64637 0.73141 0.0
C709 C 0.09086 0.6555 0.70684 0.0
C710 C 0.10126 0.54685 0.72542 0.0
C711 C 0.10354 0.6748 0.75048 0.0
C712 C 0.09635 0.59122 0.8069 0.0
C713 C 0.13157 0.5884 0.81323 0.0
C714 C 0.08625 0.59722 0.78215 0.0
C715 C 0.11204 0.60127 0.76355 0.0
C716 C 0.1476 0.59847 0.76991 0.0
C717 C 0.15689 0.59174 0.79461 0.0
C718 C 0.04806 0.59949 0.77591 0.0
C719 C 0.17591 0.60349 0.75076 0.0
H720 H 0.08821 0.5753 0.68025 0.0
H721 H 0.08818 0.68276 0.70205 0.0
H722 H 0.12796 0.54105 0.73199 0.0
H723 H 0.08319 0.54013 0.74077 0.0
H724 H 0.09545 0.52994 0.7092 0.0
H725 H 0.09956 0.70116 0.74251 0.0
H726 H 0.08511 0.67122 0.76613 0.0
H727 H 0.1302 0.6734 0.7583 0.0
H728 H 0.07673 0.58829 0.82121 0.0
H729 H 0.18419 0.58973 0.79944 0.0
H730 H 0.04172 0.58133 0.76053 0.0
H731 H 0.04168 0.6261 0.7694 0.0
H732 H 0.03128 0.59327 0.79213 0.0
H733 H 0.17236 0.585 0.73515 0.0
H734 H 0.20232 0.5997 0.75868 0.0
H735 H 0.17433 0.63013 0.74291 0.0
C736 C 0.84085 0.08926 0.70486 0.0
C737 C 0.86601 0.08634 0.68611 0.0
C738 C 0.85027 0.09698 0.7294 0.0
C739 C 0.88581 0.10117 0.73546 0.0
C740 C 0.91145 0.09748 0.71673 0.0
C741 C 0.9012 0.09051 0.69215 0.0
C742 C 0.82209 0.10158 0.7487 0.0
C743 C 0.94964 0.10117 0.72263 0.0
C744 C 0.90651 0.15743 0.79128 0.0
C745 C 0.91118 0.1326 0.8101 0.0
C746 C 0.89848 0.14746 0.76692 0.0
C747 C 0.89577 0.11172 0.76107 0.0
C748 C 0.90103 0.08643 0.77986 0.0
C749 C 0.90827 0.09721 0.80431 0.0
C750 C 0.89222 0.17526 0.74758 0.0
C751 C 0.89895 0.04807 0.77414 0.0
H752 H 0.81358 0.08622 0.70025 0.0
H753 H 0.92072 0.08793 0.67772 0.0
H754 H 0.82647 0.08364 0.76453 0.0
H755 H 0.82292 0.12846 0.75619 0.0
H756 H 0.79571 0.09671 0.74104 0.0
H757 H 0.96638 0.09504 0.70637 0.0
H758 H 0.95524 0.12816 0.7287 0.0
H759 H 0.95679 0.08368 0.73822 0.0
H760 H 0.90848 0.18486 0.79571 0.0
H761 H 0.91213 0.07798 0.81879 0.0
H762 H 0.86548 0.17278 0.74003 0.0
H763 H 0.91048 0.17193 0.7318 0.0
H764 H 0.89545 0.20192 0.75519 0.0
H765 H 0.87231 0.0413 0.7679 0.0
H766 H 0.90557 0.03174 0.79051 0.0
H767 H 0.91692 0.04152 0.75869 0.0
C768 C 0.43796 0.13073 0.37978 0.0
C769 C 0.46933 0.1124 0.38172 0.0
C770 C 0.40644 0.11312 0.37603 0.0
C771 C 0.40656 0.07647 0.37353 0.0
C772 C 0.4382 0.05788 0.37543 0.0
C773 C 0.46916 0.07606 0.37981 0.0
C774 C 0.37305 0.13366 0.37475 0.0
C775 C 0.43944 0.01885 0.37238 0.0
C776 C 0.32519 0.02358 0.38524 0.0
C777 C 0.31264 0.01831 0.36106 0.0
C778 C 0.35498 0.04358 0.38961 0.0
C779 C 0.37358 0.05738 0.3692 0.0
C780 C 0.36152 0.05156 0.34466 0.0
C781 C 0.33104 0.03218 0.3409 0.0
C782 C 0.36686 0.04935 0.41607 0.0
C783 C 0.38119 0.06516 0.3224 0.0
H784 H 0.43805 0.15883 0.38131 0.0
H785 H 0.49345 0.06185 0.38099 0.0
H786 H 0.36053 0.12988 0.35637 0.0
H787 H 0.35458 0.12411 0.38906 0.0
H788 H 0.37734 0.16194 0.37769 0.0
H789 H 0.4663 0.00843 0.37382 0.0
H790 H 0.42317 0.00618 0.38679 0.0
H791 H 0.42859 0.01143 0.35402 0.0
H792 H 0.31234 0.01127 0.40079 0.0
H793 H 0.32162 0.02758 0.3222 0.0
H794 H 0.37103 0.07749 0.41953 0.0
H795 H 0.39207 0.03606 0.41918 0.0
H796 H 0.34782 0.03938 0.42988 0.0
H797 H 0.384 0.09381 0.32368 0.0
H798 H 0.3681 0.0587 0.30457 0.0
H799 H 0.40778 0.05397 0.32213 0.0
C800 C 0.42247 0.4687 0.37933 0.0
C801 C 0.38617 0.46854 0.38156 0.0
C802 C 0.44083 0.43786 0.37488 0.0
C803 C 0.42248 0.40603 0.37327 0.0
C804 C 0.38589 0.40561 0.37611 0.0
C805 C 0.36808 0.437 0.37988 0.0
C806 C 0.47977 0.43944 0.37142 0.0
C807 C 0.36561 0.37202 0.37516 0.0
C808 C 0.46608 0.33048 0.34025 0.0
C809 C 0.48041 0.31212 0.36026 0.0
C810 C 0.44691 0.36103 0.34419 0.0
C811 C 0.44173 0.3732 0.36877 0.0
C812 C 0.45607 0.3547 0.38904 0.0
C813 C 0.47587 0.32483 0.38448 0.0
C814 C 0.43275 0.38061 0.32206 0.0
C815 C 0.45096 0.3667 0.41554 0.0
H816 H 0.43646 0.49314 0.38032 0.0
H817 H 0.34001 0.43685 0.38168 0.0
H818 H 0.49288 0.42329 0.38569 0.0
H819 H 0.48689 0.42862 0.35298 0.0
H820 H 0.48999 0.46639 0.37273 0.0
H821 H 0.33739 0.37606 0.37845 0.0
H822 H 0.36905 0.35946 0.35676 0.0
H823 H 0.37568 0.35369 0.38938 0.0
H824 H 0.47012 0.32094 0.32151 0.0
H825 H 0.48852 0.31197 0.39989 0.0
H826 H 0.44367 0.40731 0.32171 0.0
H827 H 0.40411 0.38312 0.3236 0.0
H828 H 0.43902 0.3676 0.30417 0.0
H829 H 0.46388 0.39218 0.41834 0.0
H830 H 0.4617 0.34795 0.42925 0.0
H831 H 0.42287 0.37039 0.41943 0.0
C832 C 0.06067 0.36714 0.38119 0.0
C833 C 0.02924 0.38534 0.38321 0.0
C834 C 0.09209 0.38486 0.37729 0.0
C835 C 0.09182 0.42149 0.37475 0.0
C836 C 0.06013 0.43997 0.37677 0.0
C837 C 0.02926 0.42168 0.38128 0.0
C838 C 0.12555 0.36443 0.37587 0.0
C839 C 0.05872 0.47899 0.3737 0.0
C840 C 0.17338 0.47441 0.38579 0.0
C841 C 0.18565 0.4795 0.36151 0.0
C842 C 0.14358 0.45454 0.39041 0.0
C843 C 0.12469 0.44067 0.37015 0.0
C844 C 0.13643 0.44638 0.34552 0.0
C845 C 0.16692 0.46565 0.34151 0.0
C846 C 0.13202 0.44891 0.41696 0.0
C847 C 0.11646 0.43269 0.32342 0.0
H848 H 0.06071 0.33903 0.38274 0.0
H849 H 0.00493 0.4358 0.38254 0.0
H850 H 0.13781 0.36814 0.35739 0.0
H851 H 0.14417 0.37415 0.39002 0.0
H852 H 0.12141 0.33616 0.37893 0.0
H853 H 0.03186 0.48934 0.37537 0.0
H854 H 0.07521 0.49175 0.38795 0.0
H855 H 0.06923 0.4864 0.35523 0.0
H856 H 0.18651 0.48671 0.40122 0.0
H857 H 0.17613 0.47012 0.32273 0.0
H858 H 0.12803 0.42077 0.42054 0.0
H859 H 0.10678 0.46209 0.42017 0.0
H860 H 0.15118 0.45907 0.43061 0.0
H861 H 0.11379 0.40404 0.32474 0.0
H862 H 0.12924 0.43919 0.30549 0.0
H863 H 0.08982 0.44377 0.32336 0.0
C864 C 0.13071 0.05952 0.38091 0.0
C865 C 0.11257 0.02798 0.38243 0.0
C866 C 0.11294 0.09101 0.37749 0.0
C867 C 0.07633 0.09073 0.37487 0.0
C868 C 0.05791 0.05893 0.37636 0.0
C869 C 0.07625 0.02796 0.38045 0.0
C870 C 0.13332 0.12455 0.37664 0.0
C871 C 0.01893 0.05751 0.37313 0.0
C872 C 0.02345 0.17226 0.38641 0.0
C873 C 0.01881 0.18506 0.36222 0.0
C874 C 0.04308 0.14223 0.39086 0.0
C875 C 0.05717 0.12368 0.37051 0.0
C876 C 0.05194 0.13599 0.34597 0.0
C877 C 0.03294 0.16667 0.34215 0.0
C878 C 0.04827 0.13008 0.41732 0.0
C879 C 0.06586 0.11641 0.32376 0.0
H880 H 0.1588 0.05958 0.38255 0.0
H881 H 0.0622 0.00354 0.38135 0.0
H882 H 0.12987 0.13724 0.35829 0.0
H883 H 0.12335 0.14281 0.39094 0.0
H884 H 0.16154 0.1204 0.37986 0.0
H885 H 0.00862 0.0306 0.37448 0.0
H886 H 0.00603 0.07371 0.38747 0.0
H887 H 0.01167 0.06837 0.35473 0.0
H888 H 0.01099 0.18516 0.40189 0.0
H889 H 0.02884 0.17627 0.32343 0.0
H890 H 0.07636 0.12624 0.42112 0.0
H891 H 0.03524 0.10465 0.42009 0.0
H892 H 0.03769 0.14882 0.4311 0.0
H893 H 0.0945 0.11376 0.32519 0.0
H894 H 0.05952 0.1295 0.30591 0.0
H895 H 0.05481 0.08976 0.32341 0.0
C896 C 0.93883 0.86785 0.12318 0.0
C897 C 0.96958 0.88624 0.11833 0.0
C898 C 0.90733 0.88539 0.127 0.0
C899 C 0.90675 0.92215 0.12635 0.0
C900 C 0.93763 0.94085 0.1212 0.0
C901 C 0.96865 0.92263 0.11704 0.0
C902 C 0.87475 0.86461 0.13199 0.0
C903 C 0.93806 0.98012 0.12063 0.0
C904 C 0.82199 0.9703 0.11641 0.0
C905 C 0.81295 0.97939 0.14081 0.0
C906 C 0.85196 0.95082 0.11148 0.0
C907 C 0.87396 0.94118 0.1314 0.0
C908 C 0.86518 0.95065 0.15607 0.0
C909 C 0.83469 0.9697 0.16047 0.0
C910 C 0.86038 0.94115 0.08493 0.0
C911 C 0.88833 0.94128 0.17773 0.0
H912 H 0.93939 0.83969 0.12406 0.0
H913 H 0.9924 0.93697 0.11346 0.0
H914 H 0.86455 0.87091 0.15075 0.0
H915 H 0.85428 0.87167 0.11835 0.0
H916 H 0.87936 0.83613 0.13092 0.0
H917 H 0.96419 0.99069 0.11613 0.0
H918 H 0.91925 0.98985 0.10663 0.0
H919 H 0.92987 0.99049 0.13897 0.0
H920 H 0.80596 0.97915 0.10111 0.0
H921 H 0.82789 0.9774 0.17924 0.0
H922 H 0.8644 0.91266 0.0834 0.0
H923 H 0.88494 0.95391 0.07914 0.0
H924 H 0.83949 0.94895 0.0718 0.0
H925 H 0.89203 0.9127 0.17855 0.0
H926 H 0.87751 0.95021 0.19579 0.0
H927 H 0.91437 0.95316 0.17517 0.0
C928 C 0.52265 0.8256 0.11476 0.0
C929 C 0.51835 0.81281 0.13898 0.0
C930 C 0.54272 0.85527 0.11011 0.0
C931 C 0.55773 0.87342 0.13031 0.0
C932 C 0.55284 0.86113 0.1549 0.0
C933 C 0.53326 0.83084 0.15892 0.0
C934 C 0.54741 0.86746 0.08362 0.0
C935 C 0.56779 0.88028 0.17694 0.0
C936 C 0.63209 0.93624 0.11857 0.0
C937 C 0.6145 0.96809 0.11746 0.0
C938 C 0.61388 0.90507 0.1224 0.0
C939 C 0.57738 0.90602 0.12574 0.0
C940 C 0.55952 0.93814 0.12458 0.0
C941 C 0.57827 0.96876 0.12015 0.0
C942 C 0.63365 0.87117 0.1229 0.0
C943 C 0.52068 0.94027 0.12849 0.0
H944 H 0.50962 0.81292 0.09943 0.0
H945 H 0.52942 0.82122 0.17766 0.0
H946 H 0.53495 0.89322 0.08112 0.0
H947 H 0.57547 0.87063 0.07939 0.0
H948 H 0.53597 0.84907 0.06994 0.0
H949 H 0.56174 0.8672 0.19485 0.0
H950 H 0.59643 0.88239 0.17507 0.0
H951 H 0.55729 0.90714 0.17755 0.0
H952 H 0.66005 0.93565 0.11625 0.0
H953 H 0.56466 0.99343 0.11957 0.0
H954 H 0.62304 0.85322 0.10863 0.0
H955 H 0.63034 0.85838 0.14123 0.0
H956 H 0.66188 0.87484 0.11938 0.0
H957 H 0.50701 0.92436 0.11434 0.0
H958 H 0.51084 0.96738 0.12735 0.0
H959 H 0.51383 0.92949 0.14699 0.0
C960 C 0.56023 0.63134 0.12225 0.0
C961 C 0.52924 0.61321 0.11776 0.0
C962 C 0.5915 0.61345 0.12637 0.0
C963 C 0.59152 0.57665 0.12649 0.0
C964 C 0.56036 0.55824 0.12177 0.0
C965 C 0.52965 0.57677 0.11721 0.0
C966 C 0.62444 0.63389 0.13082 0.0
C967 C 0.55926 0.51898 0.1221 0.0
C968 C 0.675 0.52611 0.11709 0.0
C969 C 0.6843 0.51802 0.14163 0.0
C970 C 0.64547 0.54613 0.11194 0.0
C971 C 0.62403 0.55723 0.13178 0.0
C972 C 0.63291 0.54856 0.15659 0.0
C973 C 0.66305 0.52904 0.16121 0.0
C974 C 0.63696 0.55492 0.08525 0.0
C975 C 0.61024 0.55932 0.17818 0.0
H976 H 0.56004 0.65952 0.12259 0.0
H977 H 0.50569 0.56262 0.11397 0.0
H978 H 0.63464 0.62823 0.14968 0.0
H979 H 0.6447 0.62591 0.11728 0.0
H980 H 0.62027 0.66238 0.12914 0.0
H981 H 0.5329 0.50864 0.11801 0.0
H982 H 0.5777 0.50831 0.10821 0.0
H983 H 0.56752 0.50928 0.14061 0.0
H984 H 0.6906 0.51624 0.10188 0.0
H985 H 0.67002 0.52214 0.1801 0.0
H986 H 0.63365 0.58343 0.08314 0.0
H987 H 0.61201 0.54258 0.07987 0.0
H988 H 0.65746 0.54604 0.07216 0.0
H989 H 0.60722 0.588 0.17845 0.0
H990 H 0.62104 0.55083 0.19635 0.0
H991 H 0.58389 0.54798 0.17599 0.0
C992 C 0.97303 0.67399 0.1148 0.0
C993 C 0.97828 0.68675 0.13893 0.0
C994 C 0.9528 0.64432 0.11053 0.0
C995 C 0.93859 0.62614 0.13101 0.0
C996 C 0.94425 0.63851 0.15549 0.0
C997 C 0.96399 0.66879 0.15914 0.0
C998 C 0.94727 0.63205 0.08414 0.0
C999 C 0.9301 0.61937 0.17781 0.0
C1000 C 0.86484 0.5622 0.12039 0.0
C1001 C 0.88286 0.5306 0.11905 0.0
C1002 C 0.88267 0.59364 0.12401 0.0
C1003 C 0.91926 0.59324 0.12683 0.0
C1004 C 0.93756 0.56138 0.12546 0.0
C1005 C 0.91916 0.53048 0.12131 0.0
C1006 C 0.86242 0.62725 0.12476 0.0
C1007 C 0.97653 0.55984 0.12879 0.0
H1008 H 0.98557 0.68659 0.09923 0.0
H1009 H 0.96853 0.6784 0.1778 0.0
H1010 H 0.9603 0.60663 0.08136 0.0
H1011 H 0.91914 0.62814 0.08051 0.0
H1012 H 0.95766 0.65074 0.07025 0.0
H1013 H 0.93634 0.63275 0.19557 0.0
H1014 H 0.90147 0.61674 0.17629 0.0
H1015 H 0.94109 0.5927 0.17845 0.0
H1016 H 0.83685 0.56241 0.1184 0.0
H1017 H 0.93315 0.50603 0.12053 0.0
H1018 H 0.87224 0.64525 0.11024 0.0
H1019 H 0.8662 0.64022 0.14298 0.0
H1020 H 0.83414 0.62314 0.12178 0.0
H1021 H 0.98953 0.57579 0.11434 0.0
H1022 H 0.98673 0.53287 0.12764 0.0
H1023 H 0.98379 0.57092 0.14712 0.0
C1024 C 0.66792 0.96512 0.65848 0.0
C1025 C 0.68566 0.97865 0.6379 0.0
C1026 C 0.63751 0.94541 0.65539 0.0
C1027 C 0.62475 0.93903 0.63111 0.0
C1028 C 0.64266 0.95253 0.61027 0.0
C1029 C 0.67254 0.97269 0.61396 0.0
C1030 C 0.61871 0.93197 0.67809 0.0
C1031 C 0.62994 0.94623 0.58407 0.0
C1032 C 0.56113 0.86468 0.62193 0.0
C1033 C 0.52941 0.88247 0.62054 0.0
C1034 C 0.59248 0.88278 0.62518 0.0
C1035 C 0.59189 0.91943 0.62751 0.0
C1036 C 0.5599 0.93751 0.62614 0.0
C1037 C 0.52906 0.91881 0.62242 0.0
C1038 C 0.6262 0.86273 0.626 0.0
C1039 C 0.55819 0.97656 0.62891 0.0
H1040 H 0.67783 0.9702 0.67699 0.0
H1041 H 0.68505 0.98459 0.5981 0.0
H1042 H 0.59203 0.9429 0.67872 0.0
H1043 H 0.61616 0.90328 0.67707 0.0
H1044 H 0.63231 0.93885 0.69563 0.0
H1045 H 0.64828 0.95642 0.56986 0.0
H1046 H 0.62621 0.91798 0.58085 0.0
H1047 H 0.60436 0.95898 0.58138 0.0
H1048 H 0.56151 0.83665 0.62017 0.0
H1049 H 0.50452 0.93262 0.62156 0.0
H1050 H 0.6395 0.86728 0.64401 0.0
H1051 H 0.64387 0.87209 0.61111 0.0
H1052 H 0.6222 0.83432 0.62361 0.0
H1053 H 0.56955 0.98442 0.64703 0.0
H1054 H 0.53114 0.98657 0.62786 0.0
H1055 H 0.5738 0.98923 0.61413 0.0
C1056 C 0.63305 0.55844 0.62301 0.0
C1057 C 0.61439 0.52784 0.61818 0.0
C1058 C 0.61576 0.59007 0.62706 0.0
C1059 C 0.57899 0.59095 0.62657 0.0
C1060 C 0.56004 0.56024 0.62139 0.0
C1061 C 0.57799 0.5291 0.6171 0.0
C1062 C 0.63679 0.62245 0.63214 0.0
C1063 C 0.52078 0.56011 0.62091 0.0
C1064 C 0.53068 0.66226 0.66102 0.0
C1065 C 0.5206 0.684 0.64146 0.0
C1066 C 0.55042 0.63222 0.65652 0.0
C1067 C 0.56013 0.62383 0.63182 0.0
C1068 C 0.55026 0.64594 0.61201 0.0
C1069 C 0.53017 0.6755 0.61705 0.0
C1070 C 0.56005 0.609 0.67808 0.0
C1071 C 0.56009 0.63792 0.58543 0.0
H1072 H 0.6612 0.55766 0.62377 0.0
H1073 H 0.56338 0.50553 0.6135 0.0
H1074 H 0.6298 0.64311 0.61863 0.0
H1075 H 0.63066 0.63251 0.65097 0.0
H1076 H 0.66522 0.61765 0.63096 0.0
H1077 H 0.50998 0.53409 0.61634 0.0
H1078 H 0.51053 0.56824 0.6393 0.0
H1079 H 0.51113 0.57908 0.60699 0.0
H1080 H 0.52266 0.66864 0.67979 0.0
H1081 H 0.52111 0.69154 0.60181 0.0
H1082 H 0.58861 0.60509 0.67863 0.0
H1083 H 0.54794 0.58304 0.6756 0.0
H1084 H 0.5515 0.61985 0.69622 0.0
H1085 H 0.58855 0.63369 0.58395 0.0
H1086 H 0.55253 0.6591 0.57246 0.0
H1087 H 0.54716 0.61357 0.57938 0.0
C1088 C 0.97013 0.5747 0.62331 0.0
C1089 C 0.96927 0.61082 0.61992 0.0
C1090 C 0.93949 0.55586 0.62749 0.0
C1091 C 0.9072 0.57349 0.62767 0.0
C1092 C 0.90613 0.60988 0.62377 0.0
C1093 C 0.93728 0.6282 0.62022 0.0
C1094 C 0.94175 0.51717 0.63206 0.0
C1095 C 0.87208 0.62939 0.62322 0.0
C1096 C 0.8277 0.51799 0.61525 0.0
C1097 C 0.81359 0.51433 0.63915 0.0
C1098 C 0.85754 0.53805 0.61116 0.0
C1099 C 0.87454 0.55367 0.63163 0.0
C1100 C 0.86097 0.54937 0.65592 0.0
C1101 C 0.83052 0.52983 0.65936 0.0
C1102 C 0.87109 0.54216 0.58495 0.0
C1103 C 0.87888 0.56497 0.67827 0.0
H1104 H 0.9949 0.56126 0.62335 0.0
H1105 H 0.93657 0.65606 0.61735 0.0
H1106 H 0.92989 0.51071 0.65029 0.0
H1107 H 0.92687 0.50294 0.61762 0.0
H1108 H 0.96899 0.50757 0.63191 0.0
H1109 H 0.8757 0.65759 0.61959 0.0
H1110 H 0.85498 0.61842 0.60857 0.0
H1111 H 0.85835 0.62625 0.64122 0.0
H1112 H 0.81587 0.50455 0.59976 0.0
H1113 H 0.81989 0.52652 0.67787 0.0
H1114 H 0.897 0.52971 0.5833 0.0
H1115 H 0.87442 0.57013 0.58047 0.0
H1116 H 0.85346 0.53034 0.57093 0.0
H1117 H 0.90577 0.55473 0.67969 0.0
H1118 H 0.86495 0.55919 0.69589 0.0
H1119 H 0.88083 0.59359 0.67613 0.0
C1120 C 0.86689 0.93659 0.62412 0.0
C1121 C 0.88548 0.96712 0.61893 0.0
C1122 C 0.8842 0.905 0.62815 0.0
C1123 C 0.92096 0.90409 0.62731 0.0
C1124 C 0.93985 0.93477 0.62192 0.0
C1125 C 0.92186 0.96588 0.61761 0.0
C1126 C 0.86322 0.87265 0.63343 0.0
C1127 C 0.97911 0.93486 0.62113 0.0
C1128 C 0.96901 0.83198 0.66104 0.0
C1129 C 0.97844 0.81025 0.64129 0.0
C1130 C 0.94974 0.86238 0.65682 0.0
C1131 C 0.93978 0.87112 0.63224 0.0
C1132 C 0.94904 0.84907 0.61225 0.0
C1133 C 0.96873 0.81917 0.617 0.0
C1134 C 0.94078 0.88556 0.67855 0.0
C1135 C 0.93886 0.85745 0.58579 0.0
H1136 H 0.83874 0.93737 0.62504 0.0
H1137 H 0.93637 0.98943 0.61375 0.0
H1138 H 0.86973 0.85209 0.61972 0.0
H1139 H 0.86987 0.86239 0.65211 0.0
H1140 H 0.83477 0.87755 0.63271 0.0
H1141 H 0.98987 0.96092 0.61666 0.0
H1142 H 0.98963 0.92644 0.63938 0.0
H1143 H 0.9885 0.91606 0.60701 0.0
H1144 H 0.97716 0.82528 0.67972 0.0
H1145 H 0.97734 0.80316 0.60161 0.0
H1146 H 0.91226 0.88959 0.6795 0.0
H1147 H 0.95293 0.91148 0.67598 0.0
H1148 H 0.94974 0.87459 0.69656 0.0
H1149 H 0.9104 0.86179 0.58456 0.0
H1150 H 0.94615 0.8364 0.57263 0.0
H1151 H 0.95178 0.88184 0.57979 0.0
C1152 C 0.0298 0.08118 0.87714 0.0
C1153 C 0.02983 0.11754 0.87885 0.0
C1154 C 0.06075 0.06273 0.87333 0.0
C1155 C 0.09257 0.08107 0.87172 0.0
C1156 C 0.09286 0.11775 0.8739 0.0
C1157 C 0.06137 0.13561 0.87721 0.0
C1158 C 0.05933 0.02364 0.87072 0.0
C1159 C 0.12641 0.13807 0.87285 0.0
C1160 C 0.17324 0.02781 0.8851 0.0
C1161 C 0.18606 0.02151 0.86111 0.0
C1162 C 0.14358 0.04827 0.88886 0.0
C1163 C 0.12553 0.06167 0.86805 0.0
C1164 C 0.13804 0.05504 0.84374 0.0
C1165 C 0.16827 0.03508 0.84058 0.0
C1166 C 0.13114 0.05483 0.91509 0.0
C1167 C 0.11907 0.06834 0.82108 0.0
H1168 H 0.00539 0.06714 0.87817 0.0
H1169 H 0.06151 0.16366 0.87882 0.0
H1170 H 0.07064 0.01574 0.85259 0.0
H1171 H 0.07512 0.01121 0.8855 0.0
H1172 H 0.03236 0.01342 0.87189 0.0
H1173 H 0.12219 0.16647 0.87515 0.0
H1174 H 0.14428 0.12898 0.88768 0.0
H1175 H 0.13959 0.13351 0.8548 0.0
H1176 H 0.18573 0.01589 0.90095 0.0
H1177 H 0.17794 0.02975 0.82204 0.0
H1178 H 0.10573 0.04184 0.91806 0.0
H1179 H 0.12716 0.08308 0.91814 0.0
H1180 H 0.14977 0.04503 0.92924 0.0
H1181 H 0.09247 0.0572 0.8205 0.0
H1182 H 0.13265 0.06156 0.8035 0.0
H1183 H 0.1163 0.09701 0.82209 0.0
C1184 C 0.42233 0.03106 0.88026 0.0
C1185 C 0.38591 0.03022 0.87944 0.0
C1186 C 0.44057 0.06201 0.87575 0.0
C1187 C 0.42189 0.09292 0.87068 0.0
C1188 C 0.38511 0.09239 0.87034 0.0
C1189 C 0.36754 0.06097 0.87454 0.0
C1190 C 0.47983 0.06149 0.87599 0.0
C1191 C 0.36433 0.12499 0.86542 0.0
C1192 C 0.47006 0.17778 0.88059 0.0
C1193 C 0.47887 0.18701 0.85618 0.0
C1194 C 0.45072 0.14769 0.88554 0.0
C1195 C 0.44091 0.12576 0.86561 0.0
C1196 C 0.45014 0.13472 0.84092 0.0
C1197 C 0.46908 0.16531 0.83651 0.0
C1198 C 0.44135 0.1391 0.91211 0.0
C1199 C 0.4406 0.11168 0.81924 0.0
H1200 H 0.43667 0.00733 0.88388 0.0
H1201 H 0.33937 0.0605 0.874 0.0
H1202 H 0.48995 0.06992 0.85763 0.0
H1203 H 0.4898 0.0801 0.89004 0.0
H1204 H 0.49042 0.03528 0.88024 0.0
H1205 H 0.33586 0.12037 0.86648 0.0
H1206 H 0.37139 0.14538 0.87913 0.0
H1207 H 0.37065 0.13531 0.8467 0.0
H1208 H 0.47899 0.19377 0.8959 0.0
H1209 H 0.47657 0.17223 0.81773 0.0
H1210 H 0.4541 0.11447 0.91774 0.0
H1211 H 0.41287 0.13514 0.91381 0.0
H1212 H 0.44936 0.15988 0.92528 0.0
H1213 H 0.4525 0.08562 0.82168 0.0
H1214 H 0.44936 0.1226 0.80117 0.0
H1215 H 0.41202 0.10796 0.81854 0.0
C1216 C 0.43633 0.36882 0.87774 0.0
C1217 C 0.4683 0.38619 0.87906 0.0
C1218 C 0.40525 0.38731 0.87443 0.0
C1219 C 0.40634 0.42393 0.87197 0.0
C1220 C 0.43857 0.4416 0.87329 0.0
C1221 C 0.46916 0.42252 0.87707 0.0
C1222 C 0.37125 0.36771 0.87365 0.0
C1223 C 0.4408 0.4806 0.87038 0.0
C1224 C 0.33064 0.46977 0.84074 0.0
C1225 C 0.31286 0.48339 0.86126 0.0
C1226 C 0.36104 0.4501 0.84393 0.0
C1227 C 0.37375 0.44389 0.86824 0.0
C1228 C 0.35587 0.45762 0.88902 0.0
C1229 C 0.32599 0.47772 0.88523 0.0
C1230 C 0.37982 0.4364 0.8213 0.0
C1231 C 0.36854 0.45151 0.91525 0.0
H1232 H 0.43556 0.34079 0.87953 0.0
H1233 H 0.49389 0.436 0.87787 0.0
H1234 H 0.35364 0.37746 0.88844 0.0
H1235 H 0.35811 0.37221 0.85558 0.0
H1236 H 0.37485 0.33927 0.87622 0.0
H1237 H 0.46797 0.49028 0.87149 0.0
H1238 H 0.42966 0.48846 0.8522 0.0
H1239 H 0.42525 0.49357 0.88506 0.0
H1240 H 0.32071 0.47466 0.82221 0.0
H1241 H 0.31344 0.48973 0.90103 0.0
H1242 H 0.38196 0.40768 0.82235 0.0
H1243 H 0.40666 0.44695 0.82076 0.0
H1244 H 0.36643 0.44343 0.80371 0.0
H1245 H 0.37185 0.42325 0.91866 0.0
H1246 H 0.35038 0.46214 0.92941 0.0
H1247 H 0.39432 0.4639 0.91785 0.0
C1248 C 0.13091 0.44025 0.87554 0.0
C1249 C 0.11263 0.47081 0.88114 0.0
C1250 C 0.11325 0.40889 0.87123 0.0
C1251 C 0.07649 0.4083 0.87217 0.0
C1252 C 0.05793 0.43901 0.87801 0.0
C1253 C 0.07626 0.46984 0.88262 0.0
C1254 C 0.13388 0.37647 0.8655 0.0
C1255 C 0.01868 0.43946 0.87891 0.0
C1256 C 0.02738 0.33758 0.83766 0.0
C1257 C 0.01781 0.31548 0.85715 0.0
C1258 C 0.04705 0.36765 0.84221 0.0
C1259 C 0.05727 0.37566 0.86687 0.0
C1260 C 0.04778 0.35327 0.88661 0.0
C1261 C 0.02768 0.32374 0.88154 0.0
C1262 C 0.05618 0.39125 0.82074 0.0
C1263 C 0.05819 0.36086 0.91314 0.0
H1264 H 0.15905 0.44083 0.87448 0.0
H1265 H 0.06197 0.49343 0.88678 0.0
H1266 H 0.12716 0.35562 0.87893 0.0
H1267 H 0.1271 0.36679 0.84668 0.0
H1268 H 0.16238 0.38107 0.86626 0.0
H1269 H 0.00821 0.46551 0.88377 0.0
H1270 H 0.00798 0.43164 0.86059 0.0
H1271 H 0.00917 0.42039 0.89281 0.0
H1272 H 0.01909 0.33139 0.81892 0.0
H1273 H 0.01896 0.30744 0.89674 0.0
H1274 H 0.08475 0.39492 0.81976 0.0
H1275 H 0.0444 0.41726 0.82369 0.0
H1276 H 0.04696 0.38085 0.80263 0.0
H1277 H 0.08672 0.36477 0.91435 0.0
H1278 H 0.05066 0.3396 0.92606 0.0
H1279 H 0.04565 0.38527 0.91948 0.0
C1280 C 0.68931 0.20026 0.39792 0.0
C1281 C 0.66364 0.21395 0.3822 0.0
C1282 C 0.72317 0.21355 0.39782 0.0
C1283 C 0.73173 0.2408 0.38126 0.0
C1284 C 0.70603 0.25461 0.36519 0.0
C1285 C 0.67208 0.24121 0.36602 0.0
C1286 C 0.74967 0.19867 0.41563 0.0
C1287 C 0.71443 0.28341 0.34708 0.0
C1288 C 0.80878 0.29739 0.39773 0.0
C1289 C 0.83533 0.28272 0.38326 0.0
C1290 C 0.77497 0.28403 0.39721 0.0
C1291 C 0.76734 0.25559 0.38148 0.0
C1292 C 0.7939 0.24075 0.36663 0.0
C1293 C 0.82776 0.25433 0.36786 0.0
C1294 C 0.74754 0.30019 0.41369 0.0
C1295 C 0.78648 0.21066 0.3494 0.0
H1296 H 0.68287 0.17926 0.41056 0.0
H1297 H 0.65235 0.25163 0.35371 0.0
H1298 H 0.77224 0.18828 0.40516 0.0
H1299 H 0.75955 0.21948 0.42805 0.0
H1300 H 0.73875 0.17748 0.4273 0.0
H1301 H 0.69184 0.29036 0.33522 0.0
H1302 H 0.7229 0.30695 0.35735 0.0
H1303 H 0.73632 0.27545 0.3349 0.0
H1304 H 0.81444 0.3193 0.40966 0.0
H1305 H 0.84812 0.24309 0.35648 0.0
H1306 H 0.737 0.28032 0.42662 0.0
H1307 H 0.72554 0.30973 0.40225 0.0
H1308 H 0.75783 0.32226 0.42482 0.0
H1309 H 0.77746 0.18789 0.36028 0.0
H1310 H 0.80971 0.2029 0.33845 0.0
H1311 H 0.76528 0.21768 0.33634 0.0
C1312 C 0.25471 0.6703 0.37022 0.0
C1313 C 0.2841 0.66258 0.38456 0.0
C1314 C 0.24129 0.70425 0.36946 0.0
C1315 C 0.25733 0.73075 0.38373 0.0
C1316 C 0.28669 0.72291 0.39851 0.0
C1317 C 0.29988 0.68901 0.39858 0.0
C1318 C 0.21013 0.71185 0.35328 0.0
C1319 C 0.30407 0.75026 0.4144 0.0
C1320 C 0.24254 0.82599 0.36823 0.0
C1321 C 0.21608 0.83462 0.385 0.0
C1322 C 0.25585 0.792 0.36726 0.0
C1323 C 0.24288 0.76651 0.38388 0.0
C1324 C 0.21666 0.77538 0.40118 0.0
C1325 C 0.20332 0.80922 0.40133 0.0
C1326 C 0.28345 0.78325 0.34831 0.0
C1327 C 0.2028 0.74919 0.41964 0.0
H1328 H 0.24262 0.64999 0.35923 0.0
H1329 H 0.32254 0.68317 0.4098 0.0
H1330 H 0.18823 0.72121 0.36491 0.0
H1331 H 0.21648 0.73288 0.33989 0.0
H1332 H 0.20137 0.68862 0.34272 0.0
H1333 H 0.32653 0.73976 0.42501 0.0
H1334 H 0.31335 0.77199 0.40257 0.0
H1335 H 0.28506 0.76126 0.42777 0.0
H1336 H 0.25217 0.84553 0.35543 0.0
H1337 H 0.18295 0.81587 0.41442 0.0
H1338 H 0.27447 0.7615 0.33637 0.0
H1339 H 0.30744 0.77444 0.35785 0.0
H1340 H 0.29001 0.80578 0.33626 0.0
H1341 H 0.19133 0.7267 0.40967 0.0
H1342 H 0.18267 0.76046 0.43208 0.0
H1343 H 0.22437 0.73908 0.43127 0.0
C1344 C 0.30945 0.70064 0.10002 0.0
C1345 C 0.33484 0.71471 0.11582 0.0
C1346 C 0.2755 0.71368 0.09981 0.0
C1347 C 0.26654 0.74108 0.11612 0.0
C1348 C 0.29197 0.75535 0.13221 0.0
C1349 C 0.32602 0.74219 0.13171 0.0
C1350 C 0.2493 0.69828 0.08199 0.0
C1351 C 0.28314 0.78435 0.15005 0.0
C1352 C 0.18895 0.79704 0.09973 0.0
C1353 C 0.16275 0.78247 0.1146 0.0
C1354 C 0.22277 0.78366 0.09995 0.0
C1355 C 0.23074 0.75539 0.11576 0.0
C1356 C 0.20442 0.74048 0.13081 0.0
C1357 C 0.17055 0.75402 0.12986 0.0
C1358 C 0.24993 0.79975 0.08322 0.0
C1359 C 0.21218 0.71053 0.14809 0.0
H1360 H 0.31617 0.67949 0.0876 0.0
H1361 H 0.34552 0.75292 0.14407 0.0
H1362 H 0.22684 0.68764 0.09245 0.0
H1363 H 0.23916 0.71884 0.06947 0.0
H1364 H 0.26058 0.67716 0.07042 0.0
H1365 H 0.30562 0.79184 0.16187 0.0
H1366 H 0.27436 0.80758 0.13957 0.0
H1367 H 0.26136 0.77629 0.16229 0.0
H1368 H 0.183 0.81895 0.08779 0.0
H1369 H 0.1504 0.7429 0.1415 0.0
H1370 H 0.26089 0.77969 0.07064 0.0
H1371 H 0.2717 0.81007 0.09455 0.0
H1372 H 0.23927 0.82126 0.07172 0.0
H1373 H 0.22178 0.68792 0.13729 0.0
H1374 H 0.18897 0.70235 0.1589 0.0
H1375 H 0.23307 0.71799 0.16128 0.0
C1376 C 0.7556 0.32631 0.13366 0.0
C1377 C 0.78313 0.33509 0.11781 0.0
C1378 C 0.74247 0.29224 0.13426 0.0
C1379 C 0.75685 0.2667 0.11829 0.0
C1380 C 0.78438 0.27559 0.10206 0.0
C1381 C 0.79736 0.30959 0.10217 0.0
C1382 C 0.71334 0.28351 0.152 0.0
C1383 C 0.79993 0.24928 0.08439 0.0
C1384 C 0.74381 0.17061 0.13181 0.0
C1385 C 0.71569 0.16276 0.11624 0.0
C1386 C 0.75719 0.20456 0.13299 0.0
C1387 C 0.74246 0.23091 0.1179 0.0
C1388 C 0.71442 0.22292 0.10188 0.0
C1389 C 0.70121 0.18903 0.10141 0.0
C1390 C 0.78688 0.2123 0.15049 0.0
C1391 C 0.69849 0.25013 0.08511 0.0
H1392 H 0.74473 0.3459 0.1459 0.0
H1393 H 0.81856 0.31626 0.08978 0.0
H1394 H 0.69015 0.27478 0.14144 0.0
H1395 H 0.72124 0.2617 0.16428 0.0
H1396 H 0.70585 0.30602 0.16378 0.0
H1397 H 0.82121 0.26047 0.07294 0.0
H1398 H 0.81037 0.22683 0.09496 0.0
H1399 H 0.77949 0.23914 0.07176 0.0
H1400 H 0.75488 0.15042 0.14343 0.0
H1401 H 0.67955 0.18305 0.08923 0.0
H1402 H 0.77933 0.23333 0.16355 0.0
H1403 H 0.80971 0.22172 0.13984 0.0
H1404 H 0.79479 0.18913 0.16145 0.0
H1405 H 0.68822 0.27196 0.09641 0.0
H1406 H 0.67699 0.23953 0.07358 0.0
H1407 H 0.71864 0.261 0.07256 0.0
C1408 C 0.18818 0.69977 0.59937 0.0
C1409 C 0.16255 0.71432 0.61474 0.0
C1410 C 0.22223 0.71256 0.59941 0.0
C1411 C 0.23102 0.74023 0.61553 0.0
C1412 C 0.20527 0.75517 0.63106 0.0
C1413 C 0.17114 0.74221 0.63031 0.0
C1414 C 0.24877 0.69645 0.58219 0.0
C1415 C 0.21389 0.78453 0.64864 0.0
C1416 C 0.32675 0.7519 0.63082 0.0
C1417 C 0.33557 0.77979 0.61531 0.0
C1418 C 0.2926 0.73898 0.63135 0.0
C1419 C 0.26706 0.75397 0.61567 0.0
C1420 C 0.27608 0.78166 0.59963 0.0
C1421 C 0.31014 0.79441 0.5998 0.0
C1422 C 0.28373 0.7096 0.64885 0.0
C1423 C 0.24978 0.79783 0.58225 0.0
H1424 H 0.18162 0.67829 0.58718 0.0
H1425 H 0.15143 0.7533 0.64234 0.0
H1426 H 0.25979 0.71664 0.56973 0.0
H1427 H 0.27061 0.68551 0.59314 0.0
H1428 H 0.23751 0.6754 0.57054 0.0
H1429 H 0.19105 0.79282 0.65982 0.0
H1430 H 0.23492 0.77638 0.66151 0.0
H1431 H 0.22365 0.80726 0.63804 0.0
H1432 H 0.3463 0.74075 0.64295 0.0
H1433 H 0.31688 0.81588 0.58767 0.0
H1434 H 0.27415 0.68688 0.63815 0.0
H1435 H 0.26249 0.71771 0.66155 0.0
H1436 H 0.3064 0.70131 0.66019 0.0
H1437 H 0.23894 0.77768 0.56968 0.0
H1438 H 0.26118 0.81892 0.57073 0.0
H1439 H 0.22777 0.80872 0.59307 0.0
C1440 C 0.79702 0.18648 0.5943 0.0
C1441 C 0.78243 0.16063 0.60945 0.0
C1442 C 0.78434 0.22059 0.59468 0.0
C1443 C 0.75588 0.22887 0.61023 0.0
C1444 C 0.74023 0.20264 0.62496 0.0
C1445 C 0.75375 0.16874 0.62442 0.0
C1446 C 0.80162 0.24777 0.57858 0.0
C1447 C 0.70951 0.21051 0.6415 0.0
C1448 C 0.74194 0.32316 0.62871 0.0
C1449 C 0.71564 0.33313 0.61218 0.0
C1450 C 0.75547 0.28925 0.62821 0.0
C1451 C 0.74224 0.26493 0.61083 0.0
C1452 C 0.71614 0.2751 0.59382 0.0
C1453 C 0.70343 0.30917 0.59455 0.0
C1454 C 0.78365 0.27933 0.64641 0.0
C1455 C 0.70143 0.24997 0.57495 0.0
H1456 H 0.81851 0.18008 0.58212 0.0
H1457 H 0.74236 0.14881 0.63611 0.0
H1458 H 0.78282 0.25777 0.56468 0.0
H1459 H 0.80998 0.27017 0.59013 0.0
H1460 H 0.82467 0.23741 0.56858 0.0
H1461 H 0.69996 0.18706 0.65145 0.0
H1462 H 0.71682 0.23046 0.65546 0.0
H1463 H 0.6879 0.22139 0.63028 0.0
H1464 H 0.75153 0.34164 0.64229 0.0
H1465 H 0.68382 0.31702 0.58123 0.0
H1466 H 0.80689 0.26989 0.63622 0.0
H1467 H 0.77453 0.25771 0.65841 0.0
H1468 H 0.79149 0.30144 0.65847 0.0
H1469 H 0.72225 0.24135 0.56209 0.0
H1470 H 0.68008 0.26164 0.56382 0.0
H1471 H 0.6913 0.22645 0.58445 0.0
C1472 C 0.82601 0.24767 0.87086 0.0
C1473 C 0.8339 0.21628 0.88281 0.0
C1474 C 0.79185 0.26059 0.8707 0.0
C1475 C 0.7652 0.24175 0.88295 0.0
C1476 C 0.77313 0.21025 0.89522 0.0
C1477 C 0.80731 0.19786 0.89494 0.0
C1478 C 0.78421 0.29432 0.85743 0.0
C1479 C 0.74552 0.18962 0.90872 0.0
C1480 C 0.68444 0.29005 0.90351 0.0
C1481 C 0.66058 0.28094 0.88491 0.0
C1482 C 0.7186 0.27756 0.90304 0.0
C1483 C 0.7291 0.2553 0.88351 0.0
C1484 C 0.70494 0.24537 0.86493 0.0
C1485 C 0.6708 0.25823 0.86591 0.0
C1486 C 0.74345 0.28834 0.92338 0.0
C1487 C 0.7153 0.22159 0.84386 0.0
H1488 H 0.84642 0.26192 0.8614 0.0
H1489 H 0.81318 0.17363 0.90433 0.0
H1490 H 0.76411 0.29005 0.84295 0.0
H1491 H 0.7736 0.3136 0.87077 0.0
H1492 H 0.80771 0.30553 0.84849 0.0
H1493 H 0.75604 0.16556 0.91734 0.0
H1494 H 0.7336 0.20578 0.92354 0.0
H1495 H 0.72446 0.18228 0.89564 0.0
H1496 H 0.67639 0.30708 0.9185 0.0
H1497 H 0.65242 0.2513 0.85146 0.0
H1498 H 0.76636 0.30163 0.9152 0.0
H1499 H 0.75315 0.26502 0.93335 0.0
H1500 H 0.73117 0.3061 0.93712 0.0
H1501 H 0.73706 0.23334 0.83323 0.0
H1502 H 0.69343 0.21643 0.83088 0.0
H1503 H 0.72472 0.19643 0.85136 0.0
C1504 C 0.25484 0.82851 0.87292 0.0
C1505 C 0.28035 0.83817 0.89015 0.0
C1506 C 0.24168 0.79446 0.87253 0.0
C1507 C 0.25403 0.76984 0.89004 0.0
C1508 C 0.27907 0.77983 0.90793 0.0
C1509 C 0.29197 0.81388 0.90773 0.0
C1510 C 0.21509 0.78463 0.85311 0.0
C1511 C 0.29239 0.75453 0.92718 0.0
C1512 C 0.19732 0.69139 0.90285 0.0
C1513 C 0.21395 0.6654 0.8889 0.0
C1514 C 0.21034 0.72535 0.90362 0.0
C1515 C 0.24049 0.7337 0.88982 0.0
C1516 C 0.25761 0.70757 0.87584 0.0
C1517 C 0.24425 0.67357 0.8757 0.0
C1518 C 0.19171 0.75233 0.9191 0.0
C1519 C 0.28972 0.71568 0.86077 0.0
H1520 H 0.24599 0.84723 0.85924 0.0
H1521 H 0.31126 0.82153 0.92137 0.0
H1522 H 0.22527 0.76312 0.84144 0.0
H1523 H 0.19105 0.77506 0.86221 0.0
H1524 H 0.20824 0.80682 0.84082 0.0
H1525 H 0.3119 0.76651 0.93978 0.0
H1526 H 0.27045 0.74464 0.93855 0.0
H1527 H 0.30449 0.73179 0.9179 0.0
H1528 H 0.17398 0.6852 0.91325 0.0
H1529 H 0.25708 0.6536 0.86482 0.0
H1530 H 0.18229 0.77369 0.907 0.0
H1531 H 0.20991 0.76396 0.93278 0.0
H1532 H 0.16915 0.7413 0.92933 0.0
H1533 H 0.28372 0.73609 0.84683 0.0
H1534 H 0.29994 0.69245 0.8509 0.0
H1535 H 0.31043 0.72608 0.87305 0.0
C1536 C 0.69399 0.0406 0.4406 0.0
C1537 C 0.66316 0.05648 0.44855 0.0
C1538 C 0.72129 0.03426 0.4574 0.0
C1539 C 0.71755 0.04435 0.48259 0.0
C1540 C 0.68568 0.05875 0.49087 0.0
C1541 C 0.65875 0.06417 0.47378 0.0
C1542 C 0.7545 0.01801 0.44804 0.0
C1543 C 0.68046 0.06977 0.51758 0.0
C1544 C 0.77195 0.01365 0.53685 0.0
C1545 C 0.79263 0.04297 0.54133 0.0
C1546 C 0.74938 0.01237 0.5164 0.0
C1547 C 0.74707 0.04144 0.50035 0.0
C1548 C 0.76994 0.06999 0.50372 0.0
C1549 C 0.79276 0.07026 0.52412 0.0
C1550 C 0.72614 0.98107 0.51316 0.0
C1551 C 0.76812 0.10163 0.48715 0.0
H1552 H 0.69721 0.03449 0.42106 0.0
H1553 H 0.63447 0.07552 0.47996 0.0
H1554 H 0.77567 0.0376 0.44834 0.0
H1555 H 0.76254 0.99631 0.46036 0.0
H1556 H 0.75181 0.00801 0.42875 0.0
H1557 H 0.65397 0.08024 0.52099 0.0
H1558 H 0.6848 0.0474 0.53021 0.0
H1559 H 0.69973 0.09011 0.52254 0.0
H1560 H 0.77236 0.99228 0.54997 0.0
H1561 H 0.80861 0.09304 0.52769 0.0
H1562 H 0.72437 0.97356 0.49328 0.0
H1563 H 0.69951 0.98752 0.5196 0.0
H1564 H 0.73557 0.9584 0.52404 0.0
H1565 H 0.76808 0.09389 0.46729 0.0
H1566 H 0.79016 0.11974 0.49041 0.0
H1567 H 0.74348 0.11577 0.49077 0.0
C1568 C 0.4839 0.76175 0.5433 0.0
C1569 C 0.45566 0.78443 0.54619 0.0
C1570 C 0.48624 0.73964 0.52263 0.0
C1571 C 0.4591 0.7395 0.50487 0.0
C1572 C 0.43164 0.76396 0.50691 0.0
C1573 C 0.4305 0.78649 0.52745 0.0
C1574 C 0.51649 0.71476 0.52081 0.0
C1575 C 0.40185 0.76427 0.48863 0.0
C1576 C 0.46216 0.68841 0.44428 0.0
C1577 C 0.44385 0.65835 0.45097 0.0
C1578 C 0.46891 0.7146 0.4619 0.0
C1579 C 0.4565 0.71063 0.48655 0.0
C1580 C 0.43975 0.67935 0.49361 0.0
C1581 C 0.43432 0.65334 0.47582 0.0
C1582 C 0.48806 0.74697 0.45395 0.0
C1583 C 0.42597 0.67397 0.51964 0.0
H1584 H 0.50354 0.76032 0.55772 0.0
H1585 H 0.40849 0.80376 0.5298 0.0
H1586 H 0.50804 0.68845 0.52671 0.0
H1587 H 0.52589 0.7128 0.50135 0.0
H1588 H 0.53847 0.72286 0.53291 0.0
H1589 H 0.38441 0.78697 0.4914 0.0
H1590 H 0.41173 0.76469 0.46927 0.0
H1591 H 0.38631 0.74014 0.49088 0.0
H1592 H 0.46985 0.69203 0.42507 0.0
H1593 H 0.42136 0.62947 0.48111 0.0
H1594 H 0.50869 0.75351 0.4676 0.0
H1595 H 0.46975 0.76923 0.45334 0.0
H1596 H 0.50007 0.74401 0.43528 0.0
H1597 H 0.44735 0.67638 0.53337 0.0
H1598 H 0.41353 0.64811 0.52203 0.0
H1599 H 0.40651 0.69435 0.52406 0.0
C1600 C 0.79571 0.42405 0.44049 0.0
C1601 C 0.82768 0.44117 0.44266 0.0
C1602 C 0.76967 0.4284 0.45843 0.0
C1603 C 0.77547 0.45136 0.47858 0.0
C1604 C 0.80623 0.4717 0.47922 0.0
C1605 C 0.8322 0.46615 0.46126 0.0
C1606 C 0.7376 0.40584 0.45709 0.0
C1607 C 0.813 0.49715 0.50002 0.0
C1608 C 0.70201 0.46716 0.52499 0.0
C1609 C 0.71183 0.44473 0.54423 0.0
C1610 C 0.72257 0.46999 0.50338 0.0
C1611 C 0.75286 0.44922 0.50098 0.0
C1612 C 0.76201 0.42578 0.52021 0.0
C1613 C 0.74165 0.42426 0.54172 0.0
C1614 C 0.71252 0.4958 0.48353 0.0
C1615 C 0.79351 0.40245 0.51822 0.0
H1616 H 0.79198 0.40564 0.42546 0.0
H1617 H 0.85685 0.47966 0.46263 0.0
H1618 H 0.73942 0.38507 0.47136 0.0
H1619 H 0.71388 0.42121 0.46113 0.0
H1620 H 0.73466 0.39332 0.43859 0.0
H1621 H 0.83456 0.51528 0.49545 0.0
H1622 H 0.78928 0.5125 0.50419 0.0
H1623 H 0.82012 0.4827 0.51714 0.0
H1624 H 0.6791 0.48327 0.52723 0.0
H1625 H 0.74905 0.40692 0.55673 0.0
H1626 H 0.7106 0.48274 0.46519 0.0
H1627 H 0.73302 0.51599 0.48192 0.0
H1628 H 0.68737 0.50877 0.48764 0.0
H1629 H 0.79218 0.3868 0.5009 0.0
H1630 H 0.79585 0.38442 0.53427 0.0
H1631 H 0.81746 0.41845 0.51724 0.0
C1632 C 0.0148 0.73162 0.54199 0.0
C1633 C 0.04318 0.70919 0.54519 0.0
C1634 C 0.01287 0.75395 0.52143 0.0
C1635 C 0.04052 0.75453 0.50408 0.0
C1636 C 0.06812 0.73029 0.50637 0.0
C1637 C 0.06889 0.70756 0.52681 0.0
C1638 C 0.98248 0.77861 0.51933 0.0
C1639 C 0.09841 0.73044 0.48852 0.0
C1640 C 0.03824 0.80648 0.44384 0.0
C1641 C 0.05604 0.83667 0.45095 0.0
C1642 C 0.03151 0.77992 0.46118 0.0
C1643 C 0.04337 0.78364 0.48597 0.0
C1644 C 0.05965 0.81499 0.49344 0.0
C1645 C 0.06512 0.84134 0.47592 0.0
C1646 C 0.01291 0.74744 0.45277 0.0
C1647 C 0.07279 0.82013 0.51967 0.0
H1648 H 0.99474 0.73271 0.55613 0.0
H1649 H 0.09101 0.69051 0.5294 0.0
H1650 H 0.99059 0.80493 0.52547 0.0
H1651 H 0.97358 0.7807 0.49976 0.0
H1652 H 0.96025 0.77024 0.53109 0.0
H1653 H 0.11588 0.70777 0.49134 0.0
H1654 H 0.08908 0.7303 0.46901 0.0
H1655 H 0.11377 0.75459 0.4912 0.0
H1656 H 0.03091 0.8031 0.42454 0.0
H1657 H 0.07769 0.86528 0.48153 0.0
H1658 H 0.9919 0.74062 0.46605 0.0
H1659 H 0.03142 0.72534 0.45239 0.0
H1660 H 0.00148 0.75044 0.43392 0.0
H1661 H 0.05113 0.81734 0.53312 0.0
H1662 H 0.08495 0.84606 0.52238 0.0
H1663 H 0.09233 0.79985 0.52417 0.0
C1664 C 0.27152 0.98542 0.96216 0.0
C1665 C 0.29209 0.95603 0.95768 0.0
C1666 C 0.24909 0.98683 0.9827 0.0
C1667 C 0.24675 0.95781 0.9988 0.0
C1668 C 0.26948 0.92917 0.99539 0.0
C1669 C 0.2922 0.92879 0.97493 0.0
C1670 C 0.22603 0.01825 0.986 0.0
C1671 C 0.26762 0.89756 0.01198 0.0
C1672 C 0.1942 0.95849 0.05882 0.0
C1673 C 0.16329 0.94265 0.05097 0.0
C1674 C 0.22132 0.96497 0.04188 0.0
C1675 C 0.21733 0.95504 0.01667 0.0
C1676 C 0.18535 0.94074 0.00852 0.0
C1677 C 0.15859 0.93521 0.02573 0.0
C1678 C 0.25463 0.98116 0.05112 0.0
C1679 C 0.17987 0.92983 0.98181 0.0
H1680 H 0.27194 0.00675 0.94902 0.0
H1681 H 0.30795 0.90594 0.97135 0.0
H1682 H 0.19934 0.01194 0.97961 0.0
H1683 H 0.22438 0.02576 0.00589 0.0
H1684 H 0.23554 0.04088 0.9751 0.0
H1685 H 0.28949 0.8793 0.00861 0.0
H1686 H 0.26784 0.90532 0.03184 0.0
H1687 H 0.24284 0.88358 0.0085 0.0
H1688 H 0.19764 0.96443 0.07836 0.0
H1689 H 0.13425 0.92392 0.01964 0.0
H1690 H 0.2627 0.00278 0.03873 0.0
H1691 H 0.27572 0.9615 0.05082 0.0
H1692 H 0.25205 0.99126 0.07039 0.0
H1693 H 0.18421 0.95223 0.9692 0.0
H1694 H 0.15331 0.91949 0.97849 0.0
H1695 H 0.199 0.90944 0.97672 0.0
C1696 C 0.53776 0.18574 0.05314 0.0
C1697 C 0.55799 0.15687 0.04656 0.0
C1698 C 0.53035 0.21195 0.03567 0.0
C1699 C 0.54403 0.2093 0.01128 0.0
C1700 C 0.56293 0.17924 0.0043 0.0
C1701 C 0.56896 0.15309 0.02189 0.0
C1702 C 0.50892 0.24292 0.04351 0.0
C1703 C 0.57812 0.17531 0.97853 0.0
C1704 C 0.51513 0.25992 0.95465 0.0
C1705 C 0.54173 0.28469 0.95261 0.0
C1706 C 0.51372 0.23705 0.97493 0.0
C1707 C 0.54022 0.23829 0.99316 0.0
C1708 C 0.56595 0.26466 0.99195 0.0
C1709 C 0.56609 0.28791 0.97181 0.0
C1710 C 0.48521 0.21009 0.97587 0.0
C1711 C 0.59506 0.26646 0.01074 0.0
H1712 H 0.52889 0.18839 0.07217 0.0
H1713 H 0.58325 0.13003 0.01656 0.0
H1714 H 0.52568 0.26635 0.0444 0.0
H1715 H 0.48823 0.24816 0.02963 0.0
H1716 H 0.49669 0.23903 0.06202 0.0
H1717 H 0.59245 0.15044 0.97622 0.0
H1718 H 0.55719 0.17644 0.96438 0.0
H1719 H 0.59626 0.1971 0.97468 0.0
H1720 H 0.4961 0.25756 0.93987 0.0
H1721 H 0.58685 0.30686 0.97013 0.0
H1722 H 0.4752 0.20708 0.9951 0.0
H1723 H 0.49572 0.18454 0.96993 0.0
H1724 H 0.46322 0.21686 0.96338 0.0
H1725 H 0.58456 0.26581 0.02993 0.0
H1726 H 0.6111 0.29029 0.00852 0.0
H1727 H 0.61219 0.24343 0.00851 0.0
C1728 C 0.207 0.57357 0.97502 0.0
C1729 C 0.20641 0.54632 0.9578 0.0
C1730 C 0.2298 0.57266 0.99541 0.0
C1731 C 0.25191 0.54351 0.99872 0.0
C1732 C 0.24882 0.51454 0.98266 0.0
C1733 C 0.22629 0.51645 0.96222 0.0
C1734 C 0.23247 0.60421 0.012 0.0
C1735 C 0.27122 0.48263 0.98586 0.0
C1736 C 0.34075 0.56445 0.02505 0.0
C1737 C 0.33619 0.5571 0.05031 0.0
C1738 C 0.31372 0.55937 0.00801 0.0
C1739 C 0.28158 0.54569 0.01638 0.0
C1740 C 0.27768 0.53583 0.04161 0.0
C1741 C 0.30511 0.5418 0.05836 0.0
C1742 C 0.31909 0.57013 0.98126 0.0
C1743 C 0.24417 0.52032 0.05106 0.0
H1744 H 0.19181 0.59678 0.97148 0.0
H1745 H 0.22531 0.49513 0.94907 0.0
H1746 H 0.23239 0.59645 0.03186 0.0
H1747 H 0.25744 0.61775 0.00835 0.0
H1748 H 0.21088 0.62287 0.00879 0.0
H1749 H 0.26108 0.46019 0.97506 0.0
H1750 H 0.29796 0.48834 0.97927 0.0
H1751 H 0.27299 0.47515 0.00574 0.0
H1752 H 0.3652 0.57541 0.01884 0.0
H1753 H 0.30178 0.53598 0.07793 0.0
H1754 H 0.30035 0.59094 0.97629 0.0
H1755 H 0.3141 0.54782 0.96868 0.0
H1756 H 0.34584 0.57987 0.97775 0.0
H1757 H 0.22351 0.54044 0.05096 0.0
H1758 H 0.24681 0.5101 0.07029 0.0
H1759 H 0.23546 0.49893 0.0387 0.0
C1760 C 0.92883 0.34658 0.02293 0.0
C1761 C 0.93915 0.34186 0.04766 0.0
C1762 C 0.93439 0.32067 0.00509 0.0
C1763 C 0.95199 0.28977 0.01194 0.0
C1764 C 0.96494 0.28604 0.03645 0.0
C1765 C 0.95814 0.31213 0.05413 0.0
C1766 C 0.92006 0.32578 0.97918 0.0
C1767 C 0.98488 0.25404 0.0442 0.0
C1768 C 0.92811 0.21312 0.97107 0.0
C1769 C 0.95332 0.2157 0.9524 0.0
C1770 C 0.92852 0.23584 0.99152 0.0
C1771 C 0.95523 0.26111 0.9935 0.0
C1772 C 0.98239 0.2617 0.97576 0.0
C1773 C 0.98083 0.2393 0.95522 0.0
C1774 C 0.89874 0.23473 0.0098 0.0
C1775 C 0.01185 0.28754 0.9775 0.0
H1776 H 0.91536 0.37022 0.01777 0.0
H1777 H 0.96643 0.30872 0.07323 0.0
H1778 H 0.94127 0.32397 0.96528 0.0
H1779 H 0.90105 0.30491 0.97488 0.0
H1780 H 0.90692 0.35132 0.97695 0.0
H1781 H 0.99664 0.25694 0.06295 0.0
H1782 H 0.96719 0.23127 0.04447 0.0
H1783 H 0.0058 0.24835 0.03058 0.0
H1784 H 0.90664 0.19519 0.96877 0.0
H1785 H 0.0005 0.24117 0.94083 0.0
H1786 H 0.88251 0.25838 0.00752 0.0
H1787 H 0.90863 0.23466 0.02917 0.0
H1788 H 0.88197 0.21152 0.00708 0.0
H1789 H 0.00242 0.31365 0.97191 0.0
H1790 H 0.03388 0.28038 0.96516 0.0
H1791 H 0.02149 0.28952 0.99689 0.0
C1792 C 0.34314 0.93038 0.52528 0.0
C1793 C 0.33793 0.93778 0.55048 0.0
C1794 C 0.31661 0.93563 0.50784 0.0
C1795 C 0.2843 0.94945 0.51573 0.0
C1796 C 0.27972 0.95921 0.54093 0.0
C1797 C 0.30666 0.95313 0.55807 0.0
C1798 C 0.32271 0.92498 0.48115 0.0
C1799 C 0.24599 0.97476 0.54992 0.0
C1800 C 0.22981 0.98009 0.46139 0.0
C1801 C 0.20952 0.95058 0.45664 0.0
C1802 C 0.25245 0.98127 0.48182 0.0
C1803 C 0.25515 0.95197 0.49762 0.0
C1804 C 0.23281 0.92309 0.49391 0.0
C1805 C 0.21001 0.92287 0.4735 0.0
C1806 C 0.27519 0.01287 0.48539 0.0
C1807 C 0.23504 0.89121 0.51022 0.0
H1808 H 0.36772 0.91937 0.51941 0.0
H1809 H 0.30281 0.95896 0.57759 0.0
H1810 H 0.30409 0.90419 0.47588 0.0
H1811 H 0.31807 0.94733 0.46855 0.0
H1812 H 0.34954 0.91523 0.478 0.0
H1813 H 0.24795 0.98448 0.56932 0.0
H1814 H 0.23796 0.99653 0.53766 0.0
H1815 H 0.22516 0.95484 0.54913 0.0
H1816 H 0.22889 0.0018 0.44859 0.0
H1817 H 0.19456 0.89991 0.46971 0.0
H1818 H 0.30207 0.00679 0.4793 0.0
H1819 H 0.27636 0.02032 0.5053 0.0
H1820 H 0.26575 0.03547 0.47443 0.0
H1821 H 0.26007 0.8777 0.50674 0.0
H1822 H 0.21348 0.87266 0.50658 0.0
H1823 H 0.2345 0.89862 0.53014 0.0
C1824 C 0.52988 0.31259 0.5519 0.0
C1825 C 0.56315 0.32516 0.55725 0.0
C1826 C 0.52523 0.28526 0.53483 0.0
C1827 C 0.55449 0.27135 0.52224 0.0
C1828 C 0.58829 0.28285 0.52869 0.0
C1829 C 0.59216 0.30946 0.54623 0.0
C1830 C 0.48889 0.27296 0.52903 0.0
C1831 C 0.6202 0.26945 0.5154 0.0
C1832 C 0.55307 0.19462 0.47738 0.0
C1833 C 0.54992 0.21187 0.45451 0.0
C1834 C 0.55256 0.21336 0.4999 0.0
C1835 C 0.5498 0.25011 0.49936 0.0
C1836 C 0.54571 0.2674 0.47632 0.0
C1837 C 0.54551 0.24809 0.45431 0.0
C1838 C 0.55595 0.19396 0.52416 0.0
C1839 C 0.54337 0.3066 0.4747 0.0
H1840 H 0.50756 0.32498 0.56043 0.0
H1841 H 0.61781 0.31983 0.55005 0.0
H1842 H 0.48028 0.28426 0.51108 0.0
H1843 H 0.48821 0.24424 0.52711 0.0
H1844 H 0.47009 0.28092 0.54365 0.0
H1845 H 0.64466 0.27904 0.52398 0.0
H1846 H 0.62058 0.24064 0.51545 0.0
H1847 H 0.6196 0.27803 0.4957 0.0
H1848 H 0.55632 0.16663 0.47767 0.0
H1849 H 0.54336 0.26178 0.43676 0.0
H1850 H 0.53704 0.204 0.53799 0.0
H1851 H 0.58236 0.198 0.53191 0.0
H1852 H 0.55175 0.16558 0.52176 0.0
H1853 H 0.52163 0.31628 0.48632 0.0
H1854 H 0.53932 0.31587 0.45535 0.0
H1855 H 0.56767 0.3184 0.48196 0.0
C1856 C 0.27042 0.51612 0.46114 0.0
C1857 C 0.29006 0.54603 0.45629 0.0
C1858 C 0.24788 0.51455 0.4816 0.0
C1859 C 0.24459 0.54387 0.49733 0.0
C1860 C 0.26631 0.5732 0.49352 0.0
C1861 C 0.28906 0.57381 0.47308 0.0
C1862 C 0.22581 0.4825 0.48527 0.0
C1863 C 0.26343 0.60511 0.50974 0.0
C1864 C 0.1561 0.56375 0.52481 0.0
C1865 C 0.1614 0.55661 0.55004 0.0
C1866 C 0.18278 0.55897 0.50742 0.0
C1867 C 0.21536 0.5459 0.5154 0.0
C1868 C 0.22007 0.53637 0.54063 0.0
C1869 C 0.19296 0.54196 0.55772 0.0
C1870 C 0.17653 0.56934 0.48069 0.0
C1871 C 0.25411 0.52161 0.54971 0.0
H1872 H 0.27175 0.49439 0.44836 0.0
H1873 H 0.30402 0.59706 0.4692 0.0
H1874 H 0.22474 0.47518 0.50522 0.0
H1875 H 0.19883 0.48795 0.47912 0.0
H1876 H 0.23577 0.46002 0.47442 0.0
H1877 H 0.28463 0.62406 0.50607 0.0
H1878 H 0.23815 0.61811 0.50621 0.0
H1879 H 0.26407 0.59782 0.52969 0.0
H1880 H 0.13133 0.57427 0.51889 0.0
H1881 H 0.19688 0.53636 0.57727 0.0
H1882 H 0.18166 0.54702 0.46817 0.0
H1883 H 0.19473 0.59048 0.47539 0.0
H1884 H 0.14951 0.57852 0.47749 0.0
H1885 H 0.26266 0.49997 0.53751 0.0
H1886 H 0.2523 0.51193 0.56913 0.0
H1887 H 0.2745 0.54198 0.54891 0.0
C1888 C 0.90742 0.18689 0.54768 0.0
C1889 C 0.9366 0.17069 0.55807 0.0
C1890 C 0.911 0.21396 0.53046 0.0
C1891 C 0.94469 0.22541 0.52369 0.0
C1892 C 0.97418 0.21102 0.53572 0.0
C1893 C 0.9698 0.18325 0.55248 0.0
C1894 C 0.87884 0.22786 0.51777 0.0
C1895 C 0.01045 0.22322 0.52958 0.0
C1896 C 0.95254 0.24938 0.45579 0.0
C1897 C 0.94864 0.28566 0.45621 0.0
C1898 C 0.95243 0.22983 0.47769 0.0
C1899 C 0.94897 0.2469 0.50086 0.0
C1900 C 0.94663 0.28369 0.50162 0.0
C1901 C 0.94599 0.30269 0.4792 0.0
C1902 C 0.95431 0.19062 0.47582 0.0
C1903 C 0.9439 0.30285 0.52602 0.0
H1904 H 0.8818 0.17654 0.55166 0.0
H1905 H 0.99227 0.17049 0.5605 0.0
H1906 H 0.87876 0.25667 0.51801 0.0
H1907 H 0.87875 0.21952 0.49801 0.0
H1908 H 0.85455 0.21841 0.52668 0.0
H1909 H 0.02953 0.2149 0.5439 0.0
H1910 H 0.01856 0.21217 0.51143 0.0
H1911 H 0.01124 0.25197 0.52791 0.0
H1912 H 0.95426 0.23585 0.43816 0.0
H1913 H 0.9431 0.33072 0.47966 0.0
H1914 H 0.93013 0.17898 0.48341 0.0
H1915 H 0.97632 0.18061 0.48704 0.0
H1916 H 0.95766 0.18151 0.45636 0.0
H1917 H 0.91757 0.29908 0.53397 0.0
H1918 H 0.94844 0.3312 0.52374 0.0
H1919 H 0.9629 0.29241 0.53963 0.0
C1920 C 0.81162 0.04067 0.94349 0.0
C1921 C 0.84149 0.05927 0.95022 0.0
C1922 C 0.78535 0.03384 0.96102 0.0
C1923 C 0.78904 0.04637 0.98565 0.0
C1924 C 0.82007 0.06353 0.99276 0.0
C1925 C 0.84615 0.06914 0.97504 0.0
C1926 C 0.75319 0.01439 0.953 0.0
C1927 C 0.82516 0.07741 0.0188 0.0
C1928 C 0.71239 0.0706 0.02642 0.0
C1929 C 0.7145 0.04507 0.0449 0.0
C1930 C 0.73526 0.07022 0.00605 0.0
C1931 C 0.76019 0.04321 0.00395 0.0
C1932 C 0.76031 0.01578 0.02148 0.0
C1933 C 0.73777 0.01731 0.04195 0.0
C1934 C 0.73466 0.10027 0.98798 0.0
C1935 C 0.78578 0.98604 0.01962 0.0
H1936 H 0.80825 0.03276 0.9243 0.0
H1937 H 0.86984 0.08239 0.98037 0.0
H1938 H 0.74707 0.9934 0.96646 0.0
H1939 H 0.73066 0.03238 0.95268 0.0
H1940 H 0.75615 0.00278 0.9342 0.0
H1941 H 0.85086 0.09013 0.02125 0.0
H1942 H 0.80454 0.09666 0.02314 0.0
H1943 H 0.82289 0.05602 0.03253 0.0
H1944 H 0.69471 0.09226 0.02881 0.0
H1945 H 0.73926 0.99739 0.05617 0.0
H1946 H 0.73459 0.09065 0.96855 0.0
H1947 H 0.75849 0.11617 0.99046 0.0
H1948 H 0.71165 0.1173 0.99075 0.0
H1949 H 0.78777 0.97664 1.00016 0.0
H1950 H 0.77827 0.96391 0.03177 0.0
H1951 H 0.81197 0.99506 0.02536 0.0
C1952 C 0.46844 0.81476 0.94743 0.0
C1953 C 0.43518 0.82766 0.94244 0.0
C1954 C 0.47318 0.78739 0.96446 0.0
C1955 C 0.44405 0.77375 0.97736 0.0
C1956 C 0.41025 0.78566 0.97134 0.0
C1957 C 0.40627 0.81232 0.95383 0.0
C1958 C 0.50951 0.77468 0.96982 0.0
C1959 C 0.3785 0.77257 0.98497 0.0
C1960 C 0.44552 0.69635 0.02167 0.0
C1961 C 0.44926 0.71323 0.04464 0.0
C1962 C 0.44581 0.71541 0.99928 0.0
C1963 C 0.44901 0.75213 1.00005 0.0
C1964 C 0.45377 0.76902 0.02318 0.0
C1965 C 0.45412 0.74939 0.04505 0.0
C1966 C 0.44166 0.69642 0.97492 0.0
C1967 C 0.45663 0.80816 0.02505 0.0
H1968 H 0.49069 0.82687 0.93861 0.0
H1969 H 0.38065 0.82294 0.95029 0.0
H1970 H 0.51857 0.78567 0.98776 0.0
H1971 H 0.50993 0.74593 0.97156 0.0
H1972 H 0.5281 0.78264 0.95507 0.0
H1973 H 0.35395 0.78247 0.97671 0.0
H1974 H 0.37778 0.74377 0.98487 0.0
H1975 H 0.37965 0.78105 0.00469 0.0
H1976 H 0.44189 0.66841 0.0212 0.0
H1977 H 0.4567 0.76281 0.06267 0.0
H1978 H 0.46056 0.70629 0.96101 0.0
H1979 H 0.41522 0.70108 0.9674 0.0
H1980 H 0.44535 0.66793 0.97707 0.0
H1981 H 0.47812 0.81778 0.01317 0.0
H1982 H 0.46137 0.81709 0.04441 0.0
H1983 H 0.43226 0.82034 0.01826 0.0
C1984 C 0.74681 0.46139 0.04744 0.0
C1985 C 0.78203 0.45182 0.04696 0.0
C1986 C 0.7265 0.46073 0.02587 0.0
C1987 C 0.74187 0.45099 0.003 0.0
C1988 C 0.77798 0.44374 0.00199 0.0
C1989 C 0.79763 0.44387 0.02408 0.0
C1990 C 0.68803 0.4682 0.02798 0.0
C1991 C 0.79549 0.43433 0.97781 0.0
C1992 C 0.67815 0.40617 0.9602 0.0
C1993 C 0.66583 0.43402 0.94599 0.0
C1994 C 0.70437 0.41099 0.97791 0.0
C1995 C 0.71904 0.44447 0.98116 0.0
C1996 C 0.70815 0.47226 0.96566 0.0
C1997 C 0.6811 0.46681 0.94848 0.0
C1998 C 0.71452 0.38076 0.99432 0.0
C1999 C 0.72391 0.50802 0.96803 0.0
H2000 H 0.73449 0.46787 0.06497 0.0
H2001 H 0.8249 0.43687 0.0235 0.0
H2002 H 0.68015 0.48823 0.01427 0.0
H2003 H 0.67306 0.44424 0.02375 0.0
H2004 H 0.68057 0.47737 0.04684 0.0
H2005 H 0.82428 0.43531 0.97933 0.0
H2006 H 0.78786 0.40761 0.97229 0.0
H2007 H 0.78706 0.45216 0.96274 0.0
H2008 H 0.66582 0.38096 0.95828 0.0
H2009 H 0.67133 0.4882 0.93737 0.0
H2010 H 0.70631 0.3861 0.01374 0.0
H2011 H 0.74313 0.37738 0.99443 0.0
H2012 H 0.70237 0.35597 0.98822 0.0
H2013 H 0.7141 0.52072 0.98517 0.0
H2014 H 0.71728 0.52482 0.95191 0.0
H2015 H 0.75262 0.50628 0.96964 0.0
C2016 C 0.07261 0.78962 0.02638 0.0
C2017 C 0.04516 0.79113 0.04341 0.0
C2018 C 0.07114 0.76698 0.00591 0.0
C2019 C 0.04124 0.74599 0.0023 0.0
C2020 C 0.01221 0.75 0.0182 0.0
C2021 C 0.01467 0.77232 0.03874 0.0
C2022 C 0.10279 0.7633 0.98951 0.0
C2023 C 0.97952 0.72884 0.01467 0.0
C2024 C 0.03906 0.694 0.94213 0.0
C2025 C 0.05336 0.66238 0.95001 0.0
C2026 C 0.03336 0.7212 0.95913 0.0
C2027 C 0.04251 0.71651 0.98442 0.0
C2028 C 0.05498 0.6838 0.99261 0.0
C2029 C 0.0598 0.65702 0.97532 0.0
C2030 C 0.0191 0.75535 0.94984 0.0
C2031 C 0.06497 0.67757 0.01942 0.0
H2032 H 0.09627 0.804 0.03012 0.0
H2033 H 0.9932 0.77406 0.05172 0.0
H2034 H 0.11515 0.73767 0.99294 0.0
H2035 H 0.0953 0.76418 0.96961 0.0
H2036 H 0.12233 0.78398 0.99309 0.0
H2037 H 0.95734 0.73972 0.02538 0.0
H2038 H 0.97225 0.72757 0.99473 0.0
H2039 H 0.98411 0.70185 0.02115 0.0
H2040 H 0.03399 0.69795 0.92251 0.0
H2041 H 0.0701 0.6322 0.98135 0.0
H2042 H 0.03998 0.77524 0.95003 0.0
H2043 H 0.99803 0.76474 0.96224 0.0
H2044 H 0.00882 0.75325 0.93059 0.0
H2045 H 0.08647 0.69532 0.02472 0.0
H2046 H 0.07349 0.65037 0.02279 0.0
H2047 H 0.04267 0.68332 0.03183 0.0
loop_
_geom_bond_atom_site_label_1
_geom_bond_atom_site_label_2
_geom_bond_distance
_geom_bond_site_symmetry_2
_ccdc_geom_bond_type
Zn0 O1 2.055 . S
Zn0 O8 2.046 . S
Zn0 N16 2.036 . S
Zn0 O28 2.053 . S
Zn0 O30 2.066 . S
O1 Zn0 2.055 . S
O1 C4 1.259 . S
C2 O30 1.256 . S
C2 O31 1.244 . S
Zn3 O5 2.046 . S
Zn3 O7 2.055 . S
Zn3 N9 2.036 . S
Zn3 O27 2.066 . S
Zn3 O31 2.053 . S
C4 O1 1.259 . S
C4 O5 1.254 . S
O5 Zn3 2.046 . S
O5 C4 1.254 . S
C6 O27 1.256 . S
C6 O28 1.244 . S
O7 Zn3 2.055 . S
O7 C29 1.259 . S
O8 Zn0 2.046 . S
O8 C29 1.254 . S
N9 Zn3 2.036 . S
N9 C10 1.298 . S
N9 N12 1.398 . S
C10 N9 1.298 . S
C10 N13 1.367 . S
C10 C23 1.481 . S
C11 N12 1.299 . S
C11 N13 1.379 . S
N12 N9 1.398 . S
N12 C11 1.299 . S
N13 C10 1.367 . S
N13 C11 1.379 . S
C14 N16 1.298 . S
C14 N18 1.367 . S
C14 C22 1.481 . S
C15 N17 1.299 . S
C15 N18 1.379 . S
N16 Zn0 2.036 . S
N16 C14 1.298 . S
N16 N17 1.398 . S
N17 C15 1.299 . S
N17 N16 1.398 . S
N18 C14 1.367 . S
N18 C15 1.379 . S
H19 C22 0.980 . S
H20 C22 0.981 . S
H21 C22 0.981 . S
C22 C14 1.481 . S
C22 H19 0.980 . S
C22 H20 0.981 . S
C22 H21 0.981 . S
C23 C10 1.481 . S
C23 H24 0.980 . S
C23 H25 0.981 . S
C23 H26 0.981 . S
H24 C23 0.980 . S
H25 C23 0.981 . S
H26 C23 0.981 . S
O27 Zn3 2.066 . S
O27 C6 1.256 . S
O28 Zn0 2.053 . S
O28 C6 1.244 . S
C29 O7 1.259 . S
C29 O8 1.254 . S
O30 Zn0 2.066 . S
O30 C2 1.256 . S
O31 C2 1.244 . S
O31 Zn3 2.053 . S
Zn32 O33 2.055 . S
Zn32 O40 2.046 . S
Zn32 N48 2.036 . S
Zn32 O60 2.053 . S
Zn32 O62 2.066 . S
O33 Zn32 2.055 . S
O33 C36 1.259 . S
C34 O62 1.256 . S
C34 O63 1.244 . S
Zn35 O37 2.046 . S
Zn35 O39 2.055 . S
Zn35 N41 2.036 . S
Zn35 O59 2.066 . S
Zn35 O63 2.053 . S
C36 O33 1.259 . S
C36 O37 1.254 . S
O37 Zn35 2.046 . S
O37 C36 1.254 . S
C38 O59 1.256 . S
C38 O60 1.244 . S
O39 Zn35 2.055 . S
O39 C61 1.259 . S
O40 Zn32 2.046 . S
O40 C61 1.254 . S
N41 Zn35 2.036 . S
N41 C42 1.298 . S
N41 N44 1.398 . S
C42 N41 1.298 . S
C42 N45 1.367 . S
C42 C55 1.481 . S
C43 N44 1.299 . S
C43 N45 1.379 . S
N44 N41 1.398 . S
N44 C43 1.299 . S
N45 C42 1.367 . S
N45 C43 1.379 . S
C46 N48 1.298 . S
C46 N50 1.367 . S
C46 C54 1.481 . S
C47 N49 1.299 . S
C47 N50 1.379 . S
N48 Zn32 2.036 . S
N48 C46 1.298 . S
N48 N49 1.398 . S
N49 C47 1.299 . S
N49 N48 1.398 . S
N50 C46 1.367 . S
N50 C47 1.379 . S
H51 C54 0.980 . S
H52 C54 0.981 . S
H53 C54 0.981 . S
C54 C46 1.481 . S
C54 H51 0.980 . S
C54 H52 0.981 . S
C54 H53 0.981 . S
C55 C42 1.481 . S
C55 H56 0.980 . S
C55 H57 0.981 . S
C55 H58 0.981 . S
H56 C55 0.980 . S
H57 C55 0.981 . S
H58 C55 0.981 . S
O59 Zn35 2.066 . S
O59 C38 1.256 . S
O60 Zn32 2.053 . S
O60 C38 1.244 . S
C61 O39 1.259 . S
C61 O40 1.254 . S
O62 Zn32 2.066 . S
O62 C34 1.256 . S
O63 C34 1.244 . S
O63 Zn35 2.053 . S
Zn64 O65 2.055 . S
Zn64 O72 2.046 . S
Zn64 N80 2.036 . S
Zn64 O92 2.053 . S
Zn64 O94 2.066 . S
O65 Zn64 2.055 . S
O65 C68 1.259 . S
C66 O94 1.256 . S
C66 O95 1.244 . S
Zn67 O69 2.046 . S
Zn67 O71 2.055 . S
Zn67 N73 2.036 . S
Zn67 O91 2.066 . S
Zn67 O95 2.053 . S
C68 O65 1.259 . S
C68 O69 1.254 . S
O69 Zn67 2.046 . S
O69 C68 1.254 . S
C70 O91 1.256 . S
C70 O92 1.244 . S
O71 Zn67 2.055 . S
O71 C93 1.259 . S
O72 Zn64 2.046 . S
O72 C93 1.254 . S
N73 Zn67 2.036 . S
N73 C74 1.298 . S
N73 N76 1.398 . S
C74 N73 1.298 . S
C74 N77 1.367 . S
C74 C87 1.481 . S
C75 N76 1.299 . S
C75 N77 1.379 . S
N76 N73 1.398 . S
N76 C75 1.299 . S
N77 C74 1.367 . S
N77 C75 1.379 . S
C78 N80 1.298 . S
C78 N82 1.367 1_655 S
C78 C86 1.480 1_655 S
C79 N81 1.299 . S
C79 N82 1.379 1_655 S
N80 Zn64 2.036 . S
N80 C78 1.298 . S
N80 N81 1.398 . S
N81 C79 1.299 . S
N81 N80 1.398 . S
N82 C78 1.367 1_455 S
N82 C79 1.379 1_455 S
H83 C86 0.978 1_655 S
H84 C86 0.981 . S
H85 C86 0.984 . S
C86 C78 1.480 1_455 S
C86 H83 0.978 1_455 S
C86 H84 0.981 . S
C86 H85 0.984 . S
C87 C74 1.481 . S
C87 H88 0.980 . S
C87 H89 0.981 . S
C87 H90 0.981 . S
H88 C87 0.980 . S
H89 C87 0.981 . S
H90 C87 0.981 . S
O91 Zn67 2.066 . S
O91 C70 1.256 . S
O92 Zn64 2.053 . S
O92 C70 1.244 . S
C93 O71 1.259 . S
C93 O72 1.254 . S
O94 Zn64 2.066 . S
O94 C66 1.256 . S
O95 C66 1.244 . S
O95 Zn67 2.053 . S
Zn96 O97 2.055 . S
Zn96 O104 2.046 . S
Zn96 N112 2.036 . S
Zn96 O124 2.053 . S
Zn96 O126 2.066 . S
O97 Zn96 2.055 . S
O97 C100 1.259 . S
C98 O126 1.256 . S
C98 O127 1.244 . S
Zn99 O101 2.046 . S
Zn99 O103 2.055 . S
Zn99 N105 2.036 . S
Zn99 O123 2.066 . S
Zn99 O127 2.053 . S
C100 O97 1.259 . S
C100 O101 1.254 . S
O101 Zn99 2.046 . S
O101 C100 1.254 . S
C102 O123 1.256 . S
C102 O124 1.244 . S
O103 Zn99 2.055 . S
O103 C125 1.259 . S
O104 Zn96 2.046 . S
O104 C125 1.254 . S
N105 Zn99 2.036 . S
N105 C106 1.298 . S
N105 N108 1.398 . S
C106 N105 1.298 . S
C106 N109 1.367 1_565 S
C106 C119 1.480 1_565 S
C107 N108 1.299 . S
C107 N109 1.379 1_565 S
N108 N105 1.398 . S
N108 C107 1.299 . S
N109 C106 1.367 1_545 S
N109 C107 1.379 1_545 S
C110 N112 1.298 . S
C110 N114 1.367 . S
C110 C118 1.481 . S
C111 N113 1.299 . S
C111 N114 1.379 . S
N112 Zn96 2.036 . S
N112 C110 1.298 . S
N112 N113 1.398 . S
N113 C111 1.299 . S
N113 N112 1.398 . S
N114 C110 1.367 . S
N114 C111 1.379 . S
H115 C118 0.980 . S
H116 C118 0.981 . S
H117 C118 0.981 . S
C118 C110 1.481 . S
C118 H115 0.980 . S
C118 H116 0.981 . S
C118 H117 0.981 . S
C119 C106 1.480 1_545 S
C119 H120 0.978 1_545 S
C119 H121 0.981 . S
C119 H122 0.984 . S
H120 C119 0.978 1_565 S
H121 C119 0.981 . S
H122 C119 0.984 . S
O123 Zn99 2.066 . S
O123 C102 1.256 . S
O124 Zn96 2.053 . S
O124 C102 1.244 . S
C125 O103 1.259 . S
C125 O104 1.254 . S
O126 Zn96 2.066 . S
O126 C98 1.256 . S
O127 C98 1.244 . S
O127 Zn99 2.053 . S
Zn128 O129 2.055 . S
Zn128 O136 2.046 . S
Zn128 N144 2.036 . S
Zn128 O156 2.053 . S
Zn128 O158 2.066 . S
O129 Zn128 2.055 . S
O129 C132 1.259 . S
C130 O158 1.256 . S
C130 O159 1.244 . S
Zn131 O133 2.046 . S
Zn131 O135 2.055 . S
Zn131 N137 2.036 . S
Zn131 O155 2.066 . S
Zn131 O159 2.053 . S
C132 O129 1.259 . S
C132 O133 1.254 . S
O133 Zn131 2.046 . S
O133 C132 1.254 . S
C134 O155 1.256 . S
C134 O156 1.244 . S
O135 Zn131 2.055 . S
O135 C157 1.259 . S
O136 Zn128 2.046 . S
O136 C157 1.254 . S
N137 Zn131 2.036 . S
N137 C138 1.298 . S
N137 N140 1.398 . S
C138 N137 1.298 . S
C138 N141 1.367 . S
C138 C151 1.481 . S
C139 N140 1.299 . S
C139 N141 1.379 . S
N140 N137 1.398 . S
N140 C139 1.299 . S
N141 C138 1.367 . S
N141 C139 1.379 . S
C142 N144 1.298 . S
C142 N146 1.367 1_455 S
C142 C150 1.480 1_455 S
C143 N145 1.299 . S
C143 N146 1.379 1_455 S
N144 Zn128 2.036 . S
N144 C142 1.298 . S
N144 N145 1.398 . S
N145 C143 1.299 . S
N145 N144 1.398 . S
N146 C142 1.367 1_655 S
N146 C143 1.379 1_655 S
H147 C150 0.978 1_455 S
H148 C150 0.981 . S
H149 C150 0.984 . S
C150 C142 1.480 1_655 S
C150 H147 0.978 1_655 S
C150 H148 0.981 . S
C150 H149 0.984 . S
C151 C138 1.481 . S
C151 H152 0.980 . S
C151 H153 0.981 . S
C151 H154 0.981 . S
H152 C151 0.980 . S
H153 C151 0.981 . S
H154 C151 0.981 . S
O155 Zn131 2.066 . S
O155 C134 1.256 . S
O156 Zn128 2.053 . S
O156 C134 1.244 . S
C157 O135 1.259 . S
C157 O136 1.254 . S
O158 Zn128 2.066 . S
O158 C130 1.256 . S
O159 C130 1.244 . S
O159 Zn131 2.053 . S
Zn160 O161 2.055 . S
Zn160 O168 2.046 . S
Zn160 N176 2.036 . S
Zn160 O188 2.053 . S
Zn160 O190 2.066 . S
O161 Zn160 2.055 . S
O161 C164 1.259 . S
C162 O190 1.256 . S
C162 O191 1.244 . S
Zn163 O165 2.046 . S
Zn163 O167 2.055 . S
Zn163 N169 2.036 . S
Zn163 O187 2.066 . S
Zn163 O191 2.053 . S
C164 O161 1.259 . S
C164 O165 1.254 . S
O165 Zn163 2.046 . S
O165 C164 1.254 . S
C166 O187 1.256 . S
C166 O188 1.244 . S
O167 Zn163 2.055 . S
O167 C189 1.259 . S
O168 Zn160 2.046 . S
O168 C189 1.254 . S
N169 Zn163 2.036 . S
N169 C170 1.298 . S
N169 N172 1.398 . S
C170 N169 1.298 . S
C170 N173 1.367 . S
C170 C183 1.481 . S
C171 N172 1.299 . S
C171 N173 1.379 . S
N172 N169 1.398 . S
N172 C171 1.299 . S
N173 C170 1.367 . S
N173 C171 1.379 . S
C174 N176 1.298 . S
C174 N178 1.367 1_545 S
C174 C182 1.480 1_545 S
C175 N177 1.299 . S
C175 N178 1.379 1_545 S
N176 Zn160 2.036 . S
N176 C174 1.298 . S
N176 N177 1.398 . S
N177 C175 1.299 . S
N177 N176 1.398 . S
N178 C174 1.367 1_565 S
N178 C175 1.379 1_565 S
H179 C182 0.978 1_545 S
H180 C182 0.981 . S
H181 C182 0.984 . S
C182 C174 1.480 1_565 S
C182 H179 0.978 1_565 S
C182 H180 0.981 . S
C182 H181 0.984 . S
C183 C170 1.481 . S
C183 H184 0.980 . S
C183 H185 0.981 . S
C183 H186 0.981 . S
H184 C183 0.980 . S
H185 C183 0.981 . S
H186 C183 0.981 . S
O187 Zn163 2.066 . S
O187 C166 1.256 . S
O188 Zn160 2.053 . S
O188 C166 1.244 . S
C189 O167 1.259 . S
C189 O168 1.254 . S
O190 Zn160 2.066 . S
O190 C162 1.256 . S
O191 C162 1.244 . S
O191 Zn163 2.053 . S
Zn192 O193 2.055 . S
Zn192 O200 2.046 . S
Zn192 N208 2.036 . S
Zn192 O220 2.053 . S
Zn192 O222 2.066 . S
O193 Zn192 2.055 . S
O193 C196 1.259 . S
C194 O222 1.256 . S
C194 O223 1.244 . S
Zn195 O197 2.046 . S
Zn195 O199 2.055 . S
Zn195 N201 2.036 . S
Zn195 O219 2.066 . S
Zn195 O223 2.053 . S
C196 O193 1.259 . S
C196 O197 1.254 . S
O197 Zn195 2.046 . S
O197 C196 1.254 . S
C198 O219 1.256 . S
C198 O220 1.244 . S
O199 Zn195 2.055 . S
O199 C221 1.259 . S
O200 Zn192 2.046 . S
O200 C221 1.254 . S
N201 Zn195 2.036 . S
N201 C202 1.298 . S
N201 N204 1.398 . S
C202 N201 1.298 . S
C202 N205 1.367 . S
C202 C215 1.481 . S
C203 N204 1.299 . S
C203 N205 1.379 . S
N204 N201 1.398 . S
N204 C203 1.299 . S
N205 C202 1.367 . S
N205 C203 1.379 . S
C206 N208 1.298 . S
C206 N210 1.367 . S
C206 C214 1.481 . S
C207 N209 1.299 . S
C207 N210 1.379 . S
N208 Zn192 2.036 . S
N208 C206 1.298 . S
N208 N209 1.398 . S
N209 C207 1.299 . S
N209 N208 1.398 . S
N210 C206 1.367 . S
N210 C207 1.379 . S
H211 C214 0.980 . S
H212 C214 0.981 . S
H213 C214 0.981 . S
C214 C206 1.481 . S
C214 H211 0.980 . S
C214 H212 0.981 . S
C214 H213 0.981 . S
C215 C202 1.481 . S
C215 H216 0.980 . S
C215 H217 0.981 . S
C215 H218 0.981 . S
H216 C215 0.980 . S
H217 C215 0.981 . S
H218 C215 0.981 . S
O219 Zn195 2.066 . S
O219 C198 1.256 . S
O220 Zn192 2.053 . S
O220 C198 1.244 . S
C221 O199 1.259 . S
C221 O200 1.254 . S
O222 Zn192 2.066 . S
O222 C194 1.256 . S
O223 C194 1.244 . S
O223 Zn195 2.053 . S
Zn224 O225 2.055 . S
Zn224 O232 2.046 . S
Zn224 N240 2.036 . S
Zn224 O252 2.053 . S
Zn224 O254 2.066 . S
O225 Zn224 2.055 . S
O225 C228 1.259 . S
C226 O254 1.256 . S
C226 O255 1.244 . S
Zn227 O229 2.046 . S
Zn227 O231 2.055 . S
Zn227 N233 2.036 . S
Zn227 O251 2.066 . S
Zn227 O255 2.053 . S
C228 O225 1.259 . S
C228 O229 1.254 . S
O229 Zn227 2.046 . S
O229 C228 1.254 . S
C230 O251 1.256 . S
C230 O252 1.244 . S
O231 Zn227 2.055 . S
O231 C253 1.259 . S
O232 Zn224 2.046 . S
O232 C253 1.254 . S
N233 Zn227 2.036 . S
N233 C234 1.298 . S
N233 N236 1.398 . S
C234 N233 1.298 . S
C234 N237 1.367 . S
C234 C247 1.481 . S
C235 N236 1.299 . S
C235 N237 1.379 . S
N236 N233 1.398 . S
N236 C235 1.299 . S
N237 C234 1.367 . S
N237 C235 1.379 . S
C238 N240 1.298 . S
C238 N242 1.367 . S
C238 C246 1.481 . S
C239 N241 1.299 . S
C239 N242 1.379 . S
N240 Zn224 2.036 . S
N240 C238 1.298 . S
N240 N241 1.398 . S
N241 C239 1.299 . S
N241 N240 1.398 . S
N242 C238 1.367 . S
N242 C239 1.379 . S
H243 C246 0.980 . S
H244 C246 0.981 . S
H245 C246 0.981 . S
C246 C238 1.481 . S
C246 H243 0.980 . S
C246 H244 0.981 . S
C246 H245 0.981 . S
C247 C234 1.481 . S
C247 H248 0.980 . S
C247 H249 0.981 . S
C247 H250 0.981 . S
H248 C247 0.980 . S
H249 C247 0.981 . S
H250 C247 0.981 . S
O251 Zn227 2.066 . S
O251 C230 1.256 . S
O252 Zn224 2.053 . S
O252 C230 1.244 . S
C253 O231 1.259 . S
C253 O232 1.254 . S
O254 Zn224 2.066 . S
O254 C226 1.256 . S
O255 C226 1.244 . S
O255 Zn227 2.053 . S
Zn256 O257 2.055 . S
Zn256 O264 2.046 . S
Zn256 N272 2.036 . S
Zn256 O284 2.053 . S
Zn256 O286 2.066 . S
O257 Zn256 2.055 . S
O257 C260 1.259 . S
C258 O286 1.256 . S
C258 O287 1.244 . S
Zn259 O261 2.046 . S
Zn259 O263 2.055 . S
Zn259 N265 2.036 . S
Zn259 O283 2.066 . S
Zn259 O287 2.053 . S
C260 O257 1.259 . S
C260 O261 1.254 . S
O261 Zn259 2.046 . S
O261 C260 1.254 . S
C262 O283 1.256 . S
C262 O284 1.244 . S
O263 Zn259 2.055 . S
O263 C285 1.259 . S
O264 Zn256 2.046 . S
O264 C285 1.254 . S
N265 Zn259 2.036 . S
N265 C266 1.298 . S
N265 N268 1.398 . S
C266 N265 1.298 . S
C266 N269 1.367 . S
C266 C279 1.481 . S
C267 N268 1.299 . S
C267 N269 1.379 . S
N268 N265 1.398 . S
N268 C267 1.299 . S
N269 C266 1.367 . S
N269 C267 1.379 . S
C270 N272 1.298 . S
C270 N274 1.367 . S
C270 C278 1.481 . S
C271 N273 1.299 . S
C271 N274 1.379 . S
N272 Zn256 2.036 . S
N272 C270 1.298 . S
N272 N273 1.398 . S
N273 C271 1.299 . S
N273 N272 1.398 . S
N274 C270 1.367 . S
N274 C271 1.379 . S
H275 C278 0.980 . S
H276 C278 0.981 . S
H277 C278 0.981 . S
C278 C270 1.481 . S
C278 H275 0.980 . S
C278 H276 0.981 . S
C278 H277 0.981 . S
C279 C266 1.481 . S
C279 H280 0.980 . S
C279 H281 0.981 . S
C279 H282 0.981 . S
H280 C279 0.980 . S
H281 C279 0.981 . S
H282 C279 0.981 . S
O283 Zn259 2.066 . S
O283 C262 1.256 . S
O284 Zn256 2.053 . S
O284 C262 1.244 . S
C285 O263 1.259 . S
C285 O264 1.254 . S
O286 Zn256 2.066 . S
O286 C258 1.256 . S
O287 C258 1.244 . S
O287 Zn259 2.053 . S
Zn288 O289 2.055 . S
Zn288 O296 2.046 . S
Zn288 N304 2.036 . S
Zn288 O316 2.053 . S
Zn288 O318 2.066 . S
O289 Zn288 2.055 . S
O289 C292 1.259 . S
C290 O318 1.256 . S
C290 O319 1.244 . S
Zn291 O293 2.046 . S
Zn291 O295 2.055 . S
Zn291 N297 2.036 . S
Zn291 O315 2.066 . S
Zn291 O319 2.053 . S
C292 O289 1.259 . S
C292 O293 1.254 . S
O293 Zn291 2.046 . S
O293 C292 1.254 . S
C294 O315 1.256 . S
C294 O316 1.244 . S
O295 Zn291 2.055 . S
O295 C317 1.259 . S
O296 Zn288 2.046 . S
O296 C317 1.254 . S
N297 Zn291 2.036 . S
N297 C298 1.298 . S
N297 N300 1.398 . S
C298 N297 1.298 . S
C298 N301 1.367 . S
C298 C311 1.481 . S
C299 N300 1.299 . S
C299 N301 1.379 . S
N300 N297 1.398 . S
N300 C299 1.299 . S
N301 C298 1.367 . S
N301 C299 1.379 . S
C302 N304 1.298 . S
C302 N306 1.367 . S
C302 C310 1.481 . S
C303 N305 1.299 . S
C303 N306 1.379 . S
N304 Zn288 2.036 . S
N304 C302 1.298 . S
N304 N305 1.398 . S
N305 C303 1.299 . S
N305 N304 1.398 . S
N306 C302 1.367 . S
N306 C303 1.379 . S
H307 C310 0.980 . S
H308 C310 0.981 . S
H309 C310 0.981 . S
C310 C302 1.481 . S
C310 H307 0.980 . S
C310 H308 0.981 . S
C310 H309 0.981 . S
C311 C298 1.481 . S
C311 H312 0.980 . S
C311 H313 0.981 . S
C311 H314 0.981 . S
H312 C311 0.980 . S
H313 C311 0.981 . S
H314 C311 0.981 . S
O315 Zn291 2.066 . S
O315 C294 1.256 . S
O316 Zn288 2.053 . S
O316 C294 1.244 . S
C317 O295 1.259 . S
C317 O296 1.254 . S
O318 Zn288 2.066 . S
O318 C290 1.256 . S
O319 C290 1.244 . S
O319 Zn291 2.053 . S
Zn320 O321 2.055 . S
Zn320 O328 2.046 . S
Zn320 N336 2.036 . S
Zn320 O348 2.053 . S
Zn320 O350 2.066 . S
O321 Zn320 2.055 . S
O321 C324 1.259 . S
C322 O350 1.256 . S
C322 O351 1.244 . S
Zn323 O325 2.046 . S
Zn323 O327 2.055 . S
Zn323 N329 2.036 . S
Zn323 O347 2.066 . S
Zn323 O351 2.053 . S
C324 O321 1.259 . S
C324 O325 1.254 . S
O325 Zn323 2.046 . S
O325 C324 1.254 . S
C326 O347 1.256 . S
C326 O348 1.244 . S
O327 Zn323 2.055 . S
O327 C349 1.259 . S
O328 Zn320 2.046 . S
O328 C349 1.254 . S
N329 Zn323 2.036 . S
N329 C330 1.298 . S
N329 N332 1.398 . S
C330 N329 1.298 . S
C330 N333 1.367 1_455 S
C330 C343 1.480 1_455 S
C331 N332 1.299 . S
C331 N333 1.379 1_455 S
N332 N329 1.398 . S
N332 C331 1.299 . S
N333 C330 1.367 1_655 S
N333 C331 1.379 1_655 S
C334 N336 1.298 . S
C334 N338 1.367 . S
C334 C342 1.481 . S
C335 N337 1.299 . S
C335 N338 1.379 . S
N336 Zn320 2.036 . S
N336 C334 1.298 . S
N336 N337 1.398 . S
N337 C335 1.299 . S
N337 N336 1.398 . S
N338 C334 1.367 . S
N338 C335 1.379 . S
H339 C342 0.980 . S
H340 C342 0.981 . S
H341 C342 0.981 . S
C342 C334 1.481 . S
C342 H339 0.980 . S
C342 H340 0.981 . S
C342 H341 0.981 . S
C343 C330 1.480 1_655 S
C343 H344 0.978 1_655 S
C343 H345 0.981 . S
C343 H346 0.984 . S
H344 C343 0.978 1_455 S
H345 C343 0.981 . S
H346 C343 0.984 . S
O347 Zn323 2.066 . S
O347 C326 1.256 . S
O348 Zn320 2.053 . S
O348 C326 1.244 . S
C349 O327 1.259 . S
C349 O328 1.254 . S
O350 Zn320 2.066 . S
O350 C322 1.256 . S
O351 C322 1.244 . S
O351 Zn323 2.053 . S
Zn352 O353 2.055 . S
Zn352 O360 2.046 . S
Zn352 N368 2.036 . S
Zn352 O380 2.053 . S
Zn352 O382 2.066 . S
O353 Zn352 2.055 . S
O353 C356 1.259 . S
C354 O382 1.256 . S
C354 O383 1.244 . S
Zn355 O357 2.046 . S
Zn355 O359 2.055 . S
Zn355 N361 2.036 . S
Zn355 O379 2.066 . S
Zn355 O383 2.053 . S
C356 O353 1.259 . S
C356 O357 1.254 . S
O357 Zn355 2.046 . S
O357 C356 1.254 . S
C358 O379 1.256 . S
C358 O380 1.244 . S
O359 Zn355 2.055 . S
O359 C381 1.259 . S
O360 Zn352 2.046 . S
O360 C381 1.254 . S
N361 Zn355 2.036 . S
N361 C362 1.298 . S
N361 N364 1.398 . S
C362 N361 1.298 . S
C362 N365 1.367 1_545 S
C362 C375 1.480 1_545 S
C363 N364 1.299 . S
C363 N365 1.379 1_545 S
N364 N361 1.398 . S
N364 C363 1.299 . S
N365 C362 1.367 1_565 S
N365 C363 1.379 1_565 S
C366 N368 1.298 . S
C366 N370 1.367 . S
C366 C374 1.481 . S
C367 N369 1.299 . S
C367 N370 1.379 . S
N368 Zn352 2.036 . S
N368 C366 1.298 . S
N368 N369 1.398 . S
N369 C367 1.299 . S
N369 N368 1.398 . S
N370 C366 1.367 . S
N370 C367 1.379 . S
H371 C374 0.980 . S
H372 C374 0.981 . S
H373 C374 0.981 . S
C374 C366 1.481 . S
C374 H371 0.980 . S
C374 H372 0.981 . S
C374 H373 0.981 . S
C375 C362 1.480 1_565 S
C375 H376 0.978 1_565 S
C375 H377 0.981 . S
C375 H378 0.984 . S
H376 C375 0.978 1_545 S
H377 C375 0.981 . S
H378 C375 0.984 . S
O379 Zn355 2.066 . S
O379 C358 1.256 . S
O380 Zn352 2.053 . S
O380 C358 1.244 . S
C381 O359 1.259 . S
C381 O360 1.254 . S
O382 Zn352 2.066 . S
O382 C354 1.256 . S
O383 C354 1.244 . S
O383 Zn355 2.053 . S
Zn384 O385 2.055 . S
Zn384 O392 2.046 . S
Zn384 N400 2.036 . S
Zn384 O412 2.053 . S
Zn384 O414 2.066 . S
O385 Zn384 2.055 . S
O385 C388 1.259 . S
C386 O414 1.256 . S
C386 O415 1.244 . S
Zn387 O389 2.046 . S
Zn387 O391 2.055 . S
Zn387 N393 2.036 . S
Zn387 O411 2.066 . S
Zn387 O415 2.053 . S
C388 O385 1.259 . S
C388 O389 1.254 . S
O389 Zn387 2.046 . S
O389 C388 1.254 . S
C390 O411 1.256 . S
C390 O412 1.244 . S
O391 Zn387 2.055 . S
O391 C413 1.259 . S
O392 Zn384 2.046 . S
O392 C413 1.254 . S
N393 Zn387 2.036 . S
N393 C394 1.298 . S
N393 N396 1.398 . S
C394 N393 1.298 . S
C394 N397 1.367 . S
C394 C407 1.481 . S
C395 N396 1.299 . S
C395 N397 1.379 . S
N396 N393 1.398 . S
N396 C395 1.299 . S
N397 C394 1.367 . S
N397 C395 1.379 . S
C398 N400 1.298 . S
C398 N402 1.367 1_655 S
C398 C406 1.480 1_655 S
C399 N401 1.299 . S
C399 N402 1.379 1_655 S
N400 Zn384 2.036 . S
N400 C398 1.298 . S
N400 N401 1.398 . S
N401 C399 1.299 . S
N401 N400 1.398 . S
N402 C398 1.367 1_455 S
N402 C399 1.379 1_455 S
H403 C406 0.978 1_655 S
H404 C406 0.981 . S
H405 C406 0.984 . S
C406 C398 1.480 1_455 S
C406 H403 0.978 1_455 S
C406 H404 0.981 . S
C406 H405 0.984 . S
C407 C394 1.481 . S
C407 H408 0.980 . S
C407 H409 0.981 . S
C407 H410 0.981 . S
H408 C407 0.980 . S
H409 C407 0.981 . S
H410 C407 0.981 . S
O411 Zn387 2.066 . S
O411 C390 1.256 . S
O412 Zn384 2.053 . S
O412 C390 1.244 . S
C413 O391 1.259 . S
C413 O392 1.254 . S
O414 Zn384 2.066 . S
O414 C386 1.256 . S
O415 C386 1.244 . S
O415 Zn387 2.053 . S
Zn416 O417 2.055 . S
Zn416 O424 2.046 . S
Zn416 N432 2.036 . S
Zn416 O444 2.053 . S
Zn416 O446 2.066 . S
O417 Zn416 2.055 . S
O417 C420 1.259 . S
C418 O446 1.256 . S
C418 O447 1.244 . S
Zn419 O421 2.046 . S
Zn419 O423 2.055 . S
Zn419 N425 2.036 . S
Zn419 O443 2.066 . S
Zn419 O447 2.053 . S
C420 O417 1.259 . S
C420 O421 1.254 . S
O421 Zn419 2.046 . S
O421 C420 1.254 . S
C422 O443 1.256 . S
C422 O444 1.244 . S
O423 Zn419 2.055 . S
O423 C445 1.259 . S
O424 Zn416 2.046 . S
O424 C445 1.254 . S
N425 Zn419 2.036 . S
N425 C426 1.298 . S
N425 N428 1.398 . S
C426 N425 1.298 . S
C426 N429 1.367 1_565 S
C426 C439 1.480 1_565 S
C427 N428 1.299 . S
C427 N429 1.379 1_565 S
N428 N425 1.398 . S
N428 C427 1.299 . S
N429 C426 1.367 1_545 S
N429 C427 1.379 1_545 S
C430 N432 1.298 . S
C430 N434 1.367 . S
C430 C438 1.481 . S
C431 N433 1.299 . S
C431 N434 1.379 . S
N432 Zn416 2.036 . S
N432 C430 1.298 . S
N432 N433 1.398 . S
N433 C431 1.299 . S
N433 N432 1.398 . S
N434 C430 1.367 . S
N434 C431 1.379 . S
H435 C438 0.980 . S
H436 C438 0.981 . S
H437 C438 0.981 . S
C438 C430 1.481 . S
C438 H435 0.980 . S
C438 H436 0.981 . S
C438 H437 0.981 . S
C439 C426 1.480 1_545 S
C439 H440 0.978 1_545 S
C439 H441 0.981 . S
C439 H442 0.984 . S
H440 C439 0.978 1_565 S
H441 C439 0.981 . S
H442 C439 0.984 . S
O443 Zn419 2.066 . S
O443 C422 1.256 . S
O444 Zn416 2.053 . S
O444 C422 1.244 . S
C445 O423 1.259 . S
C445 O424 1.254 . S
O446 Zn416 2.066 . S
O446 C418 1.256 . S
O447 C418 1.244 . S
O447 Zn419 2.053 . S
Zn448 O449 2.055 . S
Zn448 O456 2.046 . S
Zn448 N464 2.036 . S
Zn448 O476 2.053 . S
Zn448 O478 2.066 . S
O449 Zn448 2.055 . S
O449 C452 1.259 . S
C450 O478 1.256 . S
C450 O479 1.244 . S
Zn451 O453 2.046 . S
Zn451 O455 2.055 . S
Zn451 N457 2.036 . S
Zn451 O475 2.066 . S
Zn451 O479 2.053 . S
C452 O449 1.259 . S
C452 O453 1.254 . S
O453 Zn451 2.046 . S
O453 C452 1.254 . S
C454 O475 1.256 . S
C454 O476 1.244 . S
O455 Zn451 2.055 . S
O455 C477 1.259 . S
O456 Zn448 2.046 . S
O456 C477 1.254 . S
N457 Zn451 2.036 . S
N457 C458 1.298 . S
N457 N460 1.398 . S
C458 N457 1.298 . S
C458 N461 1.367 . S
C458 C471 1.481 . S
C459 N460 1.299 . S
C459 N461 1.379 . S
N460 N457 1.398 . S
N460 C459 1.299 . S
N461 C458 1.367 . S
N461 C459 1.379 . S
C462 N464 1.298 . S
C462 N466 1.367 . S
C462 C470 1.481 . S
C463 N465 1.299 . S
C463 N466 1.379 . S
N464 Zn448 2.036 . S
N464 C462 1.298 . S
N464 N465 1.398 . S
N465 C463 1.299 . S
N465 N464 1.398 . S
N466 C462 1.367 . S
N466 C463 1.379 . S
H467 C470 0.980 . S
H468 C470 0.981 . S
H469 C470 0.981 . S
C470 C462 1.481 . S
C470 H467 0.980 . S
C470 H468 0.981 . S
C470 H469 0.981 . S
C471 C458 1.481 . S
C471 H472 0.980 . S
C471 H473 0.981 . S
C471 H474 0.981 . S
H472 C471 0.980 . S
H473 C471 0.981 . S
H474 C471 0.981 . S
O475 Zn451 2.066 . S
O475 C454 1.256 . S
O476 Zn448 2.053 . S
O476 C454 1.244 . S
C477 O455 1.259 . S
C477 O456 1.254 . S
O478 Zn448 2.066 . S
O478 C450 1.256 . S
O479 C450 1.244 . S
O479 Zn451 2.053 . S
Zn480 O481 2.055 . S
Zn480 O488 2.046 . S
Zn480 N496 2.036 . S
Zn480 O508 2.053 . S
Zn480 O510 2.066 . S
O481 Zn480 2.055 . S
O481 C484 1.259 . S
C482 O510 1.256 . S
C482 O511 1.244 . S
Zn483 O485 2.046 . S
Zn483 O487 2.055 . S
Zn483 N489 2.036 . S
Zn483 O507 2.066 . S
Zn483 O511 2.053 . S
C484 O481 1.259 . S
C484 O485 1.254 . S
O485 Zn483 2.046 . S
O485 C484 1.254 . S
C486 O507 1.256 . S
C486 O508 1.244 . S
O487 Zn483 2.055 . S
O487 C509 1.259 . S
O488 Zn480 2.046 . S
O488 C509 1.254 . S
N489 Zn483 2.036 . S
N489 C490 1.298 . S
N489 N492 1.398 . S
C490 N489 1.298 . S
C490 N493 1.367 . S
C490 C503 1.481 . S
C491 N492 1.299 . S
C491 N493 1.379 . S
N492 N489 1.398 . S
N492 C491 1.299 . S
N493 C490 1.367 . S
N493 C491 1.379 . S
C494 N496 1.298 . S
C494 N498 1.367 . S
C494 C502 1.481 . S
C495 N497 1.299 . S
C495 N498 1.379 . S
N496 Zn480 2.036 . S
N496 C494 1.298 . S
N496 N497 1.398 . S
N497 C495 1.299 . S
N497 N496 1.398 . S
N498 C494 1.367 . S
N498 C495 1.379 . S
H499 C502 0.980 . S
H500 C502 0.981 . S
H501 C502 0.981 . S
C502 C494 1.481 . S
C502 H499 0.980 . S
C502 H500 0.981 . S
C502 H501 0.981 . S
C503 C490 1.481 . S
C503 H504 0.980 . S
C503 H505 0.981 . S
C503 H506 0.981 . S
H504 C503 0.980 . S
H505 C503 0.981 . S
H506 C503 0.981 . S
O507 Zn483 2.066 . S
O507 C486 1.256 . S
O508 Zn480 2.053 . S
O508 C486 1.244 . S
C509 O487 1.259 . S
C509 O488 1.254 . S
O510 Zn480 2.066 . S
O510 C482 1.256 . S
O511 C482 1.244 . S
O511 Zn483 2.053 . S
C512 C513 1.391 . S
C512 C514 1.394 . S
C512 H528 0.931 . S
C513 C512 1.391 . S
C513 C517 1.376 . S
C514 C512 1.394 . S
C514 C515 1.369 . S
C514 C518 1.531 . S
C515 C514 1.369 . S
C515 C516 1.410 . S
C515 C523 1.503 . S
C516 C515 1.410 . S
C516 C517 1.392 . S
C516 C519 1.511 . S
C517 C513 1.376 . S
C517 C516 1.392 . S
C517 H529 0.929 . S
C518 C514 1.531 . S
C518 H530 0.960 . S
C518 H531 0.962 . S
C518 H532 0.960 . S
C519 C516 1.511 . S
C519 H533 0.961 . S
C519 H534 0.961 . S
C519 H535 0.961 . S
C520 C521 1.370 . S
C520 C522 1.363 . S
C520 H536 0.931 . S
C521 C520 1.370 . S
C521 C525 1.408 . S
C522 C520 1.363 . S
C522 C523 1.370 . S
C522 C526 1.524 . S
C523 C515 1.503 . S
C523 C522 1.370 . S
C523 C524 1.403 . S
C524 C523 1.403 . S
C524 C525 1.404 . S
C524 C527 1.539 . S
C525 C521 1.408 . S
C525 C524 1.404 . S
C525 H537 0.930 . S
C526 C522 1.524 . S
C526 H538 0.956 . S
C526 H539 0.961 . S
C526 H540 0.961 . S
C527 C524 1.539 . S
C527 H541 0.958 . S
C527 H542 0.961 . S
C527 H543 0.960 . S
H528 C512 0.931 . S
H529 C517 0.929 . S
H530 C518 0.960 . S
H531 C518 0.962 . S
H532 C518 0.960 . S
H533 C519 0.961 . S
H534 C519 0.961 . S
H535 C519 0.961 . S
H536 C520 0.931 . S
H537 C525 0.930 . S
H538 C526 0.956 . S
H539 C526 0.961 . S
H540 C526 0.961 . S
H541 C527 0.958 . S
H542 C527 0.961 . S
H543 C527 0.960 . S
C544 C545 1.391 . S
C544 C546 1.394 . S
C544 H560 0.931 . S
C545 C544 1.391 . S
C545 C549 1.376 . S
C546 C544 1.394 . S
C546 C547 1.369 . S
C546 C550 1.531 . S
C547 C546 1.369 . S
C547 C548 1.410 . S
C547 C555 1.503 . S
C548 C547 1.410 . S
C548 C549 1.392 . S
C548 C551 1.511 . S
C549 C545 1.376 . S
C549 C548 1.392 . S
C549 H561 0.929 . S
C550 C546 1.531 . S
C550 H562 0.960 . S
C550 H563 0.962 . S
C550 H564 0.960 . S
C551 C548 1.511 . S
C551 H565 0.961 . S
C551 H566 0.961 . S
C551 H567 0.961 . S
C552 C553 1.370 . S
C552 C554 1.363 . S
C552 H568 0.931 . S
C553 C552 1.370 . S
C553 C557 1.408 . S
C554 C552 1.363 . S
C554 C555 1.370 . S
C554 C558 1.524 . S
C555 C547 1.503 . S
C555 C554 1.370 . S
C555 C556 1.403 . S
C556 C555 1.403 . S
C556 C557 1.404 . S
C556 C559 1.539 . S
C557 C553 1.408 . S
C557 C556 1.404 . S
C557 H569 0.930 . S
C558 C554 1.524 . S
C558 H570 0.956 . S
C558 H571 0.961 . S
C558 H572 0.961 . S
C559 C556 1.539 . S
C559 H573 0.958 . S
C559 H574 0.961 . S
C559 H575 0.960 . S
H560 C544 0.931 . S
H561 C549 0.929 . S
H562 C550 0.960 . S
H563 C550 0.962 . S
H564 C550 0.960 . S
H565 C551 0.961 . S
H566 C551 0.961 . S
H567 C551 0.961 . S
H568 C552 0.931 . S
H569 C557 0.930 . S
H570 C558 0.956 . S
H571 C558 0.961 . S
H572 C558 0.961 . S
H573 C559 0.958 . S
H574 C559 0.961 . S
H575 C559 0.960 . S
C576 C577 1.391 . S
C576 C578 1.394 . S
C576 H592 0.931 . S
C577 C576 1.391 . S
C577 C581 1.376 . S
C578 C576 1.394 . S
C578 C579 1.369 . S
C578 C582 1.531 . S
C579 C578 1.369 . S
C579 C580 1.410 . S
C579 C587 1.503 . S
C580 C579 1.410 . S
C580 C581 1.392 . S
C580 C583 1.511 . S
C581 C577 1.376 . S
C581 C580 1.392 . S
C581 H593 0.929 . S
C582 C578 1.531 . S
C582 H594 0.960 . S
C582 H595 0.962 . S
C582 H596 0.960 . S
C583 C580 1.511 . S
C583 H597 0.961 . S
C583 H598 0.961 . S
C583 H599 0.961 . S
C584 C585 1.370 . S
C584 C586 1.363 . S
C584 H600 0.931 . S
C585 C584 1.370 . S
C585 C589 1.408 . S
C586 C584 1.363 . S
C586 C587 1.370 . S
C586 C590 1.524 . S
C587 C579 1.503 . S
C587 C586 1.370 . S
C587 C588 1.403 . S
C588 C587 1.403 . S
C588 C589 1.404 . S
C588 C591 1.539 . S
C589 C585 1.408 . S
C589 C588 1.404 . S
C589 H601 0.930 . S
C590 C586 1.524 . S
C590 H602 0.956 . S
C590 H603 0.961 . S
C590 H604 0.961 . S
C591 C588 1.539 . S
C591 H605 0.958 . S
C591 H606 0.961 . S
C591 H607 0.960 . S
H592 C576 0.931 . S
H593 C581 0.929 . S
H594 C582 0.960 . S
H595 C582 0.962 . S
H596 C582 0.960 . S
H597 C583 0.961 . S
H598 C583 0.961 . S
H599 C583 0.961 . S
H600 C584 0.931 . S
H601 C589 0.930 . S
H602 C590 0.956 . S
H603 C590 0.961 . S
H604 C590 0.961 . S
H605 C591 0.958 . S
H606 C591 0.961 . S
H607 C591 0.960 . S
C608 C609 1.391 . S
C608 C610 1.394 . S
C608 H624 0.931 . S
C609 C608 1.391 . S
C609 C613 1.376 . S
C610 C608 1.394 . S
C610 C611 1.369 . S
C610 C614 1.531 . S
C611 C610 1.369 . S
C611 C612 1.410 . S
C611 C619 1.503 . S
C612 C611 1.410 . S
C612 C613 1.392 . S
C612 C615 1.511 . S
C613 C609 1.376 . S
C613 C612 1.392 . S
C613 H625 0.929 . S
C614 C610 1.531 . S
C614 H626 0.960 . S
C614 H627 0.962 . S
C614 H628 0.960 . S
C615 C612 1.511 . S
C615 H629 0.961 . S
C615 H630 0.961 . S
C615 H631 0.961 . S
C616 C617 1.370 . S
C616 C618 1.363 . S
C616 H632 0.931 . S
C617 C616 1.370 . S
C617 C621 1.408 . S
C618 C616 1.363 . S
C618 C619 1.370 . S
C618 C622 1.524 . S
C619 C611 1.503 . S
C619 C618 1.370 . S
C619 C620 1.403 . S
C620 C619 1.403 . S
C620 C621 1.404 . S
C620 C623 1.539 . S
C621 C617 1.408 . S
C621 C620 1.404 . S
C621 H633 0.930 . S
C622 C618 1.524 . S
C622 H634 0.956 . S
C622 H635 0.961 . S
C622 H636 0.961 . S
C623 C620 1.539 . S
C623 H637 0.958 . S
C623 H638 0.961 . S
C623 H639 0.960 . S
H624 C608 0.931 . S
H625 C613 0.929 . S
H626 C614 0.960 . S
H627 C614 0.962 . S
H628 C614 0.960 . S
H629 C615 0.961 . S
H630 C615 0.961 . S
H631 C615 0.961 . S
H632 C616 0.931 . S
H633 C621 0.930 . S
H634 C622 0.956 . S
H635 C622 0.961 . S
H636 C622 0.961 . S
H637 C623 0.958 . S
H638 C623 0.961 . S
H639 C623 0.960 . S
C640 C641 1.391 . S
C640 C642 1.394 . S
C640 H656 0.931 . S
C641 C640 1.391 . S
C641 C645 1.376 . S
C642 C640 1.394 . S
C642 C643 1.369 . S
C642 C646 1.531 . S
C643 C642 1.369 . S
C643 C644 1.410 . S
C643 C651 1.503 . S
C644 C643 1.410 . S
C644 C645 1.392 . S
C644 C647 1.511 . S
C645 C641 1.376 . S
C645 C644 1.392 . S
C645 H657 0.929 . S
C646 C642 1.531 . S
C646 H658 0.960 . S
C646 H659 0.962 . S
C646 H660 0.960 . S
C647 C644 1.511 . S
C647 H661 0.961 . S
C647 H662 0.961 . S
C647 H663 0.961 . S
C648 C649 1.370 . S
C648 C650 1.363 . S
C648 H664 0.931 . S
C649 C648 1.370 . S
C649 C653 1.408 . S
C650 C648 1.363 . S
C650 C651 1.370 . S
C650 C654 1.524 . S
C651 C643 1.503 . S
C651 C650 1.370 . S
C651 C652 1.403 . S
C652 C651 1.403 . S
C652 C653 1.404 . S
C652 C655 1.539 . S
C653 C649 1.408 . S
C653 C652 1.404 . S
C653 H665 0.930 . S
C654 C650 1.524 . S
C654 H666 0.956 . S
C654 H667 0.961 . S
C654 H668 0.961 . S
C655 C652 1.539 . S
C655 H669 0.958 . S
C655 H670 0.961 . S
C655 H671 0.960 . S
H656 C640 0.931 . S
H657 C645 0.929 . S
H658 C646 0.960 . S
H659 C646 0.962 . S
H660 C646 0.960 . S
H661 C647 0.961 . S
H662 C647 0.961 . S
H663 C647 0.961 . S
H664 C648 0.931 . S
H665 C653 0.930 . S
H666 C654 0.956 . S
H667 C654 0.961 . S
H668 C654 0.961 . S
H669 C655 0.958 . S
H670 C655 0.961 . S
H671 C655 0.960 . S
C672 C673 1.391 . S
C672 C674 1.394 . S
C672 H688 0.931 . S
C673 C672 1.391 . S
C673 C677 1.376 . S
C674 C672 1.394 . S
C674 C675 1.369 . S
C674 C678 1.531 . S
C675 C674 1.369 . S
C675 C676 1.410 . S
C675 C683 1.503 . S
C676 C675 1.410 . S
C676 C677 1.392 . S
C676 C679 1.511 . S
C677 C673 1.376 . S
C677 C676 1.392 . S
C677 H689 0.929 . S
C678 C674 1.531 . S
C678 H690 0.960 . S
C678 H691 0.962 . S
C678 H692 0.960 . S
C679 C676 1.511 . S
C679 H693 0.961 . S
C679 H694 0.961 . S
C679 H695 0.961 . S
C680 C681 1.370 . S
C680 C682 1.363 . S
C680 H696 0.931 . S
C681 C680 1.370 . S
C681 C685 1.408 . S
C682 C680 1.363 . S
C682 C683 1.370 . S
C682 C686 1.524 . S
C683 C675 1.503 . S
C683 C682 1.370 . S
C683 C684 1.403 . S
C684 C683 1.403 . S
C684 C685 1.404 . S
C684 C687 1.539 . S
C685 C681 1.408 . S
C685 C684 1.404 . S
C685 H697 0.930 . S
C686 C682 1.524 . S
C686 H698 0.956 . S
C686 H699 0.961 . S
C686 H700 0.961 . S
C687 C684 1.539 . S
C687 H701 0.958 . S
C687 H702 0.961 . S
C687 H703 0.960 . S
H688 C672 0.931 . S
H689 C677 0.929 . S
H690 C678 0.960 . S
H691 C678 0.962 . S
H692 C678 0.960 . S
H693 C679 0.961 . S
H694 C679 0.961 . S
H695 C679 0.961 . S
H696 C680 0.931 . S
H697 C685 0.930 . S
H698 C686 0.956 . S
H699 C686 0.961 . S
H700 C686 0.961 . S
H701 C687 0.958 . S
H702 C687 0.961 . S
H703 C687 0.960 . S
C704 C705 1.391 . S
C704 C706 1.394 . S
C704 H720 0.931 . S
C705 C704 1.391 . S
C705 C709 1.376 . S
C706 C704 1.394 . S
C706 C707 1.369 . S
C706 C710 1.531 . S
C707 C706 1.369 . S
C707 C708 1.410 . S
C707 C715 1.503 . S
C708 C707 1.410 . S
C708 C709 1.392 . S
C708 C711 1.511 . S
C709 C705 1.376 . S
C709 C708 1.392 . S
C709 H721 0.929 . S
C710 C706 1.531 . S
C710 H722 0.960 . S
C710 H723 0.962 . S
C710 H724 0.960 . S
C711 C708 1.511 . S
C711 H725 0.961 . S
C711 H726 0.961 . S
C711 H727 0.961 . S
C712 C713 1.370 . S
C712 C714 1.363 . S
C712 H728 0.931 . S
C713 C712 1.370 . S
C713 C717 1.408 . S
C714 C712 1.363 . S
C714 C715 1.370 . S
C714 C718 1.524 . S
C715 C707 1.503 . S
C715 C714 1.370 . S
C715 C716 1.403 . S
C716 C715 1.403 . S
C716 C717 1.404 . S
C716 C719 1.539 . S
C717 C713 1.408 . S
C717 C716 1.404 . S
C717 H729 0.930 . S
C718 C714 1.524 . S
C718 H730 0.956 . S
C718 H731 0.961 . S
C718 H732 0.961 . S
C719 C716 1.539 . S
C719 H733 0.958 . S
C719 H734 0.961 . S
C719 H735 0.960 . S
H720 C704 0.931 . S
H721 C709 0.929 . S
H722 C710 0.960 . S
H723 C710 0.962 . S
H724 C710 0.960 . S
H725 C711 0.961 . S
H726 C711 0.961 . S
H727 C711 0.961 . S
H728 C712 0.931 . S
H729 C717 0.930 . S
H730 C718 0.956 . S
H731 C718 0.961 . S
H732 C718 0.961 . S
H733 C719 0.958 . S
H734 C719 0.961 . S
H735 C719 0.960 . S
C736 C737 1.391 . S
C736 C738 1.394 . S
C736 H752 0.931 . S
C737 C736 1.391 . S
C737 C741 1.376 . S
C738 C736 1.394 . S
C738 C739 1.369 . S
C738 C742 1.531 . S
C739 C738 1.369 . S
C739 C740 1.410 . S
C739 C747 1.503 . S
C740 C739 1.410 . S
C740 C741 1.392 . S
C740 C743 1.511 . S
C741 C737 1.376 . S
C741 C740 1.392 . S
C741 H753 0.929 . S
C742 C738 1.531 . S
C742 H754 0.960 . S
C742 H755 0.962 . S
C742 H756 0.960 . S
C743 C740 1.511 . S
C743 H757 0.961 . S
C743 H758 0.961 . S
C743 H759 0.961 . S
C744 C745 1.370 . S
C744 C746 1.363 . S
C744 H760 0.931 . S
C745 C744 1.370 . S
C745 C749 1.408 . S
C746 C744 1.363 . S
C746 C747 1.370 . S
C746 C750 1.524 . S
C747 C739 1.503 . S
C747 C746 1.370 . S
C747 C748 1.403 . S
C748 C747 1.403 . S
C748 C749 1.404 . S
C748 C751 1.539 . S
C749 C745 1.408 . S
C749 C748 1.404 . S
C749 H761 0.930 . S
C750 C746 1.524 . S
C750 H762 0.956 . S
C750 H763 0.961 . S
C750 H764 0.961 . S
C751 C748 1.539 . S
C751 H765 0.958 . S
C751 H766 0.961 . S
C751 H767 0.960 . S
H752 C736 0.931 . S
H753 C741 0.929 . S
H754 C742 0.960 . S
H755 C742 0.962 . S
H756 C742 0.960 . S
H757 C743 0.961 . S
H758 C743 0.961 . S
H759 C743 0.961 . S
H760 C744 0.931 . S
H761 C749 0.930 . S
H762 C750 0.956 . S
H763 C750 0.961 . S
H764 C750 0.961 . S
H765 C751 0.958 . S
H766 C751 0.961 . S
H767 C751 0.960 . S
C768 C769 1.391 . S
C768 C770 1.394 . S
C768 H784 0.931 . S
C769 C768 1.391 . S
C769 C773 1.376 . S
C770 C768 1.394 . S
C770 C771 1.369 . S
C770 C774 1.531 . S
C771 C770 1.369 . S
C771 C772 1.410 . S
C771 C779 1.503 . S
C772 C771 1.410 . S
C772 C773 1.392 . S
C772 C775 1.511 . S
C773 C769 1.376 . S
C773 C772 1.392 . S
C773 H785 0.929 . S
C774 C770 1.531 . S
C774 H786 0.960 . S
C774 H787 0.962 . S
C774 H788 0.960 . S
C775 C772 1.511 . S
C775 H789 0.961 . S
C775 H790 0.961 . S
C775 H791 0.961 . S
C776 C777 1.370 . S
C776 C778 1.363 . S
C776 H792 0.931 . S
C777 C776 1.370 . S
C777 C781 1.408 . S
C778 C776 1.363 . S
C778 C779 1.370 . S
C778 C782 1.524 . S
C779 C771 1.503 . S
C779 C778 1.370 . S
C779 C780 1.403 . S
C780 C779 1.403 . S
C780 C781 1.404 . S
C780 C783 1.539 . S
C781 C777 1.408 . S
C781 C780 1.404 . S
C781 H793 0.930 . S
C782 C778 1.524 . S
C782 H794 0.956 . S
C782 H795 0.961 . S
C782 H796 0.961 . S
C783 C780 1.539 . S
C783 H797 0.958 . S
C783 H798 0.961 . S
C783 H799 0.960 . S
H784 C768 0.931 . S
H785 C773 0.929 . S
H786 C774 0.960 . S
H787 C774 0.962 . S
H788 C774 0.960 . S
H789 C775 0.961 . S
H790 C775 0.961 . S
H791 C775 0.961 . S
H792 C776 0.931 . S
H793 C781 0.930 . S
H794 C782 0.956 . S
H795 C782 0.961 . S
H796 C782 0.961 . S
H797 C783 0.958 . S
H798 C783 0.961 . S
H799 C783 0.960 . S
C800 C801 1.391 . S
C800 C802 1.394 . S
C800 H816 0.931 . S
C801 C800 1.391 . S
C801 C805 1.376 . S
C802 C800 1.394 . S
C802 C803 1.369 . S
C802 C806 1.531 . S
C803 C802 1.369 . S
C803 C804 1.410 . S
C803 C811 1.503 . S
C804 C803 1.410 . S
C804 C805 1.392 . S
C804 C807 1.511 . S
C805 C801 1.376 . S
C805 C804 1.392 . S
C805 H817 0.929 . S
C806 C802 1.531 . S
C806 H818 0.960 . S
C806 H819 0.962 . S
C806 H820 0.960 . S
C807 C804 1.511 . S
C807 H821 0.961 . S
C807 H822 0.961 . S
C807 H823 0.961 . S
C808 C809 1.370 . S
C808 C810 1.363 . S
C808 H824 0.931 . S
C809 C808 1.370 . S
C809 C813 1.408 . S
C810 C808 1.363 . S
C810 C811 1.370 . S
C810 C814 1.524 . S
C811 C803 1.503 . S
C811 C810 1.370 . S
C811 C812 1.403 . S
C812 C811 1.403 . S
C812 C813 1.404 . S
C812 C815 1.539 . S
C813 C809 1.408 . S
C813 C812 1.404 . S
C813 H825 0.930 . S
C814 C810 1.524 . S
C814 H826 0.956 . S
C814 H827 0.961 . S
C814 H828 0.961 . S
C815 C812 1.539 . S
C815 H829 0.958 . S
C815 H830 0.961 . S
C815 H831 0.960 . S
H816 C800 0.931 . S
H817 C805 0.929 . S
H818 C806 0.960 . S
H819 C806 0.962 . S
H820 C806 0.960 . S
H821 C807 0.961 . S
H822 C807 0.961 . S
H823 C807 0.961 . S
H824 C808 0.931 . S
H825 C813 0.930 . S
H826 C814 0.956 . S
H827 C814 0.961 . S
H828 C814 0.961 . S
H829 C815 0.958 . S
H830 C815 0.961 . S
H831 C815 0.960 . S
C832 C833 1.391 . S
C832 C834 1.394 . S
C832 H848 0.931 . S
C833 C832 1.391 . S
C833 C837 1.376 . S
C834 C832 1.394 . S
C834 C835 1.369 . S
C834 C838 1.531 . S
C835 C834 1.369 . S
C835 C836 1.410 . S
C835 C843 1.503 . S
C836 C835 1.410 . S
C836 C837 1.392 . S
C836 C839 1.511 . S
C837 C833 1.376 . S
C837 C836 1.392 . S
C837 H849 0.929 . S
C838 C834 1.531 . S
C838 H850 0.960 . S
C838 H851 0.962 . S
C838 H852 0.960 . S
C839 C836 1.511 . S
C839 H853 0.961 . S
C839 H854 0.961 . S
C839 H855 0.961 . S
C840 C841 1.370 . S
C840 C842 1.363 . S
C840 H856 0.931 . S
C841 C840 1.370 . S
C841 C845 1.408 . S
C842 C840 1.363 . S
C842 C843 1.370 . S
C842 C846 1.524 . S
C843 C835 1.503 . S
C843 C842 1.370 . S
C843 C844 1.403 . S
C844 C843 1.403 . S
C844 C845 1.404 . S
C844 C847 1.539 . S
C845 C841 1.408 . S
C845 C844 1.404 . S
C845 H857 0.930 . S
C846 C842 1.524 . S
C846 H858 0.956 . S
C846 H859 0.961 . S
C846 H860 0.961 . S
C847 C844 1.539 . S
C847 H861 0.958 . S
C847 H862 0.961 . S
C847 H863 0.960 . S
H848 C832 0.931 . S
H849 C837 0.929 . S
H850 C838 0.960 . S
H851 C838 0.962 . S
H852 C838 0.960 . S
H853 C839 0.961 . S
H854 C839 0.961 . S
H855 C839 0.961 . S
H856 C840 0.931 . S
H857 C845 0.930 . S
H858 C846 0.956 . S
H859 C846 0.961 . S
H860 C846 0.961 . S
H861 C847 0.958 . S
H862 C847 0.961 . S
H863 C847 0.960 . S
C864 C865 1.391 . S
C864 C866 1.394 . S
C864 H880 0.931 . S
C865 C864 1.391 . S
C865 C869 1.376 . S
C866 C864 1.394 . S
C866 C867 1.369 . S
C866 C870 1.531 . S
C867 C866 1.369 . S
C867 C868 1.410 . S
C867 C875 1.503 . S
C868 C867 1.410 . S
C868 C869 1.392 . S
C868 C871 1.511 . S
C869 C865 1.376 . S
C869 C868 1.392 . S
C869 H881 0.929 . S
C870 C866 1.531 . S
C870 H882 0.960 . S
C870 H883 0.962 . S
C870 H884 0.960 . S
C871 C868 1.511 . S
C871 H885 0.961 . S
C871 H886 0.961 . S
C871 H887 0.961 . S
C872 C873 1.370 . S
C872 C874 1.363 . S
C872 H888 0.931 . S
C873 C872 1.370 . S
C873 C877 1.408 . S
C874 C872 1.363 . S
C874 C875 1.370 . S
C874 C878 1.524 . S
C875 C867 1.503 . S
C875 C874 1.370 . S
C875 C876 1.403 . S
C876 C875 1.403 . S
C876 C877 1.404 . S
C876 C879 1.539 . S
C877 C873 1.408 . S
C877 C876 1.404 . S
C877 H889 0.930 1_455 S
C878 C874 1.524 . S
C878 H890 0.956 . S
C878 H891 0.961 . S
C878 H892 0.961 . S
C879 C876 1.539 . S
C879 H893 0.958 . S
C879 H894 0.961 1_455 S
C879 H895 0.960 . S
H880 C864 0.931 . S
H881 C869 0.929 . S
H882 C870 0.960 . S
H883 C870 0.962 . S
H884 C870 0.960 . S
H885 C871 0.961 . S
H886 C871 0.961 . S
H887 C871 0.961 . S
H888 C872 0.931 . S
H889 C877 0.930 1_655 S
H890 C878 0.956 . S
H891 C878 0.961 . S
H892 C878 0.961 . S
H893 C879 0.958 . S
H894 C879 0.961 1_655 S
H895 C879 0.960 . S
C896 C897 1.391 . S
C896 C898 1.394 . S
C896 H912 0.931 . S
C897 C896 1.391 . S
C897 C901 1.376 . S
C898 C896 1.394 . S
C898 C899 1.369 . S
C898 C902 1.531 . S
C899 C898 1.369 . S
C899 C900 1.410 . S
C899 C907 1.503 . S
C900 C899 1.410 . S
C900 C901 1.392 . S
C900 C903 1.511 . S
C901 C897 1.376 . S
C901 C900 1.392 . S
C901 H913 0.929 . S
C902 C898 1.531 . S
C902 H914 0.960 . S
C902 H915 0.962 . S
C902 H916 0.960 . S
C903 C900 1.511 . S
C903 H917 0.961 . S
C903 H918 0.961 . S
C903 H919 0.961 . S
C904 C905 1.370 . S
C904 C906 1.363 . S
C904 H920 0.931 . S
C905 C904 1.370 . S
C905 C909 1.408 . S
C906 C904 1.363 . S
C906 C907 1.370 . S
C906 C910 1.524 . S
C907 C899 1.503 . S
C907 C906 1.370 . S
C907 C908 1.403 . S
C908 C907 1.403 . S
C908 C909 1.404 . S
C908 C911 1.539 . S
C909 C905 1.408 . S
C909 C908 1.404 . S
C909 H921 0.930 . S
C910 C906 1.524 . S
C910 H922 0.956 . S
C910 H923 0.961 . S
C910 H924 0.961 . S
C911 C908 1.539 . S
C911 H925 0.958 . S
C911 H926 0.961 . S
C911 H927 0.960 . S
H912 C896 0.931 . S
H913 C901 0.929 . S
H914 C902 0.960 . S
H915 C902 0.962 . S
H916 C902 0.960 . S
H917 C903 0.961 . S
H918 C903 0.961 . S
H919 C903 0.961 . S
H920 C904 0.931 . S
H921 C909 0.930 . S
H922 C910 0.956 . S
H923 C910 0.961 . S
H924 C910 0.961 . S
H925 C911 0.958 . S
H926 C911 0.961 . S
H927 C911 0.960 . S
C928 C929 1.391 . S
C928 C930 1.394 . S
C928 H944 0.931 . S
C929 C928 1.391 . S
C929 C933 1.376 . S
C930 C928 1.394 . S
C930 C931 1.369 . S
C930 C934 1.531 . S
C931 C930 1.369 . S
C931 C932 1.410 . S
C931 C939 1.503 . S
C932 C931 1.410 . S
C932 C933 1.392 . S
C932 C935 1.511 . S
C933 C929 1.376 . S
C933 C932 1.392 . S
C933 H945 0.929 . S
C934 C930 1.531 . S
C934 H946 0.960 . S
C934 H947 0.962 . S
C934 H948 0.960 . S
C935 C932 1.511 . S
C935 H949 0.961 . S
C935 H950 0.961 . S
C935 H951 0.961 . S
C936 C937 1.370 . S
C936 C938 1.363 . S
C936 H952 0.931 . S
C937 C936 1.370 . S
C937 C941 1.408 . S
C938 C936 1.363 . S
C938 C939 1.370 . S
C938 C942 1.524 . S
C939 C931 1.503 . S
C939 C938 1.370 . S
C939 C940 1.403 . S
C940 C939 1.403 . S
C940 C941 1.404 . S
C940 C943 1.539 . S
C941 C937 1.408 . S
C941 C940 1.404 . S
C941 H953 0.930 . S
C942 C938 1.524 . S
C942 H954 0.956 . S
C942 H955 0.961 . S
C942 H956 0.961 . S
C943 C940 1.539 . S
C943 H957 0.958 . S
C943 H958 0.961 . S
C943 H959 0.960 . S
H944 C928 0.931 . S
H945 C933 0.929 . S
H946 C934 0.960 . S
H947 C934 0.962 . S
H948 C934 0.960 . S
H949 C935 0.961 . S
H950 C935 0.961 . S
H951 C935 0.961 . S
H952 C936 0.931 . S
H953 C941 0.930 . S
H954 C942 0.956 . S
H955 C942 0.961 . S
H956 C942 0.961 . S
H957 C943 0.958 . S
H958 C943 0.961 . S
H959 C943 0.960 . S
C960 C961 1.391 . S
C960 C962 1.394 . S
C960 H976 0.931 . S
C961 C960 1.391 . S
C961 C965 1.376 . S
C962 C960 1.394 . S
C962 C963 1.369 . S
C962 C966 1.531 . S
C963 C962 1.369 . S
C963 C964 1.410 . S
C963 C971 1.503 . S
C964 C963 1.410 . S
C964 C965 1.392 . S
C964 C967 1.511 . S
C965 C961 1.376 . S
C965 C964 1.392 . S
C965 H977 0.929 . S
C966 C962 1.531 . S
C966 H978 0.960 . S
C966 H979 0.962 . S
C966 H980 0.960 . S
C967 C964 1.511 . S
C967 H981 0.961 . S
C967 H982 0.961 . S
C967 H983 0.961 . S
C968 C969 1.370 . S
C968 C970 1.363 . S
C968 H984 0.931 . S
C969 C968 1.370 . S
C969 C973 1.408 . S
C970 C968 1.363 . S
C970 C971 1.370 . S
C970 C974 1.524 . S
C971 C963 1.503 . S
C971 C970 1.370 . S
C971 C972 1.403 . S
C972 C971 1.403 . S
C972 C973 1.404 . S
C972 C975 1.539 . S
C973 C969 1.408 . S
C973 C972 1.404 . S
C973 H985 0.930 . S
C974 C970 1.524 . S
C974 H986 0.956 . S
C974 H987 0.961 . S
C974 H988 0.961 . S
C975 C972 1.539 . S
C975 H989 0.958 . S
C975 H990 0.961 . S
C975 H991 0.960 . S
H976 C960 0.931 . S
H977 C965 0.929 . S
H978 C966 0.960 . S
H979 C966 0.962 . S
H980 C966 0.960 . S
H981 C967 0.961 . S
H982 C967 0.961 . S
H983 C967 0.961 . S
H984 C968 0.931 . S
H985 C973 0.930 . S
H986 C974 0.956 . S
H987 C974 0.961 . S
H988 C974 0.961 . S
H989 C975 0.958 . S
H990 C975 0.961 . S
H991 C975 0.960 . S
C992 C993 1.391 . S
C992 C994 1.394 . S
C992 H1008 0.931 . S
C993 C992 1.391 . S
C993 C997 1.376 . S
C994 C992 1.394 . S
C994 C995 1.369 . S
C994 C998 1.531 . S
C995 C994 1.369 . S
C995 C996 1.410 . S
C995 C1003 1.503 . S
C996 C995 1.410 . S
C996 C997 1.392 . S
C996 C999 1.511 . S
C997 C993 1.376 . S
C997 C996 1.392 . S
C997 H1009 0.929 . S
C998 C994 1.531 . S
C998 H1010 0.960 . S
C998 H1011 0.962 . S
C998 H1012 0.960 . S
C999 C996 1.511 . S
C999 H1013 0.961 . S
C999 H1014 0.961 . S
C999 H1015 0.961 . S
C1000 C1001 1.370 . S
C1000 C1002 1.363 . S
C1000 H1016 0.931 . S
C1001 C1000 1.370 . S
C1001 C1005 1.408 . S
C1002 C1000 1.363 . S
C1002 C1003 1.370 . S
C1002 C1006 1.524 . S
C1003 C995 1.503 . S
C1003 C1002 1.370 . S
C1003 C1004 1.403 . S
C1004 C1003 1.403 . S
C1004 C1005 1.404 . S
C1004 C1007 1.539 . S
C1005 C1001 1.408 . S
C1005 C1004 1.404 . S
C1005 H1017 0.930 . S
C1006 C1002 1.524 . S
C1006 H1018 0.956 . S
C1006 H1019 0.961 . S
C1006 H1020 0.961 . S
C1007 C1004 1.539 . S
C1007 H1021 0.958 . S
C1007 H1022 0.961 . S
C1007 H1023 0.960 . S
H1008 C992 0.931 . S
H1009 C997 0.929 . S
H1010 C998 0.960 . S
H1011 C998 0.962 . S
H1012 C998 0.960 . S
H1013 C999 0.961 . S
H1014 C999 0.961 . S
H1015 C999 0.961 . S
H1016 C1000 0.931 . S
H1017 C1005 0.930 . S
H1018 C1006 0.956 . S
H1019 C1006 0.961 . S
H1020 C1006 0.961 . S
H1021 C1007 0.958 . S
H1022 C1007 0.961 . S
H1023 C1007 0.960 . S
C1024 C1025 1.391 . S
C1024 C1026 1.394 . S
C1024 H1040 0.964 . S
C1025 C1024 1.391 . S
C1025 C1029 1.376 . S
C1026 C1024 1.394 . S
C1026 C1027 1.369 . S
C1026 C1030 1.531 . S
C1027 C1026 1.369 . S
C1027 C1028 1.410 . S
C1027 C1035 1.503 . S
C1028 C1027 1.410 . S
C1028 C1029 1.392 . S
C1028 C1031 1.511 . S
C1029 C1025 1.376 . S
C1029 C1028 1.392 . S
C1029 H1041 0.929 . S
C1030 C1026 1.531 . S
C1030 H1042 0.960 . S
C1030 H1043 0.962 . S
C1030 H1044 0.960 . S
C1031 C1028 1.511 . S
C1031 H1045 0.961 . S
C1031 H1046 0.961 . S
C1031 H1047 0.961 . S
C1032 C1033 1.370 . S
C1032 C1034 1.363 . S
C1032 H1048 0.931 . S
C1033 C1032 1.370 . S
C1033 C1037 1.408 . S
C1034 C1032 1.363 . S
C1034 C1035 1.370 . S
C1034 C1038 1.524 . S
C1035 C1027 1.503 . S
C1035 C1034 1.370 . S
C1035 C1036 1.403 . S
C1036 C1035 1.403 . S
C1036 C1037 1.404 . S
C1036 C1039 1.539 . S
C1037 C1033 1.408 . S
C1037 C1036 1.404 . S
C1037 H1049 0.930 . S
C1038 C1034 1.524 . S
C1038 H1050 0.956 . S
C1038 H1051 0.961 . S
C1038 H1052 0.961 . S
C1039 C1036 1.539 . S
C1039 H1053 0.958 . S
C1039 H1054 0.961 . S
C1039 H1055 0.960 . S
H1040 C1024 0.964 . S
H1041 C1029 0.929 . S
H1042 C1030 0.960 . S
H1043 C1030 0.962 . S
H1044 C1030 0.960 . S
H1045 C1031 0.961 . S
H1046 C1031 0.961 . S
H1047 C1031 0.961 . S
H1048 C1032 0.931 . S
H1049 C1037 0.930 . S
H1050 C1038 0.956 . S
H1051 C1038 0.961 . S
H1052 C1038 0.961 . S
H1053 C1039 0.958 . S
H1054 C1039 0.961 . S
H1055 C1039 0.960 . S
C1056 C1057 1.391 . S
C1056 C1058 1.394 . S
C1056 H1072 0.931 . S
C1057 C1056 1.391 . S
C1057 C1061 1.376 . S
C1058 C1056 1.394 . S
C1058 C1059 1.369 . S
C1058 C1062 1.531 . S
C1059 C1058 1.369 . S
C1059 C1060 1.410 . S
C1059 C1067 1.503 . S
C1060 C1059 1.410 . S
C1060 C1061 1.392 . S
C1060 C1063 1.511 . S
C1061 C1057 1.376 . S
C1061 C1060 1.392 . S
C1061 H1073 0.929 . S
C1062 C1058 1.531 . S
C1062 H1074 0.960 . S
C1062 H1075 0.962 . S
C1062 H1076 0.960 . S
C1063 C1060 1.511 . S
C1063 H1077 0.961 . S
C1063 H1078 0.961 . S
C1063 H1079 0.961 . S
C1064 C1065 1.370 . S
C1064 C1066 1.363 . S
C1064 H1080 0.931 . S
C1065 C1064 1.370 . S
C1065 C1069 1.408 . S
C1066 C1064 1.363 . S
C1066 C1067 1.370 . S
C1066 C1070 1.524 . S
C1067 C1059 1.503 . S
C1067 C1066 1.370 . S
C1067 C1068 1.403 . S
C1068 C1067 1.403 . S
C1068 C1069 1.404 . S
C1068 C1071 1.539 . S
C1069 C1065 1.408 . S
C1069 C1068 1.404 . S
C1069 H1081 0.930 . S
C1070 C1066 1.524 . S
C1070 H1082 0.956 . S
C1070 H1083 0.961 . S
C1070 H1084 0.961 . S
C1071 C1068 1.539 . S
C1071 H1085 0.958 . S
C1071 H1086 0.961 . S
C1071 H1087 0.960 . S
H1072 C1056 0.931 . S
H1073 C1061 0.929 . S
H1074 C1062 0.960 . S
H1075 C1062 0.962 . S
H1076 C1062 0.960 . S
H1077 C1063 0.961 . S
H1078 C1063 0.961 . S
H1079 C1063 0.961 . S
H1080 C1064 0.931 . S
H1081 C1069 0.930 . S
H1082 C1070 0.956 . S
H1083 C1070 0.961 . S
H1084 C1070 0.961 . S
H1085 C1071 0.958 . S
H1086 C1071 0.961 . S
H1087 C1071 0.960 . S
C1088 C1089 1.391 . S
C1088 C1090 1.394 . S
C1088 H1104 0.931 . S
C1089 C1088 1.391 . S
C1089 C1093 1.376 . S
C1090 C1088 1.394 . S
C1090 C1091 1.369 . S
C1090 C1094 1.531 . S
C1091 C1090 1.369 . S
C1091 C1092 1.410 . S
C1091 C1099 1.503 . S
C1092 C1091 1.410 . S
C1092 C1093 1.392 . S
C1092 C1095 1.511 . S
C1093 C1089 1.376 . S
C1093 C1092 1.392 . S
C1093 H1105 0.929 . S
C1094 C1090 1.531 . S
C1094 H1106 0.960 . S
C1094 H1107 0.962 . S
C1094 H1108 0.960 . S
C1095 C1092 1.511 . S
C1095 H1109 0.961 . S
C1095 H1110 0.961 . S
C1095 H1111 0.961 . S
C1096 C1097 1.370 . S
C1096 C1098 1.363 . S
C1096 H1112 0.931 . S
C1097 C1096 1.370 . S
C1097 C1101 1.408 . S
C1098 C1096 1.363 . S
C1098 C1099 1.370 . S
C1098 C1102 1.524 . S
C1099 C1091 1.503 . S
C1099 C1098 1.370 . S
C1099 C1100 1.403 . S
C1100 C1099 1.403 . S
C1100 C1101 1.404 . S
C1100 C1103 1.539 . S
C1101 C1097 1.408 . S
C1101 C1100 1.404 . S
C1101 H1113 0.930 . S
C1102 C1098 1.524 . S
C1102 H1114 0.956 . S
C1102 H1115 0.961 . S
C1102 H1116 0.961 . S
C1103 C1100 1.539 . S
C1103 H1117 0.958 . S
C1103 H1118 0.961 . S
C1103 H1119 0.960 . S
H1104 C1088 0.931 . S
H1105 C1093 0.929 . S
H1106 C1094 0.960 . S
H1107 C1094 0.962 . S
H1108 C1094 0.960 . S
H1109 C1095 0.961 . S
H1110 C1095 0.961 . S
H1111 C1095 0.961 . S
H1112 C1096 0.931 . S
H1113 C1101 0.930 . S
H1114 C1102 0.956 . S
H1115 C1102 0.961 . S
H1116 C1102 0.961 . S
H1117 C1103 0.958 . S
H1118 C1103 0.961 . S
H1119 C1103 0.960 . S
C1120 C1121 1.391 . S
C1120 C1122 1.394 . S
C1120 H1136 0.931 . S
C1121 C1120 1.391 . S
C1121 C1125 1.376 . S
C1122 C1120 1.394 . S
C1122 C1123 1.369 . S
C1122 C1126 1.531 . S
C1123 C1122 1.369 . S
C1123 C1124 1.410 . S
C1123 C1131 1.503 . S
C1124 C1123 1.410 . S
C1124 C1125 1.392 . S
C1124 C1127 1.511 . S
C1125 C1121 1.376 . S
C1125 C1124 1.392 . S
C1125 H1137 0.929 1_565 S
C1126 C1122 1.531 . S
C1126 H1138 0.960 . S
C1126 H1139 0.962 . S
C1126 H1140 0.960 . S
C1127 C1124 1.511 . S
C1127 H1141 0.961 . S
C1127 H1142 0.961 . S
C1127 H1143 0.961 . S
C1128 C1129 1.370 . S
C1128 C1130 1.363 . S
C1128 H1144 0.931 . S
C1129 C1128 1.370 . S
C1129 C1133 1.408 . S
C1130 C1128 1.363 . S
C1130 C1131 1.370 . S
C1130 C1134 1.524 . S
C1131 C1123 1.503 . S
C1131 C1130 1.370 . S
C1131 C1132 1.403 . S
C1132 C1131 1.403 . S
C1132 C1133 1.404 . S
C1132 C1135 1.539 . S
C1133 C1129 1.408 . S
C1133 C1132 1.404 . S
C1133 H1145 0.930 . S
C1134 C1130 1.524 . S
C1134 H1146 0.956 . S
C1134 H1147 0.961 . S
C1134 H1148 0.961 . S
C1135 C1132 1.539 . S
C1135 H1149 0.958 . S
C1135 H1150 0.961 . S
C1135 H1151 0.960 . S
H1136 C1120 0.931 . S
H1137 C1125 0.929 1_545 S
H1138 C1126 0.960 . S
H1139 C1126 0.962 . S
H1140 C1126 0.960 . S
H1141 C1127 0.961 . S
H1142 C1127 0.961 . S
H1143 C1127 0.961 . S
H1144 C1128 0.931 . S
H1145 C1133 0.930 . S
H1146 C1134 0.956 . S
H1147 C1134 0.961 . S
H1148 C1134 0.961 . S
H1149 C1135 0.958 . S
H1150 C1135 0.961 . S
H1151 C1135 0.960 . S
C1152 C1153 1.391 . S
C1152 C1154 1.394 . S
C1152 H1168 0.931 1_455 S
C1153 C1152 1.391 . S
C1153 C1157 1.376 . S
C1154 C1152 1.394 . S
C1154 C1155 1.369 . S
C1154 C1158 1.531 . S
C1155 C1154 1.369 . S
C1155 C1156 1.410 . S
C1155 C1163 1.503 . S
C1156 C1155 1.410 . S
C1156 C1157 1.392 . S
C1156 C1159 1.511 . S
C1157 C1153 1.376 . S
C1157 C1156 1.392 . S
C1157 H1169 0.929 . S
C1158 C1154 1.531 . S
C1158 H1170 0.960 . S
C1158 H1171 0.962 . S
C1158 H1172 0.960 . S
C1159 C1156 1.511 . S
C1159 H1173 0.961 . S
C1159 H1174 0.961 . S
C1159 H1175 0.961 . S
C1160 C1161 1.370 . S
C1160 C1162 1.363 . S
C1160 H1176 0.931 . S
C1161 C1160 1.370 . S
C1161 C1165 1.408 . S
C1162 C1160 1.363 . S
C1162 C1163 1.370 . S
C1162 C1166 1.524 . S
C1163 C1155 1.503 . S
C1163 C1162 1.370 . S
C1163 C1164 1.403 . S
C1164 C1163 1.403 . S
C1164 C1165 1.404 . S
C1164 C1167 1.539 . S
C1165 C1161 1.408 . S
C1165 C1164 1.404 . S
C1165 H1177 0.930 . S
C1166 C1162 1.524 . S
C1166 H1178 0.956 . S
C1166 H1179 0.961 . S
C1166 H1180 0.961 . S
C1167 C1164 1.539 . S
C1167 H1181 0.958 . S
C1167 H1182 0.961 . S
C1167 H1183 0.960 . S
H1168 C1152 0.931 1_655 S
H1169 C1157 0.929 . S
H1170 C1158 0.960 . S
H1171 C1158 0.962 . S
H1172 C1158 0.960 . S
H1173 C1159 0.961 . S
H1174 C1159 0.961 . S
H1175 C1159 0.961 . S
H1176 C1160 0.931 . S
H1177 C1165 0.930 . S
H1178 C1166 0.956 . S
H1179 C1166 0.961 . S
H1180 C1166 0.961 . S
H1181 C1167 0.958 . S
H1182 C1167 0.961 . S
H1183 C1167 0.960 . S
C1184 C1185 1.391 . S
C1184 C1186 1.394 . S
C1184 H1200 0.931 . S
C1185 C1184 1.391 . S
C1185 C1189 1.376 . S
C1186 C1184 1.394 . S
C1186 C1187 1.369 . S
C1186 C1190 1.531 . S
C1187 C1186 1.369 . S
C1187 C1188 1.410 . S
C1187 C1195 1.503 . S
C1188 C1187 1.410 . S
C1188 C1189 1.392 . S
C1188 C1191 1.511 . S
C1189 C1185 1.376 . S
C1189 C1188 1.392 . S
C1189 H1201 0.929 . S
C1190 C1186 1.531 . S
C1190 H1202 0.960 . S
C1190 H1203 0.962 . S
C1190 H1204 0.960 . S
C1191 C1188 1.511 . S
C1191 H1205 0.961 . S
C1191 H1206 0.961 . S
C1191 H1207 0.961 . S
C1192 C1193 1.370 . S
C1192 C1194 1.363 . S
C1192 H1208 0.931 . S
C1193 C1192 1.370 . S
C1193 C1197 1.408 . S
C1194 C1192 1.363 . S
C1194 C1195 1.370 . S
C1194 C1198 1.524 . S
C1195 C1187 1.503 . S
C1195 C1194 1.370 . S
C1195 C1196 1.403 . S
C1196 C1195 1.403 . S
C1196 C1197 1.404 . S
C1196 C1199 1.539 . S
C1197 C1193 1.408 . S
C1197 C1196 1.404 . S
C1197 H1209 0.930 . S
C1198 C1194 1.524 . S
C1198 H1210 0.956 . S
C1198 H1211 0.961 . S
C1198 H1212 0.961 . S
C1199 C1196 1.539 . S
C1199 H1213 0.958 . S
C1199 H1214 0.961 . S
C1199 H1215 0.960 . S
H1200 C1184 0.931 . S
H1201 C1189 0.929 . S
H1202 C1190 0.960 . S
H1203 C1190 0.962 . S
H1204 C1190 0.960 . S
H1205 C1191 0.961 . S
H1206 C1191 0.961 . S
H1207 C1191 0.961 . S
H1208 C1192 0.931 . S
H1209 C1197 0.930 . S
H1210 C1198 0.956 . S
H1211 C1198 0.961 . S
H1212 C1198 0.961 . S
H1213 C1199 0.958 . S
H1214 C1199 0.961 . S
H1215 C1199 0.960 . S
C1216 C1217 1.391 . S
C1216 C1218 1.394 . S
C1216 H1232 0.931 . S
C1217 C1216 1.391 . S
C1217 C1221 1.376 . S
C1218 C1216 1.394 . S
C1218 C1219 1.369 . S
C1218 C1222 1.531 . S
C1219 C1218 1.369 . S
C1219 C1220 1.410 . S
C1219 C1227 1.503 . S
C1220 C1219 1.410 . S
C1220 C1221 1.392 . S
C1220 C1223 1.511 . S
C1221 C1217 1.376 . S
C1221 C1220 1.392 . S
C1221 H1233 0.929 . S
C1222 C1218 1.531 . S
C1222 H1234 0.960 . S
C1222 H1235 0.962 . S
C1222 H1236 0.960 . S
C1223 C1220 1.511 . S
C1223 H1237 0.961 . S
C1223 H1238 0.961 . S
C1223 H1239 0.961 . S
C1224 C1225 1.370 . S
C1224 C1226 1.363 . S
C1224 H1240 0.931 . S
C1225 C1224 1.370 . S
C1225 C1229 1.408 . S
C1226 C1224 1.363 . S
C1226 C1227 1.370 . S
C1226 C1230 1.524 . S
C1227 C1219 1.503 . S
C1227 C1226 1.370 . S
C1227 C1228 1.403 . S
C1228 C1227 1.403 . S
C1228 C1229 1.404 . S
C1228 C1231 1.539 . S
C1229 C1225 1.408 . S
C1229 C1228 1.404 . S
C1229 H1241 0.930 . S
C1230 C1226 1.524 . S
C1230 H1242 0.956 . S
C1230 H1243 0.961 . S
C1230 H1244 0.961 . S
C1231 C1228 1.539 . S
C1231 H1245 0.958 . S
C1231 H1246 0.961 . S
C1231 H1247 0.960 . S
H1232 C1216 0.931 . S
H1233 C1221 0.929 . S
H1234 C1222 0.960 . S
H1235 C1222 0.962 . S
H1236 C1222 0.960 . S
H1237 C1223 0.961 . S
H1238 C1223 0.961 . S
H1239 C1223 0.961 . S
H1240 C1224 0.931 . S
H1241 C1229 0.930 . S
H1242 C1230 0.956 . S
H1243 C1230 0.961 . S
H1244 C1230 0.961 . S
H1245 C1231 0.958 . S
H1246 C1231 0.961 . S
H1247 C1231 0.960 . S
C1248 C1249 1.391 . S
C1248 C1250 1.394 . S
C1248 H1264 0.931 . S
C1249 C1248 1.391 . S
C1249 C1253 1.376 . S
C1250 C1248 1.394 . S
C1250 C1251 1.369 . S
C1250 C1254 1.531 . S
C1251 C1250 1.369 . S
C1251 C1252 1.410 . S
C1251 C1259 1.503 . S
C1252 C1251 1.410 . S
C1252 C1253 1.392 . S
C1252 C1255 1.511 . S
C1253 C1249 1.376 . S
C1253 C1252 1.392 . S
C1253 H1265 0.929 . S
C1254 C1250 1.531 . S
C1254 H1266 0.960 . S
C1254 H1267 0.962 . S
C1254 H1268 0.960 . S
C1255 C1252 1.511 . S
C1255 H1269 0.961 . S
C1255 H1270 0.961 . S
C1255 H1271 0.961 . S
C1256 C1257 1.370 . S
C1256 C1258 1.363 . S
C1256 H1272 0.931 . S
C1257 C1256 1.370 . S
C1257 C1261 1.408 . S
C1258 C1256 1.363 . S
C1258 C1259 1.370 . S
C1258 C1262 1.524 . S
C1259 C1251 1.503 . S
C1259 C1258 1.370 . S
C1259 C1260 1.403 . S
C1260 C1259 1.403 . S
C1260 C1261 1.404 . S
C1260 C1263 1.539 . S
C1261 C1257 1.408 . S
C1261 C1260 1.404 . S
C1261 H1273 0.930 . S
C1262 C1258 1.524 . S
C1262 H1274 0.956 . S
C1262 H1275 0.961 . S
C1262 H1276 0.961 . S
C1263 C1260 1.539 . S
C1263 H1277 0.958 . S
C1263 H1278 0.961 . S
C1263 H1279 0.960 . S
H1264 C1248 0.931 . S
H1265 C1253 0.929 . S
H1266 C1254 0.960 . S
H1267 C1254 0.962 . S
H1268 C1254 0.960 . S
H1269 C1255 0.961 . S
H1270 C1255 0.961 . S
H1271 C1255 0.961 . S
H1272 C1256 0.931 . S
H1273 C1261 0.930 . S
H1274 C1262 0.956 . S
H1275 C1262 0.961 . S
H1276 C1262 0.961 . S
H1277 C1263 0.958 . S
H1278 C1263 0.961 . S
H1279 C1263 0.960 . S
C1280 C1281 1.391 . S
C1280 C1282 1.394 . S
C1280 H1296 0.931 . S
C1281 C1280 1.391 . S
C1281 C1285 1.376 . S
C1282 C1280 1.394 . S
C1282 C1283 1.369 . S
C1282 C1286 1.531 . S
C1283 C1282 1.369 . S
C1283 C1284 1.410 . S
C1283 C1291 1.503 . S
C1284 C1283 1.410 . S
C1284 C1285 1.392 . S
C1284 C1287 1.511 . S
C1285 C1281 1.376 . S
C1285 C1284 1.392 . S
C1285 H1297 0.929 . S
C1286 C1282 1.531 . S
C1286 H1298 0.960 . S
C1286 H1299 0.962 . S
C1286 H1300 0.960 . S
C1287 C1284 1.511 . S
C1287 H1301 0.961 . S
C1287 H1302 0.961 . S
C1287 H1303 0.961 . S
C1288 C1289 1.370 . S
C1288 C1290 1.363 . S
C1288 H1304 0.931 . S
C1289 C1288 1.370 . S
C1289 C1293 1.408 . S
C1290 C1288 1.363 . S
C1290 C1291 1.370 . S
C1290 C1294 1.524 . S
C1291 C1283 1.503 . S
C1291 C1290 1.370 . S
C1291 C1292 1.403 . S
C1292 C1291 1.403 . S
C1292 C1293 1.404 . S
C1292 C1295 1.539 . S
C1293 C1289 1.408 . S
C1293 C1292 1.404 . S
C1293 H1305 0.930 . S
C1294 C1290 1.524 . S
C1294 H1306 0.956 . S
C1294 H1307 0.961 . S
C1294 H1308 0.961 . S
C1295 C1292 1.539 . S
C1295 H1309 0.958 . S
C1295 H1310 0.961 . S
C1295 H1311 0.960 . S
H1296 C1280 0.931 . S
H1297 C1285 0.929 . S
H1298 C1286 0.960 . S
H1299 C1286 0.962 . S
H1300 C1286 0.960 . S
H1301 C1287 0.961 . S
H1302 C1287 0.961 . S
H1303 C1287 0.961 . S
H1304 C1288 0.931 . S
H1305 C1293 0.930 . S
H1306 C1294 0.956 . S
H1307 C1294 0.961 . S
H1308 C1294 0.961 . S
H1309 C1295 0.958 . S
H1310 C1295 0.961 . S
H1311 C1295 0.960 . S
C1312 C1313 1.391 . S
C1312 C1314 1.394 . S
C1312 H1328 0.931 . S
C1313 C1312 1.391 . S
C1313 C1317 1.376 . S
C1314 C1312 1.394 . S
C1314 C1315 1.369 . S
C1314 C1318 1.531 . S
C1315 C1314 1.369 . S
C1315 C1316 1.410 . S
C1315 C1323 1.503 . S
C1316 C1315 1.410 . S
C1316 C1317 1.392 . S
C1316 C1319 1.511 . S
C1317 C1313 1.376 . S
C1317 C1316 1.392 . S
C1317 H1329 0.929 . S
C1318 C1314 1.531 . S
C1318 H1330 0.960 . S
C1318 H1331 0.962 . S
C1318 H1332 0.960 . S
C1319 C1316 1.511 . S
C1319 H1333 0.961 . S
C1319 H1334 0.961 . S
C1319 H1335 0.961 . S
C1320 C1321 1.370 . S
C1320 C1322 1.363 . S
C1320 H1336 0.931 . S
C1321 C1320 1.370 . S
C1321 C1325 1.408 . S
C1322 C1320 1.363 . S
C1322 C1323 1.370 . S
C1322 C1326 1.524 . S
C1323 C1315 1.503 . S
C1323 C1322 1.370 . S
C1323 C1324 1.403 . S
C1324 C1323 1.403 . S
C1324 C1325 1.404 . S
C1324 C1327 1.539 . S
C1325 C1321 1.408 . S
C1325 C1324 1.404 . S
C1325 H1337 0.930 . S
C1326 C1322 1.524 . S
C1326 H1338 0.956 . S
C1326 H1339 0.961 . S
C1326 H1340 0.961 . S
C1327 C1324 1.539 . S
C1327 H1341 0.958 . S
C1327 H1342 0.961 . S
C1327 H1343 0.960 . S
H1328 C1312 0.931 . S
H1329 C1317 0.929 . S
H1330 C1318 0.960 . S
H1331 C1318 0.962 . S
H1332 C1318 0.960 . S
H1333 C1319 0.961 . S
H1334 C1319 0.961 . S
H1335 C1319 0.961 . S
H1336 C1320 0.931 . S
H1337 C1325 0.930 . S
H1338 C1326 0.956 . S
H1339 C1326 0.961 . S
H1340 C1326 0.961 . S
H1341 C1327 0.958 . S
H1342 C1327 0.961 . S
H1343 C1327 0.960 . S
C1344 C1345 1.391 . S
C1344 C1346 1.394 . S
C1344 H1360 0.931 . S
C1345 C1344 1.391 . S
C1345 C1349 1.376 . S
C1346 C1344 1.394 . S
C1346 C1347 1.369 . S
C1346 C1350 1.531 . S
C1347 C1346 1.369 . S
C1347 C1348 1.410 . S
C1347 C1355 1.503 . S
C1348 C1347 1.410 . S
C1348 C1349 1.392 . S
C1348 C1351 1.511 . S
C1349 C1345 1.376 . S
C1349 C1348 1.392 . S
C1349 H1361 0.929 . S
C1350 C1346 1.531 . S
C1350 H1362 0.960 . S
C1350 H1363 0.962 . S
C1350 H1364 0.960 . S
C1351 C1348 1.511 . S
C1351 H1365 0.961 . S
C1351 H1366 0.961 . S
C1351 H1367 0.961 . S
C1352 C1353 1.370 . S
C1352 C1354 1.363 . S
C1352 H1368 0.931 . S
C1353 C1352 1.370 . S
C1353 C1357 1.408 . S
C1354 C1352 1.363 . S
C1354 C1355 1.370 . S
C1354 C1358 1.524 . S
C1355 C1347 1.503 . S
C1355 C1354 1.370 . S
C1355 C1356 1.403 . S
C1356 C1355 1.403 . S
C1356 C1357 1.404 . S
C1356 C1359 1.539 . S
C1357 C1353 1.408 . S
C1357 C1356 1.404 . S
C1357 H1369 0.930 . S
C1358 C1354 1.524 . S
C1358 H1370 0.956 . S
C1358 H1371 0.961 . S
C1358 H1372 0.961 . S
C1359 C1356 1.539 . S
C1359 H1373 0.958 . S
C1359 H1374 0.961 . S
C1359 H1375 0.960 . S
H1360 C1344 0.931 . S
H1361 C1349 0.929 . S
H1362 C1350 0.960 . S
H1363 C1350 0.962 . S
H1364 C1350 0.960 . S
H1365 C1351 0.961 . S
H1366 C1351 0.961 . S
H1367 C1351 0.961 . S
H1368 C1352 0.931 . S
H1369 C1357 0.930 . S
H1370 C1358 0.956 . S
H1371 C1358 0.961 . S
H1372 C1358 0.961 . S
H1373 C1359 0.958 . S
H1374 C1359 0.961 . S
H1375 C1359 0.960 . S
C1376 C1377 1.391 . S
C1376 C1378 1.394 . S
C1376 H1392 0.931 . S
C1377 C1376 1.391 . S
C1377 C1381 1.376 . S
C1378 C1376 1.394 . S
C1378 C1379 1.369 . S
C1378 C1382 1.531 . S
C1379 C1378 1.369 . S
C1379 C1380 1.410 . S
C1379 C1387 1.503 . S
C1380 C1379 1.410 . S
C1380 C1381 1.392 . S
C1380 C1383 1.511 . S
C1381 C1377 1.376 . S
C1381 C1380 1.392 . S
C1381 H1393 0.929 . S
C1382 C1378 1.531 . S
C1382 H1394 0.960 . S
C1382 H1395 0.962 . S
C1382 H1396 0.960 . S
C1383 C1380 1.511 . S
C1383 H1397 0.961 . S
C1383 H1398 0.961 . S
C1383 H1399 0.961 . S
C1384 C1385 1.370 . S
C1384 C1386 1.363 . S
C1384 H1400 0.931 . S
C1385 C1384 1.370 . S
C1385 C1389 1.408 . S
C1386 C1384 1.363 . S
C1386 C1387 1.370 . S
C1386 C1390 1.524 . S
C1387 C1379 1.503 . S
C1387 C1386 1.370 . S
C1387 C1388 1.403 . S
C1388 C1387 1.403 . S
C1388 C1389 1.404 . S
C1388 C1391 1.539 . S
C1389 C1385 1.408 . S
C1389 C1388 1.404 . S
C1389 H1401 0.930 . S
C1390 C1386 1.524 . S
C1390 H1402 0.956 . S
C1390 H1403 0.961 . S
C1390 H1404 0.961 . S
C1391 C1388 1.539 . S
C1391 H1405 0.958 . S
C1391 H1406 0.961 . S
C1391 H1407 0.960 . S
H1392 C1376 0.931 . S
H1393 C1381 0.929 . S
H1394 C1382 0.960 . S
H1395 C1382 0.962 . S
H1396 C1382 0.960 . S
H1397 C1383 0.961 . S
H1398 C1383 0.961 . S
H1399 C1383 0.961 . S
H1400 C1384 0.931 . S
H1401 C1389 0.930 . S
H1402 C1390 0.956 . S
H1403 C1390 0.961 . S
H1404 C1390 0.961 . S
H1405 C1391 0.958 . S
H1406 C1391 0.961 . S
H1407 C1391 0.960 . S
C1408 C1409 1.391 . S
C1408 C1410 1.394 . S
C1408 H1424 0.931 . S
C1409 C1408 1.391 . S
C1409 C1413 1.376 . S
C1410 C1408 1.394 . S
C1410 C1411 1.369 . S
C1410 C1414 1.531 . S
C1411 C1410 1.369 . S
C1411 C1412 1.410 . S
C1411 C1419 1.503 . S
C1412 C1411 1.410 . S
C1412 C1413 1.392 . S
C1412 C1415 1.511 . S
C1413 C1409 1.376 . S
C1413 C1412 1.392 . S
C1413 H1425 0.929 . S
C1414 C1410 1.531 . S
C1414 H1426 0.960 . S
C1414 H1427 0.962 . S
C1414 H1428 0.960 . S
C1415 C1412 1.511 . S
C1415 H1429 0.961 . S
C1415 H1430 0.961 . S
C1415 H1431 0.961 . S
C1416 C1417 1.370 . S
C1416 C1418 1.363 . S
C1416 H1432 0.931 . S
C1417 C1416 1.370 . S
C1417 C1421 1.408 . S
C1418 C1416 1.363 . S
C1418 C1419 1.370 . S
C1418 C1422 1.524 . S
C1419 C1411 1.503 . S
C1419 C1418 1.370 . S
C1419 C1420 1.403 . S
C1420 C1419 1.403 . S
C1420 C1421 1.404 . S
C1420 C1423 1.539 . S
C1421 C1417 1.408 . S
C1421 C1420 1.404 . S
C1421 H1433 0.930 . S
C1422 C1418 1.524 . S
C1422 H1434 0.956 . S
C1422 H1435 0.961 . S
C1422 H1436 0.961 . S
C1423 C1420 1.539 . S
C1423 H1437 0.958 . S
C1423 H1438 0.961 . S
C1423 H1439 0.960 . S
H1424 C1408 0.931 . S
H1425 C1413 0.929 . S
H1426 C1414 0.960 . S
H1427 C1414 0.962 . S
H1428 C1414 0.960 . S
H1429 C1415 0.961 . S
H1430 C1415 0.961 . S
H1431 C1415 0.961 . S
H1432 C1416 0.931 . S
H1433 C1421 0.930 . S
H1434 C1422 0.956 . S
H1435 C1422 0.961 . S
H1436 C1422 0.961 . S
H1437 C1423 0.958 . S
H1438 C1423 0.961 . S
H1439 C1423 0.960 . S
C1440 C1441 1.391 . S
C1440 C1442 1.394 . S
C1440 H1456 0.931 . S
C1441 C1440 1.391 . S
C1441 C1445 1.376 . S
C1442 C1440 1.394 . S
C1442 C1443 1.369 . S
C1442 C1446 1.531 . S
C1443 C1442 1.369 . S
C1443 C1444 1.410 . S
C1443 C1451 1.503 . S
C1444 C1443 1.410 . S
C1444 C1445 1.392 . S
C1444 C1447 1.511 . S
C1445 C1441 1.376 . S
C1445 C1444 1.392 . S
C1445 H1457 0.929 . S
C1446 C1442 1.531 . S
C1446 H1458 0.960 . S
C1446 H1459 0.962 . S
C1446 H1460 0.960 . S
C1447 C1444 1.511 . S
C1447 H1461 0.961 . S
C1447 H1462 0.961 . S
C1447 H1463 0.961 . S
C1448 C1449 1.370 . S
C1448 C1450 1.363 . S
C1448 H1464 0.931 . S
C1449 C1448 1.370 . S
C1449 C1453 1.408 . S
C1450 C1448 1.363 . S
C1450 C1451 1.370 . S
C1450 C1454 1.524 . S
C1451 C1443 1.503 . S
C1451 C1450 1.370 . S
C1451 C1452 1.403 . S
C1452 C1451 1.403 . S
C1452 C1453 1.404 . S
C1452 C1455 1.539 . S
C1453 C1449 1.408 . S
C1453 C1452 1.404 . S
C1453 H1465 0.930 . S
C1454 C1450 1.524 . S
C1454 H1466 0.956 . S
C1454 H1467 0.961 . S
C1454 H1468 0.961 . S
C1455 C1452 1.539 . S
C1455 H1469 0.958 . S
C1455 H1470 0.961 . S
C1455 H1471 0.960 . S
H1456 C1440 0.931 . S
H1457 C1445 0.929 . S
H1458 C1446 0.960 . S
H1459 C1446 0.962 . S
H1460 C1446 0.960 . S
H1461 C1447 0.961 . S
H1462 C1447 0.961 . S
H1463 C1447 0.961 . S
H1464 C1448 0.931 . S
H1465 C1453 0.930 . S
H1466 C1454 0.956 . S
H1467 C1454 0.961 . S
H1468 C1454 0.961 . S
H1469 C1455 0.958 . S
H1470 C1455 0.961 . S
H1471 C1455 0.960 . S
C1472 C1473 1.391 . S
C1472 C1474 1.394 . S
C1472 H1488 0.931 . S
C1473 C1472 1.391 . S
C1473 C1477 1.376 . S
C1474 C1472 1.394 . S
C1474 C1475 1.369 . S
C1474 C1478 1.531 . S
C1475 C1474 1.369 . S
C1475 C1476 1.410 . S
C1475 C1483 1.503 . S
C1476 C1475 1.410 . S
C1476 C1477 1.392 . S
C1476 C1479 1.511 . S
C1477 C1473 1.376 . S
C1477 C1476 1.392 . S
C1477 H1489 0.929 . S
C1478 C1474 1.531 . S
C1478 H1490 0.960 . S
C1478 H1491 0.962 . S
C1478 H1492 0.960 . S
C1479 C1476 1.511 . S
C1479 H1493 0.961 . S
C1479 H1494 0.961 . S
C1479 H1495 0.961 . S
C1480 C1481 1.370 . S
C1480 C1482 1.363 . S
C1480 H1496 0.931 . S
C1481 C1480 1.370 . S
C1481 C1485 1.408 . S
C1482 C1480 1.363 . S
C1482 C1483 1.370 . S
C1482 C1486 1.524 . S
C1483 C1475 1.503 . S
C1483 C1482 1.370 . S
C1483 C1484 1.403 . S
C1484 C1483 1.403 . S
C1484 C1485 1.404 . S
C1484 C1487 1.539 . S
C1485 C1481 1.408 . S
C1485 C1484 1.404 . S
C1485 H1497 0.930 . S
C1486 C1482 1.524 . S
C1486 H1498 0.956 . S
C1486 H1499 0.961 . S
C1486 H1500 0.961 . S
C1487 C1484 1.539 . S
C1487 H1501 0.958 . S
C1487 H1502 0.961 . S
C1487 H1503 0.960 . S
H1488 C1472 0.931 . S
H1489 C1477 0.929 . S
H1490 C1478 0.960 . S
H1491 C1478 0.962 . S
H1492 C1478 0.960 . S
H1493 C1479 0.961 . S
H1494 C1479 0.961 . S
H1495 C1479 0.961 . S
H1496 C1480 0.931 . S
H1497 C1485 0.930 . S
H1498 C1486 0.956 . S
H1499 C1486 0.961 . S
H1500 C1486 0.961 . S
H1501 C1487 0.958 . S
H1502 C1487 0.961 . S
H1503 C1487 0.960 . S
C1504 C1505 1.391 . S
C1504 C1506 1.394 . S
C1504 H1520 0.931 . S
C1505 C1504 1.391 . S
C1505 C1509 1.376 . S
C1506 C1504 1.394 . S
C1506 C1507 1.369 . S
C1506 C1510 1.531 . S
C1507 C1506 1.369 . S
C1507 C1508 1.410 . S
C1507 C1515 1.503 . S
C1508 C1507 1.410 . S
C1508 C1509 1.392 . S
C1508 C1511 1.511 . S
C1509 C1505 1.376 . S
C1509 C1508 1.392 . S
C1509 H1521 0.929 . S
C1510 C1506 1.531 . S
C1510 H1522 0.960 . S
C1510 H1523 0.962 . S
C1510 H1524 0.960 . S
C1511 C1508 1.511 . S
C1511 H1525 0.961 . S
C1511 H1526 0.961 . S
C1511 H1527 0.961 . S
C1512 C1513 1.370 . S
C1512 C1514 1.363 . S
C1512 H1528 0.931 . S
C1513 C1512 1.370 . S
C1513 C1517 1.408 . S
C1514 C1512 1.363 . S
C1514 C1515 1.370 . S
C1514 C1518 1.524 . S
C1515 C1507 1.503 . S
C1515 C1514 1.370 . S
C1515 C1516 1.403 . S
C1516 C1515 1.403 . S
C1516 C1517 1.404 . S
C1516 C1519 1.539 . S
C1517 C1513 1.408 . S
C1517 C1516 1.404 . S
C1517 H1529 0.930 . S
C1518 C1514 1.524 . S
C1518 H1530 0.956 . S
C1518 H1531 0.961 . S
C1518 H1532 0.961 . S
C1519 C1516 1.539 . S
C1519 H1533 0.958 . S
C1519 H1534 0.961 . S
C1519 H1535 0.960 . S
H1520 C1504 0.931 . S
H1521 C1509 0.929 . S
H1522 C1510 0.960 . S
H1523 C1510 0.962 . S
H1524 C1510 0.960 . S
H1525 C1511 0.961 . S
H1526 C1511 0.961 . S
H1527 C1511 0.961 . S
H1528 C1512 0.931 . S
H1529 C1517 0.930 . S
H1530 C1518 0.956 . S
H1531 C1518 0.961 . S
H1532 C1518 0.961 . S
H1533 C1519 0.958 . S
H1534 C1519 0.961 . S
H1535 C1519 0.960 . S
C1536 C1537 1.391 . S
C1536 C1538 1.394 . S
C1536 H1552 0.931 . S
C1537 C1536 1.391 . S
C1537 C1541 1.376 . S
C1538 C1536 1.394 . S
C1538 C1539 1.369 . S
C1538 C1542 1.531 . S
C1539 C1538 1.369 . S
C1539 C1540 1.410 . S
C1539 C1547 1.503 . S
C1540 C1539 1.410 . S
C1540 C1541 1.392 . S
C1540 C1543 1.511 . S
C1541 C1537 1.376 . S
C1541 C1540 1.392 . S
C1541 H1553 0.929 . S
C1542 C1538 1.531 . S
C1542 H1554 0.960 . S
C1542 H1555 0.962 . S
C1542 H1556 0.960 . S
C1543 C1540 1.511 . S
C1543 H1557 0.961 . S
C1543 H1558 0.961 . S
C1543 H1559 0.961 . S
C1544 C1545 1.370 . S
C1544 C1546 1.363 . S
C1544 H1560 0.931 . S
C1545 C1544 1.370 . S
C1545 C1549 1.408 . S
C1546 C1544 1.363 . S
C1546 C1547 1.370 . S
C1546 C1550 1.524 . S
C1547 C1539 1.503 . S
C1547 C1546 1.370 . S
C1547 C1548 1.403 . S
C1548 C1547 1.403 . S
C1548 C1549 1.404 . S
C1548 C1551 1.539 . S
C1549 C1545 1.408 . S
C1549 C1548 1.404 . S
C1549 H1561 0.930 . S
C1550 C1546 1.524 . S
C1550 H1562 0.956 . S
C1550 H1563 0.961 . S
C1550 H1564 0.961 . S
C1551 C1548 1.539 . S
C1551 H1565 0.958 . S
C1551 H1566 0.961 . S
C1551 H1567 0.960 . S
H1552 C1536 0.931 . S
H1553 C1541 0.929 . S
H1554 C1542 0.960 . S
H1555 C1542 0.962 . S
H1556 C1542 0.960 . S
H1557 C1543 0.961 . S
H1558 C1543 0.961 . S
H1559 C1543 0.961 . S
H1560 C1544 0.931 . S
H1561 C1549 0.930 . S
H1562 C1550 0.956 . S
H1563 C1550 0.961 . S
H1564 C1550 0.961 . S
H1565 C1551 0.958 . S
H1566 C1551 0.961 . S
H1567 C1551 0.960 . S
C1568 C1569 1.391 . S
C1568 C1570 1.394 . S
C1568 H1584 0.931 . S
C1569 C1568 1.391 . S
C1569 C1573 1.376 . S
C1570 C1568 1.394 . S
C1570 C1571 1.369 . S
C1570 C1574 1.531 . S
C1571 C1570 1.369 . S
C1571 C1572 1.410 . S
C1571 C1579 1.503 . S
C1572 C1571 1.410 . S
C1572 C1573 1.392 . S
C1572 C1575 1.511 . S
C1573 C1569 1.376 . S
C1573 C1572 1.392 . S
C1573 H1585 0.929 . S
C1574 C1570 1.531 . S
C1574 H1586 0.960 . S
C1574 H1587 0.962 . S
C1574 H1588 0.960 . S
C1575 C1572 1.511 . S
C1575 H1589 0.961 . S
C1575 H1590 0.961 . S
C1575 H1591 0.961 . S
C1576 C1577 1.370 . S
C1576 C1578 1.363 . S
C1576 H1592 0.931 . S
C1577 C1576 1.370 . S
C1577 C1581 1.408 . S
C1578 C1576 1.363 . S
C1578 C1579 1.370 . S
C1578 C1582 1.524 . S
C1579 C1571 1.503 . S
C1579 C1578 1.370 . S
C1579 C1580 1.403 . S
C1580 C1579 1.403 . S
C1580 C1581 1.404 . S
C1580 C1583 1.539 . S
C1581 C1577 1.408 . S
C1581 C1580 1.404 . S
C1581 H1593 0.930 . S
C1582 C1578 1.524 . S
C1582 H1594 0.956 . S
C1582 H1595 0.961 . S
C1582 H1596 0.961 . S
C1583 C1580 1.539 . S
C1583 H1597 0.958 . S
C1583 H1598 0.961 . S
C1583 H1599 0.960 . S
H1584 C1568 0.931 . S
H1585 C1573 0.929 . S
H1586 C1574 0.960 . S
H1587 C1574 0.962 . S
H1588 C1574 0.960 . S
H1589 C1575 0.961 . S
H1590 C1575 0.961 . S
H1591 C1575 0.961 . S
H1592 C1576 0.931 . S
H1593 C1581 0.930 . S
H1594 C1582 0.956 . S
H1595 C1582 0.961 . S
H1596 C1582 0.961 . S
H1597 C1583 0.958 . S
H1598 C1583 0.961 . S
H1599 C1583 0.960 . S
C1600 C1601 1.391 . S
C1600 C1602 1.394 . S
C1600 H1616 0.931 . S
C1601 C1600 1.391 . S
C1601 C1605 1.376 . S
C1602 C1600 1.394 . S
C1602 C1603 1.369 . S
C1602 C1606 1.531 . S
C1603 C1602 1.369 . S
C1603 C1604 1.410 . S
C1603 C1611 1.503 . S
C1604 C1603 1.410 . S
C1604 C1605 1.392 . S
C1604 C1607 1.511 . S
C1605 C1601 1.376 . S
C1605 C1604 1.392 . S
C1605 H1617 0.929 . S
C1606 C1602 1.531 . S
C1606 H1618 0.960 . S
C1606 H1619 0.962 . S
C1606 H1620 0.960 . S
C1607 C1604 1.511 . S
C1607 H1621 0.961 . S
C1607 H1622 0.961 . S
C1607 H1623 0.961 . S
C1608 C1609 1.370 . S
C1608 C1610 1.363 . S
C1608 H1624 0.931 . S
C1609 C1608 1.370 . S
C1609 C1613 1.408 . S
C1610 C1608 1.363 . S
C1610 C1611 1.370 . S
C1610 C1614 1.524 . S
C1611 C1603 1.503 . S
C1611 C1610 1.370 . S
C1611 C1612 1.403 . S
C1612 C1611 1.403 . S
C1612 C1613 1.404 . S
C1612 C1615 1.539 . S
C1613 C1609 1.408 . S
C1613 C1612 1.404 . S
C1613 H1625 0.930 . S
C1614 C1610 1.524 . S
C1614 H1626 0.956 . S
C1614 H1627 0.961 . S
C1614 H1628 0.961 . S
C1615 C1612 1.539 . S
C1615 H1629 0.958 . S
C1615 H1630 0.961 . S
C1615 H1631 0.960 . S
H1616 C1600 0.931 . S
H1617 C1605 0.929 . S
H1618 C1606 0.960 . S
H1619 C1606 0.962 . S
H1620 C1606 0.960 . S
H1621 C1607 0.961 . S
H1622 C1607 0.961 . S
H1623 C1607 0.961 . S
H1624 C1608 0.931 . S
H1625 C1613 0.930 . S
H1626 C1614 0.956 . S
H1627 C1614 0.961 . S
H1628 C1614 0.961 . S
H1629 C1615 0.958 . S
H1630 C1615 0.961 . S
H1631 C1615 0.960 . S
C1632 C1633 1.391 . S
C1632 C1634 1.394 . S
C1632 H1648 0.931 . S
C1633 C1632 1.391 . S
C1633 C1637 1.376 . S
C1634 C1632 1.394 . S
C1634 C1635 1.369 . S
C1634 C1638 1.531 . S
C1635 C1634 1.369 . S
C1635 C1636 1.410 . S
C1635 C1643 1.503 . S
C1636 C1635 1.410 . S
C1636 C1637 1.392 . S
C1636 C1639 1.511 . S
C1637 C1633 1.376 . S
C1637 C1636 1.392 . S
C1637 H1649 0.929 . S
C1638 C1634 1.531 . S
C1638 H1650 0.960 . S
C1638 H1651 0.962 . S
C1638 H1652 0.960 . S
C1639 C1636 1.511 . S
C1639 H1653 0.961 . S
C1639 H1654 0.961 . S
C1639 H1655 0.961 . S
C1640 C1641 1.370 . S
C1640 C1642 1.363 . S
C1640 H1656 0.931 . S
C1641 C1640 1.370 . S
C1641 C1645 1.408 . S
C1642 C1640 1.363 . S
C1642 C1643 1.370 . S
C1642 C1646 1.524 . S
C1643 C1635 1.503 . S
C1643 C1642 1.370 . S
C1643 C1644 1.403 . S
C1644 C1643 1.403 . S
C1644 C1645 1.404 . S
C1644 C1647 1.539 . S
C1645 C1641 1.408 . S
C1645 C1644 1.404 . S
C1645 H1657 0.930 . S
C1646 C1642 1.524 . S
C1646 H1658 0.956 . S
C1646 H1659 0.961 . S
C1646 H1660 0.961 . S
C1647 C1644 1.539 . S
C1647 H1661 0.958 . S
C1647 H1662 0.961 . S
C1647 H1663 0.960 . S
H1648 C1632 0.931 . S
H1649 C1637 0.929 . S
H1650 C1638 0.960 . S
H1651 C1638 0.962 . S
H1652 C1638 0.960 . S
H1653 C1639 0.961 . S
H1654 C1639 0.961 . S
H1655 C1639 0.961 . S
H1656 C1640 0.931 . S
H1657 C1645 0.930 . S
H1658 C1646 0.956 . S
H1659 C1646 0.961 . S
H1660 C1646 0.961 . S
H1661 C1647 0.958 . S
H1662 C1647 0.961 . S
H1663 C1647 0.960 . S
C1664 C1665 1.391 . S
C1664 C1666 1.394 . S
C1664 H1680 0.931 . S
C1665 C1664 1.391 . S
C1665 C1669 1.376 . S
C1666 C1664 1.394 . S
C1666 C1667 1.369 . S
C1666 C1670 1.531 . S
C1667 C1666 1.369 . S
C1667 C1668 1.410 . S
C1667 C1675 1.503 1_556 S
C1668 C1667 1.410 . S
C1668 C1669 1.392 . S
C1668 C1671 1.511 1_556 S
C1669 C1665 1.376 . S
C1669 C1668 1.392 . S
C1669 H1681 0.929 . S
C1670 C1666 1.531 . S
C1670 H1682 0.960 . S
C1670 H1683 0.962 . S
C1670 H1684 0.960 . S
C1671 C1668 1.511 1_554 S
C1671 H1685 0.961 . S
C1671 H1686 0.961 . S
C1671 H1687 0.961 . S
C1672 C1673 1.370 . S
C1672 C1674 1.363 . S
C1672 H1688 0.931 . S
C1673 C1672 1.370 . S
C1673 C1677 1.408 . S
C1674 C1672 1.363 . S
C1674 C1675 1.370 . S
C1674 C1678 1.524 . S
C1675 C1667 1.503 1_554 S
C1675 C1674 1.370 . S
C1675 C1676 1.403 . S
C1676 C1675 1.403 . S
C1676 C1677 1.404 . S
C1676 C1679 1.539 . S
C1677 C1673 1.408 . S
C1677 C1676 1.404 . S
C1677 H1689 0.930 . S
C1678 C1674 1.524 . S
C1678 H1690 0.956 1_554 S
C1678 H1691 0.961 . S
C1678 H1692 0.961 . S
C1679 C1676 1.539 . S
C1679 H1693 0.958 1_554 S
C1679 H1694 0.961 . S
C1679 H1695 0.960 1_554 S
H1680 C1664 0.931 . S
H1681 C1669 0.929 . S
H1682 C1670 0.960 . S
H1683 C1670 0.962 . S
H1684 C1670 0.960 . S
H1685 C1671 0.961 . S
H1686 C1671 0.961 . S
H1687 C1671 0.961 . S
H1688 C1672 0.931 . S
H1689 C1677 0.930 . S
H1690 C1678 0.956 1_556 S
H1691 C1678 0.961 . S
H1692 C1678 0.961 . S
H1693 C1679 0.958 1_556 S
H1694 C1679 0.961 . S
H1695 C1679 0.960 1_556 S
C1696 C1697 1.391 . S
C1696 C1698 1.394 . S
C1696 H1712 0.931 . S
C1697 C1696 1.391 . S
C1697 C1701 1.376 . S
C1698 C1696 1.394 . S
C1698 C1699 1.369 . S
C1698 C1702 1.531 . S
C1699 C1698 1.369 . S
C1699 C1700 1.410 . S
C1699 C1707 1.503 1_554 S
C1700 C1699 1.410 . S
C1700 C1701 1.392 . S
C1700 C1703 1.511 1_554 S
C1701 C1697 1.376 . S
C1701 C1700 1.392 . S
C1701 H1713 0.929 . S
C1702 C1698 1.531 . S
C1702 H1714 0.960 . S
C1702 H1715 0.962 . S
C1702 H1716 0.960 . S
C1703 C1700 1.511 1_556 S
C1703 H1717 0.961 . S
C1703 H1718 0.961 . S
C1703 H1719 0.961 . S
C1704 C1705 1.370 . S
C1704 C1706 1.363 . S
C1704 H1720 0.931 . S
C1705 C1704 1.370 . S
C1705 C1709 1.408 . S
C1706 C1704 1.363 . S
C1706 C1707 1.370 . S
C1706 C1710 1.524 . S
C1707 C1699 1.503 1_556 S
C1707 C1706 1.370 . S
C1707 C1708 1.403 . S
C1708 C1707 1.403 . S
C1708 C1709 1.404 . S
C1708 C1711 1.539 1_556 S
C1709 C1705 1.408 . S
C1709 C1708 1.404 . S
C1709 H1721 0.930 . S
C1710 C1706 1.524 . S
C1710 H1722 0.956 . S
C1710 H1723 0.961 . S
C1710 H1724 0.961 . S
C1711 C1708 1.539 1_554 S
C1711 H1725 0.958 . S
C1711 H1726 0.961 1_554 S
C1711 H1727 0.960 . S
H1712 C1696 0.931 . S
H1713 C1701 0.929 . S
H1714 C1702 0.960 . S
H1715 C1702 0.962 . S
H1716 C1702 0.960 . S
H1717 C1703 0.961 . S
H1718 C1703 0.961 . S
H1719 C1703 0.961 . S
H1720 C1704 0.931 . S
H1721 C1709 0.930 . S
H1722 C1710 0.956 . S
H1723 C1710 0.961 . S
H1724 C1710 0.961 . S
H1725 C1711 0.958 . S
H1726 C1711 0.961 1_556 S
H1727 C1711 0.960 . S
C1728 C1729 1.391 . S
C1728 C1730 1.394 . S
C1728 H1744 0.931 . S
C1729 C1728 1.391 . S
C1729 C1733 1.376 . S
C1730 C1728 1.394 . S
C1730 C1731 1.369 . S
C1730 C1734 1.531 . S
C1731 C1730 1.369 . S
C1731 C1732 1.410 . S
C1731 C1739 1.503 1_556 S
C1732 C1731 1.410 . S
C1732 C1733 1.392 . S
C1732 C1735 1.511 1_556 S
C1733 C1729 1.376 . S
C1733 C1732 1.392 . S
C1733 H1745 0.929 . S
C1734 C1730 1.531 . S
C1734 H1746 0.960 . S
C1734 H1747 0.962 . S
C1734 H1748 0.960 . S
C1735 C1732 1.511 1_554 S
C1735 H1749 0.961 1_554 S
C1735 H1750 0.961 . S
C1735 H1751 0.961 . S
C1736 C1737 1.370 . S
C1736 C1738 1.363 . S
C1736 H1752 0.931 . S
C1737 C1736 1.370 . S
C1737 C1741 1.408 . S
C1738 C1736 1.363 . S
C1738 C1739 1.370 . S
C1738 C1742 1.524 1_554 S
C1739 C1731 1.503 1_554 S
C1739 C1738 1.370 . S
C1739 C1740 1.403 . S
C1740 C1739 1.403 . S
C1740 C1741 1.404 . S
C1740 C1743 1.539 . S
C1741 C1737 1.408 . S
C1741 C1740 1.404 . S
C1741 H1753 0.930 . S
C1742 C1738 1.524 1_556 S
C1742 H1754 0.956 . S
C1742 H1755 0.961 . S
C1742 H1756 0.961 . S
C1743 C1740 1.539 . S
C1743 H1757 0.958 . S
C1743 H1758 0.961 . S
C1743 H1759 0.960 . S
H1744 C1728 0.931 . S
H1745 C1733 0.929 . S
H1746 C1734 0.960 . S
H1747 C1734 0.962 . S
H1748 C1734 0.960 . S
H1749 C1735 0.961 1_556 S
H1750 C1735 0.961 . S
H1751 C1735 0.961 . S
H1752 C1736 0.931 . S
H1753 C1741 0.930 . S
H1754 C1742 0.956 . S
H1755 C1742 0.961 . S
H1756 C1742 0.961 . S
H1757 C1743 0.958 . S
H1758 C1743 0.961 . S
H1759 C1743 0.960 . S
C1760 C1761 1.391 . S
C1760 C1762 1.394 . S
C1760 H1776 0.931 . S
C1761 C1760 1.391 . S
C1761 C1765 1.376 . S
C1762 C1760 1.394 . S
C1762 C1763 1.369 . S
C1762 C1766 1.531 1_554 S
C1763 C1762 1.369 . S
C1763 C1764 1.410 . S
C1763 C1771 1.503 1_554 S
C1764 C1763 1.410 . S
C1764 C1765 1.392 . S
C1764 C1767 1.511 . S
C1765 C1761 1.376 . S
C1765 C1764 1.392 . S
C1765 H1777 0.929 . S
C1766 C1762 1.531 1_556 S
C1766 H1778 0.960 . S
C1766 H1779 0.962 . S
C1766 H1780 0.960 . S
C1767 C1764 1.511 . S
C1767 H1781 0.961 . S
C1767 H1782 0.961 . S
C1767 H1783 0.961 . S
C1768 C1769 1.370 . S
C1768 C1770 1.363 . S
C1768 H1784 0.931 . S
C1769 C1768 1.370 . S
C1769 C1773 1.408 . S
C1770 C1768 1.363 . S
C1770 C1771 1.370 . S
C1770 C1774 1.524 1_556 S
C1771 C1763 1.503 1_556 S
C1771 C1770 1.370 . S
C1771 C1772 1.403 . S
C1772 C1771 1.403 . S
C1772 C1773 1.404 . S
C1772 C1775 1.539 . S
C1773 C1769 1.408 . S
C1773 C1772 1.404 . S
C1773 H1785 0.930 . S
C1774 C1770 1.524 1_554 S
C1774 H1786 0.956 . S
C1774 H1787 0.961 . S
C1774 H1788 0.961 1_554 S
C1775 C1772 1.539 . S
C1775 H1789 0.958 . S
C1775 H1790 0.961 . S
C1775 H1791 0.960 . S
H1776 C1760 0.931 . S
H1777 C1765 0.929 . S
H1778 C1766 0.960 . S
H1779 C1766 0.962 . S
H1780 C1766 0.960 . S
H1781 C1767 0.961 . S
H1782 C1767 0.961 . S
H1783 C1767 0.961 . S
H1784 C1768 0.931 . S
H1785 C1773 0.930 . S
H1786 C1774 0.956 . S
H1787 C1774 0.961 . S
H1788 C1774 0.961 1_556 S
H1789 C1775 0.958 . S
H1790 C1775 0.961 . S
H1791 C1775 0.960 . S
C1792 C1793 1.391 . S
C1792 C1794 1.394 . S
C1792 H1808 0.931 . S
C1793 C1792 1.391 . S
C1793 C1797 1.376 . S
C1794 C1792 1.394 . S
C1794 C1795 1.369 . S
C1794 C1798 1.531 . S
C1795 C1794 1.369 . S
C1795 C1796 1.410 . S
C1795 C1803 1.503 . S
C1796 C1795 1.410 . S
C1796 C1797 1.392 . S
C1796 C1799 1.511 . S
C1797 C1793 1.376 . S
C1797 C1796 1.392 . S
C1797 H1809 0.929 . S
C1798 C1794 1.531 . S
C1798 H1810 0.960 . S
C1798 H1811 0.962 . S
C1798 H1812 0.960 . S
C1799 C1796 1.511 . S
C1799 H1813 0.961 . S
C1799 H1814 0.961 . S
C1799 H1815 0.961 . S
C1800 C1801 1.370 . S
C1800 C1802 1.363 . S
C1800 H1816 0.931 . S
C1801 C1800 1.370 . S
C1801 C1805 1.408 . S
C1802 C1800 1.363 . S
C1802 C1803 1.370 . S
C1802 C1806 1.524 . S
C1803 C1795 1.503 . S
C1803 C1802 1.370 . S
C1803 C1804 1.403 . S
C1804 C1803 1.403 . S
C1804 C1805 1.404 . S
C1804 C1807 1.539 . S
C1805 C1801 1.408 . S
C1805 C1804 1.404 . S
C1805 H1817 0.930 . S
C1806 C1802 1.524 . S
C1806 H1818 0.956 . S
C1806 H1819 0.961 . S
C1806 H1820 0.961 . S
C1807 C1804 1.539 . S
C1807 H1821 0.958 . S
C1807 H1822 0.961 . S
C1807 H1823 0.960 . S
H1808 C1792 0.931 . S
H1809 C1797 0.929 . S
H1810 C1798 0.960 . S
H1811 C1798 0.962 . S
H1812 C1798 0.960 . S
H1813 C1799 0.961 . S
H1814 C1799 0.961 . S
H1815 C1799 0.961 . S
H1816 C1800 0.931 . S
H1817 C1805 0.930 . S
H1818 C1806 0.956 . S
H1819 C1806 0.961 . S
H1820 C1806 0.961 . S
H1821 C1807 0.958 . S
H1822 C1807 0.961 . S
H1823 C1807 0.960 . S
C1824 C1825 1.391 . S
C1824 C1826 1.394 . S
C1824 H1840 0.931 . S
C1825 C1824 1.391 . S
C1825 C1829 1.376 . S
C1826 C1824 1.394 . S
C1826 C1827 1.369 . S
C1826 C1830 1.531 . S
C1827 C1826 1.369 . S
C1827 C1828 1.410 . S
C1827 C1835 1.503 . S
C1828 C1827 1.410 . S
C1828 C1829 1.392 . S
C1828 C1831 1.511 . S
C1829 C1825 1.376 . S
C1829 C1828 1.392 . S
C1829 H1841 0.929 . S
C1830 C1826 1.531 . S
C1830 H1842 0.960 . S
C1830 H1843 0.962 . S
C1830 H1844 0.960 . S
C1831 C1828 1.511 . S
C1831 H1845 0.961 . S
C1831 H1846 0.961 . S
C1831 H1847 0.961 . S
C1832 C1833 1.370 . S
C1832 C1834 1.363 . S
C1832 H1848 0.931 . S
C1833 C1832 1.370 . S
C1833 C1837 1.408 . S
C1834 C1832 1.363 . S
C1834 C1835 1.370 . S
C1834 C1838 1.524 . S
C1835 C1827 1.503 . S
C1835 C1834 1.370 . S
C1835 C1836 1.403 . S
C1836 C1835 1.403 . S
C1836 C1837 1.404 . S
C1836 C1839 1.539 . S
C1837 C1833 1.408 . S
C1837 C1836 1.404 . S
C1837 H1849 0.930 . S
C1838 C1834 1.524 . S
C1838 H1850 0.956 . S
C1838 H1851 0.961 . S
C1838 H1852 0.961 . S
C1839 C1836 1.539 . S
C1839 H1853 0.958 . S
C1839 H1854 0.961 . S
C1839 H1855 0.960 . S
H1840 C1824 0.931 . S
H1841 C1829 0.929 . S
H1842 C1830 0.960 . S
H1843 C1830 0.962 . S
H1844 C1830 0.960 . S
H1845 C1831 0.961 . S
H1846 C1831 0.961 . S
H1847 C1831 0.961 . S
H1848 C1832 0.931 . S
H1849 C1837 0.930 . S
H1850 C1838 0.956 . S
H1851 C1838 0.961 . S
H1852 C1838 0.961 . S
H1853 C1839 0.958 . S
H1854 C1839 0.961 . S
H1855 C1839 0.960 . S
C1856 C1857 1.391 . S
C1856 C1858 1.394 . S
C1856 H1872 0.931 . S
C1857 C1856 1.391 . S
C1857 C1861 1.376 . S
C1858 C1856 1.394 . S
C1858 C1859 1.369 . S
C1858 C1862 1.531 . S
C1859 C1858 1.369 . S
C1859 C1860 1.410 . S
C1859 C1867 1.503 . S
C1860 C1859 1.410 . S
C1860 C1861 1.392 . S
C1860 C1863 1.511 . S
C1861 C1857 1.376 . S
C1861 C1860 1.392 . S
C1861 H1873 0.929 . S
C1862 C1858 1.531 . S
C1862 H1874 0.960 . S
C1862 H1875 0.962 . S
C1862 H1876 0.960 . S
C1863 C1860 1.511 . S
C1863 H1877 0.961 . S
C1863 H1878 0.961 . S
C1863 H1879 0.961 . S
C1864 C1865 1.370 . S
C1864 C1866 1.363 . S
C1864 H1880 0.931 . S
C1865 C1864 1.370 . S
C1865 C1869 1.408 . S
C1866 C1864 1.363 . S
C1866 C1867 1.370 . S
C1866 C1870 1.524 . S
C1867 C1859 1.503 . S
C1867 C1866 1.370 . S
C1867 C1868 1.403 . S
C1868 C1867 1.403 . S
C1868 C1869 1.404 . S
C1868 C1871 1.539 . S
C1869 C1865 1.408 . S
C1869 C1868 1.404 . S
C1869 H1881 0.930 . S
C1870 C1866 1.524 . S
C1870 H1882 0.956 . S
C1870 H1883 0.961 . S
C1870 H1884 0.961 . S
C1871 C1868 1.539 . S
C1871 H1885 0.958 . S
C1871 H1886 0.961 . S
C1871 H1887 0.960 . S
H1872 C1856 0.931 . S
H1873 C1861 0.929 . S
H1874 C1862 0.960 . S
H1875 C1862 0.962 . S
H1876 C1862 0.960 . S
H1877 C1863 0.961 . S
H1878 C1863 0.961 . S
H1879 C1863 0.961 . S
H1880 C1864 0.931 . S
H1881 C1869 0.930 . S
H1882 C1870 0.956 . S
H1883 C1870 0.961 . S
H1884 C1870 0.961 . S
H1885 C1871 0.958 . S
H1886 C1871 0.961 . S
H1887 C1871 0.960 . S
C1888 C1889 1.391 . S
C1888 C1890 1.394 . S
C1888 H1904 0.931 . S
C1889 C1888 1.391 . S
C1889 C1893 1.376 . S
C1890 C1888 1.394 . S
C1890 C1891 1.369 . S
C1890 C1894 1.531 . S
C1891 C1890 1.369 . S
C1891 C1892 1.410 . S
C1891 C1899 1.503 . S
C1892 C1891 1.410 . S
C1892 C1893 1.392 . S
C1892 C1895 1.511 . S
C1893 C1889 1.376 . S
C1893 C1892 1.392 . S
C1893 H1905 0.929 . S
C1894 C1890 1.531 . S
C1894 H1906 0.960 . S
C1894 H1907 0.962 . S
C1894 H1908 0.960 . S
C1895 C1892 1.511 . S
C1895 H1909 0.961 . S
C1895 H1910 0.961 . S
C1895 H1911 0.961 . S
C1896 C1897 1.370 . S
C1896 C1898 1.363 . S
C1896 H1912 0.931 . S
C1897 C1896 1.370 . S
C1897 C1901 1.408 . S
C1898 C1896 1.363 . S
C1898 C1899 1.370 . S
C1898 C1902 1.524 . S
C1899 C1891 1.503 . S
C1899 C1898 1.370 . S
C1899 C1900 1.403 . S
C1900 C1899 1.403 . S
C1900 C1901 1.404 . S
C1900 C1903 1.539 . S
C1901 C1897 1.408 . S
C1901 C1900 1.404 . S
C1901 H1913 0.930 . S
C1902 C1898 1.524 . S
C1902 H1914 0.956 . S
C1902 H1915 0.961 . S
C1902 H1916 0.961 . S
C1903 C1900 1.539 . S
C1903 H1917 0.958 . S
C1903 H1918 0.961 . S
C1903 H1919 0.960 . S
H1904 C1888 0.931 . S
H1905 C1893 0.929 . S
H1906 C1894 0.960 . S
H1907 C1894 0.962 . S
H1908 C1894 0.960 . S
H1909 C1895 0.961 . S
H1910 C1895 0.961 . S
H1911 C1895 0.961 . S
H1912 C1896 0.931 . S
H1913 C1901 0.930 . S
H1914 C1902 0.956 . S
H1915 C1902 0.961 . S
H1916 C1902 0.961 . S
H1917 C1903 0.958 . S
H1918 C1903 0.961 . S
H1919 C1903 0.960 . S
C1920 C1921 1.391 . S
C1920 C1922 1.394 . S
C1920 H1936 0.931 . S
C1921 C1920 1.391 . S
C1921 C1925 1.376 . S
C1922 C1920 1.394 . S
C1922 C1923 1.369 . S
C1922 C1926 1.531 . S
C1923 C1922 1.369 . S
C1923 C1924 1.410 . S
C1923 C1931 1.503 1_556 S
C1924 C1923 1.410 . S
C1924 C1925 1.392 . S
C1924 C1927 1.511 1_556 S
C1925 C1921 1.376 . S
C1925 C1924 1.392 . S
C1925 H1937 0.929 . S
C1926 C1922 1.531 . S
C1926 H1938 0.960 . S
C1926 H1939 0.962 . S
C1926 H1940 0.960 . S
C1927 C1924 1.511 1_554 S
C1927 H1941 0.961 . S
C1927 H1942 0.961 . S
C1927 H1943 0.961 . S
C1928 C1929 1.370 . S
C1928 C1930 1.363 . S
C1928 H1944 0.931 . S
C1929 C1928 1.370 . S
C1929 C1933 1.408 . S
C1930 C1928 1.363 . S
C1930 C1931 1.370 . S
C1930 C1934 1.524 . S
C1931 C1923 1.503 1_554 S
C1931 C1930 1.370 . S
C1931 C1932 1.403 . S
C1932 C1931 1.403 . S
C1932 C1933 1.404 . S
C1932 C1935 1.539 . S
C1933 C1929 1.408 . S
C1933 C1932 1.404 . S
C1933 H1945 0.930 . S
C1934 C1930 1.524 . S
C1934 H1946 0.956 1_554 S
C1934 H1947 0.961 . S
C1934 H1948 0.961 . S
C1935 C1932 1.539 . S
C1935 H1949 0.958 1_545 S
C1935 H1950 0.961 . S
C1935 H1951 0.960 . S
H1936 C1920 0.931 . S
H1937 C1925 0.929 . S
H1938 C1926 0.960 . S
H1939 C1926 0.962 . S
H1940 C1926 0.960 . S
H1941 C1927 0.961 . S
H1942 C1927 0.961 . S
H1943 C1927 0.961 . S
H1944 C1928 0.931 . S
H1945 C1933 0.930 . S
H1946 C1934 0.956 1_556 S
H1947 C1934 0.961 . S
H1948 C1934 0.961 . S
H1949 C1935 0.958 1_565 S
H1950 C1935 0.961 . S
H1951 C1935 0.960 . S
C1952 C1953 1.391 . S
C1952 C1954 1.394 . S
C1952 H1968 0.931 . S
C1953 C1952 1.391 . S
C1953 C1957 1.376 . S
C1954 C1952 1.394 . S
C1954 C1955 1.369 . S
C1954 C1958 1.531 1_556 S
C1955 C1954 1.369 . S
C1955 C1956 1.410 . S
C1955 C1963 1.503 1_556 S
C1956 C1955 1.410 . S
C1956 C1957 1.392 . S
C1956 C1959 1.511 . S
C1957 C1953 1.376 . S
C1957 C1956 1.392 . S
C1957 H1969 0.929 . S
C1958 C1954 1.531 1_554 S
C1958 H1970 0.960 . S
C1958 H1971 0.962 . S
C1958 H1972 0.960 . S
C1959 C1956 1.511 . S
C1959 H1973 0.961 . S
C1959 H1974 0.961 . S
C1959 H1975 0.961 . S
C1960 C1961 1.370 . S
C1960 C1962 1.363 . S
C1960 H1976 0.931 . S
C1961 C1960 1.370 . S
C1961 C1965 1.408 . S
C1962 C1960 1.363 . S
C1962 C1963 1.370 . S
C1962 C1966 1.524 1_554 S
C1963 C1955 1.503 1_554 S
C1963 C1962 1.370 . S
C1963 C1964 1.403 . S
C1964 C1963 1.403 . S
C1964 C1965 1.404 . S
C1964 C1967 1.539 . S
C1965 C1961 1.408 . S
C1965 C1964 1.404 . S
C1965 H1977 0.930 . S
C1966 C1962 1.524 1_556 S
C1966 H1978 0.956 . S
C1966 H1979 0.961 . S
C1966 H1980 0.961 . S
C1967 C1964 1.539 . S
C1967 H1981 0.958 . S
C1967 H1982 0.961 . S
C1967 H1983 0.960 . S
H1968 C1952 0.931 . S
H1969 C1957 0.929 . S
H1970 C1958 0.960 . S
H1971 C1958 0.962 . S
H1972 C1958 0.960 . S
H1973 C1959 0.961 . S
H1974 C1959 0.961 . S
H1975 C1959 0.961 . S
H1976 C1960 0.931 . S
H1977 C1965 0.930 . S
H1978 C1966 0.956 . S
H1979 C1966 0.961 . S
H1980 C1966 0.961 . S
H1981 C1967 0.958 . S
H1982 C1967 0.961 . S
H1983 C1967 0.960 . S
C1984 C1985 1.391 . S
C1984 C1986 1.394 . S
C1984 H2000 0.931 . S
C1985 C1984 1.391 . S
C1985 C1989 1.376 . S
C1986 C1984 1.394 . S
C1986 C1987 1.369 . S
C1986 C1990 1.531 . S
C1987 C1986 1.369 . S
C1987 C1988 1.410 . S
C1987 C1995 1.503 1_554 S
C1988 C1987 1.410 . S
C1988 C1989 1.392 . S
C1988 C1991 1.511 1_554 S
C1989 C1985 1.376 . S
C1989 C1988 1.392 . S
C1989 H2001 0.929 . S
C1990 C1986 1.531 . S
C1990 H2002 0.960 . S
C1990 H2003 0.962 . S
C1990 H2004 0.960 . S
C1991 C1988 1.511 1_556 S
C1991 H2005 0.961 . S
C1991 H2006 0.961 . S
C1991 H2007 0.961 . S
C1992 C1993 1.370 . S
C1992 C1994 1.363 . S
C1992 H2008 0.931 . S
C1993 C1992 1.370 . S
C1993 C1997 1.408 . S
C1994 C1992 1.363 . S
C1994 C1995 1.370 . S
C1994 C1998 1.524 1_556 S
C1995 C1987 1.503 1_556 S
C1995 C1994 1.370 . S
C1995 C1996 1.403 . S
C1996 C1995 1.403 . S
C1996 C1997 1.404 . S
C1996 C1999 1.539 . S
C1997 C1993 1.408 . S
C1997 C1996 1.404 . S
C1997 H2009 0.930 . S
C1998 C1994 1.524 1_554 S
C1998 H2010 0.956 . S
C1998 H2011 0.961 . S
C1998 H2012 0.961 1_554 S
C1999 C1996 1.539 . S
C1999 H2013 0.958 . S
C1999 H2014 0.961 . S
C1999 H2015 0.960 . S
H2000 C1984 0.931 . S
H2001 C1989 0.929 . S
H2002 C1990 0.960 . S
H2003 C1990 0.962 . S
H2004 C1990 0.960 . S
H2005 C1991 0.961 . S
H2006 C1991 0.961 . S
H2007 C1991 0.961 . S
H2008 C1992 0.931 . S
H2009 C1997 0.930 . S
H2010 C1998 0.956 . S
H2011 C1998 0.961 . S
H2012 C1998 0.961 1_556 S
H2013 C1999 0.958 . S
H2014 C1999 0.961 . S
H2015 C1999 0.960 . S
C2016 C2017 1.391 . S
C2016 C2018 1.394 . S
C2016 H2032 0.931 . S
C2017 C2016 1.391 . S
C2017 C2021 1.376 . S
C2018 C2016 1.394 . S
C2018 C2019 1.369 . S
C2018 C2022 1.531 . S
C2019 C2018 1.369 . S
C2019 C2020 1.410 . S
C2019 C2027 1.503 1_554 S
C2020 C2019 1.410 . S
C2020 C2021 1.392 . S
C2020 C2023 1.511 . S
C2021 C2017 1.376 . S
C2021 C2020 1.392 . S
C2021 H2033 0.929 . S
C2022 C2018 1.531 . S
C2022 H2034 0.960 . S
C2022 H2035 0.962 . S
C2022 H2036 0.960 . S
C2023 C2020 1.511 . S
C2023 H2037 0.961 . S
C2023 H2038 0.961 1_554 S
C2023 H2039 0.961 . S
C2024 C2025 1.370 . S
C2024 C2026 1.363 . S
C2024 H2040 0.931 . S
C2025 C2024 1.370 . S
C2025 C2029 1.408 . S
C2026 C2024 1.363 . S
C2026 C2027 1.370 . S
C2026 C2030 1.524 . S
C2027 C2019 1.503 1_556 S
C2027 C2026 1.370 . S
C2027 C2028 1.403 . S
C2028 C2027 1.403 . S
C2028 C2029 1.404 . S
C2028 C2031 1.539 1_556 S
C2029 C2025 1.408 . S
C2029 C2028 1.404 . S
C2029 H2041 0.930 . S
C2030 C2026 1.524 . S
C2030 H2042 0.956 . S
C2030 H2043 0.961 . S
C2030 H2044 0.961 . S
C2031 C2028 1.539 1_554 S
C2031 H2045 0.958 . S
C2031 H2046 0.961 . S
C2031 H2047 0.960 . S
H2032 C2016 0.931 . S
H2033 C2021 0.929 . S
H2034 C2022 0.960 . S
H2035 C2022 0.962 . S
H2036 C2022 0.960 . S
H2037 C2023 0.961 . S
H2038 C2023 0.961 1_556 S
H2039 C2023 0.961 . S
H2040 C2024 0.931 . S
H2041 C2029 0.930 . S
H2042 C2030 0.956 . S
H2043 C2030 0.961 . S
H2044 C2030 0.961 . S
H2045 C2031 0.958 . S
H2046 C2031 0.961 . S
H2047 C2031 0.960 . S
C513 C4 1.569 . S
C521 C164 1.590 . S
C545 C221 1.623 . S
C553 C61 1.610 . S
C577 C68 1.572 . S
C585 C228 1.589 . S
C609 C125 1.575 . S
C617 C132 1.599 . S
C641 C445 1.615 . S
C649 C260 1.611 . S
C673 C477 1.602 . S
C681 C317 1.607 . S
C705 C349 1.593 . S
C713 C484 1.604 . S
C737 C381 1.624 . S
C745 C388 1.610 . S
C769 C2 1.933 . S
C777 N109 1.735 . S
C801 C38 1.954 . S
C809 N18 1.731 . S
C833 C66 1.934 1_455 S
C841 N45 1.726 . S
C865 C102 1.949 1_545 S
C873 N82 1.707 . S
C897 C130 1.933 1_655 S
C905 N178 1.730 . S
C929 N205 1.680 . S
C937 C162 1.961 1_565 S
C961 C198 1.957 . S
C969 N242 1.703 . S
C993 N146 1.686 . S
C1001 C226 1.953 . S
C1025 N365 1.682 . S
C1033 C258 1.961 . S
C1057 C294 1.966 . S
C1065 N274 1.703 . S
C1089 C326 1.934 1_655 S
C1097 N301 1.732 . S
C1121 C358 1.963 1_565 S
C1129 N333 1.702 . S
C1153 C386 1.935 1_455 S
C1161 N429 1.740 . S
C1185 C422 1.946 1_545 S
C1193 N461 1.715 . S
C1217 C454 1.966 . S
C1225 N498 1.703 . S
C1249 C482 1.965 . S
C1257 N402 1.703 . S
C1281 C29 1.033 . S
C1289 C93 1.010 . S
C1313 C36 0.993 . S
C1321 C100 1.035 . S
C1345 C196 1.039 . S
C1353 C157 1.008 . S
C1377 C253 1.014 . S
C1385 C189 1.028 . S
C1409 C324 1.029 . S
C1417 C285 1.017 . S
C1441 C356 1.037 . S
C1449 C292 1.013 . S
C1473 C413 0.992 . S
C1481 C452 1.032 . S
C1505 C420 0.993 . S
C1513 C509 1.031 . S
C1537 N13 1.223 . S
C1545 C354 1.258 . S
C1569 C262 1.256 . S
C1577 N50 1.234 . S
C1601 N77 1.216 . S
C1609 C290 1.258 . S
C1633 C322 1.255 . S
C1641 N114 1.232 . S
C1665 C418 1.256 . S
C1673 N141 1.234 . S
C1697 N173 1.240 . S
C1705 C450 1.258 . S
C1729 C486 1.256 . S
C1737 N210 1.242 . S
C1761 N237 1.241 . S
C1769 C390 1.257 . S
C1793 N269 1.227 . S
C1801 C98 1.258 . S
C1825 N306 1.224 . S
C1833 C6 1.258 . S
C1857 C34 1.255 . S
C1865 N338 1.241 . S
C1889 N370 1.258 . S
C1897 C70 1.258 . S
C1921 N397 1.250 . S
C1929 C166 1.257 . S
C1953 N434 1.217 . S
C1961 C194 1.258 . S
C1985 C230 1.254 . S
C1993 N466 1.251 . S
C2017 C134 1.254 . S
C2025 N493 1.243 . S
