# Generated by pormake.
# Topology snx, (6)-cn, num edge types: 1
# Building blocks:
#     Node 0, Type 0, BuildingBlock: MIDCAF_clean_sbu_0, # of connection points: 6
#     Node 1, Type 0, BuildingBlock: MIDCAF_clean_sbu_0, # of connection points: 6
#     Node 2, Type 0, BuildingBlock: MIDCAF_clean_sbu_0, # of connection points: 6
#     Node 3, Type 0, BuildingBlock: MIDCAF_clean_sbu_0, # of connection points: 6
#     Node 4, Type 0, BuildingBlock: MIDCAF_clean_sbu_0, # of connection points: 6
#     Node 5, Type 0, BuildingBlock: MIDCAF_clean_sbu_0, # of connection points: 6
#     Edge 6, Type (0, 0), BuildingBlock: FUNLAD_clean_linker_0, # of connection points: 2
#     Edge 7, Type (0, 0), BuildingBlock: FUNLAD_clean_linker_0, # of connection points: 2
#     Edge 8, Type (0, 0), BuildingBlock: FUNLAD_clean_linker_0, # of connection points: 2
#     Edge 9, Type (0, 0), BuildingBlock: FUNLAD_clean_linker_0, # of connection points: 2
#     Edge 10, Type (0, 0), BuildingBlock: FUNLAD_clean_linker_0, # of connection points: 2
#     Edge 11, Type (0, 0), BuildingBlock: FUNLAD_clean_linker_0, # of connection points: 2
#     Edge 12, Type (0, 0), BuildingBlock: FUNLAD_clean_linker_0, # of connection points: 2
#     Edge 13, Type (0, 0), BuildingBlock: FUNLAD_clean_linker_0, # of connection points: 2
#     Edge 14, Type (0, 0), BuildingBlock: FUNLAD_clean_linker_0, # of connection points: 2
#     Edge 15, Type (0, 0), BuildingBlock: FUNLAD_clean_linker_0, # of connection points: 2
#     Edge 16, Type (0, 0), BuildingBlock: FUNLAD_clean_linker_0, # of connection points: 2
#     Edge 17, Type (0, 0), BuildingBlock: FUNLAD_clean_linker_0, # of connection points: 2
#     Edge 18, Type (0, 0), BuildingBlock: FUNLAD_clean_linker_0, # of connection points: 2
#     Edge 19, Type (0, 0), BuildingBlock: FUNLAD_clean_linker_0, # of connection points: 2
#     Edge 20, Type (0, 0), BuildingBlock: FUNLAD_clean_linker_0, # of connection points: 2
#     Edge 21, Type (0, 0), BuildingBlock: FUNLAD_clean_linker_0, # of connection points: 2
#     Edge 22, Type (0, 0), BuildingBlock: FUNLAD_clean_linker_0, # of connection points: 2
#     Edge 23, Type (0, 0), BuildingBlock: FUNLAD_clean_linker_0, # of connection points: 2
# Relax obj value: 0.219
# Max RMSD: 0.238
# Mean RMSD: 0.238
data_MOF--net-snx--node1-MIDCAF_clean_sbu_0--edge1-FUNLAD_clean_linker_0
_symmetry_space_group_name_H-M    P1
_symmetry_Int_Tables_number       1
_symmetry_cell_setting            triclinic
loop_
_symmetry_equiv_pos_as_xyz
'x, y, z'
_cell_length_a     39.626633
_cell_length_b     39.817747
_cell_length_c     26.177214
_cell_angle_alpha  90.460087
_cell_angle_beta   90.375891
_cell_angle_gamma 119.81806
loop_
_atom_site_label
_atom_site_type_symbol
_atom_site_fract_x
_atom_site_fract_y
_atom_site_fract_z
_atom_type_partial_charge
Zn0 Zn 0.09684 0.35372 0.22328 0.0
Zn1 Zn 0.22944 0.36835 0.23876 0.0
Zn2 Zn 0.16283 0.35856 0.23049 0.0
C3 C 0.19342 0.31251 0.16309 0.0
C4 C 0.19575 0.33808 0.33003 0.0
O5 O 0.17102 0.41838 0.22989 0.0
O6 O 0.11115 0.40763 0.2403 0.0
C7 C 0.10502 0.32287 0.13316 0.0
O8 O 0.16899 0.32489 0.16649 0.0
O9 O 0.22185 0.32505 0.19388 0.0
O10 O 0.22952 0.35921 0.31304 0.0
O11 O 0.16581 0.33173 0.30302 0.0
O12 O 0.08481 0.33636 0.15148 0.0
O13 O 0.13485 0.3264 0.15801 0.0
O14 O 0.12756 0.32435 0.2968 0.0
O15 O 0.06905 0.3134 0.27456 0.0
C16 C 0.0906 0.30746 0.30438 0.0
O17 O 0.20833 0.42234 0.23005 0.0
O18 O 0.26274 0.42168 0.21476 0.0
C19 C 0.1471 0.43113 0.23672 0.0
C20 C 0.24516 0.4405 0.22051 0.0
Zn21 Zn 0.73957 0.08649 0.72368 0.0
Zn22 Zn 0.85093 0.22502 0.72901 0.0
Zn23 Zn 0.79682 0.15731 0.72681 0.0
C24 C 0.87058 0.19167 0.6519 0.0
C25 C 0.85773 0.19728 0.82081 0.0
O26 O 0.74115 0.15946 0.72461 0.0
O27 O 0.6964 0.09762 0.71649 0.0
C28 C 0.78299 0.09302 0.639 0.0
O29 O 0.83511 0.16516 0.66007 0.0
O30 O 0.88657 0.22129 0.68042 0.0
O31 O 0.8674 0.22958 0.80106 0.0
O32 O 0.83234 0.16589 0.79779 0.0
O33 O 0.7541 0.06777 0.66286 0.0
O34 O 0.80209 0.12827 0.6559 0.0
O35 O 0.80055 0.12767 0.79694 0.0
O36 O 0.74905 0.06901 0.78945 0.0
C37 C 0.77897 0.09317 0.81395 0.0
O38 O 0.77257 0.19802 0.72515 0.0
O39 O 0.82489 0.25369 0.70752 0.0
C40 C 0.70518 0.13271 0.71924 0.0
C41 C 0.78871 0.23432 0.71414 0.0
Zn42 Zn 0.6287 0.90295 0.22415 0.0
Zn43 Zn 0.61916 0.73505 0.2229 0.0
Zn44 Zn 0.63457 0.80219 0.22217 0.0
C45 C 0.67516 0.77162 0.29982 0.0
C46 C 0.65681 0.76431 0.13086 0.0
O47 O 0.57771 0.80606 0.22187 0.0
O48 O 0.57233 0.86074 0.22174 0.0
C49 C 0.66728 0.86565 0.29003 0.0
O50 O 0.6679 0.79907 0.28978 0.0
O51 O 0.65801 0.74024 0.27471 0.0
O52 O 0.63439 0.73225 0.1514 0.0
O53 O 0.66231 0.79593 0.15219 0.0
O54 O 0.64883 0.86901 0.25275 0.0
O55 O 0.66877 0.83442 0.29024 0.0
O56 O 0.66733 0.83402 0.15437 0.0
O57 O 0.64846 0.86892 0.19387 0.0
C58 C 0.66617 0.86542 0.15603 0.0
O59 O 0.57018 0.76488 0.22302 0.0
O60 O 0.56338 0.70779 0.24067 0.0
C61 C 0.55739 0.82382 0.22155 0.0
C62 C 0.5483 0.72876 0.23326 0.0
Zn63 Zn 0.87889 0.61898 0.71354 0.0
Zn64 Zn 0.75553 0.62484 0.7242 0.0
Zn65 Zn 0.81937 0.6272 0.7189 0.0
C66 C 0.79723 0.68084 0.65293 0.0
C67 C 0.78963 0.65024 0.81878 0.0
O68 O 0.80306 0.5644 0.71306 0.0
O69 O 0.85748 0.56304 0.72654 0.0
C70 C 0.87699 0.65624 0.62444 0.0
O71 O 0.81874 0.66504 0.65654 0.0
O72 O 0.76866 0.67044 0.68219 0.0
O73 O 0.75608 0.63308 0.79879 0.0
O74 O 0.8191 0.65398 0.79356 0.0
O75 O 0.8916 0.63682 0.64213 0.0
O76 O 0.85036 0.65874 0.64934 0.0
O77 O 0.8557 0.65639 0.78825 0.0
O78 O 0.90984 0.65657 0.76821 0.0
C79 C 0.89162 0.66698 0.79781 0.0
O80 O 0.76897 0.5666 0.71335 0.0
O81 O 0.71773 0.57299 0.69666 0.0
C82 C 0.82117 0.54521 0.7192 0.0
C83 C 0.73246 0.55153 0.70211 0.0
Zn84 Zn 0.24918 0.8929 0.24251 0.0
Zn85 Zn 0.07042 0.71283 0.21183 0.0
Zn86 Zn 0.18687 0.83037 0.23212 0.0
C87 C 0.12311 0.7946 0.1548 0.0
C88 C 0.11181 0.7888 0.28532 0.0
O89 O 0.23173 0.81268 0.23845 0.0
O90 O 0.28382 0.87 0.25182 0.0
C91 C 0.21712 0.89562 0.14757 0.0
O92 O 0.15529 0.82639 0.16086 0.0
O93 O 0.11478 0.76914 0.18933 0.0
O94 O 0.11013 0.76702 0.24802 0.0
O95 O 0.14404 0.82049 0.29171 0.0
O96 O 0.24647 0.91549 0.17598 0.0
O97 O 0.19053 0.86181 0.16138 0.0
O98 O 0.17833 0.85592 0.30298 0.0
O99 O 0.23384 0.91148 0.30376 0.0
C100 C 0.20125 0.88928 0.32334 0.0
O101 O 0.19481 0.77979 0.23309 0.0
O102 O 0.13201 0.74914 0.22156 0.0
C103 C 0.26854 0.83368 0.24718 0.0
C104 C 0.16324 0.74743 0.22734 0.0
Zn105 Zn 0.35997 0.25653 0.73136 0.0
Zn106 Zn 0.34726 0.07196 0.72872 0.0
Zn107 Zn 0.35182 0.19236 0.73094 0.0
C108 C 0.32107 0.12417 0.6623 0.0
C109 C 0.31841 0.12275 0.79498 0.0
O110 O 0.41541 0.23438 0.7365 0.0
O111 O 0.41547 0.28892 0.75238 0.0
C112 C 0.32599 0.22324 0.63692 0.0
O113 O 0.32334 0.1574 0.66326 0.0
O114 O 0.33734 0.11656 0.69942 0.0
O115 O 0.33535 0.11544 0.75855 0.0
O116 O 0.32015 0.15578 0.79447 0.0
O117 O 0.34487 0.25604 0.65859 0.0
O118 O 0.32334 0.19322 0.65876 0.0
O119 O 0.31646 0.18979 0.79714 0.0
O120 O 0.31847 0.24519 0.78173 0.0
C121 C 0.3051 0.2143 0.8068 0.0
O122 O 0.40869 0.19664 0.73547 0.0
O123 O 0.37628 0.13365 0.73115 0.0
C124 C 0.43393 0.27087 0.74729 0.0
C125 C 0.40929 0.16479 0.73476 0.0
C126 C 0.14081 0.48576 0.27225 0.0
C127 C 0.16047 0.47295 0.24013 0.0
C128 C 0.14953 0.52426 0.27183 0.0
C129 C 0.17792 0.55086 0.23883 0.0
C130 C 0.19894 0.53856 0.20842 0.0
C131 C 0.18992 0.49973 0.20854 0.0
C132 C 0.18479 0.59099 0.23466 0.0
C133 C 0.15512 0.59839 0.23715 0.0
C134 C 0.15931 0.63741 0.23238 0.0
C135 C 0.12705 0.64002 0.21539 0.0
C136 C 0.12864 0.67578 0.21301 0.0
C137 C 0.16242 0.70984 0.22834 0.0
H138 H 0.21845 0.67047 0.26198 0.0
C139 C 0.19477 0.70734 0.24557 0.0
C140 C 0.19338 0.6715 0.24733 0.0
H141 H 0.22078 0.73291 0.25902 0.0
H142 H 0.11809 0.46574 0.29719 0.0
H143 H 0.13363 0.53304 0.29696 0.0
H144 H 0.22113 0.55857 0.1829 0.0
H145 H 0.20479 0.49037 0.18249 0.0
H146 H 0.21392 0.61406 0.22601 0.0
H147 H 0.12564 0.57424 0.24054 0.0
H148 H 0.10036 0.6142 0.20393 0.0
H149 H 0.10326 0.67659 0.19931 0.0
C150 C 0.67061 0.16861 0.74629 0.0
C151 C 0.67322 0.14161 0.71421 0.0
C152 C 0.63737 0.17275 0.74483 0.0
C153 C 0.60605 0.14971 0.71118 0.0
C154 C 0.60965 0.12378 0.67807 0.0
C155 C 0.64256 0.1196 0.67978 0.0
C156 C 0.56866 0.15045 0.70939 0.0
C157 C 0.55763 0.16846 0.74375 0.0
C158 C 0.51897 0.16641 0.74134 0.0
C159 C 0.51542 0.19727 0.76147 0.0
C160 C 0.47971 0.19643 0.75978 0.0
C161 C 0.44652 0.16452 0.73837 0.0
H162 H 0.48658 0.10892 0.70684 0.0
C163 C 0.44959 0.13298 0.71975 0.0
C164 C 0.48544 0.13392 0.72108 0.0
H165 H 0.42442 0.10783 0.70348 0.0
H166 H 0.69334 0.18508 0.77411 0.0
H167 H 0.63637 0.19353 0.77065 0.0
H168 H 0.58637 0.10578 0.6515 0.0
H169 H 0.64373 0.09848 0.65459 0.0
H170 H 0.5487 0.13434 0.67825 0.0
H171 H 0.5774 0.18594 0.77422 0.0
H172 H 0.54048 0.22236 0.77811 0.0
H173 H 0.47802 0.22068 0.77575 0.0
C174 C 0.29791 0.50131 0.18372 0.0
C175 C 0.26861 0.48324 0.22016 0.0
C176 C 0.32592 0.54047 0.18881 0.0
C177 C 0.32558 0.56247 0.231 0.0
C178 C 0.29514 0.54473 0.26621 0.0
C179 C 0.26679 0.50552 0.26074 0.0
C180 C 0.35955 0.60145 0.24324 0.0
C181 C 0.38494 0.62471 0.20788 0.0
C182 C 0.42469 0.65749 0.22035 0.0
C183 C 0.44555 0.68476 0.18246 0.0
C184 C 0.48553 0.71065 0.18844 0.0
C185 C 0.50542 0.70971 0.23245 0.0
H186 H 0.42988 0.63753 0.2956 0.0
C187 C 0.48428 0.6841 0.27159 0.0
C188 C 0.44435 0.65843 0.26585 0.0
H189 H 0.49914 0.6824 0.30553 0.0
H190 H 0.30027 0.4846 0.15248 0.0
H191 H 0.34927 0.55248 0.16148 0.0
H192 H 0.29429 0.56077 0.29934 0.0
H193 H 0.2449 0.49208 0.28987 0.0
H194 H 0.36497 0.60996 0.28328 0.0
H195 H 0.37755 0.618 0.16765 0.0
H196 H 0.43136 0.68459 0.14686 0.0
H197 H 0.50136 0.72947 0.15719 0.0
C198 C 0.80905 0.48186 0.75278 0.0
C199 C 0.80033 0.50248 0.71685 0.0
C200 C 0.79283 0.44175 0.74801 0.0
C201 C 0.76773 0.42132 0.70674 0.0
C202 C 0.75859 0.44201 0.67122 0.0
C203 C 0.77465 0.48221 0.6763 0.0
C204 C 0.75515 0.37981 0.69626 0.0
C205 C 0.75286 0.3551 0.73291 0.0
C206 C 0.75157 0.31748 0.72274 0.0
C207 C 0.74525 0.29261 0.76396 0.0
C208 C 0.75315 0.2621 0.75954 0.0
C209 C 0.76722 0.25568 0.71366 0.0
H210 H 0.76872 0.32744 0.64292 0.0
C211 C 0.77068 0.2785 0.67129 0.0
C212 C 0.7628 0.30897 0.67558 0.0
H213 H 0.78245 0.27467 0.63587 0.0
H214 H 0.82923 0.49697 0.78399 0.0
H215 H 0.80175 0.42733 0.7753 0.0
H216 H 0.73982 0.42721 0.63869 0.0
H217 H 0.7681 0.49761 0.64753 0.0
H218 H 0.74956 0.37022 0.65665 0.0
H219 H 0.75489 0.36397 0.77268 0.0
H220 H 0.73692 0.29849 0.80085 0.0
H221 H 0.75168 0.24589 0.7933 0.0
C222 C 0.49284 0.78556 0.26281 0.0
C223 C 0.5147 0.80144 0.21865 0.0
C224 C 0.45301 0.7734 0.26291 0.0
C225 C 0.43468 0.77745 0.21888 0.0
C226 C 0.4561 0.79024 0.17371 0.0
C227 C 0.49585 0.80264 0.17378 0.0
C228 C 0.39507 0.77308 0.21978 0.0
C229 C 0.38147 0.78256 0.26133 0.0
C230 C 0.34895 0.79119 0.25945 0.0
C231 C 0.34986 0.81843 0.29461 0.0
C232 C 0.32292 0.8312 0.29119 0.0
C233 C 0.29375 0.81636 0.25326 0.0
H234 H 0.31662 0.75344 0.1954 0.0
C235 C 0.29136 0.78765 0.21948 0.0
C236 C 0.3188 0.77514 0.22244 0.0
H237 H 0.26918 0.77591 0.18974 0.0
H238 H 0.50697 0.7846 0.2979 0.0
H239 H 0.43712 0.76247 0.298 0.0
H240 H 0.44274 0.79336 0.13916 0.0
H241 H 0.51235 0.81515 0.13944 0.0
H242 H 0.3801 0.76865 0.18333 0.0
H243 H 0.39844 0.79026 0.29658 0.0
H244 H 0.37254 0.83117 0.32366 0.0
H245 H 0.32533 0.8533 0.3178 0.0
C246 C 0.70713 0.48532 0.73742 0.0
C247 C 0.70683 0.50929 0.6986 0.0
C248 C 0.67874 0.44608 0.73807 0.0
C249 C 0.64952 0.43034 0.69993 0.0
C250 C 0.65087 0.45393 0.65952 0.0
C251 C 0.67892 0.49317 0.65923 0.0
C252 C 0.61515 0.39089 0.70343 0.0
C253 C 0.59852 0.3757 0.74846 0.0
C254 C 0.5575 0.34411 0.75179 0.0
C255 C 0.54026 0.31374 0.71548 0.0
C256 C 0.50005 0.28801 0.71585 0.0
C257 C 0.47665 0.29266 0.75207 0.0
H258 H 0.54693 0.36969 0.81869 0.0
C259 C 0.49422 0.32162 0.78985 0.0
C260 C 0.53433 0.34671 0.79015 0.0
H261 H 0.47673 0.32563 0.81826 0.0
H262 H 0.72833 0.49727 0.76832 0.0
H263 H 0.67908 0.42844 0.76911 0.0
H264 H 0.62882 0.44252 0.6296 0.0
H265 H 0.67816 0.51119 0.62897 0.0
H266 H 0.59935 0.37743 0.66818 0.0
H267 H 0.61241 0.39126 0.78365 0.0
H268 H 0.55756 0.31056 0.68604 0.0
H269 H 0.48703 0.26583 0.68634 0.0
C270 C 0.28057 0.2017 0.89645 0.0
C271 C 0.2752 0.20716 0.84488 0.0
C272 C 0.25682 0.20459 0.93368 0.0
C273 C 0.22737 0.21304 0.91961 0.0
C274 C 0.22078 0.21605 0.86761 0.0
C275 C 0.24442 0.21318 0.83069 0.0
C276 C 0.20744 0.22502 0.95752 0.0
C277 C 0.20391 0.21555 0.00717 0.0
C278 C 0.19425 0.23598 0.04745 0.0
C279 C 0.20686 0.23561 0.09746 0.0
C280 C 0.20472 0.25924 0.13528 0.0
C281 C 0.1894 0.28355 0.12429 0.0
H282 H 0.16486 0.25842 -0.0004 0.0
C283 C 0.17389 0.28188 0.07541 0.0
C284 C 0.17625 0.25825 0.03717 0.0
H285 H 0.16192 0.30028 0.06596 0.0
H286 H 0.30491 0.19827 0.90834 0.0
H287 H 0.26364 0.2031 0.97337 0.0
H288 H 0.19857 0.22274 0.85564 0.0
H289 H 0.24 0.21782 0.79104 0.0
H290 H 0.19827 0.24497 0.94413 0.0
H291 H 0.21264 0.19507 0.01987 0.0
H292 H 0.22037 0.2185 0.10683 0.0
H293 H 0.21633 0.25942 0.17294 0.0
C294 C 0.93414 0.20605 0.61589 0.0
C295 C 0.89364 0.1889 0.60965 0.0
C296 C 0.95774 0.20984 0.57453 0.0
C297 C 0.94134 0.19656 0.52557 0.0
C298 C 0.90053 0.17756 0.52002 0.0
C299 C 0.87688 0.17374 0.56167 0.0
C300 C 0.96554 0.20606 0.47872 0.0
C301 C 0.00465 0.22139 0.47867 0.0
C302 C 0.02872 0.23873 0.43246 0.0
C303 C 0.06762 0.26855 0.43863 0.0
C304 C 0.08918 0.2897 0.39651 0.0
C305 C 0.0721 0.28124 0.3476 0.0
H306 H 0.98406 0.20429 0.37575 0.0
C307 C 0.03441 0.24953 0.34093 0.0
C308 C 0.01309 0.22823 0.38272 0.0
H309 H 0.02086 0.24194 0.30335 0.0
H310 H 0.94784 0.21798 0.65263 0.0
H311 H 0.9888 0.22507 0.58116 0.0
H312 H 0.88696 0.16719 0.48281 0.0
H313 H 0.84591 0.16131 0.55559 0.0
H314 H 0.95032 0.20307 0.44291 0.0
H315 H 0.02031 0.22486 0.51419 0.0
H316 H 0.08066 0.27694 0.47643 0.0
H317 H 0.11811 0.31413 0.40268 0.0
C318 C 0.77824 0.08799 0.90845 0.0
C319 C 0.78863 0.07974 0.86091 0.0
C320 C 0.77454 0.06501 0.95063 0.0
C321 C 0.78106 0.03341 0.94554 0.0
C322 C 0.79543 0.02798 0.89925 0.0
C323 C 0.79868 0.05064 0.85706 0.0
C324 C 0.76949 0.00345 -0.01441 0.0
C325 C 0.73717 -0.0078 0.01338 0.0
C326 C 0.72044 0.95913 0.04937 0.0
C327 C 0.69234 0.95677 0.08365 0.0
C328 C 0.67449 0.926 0.11729 0.0
C329 C 0.68402 0.8964 0.11755 0.0
H330 H 0.75043 0.92922 0.02211 0.0
C331 C 0.71158 0.89809 0.08263 0.0
C332 C 0.72973 0.9292 0.04884 0.0
H333 H 0.71943 0.87569 0.08178 0.0
H334 H 0.77002 0.1101 0.91201 0.0
H335 H 0.76468 0.0708 -0.01362 0.0
H336 H 0.80111 0.00419 0.89447 0.0
H337 H 0.80633 0.04358 0.82043 0.0
H338 H 0.78561 0.98809 -0.01165 0.0
H339 H 0.72105 0.0075 0.00873 0.0
H340 H 0.6841 0.97896 0.08459 0.0
H341 H 0.65304 0.92551 0.14303 0.0
C342 C 0.71222 0.79662 0.38333 0.0
C343 C 0.70571 0.77649 0.33677 0.0
C344 C 0.73841 0.79633 0.41962 0.0
C345 C 0.75863 0.77613 0.40944 0.0
C346 C 0.75379 0.75842 0.36144 0.0
C347 C 0.72749 0.75828 0.32583 0.0
C348 C 0.78274 0.76998 0.44816 0.0
C349 C 0.77713 0.76997 0.4988 0.0
C350 C 0.79245 0.75326 0.53724 0.0
C351 C 0.78952 0.76063 0.58901 0.0
C352 C 0.79479 0.7392 0.62689 0.0
C353 C 0.80326 0.70989 0.61403 0.0
H354 H 0.80633 0.71888 0.48517 0.0
C355 C 0.8097 0.70462 0.56274 0.0
C356 C 0.80418 0.72602 0.52448 0.0
H357 H 0.81573 0.68184 0.55184 0.0
H358 H 0.69593 0.81104 0.39253 0.0
H359 H 0.74218 0.81138 0.45561 0.0
H360 H 0.76912 0.743 0.35216 0.0
H361 H 0.7236 0.74309 0.28981 0.0
H362 H 0.80255 0.76077 0.43394 0.0
H363 H 0.75751 0.77944 0.51298 0.0
H364 H 0.78073 0.7814 0.60017 0.0
H365 H 0.78979 0.74393 0.66629 0.0
C366 C 0.95316 0.71456 0.84125 0.0
C367 C 0.91262 0.6905 0.84341 0.0
C368 C 0.97502 0.73223 0.8853 0.0
C369 C 0.95685 0.72638 0.93297 0.0
C370 C 0.91602 0.70369 0.93478 0.0
C371 C 0.89403 0.68603 0.89034 0.0
C372 C 0.9799 0.73938 -0.01839 0.0
C373 C 0.01781 0.76707 -0.01576 0.0
C374 C 0.04308 0.77457 0.03021 0.0
C375 C 0.07808 0.80999 0.03496 0.0
C376 C 0.10405 0.81674 0.07549 0.0
C377 C 0.0958 0.78797 0.11184 0.0
H378 H 0.00891 0.71773 0.06386 0.0
C379 C 0.06079 0.7526 0.10711 0.0
C380 C 0.03479 0.7459 0.06685 0.0
H381 H 0.05348 0.72967 0.13417 0.0
H382 H 0.96833 0.71854 0.80555 0.0
H383 H 0.0063 0.74854 0.88183 0.0
H384 H 0.9012 0.69834 0.97097 0.0
H385 H 0.86295 0.66708 0.89333 0.0
H386 H 0.96526 0.7244 0.01609 0.0
H387 H 0.03151 0.78473 0.95112 0.0
H388 H 0.08552 0.83246 0.00699 0.0
H389 H 0.1306 0.84438 0.07816 0.0
C390 C 0.28758 0.05598 0.62837 0.0
C391 C 0.29914 0.09522 0.62162 0.0
C392 C 0.26639 0.02849 0.59018 0.0
C393 C 0.25631 0.03975 0.54431 0.0
C394 C 0.26803 0.07903 0.5377 0.0
C395 C 0.28903 0.10642 0.57595 0.0
C396 C 0.23663 0.01235 0.50082 0.0
C397 C 0.21548 0.97343 0.50487 0.0
C398 C 0.20155 0.94719 0.45921 0.0
C399 C 0.19861 0.91056 0.46204 0.0
C400 C 0.19364 0.88867 0.41752 0.0
C401 C 0.19127 0.90313 0.3698 0.0
H402 H 0.19465 0.98636 0.40833 0.0
C403 C 0.19005 0.93767 0.36751 0.0
C404 C 0.1946 0.95928 0.41185 0.0
H405 H 0.18833 0.94932 0.33093 0.0
H406 H 0.29481 0.0464 0.66324 0.0
H407 H 0.259 -0.0012 0.5964 0.0
H408 H 0.26117 0.08868 0.50255 0.0
H409 H 0.29791 0.13648 0.56935 0.0
H410 H 0.24131 0.02529 0.46335 0.0
H411 H 0.21106 0.96016 0.54208 0.0
H412 H 0.2032 0.90021 0.49813 0.0
H413 H 0.19516 0.86231 0.41998 0.0
C414 C 0.66728 0.72973 0.05871 0.0
C415 C 0.67998 0.76426 0.08679 0.0
C416 C 0.69221 0.72562 0.02527 0.0
C417 C 0.73045 0.75598 0.01885 0.0
C418 C 0.74234 0.79162 0.04358 0.0
C419 C 0.71739 0.79562 0.07785 0.0
C420 C 0.7577 0.74984 -0.01323 0.0
C421 C 0.75964 0.71708 -0.00889 0.0
C422 C 0.77684 0.70252 0.95254 0.0
C423 C 0.76306 0.66248 0.95085 0.0
C424 C 0.77094 0.64559 0.90914 0.0
C425 C 0.7937 0.66853 0.86902 0.0
H426 H 0.81488 0.75701 0.91528 0.0
C427 C 0.81121 0.70896 0.87313 0.0
C428 C 0.80273 0.72595 0.9146 0.0
H429 H 0.82856 0.72711 0.84217 0.0
H430 H 0.63854 0.70511 0.06436 0.0
H431 H 0.68183 0.69822 0.0053 0.0
H432 H 0.77155 0.81559 0.03858 0.0
H433 H 0.72828 0.82227 0.09968 0.0
H434 H 0.77407 0.77117 0.95807 0.0
H435 H 0.7433 0.69733 0.02159 0.0
H436 H 0.74344 0.64372 -0.02024 0.0
H437 H 0.75683 0.61431 0.90639 0.0
C438 C 0.90449 0.65991 0.53883 0.0
C439 C 0.89331 0.67739 0.57672 0.0
C440 C 0.92844 0.68164 0.49913 0.0
C441 C 0.94198 0.72163 0.49633 0.0
C442 C 0.92917 0.7388 0.53289 0.0
C443 C 0.90467 0.71675 0.57258 0.0
C444 C 0.97285 0.74617 0.45946 0.0
C445 C 0.97698 0.73193 0.41451 0.0
C446 C 0.01145 0.7513 0.38078 0.0
C447 C 0.00822 0.73571 0.33158 0.0
C448 C 0.04068 0.74872 0.30054 0.0
C449 C 0.07747 0.77768 0.31784 0.0
H450 H 0.05203 0.79389 0.4356 0.0
C451 C 0.08075 0.79469 0.36622 0.0
C452 C 0.04805 0.78148 0.39764 0.0
H453 H 0.10875 0.8172 0.38047 0.0
H454 H 0.89644 0.62969 0.54149 0.0
H455 H 0.93831 0.66732 0.47285 0.0
H456 H 0.93935 0.76957 0.53188 0.0
H457 H 0.89692 0.731 0.60187 0.0
H458 H -0.00676 0.77584 0.47074 0.0
H459 H 0.95415 0.70345 0.40205 0.0
H460 H 0.98054 0.71252 0.31744 0.0
H461 H 0.03685 0.73565 0.26302 0.0
C462 C 0.217 0.94994 0.10298 0.0
C463 C 0.21348 0.9132 0.10024 0.0
C464 C 0.2206 0.9706 0.05869 0.0
C465 C 0.22209 0.95542 0.01044 0.0
C466 C 0.21603 0.91745 0.00773 0.0
C467 C 0.21166 0.89641 0.05231 0.0
C468 C 0.23209 0.97885 0.96288 0.0
C469 C 0.24803 0.01776 0.96305 0.0
C470 C 0.26263 0.04224 0.91693 0.0
C471 C 0.26625 0.07915 0.91836 0.0
C472 C 0.28346 0.10483 0.8782 0.0
C473 C 0.29804 0.09447 0.8359 0.0
H474 H 0.27496 0.00358 0.87186 0.0
C475 C 0.29382 0.05726 0.83385 0.0
C476 C 0.2763 0.03136 0.87393 0.0
H477 H 0.30462 0.04828 0.80173 0.0
H478 H 0.21801 0.96318 0.13973 0.0
H479 H 0.22309 -0.00127 0.06317 0.0
H480 H 0.21642 0.90466 0.97121 0.0
H481 H 0.20903 0.86804 0.04949 0.0
H482 H 0.2281 0.96364 0.92678 0.0
H483 H 0.2519 0.03338 -0.00137 0.0
H484 H 0.25622 0.08843 0.95112 0.0
H485 H 0.28608 0.13311 0.88087 0.0
C486 C 0.31613 0.25327 0.56004 0.0
C487 C 0.30336 0.22034 0.59043 0.0
C488 C 0.29097 0.25586 0.52507 0.0
C489 C 0.25246 0.22555 0.51958 0.0
C490 C 0.2406 0.19103 0.54616 0.0
C491 C 0.26589 0.18851 0.5818 0.0
C492 C 0.22472 0.23163 0.48831 0.0
C493 C 0.22178 0.26355 0.49661 0.0
C494 C 0.20621 0.2802 0.4589 0.0
C495 C 0.22141 0.32046 0.46057 0.0
C496 C 0.21493 0.33921 0.4202 0.0
C497 C 0.19206 0.31794 0.37815 0.0
H498 H 0.1674 0.22731 0.41698 0.0
C499 C 0.17324 0.27734 0.37877 0.0
C500 C 0.18048 0.25848 0.4188 0.0
H501 H 0.15563 0.26045 0.34639 0.0
H502 H 0.34494 0.27811 0.56556 0.0
H503 H 0.3011 0.28238 0.50388 0.0
H504 H 0.21112 0.16714 0.54189 0.0
H505 H 0.25518 0.16294 0.60511 0.0
H506 H 0.21002 0.21209 0.45637 0.0
H507 H 0.23702 0.28166 0.52971 0.0
H508 H 0.24097 0.3379 0.49123 0.0
H509 H 0.22983 0.37058 0.42029 0.0
C510 C 0.90119 0.23141 0.89493 0.0
C511 C 0.88013 0.19702 0.86621 0.0
C512 C 0.93006 0.23581 0.92939 0.0
C513 C 0.93852 0.20585 0.93635 0.0
C514 C 0.91525 0.17014 0.91132 0.0
C515 C 0.88641 0.16583 0.87601 0.0
C516 C 0.9721 0.21265 0.96923 0.0
C517 C 0.00653 0.24576 0.96508 0.0
C518 C 0.03879 0.26136 0.00369 0.0
C519 C 0.06816 0.30028 -0.00068 0.0
C520 C 0.09362 0.31968 0.04008 0.0
C521 C 0.09083 0.30026 0.08553 0.0
H522 H 0.01717 0.21081 0.05224 0.0
C523 C 0.06453 0.26038 0.08812 0.0
C524 C 0.03862 0.24095 0.04751 0.0
H525 H 0.06155 0.24504 0.12332 0.0
H526 H 0.89675 0.25584 0.88888 0.0
H527 H 0.94659 0.26319 0.94962 0.0
H528 H 0.92082 0.14639 0.91688 0.0
H529 H 0.87096 0.13911 0.85417 0.0
H530 H 0.96749 0.19135 -0.00211 0.0
H531 H 0.00961 0.26488 0.93379 0.0
H532 H 0.06937 0.31676 0.96595 0.0
H533 H 0.11323 0.3506 0.03765 0.0
C534 C 0.71586 0.89995 0.36143 0.0
C535 C 0.68569 0.89657 0.32944 0.0
C536 C 0.73427 0.93103 0.39634 0.0
C537 C 0.72263 0.95921 0.39978 0.0
C538 C 0.69209 0.95519 0.36819 0.0
C539 C 0.67397 0.92446 0.33347 0.0
C540 C 0.73952 -0.00787 0.43709 0.0
C541 C 0.77306 0.00475 0.46357 0.0
C542 C 0.7849 0.03475 0.50457 0.0
C543 C 0.80149 0.03055 0.54985 0.0
C544 C 0.80497 0.05299 0.59306 0.0
C545 C 0.79287 0.08063 0.59118 0.0
H546 H 0.7647 0.06995 0.4665 0.0
C547 C 0.77999 0.08761 0.54461 0.0
C548 C 0.77629 0.06504 0.50143 0.0
H549 H 0.76996 0.1084 0.54259 0.0
H550 H 0.72564 0.87899 0.35889 0.0
H551 H 0.75707 0.93243 0.42072 0.0
H552 H 0.68211 0.97605 0.37025 0.0
H553 H 0.65055 0.92256 0.30989 0.0
H554 H 0.72241 0.00617 0.44398 0.0
H555 H 0.79023 -0.0094 0.45888 0.0
H556 H 0.80875 0.00776 0.55312 0.0
H557 H 0.81435 0.04674 0.62896 0.0
loop_
_geom_bond_atom_site_label_1
_geom_bond_atom_site_label_2
_geom_bond_distance
_geom_bond_site_symmetry_2
_ccdc_geom_bond_type
Zn0 O6 1.920 . S
Zn0 O12 1.898 . S
Zn0 O15 1.905 . S
Zn1 O9 1.905 . S
Zn1 O10 1.898 . S
Zn1 O18 1.920 . S
Zn2 O5 2.080 . S
Zn2 O8 2.114 . S
Zn2 O11 2.120 . S
Zn2 O13 2.120 . S
Zn2 O14 2.114 . S
Zn2 O17 2.080 . S
C3 O8 1.166 . S
C3 O9 1.182 . S
C4 O10 1.167 . S
C4 O11 1.299 . S
O5 Zn2 2.080 . S
O5 C19 1.305 . S
O6 Zn0 1.920 . S
O6 C19 1.234 . S
C7 O12 1.167 . S
C7 O13 1.299 . S
O8 Zn2 2.114 . S
O8 C3 1.166 . S
O9 Zn1 1.905 . S
O9 C3 1.182 . S
O10 Zn1 1.898 . S
O10 C4 1.167 . S
O11 Zn2 2.120 . S
O11 C4 1.299 . S
O12 Zn0 1.898 . S
O12 C7 1.167 . S
O13 Zn2 2.120 . S
O13 C7 1.299 . S
O14 Zn2 2.114 . S
O14 C16 1.166 . S
O15 Zn0 1.905 . S
O15 C16 1.182 . S
C16 O14 1.166 . S
C16 O15 1.182 . S
O17 Zn2 2.080 . S
O17 C20 1.305 . S
O18 Zn1 1.920 . S
O18 C20 1.234 . S
C19 O5 1.305 . S
C19 O6 1.234 . S
C20 O17 1.305 . S
C20 O18 1.234 . S
Zn21 O27 1.920 . S
Zn21 O33 1.898 . S
Zn21 O36 1.905 . S
Zn22 O30 1.905 . S
Zn22 O31 1.898 . S
Zn22 O39 1.920 . S
Zn23 O26 2.080 . S
Zn23 O29 2.114 . S
Zn23 O32 2.120 . S
Zn23 O34 2.120 . S
Zn23 O35 2.114 . S
Zn23 O38 2.080 . S
C24 O29 1.166 . S
C24 O30 1.182 . S
C25 O31 1.167 . S
C25 O32 1.299 . S
O26 Zn23 2.080 . S
O26 C40 1.305 . S
O27 Zn21 1.920 . S
O27 C40 1.234 . S
C28 O33 1.167 . S
C28 O34 1.299 . S
O29 Zn23 2.114 . S
O29 C24 1.166 . S
O30 Zn22 1.905 . S
O30 C24 1.182 . S
O31 Zn22 1.898 . S
O31 C25 1.167 . S
O32 Zn23 2.120 . S
O32 C25 1.299 . S
O33 Zn21 1.898 . S
O33 C28 1.167 . S
O34 Zn23 2.120 . S
O34 C28 1.299 . S
O35 Zn23 2.114 . S
O35 C37 1.166 . S
O36 Zn21 1.905 . S
O36 C37 1.182 . S
C37 O35 1.166 . S
C37 O36 1.182 . S
O38 Zn23 2.080 . S
O38 C41 1.305 . S
O39 Zn22 1.920 . S
O39 C41 1.234 . S
C40 O26 1.305 . S
C40 O27 1.234 . S
C41 O38 1.305 . S
C41 O39 1.234 . S
Zn42 O48 1.920 . S
Zn42 O54 1.898 . S
Zn42 O57 1.905 . S
Zn43 O51 1.905 . S
Zn43 O52 1.898 . S
Zn43 O60 1.920 . S
Zn44 O47 2.080 . S
Zn44 O50 2.114 . S
Zn44 O53 2.120 . S
Zn44 O55 2.120 . S
Zn44 O56 2.114 . S
Zn44 O59 2.080 . S
C45 O50 1.166 . S
C45 O51 1.182 . S
C46 O52 1.167 . S
C46 O53 1.299 . S
O47 Zn44 2.080 . S
O47 C61 1.305 . S
O48 Zn42 1.920 . S
O48 C61 1.234 . S
C49 O54 1.167 . S
C49 O55 1.299 . S
O50 Zn44 2.114 . S
O50 C45 1.166 . S
O51 Zn43 1.905 . S
O51 C45 1.182 . S
O52 Zn43 1.898 . S
O52 C46 1.167 . S
O53 Zn44 2.120 . S
O53 C46 1.299 . S
O54 Zn42 1.898 . S
O54 C49 1.167 . S
O55 Zn44 2.120 . S
O55 C49 1.299 . S
O56 Zn44 2.114 . S
O56 C58 1.166 . S
O57 Zn42 1.905 . S
O57 C58 1.182 . S
C58 O56 1.166 . S
C58 O57 1.182 . S
O59 Zn44 2.080 . S
O59 C62 1.305 . S
O60 Zn43 1.920 . S
O60 C62 1.234 . S
C61 O47 1.305 . S
C61 O48 1.234 . S
C62 O59 1.305 . S
C62 O60 1.234 . S
Zn63 O69 1.920 . S
Zn63 O75 1.898 . S
Zn63 O78 1.905 . S
Zn64 O72 1.905 . S
Zn64 O73 1.898 . S
Zn64 O81 1.920 . S
Zn65 O68 2.080 . S
Zn65 O71 2.114 . S
Zn65 O74 2.120 . S
Zn65 O76 2.120 . S
Zn65 O77 2.114 . S
Zn65 O80 2.080 . S
C66 O71 1.166 . S
C66 O72 1.182 . S
C67 O73 1.167 . S
C67 O74 1.299 . S
O68 Zn65 2.080 . S
O68 C82 1.305 . S
O69 Zn63 1.920 . S
O69 C82 1.234 . S
C70 O75 1.167 . S
C70 O76 1.299 . S
O71 Zn65 2.114 . S
O71 C66 1.166 . S
O72 Zn64 1.905 . S
O72 C66 1.182 . S
O73 Zn64 1.898 . S
O73 C67 1.167 . S
O74 Zn65 2.120 . S
O74 C67 1.299 . S
O75 Zn63 1.898 . S
O75 C70 1.167 . S
O76 Zn65 2.120 . S
O76 C70 1.299 . S
O77 Zn65 2.114 . S
O77 C79 1.166 . S
O78 Zn63 1.905 . S
O78 C79 1.182 . S
C79 O77 1.166 . S
C79 O78 1.182 . S
O80 Zn65 2.080 . S
O80 C83 1.305 . S
O81 Zn64 1.920 . S
O81 C83 1.234 . S
C82 O68 1.305 . S
C82 O69 1.234 . S
C83 O80 1.305 . S
C83 O81 1.234 . S
Zn84 O90 1.920 . S
Zn84 O96 1.898 . S
Zn84 O99 1.905 . S
Zn85 O93 1.905 . S
Zn85 O94 1.898 . S
Zn85 O102 1.920 . S
Zn86 O89 2.080 . S
Zn86 O92 2.114 . S
Zn86 O95 2.120 . S
Zn86 O97 2.120 . S
Zn86 O98 2.114 . S
Zn86 O101 2.080 . S
C87 O92 1.166 . S
C87 O93 1.182 . S
C88 O94 1.167 . S
C88 O95 1.299 . S
O89 Zn86 2.080 . S
O89 C103 1.305 . S
O90 Zn84 1.920 . S
O90 C103 1.234 . S
C91 O96 1.167 . S
C91 O97 1.299 . S
O92 Zn86 2.114 . S
O92 C87 1.166 . S
O93 Zn85 1.905 . S
O93 C87 1.182 . S
O94 Zn85 1.898 . S
O94 C88 1.167 . S
O95 Zn86 2.120 . S
O95 C88 1.299 . S
O96 Zn84 1.898 . S
O96 C91 1.167 . S
O97 Zn86 2.120 . S
O97 C91 1.299 . S
O98 Zn86 2.114 . S
O98 C100 1.166 . S
O99 Zn84 1.905 . S
O99 C100 1.182 . S
C100 O98 1.166 . S
C100 O99 1.182 . S
O101 Zn86 2.080 . S
O101 C104 1.305 . S
O102 Zn85 1.920 . S
O102 C104 1.234 . S
C103 O89 1.305 . S
C103 O90 1.234 . S
C104 O101 1.305 . S
C104 O102 1.234 . S
Zn105 O111 1.920 . S
Zn105 O117 1.898 . S
Zn105 O120 1.905 . S
Zn106 O114 1.905 . S
Zn106 O115 1.898 . S
Zn106 O123 1.920 . S
Zn107 O110 2.080 . S
Zn107 O113 2.114 . S
Zn107 O116 2.120 . S
Zn107 O118 2.120 . S
Zn107 O119 2.114 . S
Zn107 O122 2.080 . S
C108 O113 1.166 . S
C108 O114 1.182 . S
C109 O115 1.167 . S
C109 O116 1.299 . S
O110 Zn107 2.080 . S
O110 C124 1.305 . S
O111 Zn105 1.920 . S
O111 C124 1.234 . S
C112 O117 1.167 . S
C112 O118 1.299 . S
O113 Zn107 2.114 . S
O113 C108 1.166 . S
O114 Zn106 1.905 . S
O114 C108 1.182 . S
O115 Zn106 1.898 . S
O115 C109 1.167 . S
O116 Zn107 2.120 . S
O116 C109 1.299 . S
O117 Zn105 1.898 . S
O117 C112 1.167 . S
O118 Zn107 2.120 . S
O118 C112 1.299 . S
O119 Zn107 2.114 . S
O119 C121 1.166 . S
O120 Zn105 1.905 . S
O120 C121 1.182 . S
C121 O119 1.166 . S
C121 O120 1.182 . S
O122 Zn107 2.080 . S
O122 C125 1.305 . S
O123 Zn106 1.920 . S
O123 C125 1.234 . S
C124 O110 1.305 . S
C124 O111 1.234 . S
C125 O122 1.305 . S
C125 O123 1.234 . S
C126 C127 1.386 . S
C126 C128 1.383 . S
C126 H142 0.951 . S
C127 C126 1.386 . S
C127 C131 1.383 . S
C128 C126 1.383 . S
C128 C129 1.402 . S
C128 H143 0.951 . S
C129 C128 1.402 . S
C129 C130 1.375 . S
C129 C132 1.481 . S
C130 C129 1.375 . S
C130 C131 1.367 . S
C130 H144 0.951 . S
C131 C127 1.383 . S
C131 C130 1.367 . S
C131 H145 0.950 . S
C132 C129 1.481 . S
C132 C133 1.297 . S
C132 H146 0.950 . S
C133 C132 1.297 . S
C133 C134 1.479 . S
C133 H147 0.950 . S
C134 C133 1.479 . S
C134 C135 1.375 . S
C134 C140 1.404 . S
C135 C134 1.375 . S
C135 C136 1.369 . S
C135 H148 0.950 . S
C136 C135 1.369 . S
C136 C137 1.392 . S
C136 H149 0.951 . S
C137 C136 1.392 . S
C137 C139 1.384 . S
H138 C140 0.949 . S
C139 C137 1.384 . S
C139 C140 1.385 . S
C139 H141 0.950 . S
C140 C134 1.404 . S
C140 H138 0.949 . S
C140 C139 1.385 . S
H141 C139 0.950 . S
H142 C126 0.951 . S
H143 C128 0.951 . S
H144 C130 0.951 . S
H145 C131 0.950 . S
H146 C132 0.950 . S
H147 C133 0.950 . S
H148 C135 0.950 . S
H149 C136 0.951 . S
C150 C151 1.386 . S
C150 C152 1.383 . S
C150 H166 0.951 . S
C151 C150 1.386 . S
C151 C155 1.383 . S
C152 C150 1.383 . S
C152 C153 1.402 . S
C152 H167 0.951 . S
C153 C152 1.402 . S
C153 C154 1.375 . S
C153 C156 1.481 . S
C154 C153 1.375 . S
C154 C155 1.367 . S
C154 H168 0.951 . S
C155 C151 1.383 . S
C155 C154 1.367 . S
C155 H169 0.950 . S
C156 C153 1.481 . S
C156 C157 1.297 . S
C156 H170 0.950 . S
C157 C156 1.297 . S
C157 C158 1.479 . S
C157 H171 0.950 . S
C158 C157 1.479 . S
C158 C159 1.375 . S
C158 C164 1.404 . S
C159 C158 1.375 . S
C159 C160 1.369 . S
C159 H172 0.950 . S
C160 C159 1.369 . S
C160 C161 1.392 . S
C160 H173 0.951 . S
C161 C160 1.392 . S
C161 C163 1.384 . S
H162 C164 0.949 . S
C163 C161 1.384 . S
C163 C164 1.385 . S
C163 H165 0.950 . S
C164 C158 1.404 . S
C164 H162 0.949 . S
C164 C163 1.385 . S
H165 C163 0.950 . S
H166 C150 0.951 . S
H167 C152 0.951 . S
H168 C154 0.951 . S
H169 C155 0.950 . S
H170 C156 0.950 . S
H171 C157 0.950 . S
H172 C159 0.950 . S
H173 C160 0.951 . S
C174 C175 1.386 . S
C174 C176 1.383 . S
C174 H190 0.951 . S
C175 C174 1.386 . S
C175 C179 1.383 . S
C176 C174 1.383 . S
C176 C177 1.402 . S
C176 H191 0.951 . S
C177 C176 1.402 . S
C177 C178 1.375 . S
C177 C180 1.481 . S
C178 C177 1.375 . S
C178 C179 1.367 . S
C178 H192 0.951 . S
C179 C175 1.383 . S
C179 C178 1.367 . S
C179 H193 0.950 . S
C180 C177 1.481 . S
C180 C181 1.297 . S
C180 H194 0.950 . S
C181 C180 1.297 . S
C181 C182 1.479 . S
C181 H195 0.950 . S
C182 C181 1.479 . S
C182 C183 1.375 . S
C182 C188 1.404 . S
C183 C182 1.375 . S
C183 C184 1.369 . S
C183 H196 0.950 . S
C184 C183 1.369 . S
C184 C185 1.392 . S
C184 H197 0.951 . S
C185 C184 1.392 . S
C185 C187 1.384 . S
H186 C188 0.949 . S
C187 C185 1.384 . S
C187 C188 1.385 . S
C187 H189 0.950 . S
C188 C182 1.404 . S
C188 H186 0.949 . S
C188 C187 1.385 . S
H189 C187 0.950 . S
H190 C174 0.951 . S
H191 C176 0.951 . S
H192 C178 0.951 . S
H193 C179 0.950 . S
H194 C180 0.950 . S
H195 C181 0.950 . S
H196 C183 0.950 . S
H197 C184 0.951 . S
C198 C199 1.386 . S
C198 C200 1.383 . S
C198 H214 0.951 . S
C199 C198 1.386 . S
C199 C203 1.383 . S
C200 C198 1.383 . S
C200 C201 1.402 . S
C200 H215 0.951 . S
C201 C200 1.402 . S
C201 C202 1.375 . S
C201 C204 1.481 . S
C202 C201 1.375 . S
C202 C203 1.367 . S
C202 H216 0.951 . S
C203 C199 1.383 . S
C203 C202 1.367 . S
C203 H217 0.950 . S
C204 C201 1.481 . S
C204 C205 1.297 . S
C204 H218 0.950 . S
C205 C204 1.297 . S
C205 C206 1.479 . S
C205 H219 0.950 . S
C206 C205 1.479 . S
C206 C207 1.375 . S
C206 C212 1.404 . S
C207 C206 1.375 . S
C207 C208 1.369 . S
C207 H220 0.950 . S
C208 C207 1.369 . S
C208 C209 1.392 . S
C208 H221 0.951 . S
C209 C208 1.392 . S
C209 C211 1.384 . S
H210 C212 0.949 . S
C211 C209 1.384 . S
C211 C212 1.385 . S
C211 H213 0.950 . S
C212 C206 1.404 . S
C212 H210 0.949 . S
C212 C211 1.385 . S
H213 C211 0.950 . S
H214 C198 0.951 . S
H215 C200 0.951 . S
H216 C202 0.951 . S
H217 C203 0.950 . S
H218 C204 0.950 . S
H219 C205 0.950 . S
H220 C207 0.950 . S
H221 C208 0.951 . S
C222 C223 1.386 . S
C222 C224 1.383 . S
C222 H238 0.951 . S
C223 C222 1.386 . S
C223 C227 1.383 . S
C224 C222 1.383 . S
C224 C225 1.402 . S
C224 H239 0.951 . S
C225 C224 1.402 . S
C225 C226 1.375 . S
C225 C228 1.481 . S
C226 C225 1.375 . S
C226 C227 1.367 . S
C226 H240 0.951 . S
C227 C223 1.383 . S
C227 C226 1.367 . S
C227 H241 0.950 . S
C228 C225 1.481 . S
C228 C229 1.297 . S
C228 H242 0.950 . S
C229 C228 1.297 . S
C229 C230 1.479 . S
C229 H243 0.950 . S
C230 C229 1.479 . S
C230 C231 1.375 . S
C230 C236 1.404 . S
C231 C230 1.375 . S
C231 C232 1.369 . S
C231 H244 0.950 . S
C232 C231 1.369 . S
C232 C233 1.392 . S
C232 H245 0.951 . S
C233 C232 1.392 . S
C233 C235 1.384 . S
H234 C236 0.949 . S
C235 C233 1.384 . S
C235 C236 1.385 . S
C235 H237 0.950 . S
C236 C230 1.404 . S
C236 H234 0.949 . S
C236 C235 1.385 . S
H237 C235 0.950 . S
H238 C222 0.951 . S
H239 C224 0.951 . S
H240 C226 0.951 . S
H241 C227 0.950 . S
H242 C228 0.950 . S
H243 C229 0.950 . S
H244 C231 0.950 . S
H245 C232 0.951 . S
C246 C247 1.386 . S
C246 C248 1.383 . S
C246 H262 0.951 . S
C247 C246 1.386 . S
C247 C251 1.383 . S
C248 C246 1.383 . S
C248 C249 1.402 . S
C248 H263 0.951 . S
C249 C248 1.402 . S
C249 C250 1.375 . S
C249 C252 1.481 . S
C250 C249 1.375 . S
C250 C251 1.367 . S
C250 H264 0.951 . S
C251 C247 1.383 . S
C251 C250 1.367 . S
C251 H265 0.950 . S
C252 C249 1.481 . S
C252 C253 1.297 . S
C252 H266 0.950 . S
C253 C252 1.297 . S
C253 C254 1.479 . S
C253 H267 0.950 . S
C254 C253 1.479 . S
C254 C255 1.375 . S
C254 C260 1.404 . S
C255 C254 1.375 . S
C255 C256 1.369 . S
C255 H268 0.950 . S
C256 C255 1.369 . S
C256 C257 1.392 . S
C256 H269 0.951 . S
C257 C256 1.392 . S
C257 C259 1.384 . S
H258 C260 0.949 . S
C259 C257 1.384 . S
C259 C260 1.385 . S
C259 H261 0.950 . S
C260 C254 1.404 . S
C260 H258 0.949 . S
C260 C259 1.385 . S
H261 C259 0.950 . S
H262 C246 0.951 . S
H263 C248 0.951 . S
H264 C250 0.951 . S
H265 C251 0.950 . S
H266 C252 0.950 . S
H267 C253 0.950 . S
H268 C255 0.950 . S
H269 C256 0.951 . S
C270 C271 1.386 . S
C270 C272 1.383 . S
C270 H286 0.951 . S
C271 C270 1.386 . S
C271 C275 1.383 . S
C272 C270 1.383 . S
C272 C273 1.402 . S
C272 H287 0.951 . S
C273 C272 1.402 . S
C273 C274 1.375 . S
C273 C276 1.481 . S
C274 C273 1.375 . S
C274 C275 1.367 . S
C274 H288 0.951 . S
C275 C271 1.383 . S
C275 C274 1.367 . S
C275 H289 0.950 . S
C276 C273 1.481 . S
C276 C277 1.297 1_556 S
C276 H290 0.950 . S
C277 C276 1.297 1_554 S
C277 C278 1.479 . S
C277 H291 0.950 . S
C278 C277 1.479 . S
C278 C279 1.375 . S
C278 C284 1.404 . S
C279 C278 1.375 . S
C279 C280 1.369 . S
C279 H292 0.950 . S
C280 C279 1.369 . S
C280 C281 1.392 . S
C280 H293 0.951 . S
C281 C280 1.392 . S
C281 C283 1.384 . S
H282 C284 0.949 . S
C283 C281 1.384 . S
C283 C284 1.385 . S
C283 H285 0.950 . S
C284 C278 1.404 . S
C284 H282 0.949 . S
C284 C283 1.385 . S
H285 C283 0.950 . S
H286 C270 0.951 . S
H287 C272 0.951 . S
H288 C274 0.951 . S
H289 C275 0.950 . S
H290 C276 0.950 . S
H291 C277 0.950 . S
H292 C279 0.950 . S
H293 C280 0.951 . S
C294 C295 1.386 . S
C294 C296 1.383 . S
C294 H310 0.951 . S
C295 C294 1.386 . S
C295 C299 1.383 . S
C296 C294 1.383 . S
C296 C297 1.402 . S
C296 H311 0.951 . S
C297 C296 1.402 . S
C297 C298 1.375 . S
C297 C300 1.481 . S
C298 C297 1.375 . S
C298 C299 1.367 . S
C298 H312 0.951 . S
C299 C295 1.383 . S
C299 C298 1.367 . S
C299 H313 0.950 . S
C300 C297 1.481 . S
C300 C301 1.297 . S
C300 H314 0.950 . S
C301 C300 1.297 . S
C301 C302 1.479 1_655 S
C301 H315 0.950 . S
C302 C301 1.479 1_455 S
C302 C303 1.375 . S
C302 C308 1.404 . S
C303 C302 1.375 . S
C303 C304 1.369 . S
C303 H316 0.950 . S
C304 C303 1.369 . S
C304 C305 1.392 . S
C304 H317 0.951 . S
C305 C304 1.392 . S
C305 C307 1.384 . S
H306 C308 0.949 . S
C307 C305 1.384 . S
C307 C308 1.385 . S
C307 H309 0.950 . S
C308 C302 1.404 . S
C308 H306 0.949 . S
C308 C307 1.385 . S
H309 C307 0.950 . S
H310 C294 0.951 . S
H311 C296 0.951 . S
H312 C298 0.951 . S
H313 C299 0.950 . S
H314 C300 0.950 . S
H315 C301 0.950 . S
H316 C303 0.950 . S
H317 C304 0.951 . S
C318 C319 1.386 . S
C318 C320 1.383 . S
C318 H334 0.951 . S
C319 C318 1.386 . S
C319 C323 1.383 . S
C320 C318 1.383 . S
C320 C321 1.402 . S
C320 H335 0.951 . S
C321 C320 1.402 . S
C321 C322 1.375 . S
C321 C324 1.481 1_545 S
C322 C321 1.375 . S
C322 C323 1.367 . S
C322 H336 0.951 . S
C323 C319 1.383 . S
C323 C322 1.367 . S
C323 H337 0.950 . S
C324 C321 1.481 1_565 S
C324 C325 1.297 1_556 S
C324 H338 0.950 . S
C325 C324 1.297 1_554 S
C325 C326 1.479 . S
C325 H339 0.950 1_554 S
C326 C325 1.479 . S
C326 C327 1.375 . S
C326 C332 1.404 . S
C327 C326 1.375 . S
C327 C328 1.369 . S
C327 H340 0.950 . S
C328 C327 1.369 . S
C328 C329 1.392 . S
C328 H341 0.951 . S
C329 C328 1.392 . S
C329 C331 1.384 . S
H330 C332 0.949 . S
C331 C329 1.384 . S
C331 C332 1.385 . S
C331 H333 0.950 . S
C332 C326 1.404 . S
C332 H330 0.949 . S
C332 C331 1.385 . S
H333 C331 0.950 . S
H334 C318 0.951 . S
H335 C320 0.951 . S
H336 C322 0.951 . S
H337 C323 0.950 . S
H338 C324 0.950 . S
H339 C325 0.950 1_556 S
H340 C327 0.950 . S
H341 C328 0.951 . S
C342 C343 1.386 . S
C342 C344 1.383 . S
C342 H358 0.951 . S
C343 C342 1.386 . S
C343 C347 1.383 . S
C344 C342 1.383 . S
C344 C345 1.402 . S
C344 H359 0.951 . S
C345 C344 1.402 . S
C345 C346 1.375 . S
C345 C348 1.481 . S
C346 C345 1.375 . S
C346 C347 1.367 . S
C346 H360 0.951 . S
C347 C343 1.383 . S
C347 C346 1.367 . S
C347 H361 0.950 . S
C348 C345 1.481 . S
C348 C349 1.297 . S
C348 H362 0.950 . S
C349 C348 1.297 . S
C349 C350 1.479 . S
C349 H363 0.950 . S
C350 C349 1.479 . S
C350 C351 1.375 . S
C350 C356 1.404 . S
C351 C350 1.375 . S
C351 C352 1.369 . S
C351 H364 0.950 . S
C352 C351 1.369 . S
C352 C353 1.392 . S
C352 H365 0.951 . S
C353 C352 1.392 . S
C353 C355 1.384 . S
H354 C356 0.949 . S
C355 C353 1.384 . S
C355 C356 1.385 . S
C355 H357 0.950 . S
C356 C350 1.404 . S
C356 H354 0.949 . S
C356 C355 1.385 . S
H357 C355 0.950 . S
H358 C342 0.951 . S
H359 C344 0.951 . S
H360 C346 0.951 . S
H361 C347 0.950 . S
H362 C348 0.950 . S
H363 C349 0.950 . S
H364 C351 0.950 . S
H365 C352 0.951 . S
C366 C367 1.386 . S
C366 C368 1.383 . S
C366 H382 0.951 . S
C367 C366 1.386 . S
C367 C371 1.383 . S
C368 C366 1.383 . S
C368 C369 1.402 . S
C368 H383 0.951 . S
C369 C368 1.402 . S
C369 C370 1.375 . S
C369 C372 1.481 . S
C370 C369 1.375 . S
C370 C371 1.367 . S
C370 H384 0.951 . S
C371 C367 1.383 . S
C371 C370 1.367 . S
C371 H385 0.950 . S
C372 C369 1.481 . S
C372 C373 1.297 1_556 S
C372 H386 0.950 1_556 S
C373 C372 1.297 1_554 S
C373 C374 1.479 1_655 S
C373 H387 0.950 . S
C374 C373 1.479 1_455 S
C374 C375 1.375 . S
C374 C380 1.404 . S
C375 C374 1.375 . S
C375 C376 1.369 . S
C375 H388 0.950 . S
C376 C375 1.369 . S
C376 C377 1.392 . S
C376 H389 0.951 . S
C377 C376 1.392 . S
C377 C379 1.384 . S
H378 C380 0.949 . S
C379 C377 1.384 . S
C379 C380 1.385 . S
C379 H381 0.950 . S
C380 C374 1.404 . S
C380 H378 0.949 . S
C380 C379 1.385 . S
H381 C379 0.950 . S
H382 C366 0.951 . S
H383 C368 0.951 . S
H384 C370 0.951 . S
H385 C371 0.950 . S
H386 C372 0.950 1_554 S
H387 C373 0.950 . S
H388 C375 0.950 . S
H389 C376 0.951 . S
C390 C391 1.386 . S
C390 C392 1.383 . S
C390 H406 0.951 . S
C391 C390 1.386 . S
C391 C395 1.383 . S
C392 C390 1.383 . S
C392 C393 1.402 . S
C392 H407 0.951 . S
C393 C392 1.402 . S
C393 C394 1.375 . S
C393 C396 1.481 . S
C394 C393 1.375 . S
C394 C395 1.367 . S
C394 H408 0.951 . S
C395 C391 1.383 . S
C395 C394 1.367 . S
C395 H409 0.950 . S
C396 C393 1.481 . S
C396 C397 1.297 1_545 S
C396 H410 0.950 . S
C397 C396 1.297 1_565 S
C397 C398 1.479 . S
C397 H411 0.950 . S
C398 C397 1.479 . S
C398 C399 1.375 . S
C398 C404 1.404 . S
C399 C398 1.375 . S
C399 C400 1.369 . S
C399 H412 0.950 . S
C400 C399 1.369 . S
C400 C401 1.392 . S
C400 H413 0.951 . S
C401 C400 1.392 . S
C401 C403 1.384 . S
H402 C404 0.949 . S
C403 C401 1.384 . S
C403 C404 1.385 . S
C403 H405 0.950 . S
C404 C398 1.404 . S
C404 H402 0.949 . S
C404 C403 1.385 . S
H405 C403 0.950 . S
H406 C390 0.951 . S
H407 C392 0.951 . S
H408 C394 0.951 . S
H409 C395 0.950 . S
H410 C396 0.950 . S
H411 C397 0.950 . S
H412 C399 0.950 . S
H413 C400 0.951 . S
C414 C415 1.386 . S
C414 C416 1.383 . S
C414 H430 0.951 . S
C415 C414 1.386 . S
C415 C419 1.383 . S
C416 C414 1.383 . S
C416 C417 1.402 . S
C416 H431 0.951 . S
C417 C416 1.402 . S
C417 C418 1.375 . S
C417 C420 1.481 1_554 S
C418 C417 1.375 . S
C418 C419 1.367 . S
C418 H432 0.951 1_554 S
C419 C415 1.383 . S
C419 C418 1.367 . S
C419 H433 0.950 . S
C420 C417 1.481 1_556 S
C420 C421 1.297 . S
C420 H434 0.950 . S
C421 C420 1.297 . S
C421 C422 1.479 . S
C421 H435 0.950 1_556 S
C422 C421 1.479 . S
C422 C423 1.375 . S
C422 C428 1.404 . S
C423 C422 1.375 . S
C423 C424 1.369 . S
C423 H436 0.950 . S
C424 C423 1.369 . S
C424 C425 1.392 . S
C424 H437 0.951 . S
C425 C424 1.392 . S
C425 C427 1.384 . S
H426 C428 0.949 . S
C427 C425 1.384 . S
C427 C428 1.385 . S
C427 H429 0.950 . S
C428 C422 1.404 . S
C428 H426 0.949 . S
C428 C427 1.385 . S
H429 C427 0.950 . S
H430 C414 0.951 . S
H431 C416 0.951 . S
H432 C418 0.951 1_556 S
H433 C419 0.950 . S
H434 C420 0.950 . S
H435 C421 0.950 1_554 S
H436 C423 0.950 . S
H437 C424 0.951 . S
C438 C439 1.386 . S
C438 C440 1.383 . S
C438 H454 0.951 . S
C439 C438 1.386 . S
C439 C443 1.383 . S
C440 C438 1.383 . S
C440 C441 1.402 . S
C440 H455 0.951 . S
C441 C440 1.402 . S
C441 C442 1.375 . S
C441 C444 1.481 . S
C442 C441 1.375 . S
C442 C443 1.367 . S
C442 H456 0.951 . S
C443 C439 1.383 . S
C443 C442 1.367 . S
C443 H457 0.950 . S
C444 C441 1.481 . S
C444 C445 1.298 . S
C444 H458 0.950 1_655 S
C445 C444 1.298 . S
C445 C446 1.474 1_655 S
C445 H459 0.955 . S
C446 C445 1.474 1_455 S
C446 C447 1.375 . S
C446 C452 1.404 . S
C447 C446 1.375 . S
C447 C448 1.369 . S
C447 H460 0.950 . S
C448 C447 1.369 . S
C448 C449 1.392 . S
C448 H461 0.951 . S
C449 C448 1.392 . S
C449 C451 1.384 . S
H450 C452 0.949 . S
C451 C449 1.384 . S
C451 C452 1.385 . S
C451 H453 0.950 . S
C452 C446 1.404 . S
C452 H450 0.949 . S
C452 C451 1.385 . S
H453 C451 0.950 . S
H454 C438 0.951 . S
H455 C440 0.951 . S
H456 C442 0.951 . S
H457 C443 0.950 . S
H458 C444 0.950 1_455 S
H459 C445 0.955 . S
H460 C447 0.950 . S
H461 C448 0.951 . S
C462 C463 1.386 . S
C462 C464 1.383 . S
C462 H478 0.951 . S
C463 C462 1.386 . S
C463 C467 1.383 . S
C464 C462 1.383 . S
C464 C465 1.402 . S
C464 H479 0.951 . S
C465 C464 1.402 . S
C465 C466 1.375 . S
C465 C468 1.481 1_554 S
C466 C465 1.375 . S
C466 C467 1.367 . S
C466 H480 0.951 1_554 S
C467 C463 1.383 . S
C467 C466 1.367 . S
C467 H481 0.950 . S
C468 C465 1.481 1_556 S
C468 C469 1.297 1_565 S
C468 H482 0.950 . S
C469 C468 1.297 1_545 S
C469 C470 1.479 . S
C469 H483 0.950 1_556 S
C470 C469 1.479 . S
C470 C471 1.375 . S
C470 C476 1.404 . S
C471 C470 1.375 . S
C471 C472 1.369 . S
C471 H484 0.950 1_556 S
C472 C471 1.369 . S
C472 C473 1.392 . S
C472 H485 0.951 . S
C473 C472 1.392 . S
C473 C475 1.384 . S
H474 C476 0.949 . S
C475 C473 1.384 . S
C475 C476 1.385 . S
C475 H477 0.950 . S
C476 C470 1.404 . S
C476 H474 0.949 . S
C476 C475 1.385 . S
H477 C475 0.950 . S
H478 C462 0.951 . S
H479 C464 0.951 . S
H480 C466 0.951 1_556 S
H481 C467 0.950 . S
H482 C468 0.950 . S
H483 C469 0.950 1_554 S
H484 C471 0.950 1_554 S
H485 C472 0.951 . S
C486 C487 1.386 . S
C486 C488 1.383 . S
C486 H502 0.951 . S
C487 C486 1.386 . S
C487 C491 1.383 . S
C488 C486 1.383 . S
C488 C489 1.402 . S
C488 H503 0.951 . S
C489 C488 1.402 . S
C489 C490 1.375 . S
C489 C492 1.481 . S
C490 C489 1.375 . S
C490 C491 1.367 . S
C490 H504 0.951 . S
C491 C487 1.383 . S
C491 C490 1.367 . S
C491 H505 0.950 . S
C492 C489 1.481 . S
C492 C493 1.297 . S
C492 H506 0.950 . S
C493 C492 1.297 . S
C493 C494 1.479 . S
C493 H507 0.950 . S
C494 C493 1.479 . S
C494 C495 1.375 . S
C494 C500 1.404 . S
C495 C494 1.375 . S
C495 C496 1.369 . S
C495 H508 0.950 . S
C496 C495 1.369 . S
C496 C497 1.392 . S
C496 H509 0.951 . S
C497 C496 1.392 . S
C497 C499 1.384 . S
H498 C500 0.949 . S
C499 C497 1.384 . S
C499 C500 1.385 . S
C499 H501 0.950 . S
C500 C494 1.404 . S
C500 H498 0.949 . S
C500 C499 1.385 . S
H501 C499 0.950 . S
H502 C486 0.951 . S
H503 C488 0.951 . S
H504 C490 0.951 . S
H505 C491 0.950 . S
H506 C492 0.950 . S
H507 C493 0.950 . S
H508 C495 0.950 . S
H509 C496 0.951 . S
C510 C511 1.386 . S
C510 C512 1.383 . S
C510 H526 0.951 . S
C511 C510 1.386 . S
C511 C515 1.383 . S
C512 C510 1.383 . S
C512 C513 1.402 . S
C512 H527 0.951 . S
C513 C512 1.402 . S
C513 C514 1.375 . S
C513 C516 1.481 1_556 S
C514 C513 1.375 . S
C514 C515 1.367 . S
C514 H528 0.951 . S
C515 C511 1.383 . S
C515 C514 1.367 . S
C515 H529 0.950 . S
C516 C513 1.481 1_554 S
C516 C517 1.297 1_655 S
C516 H530 0.950 . S
C517 C516 1.297 1_455 S
C517 C518 1.479 . S
C517 H531 0.950 1_455 S
C518 C517 1.479 . S
C518 C519 1.375 . S
C518 C524 1.404 . S
C519 C518 1.375 . S
C519 C520 1.369 . S
C519 H532 0.950 . S
C520 C519 1.369 . S
C520 C521 1.392 . S
C520 H533 0.951 . S
C521 C520 1.392 . S
C521 C523 1.384 . S
H522 C524 0.949 . S
C523 C521 1.384 . S
C523 C524 1.385 . S
C523 H525 0.950 . S
C524 C518 1.404 . S
C524 H522 0.949 . S
C524 C523 1.385 . S
H525 C523 0.950 . S
H526 C510 0.951 . S
H527 C512 0.951 . S
H528 C514 0.951 . S
H529 C515 0.950 . S
H530 C516 0.950 . S
H531 C517 0.950 1_655 S
H532 C519 0.950 . S
H533 C520 0.951 . S
C534 C535 1.386 . S
C534 C536 1.383 . S
C534 H550 0.951 . S
C535 C534 1.386 . S
C535 C539 1.383 . S
C536 C534 1.383 . S
C536 C537 1.402 . S
C536 H551 0.951 . S
C537 C536 1.402 . S
C537 C538 1.375 . S
C537 C540 1.481 1_565 S
C538 C537 1.375 . S
C538 C539 1.367 . S
C538 H552 0.951 . S
C539 C535 1.383 . S
C539 C538 1.367 . S
C539 H553 0.950 . S
C540 C537 1.481 1_545 S
C540 C541 1.297 . S
C540 H554 0.950 . S
C541 C540 1.297 . S
C541 C542 1.479 . S
C541 H555 0.950 . S
C542 C541 1.479 . S
C542 C543 1.375 . S
C542 C548 1.404 . S
C543 C542 1.375 . S
C543 C544 1.369 . S
C543 H556 0.950 . S
C544 C543 1.369 . S
C544 C545 1.392 . S
C544 H557 0.951 . S
C545 C544 1.392 . S
C545 C547 1.384 . S
H546 C548 0.949 . S
C547 C545 1.384 . S
C547 C548 1.385 . S
C547 H549 0.950 . S
C548 C542 1.404 . S
C548 H546 0.949 . S
C548 C547 1.385 . S
H549 C547 0.950 . S
H550 C534 0.951 . S
H551 C536 0.951 . S
H552 C538 0.951 . S
H553 C539 0.950 . S
H554 C540 0.950 . S
H555 C541 0.950 . S
H556 C543 0.950 . S
H557 C544 0.951 . S
C127 C19 1.412 . S
C137 C104 1.369 . S
C151 C40 1.330 . S
C161 C125 1.423 . S
C175 C20 1.376 . S
C185 C62 1.433 . S
C199 C82 1.350 . S
C209 C41 1.440 . S
C223 C61 1.397 . S
C233 C103 1.287 . S
C247 C83 1.330 . S
C257 C124 1.424 . S
C271 C121 1.338 . S
C281 C3 1.300 . S
C295 C24 1.382 . S
C305 C16 1.380 . S
C319 C37 1.386 . S
C329 C58 1.377 . S
C343 C45 1.338 . S
C353 C66 1.298 . S
C367 C79 1.370 . S
C377 C87 1.359 . S
C391 C108 1.428 . S
C401 C100 1.451 . S
C415 C46 1.240 . S
C425 C67 1.096 . S
C439 C70 1.191 . S
C449 C88 1.174 . S
C463 C91 1.217 . S
C473 C109 1.142 . S
C487 C112 1.244 . S
C497 C4 1.082 . S
C511 C25 1.246 . S
C521 C7 1.081 . S
C535 C49 1.129 . S
C545 C28 1.281 . S
