# Generated by pormake.
# Topology atn, (4)-cn, num edge types: 1
# Building blocks:
#     Node 0, Type 0, BuildingBlock: CEKHIL_clean_sbu_0, # of connection points: 4
#     Node 1, Type 0, BuildingBlock: CEKHIL_clean_sbu_0, # of connection points: 4
#     Node 2, Type 0, BuildingBlock: CEKHIL_clean_sbu_0, # of connection points: 4
#     Node 3, Type 0, BuildingBlock: CEKHIL_clean_sbu_0, # of connection points: 4
#     Node 4, Type 0, BuildingBlock: CEKHIL_clean_sbu_0, # of connection points: 4
#     Node 5, Type 0, BuildingBlock: CEKHIL_clean_sbu_0, # of connection points: 4
#     Node 6, Type 0, BuildingBlock: CEKHIL_clean_sbu_0, # of connection points: 4
#     Node 7, Type 0, BuildingBlock: CEKHIL_clean_sbu_0, # of connection points: 4
#     Node 8, Type 0, BuildingBlock: CEKHIL_clean_sbu_0, # of connection points: 4
#     Node 9, Type 0, BuildingBlock: CEKHIL_clean_sbu_0, # of connection points: 4
#     Node 10, Type 0, BuildingBlock: CEKHIL_clean_sbu_0, # of connection points: 4
#     Node 11, Type 0, BuildingBlock: CEKHIL_clean_sbu_0, # of connection points: 4
#     Node 12, Type 0, BuildingBlock: CEKHIL_clean_sbu_0, # of connection points: 4
#     Node 13, Type 0, BuildingBlock: CEKHIL_clean_sbu_0, # of connection points: 4
#     Node 14, Type 0, BuildingBlock: CEKHIL_clean_sbu_0, # of connection points: 4
#     Node 15, Type 0, BuildingBlock: CEKHIL_clean_sbu_0, # of connection points: 4
#     Edge 16, Type (0, 0), BuildingBlock: EZIPEK_clean_linker_0, # of connection points: 2
#     Edge 17, Type (0, 0), BuildingBlock: EZIPEK_clean_linker_0, # of connection points: 2
#     Edge 18, Type (0, 0), BuildingBlock: EZIPEK_clean_linker_0, # of connection points: 2
#     Edge 19, Type (0, 0), BuildingBlock: EZIPEK_clean_linker_0, # of connection points: 2
#     Edge 20, Type (0, 0), BuildingBlock: EZIPEK_clean_linker_0, # of connection points: 2
#     Edge 21, Type (0, 0), BuildingBlock: EZIPEK_clean_linker_0, # of connection points: 2
#     Edge 22, Type (0, 0), BuildingBlock: EZIPEK_clean_linker_0, # of connection points: 2
#     Edge 23, Type (0, 0), BuildingBlock: EZIPEK_clean_linker_0, # of connection points: 2
#     Edge 24, Type (0, 0), BuildingBlock: EZIPEK_clean_linker_0, # of connection points: 2
#     Edge 25, Type (0, 0), BuildingBlock: EZIPEK_clean_linker_0, # of connection points: 2
#     Edge 26, Type (0, 0), BuildingBlock: EZIPEK_clean_linker_0, # of connection points: 2
#     Edge 27, Type (0, 0), BuildingBlock: EZIPEK_clean_linker_0, # of connection points: 2
#     Edge 28, Type (0, 0), BuildingBlock: EZIPEK_clean_linker_0, # of connection points: 2
#     Edge 29, Type (0, 0), BuildingBlock: EZIPEK_clean_linker_0, # of connection points: 2
#     Edge 30, Type (0, 0), BuildingBlock: EZIPEK_clean_linker_0, # of connection points: 2
#     Edge 31, Type (0, 0), BuildingBlock: EZIPEK_clean_linker_0, # of connection points: 2
#     Edge 32, Type (0, 0), BuildingBlock: EZIPEK_clean_linker_0, # of connection points: 2
#     Edge 33, Type (0, 0), BuildingBlock: EZIPEK_clean_linker_0, # of connection points: 2
#     Edge 34, Type (0, 0), BuildingBlock: EZIPEK_clean_linker_0, # of connection points: 2
#     Edge 35, Type (0, 0), BuildingBlock: EZIPEK_clean_linker_0, # of connection points: 2
#     Edge 36, Type (0, 0), BuildingBlock: EZIPEK_clean_linker_0, # of connection points: 2
#     Edge 37, Type (0, 0), BuildingBlock: EZIPEK_clean_linker_0, # of connection points: 2
#     Edge 38, Type (0, 0), BuildingBlock: EZIPEK_clean_linker_0, # of connection points: 2
#     Edge 39, Type (0, 0), BuildingBlock: EZIPEK_clean_linker_0, # of connection points: 2
#     Edge 40, Type (0, 0), BuildingBlock: EZIPEK_clean_linker_0, # of connection points: 2
#     Edge 41, Type (0, 0), BuildingBlock: EZIPEK_clean_linker_0, # of connection points: 2
#     Edge 42, Type (0, 0), BuildingBlock: EZIPEK_clean_linker_0, # of connection points: 2
#     Edge 43, Type (0, 0), BuildingBlock: EZIPEK_clean_linker_0, # of connection points: 2
#     Edge 44, Type (0, 0), BuildingBlock: EZIPEK_clean_linker_0, # of connection points: 2
#     Edge 45, Type (0, 0), BuildingBlock: EZIPEK_clean_linker_0, # of connection points: 2
#     Edge 46, Type (0, 0), BuildingBlock: EZIPEK_clean_linker_0, # of connection points: 2
#     Edge 47, Type (0, 0), BuildingBlock: EZIPEK_clean_linker_0, # of connection points: 2
# Relax obj value: 0.034
# Max RMSD: 0.063
# Mean RMSD: 0.063
data_MOF--net-atn--node1-CEKHIL_clean_sbu_0--edge1-EZIPEK_clean_linker_0
_symmetry_space_group_name_H-M    P1
_symmetry_Int_Tables_number       1
_symmetry_cell_setting            triclinic
loop_
_symmetry_equiv_pos_as_xyz
'x, y, z'
_cell_length_a     43.638614
_cell_length_b     43.728263
_cell_length_c     19.746777
_cell_angle_alpha  89.949876
_cell_angle_beta   90.01181
_cell_angle_gamma 90.032624
loop_
_atom_site_label
_atom_site_type_symbol
_atom_site_fract_x
_atom_site_fract_y
_atom_site_fract_z
_atom_type_partial_charge
Co0 Co 0.20333 0.38725 0.97936 0.0
O1 O 0.179 0.42428 0.97607 0.0
O2 O 0.22763 0.42235 0.00718 0.0
C3 C 0.18837 0.36992 0.87575 0.0
O4 O 0.23693 0.35454 0.98551 0.0
Co5 Co 0.17365 0.3233 0.97735 0.0
O6 O 0.21599 0.30751 0.9887 0.0
C7 C 0.17041 0.35957 0.10111 0.0
C8 C 0.2035 0.43884 0.99469 0.0
C9 C 0.23912 0.3252 0.98949 0.0
O10 O 0.19011 0.37868 0.07661 0.0
O11 O 0.15771 0.33868 0.06563 0.0
O12 O 0.21012 0.39002 0.8814 0.0
O13 O 0.17491 0.36252 0.93164 0.0
Co14 Co 0.62209 0.19495 0.98585 0.0
O15 O 0.58674 0.16861 0.97518 0.0
O16 O 0.58521 0.2164 0.01223 0.0
C17 C 0.64283 0.18348 0.8839 0.0
O18 O 0.65204 0.23052 0.00061 0.0
Co19 Co 0.6886 0.17177 0.98731 0.0
O20 O 0.70058 0.21526 0.98372 0.0
C21 C 0.65129 0.16636 0.11195 0.0
C22 C 0.57053 0.19167 0.99571 0.0
C23 C 0.68089 0.23606 0.99482 0.0
O24 O 0.62851 0.17933 0.08175 0.0
O25 O 0.67671 0.16077 0.08213 0.0
O26 O 0.62143 0.20398 0.88883 0.0
O27 O 0.64994 0.16936 0.93917 0.0
Co28 Co 0.8151 0.62392 0.99122 0.0
O29 O 0.83817 0.58604 0.98906 0.0
O30 O 0.78835 0.5893 0.0082 0.0
C31 C 0.83525 0.64445 0.8947 0.0
O32 O 0.7822 0.65728 0.99301 0.0
Co33 Co 0.84568 0.68598 0.00967 0.0
O34 O 0.8043 0.70358 0.99575 0.0
C35 C 0.84174 0.64625 0.12595 0.0
C36 C 0.81241 0.57213 0.00089 0.0
C37 C 0.78065 0.68666 0.9927 0.0
O38 O 0.82351 0.62863 0.09229 0.0
O39 O 0.85589 0.66878 0.09965 0.0
O40 O 0.81307 0.62463 0.89255 0.0
O41 O 0.84658 0.6492 0.95438 0.0
Co42 Co 0.38722 0.81059 0.98559 0.0
O43 O 0.42566 0.83238 0.97819 0.0
O44 O 0.42103 0.78407 0.01044 0.0
C45 C 0.36844 0.82587 0.88388 0.0
O46 O 0.3524 0.77963 0.99671 0.0
Co47 Co 0.32508 0.84461 0.98875 0.0
O48 O 0.30678 0.80318 0.98638 0.0
C49 C 0.36181 0.84111 0.11371 0.0
C50 C 0.4388 0.80707 0.99629 0.0
C51 C 0.32292 0.77915 0.9937 0.0
O52 O 0.3819 0.82437 0.08326 0.0
O53 O 0.33874 0.85306 0.08381 0.0
O54 O 0.38747 0.80315 0.88784 0.0
O55 O 0.36333 0.84028 0.93986 0.0
Co56 Co 0.19893 0.62344 0.0056 0.0
O57 O 0.17588 0.58562 0.00965 0.0
O58 O 0.22542 0.58883 0.98672 0.0
C59 C 0.18037 0.64329 0.10386 0.0
O60 O 0.23137 0.65723 0.00122 0.0
Co61 Co 0.1666 0.68524 0.99067 0.0
O62 O 0.20852 0.70299 0.98961 0.0
C63 C 0.16937 0.64548 0.87371 0.0
C64 C 0.20147 0.57174 0.99669 0.0
C65 C 0.23238 0.68653 0.99539 0.0
O66 O 0.18891 0.62852 0.90536 0.0
O67 O 0.15479 0.66728 0.90191 0.0
O68 O 0.2028 0.6238 0.10402 0.0
O69 O 0.168 0.64822 0.04527 0.0
Co70 Co 0.38625 0.19239 0.01519 0.0
O71 O 0.42197 0.1664 0.0232 0.0
O72 O 0.42248 0.21414 0.98572 0.0
C73 C 0.36798 0.18014 0.1184 0.0
O74 O 0.35569 0.22778 0.00232 0.0
Co75 Co 0.31952 0.16982 0.0218 0.0
O76 O 0.30826 0.21326 0.03225 0.0
C77 C 0.35432 0.16418 0.89302 0.0
C78 C 0.43771 0.18968 0.00176 0.0
C79 C 0.32737 0.23379 0.01517 0.0
O80 O 0.3781 0.17639 0.9208 0.0
O81 O 0.32925 0.15972 0.92522 0.0
O82 O 0.38868 0.20132 0.11183 0.0
O83 O 0.35951 0.16651 0.0636 0.0
Co84 Co 0.807 0.38773 0.02395 0.0
O85 O 0.83246 0.42392 0.03069 0.0
O86 O 0.78398 0.42373 0.99765 0.0
C87 C 0.82068 0.36854 0.12633 0.0
O88 O 0.77211 0.3564 0.01425 0.0
Co89 Co 0.83304 0.32264 0.02192 0.0
O90 O 0.79027 0.30832 0.01787 0.0
C91 C 0.83792 0.36032 0.89824 0.0
C92 C 0.80857 0.43929 0.01141 0.0
C93 C 0.76823 0.32718 0.01412 0.0
O94 O 0.82157 0.38105 0.9272 0.0
O95 O 0.84551 0.33577 0.92916 0.0
O96 O 0.79942 0.38919 0.12142 0.0
O97 O 0.83423 0.36128 0.0704 0.0
Co98 Co 0.62351 0.80844 0.00595 0.0
O99 O 0.58559 0.83103 0.01246 0.0
O100 O 0.58911 0.78277 0.97983 0.0
C101 C 0.64104 0.82388 0.10802 0.0
O102 O 0.65825 0.77723 0.99537 0.0
Co103 Co 0.68692 0.84171 0.00923 0.0
O104 O 0.70343 0.79978 0.01915 0.0
C105 C 0.65053 0.84011 0.88257 0.0
C106 C 0.57178 0.80609 0.99422 0.0
C107 C 0.68745 0.77622 0.00533 0.0
O108 O 0.63001 0.82282 0.90989 0.0
O109 O 0.67335 0.85146 0.91462 0.0
O110 O 0.62214 0.80102 0.10339 0.0
O111 O 0.64744 0.83737 0.05173 0.0
Co112 Co 0.69884 0.88554 0.47414 0.0
O113 O 0.67491 0.92294 0.47412 0.0
O114 O 0.72391 0.92023 0.50124 0.0
C115 C 0.68098 0.8691 0.37115 0.0
O116 O 0.73222 0.8525 0.47873 0.0
Co117 Co 0.67021 0.82142 0.47065 0.0
O118 O 0.71238 0.80554 0.46383 0.0
C119 C 0.66781 0.8569 0.59585 0.0
C120 C 0.69974 0.93711 0.49228 0.0
C121 C 0.73507 0.82327 0.47315 0.0
O122 O 0.68688 0.8766 0.57143 0.0
O123 O 0.65527 0.83592 0.5604 0.0
O124 O 0.70371 0.88827 0.37547 0.0
O125 O 0.66936 0.86137 0.42864 0.0
Co126 Co 0.12372 0.69688 0.47279 0.0
O127 O 0.08539 0.67483 0.47417 0.0
O128 O 0.09138 0.7226 0.50898 0.0
C129 C 0.13572 0.68329 0.36584 0.0
O130 O 0.15925 0.72774 0.4765 0.0
Co131 Co 0.18572 0.66293 0.45254 0.0
O132 O 0.20404 0.70449 0.45264 0.0
C133 C 0.15505 0.66108 0.58553 0.0
C134 C 0.07307 0.69977 0.49675 0.0
C135 C 0.18857 0.72825 0.46754 0.0
O136 O 0.13517 0.68105 0.56589 0.0
O137 O 0.17471 0.64868 0.54606 0.0
O138 O 0.11721 0.70593 0.3771 0.0
O139 O 0.14457 0.66837 0.41873 0.0
Co140 Co 0.30545 0.12116 0.47914 0.0
O141 O 0.32904 0.08385 0.47013 0.0
O142 O 0.28078 0.08593 0.50415 0.0
C143 C 0.31978 0.14068 0.3775 0.0
O144 O 0.27217 0.1542 0.49054 0.0
Co145 Co 0.3349 0.18484 0.4836 0.0
O146 O 0.29311 0.20116 0.49412 0.0
C147 C 0.33605 0.14705 0.60678 0.0
C148 C 0.30455 0.06939 0.48911 0.0
C149 C 0.26999 0.18355 0.4951 0.0
O150 O 0.32053 0.12615 0.57602 0.0
O151 O 0.34461 0.17165 0.57743 0.0
O152 O 0.29747 0.1211 0.38188 0.0
O153 O 0.33397 0.14664 0.43342 0.0
Co154 Co 0.88615 0.31344 0.48814 0.0
O155 O 0.92314 0.33775 0.48689 0.0
O156 O 0.92062 0.28924 0.51895 0.0
C157 C 0.87062 0.32774 0.38357 0.0
O158 O 0.85294 0.27993 0.49246 0.0
Co159 Co 0.82146 0.3421 0.47897 0.0
O160 O 0.80692 0.29983 0.46592 0.0
C161 C 0.85413 0.3424 0.61045 0.0
C162 C 0.9373 0.31326 0.50675 0.0
C163 C 0.824 0.27713 0.47992 0.0
O164 O 0.87672 0.32779 0.5835 0.0
O165 O 0.83045 0.3506 0.57673 0.0
O166 O 0.89095 0.3064 0.39144 0.0
O167 O 0.86193 0.34118 0.43865 0.0
Co168 Co 0.70043 0.12144 0.52315 0.0
O169 O 0.67714 0.08418 0.53529 0.0
O170 O 0.72427 0.08645 0.49396 0.0
C171 C 0.68945 0.14061 0.62669 0.0
O172 O 0.733 0.15456 0.50566 0.0
Co173 Co 0.67114 0.18525 0.52508 0.0
O174 O 0.71327 0.2014 0.52289 0.0
C175 C 0.66786 0.14863 0.39914 0.0
C176 C 0.70099 0.06987 0.51233 0.0
C177 C 0.73574 0.18384 0.51028 0.0
O178 O 0.68243 0.12682 0.42891 0.0
O179 O 0.66116 0.17356 0.4296 0.0
O180 O 0.71153 0.12103 0.61901 0.0
O181 O 0.67348 0.14665 0.57323 0.0
Co182 Co 0.88887 0.69882 0.52397 0.0
O183 O 0.92622 0.67511 0.52468 0.0
O184 O 0.92278 0.72295 0.48926 0.0
C185 C 0.8759 0.68583 0.63075 0.0
O186 O 0.85488 0.73131 0.51806 0.0
Co187 Co 0.82508 0.66824 0.54393 0.0
O188 O 0.80883 0.71051 0.54135 0.0
C189 C 0.85653 0.66404 0.4118 0.0
C190 C 0.94005 0.69952 0.5033 0.0
C191 C 0.82557 0.73333 0.5258 0.0
O192 O 0.87753 0.68291 0.4311 0.0
O193 O 0.83567 0.65344 0.45086 0.0
O194 O 0.89502 0.70798 0.61949 0.0
O195 O 0.86643 0.67131 0.57789 0.0
Co196 Co 0.31044 0.88535 0.51951 0.0
O197 O 0.33265 0.92366 0.52113 0.0
O198 O 0.28489 0.91851 0.48566 0.0
C199 C 0.3242 0.87157 0.62615 0.0
O200 O 0.2795 0.84993 0.51303 0.0
Co201 Co 0.34461 0.82337 0.53484 0.0
O202 O 0.30298 0.80514 0.53552 0.0
C203 C 0.34534 0.85537 0.40302 0.0
C204 C 0.30784 0.93654 0.49908 0.0
C205 C 0.27912 0.8206 0.52105 0.0
O206 O 0.32607 0.87545 0.42504 0.0
O207 O 0.35768 0.835 0.44084 0.0
O208 O 0.30145 0.8901 0.61613 0.0
O209 O 0.33907 0.86371 0.57242 0.0
Co210 Co 0.12197 0.31512 0.51441 0.0
O211 O 0.08518 0.33959 0.52065 0.0
O212 O 0.0865 0.29093 0.49001 0.0
C213 C 0.14069 0.33022 0.6158 0.0
O214 O 0.15427 0.28134 0.50465 0.0
Co215 Co 0.18702 0.34315 0.51432 0.0
O216 O 0.2015 0.3003 0.522 0.0
C217 C 0.15035 0.34399 0.38834 0.0
C218 C 0.07027 0.31503 0.50391 0.0
C219 C 0.1834 0.27793 0.51174 0.0
O220 O 0.12882 0.3284 0.41704 0.0
O221 O 0.17411 0.35372 0.41963 0.0
O222 O 0.12074 0.30825 0.6121 0.0
O223 O 0.14765 0.3434 0.55933 0.0
C224 C 0.21013 0.52161 0.05646 0.0
C225 C 0.20329 0.53779 0.99584 0.0
C226 C 0.20064 0.4893 0.93371 0.0
C227 C 0.20445 0.47293 0.99542 0.0
N228 N 0.20929 0.47313 0.1169 0.0
N229 N 0.18801 0.53733 0.87866 0.0
C230 C 0.20843 0.48899 0.05722 0.0
C231 C 0.19735 0.52169 0.93501 0.0
N232 N 0.21857 0.53746 0.11313 0.0
N233 N 0.20166 0.474 0.87343 0.0
H234 H 0.18629 0.56112 0.87708 0.0
H235 H 0.1798 0.52668 0.83515 0.0
H236 H 0.20528 0.4505 0.8703 0.0
H237 H 0.20205 0.48483 0.82647 0.0
H238 H 0.22701 0.52711 0.1568 0.0
H239 H 0.21928 0.56129 0.1149 0.0
H240 H 0.20873 0.48349 0.16432 0.0
H241 H 0.20823 0.44932 0.11925 0.0
C242 C 0.48725 0.19367 0.93737 0.0
C243 C 0.47176 0.18907 -0.00027 0.0
C244 C 0.52121 0.18307 0.05809 0.0
C245 C 0.53659 0.19035 0.99699 0.0
N246 N 0.53484 0.20618 0.88008 0.0
N247 N 0.47367 0.18402 0.1215 0.0
C248 C 0.51976 0.19665 0.93701 0.0
C249 C 0.48864 0.18482 0.06067 0.0
N250 N 0.47096 0.194 0.87819 0.0
N251 N 0.53776 0.17398 0.11338 0.0
H252 H 0.44993 0.18556 0.12595 0.0
H253 H 0.48482 0.18444 0.16809 0.0
H254 H 0.56166 0.1732 0.11377 0.0
H255 H 0.52788 0.16499 0.15706 0.0
H256 H 0.48106 0.19403 0.83045 0.0
H257 H 0.44719 0.19157 0.87647 0.0
H258 H 0.52379 0.21453 0.83717 0.0
H259 H 0.55865 0.20788 0.87735 0.0
C260 C 0.79573 0.49057 0.06166 0.0
C261 C 0.80901 0.47324 0.00836 0.0
C262 C 0.82061 0.5206 0.94694 0.0
C263 C 0.81045 0.53807 0.00327 0.0
N264 N 0.79242 0.53962 0.11868 0.0
N265 N 0.83844 0.47162 0.90515 0.0
C266 C 0.79891 0.52305 0.06178 0.0
C267 C 0.8229 0.48824 0.95261 0.0
N268 N 0.78005 0.47599 0.11219 0.0
N269 N 0.82631 0.53476 0.88656 0.0
H270 H 0.83998 0.44783 0.90669 0.0
H271 H 0.85186 0.48156 0.86747 0.0
H272 H 0.82271 0.55808 0.87928 0.0
H273 H 0.83108 0.52303 0.84192 0.0
H274 H 0.76687 0.48741 0.1481 0.0
H275 H 0.77839 0.45224 0.11553 0.0
H276 H 0.7871 0.52975 0.16521 0.0
H277 H 0.79495 0.5633 0.12122 0.0
C278 C 0.52174 0.81148 0.05627 0.0
C279 C 0.53768 0.80399 0.99562 0.0
C280 C 0.48848 0.7934 0.93961 0.0
C281 C 0.47272 0.8044 0.9976 0.0
N282 N 0.47393 0.827 0.10871 0.0
N283 N 0.53627 0.79141 0.87679 0.0
C284 C 0.48925 0.81434 0.05525 0.0
C285 C 0.52108 0.79562 0.93661 0.0
N286 N 0.53754 0.81446 0.11572 0.0
N287 N 0.47228 0.78071 0.88745 0.0
H288 H 0.56 0.79323 0.8723 0.0
H289 H 0.52527 0.78864 0.83041 0.0
H290 H 0.44841 0.77943 0.88714 0.0
H291 H 0.48247 0.76929 0.84707 0.0
H292 H 0.52698 0.81678 0.16271 0.0
H293 H 0.56118 0.81151 0.1193 0.0
H294 H 0.48485 0.83811 0.14862 0.0
H295 H 0.45007 0.8283 0.111 0.0
C296 C 0.6875 0.0217 0.45068 0.0
C297 C 0.70136 0.03603 0.50711 0.0
C298 C 0.71215 0.98562 0.55722 0.0
C299 C 0.70081 0.97126 0.49774 0.0
N300 N 0.68491 0.97639 0.38137 0.0
N301 N 0.73078 0.03222 0.61006 0.0
C302 C 0.69025 0.98953 0.44283 0.0
C303 C 0.71499 0.01814 0.55908 0.0
N304 N 0.67172 0.0388 0.40433 0.0
N305 N 0.71871 0.96838 0.61314 0.0
H306 H 0.73247 0.05595 0.6142 0.0
H307 H 0.7441 0.02044 0.64521 0.0
H308 H 0.71608 0.94469 0.61441 0.0
H309 H 0.72405 0.97773 0.66016 0.0
H310 H 0.65808 0.02922 0.3666 0.0
H311 H 0.67031 0.0626 0.40663 0.0
H312 H 0.67974 0.9887 0.33767 0.0
H313 H 0.68955 0.95348 0.37249 0.0
C314 C 0.99107 0.69248 0.56135 0.0
C315 C 0.97422 0.7014 0.5027 0.0
C316 C 0.02253 0.71523 0.44652 0.0
C317 C 0.03923 0.70258 0.5016 0.0
N318 N 0.03969 0.67579 0.60813 0.0
N319 N 0.97428 0.71715 0.3856 0.0
C320 C 0.02357 0.69015 0.55798 0.0
C321 C 0.99003 0.71194 0.44434 0.0
N322 N 0.97627 0.68784 0.62151 0.0
N323 N 0.03773 0.73044 0.3962 0.0
H324 H 0.95066 0.71417 0.38131 0.0
H325 H 0.98489 0.72166 0.33943 0.0
H326 H 0.0615 0.73284 0.3954 0.0
H327 H 0.02668 0.74293 0.3585 0.0
H328 H 0.98765 0.68433 0.66722 0.0
H329 H 0.95276 0.69075 0.62758 0.0
H330 H 0.02935 0.66294 0.64624 0.0
H331 H 0.06359 0.67495 0.60904 0.0
C332 C 0.31033 0.02028 0.5539 0.0
C333 C 0.30376 0.03541 0.49212 0.0
C334 C 0.30035 0.98575 0.43374 0.0
C335 C 0.30519 0.97055 0.49638 0.0
N336 N 0.30893 0.97311 0.61827 0.0
N337 N 0.28816 0.03315 0.3752 0.0
C338 C 0.30861 0.98778 0.55708 0.0
C339 C 0.29743 0.01828 0.43259 0.0
N340 N 0.31898 0.03699 0.60925 0.0
N341 N 0.29996 0.96922 0.375 0.0
H342 H 0.28638 0.0569 0.37221 0.0
H343 H 0.28004 0.022 0.33224 0.0
H344 H 0.30202 0.94546 0.37396 0.0
H345 H 0.29996 0.97907 0.327 0.0
H346 H 0.32771 0.02729 0.65338 0.0
H347 H 0.31955 0.06084 0.60947 0.0
H348 H 0.30802 0.98442 0.66459 0.0
H349 H 0.30724 0.94946 0.62309 0.0
C350 C 0.01971 0.30371 0.44756 0.0
C351 C 0.03616 0.31402 0.50521 0.0
C352 C 0.98751 0.32462 0.56374 0.0
C353 C 0.97127 0.3121 0.50819 0.0
N354 N 0.97168 0.28504 0.40176 0.0
N355 N 0.03583 0.32812 0.62359 0.0
C356 C 0.98733 0.30008 0.45161 0.0
C357 C 0.0201 0.32291 0.56481 0.0
N358 N 0.03478 0.29897 0.38777 0.0
N359 N 0.9718 0.33834 0.61532 0.0
H360 H 0.05954 0.32604 0.62756 0.0
H361 H 0.0252 0.33154 0.67017 0.0
H362 H 0.94792 0.33874 0.61776 0.0
H363 H 0.98238 0.35112 0.65319 0.0
H364 H 0.02366 0.29467 0.34211 0.0
H365 H 0.05832 0.3022 0.38213 0.0
H366 H 0.98239 0.27284 0.36317 0.0
H367 H 0.94792 0.28255 0.40192 0.0
C368 C 0.2798 0.29516 0.9314 0.0
C369 C 0.26968 0.31041 0.99057 0.0
C370 C 0.31041 0.28533 0.05519 0.0
C371 C 0.31471 0.26464 0.00101 0.0
N372 N 0.30585 0.25091 0.88464 0.0
N373 N 0.27616 0.32166 0.10904 0.0
C374 C 0.30053 0.27024 0.93766 0.0
C375 C 0.28561 0.30643 0.05247 0.0
N376 N 0.26957 0.30473 0.86959 0.0
N377 N 0.33041 0.28503 0.10818 0.0
H378 H 0.25869 0.33795 0.10783 0.0
H379 H 0.28464 0.31708 0.15731 0.0
H380 H 0.35004 0.27142 0.10723 0.0
H381 H 0.32966 0.30067 0.1479 0.0
H382 H 0.27748 0.29592 0.82386 0.0
H383 H 0.25558 0.32394 0.86437 0.0
H384 H 0.29346 0.25149 0.83959 0.0
H385 H 0.32206 0.23339 0.88701 0.0
C386 C 0.72194 0.30838 0.95112 0.0
C387 C 0.73699 0.31393 0.01345 0.0
C388 C 0.70564 0.275 0.06936 0.0
C389 C 0.69279 0.2674 0.00571 0.0
N390 N 0.67913 0.2839 0.8938 0.0
N391 N 0.7355 0.31144 0.13481 0.0
C392 C 0.6977 0.28661 0.94904 0.0
C393 C 0.72606 0.30024 0.07378 0.0
N394 N 0.73195 0.32262 0.89369 0.0
N395 N 0.69941 0.25717 0.12453 0.0
H396 H 0.74943 0.3308 0.13821 0.0
H397 H 0.72713 0.30376 0.18117 0.0
H398 H 0.68337 0.23945 0.12308 0.0
H399 H 0.71082 0.2592 0.17062 0.0
H400 H 0.72432 0.31697 0.84533 0.0
H401 H 0.74895 0.33942 0.89461 0.0
H402 H 0.68023 0.29841 0.85204 0.0
H403 H 0.66039 0.26905 0.89358 0.0
C404 C 0.74685 0.72281 0.93027 0.0
C405 C 0.75056 0.70232 0.98524 0.0
C406 C 0.70405 0.72307 0.03826 0.0
C407 C 0.70469 0.74761 0.99134 0.0
N408 N 0.72476 0.77014 0.88895 0.0
N409 N 0.73108 0.68007 0.08828 0.0
C410 C 0.72522 0.74697 0.9355 0.0
C411 C 0.72826 0.70113 0.03759 0.0
N412 N 0.76398 0.7188 0.87298 0.0
N413 N 0.68045 0.72094 0.08344 0.0
H414 H 0.74683 0.66224 0.08638 0.0
H415 H 0.71839 0.68057 0.13287 0.0
H416 H 0.66245 0.73659 0.08434 0.0
H417 H 0.67715 0.70243 0.11575 0.0
H418 H 0.76078 0.73121 0.82853 0.0
H419 H 0.77951 0.70079 0.86784 0.0
H420 H 0.74133 0.77308 0.85162 0.0
H421 H 0.70831 0.78743 0.88945 0.0
C422 C 0.26628 0.72088 0.06161 0.0
C423 C 0.26194 0.7029 0.00284 0.0
C424 C 0.3061 0.72782 0.9491 0.0
C425 C 0.3062 0.74981 0.00208 0.0
N426 N 0.28792 0.7668 0.11103 0.0
N427 N 0.27886 0.68632 0.89309 0.0
C428 C 0.28702 0.74591 0.05955 0.0
C429 C 0.28262 0.70508 0.94774 0.0
N430 N 0.25059 0.71367 0.11938 0.0
N431 N 0.32814 0.72894 0.90001 0.0
H432 H 0.26334 0.66818 0.89321 0.0
H433 H 0.29036 0.68905 0.84734 0.0
H434 H 0.34538 0.74542 0.89932 0.0
H435 H 0.3309 0.71229 0.86291 0.0
H436 H 0.25422 0.72423 0.1659 0.0
H437 H 0.23595 0.69482 0.12216 0.0
H438 H 0.27211 0.76747 0.15045 0.0
H439 H 0.30385 0.78455 0.11279 0.0
C440 C 0.79331 0.77709 0.56799 0.0
C441 C 0.80952 0.76299 0.51392 0.0
C442 C 0.78188 0.79534 0.43223 0.0
C443 C 0.76514 0.8085 0.4863 0.0
N444 N 0.76144 0.81928 0.60548 0.0
N445 N 0.82499 0.76416 0.39652 0.0
C446 C 0.77328 0.80197 0.55419 0.0
C447 C 0.80592 0.77417 0.44667 0.0
N448 N 0.79581 0.76567 0.63215 0.0
N449 N 0.77381 0.80215 0.36708 0.0
H450 H 0.84239 0.7483 0.40481 0.0
H451 H 0.82528 0.77334 0.34787 0.0
H452 H 0.75741 0.81872 0.35545 0.0
H453 H 0.78228 0.79064 0.32494 0.0
H454 H 0.78185 0.77239 0.6722 0.0
H455 H 0.81056 0.74783 0.64437 0.0
H456 H 0.76849 0.81744 0.6557 0.0
H457 H 0.74667 0.8376 0.5968 0.0
C458 C 0.24176 0.79679 0.44008 0.0
C459 C 0.25048 0.8029 0.50796 0.0
C460 C 0.21094 0.76694 0.54771 0.0
C461 C 0.20615 0.75699 0.48006 0.0
N462 N 0.21974 0.76027 0.36187 0.0
N463 N 0.24547 0.79151 0.6268 0.0
C464 C 0.22209 0.77155 0.42612 0.0
C465 C 0.23537 0.78758 0.56196 0.0
N466 N 0.25278 0.81465 0.38873 0.0
N467 N 0.1927 0.75616 0.59869 0.0
H468 H 0.26313 0.80651 0.63886 0.0
H469 H 0.23806 0.77832 0.66757 0.0
H470 H 0.17525 0.74027 0.59101 0.0
H471 H 0.19314 0.76487 0.64775 0.0
H472 H 0.24499 0.81315 0.33899 0.0
H473 H 0.26773 0.83289 0.39677 0.0
H474 H 0.23343 0.76755 0.32178 0.0
H475 H 0.20579 0.74177 0.34982 0.0
C476 C 0.22199 0.20274 0.55203 0.0
C477 C 0.2397 0.19883 0.49262 0.0
C478 C 0.21424 0.24241 0.4394 0.0
C479 C 0.19759 0.24749 0.50005 0.0
N480 N 0.17707 0.22618 0.60294 0.0
N481 N 0.24422 0.20671 0.37274 0.0
C482 C 0.19854 0.22545 0.5528 0.0
C483 C 0.23276 0.2159 0.43374 0.0
N484 N 0.22857 0.18587 0.60836 0.0
N485 N 0.2135 0.26359 0.38853 0.0
H486 H 0.25691 0.18659 0.36784 0.0
H487 H 0.23837 0.21691 0.32685 0.0
H488 H 0.19988 0.28314 0.39066 0.0
H489 H 0.22777 0.26276 0.34629 0.0
H490 H 0.21885 0.19007 0.65562 0.0
H491 H 0.24493 0.16846 0.60806 0.0
H492 H 0.17546 0.20962 0.6407 0.0
H493 H 0.15874 0.24146 0.60182 0.0
C494 C 0.7919 0.23674 0.42464 0.0
C495 C 0.80877 0.24658 0.48229 0.0
C496 C 0.78636 0.20446 0.54841 0.0
C497 C 0.7654 0.19895 0.49513 0.0
N498 N 0.74908 0.20731 0.38044 0.0
N499 N 0.8219 0.24008 0.60036 0.0
C500 C 0.76889 0.21394 0.43207 0.0
C501 C 0.80659 0.23003 0.54421 0.0
N502 N 0.79782 0.24954 0.36292 0.0
N503 N 0.78652 0.18537 0.60314 0.0
H504 H 0.83687 0.25863 0.59975 0.0
H505 H 0.81833 0.23127 0.64871 0.0
H506 H 0.77212 0.16635 0.60618 0.0
H507 H 0.80275 0.18647 0.64171 0.0
H508 H 0.78866 0.24168 0.3175 0.0
H509 H 0.81391 0.26687 0.35669 0.0
H510 H 0.74751 0.21992 0.33587 0.0
H511 H 0.73325 0.18943 0.38335 0.0
C512 C 0.15894 0.32299 0.27273 0.0
C513 C 0.15033 0.34813 0.31365 0.0
C514 C 0.15349 0.38197 0.21392 0.0
C515 C 0.16554 0.35732 0.17557 0.0
N516 N 0.18795 0.30679 0.17522 0.0
N517 N 0.14161 0.40225 0.32556 0.0
C518 C 0.17051 0.32848 0.20688 0.0
C519 C 0.1483 0.3779 0.28488 0.0
N520 N 0.15624 0.29376 0.29649 0.0
N521 N 0.14612 0.40879 0.18238 0.0
H522 H 0.13577 0.39971 0.37651 0.0
H523 H 0.14322 0.42491 0.30972 0.0
H524 H 0.14986 0.4125 0.13086 0.0
H525 H 0.13442 0.42655 0.20607 0.0
H526 H 0.15943 0.27459 0.26597 0.0
H527 H 0.14796 0.28851 0.34458 0.0
H528 H 0.19487 0.28659 0.19873 0.0
H529 H 0.19863 0.31053 0.12869 0.0
C530 C 0.67468 0.12876 0.27628 0.0
C531 C 0.65843 0.14621 0.3258 0.0
C532 C 0.63355 0.17503 0.2343 0.0
C533 C 0.64906 0.15716 0.18499 0.0
N534 N 0.67209 0.10794 0.16295 0.0
N535 N 0.61096 0.17345 0.34566 0.0
C536 C 0.66555 0.13098 0.20728 0.0
C537 C 0.63403 0.1652 0.30276 0.0
N538 N 0.69968 0.11141 0.29235 0.0
N539 N 0.62002 0.20224 0.21826 0.0
H540 H 0.60903 0.16438 0.3944 0.0
H541 H 0.59184 0.18576 0.32942 0.0
H542 H 0.6209 0.21221 0.17051 0.0
H543 H 0.61081 0.21662 0.25513 0.0
H544 H 0.71333 0.10123 0.25535 0.0
H545 H 0.70886 0.10906 0.34047 0.0
H546 H 0.68197 0.08734 0.17823 0.0
H547 H 0.66395 0.10789 0.11324 0.0
C548 C 0.82698 0.6704 0.30499 0.0
C549 C 0.85274 0.65772 0.33877 0.0
C550 C 0.86921 0.63293 0.23346 0.0
C551 C 0.84281 0.64472 0.20064 0.0
N552 N 0.79387 0.67 0.20663 0.0
N553 N 0.89613 0.62374 0.33945 0.0
C554 C 0.82074 0.66178 0.23719 0.0
C555 C 0.87326 0.63801 0.30424 0.0
N556 N 0.80936 0.69199 0.33664 0.0
N557 N 0.8907 0.61763 0.19632 0.0
H558 H 0.89999 0.62757 0.3909 0.0
H559 H 0.91005 0.60677 0.31906 0.0
H560 H 0.88739 0.61214 0.14539 0.0
H561 H 0.91215 0.61146 0.21482 0.0
H562 H 0.79267 0.70491 0.31213 0.0
H563 H 0.81308 0.6991 0.38635 0.0
H564 H 0.7754 0.67962 0.23228 0.0
H565 H 0.789 0.66481 0.15634 0.0
C566 C 0.34407 0.82404 0.29695 0.0
C567 C 0.35076 0.85243 0.32878 0.0
C568 C 0.36732 0.87334 0.21901 0.0
C569 C 0.36273 0.84419 0.18873 0.0
N570 N 0.35295 0.79015 0.20233 0.0
N571 N 0.37292 0.90283 0.32271 0.0
C572 C 0.35333 0.819 0.22896 0.0
C573 C 0.36352 0.87681 0.2905 0.0
N574 N 0.32704 0.80244 0.33022 0.0
N575 N 0.37501 0.89772 0.17918 0.0
H576 H 0.37047 0.90607 0.37475 0.0
H577 H 0.3852 0.92022 0.29901 0.0
H578 H 0.37996 0.8955 0.12771 0.0
H579 H 0.37512 0.92024 0.19623 0.0
H580 H 0.31835 0.78294 0.30679 0.0
H581 H 0.31865 0.80542 0.37918 0.0
H582 H 0.34957 0.77059 0.23156 0.0
H583 H 0.35866 0.78531 0.15228 0.0
C584 C 0.1851 0.66838 0.69192 0.0
C585 C 0.15912 0.65554 0.65904 0.0
C586 C 0.14405 0.63001 0.76489 0.0
C587 C 0.16834 0.64514 0.7988 0.0
N588 N 0.20994 0.6815 0.7976 0.0
N589 N 0.1126 0.62597 0.66347 0.0
C590 C 0.18851 0.66482 0.76295 0.0
C591 C 0.1382 0.6368 0.69533 0.0
N592 N 0.20656 0.68413 0.65524 0.0
N593 N 0.12696 0.60891 0.7993 0.0
H594 H 0.10822 0.62982 0.61222 0.0
H595 H 0.0948 0.61476 0.68827 0.0
H596 H 0.13106 0.60357 0.85005 0.0
H597 H 0.11049 0.59504 0.7768 0.0
H598 H 0.22788 0.69045 0.67434 0.0
H599 H 0.20403 0.68951 0.60413 0.0
H600 H 0.22258 0.69927 0.77635 0.0
H601 H 0.21375 0.67903 0.8494 0.0
C602 C 0.32604 0.12942 0.72937 0.0
C603 C 0.34483 0.14391 0.67988 0.0
C604 C 0.37266 0.17026 0.7703 0.0
C605 C 0.35496 0.1547 0.82008 0.0
N606 N 0.32591 0.10855 0.84256 0.0
N607 N 0.39531 0.16499 0.65957 0.0
C608 C 0.33528 0.13064 0.79827 0.0
C609 C 0.37136 0.15982 0.70252 0.0
N610 N 0.29871 0.11609 0.71311 0.0
N611 N 0.38892 0.19614 0.78486 0.0
H612 H 0.39605 0.15569 0.61092 0.0
H613 H 0.41578 0.17497 0.67566 0.0
H614 H 0.38827 0.20733 0.83122 0.0
H615 H 0.40009 0.20875 0.74739 0.0
H616 H 0.28367 0.10796 0.75005 0.0
H617 H 0.28935 0.11572 0.6648 0.0
H618 H 0.31316 0.08959 0.82726 0.0
H619 H 0.33442 0.10707 0.89185 0.0
C620 C 0.8702 0.34194 0.8012 0.0
C621 C 0.84775 0.36299 0.82493 0.0
C622 C 0.84115 0.37852 0.70606 0.0
C623 C 0.85508 0.35081 0.68402 0.0
N624 N 0.87933 0.30309 0.71785 0.0
N625 N 0.81229 0.40395 0.79315 0.0
C626 C 0.86893 0.33168 0.73336 0.0
C627 C 0.83338 0.38229 0.77573 0.0
N628 N 0.89329 0.3323 0.84264 0.0
N629 N 0.83684 0.40202 0.66141 0.0
H630 H 0.80779 0.41124 0.84202 0.0
H631 H 0.79846 0.41469 0.7572 0.0
H632 H 0.84483 0.40129 0.61165 0.0
H633 H 0.82923 0.42359 0.67625 0.0
H634 H 0.91097 0.31822 0.82556 0.0
H635 H 0.89696 0.3419 0.89035 0.0
H636 H 0.88761 0.28819 0.75488 0.0
H637 H 0.87625 0.29277 0.6709 0.0
C638 C 0.6459 0.87364 0.77958 0.0
C639 C 0.65067 0.84421 0.8083 0.0
C640 C 0.67103 0.8257 0.70079 0.0
C641 C 0.6637 0.85415 0.67002 0.0
N642 N 0.64073 0.90413 0.67716 0.0
N643 N 0.66181 0.79052 0.79275 0.0
C644 C 0.65026 0.87796 0.70861 0.0
C645 C 0.66115 0.81968 0.76768 0.0
N646 N 0.63744 0.89742 0.82035 0.0
N647 N 0.68892 0.80494 0.66727 0.0
H648 H 0.65551 0.7849 0.84208 0.0
H649 H 0.66602 0.7714 0.7627 0.0
H650 H 0.69761 0.80871 0.6188 0.0
H651 H 0.69793 0.78544 0.69016 0.0
H652 H 0.63702 0.92011 0.80439 0.0
H653 H 0.63219 0.89453 0.87152 0.0
H654 H 0.62792 0.92104 0.70107 0.0
H655 H 0.64388 0.90805 0.62551 0.0
C656 C 0.87095 0.64423 0.71787 0.0
C657 C 0.86809 0.67561 0.70022 0.0
C658 C 0.85295 0.68738 0.81658 0.0
C659 C 0.85024 0.6556 0.83102 0.0
N660 N 0.85933 0.60345 0.79678 0.0
N661 N 0.8539 0.72705 0.73162 0.0
C662 C 0.85985 0.63393 0.78172 0.0
C663 C 0.85868 0.6972 0.74936 0.0
N664 N 0.88623 0.62464 0.67571 0.0
N665 N 0.85113 0.70845 0.86703 0.0
H666 H 0.85829 0.73574 0.68353 0.0
H667 H 0.84296 0.74275 0.76305 0.0
H668 H 0.84768 0.70241 0.91671 0.0
H669 H 0.85685 0.73142 0.86087 0.0
H670 H 0.89152 0.60213 0.6882 0.0
H671 H 0.89665 0.63163 0.63079 0.0
H672 H 0.86098 0.58628 0.76042 0.0
H673 H 0.85684 0.59534 0.84608 0.0
C674 C 0.36537 0.86859 0.71536 0.0
C675 C 0.33469 0.8624 0.69496 0.0
C676 C 0.32753 0.83007 0.7949 0.0
C677 C 0.35731 0.83767 0.81778 0.0
N678 N 0.40351 0.86732 0.80511 0.0
N679 N 0.28417 0.84463 0.7263 0.0
C680 C 0.37598 0.85784 0.77943 0.0
C681 C 0.31496 0.84561 0.73829 0.0
N682 N 0.38425 0.88513 0.67393 0.0
N683 N 0.31187 0.80665 0.82465 0.0
H684 H 0.27379 0.85529 0.68514 0.0
H685 H 0.26857 0.83538 0.76066 0.0
H686 H 0.3216 0.79325 0.86241 0.0
H687 H 0.2912 0.79813 0.80611 0.0
H688 H 0.40782 0.88689 0.68103 0.0
H689 H 0.3765 0.89653 0.63081 0.0
H690 H 0.41674 0.8846 0.78367 0.0
H691 H 0.41237 0.85924 0.85079 0.0
C692 C 0.17171 0.32065 0.72046 0.0
C693 C 0.15339 0.34072 0.68146 0.0
C694 C 0.15986 0.38084 0.76745 0.0
C695 C 0.17641 0.35989 0.80866 0.0
N696 N 0.19393 0.30846 0.82874 0.0
N697 N 0.12581 0.38826 0.67153 0.0
C698 C 0.18102 0.32938 0.78641 0.0
C699 C 0.14649 0.3705 0.70566 0.0
N700 N 0.18146 0.29367 0.69324 0.0
N701 N 0.1566 0.41054 0.78769 0.0
H702 H 0.11523 0.38137 0.62671 0.0
H703 H 0.11711 0.40875 0.69014 0.0
H704 H 0.16348 0.41834 0.83515 0.0
H705 H 0.14846 0.42787 0.75632 0.0
H706 H 0.19791 0.27964 0.71544 0.0
H707 H 0.17509 0.28667 0.64509 0.0
H708 H 0.19434 0.28502 0.81946 0.0
H709 H 0.20242 0.31452 0.87563 0.0
C710 C 0.67888 0.18923 0.78519 0.0
C711 C 0.65475 0.17304 0.81748 0.0
C712 C 0.65655 0.13361 0.72918 0.0
C713 C 0.67922 0.15084 0.69455 0.0
N714 N 0.71228 0.19472 0.68767 0.0
N715 N 0.61755 0.13228 0.81663 0.0
C716 C 0.6905 0.17857 0.72215 0.0
C717 C 0.64281 0.14583 0.78858 0.0
N718 N 0.69116 0.21435 0.81592 0.0
N719 N 0.64879 0.10514 0.70619 0.0
H720 H 0.60692 0.14046 0.86028 0.0
H721 H 0.60554 0.11444 0.79399 0.0
H722 H 0.65821 0.09554 0.66262 0.0
H723 H 0.63504 0.08991 0.73302 0.0
H724 H 0.71084 0.22561 0.79977 0.0
H725 H 0.68215 0.2233 0.86028 0.0
H726 H 0.71895 0.21693 0.69939 0.0
H727 H 0.72338 0.18586 0.6455 0.0
C728 C 0.84918 0.31648 0.26723 0.0
C729 C 0.85993 0.33803 0.3156 0.0
C730 C 0.84761 0.37984 0.23625 0.0
C731 C 0.83303 0.35843 0.19287 0.0
N732 N 0.81456 0.30731 0.17449 0.0
N733 N 0.87091 0.39064 0.34494 0.0
C734 C 0.83257 0.32702 0.21017 0.0
C735 C 0.85933 0.36987 0.29994 0.0
N736 N 0.85485 0.28592 0.27448 0.0
N737 N 0.8519 0.40932 0.21493 0.0
H738 H 0.88452 0.38455 0.38617 0.0
H739 H 0.86665 0.41403 0.34204 0.0
H740 H 0.84399 0.41753 0.16858 0.0
H741 H 0.86541 0.42519 0.24043 0.0
H742 H 0.85106 0.27019 0.23573 0.0
H743 H 0.86506 0.27609 0.31671 0.0
H744 H 0.81042 0.28478 0.18914 0.0
H745 H 0.80076 0.31474 0.13513 0.0
C746 C 0.65768 0.81558 0.2284 0.0
C747 C 0.65169 0.83592 0.1743 0.0
C748 C 0.66544 0.87879 0.24834 0.0
C749 C 0.66796 0.85845 0.30455 0.0
N750 N 0.64956 0.80972 0.34737 0.0
N751 N 0.64008 0.88814 0.14175 0.0
C752 C 0.65937 0.82736 0.29488 0.0
C753 C 0.6531 0.86795 0.18623 0.0
N754 N 0.66174 0.78508 0.21709 0.0
N755 N 0.67281 0.90891 0.25463 0.0
H756 H 0.62742 0.88149 0.09959 0.0
H757 H 0.63819 0.91147 0.15153 0.0
H758 H 0.67586 0.91933 0.30114 0.0
H759 H 0.67594 0.92329 0.21302 0.0
H760 H 0.66813 0.76999 0.25555 0.0
H761 H 0.66242 0.77576 0.16859 0.0
H762 H 0.64276 0.78702 0.34118 0.0
H763 H 0.64116 0.8195 0.39143 0.0
C764 C 0.15624 0.69549 0.24985 0.0
C765 C 0.14463 0.67375 0.29653 0.0
C766 C 0.15485 0.63233 0.21563 0.0
C767 C 0.16621 0.65412 0.16837 0.0
N768 N 0.17102 0.70704 0.1352 0.0
N769 N 0.12451 0.62315 0.3164 0.0
C770 C 0.16464 0.68587 0.18376 0.0
C771 C 0.14169 0.64258 0.27751 0.0
N772 N 0.16076 0.72516 0.26937 0.0
N773 N 0.15614 0.60178 0.20117 0.0
H774 H 0.11294 0.63014 0.35991 0.0
H775 H 0.11883 0.60097 0.30194 0.0
H776 H 0.16196 0.5932 0.15367 0.0
H777 H 0.15257 0.58476 0.23726 0.0
H778 H 0.17288 0.74108 0.24067 0.0
H779 H 0.1549 0.73357 0.3169 0.0
H780 H 0.16632 0.73028 0.1399 0.0
H781 H 0.17884 0.70096 0.08789 0.0
C782 C 0.33013 0.18209 0.29163 0.0
C783 C 0.33212 0.15088 0.31106 0.0
C784 C 0.36106 0.1398 0.20731 0.0
C785 C 0.3562 0.17032 0.18524 0.0
N786 N 0.33162 0.21903 0.20076 0.0
N787 N 0.34715 0.09904 0.28464 0.0
C788 C 0.33965 0.19111 0.22603 0.0
C789 C 0.34673 0.12939 0.26783 0.0
N790 N 0.31938 0.20333 0.33603 0.0
N791 N 0.38071 0.12125 0.17233 0.0
H792 H 0.33908 0.0906 0.33065 0.0
H793 H 0.35385 0.08189 0.25124 0.0
H794 H 0.39224 0.12827 0.12875 0.0
H795 H 0.38788 0.09994 0.1897 0.0
H796 H 0.32092 0.22685 0.3283 0.0
H797 H 0.31084 0.19731 0.38294 0.0
H798 H 0.31641 0.23388 0.22458 0.0
H799 H 0.338 0.22612 0.15262 0.0
loop_
_geom_bond_atom_site_label_1
_geom_bond_atom_site_label_2
_geom_bond_distance
_geom_bond_site_symmetry_2
_ccdc_geom_bond_type
Co0 O1 2.216 . S
Co0 O2 2.091 1_556 S
Co0 O4 2.004 . S
Co0 O10 2.021 1_556 S
Co0 O12 2.137 . S
Co0 O13 2.244 . S
O1 Co0 2.216 . S
O1 C8 1.245 1_556 S
O2 Co0 2.091 1_554 S
O2 C8 1.262 . S
C3 O12 1.247 . S
C3 O13 1.272 . S
O4 Co0 2.004 . S
O4 C9 1.259 . S
Co5 O6 2.061 1_556 S
Co5 O11 2.049 1_556 S
Co5 O13 2.137 . S
O6 Co5 2.061 1_554 S
O6 C9 1.235 1_554 S
C7 O10 1.238 . S
C7 O11 1.241 . S
C8 O1 1.245 1_554 S
C8 O2 1.262 . S
C9 O4 1.259 . S
C9 O6 1.235 1_556 S
O10 Co0 2.021 1_554 S
O10 C7 1.238 . S
O11 Co5 2.049 1_554 S
O11 C7 1.241 . S
O12 Co0 2.137 . S
O12 C3 1.247 . S
O13 Co0 2.244 . S
O13 C3 1.272 . S
O13 Co5 2.137 . S
Co14 O15 2.216 . S
Co14 O16 2.091 1_556 S
Co14 O18 2.004 . S
Co14 O24 2.021 1_556 S
Co14 O26 2.137 . S
Co14 O27 2.244 . S
O15 Co14 2.216 . S
O15 C22 1.245 1_556 S
O16 Co14 2.091 1_554 S
O16 C22 1.262 . S
C17 O26 1.247 . S
C17 O27 1.272 . S
O18 Co14 2.004 . S
O18 C23 1.259 . S
Co19 O20 2.061 1_556 S
Co19 O25 2.049 1_556 S
Co19 O27 2.137 . S
O20 Co19 2.061 1_554 S
O20 C23 1.235 1_554 S
C21 O24 1.238 . S
C21 O25 1.241 . S
C22 O15 1.245 1_554 S
C22 O16 1.262 . S
C23 O18 1.259 . S
C23 O20 1.235 1_556 S
O24 Co14 2.021 1_554 S
O24 C21 1.238 . S
O25 Co19 2.049 1_554 S
O25 C21 1.241 . S
O26 Co14 2.137 . S
O26 C17 1.247 . S
O27 Co14 2.244 . S
O27 C17 1.272 . S
O27 Co19 2.137 . S
Co28 O29 2.216 . S
Co28 O30 2.091 1_556 S
Co28 O32 2.004 . S
Co28 O38 2.021 1_556 S
Co28 O40 2.137 . S
Co28 O41 2.244 . S
O29 Co28 2.216 . S
O29 C36 1.245 1_556 S
O30 Co28 2.091 1_554 S
O30 C36 1.262 . S
C31 O40 1.247 . S
C31 O41 1.272 . S
O32 Co28 2.004 . S
O32 C37 1.259 . S
Co33 O34 2.061 1_556 S
Co33 O39 2.049 1_556 S
Co33 O41 2.137 . S
O34 Co33 2.061 1_554 S
O34 C37 1.235 1_554 S
C35 O38 1.238 . S
C35 O39 1.241 . S
C36 O29 1.245 1_554 S
C36 O30 1.262 . S
C37 O32 1.259 . S
C37 O34 1.235 1_556 S
O38 Co28 2.021 1_554 S
O38 C35 1.238 . S
O39 Co33 2.049 1_554 S
O39 C35 1.241 . S
O40 Co28 2.137 . S
O40 C31 1.247 . S
O41 Co28 2.244 . S
O41 C31 1.272 . S
O41 Co33 2.137 . S
Co42 O43 2.216 . S
Co42 O44 2.091 1_556 S
Co42 O46 2.004 . S
Co42 O52 2.021 1_556 S
Co42 O54 2.137 . S
Co42 O55 2.244 . S
O43 Co42 2.216 . S
O43 C50 1.245 1_556 S
O44 Co42 2.091 1_554 S
O44 C50 1.262 . S
C45 O54 1.247 . S
C45 O55 1.272 . S
O46 Co42 2.004 . S
O46 C51 1.259 . S
Co47 O48 2.061 1_556 S
Co47 O53 2.049 1_556 S
Co47 O55 2.137 . S
O48 Co47 2.061 1_554 S
O48 C51 1.235 1_554 S
C49 O52 1.238 . S
C49 O53 1.241 . S
C50 O43 1.245 1_554 S
C50 O44 1.262 . S
C51 O46 1.259 . S
C51 O48 1.235 1_556 S
O52 Co42 2.021 1_554 S
O52 C49 1.238 . S
O53 Co47 2.049 1_554 S
O53 C49 1.241 . S
O54 Co42 2.137 . S
O54 C45 1.247 . S
O55 Co42 2.244 . S
O55 C45 1.272 . S
O55 Co47 2.137 . S
Co56 O57 2.216 . S
Co56 O58 2.091 . S
Co56 O60 2.004 . S
Co56 O66 2.021 1_554 S
Co56 O68 2.137 . S
Co56 O69 2.244 . S
O57 Co56 2.216 . S
O57 C64 1.247 . S
O58 Co56 2.091 . S
O58 C64 1.261 . S
C59 O68 1.247 . S
C59 O69 1.272 . S
O60 Co56 2.004 . S
O60 C65 1.259 . S
Co61 O62 2.061 1_554 S
Co61 O67 2.052 1_554 S
Co61 O69 2.135 . S
O62 Co61 2.061 1_556 S
O62 C65 1.235 1_556 S
C63 O66 1.238 . S
C63 O67 1.241 . S
C64 O57 1.247 . S
C64 O58 1.261 . S
C65 O60 1.259 . S
C65 O62 1.235 1_554 S
O66 Co56 2.021 1_556 S
O66 C63 1.238 . S
O67 Co61 2.052 1_556 S
O67 C63 1.241 . S
O68 Co56 2.137 . S
O68 C59 1.247 . S
O69 Co56 2.244 . S
O69 C59 1.272 . S
O69 Co61 2.135 . S
Co70 O71 2.216 . S
Co70 O72 2.091 . S
Co70 O74 2.004 . S
Co70 O80 2.021 1_554 S
Co70 O82 2.137 . S
Co70 O83 2.244 . S
O71 Co70 2.216 . S
O71 C78 1.247 . S
O72 Co70 2.091 . S
O72 C78 1.261 . S
C73 O82 1.247 . S
C73 O83 1.272 . S
O74 Co70 2.004 . S
O74 C79 1.259 . S
Co75 O76 2.061 1_554 S
Co75 O81 2.052 1_554 S
Co75 O83 2.135 . S
O76 Co75 2.061 1_556 S
O76 C79 1.235 1_556 S
C77 O80 1.238 . S
C77 O81 1.241 . S
C78 O71 1.247 . S
C78 O72 1.261 . S
C79 O74 1.259 . S
C79 O76 1.235 1_554 S
O80 Co70 2.021 1_556 S
O80 C77 1.238 . S
O81 Co75 2.052 1_556 S
O81 C77 1.241 . S
O82 Co70 2.137 . S
O82 C73 1.247 . S
O83 Co70 2.244 . S
O83 C73 1.272 . S
O83 Co75 2.135 . S
Co84 O85 2.216 . S
Co84 O86 2.091 . S
Co84 O88 2.004 . S
Co84 O94 2.021 1_554 S
Co84 O96 2.137 . S
Co84 O97 2.244 . S
O85 Co84 2.216 . S
O85 C92 1.247 . S
O86 Co84 2.091 . S
O86 C92 1.261 . S
C87 O96 1.247 . S
C87 O97 1.272 . S
O88 Co84 2.004 . S
O88 C93 1.259 . S
Co89 O90 2.061 1_554 S
Co89 O95 2.052 1_554 S
Co89 O97 2.135 . S
O90 Co89 2.061 1_556 S
O90 C93 1.235 1_556 S
C91 O94 1.238 . S
C91 O95 1.241 . S
C92 O85 1.247 . S
C92 O86 1.261 . S
C93 O88 1.259 . S
C93 O90 1.235 1_554 S
O94 Co84 2.021 1_556 S
O94 C91 1.238 . S
O95 Co89 2.052 1_556 S
O95 C91 1.241 . S
O96 Co84 2.137 . S
O96 C87 1.247 . S
O97 Co84 2.244 . S
O97 C87 1.272 . S
O97 Co89 2.135 . S
Co98 O99 2.216 . S
Co98 O100 2.091 . S
Co98 O102 2.004 . S
Co98 O108 2.021 1_554 S
Co98 O110 2.137 . S
Co98 O111 2.244 . S
O99 Co98 2.216 . S
O99 C106 1.247 . S
O100 Co98 2.091 . S
O100 C106 1.261 . S
C101 O110 1.247 . S
C101 O111 1.272 . S
O102 Co98 2.004 . S
O102 C107 1.259 . S
Co103 O104 2.061 1_554 S
Co103 O109 2.052 1_554 S
Co103 O111 2.135 . S
O104 Co103 2.061 1_556 S
O104 C107 1.235 1_556 S
C105 O108 1.238 . S
C105 O109 1.241 . S
C106 O99 1.247 . S
C106 O100 1.261 . S
C107 O102 1.259 . S
C107 O104 1.235 1_554 S
O108 Co98 2.021 1_556 S
O108 C105 1.238 . S
O109 Co103 2.052 1_556 S
O109 C105 1.241 . S
O110 Co98 2.137 . S
O110 C101 1.247 . S
O111 Co98 2.244 . S
O111 C101 1.272 . S
O111 Co103 2.135 . S
Co112 O113 2.216 . S
Co112 O114 2.091 . S
Co112 O116 2.004 . S
Co112 O122 2.021 . S
Co112 O124 2.137 . S
Co112 O125 2.244 . S
O113 Co112 2.216 . S
O113 C120 1.247 . S
O114 Co112 2.091 . S
O114 C120 1.261 . S
C115 O124 1.247 . S
C115 O125 1.272 . S
O116 Co112 2.004 . S
O116 C121 1.259 . S
Co117 O118 2.061 . S
Co117 O123 2.052 . S
Co117 O125 2.135 . S
O118 Co117 2.061 . S
O118 C121 1.235 . S
C119 O122 1.238 . S
C119 O123 1.241 . S
C120 O113 1.247 . S
C120 O114 1.261 . S
C121 O116 1.259 . S
C121 O118 1.235 . S
O122 Co112 2.021 . S
O122 C119 1.238 . S
O123 Co117 2.052 . S
O123 C119 1.241 . S
O124 Co112 2.137 . S
O124 C115 1.247 . S
O125 Co112 2.244 . S
O125 C115 1.272 . S
O125 Co117 2.135 . S
Co126 O127 2.216 . S
Co126 O128 2.091 . S
Co126 O130 2.004 . S
Co126 O136 2.021 . S
Co126 O138 2.137 . S
Co126 O139 2.244 . S
O127 Co126 2.216 . S
O127 C134 1.247 . S
O128 Co126 2.091 . S
O128 C134 1.261 . S
C129 O138 1.247 . S
C129 O139 1.272 . S
O130 Co126 2.004 . S
O130 C135 1.259 . S
Co131 O132 2.061 . S
Co131 O137 2.052 . S
Co131 O139 2.135 . S
O132 Co131 2.061 . S
O132 C135 1.235 . S
C133 O136 1.238 . S
C133 O137 1.241 . S
C134 O127 1.247 . S
C134 O128 1.261 . S
C135 O130 1.259 . S
C135 O132 1.235 . S
O136 Co126 2.021 . S
O136 C133 1.238 . S
O137 Co131 2.052 . S
O137 C133 1.241 . S
O138 Co126 2.137 . S
O138 C129 1.247 . S
O139 Co126 2.244 . S
O139 C129 1.272 . S
O139 Co131 2.135 . S
Co140 O141 2.216 . S
Co140 O142 2.091 . S
Co140 O144 2.004 . S
Co140 O150 2.021 . S
Co140 O152 2.137 . S
Co140 O153 2.244 . S
O141 Co140 2.216 . S
O141 C148 1.247 . S
O142 Co140 2.091 . S
O142 C148 1.261 . S
C143 O152 1.247 . S
C143 O153 1.272 . S
O144 Co140 2.004 . S
O144 C149 1.259 . S
Co145 O146 2.061 . S
Co145 O151 2.052 . S
Co145 O153 2.135 . S
O146 Co145 2.061 . S
O146 C149 1.235 . S
C147 O150 1.238 . S
C147 O151 1.241 . S
C148 O141 1.247 . S
C148 O142 1.261 . S
C149 O144 1.259 . S
C149 O146 1.235 . S
O150 Co140 2.021 . S
O150 C147 1.238 . S
O151 Co145 2.052 . S
O151 C147 1.241 . S
O152 Co140 2.137 . S
O152 C143 1.247 . S
O153 Co140 2.244 . S
O153 C143 1.272 . S
O153 Co145 2.135 . S
Co154 O155 2.216 . S
Co154 O156 2.091 . S
Co154 O158 2.004 . S
Co154 O164 2.021 . S
Co154 O166 2.137 . S
Co154 O167 2.244 . S
O155 Co154 2.216 . S
O155 C162 1.247 . S
O156 Co154 2.091 . S
O156 C162 1.261 . S
C157 O166 1.247 . S
C157 O167 1.272 . S
O158 Co154 2.004 . S
O158 C163 1.259 . S
Co159 O160 2.061 . S
Co159 O165 2.052 . S
Co159 O167 2.135 . S
O160 Co159 2.061 . S
O160 C163 1.235 . S
C161 O164 1.238 . S
C161 O165 1.241 . S
C162 O155 1.247 . S
C162 O156 1.261 . S
C163 O158 1.259 . S
C163 O160 1.235 . S
O164 Co154 2.021 . S
O164 C161 1.238 . S
O165 Co159 2.052 . S
O165 C161 1.241 . S
O166 Co154 2.137 . S
O166 C157 1.247 . S
O167 Co154 2.244 . S
O167 C157 1.272 . S
O167 Co159 2.135 . S
Co168 O169 2.216 . S
Co168 O170 2.091 . S
Co168 O172 2.004 . S
Co168 O178 2.021 . S
Co168 O180 2.137 . S
Co168 O181 2.244 . S
O169 Co168 2.216 . S
O169 C176 1.247 . S
O170 Co168 2.091 . S
O170 C176 1.261 . S
C171 O180 1.247 . S
C171 O181 1.272 . S
O172 Co168 2.004 . S
O172 C177 1.259 . S
Co173 O174 2.061 . S
Co173 O179 2.052 . S
Co173 O181 2.135 . S
O174 Co173 2.061 . S
O174 C177 1.235 . S
C175 O178 1.238 . S
C175 O179 1.241 . S
C176 O169 1.247 . S
C176 O170 1.261 . S
C177 O172 1.259 . S
C177 O174 1.235 . S
O178 Co168 2.021 . S
O178 C175 1.238 . S
O179 Co173 2.052 . S
O179 C175 1.241 . S
O180 Co168 2.137 . S
O180 C171 1.247 . S
O181 Co168 2.244 . S
O181 C171 1.272 . S
O181 Co173 2.135 . S
Co182 O183 2.216 . S
Co182 O184 2.091 . S
Co182 O186 2.004 . S
Co182 O192 2.021 . S
Co182 O194 2.137 . S
Co182 O195 2.244 . S
O183 Co182 2.216 . S
O183 C190 1.247 . S
O184 Co182 2.091 . S
O184 C190 1.261 . S
C185 O194 1.247 . S
C185 O195 1.272 . S
O186 Co182 2.004 . S
O186 C191 1.259 . S
Co187 O188 2.061 . S
Co187 O193 2.052 . S
Co187 O195 2.135 . S
O188 Co187 2.061 . S
O188 C191 1.235 . S
C189 O192 1.238 . S
C189 O193 1.241 . S
C190 O183 1.247 . S
C190 O184 1.261 . S
C191 O186 1.259 . S
C191 O188 1.235 . S
O192 Co182 2.021 . S
O192 C189 1.238 . S
O193 Co187 2.052 . S
O193 C189 1.241 . S
O194 Co182 2.137 . S
O194 C185 1.247 . S
O195 Co182 2.244 . S
O195 C185 1.272 . S
O195 Co187 2.135 . S
Co196 O197 2.216 . S
Co196 O198 2.091 . S
Co196 O200 2.004 . S
Co196 O206 2.021 . S
Co196 O208 2.137 . S
Co196 O209 2.244 . S
O197 Co196 2.216 . S
O197 C204 1.247 . S
O198 Co196 2.091 . S
O198 C204 1.261 . S
C199 O208 1.247 . S
C199 O209 1.272 . S
O200 Co196 2.004 . S
O200 C205 1.259 . S
Co201 O202 2.061 . S
Co201 O207 2.052 . S
Co201 O209 2.135 . S
O202 Co201 2.061 . S
O202 C205 1.235 . S
C203 O206 1.238 . S
C203 O207 1.241 . S
C204 O197 1.247 . S
C204 O198 1.261 . S
C205 O200 1.259 . S
C205 O202 1.235 . S
O206 Co196 2.021 . S
O206 C203 1.238 . S
O207 Co201 2.052 . S
O207 C203 1.241 . S
O208 Co196 2.137 . S
O208 C199 1.247 . S
O209 Co196 2.244 . S
O209 C199 1.272 . S
O209 Co201 2.135 . S
Co210 O211 2.216 . S
Co210 O212 2.091 . S
Co210 O214 2.004 . S
Co210 O220 2.021 . S
Co210 O222 2.137 . S
Co210 O223 2.244 . S
O211 Co210 2.216 . S
O211 C218 1.247 . S
O212 Co210 2.091 . S
O212 C218 1.261 . S
C213 O222 1.247 . S
C213 O223 1.272 . S
O214 Co210 2.004 . S
O214 C219 1.259 . S
Co215 O216 2.061 . S
Co215 O221 2.052 . S
Co215 O223 2.135 . S
O216 Co215 2.061 . S
O216 C219 1.235 . S
C217 O220 1.238 . S
C217 O221 1.241 . S
C218 O211 1.247 . S
C218 O212 1.261 . S
C219 O214 1.259 . S
C219 O216 1.235 . S
O220 Co210 2.021 . S
O220 C217 1.238 . S
O221 Co215 2.052 . S
O221 C217 1.241 . S
O222 Co210 2.137 . S
O222 C213 1.247 . S
O223 Co210 2.244 . S
O223 C213 1.272 . S
O223 Co215 2.135 . S
C224 C225 1.353 1_554 S
C224 C230 1.379 . S
C224 N232 1.356 . S
C225 C224 1.353 1_556 S
C225 C231 1.372 . S
C226 C227 1.363 1_556 S
C226 C231 1.379 . S
C226 N233 1.356 . S
C227 C226 1.363 1_554 S
C227 C230 1.363 . S
N228 C230 1.356 . S
N228 H240 0.984 . S
N228 H241 0.985 . S
N229 C231 1.356 . S
N229 H234 0.984 . S
N229 H235 0.985 . S
C230 C224 1.379 . S
C230 C227 1.363 . S
C230 N228 1.356 . S
C231 C225 1.372 . S
C231 C226 1.379 . S
C231 N229 1.356 . S
N232 C224 1.356 . S
N232 H238 0.984 . S
N232 H239 0.984 . S
N233 C226 1.356 . S
N233 H236 0.984 . S
N233 H237 0.985 . S
H234 N229 0.984 . S
H235 N229 0.985 . S
H236 N233 0.984 . S
H237 N233 0.985 . S
H238 N232 0.984 . S
H239 N232 0.984 . S
H240 N228 0.984 . S
H241 N228 0.985 . S
C242 C243 1.370 . S
C242 C248 1.379 . S
C242 N250 1.356 . S
C243 C242 1.370 . S
C243 C249 1.356 1_556 S
C244 C245 1.363 . S
C244 C249 1.379 . S
C244 N251 1.356 . S
C245 C244 1.363 . S
C245 C248 1.363 1_554 S
N246 C248 1.356 . S
N246 H258 0.984 . S
N246 H259 0.985 . S
N247 C249 1.356 . S
N247 H252 0.984 . S
N247 H253 0.985 . S
C248 C242 1.379 . S
C248 C245 1.363 1_556 S
C248 N246 1.356 . S
C249 C243 1.356 1_554 S
C249 C244 1.379 . S
C249 N247 1.356 . S
N250 C242 1.356 . S
N250 H256 0.984 . S
N250 H257 0.984 . S
N251 C244 1.356 . S
N251 H254 0.984 . S
N251 H255 0.985 . S
H252 N247 0.984 . S
H253 N247 0.985 . S
H254 N251 0.984 . S
H255 N251 0.985 . S
H256 N250 0.984 . S
H257 N250 0.984 . S
H258 N246 0.984 . S
H259 N246 0.985 . S
C260 C261 1.353 1_554 S
C260 C266 1.379 . S
C260 N268 1.356 . S
C261 C260 1.353 1_556 S
C261 C267 1.372 . S
C262 C263 1.363 1_556 S
C262 C267 1.379 . S
C262 N269 1.356 . S
C263 C262 1.363 1_554 S
C263 C266 1.363 . S
N264 C266 1.356 . S
N264 H276 0.984 . S
N264 H277 0.985 . S
N265 C267 1.356 . S
N265 H270 0.984 . S
N265 H271 0.985 . S
C266 C260 1.379 . S
C266 C263 1.363 . S
C266 N264 1.356 . S
C267 C261 1.372 . S
C267 C262 1.379 . S
C267 N265 1.356 . S
N268 C260 1.356 . S
N268 H274 0.984 . S
N268 H275 0.984 . S
N269 C262 1.356 . S
N269 H272 0.984 . S
N269 H273 0.985 . S
H270 N265 0.984 . S
H271 N265 0.985 . S
H272 N269 0.984 . S
H273 N269 0.985 . S
H274 N268 0.984 . S
H275 N268 0.984 . S
H276 N264 0.984 . S
H277 N264 0.985 . S
C278 C279 1.356 1_554 S
C278 C284 1.379 . S
C278 N286 1.356 . S
C279 C278 1.356 1_556 S
C279 C285 1.370 . S
C280 C281 1.363 1_556 S
C280 C285 1.379 . S
C280 N287 1.356 . S
C281 C280 1.363 1_554 S
C281 C284 1.363 . S
N282 C284 1.356 . S
N282 H294 0.984 . S
N282 H295 0.985 . S
N283 C285 1.356 . S
N283 H288 0.984 . S
N283 H289 0.985 . S
C284 C278 1.379 . S
C284 C281 1.363 . S
C284 N282 1.356 . S
C285 C279 1.370 . S
C285 C280 1.379 . S
C285 N283 1.356 . S
N286 C278 1.356 . S
N286 H292 0.984 . S
N286 H293 0.984 . S
N287 C280 1.356 . S
N287 H290 0.984 . S
N287 H291 0.985 . S
H288 N283 0.984 . S
H289 N283 0.985 . S
H290 N287 0.984 . S
H291 N287 0.985 . S
H292 N286 0.984 . S
H293 N286 0.984 . S
H294 N282 0.984 . S
H295 N282 0.985 . S
C296 C297 1.363 . S
C296 C302 1.379 1_545 S
C296 N304 1.356 . S
C297 C296 1.363 . S
C297 C303 1.363 . S
C298 C299 1.363 . S
C298 C303 1.379 1_565 S
C298 N305 1.356 . S
C299 C298 1.363 . S
C299 C302 1.363 . S
N300 C302 1.356 . S
N300 H312 0.984 . S
N300 H313 0.985 . S
N301 C303 1.356 . S
N301 H306 0.984 . S
N301 H307 0.985 . S
C302 C296 1.379 1_565 S
C302 C299 1.363 . S
C302 N300 1.356 . S
C303 C297 1.363 . S
C303 C298 1.379 1_545 S
C303 N301 1.356 . S
N304 C296 1.356 . S
N304 H310 0.984 . S
N304 H311 0.984 . S
N305 C298 1.356 . S
N305 H308 0.984 . S
N305 H309 0.985 . S
H306 N301 0.984 . S
H307 N301 0.985 . S
H308 N305 0.984 . S
H309 N305 0.985 . S
H310 N304 0.984 . S
H311 N304 0.984 . S
H312 N300 0.984 . S
H313 N300 0.985 . S
C314 C315 1.363 . S
C314 C320 1.379 1_655 S
C314 N322 1.356 . S
C315 C314 1.363 . S
C315 C321 1.363 . S
C316 C317 1.363 . S
C316 C321 1.379 1_455 S
C316 N323 1.356 . S
C317 C316 1.363 . S
C317 C320 1.363 . S
N318 C320 1.356 . S
N318 H330 0.984 . S
N318 H331 0.985 . S
N319 C321 1.356 . S
N319 H324 0.984 . S
N319 H325 0.985 . S
C320 C314 1.379 1_455 S
C320 C317 1.363 . S
C320 N318 1.356 . S
C321 C315 1.363 . S
C321 C316 1.379 1_655 S
C321 N319 1.356 . S
N322 C314 1.356 . S
N322 H328 0.984 . S
N322 H329 0.984 . S
N323 C316 1.356 . S
N323 H326 0.984 . S
N323 H327 0.985 . S
H324 N319 0.984 . S
H325 N319 0.985 . S
H326 N323 0.984 . S
H327 N323 0.985 . S
H328 N322 0.984 . S
H329 N322 0.984 . S
H330 N318 0.984 . S
H331 N318 0.985 . S
C332 C333 1.363 . S
C332 C338 1.379 1_545 S
C332 N340 1.356 . S
C333 C332 1.363 . S
C333 C339 1.363 . S
C334 C335 1.363 . S
C334 C339 1.379 1_565 S
C334 N341 1.356 . S
C335 C334 1.363 . S
C335 C338 1.363 . S
N336 C338 1.356 . S
N336 H348 0.984 . S
N336 H349 0.985 . S
N337 C339 1.356 . S
N337 H342 0.984 . S
N337 H343 0.985 . S
C338 C332 1.379 1_565 S
C338 C335 1.363 . S
C338 N336 1.356 . S
C339 C333 1.363 . S
C339 C334 1.379 1_545 S
C339 N337 1.356 . S
N340 C332 1.356 . S
N340 H346 0.984 . S
N340 H347 0.984 . S
N341 C334 1.356 . S
N341 H344 0.984 . S
N341 H345 0.985 . S
H342 N337 0.984 . S
H343 N337 0.985 . S
H344 N341 0.984 . S
H345 N341 0.985 . S
H346 N340 0.984 . S
H347 N340 0.984 . S
H348 N336 0.984 . S
H349 N336 0.985 . S
C350 C351 1.363 . S
C350 C356 1.379 1_455 S
C350 N358 1.356 . S
C351 C350 1.363 . S
C351 C357 1.363 . S
C352 C353 1.363 . S
C352 C357 1.379 1_655 S
C352 N359 1.356 . S
C353 C352 1.363 . S
C353 C356 1.363 . S
N354 C356 1.356 . S
N354 H366 0.984 . S
N354 H367 0.985 . S
N355 C357 1.356 . S
N355 H360 0.984 . S
N355 H361 0.985 . S
C356 C350 1.379 1_655 S
C356 C353 1.363 . S
C356 N354 1.356 . S
C357 C351 1.363 . S
C357 C352 1.379 1_455 S
C357 N355 1.356 . S
N358 C350 1.356 . S
N358 H364 0.984 . S
N358 H365 0.984 . S
N359 C352 1.356 . S
N359 H362 0.984 . S
N359 H363 0.985 . S
H360 N355 0.984 . S
H361 N355 0.985 . S
H362 N359 0.984 . S
H363 N359 0.985 . S
H364 N358 0.984 . S
H365 N358 0.984 . S
H366 N354 0.984 . S
H367 N354 0.985 . S
C368 C369 1.363 . S
C368 C374 1.379 . S
C368 N376 1.356 . S
C369 C368 1.363 . S
C369 C375 1.363 1_556 S
C370 C371 1.363 . S
C370 C375 1.379 . S
C370 N377 1.356 . S
C371 C370 1.363 . S
C371 C374 1.363 1_554 S
N372 C374 1.356 . S
N372 H384 0.984 . S
N372 H385 0.985 . S
N373 C375 1.356 . S
N373 H378 0.984 . S
N373 H379 0.985 . S
C374 C368 1.379 . S
C374 C371 1.363 1_556 S
C374 N372 1.356 . S
C375 C369 1.363 1_554 S
C375 C370 1.379 . S
C375 N373 1.356 . S
N376 C368 1.356 . S
N376 H382 0.984 . S
N376 H383 0.984 . S
N377 C370 1.356 . S
N377 H380 0.984 . S
N377 H381 0.985 . S
H378 N373 0.984 . S
H379 N373 0.985 . S
H380 N377 0.984 . S
H381 N377 0.985 . S
H382 N376 0.984 . S
H383 N376 0.984 . S
H384 N372 0.984 . S
H385 N372 0.985 . S
C386 C387 1.363 1_556 S
C386 C392 1.379 . S
C386 N394 1.356 . S
C387 C386 1.363 1_554 S
C387 C393 1.363 . S
C388 C389 1.363 1_554 S
C388 C393 1.379 . S
C388 N395 1.356 . S
C389 C388 1.363 1_556 S
C389 C392 1.363 . S
N390 C392 1.356 . S
N390 H402 0.984 . S
N390 H403 0.985 . S
N391 C393 1.356 . S
N391 H396 0.984 . S
N391 H397 0.985 . S
C392 C386 1.379 . S
C392 C389 1.363 . S
C392 N390 1.356 . S
C393 C387 1.363 . S
C393 C388 1.379 . S
C393 N391 1.356 . S
N394 C386 1.356 . S
N394 H400 0.984 . S
N394 H401 0.984 . S
N395 C388 1.356 . S
N395 H398 0.984 . S
N395 H399 0.985 . S
H396 N391 0.984 . S
H397 N391 0.985 . S
H398 N395 0.984 . S
H399 N395 0.985 . S
H400 N394 0.984 . S
H401 N394 0.984 . S
H402 N390 0.984 . S
H403 N390 0.985 . S
C404 C405 1.363 . S
C404 C410 1.379 . S
C404 N412 1.356 . S
C405 C404 1.363 . S
C405 C411 1.363 1_556 S
C406 C407 1.363 . S
C406 C411 1.379 . S
C406 N413 1.356 . S
C407 C406 1.363 . S
C407 C410 1.363 1_554 S
N408 C410 1.356 . S
N408 H420 0.984 . S
N408 H421 0.985 . S
N409 C411 1.356 . S
N409 H414 0.984 . S
N409 H415 0.985 . S
C410 C404 1.379 . S
C410 C407 1.363 1_556 S
C410 N408 1.356 . S
C411 C405 1.363 1_554 S
C411 C406 1.379 . S
C411 N409 1.356 . S
N412 C404 1.356 . S
N412 H418 0.984 . S
N412 H419 0.984 . S
N413 C406 1.356 . S
N413 H416 0.984 . S
N413 H417 0.985 . S
H414 N409 0.984 . S
H415 N409 0.985 . S
H416 N413 0.984 . S
H417 N413 0.985 . S
H418 N412 0.984 . S
H419 N412 0.984 . S
H420 N408 0.984 . S
H421 N408 0.985 . S
C422 C423 1.363 . S
C422 C428 1.379 . S
C422 N430 1.356 . S
C423 C422 1.363 . S
C423 C429 1.363 1_554 S
C424 C425 1.363 . S
C424 C429 1.379 . S
C424 N431 1.356 . S
C425 C424 1.363 . S
C425 C428 1.363 1_556 S
N426 C428 1.356 . S
N426 H438 0.984 . S
N426 H439 0.985 . S
N427 C429 1.356 . S
N427 H432 0.984 . S
N427 H433 0.985 . S
C428 C422 1.379 . S
C428 C425 1.363 1_554 S
C428 N426 1.356 . S
C429 C423 1.363 1_556 S
C429 C424 1.379 . S
C429 N427 1.356 . S
N430 C422 1.356 . S
N430 H436 0.984 . S
N430 H437 0.984 . S
N431 C424 1.356 . S
N431 H434 0.984 . S
N431 H435 0.985 . S
H432 N427 0.984 . S
H433 N427 0.985 . S
H434 N431 0.984 . S
H435 N431 0.985 . S
H436 N430 0.984 . S
H437 N430 0.984 . S
H438 N426 0.984 . S
H439 N426 0.985 . S
C440 C441 1.363 . S
C440 C446 1.379 . S
C440 N448 1.356 . S
C441 C440 1.363 . S
C441 C447 1.363 . S
C442 C443 1.363 . S
C442 C447 1.379 . S
C442 N449 1.356 . S
C443 C442 1.363 . S
C443 C446 1.363 . S
N444 C446 1.356 . S
N444 H456 0.984 . S
N444 H457 0.985 . S
N445 C447 1.356 . S
N445 H450 0.984 . S
N445 H451 0.985 . S
C446 C440 1.379 . S
C446 C443 1.363 . S
C446 N444 1.356 . S
C447 C441 1.363 . S
C447 C442 1.379 . S
C447 N445 1.356 . S
N448 C440 1.356 . S
N448 H454 0.984 . S
N448 H455 0.984 . S
N449 C442 1.356 . S
N449 H452 0.984 . S
N449 H453 0.985 . S
H450 N445 0.984 . S
H451 N445 0.985 . S
H452 N449 0.984 . S
H453 N449 0.985 . S
H454 N448 0.984 . S
H455 N448 0.984 . S
H456 N444 0.984 . S
H457 N444 0.985 . S
C458 C459 1.363 . S
C458 C464 1.379 . S
C458 N466 1.356 . S
C459 C458 1.363 . S
C459 C465 1.363 . S
C460 C461 1.363 . S
C460 C465 1.379 . S
C460 N467 1.356 . S
C461 C460 1.363 . S
C461 C464 1.363 . S
N462 C464 1.356 . S
N462 H474 0.984 . S
N462 H475 0.985 . S
N463 C465 1.356 . S
N463 H468 0.984 . S
N463 H469 0.985 . S
C464 C458 1.379 . S
C464 C461 1.363 . S
C464 N462 1.356 . S
C465 C459 1.363 . S
C465 C460 1.379 . S
C465 N463 1.356 . S
N466 C458 1.356 . S
N466 H472 0.984 . S
N466 H473 0.984 . S
N467 C460 1.356 . S
N467 H470 0.984 . S
N467 H471 0.985 . S
H468 N463 0.984 . S
H469 N463 0.985 . S
H470 N467 0.984 . S
H471 N467 0.985 . S
H472 N466 0.984 . S
H473 N466 0.984 . S
H474 N462 0.984 . S
H475 N462 0.985 . S
C476 C477 1.363 . S
C476 C482 1.379 . S
C476 N484 1.356 . S
C477 C476 1.363 . S
C477 C483 1.363 . S
C478 C479 1.363 . S
C478 C483 1.379 . S
C478 N485 1.356 . S
C479 C478 1.363 . S
C479 C482 1.363 . S
N480 C482 1.356 . S
N480 H492 0.984 . S
N480 H493 0.985 . S
N481 C483 1.356 . S
N481 H486 0.984 . S
N481 H487 0.985 . S
C482 C476 1.379 . S
C482 C479 1.363 . S
C482 N480 1.356 . S
C483 C477 1.363 . S
C483 C478 1.379 . S
C483 N481 1.356 . S
N484 C476 1.356 . S
N484 H490 0.984 . S
N484 H491 0.984 . S
N485 C478 1.356 . S
N485 H488 0.984 . S
N485 H489 0.985 . S
H486 N481 0.984 . S
H487 N481 0.985 . S
H488 N485 0.984 . S
H489 N485 0.985 . S
H490 N484 0.984 . S
H491 N484 0.984 . S
H492 N480 0.984 . S
H493 N480 0.985 . S
C494 C495 1.363 . S
C494 C500 1.379 . S
C494 N502 1.356 . S
C495 C494 1.363 . S
C495 C501 1.363 . S
C496 C497 1.363 . S
C496 C501 1.379 . S
C496 N503 1.356 . S
C497 C496 1.363 . S
C497 C500 1.363 . S
N498 C500 1.356 . S
N498 H510 0.984 . S
N498 H511 0.985 . S
N499 C501 1.356 . S
N499 H504 0.984 . S
N499 H505 0.985 . S
C500 C494 1.379 . S
C500 C497 1.363 . S
C500 N498 1.356 . S
C501 C495 1.363 . S
C501 C496 1.379 . S
C501 N499 1.356 . S
N502 C494 1.356 . S
N502 H508 0.984 . S
N502 H509 0.984 . S
N503 C496 1.356 . S
N503 H506 0.984 . S
N503 H507 0.985 . S
H504 N499 0.984 . S
H505 N499 0.985 . S
H506 N503 0.984 . S
H507 N503 0.985 . S
H508 N502 0.984 . S
H509 N502 0.984 . S
H510 N498 0.984 . S
H511 N498 0.985 . S
C512 C513 1.363 . S
C512 C518 1.379 . S
C512 N520 1.356 . S
C513 C512 1.363 . S
C513 C519 1.363 . S
C514 C515 1.363 . S
C514 C519 1.379 . S
C514 N521 1.356 . S
C515 C514 1.363 . S
C515 C518 1.363 . S
N516 C518 1.356 . S
N516 H528 0.984 . S
N516 H529 0.985 . S
N517 C519 1.356 . S
N517 H522 0.984 . S
N517 H523 0.985 . S
C518 C512 1.379 . S
C518 C515 1.363 . S
C518 N516 1.356 . S
C519 C513 1.363 . S
C519 C514 1.379 . S
C519 N517 1.356 . S
N520 C512 1.356 . S
N520 H526 0.984 . S
N520 H527 0.984 . S
N521 C514 1.356 . S
N521 H524 0.984 . S
N521 H525 0.985 . S
H522 N517 0.984 . S
H523 N517 0.985 . S
H524 N521 0.984 . S
H525 N521 0.985 . S
H526 N520 0.984 . S
H527 N520 0.984 . S
H528 N516 0.984 . S
H529 N516 0.985 . S
C530 C531 1.363 . S
C530 C536 1.379 . S
C530 N538 1.356 . S
C531 C530 1.363 . S
C531 C537 1.363 . S
C532 C533 1.363 . S
C532 C537 1.379 . S
C532 N539 1.356 . S
C533 C532 1.363 . S
C533 C536 1.363 . S
N534 C536 1.356 . S
N534 H546 0.984 . S
N534 H547 0.985 . S
N535 C537 1.356 . S
N535 H540 0.984 . S
N535 H541 0.985 . S
C536 C530 1.379 . S
C536 C533 1.363 . S
C536 N534 1.356 . S
C537 C531 1.363 . S
C537 C532 1.379 . S
C537 N535 1.356 . S
N538 C530 1.356 . S
N538 H544 0.984 . S
N538 H545 0.984 . S
N539 C532 1.356 . S
N539 H542 0.984 . S
N539 H543 0.985 . S
H540 N535 0.984 . S
H541 N535 0.985 . S
H542 N539 0.984 . S
H543 N539 0.985 . S
H544 N538 0.984 . S
H545 N538 0.984 . S
H546 N534 0.984 . S
H547 N534 0.985 . S
C548 C549 1.363 . S
C548 C554 1.379 . S
C548 N556 1.356 . S
C549 C548 1.363 . S
C549 C555 1.363 . S
C550 C551 1.363 . S
C550 C555 1.379 . S
C550 N557 1.356 . S
C551 C550 1.363 . S
C551 C554 1.363 . S
N552 C554 1.356 . S
N552 H564 0.984 . S
N552 H565 0.985 . S
N553 C555 1.356 . S
N553 H558 0.984 . S
N553 H559 0.985 . S
C554 C548 1.379 . S
C554 C551 1.363 . S
C554 N552 1.356 . S
C555 C549 1.363 . S
C555 C550 1.379 . S
C555 N553 1.356 . S
N556 C548 1.356 . S
N556 H562 0.984 . S
N556 H563 0.984 . S
N557 C550 1.356 . S
N557 H560 0.984 . S
N557 H561 0.985 . S
H558 N553 0.984 . S
H559 N553 0.985 . S
H560 N557 0.984 . S
H561 N557 0.985 . S
H562 N556 0.984 . S
H563 N556 0.984 . S
H564 N552 0.984 . S
H565 N552 0.985 . S
C566 C567 1.363 . S
C566 C572 1.379 . S
C566 N574 1.356 . S
C567 C566 1.363 . S
C567 C573 1.363 . S
C568 C569 1.363 . S
C568 C573 1.379 . S
C568 N575 1.356 . S
C569 C568 1.363 . S
C569 C572 1.363 . S
N570 C572 1.356 . S
N570 H582 0.984 . S
N570 H583 0.985 . S
N571 C573 1.356 . S
N571 H576 0.984 . S
N571 H577 0.985 . S
C572 C566 1.379 . S
C572 C569 1.363 . S
C572 N570 1.356 . S
C573 C567 1.363 . S
C573 C568 1.379 . S
C573 N571 1.356 . S
N574 C566 1.356 . S
N574 H580 0.984 . S
N574 H581 0.984 . S
N575 C568 1.356 . S
N575 H578 0.984 . S
N575 H579 0.985 . S
H576 N571 0.984 . S
H577 N571 0.985 . S
H578 N575 0.984 . S
H579 N575 0.985 . S
H580 N574 0.984 . S
H581 N574 0.984 . S
H582 N570 0.984 . S
H583 N570 0.985 . S
C584 C585 1.363 . S
C584 C590 1.379 . S
C584 N592 1.356 . S
C585 C584 1.363 . S
C585 C591 1.363 . S
C586 C587 1.363 . S
C586 C591 1.379 . S
C586 N593 1.356 . S
C587 C586 1.363 . S
C587 C590 1.363 . S
N588 C590 1.356 . S
N588 H600 0.984 . S
N588 H601 0.985 . S
N589 C591 1.356 . S
N589 H594 0.984 . S
N589 H595 0.985 . S
C590 C584 1.379 . S
C590 C587 1.363 . S
C590 N588 1.356 . S
C591 C585 1.363 . S
C591 C586 1.379 . S
C591 N589 1.356 . S
N592 C584 1.356 . S
N592 H598 0.984 . S
N592 H599 0.984 . S
N593 C586 1.356 . S
N593 H596 0.984 . S
N593 H597 0.985 . S
H594 N589 0.984 . S
H595 N589 0.985 . S
H596 N593 0.984 . S
H597 N593 0.985 . S
H598 N592 0.984 . S
H599 N592 0.984 . S
H600 N588 0.984 . S
H601 N588 0.985 . S
C602 C603 1.363 . S
C602 C608 1.379 . S
C602 N610 1.356 . S
C603 C602 1.363 . S
C603 C609 1.363 . S
C604 C605 1.363 . S
C604 C609 1.379 . S
C604 N611 1.356 . S
C605 C604 1.363 . S
C605 C608 1.363 . S
N606 C608 1.356 . S
N606 H618 0.984 . S
N606 H619 0.985 . S
N607 C609 1.356 . S
N607 H612 0.984 . S
N607 H613 0.985 . S
C608 C602 1.379 . S
C608 C605 1.363 . S
C608 N606 1.356 . S
C609 C603 1.363 . S
C609 C604 1.379 . S
C609 N607 1.356 . S
N610 C602 1.356 . S
N610 H616 0.984 . S
N610 H617 0.984 . S
N611 C604 1.356 . S
N611 H614 0.984 . S
N611 H615 0.985 . S
H612 N607 0.984 . S
H613 N607 0.985 . S
H614 N611 0.984 . S
H615 N611 0.985 . S
H616 N610 0.984 . S
H617 N610 0.984 . S
H618 N606 0.984 . S
H619 N606 0.985 . S
C620 C621 1.363 . S
C620 C626 1.379 . S
C620 N628 1.356 . S
C621 C620 1.363 . S
C621 C627 1.363 . S
C622 C623 1.363 . S
C622 C627 1.379 . S
C622 N629 1.356 . S
C623 C622 1.363 . S
C623 C626 1.363 . S
N624 C626 1.356 . S
N624 H636 0.984 . S
N624 H637 0.985 . S
N625 C627 1.356 . S
N625 H630 0.984 . S
N625 H631 0.985 . S
C626 C620 1.379 . S
C626 C623 1.363 . S
C626 N624 1.356 . S
C627 C621 1.363 . S
C627 C622 1.379 . S
C627 N625 1.356 . S
N628 C620 1.356 . S
N628 H634 0.984 . S
N628 H635 0.984 . S
N629 C622 1.356 . S
N629 H632 0.984 . S
N629 H633 0.985 . S
H630 N625 0.984 . S
H631 N625 0.985 . S
H632 N629 0.984 . S
H633 N629 0.985 . S
H634 N628 0.984 . S
H635 N628 0.984 . S
H636 N624 0.984 . S
H637 N624 0.985 . S
C638 C639 1.363 . S
C638 C644 1.379 . S
C638 N646 1.356 . S
C639 C638 1.363 . S
C639 C645 1.363 . S
C640 C641 1.363 . S
C640 C645 1.379 . S
C640 N647 1.356 . S
C641 C640 1.363 . S
C641 C644 1.363 . S
N642 C644 1.356 . S
N642 H654 0.984 . S
N642 H655 0.985 . S
N643 C645 1.356 . S
N643 H648 0.984 . S
N643 H649 0.985 . S
C644 C638 1.379 . S
C644 C641 1.363 . S
C644 N642 1.356 . S
C645 C639 1.363 . S
C645 C640 1.379 . S
C645 N643 1.356 . S
N646 C638 1.356 . S
N646 H652 0.984 . S
N646 H653 0.984 . S
N647 C640 1.356 . S
N647 H650 0.984 . S
N647 H651 0.985 . S
H648 N643 0.984 . S
H649 N643 0.985 . S
H650 N647 0.984 . S
H651 N647 0.985 . S
H652 N646 0.984 . S
H653 N646 0.984 . S
H654 N642 0.984 . S
H655 N642 0.985 . S
C656 C657 1.363 . S
C656 C662 1.379 . S
C656 N664 1.356 . S
C657 C656 1.363 . S
C657 C663 1.363 . S
C658 C659 1.363 . S
C658 C663 1.379 . S
C658 N665 1.356 . S
C659 C658 1.363 . S
C659 C662 1.363 . S
N660 C662 1.356 . S
N660 H672 0.984 . S
N660 H673 0.985 . S
N661 C663 1.356 . S
N661 H666 0.984 . S
N661 H667 0.985 . S
C662 C656 1.379 . S
C662 C659 1.363 . S
C662 N660 1.356 . S
C663 C657 1.363 . S
C663 C658 1.379 . S
C663 N661 1.356 . S
N664 C656 1.356 . S
N664 H670 0.984 . S
N664 H671 0.984 . S
N665 C658 1.356 . S
N665 H668 0.984 . S
N665 H669 0.985 . S
H666 N661 0.984 . S
H667 N661 0.985 . S
H668 N665 0.984 . S
H669 N665 0.985 . S
H670 N664 0.984 . S
H671 N664 0.984 . S
H672 N660 0.984 . S
H673 N660 0.985 . S
C674 C675 1.363 . S
C674 C680 1.379 . S
C674 N682 1.356 . S
C675 C674 1.363 . S
C675 C681 1.363 . S
C676 C677 1.363 . S
C676 C681 1.379 . S
C676 N683 1.356 . S
C677 C676 1.363 . S
C677 C680 1.363 . S
N678 C680 1.356 . S
N678 H690 0.984 . S
N678 H691 0.985 . S
N679 C681 1.356 . S
N679 H684 0.984 . S
N679 H685 0.985 . S
C680 C674 1.379 . S
C680 C677 1.363 . S
C680 N678 1.356 . S
C681 C675 1.363 . S
C681 C676 1.379 . S
C681 N679 1.356 . S
N682 C674 1.356 . S
N682 H688 0.984 . S
N682 H689 0.984 . S
N683 C676 1.356 . S
N683 H686 0.984 . S
N683 H687 0.985 . S
H684 N679 0.984 . S
H685 N679 0.985 . S
H686 N683 0.984 . S
H687 N683 0.985 . S
H688 N682 0.984 . S
H689 N682 0.984 . S
H690 N678 0.984 . S
H691 N678 0.985 . S
C692 C693 1.363 . S
C692 C698 1.379 . S
C692 N700 1.356 . S
C693 C692 1.363 . S
C693 C699 1.363 . S
C694 C695 1.363 . S
C694 C699 1.379 . S
C694 N701 1.356 . S
C695 C694 1.363 . S
C695 C698 1.363 . S
N696 C698 1.356 . S
N696 H708 0.984 . S
N696 H709 0.985 . S
N697 C699 1.356 . S
N697 H702 0.984 . S
N697 H703 0.985 . S
C698 C692 1.379 . S
C698 C695 1.363 . S
C698 N696 1.356 . S
C699 C693 1.363 . S
C699 C694 1.379 . S
C699 N697 1.356 . S
N700 C692 1.356 . S
N700 H706 0.984 . S
N700 H707 0.984 . S
N701 C694 1.356 . S
N701 H704 0.984 . S
N701 H705 0.985 . S
H702 N697 0.984 . S
H703 N697 0.985 . S
H704 N701 0.984 . S
H705 N701 0.985 . S
H706 N700 0.984 . S
H707 N700 0.984 . S
H708 N696 0.984 . S
H709 N696 0.985 . S
C710 C711 1.363 . S
C710 C716 1.379 . S
C710 N718 1.356 . S
C711 C710 1.363 . S
C711 C717 1.363 . S
C712 C713 1.363 . S
C712 C717 1.379 . S
C712 N719 1.356 . S
C713 C712 1.363 . S
C713 C716 1.363 . S
N714 C716 1.356 . S
N714 H726 0.984 . S
N714 H727 0.985 . S
N715 C717 1.356 . S
N715 H720 0.984 . S
N715 H721 0.985 . S
C716 C710 1.379 . S
C716 C713 1.363 . S
C716 N714 1.356 . S
C717 C711 1.363 . S
C717 C712 1.379 . S
C717 N715 1.356 . S
N718 C710 1.356 . S
N718 H724 0.984 . S
N718 H725 0.984 . S
N719 C712 1.356 . S
N719 H722 0.984 . S
N719 H723 0.985 . S
H720 N715 0.984 . S
H721 N715 0.985 . S
H722 N719 0.984 . S
H723 N719 0.985 . S
H724 N718 0.984 . S
H725 N718 0.984 . S
H726 N714 0.984 . S
H727 N714 0.985 . S
C728 C729 1.363 . S
C728 C734 1.379 . S
C728 N736 1.356 . S
C729 C728 1.363 . S
C729 C735 1.363 . S
C730 C731 1.363 . S
C730 C735 1.379 . S
C730 N737 1.356 . S
C731 C730 1.363 . S
C731 C734 1.363 . S
N732 C734 1.356 . S
N732 H744 0.984 . S
N732 H745 0.985 . S
N733 C735 1.356 . S
N733 H738 0.984 . S
N733 H739 0.985 . S
C734 C728 1.379 . S
C734 C731 1.363 . S
C734 N732 1.356 . S
C735 C729 1.363 . S
C735 C730 1.379 . S
C735 N733 1.356 . S
N736 C728 1.356 . S
N736 H742 0.984 . S
N736 H743 0.984 . S
N737 C730 1.356 . S
N737 H740 0.984 . S
N737 H741 0.985 . S
H738 N733 0.984 . S
H739 N733 0.985 . S
H740 N737 0.984 . S
H741 N737 0.985 . S
H742 N736 0.984 . S
H743 N736 0.984 . S
H744 N732 0.984 . S
H745 N732 0.985 . S
C746 C747 1.363 . S
C746 C752 1.379 . S
C746 N754 1.356 . S
C747 C746 1.363 . S
C747 C753 1.363 . S
C748 C749 1.363 . S
C748 C753 1.379 . S
C748 N755 1.356 . S
C749 C748 1.363 . S
C749 C752 1.363 . S
N750 C752 1.356 . S
N750 H762 0.984 . S
N750 H763 0.985 . S
N751 C753 1.356 . S
N751 H756 0.984 . S
N751 H757 0.985 . S
C752 C746 1.379 . S
C752 C749 1.363 . S
C752 N750 1.356 . S
C753 C747 1.363 . S
C753 C748 1.379 . S
C753 N751 1.356 . S
N754 C746 1.356 . S
N754 H760 0.984 . S
N754 H761 0.984 . S
N755 C748 1.356 . S
N755 H758 0.984 . S
N755 H759 0.985 . S
H756 N751 0.984 . S
H757 N751 0.985 . S
H758 N755 0.984 . S
H759 N755 0.985 . S
H760 N754 0.984 . S
H761 N754 0.984 . S
H762 N750 0.984 . S
H763 N750 0.985 . S
C764 C765 1.363 . S
C764 C770 1.379 . S
C764 N772 1.356 . S
C765 C764 1.363 . S
C765 C771 1.363 . S
C766 C767 1.363 . S
C766 C771 1.379 . S
C766 N773 1.356 . S
C767 C766 1.363 . S
C767 C770 1.363 . S
N768 C770 1.356 . S
N768 H780 0.984 . S
N768 H781 0.985 . S
N769 C771 1.356 . S
N769 H774 0.984 . S
N769 H775 0.985 . S
C770 C764 1.379 . S
C770 C767 1.363 . S
C770 N768 1.356 . S
C771 C765 1.363 . S
C771 C766 1.379 . S
C771 N769 1.356 . S
N772 C764 1.356 . S
N772 H778 0.984 . S
N772 H779 0.984 . S
N773 C766 1.356 . S
N773 H776 0.984 . S
N773 H777 0.985 . S
H774 N769 0.984 . S
H775 N769 0.985 . S
H776 N773 0.984 . S
H777 N773 0.985 . S
H778 N772 0.984 . S
H779 N772 0.984 . S
H780 N768 0.984 . S
H781 N768 0.985 . S
C782 C783 1.363 . S
C782 C788 1.379 . S
C782 N790 1.356 . S
C783 C782 1.363 . S
C783 C789 1.363 . S
C784 C785 1.363 . S
C784 C789 1.379 . S
C784 N791 1.356 . S
C785 C784 1.363 . S
C785 C788 1.363 . S
N786 C788 1.356 . S
N786 H798 0.984 . S
N786 H799 0.985 . S
N787 C789 1.356 . S
N787 H792 0.984 . S
N787 H793 0.985 . S
C788 C782 1.379 . S
C788 C785 1.363 . S
C788 N786 1.356 . S
C789 C783 1.363 . S
C789 C784 1.379 . S
C789 N787 1.356 . S
N790 C782 1.356 . S
N790 H796 0.984 . S
N790 H797 0.984 . S
N791 C784 1.356 . S
N791 H794 0.984 . S
N791 H795 0.985 . S
H792 N787 0.984 . S
H793 N787 0.985 . S
H794 N791 0.984 . S
H795 N791 0.985 . S
H796 N790 0.984 . S
H797 N790 0.984 . S
H798 N786 0.984 . S
H799 N786 0.985 . S
C225 C64 1.441 1_556 S
C227 C8 1.442 . S
C243 C78 1.441 1_556 S
C245 C22 1.442 . S
C261 C92 1.441 1_556 S
C263 C36 1.442 . S
C279 C106 1.441 1_556 S
C281 C50 1.442 . S
C297 C176 1.442 . S
C299 C120 1.442 . S
C315 C190 1.442 . S
C317 C134 1.442 . S
C333 C148 1.442 . S
C335 C204 1.442 . S
C351 C218 1.442 . S
C353 C162 1.442 . S
C369 C9 1.471 . S
C371 C79 1.471 . S
C387 C93 1.472 . S
C389 C23 1.472 . S
C405 C37 1.471 . S
C407 C107 1.471 . S
C423 C65 1.472 . S
C425 C51 1.472 . S
C441 C191 1.471 . S
C443 C121 1.471 . S
C459 C205 1.472 . S
C461 C135 1.472 . S
C477 C149 1.471 . S
C479 C219 1.471 . S
C495 C163 1.472 . S
C497 C177 1.472 . S
C513 C217 1.419 . S
C515 C7 1.419 . S
C531 C175 1.419 . S
C533 C21 1.419 . S
C549 C189 1.419 . S
C551 C35 1.419 . S
C567 C203 1.419 . S
C569 C49 1.419 . S
C585 C133 1.419 . S
C587 C63 1.419 . S
C603 C147 1.419 . S
C605 C77 1.419 . S
C621 C91 1.419 . S
C623 C161 1.419 . S
C639 C105 1.419 . S
C641 C119 1.419 . S
C657 C185 1.413 . S
C659 C31 1.413 . S
C675 C199 1.413 . S
C677 C45 1.413 . S
C693 C213 1.413 . S
C695 C3 1.413 . S
C711 C17 1.413 . S
C713 C171 1.413 . S
C729 C157 1.413 . S
C731 C87 1.413 . S
C747 C101 1.413 . S
C749 C115 1.413 . S
C765 C129 1.413 . S
C767 C59 1.413 . S
C783 C143 1.413 . S
C785 C73 1.413 . S
