# Generated by pormake.
# Topology sxa, (6)-cn, num edge types: 1
# Building blocks:
#     Node 0, Type 0, BuildingBlock: VOLQOD_clean_sbu_1, # of connection points: 6
#     Node 1, Type 0, BuildingBlock: VOLQOD_clean_sbu_1, # of connection points: 6
#     Node 2, Type 0, BuildingBlock: VOLQOD_clean_sbu_1, # of connection points: 6
#     Node 3, Type 0, BuildingBlock: VOLQOD_clean_sbu_1, # of connection points: 6
#     Edge 4, Type (0, 0), BuildingBlock: UVAHIK_clean_linker_0, # of connection points: 2
#     Edge 5, Type (0, 0), BuildingBlock: UVAHIK_clean_linker_0, # of connection points: 2
#     Edge 6, Type (0, 0), BuildingBlock: UVAHIK_clean_linker_0, # of connection points: 2
#     Edge 7, Type (0, 0), BuildingBlock: UVAHIK_clean_linker_0, # of connection points: 2
#     Edge 8, Type (0, 0), BuildingBlock: UVAHIK_clean_linker_0, # of connection points: 2
#     Edge 9, Type (0, 0), BuildingBlock: UVAHIK_clean_linker_0, # of connection points: 2
#     Edge 10, Type (0, 0), BuildingBlock: UVAHIK_clean_linker_0, # of connection points: 2
#     Edge 11, Type (0, 0), BuildingBlock: UVAHIK_clean_linker_0, # of connection points: 2
#     Edge 12, Type (0, 0), BuildingBlock: UVAHIK_clean_linker_0, # of connection points: 2
#     Edge 13, Type (0, 0), BuildingBlock: UVAHIK_clean_linker_0, # of connection points: 2
#     Edge 14, Type (0, 0), BuildingBlock: UVAHIK_clean_linker_0, # of connection points: 2
#     Edge 15, Type (0, 0), BuildingBlock: UVAHIK_clean_linker_0, # of connection points: 2
# Relax obj value: 0.229
# Max RMSD: 0.203
# Mean RMSD: 0.203
data_MOF--net-sxa--node1-VOLQOD_clean_sbu_1--edge1-UVAHIK_clean_linker_0
_symmetry_space_group_name_H-M    P1
_symmetry_Int_Tables_number       1
_symmetry_cell_setting            triclinic
loop_
_symmetry_equiv_pos_as_xyz
'x, y, z'
_cell_length_a     32.348593
_cell_length_b     38.485696
_cell_length_c     22.417507
_cell_angle_alpha  90.451971
_cell_angle_beta   92.221736
_cell_angle_gamma 90.959733
loop_
_atom_site_label
_atom_site_type_symbol
_atom_site_fract_x
_atom_site_fract_y
_atom_site_fract_z
_atom_type_partial_charge
O0 O 0.96754 0.75103 0.36734 0.0
Zn1 Zn 0.00858 0.74588 0.29966 0.0
O2 O -0.00315 0.7829 0.24323 0.0
Zn3 Zn 0.9716 0.76327 0.17161 0.0
Zn4 Zn 0.95956 0.81555 0.27655 0.0
Zn5 Zn 0.04531 0.80815 0.22223 0.0
O6 O -0.00609 0.78507 0.09776 0.0
O7 O 0.0566 0.79878 0.13672 0.0
O8 O 0.00671 0.69746 0.25686 0.0
O9 O -0.01205 0.71437 0.16543 0.0
O10 O 0.90973 0.7632 0.17653 0.0
O11 O 0.90231 0.8027 0.24806 0.0
O12 O 0.9718 0.86522 0.24991 0.0
O13 O 0.06767 0.7535 0.33308 0.0
O14 O 0.03611 0.85944 0.22123 0.0
O15 O 0.09314 0.79602 0.27752 0.0
C16 C 0.95322 0.7787 0.39065 0.0
C17 C 0.03154 0.79434 0.09189 0.0
C18 C 0.88703 0.78078 0.21031 0.0
C19 C 0.00015 0.69092 0.20116 0.0
C20 C 0.00471 0.8782 0.22889 0.0
C21 C 0.09735 0.77394 0.31939 0.0
O22 O 0.95693 0.80822 0.3654 0.0
O23 O 0.46512 0.25622 0.36259 0.0
Zn24 Zn 0.50507 0.25076 0.29474 0.0
O25 O 0.49412 0.28892 0.24161 0.0
Zn26 Zn 0.46263 0.27367 0.17118 0.0
Zn27 Zn 0.46517 0.32506 0.28188 0.0
Zn28 Zn 0.54452 0.30764 0.21487 0.0
O29 O 0.48867 0.29106 0.09571 0.0
O30 O 0.55339 0.28914 0.13314 0.0
O31 O 0.4978 0.20429 0.24845 0.0
O32 O 0.46597 0.22204 0.16473 0.0
O33 O 0.40259 0.2853 0.17862 0.0
O34 O 0.40583 0.32161 0.25617 0.0
O35 O 0.48545 0.37349 0.25705 0.0
O36 O 0.56455 0.25487 0.32794 0.0
O37 O 0.53998 0.3591 0.20554 0.0
O38 O 0.59164 0.29608 0.27153 0.0
C39 C 0.45364 0.28356 0.39004 0.0
C40 C 0.52754 0.28928 0.08881 0.0
C41 C 0.38504 0.30458 0.21624 0.0
C42 C 0.48114 0.19787 0.19674 0.0
C43 C 0.51522 0.38188 0.22379 0.0
C44 C 0.59501 0.27433 0.31394 0.0
O45 O 0.46156 0.31398 0.37011 0.0
O46 O 0.07487 0.24691 0.75516 0.0
Zn47 Zn 0.01585 0.24075 0.78267 0.0
O48 O 0.00307 0.27761 0.83723 0.0
Zn49 Zn 0.97106 0.26006 0.90132 0.0
Zn50 Zn 0.05366 0.29613 0.87121 0.0
Zn51 Zn 0.97248 0.31412 0.79808 0.0
O52 O 0.91151 0.27325 0.89267 0.0
O53 O 0.9126 0.31113 0.81876 0.0
O54 O 0.00874 0.19305 0.82307 0.0
O55 O 0.97255 0.20846 0.90106 0.0
O56 O -0.00284 0.27419 0.98082 0.0
O57 O 0.06235 0.27466 0.95191 0.0
O58 O 0.04721 0.34726 0.88645 0.0
O59 O 0.97633 0.24695 0.71131 0.0
O60 O -0.00696 0.36189 0.82857 0.0
O61 O 0.96962 0.30463 0.70909 0.0
C62 C 0.10491 0.26698 0.77252 0.0
C63 C 0.89291 0.29369 0.85671 0.0
C64 C 0.03589 0.27242 0.99257 0.0
C65 C -0.01076 0.18524 0.86982 0.0
C66 C 0.02207 0.37001 0.86676 0.0
C67 C 0.96373 0.27452 0.68521 0.0
O68 O 0.10148 0.28774 0.81672 0.0
O69 O 0.57999 0.75624 0.76032 0.0
Zn70 Zn 0.52088 0.74858 0.78476 0.0
O71 O 0.50592 0.78556 0.83854 0.0
Zn72 Zn 0.47315 0.76538 0.89978 0.0
Zn73 Zn 0.555 0.80765 0.87292 0.0
Zn74 Zn 0.4733 0.82056 0.79722 0.0
O75 O 0.41301 0.77507 0.88684 0.0
O76 O 0.41332 0.81549 0.81668 0.0
O77 O 0.51627 0.70025 0.82428 0.0
O78 O 0.47776 0.71424 0.90018 0.0
O79 O 0.49577 0.77918 0.98086 0.0
O80 O 0.56076 0.79296 0.95863 0.0
O81 O 0.54725 0.85919 0.87921 0.0
O82 O 0.48201 0.75293 0.71194 0.0
O83 O 0.49068 0.86986 0.82381 0.0
O84 O 0.47192 0.81017 0.70871 0.0
C85 C 0.60977 0.77599 0.77959 0.0
C86 C 0.39409 0.79581 0.85187 0.0
C87 C 0.53333 0.78593 0.99646 0.0
C88 C 0.49637 0.69166 0.87022 0.0
C89 C 0.52045 0.88035 0.85888 0.0
C90 C 0.46806 0.77983 0.68518 0.0
O91 O 0.60529 0.79698 0.82334 0.0
C92 C 0.05576 0.41421 0.93687 0.0
C93 C 0.02344 0.40506 0.89553 0.0
C94 C 0.05424 0.44472 0.97107 0.0
C95 C 0.00199 0.52973 0.98 0.0
H96 H 0.04106 0.52759 0.1458 0.0
C97 C 0.0218 0.6555 0.1153 0.0
C98 C 0.00847 0.65648 0.17425 0.0
C99 C 0.02505 0.6241 0.08471 0.0
C100 C 0.0297 0.52855 0.09978 0.0
H101 H 0.96459 0.42164 0.85694 0.0
H102 H 0.96185 0.47474 0.91655 0.0
H103 H 0.04318 0.47495 0.08424 0.0
H104 H -0.01002 0.62492 0.24842 0.0
H105 H -0.00484 0.56928 0.1942 0.0
H106 H -0.01236 0.58292 0.99555 0.0
C107 C -0.01134 0.45845 0.92222 0.0
C108 C 0.03139 0.49848 0.06415 0.0
C109 C -0.00976 0.42794 0.88783 0.0
C110 C 0.00036 0.62494 0.20307 0.0
C111 C 0.00329 0.59316 0.17193 0.0
C112 C 0.00024 0.55965 1.0155 0.0
C113 C 0.02031 0.46697 0.96508 0.0
C114 C 0.01787 0.49875 1.00358 0.0
C115 C 0.01464 0.59253 0.11172 0.0
C116 C 0.01456 0.55967 0.07567 0.0
H117 H 0.08192 0.39733 0.94404 0.0
H118 H 0.07964 0.45074 1.00254 0.0
H119 H -0.00847 0.53113 0.93362 0.0
H120 H 0.02908 0.6793 0.09208 0.0
H121 H 0.03523 0.62468 1.03926 0.0
C122 C 0.48431 0.43995 0.19893 0.0
C123 C 0.51792 0.41728 0.19775 0.0
C124 C 0.48388 0.47017 0.16431 0.0
C125 C 0.5297 0.50604 1.02809 0.0
H126 H 0.48092 0.59183 0.07994 0.0
C127 C 0.53201 0.63493 0.89105 0.0
C128 C 0.49696 0.65585 0.89426 0.0
C129 C 0.53529 0.60465 0.92555 0.0
C130 C 0.49422 0.56793 0.0644 0.0
H131 H 0.57864 0.41 0.16202 0.0
H132 H 0.57816 0.46274 0.103 0.0
H133 H 0.48647 0.54332 0.14868 0.0
H134 H 0.43661 0.66002 0.93234 0.0
H135 H 0.4418 0.60724 0.99059 0.0
H136 H 0.53732 0.53076 0.94365 0.0
C137 C 0.55163 0.45679 0.12936 0.0
C138 C 0.49746 0.54009 0.10399 0.0
C139 C 0.55205 0.42666 0.16382 0.0
C140 C 0.46424 0.64466 0.92931 0.0
C141 C 0.46739 0.61455 0.96328 0.0
C142 C 0.52647 0.53394 0.98843 0.0
C143 C 0.51709 0.47847 0.12778 0.0
C144 C 0.515 0.50867 0.08632 0.0
C145 C 0.50351 0.59478 0.96364 0.0
C146 C 0.50829 0.56515 1.00587 0.0
H147 H 0.45736 0.43349 0.2241 0.0
H148 H 0.45664 0.48615 0.16408 0.0
H149 H 0.54285 0.48208 1.01255 0.0
H150 H 0.55787 0.64304 0.86491 0.0
H151 H 0.56355 0.59001 0.92467 0.0
C152 C 0.48759 0.93877 0.87287 0.0
C153 C 0.52071 0.91623 0.88449 0.0
C154 C 0.48448 0.96987 0.9054 0.0
C155 C 0.51703 1.00867 0.05136 0.0
H156 H 0.48038 0.09488 0.98061 0.0
C157 C 0.51337 0.13902 0.18542 0.0
C158 C 0.48213 0.16255 0.16955 0.0
C159 C 0.51792 0.10831 0.15214 0.0
C160 C 0.49005 0.07091 1.00142 0.0
H161 H 0.57773 0.90999 0.93752 0.0
H162 H 0.57229 0.96401 0.99348 0.0
H163 H 0.48959 0.04416 0.91711 0.0
H164 H 0.42957 0.17114 0.10875 0.0
H165 H 0.4365 0.11749 0.05259 0.0
H166 H 0.51694 0.03518 0.13578 0.0
C167 C 0.54837 0.95739 0.95998 0.0
C168 C 0.49549 0.04182 0.96479 0.0
C169 C 0.55163 0.9265 0.92733 0.0
C170 C 0.45427 0.15377 0.12186 0.0
C171 C 0.45853 0.12309 0.08914 0.0
C172 C 0.51132 0.0377 0.0881 0.0
C173 C 0.51426 0.97907 0.95052 0.0
C174 C 0.50904 1.01031 0.98925 0.0
C175 C 0.49111 0.10035 0.10259 0.0
C176 C 0.49759 0.06924 0.06371 0.0
H177 H 0.46312 0.93173 0.84051 0.0
H178 H 0.45774 0.98594 0.89701 0.0
H179 H 0.52692 0.98466 0.07186 0.0
H180 H 0.53555 0.14514 0.22156 0.0
H181 H 0.5435 0.09158 0.16382 0.0
C182 C 0.96793 0.93243 0.19573 0.0
C183 C 0.00467 0.91358 0.20247 0.0
C184 C 0.96635 0.96214 0.1599 0.0
C185 C 0.0325 1.02623 0.08011 0.0
H186 H 0.93342 0.03642 0.97927 0.0
C187 C 0.02297 0.12799 0.89104 0.0
C188 C -0.01179 0.14931 0.893 0.0
C189 C 0.02478 0.09737 0.92466 0.0
C190 C 0.96128 0.03396 1.0072 0.0
H191 H 0.06922 0.91266 0.17928 0.0
H192 H 0.06631 0.96366 0.1168 0.0
H193 H 0.93719 0.98931 0.05128 0.0
H194 H 0.92717 0.15424 0.92843 0.0
H195 H 0.9299 0.10074 0.98552 0.0
H196 H 0.05664 0.07076 1.03535 0.0
C197 C 0.03868 0.9559 0.13939 0.0
C198 C 0.96334 1.00711 0.04896 0.0
C199 C 0.04032 0.92641 0.17533 0.0
C200 C 0.95436 0.1383 0.92596 0.0
C201 C 0.95589 0.10758 0.95865 0.0
C202 C 0.03055 0.05289 1.03798 0.0
C203 C 0.00143 0.97369 0.12979 0.0
C204 C -0.0011 1.00295 0.08631 0.0
C205 C -0.00842 0.08728 0.95993 0.0
C206 C -0.00517 0.05721 1.00125 0.0
H207 H 0.93986 0.92338 0.21588 0.0
H208 H 0.93733 0.97561 0.15475 0.0
H209 H 0.0602 1.02426 0.10849 0.0
H210 H 0.04967 0.13601 0.86654 0.0
H211 H 0.05255 0.08205 0.92429 0.0
C212 C 0.42154 0.74253 0.61867 0.0
C213 C 0.44 0.77522 0.6317 0.0
C214 C 0.3882 0.73942 0.57731 0.0
C215 C 0.33054 0.78228 0.45457 0.0
H216 H 0.23408 0.73901 0.5222 0.0
C217 C 0.16685 0.79948 0.34934 0.0
C218 C 0.13788 0.77197 0.35226 0.0
C219 C 0.20531 0.79774 0.37965 0.0
C220 C 0.26078 0.75058 0.50191 0.0
H221 H 0.44005 0.82973 0.60777 0.0
H222 H 0.38239 0.82406 0.53459 0.0
H223 H 0.30027 0.73857 0.57753 0.0
H224 H 0.12688 0.7208 0.38872 0.0
H225 H 0.19444 0.71721 0.44011 0.0
H226 H 0.29136 0.79406 0.37868 0.0
C227 C 0.39348 0.80097 0.55695 0.0
C228 C 0.29875 0.75037 0.53379 0.0
C229 C 0.42648 0.8042 0.59894 0.0
C230 C 0.14836 0.74257 0.38599 0.0
C231 C 0.18711 0.7406 0.41568 0.0
C232 C 0.29267 0.78207 0.42221 0.0
C233 C 0.37305 0.76879 0.54741 0.0
C234 C 0.33389 0.76657 0.5108 0.0
C235 C 0.21611 0.76822 0.41305 0.0
C236 C 0.25709 0.76665 0.44583 0.0
H237 H 0.43108 0.71964 0.64305 0.0
H238 H 0.37329 0.71422 0.57022 0.0
H239 H 0.35724 0.79475 0.43566 0.0
H240 H 0.15967 0.82266 0.32414 0.0
H241 H 0.22628 0.81987 0.37754 0.0
C242 C 0.15251 0.23952 0.70017 0.0
C243 C 0.14394 0.26697 0.7393 0.0
C244 C 0.18844 0.2401 0.66718 0.0
C245 C 0.29136 0.28593 0.65517 0.0
H246 H 0.28518 0.24529 0.49623 0.0
C247 C 0.41388 0.30905 0.47416 0.0
C248 C 0.42512 0.27991 0.44041 0.0
C249 C 0.38239 0.30647 0.51531 0.0
C250 C 0.28756 0.25646 0.54077 0.0
H251 H 0.16675 0.31666 0.77427 0.0
H252 H 0.22843 0.31835 0.71541 0.0
H253 H 0.22466 0.24325 0.55723 0.0
H254 H 0.41265 0.22487 0.42543 0.0
H255 H 0.35765 0.22059 0.49654 0.0
H256 H 0.3541 0.30023 0.63705 0.0
C257 C 0.20811 0.29577 0.71123 0.0
C258 C 0.25281 0.25517 0.57608 0.0
C259 C 0.17246 0.29492 0.7449 0.0
C260 C 0.40506 0.24787 0.45061 0.0
C261 C 0.37322 0.24544 0.49105 0.0
C262 C 0.32597 0.28766 0.61938 0.0
C263 C 0.21662 0.26844 0.67153 0.0
C264 C 0.25409 0.26976 0.63401 0.0
C265 C 0.36096 0.27483 0.52307 0.0
C266 C 0.32453 0.27281 0.56184 0.0
H267 H 0.13147 0.21741 0.69507 0.0
H268 H 0.1941 0.21812 0.6384 0.0
H269 H 0.29408 0.29698 0.69972 0.0
H270 H 0.42854 0.33416 0.46748 0.0
H271 H 0.3736 0.32962 0.53916 0.0
C272 C 0.92211 0.30071 0.60055 0.0
C273 C 0.9353 0.2711 0.63189 0.0
C274 C 0.8892 0.29834 0.55825 0.0
C275 C 0.79412 0.24882 0.53188 0.0
H276 H 0.78876 0.29313 0.37723 0.0
C277 C 0.64506 0.24239 0.38121 0.0
C278 C 0.63528 0.27188 0.34731 0.0
C279 C 0.68353 0.24009 0.4116 0.0
C280 C 0.78949 0.28099 0.42064 0.0
H281 H 0.92579 0.21538 0.64042 0.0
H282 H 0.86815 0.21151 0.56722 0.0
H283 H 0.85404 0.29328 0.43566 0.0
H284 H 0.65795 0.32236 0.31959 0.0
H285 H 0.724 0.31906 0.37427 0.0
H286 H 0.72946 0.23786 0.5188 0.0
C287 C 0.88326 0.2365 0.57563 0.0
C288 C 0.82702 0.2809 0.45382 0.0
C289 C 0.9165 0.23875 0.61725 0.0
C290 C 0.66463 0.29912 0.34489 0.0
C291 C 0.70277 0.29708 0.37595 0.0
C292 C 0.75647 0.24937 0.49922 0.0
C293 C 0.86854 0.26642 0.54703 0.0
C294 C 0.82964 0.2649 0.50983 0.0
C295 C 0.71289 0.26748 0.40957 0.0
C296 C 0.75351 0.26564 0.44325 0.0
H297 H 0.93594 0.32601 0.61061 0.0
H298 H 0.87841 0.32183 0.53686 0.0
H299 H 0.79512 0.23678 0.57543 0.0
H300 H 0.62324 0.22083 0.38355 0.0
H301 H 0.69034 0.21663 0.43615 0.0
C302 C 0.90536 0.74532 0.45603 0.0
C303 C 0.92673 0.77634 0.44336 0.0
C304 C 0.87498 0.74472 0.49904 0.0
C305 C 0.80591 0.80508 0.57875 0.0
H306 H 0.77849 0.72227 0.66726 0.0
C307 C 0.67876 0.80269 0.75493 0.0
C308 C 0.64979 0.77507 0.7489 0.0
C309 C 0.71508 0.80264 0.72266 0.0
C310 C 0.78573 0.74558 0.64273 0.0
H311 H 0.93466 0.83055 0.4688 0.0
H312 H 0.88341 0.8292 0.54542 0.0
H313 H 0.8383 0.72246 0.60415 0.0
H314 H 0.63717 0.72524 0.70542 0.0
H315 H 0.70069 0.72495 0.6502 0.0
H316 H 0.75351 0.8282 0.6181 0.0
C317 C 0.88873 0.80554 0.52068 0.0
C318 C 0.81998 0.74569 0.60621 0.0
C319 C 0.91859 0.80625 0.47708 0.0
C320 C 0.65866 0.747 0.7111 0.0
C321 C 0.69523 0.74671 0.67963 0.0
C322 C 0.77206 0.80509 0.61588 0.0
C323 C 0.86553 0.77503 0.53119 0.0
C324 C 0.8304 0.77534 0.57308 0.0
C325 C 0.72366 0.77472 0.68439 0.0
C326 C 0.76126 0.77524 0.64782 0.0
H327 H 0.91049 0.72188 0.43049 0.0
H328 H 0.85769 0.72076 0.50503 0.0
H329 H 0.81206 0.82821 0.55321 0.0
H330 H 0.67293 0.82476 0.78348 0.0
H331 H 0.7365 0.8245 0.72761 0.0
C332 C 0.32623 0.82557 0.85034 0.0
C333 C 0.34875 0.79486 0.84863 0.0
C334 C 0.28303 0.8241 0.85052 0.0
C335 C 0.19944 0.76179 0.88788 0.0
H336 H 0.13157 0.84156 0.85187 0.0
C337 C 0.04406 0.77098 0.99054 0.0
C338 C 0.04803 0.79825 1.03232 0.0
C339 C 0.06961 0.77036 0.94162 0.0
C340 C 0.14992 0.81876 0.86082 0.0
H341 H 0.34467 0.73886 0.8403 0.0
H342 H 0.26942 0.73616 0.83652 0.0
H343 H 0.20137 0.83906 0.81434 0.0
H344 H 0.07753 0.84799 0.05309 0.0
H345 H 0.12132 0.84743 0.9671 0.0
H346 H 0.14842 0.74195 0.93541 0.0
C347 C 0.28458 0.76137 0.84127 0.0
C348 C 0.19013 0.8175 0.84021 0.0
C349 C 0.3277 0.76282 0.84323 0.0
C350 C 0.07418 0.82669 1.02126 0.0
C351 C 0.09894 0.82646 0.97182 0.0
C352 C 0.15909 0.76272 0.90718 0.0
C353 C 0.26158 0.79187 0.84705 0.0
C354 C 0.2162 0.78984 0.85628 0.0
C355 C 0.09864 0.79736 0.93361 0.0
C356 C 0.13473 0.79198 0.89648 0.0
H357 H 0.34207 0.85057 0.8541 0.0
H358 H 0.26678 0.84819 0.85602 0.0
H359 H 0.21826 0.74017 0.90211 0.0
H360 H 0.02417 0.74871 0.99865 0.0
H361 H 0.06898 0.74762 0.91277 0.0
C362 C 0.08267 0.24461 0.06641 0.0
C363 C 0.05112 0.26822 0.0543 0.0
C364 C 0.10383 0.24525 0.12151 0.0
C365 C 0.15008 0.25264 0.23801 0.0
H366 H 0.19758 0.34522 0.2236 0.0
C367 C 0.31667 0.27592 0.19268 0.0
C368 C 0.33964 0.3033 0.22004 0.0
C369 C 0.27473 0.27175 0.20307 0.0
C370 C 0.18435 0.31955 0.23009 0.0
H371 H 0.01375 0.30872 0.09098 0.0
H372 H 0.05238 0.31106 0.18752 0.0
H373 H 0.12583 0.33446 0.19252 0.0
H374 H 0.33648 0.34827 0.27882 0.0
H375 H 0.26238 0.34158 0.2949 0.0
H376 H 0.21032 0.23707 0.26901 0.0
C377 C 0.06015 0.29162 0.1548 0.0
C378 C 0.14301 0.31336 0.21265 0.0
C379 C 0.03826 0.29039 0.09972 0.0
C380 C 0.31952 0.32696 0.25689 0.0
C381 C 0.27731 0.32301 0.26664 0.0
C382 C 0.19148 0.25879 0.25506 0.0
C383 C 0.09446 0.27018 0.16499 0.0
C384 C 0.12685 0.2792 0.21108 0.0
C385 C 0.25477 0.29504 0.24052 0.0
C386 C 0.20963 0.29165 0.24631 0.0
H387 H 0.09263 0.22706 1.03195 0.0
H388 H 0.13034 0.22862 0.12741 0.0
H389 H 0.13799 0.22622 0.23849 0.0
H390 H 0.33126 0.2571 0.16451 0.0
H391 H 0.2577 0.25052 0.18095 0.0
C392 C 0.56931 0.25895 1.01613 0.0
C393 C 0.54412 0.28699 1.02916 0.0
C394 C 0.59513 0.26049 0.96797 0.0
C395 C 0.65618 0.327 0.90014 0.0
H396 H 0.70295 0.24623 0.82538 0.0
C397 C 0.82631 0.32291 0.82805 0.0
C398 C 0.84733 0.2955 0.85643 0.0
C399 C 0.78307 0.32393 0.82705 0.0
C400 C 0.68996 0.26918 0.84515 0.0
H401 H 0.52332 0.33753 1.00057 0.0
H402 H 0.56912 0.34058 0.91579 0.0
H403 H 0.63169 0.24366 0.85748 0.0
H404 H 0.8395 0.2473 0.90462 0.0
H405 H 0.76433 0.24904 0.90256 0.0
H406 H 0.71532 0.35177 0.8909 0.0
C407 C 0.5687 0.31728 0.94256 0.0
C408 C 0.64922 0.26775 0.86344 0.0
C409 C 0.54235 0.31548 0.99062 0.0
C410 C 0.82429 0.26891 0.88283 0.0
C411 C 0.78122 0.26964 0.88095 0.0
C412 C 0.69682 0.32852 0.88132 0.0
C413 C 0.59674 0.29044 0.93253 0.0
C414 C 0.63284 0.29587 0.8946 0.0
C415 C 0.76019 0.29718 0.85329 0.0
C416 C 0.71475 0.29892 0.85696 0.0
H417 H 0.57123 0.23688 0.0458 0.0
H418 H 0.61658 0.23952 0.96225 0.0
H419 H 0.64466 0.34909 0.92424 0.0
H420 H 0.84327 0.34373 0.80718 0.0
H421 H 0.7675 0.34554 0.80585 0.0
C422 C 0.82798 0.73841 0.20521 0.0
C423 C 0.84258 0.77281 0.21185 0.0
C424 C 0.78639 0.73025 0.2136 0.0
C425 C 0.69476 0.72544 0.18635 0.0
H426 H 0.62677 0.79155 0.26735 0.0
C427 C 0.53921 0.74989 0.0874 0.0
C428 C 0.54683 0.78157 0.05888 0.0
C429 C 0.56235 0.74131 0.13895 0.0
C430 C 0.64512 0.77201 0.2462 0.0
H431 H 0.82579 0.82561 0.2326 0.0
H432 H 0.75289 0.8122 0.24234 0.0
H433 H 0.70012 0.78772 0.29564 0.0
H434 H 0.57965 0.83094 0.0648 0.0
H435 H 0.61909 0.8166 0.15569 0.0
H436 H 0.64024 0.71089 0.13518 0.0
C437 C 0.77342 0.79097 0.23369 0.0
C438 C 0.68728 0.77023 0.26141 0.0
C439 C 0.81509 0.79892 0.2268 0.0
C440 C 0.57358 0.80634 0.08625 0.0
C441 C 0.59574 0.7982 0.13858 0.0
C442 C 0.65251 0.7266 0.17232 0.0
C443 C 0.75841 0.75651 0.22734 0.0
C444 C 0.71314 0.74921 0.22775 0.0
C445 C 0.59245 0.76474 0.16287 0.0
C446 C 0.62823 0.75203 0.19841 0.0
H447 H 0.84895 0.71766 0.1953 0.0
H448 H 0.77623 0.70338 0.20913 0.0
H449 H 0.71331 0.70863 0.15966 0.0
H450 H 0.51867 0.73043 0.06656 0.0
H451 H 0.55962 0.7153 0.15667 0.0
loop_
_geom_bond_atom_site_label_1
_geom_bond_atom_site_label_2
_geom_bond_distance
_geom_bond_site_symmetry_2
_ccdc_geom_bond_type
O0 Zn1 1.953 1_655 S
O0 C16 1.225 . S
Zn1 O0 1.953 1_455 S
Zn1 O2 1.949 . S
Zn1 O8 1.919 . S
Zn1 O13 1.924 . S
O2 Zn1 1.949 . S
O2 Zn3 1.923 . S
O2 Zn4 1.950 1_455 S
O2 Zn5 1.945 . S
Zn3 O2 1.923 . S
Zn3 O6 1.933 . S
Zn3 O9 1.941 . S
Zn3 O10 1.965 1_455 S
Zn4 O2 1.950 1_655 S
Zn4 O11 1.938 . S
Zn4 O12 1.906 . S
Zn4 O22 1.953 . S
Zn5 O2 1.945 . S
Zn5 O7 1.932 . S
Zn5 O14 1.977 . S
Zn5 O15 1.910 . S
O6 Zn3 1.933 . S
O6 C17 1.226 . S
O7 Zn5 1.932 . S
O7 C17 1.307 . S
O8 Zn1 1.919 . S
O8 C19 1.253 . S
O9 Zn3 1.941 . S
O9 C19 1.283 . S
O10 Zn3 1.965 1_655 S
O10 C18 1.303 . S
O11 Zn4 1.938 . S
O11 C18 1.247 . S
O12 Zn4 1.906 . S
O12 C20 1.304 1_655 S
O13 Zn1 1.924 . S
O13 C21 1.311 . S
O14 Zn5 1.977 . S
O14 C20 1.272 . S
O15 Zn5 1.910 . S
O15 C21 1.231 . S
C16 O0 1.225 . S
C16 O22 1.298 . S
C17 O6 1.226 . S
C17 O7 1.307 . S
C18 O10 1.303 . S
C18 O11 1.247 . S
C19 O8 1.253 . S
C19 O9 1.283 . S
C20 O12 1.304 1_455 S
C20 O14 1.272 . S
C21 O13 1.311 . S
C21 O15 1.231 . S
O22 Zn4 1.953 . S
O22 C16 1.298 . S
O23 Zn24 1.953 . S
O23 C39 1.225 . S
Zn24 O23 1.953 . S
Zn24 O25 1.949 . S
Zn24 O31 1.919 . S
Zn24 O36 1.924 . S
O25 Zn24 1.949 . S
O25 Zn26 1.923 . S
O25 Zn27 1.950 . S
O25 Zn28 1.945 . S
Zn26 O25 1.923 . S
Zn26 O29 1.933 . S
Zn26 O32 1.941 . S
Zn26 O33 1.965 . S
Zn27 O25 1.950 . S
Zn27 O34 1.938 . S
Zn27 O35 1.906 . S
Zn27 O45 1.953 . S
Zn28 O25 1.945 . S
Zn28 O30 1.932 . S
Zn28 O37 1.977 . S
Zn28 O38 1.910 . S
O29 Zn26 1.933 . S
O29 C40 1.226 . S
O30 Zn28 1.932 . S
O30 C40 1.307 . S
O31 Zn24 1.919 . S
O31 C42 1.253 . S
O32 Zn26 1.941 . S
O32 C42 1.283 . S
O33 Zn26 1.965 . S
O33 C41 1.303 . S
O34 Zn27 1.938 . S
O34 C41 1.247 . S
O35 Zn27 1.906 . S
O35 C43 1.304 . S
O36 Zn24 1.924 . S
O36 C44 1.311 . S
O37 Zn28 1.977 . S
O37 C43 1.272 . S
O38 Zn28 1.910 . S
O38 C44 1.231 . S
C39 O23 1.225 . S
C39 O45 1.298 . S
C40 O29 1.226 . S
C40 O30 1.307 . S
C41 O33 1.303 . S
C41 O34 1.247 . S
C42 O31 1.253 . S
C42 O32 1.283 . S
C43 O35 1.304 . S
C43 O37 1.272 . S
C44 O36 1.311 . S
C44 O38 1.231 . S
O45 Zn27 1.953 . S
O45 C39 1.298 . S
O46 Zn47 1.953 . S
O46 C62 1.225 . S
Zn47 O46 1.953 . S
Zn47 O48 1.949 . S
Zn47 O54 1.919 . S
Zn47 O59 1.924 1_455 S
O48 Zn47 1.949 . S
O48 Zn49 1.923 . S
O48 Zn50 1.950 . S
O48 Zn51 1.945 1_455 S
Zn49 O48 1.923 . S
Zn49 O52 1.933 1_455 S
Zn49 O55 1.941 . S
Zn49 O56 1.965 . S
Zn50 O48 1.950 . S
Zn50 O57 1.938 . S
Zn50 O58 1.906 . S
Zn50 O68 1.953 . S
Zn51 O48 1.945 1_655 S
Zn51 O53 1.932 . S
Zn51 O60 1.977 . S
Zn51 O61 1.910 . S
O52 Zn49 1.933 1_655 S
O52 C63 1.226 . S
O53 Zn51 1.932 . S
O53 C63 1.307 . S
O54 Zn47 1.919 . S
O54 C65 1.253 . S
O55 Zn49 1.941 . S
O55 C65 1.283 . S
O56 Zn49 1.965 . S
O56 C64 1.303 . S
O57 Zn50 1.938 . S
O57 C64 1.247 . S
O58 Zn50 1.906 . S
O58 C66 1.304 . S
O59 Zn47 1.924 1_655 S
O59 C67 1.311 . S
O60 Zn51 1.977 . S
O60 C66 1.272 1_655 S
O61 Zn51 1.910 . S
O61 C67 1.231 . S
C62 O46 1.225 . S
C62 O68 1.298 . S
C63 O52 1.226 . S
C63 O53 1.307 . S
C64 O56 1.303 . S
C64 O57 1.247 . S
C65 O54 1.253 . S
C65 O55 1.283 . S
C66 O58 1.304 . S
C66 O60 1.272 1_455 S
C67 O59 1.311 . S
C67 O61 1.231 . S
O68 Zn50 1.953 . S
O68 C62 1.298 . S
O69 Zn70 1.953 . S
O69 C85 1.225 . S
Zn70 O69 1.953 . S
Zn70 O71 1.949 . S
Zn70 O77 1.919 . S
Zn70 O82 1.924 . S
O71 Zn70 1.949 . S
O71 Zn72 1.923 . S
O71 Zn73 1.950 . S
O71 Zn74 1.945 . S
Zn72 O71 1.923 . S
Zn72 O75 1.933 . S
Zn72 O78 1.941 . S
Zn72 O79 1.965 . S
Zn73 O71 1.950 . S
Zn73 O80 1.938 . S
Zn73 O81 1.906 . S
Zn73 O91 1.953 . S
Zn74 O71 1.945 . S
Zn74 O76 1.932 . S
Zn74 O83 1.977 . S
Zn74 O84 1.910 . S
O75 Zn72 1.933 . S
O75 C86 1.226 . S
O76 Zn74 1.932 . S
O76 C86 1.307 . S
O77 Zn70 1.919 . S
O77 C88 1.253 . S
O78 Zn72 1.941 . S
O78 C88 1.283 . S
O79 Zn72 1.965 . S
O79 C87 1.303 . S
O80 Zn73 1.938 . S
O80 C87 1.247 . S
O81 Zn73 1.906 . S
O81 C89 1.304 . S
O82 Zn70 1.924 . S
O82 C90 1.311 . S
O83 Zn74 1.977 . S
O83 C89 1.272 . S
O84 Zn74 1.910 . S
O84 C90 1.231 . S
C85 O69 1.225 . S
C85 O91 1.298 . S
C86 O75 1.226 . S
C86 O76 1.307 . S
C87 O79 1.303 . S
C87 O80 1.247 . S
C88 O77 1.253 . S
C88 O78 1.283 . S
C89 O81 1.304 . S
C89 O83 1.272 . S
C90 O82 1.311 . S
C90 O84 1.231 . S
O91 Zn73 1.953 . S
O91 C85 1.298 . S
C92 C93 1.349 . S
C92 C94 1.327 . S
C92 H117 0.950 . S
C93 C92 1.349 . S
C93 C109 1.349 1_455 S
C94 C92 1.327 . S
C94 C113 1.429 . S
C94 H118 0.950 . S
C95 C112 1.574 . S
C95 C114 1.368 1_655 S
C95 H119 0.949 . S
H96 C100 0.949 . S
C97 C98 1.349 1_655 S
C97 C99 1.327 . S
C97 H120 0.950 . S
C98 C97 1.349 1_455 S
C98 C110 1.349 . S
C99 C97 1.327 . S
C99 C115 1.429 1_655 S
C99 H121 0.950 . S
C100 H96 0.949 . S
C100 C108 1.574 . S
C100 C116 1.368 . S
H101 C109 0.950 . S
H102 C107 0.950 . S
H103 C108 0.949 . S
H104 C110 0.950 . S
H105 C111 0.950 . S
H106 C112 0.949 . S
C107 H102 0.950 . S
C107 C109 1.327 . S
C107 C113 1.429 1_655 S
C108 C100 1.574 . S
C108 H103 0.949 . S
C108 C114 1.368 1_554 S
C109 C93 1.349 1_655 S
C109 H101 0.950 . S
C109 C107 1.327 . S
C110 C98 1.349 . S
C110 H104 0.950 . S
C110 C111 1.327 . S
C111 H105 0.950 . S
C111 C110 1.327 . S
C111 C115 1.429 . S
C112 C95 1.574 . S
C112 H106 0.949 . S
C112 C116 1.368 1_656 S
C113 C94 1.429 . S
C113 C107 1.429 1_455 S
C113 C114 1.523 . S
C114 C95 1.368 1_455 S
C114 C108 1.368 1_556 S
C114 C113 1.523 . S
C115 C99 1.429 1_455 S
C115 C111 1.429 . S
C115 C116 1.523 . S
C116 C100 1.368 . S
C116 C112 1.368 1_454 S
C116 C115 1.523 . S
H117 C92 0.950 . S
H118 C94 0.950 . S
H119 C95 0.949 . S
H120 C97 0.950 . S
H121 C99 0.950 . S
C122 C123 1.349 . S
C122 C124 1.327 . S
C122 H147 0.950 . S
C123 C122 1.349 . S
C123 C139 1.349 . S
C124 C122 1.327 . S
C124 C143 1.429 . S
C124 H148 0.950 . S
C125 C142 1.574 . S
C125 C144 1.368 1_556 S
C125 H149 0.949 . S
H126 C130 0.949 . S
C127 C128 1.349 . S
C127 C129 1.327 . S
C127 H150 0.950 . S
C128 C127 1.349 . S
C128 C140 1.349 . S
C129 C127 1.327 . S
C129 C145 1.429 . S
C129 H151 0.950 . S
C130 H126 0.949 . S
C130 C138 1.574 . S
C130 C146 1.368 1_554 S
H131 C139 0.950 . S
H132 C137 0.950 . S
H133 C138 0.949 . S
H134 C140 0.950 . S
H135 C141 0.950 . S
H136 C142 0.949 . S
C137 H132 0.950 . S
C137 C139 1.327 . S
C137 C143 1.429 . S
C138 C130 1.574 . S
C138 H133 0.949 . S
C138 C144 1.368 . S
C139 C123 1.349 . S
C139 H131 0.950 . S
C139 C137 1.327 . S
C140 C128 1.349 . S
C140 H134 0.950 . S
C140 C141 1.327 . S
C141 H135 0.950 . S
C141 C140 1.327 . S
C141 C145 1.429 . S
C142 C125 1.574 . S
C142 H136 0.949 . S
C142 C146 1.368 . S
C143 C124 1.429 . S
C143 C137 1.429 . S
C143 C144 1.523 . S
C144 C125 1.368 1_554 S
C144 C138 1.368 . S
C144 C143 1.523 . S
C145 C129 1.429 . S
C145 C141 1.429 . S
C145 C146 1.523 . S
C146 C130 1.368 1_556 S
C146 C142 1.368 . S
C146 C145 1.523 . S
H147 C122 0.950 . S
H148 C124 0.950 . S
H149 C125 0.949 . S
H150 C127 0.950 . S
H151 C129 0.950 . S
C152 C153 1.349 . S
C152 C154 1.327 . S
C152 H177 0.950 . S
C153 C152 1.349 . S
C153 C169 1.349 . S
C154 C152 1.327 . S
C154 C173 1.429 . S
C154 H178 0.950 . S
C155 C172 1.574 1_565 S
C155 C174 1.368 1_554 S
C155 H179 0.949 . S
H156 C160 0.949 . S
C157 C158 1.349 . S
C157 C159 1.327 . S
C157 H180 0.950 . S
C158 C157 1.349 . S
C158 C170 1.349 . S
C159 C157 1.327 . S
C159 C175 1.429 . S
C159 H181 0.950 . S
C160 H156 0.949 . S
C160 C168 1.574 1_545 S
C160 C176 1.368 1_556 S
H161 C169 0.950 . S
H162 C167 0.950 . S
H163 C168 0.949 . S
H164 C170 0.950 . S
H165 C171 0.950 . S
H166 C172 0.949 . S
C167 H162 0.950 . S
C167 C169 1.327 . S
C167 C173 1.429 . S
C168 C160 1.574 1_565 S
C168 H163 0.949 . S
C168 C174 1.368 . S
C169 C153 1.349 . S
C169 H161 0.950 . S
C169 C167 1.327 . S
C170 C158 1.349 . S
C170 H164 0.950 . S
C170 C171 1.327 . S
C171 H165 0.950 . S
C171 C170 1.327 . S
C171 C175 1.429 . S
C172 C155 1.574 1_545 S
C172 H166 0.949 . S
C172 C176 1.368 . S
C173 C154 1.429 . S
C173 C167 1.429 . S
C173 C174 1.523 . S
C174 C155 1.368 1_556 S
C174 C168 1.368 . S
C174 C173 1.523 . S
C175 C159 1.429 . S
C175 C171 1.429 . S
C175 C176 1.523 . S
C176 C160 1.368 1_554 S
C176 C172 1.368 . S
C176 C175 1.523 . S
H177 C152 0.950 . S
H178 C154 0.950 . S
H179 C155 0.949 . S
H180 C157 0.950 . S
H181 C159 0.950 . S
C182 C183 1.349 1_655 S
C182 C184 1.327 . S
C182 H207 0.950 . S
C183 C182 1.349 1_455 S
C183 C199 1.349 . S
C184 C182 1.327 . S
C184 C203 1.429 1_655 S
C184 H208 0.950 . S
C185 C202 1.574 1_564 S
C185 C204 1.368 . S
C185 H209 0.949 . S
H186 C190 0.949 . S
C187 C188 1.349 . S
C187 C189 1.327 . S
C187 H210 0.950 . S
C188 C187 1.349 . S
C188 C200 1.349 1_455 S
C189 C187 1.327 . S
C189 C205 1.429 . S
C189 H211 0.950 . S
C190 H186 0.949 . S
C190 C198 1.574 1_546 S
C190 C206 1.368 1_655 S
H191 C199 0.950 . S
H192 C197 0.950 . S
H193 C198 0.949 . S
H194 C200 0.950 . S
H195 C201 0.950 . S
H196 C202 0.949 . S
C197 H192 0.950 . S
C197 C199 1.327 . S
C197 C203 1.429 . S
C198 C190 1.574 1_564 S
C198 H193 0.949 . S
C198 C204 1.368 1_655 S
C199 C183 1.349 . S
C199 H191 0.950 . S
C199 C197 1.327 . S
C200 C188 1.349 1_655 S
C200 H194 0.950 . S
C200 C201 1.327 . S
C201 H195 0.950 . S
C201 C200 1.327 . S
C201 C205 1.429 1_655 S
C202 C185 1.574 1_546 S
C202 H196 0.949 . S
C202 C206 1.368 . S
C203 C184 1.429 1_455 S
C203 C197 1.429 . S
C203 C204 1.523 . S
C204 C185 1.368 . S
C204 C198 1.368 1_455 S
C204 C203 1.523 . S
C205 C189 1.429 . S
C205 C201 1.429 1_455 S
C205 C206 1.523 . S
C206 C190 1.368 1_455 S
C206 C202 1.368 . S
C206 C205 1.523 . S
H207 C182 0.950 . S
H208 C184 0.950 . S
H209 C185 0.949 . S
H210 C187 0.950 . S
H211 C189 0.950 . S
C212 C213 1.349 . S
C212 C214 1.327 . S
C212 H237 0.950 . S
C213 C212 1.349 . S
C213 C229 1.349 . S
C214 C212 1.327 . S
C214 C233 1.429 . S
C214 H238 0.950 . S
C215 C232 1.574 . S
C215 C234 1.368 . S
C215 H239 0.949 . S
H216 C220 0.949 . S
C217 C218 1.349 . S
C217 C219 1.327 . S
C217 H240 0.950 . S
C218 C217 1.349 . S
C218 C230 1.349 . S
C219 C217 1.327 . S
C219 C235 1.429 . S
C219 H241 0.950 . S
C220 H216 0.949 . S
C220 C228 1.574 . S
C220 C236 1.368 . S
H221 C229 0.950 . S
H222 C227 0.950 . S
H223 C228 0.949 . S
H224 C230 0.950 . S
H225 C231 0.950 . S
H226 C232 0.949 . S
C227 H222 0.950 . S
C227 C229 1.327 . S
C227 C233 1.429 . S
C228 C220 1.574 . S
C228 H223 0.949 . S
C228 C234 1.368 . S
C229 C213 1.349 . S
C229 H221 0.950 . S
C229 C227 1.327 . S
C230 C218 1.349 . S
C230 H224 0.950 . S
C230 C231 1.327 . S
C231 H225 0.950 . S
C231 C230 1.327 . S
C231 C235 1.429 . S
C232 C215 1.574 . S
C232 H226 0.949 . S
C232 C236 1.368 . S
C233 C214 1.429 . S
C233 C227 1.429 . S
C233 C234 1.523 . S
C234 C215 1.368 . S
C234 C228 1.368 . S
C234 C233 1.523 . S
C235 C219 1.429 . S
C235 C231 1.429 . S
C235 C236 1.523 . S
C236 C220 1.368 . S
C236 C232 1.368 . S
C236 C235 1.523 . S
H237 C212 0.950 . S
H238 C214 0.950 . S
H239 C215 0.949 . S
H240 C217 0.950 . S
H241 C219 0.950 . S
C242 C243 1.349 . S
C242 C244 1.327 . S
C242 H267 0.950 . S
C243 C242 1.349 . S
C243 C259 1.349 . S
C244 C242 1.327 . S
C244 C263 1.429 . S
C244 H268 0.950 . S
C245 C262 1.574 . S
C245 C264 1.368 . S
C245 H269 0.949 . S
H246 C250 0.949 . S
C247 C248 1.349 . S
C247 C249 1.327 . S
C247 H270 0.950 . S
C248 C247 1.349 . S
C248 C260 1.349 . S
C249 C247 1.327 . S
C249 C265 1.429 . S
C249 H271 0.950 . S
C250 H246 0.949 . S
C250 C258 1.574 . S
C250 C266 1.368 . S
H251 C259 0.950 . S
H252 C257 0.950 . S
H253 C258 0.949 . S
H254 C260 0.950 . S
H255 C261 0.950 . S
H256 C262 0.949 . S
C257 H252 0.950 . S
C257 C259 1.327 . S
C257 C263 1.429 . S
C258 C250 1.574 . S
C258 H253 0.949 . S
C258 C264 1.368 . S
C259 C243 1.349 . S
C259 H251 0.950 . S
C259 C257 1.327 . S
C260 C248 1.349 . S
C260 H254 0.950 . S
C260 C261 1.327 . S
C261 H255 0.950 . S
C261 C260 1.327 . S
C261 C265 1.429 . S
C262 C245 1.574 . S
C262 H256 0.949 . S
C262 C266 1.368 . S
C263 C244 1.429 . S
C263 C257 1.429 . S
C263 C264 1.523 . S
C264 C245 1.368 . S
C264 C258 1.368 . S
C264 C263 1.523 . S
C265 C249 1.429 . S
C265 C261 1.429 . S
C265 C266 1.523 . S
C266 C250 1.368 . S
C266 C262 1.368 . S
C266 C265 1.523 . S
H267 C242 0.950 . S
H268 C244 0.950 . S
H269 C245 0.949 . S
H270 C247 0.950 . S
H271 C249 0.950 . S
C272 C273 1.349 . S
C272 C274 1.327 . S
C272 H297 0.950 . S
C273 C272 1.349 . S
C273 C289 1.349 . S
C274 C272 1.327 . S
C274 C293 1.429 . S
C274 H298 0.950 . S
C275 C292 1.574 . S
C275 C294 1.368 . S
C275 H299 0.949 . S
H276 C280 0.949 . S
C277 C278 1.349 . S
C277 C279 1.327 . S
C277 H300 0.950 . S
C278 C277 1.349 . S
C278 C290 1.349 . S
C279 C277 1.327 . S
C279 C295 1.429 . S
C279 H301 0.950 . S
C280 H276 0.949 . S
C280 C288 1.574 . S
C280 C296 1.368 . S
H281 C289 0.950 . S
H282 C287 0.950 . S
H283 C288 0.949 . S
H284 C290 0.950 . S
H285 C291 0.950 . S
H286 C292 0.949 . S
C287 H282 0.950 . S
C287 C289 1.327 . S
C287 C293 1.429 . S
C288 C280 1.574 . S
C288 H283 0.949 . S
C288 C294 1.368 . S
C289 C273 1.349 . S
C289 H281 0.950 . S
C289 C287 1.327 . S
C290 C278 1.349 . S
C290 H284 0.950 . S
C290 C291 1.327 . S
C291 H285 0.950 . S
C291 C290 1.327 . S
C291 C295 1.429 . S
C292 C275 1.574 . S
C292 H286 0.949 . S
C292 C296 1.368 . S
C293 C274 1.429 . S
C293 C287 1.429 . S
C293 C294 1.523 . S
C294 C275 1.368 . S
C294 C288 1.368 . S
C294 C293 1.523 . S
C295 C279 1.429 . S
C295 C291 1.429 . S
C295 C296 1.523 . S
C296 C280 1.368 . S
C296 C292 1.368 . S
C296 C295 1.523 . S
H297 C272 0.950 . S
H298 C274 0.950 . S
H299 C275 0.949 . S
H300 C277 0.950 . S
H301 C279 0.950 . S
C302 C303 1.349 . S
C302 C304 1.327 . S
C302 H327 0.950 . S
C303 C302 1.349 . S
C303 C319 1.349 . S
C304 C302 1.327 . S
C304 C323 1.429 . S
C304 H328 0.950 . S
C305 C322 1.574 . S
C305 C324 1.368 . S
C305 H329 0.949 . S
H306 C310 0.949 . S
C307 C308 1.349 . S
C307 C309 1.327 . S
C307 H330 0.950 . S
C308 C307 1.349 . S
C308 C320 1.349 . S
C309 C307 1.327 . S
C309 C325 1.429 . S
C309 H331 0.950 . S
C310 H306 0.949 . S
C310 C318 1.574 . S
C310 C326 1.368 . S
H311 C319 0.950 . S
H312 C317 0.950 . S
H313 C318 0.949 . S
H314 C320 0.950 . S
H315 C321 0.950 . S
H316 C322 0.949 . S
C317 H312 0.950 . S
C317 C319 1.327 . S
C317 C323 1.429 . S
C318 C310 1.574 . S
C318 H313 0.949 . S
C318 C324 1.368 . S
C319 C303 1.349 . S
C319 H311 0.950 . S
C319 C317 1.327 . S
C320 C308 1.349 . S
C320 H314 0.950 . S
C320 C321 1.327 . S
C321 H315 0.950 . S
C321 C320 1.327 . S
C321 C325 1.429 . S
C322 C305 1.574 . S
C322 H316 0.949 . S
C322 C326 1.368 . S
C323 C304 1.429 . S
C323 C317 1.429 . S
C323 C324 1.523 . S
C324 C305 1.368 . S
C324 C318 1.368 . S
C324 C323 1.523 . S
C325 C309 1.429 . S
C325 C321 1.429 . S
C325 C326 1.523 . S
C326 C310 1.368 . S
C326 C322 1.368 . S
C326 C325 1.523 . S
H327 C302 0.950 . S
H328 C304 0.950 . S
H329 C305 0.949 . S
H330 C307 0.950 . S
H331 C309 0.950 . S
C332 C333 1.349 . S
C332 C334 1.327 . S
C332 H357 0.950 . S
C333 C332 1.349 . S
C333 C349 1.349 . S
C334 C332 1.327 . S
C334 C353 1.429 . S
C334 H358 0.950 . S
C335 C352 1.574 . S
C335 C354 1.368 1_554 S
C335 H359 0.949 . S
H336 C340 0.949 . S
C337 C338 1.349 . S
C337 C339 1.327 . S
C337 H360 0.950 . S
C338 C337 1.349 . S
C338 C350 1.349 . S
C339 C337 1.327 . S
C339 C355 1.429 . S
C339 H361 0.950 . S
C340 H336 0.949 . S
C340 C348 1.574 . S
C340 C356 1.368 1_556 S
H341 C349 0.950 . S
H342 C347 0.950 1_554 S
H343 C348 0.949 . S
H344 C350 0.950 . S
H345 C351 0.950 1_556 S
H346 C352 0.949 . S
C347 H342 0.950 1_556 S
C347 C349 1.327 . S
C347 C353 1.429 . S
C348 C340 1.574 . S
C348 H343 0.949 . S
C348 C354 1.368 . S
C349 C333 1.349 . S
C349 H341 0.950 . S
C349 C347 1.327 . S
C350 C338 1.349 . S
C350 H344 0.950 . S
C350 C351 1.327 . S
C351 H345 0.950 1_554 S
C351 C350 1.327 . S
C351 C355 1.429 . S
C352 C335 1.574 . S
C352 H346 0.949 . S
C352 C356 1.368 . S
C353 C334 1.429 . S
C353 C347 1.429 . S
C353 C354 1.523 . S
C354 C335 1.368 1_556 S
C354 C348 1.368 . S
C354 C353 1.523 . S
C355 C339 1.429 . S
C355 C351 1.429 . S
C355 C356 1.523 . S
C356 C340 1.368 1_554 S
C356 C352 1.368 . S
C356 C355 1.523 . S
H357 C332 0.950 . S
H358 C334 0.950 . S
H359 C335 0.949 . S
H360 C337 0.950 . S
H361 C339 0.950 . S
C362 C363 1.349 . S
C362 C364 1.327 . S
C362 H387 0.950 . S
C363 C362 1.349 . S
C363 C379 1.349 . S
C364 C362 1.327 . S
C364 C383 1.429 . S
C364 H388 0.950 . S
C365 C382 1.574 . S
C365 C384 1.368 . S
C365 H389 0.949 . S
H366 C370 0.949 . S
C367 C368 1.349 . S
C367 C369 1.327 . S
C367 H390 0.950 . S
C368 C367 1.349 . S
C368 C380 1.349 . S
C369 C367 1.327 . S
C369 C385 1.429 . S
C369 H391 0.950 . S
C370 H366 0.949 . S
C370 C378 1.574 . S
C370 C386 1.368 . S
H371 C379 0.950 . S
H372 C377 0.950 . S
H373 C378 0.949 . S
H374 C380 0.950 . S
H375 C381 0.950 . S
H376 C382 0.949 . S
C377 H372 0.950 . S
C377 C379 1.327 . S
C377 C383 1.429 . S
C378 C370 1.574 . S
C378 H373 0.949 . S
C378 C384 1.368 1_554 S
C379 C363 1.349 . S
C379 H371 0.950 . S
C379 C377 1.327 . S
C380 C368 1.349 . S
C380 H374 0.950 . S
C380 C381 1.327 . S
C381 H375 0.950 . S
C381 C380 1.327 . S
C381 C385 1.429 . S
C382 C365 1.574 . S
C382 H376 0.949 . S
C382 C386 1.368 1_556 S
C383 C364 1.429 . S
C383 C377 1.429 . S
C383 C384 1.523 . S
C384 C365 1.368 . S
C384 C378 1.368 1_556 S
C384 C383 1.523 . S
C385 C369 1.429 . S
C385 C381 1.429 . S
C385 C386 1.523 . S
C386 C370 1.368 . S
C386 C382 1.368 1_554 S
C386 C385 1.523 . S
H387 C362 0.950 . S
H388 C364 0.950 . S
H389 C365 0.949 . S
H390 C367 0.950 . S
H391 C369 0.950 . S
C392 C393 1.349 . S
C392 C394 1.327 . S
C392 H417 0.950 . S
C393 C392 1.349 . S
C393 C409 1.349 . S
C394 C392 1.327 . S
C394 C413 1.429 . S
C394 H418 0.950 1_554 S
C395 C412 1.574 . S
C395 C414 1.368 . S
C395 H419 0.949 . S
H396 C400 0.949 . S
C397 C398 1.349 . S
C397 C399 1.327 . S
C397 H420 0.950 . S
C398 C397 1.349 . S
C398 C410 1.349 . S
C399 C397 1.327 . S
C399 C415 1.429 . S
C399 H421 0.950 1_556 S
C400 H396 0.949 . S
C400 C408 1.574 . S
C400 C416 1.368 . S
H401 C409 0.950 . S
H402 C407 0.950 . S
H403 C408 0.949 . S
H404 C410 0.950 . S
H405 C411 0.950 . S
H406 C412 0.949 . S
C407 H402 0.950 . S
C407 C409 1.327 . S
C407 C413 1.429 . S
C408 C400 1.574 . S
C408 H403 0.949 . S
C408 C414 1.368 1_556 S
C409 C393 1.349 . S
C409 H401 0.950 . S
C409 C407 1.327 . S
C410 C398 1.349 . S
C410 H404 0.950 . S
C410 C411 1.327 . S
C411 H405 0.950 . S
C411 C410 1.327 . S
C411 C415 1.429 . S
C412 C395 1.574 . S
C412 H406 0.949 . S
C412 C416 1.368 1_554 S
C413 C394 1.429 . S
C413 C407 1.429 . S
C413 C414 1.523 . S
C414 C395 1.368 . S
C414 C408 1.368 1_554 S
C414 C413 1.523 . S
C415 C399 1.429 . S
C415 C411 1.429 . S
C415 C416 1.523 . S
C416 C400 1.368 . S
C416 C412 1.368 1_556 S
C416 C415 1.523 . S
H417 C392 0.950 . S
H418 C394 0.950 1_556 S
H419 C395 0.949 . S
H420 C397 0.950 . S
H421 C399 0.950 1_554 S
C422 C423 1.349 . S
C422 C424 1.327 . S
C422 H447 0.950 . S
C423 C422 1.349 . S
C423 C439 1.349 . S
C424 C422 1.327 . S
C424 C443 1.429 . S
C424 H448 0.950 . S
C425 C442 1.574 . S
C425 C444 1.368 1_556 S
C425 H449 0.949 . S
H426 C430 0.949 . S
C427 C428 1.349 . S
C427 C429 1.327 . S
C427 H450 0.950 . S
C428 C427 1.349 . S
C428 C440 1.349 . S
C429 C427 1.327 . S
C429 C445 1.429 . S
C429 H451 0.950 . S
C430 H426 0.949 . S
C430 C438 1.574 . S
C430 C446 1.368 1_554 S
H431 C439 0.950 . S
H432 C437 0.950 . S
H433 C438 0.949 . S
H434 C440 0.950 . S
H435 C441 0.950 . S
H436 C442 0.949 . S
C437 H432 0.950 . S
C437 C439 1.327 . S
C437 C443 1.429 . S
C438 C430 1.574 . S
C438 H433 0.949 . S
C438 C444 1.368 . S
C439 C423 1.349 . S
C439 H431 0.950 . S
C439 C437 1.327 . S
C440 C428 1.349 . S
C440 H434 0.950 . S
C440 C441 1.327 . S
C441 H435 0.950 . S
C441 C440 1.327 . S
C441 C445 1.429 . S
C442 C425 1.574 . S
C442 H436 0.949 . S
C442 C446 1.368 . S
C443 C424 1.429 . S
C443 C437 1.429 . S
C443 C444 1.523 . S
C444 C425 1.368 1_554 S
C444 C438 1.368 . S
C444 C443 1.523 . S
C445 C429 1.429 . S
C445 C441 1.429 . S
C445 C446 1.523 . S
C446 C430 1.368 1_556 S
C446 C442 1.368 . S
C446 C445 1.523 . S
H447 C422 0.950 . S
H448 C424 0.950 . S
H449 C425 0.949 . S
H450 C427 0.950 . S
H451 C429 0.950 . S
C93 C66 2.228 . S
C98 C19 2.168 . S
C123 C43 2.228 . S
C128 C88 2.168 . S
C153 C89 2.228 . S
C158 C42 2.168 . S
C183 C20 2.228 . S
C188 C65 2.168 . S
C213 C90 1.527 . S
C218 C21 1.527 . S
C243 C62 2.214 . S
C248 C39 2.214 . S
C273 C67 1.527 . S
C278 C44 1.527 . S
C303 C16 2.214 . S
C308 C85 2.214 . S
C333 C86 0.354 . S
C338 C17 0.354 . S
C363 C64 0.532 . S
C368 C41 0.532 . S
C393 C40 0.354 . S
C398 C63 0.354 . S
C423 C18 0.532 . S
C428 C87 0.532 . S
