# Generated by pormake.
# Topology umq, (4)-cn, num edge types: 1
# Building blocks:
#     Node 0, Type 0, BuildingBlock: TATPOV_clean_sbu_0, # of connection points: 4
#     Node 1, Type 0, BuildingBlock: TATPOV_clean_sbu_0, # of connection points: 4
#     Node 2, Type 0, BuildingBlock: TATPOV_clean_sbu_0, # of connection points: 4
#     Node 3, Type 0, BuildingBlock: TATPOV_clean_sbu_0, # of connection points: 4
#     Node 4, Type 0, BuildingBlock: TATPOV_clean_sbu_0, # of connection points: 4
#     Node 5, Type 0, BuildingBlock: TATPOV_clean_sbu_0, # of connection points: 4
#     Node 6, Type 0, BuildingBlock: TATPOV_clean_sbu_0, # of connection points: 4
#     Node 7, Type 0, BuildingBlock: TATPOV_clean_sbu_0, # of connection points: 4
#     Node 8, Type 0, BuildingBlock: TATPOV_clean_sbu_0, # of connection points: 4
#     Node 9, Type 0, BuildingBlock: TATPOV_clean_sbu_0, # of connection points: 4
#     Node 10, Type 0, BuildingBlock: TATPOV_clean_sbu_0, # of connection points: 4
#     Node 11, Type 0, BuildingBlock: TATPOV_clean_sbu_0, # of connection points: 4
#     Node 12, Type 0, BuildingBlock: TATPOV_clean_sbu_0, # of connection points: 4
#     Node 13, Type 0, BuildingBlock: TATPOV_clean_sbu_0, # of connection points: 4
#     Node 14, Type 0, BuildingBlock: TATPOV_clean_sbu_0, # of connection points: 4
#     Node 15, Type 0, BuildingBlock: TATPOV_clean_sbu_0, # of connection points: 4
#     Node 16, Type 0, BuildingBlock: TATPOV_clean_sbu_0, # of connection points: 4
#     Node 17, Type 0, BuildingBlock: TATPOV_clean_sbu_0, # of connection points: 4
#     Node 18, Type 0, BuildingBlock: TATPOV_clean_sbu_0, # of connection points: 4
#     Node 19, Type 0, BuildingBlock: TATPOV_clean_sbu_0, # of connection points: 4
#     Node 20, Type 0, BuildingBlock: TATPOV_clean_sbu_0, # of connection points: 4
#     Node 21, Type 0, BuildingBlock: TATPOV_clean_sbu_0, # of connection points: 4
#     Node 22, Type 0, BuildingBlock: TATPOV_clean_sbu_0, # of connection points: 4
#     Node 23, Type 0, BuildingBlock: TATPOV_clean_sbu_0, # of connection points: 4
#     Node 24, Type 0, BuildingBlock: TATPOV_clean_sbu_0, # of connection points: 4
#     Node 25, Type 0, BuildingBlock: TATPOV_clean_sbu_0, # of connection points: 4
#     Node 26, Type 0, BuildingBlock: TATPOV_clean_sbu_0, # of connection points: 4
#     Node 27, Type 0, BuildingBlock: TATPOV_clean_sbu_0, # of connection points: 4
#     Node 28, Type 0, BuildingBlock: TATPOV_clean_sbu_0, # of connection points: 4
#     Node 29, Type 0, BuildingBlock: TATPOV_clean_sbu_0, # of connection points: 4
#     Node 30, Type 0, BuildingBlock: TATPOV_clean_sbu_0, # of connection points: 4
#     Node 31, Type 0, BuildingBlock: TATPOV_clean_sbu_0, # of connection points: 4
#     Edge 32, Type (0, 0), BuildingBlock: AJUNOK_clean_linker_0, # of connection points: 2
#     Edge 33, Type (0, 0), BuildingBlock: AJUNOK_clean_linker_0, # of connection points: 2
#     Edge 34, Type (0, 0), BuildingBlock: AJUNOK_clean_linker_0, # of connection points: 2
#     Edge 35, Type (0, 0), BuildingBlock: AJUNOK_clean_linker_0, # of connection points: 2
#     Edge 36, Type (0, 0), BuildingBlock: AJUNOK_clean_linker_0, # of connection points: 2
#     Edge 37, Type (0, 0), BuildingBlock: AJUNOK_clean_linker_0, # of connection points: 2
#     Edge 38, Type (0, 0), BuildingBlock: AJUNOK_clean_linker_0, # of connection points: 2
#     Edge 39, Type (0, 0), BuildingBlock: AJUNOK_clean_linker_0, # of connection points: 2
#     Edge 40, Type (0, 0), BuildingBlock: AJUNOK_clean_linker_0, # of connection points: 2
#     Edge 41, Type (0, 0), BuildingBlock: AJUNOK_clean_linker_0, # of connection points: 2
#     Edge 42, Type (0, 0), BuildingBlock: AJUNOK_clean_linker_0, # of connection points: 2
#     Edge 43, Type (0, 0), BuildingBlock: AJUNOK_clean_linker_0, # of connection points: 2
#     Edge 44, Type (0, 0), BuildingBlock: AJUNOK_clean_linker_0, # of connection points: 2
#     Edge 45, Type (0, 0), BuildingBlock: AJUNOK_clean_linker_0, # of connection points: 2
#     Edge 46, Type (0, 0), BuildingBlock: AJUNOK_clean_linker_0, # of connection points: 2
#     Edge 47, Type (0, 0), BuildingBlock: AJUNOK_clean_linker_0, # of connection points: 2
#     Edge 48, Type (0, 0), BuildingBlock: AJUNOK_clean_linker_0, # of connection points: 2
#     Edge 49, Type (0, 0), BuildingBlock: AJUNOK_clean_linker_0, # of connection points: 2
#     Edge 50, Type (0, 0), BuildingBlock: AJUNOK_clean_linker_0, # of connection points: 2
#     Edge 51, Type (0, 0), BuildingBlock: AJUNOK_clean_linker_0, # of connection points: 2
#     Edge 52, Type (0, 0), BuildingBlock: AJUNOK_clean_linker_0, # of connection points: 2
#     Edge 53, Type (0, 0), BuildingBlock: AJUNOK_clean_linker_0, # of connection points: 2
#     Edge 54, Type (0, 0), BuildingBlock: AJUNOK_clean_linker_0, # of connection points: 2
#     Edge 55, Type (0, 0), BuildingBlock: AJUNOK_clean_linker_0, # of connection points: 2
#     Edge 56, Type (0, 0), BuildingBlock: AJUNOK_clean_linker_0, # of connection points: 2
#     Edge 57, Type (0, 0), BuildingBlock: AJUNOK_clean_linker_0, # of connection points: 2
#     Edge 58, Type (0, 0), BuildingBlock: AJUNOK_clean_linker_0, # of connection points: 2
#     Edge 59, Type (0, 0), BuildingBlock: AJUNOK_clean_linker_0, # of connection points: 2
#     Edge 60, Type (0, 0), BuildingBlock: AJUNOK_clean_linker_0, # of connection points: 2
#     Edge 61, Type (0, 0), BuildingBlock: AJUNOK_clean_linker_0, # of connection points: 2
#     Edge 62, Type (0, 0), BuildingBlock: AJUNOK_clean_linker_0, # of connection points: 2
#     Edge 63, Type (0, 0), BuildingBlock: AJUNOK_clean_linker_0, # of connection points: 2
#     Edge 64, Type (0, 0), BuildingBlock: AJUNOK_clean_linker_0, # of connection points: 2
#     Edge 65, Type (0, 0), BuildingBlock: AJUNOK_clean_linker_0, # of connection points: 2
#     Edge 66, Type (0, 0), BuildingBlock: AJUNOK_clean_linker_0, # of connection points: 2
#     Edge 67, Type (0, 0), BuildingBlock: AJUNOK_clean_linker_0, # of connection points: 2
#     Edge 68, Type (0, 0), BuildingBlock: AJUNOK_clean_linker_0, # of connection points: 2
#     Edge 69, Type (0, 0), BuildingBlock: AJUNOK_clean_linker_0, # of connection points: 2
#     Edge 70, Type (0, 0), BuildingBlock: AJUNOK_clean_linker_0, # of connection points: 2
#     Edge 71, Type (0, 0), BuildingBlock: AJUNOK_clean_linker_0, # of connection points: 2
#     Edge 72, Type (0, 0), BuildingBlock: AJUNOK_clean_linker_0, # of connection points: 2
#     Edge 73, Type (0, 0), BuildingBlock: AJUNOK_clean_linker_0, # of connection points: 2
#     Edge 74, Type (0, 0), BuildingBlock: AJUNOK_clean_linker_0, # of connection points: 2
#     Edge 75, Type (0, 0), BuildingBlock: AJUNOK_clean_linker_0, # of connection points: 2
#     Edge 76, Type (0, 0), BuildingBlock: AJUNOK_clean_linker_0, # of connection points: 2
#     Edge 77, Type (0, 0), BuildingBlock: AJUNOK_clean_linker_0, # of connection points: 2
#     Edge 78, Type (0, 0), BuildingBlock: AJUNOK_clean_linker_0, # of connection points: 2
#     Edge 79, Type (0, 0), BuildingBlock: AJUNOK_clean_linker_0, # of connection points: 2
#     Edge 80, Type (0, 0), BuildingBlock: AJUNOK_clean_linker_0, # of connection points: 2
#     Edge 81, Type (0, 0), BuildingBlock: AJUNOK_clean_linker_0, # of connection points: 2
#     Edge 82, Type (0, 0), BuildingBlock: AJUNOK_clean_linker_0, # of connection points: 2
#     Edge 83, Type (0, 0), BuildingBlock: AJUNOK_clean_linker_0, # of connection points: 2
#     Edge 84, Type (0, 0), BuildingBlock: AJUNOK_clean_linker_0, # of connection points: 2
#     Edge 85, Type (0, 0), BuildingBlock: AJUNOK_clean_linker_0, # of connection points: 2
#     Edge 86, Type (0, 0), BuildingBlock: AJUNOK_clean_linker_0, # of connection points: 2
#     Edge 87, Type (0, 0), BuildingBlock: AJUNOK_clean_linker_0, # of connection points: 2
#     Edge 88, Type (0, 0), BuildingBlock: AJUNOK_clean_linker_0, # of connection points: 2
#     Edge 89, Type (0, 0), BuildingBlock: AJUNOK_clean_linker_0, # of connection points: 2
#     Edge 90, Type (0, 0), BuildingBlock: AJUNOK_clean_linker_0, # of connection points: 2
#     Edge 91, Type (0, 0), BuildingBlock: AJUNOK_clean_linker_0, # of connection points: 2
#     Edge 92, Type (0, 0), BuildingBlock: AJUNOK_clean_linker_0, # of connection points: 2
#     Edge 93, Type (0, 0), BuildingBlock: AJUNOK_clean_linker_0, # of connection points: 2
#     Edge 94, Type (0, 0), BuildingBlock: AJUNOK_clean_linker_0, # of connection points: 2
#     Edge 95, Type (0, 0), BuildingBlock: AJUNOK_clean_linker_0, # of connection points: 2
# Relax obj value: 0.061
# Max RMSD: 0.085
# Mean RMSD: 0.085
data_MOF--net-umq--node1-TATPOV_clean_sbu_0--edge1-AJUNOK_clean_linker_0
_symmetry_space_group_name_H-M    P1
_symmetry_Int_Tables_number       1
_symmetry_cell_setting            triclinic
loop_
_symmetry_equiv_pos_as_xyz
'x, y, z'
_cell_length_a     48.69306
_cell_length_b     48.653731
_cell_length_c     33.376653
_cell_angle_alpha  90.058249
_cell_angle_beta   89.86311
_cell_angle_gamma 89.888572
loop_
_atom_site_label
_atom_site_type_symbol
_atom_site_fract_x
_atom_site_fract_y
_atom_site_fract_z
_atom_type_partial_charge
Zn0 Zn 0.23648 0.12881 0.10147 0.0
Zn1 Zn 0.25503 0.08881 0.14369 0.0
O2 O 0.24423 0.0705 0.08931 0.0
O3 O 0.22225 0.10422 0.05939 0.0
O4 O 0.26465 0.0554 0.17653 0.0
O5 O 0.21021 0.14234 0.14228 0.0
O6 O 0.22365 0.10673 0.17775 0.0
C7 C 0.22984 0.07941 0.06023 0.0
C8 C 0.29431 0.13387 0.11836 0.0
O9 O 0.29031 0.11282 0.14039 0.0
O10 O 0.27484 0.14374 0.09779 0.0
C11 C 0.2732 0.05631 0.21245 0.0
O12 O 0.27763 0.08037 0.22908 0.0
C13 C 0.20811 0.12771 0.17334 0.0
Zn14 Zn 0.87467 0.2514 0.11386 0.0
Zn15 Zn 0.92042 0.25611 0.15599 0.0
O16 O 0.93458 0.2473 0.09838 0.0
O17 O 0.89591 0.24377 0.06449 0.0
O18 O 0.95573 0.25729 0.18779 0.0
O19 O 0.86141 0.21994 0.14744 0.0
O20 O 0.89912 0.22423 0.18299 0.0
C21 C 0.92182 0.24301 0.06568 0.0
C22 C 0.87965 0.30425 0.15078 0.0
O23 O 0.90181 0.2943 0.1651 0.0
O24 O 0.86473 0.29007 0.12775 0.0
C25 C 0.96819 0.279 0.19869 0.0
O26 O 0.9578 0.30308 0.18937 0.0
C27 C 0.87632 0.21217 0.17629 0.0
Zn28 Zn 0.78677 0.87496 0.09333 0.0
Zn29 Zn 0.7671 0.91564 0.13324 0.0
O30 O 0.77686 0.93188 0.07716 0.0
O31 O 0.80062 0.89847 0.04938 0.0
O32 O 0.75685 0.95031 0.16288 0.0
O33 O 0.81312 0.86315 0.13494 0.0
O34 O 0.79861 0.89924 0.16861 0.0
C35 C 0.79165 0.92282 0.0485 0.0
C36 C 0.72872 0.86935 0.11133 0.0
O37 O 0.73231 0.89112 0.13201 0.0
O38 O 0.74845 0.85927 0.09127 0.0
C39 C 0.74653 0.95156 0.19781 0.0
O40 O 0.74075 0.92859 0.21668 0.0
C41 C 0.8146 0.87847 0.1654 0.0
Zn42 Zn 0.13398 0.78321 0.1113 0.0
Zn43 Zn 0.09608 0.76277 0.15594 0.0
O44 O 0.07574 0.7736 0.10323 0.0
O45 O 0.10719 0.79819 0.07255 0.0
O46 O 0.06497 0.7516 0.19297 0.0
O47 O 0.14919 0.80858 0.15186 0.0
O48 O 0.11464 0.79432 0.18873 0.0
C49 C 0.08289 0.78927 0.07452 0.0
C50 C 0.14095 0.72505 0.125 0.0
O51 O 0.12088 0.72829 0.14923 0.0
O52 O 0.14941 0.7451 0.10423 0.0
C53 C 0.04194 0.74281 0.18038 0.0
O54 O 0.03862 0.73864 0.14182 0.0
C55 C 0.13542 0.80999 0.18389 0.0
Zn56 Zn 0.21507 0.87354 0.38342 0.0
Zn57 Zn 0.23757 0.90837 0.33493 0.0
O58 O 0.22915 0.93083 0.38666 0.0
O59 O 0.20388 0.90246 0.42209 0.0
O60 O 0.25055 0.93818 0.29732 0.0
O61 O 0.18766 0.85966 0.34464 0.0
O62 O 0.20542 0.89004 0.30339 0.0
C63 C 0.21447 0.92592 0.41745 0.0
C64 C 0.27232 0.86144 0.36568 0.0
O65 O 0.27024 0.88179 0.34182 0.0
O66 O 0.25211 0.85483 0.38763 0.0
C67 C 0.26663 0.95703 0.30939 0.0
O68 O 0.27638 0.95563 0.34599 0.0
C69 C 0.18794 0.87111 0.31073 0.0
Zn70 Zn 0.14737 0.20911 0.37333 0.0
Zn71 Zn 0.11288 0.23235 0.32416 0.0
O72 O 0.09035 0.22603 0.37612 0.0
O73 O 0.11772 0.20041 0.41269 0.0
O74 O 0.08323 0.2443 0.28592 0.0
O75 O 0.16012 0.18031 0.33511 0.0
O76 O 0.13049 0.19929 0.29405 0.0
C77 C 0.09473 0.21199 0.40764 0.0
C78 C 0.16059 0.26625 0.35283 0.0
O79 O 0.13991 0.26463 0.32959 0.0
O80 O 0.16693 0.24595 0.37483 0.0
C81 C 0.06872 0.26575 0.29132 0.0
O82 O 0.07429 0.28194 0.32175 0.0
C83 C 0.14874 0.18105 0.30115 0.0
Zn84 Zn 0.79343 0.13896 0.3632 0.0
Zn85 Zn 0.77203 0.10458 0.31394 0.0
O86 O 0.78084 0.08211 0.36568 0.0
O87 O 0.80565 0.11055 0.40157 0.0
O88 O 0.76061 0.07432 0.27591 0.0
O89 O 0.82077 0.15408 0.32541 0.0
O90 O 0.80369 0.12435 0.28253 0.0
C91 C 0.79546 0.08697 0.39648 0.0
C92 C 0.73569 0.14955 0.34643 0.0
O93 O 0.73827 0.12981 0.32151 0.0
O94 O 0.75581 0.15637 0.36831 0.0
C95 C 0.74612 0.05418 0.28785 0.0
O96 O 0.73672 0.05433 0.32478 0.0
C97 C 0.82087 0.14334 0.29098 0.0
Zn98 Zn 0.86848 0.80034 0.37059 0.0
Zn99 Zn 0.90016 0.77212 0.32252 0.0
O100 O 0.92109 0.776 0.37627 0.0
O101 O 0.89782 0.80623 0.41148 0.0
O102 O 0.92884 0.75739 0.28381 0.0
O103 O 0.85886 0.83001 0.332 0.0
O104 O 0.88554 0.8063 0.29168 0.0
C105 C 0.91847 0.79066 0.40769 0.0
C106 C 0.84947 0.74401 0.35145 0.0
O107 O 0.87023 0.74277 0.32816 0.0
O108 O 0.8453 0.76547 0.37232 0.0
C109 C 0.95155 0.74671 0.29451 0.0
O110 O 0.9564 0.74304 0.33282 0.0
C111 C 0.86968 0.82682 0.29789 0.0
Zn112 Zn 0.79003 0.8634 0.85685 0.0
Zn113 Zn 0.76779 0.89848 0.80957 0.0
O114 O 0.77831 0.92046 0.86115 0.0
O115 O 0.80332 0.89116 0.89535 0.0
O116 O 0.75524 0.92937 0.77353 0.0
O117 O 0.81648 0.84882 0.81727 0.0
O118 O 0.79874 0.87914 0.7758 0.0
C119 C 0.79354 0.91502 0.89112 0.0
C120 C 0.73201 0.85342 0.84303 0.0
O121 O 0.73411 0.87338 0.81847 0.0
O122 O 0.75262 0.84614 0.8636 0.0
C123 C 0.73991 0.94843 0.78721 0.0
O124 O 0.73042 0.94626 0.82394 0.0
C125 C 0.81606 0.86003 0.78319 0.0
Zn126 Zn 0.14063 0.79728 0.88615 0.0
Zn127 Zn 0.10576 0.77478 0.83733 0.0
O128 O 0.08295 0.7825 0.88883 0.0
O129 O 0.11103 0.80804 0.92428 0.0
O130 O 0.07642 0.76271 0.7987 0.0
O131 O 0.15455 0.82493 0.84739 0.0
O132 O 0.12398 0.80722 0.8066 0.0
C133 C 0.08765 0.79731 0.91951 0.0
C134 C 0.15257 0.73985 0.86761 0.0
O135 O 0.13226 0.74204 0.84377 0.0
O136 O 0.15916 0.75999 0.88973 0.0
C137 C 0.05808 0.74531 0.8081 0.0
O138 O 0.05943 0.73324 0.84324 0.0
C139 C 0.14289 0.82474 0.81366 0.0
Zn140 Zn 0.20936 0.1397 0.87438 0.0
Zn141 Zn 0.23468 0.10731 0.82385 0.0
O142 O 0.22832 0.08327 0.87437 0.0
O143 O 0.20109 0.10878 0.91156 0.0
O144 O 0.24918 0.08013 0.78313 0.0
O145 O 0.18079 0.15245 0.83615 0.0
O146 O 0.2014 0.12456 0.79389 0.0
C147 C 0.2137 0.08638 0.90573 0.0
C148 C 0.26621 0.15525 0.85735 0.0
O149 O 0.26557 0.13531 0.83257 0.0
O150 O 0.24534 0.16054 0.87883 0.0
C151 C 0.26284 0.05882 0.79266 0.0
O152 O 0.26911 0.05469 0.83044 0.0
C153 C 0.18243 0.14198 0.80158 0.0
Zn154 Zn 0.864 0.20194 0.87523 0.0
Zn155 Zn 0.89571 0.22893 0.82629 0.0
O156 O 0.91727 0.22571 0.87949 0.0
O157 O 0.89353 0.19682 0.91615 0.0
O158 O 0.92489 0.24256 0.78813 0.0
O159 O 0.85418 0.17168 0.83751 0.0
O160 O 0.88081 0.1946 0.79633 0.0
C161 C 0.91445 0.21185 0.91159 0.0
C162 C 0.84528 0.25809 0.85443 0.0
O163 O 0.86611 0.25883 0.83123 0.0
O164 O 0.84093 0.23694 0.87579 0.0
C165 C 0.94117 0.26212 0.79654 0.0
O166 O 0.93767 0.27561 0.83029 0.0
C167 C 0.86486 0.17432 0.80321 0.0
Zn168 Zn 0.78258 0.12771 0.59778 0.0
Zn169 Zn 0.76167 0.08734 0.63688 0.0
O170 O 0.77247 0.07064 0.58137 0.0
O171 O 0.79665 0.10389 0.55425 0.0
O172 O 0.7504 0.05302 0.66638 0.0
O173 O 0.80857 0.13876 0.64029 0.0
O174 O 0.79282 0.10307 0.67345 0.0
C175 C 0.78774 0.07956 0.55322 0.0
C176 C 0.72442 0.13451 0.61369 0.0
O177 O 0.72727 0.11257 0.63422 0.0
O178 O 0.74466 0.14428 0.59456 0.0
C179 C 0.73899 0.05232 0.70064 0.0
O180 O 0.73265 0.07557 0.71845 0.0
C181 C 0.80929 0.12342 0.67074 0.0
Zn182 Zn 0.87276 0.75149 0.60762 0.0
Zn183 Zn 0.91771 0.74783 0.65232 0.0
O184 O 0.93284 0.75564 0.59513 0.0
O185 O 0.89515 0.75751 0.55874 0.0
O186 O 0.95269 0.74746 0.68473 0.0
O187 O 0.85902 0.78388 0.63956 0.0
O188 O 0.8958 0.78 0.6772 0.0
C189 C 0.92099 0.75866 0.56144 0.0
C190 C 0.87723 0.69966 0.64792 0.0
O191 O 0.89912 0.70992 0.66252 0.0
O192 O 0.86273 0.71323 0.62353 0.0
C193 C 0.95832 0.73146 0.71366 0.0
O194 O 0.94015 0.71304 0.72476 0.0
C195 C 0.8732 0.79204 0.66898 0.0
Zn196 Zn 0.2264 0.87802 0.60974 0.0
Zn197 Zn 0.24854 0.91554 0.65369 0.0
O198 O 0.23738 0.93603 0.60134 0.0
O199 O 0.21173 0.90526 0.5712 0.0
O200 O 0.26068 0.94638 0.69023 0.0
O201 O 0.2013 0.86365 0.6515 0.0
O202 O 0.21747 0.89756 0.68788 0.0
C203 C 0.22134 0.92932 0.5729 0.0
C204 C 0.28473 0.86986 0.62189 0.0
O205 O 0.28233 0.89014 0.64591 0.0
O206 O 0.26417 0.86172 0.60198 0.0
C207 C 0.26901 0.96956 0.67749 0.0
O208 O 0.27232 0.97318 0.63881 0.0
C209 C 0.20112 0.87725 0.68373 0.0
Zn210 Zn 0.12858 0.2361 0.61016 0.0
Zn211 Zn 0.08472 0.24776 0.65063 0.0
O212 O 0.06984 0.23734 0.59386 0.0
O213 O 0.1075 0.22281 0.56387 0.0
O214 O 0.04936 0.2524 0.68208 0.0
O215 O 0.14275 0.20859 0.64837 0.0
O216 O 0.10497 0.21675 0.68268 0.0
C217 C 0.08187 0.22665 0.56365 0.0
C218 C 0.12646 0.29279 0.63363 0.0
O219 O 0.10467 0.28562 0.65213 0.0
O220 O 0.13983 0.27553 0.61296 0.0
C221 C 0.04234 0.27274 0.70383 0.0
O222 O 0.05913 0.2937 0.70726 0.0
C223 C 0.12744 0.20346 0.67798 0.0
Zn224 Zn 0.73984 0.63374 0.63364 0.0
Zn225 Zn 0.74534 0.5869 0.6711 0.0
O226 O 0.73583 0.57435 0.61326 0.0
O227 O 0.73397 0.61426 0.58213 0.0
O228 O 0.74624 0.55085 0.70115 0.0
O229 O 0.70744 0.64572 0.66557 0.0
O230 O 0.71401 0.60816 0.70083 0.0
C231 C 0.73256 0.58834 0.5814 0.0
C232 C 0.79326 0.62754 0.66741 0.0
O233 O 0.78453 0.60374 0.67701 0.0
O234 O 0.77772 0.64449 0.64983 0.0
C235 C 0.76741 0.53774 0.71268 0.0
O236 O 0.79187 0.54806 0.70575 0.0
C237 C 0.70082 0.63048 0.69465 0.0
Zn238 Zn 0.37509 0.72814 0.60328 0.0
Zn239 Zn 0.41312 0.749 0.64691 0.0
O240 O 0.43287 0.73881 0.5934 0.0
O241 O 0.40161 0.71379 0.56324 0.0
O242 O 0.44493 0.75953 0.68234 0.0
O243 O 0.36056 0.70255 0.64428 0.0
O244 O 0.39482 0.71782 0.68061 0.0
C245 C 0.4257 0.72332 0.56449 0.0
C246 C 0.36781 0.78644 0.6183 0.0
O247 O 0.3883 0.7834 0.64165 0.0
O248 O 0.35927 0.76632 0.59771 0.0
C249 C 0.4658 0.77283 0.67011 0.0
O250 O 0.46603 0.78226 0.63326 0.0
C251 C 0.37423 0.70186 0.67636 0.0
Zn252 Zn 0.26182 0.37372 0.60069 0.0
Zn253 Zn 0.25087 0.41635 0.64686 0.0
O254 O 0.26119 0.4348 0.59228 0.0
O255 O 0.27263 0.3984 0.55642 0.0
O256 O 0.24519 0.4482 0.6851 0.0
O257 O 0.29089 0.35904 0.63694 0.0
O258 O 0.28261 0.39514 0.67475 0.0
C259 C 0.27003 0.42414 0.5598 0.0
C260 C 0.20597 0.3743 0.6283 0.0
O261 O 0.21354 0.39555 0.64774 0.0
O262 O 0.22267 0.36176 0.60563 0.0
C263 C 0.23883 0.47252 0.67466 0.0
O264 O 0.23454 0.47779 0.6366 0.0
C265 C 0.29624 0.3732 0.66769 0.0
Zn266 Zn 0.628 0.27366 0.60843 0.0
Zn267 Zn 0.59029 0.24907 0.64911 0.0
O268 O 0.57125 0.25942 0.59507 0.0
O269 O 0.60163 0.28705 0.56779 0.0
O270 O 0.55918 0.23598 0.6848 0.0
O271 O 0.63968 0.2994 0.65102 0.0
O272 O 0.6058 0.28072 0.68478 0.0
C273 C 0.57819 0.27601 0.56732 0.0
C274 C 0.63863 0.21545 0.62007 0.0
O275 O 0.61739 0.21636 0.64253 0.0
O276 O 0.64644 0.23679 0.60158 0.0
C277 C 0.5346 0.23218 0.67325 0.0
O278 O 0.52887 0.2342 0.63494 0.0
C279 C 0.62514 0.29834 0.68234 0.0
Zn280 Zn 0.70221 0.35532 0.88688 0.0
Zn281 Zn 0.72564 0.38994 0.838 0.0
O282 O 0.72171 0.41084 0.89182 0.0
O283 O 0.69598 0.38397 0.929 0.0
O284 O 0.73597 0.42047 0.80024 0.0
O285 O 0.67191 0.34422 0.8501 0.0
O286 O 0.69199 0.37309 0.809 0.0
C287 C 0.70873 0.40636 0.92433 0.0
C288 C 0.75878 0.3409 0.86163 0.0
O289 O 0.75756 0.36238 0.83985 0.0
O290 O 0.73862 0.33464 0.88402 0.0
C291 C 0.75657 0.43621 0.80425 0.0
O292 O 0.77423 0.43138 0.83311 0.0
C293 C 0.67308 0.3556 0.81616 0.0
Zn294 Zn 0.63167 0.71742 0.87951 0.0
Zn295 Zn 0.59724 0.73828 0.82997 0.0
O296 O 0.5757 0.73364 0.88365 0.0
O297 O 0.60369 0.70915 0.9208 0.0
O298 O 0.56616 0.74889 0.79321 0.0
O299 O 0.64448 0.68733 0.84417 0.0
O300 O 0.61497 0.70434 0.80102 0.0
C301 C 0.5806 0.72047 0.91583 0.0
C302 C 0.64484 0.77348 0.85502 0.0
O303 O 0.62417 0.7709 0.83194 0.0
O304 O 0.6512 0.75414 0.87871 0.0
C305 C 0.5656 0.76715 0.766 0.0
O306 O 0.58771 0.7818 0.75894 0.0
C307 C 0.63324 0.68651 0.81016 0.0
Zn308 Zn 0.29378 0.64198 0.87934 0.0
Zn309 Zn 0.26979 0.60817 0.82988 0.0
O310 O 0.27769 0.58437 0.88047 0.0
O311 O 0.30417 0.61151 0.91606 0.0
O312 O 0.25634 0.58072 0.78872 0.0
O313 O 0.32137 0.65589 0.8404 0.0
O314 O 0.30241 0.62627 0.79925 0.0
C315 C 0.29289 0.58841 0.91093 0.0
C316 C 0.23642 0.65534 0.86356 0.0
O317 O 0.23783 0.63532 0.83894 0.0
O318 O 0.25705 0.6613 0.88499 0.0
C319 C 0.24619 0.5574 0.79736 0.0
O320 O 0.24269 0.5508 0.83518 0.0
C321 C 0.32049 0.64464 0.80634 0.0
Zn322 Zn 0.36472 0.29694 0.86547 0.0
Zn323 Zn 0.39726 0.2707 0.81748 0.0
O324 O 0.4208 0.27958 0.868 0.0
O325 O 0.39476 0.30813 0.90213 0.0
O326 O 0.42528 0.25537 0.77852 0.0
O327 O 0.35091 0.32349 0.82527 0.0
O328 O 0.37912 0.30219 0.78419 0.0
C329 C 0.41735 0.29566 0.89776 0.0
C330 C 0.35012 0.23939 0.85364 0.0
O331 O 0.36987 0.23951 0.82848 0.0
O332 O 0.34467 0.26088 0.87366 0.0
C333 C 0.44611 0.24154 0.78966 0.0
O334 O 0.44878 0.23536 0.82775 0.0
C335 C 0.36113 0.32084 0.79067 0.0
Zn336 Zn 0.29996 0.36814 0.3702 0.0
Zn337 Zn 0.27485 0.4011 0.32139 0.0
O338 O 0.28026 0.42297 0.37458 0.0
O339 O 0.30802 0.39733 0.41036 0.0
O340 O 0.26179 0.43031 0.28237 0.0
O341 O 0.32909 0.35595 0.33235 0.0
O342 O 0.30813 0.38382 0.29066 0.0
C343 C 0.29468 0.41942 0.40598 0.0
C344 C 0.24316 0.35235 0.35081 0.0
O345 O 0.24363 0.37296 0.32724 0.0
O346 O 0.26392 0.34706 0.37243 0.0
C347 C 0.24969 0.45231 0.29332 0.0
O348 O 0.24335 0.45558 0.33129 0.0
C349 C 0.32728 0.36651 0.29793 0.0
Zn350 Zn 0.63642 0.28737 0.37661 0.0
Zn351 Zn 0.60238 0.26654 0.32612 0.0
O352 O 0.57962 0.27189 0.37863 0.0
O353 O 0.60737 0.29632 0.41623 0.0
O354 O 0.57291 0.25569 0.28672 0.0
O355 O 0.65034 0.31686 0.3411 0.0
O356 O 0.6207 0.30025 0.29795 0.0
C357 C 0.58421 0.28532 0.4107 0.0
C358 C 0.64933 0.23097 0.35375 0.0
O359 O 0.62914 0.23371 0.32981 0.0
O360 O 0.6555 0.25038 0.37744 0.0
C361 C 0.55511 0.23738 0.29475 0.0
O362 O 0.55711 0.22386 0.32867 0.0
C363 C 0.63931 0.31768 0.30692 0.0
Zn364 Zn 0.70566 0.64955 0.38571 0.0
Zn365 Zn 0.72826 0.61374 0.338 0.0
O366 O 0.72347 0.59367 0.39246 0.0
O367 O 0.69782 0.62178 0.42805 0.0
O368 O 0.73853 0.58235 0.30121 0.0
O369 O 0.67603 0.6612 0.3486 0.0
O370 O 0.69493 0.63092 0.30823 0.0
C371 C 0.70991 0.59893 0.42427 0.0
C372 C 0.76237 0.66239 0.36112 0.0
O373 O 0.76062 0.64083 0.33951 0.0
O374 O 0.74241 0.66926 0.38355 0.0
C375 C 0.7623 0.57193 0.29665 0.0
O376 O 0.78315 0.58265 0.31603 0.0
C377 C 0.67661 0.64918 0.31508 0.0
Zn378 Zn 0.36827 0.71916 0.37539 0.0
Zn379 Zn 0.40284 0.74311 0.32745 0.0
O380 O 0.42601 0.73422 0.37815 0.0
O381 O 0.39802 0.70786 0.41259 0.0
O382 O 0.43113 0.75728 0.28818 0.0
O383 O 0.35453 0.69223 0.33552 0.0
O384 O 0.3851 0.71086 0.29549 0.0
C385 C 0.42133 0.71884 0.40826 0.0
C386 C 0.35577 0.77672 0.36105 0.0
O387 O 0.37594 0.77527 0.33671 0.0
O388 O 0.34931 0.75595 0.38192 0.0
C389 C 0.4525 0.77034 0.29886 0.0
O390 O 0.45582 0.77644 0.33689 0.0
C391 C 0.3663 0.69308 0.30179 0.0
Zn392 Zn 0.28123 0.63431 0.10328 0.0
Zn393 Zn 0.26192 0.5965 0.14938 0.0
O394 O 0.27165 0.57609 0.09584 0.0
O395 O 0.29488 0.60768 0.06321 0.0
O396 O 0.25166 0.56568 0.18769 0.0
O397 O 0.30777 0.64958 0.14204 0.0
O398 O 0.29373 0.61586 0.18071 0.0
C399 C 0.28623 0.58331 0.06589 0.0
C400 C 0.22353 0.64146 0.12078 0.0
O401 O 0.22728 0.62123 0.14447 0.0
O402 O 0.24307 0.64997 0.09901 0.0
C403 C 0.24585 0.54129 0.1768 0.0
O404 O 0.24482 0.5355 0.1384 0.0
C405 C 0.3095 0.63641 0.17449 0.0
Zn406 Zn 0.37681 0.27614 0.09804 0.0
Zn407 Zn 0.41845 0.25935 0.13877 0.0
O408 O 0.43511 0.26985 0.0831 0.0
O409 O 0.40025 0.29091 0.05463 0.0
O410 O 0.4528 0.25134 0.1706 0.0
O411 O 0.36299 0.30208 0.13932 0.0
O412 O 0.40008 0.29059 0.17272 0.0
C413 C 0.4252 0.2838 0.05424 0.0
C414 C 0.37447 0.21816 0.11627 0.0
O415 O 0.39569 0.22322 0.13737 0.0
O416 O 0.36347 0.23703 0.09568 0.0
C417 C 0.45556 0.23342 0.19801 0.0
O418 O 0.43464 0.21758 0.20707 0.0
C419 C 0.37826 0.30506 0.16955 0.0
Zn420 Zn 0.74423 0.3737 0.13041 0.0
Zn421 Zn 0.74919 0.41979 0.16931 0.0
O422 O 0.73885 0.43285 0.1117 0.0
O423 O 0.73761 0.39326 0.07953 0.0
O424 O 0.7507 0.45546 0.20052 0.0
O425 O 0.71219 0.36107 0.16236 0.0
O426 O 0.71818 0.39817 0.19901 0.0
C427 C 0.73556 0.41913 0.07951 0.0
C428 C 0.79755 0.3793 0.16374 0.0
O429 O 0.78848 0.40272 0.17488 0.0
O430 O 0.78226 0.36274 0.14506 0.0
C431 C 0.77185 0.47064 0.20351 0.0
O432 O 0.79467 0.46304 0.18556 0.0
C433 C 0.70527 0.37586 0.19182 0.0
Zn434 Zn 0.62961 0.73247 0.10909 0.0
Zn435 Zn 0.5934 0.75779 0.15229 0.0
O436 O 0.57238 0.74786 0.09981 0.0
O437 O 0.60156 0.71978 0.07044 0.0
O438 O 0.56374 0.77161 0.18999 0.0
O439 O 0.64198 0.70642 0.15086 0.0
O440 O 0.60918 0.7256 0.18645 0.0
C441 C 0.57823 0.73112 0.07166 0.0
C442 C 0.64157 0.79036 0.12049 0.0
O443 O 0.62096 0.78981 0.14417 0.0
O444 O 0.64849 0.76892 0.10135 0.0
C445 C 0.53929 0.77737 0.17957 0.0
O446 O 0.53288 0.77691 0.14137 0.0
C447 C 0.62814 0.70759 0.18285 0.0
C448 C 0.35306 0.17859 0.15282 0.0
C449 C 0.361 0.191 0.11652 0.0
C450 C 0.33315 0.15758 0.15334 0.0
C451 C 0.32082 0.14856 0.11757 0.0
H452 H 0.36039 0.18674 0.18104 0.0
H453 H 0.32569 0.15017 0.18196 0.0
S454 S 0.33915 0.17034 0.01458 0.0
N455 N 0.3584 0.18967 0.04391 0.0
N456 N 0.32124 0.15039 0.04488 0.0
C457 C 0.33082 0.15884 0.08108 0.0
C458 C 0.35088 0.18005 0.08056 0.0
C459 C 0.86461 0.35097 0.13278 0.0
C460 C 0.869 0.3313 0.16289 0.0
C461 C 0.84355 0.37051 0.13638 0.0
C462 C 0.82616 0.37075 0.17002 0.0
H463 H 0.87532 0.34921 0.10439 0.0
H464 H 0.8387 0.38313 0.11059 0.0
S465 S 0.83222 0.3266 0.25978 0.0
N466 N 0.85705 0.31583 0.22975 0.0
N467 N 0.81709 0.35234 0.23622 0.0
C468 C 0.83254 0.35347 0.20231 0.0
C469 C 0.85415 0.33372 0.19881 0.0
C470 C 0.66597 0.83126 0.14964 0.0
C471 C 0.65897 0.8151 0.11616 0.0
C472 C 0.68739 0.85065 0.14739 0.0
C473 C 0.70231 0.85435 0.11161 0.0
H474 H 0.65623 0.82755 0.17834 0.0
H475 H 0.69351 0.86134 0.17441 0.0
S476 S 0.68788 0.82139 0.01362 0.0
N477 N 0.66567 0.80729 0.04486 0.0
N478 N 0.70569 0.84346 0.04068 0.0
C479 C 0.69371 0.84012 0.07721 0.0
C480 C 0.67208 0.82056 0.07948 0.0
C481 C 0.18339 0.66329 0.15603 0.0
C482 C 0.19743 0.65709 0.12019 0.0
C483 C 0.16304 0.68392 0.15707 0.0
C484 C 0.15627 0.69882 0.12232 0.0
H485 H 0.1896 0.65374 0.18388 0.0
H486 H 0.15418 0.68963 0.1857 0.0
S487 S 0.18274 0.68599 0.01966 0.0
N488 N 0.19988 0.66425 0.04821 0.0
N489 N 0.1619 0.70279 0.05019 0.0
C490 C 0.16824 0.6908 0.08578 0.0
C491 C 0.18877 0.66996 0.08472 0.0
C492 C 0.3007 0.82529 0.39835 0.0
C493 C 0.29716 0.8437 0.36629 0.0
C494 C 0.3208 0.80477 0.39718 0.0
C495 C 0.33833 0.80171 0.36391 0.0
H496 H 0.28712 0.82598 0.4241 0.0
H497 H 0.32187 0.79055 0.42209 0.0
S498 S 0.33996 0.84672 0.27421 0.0
N499 N 0.31469 0.85926 0.30186 0.0
N500 N 0.35265 0.82054 0.29968 0.0
C501 C 0.33644 0.82119 0.33285 0.0
C502 C 0.31582 0.84222 0.33403 0.0
C503 C 0.21766 0.31434 0.38411 0.0
C504 C 0.21931 0.33333 0.35242 0.0
C505 C 0.19781 0.29366 0.38461 0.0
C506 C 0.17859 0.2909 0.35346 0.0
H507 H 0.23232 0.31491 0.40845 0.0
H508 H 0.19809 0.27924 0.40931 0.0
S509 S 0.17226 0.33685 0.26519 0.0
N510 N 0.19864 0.34931 0.29033 0.0
N511 N 0.16115 0.31026 0.29129 0.0
C512 C 0.17893 0.31063 0.32258 0.0
C513 C 0.19931 0.33186 0.32206 0.0
C514 C 0.70528 0.18149 0.38422 0.0
C515 C 0.7101 0.16604 0.34925 0.0
C516 C 0.68437 0.20113 0.38603 0.0
C517 C 0.6673 0.20629 0.35292 0.0
H518 H 0.71849 0.17918 0.4101 0.0
H519 H 0.68233 0.21316 0.41322 0.0
S520 S 0.66909 0.16911 0.2558 0.0
N521 N 0.69436 0.15529 0.28193 0.0
N522 N 0.65486 0.19245 0.28529 0.0
C523 C 0.67048 0.18961 0.31871 0.0
C524 C 0.69193 0.16943 0.31688 0.0
C525 C 0.78913 0.70186 0.38798 0.0
C526 C 0.78678 0.68068 0.35945 0.0
C527 C 0.80991 0.72151 0.38552 0.0
C528 C 0.82947 0.72103 0.35443 0.0
H529 H 0.77442 0.70373 0.41223 0.0
H530 H 0.81025 0.73756 0.40805 0.0
S531 S 0.83391 0.66875 0.27351 0.0
N532 N 0.80686 0.65943 0.30015 0.0
N533 N 0.84615 0.69655 0.29555 0.0
C534 C 0.82821 0.69931 0.32652 0.0
C535 C 0.80685 0.67913 0.32903 0.0
C536 C 0.70215 0.82206 0.88237 0.0
C537 C 0.70631 0.83734 0.84713 0.0
C538 C 0.68104 0.80279 0.88532 0.0
C539 C 0.66311 0.79784 0.85314 0.0
H540 H 0.716 0.82421 0.90754 0.0
H541 H 0.67951 0.79088 0.91265 0.0
S542 S 0.66301 0.83476 0.75589 0.0
N543 N 0.68909 0.8482 0.78064 0.0
N544 N 0.64921 0.81173 0.78615 0.0
C545 C 0.66567 0.81438 0.81872 0.0
C546 C 0.68733 0.83419 0.81573 0.0
C547 C 0.18839 0.71108 0.9004 0.0
C548 C 0.1702 0.7149 0.86818 0.0
C549 C 0.20865 0.69072 0.89939 0.0
C550 C 0.2117 0.67319 0.86612 0.0
H551 H 0.18768 0.7246 0.92621 0.0
H552 H 0.22268 0.6894 0.92448 0.0
S553 S 0.1673 0.67239 0.77586 0.0
N554 N 0.1549 0.69775 0.80348 0.0
N555 N 0.19314 0.6593 0.80158 0.0
C556 C 0.19248 0.67544 0.83482 0.0
C557 C 0.1717 0.69633 0.83585 0.0
C558 C 0.32895 0.19639 0.82585 0.0
C559 C 0.3319 0.21515 0.8577 0.0
C560 C 0.30853 0.17602 0.82672 0.0
C561 C 0.29038 0.17371 0.85947 0.0
H562 H 0.34153 0.19831 0.7992 0.0
H563 H 0.30611 0.16291 0.80072 0.0
S564 S 0.29285 0.21461 0.95341 0.0
N565 N 0.31734 0.22772 0.92507 0.0
N566 N 0.27916 0.18961 0.92672 0.0
C567 C 0.2945 0.19106 0.89268 0.0
C568 C 0.3152 0.21172 0.8918 0.0
C569 C 0.80538 0.2811 0.88725 0.0
C570 C 0.82535 0.28126 0.85669 0.0
C571 C 0.78472 0.30099 0.88906 0.0
C572 C 0.7829 0.32211 0.86041 0.0
H573 H 0.80532 0.26514 0.90986 0.0
H574 H 0.76972 0.29938 0.91295 0.0
S575 S 0.83115 0.33316 0.77563 0.0
N576 N 0.84291 0.30531 0.79811 0.0
N577 N 0.80385 0.34289 0.80151 0.0
C578 C 0.80333 0.3233 0.83048 0.0
C579 C 0.82457 0.30286 0.82862 0.0
C580 C 0.66169 0.17393 0.64989 0.0
C581 C 0.65561 0.1903 0.61627 0.0
C582 C 0.68277 0.15403 0.64831 0.0
C583 C 0.69825 0.15005 0.61308 0.0
H584 H 0.65151 0.17781 0.67823 0.0
H585 H 0.6882 0.14317 0.67548 0.0
S586 S 0.68624 0.18353 0.51483 0.0
N587 N 0.66376 0.19809 0.54531 0.0
N588 N 0.70311 0.16099 0.54239 0.0
C589 C 0.69055 0.16453 0.57847 0.0
C590 C 0.66927 0.1846 0.58006 0.0
C591 C 0.83937 0.63398 0.63912 0.0
C592 C 0.82203 0.6357 0.67275 0.0
C593 C 0.86089 0.65273 0.63377 0.0
C594 C 0.86589 0.67345 0.66217 0.0
H595 H 0.83414 0.62044 0.6145 0.0
H596 H 0.87157 0.653 0.60525 0.0
S597 S 0.82944 0.68331 0.75854 0.0
N598 N 0.81355 0.65714 0.73721 0.0
N599 N 0.85451 0.69201 0.72763 0.0
C600 C 0.85106 0.67298 0.69827 0.0
C601 C 0.8289 0.65413 0.70344 0.0
C602 C 0.32628 0.84803 0.65304 0.0
C603 C 0.31054 0.8539 0.61875 0.0
C604 C 0.34674 0.82753 0.65215 0.0
C605 C 0.35196 0.81241 0.61694 0.0
H606 H 0.32142 0.85782 0.68135 0.0
H607 H 0.35701 0.82214 0.67981 0.0
S608 S 0.32066 0.82441 0.51722 0.0
N609 N 0.30473 0.84621 0.5473 0.0
N610 N 0.34298 0.80792 0.54562 0.0
C611 C 0.33821 0.82007 0.58169 0.0
C612 C 0.31753 0.84078 0.5826 0.0
C613 C 0.15049 0.32983 0.67112 0.0
C614 C 0.1375 0.32086 0.63587 0.0
C615 C 0.17072 0.35045 0.6697 0.0
C616 C 0.17839 0.3624 0.63298 0.0
H617 H 0.1472 0.3189 0.69898 0.0
H618 H 0.18239 0.35484 0.69655 0.0
S619 S 0.14663 0.34957 0.53404 0.0
N620 N 0.13066 0.32829 0.56474 0.0
N621 N 0.16861 0.36681 0.56204 0.0
C622 C 0.16327 0.35574 0.59861 0.0
C623 C 0.14278 0.33497 0.60007 0.0
C624 C 0.19833 0.06368 0.00814 0.0
C625 C 0.22508 0.06324 0.02378 0.0
C626 C 0.19403 0.06593 0.96684 0.0
C627 C 0.21641 0.06777 0.94031 0.0
H628 H 0.18093 0.06669 0.028 0.0
H629 H 0.17344 0.0704 0.95639 0.0
S630 S 0.28972 0.05783 0.9659 0.0
N631 N 0.27358 0.0573 0.00949 0.0
N632 N 0.26558 0.06133 0.93157 0.0
C633 C 0.24273 0.06157 0.95502 0.0
C634 C 0.24708 0.05933 -0.00283 0.0
C635 C 0.93227 0.19871 0.97841 0.0
C636 C 0.93082 0.21837 0.94759 0.0
C637 C 0.93488 0.20684 0.01849 0.0
C638 C 0.93597 0.2348 0.02877 0.0
H639 H 0.92794 0.17731 0.97209 0.0
H640 H 0.93212 0.19147 0.04164 0.0
S641 S 0.94054 0.29355 0.95888 0.0
N642 N 0.937 0.26643 0.92954 0.0
N643 N 0.94116 0.28157 0.00517 0.0
C644 C 0.93903 0.25415 -0.00195 0.0
C645 C 0.93671 0.24592 0.95715 0.0
C646 C 0.77075 0.94023 0.94598 0.0
C647 C 0.79528 0.9335 0.92587 0.0
C648 C 0.77023 0.94225 0.98798 0.0
C649 C 0.79424 0.93761 0.01033 0.0
H650 H 0.75136 0.93963 0.93014 0.0
H651 H 0.75047 0.94312 0.00291 0.0
S652 S 0.86467 0.9293 0.97031 0.0
N653 N 0.84487 0.92988 0.93019 0.0
N654 N 0.84389 0.93365 0.00901 0.0
C655 C 0.81942 0.93639 0.98992 0.0
C656 C 0.81994 0.93436 0.94744 0.0
C657 C 0.06336 0.77175 0.97244 0.0
C658 C 0.06915 0.79721 0.95439 0.0
C659 C 0.06174 0.76959 0.01435 0.0
C660 C 0.06591 0.79285 0.03861 0.0
H661 H 0.06458 0.753 0.95498 0.0
H662 H 0.0619 0.74924 0.02755 0.0
S663 S 0.07085 0.86497 0.00461 0.0
N664 N 0.07074 0.8467 0.96286 0.0
N665 N 0.06766 0.8426 0.04153 0.0
C666 C 0.06567 0.8188 0.0204 0.0
C667 C 0.06738 0.821 0.978 0.0
C668 C 0.19055 0.94484 0.47622 0.0
C669 C 0.21444 0.94427 0.45251 0.0
C670 C 0.19239 0.94592 0.518 0.0
C671 C 0.21814 0.94639 0.53689 0.0
H672 H 0.17082 0.9401 0.46296 0.0
H673 H 0.17401 0.94189 0.53541 0.0
S674 S 0.28559 0.95559 0.48749 0.0
N675 N 0.26362 0.95239 0.45014 0.0
N676 N 0.26706 0.95433 0.52898 0.0
C677 C 0.24143 0.95187 0.51338 0.0
C678 C 0.23957 0.9508 0.47073 0.0
C679 C 0.0709 0.19468 0.50967 0.0
C680 C 0.06775 0.22119 0.52575 0.0
C681 C 0.07517 0.19092 0.46856 0.0
C682 C 0.07618 0.21359 0.44252 0.0
H683 H 0.0743 0.17734 0.52944 0.0
H684 H 0.08137 0.17075 0.45806 0.0
S685 S 0.06064 0.28595 0.46875 0.0
N686 N 0.05942 0.2694 0.51191 0.0
N687 N 0.06705 0.26239 0.43427 0.0
C688 C 0.06786 0.23937 0.45727 0.0
C689 C 0.06366 0.24317 0.49926 0.0
C690 C 0.76818 0.06034 0.49127 0.0
C691 C 0.79141 0.06445 0.51546 0.0
C692 C 0.77028 0.06225 0.44937 0.0
C693 C 0.79563 0.06841 0.4312 0.0
H694 H 0.74788 0.05999 0.50466 0.0
H695 H 0.7515 0.0633 0.43207 0.0
S696 S 0.86334 0.07102 0.48099 0.0
N697 N 0.8411 0.06722 0.51802 0.0
N698 N 0.84504 0.07085 0.43938 0.0
C699 C 0.81944 0.06698 0.45465 0.0
C700 C 0.81731 0.06502 0.49704 0.0
C701 C 0.93799 0.74729 0.49403 0.0
C702 C 0.93609 0.76656 0.52526 0.0
C703 C 0.93738 0.75582 0.45391 0.0
C704 C 0.93398 0.78378 0.44427 0.0
H705 H 0.93636 0.72553 0.50049 0.0
H706 H 0.93545 0.7402 0.43092 0.0
S707 S 0.93567 0.84225 0.51531 0.0
N708 N 0.93704 0.81467 0.54409 0.0
N709 N 0.93509 0.8308 0.4687 0.0
C710 C 0.93652 0.80326 0.47512 0.0
C711 C 0.9377 0.79456 0.51582 0.0
C712 C 0.74622 0.57291 0.51405 0.0
C713 C 0.72544 0.57561 0.54306 0.0
C714 C 0.74023 0.57584 0.47317 0.0
C715 C 0.71339 0.58217 0.46062 0.0
H716 H 0.76755 0.57209 0.52317 0.0
H717 H 0.7572 0.57701 0.45217 0.0
S718 S 0.65111 0.58437 0.52438 0.0
N719 N 0.67658 0.57917 0.55611 0.0
N720 N 0.66529 0.58527 0.47937 0.0
C721 C 0.69204 0.58076 0.48887 0.0
C722 C 0.69811 0.57736 0.53026 0.0
C723 C 0.44037 0.69409 0.46604 0.0
C724 C 0.4397 0.71835 0.44323 0.0
C725 C 0.44161 0.69527 0.50787 0.0
C726 C 0.44223 0.72073 0.52775 0.0
H727 H 0.43563 0.67454 0.4521 0.0
H728 H 0.43772 0.6766 0.52463 0.0
S729 S 0.45097 0.78902 0.48079 0.0
N730 N 0.44764 0.76762 0.44266 0.0
N731 N 0.44997 0.76982 0.52157 0.0
C732 C 0.44749 0.74442 0.50503 0.0
C733 C 0.44622 0.74322 0.46233 0.0
C734 C 0.26325 0.44201 0.45419 0.0
C735 C 0.2904 0.43658 0.44194 0.0
C736 C 0.25663 0.44377 0.4951 0.0
C737 C 0.27706 0.44053 0.52441 0.0
H738 H 0.24658 0.44068 0.43283 0.0
H739 H 0.23515 0.44346 0.5037 0.0
S740 S 0.35191 0.43552 0.50686 0.0
N741 N 0.33836 0.43523 0.46153 0.0
N742 N 0.32585 0.43885 0.53829 0.0
C743 C 0.30459 0.44053 0.51209 0.0
C744 C 0.31133 0.43846 0.47066 0.0
C745 C 0.56189 0.30464 0.51172 0.0
C746 C 0.56242 0.27862 0.52997 0.0
C747 C 0.56362 0.30713 0.47004 0.0
C748 C 0.56583 0.28366 0.44567 0.0
H749 H 0.56441 0.323 0.52976 0.0
H750 H 0.56738 0.32731 0.45748 0.0
S751 S 0.55874 0.21137 0.47843 0.0
N752 N 0.55799 0.22937 0.52043 0.0
N753 N 0.56114 0.23405 0.44178 0.0
C754 C 0.56075 0.25788 0.46305 0.0
C755 C 0.55904 0.25534 0.50561 0.0
C756 C 0.69292 0.42423 0.99001 0.0
C757 C 0.71335 0.42354 0.96016 0.0
C758 C 0.69981 0.42851 0.03024 0.0
C759 C 0.72732 0.43194 0.0417 0.0
H760 H 0.67207 0.41819 0.98295 0.0
H761 H 0.68413 0.42522 0.05283 0.0
S762 S 0.78726 0.43869 0.9742 0.0
N763 N 0.76123 0.43249 0.94389 0.0
N764 N 0.77414 0.43975 0.01988 0.0
C765 C 0.74715 0.43555 0.01168 0.0
C766 C 0.74014 0.43155 0.9706 0.0
C767 C 0.55963 0.70247 0.01775 0.0
C768 C 0.56119 0.72861 0.03556 0.0
C769 C 0.56048 0.69962 0.97606 0.0
C770 C 0.56278 0.72284 0.9513 0.0
H771 H 0.56216 0.6842 0.03594 0.0
H772 H 0.56358 0.67925 0.96364 0.0
S773 S 0.55785 0.79554 0.98328 0.0
N774 N 0.55756 0.77788 0.02554 0.0
N775 N 0.55904 0.77252 0.94688 0.0
C776 C 0.55855 0.74887 0.96849 0.0
C777 C 0.55774 0.75178 0.01104 0.0
C778 C 0.26541 0.56278 0.00609 0.0
C779 C 0.28898 0.56619 0.02984 0.0
C780 C 0.26722 0.56449 0.96414 0.0
C781 C 0.29262 0.56964 0.94547 0.0
H782 H 0.24523 0.56347 0.01983 0.0
H783 H 0.24834 0.56631 0.9472 0.0
S784 S 0.36081 0.56939 -0.00598 0.0
N785 N 0.33874 0.56664 0.03147 0.0
N786 N 0.34217 0.56988 0.95274 0.0
C787 C 0.31656 0.56713 0.96848 0.0
C788 C 0.31471 0.56533 0.01093 0.0
C789 C 0.44185 0.26885 0.94939 0.0
C790 C 0.43569 0.29472 0.93279 0.0
C791 C 0.44408 0.26567 -0.0089 0.0
C792 C 0.44034 0.28832 0.01674 0.0
H793 H 0.44064 0.25051 0.93103 0.0
H794 H 0.4444 0.24503 0.00327 0.0
S795 S 0.43393 0.36119 0.98671 0.0
N796 N 0.43369 0.34397 0.94402 0.0
N797 N 0.43782 0.33794 0.0223 0.0
C798 C 0.43972 0.31468 -0.00013 0.0
C799 C 0.43744 0.31792 0.95766 0.0
C800 C 0.26323 0.00619 0.22117 0.0
C801 C 0.27475 0.03059 0.23641 0.0
C802 C 0.26159 0.98232 0.2445 0.0
C803 C 0.27157 0.98168 0.28403 0.0
H804 H 0.25452 0.00567 0.19135 0.0
H805 H 0.25178 0.96442 0.23162 0.0
S806 S 0.30632 0.03919 0.33679 0.0
N807 N 0.29822 0.05199 0.29259 0.0
N808 N 0.29532 0.00712 0.33637 0.0
C809 C 0.28439 0.00552 0.29901 0.0
C810 C 0.28591 0.02994 0.27527 0.0
C811 C 0.00868 0.2517 0.22194 0.0
C812 C 0.99433 0.27684 0.22136 0.0
C813 C 0.03307 0.24864 0.24367 0.0
C814 C 0.044 0.27047 0.26625 0.0
H815 H 1.00103 0.23411 0.2055 0.0
H816 H 0.04305 0.22873 0.24343 0.0
S817 S 0.0149 0.34087 0.2739 0.0
N818 N 0.99332 0.32429 0.24447 0.0
N819 N 0.039 0.31841 0.28574 0.0
C820 C 0.0301 0.29586 0.26555 0.0
C821 C 0.00535 0.29908 0.243 0.0
C822 C 0.73447 0.00432 0.28018 0.0
C823 C 0.74325 0.02913 0.26265 0.0
C824 C 0.73472 0.97957 0.2586 0.0
C825 C 0.74365 0.97855 0.21849 0.0
H826 H 0.72823 1.00373 0.31134 0.0
H827 H 0.72858 0.96098 0.27399 0.0
S828 S 0.76556 0.03839 0.15707 0.0
N829 N 0.75889 0.05155 0.20164 0.0
N830 N 0.75924 0.00519 0.161 0.0
C831 C 0.75113 1.00349 0.19992 0.0
C832 C 0.75097 0.02869 0.22199 0.0
C833 C 0.0231 0.73992 0.25012 0.0
C834 C 0.01837 0.7404 0.20855 0.0
C835 C 1.00129 0.74062 0.27761 0.0
C836 C 0.97383 0.74225 0.2647 0.0
H837 H 0.04388 0.73959 0.26166 0.0
H838 H 0.00615 0.741 0.30926 0.0
S839 S 0.95009 0.74195 0.15908 0.0
N840 N 0.98391 0.74079 0.15579 0.0
N841 N 0.94301 0.74247 0.20746 0.0
C842 C 0.96872 0.74166 0.22323 0.0
C843 C 0.99094 0.74062 0.19518 0.0
C844 C 0.74766 0.9766 0.72547 0.0
C845 C 0.73615 0.97429 0.76403 0.0
C846 C 0.7475 1.00162 0.70473 0.0
C847 C 0.73591 0.02553 0.72166 0.0
H848 H 0.75764 0.95913 0.71147 0.0
H849 H 0.75738 1.00231 0.67564 0.0
S850 S 0.70037 0.02996 0.82003 0.0
N851 N 0.71074 0.9977 0.817 0.0
N852 N 0.71056 0.04471 0.77805 0.0
C853 C 0.72312 0.02325 0.75937 0.0
C854 C 0.72318 0.99767 0.7805 0.0
C855 C 0.98964 0.71836 0.77009 0.0
C856 C 0.98473 0.73426 0.73562 0.0
C857 C 0.01369 0.72157 0.79263 0.0
C858 C 0.03396 0.74075 0.78163 0.0
H859 H 0.97456 0.70358 0.7803 0.0
H860 H 0.01614 0.70916 0.81931 0.0
S861 S 0.032 0.78639 0.69243 0.0
N862 N 1.00289 0.76914 0.69051 0.0
N863 N 0.048 0.77511 0.73272 0.0
C864 C 0.02973 0.75624 0.74651 0.0
C865 C 0.00517 0.75303 0.7236 0.0
C866 C 0.27301 0.98807 0.74719 0.0
C867 C 0.27125 0.99303 0.70574 0.0
C868 C 0.27168 0.00965 0.77499 0.0
C869 C 0.2681 0.03703 0.76249 0.0
H870 H 0.27473 0.96725 0.75839 0.0
H871 H 0.27227 0.00462 0.80658 0.0
S872 S 0.26477 0.06146 0.6573 0.0
N873 N 0.26779 0.02776 0.65347 0.0
N874 N 0.26489 0.0682 0.70579 0.0
C875 C 0.26751 0.04245 0.72111 0.0
C876 C 0.26923 0.0205 0.69273 0.0
C877 C 0.97295 0.24776 0.74128 0.0
C878 C 0.96581 0.267 0.77109 0.0
C879 C 0.99741 0.25014 0.71938 0.0
C880 C 0.0158 0.27198 0.72604 0.0
H881 H 0.95994 0.23018 0.73542 0.0
H882 H 1.00205 0.2344 0.6974 0.0
S883 S 0.00568 0.32925 0.79836 0.0
N884 N 0.97838 0.30961 0.80449 0.0
N885 N 0.02428 0.3142 0.76317 0.0
C886 C 0.00844 0.29198 0.75472 0.0
C887 C 0.98352 0.28946 0.77724 0.0
C888 C 0.78684 0.50003 0.75541 0.0
C889 C 0.76442 0.51124 0.73441 0.0
C890 C 0.78425 0.4756 0.77744 0.0
C891 C 0.75924 0.46117 0.77892 0.0
H892 H 0.80648 0.51043 0.75551 0.0
H893 H 0.80199 0.46805 0.79359 0.0
S894 S 0.69444 0.48124 0.72795 0.0
N895 N 0.71646 0.50559 0.71574 0.0
N896 N 0.71166 0.45972 0.75669 0.0
C897 C 0.73679 0.47185 0.75733 0.0
C898 C 0.73935 0.49686 0.73525 0.0
C899 C 0.51591 0.75738 0.75408 0.0
C900 C 0.54008 0.771 0.74221 0.0
C901 C 0.49184 0.75901 0.73137 0.0
C902 C 0.49082 0.7742 0.69554 0.0
H903 H 0.51555 0.74493 0.78096 0.0
H904 H 0.4741 0.74757 0.74161 0.0
S905 S 0.54783 0.81546 0.65252 0.0
N906 N 0.56103 0.80158 0.6933 0.0
N907 N 0.51578 0.80455 0.65043 0.0
C908 C 0.51454 0.78875 0.68393 0.0
C909 C 0.53913 0.78718 0.70728 0.0
C910 C 0.23818 0.48818 0.74614 0.0
C911 C 0.23816 0.49485 0.7051 0.0
C912 C 0.23968 0.50861 0.77568 0.0
C913 C 0.24156 0.5366 0.76547 0.0
H914 H 0.23746 0.46691 0.75566 0.0
H915 H 0.24028 0.50225 0.80675 0.0
S916 S 0.24037 0.56532 0.66245 0.0
N917 N 0.23858 0.53174 0.65586 0.0
N918 N 0.24168 0.57008 0.71138 0.0
C919 C 0.24066 0.54369 0.7246 0.0
C920 C 0.23887 0.52286 0.69445 0.0
C921 C 0.46346 0.23802 0.71918 0.0
C922 C 0.4684 0.23529 0.76052 0.0
C923 C 0.48475 0.23545 0.69108 0.0
C924 C 0.51198 0.23036 0.70313 0.0
H925 H 0.44306 0.2429 0.70838 0.0
H926 H 0.4799 0.23866 0.65978 0.0
S927 S 0.53556 0.21893 0.80754 0.0
N928 N 0.50233 0.22508 0.8119 0.0
N929 N 0.54235 0.22053 0.75913 0.0
C930 C 0.51702 0.22625 0.74422 0.0
C931 C 0.49525 0.22863 0.77287 0.0
C932 C 0.24729 0.49136 0.19478 0.0
C933 C 0.24371 0.51887 0.20688 0.0
C934 C 0.24839 0.46994 0.22282 0.0
C935 C 0.24558 0.47505 0.26415 0.0
H936 H 0.25027 0.48632 0.16345 0.0
H937 H 0.25199 0.44925 0.21197 0.0
S938 S 0.23323 0.54323 0.31126 0.0
N939 N 0.23559 0.54987 0.26288 0.0
N940 N 0.2373 0.50967 0.31556 0.0
C941 C 0.2407 0.50234 0.27655 0.0
C942 C 0.23989 0.52421 0.24797 0.0
C943 C 0.5266 0.25211 0.23623 0.0
C944 C 0.53075 0.23389 0.26839 0.0
C945 C 0.50261 0.25126 0.21319 0.0
C946 C 0.48163 0.23212 0.22116 0.0
H947 H 0.54167 0.26776 0.2293 0.0
H948 H 0.50032 0.26625 0.18945 0.0
S949 S 0.48347 0.17793 0.29946 0.0
N950 N 0.51262 0.19472 0.30519 0.0
N951 N 0.46755 0.1931 0.26186 0.0
C952 C 0.48596 0.21299 0.25218 0.0
C953 C 0.51047 0.21387 0.27575 0.0
C954 C 0.74231 0.53166 0.26038 0.0
C955 C 0.76568 0.54669 0.27192 0.0
C956 C 0.7446 0.50721 0.23841 0.0
C957 C 0.77036 0.49678 0.22659 0.0
H958 H 0.72194 0.53857 0.26882 0.0
H959 H 0.72591 0.49646 0.2306 0.0
S960 S 0.83804 0.52862 0.24816 0.0
N961 N 0.81552 0.54955 0.26926 0.0
N962 N 0.81986 0.50371 0.22767 0.0
C963 C 0.79395 0.51177 0.23743 0.0
C964 C 0.79161 0.53664 0.26017 0.0
C965 C 0.46879 0.77413 0.22793 0.0
C966 C 0.47456 0.77592 0.26915 0.0
C967 C 0.48968 0.77616 0.19914 0.0
C968 C 0.5173 0.77971 0.21035 0.0
H969 H 0.44801 0.77044 0.21774 0.0
H970 H 0.48417 0.77373 0.16792 0.0
S971 S 0.54316 0.78807 0.31423 0.0
N972 N 0.50977 0.7835 0.31961 0.0
N973 N 0.54905 0.78701 0.26552 0.0
C974 C 0.52323 0.78281 0.25138 0.0
C975 C 0.50188 0.78102 0.28074 0.0
C976 C 0.19558 0.13151 0.24577 0.0
C977 C 0.18918 0.13671 0.2055 0.0
C978 C 0.18107 0.14457 0.27674 0.0
C979 C 0.15953 0.16319 0.26858 0.0
H980 H 0.21298 0.11864 0.25343 0.0
H981 H 0.1878 0.14107 0.30722 0.0
S982 S 0.13133 0.17927 0.16801 0.0
N983 N 0.15741 0.15841 0.15906 0.0
N984 N 0.13006 0.18284 0.21716 0.0
C985 C 0.15137 0.16653 0.22848 0.0
C986 C 0.16625 0.15336 0.19697 0.0
C987 C 0.84236 0.17528 0.19285 0.0
C988 C 0.86582 0.19055 0.20369 0.0
C989 C 0.82911 0.15803 0.22037 0.0
C990 C 0.83865 0.15564 0.25987 0.0
H991 H 0.8334 0.17753 0.16337 0.0
H992 H 0.81024 0.148 0.21139 0.0
S993 S 0.90163 0.18745 0.30165 0.0
N994 N 0.89993 0.19923 0.25536 0.0
N995 N 0.87483 0.16705 0.30711 0.0
C996 C 0.86323 0.16905 0.27021 0.0
C997 C 0.87688 0.18642 0.24211 0.0
C998 C 0.83953 0.86408 0.27051 0.0
C999 C 0.86046 0.84443 0.26412 0.0
C1000 C 0.82605 0.87675 0.23834 0.0
C1001 C 0.83294 0.87017 0.1986 0.0
H1002 H 0.83231 0.86861 0.30052 0.0
H1003 H 0.80894 0.89035 0.24472 0.0
S1004 S 0.89006 0.82472 0.16556 0.0
N1005 N 0.89025 0.82246 0.21489 0.0
N1006 N 0.8649 0.84618 0.15454 0.0
C1007 C 0.85551 0.85259 0.1918 0.0
C1008 C 0.86929 0.83977 0.22453 0.0
C1009 C 0.17846 0.86301 0.23824 0.0
C1010 C 0.17054 0.85967 0.27841 0.0
C1011 C 0.16597 0.84779 0.20772 0.0
C1012 C 0.14493 0.82874 0.21608 0.0
H1013 H 0.1955 0.87628 0.23044 0.0
H1014 H 0.17369 0.85028 0.17749 0.0
S1015 S 0.1135 0.81589 0.31568 0.0
N1016 N 0.13799 0.83852 0.32447 0.0
N1017 N 0.1145 0.80994 0.267 0.0
C1018 C 0.13532 0.82683 0.25572 0.0
C1019 C 0.14814 0.84227 0.2869 0.0
C1020 C 0.83728 0.82734 0.68535 0.0
C1021 C 0.86195 0.81382 0.69566 0.0
C1022 C 0.82354 0.84443 0.71275 0.0
C1023 C 0.83385 0.84838 0.75154 0.0
H1024 H 0.82775 0.82373 0.65654 0.0
H1025 H 0.8038 0.85298 0.70443 0.0
S1026 S 0.89986 0.8219 0.79136 0.0
N1027 N 0.89787 0.80883 0.7458 0.0
N1028 N 0.87182 0.8406 0.79728 0.0
C1029 C 0.85952 0.83687 0.76116 0.0
C1030 C 0.87365 0.81969 0.73322 0.0
C1031 C 0.16324 0.84762 0.70962 0.0
C1032 C 0.1832 0.86794 0.71704 0.0
C1033 C 0.14882 0.8351 0.74095 0.0
C1034 C 0.1539 0.84223 0.78104 0.0
H1035 H 0.1594 0.84048 0.67941 0.0
H1036 H 0.13472 0.81863 0.73367 0.0
S1037 S 0.20077 0.89731 0.81636 0.0
N1038 N 0.20483 0.89695 0.76725 0.0
N1039 N 0.17775 0.87338 0.82626 0.0
C1040 C 0.17227 0.86397 0.78877 0.0
C1041 C 0.18689 0.87684 0.75675 0.0
C1042 C 0.13038 0.18725 0.74887 0.0
C1043 C 0.13721 0.18361 0.70834 0.0
C1044 C 0.14388 0.17226 0.77881 0.0
C1045 C 0.16456 0.15294 0.7693 0.0
H1046 H 0.1158 0.20298 0.75776 0.0
H1047 H 0.13897 0.17691 0.80975 0.0
S1048 S 0.18597 0.13209 0.66682 0.0
N1049 N 0.16302 0.15661 0.65969 0.0
N1050 N 0.18827 0.12835 0.71584 0.0
C1051 C 0.16972 0.14738 0.72861 0.0
C1052 C 0.15611 0.16277 0.69817 0.0
C1053 C 0.83322 0.13824 0.77622 0.0
C1054 C 0.85529 0.15651 0.76987 0.0
C1055 C 0.81959 0.12576 0.74402 0.0
C1056 C 0.82749 0.13117 0.70433 0.0
H1057 H 0.82525 0.13478 0.8061 0.0
H1058 H 0.80164 0.11333 0.75022 0.0
S1059 S 0.8876 0.17241 0.67175 0.0
N1060 N 0.8871 0.17564 0.72097 0.0
N1061 N 0.86144 0.1523 0.66059 0.0
C1062 C 0.85109 0.14724 0.69773 0.0
C1063 C 0.86503 0.15985 0.73046 0.0
C1064 C 0.66214 0.66237 0.71134 0.0
C1065 C 0.67923 0.64028 0.72273 0.0
C1066 C 0.64518 0.67575 0.73917 0.0
C1067 C 0.64485 0.66771 0.77956 0.0
H1068 H 0.66283 0.67033 0.68106 0.0
H1069 H 0.63383 0.69373 0.7295 0.0
S1070 S 0.68164 0.60797 0.82331 0.0
N1071 N 0.69166 0.60857 0.77602 0.0
N1072 N 0.65991 0.63384 0.82844 0.0
C1073 C 0.65989 0.64415 0.7906 0.0
C1074 C 0.67704 0.63037 0.76215 0.0
C1075 C 0.33061 0.65072 0.73352 0.0
C1076 C 0.33806 0.65539 0.77359 0.0
C1077 C 0.34351 0.6648 0.70218 0.0
C1078 C 0.36452 0.68404 0.70955 0.0
H1079 H 0.31367 0.63719 0.7263 0.0
H1080 H 0.33612 0.66132 0.67203 0.0
S1081 S 0.3948 0.7003 0.8087 0.0
N1082 N 0.37014 0.67807 0.81865 0.0
N1083 N 0.3944 0.70453 0.75965 0.0
C1084 C 0.37366 0.6873 0.7492 0.0
C1085 C 0.36042 0.67302 0.78123 0.0
C1086 C 0.33174 0.35951 0.76648 0.0
C1087 C 0.34931 0.33727 0.75745 0.0
C1088 C 0.31583 0.37212 0.73681 0.0
C1089 C 0.31669 0.36289 0.69694 0.0
H1090 H 0.32927 0.36652 0.79709 0.0
H1091 H 0.30169 0.38825 0.74572 0.0
S1092 S 0.36258 0.30845 0.65622 0.0
N1093 N 0.36908 0.30882 0.70474 0.0
N1094 N 0.33916 0.33249 0.64892 0.0
C1095 C 0.3357 0.34208 0.68687 0.0
C1096 C 0.35205 0.32933 0.71712 0.0
C1097 C 0.65126 0.33779 0.71085 0.0
C1098 C 0.63244 0.31621 0.71673 0.0
C1099 C 0.6626 0.35202 0.74323 0.0
C1100 C 0.65576 0.34516 0.78292 0.0
H1101 H 0.65831 0.343 0.68102 0.0
H1102 H 0.67812 0.36738 0.73696 0.0
S1103 S 0.60365 0.29373 0.81436 0.0
N1104 N 0.60456 0.29124 0.76505 0.0
N1105 N 0.62593 0.31797 0.8261 0.0
C1106 C 0.63512 0.32529 0.78915 0.0
C1107 C 0.62346 0.31083 0.75601 0.0
C1108 C 0.34767 0.34274 0.19423 0.0
C1109 C 0.36932 0.32418 0.20177 0.0
C1110 C 0.33558 0.35807 0.22512 0.0
C1111 C 0.34448 0.35533 0.26493 0.0
H1112 H 0.33916 0.3447 0.16442 0.0
H1113 H 0.31804 0.37088 0.21795 0.0
S1114 S 0.40341 0.31305 0.29973 0.0
N1115 N 0.40141 0.30656 0.25127 0.0
N1116 N 0.37864 0.33531 0.30947 0.0
C1117 C 0.36753 0.3385 0.27244 0.0
C1118 C 0.37996 0.32296 0.24084 0.0
C1119 C 0.66934 0.35737 0.28854 0.0
C1120 C 0.65097 0.33657 0.27643 0.0
C1121 C 0.68546 0.37163 0.26064 0.0
C1122 C 0.68397 0.36545 0.21962 0.0
H1123 H 0.6724 0.36173 0.32005 0.0
H1124 H 0.70043 0.38625 0.2716 0.0
S1125 S 0.63567 0.3166 0.17151 0.0
N1126 N 0.62957 0.3134 0.21995 0.0
N1127 N 0.65995 0.34008 0.16756 0.0
C1128 C 0.66403 0.34647 0.20676 0.0
C1129 C 0.64745 0.33209 0.23514 0.0
C1130 C 0.66659 0.65367 0.24216 0.0
C1131 C 0.65931 0.65973 0.28196 0.0
C1132 C 0.65514 0.66824 0.21018 0.0
C1133 C 0.6358 0.68938 0.21665 0.0
H1134 H 0.68254 0.63874 0.23558 0.0
H1135 H 0.66251 0.66367 0.18027 0.0
S1136 S 0.6058 0.70954 0.31472 0.0
N1137 N 0.62857 0.68555 0.32579 0.0
N1138 N 0.60702 0.71294 0.26555 0.0
C1139 C 0.62645 0.69392 0.256 0.0
C1140 C 0.63821 0.6791 0.28869 0.0
C1141 C 0.32181 0.64156 0.24673 0.0
C1142 C 0.32784 0.64692 0.20634 0.0
C1143 C 0.33554 0.65549 0.27747 0.0
C1144 C 0.35596 0.67522 0.26904 0.0
H1145 H 0.3053 0.62769 0.25473 0.0
H1146 H 0.32917 0.65157 0.30804 0.0
S1147 S 0.38275 0.69296 0.16813 0.0
N1148 N 0.35808 0.67051 0.15951 0.0
N1149 N 0.38389 0.69666 0.21726 0.0
C1150 C 0.36372 0.67906 0.22884 0.0
C1151 C 0.34965 0.66496 0.1975 0.0
loop_
_geom_bond_atom_site_label_1
_geom_bond_atom_site_label_2
_geom_bond_distance
_geom_bond_site_symmetry_2
_ccdc_geom_bond_type
Zn0 O3 2.031 . S
Zn0 O5 2.049 . S
Zn0 O10 2.067 . S
Zn1 O2 1.962 . S
Zn1 O4 1.986 . S
Zn1 O6 1.996 . S
Zn1 O9 1.943 . S
O2 Zn1 1.962 . S
O2 C7 1.254 . S
O3 Zn0 2.031 . S
O3 C7 1.269 . S
O4 Zn1 1.986 . S
O4 C11 1.262 . S
O5 Zn0 2.049 . S
O5 C13 1.260 . S
O6 Zn1 1.996 . S
O6 C13 1.257 . S
C7 O2 1.254 . S
C7 O3 1.269 . S
C8 O9 1.249 . S
C8 O10 1.270 . S
O9 Zn1 1.943 . S
O9 C8 1.249 . S
O10 Zn0 2.067 . S
O10 C8 1.270 . S
C11 O4 1.262 . S
C11 O12 1.232 . S
O12 C11 1.232 . S
C13 O5 1.260 . S
C13 O6 1.257 . S
Zn14 O17 2.031 . S
Zn14 O19 2.049 . S
Zn14 O24 2.067 . S
Zn15 O16 1.962 . S
Zn15 O18 1.986 . S
Zn15 O20 1.996 . S
Zn15 O23 1.943 . S
O16 Zn15 1.962 . S
O16 C21 1.254 . S
O17 Zn14 2.031 . S
O17 C21 1.269 . S
O18 Zn15 1.986 . S
O18 C25 1.262 . S
O19 Zn14 2.049 . S
O19 C27 1.260 . S
O20 Zn15 1.996 . S
O20 C27 1.257 . S
C21 O16 1.254 . S
C21 O17 1.269 . S
C22 O23 1.249 . S
C22 O24 1.270 . S
O23 Zn15 1.943 . S
O23 C22 1.249 . S
O24 Zn14 2.067 . S
O24 C22 1.270 . S
C25 O18 1.262 . S
C25 O26 1.232 . S
O26 C25 1.232 . S
C27 O19 1.260 . S
C27 O20 1.257 . S
Zn28 O31 2.031 . S
Zn28 O33 2.049 . S
Zn28 O38 2.067 . S
Zn29 O30 1.962 . S
Zn29 O32 1.986 . S
Zn29 O34 1.996 . S
Zn29 O37 1.943 . S
O30 Zn29 1.962 . S
O30 C35 1.254 . S
O31 Zn28 2.031 . S
O31 C35 1.269 . S
O32 Zn29 1.986 . S
O32 C39 1.262 . S
O33 Zn28 2.049 . S
O33 C41 1.260 . S
O34 Zn29 1.996 . S
O34 C41 1.257 . S
C35 O30 1.254 . S
C35 O31 1.269 . S
C36 O37 1.249 . S
C36 O38 1.270 . S
O37 Zn29 1.943 . S
O37 C36 1.249 . S
O38 Zn28 2.067 . S
O38 C36 1.270 . S
C39 O32 1.262 . S
C39 O40 1.232 . S
O40 C39 1.232 . S
C41 O33 1.260 . S
C41 O34 1.257 . S
Zn42 O45 2.031 . S
Zn42 O47 2.049 . S
Zn42 O52 2.067 . S
Zn43 O44 1.962 . S
Zn43 O46 1.986 . S
Zn43 O48 1.996 . S
Zn43 O51 1.943 . S
O44 Zn43 1.962 . S
O44 C49 1.254 . S
O45 Zn42 2.031 . S
O45 C49 1.269 . S
O46 Zn43 1.986 . S
O46 C53 1.262 . S
O47 Zn42 2.049 . S
O47 C55 1.260 . S
O48 Zn43 1.996 . S
O48 C55 1.257 . S
C49 O44 1.254 . S
C49 O45 1.269 . S
C50 O51 1.249 . S
C50 O52 1.270 . S
O51 Zn43 1.943 . S
O51 C50 1.249 . S
O52 Zn42 2.067 . S
O52 C50 1.270 . S
C53 O46 1.262 . S
C53 O54 1.232 . S
O54 C53 1.232 . S
C55 O47 1.260 . S
C55 O48 1.257 . S
Zn56 O59 2.031 . S
Zn56 O61 2.049 . S
Zn56 O66 2.067 . S
Zn57 O58 1.962 . S
Zn57 O60 1.986 . S
Zn57 O62 1.996 . S
Zn57 O65 1.943 . S
O58 Zn57 1.962 . S
O58 C63 1.254 . S
O59 Zn56 2.031 . S
O59 C63 1.269 . S
O60 Zn57 1.986 . S
O60 C67 1.262 . S
O61 Zn56 2.049 . S
O61 C69 1.260 . S
O62 Zn57 1.996 . S
O62 C69 1.257 . S
C63 O58 1.254 . S
C63 O59 1.269 . S
C64 O65 1.249 . S
C64 O66 1.270 . S
O65 Zn57 1.943 . S
O65 C64 1.249 . S
O66 Zn56 2.067 . S
O66 C64 1.270 . S
C67 O60 1.262 . S
C67 O68 1.232 . S
O68 C67 1.232 . S
C69 O61 1.260 . S
C69 O62 1.257 . S
Zn70 O73 2.031 . S
Zn70 O75 2.049 . S
Zn70 O80 2.067 . S
Zn71 O72 1.962 . S
Zn71 O74 1.986 . S
Zn71 O76 1.996 . S
Zn71 O79 1.943 . S
O72 Zn71 1.962 . S
O72 C77 1.254 . S
O73 Zn70 2.031 . S
O73 C77 1.269 . S
O74 Zn71 1.986 . S
O74 C81 1.262 . S
O75 Zn70 2.049 . S
O75 C83 1.260 . S
O76 Zn71 1.996 . S
O76 C83 1.257 . S
C77 O72 1.254 . S
C77 O73 1.269 . S
C78 O79 1.249 . S
C78 O80 1.270 . S
O79 Zn71 1.943 . S
O79 C78 1.249 . S
O80 Zn70 2.067 . S
O80 C78 1.270 . S
C81 O74 1.262 . S
C81 O82 1.232 . S
O82 C81 1.232 . S
C83 O75 1.260 . S
C83 O76 1.257 . S
Zn84 O87 2.031 . S
Zn84 O89 2.049 . S
Zn84 O94 2.067 . S
Zn85 O86 1.962 . S
Zn85 O88 1.986 . S
Zn85 O90 1.996 . S
Zn85 O93 1.943 . S
O86 Zn85 1.962 . S
O86 C91 1.254 . S
O87 Zn84 2.031 . S
O87 C91 1.269 . S
O88 Zn85 1.986 . S
O88 C95 1.262 . S
O89 Zn84 2.049 . S
O89 C97 1.260 . S
O90 Zn85 1.996 . S
O90 C97 1.257 . S
C91 O86 1.254 . S
C91 O87 1.269 . S
C92 O93 1.249 . S
C92 O94 1.270 . S
O93 Zn85 1.943 . S
O93 C92 1.249 . S
O94 Zn84 2.067 . S
O94 C92 1.270 . S
C95 O88 1.262 . S
C95 O96 1.232 . S
O96 C95 1.232 . S
C97 O89 1.260 . S
C97 O90 1.257 . S
Zn98 O101 2.031 . S
Zn98 O103 2.049 . S
Zn98 O108 2.067 . S
Zn99 O100 1.962 . S
Zn99 O102 1.986 . S
Zn99 O104 1.996 . S
Zn99 O107 1.943 . S
O100 Zn99 1.962 . S
O100 C105 1.254 . S
O101 Zn98 2.031 . S
O101 C105 1.269 . S
O102 Zn99 1.986 . S
O102 C109 1.262 . S
O103 Zn98 2.049 . S
O103 C111 1.260 . S
O104 Zn99 1.996 . S
O104 C111 1.257 . S
C105 O100 1.254 . S
C105 O101 1.269 . S
C106 O107 1.249 . S
C106 O108 1.270 . S
O107 Zn99 1.943 . S
O107 C106 1.249 . S
O108 Zn98 2.067 . S
O108 C106 1.270 . S
C109 O102 1.262 . S
C109 O110 1.232 . S
O110 C109 1.232 . S
C111 O103 1.260 . S
C111 O104 1.257 . S
Zn112 O115 2.031 . S
Zn112 O117 2.049 . S
Zn112 O122 2.067 . S
Zn113 O114 1.962 . S
Zn113 O116 1.986 . S
Zn113 O118 1.996 . S
Zn113 O121 1.943 . S
O114 Zn113 1.962 . S
O114 C119 1.254 . S
O115 Zn112 2.031 . S
O115 C119 1.269 . S
O116 Zn113 1.986 . S
O116 C123 1.262 . S
O117 Zn112 2.049 . S
O117 C125 1.260 . S
O118 Zn113 1.996 . S
O118 C125 1.257 . S
C119 O114 1.254 . S
C119 O115 1.269 . S
C120 O121 1.249 . S
C120 O122 1.270 . S
O121 Zn113 1.943 . S
O121 C120 1.249 . S
O122 Zn112 2.067 . S
O122 C120 1.270 . S
C123 O116 1.262 . S
C123 O124 1.232 . S
O124 C123 1.232 . S
C125 O117 1.260 . S
C125 O118 1.257 . S
Zn126 O129 2.031 . S
Zn126 O131 2.049 . S
Zn126 O136 2.067 . S
Zn127 O128 1.962 . S
Zn127 O130 1.986 . S
Zn127 O132 1.996 . S
Zn127 O135 1.943 . S
O128 Zn127 1.962 . S
O128 C133 1.254 . S
O129 Zn126 2.031 . S
O129 C133 1.269 . S
O130 Zn127 1.986 . S
O130 C137 1.262 . S
O131 Zn126 2.049 . S
O131 C139 1.260 . S
O132 Zn127 1.996 . S
O132 C139 1.257 . S
C133 O128 1.254 . S
C133 O129 1.269 . S
C134 O135 1.249 . S
C134 O136 1.270 . S
O135 Zn127 1.943 . S
O135 C134 1.249 . S
O136 Zn126 2.067 . S
O136 C134 1.270 . S
C137 O130 1.262 . S
C137 O138 1.232 . S
O138 C137 1.232 . S
C139 O131 1.260 . S
C139 O132 1.257 . S
Zn140 O143 2.031 . S
Zn140 O145 2.049 . S
Zn140 O150 2.067 . S
Zn141 O142 1.962 . S
Zn141 O144 1.986 . S
Zn141 O146 1.996 . S
Zn141 O149 1.943 . S
O142 Zn141 1.962 . S
O142 C147 1.254 . S
O143 Zn140 2.031 . S
O143 C147 1.269 . S
O144 Zn141 1.986 . S
O144 C151 1.262 . S
O145 Zn140 2.049 . S
O145 C153 1.260 . S
O146 Zn141 1.996 . S
O146 C153 1.257 . S
C147 O142 1.254 . S
C147 O143 1.269 . S
C148 O149 1.249 . S
C148 O150 1.270 . S
O149 Zn141 1.943 . S
O149 C148 1.249 . S
O150 Zn140 2.067 . S
O150 C148 1.270 . S
C151 O144 1.262 . S
C151 O152 1.232 . S
O152 C151 1.232 . S
C153 O145 1.260 . S
C153 O146 1.257 . S
Zn154 O157 2.031 . S
Zn154 O159 2.049 . S
Zn154 O164 2.067 . S
Zn155 O156 1.962 . S
Zn155 O158 1.986 . S
Zn155 O160 1.996 . S
Zn155 O163 1.943 . S
O156 Zn155 1.962 . S
O156 C161 1.254 . S
O157 Zn154 2.031 . S
O157 C161 1.269 . S
O158 Zn155 1.986 . S
O158 C165 1.262 . S
O159 Zn154 2.049 . S
O159 C167 1.260 . S
O160 Zn155 1.996 . S
O160 C167 1.257 . S
C161 O156 1.254 . S
C161 O157 1.269 . S
C162 O163 1.249 . S
C162 O164 1.270 . S
O163 Zn155 1.943 . S
O163 C162 1.249 . S
O164 Zn154 2.067 . S
O164 C162 1.270 . S
C165 O158 1.262 . S
C165 O166 1.232 . S
O166 C165 1.232 . S
C167 O159 1.260 . S
C167 O160 1.257 . S
Zn168 O171 2.031 . S
Zn168 O173 2.049 . S
Zn168 O178 2.067 . S
Zn169 O170 1.962 . S
Zn169 O172 1.986 . S
Zn169 O174 1.996 . S
Zn169 O177 1.943 . S
O170 Zn169 1.962 . S
O170 C175 1.254 . S
O171 Zn168 2.031 . S
O171 C175 1.269 . S
O172 Zn169 1.986 . S
O172 C179 1.262 . S
O173 Zn168 2.049 . S
O173 C181 1.260 . S
O174 Zn169 1.996 . S
O174 C181 1.257 . S
C175 O170 1.254 . S
C175 O171 1.269 . S
C176 O177 1.249 . S
C176 O178 1.270 . S
O177 Zn169 1.943 . S
O177 C176 1.249 . S
O178 Zn168 2.067 . S
O178 C176 1.270 . S
C179 O172 1.262 . S
C179 O180 1.232 . S
O180 C179 1.232 . S
C181 O173 1.260 . S
C181 O174 1.257 . S
Zn182 O185 2.031 . S
Zn182 O187 2.049 . S
Zn182 O192 2.067 . S
Zn183 O184 1.962 . S
Zn183 O186 1.986 . S
Zn183 O188 1.996 . S
Zn183 O191 1.943 . S
O184 Zn183 1.962 . S
O184 C189 1.254 . S
O185 Zn182 2.031 . S
O185 C189 1.269 . S
O186 Zn183 1.986 . S
O186 C193 1.262 . S
O187 Zn182 2.049 . S
O187 C195 1.260 . S
O188 Zn183 1.996 . S
O188 C195 1.257 . S
C189 O184 1.254 . S
C189 O185 1.269 . S
C190 O191 1.249 . S
C190 O192 1.270 . S
O191 Zn183 1.943 . S
O191 C190 1.249 . S
O192 Zn182 2.067 . S
O192 C190 1.270 . S
C193 O186 1.262 . S
C193 O194 1.232 . S
O194 C193 1.232 . S
C195 O187 1.260 . S
C195 O188 1.257 . S
Zn196 O199 2.031 . S
Zn196 O201 2.049 . S
Zn196 O206 2.067 . S
Zn197 O198 1.962 . S
Zn197 O200 1.986 . S
Zn197 O202 1.996 . S
Zn197 O205 1.943 . S
O198 Zn197 1.962 . S
O198 C203 1.254 . S
O199 Zn196 2.031 . S
O199 C203 1.269 . S
O200 Zn197 1.986 . S
O200 C207 1.262 . S
O201 Zn196 2.049 . S
O201 C209 1.260 . S
O202 Zn197 1.996 . S
O202 C209 1.257 . S
C203 O198 1.254 . S
C203 O199 1.269 . S
C204 O205 1.249 . S
C204 O206 1.270 . S
O205 Zn197 1.943 . S
O205 C204 1.249 . S
O206 Zn196 2.067 . S
O206 C204 1.270 . S
C207 O200 1.262 . S
C207 O208 1.232 . S
O208 C207 1.232 . S
C209 O201 1.260 . S
C209 O202 1.257 . S
Zn210 O213 2.031 . S
Zn210 O215 2.049 . S
Zn210 O220 2.067 . S
Zn211 O212 1.962 . S
Zn211 O214 1.986 . S
Zn211 O216 1.996 . S
Zn211 O219 1.943 . S
O212 Zn211 1.962 . S
O212 C217 1.254 . S
O213 Zn210 2.031 . S
O213 C217 1.269 . S
O214 Zn211 1.986 . S
O214 C221 1.262 . S
O215 Zn210 2.049 . S
O215 C223 1.260 . S
O216 Zn211 1.996 . S
O216 C223 1.257 . S
C217 O212 1.254 . S
C217 O213 1.269 . S
C218 O219 1.249 . S
C218 O220 1.270 . S
O219 Zn211 1.943 . S
O219 C218 1.249 . S
O220 Zn210 2.067 . S
O220 C218 1.270 . S
C221 O214 1.262 . S
C221 O222 1.232 . S
O222 C221 1.232 . S
C223 O215 1.260 . S
C223 O216 1.257 . S
Zn224 O227 2.031 . S
Zn224 O229 2.049 . S
Zn224 O234 2.067 . S
Zn225 O226 1.962 . S
Zn225 O228 1.986 . S
Zn225 O230 1.996 . S
Zn225 O233 1.943 . S
O226 Zn225 1.962 . S
O226 C231 1.254 . S
O227 Zn224 2.031 . S
O227 C231 1.269 . S
O228 Zn225 1.986 . S
O228 C235 1.262 . S
O229 Zn224 2.049 . S
O229 C237 1.260 . S
O230 Zn225 1.996 . S
O230 C237 1.257 . S
C231 O226 1.254 . S
C231 O227 1.269 . S
C232 O233 1.249 . S
C232 O234 1.270 . S
O233 Zn225 1.943 . S
O233 C232 1.249 . S
O234 Zn224 2.067 . S
O234 C232 1.270 . S
C235 O228 1.262 . S
C235 O236 1.232 . S
O236 C235 1.232 . S
C237 O229 1.260 . S
C237 O230 1.257 . S
Zn238 O241 2.031 . S
Zn238 O243 2.049 . S
Zn238 O248 2.067 . S
Zn239 O240 1.962 . S
Zn239 O242 1.986 . S
Zn239 O244 1.996 . S
Zn239 O247 1.943 . S
O240 Zn239 1.962 . S
O240 C245 1.254 . S
O241 Zn238 2.031 . S
O241 C245 1.269 . S
O242 Zn239 1.986 . S
O242 C249 1.262 . S
O243 Zn238 2.049 . S
O243 C251 1.260 . S
O244 Zn239 1.996 . S
O244 C251 1.257 . S
C245 O240 1.254 . S
C245 O241 1.269 . S
C246 O247 1.249 . S
C246 O248 1.270 . S
O247 Zn239 1.943 . S
O247 C246 1.249 . S
O248 Zn238 2.067 . S
O248 C246 1.270 . S
C249 O242 1.262 . S
C249 O250 1.232 . S
O250 C249 1.232 . S
C251 O243 1.260 . S
C251 O244 1.257 . S
Zn252 O255 2.031 . S
Zn252 O257 2.049 . S
Zn252 O262 2.067 . S
Zn253 O254 1.962 . S
Zn253 O256 1.986 . S
Zn253 O258 1.996 . S
Zn253 O261 1.943 . S
O254 Zn253 1.962 . S
O254 C259 1.254 . S
O255 Zn252 2.031 . S
O255 C259 1.269 . S
O256 Zn253 1.986 . S
O256 C263 1.262 . S
O257 Zn252 2.049 . S
O257 C265 1.260 . S
O258 Zn253 1.996 . S
O258 C265 1.257 . S
C259 O254 1.254 . S
C259 O255 1.269 . S
C260 O261 1.249 . S
C260 O262 1.270 . S
O261 Zn253 1.943 . S
O261 C260 1.249 . S
O262 Zn252 2.067 . S
O262 C260 1.270 . S
C263 O256 1.262 . S
C263 O264 1.232 . S
O264 C263 1.232 . S
C265 O257 1.260 . S
C265 O258 1.257 . S
Zn266 O269 2.031 . S
Zn266 O271 2.049 . S
Zn266 O276 2.067 . S
Zn267 O268 1.962 . S
Zn267 O270 1.986 . S
Zn267 O272 1.996 . S
Zn267 O275 1.943 . S
O268 Zn267 1.962 . S
O268 C273 1.254 . S
O269 Zn266 2.031 . S
O269 C273 1.269 . S
O270 Zn267 1.986 . S
O270 C277 1.262 . S
O271 Zn266 2.049 . S
O271 C279 1.260 . S
O272 Zn267 1.996 . S
O272 C279 1.257 . S
C273 O268 1.254 . S
C273 O269 1.269 . S
C274 O275 1.249 . S
C274 O276 1.270 . S
O275 Zn267 1.943 . S
O275 C274 1.249 . S
O276 Zn266 2.067 . S
O276 C274 1.270 . S
C277 O270 1.262 . S
C277 O278 1.232 . S
O278 C277 1.232 . S
C279 O271 1.260 . S
C279 O272 1.257 . S
Zn280 O283 2.031 . S
Zn280 O285 2.049 . S
Zn280 O290 2.067 . S
Zn281 O282 1.962 . S
Zn281 O284 1.986 . S
Zn281 O286 1.996 . S
Zn281 O289 1.943 . S
O282 Zn281 1.962 . S
O282 C287 1.254 . S
O283 Zn280 2.031 . S
O283 C287 1.269 . S
O284 Zn281 1.986 . S
O284 C291 1.262 . S
O285 Zn280 2.049 . S
O285 C293 1.260 . S
O286 Zn281 1.996 . S
O286 C293 1.257 . S
C287 O282 1.254 . S
C287 O283 1.269 . S
C288 O289 1.249 . S
C288 O290 1.270 . S
O289 Zn281 1.943 . S
O289 C288 1.249 . S
O290 Zn280 2.067 . S
O290 C288 1.270 . S
C291 O284 1.262 . S
C291 O292 1.232 . S
O292 C291 1.232 . S
C293 O285 1.260 . S
C293 O286 1.257 . S
Zn294 O297 2.031 . S
Zn294 O299 2.049 . S
Zn294 O304 2.067 . S
Zn295 O296 1.962 . S
Zn295 O298 1.986 . S
Zn295 O300 1.996 . S
Zn295 O303 1.943 . S
O296 Zn295 1.962 . S
O296 C301 1.254 . S
O297 Zn294 2.031 . S
O297 C301 1.269 . S
O298 Zn295 1.986 . S
O298 C305 1.262 . S
O299 Zn294 2.049 . S
O299 C307 1.260 . S
O300 Zn295 1.996 . S
O300 C307 1.257 . S
C301 O296 1.254 . S
C301 O297 1.269 . S
C302 O303 1.249 . S
C302 O304 1.270 . S
O303 Zn295 1.943 . S
O303 C302 1.249 . S
O304 Zn294 2.067 . S
O304 C302 1.270 . S
C305 O298 1.262 . S
C305 O306 1.232 . S
O306 C305 1.232 . S
C307 O299 1.260 . S
C307 O300 1.257 . S
Zn308 O311 2.031 . S
Zn308 O313 2.049 . S
Zn308 O318 2.067 . S
Zn309 O310 1.962 . S
Zn309 O312 1.986 . S
Zn309 O314 1.996 . S
Zn309 O317 1.943 . S
O310 Zn309 1.962 . S
O310 C315 1.254 . S
O311 Zn308 2.031 . S
O311 C315 1.269 . S
O312 Zn309 1.986 . S
O312 C319 1.262 . S
O313 Zn308 2.049 . S
O313 C321 1.260 . S
O314 Zn309 1.996 . S
O314 C321 1.257 . S
C315 O310 1.254 . S
C315 O311 1.269 . S
C316 O317 1.249 . S
C316 O318 1.270 . S
O317 Zn309 1.943 . S
O317 C316 1.249 . S
O318 Zn308 2.067 . S
O318 C316 1.270 . S
C319 O312 1.262 . S
C319 O320 1.232 . S
O320 C319 1.232 . S
C321 O313 1.260 . S
C321 O314 1.257 . S
Zn322 O325 2.031 . S
Zn322 O327 2.049 . S
Zn322 O332 2.067 . S
Zn323 O324 1.962 . S
Zn323 O326 1.986 . S
Zn323 O328 1.996 . S
Zn323 O331 1.943 . S
O324 Zn323 1.962 . S
O324 C329 1.254 . S
O325 Zn322 2.031 . S
O325 C329 1.269 . S
O326 Zn323 1.986 . S
O326 C333 1.262 . S
O327 Zn322 2.049 . S
O327 C335 1.260 . S
O328 Zn323 1.996 . S
O328 C335 1.257 . S
C329 O324 1.254 . S
C329 O325 1.269 . S
C330 O331 1.249 . S
C330 O332 1.270 . S
O331 Zn323 1.943 . S
O331 C330 1.249 . S
O332 Zn322 2.067 . S
O332 C330 1.270 . S
C333 O326 1.262 . S
C333 O334 1.232 . S
O334 C333 1.232 . S
C335 O327 1.260 . S
C335 O328 1.257 . S
Zn336 O339 2.031 . S
Zn336 O341 2.049 . S
Zn336 O346 2.067 . S
Zn337 O338 1.962 . S
Zn337 O340 1.986 . S
Zn337 O342 1.996 . S
Zn337 O345 1.943 . S
O338 Zn337 1.962 . S
O338 C343 1.254 . S
O339 Zn336 2.031 . S
O339 C343 1.269 . S
O340 Zn337 1.986 . S
O340 C347 1.262 . S
O341 Zn336 2.049 . S
O341 C349 1.260 . S
O342 Zn337 1.996 . S
O342 C349 1.257 . S
C343 O338 1.254 . S
C343 O339 1.269 . S
C344 O345 1.249 . S
C344 O346 1.270 . S
O345 Zn337 1.943 . S
O345 C344 1.249 . S
O346 Zn336 2.067 . S
O346 C344 1.270 . S
C347 O340 1.262 . S
C347 O348 1.232 . S
O348 C347 1.232 . S
C349 O341 1.260 . S
C349 O342 1.257 . S
Zn350 O353 2.031 . S
Zn350 O355 2.049 . S
Zn350 O360 2.067 . S
Zn351 O352 1.962 . S
Zn351 O354 1.986 . S
Zn351 O356 1.996 . S
Zn351 O359 1.943 . S
O352 Zn351 1.962 . S
O352 C357 1.254 . S
O353 Zn350 2.031 . S
O353 C357 1.269 . S
O354 Zn351 1.986 . S
O354 C361 1.262 . S
O355 Zn350 2.049 . S
O355 C363 1.260 . S
O356 Zn351 1.996 . S
O356 C363 1.257 . S
C357 O352 1.254 . S
C357 O353 1.269 . S
C358 O359 1.249 . S
C358 O360 1.270 . S
O359 Zn351 1.943 . S
O359 C358 1.249 . S
O360 Zn350 2.067 . S
O360 C358 1.270 . S
C361 O354 1.262 . S
C361 O362 1.232 . S
O362 C361 1.232 . S
C363 O355 1.260 . S
C363 O356 1.257 . S
Zn364 O367 2.031 . S
Zn364 O369 2.049 . S
Zn364 O374 2.067 . S
Zn365 O366 1.962 . S
Zn365 O368 1.986 . S
Zn365 O370 1.996 . S
Zn365 O373 1.943 . S
O366 Zn365 1.962 . S
O366 C371 1.254 . S
O367 Zn364 2.031 . S
O367 C371 1.269 . S
O368 Zn365 1.986 . S
O368 C375 1.262 . S
O369 Zn364 2.049 . S
O369 C377 1.260 . S
O370 Zn365 1.996 . S
O370 C377 1.257 . S
C371 O366 1.254 . S
C371 O367 1.269 . S
C372 O373 1.249 . S
C372 O374 1.270 . S
O373 Zn365 1.943 . S
O373 C372 1.249 . S
O374 Zn364 2.067 . S
O374 C372 1.270 . S
C375 O368 1.262 . S
C375 O376 1.232 . S
O376 C375 1.232 . S
C377 O369 1.260 . S
C377 O370 1.257 . S
Zn378 O381 2.031 . S
Zn378 O383 2.049 . S
Zn378 O388 2.067 . S
Zn379 O380 1.962 . S
Zn379 O382 1.986 . S
Zn379 O384 1.996 . S
Zn379 O387 1.943 . S
O380 Zn379 1.962 . S
O380 C385 1.254 . S
O381 Zn378 2.031 . S
O381 C385 1.269 . S
O382 Zn379 1.986 . S
O382 C389 1.262 . S
O383 Zn378 2.049 . S
O383 C391 1.260 . S
O384 Zn379 1.996 . S
O384 C391 1.257 . S
C385 O380 1.254 . S
C385 O381 1.269 . S
C386 O387 1.249 . S
C386 O388 1.270 . S
O387 Zn379 1.943 . S
O387 C386 1.249 . S
O388 Zn378 2.067 . S
O388 C386 1.270 . S
C389 O382 1.262 . S
C389 O390 1.232 . S
O390 C389 1.232 . S
C391 O383 1.260 . S
C391 O384 1.257 . S
Zn392 O395 2.031 . S
Zn392 O397 2.049 . S
Zn392 O402 2.067 . S
Zn393 O394 1.962 . S
Zn393 O396 1.986 . S
Zn393 O398 1.996 . S
Zn393 O401 1.943 . S
O394 Zn393 1.962 . S
O394 C399 1.254 . S
O395 Zn392 2.031 . S
O395 C399 1.269 . S
O396 Zn393 1.986 . S
O396 C403 1.262 . S
O397 Zn392 2.049 . S
O397 C405 1.260 . S
O398 Zn393 1.996 . S
O398 C405 1.257 . S
C399 O394 1.254 . S
C399 O395 1.269 . S
C400 O401 1.249 . S
C400 O402 1.270 . S
O401 Zn393 1.943 . S
O401 C400 1.249 . S
O402 Zn392 2.067 . S
O402 C400 1.270 . S
C403 O396 1.262 . S
C403 O404 1.232 . S
O404 C403 1.232 . S
C405 O397 1.260 . S
C405 O398 1.257 . S
Zn406 O409 2.031 . S
Zn406 O411 2.049 . S
Zn406 O416 2.067 . S
Zn407 O408 1.962 . S
Zn407 O410 1.986 . S
Zn407 O412 1.996 . S
Zn407 O415 1.943 . S
O408 Zn407 1.962 . S
O408 C413 1.254 . S
O409 Zn406 2.031 . S
O409 C413 1.269 . S
O410 Zn407 1.986 . S
O410 C417 1.262 . S
O411 Zn406 2.049 . S
O411 C419 1.260 . S
O412 Zn407 1.996 . S
O412 C419 1.257 . S
C413 O408 1.254 . S
C413 O409 1.269 . S
C414 O415 1.249 . S
C414 O416 1.270 . S
O415 Zn407 1.943 . S
O415 C414 1.249 . S
O416 Zn406 2.067 . S
O416 C414 1.270 . S
C417 O410 1.262 . S
C417 O418 1.232 . S
O418 C417 1.232 . S
C419 O411 1.260 . S
C419 O412 1.257 . S
Zn420 O423 2.031 . S
Zn420 O425 2.049 . S
Zn420 O430 2.067 . S
Zn421 O422 1.962 . S
Zn421 O424 1.986 . S
Zn421 O426 1.996 . S
Zn421 O429 1.943 . S
O422 Zn421 1.962 . S
O422 C427 1.254 . S
O423 Zn420 2.031 . S
O423 C427 1.269 . S
O424 Zn421 1.986 . S
O424 C431 1.262 . S
O425 Zn420 2.049 . S
O425 C433 1.260 . S
O426 Zn421 1.996 . S
O426 C433 1.257 . S
C427 O422 1.254 . S
C427 O423 1.269 . S
C428 O429 1.249 . S
C428 O430 1.270 . S
O429 Zn421 1.943 . S
O429 C428 1.249 . S
O430 Zn420 2.067 . S
O430 C428 1.270 . S
C431 O424 1.262 . S
C431 O432 1.232 . S
O432 C431 1.232 . S
C433 O425 1.260 . S
C433 O426 1.257 . S
Zn434 O437 2.031 . S
Zn434 O439 2.049 . S
Zn434 O444 2.067 . S
Zn435 O436 1.962 . S
Zn435 O438 1.986 . S
Zn435 O440 1.996 . S
Zn435 O443 1.943 . S
O436 Zn435 1.962 . S
O436 C441 1.254 . S
O437 Zn434 2.031 . S
O437 C441 1.269 . S
O438 Zn435 1.986 . S
O438 C445 1.262 . S
O439 Zn434 2.049 . S
O439 C447 1.260 . S
O440 Zn435 1.996 . S
O440 C447 1.257 . S
C441 O436 1.254 . S
C441 O437 1.269 . S
C442 O443 1.249 . S
C442 O444 1.270 . S
O443 Zn435 1.943 . S
O443 C442 1.249 . S
O444 Zn434 2.067 . S
O444 C442 1.270 . S
C445 O438 1.262 . S
C445 O446 1.232 . S
O446 C445 1.232 . S
C447 O439 1.260 . S
C447 O440 1.257 . S
C448 C449 1.369 . S
C448 C450 1.419 . S
C448 H452 0.930 . S
C449 C448 1.369 . S
C449 C458 1.429 . S
C450 C448 1.419 . S
C450 C451 1.363 . S
C450 H453 0.929 . S
C451 C450 1.363 . S
C451 C457 1.428 . S
H452 C448 0.930 . S
H453 C450 0.929 . S
S454 N455 1.613 . S
S454 N456 1.610 . S
N455 S454 1.613 . S
N455 C458 1.350 . S
N456 S454 1.610 . S
N456 C457 1.351 . S
C457 C451 1.428 . S
C457 N456 1.351 . S
C457 C458 1.434 . S
C458 C449 1.429 . S
C458 N455 1.350 . S
C458 C457 1.434 . S
C459 C460 1.369 . S
C459 C461 1.419 . S
C459 H463 0.930 . S
C460 C459 1.369 . S
C460 C469 1.429 . S
C461 C459 1.419 . S
C461 C462 1.363 . S
C461 H464 0.929 . S
C462 C461 1.363 . S
C462 C468 1.428 . S
H463 C459 0.930 . S
H464 C461 0.929 . S
S465 N466 1.613 . S
S465 N467 1.610 . S
N466 S465 1.613 . S
N466 C469 1.350 . S
N467 S465 1.610 . S
N467 C468 1.351 . S
C468 C462 1.428 . S
C468 N467 1.351 . S
C468 C469 1.434 . S
C469 C460 1.429 . S
C469 N466 1.350 . S
C469 C468 1.434 . S
C470 C471 1.369 . S
C470 C472 1.419 . S
C470 H474 0.930 . S
C471 C470 1.369 . S
C471 C480 1.429 . S
C472 C470 1.419 . S
C472 C473 1.363 . S
C472 H475 0.929 . S
C473 C472 1.363 . S
C473 C479 1.428 . S
H474 C470 0.930 . S
H475 C472 0.929 . S
S476 N477 1.613 . S
S476 N478 1.610 . S
N477 S476 1.613 . S
N477 C480 1.350 . S
N478 S476 1.610 . S
N478 C479 1.351 . S
C479 C473 1.428 . S
C479 N478 1.351 . S
C479 C480 1.434 . S
C480 C471 1.429 . S
C480 N477 1.350 . S
C480 C479 1.434 . S
C481 C482 1.369 . S
C481 C483 1.419 . S
C481 H485 0.930 . S
C482 C481 1.369 . S
C482 C491 1.429 . S
C483 C481 1.419 . S
C483 C484 1.363 . S
C483 H486 0.929 . S
C484 C483 1.363 . S
C484 C490 1.428 . S
H485 C481 0.930 . S
H486 C483 0.929 . S
S487 N488 1.613 . S
S487 N489 1.610 . S
N488 S487 1.613 . S
N488 C491 1.350 . S
N489 S487 1.610 . S
N489 C490 1.351 . S
C490 C484 1.428 . S
C490 N489 1.351 . S
C490 C491 1.434 . S
C491 C482 1.429 . S
C491 N488 1.350 . S
C491 C490 1.434 . S
C492 C493 1.369 . S
C492 C494 1.419 . S
C492 H496 0.930 . S
C493 C492 1.369 . S
C493 C502 1.429 . S
C494 C492 1.419 . S
C494 C495 1.363 . S
C494 H497 0.929 . S
C495 C494 1.363 . S
C495 C501 1.428 . S
H496 C492 0.930 . S
H497 C494 0.929 . S
S498 N499 1.613 . S
S498 N500 1.610 . S
N499 S498 1.613 . S
N499 C502 1.350 . S
N500 S498 1.610 . S
N500 C501 1.351 . S
C501 C495 1.428 . S
C501 N500 1.351 . S
C501 C502 1.434 . S
C502 C493 1.429 . S
C502 N499 1.350 . S
C502 C501 1.434 . S
C503 C504 1.369 . S
C503 C505 1.419 . S
C503 H507 0.930 . S
C504 C503 1.369 . S
C504 C513 1.429 . S
C505 C503 1.419 . S
C505 C506 1.363 . S
C505 H508 0.929 . S
C506 C505 1.363 . S
C506 C512 1.428 . S
H507 C503 0.930 . S
H508 C505 0.929 . S
S509 N510 1.613 . S
S509 N511 1.610 . S
N510 S509 1.613 . S
N510 C513 1.350 . S
N511 S509 1.610 . S
N511 C512 1.351 . S
C512 C506 1.428 . S
C512 N511 1.351 . S
C512 C513 1.434 . S
C513 C504 1.429 . S
C513 N510 1.350 . S
C513 C512 1.434 . S
C514 C515 1.369 . S
C514 C516 1.419 . S
C514 H518 0.930 . S
C515 C514 1.369 . S
C515 C524 1.429 . S
C516 C514 1.419 . S
C516 C517 1.363 . S
C516 H519 0.929 . S
C517 C516 1.363 . S
C517 C523 1.428 . S
H518 C514 0.930 . S
H519 C516 0.929 . S
S520 N521 1.613 . S
S520 N522 1.610 . S
N521 S520 1.613 . S
N521 C524 1.350 . S
N522 S520 1.610 . S
N522 C523 1.351 . S
C523 C517 1.428 . S
C523 N522 1.351 . S
C523 C524 1.434 . S
C524 C515 1.429 . S
C524 N521 1.350 . S
C524 C523 1.434 . S
C525 C526 1.369 . S
C525 C527 1.419 . S
C525 H529 0.930 . S
C526 C525 1.369 . S
C526 C535 1.429 . S
C527 C525 1.419 . S
C527 C528 1.363 . S
C527 H530 0.929 . S
C528 C527 1.363 . S
C528 C534 1.428 . S
H529 C525 0.930 . S
H530 C527 0.929 . S
S531 N532 1.613 . S
S531 N533 1.610 . S
N532 S531 1.613 . S
N532 C535 1.350 . S
N533 S531 1.610 . S
N533 C534 1.351 . S
C534 C528 1.428 . S
C534 N533 1.351 . S
C534 C535 1.434 . S
C535 C526 1.429 . S
C535 N532 1.350 . S
C535 C534 1.434 . S
C536 C537 1.369 . S
C536 C538 1.419 . S
C536 H540 0.930 . S
C537 C536 1.369 . S
C537 C546 1.429 . S
C538 C536 1.419 . S
C538 C539 1.363 . S
C538 H541 0.929 . S
C539 C538 1.363 . S
C539 C545 1.428 . S
H540 C536 0.930 . S
H541 C538 0.929 . S
S542 N543 1.613 . S
S542 N544 1.610 . S
N543 S542 1.613 . S
N543 C546 1.350 . S
N544 S542 1.610 . S
N544 C545 1.351 . S
C545 C539 1.428 . S
C545 N544 1.351 . S
C545 C546 1.434 . S
C546 C537 1.429 . S
C546 N543 1.350 . S
C546 C545 1.434 . S
C547 C548 1.369 . S
C547 C549 1.419 . S
C547 H551 0.930 . S
C548 C547 1.369 . S
C548 C557 1.429 . S
C549 C547 1.419 . S
C549 C550 1.363 . S
C549 H552 0.929 . S
C550 C549 1.363 . S
C550 C556 1.428 . S
H551 C547 0.930 . S
H552 C549 0.929 . S
S553 N554 1.613 . S
S553 N555 1.610 . S
N554 S553 1.613 . S
N554 C557 1.350 . S
N555 S553 1.610 . S
N555 C556 1.351 . S
C556 C550 1.428 . S
C556 N555 1.351 . S
C556 C557 1.434 . S
C557 C548 1.429 . S
C557 N554 1.350 . S
C557 C556 1.434 . S
C558 C559 1.369 . S
C558 C560 1.419 . S
C558 H562 0.930 . S
C559 C558 1.369 . S
C559 C568 1.429 . S
C560 C558 1.419 . S
C560 C561 1.363 . S
C560 H563 0.929 . S
C561 C560 1.363 . S
C561 C567 1.428 . S
H562 C558 0.930 . S
H563 C560 0.929 . S
S564 N565 1.613 . S
S564 N566 1.610 . S
N565 S564 1.613 . S
N565 C568 1.350 . S
N566 S564 1.610 . S
N566 C567 1.351 . S
C567 C561 1.428 . S
C567 N566 1.351 . S
C567 C568 1.434 . S
C568 C559 1.429 . S
C568 N565 1.350 . S
C568 C567 1.434 . S
C569 C570 1.369 . S
C569 C571 1.419 . S
C569 H573 0.930 . S
C570 C569 1.369 . S
C570 C579 1.429 . S
C571 C569 1.419 . S
C571 C572 1.363 . S
C571 H574 0.929 . S
C572 C571 1.363 . S
C572 C578 1.428 . S
H573 C569 0.930 . S
H574 C571 0.929 . S
S575 N576 1.613 . S
S575 N577 1.610 . S
N576 S575 1.613 . S
N576 C579 1.350 . S
N577 S575 1.610 . S
N577 C578 1.351 . S
C578 C572 1.428 . S
C578 N577 1.351 . S
C578 C579 1.434 . S
C579 C570 1.429 . S
C579 N576 1.350 . S
C579 C578 1.434 . S
C580 C581 1.369 . S
C580 C582 1.419 . S
C580 H584 0.930 . S
C581 C580 1.369 . S
C581 C590 1.429 . S
C582 C580 1.419 . S
C582 C583 1.363 . S
C582 H585 0.929 . S
C583 C582 1.363 . S
C583 C589 1.428 . S
H584 C580 0.930 . S
H585 C582 0.929 . S
S586 N587 1.613 . S
S586 N588 1.610 . S
N587 S586 1.613 . S
N587 C590 1.350 . S
N588 S586 1.610 . S
N588 C589 1.351 . S
C589 C583 1.428 . S
C589 N588 1.351 . S
C589 C590 1.434 . S
C590 C581 1.429 . S
C590 N587 1.350 . S
C590 C589 1.434 . S
C591 C592 1.369 . S
C591 C593 1.419 . S
C591 H595 0.930 . S
C592 C591 1.369 . S
C592 C601 1.429 . S
C593 C591 1.419 . S
C593 C594 1.363 . S
C593 H596 0.929 . S
C594 C593 1.363 . S
C594 C600 1.428 . S
H595 C591 0.930 . S
H596 C593 0.929 . S
S597 N598 1.613 . S
S597 N599 1.610 . S
N598 S597 1.613 . S
N598 C601 1.350 . S
N599 S597 1.610 . S
N599 C600 1.351 . S
C600 C594 1.428 . S
C600 N599 1.351 . S
C600 C601 1.434 . S
C601 C592 1.429 . S
C601 N598 1.350 . S
C601 C600 1.434 . S
C602 C603 1.369 . S
C602 C604 1.419 . S
C602 H606 0.930 . S
C603 C602 1.369 . S
C603 C612 1.429 . S
C604 C602 1.419 . S
C604 C605 1.363 . S
C604 H607 0.929 . S
C605 C604 1.363 . S
C605 C611 1.428 . S
H606 C602 0.930 . S
H607 C604 0.929 . S
S608 N609 1.613 . S
S608 N610 1.610 . S
N609 S608 1.613 . S
N609 C612 1.350 . S
N610 S608 1.610 . S
N610 C611 1.351 . S
C611 C605 1.428 . S
C611 N610 1.351 . S
C611 C612 1.434 . S
C612 C603 1.429 . S
C612 N609 1.350 . S
C612 C611 1.434 . S
C613 C614 1.369 . S
C613 C615 1.419 . S
C613 H617 0.930 . S
C614 C613 1.369 . S
C614 C623 1.429 . S
C615 C613 1.419 . S
C615 C616 1.363 . S
C615 H618 0.929 . S
C616 C615 1.363 . S
C616 C622 1.428 . S
H617 C613 0.930 . S
H618 C615 0.929 . S
S619 N620 1.613 . S
S619 N621 1.610 . S
N620 S619 1.613 . S
N620 C623 1.350 . S
N621 S619 1.610 . S
N621 C622 1.351 . S
C622 C616 1.428 . S
C622 N621 1.351 . S
C622 C623 1.434 . S
C623 C614 1.429 . S
C623 N620 1.350 . S
C623 C622 1.434 . S
C624 C625 1.369 . S
C624 C626 1.419 1_554 S
C624 H628 0.930 . S
C625 C624 1.369 . S
C625 C634 1.429 . S
C626 C624 1.419 1_556 S
C626 C627 1.363 . S
C626 H629 0.929 . S
C627 C626 1.363 . S
C627 C633 1.428 . S
H628 C624 0.930 . S
H629 C626 0.929 . S
S630 N631 1.615 1_556 S
S630 N632 1.609 . S
N631 S630 1.615 1_554 S
N631 C634 1.350 . S
N632 S630 1.609 . S
N632 C633 1.351 . S
C633 C627 1.428 . S
C633 N632 1.351 . S
C633 C634 1.434 1_556 S
C634 C625 1.429 . S
C634 N631 1.350 . S
C634 C633 1.434 1_554 S
C635 C636 1.369 . S
C635 C637 1.419 1_556 S
C635 H639 0.930 . S
C636 C635 1.369 . S
C636 C645 1.429 . S
C637 C635 1.419 1_554 S
C637 C638 1.363 . S
C637 H640 0.929 . S
C638 C637 1.363 . S
C638 C644 1.428 . S
H639 C635 0.930 . S
H640 C637 0.929 . S
S641 N642 1.615 1_554 S
S641 N643 1.609 . S
N642 S641 1.615 1_556 S
N642 C645 1.350 . S
N643 S641 1.609 . S
N643 C644 1.351 . S
C644 C638 1.428 . S
C644 N643 1.351 . S
C644 C645 1.434 1_554 S
C645 C636 1.429 . S
C645 N642 1.350 . S
C645 C644 1.434 1_556 S
C646 C647 1.369 . S
C646 C648 1.419 1_556 S
C646 H650 0.930 . S
C647 C646 1.369 . S
C647 C656 1.429 . S
C648 C646 1.419 1_554 S
C648 C649 1.363 . S
C648 H651 0.929 . S
C649 C648 1.363 . S
C649 C655 1.428 . S
H650 C646 0.930 . S
H651 C648 0.929 . S
S652 N653 1.615 1_554 S
S652 N654 1.609 . S
N653 S652 1.615 1_556 S
N653 C656 1.350 . S
N654 S652 1.609 . S
N654 C655 1.351 . S
C655 C649 1.428 . S
C655 N654 1.351 . S
C655 C656 1.434 1_554 S
C656 C647 1.429 . S
C656 N653 1.350 . S
C656 C655 1.434 1_556 S
C657 C658 1.369 . S
C657 C659 1.419 1_556 S
C657 H661 0.930 . S
C658 C657 1.369 . S
C658 C667 1.429 . S
C659 C657 1.419 1_554 S
C659 C660 1.363 . S
C659 H662 0.929 . S
C660 C659 1.363 . S
C660 C666 1.428 . S
H661 C657 0.930 . S
H662 C659 0.929 . S
S663 N664 1.615 1_554 S
S663 N665 1.609 . S
N664 S663 1.615 1_556 S
N664 C667 1.350 . S
N665 S663 1.609 . S
N665 C666 1.351 . S
C666 C660 1.428 . S
C666 N665 1.351 . S
C666 C667 1.434 1_554 S
C667 C658 1.429 . S
C667 N664 1.350 . S
C667 C666 1.434 1_556 S
C668 C669 1.369 . S
C668 C670 1.419 . S
C668 H672 0.930 . S
C669 C668 1.369 . S
C669 C678 1.429 . S
C670 C668 1.419 . S
C670 C671 1.363 . S
C670 H673 0.929 . S
C671 C670 1.363 . S
C671 C677 1.428 . S
H672 C668 0.930 . S
H673 C670 0.929 . S
S674 N675 1.613 . S
S674 N676 1.610 . S
N675 S674 1.613 . S
N675 C678 1.350 . S
N676 S674 1.610 . S
N676 C677 1.351 . S
C677 C671 1.428 . S
C677 N676 1.351 . S
C677 C678 1.434 . S
C678 C669 1.429 . S
C678 N675 1.350 . S
C678 C677 1.434 . S
C679 C680 1.369 . S
C679 C681 1.419 . S
C679 H683 0.930 . S
C680 C679 1.369 . S
C680 C689 1.429 . S
C681 C679 1.419 . S
C681 C682 1.363 . S
C681 H684 0.929 . S
C682 C681 1.363 . S
C682 C688 1.428 . S
H683 C679 0.930 . S
H684 C681 0.929 . S
S685 N686 1.613 . S
S685 N687 1.610 . S
N686 S685 1.613 . S
N686 C689 1.350 . S
N687 S685 1.610 . S
N687 C688 1.351 . S
C688 C682 1.428 . S
C688 N687 1.351 . S
C688 C689 1.434 . S
C689 C680 1.429 . S
C689 N686 1.350 . S
C689 C688 1.434 . S
C690 C691 1.369 . S
C690 C692 1.419 . S
C690 H694 0.930 . S
C691 C690 1.369 . S
C691 C700 1.429 . S
C692 C690 1.419 . S
C692 C693 1.363 . S
C692 H695 0.929 . S
C693 C692 1.363 . S
C693 C699 1.428 . S
H694 C690 0.930 . S
H695 C692 0.929 . S
S696 N697 1.613 . S
S696 N698 1.610 . S
N697 S696 1.613 . S
N697 C700 1.350 . S
N698 S696 1.610 . S
N698 C699 1.351 . S
C699 C693 1.428 . S
C699 N698 1.351 . S
C699 C700 1.434 . S
C700 C691 1.429 . S
C700 N697 1.350 . S
C700 C699 1.434 . S
C701 C702 1.369 . S
C701 C703 1.419 . S
C701 H705 0.930 . S
C702 C701 1.369 . S
C702 C711 1.429 . S
C703 C701 1.419 . S
C703 C704 1.363 . S
C703 H706 0.929 . S
C704 C703 1.363 . S
C704 C710 1.428 . S
H705 C701 0.930 . S
H706 C703 0.929 . S
S707 N708 1.613 . S
S707 N709 1.610 . S
N708 S707 1.613 . S
N708 C711 1.350 . S
N709 S707 1.610 . S
N709 C710 1.351 . S
C710 C704 1.428 . S
C710 N709 1.351 . S
C710 C711 1.434 . S
C711 C702 1.429 . S
C711 N708 1.350 . S
C711 C710 1.434 . S
C712 C713 1.369 . S
C712 C714 1.419 . S
C712 H716 0.930 . S
C713 C712 1.369 . S
C713 C722 1.429 . S
C714 C712 1.419 . S
C714 C715 1.363 . S
C714 H717 0.929 . S
C715 C714 1.363 . S
C715 C721 1.428 . S
H716 C712 0.930 . S
H717 C714 0.929 . S
S718 N719 1.613 . S
S718 N720 1.610 . S
N719 S718 1.613 . S
N719 C722 1.350 . S
N720 S718 1.610 . S
N720 C721 1.351 . S
C721 C715 1.428 . S
C721 N720 1.351 . S
C721 C722 1.434 . S
C722 C713 1.429 . S
C722 N719 1.350 . S
C722 C721 1.434 . S
C723 C724 1.369 . S
C723 C725 1.419 . S
C723 H727 0.930 . S
C724 C723 1.369 . S
C724 C733 1.429 . S
C725 C723 1.419 . S
C725 C726 1.363 . S
C725 H728 0.929 . S
C726 C725 1.363 . S
C726 C732 1.428 . S
H727 C723 0.930 . S
H728 C725 0.929 . S
S729 N730 1.613 . S
S729 N731 1.610 . S
N730 S729 1.613 . S
N730 C733 1.350 . S
N731 S729 1.610 . S
N731 C732 1.351 . S
C732 C726 1.428 . S
C732 N731 1.351 . S
C732 C733 1.434 . S
C733 C724 1.429 . S
C733 N730 1.350 . S
C733 C732 1.434 . S
C734 C735 1.369 . S
C734 C736 1.419 . S
C734 H738 0.930 . S
C735 C734 1.369 . S
C735 C744 1.429 . S
C736 C734 1.419 . S
C736 C737 1.363 . S
C736 H739 0.929 . S
C737 C736 1.363 . S
C737 C743 1.428 . S
H738 C734 0.930 . S
H739 C736 0.929 . S
S740 N741 1.613 . S
S740 N742 1.610 . S
N741 S740 1.613 . S
N741 C744 1.350 . S
N742 S740 1.610 . S
N742 C743 1.351 . S
C743 C737 1.428 . S
C743 N742 1.351 . S
C743 C744 1.434 . S
C744 C735 1.429 . S
C744 N741 1.350 . S
C744 C743 1.434 . S
C745 C746 1.369 . S
C745 C747 1.419 . S
C745 H749 0.930 . S
C746 C745 1.369 . S
C746 C755 1.429 . S
C747 C745 1.419 . S
C747 C748 1.363 . S
C747 H750 0.929 . S
C748 C747 1.363 . S
C748 C754 1.428 . S
H749 C745 0.930 . S
H750 C747 0.929 . S
S751 N752 1.613 . S
S751 N753 1.610 . S
N752 S751 1.613 . S
N752 C755 1.350 . S
N753 S751 1.610 . S
N753 C754 1.351 . S
C754 C748 1.428 . S
C754 N753 1.351 . S
C754 C755 1.434 . S
C755 C746 1.429 . S
C755 N752 1.350 . S
C755 C754 1.434 . S
C756 C757 1.369 . S
C756 C758 1.419 1_556 S
C756 H760 0.930 . S
C757 C756 1.369 . S
C757 C766 1.429 . S
C758 C756 1.419 1_554 S
C758 C759 1.363 . S
C758 H761 0.929 . S
C759 C758 1.363 . S
C759 C765 1.428 . S
H760 C756 0.930 . S
H761 C758 0.929 . S
S762 N763 1.615 1_554 S
S762 N764 1.609 . S
N763 S762 1.615 1_556 S
N763 C766 1.350 . S
N764 S762 1.609 . S
N764 C765 1.351 . S
C765 C759 1.428 . S
C765 N764 1.351 . S
C765 C766 1.434 1_554 S
C766 C757 1.429 . S
C766 N763 1.350 . S
C766 C765 1.434 1_556 S
C767 C768 1.369 . S
C767 C769 1.419 1_554 S
C767 H771 0.930 . S
C768 C767 1.369 . S
C768 C777 1.429 . S
C769 C767 1.419 1_556 S
C769 C770 1.363 . S
C769 H772 0.929 . S
C770 C769 1.363 . S
C770 C776 1.428 . S
H771 C767 0.930 . S
H772 C769 0.929 . S
S773 N774 1.615 1_556 S
S773 N775 1.609 . S
N774 S773 1.615 1_554 S
N774 C777 1.350 . S
N775 S773 1.609 . S
N775 C776 1.351 . S
C776 C770 1.428 . S
C776 N775 1.351 . S
C776 C777 1.434 1_556 S
C777 C768 1.429 . S
C777 N774 1.350 . S
C777 C776 1.434 1_554 S
C778 C779 1.369 . S
C778 C780 1.419 1_554 S
C778 H782 0.930 . S
C779 C778 1.369 . S
C779 C788 1.429 . S
C780 C778 1.419 1_556 S
C780 C781 1.363 . S
C780 H783 0.929 . S
C781 C780 1.363 . S
C781 C787 1.428 . S
H782 C778 0.930 . S
H783 C780 0.929 . S
S784 N785 1.615 1_556 S
S784 N786 1.609 . S
N785 S784 1.615 1_554 S
N785 C788 1.350 . S
N786 S784 1.609 . S
N786 C787 1.351 . S
C787 C781 1.428 . S
C787 N786 1.351 . S
C787 C788 1.434 1_556 S
C788 C779 1.429 . S
C788 N785 1.350 . S
C788 C787 1.434 1_554 S
C789 C790 1.369 . S
C789 C791 1.419 1_556 S
C789 H793 0.930 . S
C790 C789 1.369 . S
C790 C799 1.429 . S
C791 C789 1.419 1_554 S
C791 C792 1.363 . S
C791 H794 0.929 . S
C792 C791 1.363 . S
C792 C798 1.428 . S
H793 C789 0.930 . S
H794 C791 0.929 . S
S795 N796 1.615 1_554 S
S795 N797 1.609 . S
N796 S795 1.615 1_556 S
N796 C799 1.350 . S
N797 S795 1.609 . S
N797 C798 1.351 . S
C798 C792 1.428 . S
C798 N797 1.351 . S
C798 C799 1.434 1_554 S
C799 C790 1.429 . S
C799 N796 1.350 . S
C799 C798 1.434 1_556 S
C800 C801 1.369 . S
C800 C802 1.419 1_545 S
C800 H804 0.930 . S
C801 C800 1.369 . S
C801 C810 1.429 . S
C802 C800 1.419 1_565 S
C802 C803 1.363 . S
C802 H805 0.929 . S
C803 C802 1.363 . S
C803 C809 1.428 . S
H804 C800 0.930 . S
H805 C802 0.929 . S
S806 N807 1.613 . S
S806 N808 1.610 1_545 S
N807 S806 1.613 . S
N807 C810 1.350 . S
N808 S806 1.610 1_565 S
N808 C809 1.351 . S
C809 C803 1.428 . S
C809 N808 1.351 . S
C809 C810 1.434 1_565 S
C810 C801 1.429 . S
C810 N807 1.350 . S
C810 C809 1.434 1_545 S
C811 C812 1.369 . S
C811 C813 1.419 1_655 S
C811 H815 0.930 . S
C812 C811 1.369 . S
C812 C821 1.429 . S
C813 C811 1.419 1_455 S
C813 C814 1.363 . S
C813 H816 0.929 . S
C814 C813 1.363 . S
C814 C820 1.428 . S
H815 C811 0.930 . S
H816 C813 0.929 . S
S817 N818 1.613 1_455 S
S817 N819 1.610 . S
N818 S817 1.613 1_655 S
N818 C821 1.350 . S
N819 S817 1.610 . S
N819 C820 1.351 . S
C820 C814 1.428 . S
C820 N819 1.351 . S
C820 C821 1.434 1_455 S
C821 C812 1.429 . S
C821 N818 1.350 . S
C821 C820 1.434 1_655 S
C822 C823 1.369 . S
C822 C824 1.419 1_545 S
C822 H826 0.930 . S
C823 C822 1.369 . S
C823 C832 1.429 . S
C824 C822 1.419 1_565 S
C824 C825 1.363 . S
C824 H827 0.929 . S
C825 C824 1.363 . S
C825 C831 1.428 . S
H826 C822 0.930 . S
H827 C824 0.929 . S
S828 N829 1.613 . S
S828 N830 1.610 1_545 S
N829 S828 1.613 . S
N829 C832 1.350 . S
N830 S828 1.610 1_565 S
N830 C831 1.351 . S
C831 C825 1.428 . S
C831 N830 1.351 . S
C831 C832 1.434 1_565 S
C832 C823 1.429 . S
C832 N829 1.350 . S
C832 C831 1.434 1_545 S
C833 C834 1.369 . S
C833 C835 1.419 1_455 S
C833 H837 0.930 . S
C834 C833 1.369 . S
C834 C843 1.463 . S
C835 C833 1.419 1_655 S
C835 C836 1.363 . S
C835 H838 0.929 . S
C836 C835 1.363 . S
C836 C842 1.428 . S
H837 C833 0.930 . S
H838 C835 0.929 . S
S839 N840 1.613 . S
S839 N841 1.610 . S
N840 S839 1.613 . S
N840 C843 1.347 1_655 S
N841 S839 1.610 . S
N841 C842 1.351 . S
C842 C836 1.428 . S
C842 N841 1.351 . S
C842 C843 1.399 1_655 S
C843 C834 1.463 . S
C843 N840 1.347 1_455 S
C843 C842 1.399 1_455 S
C844 C845 1.369 . S
C844 C846 1.419 1_565 S
C844 H848 0.930 . S
C845 C844 1.369 . S
C845 C854 1.429 . S
C846 C844 1.419 1_545 S
C846 C847 1.363 . S
C846 H849 0.929 . S
C847 C846 1.363 . S
C847 C853 1.428 . S
H848 C844 0.930 . S
H849 C846 0.929 . S
S850 N851 1.613 1_545 S
S850 N852 1.610 . S
N851 S850 1.613 1_565 S
N851 C854 1.350 . S
N852 S850 1.610 . S
N852 C853 1.351 . S
C853 C847 1.428 . S
C853 N852 1.351 . S
C853 C854 1.434 1_545 S
C854 C845 1.429 . S
C854 N851 1.350 . S
C854 C853 1.434 1_565 S
C855 C856 1.369 . S
C855 C857 1.419 1_655 S
C855 H859 0.930 . S
C856 C855 1.369 . S
C856 C865 1.429 . S
C857 C855 1.419 1_455 S
C857 C858 1.363 . S
C857 H860 0.929 . S
C858 C857 1.363 . S
C858 C864 1.428 . S
H859 C855 0.930 . S
H860 C857 0.929 . S
S861 N862 1.613 1_455 S
S861 N863 1.610 . S
N862 S861 1.613 1_655 S
N862 C865 1.350 . S
N863 S861 1.610 . S
N863 C864 1.351 . S
C864 C858 1.428 . S
C864 N863 1.351 . S
C864 C865 1.434 1_455 S
C865 C856 1.429 . S
C865 N862 1.350 . S
C865 C864 1.434 1_655 S
C866 C867 1.369 . S
C866 C868 1.419 1_565 S
C866 H870 0.930 . S
C867 C866 1.369 . S
C867 C876 1.429 . S
C868 C866 1.419 1_545 S
C868 C869 1.363 . S
C868 H871 0.929 . S
C869 C868 1.363 . S
C869 C875 1.428 . S
H870 C866 0.930 . S
H871 C868 0.929 . S
S872 N873 1.594 1_545 S
S872 N874 1.610 . S
N873 S872 1.594 1_565 S
N873 C876 1.351 . S
N874 S872 1.610 . S
N874 C875 1.351 . S
C875 C869 1.428 . S
C875 N874 1.351 . S
C875 C876 1.434 1_545 S
C876 C867 1.429 . S
C876 N873 1.351 . S
C876 C875 1.434 1_565 S
C877 C878 1.369 . S
C877 C879 1.419 1_655 S
C877 H881 0.930 . S
C878 C877 1.369 . S
C878 C887 1.429 . S
C879 C877 1.419 1_455 S
C879 C880 1.363 . S
C879 H882 0.929 . S
C880 C879 1.363 . S
C880 C886 1.428 . S
H881 C877 0.930 . S
H882 C879 0.929 . S
S883 N884 1.613 1_455 S
S883 N885 1.610 . S
N884 S883 1.613 1_655 S
N884 C887 1.350 . S
N885 S883 1.610 . S
N885 C886 1.351 . S
C886 C880 1.428 . S
C886 N885 1.351 . S
C886 C887 1.434 1_455 S
C887 C878 1.429 . S
C887 N884 1.350 . S
C887 C886 1.434 1_655 S
C888 C889 1.369 . S
C888 C890 1.419 . S
C888 H892 0.930 . S
C889 C888 1.369 . S
C889 C898 1.429 . S
C890 C888 1.419 . S
C890 C891 1.363 . S
C890 H893 0.929 . S
C891 C890 1.363 . S
C891 C897 1.428 . S
H892 C888 0.930 . S
H893 C890 0.929 . S
S894 N895 1.613 . S
S894 N896 1.610 . S
N895 S894 1.613 . S
N895 C898 1.350 . S
N896 S894 1.610 . S
N896 C897 1.351 . S
C897 C891 1.428 . S
C897 N896 1.351 . S
C897 C898 1.434 . S
C898 C889 1.429 . S
C898 N895 1.350 . S
C898 C897 1.434 . S
C899 C900 1.369 . S
C899 C901 1.419 . S
C899 H903 0.930 . S
C900 C899 1.369 . S
C900 C909 1.429 . S
C901 C899 1.419 . S
C901 C902 1.363 . S
C901 H904 0.929 . S
C902 C901 1.363 . S
C902 C908 1.428 . S
H903 C899 0.930 . S
H904 C901 0.929 . S
S905 N906 1.613 . S
S905 N907 1.610 . S
N906 S905 1.613 . S
N906 C909 1.350 . S
N907 S905 1.610 . S
N907 C908 1.351 . S
C908 C902 1.428 . S
C908 N907 1.351 . S
C908 C909 1.434 . S
C909 C900 1.429 . S
C909 N906 1.350 . S
C909 C908 1.434 . S
C910 C911 1.369 . S
C910 C912 1.419 . S
C910 H914 0.930 . S
C911 C910 1.369 . S
C911 C920 1.429 . S
C912 C910 1.419 . S
C912 C913 1.363 . S
C912 H915 0.929 . S
C913 C912 1.363 . S
C913 C919 1.428 . S
H914 C910 0.930 . S
H915 C912 0.929 . S
S916 N917 1.613 . S
S916 N918 1.610 . S
N917 S916 1.613 . S
N917 C920 1.350 . S
N918 S916 1.610 . S
N918 C919 1.351 . S
C919 C913 1.428 . S
C919 N918 1.351 . S
C919 C920 1.434 . S
C920 C911 1.429 . S
C920 N917 1.350 . S
C920 C919 1.434 . S
C921 C922 1.369 . S
C921 C923 1.419 . S
C921 H925 0.930 . S
C922 C921 1.369 . S
C922 C931 1.429 . S
C923 C921 1.419 . S
C923 C924 1.363 . S
C923 H926 0.929 . S
C924 C923 1.363 . S
C924 C930 1.428 . S
H925 C921 0.930 . S
H926 C923 0.929 . S
S927 N928 1.613 . S
S927 N929 1.610 . S
N928 S927 1.613 . S
N928 C931 1.350 . S
N929 S927 1.610 . S
N929 C930 1.351 . S
C930 C924 1.428 . S
C930 N929 1.351 . S
C930 C931 1.434 . S
C931 C922 1.429 . S
C931 N928 1.350 . S
C931 C930 1.434 . S
C932 C933 1.369 . S
C932 C934 1.419 . S
C932 H936 0.930 . S
C933 C932 1.369 . S
C933 C942 1.429 . S
C934 C932 1.419 . S
C934 C935 1.363 . S
C934 H937 0.929 . S
C935 C934 1.363 . S
C935 C941 1.428 . S
H936 C932 0.930 . S
H937 C934 0.929 . S
S938 N939 1.613 . S
S938 N940 1.610 . S
N939 S938 1.613 . S
N939 C942 1.350 . S
N940 S938 1.610 . S
N940 C941 1.351 . S
C941 C935 1.428 . S
C941 N940 1.351 . S
C941 C942 1.434 . S
C942 C933 1.429 . S
C942 N939 1.350 . S
C942 C941 1.434 . S
C943 C944 1.369 . S
C943 C945 1.419 . S
C943 H947 0.930 . S
C944 C943 1.369 . S
C944 C953 1.429 . S
C945 C943 1.419 . S
C945 C946 1.363 . S
C945 H948 0.929 . S
C946 C945 1.363 . S
C946 C952 1.428 . S
H947 C943 0.930 . S
H948 C945 0.929 . S
S949 N950 1.613 . S
S949 N951 1.610 . S
N950 S949 1.613 . S
N950 C953 1.350 . S
N951 S949 1.610 . S
N951 C952 1.351 . S
C952 C946 1.428 . S
C952 N951 1.351 . S
C952 C953 1.434 . S
C953 C944 1.429 . S
C953 N950 1.350 . S
C953 C952 1.434 . S
C954 C955 1.369 . S
C954 C956 1.419 . S
C954 H958 0.930 . S
C955 C954 1.369 . S
C955 C964 1.429 . S
C956 C954 1.419 . S
C956 C957 1.363 . S
C956 H959 0.929 . S
C957 C956 1.363 . S
C957 C963 1.428 . S
H958 C954 0.930 . S
H959 C956 0.929 . S
S960 N961 1.613 . S
S960 N962 1.610 . S
N961 S960 1.613 . S
N961 C964 1.350 . S
N962 S960 1.610 . S
N962 C963 1.351 . S
C963 C957 1.428 . S
C963 N962 1.351 . S
C963 C964 1.434 . S
C964 C955 1.429 . S
C964 N961 1.350 . S
C964 C963 1.434 . S
C965 C966 1.369 . S
C965 C967 1.419 . S
C965 H969 0.930 . S
C966 C965 1.369 . S
C966 C975 1.429 . S
C967 C965 1.419 . S
C967 C968 1.363 . S
C967 H970 0.929 . S
C968 C967 1.363 . S
C968 C974 1.428 . S
H969 C965 0.930 . S
H970 C967 0.929 . S
S971 N972 1.613 . S
S971 N973 1.610 . S
N972 S971 1.613 . S
N972 C975 1.350 . S
N973 S971 1.610 . S
N973 C974 1.351 . S
C974 C968 1.428 . S
C974 N973 1.351 . S
C974 C975 1.434 . S
C975 C966 1.429 . S
C975 N972 1.350 . S
C975 C974 1.434 . S
C976 C977 1.369 . S
C976 C978 1.419 . S
C976 H980 0.930 . S
C977 C976 1.369 . S
C977 C986 1.429 . S
C978 C976 1.419 . S
C978 C979 1.363 . S
C978 H981 0.929 . S
C979 C978 1.363 . S
C979 C985 1.428 . S
H980 C976 0.930 . S
H981 C978 0.929 . S
S982 N983 1.613 . S
S982 N984 1.610 . S
N983 S982 1.613 . S
N983 C986 1.350 . S
N984 S982 1.610 . S
N984 C985 1.351 . S
C985 C979 1.428 . S
C985 N984 1.351 . S
C985 C986 1.434 . S
C986 C977 1.429 . S
C986 N983 1.350 . S
C986 C985 1.434 . S
C987 C988 1.369 . S
C987 C989 1.419 . S
C987 H991 0.930 . S
C988 C987 1.369 . S
C988 C997 1.429 . S
C989 C987 1.419 . S
C989 C990 1.363 . S
C989 H992 0.929 . S
C990 C989 1.363 . S
C990 C996 1.428 . S
H991 C987 0.930 . S
H992 C989 0.929 . S
S993 N994 1.613 . S
S993 N995 1.610 . S
N994 S993 1.613 . S
N994 C997 1.350 . S
N995 S993 1.610 . S
N995 C996 1.351 . S
C996 C990 1.428 . S
C996 N995 1.351 . S
C996 C997 1.434 . S
C997 C988 1.429 . S
C997 N994 1.350 . S
C997 C996 1.434 . S
C998 C999 1.369 . S
C998 C1000 1.419 . S
C998 H1002 0.930 . S
C999 C998 1.369 . S
C999 C1008 1.429 . S
C1000 C998 1.419 . S
C1000 C1001 1.363 . S
C1000 H1003 0.929 . S
C1001 C1000 1.363 . S
C1001 C1007 1.428 . S
H1002 C998 0.930 . S
H1003 C1000 0.929 . S
S1004 N1005 1.613 . S
S1004 N1006 1.610 . S
N1005 S1004 1.613 . S
N1005 C1008 1.350 . S
N1006 S1004 1.610 . S
N1006 C1007 1.351 . S
C1007 C1001 1.428 . S
C1007 N1006 1.351 . S
C1007 C1008 1.434 . S
C1008 C999 1.429 . S
C1008 N1005 1.350 . S
C1008 C1007 1.434 . S
C1009 C1010 1.369 . S
C1009 C1011 1.419 . S
C1009 H1013 0.930 . S
C1010 C1009 1.369 . S
C1010 C1019 1.429 . S
C1011 C1009 1.419 . S
C1011 C1012 1.363 . S
C1011 H1014 0.929 . S
C1012 C1011 1.363 . S
C1012 C1018 1.428 . S
H1013 C1009 0.930 . S
H1014 C1011 0.929 . S
S1015 N1016 1.613 . S
S1015 N1017 1.610 . S
N1016 S1015 1.613 . S
N1016 C1019 1.350 . S
N1017 S1015 1.610 . S
N1017 C1018 1.351 . S
C1018 C1012 1.428 . S
C1018 N1017 1.351 . S
C1018 C1019 1.434 . S
C1019 C1010 1.429 . S
C1019 N1016 1.350 . S
C1019 C1018 1.434 . S
C1020 C1021 1.369 . S
C1020 C1022 1.419 . S
C1020 H1024 0.930 . S
C1021 C1020 1.369 . S
C1021 C1030 1.429 . S
C1022 C1020 1.419 . S
C1022 C1023 1.363 . S
C1022 H1025 0.929 . S
C1023 C1022 1.363 . S
C1023 C1029 1.428 . S
H1024 C1020 0.930 . S
H1025 C1022 0.929 . S
S1026 N1027 1.613 . S
S1026 N1028 1.610 . S
N1027 S1026 1.613 . S
N1027 C1030 1.350 . S
N1028 S1026 1.610 . S
N1028 C1029 1.351 . S
C1029 C1023 1.428 . S
C1029 N1028 1.351 . S
C1029 C1030 1.434 . S
C1030 C1021 1.429 . S
C1030 N1027 1.350 . S
C1030 C1029 1.434 . S
C1031 C1032 1.369 . S
C1031 C1033 1.419 . S
C1031 H1035 0.930 . S
C1032 C1031 1.369 . S
C1032 C1041 1.429 . S
C1033 C1031 1.419 . S
C1033 C1034 1.363 . S
C1033 H1036 0.929 . S
C1034 C1033 1.363 . S
C1034 C1040 1.428 . S
H1035 C1031 0.930 . S
H1036 C1033 0.929 . S
S1037 N1038 1.613 . S
S1037 N1039 1.610 . S
N1038 S1037 1.613 . S
N1038 C1041 1.350 . S
N1039 S1037 1.610 . S
N1039 C1040 1.351 . S
C1040 C1034 1.428 . S
C1040 N1039 1.351 . S
C1040 C1041 1.434 . S
C1041 C1032 1.429 . S
C1041 N1038 1.350 . S
C1041 C1040 1.434 . S
C1042 C1043 1.369 . S
C1042 C1044 1.419 . S
C1042 H1046 0.930 . S
C1043 C1042 1.369 . S
C1043 C1052 1.429 . S
C1044 C1042 1.419 . S
C1044 C1045 1.363 . S
C1044 H1047 0.929 . S
C1045 C1044 1.363 . S
C1045 C1051 1.428 . S
H1046 C1042 0.930 . S
H1047 C1044 0.929 . S
S1048 N1049 1.613 . S
S1048 N1050 1.610 . S
N1049 S1048 1.613 . S
N1049 C1052 1.350 . S
N1050 S1048 1.610 . S
N1050 C1051 1.351 . S
C1051 C1045 1.428 . S
C1051 N1050 1.351 . S
C1051 C1052 1.434 . S
C1052 C1043 1.429 . S
C1052 N1049 1.350 . S
C1052 C1051 1.434 . S
C1053 C1054 1.369 . S
C1053 C1055 1.419 . S
C1053 H1057 0.930 . S
C1054 C1053 1.369 . S
C1054 C1063 1.429 . S
C1055 C1053 1.419 . S
C1055 C1056 1.363 . S
C1055 H1058 0.929 . S
C1056 C1055 1.363 . S
C1056 C1062 1.428 . S
H1057 C1053 0.930 . S
H1058 C1055 0.929 . S
S1059 N1060 1.613 . S
S1059 N1061 1.610 . S
N1060 S1059 1.613 . S
N1060 C1063 1.350 . S
N1061 S1059 1.610 . S
N1061 C1062 1.351 . S
C1062 C1056 1.428 . S
C1062 N1061 1.351 . S
C1062 C1063 1.434 . S
C1063 C1054 1.429 . S
C1063 N1060 1.350 . S
C1063 C1062 1.434 . S
C1064 C1065 1.369 . S
C1064 C1066 1.419 . S
C1064 H1068 0.930 . S
C1065 C1064 1.369 . S
C1065 C1074 1.429 . S
C1066 C1064 1.419 . S
C1066 C1067 1.363 . S
C1066 H1069 0.929 . S
C1067 C1066 1.363 . S
C1067 C1073 1.428 . S
H1068 C1064 0.930 . S
H1069 C1066 0.929 . S
S1070 N1071 1.613 . S
S1070 N1072 1.610 . S
N1071 S1070 1.613 . S
N1071 C1074 1.350 . S
N1072 S1070 1.610 . S
N1072 C1073 1.351 . S
C1073 C1067 1.428 . S
C1073 N1072 1.351 . S
C1073 C1074 1.434 . S
C1074 C1065 1.429 . S
C1074 N1071 1.350 . S
C1074 C1073 1.434 . S
C1075 C1076 1.369 . S
C1075 C1077 1.419 . S
C1075 H1079 0.930 . S
C1076 C1075 1.369 . S
C1076 C1085 1.429 . S
C1077 C1075 1.419 . S
C1077 C1078 1.363 . S
C1077 H1080 0.929 . S
C1078 C1077 1.363 . S
C1078 C1084 1.428 . S
H1079 C1075 0.930 . S
H1080 C1077 0.929 . S
S1081 N1082 1.613 . S
S1081 N1083 1.610 . S
N1082 S1081 1.613 . S
N1082 C1085 1.350 . S
N1083 S1081 1.610 . S
N1083 C1084 1.351 . S
C1084 C1078 1.428 . S
C1084 N1083 1.351 . S
C1084 C1085 1.434 . S
C1085 C1076 1.429 . S
C1085 N1082 1.350 . S
C1085 C1084 1.434 . S
C1086 C1087 1.369 . S
C1086 C1088 1.419 . S
C1086 H1090 0.930 . S
C1087 C1086 1.369 . S
C1087 C1096 1.429 . S
C1088 C1086 1.419 . S
C1088 C1089 1.363 . S
C1088 H1091 0.929 . S
C1089 C1088 1.363 . S
C1089 C1095 1.428 . S
H1090 C1086 0.930 . S
H1091 C1088 0.929 . S
S1092 N1093 1.613 . S
S1092 N1094 1.610 . S
N1093 S1092 1.613 . S
N1093 C1096 1.350 . S
N1094 S1092 1.610 . S
N1094 C1095 1.351 . S
C1095 C1089 1.428 . S
C1095 N1094 1.351 . S
C1095 C1096 1.434 . S
C1096 C1087 1.429 . S
C1096 N1093 1.350 . S
C1096 C1095 1.434 . S
C1097 C1098 1.369 . S
C1097 C1099 1.419 . S
C1097 H1101 0.930 . S
C1098 C1097 1.369 . S
C1098 C1107 1.429 . S
C1099 C1097 1.419 . S
C1099 C1100 1.363 . S
C1099 H1102 0.929 . S
C1100 C1099 1.363 . S
C1100 C1106 1.428 . S
H1101 C1097 0.930 . S
H1102 C1099 0.929 . S
S1103 N1104 1.613 . S
S1103 N1105 1.610 . S
N1104 S1103 1.613 . S
N1104 C1107 1.350 . S
N1105 S1103 1.610 . S
N1105 C1106 1.351 . S
C1106 C1100 1.428 . S
C1106 N1105 1.351 . S
C1106 C1107 1.434 . S
C1107 C1098 1.429 . S
C1107 N1104 1.350 . S
C1107 C1106 1.434 . S
C1108 C1109 1.369 . S
C1108 C1110 1.419 . S
C1108 H1112 0.930 . S
C1109 C1108 1.369 . S
C1109 C1118 1.429 . S
C1110 C1108 1.419 . S
C1110 C1111 1.363 . S
C1110 H1113 0.929 . S
C1111 C1110 1.363 . S
C1111 C1117 1.428 . S
H1112 C1108 0.930 . S
H1113 C1110 0.929 . S
S1114 N1115 1.613 . S
S1114 N1116 1.610 . S
N1115 S1114 1.613 . S
N1115 C1118 1.350 . S
N1116 S1114 1.610 . S
N1116 C1117 1.351 . S
C1117 C1111 1.428 . S
C1117 N1116 1.351 . S
C1117 C1118 1.434 . S
C1118 C1109 1.429 . S
C1118 N1115 1.350 . S
C1118 C1117 1.434 . S
C1119 C1120 1.369 . S
C1119 C1121 1.419 . S
C1119 H1123 0.930 . S
C1120 C1119 1.369 . S
C1120 C1129 1.429 . S
C1121 C1119 1.419 . S
C1121 C1122 1.363 . S
C1121 H1124 0.929 . S
C1122 C1121 1.363 . S
C1122 C1128 1.428 . S
H1123 C1119 0.930 . S
H1124 C1121 0.929 . S
S1125 N1126 1.613 . S
S1125 N1127 1.610 . S
N1126 S1125 1.613 . S
N1126 C1129 1.350 . S
N1127 S1125 1.610 . S
N1127 C1128 1.351 . S
C1128 C1122 1.428 . S
C1128 N1127 1.351 . S
C1128 C1129 1.434 . S
C1129 C1120 1.429 . S
C1129 N1126 1.350 . S
C1129 C1128 1.434 . S
C1130 C1131 1.369 . S
C1130 C1132 1.419 . S
C1130 H1134 0.930 . S
C1131 C1130 1.369 . S
C1131 C1140 1.429 . S
C1132 C1130 1.419 . S
C1132 C1133 1.363 . S
C1132 H1135 0.929 . S
C1133 C1132 1.363 . S
C1133 C1139 1.428 . S
H1134 C1130 0.930 . S
H1135 C1132 0.929 . S
S1136 N1137 1.613 . S
S1136 N1138 1.610 . S
N1137 S1136 1.613 . S
N1137 C1140 1.350 . S
N1138 S1136 1.610 . S
N1138 C1139 1.351 . S
C1139 C1133 1.428 . S
C1139 N1138 1.351 . S
C1139 C1140 1.434 . S
C1140 C1131 1.429 . S
C1140 N1137 1.350 . S
C1140 C1139 1.434 . S
C1141 C1142 1.369 . S
C1141 C1143 1.419 . S
C1141 H1145 0.930 . S
C1142 C1141 1.369 . S
C1142 C1151 1.429 . S
C1143 C1141 1.419 . S
C1143 C1144 1.363 . S
C1143 H1146 0.929 . S
C1144 C1143 1.363 . S
C1144 C1150 1.428 . S
H1145 C1141 0.930 . S
H1146 C1143 0.929 . S
S1147 N1148 1.613 . S
S1147 N1149 1.610 . S
N1148 S1147 1.613 . S
N1148 C1151 1.350 . S
N1149 S1147 1.610 . S
N1149 C1150 1.351 . S
C1150 C1144 1.428 . S
C1150 N1149 1.351 . S
C1150 C1151 1.434 . S
C1151 C1142 1.429 . S
C1151 N1148 1.350 . S
C1151 C1150 1.434 . S
C449 C414 1.320 . S
C451 C8 1.321 . S
C460 C22 1.318 . S
C462 C428 1.319 . S
C471 C442 1.318 . S
C473 C36 1.320 . S
C482 C400 1.326 . S
C484 C50 1.326 . S
C493 C64 1.319 . S
C495 C386 1.320 . S
C504 C344 1.324 . S
C506 C78 1.324 . S
C515 C92 1.325 . S
C517 C358 1.325 . S
C526 C372 1.326 . S
C528 C106 1.326 . S
C537 C120 1.323 . S
C539 C302 1.324 . S
C548 C134 1.328 . S
C550 C316 1.327 . S
C559 C330 1.318 . S
C561 C148 1.319 . S
C570 C162 1.318 . S
C572 C288 1.319 . S
C581 C274 1.319 . S
C583 C176 1.320 . S
C592 C232 1.323 . S
C594 C190 1.324 . S
C603 C204 1.317 . S
C605 C246 1.319 . S
C614 C218 1.322 . S
C616 C260 1.323 . S
C625 C7 1.448 . S
C627 C147 1.448 . S
C636 C161 1.444 . S
C638 C21 1.445 . S
C647 C119 1.444 . S
C649 C35 1.444 . S
C658 C133 1.446 . S
C660 C49 1.446 . S
C669 C63 1.448 . S
C671 C203 1.448 . S
C680 C217 1.445 . S
C682 C77 1.445 . S
C691 C175 1.446 . S
C693 C91 1.446 . S
C702 C189 1.445 . S
C704 C105 1.446 . S
C713 C231 1.448 . S
C715 C371 1.448 . S
C724 C385 1.446 . S
C726 C245 1.445 . S
C735 C343 1.443 . S
C737 C259 1.444 . S
C746 C273 1.444 . S
C748 C357 1.444 . S
C757 C287 1.448 . S
C759 C427 1.447 . S
C768 C441 1.447 . S
C770 C301 1.446 . S
C779 C399 1.443 . S
C781 C315 1.444 . S
C790 C329 1.446 . S
C792 C413 1.446 . S
C801 C11 1.339 . S
C803 C67 1.338 . S
C812 C25 1.337 . S
C814 C81 1.339 . S
C823 C95 1.338 . S
C825 C39 1.337 . S
C834 C53 1.336 . S
C836 C109 1.339 . S
C845 C123 1.338 . S
C847 C179 1.339 . S
C856 C193 1.336 . S
C858 C137 1.338 . S
C867 C207 1.337 . S
C869 C151 1.339 . S
C878 C165 1.338 . S
C880 C221 1.339 . S
C889 C235 1.339 . S
C891 C291 1.337 . S
C900 C305 1.339 . S
C902 C249 1.337 . S
C911 C263 1.336 . S
C913 C319 1.339 . S
C922 C333 1.336 . S
C924 C277 1.339 . S
C933 C403 1.339 . S
C935 C347 1.337 . S
C944 C361 1.338 . S
C946 C417 1.338 . S
C955 C375 1.339 . S
C957 C431 1.337 . S
C966 C389 1.337 . S
C968 C445 1.339 . S
C977 C13 1.398 . S
C979 C83 1.406 . S
C988 C27 1.407 . S
C990 C97 1.409 . S
C999 C111 1.408 . S
C1001 C41 1.400 . S
C1010 C69 1.407 . S
C1012 C55 1.409 . S
C1021 C195 1.411 . S
C1023 C125 1.404 . S
C1032 C209 1.411 . S
C1034 C139 1.404 . S
C1043 C223 1.398 . S
C1045 C153 1.405 . S
C1054 C167 1.411 . S
C1056 C181 1.402 . S
C1065 C237 1.409 . S
C1067 C307 1.408 . S
C1076 C321 1.401 . S
C1078 C251 1.402 . S
C1087 C335 1.411 . S
C1089 C265 1.404 . S
C1098 C279 1.411 . S
C1100 C293 1.404 . S
C1109 C419 1.411 . S
C1111 C349 1.406 . S
C1120 C363 1.406 . S
C1122 C433 1.400 . S
C1131 C377 1.399 . S
C1133 C447 1.404 . S
C1142 C405 1.408 . S
C1144 C391 1.409 . S
