# Generated by pormake.
# Topology ukc, (4)-cn, num edge types: 1
# Building blocks:
#     Node 0, Type 0, BuildingBlock: TATPOV_clean_sbu_0, # of connection points: 4
#     Node 1, Type 0, BuildingBlock: TATPOV_clean_sbu_0, # of connection points: 4
#     Node 2, Type 0, BuildingBlock: TATPOV_clean_sbu_0, # of connection points: 4
#     Node 3, Type 0, BuildingBlock: TATPOV_clean_sbu_0, # of connection points: 4
#     Node 4, Type 0, BuildingBlock: TATPOV_clean_sbu_0, # of connection points: 4
#     Node 5, Type 0, BuildingBlock: TATPOV_clean_sbu_0, # of connection points: 4
#     Node 6, Type 0, BuildingBlock: TATPOV_clean_sbu_0, # of connection points: 4
#     Node 7, Type 0, BuildingBlock: TATPOV_clean_sbu_0, # of connection points: 4
#     Node 8, Type 0, BuildingBlock: TATPOV_clean_sbu_0, # of connection points: 4
#     Node 9, Type 0, BuildingBlock: TATPOV_clean_sbu_0, # of connection points: 4
#     Node 10, Type 0, BuildingBlock: TATPOV_clean_sbu_0, # of connection points: 4
#     Node 11, Type 0, BuildingBlock: TATPOV_clean_sbu_0, # of connection points: 4
#     Node 12, Type 0, BuildingBlock: TATPOV_clean_sbu_0, # of connection points: 4
#     Node 13, Type 0, BuildingBlock: TATPOV_clean_sbu_0, # of connection points: 4
#     Node 14, Type 0, BuildingBlock: TATPOV_clean_sbu_0, # of connection points: 4
#     Node 15, Type 0, BuildingBlock: TATPOV_clean_sbu_0, # of connection points: 4
#     Node 16, Type 0, BuildingBlock: TATPOV_clean_sbu_0, # of connection points: 4
#     Node 17, Type 0, BuildingBlock: TATPOV_clean_sbu_0, # of connection points: 4
#     Node 18, Type 0, BuildingBlock: TATPOV_clean_sbu_0, # of connection points: 4
#     Node 19, Type 0, BuildingBlock: TATPOV_clean_sbu_0, # of connection points: 4
#     Node 20, Type 0, BuildingBlock: TATPOV_clean_sbu_0, # of connection points: 4
#     Node 21, Type 0, BuildingBlock: TATPOV_clean_sbu_0, # of connection points: 4
#     Node 22, Type 0, BuildingBlock: TATPOV_clean_sbu_0, # of connection points: 4
#     Node 23, Type 0, BuildingBlock: TATPOV_clean_sbu_0, # of connection points: 4
#     Node 24, Type 0, BuildingBlock: TATPOV_clean_sbu_0, # of connection points: 4
#     Node 25, Type 0, BuildingBlock: TATPOV_clean_sbu_0, # of connection points: 4
#     Node 26, Type 0, BuildingBlock: TATPOV_clean_sbu_0, # of connection points: 4
#     Node 27, Type 0, BuildingBlock: TATPOV_clean_sbu_0, # of connection points: 4
#     Node 28, Type 0, BuildingBlock: TATPOV_clean_sbu_0, # of connection points: 4
#     Node 29, Type 0, BuildingBlock: TATPOV_clean_sbu_0, # of connection points: 4
#     Node 30, Type 0, BuildingBlock: TATPOV_clean_sbu_0, # of connection points: 4
#     Node 31, Type 0, BuildingBlock: TATPOV_clean_sbu_0, # of connection points: 4
#     Edge 32, Type (0, 0), BuildingBlock: AJUNOK_clean_linker_0, # of connection points: 2
#     Edge 33, Type (0, 0), BuildingBlock: AJUNOK_clean_linker_0, # of connection points: 2
#     Edge 34, Type (0, 0), BuildingBlock: AJUNOK_clean_linker_0, # of connection points: 2
#     Edge 35, Type (0, 0), BuildingBlock: AJUNOK_clean_linker_0, # of connection points: 2
#     Edge 36, Type (0, 0), BuildingBlock: AJUNOK_clean_linker_0, # of connection points: 2
#     Edge 37, Type (0, 0), BuildingBlock: AJUNOK_clean_linker_0, # of connection points: 2
#     Edge 38, Type (0, 0), BuildingBlock: AJUNOK_clean_linker_0, # of connection points: 2
#     Edge 39, Type (0, 0), BuildingBlock: AJUNOK_clean_linker_0, # of connection points: 2
#     Edge 40, Type (0, 0), BuildingBlock: AJUNOK_clean_linker_0, # of connection points: 2
#     Edge 41, Type (0, 0), BuildingBlock: AJUNOK_clean_linker_0, # of connection points: 2
#     Edge 42, Type (0, 0), BuildingBlock: AJUNOK_clean_linker_0, # of connection points: 2
#     Edge 43, Type (0, 0), BuildingBlock: AJUNOK_clean_linker_0, # of connection points: 2
#     Edge 44, Type (0, 0), BuildingBlock: AJUNOK_clean_linker_0, # of connection points: 2
#     Edge 45, Type (0, 0), BuildingBlock: AJUNOK_clean_linker_0, # of connection points: 2
#     Edge 46, Type (0, 0), BuildingBlock: AJUNOK_clean_linker_0, # of connection points: 2
#     Edge 47, Type (0, 0), BuildingBlock: AJUNOK_clean_linker_0, # of connection points: 2
#     Edge 48, Type (0, 0), BuildingBlock: AJUNOK_clean_linker_0, # of connection points: 2
#     Edge 49, Type (0, 0), BuildingBlock: AJUNOK_clean_linker_0, # of connection points: 2
#     Edge 50, Type (0, 0), BuildingBlock: AJUNOK_clean_linker_0, # of connection points: 2
#     Edge 51, Type (0, 0), BuildingBlock: AJUNOK_clean_linker_0, # of connection points: 2
#     Edge 52, Type (0, 0), BuildingBlock: AJUNOK_clean_linker_0, # of connection points: 2
#     Edge 53, Type (0, 0), BuildingBlock: AJUNOK_clean_linker_0, # of connection points: 2
#     Edge 54, Type (0, 0), BuildingBlock: AJUNOK_clean_linker_0, # of connection points: 2
#     Edge 55, Type (0, 0), BuildingBlock: AJUNOK_clean_linker_0, # of connection points: 2
#     Edge 56, Type (0, 0), BuildingBlock: AJUNOK_clean_linker_0, # of connection points: 2
#     Edge 57, Type (0, 0), BuildingBlock: AJUNOK_clean_linker_0, # of connection points: 2
#     Edge 58, Type (0, 0), BuildingBlock: AJUNOK_clean_linker_0, # of connection points: 2
#     Edge 59, Type (0, 0), BuildingBlock: AJUNOK_clean_linker_0, # of connection points: 2
#     Edge 60, Type (0, 0), BuildingBlock: AJUNOK_clean_linker_0, # of connection points: 2
#     Edge 61, Type (0, 0), BuildingBlock: AJUNOK_clean_linker_0, # of connection points: 2
#     Edge 62, Type (0, 0), BuildingBlock: AJUNOK_clean_linker_0, # of connection points: 2
#     Edge 63, Type (0, 0), BuildingBlock: AJUNOK_clean_linker_0, # of connection points: 2
#     Edge 64, Type (0, 0), BuildingBlock: AJUNOK_clean_linker_0, # of connection points: 2
#     Edge 65, Type (0, 0), BuildingBlock: AJUNOK_clean_linker_0, # of connection points: 2
#     Edge 66, Type (0, 0), BuildingBlock: AJUNOK_clean_linker_0, # of connection points: 2
#     Edge 67, Type (0, 0), BuildingBlock: AJUNOK_clean_linker_0, # of connection points: 2
#     Edge 68, Type (0, 0), BuildingBlock: AJUNOK_clean_linker_0, # of connection points: 2
#     Edge 69, Type (0, 0), BuildingBlock: AJUNOK_clean_linker_0, # of connection points: 2
#     Edge 70, Type (0, 0), BuildingBlock: AJUNOK_clean_linker_0, # of connection points: 2
#     Edge 71, Type (0, 0), BuildingBlock: AJUNOK_clean_linker_0, # of connection points: 2
#     Edge 72, Type (0, 0), BuildingBlock: AJUNOK_clean_linker_0, # of connection points: 2
#     Edge 73, Type (0, 0), BuildingBlock: AJUNOK_clean_linker_0, # of connection points: 2
#     Edge 74, Type (0, 0), BuildingBlock: AJUNOK_clean_linker_0, # of connection points: 2
#     Edge 75, Type (0, 0), BuildingBlock: AJUNOK_clean_linker_0, # of connection points: 2
#     Edge 76, Type (0, 0), BuildingBlock: AJUNOK_clean_linker_0, # of connection points: 2
#     Edge 77, Type (0, 0), BuildingBlock: AJUNOK_clean_linker_0, # of connection points: 2
#     Edge 78, Type (0, 0), BuildingBlock: AJUNOK_clean_linker_0, # of connection points: 2
#     Edge 79, Type (0, 0), BuildingBlock: AJUNOK_clean_linker_0, # of connection points: 2
#     Edge 80, Type (0, 0), BuildingBlock: AJUNOK_clean_linker_0, # of connection points: 2
#     Edge 81, Type (0, 0), BuildingBlock: AJUNOK_clean_linker_0, # of connection points: 2
#     Edge 82, Type (0, 0), BuildingBlock: AJUNOK_clean_linker_0, # of connection points: 2
#     Edge 83, Type (0, 0), BuildingBlock: AJUNOK_clean_linker_0, # of connection points: 2
#     Edge 84, Type (0, 0), BuildingBlock: AJUNOK_clean_linker_0, # of connection points: 2
#     Edge 85, Type (0, 0), BuildingBlock: AJUNOK_clean_linker_0, # of connection points: 2
#     Edge 86, Type (0, 0), BuildingBlock: AJUNOK_clean_linker_0, # of connection points: 2
#     Edge 87, Type (0, 0), BuildingBlock: AJUNOK_clean_linker_0, # of connection points: 2
#     Edge 88, Type (0, 0), BuildingBlock: AJUNOK_clean_linker_0, # of connection points: 2
#     Edge 89, Type (0, 0), BuildingBlock: AJUNOK_clean_linker_0, # of connection points: 2
#     Edge 90, Type (0, 0), BuildingBlock: AJUNOK_clean_linker_0, # of connection points: 2
#     Edge 91, Type (0, 0), BuildingBlock: AJUNOK_clean_linker_0, # of connection points: 2
#     Edge 92, Type (0, 0), BuildingBlock: AJUNOK_clean_linker_0, # of connection points: 2
#     Edge 93, Type (0, 0), BuildingBlock: AJUNOK_clean_linker_0, # of connection points: 2
#     Edge 94, Type (0, 0), BuildingBlock: AJUNOK_clean_linker_0, # of connection points: 2
#     Edge 95, Type (0, 0), BuildingBlock: AJUNOK_clean_linker_0, # of connection points: 2
# Relax obj value: 0.024
# Max RMSD: 0.063
# Mean RMSD: 0.063
data_MOF--net-ukc--node1-TATPOV_clean_sbu_0--edge1-AJUNOK_clean_linker_0
_symmetry_space_group_name_H-M    P1
_symmetry_Int_Tables_number       1
_symmetry_cell_setting            triclinic
loop_
_symmetry_equiv_pos_as_xyz
'x, y, z'
_cell_length_a     33.156948
_cell_length_b     33.198033
_cell_length_c     66.055019
_cell_angle_alpha  90.008641
_cell_angle_beta   90.147192
_cell_angle_gamma 90.029437
loop_
_atom_site_label
_atom_site_type_symbol
_atom_site_fract_x
_atom_site_fract_y
_atom_site_fract_z
_atom_type_partial_charge
Zn0 Zn 0.05201 0.41788 0.04621 0.0
Zn1 Zn 0.11525 0.39772 0.0234 0.0
O2 O 0.13868 0.4136 0.05136 0.0
O3 O 0.08689 0.43445 0.06922 0.0
O4 O 0.1657 0.39076 0.00589 0.0
O5 O 0.03097 0.45816 0.02715 0.0
O6 O 0.0808 0.43891 0.00744 0.0
C7 C 0.12433 0.42815 0.0677 0.0
C8 C 0.05209 0.33445 0.0327 0.0
O9 O 0.08568 0.34322 0.02438 0.0
O10 O 0.03291 0.3607 0.04272 0.0
C11 C 0.18681 0.35875 0.00503 0.0
O12 O 0.17553 0.32732 0.01569 0.0
C13 C 0.049 0.45978 0.01036 0.0
Zn14 Zn 0.83161 0.80512 0.29982 0.0
Zn15 Zn 0.85564 0.86599 0.27639 0.0
O16 O 0.84005 0.8913 0.30387 0.0
O17 O 0.81602 0.84174 0.32225 0.0
O18 O 0.86493 0.91505 0.25817 0.0
O19 O 0.79094 0.78496 0.28068 0.0
O20 O 0.81347 0.83264 0.26053 0.0
C21 C 0.82453 0.87865 0.32034 0.0
C22 C 0.91548 0.80051 0.28703 0.0
O23 O 0.90883 0.8342 0.27831 0.0
O24 O 0.88798 0.7832 0.29708 0.0
C25 C 0.885 0.94589 0.26371 0.0
O26 O 0.90276 0.94536 0.28151 0.0
C27 C 0.7909 0.80211 0.26363 0.0
Zn28 Zn 0.46017 0.58241 0.54266 0.0
Zn29 Zn 0.39724 0.60097 0.51887 0.0
O30 O 0.37363 0.59176 0.5474 0.0
O31 O 0.42482 0.57322 0.56644 0.0
O32 O 0.34652 0.60738 0.50128 0.0
O33 O 0.47748 0.53683 0.52584 0.0
O34 O 0.42823 0.55429 0.50523 0.0
C35 C 0.38762 0.58057 0.56449 0.0
C36 C 0.46456 0.66227 0.52489 0.0
O37 O 0.43027 0.65359 0.51716 0.0
O38 O 0.48264 0.63718 0.53614 0.0
C39 C 0.33006 0.64069 0.49642 0.0
O40 O 0.34663 0.67445 0.50264 0.0
C41 C 0.45858 0.53209 0.50941 0.0
Zn42 Zn 0.66798 0.21264 0.79718 0.0
Zn43 Zn 0.64789 0.15201 0.77286 0.0
O44 O 0.66259 0.12764 0.80071 0.0
O45 O 0.683 0.17722 0.82018 0.0
O46 O 0.64158 0.10065 0.75578 0.0
O47 O 0.70946 0.2342 0.77909 0.0
O48 O 0.68999 0.18707 0.75773 0.0
C49 C 0.67622 0.14011 0.81765 0.0
C50 C 0.58535 0.21554 0.78222 0.0
O51 O 0.59346 0.18211 0.77356 0.0
O52 O 0.61151 0.23319 0.79306 0.0
C53 C 0.61724 0.09392 0.74121 0.0
O54 O 0.59262 0.12276 0.73547 0.0
C55 C 0.7114 0.21809 0.76183 0.0
Zn56 Zn 0.04639 0.57884 0.40742 0.0
Zn57 Zn 0.10646 0.60268 0.43241 0.0
O58 O 0.13329 0.59061 0.4051 0.0
O59 O 0.08544 0.56767 0.38515 0.0
O60 O 0.15499 0.61116 0.45118 0.0
O61 O 0.02744 0.53548 0.42548 0.0
O62 O 0.07319 0.55876 0.44667 0.0
C63 C 0.12203 0.57689 0.38798 0.0
C64 C 0.0396 0.66145 0.42268 0.0
O65 O 0.07349 0.65501 0.43133 0.0
O66 O 0.02302 0.6344 0.41197 0.0
C67 C 0.18091 0.639 0.44854 0.0
O68 O 0.17536 0.66476 0.4337 0.0
C69 C 0.04368 0.53529 0.44279 0.0
Zn70 Zn 0.66398 0.79448 0.66375 0.0
Zn71 Zn 0.64216 0.85828 0.68549 0.0
O72 O 0.65445 0.87995 0.65672 0.0
O73 O 0.67485 0.82732 0.63934 0.0
O74 O 0.63477 0.90947 0.70259 0.0
O75 O 0.7084 0.77845 0.68162 0.0
O76 O 0.68704 0.82786 0.70099 0.0
C77 C 0.66729 0.86457 0.64024 0.0
C78 C 0.58247 0.78993 0.67957 0.0
O79 O 0.5892 0.82536 0.68637 0.0
O80 O 0.60922 0.77139 0.6696 0.0
C81 C 0.61519 0.94048 0.69685 0.0
O82 O 0.59627 0.93928 0.67936 0.0
C83 C 0.71026 0.79778 0.69804 0.0
Zn84 Zn 0.4639 0.41757 0.91113 0.0
Zn85 Zn 0.40398 0.39679 0.93598 0.0
O86 O 0.37737 0.41053 0.90856 0.0
O87 O 0.42618 0.43174 0.88883 0.0
O88 O 0.35513 0.38985 0.95461 0.0
O89 O 0.4856 0.45942 0.92909 0.0
O90 O 0.43857 0.44003 0.95041 0.0
C91 C 0.3892 0.42433 0.89157 0.0
C92 C 0.46822 0.33517 0.92593 0.0
O93 O 0.43512 0.34306 0.93495 0.0
O94 O 0.48522 0.3614 0.91495 0.0
C95 C 0.33471 0.35756 0.9565 0.0
O96 O 0.34594 0.32538 0.94642 0.0
C97 C 0.46931 0.46171 0.94628 0.0
Zn98 Zn 0.8387 0.21381 0.16034 0.0
Zn99 Zn 0.85894 0.15284 0.18446 0.0
O100 O 0.84772 0.12874 0.15619 0.0
O101 O 0.82776 0.1785 0.13671 0.0
O102 O 0.86571 0.10162 0.20142 0.0
O103 O 0.79436 0.23235 0.17758 0.0
O104 O 0.814 0.18524 0.19888 0.0
C105 C 0.83549 0.14152 0.13905 0.0
C106 C 0.9199 0.21896 0.17706 0.0
O107 O 0.91228 0.18483 0.18512 0.0
O108 O 0.89391 0.23637 0.16603 0.0
C109 C 0.88539 0.09734 0.21785 0.0
O110 O 0.90439 0.12862 0.22548 0.0
C111 C 0.79144 0.21525 0.19456 0.0
Zn112 Zn 0.96281 0.59071 0.91083 0.0
Zn113 Zn 0.90147 0.60999 0.93522 0.0
O114 O 0.87688 0.59561 0.90742 0.0
O115 O 0.92668 0.57596 0.88791 0.0
O116 O 0.85031 0.61686 0.95221 0.0
O117 O 0.98347 0.54902 0.92919 0.0
O118 O 0.9354 0.56701 0.95029 0.0
C119 C 0.88946 0.58215 0.8905 0.0
C120 C 0.96515 0.67302 0.92593 0.0
O121 O 0.932 0.66416 0.93469 0.0
O122 O 0.98311 0.64727 0.91505 0.0
C123 C 0.84496 0.63936 0.96757 0.0
O124 O 0.87518 0.66143 0.97416 0.0
C125 C 0.96654 0.54586 0.94621 0.0
Zn126 Zn 0.15889 0.2192 0.66343 0.0
Zn127 Zn 0.13628 0.15558 0.68683 0.0
O128 O 0.15124 0.13172 0.65901 0.0
O129 O 0.17297 0.18246 0.64062 0.0
O130 O 0.1248 0.10611 0.70459 0.0
O131 O 0.20043 0.23615 0.6831 0.0
O132 O 0.18041 0.18608 0.70248 0.0
C133 C 0.16587 0.14523 0.64252 0.0
C134 C 0.07605 0.22265 0.67746 0.0
O135 O 0.08389 0.18884 0.6858 0.0
O136 O 0.10266 0.24078 0.66717 0.0
C137 C 0.14479 0.0737 0.702 0.0
O138 O 0.17258 0.07289 0.68788 0.0
C139 C 0.20266 0.21688 0.69954 0.0
Zn140 Zn 0.53977 0.40292 0.4082 0.0
Zn141 Zn 0.60242 0.38083 0.43203 0.0
O142 O 0.62736 0.40173 0.4055 0.0
O143 O 0.57686 0.42279 0.38668 0.0
O144 O 0.6522 0.37137 0.44976 0.0
O145 O 0.51831 0.44018 0.42873 0.0
O146 O 0.56757 0.41998 0.44872 0.0
C147 C 0.61433 0.41792 0.38926 0.0
C148 C 0.54003 0.31832 0.41965 0.0
O149 O 0.57296 0.32656 0.42882 0.0
O150 O 0.5213 0.34524 0.40982 0.0
C151 C 0.68318 0.3528 0.44323 0.0
O152 O 0.68187 0.33699 0.425 0.0
C153 C 0.53561 0.4406 0.44578 0.0
Zn154 Zn 0.33678 0.80101 0.16402 0.0
Zn155 Zn 0.35699 0.86436 0.18705 0.0
O156 O 0.34566 0.8866 0.15846 0.0
O157 O 0.32654 0.83509 0.13985 0.0
O158 O 0.36399 0.91657 0.20317 0.0
O159 O 0.29175 0.78544 0.18152 0.0
O160 O 0.3109 0.83452 0.20182 0.0
C161 C 0.3334 0.87236 0.14162 0.0
C162 C 0.41746 0.79662 0.18122 0.0
O163 O 0.40989 0.83152 0.18844 0.0
O164 O 0.39156 0.77836 0.17049 0.0
C165 C 0.39156 0.92587 0.21578 0.0
O166 O 0.4199 0.89942 0.21986 0.0
C167 C 0.28799 0.80457 0.19791 0.0
Zn168 Zn 0.9603 0.39961 0.54049 0.0
Zn169 Zn 0.89802 0.38078 0.51708 0.0
O170 O 0.87501 0.3963 0.54515 0.0
O171 O 0.9266 0.41418 0.56407 0.0
O172 O 0.84573 0.37421 0.50086 0.0
O173 O 0.97948 0.44194 0.52235 0.0
O174 O 0.93079 0.42399 0.50147 0.0
C175 C 0.88905 0.40953 0.56187 0.0
C176 C 0.96295 0.31817 0.5249 0.0
O177 O 0.92873 0.32642 0.51698 0.0
O178 O 0.98132 0.34391 0.53564 0.0
C179 C 0.83817 0.35028 0.48627 0.0
O180 O 0.86673 0.32598 0.47992 0.0
C181 C 0.96183 0.4454 0.50551 0.0
Zn182 Zn 0.34053 0.21759 0.29955 0.0
Zn183 Zn 0.35996 0.15728 0.27356 0.0
O184 O 0.34351 0.12955 0.30008 0.0
O185 O 0.32481 0.17778 0.32083 0.0
O186 O 0.36815 0.10915 0.2547 0.0
O187 O 0.2997 0.2395 0.28077 0.0
O188 O 0.31723 0.19213 0.25918 0.0
C189 C 0.32969 0.14072 0.31716 0.0
C190 C 0.42322 0.21993 0.28499 0.0
O191 O 0.414 0.18771 0.27547 0.0
O192 O 0.3976 0.23737 0.29616 0.0
C193 C 0.38976 0.07915 0.25992 0.0
O194 O 0.40934 0.08082 0.27722 0.0
C195 C 0.29643 0.22329 0.26355 0.0
Zn196 Zn 0.5458 0.59539 0.04618 0.0
Zn197 Zn 0.60995 0.6164 0.02365 0.0
O198 O 0.63258 0.6026 0.05197 0.0
O199 O 0.58059 0.58214 0.06983 0.0
O200 O 0.66056 0.62394 0.0063 0.0
O201 O 0.52796 0.55292 0.02741 0.0
O202 O 0.57799 0.57306 0.00808 0.0
C203 C 0.61797 0.58903 0.06846 0.0
C204 C 0.54385 0.67782 0.03106 0.0
O205 O 0.57831 0.66974 0.02347 0.0
O206 O 0.52495 0.65155 0.04122 0.0
C207 C 0.69253 0.64125 0.01259 0.0
O208 O 0.69259 0.65721 0.0308 0.0
C209 C 0.547 0.55099 0.01092 0.0
Zn210 Zn 0.16962 0.7924 0.79698 0.0
Zn211 Zn 0.14815 0.85461 0.77259 0.0
O212 O 0.16423 0.88089 0.79965 0.0
O213 O 0.1853 0.83099 0.81884 0.0
O214 O 0.14158 0.90187 0.75299 0.0
O215 O 0.21012 0.7706 0.77805 0.0
O216 O 0.18916 0.81889 0.7578 0.0
C217 C 0.17877 0.86819 0.81635 0.0
C218 C 0.08552 0.79198 0.7833 0.0
O219 O 0.09392 0.82516 0.7745 0.0
O220 O 0.11211 0.77336 0.79345 0.0
C221 C 0.12838 0.93682 0.7574 0.0
O222 O 0.11542 0.94366 0.77586 0.0
C223 C 0.2107 0.78772 0.76098 0.0
Zn224 Zn 0.54317 0.89917 0.54077 0.0
Zn225 Zn 0.60643 0.88121 0.51795 0.0
O226 O 0.62932 0.89498 0.54638 0.0
O227 O 0.57669 0.91177 0.56475 0.0
O228 O 0.65781 0.87459 0.50101 0.0
O229 O 0.52474 0.94299 0.52332 0.0
O230 O 0.57403 0.92553 0.50282 0.0
C231 C 0.61434 0.9072 0.56307 0.0
C232 C 0.54062 0.81857 0.52433 0.0
O233 O 0.57528 0.8271 0.51707 0.0
O234 O 0.52167 0.84395 0.53496 0.0
C235 C 0.67976 0.84309 0.50106 0.0
O236 O 0.66852 0.81208 0.51204 0.0
C237 C 0.54311 0.94712 0.50676 0.0
Zn238 Zn 0.34582 0.29191 0.79827 0.0
Zn239 Zn 0.36441 0.35392 0.77354 0.0
O240 O 0.3495 0.37971 0.80091 0.0
O241 O 0.33114 0.32952 0.82055 0.0
O242 O 0.37204 0.40306 0.75514 0.0
O243 O 0.30402 0.27115 0.77987 0.0
O244 O 0.32067 0.32017 0.75906 0.0
C245 C 0.33625 0.36685 0.81782 0.0
C246 C 0.42779 0.2901 0.78316 0.0
O247 O 0.41845 0.32309 0.77437 0.0
O248 O 0.4024 0.27188 0.79414 0.0
C249 C 0.39312 0.43341 0.76045 0.0
O250 O 0.41246 0.432 0.77783 0.0
C251 C 0.29991 0.28874 0.76307 0.0
Zn252 Zn 0.97059 0.09398 0.04505 0.0
Zn253 Zn 0.90855 0.11915 0.02103 0.0
O254 O 0.88351 0.1042 0.0485 0.0
O255 O 0.93262 0.08061 0.0675 0.0
O256 O 0.85959 0.13212 0.00306 0.0
O257 O 0.98704 0.05248 0.02533 0.0
O258 O 0.93896 0.07518 0.00531 0.0
C259 C 0.89571 0.08896 0.06513 0.0
C260 C 0.97686 0.17707 0.03131 0.0
O261 O 0.94284 0.1707 0.02279 0.0
O262 O 0.99392 0.14968 0.04157 0.0
C263 C 0.82658 0.11304 0.00561 0.0
O264 O 0.82505 0.08507 0.01964 0.0
C265 C 0.96888 0.05185 0.0085 0.0
Zn266 Zn 0.15736 0.72221 0.29863 0.0
Zn267 Zn 0.13372 0.66139 0.27318 0.0
O268 O 0.15374 0.63383 0.29921 0.0
O269 O 0.17524 0.68198 0.31937 0.0
O270 O 0.12353 0.61436 0.25369 0.0
O271 O 0.19577 0.7441 0.27855 0.0
O272 O 0.17369 0.69709 0.25774 0.0
C273 C 0.16958 0.64494 0.31589 0.0
C274 C 0.07245 0.72386 0.28662 0.0
O275 O 0.08015 0.69146 0.27696 0.0
O276 O 0.09973 0.74156 0.29673 0.0
C277 C 0.11431 0.57914 0.25984 0.0
O278 O 0.10827 0.57345 0.27926 0.0
C279 C 0.19539 0.72807 0.2612 0.0
Zn280 Zn 0.54434 0.0946 0.91058 0.0
Zn281 Zn 0.6069 0.11559 0.93534 0.0
O282 O 0.63349 0.10017 0.90837 0.0
O283 O 0.5836 0.07993 0.88884 0.0
O284 O 0.65411 0.12173 0.95505 0.0
O285 O 0.52314 0.05328 0.92933 0.0
O286 O 0.57165 0.07369 0.94966 0.0
C287 C 0.62088 0.08606 0.89156 0.0
C288 C 0.54359 0.17807 0.92514 0.0
O289 O 0.57694 0.16958 0.93385 0.0
O290 O 0.5251 0.15181 0.91472 0.0
C291 C 0.68939 0.13402 0.95058 0.0
O292 O 0.69647 0.14649 0.93205 0.0
C293 C 0.54059 0.05201 0.94633 0.0
Zn294 Zn 0.15904 0.3001 0.16429 0.0
Zn295 Zn 0.13689 0.36265 0.18791 0.0
O296 O 0.15307 0.38877 0.1606 0.0
O297 O 0.17363 0.3378 0.14203 0.0
O298 O 0.12634 0.40977 0.20725 0.0
O299 O 0.20059 0.28115 0.18339 0.0
O300 O 0.18033 0.33034 0.20322 0.0
C301 C 0.16746 0.37518 0.14405 0.0
C302 C 0.0761 0.2965 0.17783 0.0
O303 O 0.08393 0.33027 0.18623 0.0
O304 O 0.10284 0.27829 0.16769 0.0
C305 C 0.11732 0.44552 0.20189 0.0
O306 O 0.1127 0.4534 0.18256 0.0
C307 C 0.20249 0.29957 0.20009 0.0
Zn308 Zn 0.9622 0.90174 0.4116 0.0
Zn309 Zn 0.90258 0.88187 0.43692 0.0
O310 O 0.87547 0.9025 0.41072 0.0
O311 O 0.92432 0.9231 0.39084 0.0
O312 O 0.85357 0.87439 0.45543 0.0
O313 O 0.98782 0.93821 0.43115 0.0
O314 O 0.94009 0.92092 0.45256 0.0
C315 C 0.8871 0.91869 0.39424 0.0
C316 C 0.96223 0.81771 0.42336 0.0
O317 O 0.93084 0.82676 0.43358 0.0
O318 O 0.97973 0.84397 0.41261 0.0
C319 C 0.83192 0.8427 0.45602 0.0
O320 O 0.84231 0.81158 0.44492 0.0
C321 C 0.97258 0.94007 0.44859 0.0
Zn322 Zn 0.34547 0.70888 0.66194 0.0
Zn323 Zn 0.36433 0.64597 0.68515 0.0
O324 O 0.35094 0.62364 0.65666 0.0
O325 O 0.33225 0.67523 0.63803 0.0
O326 O 0.37052 0.59377 0.70148 0.0
O327 O 0.30243 0.72727 0.68 0.0
O328 O 0.32015 0.67782 0.70035 0.0
C329 C 0.33815 0.63784 0.63988 0.0
C330 C 0.42686 0.71152 0.67815 0.0
O331 O 0.4182 0.67745 0.68604 0.0
O332 O 0.40128 0.72986 0.66727 0.0
C333 C 0.39575 0.58595 0.7155 0.0
O334 O 0.42181 0.61383 0.72087 0.0
C335 C 0.29864 0.70885 0.69659 0.0
Zn336 Zn 0.45629 0.07781 0.40769 0.0
Zn337 Zn 0.39753 0.10293 0.43281 0.0
O338 O 0.36986 0.08867 0.40587 0.0
O339 O 0.41671 0.06402 0.38599 0.0
O340 O 0.34956 0.11267 0.45168 0.0
O341 O 0.47685 0.03646 0.42647 0.0
O342 O 0.43164 0.06029 0.44768 0.0
C343 C 0.38028 0.07356 0.38894 0.0
C344 C 0.46311 0.16161 0.42108 0.0
O345 O 0.43002 0.15543 0.43044 0.0
O346 O 0.47914 0.13397 0.4106 0.0
C347 C 0.32227 0.13854 0.44775 0.0
O348 O 0.32624 0.16118 0.43157 0.0
C349 C 0.46135 0.03707 0.44391 0.0
Zn350 Zn 0.65557 0.7189 0.16492 0.0
Zn351 Zn 0.6377 0.65665 0.18908 0.0
O352 O 0.65131 0.6323 0.16113 0.0
O353 O 0.66918 0.68314 0.14183 0.0
O354 O 0.63199 0.60596 0.20665 0.0
O355 O 0.69838 0.73935 0.18274 0.0
O356 O 0.68148 0.69052 0.20363 0.0
C357 C 0.66373 0.64575 0.14418 0.0
C358 C 0.57413 0.72074 0.18092 0.0
O359 O 0.58344 0.68728 0.18927 0.0
O360 O 0.59934 0.73909 0.16989 0.0
C361 C 0.59897 0.58926 0.21182 0.0
O362 O 0.56477 0.60578 0.20617 0.0
C363 C 0.70244 0.72179 0.19956 0.0
Zn364 Zn 0.04589 0.91137 0.90996 0.0
Zn365 Zn 0.10696 0.89122 0.93477 0.0
O366 O 0.1332 0.90543 0.90737 0.0
O367 O 0.08357 0.9246 0.88751 0.0
O368 O 0.1562 0.88335 0.95315 0.0
O369 O 0.02603 0.95408 0.92795 0.0
O370 O 0.07378 0.93543 0.94917 0.0
C371 C 0.1208 0.91855 0.89033 0.0
C372 C 0.04141 0.82971 0.92555 0.0
O373 O 0.07506 0.83774 0.93412 0.0
O374 O 0.02402 0.85561 0.9145 0.0
C375 C 0.1862 0.86181 0.9479 0.0
O376 O 0.18404 0.84179 0.93077 0.0
C377 C 0.04317 0.95726 0.94495 0.0
Zn378 Zn 0.83645 0.30156 0.66183 0.0
Zn379 Zn 0.85826 0.36489 0.68339 0.0
O380 O 0.84461 0.38518 0.65453 0.0
O381 O 0.82292 0.33294 0.63727 0.0
O382 O 0.86565 0.41782 0.69898 0.0
O383 O 0.79391 0.28387 0.68031 0.0
O384 O 0.81581 0.33293 0.69987 0.0
C385 C 0.83096 0.37009 0.63812 0.0
C386 C 0.91921 0.29893 0.67669 0.0
O387 O 0.91206 0.33394 0.68384 0.0
O388 O 0.89235 0.28006 0.66685 0.0
C389 C 0.88756 0.42321 0.71461 0.0
O390 O 0.90816 0.39259 0.72183 0.0
C391 C 0.79327 0.30221 0.69704 0.0
Zn392 Zn 0.4623 0.91547 0.04531 0.0
Zn393 Zn 0.40066 0.89509 0.02162 0.0
O394 O 0.37737 0.9089 0.04972 0.0
O395 O 0.42782 0.92883 0.06884 0.0
O396 O 0.3486 0.88772 0.00527 0.0
O397 O 0.48079 0.95812 0.02712 0.0
O398 O 0.43245 0.93926 0.00629 0.0
C399 C 0.39059 0.92207 0.0666 0.0
C400 C 0.46667 0.83388 0.02982 0.0
O401 O 0.4326 0.84156 0.02159 0.0
O402 O 0.48428 0.86001 0.04065 0.0
C403 C 0.34091 0.86244 -0.00871 0.0
O404 O 0.36921 0.8371 -0.0143 0.0
C405 C 0.4631 0.96124 0.01027 0.0
Zn406 Zn 0.84448 0.71549 0.79829 0.0
Zn407 Zn 0.86464 0.65544 0.77301 0.0
O408 O 0.84946 0.62854 0.80009 0.0
O409 O 0.82899 0.67719 0.82011 0.0
O410 O 0.87134 0.60694 0.75409 0.0
O411 O 0.80361 0.73828 0.77999 0.0
O412 O 0.82237 0.6911 0.75859 0.0
C413 C 0.83551 0.64017 0.81707 0.0
C414 C 0.92734 0.71828 0.78383 0.0
O415 O 0.91892 0.68556 0.77456 0.0
O416 O 0.90131 0.73549 0.79484 0.0
C417 C 0.89224 0.57629 0.75908 0.0
O418 O 0.91234 0.5773 0.77624 0.0
C419 C 0.80136 0.72229 0.7627 0.0
Zn420 Zn 0.04725 0.08359 0.54483 0.0
Zn421 Zn 0.11039 0.10347 0.52141 0.0
O422 O 0.13359 0.09539 0.55015 0.0
O423 O 0.08252 0.0757 0.56887 0.0
O424 O 0.16131 0.11015 0.50407 0.0
O425 O 0.03122 0.03737 0.52802 0.0
O426 O 0.0804 0.05617 0.50781 0.0
C427 C 0.11954 0.08411 0.56719 0.0
C428 C 0.04168 0.16326 0.52672 0.0
O429 O 0.07634 0.15531 0.51931 0.0
O430 O 0.02388 0.13785 0.53787 0.0
C431 C 0.1734 0.1424 0.49556 0.0
O432 O 0.15184 0.17532 0.4976 0.0
C433 C 0.05045 0.03326 0.51168 0.0
Zn434 Zn 0.66437 0.30108 0.2946 0.0
Zn435 Zn 0.63997 0.3615 0.27095 0.0
O436 O 0.65635 0.38693 0.29825 0.0
O437 O 0.68058 0.33787 0.31693 0.0
O438 O 0.63044 0.41119 0.25319 0.0
O439 O 0.7045 0.28067 0.27536 0.0
O440 O 0.68145 0.32771 0.2549 0.0
C441 C 0.67214 0.37474 0.31475 0.0
C442 C 0.58012 0.29641 0.28208 0.0
O443 O 0.58659 0.32998 0.27321 0.0
O444 O 0.60786 0.27923 0.29207 0.0
C445 C 0.60353 0.43743 0.2571 0.0
O446 O 0.57948 0.43144 0.27259 0.0
C447 C 0.70401 0.29722 0.25816 0.0
C448 C 0.97642 0.52794 -0.01753 0.0
C449 C 0.98638 0.52159 0.96207 0.0
C450 C 0.9978 0.50878 -0.00205 0.0
C451 C 0.02994 0.48242 -0.00633 0.0
H452 H 0.95247 0.54852 -0.0134 0.0
H453 H 0.98888 0.51469 0.01344 0.0
S454 S 0.06678 0.45393 0.94263 0.0
N455 N 0.02971 0.48594 0.93829 0.0
N456 N 0.06992 0.44998 0.96748 0.0
C457 C 0.04006 0.47548 0.97332 0.0
C458 C 0.01818 0.49492 0.95751 0.0
C459 C 0.72199 0.73026 0.23569 0.0
C460 C 0.72749 0.74101 0.21532 0.0
C461 C 0.74174 0.75109 0.25116 0.0
C462 C 0.76792 0.78341 0.24692 0.0
H463 H 0.70158 0.70615 0.23981 0.0
H464 H 0.73638 0.74156 0.26661 0.0
S465 S 0.79419 0.82231 0.19594 0.0
N466 N 0.76208 0.7853 0.19159 0.0
N467 N 0.79921 0.82447 0.22077 0.0
C468 C 0.77407 0.79427 0.22659 0.0
C469 C 0.75397 0.77298 0.21079 0.0
C470 C 0.48432 0.48933 0.45819 0.0
C471 C 0.51644 0.46293 0.46249 0.0
C472 C 0.46433 0.50996 0.47358 0.0
C473 C 0.47573 0.50512 0.49392 0.0
H474 H 0.47465 0.49456 0.44273 0.0
H475 H 0.44065 0.53084 0.46939 0.0
S476 S 0.55552 0.43675 0.51352 0.0
N477 N 0.55708 0.43108 0.48872 0.0
N478 N 0.51945 0.4699 0.51778 0.0
C479 C 0.50694 0.47781 0.49856 0.0
C480 C 0.5274 0.45681 0.48283 0.0
C481 C 0.74408 0.2517 0.7098 0.0
C482 C 0.77076 0.28374 0.7139 0.0
C483 C 0.72622 0.2297 0.72539 0.0
C484 C 0.73414 0.23894 0.74576 0.0
H485 H 0.73719 0.24309 0.69435 0.0
H486 H 0.70555 0.2057 0.72139 0.0
S487 S 0.80217 0.31971 0.76476 0.0
N488 N 0.80446 0.32348 0.73988 0.0
N489 N 0.77084 0.28217 0.76931 0.0
C490 C 0.76069 0.27101 0.75015 0.0
C491 C 0.77886 0.2935 0.73421 0.0
C492 C 0.97325 0.4629 0.46931 0.0
C493 C 0.98082 0.47066 0.48986 0.0
C494 C 0.99473 0.48304 0.4542 0.0
C495 C 0.02455 0.51171 0.45908 0.0
H496 H 0.95128 0.44042 0.46482 0.0
H497 H 0.9878 0.47605 0.43855 0.0
S498 S 0.05395 0.54474 0.51077 0.0
N499 N 0.01887 0.51026 0.51441 0.0
N500 N 0.05938 0.54794 0.48601 0.0
C501 C 0.03206 0.5201 0.47961 0.0
C502 C 0.01007 0.49973 0.49499 0.0
C503 C 0.75779 0.74604 0.71119 0.0
C504 C 0.73557 0.78156 0.71456 0.0
C505 C 0.7782 0.72676 0.72692 0.0
C506 C 0.77745 0.74225 0.74669 0.0
H507 H 0.75895 0.73236 0.69631 0.0
H508 H 0.79475 0.69949 0.72346 0.0
S509 S 0.72517 0.83559 0.76346 0.0
N510 N 0.71504 0.83227 0.73905 0.0
N511 N 0.75355 0.79613 0.76875 0.0
C512 C 0.75595 0.77823 0.75028 0.0
C513 C 0.73511 0.79791 0.73417 0.0
C514 C 0.476 0.48228 -0.01763 0.0
C515 C 0.48898 0.48597 0.96224 0.0
C516 C 0.49601 0.50222 -0.00195 0.0
C517 C 0.52978 0.52681 -0.00575 0.0
H518 H 0.45039 0.46348 -0.01383 0.0
H519 H 0.4845 0.49857 0.01327 0.0
S520 S 0.57597 0.54676 0.9441 0.0
N521 N 0.53785 0.51625 0.93926 0.0
N522 N 0.57547 0.55372 0.96882 0.0
C523 C 0.54333 0.53064 0.9742 0.0
C524 C 0.52286 0.51037 0.95817 0.0
C525 C 0.77368 0.22562 0.23075 0.0
C526 C 0.76624 0.23422 0.21027 0.0
C527 C 0.75422 0.24704 0.24606 0.0
C528 C 0.72642 0.27784 0.24153 0.0
H529 H 0.79551 0.2029 0.23507 0.0
H530 H 0.76116 0.2393 0.26162 0.0
S531 S 0.69432 0.31031 0.19019 0.0
N532 N 0.72778 0.27444 0.18615 0.0
N533 N 0.69117 0.31473 0.21502 0.0
C534 C 0.71816 0.28636 0.22109 0.0
C535 C 0.73795 0.26444 0.20546 0.0
C536 C 0.27447 0.28565 0.72761 0.0
C537 C 0.2738 0.27042 0.74743 0.0
C538 C 0.25229 0.26731 0.71217 0.0
C539 C 0.22839 0.23303 0.71592 0.0
H540 H 0.29257 0.31176 0.72385 0.0
H541 H 0.25375 0.28048 0.69719 0.0
S542 S 0.21595 0.18127 0.76532 0.0
N543 N 0.24703 0.21894 0.77009 0.0
N544 N 0.20534 0.18449 0.74097 0.0
C545 C 0.22747 0.21732 0.73567 0.0
C546 C 0.25006 0.23606 0.75145 0.0
C547 C 0.2467 0.77744 0.24927 0.0
C548 C 0.21793 0.74758 0.24467 0.0
C549 C 0.26777 0.79739 0.23397 0.0
C550 C 0.26088 0.78817 0.21351 0.0
H551 H 0.25348 0.78519 0.26484 0.0
H552 H 0.2906 0.81914 0.23829 0.0
S553 S 0.1857 0.71545 0.19328 0.0
N554 N 0.18155 0.71187 0.21809 0.0
N555 N 0.2211 0.74947 0.1893 0.0
C556 C 0.23113 0.75945 0.20864 0.0
C557 C 0.20976 0.73903 0.22422 0.0
C558 C 0.27254 0.22874 0.2279 0.0
C559 C 0.27126 0.2429 0.24792 0.0
C560 C 0.25119 0.24812 0.2125 0.0
C561 C 0.22752 0.28242 0.21648 0.0
H562 H 0.29045 0.20261 0.22396 0.0
H563 H 0.25306 0.2357 0.19737 0.0
S564 S 0.21388 0.33182 0.26642 0.0
N565 N 0.24432 0.29356 0.27098 0.0
N566 N 0.20414 0.32995 0.24194 0.0
C567 C 0.22607 0.29714 0.23641 0.0
C568 C 0.24783 0.27734 0.25216 0.0
C569 C 0.25944 0.73644 0.74838 0.0
C570 C 0.23308 0.76866 0.74424 0.0
C571 C 0.27915 0.71599 0.73279 0.0
C572 C 0.27327 0.72699 0.71247 0.0
H573 H 0.26512 0.72692 0.76381 0.0
H574 H 0.29993 0.69209 0.73679 0.0
S575 S 0.2052 0.80752 0.69338 0.0
N576 N 0.20075 0.80948 0.71822 0.0
N577 N 0.23758 0.7709 0.68889 0.0
C578 C 0.24626 0.75857 0.70805 0.0
C579 C 0.22633 0.77953 0.72394 0.0
C580 C 0.53213 0.96506 0.47059 0.0
C581 C 0.52483 0.97299 0.49113 0.0
C582 C 0.51065 0.98525 0.45546 0.0
C583 C 0.48113 0.01417 0.4603 0.0
H584 H 0.5537 0.94224 0.46613 0.0
H585 H 0.51721 0.97793 0.43982 0.0
S586 S 0.45309 0.04822 0.51192 0.0
N587 N 0.48777 0.01334 0.51562 0.0
N588 N 0.44731 0.05124 0.48715 0.0
C589 C 0.47416 0.02301 0.4808 0.0
C590 C 0.49613 1.00253 0.49621 0.0
C591 C 0.03729 0.97943 -0.01918 0.0
C592 C 0.02472 0.98308 0.96059 0.0
C593 C 0.01812 1.00085 -0.00378 0.0
C594 C 0.98566 0.02694 -0.00798 0.0
H595 H 0.06179 0.95943 -0.01508 0.0
H596 H 0.02915 0.99701 0.01154 0.0
S597 S 0.94157 0.04794 0.9414 0.0
N598 N 0.97803 0.0153 0.93704 0.0
N599 N 0.94199 0.05556 0.96608 0.0
C600 C 0.97273 0.03096 0.97185 0.0
C601 C 0.99233 0.00916 0.95611 0.0
C602 C 0.48908 0.00322 0.95874 0.0
C603 C 0.52212 0.0286 0.96289 0.0
C604 C 0.46912 0.98274 0.97425 0.0
C605 C 0.48143 0.98684 -0.00549 0.0
H606 H 0.47843 0.99901 0.94337 0.0
H607 H 0.4444 0.96292 0.97022 0.0
S608 S 0.56515 0.05123 0.01361 0.0
N609 N 0.56556 0.05765 -0.01115 0.0
N610 N 0.52791 0.01949 0.01804 0.0
C611 C 0.51404 0.0127 -0.00106 0.0
C612 C 0.5345 0.03337 -0.01688 0.0
C613 C 0.99659 0.987 0.49938 0.0
C614 C 0.03403 0.00597 0.49605 0.0
C615 C 0.97699 0.96584 0.48397 0.0
C616 C 0.99405 0.96263 0.46462 0.0
H617 H 0.9815 0.98944 0.51384 0.0
H618 H 0.94795 0.95237 0.48725 0.0
S619 S 0.0936 0.00336 0.44859 0.0
N620 N 0.08884 0.01774 0.47237 0.0
N621 N 0.05218 0.97784 0.44332 0.0
C622 C 0.03231 0.9801 0.46126 0.0
C623 C 0.05227 1.00169 0.47701 0.0
C624 C 0.97337 0.252 0.02997 0.0
C625 C 0.99666 0.21674 0.02976 0.0
C626 C 0.99178 0.28995 0.0306 0.0
C627 C 0.03409 0.294 0.03056 0.0
H628 H 0.94075 0.25026 0.03042 0.0
H629 H 0.97264 0.31636 0.0313 0.0
S630 S 0.10844 0.21087 0.02827 0.0
N631 N 0.06415 0.18806 0.02844 0.0
N632 N 0.09867 0.25962 0.02908 0.0
C633 C 0.05769 0.25903 0.02941 0.0
C634 C 0.03898 0.22032 0.02918 0.0
C635 C 0.0285 0.78476 0.28651 0.0
C636 C 0.03208 0.74249 0.28559 0.0
C637 C 0.99067 0.80356 0.28622 0.0
C638 C 0.95514 0.78066 0.28551 0.0
H639 H 0.05518 0.80353 0.28747 0.0
H640 H 0.98923 0.83611 0.2872 0.0
S641 S 0.94802 0.66923 0.28214 0.0
N642 N 0.99693 0.67847 0.28308 0.0
N643 N 0.92569 0.71364 0.2831 0.0
C644 C 0.95827 0.73842 0.28427 0.0
C645 C 0.9968 0.71935 0.28414 0.0
C646 C 0.52591 0.70579 0.52345 0.0
C647 C 0.48368 0.70196 0.5215 0.0
C648 C 0.54474 0.7436 0.52299 0.0
C649 C 0.52186 0.77886 0.52097 0.0
H650 H 0.54453 0.67942 0.52591 0.0
H651 H 0.57705 0.74533 0.52535 0.0
S652 S 0.41117 0.78525 0.51307 0.0
N653 N 0.42018 0.73659 0.51555 0.0
N654 N 0.45543 0.80774 0.51513 0.0
C655 C 0.47995 0.7754 0.51793 0.0
C656 C 0.46088 0.73689 0.51805 0.0
C657 C 0.51025 0.21128 0.78075 0.0
C658 C 0.54545 0.23463 0.77996 0.0
C659 C 0.47222 0.22964 0.78133 0.0
C660 C 0.4681 0.2719 0.78065 0.0
H661 H 0.51215 0.17876 0.78182 0.0
H662 H 0.44582 0.21057 0.78261 0.0
S663 S 0.55112 0.34613 0.77653 0.0
N664 N 0.574 0.30197 0.77727 0.0
N665 N 0.50236 0.33633 0.77782 0.0
C666 C 0.503 0.29544 0.77878 0.0
C667 C 0.54175 0.27682 0.77861 0.0
C668 C 0.02307 0.77402 0.42423 0.0
C669 C 0.98071 0.7774 0.42476 0.0
C670 C 0.04205 0.73636 0.42443 0.0
C671 C 0.01928 0.70076 0.42464 0.0
H672 H 0.04177 0.80076 0.42357 0.0
H673 H 0.07467 0.73513 0.42368 0.0
S674 S 0.90765 0.69316 0.42705 0.0
N675 N 0.9167 0.74209 0.42656 0.0
N676 N 0.95224 0.67101 0.42628 0.0
C677 C 0.97693 0.70367 0.42558 0.0
C678 C 0.95765 0.7421 0.42585 0.0
C679 C 0.50734 0.79244 0.68075 0.0
C680 C 0.54304 0.77008 0.68239 0.0
C681 C 0.4698 0.7731 0.68005 0.0
C682 C 0.46659 0.7308 0.68137 0.0
H683 H 0.50849 0.82486 0.67894 0.0
H684 H 0.44309 0.79146 0.678 0.0
S685 S 0.5511 0.65916 0.68845 0.0
N686 N 0.57297 0.70379 0.68707 0.0
N687 N 0.50221 0.66758 0.6862 0.0
C688 C 0.50193 0.70835 0.68434 0.0
C689 C 0.54022 0.72797 0.6847 0.0
C690 C 0.48289 0.22226 0.92684 0.0
C691 C 0.52524 0.21835 0.92725 0.0
C692 C 0.46437 0.26017 0.92744 0.0
C693 C 0.48763 0.29545 0.92797 0.0
H694 H 0.46388 0.19577 0.92585 0.0
H695 H 0.43177 0.26191 0.92664 0.0
S696 S 0.59932 0.3017 0.93049 0.0
N697 N 0.58968 0.25293 0.92944 0.0
N698 N 0.55498 0.32433 0.93001 0.0
C699 C 0.52991 0.29198 0.92896 0.0
C700 C 0.54871 0.25337 0.92877 0.0
C701 C 0.03266 0.23517 0.17898 0.0
C702 C 0.03601 0.27749 0.17986 0.0
C703 C 0.99495 0.21609 0.17923 0.0
C704 C 0.95931 0.23876 0.17991 0.0
H705 H 0.05941 0.2166 0.17779 0.0
H706 H 0.99368 0.18357 0.17795 0.0
S707 S 0.9515 0.35001 0.18393 0.0
N708 N 1.00046 0.34118 0.18286 0.0
N709 N 0.92947 0.30544 0.18282 0.0
C710 C 0.96221 0.28095 0.18152 0.0
C711 C 1.00061 0.30031 0.18166 0.0
C712 C 0.02611 0.71691 0.92743 0.0
C713 C 0.98377 0.71319 0.92824 0.0
C714 C 0.04488 0.75474 0.92765 0.0
C715 C 0.02187 0.79015 0.92817 0.0
H716 H 0.04493 0.69033 0.92632 0.0
H717 H 0.07744 0.7563 0.92647 0.0
S718 S 0.91037 0.79694 0.93189 0.0
N719 N 0.91967 0.74811 0.93099 0.0
N720 N 0.95479 0.81936 0.93082 0.0
C721 C 0.97962 0.78688 0.92968 0.0
C722 C 0.96059 0.74834 0.92989 0.0
C723 C 0.99435 0.30252 0.67792 0.0
C724 C 0.95891 0.27965 0.67938 0.0
C725 C 0.03219 0.28374 0.67775 0.0
C726 C 0.0359 0.24155 0.67948 0.0
H727 H 0.99279 0.33489 0.676 0.0
H728 H 0.05874 0.30242 0.67596 0.0
S729 S 0.95206 0.16878 0.68586 0.0
N730 N 0.92968 0.21305 0.68401 0.0
N731 N 1.0009 0.17789 0.68413 0.0
C732 C 1.00072 0.21862 0.68205 0.0
C733 C 0.96218 0.23765 0.68186 0.0
C734 C 0.47928 0.27439 0.42145 0.0
C735 C 0.52163 0.27795 0.42114 0.0
C736 C 0.46046 0.23664 0.42219 0.0
C737 C 0.48336 0.20113 0.42213 0.0
H738 H 0.46044 0.30104 0.42112 0.0
H739 H 0.42781 0.23525 0.42216 0.0
S740 S 0.59513 0.194 0.42217 0.0
N741 N 0.58586 0.24287 0.42167 0.0
N742 N 0.55059 0.17169 0.42245 0.0
C743 C 0.52574 0.20423 0.42212 0.0
C744 C 0.54488 0.24272 0.42182 0.0
C745 C 0.49244 0.80027 0.18336 0.0
C746 C 0.45703 0.77727 0.18435 0.0
C747 C 0.53029 0.78157 0.1829 0.0
C748 C 0.53407 0.73929 0.18386 0.0
H749 H 0.49086 0.83274 0.18186 0.0
H750 H 0.55681 0.80038 0.18132 0.0
S751 S 0.45044 0.66603 0.18913 0.0
N752 N 0.42794 0.71035 0.18796 0.0
N753 N 0.49928 0.67533 0.18759 0.0
C754 C 0.49899 0.71616 0.18618 0.0
C755 C 0.46039 0.73514 0.18626 0.0
C756 C 0.96002 0.24307 0.52413 0.0
C757 C 0.9823 0.27868 0.52192 0.0
C758 C 0.97952 0.20562 0.52491 0.0
C759 C 0.02182 0.20252 0.52309 0.0
H760 H 0.92769 0.24429 0.52639 0.0
H761 H 0.96137 0.17898 0.52749 0.0
S762 S 0.09286 0.28693 0.5143 0.0
N763 N 0.0482 0.30862 0.51606 0.0
N764 N 0.08471 0.23818 0.51709 0.0
C765 C 0.04401 0.23778 0.51947 0.0
C766 C 0.02426 0.2759 0.51903 0.0
C767 C 0.46714 0.28083 0.28353 0.0
C768 C 0.4634 0.23855 0.2827 0.0
C769 C 0.50493 0.29962 0.28242 0.0
C770 C 0.54032 0.27668 0.28097 0.0
H771 H 0.44061 0.29959 0.28514 0.0
H772 H 0.50654 0.33215 0.28345 0.0
S773 S 0.54689 0.16527 0.27734 0.0
N774 N 0.49813 0.17453 0.27933 0.0
N775 N 0.56938 0.20967 0.27784 0.0
C776 C 0.53698 0.23446 0.27971 0.0
C777 C 0.49844 0.21541 0.28039 0.0
C778 C 0.46354 0.75886 0.02809 0.0
C779 C 0.48634 0.79439 0.02729 0.0
C780 C 0.48256 0.72119 0.02879 0.0
C781 C 0.52495 0.71775 0.02827 0.0
H782 H 0.43097 0.76022 0.02915 0.0
H783 H 0.46386 0.69454 0.0301 0.0
S784 S 0.59786 0.80193 0.02391 0.0
N785 N 0.55325 0.82401 0.02451 0.0
N786 N 0.58887 0.75309 0.02537 0.0
C787 C 0.54793 0.75301 0.02629 0.0
C788 C 0.52862 0.79138 0.02594 0.0
C789 C 1.00235 0.71371 0.78184 0.0
C790 C 0.96728 0.7373 0.78178 0.0
C791 C 0.04054 0.73182 0.78205 0.0
C792 C 0.0449 0.77406 0.78169 0.0
H793 H 1.00028 0.68117 0.7825 0.0
H794 H 0.06689 0.71256 0.78265 0.0
S795 S 0.96219 0.84896 0.77975 0.0
N796 N 0.93905 0.8049 0.78034 0.0
N797 N 0.01093 0.8388 0.78019 0.0
C798 C 0.01005 0.79789 0.78072 0.0
C799 C 0.97119 0.77951 0.78093 0.0
C800 C 0.27814 0.39324 0.97443 0.0
C801 C 0.29745 0.35693 0.96917 0.0
C802 C 0.24231 0.39349 -0.01421 0.0
C803 C 0.22446 0.35748 -0.00735 0.0
H804 H 0.29047 0.42182 0.96953 0.0
H805 H 0.22871 0.42229 -0.01066 0.0
S806 S 0.26328 0.25416 -0.01668 0.0
N807 N 0.296 0.28388 0.97188 0.0
N808 N 0.22921 0.28435 -0.00664 0.0
C809 C 0.24364 0.32094 -0.01236 0.0
C810 C 0.2799 0.32067 0.97588 0.0
C811 C 0.90569 0.0543 0.24752 0.0
C812 C 0.88602 0.05773 0.22867 0.0
C813 C 0.90575 0.01798 0.25844 0.0
C814 C 0.88616 0.98324 0.25106 0.0
H815 H 0.92089 0.08005 0.25411 0.0
H816 H 0.92093 0.01745 0.27297 0.0
S817 S 0.83166 0.97525 0.20198 0.0
N818 N 0.84745 0.02239 0.20275 0.0
N819 N 0.84757 0.95437 0.22323 0.0
C820 C 0.86699 0.98593 0.23203 0.0
C821 C 0.86691 0.02301 0.22088 0.0
C822 C 0.23156 0.60628 0.47174 0.0
C823 C 0.21831 0.64068 0.46115 0.0
C824 C 0.26775 0.60646 0.48291 0.0
C825 C 0.29199 0.64126 0.48427 0.0
H826 H 0.21422 0.57864 0.47113 0.0
H827 H 0.27662 0.5791 0.49066 0.0
S828 S 0.27042 0.73972 0.45981 0.0
N829 N 0.23227 0.71074 0.45299 0.0
N830 N 0.29967 0.71129 0.47416 0.0
C831 C 0.2788 0.67605 0.47399 0.0
C832 C 0.24221 0.6757 0.4624 0.0
C833 C 0.59333 0.04877 0.71301 0.0
C834 C 0.61679 0.05402 0.73063 0.0
C835 C 0.59271 0.012 0.70246 0.0
C836 C 0.61535 0.97851 0.70905 0.0
H837 H 0.57546 0.07343 0.7071 0.0
H838 H 0.57439 0.01002 0.6889 0.0
S839 S 0.68089 0.97559 0.75476 0.0
N840 N 0.66268 0.02186 0.75448 0.0
N841 N 0.6614 0.95294 0.73475 0.0
C842 C 0.63853 0.98307 0.72684 0.0
C843 C 0.6393 0.02066 0.73756 0.0
C844 C 0.76468 0.66207 0.0073 0.0
C845 C 0.73023 0.64152 0.00019 0.0
C846 C 0.80122 0.66151 -0.00342 0.0
C847 C 0.80522 0.6402 0.97825 0.0
H848 H 0.76366 0.67862 0.02143 0.0
H849 H 0.8267 0.67763 0.00292 0.0
S850 S 0.72385 0.5823 0.95254 0.0
N851 N 0.70234 0.59994 0.97322 0.0
N852 N 0.77083 0.59876 0.95315 0.0
C853 C 0.77085 0.61992 0.97077 0.0
C854 C 0.73351 0.62063 -0.01832 0.0
C855 C 0.11516 0.00887 0.74735 0.0
C856 C 0.13039 0.97045 0.74237 0.0
C857 C 0.11894 0.04176 0.73406 0.0
C858 C 0.13844 0.03783 0.71526 0.0
H859 H 0.10063 0.01386 0.7618 0.0
H860 H 0.10734 0.07074 0.73882 0.0
S861 S 0.18125 0.94326 0.69418 0.0
N862 N 0.16395 0.93017 0.71664 0.0
N863 N 0.17123 0.99173 0.69185 0.0
C864 C 0.15288 0.99937 0.70983 0.0
C865 C 0.14879 0.96582 0.72329 0.0
C866 C 0.79147 0.32788 0.45838 0.0
C867 C 0.79772 0.3504 0.47619 0.0
C868 C 0.75428 0.32837 0.44814 0.0
C869 C 0.72141 0.35119 0.45526 0.0
H870 H 0.8157 0.31005 0.45205 0.0
H871 H 0.75152 0.31086 0.43437 0.0
S872 S 0.72106 0.41421 0.50176 0.0
N873 N 0.76707 0.39536 0.50088 0.0
N874 N 0.69737 0.39611 0.48172 0.0
C875 C 0.72688 0.37322 0.47331 0.0
C876 C 0.7649 0.37289 0.48371 0.0
C877 C 0.41768 0.01024 0.25281 0.0
C878 C 0.39085 0.04147 0.24754 0.0
C879 C 0.41801 0.97344 0.24231 0.0
C880 C 0.39131 0.96593 0.22613 0.0
H881 H 0.43854 0.01401 0.26531 0.0
H882 H 0.43908 0.95046 0.24719 0.0
S883 S 0.3158 0.03813 0.2057 0.0
N884 N 0.3375 0.06267 0.22454 0.0
N885 N 0.33795 0.99364 0.20492 0.0
C886 C 0.36469 0.99712 0.22045 0.0
C887 C 0.36453 0.03477 0.23109 0.0
C888 C 0.77421 0.87818 0.47312 0.0
C889 C 0.79377 0.84193 0.46797 0.0
C890 C 0.73724 0.87824 0.48353 0.0
C891 C 0.71851 0.84208 0.48957 0.0
H892 H 0.78719 0.90684 0.46878 0.0
H893 H 0.72345 0.90697 0.48703 0.0
S894 S 0.75765 0.7389 0.48024 0.0
N895 N 0.79164 0.76883 0.46992 0.0
N896 N 0.72278 0.76892 0.48971 0.0
C897 C 0.73799 0.80562 0.48473 0.0
C898 C 0.77536 0.80555 0.47388 0.0
C899 C 0.4205 0.53951 0.74294 0.0
C900 C 0.39524 0.54609 0.72609 0.0
C901 C 0.41995 0.50294 0.75365 0.0
C902 C 0.39426 0.471 0.74797 0.0
H903 H 0.44068 0.563 0.74816 0.0
H904 H 0.43975 0.49992 0.76662 0.0
S905 S 0.32296 0.47186 0.70448 0.0
N906 N 0.34432 0.51677 0.70391 0.0
N907 N 0.34342 0.44821 0.72394 0.0
C908 C 0.36931 0.4768 0.73091 0.0
C909 C 0.36974 0.5142 0.72003 0.0
C910 C 0.79502 0.14013 0.97366 0.0
C911 C 0.79071 0.1207 -0.00753 0.0
C912 C 0.76201 0.14505 0.96046 0.0
C913 C 0.72314 0.1311 0.96556 0.0
H914 H 0.82435 0.15072 0.96881 0.0
H915 H 0.76728 0.15939 0.94598 0.0
S916 S 0.69494 0.0812 0.01387 0.0
N917 N 0.74383 0.08953 0.01605 0.0
N918 N 0.68207 0.09895 -0.00856 0.0
C919 C 0.71816 0.11288 -0.01533 0.0
C920 C 0.75181 0.10762 -0.00197 0.0
C921 C 0.1131 0.55128 0.22441 0.0
C922 C 0.11296 0.54445 0.24545 0.0
C923 C 0.11365 0.51917 0.21055 0.0
C924 C 0.11454 0.47874 0.21707 0.0
H925 H 0.11302 0.58174 0.21853 0.0
H926 H 0.11412 0.52628 0.19455 0.0
S927 S 0.11378 0.44417 0.27054 0.0
N928 N 0.11297 0.49379 0.27212 0.0
N929 N 0.11437 0.43374 0.24612 0.0
C930 C 0.11394 0.47141 0.23807 0.0
C931 C 0.11302 0.50412 0.2522 0.0
C932 C 0.23871 0.11007 0.48482 0.0
C933 C 0.2116 0.14269 0.48356 0.0
C934 C 0.27472 0.10941 0.4736 0.0
C935 C 0.28506 0.14111 0.4604 0.0
H936 H 0.23216 0.08471 0.49459 0.0
H937 H 0.29425 0.08342 0.47504 0.0
S938 S 0.22505 0.23405 0.45176 0.0
N939 N 0.19826 0.208 0.46823 0.0
N940 N 0.26541 0.20654 0.44708 0.0
C941 C 0.25839 0.17406 0.4591 0.0
C942 C 0.2219 0.17492 0.47067 0.0
C943 C 0.63466 0.48919 0.23407 0.0
C944 C 0.60113 0.47563 0.24522 0.0
C945 C 0.63385 0.52604 0.22356 0.0
C946 C 0.59923 0.55066 0.22343 0.0
H947 H 0.66212 0.47154 0.2337 0.0
H948 H 0.66055 0.53509 0.2153 0.0
S949 S 0.50295 0.52863 0.24986 0.0
N950 N 0.53209 0.4898 0.25531 0.0
N951 N 0.53033 0.55844 0.23535 0.0
C952 C 0.5653 0.53721 0.23431 0.0
C953 C 0.56632 0.49996 0.24525 0.0
C954 C 0.25718 0.83758 0.95352 0.0
C955 C 0.2244 0.86128 0.96 0.0
C956 C 0.2943 0.83786 0.96382 0.0
C957 C 0.30058 0.862 -0.01892 0.0
H958 H 0.25444 0.8188 0.94017 0.0
H959 H 0.31846 0.81927 0.95798 0.0
S960 S 0.22412 0.92857 0.00497 0.0
N961 N 0.20047 0.90879 -0.01468 0.0
N962 N 0.27004 0.90941 0.00462 0.0
C963 C 0.26786 0.88542 -0.01203 0.0
C964 C 0.22992 0.88502 0.97749 0.0
C965 C 0.91281 0.46808 0.74258 0.0
C966 C 0.8892 0.46327 0.72498 0.0
C967 C 0.9141 0.50479 0.75314 0.0
C968 C 0.89187 0.5386 0.74664 0.0
H969 H 0.93027 0.44312 0.74847 0.0
H970 H 0.93243 0.50636 0.76672 0.0
S971 S 0.82621 0.54278 0.70101 0.0
N972 N 0.84373 0.49625 0.7012 0.0
N973 N 0.84617 0.56505 0.72102 0.0
C974 C 0.86863 0.53454 0.72885 0.0
C975 C 0.86729 0.49704 0.71806 0.0
C976 C 0.17845 0.39866 0.08898 0.0
C977 C 0.14859 0.42823 0.08646 0.0
C978 C 0.18887 0.38503 0.10834 0.0
C979 C 0.16986 0.40069 0.1257 0.0
H980 H 0.19021 0.38248 0.07603 0.0
H981 H 0.20869 0.35919 0.10951 0.0
S982 S 0.10127 0.48886 0.12711 0.0
N983 N 0.1088 0.48041 0.10278 0.0
N984 N 0.12846 0.45484 0.13922 0.0
C985 C 0.14568 0.43516 0.12344 0.0
C986 C 0.13498 0.44895 0.10371 0.0
C987 C 0.82542 0.89762 0.37574 0.0
C988 C 0.8587 0.92368 0.37719 0.0
C989 C 0.80919 0.88773 0.35682 0.0
C990 C 0.82589 0.90357 0.3389 0.0
H991 H 0.8152 0.88085 0.38883 0.0
H992 H 0.78697 0.86382 0.35613 0.0
S993 S 0.90122 0.98593 0.33582 0.0
N994 N 0.89894 0.97462 0.36014 0.0
N995 N 0.86824 0.95615 0.3245 0.0
C996 C 0.85325 0.93575 0.34065 0.0
C997 C 0.8699 0.9457 0.35991 0.0
C998 C 0.36559 0.58064 0.62 0.0
C999 C 0.33817 0.61275 0.62144 0.0
C1000 C 0.37796 0.56641 0.60109 0.0
C1001 C 0.3631 0.58366 0.58307 0.0
H1002 H 0.38089 0.56938 0.63337 0.0
H1003 H 0.40215 0.54449 0.60062 0.0
S1004 S 0.281 0.65911 0.5791 0.0
N1005 N 0.28925 0.65442 0.60365 0.0
N1006 N 0.31243 0.62752 0.56802 0.0
C1007 C 0.33092 0.61106 0.58443 0.0
C1008 C 0.3185 0.62574 0.60371 0.0
C1009 C 0.69256 0.12834 0.8539 0.0
C1010 C 0.6757 0.1138 0.83571 0.0
C1011 C 0.67874 0.11455 0.87264 0.0
C1012 C 0.6475 0.08602 0.87369 0.0
H1013 H 0.71331 0.15356 0.85374 0.0
H1014 H 0.68913 0.12993 0.88616 0.0
S1015 S 0.60467 0.02799 0.83076 0.0
N1016 N 0.63482 0.06132 0.82006 0.0
N1017 N 0.60859 0.03563 0.85539 0.0
C1018 C 0.63588 0.0662 0.85579 0.0
C1019 C 0.65014 0.08005 0.83669 0.0
C1020 C 0.14683 0.58249 0.33313 0.0
C1021 C 0.17241 0.61628 0.33295 0.0
C1022 C 0.13489 0.56513 0.35144 0.0
C1023 C 0.14834 0.58095 0.37005 0.0
H1024 H 0.13205 0.57243 0.3194 0.0
H1025 H 0.11149 0.54234 0.35104 0.0
S1026 S 0.22823 0.65807 0.37691 0.0
N1027 N 0.2201 0.65676 0.35225 0.0
N1028 N 0.19786 0.62389 0.38675 0.0
C1029 C 0.1799 0.60927 0.36975 0.0
C1030 C 0.19187 0.62714 0.35109 0.0
C1031 C 0.68356 0.87024 0.60363 0.0
C1032 C 0.66585 0.88733 0.621 0.0
C1033 C 0.67038 0.88085 0.58421 0.0
C1034 C 0.639 0.90874 0.58165 0.0
H1035 H 0.70488 0.84566 0.60503 0.0
H1036 H 0.68169 0.86385 0.57142 0.0
S1037 S 0.59231 0.97145 0.62171 0.0
N1038 N 0.62271 0.9406 0.63405 0.0
N1039 N 0.59777 0.9604 0.59749 0.0
C1040 C 0.62577 0.93058 0.59863 0.0
C1041 C 0.63936 0.91995 0.6184 0.0
C1042 C 0.36303 0.42574 0.83666 0.0
C1043 C 0.33559 0.39355 0.83568 0.0
C1044 C 0.37638 0.44027 0.85539 0.0
C1045 C 0.36256 0.4231 0.8736 0.0
H1046 H 0.37797 0.43647 0.82313 0.0
H1047 H 0.40092 0.46185 0.85552 0.0
S1048 S 0.27927 0.34919 0.87868 0.0
N1049 N 0.28661 0.35315 0.85404 0.0
N1050 N 0.31162 0.38058 0.88933 0.0
C1051 C 0.32968 0.3964 0.87268 0.0
C1052 C 0.31623 0.38147 0.8536 0.0
C1053 C 0.82229 0.13043 0.10244 0.0
C1054 C 0.83843 0.11597 0.12079 0.0
C1055 C 0.83736 0.11723 0.08384 0.0
C1056 C 0.86923 0.08938 0.08307 0.0
H1057 H 0.8008 0.15501 0.10241 0.0
H1058 H 0.82706 0.13233 0.07024 0.0
S1059 S 0.91153 0.03212 0.12641 0.0
N1060 N 0.88004 0.06457 0.1368 0.0
N1061 N 0.90859 0.0399 0.10176 0.0
C1062 C 0.88064 0.06981 0.10108 0.0
C1063 C 0.86508 0.08307 0.12004 0.0
C1064 C 0.81842 0.62662 0.85303 0.0
C1065 C 0.83537 0.61285 0.83476 0.0
C1066 C 0.83195 0.61185 0.87167 0.0
C1067 C 0.86298 0.58309 0.87252 0.0
H1068 H 0.79789 0.65201 0.85307 0.0
H1069 H 0.82157 0.62665 0.88531 0.0
S1070 S 0.90559 0.52666 0.82912 0.0
N1071 N 0.87579 0.5607 0.81869 0.0
N1072 N 0.9016 0.53325 0.85382 0.0
C1073 C 0.87458 0.56401 0.85445 0.0
C1074 C 0.86056 0.57882 0.83545 0.0
C1075 C 0.12855 0.07154 0.60399 0.0
C1076 C 0.14352 0.08843 0.58595 0.0
C1077 C 0.14008 0.08679 0.62287 0.0
C1078 C 0.16674 0.11959 0.62426 0.0
H1079 H 0.10488 0.04903 0.60352 0.0
H1080 H 0.1247 0.07561 0.63619 0.0
S1081 S 0.22423 0.16541 0.582 0.0
N1082 N 0.19373 0.13276 0.57094 0.0
N1083 N 0.21537 0.16154 0.60651 0.0
C1084 C 0.18666 0.13229 0.60658 0.0
C1085 C 0.17508 0.11658 0.58735 0.0
C1086 C 0.67468 0.39648 0.36993 0.0
C1087 C 0.64118 0.42217 0.37159 0.0
C1088 C 0.68956 0.38567 0.3509 0.0
C1089 C 0.67137 0.40033 0.33307 0.0
H1090 H 0.68621 0.38067 0.38308 0.0
H1091 H 0.71208 0.36207 0.35017 0.0
S1092 S 0.59435 0.48109 0.33005 0.0
N1093 N 0.59879 0.47138 0.35447 0.0
N1094 N 0.6269 0.45117 0.31862 0.0
C1095 C 0.64356 0.43209 0.33481 0.0
C1096 C 0.62827 0.44295 0.35419 0.0
C1097 C 0.37972 0.93922 0.10279 0.0
C1098 C 0.36478 0.92193 0.0848 0.0
C1099 C 0.36523 0.92697 0.12167 0.0
C1100 C 0.33558 0.89688 0.12306 0.0
H1101 H 0.40545 0.95933 0.10243 0.0
H1102 H 0.38059 0.93779 0.13511 0.0
S1103 S 0.2773 0.85271 0.08053 0.0
N1104 N 0.31161 0.88129 0.06953 0.0
N1105 N 0.28462 0.858 0.10513 0.0
C1106 C 0.31593 0.88445 0.10524 0.0
C1107 C 0.33047 0.89714 0.086 0.0
C1108 C 0.81624 0.37541 0.60131 0.0
C1109 C 0.83318 0.3927 0.61887 0.0
C1110 C 0.83101 0.38505 0.5821 0.0
C1111 C 0.86321 0.41218 0.57994 0.0
H1112 H 0.79443 0.35121 0.60251 0.0
H1113 H 0.82024 0.36781 0.56924 0.0
S1114 S 0.90802 0.47576 0.62031 0.0
N1115 N 0.87622 0.44588 0.6323 0.0
N1116 N 0.90414 0.46382 0.59611 0.0
C1117 C 0.87556 0.43449 0.59695 0.0
C1118 C 0.86035 0.42487 0.61651 0.0
C1119 C 0.35421 0.07875 0.3342 0.0
C1120 C 0.32797 0.11198 0.33418 0.0
C1121 C 0.36674 0.0614 0.35245 0.0
C1122 C 0.35333 0.0768 0.37113 0.0
H1123 H 0.36897 0.06923 0.32039 0.0
H1124 H 0.39059 0.03912 0.35194 0.0
S1125 S 0.27198 0.15213 0.3783 0.0
N1126 N 0.27983 0.15131 0.35362 0.0
N1127 N 0.30312 0.11843 0.388 0.0
C1128 C 0.32117 0.10443 0.37094 0.0
C1129 C 0.30861 0.12228 0.35236 0.0
C1130 C 0.68323 0.63441 0.10834 0.0
C1131 C 0.66463 0.61978 0.12602 0.0
C1132 C 0.67217 0.61984 0.08925 0.0
C1133 C 0.64189 0.59046 0.08731 0.0
H1134 H 0.70349 0.66 0.10906 0.0
H1135 H 0.68396 0.63506 0.07602 0.0
S1136 S 0.59429 0.53311 0.12909 0.0
N1137 N 0.62242 0.56727 0.14058 0.0
N1138 N 0.60142 0.54002 0.10461 0.0
C1139 C 0.6282 0.57104 0.10493 0.0
C1140 C 0.63966 0.5857 0.12439 0.0
C1141 C 0.14865 0.92458 0.83566 0.0
C1142 C 0.17804 0.8942 0.83447 0.0
C1143 C 0.13358 0.93681 0.85443 0.0
C1144 C 0.14773 0.91927 0.87252 0.0
H1145 H 0.13357 0.93534 0.82213 0.0
H1146 H 0.10781 0.95686 0.8546 0.0
S1147 S 0.23527 0.85044 0.87746 0.0
N1148 N 0.22867 0.85564 0.8528 0.0
N1149 N 0.20062 0.87899 0.88819 0.0
C1150 C 0.18224 0.89476 0.87158 0.0
C1151 C 0.19738 0.88209 0.85244 0.0
loop_
_geom_bond_atom_site_label_1
_geom_bond_atom_site_label_2
_geom_bond_distance
_geom_bond_site_symmetry_2
_ccdc_geom_bond_type
Zn0 O3 2.031 . S
Zn0 O5 2.049 . S
Zn0 O10 2.067 . S
Zn1 O2 1.962 . S
Zn1 O4 1.986 . S
Zn1 O6 1.996 . S
Zn1 O9 1.943 . S
O2 Zn1 1.962 . S
O2 C7 1.254 . S
O3 Zn0 2.031 . S
O3 C7 1.269 . S
O4 Zn1 1.986 . S
O4 C11 1.262 . S
O5 Zn0 2.049 . S
O5 C13 1.260 . S
O6 Zn1 1.996 . S
O6 C13 1.257 . S
C7 O2 1.254 . S
C7 O3 1.269 . S
C8 O9 1.249 . S
C8 O10 1.270 . S
O9 Zn1 1.943 . S
O9 C8 1.249 . S
O10 Zn0 2.067 . S
O10 C8 1.270 . S
C11 O4 1.262 . S
C11 O12 1.232 . S
O12 C11 1.232 . S
C13 O5 1.260 . S
C13 O6 1.257 . S
Zn14 O17 2.031 . S
Zn14 O19 2.049 . S
Zn14 O24 2.067 . S
Zn15 O16 1.962 . S
Zn15 O18 1.986 . S
Zn15 O20 1.996 . S
Zn15 O23 1.943 . S
O16 Zn15 1.962 . S
O16 C21 1.254 . S
O17 Zn14 2.031 . S
O17 C21 1.269 . S
O18 Zn15 1.986 . S
O18 C25 1.262 . S
O19 Zn14 2.049 . S
O19 C27 1.260 . S
O20 Zn15 1.996 . S
O20 C27 1.257 . S
C21 O16 1.254 . S
C21 O17 1.269 . S
C22 O23 1.249 . S
C22 O24 1.270 . S
O23 Zn15 1.943 . S
O23 C22 1.249 . S
O24 Zn14 2.067 . S
O24 C22 1.270 . S
C25 O18 1.262 . S
C25 O26 1.232 . S
O26 C25 1.232 . S
C27 O19 1.260 . S
C27 O20 1.257 . S
Zn28 O31 2.031 . S
Zn28 O33 2.049 . S
Zn28 O38 2.067 . S
Zn29 O30 1.962 . S
Zn29 O32 1.986 . S
Zn29 O34 1.996 . S
Zn29 O37 1.943 . S
O30 Zn29 1.962 . S
O30 C35 1.254 . S
O31 Zn28 2.031 . S
O31 C35 1.269 . S
O32 Zn29 1.986 . S
O32 C39 1.262 . S
O33 Zn28 2.049 . S
O33 C41 1.260 . S
O34 Zn29 1.996 . S
O34 C41 1.257 . S
C35 O30 1.254 . S
C35 O31 1.269 . S
C36 O37 1.249 . S
C36 O38 1.270 . S
O37 Zn29 1.943 . S
O37 C36 1.249 . S
O38 Zn28 2.067 . S
O38 C36 1.270 . S
C39 O32 1.262 . S
C39 O40 1.232 . S
O40 C39 1.232 . S
C41 O33 1.260 . S
C41 O34 1.257 . S
Zn42 O45 2.031 . S
Zn42 O47 2.049 . S
Zn42 O52 2.067 . S
Zn43 O44 1.962 . S
Zn43 O46 1.986 . S
Zn43 O48 1.996 . S
Zn43 O51 1.943 . S
O44 Zn43 1.962 . S
O44 C49 1.254 . S
O45 Zn42 2.031 . S
O45 C49 1.269 . S
O46 Zn43 1.986 . S
O46 C53 1.262 . S
O47 Zn42 2.049 . S
O47 C55 1.260 . S
O48 Zn43 1.996 . S
O48 C55 1.257 . S
C49 O44 1.254 . S
C49 O45 1.269 . S
C50 O51 1.249 . S
C50 O52 1.270 . S
O51 Zn43 1.943 . S
O51 C50 1.249 . S
O52 Zn42 2.067 . S
O52 C50 1.270 . S
C53 O46 1.262 . S
C53 O54 1.232 . S
O54 C53 1.232 . S
C55 O47 1.260 . S
C55 O48 1.257 . S
Zn56 O59 2.031 . S
Zn56 O61 2.049 . S
Zn56 O66 2.067 . S
Zn57 O58 1.962 . S
Zn57 O60 1.986 . S
Zn57 O62 1.996 . S
Zn57 O65 1.943 . S
O58 Zn57 1.962 . S
O58 C63 1.254 . S
O59 Zn56 2.031 . S
O59 C63 1.269 . S
O60 Zn57 1.986 . S
O60 C67 1.262 . S
O61 Zn56 2.049 . S
O61 C69 1.260 . S
O62 Zn57 1.996 . S
O62 C69 1.257 . S
C63 O58 1.254 . S
C63 O59 1.269 . S
C64 O65 1.249 . S
C64 O66 1.270 . S
O65 Zn57 1.943 . S
O65 C64 1.249 . S
O66 Zn56 2.067 . S
O66 C64 1.270 . S
C67 O60 1.262 . S
C67 O68 1.232 . S
O68 C67 1.232 . S
C69 O61 1.260 . S
C69 O62 1.257 . S
Zn70 O73 2.031 . S
Zn70 O75 2.049 . S
Zn70 O80 2.067 . S
Zn71 O72 1.962 . S
Zn71 O74 1.986 . S
Zn71 O76 1.996 . S
Zn71 O79 1.943 . S
O72 Zn71 1.962 . S
O72 C77 1.254 . S
O73 Zn70 2.031 . S
O73 C77 1.269 . S
O74 Zn71 1.986 . S
O74 C81 1.262 . S
O75 Zn70 2.049 . S
O75 C83 1.260 . S
O76 Zn71 1.996 . S
O76 C83 1.257 . S
C77 O72 1.254 . S
C77 O73 1.269 . S
C78 O79 1.249 . S
C78 O80 1.270 . S
O79 Zn71 1.943 . S
O79 C78 1.249 . S
O80 Zn70 2.067 . S
O80 C78 1.270 . S
C81 O74 1.262 . S
C81 O82 1.232 . S
O82 C81 1.232 . S
C83 O75 1.260 . S
C83 O76 1.257 . S
Zn84 O87 2.031 . S
Zn84 O89 2.049 . S
Zn84 O94 2.067 . S
Zn85 O86 1.962 . S
Zn85 O88 1.986 . S
Zn85 O90 1.996 . S
Zn85 O93 1.943 . S
O86 Zn85 1.962 . S
O86 C91 1.254 . S
O87 Zn84 2.031 . S
O87 C91 1.269 . S
O88 Zn85 1.986 . S
O88 C95 1.262 . S
O89 Zn84 2.049 . S
O89 C97 1.260 . S
O90 Zn85 1.996 . S
O90 C97 1.257 . S
C91 O86 1.254 . S
C91 O87 1.269 . S
C92 O93 1.249 . S
C92 O94 1.270 . S
O93 Zn85 1.943 . S
O93 C92 1.249 . S
O94 Zn84 2.067 . S
O94 C92 1.270 . S
C95 O88 1.262 . S
C95 O96 1.232 . S
O96 C95 1.232 . S
C97 O89 1.260 . S
C97 O90 1.257 . S
Zn98 O101 2.031 . S
Zn98 O103 2.049 . S
Zn98 O108 2.067 . S
Zn99 O100 1.962 . S
Zn99 O102 1.986 . S
Zn99 O104 1.996 . S
Zn99 O107 1.943 . S
O100 Zn99 1.962 . S
O100 C105 1.254 . S
O101 Zn98 2.031 . S
O101 C105 1.269 . S
O102 Zn99 1.986 . S
O102 C109 1.262 . S
O103 Zn98 2.049 . S
O103 C111 1.260 . S
O104 Zn99 1.996 . S
O104 C111 1.257 . S
C105 O100 1.254 . S
C105 O101 1.269 . S
C106 O107 1.249 . S
C106 O108 1.270 . S
O107 Zn99 1.943 . S
O107 C106 1.249 . S
O108 Zn98 2.067 . S
O108 C106 1.270 . S
C109 O102 1.262 . S
C109 O110 1.232 . S
O110 C109 1.232 . S
C111 O103 1.260 . S
C111 O104 1.257 . S
Zn112 O115 2.031 . S
Zn112 O117 2.049 . S
Zn112 O122 2.067 . S
Zn113 O114 1.962 . S
Zn113 O116 1.986 . S
Zn113 O118 1.996 . S
Zn113 O121 1.943 . S
O114 Zn113 1.962 . S
O114 C119 1.254 . S
O115 Zn112 2.031 . S
O115 C119 1.269 . S
O116 Zn113 1.986 . S
O116 C123 1.262 . S
O117 Zn112 2.049 . S
O117 C125 1.260 . S
O118 Zn113 1.996 . S
O118 C125 1.257 . S
C119 O114 1.254 . S
C119 O115 1.269 . S
C120 O121 1.249 . S
C120 O122 1.270 . S
O121 Zn113 1.943 . S
O121 C120 1.249 . S
O122 Zn112 2.067 . S
O122 C120 1.270 . S
C123 O116 1.262 . S
C123 O124 1.232 . S
O124 C123 1.232 . S
C125 O117 1.260 . S
C125 O118 1.257 . S
Zn126 O129 2.031 . S
Zn126 O131 2.049 . S
Zn126 O136 2.067 . S
Zn127 O128 1.962 . S
Zn127 O130 1.986 . S
Zn127 O132 1.996 . S
Zn127 O135 1.943 . S
O128 Zn127 1.962 . S
O128 C133 1.254 . S
O129 Zn126 2.031 . S
O129 C133 1.269 . S
O130 Zn127 1.986 . S
O130 C137 1.262 . S
O131 Zn126 2.049 . S
O131 C139 1.260 . S
O132 Zn127 1.996 . S
O132 C139 1.257 . S
C133 O128 1.254 . S
C133 O129 1.269 . S
C134 O135 1.249 . S
C134 O136 1.270 . S
O135 Zn127 1.943 . S
O135 C134 1.249 . S
O136 Zn126 2.067 . S
O136 C134 1.270 . S
C137 O130 1.262 . S
C137 O138 1.232 . S
O138 C137 1.232 . S
C139 O131 1.260 . S
C139 O132 1.257 . S
Zn140 O143 2.031 . S
Zn140 O145 2.049 . S
Zn140 O150 2.067 . S
Zn141 O142 1.962 . S
Zn141 O144 1.986 . S
Zn141 O146 1.996 . S
Zn141 O149 1.943 . S
O142 Zn141 1.962 . S
O142 C147 1.254 . S
O143 Zn140 2.031 . S
O143 C147 1.269 . S
O144 Zn141 1.986 . S
O144 C151 1.262 . S
O145 Zn140 2.049 . S
O145 C153 1.260 . S
O146 Zn141 1.996 . S
O146 C153 1.257 . S
C147 O142 1.254 . S
C147 O143 1.269 . S
C148 O149 1.249 . S
C148 O150 1.270 . S
O149 Zn141 1.943 . S
O149 C148 1.249 . S
O150 Zn140 2.067 . S
O150 C148 1.270 . S
C151 O144 1.262 . S
C151 O152 1.232 . S
O152 C151 1.232 . S
C153 O145 1.260 . S
C153 O146 1.257 . S
Zn154 O157 2.031 . S
Zn154 O159 2.049 . S
Zn154 O164 2.067 . S
Zn155 O156 1.962 . S
Zn155 O158 1.986 . S
Zn155 O160 1.996 . S
Zn155 O163 1.943 . S
O156 Zn155 1.962 . S
O156 C161 1.254 . S
O157 Zn154 2.031 . S
O157 C161 1.269 . S
O158 Zn155 1.986 . S
O158 C165 1.262 . S
O159 Zn154 2.049 . S
O159 C167 1.260 . S
O160 Zn155 1.996 . S
O160 C167 1.257 . S
C161 O156 1.254 . S
C161 O157 1.269 . S
C162 O163 1.249 . S
C162 O164 1.270 . S
O163 Zn155 1.943 . S
O163 C162 1.249 . S
O164 Zn154 2.067 . S
O164 C162 1.270 . S
C165 O158 1.262 . S
C165 O166 1.232 . S
O166 C165 1.232 . S
C167 O159 1.260 . S
C167 O160 1.257 . S
Zn168 O171 2.031 . S
Zn168 O173 2.049 . S
Zn168 O178 2.067 . S
Zn169 O170 1.962 . S
Zn169 O172 1.986 . S
Zn169 O174 1.996 . S
Zn169 O177 1.943 . S
O170 Zn169 1.962 . S
O170 C175 1.254 . S
O171 Zn168 2.031 . S
O171 C175 1.269 . S
O172 Zn169 1.986 . S
O172 C179 1.262 . S
O173 Zn168 2.049 . S
O173 C181 1.260 . S
O174 Zn169 1.996 . S
O174 C181 1.257 . S
C175 O170 1.254 . S
C175 O171 1.269 . S
C176 O177 1.249 . S
C176 O178 1.270 . S
O177 Zn169 1.943 . S
O177 C176 1.249 . S
O178 Zn168 2.067 . S
O178 C176 1.270 . S
C179 O172 1.262 . S
C179 O180 1.232 . S
O180 C179 1.232 . S
C181 O173 1.260 . S
C181 O174 1.257 . S
Zn182 O185 2.031 . S
Zn182 O187 2.049 . S
Zn182 O192 2.067 . S
Zn183 O184 1.962 . S
Zn183 O186 1.986 . S
Zn183 O188 1.996 . S
Zn183 O191 1.943 . S
O184 Zn183 1.962 . S
O184 C189 1.254 . S
O185 Zn182 2.031 . S
O185 C189 1.269 . S
O186 Zn183 1.986 . S
O186 C193 1.262 . S
O187 Zn182 2.049 . S
O187 C195 1.260 . S
O188 Zn183 1.996 . S
O188 C195 1.257 . S
C189 O184 1.254 . S
C189 O185 1.269 . S
C190 O191 1.249 . S
C190 O192 1.270 . S
O191 Zn183 1.943 . S
O191 C190 1.249 . S
O192 Zn182 2.067 . S
O192 C190 1.270 . S
C193 O186 1.262 . S
C193 O194 1.232 . S
O194 C193 1.232 . S
C195 O187 1.260 . S
C195 O188 1.257 . S
Zn196 O199 2.031 . S
Zn196 O201 2.049 . S
Zn196 O206 2.067 . S
Zn197 O198 1.962 . S
Zn197 O200 1.986 . S
Zn197 O202 1.996 . S
Zn197 O205 1.943 . S
O198 Zn197 1.962 . S
O198 C203 1.254 . S
O199 Zn196 2.031 . S
O199 C203 1.269 . S
O200 Zn197 1.986 . S
O200 C207 1.262 . S
O201 Zn196 2.049 . S
O201 C209 1.260 . S
O202 Zn197 1.996 . S
O202 C209 1.257 . S
C203 O198 1.254 . S
C203 O199 1.269 . S
C204 O205 1.249 . S
C204 O206 1.270 . S
O205 Zn197 1.943 . S
O205 C204 1.249 . S
O206 Zn196 2.067 . S
O206 C204 1.270 . S
C207 O200 1.262 . S
C207 O208 1.232 . S
O208 C207 1.232 . S
C209 O201 1.260 . S
C209 O202 1.257 . S
Zn210 O213 2.031 . S
Zn210 O215 2.049 . S
Zn210 O220 2.067 . S
Zn211 O212 1.962 . S
Zn211 O214 1.986 . S
Zn211 O216 1.996 . S
Zn211 O219 1.943 . S
O212 Zn211 1.962 . S
O212 C217 1.254 . S
O213 Zn210 2.031 . S
O213 C217 1.269 . S
O214 Zn211 1.986 . S
O214 C221 1.262 . S
O215 Zn210 2.049 . S
O215 C223 1.260 . S
O216 Zn211 1.996 . S
O216 C223 1.257 . S
C217 O212 1.254 . S
C217 O213 1.269 . S
C218 O219 1.249 . S
C218 O220 1.270 . S
O219 Zn211 1.943 . S
O219 C218 1.249 . S
O220 Zn210 2.067 . S
O220 C218 1.270 . S
C221 O214 1.262 . S
C221 O222 1.232 . S
O222 C221 1.232 . S
C223 O215 1.260 . S
C223 O216 1.257 . S
Zn224 O227 2.031 . S
Zn224 O229 2.049 . S
Zn224 O234 2.067 . S
Zn225 O226 1.962 . S
Zn225 O228 1.986 . S
Zn225 O230 1.996 . S
Zn225 O233 1.943 . S
O226 Zn225 1.962 . S
O226 C231 1.254 . S
O227 Zn224 2.031 . S
O227 C231 1.269 . S
O228 Zn225 1.986 . S
O228 C235 1.262 . S
O229 Zn224 2.049 . S
O229 C237 1.260 . S
O230 Zn225 1.996 . S
O230 C237 1.257 . S
C231 O226 1.254 . S
C231 O227 1.269 . S
C232 O233 1.249 . S
C232 O234 1.270 . S
O233 Zn225 1.943 . S
O233 C232 1.249 . S
O234 Zn224 2.067 . S
O234 C232 1.270 . S
C235 O228 1.262 . S
C235 O236 1.232 . S
O236 C235 1.232 . S
C237 O229 1.260 . S
C237 O230 1.257 . S
Zn238 O241 2.031 . S
Zn238 O243 2.049 . S
Zn238 O248 2.067 . S
Zn239 O240 1.962 . S
Zn239 O242 1.986 . S
Zn239 O244 1.996 . S
Zn239 O247 1.943 . S
O240 Zn239 1.962 . S
O240 C245 1.254 . S
O241 Zn238 2.031 . S
O241 C245 1.269 . S
O242 Zn239 1.986 . S
O242 C249 1.262 . S
O243 Zn238 2.049 . S
O243 C251 1.260 . S
O244 Zn239 1.996 . S
O244 C251 1.257 . S
C245 O240 1.254 . S
C245 O241 1.269 . S
C246 O247 1.249 . S
C246 O248 1.270 . S
O247 Zn239 1.943 . S
O247 C246 1.249 . S
O248 Zn238 2.067 . S
O248 C246 1.270 . S
C249 O242 1.262 . S
C249 O250 1.232 . S
O250 C249 1.232 . S
C251 O243 1.260 . S
C251 O244 1.257 . S
Zn252 O255 2.031 . S
Zn252 O257 2.049 . S
Zn252 O262 2.067 . S
Zn253 O254 1.962 . S
Zn253 O256 1.986 . S
Zn253 O258 1.996 . S
Zn253 O261 1.943 . S
O254 Zn253 1.962 . S
O254 C259 1.254 . S
O255 Zn252 2.031 . S
O255 C259 1.269 . S
O256 Zn253 1.986 . S
O256 C263 1.262 . S
O257 Zn252 2.049 . S
O257 C265 1.260 . S
O258 Zn253 1.996 . S
O258 C265 1.257 . S
C259 O254 1.254 . S
C259 O255 1.269 . S
C260 O261 1.249 . S
C260 O262 1.270 . S
O261 Zn253 1.943 . S
O261 C260 1.249 . S
O262 Zn252 2.067 . S
O262 C260 1.270 . S
C263 O256 1.262 . S
C263 O264 1.232 . S
O264 C263 1.232 . S
C265 O257 1.260 . S
C265 O258 1.257 . S
Zn266 O269 2.031 . S
Zn266 O271 2.049 . S
Zn266 O276 2.067 . S
Zn267 O268 1.962 . S
Zn267 O270 1.986 . S
Zn267 O272 1.996 . S
Zn267 O275 1.943 . S
O268 Zn267 1.962 . S
O268 C273 1.254 . S
O269 Zn266 2.031 . S
O269 C273 1.269 . S
O270 Zn267 1.986 . S
O270 C277 1.262 . S
O271 Zn266 2.049 . S
O271 C279 1.260 . S
O272 Zn267 1.996 . S
O272 C279 1.257 . S
C273 O268 1.254 . S
C273 O269 1.269 . S
C274 O275 1.249 . S
C274 O276 1.270 . S
O275 Zn267 1.943 . S
O275 C274 1.249 . S
O276 Zn266 2.067 . S
O276 C274 1.270 . S
C277 O270 1.262 . S
C277 O278 1.232 . S
O278 C277 1.232 . S
C279 O271 1.260 . S
C279 O272 1.257 . S
Zn280 O283 2.031 . S
Zn280 O285 2.049 . S
Zn280 O290 2.067 . S
Zn281 O282 1.962 . S
Zn281 O284 1.986 . S
Zn281 O286 1.996 . S
Zn281 O289 1.943 . S
O282 Zn281 1.962 . S
O282 C287 1.254 . S
O283 Zn280 2.031 . S
O283 C287 1.269 . S
O284 Zn281 1.986 . S
O284 C291 1.262 . S
O285 Zn280 2.049 . S
O285 C293 1.260 . S
O286 Zn281 1.996 . S
O286 C293 1.257 . S
C287 O282 1.254 . S
C287 O283 1.269 . S
C288 O289 1.249 . S
C288 O290 1.270 . S
O289 Zn281 1.943 . S
O289 C288 1.249 . S
O290 Zn280 2.067 . S
O290 C288 1.270 . S
C291 O284 1.262 . S
C291 O292 1.232 . S
O292 C291 1.232 . S
C293 O285 1.260 . S
C293 O286 1.257 . S
Zn294 O297 2.031 . S
Zn294 O299 2.049 . S
Zn294 O304 2.067 . S
Zn295 O296 1.962 . S
Zn295 O298 1.986 . S
Zn295 O300 1.996 . S
Zn295 O303 1.943 . S
O296 Zn295 1.962 . S
O296 C301 1.254 . S
O297 Zn294 2.031 . S
O297 C301 1.269 . S
O298 Zn295 1.986 . S
O298 C305 1.262 . S
O299 Zn294 2.049 . S
O299 C307 1.260 . S
O300 Zn295 1.996 . S
O300 C307 1.257 . S
C301 O296 1.254 . S
C301 O297 1.269 . S
C302 O303 1.249 . S
C302 O304 1.270 . S
O303 Zn295 1.943 . S
O303 C302 1.249 . S
O304 Zn294 2.067 . S
O304 C302 1.270 . S
C305 O298 1.262 . S
C305 O306 1.232 . S
O306 C305 1.232 . S
C307 O299 1.260 . S
C307 O300 1.257 . S
Zn308 O311 2.031 . S
Zn308 O313 2.049 . S
Zn308 O318 2.067 . S
Zn309 O310 1.962 . S
Zn309 O312 1.986 . S
Zn309 O314 1.996 . S
Zn309 O317 1.943 . S
O310 Zn309 1.962 . S
O310 C315 1.254 . S
O311 Zn308 2.031 . S
O311 C315 1.269 . S
O312 Zn309 1.986 . S
O312 C319 1.262 . S
O313 Zn308 2.049 . S
O313 C321 1.260 . S
O314 Zn309 1.996 . S
O314 C321 1.257 . S
C315 O310 1.254 . S
C315 O311 1.269 . S
C316 O317 1.249 . S
C316 O318 1.270 . S
O317 Zn309 1.943 . S
O317 C316 1.249 . S
O318 Zn308 2.067 . S
O318 C316 1.270 . S
C319 O312 1.262 . S
C319 O320 1.232 . S
O320 C319 1.232 . S
C321 O313 1.260 . S
C321 O314 1.257 . S
Zn322 O325 2.031 . S
Zn322 O327 2.049 . S
Zn322 O332 2.067 . S
Zn323 O324 1.962 . S
Zn323 O326 1.986 . S
Zn323 O328 1.996 . S
Zn323 O331 1.943 . S
O324 Zn323 1.962 . S
O324 C329 1.254 . S
O325 Zn322 2.031 . S
O325 C329 1.269 . S
O326 Zn323 1.986 . S
O326 C333 1.262 . S
O327 Zn322 2.049 . S
O327 C335 1.260 . S
O328 Zn323 1.996 . S
O328 C335 1.257 . S
C329 O324 1.254 . S
C329 O325 1.269 . S
C330 O331 1.249 . S
C330 O332 1.270 . S
O331 Zn323 1.943 . S
O331 C330 1.249 . S
O332 Zn322 2.067 . S
O332 C330 1.270 . S
C333 O326 1.262 . S
C333 O334 1.232 . S
O334 C333 1.232 . S
C335 O327 1.260 . S
C335 O328 1.257 . S
Zn336 O339 2.031 . S
Zn336 O341 2.049 . S
Zn336 O346 2.067 . S
Zn337 O338 1.962 . S
Zn337 O340 1.986 . S
Zn337 O342 1.996 . S
Zn337 O345 1.943 . S
O338 Zn337 1.962 . S
O338 C343 1.254 . S
O339 Zn336 2.031 . S
O339 C343 1.269 . S
O340 Zn337 1.986 . S
O340 C347 1.262 . S
O341 Zn336 2.049 . S
O341 C349 1.260 . S
O342 Zn337 1.996 . S
O342 C349 1.257 . S
C343 O338 1.254 . S
C343 O339 1.269 . S
C344 O345 1.249 . S
C344 O346 1.270 . S
O345 Zn337 1.943 . S
O345 C344 1.249 . S
O346 Zn336 2.067 . S
O346 C344 1.270 . S
C347 O340 1.262 . S
C347 O348 1.232 . S
O348 C347 1.232 . S
C349 O341 1.260 . S
C349 O342 1.257 . S
Zn350 O353 2.031 . S
Zn350 O355 2.049 . S
Zn350 O360 2.067 . S
Zn351 O352 1.962 . S
Zn351 O354 1.986 . S
Zn351 O356 1.996 . S
Zn351 O359 1.943 . S
O352 Zn351 1.962 . S
O352 C357 1.254 . S
O353 Zn350 2.031 . S
O353 C357 1.269 . S
O354 Zn351 1.986 . S
O354 C361 1.262 . S
O355 Zn350 2.049 . S
O355 C363 1.260 . S
O356 Zn351 1.996 . S
O356 C363 1.257 . S
C357 O352 1.254 . S
C357 O353 1.269 . S
C358 O359 1.249 . S
C358 O360 1.270 . S
O359 Zn351 1.943 . S
O359 C358 1.249 . S
O360 Zn350 2.067 . S
O360 C358 1.270 . S
C361 O354 1.262 . S
C361 O362 1.232 . S
O362 C361 1.232 . S
C363 O355 1.260 . S
C363 O356 1.257 . S
Zn364 O367 2.031 . S
Zn364 O369 2.049 . S
Zn364 O374 2.067 . S
Zn365 O366 1.962 . S
Zn365 O368 1.986 . S
Zn365 O370 1.996 . S
Zn365 O373 1.943 . S
O366 Zn365 1.962 . S
O366 C371 1.254 . S
O367 Zn364 2.031 . S
O367 C371 1.269 . S
O368 Zn365 1.986 . S
O368 C375 1.262 . S
O369 Zn364 2.049 . S
O369 C377 1.260 . S
O370 Zn365 1.996 . S
O370 C377 1.257 . S
C371 O366 1.254 . S
C371 O367 1.269 . S
C372 O373 1.249 . S
C372 O374 1.270 . S
O373 Zn365 1.943 . S
O373 C372 1.249 . S
O374 Zn364 2.067 . S
O374 C372 1.270 . S
C375 O368 1.262 . S
C375 O376 1.232 . S
O376 C375 1.232 . S
C377 O369 1.260 . S
C377 O370 1.257 . S
Zn378 O381 2.031 . S
Zn378 O383 2.049 . S
Zn378 O388 2.067 . S
Zn379 O380 1.962 . S
Zn379 O382 1.986 . S
Zn379 O384 1.996 . S
Zn379 O387 1.943 . S
O380 Zn379 1.962 . S
O380 C385 1.254 . S
O381 Zn378 2.031 . S
O381 C385 1.269 . S
O382 Zn379 1.986 . S
O382 C389 1.262 . S
O383 Zn378 2.049 . S
O383 C391 1.260 . S
O384 Zn379 1.996 . S
O384 C391 1.257 . S
C385 O380 1.254 . S
C385 O381 1.269 . S
C386 O387 1.249 . S
C386 O388 1.270 . S
O387 Zn379 1.943 . S
O387 C386 1.249 . S
O388 Zn378 2.067 . S
O388 C386 1.270 . S
C389 O382 1.262 . S
C389 O390 1.232 . S
O390 C389 1.232 . S
C391 O383 1.260 . S
C391 O384 1.257 . S
Zn392 O395 2.031 . S
Zn392 O397 2.049 . S
Zn392 O402 2.067 . S
Zn393 O394 1.962 . S
Zn393 O396 1.986 . S
Zn393 O398 1.996 . S
Zn393 O401 1.943 . S
O394 Zn393 1.962 . S
O394 C399 1.254 . S
O395 Zn392 2.031 . S
O395 C399 1.269 . S
O396 Zn393 1.986 . S
O396 C403 1.262 . S
O397 Zn392 2.049 . S
O397 C405 1.260 . S
O398 Zn393 1.996 . S
O398 C405 1.257 . S
C399 O394 1.254 . S
C399 O395 1.269 . S
C400 O401 1.249 . S
C400 O402 1.270 . S
O401 Zn393 1.943 . S
O401 C400 1.249 . S
O402 Zn392 2.067 . S
O402 C400 1.270 . S
C403 O396 1.262 . S
C403 O404 1.232 . S
O404 C403 1.232 . S
C405 O397 1.260 . S
C405 O398 1.257 . S
Zn406 O409 2.031 . S
Zn406 O411 2.049 . S
Zn406 O416 2.067 . S
Zn407 O408 1.962 . S
Zn407 O410 1.986 . S
Zn407 O412 1.996 . S
Zn407 O415 1.943 . S
O408 Zn407 1.962 . S
O408 C413 1.254 . S
O409 Zn406 2.031 . S
O409 C413 1.269 . S
O410 Zn407 1.986 . S
O410 C417 1.262 . S
O411 Zn406 2.049 . S
O411 C419 1.260 . S
O412 Zn407 1.996 . S
O412 C419 1.257 . S
C413 O408 1.254 . S
C413 O409 1.269 . S
C414 O415 1.249 . S
C414 O416 1.270 . S
O415 Zn407 1.943 . S
O415 C414 1.249 . S
O416 Zn406 2.067 . S
O416 C414 1.270 . S
C417 O410 1.262 . S
C417 O418 1.232 . S
O418 C417 1.232 . S
C419 O411 1.260 . S
C419 O412 1.257 . S
Zn420 O423 2.031 . S
Zn420 O425 2.049 . S
Zn420 O430 2.067 . S
Zn421 O422 1.962 . S
Zn421 O424 1.986 . S
Zn421 O426 1.996 . S
Zn421 O429 1.943 . S
O422 Zn421 1.962 . S
O422 C427 1.254 . S
O423 Zn420 2.031 . S
O423 C427 1.269 . S
O424 Zn421 1.986 . S
O424 C431 1.262 . S
O425 Zn420 2.049 . S
O425 C433 1.260 . S
O426 Zn421 1.996 . S
O426 C433 1.257 . S
C427 O422 1.254 . S
C427 O423 1.269 . S
C428 O429 1.249 . S
C428 O430 1.270 . S
O429 Zn421 1.943 . S
O429 C428 1.249 . S
O430 Zn420 2.067 . S
O430 C428 1.270 . S
C431 O424 1.262 . S
C431 O432 1.232 . S
O432 C431 1.232 . S
C433 O425 1.260 . S
C433 O426 1.257 . S
Zn434 O437 2.031 . S
Zn434 O439 2.049 . S
Zn434 O444 2.067 . S
Zn435 O436 1.962 . S
Zn435 O438 1.986 . S
Zn435 O440 1.996 . S
Zn435 O443 1.943 . S
O436 Zn435 1.962 . S
O436 C441 1.254 . S
O437 Zn434 2.031 . S
O437 C441 1.269 . S
O438 Zn435 1.986 . S
O438 C445 1.262 . S
O439 Zn434 2.049 . S
O439 C447 1.260 . S
O440 Zn435 1.996 . S
O440 C447 1.257 . S
C441 O436 1.254 . S
C441 O437 1.269 . S
C442 O443 1.249 . S
C442 O444 1.270 . S
O443 Zn435 1.943 . S
O443 C442 1.249 . S
O444 Zn434 2.067 . S
O444 C442 1.270 . S
C445 O438 1.262 . S
C445 O446 1.232 . S
O446 C445 1.232 . S
C447 O439 1.260 . S
C447 O440 1.257 . S
C448 C449 1.369 1_554 S
C448 C450 1.419 1_655 S
C448 H452 0.930 . S
C449 C448 1.369 1_556 S
C449 C458 1.429 . S
C450 C448 1.419 1_455 S
C450 C451 1.363 . S
C450 H453 0.929 . S
C451 C450 1.363 . S
C451 C457 1.428 1_554 S
H452 C448 0.930 . S
H453 C450 0.929 . S
S454 N455 1.613 1_455 S
S454 N456 1.610 . S
N455 S454 1.613 1_655 S
N455 C458 1.350 . S
N456 S454 1.610 . S
N456 C457 1.351 . S
C457 C451 1.428 1_556 S
C457 N456 1.351 . S
C457 C458 1.434 1_455 S
C458 C449 1.429 . S
C458 N455 1.350 . S
C458 C457 1.434 1_655 S
C459 C460 1.369 . S
C459 C461 1.419 . S
C459 H463 0.930 . S
C460 C459 1.369 . S
C460 C469 1.429 . S
C461 C459 1.419 . S
C461 C462 1.363 . S
C461 H464 0.929 . S
C462 C461 1.363 . S
C462 C468 1.428 . S
H463 C459 0.930 . S
H464 C461 0.929 . S
S465 N466 1.613 . S
S465 N467 1.610 . S
N466 S465 1.613 . S
N466 C469 1.350 . S
N467 S465 1.610 . S
N467 C468 1.351 . S
C468 C462 1.428 . S
C468 N467 1.351 . S
C468 C469 1.434 . S
C469 C460 1.429 . S
C469 N466 1.350 . S
C469 C468 1.434 . S
C470 C471 1.369 . S
C470 C472 1.419 . S
C470 H474 0.930 . S
C471 C470 1.369 . S
C471 C480 1.429 . S
C472 C470 1.419 . S
C472 C473 1.363 . S
C472 H475 0.929 . S
C473 C472 1.363 . S
C473 C479 1.428 . S
H474 C470 0.930 . S
H475 C472 0.929 . S
S476 N477 1.613 . S
S476 N478 1.610 . S
N477 S476 1.613 . S
N477 C480 1.350 . S
N478 S476 1.610 . S
N478 C479 1.351 . S
C479 C473 1.428 . S
C479 N478 1.351 . S
C479 C480 1.434 . S
C480 C471 1.429 . S
C480 N477 1.350 . S
C480 C479 1.434 . S
C481 C482 1.369 . S
C481 C483 1.419 . S
C481 H485 0.930 . S
C482 C481 1.369 . S
C482 C491 1.429 . S
C483 C481 1.419 . S
C483 C484 1.363 . S
C483 H486 0.929 . S
C484 C483 1.363 . S
C484 C490 1.428 . S
H485 C481 0.930 . S
H486 C483 0.929 . S
S487 N488 1.613 . S
S487 N489 1.610 . S
N488 S487 1.613 . S
N488 C491 1.350 . S
N489 S487 1.610 . S
N489 C490 1.351 . S
C490 C484 1.428 . S
C490 N489 1.351 . S
C490 C491 1.434 . S
C491 C482 1.429 . S
C491 N488 1.350 . S
C491 C490 1.434 . S
C492 C493 1.369 1_455 S
C492 C494 1.419 . S
C492 H496 0.930 . S
C493 C492 1.369 1_655 S
C493 C502 1.429 . S
C494 C492 1.419 . S
C494 C495 1.363 . S
C494 H497 0.929 . S
C495 C494 1.363 . S
C495 C501 1.428 1_455 S
H496 C492 0.930 . S
H497 C494 0.929 . S
S498 N499 1.613 . S
S498 N500 1.610 . S
N499 S498 1.613 . S
N499 C502 1.350 . S
N500 S498 1.610 . S
N500 C501 1.351 . S
C501 C495 1.428 1_655 S
C501 N500 1.351 . S
C501 C502 1.434 . S
C502 C493 1.429 . S
C502 N499 1.350 . S
C502 C501 1.434 . S
C503 C504 1.369 . S
C503 C505 1.419 . S
C503 H507 0.930 . S
C504 C503 1.369 . S
C504 C513 1.429 . S
C505 C503 1.419 . S
C505 C506 1.363 . S
C505 H508 0.929 . S
C506 C505 1.363 . S
C506 C512 1.428 . S
H507 C503 0.930 . S
H508 C505 0.929 . S
S509 N510 1.613 . S
S509 N511 1.610 . S
N510 S509 1.613 . S
N510 C513 1.350 . S
N511 S509 1.610 . S
N511 C512 1.351 . S
C512 C506 1.428 . S
C512 N511 1.351 . S
C512 C513 1.434 . S
C513 C504 1.429 . S
C513 N510 1.350 . S
C513 C512 1.434 . S
C514 C515 1.369 1_554 S
C514 C516 1.419 . S
C514 H518 0.930 . S
C515 C514 1.369 1_556 S
C515 C524 1.429 . S
C516 C514 1.419 . S
C516 C517 1.363 . S
C516 H519 0.929 . S
C517 C516 1.363 . S
C517 C523 1.428 1_554 S
H518 C514 0.930 . S
H519 C516 0.929 . S
S520 N521 1.613 . S
S520 N522 1.610 . S
N521 S520 1.613 . S
N521 C524 1.350 . S
N522 S520 1.610 . S
N522 C523 1.351 . S
C523 C517 1.428 1_556 S
C523 N522 1.351 . S
C523 C524 1.434 . S
C524 C515 1.429 . S
C524 N521 1.350 . S
C524 C523 1.434 . S
C525 C526 1.369 . S
C525 C527 1.419 . S
C525 H529 0.930 . S
C526 C525 1.369 . S
C526 C535 1.429 . S
C527 C525 1.419 . S
C527 C528 1.363 . S
C527 H530 0.929 . S
C528 C527 1.363 . S
C528 C534 1.428 . S
H529 C525 0.930 . S
H530 C527 0.929 . S
S531 N532 1.613 . S
S531 N533 1.610 . S
N532 S531 1.613 . S
N532 C535 1.350 . S
N533 S531 1.610 . S
N533 C534 1.351 . S
C534 C528 1.428 . S
C534 N533 1.351 . S
C534 C535 1.434 . S
C535 C526 1.429 . S
C535 N532 1.350 . S
C535 C534 1.434 . S
C536 C537 1.369 . S
C536 C538 1.419 . S
C536 H540 0.930 . S
C537 C536 1.369 . S
C537 C546 1.429 . S
C538 C536 1.419 . S
C538 C539 1.363 . S
C538 H541 0.929 . S
C539 C538 1.363 . S
C539 C545 1.428 . S
H540 C536 0.930 . S
H541 C538 0.929 . S
S542 N543 1.613 . S
S542 N544 1.610 . S
N543 S542 1.613 . S
N543 C546 1.350 . S
N544 S542 1.610 . S
N544 C545 1.351 . S
C545 C539 1.428 . S
C545 N544 1.351 . S
C545 C546 1.434 . S
C546 C537 1.429 . S
C546 N543 1.350 . S
C546 C545 1.434 . S
C547 C548 1.369 . S
C547 C549 1.419 . S
C547 H551 0.930 . S
C548 C547 1.369 . S
C548 C557 1.429 . S
C549 C547 1.419 . S
C549 C550 1.363 . S
C549 H552 0.929 . S
C550 C549 1.363 . S
C550 C556 1.428 . S
H551 C547 0.930 . S
H552 C549 0.929 . S
S553 N554 1.613 . S
S553 N555 1.610 . S
N554 S553 1.613 . S
N554 C557 1.350 . S
N555 S553 1.610 . S
N555 C556 1.351 . S
C556 C550 1.428 . S
C556 N555 1.351 . S
C556 C557 1.434 . S
C557 C548 1.429 . S
C557 N554 1.350 . S
C557 C556 1.434 . S
C558 C559 1.369 . S
C558 C560 1.419 . S
C558 H562 0.930 . S
C559 C558 1.369 . S
C559 C568 1.429 . S
C560 C558 1.419 . S
C560 C561 1.363 . S
C560 H563 0.929 . S
C561 C560 1.363 . S
C561 C567 1.428 . S
H562 C558 0.930 . S
H563 C560 0.929 . S
S564 N565 1.613 . S
S564 N566 1.610 . S
N565 S564 1.613 . S
N565 C568 1.350 . S
N566 S564 1.610 . S
N566 C567 1.351 . S
C567 C561 1.428 . S
C567 N566 1.351 . S
C567 C568 1.434 . S
C568 C559 1.429 . S
C568 N565 1.350 . S
C568 C567 1.434 . S
C569 C570 1.369 . S
C569 C571 1.419 . S
C569 H573 0.930 . S
C570 C569 1.369 . S
C570 C579 1.429 . S
C571 C569 1.419 . S
C571 C572 1.363 . S
C571 H574 0.929 . S
C572 C571 1.363 . S
C572 C578 1.428 . S
H573 C569 0.930 . S
H574 C571 0.929 . S
S575 N576 1.613 . S
S575 N577 1.610 . S
N576 S575 1.613 . S
N576 C579 1.350 . S
N577 S575 1.610 . S
N577 C578 1.351 . S
C578 C572 1.428 . S
C578 N577 1.351 . S
C578 C579 1.434 . S
C579 C570 1.429 . S
C579 N576 1.350 . S
C579 C578 1.434 . S
C580 C581 1.369 . S
C580 C582 1.419 1_565 S
C580 H584 0.930 . S
C581 C580 1.369 . S
C581 C590 1.429 . S
C582 C580 1.419 1_545 S
C582 C583 1.363 . S
C582 H585 0.929 . S
C583 C582 1.363 . S
C583 C589 1.428 . S
H584 C580 0.930 . S
H585 C582 0.929 . S
S586 N587 1.613 1_545 S
S586 N588 1.610 . S
N587 S586 1.613 1_565 S
N587 C590 1.350 . S
N588 S586 1.610 . S
N588 C589 1.351 . S
C589 C583 1.428 . S
C589 N588 1.351 . S
C589 C590 1.434 1_545 S
C590 C581 1.429 . S
C590 N587 1.350 . S
C590 C589 1.434 1_565 S
C591 C592 1.369 1_545 S
C591 C593 1.419 1_556 S
C591 H595 0.930 . S
C592 C591 1.369 1_565 S
C592 C601 1.429 1_455 S
C593 C591 1.419 1_554 S
C593 C594 1.363 1_455 S
C593 H596 0.929 . S
C594 C593 1.363 1_655 S
C594 C600 1.428 1_545 S
H595 C591 0.930 . S
H596 C593 0.929 . S
S597 N598 1.613 . S
S597 N599 1.612 1_556 S
N598 S597 1.613 . S
N598 C601 1.350 . S
N599 S597 1.612 1_554 S
N599 C600 1.351 . S
C600 C594 1.428 1_565 S
C600 N599 1.351 . S
C600 C601 1.434 1_554 S
C601 C592 1.429 1_655 S
C601 N598 1.350 . S
C601 C600 1.434 1_556 S
C602 C603 1.369 . S
C602 C604 1.401 1_556 S
C602 H606 0.930 . S
C603 C602 1.369 . S
C603 C612 1.451 1_545 S
C604 C602 1.401 1_554 S
C604 C605 1.381 1_545 S
C604 H607 0.929 . S
C605 C604 1.381 1_565 S
C605 C611 1.428 . S
H606 C602 0.930 . S
H607 C604 0.929 . S
S608 N609 1.613 1_554 S
S608 N610 1.610 . S
N609 S608 1.613 1_556 S
N609 C612 1.351 . S
N610 S608 1.610 . S
N610 C611 1.351 . S
C611 C605 1.428 . S
C611 N610 1.351 . S
C611 C612 1.412 1_554 S
C612 C603 1.451 1_565 S
C612 N609 1.351 . S
C612 C611 1.412 1_556 S
C613 C614 1.369 1_655 S
C613 C615 1.419 . S
C613 H617 0.930 . S
C614 C613 1.369 1_455 S
C614 C623 1.429 1_545 S
C615 C613 1.419 . S
C615 C616 1.363 1_545 S
C615 H618 0.929 . S
C616 C615 1.363 1_565 S
C616 C622 1.428 1_655 S
H617 C613 0.930 . S
H618 C615 0.929 . S
S619 N620 1.613 . S
S619 N621 1.610 . S
N620 S619 1.613 . S
N620 C623 1.350 . S
N621 S619 1.610 . S
N621 C622 1.351 . S
C622 C616 1.428 1_455 S
C622 N621 1.351 . S
C622 C623 1.434 . S
C623 C614 1.429 1_565 S
C623 N620 1.350 . S
C623 C622 1.434 . S
C624 C625 1.369 . S
C624 C626 1.419 1_655 S
C624 H628 0.930 . S
C625 C624 1.369 . S
C625 C634 1.429 . S
C626 C624 1.419 1_455 S
C626 C627 1.363 . S
C626 H629 0.929 . S
C627 C626 1.363 . S
C627 C633 1.428 . S
H628 C624 0.930 . S
H629 C626 0.929 . S
S630 N631 1.613 1_455 S
S630 N632 1.610 . S
N631 S630 1.613 1_655 S
N631 C634 1.350 1_556 S
N632 S630 1.610 . S
N632 C633 1.351 1_556 S
C633 C627 1.428 . S
C633 N632 1.351 1_554 S
C633 C634 1.434 1_455 S
C634 C625 1.429 . S
C634 N631 1.350 1_554 S
C634 C633 1.434 1_655 S
C635 C636 1.369 . S
C635 C637 1.419 . S
C635 H639 0.930 . S
C636 C635 1.369 . S
C636 C645 1.429 1_455 S
C637 C635 1.419 . S
C637 C638 1.363 1_455 S
C637 H640 0.929 . S
C638 C637 1.363 1_655 S
C638 C644 1.428 . S
H639 C635 0.930 . S
H640 C637 0.929 . S
S641 N642 1.613 . S
S641 N643 1.610 . S
N642 S641 1.613 . S
N642 C645 1.350 . S
N643 S641 1.610 . S
N643 C644 1.351 . S
C644 C638 1.428 . S
C644 N643 1.351 . S
C644 C645 1.434 . S
C645 C636 1.429 1_655 S
C645 N642 1.350 . S
C645 C644 1.434 . S
C646 C647 1.369 . S
C646 C648 1.419 . S
C646 H650 0.930 . S
C647 C646 1.369 . S
C647 C656 1.429 . S
C648 C646 1.419 . S
C648 C649 1.363 . S
C648 H651 0.929 . S
C649 C648 1.363 . S
C649 C655 1.428 . S
H650 C646 0.930 . S
H651 C648 0.929 . S
S652 N653 1.613 . S
S652 N654 1.610 . S
N653 S652 1.613 . S
N653 C656 1.350 . S
N654 S652 1.610 . S
N654 C655 1.351 . S
C655 C649 1.428 . S
C655 N654 1.351 . S
C655 C656 1.434 . S
C656 C647 1.429 . S
C656 N653 1.350 . S
C656 C655 1.434 . S
C657 C658 1.369 . S
C657 C659 1.419 . S
C657 H661 0.930 . S
C658 C657 1.369 . S
C658 C667 1.429 . S
C659 C657 1.419 . S
C659 C660 1.363 . S
C659 H662 0.929 . S
C660 C659 1.363 . S
C660 C666 1.428 . S
H661 C657 0.930 . S
H662 C659 0.929 . S
S663 N664 1.613 . S
S663 N665 1.610 . S
N664 S663 1.613 . S
N664 C667 1.350 . S
N665 S663 1.610 . S
N665 C666 1.351 . S
C666 C660 1.428 . S
C666 N665 1.351 . S
C666 C667 1.434 . S
C667 C658 1.429 . S
C667 N664 1.350 . S
C667 C666 1.434 . S
C668 C669 1.369 1_455 S
C668 C670 1.419 . S
C668 H672 0.930 . S
C669 C668 1.369 1_655 S
C669 C678 1.429 . S
C670 C668 1.419 . S
C670 C671 1.363 . S
C670 H673 0.929 . S
C671 C670 1.363 . S
C671 C677 1.428 1_455 S
H672 C668 0.930 . S
H673 C670 0.929 . S
S674 N675 1.613 . S
S674 N676 1.610 . S
N675 S674 1.613 . S
N675 C678 1.350 . S
N676 S674 1.610 . S
N676 C677 1.351 . S
C677 C671 1.428 1_655 S
C677 N676 1.351 . S
C677 C678 1.434 . S
C678 C669 1.429 . S
C678 N675 1.350 . S
C678 C677 1.434 . S
C679 C680 1.369 . S
C679 C681 1.419 . S
C679 H683 0.930 . S
C680 C679 1.369 . S
C680 C689 1.429 . S
C681 C679 1.419 . S
C681 C682 1.363 . S
C681 H684 0.929 . S
C682 C681 1.363 . S
C682 C688 1.428 . S
H683 C679 0.930 . S
H684 C681 0.929 . S
S685 N686 1.613 . S
S685 N687 1.610 . S
N686 S685 1.613 . S
N686 C689 1.350 . S
N687 S685 1.610 . S
N687 C688 1.351 . S
C688 C682 1.428 . S
C688 N687 1.351 . S
C688 C689 1.434 . S
C689 C680 1.429 . S
C689 N686 1.350 . S
C689 C688 1.434 . S
C690 C691 1.369 . S
C690 C692 1.419 . S
C690 H694 0.930 . S
C691 C690 1.369 . S
C691 C700 1.429 . S
C692 C690 1.419 . S
C692 C693 1.363 . S
C692 H695 0.929 . S
C693 C692 1.363 . S
C693 C699 1.428 . S
H694 C690 0.930 . S
H695 C692 0.929 . S
S696 N697 1.613 . S
S696 N698 1.610 . S
N697 S696 1.613 . S
N697 C700 1.350 . S
N698 S696 1.610 . S
N698 C699 1.351 . S
C699 C693 1.428 . S
C699 N698 1.351 . S
C699 C700 1.434 . S
C700 C691 1.429 . S
C700 N697 1.350 . S
C700 C699 1.434 . S
C701 C702 1.369 . S
C701 C703 1.437 . S
C701 H705 0.930 . S
C702 C701 1.369 . S
C702 C711 1.429 1_455 S
C703 C701 1.437 . S
C703 C704 1.342 1_455 S
C703 H706 0.931 . S
C704 C703 1.342 1_655 S
C704 C710 1.428 . S
H705 C701 0.930 . S
H706 C703 0.931 . S
S707 N708 1.613 . S
S707 N709 1.610 . S
N708 S707 1.613 . S
N708 C711 1.350 . S
N709 S707 1.610 . S
N709 C710 1.351 . S
C710 C704 1.428 . S
C710 N709 1.351 . S
C710 C711 1.434 . S
C711 C702 1.429 1_655 S
C711 N708 1.350 . S
C711 C710 1.434 . S
C712 C713 1.369 1_455 S
C712 C714 1.419 . S
C712 H716 0.930 . S
C713 C712 1.369 1_655 S
C713 C722 1.429 . S
C714 C712 1.419 . S
C714 C715 1.363 . S
C714 H717 0.929 . S
C715 C714 1.363 . S
C715 C721 1.428 1_455 S
H716 C712 0.930 . S
H717 C714 0.929 . S
S718 N719 1.613 . S
S718 N720 1.610 . S
N719 S718 1.613 . S
N719 C722 1.350 . S
N720 S718 1.610 . S
N720 C721 1.351 . S
C721 C715 1.428 1_655 S
C721 N720 1.351 . S
C721 C722 1.434 . S
C722 C713 1.429 . S
C722 N719 1.350 . S
C722 C721 1.434 . S
C723 C724 1.369 1_455 S
C723 C725 1.419 . S
C723 H727 0.930 . S
C724 C723 1.369 1_655 S
C724 C733 1.429 . S
C725 C723 1.419 . S
C725 C726 1.363 . S
C725 H728 0.929 . S
C726 C725 1.363 . S
C726 C732 1.428 1_455 S
H727 C723 0.930 . S
H728 C725 0.929 . S
S729 N730 1.613 . S
S729 N731 1.610 . S
N730 S729 1.613 . S
N730 C733 1.350 . S
N731 S729 1.610 . S
N731 C732 1.351 . S
C732 C726 1.428 1_655 S
C732 N731 1.351 . S
C732 C733 1.434 . S
C733 C724 1.429 . S
C733 N730 1.350 . S
C733 C732 1.434 . S
C734 C735 1.369 . S
C734 C736 1.419 . S
C734 H738 0.930 . S
C735 C734 1.369 . S
C735 C744 1.429 . S
C736 C734 1.419 . S
C736 C737 1.363 . S
C736 H739 0.929 . S
C737 C736 1.363 . S
C737 C743 1.428 . S
H738 C734 0.930 . S
H739 C736 0.929 . S
S740 N741 1.613 . S
S740 N742 1.610 . S
N741 S740 1.613 . S
N741 C744 1.350 . S
N742 S740 1.610 . S
N742 C743 1.351 . S
C743 C737 1.428 . S
C743 N742 1.351 . S
C743 C744 1.434 . S
C744 C735 1.429 . S
C744 N741 1.350 . S
C744 C743 1.434 . S
C745 C746 1.369 . S
C745 C747 1.419 . S
C745 H749 0.930 . S
C746 C745 1.369 . S
C746 C755 1.429 . S
C747 C745 1.419 . S
C747 C748 1.363 . S
C747 H750 0.929 . S
C748 C747 1.363 . S
C748 C754 1.428 . S
H749 C745 0.930 . S
H750 C747 0.929 . S
S751 N752 1.613 . S
S751 N753 1.610 . S
N752 S751 1.613 . S
N752 C755 1.350 . S
N753 S751 1.610 . S
N753 C754 1.351 . S
C754 C748 1.428 . S
C754 N753 1.351 . S
C754 C755 1.434 . S
C755 C746 1.429 . S
C755 N752 1.350 . S
C755 C754 1.434 . S
C756 C757 1.369 . S
C756 C758 1.419 . S
C756 H760 0.930 . S
C757 C756 1.369 . S
C757 C766 1.429 1_655 S
C758 C756 1.419 . S
C758 C759 1.363 1_655 S
C758 H761 0.929 . S
C759 C758 1.363 1_455 S
C759 C765 1.428 . S
H760 C756 0.930 . S
H761 C758 0.929 . S
S762 N763 1.613 . S
S762 N764 1.610 . S
N763 S762 1.613 . S
N763 C766 1.350 . S
N764 S762 1.610 . S
N764 C765 1.351 . S
C765 C759 1.428 . S
C765 N764 1.351 . S
C765 C766 1.434 . S
C766 C757 1.429 1_455 S
C766 N763 1.350 . S
C766 C765 1.434 . S
C767 C768 1.369 . S
C767 C769 1.419 . S
C767 H771 0.930 . S
C768 C767 1.369 . S
C768 C777 1.429 . S
C769 C767 1.419 . S
C769 C770 1.363 . S
C769 H772 0.929 . S
C770 C769 1.363 . S
C770 C776 1.428 . S
H771 C767 0.930 . S
H772 C769 0.929 . S
S773 N774 1.613 . S
S773 N775 1.610 . S
N774 S773 1.613 . S
N774 C777 1.350 . S
N775 S773 1.610 . S
N775 C776 1.351 . S
C776 C770 1.428 . S
C776 N775 1.351 . S
C776 C777 1.434 . S
C777 C768 1.429 . S
C777 N774 1.350 . S
C777 C776 1.434 . S
C778 C779 1.369 . S
C778 C780 1.419 . S
C778 H782 0.930 . S
C779 C778 1.369 . S
C779 C788 1.429 . S
C780 C778 1.419 . S
C780 C781 1.363 . S
C780 H783 0.929 . S
C781 C780 1.363 . S
C781 C787 1.428 . S
H782 C778 0.930 . S
H783 C780 0.929 . S
S784 N785 1.613 . S
S784 N786 1.610 . S
N785 S784 1.613 . S
N785 C788 1.350 . S
N786 S784 1.610 . S
N786 C787 1.351 . S
C787 C781 1.428 . S
C787 N786 1.351 . S
C787 C788 1.434 . S
C788 C779 1.429 . S
C788 N785 1.350 . S
C788 C787 1.434 . S
C789 C790 1.369 . S
C789 C791 1.419 1_655 S
C789 H793 0.930 . S
C790 C789 1.369 . S
C790 C799 1.429 . S
C791 C789 1.419 1_455 S
C791 C792 1.363 . S
C791 H794 0.929 . S
C792 C791 1.363 . S
C792 C798 1.428 . S
H793 C789 0.930 . S
H794 C791 0.929 . S
S795 N796 1.613 . S
S795 N797 1.610 1_655 S
N796 S795 1.613 . S
N796 C799 1.350 . S
N797 S795 1.610 1_455 S
N797 C798 1.351 . S
C798 C792 1.428 . S
C798 N797 1.351 . S
C798 C799 1.434 1_455 S
C799 C790 1.429 . S
C799 N796 1.350 . S
C799 C798 1.434 1_655 S
C800 C801 1.369 . S
C800 C802 1.419 . S
C800 H804 0.930 . S
C801 C800 1.369 . S
C801 C810 1.429 1_556 S
C802 C800 1.419 . S
C802 C803 1.363 1_556 S
C802 H805 0.929 . S
C803 C802 1.363 1_554 S
C803 C809 1.428 . S
H804 C800 0.930 . S
H805 C802 0.929 . S
S806 N807 1.613 . S
S806 N808 1.610 . S
N807 S806 1.613 . S
N807 C810 1.350 . S
N808 S806 1.610 . S
N808 C809 1.351 . S
C809 C803 1.428 . S
C809 N808 1.351 . S
C809 C810 1.434 . S
C810 C801 1.429 1_554 S
C810 N807 1.350 . S
C810 C809 1.434 . S
C811 C812 1.369 . S
C811 C813 1.419 1_545 S
C811 H815 0.930 . S
C812 C811 1.369 . S
C812 C821 1.429 . S
C813 C811 1.419 1_565 S
C813 C814 1.363 . S
C813 H816 0.929 . S
C814 C813 1.363 . S
C814 C820 1.428 . S
H815 C811 0.930 . S
H816 C813 0.929 . S
S817 N818 1.613 1_565 S
S817 N819 1.610 . S
N818 S817 1.613 1_545 S
N818 C821 1.350 . S
N819 S817 1.610 . S
N819 C820 1.351 . S
C820 C814 1.428 . S
C820 N819 1.351 . S
C820 C821 1.434 1_565 S
C821 C812 1.429 . S
C821 N818 1.350 . S
C821 C820 1.434 1_545 S
C822 C823 1.369 . S
C822 C824 1.419 . S
C822 H826 0.930 . S
C823 C822 1.369 . S
C823 C832 1.429 . S
C824 C822 1.419 . S
C824 C825 1.363 . S
C824 H827 0.929 . S
C825 C824 1.363 . S
C825 C831 1.428 . S
H826 C822 0.930 . S
H827 C824 0.929 . S
S828 N829 1.613 . S
S828 N830 1.610 . S
N829 S828 1.613 . S
N829 C832 1.350 . S
N830 S828 1.610 . S
N830 C831 1.351 . S
C831 C825 1.428 . S
C831 N830 1.351 . S
C831 C832 1.434 . S
C832 C823 1.429 . S
C832 N829 1.350 . S
C832 C831 1.434 . S
C833 C834 1.369 . S
C833 C835 1.419 1_545 S
C833 H837 0.930 . S
C834 C833 1.369 . S
C834 C843 1.429 . S
C835 C833 1.419 1_565 S
C835 C836 1.363 . S
C835 H838 0.929 . S
C836 C835 1.363 . S
C836 C842 1.428 . S
H837 C833 0.930 . S
H838 C835 0.929 . S
S839 N840 1.613 1_565 S
S839 N841 1.610 . S
N840 S839 1.613 1_545 S
N840 C843 1.350 . S
N841 S839 1.610 . S
N841 C842 1.351 . S
C842 C836 1.428 . S
C842 N841 1.351 . S
C842 C843 1.434 1_565 S
C843 C834 1.429 . S
C843 N840 1.350 . S
C843 C842 1.434 1_545 S
C844 C845 1.369 . S
C844 C846 1.419 . S
C844 H848 0.930 . S
C845 C844 1.369 . S
C845 C854 1.429 1_554 S
C846 C844 1.419 . S
C846 C847 1.363 1_554 S
C846 H849 0.929 . S
C847 C846 1.363 1_556 S
C847 C853 1.428 . S
H848 C844 0.930 . S
H849 C846 0.929 . S
S850 N851 1.613 . S
S850 N852 1.610 . S
N851 S850 1.613 . S
N851 C854 1.350 . S
N852 S850 1.610 . S
N852 C853 1.351 . S
C853 C847 1.428 . S
C853 N852 1.351 . S
C853 C854 1.434 . S
C854 C845 1.429 1_556 S
C854 N851 1.350 . S
C854 C853 1.434 . S
C855 C856 1.369 . S
C855 C857 1.419 1_565 S
C855 H859 0.930 . S
C856 C855 1.369 . S
C856 C865 1.429 . S
C857 C855 1.419 1_545 S
C857 C858 1.363 . S
C857 H860 0.929 . S
C858 C857 1.363 . S
C858 C864 1.428 . S
H859 C855 0.930 . S
H860 C857 0.929 . S
S861 N862 1.613 . S
S861 N863 1.610 1_565 S
N862 S861 1.613 . S
N862 C865 1.350 . S
N863 S861 1.610 1_545 S
N863 C864 1.351 . S
C864 C858 1.428 . S
C864 N863 1.351 . S
C864 C865 1.434 1_545 S
C865 C856 1.429 . S
C865 N862 1.350 . S
C865 C864 1.434 1_565 S
C866 C867 1.369 . S
C866 C868 1.419 . S
C866 H870 0.930 . S
C867 C866 1.369 . S
C867 C876 1.429 . S
C868 C866 1.419 . S
C868 C869 1.363 . S
C868 H871 0.929 . S
C869 C868 1.363 . S
C869 C875 1.428 . S
H870 C866 0.930 . S
H871 C868 0.929 . S
S872 N873 1.613 . S
S872 N874 1.610 . S
N873 S872 1.613 . S
N873 C876 1.350 . S
N874 S872 1.610 . S
N874 C875 1.351 . S
C875 C869 1.428 . S
C875 N874 1.351 . S
C875 C876 1.434 . S
C876 C867 1.429 . S
C876 N873 1.350 . S
C876 C875 1.434 . S
C877 C878 1.369 . S
C877 C879 1.419 1_545 S
C877 H881 0.930 . S
C878 C877 1.369 . S
C878 C887 1.429 . S
C879 C877 1.419 1_565 S
C879 C880 1.363 . S
C879 H882 0.929 . S
C880 C879 1.363 . S
C880 C886 1.428 . S
H881 C877 0.930 . S
H882 C879 0.929 . S
S883 N884 1.613 . S
S883 N885 1.610 1_545 S
N884 S883 1.613 . S
N884 C887 1.350 . S
N885 S883 1.610 1_565 S
N885 C886 1.351 . S
C886 C880 1.428 . S
C886 N885 1.351 . S
C886 C887 1.434 1_565 S
C887 C878 1.429 . S
C887 N884 1.350 . S
C887 C886 1.434 1_545 S
C888 C889 1.369 . S
C888 C890 1.419 . S
C888 H892 0.930 . S
C889 C888 1.369 . S
C889 C898 1.429 . S
C890 C888 1.419 . S
C890 C891 1.363 . S
C890 H893 0.929 . S
C891 C890 1.363 . S
C891 C897 1.428 . S
H892 C888 0.930 . S
H893 C890 0.929 . S
S894 N895 1.613 . S
S894 N896 1.610 . S
N895 S894 1.613 . S
N895 C898 1.350 . S
N896 S894 1.610 . S
N896 C897 1.351 . S
C897 C891 1.428 . S
C897 N896 1.351 . S
C897 C898 1.434 . S
C898 C889 1.429 . S
C898 N895 1.350 . S
C898 C897 1.434 . S
C899 C900 1.369 . S
C899 C901 1.419 . S
C899 H903 0.930 . S
C900 C899 1.369 . S
C900 C909 1.429 . S
C901 C899 1.419 . S
C901 C902 1.363 . S
C901 H904 0.929 . S
C902 C901 1.363 . S
C902 C908 1.428 . S
H903 C899 0.930 . S
H904 C901 0.929 . S
S905 N906 1.613 . S
S905 N907 1.610 . S
N906 S905 1.613 . S
N906 C909 1.350 . S
N907 S905 1.610 . S
N907 C908 1.351 . S
C908 C902 1.428 . S
C908 N907 1.351 . S
C908 C909 1.434 . S
C909 C900 1.429 . S
C909 N906 1.350 . S
C909 C908 1.434 . S
C910 C911 1.369 1_556 S
C910 C912 1.419 . S
C910 H914 0.930 . S
C911 C910 1.369 1_554 S
C911 C920 1.429 . S
C912 C910 1.419 . S
C912 C913 1.363 . S
C912 H915 0.929 . S
C913 C912 1.363 . S
C913 C919 1.428 1_556 S
H914 C910 0.930 . S
H915 C912 0.929 . S
S916 N917 1.613 . S
S916 N918 1.610 . S
N917 S916 1.613 . S
N917 C920 1.350 . S
N918 S916 1.610 . S
N918 C919 1.351 . S
C919 C913 1.428 1_554 S
C919 N918 1.351 . S
C919 C920 1.434 . S
C920 C911 1.429 . S
C920 N917 1.350 . S
C920 C919 1.434 . S
C921 C922 1.369 . S
C921 C923 1.419 . S
C921 H925 0.930 . S
C922 C921 1.369 . S
C922 C931 1.429 . S
C923 C921 1.419 . S
C923 C924 1.363 . S
C923 H926 0.929 . S
C924 C923 1.363 . S
C924 C930 1.428 . S
H925 C921 0.930 . S
H926 C923 0.929 . S
S927 N928 1.613 . S
S927 N929 1.610 . S
N928 S927 1.613 . S
N928 C931 1.350 . S
N929 S927 1.610 . S
N929 C930 1.351 . S
C930 C924 1.428 . S
C930 N929 1.351 . S
C930 C931 1.434 . S
C931 C922 1.429 . S
C931 N928 1.350 . S
C931 C930 1.434 . S
C932 C933 1.369 . S
C932 C934 1.419 . S
C932 H936 0.930 . S
C933 C932 1.369 . S
C933 C942 1.429 . S
C934 C932 1.419 . S
C934 C935 1.363 . S
C934 H937 0.929 . S
C935 C934 1.363 . S
C935 C941 1.428 . S
H936 C932 0.930 . S
H937 C934 0.929 . S
S938 N939 1.613 . S
S938 N940 1.610 . S
N939 S938 1.613 . S
N939 C942 1.350 . S
N940 S938 1.610 . S
N940 C941 1.351 . S
C941 C935 1.428 . S
C941 N940 1.351 . S
C941 C942 1.434 . S
C942 C933 1.429 . S
C942 N939 1.350 . S
C942 C941 1.434 . S
C943 C944 1.369 . S
C943 C945 1.419 . S
C943 H947 0.930 . S
C944 C943 1.369 . S
C944 C953 1.429 . S
C945 C943 1.419 . S
C945 C946 1.363 . S
C945 H948 0.929 . S
C946 C945 1.363 . S
C946 C952 1.428 . S
H947 C943 0.930 . S
H948 C945 0.929 . S
S949 N950 1.613 . S
S949 N951 1.610 . S
N950 S949 1.613 . S
N950 C953 1.350 . S
N951 S949 1.610 . S
N951 C952 1.351 . S
C952 C946 1.428 . S
C952 N951 1.351 . S
C952 C953 1.434 . S
C953 C944 1.429 . S
C953 N950 1.350 . S
C953 C952 1.434 . S
C954 C955 1.369 . S
C954 C956 1.419 . S
C954 H958 0.930 . S
C955 C954 1.369 . S
C955 C964 1.429 1_556 S
C956 C954 1.419 . S
C956 C957 1.363 1_556 S
C956 H959 0.929 . S
C957 C956 1.363 1_554 S
C957 C963 1.428 . S
H958 C954 0.930 . S
H959 C956 0.929 . S
S960 N961 1.613 . S
S960 N962 1.610 . S
N961 S960 1.613 . S
N961 C964 1.350 . S
N962 S960 1.610 . S
N962 C963 1.351 . S
C963 C957 1.428 . S
C963 N962 1.351 . S
C963 C964 1.434 . S
C964 C955 1.429 1_554 S
C964 N961 1.350 . S
C964 C963 1.434 . S
C965 C966 1.369 . S
C965 C967 1.419 . S
C965 H969 0.930 . S
C966 C965 1.369 . S
C966 C975 1.429 . S
C967 C965 1.419 . S
C967 C968 1.363 . S
C967 H970 0.929 . S
C968 C967 1.363 . S
C968 C974 1.428 . S
H969 C965 0.930 . S
H970 C967 0.929 . S
S971 N972 1.613 . S
S971 N973 1.610 . S
N972 S971 1.613 . S
N972 C975 1.350 . S
N973 S971 1.610 . S
N973 C974 1.351 . S
C974 C968 1.428 . S
C974 N973 1.351 . S
C974 C975 1.434 . S
C975 C966 1.429 . S
C975 N972 1.350 . S
C975 C974 1.434 . S
C976 C977 1.369 . S
C976 C978 1.419 . S
C976 H980 0.930 . S
C977 C976 1.369 . S
C977 C986 1.429 . S
C978 C976 1.419 . S
C978 C979 1.363 . S
C978 H981 0.929 . S
C979 C978 1.363 . S
C979 C985 1.428 . S
H980 C976 0.930 . S
H981 C978 0.929 . S
S982 N983 1.613 . S
S982 N984 1.610 . S
N983 S982 1.613 . S
N983 C986 1.350 . S
N984 S982 1.610 . S
N984 C985 1.351 . S
C985 C979 1.428 . S
C985 N984 1.351 . S
C985 C986 1.434 . S
C986 C977 1.429 . S
C986 N983 1.350 . S
C986 C985 1.434 . S
C987 C988 1.369 . S
C987 C989 1.419 . S
C987 H991 0.930 . S
C988 C987 1.369 . S
C988 C997 1.429 . S
C989 C987 1.419 . S
C989 C990 1.363 . S
C989 H992 0.929 . S
C990 C989 1.363 . S
C990 C996 1.428 . S
H991 C987 0.930 . S
H992 C989 0.929 . S
S993 N994 1.613 . S
S993 N995 1.610 . S
N994 S993 1.613 . S
N994 C997 1.350 . S
N995 S993 1.610 . S
N995 C996 1.351 . S
C996 C990 1.428 . S
C996 N995 1.351 . S
C996 C997 1.434 . S
C997 C988 1.429 . S
C997 N994 1.350 . S
C997 C996 1.434 . S
C998 C999 1.369 . S
C998 C1000 1.419 . S
C998 H1002 0.930 . S
C999 C998 1.369 . S
C999 C1008 1.429 . S
C1000 C998 1.419 . S
C1000 C1001 1.363 . S
C1000 H1003 0.929 . S
C1001 C1000 1.363 . S
C1001 C1007 1.428 . S
H1002 C998 0.930 . S
H1003 C1000 0.929 . S
S1004 N1005 1.613 . S
S1004 N1006 1.610 . S
N1005 S1004 1.613 . S
N1005 C1008 1.350 . S
N1006 S1004 1.610 . S
N1006 C1007 1.351 . S
C1007 C1001 1.428 . S
C1007 N1006 1.351 . S
C1007 C1008 1.434 . S
C1008 C999 1.429 . S
C1008 N1005 1.350 . S
C1008 C1007 1.434 . S
C1009 C1010 1.369 . S
C1009 C1011 1.419 . S
C1009 H1013 0.930 . S
C1010 C1009 1.369 . S
C1010 C1019 1.429 . S
C1011 C1009 1.419 . S
C1011 C1012 1.363 . S
C1011 H1014 0.929 . S
C1012 C1011 1.363 . S
C1012 C1018 1.428 . S
H1013 C1009 0.930 . S
H1014 C1011 0.929 . S
S1015 N1016 1.613 . S
S1015 N1017 1.610 . S
N1016 S1015 1.613 . S
N1016 C1019 1.350 . S
N1017 S1015 1.610 . S
N1017 C1018 1.351 . S
C1018 C1012 1.428 . S
C1018 N1017 1.351 . S
C1018 C1019 1.434 . S
C1019 C1010 1.429 . S
C1019 N1016 1.350 . S
C1019 C1018 1.434 . S
C1020 C1021 1.369 . S
C1020 C1022 1.419 . S
C1020 H1024 0.930 . S
C1021 C1020 1.369 . S
C1021 C1030 1.429 . S
C1022 C1020 1.419 . S
C1022 C1023 1.363 . S
C1022 H1025 0.929 . S
C1023 C1022 1.363 . S
C1023 C1029 1.428 . S
H1024 C1020 0.930 . S
H1025 C1022 0.929 . S
S1026 N1027 1.613 . S
S1026 N1028 1.610 . S
N1027 S1026 1.613 . S
N1027 C1030 1.350 . S
N1028 S1026 1.610 . S
N1028 C1029 1.351 . S
C1029 C1023 1.428 . S
C1029 N1028 1.351 . S
C1029 C1030 1.434 . S
C1030 C1021 1.429 . S
C1030 N1027 1.350 . S
C1030 C1029 1.434 . S
C1031 C1032 1.369 . S
C1031 C1033 1.419 . S
C1031 H1035 0.930 . S
C1032 C1031 1.369 . S
C1032 C1041 1.429 . S
C1033 C1031 1.419 . S
C1033 C1034 1.363 . S
C1033 H1036 0.929 . S
C1034 C1033 1.363 . S
C1034 C1040 1.428 . S
H1035 C1031 0.930 . S
H1036 C1033 0.929 . S
S1037 N1038 1.613 . S
S1037 N1039 1.610 . S
N1038 S1037 1.613 . S
N1038 C1041 1.350 . S
N1039 S1037 1.610 . S
N1039 C1040 1.351 . S
C1040 C1034 1.428 . S
C1040 N1039 1.351 . S
C1040 C1041 1.434 . S
C1041 C1032 1.429 . S
C1041 N1038 1.350 . S
C1041 C1040 1.434 . S
C1042 C1043 1.369 . S
C1042 C1044 1.419 . S
C1042 H1046 0.930 . S
C1043 C1042 1.369 . S
C1043 C1052 1.429 . S
C1044 C1042 1.419 . S
C1044 C1045 1.363 . S
C1044 H1047 0.929 . S
C1045 C1044 1.363 . S
C1045 C1051 1.428 . S
H1046 C1042 0.930 . S
H1047 C1044 0.929 . S
S1048 N1049 1.613 . S
S1048 N1050 1.610 . S
N1049 S1048 1.613 . S
N1049 C1052 1.350 . S
N1050 S1048 1.610 . S
N1050 C1051 1.351 . S
C1051 C1045 1.428 . S
C1051 N1050 1.351 . S
C1051 C1052 1.434 . S
C1052 C1043 1.429 . S
C1052 N1049 1.350 . S
C1052 C1051 1.434 . S
C1053 C1054 1.369 . S
C1053 C1055 1.419 . S
C1053 H1057 0.930 . S
C1054 C1053 1.369 . S
C1054 C1063 1.429 . S
C1055 C1053 1.419 . S
C1055 C1056 1.363 . S
C1055 H1058 0.929 . S
C1056 C1055 1.363 . S
C1056 C1062 1.428 . S
H1057 C1053 0.930 . S
H1058 C1055 0.929 . S
S1059 N1060 1.613 . S
S1059 N1061 1.610 . S
N1060 S1059 1.613 . S
N1060 C1063 1.350 . S
N1061 S1059 1.610 . S
N1061 C1062 1.351 . S
C1062 C1056 1.428 . S
C1062 N1061 1.351 . S
C1062 C1063 1.434 . S
C1063 C1054 1.429 . S
C1063 N1060 1.350 . S
C1063 C1062 1.434 . S
C1064 C1065 1.369 . S
C1064 C1066 1.419 . S
C1064 H1068 0.930 . S
C1065 C1064 1.369 . S
C1065 C1074 1.429 . S
C1066 C1064 1.419 . S
C1066 C1067 1.363 . S
C1066 H1069 0.929 . S
C1067 C1066 1.363 . S
C1067 C1073 1.428 . S
H1068 C1064 0.930 . S
H1069 C1066 0.929 . S
S1070 N1071 1.613 . S
S1070 N1072 1.610 . S
N1071 S1070 1.613 . S
N1071 C1074 1.350 . S
N1072 S1070 1.610 . S
N1072 C1073 1.351 . S
C1073 C1067 1.428 . S
C1073 N1072 1.351 . S
C1073 C1074 1.434 . S
C1074 C1065 1.429 . S
C1074 N1071 1.350 . S
C1074 C1073 1.434 . S
C1075 C1076 1.369 . S
C1075 C1077 1.419 . S
C1075 H1079 0.930 . S
C1076 C1075 1.369 . S
C1076 C1085 1.429 . S
C1077 C1075 1.419 . S
C1077 C1078 1.363 . S
C1077 H1080 0.929 . S
C1078 C1077 1.363 . S
C1078 C1084 1.428 . S
H1079 C1075 0.930 . S
H1080 C1077 0.929 . S
S1081 N1082 1.613 . S
S1081 N1083 1.610 . S
N1082 S1081 1.613 . S
N1082 C1085 1.350 . S
N1083 S1081 1.610 . S
N1083 C1084 1.351 . S
C1084 C1078 1.428 . S
C1084 N1083 1.351 . S
C1084 C1085 1.434 . S
C1085 C1076 1.429 . S
C1085 N1082 1.350 . S
C1085 C1084 1.434 . S
C1086 C1087 1.369 . S
C1086 C1088 1.419 . S
C1086 H1090 0.930 . S
C1087 C1086 1.369 . S
C1087 C1096 1.429 . S
C1088 C1086 1.419 . S
C1088 C1089 1.363 . S
C1088 H1091 0.929 . S
C1089 C1088 1.363 . S
C1089 C1095 1.428 . S
H1090 C1086 0.930 . S
H1091 C1088 0.929 . S
S1092 N1093 1.613 . S
S1092 N1094 1.610 . S
N1093 S1092 1.613 . S
N1093 C1096 1.350 . S
N1094 S1092 1.610 . S
N1094 C1095 1.351 . S
C1095 C1089 1.428 . S
C1095 N1094 1.351 . S
C1095 C1096 1.434 . S
C1096 C1087 1.429 . S
C1096 N1093 1.350 . S
C1096 C1095 1.434 . S
C1097 C1098 1.369 . S
C1097 C1099 1.419 . S
C1097 H1101 0.930 . S
C1098 C1097 1.369 . S
C1098 C1107 1.429 . S
C1099 C1097 1.419 . S
C1099 C1100 1.363 . S
C1099 H1102 0.929 . S
C1100 C1099 1.363 . S
C1100 C1106 1.428 . S
H1101 C1097 0.930 . S
H1102 C1099 0.929 . S
S1103 N1104 1.613 . S
S1103 N1105 1.610 . S
N1104 S1103 1.613 . S
N1104 C1107 1.350 . S
N1105 S1103 1.610 . S
N1105 C1106 1.351 . S
C1106 C1100 1.428 . S
C1106 N1105 1.351 . S
C1106 C1107 1.434 . S
C1107 C1098 1.429 . S
C1107 N1104 1.350 . S
C1107 C1106 1.434 . S
C1108 C1109 1.369 . S
C1108 C1110 1.419 . S
C1108 H1112 0.930 . S
C1109 C1108 1.369 . S
C1109 C1118 1.429 . S
C1110 C1108 1.419 . S
C1110 C1111 1.363 . S
C1110 H1113 0.929 . S
C1111 C1110 1.363 . S
C1111 C1117 1.428 . S
H1112 C1108 0.930 . S
H1113 C1110 0.929 . S
S1114 N1115 1.613 . S
S1114 N1116 1.610 . S
N1115 S1114 1.613 . S
N1115 C1118 1.350 . S
N1116 S1114 1.610 . S
N1116 C1117 1.351 . S
C1117 C1111 1.428 . S
C1117 N1116 1.351 . S
C1117 C1118 1.434 . S
C1118 C1109 1.429 . S
C1118 N1115 1.350 . S
C1118 C1117 1.434 . S
C1119 C1120 1.369 . S
C1119 C1121 1.419 . S
C1119 H1123 0.930 . S
C1120 C1119 1.369 . S
C1120 C1129 1.429 . S
C1121 C1119 1.419 . S
C1121 C1122 1.363 . S
C1121 H1124 0.929 . S
C1122 C1121 1.363 . S
C1122 C1128 1.428 . S
H1123 C1119 0.930 . S
H1124 C1121 0.929 . S
S1125 N1126 1.613 . S
S1125 N1127 1.610 . S
N1126 S1125 1.613 . S
N1126 C1129 1.350 . S
N1127 S1125 1.610 . S
N1127 C1128 1.351 . S
C1128 C1122 1.428 . S
C1128 N1127 1.351 . S
C1128 C1129 1.434 . S
C1129 C1120 1.429 . S
C1129 N1126 1.350 . S
C1129 C1128 1.434 . S
C1130 C1131 1.369 . S
C1130 C1132 1.419 . S
C1130 H1134 0.930 . S
C1131 C1130 1.369 . S
C1131 C1140 1.429 . S
C1132 C1130 1.419 . S
C1132 C1133 1.363 . S
C1132 H1135 0.929 . S
C1133 C1132 1.363 . S
C1133 C1139 1.428 . S
H1134 C1130 0.930 . S
H1135 C1132 0.929 . S
S1136 N1137 1.613 . S
S1136 N1138 1.610 . S
N1137 S1136 1.613 . S
N1137 C1140 1.350 . S
N1138 S1136 1.610 . S
N1138 C1139 1.351 . S
C1139 C1133 1.428 . S
C1139 N1138 1.351 . S
C1139 C1140 1.434 . S
C1140 C1131 1.429 . S
C1140 N1137 1.350 . S
C1140 C1139 1.434 . S
C1141 C1142 1.369 . S
C1141 C1143 1.419 . S
C1141 H1145 0.930 . S
C1142 C1141 1.369 . S
C1142 C1151 1.429 . S
C1143 C1141 1.419 . S
C1143 C1144 1.363 . S
C1143 H1146 0.929 . S
C1144 C1143 1.363 . S
C1144 C1150 1.428 . S
H1145 C1141 0.930 . S
H1146 C1143 0.929 . S
S1147 N1148 1.613 . S
S1147 N1149 1.610 . S
N1148 S1147 1.613 . S
N1148 C1151 1.350 . S
N1149 S1147 1.610 . S
N1149 C1150 1.351 . S
C1150 C1144 1.428 . S
C1150 N1149 1.351 . S
C1150 C1151 1.434 . S
C1151 C1142 1.429 . S
C1151 N1148 1.350 . S
C1151 C1150 1.434 . S
C449 C125 1.478 . S
C451 C13 1.481 . S
C460 C363 1.480 . S
C462 C27 1.480 . S
C471 C153 1.481 . S
C473 C41 1.478 . S
C482 C391 1.477 . S
C484 C55 1.481 . S
C493 C181 1.482 . S
C495 C69 1.478 . S
C504 C83 1.485 . S
C506 C419 1.475 . S
C515 C97 1.476 . S
C517 C209 1.482 . S
C526 C111 1.475 . S
C528 C447 1.483 . S
C537 C251 1.477 . S
C539 C139 1.481 . S
C548 C279 1.485 . S
C550 C167 1.475 . S
C559 C195 1.474 . S
C561 C307 1.483 . S
C570 C223 1.485 . S
C572 C335 1.475 . S
C581 C237 1.474 . S
C583 C349 1.484 . S
C592 C377 1.474 . S
C594 C265 1.484 . S
C603 C293 1.482 . S
C605 C405 1.477 . S
C614 C433 1.484 . S
C616 C321 1.476 . S
C625 C260 1.326 . S
C627 C8 1.329 . S
C636 C274 1.332 . S
C638 C22 1.323 . S
C647 C36 1.332 . S
C649 C232 1.324 . S
C658 C50 1.324 . S
C660 C246 1.330 . S
C669 C316 1.332 . S
C671 C64 1.323 . S
C680 C78 1.323 . S
C682 C330 1.330 . S
C691 C288 1.330 . S
C693 C92 1.325 . S
C702 C302 1.330 . S
C704 C106 1.325 . S
C713 C120 1.331 . S
C715 C372 1.324 . S
C724 C386 1.324 . S
C726 C134 1.330 . S
C735 C148 1.324 . S
C737 C344 1.328 . S
C746 C162 1.323 . S
C748 C358 1.331 . S
C757 C176 1.325 . S
C759 C428 1.329 . S
C768 C190 1.330 . S
C770 C442 1.324 . S
C779 C400 1.322 . S
C781 C204 1.330 . S
C790 C414 1.329 . S
C792 C218 1.327 . S
C801 C95 1.367 . S
C803 C11 1.365 . S
C812 C109 1.364 . S
C814 C25 1.367 . S
C823 C67 1.367 . S
C825 C39 1.365 . S
C834 C53 1.364 . S
C836 C81 1.367 . S
C845 C207 1.367 . S
C847 C123 1.364 . S
C856 C221 1.368 . S
C858 C137 1.364 . S
C867 C179 1.364 . S
C869 C151 1.367 . S
C878 C193 1.366 . S
C880 C165 1.365 . S
C889 C319 1.367 . S
C891 C235 1.365 . S
C900 C333 1.364 . S
C902 C249 1.367 . S
C911 C263 1.363 . S
C913 C291 1.368 . S
C922 C277 1.363 . S
C924 C305 1.368 . S
C933 C431 1.369 . S
C935 C347 1.364 . S
C944 C445 1.366 . S
C946 C361 1.366 . S
C955 C375 1.367 . S
C957 C403 1.365 . S
C966 C389 1.366 . S
C968 C417 1.365 . S
C977 C7 1.505 . S
C979 C301 1.505 . S
C988 C315 1.505 . S
C990 C21 1.505 . S
C999 C329 1.503 . S
C1001 C35 1.504 . S
C1010 C49 1.506 . S
C1012 C287 1.505 . S
C1021 C273 1.504 . S
C1023 C63 1.505 . S
C1032 C77 1.503 . S
C1034 C231 1.504 . S
C1043 C245 1.506 . S
C1045 C91 1.506 . S
C1054 C105 1.506 . S
C1056 C259 1.505 . S
C1065 C413 1.504 . S
C1067 C119 1.504 . S
C1076 C427 1.504 . S
C1078 C133 1.504 . S
C1087 C147 1.504 . S
C1089 C441 1.504 . S
C1098 C399 1.506 . S
C1100 C161 1.505 . S
C1109 C385 1.504 . S
C1111 C175 1.504 . S
C1120 C189 1.503 . S
C1122 C343 1.504 . S
C1131 C357 1.506 . S
C1133 C203 1.505 . S
C1142 C217 1.504 . S
C1144 C371 1.505 . S
