# Generated by pormake.
# Topology smd, (6)-cn, num edge types: 1
# Building blocks:
#     Node 0, Type 0, BuildingBlock: BETFAJ_clean_sbu_0, # of connection points: 6
#     Node 1, Type 0, BuildingBlock: BETFAJ_clean_sbu_0, # of connection points: 6
#     Node 2, Type 0, BuildingBlock: BETFAJ_clean_sbu_0, # of connection points: 6
#     Node 3, Type 0, BuildingBlock: BETFAJ_clean_sbu_0, # of connection points: 6
#     Node 4, Type 0, BuildingBlock: BETFAJ_clean_sbu_0, # of connection points: 6
#     Node 5, Type 0, BuildingBlock: BETFAJ_clean_sbu_0, # of connection points: 6
#     Node 6, Type 0, BuildingBlock: BETFAJ_clean_sbu_0, # of connection points: 6
#     Node 7, Type 0, BuildingBlock: BETFAJ_clean_sbu_0, # of connection points: 6
#     Node 8, Type 0, BuildingBlock: BETFAJ_clean_sbu_0, # of connection points: 6
#     Node 9, Type 0, BuildingBlock: BETFAJ_clean_sbu_0, # of connection points: 6
#     Node 10, Type 0, BuildingBlock: BETFAJ_clean_sbu_0, # of connection points: 6
#     Node 11, Type 0, BuildingBlock: BETFAJ_clean_sbu_0, # of connection points: 6
#     Node 12, Type 0, BuildingBlock: BETFAJ_clean_sbu_0, # of connection points: 6
#     Node 13, Type 0, BuildingBlock: BETFAJ_clean_sbu_0, # of connection points: 6
#     Node 14, Type 0, BuildingBlock: BETFAJ_clean_sbu_0, # of connection points: 6
#     Node 15, Type 0, BuildingBlock: BETFAJ_clean_sbu_0, # of connection points: 6
#     Node 16, Type 0, BuildingBlock: BETFAJ_clean_sbu_0, # of connection points: 6
#     Node 17, Type 0, BuildingBlock: BETFAJ_clean_sbu_0, # of connection points: 6
#     Edge 18, Type (0, 0), BuildingBlock: EZIPEK_clean_linker_0, # of connection points: 2
#     Edge 19, Type (0, 0), BuildingBlock: EZIPEK_clean_linker_0, # of connection points: 2
#     Edge 20, Type (0, 0), BuildingBlock: EZIPEK_clean_linker_0, # of connection points: 2
#     Edge 21, Type (0, 0), BuildingBlock: EZIPEK_clean_linker_0, # of connection points: 2
#     Edge 22, Type (0, 0), BuildingBlock: EZIPEK_clean_linker_0, # of connection points: 2
#     Edge 23, Type (0, 0), BuildingBlock: EZIPEK_clean_linker_0, # of connection points: 2
#     Edge 24, Type (0, 0), BuildingBlock: EZIPEK_clean_linker_0, # of connection points: 2
#     Edge 25, Type (0, 0), BuildingBlock: EZIPEK_clean_linker_0, # of connection points: 2
#     Edge 26, Type (0, 0), BuildingBlock: EZIPEK_clean_linker_0, # of connection points: 2
#     Edge 27, Type (0, 0), BuildingBlock: EZIPEK_clean_linker_0, # of connection points: 2
#     Edge 28, Type (0, 0), BuildingBlock: EZIPEK_clean_linker_0, # of connection points: 2
#     Edge 29, Type (0, 0), BuildingBlock: EZIPEK_clean_linker_0, # of connection points: 2
#     Edge 30, Type (0, 0), BuildingBlock: EZIPEK_clean_linker_0, # of connection points: 2
#     Edge 31, Type (0, 0), BuildingBlock: EZIPEK_clean_linker_0, # of connection points: 2
#     Edge 32, Type (0, 0), BuildingBlock: EZIPEK_clean_linker_0, # of connection points: 2
#     Edge 33, Type (0, 0), BuildingBlock: EZIPEK_clean_linker_0, # of connection points: 2
#     Edge 34, Type (0, 0), BuildingBlock: EZIPEK_clean_linker_0, # of connection points: 2
#     Edge 35, Type (0, 0), BuildingBlock: EZIPEK_clean_linker_0, # of connection points: 2
#     Edge 36, Type (0, 0), BuildingBlock: EZIPEK_clean_linker_0, # of connection points: 2
#     Edge 37, Type (0, 0), BuildingBlock: EZIPEK_clean_linker_0, # of connection points: 2
#     Edge 38, Type (0, 0), BuildingBlock: EZIPEK_clean_linker_0, # of connection points: 2
#     Edge 39, Type (0, 0), BuildingBlock: EZIPEK_clean_linker_0, # of connection points: 2
#     Edge 40, Type (0, 0), BuildingBlock: EZIPEK_clean_linker_0, # of connection points: 2
#     Edge 41, Type (0, 0), BuildingBlock: EZIPEK_clean_linker_0, # of connection points: 2
#     Edge 42, Type (0, 0), BuildingBlock: EZIPEK_clean_linker_0, # of connection points: 2
#     Edge 43, Type (0, 0), BuildingBlock: EZIPEK_clean_linker_0, # of connection points: 2
#     Edge 44, Type (0, 0), BuildingBlock: EZIPEK_clean_linker_0, # of connection points: 2
#     Edge 45, Type (0, 0), BuildingBlock: EZIPEK_clean_linker_0, # of connection points: 2
#     Edge 46, Type (0, 0), BuildingBlock: EZIPEK_clean_linker_0, # of connection points: 2
#     Edge 47, Type (0, 0), BuildingBlock: EZIPEK_clean_linker_0, # of connection points: 2
#     Edge 48, Type (0, 0), BuildingBlock: EZIPEK_clean_linker_0, # of connection points: 2
#     Edge 49, Type (0, 0), BuildingBlock: EZIPEK_clean_linker_0, # of connection points: 2
#     Edge 50, Type (0, 0), BuildingBlock: EZIPEK_clean_linker_0, # of connection points: 2
#     Edge 51, Type (0, 0), BuildingBlock: EZIPEK_clean_linker_0, # of connection points: 2
#     Edge 52, Type (0, 0), BuildingBlock: EZIPEK_clean_linker_0, # of connection points: 2
#     Edge 53, Type (0, 0), BuildingBlock: EZIPEK_clean_linker_0, # of connection points: 2
#     Edge 54, Type (0, 0), BuildingBlock: EZIPEK_clean_linker_0, # of connection points: 2
#     Edge 55, Type (0, 0), BuildingBlock: EZIPEK_clean_linker_0, # of connection points: 2
#     Edge 56, Type (0, 0), BuildingBlock: EZIPEK_clean_linker_0, # of connection points: 2
#     Edge 57, Type (0, 0), BuildingBlock: EZIPEK_clean_linker_0, # of connection points: 2
#     Edge 58, Type (0, 0), BuildingBlock: EZIPEK_clean_linker_0, # of connection points: 2
#     Edge 59, Type (0, 0), BuildingBlock: EZIPEK_clean_linker_0, # of connection points: 2
#     Edge 60, Type (0, 0), BuildingBlock: EZIPEK_clean_linker_0, # of connection points: 2
#     Edge 61, Type (0, 0), BuildingBlock: EZIPEK_clean_linker_0, # of connection points: 2
#     Edge 62, Type (0, 0), BuildingBlock: EZIPEK_clean_linker_0, # of connection points: 2
#     Edge 63, Type (0, 0), BuildingBlock: EZIPEK_clean_linker_0, # of connection points: 2
#     Edge 64, Type (0, 0), BuildingBlock: EZIPEK_clean_linker_0, # of connection points: 2
#     Edge 65, Type (0, 0), BuildingBlock: EZIPEK_clean_linker_0, # of connection points: 2
#     Edge 66, Type (0, 0), BuildingBlock: EZIPEK_clean_linker_0, # of connection points: 2
#     Edge 67, Type (0, 0), BuildingBlock: EZIPEK_clean_linker_0, # of connection points: 2
#     Edge 68, Type (0, 0), BuildingBlock: EZIPEK_clean_linker_0, # of connection points: 2
#     Edge 69, Type (0, 0), BuildingBlock: EZIPEK_clean_linker_0, # of connection points: 2
#     Edge 70, Type (0, 0), BuildingBlock: EZIPEK_clean_linker_0, # of connection points: 2
#     Edge 71, Type (0, 0), BuildingBlock: EZIPEK_clean_linker_0, # of connection points: 2
# Relax obj value: 0.307
# Max RMSD: 0.384
# Mean RMSD: 0.352
data_MOF--net-smd--node1-BETFAJ_clean_sbu_0--edge1-EZIPEK_clean_linker_0
_symmetry_space_group_name_H-M    P1
_symmetry_Int_Tables_number       1
_symmetry_cell_setting            triclinic
loop_
_symmetry_equiv_pos_as_xyz
'x, y, z'
_cell_length_a     47.920271
_cell_length_b     48.284931
_cell_length_c     21.034372
_cell_angle_alpha  93.396702
_cell_angle_beta   93.250083
_cell_angle_gamma 120.19318
loop_
_atom_site_label
_atom_site_type_symbol
_atom_site_fract_x
_atom_site_fract_y
_atom_site_fract_z
_atom_type_partial_charge
Sm0 Sm 0.03502 0.25301 0.59672 0.0
Sm1 Sm 0.9939 0.2305 0.48537 0.0
C2 C 0.06163 0.26935 0.71863 0.0
C3 C 0.05251 0.26478 0.78568 0.0
C4 C 0.03769 0.2341 0.80838 0.0
C5 C 0.02914 0.23022 0.87139 0.0
C6 C 0.03521 0.25683 0.91332 0.0
C7 C 0.05022 0.28749 0.89112 0.0
C8 C 0.05886 0.29143 0.8281 0.0
C9 C 0.0659 0.23539 0.51003 0.0
C10 C 0.9678 0.17644 0.57538 0.0
C11 C 0.96723 0.22126 0.36545 0.0
C12 C 0.97814 0.22738 0.30005 0.0
C13 C 1.00533 0.25666 0.28811 0.0
C14 C 0.01492 0.26207 0.22598 0.0
C15 C 0.99756 0.23831 0.17435 0.0
C16 C 0.97041 0.20908 0.18617 0.0
C17 C 0.96083 0.2037 0.2483 0.0
C18 C 0.97031 0.25316 0.58658 0.0
C19 C 0.05669 0.29796 0.47628 0.0
O20 O 0.05424 0.28743 0.68618 0.0
O21 O 0.05767 0.24438 0.68288 0.0
O22 O 0.03509 0.2191 0.5148 0.0
O23 O 0.07952 0.26146 0.54883 0.0
O24 O 0.98932 0.20158 0.61629 0.0
O25 O 0.96794 0.17983 0.51427 0.0
O26 O 0.97003 0.19915 0.39333 0.0
O27 O 0.97464 0.24632 0.40537 0.0
O28 O 0.99871 0.26704 0.56954 0.0
O29 O 0.95289 0.22709 0.54814 0.0
O30 O 0.03826 0.26975 0.44501 0.0
O31 O 0.0573 0.30014 0.53997 0.0
H32 H 0.03243 0.213 0.77735 0.0
H33 H 0.01763 0.20636 0.88743 0.0
H34 H 0.05519 0.30839 0.92256 0.0
H35 H 0.07035 0.31536 0.81235 0.0
H36 H 0.01918 0.27544 0.32665 0.0
H37 H 0.0359 0.28482 0.21817 0.0
H38 H 0.95663 0.19041 0.1472 0.0
H39 H 0.93976 0.18098 0.25592 0.0
Sm40 Sm 0.78866 0.7686 0.48037 0.0
Sm41 Sm 0.77791 0.79318 0.59225 0.0
C42 C 0.78593 0.7397 0.36579 0.0
C43 C 0.78383 0.74573 0.29781 0.0
C44 C 0.76148 0.75423 0.2736 0.0
C45 C 0.75949 0.75936 0.20906 0.0
C46 C 0.78044 0.75702 0.16778 0.0
C47 C 0.80312 0.749 0.19218 0.0
C48 C 0.80457 0.74311 0.25641 0.0
C49 C 0.84778 0.80058 0.55591 0.0
C50 C 0.80221 0.84383 0.49213 0.0
C51 C 0.77164 0.81071 0.71031 0.0
C52 C 0.77294 0.801 0.77592 0.0
C53 C 0.8027 0.81349 0.81386 0.0
C54 C 0.80362 0.80509 0.87628 0.0
C55 C 0.77483 0.78416 0.90228 0.0
C56 C 0.74509 0.77144 0.86458 0.0
C57 C 0.74414 0.77981 0.80211 0.0
C58 C 0.72643 0.77213 0.49156 0.0
C59 C 0.76461 0.72179 0.60336 0.0
O60 O 0.76075 0.73254 0.39665 0.0
O61 O 0.81295 0.75925 0.40081 0.0
O62 O 0.82006 0.78235 0.5761 0.0
O63 O 0.84296 0.80621 0.49809 0.0
O64 O 0.79045 0.81689 0.45257 0.0
O65 O 0.80744 0.84183 0.55308 0.0
O66 O 0.79883 0.82531 0.68354 0.0
O67 O 0.74709 0.79023 0.66967 0.0
O68 O 0.74086 0.75789 0.51019 0.0
O69 O 0.73974 0.79933 0.52726 0.0
O70 O 0.76422 0.74611 0.63259 0.0
O71 O 0.77346 0.72373 0.54367 0.0
H72 H 0.74567 0.75712 0.3046 0.0
H73 H 0.74192 0.76566 0.19148 0.0
H74 H 0.81962 0.7472 0.16136 0.0
H75 H 0.82207 0.73671 0.27393 0.0
H76 H 0.82533 0.83002 0.79563 0.0
H77 H 0.82679 0.81527 0.90473 0.0
H78 H 0.72259 0.75539 0.88384 0.0
H79 H 0.72078 0.76991 0.77454 0.0
Sm80 Sm 0.24363 1.00095 0.56788 0.0
Sm81 Sm 0.25321 0.0361 0.46918 0.0
C82 C 0.24521 0.98246 0.68468 0.0
C83 C 0.25414 0.99579 0.75271 0.0
C84 C 0.26206 0.0275 0.77202 0.0
C85 C 0.26761 0.03855 0.83739 0.0
C86 C 0.26536 0.01807 0.88427 0.0
C87 C 0.2588 0.98689 0.86465 0.0
C88 C 0.25321 0.97586 0.79947 0.0
C89 C 0.18813 0.96263 0.48751 0.0
C90 C 0.22694 0.06237 0.57019 0.0
C91 C 0.26658 0.06522 0.36155 0.0
C92 C 0.26685 0.05874 0.29182 0.0
C93 C 0.24228 0.03039 0.25644 0.0
C94 C 0.24341 0.02475 0.19068 0.0
C95 C 0.26876 0.04765 0.15868 0.0
C96 C 0.29306 0.07623 0.194 0.0
C97 C 0.29225 0.08156 0.25996 0.0
C98 C 0.3061 0.06457 0.5687 0.0
C99 C 0.25955 0.97429 0.43245 0.0
O100 O 0.26872 0.99094 0.64817 0.0
O101 O 0.21994 0.98163 0.65584 0.0
O102 O 0.2021 0.99381 0.49527 0.0
O103 O 0.20554 0.95291 0.51692 0.0
O104 O 0.23647 0.04557 0.6047 0.0
O105 O 0.22544 0.05815 0.50828 0.0
O106 O 0.23852 0.05343 0.38475 0.0
O107 O 0.28801 0.06343 0.39932 0.0
O108 O 0.29168 0.03638 0.54111 0.0
O109 O 0.29109 0.07841 0.54574 0.0
O110 O 0.25253 0.99494 0.41067 0.0
O111 O 0.26138 0.97368 0.49595 0.0
H112 H 0.26317 0.04337 0.73669 0.0
H113 H 0.27276 0.06273 0.85148 0.0
H114 H 0.25703 0.97075 0.89989 0.0
H115 H 0.24734 0.95141 0.7856 0.0
H116 H 0.22222 0.01259 0.27961 0.0
H117 H 0.22427 1.00262 0.16448 0.0
H118 H 0.31272 0.09437 0.17046 0.0
H119 H 0.31141 0.10368 0.28613 0.0
Sm120 Sm 0.03531 0.79328 0.59188 0.0
Sm121 Sm 0.99536 0.77189 0.47668 0.0
C122 C 0.05874 0.80782 0.71517 0.0
C123 C 0.04756 0.79756 0.77945 0.0
C124 C 0.0504 0.8205 0.82791 0.0
C125 C 0.04065 0.81172 0.88896 0.0
C126 C 0.02773 0.77971 0.90342 0.0
C127 C 0.0251 0.75673 0.85529 0.0
C128 C 0.03485 0.7655 0.79411 0.0
C129 C 0.0633 0.77637 0.49023 0.0
C130 C 0.97518 0.72375 0.59978 0.0
C131 C 0.96372 0.74463 0.3599 0.0
C132 C 0.97125 0.74767 0.2914 0.0
C133 C 0.96645 0.72082 0.25148 0.0
C134 C 0.97465 0.72382 0.18788 0.0
C135 C 0.98769 0.75375 0.1625 0.0
C136 C 0.99204 0.78043 0.20194 0.0
C137 C 0.98397 0.77749 0.2654 0.0
C138 C 0.9719 0.80258 0.55363 0.0
C139 C 0.06115 0.84706 0.49694 0.0
O140 O 0.04692 0.82334 0.68538 0.0
O141 O 0.06206 0.78784 0.67592 0.0
O142 O 0.03428 0.76101 0.5038 0.0
O143 O 0.0792 0.80096 0.53326 0.0
O144 O 1.00463 0.74401 0.62446 0.0
O145 O 0.96472 0.72889 0.54348 0.0
O146 O 0.97639 0.73194 0.39615 0.0
O147 O 0.96403 0.76892 0.39096 0.0
O148 O 0.98172 0.78372 0.57224 0.0
O149 O 0.9802 0.80942 0.49659 0.0
O150 O 0.04202 0.82147 0.45504 0.0
O151 O 0.05761 0.84369 0.55788 0.0
H152 H 0.06025 0.84538 0.81854 0.0
H153 H 0.043 0.82995 0.92498 0.0
H154 H 0.01539 0.73193 0.86508 0.0
H155 H 0.03231 0.74711 0.75831 0.0
H156 H 0.95669 0.69753 0.26975 0.0
H157 H 0.97094 0.70281 0.15856 0.0
H158 H 1.00197 0.80373 0.18365 0.0
H159 H 0.98815 0.79878 0.29434 0.0
Sm160 Sm 0.24876 0.22951 0.47186 0.0
Sm161 Sm 0.23975 0.25745 0.57923 0.0
C162 C 0.26213 0.21588 0.35678 0.0
C163 C 0.26079 0.22385 0.28997 0.0
C164 C 0.23536 0.22743 0.26312 0.0
C165 C 0.23484 0.23488 0.19963 0.0
C166 C 0.25989 0.2392 0.16221 0.0
C167 C 0.28557 0.23622 0.18946 0.0
C168 C 0.28592 0.2285 0.2526 0.0
C169 C 0.3023 0.25679 0.57008 0.0
C170 C 0.25541 0.29629 0.44996 0.0
C171 C 0.24128 0.28061 0.69889 0.0
C172 C 0.24664 0.2756 0.76631 0.0
C173 C 0.26672 0.26338 0.78476 0.0
C174 C 0.27067 0.25833 0.84899 0.0
C175 C 0.25452 0.26527 0.89562 0.0
C176 C 0.23487 0.27788 0.87711 0.0
C177 C 0.231 0.283 0.81314 0.0
C178 C 0.18435 0.23664 0.49803 0.0
C179 C 0.22562 0.17998 0.57115 0.0
O180 O 0.23475 0.19755 0.38053 0.0
O181 O 0.28331 0.23938 0.39816 0.0
O182 O 0.28713 0.26953 0.54717 0.0
O183 O 0.28797 0.22767 0.54213 0.0
O184 O 0.24171 0.26682 0.42362 0.0
O185 O 0.26207 0.30119 0.5135 0.0
O186 O 0.26619 0.29233 0.66554 0.0
O187 O 0.21491 0.25811 0.66551 0.0
O188 O 0.19874 0.2203 0.505 0.0
O189 O 0.20096 0.26476 0.53003 0.0
O190 O 0.23357 0.20694 0.6084 0.0
O191 O 0.22457 0.1808 0.50914 0.0
H192 H 0.21586 0.22436 0.29106 0.0
H193 H 0.21486 0.23716 0.17957 0.0
H194 H 0.30514 0.2395 0.16155 0.0
H195 H 0.30586 0.22603 0.27228 0.0
H196 H 0.27908 0.2575 0.74955 0.0
H197 H 0.28599 0.24863 0.8622 0.0
H198 H 0.22221 0.28343 0.91216 0.0
H199 H 0.2155 0.29252 0.80009 0.0
Sm200 Sm 0.77379 0.99243 0.59771 0.0
Sm201 Sm 0.78769 0.02717 0.50271 0.0
C202 C 0.75296 0.96493 0.70511 0.0
C203 C 0.7557 0.97195 0.77571 0.0
C204 C 0.7858 0.98721 0.81327 0.0
C205 C 0.78748 0.99347 0.87982 0.0
C206 C 0.75914 0.98445 0.91019 0.0
C207 C 0.72907 0.96908 0.87279 0.0
C208 C 0.72739 0.96293 0.80627 0.0
C209 C 0.72226 0.96629 0.4948 0.0
C210 C 0.7732 0.05572 0.63471 0.0
C211 C 0.7921 0.04805 0.38691 0.0
C212 C 0.78592 0.03599 0.31847 0.0
C213 C 0.76199 1.00417 0.29622 0.0
C214 C 0.75597 0.99386 0.23053 0.0
C215 C 0.77433 0.01505 0.18648 0.0
C216 C 0.79868 0.04659 0.20913 0.0
C217 C 0.80431 0.05699 0.27448 0.0
C218 C 0.84228 0.0633 0.58594 0.0
C219 C 0.80011 0.9629 0.50434 0.0
O220 O 0.77775 0.96646 0.67893 0.0
O221 O 0.73811 0.97608 0.67041 0.0
O222 O 0.73737 0.99435 0.52271 0.0
O223 O 0.73613 0.95158 0.51859 0.0
O224 O 0.78576 0.03908 0.65433 0.0
O225 O 0.76674 0.05282 0.57135 0.0
O226 O 0.767 0.03944 0.41896 0.0
O227 O 0.81582 0.04782 0.41976 0.0
O228 O 0.82713 0.03212 0.57768 0.0
O229 O 0.82625 0.07435 0.55602 0.0
O230 O 0.79325 0.98115 0.46823 0.0
O231 O 0.79935 0.96659 0.56581 0.0
H232 H 0.80805 0.99453 0.79125 0.0
H233 H 0.81092 1.00534 0.90776 0.0
H234 H 0.70691 0.96189 0.89513 0.0
H235 H 0.70388 0.95111 0.77856 0.0
H236 H 0.74792 0.98742 0.32951 0.0
H237 H 0.73702 0.96945 0.21404 0.0
H238 H 0.81308 0.0633 0.17599 0.0
H239 H 0.82297 0.08157 0.2907 0.0
Sm240 Sm 0.66346 0.56494 0.78477 0.0
Sm241 Sm 0.70716 0.58675 0.9001 0.0
C242 C 0.64145 0.56303 0.66392 0.0
C243 C 0.6521 0.57262 0.59976 0.0
C244 C 0.6839 0.59675 0.59148 0.0
C245 C 0.6935 0.60392 0.52965 0.0
C246 C 0.6716 0.58668 0.47495 0.0
C247 C 0.63978 0.56281 0.48357 0.0
C248 C 0.63014 0.55598 0.5452 0.0
C249 C 0.63103 0.51264 0.85336 0.0
C250 C 0.72684 0.5516 0.79908 0.0
C251 C 0.73584 0.60815 1.01926 0.0
C252 C 0.72563 0.60604 0.08526 0.0
C253 C 0.6981 0.5784 0.10194 0.0
C254 C 0.68936 0.5766 0.16492 0.0
C255 C 0.70772 0.60249 0.21234 0.0
C256 C 0.73473 0.63043 0.1953 0.0
C257 C 0.74365 0.6321 0.13249 0.0
C258 C 0.72862 0.62942 0.80148 0.0
C259 C 0.64217 0.58958 0.91344 0.0
O260 O 0.64606 0.5407 0.6855 0.0
O261 O 0.64681 0.5855 0.70898 0.0
O262 O 0.65851 0.5375 0.87595 0.0
O263 O 0.62073 0.51632 0.79838 0.0
O264 O 0.70785 0.55764 0.76047 0.0
O265 O 0.72651 0.55575 0.86103 0.0
O266 O 0.73174 0.58181 0.98828 0.0
O267 O 0.72857 0.62496 0.9825 0.0
O268 O 0.70096 0.6148 0.82145 0.0
O269 O 0.74684 0.6223 0.83653 0.0
O270 O 0.66376 0.58452 0.94242 0.0
O271 O 0.63823 0.58657 0.84956 0.0
H272 H 0.70142 0.60957 0.63264 0.0
H273 H 0.7182 0.62238 0.52442 0.0
H274 H 0.62247 0.54912 0.44241 0.0
H275 H 0.60555 0.53716 0.55025 0.0
H276 H 0.68351 0.55807 0.06644 0.0
H277 H 0.66838 0.55487 0.17683 0.0
H278 H 0.74924 0.65073 0.23092 0.0
H279 H 0.76489 0.6537 0.12093 0.0
Sm280 Sm 0.44903 0.1002 0.80239 0.0
Sm281 Sm 0.44194 0.12884 0.91631 0.0
C282 C 0.44022 0.06876 0.68728 0.0
C283 C 0.43947 0.07578 0.61954 0.0
C284 C 0.42476 0.09309 0.59895 0.0
C285 C 0.42356 0.09897 0.53463 0.0
C286 C 0.43725 0.08791 0.48956 0.0
C287 C 0.45189 0.07057 0.51004 0.0
C288 C 0.45288 0.06447 0.57436 0.0
C289 C 0.50985 0.13456 0.87087 0.0
C290 C 0.46776 0.17708 0.8125 0.0
C291 C 0.43364 0.14573 0.03323 0.0
C292 C 0.43453 0.13605 0.09896 0.0
C293 C 0.46228 0.1373 0.12865 0.0
C294 C 0.4625 0.12834 0.19092 0.0
C295 C 0.43499 0.11787 0.22472 0.0
C296 C 0.4071 0.1161 0.19478 0.0
C297 C 0.40689 0.1251 0.13263 0.0
C298 C 0.38939 0.1068 0.81793 0.0
C299 C 0.43233 0.05906 0.93236 0.0
O300 O 0.41684 0.06687 0.71882 0.0
O301 O 0.4681 0.08384 0.72217 0.0
O302 O 0.48311 0.11742 0.89535 0.0
O303 O 0.50343 0.13697 0.81146 0.0
O304 O 0.45388 0.14948 0.77446 0.0
O305 O 0.47286 0.17597 0.87403 0.0
O306 O 0.46107 0.16133 1.00749 0.0
O307 O 0.40984 0.12444 0.99218 0.0
O308 O 0.40326 0.09232 0.83831 0.0
O309 O 0.40437 0.13511 0.84968 0.0
O310 O 0.43588 0.08522 0.96196 0.0
O311 O 0.435 0.05737 0.86944 0.0
H312 H 0.41415 0.1021 0.63256 0.0
H313 H 0.41215 0.11239 0.52004 0.0
H314 H 0.46261 0.06182 0.4762 0.0
H315 H 0.46414 0.05091 0.58886 0.0
H316 H 0.48388 0.1453 0.10396 0.0
H317 H 0.48426 0.12987 0.21306 0.0
H318 H 0.38559 0.10807 0.21984 0.0
H319 H 0.38509 0.12367 0.1109 0.0
Sm320 Sm 0.91938 0.36227 0.80996 0.0
Sm321 Sm 0.90115 0.32766 0.8993 0.0
C322 C 0.9327 0.38059 0.69237 0.0
C323 C 0.9262 0.36799 0.62327 0.0
C324 C 0.94725 0.35987 0.59406 0.0
C325 C 0.94265 0.35057 0.52801 0.0
C326 C 0.91703 0.34937 0.48962 0.0
C327 C 0.89582 0.35715 0.51852 0.0
C328 C 0.90034 0.36635 0.58454 0.0
C329 C 0.90741 0.40144 0.88712 0.0
C330 C 0.83977 0.30221 0.81452 0.0
C331 C 0.89685 0.29936 1.00655 0.0
C332 C 0.89918 0.30716 0.07723 0.0
C333 C 0.87471 0.30982 0.10626 0.0
C334 C 0.87704 0.31637 0.17297 0.0
C335 C 0.90383 0.32043 0.21217 0.0
C336 C 0.92824 0.31775 0.18347 0.0
C337 C 0.92593 0.31118 0.11684 0.0
C338 C 0.92183 0.30195 0.797 0.0
C339 C 0.96548 0.39058 0.94928 0.0
O340 O 0.909 0.37996 0.72108 0.0
O341 O 0.95094 0.37423 0.72981 0.0
O342 O 0.88968 0.37015 0.8829 0.0
O343 O 0.93281 0.41094 0.85652 0.0
O344 O 0.86342 0.31883 0.77729 0.0
O345 O 0.8481 0.30615 0.87531 0.0
O346 O 0.87167 0.29571 0.97115 0.0
O347 O 0.92356 0.31442 0.97889 0.0
O348 O 0.93729 0.32917 0.82826 0.0
O349 O 0.89312 0.28745 0.81636 0.0
O350 O 0.93751 0.37006 0.96608 0.0
O351 O 0.96723 0.39073 0.88609 0.0
H352 H 0.96762 0.36115 0.62206 0.0
H353 H 0.95942 0.34486 0.50663 0.0
H354 H 0.87607 0.35662 0.48971 0.0
H355 H 0.88392 0.37284 0.605 0.0
H356 H 0.8537 0.30679 0.07754 0.0
H357 H 0.85794 0.31836 0.19407 0.0
H358 H 0.94912 0.32076 0.21271 0.0
H359 H 0.94513 0.30916 0.09625 0.0
Sm360 Sm 0.70056 0.13839 0.92283 0.0
Sm361 Sm 0.6616 0.10712 0.80324 0.0
C362 C 0.72643 0.15747 0.04405 0.0
C363 C 0.71595 0.14771 0.10837 0.0
C364 C 0.68295 0.1312 0.11927 0.0
C365 C 0.67363 0.12192 0.18033 0.0
C366 C 0.69709 0.12885 0.23167 0.0
C367 C 0.73 0.14502 0.22044 0.0
C368 C 0.7393 0.15433 0.15952 0.0
C369 C 0.72934 0.1173 0.83103 0.0
C370 C 0.64207 0.06629 0.93451 0.0
C371 C 0.64011 0.07531 0.68621 0.0
C372 C 0.64749 0.0824 0.61873 0.0
C373 C 0.67055 0.07673 0.59101 0.0
C374 C 0.67785 0.08344 0.528 0.0
C375 C 0.66216 0.09578 0.49071 0.0
C376 C 0.63879 0.10101 0.51772 0.0
C377 C 0.63149 0.09436 0.58087 0.0
C378 C 0.6338 0.13787 0.86721 0.0
C379 C 0.71813 0.1858 0.81555 0.0
O380 O 0.71278 0.17094 1.0126 0.0
O381 O 0.73008 0.13703 1.00705 0.0
O382 O 0.70129 0.10229 0.84851 0.0
O383 O 0.7444 0.14535 0.8641 0.0
O384 O 0.66509 0.09314 0.96522 0.0
O385 O 0.63589 0.06412 0.87077 0.0
O386 O 0.66272 0.07535 0.72379 0.0
O387 O 0.62539 0.08801 0.71619 0.0
O388 O 0.64619 0.12268 0.89357 0.0
O389 O 0.63912 0.13926 0.80737 0.0
O390 O 0.70457 0.15797 0.77817 0.0
O391 O 0.71402 0.18451 0.87678 0.0
H392 H 0.66438 0.12553 0.08066 0.0
H393 H 0.64811 0.10947 0.18763 0.0
H394 H 0.74855 0.15064 0.25907 0.0
H395 H 0.76484 0.16678 0.15235 0.0
H396 H 0.68314 0.0672 0.61816 0.0
H397 H 0.69594 0.07916 0.50841 0.0
H398 H 0.62632 0.11046 0.48995 0.0
H399 H 0.61341 0.09872 0.60009 0.0
Sm400 Sm 0.90687 0.58823 0.89396 0.0
Sm401 Sm 0.92417 0.56701 0.78994 0.0
C402 C 0.90405 0.61157 1.0102 0.0
C403 C 0.91053 0.60704 0.07753 0.0
C404 C 0.92254 0.58667 0.09211 0.0
C405 C 0.92842 0.58242 0.15584 0.0
C406 C 0.92188 0.59802 0.20642 0.0
C407 C 0.9101 0.6186 0.19189 0.0
C408 C 0.90462 0.62316 0.12805 0.0
C409 C 0.92298 0.63036 0.79383 0.0
C410 C 0.97408 0.59334 0.92205 0.0
C411 C 0.93768 0.55567 0.67235 0.0
C412 C 0.93628 0.56179 0.60381 0.0
C413 C 0.90687 0.55302 0.56785 0.0
C414 C 0.90647 0.55997 0.50401 0.0
C415 C 0.93521 0.57439 0.47338 0.0
C416 C 0.96435 0.5815 0.50837 0.0
C417 C 0.96493 0.57576 0.57301 0.0
C418 C 0.90972 0.52009 0.8725 0.0
C419 C 0.84671 0.55276 0.79858 0.0
O420 O 0.8791 0.58727 0.97629 0.0
O421 O 0.92922 0.62554 0.97771 0.0
O422 O 0.9389 0.6181 0.81571 0.0
O423 O 0.89811 0.62137 0.82619 0.0
O424 O 0.94657 0.58313 0.9455 0.0
O425 O 0.97408 0.59425 0.85888 0.0
O426 O 0.95801 0.57985 0.71342 0.0
O427 O 0.9107 0.53671 0.69636 0.0
O428 O 0.89342 0.53448 0.86463 0.0
O429 O 0.9341 0.53167 0.83873 0.0
O430 O 0.87007 0.55763 0.76085 0.0
O431 O 0.85406 0.55777 0.86026 0.0
H432 H 0.92709 0.57374 0.05437 0.0
H433 H 0.93755 0.56649 0.16572 0.0
H434 H 0.90494 0.63096 0.22999 0.0
H435 H 0.89549 0.63909 0.11812 0.0
H436 H 0.88424 0.54166 0.58955 0.0
H437 H 0.88356 0.55379 0.47817 0.0
H438 H 0.98676 0.59188 0.48583 0.0
H439 H 0.98784 0.58204 0.59892 0.0
Sm440 Sm 0.44422 0.3303 0.91097 0.0
Sm441 Sm 0.45753 0.35897 0.80838 0.0
C442 C 0.42837 0.30045 1.0172 0.0
C443 C 0.42993 0.30955 0.08668 0.0
C444 C 0.42641 0.3357 0.1084 0.0
C445 C 0.42661 0.34317 0.17401 0.0
C446 C 0.43031 0.32468 0.21922 0.0
C447 C 0.43382 0.29859 0.19765 0.0
C448 C 0.43364 0.29111 0.13202 0.0
C449 C 0.391 0.30498 0.81213 0.0
C450 C 0.44244 0.39083 0.943 0.0
C451 C 0.45299 0.382 0.69827 0.0
C452 C 0.44599 0.3708 0.62879 0.0
C453 C 0.45834 0.35242 0.60119 0.0
C454 C 0.4538 0.34426 0.5348 0.0
C455 C 0.43664 0.35408 0.49469 0.0
C456 C 0.42334 0.37151 0.52233 0.0
C457 C 0.428 0.3798 0.58882 0.0
C458 C 0.51732 0.3905 0.87723 0.0
C459 C 0.46874 0.29677 0.8147 0.0
O460 O 0.4557 0.30873 0.99278 0.0
O461 O 0.40837 0.30439 0.97942 0.0
O462 O 0.41845 0.30835 0.80923 0.0
O463 O 0.39181 0.3191 0.86727 0.0
O464 O 0.45395 0.37474 0.96932 0.0
O465 O 0.43765 0.3864 0.87869 0.0
O466 O 0.42909 0.36867 0.7339 0.0
O467 O 0.4801 0.38656 0.72655 0.0
O468 O 0.49047 0.38194 0.90213 0.0
O469 O 0.51155 0.37735 0.81901 0.0
O470 O 0.46103 0.31286 0.77491 0.0
O471 O 0.46974 0.30382 0.87605 0.0
H472 H 0.42322 0.35021 0.07469 0.0
H473 H 0.42381 0.36334 0.18958 0.0
H474 H 0.43678 0.28406 0.2317 0.0
H475 H 0.43619 0.27076 0.1166 0.0
H476 H 0.47207 0.3449 0.63079 0.0
H477 H 0.4642 0.33076 0.5145 0.0
H478 H 0.40998 0.37929 0.49232 0.0
H479 H 0.41815 0.39384 0.60896 0.0
Sm480 Sm 0.36882 0.92357 0.2518 0.0
Sm481 Sm 0.33062 0.89531 0.13451 0.0
C482 C 0.39167 0.95362 0.37024 0.0
C483 C 0.3841 0.9469 0.43765 0.0
C484 C 0.36805 0.96046 0.46973 0.0
C485 C 0.36059 0.95451 0.53288 0.0
C486 C 0.36899 0.93485 0.56577 0.0
C487 C 0.38536 0.92155 0.53428 0.0
C488 C 0.39288 0.92753 0.47102 0.0
C489 C 0.39687 0.89386 0.18542 0.0
C490 C 0.31008 0.84553 0.23085 0.0
C491 C 0.30326 0.87942 1.01411 0.0
C492 C 0.31388 0.88833 0.94949 0.0
C493 C 0.3454 0.89705 0.93481 0.0
C494 C 0.35485 0.90535 0.87339 0.0
C495 C 0.33307 0.90531 0.82553 0.0
C496 C 0.30178 0.89713 0.84064 0.0
C497 C 0.29232 0.88873 0.90189 0.0
C498 C 0.30181 0.91516 0.2298 0.0
C499 C 0.38957 0.96598 0.12329 0.0
O500 O 0.37026 0.95587 0.33349 0.0
O501 O 0.40425 0.93896 0.33936 0.0
O502 O 0.38496 0.90979 0.16061 0.0
O503 O 0.39048 0.89077 0.24452 0.0
O504 O 0.32378 0.87255 0.27082 0.0
O505 O 0.3191 0.84803 0.17303 0.0
O506 O 0.3135 0.86258 0.04374 0.0
O507 O 0.30363 0.90189 0.05258 0.0
O508 O 0.32969 0.93082 0.21179 0.0
O509 O 0.28702 0.88772 0.19538 0.0
O510 O 0.36911 0.93825 0.09194 0.0
O511 O 0.394 0.9682 0.18736 0.0
H512 H 0.36094 0.9755 0.44572 0.0
H513 H 0.34792 0.96501 0.55591 0.0
H514 H 0.39212 0.90632 0.55863 0.0
H515 H 0.4054 0.91682 0.44824 0.0
H516 H 0.36268 0.89734 0.97073 0.0
H517 H 0.37911 0.91164 0.86305 0.0
H518 H 0.28459 0.89702 0.80475 0.0
H519 H 0.26802 0.88242 0.91207 0.0
Sm520 Sm 0.12473 0.43684 0.1603 0.0
Sm521 Sm 0.11778 0.4656 0.27277 0.0
C522 C 0.1134 0.40559 0.04397 0.0
C523 C 0.11509 0.41233 0.97567 0.0
C524 C 0.08685 0.39515 0.93267 0.0
C525 C 0.08689 0.40189 0.86874 0.0
C526 C 0.11528 0.42583 0.84602 0.0
C527 C 0.14374 0.44272 0.88862 0.0
C528 C 0.14364 0.43615 0.95289 0.0
C529 C 0.18471 0.46742 0.2305 0.0
C530 C 0.1524 0.51655 0.17717 0.0
C531 C 0.11003 0.48359 0.38942 0.0
C532 C 0.11112 0.47432 0.45538 0.0
C533 C 0.13527 0.46807 0.47917 0.0
C534 C 0.1359 0.45961 0.54183 0.0
C535 C 0.11227 0.45697 0.58178 0.0
C536 C 0.08787 0.46269 0.55759 0.0
C537 C 0.08735 0.47133 0.49516 0.0
C538 C 0.06877 0.4485 0.16979 0.0
C539 C 0.10259 0.39381 0.28854 0.0
O540 O 0.09173 0.40875 0.07298 0.0
O541 O 0.14025 0.41597 0.08118 0.0
O542 O 0.15746 0.4515 0.25437 0.0
O543 O 0.17949 0.47041 0.17081 0.0
O544 O 0.13751 0.48981 0.13623 0.0
O545 O 0.15396 0.51294 0.23817 0.0
O546 O 0.13742 0.49834 0.36341 0.0
O547 O 0.08595 0.46239 0.34876 0.0
O548 O 0.07927 0.4315 0.19187 0.0
O549 O 0.08432 0.47651 0.20277 0.0
O550 O 0.10637 0.42014 0.31781 0.0
O551 O 0.10742 0.39286 0.22644 0.0
H552 H 0.06448 0.37674 0.94888 0.0
H553 H 0.06463 0.38861 0.83707 0.0
H554 H 0.16592 0.46134 0.87227 0.0
H555 H 0.16574 0.44995 0.9848 0.0
H556 H 0.15371 0.46981 0.44947 0.0
H557 H 0.15491 0.45526 0.55929 0.0
H558 H 0.06935 0.46074 0.58734 0.0
H559 H 0.06837 0.47579 0.47794 0.0
Sm560 Sm 0.57532 0.66774 0.24474 0.0
Sm561 Sm 0.58827 0.69966 0.14012 0.0
C562 C 0.57613 0.64158 0.35287 0.0
C563 C 0.58094 0.64964 0.42291 0.0
C564 C 0.6065 0.67937 0.45205 0.0
C565 C 0.61047 0.68631 0.51862 0.0
C566 C 0.58872 0.66381 0.55689 0.0
C567 C 0.56331 0.63411 0.52782 0.0
C568 C 0.55956 0.62704 0.46138 0.0
C569 C 0.51662 0.63853 0.1695 0.0
C570 C 0.56301 0.72916 0.23464 0.0
C571 C 0.60087 0.7248 1.02904 0.0
C572 C 0.59951 0.71393 0.96106 0.0
C573 C 0.57031 0.68989 0.92669 0.0
C574 C 0.56948 0.68084 0.86185 0.0
C575 C 0.59782 0.69547 0.83054 0.0
C576 C 0.62713 0.7189 0.86498 0.0
C577 C 0.62794 0.72811 0.92971 0.0
C578 C 0.63985 0.72956 0.24431 0.0
C579 C 0.59356 0.63829 0.1125 0.0
O580 O 0.60121 0.65671 0.32111 0.0
O581 O 0.54989 0.63811 0.32307 0.0
O582 O 0.54426 0.64712 0.1488 0.0
O583 O 0.52147 0.65152 0.22765 0.0
O584 O 0.5773 0.71805 0.27371 0.0
O585 O 0.55326 0.71414 0.17718 0.0
O586 O 0.57335 0.7154 0.05361 0.0
O587 O 0.62271 0.72442 0.06841 0.0
O588 O 0.62433 0.70082 0.22018 0.0
O589 O 0.62871 0.74428 0.21154 0.0
O590 O 0.59038 0.65989 0.08484 0.0
O591 O 0.59063 0.63667 0.17534 0.0
H592 H 0.62318 0.69732 0.42345 0.0
H593 H 0.63014 0.70943 0.54024 0.0
H594 H 0.54623 0.61655 0.55659 0.0
H595 H 0.53976 0.60396 0.43989 0.0
H596 H 0.54804 0.67833 0.94957 0.0
H597 H 0.54666 0.66276 0.8358 0.0
H598 H 0.6492 0.73048 0.8414 0.0
H599 H 0.65074 0.74662 0.95517 0.0
Sm600 Sm 0.3693 0.45809 0.25636 0.0
Sm601 Sm 0.32982 0.44011 0.14137 0.0
C602 C 0.39424 0.46969 0.37817 0.0
C603 C 0.38188 0.45995 0.44195 0.0
C604 C 0.36397 0.472 0.47183 0.0
C605 C 0.35362 0.46374 0.53271 0.0
C606 C 0.36088 0.44325 0.56556 0.0
C607 C 0.37827 0.43073 0.53554 0.0
C608 C 0.38872 0.43905 0.47466 0.0
C609 C 0.39585 0.44138 0.15122 0.0
C610 C 0.30734 0.38898 0.25878 0.0
C611 C 0.2981 0.41692 1.02337 0.0
C612 C 0.30515 0.41884 0.95462 0.0
C613 C 0.29909 0.39116 0.91591 0.0
C614 C 0.30708 0.39305 0.85223 0.0
C615 C 0.32111 0.42265 0.82548 0.0
C616 C 0.3264 0.45012 0.86353 0.0
C617 C 0.31845 0.44827 0.92705 0.0
C618 C 0.30714 0.46908 0.22507 0.0
C619 C 0.395 0.51397 0.17183 0.0
O620 O 0.38676 0.48882 0.34962 0.0
O621 O 0.39351 0.44762 0.33777 0.0
O622 O 0.36697 0.42665 0.16502 0.0
O623 O 0.41241 0.46496 0.19561 0.0
O624 O 0.33499 0.41036 0.28912 0.0
O625 O 0.29859 0.39402 0.20066 0.0
O626 O 0.30757 0.40124 0.05862 0.0
O627 O 0.3023 0.44288 0.05529 0.0
O628 O 0.31621 0.44917 0.23921 0.0
O629 O 0.31545 0.47763 0.16885 0.0
O630 O 0.37935 0.48898 0.12715 0.0
O631 O 0.38606 0.50892 0.22951 0.0
H632 H 0.35814 0.48812 0.44851 0.0
H633 H 0.34022 0.47369 0.55463 0.0
H634 H 0.38408 0.41479 0.55962 0.0
H635 H 0.40248 0.42935 0.45339 0.0
H636 H 0.28862 0.36811 0.93527 0.0
H637 H 0.30272 0.37147 0.8241 0.0
H638 H 0.33711 0.47321 0.8442 0.0
H639 H 0.32342 0.47013 0.95491 0.0
Sm640 Sm 0.58982 0.90434 0.13975 0.0
Sm641 Sm 0.58002 0.92899 0.25346 0.0
C642 C 0.60139 0.88953 1.02413 0.0
C643 C 0.60012 0.89808 0.95788 0.0
C644 C 0.57387 0.9003 0.93082 0.0
C645 C 0.57338 0.90839 0.86794 0.0
C646 C 0.59917 0.91457 0.83124 0.0
C647 C 0.62562 0.91291 0.85864 0.0
C648 C 0.62608 0.90475 0.92137 0.0
C649 C 0.64168 0.9266 0.24178 0.0
C650 C 0.59771 0.9725 0.12494 0.0
C651 C 0.58596 0.95877 0.36898 0.0
C652 C 0.58871 0.95277 0.43655 0.0
C653 C 0.60335 0.93514 0.4552 0.0
C654 C 0.60609 0.92994 0.51952 0.0
C655 C 0.59407 0.9421 0.56617 0.0
C656 C 0.57967 0.95991 0.54759 0.0
C657 C 0.57709 0.96525 0.4833 0.0
C658 C 0.52052 0.89686 0.18058 0.0
C659 C 0.56411 0.85308 0.23285 0.0
O660 O 0.5739 0.87206 0.04847 0.0
O661 O 0.62356 0.91245 0.06534 0.0
O662 O 0.62698 0.94029 0.2219 0.0
O663 O 0.62968 0.9002 0.20479 0.0
O664 O 0.59116 0.94561 0.09366 0.0
O665 O 0.59658 0.9738 0.18867 0.0
O666 O 0.61024 0.96396 0.33682 0.0
O667 O 0.55816 0.94035 0.33525 0.0
O668 O 0.54787 0.91504 0.15907 0.0
O669 O 0.52572 0.89192 0.23879 0.0
O670 O 0.57897 0.87977 0.27405 0.0
O671 O 0.55486 0.85634 0.17555 0.0
H672 H 0.55373 0.8957 0.95811 0.0
H673 H 0.55279 0.90962 0.84768 0.0
H674 H 0.64576 0.91764 0.83121 0.0
H675 H 0.64673 0.90353 0.94137 0.0
H676 H 0.6126 0.92533 0.42005 0.0
H677 H 0.61728 0.91616 0.53286 0.0
H678 H 0.57025 0.96947 0.58283 0.0
H679 H 0.56592 0.97907 0.47002 0.0
Sm680 Sm 0.11485 0.66235 0.26348 0.0
Sm681 Sm 0.13348 0.69263 0.16295 0.0
C682 C 0.09654 0.63125 0.3675 0.0
C683 C 0.10073 0.63928 0.43808 0.0
C684 C 0.10713 0.62055 0.47837 0.0
C685 C 0.11088 0.62732 0.54506 0.0
C686 C 0.10821 0.65295 0.57307 0.0
C687 C 0.1017 0.67174 0.53299 0.0
C688 C 0.09807 0.66503 0.46607 0.0
C689 C 0.06624 0.63774 0.1551 0.0
C690 C 0.11264 0.72309 0.29149 0.0
C691 C 0.13484 0.71729 0.0519 0.0
C692 C 0.12964 0.70608 0.98251 0.0
C693 C 0.1031 0.67635 0.95673 0.0
C694 C 0.09957 0.66569 0.89161 0.0
C695 C 0.1238 0.68319 0.85058 0.0
C696 C 0.14801 0.71483 0.87597 0.0
C697 C 0.15137 0.72568 0.94087 0.0
C698 C 0.18969 0.7229 0.24464 0.0
C699 C 0.14661 0.63223 0.17632 0.0
O700 O 0.1221 0.6357 0.34002 0.0
O701 O 0.07878 0.63961 0.33357 0.0
O702 O 0.0942 0.64195 0.15803 0.0
O703 O 0.06374 0.64973 0.20996 0.0
O704 O 0.12314 0.70683 0.32073 0.0
O705 O 0.11006 0.71893 0.22711 0.0
O706 O 0.10965 0.70501 0.08455 0.0
O707 O 0.16048 0.72028 0.08382 0.0
O708 O 0.16128 0.71429 0.26147 0.0
O709 O 0.18688 0.70981 0.18746 0.0
O710 O 0.1404 0.64822 0.13377 0.0
O711 O 0.14337 0.63789 0.23623 0.0
H712 H 0.10923 0.60058 0.45818 0.0
H713 H 0.11593 0.61255 0.57498 0.0
H714 H 0.09962 0.69167 0.55348 0.0
H715 H 0.09321 0.67999 0.43633 0.0
H716 H 0.08489 0.66125 0.98677 0.0
H717 H 0.07719 0.64397 0.87485 0.0
H718 H 0.16466 0.73185 0.84606 0.0
H719 H 0.17113 0.74954 0.95856 0.0
C720 C 0.0589 0.3527 0.34955 0.0
C721 C 0.0906 0.36557 0.32928 0.0
C722 C 0.10221 0.33677 0.41196 0.0
C723 C 0.07139 0.3261 0.43534 0.0
N724 N 0.02241 0.32842 0.43174 0.0
N725 N 0.14405 0.37314 0.34787 0.0
C726 C 0.05047 0.33556 0.40559 0.0
C727 C 0.11266 0.35838 0.36236 0.0
N728 N 0.03641 0.35633 0.31388 0.0
N729 N 0.12138 0.32576 0.43651 0.0
H730 H 0.15199 0.38796 0.31088 0.0
H731 H 0.16247 0.37211 0.37439 0.0
H732 H 0.11532 0.31169 0.47483 0.0
H733 H 0.14227 0.32919 0.41709 0.0
H734 H 1.01196 0.34503 0.32139 0.0
H735 H 0.04165 0.36823 0.2725 0.0
H736 H 1.00736 0.33704 0.41691 0.0
H737 H 0.01572 0.31624 0.47262 0.0
C738 C 0.68764 0.77931 0.40922 0.0
C739 C 0.70099 0.76059 0.43233 0.0
C740 C 0.67765 0.7252 0.32996 0.0
C741 C 0.66218 0.74206 0.30804 0.0
N742 N 0.6475 0.78207 0.33851 0.0
N743 N 0.69309 0.70688 0.42256 0.0
C744 C 0.66598 0.76838 0.35068 0.0
C745 C 0.69137 0.73095 0.39509 0.0
N746 N 0.69462 0.80736 0.44332 0.0
N747 N 0.68058 0.70426 0.28825 0.0
H748 H 0.69789 0.70754 0.4717 0.0
H749 H 0.68479 0.68434 0.39805 0.0
H750 H 0.67428 0.70175 0.23921 0.0
H751 H 0.69364 0.69314 0.30106 0.0
H752 H 0.69113 0.82482 0.42354 0.0
H753 H 0.704 0.81362 0.49101 0.0
H754 H 0.64573 0.7978 0.37184 0.0
H755 H 0.63142 0.7759 0.29808 0.0
C756 C 0.27777 0.9326 0.39546 0.0
C757 C 0.2664 0.9542 0.38181 0.0
C758 C 0.27925 0.95032 0.26948 0.0
C759 C 0.28809 0.92716 0.28161 0.0
N760 N 0.281 0.88677 0.35145 0.0
N761 N 0.23974 0.96494 0.29225 0.0
C762 C 0.28318 0.91552 0.34333 0.0
C763 C 0.2625 0.95797 0.31497 0.0
N764 N 0.28293 0.92736 0.45686 0.0
N765 N 0.28498 0.96399 0.21314 0.0
H766 H 0.2221 0.96451 0.31947 0.0
H767 H 0.23464 0.96517 0.24348 0.0
H768 H 0.29569 0.95803 0.17708 0.0
H769 H 0.28099 0.98289 0.20485 0.0
H770 H 0.29411 0.91428 0.46828 0.0
H771 H 0.27797 0.93721 0.49669 0.0
H772 H 0.27551 0.87601 0.39405 0.0
H773 H 0.2788 0.87134 0.31246 0.0
C774 C 0.33878 0.05618 0.66031 0.0
C775 C 0.3303 0.07685 0.62956 0.0
C776 C 0.35793 0.11696 0.72546 0.0
C777 C 0.36552 0.09567 0.75672 0.0
N778 N 0.34907 0.03969 0.76101 0.0
N779 N 0.34465 0.13217 0.62507 0.0
C780 C 0.35192 0.06379 0.7261 0.0
C781 C 0.34339 0.10871 0.66012 0.0
N782 N 0.33722 0.03054 0.62565 0.0
N783 N 0.36197 0.14396 0.75929 0.0
H784 H 0.33818 0.12832 0.57589 0.0
H785 H 0.35626 0.1564 0.64247 0.0
H786 H 0.36843 0.14909 0.80837 0.0
H787 H 0.35414 0.15876 0.74099 0.0
H788 H 0.34586 0.01649 0.64466 0.0
H789 H 0.3322 0.02635 0.57608 0.0
H790 H 0.3368 0.01556 0.74241 0.0
H791 H 0.35443 0.04304 0.81052 0.0
C792 C 0.9593 0.28299 0.75531 0.0
C793 C 0.93421 0.28992 0.74213 0.0
C794 C 0.93442 0.27544 0.62567 0.0
C795 C 0.95789 0.26623 0.63999 0.0
N796 N 0.98599 0.25431 0.7223 0.0
N797 N 0.89861 0.29398 0.66306 0.0
C798 C 0.96867 0.26848 0.70575 0.0
C799 C 0.92179 0.28616 0.67667 0.0
N800 N 0.97506 0.29086 0.81553 0.0
N801 N 0.92503 0.27502 0.56288 0.0
H802 H 0.89247 0.30587 0.69731 0.0
H803 H 0.88536 0.28883 0.61874 0.0
H804 H 0.93417 0.26813 0.52513 0.0
H805 H 0.90947 0.28284 0.54739 0.0
H806 H 0.99662 0.29093 0.82564 0.0
H807 H 0.96823 0.29985 0.85417 0.0
H808 H 0.98888 0.24952 0.76909 0.0
H809 H 0.99411 0.2442 0.68858 0.0
C810 C 0.77535 0.68276 0.66517 0.0
C811 C 0.75368 0.69271 0.64186 0.0
C812 C 0.71907 0.66569 0.72799 0.0
C813 C 0.73848 0.65222 0.74742 0.0
N814 N 0.78385 0.64535 0.72345 0.0
N815 N 0.70056 0.686 0.6422 0.0
C816 C 0.76622 0.65998 0.71273 0.0
C817 C 0.72408 0.68135 0.67025 0.0
N818 N 0.80548 0.69618 0.6442 0.0
N819 N 0.69745 0.66621 0.76702 0.0
H820 H 0.70312 0.69669 0.59952 0.0
H821 H 0.67748 0.67627 0.65745 0.0
H822 H 0.69579 0.65946 0.81335 0.0
H823 H 0.68467 0.67796 0.75747 0.0
H824 H 0.82415 0.69361 0.6652 0.0
H825 H 0.81247 0.71184 0.60855 0.0
H826 H 0.8017 0.64734 0.69486 0.0
H827 H 0.7791 0.62894 0.75679 0.0
C828 C 0.94119 0.66511 0.62757 0.0
C829 C 0.95419 0.69851 0.64379 0.0
C830 C 0.94425 0.68728 0.75776 0.0
C831 C 0.93283 0.65396 0.74185 0.0
N832 N 0.91134 0.61075 0.65736 0.0
N833 N 0.96002 0.74004 0.7217 0.0
C834 C 0.92875 0.64289 0.67557 0.0
C835 C 0.95312 0.70905 0.7083 0.0
N836 N 0.94206 0.65446 0.56661 0.0
N837 N 0.94707 0.69824 0.82056 0.0
H838 H 0.96522 0.75581 0.68645 0.0
H839 H 0.95806 0.74956 0.76571 0.0
H840 H 0.94103 0.68322 0.85731 0.0
H841 H 0.95656 0.72224 0.83734 0.0
H842 H 0.93629 0.63094 0.55314 0.0
H843 H 0.94989 0.66964 0.53018 0.0
H844 H 0.90064 0.60163 0.61077 0.0
H845 H 0.90476 0.59369 0.68987 0.0
C846 C 0.33825 0.25123 0.65984 0.0
C847 C 0.32699 0.27029 0.6305 0.0
C848 C 0.35485 0.31145 0.72507 0.0
C849 C 0.36513 0.29186 0.75466 0.0
N850 N 0.35808 0.23913 0.75718 0.0
N851 N 0.33745 0.32463 0.62663 0.0
C852 C 0.35435 0.26067 0.72379 0.0
C853 C 0.33856 0.30201 0.66108 0.0
N854 N 0.33683 0.22576 0.62469 0.0
N855 N 0.36005 0.33902 0.75838 0.0
H856 H 0.33055 0.32067 0.57763 0.0
H857 H 0.34807 0.34881 0.64385 0.0
H858 H 0.37215 0.34692 0.80418 0.0
H859 H 0.34971 0.35231 0.74323 0.0
H860 H 0.34706 0.21267 0.64165 0.0
H861 H 0.33013 0.22067 0.57565 0.0
H862 H 0.34729 0.21479 0.7411 0.0
H863 H 0.36918 0.24493 0.80401 0.0
C864 C 0.75765 0.11953 0.72745 0.0
C865 C 0.74265 0.10339 0.78147 0.0
C866 C 0.75635 0.06233 0.74719 0.0
C867 C 0.76465 0.07413 0.68573 0.0
N868 N 0.77185 0.11591 0.61912 0.0
N869 N 0.72309 0.05463 0.83372 0.0
C870 C 0.76446 0.1031 0.67608 0.0
C871 C 0.73971 0.07294 0.78714 0.0
N872 N 0.7669 0.15111 0.72597 0.0
N873 N 0.76762 0.04407 0.77288 0.0
H874 H 0.71538 0.06311 0.87144 0.0
H875 H 0.71603 0.03031 0.83254 0.0
H876 H 0.78773 0.04348 0.75888 0.0
H877 H 0.76247 0.03585 0.81773 0.0
H878 H 0.78133 0.16516 0.69217 0.0
H879 H 0.76335 0.16405 0.76267 0.0
H880 H 0.768 0.13439 0.6066 0.0
H881 H 0.78055 0.10733 0.58342 0.0
C882 C 0.67929 0.96817 0.33479 0.0
C883 C 0.66236 0.93552 0.30689 0.0
C884 C 0.68184 0.92167 0.40666 0.0
C885 C 0.69768 0.95435 0.43445 0.0
N886 N 0.69594 1.00352 0.43291 0.0
N887 N 0.64401 0.87983 0.32505 0.0
C888 C 0.69179 0.97605 0.40102 0.0
C889 C 0.66288 0.91194 0.34504 0.0
N890 N 0.68496 0.99239 0.29762 0.0
N891 N 0.68379 0.89918 0.44001 0.0
H892 H 0.632 0.8705 0.2798 0.0
H893 H 0.63863 0.8617 0.3549 0.0
H894 H 0.68983 0.90251 0.48927 0.0
H895 H 0.67892 0.87692 0.41899 0.0
H896 H 0.69961 0.01666 0.31455 0.0
H897 H 0.67884 0.98848 0.24826 0.0
H898 H 0.6895 0.01873 0.41154 0.0
H899 H 0.7008 1.00845 0.48243 0.0
C900 C 0.06286 0.75702 0.37181 0.0
C901 C 0.07771 0.76575 0.43631 0.0
C902 C 0.12132 0.75802 0.39533 0.0
C903 C 0.1028 0.74296 0.33473 0.0
N904 N 0.05202 0.72463 0.27128 0.0
N905 N 0.12083 0.77013 0.50901 0.0
C906 C 0.07261 0.74168 0.32457 0.0
C907 C 0.10705 0.76524 0.44775 0.0
N908 N 0.04092 0.76555 0.35319 0.0
N909 N 0.15317 0.76632 0.40255 0.0
H910 H 0.1109 0.77439 0.54861 0.0
H911 H 0.14017 0.76663 0.52087 0.0
H912 H 0.16485 0.76318 0.36476 0.0
H913 H 0.16877 0.77975 0.44325 0.0
H914 H 0.03416 0.76496 0.30497 0.0
H915 H 0.03325 0.77704 0.38476 0.0
H916 H 0.02819 0.71986 0.26563 0.0
H917 H 0.05786 0.71334 0.2353 0.0
C918 C 0.30389 0.34336 0.31594 0.0
C919 C 0.28806 0.36008 0.29577 0.0
C920 C 0.25027 0.3357 0.37938 0.0
C921 C 0.26874 0.32231 0.40412 0.0
N922 N 0.3163 0.31766 0.40008 0.0
N923 N 0.24776 0.37461 0.31372 0.0
C924 C 0.2964 0.32737 0.37328 0.0
C925 C 0.26148 0.35669 0.3288 0.0
N926 N 0.3263 0.3427 0.27945 0.0
N927 N 0.22166 0.32796 0.40353 0.0
H928 H 0.25457 0.389 0.27595 0.0
H929 H 0.23096 0.3764 0.34033 0.0
H930 H 0.21369 0.31403 0.44187 0.0
H931 H 0.20514 0.33377 0.3834 0.0
H932 H 0.33655 0.32846 0.28702 0.0
H933 H 0.33204 0.3539 0.23726 0.0
H934 H 0.33866 0.32357 0.38435 0.0
H935 H 0.312 0.30645 0.44226 0.0
C936 C 0.02652 0.43022 0.99608 0.0
C937 C 0.99287 0.41028 1.00435 0.0
C938 C 1.00966 0.41511 0.1212 0.0
C939 C 0.04239 0.43723 0.11361 0.0
N940 N 0.07779 0.47478 0.04497 0.0
N941 N 0.95483 0.39937 0.0855 0.0
C942 C 0.04963 0.44735 0.05131 0.0
C943 C 0.98504 0.40709 0.06994 0.0
N944 N 0.0372 0.43329 0.93674 0.0
N945 N 1.00141 0.40243 0.17813 0.0
H946 H 0.93681 0.39832 0.05389 0.0
H947 H 0.94957 0.39972 0.13273 0.0
H948 H 0.01822 0.40883 0.21795 0.0
H949 H 0.97813 0.38377 0.18366 0.0
H950 H 0.06182 0.44483 0.93012 0.0
H951 H 0.02215 0.42264 0.89448 0.0
H952 H 0.08356 0.48474 1.00161 0.0
H953 H 0.09198 0.48993 0.08523 0.0
C954 C 0.59326 0.58602 0.96664 0.0
C955 C 0.62688 0.60287 0.95804 0.0
C956 C 0.63777 0.63484 0.06246 0.0
C957 C 0.60422 0.61973 0.06993 0.0
N958 N 0.54933 0.58326 1.02496 0.0
N959 N 0.67897 0.65019 0.98884 0.0
C960 C 0.58175 0.59588 1.02065 0.0
C961 C 0.64842 0.62921 1.00361 0.0
N962 N 0.57241 0.56055 0.92361 0.0
N963 N 0.65973 0.65501 0.11192 0.0
H964 H 0.68718 0.64772 0.94511 0.0
H965 H 0.69434 0.67204 1.01613 0.0
H966 H 0.65257 0.65924 0.15558 0.0
H967 H 0.68468 0.66456 0.11196 0.0
H968 H 0.54814 0.545 0.92978 0.0
H969 H 0.58003 0.55415 0.88266 0.0
H970 H 0.53143 0.56854 0.98827 0.0
H971 H 0.54047 0.58866 0.0652 0.0
C972 C 0.44638 0.03224 1.01967 0.0
C973 C 0.42287 0.03163 0.97378 0.0
C974 C 0.37995 0.99576 0.03866 0.0
C975 C 0.40295 0.9937 0.08139 0.0
N976 N 0.45821 1.00766 0.10752 0.0
N977 N 0.36683 1.00814 0.93464 0.0
C978 C 0.43628 0.01142 0.07054 0.0
C979 C 0.38954 0.01176 0.98182 0.0
N980 N 0.4785 0.05329 1.01529 0.0
N981 N 0.34874 0.9831 0.05383 0.0
H982 H 0.37314 0.01968 0.89298 0.0
H983 H 0.34219 0.99134 0.93364 0.0
H984 H 0.34128 0.97281 0.09648 0.0
H985 H 0.33118 0.9857 1.02789 0.0
H986 H 0.49683 0.0579 0.05065 0.0
H987 H 0.48661 0.06726 0.97702 0.0
H988 H 0.4822 0.01669 0.09799 0.0
H989 H 0.4517 0.99403 0.14637 0.0
C990 C 0.64168 0.02128 0.99011 0.0
C991 C 0.6259 0.03876 0.97624 0.0
C992 C 0.59295 0.01605 0.06762 0.0
C993 C 0.6107 1.00072 0.08426 0.0
N994 N 0.6567 0.99459 0.06808 0.0
N995 N 0.58973 0.05664 1.009 0.0
C996 C 0.63654 1.00527 0.04733 0.0
C997 C 0.60245 0.03722 1.01725 0.0
N998 N 0.6617 0.01992 0.94796 0.0
N999 N 0.56633 1.00958 0.09844 0.0
H1000 H 0.59507 0.07119 0.97152 0.0
H1001 H 0.57542 0.05959 0.04105 0.0
H1002 H 0.5597 0.99531 0.13643 0.0
H1003 H 0.55004 0.01685 0.08417 0.0
H1004 H 0.67206 1.00553 0.95137 0.0
H1005 H 0.66503 0.03065 0.90533 0.0
H1006 H 0.67711 0.99843 0.0462 0.0
H1007 H 0.65469 0.98436 0.11117 0.0
C1008 C 0.03235 0.64675 0.06704 0.0
C1009 C 0.04337 0.62676 0.09285 0.0
C1010 C 1.01385 0.58685 0.99696 0.0
C1011 C 1.00371 0.60726 0.97096 0.0
N1012 N 1.00853 0.65921 0.97534 0.0
N1013 N 0.04647 0.57847 0.07819 0.0
C1014 C 0.0146 0.63795 1.00452 0.0
C1015 C 0.03486 0.59717 0.05605 0.0
N1016 N 0.03866 0.67429 0.10226 0.0
N1017 N 1.00221 0.55685 0.96608 0.0
H1018 H 0.05905 0.58322 0.12331 0.0
H1019 H 0.04483 0.55886 0.05118 0.0
H1020 H 0.98868 0.54962 0.92142 0.0
H1021 H 1.00467 0.53872 0.9852 0.0
H1022 H 0.02781 0.68765 0.09105 0.0
H1023 H 0.05371 0.68314 0.14484 0.0
H1024 H 0.01826 0.6832 0.99299 0.0
H1025 H 0.99611 0.65357 0.92974 0.0
C1026 C 0.39534 0.42581 0.03067 0.0
C1027 C 0.40938 0.43133 0.09527 0.0
C1028 C 0.45166 0.42255 0.05157 0.0
C1029 C 0.43364 0.41041 0.98956 0.0
N1030 N 0.38502 0.39845 0.92442 0.0
N1031 N 0.45016 0.43047 0.16621 0.0
C1032 C 0.40473 0.4117 0.98024 0.0
C1033 C 0.43748 0.42864 0.10526 0.0
N1034 N 0.3745 0.4362 1.01546 0.0
N1035 N 0.48302 0.42929 0.05924 0.0
H1036 H 0.44019 0.43386 0.20664 0.0
H1037 H 0.46842 0.42521 0.17652 0.0
H1038 H 0.49496 0.42693 1.02131 0.0
H1039 H 0.49827 0.44089 0.10127 0.0
H1040 H 0.36889 0.43852 0.96824 0.0
H1041 H 0.36636 0.44604 0.0496 0.0
H1042 H 0.36167 0.39491 0.91912 0.0
H1043 H 0.39102 0.38942 0.88487 0.0
C1044 C 0.10735 0.23603 0.4392 0.0
C1045 C 0.08757 0.2225 0.48968 0.0
C1046 C 0.12679 0.20721 0.53259 0.0
C1047 C 0.14799 0.22327 0.48527 0.0
N1048 N 0.15495 0.24597 0.3851 0.0
N1049 N 0.07393 0.18745 0.57329 0.0
C1050 C 0.13683 0.23514 0.43554 0.0
C1051 C 0.09577 0.20529 0.53229 0.0
N1052 N 0.09835 0.25085 0.39607 0.0
N1053 N 0.13726 0.19573 0.58057 0.0
H1054 H 0.05138 0.18576 0.57391 0.0
H1055 H 0.07667 0.17205 0.60221 0.0
H1056 H 0.15879 0.19532 0.58085 0.0
H1057 H 0.12537 0.18773 0.62134 0.0
H1058 H 0.11276 0.26445 0.36189 0.0
H1059 H 0.07607 0.24985 0.39554 0.0
H1060 H 0.14808 0.25347 0.34485 0.0
H1061 H 0.17613 0.24506 0.38153 0.0
C1062 C 0.78081 0.90768 0.44117 0.0
C1063 C 0.8057 0.93575 0.47936 0.0
C1064 C 0.83364 0.90523 0.50317 0.0
C1065 C 0.80646 0.87601 0.47353 0.0
N1066 N 0.76028 0.85266 0.39392 0.0
N1067 N 0.85786 0.96219 0.54055 0.0
C1068 C 0.78197 0.87824 0.43598 0.0
C1069 C 0.83295 0.93476 0.5075 0.0
N1070 N 0.75486 0.90844 0.413 0.0
N1071 N 0.86084 0.90478 0.52491 0.0
H1072 H 0.85933 0.98448 0.53993 0.0
H1073 H 0.87663 0.96306 0.56959 0.0
H1074 H 0.86254 0.88407 0.51903 0.0
H1075 H 0.88267 0.92507 0.54316 0.0
H1076 H 0.73373 0.88815 0.39192 0.0
H1077 H 0.75395 0.92951 0.41248 0.0
H1078 H 0.74402 0.85352 0.36032 0.0
H1079 H 0.76053 0.8313 0.38753 0.0
C1080 C 0.1133 0.87944 0.4392 0.0
C1081 C 0.08979 0.87879 0.47909 0.0
C1082 C 0.12842 0.93712 0.51396 0.0
C1083 C 0.15181 0.93769 0.47413 0.0
N1084 N 0.16219 0.91106 0.38672 0.0
N1085 N 0.07214 0.91035 0.53848 0.0
C1086 C 0.14255 0.90936 0.43269 0.0
C1087 C 0.09656 0.90877 0.51121 0.0
N1088 N 0.10922 0.85133 0.41069 0.0
N1089 N 0.13705 0.96283 0.55766 0.0
H1090 H 0.04858 0.89061 0.53568 0.0
H1091 H 0.07427 0.93183 0.55738 0.0
H1092 H 0.15941 0.98406 0.56064 0.0
H1093 H 0.1228 0.96234 0.59366 0.0
H1094 H 0.12746 0.84965 0.38928 0.0
H1095 H 0.08846 0.82912 0.41181 0.0
H1096 H 0.15574 0.89273 0.35024 0.0
H1097 H 0.18364 0.93227 0.3815 0.0
C1098 C 0.24614 0.1478 0.63235 0.0
C1099 C 0.22075 0.14873 0.59544 0.0
C1100 C 0.1933 0.08924 0.57207 0.0
C1101 C 0.22167 0.08942 0.59654 0.0
N1102 N 0.27411 0.11857 0.657 0.0
N1103 N 0.16768 0.11929 0.53779 0.0
C1104 C 0.24749 0.1185 0.63009 0.0
C1105 C 0.19338 0.11893 0.56854 0.0
N1106 N 0.26904 0.1749 0.66945 0.0
N1107 N 0.16607 0.06024 0.55238 0.0
H1108 H 0.16584 0.13997 0.5393 0.0
H1109 H 0.14863 0.09962 0.50983 0.0
H1110 H 0.16549 0.03848 0.55588 0.0
H1111 H 0.14354 0.05737 0.53822 0.0
H1112 H 0.28656 0.17553 0.702 0.0
H1113 H 0.2687 0.19632 0.67235 0.0
H1114 H 0.29556 0.13932 0.67522 0.0
H1115 H 0.27494 0.09755 0.66 0.0
C1116 C 0.88828 0.11473 0.64389 0.0
C1117 C 0.87858 0.08669 0.60137 0.0
C1118 C 0.93342 0.11509 0.56319 0.0
C1119 C 0.94032 0.14498 0.59563 0.0
N1120 N 0.92188 0.1728 0.6653 0.0
N1121 N 0.89266 0.06095 0.5178 0.0
C1122 C 0.9174 0.14454 0.63673 0.0
C1123 C 0.90163 0.08687 0.56116 0.0
N1124 N 0.86906 0.11286 0.69093 0.0
N1125 N 0.95755 0.11364 0.53438 0.0
H1126 H 0.87043 0.03965 0.51601 0.0
H1127 H 0.9066 0.06117 0.48139 0.0
H1128 H 0.98097 0.13353 0.53614 0.0
H1129 H 0.95536 0.09222 0.5149 0.0
H1130 H 0.87576 0.13124 0.72741 0.0
H1131 H 0.8479 0.09144 0.69709 0.0
H1132 H 0.90422 0.17457 0.68882 0.0
H1133 H 0.94234 0.19497 0.66159 0.0
C1134 C 0.90955 0.7718 0.53835 0.0
C1135 C 0.93914 0.79899 0.56759 0.0
C1136 C 0.90669 0.82328 0.60443 0.0
C1137 C 0.87774 0.79739 0.57056 0.0
N1138 N 0.85174 0.74648 0.50568 0.0
N1139 N 0.96579 0.85088 0.62828 0.0
C1140 C 0.87924 0.77122 0.53903 0.0
C1141 C 0.9375 0.82462 0.60124 0.0
N1142 N 0.91043 0.74651 0.50794 0.0
N1143 N 0.9045 0.84662 0.63994 0.0
H1144 H 0.98808 0.8519 0.6287 0.0
H1145 H 0.96765 0.872 0.64843 0.0
H1146 H 0.88248 0.84592 0.6429 0.0
H1147 H 0.92358 0.86532 0.66967 0.0
H1148 H 0.89018 0.7238 0.49523 0.0
H1149 H 0.93183 0.74791 0.49644 0.0
H1150 H 0.85116 0.72895 0.47351 0.0
H1151 H 0.82901 0.74394 0.50824 0.0
C1152 C 0.80638 0.56535 0.73901 0.0
C1153 C 0.81252 0.54467 0.77552 0.0
C1154 C 0.75674 0.52053 0.80808 0.0
C1155 C 0.75167 0.54315 0.77626 0.0
N1156 N 0.76617 0.57551 0.68743 0.0
N1157 N 0.78958 0.49563 0.82596 0.0
C1158 C 0.77465 0.5618 0.73382 0.0
C1159 C 0.78622 0.51992 0.80369 0.0
N1160 N 0.83118 0.58982 0.71254 0.0
N1161 N 0.73336 0.4998 0.84343 0.0
H1162 H 0.81058 0.49444 0.82187 0.0
H1163 H 0.77084 0.47528 0.84255 0.0
H1164 H 0.71041 0.49731 0.8421 0.0
H1165 H 0.73681 0.48569 0.87487 0.0
H1166 H 0.82922 0.60813 0.69278 0.0
H1167 H 0.85429 0.59289 0.71376 0.0
H1168 H 0.78087 0.58678 0.65153 0.0
H1169 H 0.74306 0.57237 0.68022 0.0
C1170 C 0.50088 0.26824 0.82137 0.0
C1171 C 0.47336 0.2687 0.79375 0.0
C1172 C 0.4504 0.21158 0.7506 0.0
C1173 C 0.4738 0.20924 0.79128 0.0
N1174 N 0.52563 0.23723 0.85416 0.0
N1175 N 0.4221 0.2404 0.72816 0.0
C1176 C 0.50052 0.23835 0.82272 0.0
C1177 C 0.4485 0.24044 0.75616 0.0
N1178 N 0.52775 0.2968 0.84499 0.0
N1179 N 0.43061 0.18688 0.70508 0.0
H1180 H 0.4204 0.26102 0.72759 0.0
H1181 H 0.40116 0.21956 0.70804 0.0
H1182 H 0.43239 0.16645 0.69641 0.0
H1183 H 0.41548 0.18852 0.6699 0.0
H1184 H 0.54976 0.29925 0.86204 0.0
H1185 H 0.52882 0.31878 0.84199 0.0
H1186 H 0.54382 0.256 0.88536 0.0
H1187 H 0.52805 0.21692 0.84912 0.0
C1188 C 0.76273 0.22196 0.74471 0.0
C1189 C 0.74266 0.21873 0.79431 0.0
C1190 C 0.78 0.27699 0.8281 0.0
C1191 C 0.80444 0.27684 0.79271 0.0
N1192 N 0.81753 0.2479 0.71374 0.0
N1193 N 0.72718 0.24705 0.86896 0.0
C1194 C 0.79519 0.24921 0.74898 0.0
C1195 C 0.74976 0.24765 0.83136 0.0
N1196 N 0.75034 0.20037 0.69151 0.0
N1197 N 0.78582 0.3056 0.85787 0.0
H1198 H 0.70331 0.22779 0.8643 0.0
H1199 H 0.73174 0.26538 0.9039 0.0
H1200 H 0.80716 0.32726 0.85411 0.0
H1201 H 0.76888 0.3086 0.88142 0.0
H1202 H 0.76299 0.2032 0.6514 0.0
H1203 H 0.72606 0.18211 0.6845 0.0
H1204 H 0.81304 0.22701 0.68672 0.0
H1205 H 0.84102 0.26719 0.71452 0.0
C1206 C 0.87635 0.45848 0.84843 0.0
C1207 C 0.89744 0.4862 0.89179 0.0
C1208 C 0.91739 0.45408 0.94458 0.0
C1209 C 0.89709 0.42634 0.9004 0.0
N1210 N 0.85177 0.40065 0.81924 0.0
N1211 N 0.92968 0.50662 0.99281 0.0
C1212 C 0.87446 0.42801 0.8559 0.0
C1213 C 0.91491 0.48249 0.94394 0.0
N1214 N 0.85962 0.46177 0.79756 0.0
N1215 N 0.94091 0.45424 0.98456 0.0
H1216 H 0.92785 0.52727 0.99325 0.0
H1217 H 0.94064 0.50472 0.03522 0.0
H1218 H 0.94351 0.4342 0.98649 0.0
H1219 H 0.95914 0.47475 1.01212 0.0
H1220 H 0.84709 0.4441 0.75935 0.0
H1221 H 0.85945 0.48303 0.79234 0.0
H1222 H 0.83279 0.39921 0.78981 0.0
H1223 H 0.85025 0.37851 0.82262 0.0
C1224 C 0.57881 0.42295 0.87768 0.0
C1225 C 0.54983 0.42214 0.89386 0.0
C1226 C 0.58336 0.4816 0.91706 0.0
C1227 C 0.60919 0.48266 0.88558 0.0
N1228 N 0.63107 0.45296 0.83486 0.0
N1229 N 0.52531 0.45445 0.91863 0.0
C1230 C 0.6069 0.45284 0.86635 0.0
C1231 C 0.55238 0.45243 0.91211 0.0
N1232 N 0.57944 0.39498 0.87295 0.0
N1233 N 0.58832 0.5087 0.95148 0.0
H1234 H 0.50196 0.43483 0.90996 0.0
H1235 H 0.52606 0.47637 0.92586 0.0
H1236 H 0.61104 0.52964 0.95719 0.0
H1237 H 0.57138 0.50881 0.98034 0.0
H1238 H 0.60032 0.39406 0.86603 0.0
H1239 H 0.55984 0.37325 0.88317 0.0
H1240 H 0.62937 0.43221 0.81278 0.0
H1241 H 0.65218 0.47432 0.82831 0.0
C1242 C 0.572 0.10581 0.86604 0.0
C1243 C 0.60192 0.13517 0.88373 0.0
C1244 C 0.57009 0.16139 0.91128 0.0
C1245 C 0.54055 0.13307 0.88659 0.0
N1246 N 0.51384 0.07845 0.83702 0.0
N1247 N 0.62948 0.19119 0.92305 0.0
C1248 C 0.54167 0.10518 0.86432 0.0
C1249 C 0.60086 0.16294 0.90703 0.0
N1250 N 0.57244 0.07825 0.84962 0.0
N1251 N 0.56857 0.18684 0.93898 0.0
H1252 H 0.65194 0.1926 0.92326 0.0
H1253 H 0.63124 0.21335 0.93378 0.0
H1254 H 0.54657 0.18614 0.94248 0.0
H1255 H 0.58842 0.20753 0.9626 0.0
H1256 H 0.55199 0.05529 0.84554 0.0
H1257 H 0.59368 0.07794 0.84423 0.0
H1258 H 0.5132 0.05912 0.81092 0.0
H1259 H 0.49112 0.07622 0.83695 0.0
C1260 C 0.48904 0.92619 0.19485 0.0
C1261 C 0.49038 0.89943 0.16592 0.0
C1262 C 0.43045 0.87084 0.13942 0.0
C1263 C 0.4291 0.89728 0.16975 0.0
N1264 N 0.45798 0.95215 0.21811 0.0
N1265 N 0.4633 0.84872 0.10118 0.0
C1266 C 0.45876 0.92562 0.19431 0.0
C1267 C 0.46128 0.87257 0.135 0.0
N1268 N 0.51663 0.95161 0.2265 0.0
N1269 N 0.40199 0.84354 0.11689 0.0
H1270 H 0.48538 0.84964 0.09741 0.0
H1271 H 0.44392 0.82941 0.07314 0.0
H1272 H 0.37955 0.84216 0.1172 0.0
H1273 H 0.40026 0.82197 0.10022 0.0
H1274 H 0.51709 0.96964 0.25693 0.0
H1275 H 0.53941 0.95408 0.22495 0.0
H1276 H 0.47847 0.97485 0.2294 0.0
H1277 H 0.43654 0.95226 0.22265 0.0
C1278 C 0.14026 0.58182 0.10957 0.0
C1279 C 0.15638 0.60719 0.16044 0.0
C1280 C 0.18184 0.57778 0.20507 0.0
C1281 C 0.16169 0.55047 0.16004 0.0
N1282 N 0.14097 0.53769 0.04926 0.0
N1283 N 0.20244 0.63444 0.23971 0.0
C1284 C 0.1466 0.5557 0.10587 0.0
C1285 C 0.18033 0.6067 0.20301 0.0
N1286 N 0.11787 0.58148 0.06608 0.0
N1287 N 0.20295 0.57618 0.24901 0.0
H1288 H 0.20307 0.65621 0.23604 0.0
H1289 H 0.22197 0.63693 0.26892 0.0
H1290 H 0.20849 0.55787 0.2447 0.0
H1291 H 0.21502 0.59279 0.28896 0.0
H1292 H 0.10305 0.56167 0.03291 0.0
H1293 H 0.11281 0.60003 0.06531 0.0
H1294 H 0.13284 0.54242 1.0065 0.0
H1295 H 0.14821 0.52066 0.04426 0.0
C1296 C 0.48647 0.57992 0.1912 0.0
C1297 C 0.48732 0.60445 0.15584 0.0
C1298 C 0.42883 0.5667 0.11901 0.0
C1299 C 0.42706 0.5445 0.16296 0.0
N1300 N 0.4556 0.53501 0.25086 0.0
N1301 N 0.4583 0.62152 0.08742 0.0
C1302 C 0.45625 0.55249 0.20155 0.0
C1303 C 0.45819 0.59776 0.11963 0.0
N1304 N 0.51485 0.58258 0.21532 0.0
N1305 N 0.40229 0.55844 0.07745 0.0
H1306 H 0.47948 0.64357 0.0851 0.0
H1307 H 0.43743 0.62004 0.06587 0.0
H1308 H 0.38036 0.5369 0.07765 0.0
H1309 H 0.40263 0.57185 0.04022 0.0
H1310 H 0.51613 0.56376 0.23441 0.0
H1311 H 0.53739 0.60227 0.21012 0.0
H1312 H 0.47521 0.54272 0.28534 0.0
H1313 H 0.43517 0.51459 0.26219 0.0
C1314 C 0.55666 0.77438 0.29474 0.0
C1315 C 0.56778 0.76326 0.24297 0.0
C1316 C 0.58155 0.81357 0.19318 0.0
C1317 C 0.56699 0.82314 0.24057 0.0
N1318 N 0.54051 0.81216 0.33724 0.0
N1319 N 0.5913 0.77417 0.14196 0.0
C1320 C 0.55496 0.80359 0.2922 0.0
C1321 C 0.58049 0.7836 0.19276 0.0
N1322 N 0.54741 0.75683 0.34601 0.0
N1323 N 0.59836 0.83381 0.14893 0.0
H1324 H 0.59868 0.7575 0.14381 0.0
H1325 H 0.59258 0.78276 0.09724 0.0
H1326 H 0.59704 0.85372 0.13833 0.0
H1327 H 0.61559 0.83186 0.12404 0.0
H1328 H 0.54152 0.76424 0.38803 0.0
H1329 H 0.54754 0.73537 0.34795 0.0
H1330 H 0.5285 0.79811 0.37319 0.0
H1331 H 0.53914 0.83303 0.33664 0.0
C1332 C 0.24886 0.80615 0.20363 0.0
C1333 C 0.27835 0.81545 0.24257 0.0
C1334 C 0.24763 0.7647 0.2941 0.0
C1335 C 0.21821 0.75719 0.25798 0.0
N1336 N 0.19029 0.7777 0.19539 0.0
N1337 N 0.30364 0.8051 0.33308 0.0
C1338 C 0.21876 0.7804 0.21909 0.0
C1339 C 0.27692 0.79535 0.29099 0.0
N1340 N 0.24902 0.82022 0.14904 0.0
N1341 N 0.24783 0.74211 0.32979 0.0
H1342 H 0.32546 0.82646 0.33048 0.0
H1343 H 0.30347 0.79318 0.37286 0.0
H1344 H 0.22668 0.72042 0.33461 0.0
H1345 H 0.26892 0.74421 0.35182 0.0
H1346 H 0.22862 0.81135 0.11604 0.0
H1347 H 0.26959 0.83812 0.13181 0.0
H1348 H 0.18927 0.79574 0.17226 0.0
H1349 H 0.16775 0.75931 0.20519 0.0
C1350 C 0.27352 0.48996 0.27859 0.0
C1351 C 0.27477 0.46513 0.24101 0.0
C1352 C 0.21488 0.43712 0.21842 0.0
C1353 C 0.21419 0.46416 0.24723 0.0
N1354 N 0.24333 0.51695 0.30432 0.0
N1355 N 0.24591 0.41713 0.16646 0.0
C1356 C 0.24368 0.49062 0.27791 0.0
C1357 C 0.24516 0.43904 0.20945 0.0
N1358 N 0.301 0.51303 0.31473 0.0
N1359 N 0.18636 0.40945 0.19824 0.0
H1360 H 0.26715 0.41758 0.1569 0.0
H1361 H 0.22587 0.40021 0.13576 0.0
H1362 H 0.16385 0.40737 0.2018 0.0
H1363 H 0.18495 0.38771 0.18397 0.0
H1364 H 0.3016 0.53041 0.34741 0.0
H1365 H 0.32283 0.51307 0.31558 0.0
H1366 H 0.26417 0.53864 0.32113 0.0
H1367 H 0.22184 0.51735 0.30689 0.0
C1368 C 0.03553 0.24274 0.09115 0.0
C1369 C 1.00776 0.2439 0.10783 0.0
C1370 C 0.99663 0.25101 0.99599 0.0
C1371 C 0.02581 0.25251 0.98054 0.0
N1372 N 0.07563 0.25455 1.01542 0.0
N1373 N 0.9651 0.25483 0.07891 0.0
C1374 C 0.04602 0.24975 1.0288 0.0
C1375 C 0.98923 0.24969 0.06096 0.0
N1376 N 0.05123 0.23378 0.13417 0.0
N1377 N 0.97535 0.24968 0.94813 0.0
H1378 H 0.95906 0.25414 0.12589 0.0
H1379 H 0.95299 0.26252 0.04861 0.0
H1380 H 0.9797 0.24999 0.90011 0.0
H1381 H 0.9522 0.24533 0.9551 0.0
H1382 H 0.06931 0.22893 0.12276 0.0
H1383 H 0.04442 0.22861 0.18018 0.0
H1384 H 0.09307 0.25646 0.0501 0.0
H1385 H 0.08387 0.25917 0.97023 0.0
C1386 C 0.7872 0.79515 0.08498 0.0
C1387 C 0.7791 0.76374 0.09937 0.0
C1388 C 0.77084 0.7462 0.98396 0.0
C1389 C 0.77585 0.77675 0.97009 0.0
N1390 N 0.78292 0.8283 1.00739 0.0
N1391 N 0.7592 0.70806 0.06313 0.0
C1392 C 0.78234 0.80064 1.02065 0.0
C1393 C 0.76985 0.73887 0.04891 0.0
N1394 N 0.80098 0.82017 0.13238 0.0
N1395 N 0.7676 0.72449 0.93507 0.0
H1396 H 0.75663 0.70153 0.10973 0.0
H1397 H 0.75051 0.68839 1.02893 0.0
H1398 H 0.7678 0.72894 0.88712 0.0
H1399 H 0.76712 0.70309 0.94187 0.0
H1400 H 0.81058 0.84415 0.12366 0.0
H1401 H 0.80581 0.81744 0.17983 0.0
H1402 H 0.78387 0.84494 0.0426 0.0
H1403 H 0.77946 0.83328 0.96097 0.0
C1404 C 0.24355 0.03926 0.04522 0.0
C1405 C 0.26914 0.04206 0.08785 0.0
C1406 C 0.29537 0.03553 0.99531 0.0
C1407 C 0.26756 0.02819 0.95393 0.0
N1408 N 0.21292 0.01857 0.94091 0.0
N1409 N 0.31768 0.03879 0.10383 0.0
C1410 C 0.24105 0.0289 0.97927 0.0
C1411 C 0.29474 0.03927 0.06297 0.0
N1412 N 0.22228 0.0477 0.06722 0.0
N1413 N 0.32263 0.0396 0.96982 0.0
H1414 H 0.31751 0.04036 0.15344 0.0
H1415 H 0.33537 0.03416 0.08864 0.0
H1416 H 0.32382 0.037 0.92061 0.0
H1417 H 0.34484 0.04842 0.9969 0.0
H1418 H 0.20522 0.04933 0.03721 0.0
H1419 H 0.22382 0.05632 0.11471 0.0
H1420 H 0.19158 0.01502 0.95844 0.0
H1421 H 0.21001 0.01092 0.89233 0.0
C1422 C 0.98639 0.76727 0.98412 0.0
C1423 C 0.01631 0.77037 0.96852 0.0
C1424 C 0.02703 0.7613 0.07958 0.0
C1425 C 0.99678 0.75748 0.09464 0.0
N1426 N 0.94501 0.75078 0.05855 0.0
N1427 N 0.0627 0.76524 0.99832 0.0
C1428 C 0.97571 0.75872 0.04599 0.0
C1429 C 0.03578 0.76564 1.01533 0.0
N1430 N 0.96835 0.77305 0.93998 0.0
N1431 N 0.04805 0.76216 0.12749 0.0
H1432 H 0.07088 0.77004 0.95315 0.0
H1433 H 0.07574 0.75803 1.02727 0.0
H1434 H 0.04239 0.7588 0.1746 0.0
H1435 H 0.07186 0.76831 0.12193 0.0
H1436 H 0.94852 0.77522 0.95036 0.0
H1437 H 0.97425 0.77753 0.89326 0.0
H1438 H 0.92706 0.74769 1.02382 0.0
H1439 H 0.93651 0.74462 0.10313 0.0
C1440 C 0.27385 0.27824 0.07798 0.0
C1441 C 0.25887 0.24595 0.09378 0.0
C1442 C 0.24025 0.2263 0.97999 0.0
C1443 C 0.25716 0.25852 0.96368 0.0
N1444 N 0.29454 0.31486 0.99556 0.0
N1445 N 0.23199 0.18914 0.0596 0.0
C1446 C 0.27523 0.28444 1.01233 0.0
C1447 C 0.24335 0.21996 0.04462 0.0
N1448 N 0.28613 0.30296 0.12583 0.0
N1449 N 0.2201 0.20183 0.93415 0.0
H1450 H 0.23279 0.1834 0.10646 0.0
H1451 H 0.22396 0.16951 1.02544 0.0
H1452 H 0.21722 0.20537 0.88636 0.0
H1453 H 0.20426 0.17839 0.94418 0.0
H1454 H 0.29418 0.32679 0.11794 0.0
H1455 H 0.28599 0.29927 0.17419 0.0
H1456 H 0.31079 0.33435 1.02799 0.0
H1457 H 0.2964 0.32013 0.94806 0.0
C1458 C 0.75511 0.01935 0.07577 0.0
C1459 C 0.76776 1.0049 0.11619 0.0
C1460 C 0.76957 0.97328 1.02217 0.0
C1461 C 0.76101 0.99082 0.98135 0.0
N1462 N 0.74981 0.03376 0.96939 0.0
N1463 N 0.79128 0.97127 0.12764 0.0
C1464 C 0.75475 0.01465 1.00822 0.0
C1465 C 0.77599 0.98256 0.08938 0.0
N1466 N 0.7429 0.03713 0.10205 0.0
N1467 N 0.77072 0.94717 0.99688 0.0
H1468 H 0.79655 0.97753 0.17694 0.0
H1469 H 0.80116 0.95784 0.10986 0.0
H1470 H 0.76595 0.93951 0.94803 0.0
H1471 H 0.77343 0.93139 1.02474 0.0
H1472 H 0.73096 0.04622 0.07521 0.0
H1473 H 0.74202 0.04039 0.15122 0.0
H1474 H 0.74854 0.05378 0.98617 0.0
H1475 H 0.74985 0.03128 0.92004 0.0
C1476 C 0.71426 0.58875 0.3243 0.0
C1477 C 0.69932 0.5998 0.28037 0.0
C1478 C 0.66904 0.60591 0.36603 0.0
C1479 C 0.68208 0.59239 0.40847 0.0
N1480 N 0.71277 0.56579 0.42447 0.0
N1481 N 0.66059 0.61655 0.25687 0.0
C1482 C 0.70369 0.58261 0.38673 0.0
C1483 C 0.67612 0.6077 0.30061 0.0
N1484 N 0.7389 0.58438 0.30651 0.0
N1485 N 0.65048 0.61769 0.38889 0.0
H1486 H 0.66597 0.61905 0.20947 0.0
H1487 H 0.64116 0.61962 0.26594 0.0
H1488 H 0.64556 0.61751 0.43659 0.0
H1489 H 0.64175 0.62972 0.36232 0.0
H1490 H 0.7535 0.58022 0.33842 0.0
H1491 H 0.74648 0.58731 0.26062 0.0
H1492 H 0.72531 0.55469 0.40873 0.0
H1493 H 0.70536 0.56039 0.47001 0.0
C1494 C 0.41704 0.07038 0.37186 0.0
C1495 C 0.43696 0.0953 0.42128 0.0
C1496 C 0.45337 0.13512 0.34257 0.0
C1497 C 0.43577 0.10993 0.29241 0.0
N1498 N 0.40496 0.05307 0.25781 0.0
N1499 N 0.47875 0.15055 0.45179 0.0
C1500 C 0.41875 0.07737 0.30666 0.0
C1501 C 0.45643 0.12745 0.40605 0.0
N1502 N 0.39559 0.04027 0.38741 0.0
N1503 N 0.46628 0.16648 0.33 0.0
H1504 H 0.48198 0.1459 0.4986 0.0
H1505 H 0.49607 0.17355 0.44198 0.0
H1506 H 0.46461 0.17314 0.2843 0.0
H1507 H 0.47613 0.18574 0.3656 0.0
H1508 H 0.37798 0.02196 0.35447 0.0
H1509 H 0.3935 0.03436 0.43446 0.0
H1510 H 0.39525 0.02886 0.26471 0.0
H1511 H 0.40561 0.05726 0.20968 0.0
C1512 C 0.89209 0.30222 0.323 0.0
C1513 C 0.90651 0.3277 0.28335 0.0
C1514 C 0.92985 0.36693 0.37918 0.0
C1515 C 0.91342 0.34171 0.41852 0.0
N1516 N 0.8744 0.28604 0.42746 0.0
N1517 N 0.93343 0.38458 0.27292 0.0
C1518 C 0.89324 0.3095 0.39027 0.0
C1519 C 0.92385 0.36015 0.3113 0.0
N1520 N 0.87779 0.27102 0.29649 0.0
N1521 N 0.95154 0.39736 0.40668 0.0
H1522 H 0.92837 0.38032 0.2234 0.0
H1523 H 0.94339 0.40866 0.29017 0.0
H1524 H 0.9558 0.40356 0.45607 0.0
H1525 H 0.9671 0.41591 0.38087 0.0
H1526 H 0.87008 0.25147 0.32338 0.0
H1527 H 0.87572 0.26479 0.24739 0.0
H1528 H 0.85673 0.26277 0.40906 0.0
H1529 H 0.87446 0.29058 0.47657 0.0
C1530 C 0.69445 0.14464 0.34727 0.0
C1531 C 0.68744 0.12005 0.29769 0.0
C1532 C 0.66115 0.07922 0.37319 0.0
C1533 C 0.67084 0.10403 0.42398 0.0
N1534 N 0.70187 0.16056 0.4614 0.0
N1535 N 0.66838 0.06412 0.2657 0.0
C1536 C 0.68891 0.13681 0.4115 0.0
C1537 C 0.6719 0.08734 0.31128 0.0
N1538 N 0.70543 0.17544 0.33263 0.0
N1539 N 0.6408 0.04788 0.38356 0.0
H1540 H 0.67585 0.06908 0.22003 0.0
H1541 H 0.6605 0.04043 0.27458 0.0
H1542 H 0.63257 0.04095 0.42803 0.0
H1543 H 0.62987 0.02907 0.34701 0.0
H1544 H 0.70761 0.19371 0.36514 0.0
H1545 H 0.70957 0.18214 0.28631 0.0
H1546 H 0.71828 0.18461 0.45624 0.0
H1547 H 0.69856 0.1559 0.50902 0.0
C1548 C 0.95064 0.61729 0.31882 0.0
C1549 C 0.92653 0.59205 0.27442 0.0
C1550 C 0.91368 0.5546 0.35711 0.0
C1551 C 0.93417 0.58063 0.40408 0.0
N1552 N 0.9699 0.6381 0.42985 0.0
N1553 N 0.88106 0.53767 0.25492 0.0
C1554 C 0.95218 0.61237 0.38495 0.0
C1555 C 0.90696 0.56095 0.29457 0.0
N1556 N 0.97282 0.64568 0.29755 0.0
N1557 N 0.9016 0.52359 0.37139 0.0
H1558 H 0.87475 0.54142 0.20931 0.0
H1559 H 0.86399 0.5157 0.26969 0.0
H1560 H 0.90711 0.51787 0.41563 0.0
H1561 H 0.88918 0.50373 0.33723 0.0
H1562 H 0.99305 0.66372 0.32625 0.0
H1563 H 0.97274 0.65004 0.24957 0.0
H1564 H 0.98004 0.66193 0.41962 0.0
H1565 H 0.97254 0.63586 0.47835 0.0
C1566 C 0.46054 0.35815 0.32343 0.0
C1567 C 0.43131 0.33307 0.28939 0.0
C1568 C 0.40546 0.3213 0.39009 0.0
C1569 C 0.43417 0.34744 0.42348 0.0
N1570 N 0.48694 0.39441 0.42061 0.0
N1571 N 0.37427 0.29447 0.28768 0.0
C1572 C 0.4611 0.36694 0.38966 0.0
C1573 C 0.40325 0.31572 0.32203 0.0
N1574 N 0.48811 0.37292 0.29286 0.0
N1575 N 0.38069 0.30116 0.4237 0.0
H1576 H 0.37184 0.28953 0.23806 0.0
H1577 H 0.35223 0.2838 0.30749 0.0
H1578 H 0.38117 0.30489 0.47322 0.0
H1579 H 0.36061 0.27964 0.40335 0.0
H1580 H 0.51103 0.38869 0.3164 0.0
H1581 H 0.48857 0.36763 0.24426 0.0
H1582 H 0.50572 0.41158 0.39738 0.0
H1583 H 0.48836 0.40149 0.46908 0.0
C1584 C 0.33522 0.89607 0.64354 0.0
C1585 C 0.35986 0.9275 0.63255 0.0
C1586 C 0.36497 0.94522 0.74724 0.0
C1587 C 0.34264 0.91306 0.75909 0.0
N1588 N 0.31068 0.85679 0.71984 0.0
N1589 N 0.40158 0.98103 0.6755 0.0
C1590 C 0.32893 0.88819 0.70752 0.0
C1591 C 0.37564 0.95185 0.68489 0.0
N1592 N 0.31689 0.87401 0.59264 0.0
N1593 N 0.37521 0.96965 0.79512 0.0
H1594 H 0.41009 0.98682 0.6308 0.0
H1595 H 0.41636 0.99852 0.7127 0.0
H1596 H 0.36824 0.96569 0.84131 0.0
H1597 H 0.3884 0.99394 0.78789 0.0
H1598 H 0.29628 0.85195 0.59727 0.0
H1599 H 0.32045 0.87888 0.54517 0.0
H1600 H 0.30299 0.83736 0.68533 0.0
H1601 H 0.30564 0.84998 0.76586 0.0
C1602 C 0.11852 0.46397 0.76529 0.0
C1603 C 0.11485 0.4338 0.77811 0.0
C1604 C 0.10639 0.41755 0.66201 0.0
C1605 C 0.11341 0.44892 0.64945 0.0
N1606 N 0.13211 0.50388 0.68978 0.0
N1607 N 0.11042 0.38368 0.73853 0.0
C1608 C 0.12116 0.47267 0.70134 0.0
C1609 C 0.11019 0.41106 0.72634 0.0
N1610 N 0.11815 0.48387 0.81385 0.0
N1611 N 0.09499 0.39361 0.6127 0.0
H1612 H 0.11348 0.37825 0.78475 0.0
H1613 H 0.11047 0.36776 0.70294 0.0
H1614 H 0.09172 0.39734 0.56518 0.0
H1615 H 0.08608 0.36948 0.61939 0.0
H1616 H 0.11713 0.50448 0.80634 0.0
H1617 H 0.11572 0.47824 0.86108 0.0
H1618 H 0.14144 0.52287 0.72592 0.0
H1619 H 0.13473 0.51134 0.64386 0.0
C1620 C 0.6027 0.6633 0.73758 0.0
C1621 C 0.59631 0.68762 0.76056 0.0
C1622 C 0.58287 0.69455 0.6506 0.0
C1623 C 0.59153 0.67198 0.62722 0.0
N1624 N 0.61271 0.637 0.64685 0.0
N1625 N 0.58517 0.72991 0.74005 0.0
C1626 C 0.60225 0.65687 0.67034 0.0
C1627 C 0.58784 0.70429 0.71732 0.0
N1628 N 0.60863 0.64607 0.78016 0.0
N1629 N 0.56848 0.70558 0.60925 0.0
H1630 H 0.58779 0.73732 0.78871 0.0
H1631 H 0.58289 0.74543 0.71072 0.0
H1632 H 0.56413 0.69888 0.56004 0.0
H1633 H 0.55823 0.71914 0.62407 0.0
H1634 H 0.61025 0.62586 0.76694 0.0
H1635 H 0.61002 0.65082 0.82964 0.0
H1636 H 0.6235 0.62737 0.67529 0.0
H1637 H 0.61291 0.63196 0.59802 0.0
C1638 C 0.36474 0.44252 0.74889 0.0
C1639 C 0.33123 0.4254 0.7584 0.0
C1640 C 0.31773 0.41493 0.64109 0.0
C1641 C 0.35089 0.4357 0.632 0.0
N1642 N 0.40576 0.47238 0.67815 0.0
N1643 N 0.27541 0.39806 0.71309 0.0
C1644 C 0.37437 0.45019 0.6862 0.0
C1645 C 0.3076 0.41214 0.70428 0.0
N1646 N 0.38746 0.45071 0.79968 0.0
N1647 N 0.296 0.39721 0.5893 0.0
H1648 H 0.26701 0.39558 0.75825 0.0
H1649 H 0.25721 0.39115 0.67586 0.0
H1650 H 0.30256 0.3986 0.54263 0.0
H1651 H 0.27225 0.37905 0.59302 0.0
H1652 H 0.41203 0.46 0.79497 0.0
H1653 H 0.38139 0.44539 0.84603 0.0
H1654 H 0.42317 0.48652 0.71604 0.0
H1655 H 0.41387 0.47863 0.63335 0.0
C1656 C 0.57784 0.89651 0.71499 0.0
C1657 C 0.59804 0.92183 0.76331 0.0
C1658 C 0.61791 0.96004 0.68158 0.0
C1659 C 0.59557 0.93524 0.63424 0.0
N1660 N 0.55043 0.88118 0.60742 0.0
N1661 N 0.63409 0.97847 0.79465 0.0
C1662 C 0.57448 0.90381 0.65139 0.0
C1663 C 0.61723 0.95385 0.74713 0.0
N1664 N 0.56264 0.86529 0.72943 0.0
N1665 N 0.64042 0.98921 0.66361 0.0
H1666 H 0.6343 0.97469 0.84291 0.0
H1667 H 0.64571 1.00272 0.7869 0.0
H1668 H 0.64154 0.99463 0.6162 0.0
H1669 H 0.65957 1.00715 0.69464 0.0
H1670 H 0.55063 0.84554 0.69499 0.0
H1671 H 0.56434 0.85893 0.77542 0.0
H1672 H 0.53205 0.85904 0.61885 0.0
H1673 H 0.54709 0.88554 0.56042 0.0
C1674 C 0.14333 0.68439 0.6754 0.0
C1675 C 0.11285 0.65994 0.6445 0.0
C1676 C 0.09564 0.64187 0.7495 0.0
C1677 C 0.12268 0.67063 0.78079 0.0
N1678 N 0.18011 0.70154 0.7718 0.0
N1679 N 0.05878 0.61597 0.65349 0.0
C1680 C 0.14908 0.68738 0.74344 0.0
C1681 C 0.08861 0.63894 0.682 0.0
N1682 N 0.16695 0.70481 0.64009 0.0
N1683 N 0.08104 0.61498 0.78105 0.0
H1684 H 0.05261 0.6129 0.60416 0.0
H1685 H 0.03955 0.60202 0.67986 0.0
H1686 H 0.09143 0.61379 0.82502 0.0
H1687 H 0.06277 0.59267 0.75905 0.0
H1688 H 0.18819 0.72524 0.66073 0.0
H1689 H 0.16434 0.70265 0.59018 0.0
H1690 H 0.20049 0.71152 0.74646 0.0
H1691 H 0.18506 0.69891 0.81932 0.0
loop_
_geom_bond_atom_site_label_1
_geom_bond_atom_site_label_2
_geom_bond_distance
_geom_bond_site_symmetry_2
_ccdc_geom_bond_type
Sm0 C2 2.846 . S
Sm0 O20 2.537 1_455 S
Sm0 O21 2.450 . S
Sm0 O22 2.681 . S
Sm0 O23 2.464 . S
Sm0 O24 2.396 1_455 S
Sm0 O28 2.386 1_455 S
Sm0 O31 2.408 . S
Sm1 C11 2.846 . S
Sm1 O22 2.386 1_655 S
Sm1 O25 2.408 . S
Sm1 O26 2.543 1_655 S
Sm1 O27 2.450 . S
Sm1 O28 2.681 . S
Sm1 O29 2.464 . S
Sm1 O30 2.396 1_655 S
C2 Sm0 2.846 . S
C2 C3 1.506 . S
C2 O20 1.253 1_455 S
C2 O21 1.242 . S
C3 C2 1.506 . S
C3 C4 1.358 1_455 S
C3 C8 1.382 . S
C4 C3 1.358 1_655 S
C4 C5 1.385 . S
C4 H32 0.930 . S
C5 C4 1.385 . S
C5 C6 1.395 1_655 S
C5 H33 0.929 . S
C6 C5 1.395 1_455 S
C6 C7 1.335 . S
C7 C6 1.335 . S
C7 C8 1.398 . S
C7 H34 0.930 . S
C8 C3 1.382 . S
C8 C7 1.398 . S
C8 H35 0.929 . S
C9 O22 1.271 . S
C9 O23 1.251 . S
C10 O24 1.252 . S
C10 O25 1.272 . S
C11 Sm1 2.846 . S
C11 C12 1.506 . S
C11 O26 1.261 1_655 S
C11 O27 1.242 . S
C12 C11 1.506 . S
C12 C13 1.358 1_655 S
C12 C17 1.382 . S
C13 C12 1.358 1_455 S
C13 C14 1.385 . S
C13 H36 0.930 . S
C14 C13 1.385 . S
C14 C15 1.432 . S
C14 H37 0.929 . S
C15 C14 1.432 . S
C15 C16 1.296 1_455 S
C16 C15 1.296 1_655 S
C16 C17 1.398 . S
C16 H38 0.930 . S
C17 C12 1.382 . S
C17 C16 1.398 . S
C17 H39 0.929 . S
C18 O28 1.271 . S
C18 O29 1.251 . S
C19 O30 1.252 . S
C19 O31 1.272 . S
O20 Sm0 2.537 1_655 S
O20 C2 1.253 1_655 S
O21 Sm0 2.450 . S
O21 C2 1.242 . S
O22 Sm0 2.681 . S
O22 Sm1 2.386 1_455 S
O22 C9 1.271 . S
O23 Sm0 2.464 . S
O23 C9 1.251 . S
O24 Sm0 2.396 1_655 S
O24 C10 1.252 . S
O25 Sm1 2.408 . S
O25 C10 1.272 . S
O26 Sm1 2.543 1_455 S
O26 C11 1.261 1_455 S
O27 Sm1 2.450 . S
O27 C11 1.242 . S
O28 Sm0 2.386 1_655 S
O28 Sm1 2.681 . S
O28 C18 1.271 . S
O29 Sm1 2.464 . S
O29 C18 1.251 . S
O30 Sm1 2.396 1_455 S
O30 C19 1.252 . S
O31 Sm0 2.408 . S
O31 C19 1.272 . S
H32 C4 0.930 . S
H33 C5 0.929 . S
H34 C7 0.930 . S
H35 C8 0.929 . S
H36 C13 0.930 . S
H37 C14 0.929 . S
H38 C16 0.930 . S
H39 C17 0.929 . S
Sm40 C42 2.846 . S
Sm40 O60 2.543 . S
Sm40 O61 2.450 . S
Sm40 O62 2.681 . S
Sm40 O63 2.464 . S
Sm40 O64 2.396 . S
Sm40 O68 2.386 . S
Sm40 O71 2.408 . S
Sm41 C51 2.846 . S
Sm41 O62 2.386 . S
Sm41 O65 2.408 . S
Sm41 O66 2.543 . S
Sm41 O67 2.450 . S
Sm41 O68 2.681 . S
Sm41 O69 2.464 . S
Sm41 O70 2.396 . S
C42 Sm40 2.846 . S
C42 C43 1.506 . S
C42 O60 1.261 . S
C42 O61 1.242 . S
C43 C42 1.506 . S
C43 C44 1.358 . S
C43 C48 1.382 . S
C44 C43 1.358 . S
C44 C45 1.385 . S
C44 H72 0.930 . S
C45 C44 1.385 . S
C45 C46 1.395 . S
C45 H73 0.929 . S
C46 C45 1.395 . S
C46 C47 1.335 . S
C47 C46 1.335 . S
C47 C48 1.398 . S
C47 H74 0.930 . S
C48 C43 1.382 . S
C48 C47 1.398 . S
C48 H75 0.929 . S
C49 O62 1.271 . S
C49 O63 1.251 . S
C50 O64 1.252 . S
C50 O65 1.272 . S
C51 Sm41 2.846 . S
C51 C52 1.506 . S
C51 O66 1.261 . S
C51 O67 1.242 . S
C52 C51 1.506 . S
C52 C53 1.358 . S
C52 C57 1.382 . S
C53 C52 1.358 . S
C53 C54 1.385 . S
C53 H76 0.930 . S
C54 C53 1.385 . S
C54 C55 1.395 . S
C54 H77 0.929 . S
C55 C54 1.395 . S
C55 C56 1.335 . S
C56 C55 1.335 . S
C56 C57 1.398 . S
C56 H78 0.930 . S
C57 C52 1.382 . S
C57 C56 1.398 . S
C57 H79 0.929 . S
C58 O68 1.271 . S
C58 O69 1.251 . S
C59 O70 1.252 . S
C59 O71 1.272 . S
O60 Sm40 2.543 . S
O60 C42 1.261 . S
O61 Sm40 2.450 . S
O61 C42 1.242 . S
O62 Sm40 2.681 . S
O62 Sm41 2.386 . S
O62 C49 1.271 . S
O63 Sm40 2.464 . S
O63 C49 1.251 . S
O64 Sm40 2.396 . S
O64 C50 1.252 . S
O65 Sm41 2.408 . S
O65 C50 1.272 . S
O66 Sm41 2.543 . S
O66 C51 1.261 . S
O67 Sm41 2.450 . S
O67 C51 1.242 . S
O68 Sm40 2.386 . S
O68 Sm41 2.681 . S
O68 C58 1.271 . S
O69 Sm41 2.464 . S
O69 C58 1.251 . S
O70 Sm41 2.396 . S
O70 C59 1.252 . S
O71 Sm40 2.408 . S
O71 C59 1.272 . S
H72 C44 0.930 . S
H73 C45 0.929 . S
H74 C47 0.930 . S
H75 C48 0.929 . S
H76 C53 0.930 . S
H77 C54 0.929 . S
H78 C56 0.930 . S
H79 C57 0.929 . S
Sm80 C82 2.846 . S
Sm80 O100 2.543 1_565 S
Sm80 O101 2.450 . S
Sm80 O102 2.681 . S
Sm80 O103 2.464 . S
Sm80 O104 2.396 1_565 S
Sm80 O108 2.386 1_565 S
Sm80 O111 2.408 . S
Sm81 C91 2.846 . S
Sm81 O102 2.386 1_545 S
Sm81 O105 2.408 . S
Sm81 O106 2.543 1_545 S
Sm81 O107 2.450 . S
Sm81 O108 2.681 . S
Sm81 O109 2.464 . S
Sm81 O110 2.396 1_545 S
C82 Sm80 2.846 . S
C82 C83 1.506 1_565 S
C82 O100 1.261 1_565 S
C82 O101 1.242 . S
C83 C82 1.506 1_545 S
C83 C84 1.358 . S
C83 C88 1.382 1_545 S
C84 C83 1.358 . S
C84 C85 1.385 . S
C84 H112 0.930 . S
C85 C84 1.385 . S
C85 C86 1.395 . S
C85 H113 0.929 . S
C86 C85 1.395 . S
C86 C87 1.335 1_545 S
C87 C86 1.335 1_565 S
C87 C88 1.398 . S
C87 H114 0.930 . S
C88 C83 1.382 1_565 S
C88 C87 1.398 . S
C88 H115 0.929 . S
C89 O102 1.271 . S
C89 O103 1.251 . S
C90 O104 1.252 . S
C90 O105 1.272 . S
C91 Sm81 2.846 . S
C91 C92 1.511 . S
C91 O106 1.261 1_545 S
C91 O107 1.242 . S
C92 C91 1.511 . S
C92 C93 1.345 1_545 S
C92 C97 1.391 . S
C93 C92 1.345 1_565 S
C93 C94 1.385 . S
C93 H116 0.930 . S
C94 C93 1.385 . S
C94 C95 1.395 . S
C94 H117 0.929 . S
C95 C94 1.395 . S
C95 C96 1.335 1_565 S
C96 C95 1.335 1_545 S
C96 C97 1.398 . S
C96 H118 0.930 . S
C97 C92 1.391 . S
C97 C96 1.398 . S
C97 H119 0.929 . S
C98 O108 1.271 . S
C98 O109 1.251 . S
C99 O110 1.252 . S
C99 O111 1.272 . S
O100 Sm80 2.543 1_545 S
O100 C82 1.261 1_545 S
O101 Sm80 2.450 . S
O101 C82 1.242 . S
O102 Sm80 2.681 . S
O102 Sm81 2.386 1_565 S
O102 C89 1.271 . S
O103 Sm80 2.464 . S
O103 C89 1.251 . S
O104 Sm80 2.396 1_545 S
O104 C90 1.252 . S
O105 Sm81 2.408 . S
O105 C90 1.272 . S
O106 Sm81 2.543 1_565 S
O106 C91 1.261 1_565 S
O107 Sm81 2.450 . S
O107 C91 1.242 . S
O108 Sm80 2.386 1_545 S
O108 Sm81 2.681 . S
O108 C98 1.271 . S
O109 Sm81 2.464 . S
O109 C98 1.251 . S
O110 Sm81 2.396 1_565 S
O110 C99 1.252 . S
O111 Sm80 2.408 . S
O111 C99 1.272 . S
H112 C84 0.930 . S
H113 C85 0.929 . S
H114 C87 0.930 . S
H115 C88 0.929 . S
H116 C93 0.930 . S
H117 C94 0.929 . S
H118 C96 0.930 . S
H119 C97 0.929 . S
Sm120 C122 2.846 . S
Sm120 O140 2.543 1_455 S
Sm120 O141 2.450 . S
Sm120 O142 2.681 . S
Sm120 O143 2.464 . S
Sm120 O144 2.396 1_455 S
Sm120 O148 2.386 1_455 S
Sm120 O151 2.408 . S
Sm121 C131 2.846 . S
Sm121 O142 2.386 1_655 S
Sm121 O145 2.408 . S
Sm121 O146 2.543 1_655 S
Sm121 O147 2.450 . S
Sm121 O148 2.681 . S
Sm121 O149 2.464 . S
Sm121 O150 2.396 1_655 S
C122 Sm120 2.846 . S
C122 C123 1.506 . S
C122 O140 1.261 1_455 S
C122 O141 1.242 . S
C123 C122 1.506 . S
C123 C124 1.358 1_455 S
C123 C128 1.382 . S
C124 C123 1.358 1_655 S
C124 C125 1.385 . S
C124 H152 0.930 . S
C125 C124 1.385 . S
C125 C126 1.395 1_655 S
C125 H153 0.929 . S
C126 C125 1.395 1_455 S
C126 C127 1.335 . S
C127 C126 1.335 . S
C127 C128 1.398 . S
C127 H154 0.930 . S
C128 C123 1.382 . S
C128 C127 1.398 . S
C128 H155 0.929 . S
C129 O142 1.271 . S
C129 O143 1.251 . S
C130 O144 1.252 . S
C130 O145 1.272 . S
C131 Sm121 2.846 . S
C131 C132 1.506 . S
C131 O146 1.261 1_655 S
C131 O147 1.242 . S
C132 C131 1.506 . S
C132 C133 1.358 1_655 S
C132 C137 1.382 . S
C133 C132 1.358 1_455 S
C133 C134 1.385 . S
C133 H156 0.930 . S
C134 C133 1.385 . S
C134 C135 1.395 1_455 S
C134 H157 0.929 . S
C135 C134 1.395 1_655 S
C135 C136 1.335 . S
C136 C135 1.335 . S
C136 C137 1.398 . S
C136 H158 0.930 . S
C137 C132 1.382 . S
C137 C136 1.398 . S
C137 H159 0.929 . S
C138 O148 1.271 . S
C138 O149 1.251 . S
C139 O150 1.252 . S
C139 O151 1.272 . S
O140 Sm120 2.543 1_655 S
O140 C122 1.261 1_655 S
O141 Sm120 2.450 . S
O141 C122 1.242 . S
O142 Sm120 2.681 . S
O142 Sm121 2.386 1_455 S
O142 C129 1.271 . S
O143 Sm120 2.464 . S
O143 C129 1.251 . S
O144 Sm120 2.396 1_655 S
O144 C130 1.252 . S
O145 Sm121 2.408 . S
O145 C130 1.272 . S
O146 Sm121 2.543 1_455 S
O146 C131 1.261 1_455 S
O147 Sm121 2.450 . S
O147 C131 1.242 . S
O148 Sm120 2.386 1_655 S
O148 Sm121 2.681 . S
O148 C138 1.271 . S
O149 Sm121 2.464 . S
O149 C138 1.251 . S
O150 Sm121 2.396 1_455 S
O150 C139 1.252 . S
O151 Sm120 2.408 . S
O151 C139 1.272 . S
H152 C124 0.930 . S
H153 C125 0.929 . S
H154 C127 0.930 . S
H155 C128 0.929 . S
H156 C133 0.930 . S
H157 C134 0.929 . S
H158 C136 0.930 . S
H159 C137 0.929 . S
Sm160 C162 2.846 . S
Sm160 O180 2.543 . S
Sm160 O181 2.450 . S
Sm160 O182 2.681 . S
Sm160 O183 2.464 . S
Sm160 O184 2.396 . S
Sm160 O188 2.386 . S
Sm160 O191 2.408 . S
Sm161 C171 2.846 . S
Sm161 O182 2.386 . S
Sm161 O185 2.408 . S
Sm161 O186 2.543 . S
Sm161 O187 2.450 . S
Sm161 O188 2.681 . S
Sm161 O189 2.464 . S
Sm161 O190 2.396 . S
C162 Sm160 2.846 . S
C162 C163 1.506 . S
C162 O180 1.261 . S
C162 O181 1.242 . S
C163 C162 1.506 . S
C163 C164 1.358 . S
C163 C168 1.382 . S
C164 C163 1.358 . S
C164 C165 1.385 . S
C164 H192 0.930 . S
C165 C164 1.385 . S
C165 C166 1.395 . S
C165 H193 0.929 . S
C166 C165 1.395 . S
C166 C167 1.335 . S
C167 C166 1.335 . S
C167 C168 1.398 . S
C167 H194 0.930 . S
C168 C163 1.382 . S
C168 C167 1.398 . S
C168 H195 0.929 . S
C169 O182 1.271 . S
C169 O183 1.251 . S
C170 O184 1.252 . S
C170 O185 1.272 . S
C171 Sm161 2.846 . S
C171 C172 1.506 . S
C171 O186 1.261 . S
C171 O187 1.242 . S
C172 C171 1.506 . S
C172 C173 1.358 . S
C172 C177 1.382 . S
C173 C172 1.358 . S
C173 C174 1.385 . S
C173 H196 0.930 . S
C174 C173 1.385 . S
C174 C175 1.395 . S
C174 H197 0.929 . S
C175 C174 1.395 . S
C175 C176 1.335 . S
C176 C175 1.335 . S
C176 C177 1.398 . S
C176 H198 0.930 . S
C177 C172 1.382 . S
C177 C176 1.398 . S
C177 H199 0.929 . S
C178 O188 1.271 . S
C178 O189 1.251 . S
C179 O190 1.252 . S
C179 O191 1.272 . S
O180 Sm160 2.543 . S
O180 C162 1.261 . S
O181 Sm160 2.450 . S
O181 C162 1.242 . S
O182 Sm160 2.681 . S
O182 Sm161 2.386 . S
O182 C169 1.271 . S
O183 Sm160 2.464 . S
O183 C169 1.251 . S
O184 Sm160 2.396 . S
O184 C170 1.252 . S
O185 Sm161 2.408 . S
O185 C170 1.272 . S
O186 Sm161 2.543 . S
O186 C171 1.261 . S
O187 Sm161 2.450 . S
O187 C171 1.242 . S
O188 Sm160 2.386 . S
O188 Sm161 2.681 . S
O188 C178 1.271 . S
O189 Sm161 2.464 . S
O189 C178 1.251 . S
O190 Sm161 2.396 . S
O190 C179 1.252 . S
O191 Sm160 2.408 . S
O191 C179 1.272 . S
H192 C164 0.930 . S
H193 C165 0.929 . S
H194 C167 0.930 . S
H195 C168 0.929 . S
H196 C173 0.930 . S
H197 C174 0.929 . S
H198 C176 0.930 . S
H199 C177 0.929 . S
Sm200 C202 2.846 . S
Sm200 O220 2.543 1_565 S
Sm200 O221 2.450 . S
Sm200 O222 2.681 . S
Sm200 O223 2.464 . S
Sm200 O224 2.396 1_565 S
Sm200 O228 2.386 1_565 S
Sm200 O231 2.408 . S
Sm201 C211 2.846 . S
Sm201 O222 2.386 1_545 S
Sm201 O225 2.408 . S
Sm201 O226 2.543 1_545 S
Sm201 O227 2.450 . S
Sm201 O228 2.681 . S
Sm201 O229 2.464 . S
Sm201 O230 2.396 1_545 S
C202 Sm200 2.846 . S
C202 C203 1.506 1_565 S
C202 O220 1.261 1_565 S
C202 O221 1.242 . S
C203 C202 1.506 1_545 S
C203 C204 1.358 . S
C203 C208 1.382 1_545 S
C204 C203 1.358 . S
C204 C205 1.385 . S
C204 H232 0.930 . S
C205 C204 1.385 . S
C205 C206 1.395 . S
C205 H233 0.929 . S
C206 C205 1.395 . S
C206 C207 1.335 1_545 S
C207 C206 1.335 1_565 S
C207 C208 1.398 . S
C207 H234 0.930 . S
C208 C203 1.382 1_565 S
C208 C207 1.398 . S
C208 H235 0.929 . S
C209 O222 1.271 . S
C209 O223 1.251 . S
C210 O224 1.252 . S
C210 O225 1.272 . S
C211 Sm201 2.846 . S
C211 C212 1.506 . S
C211 O226 1.261 1_545 S
C211 O227 1.242 . S
C212 C211 1.506 . S
C212 C213 1.358 1_545 S
C212 C217 1.382 . S
C213 C212 1.358 1_565 S
C213 C214 1.385 . S
C213 H236 0.930 . S
C214 C213 1.385 . S
C214 C215 1.395 . S
C214 H237 0.929 . S
C215 C214 1.395 . S
C215 C216 1.335 1_565 S
C216 C215 1.335 1_545 S
C216 C217 1.398 . S
C216 H238 0.930 . S
C217 C212 1.382 . S
C217 C216 1.398 . S
C217 H239 0.929 . S
C218 O228 1.271 . S
C218 O229 1.251 . S
C219 O230 1.252 . S
C219 O231 1.272 . S
O220 Sm200 2.543 1_545 S
O220 C202 1.261 1_545 S
O221 Sm200 2.450 . S
O221 C202 1.242 . S
O222 Sm200 2.681 . S
O222 Sm201 2.386 1_565 S
O222 C209 1.271 . S
O223 Sm200 2.464 . S
O223 C209 1.251 . S
O224 Sm200 2.396 1_545 S
O224 C210 1.252 . S
O225 Sm201 2.408 . S
O225 C210 1.272 . S
O226 Sm201 2.543 1_565 S
O226 C211 1.261 1_565 S
O227 Sm201 2.450 . S
O227 C211 1.242 . S
O228 Sm200 2.386 1_545 S
O228 Sm201 2.681 . S
O228 C218 1.271 . S
O229 Sm201 2.464 . S
O229 C218 1.251 . S
O230 Sm201 2.396 1_565 S
O230 C219 1.252 . S
O231 Sm200 2.408 . S
O231 C219 1.272 . S
H232 C204 0.930 . S
H233 C205 0.929 . S
H234 C207 0.930 . S
H235 C208 0.929 . S
H236 C213 0.930 . S
H237 C214 0.929 . S
H238 C216 0.930 . S
H239 C217 0.929 . S
Sm240 C242 2.846 . S
Sm240 O260 2.543 . S
Sm240 O261 2.450 . S
Sm240 O262 2.681 . S
Sm240 O263 2.464 . S
Sm240 O264 2.396 . S
Sm240 O268 2.386 . S
Sm240 O271 2.408 . S
Sm241 C251 2.846 . S
Sm241 O262 2.386 . S
Sm241 O265 2.408 . S
Sm241 O266 2.543 . S
Sm241 O267 2.450 . S
Sm241 O268 2.681 . S
Sm241 O269 2.464 . S
Sm241 O270 2.396 . S
C242 Sm240 2.846 . S
C242 C243 1.506 . S
C242 O260 1.261 . S
C242 O261 1.242 . S
C243 C242 1.506 . S
C243 C244 1.358 . S
C243 C248 1.382 . S
C244 C243 1.358 . S
C244 C245 1.385 . S
C244 H272 0.930 . S
C245 C244 1.385 . S
C245 C246 1.395 . S
C245 H273 0.929 . S
C246 C245 1.395 . S
C246 C247 1.335 . S
C247 C246 1.335 . S
C247 C248 1.398 . S
C247 H274 0.930 . S
C248 C243 1.382 . S
C248 C247 1.398 . S
C248 H275 0.929 . S
C249 O262 1.271 . S
C249 O263 1.251 . S
C250 O264 1.252 . S
C250 O265 1.272 . S
C251 Sm241 2.846 . S
C251 C252 1.506 1_556 S
C251 O266 1.261 . S
C251 O267 1.242 . S
C252 C251 1.506 1_554 S
C252 C253 1.358 . S
C252 C257 1.382 . S
C253 C252 1.358 . S
C253 C254 1.385 . S
C253 H276 0.930 . S
C254 C253 1.385 . S
C254 C255 1.395 . S
C254 H277 0.929 . S
C255 C254 1.395 . S
C255 C256 1.335 . S
C256 C255 1.335 . S
C256 C257 1.398 . S
C256 H278 0.930 . S
C257 C252 1.382 . S
C257 C256 1.398 . S
C257 H279 0.929 . S
C258 O268 1.271 . S
C258 O269 1.251 . S
C259 O270 1.252 . S
C259 O271 1.272 . S
O260 Sm240 2.543 . S
O260 C242 1.261 . S
O261 Sm240 2.450 . S
O261 C242 1.242 . S
O262 Sm240 2.681 . S
O262 Sm241 2.386 . S
O262 C249 1.271 . S
O263 Sm240 2.464 . S
O263 C249 1.251 . S
O264 Sm240 2.396 . S
O264 C250 1.252 . S
O265 Sm241 2.408 . S
O265 C250 1.272 . S
O266 Sm241 2.543 . S
O266 C251 1.261 . S
O267 Sm241 2.450 . S
O267 C251 1.242 . S
O268 Sm240 2.386 . S
O268 Sm241 2.681 . S
O268 C258 1.271 . S
O269 Sm241 2.464 . S
O269 C258 1.251 . S
O270 Sm241 2.396 . S
O270 C259 1.252 . S
O271 Sm240 2.408 . S
O271 C259 1.272 . S
H272 C244 0.930 . S
H273 C245 0.929 . S
H274 C247 0.930 . S
H275 C248 0.929 . S
H276 C253 0.930 . S
H277 C254 0.929 . S
H278 C256 0.930 . S
H279 C257 0.929 . S
Sm280 C282 2.846 . S
Sm280 O300 2.543 . S
Sm280 O301 2.450 . S
Sm280 O302 2.681 . S
Sm280 O303 2.464 . S
Sm280 O304 2.396 . S
Sm280 O308 2.386 . S
Sm280 O311 2.408 . S
Sm281 C291 2.846 . S
Sm281 O302 2.386 . S
Sm281 O305 2.408 . S
Sm281 O306 2.543 . S
Sm281 O307 2.450 . S
Sm281 O308 2.681 . S
Sm281 O309 2.464 . S
Sm281 O310 2.396 . S
C282 Sm280 2.846 . S
C282 C283 1.506 . S
C282 O300 1.261 . S
C282 O301 1.242 . S
C283 C282 1.506 . S
C283 C284 1.358 . S
C283 C288 1.382 . S
C284 C283 1.358 . S
C284 C285 1.385 . S
C284 H312 0.930 . S
C285 C284 1.385 . S
C285 C286 1.395 . S
C285 H313 0.929 . S
C286 C285 1.395 . S
C286 C287 1.335 . S
C287 C286 1.335 . S
C287 C288 1.398 . S
C287 H314 0.930 . S
C288 C283 1.382 . S
C288 C287 1.398 . S
C288 H315 0.929 . S
C289 O302 1.271 . S
C289 O303 1.251 . S
C290 O304 1.252 . S
C290 O305 1.272 . S
C291 Sm281 2.846 . S
C291 C292 1.506 1_556 S
C291 O306 1.261 . S
C291 O307 1.242 . S
C292 C291 1.506 1_554 S
C292 C293 1.358 . S
C292 C297 1.382 . S
C293 C292 1.358 . S
C293 C294 1.385 . S
C293 H316 0.930 . S
C294 C293 1.385 . S
C294 C295 1.395 . S
C294 H317 0.929 . S
C295 C294 1.395 . S
C295 C296 1.335 . S
C296 C295 1.335 . S
C296 C297 1.398 . S
C296 H318 0.930 . S
C297 C292 1.382 . S
C297 C296 1.398 . S
C297 H319 0.929 . S
C298 O308 1.271 . S
C298 O309 1.251 . S
C299 O310 1.252 . S
C299 O311 1.272 . S
O300 Sm280 2.543 . S
O300 C282 1.261 . S
O301 Sm280 2.450 . S
O301 C282 1.242 . S
O302 Sm280 2.681 . S
O302 Sm281 2.386 . S
O302 C289 1.271 . S
O303 Sm280 2.464 . S
O303 C289 1.251 . S
O304 Sm280 2.396 . S
O304 C290 1.252 . S
O305 Sm281 2.408 . S
O305 C290 1.272 . S
O306 Sm281 2.543 . S
O306 C291 1.261 . S
O307 Sm281 2.450 . S
O307 C291 1.242 . S
O308 Sm280 2.386 . S
O308 Sm281 2.681 . S
O308 C298 1.271 . S
O309 Sm281 2.464 . S
O309 C298 1.251 . S
O310 Sm281 2.396 . S
O310 C299 1.252 . S
O311 Sm280 2.408 . S
O311 C299 1.272 . S
H312 C284 0.930 . S
H313 C285 0.929 . S
H314 C287 0.930 . S
H315 C288 0.929 . S
H316 C293 0.930 . S
H317 C294 0.929 . S
H318 C296 0.930 . S
H319 C297 0.929 . S
Sm320 C322 2.846 . S
Sm320 O340 2.543 . S
Sm320 O341 2.450 . S
Sm320 O342 2.681 . S
Sm320 O343 2.464 . S
Sm320 O344 2.396 . S
Sm320 O348 2.386 . S
Sm320 O351 2.408 . S
Sm321 C331 2.846 . S
Sm321 O342 2.386 . S
Sm321 O345 2.408 . S
Sm321 O346 2.543 . S
Sm321 O347 2.450 . S
Sm321 O348 2.681 . S
Sm321 O349 2.464 . S
Sm321 O350 2.396 . S
C322 Sm320 2.846 . S
C322 C323 1.506 . S
C322 O340 1.261 . S
C322 O341 1.242 . S
C323 C322 1.506 . S
C323 C324 1.358 . S
C323 C328 1.382 . S
C324 C323 1.358 . S
C324 C325 1.385 . S
C324 H352 0.930 . S
C325 C324 1.385 . S
C325 C326 1.395 . S
C325 H353 0.929 . S
C326 C325 1.395 . S
C326 C327 1.335 . S
C327 C326 1.335 . S
C327 C328 1.398 . S
C327 H354 0.930 . S
C328 C323 1.382 . S
C328 C327 1.398 . S
C328 H355 0.929 . S
C329 O342 1.271 . S
C329 O343 1.251 . S
C330 O344 1.252 . S
C330 O345 1.272 . S
C331 Sm321 2.846 . S
C331 C332 1.506 1_556 S
C331 O346 1.261 . S
C331 O347 1.242 . S
C332 C331 1.506 1_554 S
C332 C333 1.358 . S
C332 C337 1.382 . S
C333 C332 1.358 . S
C333 C334 1.385 . S
C333 H356 0.930 . S
C334 C333 1.385 . S
C334 C335 1.395 . S
C334 H357 0.929 . S
C335 C334 1.395 . S
C335 C336 1.335 . S
C336 C335 1.335 . S
C336 C337 1.398 . S
C336 H358 0.930 . S
C337 C332 1.382 . S
C337 C336 1.398 . S
C337 H359 0.929 . S
C338 O348 1.271 . S
C338 O349 1.251 . S
C339 O350 1.252 . S
C339 O351 1.272 . S
O340 Sm320 2.543 . S
O340 C322 1.261 . S
O341 Sm320 2.450 . S
O341 C322 1.242 . S
O342 Sm320 2.681 . S
O342 Sm321 2.386 . S
O342 C329 1.271 . S
O343 Sm320 2.464 . S
O343 C329 1.251 . S
O344 Sm320 2.396 . S
O344 C330 1.252 . S
O345 Sm321 2.408 . S
O345 C330 1.272 . S
O346 Sm321 2.543 . S
O346 C331 1.261 . S
O347 Sm321 2.450 . S
O347 C331 1.242 . S
O348 Sm320 2.386 . S
O348 Sm321 2.681 . S
O348 C338 1.271 . S
O349 Sm321 2.464 . S
O349 C338 1.251 . S
O350 Sm321 2.396 . S
O350 C339 1.252 . S
O351 Sm320 2.408 . S
O351 C339 1.272 . S
H352 C324 0.930 . S
H353 C325 0.929 . S
H354 C327 0.930 . S
H355 C328 0.929 . S
H356 C333 0.930 . S
H357 C334 0.929 . S
H358 C336 0.930 . S
H359 C337 0.929 . S
Sm360 C362 2.846 1_556 S
Sm360 O380 2.543 . S
Sm360 O381 2.450 . S
Sm360 O382 2.681 . S
Sm360 O383 2.464 . S
Sm360 O384 2.396 . S
Sm360 O388 2.386 . S
Sm360 O391 2.408 . S
Sm361 C371 2.846 . S
Sm361 O382 2.386 . S
Sm361 O385 2.408 . S
Sm361 O386 2.543 . S
Sm361 O387 2.450 . S
Sm361 O388 2.681 . S
Sm361 O389 2.464 . S
Sm361 O390 2.396 . S
C362 Sm360 2.846 1_554 S
C362 C363 1.506 . S
C362 O380 1.261 1_554 S
C362 O381 1.242 1_554 S
C363 C362 1.506 . S
C363 C364 1.358 . S
C363 C368 1.382 . S
C364 C363 1.358 . S
C364 C365 1.385 . S
C364 H392 0.930 . S
C365 C364 1.385 . S
C365 C366 1.395 . S
C365 H393 0.929 . S
C366 C365 1.395 . S
C366 C367 1.335 . S
C367 C366 1.335 . S
C367 C368 1.398 . S
C367 H394 0.930 . S
C368 C363 1.382 . S
C368 C367 1.398 . S
C368 H395 0.929 . S
C369 O382 1.271 . S
C369 O383 1.251 . S
C370 O384 1.252 . S
C370 O385 1.272 . S
C371 Sm361 2.846 . S
C371 C372 1.506 . S
C371 O386 1.261 . S
C371 O387 1.242 . S
C372 C371 1.506 . S
C372 C373 1.358 . S
C372 C377 1.382 . S
C373 C372 1.358 . S
C373 C374 1.385 . S
C373 H396 0.930 . S
C374 C373 1.385 . S
C374 C375 1.395 . S
C374 H397 0.929 . S
C375 C374 1.395 . S
C375 C376 1.335 . S
C376 C375 1.335 . S
C376 C377 1.398 . S
C376 H398 0.930 . S
C377 C372 1.382 . S
C377 C376 1.398 . S
C377 H399 0.929 . S
C378 O388 1.271 . S
C378 O389 1.251 . S
C379 O390 1.252 . S
C379 O391 1.272 . S
O380 Sm360 2.543 . S
O380 C362 1.261 1_556 S
O381 Sm360 2.450 . S
O381 C362 1.242 1_556 S
O382 Sm360 2.681 . S
O382 Sm361 2.386 . S
O382 C369 1.271 . S
O383 Sm360 2.464 . S
O383 C369 1.251 . S
O384 Sm360 2.396 . S
O384 C370 1.252 . S
O385 Sm361 2.408 . S
O385 C370 1.272 . S
O386 Sm361 2.543 . S
O386 C371 1.261 . S
O387 Sm361 2.450 . S
O387 C371 1.242 . S
O388 Sm360 2.386 . S
O388 Sm361 2.681 . S
O388 C378 1.271 . S
O389 Sm361 2.464 . S
O389 C378 1.251 . S
O390 Sm361 2.396 . S
O390 C379 1.252 . S
O391 Sm360 2.408 . S
O391 C379 1.272 . S
H392 C364 0.930 . S
H393 C365 0.929 . S
H394 C367 0.930 . S
H395 C368 0.929 . S
H396 C373 0.930 . S
H397 C374 0.929 . S
H398 C376 0.930 . S
H399 C377 0.929 . S
Sm400 C402 2.846 1_556 S
Sm400 O420 2.543 . S
Sm400 O421 2.450 1_556 S
Sm400 O422 2.681 . S
Sm400 O423 2.464 . S
Sm400 O424 2.396 . S
Sm400 O428 2.386 . S
Sm400 O431 2.408 . S
Sm401 C411 2.846 . S
Sm401 O422 2.386 . S
Sm401 O425 2.408 . S
Sm401 O426 2.543 . S
Sm401 O427 2.450 . S
Sm401 O428 2.681 . S
Sm401 O429 2.464 . S
Sm401 O430 2.396 . S
C402 Sm400 2.846 1_554 S
C402 C403 1.506 . S
C402 O420 1.261 1_554 S
C402 O421 1.242 . S
C403 C402 1.506 . S
C403 C404 1.358 . S
C403 C408 1.382 . S
C404 C403 1.358 . S
C404 C405 1.385 . S
C404 H432 0.930 . S
C405 C404 1.385 . S
C405 C406 1.395 . S
C405 H433 0.929 . S
C406 C405 1.395 . S
C406 C407 1.335 . S
C407 C406 1.335 . S
C407 C408 1.398 . S
C407 H434 0.930 . S
C408 C403 1.382 . S
C408 C407 1.398 . S
C408 H435 0.929 . S
C409 O422 1.271 . S
C409 O423 1.251 . S
C410 O424 1.252 . S
C410 O425 1.272 . S
C411 Sm401 2.846 . S
C411 C412 1.506 . S
C411 O426 1.261 . S
C411 O427 1.242 . S
C412 C411 1.506 . S
C412 C413 1.358 . S
C412 C417 1.382 . S
C413 C412 1.358 . S
C413 C414 1.385 . S
C413 H436 0.930 . S
C414 C413 1.385 . S
C414 C415 1.395 . S
C414 H437 0.929 . S
C415 C414 1.395 . S
C415 C416 1.335 . S
C416 C415 1.335 . S
C416 C417 1.398 . S
C416 H438 0.930 . S
C417 C412 1.382 . S
C417 C416 1.398 . S
C417 H439 0.929 . S
C418 O428 1.271 . S
C418 O429 1.251 . S
C419 O430 1.252 . S
C419 O431 1.272 . S
O420 Sm400 2.543 . S
O420 C402 1.261 1_556 S
O421 Sm400 2.450 1_554 S
O421 C402 1.242 . S
O422 Sm400 2.681 . S
O422 Sm401 2.386 . S
O422 C409 1.271 . S
O423 Sm400 2.464 . S
O423 C409 1.251 . S
O424 Sm400 2.396 . S
O424 C410 1.252 . S
O425 Sm401 2.408 . S
O425 C410 1.272 . S
O426 Sm401 2.543 . S
O426 C411 1.261 . S
O427 Sm401 2.450 . S
O427 C411 1.242 . S
O428 Sm400 2.386 . S
O428 Sm401 2.681 . S
O428 C418 1.271 . S
O429 Sm401 2.464 . S
O429 C418 1.251 . S
O430 Sm401 2.396 . S
O430 C419 1.252 . S
O431 Sm400 2.408 . S
O431 C419 1.272 . S
H432 C404 0.930 . S
H433 C405 0.929 . S
H434 C407 0.930 . S
H435 C408 0.929 . S
H436 C413 0.930 . S
H437 C414 0.929 . S
H438 C416 0.930 . S
H439 C417 0.929 . S
Sm440 C442 2.846 1_556 S
Sm440 O460 2.543 . S
Sm440 O461 2.450 . S
Sm440 O462 2.681 . S
Sm440 O463 2.464 . S
Sm440 O464 2.396 . S
Sm440 O468 2.386 . S
Sm440 O471 2.408 . S
Sm441 C451 2.846 . S
Sm441 O462 2.386 . S
Sm441 O465 2.408 . S
Sm441 O466 2.543 . S
Sm441 O467 2.450 . S
Sm441 O468 2.681 . S
Sm441 O469 2.464 . S
Sm441 O470 2.396 . S
C442 Sm440 2.846 1_554 S
C442 C443 1.506 . S
C442 O460 1.261 1_554 S
C442 O461 1.242 1_554 S
C443 C442 1.506 . S
C443 C444 1.358 . S
C443 C448 1.382 . S
C444 C443 1.358 . S
C444 C445 1.385 . S
C444 H472 0.930 . S
C445 C444 1.385 . S
C445 C446 1.395 . S
C445 H473 0.929 . S
C446 C445 1.395 . S
C446 C447 1.335 . S
C447 C446 1.335 . S
C447 C448 1.398 . S
C447 H474 0.930 . S
C448 C443 1.382 . S
C448 C447 1.398 . S
C448 H475 0.929 . S
C449 O462 1.271 . S
C449 O463 1.251 . S
C450 O464 1.252 . S
C450 O465 1.272 . S
C451 Sm441 2.846 . S
C451 C452 1.506 . S
C451 O466 1.261 . S
C451 O467 1.242 . S
C452 C451 1.506 . S
C452 C453 1.358 . S
C452 C457 1.382 . S
C453 C452 1.358 . S
C453 C454 1.385 . S
C453 H476 0.930 . S
C454 C453 1.385 . S
C454 C455 1.395 . S
C454 H477 0.929 . S
C455 C454 1.395 . S
C455 C456 1.335 . S
C456 C455 1.335 . S
C456 C457 1.398 . S
C456 H478 0.930 . S
C457 C452 1.382 . S
C457 C456 1.398 . S
C457 H479 0.929 . S
C458 O468 1.271 . S
C458 O469 1.251 . S
C459 O470 1.252 . S
C459 O471 1.272 . S
O460 Sm440 2.543 . S
O460 C442 1.261 1_556 S
O461 Sm440 2.450 . S
O461 C442 1.242 1_556 S
O462 Sm440 2.681 . S
O462 Sm441 2.386 . S
O462 C449 1.271 . S
O463 Sm440 2.464 . S
O463 C449 1.251 . S
O464 Sm440 2.396 . S
O464 C450 1.252 . S
O465 Sm441 2.408 . S
O465 C450 1.272 . S
O466 Sm441 2.543 . S
O466 C451 1.261 . S
O467 Sm441 2.450 . S
O467 C451 1.242 . S
O468 Sm440 2.386 . S
O468 Sm441 2.681 . S
O468 C458 1.271 . S
O469 Sm441 2.464 . S
O469 C458 1.251 . S
O470 Sm441 2.396 . S
O470 C459 1.252 . S
O471 Sm440 2.408 . S
O471 C459 1.272 . S
H472 C444 0.930 . S
H473 C445 0.929 . S
H474 C447 0.930 . S
H475 C448 0.929 . S
H476 C453 0.930 . S
H477 C454 0.929 . S
H478 C456 0.930 . S
H479 C457 0.929 . S
Sm480 C482 2.846 . S
Sm480 O500 2.543 . S
Sm480 O501 2.450 . S
Sm480 O502 2.681 . S
Sm480 O503 2.464 . S
Sm480 O504 2.396 . S
Sm480 O508 2.386 . S
Sm480 O511 2.408 . S
Sm481 C491 2.846 1_554 S
Sm481 O502 2.386 . S
Sm481 O505 2.408 . S
Sm481 O506 2.543 1_554 S
Sm481 O507 2.450 1_554 S
Sm481 O508 2.681 . S
Sm481 O509 2.464 . S
Sm481 O510 2.396 . S
C482 Sm480 2.846 . S
C482 C483 1.506 . S
C482 O500 1.261 . S
C482 O501 1.242 . S
C483 C482 1.506 . S
C483 C484 1.358 . S
C483 C488 1.382 . S
C484 C483 1.358 . S
C484 C485 1.385 . S
C484 H512 0.930 . S
C485 C484 1.385 . S
C485 C486 1.395 . S
C485 H513 0.929 . S
C486 C485 1.395 . S
C486 C487 1.335 . S
C487 C486 1.335 . S
C487 C488 1.398 . S
C487 H514 0.930 . S
C488 C483 1.382 . S
C488 C487 1.398 . S
C488 H515 0.929 . S
C489 O502 1.271 . S
C489 O503 1.251 . S
C490 O504 1.252 . S
C490 O505 1.272 . S
C491 Sm481 2.846 1_556 S
C491 C492 1.506 . S
C491 O506 1.261 . S
C491 O507 1.242 . S
C492 C491 1.506 . S
C492 C493 1.358 . S
C492 C497 1.382 . S
C493 C492 1.358 . S
C493 C494 1.385 . S
C493 H516 0.930 . S
C494 C493 1.385 . S
C494 C495 1.395 . S
C494 H517 0.929 . S
C495 C494 1.395 . S
C495 C496 1.335 . S
C496 C495 1.335 . S
C496 C497 1.398 . S
C496 H518 0.930 . S
C497 C492 1.382 . S
C497 C496 1.398 . S
C497 H519 0.929 . S
C498 O508 1.271 . S
C498 O509 1.251 . S
C499 O510 1.252 . S
C499 O511 1.272 . S
O500 Sm480 2.543 . S
O500 C482 1.261 . S
O501 Sm480 2.450 . S
O501 C482 1.242 . S
O502 Sm480 2.681 . S
O502 Sm481 2.386 . S
O502 C489 1.271 . S
O503 Sm480 2.464 . S
O503 C489 1.251 . S
O504 Sm480 2.396 . S
O504 C490 1.252 . S
O505 Sm481 2.408 . S
O505 C490 1.272 . S
O506 Sm481 2.543 1_556 S
O506 C491 1.261 . S
O507 Sm481 2.450 1_556 S
O507 C491 1.242 . S
O508 Sm480 2.386 . S
O508 Sm481 2.681 . S
O508 C498 1.271 . S
O509 Sm481 2.464 . S
O509 C498 1.251 . S
O510 Sm481 2.396 . S
O510 C499 1.252 . S
O511 Sm480 2.408 . S
O511 C499 1.272 . S
H512 C484 0.930 . S
H513 C485 0.929 . S
H514 C487 0.930 . S
H515 C488 0.929 . S
H516 C493 0.930 . S
H517 C494 0.929 . S
H518 C496 0.930 . S
H519 C497 0.929 . S
Sm520 C522 2.846 1_554 S
Sm520 O540 2.543 1_554 S
Sm520 O541 2.450 1_554 S
Sm520 O542 2.681 . S
Sm520 O543 2.464 . S
Sm520 O544 2.396 . S
Sm520 O548 2.386 . S
Sm520 O551 2.408 . S
Sm521 C531 2.846 . S
Sm521 O542 2.386 . S
Sm521 O545 2.408 . S
Sm521 O546 2.543 . S
Sm521 O547 2.450 . S
Sm521 O548 2.681 . S
Sm521 O549 2.464 . S
Sm521 O550 2.396 . S
C522 Sm520 2.846 1_556 S
C522 C523 1.506 . S
C522 O540 1.261 . S
C522 O541 1.242 . S
C523 C522 1.506 . S
C523 C524 1.358 . S
C523 C528 1.382 . S
C524 C523 1.358 . S
C524 C525 1.385 . S
C524 H552 0.930 . S
C525 C524 1.385 . S
C525 C526 1.395 . S
C525 H553 0.929 . S
C526 C525 1.395 . S
C526 C527 1.335 . S
C527 C526 1.335 . S
C527 C528 1.398 . S
C527 H554 0.930 . S
C528 C523 1.382 . S
C528 C527 1.398 . S
C528 H555 0.929 . S
C529 O542 1.271 . S
C529 O543 1.251 . S
C530 O544 1.252 . S
C530 O545 1.272 . S
C531 Sm521 2.846 . S
C531 C532 1.506 . S
C531 O546 1.261 . S
C531 O547 1.242 . S
C532 C531 1.506 . S
C532 C533 1.358 . S
C532 C537 1.382 . S
C533 C532 1.358 . S
C533 C534 1.385 . S
C533 H556 0.930 . S
C534 C533 1.385 . S
C534 C535 1.395 . S
C534 H557 0.929 . S
C535 C534 1.395 . S
C535 C536 1.335 . S
C536 C535 1.335 . S
C536 C537 1.398 . S
C536 H558 0.930 . S
C537 C532 1.382 . S
C537 C536 1.398 . S
C537 H559 0.929 . S
C538 O548 1.271 . S
C538 O549 1.251 . S
C539 O550 1.252 . S
C539 O551 1.272 . S
O540 Sm520 2.543 1_556 S
O540 C522 1.261 . S
O541 Sm520 2.450 1_556 S
O541 C522 1.242 . S
O542 Sm520 2.681 . S
O542 Sm521 2.386 . S
O542 C529 1.271 . S
O543 Sm520 2.464 . S
O543 C529 1.251 . S
O544 Sm520 2.396 . S
O544 C530 1.252 . S
O545 Sm521 2.408 . S
O545 C530 1.272 . S
O546 Sm521 2.543 . S
O546 C531 1.261 . S
O547 Sm521 2.450 . S
O547 C531 1.242 . S
O548 Sm520 2.386 . S
O548 Sm521 2.681 . S
O548 C538 1.271 . S
O549 Sm521 2.464 . S
O549 C538 1.251 . S
O550 Sm521 2.396 . S
O550 C539 1.252 . S
O551 Sm520 2.408 . S
O551 C539 1.272 . S
H552 C524 0.930 . S
H553 C525 0.929 . S
H554 C527 0.930 . S
H555 C528 0.929 . S
H556 C533 0.930 . S
H557 C534 0.929 . S
H558 C536 0.930 . S
H559 C537 0.929 . S
Sm560 C562 2.846 . S
Sm560 O580 2.543 . S
Sm560 O581 2.450 . S
Sm560 O582 2.681 . S
Sm560 O583 2.464 . S
Sm560 O584 2.396 . S
Sm560 O588 2.386 . S
Sm560 O591 2.408 . S
Sm561 C571 2.846 1_554 S
Sm561 O582 2.386 . S
Sm561 O585 2.408 . S
Sm561 O586 2.543 . S
Sm561 O587 2.450 . S
Sm561 O588 2.681 . S
Sm561 O589 2.464 . S
Sm561 O590 2.396 . S
C562 Sm560 2.846 . S
C562 C563 1.506 . S
C562 O580 1.261 . S
C562 O581 1.242 . S
C563 C562 1.506 . S
C563 C564 1.358 . S
C563 C568 1.382 . S
C564 C563 1.358 . S
C564 C565 1.385 . S
C564 H592 0.930 . S
C565 C564 1.385 . S
C565 C566 1.395 . S
C565 H593 0.929 . S
C566 C565 1.395 . S
C566 C567 1.335 . S
C567 C566 1.335 . S
C567 C568 1.398 . S
C567 H594 0.930 . S
C568 C563 1.382 . S
C568 C567 1.398 . S
C568 H595 0.929 . S
C569 O582 1.271 . S
C569 O583 1.251 . S
C570 O584 1.252 . S
C570 O585 1.272 . S
C571 Sm561 2.846 1_556 S
C571 C572 1.506 . S
C571 O586 1.261 1_556 S
C571 O587 1.242 1_556 S
C572 C571 1.506 . S
C572 C573 1.358 . S
C572 C577 1.382 . S
C573 C572 1.358 . S
C573 C574 1.385 . S
C573 H596 0.930 . S
C574 C573 1.385 . S
C574 C575 1.395 . S
C574 H597 0.929 . S
C575 C574 1.395 . S
C575 C576 1.335 . S
C576 C575 1.335 . S
C576 C577 1.398 . S
C576 H598 0.930 . S
C577 C572 1.382 . S
C577 C576 1.398 . S
C577 H599 0.929 . S
C578 O588 1.271 . S
C578 O589 1.251 . S
C579 O590 1.252 . S
C579 O591 1.272 . S
O580 Sm560 2.543 . S
O580 C562 1.261 . S
O581 Sm560 2.450 . S
O581 C562 1.242 . S
O582 Sm560 2.681 . S
O582 Sm561 2.386 . S
O582 C569 1.271 . S
O583 Sm560 2.464 . S
O583 C569 1.251 . S
O584 Sm560 2.396 . S
O584 C570 1.252 . S
O585 Sm561 2.408 . S
O585 C570 1.272 . S
O586 Sm561 2.543 . S
O586 C571 1.261 1_554 S
O587 Sm561 2.450 . S
O587 C571 1.242 1_554 S
O588 Sm560 2.386 . S
O588 Sm561 2.681 . S
O588 C578 1.271 . S
O589 Sm561 2.464 . S
O589 C578 1.251 . S
O590 Sm561 2.396 . S
O590 C579 1.252 . S
O591 Sm560 2.408 . S
O591 C579 1.272 . S
H592 C564 0.930 . S
H593 C565 0.929 . S
H594 C567 0.930 . S
H595 C568 0.929 . S
H596 C573 0.930 . S
H597 C574 0.929 . S
H598 C576 0.930 . S
H599 C577 0.929 . S
Sm600 C602 2.846 . S
Sm600 O620 2.543 . S
Sm600 O621 2.450 . S
Sm600 O622 2.681 . S
Sm600 O623 2.464 . S
Sm600 O624 2.396 . S
Sm600 O628 2.386 . S
Sm600 O631 2.408 . S
Sm601 C611 2.846 1_554 S
Sm601 O622 2.386 . S
Sm601 O625 2.408 . S
Sm601 O626 2.543 . S
Sm601 O627 2.450 1_554 S
Sm601 O628 2.681 . S
Sm601 O629 2.464 . S
Sm601 O630 2.396 . S
C602 Sm600 2.846 . S
C602 C603 1.506 . S
C602 O620 1.261 . S
C602 O621 1.242 . S
C603 C602 1.506 . S
C603 C604 1.358 . S
C603 C608 1.382 . S
C604 C603 1.358 . S
C604 C605 1.385 . S
C604 H632 0.930 . S
C605 C604 1.385 . S
C605 C606 1.395 . S
C605 H633 0.929 . S
C606 C605 1.395 . S
C606 C607 1.335 . S
C607 C606 1.335 . S
C607 C608 1.398 . S
C607 H634 0.930 . S
C608 C603 1.382 . S
C608 C607 1.398 . S
C608 H635 0.929 . S
C609 O622 1.271 . S
C609 O623 1.251 . S
C610 O624 1.252 . S
C610 O625 1.272 . S
C611 Sm601 2.846 1_556 S
C611 C612 1.506 . S
C611 O626 1.261 1_556 S
C611 O627 1.242 . S
C612 C611 1.506 . S
C612 C613 1.358 . S
C612 C617 1.382 . S
C613 C612 1.358 . S
C613 C614 1.385 . S
C613 H636 0.930 . S
C614 C613 1.385 . S
C614 C615 1.395 . S
C614 H637 0.929 . S
C615 C614 1.395 . S
C615 C616 1.335 . S
C616 C615 1.335 . S
C616 C617 1.398 . S
C616 H638 0.930 . S
C617 C612 1.382 . S
C617 C616 1.398 . S
C617 H639 0.929 . S
C618 O628 1.271 . S
C618 O629 1.251 . S
C619 O630 1.252 . S
C619 O631 1.272 . S
O620 Sm600 2.543 . S
O620 C602 1.261 . S
O621 Sm600 2.450 . S
O621 C602 1.242 . S
O622 Sm600 2.681 . S
O622 Sm601 2.386 . S
O622 C609 1.271 . S
O623 Sm600 2.464 . S
O623 C609 1.251 . S
O624 Sm600 2.396 . S
O624 C610 1.252 . S
O625 Sm601 2.408 . S
O625 C610 1.272 . S
O626 Sm601 2.543 . S
O626 C611 1.261 1_554 S
O627 Sm601 2.450 1_556 S
O627 C611 1.242 . S
O628 Sm600 2.386 . S
O628 Sm601 2.681 . S
O628 C618 1.271 . S
O629 Sm601 2.464 . S
O629 C618 1.251 . S
O630 Sm601 2.396 . S
O630 C619 1.252 . S
O631 Sm600 2.408 . S
O631 C619 1.272 . S
H632 C604 0.930 . S
H633 C605 0.929 . S
H634 C607 0.930 . S
H635 C608 0.929 . S
H636 C613 0.930 . S
H637 C614 0.929 . S
H638 C616 0.930 . S
H639 C617 0.929 . S
Sm640 C642 2.846 . S
Sm640 O660 2.543 . S
Sm640 O661 2.450 . S
Sm640 O662 2.681 . S
Sm640 O663 2.464 . S
Sm640 O664 2.396 . S
Sm640 O668 2.386 . S
Sm640 O671 2.408 . S
Sm641 C651 2.846 . S
Sm641 O662 2.386 . S
Sm641 O665 2.408 . S
Sm641 O666 2.543 . S
Sm641 O667 2.450 . S
Sm641 O668 2.681 . S
Sm641 O669 2.464 . S
Sm641 O670 2.396 . S
C642 Sm640 2.846 . S
C642 C643 1.506 1_554 S
C642 O660 1.261 . S
C642 O661 1.242 . S
C643 C642 1.506 1_556 S
C643 C644 1.358 . S
C643 C648 1.382 . S
C644 C643 1.358 . S
C644 C645 1.385 . S
C644 H672 0.930 . S
C645 C644 1.385 . S
C645 C646 1.395 . S
C645 H673 0.929 . S
C646 C645 1.395 . S
C646 C647 1.335 . S
C647 C646 1.335 . S
C647 C648 1.398 . S
C647 H674 0.930 . S
C648 C643 1.382 . S
C648 C647 1.398 . S
C648 H675 0.929 . S
C649 O662 1.271 . S
C649 O663 1.251 . S
C650 O664 1.252 . S
C650 O665 1.272 . S
C651 Sm641 2.846 . S
C651 C652 1.506 . S
C651 O666 1.261 . S
C651 O667 1.242 . S
C652 C651 1.506 . S
C652 C653 1.358 . S
C652 C657 1.382 . S
C653 C652 1.358 . S
C653 C654 1.385 . S
C653 H676 0.930 . S
C654 C653 1.385 . S
C654 C655 1.395 . S
C654 H677 0.929 . S
C655 C654 1.395 . S
C655 C656 1.335 . S
C656 C655 1.335 . S
C656 C657 1.398 . S
C656 H678 0.930 . S
C657 C652 1.382 . S
C657 C656 1.398 . S
C657 H679 0.929 . S
C658 O668 1.271 . S
C658 O669 1.251 . S
C659 O670 1.252 . S
C659 O671 1.272 . S
O660 Sm640 2.543 . S
O660 C642 1.261 . S
O661 Sm640 2.450 . S
O661 C642 1.242 . S
O662 Sm640 2.681 . S
O662 Sm641 2.386 . S
O662 C649 1.271 . S
O663 Sm640 2.464 . S
O663 C649 1.251 . S
O664 Sm640 2.396 . S
O664 C650 1.252 . S
O665 Sm641 2.408 . S
O665 C650 1.272 . S
O666 Sm641 2.543 . S
O666 C651 1.261 . S
O667 Sm641 2.450 . S
O667 C651 1.242 . S
O668 Sm640 2.386 . S
O668 Sm641 2.681 . S
O668 C658 1.271 . S
O669 Sm641 2.464 . S
O669 C658 1.251 . S
O670 Sm641 2.396 . S
O670 C659 1.252 . S
O671 Sm640 2.408 . S
O671 C659 1.272 . S
H672 C644 0.930 . S
H673 C645 0.929 . S
H674 C647 0.930 . S
H675 C648 0.929 . S
H676 C653 0.930 . S
H677 C654 0.929 . S
H678 C656 0.930 . S
H679 C657 0.929 . S
Sm680 C682 2.846 . S
Sm680 O700 2.543 . S
Sm680 O701 2.450 . S
Sm680 O702 2.681 . S
Sm680 O703 2.464 . S
Sm680 O704 2.396 . S
Sm680 O708 2.386 . S
Sm680 O711 2.408 . S
Sm681 C691 2.846 . S
Sm681 O702 2.386 . S
Sm681 O705 2.408 . S
Sm681 O706 2.543 . S
Sm681 O707 2.450 . S
Sm681 O708 2.681 . S
Sm681 O709 2.464 . S
Sm681 O710 2.396 . S
C682 Sm680 2.846 . S
C682 C683 1.506 . S
C682 O700 1.261 . S
C682 O701 1.242 . S
C683 C682 1.506 . S
C683 C684 1.358 . S
C683 C688 1.382 . S
C684 C683 1.358 . S
C684 C685 1.385 . S
C684 H712 0.930 . S
C685 C684 1.385 . S
C685 C686 1.395 . S
C685 H713 0.929 . S
C686 C685 1.395 . S
C686 C687 1.335 . S
C687 C686 1.335 . S
C687 C688 1.398 . S
C687 H714 0.930 . S
C688 C683 1.382 . S
C688 C687 1.398 . S
C688 H715 0.929 . S
C689 O702 1.271 . S
C689 O703 1.251 . S
C690 O704 1.252 . S
C690 O705 1.272 . S
C691 Sm681 2.846 . S
C691 C692 1.506 1_554 S
C691 O706 1.261 . S
C691 O707 1.242 . S
C692 C691 1.506 1_556 S
C692 C693 1.358 . S
C692 C697 1.382 . S
C693 C692 1.358 . S
C693 C694 1.385 . S
C693 H716 0.930 . S
C694 C693 1.385 . S
C694 C695 1.395 . S
C694 H717 0.929 . S
C695 C694 1.395 . S
C695 C696 1.335 . S
C696 C695 1.335 . S
C696 C697 1.398 . S
C696 H718 0.930 . S
C697 C692 1.382 . S
C697 C696 1.398 . S
C697 H719 0.929 . S
C698 O708 1.271 . S
C698 O709 1.251 . S
C699 O710 1.252 . S
C699 O711 1.272 . S
O700 Sm680 2.543 . S
O700 C682 1.261 . S
O701 Sm680 2.450 . S
O701 C682 1.242 . S
O702 Sm680 2.681 . S
O702 Sm681 2.386 . S
O702 C689 1.271 . S
O703 Sm680 2.464 . S
O703 C689 1.251 . S
O704 Sm680 2.396 . S
O704 C690 1.252 . S
O705 Sm681 2.408 . S
O705 C690 1.272 . S
O706 Sm681 2.543 . S
O706 C691 1.261 . S
O707 Sm681 2.450 . S
O707 C691 1.242 . S
O708 Sm680 2.386 . S
O708 Sm681 2.681 . S
O708 C698 1.271 . S
O709 Sm681 2.464 . S
O709 C698 1.251 . S
O710 Sm681 2.396 . S
O710 C699 1.252 . S
O711 Sm680 2.408 . S
O711 C699 1.272 . S
H712 C684 0.930 . S
H713 C685 0.929 . S
H714 C687 0.930 . S
H715 C688 0.929 . S
H716 C693 0.930 . S
H717 C694 0.929 . S
H718 C696 0.930 . S
H719 C697 0.929 . S
C720 C721 1.363 . S
C720 C726 1.379 . S
C720 N728 1.356 . S
C721 C720 1.363 . S
C721 C727 1.363 . S
C722 C723 1.363 . S
C722 C727 1.379 . S
C722 N729 1.356 . S
C723 C722 1.363 . S
C723 C726 1.363 . S
N724 C726 1.356 . S
N724 H736 0.984 1_455 S
N724 H737 0.985 . S
N725 C727 1.356 . S
N725 H730 0.984 . S
N725 H731 0.985 . S
C726 C720 1.379 . S
C726 C723 1.363 . S
C726 N724 1.356 . S
C727 C721 1.363 . S
C727 C722 1.379 . S
C727 N725 1.356 . S
N728 C720 1.356 . S
N728 H734 0.984 . S
N728 H735 0.984 . S
N729 C722 1.356 . S
N729 H732 0.984 . S
N729 H733 0.985 . S
H730 N725 0.984 . S
H731 N725 0.985 . S
H732 N729 0.984 . S
H733 N729 0.985 . S
H734 N728 0.984 . S
H735 N728 0.984 . S
H736 N724 0.984 1_655 S
H737 N724 0.985 . S
C738 C739 1.363 . S
C738 C744 1.379 . S
C738 N746 1.356 . S
C739 C738 1.363 . S
C739 C745 1.363 . S
C740 C741 1.363 . S
C740 C745 1.379 . S
C740 N747 1.356 . S
C741 C740 1.363 . S
C741 C744 1.363 . S
N742 C744 1.356 . S
N742 H754 0.984 . S
N742 H755 0.985 . S
N743 C745 1.356 . S
N743 H748 0.984 . S
N743 H749 0.985 . S
C744 C738 1.379 . S
C744 C741 1.363 . S
C744 N742 1.356 . S
C745 C739 1.363 . S
C745 C740 1.379 . S
C745 N743 1.356 . S
N746 C738 1.356 . S
N746 H752 0.984 . S
N746 H753 0.984 . S
N747 C740 1.356 . S
N747 H750 0.984 . S
N747 H751 0.985 . S
H748 N743 0.984 . S
H749 N743 0.985 . S
H750 N747 0.984 . S
H751 N747 0.985 . S
H752 N746 0.984 . S
H753 N746 0.984 . S
H754 N742 0.984 . S
H755 N742 0.985 . S
C756 C757 1.363 . S
C756 C762 1.379 . S
C756 N764 1.356 . S
C757 C756 1.363 . S
C757 C763 1.363 . S
C758 C759 1.363 . S
C758 C763 1.379 . S
C758 N765 1.356 . S
C759 C758 1.363 . S
C759 C762 1.363 . S
N760 C762 1.356 . S
N760 H772 0.984 . S
N760 H773 0.985 . S
N761 C763 1.356 . S
N761 H766 0.984 . S
N761 H767 0.985 . S
C762 C756 1.379 . S
C762 C759 1.363 . S
C762 N760 1.356 . S
C763 C757 1.363 . S
C763 C758 1.379 . S
C763 N761 1.356 . S
N764 C756 1.356 . S
N764 H770 0.984 . S
N764 H771 0.984 . S
N765 C758 1.356 . S
N765 H768 0.984 . S
N765 H769 0.985 . S
H766 N761 0.984 . S
H767 N761 0.985 . S
H768 N765 0.984 . S
H769 N765 0.985 . S
H770 N764 0.984 . S
H771 N764 0.984 . S
H772 N760 0.984 . S
H773 N760 0.985 . S
C774 C775 1.363 . S
C774 C780 1.379 . S
C774 N782 1.356 . S
C775 C774 1.363 . S
C775 C781 1.363 . S
C776 C777 1.363 . S
C776 C781 1.379 . S
C776 N783 1.356 . S
C777 C776 1.363 . S
C777 C780 1.363 . S
N778 C780 1.356 . S
N778 H790 0.984 . S
N778 H791 0.985 . S
N779 C781 1.356 . S
N779 H784 0.984 . S
N779 H785 0.985 . S
C780 C774 1.379 . S
C780 C777 1.363 . S
C780 N778 1.356 . S
C781 C775 1.363 . S
C781 C776 1.379 . S
C781 N779 1.356 . S
N782 C774 1.356 . S
N782 H788 0.984 . S
N782 H789 0.984 . S
N783 C776 1.356 . S
N783 H786 0.984 . S
N783 H787 0.985 . S
H784 N779 0.984 . S
H785 N779 0.985 . S
H786 N783 0.984 . S
H787 N783 0.985 . S
H788 N782 0.984 . S
H789 N782 0.984 . S
H790 N778 0.984 . S
H791 N778 0.985 . S
C792 C793 1.363 . S
C792 C798 1.379 . S
C792 N800 1.356 . S
C793 C792 1.363 . S
C793 C799 1.363 . S
C794 C795 1.363 . S
C794 C799 1.379 . S
C794 N801 1.356 . S
C795 C794 1.363 . S
C795 C798 1.363 . S
N796 C798 1.356 . S
N796 H808 0.984 . S
N796 H809 0.985 . S
N797 C799 1.356 . S
N797 H802 0.984 . S
N797 H803 0.985 . S
C798 C792 1.379 . S
C798 C795 1.363 . S
C798 N796 1.356 . S
C799 C793 1.363 . S
C799 C794 1.379 . S
C799 N797 1.356 . S
N800 C792 1.356 . S
N800 H806 0.984 . S
N800 H807 0.984 . S
N801 C794 1.356 . S
N801 H804 0.984 . S
N801 H805 0.985 . S
H802 N797 0.984 . S
H803 N797 0.985 . S
H804 N801 0.984 . S
H805 N801 0.985 . S
H806 N800 0.984 . S
H807 N800 0.984 . S
H808 N796 0.984 . S
H809 N796 0.985 . S
C810 C811 1.363 . S
C810 C816 1.379 . S
C810 N818 1.356 . S
C811 C810 1.363 . S
C811 C817 1.363 . S
C812 C813 1.363 . S
C812 C817 1.379 . S
C812 N819 1.356 . S
C813 C812 1.363 . S
C813 C816 1.363 . S
N814 C816 1.356 . S
N814 H826 0.984 . S
N814 H827 0.985 . S
N815 C817 1.356 . S
N815 H820 0.984 . S
N815 H821 0.985 . S
C816 C810 1.379 . S
C816 C813 1.363 . S
C816 N814 1.356 . S
C817 C811 1.363 . S
C817 C812 1.379 . S
C817 N815 1.356 . S
N818 C810 1.356 . S
N818 H824 0.984 . S
N818 H825 0.984 . S
N819 C812 1.356 . S
N819 H822 0.984 . S
N819 H823 0.985 . S
H820 N815 0.984 . S
H821 N815 0.985 . S
H822 N819 0.984 . S
H823 N819 0.985 . S
H824 N818 0.984 . S
H825 N818 0.984 . S
H826 N814 0.984 . S
H827 N814 0.985 . S
C828 C829 1.363 . S
C828 C834 1.379 . S
C828 N836 1.356 . S
C829 C828 1.363 . S
C829 C835 1.363 . S
C830 C831 1.363 . S
C830 C835 1.379 . S
C830 N837 1.356 . S
C831 C830 1.363 . S
C831 C834 1.363 . S
N832 C834 1.356 . S
N832 H844 0.984 . S
N832 H845 0.985 . S
N833 C835 1.356 . S
N833 H838 0.984 . S
N833 H839 0.985 . S
C834 C828 1.379 . S
C834 C831 1.363 . S
C834 N832 1.356 . S
C835 C829 1.363 . S
C835 C830 1.379 . S
C835 N833 1.356 . S
N836 C828 1.356 . S
N836 H842 0.984 . S
N836 H843 0.984 . S
N837 C830 1.356 . S
N837 H840 0.984 . S
N837 H841 0.985 . S
H838 N833 0.984 . S
H839 N833 0.985 . S
H840 N837 0.984 . S
H841 N837 0.985 . S
H842 N836 0.984 . S
H843 N836 0.984 . S
H844 N832 0.984 . S
H845 N832 0.985 . S
C846 C847 1.363 . S
C846 C852 1.379 . S
C846 N854 1.356 . S
C847 C846 1.363 . S
C847 C853 1.363 . S
C848 C849 1.363 . S
C848 C853 1.379 . S
C848 N855 1.356 . S
C849 C848 1.363 . S
C849 C852 1.363 . S
N850 C852 1.356 . S
N850 H862 0.984 . S
N850 H863 0.985 . S
N851 C853 1.356 . S
N851 H856 0.984 . S
N851 H857 0.985 . S
C852 C846 1.379 . S
C852 C849 1.363 . S
C852 N850 1.356 . S
C853 C847 1.363 . S
C853 C848 1.379 . S
C853 N851 1.356 . S
N854 C846 1.356 . S
N854 H860 0.984 . S
N854 H861 0.984 . S
N855 C848 1.356 . S
N855 H858 0.984 . S
N855 H859 0.985 . S
H856 N851 0.984 . S
H857 N851 0.985 . S
H858 N855 0.984 . S
H859 N855 0.985 . S
H860 N854 0.984 . S
H861 N854 0.984 . S
H862 N850 0.984 . S
H863 N850 0.985 . S
C864 C865 1.363 . S
C864 C870 1.379 . S
C864 N872 1.356 . S
C865 C864 1.363 . S
C865 C871 1.363 . S
C866 C867 1.363 . S
C866 C871 1.379 . S
C866 N873 1.356 . S
C867 C866 1.363 . S
C867 C870 1.363 . S
N868 C870 1.356 . S
N868 H880 0.984 . S
N868 H881 0.985 . S
N869 C871 1.356 . S
N869 H874 0.984 . S
N869 H875 0.985 . S
C870 C864 1.379 . S
C870 C867 1.363 . S
C870 N868 1.356 . S
C871 C865 1.363 . S
C871 C866 1.379 . S
C871 N869 1.356 . S
N872 C864 1.356 . S
N872 H878 0.984 . S
N872 H879 0.984 . S
N873 C866 1.356 . S
N873 H876 0.984 . S
N873 H877 0.985 . S
H874 N869 0.984 . S
H875 N869 0.985 . S
H876 N873 0.984 . S
H877 N873 0.985 . S
H878 N872 0.984 . S
H879 N872 0.984 . S
H880 N868 0.984 . S
H881 N868 0.985 . S
C882 C883 1.363 . S
C882 C888 1.379 . S
C882 N890 1.356 . S
C883 C882 1.363 . S
C883 C889 1.363 . S
C884 C885 1.363 . S
C884 C889 1.379 . S
C884 N891 1.356 . S
C885 C884 1.363 . S
C885 C888 1.363 . S
N886 C888 1.356 . S
N886 H898 1.001 . S
N886 H899 0.985 . S
N887 C889 1.356 . S
N887 H892 0.984 . S
N887 H893 0.985 . S
C888 C882 1.379 . S
C888 C885 1.363 . S
C888 N886 1.356 . S
C889 C883 1.363 . S
C889 C884 1.379 . S
C889 N887 1.356 . S
N890 C882 1.356 . S
N890 H896 0.984 . S
N890 H897 0.984 . S
N891 C884 1.356 . S
N891 H894 0.984 . S
N891 H895 0.985 . S
H892 N887 0.984 . S
H893 N887 0.985 . S
H894 N891 0.984 . S
H895 N891 0.985 . S
H896 N890 0.984 . S
H897 N890 0.984 . S
H898 N886 1.001 . S
H899 N886 0.985 . S
C900 C901 1.363 . S
C900 C906 1.379 . S
C900 N908 1.356 . S
C901 C900 1.363 . S
C901 C907 1.363 . S
C902 C903 1.363 . S
C902 C907 1.379 . S
C902 N909 1.356 . S
C903 C902 1.363 . S
C903 C906 1.363 . S
N904 C906 1.356 . S
N904 H916 0.984 . S
N904 H917 0.985 . S
N905 C907 1.356 . S
N905 H910 0.984 . S
N905 H911 0.985 . S
C906 C900 1.379 . S
C906 C903 1.363 . S
C906 N904 1.356 . S
C907 C901 1.363 . S
C907 C902 1.379 . S
C907 N905 1.356 . S
N908 C900 1.356 . S
N908 H914 0.984 . S
N908 H915 0.984 . S
N909 C902 1.356 . S
N909 H912 0.984 . S
N909 H913 0.985 . S
H910 N905 0.984 . S
H911 N905 0.985 . S
H912 N909 0.984 . S
H913 N909 0.985 . S
H914 N908 0.984 . S
H915 N908 0.984 . S
H916 N904 0.984 . S
H917 N904 0.985 . S
C918 C919 1.363 . S
C918 C924 1.379 . S
C918 N926 1.356 . S
C919 C918 1.363 . S
C919 C925 1.363 . S
C920 C921 1.363 . S
C920 C925 1.379 . S
C920 N927 1.356 . S
C921 C920 1.363 . S
C921 C924 1.363 . S
N922 C924 1.356 . S
N922 H934 0.984 . S
N922 H935 0.985 . S
N923 C925 1.356 . S
N923 H928 0.984 . S
N923 H929 0.985 . S
C924 C918 1.379 . S
C924 C921 1.363 . S
C924 N922 1.356 . S
C925 C919 1.363 . S
C925 C920 1.379 . S
C925 N923 1.356 . S
N926 C918 1.356 . S
N926 H932 0.984 . S
N926 H933 0.984 . S
N927 C920 1.356 . S
N927 H930 0.984 . S
N927 H931 0.985 . S
H928 N923 0.984 . S
H929 N923 0.985 . S
H930 N927 0.984 . S
H931 N927 0.985 . S
H932 N926 0.984 . S
H933 N926 0.984 . S
H934 N922 0.984 . S
H935 N922 0.985 . S
C936 C937 1.363 1_455 S
C936 C942 1.379 1_556 S
C936 N944 1.356 . S
C937 C936 1.363 1_655 S
C937 C943 1.363 . S
C938 C939 1.363 1_655 S
C938 C943 1.379 1_554 S
C938 N945 1.356 . S
C939 C938 1.363 1_455 S
C939 C942 1.363 . S
N940 C942 1.356 . S
N940 H952 0.984 . S
N940 H953 0.985 . S
N941 C943 1.356 . S
N941 H946 0.984 . S
N941 H947 0.985 . S
C942 C936 1.379 1_554 S
C942 C939 1.363 . S
C942 N940 1.356 . S
C943 C937 1.363 . S
C943 C938 1.379 1_556 S
C943 N941 1.356 . S
N944 C936 1.356 . S
N944 H950 0.984 . S
N944 H951 0.984 1_455 S
N945 C938 1.356 . S
N945 H948 0.984 1_655 S
N945 H949 0.985 . S
H946 N941 0.984 . S
H947 N941 0.985 . S
H948 N945 0.984 1_455 S
H949 N945 0.985 . S
H950 N944 0.984 . S
H951 N944 0.984 1_655 S
H952 N940 0.984 . S
H953 N940 0.985 . S
C954 C955 1.363 . S
C954 C960 1.379 1_556 S
C954 N962 1.356 . S
C955 C954 1.363 . S
C955 C961 1.363 . S
C956 C957 1.363 . S
C956 C961 1.379 1_554 S
C956 N963 1.356 . S
C957 C956 1.363 . S
C957 C960 1.363 . S
N958 C960 1.356 . S
N958 H970 0.984 . S
N958 H971 0.985 . S
N959 C961 1.356 . S
N959 H964 0.984 . S
N959 H965 0.985 . S
C960 C954 1.379 1_554 S
C960 C957 1.363 . S
C960 N958 1.356 . S
C961 C955 1.363 . S
C961 C956 1.379 1_556 S
C961 N959 1.356 . S
N962 C954 1.356 . S
N962 H968 0.984 . S
N962 H969 0.984 . S
N963 C956 1.356 . S
N963 H966 0.984 . S
N963 H967 0.985 . S
H964 N959 0.984 . S
H965 N959 0.985 . S
H966 N963 0.984 . S
H967 N963 0.985 . S
H968 N962 0.984 . S
H969 N962 0.984 . S
H970 N958 0.984 . S
H971 N958 0.985 . S
C972 C973 1.363 . S
C972 C978 1.379 1_556 S
C972 N980 1.356 . S
C973 C972 1.363 . S
C973 C979 1.363 1_545 S
C974 C975 1.363 1_556 S
C974 C979 1.379 . S
C974 N981 1.356 . S
C975 C974 1.363 1_554 S
C975 C978 1.363 1_565 S
N976 C978 1.356 . S
N976 H988 0.984 . S
N976 H989 0.985 . S
N977 C979 1.356 . S
N977 H982 0.984 . S
N977 H983 0.985 . S
C978 C972 1.379 1_554 S
C978 C975 1.363 1_545 S
C978 N976 1.356 . S
C979 C973 1.363 1_565 S
C979 C974 1.379 . S
C979 N977 1.356 . S
N980 C972 1.356 . S
N980 H986 0.984 . S
N980 H987 0.984 . S
N981 C974 1.356 . S
N981 H984 0.984 1_556 S
N981 H985 0.985 . S
H982 N977 0.984 . S
H983 N977 0.985 . S
H984 N981 0.984 1_554 S
H985 N981 0.985 . S
H986 N980 0.984 . S
H987 N980 0.984 . S
H988 N976 0.984 . S
H989 N976 0.985 . S
C990 C991 1.363 1_554 S
C990 C996 1.379 . S
C990 N998 1.356 1_554 S
C991 C990 1.363 1_556 S
C991 C997 1.363 1_545 S
C992 C993 1.363 . S
C992 C997 1.379 1_554 S
C992 N999 1.356 . S
C993 C992 1.363 . S
C993 C996 1.363 1_565 S
N994 C996 1.356 . S
N994 H1006 0.984 . S
N994 H1007 0.985 . S
N995 C997 1.356 . S
N995 H1000 0.984 . S
N995 H1001 0.985 . S
C996 C990 1.379 . S
C996 C993 1.363 1_545 S
C996 N994 1.356 . S
C997 C991 1.363 1_565 S
C997 C992 1.379 1_556 S
C997 N995 1.356 . S
N998 C990 1.356 1_556 S
N998 H1004 0.984 1_556 S
N998 H1005 0.984 . S
N999 C992 1.356 . S
N999 H1002 0.984 . S
N999 H1003 0.985 . S
H1000 N995 0.984 . S
H1001 N995 0.985 . S
H1002 N999 0.984 . S
H1003 N999 0.985 . S
H1004 N998 0.984 1_554 S
H1005 N998 0.984 . S
H1006 N994 0.984 . S
H1007 N994 0.985 . S
C1008 C1009 1.372 . S
C1008 C1014 1.375 1_455 S
C1008 N1016 1.354 . S
C1009 C1008 1.372 . S
C1009 C1015 1.363 . S
C1010 C1011 1.363 1_455 S
C1010 C1015 1.379 1_556 S
C1010 N1017 1.356 . S
C1011 C1010 1.363 1_655 S
C1011 C1014 1.363 1_556 S
N1012 C1014 1.356 1_556 S
N1012 H1024 0.984 1_556 S
N1012 H1025 0.985 . S
N1013 C1015 1.356 . S
N1013 H1018 0.984 . S
N1013 H1019 0.985 . S
C1014 C1008 1.375 1_655 S
C1014 C1011 1.363 1_554 S
C1014 N1012 1.356 1_554 S
C1015 C1009 1.363 . S
C1015 C1010 1.379 1_554 S
C1015 N1013 1.356 . S
N1016 C1008 1.354 . S
N1016 H1022 0.984 1_455 S
N1016 H1023 0.984 . S
N1017 C1010 1.356 . S
N1017 H1020 0.984 1_455 S
N1017 H1021 0.985 . S
H1018 N1013 0.984 . S
H1019 N1013 0.985 . S
H1020 N1017 0.984 1_655 S
H1021 N1017 0.985 . S
H1022 N1016 0.984 1_655 S
H1023 N1016 0.984 . S
H1024 N1012 0.984 1_554 S
H1025 N1012 0.985 . S
C1026 C1027 1.363 . S
C1026 C1032 1.379 1_554 S
C1026 N1034 1.356 . S
C1027 C1026 1.363 . S
C1027 C1033 1.363 . S
C1028 C1029 1.363 1_554 S
C1028 C1033 1.379 . S
C1028 N1035 1.356 1_554 S
C1029 C1028 1.363 1_556 S
C1029 C1032 1.363 . S
N1030 C1032 1.356 . S
N1030 H1042 0.984 . S
N1030 H1043 0.985 . S
N1031 C1033 1.356 . S
N1031 H1036 0.984 . S
N1031 H1037 0.985 . S
C1032 C1026 1.379 1_556 S
C1032 C1029 1.363 . S
C1032 N1030 1.356 . S
C1033 C1027 1.363 . S
C1033 C1028 1.379 . S
C1033 N1031 1.356 . S
N1034 C1026 1.356 . S
N1034 H1040 0.984 . S
N1034 H1041 0.984 . S
N1035 C1028 1.356 1_556 S
N1035 H1038 0.984 . S
N1035 H1039 0.985 1_556 S
H1036 N1031 0.984 . S
H1037 N1031 0.985 . S
H1038 N1035 0.984 . S
H1039 N1035 0.985 1_554 S
H1040 N1034 0.984 . S
H1041 N1034 0.984 . S
H1042 N1030 0.984 . S
H1043 N1030 0.985 . S
C1044 C1045 1.363 . S
C1044 C1050 1.379 . S
C1044 N1052 1.356 . S
C1045 C1044 1.363 . S
C1045 C1051 1.363 . S
C1046 C1047 1.363 . S
C1046 C1051 1.379 . S
C1046 N1053 1.356 . S
C1047 C1046 1.363 . S
C1047 C1050 1.363 . S
N1048 C1050 1.356 . S
N1048 H1060 0.984 . S
N1048 H1061 0.985 . S
N1049 C1051 1.356 . S
N1049 H1054 0.984 . S
N1049 H1055 0.985 . S
C1050 C1044 1.379 . S
C1050 C1047 1.363 . S
C1050 N1048 1.356 . S
C1051 C1045 1.363 . S
C1051 C1046 1.379 . S
C1051 N1049 1.356 . S
N1052 C1044 1.356 . S
N1052 H1058 0.984 . S
N1052 H1059 0.984 . S
N1053 C1046 1.356 . S
N1053 H1056 0.984 . S
N1053 H1057 0.985 . S
H1054 N1049 0.984 . S
H1055 N1049 0.985 . S
H1056 N1053 0.984 . S
H1057 N1053 0.985 . S
H1058 N1052 0.984 . S
H1059 N1052 0.984 . S
H1060 N1048 0.984 . S
H1061 N1048 0.985 . S
C1062 C1063 1.363 . S
C1062 C1068 1.379 . S
C1062 N1070 1.356 . S
C1063 C1062 1.363 . S
C1063 C1069 1.363 . S
C1064 C1065 1.363 . S
C1064 C1069 1.379 . S
C1064 N1071 1.356 . S
C1065 C1064 1.363 . S
C1065 C1068 1.363 . S
N1066 C1068 1.356 . S
N1066 H1078 0.984 . S
N1066 H1079 0.985 . S
N1067 C1069 1.356 . S
N1067 H1072 0.984 . S
N1067 H1073 0.985 . S
C1068 C1062 1.379 . S
C1068 C1065 1.363 . S
C1068 N1066 1.356 . S
C1069 C1063 1.363 . S
C1069 C1064 1.379 . S
C1069 N1067 1.356 . S
N1070 C1062 1.356 . S
N1070 H1076 0.984 . S
N1070 H1077 0.984 . S
N1071 C1064 1.356 . S
N1071 H1074 0.984 . S
N1071 H1075 0.985 . S
H1072 N1067 0.984 . S
H1073 N1067 0.985 . S
H1074 N1071 0.984 . S
H1075 N1071 0.985 . S
H1076 N1070 0.984 . S
H1077 N1070 0.984 . S
H1078 N1066 0.984 . S
H1079 N1066 0.985 . S
C1080 C1081 1.363 . S
C1080 C1086 1.379 . S
C1080 N1088 1.356 . S
C1081 C1080 1.363 . S
C1081 C1087 1.363 . S
C1082 C1083 1.363 . S
C1082 C1087 1.379 . S
C1082 N1089 1.356 . S
C1083 C1082 1.363 . S
C1083 C1086 1.363 . S
N1084 C1086 1.356 . S
N1084 H1096 0.984 . S
N1084 H1097 0.985 . S
N1085 C1087 1.356 . S
N1085 H1090 0.984 . S
N1085 H1091 0.985 . S
C1086 C1080 1.379 . S
C1086 C1083 1.363 . S
C1086 N1084 1.356 . S
C1087 C1081 1.363 . S
C1087 C1082 1.379 . S
C1087 N1085 1.356 . S
N1088 C1080 1.356 . S
N1088 H1094 0.984 . S
N1088 H1095 0.984 . S
N1089 C1082 1.356 . S
N1089 H1092 0.984 . S
N1089 H1093 0.985 . S
H1090 N1085 0.984 . S
H1091 N1085 0.985 . S
H1092 N1089 0.984 . S
H1093 N1089 0.985 . S
H1094 N1088 0.984 . S
H1095 N1088 0.984 . S
H1096 N1084 0.984 . S
H1097 N1084 0.985 . S
C1098 C1099 1.363 . S
C1098 C1104 1.379 . S
C1098 N1106 1.356 . S
C1099 C1098 1.363 . S
C1099 C1105 1.363 . S
C1100 C1101 1.363 . S
C1100 C1105 1.379 . S
C1100 N1107 1.356 . S
C1101 C1100 1.363 . S
C1101 C1104 1.363 . S
N1102 C1104 1.356 . S
N1102 H1114 0.984 . S
N1102 H1115 0.985 . S
N1103 C1105 1.356 . S
N1103 H1108 0.984 . S
N1103 H1109 0.985 . S
C1104 C1098 1.379 . S
C1104 C1101 1.363 . S
C1104 N1102 1.356 . S
C1105 C1099 1.363 . S
C1105 C1100 1.379 . S
C1105 N1103 1.356 . S
N1106 C1098 1.356 . S
N1106 H1112 0.984 . S
N1106 H1113 0.984 . S
N1107 C1100 1.356 . S
N1107 H1110 0.984 . S
N1107 H1111 0.985 . S
H1108 N1103 0.984 . S
H1109 N1103 0.985 . S
H1110 N1107 0.984 . S
H1111 N1107 0.985 . S
H1112 N1106 0.984 . S
H1113 N1106 0.984 . S
H1114 N1102 0.984 . S
H1115 N1102 0.985 . S
C1116 C1117 1.363 . S
C1116 C1122 1.379 . S
C1116 N1124 1.356 . S
C1117 C1116 1.363 . S
C1117 C1123 1.363 . S
C1118 C1119 1.363 . S
C1118 C1123 1.379 . S
C1118 N1125 1.356 . S
C1119 C1118 1.363 . S
C1119 C1122 1.363 . S
N1120 C1122 1.356 . S
N1120 H1132 0.984 . S
N1120 H1133 0.985 . S
N1121 C1123 1.356 . S
N1121 H1126 0.984 . S
N1121 H1127 0.985 . S
C1122 C1116 1.379 . S
C1122 C1119 1.363 . S
C1122 N1120 1.356 . S
C1123 C1117 1.363 . S
C1123 C1118 1.379 . S
C1123 N1121 1.356 . S
N1124 C1116 1.356 . S
N1124 H1130 0.984 . S
N1124 H1131 0.984 . S
N1125 C1118 1.356 . S
N1125 H1128 0.984 . S
N1125 H1129 0.985 . S
H1126 N1121 0.984 . S
H1127 N1121 0.985 . S
H1128 N1125 0.984 . S
H1129 N1125 0.985 . S
H1130 N1124 0.984 . S
H1131 N1124 0.984 . S
H1132 N1120 0.984 . S
H1133 N1120 0.985 . S
C1134 C1135 1.363 . S
C1134 C1140 1.379 . S
C1134 N1142 1.356 . S
C1135 C1134 1.363 . S
C1135 C1141 1.363 . S
C1136 C1137 1.363 . S
C1136 C1141 1.379 . S
C1136 N1143 1.356 . S
C1137 C1136 1.363 . S
C1137 C1140 1.363 . S
N1138 C1140 1.356 . S
N1138 H1150 0.984 . S
N1138 H1151 0.985 . S
N1139 C1141 1.356 . S
N1139 H1144 0.984 . S
N1139 H1145 0.985 . S
C1140 C1134 1.379 . S
C1140 C1137 1.363 . S
C1140 N1138 1.356 . S
C1141 C1135 1.363 . S
C1141 C1136 1.379 . S
C1141 N1139 1.356 . S
N1142 C1134 1.356 . S
N1142 H1148 0.984 . S
N1142 H1149 0.984 . S
N1143 C1136 1.356 . S
N1143 H1146 0.984 . S
N1143 H1147 0.985 . S
H1144 N1139 0.984 . S
H1145 N1139 0.985 . S
H1146 N1143 0.984 . S
H1147 N1143 0.985 . S
H1148 N1142 0.984 . S
H1149 N1142 0.984 . S
H1150 N1138 0.984 . S
H1151 N1138 0.985 . S
C1152 C1153 1.363 . S
C1152 C1158 1.379 . S
C1152 N1160 1.356 . S
C1153 C1152 1.363 . S
C1153 C1159 1.363 . S
C1154 C1155 1.363 . S
C1154 C1159 1.379 . S
C1154 N1161 1.356 . S
C1155 C1154 1.363 . S
C1155 C1158 1.363 . S
N1156 C1158 1.356 . S
N1156 H1168 0.984 . S
N1156 H1169 0.985 . S
N1157 C1159 1.356 . S
N1157 H1162 0.984 . S
N1157 H1163 0.985 . S
C1158 C1152 1.379 . S
C1158 C1155 1.363 . S
C1158 N1156 1.356 . S
C1159 C1153 1.363 . S
C1159 C1154 1.379 . S
C1159 N1157 1.356 . S
N1160 C1152 1.356 . S
N1160 H1166 0.984 . S
N1160 H1167 0.984 . S
N1161 C1154 1.356 . S
N1161 H1164 0.984 . S
N1161 H1165 0.985 . S
H1162 N1157 0.984 . S
H1163 N1157 0.985 . S
H1164 N1161 0.984 . S
H1165 N1161 0.985 . S
H1166 N1160 0.984 . S
H1167 N1160 0.984 . S
H1168 N1156 0.984 . S
H1169 N1156 0.985 . S
C1170 C1171 1.363 . S
C1170 C1176 1.379 . S
C1170 N1178 1.356 . S
C1171 C1170 1.363 . S
C1171 C1177 1.363 . S
C1172 C1173 1.363 . S
C1172 C1177 1.379 . S
C1172 N1179 1.356 . S
C1173 C1172 1.363 . S
C1173 C1176 1.363 . S
N1174 C1176 1.356 . S
N1174 H1186 0.984 . S
N1174 H1187 0.985 . S
N1175 C1177 1.356 . S
N1175 H1180 0.984 . S
N1175 H1181 0.985 . S
C1176 C1170 1.379 . S
C1176 C1173 1.363 . S
C1176 N1174 1.356 . S
C1177 C1171 1.363 . S
C1177 C1172 1.379 . S
C1177 N1175 1.356 . S
N1178 C1170 1.356 . S
N1178 H1184 0.984 . S
N1178 H1185 0.984 . S
N1179 C1172 1.356 . S
N1179 H1182 0.984 . S
N1179 H1183 0.985 . S
H1180 N1175 0.984 . S
H1181 N1175 0.985 . S
H1182 N1179 0.984 . S
H1183 N1179 0.985 . S
H1184 N1178 0.984 . S
H1185 N1178 0.984 . S
H1186 N1174 0.984 . S
H1187 N1174 0.985 . S
C1188 C1189 1.363 . S
C1188 C1194 1.379 . S
C1188 N1196 1.356 . S
C1189 C1188 1.363 . S
C1189 C1195 1.363 . S
C1190 C1191 1.363 . S
C1190 C1195 1.379 . S
C1190 N1197 1.356 . S
C1191 C1190 1.363 . S
C1191 C1194 1.363 . S
N1192 C1194 1.356 . S
N1192 H1204 0.984 . S
N1192 H1205 0.985 . S
N1193 C1195 1.356 . S
N1193 H1198 0.984 . S
N1193 H1199 0.985 . S
C1194 C1188 1.379 . S
C1194 C1191 1.363 . S
C1194 N1192 1.356 . S
C1195 C1189 1.363 . S
C1195 C1190 1.379 . S
C1195 N1193 1.356 . S
N1196 C1188 1.356 . S
N1196 H1202 0.984 . S
N1196 H1203 0.984 . S
N1197 C1190 1.356 . S
N1197 H1200 0.984 . S
N1197 H1201 0.985 . S
H1198 N1193 0.984 . S
H1199 N1193 0.985 . S
H1200 N1197 0.984 . S
H1201 N1197 0.985 . S
H1202 N1196 0.984 . S
H1203 N1196 0.984 . S
H1204 N1192 0.984 . S
H1205 N1192 0.985 . S
C1206 C1207 1.363 . S
C1206 C1212 1.379 . S
C1206 N1214 1.356 . S
C1207 C1206 1.363 . S
C1207 C1213 1.363 . S
C1208 C1209 1.363 . S
C1208 C1213 1.379 . S
C1208 N1215 1.356 . S
C1209 C1208 1.363 . S
C1209 C1212 1.363 . S
N1210 C1212 1.356 . S
N1210 H1222 0.984 . S
N1210 H1223 0.985 . S
N1211 C1213 1.356 . S
N1211 H1216 0.984 . S
N1211 H1217 0.985 . S
C1212 C1206 1.379 . S
C1212 C1209 1.363 . S
C1212 N1210 1.356 . S
C1213 C1207 1.363 . S
C1213 C1208 1.379 . S
C1213 N1211 1.356 . S
N1214 C1206 1.356 . S
N1214 H1220 0.984 . S
N1214 H1221 0.984 . S
N1215 C1208 1.356 . S
N1215 H1218 0.984 . S
N1215 H1219 0.985 . S
H1216 N1211 0.984 . S
H1217 N1211 0.985 . S
H1218 N1215 0.984 . S
H1219 N1215 0.985 . S
H1220 N1214 0.984 . S
H1221 N1214 0.984 . S
H1222 N1210 0.984 . S
H1223 N1210 0.985 . S
C1224 C1225 1.363 . S
C1224 C1230 1.379 . S
C1224 N1232 1.356 . S
C1225 C1224 1.363 . S
C1225 C1231 1.363 . S
C1226 C1227 1.363 . S
C1226 C1231 1.379 . S
C1226 N1233 1.356 . S
C1227 C1226 1.363 . S
C1227 C1230 1.363 . S
N1228 C1230 1.356 . S
N1228 H1240 0.984 . S
N1228 H1241 0.985 . S
N1229 C1231 1.356 . S
N1229 H1234 0.984 . S
N1229 H1235 0.985 . S
C1230 C1224 1.379 . S
C1230 C1227 1.363 . S
C1230 N1228 1.356 . S
C1231 C1225 1.363 . S
C1231 C1226 1.379 . S
C1231 N1229 1.356 . S
N1232 C1224 1.356 . S
N1232 H1238 0.984 . S
N1232 H1239 0.984 . S
N1233 C1226 1.356 . S
N1233 H1236 0.984 . S
N1233 H1237 0.985 . S
H1234 N1229 0.984 . S
H1235 N1229 0.985 . S
H1236 N1233 0.984 . S
H1237 N1233 0.985 . S
H1238 N1232 0.984 . S
H1239 N1232 0.984 . S
H1240 N1228 0.984 . S
H1241 N1228 0.985 . S
C1242 C1243 1.363 . S
C1242 C1248 1.379 . S
C1242 N1250 1.356 . S
C1243 C1242 1.363 . S
C1243 C1249 1.363 . S
C1244 C1245 1.363 . S
C1244 C1249 1.379 . S
C1244 N1251 1.356 . S
C1245 C1244 1.363 . S
C1245 C1248 1.363 . S
N1246 C1248 1.356 . S
N1246 H1258 0.984 . S
N1246 H1259 0.985 . S
N1247 C1249 1.356 . S
N1247 H1252 0.984 . S
N1247 H1253 0.985 . S
C1248 C1242 1.379 . S
C1248 C1245 1.363 . S
C1248 N1246 1.356 . S
C1249 C1243 1.363 . S
C1249 C1244 1.379 . S
C1249 N1247 1.356 . S
N1250 C1242 1.356 . S
N1250 H1256 0.984 . S
N1250 H1257 0.984 . S
N1251 C1244 1.356 . S
N1251 H1254 0.984 . S
N1251 H1255 0.985 . S
H1252 N1247 0.984 . S
H1253 N1247 0.985 . S
H1254 N1251 0.984 . S
H1255 N1251 0.985 . S
H1256 N1250 0.984 . S
H1257 N1250 0.984 . S
H1258 N1246 0.984 . S
H1259 N1246 0.985 . S
C1260 C1261 1.363 . S
C1260 C1266 1.379 . S
C1260 N1268 1.356 . S
C1261 C1260 1.363 . S
C1261 C1267 1.363 . S
C1262 C1263 1.363 . S
C1262 C1267 1.379 . S
C1262 N1269 1.356 . S
C1263 C1262 1.363 . S
C1263 C1266 1.363 . S
N1264 C1266 1.356 . S
N1264 H1276 0.984 . S
N1264 H1277 0.985 . S
N1265 C1267 1.356 . S
N1265 H1270 0.984 . S
N1265 H1271 0.985 . S
C1266 C1260 1.379 . S
C1266 C1263 1.363 . S
C1266 N1264 1.356 . S
C1267 C1261 1.363 . S
C1267 C1262 1.379 . S
C1267 N1265 1.356 . S
N1268 C1260 1.356 . S
N1268 H1274 0.984 . S
N1268 H1275 0.984 . S
N1269 C1262 1.356 . S
N1269 H1272 0.984 . S
N1269 H1273 0.985 . S
H1270 N1265 0.984 . S
H1271 N1265 0.985 . S
H1272 N1269 0.984 . S
H1273 N1269 0.985 . S
H1274 N1268 0.984 . S
H1275 N1268 0.984 . S
H1276 N1264 0.984 . S
H1277 N1264 0.985 . S
C1278 C1279 1.363 . S
C1278 C1284 1.379 . S
C1278 N1286 1.356 . S
C1279 C1278 1.363 . S
C1279 C1285 1.363 . S
C1280 C1281 1.363 . S
C1280 C1285 1.379 . S
C1280 N1287 1.356 . S
C1281 C1280 1.363 . S
C1281 C1284 1.363 . S
N1282 C1284 1.356 . S
N1282 H1294 0.984 1_554 S
N1282 H1295 0.985 . S
N1283 C1285 1.356 . S
N1283 H1288 0.984 . S
N1283 H1289 0.985 . S
C1284 C1278 1.379 . S
C1284 C1281 1.363 . S
C1284 N1282 1.356 . S
C1285 C1279 1.363 . S
C1285 C1280 1.379 . S
C1285 N1283 1.356 . S
N1286 C1278 1.356 . S
N1286 H1292 0.984 1_554 S
N1286 H1293 0.984 . S
N1287 C1280 1.356 . S
N1287 H1290 0.984 . S
N1287 H1291 0.985 . S
H1288 N1283 0.984 . S
H1289 N1283 0.985 . S
H1290 N1287 0.984 . S
H1291 N1287 0.985 . S
H1292 N1286 0.984 1_556 S
H1293 N1286 0.984 . S
H1294 N1282 0.984 1_556 S
H1295 N1282 0.985 . S
C1296 C1297 1.363 . S
C1296 C1302 1.379 . S
C1296 N1304 1.356 . S
C1297 C1296 1.363 . S
C1297 C1303 1.363 . S
C1298 C1299 1.363 . S
C1298 C1303 1.379 . S
C1298 N1305 1.356 . S
C1299 C1298 1.363 . S
C1299 C1302 1.363 . S
N1300 C1302 1.356 . S
N1300 H1312 0.984 . S
N1300 H1313 0.985 . S
N1301 C1303 1.356 . S
N1301 H1306 0.984 . S
N1301 H1307 0.985 . S
C1302 C1296 1.379 . S
C1302 C1299 1.363 . S
C1302 N1300 1.356 . S
C1303 C1297 1.363 . S
C1303 C1298 1.379 . S
C1303 N1301 1.356 . S
N1304 C1296 1.356 . S
N1304 H1310 0.984 . S
N1304 H1311 0.984 . S
N1305 C1298 1.356 . S
N1305 H1308 0.984 . S
N1305 H1309 0.985 . S
H1306 N1301 0.984 . S
H1307 N1301 0.985 . S
H1308 N1305 0.984 . S
H1309 N1305 0.985 . S
H1310 N1304 0.984 . S
H1311 N1304 0.984 . S
H1312 N1300 0.984 . S
H1313 N1300 0.985 . S
C1314 C1315 1.363 . S
C1314 C1320 1.379 . S
C1314 N1322 1.356 . S
C1315 C1314 1.363 . S
C1315 C1321 1.363 . S
C1316 C1317 1.363 . S
C1316 C1321 1.379 . S
C1316 N1323 1.356 . S
C1317 C1316 1.363 . S
C1317 C1320 1.363 . S
N1318 C1320 1.356 . S
N1318 H1330 0.984 . S
N1318 H1331 0.985 . S
N1319 C1321 1.356 . S
N1319 H1324 0.984 . S
N1319 H1325 0.985 . S
C1320 C1314 1.379 . S
C1320 C1317 1.363 . S
C1320 N1318 1.356 . S
C1321 C1315 1.363 . S
C1321 C1316 1.379 . S
C1321 N1319 1.356 . S
N1322 C1314 1.356 . S
N1322 H1328 0.984 . S
N1322 H1329 0.984 . S
N1323 C1316 1.356 . S
N1323 H1326 0.984 . S
N1323 H1327 0.985 . S
H1324 N1319 0.984 . S
H1325 N1319 0.985 . S
H1326 N1323 0.984 . S
H1327 N1323 0.985 . S
H1328 N1322 0.984 . S
H1329 N1322 0.984 . S
H1330 N1318 0.984 . S
H1331 N1318 0.985 . S
C1332 C1333 1.363 . S
C1332 C1338 1.379 . S
C1332 N1340 1.356 . S
C1333 C1332 1.363 . S
C1333 C1339 1.363 . S
C1334 C1335 1.363 . S
C1334 C1339 1.379 . S
C1334 N1341 1.356 . S
C1335 C1334 1.363 . S
C1335 C1338 1.363 . S
N1336 C1338 1.356 . S
N1336 H1348 0.984 . S
N1336 H1349 0.985 . S
N1337 C1339 1.356 . S
N1337 H1342 0.984 . S
N1337 H1343 0.985 . S
C1338 C1332 1.379 . S
C1338 C1335 1.363 . S
C1338 N1336 1.356 . S
C1339 C1333 1.363 . S
C1339 C1334 1.379 . S
C1339 N1337 1.356 . S
N1340 C1332 1.356 . S
N1340 H1346 0.984 . S
N1340 H1347 0.984 . S
N1341 C1334 1.356 . S
N1341 H1344 0.984 . S
N1341 H1345 0.985 . S
H1342 N1337 0.984 . S
H1343 N1337 0.985 . S
H1344 N1341 0.984 . S
H1345 N1341 0.985 . S
H1346 N1340 0.984 . S
H1347 N1340 0.984 . S
H1348 N1336 0.984 . S
H1349 N1336 0.985 . S
C1350 C1351 1.363 . S
C1350 C1356 1.379 . S
C1350 N1358 1.356 . S
C1351 C1350 1.363 . S
C1351 C1357 1.363 . S
C1352 C1353 1.363 . S
C1352 C1357 1.379 . S
C1352 N1359 1.356 . S
C1353 C1352 1.363 . S
C1353 C1356 1.363 . S
N1354 C1356 1.356 . S
N1354 H1366 0.984 . S
N1354 H1367 0.985 . S
N1355 C1357 1.356 . S
N1355 H1360 0.984 . S
N1355 H1361 0.985 . S
C1356 C1350 1.379 . S
C1356 C1353 1.363 . S
C1356 N1354 1.356 . S
C1357 C1351 1.363 . S
C1357 C1352 1.379 . S
C1357 N1355 1.356 . S
N1358 C1350 1.356 . S
N1358 H1364 0.984 . S
N1358 H1365 0.984 . S
N1359 C1352 1.356 . S
N1359 H1362 0.984 . S
N1359 H1363 0.985 . S
H1360 N1355 0.984 . S
H1361 N1355 0.985 . S
H1362 N1359 0.984 . S
H1363 N1359 0.985 . S
H1364 N1358 0.984 . S
H1365 N1358 0.984 . S
H1366 N1354 0.984 . S
H1367 N1354 0.985 . S
C1368 C1369 1.363 . S
C1368 C1374 1.379 . S
C1368 N1376 1.356 . S
C1369 C1368 1.363 . S
C1369 C1375 1.363 . S
C1370 C1371 1.363 . S
C1370 C1375 1.379 1_556 S
C1370 N1377 1.356 . S
C1371 C1370 1.363 . S
C1371 C1374 1.363 1_556 S
N1372 C1374 1.356 . S
N1372 H1384 0.984 . S
N1372 H1385 0.985 1_554 S
N1373 C1375 1.356 1_655 S
N1373 H1378 0.984 . S
N1373 H1379 0.985 . S
C1374 C1368 1.379 . S
C1374 C1371 1.363 1_554 S
C1374 N1372 1.356 . S
C1375 C1369 1.363 . S
C1375 C1370 1.379 1_554 S
C1375 N1373 1.356 1_455 S
N1376 C1368 1.356 . S
N1376 H1382 0.984 . S
N1376 H1383 0.984 . S
N1377 C1370 1.356 . S
N1377 H1380 0.984 . S
N1377 H1381 1.004 . S
H1378 N1373 0.984 . S
H1379 N1373 0.985 . S
H1380 N1377 0.984 . S
H1381 N1377 1.004 . S
H1382 N1376 0.984 . S
H1383 N1376 0.984 . S
H1384 N1372 0.984 . S
H1385 N1372 0.985 1_556 S
C1386 C1387 1.363 . S
C1386 C1392 1.379 1_554 S
C1386 N1394 1.356 . S
C1387 C1386 1.363 . S
C1387 C1393 1.363 . S
C1388 C1389 1.363 . S
C1388 C1393 1.379 1_556 S
C1388 N1395 1.356 . S
C1389 C1388 1.363 . S
C1389 C1392 1.363 . S
N1390 C1392 1.356 . S
N1390 H1402 0.984 . S
N1390 H1403 0.985 . S
N1391 C1393 1.356 . S
N1391 H1396 0.984 . S
N1391 H1397 0.985 . S
C1392 C1386 1.379 1_556 S
C1392 C1389 1.363 . S
C1392 N1390 1.356 . S
C1393 C1387 1.363 . S
C1393 C1388 1.379 1_554 S
C1393 N1391 1.356 . S
N1394 C1386 1.356 . S
N1394 H1400 0.984 . S
N1394 H1401 0.984 . S
N1395 C1388 1.356 . S
N1395 H1398 0.984 . S
N1395 H1399 0.985 . S
H1396 N1391 0.984 . S
H1397 N1391 0.985 . S
H1398 N1395 0.984 . S
H1399 N1395 0.985 . S
H1400 N1394 0.984 . S
H1401 N1394 0.984 . S
H1402 N1390 0.984 . S
H1403 N1390 0.985 . S
C1404 C1405 1.363 1_545 S
C1404 C1410 1.379 1_554 S
C1404 N1412 1.356 . S
C1405 C1404 1.363 1_565 S
C1405 C1411 1.363 1_554 S
C1406 C1407 1.363 1_565 S
C1406 C1411 1.379 . S
C1406 N1413 1.356 . S
C1407 C1406 1.363 1_545 S
C1407 C1410 1.363 . S
N1408 C1410 1.356 . S
N1408 H1420 0.984 1_556 S
N1408 H1421 0.985 . S
N1409 C1411 1.356 1_554 S
N1409 H1414 0.984 . S
N1409 H1415 0.985 1_554 S
C1410 C1404 1.379 1_556 S
C1410 C1407 1.363 . S
C1410 N1408 1.356 . S
C1411 C1405 1.363 1_556 S
C1411 C1406 1.379 . S
C1411 N1409 1.356 1_556 S
N1412 C1404 1.356 . S
N1412 H1418 0.984 . S
N1412 H1419 0.984 1_545 S
N1413 C1406 1.356 . S
N1413 H1416 0.982 1_565 S
N1413 H1417 0.987 . S
H1414 N1409 0.984 . S
H1415 N1409 0.985 1_556 S
H1416 N1413 0.982 1_545 S
H1417 N1413 0.987 . S
H1418 N1412 0.984 . S
H1419 N1412 0.984 1_565 S
H1420 N1408 0.984 1_554 S
H1421 N1408 0.985 . S
C1422 C1423 1.363 1_655 S
C1422 C1428 1.379 1_556 S
C1422 N1430 1.356 . S
C1423 C1422 1.363 1_455 S
C1423 C1429 1.363 1_556 S
C1424 C1425 1.404 . S
C1424 C1429 1.379 . S
C1424 N1431 1.356 . S
C1425 C1424 1.404 . S
C1425 C1428 1.341 1_455 S
N1426 C1428 1.356 . S
N1426 H1438 0.984 . S
N1426 H1439 0.985 . S
N1427 C1429 1.356 . S
N1427 H1432 0.984 1_554 S
N1427 H1433 0.985 . S
C1428 C1422 1.379 1_554 S
C1428 C1425 1.341 1_655 S
C1428 N1426 1.356 . S
C1429 C1423 1.363 1_554 S
C1429 C1424 1.379 . S
C1429 N1427 1.356 . S
N1430 C1422 1.356 . S
N1430 H1436 0.984 . S
N1430 H1437 0.984 . S
N1431 C1424 1.356 . S
N1431 H1434 0.984 . S
N1431 H1435 0.985 . S
H1432 N1427 0.984 1_556 S
H1433 N1427 0.985 . S
H1434 N1431 0.984 . S
H1435 N1431 0.985 . S
H1436 N1430 0.984 . S
H1437 N1430 0.984 . S
H1438 N1426 0.984 . S
H1439 N1426 0.985 . S
C1440 C1441 1.363 . S
C1440 C1446 1.379 . S
C1440 N1448 1.356 . S
C1441 C1440 1.363 . S
C1441 C1447 1.363 . S
C1442 C1443 1.363 1_554 S
C1442 C1447 1.379 . S
C1442 N1449 1.349 1_554 S
C1443 C1442 1.363 1_556 S
C1443 C1446 1.363 1_556 S
N1444 C1446 1.356 1_556 S
N1444 H1456 0.984 . S
N1444 H1457 0.985 . S
N1445 C1447 1.356 . S
N1445 H1450 0.984 . S
N1445 H1451 0.985 . S
C1446 C1440 1.379 . S
C1446 C1443 1.363 1_554 S
C1446 N1444 1.356 1_554 S
C1447 C1441 1.363 . S
C1447 C1442 1.379 . S
C1447 N1445 1.356 . S
N1448 C1440 1.356 . S
N1448 H1454 0.984 . S
N1448 H1455 0.984 . S
N1449 C1442 1.349 1_556 S
N1449 H1452 0.998 . S
N1449 H1453 0.978 1_556 S
H1450 N1445 0.984 . S
H1451 N1445 0.985 . S
H1452 N1449 0.998 . S
H1453 N1449 0.978 1_554 S
H1454 N1448 0.984 . S
H1455 N1448 0.984 . S
H1456 N1444 0.984 . S
H1457 N1444 0.985 . S
C1458 C1459 1.363 1_545 S
C1458 C1464 1.379 . S
C1458 N1466 1.356 . S
C1459 C1458 1.363 1_565 S
C1459 C1465 1.363 . S
C1460 C1461 1.363 1_565 S
C1460 C1465 1.379 1_556 S
C1460 N1467 1.356 . S
C1461 C1460 1.363 1_545 S
C1461 C1464 1.363 1_556 S
N1462 C1464 1.356 . S
N1462 H1474 0.984 . S
N1462 H1475 0.985 1_554 S
N1463 C1465 1.356 . S
N1463 H1468 0.984 . S
N1463 H1469 0.985 1_554 S
C1464 C1458 1.379 . S
C1464 C1461 1.363 1_554 S
C1464 N1462 1.356 . S
C1465 C1459 1.363 . S
C1465 C1460 1.379 1_554 S
C1465 N1463 1.356 . S
N1466 C1458 1.356 . S
N1466 H1472 0.984 . S
N1466 H1473 0.984 . S
N1467 C1460 1.356 . S
N1467 H1470 0.984 . S
N1467 H1471 0.985 . S
H1468 N1463 0.984 . S
H1469 N1463 0.985 1_556 S
H1470 N1467 0.984 . S
H1471 N1467 0.985 . S
H1472 N1466 0.984 . S
H1473 N1466 0.984 . S
H1474 N1462 0.984 . S
H1475 N1462 0.985 1_556 S
C1476 C1477 1.363 . S
C1476 C1482 1.379 . S
C1476 N1484 1.356 . S
C1477 C1476 1.363 . S
C1477 C1483 1.363 . S
C1478 C1479 1.363 . S
C1478 C1483 1.379 . S
C1478 N1485 1.356 . S
C1479 C1478 1.363 . S
C1479 C1482 1.363 . S
N1480 C1482 1.356 . S
N1480 H1492 0.984 . S
N1480 H1493 0.985 . S
N1481 C1483 1.356 . S
N1481 H1486 0.984 . S
N1481 H1487 0.985 . S
C1482 C1476 1.379 . S
C1482 C1479 1.363 . S
C1482 N1480 1.356 . S
C1483 C1477 1.363 . S
C1483 C1478 1.379 . S
C1483 N1481 1.356 . S
N1484 C1476 1.356 . S
N1484 H1490 0.984 . S
N1484 H1491 0.984 . S
N1485 C1478 1.356 . S
N1485 H1488 0.984 . S
N1485 H1489 0.985 . S
H1486 N1481 0.984 . S
H1487 N1481 0.985 . S
H1488 N1485 0.984 . S
H1489 N1485 0.985 . S
H1490 N1484 0.984 . S
H1491 N1484 0.984 . S
H1492 N1480 0.984 . S
H1493 N1480 0.985 . S
C1494 C1495 1.363 . S
C1494 C1500 1.379 . S
C1494 N1502 1.356 . S
C1495 C1494 1.363 . S
C1495 C1501 1.363 . S
C1496 C1497 1.363 . S
C1496 C1501 1.379 . S
C1496 N1503 1.356 . S
C1497 C1496 1.363 . S
C1497 C1500 1.363 . S
N1498 C1500 1.356 . S
N1498 H1510 0.984 . S
N1498 H1511 0.985 . S
N1499 C1501 1.356 . S
N1499 H1504 0.984 . S
N1499 H1505 0.985 . S
C1500 C1494 1.379 . S
C1500 C1497 1.363 . S
C1500 N1498 1.356 . S
C1501 C1495 1.363 . S
C1501 C1496 1.379 . S
C1501 N1499 1.356 . S
N1502 C1494 1.356 . S
N1502 H1508 0.984 . S
N1502 H1509 0.984 . S
N1503 C1496 1.356 . S
N1503 H1506 0.984 . S
N1503 H1507 0.985 . S
H1504 N1499 0.984 . S
H1505 N1499 0.985 . S
H1506 N1503 0.984 . S
H1507 N1503 0.985 . S
H1508 N1502 0.984 . S
H1509 N1502 0.984 . S
H1510 N1498 0.984 . S
H1511 N1498 0.985 . S
C1512 C1513 1.363 . S
C1512 C1518 1.379 . S
C1512 N1520 1.356 . S
C1513 C1512 1.363 . S
C1513 C1519 1.363 . S
C1514 C1515 1.363 . S
C1514 C1519 1.379 . S
C1514 N1521 1.356 . S
C1515 C1514 1.363 . S
C1515 C1518 1.363 . S
N1516 C1518 1.356 . S
N1516 H1528 0.984 . S
N1516 H1529 0.985 . S
N1517 C1519 1.356 . S
N1517 H1522 0.984 . S
N1517 H1523 0.985 . S
C1518 C1512 1.379 . S
C1518 C1515 1.363 . S
C1518 N1516 1.356 . S
C1519 C1513 1.363 . S
C1519 C1514 1.379 . S
C1519 N1517 1.356 . S
N1520 C1512 1.356 . S
N1520 H1526 0.984 . S
N1520 H1527 0.984 . S
N1521 C1514 1.356 . S
N1521 H1524 0.984 . S
N1521 H1525 0.985 . S
H1522 N1517 0.984 . S
H1523 N1517 0.985 . S
H1524 N1521 0.984 . S
H1525 N1521 0.985 . S
H1526 N1520 0.984 . S
H1527 N1520 0.984 . S
H1528 N1516 0.984 . S
H1529 N1516 0.985 . S
C1530 C1531 1.363 . S
C1530 C1536 1.379 . S
C1530 N1538 1.356 . S
C1531 C1530 1.363 . S
C1531 C1537 1.363 . S
C1532 C1533 1.363 . S
C1532 C1537 1.379 . S
C1532 N1539 1.356 . S
C1533 C1532 1.363 . S
C1533 C1536 1.363 . S
N1534 C1536 1.356 . S
N1534 H1546 0.984 . S
N1534 H1547 0.985 . S
N1535 C1537 1.356 . S
N1535 H1540 0.984 . S
N1535 H1541 0.985 . S
C1536 C1530 1.379 . S
C1536 C1533 1.363 . S
C1536 N1534 1.356 . S
C1537 C1531 1.363 . S
C1537 C1532 1.379 . S
C1537 N1535 1.356 . S
N1538 C1530 1.356 . S
N1538 H1544 0.984 . S
N1538 H1545 0.984 . S
N1539 C1532 1.356 . S
N1539 H1542 0.984 . S
N1539 H1543 0.985 . S
H1540 N1535 0.984 . S
H1541 N1535 0.985 . S
H1542 N1539 0.984 . S
H1543 N1539 0.985 . S
H1544 N1538 0.984 . S
H1545 N1538 0.984 . S
H1546 N1534 0.984 . S
H1547 N1534 0.985 . S
C1548 C1549 1.363 . S
C1548 C1554 1.379 . S
C1548 N1556 1.356 . S
C1549 C1548 1.363 . S
C1549 C1555 1.363 . S
C1550 C1551 1.363 . S
C1550 C1555 1.379 . S
C1550 N1557 1.356 . S
C1551 C1550 1.363 . S
C1551 C1554 1.363 . S
N1552 C1554 1.356 . S
N1552 H1564 0.984 . S
N1552 H1565 0.985 . S
N1553 C1555 1.356 . S
N1553 H1558 0.984 . S
N1553 H1559 0.985 . S
C1554 C1548 1.379 . S
C1554 C1551 1.363 . S
C1554 N1552 1.356 . S
C1555 C1549 1.363 . S
C1555 C1550 1.379 . S
C1555 N1553 1.356 . S
N1556 C1548 1.356 . S
N1556 H1562 0.984 . S
N1556 H1563 0.984 . S
N1557 C1550 1.356 . S
N1557 H1560 0.984 . S
N1557 H1561 0.985 . S
H1558 N1553 0.984 . S
H1559 N1553 0.985 . S
H1560 N1557 0.984 . S
H1561 N1557 0.985 . S
H1562 N1556 0.984 . S
H1563 N1556 0.984 . S
H1564 N1552 0.984 . S
H1565 N1552 0.985 . S
C1566 C1567 1.363 . S
C1566 C1572 1.379 . S
C1566 N1574 1.356 . S
C1567 C1566 1.363 . S
C1567 C1573 1.363 . S
C1568 C1569 1.363 . S
C1568 C1573 1.379 . S
C1568 N1575 1.356 . S
C1569 C1568 1.363 . S
C1569 C1572 1.363 . S
N1570 C1572 1.356 . S
N1570 H1582 0.984 . S
N1570 H1583 0.985 . S
N1571 C1573 1.356 . S
N1571 H1576 0.984 . S
N1571 H1577 0.985 . S
C1572 C1566 1.379 . S
C1572 C1569 1.363 . S
C1572 N1570 1.356 . S
C1573 C1567 1.363 . S
C1573 C1568 1.379 . S
C1573 N1571 1.356 . S
N1574 C1566 1.356 . S
N1574 H1580 0.984 . S
N1574 H1581 0.984 . S
N1575 C1568 1.356 . S
N1575 H1578 0.984 . S
N1575 H1579 0.985 . S
H1576 N1571 0.984 . S
H1577 N1571 0.985 . S
H1578 N1575 0.984 . S
H1579 N1575 0.985 . S
H1580 N1574 0.984 . S
H1581 N1574 0.984 . S
H1582 N1570 0.984 . S
H1583 N1570 0.985 . S
C1584 C1585 1.363 . S
C1584 C1590 1.379 . S
C1584 N1592 1.356 . S
C1585 C1584 1.363 . S
C1585 C1591 1.363 . S
C1586 C1587 1.363 . S
C1586 C1591 1.379 . S
C1586 N1593 1.356 . S
C1587 C1586 1.363 . S
C1587 C1590 1.363 . S
N1588 C1590 1.356 . S
N1588 H1600 0.984 . S
N1588 H1601 0.985 . S
N1589 C1591 1.356 . S
N1589 H1594 0.984 . S
N1589 H1595 0.985 . S
C1590 C1584 1.379 . S
C1590 C1587 1.363 . S
C1590 N1588 1.356 . S
C1591 C1585 1.363 . S
C1591 C1586 1.379 . S
C1591 N1589 1.356 . S
N1592 C1584 1.356 . S
N1592 H1598 0.984 . S
N1592 H1599 0.984 . S
N1593 C1586 1.356 . S
N1593 H1596 0.984 . S
N1593 H1597 0.985 . S
H1594 N1589 0.984 . S
H1595 N1589 0.985 . S
H1596 N1593 0.984 . S
H1597 N1593 0.985 . S
H1598 N1592 0.984 . S
H1599 N1592 0.984 . S
H1600 N1588 0.984 . S
H1601 N1588 0.985 . S
C1602 C1603 1.363 . S
C1602 C1608 1.379 . S
C1602 N1610 1.356 . S
C1603 C1602 1.363 . S
C1603 C1609 1.363 . S
C1604 C1605 1.363 . S
C1604 C1609 1.379 . S
C1604 N1611 1.356 . S
C1605 C1604 1.363 . S
C1605 C1608 1.363 . S
N1606 C1608 1.356 . S
N1606 H1618 0.984 . S
N1606 H1619 0.985 . S
N1607 C1609 1.356 . S
N1607 H1612 0.984 . S
N1607 H1613 0.985 . S
C1608 C1602 1.379 . S
C1608 C1605 1.363 . S
C1608 N1606 1.356 . S
C1609 C1603 1.363 . S
C1609 C1604 1.379 . S
C1609 N1607 1.356 . S
N1610 C1602 1.356 . S
N1610 H1616 0.984 . S
N1610 H1617 0.984 . S
N1611 C1604 1.356 . S
N1611 H1614 0.984 . S
N1611 H1615 0.985 . S
H1612 N1607 0.984 . S
H1613 N1607 0.985 . S
H1614 N1611 0.984 . S
H1615 N1611 0.985 . S
H1616 N1610 0.984 . S
H1617 N1610 0.984 . S
H1618 N1606 0.984 . S
H1619 N1606 0.985 . S
C1620 C1621 1.363 . S
C1620 C1626 1.379 . S
C1620 N1628 1.356 . S
C1621 C1620 1.363 . S
C1621 C1627 1.363 . S
C1622 C1623 1.363 . S
C1622 C1627 1.379 . S
C1622 N1629 1.356 . S
C1623 C1622 1.363 . S
C1623 C1626 1.363 . S
N1624 C1626 1.356 . S
N1624 H1636 0.984 . S
N1624 H1637 0.985 . S
N1625 C1627 1.356 . S
N1625 H1630 0.984 . S
N1625 H1631 0.985 . S
C1626 C1620 1.379 . S
C1626 C1623 1.363 . S
C1626 N1624 1.356 . S
C1627 C1621 1.363 . S
C1627 C1622 1.379 . S
C1627 N1625 1.356 . S
N1628 C1620 1.356 . S
N1628 H1634 0.984 . S
N1628 H1635 0.984 . S
N1629 C1622 1.356 . S
N1629 H1632 0.984 . S
N1629 H1633 0.985 . S
H1630 N1625 0.984 . S
H1631 N1625 0.985 . S
H1632 N1629 0.984 . S
H1633 N1629 0.985 . S
H1634 N1628 0.984 . S
H1635 N1628 0.984 . S
H1636 N1624 0.984 . S
H1637 N1624 0.985 . S
C1638 C1639 1.363 . S
C1638 C1644 1.379 . S
C1638 N1646 1.356 . S
C1639 C1638 1.363 . S
C1639 C1645 1.363 . S
C1640 C1641 1.363 . S
C1640 C1645 1.379 . S
C1640 N1647 1.356 . S
C1641 C1640 1.363 . S
C1641 C1644 1.363 . S
N1642 C1644 1.356 . S
N1642 H1654 0.984 . S
N1642 H1655 0.985 . S
N1643 C1645 1.356 . S
N1643 H1648 0.984 . S
N1643 H1649 0.985 . S
C1644 C1638 1.379 . S
C1644 C1641 1.363 . S
C1644 N1642 1.356 . S
C1645 C1639 1.363 . S
C1645 C1640 1.379 . S
C1645 N1643 1.356 . S
N1646 C1638 1.356 . S
N1646 H1652 0.984 . S
N1646 H1653 0.984 . S
N1647 C1640 1.356 . S
N1647 H1650 0.984 . S
N1647 H1651 0.985 . S
H1648 N1643 0.984 . S
H1649 N1643 0.985 . S
H1650 N1647 0.984 . S
H1651 N1647 0.985 . S
H1652 N1646 0.984 . S
H1653 N1646 0.984 . S
H1654 N1642 0.984 . S
H1655 N1642 0.985 . S
C1656 C1657 1.363 . S
C1656 C1662 1.379 . S
C1656 N1664 1.356 . S
C1657 C1656 1.363 . S
C1657 C1663 1.363 . S
C1658 C1659 1.363 . S
C1658 C1663 1.379 . S
C1658 N1665 1.356 . S
C1659 C1658 1.363 . S
C1659 C1662 1.363 . S
N1660 C1662 1.356 . S
N1660 H1672 0.984 . S
N1660 H1673 0.985 . S
N1661 C1663 1.356 . S
N1661 H1666 0.984 . S
N1661 H1667 0.985 . S
C1662 C1656 1.379 . S
C1662 C1659 1.363 . S
C1662 N1660 1.356 . S
C1663 C1657 1.363 . S
C1663 C1658 1.379 . S
C1663 N1661 1.356 . S
N1664 C1656 1.356 . S
N1664 H1670 0.984 . S
N1664 H1671 0.984 . S
N1665 C1658 1.356 . S
N1665 H1668 0.984 . S
N1665 H1669 0.985 . S
H1666 N1661 0.984 . S
H1667 N1661 0.985 . S
H1668 N1665 0.984 . S
H1669 N1665 0.985 . S
H1670 N1664 0.984 . S
H1671 N1664 0.984 . S
H1672 N1660 0.984 . S
H1673 N1660 0.985 . S
C1674 C1675 1.363 . S
C1674 C1680 1.379 . S
C1674 N1682 1.356 . S
C1675 C1674 1.363 . S
C1675 C1681 1.363 . S
C1676 C1677 1.363 . S
C1676 C1681 1.379 . S
C1676 N1683 1.356 . S
C1677 C1676 1.363 . S
C1677 C1680 1.363 . S
N1678 C1680 1.356 . S
N1678 H1690 0.984 . S
N1678 H1691 0.985 . S
N1679 C1681 1.356 . S
N1679 H1684 0.984 . S
N1679 H1685 0.985 . S
C1680 C1674 1.379 . S
C1680 C1677 1.363 . S
C1680 N1678 1.356 . S
C1681 C1675 1.363 . S
C1681 C1676 1.379 . S
C1681 N1679 1.356 . S
N1682 C1674 1.356 . S
N1682 H1688 0.984 . S
N1682 H1689 0.984 . S
N1683 C1676 1.356 . S
N1683 H1686 0.984 . S
N1683 H1687 0.985 . S
H1684 N1679 0.984 . S
H1685 N1679 0.985 . S
H1686 N1683 0.984 . S
H1687 N1683 0.985 . S
H1688 N1682 0.984 . S
H1689 N1682 0.984 . S
H1690 N1678 0.984 . S
H1691 N1678 0.985 . S
C721 C539 2.500 . S
C723 C19 2.512 . S
C739 C58 2.037 . S
C741 C578 2.031 . S
C757 C99 2.276 . S
C759 C498 2.318 . S
C775 C98 1.879 . S
C777 C298 1.881 . S
C793 C338 2.190 . S
C795 C18 2.182 . S
C811 C59 2.352 . S
C813 C258 2.399 . S
C829 C130 2.272 . S
C831 C409 2.292 . S
C847 C169 1.743 . S
C849 C449 1.741 . S
C865 C369 2.008 . S
C867 C210 1.960 . S
C883 C649 2.047 . S
C885 C209 2.051 . S
C901 C129 2.312 . S
C903 C690 2.280 . S
C919 C610 2.530 . S
C921 C170 2.496 . S
C937 C339 2.157 . S
C939 C538 2.207 . S
C955 C259 2.400 . S
C957 C579 2.387 . S
C973 C299 2.654 . S
C975 C499 2.682 . S
C991 C370 2.793 . S
C993 C650 2.780 . S
C1009 C689 2.340 . S
C1011 C410 2.318 . S
C1027 C609 2.627 . S
C1029 C450 2.582 . S
C1045 C9 1.453 . S
C1047 C178 1.452 . S
C1063 C219 1.891 . S
C1065 C50 1.894 . S
C1081 C139 1.683 . S
C1083 C89 1.531 . S
C1099 C179 1.919 . S
C1101 C90 1.971 . S
C1117 C218 1.694 . S
C1119 C10 1.734 . S
C1135 C138 1.534 . S
C1137 C49 1.592 . S
C1153 C419 1.994 . S
C1155 C250 1.981 . S
C1171 C459 2.059 . S
C1173 C290 2.047 . S
C1189 C379 2.085 . S
C1191 C330 1.974 . S
C1207 C418 1.516 . S
C1209 C329 1.519 . S
C1225 C458 1.444 . S
C1227 C249 1.584 . S
C1243 C378 1.471 . S
C1245 C289 1.483 . S
C1261 C658 1.594 . S
C1263 C489 1.536 . S
C1279 C699 1.972 . S
C1281 C530 1.922 . S
C1297 C569 1.697 . S
C1299 C619 1.735 . S
C1315 C570 2.087 . S
C1317 C659 2.091 . S
C1333 C490 1.844 . S
C1335 C698 1.691 . S
C1351 C618 1.571 . S
C1353 C529 1.568 . S
C1369 C15 1.404 . S
C1371 C6 1.393 . S
C1387 C46 1.536 . S
C1389 C55 1.536 . S
C1405 C95 1.403 . S
C1407 C86 1.403 . S
C1423 C126 1.506 . S
C1425 C135 1.495 1_455 S
C1441 C166 1.374 . S
C1443 C175 1.374 . S
C1459 C215 1.605 . S
C1461 C206 1.605 . S
C1477 C255 1.789 . S
C1479 C246 1.789 . S
C1495 C286 1.345 . S
C1497 C295 1.345 . S
C1513 C335 1.793 . S
C1515 C326 1.793 . S
C1531 C366 1.344 . S
C1533 C375 1.344 . S
C1549 C406 1.729 . S
C1551 C415 1.729 . S
C1567 C446 1.366 . S
C1569 C455 1.366 . S
C1585 C486 1.373 . S
C1587 C495 1.373 . S
C1603 C526 1.506 . S
C1605 C535 1.506 . S
C1621 C575 1.405 . S
C1623 C566 1.405 . S
C1639 C615 1.564 . S
C1641 C606 1.564 . S
C1657 C646 1.366 . S
C1659 C655 1.366 . S
C1675 C686 1.501 . S
C1677 C695 1.501 . S
