# Generated by pormake.
# Topology rac, (4)-cn, num edge types: 1
# Building blocks:
#     Node 0, Type 0, BuildingBlock: GALJAG_clean_sbu_0, # of connection points: 4
#     Node 1, Type 0, BuildingBlock: GALJAG_clean_sbu_0, # of connection points: 4
#     Node 2, Type 0, BuildingBlock: GALJAG_clean_sbu_0, # of connection points: 4
#     Node 3, Type 0, BuildingBlock: GALJAG_clean_sbu_0, # of connection points: 4
#     Node 4, Type 0, BuildingBlock: GALJAG_clean_sbu_0, # of connection points: 4
#     Node 5, Type 0, BuildingBlock: GALJAG_clean_sbu_0, # of connection points: 4
#     Node 6, Type 0, BuildingBlock: GALJAG_clean_sbu_0, # of connection points: 4
#     Node 7, Type 0, BuildingBlock: GALJAG_clean_sbu_0, # of connection points: 4
#     Edge 8, Type (0, 0), BuildingBlock: MIFKUJ_clean_linker_0, # of connection points: 2
#     Edge 9, Type (0, 0), BuildingBlock: MIFKUJ_clean_linker_0, # of connection points: 2
#     Edge 10, Type (0, 0), BuildingBlock: MIFKUJ_clean_linker_0, # of connection points: 2
#     Edge 11, Type (0, 0), BuildingBlock: MIFKUJ_clean_linker_0, # of connection points: 2
#     Edge 12, Type (0, 0), BuildingBlock: MIFKUJ_clean_linker_0, # of connection points: 2
#     Edge 13, Type (0, 0), BuildingBlock: MIFKUJ_clean_linker_0, # of connection points: 2
#     Edge 14, Type (0, 0), BuildingBlock: MIFKUJ_clean_linker_0, # of connection points: 2
#     Edge 15, Type (0, 0), BuildingBlock: MIFKUJ_clean_linker_0, # of connection points: 2
#     Edge 16, Type (0, 0), BuildingBlock: MIFKUJ_clean_linker_0, # of connection points: 2
#     Edge 17, Type (0, 0), BuildingBlock: MIFKUJ_clean_linker_0, # of connection points: 2
#     Edge 18, Type (0, 0), BuildingBlock: MIFKUJ_clean_linker_0, # of connection points: 2
#     Edge 19, Type (0, 0), BuildingBlock: MIFKUJ_clean_linker_0, # of connection points: 2
#     Edge 20, Type (0, 0), BuildingBlock: MIFKUJ_clean_linker_0, # of connection points: 2
#     Edge 21, Type (0, 0), BuildingBlock: MIFKUJ_clean_linker_0, # of connection points: 2
#     Edge 22, Type (0, 0), BuildingBlock: MIFKUJ_clean_linker_0, # of connection points: 2
#     Edge 23, Type (0, 0), BuildingBlock: MIFKUJ_clean_linker_0, # of connection points: 2
# Relax obj value: 0.254
# Max RMSD: 0.115
# Mean RMSD: 0.115
data_MOF--net-rac--node1-GALJAG_clean_sbu_0--edge1-MIFKUJ_clean_linker_0
_symmetry_space_group_name_H-M    P1
_symmetry_Int_Tables_number       1
_symmetry_cell_setting            triclinic
loop_
_symmetry_equiv_pos_as_xyz
'x, y, z'
_cell_length_a     46.61888
_cell_length_b     29.958854
_cell_length_c     50.964683
_cell_angle_alpha  90.09745
_cell_angle_beta   89.961252
_cell_angle_gamma 89.908342
loop_
_atom_site_label
_atom_site_type_symbol
_atom_site_fract_x
_atom_site_fract_y
_atom_site_fract_z
_atom_type_partial_charge
In0 In 0.371 0.27077 0.07384 0.0
O1 O 0.36583 0.29301 0.11586 0.0
O2 O 0.3926 0.23628 0.10874 0.0
C3 C 0.33461 0.32513 0.04943 0.0
C4 C 0.34156 0.19478 0.06412 0.0
C5 C 0.41743 0.3189 0.0593 0.0
O6 O 0.333 0.3177 0.07377 0.0
O7 O 0.35434 0.30491 0.03733 0.0
O8 O 0.4119 0.28161 0.04845 0.0
O9 O 0.40083 0.32915 0.0779 0.0
C10 C 0.38181 0.26302 0.12535 0.0
O11 O 0.36684 0.19998 0.05521 0.0
O12 O 0.33231 0.22701 0.07762 0.0
In13 In 0.12319 0.75685 0.04828 0.0
O14 O 0.12047 0.83389 0.04982 0.0
O15 O 0.14505 0.80471 0.01959 0.0
C16 C 0.08123 0.69864 0.03395 0.0
C17 C 0.11729 0.76542 0.10051 0.0
C18 C 0.16897 0.70853 0.03423 0.0
O19 O 0.08239 0.73755 0.0242 0.0
O20 O 0.1001 0.69095 0.05095 0.0
O21 O 0.16564 0.7232 0.05732 0.0
O22 O 0.14939 0.71893 0.01827 0.0
C23 C 0.13793 0.84001 0.03128 0.0
O24 O 0.1409 0.75572 0.08968 0.0
O25 O 0.09654 0.77144 0.0849 0.0
In26 In 0.38269 0.23514 0.45889 0.0
O27 O 0.3775 0.3107 0.46814 0.0
O28 O 0.34051 0.26962 0.46836 0.0
C29 C 0.43111 0.20414 0.48254 0.0
C30 C 0.38624 0.24256 0.40628 0.0
C31 C 0.3539 0.1607 0.47008 0.0
O32 O 0.4092 0.21611 0.49523 0.0
O33 O 0.43014 0.21417 0.45859 0.0
O34 O 0.36771 0.16583 0.44898 0.0
O35 O 0.35361 0.19404 0.48528 0.0
C36 C 0.35056 0.30831 0.47086 0.0
O37 O 0.37134 0.21328 0.41764 0.0
O38 O 0.39927 0.26908 0.42148 0.0
In39 In 0.13383 0.75614 0.43299 0.0
O40 O 0.13227 0.68636 0.45349 0.0
O41 O 0.16055 0.69719 0.42144 0.0
C42 C 0.0946 0.81692 0.44932 0.0
C43 C 0.12283 0.76029 0.38133 0.0
C44 C 0.17903 0.79089 0.45779 0.0
O45 O 0.09096 0.77546 0.45364 0.0
O46 O 0.1172 0.8262 0.43689 0.0
O47 O 0.17749 0.78787 0.43312 0.0
O48 O 0.15748 0.77667 0.47024 0.0
C49 C 0.1522 0.67089 0.43904 0.0
O50 O 0.14478 0.77727 0.39185 0.0
O51 O 0.10577 0.74106 0.39705 0.0
In52 In 0.63365 0.72356 0.94128 0.0
O53 O 0.64704 0.70642 0.89984 0.0
O54 O 0.61395 0.75512 0.9047 0.0
C55 C 0.66394 0.66204 0.96696 0.0
C56 C 0.66336 0.79883 0.95212 0.0
C57 C 0.58466 0.68113 0.95478 0.0
O58 O 0.66244 0.66308 0.94219 0.0
O59 O 0.65122 0.69343 0.97879 0.0
O60 O 0.59336 0.71485 0.96761 0.0
O61 O 0.59907 0.67257 0.9345 0.0
C62 C 0.62947 0.73279 0.88903 0.0
O63 O 0.63625 0.79747 0.95468 0.0
O64 O 0.67464 0.76274 0.94461 0.0
In65 In 0.86207 0.27399 0.93459 0.0
O66 O 0.86515 0.20038 0.94925 0.0
O67 O 0.8253 0.22632 0.93546 0.0
C68 C 0.90534 0.33059 0.94618 0.0
C69 C 0.86829 0.26759 0.88228 0.0
C70 C 0.82476 0.31852 0.96446 0.0
O71 O 0.9048 0.29129 0.95561 0.0
O72 O 0.88505 0.33949 0.93067 0.0
O73 O 0.82295 0.31744 0.93967 0.0
O74 O 0.8457 0.29741 0.9742 0.0
C75 C 0.83859 0.19361 0.94506 0.0
O76 O 0.84814 0.28925 0.89299 0.0
O77 O 0.88549 0.24885 0.89804 0.0
In78 In 0.63425 0.77027 0.55585 0.0
O79 O 0.64176 0.69914 0.53848 0.0
O80 O 0.67479 0.72987 0.5607 0.0
C81 C 0.58575 0.80033 0.53213 0.0
C82 C 0.62578 0.766 0.60791 0.0
C83 C 0.66511 0.84076 0.54025 0.0
O84 O 0.60847 0.79167 0.51971 0.0
O85 O 0.58615 0.78754 0.55566 0.0
O86 O 0.65079 0.84086 0.56128 0.0
O87 O 0.66487 0.80443 0.52772 0.0
C88 C 0.66695 0.69627 0.54772 0.0
O89 O 0.64118 0.79546 0.59718 0.0
O90 O 0.61441 0.7383 0.59226 0.0
In91 In 0.87907 0.25163 0.54797 0.0
O92 O 0.85827 0.24799 0.58815 0.0
O93 O 0.90332 0.26062 0.58647 0.0
C94 C 0.8323 0.2126 0.52812 0.0
C95 C 0.86964 0.33717 0.5317 0.0
C96 C 0.91926 0.18913 0.5354 0.0
O97 O 0.8337 0.22462 0.55189 0.0
O98 O 0.85432 0.22077 0.51459 0.0
O99 O 0.92242 0.22969 0.52884 0.0
O100 O 0.89696 0.18163 0.54855 0.0
C101 C 0.88129 0.25502 0.60062 0.0
O102 O 0.88111 0.32814 0.55342 0.0
O103 O 0.86637 0.30371 0.51709 0.0
H104 H 0.34939 0.125 0.02897 0.0
H105 H 0.31573 0.06342 0.01997 0.0
H106 H 0.25805 0.11528 0.07884 0.0
H107 H 0.29123 0.17571 0.08797 0.0
H108 H 0.26214 0.02755 0.08329 0.0
H109 H 0.24716 0.13286 0.01267 0.0
H110 H 0.26191 0.17817 0.97464 0.0
H111 H 0.28728 0.05943 0.93334 0.0
H112 H 0.27302 0.01345 0.9713 0.0
H113 H 0.13247 0.91808 0.05902 0.0
H114 H 0.16722 0.97917 0.06092 0.0
H115 H 0.21682 0.91661 0.99955 0.0
H116 H 0.18181 0.85616 0.99707 0.0
H117 H 0.21994 0.00513 0.99493 0.0
H118 H 0.23191 0.89936 0.06472 0.0
H119 H 0.21648 0.85431 0.10264 0.0
H120 H 0.19747 0.97388 0.14589 0.0
H121 H 0.21214 0.01961 0.10804 0.0
C122 C 0.32964 0.12288 0.04009 0.0
C123 C 0.32301 0.15534 0.05913 0.0
C124 C 0.31033 0.08789 0.03484 0.0
C125 C 0.28415 0.08484 0.04858 0.0
C126 C 0.27801 0.11671 0.06797 0.0
C127 C 0.29708 0.15145 0.07311 0.0
C128 C 0.26265 0.04914 0.04301 0.0
C129 C 0.25279 0.02292 0.06398 0.0
C130 C 0.25082 0.0422 0.01773 0.0
C131 C 0.25935 0.06979 0.99493 0.0
C132 C 0.25611 0.11645 0.99556 0.0
C133 C 0.26434 0.14225 0.97401 0.0
C134 C 0.27561 0.1217 0.95162 0.0
C135 C 0.2786 0.0753 0.95071 0.0
C136 C 0.27044 0.04936 0.97224 0.0
C137 C 0.1503 0.91801 0.04538 0.0
C138 C 0.15444 0.88204 0.02803 0.0
C139 C 0.17036 0.95275 0.04667 0.0
C140 C 0.19515 0.95192 0.0309 0.0
C141 C 0.19807 0.91791 0.0121 0.0
C142 C 0.17793 0.88334 0.01067 0.0
C143 C 0.21898 0.98433 0.03536 0.0
C144 C 0.22938 0.00964 0.0142 0.0
C145 C 0.23139 0.99047 0.0605 0.0
C146 C 0.22287 0.96293 0.08342 0.0
C147 C 0.22423 0.91605 0.08225 0.0
C148 C 0.2156 0.89037 0.10373 0.0
C149 C 0.20588 0.9112 0.12664 0.0
C150 C 0.20487 0.95775 0.12812 0.0
C151 C 0.21334 0.98357 0.10665 0.0
H152 H 0.1992 0.89128 0.14325 0.0
H153 H 0.28196 0.14173 0.93494 0.0
H154 H 0.14458 0.60762 0.47825 0.0
H155 H 0.17536 0.54241 0.48699 0.0
H156 H 0.2272 0.57561 0.4196 0.0
H157 H 0.19612 0.63822 0.41016 0.0
H158 H 0.22403 0.49308 0.4202 0.0
H159 H 0.24516 0.60168 0.48726 0.0
H160 H 0.2344 0.65193 0.52439 0.0
H161 H 0.20633 0.5402 0.57036 0.0
H162 H 0.21661 0.48935 0.53336 0.0
H163 H 0.35873 0.39365 0.45315 0.0
H164 H 0.3227 0.45365 0.4514 0.0
H165 H 0.26292 0.37091 0.49361 0.0
H166 H 0.29839 0.31044 0.49463 0.0
H167 H 0.26789 0.47309 0.50807 0.0
H168 H 0.2502 0.36546 0.43768 0.0
H169 H 0.26609 0.31967 0.4001 0.0
H170 H 0.29339 0.43776 0.35957 0.0
H171 H 0.27808 0.48418 0.39714 0.0
C172 C 0.16224 0.60033 0.4651 0.0
C173 C 0.16783 0.62824 0.44354 0.0
C174 C 0.18007 0.56336 0.47025 0.0
C175 C 0.20412 0.55424 0.45425 0.0
C176 C 0.20894 0.58145 0.43231 0.0
C177 C 0.19103 0.61759 0.42696 0.0
C178 C 0.2249 0.51736 0.46011 0.0
C179 C 0.23361 0.48916 0.43945 0.0
C180 C 0.23752 0.51136 0.48522 0.0
C181 C 0.23131 0.54182 0.50745 0.0
C182 C 0.23649 0.58789 0.50523 0.0
C183 C 0.23052 0.61647 0.52625 0.0
C184 C 0.2196 0.59929 0.54969 0.0
C185 C 0.21472 0.55347 0.55217 0.0
C186 C 0.22062 0.52476 0.53119 0.0
C187 C 0.33816 0.38871 0.46259 0.0
C188 C 0.33136 0.34743 0.47404 0.0
C189 C 0.31757 0.42289 0.46151 0.0
C190 C 0.29014 0.41665 0.47237 0.0
C191 C 0.28397 0.37647 0.48523 0.0
C192 C 0.30424 0.34197 0.48575 0.0
C193 C 0.26705 0.45014 0.46808 0.0
C194 C 0.25799 0.47727 0.48897 0.0
C195 C 0.25456 0.45601 0.44307 0.0
C196 C 0.26328 0.42821 0.42032 0.0
C197 C 0.25982 0.38161 0.42085 0.0
C198 C 0.26868 0.35555 0.39954 0.0
C199 C 0.28082 0.37577 0.37749 0.0
C200 C 0.28403 0.42212 0.37668 0.0
C201 C 0.27525 0.44832 0.39797 0.0
H202 H 0.28768 0.35554 0.36102 0.0
H203 H 0.215 0.62146 0.56595 0.0
H204 H 0.64573 0.88559 0.96083 0.0
H205 H 0.67627 0.95225 0.9638 0.0
H206 H 0.75163 0.8698 0.95517 0.0
H207 H 0.7215 0.80359 0.95251 0.0
H208 H 0.76111 0.93385 0.99091 0.0
H209 H 0.72366 0.92576 0.90296 0.0
H210 H 0.68565 0.92132 0.86943 0.0
H211 H 0.65016 0.0453 0.8968 0.0
H212 H 0.68775 0.05016 0.93075 0.0
H213 H 0.85961 0.10734 0.94993 0.0
H214 H 0.831 0.0387 0.9548 0.0
H215 H 0.7537 0.11789 0.95873 0.0
H216 H 0.78176 0.18542 0.9532 0.0
H217 H 0.74589 0.05406 0.92562 0.0
H218 H 0.78388 0.06309 0.01337 0.0
H219 H 0.82191 0.06734 0.04689 0.0
H220 H 0.85654 0.9424 0.02011 0.0
H221 H 0.8189 0.93768 0.9862 0.0
C222 C 0.6688 0.88173 0.95988 0.0
C223 C 0.68114 0.83933 0.95626 0.0
C224 C 0.68626 0.91982 0.96146 0.0
C225 C 0.71632 0.91615 0.9594 0.0
C226 C 0.72858 0.87362 0.95681 0.0
C227 C 0.71124 0.83575 0.95517 0.0
C228 C 0.73507 0.95644 0.95864 0.0
C229 C 0.75792 0.96003 0.97652 0.0
C230 C 0.73086 0.99084 0.94004 0.0
C231 C 0.70833 0.98807 0.91957 0.0
C232 C 0.70762 0.9519 0.90195 0.0
C233 C 0.68617 0.94934 0.88285 0.0
C234 C 0.66545 0.98294 0.88103 0.0
C235 C 0.66619 0.01925 0.89826 0.0
C236 C 0.68757 0.02194 0.91743 0.0
C237 C 0.83657 0.10989 0.95217 0.0
C238 C 0.82294 0.15171 0.95096 0.0
C239 C 0.82019 0.07072 0.95499 0.0
C240 C 0.79004 0.07297 0.9571 0.0
C241 C 0.77678 0.11499 0.95688 0.0
C242 C 0.79295 0.1537 0.95376 0.0
C243 C 0.77176 0.03208 0.95821 0.0
C244 C 0.74906 0.02815 0.94019 0.0
C245 C 0.77614 0.9975 0.97671 0.0
C246 C 0.79876 1.00028 0.99707 0.0
C247 C 0.79974 0.0367 0.0145 0.0
C248 C 0.8212 0.03916 0.03359 0.0
C249 C 0.84168 0.00523 0.03558 0.0
C250 C 0.84069 0.9687 0.01852 0.0
C251 C 0.81929 0.9661 0.99938 0.0
H252 H 0.85827 0.00718 0.05038 0.0
H253 H 0.64887 0.9809 0.86623 0.0
H254 H 0.71849 0.68292 0.571 0.0
H255 H 0.75292 0.62325 0.56346 0.0
H256 H 0.69564 0.56282 0.50733 0.0
H257 H 0.66042 0.62281 0.51524 0.0
H258 H 0.72047 0.49997 0.5378 0.0
H259 H 0.75442 0.62122 0.48664 0.0
H260 H 0.76831 0.69886 0.47704 0.0
H261 H 0.83512 0.6914 0.53482 0.0
H262 H 0.82136 0.61388 0.54506 0.0
H263 H 0.83112 0.3554 0.49287 0.0
H264 H 0.79748 0.41804 0.49112 0.0
H265 H 0.83871 0.47777 0.55817 0.0
H266 H 0.87221 0.41463 0.5604 0.0
H267 H 0.82125 0.54025 0.51709 0.0
H268 H 0.78354 0.41976 0.56989 0.0
H269 H 0.76989 0.34144 0.57777 0.0
H270 H 0.70986 0.34743 0.514 0.0
H271 H 0.72356 0.42563 0.50544 0.0
C272 C 0.71304 0.65697 0.55705 0.0
C273 C 0.68672 0.65789 0.54356 0.0
C274 C 0.73292 0.62288 0.55266 0.0
C275 C 0.72727 0.58893 0.53439 0.0
C276 C 0.70062 0.58883 0.52138 0.0
C277 C 0.68051 0.6231 0.52589 0.0
C278 C 0.74945 0.55394 0.52918 0.0
C279 C 0.74235 0.50882 0.53276 0.0
C280 C 0.77821 0.56524 0.52292 0.0
C281 C 0.7867 0.61181 0.51675 0.0
C282 C 0.77195 0.63622 0.49744 0.0
C283 C 0.77982 0.6802 0.49186 0.0
C284 C 0.80255 0.70008 0.50535 0.0
C285 C 0.8175 0.67596 0.5244 0.0
C286 C 0.8097 0.63198 0.53008 0.0
C287 C 0.8336 0.38242 0.50684 0.0
C288 C 0.85438 0.37995 0.52682 0.0
C289 C 0.81418 0.41808 0.5059 0.0
C290 C 0.81534 0.45229 0.52471 0.0
C291 C 0.83739 0.45167 0.54349 0.0
C292 C 0.85659 0.41563 0.54468 0.0
C293 C 0.79227 0.48667 0.52609 0.0
C294 C 0.79926 0.53156 0.52182 0.0
C295 C 0.76339 0.47513 0.53145 0.0
C296 C 0.75483 0.42836 0.53682 0.0
C297 C 0.76761 0.40426 0.5574 0.0
C298 C 0.75985 0.35991 0.56201 0.0
C299 C 0.73909 0.33942 0.54634 0.0
C300 C 0.72599 0.36332 0.52608 0.0
C301 C 0.73374 0.40766 0.52135 0.0
H302 H 0.73311 0.30507 0.54993 0.0
H303 H 0.80861 0.73413 0.501 0.0
H304 H 0.37736 0.32946 0.16133 0.0
H305 H 0.38257 0.32381 0.20902 0.0
H306 H 0.40144 0.18346 0.20162 0.0
H307 H 0.39719 0.18915 0.1536 0.0
H308 H 0.35005 0.22481 0.23907 0.0
H309 H 0.45233 0.22108 0.2183 0.0
H310 H 0.49559 0.25056 0.19656 0.0
H311 H 0.48441 0.37604 0.23614 0.0
H312 H 0.44079 0.34748 0.2578 0.0
H313 H 0.37408 0.17637 0.37171 0.0
H314 H 0.37706 0.17863 0.32398 0.0
H315 H 0.40545 0.3156 0.32769 0.0
H316 H 0.40383 0.31264 0.3758 0.0
H317 H 0.43387 0.27553 0.29112 0.0
H318 H 0.3345 0.28583 0.3118 0.0
H319 H 0.28888 0.26484 0.33291 0.0
H320 H 0.2905 0.13847 0.29304 0.0
H321 H 0.33636 0.15848 0.27194 0.0
C322 C 0.38294 0.29749 0.16984 0.0
C323 C 0.38686 0.25969 0.15385 0.0
C324 C 0.38595 0.29438 0.19702 0.0
C325 C 0.39243 0.2533 0.20868 0.0
C326 C 0.39657 0.21548 0.19283 0.0
C327 C 0.39421 0.21879 0.16551 0.0
C328 C 0.39322 0.2498 0.23757 0.0
C329 C 0.36852 0.23501 0.25054 0.0
C330 C 0.41685 0.26522 0.25231 0.0
C331 C 0.44312 0.28232 0.23941 0.0
C332 C 0.45892 0.25511 0.22213 0.0
C333 C 0.48355 0.27161 0.20989 0.0
C334 C 0.49269 0.3152 0.2149 0.0
C335 C 0.47727 0.34232 0.23224 0.0
C336 C 0.45261 0.32597 0.24452 0.0
C337 C 0.381 0.20697 0.36236 0.0
C338 C 0.38849 0.24449 0.37741 0.0
C339 C 0.38257 0.2083 0.33504 0.0
C340 C 0.39084 0.2476 0.32212 0.0
C341 C 0.39889 0.28492 0.33717 0.0
C342 C 0.39788 0.2833 0.36462 0.0
C343 C 0.39074 0.24965 0.29295 0.0
C344 C 0.41541 0.26474 0.27983 0.0
C345 C 0.36673 0.23552 0.27802 0.0
C346 C 0.33901 0.22349 0.29048 0.0
C347 C 0.32522 0.25344 0.30766 0.0
C348 C 0.29931 0.24174 0.31961 0.0
C349 C 0.28684 0.2003 0.31437 0.0
C350 C 0.30021 0.17054 0.2971 0.0
C351 C 0.32614 0.18206 0.28512 0.0
H352 H 0.26678 0.19128 0.32365 0.0
H353 H 0.51177 0.32791 0.2054 0.0
H354 H 0.0733 0.74457 0.35365 0.0
H355 H 0.06674 0.74941 0.30594 0.0
H356 H 0.15618 0.7834 0.29696 0.0
H357 H 0.16239 0.78059 0.34433 0.0
H358 H 0.12721 0.8336 0.26665 0.0
H359 H 0.12705 0.67523 0.28422 0.0
H360 H 0.11009 0.60584 0.30503 0.0
H361 H 0.02644 0.62564 0.27177 0.0
H362 H 0.04283 0.69549 0.25101 0.0
H363 H 0.16004 0.76906 0.13675 0.0
H364 H 0.15532 0.77183 0.1845 0.0
H365 H 0.06316 0.77026 0.17726 0.0
H366 H 0.06772 0.76793 0.12925 0.0
H367 H 0.0865 0.70826 0.21506 0.0
H368 H 0.09102 0.86391 0.1931 0.0
H369 H 0.11132 0.92987 0.171 0.0
H370 H 0.19097 0.91099 0.21176 0.0
H371 H 0.17127 0.84453 0.23388 0.0
C372 C 0.09147 0.75309 0.34141 0.0
C373 C 0.11833 0.76219 0.35267 0.0
C374 C 0.08777 0.75568 0.31416 0.0
C375 C 0.11105 0.76635 0.29773 0.0
C376 C 0.13783 0.77536 0.30912 0.0
C377 C 0.14139 0.77357 0.33624 0.0
C378 C 0.10797 0.76824 0.26868 0.0
C379 C 0.11845 0.80599 0.25544 0.0
C380 C 0.09592 0.7328 0.25391 0.0
C381 C 0.08606 0.69082 0.26634 0.0
C382 C 0.10498 0.66495 0.28151 0.0
C383 C 0.09548 0.62552 0.29327 0.0
C384 C 0.06718 0.61142 0.2898 0.0
C385 C 0.04834 0.63666 0.27449 0.0
C386 C 0.05772 0.67615 0.26271 0.0
C387 C 0.13876 0.76947 0.1453 0.0
C388 C 0.11424 0.7684 0.12931 0.0
C389 C 0.1361 0.77113 0.17256 0.0
C390 C 0.10889 0.77144 0.18434 0.0
C391 C 0.08433 0.77007 0.16848 0.0
C392 C 0.08698 0.76897 0.14112 0.0
C393 C 0.10641 0.77294 0.2133 0.0
C394 C 0.09486 0.73598 0.22642 0.0
C395 C 0.11793 0.80872 0.22798 0.0
C396 C 0.1297 0.8491 0.21504 0.0
C397 C 0.11292 0.87367 0.19724 0.0
C398 C 0.12431 0.91116 0.18473 0.0
C399 C 0.15242 0.92459 0.18997 0.0
C400 C 0.16919 0.90056 0.20775 0.0
C401 C 0.15791 0.86303 0.22032 0.0
H402 H 0.16115 0.95368 0.18031 0.0
H403 H 0.05987 0.58088 0.29891 0.0
H404 H 0.59613 0.79038 0.86047 0.0
H405 H 0.5928 0.79562 0.81256 0.0
H406 H 0.65355 0.68756 0.80481 0.0
H407 H 0.65745 0.68289 0.85245 0.0
H408 H 0.66701 0.75114 0.77243 0.0
H409 H 0.58085 0.67258 0.79432 0.0
H410 H 0.53487 0.6601 0.81709 0.0
H411 H 0.5005 0.77966 0.78291 0.0
H412 H 0.54644 0.79319 0.76021 0.0
H413 H 0.59945 0.70069 0.63673 0.0
H414 H 0.5972 0.69493 0.6847 0.0
H415 H 0.64128 0.82089 0.69178 0.0
H416 H 0.64409 0.8264 0.64408 0.0
H417 H 0.57471 0.74479 0.72411 0.0
H418 H 0.68872 0.81517 0.74136 0.0
H419 H 0.73504 0.82019 0.7181 0.0
H420 H 0.7144 0.70265 0.67368 0.0
H421 H 0.66816 0.69658 0.69693 0.0
C422 C 0.60874 0.76777 0.84851 0.0
C423 C 0.62708 0.73627 0.86019 0.0
C424 C 0.60671 0.77062 0.82115 0.0
C425 C 0.62273 0.74169 0.80507 0.0
C426 C 0.64102 0.71027 0.81679 0.0
C427 C 0.64319 0.7076 0.84404 0.0
C428 C 0.62114 0.74464 0.77602 0.0
C429 C 0.64679 0.74982 0.76192 0.0
C430 C 0.59483 0.74221 0.7622 0.0
C431 C 0.56718 0.73413 0.77578 0.0
C432 C 0.56356 0.6964 0.79183 0.0
C433 C 0.5375 0.6891 0.80469 0.0
C434 C 0.51481 0.71913 0.8015 0.0
C435 C 0.51811 0.75646 0.78539 0.0
C436 C 0.54415 0.76394 0.7725 0.0
C437 C 0.60848 0.72725 0.64855 0.0
C438 C 0.62224 0.76372 0.63669 0.0
C439 C 0.60708 0.72401 0.67592 0.0
C440 C 0.61944 0.75716 0.6918 0.0
C441 C 0.63205 0.79454 0.67992 0.0
C442 C 0.6336 0.79765 0.65264 0.0
C443 C 0.62053 0.75179 0.72071 0.0
C444 C 0.59486 0.74624 0.73472 0.0
C445 C 0.64688 0.75283 0.73449 0.0
C446 C 0.67487 0.75571 0.72072 0.0
C447 C 0.69414 0.7903 0.72671 0.0
C448 C 0.72036 0.79334 0.71352 0.0
C449 C 0.72762 0.76184 0.69437 0.0
C450 C 0.70871 0.72712 0.68845 0.0
C451 C 0.68248 0.72389 0.70161 0.0
H452 H 0.74791 0.76429 0.68415 0.0
H453 H 0.49464 0.71342 0.81147 0.0
H454 H 0.8361 0.26268 0.6342 0.0
H455 H 0.83736 0.26547 0.68218 0.0
H456 H 0.92949 0.2527 0.68058 0.0
H457 H 0.92845 0.2507 0.63241 0.0
H458 H 0.89906 0.19398 0.71742 0.0
H459 H 0.90685 0.34865 0.69332 0.0
H460 H 0.89261 0.41697 0.66974 0.0
H461 H 0.81006 0.41379 0.7071 0.0
H462 H 0.82366 0.34502 0.73061 0.0
H463 H 0.9151 0.23993 0.85414 0.0
H464 H 0.92044 0.23823 0.80633 0.0
H465 H 0.8336 0.28628 0.79777 0.0
H466 H 0.82866 0.28979 0.8454 0.0
H467 H 0.86549 0.32853 0.7654 0.0
H468 H 0.85449 0.17346 0.78712 0.0
H469 H 0.86583 0.10295 0.80978 0.0
H470 H 0.95046 0.1038 0.77648 0.0
H471 H 0.93974 0.17466 0.75388 0.0
C472 C 0.85663 0.26051 0.64405 0.0
C473 C 0.88219 0.2566 0.62959 0.0
C474 C 0.85732 0.26216 0.67143 0.0
C475 C 0.88352 0.25942 0.68485 0.0
C476 C 0.90907 0.25486 0.67052 0.0
C477 C 0.90845 0.25391 0.64307 0.0
C478 C 0.88402 0.26163 0.71387 0.0
C479 C 0.89219 0.22358 0.72801 0.0
C480 C 0.87436 0.29991 0.72751 0.0
C481 C 0.86619 0.34144 0.71354 0.0
C482 C 0.88558 0.3623 0.69634 0.0
C483 C 0.87764 0.40115 0.68301 0.0
C484 C 0.85042 0.41965 0.68687 0.0
C485 C 0.83112 0.39939 0.70411 0.0
C486 C 0.83894 0.3605 0.71746 0.0
C487 C 0.89716 0.24999 0.842 0.0
C488 C 0.87146 0.26494 0.85347 0.0
C489 C 0.90017 0.24882 0.81468 0.0
C490 C 0.8773 0.26161 0.79834 0.0
C491 C 0.85159 0.27635 0.80987 0.0
C492 C 0.84875 0.2782 0.83713 0.0
C493 C 0.88008 0.26049 0.76924 0.0
C494 C 0.87255 0.29887 0.75498 0.0
C495 C 0.88993 0.22222 0.7555 0.0
C496 C 0.89642 0.17961 0.76905 0.0
C497 C 0.87559 0.15879 0.7848 0.0
C498 C 0.8819 0.11873 0.7976 0.0
C499 C 0.90888 0.09898 0.79464 0.0
C500 C 0.92959 0.11918 0.7788 0.0
C501 C 0.9234 0.15927 0.76597 0.0
H502 H 0.91372 0.06796 0.80457 0.0
H503 H 0.84431 0.44973 0.67653 0.0
H504 H 0.43276 0.39679 0.0825 0.0
H505 H 0.46104 0.4574 0.06417 0.0
H506 H 0.47824 0.37828 0.99519 0.0
H507 H 0.44944 0.31683 0.01353 0.0
H508 H 0.52655 0.42722 0.01288 0.0
H509 H 0.42842 0.45609 0.99064 0.0
H510 H 0.3765 0.46715 0.99719 0.0
H511 H 0.39339 0.57422 0.05112 0.0
H512 H 0.44545 0.56363 0.04498 0.0
H513 H 0.5665 0.60586 0.93023 0.0
H514 H 0.53898 0.54447 0.94876 0.0
H515 H 0.527 0.61928 0.02025 0.0
H516 H 0.55531 0.68118 0.00191 0.0
H517 H 0.47659 0.57227 0.00104 0.0
H518 H 0.57534 0.54536 0.02099 0.0
H519 H 0.62689 0.53758 0.01104 0.0
H520 H 0.60889 0.42703 0.95999 0.0
H521 H 0.55713 0.4348 0.9691 0.0
C522 C 0.44282 0.3918 0.06355 0.0
C523 C 0.43869 0.35187 0.04944 0.0
C524 C 0.4589 0.42674 0.05303 0.0
C525 C 0.47137 0.42283 0.0281 0.0
C526 C 0.46867 0.38216 0.01443 0.0
C527 C 0.45232 0.34699 0.02496 0.0
C528 C 0.48627 0.462 0.01628 0.0
C529 C 0.51553 0.45872 0.00993 0.0
C530 C 0.47211 0.50355 0.01299 0.0
C531 C 0.44084 0.50876 0.01755 0.0
C532 C 0.42107 0.48162 0.00415 0.0
C533 C 0.3916 0.48792 0.00772 0.0
C534 C 0.38165 0.52132 0.02462 0.0
C535 C 0.40114 0.54835 0.03805 0.0
C536 C 0.43062 0.54226 0.0345 0.0
C537 C 0.55769 0.60978 0.94977 0.0
C538 C 0.5632 0.64854 0.96462 0.0
C539 C 0.54209 0.57439 0.96038 0.0
C540 C 0.53136 0.57693 0.98602 0.0
C541 C 0.53528 0.61655 0.00045 0.0
C542 C 0.55129 0.65199 0.98991 0.0
C543 C 0.51679 0.53753 0.99775 0.0
C544 C 0.48761 0.54078 0.00405 0.0
C545 C 0.53104 0.49601 0.00088 0.0
C546 C 0.56224 0.49102 0.9955 0.0
C547 C 0.5823 0.51969 0.0074 0.0
C548 C 0.61158 0.51525 0.00195 0.0
C549 C 0.62112 0.48194 0.98482 0.0
C550 C 0.60143 0.4529 0.97319 0.0
C551 C 0.57212 0.45732 0.97849 0.0
H552 H 0.64377 0.47858 0.98059 0.0
H553 H 0.35886 0.52651 0.02725 0.0
H554 H 0.03991 0.7008 0.99499 0.0
H555 H 0.01011 0.63817 0.97971 0.0
H556 H 0.04824 0.55289 0.03823 0.0
H557 H 0.07785 0.61456 0.05333 0.0
H558 H 0.04729 0.51127 0.99215 0.0
H559 H 0.98008 0.59258 0.04513 0.0
H560 H 0.95218 0.65813 0.05963 0.0
H561 H 0.91245 0.66651 0.9838 0.0
H562 H 0.94045 0.60135 0.96872 0.0
H563 H 0.9475 0.32774 0.98432 0.0
H564 H 0.97807 0.38985 0.99898 0.0
H565 H 0.94037 0.47499 0.94017 0.0
H566 H 0.90998 0.41378 0.92566 0.0
H567 H 0.94118 0.51656 0.98643 0.0
H568 H 0.00862 0.4344 0.93369 0.0
H569 H 0.03635 0.36831 0.91979 0.0
H570 H 0.07549 0.36096 0.99591 0.0
H571 H 0.04767 0.42669 0.01039 0.0
C572 C 0.04167 0.6688 0.00471 0.0
C573 C 0.06122 0.66282 0.02541 0.0
C574 C 0.02465 0.633 0.99599 0.0
C575 C 0.02687 0.59064 0.00783 0.0
C576 C 0.04617 0.585 0.02866 0.0
C577 C 0.06301 0.62055 0.03737 0.0
C578 C 0.00965 0.55175 0.99846 0.0
C579 C 0.02405 0.51232 0.99118 0.0
C580 C 0.97936 0.5531 0.99675 0.0
C581 C 0.96262 0.59242 0.0057 0.0
C582 C 0.9656 0.60867 0.03147 0.0
C583 C 0.94973 0.64569 0.03981 0.0
C584 C 0.93062 0.66656 0.02262 0.0
C585 C 0.92731 0.65037 0.99708 0.0
C586 C 0.94316 0.61338 0.98862 0.0
C587 C 0.94606 0.35954 0.97433 0.0
C588 C 0.92628 0.36571 0.95383 0.0
C589 C 0.96351 0.39506 0.98272 0.0
C590 C 0.96154 0.43729 0.9707 0.0
C591 C 0.94222 0.44299 0.9499 0.0
C592 C 0.92492 0.40772 0.94153 0.0
C593 C 0.97883 0.47614 0.98004 0.0
C594 C 0.96443 0.51554 0.98735 0.0
C595 C 0.00911 0.47471 0.98185 0.0
C596 C 0.02582 0.43516 0.97321 0.0
C597 C 0.02294 0.41845 0.94754 0.0
C598 C 0.03872 0.3811 0.93954 0.0
C599 C 0.0576 0.36036 0.95698 0.0
C600 C 0.06081 0.37701 0.98244 0.0
C601 C 0.04506 0.41432 0.99054 0.0
H602 H 0.06981 0.33146 0.95074 0.0
H603 H 0.91833 0.6952 0.02913 0.0
H604 H 0.59433 0.86213 0.4939 0.0
H605 H 0.56701 0.93082 0.48702 0.0
H606 H 0.50392 0.88726 0.54319 0.0
H607 H 0.53188 0.81891 0.55107 0.0
H608 H 0.4839 0.93338 0.49097 0.0
H609 H 0.54269 0.94738 0.56776 0.0
H610 H 0.58762 0.94231 0.59299 0.0
H611 H 0.62691 0.03825 0.542 0.0
H612 H 0.5822 0.04318 0.51608 0.0
H613 H 0.42224 0.14681 0.52315 0.0
H614 H 0.4481 0.07721 0.53179 0.0
H615 H 0.51005 0.11071 0.47228 0.0
H616 H 0.48359 0.17984 0.46273 0.0
H617 H 0.52967 0.06923 0.5279 0.0
H618 H 0.47368 0.04854 0.44877 0.0
H619 H 0.43045 0.04941 0.42095 0.0
H620 H 0.38656 0.96604 0.47637 0.0
H621 H 0.42947 0.9653 0.50477 0.0
C622 C 0.5742 0.8664 0.50425 0.0
C623 C 0.56521 0.83487 0.52298 0.0
C624 C 0.55874 0.90593 0.50043 0.0
C625 C 0.53362 0.91432 0.51478 0.0
C626 C 0.52331 0.88141 0.53196 0.0
C627 C 0.5392 0.8423 0.53634 0.0
C628 C 0.51953 0.9588 0.51318 0.0
C629 C 0.49368 0.96296 0.49938 0.0
C630 C 0.53259 0.99752 0.5238 0.0
C631 C 0.55935 0.99483 0.53952 0.0
C632 C 0.56105 0.96679 0.56159 0.0
C633 C 0.58642 0.9641 0.57611 0.0
C634 C 0.61015 0.98978 0.56898 0.0
C635 C 0.60855 0.01822 0.54735 0.0
C636 C 0.58323 0.02092 0.53273 0.0
C637 C 0.44184 0.14014 0.5124 0.0
C638 C 0.45097 0.16911 0.49234 0.0
C639 C 0.45644 0.10008 0.51722 0.0
C640 C 0.48082 0.08863 0.50252 0.0
C641 C 0.49124 0.11892 0.48381 0.0
C642 C 0.47621 0.15853 0.4785 0.0
C643 C 0.49415 0.04379 0.50553 0.0
C644 C 0.51982 0.03958 0.51965 0.0
C645 C 0.48095 0.00498 0.49526 0.0
C646 C 0.45462 0.00741 0.47906 0.0
C647 C 0.45464 0.03109 0.45527 0.0
C648 C 0.43027 0.03133 0.43932 0.0
C649 C 0.40584 0.00765 0.44685 0.0
C650 C 0.40555 0.98425 0.47054 0.0
C651 C 0.42988 0.98395 0.48658 0.0
H652 H 0.38718 0.00731 0.43424 0.0
H653 H 0.62973 0.98786 0.58033 0.0
H654 H 0.96966 0.19235 0.50673 0.0
H655 H 0.99939 0.12879 0.49261 0.0
H656 H 0.9413 0.03822 0.53127 0.0
H657 H 0.91226 0.10104 0.54587 0.0
H658 H 0.99352 0.0118 0.54012 0.0
H659 H 0.9409 0.05534 0.46321 0.0
H660 H 0.92405 0.10736 0.42905 0.0
H661 H 0.01096 0.12969 0.40444 0.0
H662 H 0.02835 0.07821 0.43869 0.0
H663 H 0.04405 0.81069 0.4778 0.0
H664 H 0.01329 0.8727 0.49267 0.0
H665 H 0.07074 0.96681 0.45622 0.0
H666 H 0.10087 0.90574 0.4411 0.0
H667 H 0.01777 0.9903 0.44621 0.0
H668 H 0.07017 0.94692 0.52383 0.0
H669 H 0.08654 0.89461 0.55804 0.0
H670 H 0.99925 0.87127 0.58115 0.0
H671 H 0.98235 0.92304 0.54684 0.0
C672 C 0.96341 0.15889 0.51234 0.0
C673 C 0.93858 0.15189 0.52742 0.0
C674 C 0.9803 0.12249 0.50413 0.0
C675 C 0.97247 0.07839 0.51058 0.0
C676 C 0.94794 0.07168 0.52602 0.0
C677 C 0.93127 0.10783 0.53432 0.0
C678 C 0.98941 0.03899 0.50118 0.0
C679 C 0.99852 0.00692 0.51952 0.0
C680 C 0.99635 0.03254 0.47437 0.0
C681 C 0.98594 0.06327 0.45367 0.0
C682 C 0.95642 0.07158 0.45063 0.0
C683 C 0.94678 0.10093 0.43124 0.0
C684 C 0.96643 0.1219 0.41463 0.0
C685 C 0.99577 0.11347 0.41734 0.0
C686 C 0.00553 0.08418 0.43672 0.0
C687 C 0.04998 0.84461 0.47292 0.0
C688 C 0.07495 0.85313 0.45827 0.0
C689 C 0.03248 0.8801 0.48153 0.0
C690 C 0.03976 0.92471 0.47578 0.0
C691 C 0.0645 0.93292 0.4609 0.0
C692 C 0.08182 0.89775 0.45231 0.0
C693 C 0.02203 0.96326 0.48516 0.0
C694 C 0.01273 0.99515 0.4668 0.0
C695 C 0.01484 0.96946 0.51194 0.0
C696 C 0.02499 0.93846 0.5326 0.0
C697 C 0.05446 0.93037 0.53608 0.0
C698 C 0.06384 0.90087 0.55551 0.0
C699 C 0.04394 0.87953 0.57171 0.0
C700 C 0.01463 0.88776 0.56856 0.0
C701 C 0.00514 0.91719 0.54914 0.0
H702 H 0.05124 0.8567 0.58673 0.0
H703 H 0.95892 0.14462 0.39963 0.0
H704 H 0.17575 0.66362 0.9881 0.0
H705 H 0.20667 0.59879 0.98064 0.0
H706 H 0.24459 0.61726 0.05706 0.0
H707 H 0.21351 0.68164 0.06486 0.0
H708 H 0.2659 0.57352 0.9833 0.0
H709 H 0.2363 0.52034 0.08873 0.0
H710 H 0.19809 0.53476 0.12122 0.0
H711 H 0.13837 0.5615 0.05907 0.0
H712 H 0.17606 0.54645 0.02624 0.0
H713 H 0.35459 0.40263 0.03093 0.0
H714 H 0.32623 0.46733 0.01798 0.0
H715 H 0.24858 0.39015 0.02624 0.0
H716 H 0.2771 0.3264 0.04156 0.0
H717 H 0.24131 0.45983 0.05036 0.0
H718 H 0.2764 0.43611 0.96338 0.0
H719 H 0.31305 0.42055 0.92964 0.0
H720 H 0.35726 0.54129 0.95014 0.0
H721 H 0.32102 0.55741 0.98413 0.0
C722 C 0.19124 0.65459 0.00301 0.0
C723 C 0.19186 0.67689 0.02731 0.0
C724 C 0.20897 0.61776 0.99863 0.0
C725 C 0.22741 0.60303 0.0185 0.0
C726 C 0.23016 0.62805 0.04165 0.0
C727 C 0.21237 0.66467 0.0461 0.0
C728 C 0.24008 0.55806 0.01707 0.0
C729 C 0.26057 0.54836 0.99778 0.0
C730 C 0.23216 0.52503 0.03544 0.0
C731 C 0.20908 0.53263 0.05505 0.0
C732 C 0.21496 0.52899 0.08201 0.0
C733 C 0.1934 0.53731 0.10048 0.0
C734 C 0.16585 0.54915 0.09222 0.0
C735 C 0.15974 0.55244 0.06545 0.0
C736 C 0.18119 0.54402 0.04691 0.0
C737 C 0.33148 0.39945 0.02937 0.0
C738 C 0.31775 0.36013 0.03707 0.0
C739 C 0.31531 0.43624 0.0217 0.0
C740 C 0.28525 0.43366 0.02066 0.0
C741 C 0.27172 0.39306 0.02689 0.0
C742 C 0.28789 0.35671 0.03552 0.0
C743 C 0.26804 0.47479 0.01686 0.0
C744 C 0.24651 0.48414 0.03534 0.0
C745 C 0.27458 0.50683 0.99728 0.0
C746 C 0.29596 0.49794 0.97631 0.0
C747 C 0.29395 0.45933 0.96069 0.0
C748 C 0.31466 0.45041 0.94153 0.0
C749 C 0.33746 0.47993 0.93774 0.0
C750 C 0.33953 0.51854 0.95303 0.0
C751 C 0.31886 0.52766 0.97219 0.0
H752 H 0.35352 0.47288 0.92295 0.0
H753 H 0.14922 0.55571 0.10655 0.0
H754 H 0.3636 0.08085 0.4473 0.0
H755 H 0.3386 0.01082 0.45549 0.0
H756 H 0.28706 0.075 0.51495 0.0
H757 H 0.31304 0.14522 0.50756 0.0
H758 H 0.2999 0.9861 0.52733 0.0
H759 H 0.26085 0.06893 0.45522 0.0
H760 H 0.26308 0.11196 0.41405 0.0
H761 H 0.29903 0.99857 0.37415 0.0
H762 H 0.2974 0.95506 0.41519 0.0
H763 H 0.17728 0.84211 0.50194 0.0
H764 H 0.21331 0.89757 0.51463 0.0
H765 H 0.27032 0.84703 0.45474 0.0
H766 H 0.23404 0.79293 0.44144 0.0
H767 H 0.25325 0.93125 0.44599 0.0
H768 H 0.28931 0.84682 0.51948 0.0
H769 H 0.28534 0.80566 0.56117 0.0
H770 H 0.25166 0.92269 0.59903 0.0
H771 H 0.25504 0.96441 0.55747 0.0
C772 C 0.34724 0.07987 0.46238 0.0
C773 C 0.33984 0.11837 0.4765 0.0
C774 C 0.33311 0.03991 0.46712 0.0
C775 C 0.31076 0.03811 0.48549 0.0
C776 C 0.30428 0.07589 0.50067 0.0
C777 C 0.31889 0.11591 0.49627 0.0
C778 C 0.29226 0.99831 0.48627 0.0
C779 C 0.2894 0.97413 0.50969 0.0
C780 C 0.27868 0.98301 0.46318 0.0
C781 C 0.27917 0.00885 0.43832 0.0
C782 C 0.26936 0.05325 0.43769 0.0
C783 C 0.27051 0.07772 0.41438 0.0
C784 C 0.28123 0.05804 0.39151 0.0
C785 C 0.29074 0.01379 0.39188 0.0
C786 C 0.28967 0.98918 0.41515 0.0
C787 C 0.19795 0.84188 0.49222 0.0
C788 C 0.20289 0.81417 0.47043 0.0
C789 C 0.21854 0.87337 0.49954 0.0
C790 C 0.24431 0.87657 0.48542 0.0
C791 C 0.25045 0.84517 0.46574 0.0
C792 C 0.22975 0.81445 0.4581 0.0
C793 C 0.26169 0.91758 0.48681 0.0
C794 C 0.26389 0.94268 0.4637 0.0
C795 C 0.27415 0.93368 0.51026 0.0
C796 C 0.27218 0.90862 0.53527 0.0
C797 C 0.28081 0.86368 0.53662 0.0
C798 C 0.27872 0.84027 0.56025 0.0
C799 C 0.26819 0.86151 0.58272 0.0
C800 C 0.25979 0.90625 0.58161 0.0
C801 C 0.26182 0.92981 0.55803 0.0
H802 H 0.26659 0.84332 0.60099 0.0
H803 H 0.28214 0.07706 0.37349 0.0
H804 H 0.68239 0.65994 0.01794 0.0
H805 H 0.70486 0.59639 0.0407 0.0
H806 H 0.69666 0.51694 0.97042 0.0
H807 H 0.67502 0.5799 0.94764 0.0
H808 H 0.68077 0.47238 0.0199 0.0
H809 H 0.75704 0.56713 0.97812 0.0
H810 H 0.78325 0.63849 0.97524 0.0
H811 H 0.80119 0.633 0.05783 0.0
H812 H 0.77479 0.56177 0.06116 0.0
H813 H 0.77207 0.34725 0.95 0.0
H814 H 0.74005 0.39602 0.97449 0.0
H815 H 0.79881 0.39579 0.03991 0.0
H816 H 0.83116 0.34621 0.01528 0.0
H817 H 0.78701 0.479 0.0227 0.0
H818 H 0.73118 0.36047 0.05211 0.0
H819 H 0.70615 0.28809 0.05165 0.0
H820 H 0.64912 0.33595 0.99183 0.0
H821 H 0.67409 0.40824 0.99149 0.0
C822 C 0.6854 0.62877 0.00749 0.0
C823 C 0.67742 0.62479 0.98098 0.0
C824 C 0.69795 0.59262 0.02053 0.0
C825 C 0.702 0.55208 0.00726 0.0
C826 C 0.69333 0.54791 0.98104 0.0
C827 C 0.68135 0.58402 0.96795 0.0
C828 C 0.71793 0.51471 0.019 0.0
C829 C 0.70398 0.47348 0.02112 0.0
C830 C 0.74798 0.51694 0.02195 0.0
C831 C 0.76371 0.55961 0.01995 0.0
C832 C 0.76641 0.58138 0.99567 0.0
C833 C 0.78132 0.62172 0.99395 0.0
C834 C 0.7938 0.64035 0.01636 0.0
C835 C 0.79144 0.6186 0.04051 0.0
C836 C 0.77651 0.57828 0.04233 0.0
C837 C 0.77793 0.35682 0.9698 0.0
C838 C 0.80416 0.34349 0.98067 0.0
C839 C 0.75942 0.38421 0.98395 0.0
C840 C 0.76685 0.39898 0.00922 0.0
C841 C 0.79255 0.38422 0.0206 0.0
C842 C 0.81099 0.35618 0.00649 0.0
C843 C 0.75005 0.43583 0.02092 0.0
C844 C 0.76377 0.47729 0.02334 0.0
C845 C 0.71976 0.43363 0.02202 0.0
C846 C 0.70449 0.39007 0.02193 0.0
C847 C 0.71338 0.35555 0.03876 0.0
C848 C 0.69919 0.31447 0.03863 0.0
C849 C 0.67602 0.30745 0.02176 0.0
C850 C 0.66701 0.34148 0.00496 0.0
C851 C 0.68114 0.3826 0.00499 0.0
H852 H 0.66507 0.27562 0.0217 0.0
H853 H 0.80536 0.67156 0.01499 0.0
H854 H 0.65798 0.92601 0.55708 0.0
H855 H 0.68133 0.99306 0.54019 0.0
H856 H 0.7277 0.91308 0.4838 0.0
H857 H 0.70398 0.84582 0.5004 0.0
H858 H 0.76258 0.96638 0.51243 0.0
H859 H 0.68011 0.98041 0.46242 0.0
H860 H 0.62951 0.98368 0.44891 0.0
H861 H 0.61739 0.10264 0.49465 0.0
H862 H 0.66752 0.099 0.50956 0.0
H863 H 0.83067 0.16782 0.48175 0.0
H864 H 0.79654 0.10967 0.46943 0.0
H865 H 0.74633 0.13859 0.53851 0.0
H866 H 0.78062 0.19645 0.55124 0.0
H867 H 0.71438 0.10889 0.48936 0.0
H868 H 0.7957 0.07123 0.54844 0.0
H869 H 0.84774 0.07005 0.55728 0.0
H870 H 0.86194 0.99522 0.4865 0.0
H871 H 0.80998 0.99673 0.47703 0.0
C872 C 0.67304 0.92282 0.541 0.0
C873 C 0.67943 0.88087 0.53018 0.0
C874 C 0.68609 0.96111 0.53118 0.0
C875 C 0.70595 0.95795 0.51056 0.0
C876 C 0.71224 0.9161 0.49958 0.0
C877 C 0.69883 0.87782 0.50916 0.0
C878 C 0.72231 0.99783 0.50269 0.0
C879 C 0.75205 0.9972 0.50671 0.0
C880 C 0.70853 0.03796 0.49511 0.0
C881 C 0.67775 0.03916 0.48735 0.0
C882 C 0.66659 0.0068 0.47009 0.0
C883 C 0.63793 0.00877 0.46212 0.0
C884 C 0.62025 0.04336 0.47089 0.0
C885 C 0.63114 0.0759 0.48781 0.0
C886 C 0.65966 0.07375 0.49616 0.0
C887 C 0.81188 0.16276 0.4939 0.0
C888 C 0.8085 0.18584 0.51774 0.0
C889 C 0.79238 0.12974 0.48673 0.0
C890 C 0.7692 0.11987 0.5032 0.0
C891 C 0.76413 0.14606 0.52556 0.0
C892 C 0.78382 0.17874 0.53292 0.0
C893 C 0.75392 0.07728 0.50038 0.0
C894 C 0.72462 0.07754 0.49442 0.0
C895 C 0.76801 0.03653 0.50575 0.0
C896 C 0.79907 0.03451 0.51189 0.0
C897 C 0.80996 0.05478 0.5347 0.0
C898 C 0.83942 0.05405 0.53982 0.0
C899 C 0.85814 0.03266 0.52242 0.0
C900 C 0.84742 0.01184 0.49992 0.0
C901 C 0.81798 0.01263 0.49467 0.0
H902 H 0.88094 0.03211 0.52641 0.0
H903 H 0.5981 0.04493 0.46461 0.0
loop_
_geom_bond_atom_site_label_1
_geom_bond_atom_site_label_2
_geom_bond_distance
_geom_bond_site_symmetry_2
_ccdc_geom_bond_type
In0 O1 2.294 . S
In0 O2 2.326 . S
In0 O6 2.266 . S
In0 O7 2.326 . S
In0 O8 2.266 . S
In0 O9 2.326 . S
In0 O11 2.294 . S
In0 O12 2.326 . S
O1 In0 2.294 . S
O1 C10 1.240 . S
O2 In0 2.326 . S
O2 C10 1.252 . S
C3 O6 1.252 . S
C3 O7 1.260 . S
C4 O11 1.240 . S
C4 O12 1.252 . S
C5 O8 1.252 . S
C5 O9 1.260 . S
O6 In0 2.266 . S
O6 C3 1.252 . S
O7 In0 2.326 . S
O7 C3 1.260 . S
O8 In0 2.266 . S
O8 C5 1.252 . S
O9 In0 2.326 . S
O9 C5 1.260 . S
C10 O1 1.240 . S
C10 O2 1.252 . S
O11 In0 2.294 . S
O11 C4 1.240 . S
O12 In0 2.326 . S
O12 C4 1.252 . S
In13 O14 2.294 . S
In13 O15 2.326 . S
In13 O19 2.266 . S
In13 O20 2.326 . S
In13 O21 2.266 . S
In13 O22 2.326 . S
In13 O24 2.294 . S
In13 O25 2.326 . S
O14 In13 2.294 . S
O14 C23 1.240 . S
O15 In13 2.326 . S
O15 C23 1.252 . S
C16 O19 1.252 . S
C16 O20 1.260 . S
C17 O24 1.240 . S
C17 O25 1.252 . S
C18 O21 1.252 . S
C18 O22 1.260 . S
O19 In13 2.266 . S
O19 C16 1.252 . S
O20 In13 2.326 . S
O20 C16 1.260 . S
O21 In13 2.266 . S
O21 C18 1.252 . S
O22 In13 2.326 . S
O22 C18 1.260 . S
C23 O14 1.240 . S
C23 O15 1.252 . S
O24 In13 2.294 . S
O24 C17 1.240 . S
O25 In13 2.326 . S
O25 C17 1.252 . S
In26 O27 2.294 . S
In26 O28 2.326 . S
In26 O32 2.266 . S
In26 O33 2.326 . S
In26 O34 2.266 . S
In26 O35 2.326 . S
In26 O37 2.294 . S
In26 O38 2.326 . S
O27 In26 2.294 . S
O27 C36 1.240 . S
O28 In26 2.326 . S
O28 C36 1.252 . S
C29 O32 1.252 . S
C29 O33 1.260 . S
C30 O37 1.240 . S
C30 O38 1.252 . S
C31 O34 1.252 . S
C31 O35 1.260 . S
O32 In26 2.266 . S
O32 C29 1.252 . S
O33 In26 2.326 . S
O33 C29 1.260 . S
O34 In26 2.266 . S
O34 C31 1.252 . S
O35 In26 2.326 . S
O35 C31 1.260 . S
C36 O27 1.240 . S
C36 O28 1.252 . S
O37 In26 2.294 . S
O37 C30 1.240 . S
O38 In26 2.326 . S
O38 C30 1.252 . S
In39 O40 2.294 . S
In39 O41 2.326 . S
In39 O45 2.266 . S
In39 O46 2.326 . S
In39 O47 2.266 . S
In39 O48 2.326 . S
In39 O50 2.294 . S
In39 O51 2.326 . S
O40 In39 2.294 . S
O40 C49 1.240 . S
O41 In39 2.326 . S
O41 C49 1.252 . S
C42 O45 1.252 . S
C42 O46 1.260 . S
C43 O50 1.240 . S
C43 O51 1.252 . S
C44 O47 1.252 . S
C44 O48 1.260 . S
O45 In39 2.266 . S
O45 C42 1.252 . S
O46 In39 2.326 . S
O46 C42 1.260 . S
O47 In39 2.266 . S
O47 C44 1.252 . S
O48 In39 2.326 . S
O48 C44 1.260 . S
C49 O40 1.240 . S
C49 O41 1.252 . S
O50 In39 2.294 . S
O50 C43 1.240 . S
O51 In39 2.326 . S
O51 C43 1.252 . S
In52 O53 2.294 . S
In52 O54 2.326 . S
In52 O58 2.266 . S
In52 O59 2.326 . S
In52 O60 2.266 . S
In52 O61 2.326 . S
In52 O63 2.294 . S
In52 O64 2.326 . S
O53 In52 2.294 . S
O53 C62 1.240 . S
O54 In52 2.326 . S
O54 C62 1.252 . S
C55 O58 1.252 . S
C55 O59 1.260 . S
C56 O63 1.240 . S
C56 O64 1.252 . S
C57 O60 1.252 . S
C57 O61 1.260 . S
O58 In52 2.266 . S
O58 C55 1.252 . S
O59 In52 2.326 . S
O59 C55 1.260 . S
O60 In52 2.266 . S
O60 C57 1.252 . S
O61 In52 2.326 . S
O61 C57 1.260 . S
C62 O53 1.240 . S
C62 O54 1.252 . S
O63 In52 2.294 . S
O63 C56 1.240 . S
O64 In52 2.326 . S
O64 C56 1.252 . S
In65 O66 2.294 . S
In65 O67 2.326 . S
In65 O71 2.266 . S
In65 O72 2.326 . S
In65 O73 2.266 . S
In65 O74 2.326 . S
In65 O76 2.294 . S
In65 O77 2.326 . S
O66 In65 2.294 . S
O66 C75 1.240 . S
O67 In65 2.326 . S
O67 C75 1.252 . S
C68 O71 1.252 . S
C68 O72 1.260 . S
C69 O76 1.240 . S
C69 O77 1.252 . S
C70 O73 1.252 . S
C70 O74 1.260 . S
O71 In65 2.266 . S
O71 C68 1.252 . S
O72 In65 2.326 . S
O72 C68 1.260 . S
O73 In65 2.266 . S
O73 C70 1.252 . S
O74 In65 2.326 . S
O74 C70 1.260 . S
C75 O66 1.240 . S
C75 O67 1.252 . S
O76 In65 2.294 . S
O76 C69 1.240 . S
O77 In65 2.326 . S
O77 C69 1.252 . S
In78 O79 2.294 . S
In78 O80 2.326 . S
In78 O84 2.266 . S
In78 O85 2.326 . S
In78 O86 2.266 . S
In78 O87 2.326 . S
In78 O89 2.294 . S
In78 O90 2.326 . S
O79 In78 2.294 . S
O79 C88 1.240 . S
O80 In78 2.326 . S
O80 C88 1.252 . S
C81 O84 1.252 . S
C81 O85 1.260 . S
C82 O89 1.240 . S
C82 O90 1.252 . S
C83 O86 1.252 . S
C83 O87 1.260 . S
O84 In78 2.266 . S
O84 C81 1.252 . S
O85 In78 2.326 . S
O85 C81 1.260 . S
O86 In78 2.266 . S
O86 C83 1.252 . S
O87 In78 2.326 . S
O87 C83 1.260 . S
C88 O79 1.240 . S
C88 O80 1.252 . S
O89 In78 2.294 . S
O89 C82 1.240 . S
O90 In78 2.326 . S
O90 C82 1.252 . S
In91 O92 2.294 . S
In91 O93 2.326 . S
In91 O97 2.266 . S
In91 O98 2.326 . S
In91 O99 2.266 . S
In91 O100 2.326 . S
In91 O102 2.294 . S
In91 O103 2.326 . S
O92 In91 2.294 . S
O92 C101 1.240 . S
O93 In91 2.326 . S
O93 C101 1.252 . S
C94 O97 1.252 . S
C94 O98 1.260 . S
C95 O102 1.240 . S
C95 O103 1.252 . S
C96 O99 1.252 . S
C96 O100 1.260 . S
O97 In91 2.266 . S
O97 C94 1.252 . S
O98 In91 2.326 . S
O98 C94 1.260 . S
O99 In91 2.266 . S
O99 C96 1.252 . S
O100 In91 2.326 . S
O100 C96 1.260 . S
C101 O92 1.240 . S
C101 O93 1.252 . S
O102 In91 2.294 . S
O102 C95 1.240 . S
O103 In91 2.326 . S
O103 C95 1.252 . S
H104 C122 0.951 . S
H105 C124 0.951 . S
H106 C126 0.950 . S
H107 C127 0.950 . S
H108 C129 0.950 . S
H109 C132 0.950 1_554 S
H110 C133 0.950 . S
H111 C135 0.950 . S
H112 C136 0.950 1_565 S
H113 C137 0.951 . S
H114 C139 0.951 . S
H115 C141 0.950 . S
H116 C142 0.950 . S
H117 C144 0.950 . S
H118 C147 0.950 . S
H119 C148 0.950 . S
H120 C150 0.950 . S
H121 C151 0.950 1_545 S
C122 H104 0.951 . S
C122 C123 1.366 . S
C122 C124 1.388 . S
C123 C122 1.366 . S
C123 C127 1.385 . S
C124 H105 0.951 . S
C124 C122 1.388 . S
C124 C125 1.366 . S
C125 C124 1.366 . S
C125 C126 1.414 . S
C125 C128 1.499 . S
C126 H106 0.950 . S
C126 C125 1.414 . S
C126 C127 1.374 . S
C127 H107 0.950 . S
C127 C123 1.385 . S
C127 C126 1.374 . S
C128 C125 1.499 . S
C128 C129 1.373 . S
C128 C130 1.389 . S
C129 H108 0.950 . S
C129 C128 1.373 . S
C129 C145 1.377 1_545 S
C130 C128 1.389 . S
C130 C131 1.524 1_554 S
C130 C144 1.377 1_545 S
C131 C130 1.524 1_556 S
C131 C132 1.397 . S
C131 C136 1.363 . S
C132 H109 0.950 1_556 S
C132 C131 1.397 . S
C132 C133 1.334 . S
C133 H110 0.950 . S
C133 C132 1.334 . S
C133 C134 1.287 . S
C134 C133 1.287 . S
C134 C135 1.524 . S
C134 H153 0.913 . S
C135 H111 0.950 . S
C135 C134 1.524 . S
C135 C136 1.415 . S
C136 H112 0.950 1_545 S
C136 C131 1.363 . S
C136 C135 1.415 . S
C137 H113 0.951 . S
C137 C138 1.366 . S
C137 C139 1.388 . S
C138 C137 1.366 . S
C138 C142 1.385 . S
C139 H114 0.951 . S
C139 C137 1.388 . S
C139 C140 1.366 . S
C140 C139 1.366 . S
C140 C141 1.414 . S
C140 C143 1.499 . S
C141 H115 0.950 . S
C141 C140 1.414 . S
C141 C142 1.374 . S
C142 H116 0.950 . S
C142 C138 1.385 . S
C142 C141 1.374 . S
C143 C140 1.499 . S
C143 C144 1.373 . S
C143 C145 1.389 . S
C144 H117 0.950 . S
C144 C130 1.377 1_565 S
C144 C143 1.373 . S
C145 C129 1.377 1_565 S
C145 C143 1.389 . S
C145 C146 1.524 . S
C146 C145 1.524 . S
C146 C147 1.397 . S
C146 C151 1.363 . S
C147 H118 0.950 . S
C147 C146 1.397 . S
C147 C148 1.334 . S
C148 H119 0.950 . S
C148 C147 1.334 . S
C148 C149 1.287 . S
C149 C148 1.287 . S
C149 C150 1.524 . S
C149 H152 0.999 . S
C150 H120 0.950 . S
C150 C149 1.524 . S
C150 C151 1.415 . S
C151 H121 0.950 1_565 S
C151 C146 1.363 . S
C151 C150 1.415 . S
H152 C149 0.999 . S
H153 C134 0.913 . S
H154 C172 0.951 . S
H155 C174 0.951 . S
H156 C176 0.950 . S
H157 C177 0.950 . S
H158 C179 0.950 . S
H159 C182 0.950 . S
H160 C183 0.950 . S
H161 C185 0.950 . S
H162 C186 0.950 . S
H163 C187 0.951 . S
H164 C189 0.951 . S
H165 C191 0.950 . S
H166 C192 0.950 . S
H167 C194 0.950 . S
H168 C197 0.950 . S
H169 C198 0.950 . S
H170 C200 0.950 . S
H171 C201 0.950 . S
C172 H154 0.951 . S
C172 C173 1.366 . S
C172 C174 1.388 . S
C173 C172 1.366 . S
C173 C177 1.385 . S
C174 H155 0.951 . S
C174 C172 1.388 . S
C174 C175 1.366 . S
C175 C174 1.366 . S
C175 C176 1.414 . S
C175 C178 1.499 . S
C176 H156 0.950 . S
C176 C175 1.414 . S
C176 C177 1.374 . S
C177 H157 0.950 . S
C177 C173 1.385 . S
C177 C176 1.374 . S
C178 C175 1.499 . S
C178 C179 1.373 . S
C178 C180 1.389 . S
C179 H158 0.950 . S
C179 C178 1.373 . S
C179 C195 1.377 . S
C180 C178 1.389 . S
C180 C181 1.524 . S
C180 C194 1.377 . S
C181 C180 1.524 . S
C181 C182 1.397 . S
C181 C186 1.363 . S
C182 H159 0.950 . S
C182 C181 1.397 . S
C182 C183 1.334 . S
C183 H160 0.950 . S
C183 C182 1.334 . S
C183 C184 1.287 . S
C184 C183 1.287 . S
C184 C185 1.524 . S
C184 H203 0.913 . S
C185 H161 0.950 . S
C185 C184 1.524 . S
C185 C186 1.415 . S
C186 H162 0.950 . S
C186 C181 1.363 . S
C186 C185 1.415 . S
C187 H163 0.951 . S
C187 C188 1.366 . S
C187 C189 1.388 . S
C188 C187 1.366 . S
C188 C192 1.385 . S
C189 H164 0.951 . S
C189 C187 1.388 . S
C189 C190 1.366 . S
C190 C189 1.366 . S
C190 C191 1.414 . S
C190 C193 1.499 . S
C191 H165 0.950 . S
C191 C190 1.414 . S
C191 C192 1.374 . S
C192 H166 0.950 . S
C192 C188 1.385 . S
C192 C191 1.374 . S
C193 C190 1.499 . S
C193 C194 1.373 . S
C193 C195 1.389 . S
C194 H167 0.950 . S
C194 C180 1.377 . S
C194 C193 1.373 . S
C195 C179 1.377 . S
C195 C193 1.389 . S
C195 C196 1.524 . S
C196 C195 1.524 . S
C196 C197 1.397 . S
C196 C201 1.363 . S
C197 H168 0.950 . S
C197 C196 1.397 . S
C197 C198 1.334 . S
C198 H169 0.950 . S
C198 C197 1.334 . S
C198 C199 1.287 . S
C199 C198 1.287 . S
C199 C200 1.524 . S
C199 H202 0.999 . S
C200 H170 0.950 . S
C200 C199 1.524 . S
C200 C201 1.415 . S
C201 H171 0.950 . S
C201 C196 1.363 . S
C201 C200 1.415 . S
H202 C199 0.999 . S
H203 C184 0.913 . S
H204 C222 0.951 . S
H205 C224 0.951 . S
H206 C226 0.950 . S
H207 C227 0.950 . S
H208 C229 0.950 . S
H209 C232 0.950 . S
H210 C233 0.950 . S
H211 C235 0.950 . S
H212 C236 0.950 . S
H213 C237 0.951 . S
H214 C239 0.951 . S
H215 C241 0.950 . S
H216 C242 0.950 . S
H217 C244 0.950 . S
H218 C247 0.950 . S
H219 C248 0.950 . S
H220 C250 0.950 . S
H221 C251 0.950 . S
C222 H204 0.951 . S
C222 C223 1.366 . S
C222 C224 1.388 . S
C223 C222 1.366 . S
C223 C227 1.385 . S
C224 H205 0.951 . S
C224 C222 1.388 . S
C224 C225 1.366 . S
C225 C224 1.366 . S
C225 C226 1.414 . S
C225 C228 1.499 . S
C226 H206 0.950 . S
C226 C225 1.414 . S
C226 C227 1.374 . S
C227 H207 0.950 . S
C227 C223 1.385 . S
C227 C226 1.374 . S
C228 C225 1.499 . S
C228 C229 1.373 . S
C228 C230 1.376 1_565 S
C229 H208 0.950 . S
C229 C228 1.373 . S
C229 C245 1.389 . S
C230 C228 1.376 1_545 S
C230 C231 1.525 . S
C230 C244 1.389 . S
C231 C230 1.525 . S
C231 C232 1.397 1_545 S
C231 C236 1.363 . S
C232 H209 0.950 . S
C232 C231 1.397 1_565 S
C232 C233 1.334 . S
C233 H210 0.950 . S
C233 C232 1.334 . S
C233 C234 1.287 1_565 S
C234 C233 1.287 1_545 S
C234 C235 1.524 . S
C234 H253 0.913 . S
C235 H211 0.950 . S
C235 C234 1.524 . S
C235 C236 1.415 . S
C236 H212 0.950 . S
C236 C231 1.363 . S
C236 C235 1.415 . S
C237 H213 0.951 . S
C237 C238 1.366 . S
C237 C239 1.388 . S
C238 C237 1.366 . S
C238 C242 1.385 . S
C239 H214 0.951 . S
C239 C237 1.388 . S
C239 C240 1.366 . S
C240 C239 1.366 . S
C240 C241 1.414 . S
C240 C243 1.499 . S
C241 H215 0.950 . S
C241 C240 1.414 . S
C241 C242 1.374 . S
C242 H216 0.950 . S
C242 C238 1.385 . S
C242 C241 1.374 . S
C243 C240 1.499 . S
C243 C244 1.373 . S
C243 C245 1.376 1_545 S
C244 H217 0.950 . S
C244 C230 1.389 . S
C244 C243 1.373 . S
C245 C229 1.389 . S
C245 C243 1.376 1_565 S
C245 C246 1.525 . S
C246 C245 1.525 . S
C246 C247 1.397 1_566 S
C246 C251 1.363 . S
C247 H218 0.950 . S
C247 C246 1.397 1_544 S
C247 C248 1.334 . S
C248 H219 0.950 . S
C248 C247 1.334 . S
C248 C249 1.287 1_545 S
C249 C248 1.287 1_565 S
C249 C250 1.524 . S
C249 H252 0.999 . S
C250 H220 0.950 . S
C250 C249 1.524 . S
C250 C251 1.415 1_554 S
C251 H221 0.950 . S
C251 C246 1.363 . S
C251 C250 1.415 1_556 S
H252 C249 0.999 . S
H253 C234 0.913 . S
H254 C272 0.951 . S
H255 C274 0.951 . S
H256 C276 0.950 . S
H257 C277 0.950 . S
H258 C279 0.950 . S
H259 C282 0.950 . S
H260 C283 0.950 . S
H261 C285 0.950 . S
H262 C286 0.950 . S
H263 C287 0.951 . S
H264 C289 0.951 . S
H265 C291 0.950 . S
H266 C292 0.950 . S
H267 C294 0.950 . S
H268 C297 0.950 . S
H269 C298 0.950 . S
H270 C300 0.950 . S
H271 C301 0.950 . S
C272 H254 0.951 . S
C272 C273 1.366 . S
C272 C274 1.388 . S
C273 C272 1.366 . S
C273 C277 1.385 . S
C274 H255 0.951 . S
C274 C272 1.388 . S
C274 C275 1.366 . S
C275 C274 1.366 . S
C275 C276 1.414 . S
C275 C278 1.499 . S
C276 H256 0.950 . S
C276 C275 1.414 . S
C276 C277 1.374 . S
C277 H257 0.950 . S
C277 C273 1.385 . S
C277 C276 1.374 . S
C278 C275 1.499 . S
C278 C279 1.373 . S
C278 C280 1.389 . S
C279 H258 0.950 . S
C279 C278 1.373 . S
C279 C295 1.377 . S
C280 C278 1.389 . S
C280 C281 1.524 . S
C280 C294 1.377 . S
C281 C280 1.524 . S
C281 C282 1.397 . S
C281 C286 1.363 . S
C282 H259 0.950 . S
C282 C281 1.397 . S
C282 C283 1.334 . S
C283 H260 0.950 . S
C283 C282 1.334 . S
C283 C284 1.287 . S
C284 C283 1.287 . S
C284 C285 1.524 . S
C284 H303 0.913 . S
C285 H261 0.950 . S
C285 C284 1.524 . S
C285 C286 1.415 . S
C286 H262 0.950 . S
C286 C281 1.363 . S
C286 C285 1.415 . S
C287 H263 0.951 . S
C287 C288 1.366 . S
C287 C289 1.388 . S
C288 C287 1.366 . S
C288 C292 1.385 . S
C289 H264 0.951 . S
C289 C287 1.388 . S
C289 C290 1.366 . S
C290 C289 1.366 . S
C290 C291 1.414 . S
C290 C293 1.499 . S
C291 H265 0.950 . S
C291 C290 1.414 . S
C291 C292 1.374 . S
C292 H266 0.950 . S
C292 C288 1.385 . S
C292 C291 1.374 . S
C293 C290 1.499 . S
C293 C294 1.373 . S
C293 C295 1.389 . S
C294 H267 0.950 . S
C294 C280 1.377 . S
C294 C293 1.373 . S
C295 C279 1.377 . S
C295 C293 1.389 . S
C295 C296 1.524 . S
C296 C295 1.524 . S
C296 C297 1.397 . S
C296 C301 1.363 . S
C297 H268 0.950 . S
C297 C296 1.397 . S
C297 C298 1.334 . S
C298 H269 0.950 . S
C298 C297 1.334 . S
C298 C299 1.287 . S
C299 C298 1.287 . S
C299 C300 1.524 . S
C299 H302 0.999 . S
C300 H270 0.950 . S
C300 C299 1.524 . S
C300 C301 1.415 . S
C301 H271 0.950 . S
C301 C296 1.363 . S
C301 C300 1.415 . S
H302 C299 0.999 . S
H303 C284 0.913 . S
H304 C322 0.951 . S
H305 C324 0.951 . S
H306 C326 0.950 . S
H307 C327 0.950 . S
H308 C329 0.950 . S
H309 C332 0.950 . S
H310 C333 0.950 . S
H311 C335 0.950 . S
H312 C336 0.950 . S
H313 C337 0.951 . S
H314 C339 0.951 . S
H315 C341 0.950 . S
H316 C342 0.950 . S
H317 C344 0.950 . S
H318 C347 0.950 . S
H319 C348 0.950 . S
H320 C350 0.950 . S
H321 C351 0.950 . S
C322 H304 0.951 . S
C322 C323 1.366 . S
C322 C324 1.388 . S
C323 C322 1.366 . S
C323 C327 1.385 . S
C324 H305 0.951 . S
C324 C322 1.388 . S
C324 C325 1.366 . S
C325 C324 1.366 . S
C325 C326 1.414 . S
C325 C328 1.499 . S
C326 H306 0.950 . S
C326 C325 1.414 . S
C326 C327 1.374 . S
C327 H307 0.950 . S
C327 C323 1.385 . S
C327 C326 1.374 . S
C328 C325 1.499 . S
C328 C329 1.373 . S
C328 C330 1.389 . S
C329 H308 0.950 . S
C329 C328 1.373 . S
C329 C345 1.377 . S
C330 C328 1.389 . S
C330 C331 1.524 . S
C330 C344 1.377 . S
C331 C330 1.524 . S
C331 C332 1.397 . S
C331 C336 1.363 . S
C332 H309 0.950 . S
C332 C331 1.397 . S
C332 C333 1.334 . S
C333 H310 0.950 . S
C333 C332 1.334 . S
C333 C334 1.287 . S
C334 C333 1.287 . S
C334 C335 1.524 . S
C334 H353 0.913 . S
C335 H311 0.950 . S
C335 C334 1.524 . S
C335 C336 1.415 . S
C336 H312 0.950 . S
C336 C331 1.363 . S
C336 C335 1.415 . S
C337 H313 0.951 . S
C337 C338 1.366 . S
C337 C339 1.388 . S
C338 C337 1.366 . S
C338 C342 1.385 . S
C339 H314 0.951 . S
C339 C337 1.388 . S
C339 C340 1.366 . S
C340 C339 1.366 . S
C340 C341 1.414 . S
C340 C343 1.499 . S
C341 H315 0.950 . S
C341 C340 1.414 . S
C341 C342 1.374 . S
C342 H316 0.950 . S
C342 C338 1.385 . S
C342 C341 1.374 . S
C343 C340 1.499 . S
C343 C344 1.373 . S
C343 C345 1.389 . S
C344 H317 0.950 . S
C344 C330 1.377 . S
C344 C343 1.373 . S
C345 C329 1.377 . S
C345 C343 1.389 . S
C345 C346 1.524 . S
C346 C345 1.524 . S
C346 C347 1.397 . S
C346 C351 1.363 . S
C347 H318 0.950 . S
C347 C346 1.397 . S
C347 C348 1.334 . S
C348 H319 0.950 . S
C348 C347 1.334 . S
C348 C349 1.287 . S
C349 C348 1.287 . S
C349 C350 1.524 . S
C349 H352 0.999 . S
C350 H320 0.950 . S
C350 C349 1.524 . S
C350 C351 1.415 . S
C351 H321 0.950 . S
C351 C346 1.363 . S
C351 C350 1.415 . S
H352 C349 0.999 . S
H353 C334 0.913 . S
H354 C372 0.951 . S
H355 C374 0.951 . S
H356 C376 0.950 . S
H357 C377 0.950 . S
H358 C379 0.950 . S
H359 C382 0.950 . S
H360 C383 0.950 . S
H361 C385 0.950 . S
H362 C386 0.950 . S
H363 C387 0.951 . S
H364 C389 0.951 . S
H365 C391 0.950 . S
H366 C392 0.950 . S
H367 C394 0.950 . S
H368 C397 0.950 . S
H369 C398 0.950 . S
H370 C400 0.950 . S
H371 C401 0.950 . S
C372 H354 0.951 . S
C372 C373 1.366 . S
C372 C374 1.388 . S
C373 C372 1.366 . S
C373 C377 1.385 . S
C374 H355 0.951 . S
C374 C372 1.388 . S
C374 C375 1.366 . S
C375 C374 1.366 . S
C375 C376 1.414 . S
C375 C378 1.499 . S
C376 H356 0.950 . S
C376 C375 1.414 . S
C376 C377 1.374 . S
C377 H357 0.950 . S
C377 C373 1.385 . S
C377 C376 1.374 . S
C378 C375 1.499 . S
C378 C379 1.373 . S
C378 C380 1.389 . S
C379 H358 0.950 . S
C379 C378 1.373 . S
C379 C395 1.377 . S
C380 C378 1.389 . S
C380 C381 1.524 . S
C380 C394 1.377 . S
C381 C380 1.524 . S
C381 C382 1.397 . S
C381 C386 1.363 . S
C382 H359 0.950 . S
C382 C381 1.397 . S
C382 C383 1.334 . S
C383 H360 0.950 . S
C383 C382 1.334 . S
C383 C384 1.287 . S
C384 C383 1.287 . S
C384 C385 1.524 . S
C384 H403 0.913 . S
C385 H361 0.950 . S
C385 C384 1.524 . S
C385 C386 1.415 . S
C386 H362 0.950 . S
C386 C381 1.363 . S
C386 C385 1.415 . S
C387 H363 0.951 . S
C387 C388 1.366 . S
C387 C389 1.388 . S
C388 C387 1.366 . S
C388 C392 1.385 . S
C389 H364 0.951 . S
C389 C387 1.388 . S
C389 C390 1.366 . S
C390 C389 1.366 . S
C390 C391 1.414 . S
C390 C393 1.499 . S
C391 H365 0.950 . S
C391 C390 1.414 . S
C391 C392 1.374 . S
C392 H366 0.950 . S
C392 C388 1.385 . S
C392 C391 1.374 . S
C393 C390 1.499 . S
C393 C394 1.373 . S
C393 C395 1.389 . S
C394 H367 0.950 . S
C394 C380 1.377 . S
C394 C393 1.373 . S
C395 C379 1.377 . S
C395 C393 1.389 . S
C395 C396 1.524 . S
C396 C395 1.524 . S
C396 C397 1.397 . S
C396 C401 1.363 . S
C397 H368 0.950 . S
C397 C396 1.397 . S
C397 C398 1.334 . S
C398 H369 0.950 . S
C398 C397 1.334 . S
C398 C399 1.287 . S
C399 C398 1.287 . S
C399 C400 1.524 . S
C399 H402 0.999 . S
C400 H370 0.950 . S
C400 C399 1.524 . S
C400 C401 1.415 . S
C401 H371 0.950 . S
C401 C396 1.363 . S
C401 C400 1.415 . S
H402 C399 0.999 . S
H403 C384 0.913 . S
H404 C422 0.951 . S
H405 C424 0.951 . S
H406 C426 0.950 . S
H407 C427 0.950 . S
H408 C429 0.950 . S
H409 C432 0.950 . S
H410 C433 0.950 . S
H411 C435 0.950 . S
H412 C436 0.950 . S
H413 C437 0.951 . S
H414 C439 0.951 . S
H415 C441 0.950 . S
H416 C442 0.950 . S
H417 C444 0.950 . S
H418 C447 0.950 . S
H419 C448 0.950 . S
H420 C450 0.950 . S
H421 C451 0.950 . S
C422 H404 0.951 . S
C422 C423 1.366 . S
C422 C424 1.388 . S
C423 C422 1.366 . S
C423 C427 1.385 . S
C424 H405 0.951 . S
C424 C422 1.388 . S
C424 C425 1.366 . S
C425 C424 1.366 . S
C425 C426 1.414 . S
C425 C428 1.499 . S
C426 H406 0.950 . S
C426 C425 1.414 . S
C426 C427 1.374 . S
C427 H407 0.950 . S
C427 C423 1.385 . S
C427 C426 1.374 . S
C428 C425 1.499 . S
C428 C429 1.373 . S
C428 C430 1.389 . S
C429 H408 0.950 . S
C429 C428 1.373 . S
C429 C445 1.377 . S
C430 C428 1.389 . S
C430 C431 1.524 . S
C430 C444 1.377 . S
C431 C430 1.524 . S
C431 C432 1.397 . S
C431 C436 1.363 . S
C432 H409 0.950 . S
C432 C431 1.397 . S
C432 C433 1.334 . S
C433 H410 0.950 . S
C433 C432 1.334 . S
C433 C434 1.287 . S
C434 C433 1.287 . S
C434 C435 1.524 . S
C434 H453 0.913 . S
C435 H411 0.950 . S
C435 C434 1.524 . S
C435 C436 1.415 . S
C436 H412 0.950 . S
C436 C431 1.363 . S
C436 C435 1.415 . S
C437 H413 0.951 . S
C437 C438 1.366 . S
C437 C439 1.388 . S
C438 C437 1.366 . S
C438 C442 1.385 . S
C439 H414 0.951 . S
C439 C437 1.388 . S
C439 C440 1.366 . S
C440 C439 1.366 . S
C440 C441 1.414 . S
C440 C443 1.499 . S
C441 H415 0.950 . S
C441 C440 1.414 . S
C441 C442 1.374 . S
C442 H416 0.950 . S
C442 C438 1.385 . S
C442 C441 1.374 . S
C443 C440 1.499 . S
C443 C444 1.373 . S
C443 C445 1.389 . S
C444 H417 0.950 . S
C444 C430 1.377 . S
C444 C443 1.373 . S
C445 C429 1.377 . S
C445 C443 1.389 . S
C445 C446 1.524 . S
C446 C445 1.524 . S
C446 C447 1.397 . S
C446 C451 1.363 . S
C447 H418 0.950 . S
C447 C446 1.397 . S
C447 C448 1.334 . S
C448 H419 0.950 . S
C448 C447 1.334 . S
C448 C449 1.287 . S
C449 C448 1.287 . S
C449 C450 1.524 . S
C449 H452 0.999 . S
C450 H420 0.950 . S
C450 C449 1.524 . S
C450 C451 1.415 . S
C451 H421 0.950 . S
C451 C446 1.363 . S
C451 C450 1.415 . S
H452 C449 0.999 . S
H453 C434 0.913 . S
H454 C472 0.951 . S
H455 C474 0.951 . S
H456 C476 0.950 . S
H457 C477 0.950 . S
H458 C479 0.950 . S
H459 C482 0.950 . S
H460 C483 0.950 . S
H461 C485 0.950 . S
H462 C486 0.950 . S
H463 C487 0.951 . S
H464 C489 0.951 . S
H465 C491 0.950 . S
H466 C492 0.950 . S
H467 C494 0.950 . S
H468 C497 0.950 . S
H469 C498 0.950 . S
H470 C500 0.950 . S
H471 C501 0.950 . S
C472 H454 0.951 . S
C472 C473 1.366 . S
C472 C474 1.388 . S
C473 C472 1.366 . S
C473 C477 1.385 . S
C474 H455 0.951 . S
C474 C472 1.388 . S
C474 C475 1.366 . S
C475 C474 1.366 . S
C475 C476 1.414 . S
C475 C478 1.499 . S
C476 H456 0.950 . S
C476 C475 1.414 . S
C476 C477 1.374 . S
C477 H457 0.950 . S
C477 C473 1.385 . S
C477 C476 1.374 . S
C478 C475 1.499 . S
C478 C479 1.373 . S
C478 C480 1.389 . S
C479 H458 0.950 . S
C479 C478 1.373 . S
C479 C495 1.377 . S
C480 C478 1.389 . S
C480 C481 1.524 . S
C480 C494 1.377 . S
C481 C480 1.524 . S
C481 C482 1.397 . S
C481 C486 1.363 . S
C482 H459 0.950 . S
C482 C481 1.397 . S
C482 C483 1.334 . S
C483 H460 0.950 . S
C483 C482 1.334 . S
C483 C484 1.287 . S
C484 C483 1.287 . S
C484 C485 1.524 . S
C484 H503 0.913 . S
C485 H461 0.950 . S
C485 C484 1.524 . S
C485 C486 1.415 . S
C486 H462 0.950 . S
C486 C481 1.363 . S
C486 C485 1.415 . S
C487 H463 0.951 . S
C487 C488 1.366 . S
C487 C489 1.388 . S
C488 C487 1.366 . S
C488 C492 1.385 . S
C489 H464 0.951 . S
C489 C487 1.388 . S
C489 C490 1.366 . S
C490 C489 1.366 . S
C490 C491 1.414 . S
C490 C493 1.499 . S
C491 H465 0.950 . S
C491 C490 1.414 . S
C491 C492 1.374 . S
C492 H466 0.950 . S
C492 C488 1.385 . S
C492 C491 1.374 . S
C493 C490 1.499 . S
C493 C494 1.373 . S
C493 C495 1.389 . S
C494 H467 0.950 . S
C494 C480 1.377 . S
C494 C493 1.373 . S
C495 C479 1.377 . S
C495 C493 1.389 . S
C495 C496 1.524 . S
C496 C495 1.524 . S
C496 C497 1.397 . S
C496 C501 1.363 . S
C497 H468 0.950 . S
C497 C496 1.397 . S
C497 C498 1.334 . S
C498 H469 0.950 . S
C498 C497 1.334 . S
C498 C499 1.287 . S
C499 C498 1.287 . S
C499 C500 1.524 . S
C499 H502 0.999 . S
C500 H470 0.950 . S
C500 C499 1.524 . S
C500 C501 1.415 . S
C501 H471 0.950 . S
C501 C496 1.363 . S
C501 C500 1.415 . S
H502 C499 0.999 . S
H503 C484 0.913 . S
H504 C522 0.951 . S
H505 C524 0.951 . S
H506 C526 0.951 . S
H507 C527 0.950 1_556 S
H508 C529 0.950 . S
H509 C532 0.950 . S
H510 C533 0.950 . S
H511 C535 0.950 . S
H512 C536 0.950 . S
H513 C537 0.951 . S
H514 C539 0.951 . S
H515 C541 0.951 . S
H516 C542 0.950 1_554 S
H517 C544 0.950 . S
H518 C547 0.950 . S
H519 C548 0.950 . S
H520 C550 0.950 . S
H521 C551 0.950 . S
C522 H504 0.951 . S
C522 C523 1.366 . S
C522 C524 1.388 . S
C523 C522 1.366 . S
C523 C527 1.385 . S
C524 H505 0.951 . S
C524 C522 1.388 . S
C524 C525 1.366 . S
C525 C524 1.366 . S
C525 C526 1.413 1_554 S
C525 C528 1.499 . S
C526 H506 0.951 . S
C526 C525 1.413 1_556 S
C526 C527 1.373 1_556 S
C527 H507 0.950 1_554 S
C527 C523 1.385 . S
C527 C526 1.373 1_554 S
C528 C525 1.499 . S
C528 C529 1.373 . S
C528 C530 1.389 . S
C529 H508 0.950 . S
C529 C528 1.373 . S
C529 C545 1.377 1_554 S
C530 C528 1.389 . S
C530 C531 1.524 . S
C530 C544 1.377 1_554 S
C531 C530 1.524 . S
C531 C532 1.397 1_554 S
C531 C536 1.363 . S
C532 H509 0.950 . S
C532 C531 1.397 1_556 S
C532 C533 1.334 . S
C533 H510 0.950 . S
C533 C532 1.334 . S
C533 C534 1.285 . S
C534 C533 1.285 . S
C534 C535 1.526 1_556 S
C534 H553 0.913 . S
C535 H511 0.950 . S
C535 C534 1.526 1_554 S
C535 C536 1.415 . S
C536 H512 0.950 . S
C536 C531 1.363 . S
C536 C535 1.415 . S
C537 H513 0.951 . S
C537 C538 1.366 . S
C537 C539 1.388 . S
C538 C537 1.366 . S
C538 C542 1.385 . S
C539 H514 0.951 . S
C539 C537 1.388 . S
C539 C540 1.366 . S
C540 C539 1.366 . S
C540 C541 1.413 1_556 S
C540 C543 1.499 . S
C541 H515 0.951 . S
C541 C540 1.413 1_554 S
C541 C542 1.373 1_554 S
C542 H516 0.950 1_556 S
C542 C538 1.385 . S
C542 C541 1.373 1_556 S
C543 C540 1.499 . S
C543 C544 1.373 . S
C543 C545 1.389 . S
C544 H517 0.950 . S
C544 C530 1.377 1_556 S
C544 C543 1.373 . S
C545 C529 1.377 1_556 S
C545 C543 1.389 . S
C545 C546 1.524 . S
C546 C545 1.524 . S
C546 C547 1.397 1_556 S
C546 C551 1.363 . S
C547 H518 0.950 . S
C547 C546 1.397 1_554 S
C547 C548 1.334 . S
C548 H519 0.950 . S
C548 C547 1.334 . S
C548 C549 1.285 . S
C549 C548 1.285 . S
C549 C550 1.526 1_554 S
C549 H552 0.999 1_554 S
C550 H520 0.950 . S
C550 C549 1.526 1_556 S
C550 C551 1.415 . S
C551 H521 0.950 . S
C551 C546 1.363 . S
C551 C550 1.415 . S
H552 C549 0.999 1_556 S
H553 C534 0.913 . S
H554 C572 0.951 . S
H555 C574 0.951 . S
H556 C576 0.950 . S
H557 C577 0.950 . S
H558 C579 0.950 . S
H559 C582 0.950 1_455 S
H560 C583 0.950 . S
H561 C585 0.950 . S
H562 C586 0.950 . S
H563 C587 0.951 . S
H564 C589 0.951 . S
H565 C591 0.950 . S
H566 C592 0.950 . S
H567 C594 0.950 . S
H568 C597 0.950 1_655 S
H569 C598 0.950 . S
H570 C600 0.950 . S
H571 C601 0.950 . S
C572 H554 0.951 . S
C572 C573 1.366 . S
C572 C574 1.388 . S
C573 C572 1.366 . S
C573 C577 1.385 . S
C574 H555 0.951 . S
C574 C572 1.388 . S
C574 C575 1.366 . S
C575 C574 1.366 . S
C575 C576 1.414 . S
C575 C578 1.499 . S
C576 H556 0.950 . S
C576 C575 1.414 . S
C576 C577 1.374 . S
C577 H557 0.950 . S
C577 C573 1.385 . S
C577 C576 1.374 . S
C578 C575 1.499 . S
C578 C579 1.373 1_554 S
C578 C580 1.389 1_455 S
C579 H558 0.950 . S
C579 C578 1.373 1_556 S
C579 C595 1.377 . S
C580 C578 1.389 1_655 S
C580 C581 1.524 . S
C580 C594 1.377 . S
C581 C580 1.524 . S
C581 C582 1.397 . S
C581 C586 1.363 . S
C582 H559 0.950 1_655 S
C582 C581 1.397 . S
C582 C583 1.334 . S
C583 H560 0.950 . S
C583 C582 1.334 . S
C583 C584 1.287 . S
C584 C583 1.287 . S
C584 C585 1.524 . S
C584 H603 0.913 . S
C585 H561 0.950 . S
C585 C584 1.524 . S
C585 C586 1.415 . S
C586 H562 0.950 . S
C586 C581 1.363 . S
C586 C585 1.415 . S
C587 H563 0.951 . S
C587 C588 1.366 . S
C587 C589 1.388 . S
C588 C587 1.366 . S
C588 C592 1.385 . S
C589 H564 0.951 . S
C589 C587 1.388 . S
C589 C590 1.366 . S
C590 C589 1.366 . S
C590 C591 1.414 . S
C590 C593 1.499 . S
C591 H565 0.950 . S
C591 C590 1.414 . S
C591 C592 1.374 . S
C592 H566 0.950 . S
C592 C588 1.385 . S
C592 C591 1.374 . S
C593 C590 1.499 . S
C593 C594 1.373 1_556 S
C593 C595 1.389 1_655 S
C594 H567 0.950 . S
C594 C580 1.377 . S
C594 C593 1.373 1_554 S
C595 C579 1.377 . S
C595 C593 1.389 1_455 S
C595 C596 1.524 . S
C596 C595 1.524 . S
C596 C597 1.397 . S
C596 C601 1.363 . S
C597 H568 0.950 1_455 S
C597 C596 1.397 . S
C597 C598 1.334 . S
C598 H569 0.950 . S
C598 C597 1.334 . S
C598 C599 1.287 . S
C599 C598 1.287 . S
C599 C600 1.524 . S
C599 H602 0.999 . S
C600 H570 0.950 . S
C600 C599 1.524 . S
C600 C601 1.415 . S
C601 H571 0.950 . S
C601 C596 1.363 . S
C601 C600 1.415 . S
H602 C599 0.999 . S
H603 C584 0.913 . S
H604 C622 0.951 . S
H605 C624 0.951 . S
H606 C626 0.950 . S
H607 C627 0.950 . S
H608 C629 0.950 . S
H609 C632 0.950 1_565 S
H610 C633 0.950 1_565 S
H611 C635 0.950 . S
H612 C636 0.950 . S
H613 C637 0.951 . S
H614 C639 0.951 . S
H615 C641 0.950 . S
H616 C642 0.950 . S
H617 C644 0.950 . S
H618 C647 0.950 1_545 S
H619 C648 0.950 1_545 S
H620 C650 0.950 . S
H621 C651 0.950 . S
C622 H604 0.951 . S
C622 C623 1.366 . S
C622 C624 1.388 . S
C623 C622 1.366 . S
C623 C627 1.385 . S
C624 H605 0.951 . S
C624 C622 1.388 . S
C624 C625 1.366 . S
C625 C624 1.366 . S
C625 C626 1.414 . S
C625 C628 1.499 . S
C626 H606 0.950 . S
C626 C625 1.414 . S
C626 C627 1.374 . S
C627 H607 0.950 . S
C627 C623 1.385 . S
C627 C626 1.374 . S
C628 C625 1.499 . S
C628 C629 1.373 . S
C628 C630 1.389 1_565 S
C629 H608 0.950 . S
C629 C628 1.373 . S
C629 C645 1.377 . S
C630 C628 1.389 1_545 S
C630 C631 1.524 . S
C630 C644 1.377 . S
C631 C630 1.524 . S
C631 C632 1.397 . S
C631 C636 1.363 . S
C632 H609 0.950 1_545 S
C632 C631 1.397 . S
C632 C633 1.334 . S
C633 H610 0.950 1_545 S
C633 C632 1.334 . S
C633 C634 1.287 . S
C634 C633 1.287 . S
C634 C635 1.524 . S
C634 H653 0.913 . S
C635 H611 0.950 . S
C635 C634 1.524 . S
C635 C636 1.415 . S
C636 H612 0.950 . S
C636 C631 1.363 . S
C636 C635 1.415 . S
C637 H613 0.951 . S
C637 C638 1.366 . S
C637 C639 1.388 . S
C638 C637 1.366 . S
C638 C642 1.385 . S
C639 H614 0.951 . S
C639 C637 1.388 . S
C639 C640 1.366 . S
C640 C639 1.366 . S
C640 C641 1.414 . S
C640 C643 1.499 . S
C641 H615 0.950 . S
C641 C640 1.414 . S
C641 C642 1.374 . S
C642 H616 0.950 . S
C642 C638 1.385 . S
C642 C641 1.374 . S
C643 C640 1.499 . S
C643 C644 1.373 . S
C643 C645 1.389 1_545 S
C644 H617 0.950 . S
C644 C630 1.377 . S
C644 C643 1.373 . S
C645 C629 1.377 . S
C645 C643 1.389 1_565 S
C645 C646 1.524 . S
C646 C645 1.524 . S
C646 C647 1.397 . S
C646 C651 1.363 . S
C647 H618 0.950 1_565 S
C647 C646 1.397 . S
C647 C648 1.334 . S
C648 H619 0.950 1_565 S
C648 C647 1.334 . S
C648 C649 1.287 . S
C649 C648 1.287 . S
C649 C650 1.524 . S
C649 H652 0.999 . S
C650 H620 0.950 . S
C650 C649 1.524 . S
C650 C651 1.415 . S
C651 H621 0.950 . S
C651 C646 1.363 . S
C651 C650 1.415 . S
H652 C649 0.999 . S
H653 C634 0.913 . S
H654 C672 0.951 . S
H655 C674 0.951 . S
H656 C676 0.950 . S
H657 C677 0.950 . S
H658 C679 0.950 . S
H659 C682 0.950 . S
H660 C683 0.950 . S
H661 C685 0.950 . S
H662 C686 0.950 . S
H663 C687 0.951 . S
H664 C689 0.951 . S
H665 C691 0.950 . S
H666 C692 0.950 . S
H667 C694 0.950 . S
H668 C697 0.950 . S
H669 C698 0.950 . S
H670 C700 0.950 . S
H671 C701 0.950 . S
C672 H654 0.951 . S
C672 C673 1.366 . S
C672 C674 1.388 . S
C673 C672 1.366 . S
C673 C677 1.385 . S
C674 H655 0.951 . S
C674 C672 1.388 . S
C674 C675 1.366 . S
C675 C674 1.366 . S
C675 C676 1.414 . S
C675 C678 1.499 . S
C676 H656 0.950 . S
C676 C675 1.414 . S
C676 C677 1.374 . S
C677 H657 0.950 . S
C677 C673 1.385 . S
C677 C676 1.374 . S
C678 C675 1.499 . S
C678 C679 1.373 1_545 S
C678 C680 1.389 1_655 S
C679 H658 0.950 . S
C679 C678 1.373 1_565 S
C679 C695 1.377 . S
C680 C678 1.389 1_455 S
C680 C681 1.524 . S
C680 C694 1.377 . S
C681 C680 1.524 . S
C681 C682 1.397 1_455 S
C681 C686 1.363 . S
C682 H659 0.950 . S
C682 C681 1.397 1_655 S
C682 C683 1.334 . S
C683 H660 0.950 . S
C683 C682 1.334 . S
C683 C684 1.287 1_655 S
C684 C683 1.287 1_455 S
C684 C685 1.524 . S
C684 H703 0.913 . S
C685 H661 0.950 . S
C685 C684 1.524 . S
C685 C686 1.415 . S
C686 H662 0.950 . S
C686 C681 1.363 . S
C686 C685 1.415 . S
C687 H663 0.951 . S
C687 C688 1.366 . S
C687 C689 1.388 . S
C688 C687 1.366 . S
C688 C692 1.385 . S
C689 H664 0.951 . S
C689 C687 1.388 . S
C689 C690 1.366 . S
C690 C689 1.366 . S
C690 C691 1.414 . S
C690 C693 1.499 . S
C691 H665 0.950 . S
C691 C690 1.414 . S
C691 C692 1.374 . S
C692 H666 0.950 . S
C692 C688 1.385 . S
C692 C691 1.374 . S
C693 C690 1.499 . S
C693 C694 1.373 1_565 S
C693 C695 1.389 1_455 S
C694 H667 0.950 . S
C694 C680 1.377 . S
C694 C693 1.373 1_545 S
C695 C679 1.377 . S
C695 C693 1.389 1_655 S
C695 C696 1.524 . S
C696 C695 1.524 . S
C696 C697 1.397 1_655 S
C696 C701 1.363 . S
C697 H668 0.950 . S
C697 C696 1.397 1_455 S
C697 C698 1.334 . S
C698 H669 0.950 . S
C698 C697 1.334 . S
C698 C699 1.287 1_455 S
C699 C698 1.287 1_655 S
C699 C700 1.524 . S
C699 H702 0.999 . S
C700 H670 0.950 . S
C700 C699 1.524 . S
C700 C701 1.415 . S
C701 H671 0.950 . S
C701 C696 1.363 . S
C701 C700 1.415 . S
H702 C699 0.999 . S
H703 C684 0.913 . S
H704 C722 0.951 . S
H705 C724 0.951 . S
H706 C726 0.950 . S
H707 C727 0.950 . S
H708 C729 0.950 . S
H709 C732 0.950 . S
H710 C733 0.950 . S
H711 C735 0.950 . S
H712 C736 0.950 . S
H713 C737 0.951 . S
H714 C739 0.951 . S
H715 C741 0.950 . S
H716 C742 0.950 . S
H717 C744 0.950 . S
H718 C747 0.950 . S
H719 C748 0.950 . S
H720 C750 0.950 . S
H721 C751 0.950 . S
C722 H704 0.951 . S
C722 C723 1.366 . S
C722 C724 1.388 . S
C723 C722 1.366 . S
C723 C727 1.385 . S
C724 H705 0.951 . S
C724 C722 1.388 . S
C724 C725 1.366 . S
C725 C724 1.366 . S
C725 C726 1.414 . S
C725 C728 1.499 . S
C726 H706 0.950 . S
C726 C725 1.414 . S
C726 C727 1.374 . S
C727 H707 0.950 . S
C727 C723 1.385 . S
C727 C726 1.374 . S
C728 C725 1.499 . S
C728 C729 1.373 . S
C728 C730 1.389 . S
C729 H708 0.950 . S
C729 C728 1.373 . S
C729 C745 1.377 . S
C730 C728 1.389 . S
C730 C731 1.524 . S
C730 C744 1.377 . S
C731 C730 1.524 . S
C731 C732 1.397 . S
C731 C736 1.363 . S
C732 H709 0.950 . S
C732 C731 1.397 . S
C732 C733 1.334 . S
C733 H710 0.950 . S
C733 C732 1.334 . S
C733 C734 1.287 . S
C734 C733 1.287 . S
C734 C735 1.524 . S
C734 H753 0.913 . S
C735 H711 0.950 . S
C735 C734 1.524 . S
C735 C736 1.415 . S
C736 H712 0.950 . S
C736 C731 1.363 . S
C736 C735 1.415 . S
C737 H713 0.951 . S
C737 C738 1.366 . S
C737 C739 1.388 . S
C738 C737 1.366 . S
C738 C742 1.385 . S
C739 H714 0.951 . S
C739 C737 1.388 . S
C739 C740 1.366 . S
C740 C739 1.366 . S
C740 C741 1.414 . S
C740 C743 1.499 . S
C741 H715 0.950 . S
C741 C740 1.414 . S
C741 C742 1.374 . S
C742 H716 0.950 . S
C742 C738 1.385 . S
C742 C741 1.374 . S
C743 C740 1.499 . S
C743 C744 1.373 . S
C743 C745 1.389 . S
C744 H717 0.950 . S
C744 C730 1.377 . S
C744 C743 1.373 . S
C745 C729 1.377 . S
C745 C743 1.389 . S
C745 C746 1.524 1_554 S
C746 C745 1.524 1_556 S
C746 C747 1.397 . S
C746 C751 1.363 . S
C747 H718 0.950 . S
C747 C746 1.397 . S
C747 C748 1.334 . S
C748 H719 0.950 . S
C748 C747 1.334 . S
C748 C749 1.287 . S
C749 C748 1.287 . S
C749 C750 1.524 . S
C749 H752 0.999 . S
C750 H720 0.950 . S
C750 C749 1.524 . S
C750 C751 1.415 . S
C751 H721 0.950 . S
C751 C746 1.363 . S
C751 C750 1.415 . S
H752 C749 0.999 . S
H753 C734 0.913 . S
H754 C772 0.951 . S
H755 C774 0.951 . S
H756 C776 0.950 . S
H757 C777 0.950 . S
H758 C779 0.950 . S
H759 C782 0.950 . S
H760 C783 0.950 . S
H761 C785 0.950 . S
H762 C786 0.950 . S
H763 C787 0.951 . S
H764 C789 0.951 . S
H765 C791 0.950 . S
H766 C792 0.950 . S
H767 C794 0.950 . S
H768 C797 0.950 . S
H769 C798 0.950 . S
H770 C800 0.950 . S
H771 C801 0.950 . S
C772 H754 0.951 . S
C772 C773 1.366 . S
C772 C774 1.388 . S
C773 C772 1.366 . S
C773 C777 1.385 . S
C774 H755 0.951 . S
C774 C772 1.388 . S
C774 C775 1.366 . S
C775 C774 1.366 . S
C775 C776 1.414 . S
C775 C778 1.499 . S
C776 H756 0.950 . S
C776 C775 1.414 . S
C776 C777 1.374 . S
C777 H757 0.950 . S
C777 C773 1.385 . S
C777 C776 1.374 . S
C778 C775 1.499 . S
C778 C779 1.373 . S
C778 C780 1.389 . S
C779 H758 0.950 . S
C779 C778 1.373 . S
C779 C795 1.377 1_545 S
C780 C778 1.389 . S
C780 C781 1.524 . S
C780 C794 1.377 1_545 S
C781 C780 1.524 . S
C781 C782 1.397 . S
C781 C786 1.363 1_545 S
C782 H759 0.950 . S
C782 C781 1.397 . S
C782 C783 1.334 . S
C783 H760 0.950 . S
C783 C782 1.334 . S
C783 C784 1.287 . S
C784 C783 1.287 . S
C784 C785 1.524 1_545 S
C784 H803 0.913 . S
C785 H761 0.950 . S
C785 C784 1.524 1_565 S
C785 C786 1.415 . S
C786 H762 0.950 . S
C786 C781 1.363 1_565 S
C786 C785 1.415 . S
C787 H763 0.951 . S
C787 C788 1.366 . S
C787 C789 1.388 . S
C788 C787 1.366 . S
C788 C792 1.385 . S
C789 H764 0.951 . S
C789 C787 1.388 . S
C789 C790 1.366 . S
C790 C789 1.366 . S
C790 C791 1.414 . S
C790 C793 1.499 . S
C791 H765 0.950 . S
C791 C790 1.414 . S
C791 C792 1.374 . S
C792 H766 0.950 . S
C792 C788 1.385 . S
C792 C791 1.374 . S
C793 C790 1.499 . S
C793 C794 1.373 . S
C793 C795 1.389 . S
C794 H767 0.950 . S
C794 C780 1.377 1_565 S
C794 C793 1.373 . S
C795 C779 1.377 1_565 S
C795 C793 1.389 . S
C795 C796 1.524 . S
C796 C795 1.524 . S
C796 C797 1.397 . S
C796 C801 1.363 1_565 S
C797 H768 0.950 . S
C797 C796 1.397 . S
C797 C798 1.334 . S
C798 H769 0.950 . S
C798 C797 1.334 . S
C798 C799 1.287 . S
C799 C798 1.287 . S
C799 C800 1.524 1_565 S
C799 H802 0.999 . S
C800 H770 0.950 . S
C800 C799 1.524 1_545 S
C800 C801 1.415 . S
C801 H771 0.950 . S
C801 C796 1.363 1_545 S
C801 C800 1.415 . S
H802 C799 0.999 . S
H803 C784 0.913 . S
H804 C822 0.951 . S
H805 C824 0.951 . S
H806 C826 0.950 . S
H807 C827 0.950 . S
H808 C829 0.950 . S
H809 C832 0.950 . S
H810 C833 0.950 . S
H811 C835 0.950 . S
H812 C836 0.950 . S
H813 C837 0.951 . S
H814 C839 0.951 . S
H815 C841 0.950 . S
H816 C842 0.950 . S
H817 C844 0.950 . S
H818 C847 0.950 . S
H819 C848 0.950 . S
H820 C850 0.950 . S
H821 C851 0.950 1_556 S
C822 H804 0.951 . S
C822 C823 1.366 . S
C822 C824 1.388 . S
C823 C822 1.366 . S
C823 C827 1.385 . S
C824 H805 0.951 . S
C824 C822 1.388 . S
C824 C825 1.366 . S
C825 C824 1.366 . S
C825 C826 1.414 . S
C825 C828 1.499 . S
C826 H806 0.950 . S
C826 C825 1.414 . S
C826 C827 1.374 . S
C827 H807 0.950 . S
C827 C823 1.385 . S
C827 C826 1.374 . S
C828 C825 1.499 . S
C828 C829 1.373 . S
C828 C830 1.389 . S
C829 H808 0.950 . S
C829 C828 1.373 . S
C829 C845 1.377 . S
C830 C828 1.389 . S
C830 C831 1.524 . S
C830 C844 1.377 . S
C831 C830 1.524 . S
C831 C832 1.397 . S
C831 C836 1.363 . S
C832 H809 0.950 . S
C832 C831 1.397 . S
C832 C833 1.334 . S
C833 H810 0.950 . S
C833 C832 1.334 . S
C833 C834 1.287 . S
C834 C833 1.287 . S
C834 C835 1.524 . S
C834 H853 0.913 . S
C835 H811 0.950 . S
C835 C834 1.524 . S
C835 C836 1.415 . S
C836 H812 0.950 . S
C836 C831 1.363 . S
C836 C835 1.415 . S
C837 H813 0.951 . S
C837 C838 1.366 . S
C837 C839 1.388 . S
C838 C837 1.366 . S
C838 C842 1.385 . S
C839 H814 0.951 . S
C839 C837 1.388 . S
C839 C840 1.366 . S
C840 C839 1.366 . S
C840 C841 1.414 . S
C840 C843 1.499 . S
C841 H815 0.950 . S
C841 C840 1.414 . S
C841 C842 1.374 . S
C842 H816 0.950 . S
C842 C838 1.385 . S
C842 C841 1.374 . S
C843 C840 1.499 . S
C843 C844 1.373 . S
C843 C845 1.389 . S
C844 H817 0.950 . S
C844 C830 1.377 . S
C844 C843 1.373 . S
C845 C829 1.377 . S
C845 C843 1.389 . S
C845 C846 1.524 1_556 S
C846 C845 1.524 1_554 S
C846 C847 1.397 . S
C846 C851 1.363 . S
C847 H818 0.950 . S
C847 C846 1.397 . S
C847 C848 1.334 . S
C848 H819 0.950 . S
C848 C847 1.334 . S
C848 C849 1.287 . S
C849 C848 1.287 . S
C849 C850 1.524 . S
C849 H852 0.999 . S
C850 H820 0.950 . S
C850 C849 1.524 . S
C850 C851 1.415 . S
C851 H821 0.950 1_554 S
C851 C846 1.363 . S
C851 C850 1.415 . S
H852 C849 0.999 . S
H853 C834 0.913 . S
H854 C872 0.951 . S
H855 C874 0.951 . S
H856 C876 0.950 . S
H857 C877 0.950 . S
H858 C879 0.950 . S
H859 C882 0.950 . S
H860 C883 0.950 1_565 S
H861 C885 0.950 . S
H862 C886 0.950 . S
H863 C887 0.951 . S
H864 C889 0.951 . S
H865 C891 0.950 . S
H866 C892 0.950 . S
H867 C894 0.950 . S
H868 C897 0.950 . S
H869 C898 0.950 1_545 S
H870 C900 0.950 . S
H871 C901 0.950 . S
C872 H854 0.951 . S
C872 C873 1.366 . S
C872 C874 1.388 . S
C873 C872 1.366 . S
C873 C877 1.385 . S
C874 H855 0.951 . S
C874 C872 1.388 . S
C874 C875 1.366 . S
C875 C874 1.366 . S
C875 C876 1.414 . S
C875 C878 1.499 . S
C876 H856 0.950 . S
C876 C875 1.414 . S
C876 C877 1.374 . S
C877 H857 0.950 . S
C877 C873 1.385 . S
C877 C876 1.374 . S
C878 C875 1.499 . S
C878 C879 1.373 . S
C878 C880 1.389 1_565 S
C879 H858 0.950 . S
C879 C878 1.373 . S
C879 C895 1.377 . S
C880 C878 1.389 1_545 S
C880 C881 1.524 . S
C880 C894 1.377 . S
C881 C880 1.524 . S
C881 C882 1.397 1_545 S
C881 C886 1.363 . S
C882 H859 0.950 . S
C882 C881 1.397 1_565 S
C882 C883 1.334 1_565 S
C883 H860 0.950 1_545 S
C883 C882 1.334 1_545 S
C883 C884 1.287 . S
C884 C883 1.287 . S
C884 C885 1.524 . S
C884 H903 0.913 . S
C885 H861 0.950 . S
C885 C884 1.524 . S
C885 C886 1.415 . S
C886 H862 0.950 . S
C886 C881 1.363 . S
C886 C885 1.415 . S
C887 H863 0.951 . S
C887 C888 1.366 . S
C887 C889 1.388 . S
C888 C887 1.366 . S
C888 C892 1.385 . S
C889 H864 0.951 . S
C889 C887 1.388 . S
C889 C890 1.366 . S
C890 C889 1.366 . S
C890 C891 1.414 . S
C890 C893 1.499 . S
C891 H865 0.950 . S
C891 C890 1.414 . S
C891 C892 1.374 . S
C892 H866 0.950 . S
C892 C888 1.385 . S
C892 C891 1.374 . S
C893 C890 1.499 . S
C893 C894 1.373 . S
C893 C895 1.389 1_545 S
C894 H867 0.950 . S
C894 C880 1.377 . S
C894 C893 1.373 . S
C895 C879 1.377 . S
C895 C893 1.389 1_565 S
C895 C896 1.524 . S
C896 C895 1.524 . S
C896 C897 1.397 1_565 S
C896 C901 1.363 . S
C897 H868 0.950 . S
C897 C896 1.397 1_545 S
C897 C898 1.334 1_545 S
C898 H869 0.950 1_565 S
C898 C897 1.334 1_565 S
C898 C899 1.287 . S
C899 C898 1.287 . S
C899 C900 1.524 . S
C899 H902 0.999 . S
C900 H870 0.950 . S
C900 C899 1.524 . S
C900 C901 1.415 . S
C901 H871 0.950 . S
C901 C896 1.363 . S
C901 C900 1.415 . S
H902 C899 0.999 . S
H903 C884 0.913 . S
C123 C4 1.845 . S
C138 C23 1.845 . S
C173 C49 1.845 . S
C188 C36 1.845 . S
C223 C56 1.845 . S
C238 C75 1.845 . S
C273 C88 1.845 . S
C288 C95 1.845 . S
C323 C10 1.720 . S
C338 C30 1.721 . S
C373 C43 1.720 . S
C388 C17 1.721 . S
C423 C62 1.721 . S
C438 C82 1.721 . S
C473 C101 1.720 . S
C488 C69 1.721 . S
C523 C5 1.293 . S
C538 C57 1.293 . S
C573 C16 1.293 . S
C588 C68 1.293 . S
C623 C81 1.294 . S
C638 C29 1.294 . S
C673 C96 1.293 . S
C688 C42 1.293 . S
C723 C18 0.698 . S
C738 C3 0.696 . S
C773 C31 0.698 . S
C788 C44 0.696 . S
C823 C55 0.698 . S
C838 C70 0.696 . S
C873 C83 0.697 . S
C888 C94 0.697 . S
