# Generated by pormake.
# Topology ume, (4)-cn, num edge types: 1
# Building blocks:
#     Node 0, Type 0, BuildingBlock: CEKHIL_clean_sbu_0, # of connection points: 4
#     Node 1, Type 0, BuildingBlock: CEKHIL_clean_sbu_0, # of connection points: 4
#     Node 2, Type 0, BuildingBlock: CEKHIL_clean_sbu_0, # of connection points: 4
#     Node 3, Type 0, BuildingBlock: CEKHIL_clean_sbu_0, # of connection points: 4
#     Node 4, Type 0, BuildingBlock: CEKHIL_clean_sbu_0, # of connection points: 4
#     Node 5, Type 0, BuildingBlock: CEKHIL_clean_sbu_0, # of connection points: 4
#     Node 6, Type 0, BuildingBlock: CEKHIL_clean_sbu_0, # of connection points: 4
#     Node 7, Type 0, BuildingBlock: CEKHIL_clean_sbu_0, # of connection points: 4
#     Node 8, Type 0, BuildingBlock: CEKHIL_clean_sbu_0, # of connection points: 4
#     Node 9, Type 0, BuildingBlock: CEKHIL_clean_sbu_0, # of connection points: 4
#     Node 10, Type 0, BuildingBlock: CEKHIL_clean_sbu_0, # of connection points: 4
#     Node 11, Type 0, BuildingBlock: CEKHIL_clean_sbu_0, # of connection points: 4
#     Node 12, Type 0, BuildingBlock: CEKHIL_clean_sbu_0, # of connection points: 4
#     Node 13, Type 0, BuildingBlock: CEKHIL_clean_sbu_0, # of connection points: 4
#     Node 14, Type 0, BuildingBlock: CEKHIL_clean_sbu_0, # of connection points: 4
#     Node 15, Type 0, BuildingBlock: CEKHIL_clean_sbu_0, # of connection points: 4
#     Edge 16, Type (0, 0), BuildingBlock: UVAHIK_clean_linker_0, # of connection points: 2
#     Edge 17, Type (0, 0), BuildingBlock: UVAHIK_clean_linker_0, # of connection points: 2
#     Edge 18, Type (0, 0), BuildingBlock: UVAHIK_clean_linker_0, # of connection points: 2
#     Edge 19, Type (0, 0), BuildingBlock: UVAHIK_clean_linker_0, # of connection points: 2
#     Edge 20, Type (0, 0), BuildingBlock: UVAHIK_clean_linker_0, # of connection points: 2
#     Edge 21, Type (0, 0), BuildingBlock: UVAHIK_clean_linker_0, # of connection points: 2
#     Edge 22, Type (0, 0), BuildingBlock: UVAHIK_clean_linker_0, # of connection points: 2
#     Edge 23, Type (0, 0), BuildingBlock: UVAHIK_clean_linker_0, # of connection points: 2
#     Edge 24, Type (0, 0), BuildingBlock: UVAHIK_clean_linker_0, # of connection points: 2
#     Edge 25, Type (0, 0), BuildingBlock: UVAHIK_clean_linker_0, # of connection points: 2
#     Edge 26, Type (0, 0), BuildingBlock: UVAHIK_clean_linker_0, # of connection points: 2
#     Edge 27, Type (0, 0), BuildingBlock: UVAHIK_clean_linker_0, # of connection points: 2
#     Edge 28, Type (0, 0), BuildingBlock: UVAHIK_clean_linker_0, # of connection points: 2
#     Edge 29, Type (0, 0), BuildingBlock: UVAHIK_clean_linker_0, # of connection points: 2
#     Edge 30, Type (0, 0), BuildingBlock: UVAHIK_clean_linker_0, # of connection points: 2
#     Edge 31, Type (0, 0), BuildingBlock: UVAHIK_clean_linker_0, # of connection points: 2
#     Edge 32, Type (0, 0), BuildingBlock: UVAHIK_clean_linker_0, # of connection points: 2
#     Edge 33, Type (0, 0), BuildingBlock: UVAHIK_clean_linker_0, # of connection points: 2
#     Edge 34, Type (0, 0), BuildingBlock: UVAHIK_clean_linker_0, # of connection points: 2
#     Edge 35, Type (0, 0), BuildingBlock: UVAHIK_clean_linker_0, # of connection points: 2
#     Edge 36, Type (0, 0), BuildingBlock: UVAHIK_clean_linker_0, # of connection points: 2
#     Edge 37, Type (0, 0), BuildingBlock: UVAHIK_clean_linker_0, # of connection points: 2
#     Edge 38, Type (0, 0), BuildingBlock: UVAHIK_clean_linker_0, # of connection points: 2
#     Edge 39, Type (0, 0), BuildingBlock: UVAHIK_clean_linker_0, # of connection points: 2
#     Edge 40, Type (0, 0), BuildingBlock: UVAHIK_clean_linker_0, # of connection points: 2
#     Edge 41, Type (0, 0), BuildingBlock: UVAHIK_clean_linker_0, # of connection points: 2
#     Edge 42, Type (0, 0), BuildingBlock: UVAHIK_clean_linker_0, # of connection points: 2
#     Edge 43, Type (0, 0), BuildingBlock: UVAHIK_clean_linker_0, # of connection points: 2
#     Edge 44, Type (0, 0), BuildingBlock: UVAHIK_clean_linker_0, # of connection points: 2
#     Edge 45, Type (0, 0), BuildingBlock: UVAHIK_clean_linker_0, # of connection points: 2
#     Edge 46, Type (0, 0), BuildingBlock: UVAHIK_clean_linker_0, # of connection points: 2
#     Edge 47, Type (0, 0), BuildingBlock: UVAHIK_clean_linker_0, # of connection points: 2
# Relax obj value: 0.097
# Max RMSD: 0.136
# Mean RMSD: 0.136
data_MOF--net-ume--node1-CEKHIL_clean_sbu_0--edge1-UVAHIK_clean_linker_0
_symmetry_space_group_name_H-M    P1
_symmetry_Int_Tables_number       1
_symmetry_cell_setting            triclinic
loop_
_symmetry_equiv_pos_as_xyz
'x, y, z'
_cell_length_a     35.330121
_cell_length_b     35.328826
_cell_length_c     143.84532
_cell_angle_alpha  89.974245
_cell_angle_beta   90.042657
_cell_angle_gamma 89.96571
loop_
_atom_site_label
_atom_site_type_symbol
_atom_site_fract_x
_atom_site_fract_y
_atom_site_fract_z
_atom_type_partial_charge
Co0 Co 0.24037 0.11065 0.29858 0.0
O1 O 0.18698 0.11846 0.30007 0.0
O2 O 0.2165 0.06471 0.30319 0.0
C3 C 0.24435 0.13695 0.28445 0.0
O4 O 0.29551 0.09273 0.29758 0.0
Co5 Co 0.29226 0.18203 0.29695 0.0
O6 O 0.3325 0.14374 0.29502 0.0
C7 C 0.25937 0.16128 0.31496 0.0
C8 C 0.18486 0.08365 0.30285 0.0
C9 C 0.3281 0.10813 0.29604 0.0
O10 O 0.24927 0.12909 0.3116 0.0
O11 O 0.27321 0.18801 0.31001 0.0
O12 O 0.23329 0.10206 0.28528 0.0
O13 O 0.24888 0.15544 0.29208 0.0
Co14 Co 0.88756 0.74142 0.54921 0.0
O15 O 0.88068 0.68794 0.55093 0.0
O16 O 0.93356 0.71887 0.55411 0.0
C17 C 0.86254 0.7439 0.5349 0.0
O18 O 0.90493 0.79659 0.54797 0.0
Co19 Co 0.81685 0.79307 0.547 0.0
O20 O 0.8549 0.83184 0.54358 0.0
C21 C 0.83663 0.76316 0.56544 0.0
C22 C 0.91542 0.6868 0.55381 0.0
C23 C 0.89017 0.82819 0.54525 0.0
O24 O 0.86811 0.75092 0.56211 0.0
O25 O 0.81073 0.77814 0.5604 0.0
O26 O 0.89751 0.73358 0.53606 0.0
O27 O 0.84305 0.74875 0.5424 0.0
Co28 Co 0.26009 0.39025 0.79925 0.0
O29 O 0.31383 0.38341 0.80007 0.0
O30 O 0.2837 0.43554 0.8043 0.0
C31 C 0.25402 0.36767 0.78475 0.0
O32 O 0.20463 0.4072 0.79904 0.0
Co33 Co 0.20902 0.31916 0.79703 0.0
O34 O 0.16881 0.35739 0.79481 0.0
C35 C 0.24333 0.33594 0.81516 0.0
C36 C 0.31565 0.4175 0.80335 0.0
C37 C 0.17253 0.39244 0.79673 0.0
O38 O 0.25395 0.36842 0.81207 0.0
O39 O 0.22807 0.31059 0.81003 0.0
O40 O 0.26407 0.40261 0.78609 0.0
O41 O 0.25167 0.34693 0.79212 0.0
Co42 Co 0.61284 0.76087 0.04892 0.0
O43 O 0.62099 0.81433 0.05009 0.0
O44 O 0.56693 0.78546 0.05325 0.0
C45 C 0.63958 0.75498 0.03486 0.0
O46 O 0.59429 0.70596 0.04817 0.0
Co47 Co 0.68271 0.70734 0.04782 0.0
O48 O 0.64403 0.66898 0.04451 0.0
C49 C 0.66186 0.74185 0.06567 0.0
C50 C 0.5861 0.81691 0.05279 0.0
C51 C 0.60866 0.67366 0.04587 0.0
O52 O 0.63063 0.75338 0.06204 0.0
O53 O 0.68804 0.7257 0.06097 0.0
O54 O 0.60472 0.76635 0.03559 0.0
O55 O 0.65787 0.75124 0.04258 0.0
Co56 Co 0.23951 0.38942 0.92964 0.0
O57 O 0.18558 0.38478 0.92859 0.0
O58 O 0.21829 0.4354 0.92438 0.0
C59 C 0.24381 0.36721 0.9442 0.0
O60 O 0.29548 0.4043 0.93005 0.0
Co61 Co 0.28812 0.31695 0.93212 0.0
O62 O 0.32942 0.35362 0.93458 0.0
C63 C 0.25579 0.33446 0.9138 0.0
C64 C 0.18557 0.41875 0.92518 0.0
C65 C 0.32691 0.38869 0.93256 0.0
O66 O 0.24547 0.36698 0.91691 0.0
O67 O 0.27071 0.30891 0.91896 0.0
O68 O 0.23514 0.40244 0.94272 0.0
O69 O 0.24588 0.34599 0.9369 0.0
Co70 Co 0.61391 0.74008 0.18138 0.0
O71 O 0.62112 0.68666 0.17977 0.0
O72 O 0.56734 0.71676 0.17701 0.0
C73 C 0.64157 0.74366 0.19541 0.0
O74 O 0.59644 0.79521 0.1826 0.0
Co75 Co 0.68506 0.79201 0.1828 0.0
O76 O 0.64712 0.83101 0.18621 0.0
C77 C 0.66275 0.76026 0.16475 0.0
C78 C 0.58602 0.68495 0.17718 0.0
C79 C 0.61159 0.82711 0.18494 0.0
O80 O 0.63116 0.74925 0.16827 0.0
O81 O 0.68968 0.77448 0.16957 0.0
O82 O 0.6065 0.73298 0.19471 0.0
O83 O 0.65937 0.74805 0.18766 0.0
Co84 Co 0.26169 0.11315 0.43044 0.0
O85 O 0.31543 0.11971 0.42921 0.0
O86 O 0.28476 0.06668 0.42601 0.0
C87 C 0.25691 0.13973 0.4445 0.0
O88 O 0.20627 0.09608 0.43117 0.0
Co89 Co 0.21019 0.18468 0.43164 0.0
O90 O 0.16942 0.14714 0.4337 0.0
C91 C 0.24476 0.16351 0.41384 0.0
C92 C 0.31681 0.0848 0.42646 0.0
C93 C 0.1737 0.11154 0.43268 0.0
O94 O 0.25453 0.1315 0.41736 0.0
O95 O 0.22991 0.19022 0.41862 0.0
O96 O 0.26739 0.10463 0.44375 0.0
O97 O 0.2533 0.1583 0.43683 0.0
Co98 Co 0.89268 0.76136 0.68051 0.0
O99 O 0.88655 0.81518 0.68008 0.0
O100 O 0.93824 0.78485 0.6756 0.0
C101 C 0.8701 0.75366 0.69496 0.0
O102 O 0.90878 0.70572 0.68033 0.0
Co103 Co 0.82052 0.71161 0.68217 0.0
O104 O 0.85768 0.66982 0.68351 0.0
C105 C 0.83833 0.74793 0.66439 0.0
C106 C 0.92051 0.81688 0.67672 0.0
C107 C 0.89303 0.67341 0.68194 0.0
O108 O 0.87094 0.75717 0.66764 0.0
O109 O 0.81239 0.73272 0.66934 0.0
O110 O 0.90514 0.76349 0.69368 0.0
O111 O 0.84922 0.7527 0.68759 0.0
Co112 Co 0.7396 0.61355 0.79977 0.0
O113 O 0.68567 0.61932 0.80063 0.0
O114 O 0.71704 0.56772 0.80475 0.0
C115 C 0.74551 0.63654 0.7853 0.0
O116 O 0.7953 0.59752 0.79952 0.0
Co117 Co 0.78937 0.68573 0.79773 0.0
O118 O 0.83096 0.64854 0.7961 0.0
C119 C 0.7556 0.66752 0.8158 0.0
C120 C 0.68469 0.58508 0.80386 0.0
C121 C 0.82748 0.61319 0.79771 0.0
O122 O 0.7456 0.63499 0.81263 0.0
O123 O 0.7701 0.69349 0.81072 0.0
O124 O 0.7357 0.6015 0.78661 0.0
O125 O 0.74741 0.6572 0.79269 0.0
Co126 Co 0.3898 0.2408 0.04874 0.0
O127 O 0.38472 0.18682 0.04956 0.0
O128 O 0.43635 0.2186 0.05343 0.0
C129 C 0.36528 0.2469 0.03443 0.0
O130 O 0.40509 0.29667 0.04846 0.0
Co131 Co 0.31677 0.28974 0.04725 0.0
O132 O 0.35324 0.33182 0.04545 0.0
C133 C 0.33736 0.25558 0.06512 0.0
C134 C 0.41922 0.18612 0.05263 0.0
C135 C 0.3888 0.3287 0.0468 0.0
O136 O 0.36967 0.2462 0.06172 0.0
O137 O 0.31062 0.26989 0.06024 0.0
O138 O 0.40055 0.23739 0.0355 0.0
O139 O 0.34534 0.24832 0.04194 0.0
Co140 Co 0.76188 0.8899 0.29942 0.0
O141 O 0.81509 0.88325 0.30163 0.0
O142 O 0.78342 0.93594 0.30456 0.0
C143 C 0.76177 0.86515 0.28505 0.0
O144 O 0.7068 0.90684 0.2977 0.0
Co145 Co 0.71142 0.81854 0.29651 0.0
O146 O 0.67244 0.85652 0.29309 0.0
C147 C 0.73821 0.83801 0.31524 0.0
C148 C 0.81563 0.91797 0.30452 0.0
C149 C 0.67558 0.8918 0.29483 0.0
O150 O 0.75022 0.87005 0.31219 0.0
O151 O 0.72518 0.81191 0.30997 0.0
O152 O 0.77168 0.90016 0.28633 0.0
O153 O 0.75599 0.84561 0.2925 0.0
Co154 Co 0.11035 0.26212 0.54844 0.0
O155 O 0.11755 0.3157 0.54968 0.0
O156 O 0.06431 0.28576 0.55304 0.0
C157 C 0.13605 0.25732 0.53427 0.0
O158 O 0.09298 0.20679 0.54769 0.0
Co159 Co 0.18206 0.21075 0.5469 0.0
O160 O 0.14419 0.16989 0.54529 0.0
C161 C 0.16205 0.2452 0.56477 0.0
C162 C 0.08282 0.31759 0.55252 0.0
C163 C 0.10857 0.17418 0.54629 0.0
O164 O 0.12946 0.2544 0.56147 0.0
O165 O 0.18871 0.23135 0.5598 0.0
O166 O 0.10108 0.26807 0.53513 0.0
O167 O 0.15498 0.2536 0.54187 0.0
Co168 Co 0.74136 0.8889 0.43038 0.0
O169 O 0.68762 0.8822 0.42949 0.0
O170 O 0.71768 0.93515 0.4259 0.0
C171 C 0.74753 0.86312 0.44455 0.0
O172 O 0.79684 0.90588 0.43078 0.0
Co173 Co 0.79283 0.81761 0.43157 0.0
O174 O 0.83276 0.8553 0.4344 0.0
C175 C 0.75659 0.83757 0.41386 0.0
C176 C 0.68578 0.91688 0.4266 0.0
C177 C 0.82896 0.89071 0.43294 0.0
O178 O 0.74706 0.86974 0.41732 0.0
O179 O 0.77221 0.81128 0.41864 0.0
O180 O 0.73725 0.89827 0.44368 0.0
O181 O 0.75014 0.84412 0.43691 0.0
Co182 Co 0.11399 0.24059 0.67979 0.0
O183 O 0.12015 0.18679 0.67873 0.0
O184 O 0.06822 0.2181 0.6748 0.0
C185 C 0.13734 0.24577 0.69422 0.0
O186 O 0.09745 0.29608 0.68027 0.0
Co187 Co 0.18525 0.29127 0.68183 0.0
O188 O 0.14752 0.33136 0.68456 0.0
C189 C 0.16674 0.25856 0.66363 0.0
C190 C 0.08588 0.18585 0.67551 0.0
C191 C 0.11237 0.3279 0.68272 0.0
O192 O 0.13495 0.24721 0.66695 0.0
O193 O 0.19238 0.27423 0.66861 0.0
O194 O 0.10232 0.23585 0.69294 0.0
O195 O 0.15785 0.24835 0.68682 0.0
Co196 Co 0.761 0.60975 0.93027 0.0
O197 O 0.81458 0.61762 0.9295 0.0
O198 O 0.78543 0.56514 0.92511 0.0
C199 C 0.7544 0.6317 0.94479 0.0
O200 O 0.70582 0.59185 0.93038 0.0
Co201 Co 0.70895 0.68029 0.93238 0.0
O202 O 0.66863 0.64179 0.93383 0.0
C203 C 0.7445 0.66442 0.9144 0.0
C204 C 0.817 0.58378 0.92609 0.0
C205 C 0.67315 0.60664 0.93214 0.0
O206 O 0.75485 0.63189 0.9175 0.0
O207 O 0.72868 0.68956 0.91949 0.0
O208 O 0.76536 0.59706 0.94339 0.0
O209 O 0.75152 0.65265 0.93747 0.0
Co210 Co 0.39033 0.26064 0.18063 0.0
O211 O 0.38355 0.31437 0.17937 0.0
O212 O 0.43663 0.28385 0.17613 0.0
C213 C 0.36404 0.25598 0.19473 0.0
O214 O 0.40765 0.20525 0.18143 0.0
Co215 Co 0.31893 0.20902 0.18201 0.0
O216 O 0.35666 0.16828 0.18392 0.0
C217 C 0.33962 0.24313 0.16412 0.0
C218 C 0.41843 0.31587 0.1766 0.0
C219 C 0.39225 0.17264 0.18293 0.0
O220 O 0.37167 0.25321 0.16757 0.0
O221 O 0.31312 0.22834 0.16897 0.0
O222 O 0.39909 0.26654 0.19395 0.0
O223 O 0.34536 0.25223 0.18709 0.0
C224 C 0.8848 0.91408 0.30795 0.0
C225 C 0.85198 0.93628 0.30698 0.0
C226 C 0.9202 0.93102 0.30911 0.0
C227 C 0.96989 0.01898 0.30344 0.0
H228 H 0.04963 0.97732 0.31894 0.0
C229 C 0.11546 0.09023 0.30551 0.0
C230 C 0.1476 0.06681 0.30512 0.0
C231 C 0.07953 0.07488 0.30687 0.0
C232 C 0.02776 0.98908 0.31452 0.0
H233 H 0.83034 0.99366 0.30688 0.0
H234 H 0.89237 0.02343 0.30892 0.0
H235 H 0.98593 0.9504 0.31965 0.0
H236 H 0.16734 0.00889 0.30617 0.0
H237 H 0.10416 0.98179 0.30845 0.0
H238 H 0.01159 0.05705 0.29815 0.0
C239 C 0.89066 0.99283 0.3087 0.0
C240 C 0.99123 0.97375 0.31495 0.0
C241 C 0.85511 0.97582 0.30759 0.0
C242 C 0.14311 0.02766 0.30644 0.0
C243 C 0.10693 0.01219 0.30778 0.0
C244 C 0.00632 0.0342 0.303 0.0
C245 C 0.92371 0.97061 0.30928 0.0
C246 C 0.9619 0.98842 0.30938 0.0
C247 C 0.07463 0.03562 0.30784 0.0
C248 C 0.03578 0.01942 0.30851 0.0
H249 H 0.88334 0.8835 0.30754 0.0
H250 H 0.94501 0.91305 0.30946 0.0
H251 H 0.94824 0.03043 0.29891 0.0
H252 H 0.11791 0.12057 0.30462 0.0
H253 H 0.05547 0.09387 0.30709 0.0
C254 C 0.973 0.64686 0.55686 0.0
C255 C 0.93352 0.6501 0.55605 0.0
C256 C 0.98991 0.61121 0.5579 0.0
C257 C 0.97046 0.51063 0.56387 0.0
H258 H 0.05531 0.49063 0.54753 0.0
C259 C 0.0263 0.35899 0.55585 0.0
C260 C 0.06556 0.35476 0.55469 0.0
C261 C 0.01044 0.39508 0.55706 0.0
C262 C 0.03203 0.49579 0.55226 0.0
H263 H 0.88071 0.61879 0.55616 0.0
H264 H 0.9101 0.55693 0.55799 0.0
H265 H 0.02827 0.55386 0.54815 0.0
H266 H 0.11909 0.38482 0.55434 0.0
H267 H 0.09171 0.44713 0.55662 0.0
H268 H 0.97408 0.45228 0.5679 0.0
C269 C 0.92808 0.58175 0.55783 0.0
C270 C 0.01655 0.53214 0.55261 0.0
C271 C 0.91124 0.61725 0.55673 0.0
C272 C 0.08868 0.38708 0.55511 0.0
C273 C 0.07294 0.42292 0.55636 0.0
C274 C 0.98606 0.47419 0.56353 0.0
C275 C 0.96764 0.57818 0.55824 0.0
C276 C 0.98547 0.54 0.55838 0.0
C277 C 0.03358 0.42755 0.55716 0.0
C278 C 0.017 0.4663 0.5577 0.0
H279 H 0.9909 0.67166 0.55638 0.0
H280 H 0.02047 0.60944 0.55831 0.0
H281 H 0.94669 0.51584 0.56844 0.0
H282 H 0.00777 0.33461 0.55554 0.0
H283 H 0.97997 0.39762 0.5576 0.0
C284 C 0.61504 0.58903 0.80656 0.0
C285 C 0.64801 0.56685 0.80599 0.0
C286 C 0.57964 0.57213 0.80773 0.0
C287 C 0.53001 0.48368 0.80279 0.0
H288 H 0.45126 0.5258 0.81848 0.0
C289 C 0.38525 0.4115 0.8057 0.0
C290 C 0.35288 0.43462 0.8055 0.0
C291 C 0.42116 0.42717 0.80685 0.0
C292 C 0.47283 0.51392 0.814 0.0
H293 H 0.66987 0.50958 0.80648 0.0
H294 H 0.60774 0.47985 0.80845 0.0
H295 H 0.51475 0.55333 0.81874 0.0
H296 H 0.33267 0.49231 0.80668 0.0
H297 H 0.39579 0.52003 0.80856 0.0
H298 H 0.4882 0.44498 0.79784 0.0
C299 C 0.6094 0.5104 0.80797 0.0
C300 C 0.50923 0.52959 0.81418 0.0
C301 C 0.64497 0.52739 0.8069 0.0
C302 C 0.35711 0.47378 0.80682 0.0
C303 C 0.39326 0.4896 0.80792 0.0
C304 C 0.49367 0.46817 0.80258 0.0
C305 C 0.57629 0.53259 0.80826 0.0
C306 C 0.53821 0.51469 0.80855 0.0
C307 C 0.42579 0.46649 0.80777 0.0
C308 C 0.46456 0.48307 0.80817 0.0
H309 H 0.61645 0.61955 0.80593 0.0
H310 H 0.55473 0.59001 0.80785 0.0
H311 H 0.55144 0.47205 0.79823 0.0
H312 H 0.38297 0.38113 0.80481 0.0
H313 H 0.44539 0.40839 0.80694 0.0
C314 C 0.47717 0.14698 0.05598 0.0
C315 C 0.4378 0.14958 0.05478 0.0
C316 C 0.49446 0.1116 0.05721 0.0
C317 C 0.47506 0.01122 0.06331 0.0
H318 H 0.56243 0.99057 0.04785 0.0
C319 C 0.53011 0.85926 0.05581 0.0
C320 C 0.56938 0.85437 0.05489 0.0
C321 C 0.51477 0.89558 0.05695 0.0
C322 C 0.53844 0.99593 0.05234 0.0
H323 H 0.38554 0.11739 0.05432 0.0
H324 H 0.41555 0.05607 0.05647 0.0
H325 H 0.53537 0.05387 0.04807 0.0
H326 H 0.62348 0.88342 0.05493 0.0
H327 H 0.59696 0.94621 0.0571 0.0
H328 H 0.47793 0.95306 0.0675 0.0
C329 C 0.43316 0.08116 0.05649 0.0
C330 C 0.52294 0.03232 0.05246 0.0
C331 C 0.41598 0.11635 0.05518 0.0
C332 C 0.59304 0.88624 0.0555 0.0
C333 C 0.57781 0.92234 0.0567 0.0
C334 C 0.49067 0.97479 0.06321 0.0
C335 C 0.47264 0.07825 0.05736 0.0
C336 C 0.49085 0.04033 0.05787 0.0
C337 C 0.53846 0.92764 0.05724 0.0
C338 C 0.5224 0.96662 0.05767 0.0
H339 H 0.4947 0.1721 0.05571 0.0
H340 H 0.52494 0.11029 0.05795 0.0
H341 H 0.45054 0.0166 0.06763 0.0
H342 H 0.51118 0.83522 0.05536 0.0
H343 H 0.4843 0.89863 0.05729 0.0
C344 C 0.14702 0.47688 0.92173 0.0
C345 C 0.14946 0.43742 0.92272 0.0
C346 C 0.11177 0.49431 0.92042 0.0
C347 C 0.01162 0.47614 0.91393 0.0
H348 H 0.99048 0.55967 0.93059 0.0
C349 C 0.85939 0.52875 0.92217 0.0
C350 C 0.85443 0.56768 0.92372 0.0
C351 C 0.89575 0.51384 0.92078 0.0
C352 C 0.99598 0.53682 0.92576 0.0
H353 H 0.11733 0.3851 0.92261 0.0
H354 H 0.05619 0.41537 0.92029 0.0
H355 H 0.05388 0.53302 0.93002 0.0
H356 H 0.88333 0.62176 0.92452 0.0
H357 H 0.94613 0.59608 0.9219 0.0
H358 H 0.95347 0.47973 0.90975 0.0
C359 C 0.08129 0.43294 0.92053 0.0
C360 C 0.03242 0.52157 0.92544 0.0
C361 C 0.11634 0.41563 0.92193 0.0
C362 C 0.88622 0.59154 0.92347 0.0
C363 C 0.92233 0.57677 0.92201 0.0
C364 C 0.97512 0.49156 0.91422 0.0
C365 C 0.07846 0.47252 0.91996 0.0
C366 C 0.04059 0.49081 0.9196 0.0
C367 C 0.92774 0.53766 0.92086 0.0
C368 C 0.96677 0.52191 0.9202 0.0
H369 H 0.17209 0.49437 0.92229 0.0
H370 H 0.11049 0.52487 0.91991 0.0
H371 H 0.01715 0.45262 0.9093 0.0
H372 H 0.8354 0.50969 0.92233 0.0
H373 H 0.8989 0.48353 0.91997 0.0
C374 C 0.41418 0.38578 0.17423 0.0
C375 C 0.4364 0.35276 0.17451 0.0
C376 C 0.43093 0.42125 0.17304 0.0
C377 C 0.52081 0.4704 0.17707 0.0
H378 H 0.47454 0.55079 0.1626 0.0
C379 C 0.59172 0.61582 0.17403 0.0
C380 C 0.56855 0.64794 0.17497 0.0
C381 C 0.57592 0.58 0.1728 0.0
C382 C 0.48762 0.52873 0.16673 0.0
H383 H 0.49356 0.33095 0.17344 0.0
H384 H 0.52298 0.39311 0.17136 0.0
H385 H 0.44706 0.48729 0.16235 0.0
H386 H 0.51054 0.66783 0.17501 0.0
H387 H 0.48267 0.60486 0.173 0.0
H388 H 0.56084 0.51171 0.18162 0.0
C389 C 0.49254 0.39149 0.17214 0.0
C390 C 0.47195 0.49232 0.16657 0.0
C391 C 0.47571 0.35588 0.17328 0.0
C392 C 0.52912 0.6436 0.1743 0.0
C393 C 0.5132 0.60754 0.17312 0.0
C394 C 0.53639 0.50672 0.17725 0.0
C395 C 0.47037 0.42464 0.17215 0.0
C396 C 0.48826 0.46276 0.17178 0.0
C397 C 0.53646 0.5752 0.17254 0.0
C398 C 0.51997 0.53641 0.17211 0.0
H399 H 0.38377 0.38437 0.17513 0.0
H400 H 0.41303 0.44615 0.17317 0.0
H401 H 0.53364 0.44854 0.18131 0.0
H402 H 0.62226 0.6182 0.1744 0.0
H403 H 0.59473 0.55592 0.17216 0.0
C404 C 0.38653 0.08894 0.42383 0.0
C405 C 0.3536 0.06671 0.42434 0.0
C406 C 0.42195 0.07212 0.4226 0.0
C407 C 0.47149 0.98299 0.42709 0.0
H408 H 0.55068 0.02692 0.41185 0.0
C409 C 0.61634 0.91115 0.42397 0.0
C410 C 0.64861 0.93427 0.4245 0.0
C411 C 0.58048 0.92695 0.4228 0.0
C412 C 0.52897 0.01451 0.4162 0.0
H413 H 0.33184 0.00945 0.42366 0.0
H414 H 0.39394 0.9799 0.42153 0.0
H415 H 0.48717 0.05451 0.41166 0.0
H416 H 0.66876 0.99211 0.42389 0.0
H417 H 0.6057 0.02003 0.42199 0.0
H418 H 0.51315 0.94361 0.43182 0.0
C419 C 0.39228 0.01041 0.42214 0.0
C420 C 0.49256 0.03023 0.41607 0.0
C421 C 0.35671 0.02731 0.42331 0.0
C422 C 0.64438 0.9736 0.4235 0.0
C423 C 0.60827 0.98953 0.42238 0.0
C424 C 0.50781 0.9674 0.42725 0.0
C425 C 0.42535 0.03262 0.42191 0.0
C426 C 0.46345 0.01471 0.42154 0.0
C427 C 0.57582 0.96637 0.4222 0.0
C428 C 0.53707 0.98297 0.42182 0.0
H429 H 0.38509 0.11942 0.42456 0.0
H430 H 0.44683 0.09003 0.42254 0.0
H431 H 0.44997 0.97083 0.43154 0.0
H432 H 0.61864 0.88067 0.42459 0.0
H433 H 0.55629 0.90818 0.42246 0.0
C434 C 0.09037 0.11662 0.67231 0.0
C435 C 0.06791 0.14929 0.67319 0.0
C436 C 0.0737 0.08116 0.67107 0.0
C437 C 0.98662 0.03097 0.6767 0.0
H438 H 0.02668 0.95238 0.66064 0.0
C439 C 0.91445 0.88642 0.67445 0.0
C440 C 0.93757 0.85405 0.67452 0.0
C441 C 0.92998 0.92225 0.67312 0.0
C442 C 0.01541 0.97393 0.66522 0.0
H443 H 0.01045 0.17069 0.67306 0.0
H444 H 0.98112 0.10846 0.67098 0.0
H445 H 0.05372 0.01613 0.66008 0.0
H446 H 0.99505 0.83371 0.67293 0.0
H447 H 0.02259 0.89681 0.67076 0.0
H448 H 0.9491 0.98896 0.68205 0.0
C449 C 0.01169 0.11038 0.67129 0.0
C450 C 0.03077 0.01045 0.66487 0.0
C451 C 0.02844 0.14599 0.67243 0.0
C452 C 0.97656 0.85817 0.67291 0.0
C453 C 0.99226 0.89429 0.67164 0.0
C454 C 0.97145 0.99455 0.67709 0.0
C455 C 0.03415 0.07751 0.67077 0.0
C456 C 0.01655 0.03934 0.67063 0.0
C457 C 0.96916 0.92681 0.67191 0.0
C458 C 0.98559 0.96554 0.67136 0.0
H459 H 0.12092 0.11829 0.67281 0.0
H460 H 0.09177 0.05641 0.67076 0.0
H461 H 0.97562 0.05234 0.68137 0.0
H462 H 0.8842 0.88421 0.67554 0.0
H463 H 0.91121 0.94649 0.67313 0.0
C464 C 0.64047 0.95374 0.29663 0.0
C465 C 0.6408 0.9154 0.29398 0.0
C466 C 0.60668 0.97463 0.29643 0.0
C467 C 0.50303 0.96197 0.29736 0.0
H468 H 0.4993 0.06454 0.28788 0.0
C469 C 0.36157 0.04538 0.29392 0.0
C470 C 0.36286 0.08444 0.29574 0.0
C471 C 0.39514 0.02413 0.29344 0.0
C472 C 0.49983 0.03609 0.29068 0.0
H473 H 0.60572 0.86953 0.28876 0.0
H474 H 0.5474 0.90584 0.28844 0.0
H475 H 0.55889 0.02984 0.28763 0.0
H476 H 0.40047 0.13138 0.29885 0.0
H477 H 0.45813 0.09454 0.2983 0.0
H478 H 0.44423 0.96833 0.3006 0.0
C479 C 0.57306 0.91961 0.29079 0.0
C480 C 0.53408 0.01619 0.2905 0.0
C481 C 0.60671 0.89886 0.29093 0.0
C482 C 0.39832 0.10148 0.29726 0.0
C483 C 0.4316 0.08031 0.29689 0.0
C484 C 0.46882 0.98198 0.29762 0.0
C485 C 0.57248 0.95758 0.29365 0.0
C486 C 0.53611 0.97891 0.29385 0.0
C487 C 0.43067 0.04143 0.29487 0.0
C488 C 0.46675 0.0194 0.29431 0.0
H489 H 0.66609 0.96743 0.29902 0.0
H490 H 0.60712 0.00384 0.29871 0.0
H491 H 0.50374 0.9334 0.30009 0.0
H492 H 0.33474 0.0314 0.2927 0.0
H493 H 0.39325 0.9943 0.29178 0.0
C494 C 0.95255 0.86251 0.54705 0.0
C495 C 0.91414 0.8627 0.54446 0.0
C496 C 0.97383 0.89604 0.54685 0.0
C497 C 0.96221 0.9998 0.54788 0.0
H498 H 0.06448 0.00276 0.53822 0.0
C499 C 0.04585 0.14072 0.54427 0.0
C500 C 0.08496 0.13938 0.54603 0.0
C501 C 0.02459 0.10719 0.54381 0.0
C502 C 0.03612 0.00244 0.54107 0.0
H503 H 0.86855 0.89843 0.53931 0.0
H504 H 0.9055 0.95627 0.53899 0.0
H505 H 0.02936 0.94342 0.53801 0.0
H506 H 0.13203 0.10171 0.54902 0.0
H507 H 0.09514 0.04407 0.54852 0.0
H508 H 0.96904 0.05853 0.55111 0.0
C509 C 0.91905 0.93041 0.54131 0.0
C510 C 0.01598 0.96833 0.54092 0.0
C511 C 0.89791 0.89704 0.54145 0.0
C512 C 0.10207 0.1039 0.5475 0.0
C513 C 0.08088 0.07063 0.54715 0.0
C514 C 0.98244 0.03384 0.5481 0.0
C515 C 0.95709 0.93048 0.54411 0.0
C516 C 0.97878 0.96661 0.54432 0.0
C517 C 0.04191 0.07164 0.54521 0.0
C518 C 0.01975 0.03565 0.54473 0.0
H519 H 0.96601 0.83667 0.5494 0.0
H520 H 0.00309 0.89521 0.54909 0.0
H521 H 0.93372 0.99932 0.55065 0.0
H522 H 0.03183 0.16755 0.54307 0.0
H523 H 0.99471 0.10915 0.54221 0.0
C524 C 0.10248 0.39987 0.7945 0.0
C525 C 0.13779 0.41633 0.79658 0.0
C526 C 0.06934 0.4214 0.79467 0.0
C527 C 0.03297 0.51867 0.79311 0.0
H528 H 0.94388 0.4762 0.8049 0.0
C529 C 0.89801 0.60756 0.79864 0.0
C530 C 0.86252 0.58991 0.79772 0.0
C531 C 0.93136 0.58633 0.7986 0.0
C532 C 0.96826 0.48833 0.80145 0.0
H533 H 0.16565 0.46885 0.80035 0.0
H534 H 0.1075 0.50659 0.80059 0.0
H535 H 0.00263 0.44004 0.80462 0.0
H536 H 0.83439 0.53585 0.79605 0.0
H537 H 0.89278 0.4987 0.79571 0.0
H538 H 0.99863 0.56663 0.78977 0.0
C539 C 0.10573 0.47686 0.79881 0.0
C540 C 0.00204 0.46762 0.80133 0.0
C541 C 0.13904 0.4552 0.7987 0.0
C542 C 0.86124 0.55032 0.79681 0.0
C543 C 0.89477 0.52903 0.79666 0.0
C544 C 0.99912 0.53926 0.79316 0.0
C545 C 0.07046 0.46007 0.79688 0.0
C546 C 0.0348 0.48254 0.79716 0.0
C547 C 0.93033 0.54679 0.79754 0.0
C548 C 0.96627 0.52444 0.79735 0.0
H549 H 0.10022 0.37011 0.79279 0.0
H550 H 0.04275 0.40773 0.79299 0.0
H551 H 0.05754 0.53074 0.78972 0.0
H552 H 0.90014 0.63795 0.79949 0.0
H553 H 0.95798 0.60103 0.79953 0.0
C554 C 0.59975 0.60464 0.04249 0.0
C555 C 0.58403 0.63959 0.04521 0.0
C556 C 0.57796 0.57172 0.04247 0.0
C557 C 0.48059 0.53533 0.04186 0.0
H558 H 0.5257 0.44562 0.05281 0.0
C559 C 0.3938 0.39924 0.04786 0.0
C560 C 0.41165 0.36397 0.04666 0.0
C561 C 0.41466 0.43279 0.04768 0.0
C562 C 0.5128 0.47016 0.04959 0.0
H563 H 0.53239 0.66716 0.04976 0.0
H564 H 0.49414 0.60932 0.04967 0.0
H565 H 0.56146 0.50448 0.05233 0.0
H566 H 0.46561 0.33643 0.04432 0.0
H567 H 0.50205 0.39514 0.04372 0.0
H568 H 0.4322 0.50099 0.03894 0.0
C569 C 0.52353 0.6077 0.04756 0.0
C570 C 0.53329 0.50401 0.04936 0.0
C571 C 0.54547 0.64082 0.04763 0.0
C572 C 0.45102 0.3631 0.04531 0.0
C573 C 0.47191 0.39682 0.04501 0.0
C574 C 0.46019 0.50136 0.04201 0.0
C575 C 0.53976 0.57268 0.04512 0.0
C576 C 0.51746 0.53698 0.04548 0.0
C577 C 0.45398 0.43217 0.04619 0.0
C578 C 0.47598 0.46828 0.04589 0.0
H579 H 0.6292 0.60245 0.04048 0.0
H580 H 0.59113 0.54536 0.04038 0.0
H581 H 0.46778 0.56011 0.03872 0.0
H582 H 0.36357 0.40101 0.04904 0.0
H583 H 0.39988 0.45923 0.04884 0.0
C584 C 0.39692 0.39435 0.93518 0.0
C585 C 0.36223 0.41159 0.93284 0.0
C586 C 0.43058 0.41506 0.93514 0.0
C587 C 0.46854 0.51178 0.93655 0.0
H588 H 0.55808 0.46742 0.92537 0.0
C589 C 0.60304 0.59983 0.93068 0.0
C590 C 0.63862 0.58271 0.93197 0.0
C591 C 0.56996 0.57831 0.93072 0.0
C592 C 0.53355 0.48005 0.92864 0.0
H593 H 0.336 0.46458 0.92874 0.0
H594 H 0.39496 0.50082 0.9287 0.0
H595 H 0.49895 0.43179 0.92563 0.0
H596 H 0.66724 0.52924 0.93421 0.0
H597 H 0.60913 0.49148 0.93454 0.0
H598 H 0.503 0.55975 0.93971 0.0
C599 C 0.39588 0.47116 0.93059 0.0
C600 C 0.49958 0.45966 0.92876 0.0
C601 C 0.3621 0.45035 0.93058 0.0
C602 C 0.6403 0.54327 0.93318 0.0
C603 C 0.60696 0.52166 0.93333 0.0
C604 C 0.50253 0.53204 0.9365 0.0
C605 C 0.43055 0.45364 0.9328 0.0
C606 C 0.46664 0.47536 0.93267 0.0
C607 C 0.5713 0.539 0.93217 0.0
C608 C 0.53547 0.51661 0.93249 0.0
H609 H 0.39827 0.36463 0.937 0.0
H610 H 0.45667 0.40086 0.93701 0.0
H611 H 0.44386 0.52442 0.93976 0.0
H612 H 0.60064 0.63007 0.92957 0.0
H613 H 0.54328 0.59263 0.92954 0.0
C614 C 0.60418 0.89629 0.18841 0.0
C615 C 0.58767 0.86168 0.18571 0.0
C616 C 0.58304 0.92968 0.18848 0.0
C617 C 0.48603 0.96766 0.18917 0.0
H618 H 0.53196 0.05694 0.17824 0.0
C619 C 0.39904 0.10228 0.18209 0.0
C620 C 0.41604 0.13795 0.18331 0.0
C621 C 0.42041 0.06913 0.18255 0.0
C622 C 0.51886 0.03251 0.18145 0.0
H623 H 0.53533 0.83525 0.18125 0.0
H624 H 0.49826 0.89383 0.18143 0.0
H625 H 0.56746 0.99782 0.17888 0.0
H626 H 0.46919 0.16655 0.18595 0.0
H627 H 0.50664 0.10835 0.18701 0.0
H628 H 0.43764 0.00227 0.19187 0.0
C629 C 0.52774 0.89485 0.18349 0.0
C630 C 0.5392 0.99852 0.18179 0.0
C631 C 0.549 0.86129 0.18337 0.0
C632 C 0.45523 0.13957 0.18495 0.0
C633 C 0.47669 0.10616 0.18552 0.0
C634 C 0.4658 0.00171 0.18891 0.0
C635 C 0.54472 0.92953 0.18591 0.0
C636 C 0.52297 0.96564 0.18561 0.0
C637 C 0.45947 0.07045 0.18437 0.0
C638 C 0.4818 0.03458 0.18498 0.0
H639 H 0.63376 0.89784 0.19035 0.0
H640 H 0.5968 0.95574 0.19056 0.0
H641 H 0.47294 0.94301 0.19228 0.0
H642 H 0.36902 0.09985 0.18067 0.0
H643 H 0.40621 0.0424 0.18137 0.0
C644 C 0.86289 0.95339 0.43133 0.0
C645 C 0.86368 0.91451 0.43345 0.0
C646 C 0.89632 0.97483 0.43147 0.0
C647 C 1.00026 0.96462 0.4297 0.0
H648 H 0.00282 0.06445 0.44081 0.0
C649 C 0.14061 0.0484 0.43418 0.0
C650 C 0.13897 0.08781 0.43291 0.0
C651 C 0.10726 0.02683 0.43445 0.0
C652 C 0.00259 0.03681 0.43756 0.0
H653 H 0.9005 0.86809 0.43758 0.0
H654 H 0.95813 0.90533 0.43782 0.0
H655 H 0.94384 0.02875 0.4407 0.0
H656 H 0.10084 0.13519 0.43064 0.0
H657 H 0.04346 0.09784 0.43083 0.0
H658 H 0.05877 0.97278 0.42641 0.0
C659 C 0.93186 0.91917 0.43593 0.0
C660 C 0.96869 0.01634 0.43751 0.0
C661 C 0.89861 0.89786 0.43583 0.0
C662 C 0.1033 0.10498 0.43178 0.0
C663 C 0.07018 0.0835 0.43195 0.0
C664 C 0.03411 0.9852 0.42967 0.0
C665 C 0.93125 0.95782 0.43368 0.0
C666 C 0.96711 0.97998 0.43359 0.0
C667 C 0.07155 0.04416 0.43335 0.0
C668 C 0.03576 0.02164 0.43359 0.0
H669 H 0.83659 0.96719 0.42946 0.0
H670 H 0.89495 0.00455 0.42965 0.0
H671 H 0.99991 0.93684 0.42652 0.0
H672 H 0.16758 0.03429 0.4351 0.0
H673 H 0.10947 0.99665 0.43565 0.0
C674 C 0.04988 0.36173 0.68074 0.0
C675 C 0.08854 0.3626 0.68309 0.0
C676 C 0.02836 0.3951 0.68071 0.0
C677 C 0.03849 0.49874 0.6787 0.0
H678 H 0.93801 0.50195 0.68944 0.0
C679 C 0.95571 0.6395 0.68303 0.0
C680 C 0.91626 0.63838 0.6818 0.0
C681 C 0.97688 0.60591 0.68319 0.0
C682 C 0.96582 0.50152 0.68628 0.0
H683 H 0.13449 0.39947 0.68745 0.0
H684 H 0.09708 0.45711 0.6874 0.0
H685 H 0.97368 0.4429 0.68963 0.0
H686 H 0.86837 0.60111 0.67946 0.0
H687 H 0.90515 0.54315 0.67944 0.0
H688 H 0.03059 0.55709 0.67521 0.0
C689 C 0.08351 0.43078 0.68546 0.0
C690 C 0.98627 0.4676 0.68642 0.0
C691 C 0.1049 0.39755 0.68554 0.0
C692 C 0.89865 0.60305 0.68055 0.0
C693 C 0.91978 0.56965 0.6806 0.0
C694 C 0.01793 0.53258 0.67849 0.0
C695 C 0.0451 0.43006 0.68297 0.0
C696 C 0.0229 0.46585 0.68266 0.0
C697 C 0.95914 0.57049 0.68202 0.0
C698 C 0.9813 0.53449 0.68229 0.0
H699 H 0.03632 0.33539 0.67882 0.0
H700 H 0.99883 0.39367 0.67872 0.0
H701 H 0.06648 0.49819 0.67564 0.0
H702 H 0.97012 0.66623 0.68405 0.0
H703 H 0.00707 0.60772 0.68441 0.0
C704 C 0.25673 0.13527 0.33104 0.0
C705 C 0.25714 0.1668 0.3251 0.0
C706 C 0.2576 0.14019 0.34064 0.0
C707 C 0.23306 0.20197 0.35944 0.0
H708 H 0.31212 0.14878 0.37289 0.0
C709 C 0.2426 0.20438 0.39957 0.0
C710 C 0.25009 0.16916 0.40375 0.0
C711 C 0.24675 0.20905 0.38998 0.0
C712 C 0.28973 0.16362 0.36925 0.0
H713 H 0.25723 0.22821 0.32452 0.0
H714 H 0.25772 0.23668 0.34143 0.0
H715 H 0.31125 0.14715 0.35595 0.0
H716 H 0.26818 0.11136 0.40113 0.0
H717 H 0.27442 0.11922 0.38449 0.0
H718 H 0.2103 0.21685 0.37272 0.0
C719 C 0.25731 0.2083 0.33858 0.0
C720 C 0.28939 0.1628 0.35957 0.0
C721 C 0.25714 0.2034 0.32895 0.0
C722 C 0.26226 0.13892 0.39816 0.0
C723 C 0.26617 0.14353 0.3886 0.0
C724 C 0.23306 0.20237 0.36915 0.0
C725 C 0.25825 0.17668 0.34447 0.0
C726 C 0.26062 0.18125 0.35462 0.0
C727 C 0.25836 0.17857 0.38439 0.0
C728 C 0.2609 0.18238 0.37415 0.0
H729 H 0.25681 0.10673 0.32829 0.0
H730 H 0.25791 0.11544 0.3451 0.0
H731 H 0.21059 0.21633 0.35572 0.0
H732 H 0.2334 0.22834 0.40369 0.0
H733 H 0.2409 0.2365 0.38695 0.0
C734 C 0.85978 0.74678 0.58135 0.0
C735 C 0.8306 0.76028 0.5756 0.0
C736 C 0.85476 0.74449 0.59093 0.0
C737 C 0.79779 0.78265 0.61021 0.0
H738 H 0.84615 0.7005 0.62363 0.0
C739 C 0.79489 0.75102 0.65057 0.0
C740 C 0.83168 0.75271 0.65432 0.0
C741 C 0.78935 0.75273 0.64094 0.0
C742 C 0.83231 0.72341 0.61994 0.0
H743 H 0.77297 0.7817 0.57544 0.0
H744 H 0.76404 0.77709 0.59224 0.0
H745 H 0.84531 0.69968 0.60668 0.0
H746 H 0.89131 0.75848 0.65091 0.0
H747 H 0.88148 0.76043 0.63416 0.0
H748 H 0.78487 0.80607 0.62363 0.0
C749 C 0.791 0.76876 0.5893 0.0
C750 C 0.83204 0.72316 0.61026 0.0
C751 C 0.79609 0.77124 0.57967 0.0
C752 C 0.86262 0.7571 0.64827 0.0
C753 C 0.8571 0.75813 0.63869 0.0
C754 C 0.79763 0.78259 0.61994 0.0
C755 C 0.82032 0.75534 0.59503 0.0
C756 C 0.81586 0.75335 0.60528 0.0
C757 C 0.82055 0.75547 0.63497 0.0
C758 C 0.81581 0.75346 0.62483 0.0
H759 H 0.88683 0.73828 0.57849 0.0
H760 H 0.87827 0.73483 0.59515 0.0
H761 H 0.7853 0.80644 0.60658 0.0
H762 H 0.77048 0.74787 0.65505 0.0
H763 H 0.76093 0.75064 0.63815 0.0
C764 C 0.24441 0.29153 0.8288 0.0
C765 C 0.24657 0.32861 0.82524 0.0
C766 C 0.24478 0.28523 0.8384 0.0
C767 C 0.21298 0.32595 0.85944 0.0
H768 H 0.29622 0.28027 0.873 0.0
C769 C 0.23626 0.35526 0.89792 0.0
C770 C 0.25106 0.32696 0.90375 0.0
C771 C 0.23308 0.34927 0.88839 0.0
C772 C 0.27233 0.2923 0.86932 0.0
H773 H 0.25154 0.38798 0.82896 0.0
H774 H 0.25117 0.37683 0.84569 0.0
H775 H 0.29684 0.2804 0.85596 0.0
H776 H 0.27335 0.26968 0.90411 0.0
H777 H 0.26722 0.25905 0.88739 0.0
H778 H 0.18827 0.33809 0.87265 0.0
C779 C 0.24957 0.35282 0.84102 0.0
C780 C 0.27285 0.29247 0.85959 0.0
C781 C 0.24991 0.3591 0.83146 0.0
C782 C 0.26195 0.29215 0.89981 0.0
C783 C 0.25861 0.28609 0.89024 0.0
C784 C 0.21216 0.32532 0.86912 0.0
C785 C 0.24659 0.31595 0.84454 0.0
C786 C 0.24371 0.31034 0.85464 0.0
C787 C 0.2443 0.31471 0.88442 0.0
C788 C 0.24245 0.30971 0.87418 0.0
H789 H 0.24203 0.26747 0.82417 0.0
H790 H 0.24249 0.25659 0.84103 0.0
H791 H 0.19007 0.33953 0.8557 0.0
H792 H 0.22764 0.38246 0.90067 0.0
H793 H 0.22269 0.37224 0.8841 0.0
C794 C 0.70201 0.73824 0.08006 0.0
C795 C 0.66724 0.7469 0.07579 0.0
C796 C 0.70652 0.7425 0.08965 0.0
C797 C 0.66209 0.788 0.11022 0.0
H798 H 0.71352 0.70886 0.12404 0.0
C799 C 0.63543 0.75881 0.14878 0.0
C800 C 0.66741 0.75828 0.15458 0.0
C801 C 0.63963 0.75929 0.13915 0.0
C802 C 0.6995 0.73133 0.12023 0.0
H803 H 0.61 0.76698 0.07827 0.0
H804 H 0.61755 0.77338 0.09493 0.0
H805 H 0.71337 0.70709 0.10704 0.0
H806 H 0.7288 0.7566 0.15489 0.0
H807 H 0.73599 0.7563 0.13793 0.0
H808 H 0.6467 0.81107 0.12345 0.0
C809 C 0.64167 0.76416 0.09087 0.0
C810 C 0.69951 0.73047 0.11052 0.0
C811 C 0.63724 0.76017 0.08131 0.0
C812 C 0.70368 0.75721 0.15057 0.0
C813 C 0.70783 0.75694 0.14091 0.0
C814 C 0.66164 0.78851 0.1199 0.0
C815 C 0.67632 0.75534 0.09517 0.0
C816 C 0.68008 0.75837 0.10541 0.0
C817 C 0.67581 0.75856 0.13515 0.0
C818 C 0.67971 0.75981 0.12497 0.0
H819 H 0.72577 0.72815 0.076 0.0
H820 H 0.73369 0.73584 0.09274 0.0
H821 H 0.64771 0.81046 0.1065 0.0
H822 H 0.60715 0.75979 0.15167 0.0
H823 H 0.61455 0.76019 0.13481 0.0
C824 C 0.75229 0.64302 0.83202 0.0
C825 C 0.75297 0.67405 0.82591 0.0
C826 C 0.75348 0.6487 0.8416 0.0
C827 C 0.72925 0.70894 0.86038 0.0
H828 H 0.81333 0.6615 0.87327 0.0
C829 C 0.73989 0.70753 0.90053 0.0
C830 C 0.75009 0.67238 0.90439 0.0
C831 C 0.74376 0.71401 0.89098 0.0
C832 C 0.78958 0.67477 0.86979 0.0
H833 H 0.75368 0.73539 0.82504 0.0
H834 H 0.75455 0.7452 0.84194 0.0
H835 H 0.81111 0.66055 0.85633 0.0
H836 H 0.7731 0.61679 0.90126 0.0
H837 H 0.77889 0.6277 0.88473 0.0
H838 H 0.7064 0.72117 0.87382 0.0
C839 C 0.75376 0.71662 0.83921 0.0
C840 C 0.7885 0.67439 0.86011 0.0
C841 C 0.75334 0.71095 0.82959 0.0
C842 C 0.76494 0.64422 0.89854 0.0
C843 C 0.76862 0.65062 0.88904 0.0
C844 C 0.73001 0.70883 0.8701 0.0
C845 C 0.75464 0.68546 0.84525 0.0
C846 C 0.75791 0.69064 0.85536 0.0
C847 C 0.75787 0.68546 0.88512 0.0
C848 C 0.75968 0.69076 0.8749 0.0
H849 H 0.75213 0.61426 0.82942 0.0
H850 H 0.75383 0.62433 0.84617 0.0
H851 H 0.70537 0.72154 0.8568 0.0
H852 H 0.72856 0.72994 0.90484 0.0
H853 H 0.73559 0.74129 0.88819 0.0
C854 C 0.29853 0.23899 0.14991 0.0
C855 C 0.3336 0.24785 0.15401 0.0
C856 C 0.29349 0.2423 0.14031 0.0
C857 C 0.33676 0.28534 0.11931 0.0
H858 H 0.28548 0.20423 0.1062 0.0
C859 C 0.3638 0.25147 0.08114 0.0
C860 C 0.33205 0.25235 0.07526 0.0
C861 C 0.35928 0.25193 0.09075 0.0
C862 C 0.29942 0.22723 0.10981 0.0
H863 H 0.39069 0.26755 0.15123 0.0
H864 H 0.3822 0.27241 0.13456 0.0
H865 H 0.28612 0.20461 0.12321 0.0
H866 H 0.27064 0.25262 0.07482 0.0
H867 H 0.26286 0.25231 0.09178 0.0
H868 H 0.35168 0.30677 0.10589 0.0
C869 C 0.3583 0.26366 0.13875 0.0
C870 C 0.2997 0.22761 0.11953 0.0
C871 C 0.36328 0.26056 0.14832 0.0
C872 C 0.29561 0.25217 0.0792 0.0
C873 C 0.2911 0.2519 0.08886 0.0
C874 C 0.33692 0.28463 0.10964 0.0
C875 C 0.32342 0.25444 0.13462 0.0
C876 C 0.31915 0.25623 0.12438 0.0
C877 C 0.32297 0.2526 0.09467 0.0
C878 C 0.31894 0.25519 0.10483 0.0
H879 H 0.27498 0.2293 0.1541 0.0
H880 H 0.26616 0.23538 0.13736 0.0
H881 H 0.35114 0.30831 0.12283 0.0
H882 H 0.39224 0.25168 0.07834 0.0
H883 H 0.38421 0.2521 0.09515 0.0
C884 C 0.73742 0.79505 0.32911 0.0
C885 C 0.73762 0.83186 0.32538 0.0
C886 C 0.73585 0.7896 0.33873 0.0
C887 C 0.70327 0.83413 0.35998 0.0
H888 H 0.78423 0.78107 0.37272 0.0
C889 C 0.73605 0.86071 0.39823 0.0
C890 C 0.74964 0.8311 0.40384 0.0
C891 C 0.73034 0.85525 0.38875 0.0
C892 C 0.76092 0.79523 0.36928 0.0
H893 H 0.73599 0.89171 0.32875 0.0
H894 H 0.73247 0.88207 0.34551 0.0
H895 H 0.78201 0.78106 0.35574 0.0
H896 H 0.76693 0.77211 0.40389 0.0
H897 H 0.75638 0.76246 0.38729 0.0
H898 H 0.68208 0.84856 0.37342 0.0
C899 C 0.73378 0.85755 0.34099 0.0
C900 C 0.75978 0.7953 0.35957 0.0
C901 C 0.7361 0.86303 0.33142 0.0
C902 C 0.75671 0.79562 0.39976 0.0
C903 C 0.75077 0.7901 0.39024 0.0
C904 C 0.70407 0.83365 0.36966 0.0
C905 C 0.73358 0.82085 0.34472 0.0
C906 C 0.73163 0.81577 0.35487 0.0
C907 C 0.73776 0.81996 0.38462 0.0
C908 C 0.73365 0.81534 0.37442 0.0
H909 H 0.73869 0.77052 0.32461 0.0
H910 H 0.73582 0.76106 0.34149 0.0
H911 H 0.68098 0.84963 0.35647 0.0
H912 H 0.73034 0.88845 0.40112 0.0
H913 H 0.72104 0.87912 0.38461 0.0
C914 C 0.14433 0.23915 0.64788 0.0
C915 C 0.17315 0.2541 0.65353 0.0
C916 C 0.14926 0.23612 0.63832 0.0
C917 C 0.20399 0.27559 0.61889 0.0
H918 H 0.15641 0.19266 0.60562 0.0
C919 C 0.20502 0.25053 0.57856 0.0
C920 C 0.16819 0.24842 0.57487 0.0
C921 C 0.21066 0.25108 0.58818 0.0
C922 C 0.16995 0.21585 0.60926 0.0
H923 H 0.23021 0.2769 0.65352 0.0
H924 H 0.23903 0.27096 0.63674 0.0
H925 H 0.15902 0.19136 0.62256 0.0
H926 H 0.10845 0.24579 0.57833 0.0
H927 H 0.11851 0.24578 0.59511 0.0
H928 H 0.21491 0.29977 0.60545 0.0
C929 C 0.21239 0.26213 0.63975 0.0
C930 C 0.17131 0.21527 0.61894 0.0
C931 C 0.20738 0.26536 0.64937 0.0
C932 C 0.13714 0.24753 0.58096 0.0
C933 C 0.14284 0.24732 0.59054 0.0
C934 C 0.20312 0.27585 0.60917 0.0
C935 C 0.18326 0.24762 0.63413 0.0
C936 C 0.18718 0.24572 0.62387 0.0
C937 C 0.1796 0.24872 0.59421 0.0
C938 C 0.18507 0.24651 0.60433 0.0
H939 H 0.11752 0.23029 0.65081 0.0
H940 H 0.1259 0.22558 0.63419 0.0
H941 H 0.21621 0.29959 0.62248 0.0
H942 H 0.22945 0.25147 0.57402 0.0
H943 H 0.23923 0.25224 0.59091 0.0
C944 C 0.22447 0.15108 0.26829 0.0
C945 C 0.2513 0.15434 0.2754 0.0
C946 C 0.23088 0.16816 0.25968 0.0
C947 C 0.29877 0.23324 0.24732 0.0
H948 H 0.25749 0.18281 0.22569 0.0
C949 C 0.34505 0.27711 0.21047 0.0
C950 C 0.34671 0.24855 0.20375 0.0
C951 C 0.32782 0.27017 0.21903 0.0
C952 C 0.26992 0.19692 0.23163 0.0
H953 H 0.30571 0.17737 0.27928 0.0
H954 H 0.31893 0.20397 0.26409 0.0
H955 H 0.23972 0.16139 0.24094 0.0
H956 H 0.33263 0.19054 0.20053 0.0
H957 H 0.30578 0.17698 0.21567 0.0
H958 H 0.33217 0.26597 0.23801 0.0
C959 C 0.29184 0.1904 0.26514 0.0
C960 C 0.25888 0.18517 0.24047 0.0
C961 C 0.28464 0.17467 0.27385 0.0
C962 C 0.33137 0.21295 0.20565 0.0
C963 C 0.31546 0.20548 0.21431 0.0
C964 C 0.31098 0.24398 0.23848 0.0
C965 C 0.26505 0.18746 0.25791 0.0
C966 C 0.27373 0.20262 0.24847 0.0
C967 C 0.31323 0.23403 0.22114 0.0
C968 C 0.29735 0.22541 0.2305 0.0
H969 H 0.19822 0.13594 0.26945 0.0
H970 H 0.20894 0.16607 0.25446 0.0
H971 H 0.30986 0.24853 0.25324 0.0
H972 H 0.35644 0.30497 0.20903 0.0
H973 H 0.32594 0.29325 0.22395 0.0
C974 C 0.77423 0.81092 0.45422 0.0
C975 C 0.75585 0.8461 0.45365 0.0
C976 C 0.78276 0.79518 0.46287 0.0
C977 C 0.75665 0.79537 0.48736 0.0
H978 H 0.86223 0.77198 0.49196 0.0
C979 C 0.81549 0.77434 0.52434 0.0
C980 C 0.84659 0.75022 0.5256 0.0
C981 C 0.80186 0.78183 0.51542 0.0
C982 C 0.83247 0.77747 0.49078 0.0
H983 H 0.73102 0.89196 0.4616 0.0
H984 H 0.74552 0.86407 0.47674 0.0
H985 H 0.84239 0.79181 0.47653 0.0
H986 H 0.88664 0.71332 0.51868 0.0
H987 H 0.8618 0.72478 0.50316 0.0
H988 H 0.7464 0.78054 0.50154 0.0
C989 C 0.75338 0.84885 0.4705 0.0
C990 C 0.82122 0.78904 0.48194 0.0
C991 C 0.74538 0.86488 0.46185 0.0
C992 C 0.86295 0.73253 0.51786 0.0
C993 C 0.84881 0.7393 0.50896 0.0
C994 C 0.76775 0.78312 0.49618 0.0
C995 C 0.77247 0.81409 0.47107 0.0
C996 C 0.78339 0.79869 0.48021 0.0
C997 C 0.8186 0.76467 0.5076 0.0
C998 C 0.80596 0.77467 0.49805 0.0
H999 H 0.78251 0.79581 0.448 0.0
H1000 H 0.79743 0.76826 0.46317 0.0
H1001 H 0.72721 0.80238 0.48613 0.0
H1002 H 0.80246 0.78837 0.53022 0.0
H1003 H 0.77897 0.80197 0.51465 0.0
C1004 C 0.19086 0.26221 0.70482 0.0
C1005 C 0.15217 0.25492 0.70351 0.0
C1006 C 0.20469 0.27129 0.71364 0.0
C1007 C 0.22136 0.31356 0.73148 0.0
H1008 H 0.17804 0.26748 0.75351 0.0
C1009 C 0.24141 0.37756 0.76787 0.0
C1010 C 0.24508 0.35284 0.77545 0.0
C1011 C 0.23261 0.36353 0.75907 0.0
C1012 C 0.19085 0.2803 0.74744 0.0
H1013 H 0.09759 0.25128 0.71033 0.0
H1014 H 0.12144 0.2681 0.72564 0.0
H1015 H 0.15902 0.24514 0.73822 0.0
H1016 H 0.24318 0.29411 0.7798 0.0
H1017 H 0.22878 0.26944 0.76438 0.0
H1018 H 0.25386 0.3481 0.7407 0.0
C1019 C 0.14133 0.26599 0.71994 0.0
C1020 C 0.17954 0.26783 0.73867 0.0
C1021 C 0.12759 0.25664 0.71115 0.0
C1022 C 0.24022 0.31382 0.77408 0.0
C1023 C 0.23181 0.29973 0.76525 0.0
C1024 C 0.23291 0.32581 0.74026 0.0
C1025 C 0.18002 0.27351 0.72129 0.0
C1026 C 0.1942 0.28475 0.73059 0.0
C1027 C 0.2277 0.32445 0.75765 0.0
C1028 C 0.21734 0.30973 0.74834 0.0
H1029 H 0.21047 0.26084 0.69905 0.0
H1030 H 0.23473 0.27641 0.71447 0.0
H1031 H 0.233 0.32742 0.72541 0.0
H1032 H 0.24483 0.40781 0.76876 0.0
H1033 H 0.22896 0.38343 0.75341 0.0
C1034 C 0.76276 0.62838 0.96194 0.0
C1035 C 0.74693 0.64636 0.95416 0.0
C1036 C 0.75619 0.64248 0.97085 0.0
C1037 C 0.71897 0.72701 0.98343 0.0
H1038 H 0.70469 0.65435 0.00335 0.0
C1039 C 0.63883 0.75703 0.01756 0.0
C1040 C 0.65664 0.7457 0.02583 0.0
C1041 C 0.65452 0.74756 0.00897 0.0
C1042 C 0.70907 0.67493 -0.00214 0.0
H1043 H 0.71172 0.69285 0.9495 0.0
H1044 H 0.69847 0.71641 0.96507 0.0
H1045 H 0.72254 0.63215 0.98796 0.0
H1046 H 0.70498 0.71614 0.03167 0.0
H1047 H 0.73183 0.69864 0.0166 0.0
H1048 H 0.70331 0.76949 -0.00665 0.0
C1049 C 0.71712 0.69227 0.96433 0.0
C1050 C 0.71946 0.66231 0.98905 0.0
C1051 C 0.72438 0.67861 0.95541 0.0
C1052 C 0.69062 0.72513 0.02539 0.0
C1053 C 0.70596 0.71511 0.0168 0.0
C1054 C 0.70789 0.73952 -0.00778 0.0
C1055 C 0.73295 0.67438 0.97217 0.0
C1056 C 0.72416 0.68814 0.98169 0.0
C1057 C 0.68791 0.72612 0.00854 0.0
C1058 C 0.70253 0.71351 -0.00054 0.0
H1059 H 0.78068 0.60371 0.96114 0.0
H1060 H 0.76952 0.62842 0.97669 0.0
H1061 H 0.7232 0.74781 0.978 0.0
H1062 H 0.61271 0.77308 0.01771 0.0
H1063 H 0.63997 0.75604 0.00267 0.0
C1064 C 0.3732 0.25844 0.01746 0.0
C1065 C 0.34951 0.25675 0.02527 0.0
C1066 C 0.35849 0.26805 0.00878 0.0
C1067 C 0.31775 0.2689 -0.0096 0.0
H1068 H 0.24454 0.35035 0.98852 0.0
C1069 C 0.25526 0.3136 0.95513 0.0
C1070 C 0.25179 0.35266 0.95358 0.0
C1071 C 0.26331 0.29987 0.96402 0.0
C1072 C 0.26512 0.32767 0.98892 0.0
H1073 H 0.29185 0.26339 0.03017 0.0
H1074 H 0.26592 0.27955 0.01494 0.0
H1075 H 0.26699 0.33041 0.00376 0.0
H1076 H 0.25372 0.40805 0.96004 0.0
H1077 H 0.26898 0.38426 0.97548 0.0
H1078 H 0.31735 0.26732 0.97556 0.0
C1079 C 0.29598 0.27405 0.01555 0.0
C1080 C 0.27761 0.31591 -0.00233 0.0
C1081 C 0.31077 0.26463 0.02425 0.0
C1082 C 0.25615 0.37776 0.96106 0.0
C1083 C 0.26458 0.36408 0.96992 0.0
C1084 C 0.30549 0.28083 0.98166 0.0
C1085 C 0.31972 0.27591 0.00772 0.0
C1086 C 0.30446 0.28674 -0.00151 0.0
C1087 C 0.26846 0.32498 0.97149 0.0
C1088 C 0.27939 0.31067 0.98081 0.0
H1089 H 0.40323 0.25269 0.01806 0.0
H1090 H 0.37768 0.26993 0.00294 0.0
H1091 H 0.33797 0.2459 -0.0092 0.0
H1092 H 0.25167 0.29361 0.94949 0.0
H1093 H 0.26547 0.26956 0.96502 0.0
C1094 C 0.73395 0.81659 0.27453 0.0
C1095 C 0.75578 0.84936 0.27572 0.0
C1096 C 0.72674 0.80267 0.26563 0.0
C1097 C 0.72616 0.83367 0.24103 0.0
H1098 H 0.70941 0.72671 0.23654 0.0
C1099 C 0.69358 0.77233 0.20476 0.0
C1100 C 0.6593 0.75226 0.20441 0.0
C1101 C 0.70966 0.78186 0.2133 0.0
C1102 C 0.71413 0.75662 0.23773 0.0
H1103 H 0.78875 0.89236 0.26868 0.0
H1104 H 0.77765 0.86719 0.25316 0.0
H1105 H 0.73166 0.74762 0.25177 0.0
H1106 H 0.61557 0.72528 0.21265 0.0
H1107 H 0.64423 0.74142 0.22762 0.0
H1108 H 0.7092 0.84235 0.2269 0.0
C1109 C 0.76482 0.85295 0.25903 0.0
C1110 C 0.72661 0.76869 0.24645 0.0
C1111 C 0.77138 0.86729 0.26792 0.0
C1112 C 0.64192 0.74093 0.21273 0.0
C1113 C 0.65838 0.7499 0.22127 0.0
C1114 C 0.7144 0.8215 0.23228 0.0
C1115 C 0.74184 0.82084 0.25775 0.0
C1116 C 0.73204 0.80747 0.24826 0.0
C1117 C 0.69208 0.77085 0.22161 0.0
C1118 C 0.70766 0.78301 0.23062 0.0
H1119 H 0.72153 0.80227 0.28044 0.0
H1120 H 0.70837 0.77831 0.26494 0.0
H1121 H 0.72933 0.86378 0.24219 0.0
H1122 H 0.70765 0.78131 0.19845 0.0
H1123 H 0.73576 0.79796 0.21343 0.0
C1124 C 0.27604 0.15246 0.46077 0.0
C1125 C 0.25004 0.15735 0.45353 0.0
C1126 C 0.26952 0.16915 0.46941 0.0
C1127 C 0.20324 0.23588 0.48176 0.0
H1128 H 0.23974 0.18107 0.50329 0.0
C1129 C 0.15706 0.27877 0.51871 0.0
C1130 C 0.15302 0.24964 0.52522 0.0
C1131 C 0.17423 0.27159 0.51015 0.0
C1132 C 0.22867 0.19645 0.49737 0.0
H1133 H 0.19708 0.18305 0.44943 0.0
H1134 H 0.18357 0.20921 0.46467 0.0
H1135 H 0.25808 0.16048 0.488 0.0
H1136 H 0.16271 0.1904 0.52807 0.0
H1137 H 0.18967 0.17674 0.51294 0.0
H1138 H 0.17062 0.26931 0.4911 0.0
C1139 C 0.21014 0.19452 0.4637 0.0
C1140 C 0.24005 0.18514 0.48852 0.0
C1141 C 0.2175 0.1791 0.45496 0.0
C1142 C 0.16585 0.21324 0.52312 0.0
C1143 C 0.1818 0.20568 0.51446 0.0
C1144 C 0.19072 0.2463 0.49059 0.0
C1145 C 0.23601 0.18973 0.47108 0.0
C1146 C 0.22694 0.20422 0.48056 0.0
C1147 C 0.18648 0.23479 0.50785 0.0
C1148 C 0.20264 0.22622 0.49852 0.0
H1149 H 0.30169 0.13619 0.4597 0.0
H1150 H 0.29081 0.16568 0.47475 0.0
H1151 H 0.1935 0.2523 0.47588 0.0
H1152 H 0.14759 0.30721 0.52032 0.0
H1153 H 0.17799 0.29501 0.50539 0.0
C1154 C 0.81613 0.74059 0.70566 0.0
C1155 C 0.85524 0.74418 0.70422 0.0
C1156 C 0.80206 0.73203 0.71448 0.0
C1157 C 0.8291 0.7306 0.73942 0.0
H1158 H 0.74573 0.65974 0.74138 0.0
C1159 C 0.75647 0.62679 0.76836 0.0
C1160 C 0.75538 0.65124 0.77604 0.0
C1161 C 0.7664 0.64045 0.7596 0.0
C1162 C 0.76918 0.6794 0.74095 0.0
H1163 H 0.9104 0.7414 0.7108 0.0
H1164 H 0.88604 0.72525 0.72612 0.0
H1165 H 0.76826 0.67876 0.72611 0.0
H1166 H 0.76323 0.7092 0.7806 0.0
H1167 H 0.77996 0.73328 0.76524 0.0
H1168 H 0.83114 0.72985 0.75427 0.0
C1169 C 0.86607 0.73003 0.72052 0.0
C1170 C 0.78177 0.69072 0.7322 0.0
C1171 C 0.88008 0.73899 0.71173 0.0
C1172 C 0.76403 0.68969 0.77479 0.0
C1173 C 0.77378 0.70342 0.76601 0.0
C1174 C 0.81669 0.71906 0.74818 0.0
C1175 C 0.82689 0.72649 0.72201 0.0
C1176 C 0.81216 0.71612 0.73132 0.0
C1177 C 0.77524 0.6789 0.75832 0.0
C1178 C 0.78688 0.69298 0.74904 0.0
H1179 H 0.79634 0.74475 0.7 0.0
H1180 H 0.77171 0.73007 0.71541 0.0
H1181 H 0.85217 0.7507 0.739 0.0
H1182 H 0.75006 0.59697 0.76912 0.0
H1183 H 0.76788 0.62067 0.75386 0.0
loop_
_geom_bond_atom_site_label_1
_geom_bond_atom_site_label_2
_geom_bond_distance
_geom_bond_site_symmetry_2
_ccdc_geom_bond_type
Co0 O1 2.216 . S
Co0 O2 2.091 . S
Co0 O4 2.004 . S
Co0 O10 2.021 . S
Co0 O12 2.137 . S
Co0 O13 2.244 . S
O1 Co0 2.216 . S
O1 C8 1.247 . S
O2 Co0 2.091 . S
O2 C8 1.261 . S
C3 O12 1.247 . S
C3 O13 1.272 . S
O4 Co0 2.004 . S
O4 C9 1.259 . S
Co5 O6 2.061 . S
Co5 O11 2.052 . S
Co5 O13 2.135 . S
O6 Co5 2.061 . S
O6 C9 1.235 . S
C7 O10 1.238 . S
C7 O11 1.241 . S
C8 O1 1.247 . S
C8 O2 1.261 . S
C9 O4 1.259 . S
C9 O6 1.235 . S
O10 Co0 2.021 . S
O10 C7 1.238 . S
O11 Co5 2.052 . S
O11 C7 1.241 . S
O12 Co0 2.137 . S
O12 C3 1.247 . S
O13 Co0 2.244 . S
O13 C3 1.272 . S
O13 Co5 2.135 . S
Co14 O15 2.216 . S
Co14 O16 2.091 . S
Co14 O18 2.004 . S
Co14 O24 2.021 . S
Co14 O26 2.137 . S
Co14 O27 2.244 . S
O15 Co14 2.216 . S
O15 C22 1.247 . S
O16 Co14 2.091 . S
O16 C22 1.261 . S
C17 O26 1.247 . S
C17 O27 1.272 . S
O18 Co14 2.004 . S
O18 C23 1.259 . S
Co19 O20 2.061 . S
Co19 O25 2.052 . S
Co19 O27 2.135 . S
O20 Co19 2.061 . S
O20 C23 1.235 . S
C21 O24 1.238 . S
C21 O25 1.241 . S
C22 O15 1.247 . S
C22 O16 1.261 . S
C23 O18 1.259 . S
C23 O20 1.235 . S
O24 Co14 2.021 . S
O24 C21 1.238 . S
O25 Co19 2.052 . S
O25 C21 1.241 . S
O26 Co14 2.137 . S
O26 C17 1.247 . S
O27 Co14 2.244 . S
O27 C17 1.272 . S
O27 Co19 2.135 . S
Co28 O29 2.216 . S
Co28 O30 2.091 . S
Co28 O32 2.004 . S
Co28 O38 2.021 . S
Co28 O40 2.137 . S
Co28 O41 2.244 . S
O29 Co28 2.216 . S
O29 C36 1.247 . S
O30 Co28 2.091 . S
O30 C36 1.261 . S
C31 O40 1.247 . S
C31 O41 1.272 . S
O32 Co28 2.004 . S
O32 C37 1.259 . S
Co33 O34 2.061 . S
Co33 O39 2.052 . S
Co33 O41 2.135 . S
O34 Co33 2.061 . S
O34 C37 1.235 . S
C35 O38 1.238 . S
C35 O39 1.241 . S
C36 O29 1.247 . S
C36 O30 1.261 . S
C37 O32 1.259 . S
C37 O34 1.235 . S
O38 Co28 2.021 . S
O38 C35 1.238 . S
O39 Co33 2.052 . S
O39 C35 1.241 . S
O40 Co28 2.137 . S
O40 C31 1.247 . S
O41 Co28 2.244 . S
O41 C31 1.272 . S
O41 Co33 2.135 . S
Co42 O43 2.216 . S
Co42 O44 2.091 . S
Co42 O46 2.004 . S
Co42 O52 2.021 . S
Co42 O54 2.137 . S
Co42 O55 2.244 . S
O43 Co42 2.216 . S
O43 C50 1.247 . S
O44 Co42 2.091 . S
O44 C50 1.261 . S
C45 O54 1.247 . S
C45 O55 1.272 . S
O46 Co42 2.004 . S
O46 C51 1.259 . S
Co47 O48 2.061 . S
Co47 O53 2.052 . S
Co47 O55 2.135 . S
O48 Co47 2.061 . S
O48 C51 1.235 . S
C49 O52 1.238 . S
C49 O53 1.241 . S
C50 O43 1.247 . S
C50 O44 1.261 . S
C51 O46 1.259 . S
C51 O48 1.235 . S
O52 Co42 2.021 . S
O52 C49 1.238 . S
O53 Co47 2.052 . S
O53 C49 1.241 . S
O54 Co42 2.137 . S
O54 C45 1.247 . S
O55 Co42 2.244 . S
O55 C45 1.272 . S
O55 Co47 2.135 . S
Co56 O57 2.216 . S
Co56 O58 2.091 . S
Co56 O60 2.004 . S
Co56 O66 2.021 . S
Co56 O68 2.137 . S
Co56 O69 2.244 . S
O57 Co56 2.216 . S
O57 C64 1.247 . S
O58 Co56 2.091 . S
O58 C64 1.261 . S
C59 O68 1.247 . S
C59 O69 1.272 . S
O60 Co56 2.004 . S
O60 C65 1.259 . S
Co61 O62 2.061 . S
Co61 O67 2.052 . S
Co61 O69 2.135 . S
O62 Co61 2.061 . S
O62 C65 1.235 . S
C63 O66 1.238 . S
C63 O67 1.241 . S
C64 O57 1.247 . S
C64 O58 1.261 . S
C65 O60 1.259 . S
C65 O62 1.235 . S
O66 Co56 2.021 . S
O66 C63 1.238 . S
O67 Co61 2.052 . S
O67 C63 1.241 . S
O68 Co56 2.137 . S
O68 C59 1.247 . S
O69 Co56 2.244 . S
O69 C59 1.272 . S
O69 Co61 2.135 . S
Co70 O71 2.216 . S
Co70 O72 2.091 . S
Co70 O74 2.004 . S
Co70 O80 2.021 . S
Co70 O82 2.137 . S
Co70 O83 2.244 . S
O71 Co70 2.216 . S
O71 C78 1.247 . S
O72 Co70 2.091 . S
O72 C78 1.261 . S
C73 O82 1.247 . S
C73 O83 1.272 . S
O74 Co70 2.004 . S
O74 C79 1.259 . S
Co75 O76 2.061 . S
Co75 O81 2.052 . S
Co75 O83 2.135 . S
O76 Co75 2.061 . S
O76 C79 1.235 . S
C77 O80 1.238 . S
C77 O81 1.241 . S
C78 O71 1.247 . S
C78 O72 1.261 . S
C79 O74 1.259 . S
C79 O76 1.235 . S
O80 Co70 2.021 . S
O80 C77 1.238 . S
O81 Co75 2.052 . S
O81 C77 1.241 . S
O82 Co70 2.137 . S
O82 C73 1.247 . S
O83 Co70 2.244 . S
O83 C73 1.272 . S
O83 Co75 2.135 . S
Co84 O85 2.216 . S
Co84 O86 2.091 . S
Co84 O88 2.004 . S
Co84 O94 2.021 . S
Co84 O96 2.137 . S
Co84 O97 2.244 . S
O85 Co84 2.216 . S
O85 C92 1.247 . S
O86 Co84 2.091 . S
O86 C92 1.261 . S
C87 O96 1.247 . S
C87 O97 1.272 . S
O88 Co84 2.004 . S
O88 C93 1.259 . S
Co89 O90 2.061 . S
Co89 O95 2.052 . S
Co89 O97 2.135 . S
O90 Co89 2.061 . S
O90 C93 1.235 . S
C91 O94 1.238 . S
C91 O95 1.241 . S
C92 O85 1.247 . S
C92 O86 1.261 . S
C93 O88 1.259 . S
C93 O90 1.235 . S
O94 Co84 2.021 . S
O94 C91 1.238 . S
O95 Co89 2.052 . S
O95 C91 1.241 . S
O96 Co84 2.137 . S
O96 C87 1.247 . S
O97 Co84 2.244 . S
O97 C87 1.272 . S
O97 Co89 2.135 . S
Co98 O99 2.216 . S
Co98 O100 2.091 . S
Co98 O102 2.004 . S
Co98 O108 2.021 . S
Co98 O110 2.137 . S
Co98 O111 2.244 . S
O99 Co98 2.216 . S
O99 C106 1.247 . S
O100 Co98 2.091 . S
O100 C106 1.261 . S
C101 O110 1.247 . S
C101 O111 1.272 . S
O102 Co98 2.004 . S
O102 C107 1.259 . S
Co103 O104 2.061 . S
Co103 O109 2.052 . S
Co103 O111 2.135 . S
O104 Co103 2.061 . S
O104 C107 1.235 . S
C105 O108 1.238 . S
C105 O109 1.241 . S
C106 O99 1.247 . S
C106 O100 1.261 . S
C107 O102 1.259 . S
C107 O104 1.235 . S
O108 Co98 2.021 . S
O108 C105 1.238 . S
O109 Co103 2.052 . S
O109 C105 1.241 . S
O110 Co98 2.137 . S
O110 C101 1.247 . S
O111 Co98 2.244 . S
O111 C101 1.272 . S
O111 Co103 2.135 . S
Co112 O113 2.216 . S
Co112 O114 2.091 . S
Co112 O116 2.004 . S
Co112 O122 2.021 . S
Co112 O124 2.137 . S
Co112 O125 2.244 . S
O113 Co112 2.216 . S
O113 C120 1.247 . S
O114 Co112 2.091 . S
O114 C120 1.261 . S
C115 O124 1.247 . S
C115 O125 1.272 . S
O116 Co112 2.004 . S
O116 C121 1.259 . S
Co117 O118 2.061 . S
Co117 O123 2.052 . S
Co117 O125 2.135 . S
O118 Co117 2.061 . S
O118 C121 1.235 . S
C119 O122 1.238 . S
C119 O123 1.241 . S
C120 O113 1.247 . S
C120 O114 1.261 . S
C121 O116 1.259 . S
C121 O118 1.235 . S
O122 Co112 2.021 . S
O122 C119 1.238 . S
O123 Co117 2.052 . S
O123 C119 1.241 . S
O124 Co112 2.137 . S
O124 C115 1.247 . S
O125 Co112 2.244 . S
O125 C115 1.272 . S
O125 Co117 2.135 . S
Co126 O127 2.216 . S
Co126 O128 2.091 . S
Co126 O130 2.004 . S
Co126 O136 2.021 . S
Co126 O138 2.137 . S
Co126 O139 2.244 . S
O127 Co126 2.216 . S
O127 C134 1.247 . S
O128 Co126 2.091 . S
O128 C134 1.261 . S
C129 O138 1.247 . S
C129 O139 1.272 . S
O130 Co126 2.004 . S
O130 C135 1.259 . S
Co131 O132 2.061 . S
Co131 O137 2.052 . S
Co131 O139 2.135 . S
O132 Co131 2.061 . S
O132 C135 1.235 . S
C133 O136 1.238 . S
C133 O137 1.241 . S
C134 O127 1.247 . S
C134 O128 1.261 . S
C135 O130 1.259 . S
C135 O132 1.235 . S
O136 Co126 2.021 . S
O136 C133 1.238 . S
O137 Co131 2.052 . S
O137 C133 1.241 . S
O138 Co126 2.137 . S
O138 C129 1.247 . S
O139 Co126 2.244 . S
O139 C129 1.272 . S
O139 Co131 2.135 . S
Co140 O141 2.216 . S
Co140 O142 2.091 . S
Co140 O144 2.004 . S
Co140 O150 2.021 . S
Co140 O152 2.137 . S
Co140 O153 2.244 . S
O141 Co140 2.216 . S
O141 C148 1.247 . S
O142 Co140 2.091 . S
O142 C148 1.261 . S
C143 O152 1.247 . S
C143 O153 1.272 . S
O144 Co140 2.004 . S
O144 C149 1.259 . S
Co145 O146 2.061 . S
Co145 O151 2.052 . S
Co145 O153 2.135 . S
O146 Co145 2.061 . S
O146 C149 1.235 . S
C147 O150 1.238 . S
C147 O151 1.241 . S
C148 O141 1.247 . S
C148 O142 1.261 . S
C149 O144 1.259 . S
C149 O146 1.235 . S
O150 Co140 2.021 . S
O150 C147 1.238 . S
O151 Co145 2.052 . S
O151 C147 1.241 . S
O152 Co140 2.137 . S
O152 C143 1.247 . S
O153 Co140 2.244 . S
O153 C143 1.272 . S
O153 Co145 2.135 . S
Co154 O155 2.216 . S
Co154 O156 2.091 . S
Co154 O158 2.004 . S
Co154 O164 2.021 . S
Co154 O166 2.137 . S
Co154 O167 2.244 . S
O155 Co154 2.216 . S
O155 C162 1.247 . S
O156 Co154 2.091 . S
O156 C162 1.261 . S
C157 O166 1.247 . S
C157 O167 1.272 . S
O158 Co154 2.004 . S
O158 C163 1.259 . S
Co159 O160 2.061 . S
Co159 O165 2.052 . S
Co159 O167 2.135 . S
O160 Co159 2.061 . S
O160 C163 1.235 . S
C161 O164 1.238 . S
C161 O165 1.241 . S
C162 O155 1.247 . S
C162 O156 1.261 . S
C163 O158 1.259 . S
C163 O160 1.235 . S
O164 Co154 2.021 . S
O164 C161 1.238 . S
O165 Co159 2.052 . S
O165 C161 1.241 . S
O166 Co154 2.137 . S
O166 C157 1.247 . S
O167 Co154 2.244 . S
O167 C157 1.272 . S
O167 Co159 2.135 . S
Co168 O169 2.216 . S
Co168 O170 2.091 . S
Co168 O172 2.004 . S
Co168 O178 2.021 . S
Co168 O180 2.137 . S
Co168 O181 2.244 . S
O169 Co168 2.216 . S
O169 C176 1.247 . S
O170 Co168 2.091 . S
O170 C176 1.261 . S
C171 O180 1.247 . S
C171 O181 1.272 . S
O172 Co168 2.004 . S
O172 C177 1.259 . S
Co173 O174 2.061 . S
Co173 O179 2.052 . S
Co173 O181 2.135 . S
O174 Co173 2.061 . S
O174 C177 1.235 . S
C175 O178 1.238 . S
C175 O179 1.241 . S
C176 O169 1.247 . S
C176 O170 1.261 . S
C177 O172 1.259 . S
C177 O174 1.235 . S
O178 Co168 2.021 . S
O178 C175 1.238 . S
O179 Co173 2.052 . S
O179 C175 1.241 . S
O180 Co168 2.137 . S
O180 C171 1.247 . S
O181 Co168 2.244 . S
O181 C171 1.272 . S
O181 Co173 2.135 . S
Co182 O183 2.216 . S
Co182 O184 2.091 . S
Co182 O186 2.004 . S
Co182 O192 2.021 . S
Co182 O194 2.137 . S
Co182 O195 2.244 . S
O183 Co182 2.216 . S
O183 C190 1.247 . S
O184 Co182 2.091 . S
O184 C190 1.261 . S
C185 O194 1.247 . S
C185 O195 1.272 . S
O186 Co182 2.004 . S
O186 C191 1.259 . S
Co187 O188 2.061 . S
Co187 O193 2.052 . S
Co187 O195 2.135 . S
O188 Co187 2.061 . S
O188 C191 1.235 . S
C189 O192 1.238 . S
C189 O193 1.241 . S
C190 O183 1.247 . S
C190 O184 1.261 . S
C191 O186 1.259 . S
C191 O188 1.235 . S
O192 Co182 2.021 . S
O192 C189 1.238 . S
O193 Co187 2.052 . S
O193 C189 1.241 . S
O194 Co182 2.137 . S
O194 C185 1.247 . S
O195 Co182 2.244 . S
O195 C185 1.272 . S
O195 Co187 2.135 . S
Co196 O197 2.216 . S
Co196 O198 2.091 . S
Co196 O200 2.004 . S
Co196 O206 2.021 . S
Co196 O208 2.137 . S
Co196 O209 2.244 . S
O197 Co196 2.216 . S
O197 C204 1.247 . S
O198 Co196 2.091 . S
O198 C204 1.261 . S
C199 O208 1.247 . S
C199 O209 1.272 . S
O200 Co196 2.004 . S
O200 C205 1.259 . S
Co201 O202 2.061 . S
Co201 O207 2.052 . S
Co201 O209 2.135 . S
O202 Co201 2.061 . S
O202 C205 1.235 . S
C203 O206 1.238 . S
C203 O207 1.241 . S
C204 O197 1.247 . S
C204 O198 1.261 . S
C205 O200 1.259 . S
C205 O202 1.235 . S
O206 Co196 2.021 . S
O206 C203 1.238 . S
O207 Co201 2.052 . S
O207 C203 1.241 . S
O208 Co196 2.137 . S
O208 C199 1.247 . S
O209 Co196 2.244 . S
O209 C199 1.272 . S
O209 Co201 2.135 . S
Co210 O211 2.216 . S
Co210 O212 2.091 . S
Co210 O214 2.004 . S
Co210 O220 2.021 . S
Co210 O222 2.137 . S
Co210 O223 2.244 . S
O211 Co210 2.216 . S
O211 C218 1.247 . S
O212 Co210 2.091 . S
O212 C218 1.261 . S
C213 O222 1.247 . S
C213 O223 1.272 . S
O214 Co210 2.004 . S
O214 C219 1.259 . S
Co215 O216 2.061 . S
Co215 O221 2.052 . S
Co215 O223 2.135 . S
O216 Co215 2.061 . S
O216 C219 1.235 . S
C217 O220 1.238 . S
C217 O221 1.241 . S
C218 O211 1.247 . S
C218 O212 1.261 . S
C219 O214 1.259 . S
C219 O216 1.235 . S
O220 Co210 2.021 . S
O220 C217 1.238 . S
O221 Co215 2.052 . S
O221 C217 1.241 . S
O222 Co210 2.137 . S
O222 C213 1.247 . S
O223 Co210 2.244 . S
O223 C213 1.272 . S
O223 Co215 2.135 . S
C224 C225 1.349 . S
C224 C226 1.327 . S
C224 H249 0.950 . S
C225 C224 1.349 . S
C225 C241 1.349 . S
C226 C224 1.327 . S
C226 C245 1.429 . S
C226 H250 0.950 . S
C227 C244 1.574 1_655 S
C227 C246 1.368 1_545 S
C227 H251 0.949 . S
H228 C232 0.949 . S
C229 C230 1.349 . S
C229 C231 1.327 . S
C229 H252 0.950 . S
C230 C229 1.349 . S
C230 C242 1.349 . S
C231 C229 1.327 . S
C231 C247 1.429 . S
C231 H253 0.950 . S
C232 H228 0.949 . S
C232 C240 1.574 1_455 S
C232 C248 1.368 1_565 S
H233 C241 0.950 . S
H234 C239 0.950 . S
H235 C240 0.949 . S
H236 C242 0.950 . S
H237 C243 0.950 . S
H238 C244 0.949 . S
C239 H234 0.950 . S
C239 C241 1.327 . S
C239 C245 1.429 . S
C240 C232 1.574 1_655 S
C240 H235 0.949 . S
C240 C246 1.368 . S
C241 C225 1.349 . S
C241 H233 0.950 . S
C241 C239 1.327 . S
C242 C230 1.349 . S
C242 H236 0.950 . S
C242 C243 1.327 . S
C243 H237 0.950 . S
C243 C242 1.327 . S
C243 C247 1.429 . S
C244 C227 1.574 1_455 S
C244 H238 0.949 . S
C244 C248 1.368 . S
C245 C226 1.429 . S
C245 C239 1.429 . S
C245 C246 1.523 . S
C246 C227 1.368 1_565 S
C246 C240 1.368 . S
C246 C245 1.523 . S
C247 C231 1.429 . S
C247 C243 1.429 . S
C247 C248 1.523 . S
C248 C232 1.368 1_545 S
C248 C244 1.368 . S
C248 C247 1.523 . S
H249 C224 0.950 . S
H250 C226 0.950 . S
H251 C227 0.949 . S
H252 C229 0.950 . S
H253 C231 0.950 . S
C254 C255 1.349 . S
C254 C256 1.327 . S
C254 H279 0.950 . S
C255 C254 1.349 . S
C255 C271 1.349 . S
C256 C254 1.327 . S
C256 C275 1.429 . S
C256 H280 0.950 . S
C257 C274 1.574 . S
C257 C276 1.368 . S
C257 H281 0.949 . S
H258 C262 0.949 . S
C259 C260 1.349 . S
C259 C261 1.327 . S
C259 H282 0.950 . S
C260 C259 1.349 . S
C260 C272 1.349 . S
C261 C259 1.327 . S
C261 C277 1.429 . S
C261 H283 0.950 . S
C262 H258 0.949 . S
C262 C270 1.574 . S
C262 C278 1.368 . S
H263 C271 0.950 . S
H264 C269 0.950 . S
H265 C270 0.949 . S
H266 C272 0.950 . S
H267 C273 0.950 . S
H268 C274 0.949 . S
C269 H264 0.950 . S
C269 C271 1.327 . S
C269 C275 1.429 . S
C270 C262 1.574 . S
C270 H265 0.949 . S
C270 C276 1.368 1_455 S
C271 C255 1.349 . S
C271 H263 0.950 . S
C271 C269 1.327 . S
C272 C260 1.349 . S
C272 H266 0.950 . S
C272 C273 1.327 . S
C273 H267 0.950 . S
C273 C272 1.327 . S
C273 C277 1.429 . S
C274 C257 1.574 . S
C274 H268 0.949 . S
C274 C278 1.368 1_655 S
C275 C256 1.429 . S
C275 C269 1.429 . S
C275 C276 1.523 . S
C276 C257 1.368 . S
C276 C270 1.368 1_655 S
C276 C275 1.523 . S
C277 C261 1.429 . S
C277 C273 1.429 . S
C277 C278 1.523 . S
C278 C262 1.368 . S
C278 C274 1.368 1_455 S
C278 C277 1.523 . S
H279 C254 0.950 . S
H280 C256 0.950 . S
H281 C257 0.949 . S
H282 C259 0.950 . S
H283 C261 0.950 . S
C284 C285 1.349 . S
C284 C286 1.327 . S
C284 H309 0.950 . S
C285 C284 1.349 . S
C285 C301 1.349 . S
C286 C284 1.327 . S
C286 C305 1.429 . S
C286 H310 0.950 . S
C287 C304 1.574 . S
C287 C306 1.368 . S
C287 H311 0.949 . S
H288 C292 0.949 . S
C289 C290 1.349 . S
C289 C291 1.327 . S
C289 H312 0.950 . S
C290 C289 1.349 . S
C290 C302 1.349 . S
C291 C289 1.327 . S
C291 C307 1.429 . S
C291 H313 0.950 . S
C292 H288 0.949 . S
C292 C300 1.574 . S
C292 C308 1.368 . S
H293 C301 0.950 . S
H294 C299 0.950 . S
H295 C300 0.949 . S
H296 C302 0.950 . S
H297 C303 0.950 . S
H298 C304 0.949 . S
C299 H294 0.950 . S
C299 C301 1.327 . S
C299 C305 1.429 . S
C300 C292 1.574 . S
C300 H295 0.949 . S
C300 C306 1.368 . S
C301 C285 1.349 . S
C301 H293 0.950 . S
C301 C299 1.327 . S
C302 C290 1.349 . S
C302 H296 0.950 . S
C302 C303 1.327 . S
C303 H297 0.950 . S
C303 C302 1.327 . S
C303 C307 1.429 . S
C304 C287 1.574 . S
C304 H298 0.949 . S
C304 C308 1.368 . S
C305 C286 1.429 . S
C305 C299 1.429 . S
C305 C306 1.523 . S
C306 C287 1.368 . S
C306 C300 1.368 . S
C306 C305 1.523 . S
C307 C291 1.429 . S
C307 C303 1.429 . S
C307 C308 1.523 . S
C308 C292 1.368 . S
C308 C304 1.368 . S
C308 C307 1.523 . S
H309 C284 0.950 . S
H310 C286 0.950 . S
H311 C287 0.949 . S
H312 C289 0.950 . S
H313 C291 0.950 . S
C314 C315 1.349 . S
C314 C316 1.327 . S
C314 H339 0.950 . S
C315 C314 1.349 . S
C315 C331 1.349 . S
C316 C314 1.327 . S
C316 C335 1.429 . S
C316 H340 0.950 . S
C317 C334 1.574 1_545 S
C317 C336 1.368 . S
C317 H341 0.949 . S
H318 C322 0.949 . S
C319 C320 1.349 . S
C319 C321 1.327 . S
C319 H342 0.950 . S
C320 C319 1.349 . S
C320 C332 1.349 . S
C321 C319 1.327 . S
C321 C337 1.429 . S
C321 H343 0.950 . S
C322 H318 0.949 . S
C322 C330 1.574 1_565 S
C322 C338 1.368 . S
H323 C331 0.950 . S
H324 C329 0.950 . S
H325 C330 0.949 . S
H326 C332 0.950 . S
H327 C333 0.950 . S
H328 C334 0.949 . S
C329 H324 0.950 . S
C329 C331 1.327 . S
C329 C335 1.429 . S
C330 C322 1.574 1_545 S
C330 H325 0.949 . S
C330 C336 1.368 . S
C331 C315 1.349 . S
C331 H323 0.950 . S
C331 C329 1.327 . S
C332 C320 1.349 . S
C332 H326 0.950 . S
C332 C333 1.327 . S
C333 H327 0.950 . S
C333 C332 1.327 . S
C333 C337 1.429 . S
C334 C317 1.574 1_565 S
C334 H328 0.949 . S
C334 C338 1.368 . S
C335 C316 1.429 . S
C335 C329 1.429 . S
C335 C336 1.523 . S
C336 C317 1.368 . S
C336 C330 1.368 . S
C336 C335 1.523 . S
C337 C321 1.429 . S
C337 C333 1.429 . S
C337 C338 1.523 . S
C338 C322 1.368 . S
C338 C334 1.368 . S
C338 C337 1.523 . S
H339 C314 0.950 . S
H340 C316 0.950 . S
H341 C317 0.949 . S
H342 C319 0.950 . S
H343 C321 0.950 . S
C344 C345 1.349 . S
C344 C346 1.327 . S
C344 H369 0.950 . S
C345 C344 1.349 . S
C345 C361 1.349 . S
C346 C344 1.327 . S
C346 C365 1.429 . S
C346 H370 0.950 . S
C347 C364 1.574 1_455 S
C347 C366 1.368 . S
C347 H371 0.949 . S
H348 C352 0.949 . S
C349 C350 1.349 . S
C349 C351 1.327 . S
C349 H372 0.950 . S
C350 C349 1.349 . S
C350 C362 1.349 . S
C351 C349 1.327 . S
C351 C367 1.429 . S
C351 H373 0.950 . S
C352 H348 0.949 . S
C352 C360 1.574 1_655 S
C352 C368 1.368 . S
H353 C361 0.950 . S
H354 C359 0.950 . S
H355 C360 0.949 . S
H356 C362 0.950 . S
H357 C363 0.950 . S
H358 C364 0.949 . S
C359 H354 0.950 . S
C359 C361 1.327 . S
C359 C365 1.429 . S
C360 C352 1.574 1_455 S
C360 H355 0.949 . S
C360 C366 1.368 . S
C361 C345 1.349 . S
C361 H353 0.950 . S
C361 C359 1.327 . S
C362 C350 1.349 . S
C362 H356 0.950 . S
C362 C363 1.327 . S
C363 H357 0.950 . S
C363 C362 1.327 . S
C363 C367 1.429 . S
C364 C347 1.574 1_655 S
C364 H358 0.949 . S
C364 C368 1.368 . S
C365 C346 1.429 . S
C365 C359 1.429 . S
C365 C366 1.523 . S
C366 C347 1.368 . S
C366 C360 1.368 . S
C366 C365 1.523 . S
C367 C351 1.429 . S
C367 C363 1.429 . S
C367 C368 1.523 . S
C368 C352 1.368 . S
C368 C364 1.368 . S
C368 C367 1.523 . S
H369 C344 0.950 . S
H370 C346 0.950 . S
H371 C347 0.949 . S
H372 C349 0.950 . S
H373 C351 0.950 . S
C374 C375 1.349 . S
C374 C376 1.327 . S
C374 H399 0.950 . S
C375 C374 1.349 . S
C375 C391 1.349 . S
C376 C374 1.327 . S
C376 C395 1.429 . S
C376 H400 0.950 . S
C377 C394 1.574 . S
C377 C396 1.368 . S
C377 H401 0.949 . S
H378 C382 0.949 . S
C379 C380 1.349 . S
C379 C381 1.327 . S
C379 H402 0.950 . S
C380 C379 1.349 . S
C380 C392 1.349 . S
C381 C379 1.327 . S
C381 C397 1.429 . S
C381 H403 0.950 . S
C382 H378 0.949 . S
C382 C390 1.574 . S
C382 C398 1.368 . S
H383 C391 0.950 . S
H384 C389 0.950 . S
H385 C390 0.949 . S
H386 C392 0.950 . S
H387 C393 0.950 . S
H388 C394 0.949 . S
C389 H384 0.950 . S
C389 C391 1.327 . S
C389 C395 1.429 . S
C390 C382 1.574 . S
C390 H385 0.949 . S
C390 C396 1.368 . S
C391 C375 1.349 . S
C391 H383 0.950 . S
C391 C389 1.327 . S
C392 C380 1.349 . S
C392 H386 0.950 . S
C392 C393 1.327 . S
C393 H387 0.950 . S
C393 C392 1.327 . S
C393 C397 1.429 . S
C394 C377 1.574 . S
C394 H388 0.949 . S
C394 C398 1.368 . S
C395 C376 1.429 . S
C395 C389 1.429 . S
C395 C396 1.523 . S
C396 C377 1.368 . S
C396 C390 1.368 . S
C396 C395 1.523 . S
C397 C381 1.429 . S
C397 C393 1.429 . S
C397 C398 1.523 . S
C398 C382 1.368 . S
C398 C394 1.368 . S
C398 C397 1.523 . S
H399 C374 0.950 . S
H400 C376 0.950 . S
H401 C377 0.949 . S
H402 C379 0.950 . S
H403 C381 0.950 . S
C404 C405 1.349 . S
C404 C406 1.327 . S
C404 H429 0.950 . S
C405 C404 1.349 . S
C405 C421 1.349 . S
C406 C404 1.327 . S
C406 C425 1.429 . S
C406 H430 0.950 . S
C407 C424 1.574 . S
C407 C426 1.368 1_565 S
C407 H431 0.949 . S
H408 C412 0.949 . S
C409 C410 1.349 . S
C409 C411 1.327 . S
C409 H432 0.950 . S
C410 C409 1.349 . S
C410 C422 1.349 . S
C411 C409 1.327 . S
C411 C427 1.429 . S
C411 H433 0.950 . S
C412 H408 0.949 . S
C412 C420 1.574 . S
C412 C428 1.368 1_545 S
H413 C421 0.950 . S
H414 C419 0.950 . S
H415 C420 0.949 . S
H416 C422 0.950 . S
H417 C423 0.950 . S
H418 C424 0.949 . S
C419 H414 0.950 . S
C419 C421 1.327 . S
C419 C425 1.429 . S
C420 C412 1.574 . S
C420 H415 0.949 . S
C420 C426 1.368 . S
C421 C405 1.349 . S
C421 H413 0.950 . S
C421 C419 1.327 . S
C422 C410 1.349 . S
C422 H416 0.950 . S
C422 C423 1.327 . S
C423 H417 0.950 . S
C423 C422 1.327 . S
C423 C427 1.429 . S
C424 C407 1.574 . S
C424 H418 0.949 . S
C424 C428 1.368 . S
C425 C406 1.429 . S
C425 C419 1.429 . S
C425 C426 1.523 . S
C426 C407 1.368 1_545 S
C426 C420 1.368 . S
C426 C425 1.523 . S
C427 C411 1.429 . S
C427 C423 1.429 . S
C427 C428 1.523 . S
C428 C412 1.368 1_565 S
C428 C424 1.368 . S
C428 C427 1.523 . S
H429 C404 0.950 . S
H430 C406 0.950 . S
H431 C407 0.949 . S
H432 C409 0.950 . S
H433 C411 0.950 . S
C434 C435 1.349 . S
C434 C436 1.327 . S
C434 H459 0.950 . S
C435 C434 1.349 . S
C435 C451 1.349 . S
C436 C434 1.327 . S
C436 C455 1.429 . S
C436 H460 0.950 . S
C437 C454 1.574 1_545 S
C437 C456 1.368 1_655 S
C437 H461 0.949 . S
H438 C442 0.949 . S
C439 C440 1.349 . S
C439 C441 1.327 . S
C439 H462 0.950 . S
C440 C439 1.349 . S
C440 C452 1.349 . S
C441 C439 1.327 . S
C441 C457 1.429 . S
C441 H463 0.950 . S
C442 H438 0.949 . S
C442 C450 1.574 1_565 S
C442 C458 1.368 1_455 S
H443 C451 0.950 . S
H444 C449 0.950 . S
H445 C450 0.949 . S
H446 C452 0.950 . S
H447 C453 0.950 . S
H448 C454 0.949 . S
C449 H444 0.950 . S
C449 C451 1.327 . S
C449 C455 1.429 . S
C450 C442 1.574 1_545 S
C450 H445 0.949 . S
C450 C456 1.368 . S
C451 C435 1.349 . S
C451 H443 0.950 . S
C451 C449 1.327 . S
C452 C440 1.349 . S
C452 H446 0.950 . S
C452 C453 1.327 . S
C453 H447 0.950 . S
C453 C452 1.327 . S
C453 C457 1.429 . S
C454 C437 1.574 1_565 S
C454 H448 0.949 . S
C454 C458 1.368 . S
C455 C436 1.429 . S
C455 C449 1.429 . S
C455 C456 1.523 . S
C456 C437 1.368 1_455 S
C456 C450 1.368 . S
C456 C455 1.523 . S
C457 C441 1.429 . S
C457 C453 1.429 . S
C457 C458 1.523 . S
C458 C442 1.368 1_655 S
C458 C454 1.368 . S
C458 C457 1.523 . S
H459 C434 0.950 . S
H460 C436 0.950 . S
H461 C437 0.949 . S
H462 C439 0.950 . S
H463 C441 0.950 . S
C464 C465 1.349 . S
C464 C466 1.327 . S
C464 H489 0.950 . S
C465 C464 1.349 . S
C465 C481 1.349 . S
C466 C464 1.327 . S
C466 C485 1.429 . S
C466 H490 0.950 . S
C467 C484 1.574 . S
C467 C486 1.368 . S
C467 H491 0.949 . S
H468 C472 0.949 . S
C469 C470 1.349 . S
C469 C471 1.327 . S
C469 H492 0.950 . S
C470 C469 1.349 . S
C470 C482 1.349 . S
C471 C469 1.327 . S
C471 C487 1.429 . S
C471 H493 0.950 . S
C472 H468 0.949 . S
C472 C480 1.574 . S
C472 C488 1.368 . S
H473 C481 0.950 . S
H474 C479 0.950 . S
H475 C480 0.949 . S
H476 C482 0.950 . S
H477 C483 0.950 . S
H478 C484 0.949 . S
C479 H474 0.950 . S
C479 C481 1.327 . S
C479 C485 1.429 . S
C480 C472 1.574 . S
C480 H475 0.949 . S
C480 C486 1.368 1_545 S
C481 C465 1.349 . S
C481 H473 0.950 . S
C481 C479 1.327 . S
C482 C470 1.349 . S
C482 H476 0.950 . S
C482 C483 1.327 . S
C483 H477 0.950 . S
C483 C482 1.327 . S
C483 C487 1.429 . S
C484 C467 1.574 . S
C484 H478 0.949 . S
C484 C488 1.368 1_565 S
C485 C466 1.429 . S
C485 C479 1.429 . S
C485 C486 1.523 . S
C486 C467 1.368 . S
C486 C480 1.368 1_565 S
C486 C485 1.523 . S
C487 C471 1.429 . S
C487 C483 1.429 . S
C487 C488 1.523 . S
C488 C472 1.368 . S
C488 C484 1.368 1_545 S
C488 C487 1.523 . S
H489 C464 0.950 . S
H490 C466 0.950 . S
H491 C467 0.949 . S
H492 C469 0.950 . S
H493 C471 0.950 . S
C494 C495 1.349 . S
C494 C496 1.327 . S
C494 H519 0.950 . S
C495 C494 1.349 . S
C495 C511 1.349 . S
C496 C494 1.327 . S
C496 C515 1.429 . S
C496 H520 0.950 . S
C497 C514 1.574 1_565 S
C497 C516 1.368 . S
C497 H521 0.949 . S
H498 C502 0.949 . S
C499 C500 1.349 . S
C499 C501 1.327 . S
C499 H522 0.950 . S
C500 C499 1.349 . S
C500 C512 1.349 . S
C501 C499 1.327 . S
C501 C517 1.429 . S
C501 H523 0.950 . S
C502 H498 0.949 . S
C502 C510 1.574 1_545 S
C502 C518 1.368 . S
H503 C511 0.950 . S
H504 C509 0.950 . S
H505 C510 0.949 . S
H506 C512 0.950 . S
H507 C513 0.950 . S
H508 C514 0.949 . S
C509 H504 0.950 . S
C509 C511 1.327 . S
C509 C515 1.429 . S
C510 C502 1.574 1_565 S
C510 H505 0.949 . S
C510 C516 1.368 1_455 S
C511 C495 1.349 . S
C511 H503 0.950 . S
C511 C509 1.327 . S
C512 C500 1.349 . S
C512 H506 0.950 . S
C512 C513 1.327 . S
C513 H507 0.950 . S
C513 C512 1.327 . S
C513 C517 1.429 . S
C514 C497 1.574 1_545 S
C514 H508 0.949 . S
C514 C518 1.368 1_655 S
C515 C496 1.429 . S
C515 C509 1.429 . S
C515 C516 1.523 . S
C516 C497 1.368 . S
C516 C510 1.368 1_655 S
C516 C515 1.523 . S
C517 C501 1.429 . S
C517 C513 1.429 . S
C517 C518 1.523 . S
C518 C502 1.368 . S
C518 C514 1.368 1_455 S
C518 C517 1.523 . S
H519 C494 0.950 . S
H520 C496 0.950 . S
H521 C497 0.949 . S
H522 C499 0.950 . S
H523 C501 0.950 . S
C524 C525 1.349 . S
C524 C526 1.327 . S
C524 H549 0.950 . S
C525 C524 1.349 . S
C525 C541 1.349 . S
C526 C524 1.327 . S
C526 C545 1.429 . S
C526 H550 0.950 . S
C527 C544 1.574 1_455 S
C527 C546 1.368 . S
C527 H551 0.949 . S
H528 C532 0.949 . S
C529 C530 1.349 . S
C529 C531 1.327 . S
C529 H552 0.950 . S
C530 C529 1.349 . S
C530 C542 1.349 . S
C531 C529 1.327 . S
C531 C547 1.429 . S
C531 H553 0.950 . S
C532 H528 0.949 . S
C532 C540 1.574 1_655 S
C532 C548 1.368 . S
H533 C541 0.950 . S
H534 C539 0.950 . S
H535 C540 0.949 . S
H536 C542 0.950 . S
H537 C543 0.950 . S
H538 C544 0.949 . S
C539 H534 0.950 . S
C539 C541 1.327 . S
C539 C545 1.429 . S
C540 C532 1.574 1_455 S
C540 H535 0.949 . S
C540 C546 1.368 . S
C541 C525 1.349 . S
C541 H533 0.950 . S
C541 C539 1.327 . S
C542 C530 1.349 . S
C542 H536 0.950 . S
C542 C543 1.327 . S
C543 H537 0.950 . S
C543 C542 1.327 . S
C543 C547 1.429 . S
C544 C527 1.574 1_655 S
C544 H538 0.949 . S
C544 C548 1.368 . S
C545 C526 1.429 . S
C545 C539 1.429 . S
C545 C546 1.523 . S
C546 C527 1.368 . S
C546 C540 1.368 . S
C546 C545 1.523 . S
C547 C531 1.429 . S
C547 C543 1.429 . S
C547 C548 1.523 . S
C548 C532 1.368 . S
C548 C544 1.368 . S
C548 C547 1.523 . S
H549 C524 0.950 . S
H550 C526 0.950 . S
H551 C527 0.949 . S
H552 C529 0.950 . S
H553 C531 0.950 . S
C554 C555 1.349 . S
C554 C556 1.327 . S
C554 H579 0.950 . S
C555 C554 1.349 . S
C555 C571 1.349 . S
C556 C554 1.327 . S
C556 C575 1.429 . S
C556 H580 0.950 . S
C557 C574 1.574 . S
C557 C576 1.368 . S
C557 H581 0.949 . S
H558 C562 0.949 . S
C559 C560 1.349 . S
C559 C561 1.327 . S
C559 H582 0.950 . S
C560 C559 1.349 . S
C560 C572 1.349 . S
C561 C559 1.327 . S
C561 C577 1.429 . S
C561 H583 0.950 . S
C562 H558 0.949 . S
C562 C570 1.574 . S
C562 C578 1.368 . S
H563 C571 0.950 . S
H564 C569 0.950 . S
H565 C570 0.949 . S
H566 C572 0.950 . S
H567 C573 0.950 . S
H568 C574 0.949 . S
C569 H564 0.950 . S
C569 C571 1.327 . S
C569 C575 1.429 . S
C570 C562 1.574 . S
C570 H565 0.949 . S
C570 C576 1.368 . S
C571 C555 1.349 . S
C571 H563 0.950 . S
C571 C569 1.327 . S
C572 C560 1.349 . S
C572 H566 0.950 . S
C572 C573 1.327 . S
C573 H567 0.950 . S
C573 C572 1.327 . S
C573 C577 1.429 . S
C574 C557 1.574 . S
C574 H568 0.949 . S
C574 C578 1.368 . S
C575 C556 1.429 . S
C575 C569 1.429 . S
C575 C576 1.523 . S
C576 C557 1.368 . S
C576 C570 1.368 . S
C576 C575 1.523 . S
C577 C561 1.429 . S
C577 C573 1.429 . S
C577 C578 1.523 . S
C578 C562 1.368 . S
C578 C574 1.368 . S
C578 C577 1.523 . S
H579 C554 0.950 . S
H580 C556 0.950 . S
H581 C557 0.949 . S
H582 C559 0.950 . S
H583 C561 0.950 . S
C584 C585 1.349 . S
C584 C586 1.327 . S
C584 H609 0.950 . S
C585 C584 1.349 . S
C585 C601 1.349 . S
C586 C584 1.327 . S
C586 C605 1.429 . S
C586 H610 0.950 . S
C587 C604 1.574 . S
C587 C606 1.368 . S
C587 H611 0.949 . S
H588 C592 0.949 . S
C589 C590 1.349 . S
C589 C591 1.327 . S
C589 H612 0.950 . S
C590 C589 1.349 . S
C590 C602 1.349 . S
C591 C589 1.327 . S
C591 C607 1.429 . S
C591 H613 0.950 . S
C592 H588 0.949 . S
C592 C600 1.574 . S
C592 C608 1.368 . S
H593 C601 0.950 . S
H594 C599 0.950 . S
H595 C600 0.949 . S
H596 C602 0.950 . S
H597 C603 0.950 . S
H598 C604 0.949 . S
C599 H594 0.950 . S
C599 C601 1.327 . S
C599 C605 1.429 . S
C600 C592 1.574 . S
C600 H595 0.949 . S
C600 C606 1.368 . S
C601 C585 1.349 . S
C601 H593 0.950 . S
C601 C599 1.327 . S
C602 C590 1.349 . S
C602 H596 0.950 . S
C602 C603 1.327 . S
C603 H597 0.950 . S
C603 C602 1.327 . S
C603 C607 1.429 . S
C604 C587 1.574 . S
C604 H598 0.949 . S
C604 C608 1.368 . S
C605 C586 1.429 . S
C605 C599 1.429 . S
C605 C606 1.523 . S
C606 C587 1.368 . S
C606 C600 1.368 . S
C606 C605 1.523 . S
C607 C591 1.429 . S
C607 C603 1.429 . S
C607 C608 1.523 . S
C608 C592 1.368 . S
C608 C604 1.368 . S
C608 C607 1.523 . S
H609 C584 0.950 . S
H610 C586 0.950 . S
H611 C587 0.949 . S
H612 C589 0.950 . S
H613 C591 0.950 . S
C614 C615 1.349 . S
C614 C616 1.327 . S
C614 H639 0.950 . S
C615 C614 1.349 . S
C615 C631 1.349 . S
C616 C614 1.327 . S
C616 C635 1.429 . S
C616 H640 0.950 . S
C617 C634 1.574 1_565 S
C617 C636 1.368 . S
C617 H641 0.949 . S
H618 C622 0.949 . S
C619 C620 1.349 . S
C619 C621 1.327 . S
C619 H642 0.950 . S
C620 C619 1.349 . S
C620 C632 1.349 . S
C621 C619 1.327 . S
C621 C637 1.429 . S
C621 H643 0.950 . S
C622 H618 0.949 . S
C622 C630 1.574 1_545 S
C622 C638 1.368 . S
H623 C631 0.950 . S
H624 C629 0.950 . S
H625 C630 0.949 . S
H626 C632 0.950 . S
H627 C633 0.950 . S
H628 C634 0.949 . S
C629 H624 0.950 . S
C629 C631 1.327 . S
C629 C635 1.429 . S
C630 C622 1.574 1_565 S
C630 H625 0.949 . S
C630 C636 1.368 . S
C631 C615 1.349 . S
C631 H623 0.950 . S
C631 C629 1.327 . S
C632 C620 1.349 . S
C632 H626 0.950 . S
C632 C633 1.327 . S
C633 H627 0.950 . S
C633 C632 1.327 . S
C633 C637 1.429 . S
C634 C617 1.574 1_545 S
C634 H628 0.949 . S
C634 C638 1.368 . S
C635 C616 1.429 . S
C635 C629 1.429 . S
C635 C636 1.523 . S
C636 C617 1.368 . S
C636 C630 1.368 . S
C636 C635 1.523 . S
C637 C621 1.429 . S
C637 C633 1.429 . S
C637 C638 1.523 . S
C638 C622 1.368 . S
C638 C634 1.368 . S
C638 C637 1.523 . S
H639 C614 0.950 . S
H640 C616 0.950 . S
H641 C617 0.949 . S
H642 C619 0.950 . S
H643 C621 0.950 . S
C644 C645 1.349 . S
C644 C646 1.327 . S
C644 H669 0.950 . S
C645 C644 1.349 . S
C645 C661 1.349 . S
C646 C644 1.327 . S
C646 C665 1.429 . S
C646 H670 0.950 . S
C647 C664 1.574 1_655 S
C647 C666 1.368 . S
C647 H671 0.949 . S
H648 C652 0.949 . S
C649 C650 1.349 . S
C649 C651 1.327 . S
C649 H672 0.950 . S
C650 C649 1.349 . S
C650 C662 1.349 . S
C651 C649 1.327 . S
C651 C667 1.429 . S
C651 H673 0.950 . S
C652 H648 0.949 . S
C652 C660 1.574 1_455 S
C652 C668 1.368 . S
H653 C661 0.950 . S
H654 C659 0.950 . S
H655 C660 0.949 . S
H656 C662 0.950 . S
H657 C663 0.950 . S
H658 C664 0.949 . S
C659 H654 0.950 . S
C659 C661 1.327 . S
C659 C665 1.429 . S
C660 C652 1.574 1_655 S
C660 H655 0.949 . S
C660 C666 1.368 1_545 S
C661 C645 1.349 . S
C661 H653 0.950 . S
C661 C659 1.327 . S
C662 C650 1.349 . S
C662 H656 0.950 . S
C662 C663 1.327 . S
C663 H657 0.950 . S
C663 C662 1.327 . S
C663 C667 1.429 . S
C664 C647 1.574 1_455 S
C664 H658 0.949 . S
C664 C668 1.368 1_565 S
C665 C646 1.429 . S
C665 C659 1.429 . S
C665 C666 1.523 . S
C666 C647 1.368 . S
C666 C660 1.368 1_565 S
C666 C665 1.523 . S
C667 C651 1.429 . S
C667 C663 1.429 . S
C667 C668 1.523 . S
C668 C652 1.368 . S
C668 C664 1.368 1_545 S
C668 C667 1.523 . S
H669 C644 0.950 . S
H670 C646 0.950 . S
H671 C647 0.949 . S
H672 C649 0.950 . S
H673 C651 0.950 . S
C674 C675 1.349 . S
C674 C676 1.327 . S
C674 H699 0.950 . S
C675 C674 1.349 . S
C675 C691 1.349 . S
C676 C674 1.327 . S
C676 C695 1.429 . S
C676 H700 0.950 . S
C677 C694 1.574 . S
C677 C696 1.368 . S
C677 H701 0.949 . S
H678 C682 0.949 . S
C679 C680 1.349 . S
C679 C681 1.327 . S
C679 H702 0.950 . S
C680 C679 1.349 . S
C680 C692 1.349 . S
C681 C679 1.327 . S
C681 C697 1.429 . S
C681 H703 0.950 . S
C682 H678 0.949 . S
C682 C690 1.574 . S
C682 C698 1.368 . S
H683 C691 0.950 . S
H684 C689 0.950 . S
H685 C690 0.949 . S
H686 C692 0.950 . S
H687 C693 0.950 . S
H688 C694 0.949 . S
C689 H684 0.950 . S
C689 C691 1.327 . S
C689 C695 1.429 . S
C690 C682 1.574 . S
C690 H685 0.949 . S
C690 C696 1.368 1_655 S
C691 C675 1.349 . S
C691 H683 0.950 . S
C691 C689 1.327 . S
C692 C680 1.349 . S
C692 H686 0.950 . S
C692 C693 1.327 . S
C693 H687 0.950 . S
C693 C692 1.327 . S
C693 C697 1.429 . S
C694 C677 1.574 . S
C694 H688 0.949 . S
C694 C698 1.368 1_455 S
C695 C676 1.429 . S
C695 C689 1.429 . S
C695 C696 1.523 . S
C696 C677 1.368 . S
C696 C690 1.368 1_455 S
C696 C695 1.523 . S
C697 C681 1.429 . S
C697 C693 1.429 . S
C697 C698 1.523 . S
C698 C682 1.368 . S
C698 C694 1.368 1_655 S
C698 C697 1.523 . S
H699 C674 0.950 . S
H700 C676 0.950 . S
H701 C677 0.949 . S
H702 C679 0.950 . S
H703 C681 0.950 . S
C704 C705 1.349 . S
C704 C706 1.327 . S
C704 H729 0.950 . S
C705 C704 1.349 . S
C705 C721 1.349 . S
C706 C704 1.327 . S
C706 C725 1.429 . S
C706 H730 0.950 . S
C707 C724 1.574 . S
C707 C726 1.368 . S
C707 H731 0.949 . S
H708 C712 0.949 . S
C709 C710 1.349 . S
C709 C711 1.327 . S
C709 H732 0.950 . S
C710 C709 1.349 . S
C710 C722 1.349 . S
C711 C709 1.327 . S
C711 C727 1.429 . S
C711 H733 0.950 . S
C712 H708 0.949 . S
C712 C720 1.574 . S
C712 C728 1.368 . S
H713 C721 0.950 . S
H714 C719 0.950 . S
H715 C720 0.949 . S
H716 C722 0.950 . S
H717 C723 0.950 . S
H718 C724 0.949 . S
C719 H714 0.950 . S
C719 C721 1.327 . S
C719 C725 1.429 . S
C720 C712 1.574 . S
C720 H715 0.949 . S
C720 C726 1.368 . S
C721 C705 1.349 . S
C721 H713 0.950 . S
C721 C719 1.327 . S
C722 C710 1.349 . S
C722 H716 0.950 . S
C722 C723 1.327 . S
C723 H717 0.950 . S
C723 C722 1.327 . S
C723 C727 1.429 . S
C724 C707 1.574 . S
C724 H718 0.949 . S
C724 C728 1.368 . S
C725 C706 1.429 . S
C725 C719 1.429 . S
C725 C726 1.523 . S
C726 C707 1.368 . S
C726 C720 1.368 . S
C726 C725 1.523 . S
C727 C711 1.429 . S
C727 C723 1.429 . S
C727 C728 1.523 . S
C728 C712 1.368 . S
C728 C724 1.368 . S
C728 C727 1.523 . S
H729 C704 0.950 . S
H730 C706 0.950 . S
H731 C707 0.949 . S
H732 C709 0.950 . S
H733 C711 0.950 . S
C734 C735 1.349 . S
C734 C736 1.327 . S
C734 H759 0.950 . S
C735 C734 1.349 . S
C735 C751 1.349 . S
C736 C734 1.327 . S
C736 C755 1.429 . S
C736 H760 0.950 . S
C737 C754 1.574 . S
C737 C756 1.368 . S
C737 H761 0.949 . S
H738 C742 0.949 . S
C739 C740 1.349 . S
C739 C741 1.327 . S
C739 H762 0.950 . S
C740 C739 1.349 . S
C740 C752 1.349 . S
C741 C739 1.327 . S
C741 C757 1.429 . S
C741 H763 0.950 . S
C742 H738 0.949 . S
C742 C750 1.574 . S
C742 C758 1.368 . S
H743 C751 0.950 . S
H744 C749 0.950 . S
H745 C750 0.949 . S
H746 C752 0.950 . S
H747 C753 0.950 . S
H748 C754 0.949 . S
C749 H744 0.950 . S
C749 C751 1.327 . S
C749 C755 1.429 . S
C750 C742 1.574 . S
C750 H745 0.949 . S
C750 C756 1.368 . S
C751 C735 1.349 . S
C751 H743 0.950 . S
C751 C749 1.327 . S
C752 C740 1.349 . S
C752 H746 0.950 . S
C752 C753 1.327 . S
C753 H747 0.950 . S
C753 C752 1.327 . S
C753 C757 1.429 . S
C754 C737 1.574 . S
C754 H748 0.949 . S
C754 C758 1.368 . S
C755 C736 1.429 . S
C755 C749 1.429 . S
C755 C756 1.523 . S
C756 C737 1.368 . S
C756 C750 1.368 . S
C756 C755 1.523 . S
C757 C741 1.429 . S
C757 C753 1.429 . S
C757 C758 1.523 . S
C758 C742 1.368 . S
C758 C754 1.368 . S
C758 C757 1.523 . S
H759 C734 0.950 . S
H760 C736 0.950 . S
H761 C737 0.949 . S
H762 C739 0.950 . S
H763 C741 0.950 . S
C764 C765 1.349 . S
C764 C766 1.327 . S
C764 H789 0.950 . S
C765 C764 1.349 . S
C765 C781 1.349 . S
C766 C764 1.327 . S
C766 C785 1.429 . S
C766 H790 0.950 . S
C767 C784 1.574 . S
C767 C786 1.368 . S
C767 H791 0.949 . S
H768 C772 0.949 . S
C769 C770 1.349 . S
C769 C771 1.327 . S
C769 H792 0.950 . S
C770 C769 1.349 . S
C770 C782 1.349 . S
C771 C769 1.327 . S
C771 C787 1.429 . S
C771 H793 0.950 . S
C772 H768 0.949 . S
C772 C780 1.574 . S
C772 C788 1.368 . S
H773 C781 0.950 . S
H774 C779 0.950 . S
H775 C780 0.949 . S
H776 C782 0.950 . S
H777 C783 0.950 . S
H778 C784 0.949 . S
C779 H774 0.950 . S
C779 C781 1.327 . S
C779 C785 1.429 . S
C780 C772 1.574 . S
C780 H775 0.949 . S
C780 C786 1.368 . S
C781 C765 1.349 . S
C781 H773 0.950 . S
C781 C779 1.327 . S
C782 C770 1.349 . S
C782 H776 0.950 . S
C782 C783 1.327 . S
C783 H777 0.950 . S
C783 C782 1.327 . S
C783 C787 1.429 . S
C784 C767 1.574 . S
C784 H778 0.949 . S
C784 C788 1.368 . S
C785 C766 1.429 . S
C785 C779 1.429 . S
C785 C786 1.523 . S
C786 C767 1.368 . S
C786 C780 1.368 . S
C786 C785 1.523 . S
C787 C771 1.429 . S
C787 C783 1.429 . S
C787 C788 1.523 . S
C788 C772 1.368 . S
C788 C784 1.368 . S
C788 C787 1.523 . S
H789 C764 0.950 . S
H790 C766 0.950 . S
H791 C767 0.949 . S
H792 C769 0.950 . S
H793 C771 0.950 . S
C794 C795 1.349 . S
C794 C796 1.327 . S
C794 H819 0.950 . S
C795 C794 1.349 . S
C795 C811 1.349 . S
C796 C794 1.327 . S
C796 C815 1.429 . S
C796 H820 0.950 . S
C797 C814 1.574 . S
C797 C816 1.368 . S
C797 H821 0.949 . S
H798 C802 0.949 . S
C799 C800 1.349 . S
C799 C801 1.327 . S
C799 H822 0.950 . S
C800 C799 1.349 . S
C800 C812 1.349 . S
C801 C799 1.327 . S
C801 C817 1.429 . S
C801 H823 0.950 . S
C802 H798 0.949 . S
C802 C810 1.574 . S
C802 C818 1.368 . S
H803 C811 0.950 . S
H804 C809 0.950 . S
H805 C810 0.949 . S
H806 C812 0.950 . S
H807 C813 0.950 . S
H808 C814 0.949 . S
C809 H804 0.950 . S
C809 C811 1.327 . S
C809 C815 1.429 . S
C810 C802 1.574 . S
C810 H805 0.949 . S
C810 C816 1.368 . S
C811 C795 1.349 . S
C811 H803 0.950 . S
C811 C809 1.327 . S
C812 C800 1.349 . S
C812 H806 0.950 . S
C812 C813 1.327 . S
C813 H807 0.950 . S
C813 C812 1.327 . S
C813 C817 1.429 . S
C814 C797 1.574 . S
C814 H808 0.949 . S
C814 C818 1.368 . S
C815 C796 1.429 . S
C815 C809 1.429 . S
C815 C816 1.523 . S
C816 C797 1.368 . S
C816 C810 1.368 . S
C816 C815 1.523 . S
C817 C801 1.429 . S
C817 C813 1.429 . S
C817 C818 1.523 . S
C818 C802 1.368 . S
C818 C814 1.368 . S
C818 C817 1.523 . S
H819 C794 0.950 . S
H820 C796 0.950 . S
H821 C797 0.949 . S
H822 C799 0.950 . S
H823 C801 0.950 . S
C824 C825 1.349 . S
C824 C826 1.327 . S
C824 H849 0.950 . S
C825 C824 1.349 . S
C825 C841 1.349 . S
C826 C824 1.327 . S
C826 C845 1.429 . S
C826 H850 0.950 . S
C827 C844 1.574 . S
C827 C846 1.368 . S
C827 H851 0.949 . S
H828 C832 0.949 . S
C829 C830 1.349 . S
C829 C831 1.327 . S
C829 H852 0.950 . S
C830 C829 1.349 . S
C830 C842 1.349 . S
C831 C829 1.327 . S
C831 C847 1.429 . S
C831 H853 0.950 . S
C832 H828 0.949 . S
C832 C840 1.574 . S
C832 C848 1.368 . S
H833 C841 0.950 . S
H834 C839 0.950 . S
H835 C840 0.949 . S
H836 C842 0.950 . S
H837 C843 0.950 . S
H838 C844 0.949 . S
C839 H834 0.950 . S
C839 C841 1.327 . S
C839 C845 1.429 . S
C840 C832 1.574 . S
C840 H835 0.949 . S
C840 C846 1.368 . S
C841 C825 1.349 . S
C841 H833 0.950 . S
C841 C839 1.327 . S
C842 C830 1.349 . S
C842 H836 0.950 . S
C842 C843 1.327 . S
C843 H837 0.950 . S
C843 C842 1.327 . S
C843 C847 1.429 . S
C844 C827 1.574 . S
C844 H838 0.949 . S
C844 C848 1.368 . S
C845 C826 1.429 . S
C845 C839 1.429 . S
C845 C846 1.523 . S
C846 C827 1.368 . S
C846 C840 1.368 . S
C846 C845 1.523 . S
C847 C831 1.429 . S
C847 C843 1.429 . S
C847 C848 1.523 . S
C848 C832 1.368 . S
C848 C844 1.368 . S
C848 C847 1.523 . S
H849 C824 0.950 . S
H850 C826 0.950 . S
H851 C827 0.949 . S
H852 C829 0.950 . S
H853 C831 0.950 . S
C854 C855 1.349 . S
C854 C856 1.327 . S
C854 H879 0.950 . S
C855 C854 1.349 . S
C855 C871 1.349 . S
C856 C854 1.327 . S
C856 C875 1.429 . S
C856 H880 0.950 . S
C857 C874 1.574 . S
C857 C876 1.368 . S
C857 H881 0.949 . S
H858 C862 0.949 . S
C859 C860 1.349 . S
C859 C861 1.327 . S
C859 H882 0.950 . S
C860 C859 1.349 . S
C860 C872 1.349 . S
C861 C859 1.327 . S
C861 C877 1.429 . S
C861 H883 0.950 . S
C862 H858 0.949 . S
C862 C870 1.574 . S
C862 C878 1.368 . S
H863 C871 0.950 . S
H864 C869 0.950 . S
H865 C870 0.949 . S
H866 C872 0.950 . S
H867 C873 0.950 . S
H868 C874 0.949 . S
C869 H864 0.950 . S
C869 C871 1.327 . S
C869 C875 1.429 . S
C870 C862 1.574 . S
C870 H865 0.949 . S
C870 C876 1.368 . S
C871 C855 1.349 . S
C871 H863 0.950 . S
C871 C869 1.327 . S
C872 C860 1.349 . S
C872 H866 0.950 . S
C872 C873 1.327 . S
C873 H867 0.950 . S
C873 C872 1.327 . S
C873 C877 1.429 . S
C874 C857 1.574 . S
C874 H868 0.949 . S
C874 C878 1.368 . S
C875 C856 1.429 . S
C875 C869 1.429 . S
C875 C876 1.523 . S
C876 C857 1.368 . S
C876 C870 1.368 . S
C876 C875 1.523 . S
C877 C861 1.429 . S
C877 C873 1.429 . S
C877 C878 1.523 . S
C878 C862 1.368 . S
C878 C874 1.368 . S
C878 C877 1.523 . S
H879 C854 0.950 . S
H880 C856 0.950 . S
H881 C857 0.949 . S
H882 C859 0.950 . S
H883 C861 0.950 . S
C884 C885 1.349 . S
C884 C886 1.327 . S
C884 H909 0.950 . S
C885 C884 1.349 . S
C885 C901 1.349 . S
C886 C884 1.327 . S
C886 C905 1.429 . S
C886 H910 0.950 . S
C887 C904 1.574 . S
C887 C906 1.368 . S
C887 H911 0.949 . S
H888 C892 0.949 . S
C889 C890 1.349 . S
C889 C891 1.327 . S
C889 H912 0.950 . S
C890 C889 1.349 . S
C890 C902 1.349 . S
C891 C889 1.327 . S
C891 C907 1.429 . S
C891 H913 0.950 . S
C892 H888 0.949 . S
C892 C900 1.574 . S
C892 C908 1.368 . S
H893 C901 0.950 . S
H894 C899 0.950 . S
H895 C900 0.949 . S
H896 C902 0.950 . S
H897 C903 0.950 . S
H898 C904 0.949 . S
C899 H894 0.950 . S
C899 C901 1.327 . S
C899 C905 1.429 . S
C900 C892 1.574 . S
C900 H895 0.949 . S
C900 C906 1.368 . S
C901 C885 1.349 . S
C901 H893 0.950 . S
C901 C899 1.327 . S
C902 C890 1.349 . S
C902 H896 0.950 . S
C902 C903 1.327 . S
C903 H897 0.950 . S
C903 C902 1.327 . S
C903 C907 1.429 . S
C904 C887 1.574 . S
C904 H898 0.949 . S
C904 C908 1.368 . S
C905 C886 1.429 . S
C905 C899 1.429 . S
C905 C906 1.523 . S
C906 C887 1.368 . S
C906 C900 1.368 . S
C906 C905 1.523 . S
C907 C891 1.429 . S
C907 C903 1.429 . S
C907 C908 1.523 . S
C908 C892 1.368 . S
C908 C904 1.368 . S
C908 C907 1.523 . S
H909 C884 0.950 . S
H910 C886 0.950 . S
H911 C887 0.949 . S
H912 C889 0.950 . S
H913 C891 0.950 . S
C914 C915 1.349 . S
C914 C916 1.327 . S
C914 H939 0.950 . S
C915 C914 1.349 . S
C915 C931 1.349 . S
C916 C914 1.327 . S
C916 C935 1.429 . S
C916 H940 0.950 . S
C917 C934 1.574 . S
C917 C936 1.368 . S
C917 H941 0.949 . S
H918 C922 0.949 . S
C919 C920 1.349 . S
C919 C921 1.327 . S
C919 H942 0.950 . S
C920 C919 1.349 . S
C920 C932 1.349 . S
C921 C919 1.327 . S
C921 C937 1.429 . S
C921 H943 0.950 . S
C922 H918 0.949 . S
C922 C930 1.574 . S
C922 C938 1.368 . S
H923 C931 0.950 . S
H924 C929 0.950 . S
H925 C930 0.949 . S
H926 C932 0.950 . S
H927 C933 0.950 . S
H928 C934 0.949 . S
C929 H924 0.950 . S
C929 C931 1.327 . S
C929 C935 1.429 . S
C930 C922 1.574 . S
C930 H925 0.949 . S
C930 C936 1.368 . S
C931 C915 1.349 . S
C931 H923 0.950 . S
C931 C929 1.327 . S
C932 C920 1.349 . S
C932 H926 0.950 . S
C932 C933 1.327 . S
C933 H927 0.950 . S
C933 C932 1.327 . S
C933 C937 1.429 . S
C934 C917 1.574 . S
C934 H928 0.949 . S
C934 C938 1.368 . S
C935 C916 1.429 . S
C935 C929 1.429 . S
C935 C936 1.523 . S
C936 C917 1.368 . S
C936 C930 1.368 . S
C936 C935 1.523 . S
C937 C921 1.429 . S
C937 C933 1.429 . S
C937 C938 1.523 . S
C938 C922 1.368 . S
C938 C934 1.368 . S
C938 C937 1.523 . S
H939 C914 0.950 . S
H940 C916 0.950 . S
H941 C917 0.949 . S
H942 C919 0.950 . S
H943 C921 0.950 . S
C944 C945 1.349 . S
C944 C946 1.327 . S
C944 H969 0.950 . S
C945 C944 1.349 . S
C945 C961 1.349 . S
C946 C944 1.327 . S
C946 C965 1.429 . S
C946 H970 0.950 . S
C947 C964 1.574 . S
C947 C966 1.368 . S
C947 H971 0.949 . S
H948 C952 0.949 . S
C949 C950 1.349 . S
C949 C951 1.327 . S
C949 H972 0.950 . S
C950 C949 1.349 . S
C950 C962 1.349 . S
C951 C949 1.327 . S
C951 C967 1.429 . S
C951 H973 0.950 . S
C952 H948 0.949 . S
C952 C960 1.574 . S
C952 C968 1.368 . S
H953 C961 0.950 . S
H954 C959 0.950 . S
H955 C960 0.949 . S
H956 C962 0.950 . S
H957 C963 0.950 . S
H958 C964 0.949 . S
C959 H954 0.950 . S
C959 C961 1.327 . S
C959 C965 1.429 . S
C960 C952 1.574 . S
C960 H955 0.949 . S
C960 C966 1.368 . S
C961 C945 1.349 . S
C961 H953 0.950 . S
C961 C959 1.327 . S
C962 C950 1.349 . S
C962 H956 0.950 . S
C962 C963 1.327 . S
C963 H957 0.950 . S
C963 C962 1.327 . S
C963 C967 1.429 . S
C964 C947 1.574 . S
C964 H958 0.949 . S
C964 C968 1.368 . S
C965 C946 1.429 . S
C965 C959 1.429 . S
C965 C966 1.523 . S
C966 C947 1.368 . S
C966 C960 1.368 . S
C966 C965 1.523 . S
C967 C951 1.429 . S
C967 C963 1.429 . S
C967 C968 1.523 . S
C968 C952 1.368 . S
C968 C964 1.368 . S
C968 C967 1.523 . S
H969 C944 0.950 . S
H970 C946 0.950 . S
H971 C947 0.949 . S
H972 C949 0.950 . S
H973 C951 0.950 . S
C974 C975 1.349 . S
C974 C976 1.327 . S
C974 H999 0.950 . S
C975 C974 1.349 . S
C975 C991 1.349 . S
C976 C974 1.327 . S
C976 C995 1.429 . S
C976 H1000 0.950 . S
C977 C994 1.574 . S
C977 C996 1.368 . S
C977 H1001 0.949 . S
H978 C982 0.949 . S
C979 C980 1.349 . S
C979 C981 1.327 . S
C979 H1002 0.950 . S
C980 C979 1.349 . S
C980 C992 1.349 . S
C981 C979 1.327 . S
C981 C997 1.429 . S
C981 H1003 0.950 . S
C982 H978 0.949 . S
C982 C990 1.574 . S
C982 C998 1.368 . S
H983 C991 0.950 . S
H984 C989 0.950 . S
H985 C990 0.949 . S
H986 C992 0.950 . S
H987 C993 0.950 . S
H988 C994 0.949 . S
C989 H984 0.950 . S
C989 C991 1.327 . S
C989 C995 1.429 . S
C990 C982 1.574 . S
C990 H985 0.949 . S
C990 C996 1.368 . S
C991 C975 1.349 . S
C991 H983 0.950 . S
C991 C989 1.327 . S
C992 C980 1.349 . S
C992 H986 0.950 . S
C992 C993 1.327 . S
C993 H987 0.950 . S
C993 C992 1.327 . S
C993 C997 1.429 . S
C994 C977 1.574 . S
C994 H988 0.949 . S
C994 C998 1.368 . S
C995 C976 1.429 . S
C995 C989 1.429 . S
C995 C996 1.523 . S
C996 C977 1.368 . S
C996 C990 1.368 . S
C996 C995 1.523 . S
C997 C981 1.429 . S
C997 C993 1.429 . S
C997 C998 1.523 . S
C998 C982 1.368 . S
C998 C994 1.368 . S
C998 C997 1.523 . S
H999 C974 0.950 . S
H1000 C976 0.950 . S
H1001 C977 0.949 . S
H1002 C979 0.950 . S
H1003 C981 0.950 . S
C1004 C1005 1.349 . S
C1004 C1006 1.327 . S
C1004 H1029 0.950 . S
C1005 C1004 1.349 . S
C1005 C1021 1.349 . S
C1006 C1004 1.327 . S
C1006 C1025 1.429 . S
C1006 H1030 0.950 . S
C1007 C1024 1.574 . S
C1007 C1026 1.368 . S
C1007 H1031 0.949 . S
H1008 C1012 0.949 . S
C1009 C1010 1.349 . S
C1009 C1011 1.327 . S
C1009 H1032 0.950 . S
C1010 C1009 1.349 . S
C1010 C1022 1.349 . S
C1011 C1009 1.327 . S
C1011 C1027 1.429 . S
C1011 H1033 0.950 . S
C1012 H1008 0.949 . S
C1012 C1020 1.574 . S
C1012 C1028 1.368 . S
H1013 C1021 0.950 . S
H1014 C1019 0.950 . S
H1015 C1020 0.949 . S
H1016 C1022 0.950 . S
H1017 C1023 0.950 . S
H1018 C1024 0.949 . S
C1019 H1014 0.950 . S
C1019 C1021 1.327 . S
C1019 C1025 1.429 . S
C1020 C1012 1.574 . S
C1020 H1015 0.949 . S
C1020 C1026 1.368 . S
C1021 C1005 1.349 . S
C1021 H1013 0.950 . S
C1021 C1019 1.327 . S
C1022 C1010 1.349 . S
C1022 H1016 0.950 . S
C1022 C1023 1.327 . S
C1023 H1017 0.950 . S
C1023 C1022 1.327 . S
C1023 C1027 1.429 . S
C1024 C1007 1.574 . S
C1024 H1018 0.949 . S
C1024 C1028 1.368 . S
C1025 C1006 1.429 . S
C1025 C1019 1.429 . S
C1025 C1026 1.523 . S
C1026 C1007 1.368 . S
C1026 C1020 1.368 . S
C1026 C1025 1.523 . S
C1027 C1011 1.429 . S
C1027 C1023 1.429 . S
C1027 C1028 1.523 . S
C1028 C1012 1.368 . S
C1028 C1024 1.368 . S
C1028 C1027 1.523 . S
H1029 C1004 0.950 . S
H1030 C1006 0.950 . S
H1031 C1007 0.949 . S
H1032 C1009 0.950 . S
H1033 C1011 0.950 . S
C1034 C1035 1.349 . S
C1034 C1036 1.327 . S
C1034 H1059 0.950 . S
C1035 C1034 1.349 . S
C1035 C1051 1.349 . S
C1036 C1034 1.327 . S
C1036 C1055 1.429 . S
C1036 H1060 0.950 . S
C1037 C1054 1.574 1_556 S
C1037 C1056 1.368 . S
C1037 H1061 0.949 . S
H1038 C1042 0.949 . S
C1039 C1040 1.349 . S
C1039 C1041 1.327 . S
C1039 H1062 0.950 . S
C1040 C1039 1.349 . S
C1040 C1052 1.349 . S
C1041 C1039 1.327 . S
C1041 C1057 1.429 . S
C1041 H1063 0.950 . S
C1042 H1038 0.949 . S
C1042 C1050 1.574 1_554 S
C1042 C1058 1.368 . S
H1043 C1051 0.950 . S
H1044 C1049 0.950 . S
H1045 C1050 0.949 . S
H1046 C1052 0.950 . S
H1047 C1053 0.950 . S
H1048 C1054 0.949 . S
C1049 H1044 0.950 . S
C1049 C1051 1.327 . S
C1049 C1055 1.429 . S
C1050 C1042 1.574 1_556 S
C1050 H1045 0.949 . S
C1050 C1056 1.368 . S
C1051 C1035 1.349 . S
C1051 H1043 0.950 . S
C1051 C1049 1.327 . S
C1052 C1040 1.349 . S
C1052 H1046 0.950 . S
C1052 C1053 1.327 . S
C1053 H1047 0.950 . S
C1053 C1052 1.327 . S
C1053 C1057 1.429 . S
C1054 C1037 1.574 1_554 S
C1054 H1048 0.949 . S
C1054 C1058 1.368 . S
C1055 C1036 1.429 . S
C1055 C1049 1.429 . S
C1055 C1056 1.523 . S
C1056 C1037 1.368 . S
C1056 C1050 1.368 . S
C1056 C1055 1.523 . S
C1057 C1041 1.429 . S
C1057 C1053 1.429 . S
C1057 C1058 1.523 . S
C1058 C1042 1.368 . S
C1058 C1054 1.368 . S
C1058 C1057 1.523 . S
H1059 C1034 0.950 . S
H1060 C1036 0.950 . S
H1061 C1037 0.949 . S
H1062 C1039 0.950 . S
H1063 C1041 0.950 . S
C1064 C1065 1.349 . S
C1064 C1066 1.327 . S
C1064 H1089 0.950 . S
C1065 C1064 1.349 . S
C1065 C1081 1.349 . S
C1066 C1064 1.327 . S
C1066 C1085 1.429 . S
C1066 H1090 0.950 . S
C1067 C1084 1.574 1_554 S
C1067 C1086 1.368 . S
C1067 H1091 0.949 . S
H1068 C1072 0.949 . S
C1069 C1070 1.349 . S
C1069 C1071 1.327 . S
C1069 H1092 0.950 . S
C1070 C1069 1.349 . S
C1070 C1082 1.349 . S
C1071 C1069 1.327 . S
C1071 C1087 1.429 . S
C1071 H1093 0.950 . S
C1072 H1068 0.949 . S
C1072 C1080 1.574 1_556 S
C1072 C1088 1.368 . S
H1073 C1081 0.950 . S
H1074 C1079 0.950 . S
H1075 C1080 0.949 . S
H1076 C1082 0.950 . S
H1077 C1083 0.950 . S
H1078 C1084 0.949 . S
C1079 H1074 0.950 . S
C1079 C1081 1.327 . S
C1079 C1085 1.429 . S
C1080 C1072 1.574 1_554 S
C1080 H1075 0.949 . S
C1080 C1086 1.368 . S
C1081 C1065 1.349 . S
C1081 H1073 0.950 . S
C1081 C1079 1.327 . S
C1082 C1070 1.349 . S
C1082 H1076 0.950 . S
C1082 C1083 1.327 . S
C1083 H1077 0.950 . S
C1083 C1082 1.327 . S
C1083 C1087 1.429 . S
C1084 C1067 1.574 1_556 S
C1084 H1078 0.949 . S
C1084 C1088 1.368 . S
C1085 C1066 1.429 . S
C1085 C1079 1.429 . S
C1085 C1086 1.523 . S
C1086 C1067 1.368 . S
C1086 C1080 1.368 . S
C1086 C1085 1.523 . S
C1087 C1071 1.429 . S
C1087 C1083 1.429 . S
C1087 C1088 1.523 . S
C1088 C1072 1.368 . S
C1088 C1084 1.368 . S
C1088 C1087 1.523 . S
H1089 C1064 0.950 . S
H1090 C1066 0.950 . S
H1091 C1067 0.949 . S
H1092 C1069 0.950 . S
H1093 C1071 0.950 . S
C1094 C1095 1.349 . S
C1094 C1096 1.327 . S
C1094 H1119 0.950 . S
C1095 C1094 1.349 . S
C1095 C1111 1.349 . S
C1096 C1094 1.327 . S
C1096 C1115 1.429 . S
C1096 H1120 0.950 . S
C1097 C1114 1.574 . S
C1097 C1116 1.368 . S
C1097 H1121 0.949 . S
H1098 C1102 0.949 . S
C1099 C1100 1.349 . S
C1099 C1101 1.327 . S
C1099 H1122 0.950 . S
C1100 C1099 1.349 . S
C1100 C1112 1.349 . S
C1101 C1099 1.327 . S
C1101 C1117 1.429 . S
C1101 H1123 0.950 . S
C1102 H1098 0.949 . S
C1102 C1110 1.574 . S
C1102 C1118 1.368 . S
H1103 C1111 0.950 . S
H1104 C1109 0.950 . S
H1105 C1110 0.949 . S
H1106 C1112 0.950 . S
H1107 C1113 0.950 . S
H1108 C1114 0.949 . S
C1109 H1104 0.950 . S
C1109 C1111 1.327 . S
C1109 C1115 1.429 . S
C1110 C1102 1.574 . S
C1110 H1105 0.949 . S
C1110 C1116 1.368 . S
C1111 C1095 1.349 . S
C1111 H1103 0.950 . S
C1111 C1109 1.327 . S
C1112 C1100 1.349 . S
C1112 H1106 0.950 . S
C1112 C1113 1.327 . S
C1113 H1107 0.950 . S
C1113 C1112 1.327 . S
C1113 C1117 1.429 . S
C1114 C1097 1.574 . S
C1114 H1108 0.949 . S
C1114 C1118 1.368 . S
C1115 C1096 1.429 . S
C1115 C1109 1.429 . S
C1115 C1116 1.523 . S
C1116 C1097 1.368 . S
C1116 C1110 1.368 . S
C1116 C1115 1.523 . S
C1117 C1101 1.429 . S
C1117 C1113 1.429 . S
C1117 C1118 1.523 . S
C1118 C1102 1.368 . S
C1118 C1114 1.368 . S
C1118 C1117 1.523 . S
H1119 C1094 0.950 . S
H1120 C1096 0.950 . S
H1121 C1097 0.949 . S
H1122 C1099 0.950 . S
H1123 C1101 0.950 . S
C1124 C1125 1.349 . S
C1124 C1126 1.327 . S
C1124 H1149 0.950 . S
C1125 C1124 1.349 . S
C1125 C1141 1.349 . S
C1126 C1124 1.327 . S
C1126 C1145 1.429 . S
C1126 H1150 0.950 . S
C1127 C1144 1.574 . S
C1127 C1146 1.368 . S
C1127 H1151 0.949 . S
H1128 C1132 0.949 . S
C1129 C1130 1.349 . S
C1129 C1131 1.327 . S
C1129 H1152 0.950 . S
C1130 C1129 1.349 . S
C1130 C1142 1.349 . S
C1131 C1129 1.327 . S
C1131 C1147 1.429 . S
C1131 H1153 0.950 . S
C1132 H1128 0.949 . S
C1132 C1140 1.574 . S
C1132 C1148 1.368 . S
H1133 C1141 0.950 . S
H1134 C1139 0.950 . S
H1135 C1140 0.949 . S
H1136 C1142 0.950 . S
H1137 C1143 0.950 . S
H1138 C1144 0.949 . S
C1139 H1134 0.950 . S
C1139 C1141 1.327 . S
C1139 C1145 1.429 . S
C1140 C1132 1.574 . S
C1140 H1135 0.949 . S
C1140 C1146 1.368 . S
C1141 C1125 1.349 . S
C1141 H1133 0.950 . S
C1141 C1139 1.327 . S
C1142 C1130 1.349 . S
C1142 H1136 0.950 . S
C1142 C1143 1.327 . S
C1143 H1137 0.950 . S
C1143 C1142 1.327 . S
C1143 C1147 1.429 . S
C1144 C1127 1.574 . S
C1144 H1138 0.949 . S
C1144 C1148 1.368 . S
C1145 C1126 1.429 . S
C1145 C1139 1.429 . S
C1145 C1146 1.523 . S
C1146 C1127 1.368 . S
C1146 C1140 1.368 . S
C1146 C1145 1.523 . S
C1147 C1131 1.429 . S
C1147 C1143 1.429 . S
C1147 C1148 1.523 . S
C1148 C1132 1.368 . S
C1148 C1144 1.368 . S
C1148 C1147 1.523 . S
H1149 C1124 0.950 . S
H1150 C1126 0.950 . S
H1151 C1127 0.949 . S
H1152 C1129 0.950 . S
H1153 C1131 0.950 . S
C1154 C1155 1.349 . S
C1154 C1156 1.327 . S
C1154 H1179 0.950 . S
C1155 C1154 1.349 . S
C1155 C1171 1.349 . S
C1156 C1154 1.327 . S
C1156 C1175 1.429 . S
C1156 H1180 0.950 . S
C1157 C1174 1.574 . S
C1157 C1176 1.368 . S
C1157 H1181 0.949 . S
H1158 C1162 0.949 . S
C1159 C1160 1.349 . S
C1159 C1161 1.327 . S
C1159 H1182 0.950 . S
C1160 C1159 1.349 . S
C1160 C1172 1.349 . S
C1161 C1159 1.327 . S
C1161 C1177 1.429 . S
C1161 H1183 0.950 . S
C1162 H1158 0.949 . S
C1162 C1170 1.574 . S
C1162 C1178 1.368 . S
H1163 C1171 0.950 . S
H1164 C1169 0.950 . S
H1165 C1170 0.949 . S
H1166 C1172 0.950 . S
H1167 C1173 0.950 . S
H1168 C1174 0.949 . S
C1169 H1164 0.950 . S
C1169 C1171 1.327 . S
C1169 C1175 1.429 . S
C1170 C1162 1.574 . S
C1170 H1165 0.949 . S
C1170 C1176 1.368 . S
C1171 C1155 1.349 . S
C1171 H1163 0.950 . S
C1171 C1169 1.327 . S
C1172 C1160 1.349 . S
C1172 H1166 0.950 . S
C1172 C1173 1.327 . S
C1173 H1167 0.950 . S
C1173 C1172 1.327 . S
C1173 C1177 1.429 . S
C1174 C1157 1.574 . S
C1174 H1168 0.949 . S
C1174 C1178 1.368 . S
C1175 C1156 1.429 . S
C1175 C1169 1.429 . S
C1175 C1176 1.523 . S
C1176 C1157 1.368 . S
C1176 C1170 1.368 . S
C1176 C1175 1.523 . S
C1177 C1161 1.429 . S
C1177 C1173 1.429 . S
C1177 C1178 1.523 . S
C1178 C1162 1.368 . S
C1178 C1174 1.368 . S
C1178 C1177 1.523 . S
H1179 C1154 0.950 . S
H1180 C1156 0.950 . S
H1181 C1157 0.949 . S
H1182 C1159 0.950 . S
H1183 C1161 0.950 . S
C225 C148 1.613 . S
C230 C8 1.613 . S
C255 C22 1.613 . S
C260 C162 1.613 . S
C285 C120 1.614 . S
C290 C36 1.614 . S
C315 C134 1.613 . S
C320 C50 1.613 . S
C345 C64 1.613 . S
C350 C204 1.613 . S
C375 C218 1.614 . S
C380 C78 1.614 . S
C405 C92 1.613 . S
C410 C176 1.613 . S
C435 C190 1.613 . S
C440 C106 1.613 . S
C465 C149 1.478 . S
C470 C9 1.478 . S
C495 C23 1.478 . S
C500 C163 1.478 . S
C525 C37 1.478 . S
C530 C121 1.478 . S
C555 C51 1.478 . S
C560 C135 1.478 . S
C585 C65 1.478 . S
C590 C205 1.478 . S
C615 C79 1.478 . S
C620 C219 1.478 . S
C645 C177 1.478 . S
C650 C93 1.478 . S
C675 C191 1.478 . S
C680 C107 1.478 . S
C705 C7 1.165 . S
C710 C91 1.165 . S
C735 C21 1.165 . S
C740 C105 1.165 . S
C765 C35 1.165 . S
C770 C63 1.165 . S
C795 C49 1.165 . S
C800 C77 1.165 . S
C825 C119 1.165 . S
C830 C203 1.165 . S
C855 C217 1.165 . S
C860 C133 1.165 . S
C885 C147 1.165 . S
C890 C175 1.165 . S
C915 C189 1.165 . S
C920 C161 1.165 . S
C945 C3 1.101 . S
C950 C213 1.101 . S
C975 C171 1.102 . S
C980 C17 1.102 . S
C1005 C185 1.102 . S
C1010 C31 1.102 . S
C1035 C199 1.102 . S
C1040 C45 1.102 . S
C1065 C129 1.102 . S
C1070 C59 1.102 . S
C1095 C143 1.102 . S
C1100 C73 1.102 . S
C1125 C87 1.102 . S
C1130 C157 1.102 . S
C1155 C101 1.101 . S
C1160 C115 1.101 . S
