# Generated by pormake.
# Topology pcu-i, (5)-cn, num edge types: 1
# Building blocks:
#     Node 0, Type 0, BuildingBlock: BEQFEK_clean_sbu_0, # of connection points: 5
#     Node 1, Type 0, BuildingBlock: BEQFEK_clean_sbu_0, # of connection points: 5
#     Node 2, Type 0, BuildingBlock: BEQFEK_clean_sbu_0, # of connection points: 5
#     Node 3, Type 0, BuildingBlock: BEQFEK_clean_sbu_0, # of connection points: 5
#     Node 4, Type 0, BuildingBlock: BEQFEK_clean_sbu_0, # of connection points: 5
#     Node 5, Type 0, BuildingBlock: BEQFEK_clean_sbu_0, # of connection points: 5
#     Node 6, Type 0, BuildingBlock: BEQFEK_clean_sbu_0, # of connection points: 5
#     Node 7, Type 0, BuildingBlock: BEQFEK_clean_sbu_0, # of connection points: 5
#     Node 8, Type 0, BuildingBlock: BEQFEK_clean_sbu_0, # of connection points: 5
#     Node 9, Type 0, BuildingBlock: BEQFEK_clean_sbu_0, # of connection points: 5
#     Node 10, Type 0, BuildingBlock: BEQFEK_clean_sbu_0, # of connection points: 5
#     Node 11, Type 0, BuildingBlock: BEQFEK_clean_sbu_0, # of connection points: 5
#     Node 12, Type 0, BuildingBlock: BEQFEK_clean_sbu_0, # of connection points: 5
#     Node 13, Type 0, BuildingBlock: BEQFEK_clean_sbu_0, # of connection points: 5
#     Node 14, Type 0, BuildingBlock: BEQFEK_clean_sbu_0, # of connection points: 5
#     Node 15, Type 0, BuildingBlock: BEQFEK_clean_sbu_0, # of connection points: 5
#     Node 16, Type 0, BuildingBlock: BEQFEK_clean_sbu_0, # of connection points: 5
#     Node 17, Type 0, BuildingBlock: BEQFEK_clean_sbu_0, # of connection points: 5
#     Node 18, Type 0, BuildingBlock: BEQFEK_clean_sbu_0, # of connection points: 5
#     Node 19, Type 0, BuildingBlock: BEQFEK_clean_sbu_0, # of connection points: 5
#     Node 20, Type 0, BuildingBlock: BEQFEK_clean_sbu_0, # of connection points: 5
#     Node 21, Type 0, BuildingBlock: BEQFEK_clean_sbu_0, # of connection points: 5
#     Node 22, Type 0, BuildingBlock: BEQFEK_clean_sbu_0, # of connection points: 5
#     Node 23, Type 0, BuildingBlock: BEQFEK_clean_sbu_0, # of connection points: 5
#     Edge 24, Type (0, 0), BuildingBlock: AJUNOK_clean_linker_0, # of connection points: 2
#     Edge 25, Type (0, 0), BuildingBlock: AJUNOK_clean_linker_0, # of connection points: 2
#     Edge 26, Type (0, 0), BuildingBlock: AJUNOK_clean_linker_0, # of connection points: 2
#     Edge 27, Type (0, 0), BuildingBlock: AJUNOK_clean_linker_0, # of connection points: 2
#     Edge 28, Type (0, 0), BuildingBlock: AJUNOK_clean_linker_0, # of connection points: 2
#     Edge 29, Type (0, 0), BuildingBlock: AJUNOK_clean_linker_0, # of connection points: 2
#     Edge 30, Type (0, 0), BuildingBlock: AJUNOK_clean_linker_0, # of connection points: 2
#     Edge 31, Type (0, 0), BuildingBlock: AJUNOK_clean_linker_0, # of connection points: 2
#     Edge 32, Type (0, 0), BuildingBlock: AJUNOK_clean_linker_0, # of connection points: 2
#     Edge 33, Type (0, 0), BuildingBlock: AJUNOK_clean_linker_0, # of connection points: 2
#     Edge 34, Type (0, 0), BuildingBlock: AJUNOK_clean_linker_0, # of connection points: 2
#     Edge 35, Type (0, 0), BuildingBlock: AJUNOK_clean_linker_0, # of connection points: 2
#     Edge 36, Type (0, 0), BuildingBlock: AJUNOK_clean_linker_0, # of connection points: 2
#     Edge 37, Type (0, 0), BuildingBlock: AJUNOK_clean_linker_0, # of connection points: 2
#     Edge 38, Type (0, 0), BuildingBlock: AJUNOK_clean_linker_0, # of connection points: 2
#     Edge 39, Type (0, 0), BuildingBlock: AJUNOK_clean_linker_0, # of connection points: 2
#     Edge 40, Type (0, 0), BuildingBlock: AJUNOK_clean_linker_0, # of connection points: 2
#     Edge 41, Type (0, 0), BuildingBlock: AJUNOK_clean_linker_0, # of connection points: 2
#     Edge 42, Type (0, 0), BuildingBlock: AJUNOK_clean_linker_0, # of connection points: 2
#     Edge 43, Type (0, 0), BuildingBlock: AJUNOK_clean_linker_0, # of connection points: 2
#     Edge 44, Type (0, 0), BuildingBlock: AJUNOK_clean_linker_0, # of connection points: 2
#     Edge 45, Type (0, 0), BuildingBlock: AJUNOK_clean_linker_0, # of connection points: 2
#     Edge 46, Type (0, 0), BuildingBlock: AJUNOK_clean_linker_0, # of connection points: 2
#     Edge 47, Type (0, 0), BuildingBlock: AJUNOK_clean_linker_0, # of connection points: 2
#     Edge 48, Type (0, 0), BuildingBlock: AJUNOK_clean_linker_0, # of connection points: 2
#     Edge 49, Type (0, 0), BuildingBlock: AJUNOK_clean_linker_0, # of connection points: 2
#     Edge 50, Type (0, 0), BuildingBlock: AJUNOK_clean_linker_0, # of connection points: 2
#     Edge 51, Type (0, 0), BuildingBlock: AJUNOK_clean_linker_0, # of connection points: 2
#     Edge 52, Type (0, 0), BuildingBlock: AJUNOK_clean_linker_0, # of connection points: 2
#     Edge 53, Type (0, 0), BuildingBlock: AJUNOK_clean_linker_0, # of connection points: 2
#     Edge 54, Type (0, 0), BuildingBlock: AJUNOK_clean_linker_0, # of connection points: 2
#     Edge 55, Type (0, 0), BuildingBlock: AJUNOK_clean_linker_0, # of connection points: 2
#     Edge 56, Type (0, 0), BuildingBlock: AJUNOK_clean_linker_0, # of connection points: 2
#     Edge 57, Type (0, 0), BuildingBlock: AJUNOK_clean_linker_0, # of connection points: 2
#     Edge 58, Type (0, 0), BuildingBlock: AJUNOK_clean_linker_0, # of connection points: 2
#     Edge 59, Type (0, 0), BuildingBlock: AJUNOK_clean_linker_0, # of connection points: 2
#     Edge 60, Type (0, 0), BuildingBlock: AJUNOK_clean_linker_0, # of connection points: 2
#     Edge 61, Type (0, 0), BuildingBlock: AJUNOK_clean_linker_0, # of connection points: 2
#     Edge 62, Type (0, 0), BuildingBlock: AJUNOK_clean_linker_0, # of connection points: 2
#     Edge 63, Type (0, 0), BuildingBlock: AJUNOK_clean_linker_0, # of connection points: 2
#     Edge 64, Type (0, 0), BuildingBlock: AJUNOK_clean_linker_0, # of connection points: 2
#     Edge 65, Type (0, 0), BuildingBlock: AJUNOK_clean_linker_0, # of connection points: 2
#     Edge 66, Type (0, 0), BuildingBlock: AJUNOK_clean_linker_0, # of connection points: 2
#     Edge 67, Type (0, 0), BuildingBlock: AJUNOK_clean_linker_0, # of connection points: 2
#     Edge 68, Type (0, 0), BuildingBlock: AJUNOK_clean_linker_0, # of connection points: 2
#     Edge 69, Type (0, 0), BuildingBlock: AJUNOK_clean_linker_0, # of connection points: 2
#     Edge 70, Type (0, 0), BuildingBlock: AJUNOK_clean_linker_0, # of connection points: 2
#     Edge 71, Type (0, 0), BuildingBlock: AJUNOK_clean_linker_0, # of connection points: 2
#     Edge 72, Type (0, 0), BuildingBlock: AJUNOK_clean_linker_0, # of connection points: 2
#     Edge 73, Type (0, 0), BuildingBlock: AJUNOK_clean_linker_0, # of connection points: 2
#     Edge 74, Type (0, 0), BuildingBlock: AJUNOK_clean_linker_0, # of connection points: 2
#     Edge 75, Type (0, 0), BuildingBlock: AJUNOK_clean_linker_0, # of connection points: 2
#     Edge 76, Type (0, 0), BuildingBlock: AJUNOK_clean_linker_0, # of connection points: 2
#     Edge 77, Type (0, 0), BuildingBlock: AJUNOK_clean_linker_0, # of connection points: 2
#     Edge 78, Type (0, 0), BuildingBlock: AJUNOK_clean_linker_0, # of connection points: 2
#     Edge 79, Type (0, 0), BuildingBlock: AJUNOK_clean_linker_0, # of connection points: 2
#     Edge 80, Type (0, 0), BuildingBlock: AJUNOK_clean_linker_0, # of connection points: 2
#     Edge 81, Type (0, 0), BuildingBlock: AJUNOK_clean_linker_0, # of connection points: 2
#     Edge 82, Type (0, 0), BuildingBlock: AJUNOK_clean_linker_0, # of connection points: 2
#     Edge 83, Type (0, 0), BuildingBlock: AJUNOK_clean_linker_0, # of connection points: 2
# Relax obj value: 0.238
# Max RMSD: 0.174
# Mean RMSD: 0.174
data_MOF--net-pcu-i--node1-BEQFEK_clean_sbu_0--edge1-AJUNOK_clean_linker_0
_symmetry_space_group_name_H-M    P1
_symmetry_Int_Tables_number       1
_symmetry_cell_setting            triclinic
loop_
_symmetry_equiv_pos_as_xyz
'x, y, z'
_cell_length_a     43.754354
_cell_length_b     43.751975
_cell_length_c     43.62611
_cell_angle_alpha  89.958601
_cell_angle_beta   90.017591
_cell_angle_gamma 90.064093
loop_
_atom_site_label
_atom_site_type_symbol
_atom_site_fract_x
_atom_site_fract_y
_atom_site_fract_z
_atom_type_partial_charge
Co0 Co 0.13752 0.10372 0.37747 0.0
Co1 Co 0.13918 0.1757 0.37192 0.0
C2 C 0.0816 0.13848 0.3625 0.0
O3 O 0.09485 0.11308 0.36685 0.0
O4 O 0.09606 0.16364 0.36382 0.0
C5 C 0.12574 0.04293 0.35851 0.0
O6 O 0.10676 0.05706 0.34 0.0
C7 C 0.1344 0.22525 0.32886 0.0
C8 C 0.15483 0.26507 0.35214 0.0
C9 C 0.14248 0.25552 0.32446 0.0
N10 N 0.14213 0.21696 0.35748 0.0
N11 N 0.154 0.24097 0.37152 0.0
C12 C 0.11897 0.20432 0.30653 0.0
H13 H 0.09662 0.19734 0.31608 0.0
H14 H 0.1329 0.18337 0.3034 0.0
H15 H 0.11476 0.21543 0.28409 0.0
C16 C 0.19037 0.1098 0.33574 0.0
N17 N 0.16643 0.12175 0.35105 0.0
N18 N 0.16809 0.15175 0.35005 0.0
C19 C 0.19349 0.15982 0.33456 0.0
C20 C 0.20815 0.13359 0.32464 0.0
C21 C 0.19672 0.07633 0.33302 0.0
H22 H 0.20055 0.06661 0.3562 0.0
H23 H 0.17653 0.06475 0.32293 0.0
H24 H 0.217 0.0718 0.31846 0.0
O25 O 0.14359 0.11974 0.41944 0.0
O26 O 0.14631 0.17075 0.4169 0.0
H27 H 0.20236 0.20337 0.35528 0.0
H28 H 0.23069 0.19176 0.32749 0.0
C29 C 0.20594 0.19165 0.33305 0.0
H30 H 0.19371 0.20447 0.31501 0.0
H31 H 0.16239 0.24067 0.39391 0.0
O32 O 0.14199 0.05858 0.37693 0.0
C33 C 0.14648 0.14583 0.43226 0.0
Co34 Co 0.88999 0.1427 0.38469 0.0
Co35 Co 0.81919 0.13946 0.37254 0.0
C36 C 0.85943 0.0846 0.36613 0.0
O37 O 0.88351 0.0997 0.37206 0.0
O38 O 0.83355 0.09755 0.36563 0.0
C39 C 0.94945 0.1425 0.36105 0.0
O40 O 0.93402 0.13715 0.33578 0.0
C41 C 0.76935 0.1273 0.33064 0.0
C42 C 0.73108 0.15461 0.34878 0.0
C43 C 0.73972 0.13642 0.32426 0.0
N44 N 0.77816 0.14007 0.35723 0.0
N45 N 0.75495 0.15586 0.36837 0.0
C46 C 0.78957 0.10747 0.31137 0.0
H47 H 0.79404 0.08584 0.32381 0.0
H48 H 0.81184 0.11906 0.30762 0.0
H49 H 0.77892 0.10157 0.28909 0.0
C50 C 0.88365 0.19804 0.34606 0.0
N51 N 0.87254 0.17174 0.35782 0.0
N52 N 0.84308 0.16993 0.35193 0.0
C53 C 0.83477 0.19472 0.33549 0.0
C54 C 0.8601 0.21346 0.33149 0.0
C55 C 0.91496 0.21034 0.35242 0.0
H56 H 0.9227 0.20318 0.37552 0.0
H57 H 0.93112 0.20125 0.3351 0.0
H58 H 0.91534 0.23567 0.35105 0.0
O59 O 0.87163 0.14876 0.42568 0.0
O60 O 0.82114 0.14645 0.41773 0.0
H61 H 0.78782 0.20541 0.34377 0.0
H62 H 0.80225 0.21974 0.30754 0.0
C63 C 0.80308 0.2005 0.32409 0.0
H64 H 0.79467 0.17985 0.31238 0.0
H65 H 0.75588 0.16867 0.38851 0.0
O66 O 0.93501 0.14675 0.38599 0.0
C67 C 0.84416 0.14959 0.43553 0.0
Co68 Co 0.85812 0.88988 0.37555 0.0
Co69 Co 0.85522 0.8181 0.37139 0.0
C70 C 0.91356 0.8546 0.36195 0.0
O71 O 0.90032 0.88036 0.36342 0.0
O72 O 0.89864 0.82991 0.36535 0.0
C73 C 0.87139 0.95237 0.36062 0.0
O74 O 0.89415 0.9402 0.34531 0.0
C75 C 0.86219 0.7684 0.32902 0.0
C76 C 0.83806 0.72953 0.35034 0.0
C77 C 0.85289 0.73861 0.32374 0.0
N78 N 0.85268 0.7769 0.35701 0.0
N79 N 0.8387 0.75341 0.36996 0.0
C80 C 0.88002 0.78881 0.30797 0.0
H81 H 0.90188 0.79511 0.31912 0.0
H82 H 0.86704 0.81019 0.30379 0.0
H83 H 0.88552 0.77752 0.28592 0.0
C84 C 0.80562 0.88413 0.33317 0.0
N85 N 0.82904 0.87209 0.34922 0.0
N86 N 0.8272 0.8421 0.34836 0.0
C87 C 0.80218 0.83414 0.33219 0.0
C88 C 0.78796 0.86044 0.32178 0.0
C89 C 0.79955 0.9176 0.33005 0.0
H90 H 0.82078 0.9295 0.32293 0.0
H91 H 0.78124 0.92222 0.31307 0.0
H92 H 0.79254 0.92679 0.35266 0.0
O93 O 0.85204 0.8738 0.41787 0.0
O94 O 0.84625 0.82305 0.41562 0.0
H95 H 0.76537 0.80225 0.32302 0.0
H96 H 0.80309 0.78914 0.31349 0.0
C97 C 0.78967 0.80236 0.33032 0.0
H98 H 0.79161 0.79104 0.35298 0.0
H99 H 0.8285 0.75406 0.39156 0.0
O100 O 0.8533 0.93505 0.37549 0.0
C101 C 0.84718 0.84801 0.43079 0.0
Co102 Co 0.10683 0.85153 0.37775 0.0
Co103 Co 0.17808 0.8564 0.37059 0.0
C104 C 0.13666 0.91065 0.3621 0.0
O105 O 0.11274 0.89487 0.36668 0.0
O106 O 0.16298 0.89847 0.36311 0.0
C107 C 0.0461 0.85826 0.35739 0.0
O108 O 0.05984 0.87602 0.3374 0.0
C109 C 0.2268 0.86134 0.32687 0.0
C110 C 0.26874 0.85108 0.35302 0.0
C111 C 0.25805 0.85766 0.3238 0.0
N112 N 0.21918 0.85663 0.35629 0.0
N113 N 0.24435 0.8508 0.37199 0.0
C114 C 0.20433 0.86956 0.30226 0.0
H115 H 0.184 0.88089 0.31215 0.0
H116 H 0.19642 0.84853 0.29052 0.0
H117 H 0.21511 0.88475 0.28496 0.0
C118 C 0.11613 0.7994 0.33594 0.0
N119 N 0.12643 0.82448 0.35059 0.0
N120 N 0.15645 0.82523 0.34911 0.0
C121 C 0.16625 0.80005 0.3342 0.0
C122 C 0.14105 0.78307 0.32518 0.0
C123 C 0.08311 0.79082 0.33331 0.0
H124 H 0.07017 0.81029 0.32357 0.0
H125 H 0.07975 0.77062 0.31833 0.0
H126 H 0.07385 0.7859 0.35646 0.0
O127 O 0.12375 0.84505 0.41974 0.0
O128 O 0.17452 0.849 0.41517 0.0
H129 H 0.20031 0.76443 0.33132 0.0
H130 H 0.20997 0.79941 0.31222 0.0
C131 C 0.19886 0.78971 0.33287 0.0
H132 H 0.21141 0.7974 0.35353 0.0
H133 H 0.24482 0.84601 0.39542 0.0
O134 O 0.06203 0.84434 0.37741 0.0
C135 C 0.15056 0.84496 0.4314 0.0
Co136 Co 0.14028 0.88908 0.6174 0.0
Co137 Co 0.13818 0.8177 0.62431 0.0
C138 C 0.08252 0.85689 0.63331 0.0
O139 O 0.09712 0.88164 0.62901 0.0
O140 O 0.09603 0.83128 0.63224 0.0
C141 C 0.13703 0.94955 0.64034 0.0
O142 O 0.127 0.9352 0.66482 0.0
C143 C 0.13191 0.76813 0.66702 0.0
C144 C 0.14635 0.72724 0.64132 0.0
C145 C 0.13674 0.73688 0.67011 0.0
N146 N 0.13865 0.77641 0.63817 0.0
N147 N 0.14688 0.75184 0.62269 0.0
C148 C 0.12372 0.79065 0.69155 0.0
H149 H 0.12954 0.81425 0.68443 0.0
H150 H 0.13572 0.78513 0.71327 0.0
H151 H 0.09871 0.78979 0.69562 0.0
C152 C 0.19346 0.88112 0.65941 0.0
N153 N 0.16877 0.87043 0.64424 0.0
N154 N 0.16848 0.84038 0.64592 0.0
C155 C 0.19312 0.83102 0.6619 0.0
C156 C 0.20944 0.85646 0.67136 0.0
C157 C 0.20207 0.91417 0.66155 0.0
H158 H 0.20069 0.92491 0.63856 0.0
H159 H 0.18576 0.92595 0.67693 0.0
H160 H 0.22536 0.91737 0.67101 0.0
O161 O 0.14738 0.8725 0.57544 0.0
O162 O 0.14545 0.82159 0.57971 0.0
H163 H 0.19785 0.78582 0.64327 0.0
H164 H 0.22817 0.79688 0.66903 0.0
C165 C 0.20323 0.79842 0.66462 0.0
H166 H 0.19112 0.78741 0.68402 0.0
H167 H 0.15364 0.75201 0.59976 0.0
O168 O 0.14489 0.93417 0.61691 0.0
C169 C 0.14883 0.84579 0.56368 0.0
Co170 Co 0.10369 0.13818 0.62086 0.0
Co171 Co 0.17547 0.13876 0.62486 0.0
C172 C 0.13762 0.08165 0.63483 0.0
O173 O 0.11232 0.09534 0.63147 0.0
O174 O 0.16293 0.09568 0.63261 0.0
C175 C 0.04295 0.12696 0.6401 0.0
O176 O 0.05715 0.10807 0.65866 0.0
C177 C 0.22403 0.1358 0.66866 0.0
C178 C 0.2661 0.14625 0.64282 0.0
C179 C 0.25521 0.13964 0.67197 0.0
N180 N 0.21658 0.14037 0.63916 0.0
N181 N 0.24183 0.1464 0.62365 0.0
C182 C 0.20152 0.12721 0.69312 0.0
H183 H 0.18057 0.11722 0.68305 0.0
H184 H 0.19473 0.14789 0.70609 0.0
H185 H 0.21194 0.11079 0.70947 0.0
C186 C 0.11132 0.19084 0.6627 0.0
N187 N 0.12259 0.16674 0.64715 0.0
N188 N 0.15261 0.16818 0.64717 0.0
C189 C 0.16139 0.19375 0.66203 0.0
C190 C 0.1356 0.20876 0.67259 0.0
C191 C 0.07797 0.19691 0.66711 0.0
H192 H 0.06748 0.20261 0.64466 0.0
H193 H 0.06668 0.17599 0.67595 0.0
H194 H 0.07402 0.21594 0.68342 0.0
O195 O 0.11935 0.14418 0.57857 0.0
O196 O 0.1704 0.14649 0.58015 0.0
H197 H 0.20565 0.19909 0.64116 0.0
H198 H 0.1932 0.23153 0.66341 0.0
C199 C 0.19331 0.20619 0.66215 0.0
H200 H 0.20569 0.19747 0.68252 0.0
H201 H 0.24247 0.15094 0.60018 0.0
O202 O 0.05857 0.14328 0.6217 0.0
C203 C 0.14522 0.14699 0.56526 0.0
Co204 Co 0.85143 0.10483 0.62119 0.0
Co205 Co 0.85556 0.17637 0.62788 0.0
C206 C 0.91047 0.13551 0.63536 0.0
O207 O 0.89495 0.11132 0.63132 0.0
O208 O 0.89791 0.16164 0.63431 0.0
C209 C 0.85957 0.04373 0.64083 0.0
O210 O 0.87849 0.0572 0.65989 0.0
C211 C 0.86219 0.22459 0.67203 0.0
C212 C 0.8455 0.26604 0.64857 0.0
C213 C 0.85565 0.25519 0.67667 0.0
N214 N 0.8554 0.21737 0.6429 0.0
N215 N 0.84584 0.24233 0.62876 0.0
C216 C 0.87472 0.20223 0.69484 0.0
H217 H 0.89397 0.18944 0.68455 0.0
H218 H 0.85673 0.18541 0.70096 0.0
H219 H 0.88303 0.2138 0.71587 0.0
C220 C 0.80008 0.11384 0.66413 0.0
N221 N 0.82486 0.12419 0.64896 0.0
N222 N 0.82524 0.15422 0.6499 0.0
C223 C 0.80007 0.16398 0.66475 0.0
C224 C 0.78353 0.13879 0.67456 0.0
C225 C 0.79188 0.0808 0.66736 0.0
H226 H 0.81195 0.06795 0.67594 0.0
H227 H 0.77256 0.07743 0.68348 0.0
H228 H 0.78566 0.07148 0.64455 0.0
O229 O 0.84346 0.12191 0.57937 0.0
O230 O 0.84684 0.17279 0.58356 0.0
H231 H 0.7641 0.19776 0.66834 0.0
H232 H 0.80047 0.20892 0.68373 0.0
C233 C 0.78918 0.19641 0.66486 0.0
H234 H 0.79505 0.20763 0.64285 0.0
H235 H 0.83854 0.24295 0.606 0.0
O236 O 0.8446 0.05989 0.62176 0.0
C237 C 0.84237 0.1487 0.56762 0.0
Co238 Co 0.88824 0.85513 0.61905 0.0
Co239 Co 0.81663 0.85441 0.62367 0.0
C240 C 0.8543 0.9112 0.63518 0.0
O241 O 0.87968 0.8974 0.6326 0.0
O242 O 0.82929 0.89694 0.63181 0.0
C243 C 0.95 0.86572 0.63798 0.0
O244 O 0.93705 0.88601 0.65592 0.0
C245 C 0.76595 0.8648 0.66349 0.0
C246 C 0.72555 0.84784 0.63844 0.0
C247 C 0.73447 0.86145 0.66581 0.0
N248 N 0.775 0.85406 0.63617 0.0
N249 N 0.75077 0.84425 0.62102 0.0
C250 C 0.78802 0.8748 0.68782 0.0
H251 H 0.81073 0.86424 0.68411 0.0
H252 H 0.77961 0.86863 0.71101 0.0
H253 H 0.79114 0.89993 0.68646 0.0
C254 C 0.88067 0.79941 0.65658 0.0
N255 N 0.86929 0.82488 0.64353 0.0
N256 N 0.83933 0.82469 0.646 0.0
C257 C 0.83068 0.79925 0.66123 0.0
C258 C 0.8566 0.78218 0.66815 0.0
C259 C 0.91348 0.79007 0.65426 0.0
H260 H 0.92094 0.79185 0.63003 0.0
H261 H 0.9277 0.80594 0.66806 0.0
H262 H 0.91725 0.76631 0.66226 0.0
O263 O 0.87291 0.85119 0.57639 0.0
O264 O 0.82202 0.8471 0.57903 0.0
H265 H 0.78463 0.78982 0.64741 0.0
H266 H 0.79615 0.77012 0.68219 0.0
C267 C 0.79817 0.79157 0.66885 0.0
H268 H 0.78826 0.81005 0.68295 0.0
H269 H 0.75152 0.83466 0.59914 0.0
O270 O 0.93342 0.84987 0.62001 0.0
C271 C 0.84686 0.84764 0.56362 0.0
Co272 Co 0.38024 0.14009 0.1093 0.0
Co273 Co 0.37286 0.13718 0.18113 0.0
C274 C 0.36818 0.08135 0.14106 0.0
O275 O 0.3718 0.09638 0.11644 0.0
O276 O 0.36818 0.09465 0.16689 0.0
C277 C 0.36157 0.13029 0.04796 0.0
O278 O 0.34386 0.11017 0.06156 0.0
C279 C 0.32956 0.12716 0.22946 0.0
C280 C 0.35007 0.14868 0.2703 0.0
C281 C 0.3237 0.13454 0.25974 0.0
N282 N 0.35768 0.13708 0.22215 0.0
N283 N 0.37015 0.14944 0.24681 0.0
C284 C 0.30884 0.11098 0.20742 0.0
H285 H 0.32022 0.08993 0.19915 0.0
H286 H 0.30455 0.12582 0.18724 0.0
H287 H 0.28689 0.10426 0.21818 0.0
C288 C 0.33577 0.18998 0.11691 0.0
N289 N 0.35139 0.16588 0.12802 0.0
N290 N 0.34992 0.16605 0.15812 0.0
C291 C 0.33407 0.19085 0.16718 0.0
C292 C 0.32442 0.20666 0.1414 0.0
C293 C 0.33312 0.19761 0.08358 0.0
H294 H 0.35597 0.20402 0.07459 0.0
H295 H 0.32507 0.17722 0.07086 0.0
H296 H 0.31687 0.21664 0.07955 0.0
O297 O 0.42135 0.1498 0.12674 0.0
O298 O 0.41669 0.14737 0.17779 0.0
H299 H 0.35546 0.19889 0.21062 0.0
H300 H 0.3265 0.22659 0.20074 0.0
C301 C 0.33287 0.20209 0.19955 0.0
H302 H 0.31575 0.18866 0.21243 0.0
H303 H 0.39175 0.15958 0.24724 0.0
O304 O 0.37972 0.14634 0.06413 0.0
C305 C 0.43269 0.15183 0.1537 0.0
Co306 Co 0.85642 0.37958 0.11112 0.0
Co307 Co 0.85832 0.37246 0.18265 0.0
C308 C 0.91422 0.36448 0.14374 0.0
O309 O 0.89948 0.36874 0.11904 0.0
O310 O 0.90082 0.3652 0.1695 0.0
C311 C 0.86054 0.35676 0.05052 0.0
O312 O 0.86878 0.33164 0.06477 0.0
C313 C 0.86494 0.33085 0.23331 0.0
C314 C 0.84976 0.35715 0.27363 0.0
C315 C 0.8601 0.32847 0.26471 0.0
N316 N 0.85757 0.35923 0.22426 0.0
N317 N 0.84888 0.37507 0.24848 0.0
C318 C 0.87387 0.30607 0.21138 0.0
H319 H 0.86784 0.31239 0.18754 0.0
H320 H 0.86251 0.28421 0.2175 0.0
H321 H 0.89899 0.30278 0.21235 0.0
C322 C 0.80347 0.33768 0.11852 0.0
N323 N 0.82824 0.35247 0.1295 0.0
N324 N 0.82856 0.35028 0.15961 0.0
C325 C 0.80393 0.33414 0.16872 0.0
C326 C 0.78752 0.32536 0.14304 0.0
C327 C 0.79461 0.33654 0.0854 0.0
H328 H 0.79702 0.35954 0.075 0.0
H329 H 0.81009 0.32063 0.07321 0.0
H330 H 0.77089 0.32828 0.08218 0.0
O331 O 0.84821 0.42101 0.1275 0.0
O332 O 0.85006 0.41677 0.17854 0.0
H333 H 0.7987 0.35181 0.21434 0.0
H334 H 0.76916 0.32535 0.20292 0.0
C335 C 0.79395 0.33056 0.20138 0.0
H336 H 0.8067 0.31146 0.21207 0.0
H337 H 0.84167 0.39778 0.24774 0.0
O338 O 0.85293 0.38019 0.06594 0.0
C339 C 0.84625 0.43263 0.15427 0.0
Co340 Co 0.6137 0.85498 0.10351 0.0
Co341 Co 0.62476 0.85741 0.17473 0.0
C342 C 0.62949 0.91315 0.13498 0.0
O343 O 0.6244 0.89814 0.11065 0.0
O344 O 0.62984 0.90002 0.16091 0.0
C345 C 0.63485 0.86013 0.04287 0.0
O346 O 0.65983 0.86858 0.05727 0.0
C347 C 0.66891 0.86649 0.22298 0.0
C348 C 0.64776 0.8456 0.26386 0.0
C349 C 0.6744 0.8593 0.25342 0.0
N350 N 0.64074 0.85681 0.2155 0.0
N351 N 0.62792 0.84481 0.24017 0.0
C352 C 0.68988 0.88254 0.20106 0.0
H353 H 0.69479 0.86735 0.18131 0.0
H354 H 0.7115 0.88975 0.21217 0.0
H355 H 0.67842 0.90324 0.19206 0.0
C356 C 0.6568 0.80281 0.109 0.0
N357 N 0.64234 0.8275 0.12054 0.0
N358 N 0.64622 0.82817 0.15047 0.0
C359 C 0.66295 0.80372 0.15891 0.0
C360 C 0.67059 0.78719 0.13295 0.0
C361 C 0.65605 0.79356 0.07598 0.0
H362 H 0.63246 0.79567 0.06693 0.0
H363 H 0.6711 0.80902 0.06266 0.0
H364 H 0.66427 0.76986 0.07259 0.0
O365 O 0.57314 0.84644 0.12239 0.0
O366 O 0.58059 0.84813 0.1731 0.0
H367 H 0.64577 0.79644 0.20432 0.0
H368 H 0.6746 0.76935 0.19278 0.0
C369 C 0.66737 0.79361 0.19138 0.0
H370 H 0.68517 0.80793 0.20219 0.0
H371 H 0.60612 0.83513 0.24055 0.0
O372 O 0.61163 0.8517 0.05826 0.0
C373 C 0.5632 0.84448 0.14988 0.0
Co374 Co 0.13934 0.61553 0.10742 0.0
Co375 Co 0.13904 0.62145 0.17936 0.0
C376 C 0.08188 0.62786 0.14162 0.0
O377 O 0.09603 0.62443 0.11646 0.0
O378 O 0.09596 0.62717 0.16705 0.0
C379 C 0.12645 0.63359 0.04626 0.0
O380 O 0.10631 0.65075 0.06042 0.0
C381 C 0.13593 0.66468 0.22859 0.0
C382 C 0.15016 0.63902 0.26975 0.0
C383 C 0.14187 0.6679 0.25956 0.0
N384 N 0.14103 0.63553 0.22058 0.0
N385 N 0.14923 0.6201 0.24531 0.0
C386 C 0.12549 0.68898 0.20674 0.0
H387 H 0.14557 0.70159 0.19774 0.0
H388 H 0.11034 0.70555 0.21855 0.0
H389 H 0.11336 0.67878 0.18696 0.0
C390 C 0.18946 0.66029 0.11421 0.0
N391 N 0.16609 0.64383 0.12576 0.0
N392 N 0.16737 0.64451 0.15587 0.0
C393 C 0.19226 0.66052 0.16445 0.0
C394 C 0.20665 0.67157 0.13841 0.0
C395 C 0.19589 0.66376 0.08071 0.0
H396 H 0.20258 0.64127 0.0711 0.0
H397 H 0.17484 0.67135 0.06879 0.0
H398 H 0.21436 0.68061 0.07639 0.0
O399 O 0.14915 0.57396 0.1237 0.0
O400 O 0.14837 0.57768 0.17485 0.0
H401 H 0.19962 0.63886 0.20814 0.0
H402 H 0.2305 0.66326 0.19575 0.0
C403 C 0.20528 0.66053 0.19625 0.0
H404 H 0.19567 0.67988 0.20944 0.0
H405 H 0.15485 0.59693 0.24539 0.0
O406 O 0.14401 0.61651 0.06201 0.0
C407 C 0.15186 0.5621 0.15038 0.0
Co408 Co 0.38387 0.85202 0.88949 0.0
Co409 Co 0.37245 0.85334 0.81857 0.0
C410 C 0.36616 0.90955 0.8576 0.0
O411 O 0.37185 0.8949 0.88206 0.0
O412 O 0.36586 0.89607 0.83186 0.0
C413 C 0.36306 0.85654 0.95015 0.0
O414 O 0.33779 0.86445 0.93597 0.0
C415 C 0.328 0.85987 0.77026 0.0
C416 C 0.35017 0.83977 0.72956 0.0
C417 C 0.32294 0.85226 0.73988 0.0
N418 N 0.35654 0.85155 0.77786 0.0
N419 N 0.36993 0.83995 0.75333 0.0
C420 C 0.30635 0.87521 0.79196 0.0
H421 H 0.31687 0.89659 0.80058 0.0
H422 H 0.3022 0.86012 0.81199 0.0
H423 H 0.28437 0.88117 0.78082 0.0
C424 C 0.34199 0.79857 0.88501 0.0
N425 N 0.35591 0.82342 0.87303 0.0
N426 N 0.35179 0.82364 0.84313 0.0
C427 C 0.33539 0.79876 0.83518 0.0
C428 C 0.32837 0.78237 0.86138 0.0
C429 C 0.34295 0.78971 0.91815 0.0
H430 H 0.3277 0.80505 0.9313 0.0
H431 H 0.335 0.76593 0.92182 0.0
H432 H 0.36654 0.79226 0.9271 0.0
O433 O 0.42465 0.84447 0.87079 0.0
O434 O 0.41701 0.8454 0.82014 0.0
H435 H 0.35145 0.79154 0.78935 0.0
H436 H 0.32345 0.76393 0.80195 0.0
C437 C 0.33029 0.78835 0.80293 0.0
H438 H 0.31189 0.80219 0.79257 0.0
H439 H 0.39215 0.83132 0.75306 0.0
O440 O 0.38638 0.84887 0.93459 0.0
C441 C 0.43461 0.84248 0.84333 0.0
Co442 Co 0.1419 0.38062 0.89052 0.0
Co443 Co 0.13825 0.37033 0.81933 0.0
C444 C 0.08353 0.36313 0.85962 0.0
O445 O 0.0984 0.37072 0.8834 0.0
O446 O 0.09629 0.36136 0.83359 0.0
C447 C 0.13774 0.35798 0.95081 0.0
O448 O 0.1283 0.33355 0.93608 0.0
C449 C 0.13179 0.32711 0.77021 0.0
C450 C 0.14755 0.35157 0.72886 0.0
C451 C 0.13713 0.32342 0.73918 0.0
N452 N 0.13907 0.35585 0.77808 0.0
N453 N 0.14815 0.37059 0.75323 0.0
C454 C 0.11901 0.30415 0.79227 0.0
H455 H 0.09565 0.31137 0.79883 0.0
H456 H 0.13303 0.30366 0.81344 0.0
H457 H 0.11747 0.28093 0.78228 0.0
C458 C 0.19486 0.33859 0.88334 0.0
N459 N 0.16969 0.3527 0.87236 0.0
N460 N 0.16886 0.34952 0.84236 0.0
C461 C 0.19361 0.33353 0.83332 0.0
C462 C 0.21073 0.32596 0.85891 0.0
C463 C 0.20385 0.3379 0.91643 0.0
H464 H 0.20297 0.36133 0.92609 0.0
H465 H 0.18742 0.32342 0.92914 0.0
H466 H 0.22694 0.32811 0.91988 0.0
O467 O 0.15018 0.42153 0.87296 0.0
O468 O 0.14544 0.41535 0.82229 0.0
H469 H 0.19798 0.34971 0.78706 0.0
H470 H 0.22769 0.32369 0.79871 0.0
C471 C 0.20295 0.3289 0.80063 0.0
H472 H 0.18996 0.30943 0.7909 0.0
H473 H 0.15547 0.39329 0.75303 0.0
O474 O 0.14595 0.38149 0.93575 0.0
C475 C 0.15051 0.43218 0.8457 0.0
Co476 Co 0.61532 0.14063 0.89072 0.0
Co477 Co 0.62038 0.14327 0.81933 0.0
C478 C 0.63114 0.08549 0.8565 0.0
O479 O 0.62965 0.09895 0.8822 0.0
O480 O 0.62722 0.10015 0.83168 0.0
C481 C 0.63642 0.13607 0.95197 0.0
O482 O 0.66179 0.12751 0.9384 0.0
C483 C 0.6647 0.14016 0.77117 0.0
C484 C 0.63938 0.15118 0.72883 0.0
C485 C 0.66825 0.14407 0.73992 0.0
N486 N 0.63533 0.14516 0.77843 0.0
N487 N 0.62013 0.15155 0.75304 0.0
C488 C 0.68871 0.13093 0.79388 0.0
H489 H 0.702 0.1513 0.80101 0.0
H490 H 0.70474 0.11427 0.78344 0.0
H491 H 0.67825 0.12098 0.81472 0.0
C492 C 0.65535 0.1957 0.88512 0.0
N493 N 0.64055 0.17129 0.87333 0.0
N494 N 0.64175 0.17267 0.84321 0.0
C495 C 0.65686 0.19824 0.83491 0.0
C496 C 0.66624 0.2134 0.86108 0.0
C497 C 0.65854 0.2022 0.91865 0.0
H498 H 0.63589 0.20048 0.92993 0.0
H499 H 0.67391 0.18497 0.92904 0.0
H500 H 0.66849 0.22509 0.92298 0.0
O501 O 0.57316 0.14436 0.87369 0.0
O502 O 0.57605 0.15069 0.82293 0.0
H503 H 0.63814 0.20376 0.78963 0.0
H504 H 0.66088 0.23563 0.80278 0.0
C505 C 0.65877 0.21034 0.80282 0.0
H506 H 0.67927 0.20086 0.79137 0.0
H507 H 0.5968 0.15638 0.75225 0.0
O508 O 0.61345 0.14379 0.93589 0.0
C509 C 0.56054 0.14878 0.84763 0.0
Co510 Co 0.85551 0.61517 0.88874 0.0
Co511 Co 0.85609 0.62205 0.8169 0.0
C512 C 0.91273 0.63024 0.85493 0.0
O513 O 0.89871 0.62573 0.88002 0.0
O514 O 0.89862 0.62969 0.82954 0.0
C515 C 0.86727 0.63391 0.94973 0.0
O516 O 0.88629 0.6523 0.93549 0.0
C517 C 0.86179 0.66441 0.76693 0.0
C518 C 0.84811 0.63827 0.72597 0.0
C519 C 0.85754 0.66716 0.73541 0.0
N520 N 0.85496 0.63571 0.77543 0.0
N521 N 0.84712 0.61998 0.75084 0.0
C522 C 0.87014 0.68887 0.7895 0.0
H523 H 0.86449 0.68178 0.81319 0.0
H524 H 0.85807 0.7105 0.78407 0.0
H525 H 0.89516 0.6929 0.7886 0.0
C526 C 0.80385 0.65823 0.88207 0.0
N527 N 0.82749 0.6423 0.87041 0.0
N528 N 0.82672 0.64394 0.84031 0.0
C529 C 0.80224 0.6606 0.83184 0.0
C530 C 0.78724 0.67049 0.85797 0.0
C531 C 0.79699 0.6609 0.91554 0.0
H532 H 0.81719 0.67049 0.92752 0.0
H533 H 0.77696 0.67581 0.91987 0.0
H534 H 0.79255 0.63782 0.92512 0.0
O535 O 0.84763 0.57334 0.87247 0.0
O536 O 0.84871 0.57766 0.82138 0.0
H537 H 0.76632 0.66871 0.79879 0.0
H538 H 0.80317 0.68368 0.78862 0.0
C539 C 0.79126 0.66412 0.7995 0.0
H540 H 0.79617 0.64313 0.7862 0.0
H541 H 0.8406 0.59704 0.75111 0.0
O542 O 0.85071 0.61577 0.93407 0.0
C543 C 0.84589 0.56162 0.84569 0.0
Co544 Co 0.10823 0.37873 0.14206 0.0
Co545 Co 0.17929 0.36912 0.13842 0.0
C546 C 0.13911 0.36274 0.08325 0.0
O547 O 0.1152 0.36981 0.09811 0.0
O548 O 0.16498 0.36089 0.09624 0.0
C549 C 0.04649 0.36153 0.13252 0.0
O550 O 0.05917 0.34401 0.11168 0.0
C551 C 0.22763 0.32494 0.13509 0.0
C552 C 0.26938 0.35063 0.14711 0.0
C553 C 0.25866 0.32161 0.14009 0.0
N554 N 0.22012 0.35434 0.13953 0.0
N555 N 0.2452 0.36976 0.14641 0.0
C556 C 0.20526 0.30055 0.12606 0.0
H557 H 0.18511 0.31056 0.11452 0.0
H558 H 0.19701 0.28845 0.1468 0.0
H559 H 0.2163 0.28358 0.11075 0.0
C560 C 0.11551 0.33555 0.19385 0.0
N561 N 0.1266 0.35046 0.16915 0.0
N562 N 0.15658 0.34838 0.16906 0.0
C563 C 0.16558 0.33292 0.19423 0.0
C564 C 0.13988 0.32382 0.21041 0.0
C565 C 0.08239 0.33394 0.20214 0.0
H566 H 0.07429 0.35714 0.20836 0.0
H567 H 0.06905 0.32603 0.18204 0.0
H568 H 0.07829 0.31815 0.22161 0.0
O569 O 0.1259 0.41975 0.15024 0.0
O570 O 0.17645 0.41378 0.14537 0.0
H571 H 0.21059 0.35225 0.19885 0.0
H572 H 0.19861 0.32909 0.2309 0.0
C573 C 0.1979 0.33136 0.20557 0.0
H574 H 0.20943 0.31115 0.19563 0.0
H575 H 0.2457 0.3931 0.15128 0.0
O576 O 0.06333 0.37897 0.14865 0.0
C577 C 0.15305 0.43054 0.1501 0.0
Co578 Co 0.10611 0.61514 0.85366 0.0
Co579 Co 0.17701 0.62568 0.85853 0.0
C580 C 0.13639 0.63102 0.91334 0.0
O581 O 0.11272 0.62525 0.89748 0.0
O582 O 0.16266 0.63195 0.90102 0.0
C583 C 0.04517 0.63511 0.86127 0.0
O584 O 0.05871 0.65516 0.87908 0.0
C585 C 0.22878 0.66522 0.86969 0.0
C586 C 0.26617 0.64409 0.84322 0.0
C587 C 0.25881 0.66959 0.86058 0.0
N588 N 0.21862 0.63883 0.85773 0.0
N589 N 0.24124 0.62591 0.84243 0.0
C590 C 0.20946 0.68595 0.88894 0.0
H591 H 0.20343 0.67397 0.91052 0.0
H592 H 0.18781 0.69114 0.87675 0.0
H593 H 0.22145 0.70742 0.89506 0.0
C594 C 0.11368 0.65632 0.80095 0.0
N595 N 0.12461 0.64305 0.82656 0.0
N596 N 0.15413 0.64832 0.82875 0.0
C597 C 0.16278 0.66589 0.80478 0.0
C598 C 0.13752 0.67117 0.78616 0.0
C599 C 0.08207 0.65115 0.78885 0.0
H600 H 0.07612 0.62659 0.7909 0.0
H601 H 0.0656 0.66443 0.80283 0.0
H602 H 0.0799 0.65813 0.76451 0.0
O603 O 0.12318 0.57414 0.8456 0.0
O604 O 0.17362 0.581 0.84963 0.0
H605 H 0.21024 0.65772 0.79616 0.0
H606 H 0.19608 0.69303 0.77978 0.0
C607 C 0.19463 0.67734 0.79969 0.0
H608 H 0.20223 0.69012 0.82016 0.0
H609 H 0.23925 0.60547 0.83029 0.0
O610 O 0.06121 0.61519 0.84745 0.0
C611 C 0.15043 0.5638 0.845 0.0
Co612 Co 0.3729 0.10459 0.85759 0.0
Co613 Co 0.36954 0.1764 0.85735 0.0
C614 C 0.36104 0.1381 0.91487 0.0
O615 O 0.36194 0.11282 0.90061 0.0
O616 O 0.36416 0.16328 0.90067 0.0
C617 C 0.35768 0.04181 0.86902 0.0
O618 O 0.34241 0.05362 0.89204 0.0
C619 C 0.32705 0.22603 0.86226 0.0
C620 C 0.3529 0.26694 0.84792 0.0
C621 C 0.32407 0.25708 0.85684 0.0
N622 N 0.35596 0.21775 0.85628 0.0
N623 N 0.37151 0.24233 0.84801 0.0
C624 C 0.30285 0.20426 0.87307 0.0
H625 H 0.31314 0.18496 0.88578 0.0
H626 H 0.29066 0.19461 0.853 0.0
H627 H 0.28603 0.21612 0.88791 0.0
C628 C 0.33076 0.11281 0.80519 0.0
N629 N 0.34642 0.12381 0.82942 0.0
N630 N 0.34623 0.15384 0.82843 0.0
C631 C 0.33115 0.16292 0.80305 0.0
C632 C 0.32068 0.13728 0.78764 0.0
C633 C 0.32664 0.07954 0.79852 0.0
H634 H 0.3199 0.06736 0.81978 0.0
H635 H 0.30899 0.07574 0.78065 0.0
H636 H 0.3487 0.06991 0.79059 0.0
O637 O 0.41525 0.12049 0.85139 0.0
O638 O 0.41328 0.17143 0.84763 0.0
H639 H 0.35238 0.20689 0.79724 0.0
H640 H 0.32815 0.19547 0.76581 0.0
C641 C 0.33084 0.19504 0.79111 0.0
H642 H 0.31134 0.20757 0.80131 0.0
H643 H 0.39452 0.2422 0.84177 0.0
O644 O 0.37253 0.05946 0.85119 0.0
C645 C 0.42823 0.14639 0.84733 0.0
Co646 Co 0.89102 0.37781 0.85922 0.0
Co647 Co 0.81988 0.36917 0.86285 0.0
C648 C 0.85987 0.36281 0.91813 0.0
O649 O 0.88388 0.36892 0.903 0.0
O650 O 0.83388 0.36149 0.90529 0.0
C651 C 0.95161 0.35576 0.86358 0.0
O652 O 0.93752 0.33156 0.87449 0.0
C653 C 0.76956 0.32674 0.86746 0.0
C654 C 0.72916 0.35381 0.85405 0.0
C655 C 0.7384 0.32463 0.86234 0.0
N656 N 0.77851 0.35558 0.86191 0.0
N657 N 0.75423 0.37182 0.85422 0.0
C658 C 0.79068 0.30176 0.87769 0.0
H659 H 0.81049 0.31129 0.89024 0.0
H660 H 0.79964 0.28943 0.85741 0.0
H661 H 0.77843 0.28513 0.89249 0.0
C662 C 0.88314 0.33417 0.80749 0.0
N663 N 0.87246 0.34935 0.83219 0.0
N664 N 0.84243 0.34735 0.83266 0.0
C665 C 0.83304 0.33153 0.80787 0.0
C666 C 0.85848 0.32214 0.79149 0.0
C667 C 0.91617 0.33242 0.79874 0.0
H668 H 0.92629 0.35567 0.79874 0.0
H669 H 0.92847 0.31841 0.81591 0.0
H670 H 0.91953 0.32172 0.77599 0.0
O671 O 0.87405 0.41886 0.85018 0.0
O672 O 0.82342 0.41368 0.8547 0.0
H673 H 0.78841 0.3515 0.80291 0.0
H674 H 0.79953 0.327 0.77165 0.0
C675 C 0.80059 0.33015 0.79688 0.0
H676 H 0.78874 0.31055 0.80771 0.0
H677 H 0.75486 0.39496 0.84845 0.0
O678 O 0.93604 0.37861 0.85463 0.0
C679 C 0.84709 0.42999 0.84954 0.0
Co680 Co 0.61414 0.89234 0.85109 0.0
Co681 Co 0.62929 0.82219 0.85465 0.0
C682 C 0.63137 0.86106 0.91022 0.0
O683 O 0.62252 0.88428 0.89515 0.0
O684 O 0.63628 0.83564 0.89717 0.0
C685 C 0.63345 0.95289 0.86068 0.0
O686 O 0.6532 0.9387 0.87834 0.0
C687 C 0.67066 0.77143 0.86467 0.0
C688 C 0.65089 0.73409 0.83704 0.0
C689 C 0.6759 0.74178 0.85496 0.0
N690 N 0.64413 0.78114 0.85259 0.0
N691 N 0.63207 0.75851 0.83654 0.0
C692 C 0.69099 0.79091 0.88422 0.0
H693 H 0.69392 0.81372 0.87346 0.0
H694 H 0.71358 0.78016 0.8882 0.0
H695 H 0.67983 0.79436 0.90677 0.0
C696 C 0.65423 0.888 0.79742 0.0
N697 N 0.64296 0.87608 0.82358 0.0
N698 N 0.65021 0.84699 0.82527 0.0
C699 C 0.6674 0.83977 0.80065 0.0
C700 C 0.67044 0.86544 0.78206 0.0
C701 C 0.64463 0.9184 0.78491 0.0
H702 H 0.62004 0.92219 0.7897 0.0
H703 H 0.6579 0.93668 0.79648 0.0
H704 H 0.64837 0.91994 0.75981 0.0
O705 O 0.57452 0.8739 0.84135 0.0
O706 O 0.584 0.82391 0.8465 0.0
H707 H 0.66092 0.7929 0.78838 0.0
H708 H 0.6973 0.80866 0.77613 0.0
C709 C 0.67987 0.8086 0.79456 0.0
H710 H 0.69082 0.80016 0.8156 0.0
H711 H 0.6117 0.76017 0.82421 0.0
O712 O 0.61337 0.93737 0.84644 0.0
C713 C 0.56576 0.8461 0.84099 0.0
Co714 Co 0.8882 0.61589 0.1422 0.0
Co715 Co 0.817 0.6246 0.13758 0.0
C716 C 0.85825 0.63037 0.08265 0.0
O717 O 0.88222 0.62583 0.09841 0.0
O718 O 0.83203 0.63021 0.09512 0.0
C719 C 0.94956 0.63398 0.1346 0.0
O720 O 0.93664 0.65355 0.11583 0.0
C721 C 0.76831 0.66765 0.12759 0.0
C722 C 0.72811 0.64671 0.14981 0.0
C723 C 0.73818 0.67323 0.13557 0.0
N724 N 0.77602 0.63962 0.13745 0.0
N725 N 0.75174 0.62689 0.15021 0.0
C726 C 0.78975 0.68842 0.11071 0.0
H727 H 0.79838 0.6766 0.09001 0.0
H728 H 0.8097 0.69376 0.1255 0.0
H729 H 0.77844 0.70982 0.10319 0.0
C730 C 0.88031 0.65891 0.19355 0.0
N731 N 0.86956 0.64409 0.1687 0.0
N732 N 0.83963 0.64676 0.16767 0.0
C733 C 0.83036 0.66299 0.19223 0.0
C734 C 0.85581 0.67146 0.20917 0.0
C735 C 0.91319 0.65957 0.20292 0.0
H736 H 0.92106 0.6359 0.20746 0.0
H737 H 0.9271 0.66899 0.1839 0.0
H738 H 0.91687 0.67376 0.22366 0.0
O739 O 0.87037 0.57495 0.15041 0.0
O740 O 0.81966 0.5804 0.14688 0.0
H741 H 0.78573 0.64413 0.19926 0.0
H742 H 0.79586 0.67372 0.22622 0.0
C743 C 0.79775 0.66627 0.20198 0.0
H744 H 0.78641 0.68345 0.18731 0.0
H745 H 0.75167 0.6053 0.16039 0.0
O746 O 0.9329 0.61516 0.14928 0.0
C747 C 0.84333 0.56395 0.15142 0.0
Co748 Co 0.38095 0.88726 0.14144 0.0
Co749 Co 0.37105 0.81618 0.13848 0.0
C750 C 0.36718 0.85588 0.08258 0.0
O751 O 0.3736 0.87994 0.09747 0.0
O752 O 0.36463 0.83016 0.09578 0.0
C753 C 0.36562 0.94905 0.13031 0.0
O754 O 0.34893 0.93643 0.10872 0.0
C755 C 0.32578 0.76894 0.13371 0.0
C756 C 0.34938 0.72673 0.14809 0.0
C757 C 0.32114 0.73818 0.13936 0.0
N758 N 0.35515 0.77566 0.13951 0.0
N759 N 0.36934 0.7503 0.14777 0.0
C760 C 0.30274 0.7918 0.12272 0.0
H761 H 0.3129 0.80655 0.10479 0.0
H762 H 0.29594 0.80679 0.14203 0.0
H763 H 0.28211 0.78042 0.11327 0.0
C764 C 0.33632 0.88111 0.19171 0.0
N765 N 0.35149 0.86956 0.16746 0.0
N766 N 0.34971 0.83958 0.16815 0.0
C767 C 0.3344 0.83104 0.19356 0.0
C768 C 0.32507 0.85702 0.20907 0.0
C769 C 0.33398 0.91447 0.19877 0.0
H770 H 0.35662 0.92296 0.20647 0.0
H771 H 0.32747 0.92714 0.17777 0.0
H772 H 0.31679 0.91896 0.2169 0.0
O773 O 0.42127 0.86922 0.15152 0.0
O774 O 0.4155 0.81857 0.14714 0.0
H775 H 0.35466 0.78669 0.19935 0.0
H776 H 0.33106 0.79882 0.23104 0.0
C777 C 0.3335 0.79905 0.20572 0.0
H778 H 0.31367 0.78696 0.19578 0.0
H779 H 0.39237 0.74921 0.1539 0.0
O780 O 0.38181 0.9321 0.14756 0.0
C781 C 0.43201 0.84209 0.15244 0.0
Co782 Co 0.61416 0.10584 0.14274 0.0
Co783 Co 0.62626 0.17671 0.14071 0.0
C784 C 0.62967 0.1384 0.08438 0.0
O785 O 0.62189 0.11458 0.09903 0.0
O786 O 0.6334 0.16384 0.09781 0.0
C787 C 0.63194 0.04568 0.12961 0.0
O788 O 0.65063 0.06055 0.11136 0.0
C789 C 0.67011 0.22566 0.1356 0.0
C790 C 0.6472 0.26533 0.15674 0.0
C791 C 0.67474 0.25574 0.14431 0.0
N792 N 0.64154 0.21749 0.14332 0.0
N793 N 0.62772 0.24141 0.15553 0.0
C794 C 0.69228 0.20475 0.11997 0.0
H795 H 0.6817 0.19539 0.09891 0.0
H796 H 0.69762 0.1852 0.13527 0.0
H797 H 0.71364 0.21672 0.11339 0.0
C798 C 0.6587 0.10997 0.19347 0.0
N799 N 0.64367 0.12236 0.16949 0.0
N800 N 0.6473 0.1522 0.1699 0.0
C801 C 0.66417 0.15978 0.19462 0.0
C802 C 0.67238 0.13332 0.20997 0.0
C803 C 0.65846 0.07667 0.20125 0.0
H804 H 0.63456 0.06904 0.20501 0.0
H805 H 0.66782 0.06351 0.18168 0.0
H806 H 0.67227 0.07173 0.22199 0.0
O807 O 0.57393 0.12385 0.15286 0.0
O808 O 0.58152 0.17428 0.14859 0.0
H809 H 0.64679 0.2048 0.2031 0.0
H810 H 0.67454 0.19199 0.23088 0.0
C811 C 0.66822 0.1917 0.20624 0.0
H812 H 0.68664 0.20296 0.19316 0.0
H813 H 0.60541 0.24112 0.16398 0.0
O814 O 0.61363 0.06069 0.14653 0.0
C815 C 0.56407 0.15132 0.15343 0.0
C816 C 0.16592 0.16606 0.5149 0.0
C817 C 0.14563 0.14726 0.53141 0.0
C818 C 0.16588 0.16618 0.48261 0.0
C819 C 0.14625 0.14675 0.46607 0.0
H820 H 0.18157 0.181 0.52698 0.0
H821 H 0.18163 0.18105 0.47056 0.0
S822 S 0.08923 0.09291 0.49863 0.0
N823 N 0.10552 0.10882 0.52878 0.0
N824 N 0.10593 0.10853 0.46855 0.0
C825 C 0.12609 0.12777 0.48242 0.0
C826 C 0.12567 0.12813 0.515 0.0
C827 C 0.8576 0.1727 0.48586 0.0
C828 C 0.83948 0.15228 0.46886 0.0
C829 C 0.85691 0.17267 0.51796 0.0
C830 C 0.83879 0.15156 0.53412 0.0
H831 H 0.873 0.18829 0.47425 0.0
H832 H 0.87193 0.18815 0.53018 0.0
S833 S 0.78599 0.09447 0.50025 0.0
N834 N 0.80151 0.11173 0.47037 0.0
N835 N 0.80105 0.11087 0.53083 0.0
C836 C 0.8198 0.13171 0.51738 0.0
C837 C 0.81991 0.1323 0.48468 0.0
C838 C 0.86505 0.86672 0.48131 0.0
C839 C 0.84574 0.84722 0.46456 0.0
C840 C 0.86533 0.8663 0.51331 0.0
C841 C 0.84574 0.8469 0.52986 0.0
H842 H 0.88057 0.88211 0.46957 0.0
H843 H 0.88078 0.88161 0.5252 0.0
S844 S 0.79028 0.79185 0.49698 0.0
N845 N 0.80654 0.80786 0.46676 0.0
N846 N 0.80621 0.80791 0.52733 0.0
C847 C 0.82591 0.82758 0.51351 0.0
C848 C 0.82619 0.82746 0.48074 0.0
C849 C 0.13377 0.82296 0.51361 0.0
C850 C 0.1525 0.84313 0.53023 0.0
C851 C 0.13389 0.82302 0.48148 0.0
C852 C 0.15343 0.84257 0.46499 0.0
H853 H 0.11786 0.8081 0.52548 0.0
H854 H 0.1182 0.80807 0.46944 0.0
S855 S 0.20861 0.89792 0.49798 0.0
N856 N 0.192 0.88213 0.52809 0.0
N857 N 0.1931 0.88145 0.46767 0.0
C858 C 0.17339 0.86171 0.4814 0.0
C859 C 0.17267 0.86222 0.51407 0.0
C860 C 0.48233 0.13828 0.17787 0.0
C861 C 0.46593 0.15619 0.15677 0.0
C862 C 0.51434 0.13785 0.17761 0.0
C863 C 0.53094 0.15603 0.15688 0.0
H864 H 0.47039 0.1231 0.19345 0.0
H865 H 0.52617 0.12251 0.19308 0.0
S866 S 0.49868 0.20921 0.09916 0.0
N867 N 0.46848 0.19392 0.11595 0.0
N868 N 0.52875 0.19397 0.11621 0.0
C869 C 0.51483 0.17552 0.13704 0.0
C870 C 0.48225 0.17535 0.13676 0.0
C871 C 0.85959 0.51506 0.17565 0.0
C872 C 0.83997 0.53072 0.15551 0.0
C873 C 0.86004 0.48306 0.17661 0.0
C874 C 0.84154 0.4658 0.15679 0.0
H875 H 0.87529 0.52764 0.19015 0.0
H876 H 0.8762 0.47182 0.19168 0.0
S877 S 0.78489 0.49578 0.10124 0.0
N878 N 0.80015 0.52662 0.11684 0.0
N879 N 0.80182 0.46639 0.11787 0.0
C880 C 0.82103 0.48114 0.1374 0.0
C881 C 0.82 0.51368 0.13698 0.0
C882 C 0.51353 0.82116 0.13457 0.0
C883 C 0.53014 0.84014 0.15456 0.0
C884 C 0.48155 0.82004 0.13569 0.0
C885 C 0.46521 0.83855 0.15625 0.0
H886 H 0.52529 0.80776 0.11736 0.0
H887 H 0.46952 0.80611 0.11907 0.0
S888 S 0.49794 0.89053 0.21472 0.0
N889 N 0.52799 0.8761 0.19699 0.0
N890 N 0.46776 0.87484 0.19827 0.0
C891 C 0.48154 0.85662 0.17719 0.0
C892 C 0.5141 0.85718 0.17659 0.0
C893 C 0.13878 0.48014 0.17394 0.0
C894 C 0.15684 0.46384 0.15295 0.0
C895 C 0.13879 0.51214 0.17419 0.0
C896 C 0.15614 0.52882 0.15282 0.0
H897 H 0.12398 0.46807 0.18978 0.0
H898 H 0.12386 0.52386 0.19013 0.0
S899 S 0.2084 0.4969 0.09419 0.0
N900 N 0.19389 0.4666 0.11153 0.0
N901 N 0.19301 0.52687 0.11124 0.0
C902 C 0.17502 0.51281 0.13237 0.0
C903 C 0.17563 0.48024 0.13266 0.0
C904 C 0.48525 0.82191 0.85966 0.0
C905 C 0.46785 0.83908 0.83868 0.0
C906 C 0.51728 0.82217 0.85862 0.0
C907 C 0.53286 0.84025 0.83708 0.0
H908 H 0.47404 0.80899 0.87764 0.0
H909 H 0.52986 0.8098 0.87606 0.0
S910 S 0.4981 0.88741 0.77572 0.0
N911 N 0.46864 0.87266 0.79423 0.0
N912 N 0.52886 0.87398 0.79304 0.0
C913 C 0.5158 0.85632 0.8151 0.0
C914 C 0.48324 0.8555 0.81567 0.0
C915 C 0.13481 0.48175 0.82242 0.0
C916 C 0.15459 0.4654 0.84176 0.0
C917 C 0.13454 0.5138 0.82257 0.0
C918 C 0.15461 0.53051 0.84142 0.0
H919 H 0.11821 0.46975 0.80845 0.0
H920 H 0.11786 0.52558 0.80852 0.0
S921 S 0.2131 0.49821 0.89372 0.0
N922 N 0.19613 0.46801 0.87864 0.0
N923 N 0.19635 0.52827 0.87817 0.0
C924 C 0.17588 0.51437 0.85932 0.0
C925 C 0.17565 0.48178 0.85972 0.0
C926 C 0.47875 0.12713 0.86418 0.0
C927 C 0.46186 0.14725 0.84564 0.0
C928 C 0.51064 0.12817 0.86474 0.0
C929 C 0.5269 0.14882 0.84622 0.0
H930 H 0.46721 0.1109 0.87897 0.0
H931 H 0.52269 0.11241 0.87963 0.0
S932 S 0.49354 0.20568 0.79287 0.0
N933 N 0.46361 0.18837 0.80817 0.0
N934 N 0.52397 0.18947 0.80834 0.0
C935 C 0.51042 0.16866 0.82704 0.0
C936 C 0.47776 0.16814 0.82705 0.0
C937 C 0.82454 0.51199 0.86396 0.0
C938 C 0.84306 0.52815 0.84317 0.0
C939 C 0.8245 0.47996 0.86456 0.0
C940 C 0.84369 0.46315 0.84503 0.0
H941 H 0.8105 0.52421 0.88032 0.0
H942 H 0.8106 0.46835 0.88153 0.0
S943 S 0.89535 0.49453 0.78547 0.0
N944 N 0.87972 0.52496 0.80141 0.0
N945 N 0.88047 0.46474 0.80336 0.0
C946 C 0.86159 0.47898 0.82353 0.0
C947 C 0.86104 0.51153 0.82236 0.0
C948 C 0.15844 0.96319 0.36754 0.0
C949 C 0.13405 0.94421 0.35849 0.0
C950 C 0.15558 0.99509 0.36741 0.0
C951 C 0.12842 0.00924 0.35769 0.0
H952 H 0.17965 0.95336 0.37573 0.0
H953 H 0.1748 0.00874 0.37503 0.0
S954 S 0.05832 0.96999 0.33019 0.0
N955 N 0.08217 0.942 0.33858 0.0
N956 N 0.07695 0.00192 0.33784 0.0
C957 C 0.10417 0.99061 0.34769 0.0
C958 C 0.10693 0.95811 0.34824 0.0
C959 C -0.00086 0.13072 0.38625 0.0
C960 C 0.98315 0.1421 0.36073 0.0
C961 C 0.03109 0.12891 0.38613 0.0
C962 C 0.0481 0.13909 0.36081 0.0
H963 H 0.98687 0.12269 0.40627 0.0
H964 H 0.04262 0.11998 0.40622 0.0
S965 S 0.01742 0.17134 0.28865 0.0
N966 N 0.98678 0.16368 0.30943 0.0
N967 N 0.04704 0.16107 0.30977 0.0
C968 C 0.03256 0.15081 0.33531 0.0
C969 C -3e-05 0.15206 0.33511 0.0
C970 C 0.89206 0.00521 0.35371 0.0
C971 C 0.86724 0.98596 0.36077 0.0
C972 C 0.8892 0.0371 0.35486 0.0
C973 C 0.86125 0.05097 0.36253 0.0
H974 H 0.91414 0.99562 0.34795 0.0
H975 H 0.90914 0.05096 0.34992 0.0
S976 S 0.78881 0.01073 0.38145 0.0
N977 N 0.81353 0.98307 0.37481 0.0
N978 N 0.80793 0.04288 0.37645 0.0
C979 C 0.83598 0.03196 0.36876 0.0
C980 C 0.83904 -0.0005 0.36807 0.0
C981 C 0.96284 0.87902 0.34644 0.0
C982 C 0.94723 0.8536 0.35855 0.0
C983 C 0.99481 0.87989 0.34546 0.0
C984 C 0.01244 0.85565 0.35709 0.0
H985 H 0.95029 0.8986 0.33795 0.0
H986 H 0.00578 0.90016 0.33633 0.0
S987 S 0.98294 0.78314 0.38979 0.0
N988 N 0.95198 0.80288 0.38113 0.0
N989 N 0.01212 0.8049 0.37976 0.0
C990 C 0.99723 0.82981 0.36865 0.0
C991 C 0.96463 0.82866 0.3692 0.0
C992 C 0.13012 0.03076 0.61129 0.0
C993 C 0.1377 0.04822 0.63718 0.0
C994 C 0.13064 -0.00123 0.61236 0.0
C995 C 0.13801 0.98325 0.63961 0.0
H996 H 0.12404 0.04195 0.58997 0.0
H997 H 0.12463 0.98611 0.59188 0.0
S998 S 0.16008 0.01891 0.71351 0.0
N999 N 0.15366 0.04817 0.69041 0.0
N1000 N 0.15351 0.98785 0.69298 0.0
C1001 C 0.14555 0.00057 0.66571 0.0
C1002 C 0.14572 0.03317 0.66435 0.0
C1003 C 0.99465 0.15586 0.63035 0.0
C1004 C 0.00921 0.12907 0.64053 0.0
C1005 C 0.9627 0.1581 0.62982 0.0
C1006 C 0.94408 0.13342 0.63891 0.0
H1007 H 0.00803 0.17527 0.62269 0.0
H1008 H 0.95255 0.17905 0.62137 0.0
S1009 S 0.97097 0.05846 0.66823 0.0
N1010 N 0.00262 0.07763 0.66074 0.0
N1011 N 0.94264 0.08169 0.65929 0.0
C1012 C 0.95838 0.10666 0.64955 0.0
C1013 C 0.99091 0.10454 0.6505 0.0
C1014 C 0.88047 0.96014 0.64924 0.0
C1015 C 0.85396 0.94486 0.63923 0.0
C1016 C 0.88173 0.99212 0.65041 0.0
C1017 C 0.85676 0.01008 0.64105 0.0
H1018 H 0.9006 0.94733 0.65584 0.0
H1019 H 0.9028 0.00284 0.65784 0.0
S1020 S 0.78133 0.98162 0.6148 0.0
N1021 N 0.80143 0.9504 0.62139 0.0
N1022 N 0.80424 0.01047 0.62302 0.0
C1023 C 0.82988 0.99523 0.63171 0.0
C1024 C 0.82834 0.96264 0.63101 0.0
C1025 C 0.03425 0.8847 0.64638 0.0
C1026 C 0.04881 0.85772 0.63672 0.0
C1027 C 0.00228 0.88679 0.64738 0.0
C1028 C 0.98365 0.86222 0.63812 0.0
H1029 H 0.04763 0.90448 0.65299 0.0
H1030 H 0.99213 0.90815 0.65469 0.0
S1031 S 0.01027 0.78614 0.61186 0.0
N1032 N 0.04197 0.80544 0.61872 0.0
N1033 N 0.98202 0.80974 0.61997 0.0
C1034 C -0.00214 0.83497 0.62884 0.0
C1035 C 0.03039 0.83262 0.62835 0.0
C1036 C 0.34866 0.11153 0.96411 0.0
C1037 C 0.35897 0.13792 0.94882 0.0
C1038 C 0.34908 0.10959 0.99615 0.0
C1039 C 0.36031 0.13376 0.01422 0.0
H1040 H 0.34048 0.092 0.95124 0.0
H1041 H 0.34122 0.08863 0.00678 0.0
S1042 S 0.38868 0.2085 0.98574 0.0
N1043 N 0.37959 0.18938 0.95442 0.0
N1044 N 0.38079 0.18543 0.01462 0.0
C1045 C 0.37014 0.16053 -0.00065 0.0
C1046 C 0.3693 0.16271 0.96668 0.0
C1047 C 0.84654 0.33533 -0.00056 0.0
C1048 C 0.8611 0.35809 0.01687 0.0
C1049 C 0.84628 0.33681 0.96729 0.0
C1050 C 0.86161 0.36044 0.95173 0.0
H1051 H 0.83468 0.31672 0.01075 0.0
H1052 H 0.83416 0.31936 0.95452 0.0
S1053 S 0.90388 0.4249 0.98706 0.0
N1054 N 0.89119 0.40476 0.01646 0.0
N1055 N 0.89194 0.40681 0.95606 0.0
C1056 C 0.87684 0.38288 0.96896 0.0
C1057 C 0.87626 0.3819 0.00158 0.0
C1058 C 0.65749 0.84933 0.95978 0.0
C1059 C 0.63286 0.86258 0.94393 0.0
C1060 C 0.65822 0.84903 0.99195 0.0
C1061 C 0.63381 0.8609 0.00916 0.0
H1062 H 0.67633 0.83928 0.94724 0.0
H1063 H 0.67768 0.83885 0.00343 0.0
S1064 S 0.5639 0.89763 0.97854 0.0
N1065 N 0.5837 0.88812 0.94776 0.0
N1066 N 0.58452 0.88634 0.00817 0.0
C1067 C 0.609 0.87398 0.99358 0.0
C1068 C 0.60868 0.87515 0.96093 0.0
C1069 C 0.15644 0.62701 0.99793 0.0
C1070 C 0.12871 0.63435 0.01242 0.0
C1071 C 0.15897 0.62713 0.96589 0.0
C1072 C 0.13371 0.63401 0.94709 0.0
H1073 H 0.17638 0.62117 0.01144 0.0
H1074 H 0.18072 0.62092 0.95581 0.0
S1075 S 0.05606 0.65534 0.97381 0.0
N1076 N 0.07563 0.64944 0.00562 0.0
N1077 N 0.08024 0.64911 0.94547 0.0
C1078 C 0.10593 0.64174 0.96134 0.0
C1079 C 0.10348 0.64207 0.99397 0.0
C1080 C 0.34142 0.84332 0.03311 0.0
C1081 C 0.36569 0.85723 0.04895 0.0
C1082 C 0.34044 0.84361 0.00096 0.0
C1083 C 0.36428 0.85674 0.98381 0.0
H1084 H 0.32303 0.83241 0.04565 0.0
H1085 H 0.32125 0.83294 0.98943 0.0
S1086 S 0.43319 0.89532 0.01453 0.0
N1087 N 0.41393 0.88457 0.04528 0.0
N1088 N 0.41274 0.88384 0.98484 0.0
C1089 C 0.3888 0.87035 -0.0006 0.0
C1090 C 0.38933 0.87093 0.03203 0.0
C1091 C 0.12551 0.38336 0.00031 0.0
C1092 C 0.138 0.35833 0.98454 0.0
C1093 C 0.12485 0.38396 0.03242 0.0
C1094 C 0.13755 0.36 0.04971 0.0
H1095 H 0.11587 0.40242 0.98774 0.0
H1096 H 0.11515 0.40369 0.04381 0.0
S1097 S 0.17341 0.28964 0.01933 0.0
N1098 N 0.16286 0.30883 0.98846 0.0
N1099 N 0.16313 0.3108 0.04894 0.0
C1100 C 0.15034 0.33501 0.03424 0.0
C1101 C 0.15013 0.33393 0.00157 0.0
C1102 C 0.65658 0.15011 0.03523 0.0
C1103 C 0.63162 0.13707 0.05074 0.0
C1104 C 0.65828 0.14928 0.0031 0.0
C1105 C 0.63452 0.13643 0.98562 0.0
H1106 H 0.67502 0.16066 0.04801 0.0
H1107 H 0.67798 0.15927 0.99185 0.0
S1108 S 0.56396 0.10014 0.01539 0.0
N1109 N 0.58278 0.11092 0.04638 0.0
N1110 N 0.58535 0.11062 0.986 0.0
C1111 C 0.6093 0.12375 0.00088 0.0
C1112 C 0.60801 0.12374 0.03349 0.0
C1113 C 0.83799 0.62541 0.99819 0.0
C1114 C 0.86518 0.6344 0.98357 0.0
C1115 C 0.83565 0.62523 0.03024 0.0
C1116 C 0.86062 0.63346 0.0489 0.0
H1117 H 0.81831 0.6185 0.98479 0.0
H1118 H 0.81434 0.61777 0.04044 0.0
S1119 S 0.93682 0.65928 0.0218 0.0
N1120 N 0.9174 0.65241 0.99009 0.0
N1121 N 0.91319 0.65157 0.05026 0.0
C1122 C 0.88785 0.64281 0.03451 0.0
C1123 C 0.89007 0.64343 0.00188 0.0
C1124 C 0.96212 0.3522 0.11508 0.0
C1125 C 0.94792 0.36141 0.14247 0.0
C1126 C 0.99401 0.35173 0.11235 0.0
C1127 C 0.01294 0.36103 0.1367 0.0
H1128 H 0.9485 0.34558 0.09542 0.0
H1129 H 0.00386 0.34476 0.09068 0.0
S1130 S 0.98734 0.38604 0.21377 0.0
N1131 N 0.95538 0.37893 0.19494 0.0
N1132 N 0.01529 0.37861 0.1895 0.0
C1133 C -0.00088 0.36979 0.16441 0.0
C1134 C 0.96663 0.36977 0.16739 0.0
C1135 C 0.96145 0.64439 0.88143 0.0
C1136 C 0.94641 0.6335 0.85511 0.0
C1137 C 0.99344 0.64554 0.88289 0.0
C1138 C 0.01154 0.63516 0.85837 0.0
H1139 H 0.94843 0.6519 0.90115 0.0
H1140 H 0.00404 0.65383 0.90374 0.0
S1141 S 0.98351 0.60525 0.78397 0.0
N1142 N 0.95217 0.61301 0.80352 0.0
N1143 N 0.01223 0.61453 0.80669 0.0
C1144 C 0.99685 0.62457 0.83179 0.0
C1145 C 0.9643 0.62395 0.83004 0.0
C1146 C 0.35239 0.98891 0.88991 0.0
C1147 C 0.35842 0.00821 0.86481 0.0
C1148 C 0.35434 0.95706 0.88718 0.0
C1149 C 0.36186 0.94317 0.8591 0.0
H1150 H 0.34687 -0.00155 0.91213 0.0
H1151 H 0.35016 0.94325 0.90737 0.0
S1152 S 0.37779 0.9835 0.78582 0.0
N1153 N 0.37105 0.01116 0.81062 0.0
N1154 N 0.37417 0.95131 0.80525 0.0
C1155 C 0.36695 0.9622 0.83351 0.0
C1156 C 0.36543 0.99469 0.83644 0.0
C1157 C 0.00062 0.38365 0.8712 0.0
C1158 C 0.98525 0.35678 0.86258 0.0
C1159 C 0.03261 0.38507 0.87112 0.0
C1160 C 0.05017 0.35997 0.86156 0.0
H1161 H 0.98784 0.40358 0.87845 0.0
H1162 H 0.04368 0.40618 0.87789 0.0
S1163 S 0.02102 0.28464 0.83626 0.0
N1164 N 0.98994 0.30444 0.8445 0.0
N1165 N 0.05018 0.30767 0.84313 0.0
C1166 C 0.03516 0.3331 0.85262 0.0
C1167 C 0.00261 0.33134 0.85349 0.0
C1168 C 0.64545 0.03608 0.88156 0.0
C1169 C 0.63433 0.05178 0.85569 0.0
C1170 C 0.64573 0.00408 0.88263 0.0
C1171 C 0.6343 0.98655 0.85816 0.0
H1172 H 0.65364 0.0486 0.90135 0.0
H1173 H 0.65414 0.99303 0.9032 0.0
S1174 S 0.60415 0.01621 0.78447 0.0
N1175 N 0.61301 0.04711 0.80428 0.0
N1176 N 0.61292 0.98702 0.80676 0.0
C1177 C 0.62373 0.00183 0.8319 0.0
C1178 C 0.62396 0.03442 0.83053 0.0
C1179 C 0.03343 0.64192 0.11483 0.0
C1180 C 0.04821 0.63097 0.14128 0.0
C1181 C 0.00151 0.64342 0.1132 0.0
C1182 C 0.98315 0.63343 0.13771 0.0
H1183 H 0.0466 0.6493 0.09514 0.0
H1184 H 0.99114 0.65177 0.09225 0.0
S1185 S 0.01044 0.60355 0.21243 0.0
N1186 N 0.04197 0.61079 0.19295 0.0
N1187 N 0.98194 0.61306 0.18954 0.0
C1188 C -0.00244 0.62275 0.16442 0.0
C1189 C 0.0301 0.62171 0.16631 0.0
C1190 C 0.3576 0.0333 0.11201 0.0
C1191 C 0.36589 0.04762 0.13966 0.0
C1192 C 0.35713 0.00141 0.10943 0.0
C1193 C 0.36546 0.9826 0.13421 0.0
H1194 H 0.35156 0.04681 0.09209 0.0
H1195 H 0.3508 0.99148 0.08759 0.0
S1196 S 0.38809 0.00853 0.21194 0.0
N1197 N 0.38173 0.04039 0.19271 0.0
N1198 N 0.38136 0.98047 0.18758 0.0
C1199 C 0.37345 0.99653 0.16211 0.0
C1200 C 0.37347 0.02902 0.16492 0.0
C1201 C 0.62408 0.99657 0.15765 0.0
C1202 C 0.63259 0.01196 0.13069 0.0
C1203 C 0.62425 0.96459 0.15913 0.0
C1204 C 0.63234 0.94681 0.13349 0.0
H1205 H 0.61732 0.00932 0.17782 0.0
H1206 H 0.61714 0.95376 0.1803 0.0
S1207 S 0.65687 0.97614 0.05754 0.0
N1208 N 0.64998 0.00714 0.07795 0.0
N1209 N 0.64973 0.94701 0.08054 0.0
C1210 C 0.64118 0.96194 0.10647 0.0
C1211 C 0.64148 0.99452 0.10512 0.0
C1212 C 0.12743 0.30156 0.29377 0.0
C1213 C 0.14195 0.27294 0.29539 0.0
C1214 C 0.12606 0.31785 0.266 0.0
C1215 C 0.13947 0.30605 0.23921 0.0
H1216 H 0.11682 0.31122 0.31399 0.0
H1217 H 0.11491 0.33993 0.26556 0.0
S1218 S 0.18132 0.23307 0.23165 0.0
N1219 N 0.17115 0.23435 0.26805 0.0
N1220 N 0.16786 0.2646 0.21597 0.0
C1221 C 0.15426 0.27774 0.24066 0.0
C1222 C 0.15574 0.26127 0.26875 0.0
C1223 C 0.67721 0.12081 0.26585 0.0
C1224 C 0.69043 0.13148 0.23848 0.0
C1225 C 0.69338 0.12222 0.29368 0.0
C1226 C 0.7233 0.13393 0.29474 0.0
H1227 H 0.654 0.11217 0.26586 0.0
H1228 H 0.68241 0.11426 0.31446 0.0
S1229 S 0.76753 0.16505 0.22919 0.0
N1230 N 0.73474 0.15413 0.21401 0.0
N1231 N 0.76502 0.15704 0.26606 0.0
C1232 C 0.73664 0.14452 0.26739 0.0
C1233 C 0.72021 0.14317 0.23928 0.0
C1234 C 0.86572 0.69186 0.29325 0.0
C1235 C 0.85376 0.72165 0.29443 0.0
C1236 C 0.86702 0.67573 0.26542 0.0
C1237 C 0.85603 0.68887 0.23813 0.0
H1238 H 0.87435 0.68111 0.31388 0.0
H1239 H 0.87624 0.65277 0.26528 0.0
S1240 S 0.82137 0.76533 0.2292 0.0
N1241 N 0.82953 0.76291 0.26604 0.0
N1242 N 0.83258 0.73277 0.21389 0.0
C1243 C 0.84374 0.71835 0.23911 0.0
C1244 C 0.8424 0.73471 0.26725 0.0
C1245 C 0.28068 0.84244 0.24138 0.0
C1246 C 0.30859 0.858 0.23859 0.0
C1247 C 0.26464 0.84227 0.2691 0.0
C1248 C 0.27592 0.85772 0.29503 0.0
H1249 H 0.27117 0.83029 0.22193 0.0
H1250 H 0.24347 0.82953 0.27028 0.0
S1251 S 0.34939 0.89961 0.30026 0.0
N1252 N 0.34805 0.88741 0.26445 0.0
N1253 N 0.31752 0.88758 0.31663 0.0
C1254 C 0.30426 0.87264 0.29279 0.0
C1255 C 0.32064 0.8728 0.26448 0.0
C1256 C 0.11443 0.72476 0.72191 0.0
C1257 C 0.13574 0.7182 0.69862 0.0
C1258 C 0.11514 0.7094 0.7501 0.0
C1259 C 0.13663 0.68631 0.75579 0.0
H1260 H 0.09696 0.74184 0.71853 0.0
H1261 H 0.0989 0.71583 0.76768 0.0
S1262 S 0.19402 0.65659 0.70091 0.0
N1263 N 0.17725 0.68492 0.6824 0.0
N1264 N 0.17709 0.65474 0.73467 0.0
C1265 C 0.15667 0.67798 0.73208 0.0
C1266 C 0.15645 0.69409 0.70361 0.0
C1267 C 0.26173 0.1546 0.72677 0.0
C1268 C 0.27283 0.13898 0.70089 0.0
C1269 C 0.27725 0.15355 0.75478 0.0
C1270 C 0.30445 0.13687 0.75794 0.0
H1271 H 0.2411 0.16814 0.72532 0.0
H1272 H 0.26794 0.16592 0.77415 0.0
S1273 S 0.34442 0.09402 0.69666 0.0
N1274 N 0.31343 0.10756 0.6798 0.0
N1275 N 0.34297 0.10597 0.73255 0.0
C1276 C 0.31627 0.12176 0.73214 0.0
C1277 C 0.30044 0.12287 0.70353 0.0
C1278 C 0.87181 0.31675 0.7358 0.0
C1279 C 0.8584 0.30468 0.76249 0.0
C1280 C 0.87059 0.30073 0.70793 0.0
C1281 C 0.85597 0.27217 0.70598 0.0
H1282 H 0.88295 0.33886 0.73638 0.0
H1283 H 0.88138 0.31058 0.68787 0.0
S1284 S 0.81489 0.23227 0.76885 0.0
N1285 N 0.82895 0.26335 0.78502 0.0
N1286 N 0.82561 0.23382 0.73261 0.0
C1287 C 0.84169 0.2604 0.73236 0.0
C1288 C 0.84316 0.27654 0.76065 0.0
C1289 C 0.67831 0.84396 0.72942 0.0
C1290 C 0.68439 0.867 0.75107 0.0
C1291 C 0.69365 0.84313 0.70125 0.0
C1292 C 0.71511 0.86574 0.69339 0.0
H1293 H 0.66215 0.82591 0.7346 0.0
H1294 H 0.6895 0.82399 0.68607 0.0
S1295 S 0.73392 0.93476 0.73909 0.0
N1296 N 0.71086 0.91476 0.76136 0.0
N1297 N 0.73699 0.91505 0.70698 0.0
C1298 C 0.71903 0.89057 0.71351 0.0
C1299 C 0.70429 0.89078 0.74269 0.0
C1300 C 0.26341 0.11922 0.3205 0.0
C1301 C 0.23705 0.13207 0.30733 0.0
C1302 C 0.29156 0.1201 0.30501 0.0
C1303 C 0.29396 0.13343 0.27577 0.0
H1304 H 0.26235 0.10907 0.34313 0.0
H1305 H 0.31152 0.11023 0.31587 0.0
S1306 S 0.23147 0.17041 0.23191 0.0
N1307 N 0.21496 0.1585 0.26379 0.0
N1308 N 0.2677 0.16048 0.23481 0.0
C1309 C 0.26767 0.14635 0.26254 0.0
C1310 C 0.23921 0.14554 0.27829 0.0
C1311 C 0.88372 0.27782 0.27835 0.0
C1312 C 0.86171 0.30057 0.28416 0.0
C1313 C 0.88336 0.24992 0.29416 0.0
C1314 C 0.8614 0.24399 0.31683 0.0
H1315 H 0.90135 0.28135 0.26138 0.0
H1316 H 0.90002 0.23263 0.28814 0.0
S1317 S 0.80248 0.29787 0.34505 0.0
N1318 N 0.81938 0.31633 0.31671 0.0
N1319 N 0.82003 0.26459 0.34761 0.0
C1320 C 0.84083 0.26733 0.32464 0.0
C1321 C 0.84077 0.29552 0.30814 0.0
C1322 C 0.70517 0.87379 0.2996 0.0
C1323 C 0.70376 0.86082 0.27015 0.0
C1324 C 0.73283 0.87469 0.31599 0.0
C1325 C 0.75965 0.86216 0.30353 0.0
H1326 H 0.6848 0.8833 0.30998 0.0
H1327 H 0.73311 0.88452 0.33877 0.0
S1328 S 0.76795 0.82509 0.22787 0.0
N1329 N 0.73154 0.83459 0.22972 0.0
N1330 N 0.78334 0.83666 0.2604 0.0
C1331 C 0.75853 0.84918 0.27425 0.0
C1332 C 0.73058 0.84835 0.25758 0.0
C1333 C 0.15639 0.7228 0.26519 0.0
C1334 C 0.14219 0.69659 0.27739 0.0
C1335 C 0.15596 0.75063 0.28095 0.0
C1336 C 0.14132 0.75323 0.30942 0.0
H1337 H 0.16816 0.7218 0.2434 0.0
H1338 H 0.16693 0.77035 0.27067 0.0
S1339 S 0.10345 0.69088 0.35268 0.0
N1340 N 0.11482 0.67454 0.32051 0.0
N1341 N 0.11439 0.72697 0.35042 0.0
C1342 C 0.12799 0.72704 0.32244 0.0
C1343 C 0.12847 0.69864 0.30639 0.0
C1344 C 0.29262 0.86737 0.69373 0.0
C1345 C 0.29382 0.85348 0.72276 0.0
C1346 C 0.26506 0.86891 0.67729 0.0
C1347 C 0.23799 0.85646 0.6894 0.0
H1348 H 0.31306 0.87724 0.68377 0.0
H1349 H 0.265 0.87945 0.65482 0.0
S1350 S 0.22953 0.81552 0.76324 0.0
N1351 N 0.26597 0.82523 0.76187 0.0
N1352 N 0.21418 0.82895 0.7314 0.0
C1353 C 0.23904 0.8421 0.7181 0.0
C1354 C 0.26698 0.84039 0.73471 0.0
C1355 C 0.15204 0.26887 0.73256 0.0
C1356 C 0.13628 0.29463 0.72154 0.0
C1357 C 0.15135 0.24111 0.71665 0.0
C1358 C 0.1349 0.23817 0.68918 0.0
H1359 H 0.16516 0.27022 0.75358 0.0
H1360 H 0.16377 0.22178 0.7259 0.0
S1361 S 0.09188 0.29941 0.64942 0.0
N1362 N 0.10508 0.31596 0.68079 0.0
N1363 N 0.10403 0.26368 0.65058 0.0
C1364 C 0.11963 0.2639 0.6775 0.0
C1365 C 0.12041 0.29224 0.6937 0.0
C1366 C 0.72341 0.15726 0.73379 0.0
C1367 C 0.69708 0.14273 0.72233 0.0
C1368 C 0.7513 0.15552 0.71824 0.0
C1369 C 0.75385 0.13927 0.69065 0.0
H1370 H 0.72243 0.17048 0.75471 0.0
H1371 H 0.77105 0.16702 0.72786 0.0
S1372 S 0.69128 0.09946 0.64956 0.0
N1373 N 0.67495 0.11289 0.68093 0.0
N1374 N 0.72747 0.11015 0.65128 0.0
C1375 C 0.72761 0.12536 0.67842 0.0
C1376 C 0.69914 0.12711 0.6943 0.0
C1377 C 0.87878 0.7196 0.72393 0.0
C1378 C 0.85915 0.69526 0.71606 0.0
C1379 C 0.8779 0.7475 0.70821 0.0
C1380 C 0.85829 0.75182 0.68316 0.0
H1381 H 0.89509 0.7174 0.74233 0.0
H1382 H 0.89247 0.76599 0.71597 0.0
S1383 S 0.80732 0.69356 0.64856 0.0
N1384 N 0.82205 0.67645 0.6789 0.0
N1385 N 0.82255 0.72809 0.64783 0.0
C1386 C 0.84059 0.72695 0.67317 0.0
C1387 C 0.84067 0.69882 0.68981 0.0
C1388 C 0.28006 0.23911 0.15551 0.0
C1389 C 0.30839 0.23631 0.14076 0.0
C1390 C 0.26429 0.26691 0.15546 0.0
C1391 C 0.27629 0.29283 0.14057 0.0
H1392 H 0.27 0.21963 0.16711 0.0
H1393 H 0.24274 0.26812 0.16755 0.0
S1394 S 0.35108 0.2979 0.10106 0.0
N1395 N 0.34901 0.26208 0.11288 0.0
N1396 N 0.319 0.31437 0.11226 0.0
C1397 C 0.30508 0.29054 0.12658 0.0
C1398 C 0.32117 0.2622 0.12666 0.0
C1399 C 0.26358 0.72593 0.85327 0.0
C1400 C 0.27689 0.69808 0.86231 0.0
C1401 C 0.28037 0.75316 0.85359 0.0
C1402 C 0.31105 0.75346 0.86291 0.0
H1403 H 0.24014 0.72664 0.84532 0.0
H1404 H 0.26939 0.7741 0.84622 0.0
S1405 S 0.35724 0.68653 0.88643 0.0
N1406 N 0.32295 0.67226 0.87942 0.0
N1407 N 0.35473 0.72363 0.87971 0.0
C1408 C 0.32488 0.7258 0.87144 0.0
C1409 C 0.30776 0.69801 0.87107 0.0
C1410 C 0.26834 0.26313 0.84567 0.0
C1411 C 0.29564 0.27543 0.85751 0.0
C1412 C 0.24097 0.27958 0.84665 0.0
C1413 C 0.23994 0.30907 0.85919 0.0
H1414 H 0.26808 0.2408 0.83506 0.0
H1415 H 0.22045 0.26922 0.83739 0.0
S1416 S 0.30548 0.3531 0.89 0.0
N1417 N 0.32026 0.31971 0.8804 0.0
N1418 N 0.26878 0.35111 0.88126 0.0
C1419 C 0.26716 0.3222 0.87004 0.0
C1420 C 0.29507 0.30532 0.86927 0.0
C1421 C 0.71305 0.24293 0.84864 0.0
C1422 C 0.68405 0.24201 0.86231 0.0
C1423 C 0.73041 0.26979 0.84868 0.0
C1424 C 0.71936 0.29668 0.86243 0.0
H1425 H 0.72236 0.22269 0.8378 0.0
H1426 H 0.7524 0.26954 0.83736 0.0
S1427 S 0.64351 0.30669 0.89886 0.0
N1428 N 0.64397 0.27052 0.888 0.0
N1429 N 0.67687 0.32115 0.88854 0.0
C1430 C 0.68997 0.29627 0.87539 0.0
C1431 C 0.67228 0.26884 0.87534 0.0
C1432 C 0.70506 0.6951 0.87041 0.0
C1433 C 0.70468 0.72432 0.85701 0.0
C1434 C 0.73218 0.67798 0.87167 0.0
C1435 C 0.75946 0.68947 0.85911 0.0
H1436 H 0.68429 0.68547 0.8799 0.0
H1437 H 0.73169 0.65538 0.88182 0.0
S1438 S 0.77025 0.76411 0.82059 0.0
N1439 N 0.73381 0.76355 0.83038 0.0
N1440 N 0.78456 0.7314 0.83282 0.0
C1441 C 0.75932 0.71852 0.84563 0.0
C1442 C 0.73193 0.73596 0.84453 0.0
C1443 C 0.67518 0.73121 0.12152 0.0
C1444 C 0.68841 0.75857 0.132 0.0
C1445 C 0.69147 0.70357 0.12266 0.0
C1446 C 0.72147 0.70258 0.13418 0.0
H1447 H 0.65194 0.73108 0.11296 0.0
H1448 H 0.68058 0.68289 0.11445 0.0
S1449 S 0.76521 0.76788 0.16626 0.0
N1450 N 0.73256 0.783 0.15497 0.0
N1451 N 0.7628 0.73112 0.1582 0.0
C1452 C 0.73459 0.72979 0.14527 0.0
C1453 C 0.71813 0.75779 0.14388 0.0
C1454 C 0.261 0.67824 0.12166 0.0
C1455 C 0.2353 0.68932 0.13746 0.0
C1456 C 0.28894 0.69404 0.12261 0.0
C1457 C 0.29182 0.72145 0.13914 0.0
H1458 H 0.25964 0.65699 0.10901 0.0
H1459 H 0.30831 0.68491 0.11018 0.0
S1460 S 0.23142 0.75899 0.18546 0.0
N1461 N 0.21448 0.72879 0.17043 0.0
N1462 N 0.26697 0.75806 0.17286 0.0
C1463 C 0.2663 0.73246 0.15528 0.0
C1464 C 0.238 0.71647 0.15426 0.0
C1465 C 0.70446 0.3029 0.13165 0.0
C1466 C 0.70365 0.27323 0.14402 0.0
C1467 C 0.73182 0.31969 0.13087 0.0
C1468 C 0.75905 0.3073 0.1426 0.0
H1469 H 0.68389 0.31306 0.12232 0.0
H1470 H 0.73162 0.34258 0.12141 0.0
S1471 S 0.76861 0.23187 0.17971 0.0
N1472 N 0.73212 0.23322 0.17022 0.0
N1473 N 0.78349 0.26448 0.1679 0.0
C1474 C 0.7584 0.27803 0.15553 0.0
C1475 C 0.73068 0.26103 0.15647 0.0
loop_
_geom_bond_atom_site_label_1
_geom_bond_atom_site_label_2
_geom_bond_distance
_geom_bond_site_symmetry_2
_ccdc_geom_bond_type
Co0 O3 1.970 . S
Co0 N17 1.989 . S
Co0 O25 1.967 . S
Co0 O32 1.920 . S
Co1 O4 1.966 . S
Co1 N10 2.022 . S
Co1 N18 1.993 . S
Co1 O26 1.941 . S
C2 O3 1.258 . S
C2 O4 1.263 . S
O3 Co0 1.970 . S
O3 C2 1.258 . S
O4 Co1 1.966 . S
O4 C2 1.263 . S
C5 O6 1.235 . S
C5 O32 1.289 . S
O6 C5 1.235 . S
C7 C9 1.400 . S
C7 N10 1.351 . S
C7 C12 1.501 . S
C8 C9 1.387 . S
C8 N11 1.341 . S
C9 C7 1.400 . S
C9 C8 1.387 . S
N10 Co1 2.022 . S
N10 C7 1.351 . S
N10 N11 1.365 . S
N11 C8 1.341 . S
N11 N10 1.365 . S
N11 H31 0.862 . S
C12 C7 1.501 . S
C12 H13 0.961 . S
C12 H14 0.961 . S
C12 H15 0.960 . S
H13 C12 0.961 . S
H14 C12 0.961 . S
H15 C12 0.960 . S
C16 N17 1.342 . S
C16 C20 1.401 . S
C16 C21 1.499 . S
N17 Co0 1.989 . S
N17 C16 1.342 . S
N17 N18 1.388 . S
N18 Co1 1.993 . S
N18 N17 1.388 . S
N18 C19 1.346 . S
C19 N18 1.346 . S
C19 C20 1.396 . S
C19 C29 1.510 . S
C20 C16 1.401 . S
C20 C19 1.396 . S
C21 C16 1.499 . S
C21 H22 0.959 . S
C21 H23 0.960 . S
C21 H24 0.961 . S
H22 C21 0.959 . S
H23 C21 0.960 . S
H24 C21 0.961 . S
O25 Co0 1.967 . S
O25 C33 1.258 . S
O26 Co1 1.941 . S
O26 C33 1.266 . S
H27 C29 0.959 . S
H28 C29 0.961 . S
C29 C19 1.510 . S
C29 H27 0.959 . S
C29 H28 0.961 . S
C29 H30 0.960 . S
H30 C29 0.960 . S
H31 N11 0.862 . S
O32 Co0 1.920 . S
O32 C5 1.289 . S
C33 O25 1.258 . S
C33 O26 1.266 . S
Co34 O37 1.970 . S
Co34 N51 1.989 . S
Co34 O59 1.967 . S
Co34 O66 1.920 . S
Co35 O38 1.966 . S
Co35 N44 2.022 . S
Co35 N52 1.993 . S
Co35 O60 1.941 . S
C36 O37 1.258 . S
C36 O38 1.263 . S
O37 Co34 1.970 . S
O37 C36 1.258 . S
O38 Co35 1.966 . S
O38 C36 1.263 . S
C39 O40 1.235 . S
C39 O66 1.289 . S
O40 C39 1.235 . S
C41 C43 1.400 . S
C41 N44 1.351 . S
C41 C46 1.501 . S
C42 C43 1.387 . S
C42 N45 1.341 . S
C43 C41 1.400 . S
C43 C42 1.387 . S
N44 Co35 2.022 . S
N44 C41 1.351 . S
N44 N45 1.365 . S
N45 C42 1.341 . S
N45 N44 1.365 . S
N45 H65 0.862 . S
C46 C41 1.501 . S
C46 H47 0.961 . S
C46 H48 0.961 . S
C46 H49 0.960 . S
H47 C46 0.961 . S
H48 C46 0.961 . S
H49 C46 0.960 . S
C50 N51 1.342 . S
C50 C54 1.401 . S
C50 C55 1.499 . S
N51 Co34 1.989 . S
N51 C50 1.342 . S
N51 N52 1.388 . S
N52 Co35 1.993 . S
N52 N51 1.388 . S
N52 C53 1.346 . S
C53 N52 1.346 . S
C53 C54 1.396 . S
C53 C63 1.510 . S
C54 C50 1.401 . S
C54 C53 1.396 . S
C55 C50 1.499 . S
C55 H56 0.959 . S
C55 H57 0.960 . S
C55 H58 0.961 . S
H56 C55 0.959 . S
H57 C55 0.960 . S
H58 C55 0.961 . S
O59 Co34 1.967 . S
O59 C67 1.258 . S
O60 Co35 1.941 . S
O60 C67 1.266 . S
H61 C63 0.959 . S
H62 C63 0.961 . S
C63 C53 1.510 . S
C63 H61 0.959 . S
C63 H62 0.961 . S
C63 H64 0.960 . S
H64 C63 0.960 . S
H65 N45 0.862 . S
O66 Co34 1.920 . S
O66 C39 1.289 . S
C67 O59 1.258 . S
C67 O60 1.266 . S
Co68 O71 1.970 . S
Co68 N85 1.989 . S
Co68 O93 1.967 . S
Co68 O100 1.920 . S
Co69 O72 1.966 . S
Co69 N78 2.022 . S
Co69 N86 1.993 . S
Co69 O94 1.941 . S
C70 O71 1.258 . S
C70 O72 1.263 . S
O71 Co68 1.970 . S
O71 C70 1.258 . S
O72 Co69 1.966 . S
O72 C70 1.263 . S
C73 O74 1.235 . S
C73 O100 1.289 . S
O74 C73 1.235 . S
C75 C77 1.400 . S
C75 N78 1.351 . S
C75 C80 1.501 . S
C76 C77 1.387 . S
C76 N79 1.341 . S
C77 C75 1.400 . S
C77 C76 1.387 . S
N78 Co69 2.022 . S
N78 C75 1.351 . S
N78 N79 1.365 . S
N79 C76 1.341 . S
N79 N78 1.365 . S
N79 H99 0.862 . S
C80 C75 1.501 . S
C80 H81 0.961 . S
C80 H82 0.961 . S
C80 H83 0.960 . S
H81 C80 0.961 . S
H82 C80 0.961 . S
H83 C80 0.960 . S
C84 N85 1.342 . S
C84 C88 1.401 . S
C84 C89 1.499 . S
N85 Co68 1.989 . S
N85 C84 1.342 . S
N85 N86 1.388 . S
N86 Co69 1.993 . S
N86 N85 1.388 . S
N86 C87 1.346 . S
C87 N86 1.346 . S
C87 C88 1.396 . S
C87 C97 1.510 . S
C88 C84 1.401 . S
C88 C87 1.396 . S
C89 C84 1.499 . S
C89 H90 0.959 . S
C89 H91 0.960 . S
C89 H92 0.961 . S
H90 C89 0.959 . S
H91 C89 0.960 . S
H92 C89 0.961 . S
O93 Co68 1.967 . S
O93 C101 1.258 . S
O94 Co69 1.941 . S
O94 C101 1.266 . S
H95 C97 0.959 . S
H96 C97 0.961 . S
C97 C87 1.510 . S
C97 H95 0.959 . S
C97 H96 0.961 . S
C97 H98 0.960 . S
H98 C97 0.960 . S
H99 N79 0.862 . S
O100 Co68 1.920 . S
O100 C73 1.289 . S
C101 O93 1.258 . S
C101 O94 1.266 . S
Co102 O105 1.970 . S
Co102 N119 1.989 . S
Co102 O127 1.967 . S
Co102 O134 1.920 . S
Co103 O106 1.966 . S
Co103 N112 2.022 . S
Co103 N120 1.993 . S
Co103 O128 1.941 . S
C104 O105 1.258 . S
C104 O106 1.263 . S
O105 Co102 1.970 . S
O105 C104 1.258 . S
O106 Co103 1.966 . S
O106 C104 1.263 . S
C107 O108 1.235 . S
C107 O134 1.289 . S
O108 C107 1.235 . S
C109 C111 1.400 . S
C109 N112 1.351 . S
C109 C114 1.501 . S
C110 C111 1.387 . S
C110 N113 1.341 . S
C111 C109 1.400 . S
C111 C110 1.387 . S
N112 Co103 2.022 . S
N112 C109 1.351 . S
N112 N113 1.365 . S
N113 C110 1.341 . S
N113 N112 1.365 . S
N113 H133 0.862 . S
C114 C109 1.501 . S
C114 H115 0.961 . S
C114 H116 0.961 . S
C114 H117 0.960 . S
H115 C114 0.961 . S
H116 C114 0.961 . S
H117 C114 0.960 . S
C118 N119 1.342 . S
C118 C122 1.401 . S
C118 C123 1.499 . S
N119 Co102 1.989 . S
N119 C118 1.342 . S
N119 N120 1.388 . S
N120 Co103 1.993 . S
N120 N119 1.388 . S
N120 C121 1.346 . S
C121 N120 1.346 . S
C121 C122 1.396 . S
C121 C131 1.510 . S
C122 C118 1.401 . S
C122 C121 1.396 . S
C123 C118 1.499 . S
C123 H124 0.959 . S
C123 H125 0.960 . S
C123 H126 0.961 . S
H124 C123 0.959 . S
H125 C123 0.960 . S
H126 C123 0.961 . S
O127 Co102 1.967 . S
O127 C135 1.258 . S
O128 Co103 1.941 . S
O128 C135 1.266 . S
H129 C131 0.959 . S
H130 C131 0.961 . S
C131 C121 1.510 . S
C131 H129 0.959 . S
C131 H130 0.961 . S
C131 H132 0.960 . S
H132 C131 0.960 . S
H133 N113 0.862 . S
O134 Co102 1.920 . S
O134 C107 1.289 . S
C135 O127 1.258 . S
C135 O128 1.266 . S
Co136 O139 1.970 . S
Co136 N153 1.989 . S
Co136 O161 1.967 . S
Co136 O168 1.920 . S
Co137 O140 1.966 . S
Co137 N146 2.022 . S
Co137 N154 1.993 . S
Co137 O162 1.941 . S
C138 O139 1.258 . S
C138 O140 1.263 . S
O139 Co136 1.970 . S
O139 C138 1.258 . S
O140 Co137 1.966 . S
O140 C138 1.263 . S
C141 O142 1.235 . S
C141 O168 1.289 . S
O142 C141 1.235 . S
C143 C145 1.400 . S
C143 N146 1.351 . S
C143 C148 1.501 . S
C144 C145 1.387 . S
C144 N147 1.341 . S
C145 C143 1.400 . S
C145 C144 1.387 . S
N146 Co137 2.022 . S
N146 C143 1.351 . S
N146 N147 1.365 . S
N147 C144 1.341 . S
N147 N146 1.365 . S
N147 H167 0.862 . S
C148 C143 1.501 . S
C148 H149 0.961 . S
C148 H150 0.961 . S
C148 H151 0.960 . S
H149 C148 0.961 . S
H150 C148 0.961 . S
H151 C148 0.960 . S
C152 N153 1.342 . S
C152 C156 1.401 . S
C152 C157 1.499 . S
N153 Co136 1.989 . S
N153 C152 1.342 . S
N153 N154 1.388 . S
N154 Co137 1.993 . S
N154 N153 1.388 . S
N154 C155 1.346 . S
C155 N154 1.346 . S
C155 C156 1.396 . S
C155 C165 1.510 . S
C156 C152 1.401 . S
C156 C155 1.396 . S
C157 C152 1.499 . S
C157 H158 0.959 . S
C157 H159 0.960 . S
C157 H160 0.961 . S
H158 C157 0.959 . S
H159 C157 0.960 . S
H160 C157 0.961 . S
O161 Co136 1.967 . S
O161 C169 1.258 . S
O162 Co137 1.941 . S
O162 C169 1.266 . S
H163 C165 0.959 . S
H164 C165 0.961 . S
C165 C155 1.510 . S
C165 H163 0.959 . S
C165 H164 0.961 . S
C165 H166 0.960 . S
H166 C165 0.960 . S
H167 N147 0.862 . S
O168 Co136 1.920 . S
O168 C141 1.289 . S
C169 O161 1.258 . S
C169 O162 1.266 . S
Co170 O173 1.970 . S
Co170 N187 1.989 . S
Co170 O195 1.967 . S
Co170 O202 1.920 . S
Co171 O174 1.966 . S
Co171 N180 2.022 . S
Co171 N188 1.993 . S
Co171 O196 1.941 . S
C172 O173 1.258 . S
C172 O174 1.263 . S
O173 Co170 1.970 . S
O173 C172 1.258 . S
O174 Co171 1.966 . S
O174 C172 1.263 . S
C175 O176 1.235 . S
C175 O202 1.289 . S
O176 C175 1.235 . S
C177 C179 1.400 . S
C177 N180 1.351 . S
C177 C182 1.501 . S
C178 C179 1.387 . S
C178 N181 1.341 . S
C179 C177 1.400 . S
C179 C178 1.387 . S
N180 Co171 2.022 . S
N180 C177 1.351 . S
N180 N181 1.365 . S
N181 C178 1.341 . S
N181 N180 1.365 . S
N181 H201 0.862 . S
C182 C177 1.501 . S
C182 H183 0.961 . S
C182 H184 0.961 . S
C182 H185 0.960 . S
H183 C182 0.961 . S
H184 C182 0.961 . S
H185 C182 0.960 . S
C186 N187 1.342 . S
C186 C190 1.401 . S
C186 C191 1.499 . S
N187 Co170 1.989 . S
N187 C186 1.342 . S
N187 N188 1.388 . S
N188 Co171 1.993 . S
N188 N187 1.388 . S
N188 C189 1.346 . S
C189 N188 1.346 . S
C189 C190 1.396 . S
C189 C199 1.510 . S
C190 C186 1.401 . S
C190 C189 1.396 . S
C191 C186 1.499 . S
C191 H192 0.959 . S
C191 H193 0.960 . S
C191 H194 0.961 . S
H192 C191 0.959 . S
H193 C191 0.960 . S
H194 C191 0.961 . S
O195 Co170 1.967 . S
O195 C203 1.258 . S
O196 Co171 1.941 . S
O196 C203 1.266 . S
H197 C199 0.959 . S
H198 C199 0.961 . S
C199 C189 1.510 . S
C199 H197 0.959 . S
C199 H198 0.961 . S
C199 H200 0.960 . S
H200 C199 0.960 . S
H201 N181 0.862 . S
O202 Co170 1.920 . S
O202 C175 1.289 . S
C203 O195 1.258 . S
C203 O196 1.266 . S
Co204 O207 1.970 . S
Co204 N221 1.989 . S
Co204 O229 1.967 . S
Co204 O236 1.920 . S
Co205 O208 1.966 . S
Co205 N214 2.022 . S
Co205 N222 1.993 . S
Co205 O230 1.941 . S
C206 O207 1.258 . S
C206 O208 1.263 . S
O207 Co204 1.970 . S
O207 C206 1.258 . S
O208 Co205 1.966 . S
O208 C206 1.263 . S
C209 O210 1.235 . S
C209 O236 1.289 . S
O210 C209 1.235 . S
C211 C213 1.400 . S
C211 N214 1.351 . S
C211 C216 1.501 . S
C212 C213 1.387 . S
C212 N215 1.341 . S
C213 C211 1.400 . S
C213 C212 1.387 . S
N214 Co205 2.022 . S
N214 C211 1.351 . S
N214 N215 1.365 . S
N215 C212 1.341 . S
N215 N214 1.365 . S
N215 H235 0.862 . S
C216 C211 1.501 . S
C216 H217 0.961 . S
C216 H218 0.961 . S
C216 H219 0.960 . S
H217 C216 0.961 . S
H218 C216 0.961 . S
H219 C216 0.960 . S
C220 N221 1.342 . S
C220 C224 1.401 . S
C220 C225 1.499 . S
N221 Co204 1.989 . S
N221 C220 1.342 . S
N221 N222 1.388 . S
N222 Co205 1.993 . S
N222 N221 1.388 . S
N222 C223 1.346 . S
C223 N222 1.346 . S
C223 C224 1.396 . S
C223 C233 1.510 . S
C224 C220 1.401 . S
C224 C223 1.396 . S
C225 C220 1.499 . S
C225 H226 0.959 . S
C225 H227 0.960 . S
C225 H228 0.961 . S
H226 C225 0.959 . S
H227 C225 0.960 . S
H228 C225 0.961 . S
O229 Co204 1.967 . S
O229 C237 1.258 . S
O230 Co205 1.941 . S
O230 C237 1.266 . S
H231 C233 0.959 . S
H232 C233 0.961 . S
C233 C223 1.510 . S
C233 H231 0.959 . S
C233 H232 0.961 . S
C233 H234 0.960 . S
H234 C233 0.960 . S
H235 N215 0.862 . S
O236 Co204 1.920 . S
O236 C209 1.289 . S
C237 O229 1.258 . S
C237 O230 1.266 . S
Co238 O241 1.970 . S
Co238 N255 1.989 . S
Co238 O263 1.967 . S
Co238 O270 1.920 . S
Co239 O242 1.966 . S
Co239 N248 2.022 . S
Co239 N256 1.993 . S
Co239 O264 1.941 . S
C240 O241 1.258 . S
C240 O242 1.263 . S
O241 Co238 1.970 . S
O241 C240 1.258 . S
O242 Co239 1.966 . S
O242 C240 1.263 . S
C243 O244 1.235 . S
C243 O270 1.289 . S
O244 C243 1.235 . S
C245 C247 1.400 . S
C245 N248 1.351 . S
C245 C250 1.501 . S
C246 C247 1.387 . S
C246 N249 1.341 . S
C247 C245 1.400 . S
C247 C246 1.387 . S
N248 Co239 2.022 . S
N248 C245 1.351 . S
N248 N249 1.365 . S
N249 C246 1.341 . S
N249 N248 1.365 . S
N249 H269 0.862 . S
C250 C245 1.501 . S
C250 H251 0.961 . S
C250 H252 0.961 . S
C250 H253 0.960 . S
H251 C250 0.961 . S
H252 C250 0.961 . S
H253 C250 0.960 . S
C254 N255 1.342 . S
C254 C258 1.401 . S
C254 C259 1.499 . S
N255 Co238 1.989 . S
N255 C254 1.342 . S
N255 N256 1.388 . S
N256 Co239 1.993 . S
N256 N255 1.388 . S
N256 C257 1.346 . S
C257 N256 1.346 . S
C257 C258 1.396 . S
C257 C267 1.510 . S
C258 C254 1.401 . S
C258 C257 1.396 . S
C259 C254 1.499 . S
C259 H260 0.959 . S
C259 H261 0.960 . S
C259 H262 0.961 . S
H260 C259 0.959 . S
H261 C259 0.960 . S
H262 C259 0.961 . S
O263 Co238 1.967 . S
O263 C271 1.258 . S
O264 Co239 1.941 . S
O264 C271 1.266 . S
H265 C267 0.959 . S
H266 C267 0.961 . S
C267 C257 1.510 . S
C267 H265 0.959 . S
C267 H266 0.961 . S
C267 H268 0.960 . S
H268 C267 0.960 . S
H269 N249 0.862 . S
O270 Co238 1.920 . S
O270 C243 1.289 . S
C271 O263 1.258 . S
C271 O264 1.266 . S
Co272 O275 1.970 . S
Co272 N289 1.989 . S
Co272 O297 1.967 . S
Co272 O304 1.920 . S
Co273 O276 1.966 . S
Co273 N282 2.022 . S
Co273 N290 1.993 . S
Co273 O298 1.941 . S
C274 O275 1.258 . S
C274 O276 1.263 . S
O275 Co272 1.970 . S
O275 C274 1.258 . S
O276 Co273 1.966 . S
O276 C274 1.263 . S
C277 O278 1.235 . S
C277 O304 1.289 . S
O278 C277 1.235 . S
C279 C281 1.400 . S
C279 N282 1.351 . S
C279 C284 1.501 . S
C280 C281 1.387 . S
C280 N283 1.341 . S
C281 C279 1.400 . S
C281 C280 1.387 . S
N282 Co273 2.022 . S
N282 C279 1.351 . S
N282 N283 1.365 . S
N283 C280 1.341 . S
N283 N282 1.365 . S
N283 H303 0.862 . S
C284 C279 1.501 . S
C284 H285 0.961 . S
C284 H286 0.961 . S
C284 H287 0.960 . S
H285 C284 0.961 . S
H286 C284 0.961 . S
H287 C284 0.960 . S
C288 N289 1.342 . S
C288 C292 1.401 . S
C288 C293 1.499 . S
N289 Co272 1.989 . S
N289 C288 1.342 . S
N289 N290 1.388 . S
N290 Co273 1.993 . S
N290 N289 1.388 . S
N290 C291 1.346 . S
C291 N290 1.346 . S
C291 C292 1.396 . S
C291 C301 1.510 . S
C292 C288 1.401 . S
C292 C291 1.396 . S
C293 C288 1.499 . S
C293 H294 0.959 . S
C293 H295 0.960 . S
C293 H296 0.961 . S
H294 C293 0.959 . S
H295 C293 0.960 . S
H296 C293 0.961 . S
O297 Co272 1.967 . S
O297 C305 1.258 . S
O298 Co273 1.941 . S
O298 C305 1.266 . S
H299 C301 0.959 . S
H300 C301 0.961 . S
C301 C291 1.510 . S
C301 H299 0.959 . S
C301 H300 0.961 . S
C301 H302 0.960 . S
H302 C301 0.960 . S
H303 N283 0.862 . S
O304 Co272 1.920 . S
O304 C277 1.289 . S
C305 O297 1.258 . S
C305 O298 1.266 . S
Co306 O309 1.970 . S
Co306 N323 1.989 . S
Co306 O331 1.967 . S
Co306 O338 1.920 . S
Co307 O310 1.966 . S
Co307 N316 2.022 . S
Co307 N324 1.993 . S
Co307 O332 1.941 . S
C308 O309 1.258 . S
C308 O310 1.263 . S
O309 Co306 1.970 . S
O309 C308 1.258 . S
O310 Co307 1.966 . S
O310 C308 1.263 . S
C311 O312 1.235 . S
C311 O338 1.289 . S
O312 C311 1.235 . S
C313 C315 1.400 . S
C313 N316 1.351 . S
C313 C318 1.501 . S
C314 C315 1.387 . S
C314 N317 1.341 . S
C315 C313 1.400 . S
C315 C314 1.387 . S
N316 Co307 2.022 . S
N316 C313 1.351 . S
N316 N317 1.365 . S
N317 C314 1.341 . S
N317 N316 1.365 . S
N317 H337 0.862 . S
C318 C313 1.501 . S
C318 H319 0.961 . S
C318 H320 0.961 . S
C318 H321 0.960 . S
H319 C318 0.961 . S
H320 C318 0.961 . S
H321 C318 0.960 . S
C322 N323 1.342 . S
C322 C326 1.401 . S
C322 C327 1.499 . S
N323 Co306 1.989 . S
N323 C322 1.342 . S
N323 N324 1.388 . S
N324 Co307 1.993 . S
N324 N323 1.388 . S
N324 C325 1.346 . S
C325 N324 1.346 . S
C325 C326 1.396 . S
C325 C335 1.510 . S
C326 C322 1.401 . S
C326 C325 1.396 . S
C327 C322 1.499 . S
C327 H328 0.959 . S
C327 H329 0.960 . S
C327 H330 0.961 . S
H328 C327 0.959 . S
H329 C327 0.960 . S
H330 C327 0.961 . S
O331 Co306 1.967 . S
O331 C339 1.258 . S
O332 Co307 1.941 . S
O332 C339 1.266 . S
H333 C335 0.959 . S
H334 C335 0.961 . S
C335 C325 1.510 . S
C335 H333 0.959 . S
C335 H334 0.961 . S
C335 H336 0.960 . S
H336 C335 0.960 . S
H337 N317 0.862 . S
O338 Co306 1.920 . S
O338 C311 1.289 . S
C339 O331 1.258 . S
C339 O332 1.266 . S
Co340 O343 1.970 . S
Co340 N357 1.989 . S
Co340 O365 1.967 . S
Co340 O372 1.920 . S
Co341 O344 1.966 . S
Co341 N350 2.022 . S
Co341 N358 1.993 . S
Co341 O366 1.941 . S
C342 O343 1.258 . S
C342 O344 1.263 . S
O343 Co340 1.970 . S
O343 C342 1.258 . S
O344 Co341 1.966 . S
O344 C342 1.263 . S
C345 O346 1.235 . S
C345 O372 1.289 . S
O346 C345 1.235 . S
C347 C349 1.400 . S
C347 N350 1.351 . S
C347 C352 1.501 . S
C348 C349 1.387 . S
C348 N351 1.341 . S
C349 C347 1.400 . S
C349 C348 1.387 . S
N350 Co341 2.022 . S
N350 C347 1.351 . S
N350 N351 1.365 . S
N351 C348 1.341 . S
N351 N350 1.365 . S
N351 H371 0.862 . S
C352 C347 1.501 . S
C352 H353 0.961 . S
C352 H354 0.961 . S
C352 H355 0.960 . S
H353 C352 0.961 . S
H354 C352 0.961 . S
H355 C352 0.960 . S
C356 N357 1.342 . S
C356 C360 1.401 . S
C356 C361 1.499 . S
N357 Co340 1.989 . S
N357 C356 1.342 . S
N357 N358 1.388 . S
N358 Co341 1.993 . S
N358 N357 1.388 . S
N358 C359 1.346 . S
C359 N358 1.346 . S
C359 C360 1.396 . S
C359 C369 1.510 . S
C360 C356 1.401 . S
C360 C359 1.396 . S
C361 C356 1.499 . S
C361 H362 0.959 . S
C361 H363 0.960 . S
C361 H364 0.961 . S
H362 C361 0.959 . S
H363 C361 0.960 . S
H364 C361 0.961 . S
O365 Co340 1.967 . S
O365 C373 1.258 . S
O366 Co341 1.941 . S
O366 C373 1.266 . S
H367 C369 0.959 . S
H368 C369 0.961 . S
C369 C359 1.510 . S
C369 H367 0.959 . S
C369 H368 0.961 . S
C369 H370 0.960 . S
H370 C369 0.960 . S
H371 N351 0.862 . S
O372 Co340 1.920 . S
O372 C345 1.289 . S
C373 O365 1.258 . S
C373 O366 1.266 . S
Co374 O377 1.970 . S
Co374 N391 1.989 . S
Co374 O399 1.967 . S
Co374 O406 1.920 . S
Co375 O378 1.966 . S
Co375 N384 2.022 . S
Co375 N392 1.993 . S
Co375 O400 1.941 . S
C376 O377 1.258 . S
C376 O378 1.263 . S
O377 Co374 1.970 . S
O377 C376 1.258 . S
O378 Co375 1.966 . S
O378 C376 1.263 . S
C379 O380 1.235 . S
C379 O406 1.289 . S
O380 C379 1.235 . S
C381 C383 1.400 . S
C381 N384 1.351 . S
C381 C386 1.501 . S
C382 C383 1.387 . S
C382 N385 1.341 . S
C383 C381 1.400 . S
C383 C382 1.387 . S
N384 Co375 2.022 . S
N384 C381 1.351 . S
N384 N385 1.365 . S
N385 C382 1.341 . S
N385 N384 1.365 . S
N385 H405 0.862 . S
C386 C381 1.501 . S
C386 H387 0.961 . S
C386 H388 0.961 . S
C386 H389 0.960 . S
H387 C386 0.961 . S
H388 C386 0.961 . S
H389 C386 0.960 . S
C390 N391 1.342 . S
C390 C394 1.401 . S
C390 C395 1.499 . S
N391 Co374 1.989 . S
N391 C390 1.342 . S
N391 N392 1.388 . S
N392 Co375 1.993 . S
N392 N391 1.388 . S
N392 C393 1.346 . S
C393 N392 1.346 . S
C393 C394 1.396 . S
C393 C403 1.510 . S
C394 C390 1.401 . S
C394 C393 1.396 . S
C395 C390 1.499 . S
C395 H396 0.959 . S
C395 H397 0.960 . S
C395 H398 0.961 . S
H396 C395 0.959 . S
H397 C395 0.960 . S
H398 C395 0.961 . S
O399 Co374 1.967 . S
O399 C407 1.258 . S
O400 Co375 1.941 . S
O400 C407 1.266 . S
H401 C403 0.959 . S
H402 C403 0.961 . S
C403 C393 1.510 . S
C403 H401 0.959 . S
C403 H402 0.961 . S
C403 H404 0.960 . S
H404 C403 0.960 . S
H405 N385 0.862 . S
O406 Co374 1.920 . S
O406 C379 1.289 . S
C407 O399 1.258 . S
C407 O400 1.266 . S
Co408 O411 1.970 . S
Co408 N425 1.989 . S
Co408 O433 1.967 . S
Co408 O440 1.920 . S
Co409 O412 1.966 . S
Co409 N418 2.022 . S
Co409 N426 1.993 . S
Co409 O434 1.941 . S
C410 O411 1.258 . S
C410 O412 1.263 . S
O411 Co408 1.970 . S
O411 C410 1.258 . S
O412 Co409 1.966 . S
O412 C410 1.263 . S
C413 O414 1.235 . S
C413 O440 1.289 . S
O414 C413 1.235 . S
C415 C417 1.400 . S
C415 N418 1.351 . S
C415 C420 1.501 . S
C416 C417 1.387 . S
C416 N419 1.341 . S
C417 C415 1.400 . S
C417 C416 1.387 . S
N418 Co409 2.022 . S
N418 C415 1.351 . S
N418 N419 1.365 . S
N419 C416 1.341 . S
N419 N418 1.365 . S
N419 H439 0.862 . S
C420 C415 1.501 . S
C420 H421 0.961 . S
C420 H422 0.961 . S
C420 H423 0.960 . S
H421 C420 0.961 . S
H422 C420 0.961 . S
H423 C420 0.960 . S
C424 N425 1.342 . S
C424 C428 1.401 . S
C424 C429 1.499 . S
N425 Co408 1.989 . S
N425 C424 1.342 . S
N425 N426 1.388 . S
N426 Co409 1.993 . S
N426 N425 1.388 . S
N426 C427 1.346 . S
C427 N426 1.346 . S
C427 C428 1.396 . S
C427 C437 1.510 . S
C428 C424 1.401 . S
C428 C427 1.396 . S
C429 C424 1.499 . S
C429 H430 0.959 . S
C429 H431 0.960 . S
C429 H432 0.961 . S
H430 C429 0.959 . S
H431 C429 0.960 . S
H432 C429 0.961 . S
O433 Co408 1.967 . S
O433 C441 1.258 . S
O434 Co409 1.941 . S
O434 C441 1.266 . S
H435 C437 0.959 . S
H436 C437 0.961 . S
C437 C427 1.510 . S
C437 H435 0.959 . S
C437 H436 0.961 . S
C437 H438 0.960 . S
H438 C437 0.960 . S
H439 N419 0.862 . S
O440 Co408 1.920 . S
O440 C413 1.289 . S
C441 O433 1.258 . S
C441 O434 1.266 . S
Co442 O445 1.970 . S
Co442 N459 1.989 . S
Co442 O467 1.967 . S
Co442 O474 1.920 . S
Co443 O446 1.966 . S
Co443 N452 2.022 . S
Co443 N460 1.993 . S
Co443 O468 1.941 . S
C444 O445 1.258 . S
C444 O446 1.263 . S
O445 Co442 1.970 . S
O445 C444 1.258 . S
O446 Co443 1.966 . S
O446 C444 1.263 . S
C447 O448 1.235 . S
C447 O474 1.289 . S
O448 C447 1.235 . S
C449 C451 1.400 . S
C449 N452 1.351 . S
C449 C454 1.501 . S
C450 C451 1.387 . S
C450 N453 1.341 . S
C451 C449 1.400 . S
C451 C450 1.387 . S
N452 Co443 2.022 . S
N452 C449 1.351 . S
N452 N453 1.365 . S
N453 C450 1.341 . S
N453 N452 1.365 . S
N453 H473 0.862 . S
C454 C449 1.501 . S
C454 H455 0.961 . S
C454 H456 0.961 . S
C454 H457 0.960 . S
H455 C454 0.961 . S
H456 C454 0.961 . S
H457 C454 0.960 . S
C458 N459 1.342 . S
C458 C462 1.401 . S
C458 C463 1.499 . S
N459 Co442 1.989 . S
N459 C458 1.342 . S
N459 N460 1.388 . S
N460 Co443 1.993 . S
N460 N459 1.388 . S
N460 C461 1.346 . S
C461 N460 1.346 . S
C461 C462 1.396 . S
C461 C471 1.510 . S
C462 C458 1.401 . S
C462 C461 1.396 . S
C463 C458 1.499 . S
C463 H464 0.959 . S
C463 H465 0.960 . S
C463 H466 0.961 . S
H464 C463 0.959 . S
H465 C463 0.960 . S
H466 C463 0.961 . S
O467 Co442 1.967 . S
O467 C475 1.258 . S
O468 Co443 1.941 . S
O468 C475 1.266 . S
H469 C471 0.959 . S
H470 C471 0.961 . S
C471 C461 1.510 . S
C471 H469 0.959 . S
C471 H470 0.961 . S
C471 H472 0.960 . S
H472 C471 0.960 . S
H473 N453 0.862 . S
O474 Co442 1.920 . S
O474 C447 1.289 . S
C475 O467 1.258 . S
C475 O468 1.266 . S
Co476 O479 1.970 . S
Co476 N493 1.989 . S
Co476 O501 1.967 . S
Co476 O508 1.920 . S
Co477 O480 1.966 . S
Co477 N486 2.022 . S
Co477 N494 1.993 . S
Co477 O502 1.941 . S
C478 O479 1.258 . S
C478 O480 1.263 . S
O479 Co476 1.970 . S
O479 C478 1.258 . S
O480 Co477 1.966 . S
O480 C478 1.263 . S
C481 O482 1.235 . S
C481 O508 1.289 . S
O482 C481 1.235 . S
C483 C485 1.400 . S
C483 N486 1.351 . S
C483 C488 1.501 . S
C484 C485 1.387 . S
C484 N487 1.341 . S
C485 C483 1.400 . S
C485 C484 1.387 . S
N486 Co477 2.022 . S
N486 C483 1.351 . S
N486 N487 1.365 . S
N487 C484 1.341 . S
N487 N486 1.365 . S
N487 H507 0.862 . S
C488 C483 1.501 . S
C488 H489 0.961 . S
C488 H490 0.961 . S
C488 H491 0.960 . S
H489 C488 0.961 . S
H490 C488 0.961 . S
H491 C488 0.960 . S
C492 N493 1.342 . S
C492 C496 1.401 . S
C492 C497 1.499 . S
N493 Co476 1.989 . S
N493 C492 1.342 . S
N493 N494 1.388 . S
N494 Co477 1.993 . S
N494 N493 1.388 . S
N494 C495 1.346 . S
C495 N494 1.346 . S
C495 C496 1.396 . S
C495 C505 1.510 . S
C496 C492 1.401 . S
C496 C495 1.396 . S
C497 C492 1.499 . S
C497 H498 0.959 . S
C497 H499 0.960 . S
C497 H500 0.961 . S
H498 C497 0.959 . S
H499 C497 0.960 . S
H500 C497 0.961 . S
O501 Co476 1.967 . S
O501 C509 1.258 . S
O502 Co477 1.941 . S
O502 C509 1.266 . S
H503 C505 0.959 . S
H504 C505 0.961 . S
C505 C495 1.510 . S
C505 H503 0.959 . S
C505 H504 0.961 . S
C505 H506 0.960 . S
H506 C505 0.960 . S
H507 N487 0.862 . S
O508 Co476 1.920 . S
O508 C481 1.289 . S
C509 O501 1.258 . S
C509 O502 1.266 . S
Co510 O513 1.970 . S
Co510 N527 1.989 . S
Co510 O535 1.967 . S
Co510 O542 1.920 . S
Co511 O514 1.966 . S
Co511 N520 2.022 . S
Co511 N528 1.993 . S
Co511 O536 1.941 . S
C512 O513 1.258 . S
C512 O514 1.263 . S
O513 Co510 1.970 . S
O513 C512 1.258 . S
O514 Co511 1.966 . S
O514 C512 1.263 . S
C515 O516 1.235 . S
C515 O542 1.289 . S
O516 C515 1.235 . S
C517 C519 1.400 . S
C517 N520 1.351 . S
C517 C522 1.501 . S
C518 C519 1.387 . S
C518 N521 1.341 . S
C519 C517 1.400 . S
C519 C518 1.387 . S
N520 Co511 2.022 . S
N520 C517 1.351 . S
N520 N521 1.365 . S
N521 C518 1.341 . S
N521 N520 1.365 . S
N521 H541 0.862 . S
C522 C517 1.501 . S
C522 H523 0.961 . S
C522 H524 0.961 . S
C522 H525 0.960 . S
H523 C522 0.961 . S
H524 C522 0.961 . S
H525 C522 0.960 . S
C526 N527 1.342 . S
C526 C530 1.401 . S
C526 C531 1.499 . S
N527 Co510 1.989 . S
N527 C526 1.342 . S
N527 N528 1.388 . S
N528 Co511 1.993 . S
N528 N527 1.388 . S
N528 C529 1.346 . S
C529 N528 1.346 . S
C529 C530 1.396 . S
C529 C539 1.510 . S
C530 C526 1.401 . S
C530 C529 1.396 . S
C531 C526 1.499 . S
C531 H532 0.959 . S
C531 H533 0.960 . S
C531 H534 0.961 . S
H532 C531 0.959 . S
H533 C531 0.960 . S
H534 C531 0.961 . S
O535 Co510 1.967 . S
O535 C543 1.258 . S
O536 Co511 1.941 . S
O536 C543 1.266 . S
H537 C539 0.959 . S
H538 C539 0.961 . S
C539 C529 1.510 . S
C539 H537 0.959 . S
C539 H538 0.961 . S
C539 H540 0.960 . S
H540 C539 0.960 . S
H541 N521 0.862 . S
O542 Co510 1.920 . S
O542 C515 1.289 . S
C543 O535 1.258 . S
C543 O536 1.266 . S
Co544 O547 1.970 . S
Co544 N561 1.989 . S
Co544 O569 1.967 . S
Co544 O576 1.920 . S
Co545 O548 1.966 . S
Co545 N554 2.022 . S
Co545 N562 1.993 . S
Co545 O570 1.941 . S
C546 O547 1.258 . S
C546 O548 1.263 . S
O547 Co544 1.970 . S
O547 C546 1.258 . S
O548 Co545 1.966 . S
O548 C546 1.263 . S
C549 O550 1.235 . S
C549 O576 1.289 . S
O550 C549 1.235 . S
C551 C553 1.400 . S
C551 N554 1.351 . S
C551 C556 1.501 . S
C552 C553 1.387 . S
C552 N555 1.341 . S
C553 C551 1.400 . S
C553 C552 1.387 . S
N554 Co545 2.022 . S
N554 C551 1.351 . S
N554 N555 1.365 . S
N555 C552 1.341 . S
N555 N554 1.365 . S
N555 H575 0.862 . S
C556 C551 1.501 . S
C556 H557 0.961 . S
C556 H558 0.961 . S
C556 H559 0.960 . S
H557 C556 0.961 . S
H558 C556 0.961 . S
H559 C556 0.960 . S
C560 N561 1.342 . S
C560 C564 1.401 . S
C560 C565 1.499 . S
N561 Co544 1.989 . S
N561 C560 1.342 . S
N561 N562 1.388 . S
N562 Co545 1.993 . S
N562 N561 1.388 . S
N562 C563 1.346 . S
C563 N562 1.346 . S
C563 C564 1.396 . S
C563 C573 1.510 . S
C564 C560 1.401 . S
C564 C563 1.396 . S
C565 C560 1.499 . S
C565 H566 0.959 . S
C565 H567 0.960 . S
C565 H568 0.961 . S
H566 C565 0.959 . S
H567 C565 0.960 . S
H568 C565 0.961 . S
O569 Co544 1.967 . S
O569 C577 1.258 . S
O570 Co545 1.941 . S
O570 C577 1.266 . S
H571 C573 0.959 . S
H572 C573 0.961 . S
C573 C563 1.510 . S
C573 H571 0.959 . S
C573 H572 0.961 . S
C573 H574 0.960 . S
H574 C573 0.960 . S
H575 N555 0.862 . S
O576 Co544 1.920 . S
O576 C549 1.289 . S
C577 O569 1.258 . S
C577 O570 1.266 . S
Co578 O581 1.970 . S
Co578 N595 1.989 . S
Co578 O603 1.967 . S
Co578 O610 1.920 . S
Co579 O582 1.966 . S
Co579 N588 2.022 . S
Co579 N596 1.993 . S
Co579 O604 1.941 . S
C580 O581 1.258 . S
C580 O582 1.263 . S
O581 Co578 1.970 . S
O581 C580 1.258 . S
O582 Co579 1.966 . S
O582 C580 1.263 . S
C583 O584 1.235 . S
C583 O610 1.289 . S
O584 C583 1.235 . S
C585 C587 1.400 . S
C585 N588 1.351 . S
C585 C590 1.501 . S
C586 C587 1.387 . S
C586 N589 1.341 . S
C587 C585 1.400 . S
C587 C586 1.387 . S
N588 Co579 2.022 . S
N588 C585 1.351 . S
N588 N589 1.365 . S
N589 C586 1.341 . S
N589 N588 1.365 . S
N589 H609 0.862 . S
C590 C585 1.501 . S
C590 H591 0.961 . S
C590 H592 0.961 . S
C590 H593 0.960 . S
H591 C590 0.961 . S
H592 C590 0.961 . S
H593 C590 0.960 . S
C594 N595 1.342 . S
C594 C598 1.401 . S
C594 C599 1.499 . S
N595 Co578 1.989 . S
N595 C594 1.342 . S
N595 N596 1.388 . S
N596 Co579 1.993 . S
N596 N595 1.388 . S
N596 C597 1.346 . S
C597 N596 1.346 . S
C597 C598 1.396 . S
C597 C607 1.510 . S
C598 C594 1.401 . S
C598 C597 1.396 . S
C599 C594 1.499 . S
C599 H600 0.959 . S
C599 H601 0.960 . S
C599 H602 0.961 . S
H600 C599 0.959 . S
H601 C599 0.960 . S
H602 C599 0.961 . S
O603 Co578 1.967 . S
O603 C611 1.258 . S
O604 Co579 1.941 . S
O604 C611 1.266 . S
H605 C607 0.959 . S
H606 C607 0.961 . S
C607 C597 1.510 . S
C607 H605 0.959 . S
C607 H606 0.961 . S
C607 H608 0.960 . S
H608 C607 0.960 . S
H609 N589 0.862 . S
O610 Co578 1.920 . S
O610 C583 1.289 . S
C611 O603 1.258 . S
C611 O604 1.266 . S
Co612 O615 1.970 . S
Co612 N629 1.989 . S
Co612 O637 1.967 . S
Co612 O644 1.920 . S
Co613 O616 1.966 . S
Co613 N622 2.022 . S
Co613 N630 1.993 . S
Co613 O638 1.941 . S
C614 O615 1.258 . S
C614 O616 1.263 . S
O615 Co612 1.970 . S
O615 C614 1.258 . S
O616 Co613 1.966 . S
O616 C614 1.263 . S
C617 O618 1.235 . S
C617 O644 1.289 . S
O618 C617 1.235 . S
C619 C621 1.400 . S
C619 N622 1.351 . S
C619 C624 1.501 . S
C620 C621 1.387 . S
C620 N623 1.341 . S
C621 C619 1.400 . S
C621 C620 1.387 . S
N622 Co613 2.022 . S
N622 C619 1.351 . S
N622 N623 1.365 . S
N623 C620 1.341 . S
N623 N622 1.365 . S
N623 H643 0.862 . S
C624 C619 1.501 . S
C624 H625 0.961 . S
C624 H626 0.961 . S
C624 H627 0.960 . S
H625 C624 0.961 . S
H626 C624 0.961 . S
H627 C624 0.960 . S
C628 N629 1.342 . S
C628 C632 1.401 . S
C628 C633 1.499 . S
N629 Co612 1.989 . S
N629 C628 1.342 . S
N629 N630 1.388 . S
N630 Co613 1.993 . S
N630 N629 1.388 . S
N630 C631 1.346 . S
C631 N630 1.346 . S
C631 C632 1.396 . S
C631 C641 1.510 . S
C632 C628 1.401 . S
C632 C631 1.396 . S
C633 C628 1.499 . S
C633 H634 0.959 . S
C633 H635 0.960 . S
C633 H636 0.961 . S
H634 C633 0.959 . S
H635 C633 0.960 . S
H636 C633 0.961 . S
O637 Co612 1.967 . S
O637 C645 1.258 . S
O638 Co613 1.941 . S
O638 C645 1.266 . S
H639 C641 0.959 . S
H640 C641 0.961 . S
C641 C631 1.510 . S
C641 H639 0.959 . S
C641 H640 0.961 . S
C641 H642 0.960 . S
H642 C641 0.960 . S
H643 N623 0.862 . S
O644 Co612 1.920 . S
O644 C617 1.289 . S
C645 O637 1.258 . S
C645 O638 1.266 . S
Co646 O649 1.970 . S
Co646 N663 1.989 . S
Co646 O671 1.967 . S
Co646 O678 1.920 . S
Co647 O650 1.966 . S
Co647 N656 2.022 . S
Co647 N664 1.993 . S
Co647 O672 1.941 . S
C648 O649 1.258 . S
C648 O650 1.263 . S
O649 Co646 1.970 . S
O649 C648 1.258 . S
O650 Co647 1.966 . S
O650 C648 1.263 . S
C651 O652 1.235 . S
C651 O678 1.289 . S
O652 C651 1.235 . S
C653 C655 1.400 . S
C653 N656 1.351 . S
C653 C658 1.501 . S
C654 C655 1.387 . S
C654 N657 1.341 . S
C655 C653 1.400 . S
C655 C654 1.387 . S
N656 Co647 2.022 . S
N656 C653 1.351 . S
N656 N657 1.365 . S
N657 C654 1.341 . S
N657 N656 1.365 . S
N657 H677 0.862 . S
C658 C653 1.501 . S
C658 H659 0.961 . S
C658 H660 0.961 . S
C658 H661 0.960 . S
H659 C658 0.961 . S
H660 C658 0.961 . S
H661 C658 0.960 . S
C662 N663 1.342 . S
C662 C666 1.401 . S
C662 C667 1.499 . S
N663 Co646 1.989 . S
N663 C662 1.342 . S
N663 N664 1.388 . S
N664 Co647 1.993 . S
N664 N663 1.388 . S
N664 C665 1.346 . S
C665 N664 1.346 . S
C665 C666 1.396 . S
C665 C675 1.510 . S
C666 C662 1.401 . S
C666 C665 1.396 . S
C667 C662 1.499 . S
C667 H668 0.959 . S
C667 H669 0.960 . S
C667 H670 0.961 . S
H668 C667 0.959 . S
H669 C667 0.960 . S
H670 C667 0.961 . S
O671 Co646 1.967 . S
O671 C679 1.258 . S
O672 Co647 1.941 . S
O672 C679 1.266 . S
H673 C675 0.959 . S
H674 C675 0.961 . S
C675 C665 1.510 . S
C675 H673 0.959 . S
C675 H674 0.961 . S
C675 H676 0.960 . S
H676 C675 0.960 . S
H677 N657 0.862 . S
O678 Co646 1.920 . S
O678 C651 1.289 . S
C679 O671 1.258 . S
C679 O672 1.266 . S
Co680 O683 1.970 . S
Co680 N697 1.989 . S
Co680 O705 1.967 . S
Co680 O712 1.920 . S
Co681 O684 1.966 . S
Co681 N690 2.022 . S
Co681 N698 1.993 . S
Co681 O706 1.941 . S
C682 O683 1.258 . S
C682 O684 1.263 . S
O683 Co680 1.970 . S
O683 C682 1.258 . S
O684 Co681 1.966 . S
O684 C682 1.263 . S
C685 O686 1.235 . S
C685 O712 1.289 . S
O686 C685 1.235 . S
C687 C689 1.400 . S
C687 N690 1.351 . S
C687 C692 1.501 . S
C688 C689 1.387 . S
C688 N691 1.341 . S
C689 C687 1.400 . S
C689 C688 1.387 . S
N690 Co681 2.022 . S
N690 C687 1.351 . S
N690 N691 1.365 . S
N691 C688 1.341 . S
N691 N690 1.365 . S
N691 H711 0.862 . S
C692 C687 1.501 . S
C692 H693 0.961 . S
C692 H694 0.961 . S
C692 H695 0.960 . S
H693 C692 0.961 . S
H694 C692 0.961 . S
H695 C692 0.960 . S
C696 N697 1.342 . S
C696 C700 1.401 . S
C696 C701 1.499 . S
N697 Co680 1.989 . S
N697 C696 1.342 . S
N697 N698 1.388 . S
N698 Co681 1.993 . S
N698 N697 1.388 . S
N698 C699 1.346 . S
C699 N698 1.346 . S
C699 C700 1.396 . S
C699 C709 1.510 . S
C700 C696 1.401 . S
C700 C699 1.396 . S
C701 C696 1.499 . S
C701 H702 0.959 . S
C701 H703 0.960 . S
C701 H704 0.961 . S
H702 C701 0.959 . S
H703 C701 0.960 . S
H704 C701 0.961 . S
O705 Co680 1.967 . S
O705 C713 1.258 . S
O706 Co681 1.941 . S
O706 C713 1.266 . S
H707 C709 0.959 . S
H708 C709 0.961 . S
C709 C699 1.510 . S
C709 H707 0.959 . S
C709 H708 0.961 . S
C709 H710 0.960 . S
H710 C709 0.960 . S
H711 N691 0.862 . S
O712 Co680 1.920 . S
O712 C685 1.289 . S
C713 O705 1.258 . S
C713 O706 1.266 . S
Co714 O717 1.970 . S
Co714 N731 1.989 . S
Co714 O739 1.967 . S
Co714 O746 1.920 . S
Co715 O718 1.966 . S
Co715 N724 2.022 . S
Co715 N732 1.993 . S
Co715 O740 1.941 . S
C716 O717 1.258 . S
C716 O718 1.263 . S
O717 Co714 1.970 . S
O717 C716 1.258 . S
O718 Co715 1.966 . S
O718 C716 1.263 . S
C719 O720 1.235 . S
C719 O746 1.289 . S
O720 C719 1.235 . S
C721 C723 1.400 . S
C721 N724 1.351 . S
C721 C726 1.501 . S
C722 C723 1.387 . S
C722 N725 1.341 . S
C723 C721 1.400 . S
C723 C722 1.387 . S
N724 Co715 2.022 . S
N724 C721 1.351 . S
N724 N725 1.365 . S
N725 C722 1.341 . S
N725 N724 1.365 . S
N725 H745 0.862 . S
C726 C721 1.501 . S
C726 H727 0.961 . S
C726 H728 0.961 . S
C726 H729 0.960 . S
H727 C726 0.961 . S
H728 C726 0.961 . S
H729 C726 0.960 . S
C730 N731 1.342 . S
C730 C734 1.401 . S
C730 C735 1.499 . S
N731 Co714 1.989 . S
N731 C730 1.342 . S
N731 N732 1.388 . S
N732 Co715 1.993 . S
N732 N731 1.388 . S
N732 C733 1.346 . S
C733 N732 1.346 . S
C733 C734 1.396 . S
C733 C743 1.510 . S
C734 C730 1.401 . S
C734 C733 1.396 . S
C735 C730 1.499 . S
C735 H736 0.959 . S
C735 H737 0.960 . S
C735 H738 0.961 . S
H736 C735 0.959 . S
H737 C735 0.960 . S
H738 C735 0.961 . S
O739 Co714 1.967 . S
O739 C747 1.258 . S
O740 Co715 1.941 . S
O740 C747 1.266 . S
H741 C743 0.959 . S
H742 C743 0.961 . S
C743 C733 1.510 . S
C743 H741 0.959 . S
C743 H742 0.961 . S
C743 H744 0.960 . S
H744 C743 0.960 . S
H745 N725 0.862 . S
O746 Co714 1.920 . S
O746 C719 1.289 . S
C747 O739 1.258 . S
C747 O740 1.266 . S
Co748 O751 1.970 . S
Co748 N765 1.989 . S
Co748 O773 1.967 . S
Co748 O780 1.920 . S
Co749 O752 1.966 . S
Co749 N758 2.022 . S
Co749 N766 1.993 . S
Co749 O774 1.941 . S
C750 O751 1.258 . S
C750 O752 1.263 . S
O751 Co748 1.970 . S
O751 C750 1.258 . S
O752 Co749 1.966 . S
O752 C750 1.263 . S
C753 O754 1.235 . S
C753 O780 1.289 . S
O754 C753 1.235 . S
C755 C757 1.400 . S
C755 N758 1.351 . S
C755 C760 1.501 . S
C756 C757 1.387 . S
C756 N759 1.341 . S
C757 C755 1.400 . S
C757 C756 1.387 . S
N758 Co749 2.022 . S
N758 C755 1.351 . S
N758 N759 1.365 . S
N759 C756 1.341 . S
N759 N758 1.365 . S
N759 H779 0.862 . S
C760 C755 1.501 . S
C760 H761 0.961 . S
C760 H762 0.961 . S
C760 H763 0.960 . S
H761 C760 0.961 . S
H762 C760 0.961 . S
H763 C760 0.960 . S
C764 N765 1.342 . S
C764 C768 1.401 . S
C764 C769 1.499 . S
N765 Co748 1.989 . S
N765 C764 1.342 . S
N765 N766 1.388 . S
N766 Co749 1.993 . S
N766 N765 1.388 . S
N766 C767 1.346 . S
C767 N766 1.346 . S
C767 C768 1.396 . S
C767 C777 1.510 . S
C768 C764 1.401 . S
C768 C767 1.396 . S
C769 C764 1.499 . S
C769 H770 0.959 . S
C769 H771 0.960 . S
C769 H772 0.961 . S
H770 C769 0.959 . S
H771 C769 0.960 . S
H772 C769 0.961 . S
O773 Co748 1.967 . S
O773 C781 1.258 . S
O774 Co749 1.941 . S
O774 C781 1.266 . S
H775 C777 0.959 . S
H776 C777 0.961 . S
C777 C767 1.510 . S
C777 H775 0.959 . S
C777 H776 0.961 . S
C777 H778 0.960 . S
H778 C777 0.960 . S
H779 N759 0.862 . S
O780 Co748 1.920 . S
O780 C753 1.289 . S
C781 O773 1.258 . S
C781 O774 1.266 . S
Co782 O785 1.970 . S
Co782 N799 1.989 . S
Co782 O807 1.967 . S
Co782 O814 1.920 . S
Co783 O786 1.966 . S
Co783 N792 2.022 . S
Co783 N800 1.993 . S
Co783 O808 1.941 . S
C784 O785 1.258 . S
C784 O786 1.263 . S
O785 Co782 1.970 . S
O785 C784 1.258 . S
O786 Co783 1.966 . S
O786 C784 1.263 . S
C787 O788 1.235 . S
C787 O814 1.289 . S
O788 C787 1.235 . S
C789 C791 1.400 . S
C789 N792 1.351 . S
C789 C794 1.501 . S
C790 C791 1.387 . S
C790 N793 1.341 . S
C791 C789 1.400 . S
C791 C790 1.387 . S
N792 Co783 2.022 . S
N792 C789 1.351 . S
N792 N793 1.365 . S
N793 C790 1.341 . S
N793 N792 1.365 . S
N793 H813 0.862 . S
C794 C789 1.501 . S
C794 H795 0.961 . S
C794 H796 0.961 . S
C794 H797 0.960 . S
H795 C794 0.961 . S
H796 C794 0.961 . S
H797 C794 0.960 . S
C798 N799 1.342 . S
C798 C802 1.401 . S
C798 C803 1.499 . S
N799 Co782 1.989 . S
N799 C798 1.342 . S
N799 N800 1.388 . S
N800 Co783 1.993 . S
N800 N799 1.388 . S
N800 C801 1.346 . S
C801 N800 1.346 . S
C801 C802 1.396 . S
C801 C811 1.510 . S
C802 C798 1.401 . S
C802 C801 1.396 . S
C803 C798 1.499 . S
C803 H804 0.959 . S
C803 H805 0.960 . S
C803 H806 0.961 . S
H804 C803 0.959 . S
H805 C803 0.960 . S
H806 C803 0.961 . S
O807 Co782 1.967 . S
O807 C815 1.258 . S
O808 Co783 1.941 . S
O808 C815 1.266 . S
H809 C811 0.959 . S
H810 C811 0.961 . S
C811 C801 1.510 . S
C811 H809 0.959 . S
C811 H810 0.961 . S
C811 H812 0.960 . S
H812 C811 0.960 . S
H813 N793 0.862 . S
O814 Co782 1.920 . S
O814 C787 1.289 . S
C815 O807 1.258 . S
C815 O808 1.266 . S
C816 C817 1.369 . S
C816 C818 1.419 . S
C816 H820 0.930 . S
C817 C816 1.369 . S
C817 C826 1.429 . S
C818 C816 1.419 . S
C818 C819 1.363 . S
C818 H821 0.929 . S
C819 C818 1.363 . S
C819 C825 1.428 . S
H820 C816 0.930 . S
H821 C818 0.929 . S
S822 N823 1.613 . S
S822 N824 1.610 . S
N823 S822 1.613 . S
N823 C826 1.350 . S
N824 S822 1.610 . S
N824 C825 1.351 . S
C825 C819 1.428 . S
C825 N824 1.351 . S
C825 C826 1.434 . S
C826 C817 1.429 . S
C826 N823 1.350 . S
C826 C825 1.434 . S
C827 C828 1.369 . S
C827 C829 1.419 . S
C827 H831 0.930 . S
C828 C827 1.369 . S
C828 C837 1.429 . S
C829 C827 1.419 . S
C829 C830 1.363 . S
C829 H832 0.929 . S
C830 C829 1.363 . S
C830 C836 1.428 . S
H831 C827 0.930 . S
H832 C829 0.929 . S
S833 N834 1.613 . S
S833 N835 1.610 . S
N834 S833 1.613 . S
N834 C837 1.350 . S
N835 S833 1.610 . S
N835 C836 1.351 . S
C836 C830 1.428 . S
C836 N835 1.351 . S
C836 C837 1.434 . S
C837 C828 1.429 . S
C837 N834 1.350 . S
C837 C836 1.434 . S
C838 C839 1.369 . S
C838 C840 1.419 . S
C838 H842 0.930 . S
C839 C838 1.369 . S
C839 C848 1.429 . S
C840 C838 1.419 . S
C840 C841 1.363 . S
C840 H843 0.929 . S
C841 C840 1.363 . S
C841 C847 1.428 . S
H842 C838 0.930 . S
H843 C840 0.929 . S
S844 N845 1.613 . S
S844 N846 1.610 . S
N845 S844 1.613 . S
N845 C848 1.350 . S
N846 S844 1.610 . S
N846 C847 1.351 . S
C847 C841 1.428 . S
C847 N846 1.351 . S
C847 C848 1.434 . S
C848 C839 1.429 . S
C848 N845 1.350 . S
C848 C847 1.434 . S
C849 C850 1.369 . S
C849 C851 1.419 . S
C849 H853 0.930 . S
C850 C849 1.369 . S
C850 C859 1.429 . S
C851 C849 1.419 . S
C851 C852 1.363 . S
C851 H854 0.929 . S
C852 C851 1.363 . S
C852 C858 1.428 . S
H853 C849 0.930 . S
H854 C851 0.929 . S
S855 N856 1.613 . S
S855 N857 1.610 . S
N856 S855 1.613 . S
N856 C859 1.350 . S
N857 S855 1.610 . S
N857 C858 1.351 . S
C858 C852 1.428 . S
C858 N857 1.351 . S
C858 C859 1.434 . S
C859 C850 1.429 . S
C859 N856 1.350 . S
C859 C858 1.434 . S
C860 C861 1.369 . S
C860 C862 1.419 . S
C860 H864 0.930 . S
C861 C860 1.369 . S
C861 C870 1.429 . S
C862 C860 1.419 . S
C862 C863 1.363 . S
C862 H865 0.929 . S
C863 C862 1.363 . S
C863 C869 1.428 . S
H864 C860 0.930 . S
H865 C862 0.929 . S
S866 N867 1.613 . S
S866 N868 1.610 . S
N867 S866 1.613 . S
N867 C870 1.350 . S
N868 S866 1.610 . S
N868 C869 1.351 . S
C869 C863 1.428 . S
C869 N868 1.351 . S
C869 C870 1.434 . S
C870 C861 1.429 . S
C870 N867 1.350 . S
C870 C869 1.434 . S
C871 C872 1.369 . S
C871 C873 1.419 . S
C871 H875 0.930 . S
C872 C871 1.369 . S
C872 C881 1.429 . S
C873 C871 1.419 . S
C873 C874 1.363 . S
C873 H876 0.929 . S
C874 C873 1.363 . S
C874 C880 1.428 . S
H875 C871 0.930 . S
H876 C873 0.929 . S
S877 N878 1.613 . S
S877 N879 1.610 . S
N878 S877 1.613 . S
N878 C881 1.350 . S
N879 S877 1.610 . S
N879 C880 1.351 . S
C880 C874 1.428 . S
C880 N879 1.351 . S
C880 C881 1.434 . S
C881 C872 1.429 . S
C881 N878 1.350 . S
C881 C880 1.434 . S
C882 C883 1.369 . S
C882 C884 1.419 . S
C882 H886 0.930 . S
C883 C882 1.369 . S
C883 C892 1.429 . S
C884 C882 1.419 . S
C884 C885 1.363 . S
C884 H887 0.929 . S
C885 C884 1.363 . S
C885 C891 1.428 . S
H886 C882 0.930 . S
H887 C884 0.929 . S
S888 N889 1.613 . S
S888 N890 1.610 . S
N889 S888 1.613 . S
N889 C892 1.350 . S
N890 S888 1.610 . S
N890 C891 1.351 . S
C891 C885 1.428 . S
C891 N890 1.351 . S
C891 C892 1.434 . S
C892 C883 1.429 . S
C892 N889 1.350 . S
C892 C891 1.434 . S
C893 C894 1.369 . S
C893 C895 1.419 . S
C893 H897 0.930 . S
C894 C893 1.369 . S
C894 C903 1.429 . S
C895 C893 1.419 . S
C895 C896 1.363 . S
C895 H898 0.929 . S
C896 C895 1.363 . S
C896 C902 1.428 . S
H897 C893 0.930 . S
H898 C895 0.929 . S
S899 N900 1.613 . S
S899 N901 1.610 . S
N900 S899 1.613 . S
N900 C903 1.350 . S
N901 S899 1.610 . S
N901 C902 1.351 . S
C902 C896 1.428 . S
C902 N901 1.351 . S
C902 C903 1.434 . S
C903 C894 1.429 . S
C903 N900 1.350 . S
C903 C902 1.434 . S
C904 C905 1.369 . S
C904 C906 1.419 . S
C904 H908 0.930 . S
C905 C904 1.369 . S
C905 C914 1.429 . S
C906 C904 1.419 . S
C906 C907 1.363 . S
C906 H909 0.929 . S
C907 C906 1.363 . S
C907 C913 1.428 . S
H908 C904 0.930 . S
H909 C906 0.929 . S
S910 N911 1.613 . S
S910 N912 1.610 . S
N911 S910 1.613 . S
N911 C914 1.350 . S
N912 S910 1.610 . S
N912 C913 1.351 . S
C913 C907 1.428 . S
C913 N912 1.351 . S
C913 C914 1.434 . S
C914 C905 1.429 . S
C914 N911 1.350 . S
C914 C913 1.434 . S
C915 C916 1.369 . S
C915 C917 1.419 . S
C915 H919 0.930 . S
C916 C915 1.369 . S
C916 C925 1.429 . S
C917 C915 1.419 . S
C917 C918 1.363 . S
C917 H920 0.929 . S
C918 C917 1.363 . S
C918 C924 1.428 . S
H919 C915 0.930 . S
H920 C917 0.929 . S
S921 N922 1.613 . S
S921 N923 1.610 . S
N922 S921 1.613 . S
N922 C925 1.350 . S
N923 S921 1.610 . S
N923 C924 1.351 . S
C924 C918 1.428 . S
C924 N923 1.351 . S
C924 C925 1.434 . S
C925 C916 1.429 . S
C925 N922 1.350 . S
C925 C924 1.434 . S
C926 C927 1.369 . S
C926 C928 1.419 . S
C926 H930 0.930 . S
C927 C926 1.369 . S
C927 C936 1.429 . S
C928 C926 1.419 . S
C928 C929 1.363 . S
C928 H931 0.929 . S
C929 C928 1.363 . S
C929 C935 1.428 . S
H930 C926 0.930 . S
H931 C928 0.929 . S
S932 N933 1.613 . S
S932 N934 1.610 . S
N933 S932 1.613 . S
N933 C936 1.350 . S
N934 S932 1.610 . S
N934 C935 1.351 . S
C935 C929 1.428 . S
C935 N934 1.351 . S
C935 C936 1.434 . S
C936 C927 1.429 . S
C936 N933 1.350 . S
C936 C935 1.434 . S
C937 C938 1.369 . S
C937 C939 1.419 . S
C937 H941 0.930 . S
C938 C937 1.369 . S
C938 C947 1.429 . S
C939 C937 1.419 . S
C939 C940 1.363 . S
C939 H942 0.929 . S
C940 C939 1.363 . S
C940 C946 1.428 . S
H941 C937 0.930 . S
H942 C939 0.929 . S
S943 N944 1.613 . S
S943 N945 1.610 . S
N944 S943 1.613 . S
N944 C947 1.350 . S
N945 S943 1.610 . S
N945 C946 1.351 . S
C946 C940 1.428 . S
C946 N945 1.351 . S
C946 C947 1.434 . S
C947 C938 1.429 . S
C947 N944 1.350 . S
C947 C946 1.434 . S
C948 C949 1.369 . S
C948 C950 1.419 . S
C948 H952 0.930 . S
C949 C948 1.369 . S
C949 C958 1.429 . S
C950 C948 1.419 . S
C950 C951 1.363 1_565 S
C950 H953 0.929 . S
C951 C950 1.363 1_545 S
C951 C957 1.428 1_545 S
H952 C948 0.930 . S
H953 C950 0.929 . S
S954 N955 1.613 . S
S954 N956 1.610 1_565 S
N955 S954 1.613 . S
N955 C958 1.350 . S
N956 S954 1.610 1_545 S
N956 C957 1.351 1_545 S
C957 C951 1.428 1_565 S
C957 N956 1.351 1_565 S
C957 C958 1.434 . S
C958 C949 1.429 . S
C958 N955 1.350 . S
C958 C957 1.434 . S
C959 C960 1.369 1_455 S
C959 C961 1.419 . S
C959 H963 0.930 . S
C960 C959 1.369 1_655 S
C960 C969 1.429 1_655 S
C961 C959 1.419 . S
C961 C962 1.363 . S
C961 H964 0.929 . S
C962 C961 1.363 . S
C962 C968 1.428 . S
H963 C959 0.930 . S
H964 C961 0.929 . S
S965 N966 1.613 1_455 S
S965 N967 1.610 . S
N966 S965 1.613 1_655 S
N966 C969 1.350 1_655 S
N967 S965 1.610 . S
N967 C968 1.351 . S
C968 C962 1.428 . S
C968 N967 1.351 . S
C968 C969 1.434 . S
C969 C960 1.429 1_455 S
C969 N966 1.350 1_455 S
C969 C968 1.434 . S
C970 C971 1.369 1_545 S
C970 C972 1.419 . S
C970 H974 0.930 1_545 S
C971 C970 1.369 1_565 S
C971 C980 1.429 1_565 S
C972 C970 1.419 . S
C972 C973 1.363 . S
C972 H975 0.929 . S
C973 C972 1.363 . S
C973 C979 1.428 . S
H974 C970 0.930 1_565 S
H975 C972 0.929 . S
S976 N977 1.613 . S
S976 N978 1.610 . S
N977 S976 1.613 . S
N977 C980 1.350 . S
N978 S976 1.610 . S
N978 C979 1.351 . S
C979 C973 1.428 . S
C979 N978 1.351 . S
C979 C980 1.434 . S
C980 C971 1.429 1_545 S
C980 N977 1.350 . S
C980 C979 1.434 . S
C981 C982 1.369 . S
C981 C983 1.419 . S
C981 H985 0.930 . S
C982 C981 1.369 . S
C982 C991 1.429 . S
C983 C981 1.419 . S
C983 C984 1.363 1_655 S
C983 H986 0.929 1_655 S
C984 C983 1.363 1_455 S
C984 C990 1.428 1_455 S
H985 C981 0.930 . S
H986 C983 0.929 1_455 S
S987 N988 1.613 . S
S987 N989 1.610 . S
N988 S987 1.613 . S
N988 C991 1.350 . S
N989 S987 1.610 . S
N989 C990 1.351 . S
C990 C984 1.428 1_655 S
C990 N989 1.351 . S
C990 C991 1.434 . S
C991 C982 1.429 . S
C991 N988 1.350 . S
C991 C990 1.434 . S
C992 C993 1.369 . S
C992 C994 1.419 . S
C992 H996 0.930 . S
C993 C992 1.369 . S
C993 C1002 1.429 . S
C994 C992 1.419 . S
C994 C995 1.363 1_545 S
C994 H997 0.929 . S
C995 C994 1.363 1_565 S
C995 C1001 1.428 1_565 S
H996 C992 0.930 . S
H997 C994 0.929 . S
S998 N999 1.613 . S
S998 N1000 1.610 1_545 S
N999 S998 1.613 . S
N999 C1002 1.350 . S
N1000 S998 1.610 1_565 S
N1000 C1001 1.351 1_565 S
C1001 C995 1.428 1_545 S
C1001 N1000 1.351 1_545 S
C1001 C1002 1.434 . S
C1002 C993 1.429 . S
C1002 N999 1.350 . S
C1002 C1001 1.434 . S
C1003 C1004 1.369 1_655 S
C1003 C1005 1.419 . S
C1003 H1007 0.930 . S
C1004 C1003 1.369 1_455 S
C1004 C1013 1.429 1_455 S
C1005 C1003 1.419 . S
C1005 C1006 1.363 . S
C1005 H1008 0.929 . S
C1006 C1005 1.363 . S
C1006 C1012 1.428 . S
H1007 C1003 0.930 . S
H1008 C1005 0.929 . S
S1009 N1010 1.613 1_655 S
S1009 N1011 1.610 . S
N1010 S1009 1.613 1_455 S
N1010 C1013 1.350 1_455 S
N1011 S1009 1.610 . S
N1011 C1012 1.351 . S
C1012 C1006 1.428 . S
C1012 N1011 1.351 . S
C1012 C1013 1.434 . S
C1013 C1004 1.429 1_655 S
C1013 N1010 1.350 1_655 S
C1013 C1012 1.434 . S
C1014 C1015 1.369 . S
C1014 C1016 1.419 . S
C1014 H1018 0.930 . S
C1015 C1014 1.369 . S
C1015 C1024 1.429 . S
C1016 C1014 1.419 . S
C1016 C1017 1.363 1_565 S
C1016 H1019 0.929 1_565 S
C1017 C1016 1.363 1_545 S
C1017 C1023 1.428 1_545 S
H1018 C1014 0.930 . S
H1019 C1016 0.929 1_545 S
S1020 N1021 1.613 . S
S1020 N1022 1.610 . S
N1021 S1020 1.613 . S
N1021 C1024 1.350 . S
N1022 S1020 1.610 . S
N1022 C1023 1.351 . S
C1023 C1017 1.428 1_565 S
C1023 N1022 1.351 . S
C1023 C1024 1.434 . S
C1024 C1015 1.429 . S
C1024 N1021 1.350 . S
C1024 C1023 1.434 . S
C1025 C1026 1.369 . S
C1025 C1027 1.419 . S
C1025 H1029 0.930 . S
C1026 C1025 1.369 . S
C1026 C1035 1.429 . S
C1027 C1025 1.419 . S
C1027 C1028 1.363 1_455 S
C1027 H1030 0.929 1_455 S
C1028 C1027 1.363 1_655 S
C1028 C1034 1.428 1_655 S
H1029 C1025 0.930 . S
H1030 C1027 0.929 1_655 S
S1031 N1032 1.613 . S
S1031 N1033 1.610 . S
N1032 S1031 1.613 . S
N1032 C1035 1.350 . S
N1033 S1031 1.610 . S
N1033 C1034 1.351 . S
C1034 C1028 1.428 1_455 S
C1034 N1033 1.351 . S
C1034 C1035 1.434 . S
C1035 C1026 1.429 . S
C1035 N1032 1.350 . S
C1035 C1034 1.434 . S
C1036 C1037 1.369 . S
C1036 C1038 1.419 . S
C1036 H1040 0.930 . S
C1037 C1036 1.369 . S
C1037 C1046 1.429 . S
C1038 C1036 1.419 . S
C1038 C1039 1.363 1_556 S
C1038 H1041 0.929 1_556 S
C1039 C1038 1.363 1_554 S
C1039 C1045 1.428 1_554 S
H1040 C1036 0.930 . S
H1041 C1038 0.929 1_554 S
S1042 N1043 1.613 . S
S1042 N1044 1.628 . S
N1043 S1042 1.613 . S
N1043 C1046 1.350 . S
N1044 S1042 1.628 . S
N1044 C1045 1.357 . S
C1045 C1039 1.428 1_556 S
C1045 N1044 1.357 . S
C1045 C1046 1.434 . S
C1046 C1037 1.429 . S
C1046 N1043 1.350 . S
C1046 C1045 1.434 . S
C1047 C1048 1.369 1_556 S
C1047 C1049 1.419 . S
C1047 H1051 0.930 1_556 S
C1048 C1047 1.369 1_554 S
C1048 C1057 1.429 1_554 S
C1049 C1047 1.419 . S
C1049 C1050 1.363 . S
C1049 H1052 0.929 . S
C1050 C1049 1.363 . S
C1050 C1056 1.428 . S
H1051 C1047 0.930 1_554 S
H1052 C1049 0.929 . S
S1053 N1054 1.600 1_556 S
S1053 N1055 1.610 . S
N1054 S1053 1.600 1_554 S
N1054 C1057 1.345 1_554 S
N1055 S1053 1.610 . S
N1055 C1056 1.351 . S
C1056 C1050 1.428 . S
C1056 N1055 1.351 . S
C1056 C1057 1.434 . S
C1057 C1048 1.429 1_556 S
C1057 N1054 1.345 1_556 S
C1057 C1056 1.434 . S
C1058 C1059 1.369 . S
C1058 C1060 1.419 . S
C1058 H1062 0.930 . S
C1059 C1058 1.369 . S
C1059 C1068 1.429 . S
C1060 C1058 1.419 . S
C1060 C1061 1.363 1_556 S
C1060 H1063 0.929 1_556 S
C1061 C1060 1.363 1_554 S
C1061 C1067 1.428 1_554 S
H1062 C1058 0.930 . S
H1063 C1060 0.929 1_554 S
S1064 N1065 1.613 . S
S1064 N1066 1.610 1_556 S
N1065 S1064 1.613 . S
N1065 C1068 1.350 . S
N1066 S1064 1.610 1_554 S
N1066 C1067 1.351 1_554 S
C1067 C1061 1.428 1_556 S
C1067 N1066 1.351 1_556 S
C1067 C1068 1.434 . S
C1068 C1059 1.429 . S
C1068 N1065 1.350 . S
C1068 C1067 1.434 . S
C1069 C1070 1.369 1_556 S
C1069 C1071 1.419 . S
C1069 H1073 0.945 . S
C1070 C1069 1.369 1_554 S
C1070 C1079 1.429 1_554 S
C1071 C1069 1.419 . S
C1071 C1072 1.363 . S
C1071 H1074 0.929 . S
C1072 C1071 1.363 . S
C1072 C1078 1.428 . S
H1073 C1069 0.945 . S
H1074 C1071 0.929 . S
S1075 N1076 1.613 1_556 S
S1075 N1077 1.610 . S
N1076 S1075 1.613 1_554 S
N1076 C1079 1.350 1_554 S
N1077 S1075 1.610 . S
N1077 C1078 1.351 . S
C1078 C1072 1.428 . S
C1078 N1077 1.351 . S
C1078 C1079 1.434 . S
C1079 C1070 1.429 1_556 S
C1079 N1076 1.350 1_556 S
C1079 C1078 1.434 . S
C1080 C1081 1.369 . S
C1080 C1082 1.419 . S
C1080 H1084 0.930 . S
C1081 C1080 1.369 . S
C1081 C1090 1.429 . S
C1082 C1080 1.419 . S
C1082 C1083 1.363 1_554 S
C1082 H1085 0.929 1_554 S
C1083 C1082 1.363 1_556 S
C1083 C1089 1.428 1_556 S
H1084 C1080 0.930 . S
H1085 C1082 0.929 1_556 S
S1086 N1087 1.613 . S
S1086 N1088 1.610 . S
N1087 S1086 1.613 . S
N1087 C1090 1.350 . S
N1088 S1086 1.610 . S
N1088 C1089 1.351 . S
C1089 C1083 1.428 1_554 S
C1089 N1088 1.351 . S
C1089 C1090 1.434 . S
C1090 C1081 1.429 . S
C1090 N1087 1.350 . S
C1090 C1089 1.434 . S
C1091 C1092 1.369 1_554 S
C1091 C1093 1.419 . S
C1091 H1095 0.944 . S
C1092 C1091 1.369 1_556 S
C1092 C1101 1.429 1_556 S
C1093 C1091 1.419 . S
C1093 C1094 1.363 . S
C1093 H1096 0.929 . S
C1094 C1093 1.363 . S
C1094 C1100 1.428 . S
H1095 C1091 0.944 . S
H1096 C1093 0.929 . S
S1097 N1098 1.613 1_554 S
S1097 N1099 1.610 . S
N1098 S1097 1.613 1_556 S
N1098 C1101 1.350 1_556 S
N1099 S1097 1.610 . S
N1099 C1100 1.351 . S
C1100 C1094 1.428 . S
C1100 N1099 1.351 . S
C1100 C1101 1.434 . S
C1101 C1092 1.429 1_554 S
C1101 N1098 1.350 1_554 S
C1101 C1100 1.434 . S
C1102 C1103 1.369 . S
C1102 C1104 1.419 . S
C1102 H1106 0.930 . S
C1103 C1102 1.369 . S
C1103 C1112 1.429 . S
C1104 C1102 1.419 . S
C1104 C1105 1.363 1_554 S
C1104 H1107 0.929 1_554 S
C1105 C1104 1.363 1_556 S
C1105 C1111 1.428 1_556 S
H1106 C1102 0.930 . S
H1107 C1104 0.929 1_556 S
S1108 N1109 1.613 . S
S1108 N1110 1.610 1_554 S
N1109 S1108 1.613 . S
N1109 C1112 1.350 . S
N1110 S1108 1.610 1_556 S
N1110 C1111 1.351 1_556 S
C1111 C1105 1.428 1_554 S
C1111 N1110 1.351 1_554 S
C1111 C1112 1.434 . S
C1112 C1103 1.429 . S
C1112 N1109 1.350 . S
C1112 C1111 1.434 . S
C1113 C1114 1.369 1_554 S
C1113 C1115 1.419 . S
C1113 H1117 0.930 1_554 S
C1114 C1113 1.369 1_556 S
C1114 C1123 1.429 1_556 S
C1115 C1113 1.419 . S
C1115 C1116 1.363 . S
C1115 H1118 0.929 . S
C1116 C1115 1.363 . S
C1116 C1122 1.428 . S
H1117 C1113 0.930 1_556 S
H1118 C1115 0.929 . S
S1119 N1120 1.613 1_554 S
S1119 N1121 1.610 . S
N1120 S1119 1.613 1_556 S
N1120 C1123 1.350 1_556 S
N1121 S1119 1.610 . S
N1121 C1122 1.351 . S
C1122 C1116 1.428 . S
C1122 N1121 1.351 . S
C1122 C1123 1.434 . S
C1123 C1114 1.429 1_554 S
C1123 N1120 1.350 1_554 S
C1123 C1122 1.434 . S
C1124 C1125 1.369 . S
C1124 C1126 1.419 . S
C1124 H1128 0.930 . S
C1125 C1124 1.369 . S
C1125 C1134 1.429 . S
C1126 C1124 1.419 . S
C1126 C1127 1.363 1_655 S
C1126 H1129 0.929 1_655 S
C1127 C1126 1.363 1_455 S
C1127 C1133 1.428 1_455 S
H1128 C1124 0.930 . S
H1129 C1126 0.929 1_455 S
S1130 N1131 1.613 . S
S1130 N1132 1.610 . S
N1131 S1130 1.613 . S
N1131 C1134 1.350 . S
N1132 S1130 1.610 . S
N1132 C1133 1.351 . S
C1133 C1127 1.428 1_655 S
C1133 N1132 1.351 . S
C1133 C1134 1.434 . S
C1134 C1125 1.429 . S
C1134 N1131 1.350 . S
C1134 C1133 1.434 . S
C1135 C1136 1.369 . S
C1135 C1137 1.419 . S
C1135 H1139 0.930 . S
C1136 C1135 1.369 . S
C1136 C1145 1.429 . S
C1137 C1135 1.419 . S
C1137 C1138 1.363 1_655 S
C1137 H1140 0.929 1_655 S
C1138 C1137 1.363 1_455 S
C1138 C1144 1.428 1_455 S
H1139 C1135 0.930 . S
H1140 C1137 0.929 1_455 S
S1141 N1142 1.613 . S
S1141 N1143 1.610 1_655 S
N1142 S1141 1.613 . S
N1142 C1145 1.350 . S
N1143 S1141 1.610 1_455 S
N1143 C1144 1.351 1_455 S
C1144 C1138 1.428 1_655 S
C1144 N1143 1.351 1_655 S
C1144 C1145 1.434 . S
C1145 C1136 1.429 . S
C1145 N1142 1.350 . S
C1145 C1144 1.434 . S
C1146 C1147 1.369 1_565 S
C1146 C1148 1.419 . S
C1146 H1150 0.930 1_565 S
C1147 C1146 1.369 1_545 S
C1147 C1156 1.429 1_545 S
C1148 C1146 1.419 . S
C1148 C1149 1.363 . S
C1148 H1151 0.929 . S
C1149 C1148 1.363 . S
C1149 C1155 1.428 . S
H1150 C1146 0.930 1_545 S
H1151 C1148 0.929 . S
S1152 N1153 1.613 1_565 S
S1152 N1154 1.610 . S
N1153 S1152 1.613 1_545 S
N1153 C1156 1.350 1_545 S
N1154 S1152 1.610 . S
N1154 C1155 1.351 . S
C1155 C1149 1.428 . S
C1155 N1154 1.351 . S
C1155 C1156 1.434 . S
C1156 C1147 1.429 1_565 S
C1156 N1153 1.350 1_565 S
C1156 C1155 1.434 . S
C1157 C1158 1.369 1_455 S
C1157 C1159 1.419 . S
C1157 H1161 0.930 . S
C1158 C1157 1.369 1_655 S
C1158 C1167 1.429 1_655 S
C1159 C1157 1.419 . S
C1159 C1160 1.363 . S
C1159 H1162 0.929 . S
C1160 C1159 1.363 . S
C1160 C1166 1.428 . S
H1161 C1157 0.930 . S
H1162 C1159 0.929 . S
S1163 N1164 1.613 1_455 S
S1163 N1165 1.610 . S
N1164 S1163 1.613 1_655 S
N1164 C1167 1.350 1_655 S
N1165 S1163 1.610 . S
N1165 C1166 1.351 . S
C1166 C1160 1.428 . S
C1166 N1165 1.351 . S
C1166 C1167 1.434 . S
C1167 C1158 1.429 1_455 S
C1167 N1164 1.350 1_455 S
C1167 C1166 1.434 . S
C1168 C1169 1.369 . S
C1168 C1170 1.419 . S
C1168 H1172 0.930 . S
C1169 C1168 1.369 . S
C1169 C1178 1.429 . S
C1170 C1168 1.419 . S
C1170 C1171 1.363 1_545 S
C1170 H1173 0.920 1_545 S
C1171 C1170 1.363 1_565 S
C1171 C1177 1.428 1_565 S
H1172 C1168 0.930 . S
H1173 C1170 0.920 1_565 S
S1174 N1175 1.613 . S
S1174 N1176 1.610 1_545 S
N1175 S1174 1.613 . S
N1175 C1178 1.350 . S
N1176 S1174 1.610 1_565 S
N1176 C1177 1.351 1_565 S
C1177 C1171 1.428 1_545 S
C1177 N1176 1.351 1_545 S
C1177 C1178 1.434 . S
C1178 C1169 1.429 . S
C1178 N1175 1.350 . S
C1178 C1177 1.434 . S
C1179 C1180 1.369 . S
C1179 C1181 1.419 . S
C1179 H1183 0.930 . S
C1180 C1179 1.369 . S
C1180 C1189 1.429 . S
C1181 C1179 1.419 . S
C1181 C1182 1.363 1_455 S
C1181 H1184 0.929 1_455 S
C1182 C1181 1.363 1_655 S
C1182 C1188 1.428 1_655 S
H1183 C1179 0.930 . S
H1184 C1181 0.929 1_655 S
S1185 N1186 1.613 . S
S1185 N1187 1.621 . S
N1186 S1185 1.613 . S
N1186 C1189 1.350 . S
N1187 S1185 1.621 . S
N1187 C1188 1.355 . S
C1188 C1182 1.428 1_455 S
C1188 N1187 1.355 . S
C1188 C1189 1.434 . S
C1189 C1180 1.429 . S
C1189 N1186 1.350 . S
C1189 C1188 1.434 . S
C1190 C1191 1.369 . S
C1190 C1192 1.419 . S
C1190 H1194 0.930 . S
C1191 C1190 1.369 . S
C1191 C1200 1.429 . S
C1192 C1190 1.419 . S
C1192 C1193 1.363 1_545 S
C1192 H1195 0.929 1_545 S
C1193 C1192 1.363 1_565 S
C1193 C1199 1.428 1_565 S
H1194 C1190 0.930 . S
H1195 C1192 0.929 1_565 S
S1196 N1197 1.613 . S
S1196 N1198 1.610 1_545 S
N1197 S1196 1.613 . S
N1197 C1200 1.350 . S
N1198 S1196 1.610 1_565 S
N1198 C1199 1.351 1_565 S
C1199 C1193 1.428 1_545 S
C1199 N1198 1.351 1_545 S
C1199 C1200 1.434 . S
C1200 C1191 1.429 . S
C1200 N1197 1.350 . S
C1200 C1199 1.434 . S
C1201 C1202 1.369 1_565 S
C1201 C1203 1.419 . S
C1201 H1205 0.930 . S
C1202 C1201 1.369 1_545 S
C1202 C1211 1.429 1_545 S
C1203 C1201 1.419 . S
C1203 C1204 1.363 . S
C1203 H1206 0.929 . S
C1204 C1203 1.363 . S
C1204 C1210 1.428 . S
H1205 C1201 0.930 . S
H1206 C1203 0.929 . S
S1207 N1208 1.613 1_565 S
S1207 N1209 1.610 . S
N1208 S1207 1.613 1_545 S
N1208 C1211 1.350 1_545 S
N1209 S1207 1.610 . S
N1209 C1210 1.351 . S
C1210 C1204 1.428 . S
C1210 N1209 1.351 . S
C1210 C1211 1.434 . S
C1211 C1202 1.429 1_565 S
C1211 N1208 1.350 1_565 S
C1211 C1210 1.434 . S
C1212 C1213 1.369 . S
C1212 C1214 1.419 . S
C1212 H1216 0.930 . S
C1213 C1212 1.369 . S
C1213 C1222 1.429 . S
C1214 C1212 1.419 . S
C1214 C1215 1.363 . S
C1214 H1217 0.929 . S
C1215 C1214 1.363 . S
C1215 C1221 1.428 . S
H1216 C1212 0.930 . S
H1217 C1214 0.929 . S
S1218 N1219 1.613 . S
S1218 N1220 1.610 . S
N1219 S1218 1.613 . S
N1219 C1222 1.350 . S
N1220 S1218 1.610 . S
N1220 C1221 1.351 . S
C1221 C1215 1.428 . S
C1221 N1220 1.351 . S
C1221 C1222 1.434 . S
C1222 C1213 1.429 . S
C1222 N1219 1.350 . S
C1222 C1221 1.434 . S
C1223 C1224 1.369 . S
C1223 C1225 1.419 . S
C1223 H1227 0.930 . S
C1224 C1223 1.369 . S
C1224 C1233 1.429 . S
C1225 C1223 1.419 . S
C1225 C1226 1.363 . S
C1225 H1228 0.929 . S
C1226 C1225 1.363 . S
C1226 C1232 1.428 . S
H1227 C1223 0.930 . S
H1228 C1225 0.929 . S
S1229 N1230 1.613 . S
S1229 N1231 1.610 . S
N1230 S1229 1.613 . S
N1230 C1233 1.350 . S
N1231 S1229 1.610 . S
N1231 C1232 1.351 . S
C1232 C1226 1.428 . S
C1232 N1231 1.351 . S
C1232 C1233 1.434 . S
C1233 C1224 1.429 . S
C1233 N1230 1.350 . S
C1233 C1232 1.434 . S
C1234 C1235 1.369 . S
C1234 C1236 1.419 . S
C1234 H1238 0.930 . S
C1235 C1234 1.369 . S
C1235 C1244 1.429 . S
C1236 C1234 1.419 . S
C1236 C1237 1.363 . S
C1236 H1239 0.929 . S
C1237 C1236 1.363 . S
C1237 C1243 1.428 . S
H1238 C1234 0.930 . S
H1239 C1236 0.929 . S
S1240 N1241 1.613 . S
S1240 N1242 1.610 . S
N1241 S1240 1.613 . S
N1241 C1244 1.350 . S
N1242 S1240 1.610 . S
N1242 C1243 1.351 . S
C1243 C1237 1.428 . S
C1243 N1242 1.351 . S
C1243 C1244 1.434 . S
C1244 C1235 1.429 . S
C1244 N1241 1.350 . S
C1244 C1243 1.434 . S
C1245 C1246 1.369 . S
C1245 C1247 1.419 . S
C1245 H1249 0.930 . S
C1246 C1245 1.369 . S
C1246 C1255 1.429 . S
C1247 C1245 1.419 . S
C1247 C1248 1.363 . S
C1247 H1250 0.929 . S
C1248 C1247 1.363 . S
C1248 C1254 1.428 . S
H1249 C1245 0.930 . S
H1250 C1247 0.929 . S
S1251 N1252 1.613 . S
S1251 N1253 1.610 . S
N1252 S1251 1.613 . S
N1252 C1255 1.350 . S
N1253 S1251 1.610 . S
N1253 C1254 1.351 . S
C1254 C1248 1.428 . S
C1254 N1253 1.351 . S
C1254 C1255 1.434 . S
C1255 C1246 1.429 . S
C1255 N1252 1.350 . S
C1255 C1254 1.434 . S
C1256 C1257 1.369 . S
C1256 C1258 1.419 . S
C1256 H1260 0.930 . S
C1257 C1256 1.369 . S
C1257 C1266 1.429 . S
C1258 C1256 1.419 . S
C1258 C1259 1.363 . S
C1258 H1261 0.929 . S
C1259 C1258 1.363 . S
C1259 C1265 1.428 . S
H1260 C1256 0.930 . S
H1261 C1258 0.929 . S
S1262 N1263 1.613 . S
S1262 N1264 1.610 . S
N1263 S1262 1.613 . S
N1263 C1266 1.350 . S
N1264 S1262 1.610 . S
N1264 C1265 1.351 . S
C1265 C1259 1.428 . S
C1265 N1264 1.351 . S
C1265 C1266 1.434 . S
C1266 C1257 1.429 . S
C1266 N1263 1.350 . S
C1266 C1265 1.434 . S
C1267 C1268 1.369 . S
C1267 C1269 1.419 . S
C1267 H1271 0.930 . S
C1268 C1267 1.369 . S
C1268 C1277 1.429 . S
C1269 C1267 1.419 . S
C1269 C1270 1.363 . S
C1269 H1272 0.929 . S
C1270 C1269 1.363 . S
C1270 C1276 1.428 . S
H1271 C1267 0.930 . S
H1272 C1269 0.929 . S
S1273 N1274 1.613 . S
S1273 N1275 1.610 . S
N1274 S1273 1.613 . S
N1274 C1277 1.350 . S
N1275 S1273 1.610 . S
N1275 C1276 1.351 . S
C1276 C1270 1.428 . S
C1276 N1275 1.351 . S
C1276 C1277 1.434 . S
C1277 C1268 1.429 . S
C1277 N1274 1.350 . S
C1277 C1276 1.434 . S
C1278 C1279 1.369 . S
C1278 C1280 1.419 . S
C1278 H1282 0.930 . S
C1279 C1278 1.369 . S
C1279 C1288 1.429 . S
C1280 C1278 1.419 . S
C1280 C1281 1.363 . S
C1280 H1283 0.929 . S
C1281 C1280 1.363 . S
C1281 C1287 1.428 . S
H1282 C1278 0.930 . S
H1283 C1280 0.929 . S
S1284 N1285 1.613 . S
S1284 N1286 1.610 . S
N1285 S1284 1.613 . S
N1285 C1288 1.350 . S
N1286 S1284 1.610 . S
N1286 C1287 1.351 . S
C1287 C1281 1.428 . S
C1287 N1286 1.351 . S
C1287 C1288 1.434 . S
C1288 C1279 1.429 . S
C1288 N1285 1.350 . S
C1288 C1287 1.434 . S
C1289 C1290 1.369 . S
C1289 C1291 1.419 . S
C1289 H1293 0.930 . S
C1290 C1289 1.369 . S
C1290 C1299 1.429 . S
C1291 C1289 1.419 . S
C1291 C1292 1.363 . S
C1291 H1294 0.929 . S
C1292 C1291 1.363 . S
C1292 C1298 1.428 . S
H1293 C1289 0.930 . S
H1294 C1291 0.929 . S
S1295 N1296 1.613 . S
S1295 N1297 1.610 . S
N1296 S1295 1.613 . S
N1296 C1299 1.350 . S
N1297 S1295 1.610 . S
N1297 C1298 1.351 . S
C1298 C1292 1.428 . S
C1298 N1297 1.351 . S
C1298 C1299 1.434 . S
C1299 C1290 1.429 . S
C1299 N1296 1.350 . S
C1299 C1298 1.434 . S
C1300 C1301 1.369 . S
C1300 C1302 1.419 . S
C1300 H1304 0.930 . S
C1301 C1300 1.369 . S
C1301 C1310 1.429 . S
C1302 C1300 1.419 . S
C1302 C1303 1.363 . S
C1302 H1305 0.929 . S
C1303 C1302 1.363 . S
C1303 C1309 1.428 . S
H1304 C1300 0.930 . S
H1305 C1302 0.929 . S
S1306 N1307 1.613 . S
S1306 N1308 1.610 . S
N1307 S1306 1.613 . S
N1307 C1310 1.350 . S
N1308 S1306 1.610 . S
N1308 C1309 1.351 . S
C1309 C1303 1.428 . S
C1309 N1308 1.351 . S
C1309 C1310 1.434 . S
C1310 C1301 1.429 . S
C1310 N1307 1.350 . S
C1310 C1309 1.434 . S
C1311 C1312 1.369 . S
C1311 C1313 1.419 . S
C1311 H1315 0.930 . S
C1312 C1311 1.369 . S
C1312 C1321 1.429 . S
C1313 C1311 1.419 . S
C1313 C1314 1.363 . S
C1313 H1316 0.929 . S
C1314 C1313 1.363 . S
C1314 C1320 1.428 . S
H1315 C1311 0.930 . S
H1316 C1313 0.929 . S
S1317 N1318 1.613 . S
S1317 N1319 1.610 . S
N1318 S1317 1.613 . S
N1318 C1321 1.350 . S
N1319 S1317 1.610 . S
N1319 C1320 1.351 . S
C1320 C1314 1.428 . S
C1320 N1319 1.351 . S
C1320 C1321 1.434 . S
C1321 C1312 1.429 . S
C1321 N1318 1.350 . S
C1321 C1320 1.434 . S
C1322 C1323 1.369 . S
C1322 C1324 1.419 . S
C1322 H1326 0.930 . S
C1323 C1322 1.369 . S
C1323 C1332 1.429 . S
C1324 C1322 1.419 . S
C1324 C1325 1.363 . S
C1324 H1327 0.929 . S
C1325 C1324 1.363 . S
C1325 C1331 1.428 . S
H1326 C1322 0.930 . S
H1327 C1324 0.929 . S
S1328 N1329 1.613 . S
S1328 N1330 1.610 . S
N1329 S1328 1.613 . S
N1329 C1332 1.350 . S
N1330 S1328 1.610 . S
N1330 C1331 1.351 . S
C1331 C1325 1.428 . S
C1331 N1330 1.351 . S
C1331 C1332 1.434 . S
C1332 C1323 1.429 . S
C1332 N1329 1.350 . S
C1332 C1331 1.434 . S
C1333 C1334 1.369 . S
C1333 C1335 1.419 . S
C1333 H1337 0.930 . S
C1334 C1333 1.369 . S
C1334 C1343 1.429 . S
C1335 C1333 1.419 . S
C1335 C1336 1.363 . S
C1335 H1338 0.929 . S
C1336 C1335 1.363 . S
C1336 C1342 1.428 . S
H1337 C1333 0.930 . S
H1338 C1335 0.929 . S
S1339 N1340 1.613 . S
S1339 N1341 1.610 . S
N1340 S1339 1.613 . S
N1340 C1343 1.350 . S
N1341 S1339 1.610 . S
N1341 C1342 1.351 . S
C1342 C1336 1.428 . S
C1342 N1341 1.351 . S
C1342 C1343 1.434 . S
C1343 C1334 1.429 . S
C1343 N1340 1.350 . S
C1343 C1342 1.434 . S
C1344 C1345 1.369 . S
C1344 C1346 1.419 . S
C1344 H1348 0.930 . S
C1345 C1344 1.369 . S
C1345 C1354 1.429 . S
C1346 C1344 1.419 . S
C1346 C1347 1.363 . S
C1346 H1349 0.929 . S
C1347 C1346 1.363 . S
C1347 C1353 1.428 . S
H1348 C1344 0.930 . S
H1349 C1346 0.929 . S
S1350 N1351 1.613 . S
S1350 N1352 1.610 . S
N1351 S1350 1.613 . S
N1351 C1354 1.350 . S
N1352 S1350 1.610 . S
N1352 C1353 1.351 . S
C1353 C1347 1.428 . S
C1353 N1352 1.351 . S
C1353 C1354 1.434 . S
C1354 C1345 1.429 . S
C1354 N1351 1.350 . S
C1354 C1353 1.434 . S
C1355 C1356 1.369 . S
C1355 C1357 1.419 . S
C1355 H1359 0.930 . S
C1356 C1355 1.369 . S
C1356 C1365 1.429 . S
C1357 C1355 1.419 . S
C1357 C1358 1.363 . S
C1357 H1360 0.929 . S
C1358 C1357 1.363 . S
C1358 C1364 1.428 . S
H1359 C1355 0.930 . S
H1360 C1357 0.929 . S
S1361 N1362 1.613 . S
S1361 N1363 1.610 . S
N1362 S1361 1.613 . S
N1362 C1365 1.350 . S
N1363 S1361 1.610 . S
N1363 C1364 1.351 . S
C1364 C1358 1.428 . S
C1364 N1363 1.351 . S
C1364 C1365 1.434 . S
C1365 C1356 1.429 . S
C1365 N1362 1.350 . S
C1365 C1364 1.434 . S
C1366 C1367 1.369 . S
C1366 C1368 1.419 . S
C1366 H1370 0.930 . S
C1367 C1366 1.369 . S
C1367 C1376 1.429 . S
C1368 C1366 1.419 . S
C1368 C1369 1.363 . S
C1368 H1371 0.929 . S
C1369 C1368 1.363 . S
C1369 C1375 1.428 . S
H1370 C1366 0.930 . S
H1371 C1368 0.929 . S
S1372 N1373 1.613 . S
S1372 N1374 1.610 . S
N1373 S1372 1.613 . S
N1373 C1376 1.350 . S
N1374 S1372 1.610 . S
N1374 C1375 1.351 . S
C1375 C1369 1.428 . S
C1375 N1374 1.351 . S
C1375 C1376 1.434 . S
C1376 C1367 1.429 . S
C1376 N1373 1.350 . S
C1376 C1375 1.434 . S
C1377 C1378 1.369 . S
C1377 C1379 1.419 . S
C1377 H1381 0.930 . S
C1378 C1377 1.369 . S
C1378 C1387 1.429 . S
C1379 C1377 1.419 . S
C1379 C1380 1.363 . S
C1379 H1382 0.929 . S
C1380 C1379 1.363 . S
C1380 C1386 1.428 . S
H1381 C1377 0.930 . S
H1382 C1379 0.929 . S
S1383 N1384 1.613 . S
S1383 N1385 1.610 . S
N1384 S1383 1.613 . S
N1384 C1387 1.350 . S
N1385 S1383 1.610 . S
N1385 C1386 1.351 . S
C1386 C1380 1.428 . S
C1386 N1385 1.351 . S
C1386 C1387 1.434 . S
C1387 C1378 1.429 . S
C1387 N1384 1.350 . S
C1387 C1386 1.434 . S
C1388 C1389 1.369 . S
C1388 C1390 1.419 . S
C1388 H1392 0.930 . S
C1389 C1388 1.369 . S
C1389 C1398 1.429 . S
C1390 C1388 1.419 . S
C1390 C1391 1.363 . S
C1390 H1393 0.929 . S
C1391 C1390 1.363 . S
C1391 C1397 1.428 . S
H1392 C1388 0.930 . S
H1393 C1390 0.929 . S
S1394 N1395 1.613 . S
S1394 N1396 1.610 . S
N1395 S1394 1.613 . S
N1395 C1398 1.350 . S
N1396 S1394 1.610 . S
N1396 C1397 1.351 . S
C1397 C1391 1.428 . S
C1397 N1396 1.351 . S
C1397 C1398 1.434 . S
C1398 C1389 1.429 . S
C1398 N1395 1.350 . S
C1398 C1397 1.434 . S
C1399 C1400 1.369 . S
C1399 C1401 1.419 . S
C1399 H1403 0.930 . S
C1400 C1399 1.369 . S
C1400 C1409 1.429 . S
C1401 C1399 1.419 . S
C1401 C1402 1.363 . S
C1401 H1404 0.929 . S
C1402 C1401 1.363 . S
C1402 C1408 1.428 . S
H1403 C1399 0.930 . S
H1404 C1401 0.929 . S
S1405 N1406 1.613 . S
S1405 N1407 1.610 . S
N1406 S1405 1.613 . S
N1406 C1409 1.350 . S
N1407 S1405 1.610 . S
N1407 C1408 1.351 . S
C1408 C1402 1.428 . S
C1408 N1407 1.351 . S
C1408 C1409 1.434 . S
C1409 C1400 1.429 . S
C1409 N1406 1.350 . S
C1409 C1408 1.434 . S
C1410 C1411 1.369 . S
C1410 C1412 1.419 . S
C1410 H1414 0.930 . S
C1411 C1410 1.369 . S
C1411 C1420 1.429 . S
C1412 C1410 1.419 . S
C1412 C1413 1.363 . S
C1412 H1415 0.929 . S
C1413 C1412 1.363 . S
C1413 C1419 1.428 . S
H1414 C1410 0.930 . S
H1415 C1412 0.929 . S
S1416 N1417 1.613 . S
S1416 N1418 1.610 . S
N1417 S1416 1.613 . S
N1417 C1420 1.350 . S
N1418 S1416 1.610 . S
N1418 C1419 1.351 . S
C1419 C1413 1.428 . S
C1419 N1418 1.351 . S
C1419 C1420 1.434 . S
C1420 C1411 1.429 . S
C1420 N1417 1.350 . S
C1420 C1419 1.434 . S
C1421 C1422 1.369 . S
C1421 C1423 1.419 . S
C1421 H1425 0.930 . S
C1422 C1421 1.369 . S
C1422 C1431 1.429 . S
C1423 C1421 1.419 . S
C1423 C1424 1.363 . S
C1423 H1426 0.929 . S
C1424 C1423 1.363 . S
C1424 C1430 1.428 . S
H1425 C1421 0.930 . S
H1426 C1423 0.929 . S
S1427 N1428 1.613 . S
S1427 N1429 1.610 . S
N1428 S1427 1.613 . S
N1428 C1431 1.350 . S
N1429 S1427 1.610 . S
N1429 C1430 1.351 . S
C1430 C1424 1.428 . S
C1430 N1429 1.351 . S
C1430 C1431 1.434 . S
C1431 C1422 1.429 . S
C1431 N1428 1.350 . S
C1431 C1430 1.434 . S
C1432 C1433 1.369 . S
C1432 C1434 1.419 . S
C1432 H1436 0.930 . S
C1433 C1432 1.369 . S
C1433 C1442 1.429 . S
C1434 C1432 1.419 . S
C1434 C1435 1.363 . S
C1434 H1437 0.929 . S
C1435 C1434 1.363 . S
C1435 C1441 1.428 . S
H1436 C1432 0.930 . S
H1437 C1434 0.929 . S
S1438 N1439 1.613 . S
S1438 N1440 1.610 . S
N1439 S1438 1.613 . S
N1439 C1442 1.350 . S
N1440 S1438 1.610 . S
N1440 C1441 1.351 . S
C1441 C1435 1.428 . S
C1441 N1440 1.351 . S
C1441 C1442 1.434 . S
C1442 C1433 1.429 . S
C1442 N1439 1.350 . S
C1442 C1441 1.434 . S
C1443 C1444 1.369 . S
C1443 C1445 1.419 . S
C1443 H1447 0.930 . S
C1444 C1443 1.369 . S
C1444 C1453 1.429 . S
C1445 C1443 1.419 . S
C1445 C1446 1.363 . S
C1445 H1448 0.929 . S
C1446 C1445 1.363 . S
C1446 C1452 1.428 . S
H1447 C1443 0.930 . S
H1448 C1445 0.929 . S
S1449 N1450 1.613 . S
S1449 N1451 1.610 . S
N1450 S1449 1.613 . S
N1450 C1453 1.350 . S
N1451 S1449 1.610 . S
N1451 C1452 1.351 . S
C1452 C1446 1.428 . S
C1452 N1451 1.351 . S
C1452 C1453 1.434 . S
C1453 C1444 1.429 . S
C1453 N1450 1.350 . S
C1453 C1452 1.434 . S
C1454 C1455 1.369 . S
C1454 C1456 1.419 . S
C1454 H1458 0.930 . S
C1455 C1454 1.369 . S
C1455 C1464 1.429 . S
C1456 C1454 1.419 . S
C1456 C1457 1.363 . S
C1456 H1459 0.929 . S
C1457 C1456 1.363 . S
C1457 C1463 1.428 . S
H1458 C1454 0.930 . S
H1459 C1456 0.929 . S
S1460 N1461 1.613 . S
S1460 N1462 1.610 . S
N1461 S1460 1.613 . S
N1461 C1464 1.350 . S
N1462 S1460 1.610 . S
N1462 C1463 1.351 . S
C1463 C1457 1.428 . S
C1463 N1462 1.351 . S
C1463 C1464 1.434 . S
C1464 C1455 1.429 . S
C1464 N1461 1.350 . S
C1464 C1463 1.434 . S
C1465 C1466 1.369 . S
C1465 C1467 1.419 . S
C1465 H1469 0.930 . S
C1466 C1465 1.369 . S
C1466 C1475 1.429 . S
C1467 C1465 1.419 . S
C1467 C1468 1.363 . S
C1467 H1470 0.929 . S
C1468 C1467 1.363 . S
C1468 C1474 1.428 . S
H1469 C1465 0.930 . S
H1470 C1467 0.929 . S
S1471 N1472 1.613 . S
S1471 N1473 1.610 . S
N1472 S1471 1.613 . S
N1472 C1475 1.350 . S
N1473 S1471 1.610 . S
N1473 C1474 1.351 . S
C1474 C1468 1.428 . S
C1474 N1473 1.351 . S
C1474 C1475 1.434 . S
C1475 C1466 1.429 . S
C1475 N1472 1.350 . S
C1475 C1474 1.434 . S
C817 C203 0.766 . S
C819 C33 0.767 . S
C828 C67 0.766 . S
C830 C237 0.768 . S
C839 C101 0.773 . S
C841 C271 0.772 . S
C850 C169 0.768 . S
C852 C135 0.768 . S
C861 C305 0.767 . S
C863 C815 0.767 . S
C872 C747 0.766 . S
C874 C339 0.768 . S
C883 C373 0.772 . S
C885 C781 0.772 . S
C894 C577 0.773 . S
C896 C407 0.772 . S
C905 C441 0.767 . S
C907 C713 0.768 . S
C916 C475 0.768 . S
C918 C611 0.768 . S
C927 C645 0.773 . S
C929 C509 0.772 . S
C938 C543 0.770 . S
C940 C679 0.771 . S
C949 C104 1.836 . S
C951 C5 1.767 . S
C960 C39 1.766 . S
C962 C2 1.836 . S
C971 C73 1.773 . S
C973 C36 1.835 . S
C982 C70 1.834 . S
C984 C107 1.773 . S
C993 C172 1.836 . S
C995 C141 1.768 . S
C1004 C175 1.767 . S
C1006 C206 1.836 . S
C1015 C240 1.835 . S
C1017 C209 1.772 . S
C1026 C138 1.834 . S
C1028 C243 1.773 . S
C1037 C614 1.835 . S
C1039 C277 1.772 . S
C1048 C311 1.773 . S
C1050 C648 1.835 . S
C1059 C682 1.835 . S
C1061 C345 1.769 . S
C1070 C379 1.769 . S
C1072 C580 1.835 . S
C1081 C750 1.835 . S
C1083 C413 1.772 . S
C1092 C447 1.766 . S
C1094 C546 1.836 . S
C1103 C784 1.835 . S
C1105 C481 1.770 . S
C1114 C515 1.771 . S
C1116 C716 1.835 . S
C1125 C308 1.834 . S
C1127 C549 1.773 . S
C1136 C512 1.835 . S
C1138 C583 1.771 . S
C1147 C617 1.770 . S
C1149 C410 1.835 . S
C1158 C651 1.766 . S
C1160 C444 1.836 . S
C1169 C478 1.835 . S
C1171 C685 1.769 . S
C1180 C376 1.835 . S
C1182 C719 1.772 . S
C1191 C274 1.835 . S
C1193 C753 1.770 . S
C1202 C787 1.766 . S
C1204 C342 1.836 . S
C1213 C9 1.517 . S
C1215 C564 1.536 . S
C1224 C802 1.537 . S
C1226 C43 1.519 . S
C1235 C77 1.516 . S
C1237 C734 1.536 . S
C1246 C768 1.534 . S
C1248 C111 1.518 . S
C1257 C145 1.517 . S
C1259 C598 1.534 . S
C1268 C179 1.520 . S
C1270 C632 1.536 . S
C1279 C666 1.537 . S
C1281 C213 1.518 . S
C1290 C700 1.536 . S
C1292 C247 1.520 . S
C1301 C20 1.537 . S
C1303 C281 1.518 . S
C1312 C315 1.516 . S
C1314 C54 1.534 . S
C1323 C349 1.514 . S
C1325 C88 1.535 . S
C1334 C383 1.520 . S
C1336 C122 1.536 . S
C1345 C417 1.516 . S
C1347 C156 1.536 . S
C1356 C451 1.520 . S
C1358 C190 1.535 . S
C1367 C485 1.520 . S
C1369 C224 1.536 . S
C1378 C519 1.517 . S
C1380 C258 1.534 . S
C1389 C292 1.534 . S
C1391 C553 1.517 . S
C1400 C587 1.520 . S
C1402 C428 1.535 . S
C1411 C621 1.520 . S
C1413 C462 1.535 . S
C1422 C496 1.534 . S
C1424 C655 1.517 . S
C1433 C689 1.514 . S
C1435 C530 1.535 . S
C1444 C360 1.537 . S
C1446 C723 1.519 . S
C1455 C394 1.536 . S
C1457 C757 1.517 . S
C1466 C791 1.515 . S
C1468 C326 1.535 . S
