# Generated by pormake.
# Topology nov, (5)-cn, num edge types: 1
# Building blocks:
#     Node 0, Type 0, BuildingBlock: XOMCOT_clean_sbu_0, # of connection points: 5
#     Node 1, Type 0, BuildingBlock: XOMCOT_clean_sbu_0, # of connection points: 5
#     Node 2, Type 0, BuildingBlock: XOMCOT_clean_sbu_0, # of connection points: 5
#     Node 3, Type 0, BuildingBlock: XOMCOT_clean_sbu_0, # of connection points: 5
#     Node 4, Type 0, BuildingBlock: XOMCOT_clean_sbu_0, # of connection points: 5
#     Node 5, Type 0, BuildingBlock: XOMCOT_clean_sbu_0, # of connection points: 5
#     Node 6, Type 0, BuildingBlock: XOMCOT_clean_sbu_0, # of connection points: 5
#     Node 7, Type 0, BuildingBlock: XOMCOT_clean_sbu_0, # of connection points: 5
#     Edge 8, Type (0, 0), BuildingBlock: EZIPEK_clean_linker_0, # of connection points: 2
#     Edge 9, Type (0, 0), BuildingBlock: EZIPEK_clean_linker_0, # of connection points: 2
#     Edge 10, Type (0, 0), BuildingBlock: EZIPEK_clean_linker_0, # of connection points: 2
#     Edge 11, Type (0, 0), BuildingBlock: EZIPEK_clean_linker_0, # of connection points: 2
#     Edge 12, Type (0, 0), BuildingBlock: EZIPEK_clean_linker_0, # of connection points: 2
#     Edge 13, Type (0, 0), BuildingBlock: EZIPEK_clean_linker_0, # of connection points: 2
#     Edge 14, Type (0, 0), BuildingBlock: EZIPEK_clean_linker_0, # of connection points: 2
#     Edge 15, Type (0, 0), BuildingBlock: EZIPEK_clean_linker_0, # of connection points: 2
#     Edge 16, Type (0, 0), BuildingBlock: EZIPEK_clean_linker_0, # of connection points: 2
#     Edge 17, Type (0, 0), BuildingBlock: EZIPEK_clean_linker_0, # of connection points: 2
#     Edge 18, Type (0, 0), BuildingBlock: EZIPEK_clean_linker_0, # of connection points: 2
#     Edge 19, Type (0, 0), BuildingBlock: EZIPEK_clean_linker_0, # of connection points: 2
#     Edge 20, Type (0, 0), BuildingBlock: EZIPEK_clean_linker_0, # of connection points: 2
#     Edge 21, Type (0, 0), BuildingBlock: EZIPEK_clean_linker_0, # of connection points: 2
#     Edge 22, Type (0, 0), BuildingBlock: EZIPEK_clean_linker_0, # of connection points: 2
#     Edge 23, Type (0, 0), BuildingBlock: EZIPEK_clean_linker_0, # of connection points: 2
#     Edge 24, Type (0, 0), BuildingBlock: EZIPEK_clean_linker_0, # of connection points: 2
#     Edge 25, Type (0, 0), BuildingBlock: EZIPEK_clean_linker_0, # of connection points: 2
#     Edge 26, Type (0, 0), BuildingBlock: EZIPEK_clean_linker_0, # of connection points: 2
#     Edge 27, Type (0, 0), BuildingBlock: EZIPEK_clean_linker_0, # of connection points: 2
# Relax obj value: 0.153
# Max RMSD: 0.185
# Mean RMSD: 0.185
data_MOF--net-nov--node1-XOMCOT_clean_sbu_0--edge1-EZIPEK_clean_linker_0
_symmetry_space_group_name_H-M    P1
_symmetry_Int_Tables_number       1
_symmetry_cell_setting            triclinic
loop_
_symmetry_equiv_pos_as_xyz
'x, y, z'
_cell_length_a     20.02177
_cell_length_b     41.464412
_cell_length_c     21.748711
_cell_angle_alpha  89.547228
_cell_angle_beta   90.431571
_cell_angle_gamma 89.909219
loop_
_atom_site_label
_atom_site_type_symbol
_atom_site_fract_x
_atom_site_fract_y
_atom_site_fract_z
_atom_type_partial_charge
Co0 Co 0.02902 0.17001 0.17266 0.0
C1 C 1.01562 0.11073 0.09668 0.0
C2 C 0.06586 0.10252 0.18314 0.0
C3 C 0.06508 0.07411 0.15133 0.0
N4 N 0.03585 0.12553 0.14868 0.0
N5 N 0.03383 0.07928 0.09708 0.0
H6 H 0.98968 0.1227 0.05907 0.0
H7 H 0.08764 0.10626 0.22817 0.0
C8 C 0.16974 0.186 0.21372 0.0
O9 O 0.1639 0.21526 0.19061 0.0
N10 N 0.02266 0.21463 0.19993 0.0
C11 C 1.00453 0.24157 0.16842 0.0
C12 C 1.00122 0.2671 0.20851 0.0
C13 C 0.02987 0.22434 0.25881 0.0
N14 N 0.0171 0.25609 0.26501 0.0
C15 C 1.01124 0.19521 0.05078 0.0
C16 C 0.14317 0.19633 0.01527 0.0
C17 C 0.09501 0.21142 0.97775 0.0
C18 C 0.02816 0.20965 0.995 0.0
C19 C 0.12393 0.18225 0.07136 0.0
N20 N 0.0591 0.18382 0.09066 0.0
H21 H 0.95929 0.19529 0.06325 0.0
H22 H 0.16166 0.17062 0.09884 0.0
H23 H 0.99216 0.24307 0.1203 0.0
H24 H 0.04318 0.20839 0.29661 0.0
O25 O 0.93438 0.16935 0.15623 0.0
O26 O 0.98076 0.15672 0.24585 0.0
O27 O 0.12187 0.16599 0.20873 0.0
C28 C 0.92666 0.16049 0.21305 0.0
H29 H 0.08633 0.05134 0.16646 0.0
H30 H 0.98738 0.29171 0.19736 0.0
H31 H 0.19521 0.19617 1.00207 0.0
H32 H 0.98933 0.22028 0.96636 0.0
Co33 Co 0.58778 0.87353 0.67132 0.0
C34 C 0.57244 0.93556 0.59789 0.0
C35 C 0.54786 0.94 0.69326 0.0
C36 C 0.54107 0.96983 0.66585 0.0
N37 N 0.56712 0.91834 0.65088 0.0
N38 N 0.55654 0.96694 0.60612 0.0
H39 H 0.58794 0.92596 0.55437 0.0
H40 H 0.53959 0.93441 0.74126 0.0
C41 C 0.44093 0.87913 0.68981 0.0
O42 O 0.4379 0.89354 0.63581 0.0
N43 N 0.60857 0.82946 0.69434 0.0
C44 C 0.63991 0.80696 0.66053 0.0
C45 C 0.64979 0.77977 0.69647 0.0
C46 C 0.59949 0.81572 0.75007 0.0
N47 N 0.62417 0.78541 0.75248 0.0
C48 C 0.59937 0.86274 0.54219 0.0
C49 C 0.49273 0.8211 0.52988 0.0
C50 C 0.53645 0.82505 0.48042 0.0
C51 C 0.59014 0.84631 0.48703 0.0
C52 C 0.50582 0.83673 0.58539 0.0
N53 N 0.55765 0.85801 0.59095 0.0
H54 H 0.64281 0.8779 0.54649 0.0
H55 H 0.47636 0.83 0.62445 0.0
H56 H 0.65638 0.81037 0.61371 0.0
H57 H 0.57671 0.82786 0.78851 0.0
O58 O 0.67998 0.88095 0.65123 0.0
O59 O 0.63681 0.88813 0.74345 0.0
O60 O 0.49689 0.86873 0.71053 0.0
C61 C 0.6891 0.88897 0.70821 0.0
H62 H 0.52616 0.992 0.6879 0.0
H63 H 0.6746 0.75774 0.683 0.0
H64 H 0.45129 0.8044 0.52691 0.0
H65 H 0.62579 0.84958 0.45029 0.0
Co66 Co 0.04586 0.8863 0.84925 0.0
C67 C 0.02839 0.94796 0.91815 0.0
C68 C 0.13153 0.93665 0.90423 0.0
C69 C 0.12801 0.96489 0.93632 0.0
N70 N 0.06914 0.92588 0.89223 0.0
N71 N 0.0633 0.972 0.94494 0.0
H72 H 0.97475 0.9462 0.91937 0.0
H73 H 0.17728 0.92461 0.89236 0.0
C74 C 0.18742 0.86297 0.81775 0.0
O75 O 0.17961 0.83593 0.84876 0.0
N76 N 0.02242 0.84662 0.80533 0.0
C77 C 0.96368 0.8306 0.80864 0.0
C78 C 0.96224 0.8067 0.76532 0.0
C79 C 0.0552 0.8322 0.75858 0.0
N80 N 0.01987 0.80763 0.73405 0.0
C81 C 1.01033 0.84626 0.9511 0.0
C82 C 0.13288 0.8444 1.00997 0.0
C83 C 0.07944 0.82712 0.03488 0.0
C84 C 0.01739 0.82855 1.0055 0.0
C85 C 0.12345 0.8621 0.95545 0.0
N86 N 0.06336 0.86178 0.92501 0.0
H87 H 0.96142 0.84776 0.93063 0.0
H88 H 0.16504 0.87557 0.9378 0.0
H89 H 0.92239 0.8367 0.83796 0.0
H90 H 0.10196 0.84038 0.73995 0.0
O91 O 0.95142 0.89473 0.8608 0.0
O92 O 1.01009 0.91098 0.7808 0.0
O93 O 0.14033 0.8837 0.81679 0.0
C94 C 0.95203 0.90825 0.80662 0.0
H95 H 0.16975 0.97913 0.95259 0.0
H96 H 0.92143 0.79023 0.75648 0.0
H97 H 0.18139 0.84411 0.03234 0.0
H98 H 0.97477 0.81592 0.02435 0.0
Co99 Co 0.56417 0.16417 0.36505 0.0
C100 C 0.56098 0.10253 0.4386 0.0
C101 C 0.53737 0.09588 0.34306 0.0
C102 C 0.53572 0.06626 0.37194 0.0
N103 N 0.55274 0.11871 0.38472 0.0
N104 N 0.55059 0.07052 0.43174 0.0
H105 H 0.57433 0.1136 0.48177 0.0
H106 H 0.52764 0.10052 0.29481 0.0
C107 C 0.41623 0.15249 0.34275 0.0
O108 O 0.4142 0.13033 0.38619 0.0
N109 N 0.57532 0.20919 0.34342 0.0
C110 C 0.60324 0.23322 0.37623 0.0
C111 C 0.60488 0.26071 0.34003 0.0
C112 C 0.56056 0.2223 0.28808 0.0
N113 N 0.57908 0.25349 0.28439 0.0
C114 C 0.59248 0.17885 0.49099 0.0
C115 C 0.46946 0.20429 0.52029 0.0
C116 C 0.52333 0.20936 0.56025 0.0
C117 C 0.58501 0.19552 0.54613 0.0
C118 C 0.47962 0.18845 0.46472 0.0
N119 N 0.54119 0.17687 0.44918 0.0
H120 H 0.6412 0.16939 0.48049 0.0
H121 H 0.43797 0.18724 0.43415 0.0
H122 H 0.62319 0.23092 0.42229 0.0
H123 H 0.53869 0.20898 0.25038 0.0
O124 O 0.6601 0.15988 0.37483 0.0
O125 O 0.60484 0.15237 0.28783 0.0
O126 O 0.47002 0.16782 0.33199 0.0
C127 C 0.66192 0.15382 0.31634 0.0
H128 H 0.52428 0.04332 0.3509 0.0
H129 H 0.62609 0.28377 0.3525 0.0
H130 H 0.42074 0.21433 0.53019 0.0
H131 H 0.62775 0.19866 0.57631 0.0
Co132 Co 0.53537 0.66554 0.16411 0.0
C133 C 0.53639 0.60702 0.08611 0.0
C134 C 0.57995 0.59885 0.17561 0.0
C135 C 0.58284 0.57055 0.14324 0.0
N136 N 0.55155 0.6217 0.13966 0.0
N137 N 0.55576 0.5758 0.08716 0.0
H138 H 0.51194 0.6188 0.04744 0.0
H139 H 0.59716 0.60255 0.22228 0.0
C140 C 0.6751 0.68711 0.19971 0.0
O141 O 0.66734 0.7132 0.16569 0.0
N142 N 0.51908 0.70947 0.19167 0.0
C143 C 0.4735 0.73111 0.17081 0.0
C144 C 0.46799 0.75576 0.21238 0.0
C145 C 0.5404 0.72156 0.24594 0.0
N146 N 0.51027 0.74976 0.25943 0.0
C147 C 0.51879 0.69522 0.04642 0.0
C148 C 0.64804 0.68965 1.00481 0.0
C149 C 0.60157 0.70767 0.97009 0.0
C150 C 0.5359 0.70944 0.99066 0.0
C151 C 0.6286 0.67592 0.06128 0.0
N152 N 0.56566 0.68089 0.08354 0.0
H153 H 0.46708 0.69562 0.0592 0.0
H154 H 0.66427 0.66163 0.08702 0.0
H155 H 0.44275 0.72882 0.13042 0.0
H156 H 0.57405 0.709 0.27709 0.0
O157 O 0.44222 0.6599 0.14386 0.0
O158 O 0.48551 0.65036 0.23541 0.0
O159 O 0.62797 0.66639 0.20289 0.0
C160 C 0.43233 0.6512 0.20045 0.0
H161 H 0.60287 0.54774 0.15954 0.0
H162 H 0.43382 0.77599 0.20947 0.0
H163 H 0.6987 0.68656 0.98878 0.0
H164 H 0.49786 0.7218 0.96367 0.0
Co165 Co 0.08236 0.37827 0.67971 0.0
C166 C 0.0839 0.44312 0.61563 0.0
C167 C 1.00687 0.44023 0.68279 0.0
C168 C 1.00145 0.46944 0.65278 0.0
N169 N 0.05601 0.42261 0.65715 0.0
N170 N 0.0497 0.47122 0.61019 0.0
H171 H 0.12861 0.43809 0.58995 0.0
H172 H 0.97647 0.43273 0.72093 0.0
C173 C 0.9334 0.37436 0.69508 0.0
O174 O 0.92832 0.38709 0.63968 0.0
N175 N 0.10979 0.33525 0.70468 0.0
C176 C 0.1488 0.31439 0.67392 0.0
C177 C 0.15964 0.28749 0.71049 0.0
C178 C 0.09742 0.3209 0.75928 0.0
N179 N 0.12705 0.29171 0.76383 0.0
C180 C 0.07649 0.37276 0.54716 0.0
C181 C 1.00539 0.31573 0.5456 0.0
C182 C 0.03003 0.32812 0.49019 0.0
C183 C 0.06423 0.35752 0.49119 0.0
C184 C 0.01637 0.33251 0.60032 0.0
N185 N 0.05172 0.36076 0.60098 0.0
H186 H 0.10994 0.39286 0.54701 0.0
H187 H 0.99971 0.3217 0.64288 0.0
H188 H 0.16821 0.31853 0.62827 0.0
H189 H 0.06835 0.33179 0.79542 0.0
O190 O 0.173 0.38808 0.65712 0.0
O191 O 0.13238 0.39452 0.75004 0.0
O192 O 0.99147 0.36969 0.719 0.0
C193 C 0.18441 0.39539 0.71415 0.0
H194 H 0.96482 0.48805 0.66158 0.0
H195 H 0.18923 0.26653 0.6991 0.0
H196 H 0.97975 0.29275 0.54686 0.0
H197 H 0.08535 0.36748 0.44945 0.0
Co198 Co 0.54607 0.37641 0.86269 0.0
C199 C 0.54167 0.44529 0.90561 0.0
C200 C 0.63552 0.4218 0.92306 0.0
C201 C 0.63724 0.45162 0.94988 0.0
N202 N 0.57558 0.41754 0.89554 0.0
N203 N 0.5782 0.46621 0.93937 0.0
H204 H 0.49076 0.44971 0.89146 0.0
H205 H 0.67406 0.40364 0.92682 0.0
C206 C 0.67647 0.34698 0.80941 0.0
O207 O 0.65273 0.31756 0.80673 0.0
N208 N 0.51633 0.33535 0.83067 0.0
C209 C 0.47945 0.31309 0.86059 0.0
C210 C 0.46667 0.28784 0.82141 0.0
C211 C 0.52265 0.32408 0.77303 0.0
N212 N 0.49529 0.29454 0.76688 0.0
C213 C 0.53092 0.36905 0.99176 0.0
C214 C 0.60808 0.31428 1.0077 0.0
C215 C 0.5729 0.32643 0.05789 0.0
C216 C 0.53506 0.35455 0.04986 0.0
C217 C 0.60343 0.32986 0.95055 0.0
N218 N 0.56438 0.35664 0.94278 0.0
H219 H 0.49926 0.38994 0.98558 0.0
H220 H 0.62889 0.31937 0.91259 0.0
H221 H 0.46323 0.31499 0.90774 0.0
H222 H 0.54806 0.33691 0.73672 0.0
O223 O 0.45249 0.38717 0.87488 0.0
O224 O 0.50858 0.39758 0.79059 0.0
O225 O 0.64195 0.37023 0.83167 0.0
C226 C 0.45151 0.39849 0.81889 0.0
H227 H 0.67746 0.46132 0.97765 0.0
H228 H 0.44028 0.26581 0.83253 0.0
H229 H 0.63771 0.29251 0.01238 0.0
H230 H 0.50728 0.3646 0.08774 0.0
Co231 Co 0.0752 0.66255 0.34693 0.0
C232 C 0.07447 0.60332 0.42819 0.0
C233 C 1.00979 0.59956 0.34971 0.0
C234 C 1.00491 0.57157 0.38369 0.0
N235 N 0.05125 0.62009 0.37864 0.0
N236 N 0.04579 0.57384 0.43297 0.0
H237 H 0.11236 0.61181 0.45956 0.0
H238 H 0.98575 0.60438 0.30593 0.0
C239 C 0.92291 0.66422 0.33816 0.0
O240 O 0.91853 0.65275 0.39447 0.0
N241 N 0.09922 0.70427 0.3139 0.0
C242 C 0.14606 0.72453 0.33597 0.0
C243 C 0.15156 0.75041 0.29612 0.0
C244 C 0.0767 0.71797 0.26124 0.0
N245 N 0.1079 0.74616 0.24943 0.0
C246 C 0.1045 0.67853 0.47255 0.0
C247 C 1.00645 0.72484 0.48523 0.0
C248 C 0.05287 0.72035 0.53285 0.0
C249 C 0.10228 0.69678 0.52634 0.0
C250 C 1.0112 0.70647 0.43194 0.0
N251 N 0.05875 0.68303 0.42621 0.0
H252 H 0.14586 0.66221 0.46692 0.0
H253 H 0.97892 0.71266 0.39432 0.0
H254 H 0.17532 0.72035 0.37728 0.0
H255 H 0.04008 0.70709 0.23102 0.0
O256 O 0.16929 0.65246 0.35776 0.0
O257 O 0.11051 0.64253 0.2741 0.0
O258 O 0.9802 0.66978 0.3146 0.0
C259 C 0.16824 0.6416 0.30182 0.0
H260 H 0.97498 0.55071 0.37225 0.0
H261 H 0.18585 0.77045 0.30022 0.0
H262 H 0.96877 0.74355 0.488 0.0
H263 H 0.14023 0.69335 0.56155 0.0
C264 C 0.05867 0.03099 0.95322 0.0
C265 C 0.03916 1.00032 0.97574 0.0
C266 C 0.99238 0.02604 0.06657 0.0
C267 C 0.02494 0.05515 0.05039 0.0
N268 N 0.09396 0.08496 0.97943 0.0
N269 N 0.9908 0.96795 0.05639 0.0
C270 C 0.05831 0.05786 0.99332 0.0
C271 C 1.00556 0.99763 0.03261 0.0
N272 N 0.07831 0.03408 0.89353 0.0
N273 N 0.94971 0.02574 0.11519 0.0
H274 H 1.00144 0.94656 0.03366 0.0
H275 H 0.97278 0.96445 0.10074 0.0
H276 H 0.93909 0.04657 0.13997 0.0
H277 H 0.92024 1.00594 0.1267 0.0
H278 H 0.0881 0.05624 0.87262 0.0
H279 H 0.07797 1.01458 0.86342 0.0
H280 H 0.12514 0.08673 0.94143 0.0
H281 H 0.09675 0.10483 1.00827 0.0
C282 C 0.6148 0.0327 0.4982 0.0
C283 C 0.5526 0.04549 0.47818 0.0
C284 C 0.49358 1.00419 0.53816 0.0
C285 C 0.55561 0.99262 0.56103 0.0
N286 N 0.67461 0.9979 0.57047 0.0
N287 N 0.43305 0.04689 0.48431 0.0
C288 C 0.61618 1.00745 0.54306 0.0
C289 C 0.49196 0.03215 0.49973 0.0
N290 N 0.67226 0.04412 0.47263 0.0
N291 N 0.43656 0.98774 0.55218 0.0
H292 H 0.43096 0.0675 0.45652 0.0
H293 H 0.38707 0.04036 0.50254 0.0
H294 H 0.4368 0.96713 0.58004 0.0
H295 H 0.39003 0.99292 0.53286 0.0
H296 H 0.71908 0.03385 0.48031 0.0
H297 H 0.67233 0.06279 0.44023 0.0
H298 H 0.71996 1.00967 0.56422 0.0
H299 H 0.67675 0.97932 0.60307 0.0
C300 C 0.50545 0.52536 0.05103 0.0
C301 C 0.5484 0.55178 0.04011 0.0
C302 C 0.59197 0.52483 0.94895 0.0
C303 C 0.5582 0.49629 0.96656 0.0
N304 N 0.48521 0.46836 0.0366 0.0
N305 N 0.63402 0.57719 0.97997 0.0
C306 C 0.51436 0.4964 0.01751 0.0
C307 C 0.59121 0.55199 0.98858 0.0
N308 N 0.45667 0.52815 0.09418 0.0
N309 N 0.62536 0.52548 0.89449 0.0
H310 H 0.6345 0.59734 1.00833 0.0
H311 H 0.67156 0.57737 0.94713 0.0
H312 H 0.62609 0.50566 0.86519 0.0
H313 H 0.64698 0.54618 0.87602 0.0
H314 H 0.41973 0.51088 0.10118 0.0
H315 H 0.44969 0.54934 0.11896 0.0
H316 H 0.45885 0.4661 0.07748 0.0
H317 H 0.49117 0.44662 0.01369 0.0
C318 C 0.06074 0.49084 0.50183 0.0
C319 C 0.0586 0.4972 0.56588 0.0
C320 C 0.04931 0.55515 0.54261 0.0
C321 C 0.05713 0.54884 0.47896 0.0
N322 N 0.09261 0.51133 0.40181 0.0
N323 N 0.07107 0.53619 0.64656 0.0
C324 C 0.07024 0.51684 0.45988 0.0
C325 C 0.05947 0.52968 0.58604 0.0
N326 N 0.0488 0.46055 0.4803 0.0
N327 N 0.02807 0.58469 0.56167 0.0
H328 H 0.08183 0.51807 0.6787 0.0
H329 H 0.07751 0.55953 0.66302 0.0
H330 H 1.01589 0.60339 0.53137 0.0
H331 H 1.01583 0.58946 0.6072 0.0
H332 H 0.04438 0.45551 0.43356 0.0
H333 H 0.03523 0.44135 0.50863 0.0
H334 H 0.10778 0.48862 0.38708 0.0
H335 H 0.10341 0.53009 0.37122 0.0
C336 C 0.32579 0.19235 0.31293 0.0
C337 C 0.35444 0.1611 0.30781 0.0
C338 C 0.26466 0.14636 0.23555 0.0
C339 C 0.23205 0.17627 0.24724 0.0
N340 N 0.22213 0.22188 0.31454 0.0
N341 N 0.34717 0.10687 0.26859 0.0
C342 C 0.26 0.19764 0.29082 0.0
C343 C 0.32227 0.13756 0.27088 0.0
N344 N 0.36076 0.21734 0.33795 0.0
N345 N 0.24315 0.12699 0.18889 0.0
H346 H 0.39225 0.10002 0.28916 0.0
H347 H 0.3211 0.0877 0.24921 0.0
H348 H 0.20182 0.13214 0.16141 0.0
H349 H 0.26975 0.10701 0.17375 0.0
H350 H 0.3429 0.24098 0.3374 0.0
H351 H 0.41025 0.21564 0.35216 0.0
H352 H 0.23839 0.23639 0.35059 0.0
H353 H 0.1715 0.22435 0.30418 0.0
C354 C 0.35315 0.84429 0.74016 0.0
C355 C 0.37851 0.87541 0.72616 0.0
C356 C 0.27663 0.8998 0.7687 0.0
C357 C 0.24961 0.86831 0.77996 0.0
N358 N 0.25358 0.81219 0.75053 0.0
N359 N 0.3624 0.93304 0.72256 0.0
C360 C 0.28556 0.84098 0.75863 0.0
C361 C 0.3397 0.90314 0.73936 0.0
N362 N 0.39289 0.81761 0.73576 0.0
N363 N 0.2433 0.92696 0.78595 0.0
H364 H 0.41072 0.93728 0.70723 0.0
H365 H 0.33258 0.95364 0.72143 0.0
H366 H 0.19174 0.92871 0.78792 0.0
H367 H 0.26724 0.94877 0.79458 0.0
H368 H 0.37831 0.79495 0.75177 0.0
H369 H 0.44259 0.8184 0.72239 0.0
H370 H 0.27588 0.79239 0.72973 0.0
H371 H 0.20224 0.80943 0.75586 0.0
C372 C 0.83382 0.9288 0.79529 0.0
C373 C 0.88861 0.91147 0.77099 0.0
C374 C 0.81224 0.87867 0.71057 0.0
C375 C 0.75706 0.89696 0.73146 0.0
N376 N 0.71823 0.94517 0.78196 0.0
N377 N 0.92875 0.88003 0.68557 0.0
C378 C 0.76845 0.92375 0.77064 0.0
C379 C 0.87755 0.88991 0.72188 0.0
N380 N 0.84453 0.95044 0.84113 0.0
N381 N 0.80313 0.84939 0.68346 0.0
H382 H 0.97663 0.88952 0.6887 0.0
H383 H 0.92101 0.86597 0.64661 0.0
H384 H 0.75657 0.83853 0.67925 0.0
H385 H 0.84271 0.83408 0.67282 0.0
H386 H 0.80623 0.96076 0.86654 0.0
H387 H 0.89248 0.95754 0.85392 0.0
H388 H 0.72542 0.96662 0.80568 0.0
H389 H 0.67078 0.94321 0.76249 0.0
C390 C 0.77592 0.12917 0.30269 0.0
C391 C 0.7266 0.15187 0.28354 0.0
C392 C 0.81057 0.18146 0.22518 0.0
C393 C 0.85877 0.1574 0.23941 0.0
N394 N 0.88301 0.10443 0.28092 0.0
N395 N 0.69409 0.19326 0.20976 0.0
C396 C 0.84046 0.1301 0.27538 0.0
C397 C 0.74278 0.17587 0.23925 0.0
N398 N 0.76089 0.1065 0.34633 0.0
N399 N 0.82966 0.21056 0.20126 0.0
H400 H 0.64353 0.18891 0.21526 0.0
H401 H 0.70399 0.20906 0.17345 0.0
H402 H 0.87934 0.21688 0.19456 0.0
H403 H 0.79692 0.22989 0.19532 0.0
H404 H 0.79672 0.09185 0.36752 0.0
H405 H 0.71272 0.10334 0.3633 0.0
H406 H 0.86971 0.08265 0.30159 0.0
H407 H 0.92946 0.10365 0.25966 0.0
C408 C 0.82052 0.64387 0.2815 0.0
C409 C 0.86063 0.67017 0.30109 0.0
C410 C 0.77443 0.70734 0.26182 0.0
C411 C 0.73938 0.68132 0.23419 0.0
N412 N 0.7438 0.62534 0.20335 0.0
N413 N 0.88239 0.72748 0.29294 0.0
C414 C 0.76641 0.64965 0.24002 0.0
C415 C 0.83995 0.70207 0.28571 0.0
N416 N 0.83368 0.61327 0.30185 0.0
N417 N 0.74436 0.73666 0.26882 0.0
H418 H 0.9318 0.72473 0.30687 0.0
H419 H 0.87074 0.75072 0.27761 0.0
H420 H 0.69449 0.741 0.25742 0.0
H421 H 0.76641 0.75538 0.2934 0.0
H422 H 0.80175 0.59396 0.29322 0.0
H423 H 0.87254 0.60771 0.33212 0.0
H424 H 0.76595 0.60258 0.2026 0.0
H425 H 0.70926 0.629 0.16799 0.0
C426 C 0.81944 0.34879 0.69447 0.0
C427 C 0.87057 0.36493 0.72796 0.0
C428 C 0.79703 0.365 0.81859 0.0
C429 C 0.74333 0.35348 0.78192 0.0
N430 N 0.70113 0.33982 0.68117 0.0
N431 N 0.90394 0.39217 0.82144 0.0
C432 C 0.75397 0.34684 0.71885 0.0
C433 C 0.8585 0.37393 0.7901 0.0
N434 N 0.83378 0.33397 0.64022 0.0
N435 N 0.79034 0.36624 0.88099 0.0
H436 H 0.94965 0.39921 0.80343 0.0
H437 H 0.89392 0.40257 0.86384 0.0
H438 H 0.74684 0.3591 0.90337 0.0
H439 H 0.82989 0.37121 0.91081 0.0
H440 H 0.80015 0.31904 0.61732 0.0
H441 H 0.88147 0.33341 0.62165 0.0
H442 H 0.70509 0.33841 0.63351 0.0
H443 H 0.65212 0.33867 0.69653 0.0
C444 C 0.37608 0.39796 0.72503 0.0
C445 C 0.38658 0.40711 0.78705 0.0
C446 C 0.26608 0.41959 0.79177 0.0
C447 C 0.2544 0.4013 0.73765 0.0
N448 N 0.30426 0.36642 0.6607 0.0
N449 N 0.33812 0.42904 0.87955 0.0
C450 C 0.31098 0.38879 0.70604 0.0
C451 C 0.33046 0.41856 0.82063 0.0
N452 N 0.42708 0.39803 0.68375 0.0
N453 N 0.21749 0.43945 0.81384 0.0
H454 H 0.38454 0.43249 0.9002 0.0
H455 H 0.29779 0.43343 0.90837 0.0
H456 H 0.17246 0.44353 0.79072 0.0
H457 H 0.22542 0.45518 0.85029 0.0
H458 H 0.41964 0.39295 0.63731 0.0
H459 H 0.47334 0.40839 0.69285 0.0
H460 H 0.34489 0.35661 0.63789 0.0
H461 H 0.26046 0.35389 0.65197 0.0
C462 C 0.24177 0.64615 0.20904 0.0
C463 C 0.23192 0.63397 0.26914 0.0
C464 C 0.35266 0.62278 0.27464 0.0
C465 C 0.36325 0.64393 0.22357 0.0
N466 N 0.31159 0.68172 0.15115 0.0
N467 N 0.2791 0.60692 0.35785 0.0
C468 C 0.30612 0.6571 0.19277 0.0
C469 C 0.28791 0.62123 0.30179 0.0
N470 N 0.19084 0.64721 0.16707 0.0
N471 N 0.40248 0.60272 0.29487 0.0
H472 H 0.23183 0.60179 0.3753 0.0
H473 H 0.31867 0.60092 0.38719 0.0
H474 H 0.4479 0.6004 0.2723 0.0
H475 H 0.39555 0.58527 0.32895 0.0
H476 H 0.19818 0.65437 0.12154 0.0
H477 H 0.14489 0.63621 0.17451 0.0
H478 H 0.27035 0.6923 0.12972 0.0
H479 H 0.35491 0.69496 0.14492 0.0
C480 C 0.15626 0.27909 0.87192 0.0
C481 C 0.12543 0.26999 0.81594 0.0
C482 C 0.09084 0.21879 0.86299 0.0
C483 C 0.11302 0.22996 0.9212 0.0
N484 N 0.1601 0.27273 0.98267 0.0
N485 N 0.05638 0.23317 0.75917 0.0
C486 C 0.14456 0.26056 0.92612 0.0
C487 C 0.09129 0.2402 0.81153 0.0
N488 N 0.19779 0.30518 0.87274 0.0
N489 N 0.07007 0.1876 0.85693 0.0
H490 H 0.05458 0.24871 0.72125 0.0
H491 H 0.02469 0.21339 0.75525 0.0
H492 H 0.06999 0.17126 0.89369 0.0
H493 H 0.05908 0.17712 0.81469 0.0
H494 H 0.22703 0.31136 0.91065 0.0
H495 H 0.20776 0.31885 0.83338 0.0
H496 H 0.17613 0.29634 0.98934 0.0
H497 H 0.15211 0.26015 0.02363 0.0
C498 C 0.52626 0.77131 0.42689 0.0
C499 C 0.52883 0.80555 0.42332 0.0
C500 C 0.52984 0.80202 0.31095 0.0
C501 C 0.51715 0.76846 0.31487 0.0
N502 N 0.48482 0.72312 0.37814 0.0
N503 N 0.51686 0.85361 0.36039 0.0
C504 C 0.51003 0.75358 0.37333 0.0
C505 C 0.52586 0.82101 0.36482 0.0
N506 N 0.54212 0.75549 0.48038 0.0
N507 N 0.54834 0.81559 0.25632 0.0
H508 H 0.51026 0.86823 0.39867 0.0
H509 H 0.50867 0.86547 0.31856 0.0
H510 H 0.55563 0.80202 0.21676 0.0
H511 H 0.56371 0.83951 0.25227 0.0
H512 H 0.54621 0.73045 0.48319 0.0
H513 H 0.55869 0.76731 0.51977 0.0
H514 H 0.47368 0.71235 0.42031 0.0
H515 H 0.4675 0.71027 0.34025 0.0
C516 C 0.10915 0.77407 0.08396 0.0
C517 C 0.08831 0.80657 0.09057 0.0
C518 C 0.07394 0.79793 0.20143 0.0
C519 C 0.10032 0.76641 0.19559 0.0
N520 N 0.15208 0.72579 0.1339 0.0
N521 N 0.05778 0.85097 0.15549 0.0
C522 C 0.12013 0.75479 0.13743 0.0
C523 C 0.07275 0.81899 0.14939 0.0
N524 N 0.11737 0.76154 0.0265 0.0
N525 N 0.04746 0.8071 0.2563 0.0
H526 H 0.05521 0.86688 0.11813 0.0
H527 H 0.05266 0.86227 0.19777 0.0
H528 H 0.0465 0.79181 0.29461 0.0
H529 H 0.02146 0.82857 0.2625 0.0
H530 H 0.12471 0.73711 0.01817 0.0
H531 H 0.11209 0.77523 0.98629 0.0
H532 H 0.17229 0.71681 0.09358 0.0
H533 H 0.1634 0.71187 0.17268 0.0
C534 C 0.53049 0.24197 0.72378 0.0
C535 C 0.50227 0.27312 0.71524 0.0
C536 C 0.49821 0.26405 0.60421 0.0
C537 C 0.51636 0.23123 0.61392 0.0
N538 N 0.53776 0.18748 0.68543 0.0
N539 N 0.44762 0.31145 0.64824 0.0
C540 C 0.52897 0.2197 0.67451 0.0
C541 C 0.48282 0.28351 0.65561 0.0
N542 N 0.56217 0.23423 0.77771 0.0
N543 N 0.49842 0.2771 0.5463 0.0
H544 H 0.4329 0.32546 0.68536 0.0
H545 H 0.42724 0.31874 0.60615 0.0
H546 H 0.5125 0.26416 0.50755 0.0
H547 H 0.49174 0.30165 0.53767 0.0
H548 H 0.5887 0.21282 0.78422 0.0
H549 H 0.56883 0.25074 0.81311 0.0
H550 H 0.54088 0.17766 0.72961 0.0
H551 H 0.53527 0.17028 0.65075 0.0
C552 C 0.58626 0.73548 0.80444 0.0
C553 C 0.62521 0.76394 0.80498 0.0
C554 C 0.65641 0.75366 0.91267 0.0
C555 C 0.61905 0.72453 0.91154 0.0
N556 N 0.56248 0.68381 0.85252 0.0
N557 N 0.70981 0.79616 0.85337 0.0
C558 C 0.58867 0.71416 0.85595 0.0
C559 C 0.66429 0.77176 0.85728 0.0
N560 N 0.5442 0.72977 0.75603 0.0
N561 N 0.68136 0.76494 0.96705 0.0
H562 H 0.71701 0.80944 0.81299 0.0
H563 H 0.74448 0.8012 0.88791 0.0
H564 H 0.67713 0.75239 1.00856 0.0
H565 H 0.70222 0.78778 0.97182 0.0
H566 H 0.50928 0.71119 0.75564 0.0
H567 H 0.54016 0.74537 0.71834 0.0
H568 H 0.5449 0.67375 0.81178 0.0
H569 H 0.56441 0.66755 0.88938 0.0
C570 C 0.96251 0.30081 0.40636 0.0
C571 C 0.02565 0.30913 0.43218 0.0
C572 C 0.08118 0.28633 0.34233 0.0
C573 C 0.01939 0.27451 0.32077 0.0
N574 N 0.90166 0.26685 0.33461 0.0
N575 N 0.14579 0.30238 0.431 0.0
C576 C 0.96006 0.28063 0.35364 0.0
C577 C 0.08532 0.29984 0.40188 0.0
N578 N 0.90522 0.31328 0.43038 0.0
N579 N 0.13555 0.28554 0.30497 0.0
H580 H 0.15097 0.31037 0.47613 0.0
H581 H 0.18982 0.29319 0.41276 0.0
H582 H 0.13343 0.27608 0.26067 0.0
H583 H 0.18062 0.29672 0.31598 0.0
H584 H 0.85839 0.31049 0.40997 0.0
H585 H 0.90511 0.32893 0.46768 0.0
H586 H 0.85772 0.26766 0.35989 0.0
H587 H 0.8987 0.25249 0.2955 0.0
C588 C 0.51492 0.29403 0.14031 0.0
C589 C 0.57391 0.30902 0.11811 0.0
C590 C 0.63735 0.28594 0.20475 0.0
C591 C 0.5773 0.27354 0.22983 0.0
N592 N 0.45735 0.27177 0.22862 0.0
N593 N 0.68816 0.32499 0.13614 0.0
C594 C 0.51554 0.2794 0.19963 0.0
C595 C 0.63425 0.30676 0.15254 0.0
N596 N 0.45914 0.29251 0.10383 0.0
N597 N 0.69757 0.27646 0.22864 0.0
H598 H 0.68748 0.34078 0.09855 0.0
H599 H 0.73119 0.32678 0.16312 0.0
H600 H 0.70213 0.2597 0.26437 0.0
H601 H 0.74309 0.2826 0.20893 0.0
H602 H 0.41715 0.279 0.11532 0.0
H603 H 0.45697 0.3022 0.05947 0.0
H604 H 0.41038 0.27811 0.21146 0.0
H605 H 0.45644 0.26201 0.27296 0.0
C606 C 0.03688 0.7306 0.64616 0.0
C607 C 0.05283 0.74238 0.58665 0.0
C608 C 0.05223 0.79782 0.6252 0.0
C609 C 0.03844 0.78598 0.6852 0.0
N610 N 0.03772 0.74106 0.75567 0.0
N611 N 0.09441 0.78598 0.5237 0.0
C612 C 0.03709 0.75227 0.69648 0.0
C613 C 0.06646 0.77565 0.57752 0.0
N614 N 0.01871 0.69911 0.65431 0.0
N615 N 0.04839 0.83005 0.61268 0.0
H616 H 0.10675 0.77034 0.48819 0.0
H617 H 0.11157 0.80943 0.51682 0.0
H618 H 0.03856 0.84715 0.64602 0.0
H619 H 0.0498 0.83961 0.56826 0.0
H620 H 0.99972 0.69013 0.69548 0.0
H621 H 0.01733 0.68251 0.61855 0.0
H622 H 0.04267 0.71674 0.76718 0.0
H623 H 0.04073 0.75648 0.79328 0.0
loop_
_geom_bond_atom_site_label_1
_geom_bond_atom_site_label_2
_geom_bond_distance
_geom_bond_site_symmetry_2
_ccdc_geom_bond_type
Co0 N4 2.148 . S
Co0 N10 2.128 . S
Co0 N20 2.194 . S
Co0 O25 2.351 1_455 S
Co0 O26 2.155 1_455 S
Co0 O27 2.096 . S
C1 N4 1.293 1_655 S
C1 N5 1.324 1_655 S
C1 H6 0.942 . S
C2 C3 1.333 . S
C2 N4 1.317 . S
C2 H7 0.930 . S
C3 C2 1.333 . S
C3 N5 1.350 . S
C3 H29 0.931 . S
N4 Co0 2.148 . S
N4 C1 1.293 1_455 S
N4 C2 1.317 . S
N5 C1 1.324 1_455 S
N5 C3 1.350 . S
H6 C1 0.942 . S
H7 C2 0.930 . S
C8 O9 1.224 . S
C8 O27 1.247 . S
O9 C8 1.224 . S
N10 Co0 2.128 . S
N10 C11 1.355 1_455 S
N10 C13 1.311 . S
C11 N10 1.355 1_655 S
C11 C12 1.363 . S
C11 H23 0.929 . S
C12 C11 1.363 . S
C12 N14 1.375 1_655 S
C12 H30 0.931 . S
C13 N10 1.311 . S
C13 N14 1.347 . S
C13 H24 0.929 . S
N14 C12 1.375 1_455 S
N14 C13 1.347 . S
C15 C18 1.365 . S
C15 N20 1.328 1_655 S
C15 H21 0.929 . S
C16 C17 1.362 1_554 S
C16 C19 1.378 . S
C16 H31 0.929 . S
C17 C16 1.362 1_556 S
C17 C18 1.366 1_456 S
C18 C15 1.365 . S
C18 C17 1.366 1_654 S
C18 H32 0.930 1_554 S
C19 C16 1.378 . S
C19 N20 1.315 . S
C19 H22 0.930 . S
N20 Co0 2.194 . S
N20 C15 1.328 1_455 S
N20 C19 1.315 . S
H21 C15 0.929 . S
H22 C19 0.930 . S
H23 C11 0.929 . S
H24 C13 0.929 . S
O25 Co0 2.351 1_655 S
O25 C28 1.244 . S
O26 Co0 2.155 1_655 S
O26 C28 1.240 . S
O27 Co0 2.096 . S
O27 C8 1.247 . S
C28 O25 1.244 . S
C28 O26 1.240 . S
H29 C3 0.931 . S
H30 C12 0.931 . S
H31 C16 0.929 . S
H32 C18 0.930 1_556 S
Co33 N37 2.148 . S
Co33 N43 2.128 . S
Co33 N53 2.194 . S
Co33 O58 2.351 . S
Co33 O59 2.155 . S
Co33 O60 2.096 . S
C34 N37 1.301 . S
C34 N38 1.328 . S
C34 H39 0.930 . S
C35 C36 1.333 . S
C35 N37 1.317 . S
C35 H40 0.930 . S
C36 C35 1.333 . S
C36 N38 1.350 . S
C36 H62 0.931 . S
N37 Co33 2.148 . S
N37 C34 1.301 . S
N37 C35 1.317 . S
N38 C34 1.328 . S
N38 C36 1.350 . S
H39 C34 0.930 . S
H40 C35 0.930 . S
C41 O42 1.224 . S
C41 O60 1.247 . S
O42 C41 1.224 . S
N43 Co33 2.128 . S
N43 C44 1.355 . S
N43 C46 1.311 . S
C44 N43 1.355 . S
C44 C45 1.363 . S
C44 H56 0.929 . S
C45 C44 1.363 . S
C45 N47 1.375 . S
C45 H63 0.931 . S
C46 N43 1.311 . S
C46 N47 1.347 . S
C46 H57 0.929 . S
N47 C45 1.375 . S
N47 C46 1.347 . S
C48 C51 1.365 . S
C48 N53 1.328 . S
C48 H54 0.929 . S
C49 C50 1.362 . S
C49 C52 1.378 . S
C49 H64 0.929 . S
C50 C49 1.362 . S
C50 C51 1.366 . S
C51 C48 1.365 . S
C51 C50 1.366 . S
C51 H65 0.930 . S
C52 C49 1.378 . S
C52 N53 1.315 . S
C52 H55 0.930 . S
N53 Co33 2.194 . S
N53 C48 1.328 . S
N53 C52 1.315 . S
H54 C48 0.929 . S
H55 C52 0.930 . S
H56 C44 0.929 . S
H57 C46 0.929 . S
O58 Co33 2.351 . S
O58 C61 1.244 . S
O59 Co33 2.155 . S
O59 C61 1.240 . S
O60 Co33 2.096 . S
O60 C41 1.247 . S
C61 O58 1.244 . S
C61 O59 1.240 . S
H62 C36 0.931 . S
H63 C45 0.931 . S
H64 C49 0.929 . S
H65 C51 0.930 . S
Co66 N70 2.148 . S
Co66 N76 2.128 . S
Co66 N86 2.194 . S
Co66 O91 2.351 1_455 S
Co66 O92 2.155 1_455 S
Co66 O93 2.096 . S
C67 N70 1.293 1_655 S
C67 N71 1.324 1_655 S
C67 H72 0.942 . S
C68 C69 1.333 . S
C68 N70 1.317 . S
C68 H73 0.930 . S
C69 C68 1.333 . S
C69 N71 1.350 . S
C69 H95 0.931 . S
N70 Co66 2.148 . S
N70 C67 1.293 1_455 S
N70 C68 1.317 . S
N71 C67 1.324 1_455 S
N71 C69 1.350 . S
H72 C67 0.942 . S
H73 C68 0.930 . S
C74 O75 1.224 . S
C74 O93 1.247 . S
O75 C74 1.224 . S
N76 Co66 2.128 . S
N76 C77 1.355 1_455 S
N76 C79 1.311 . S
C77 N76 1.355 1_655 S
C77 C78 1.363 . S
C77 H89 0.929 . S
C78 C77 1.363 . S
C78 N80 1.375 1_655 S
C78 H96 0.931 . S
C79 N76 1.311 . S
C79 N80 1.347 . S
C79 H90 0.929 . S
N80 C78 1.375 1_455 S
N80 C79 1.347 . S
C81 C84 1.365 . S
C81 N86 1.328 1_655 S
C81 H87 0.929 . S
C82 C83 1.362 1_556 S
C82 C85 1.378 . S
C82 H97 0.929 . S
C83 C82 1.362 1_554 S
C83 C84 1.366 1_454 S
C84 C81 1.365 . S
C84 C83 1.366 1_656 S
C84 H98 0.930 1_556 S
C85 C82 1.378 . S
C85 N86 1.315 . S
C85 H88 0.930 . S
N86 Co66 2.194 . S
N86 C81 1.328 1_455 S
N86 C85 1.315 . S
H87 C81 0.929 . S
H88 C85 0.930 . S
H89 C77 0.929 . S
H90 C79 0.929 . S
O91 Co66 2.351 1_655 S
O91 C94 1.244 . S
O92 Co66 2.155 1_655 S
O92 C94 1.240 . S
O93 Co66 2.096 . S
O93 C74 1.247 . S
C94 O91 1.244 . S
C94 O92 1.240 . S
H95 C69 0.931 . S
H96 C78 0.931 . S
H97 C82 0.929 . S
H98 C84 0.930 1_554 S
Co99 N103 2.148 . S
Co99 N109 2.128 . S
Co99 N119 2.194 . S
Co99 O124 2.351 . S
Co99 O125 2.155 . S
Co99 O126 2.096 . S
C100 N103 1.301 . S
C100 N104 1.328 . S
C100 H105 0.930 . S
C101 C102 1.333 . S
C101 N103 1.317 . S
C101 H106 0.930 . S
C102 C101 1.333 . S
C102 N104 1.350 . S
C102 H128 0.931 . S
N103 Co99 2.148 . S
N103 C100 1.301 . S
N103 C101 1.317 . S
N104 C100 1.328 . S
N104 C102 1.350 . S
H105 C100 0.930 . S
H106 C101 0.930 . S
C107 O108 1.224 . S
C107 O126 1.247 . S
O108 C107 1.224 . S
N109 Co99 2.128 . S
N109 C110 1.355 . S
N109 C112 1.311 . S
C110 N109 1.355 . S
C110 C111 1.363 . S
C110 H122 0.929 . S
C111 C110 1.363 . S
C111 N113 1.375 . S
C111 H129 0.931 . S
C112 N109 1.311 . S
C112 N113 1.347 . S
C112 H123 0.929 . S
N113 C111 1.375 . S
N113 C112 1.347 . S
C114 C117 1.365 . S
C114 N119 1.328 . S
C114 H120 0.929 . S
C115 C116 1.362 . S
C115 C118 1.378 . S
C115 H130 0.929 . S
C116 C115 1.362 . S
C116 C117 1.366 . S
C117 C114 1.365 . S
C117 C116 1.366 . S
C117 H131 0.930 . S
C118 C115 1.378 . S
C118 N119 1.315 . S
C118 H121 0.930 . S
N119 Co99 2.194 . S
N119 C114 1.328 . S
N119 C118 1.315 . S
H120 C114 0.929 . S
H121 C118 0.930 . S
H122 C110 0.929 . S
H123 C112 0.929 . S
O124 Co99 2.351 . S
O124 C127 1.244 . S
O125 Co99 2.155 . S
O125 C127 1.240 . S
O126 Co99 2.096 . S
O126 C107 1.247 . S
C127 O124 1.244 . S
C127 O125 1.240 . S
H128 C102 0.931 . S
H129 C111 0.931 . S
H130 C115 0.929 . S
H131 C117 0.930 . S
Co132 N136 2.148 . S
Co132 N142 2.128 . S
Co132 N152 2.194 . S
Co132 O157 2.351 . S
Co132 O158 2.155 . S
Co132 O159 2.096 . S
C133 N136 1.301 . S
C133 N137 1.328 . S
C133 H138 0.930 . S
C134 C135 1.333 . S
C134 N136 1.317 . S
C134 H139 0.930 . S
C135 C134 1.333 . S
C135 N137 1.350 . S
C135 H161 0.931 . S
N136 Co132 2.148 . S
N136 C133 1.301 . S
N136 C134 1.317 . S
N137 C133 1.328 . S
N137 C135 1.350 . S
H138 C133 0.930 . S
H139 C134 0.930 . S
C140 O141 1.224 . S
C140 O159 1.247 . S
O141 C140 1.224 . S
N142 Co132 2.128 . S
N142 C143 1.355 . S
N142 C145 1.311 . S
C143 N142 1.355 . S
C143 C144 1.363 . S
C143 H155 0.929 . S
C144 C143 1.363 . S
C144 N146 1.375 . S
C144 H162 0.931 . S
C145 N142 1.311 . S
C145 N146 1.347 . S
C145 H156 0.929 . S
N146 C144 1.375 . S
N146 C145 1.347 . S
C147 C150 1.365 . S
C147 N152 1.328 . S
C147 H153 0.929 . S
C148 C149 1.362 1_554 S
C148 C151 1.378 . S
C148 H163 0.929 . S
C149 C148 1.362 1_556 S
C149 C150 1.366 1_556 S
C150 C147 1.365 . S
C150 C149 1.366 1_554 S
C150 H164 0.930 1_554 S
C151 C148 1.378 . S
C151 N152 1.315 . S
C151 H154 0.930 . S
N152 Co132 2.194 . S
N152 C147 1.328 . S
N152 C151 1.315 . S
H153 C147 0.929 . S
H154 C151 0.930 . S
H155 C143 0.929 . S
H156 C145 0.929 . S
O157 Co132 2.351 . S
O157 C160 1.244 . S
O158 Co132 2.155 . S
O158 C160 1.240 . S
O159 Co132 2.096 . S
O159 C140 1.247 . S
C160 O157 1.244 . S
C160 O158 1.240 . S
H161 C135 0.931 . S
H162 C144 0.931 . S
H163 C148 0.929 . S
H164 C150 0.930 1_556 S
Co165 N169 2.148 . S
Co165 N175 2.128 . S
Co165 N185 2.194 . S
Co165 O190 2.351 . S
Co165 O191 2.155 . S
Co165 O192 2.096 1_455 S
C166 N169 1.301 . S
C166 N170 1.328 . S
C166 H171 0.930 . S
C167 C168 1.333 1_655 S
C167 N169 1.317 1_655 S
C167 H172 0.930 . S
C168 C167 1.333 1_455 S
C168 N170 1.350 . S
C168 H194 0.931 1_455 S
N169 Co165 2.148 . S
N169 C166 1.301 . S
N169 C167 1.317 1_455 S
N170 C166 1.328 . S
N170 C168 1.350 . S
H171 C166 0.930 . S
H172 C167 0.930 . S
C173 O174 1.224 . S
C173 O192 1.247 . S
O174 C173 1.224 . S
N175 Co165 2.128 . S
N175 C176 1.355 . S
N175 C178 1.311 . S
C176 N175 1.355 . S
C176 C177 1.363 . S
C176 H188 0.929 . S
C177 C176 1.363 . S
C177 N179 1.375 . S
C177 H195 0.931 . S
C178 N175 1.311 . S
C178 N179 1.347 . S
C178 H189 0.917 1_455 S
N179 C177 1.375 . S
N179 C178 1.347 . S
C180 C183 1.365 . S
C180 N185 1.328 . S
C180 H186 0.929 . S
C181 C182 1.362 1_655 S
C181 C184 1.378 1_655 S
C181 H196 0.929 . S
C182 C181 1.362 1_455 S
C182 C183 1.366 . S
C183 C180 1.365 . S
C183 C182 1.366 . S
C183 H197 0.930 . S
C184 C181 1.378 1_455 S
C184 N185 1.315 . S
C184 H187 0.930 1_455 S
N185 Co165 2.194 . S
N185 C180 1.328 . S
N185 C184 1.315 . S
H186 C180 0.929 . S
H187 C184 0.930 1_655 S
H188 C176 0.929 . S
H189 C178 0.917 1_655 S
O190 Co165 2.351 . S
O190 C193 1.244 . S
O191 Co165 2.155 . S
O191 C193 1.240 . S
O192 Co165 2.096 1_655 S
O192 C173 1.247 . S
C193 O190 1.244 . S
C193 O191 1.240 . S
H194 C168 0.931 1_655 S
H195 C177 0.931 . S
H196 C181 0.929 . S
H197 C183 0.930 . S
Co198 N202 2.148 . S
Co198 N208 2.128 . S
Co198 N218 2.194 . S
Co198 O223 2.351 . S
Co198 O224 2.155 . S
Co198 O225 2.096 . S
C199 N202 1.301 . S
C199 N203 1.328 . S
C199 H204 0.930 . S
C200 C201 1.333 . S
C200 N202 1.317 . S
C200 H205 0.930 . S
C201 C200 1.333 . S
C201 N203 1.350 . S
C201 H227 0.931 . S
N202 Co198 2.148 . S
N202 C199 1.301 . S
N202 C200 1.317 . S
N203 C199 1.328 . S
N203 C201 1.350 . S
H204 C199 0.930 . S
H205 C200 0.930 . S
C206 O207 1.224 . S
C206 O225 1.247 . S
O207 C206 1.224 . S
N208 Co198 2.128 . S
N208 C209 1.355 . S
N208 C211 1.311 . S
C209 N208 1.355 . S
C209 C210 1.363 . S
C209 H221 0.929 . S
C210 C209 1.363 . S
C210 N212 1.375 . S
C210 H228 0.931 . S
C211 N208 1.311 . S
C211 N212 1.347 . S
C211 H222 0.929 . S
N212 C210 1.375 . S
N212 C211 1.347 . S
C213 C216 1.365 . S
C213 N218 1.328 . S
C213 H219 0.929 . S
C214 C215 1.362 1_556 S
C214 C217 1.378 . S
C214 H229 0.929 . S
C215 C214 1.362 1_554 S
C215 C216 1.366 1_554 S
C216 C213 1.365 . S
C216 C215 1.366 1_556 S
C216 H230 0.930 1_556 S
C217 C214 1.378 . S
C217 N218 1.315 . S
C217 H220 0.930 . S
N218 Co198 2.194 . S
N218 C213 1.328 . S
N218 C217 1.315 . S
H219 C213 0.929 . S
H220 C217 0.930 . S
H221 C209 0.929 . S
H222 C211 0.929 . S
O223 Co198 2.351 . S
O223 C226 1.244 . S
O224 Co198 2.155 . S
O224 C226 1.240 . S
O225 Co198 2.096 . S
O225 C206 1.247 . S
C226 O223 1.244 . S
C226 O224 1.240 . S
H227 C201 0.931 . S
H228 C210 0.931 . S
H229 C214 0.929 . S
H230 C216 0.930 1_554 S
Co231 N235 2.148 . S
Co231 N241 2.128 . S
Co231 N251 2.194 . S
Co231 O256 2.351 . S
Co231 O257 2.155 . S
Co231 O258 2.096 1_455 S
C232 N235 1.301 . S
C232 N236 1.328 . S
C232 H237 0.930 . S
C233 C234 1.333 1_655 S
C233 N235 1.317 1_655 S
C233 H238 0.930 . S
C234 C233 1.333 1_455 S
C234 N236 1.350 . S
C234 H260 0.931 1_455 S
N235 Co231 2.148 . S
N235 C232 1.301 . S
N235 C233 1.317 1_455 S
N236 C232 1.328 . S
N236 C234 1.350 . S
H237 C232 0.930 . S
H238 C233 0.930 . S
C239 O240 1.224 . S
C239 O258 1.247 . S
O240 C239 1.224 . S
N241 Co231 2.128 . S
N241 C242 1.355 . S
N241 C244 1.311 . S
C242 N241 1.355 . S
C242 C243 1.363 . S
C242 H254 0.929 . S
C243 C242 1.363 . S
C243 N245 1.375 . S
C243 H261 0.931 . S
C244 N241 1.311 . S
C244 N245 1.347 . S
C244 H255 0.917 1_455 S
N245 C243 1.375 . S
N245 C244 1.347 . S
C246 C249 1.365 . S
C246 N251 1.328 . S
C246 H252 0.929 . S
C247 C248 1.362 1_655 S
C247 C250 1.378 1_655 S
C247 H262 0.929 . S
C248 C247 1.362 1_455 S
C248 C249 1.366 . S
C249 C246 1.365 . S
C249 C248 1.366 . S
C249 H263 0.930 . S
C250 C247 1.378 1_455 S
C250 N251 1.315 . S
C250 H253 0.930 1_455 S
N251 Co231 2.194 . S
N251 C246 1.328 . S
N251 C250 1.315 . S
H252 C246 0.929 . S
H253 C250 0.930 1_655 S
H254 C242 0.929 . S
H255 C244 0.917 1_655 S
O256 Co231 2.351 . S
O256 C259 1.244 . S
O257 Co231 2.155 . S
O257 C259 1.240 . S
O258 Co231 2.096 1_655 S
O258 C239 1.247 . S
C259 O256 1.244 . S
C259 O257 1.240 . S
H260 C234 0.931 1_655 S
H261 C243 0.931 . S
H262 C247 0.929 . S
H263 C249 0.930 . S
C264 C265 1.363 . S
C264 C270 1.379 1_565 S
C264 N272 1.356 . S
C265 C264 1.363 . S
C265 C271 1.363 1_456 S
C266 C267 1.363 1_655 S
C266 C271 1.379 1_545 S
C266 N273 1.356 . S
C267 C266 1.363 1_455 S
C267 C270 1.363 1_554 S
N268 C270 1.356 . S
N268 H280 0.984 . S
N268 H281 0.985 . S
N269 C271 1.356 . S
N269 H274 0.984 . S
N269 H275 0.985 . S
C270 C264 1.379 1_545 S
C270 C267 1.363 1_556 S
C270 N268 1.356 . S
C271 C265 1.363 1_654 S
C271 C266 1.379 1_565 S
C271 N269 1.356 . S
N272 C264 1.356 . S
N272 H278 0.984 . S
N272 H279 0.984 . S
N273 C266 1.356 . S
N273 H276 0.984 . S
N273 H277 0.985 . S
H274 N269 0.984 . S
H275 N269 0.985 . S
H276 N273 0.984 . S
H277 N273 0.985 . S
H278 N272 0.984 . S
H279 N272 0.984 . S
H280 N268 0.984 . S
H281 N268 0.985 . S
C282 C283 1.363 . S
C282 C288 1.379 1_545 S
C282 N290 1.356 . S
C283 C282 1.363 . S
C283 C289 1.363 . S
C284 C285 1.363 . S
C284 C289 1.379 1_565 S
C284 N291 1.356 . S
C285 C284 1.363 . S
C285 C288 1.363 . S
N286 C288 1.356 . S
N286 H298 0.984 . S
N286 H299 0.985 . S
N287 C289 1.356 . S
N287 H292 0.984 . S
N287 H293 0.985 . S
C288 C282 1.379 1_565 S
C288 C285 1.363 . S
C288 N286 1.356 . S
C289 C283 1.363 . S
C289 C284 1.379 1_545 S
C289 N287 1.356 . S
N290 C282 1.356 . S
N290 H296 0.984 . S
N290 H297 0.984 . S
N291 C284 1.356 . S
N291 H294 0.984 . S
N291 H295 0.985 . S
H292 N287 0.984 . S
H293 N287 0.985 . S
H294 N291 0.984 . S
H295 N291 0.985 . S
H296 N290 0.984 . S
H297 N290 0.984 . S
H298 N286 0.984 . S
H299 N286 0.985 . S
C300 C301 1.363 . S
C300 C306 1.379 . S
C300 N308 1.356 . S
C301 C300 1.363 . S
C301 C307 1.363 1_554 S
C302 C303 1.363 . S
C302 C307 1.379 . S
C302 N309 1.356 . S
C303 C302 1.363 . S
C303 C306 1.363 1_556 S
N304 C306 1.356 . S
N304 H316 0.984 . S
N304 H317 0.985 . S
N305 C307 1.356 . S
N305 H310 0.984 . S
N305 H311 0.985 . S
C306 C300 1.379 . S
C306 C303 1.363 1_554 S
C306 N304 1.356 . S
C307 C301 1.363 1_556 S
C307 C302 1.379 . S
C307 N305 1.356 . S
N308 C300 1.356 . S
N308 H314 0.984 . S
N308 H315 0.984 . S
N309 C302 1.356 . S
N309 H312 0.984 . S
N309 H313 0.985 . S
H310 N305 0.984 . S
H311 N305 0.985 . S
H312 N309 0.984 . S
H313 N309 0.985 . S
H314 N308 0.984 . S
H315 N308 0.984 . S
H316 N304 0.984 . S
H317 N304 0.985 . S
C318 C319 1.363 . S
C318 C324 1.379 . S
C318 N326 1.356 . S
C319 C318 1.363 . S
C319 C325 1.363 . S
C320 C321 1.363 . S
C320 C325 1.379 . S
C320 N327 1.356 . S
C321 C320 1.363 . S
C321 C324 1.363 . S
N322 C324 1.356 . S
N322 H334 0.984 . S
N322 H335 0.985 . S
N323 C325 1.356 . S
N323 H328 0.984 . S
N323 H329 0.985 . S
C324 C318 1.379 . S
C324 C321 1.363 . S
C324 N322 1.356 . S
C325 C319 1.363 . S
C325 C320 1.379 . S
C325 N323 1.356 . S
N326 C318 1.356 . S
N326 H332 0.984 . S
N326 H333 0.984 . S
N327 C320 1.356 . S
N327 H330 0.984 . S
N327 H331 0.985 . S
H328 N323 0.984 . S
H329 N323 0.985 . S
H330 N327 0.984 . S
H331 N327 0.985 . S
H332 N326 0.984 . S
H333 N326 0.984 . S
H334 N322 0.984 . S
H335 N322 0.985 . S
C336 C337 1.363 . S
C336 C342 1.379 . S
C336 N344 1.356 . S
C337 C336 1.363 . S
C337 C343 1.363 . S
C338 C339 1.363 . S
C338 C343 1.379 . S
C338 N345 1.356 . S
C339 C338 1.363 . S
C339 C342 1.363 . S
N340 C342 1.356 . S
N340 H352 0.984 . S
N340 H353 0.985 . S
N341 C343 1.356 . S
N341 H346 0.984 . S
N341 H347 0.985 . S
C342 C336 1.379 . S
C342 C339 1.363 . S
C342 N340 1.356 . S
C343 C337 1.363 . S
C343 C338 1.379 . S
C343 N341 1.356 . S
N344 C336 1.356 . S
N344 H350 0.984 . S
N344 H351 0.984 . S
N345 C338 1.356 . S
N345 H348 0.984 . S
N345 H349 0.985 . S
H346 N341 0.984 . S
H347 N341 0.985 . S
H348 N345 0.984 . S
H349 N345 0.985 . S
H350 N344 0.984 . S
H351 N344 0.984 . S
H352 N340 0.984 . S
H353 N340 0.985 . S
C354 C355 1.363 . S
C354 C360 1.379 . S
C354 N362 1.356 . S
C355 C354 1.363 . S
C355 C361 1.363 . S
C356 C357 1.363 . S
C356 C361 1.379 . S
C356 N363 1.356 . S
C357 C356 1.363 . S
C357 C360 1.363 . S
N358 C360 1.356 . S
N358 H370 0.984 . S
N358 H371 0.985 . S
N359 C361 1.356 . S
N359 H364 0.984 . S
N359 H365 0.985 . S
C360 C354 1.379 . S
C360 C357 1.363 . S
C360 N358 1.356 . S
C361 C355 1.363 . S
C361 C356 1.379 . S
C361 N359 1.356 . S
N362 C354 1.356 . S
N362 H368 0.984 . S
N362 H369 0.984 . S
N363 C356 1.356 . S
N363 H366 0.984 . S
N363 H367 0.985 . S
H364 N359 0.984 . S
H365 N359 0.985 . S
H366 N363 0.984 . S
H367 N363 0.985 . S
H368 N362 0.984 . S
H369 N362 0.984 . S
H370 N358 0.984 . S
H371 N358 0.985 . S
C372 C373 1.363 . S
C372 C378 1.379 . S
C372 N380 1.356 . S
C373 C372 1.363 . S
C373 C379 1.363 . S
C374 C375 1.363 . S
C374 C379 1.379 . S
C374 N381 1.356 . S
C375 C374 1.363 . S
C375 C378 1.363 . S
N376 C378 1.356 . S
N376 H388 0.984 . S
N376 H389 0.985 . S
N377 C379 1.356 . S
N377 H382 0.984 . S
N377 H383 0.985 . S
C378 C372 1.379 . S
C378 C375 1.363 . S
C378 N376 1.356 . S
C379 C373 1.363 . S
C379 C374 1.379 . S
C379 N377 1.356 . S
N380 C372 1.356 . S
N380 H386 0.984 . S
N380 H387 0.984 . S
N381 C374 1.356 . S
N381 H384 0.984 . S
N381 H385 0.985 . S
H382 N377 0.984 . S
H383 N377 0.985 . S
H384 N381 0.984 . S
H385 N381 0.985 . S
H386 N380 0.984 . S
H387 N380 0.984 . S
H388 N376 0.984 . S
H389 N376 0.985 . S
C390 C391 1.363 . S
C390 C396 1.379 . S
C390 N398 1.356 . S
C391 C390 1.363 . S
C391 C397 1.363 . S
C392 C393 1.363 . S
C392 C397 1.379 . S
C392 N399 1.356 . S
C393 C392 1.363 . S
C393 C396 1.363 . S
N394 C396 1.356 . S
N394 H406 0.984 . S
N394 H407 0.985 . S
N395 C397 1.356 . S
N395 H400 0.984 . S
N395 H401 0.985 . S
C396 C390 1.379 . S
C396 C393 1.363 . S
C396 N394 1.356 . S
C397 C391 1.363 . S
C397 C392 1.379 . S
C397 N395 1.356 . S
N398 C390 1.356 . S
N398 H404 0.984 . S
N398 H405 0.984 . S
N399 C392 1.356 . S
N399 H402 0.984 . S
N399 H403 0.985 . S
H400 N395 0.984 . S
H401 N395 0.985 . S
H402 N399 0.984 . S
H403 N399 0.985 . S
H404 N398 0.984 . S
H405 N398 0.984 . S
H406 N394 0.984 . S
H407 N394 0.985 . S
C408 C409 1.363 . S
C408 C414 1.379 . S
C408 N416 1.356 . S
C409 C408 1.363 . S
C409 C415 1.363 . S
C410 C411 1.363 . S
C410 C415 1.379 . S
C410 N417 1.356 . S
C411 C410 1.363 . S
C411 C414 1.363 . S
N412 C414 1.356 . S
N412 H424 0.984 . S
N412 H425 0.985 . S
N413 C415 1.356 . S
N413 H418 0.984 . S
N413 H419 0.985 . S
C414 C408 1.379 . S
C414 C411 1.363 . S
C414 N412 1.356 . S
C415 C409 1.363 . S
C415 C410 1.379 . S
C415 N413 1.356 . S
N416 C408 1.356 . S
N416 H422 0.984 . S
N416 H423 0.984 . S
N417 C410 1.356 . S
N417 H420 0.984 . S
N417 H421 0.985 . S
H418 N413 0.984 . S
H419 N413 0.985 . S
H420 N417 0.984 . S
H421 N417 0.985 . S
H422 N416 0.984 . S
H423 N416 0.984 . S
H424 N412 0.984 . S
H425 N412 0.985 . S
C426 C427 1.363 . S
C426 C432 1.379 . S
C426 N434 1.356 . S
C427 C426 1.363 . S
C427 C433 1.363 . S
C428 C429 1.363 . S
C428 C433 1.379 . S
C428 N435 1.356 . S
C429 C428 1.363 . S
C429 C432 1.363 . S
N430 C432 1.356 . S
N430 H442 0.984 . S
N430 H443 0.985 . S
N431 C433 1.356 . S
N431 H436 0.984 . S
N431 H437 0.985 . S
C432 C426 1.379 . S
C432 C429 1.363 . S
C432 N430 1.356 . S
C433 C427 1.363 . S
C433 C428 1.379 . S
C433 N431 1.356 . S
N434 C426 1.356 . S
N434 H440 0.984 . S
N434 H441 0.984 . S
N435 C428 1.356 . S
N435 H438 0.984 . S
N435 H439 0.985 . S
H436 N431 0.984 . S
H437 N431 0.985 . S
H438 N435 0.984 . S
H439 N435 0.985 . S
H440 N434 0.984 . S
H441 N434 0.984 . S
H442 N430 0.984 . S
H443 N430 0.985 . S
C444 C445 1.363 . S
C444 C450 1.379 . S
C444 N452 1.356 . S
C445 C444 1.363 . S
C445 C451 1.363 . S
C446 C447 1.363 . S
C446 C451 1.379 . S
C446 N453 1.356 . S
C447 C446 1.363 . S
C447 C450 1.363 . S
N448 C450 1.356 . S
N448 H460 0.984 . S
N448 H461 0.985 . S
N449 C451 1.356 . S
N449 H454 0.984 . S
N449 H455 0.985 . S
C450 C444 1.379 . S
C450 C447 1.363 . S
C450 N448 1.356 . S
C451 C445 1.363 . S
C451 C446 1.379 . S
C451 N449 1.356 . S
N452 C444 1.356 . S
N452 H458 0.984 . S
N452 H459 0.984 . S
N453 C446 1.356 . S
N453 H456 0.984 . S
N453 H457 0.985 . S
H454 N449 0.984 . S
H455 N449 0.985 . S
H456 N453 0.984 . S
H457 N453 0.985 . S
H458 N452 0.984 . S
H459 N452 0.984 . S
H460 N448 0.984 . S
H461 N448 0.985 . S
C462 C463 1.363 . S
C462 C468 1.379 . S
C462 N470 1.356 . S
C463 C462 1.363 . S
C463 C469 1.363 . S
C464 C465 1.363 . S
C464 C469 1.379 . S
C464 N471 1.356 . S
C465 C464 1.363 . S
C465 C468 1.363 . S
N466 C468 1.356 . S
N466 H478 0.984 . S
N466 H479 0.985 . S
N467 C469 1.356 . S
N467 H472 0.984 . S
N467 H473 0.985 . S
C468 C462 1.379 . S
C468 C465 1.363 . S
C468 N466 1.356 . S
C469 C463 1.363 . S
C469 C464 1.379 . S
C469 N467 1.356 . S
N470 C462 1.356 . S
N470 H476 0.984 . S
N470 H477 0.984 . S
N471 C464 1.356 . S
N471 H474 0.984 . S
N471 H475 0.985 . S
H472 N467 0.984 . S
H473 N467 0.985 . S
H474 N471 0.984 . S
H475 N471 0.985 . S
H476 N470 0.984 . S
H477 N470 0.984 . S
H478 N466 0.984 . S
H479 N466 0.985 . S
C480 C481 1.363 . S
C480 C486 1.379 . S
C480 N488 1.356 . S
C481 C480 1.363 . S
C481 C487 1.363 . S
C482 C483 1.363 . S
C482 C487 1.379 . S
C482 N489 1.356 1_455 S
C483 C482 1.363 . S
C483 C486 1.363 . S
N484 C486 1.356 . S
N484 H496 0.984 1_556 S
N484 H497 0.985 1_556 S
N485 C487 1.356 1_655 S
N485 H490 0.984 . S
N485 H491 0.985 . S
C486 C480 1.379 . S
C486 C483 1.363 . S
C486 N484 1.356 . S
C487 C481 1.363 . S
C487 C482 1.379 . S
C487 N485 1.356 1_455 S
N488 C480 1.356 . S
N488 H494 0.984 . S
N488 H495 0.984 . S
N489 C482 1.356 1_655 S
N489 H492 0.984 . S
N489 H493 0.985 . S
H490 N485 0.984 . S
H491 N485 0.985 . S
H492 N489 0.984 . S
H493 N489 0.985 . S
H494 N488 0.984 . S
H495 N488 0.984 . S
H496 N484 0.984 1_554 S
H497 N484 0.985 1_554 S
C498 C499 1.363 . S
C498 C504 1.379 . S
C498 N506 1.356 . S
C499 C498 1.363 . S
C499 C505 1.363 . S
C500 C501 1.363 . S
C500 C505 1.379 . S
C500 N507 1.356 . S
C501 C500 1.363 . S
C501 C504 1.363 . S
N502 C504 1.356 . S
N502 H514 0.984 . S
N502 H515 0.985 . S
N503 C505 1.356 . S
N503 H508 0.984 . S
N503 H509 0.985 . S
C504 C498 1.379 . S
C504 C501 1.363 . S
C504 N502 1.356 . S
C505 C499 1.363 . S
C505 C500 1.379 . S
C505 N503 1.356 . S
N506 C498 1.356 . S
N506 H512 0.984 . S
N506 H513 0.984 . S
N507 C500 1.356 . S
N507 H510 0.984 . S
N507 H511 0.985 . S
H508 N503 0.984 . S
H509 N503 0.985 . S
H510 N507 0.984 . S
H511 N507 0.985 . S
H512 N506 0.984 . S
H513 N506 0.984 . S
H514 N502 0.984 . S
H515 N502 0.985 . S
C516 C517 1.363 . S
C516 C522 1.379 . S
C516 N524 1.356 1_455 S
C517 C516 1.363 . S
C517 C523 1.363 . S
C518 C519 1.363 . S
C518 C523 1.379 . S
C518 N525 1.356 . S
C519 C518 1.363 . S
C519 C522 1.363 . S
N520 C522 1.356 1_655 S
N520 H532 0.984 . S
N520 H533 0.985 . S
N521 C523 1.356 . S
N521 H526 0.984 . S
N521 H527 0.985 . S
C522 C516 1.379 . S
C522 C519 1.363 . S
C522 N520 1.356 1_455 S
C523 C517 1.363 . S
C523 C518 1.379 . S
C523 N521 1.356 . S
N524 C516 1.356 1_655 S
N524 H530 0.984 1_554 S
N524 H531 0.984 1_654 S
N525 C518 1.356 . S
N525 H528 0.984 . S
N525 H529 0.985 . S
H526 N521 0.984 . S
H527 N521 0.985 . S
H528 N525 0.984 . S
H529 N525 0.985 . S
H530 N524 0.984 1_556 S
H531 N524 0.984 1_456 S
H532 N520 0.984 . S
H533 N520 0.985 . S
C534 C535 1.363 . S
C534 C540 1.379 . S
C534 N542 1.356 . S
C535 C534 1.363 . S
C535 C541 1.363 . S
C536 C537 1.363 . S
C536 C541 1.379 . S
C536 N543 1.356 . S
C537 C536 1.363 . S
C537 C540 1.363 . S
N538 C540 1.356 . S
N538 H550 0.984 . S
N538 H551 0.985 . S
N539 C541 1.356 . S
N539 H544 0.984 . S
N539 H545 0.985 . S
C540 C534 1.379 . S
C540 C537 1.363 . S
C540 N538 1.356 . S
C541 C535 1.363 . S
C541 C536 1.379 . S
C541 N539 1.356 . S
N542 C534 1.356 . S
N542 H548 0.984 . S
N542 H549 0.984 . S
N543 C536 1.356 . S
N543 H546 0.984 . S
N543 H547 0.985 . S
H544 N539 0.984 . S
H545 N539 0.985 . S
H546 N543 0.984 . S
H547 N543 0.985 . S
H548 N542 0.984 . S
H549 N542 0.984 . S
H550 N538 0.984 . S
H551 N538 0.985 . S
C552 C553 1.363 . S
C552 C558 1.379 . S
C552 N560 1.356 . S
C553 C552 1.363 . S
C553 C559 1.363 . S
C554 C555 1.363 . S
C554 C559 1.379 . S
C554 N561 1.356 . S
C555 C554 1.363 . S
C555 C558 1.363 . S
N556 C558 1.356 . S
N556 H568 0.984 . S
N556 H569 0.985 . S
N557 C559 1.356 . S
N557 H562 0.984 . S
N557 H563 0.985 . S
C558 C552 1.379 . S
C558 C555 1.363 . S
C558 N556 1.356 . S
C559 C553 1.363 . S
C559 C554 1.379 . S
C559 N557 1.356 . S
N560 C552 1.356 . S
N560 H566 0.984 . S
N560 H567 0.984 . S
N561 C554 1.356 . S
N561 H564 0.984 . S
N561 H565 0.985 . S
H562 N557 0.984 . S
H563 N557 0.985 . S
H564 N561 0.984 . S
H565 N561 0.985 . S
H566 N560 0.984 . S
H567 N560 0.984 . S
H568 N556 0.984 . S
H569 N556 0.985 . S
C570 C571 1.363 1_655 S
C570 C576 1.378 1_655 S
C570 N578 1.356 . S
C571 C570 1.363 1_455 S
C571 C577 1.363 . S
C572 C573 1.363 . S
C572 C577 1.379 . S
C572 N579 1.356 . S
C573 C572 1.363 . S
C573 C576 1.372 . S
N574 C576 1.349 1_655 S
N574 H586 0.984 . S
N574 H587 0.985 . S
N575 C577 1.356 . S
N575 H580 0.984 . S
N575 H581 0.985 . S
C576 C570 1.378 1_455 S
C576 C573 1.372 . S
C576 N574 1.349 1_455 S
C577 C571 1.363 . S
C577 C572 1.379 . S
C577 N575 1.356 . S
N578 C570 1.356 . S
N578 H584 0.984 . S
N578 H585 0.984 . S
N579 C572 1.356 . S
N579 H582 0.984 . S
N579 H583 0.985 . S
H580 N575 0.984 . S
H581 N575 0.985 . S
H582 N579 0.984 . S
H583 N579 0.985 . S
H584 N578 0.984 . S
H585 N578 0.984 . S
H586 N574 0.984 . S
H587 N574 0.985 . S
C588 C589 1.363 . S
C588 C594 1.379 . S
C588 N596 1.356 . S
C589 C588 1.363 . S
C589 C595 1.363 . S
C590 C591 1.363 . S
C590 C595 1.379 . S
C590 N597 1.356 . S
C591 C590 1.363 . S
C591 C594 1.363 . S
N592 C594 1.356 . S
N592 H604 0.984 . S
N592 H605 0.985 . S
N593 C595 1.356 . S
N593 H598 0.984 . S
N593 H599 0.985 . S
C594 C588 1.379 . S
C594 C591 1.363 . S
C594 N592 1.356 . S
C595 C589 1.363 . S
C595 C590 1.379 . S
C595 N593 1.356 . S
N596 C588 1.356 . S
N596 H602 0.984 . S
N596 H603 0.984 . S
N597 C590 1.356 . S
N597 H600 0.984 . S
N597 H601 0.985 . S
H598 N593 0.984 . S
H599 N593 0.985 . S
H600 N597 0.984 . S
H601 N597 0.985 . S
H602 N596 0.984 . S
H603 N596 0.984 . S
H604 N592 0.984 . S
H605 N592 0.985 . S
C606 C607 1.363 . S
C606 C612 1.379 . S
C606 N614 1.356 . S
C607 C606 1.363 . S
C607 C613 1.363 . S
C608 C609 1.363 . S
C608 C613 1.379 . S
C608 N615 1.356 . S
C609 C608 1.363 . S
C609 C612 1.363 . S
N610 C612 1.356 . S
N610 H622 0.984 . S
N610 H623 0.985 . S
N611 C613 1.356 . S
N611 H616 0.984 . S
N611 H617 0.985 . S
C612 C606 1.379 . S
C612 C609 1.363 . S
C612 N610 1.356 . S
C613 C607 1.363 . S
C613 C608 1.379 . S
C613 N611 1.356 . S
N614 C606 1.356 . S
N614 H620 0.984 . S
N614 H621 0.984 . S
N615 C608 1.356 . S
N615 H618 0.984 . S
N615 H619 0.985 . S
H616 N611 0.984 . S
H617 N611 0.985 . S
H618 N615 0.984 . S
H619 N615 0.985 . S
H620 N614 0.984 . S
H621 N614 0.984 . S
H622 N610 0.984 . S
H623 N610 0.985 . S
C265 N71 1.408 . S
C267 N5 1.408 . S
C283 N104 1.407 . S
C285 N38 1.407 . S
C301 N137 1.407 . S
C303 N203 1.407 . S
C319 N170 1.407 . S
C321 N236 1.407 . S
C337 C107 1.604 . S
C339 C8 1.604 . S
C355 C41 1.604 . S
C357 C74 1.604 . S
C373 C94 1.230 . S
C375 C61 1.230 . S
C391 C127 1.230 . S
C393 C28 1.230 . S
C409 C239 1.604 . S
C411 C140 1.604 . S
C427 C173 1.604 . S
C429 C206 1.604 . S
C445 C226 1.230 . S
C447 C193 1.230 . S
C463 C259 1.230 . S
C465 C160 1.230 . S
C481 N179 1.536 . S
C483 C17 1.583 . S
C499 C50 1.583 . S
C501 N146 1.536 . S
C517 C83 1.583 . S
C519 N245 1.535 . S
C535 N212 1.536 . S
C537 C116 1.583 . S
C553 N47 1.536 . S
C555 C149 1.583 . S
C571 C182 1.583 . S
C573 N14 1.536 . S
C589 C215 1.583 . S
C591 N113 1.536 . S
C607 C248 1.583 . S
C609 N80 1.535 . S
