# Generated by pormake.
# Topology ske, (6)-cn, num edge types: 1
# Building blocks:
#     Node 0, Type 0, BuildingBlock: KUMBUR_clean_sbu_1, # of connection points: 6
#     Node 1, Type 0, BuildingBlock: KUMBUR_clean_sbu_1, # of connection points: 6
#     Node 2, Type 0, BuildingBlock: KUMBUR_clean_sbu_1, # of connection points: 6
#     Node 3, Type 0, BuildingBlock: KUMBUR_clean_sbu_1, # of connection points: 6
#     Node 4, Type 0, BuildingBlock: KUMBUR_clean_sbu_1, # of connection points: 6
#     Node 5, Type 0, BuildingBlock: KUMBUR_clean_sbu_1, # of connection points: 6
#     Node 6, Type 0, BuildingBlock: KUMBUR_clean_sbu_1, # of connection points: 6
#     Node 7, Type 0, BuildingBlock: KUMBUR_clean_sbu_1, # of connection points: 6
#     Edge 8, Type (0, 0), BuildingBlock: CIFDUS_clean_linker_0, # of connection points: 2
#     Edge 9, Type (0, 0), BuildingBlock: CIFDUS_clean_linker_0, # of connection points: 2
#     Edge 10, Type (0, 0), BuildingBlock: CIFDUS_clean_linker_0, # of connection points: 2
#     Edge 11, Type (0, 0), BuildingBlock: CIFDUS_clean_linker_0, # of connection points: 2
#     Edge 12, Type (0, 0), BuildingBlock: CIFDUS_clean_linker_0, # of connection points: 2
#     Edge 13, Type (0, 0), BuildingBlock: CIFDUS_clean_linker_0, # of connection points: 2
#     Edge 14, Type (0, 0), BuildingBlock: CIFDUS_clean_linker_0, # of connection points: 2
#     Edge 15, Type (0, 0), BuildingBlock: CIFDUS_clean_linker_0, # of connection points: 2
#     Edge 16, Type (0, 0), BuildingBlock: CIFDUS_clean_linker_0, # of connection points: 2
#     Edge 17, Type (0, 0), BuildingBlock: CIFDUS_clean_linker_0, # of connection points: 2
#     Edge 18, Type (0, 0), BuildingBlock: CIFDUS_clean_linker_0, # of connection points: 2
#     Edge 19, Type (0, 0), BuildingBlock: CIFDUS_clean_linker_0, # of connection points: 2
#     Edge 20, Type (0, 0), BuildingBlock: CIFDUS_clean_linker_0, # of connection points: 2
#     Edge 21, Type (0, 0), BuildingBlock: CIFDUS_clean_linker_0, # of connection points: 2
#     Edge 22, Type (0, 0), BuildingBlock: CIFDUS_clean_linker_0, # of connection points: 2
#     Edge 23, Type (0, 0), BuildingBlock: CIFDUS_clean_linker_0, # of connection points: 2
#     Edge 24, Type (0, 0), BuildingBlock: CIFDUS_clean_linker_0, # of connection points: 2
#     Edge 25, Type (0, 0), BuildingBlock: CIFDUS_clean_linker_0, # of connection points: 2
#     Edge 26, Type (0, 0), BuildingBlock: CIFDUS_clean_linker_0, # of connection points: 2
#     Edge 27, Type (0, 0), BuildingBlock: CIFDUS_clean_linker_0, # of connection points: 2
#     Edge 28, Type (0, 0), BuildingBlock: CIFDUS_clean_linker_0, # of connection points: 2
#     Edge 29, Type (0, 0), BuildingBlock: CIFDUS_clean_linker_0, # of connection points: 2
#     Edge 30, Type (0, 0), BuildingBlock: CIFDUS_clean_linker_0, # of connection points: 2
#     Edge 31, Type (0, 0), BuildingBlock: CIFDUS_clean_linker_0, # of connection points: 2
# Relax obj value: 0.215
# Max RMSD: 0.234
# Mean RMSD: 0.232
data_MOF--net-ske--node1-KUMBUR_clean_sbu_1--edge1-CIFDUS_clean_linker_0
_symmetry_space_group_name_H-M    P1
_symmetry_Int_Tables_number       1
_symmetry_cell_setting            triclinic
loop_
_symmetry_equiv_pos_as_xyz
'x, y, z'
_cell_length_a     92.293032
_cell_length_b     25.976307
_cell_length_c     13.253598
_cell_angle_alpha  98.513653
_cell_angle_beta   89.956518
_cell_angle_gamma 89.926142
loop_
_atom_site_label
_atom_site_type_symbol
_atom_site_fract_x
_atom_site_fract_y
_atom_site_fract_z
_atom_type_partial_charge
Tb0 Tb 0.15171 0.25172 0.53923 0.0
C1 C 0.09115 0.26717 0.72381 0.0
N2 N 0.09979 0.23216 0.66514 0.0
C3 C 0.09526 0.16913 0.77643 0.0
C4 C 0.08473 0.25511 0.81391 0.0
C5 C 0.10145 0.18297 0.68789 0.0
C6 C 0.08697 0.20547 0.8402 0.0
C7 C 0.08112 0.35448 0.75705 0.0
C8 C 0.08935 0.31623 0.69557 0.0
C9 C 0.07467 0.3426 0.8469 0.0
C10 C 0.07647 0.29306 0.8752 0.0
Tb11 Tb 0.10871 0.25924 0.52131 0.0
N12 N 0.09593 0.32669 0.609 0.0
C13 C 0.07971 0.40364 0.72677 0.0
C14 C 0.09438 0.3743 0.57809 0.0
C15 C 0.08634 0.41351 0.63679 0.0
H16 H 0.10741 0.15411 0.63793 0.0
H17 H 0.08518 0.45123 0.61222 0.0
H18 H 0.15384 0.35925 0.42933 0.0
H19 H 0.17454 0.05917 0.43713 0.0
H20 H 0.09906 0.38194 0.50712 0.0
H21 H 0.07349 0.43413 0.77202 0.0
H22 H 0.16082 0.1277 0.54525 0.0
H23 H 0.09681 0.13032 0.79508 0.0
H24 H 0.06833 0.37153 0.89523 0.0
H25 H 0.07148 0.28459 0.94494 0.0
H26 H 0.16459 0.38489 0.2748 0.0
H27 H 0.08225 0.19469 0.90896 0.0
H28 H 0.18658 0.07842 0.28015 0.0
N29 N 0.16097 0.28075 0.39787 0.0
C30 C 0.16953 0.2461 0.33762 0.0
C31 C 0.1659 0.34549 0.29084 0.0
C32 C 0.17616 0.25935 0.24918 0.0
C33 C 0.1595 0.33049 0.37764 0.0
C34 C 0.17417 0.30968 0.22587 0.0
N35 N 0.16424 0.18468 0.44738 0.0
C36 C 0.16558 0.13627 0.47521 0.0
C37 C 0.17926 0.15852 0.29964 0.0
C38 C 0.17106 0.19631 0.36261 0.0
C39 C 0.1804 0.10857 0.32662 0.0
C40 C 0.17356 0.09748 0.41493 0.0
H41 H 0.17908 0.32142 0.15858 0.0
H42 H 0.18956 0.23135 0.11812 0.0
H43 H 0.19228 0.1431 0.16226 0.0
O44 O 0.17131 0.23029 0.60454 0.0
O45 O 0.14153 0.23037 0.38543 0.0
O46 O 0.11987 0.27519 0.38195 0.0
O47 O 0.1648 0.31027 0.61925 0.0
O48 O 0.13979 0.18493 0.57968 0.0
O49 O 0.11968 0.18355 0.47673 0.0
O50 O 0.08834 0.27682 0.45733 0.0
O51 O 0.11907 0.28175 0.67415 0.0
O52 O 0.14028 0.23498 0.67669 0.0
O53 O 0.09624 0.19713 0.44967 0.0
O54 O 0.12041 0.32586 0.47836 0.0
O55 O 0.14082 0.32819 0.57994 0.0
C56 C 0.13105 0.25039 0.33491 0.0
C57 C 0.19013 0.29248 0.60849 0.0
C58 C 0.21645 0.28813 0.63622 0.0
C59 C 0.21844 0.32206 0.56373 0.0
C60 C 0.19257 0.32613 0.53657 0.0
C61 C 0.20661 0.34053 0.51419 0.0
C62 C 0.20213 0.2734 0.65785 0.0
C63 C 0.12984 0.1595 0.52165 0.0
C64 C 0.17516 0.2781 0.6343 0.0
C65 C 0.1844 0.22191 0.18652 0.0
C66 C 0.18594 0.17163 0.21164 0.0
C67 C 0.12945 0.26129 0.72456 0.0
C68 C 0.0728 0.20643 0.37143 0.0
C69 C 0.04668 0.20651 0.3368 0.0
C70 C 0.04837 0.15926 0.27081 0.0
C71 C 0.07407 0.15921 0.30505 0.0
C72 C 0.05906 0.23061 0.38599 0.0
C73 C 0.06196 0.13608 0.25472 0.0
C74 C 0.13059 0.35162 0.53377 0.0
C75 C 0.08578 0.22761 0.42885 0.0
H76 H 0.22913 0.33546 0.54658 0.0
H77 H 0.18364 0.342 0.49847 0.0
H78 H 0.20834 0.3668 0.4591 0.0
H79 H 0.20027 0.2471 0.71279 0.0
H80 H 0.03913 0.1403 0.23085 0.0
H81 H 0.08447 0.13992 0.2923 0.0
H82 H 0.05792 0.26674 0.43797 0.0
H83 H 0.06309 0.09973 0.20361 0.0
Tb84 Tb 0.90036 0.2577 0.55874 0.0
C85 C 0.84398 0.25459 0.31847 0.0
N86 N 0.84805 0.29025 0.39925 0.0
C87 C 0.83982 0.35959 0.31254 0.0
C88 C 0.83811 0.27034 0.22976 0.0
C89 C 0.84573 0.34214 0.3986 0.0
C90 C 0.8361 0.32359 0.22744 0.0
C91 C 0.84122 0.16417 0.24475 0.0
C92 C 0.84563 0.20225 0.32607 0.0
C93 C 0.83596 0.17958 0.15431 0.0
C94 C 0.83438 0.23255 0.14691 0.0
Tb95 Tb 0.85705 0.25768 0.5374 0.0
N96 N 0.85063 0.18879 0.41537 0.0
C97 C 0.84162 0.11184 0.25833 0.0
C98 C 0.84933 0.13825 0.43235 0.0
C99 C 0.84536 0.09897 0.35341 0.0
H100 H 0.84838 0.3699 0.46467 0.0
H101 H 0.84485 0.05889 0.3668 0.0
H102 H 0.91012 0.13415 0.55812 0.0
H103 H 0.9041 0.42833 0.84884 0.0
H104 H 0.85098 0.12764 0.50715 0.0
H105 H 0.83834 0.08139 0.19779 0.0
H106 H 0.89816 0.38156 0.68031 0.0
H107 H 0.83813 0.40078 0.31193 0.0
H108 H 0.83268 0.15082 0.09075 0.0
H109 H 0.83003 0.24385 0.0775 0.0
H110 H 0.92156 0.0822 0.67762 0.0
H111 H 0.83159 0.33726 0.16074 0.0
H112 H 0.91581 0.38222 0.9773 0.0
N113 N 0.91069 0.20495 0.66201 0.0
C114 C 0.91531 0.22933 0.7544 0.0
C115 C 0.91977 0.12347 0.70039 0.0
C116 C 0.92203 0.20117 0.82464 0.0
C117 C 0.91307 0.15291 0.63345 0.0
C118 C 0.92423 0.14764 0.7965 0.0
N119 N 0.9051 0.30753 0.71319 0.0
C120 C 0.90259 0.35982 0.73568 0.0
C121 C 0.91628 0.30806 0.87835 0.0
C122 C 0.9124 0.28224 0.78096 0.0
C123 C 0.91302 0.36098 0.90326 0.0
C124 C 0.90629 0.38702 0.83124 0.0
H125 H 0.92934 0.12462 0.8484 0.0
H126 H 0.93114 0.20597 0.97645 0.0
H127 H 0.92612 0.29943 0.02333 0.0
O128 O 0.91709 0.3079 0.52679 0.0
O129 O 0.88774 0.24033 0.69332 0.0
O130 O 0.86612 0.28425 0.69133 0.0
O131 O 0.92044 0.22532 0.50447 0.0
O132 O 0.89015 0.32998 0.52053 0.0
O133 O 0.86735 0.33242 0.59375 0.0
O134 O 0.83925 0.22158 0.59993 0.0
O135 O 0.86967 0.27542 0.40235 0.0
O136 O 0.8918 0.23351 0.40269 0.0
O137 O 0.83874 0.30257 0.5889 0.0
O138 O 0.86855 0.1887 0.57782 0.0
O139 O 0.89017 0.18459 0.4893 0.0
C140 C 0.87648 0.26367 0.74142 0.0
C141 C 0.93652 0.27512 0.41732 0.0
C142 C 0.96156 0.26823 0.35433 0.0
C143 C 0.95721 0.29125 0.26964 0.0
C144 C 0.93239 0.29739 0.33161 0.0
C145 C 0.94272 0.30535 0.25822 0.0
C146 C 0.95106 0.26016 0.42773 0.0
C147 C 0.87805 0.35509 0.55128 0.0
C148 C 0.9263 0.27032 0.501 0.0
C149 C 0.92601 0.22698 0.9213 0.0
C150 C 0.92313 0.28022 0.94807 0.0
C151 C 0.88105 0.25279 0.35365 0.0
C152 C 0.81607 0.25958 0.58157 0.0
C153 C 0.79026 0.25214 0.62474 0.0
C154 C 0.78675 0.25902 0.52414 0.0
C155 C 0.81209 0.26593 0.48214 0.0
C156 C 0.80511 0.25231 0.65258 0.0
C157 C 0.79757 0.26541 0.45366 0.0
C158 C 0.87942 0.16186 0.53094 0.0
C159 C 0.83147 0.26369 0.61383 0.0
H160 H 0.96497 0.29753 0.21135 0.0
H161 H 0.92127 0.30921 0.32221 0.0
H162 H 0.93951 0.32282 0.19244 0.0
H163 H 0.95428 0.24329 0.49444 0.0
H164 H 0.77559 0.26081 0.49991 0.0
H165 H 0.82013 0.27246 0.42677 0.0
H166 H 0.80818 0.24714 0.7293 0.0
H167 H 0.79467 0.27099 0.37689 0.0
Tb168 Tb 0.1529 0.75732 0.50161 0.0
C169 C 0.0921 0.7424 0.31731 0.0
N170 N 0.10087 0.77736 0.37478 0.0
C171 C 0.09622 0.84003 0.26285 0.0
C172 C 0.08548 0.75445 0.22793 0.0
C173 C 0.10264 0.82623 0.35058 0.0
C174 C 0.08768 0.80392 0.20088 0.0
C175 C 0.08201 0.65521 0.28552 0.0
C176 C 0.09038 0.69334 0.34587 0.0
C177 C 0.07533 0.66717 0.19661 0.0
C178 C 0.07705 0.71665 0.16797 0.0
Tb179 Tb 0.10989 0.75039 0.5186 0.0
N180 N 0.09713 0.68281 0.43179 0.0
C181 C 0.08068 0.60608 0.31601 0.0
C182 C 0.09565 0.63521 0.46293 0.0
C183 C 0.0875 0.59611 0.40517 0.0
H184 H 0.10872 0.85505 0.39928 0.0
H185 H 0.08639 0.55843 0.42996 0.0
H186 H 0.15484 0.64683 0.60308 0.0
H187 H 0.17543 0.94866 0.62054 0.0
H188 H 0.10042 0.6276 0.53359 0.0
H189 H 0.07436 0.5757 0.27158 0.0
H190 H 0.16206 0.88187 0.50609 0.0
H191 H 0.09776 0.87871 0.24353 0.0
H192 H 0.06886 0.63836 0.14923 0.0
H193 H 0.07189 0.72517 0.0989 0.0
H194 H 0.16469 0.61862 0.75772 0.0
H195 H 0.08278 0.81471 0.13274 0.0
H196 H 0.18682 0.92647 0.77749 0.0
N197 N 0.1615 0.72551 0.64211 0.0
C198 C 0.16978 0.75928 0.70623 0.0
C199 C 0.16601 0.65855 0.74498 0.0
C200 C 0.176 0.74443 0.79468 0.0
C201 C 0.16006 0.67507 0.65817 0.0
C202 C 0.1739 0.69348 0.81406 0.0
N203 N 0.1651 0.82284 0.59993 0.0
C204 C 0.16657 0.87195 0.57584 0.0
C205 C 0.17951 0.84643 0.7514 0.0
C206 C 0.17156 0.80963 0.68469 0.0
C207 C 0.18081 0.89704 0.72809 0.0
C208 C 0.17435 0.90979 0.6398 0.0
H209 H 0.17849 0.68053 0.88123 0.0
H210 H 0.18884 0.77021 0.92953 0.0
H211 H 0.19189 0.8595 0.89176 0.0
O212 O 0.17224 0.78098 0.4363 0.0
O213 O 0.14222 0.78101 0.65336 0.0
O214 O 0.12123 0.73301 0.65621 0.0
O215 O 0.16696 0.70016 0.42635 0.0
O216 O 0.14125 0.82463 0.46029 0.0
O217 O 0.12051 0.82687 0.55857 0.0
O218 O 0.08921 0.7334 0.57516 0.0
O219 O 0.1201 0.729 0.36505 0.0
O220 O 0.14177 0.77316 0.36219 0.0
O221 O 0.09806 0.81032 0.60543 0.0
O222 O 0.12174 0.68382 0.56026 0.0
O223 O 0.14199 0.68116 0.45731 0.0
C224 C 0.13205 0.75946 0.70401 0.0
C225 C 0.192 0.72261 0.43493 0.0
C226 C 0.21809 0.72566 0.39771 0.0
C227 C 0.22079 0.69988 0.48209 0.0
C228 C 0.19513 0.6968 0.51815 0.0
C229 C 0.20941 0.68584 0.54172 0.0
C230 C 0.20354 0.73706 0.37496 0.0
C231 C 0.13103 0.8503 0.5158 0.0
C232 C 0.17679 0.73375 0.40884 0.0
C233 C 0.18401 0.78089 0.86106 0.0
C234 C 0.18575 0.83174 0.83952 0.0
C235 C 0.13068 0.74841 0.31475 0.0
C236 C 0.07273 0.80384 0.57512 0.0
C237 C 0.04609 0.80512 0.56737 0.0
C238 C 0.04696 0.84744 0.51235 0.0
C239 C 0.07308 0.84622 0.52029 0.0
C240 C 0.05915 0.78337 0.59854 0.0
C241 C 0.06032 0.86747 0.48877 0.0
C242 C 0.13163 0.65776 0.50229 0.0
C243 C 0.08649 0.78192 0.60894 0.0
H244 H 0.23171 0.68934 0.50097 0.0
H245 H 0.18657 0.6844 0.56443 0.0
H246 H 0.21167 0.66568 0.60585 0.0
H247 H 0.20116 0.7572 0.31091 0.0
H248 H 0.03728 0.86624 0.48944 0.0
H249 H 0.08323 0.86361 0.50258 0.0
H250 H 0.05879 0.7507 0.6407 0.0
H251 H 0.06078 0.90027 0.44709 0.0
Tb252 Tb 0.90088 0.7613 0.48688 0.0
C253 C 0.8447 0.78468 0.70672 0.0
N254 N 0.84678 0.74247 0.63522 0.0
C255 C 0.83767 0.68714 0.75058 0.0
C256 C 0.83965 0.77986 0.80517 0.0
C257 C 0.84275 0.69416 0.65399 0.0
C258 C 0.8364 0.73009 0.82729 0.0
C259 C 0.84295 0.87817 0.74488 0.0
C260 C 0.84648 0.83273 0.67729 0.0
C261 C 0.83904 0.87418 0.84602 0.0
C262 C 0.8374 0.82496 0.87621 0.0
Tb263 Tb 0.85686 0.75615 0.48358 0.0
N264 N 0.84982 0.83427 0.57818 0.0
C265 C 0.84245 0.92554 0.70673 0.0
C266 C 0.8473 0.87918 0.53815 0.0
C267 C 0.84418 0.92575 0.60212 0.0
H268 H 0.84415 0.66085 0.59577 0.0
H269 H 0.84293 0.9616 0.57046 0.0
H270 H 0.90974 0.8474 0.68648 0.0
H271 H 0.9231 0.74559 0.10419 0.0
H272 H 0.84799 0.87962 0.45683 0.0
H273 H 0.8398 0.96144 0.75595 0.0
H274 H 0.91347 0.71194 0.2557 0.0
H275 H 0.83493 0.64859 0.76613 0.0
H276 H 0.83655 0.90869 0.89976 0.0
H277 H 0.83376 0.82222 0.95297 0.0
H278 H 0.91796 0.93908 0.71934 0.0
H279 H 0.8325 0.72461 0.90207 0.0
H280 H 0.9271 0.84016 0.10946 0.0
N281 N 0.91003 0.84377 0.52509 0.0
C282 C 0.91393 0.86775 0.44532 0.0
C283 C 0.91678 0.91959 0.64179 0.0
C284 C 0.9188 0.9197 0.45998 0.0
C285 C 0.91216 0.86774 0.62301 0.0
C286 C 0.91981 0.9461 0.55978 0.0
N287 N 0.91079 0.7872 0.34292 0.0
C288 C 0.91485 0.75346 0.25809 0.0
C289 C 0.92005 0.85927 0.26648 0.0
C290 C 0.91432 0.83826 0.3502 0.0
C291 C 0.92268 0.82569 0.1756 0.0
C292 C 0.92046 0.77228 0.17242 0.0
H293 H 0.92345 0.98614 0.57441 0.0
H294 H 0.92668 0.98272 0.38437 0.0
H295 H 0.92796 0.92944 0.21449 0.0
O296 O 0.91108 0.71703 0.58814 0.0
O297 O 0.88984 0.72948 0.33964 0.0
O298 O 0.86755 0.77012 0.33983 0.0
O299 O 0.92336 0.74814 0.47456 0.0
O300 O 0.89212 0.6818 0.44708 0.0
O301 O 0.867 0.6785 0.47669 0.0
O302 O 0.83507 0.77142 0.45123 0.0
O303 O 0.8693 0.72795 0.6097 0.0
O304 O 0.89021 0.77602 0.6387 0.0
O305 O 0.84533 0.70183 0.37897 0.0
O306 O 0.86852 0.82199 0.43394 0.0
O307 O 0.88697 0.82763 0.54629 0.0
C308 C 0.87896 0.74822 0.29041 0.0
C309 C 0.93556 0.74266 0.62807 0.0
C310 C 0.96138 0.76117 0.66208 0.0
C311 C 0.95779 0.78047 0.76398 0.0
C312 C 0.93234 0.76211 0.73013 0.0
C313 C 0.94341 0.78062 0.79751 0.0
C314 C 0.9501 0.74177 0.59499 0.0
C315 C 0.87992 0.65633 0.45892 0.0
C316 C 0.924 0.72452 0.55379 0.0
C317 C 0.92314 0.94253 0.37515 0.0
C318 C 0.92383 0.91224 0.27839 0.0
C319 C 0.87929 0.7507 0.67277 0.0
C320 C 0.81946 0.70108 0.39552 0.0
C321 C 0.79325 0.69683 0.36217 0.0
C322 C 0.79266 0.65066 0.40567 0.0
C323 C 0.81859 0.65442 0.43653 0.0
C324 C 0.80676 0.72194 0.35813 0.0
C325 C 0.80524 0.62969 0.44224 0.0
C326 C 0.87863 0.84965 0.48564 0.0
C327 C 0.83337 0.72864 0.38873 0.0
H328 H 0.966 0.79676 0.81757 0.0
H329 H 0.92127 0.7635 0.75773 0.0
H330 H 0.94082 0.79592 0.87591 0.0
H331 H 0.95256 0.7261 0.51647 0.0
H332 H 0.78254 0.62996 0.40909 0.0
H333 H 0.8282 0.63681 0.46325 0.0
H334 H 0.80743 0.7579 0.32601 0.0
H335 H 0.80466 0.59372 0.47412 0.0
Tb336 Tb 0.65172 0.74966 0.08561 0.0
C337 C 0.59476 0.7412 0.28897 0.0
N338 N 0.6005 0.71212 0.20412 0.0
C339 C 0.5934 0.63396 0.26781 0.0
C340 C 0.58893 0.71749 0.36913 0.0
C341 C 0.59881 0.65928 0.18968 0.0
C342 C 0.58872 0.66315 0.35883 0.0
C343 C 0.58823 0.82639 0.38005 0.0
C344 C 0.59431 0.7951 0.29445 0.0
C345 C 0.58269 0.80284 0.46067 0.0
C346 C 0.5831 0.74858 0.45544 0.0
Tb347 Tb 0.60815 0.75959 0.08149 0.0
N348 N 0.60036 0.81694 0.21729 0.0
C349 C 0.5882 0.88051 0.38294 0.0
C350 C 0.6001 0.86962 0.21857 0.0
C351 C 0.59413 0.90217 0.30175 0.0
H352 H 0.60098 0.6363 0.11683 0.0
H353 H 0.59402 0.94392 0.30289 0.0
H354 H 0.65959 0.84895 0.96639 0.0
H355 H 0.66987 0.54909 0.02539 0.0
H356 H 0.60428 0.8864 0.15474 0.0
H357 H 0.58365 0.90588 0.44748 0.0
H358 H 0.65873 0.62741 0.12247 0.0
H359 H 0.59247 0.59197 0.25656 0.0
H360 H 0.57809 0.82628 0.52742 0.0
H361 H 0.57866 0.73096 0.51786 0.0
H362 H 0.67194 0.86345 0.80741 0.0
H363 H 0.58435 0.64343 0.41865 0.0
H364 H 0.68136 0.55358 0.85814 0.0
N365 N 0.66314 0.76731 0.94182 0.0
C366 C 0.67004 0.72673 0.885 0.0
C367 C 0.67134 0.82467 0.82776 0.0
C368 C 0.6773 0.73301 0.79418 0.0
C369 C 0.66421 0.81634 0.91713 0.0
C370 C 0.67776 0.7827 0.76528 0.0
N371 N 0.66264 0.67496 1.00729 0.0
C372 C 0.66319 0.62954 0.04782 0.0
C373 C 0.67642 0.63532 0.86127 0.0
C374 C 0.66954 0.67869 0.91801 0.0
C375 C 0.67623 0.58791 0.8995 0.0
C376 C 0.66973 0.5852 0.99378 0.0
H377 H 0.68324 0.78924 0.69599 0.0
H378 H 0.68947 0.69356 0.66544 0.0
H379 H 0.68873 0.60797 0.72431 0.0
O380 O 0.67187 0.73175 0.14708 0.0
O381 O 0.6421 0.74345 0.93066 0.0
O382 O 0.61689 0.75341 0.92454 0.0
O383 O 0.66323 0.80924 0.17684 0.0
O384 O 0.63823 0.68679 0.12628 0.0
O385 O 0.61796 0.68232 0.02636 0.0
O386 O 0.59051 0.80262 0.0381 0.0
O387 O 0.62148 0.79002 0.21926 0.0
O388 O 0.6401 0.73288 0.22247 0.0
O389 O 0.58875 0.72015 0.03239 0.0
O390 O 0.61904 0.82409 0.02371 0.0
O391 O 0.64159 0.82823 0.10393 0.0
C392 C 0.62978 0.74616 0.88049 0.0
C393 C 0.68901 0.79999 0.16949 0.0
C394 C 0.71541 0.797 0.19499 0.0
C395 C 0.7168 0.83996 0.14212 0.0
C396 C 0.69083 0.84265 0.11695 0.0
C397 C 0.70464 0.86225 0.1032 0.0
C398 C 0.70135 0.7772 0.20795 0.0
C399 C 0.62894 0.65947 0.06576 0.0
C400 C 0.67438 0.77951 0.1871 0.0
C401 C 0.68389 0.68968 0.7359 0.0
C402 C 0.68345 0.64092 0.76935 0.0
C403 C 0.63018 0.76326 0.27146 0.0
C404 C 0.57241 0.76065 0.92939 0.0
C405 C 0.54777 0.75024 0.86054 0.0
C406 C 0.55272 0.76635 0.76989 0.0
C407 C 0.57716 0.77597 0.83782 0.0
C408 C 0.55775 0.74725 0.93989 0.0
C409 C 0.56733 0.77871 0.75856 0.0
C410 C 0.63129 0.84813 0.05165 0.0
C411 C 0.58208 0.76252 1.01829 0.0
H412 H 0.72728 0.85726 0.13242 0.0
H413 H 0.6816 0.86129 0.08734 0.0
H414 H 0.70591 0.89539 0.06316 0.0
H415 H 0.69995 0.74395 0.24763 0.0
H416 H 0.54534 0.76859 0.70719 0.0
H417 H 0.58837 0.7866 0.82833 0.0
H418 H 0.55405 0.73581 1.01098 0.0
H419 H 0.57103 0.79085 0.68831 0.0
Tb420 Tb 0.40004 0.7538 1.00465 0.0
C421 C 0.33921 0.73955 0.81513 0.0
N422 N 0.34767 0.77544 0.87277 0.0
C423 C 0.34281 0.83688 0.75844 0.0
C424 C 0.3327 0.75034 0.72441 0.0
C425 C 0.34907 0.82428 0.84771 0.0
C426 C 0.33469 0.79962 0.69599 0.0
C427 C 0.32948 0.65196 0.78587 0.0
C428 C 0.33763 0.69104 0.84551 0.0
C429 C 0.32295 0.66249 0.69536 0.0
C430 C 0.32455 0.71157 0.66474 0.0
Tb431 Tb 0.35697 0.75067 1.01829 0.0
N432 N 0.34428 0.68203 0.93277 0.0
C433 C 0.32817 0.60342 0.8188 0.0
C434 C 0.34267 0.63512 0.96669 0.0
C435 C 0.33475 0.59508 0.90984 0.0
H436 H 0.35456 0.85419 0.89754 0.0
H437 H 0.33361 0.55793 0.93678 0.0
H438 H 0.40032 0.64978 0.12487 0.0
H439 H 0.42444 0.94424 0.0932 0.0
H440 H 0.3472 0.62864 0.03883 0.0
H441 H 0.32202 0.57234 0.77504 0.0
H442 H 0.4104 0.87553 0.98841 0.0
H443 H 0.34409 0.87556 0.73859 0.0
H444 H 0.31666 0.63293 0.64842 0.0
H445 H 0.31949 0.71907 0.59461 0.0
H446 H 0.4101 0.62668 0.28491 0.0
H447 H 0.32987 0.80947 0.6268 0.0
H448 H 0.43549 0.92752 0.25526 0.0
N449 N 0.40819 0.72738 0.15115 0.0
C450 C 0.41683 0.76214 0.21005 0.0
C451 C 0.41193 0.66514 0.26532 0.0
C452 C 0.42286 0.75038 0.30161 0.0
C453 C 0.40617 0.67863 0.1752 0.0
C454 C 0.42021 0.7013 0.32929 0.0
N455 N 0.41286 0.82091 0.09241 0.0
C456 C 0.41481 0.86805 0.06027 0.0
C457 C 0.42736 0.84863 0.24184 0.0
C458 C 0.41908 0.81065 0.18034 0.0
C459 C 0.42921 0.89727 0.2101 0.0
C460 C 0.42293 0.90693 0.11884 0.0
H461 H 0.42461 0.69077 0.39921 0.0
H462 H 0.43585 0.7798 0.43374 0.0
H463 H 0.43978 0.86576 0.38148 0.0
O464 O 0.42071 0.76911 0.94194 0.0
O465 O 0.38922 0.78126 0.15426 0.0
O466 O 0.36806 0.73498 0.15771 0.0
O467 O 0.41259 0.69015 0.94059 0.0
O468 O 0.38922 0.81996 0.95334 0.0
O469 O 0.36815 0.82763 0.04955 0.0
O470 O 0.33742 0.73227 0.08769 0.0
O471 O 0.3672 0.72722 0.86507 0.0
O472 O 0.3896 0.7674 0.86077 0.0
O473 O 0.34394 0.81164 0.09226 0.0
O474 O 0.36848 0.68365 0.0634 0.0
O475 O 0.38867 0.67911 0.96103 0.0
C476 C 0.37889 0.76104 0.20537 0.0
C477 C 0.43628 0.69651 0.86446 0.0
C478 C 0.46251 0.69443 0.83388 0.0
C479 C 0.46089 0.64586 0.77231 0.0
C480 C 0.43507 0.64797 0.80235 0.0
C481 C 0.44727 0.62309 0.75621 0.0
C482 C 0.45006 0.72026 0.87876 0.0
C483 C 0.37859 0.84805 0.99939 0.0
C484 C 0.42321 0.71951 0.91835 0.0
C485 C 0.43117 0.78805 0.36289 0.0
C486 C 0.4334 0.83704 0.33313 0.0
C487 C 0.37803 0.74511 0.81434 0.0
C488 C 0.31855 0.79388 0.08827 0.0
C489 C 0.29244 0.79283 0.12597 0.0
C490 C 0.28991 0.81917 0.04216 0.0
C491 C 0.3156 0.82032 1.00564 0.0
C492 C 0.30691 0.78017 0.14823 0.0
C493 C 0.30139 0.83259 0.98265 0.0
C494 C 0.37833 0.65655 1.00693 0.0
C495 C 0.33364 0.7805 0.11304 0.0
H496 H 0.47021 0.62554 0.73591 0.0
H497 H 0.42464 0.62897 0.78987 0.0
H498 H 0.44619 0.5857 0.70849 0.0
H499 H 0.45117 0.75742 0.92743 0.0
H500 H 0.27905 0.83053 0.02364 0.0
H501 H 0.32425 0.832 0.95921 0.0
H502 H 0.30915 0.75945 0.21171 0.0
H503 H 0.29926 0.85318 0.9189 0.0
Tb504 Tb 0.65167 0.25109 0.03521 0.0
C505 C 0.59322 0.24029 0.79849 0.0
N506 N 0.60135 0.27583 0.85948 0.0
C507 C 0.59861 0.33647 0.74099 0.0
C508 C 0.58805 0.25062 0.70352 0.0
C509 C 0.60352 0.32429 0.83452 0.0
C510 C 0.59099 0.29927 0.67462 0.0
C511 C 0.58253 0.15422 0.76842 0.0
C512 C 0.5905 0.19283 0.83072 0.0
C513 C 0.57749 0.16398 0.67297 0.0
C514 C 0.58024 0.21208 0.64064 0.0
Tb515 Tb 0.60837 0.25235 1.01114 0.0
N516 N 0.59559 0.18474 0.92338 0.0
C517 C 0.57982 0.10707 0.80414 0.0
C518 C 0.59261 0.13933 0.95986 0.0
C519 C 0.58481 0.09975 0.9005 0.0
H520 H 0.60892 0.35359 0.88676 0.0
H521 H 0.58255 0.06377 0.92949 0.0
H522 H 0.65477 0.13447 0.10836 0.0
H523 H 0.67126 0.44043 0.20527 0.0
H524 H 0.59595 0.13372 0.03555 0.0
H525 H 0.57375 0.07637 0.75855 0.0
H526 H 0.66049 0.3774 0.06959 0.0
H527 H 0.60063 0.37463 0.72049 0.0
H528 H 0.5714 0.13469 0.62381 0.0
H529 H 0.57626 0.21909 0.56699 0.0
H530 H 0.6616 0.09874 0.26337 0.0
H531 H 0.58725 0.30871 0.60206 0.0
H532 H 0.67947 0.4119 0.36582 0.0
N533 N 0.65817 0.21312 0.17346 0.0
C534 C 0.66463 0.24518 0.25103 0.0
C535 C 0.6622 0.14024 0.26194 0.0
C536 C 0.66942 0.22632 0.33968 0.0
C537 C 0.65778 0.1608 0.17517 0.0
C538 C 0.66782 0.17328 0.34535 0.0
N539 N 0.66169 0.31376 0.15412 0.0
C540 C 0.66354 0.36444 0.14021 0.0
C541 C 0.67299 0.3318 0.31973 0.0
C542 C 0.66652 0.29713 0.24077 0.0
C543 C 0.67456 0.384 0.30689 0.0
C544 C 0.66988 0.4003 0.21655 0.0
H545 H 0.67135 0.15721 0.41217 0.0
H546 H 0.67948 0.24705 0.48783 0.0
H547 H 0.68254 0.33944 0.4706 0.0
O548 O 0.67196 0.27684 0.98933 0.0
O549 O 0.63854 0.27518 0.17747 0.0
O550 O 0.61661 0.23224 0.15625 0.0
O551 O 0.66694 0.19556 0.96851 0.0
O552 O 0.64251 0.32014 0.98156 0.0
O553 O 0.62017 0.32604 0.06021 0.0
O554 O 0.58658 0.24314 0.06006 0.0
O555 O 0.6206 0.23212 0.86497 0.0
O556 O 0.6436 0.2676 0.88688 0.0
O557 O 0.59713 0.31899 0.07727 0.0
O558 O 0.61794 0.18372 0.06265 0.0
O559 O 0.64026 0.17625 0.98266 0.0
C560 C 0.6272 0.25335 0.21548 0.0
C561 C 0.69186 0.21932 0.98767 0.0
C562 C 0.71783 0.2154 0.9459 0.0
C563 C 0.72065 0.20107 0.04225 0.0
C564 C 0.69502 0.20429 0.08254 0.0
C565 C 0.70932 0.19549 0.10969 0.0
C566 C 0.70331 0.22461 0.91935 0.0
C567 C 0.63105 0.34713 1.0168 0.0
C568 C 0.6768 0.23028 0.95864 0.0
C569 C 0.67581 0.26075 0.41883 0.0
C570 C 0.67759 0.31335 0.4089 0.0
C571 C 0.63266 0.24945 0.828 0.0
C572 C 0.57224 0.31904 0.13788 0.0
C573 C 0.54605 0.32235 0.17128 0.0
C574 C 0.54765 0.37377 0.22075 0.0
C575 C 0.5734 0.37048 0.18799 0.0
C576 C 0.55849 0.29468 0.13088 0.0
C577 C 0.56121 0.39742 0.22936 0.0
C578 C 0.62898 0.15545 0.02325 0.0
C579 C 0.58538 0.29294 0.08988 0.0
H580 H 0.7316 0.19301 0.06473 0.0
H581 H 0.68651 0.19906 0.1356 0.0
H582 H 0.71163 0.18389 0.18318 0.0
H583 H 0.70092 0.2363 0.84595 0.0
H584 H 0.53836 0.39566 0.25381 0.0
H585 H 0.58377 0.39018 0.19495 0.0
H586 H 0.5574 0.25519 0.09177 0.0
H587 H 0.56228 0.437 0.26786 0.0
Tb588 Tb 0.39964 0.2466 0.97171 0.0
C589 C 0.33793 0.2871 0.16957 0.0
N590 N 0.34474 0.24527 0.11623 0.0
C591 C 0.3366 0.19163 0.23752 0.0
C592 C 0.33071 0.28341 0.26183 0.0
C593 C 0.34368 0.19734 0.14644 0.0
C594 C 0.33024 0.23497 0.29614 0.0
C595 C 0.33151 0.37829 0.18372 0.0
C596 C 0.33838 0.33374 0.13117 0.0
C597 C 0.32455 0.37533 0.2771 0.0
C598 C 0.32415 0.32797 0.31605 0.0
Tb599 Tb 0.35621 0.25916 0.96971 0.0
N600 N 0.34514 0.33487 0.04052 0.0
C601 C 0.33164 0.42413 0.13991 0.0
C602 C 0.3446 0.37866 0.99476 0.0
C603 C 0.33809 0.42414 0.04447 0.0
H604 H 0.34844 0.16375 0.10084 0.0
H605 H 0.33795 0.45902 1.00879 0.0
H606 H 0.40453 0.37193 0.93532 0.0
H607 H 0.41465 0.06534 0.74341 0.0
H608 H 0.34916 0.37855 0.91959 0.0
H609 H 0.32653 0.45931 0.17796 0.0
H610 H 0.4044 0.12074 0.89448 0.0
H611 H 0.33604 0.15382 0.26233 0.0
H612 H 0.31929 0.40923 0.31903 0.0
H613 H 0.31861 0.32609 0.38753 0.0
H614 H 0.41137 0.41763 0.79404 0.0
H615 H 0.32479 0.23046 0.36676 0.0
H616 H 0.42397 0.10562 0.59835 0.0
N617 N 0.40597 0.29605 0.84864 0.0
C618 C 0.41174 0.26815 0.76251 0.0
C619 C 0.41118 0.3755 0.78314 0.0
C620 C 0.41671 0.29299 0.68125 0.0
C621 C 0.40667 0.34921 0.86236 0.0
C622 C 0.41598 0.34727 0.69147 0.0
N623 N 0.40743 0.19117 0.83346 0.0
C624 C 0.40819 0.13847 0.83065 0.0
C625 C 0.41886 0.18423 0.66854 0.0
C626 C 0.41287 0.21429 0.75595 0.0
C627 C 0.41947 0.13006 0.6643 0.0
C628 C 0.41413 0.10713 0.74577 0.0
H629 H 0.41965 0.36781 0.63077 0.0
H630 H 0.42631 0.28158 0.53022 0.0
H631 H 0.42818 0.18645 0.51916 0.0
O632 O 0.41725 0.20373 1.0163 0.0
O633 O 0.38589 0.21659 0.8359 0.0
O634 O 0.36799 0.27642 0.8341 0.0
O635 O 0.41937 0.28549 1.01266 0.0
O636 O 0.38882 0.18071 0.02482 0.0
O637 O 0.36556 0.17943 0.95386 0.0
O638 O 0.33601 0.2756 0.90726 0.0
O639 O 0.36587 0.26367 0.1243 0.0
O640 O 0.391 0.2508 0.12899 0.0
O641 O 0.34514 0.19892 0.87685 0.0
O642 O 0.37039 0.32168 0.93526 0.0
O643 O 0.3902 0.32247 0.03781 0.0
C644 C 0.37739 0.24425 0.78406 0.0
C645 C 0.43612 0.24725 0.11621 0.0
C646 C 0.46109 0.26052 0.17758 0.0
C647 C 0.45676 0.24667 0.27169 0.0
C648 C 0.432 0.23419 0.21107 0.0
C649 C 0.4423 0.234 0.28834 0.0
C650 C 0.45062 0.26086 0.10028 0.0
C651 C 0.37637 0.15769 0.99832 0.0
C652 C 0.42592 0.24341 0.02985 0.0
C653 C 0.42252 0.2631 0.59346 0.0
C654 C 0.42366 0.20894 0.58734 0.0
C655 C 0.37815 0.25877 0.1737 0.0
C656 C 0.31935 0.20606 0.88392 0.0
C657 C 0.29311 0.20379 0.8519 0.0
C658 C 0.29172 0.16641 0.91802 0.0
C659 C 0.31762 0.16817 0.94825 0.0
C660 C 0.30705 0.2236 0.83566 0.0
C661 C 0.30388 0.14882 0.96555 0.0
C662 C 0.37914 0.34676 1.00318 0.0
C663 C 0.33382 0.22776 0.86631 0.0
H664 H 0.46451 0.24653 0.33299 0.0
H665 H 0.4209 0.22351 0.22482 0.0
H666 H 0.43909 0.22374 0.36134 0.0
H667 H 0.45383 0.27057 0.02665 0.0
H668 H 0.28127 0.14975 0.93124 0.0
H669 H 0.32686 0.15318 0.98463 0.0
H670 H 0.30835 0.25289 0.78599 0.0
H671 H 0.30267 0.11961 1.01532 0.0
H672 H 0.24359 0.26348 0.55915 0.0
H673 H 0.21852 0.27211 0.83646 0.0
H674 H 0.23982 0.24687 0.92672 0.0
H675 H 0.26582 0.22505 0.92885 0.0
H676 H 0.29096 0.21941 0.65268 0.0
H677 H 0.26952 0.24295 0.56168 0.0
C678 C 0.24274 0.26046 0.63964 0.0
C679 C 0.22932 0.26995 0.69041 0.0
C680 C 0.25515 0.24717 0.69197 0.0
C681 C 0.22854 0.2644 0.79436 0.0
C682 C 0.24079 0.25045 0.84656 0.0
C683 C 0.26661 0.22871 0.84859 0.0
C684 C 0.28007 0.22047 0.79797 0.0
C685 C 0.25418 0.24205 0.79633 0.0
C686 C 0.28086 0.22619 0.69422 0.0
C687 C 0.26855 0.23923 0.64178 0.0
H688 H 0.74457 0.25926 0.986 0.0
H689 H 0.71859 0.17909 0.74147 0.0
H690 H 0.73878 0.18118 0.62285 0.0
H691 H 0.76387 0.20416 0.58897 0.0
H692 H 0.78955 0.2887 0.83097 0.0
H693 H 0.76966 0.28425 0.95067 0.0
C694 C 0.74334 0.24207 0.90681 0.0
C695 C 0.73002 0.21906 0.87293 0.0
C696 C 0.75503 0.24342 0.83873 0.0
C697 C 0.7286 0.19762 0.7696 0.0
C698 C 0.7402 0.19842 0.70181 0.0
C699 C 0.76515 0.22233 0.66747 0.0
C700 C 0.77835 0.24691 0.69987 0.0
C701 C 0.75347 0.22114 0.73553 0.0
C702 C 0.77973 0.26875 0.80321 0.0
C703 C 0.76825 0.26676 0.87184 0.0
H704 H 0.26518 0.75989 0.06464 0.0
H705 H 0.29151 0.79827 0.33434 0.0
H706 H 0.27092 0.78223 0.44116 0.0
H707 H 0.24529 0.75951 0.45885 0.0
H708 H 0.21898 0.72051 0.18916 0.0
H709 H 0.23953 0.73697 0.08236 0.0
C710 C 0.26643 0.76518 0.14684 0.0
C711 C 0.27999 0.78037 0.19088 0.0
C712 C 0.25446 0.75658 0.20821 0.0
C713 C 0.28135 0.78593 0.2977 0.0
C714 C 0.26951 0.77724 0.35911 0.0
C715 C 0.24403 0.75413 0.37665 0.0
C716 C 0.23048 0.73864 0.33267 0.0
C717 C 0.256 0.76275 0.31527 0.0
C718 C 0.22912 0.73309 0.22584 0.0
C719 C 0.24094 0.742 0.16441 0.0
H720 H 0.74278 0.78587 0.11335 0.0
H721 H 0.71792 0.75699 0.37538 0.0
H722 H 0.73953 0.72301 0.44873 0.0
H723 H 0.76575 0.70385 0.44164 0.0
H724 H 0.79066 0.73604 0.18253 0.0
H725 H 0.7689 0.76803 0.10727 0.0
C726 C 0.74204 0.77275 0.18709 0.0
C727 C 0.72858 0.77426 0.23827 0.0
C728 C 0.75462 0.75433 0.23029 0.0
C729 C 0.72797 0.75572 0.33283 0.0
C730 C 0.74039 0.73668 0.37557 0.0
C731 C 0.76641 0.71762 0.36845 0.0
C732 C 0.77991 0.71759 0.31819 0.0
C733 C 0.75381 0.73603 0.3253 0.0
C734 C 0.78053 0.73624 0.22388 0.0
C735 C 0.76804 0.75421 0.1803 0.0
H736 H 0.13079 0.91583 0.37293 0.0
H737 H 0.13197 0.91378 0.6971 0.0
H738 H 0.13259 0.00922 0.72841 0.0
H739 H 0.1323 0.09386 0.66323 0.0
H740 H 0.12816 0.09587 0.3402 0.0
H741 H 0.12913 1.00049 0.30829 0.0
C742 C 0.13119 0.93648 0.45025 0.0
C743 C 0.13139 0.90803 0.53273 0.0
C744 C 0.13096 0.99145 0.46767 0.0
C745 C 0.13176 0.93502 0.63262 0.0
C746 C 0.13213 0.98954 0.65045 0.0
C747 C 0.13163 0.07323 0.58599 0.0
C748 C 0.13021 0.10171 0.50404 0.0
C749 C 0.13166 0.01826 0.56864 0.0
C750 C 0.12918 0.07468 0.4044 0.0
C751 C 0.12977 0.02018 0.38617 0.0
H752 H 0.89562 0.41614 0.44805 0.0
H753 H 0.85724 0.42342 0.63603 0.0
H754 H 0.85397 0.51475 0.61875 0.0
H755 H 0.862 0.59372 0.55266 0.0
H756 H 0.90087 0.58878 0.37092 0.0
H757 H 0.90385 0.49624 0.38314 0.0
C758 C 0.88657 0.43767 0.4856 0.0
C759 C 0.87666 0.41207 0.54285 0.0
C760 C 0.88475 0.491 0.47601 0.0
C761 C 0.86503 0.4413 0.59089 0.0
C762 C 0.86312 0.49385 0.581 0.0
C763 C 0.87102 0.57241 0.51435 0.0
C764 C 0.88108 0.59865 0.45977 0.0
C765 C 0.87286 0.51919 0.52357 0.0
C766 C 0.89288 0.57001 0.41302 0.0
C767 C 0.89463 0.5169 0.42025 0.0
H768 H 0.8823 0.93168 0.63965 0.0
H769 H 0.87659 0.89514 0.31472 0.0
H770 H 0.87792 0.9874 0.2979 0.0
H771 H 0.87967 0.07981 0.37645 0.0
H772 H 0.88134 0.11742 0.7036 0.0
H773 H 0.88267 0.02455 0.71933 0.0
C774 C 0.88155 0.94404 0.56519 0.0
C775 C 0.87984 0.90628 0.47796 0.0
C776 C 0.88148 0.99777 0.55683 0.0
C777 C 0.87833 0.92309 0.3825 0.0
C778 C 0.87898 0.97602 0.37299 0.0
C779 C 0.88041 0.0675 0.45098 0.0
C780 C 0.88055 0.10536 0.53872 0.0
C781 C 0.88045 0.01387 0.4596 0.0
C782 C 0.88123 0.08894 0.63501 0.0
C783 C 0.882 0.03584 0.64397 0.0
H784 H 0.13006 0.59727 0.65284 0.0
H785 H 0.1329 0.58902 0.3265 0.0
H786 H 0.13194 0.4936 0.30636 0.0
H787 H 0.13046 0.41201 0.38236 0.0
H788 H 0.13076 0.42032 0.7093 0.0
H789 H 0.13031 0.51574 0.72908 0.0
C790 C 0.13048 0.57441 0.57744 0.0
C791 C 0.1315 0.59999 0.49111 0.0
C792 C 0.1305 0.51952 0.56686 0.0
C793 C 0.1322 0.5701 0.39392 0.0
C794 C 0.13161 0.51559 0.38248 0.0
C795 C 0.13044 0.4349 0.45778 0.0
C796 C 0.13059 0.40934 0.54441 0.0
C797 C 0.13078 0.4898 0.46839 0.0
C798 C 0.13072 0.43924 0.64171 0.0
C799 C 0.13043 0.49375 0.65293 0.0
H800 H 0.63081 0.57783 0.90876 0.0
H801 H 0.62677 0.61359 0.23537 0.0
H802 H 0.62598 0.52087 0.24943 0.0
H803 H 0.62679 0.42861 0.16919 0.0
H804 H 0.635 0.39243 0.84671 0.0
H805 H 0.63394 0.4852 0.83023 0.0
C806 C 0.62959 0.56509 0.9826 0.0
C807 C 0.62827 0.60254 0.07055 0.0
C808 C 0.63001 0.51132 0.9908 0.0
C809 C 0.62739 0.58553 0.16631 0.0
C810 C 0.62701 0.53245 0.17449 0.0
C811 C 0.62827 0.44119 0.0954 0.0
C812 C 0.63068 0.40371 1.00894 0.0
C813 C 0.62832 0.49486 0.08735 0.0
C814 C 0.63302 0.42058 0.91422 0.0
C815 C 0.63239 0.47364 0.90477 0.0
H816 H 0.37148 0.93441 0.13836 0.0
H817 H 0.38419 0.88714 0.82534 0.0
H818 H 0.38366 0.97757 0.79493 0.0
H819 H 0.3802 0.0712 0.85763 0.0
H820 H 0.37014 0.12029 0.17439 0.0
H821 H 0.36889 0.02915 0.20305 0.0
C822 C 0.37403 0.94403 0.06352 0.0
C823 C 0.37781 0.90387 0.98414 0.0
C824 C 0.37416 0.99678 0.04717 0.0
C825 C 0.38132 0.91717 0.88793 0.0
C826 C 0.38098 0.96897 0.8703 0.0
C827 C 0.37764 0.06176 0.93265 0.0
C828 C 0.37499 0.1023 1.01338 0.0
C829 C 0.37751 0.00924 0.94932 0.0
C830 C 0.37197 0.08967 0.11071 0.0
C831 C 0.37133 0.03752 0.12716 0.0
H832 H 0.37721 0.41271 0.86225 0.0
H833 H 0.38013 0.41074 0.18586 0.0
H834 H 0.379 0.50632 0.21723 0.0
H835 H 0.37768 0.59122 0.15145 0.0
H836 H 0.37771 0.59223 0.82674 0.0
H837 H 0.37712 0.49688 0.79656 0.0
C838 C 0.37759 0.43333 0.93961 0.0
C839 C 0.37871 0.40476 0.02179 0.0
C840 C 0.37746 0.48828 0.95662 0.0
C841 C 0.37935 0.4319 0.12149 0.0
C842 C 0.37865 0.48653 0.13933 0.0
C843 C 0.37751 0.57037 0.07425 0.0
C844 C 0.37767 0.59867 0.99126 0.0
C845 C 0.37777 0.51527 0.05747 0.0
C846 C 0.37763 0.57128 0.89164 0.0
C847 C 0.37728 0.51677 0.87443 0.0
H848 H 0.63566 0.0664 0.88976 0.0
H849 H 0.62343 0.12053 0.20117 0.0
H850 H 0.62423 0.03169 0.24035 0.0
H851 H 0.6279 0.93743 0.18604 0.0
H852 H 0.63697 0.88105 0.87046 0.0
H853 H 0.63806 0.97074 0.83295 0.0
C854 C 0.63322 0.05856 0.96605 0.0
C855 C 0.62955 0.10024 0.04256 0.0
C856 C 0.6332 0.00662 0.98741 0.0
C857 C 0.62619 0.08928 0.14074 0.0
C858 C 0.62671 0.03839 0.16341 0.0
C859 C 0.63022 0.94496 0.10933 0.0
C860 C 0.63266 0.90278 0.03154 0.0
C861 C 0.63014 0.99661 0.08744 0.0
C862 C 0.6353 0.91297 0.93193 0.0
C863 C 0.63586 0.96428 0.91041 0.0
H864 H 0.11651 0.30623 0.20395 0.0
H865 H 0.14819 0.18414 0.20504 0.0
H866 H 0.15087 0.17769 0.02045 0.0
H867 H 0.14405 0.2056 0.85561 0.0
H868 H 0.11247 0.32805 0.85466 0.0
H869 H 0.10978 0.33445 0.03923 0.0
C870 C 0.12397 0.27801 0.16399 0.0
C871 C 0.13224 0.24611 0.22022 0.0
C872 C 0.12542 0.27414 0.05632 0.0
C873 C 0.14184 0.20996 0.16557 0.0
C874 C 0.14333 0.20598 0.05914 0.0
C875 C 0.13662 0.2339 0.89559 0.0
C876 C 0.12835 0.26581 0.83935 0.0
C877 C 0.13519 0.23785 1.0033 0.0
C878 C 0.11881 0.30215 0.89409 0.0
C879 C 0.11731 0.30611 1.00052 0.0
H880 H 0.86728 0.31309 0.22607 0.0
H881 H 0.89746 0.18603 0.219 0.0
H882 H 0.89874 0.17801 0.03289 0.0
H883 H 0.8907 0.20485 0.86942 0.0
H884 H 0.86016 0.331 0.87604 0.0
H885 H 0.8591 0.3397 0.06234 0.0
C886 C 0.87388 0.28283 0.184 0.0
C887 C 0.88198 0.24949 0.23838 0.0
C888 C 0.87441 0.27785 0.07552 0.0
C889 C 0.891 0.21222 0.18097 0.0
C890 C 0.8917 0.20741 0.07373 0.0
C891 C 0.88393 0.23474 0.9113 0.0
C892 C 0.87565 0.2676 0.85679 0.0
C893 C 0.88339 0.23976 0.01974 0.0
C894 C 0.86667 0.305 0.91416 0.0
C895 C 0.8661 0.31017 0.0215 0.0
H896 H 0.14501 0.80483 0.18349 0.0
H897 H 0.11379 0.68157 0.18502 0.0
H898 H 0.11113 0.67483 1.00038 0.0
H899 H 0.11781 0.70289 0.83533 0.0
H900 H 0.14868 0.82728 0.83417 0.0
H901 H 0.15148 0.83359 1.01859 0.0
C902 C 0.13767 0.77628 0.1436 0.0
C903 C 0.12955 0.74404 0.19997 0.0
C904 C 0.13619 0.77238 0.0359 0.0
C905 C 0.12006 0.70754 0.14541 0.0
C906 C 0.11858 0.70343 0.03895 0.0
C907 C 0.12512 0.73159 0.87522 0.0
C908 C 0.13318 0.76399 0.81886 0.0
C909 C 0.12656 0.73562 0.98296 0.0
C910 C 0.14254 0.80089 0.87358 0.0
C911 C 0.14409 0.80483 0.97998 0.0
H912 H 0.8881 0.81639 0.84764 0.0
H913 H 0.8699 0.66454 0.75063 0.0
H914 H 0.86837 0.64929 0.92809 0.0
H915 H 0.87194 0.67907 0.1152 0.0
H916 H 0.88922 0.83202 0.2118 0.0
H917 H 0.89141 0.84645 0.03423 0.0
C918 C 0.88387 0.7798 0.8651 0.0
C919 C 0.87903 0.74189 0.7839 0.0
C920 C 0.88287 0.77129 0.96911 0.0
C921 C 0.87353 0.69496 0.81002 0.0
C922 C 0.87271 0.68602 0.91233 0.0
C923 C 0.87629 0.71541 0.09736 0.0
C924 C 0.88065 0.75417 0.17855 0.0
C925 C 0.87729 0.72386 0.99319 0.0
C926 C 0.88589 0.80133 0.15238 0.0
C927 C 0.88715 0.8096 0.04997 0.0
H928 H 0.64097 0.69712 0.39927 0.0
H929 H 0.61816 0.84229 0.40697 0.0
H930 H 0.61453 0.84729 0.59099 0.0
H931 H 0.61812 0.81093 0.75349 0.0
H932 H 0.64426 0.67314 0.74903 0.0
H933 H 0.64655 0.66533 0.56318 0.0
C934 C 0.63523 0.73001 0.441 0.0
C935 C 0.62917 0.76801 0.38676 0.0
C936 C 0.63385 0.73407 0.54897 0.0
C937 C 0.62217 0.81084 0.44427 0.0
C938 C 0.6203 0.81414 0.55051 0.0
C939 C 0.62422 0.77896 0.71167 0.0
C940 C 0.63077 0.74204 0.76593 0.0
C941 C 0.62598 0.77579 0.60407 0.0
C942 C 0.63898 0.70182 0.71 0.0
C943 C 0.64031 0.69737 0.60323 0.0
H944 H 0.39235 0.80225 0.68451 0.0
H945 H 0.36093 0.67947 0.68368 0.0
H946 H 0.35805 0.67453 0.49941 0.0
H947 H 0.36461 0.704 0.33546 0.0
H948 H 0.39574 0.8277 0.33646 0.0
H949 H 0.39871 0.83244 0.52065 0.0
C950 C 0.38492 0.77416 0.64415 0.0
C951 C 0.3768 0.74154 0.69974 0.0
C952 C 0.38331 0.77135 0.53672 0.0
C953 C 0.3672 0.70572 0.64466 0.0
C954 C 0.36558 0.70264 0.53844 0.0
C955 C 0.372 0.73225 0.37578 0.0
C956 C 0.38008 0.76498 0.32015 0.0
C957 C 0.37356 0.73526 0.48326 0.0
C958 C 0.38956 0.80123 0.37539 0.0
C959 C 0.39121 0.80419 0.48159 0.0
H960 H 0.64298 0.30528 0.37903 0.0
H961 H 0.60917 0.19122 0.30866 0.0
H962 H 0.60787 0.17934 0.48724 0.0
H963 H 0.61668 0.19904 0.6654 0.0
H964 H 0.65062 0.31254 0.73613 0.0
H965 H 0.6518 0.32511 0.55755 0.0
C966 C 0.63551 0.2771 0.402 0.0
C967 C 0.62645 0.24847 0.3279 0.0
C968 C 0.63488 0.26981 0.50625 0.0
C969 C 0.61645 0.21371 0.362 0.0
C970 C 0.61569 0.20665 0.46495 0.0
C971 C 0.62427 0.22684 0.64219 0.0
C972 C 0.63347 0.25491 0.71605 0.0
C973 C 0.62491 0.23418 0.53805 0.0
C974 C 0.64341 0.28997 0.68239 0.0
C975 C 0.64407 0.29744 0.57957 0.0
H976 H 0.3889 0.1925 0.30164 0.0
H977 H 0.36466 0.33452 0.30462 0.0
H978 H 0.36235 0.34339 0.49056 0.0
H979 H 0.36737 0.31135 0.65514 0.0
H980 H 0.38846 0.16301 0.6494 0.0
H981 H 0.39196 0.15642 0.46502 0.0
C982 C 0.38321 0.2256 0.34316 0.0
C983 C 0.3772 0.26336 0.28841 0.0
C984 C 0.38143 0.2295 0.45092 0.0
C985 C 0.36953 0.30513 0.34402 0.0
C986 C 0.36818 0.31019 0.45085 0.0
C987 C 0.37269 0.27741 0.61374 0.0
C988 C 0.37824 0.23877 0.66854 0.0
C989 C 0.37408 0.27268 0.50563 0.0
C990 C 0.38473 0.19467 0.61148 0.0
C991 C 0.38658 0.19055 0.50508 0.0
H992 H 0.02222 0.1578 0.38547 0.0
H993 H 0.03784 0.30592 0.32187 0.0
H994 H 0.01288 0.33893 0.32394 0.0
H995 H 0.98641 0.32332 0.33262 0.0
H996 H 0.97115 0.17509 0.39924 0.0
H997 H 0.99611 0.14449 0.40712 0.0
C998 C 0.02016 0.19749 0.37291 0.0
C999 C 0.03186 0.22926 0.35272 0.0
C1000 C 0.00581 0.21599 0.37388 0.0
C1001 C 0.02904 0.28079 0.33801 0.0
C1002 C 0.01476 0.29949 0.33838 0.0
C1003 C 0.98858 0.28437 0.34904 0.0
C1004 C 0.97689 0.2514 0.3646 0.0
C1005 C 1.00303 0.26708 0.35425 0.0
C1006 C 0.9799 0.20132 0.38739 0.0
C1007 C 0.99418 0.18372 0.39155 0.0
H1008 H 0.98675 0.74794 0.76495 0.0
H1009 H 0.97073 0.78134 0.47521 0.0
H1010 H 0.99543 0.79109 0.41713 0.0
H1011 H 0.02146 0.79628 0.4514 0.0
H1012 H 0.0376 0.77167 0.74615 0.0
H1013 H 0.01307 0.75168 0.79824 0.0
C1014 C 0.9886 0.75764 0.68924 0.0
C1015 C 0.9767 0.76388 0.62503 0.0
C1016 C 1.00293 0.76478 0.65684 0.0
C1017 C 0.97951 0.77534 0.52628 0.0
C1018 C 0.9937 0.78144 0.49304 0.0
C1019 C 0.01967 0.78682 0.52739 0.0
C1020 C 0.03147 0.78627 0.59499 0.0
C1021 C 0.00547 0.77713 0.55818 0.0
C1022 C 0.02885 0.77217 0.6919 0.0
C1023 C 0.01476 0.76123 0.72223 0.0
H1024 H 0.52348 0.80475 0.82209 0.0
H1025 H 0.53736 0.66221 0.92304 0.0
H1026 H 0.51216 0.63414 0.93079 0.0
H1027 H 0.48628 0.64759 0.89896 0.0
H1028 H 0.47204 0.79061 0.80254 0.0
H1029 H 0.49719 0.82148 0.80435 0.0
C1030 C 0.52095 0.76764 0.84609 0.0
C1031 C 0.5323 0.73538 0.87117 0.0
C1032 C 0.50637 0.75196 0.8514 0.0
C1033 C 0.52885 0.68778 0.90363 0.0
C1034 C 0.51444 0.67164 0.90776 0.0
C1035 C 0.48869 0.68578 0.87944 0.0
C1036 C 0.47734 0.71668 0.85 0.0
C1037 C 0.50313 0.70307 0.88057 0.0
C1038 C 0.48057 0.76627 0.82593 0.0
C1039 C 0.49496 0.78368 0.82619 0.0
H1040 H 0.48604 0.21027 0.219 0.0
H1041 H 0.47047 0.34559 0.09884 0.0
H1042 H 0.49536 0.37448 0.07932 0.0
H1043 H 0.52149 0.36405 0.10509 0.0
H1044 H 0.53742 0.22858 0.22232 0.0
H1045 H 0.51254 0.1965 0.23275 0.0
C1046 C 0.48812 0.24602 0.18838 0.0
C1047 C 0.47638 0.27593 0.16105 0.0
C1048 C 0.50254 0.26225 0.17653 0.0
C1049 C 0.47927 0.32175 0.12003 0.0
C1050 C 0.49351 0.33838 0.10916 0.0
C1051 C 0.51951 0.32725 0.13212 0.0
C1052 C 0.53128 0.29891 0.16364 0.0
C1053 C 0.50521 0.30931 0.13824 0.0
C1054 C 0.52857 0.25098 0.19716 0.0
C1055 C 0.51433 0.23289 0.2039 0.0
loop_
_geom_bond_atom_site_label_1
_geom_bond_atom_site_label_2
_geom_bond_distance
_geom_bond_site_symmetry_2
_ccdc_geom_bond_type
Tb0 N29 2.617 . S
Tb0 N35 2.572 . S
Tb0 O44 2.465 . S
Tb0 O45 2.387 . S
Tb0 O47 2.428 . S
Tb0 O48 2.308 . S
Tb0 O52 2.349 . S
Tb0 O55 2.393 . S
Tb0 C64 2.802 . S
C1 N2 1.379 . S
C1 C4 1.416 . S
C1 C8 1.424 . S
N2 C1 1.379 . S
N2 C5 1.334 . S
N2 Tb11 2.617 . S
C3 C5 1.390 . S
C3 C6 1.339 . S
C3 H23 0.930 . S
C4 C1 1.416 . S
C4 C6 1.416 . S
C4 C10 1.448 . S
C5 N2 1.334 . S
C5 C3 1.390 . S
C5 H16 0.930 . S
C6 C3 1.339 . S
C6 C4 1.416 . S
C6 H27 0.930 . S
C7 C8 1.413 . S
C7 C9 1.427 . S
C7 C13 1.416 . S
C8 C1 1.424 . S
C8 C7 1.413 . S
C8 N12 1.361 . S
C9 C7 1.427 . S
C9 C10 1.328 . S
C9 H24 0.929 . S
C10 C4 1.448 . S
C10 C9 1.328 . S
C10 H25 0.930 . S
Tb11 N2 2.617 . S
Tb11 N12 2.572 . S
Tb11 O46 2.349 . S
Tb11 O49 2.393 . S
Tb11 O50 2.465 . S
Tb11 O51 2.387 . S
Tb11 O53 2.428 . S
Tb11 O54 2.308 . S
Tb11 C75 2.802 . S
N12 C8 1.361 . S
N12 Tb11 2.572 . S
N12 C14 1.340 . S
C13 C7 1.416 . S
C13 C15 1.332 . S
C13 H21 0.931 . S
C14 N12 1.340 . S
C14 C15 1.407 . S
C14 H20 0.930 . S
C15 C13 1.332 . S
C15 C14 1.407 . S
C15 H17 0.929 . S
H16 C5 0.930 . S
H17 C15 0.929 . S
H18 C33 0.930 . S
H19 C40 0.929 . S
H20 C14 0.930 . S
H21 C13 0.931 . S
H22 C36 0.930 . S
H23 C3 0.930 . S
H24 C9 0.929 . S
H25 C10 0.930 . S
H26 C31 0.930 . S
H27 C6 0.930 . S
H28 C39 0.931 . S
N29 Tb0 2.617 . S
N29 C30 1.379 . S
N29 C33 1.334 . S
C30 N29 1.379 . S
C30 C32 1.416 . S
C30 C38 1.424 . S
C31 H26 0.930 . S
C31 C33 1.390 . S
C31 C34 1.339 . S
C32 C30 1.416 . S
C32 C34 1.416 . S
C32 C65 1.448 . S
C33 H18 0.930 . S
C33 N29 1.334 . S
C33 C31 1.390 . S
C34 C31 1.339 . S
C34 C32 1.416 . S
C34 H41 0.930 . S
N35 Tb0 2.572 . S
N35 C36 1.340 . S
N35 C38 1.361 . S
C36 H22 0.930 . S
C36 N35 1.340 . S
C36 C40 1.407 . S
C37 C38 1.413 . S
C37 C39 1.416 . S
C37 C66 1.427 . S
C38 C30 1.424 . S
C38 N35 1.361 . S
C38 C37 1.413 . S
C39 H28 0.931 . S
C39 C37 1.416 . S
C39 C40 1.332 . S
C40 H19 0.929 . S
C40 C36 1.407 . S
C40 C39 1.332 . S
H41 C34 0.930 . S
H42 C65 0.930 . S
H43 C66 0.929 . S
O44 Tb0 2.465 . S
O44 C64 1.264 . S
O45 Tb0 2.387 . S
O45 C56 1.264 . S
O46 Tb11 2.349 . S
O46 C56 1.243 . S
O47 Tb0 2.428 . S
O47 C64 1.256 . S
O48 Tb0 2.308 . S
O48 C63 1.266 . S
O49 Tb11 2.393 . S
O49 C63 1.248 . S
O50 Tb11 2.465 . S
O50 C75 1.264 . S
O51 Tb11 2.387 . S
O51 C67 1.264 . S
O52 Tb0 2.349 . S
O52 C67 1.243 . S
O53 Tb11 2.428 . S
O53 C75 1.256 . S
O54 Tb11 2.308 . S
O54 C74 1.266 . S
O55 Tb0 2.393 . S
O55 C74 1.248 . S
C56 O45 1.264 . S
C56 O46 1.243 . S
C57 C60 1.399 . S
C57 C62 1.383 . S
C57 C64 1.496 . S
C58 C59 1.399 . S
C58 C62 1.389 . S
C59 C58 1.399 . S
C59 C61 1.380 . S
C59 H76 0.929 . S
C60 C57 1.399 . S
C60 C61 1.392 . S
C60 H77 0.929 . S
C61 C59 1.380 . S
C61 C60 1.392 . S
C61 H78 0.929 . S
C62 C57 1.383 . S
C62 C58 1.389 . S
C62 H79 0.931 . S
C63 O48 1.266 . S
C63 O49 1.248 . S
C64 Tb0 2.802 . S
C64 O44 1.264 . S
C64 O47 1.256 . S
C64 C57 1.496 . S
C65 C32 1.448 . S
C65 H42 0.930 . S
C65 C66 1.328 . S
C66 C37 1.427 . S
C66 H43 0.929 . S
C66 C65 1.328 . S
C67 O51 1.264 . S
C67 O52 1.243 . S
C68 C71 1.399 . S
C68 C72 1.383 . S
C68 C75 1.496 . S
C69 C70 1.399 . S
C69 C72 1.389 . S
C70 C69 1.399 . S
C70 C73 1.380 . S
C70 H80 0.929 . S
C71 C68 1.399 . S
C71 C73 1.392 . S
C71 H81 0.929 . S
C72 C68 1.383 . S
C72 C69 1.389 . S
C72 H82 0.931 . S
C73 C70 1.380 . S
C73 C71 1.392 . S
C73 H83 0.929 . S
C74 O54 1.266 . S
C74 O55 1.248 . S
C75 Tb11 2.802 . S
C75 O50 1.264 . S
C75 O53 1.256 . S
C75 C68 1.496 . S
H76 C59 0.929 . S
H77 C60 0.929 . S
H78 C61 0.929 . S
H79 C62 0.931 . S
H80 C70 0.929 . S
H81 C71 0.929 . S
H82 C72 0.931 . S
H83 C73 0.929 . S
Tb84 N113 2.617 . S
Tb84 N119 2.572 . S
Tb84 O128 2.465 . S
Tb84 O129 2.387 . S
Tb84 O131 2.428 . S
Tb84 O132 2.308 . S
Tb84 O136 2.349 . S
Tb84 O139 2.393 . S
Tb84 C148 2.802 . S
C85 N86 1.379 . S
C85 C88 1.416 . S
C85 C92 1.424 . S
N86 C85 1.379 . S
N86 C89 1.334 . S
N86 Tb95 2.617 . S
C87 C89 1.390 . S
C87 C90 1.339 . S
C87 H107 0.930 . S
C88 C85 1.416 . S
C88 C90 1.416 . S
C88 C94 1.448 . S
C89 N86 1.334 . S
C89 C87 1.390 . S
C89 H100 0.930 . S
C90 C87 1.339 . S
C90 C88 1.416 . S
C90 H111 0.930 . S
C91 C92 1.413 . S
C91 C93 1.427 . S
C91 C97 1.416 . S
C92 C85 1.424 . S
C92 C91 1.413 . S
C92 N96 1.361 . S
C93 C91 1.427 . S
C93 C94 1.328 . S
C93 H108 0.929 . S
C94 C88 1.448 . S
C94 C93 1.328 . S
C94 H109 0.930 . S
Tb95 N86 2.617 . S
Tb95 N96 2.572 . S
Tb95 O130 2.349 . S
Tb95 O133 2.393 . S
Tb95 O134 2.465 . S
Tb95 O135 2.387 . S
Tb95 O137 2.428 . S
Tb95 O138 2.308 . S
Tb95 C159 2.802 . S
N96 C92 1.361 . S
N96 Tb95 2.572 . S
N96 C98 1.340 . S
C97 C91 1.416 . S
C97 C99 1.332 . S
C97 H105 0.931 . S
C98 N96 1.340 . S
C98 C99 1.407 . S
C98 H104 0.930 . S
C99 C97 1.332 . S
C99 C98 1.407 . S
C99 H101 0.929 . S
H100 C89 0.930 . S
H101 C99 0.929 . S
H102 C117 0.930 . S
H103 C124 0.929 . S
H104 C98 0.930 . S
H105 C97 0.931 . S
H106 C120 0.930 . S
H107 C87 0.930 . S
H108 C93 0.929 . S
H109 C94 0.930 . S
H110 C115 0.930 . S
H111 C90 0.930 . S
H112 C123 0.931 . S
N113 Tb84 2.617 . S
N113 C114 1.379 . S
N113 C117 1.334 . S
C114 N113 1.379 . S
C114 C116 1.416 . S
C114 C122 1.424 . S
C115 H110 0.930 . S
C115 C117 1.390 . S
C115 C118 1.339 . S
C116 C114 1.416 . S
C116 C118 1.416 . S
C116 C149 1.448 . S
C117 H102 0.930 . S
C117 N113 1.334 . S
C117 C115 1.390 . S
C118 C115 1.339 . S
C118 C116 1.416 . S
C118 H125 0.930 . S
N119 Tb84 2.572 . S
N119 C120 1.340 . S
N119 C122 1.361 . S
C120 H106 0.930 . S
C120 N119 1.340 . S
C120 C124 1.407 . S
C121 C122 1.413 . S
C121 C123 1.416 . S
C121 C150 1.427 . S
C122 C114 1.424 . S
C122 N119 1.361 . S
C122 C121 1.413 . S
C123 H112 0.931 . S
C123 C121 1.416 . S
C123 C124 1.332 . S
C124 H103 0.929 . S
C124 C120 1.407 . S
C124 C123 1.332 . S
H125 C118 0.930 . S
H126 C149 0.930 . S
H127 C150 0.929 . S
O128 Tb84 2.465 . S
O128 C148 1.264 . S
O129 Tb84 2.387 . S
O129 C140 1.264 . S
O130 Tb95 2.349 . S
O130 C140 1.243 . S
O131 Tb84 2.428 . S
O131 C148 1.256 . S
O132 Tb84 2.308 . S
O132 C147 1.266 . S
O133 Tb95 2.393 . S
O133 C147 1.248 . S
O134 Tb95 2.465 . S
O134 C159 1.264 . S
O135 Tb95 2.387 . S
O135 C151 1.264 . S
O136 Tb84 2.349 . S
O136 C151 1.243 . S
O137 Tb95 2.428 . S
O137 C159 1.256 . S
O138 Tb95 2.308 . S
O138 C158 1.266 . S
O139 Tb84 2.393 . S
O139 C158 1.248 . S
C140 O129 1.264 . S
C140 O130 1.243 . S
C141 C144 1.399 . S
C141 C146 1.383 . S
C141 C148 1.496 . S
C142 C143 1.399 . S
C142 C146 1.389 . S
C143 C142 1.399 . S
C143 C145 1.380 . S
C143 H160 0.929 . S
C144 C141 1.399 . S
C144 C145 1.392 . S
C144 H161 0.929 . S
C145 C143 1.380 . S
C145 C144 1.392 . S
C145 H162 0.929 . S
C146 C141 1.383 . S
C146 C142 1.389 . S
C146 H163 0.931 . S
C147 O132 1.266 . S
C147 O133 1.248 . S
C148 Tb84 2.802 . S
C148 O128 1.264 . S
C148 O131 1.256 . S
C148 C141 1.496 . S
C149 C116 1.448 . S
C149 H126 0.930 . S
C149 C150 1.328 . S
C150 C121 1.427 . S
C150 H127 0.929 . S
C150 C149 1.328 . S
C151 O135 1.264 . S
C151 O136 1.243 . S
C152 C155 1.399 . S
C152 C156 1.383 . S
C152 C159 1.496 . S
C153 C154 1.399 . S
C153 C156 1.389 . S
C154 C153 1.399 . S
C154 C157 1.380 . S
C154 H164 0.929 . S
C155 C152 1.399 . S
C155 C157 1.392 . S
C155 H165 0.929 . S
C156 C152 1.383 . S
C156 C153 1.389 . S
C156 H166 0.931 . S
C157 C154 1.380 . S
C157 C155 1.392 . S
C157 H167 0.929 . S
C158 O138 1.266 . S
C158 O139 1.248 . S
C159 Tb95 2.802 . S
C159 O134 1.264 . S
C159 O137 1.256 . S
C159 C152 1.496 . S
H160 C143 0.929 . S
H161 C144 0.929 . S
H162 C145 0.929 . S
H163 C146 0.931 . S
H164 C154 0.929 . S
H165 C155 0.929 . S
H166 C156 0.931 . S
H167 C157 0.929 . S
Tb168 N197 2.617 . S
Tb168 N203 2.572 . S
Tb168 O212 2.465 . S
Tb168 O213 2.387 . S
Tb168 O215 2.428 . S
Tb168 O216 2.308 . S
Tb168 O220 2.349 . S
Tb168 O223 2.393 . S
Tb168 C232 2.802 . S
C169 N170 1.379 . S
C169 C172 1.416 . S
C169 C176 1.424 . S
N170 C169 1.379 . S
N170 C173 1.334 . S
N170 Tb179 2.617 . S
C171 C173 1.390 . S
C171 C174 1.339 . S
C171 H191 0.930 . S
C172 C169 1.416 . S
C172 C174 1.416 . S
C172 C178 1.448 . S
C173 N170 1.334 . S
C173 C171 1.390 . S
C173 H184 0.930 . S
C174 C171 1.339 . S
C174 C172 1.416 . S
C174 H195 0.930 . S
C175 C176 1.413 . S
C175 C177 1.427 . S
C175 C181 1.416 . S
C176 C169 1.424 . S
C176 C175 1.413 . S
C176 N180 1.361 . S
C177 C175 1.427 . S
C177 C178 1.328 . S
C177 H192 0.929 . S
C178 C172 1.448 . S
C178 C177 1.328 . S
C178 H193 0.930 . S
Tb179 N170 2.617 . S
Tb179 N180 2.572 . S
Tb179 O214 2.349 . S
Tb179 O217 2.393 . S
Tb179 O218 2.465 . S
Tb179 O219 2.387 . S
Tb179 O221 2.428 . S
Tb179 O222 2.308 . S
Tb179 C243 2.802 . S
N180 C176 1.361 . S
N180 Tb179 2.572 . S
N180 C182 1.340 . S
C181 C175 1.416 . S
C181 C183 1.332 . S
C181 H189 0.931 . S
C182 N180 1.340 . S
C182 C183 1.407 . S
C182 H188 0.930 . S
C183 C181 1.332 . S
C183 C182 1.407 . S
C183 H185 0.929 . S
H184 C173 0.930 . S
H185 C183 0.929 . S
H186 C201 0.930 . S
H187 C208 0.929 . S
H188 C182 0.930 . S
H189 C181 0.931 . S
H190 C204 0.930 . S
H191 C171 0.930 . S
H192 C177 0.929 . S
H193 C178 0.930 . S
H194 C199 0.930 . S
H195 C174 0.930 . S
H196 C207 0.931 . S
N197 Tb168 2.617 . S
N197 C198 1.379 . S
N197 C201 1.334 . S
C198 N197 1.379 . S
C198 C200 1.416 . S
C198 C206 1.424 . S
C199 H194 0.930 . S
C199 C201 1.390 . S
C199 C202 1.339 . S
C200 C198 1.416 . S
C200 C202 1.416 . S
C200 C233 1.448 . S
C201 H186 0.930 . S
C201 N197 1.334 . S
C201 C199 1.390 . S
C202 C199 1.339 . S
C202 C200 1.416 . S
C202 H209 0.930 . S
N203 Tb168 2.572 . S
N203 C204 1.340 . S
N203 C206 1.361 . S
C204 H190 0.930 . S
C204 N203 1.340 . S
C204 C208 1.407 . S
C205 C206 1.413 . S
C205 C207 1.416 . S
C205 C234 1.427 . S
C206 C198 1.424 . S
C206 N203 1.361 . S
C206 C205 1.413 . S
C207 H196 0.931 . S
C207 C205 1.416 . S
C207 C208 1.332 . S
C208 H187 0.929 . S
C208 C204 1.407 . S
C208 C207 1.332 . S
H209 C202 0.930 . S
H210 C233 0.930 . S
H211 C234 0.929 . S
O212 Tb168 2.465 . S
O212 C232 1.264 . S
O213 Tb168 2.387 . S
O213 C224 1.264 . S
O214 Tb179 2.349 . S
O214 C224 1.243 . S
O215 Tb168 2.428 . S
O215 C232 1.256 . S
O216 Tb168 2.308 . S
O216 C231 1.266 . S
O217 Tb179 2.393 . S
O217 C231 1.248 . S
O218 Tb179 2.465 . S
O218 C243 1.264 . S
O219 Tb179 2.387 . S
O219 C235 1.264 . S
O220 Tb168 2.349 . S
O220 C235 1.243 . S
O221 Tb179 2.428 . S
O221 C243 1.256 . S
O222 Tb179 2.308 . S
O222 C242 1.266 . S
O223 Tb168 2.393 . S
O223 C242 1.248 . S
C224 O213 1.264 . S
C224 O214 1.243 . S
C225 C228 1.399 . S
C225 C230 1.383 . S
C225 C232 1.496 . S
C226 C227 1.399 . S
C226 C230 1.389 . S
C227 C226 1.399 . S
C227 C229 1.380 . S
C227 H244 0.929 . S
C228 C225 1.399 . S
C228 C229 1.392 . S
C228 H245 0.929 . S
C229 C227 1.380 . S
C229 C228 1.392 . S
C229 H246 0.929 . S
C230 C225 1.383 . S
C230 C226 1.389 . S
C230 H247 0.931 . S
C231 O216 1.266 . S
C231 O217 1.248 . S
C232 Tb168 2.802 . S
C232 O212 1.264 . S
C232 O215 1.256 . S
C232 C225 1.496 . S
C233 C200 1.448 . S
C233 H210 0.930 . S
C233 C234 1.328 . S
C234 C205 1.427 . S
C234 H211 0.929 . S
C234 C233 1.328 . S
C235 O219 1.264 . S
C235 O220 1.243 . S
C236 C239 1.399 . S
C236 C240 1.383 . S
C236 C243 1.496 . S
C237 C238 1.399 . S
C237 C240 1.389 . S
C238 C237 1.399 . S
C238 C241 1.380 . S
C238 H248 0.929 . S
C239 C236 1.399 . S
C239 C241 1.392 . S
C239 H249 0.929 . S
C240 C236 1.383 . S
C240 C237 1.389 . S
C240 H250 0.931 . S
C241 C238 1.380 . S
C241 C239 1.392 . S
C241 H251 0.929 . S
C242 O222 1.266 . S
C242 O223 1.248 . S
C243 Tb179 2.802 . S
C243 O218 1.264 . S
C243 O221 1.256 . S
C243 C236 1.496 . S
H244 C227 0.929 . S
H245 C228 0.929 . S
H246 C229 0.929 . S
H247 C230 0.931 . S
H248 C238 0.929 . S
H249 C239 0.929 . S
H250 C240 0.931 . S
H251 C241 0.929 . S
Tb252 N281 2.617 . S
Tb252 N287 2.572 . S
Tb252 O296 2.465 . S
Tb252 O297 2.387 . S
Tb252 O299 2.428 . S
Tb252 O300 2.308 . S
Tb252 O304 2.349 . S
Tb252 O307 2.393 . S
Tb252 C316 2.802 . S
C253 N254 1.379 . S
C253 C256 1.416 . S
C253 C260 1.424 . S
N254 C253 1.379 . S
N254 C257 1.334 . S
N254 Tb263 2.617 . S
C255 C257 1.390 . S
C255 C258 1.339 . S
C255 H275 0.930 . S
C256 C253 1.416 . S
C256 C258 1.416 . S
C256 C262 1.448 . S
C257 N254 1.334 . S
C257 C255 1.390 . S
C257 H268 0.930 . S
C258 C255 1.339 . S
C258 C256 1.416 . S
C258 H279 0.930 . S
C259 C260 1.413 . S
C259 C261 1.427 . S
C259 C265 1.416 . S
C260 C253 1.424 . S
C260 C259 1.413 . S
C260 N264 1.361 . S
C261 C259 1.427 . S
C261 C262 1.328 . S
C261 H276 0.929 . S
C262 C256 1.448 . S
C262 C261 1.328 . S
C262 H277 0.930 . S
Tb263 N254 2.617 . S
Tb263 N264 2.572 . S
Tb263 O298 2.349 . S
Tb263 O301 2.393 . S
Tb263 O302 2.465 . S
Tb263 O303 2.387 . S
Tb263 O305 2.428 . S
Tb263 O306 2.308 . S
Tb263 C327 2.802 . S
N264 C260 1.361 . S
N264 Tb263 2.572 . S
N264 C266 1.340 . S
C265 C259 1.416 . S
C265 C267 1.332 . S
C265 H273 0.931 . S
C266 N264 1.340 . S
C266 C267 1.407 . S
C266 H272 0.930 . S
C267 C265 1.332 . S
C267 C266 1.407 . S
C267 H269 0.929 . S
H268 C257 0.930 . S
H269 C267 0.929 . S
H270 C285 0.930 . S
H271 C292 0.929 . S
H272 C266 0.930 . S
H273 C265 0.931 . S
H274 C288 0.930 . S
H275 C255 0.930 . S
H276 C261 0.929 . S
H277 C262 0.930 . S
H278 C283 0.930 . S
H279 C258 0.930 . S
H280 C291 0.931 . S
N281 Tb252 2.617 . S
N281 C282 1.379 . S
N281 C285 1.334 . S
C282 N281 1.379 . S
C282 C284 1.416 . S
C282 C290 1.424 . S
C283 H278 0.930 . S
C283 C285 1.390 . S
C283 C286 1.339 . S
C284 C282 1.416 . S
C284 C286 1.416 . S
C284 C317 1.448 . S
C285 H270 0.930 . S
C285 N281 1.334 . S
C285 C283 1.390 . S
C286 C283 1.339 . S
C286 C284 1.416 . S
C286 H293 0.930 . S
N287 Tb252 2.572 . S
N287 C288 1.340 . S
N287 C290 1.361 . S
C288 H274 0.930 . S
C288 N287 1.340 . S
C288 C292 1.407 . S
C289 C290 1.413 . S
C289 C291 1.416 . S
C289 C318 1.427 . S
C290 C282 1.424 . S
C290 N287 1.361 . S
C290 C289 1.413 . S
C291 H280 0.931 . S
C291 C289 1.416 . S
C291 C292 1.332 . S
C292 H271 0.929 . S
C292 C288 1.407 . S
C292 C291 1.332 . S
H293 C286 0.930 . S
H294 C317 0.930 . S
H295 C318 0.929 . S
O296 Tb252 2.465 . S
O296 C316 1.264 . S
O297 Tb252 2.387 . S
O297 C308 1.264 . S
O298 Tb263 2.349 . S
O298 C308 1.243 . S
O299 Tb252 2.428 . S
O299 C316 1.256 . S
O300 Tb252 2.308 . S
O300 C315 1.266 . S
O301 Tb263 2.393 . S
O301 C315 1.248 . S
O302 Tb263 2.465 . S
O302 C327 1.264 . S
O303 Tb263 2.387 . S
O303 C319 1.264 . S
O304 Tb252 2.349 . S
O304 C319 1.243 . S
O305 Tb263 2.428 . S
O305 C327 1.256 . S
O306 Tb263 2.308 . S
O306 C326 1.266 . S
O307 Tb252 2.393 . S
O307 C326 1.248 . S
C308 O297 1.264 . S
C308 O298 1.243 . S
C309 C312 1.399 . S
C309 C314 1.383 . S
C309 C316 1.496 . S
C310 C311 1.399 . S
C310 C314 1.389 . S
C311 C310 1.399 . S
C311 C313 1.380 . S
C311 H328 0.929 . S
C312 C309 1.399 . S
C312 C313 1.392 . S
C312 H329 0.929 . S
C313 C311 1.380 . S
C313 C312 1.392 . S
C313 H330 0.929 . S
C314 C309 1.383 . S
C314 C310 1.389 . S
C314 H331 0.931 . S
C315 O300 1.266 . S
C315 O301 1.248 . S
C316 Tb252 2.802 . S
C316 O296 1.264 . S
C316 O299 1.256 . S
C316 C309 1.496 . S
C317 C284 1.448 . S
C317 H294 0.930 . S
C317 C318 1.328 . S
C318 C289 1.427 . S
C318 H295 0.929 . S
C318 C317 1.328 . S
C319 O303 1.264 . S
C319 O304 1.243 . S
C320 C323 1.399 . S
C320 C324 1.383 . S
C320 C327 1.496 . S
C321 C322 1.399 . S
C321 C324 1.389 . S
C322 C321 1.399 . S
C322 C325 1.380 . S
C322 H332 0.929 . S
C323 C320 1.399 . S
C323 C325 1.392 . S
C323 H333 0.929 . S
C324 C320 1.383 . S
C324 C321 1.389 . S
C324 H334 0.931 . S
C325 C322 1.380 . S
C325 C323 1.392 . S
C325 H335 0.929 . S
C326 O306 1.266 . S
C326 O307 1.248 . S
C327 Tb263 2.802 . S
C327 O302 1.264 . S
C327 O305 1.256 . S
C327 C320 1.496 . S
H328 C311 0.929 . S
H329 C312 0.929 . S
H330 C313 0.929 . S
H331 C314 0.931 . S
H332 C322 0.929 . S
H333 C323 0.929 . S
H334 C324 0.931 . S
H335 C325 0.929 . S
Tb336 N365 2.617 . S
Tb336 N371 2.572 . S
Tb336 O380 2.465 1_556 S
Tb336 O381 2.387 . S
Tb336 O383 2.428 1_556 S
Tb336 O384 2.308 . S
Tb336 O388 2.349 1_556 S
Tb336 O391 2.393 1_556 S
Tb336 C400 2.802 1_556 S
C337 N338 1.379 . S
C337 C340 1.416 . S
C337 C344 1.424 . S
N338 C337 1.379 . S
N338 C341 1.334 . S
N338 Tb347 2.617 . S
C339 C341 1.390 . S
C339 C342 1.339 . S
C339 H359 0.930 . S
C340 C337 1.416 . S
C340 C342 1.416 . S
C340 C346 1.448 . S
C341 N338 1.334 . S
C341 C339 1.390 . S
C341 H352 0.930 . S
C342 C339 1.339 . S
C342 C340 1.416 . S
C342 H363 0.930 . S
C343 C344 1.413 . S
C343 C345 1.427 . S
C343 C349 1.416 . S
C344 C337 1.424 . S
C344 C343 1.413 . S
C344 N348 1.361 . S
C345 C343 1.427 . S
C345 C346 1.328 . S
C345 H360 0.929 . S
C346 C340 1.448 . S
C346 C345 1.328 . S
C346 H361 0.930 . S
Tb347 N338 2.617 . S
Tb347 N348 2.572 . S
Tb347 O382 2.349 1_554 S
Tb347 O385 2.393 1_554 S
Tb347 O386 2.465 1_554 S
Tb347 O387 2.387 . S
Tb347 O389 2.428 1_554 S
Tb347 O390 2.308 . S
Tb347 C411 2.802 1_554 S
N348 C344 1.361 . S
N348 Tb347 2.572 . S
N348 C350 1.340 . S
C349 C343 1.416 . S
C349 C351 1.332 . S
C349 H357 0.931 . S
C350 N348 1.340 . S
C350 C351 1.407 . S
C350 H356 0.930 . S
C351 C349 1.332 . S
C351 C350 1.407 . S
C351 H353 0.929 . S
H352 C341 0.930 . S
H353 C351 0.929 . S
H354 C369 0.930 . S
H355 C376 0.929 . S
H356 C350 0.930 . S
H357 C349 0.931 . S
H358 C372 0.930 . S
H359 C339 0.930 . S
H360 C345 0.929 . S
H361 C346 0.930 . S
H362 C367 0.930 . S
H363 C342 0.930 . S
H364 C375 0.931 . S
N365 Tb336 2.617 . S
N365 C366 1.379 . S
N365 C369 1.334 . S
C366 N365 1.379 . S
C366 C368 1.416 . S
C366 C374 1.424 . S
C367 H362 0.930 . S
C367 C369 1.390 . S
C367 C370 1.339 . S
C368 C366 1.416 . S
C368 C370 1.416 . S
C368 C401 1.448 . S
C369 H354 0.930 . S
C369 N365 1.334 . S
C369 C367 1.390 . S
C370 C367 1.339 . S
C370 C368 1.416 . S
C370 H377 0.930 . S
N371 Tb336 2.572 . S
N371 C372 1.340 . S
N371 C374 1.361 . S
C372 H358 0.930 . S
C372 N371 1.340 . S
C372 C376 1.407 . S
C373 C374 1.413 . S
C373 C375 1.416 . S
C373 C402 1.427 . S
C374 C366 1.424 . S
C374 N371 1.361 . S
C374 C373 1.413 . S
C375 H364 0.931 . S
C375 C373 1.416 . S
C375 C376 1.332 . S
C376 H355 0.929 . S
C376 C372 1.407 . S
C376 C375 1.332 . S
H377 C370 0.930 . S
H378 C401 0.930 . S
H379 C402 0.929 . S
O380 Tb336 2.465 1_554 S
O380 C400 1.264 . S
O381 Tb336 2.387 . S
O381 C392 1.264 . S
O382 Tb347 2.349 1_556 S
O382 C392 1.243 . S
O383 Tb336 2.428 1_554 S
O383 C400 1.256 . S
O384 Tb336 2.308 . S
O384 C399 1.266 . S
O385 Tb347 2.393 1_556 S
O385 C399 1.248 . S
O386 Tb347 2.465 1_556 S
O386 C411 1.264 . S
O387 Tb347 2.387 . S
O387 C403 1.264 . S
O388 Tb336 2.349 1_554 S
O388 C403 1.243 . S
O389 Tb347 2.428 1_556 S
O389 C411 1.256 . S
O390 Tb347 2.308 . S
O390 C410 1.266 . S
O391 Tb336 2.393 1_554 S
O391 C410 1.248 . S
C392 O381 1.264 . S
C392 O382 1.243 . S
C393 C396 1.399 . S
C393 C398 1.383 . S
C393 C400 1.496 . S
C394 C395 1.399 . S
C394 C398 1.389 . S
C395 C394 1.399 . S
C395 C397 1.380 . S
C395 H412 0.929 . S
C396 C393 1.399 . S
C396 C397 1.392 . S
C396 H413 0.929 . S
C397 C395 1.380 . S
C397 C396 1.392 . S
C397 H414 0.929 . S
C398 C393 1.383 . S
C398 C394 1.389 . S
C398 H415 0.931 . S
C399 O384 1.266 . S
C399 O385 1.248 . S
C400 Tb336 2.802 1_554 S
C400 O380 1.264 . S
C400 O383 1.256 . S
C400 C393 1.496 . S
C401 C368 1.448 . S
C401 H378 0.930 . S
C401 C402 1.328 . S
C402 C373 1.427 . S
C402 H379 0.929 . S
C402 C401 1.328 . S
C403 O387 1.264 . S
C403 O388 1.243 . S
C404 C407 1.399 . S
C404 C408 1.383 . S
C404 C411 1.496 . S
C405 C406 1.399 . S
C405 C408 1.389 . S
C406 C405 1.399 . S
C406 C409 1.380 . S
C406 H416 0.929 . S
C407 C404 1.399 . S
C407 C409 1.392 . S
C407 H417 0.929 . S
C408 C404 1.383 . S
C408 C405 1.389 . S
C408 H418 0.931 . S
C409 C406 1.380 . S
C409 C407 1.392 . S
C409 H419 0.929 . S
C410 O390 1.266 . S
C410 O391 1.248 . S
C411 Tb347 2.802 1_556 S
C411 O386 1.264 . S
C411 O389 1.256 . S
C411 C404 1.496 . S
H412 C395 0.929 . S
H413 C396 0.929 . S
H414 C397 0.929 . S
H415 C398 0.931 . S
H416 C406 0.929 . S
H417 C407 0.929 . S
H418 C408 0.931 . S
H419 C409 0.929 . S
Tb420 N449 2.617 . S
Tb420 N455 2.572 . S
Tb420 O464 2.465 1_554 S
Tb420 O465 2.387 . S
Tb420 O467 2.428 1_554 S
Tb420 O468 2.308 . S
Tb420 O472 2.349 1_554 S
Tb420 O475 2.393 1_554 S
Tb420 C484 2.802 1_554 S
C421 N422 1.379 . S
C421 C424 1.416 . S
C421 C428 1.424 . S
N422 C421 1.379 . S
N422 C425 1.334 . S
N422 Tb431 2.617 . S
C423 C425 1.390 . S
C423 C426 1.339 . S
C423 H443 0.930 . S
C424 C421 1.416 . S
C424 C426 1.416 . S
C424 C430 1.448 . S
C425 N422 1.334 . S
C425 C423 1.390 . S
C425 H436 0.930 . S
C426 C423 1.339 . S
C426 C424 1.416 . S
C426 H447 0.930 . S
C427 C428 1.413 . S
C427 C429 1.427 . S
C427 C433 1.416 . S
C428 C421 1.424 . S
C428 C427 1.413 . S
C428 N432 1.361 . S
C429 C427 1.427 . S
C429 C430 1.328 . S
C429 H444 0.929 . S
C430 C424 1.448 . S
C430 C429 1.328 . S
C430 H445 0.930 . S
Tb431 N422 2.617 . S
Tb431 N432 2.572 . S
Tb431 O466 2.349 1_556 S
Tb431 O469 2.393 1_556 S
Tb431 O470 2.465 1_556 S
Tb431 O471 2.387 . S
Tb431 O473 2.428 1_556 S
Tb431 O474 2.308 . S
Tb431 C495 2.802 1_556 S
N432 C428 1.361 . S
N432 Tb431 2.572 . S
N432 C434 1.340 . S
C433 C427 1.416 . S
C433 C435 1.332 . S
C433 H441 0.931 . S
C434 N432 1.340 . S
C434 C435 1.407 . S
C434 H440 0.930 . S
C435 C433 1.332 . S
C435 C434 1.407 . S
C435 H437 0.929 . S
H436 C425 0.930 . S
H437 C435 0.929 . S
H438 C453 0.930 . S
H439 C460 0.929 . S
H440 C434 0.930 . S
H441 C433 0.931 . S
H442 C456 0.930 . S
H443 C423 0.930 . S
H444 C429 0.929 . S
H445 C430 0.930 . S
H446 C451 0.930 . S
H447 C426 0.930 . S
H448 C459 0.931 . S
N449 Tb420 2.617 . S
N449 C450 1.379 . S
N449 C453 1.334 . S
C450 N449 1.379 . S
C450 C452 1.416 . S
C450 C458 1.424 . S
C451 H446 0.930 . S
C451 C453 1.390 . S
C451 C454 1.339 . S
C452 C450 1.416 . S
C452 C454 1.416 . S
C452 C485 1.448 . S
C453 H438 0.930 . S
C453 N449 1.334 . S
C453 C451 1.390 . S
C454 C451 1.339 . S
C454 C452 1.416 . S
C454 H461 0.930 . S
N455 Tb420 2.572 . S
N455 C456 1.340 . S
N455 C458 1.361 . S
C456 H442 0.930 . S
C456 N455 1.340 . S
C456 C460 1.407 . S
C457 C458 1.413 . S
C457 C459 1.416 . S
C457 C486 1.427 . S
C458 C450 1.424 . S
C458 N455 1.361 . S
C458 C457 1.413 . S
C459 H448 0.931 . S
C459 C457 1.416 . S
C459 C460 1.332 . S
C460 H439 0.929 . S
C460 C456 1.407 . S
C460 C459 1.332 . S
H461 C454 0.930 . S
H462 C485 0.930 . S
H463 C486 0.929 . S
O464 Tb420 2.465 1_556 S
O464 C484 1.264 . S
O465 Tb420 2.387 . S
O465 C476 1.264 . S
O466 Tb431 2.349 1_554 S
O466 C476 1.243 . S
O467 Tb420 2.428 1_556 S
O467 C484 1.256 . S
O468 Tb420 2.308 . S
O468 C483 1.266 . S
O469 Tb431 2.393 1_554 S
O469 C483 1.248 . S
O470 Tb431 2.465 1_554 S
O470 C495 1.264 . S
O471 Tb431 2.387 . S
O471 C487 1.264 . S
O472 Tb420 2.349 1_556 S
O472 C487 1.243 . S
O473 Tb431 2.428 1_554 S
O473 C495 1.256 . S
O474 Tb431 2.308 . S
O474 C494 1.266 . S
O475 Tb420 2.393 1_556 S
O475 C494 1.248 . S
C476 O465 1.264 . S
C476 O466 1.243 . S
C477 C480 1.399 . S
C477 C482 1.383 . S
C477 C484 1.496 . S
C478 C479 1.399 . S
C478 C482 1.389 . S
C479 C478 1.399 . S
C479 C481 1.380 . S
C479 H496 0.929 . S
C480 C477 1.399 . S
C480 C481 1.392 . S
C480 H497 0.929 . S
C481 C479 1.380 . S
C481 C480 1.392 . S
C481 H498 0.929 . S
C482 C477 1.383 . S
C482 C478 1.389 . S
C482 H499 0.931 . S
C483 O468 1.266 . S
C483 O469 1.248 . S
C484 Tb420 2.802 1_556 S
C484 O464 1.264 . S
C484 O467 1.256 . S
C484 C477 1.496 . S
C485 C452 1.448 . S
C485 H462 0.930 . S
C485 C486 1.328 . S
C486 C457 1.427 . S
C486 H463 0.929 . S
C486 C485 1.328 . S
C487 O471 1.264 . S
C487 O472 1.243 . S
C488 C491 1.399 . S
C488 C492 1.383 . S
C488 C495 1.496 . S
C489 C490 1.399 . S
C489 C492 1.389 . S
C490 C489 1.399 . S
C490 C493 1.380 . S
C490 H500 0.929 . S
C491 C488 1.399 . S
C491 C493 1.392 . S
C491 H501 0.929 . S
C492 C488 1.383 . S
C492 C489 1.389 . S
C492 H502 0.931 . S
C493 C490 1.380 . S
C493 C491 1.392 . S
C493 H503 0.929 . S
C494 O474 1.266 . S
C494 O475 1.248 . S
C495 Tb431 2.802 1_554 S
C495 O470 1.264 . S
C495 O473 1.256 . S
C495 C488 1.496 . S
H496 C479 0.929 . S
H497 C480 0.929 . S
H498 C481 0.929 . S
H499 C482 0.931 . S
H500 C490 0.929 . S
H501 C491 0.929 . S
H502 C492 0.931 . S
H503 C493 0.929 . S
Tb504 N533 2.617 . S
Tb504 N539 2.572 . S
Tb504 O548 2.465 1_554 S
Tb504 O549 2.387 . S
Tb504 O551 2.428 1_554 S
Tb504 O552 2.308 . S
Tb504 O556 2.349 1_554 S
Tb504 O559 2.393 1_554 S
Tb504 C568 2.802 1_554 S
C505 N506 1.379 . S
C505 C508 1.416 . S
C505 C512 1.424 . S
N506 C505 1.379 . S
N506 C509 1.334 . S
N506 Tb515 2.617 . S
C507 C509 1.390 . S
C507 C510 1.339 . S
C507 H527 0.930 . S
C508 C505 1.416 . S
C508 C510 1.416 . S
C508 C514 1.448 . S
C509 N506 1.334 . S
C509 C507 1.390 . S
C509 H520 0.930 . S
C510 C507 1.339 . S
C510 C508 1.416 . S
C510 H531 0.930 . S
C511 C512 1.413 . S
C511 C513 1.427 . S
C511 C517 1.416 . S
C512 C505 1.424 . S
C512 C511 1.413 . S
C512 N516 1.361 . S
C513 C511 1.427 . S
C513 C514 1.328 . S
C513 H528 0.929 . S
C514 C508 1.448 . S
C514 C513 1.328 . S
C514 H529 0.930 . S
Tb515 N506 2.617 . S
Tb515 N516 2.572 . S
Tb515 O550 2.349 1_556 S
Tb515 O553 2.393 1_556 S
Tb515 O554 2.465 1_556 S
Tb515 O555 2.387 . S
Tb515 O557 2.428 1_556 S
Tb515 O558 2.308 . S
Tb515 C579 2.802 1_556 S
N516 C512 1.361 . S
N516 Tb515 2.572 . S
N516 C518 1.340 . S
C517 C511 1.416 . S
C517 C519 1.332 . S
C517 H525 0.931 . S
C518 N516 1.340 . S
C518 C519 1.407 . S
C518 H524 0.930 . S
C519 C517 1.332 . S
C519 C518 1.407 . S
C519 H521 0.929 . S
H520 C509 0.930 . S
H521 C519 0.929 . S
H522 C537 0.930 . S
H523 C544 0.929 . S
H524 C518 0.930 . S
H525 C517 0.931 . S
H526 C540 0.930 . S
H527 C507 0.930 . S
H528 C513 0.929 . S
H529 C514 0.930 . S
H530 C535 0.930 . S
H531 C510 0.930 . S
H532 C543 0.931 . S
N533 Tb504 2.617 . S
N533 C534 1.379 . S
N533 C537 1.334 . S
C534 N533 1.379 . S
C534 C536 1.416 . S
C534 C542 1.424 . S
C535 H530 0.930 . S
C535 C537 1.390 . S
C535 C538 1.339 . S
C536 C534 1.416 . S
C536 C538 1.416 . S
C536 C569 1.448 . S
C537 H522 0.930 . S
C537 N533 1.334 . S
C537 C535 1.390 . S
C538 C535 1.339 . S
C538 C536 1.416 . S
C538 H545 0.930 . S
N539 Tb504 2.572 . S
N539 C540 1.340 . S
N539 C542 1.361 . S
C540 H526 0.930 . S
C540 N539 1.340 . S
C540 C544 1.407 . S
C541 C542 1.413 . S
C541 C543 1.416 . S
C541 C570 1.427 . S
C542 C534 1.424 . S
C542 N539 1.361 . S
C542 C541 1.413 . S
C543 H532 0.931 . S
C543 C541 1.416 . S
C543 C544 1.332 . S
C544 H523 0.929 . S
C544 C540 1.407 . S
C544 C543 1.332 . S
H545 C538 0.930 . S
H546 C569 0.930 . S
H547 C570 0.929 . S
O548 Tb504 2.465 1_556 S
O548 C568 1.264 . S
O549 Tb504 2.387 . S
O549 C560 1.264 . S
O550 Tb515 2.349 1_554 S
O550 C560 1.243 . S
O551 Tb504 2.428 1_556 S
O551 C568 1.256 . S
O552 Tb504 2.308 . S
O552 C567 1.266 . S
O553 Tb515 2.393 1_554 S
O553 C567 1.248 . S
O554 Tb515 2.465 1_554 S
O554 C579 1.264 . S
O555 Tb515 2.387 . S
O555 C571 1.264 . S
O556 Tb504 2.349 1_556 S
O556 C571 1.243 . S
O557 Tb515 2.428 1_554 S
O557 C579 1.256 . S
O558 Tb515 2.308 . S
O558 C578 1.266 . S
O559 Tb504 2.393 1_556 S
O559 C578 1.248 . S
C560 O549 1.264 . S
C560 O550 1.243 . S
C561 C564 1.399 . S
C561 C566 1.383 . S
C561 C568 1.496 . S
C562 C563 1.399 . S
C562 C566 1.389 . S
C563 C562 1.399 . S
C563 C565 1.380 . S
C563 H580 0.929 . S
C564 C561 1.399 . S
C564 C565 1.392 . S
C564 H581 0.929 . S
C565 C563 1.380 . S
C565 C564 1.392 . S
C565 H582 0.929 . S
C566 C561 1.383 . S
C566 C562 1.389 . S
C566 H583 0.931 . S
C567 O552 1.266 . S
C567 O553 1.248 . S
C568 Tb504 2.802 1_556 S
C568 O548 1.264 . S
C568 O551 1.256 . S
C568 C561 1.496 . S
C569 C536 1.448 . S
C569 H546 0.930 . S
C569 C570 1.328 . S
C570 C541 1.427 . S
C570 H547 0.929 . S
C570 C569 1.328 . S
C571 O555 1.264 . S
C571 O556 1.243 . S
C572 C575 1.399 . S
C572 C576 1.383 . S
C572 C579 1.496 . S
C573 C574 1.399 . S
C573 C576 1.389 . S
C574 C573 1.399 . S
C574 C577 1.380 . S
C574 H584 0.929 . S
C575 C572 1.399 . S
C575 C577 1.392 . S
C575 H585 0.929 . S
C576 C572 1.383 . S
C576 C573 1.389 . S
C576 H586 0.931 . S
C577 C574 1.380 . S
C577 C575 1.392 . S
C577 H587 0.929 . S
C578 O558 1.266 . S
C578 O559 1.248 . S
C579 Tb515 2.802 1_554 S
C579 O554 1.264 . S
C579 O557 1.256 . S
C579 C572 1.496 . S
H580 C563 0.929 . S
H581 C564 0.929 . S
H582 C565 0.929 . S
H583 C566 0.931 . S
H584 C574 0.929 . S
H585 C575 0.929 . S
H586 C576 0.931 . S
H587 C577 0.929 . S
Tb588 N617 2.617 . S
Tb588 N623 2.572 . S
Tb588 O632 2.465 1_556 S
Tb588 O633 2.387 . S
Tb588 O635 2.428 1_556 S
Tb588 O636 2.308 . S
Tb588 O640 2.349 1_556 S
Tb588 O643 2.393 1_556 S
Tb588 C652 2.802 1_556 S
C589 N590 1.379 . S
C589 C592 1.416 . S
C589 C596 1.424 . S
N590 C589 1.379 . S
N590 C593 1.334 . S
N590 Tb599 2.617 . S
C591 C593 1.390 . S
C591 C594 1.339 . S
C591 H611 0.930 . S
C592 C589 1.416 . S
C592 C594 1.416 . S
C592 C598 1.448 . S
C593 N590 1.334 . S
C593 C591 1.390 . S
C593 H604 0.930 . S
C594 C591 1.339 . S
C594 C592 1.416 . S
C594 H615 0.930 . S
C595 C596 1.413 . S
C595 C597 1.427 . S
C595 C601 1.416 . S
C596 C589 1.424 . S
C596 C595 1.413 . S
C596 N600 1.361 . S
C597 C595 1.427 . S
C597 C598 1.328 . S
C597 H612 0.929 . S
C598 C592 1.448 . S
C598 C597 1.328 . S
C598 H613 0.930 . S
Tb599 N590 2.617 . S
Tb599 N600 2.572 . S
Tb599 O634 2.349 1_554 S
Tb599 O637 2.393 1_554 S
Tb599 O638 2.465 1_554 S
Tb599 O639 2.387 . S
Tb599 O641 2.428 1_554 S
Tb599 O642 2.308 . S
Tb599 C663 2.802 1_554 S
N600 C596 1.361 . S
N600 Tb599 2.572 . S
N600 C602 1.340 . S
C601 C595 1.416 . S
C601 C603 1.332 . S
C601 H609 0.931 . S
C602 N600 1.340 . S
C602 C603 1.407 . S
C602 H608 0.930 . S
C603 C601 1.332 . S
C603 C602 1.407 . S
C603 H605 0.929 . S
H604 C593 0.930 . S
H605 C603 0.929 . S
H606 C621 0.930 . S
H607 C628 0.929 . S
H608 C602 0.930 . S
H609 C601 0.931 . S
H610 C624 0.930 . S
H611 C591 0.930 . S
H612 C597 0.929 . S
H613 C598 0.930 . S
H614 C619 0.930 . S
H615 C594 0.930 . S
H616 C627 0.931 . S
N617 Tb588 2.617 . S
N617 C618 1.379 . S
N617 C621 1.334 . S
C618 N617 1.379 . S
C618 C620 1.416 . S
C618 C626 1.424 . S
C619 H614 0.930 . S
C619 C621 1.390 . S
C619 C622 1.339 . S
C620 C618 1.416 . S
C620 C622 1.416 . S
C620 C653 1.448 . S
C621 H606 0.930 . S
C621 N617 1.334 . S
C621 C619 1.390 . S
C622 C619 1.339 . S
C622 C620 1.416 . S
C622 H629 0.930 . S
N623 Tb588 2.572 . S
N623 C624 1.340 . S
N623 C626 1.361 . S
C624 H610 0.930 . S
C624 N623 1.340 . S
C624 C628 1.407 . S
C625 C626 1.413 . S
C625 C627 1.416 . S
C625 C654 1.427 . S
C626 C618 1.424 . S
C626 N623 1.361 . S
C626 C625 1.413 . S
C627 H616 0.931 . S
C627 C625 1.416 . S
C627 C628 1.332 . S
C628 H607 0.929 . S
C628 C624 1.407 . S
C628 C627 1.332 . S
H629 C622 0.930 . S
H630 C653 0.930 . S
H631 C654 0.929 . S
O632 Tb588 2.465 1_554 S
O632 C652 1.264 . S
O633 Tb588 2.387 . S
O633 C644 1.264 . S
O634 Tb599 2.349 1_556 S
O634 C644 1.243 . S
O635 Tb588 2.428 1_554 S
O635 C652 1.256 . S
O636 Tb588 2.308 . S
O636 C651 1.266 . S
O637 Tb599 2.393 1_556 S
O637 C651 1.248 . S
O638 Tb599 2.465 1_556 S
O638 C663 1.264 . S
O639 Tb599 2.387 . S
O639 C655 1.264 . S
O640 Tb588 2.349 1_554 S
O640 C655 1.243 . S
O641 Tb599 2.428 1_556 S
O641 C663 1.256 . S
O642 Tb599 2.308 . S
O642 C662 1.266 . S
O643 Tb588 2.393 1_554 S
O643 C662 1.248 . S
C644 O633 1.264 . S
C644 O634 1.243 . S
C645 C648 1.399 . S
C645 C650 1.383 . S
C645 C652 1.496 . S
C646 C647 1.399 . S
C646 C650 1.389 . S
C647 C646 1.399 . S
C647 C649 1.380 . S
C647 H664 0.929 . S
C648 C645 1.399 . S
C648 C649 1.392 . S
C648 H665 0.929 . S
C649 C647 1.380 . S
C649 C648 1.392 . S
C649 H666 0.929 . S
C650 C645 1.383 . S
C650 C646 1.389 . S
C650 H667 0.931 . S
C651 O636 1.266 . S
C651 O637 1.248 . S
C652 Tb588 2.802 1_554 S
C652 O632 1.264 . S
C652 O635 1.256 . S
C652 C645 1.496 . S
C653 C620 1.448 . S
C653 H630 0.930 . S
C653 C654 1.328 . S
C654 C625 1.427 . S
C654 H631 0.929 . S
C654 C653 1.328 . S
C655 O639 1.264 . S
C655 O640 1.243 . S
C656 C659 1.399 . S
C656 C660 1.383 . S
C656 C663 1.496 . S
C657 C658 1.399 . S
C657 C660 1.389 . S
C658 C657 1.399 . S
C658 C661 1.380 . S
C658 H668 0.929 . S
C659 C656 1.399 . S
C659 C661 1.392 . S
C659 H669 0.929 . S
C660 C656 1.383 . S
C660 C657 1.389 . S
C660 H670 0.931 . S
C661 C658 1.380 . S
C661 C659 1.392 . S
C661 H671 0.929 . S
C662 O642 1.266 . S
C662 O643 1.248 . S
C663 Tb599 2.802 1_556 S
C663 O638 1.264 . S
C663 O641 1.256 . S
C663 C656 1.496 . S
H664 C647 0.929 . S
H665 C648 0.929 . S
H666 C649 0.929 . S
H667 C650 0.931 . S
H668 C658 0.929 . S
H669 C659 0.929 . S
H670 C660 0.931 . S
H671 C661 0.929 . S
H672 C678 0.930 . S
H673 C681 0.930 . S
H674 C682 0.930 . S
H675 C683 0.930 . S
H676 C686 0.930 . S
H677 C687 0.930 . S
C678 H672 0.930 . S
C678 C679 1.355 . S
C678 C680 1.415 . S
C679 C678 1.355 . S
C679 C681 1.419 . S
C680 C678 1.415 . S
C680 C685 1.425 . S
C680 C687 1.409 . S
C681 H673 0.930 . S
C681 C679 1.419 . S
C681 C682 1.362 . S
C682 H674 0.930 . S
C682 C681 1.362 . S
C682 C685 1.409 . S
C683 H675 0.930 . S
C683 C684 1.355 . S
C683 C685 1.415 . S
C684 C683 1.355 . S
C684 C686 1.419 . S
C685 C680 1.425 . S
C685 C682 1.409 . S
C685 C683 1.415 . S
C686 H676 0.930 . S
C686 C684 1.419 . S
C686 C687 1.362 . S
C687 H677 0.930 . S
C687 C680 1.409 . S
C687 C686 1.362 . S
H688 C694 0.930 . S
H689 C697 0.930 . S
H690 C698 0.930 . S
H691 C699 0.930 . S
H692 C702 0.930 . S
H693 C703 0.930 . S
C694 H688 0.930 . S
C694 C695 1.355 . S
C694 C696 1.415 . S
C695 C694 1.355 . S
C695 C697 1.419 . S
C696 C694 1.415 . S
C696 C701 1.425 . S
C696 C703 1.409 . S
C697 H689 0.930 . S
C697 C695 1.419 . S
C697 C698 1.362 . S
C698 H690 0.930 . S
C698 C697 1.362 . S
C698 C701 1.409 . S
C699 H691 0.930 . S
C699 C700 1.355 . S
C699 C701 1.415 . S
C700 C699 1.355 . S
C700 C702 1.419 . S
C701 C696 1.425 . S
C701 C698 1.409 . S
C701 C699 1.415 . S
C702 H692 0.930 . S
C702 C700 1.419 . S
C702 C703 1.362 . S
C703 H693 0.930 . S
C703 C696 1.409 . S
C703 C702 1.362 . S
H704 C710 0.930 . S
H705 C713 0.930 . S
H706 C714 0.930 . S
H707 C715 0.930 . S
H708 C718 0.930 . S
H709 C719 0.930 . S
C710 H704 0.930 . S
C710 C711 1.355 . S
C710 C712 1.415 . S
C711 C710 1.355 . S
C711 C713 1.419 . S
C712 C710 1.415 . S
C712 C717 1.425 . S
C712 C719 1.409 . S
C713 H705 0.930 . S
C713 C711 1.419 . S
C713 C714 1.362 . S
C714 H706 0.930 . S
C714 C713 1.362 . S
C714 C717 1.409 . S
C715 H707 0.930 . S
C715 C716 1.355 . S
C715 C717 1.415 . S
C716 C715 1.355 . S
C716 C718 1.419 . S
C717 C712 1.425 . S
C717 C714 1.409 . S
C717 C715 1.415 . S
C718 H708 0.930 . S
C718 C716 1.419 . S
C718 C719 1.362 . S
C719 H709 0.930 . S
C719 C712 1.409 . S
C719 C718 1.362 . S
H720 C726 0.930 . S
H721 C729 0.930 . S
H722 C730 0.930 . S
H723 C731 0.930 . S
H724 C734 0.930 . S
H725 C735 0.930 . S
C726 H720 0.930 . S
C726 C727 1.355 . S
C726 C728 1.415 . S
C727 C726 1.355 . S
C727 C729 1.419 . S
C728 C726 1.415 . S
C728 C733 1.425 . S
C728 C735 1.409 . S
C729 H721 0.930 . S
C729 C727 1.419 . S
C729 C730 1.362 . S
C730 H722 0.930 . S
C730 C729 1.362 . S
C730 C733 1.409 . S
C731 H723 0.930 . S
C731 C732 1.355 . S
C731 C733 1.415 . S
C732 C731 1.355 . S
C732 C734 1.419 . S
C733 C728 1.425 . S
C733 C730 1.409 . S
C733 C731 1.415 . S
C734 H724 0.930 . S
C734 C732 1.419 . S
C734 C735 1.362 . S
C735 H725 0.930 . S
C735 C728 1.409 . S
C735 C734 1.362 . S
H736 C742 0.930 . S
H737 C745 0.930 . S
H738 C746 0.930 1_545 S
H739 C747 0.930 . S
H740 C750 0.930 . S
H741 C751 0.930 1_565 S
C742 H736 0.930 . S
C742 C743 1.355 . S
C742 C744 1.415 . S
C743 C742 1.355 . S
C743 C745 1.419 . S
C744 C742 1.415 . S
C744 C749 1.425 1_565 S
C744 C751 1.409 1_565 S
C745 H737 0.930 . S
C745 C743 1.419 . S
C745 C746 1.362 . S
C746 H738 0.930 1_565 S
C746 C745 1.362 . S
C746 C749 1.409 1_565 S
C747 H739 0.930 . S
C747 C748 1.355 . S
C747 C749 1.415 . S
C748 C747 1.355 . S
C748 C750 1.419 . S
C749 C744 1.425 1_545 S
C749 C746 1.409 1_545 S
C749 C747 1.415 . S
C750 H740 0.930 . S
C750 C748 1.419 . S
C750 C751 1.362 . S
C751 H741 0.930 1_545 S
C751 C744 1.409 1_545 S
C751 C750 1.362 . S
H752 C758 0.930 . S
H753 C761 0.930 . S
H754 C762 0.930 . S
H755 C763 0.930 . S
H756 C766 0.930 . S
H757 C767 0.930 . S
C758 H752 0.930 . S
C758 C759 1.355 . S
C758 C760 1.415 . S
C759 C758 1.355 . S
C759 C761 1.419 . S
C760 C758 1.415 . S
C760 C765 1.425 . S
C760 C767 1.409 . S
C761 H753 0.930 . S
C761 C759 1.419 . S
C761 C762 1.362 . S
C762 H754 0.930 . S
C762 C761 1.362 . S
C762 C765 1.409 . S
C763 H755 0.930 . S
C763 C764 1.355 . S
C763 C765 1.415 . S
C764 C763 1.355 . S
C764 C766 1.419 . S
C765 C760 1.425 . S
C765 C762 1.409 . S
C765 C763 1.415 . S
C766 H756 0.930 . S
C766 C764 1.419 . S
C766 C767 1.362 . S
C767 H757 0.930 . S
C767 C760 1.409 . S
C767 C766 1.362 . S
H768 C774 0.930 . S
H769 C777 0.930 . S
H770 C778 0.930 . S
H771 C779 0.930 . S
H772 C782 0.930 . S
H773 C783 0.930 . S
C774 H768 0.930 . S
C774 C775 1.355 . S
C774 C776 1.415 . S
C775 C774 1.355 . S
C775 C777 1.419 . S
C776 C774 1.415 . S
C776 C781 1.425 1_565 S
C776 C783 1.409 1_565 S
C777 H769 0.930 . S
C777 C775 1.419 . S
C777 C778 1.362 . S
C778 H770 0.930 . S
C778 C777 1.362 . S
C778 C781 1.409 1_565 S
C779 H771 0.930 . S
C779 C780 1.355 . S
C779 C781 1.415 . S
C780 C779 1.355 . S
C780 C782 1.419 . S
C781 C776 1.425 1_545 S
C781 C778 1.409 1_545 S
C781 C779 1.415 . S
C782 H772 0.930 . S
C782 C780 1.419 . S
C782 C783 1.362 . S
C783 H773 0.930 . S
C783 C776 1.409 1_545 S
C783 C782 1.362 . S
H784 C790 0.930 . S
H785 C793 0.930 . S
H786 C794 0.930 . S
H787 C795 0.930 . S
H788 C798 0.930 . S
H789 C799 0.930 . S
C790 H784 0.930 . S
C790 C791 1.355 . S
C790 C792 1.415 . S
C791 C790 1.355 . S
C791 C793 1.419 . S
C792 C790 1.415 . S
C792 C797 1.425 . S
C792 C799 1.409 . S
C793 H785 0.930 . S
C793 C791 1.419 . S
C793 C794 1.362 . S
C794 H786 0.930 . S
C794 C793 1.362 . S
C794 C797 1.409 . S
C795 H787 0.930 . S
C795 C796 1.355 . S
C795 C797 1.415 . S
C796 C795 1.355 . S
C796 C798 1.419 . S
C797 C792 1.425 . S
C797 C794 1.409 . S
C797 C795 1.415 . S
C798 H788 0.930 . S
C798 C796 1.419 . S
C798 C799 1.362 . S
C799 H789 0.930 . S
C799 C792 1.409 . S
C799 C798 1.362 . S
H800 C806 0.930 . S
H801 C809 0.930 . S
H802 C810 0.930 . S
H803 C811 0.930 . S
H804 C814 0.930 . S
H805 C815 0.930 . S
C806 H800 0.930 . S
C806 C807 1.355 . S
C806 C808 1.415 . S
C807 C806 1.355 . S
C807 C809 1.419 1_556 S
C808 C806 1.415 . S
C808 C813 1.425 1_556 S
C808 C815 1.409 . S
C809 H801 0.930 . S
C809 C807 1.419 1_554 S
C809 C810 1.362 . S
C810 H802 0.930 . S
C810 C809 1.362 . S
C810 C813 1.409 . S
C811 H803 0.930 . S
C811 C812 1.355 . S
C811 C813 1.415 . S
C812 C811 1.355 . S
C812 C814 1.419 1_554 S
C813 C808 1.425 1_554 S
C813 C810 1.409 . S
C813 C811 1.415 . S
C814 H804 0.930 . S
C814 C812 1.419 1_556 S
C814 C815 1.362 . S
C815 H805 0.930 . S
C815 C808 1.409 . S
C815 C814 1.362 . S
H816 C822 0.930 . S
H817 C825 0.930 . S
H818 C826 0.930 . S
H819 C827 0.930 . S
H820 C830 0.930 . S
H821 C831 0.930 . S
C822 H816 0.930 . S
C822 C823 1.355 . S
C822 C824 1.415 . S
C823 C822 1.355 . S
C823 C825 1.419 1_554 S
C824 C822 1.415 . S
C824 C829 1.425 1_564 S
C824 C831 1.409 1_565 S
C825 H817 0.930 . S
C825 C823 1.419 1_556 S
C825 C826 1.362 . S
C826 H818 0.930 . S
C826 C825 1.362 . S
C826 C829 1.409 1_565 S
C827 H819 0.930 . S
C827 C828 1.355 . S
C827 C829 1.415 . S
C828 C827 1.355 . S
C828 C830 1.419 1_556 S
C829 C824 1.425 1_546 S
C829 C826 1.409 1_545 S
C829 C827 1.415 . S
C830 H820 0.930 . S
C830 C828 1.419 1_554 S
C830 C831 1.362 . S
C831 H821 0.930 . S
C831 C824 1.409 1_545 S
C831 C830 1.362 . S
H832 C838 0.930 . S
H833 C841 0.930 . S
H834 C842 0.930 . S
H835 C843 0.930 . S
H836 C846 0.930 . S
H837 C847 0.930 . S
C838 H832 0.930 . S
C838 C839 1.355 1_556 S
C838 C840 1.415 . S
C839 C838 1.355 1_554 S
C839 C841 1.419 . S
C840 C838 1.415 . S
C840 C845 1.425 1_556 S
C840 C847 1.409 . S
C841 H833 0.930 . S
C841 C839 1.419 . S
C841 C842 1.362 . S
C842 H834 0.930 . S
C842 C841 1.362 . S
C842 C845 1.409 . S
C843 H835 0.930 . S
C843 C844 1.355 1_554 S
C843 C845 1.415 . S
C844 C843 1.355 1_556 S
C844 C846 1.419 . S
C845 C840 1.425 1_554 S
C845 C842 1.409 . S
C845 C843 1.415 . S
C846 H836 0.930 . S
C846 C844 1.419 . S
C846 C847 1.362 . S
C847 H837 0.930 . S
C847 C840 1.409 . S
C847 C846 1.362 . S
H848 C854 0.930 . S
H849 C857 0.930 . S
H850 C858 0.930 . S
H851 C859 0.930 . S
H852 C862 0.930 . S
H853 C863 0.930 . S
C854 H848 0.930 . S
C854 C855 1.355 . S
C854 C856 1.415 . S
C855 C854 1.355 . S
C855 C857 1.419 1_556 S
C856 C854 1.415 . S
C856 C861 1.425 1_546 S
C856 C863 1.409 1_545 S
C857 H849 0.930 . S
C857 C855 1.419 1_554 S
C857 C858 1.362 . S
C858 H850 0.930 . S
C858 C857 1.362 . S
C858 C861 1.409 1_545 S
C859 H851 0.930 . S
C859 C860 1.355 . S
C859 C861 1.415 . S
C860 C859 1.355 . S
C860 C862 1.419 1_554 S
C861 C856 1.425 1_564 S
C861 C858 1.409 1_565 S
C861 C859 1.415 . S
C862 H852 0.930 . S
C862 C860 1.419 1_556 S
C862 C863 1.362 . S
C863 H853 0.930 . S
C863 C856 1.409 1_565 S
C863 C862 1.362 . S
H864 C870 0.930 . S
H865 C873 0.930 . S
H866 C874 0.930 1_556 S
H867 C875 0.930 . S
H868 C878 0.930 . S
H869 C879 0.930 . S
C870 H864 0.930 . S
C870 C871 1.355 . S
C870 C872 1.415 1_554 S
C871 C870 1.355 . S
C871 C873 1.419 . S
C872 C870 1.415 1_556 S
C872 C877 1.425 . S
C872 C879 1.409 . S
C873 H865 0.930 . S
C873 C871 1.419 . S
C873 C874 1.362 . S
C874 H866 0.930 1_554 S
C874 C873 1.362 . S
C874 C877 1.409 1_554 S
C875 H867 0.930 . S
C875 C876 1.355 . S
C875 C877 1.415 . S
C876 C875 1.355 . S
C876 C878 1.419 . S
C877 C872 1.425 . S
C877 C874 1.409 1_556 S
C877 C875 1.415 . S
C878 H868 0.930 . S
C878 C876 1.419 . S
C878 C879 1.362 . S
C879 H869 0.930 . S
C879 C872 1.409 . S
C879 C878 1.362 . S
H880 C886 0.930 . S
H881 C889 0.930 . S
H882 C890 0.930 . S
H883 C891 0.930 . S
H884 C894 0.930 . S
H885 C895 0.930 . S
C886 H880 0.930 . S
C886 C887 1.355 . S
C886 C888 1.415 . S
C887 C886 1.355 . S
C887 C889 1.419 . S
C888 C886 1.415 . S
C888 C893 1.425 1_554 S
C888 C895 1.409 1_554 S
C889 H881 0.930 . S
C889 C887 1.419 . S
C889 C890 1.362 1_554 S
C890 H882 0.930 . S
C890 C889 1.362 1_556 S
C890 C893 1.409 . S
C891 H883 0.930 . S
C891 C892 1.355 . S
C891 C893 1.415 . S
C892 C891 1.355 . S
C892 C894 1.419 . S
C893 C888 1.425 1_556 S
C893 C890 1.409 . S
C893 C891 1.415 . S
C894 H884 0.930 . S
C894 C892 1.419 . S
C894 C895 1.362 . S
C895 H885 0.930 . S
C895 C888 1.409 1_556 S
C895 C894 1.362 . S
H896 C902 0.930 . S
H897 C905 0.930 . S
H898 C906 0.930 . S
H899 C907 0.930 . S
H900 C910 0.930 . S
H901 C911 0.930 1_554 S
C902 H896 0.930 . S
C902 C903 1.355 . S
C902 C904 1.415 . S
C903 C902 1.355 . S
C903 C905 1.419 . S
C904 C902 1.415 . S
C904 C909 1.425 . S
C904 C911 1.409 1_554 S
C905 H897 0.930 . S
C905 C903 1.419 . S
C905 C906 1.362 . S
C906 H898 0.930 . S
C906 C905 1.362 . S
C906 C909 1.409 . S
C907 H899 0.930 . S
C907 C908 1.355 . S
C907 C909 1.415 1_556 S
C908 C907 1.355 . S
C908 C910 1.419 . S
C909 C904 1.425 . S
C909 C906 1.409 . S
C909 C907 1.415 1_554 S
C910 H900 0.930 . S
C910 C908 1.419 . S
C910 C911 1.362 . S
C911 H901 0.930 1_556 S
C911 C904 1.409 1_556 S
C911 C910 1.362 . S
H912 C918 0.930 . S
H913 C921 0.930 . S
H914 C922 0.930 . S
H915 C923 0.930 . S
H916 C926 0.930 . S
H917 C927 0.930 . S
C918 H912 0.930 . S
C918 C919 1.355 . S
C918 C920 1.415 1_556 S
C919 C918 1.355 . S
C919 C921 1.419 . S
C920 C918 1.415 1_554 S
C920 C925 1.425 . S
C920 C927 1.409 . S
C921 H913 0.930 . S
C921 C919 1.419 . S
C921 C922 1.362 . S
C922 H914 0.930 . S
C922 C921 1.362 . S
C922 C925 1.409 1_556 S
C923 H915 0.930 . S
C923 C924 1.355 . S
C923 C925 1.415 . S
C924 C923 1.355 . S
C924 C926 1.419 . S
C925 C920 1.425 . S
C925 C922 1.409 1_554 S
C925 C923 1.415 . S
C926 H916 0.930 . S
C926 C924 1.419 . S
C926 C927 1.362 . S
C927 H917 0.930 . S
C927 C920 1.409 . S
C927 C926 1.362 . S
H928 C934 0.930 . S
H929 C937 0.930 . S
H930 C938 0.930 . S
H931 C939 0.930 . S
H932 C942 0.930 . S
H933 C943 0.930 . S
C934 H928 0.930 . S
C934 C935 1.355 . S
C934 C936 1.415 . S
C935 C934 1.355 . S
C935 C937 1.419 . S
C936 C934 1.415 . S
C936 C941 1.425 . S
C936 C943 1.409 . S
C937 H929 0.930 . S
C937 C935 1.419 . S
C937 C938 1.362 . S
C938 H930 0.930 . S
C938 C937 1.362 . S
C938 C941 1.409 . S
C939 H931 0.930 . S
C939 C940 1.355 . S
C939 C941 1.415 . S
C940 C939 1.355 . S
C940 C942 1.419 . S
C941 C936 1.425 . S
C941 C938 1.409 . S
C941 C939 1.415 . S
C942 H932 0.930 . S
C942 C940 1.419 . S
C942 C943 1.362 . S
C943 H933 0.930 . S
C943 C936 1.409 . S
C943 C942 1.362 . S
H944 C950 0.930 . S
H945 C953 0.930 . S
H946 C954 0.930 . S
H947 C955 0.930 . S
H948 C958 0.930 . S
H949 C959 0.930 . S
C950 H944 0.930 . S
C950 C951 1.355 . S
C950 C952 1.415 . S
C951 C950 1.355 . S
C951 C953 1.419 . S
C952 C950 1.415 . S
C952 C957 1.425 . S
C952 C959 1.409 . S
C953 H945 0.930 . S
C953 C951 1.419 . S
C953 C954 1.362 . S
C954 H946 0.930 . S
C954 C953 1.362 . S
C954 C957 1.409 . S
C955 H947 0.930 . S
C955 C956 1.355 . S
C955 C957 1.415 . S
C956 C955 1.355 . S
C956 C958 1.419 . S
C957 C952 1.425 . S
C957 C954 1.409 . S
C957 C955 1.415 . S
C958 H948 0.930 . S
C958 C956 1.419 . S
C958 C959 1.362 . S
C959 H949 0.930 . S
C959 C952 1.409 . S
C959 C958 1.362 . S
H960 C966 0.930 . S
H961 C969 0.930 . S
H962 C970 0.930 . S
H963 C971 0.930 . S
H964 C974 0.930 . S
H965 C975 0.930 . S
C966 H960 0.930 . S
C966 C967 1.355 . S
C966 C968 1.415 . S
C967 C966 1.355 . S
C967 C969 1.419 . S
C968 C966 1.415 . S
C968 C973 1.425 . S
C968 C975 1.409 . S
C969 H961 0.930 . S
C969 C967 1.419 . S
C969 C970 1.362 . S
C970 H962 0.930 . S
C970 C969 1.362 . S
C970 C973 1.409 . S
C971 H963 0.930 . S
C971 C972 1.355 . S
C971 C973 1.415 . S
C972 C971 1.355 . S
C972 C974 1.419 . S
C973 C968 1.425 . S
C973 C970 1.409 . S
C973 C971 1.415 . S
C974 H964 0.930 . S
C974 C972 1.419 . S
C974 C975 1.362 . S
C975 H965 0.930 . S
C975 C968 1.409 . S
C975 C974 1.362 . S
H976 C982 0.930 . S
H977 C985 0.930 . S
H978 C986 0.930 . S
H979 C987 0.930 . S
H980 C990 0.930 . S
H981 C991 0.930 . S
C982 H976 0.930 . S
C982 C983 1.355 . S
C982 C984 1.415 . S
C983 C982 1.355 . S
C983 C985 1.419 . S
C984 C982 1.415 . S
C984 C989 1.425 . S
C984 C991 1.409 . S
C985 H977 0.930 . S
C985 C983 1.419 . S
C985 C986 1.362 . S
C986 H978 0.930 . S
C986 C985 1.362 . S
C986 C989 1.409 . S
C987 H979 0.930 . S
C987 C988 1.355 . S
C987 C989 1.415 . S
C988 C987 1.355 . S
C988 C990 1.419 . S
C989 C984 1.425 . S
C989 C986 1.409 . S
C989 C987 1.415 . S
C990 H980 0.930 . S
C990 C988 1.419 . S
C990 C991 1.362 . S
C991 H981 0.930 . S
C991 C984 1.409 . S
C991 C990 1.362 . S
H992 C998 0.930 . S
H993 C1001 0.930 . S
H994 C1002 0.930 . S
H995 C1003 0.930 . S
H996 C1006 0.930 . S
H997 C1007 0.930 . S
C998 H992 0.930 . S
C998 C999 1.355 . S
C998 C1000 1.415 . S
C999 C998 1.355 . S
C999 C1001 1.419 . S
C1000 C998 1.415 . S
C1000 C1005 1.425 1_455 S
C1000 C1007 1.409 1_455 S
C1001 H993 0.930 . S
C1001 C999 1.419 . S
C1001 C1002 1.362 . S
C1002 H994 0.930 . S
C1002 C1001 1.362 . S
C1002 C1005 1.409 1_455 S
C1003 H995 0.930 . S
C1003 C1004 1.355 . S
C1003 C1005 1.415 . S
C1004 C1003 1.355 . S
C1004 C1006 1.419 . S
C1005 C1000 1.425 1_655 S
C1005 C1002 1.409 1_655 S
C1005 C1003 1.415 . S
C1006 H996 0.930 . S
C1006 C1004 1.419 . S
C1006 C1007 1.362 . S
C1007 H997 0.930 . S
C1007 C1000 1.409 1_655 S
C1007 C1006 1.362 . S
H1008 C1014 0.930 . S
H1009 C1017 0.930 . S
H1010 C1018 0.930 . S
H1011 C1019 0.930 . S
H1012 C1022 0.930 . S
H1013 C1023 0.930 . S
C1014 H1008 0.930 . S
C1014 C1015 1.355 . S
C1014 C1016 1.415 . S
C1015 C1014 1.355 . S
C1015 C1017 1.419 . S
C1016 C1014 1.415 . S
C1016 C1021 1.425 1_655 S
C1016 C1023 1.409 1_655 S
C1017 H1009 0.930 . S
C1017 C1015 1.419 . S
C1017 C1018 1.362 . S
C1018 H1010 0.930 . S
C1018 C1017 1.362 . S
C1018 C1021 1.409 1_655 S
C1019 H1011 0.930 . S
C1019 C1020 1.355 . S
C1019 C1021 1.415 . S
C1020 C1019 1.355 . S
C1020 C1022 1.419 . S
C1021 C1016 1.425 1_455 S
C1021 C1018 1.409 1_455 S
C1021 C1019 1.415 . S
C1022 H1012 0.930 . S
C1022 C1020 1.419 . S
C1022 C1023 1.362 . S
C1023 H1013 0.930 . S
C1023 C1016 1.409 1_455 S
C1023 C1022 1.362 . S
H1024 C1030 0.930 . S
H1025 C1033 0.930 . S
H1026 C1034 0.930 1_554 S
H1027 C1035 0.930 . S
H1028 C1038 0.930 . S
H1029 C1039 0.930 . S
C1030 H1024 0.930 . S
C1030 C1031 1.355 . S
C1030 C1032 1.415 . S
C1031 C1030 1.355 . S
C1031 C1033 1.419 . S
C1032 C1030 1.415 . S
C1032 C1037 1.425 . S
C1032 C1039 1.409 . S
C1033 H1025 0.930 . S
C1033 C1031 1.419 . S
C1033 C1034 1.362 . S
C1034 H1026 0.930 1_556 S
C1034 C1033 1.362 . S
C1034 C1037 1.409 . S
C1035 H1027 0.930 . S
C1035 C1036 1.355 . S
C1035 C1037 1.415 . S
C1036 C1035 1.355 . S
C1036 C1038 1.419 . S
C1037 C1032 1.425 . S
C1037 C1034 1.409 . S
C1037 C1035 1.415 . S
C1038 H1028 0.930 . S
C1038 C1036 1.419 . S
C1038 C1039 1.362 . S
C1039 H1029 0.930 . S
C1039 C1032 1.409 . S
C1039 C1038 1.362 . S
H1040 C1046 0.930 . S
H1041 C1049 0.930 . S
H1042 C1050 0.930 . S
H1043 C1051 0.930 . S
H1044 C1054 0.930 . S
H1045 C1055 0.930 . S
C1046 H1040 0.930 . S
C1046 C1047 1.355 . S
C1046 C1048 1.415 . S
C1047 C1046 1.355 . S
C1047 C1049 1.419 . S
C1048 C1046 1.415 . S
C1048 C1053 1.425 . S
C1048 C1055 1.409 . S
C1049 H1041 0.930 . S
C1049 C1047 1.419 . S
C1049 C1050 1.362 . S
C1050 H1042 0.930 . S
C1050 C1049 1.362 . S
C1050 C1053 1.409 . S
C1051 H1043 0.930 . S
C1051 C1052 1.355 . S
C1051 C1053 1.415 . S
C1052 C1051 1.355 . S
C1052 C1054 1.419 . S
C1053 C1048 1.425 . S
C1053 C1050 1.409 . S
C1053 C1051 1.415 . S
C1054 H1044 0.930 . S
C1054 C1052 1.419 . S
C1054 C1055 1.362 . S
C1055 H1045 0.930 . S
C1055 C1048 1.409 . S
C1055 C1054 1.362 . S
C679 C58 1.529 . S
C684 C657 1.528 . S
C695 C562 1.491 . S
C700 C153 1.490 . S
C711 C489 1.460 . S
C716 C226 1.459 . S
C727 C394 1.509 . S
C732 C321 1.508 . S
C743 C231 2.367 . S
C748 C63 2.380 . S
C759 C147 0.639 . S
C764 C315 0.762 . S
C775 C326 2.384 . S
C780 C158 2.364 . S
C791 C242 0.752 . S
C796 C74 0.638 . S
C807 C399 2.360 . S
C812 C567 2.395 . S
C823 C483 0.617 . S
C828 C651 0.742 . S
C839 C662 2.359 . S
C844 C494 2.395 . S
C855 C578 0.653 . S
C860 C410 0.720 . S
C871 C56 1.791 . S
C876 C67 1.791 . S
C887 C151 1.794 . S
C892 C140 1.794 . S
C903 C235 1.779 . S
C908 C224 1.779 . S
C919 C319 1.765 . S
C924 C308 1.765 . S
C935 C403 1.768 . S
C940 C392 1.768 . S
C951 C487 1.774 . S
C956 C476 1.774 . S
C967 C560 1.761 . S
C972 C571 1.761 . S
C983 C655 1.768 . S
C988 C644 1.768 . S
C999 C69 1.966 . S
C1004 C142 1.974 . S
C1015 C310 1.976 . S
C1020 C237 1.962 . S
C1031 C405 1.977 . S
C1036 C478 1.963 . S
C1047 C646 1.962 . S
C1052 C573 1.979 . S
