# Generated by pormake.
# Topology uoj, (4)-cn, num edge types: 1
# Building blocks:
#     Node 0, Type 0, BuildingBlock: ESEHIV_clean_sbu_0, # of connection points: 4
#     Node 1, Type 0, BuildingBlock: ESEHIV_clean_sbu_0, # of connection points: 4
#     Node 2, Type 0, BuildingBlock: ESEHIV_clean_sbu_0, # of connection points: 4
#     Node 3, Type 0, BuildingBlock: ESEHIV_clean_sbu_0, # of connection points: 4
#     Node 4, Type 0, BuildingBlock: ESEHIV_clean_sbu_0, # of connection points: 4
#     Node 5, Type 0, BuildingBlock: ESEHIV_clean_sbu_0, # of connection points: 4
#     Node 6, Type 0, BuildingBlock: ESEHIV_clean_sbu_0, # of connection points: 4
#     Node 7, Type 0, BuildingBlock: ESEHIV_clean_sbu_0, # of connection points: 4
#     Edge 8, Type (0, 0), BuildingBlock: CIFDUS_clean_linker_0, # of connection points: 2
#     Edge 9, Type (0, 0), BuildingBlock: CIFDUS_clean_linker_0, # of connection points: 2
#     Edge 10, Type (0, 0), BuildingBlock: CIFDUS_clean_linker_0, # of connection points: 2
#     Edge 11, Type (0, 0), BuildingBlock: CIFDUS_clean_linker_0, # of connection points: 2
#     Edge 12, Type (0, 0), BuildingBlock: CIFDUS_clean_linker_0, # of connection points: 2
#     Edge 13, Type (0, 0), BuildingBlock: CIFDUS_clean_linker_0, # of connection points: 2
#     Edge 14, Type (0, 0), BuildingBlock: CIFDUS_clean_linker_0, # of connection points: 2
#     Edge 15, Type (0, 0), BuildingBlock: CIFDUS_clean_linker_0, # of connection points: 2
#     Edge 16, Type (0, 0), BuildingBlock: CIFDUS_clean_linker_0, # of connection points: 2
#     Edge 17, Type (0, 0), BuildingBlock: CIFDUS_clean_linker_0, # of connection points: 2
#     Edge 18, Type (0, 0), BuildingBlock: CIFDUS_clean_linker_0, # of connection points: 2
#     Edge 19, Type (0, 0), BuildingBlock: CIFDUS_clean_linker_0, # of connection points: 2
#     Edge 20, Type (0, 0), BuildingBlock: CIFDUS_clean_linker_0, # of connection points: 2
#     Edge 21, Type (0, 0), BuildingBlock: CIFDUS_clean_linker_0, # of connection points: 2
#     Edge 22, Type (0, 0), BuildingBlock: CIFDUS_clean_linker_0, # of connection points: 2
#     Edge 23, Type (0, 0), BuildingBlock: CIFDUS_clean_linker_0, # of connection points: 2
# Relax obj value: 0.037
# Max RMSD: 0.226
# Mean RMSD: 0.226
data_MOF--net-uoj--node1-ESEHIV_clean_sbu_0--edge1-CIFDUS_clean_linker_0
_symmetry_space_group_name_H-M    P1
_symmetry_Int_Tables_number       1
_symmetry_cell_setting            triclinic
loop_
_symmetry_equiv_pos_as_xyz
'x, y, z'
_cell_length_a     31.030915
_cell_length_b     30.973644
_cell_length_c     39.965885
_cell_angle_alpha  89.654062
_cell_angle_beta   89.665392
_cell_angle_gamma 89.736208
loop_
_atom_site_label
_atom_site_type_symbol
_atom_site_fract_x
_atom_site_fract_y
_atom_site_fract_z
_atom_type_partial_charge
Cu0 Cu 1.01757 0.30388 0.43153 0.0
N1 N 0.96479 0.27598 0.43798 0.0
N2 N 0.91329 0.23019 0.45451 0.0
C3 C 0.95599 0.2357 0.44908 0.0
C4 C 0.89464 0.26804 0.44591 0.0
C5 C 0.92639 0.29606 0.43567 0.0
O6 O 0.06307 0.2783 0.45875 0.0
C7 C 0.0366 0.39221 0.44702 0.0
O8 O 0.07738 0.38091 0.44486 0.0
H9 H 0.98045 0.21178 0.4548 0.0
H10 H 0.92204 0.32942 0.42823 0.0
N11 N 0.03343 0.30057 0.3864 0.0
N12 N 0.06124 0.31665 0.33601 0.0
C13 C 0.0557 0.32966 0.36803 0.0
C14 C 0.02463 0.26807 0.36541 0.0
C15 C 0.04166 0.27786 0.33437 0.0
C16 C 0.05747 0.26165 0.48767 0.0
O17 O 0.01903 0.26246 0.50157 0.0
H18 H 0.0671 0.35996 0.37786 0.0
H19 H 1.00714 0.23919 0.3723 0.0
O20 O 1.0076 0.36395 0.44277 0.0
H21 H 0.86054 0.27527 0.44766 0.0
H22 H 0.04032 0.25755 0.31247 0.0
Cu23 Cu 0.30266 1.01642 0.60809 0.0
N24 N 0.27346 0.06934 0.60539 0.0
N25 N 0.22724 0.12152 0.59049 0.0
C26 C 0.23334 0.07852 0.59444 0.0
C27 C 0.26447 0.13997 0.59995 0.0
C28 C 0.29275 0.10779 0.60921 0.0
O29 O 0.27934 0.97393 0.57743 0.0
C30 C 0.39182 0.9994 0.59533 0.0
O31 O 0.3813 0.95851 0.59833 0.0
H32 H 0.21018 0.05424 0.58737 0.0
H33 H 0.32597 0.11194 0.61655 0.0
N34 N 0.29827 0.99315 0.65125 0.0
N35 N 0.31582 0.96005 0.69919 0.0
C36 C 0.33041 0.98279 0.67249 0.0
C37 C 0.26225 0.97677 0.66513 0.0
C38 C 0.27297 0.95625 0.69465 0.0
C39 C 0.26141 0.98164 0.54943 0.0
O40 O 0.25913 0.02141 0.538 0.0
H41 H 0.36405 0.98955 0.66758 0.0
H42 H 0.23072 0.97799 0.65376 0.0
O43 O 0.3627 0.02818 0.59808 0.0
H44 H 0.27124 0.17421 0.5991 0.0
H45 H 0.25115 0.93893 0.7111 0.0
Cu46 Cu 1.0177 0.7362 0.43271 0.0
N47 N 0.06975 0.76633 0.43458 0.0
N48 N 0.12132 0.81323 0.44797 0.0
C49 C 0.07842 0.80613 0.44629 0.0
C50 C 0.14017 0.77697 0.43628 0.0
C51 C 0.10835 0.74827 0.42797 0.0
O52 O 0.97387 0.76054 0.46229 0.0
C53 C 1.00318 0.64809 0.45159 0.0
O54 O 0.96233 0.65909 0.45378 0.0
H55 H 0.05402 0.82841 0.45521 0.0
H56 H 0.11298 0.71565 0.41909 0.0
N57 N 0.99672 0.73722 0.38897 0.0
N58 N 0.9609 0.71853 0.34281 0.0
C59 C 0.96979 0.70853 0.37504 0.0
C60 C 1.00524 0.76643 0.36483 0.0
C61 C 0.98325 0.755 0.33633 0.0
C62 C 0.98081 0.77747 0.49071 0.0
O63 O 0.02007 0.778 0.50277 0.0
H64 H 0.95744 0.68057 0.38819 0.0
H65 H 0.02589 0.79417 0.36782 0.0
O66 O 0.03097 0.67665 0.44412 0.0
H67 H 0.17456 0.77115 0.4348 0.0
H68 H 0.98324 0.77263 0.31288 0.0
Cu69 Cu 0.73442 1.01883 0.61443 0.0
N70 N 0.76523 0.96687 0.6117 0.0
N71 N 0.81232 0.91571 0.59642 0.0
C72 C 0.80484 0.95861 0.59904 0.0
C73 C 0.77653 0.89641 0.60844 0.0
C74 C 0.74771 0.92797 0.61791 0.0
O75 O 0.75889 0.0636 0.58581 0.0
C76 C 0.64689 0.03373 0.59504 0.0
O77 O 0.65747 0.07473 0.59354 0.0
H78 H 0.82662 0.98334 0.59003 0.0
H79 H 0.71528 0.92301 0.62719 0.0
N80 N 0.7341 0.03893 0.65845 0.0
N81 N 0.71375 0.07396 0.70486 0.0
C82 C 0.70372 0.06394 0.67295 0.0
C83 C 0.76445 0.0328 0.68188 0.0
C84 C 0.752 0.05429 0.71053 0.0
C85 C 0.77551 0.05786 0.55697 0.0
O86 O 0.77565 1.01919 0.54369 0.0
H87 H 0.67473 0.07435 0.66032 0.0
H88 H 0.7938 1.01441 0.67822 0.0
O89 O 0.67546 1.00577 0.6024 0.0
H90 H 0.77108 0.86192 0.60929 0.0
H91 H 0.77029 0.056 0.73345 0.0
Cu92 Cu 0.48384 0.811 0.92986 0.0
N93 N 0.53735 0.78405 0.93586 0.0
N94 N 0.58954 0.74543 0.96059 0.0
C95 C 0.55035 0.76416 0.9641 0.0
C96 C 0.60176 0.75434 0.92878 0.0
C97 C 0.56945 0.7781 0.91359 0.0
O98 O 0.44322 0.78446 0.9609 0.0
C99 C 0.51646 0.89012 0.95597 0.0
O100 O 0.54621 0.866 0.97011 0.0
H101 H 0.53109 0.7634 0.98674 0.0
H102 H 0.56896 0.78943 0.88794 0.0
N103 N 0.46442 0.80405 0.88601 0.0
N104 N 0.43116 0.81717 0.83751 0.0
C105 C 0.44404 0.8338 0.86694 0.0
C106 C 0.46483 0.76762 0.86784 0.0
C107 C 0.44407 0.77553 0.838 0.0
C108 C 0.43946 0.74354 0.96169 0.0
O109 O 0.46228 0.72023 0.94066 0.0
H110 H 0.43731 0.86646 0.87502 0.0
H111 H 0.47853 0.73719 0.87598 0.0
O112 O 0.48736 0.87245 0.9385 0.0
H113 H 0.63124 0.74335 0.91693 0.0
H114 H 0.43853 0.7524 0.8183 0.0
Cu115 Cu 0.8034 0.5516 0.10788 0.0
N116 N 0.76698 0.50394 0.1064 0.0
N117 N 0.72395 0.45353 0.08509 0.0
C118 C 0.74539 0.49069 0.07927 0.0
C119 C 0.73255 0.44298 0.11721 0.0
C120 C 0.75915 0.47418 0.13029 0.0
O121 O 0.78146 0.59453 0.07644 0.0
C122 C 0.89228 0.55472 0.08884 0.0
O123 O 0.88671 0.59674 0.08688 0.0
H124 H 0.74651 0.50741 0.05542 0.0
H125 H 0.7724 0.4748 0.15526 0.0
N126 N 0.8051 0.57463 0.15106 0.0
N127 N 0.82944 0.60766 0.1969 0.0
C128 C 0.83857 0.59493 0.16532 0.0
C129 C 0.77366 0.5744 0.17437 0.0
C130 C 0.78855 0.59469 0.20265 0.0
C131 C 0.74208 0.60569 0.07959 0.0
O132 O 0.71947 0.58919 0.10441 0.0
H133 H 0.86923 0.59972 0.15291 0.0
H134 H 0.74207 0.56052 0.17099 0.0
O135 O 0.86043 0.53079 0.09622 0.0
H136 H 0.72048 0.41482 0.13033 0.0
H137 H 0.77036 0.60004 0.22545 0.0
Cu138 Cu 0.54569 0.2243 0.9434 0.0
N139 N 0.49336 0.25381 0.94792 0.0
N140 N 0.44214 0.29503 0.97135 0.0
C141 C 0.48105 0.27594 0.97524 0.0
C142 C 0.42934 0.28404 0.9403 0.0
C143 C 0.46106 0.25863 0.92589 0.0
O144 O 0.58706 0.25223 0.97231 0.0
C145 C 0.56836 0.1416 0.96768 0.0
O146 O 0.606 0.15956 0.97281 0.0
H147 H 0.50046 0.27784 0.99758 0.0
H148 H 0.46085 0.24509 0.90101 0.0
N149 N 0.5657 0.22466 0.8992 0.0
N150 N 0.59867 0.20208 0.85241 0.0
C151 C 0.58909 0.19305 0.88474 0.0
C152 C 0.56015 0.25487 0.87529 0.0
C153 C 0.58041 0.24104 0.84638 0.0
C154 C 0.59334 0.29263 0.96919 0.0
O155 O 0.5731 0.31386 0.9454 0.0
H156 H 0.5983 0.16368 0.89767 0.0
H157 H 0.54264 0.28482 0.87866 0.0
O158 O 0.53763 0.16456 0.95629 0.0
H159 H 0.39974 0.29445 0.92848 0.0
H160 H 0.58201 0.25866 0.82295 0.0
Cu161 Cu 0.22982 0.49408 0.11613 0.0
N162 N 0.26464 0.54262 0.11078 0.0
N163 N 0.30675 0.59196 0.08617 0.0
C164 C 0.28653 0.55371 0.08288 0.0
C165 C 0.29701 0.60548 0.11738 0.0
C166 C 0.27099 0.57495 0.13249 0.0
O167 O 0.25195 0.44934 0.0865 0.0
C168 C 0.14051 0.4875 0.09897 0.0
O169 O 0.14633 0.44548 0.1002 0.0
H170 H 0.28667 0.53453 0.06034 0.0
H171 H 0.25723 0.57642 0.15739 0.0
N172 N 0.23105 0.4752 0.16072 0.0
N173 N 0.21143 0.44823 0.21065 0.0
C174 C 0.19916 0.45671 0.17882 0.0
C175 C 0.26455 0.47843 0.18173 0.0
C176 C 0.25263 0.46187 0.21244 0.0
C177 C 0.29181 0.43971 0.0885 0.0
O178 O 0.3152 0.45883 0.11131 0.0
H179 H 0.16741 0.45037 0.169 0.0
H180 H 0.29551 0.49207 0.17516 0.0
O181 O 0.17206 0.51238 0.10458 0.0
H182 H 0.30803 0.63515 0.12857 0.0
H183 H 0.27299 0.45965 0.23428 0.0
H184 H 0.14469 0.3929 0.20456 0.0
H185 H 0.22133 0.45991 0.2773 0.0
H186 H 0.18121 0.42543 0.32265 0.0
H187 H 0.12541 0.37493 0.3419 0.0
H188 H 0.04786 0.30871 0.26931 0.0
H189 H 0.08713 0.34414 0.22389 0.0
C190 C 0.15232 0.40035 0.2303 0.0
C191 C 0.18628 0.42887 0.23734 0.0
C192 C 0.12902 0.38034 0.25642 0.0
C193 C 0.19594 0.43762 0.27099 0.0
C194 C 0.1728 0.41806 0.29703 0.0
C195 C 0.1167 0.36858 0.3162 0.0
C196 C 0.08371 0.33893 0.30922 0.0
C197 C 0.13944 0.38915 0.29008 0.0
C198 C 0.07345 0.33078 0.27558 0.0
C199 C 0.09578 0.35126 0.2495 0.0
H200 H 0.30453 0.88097 0.72552 0.0
H201 H 0.38442 0.99396 0.73079 0.0
H202 H 0.42704 0.96018 0.77549 0.0
H203 H 0.44148 0.89779 0.81311 0.0
H204 H 0.36408 0.78336 0.8046 0.0
H205 H 0.3204 0.81815 0.76131 0.0
C206 C 0.33109 0.89823 0.73667 0.0
C207 C 0.34111 0.94003 0.7252 0.0
C208 C 0.35586 0.87823 0.76173 0.0
C209 C 0.37621 0.96174 0.73926 0.0
C210 C 0.40044 0.94247 0.76483 0.0
C211 C 0.41491 0.88074 0.80177 0.0
C212 C 0.40582 0.83818 0.81202 0.0
C213 C 0.39055 0.90069 0.7763 0.0
C214 C 0.37176 0.81602 0.7969 0.0
C215 C 0.34674 0.83595 0.77226 0.0
H216 H 0.965 0.71789 0.27519 0.0
H217 H 0.89384 0.66654 0.35943 0.0
H218 H 0.84707 0.62715 0.32161 0.0
H219 H 0.82608 0.6073 0.26456 0.0
H220 H 0.89612 0.66011 0.18029 0.0
H221 H 0.94345 0.69877 0.21814 0.0
C222 C 0.93906 0.69844 0.28533 0.0
C223 C 0.93316 0.69533 0.32024 0.0
C224 C 0.91203 0.67595 0.26338 0.0
C225 C 0.89967 0.66923 0.33279 0.0
C226 C 0.87266 0.64683 0.31112 0.0
C227 C 0.8514 0.62754 0.2544 0.0
C228 C 0.85736 0.6306 0.21949 0.0
C229 C 0.87849 0.64996 0.27636 0.0
C230 C 0.89097 0.65654 0.20696 0.0
C231 C 0.91798 0.67895 0.22863 0.0
H232 H 0.59462 0.20271 0.78472 0.0
H233 H 0.65869 0.14136 0.86807 0.0
H234 H 0.69947 0.09578 0.82972 0.0
H235 H 0.71706 0.07301 0.77253 0.0
H236 H 0.65485 0.13591 0.689 0.0
H237 H 0.61338 0.18093 0.72736 0.0
C238 C 0.61777 0.17971 0.79455 0.0
C239 C 0.62327 0.1756 0.82941 0.0
C240 C 0.64147 0.15362 0.77226 0.0
C241 C 0.65311 0.14498 0.84151 0.0
C242 C 0.67674 0.11897 0.81953 0.0
C243 C 0.69479 0.0968 0.76261 0.0
C244 C 0.68926 0.10076 0.72774 0.0
C245 C 0.67118 0.12297 0.78485 0.0
C246 C 0.65954 0.13147 0.7156 0.0
C247 C 0.63591 0.15755 0.73757 0.0
H248 H 0.23115 0.18744 0.54675 0.0
H249 H 0.14275 0.10321 0.5985 0.0
H250 H 0.08158 0.14038 0.5721 0.0
H251 H 0.05361 0.19695 0.534 0.0
H252 H 0.14308 0.2778 0.4797 0.0
H253 H 0.20357 0.24215 0.50756 0.0
C254 C 0.19845 0.17753 0.55245 0.0
C255 C 0.1913 0.14303 0.57482 0.0
C256 C 0.16376 0.19848 0.53671 0.0
C257 C 0.14888 0.12971 0.58136 0.0
C258 C 0.11403 0.15103 0.56635 0.0
C259 C 0.08636 0.20689 0.52844 0.0
C260 C 0.09386 0.24021 0.50501 0.0
C261 C 0.12108 0.1855 0.54398 0.0
C262 C 0.13647 0.25226 0.49763 0.0
C263 C 0.17106 0.23192 0.51356 0.0
H264 H 0.19325 0.98624 0.50689 0.0
H265 H 0.28373 0.89671 0.55105 0.0
H266 H 0.24907 0.83678 0.52246 0.0
H267 H 0.19195 0.80949 0.48626 0.0
H268 H 0.09832 0.89746 0.44474 0.0
H269 H 0.13492 0.95842 0.47114 0.0
C270 C 0.20556 0.95364 0.50997 0.0
C271 C 0.24121 0.94593 0.53085 0.0
C272 C 0.1847 0.91911 0.49414 0.0
C273 C 0.25636 0.90345 0.53511 0.0
C274 C 0.23656 0.86918 0.51878 0.0
C275 C 0.17987 0.84208 0.4827 0.0
C276 C 0.1428 0.84913 0.46331 0.0
C277 C 0.20059 0.87659 0.49842 0.0
C278 C 0.12679 0.89136 0.4596 0.0
C279 C 0.14779 0.92612 0.4746 0.0
H280 H 0.80844 0.84732 0.55574 0.0
H281 H 0.89638 0.93763 0.59968 0.0
H282 H 0.95729 0.90146 0.57192 0.0
H283 H 0.98513 0.84416 0.53464 0.0
H284 H 0.89574 0.75724 0.48797 0.0
H285 H 0.83573 0.79171 0.5175 0.0
C286 C 0.84101 0.85878 0.55945 0.0
C287 C 0.8481 0.89473 0.57999 0.0
C288 C 0.8755 0.83837 0.54292 0.0
C289 C 0.89028 0.91001 0.58396 0.0
C290 C 0.92501 0.88926 0.56818 0.0
C291 C 0.95252 0.83263 0.53116 0.0
C292 C 0.94488 0.79798 0.50936 0.0
C293 C 0.91799 0.85338 0.54758 0.0
C294 C 0.90242 0.78383 0.50461 0.0
C295 C 0.86811 0.80351 0.52149 0.0
H296 H 0.83995 0.05481 0.51038 0.0
H297 H 0.75774 0.1433 0.56438 0.0
H298 H 0.79263 0.20445 0.5367 0.0
H299 H 0.84729 0.23293 0.49809 0.0
H300 H 0.93255 0.14564 0.44619 0.0
H301 H 0.8961 0.08376 0.47231 0.0
C302 C 0.82951 0.08749 0.51586 0.0
C303 C 0.7961 0.09452 0.53923 0.0
C304 C 0.85046 0.12263 0.5004 0.0
C305 C 0.78337 0.13704 0.54651 0.0
C306 C 0.8033 0.17202 0.53069 0.0
C307 C 0.85759 0.20033 0.49226 0.0
C308 C 0.89223 0.19376 0.46999 0.0
C309 C 0.83694 0.16521 0.50772 0.0
C310 C 0.906 0.15141 0.4633 0.0
C311 C 0.88506 0.11611 0.47813 0.0
H312 H 0.31814 0.678 0.07908 0.0
H313 H 0.35409 0.55494 0.03705 0.0
H314 H 0.39748 0.59119 0.99438 0.0
H315 H 0.42582 0.65755 0.9693 0.0
H316 H 0.39066 0.78104 1.01113 0.0
H317 H 0.34657 0.74489 0.05369 0.0
C318 C 0.33575 0.65913 0.06076 0.0
C319 C 0.33276 0.61376 0.0613 0.0
C320 C 0.36075 0.68025 0.03623 0.0
C321 C 0.35532 0.58985 0.03701 0.0
C322 C 0.38034 0.61057 1.01267 0.0
C323 C 0.40847 0.67667 0.98765 0.0
C324 C 0.4116 0.72199 0.98697 0.0
C325 C 0.38327 0.65572 1.01203 0.0
C326 C 0.38882 0.74613 1.011 0.0
C327 C 0.36364 0.72547 0.0354 0.0
H328 H 0.65735 0.62651 0.07673 0.0
H329 H 0.77872 0.64949 0.02662 0.0
H330 H 0.74223 0.6954 0.98534 0.0
H331 H 0.67542 0.72861 0.96339 0.0
H332 H 0.5544 0.70244 1.01329 0.0
H333 H 0.59138 0.65871 0.05486 0.0
C334 C 0.67601 0.64164 0.05689 0.0
C335 C 0.72078 0.63457 0.05487 0.0
C336 C 0.65484 0.6676 0.03318 0.0
C337 C 0.74423 0.65436 0.02882 0.0
C338 C 0.72336 0.68061 1.00518 0.0
C339 C 0.65707 0.71315 0.98319 0.0
C340 C 0.61204 0.71934 0.98511 0.0
C341 C 0.67858 0.68731 1.00703 0.0
C342 C 0.58903 0.69922 1.01132 0.0
C343 C 0.61016 0.67381 0.03508 0.0
H344 H 0.71072 0.36736 0.08389 0.0
H345 H 0.67934 0.48646 0.03288 0.0
H346 H 0.63721 0.44692 0.99199 0.0
H347 H 0.60873 0.37881 0.9709 0.0
H348 H 0.63912 0.25934 1.02189 0.0
H349 H 0.68198 0.29876 0.06266 0.0
C350 C 0.69435 0.38468 0.06401 0.0
C351 C 0.69831 0.42986 0.06148 0.0
C352 C 0.67006 0.36167 0.04051 0.0
C353 C 0.67736 0.4517 0.03521 0.0
C354 C 0.65306 0.42911 1.01188 0.0
C355 C 0.62482 0.36127 0.99084 0.0
C356 C 0.62069 0.31614 0.99326 0.0
C357 C 0.64925 0.38412 1.01424 0.0
C358 C 0.64175 0.29407 1.01936 0.0
C359 C 0.66623 0.3166 0.04274 0.0
H360 H 0.35621 0.31078 0.97602 0.0
H361 H 0.47863 0.34255 1.02016 0.0
H362 H 0.44254 0.38854 0.06072 0.0
H363 H 0.37685 0.4207 0.08344 0.0
H364 H 0.25393 0.39165 0.03916 0.0
H365 H 0.28963 0.344 0.99878 0.0
C366 C 0.37502 0.32798 0.99434 0.0
C367 C 0.42019 0.32273 0.99502 0.0
C368 C 0.35399 0.35494 1.01763 0.0
C369 C 0.44388 0.34509 1.01928 0.0
C370 C 0.42327 0.37174 0.04244 0.0
C371 C 0.35769 0.40388 0.06508 0.0
C372 C 0.3127 0.40974 0.06444 0.0
C373 C 0.3784 0.37688 0.04187 0.0
C374 C 0.28859 0.38774 0.04028 0.0
C375 C 0.30902 0.3605 1.01715 0.0
H376 H 0.95175 0.57737 0.45824 0.0
H377 H 0.08515 0.61544 0.4509 0.0
H378 H 0.10744 0.53982 0.45067 0.0
H379 H 0.08898 0.46272 0.44934 0.0
H380 H 0.95542 0.42486 0.45548 0.0
H381 H 0.93352 0.50033 0.45953 0.0
C382 C 0.98573 0.56918 0.45692 0.0
C383 C 1.01663 0.60216 0.45444 0.0
C384 C 0.9984 0.52553 0.45639 0.0
C385 C 0.06056 0.59081 0.4527 0.0
C386 C 0.0734 0.5475 0.45252 0.0
C387 C 0.05511 0.47092 0.45185 0.0
C388 C 0.02396 0.43804 0.45192 0.0
C389 C 0.04258 0.51456 0.45385 0.0
C390 C 0.98017 0.4494 0.45518 0.0
C391 C 0.96754 0.49264 0.4575 0.0
H392 H 0.57596 0.08521 0.58772 0.0
H393 H 0.61525 0.95158 0.5948 0.0
H394 H 0.54007 0.92906 0.5938 0.0
H395 H 0.46294 0.94731 0.59402 0.0
H396 H 0.42364 0.08102 0.58794 0.0
H397 H 0.49886 0.10327 0.5853 0.0
C398 C 0.56814 0.05114 0.58873 0.0
C399 C 0.60132 0.02023 0.5915 0.0
C400 C 0.52471 0.03833 0.58851 0.0
C401 C 0.59045 0.97618 0.5928 0.0
C402 C 0.5474 0.9632 0.59228 0.0
C403 C 0.47078 0.9813 0.59186 0.0
C404 C 0.43756 1.01238 0.59137 0.0
C405 C 0.51422 0.99401 0.59063 0.0
C406 C 0.44845 0.05631 0.58852 0.0
C407 C 0.49153 0.06914 0.58703 0.0
H408 H 0.50009 0.093 0.94868 0.0
H409 H 0.62525 0.08379 0.99484 0.0
H410 H 0.61924 1.00522 0.99692 0.0
H411 H 0.58013 0.93896 0.98291 0.0
H412 H 0.45608 0.94848 0.93495 0.0
H413 H 0.46 0.02707 0.93644 0.0
C414 C 0.52591 0.07389 0.95951 0.0
C415 C 0.56311 0.09432 0.97151 0.0
C416 C 0.52257 0.0287 0.96014 0.0
C417 C 0.59629 0.06894 0.98533 0.0
C418 C 0.59292 0.02397 0.98649 0.0
C419 C 0.55379 0.9582 0.973 0.0
C420 C 0.51796 0.93777 0.95873 0.0
C421 C 0.55647 1.00347 0.97353 0.0
C422 C 0.48417 0.96328 0.94595 0.0
C423 C 0.48635 1.00827 0.94679 0.0
H424 H 0.0641 0.44496 0.09316 0.0
H425 H 0.11932 0.57267 0.09196 0.0
H426 H 0.04778 0.60456 0.08634 0.0
H427 H 0.96917 0.59665 0.08505 0.0
H428 H 0.91368 0.46911 0.08756 0.0
H429 H 0.98553 0.43693 0.08907 0.0
C430 C 0.06054 0.47974 0.0914 0.0
C431 C 0.09711 0.50629 0.0932 0.0
C432 C 0.01915 0.49804 0.08848 0.0
C433 C 0.09179 0.55136 0.09084 0.0
C434 C 0.05083 0.56972 0.08762 0.0
C435 C 0.97276 0.56181 0.08555 0.0
C436 C 0.936 0.53543 0.08636 0.0
C437 C 1.01423 0.54343 0.08689 0.0
C438 C 0.94136 0.49028 0.08708 0.0
C439 C 0.98249 0.47178 0.08799 0.0
loop_
_geom_bond_atom_site_label_1
_geom_bond_atom_site_label_2
_geom_bond_distance
_geom_bond_site_symmetry_2
_ccdc_geom_bond_type
Cu0 N1 1.999 1_455 S
Cu0 O6 1.974 . S
Cu0 N11 1.985 . S
Cu0 O20 1.959 . S
N1 Cu0 1.999 1_655 S
N1 C3 1.263 . S
N1 C5 1.389 . S
N2 C3 1.358 . S
N2 C4 1.400 . S
C3 N1 1.263 . S
C3 N2 1.358 . S
C3 H9 0.930 1_655 S
C4 N2 1.400 . S
C4 C5 1.351 . S
C4 H21 0.930 . S
C5 N1 1.389 . S
C5 C4 1.351 . S
C5 H10 0.930 . S
O6 Cu0 1.974 . S
O6 C16 1.282 . S
C7 O8 1.261 . S
C7 O20 1.251 . S
O8 C7 1.261 . S
H9 C3 0.930 1_455 S
H10 C5 0.930 . S
N11 Cu0 1.985 . S
N11 C13 1.335 . S
N11 C14 1.390 . S
N12 C13 1.345 . S
N12 C15 1.336 . S
C13 N11 1.335 . S
C13 N12 1.345 . S
C13 H18 0.930 . S
C14 N11 1.390 . S
C14 C15 1.346 . S
C14 H19 0.930 . S
C15 N12 1.336 . S
C15 C14 1.346 . S
C15 H22 0.929 . S
C16 O6 1.282 . S
C16 O17 1.216 . S
O17 C16 1.216 . S
H18 C13 0.930 . S
H19 C14 0.930 . S
O20 Cu0 1.959 . S
O20 C7 1.251 . S
H21 C4 0.930 . S
H22 C15 0.929 . S
Cu23 N24 1.999 1_565 S
Cu23 O29 1.974 . S
Cu23 N34 1.985 . S
Cu23 O43 1.959 . S
N24 Cu23 1.999 1_545 S
N24 C26 1.263 . S
N24 C28 1.389 . S
N25 C26 1.358 . S
N25 C27 1.400 . S
C26 N24 1.263 . S
C26 N25 1.358 . S
C26 H32 0.930 1_545 S
C27 N25 1.400 . S
C27 C28 1.351 . S
C27 H44 0.930 . S
C28 N24 1.389 . S
C28 C27 1.351 . S
C28 H33 0.930 . S
O29 Cu23 1.974 . S
O29 C39 1.282 . S
C30 O31 1.261 . S
C30 O43 1.251 . S
O31 C30 1.261 . S
H32 C26 0.930 1_565 S
H33 C28 0.930 . S
N34 Cu23 1.985 . S
N34 C36 1.335 . S
N34 C37 1.390 . S
N35 C36 1.345 . S
N35 C38 1.336 . S
C36 N34 1.335 . S
C36 N35 1.345 . S
C36 H41 0.930 . S
C37 N34 1.390 . S
C37 C38 1.346 . S
C37 H42 0.930 . S
C38 N35 1.336 . S
C38 C37 1.346 . S
C38 H45 0.929 . S
C39 O29 1.282 . S
C39 O40 1.216 . S
O40 C39 1.216 . S
H41 C36 0.930 . S
H42 C37 0.930 . S
O43 Cu23 1.959 . S
O43 C30 1.251 . S
H44 C27 0.930 . S
H45 C38 0.929 . S
Cu46 N47 1.999 1_655 S
Cu46 O52 1.974 . S
Cu46 N57 1.985 . S
Cu46 O66 1.959 . S
N47 Cu46 1.999 1_455 S
N47 C49 1.263 . S
N47 C51 1.389 . S
N48 C49 1.358 . S
N48 C50 1.400 . S
C49 N47 1.263 . S
C49 N48 1.358 . S
C49 H55 0.930 1_455 S
C50 N48 1.400 . S
C50 C51 1.351 . S
C50 H67 0.930 . S
C51 N47 1.389 . S
C51 C50 1.351 . S
C51 H56 0.930 . S
O52 Cu46 1.974 . S
O52 C62 1.282 . S
C53 O54 1.261 . S
C53 O66 1.251 . S
O54 C53 1.261 . S
H55 C49 0.930 1_655 S
H56 C51 0.930 . S
N57 Cu46 1.985 . S
N57 C59 1.335 . S
N57 C60 1.390 . S
N58 C59 1.345 . S
N58 C61 1.336 . S
C59 N57 1.335 . S
C59 N58 1.345 . S
C59 H64 0.930 . S
C60 N57 1.390 . S
C60 C61 1.346 . S
C60 H65 0.930 . S
C61 N58 1.336 . S
C61 C60 1.346 . S
C61 H68 0.929 . S
C62 O52 1.282 . S
C62 O63 1.216 . S
O63 C62 1.216 . S
H64 C59 0.930 . S
H65 C60 0.930 . S
O66 Cu46 1.959 . S
O66 C53 1.251 . S
H67 C50 0.930 . S
H68 C61 0.929 . S
Cu69 N70 1.999 1_545 S
Cu69 O75 1.974 . S
Cu69 N80 1.985 . S
Cu69 O89 1.959 . S
N70 Cu69 1.999 1_565 S
N70 C72 1.263 . S
N70 C74 1.389 . S
N71 C72 1.358 . S
N71 C73 1.400 . S
C72 N70 1.263 . S
C72 N71 1.358 . S
C72 H78 0.930 1_565 S
C73 N71 1.400 . S
C73 C74 1.351 . S
C73 H90 0.930 . S
C74 N70 1.389 . S
C74 C73 1.351 . S
C74 H79 0.930 . S
O75 Cu69 1.974 . S
O75 C85 1.282 . S
C76 O77 1.261 . S
C76 O89 1.251 . S
O77 C76 1.261 . S
H78 C72 0.930 1_545 S
H79 C74 0.930 . S
N80 Cu69 1.985 . S
N80 C82 1.335 . S
N80 C83 1.390 . S
N81 C82 1.345 . S
N81 C84 1.336 . S
C82 N80 1.335 . S
C82 N81 1.345 . S
C82 H87 0.930 . S
C83 N80 1.390 . S
C83 C84 1.346 . S
C83 H88 0.930 . S
C84 N81 1.336 . S
C84 C83 1.346 . S
C84 H91 0.929 . S
C85 O75 1.282 . S
C85 O86 1.216 . S
O86 C85 1.216 . S
H87 C82 0.930 . S
H88 C83 0.930 . S
O89 Cu69 1.959 . S
O89 C76 1.251 . S
H90 C73 0.930 . S
H91 C84 0.929 . S
Cu92 N93 1.999 . S
Cu92 O98 1.974 . S
Cu92 N103 1.985 . S
Cu92 O112 1.959 . S
N93 Cu92 1.999 . S
N93 C95 1.263 . S
N93 C97 1.389 . S
N94 C95 1.358 . S
N94 C96 1.400 . S
C95 N93 1.263 . S
C95 N94 1.358 . S
C95 H101 0.930 . S
C96 N94 1.400 . S
C96 C97 1.351 . S
C96 H113 0.930 . S
C97 N93 1.389 . S
C97 C96 1.351 . S
C97 H102 0.930 . S
O98 Cu92 1.974 . S
O98 C108 1.282 . S
C99 O100 1.261 . S
C99 O112 1.251 . S
O100 C99 1.261 . S
H101 C95 0.930 . S
H102 C97 0.930 . S
N103 Cu92 1.985 . S
N103 C105 1.335 . S
N103 C106 1.390 . S
N104 C105 1.345 . S
N104 C107 1.336 . S
C105 N103 1.335 . S
C105 N104 1.345 . S
C105 H110 0.930 . S
C106 N103 1.390 . S
C106 C107 1.346 . S
C106 H111 0.930 . S
C107 N104 1.336 . S
C107 C106 1.346 . S
C107 H114 0.929 . S
C108 O98 1.282 . S
C108 O109 1.216 . S
O109 C108 1.216 . S
H110 C105 0.930 . S
H111 C106 0.930 . S
O112 Cu92 1.959 . S
O112 C99 1.251 . S
H113 C96 0.930 . S
H114 C107 0.929 . S
Cu115 N116 1.999 . S
Cu115 O121 1.974 . S
Cu115 N126 1.985 . S
Cu115 O135 1.959 . S
N116 Cu115 1.999 . S
N116 C118 1.263 . S
N116 C120 1.389 . S
N117 C118 1.358 . S
N117 C119 1.400 . S
C118 N116 1.263 . S
C118 N117 1.358 . S
C118 H124 0.930 . S
C119 N117 1.400 . S
C119 C120 1.351 . S
C119 H136 0.930 . S
C120 N116 1.389 . S
C120 C119 1.351 . S
C120 H125 0.930 . S
O121 Cu115 1.974 . S
O121 C131 1.282 . S
C122 O123 1.261 . S
C122 O135 1.251 . S
O123 C122 1.261 . S
H124 C118 0.930 . S
H125 C120 0.930 . S
N126 Cu115 1.985 . S
N126 C128 1.335 . S
N126 C129 1.390 . S
N127 C128 1.345 . S
N127 C130 1.336 . S
C128 N126 1.335 . S
C128 N127 1.345 . S
C128 H133 0.930 . S
C129 N126 1.390 . S
C129 C130 1.346 . S
C129 H134 0.930 . S
C130 N127 1.336 . S
C130 C129 1.346 . S
C130 H137 0.929 . S
C131 O121 1.282 . S
C131 O132 1.216 . S
O132 C131 1.216 . S
H133 C128 0.930 . S
H134 C129 0.930 . S
O135 Cu115 1.959 . S
O135 C122 1.251 . S
H136 C119 0.930 . S
H137 C130 0.929 . S
Cu138 N139 1.999 . S
Cu138 O144 1.974 . S
Cu138 N149 1.985 . S
Cu138 O158 1.959 . S
N139 Cu138 1.999 . S
N139 C141 1.263 . S
N139 C143 1.389 . S
N140 C141 1.358 . S
N140 C142 1.400 . S
C141 N139 1.263 . S
C141 N140 1.358 . S
C141 H147 0.930 . S
C142 N140 1.400 . S
C142 C143 1.351 . S
C142 H159 0.930 . S
C143 N139 1.389 . S
C143 C142 1.351 . S
C143 H148 0.930 . S
O144 Cu138 1.974 . S
O144 C154 1.282 . S
C145 O146 1.261 . S
C145 O158 1.251 . S
O146 C145 1.261 . S
H147 C141 0.930 . S
H148 C143 0.930 . S
N149 Cu138 1.985 . S
N149 C151 1.335 . S
N149 C152 1.390 . S
N150 C151 1.345 . S
N150 C153 1.336 . S
C151 N149 1.335 . S
C151 N150 1.345 . S
C151 H156 0.930 . S
C152 N149 1.390 . S
C152 C153 1.346 . S
C152 H157 0.930 . S
C153 N150 1.336 . S
C153 C152 1.346 . S
C153 H160 0.929 . S
C154 O144 1.282 . S
C154 O155 1.216 . S
O155 C154 1.216 . S
H156 C151 0.930 . S
H157 C152 0.930 . S
O158 Cu138 1.959 . S
O158 C145 1.251 . S
H159 C142 0.930 . S
H160 C153 0.929 . S
Cu161 N162 1.999 . S
Cu161 O167 1.974 . S
Cu161 N172 1.985 . S
Cu161 O181 1.959 . S
N162 Cu161 1.999 . S
N162 C164 1.263 . S
N162 C166 1.389 . S
N163 C164 1.358 . S
N163 C165 1.400 . S
C164 N162 1.263 . S
C164 N163 1.358 . S
C164 H170 0.930 . S
C165 N163 1.400 . S
C165 C166 1.351 . S
C165 H182 0.930 . S
C166 N162 1.389 . S
C166 C165 1.351 . S
C166 H171 0.930 . S
O167 Cu161 1.974 . S
O167 C177 1.282 . S
C168 O169 1.261 . S
C168 O181 1.251 . S
O169 C168 1.261 . S
H170 C164 0.930 . S
H171 C166 0.930 . S
N172 Cu161 1.985 . S
N172 C174 1.335 . S
N172 C175 1.390 . S
N173 C174 1.345 . S
N173 C176 1.336 . S
C174 N172 1.335 . S
C174 N173 1.345 . S
C174 H179 0.930 . S
C175 N172 1.390 . S
C175 C176 1.346 . S
C175 H180 0.930 . S
C176 N173 1.336 . S
C176 C175 1.346 . S
C176 H183 0.929 . S
C177 O167 1.282 . S
C177 O178 1.216 . S
O178 C177 1.216 . S
H179 C174 0.930 . S
H180 C175 0.930 . S
O181 Cu161 1.959 . S
O181 C168 1.251 . S
H182 C165 0.930 . S
H183 C176 0.929 . S
H184 C190 0.930 . S
H185 C193 0.930 . S
H186 C194 0.930 . S
H187 C195 0.930 . S
H188 C198 0.930 . S
H189 C199 0.930 . S
C190 H184 0.930 . S
C190 C191 1.355 . S
C190 C192 1.415 . S
C191 C190 1.355 . S
C191 C193 1.419 . S
C192 C190 1.415 . S
C192 C197 1.425 . S
C192 C199 1.409 . S
C193 H185 0.930 . S
C193 C191 1.419 . S
C193 C194 1.362 . S
C194 H186 0.930 . S
C194 C193 1.362 . S
C194 C197 1.409 . S
C195 H187 0.930 . S
C195 C196 1.355 . S
C195 C197 1.415 . S
C196 C195 1.355 . S
C196 C198 1.419 . S
C197 C192 1.425 . S
C197 C194 1.409 . S
C197 C195 1.415 . S
C198 H188 0.930 . S
C198 C196 1.419 . S
C198 C199 1.362 . S
C199 H189 0.930 . S
C199 C192 1.409 . S
C199 C198 1.362 . S
H200 C206 0.930 . S
H201 C209 0.930 . S
H202 C210 0.930 . S
H203 C211 0.930 . S
H204 C214 0.930 . S
H205 C215 0.930 . S
C206 H200 0.930 . S
C206 C207 1.355 . S
C206 C208 1.415 . S
C207 C206 1.355 . S
C207 C209 1.419 . S
C208 C206 1.415 . S
C208 C213 1.425 . S
C208 C215 1.409 . S
C209 H201 0.930 . S
C209 C207 1.419 . S
C209 C210 1.362 . S
C210 H202 0.930 . S
C210 C209 1.362 . S
C210 C213 1.409 . S
C211 H203 0.930 . S
C211 C212 1.355 . S
C211 C213 1.415 . S
C212 C211 1.355 . S
C212 C214 1.419 . S
C213 C208 1.425 . S
C213 C210 1.409 . S
C213 C211 1.415 . S
C214 H204 0.930 . S
C214 C212 1.419 . S
C214 C215 1.362 . S
C215 H205 0.930 . S
C215 C208 1.409 . S
C215 C214 1.362 . S
H216 C222 0.930 . S
H217 C225 0.930 . S
H218 C226 0.930 . S
H219 C227 0.930 . S
H220 C230 0.930 . S
H221 C231 0.930 . S
C222 H216 0.930 . S
C222 C223 1.355 . S
C222 C224 1.415 . S
C223 C222 1.355 . S
C223 C225 1.419 . S
C224 C222 1.415 . S
C224 C229 1.425 . S
C224 C231 1.409 . S
C225 H217 0.930 . S
C225 C223 1.419 . S
C225 C226 1.362 . S
C226 H218 0.930 . S
C226 C225 1.362 . S
C226 C229 1.409 . S
C227 H219 0.930 . S
C227 C228 1.355 . S
C227 C229 1.415 . S
C228 C227 1.355 . S
C228 C230 1.419 . S
C229 C224 1.425 . S
C229 C226 1.409 . S
C229 C227 1.415 . S
C230 H220 0.930 . S
C230 C228 1.419 . S
C230 C231 1.362 . S
C231 H221 0.930 . S
C231 C224 1.409 . S
C231 C230 1.362 . S
H232 C238 0.930 . S
H233 C241 0.930 . S
H234 C242 0.930 . S
H235 C243 0.930 . S
H236 C246 0.930 . S
H237 C247 0.930 . S
C238 H232 0.930 . S
C238 C239 1.355 . S
C238 C240 1.415 . S
C239 C238 1.355 . S
C239 C241 1.419 . S
C240 C238 1.415 . S
C240 C245 1.425 . S
C240 C247 1.409 . S
C241 H233 0.930 . S
C241 C239 1.419 . S
C241 C242 1.362 . S
C242 H234 0.930 . S
C242 C241 1.362 . S
C242 C245 1.409 . S
C243 H235 0.930 . S
C243 C244 1.355 . S
C243 C245 1.415 . S
C244 C243 1.355 . S
C244 C246 1.419 . S
C245 C240 1.425 . S
C245 C242 1.409 . S
C245 C243 1.415 . S
C246 H236 0.930 . S
C246 C244 1.419 . S
C246 C247 1.362 . S
C247 H237 0.930 . S
C247 C240 1.409 . S
C247 C246 1.362 . S
H248 C254 0.930 . S
H249 C257 0.930 . S
H250 C258 0.930 . S
H251 C259 0.930 . S
H252 C262 0.930 . S
H253 C263 0.930 . S
C254 H248 0.930 . S
C254 C255 1.355 . S
C254 C256 1.415 . S
C255 C254 1.355 . S
C255 C257 1.419 . S
C256 C254 1.415 . S
C256 C261 1.425 . S
C256 C263 1.409 . S
C257 H249 0.930 . S
C257 C255 1.419 . S
C257 C258 1.362 . S
C258 H250 0.930 . S
C258 C257 1.362 . S
C258 C261 1.409 . S
C259 H251 0.930 . S
C259 C260 1.355 . S
C259 C261 1.415 . S
C260 C259 1.355 . S
C260 C262 1.419 . S
C261 C256 1.425 . S
C261 C258 1.409 . S
C261 C259 1.415 . S
C262 H252 0.930 . S
C262 C260 1.419 . S
C262 C263 1.362 . S
C263 H253 0.930 . S
C263 C256 1.409 . S
C263 C262 1.362 . S
H264 C270 0.930 . S
H265 C273 0.930 . S
H266 C274 0.930 . S
H267 C275 0.930 . S
H268 C278 0.930 . S
H269 C279 0.930 . S
C270 H264 0.930 . S
C270 C271 1.355 . S
C270 C272 1.415 . S
C271 C270 1.355 . S
C271 C273 1.419 . S
C272 C270 1.415 . S
C272 C277 1.425 . S
C272 C279 1.409 . S
C273 H265 0.930 . S
C273 C271 1.419 . S
C273 C274 1.362 . S
C274 H266 0.930 . S
C274 C273 1.362 . S
C274 C277 1.409 . S
C275 H267 0.930 . S
C275 C276 1.355 . S
C275 C277 1.415 . S
C276 C275 1.355 . S
C276 C278 1.419 . S
C277 C272 1.425 . S
C277 C274 1.409 . S
C277 C275 1.415 . S
C278 H268 0.930 . S
C278 C276 1.419 . S
C278 C279 1.362 . S
C279 H269 0.930 . S
C279 C272 1.409 . S
C279 C278 1.362 . S
H280 C286 0.930 . S
H281 C289 0.930 . S
H282 C290 0.930 . S
H283 C291 0.930 . S
H284 C294 0.930 . S
H285 C295 0.930 . S
C286 H280 0.930 . S
C286 C287 1.355 . S
C286 C288 1.415 . S
C287 C286 1.355 . S
C287 C289 1.419 . S
C288 C286 1.415 . S
C288 C293 1.425 . S
C288 C295 1.409 . S
C289 H281 0.930 . S
C289 C287 1.419 . S
C289 C290 1.362 . S
C290 H282 0.930 . S
C290 C289 1.362 . S
C290 C293 1.409 . S
C291 H283 0.930 . S
C291 C292 1.355 . S
C291 C293 1.415 . S
C292 C291 1.355 . S
C292 C294 1.419 . S
C293 C288 1.425 . S
C293 C290 1.409 . S
C293 C291 1.415 . S
C294 H284 0.930 . S
C294 C292 1.419 . S
C294 C295 1.362 . S
C295 H285 0.930 . S
C295 C288 1.409 . S
C295 C294 1.362 . S
H296 C302 0.930 . S
H297 C305 0.930 . S
H298 C306 0.930 . S
H299 C307 0.930 . S
H300 C310 0.930 . S
H301 C311 0.930 . S
C302 H296 0.930 . S
C302 C303 1.355 . S
C302 C304 1.415 . S
C303 C302 1.355 . S
C303 C305 1.419 . S
C304 C302 1.415 . S
C304 C309 1.425 . S
C304 C311 1.409 . S
C305 H297 0.930 . S
C305 C303 1.419 . S
C305 C306 1.362 . S
C306 H298 0.930 . S
C306 C305 1.362 . S
C306 C309 1.409 . S
C307 H299 0.930 . S
C307 C308 1.355 . S
C307 C309 1.415 . S
C308 C307 1.355 . S
C308 C310 1.419 . S
C309 C304 1.425 . S
C309 C306 1.409 . S
C309 C307 1.415 . S
C310 H300 0.930 . S
C310 C308 1.419 . S
C310 C311 1.362 . S
C311 H301 0.930 . S
C311 C304 1.409 . S
C311 C310 1.362 . S
H312 C318 0.930 . S
H313 C321 0.930 . S
H314 C322 0.930 . S
H315 C323 0.930 . S
H316 C326 0.930 . S
H317 C327 0.958 . S
C318 H312 0.930 . S
C318 C319 1.355 1_554 S
C318 C320 1.415 1_554 S
C319 C318 1.355 1_556 S
C319 C321 1.419 . S
C320 C318 1.415 1_556 S
C320 C325 1.425 . S
C320 C327 1.398 1_556 S
C321 H313 0.930 . S
C321 C319 1.419 . S
C321 C322 1.362 . S
C322 H314 0.930 . S
C322 C321 1.362 . S
C322 C325 1.409 . S
C323 H315 0.930 . S
C323 C324 1.355 . S
C323 C325 1.415 . S
C324 C323 1.355 . S
C324 C326 1.419 . S
C325 C320 1.425 . S
C325 C322 1.409 . S
C325 C323 1.415 . S
C326 H316 0.930 . S
C326 C324 1.419 . S
C326 C327 1.347 1_556 S
C327 H317 0.958 . S
C327 C320 1.398 1_554 S
C327 C326 1.347 1_554 S
H328 C334 0.930 . S
H329 C337 0.930 . S
H330 C338 0.953 . S
H331 C339 0.930 . S
H332 C342 0.930 . S
H333 C343 0.930 . S
C334 H328 0.930 . S
C334 C335 1.355 . S
C334 C336 1.415 . S
C335 C334 1.355 . S
C335 C337 1.419 . S
C336 C334 1.415 . S
C336 C341 1.425 . S
C336 C343 1.409 . S
C337 H329 0.930 . S
C337 C335 1.419 . S
C337 C338 1.349 1_554 S
C338 H330 0.953 . S
C338 C337 1.349 1_556 S
C338 C341 1.400 1_556 S
C339 H331 0.930 . S
C339 C340 1.355 1_556 S
C339 C341 1.415 1_556 S
C340 C339 1.355 1_554 S
C340 C342 1.419 . S
C341 C336 1.425 . S
C341 C338 1.400 1_554 S
C341 C339 1.415 1_554 S
C342 H332 0.930 . S
C342 C340 1.419 . S
C342 C343 1.362 . S
C343 H333 0.930 . S
C343 C336 1.409 . S
C343 C342 1.362 . S
H344 C350 0.946 . S
H345 C353 0.930 . S
H346 C354 0.930 . S
H347 C355 0.930 . S
H348 C358 0.930 . S
H349 C359 0.930 1_554 S
C350 H344 0.946 . S
C350 C351 1.350 1_554 S
C350 C352 1.404 1_554 S
C351 C350 1.350 1_556 S
C351 C353 1.419 . S
C352 C350 1.404 1_556 S
C352 C357 1.425 . S
C352 C359 1.409 . S
C353 H345 0.930 . S
C353 C351 1.419 . S
C353 C354 1.362 . S
C354 H346 0.930 . S
C354 C353 1.362 . S
C354 C357 1.409 . S
C355 H347 0.930 . S
C355 C356 1.355 . S
C355 C357 1.415 . S
C356 C355 1.355 . S
C356 C358 1.419 . S
C357 C352 1.425 . S
C357 C354 1.409 . S
C357 C355 1.415 . S
C358 H348 0.930 . S
C358 C356 1.419 . S
C358 C359 1.362 . S
C359 H349 0.930 1_556 S
C359 C352 1.409 . S
C359 C358 1.362 . S
H360 C366 0.930 . S
H361 C369 0.930 . S
H362 C370 0.930 . S
H363 C371 0.930 . S
H364 C374 0.930 . S
H365 C375 0.930 . S
C366 H360 0.930 . S
C366 C367 1.355 . S
C366 C368 1.415 . S
C367 C366 1.355 . S
C367 C369 1.419 1_554 S
C368 C366 1.415 . S
C368 C373 1.425 . S
C368 C375 1.409 . S
C369 H361 0.930 . S
C369 C367 1.419 1_556 S
C369 C370 1.362 1_556 S
C370 H362 0.930 . S
C370 C369 1.362 1_554 S
C370 C373 1.409 . S
C371 H363 0.930 . S
C371 C372 1.355 . S
C371 C373 1.415 . S
C372 C371 1.355 . S
C372 C374 1.419 . S
C373 C368 1.425 . S
C373 C370 1.409 . S
C373 C371 1.415 . S
C374 H364 0.930 . S
C374 C372 1.419 . S
C374 C375 1.362 . S
C375 H365 0.930 . S
C375 C368 1.409 . S
C375 C374 1.362 . S
H376 C382 0.930 . S
H377 C385 0.930 . S
H378 C386 0.930 . S
H379 C387 0.930 . S
H380 C390 0.930 . S
H381 C391 0.930 . S
C382 H376 0.930 . S
C382 C383 1.355 . S
C382 C384 1.415 . S
C383 C382 1.355 . S
C383 C385 1.419 1_655 S
C384 C382 1.415 . S
C384 C389 1.425 1_655 S
C384 C391 1.409 . S
C385 H377 0.930 . S
C385 C383 1.419 1_455 S
C385 C386 1.362 . S
C386 H378 0.930 . S
C386 C385 1.362 . S
C386 C389 1.409 . S
C387 H379 0.930 . S
C387 C388 1.355 . S
C387 C389 1.415 . S
C388 C387 1.355 . S
C388 C390 1.419 1_455 S
C389 C384 1.425 1_455 S
C389 C386 1.409 . S
C389 C387 1.415 . S
C390 H380 0.930 . S
C390 C388 1.419 1_655 S
C390 C391 1.362 . S
C391 H381 0.930 . S
C391 C384 1.409 . S
C391 C390 1.362 . S
H392 C398 0.930 . S
H393 C401 0.930 . S
H394 C402 0.931 . S
H395 C403 0.930 . S
H396 C406 0.930 . S
H397 C407 0.931 . S
C398 H392 0.930 . S
C398 C399 1.355 . S
C398 C400 1.415 . S
C399 C398 1.355 . S
C399 C401 1.419 . S
C400 C398 1.415 . S
C400 C405 1.425 1_545 S
C400 C407 1.410 . S
C401 H393 0.930 . S
C401 C399 1.419 . S
C401 C402 1.361 1_545 S
C402 H394 0.931 . S
C402 C401 1.361 1_565 S
C402 C405 1.410 . S
C403 H395 0.930 . S
C403 C404 1.355 . S
C403 C405 1.415 . S
C404 C403 1.355 . S
C404 C406 1.419 . S
C405 C400 1.425 1_565 S
C405 C402 1.410 . S
C405 C403 1.415 . S
C406 H396 0.930 . S
C406 C404 1.419 . S
C406 C407 1.361 1_565 S
C407 H397 0.931 . S
C407 C400 1.410 . S
C407 C406 1.361 1_545 S
H408 C414 0.930 . S
H409 C417 0.930 . S
H410 C418 0.930 . S
H411 C419 0.930 . S
H412 C422 0.930 . S
H413 C423 0.930 . S
C414 H408 0.930 . S
C414 C415 1.355 . S
C414 C416 1.415 . S
C415 C414 1.355 . S
C415 C417 1.419 . S
C416 C414 1.415 . S
C416 C421 1.425 1_545 S
C416 C423 1.409 1_545 S
C417 H409 0.930 . S
C417 C415 1.419 . S
C417 C418 1.362 . S
C418 H410 0.930 . S
C418 C417 1.362 . S
C418 C421 1.409 1_545 S
C419 H411 0.930 . S
C419 C420 1.355 . S
C419 C421 1.415 . S
C420 C419 1.355 . S
C420 C422 1.419 . S
C421 C416 1.425 1_565 S
C421 C418 1.409 1_565 S
C421 C419 1.415 . S
C422 H412 0.930 . S
C422 C420 1.419 . S
C422 C423 1.362 . S
C423 H413 0.930 . S
C423 C416 1.409 1_565 S
C423 C422 1.362 . S
H424 C430 0.930 . S
H425 C433 0.930 . S
H426 C434 0.930 . S
H427 C435 0.930 . S
H428 C438 0.930 . S
H429 C439 0.930 . S
C430 H424 0.930 . S
C430 C431 1.355 . S
C430 C432 1.415 . S
C431 C430 1.355 . S
C431 C433 1.419 . S
C432 C430 1.415 . S
C432 C437 1.425 1_455 S
C432 C439 1.409 1_455 S
C433 H425 0.930 . S
C433 C431 1.419 . S
C433 C434 1.362 . S
C434 H426 0.930 . S
C434 C433 1.362 . S
C434 C437 1.409 1_455 S
C435 H427 0.930 . S
C435 C436 1.355 . S
C435 C437 1.415 . S
C436 C435 1.355 . S
C436 C438 1.419 . S
C437 C432 1.425 1_655 S
C437 C434 1.409 1_655 S
C437 C435 1.415 . S
C438 H428 0.930 . S
C438 C436 1.419 . S
C438 C439 1.362 . S
C439 H429 0.930 . S
C439 C432 1.409 1_655 S
C439 C438 1.362 . S
C191 N173 1.749 . S
C196 N12 1.781 . S
C207 N35 1.763 . S
C212 N104 1.743 . S
C223 N58 1.779 . S
C228 N127 1.748 . S
C239 N150 1.797 . S
C244 N81 1.764 . S
C255 N25 1.573 . S
C260 C16 1.707 . S
C271 C39 1.697 . S
C276 N48 1.582 . S
C287 N71 1.602 . S
C292 C62 1.683 . S
C303 C85 1.688 . S
C308 N2 1.594 . S
C319 N163 1.627 1_556 S
C324 C108 1.710 . S
C335 C131 1.710 . S
C340 N94 1.627 1_554 S
C351 N117 1.611 1_556 S
C356 C154 1.718 . S
C367 N140 1.603 1_554 S
C372 C177 1.683 . S
C383 C53 1.828 . S
C388 C7 1.805 . S
C399 C76 1.817 . S
C404 C30 1.791 . S
C415 C145 1.792 . S
C420 C99 1.819 . S
C431 C168 1.812 . S
C436 C122 1.829 . S
