# Generated by pormake.
# Topology wla, (5)-cn, num edge types: 1
# Building blocks:
#     Node 0, Type 0, BuildingBlock: XOMCOT_clean_sbu_1, # of connection points: 5
#     Node 1, Type 0, BuildingBlock: XOMCOT_clean_sbu_1, # of connection points: 5
#     Node 2, Type 0, BuildingBlock: XOMCOT_clean_sbu_1, # of connection points: 5
#     Node 3, Type 0, BuildingBlock: XOMCOT_clean_sbu_1, # of connection points: 5
#     Node 4, Type 0, BuildingBlock: XOMCOT_clean_sbu_1, # of connection points: 5
#     Node 5, Type 0, BuildingBlock: XOMCOT_clean_sbu_1, # of connection points: 5
#     Node 6, Type 0, BuildingBlock: XOMCOT_clean_sbu_1, # of connection points: 5
#     Node 7, Type 0, BuildingBlock: XOMCOT_clean_sbu_1, # of connection points: 5
#     Node 8, Type 0, BuildingBlock: XOMCOT_clean_sbu_1, # of connection points: 5
#     Node 9, Type 0, BuildingBlock: XOMCOT_clean_sbu_1, # of connection points: 5
#     Node 10, Type 0, BuildingBlock: XOMCOT_clean_sbu_1, # of connection points: 5
#     Node 11, Type 0, BuildingBlock: XOMCOT_clean_sbu_1, # of connection points: 5
#     Node 12, Type 0, BuildingBlock: XOMCOT_clean_sbu_1, # of connection points: 5
#     Node 13, Type 0, BuildingBlock: XOMCOT_clean_sbu_1, # of connection points: 5
#     Node 14, Type 0, BuildingBlock: XOMCOT_clean_sbu_1, # of connection points: 5
#     Node 15, Type 0, BuildingBlock: XOMCOT_clean_sbu_1, # of connection points: 5
#     Node 16, Type 0, BuildingBlock: XOMCOT_clean_sbu_1, # of connection points: 5
#     Node 17, Type 0, BuildingBlock: XOMCOT_clean_sbu_1, # of connection points: 5
#     Edge 18, Type (0, 0), BuildingBlock: CIFDUS_clean_linker_0, # of connection points: 2
#     Edge 19, Type (0, 0), BuildingBlock: CIFDUS_clean_linker_0, # of connection points: 2
#     Edge 20, Type (0, 0), BuildingBlock: CIFDUS_clean_linker_0, # of connection points: 2
#     Edge 21, Type (0, 0), BuildingBlock: CIFDUS_clean_linker_0, # of connection points: 2
#     Edge 22, Type (0, 0), BuildingBlock: CIFDUS_clean_linker_0, # of connection points: 2
#     Edge 23, Type (0, 0), BuildingBlock: CIFDUS_clean_linker_0, # of connection points: 2
#     Edge 24, Type (0, 0), BuildingBlock: CIFDUS_clean_linker_0, # of connection points: 2
#     Edge 25, Type (0, 0), BuildingBlock: CIFDUS_clean_linker_0, # of connection points: 2
#     Edge 26, Type (0, 0), BuildingBlock: CIFDUS_clean_linker_0, # of connection points: 2
#     Edge 27, Type (0, 0), BuildingBlock: CIFDUS_clean_linker_0, # of connection points: 2
#     Edge 28, Type (0, 0), BuildingBlock: CIFDUS_clean_linker_0, # of connection points: 2
#     Edge 29, Type (0, 0), BuildingBlock: CIFDUS_clean_linker_0, # of connection points: 2
#     Edge 30, Type (0, 0), BuildingBlock: CIFDUS_clean_linker_0, # of connection points: 2
#     Edge 31, Type (0, 0), BuildingBlock: CIFDUS_clean_linker_0, # of connection points: 2
#     Edge 32, Type (0, 0), BuildingBlock: CIFDUS_clean_linker_0, # of connection points: 2
#     Edge 33, Type (0, 0), BuildingBlock: CIFDUS_clean_linker_0, # of connection points: 2
#     Edge 34, Type (0, 0), BuildingBlock: CIFDUS_clean_linker_0, # of connection points: 2
#     Edge 35, Type (0, 0), BuildingBlock: CIFDUS_clean_linker_0, # of connection points: 2
#     Edge 36, Type (0, 0), BuildingBlock: CIFDUS_clean_linker_0, # of connection points: 2
#     Edge 37, Type (0, 0), BuildingBlock: CIFDUS_clean_linker_0, # of connection points: 2
#     Edge 38, Type (0, 0), BuildingBlock: CIFDUS_clean_linker_0, # of connection points: 2
#     Edge 39, Type (0, 0), BuildingBlock: CIFDUS_clean_linker_0, # of connection points: 2
#     Edge 40, Type (0, 0), BuildingBlock: CIFDUS_clean_linker_0, # of connection points: 2
#     Edge 41, Type (0, 0), BuildingBlock: CIFDUS_clean_linker_0, # of connection points: 2
#     Edge 42, Type (0, 0), BuildingBlock: CIFDUS_clean_linker_0, # of connection points: 2
#     Edge 43, Type (0, 0), BuildingBlock: CIFDUS_clean_linker_0, # of connection points: 2
#     Edge 44, Type (0, 0), BuildingBlock: CIFDUS_clean_linker_0, # of connection points: 2
#     Edge 45, Type (0, 0), BuildingBlock: CIFDUS_clean_linker_0, # of connection points: 2
#     Edge 46, Type (0, 0), BuildingBlock: CIFDUS_clean_linker_0, # of connection points: 2
#     Edge 47, Type (0, 0), BuildingBlock: CIFDUS_clean_linker_0, # of connection points: 2
#     Edge 48, Type (0, 0), BuildingBlock: CIFDUS_clean_linker_0, # of connection points: 2
#     Edge 49, Type (0, 0), BuildingBlock: CIFDUS_clean_linker_0, # of connection points: 2
#     Edge 50, Type (0, 0), BuildingBlock: CIFDUS_clean_linker_0, # of connection points: 2
#     Edge 51, Type (0, 0), BuildingBlock: CIFDUS_clean_linker_0, # of connection points: 2
#     Edge 52, Type (0, 0), BuildingBlock: CIFDUS_clean_linker_0, # of connection points: 2
#     Edge 53, Type (0, 0), BuildingBlock: CIFDUS_clean_linker_0, # of connection points: 2
#     Edge 54, Type (0, 0), BuildingBlock: CIFDUS_clean_linker_0, # of connection points: 2
#     Edge 55, Type (0, 0), BuildingBlock: CIFDUS_clean_linker_0, # of connection points: 2
#     Edge 56, Type (0, 0), BuildingBlock: CIFDUS_clean_linker_0, # of connection points: 2
#     Edge 57, Type (0, 0), BuildingBlock: CIFDUS_clean_linker_0, # of connection points: 2
#     Edge 58, Type (0, 0), BuildingBlock: CIFDUS_clean_linker_0, # of connection points: 2
#     Edge 59, Type (0, 0), BuildingBlock: CIFDUS_clean_linker_0, # of connection points: 2
#     Edge 60, Type (0, 0), BuildingBlock: CIFDUS_clean_linker_0, # of connection points: 2
#     Edge 61, Type (0, 0), BuildingBlock: CIFDUS_clean_linker_0, # of connection points: 2
#     Edge 62, Type (0, 0), BuildingBlock: CIFDUS_clean_linker_0, # of connection points: 2
# Relax obj value: 0.394
# Max RMSD: 0.239
# Mean RMSD: 0.239
data_MOF--net-wla--node1-XOMCOT_clean_sbu_1--edge1-CIFDUS_clean_linker_0
_symmetry_space_group_name_H-M    P1
_symmetry_Int_Tables_number       1
_symmetry_cell_setting            triclinic
loop_
_symmetry_equiv_pos_as_xyz
'x, y, z'
_cell_length_a     55.363849
_cell_length_b     55.148624
_cell_length_c     24.393383
_cell_angle_alpha  89.82308
_cell_angle_beta   90.063665
_cell_angle_gamma 120.02714
loop_
_atom_site_label
_atom_site_type_symbol
_atom_site_fract_x
_atom_site_fract_y
_atom_site_fract_z
_atom_type_partial_charge
C0 C 0.12042 0.04514 0.18538 0.0
C1 C 0.09266 0.02521 0.18341 0.0
N2 N 0.08914 0.0027 0.21147 0.0
N3 N 0.13442 0.03556 0.21564 0.0
C4 C 0.11473 0.00905 0.22897 0.0
H5 H 0.12964 0.06501 0.16435 0.0
Co6 Co 0.17339 0.05414 0.22757 0.0
C7 C 0.15082 0.02536 0.33668 0.0
O8 O 0.13022 0.03068 0.33292 0.0
N9 N 0.21175 0.07237 0.23694 0.0
C10 C 0.25514 0.09183 0.26877 0.0
C11 C 0.22726 0.0783 0.28296 0.0
C12 C 0.23046 0.0826 0.19577 0.0
N13 N 0.2569 0.09419 0.21378 0.0
O14 O 0.17484 0.02597 0.18305 0.0
H15 H 0.21894 0.07299 0.3241 0.0
H16 H 0.22496 0.08189 0.15311 0.0
O17 O 0.16865 0.03279 0.29741 0.0
C18 C 0.17545 0.03361 0.13315 0.0
O19 O 0.175 0.05687 0.12389 0.0
N20 N 0.17241 0.08371 0.26392 0.0
C21 C 0.14774 0.1143 0.29459 0.0
C22 C 0.15735 0.10282 0.33485 0.0
C23 C 0.17054 0.08803 0.31842 0.0
C24 C 0.17038 0.10096 0.2266 0.0
C25 C 0.15736 0.11607 0.2407 0.0
H26 H 0.17674 0.07818 0.34923 0.0
H27 H 0.17503 0.09973 0.184 0.0
H28 H 0.11899 -0.00551 0.25082 0.0
H29 H 0.07626 0.02719 0.16341 0.0
H30 H 0.27265 0.09883 0.2965 0.0
H31 H 0.15224 0.10279 0.37771 0.0
H32 H 0.15163 0.12559 0.20813 0.0
C33 C 0.96311 0.09529 0.24477 0.0
C34 C 0.98607 0.09208 0.23885 0.0
N35 N 0.00906 0.11732 0.24539 0.0
N36 N 0.9717 0.12224 0.25728 0.0
C37 C -0.00017 0.13532 0.25472 0.0
H38 H 0.94159 0.07876 0.24214 0.0
Co39 Co 0.95056 0.13894 0.27553 0.0
C40 C 0.98732 0.15073 0.37868 0.0
O41 O -0.00423 0.13304 0.36624 0.0
N42 N 0.92978 0.15601 0.29304 0.0
C43 C 0.90814 0.17395 0.34033 0.0
C44 C 0.92253 0.1597 0.3439 0.0
C45 C 0.91911 0.16772 0.25922 0.0
N46 N 0.90603 0.17892 0.28702 0.0
O47 O 0.97614 0.17111 0.2322 0.0
H48 H 0.92733 0.15242 0.38134 0.0
H49 H 0.92116 0.16843 0.21511 0.0
O50 O 0.97149 0.15456 0.34559 0.0
C51 C 0.9676 0.16483 0.18258 0.0
O52 O 0.94394 0.14148 0.17411 0.0
N53 N 0.92354 0.10568 0.31022 0.0
C54 C 0.88765 0.04793 0.31739 0.0
C55 C 0.91055 0.06161 0.35309 0.0
C56 C 0.92804 0.09065 0.34942 0.0
C57 C 0.8994 0.09338 0.28075 0.0
C58 C 0.88084 0.06466 0.28463 0.0
H59 H 0.94661 0.09992 0.3737 0.0
H60 H 0.89586 0.10532 0.24978 0.0
H61 H 0.01335 0.15724 0.26439 0.0
H62 H 0.98593 0.0726 0.23229 0.0
H63 H 0.89952 0.17983 0.37418 0.0
H64 H 0.91678 0.04998 0.3797 0.0
H65 H 0.86269 0.05545 0.25825 0.0
C66 C 0.86293 0.86203 0.23572 0.0
C67 C 0.86393 0.88742 0.23449 0.0
N68 N 0.85746 0.89255 0.28481 0.0
N69 N 0.85581 0.85109 0.28647 0.0
C70 C 0.85256 0.8701 0.31555 0.0
H71 H 0.86777 0.85242 0.20213 0.0
Co72 Co 0.8537 0.8177 0.30682 0.0
C73 C 0.84281 0.81349 0.42739 0.0
O74 O 0.86239 0.80698 0.43395 0.0
N75 N 0.85161 0.78296 0.32654 0.0
C76 C 0.86283 0.75071 0.35077 0.0
C77 C 0.87165 0.77875 0.34906 0.0
C78 C 0.83061 0.75665 0.31584 0.0
N79 N 0.8371 0.73681 0.32923 0.0
O80 O 0.81768 0.79854 0.2716 0.0
H81 H 0.89185 0.79489 0.36311 0.0
H82 H 0.811 0.75191 0.29734 0.0
O83 O 0.83724 0.81852 0.37898 0.0
C84 C 0.82093 0.79202 0.22285 0.0
O85 O 0.84456 0.79294 0.21119 0.0
N86 N 0.89051 0.8383 0.33097 0.0
C87 C 0.94718 0.87762 0.32597 0.0
C88 C 0.93034 0.87927 0.36719 0.0
C89 C 0.90172 0.85944 0.36861 0.0
C90 C 0.90695 0.83601 0.29222 0.0
C91 C 0.93534 0.85495 0.28982 0.0
H92 H 0.88844 0.86259 0.39657 0.0
H93 H 0.89752 0.82017 0.2608 0.0
H94 H 0.84721 0.8678 0.3586 0.0
H95 H 0.87012 0.9015 0.1997 0.0
H96 H 0.87505 0.74143 0.36417 0.0
H97 H 0.93869 0.89688 0.39504 0.0
H98 H 0.94759 0.85292 0.25746 0.0
C99 C 0.04387 0.1374 0.85655 0.0
C100 C 0.02873 0.10871 0.85899 0.0
N101 N 0.00965 0.09954 0.81847 0.0
N102 N 0.03443 0.14643 0.81478 0.0
C103 C 0.01341 0.12285 0.7925 0.0
H104 H 0.0614 0.15078 0.88236 0.0
Co105 Co 0.05197 0.18357 0.79157 0.0
C106 C 0.01486 0.18385 0.69978 0.0
O107 O 0.0167 0.20762 0.71449 0.0
N108 N 0.07039 0.22093 0.76869 0.0
C109 C 0.09271 0.26013 0.71958 0.0
C110 C 0.07914 0.23132 0.71779 0.0
C111 C 0.07931 0.24376 0.80062 0.0
N112 N 0.09272 0.2679 0.7719 0.0
O113 O 0.02753 0.18969 0.83946 0.0
H114 H 0.07591 0.21876 0.68162 0.0
H115 H 0.07684 0.24282 0.8445 0.0
O116 O 0.02644 0.17325 0.72905 0.0
C117 C 0.03715 0.19474 0.8885 0.0
O118 O 0.06203 0.19796 0.89704 0.0
N119 N 0.07664 0.17683 0.75091 0.0
C120 C 0.09989 0.14369 0.72868 0.0
C121 C 0.08127 0.14498 0.6915 0.0
C122 C 0.06994 0.16197 0.70316 0.0
C123 C 0.09805 0.17933 0.78256 0.0
C124 C 0.11002 0.16271 0.77227 0.0
H125 H 0.0538 0.16061 0.67661 0.0
H126 H 0.10302 0.19112 0.82032 0.0
H127 H 0.00179 0.1226 0.75672 0.0
H128 H 0.03171 0.09563 0.88821 0.0
H129 H 0.10175 0.27416 0.68498 0.0
H130 H 0.07342 0.13089 0.6568 0.0
H131 H 0.12441 0.16229 0.80184 0.0
C132 C 0.86005 0.84866 0.88847 0.0
C133 C 0.8844 0.84947 0.87297 0.0
N134 N 0.88967 0.85812 0.8205 0.0
N135 N 0.85008 0.85651 0.84559 0.0
C136 C 0.8687 0.86224 0.80494 0.0
H137 H 0.85052 0.84303 0.92858 0.0
Co138 Co 0.81777 0.85884 0.84052 0.0
C139 C 0.79661 0.83637 0.72572 0.0
O140 O 0.77974 0.84663 0.72311 0.0
N141 N 0.78506 0.86097 0.83541 0.0
C142 C 0.75479 0.87603 0.84457 0.0
C143 C 0.78253 0.88402 0.83957 0.0
C144 C 0.75857 0.8393 0.83744 0.0
N145 N 0.73978 0.84785 0.84373 0.0
O146 O 0.79816 0.82419 0.88206 0.0
H147 H 0.79972 0.90527 0.84214 0.0
H148 H 0.75329 0.81758 0.83818 0.0
O149 O 0.81069 0.83948 0.76947 0.0
C150 C 0.79407 0.82963 0.93114 0.0
O151 O 0.79975 0.85527 0.94211 0.0
N152 N 0.83868 0.89434 0.80841 0.0
C153 C 0.8785 0.94949 0.78453 0.0
C154 C 0.86199 0.93145 0.74257 0.0
C155 C 0.84211 0.90361 0.75537 0.0
C156 C 0.85367 0.91219 0.84958 0.0
C157 C 0.87379 0.93972 0.83858 0.0
H158 H 0.83041 0.88975 0.72248 0.0
H159 H 0.8505 0.90453 0.89134 0.0
H160 H 0.86703 0.8694 0.7645 0.0
H161 H 0.89769 0.84504 0.89866 0.0
H162 H 0.74646 0.88987 0.85073 0.0
H163 H 0.86515 0.93849 0.70033 0.0
H164 H 0.88594 0.95322 0.87206 0.0
C165 C 0.07898 0.95359 0.79703 0.0
C166 C 0.06997 0.97272 0.79941 0.0
N167 N 0.08795 -0.0044 0.7706 0.0
N168 N 0.10231 0.96427 0.76627 0.0
C169 C 0.10747 0.99002 0.75134 0.0
H170 H 0.06897 0.93306 0.81584 0.0
Co171 Co 0.1219 0.94627 0.74783 0.0
C172 C 0.15459 0.97711 0.64625 0.0
O173 O 0.17612 0.97399 0.65709 0.0
N174 N 0.14149 0.9278 0.72952 0.0
C175 C 0.15479 0.89988 0.69029 0.0
C176 C 0.13791 0.91153 0.68536 0.0
C177 C 0.16086 0.92598 0.76004 0.0
N178 N 0.16923 0.90925 0.73722 0.0
O179 O 0.15278 0.97384 0.79034 0.0
H180 H 0.12357 0.90793 0.65209 0.0
H181 H 0.16818 0.93583 0.79941 0.0
O182 O 0.13418 0.96791 0.67986 0.0
C183 C 0.14719 0.96481 0.83984 0.0
O184 O 0.1257 0.93964 0.84815 0.0
N185 N 0.09006 0.91846 0.71361 0.0
C186 C 0.03285 0.88329 0.70444 0.0
C187 C 0.04726 0.90539 0.66695 0.0
C188 C 0.07602 0.92307 0.67266 0.0
C189 C 0.07718 0.8949 0.74497 0.0
C190 C 0.0485 0.87697 0.74112 0.0
H191 H 0.08609 0.94198 0.64838 0.0
H192 H 0.08857 0.89195 0.7779 0.0
H193 H 0.12483 0.00416 0.72572 0.0
H194 H 0.05164 0.97002 0.82075 0.0
H195 H 0.15625 0.88561 0.66193 0.0
H196 H 0.03611 0.91064 0.63708 0.0
H197 H 0.03853 0.86036 0.77117 0.0
C198 C 0.81046 0.37878 0.558 0.0
C199 C 0.78455 0.35792 0.54199 0.0
N200 N 0.77852 0.3345 0.57016 0.0
N201 N 0.82057 0.36854 0.59622 0.0
C202 C 0.80069 0.34148 0.6029 0.0
H203 H 0.8217 0.39985 0.54167 0.0
Co204 Co 0.85674 0.38787 0.62144 0.0
C205 C 0.85289 0.37393 0.73906 0.0
O206 O 0.86783 0.40115 0.74645 0.0
N207 N 0.89451 0.40725 0.64318 0.0
C208 C 0.93608 0.41438 0.66989 0.0
C209 C 0.90778 0.39731 0.67472 0.0
C210 C 0.91551 0.42962 0.61736 0.0
N211 N 0.94097 0.43463 0.63337 0.0
O212 O 0.86384 0.36239 0.57996 0.0
H213 H 0.89791 0.37739 0.69577 0.0
H214 H 0.91226 0.44052 0.58388 0.0
O215 O 0.84655 0.36429 0.68985 0.0
C216 C 0.87118 0.37173 0.53111 0.0
O217 O 0.87704 0.39751 0.52077 0.0
N218 N 0.84829 0.41375 0.65645 0.0
C219 C 0.82494 0.44787 0.67692 0.0
C220 C 0.81162 0.41991 0.69478 0.0
C221 C 0.82363 0.40337 0.68451 0.0
C222 C 0.86232 0.4413 0.64157 0.0
C223 C 0.85142 0.45883 0.65265 0.0
H224 H 0.81159 0.38137 0.69464 0.0
H225 H 0.8809 0.4496 0.61716 0.0
H226 H 0.803 0.32687 0.62905 0.0
H227 H 0.77129 0.3597 0.5115 0.0
H228 H 0.95177 0.4105 0.68765 0.0
H229 H 0.79097 0.40993 0.71267 0.0
H230 H 0.86304 0.48041 0.63913 0.0
C231 C 0.69952 0.52954 0.66109 0.0
C232 C 0.72375 0.52869 0.66787 0.0
N233 N 0.71703 0.50315 0.68702 0.0
N234 N 0.67758 0.50449 0.67515 0.0
C235 C 0.68895 0.48897 0.6916 0.0
H236 H 0.69801 0.54724 0.64633 0.0
Co237 Co 0.64013 0.49428 0.67063 0.0
C238 C 0.63837 0.51572 0.76549 0.0
O239 O 0.62283 0.48852 0.77267 0.0
N240 N 0.60202 0.48454 0.66723 0.0
C241 C 0.55569 0.46328 0.66218 0.0
C242 C 0.57808 0.45979 0.67335 0.0
C243 C 0.59329 0.50293 0.65555 0.0
N244 N 0.56534 0.49039 0.64995 0.0
O245 O 0.64819 0.51769 0.60431 0.0
H246 H 0.57638 0.44002 0.68373 0.0
H247 H 0.60745 0.52498 0.64819 0.0
O248 O 0.64769 0.52486 0.71761 0.0
C249 C 0.63385 0.51347 0.56043 0.0
O250 O 0.60945 0.49054 0.55567 0.0
N251 N 0.63356 0.46297 0.62905 0.0
C252 C 0.62526 0.4132 0.58225 0.0
C253 C 0.61568 0.41354 0.63535 0.0
C254 C 0.62102 0.43875 0.65851 0.0
C255 C 0.64472 0.46354 0.57875 0.0
C256 C 0.64035 0.43879 0.5542 0.0
H257 H 0.61543 0.43911 0.70083 0.0
H258 H 0.65804 0.48311 0.55812 0.0
H259 H 0.67681 0.46738 0.70484 0.0
H260 H 0.74468 0.54551 0.65917 0.0
H261 H 0.53412 0.44675 0.66005 0.0
H262 H 0.60421 0.39457 0.6593 0.0
H263 H 0.64949 0.43988 0.51441 0.0
C264 C 0.58435 0.22247 0.46156 0.0
C265 C 0.59706 0.25126 0.46254 0.0
N266 N 0.5855 0.25827 0.50342 0.0
N267 N 0.56479 0.2116 0.50138 0.0
C268 C 0.56595 0.23401 0.5259 0.0
H269 H 0.58989 0.21031 0.43512 0.0
Co270 Co 0.54438 0.17396 0.52046 0.0
C271 C 0.50725 0.17393 0.61527 0.0
O272 O 0.48432 0.15104 0.60093 0.0
N273 N 0.52477 0.13611 0.53859 0.0
C274 C 0.50893 0.09541 0.58209 0.0
C275 C 0.52013 0.12386 0.58848 0.0
C276 C 0.51676 0.11487 0.50281 0.0
N277 N 0.50712 0.08994 0.52804 0.0
O278 O 0.51468 0.17008 0.47239 0.0
H279 H 0.52601 0.135 0.627 0.0
H280 H 0.51893 0.11762 0.45895 0.0
O281 O 0.52915 0.18312 0.58545 0.0
C282 C 0.5204 0.16696 0.42285 0.0
O283 O 0.54234 0.16419 0.4144 0.0
N284 N 0.57486 0.1783 0.56101 0.0
C285 C 0.63034 0.20024 0.59064 0.0
C286 C 0.61204 0.20402 0.6245 0.0
C287 C 0.58426 0.19294 0.60879 0.0
C288 C 0.59141 0.1715 0.53134 0.0
C289 C 0.61935 0.18226 0.54548 0.0
H290 H 0.57145 0.19851 0.6326 0.0
H291 H 0.58367 0.16008 0.49338 0.0
H292 H 0.55326 0.23289 0.56036 0.0
H293 H 0.61442 0.26589 0.43744 0.0
H294 H 0.50412 0.08022 0.61453 0.0
H295 H 0.61969 0.21788 0.65954 0.0
H296 H 0.63277 0.17862 0.5186 0.0
C297 C 0.62862 0.47176 0.195 0.0
C298 C 0.60481 0.45092 0.1707 0.0
N299 N 0.61051 0.44924 0.11766 0.0
N300 N 0.64916 0.48328 0.15728 0.0
C301 C 0.63748 0.46904 0.11061 0.0
H302 H 0.63084 0.47779 0.23763 0.0
Co303 Co 0.68559 0.5128 0.16679 0.0
C304 C 0.69234 0.54846 0.06488 0.0
O305 O 0.71915 0.56653 0.06839 0.0
N306 N 0.72191 0.54269 0.1767 0.0
C307 C 0.76553 0.56762 0.20683 0.0
C308 C 0.7446 0.54129 0.19222 0.0
C309 C 0.72947 0.56991 0.18248 0.0
N310 N 0.75584 0.5855 0.2006 0.0
O311 O 0.6715 0.53149 0.21185 0.0
H312 H 0.74532 0.52211 0.19603 0.0
H313 H 0.71523 0.57782 0.17717 0.0
O314 O 0.68034 0.52903 0.10054 0.0
C315 C 0.67841 0.53046 0.26135 0.0
O316 O 0.69304 0.51816 0.27172 0.0
N317 N 0.69941 0.49296 0.12814 0.0
C318 C 0.72538 0.46315 0.09642 0.0
C319 C 0.73138 0.48801 0.0692 0.0
C320 C 0.71778 0.50253 0.08529 0.0
C321 C 0.69307 0.46854 0.154 0.0
C322 C 0.70533 0.45302 0.13804 0.0
H323 H 0.72363 0.52235 0.06619 0.0
H324 H 0.67944 0.46176 0.18935 0.0
H325 H 0.64865 0.47297 0.07222 0.0
H326 H 0.58518 0.43728 0.19097 0.0
H327 H 0.78585 0.57299 0.22286 0.0
H328 H 0.74723 0.49666 0.03756 0.0
H329 H 0.70072 0.43431 0.16092 0.0
C330 C 0.53502 0.28047 0.05346 0.0
C331 C 0.56319 0.29064 0.05761 0.0
N332 N 0.56782 0.26905 0.05189 0.0
N333 N 0.52188 0.25264 0.04375 0.0
C334 C 0.54243 0.2462 0.04503 0.0
H335 H 0.52498 0.2928 0.05793 0.0
Co336 Co 0.48347 0.22789 0.03597 0.0
C337 C 0.50795 0.22124 0.92805 0.0
O338 O 0.53122 0.24505 0.93539 0.0
N339 N 0.44535 0.20358 0.0306 0.0
C340 C 0.40165 0.17676 1.00267 0.0
C341 C 0.42907 0.19233 0.98608 0.0
C342 C 0.42754 0.19484 0.07332 0.0
N343 N 0.4008 0.17848 0.05771 0.0
O344 O 0.48714 0.20063 0.08053 0.0
H345 H 0.4365 0.19574 0.94422 0.0
H346 H 0.43408 0.20057 0.11526 0.0
O347 O 0.48867 0.21254 0.96471 0.0
C348 C 0.48715 0.20766 0.13064 0.0
O349 O 0.48528 0.23011 0.14022 0.0
N350 N 0.47915 0.25585 1.00064 0.0
C351 C 0.49241 0.31128 0.99068 0.0
C352 C 0.49794 0.29799 0.94741 0.0
C353 C 0.49081 0.26989 0.95296 0.0
C354 C 0.46909 0.26688 0.03802 0.0
C355 C 0.47536 0.29461 0.03375 0.0
H356 H 0.49711 0.26084 0.9212 0.0
H357 H 0.45974 0.25556 0.07552 0.0
H358 H 0.53888 0.22525 0.0386 0.0
H359 H 0.579 0.31221 0.06495 0.0
H360 H 0.38374 0.16573 0.97609 0.0
H361 H 0.51014 0.30987 0.91232 0.0
H362 H 0.47032 0.3037 0.06806 0.0
C363 C 0.7938 0.33967 0.20565 0.0
C364 C 0.78883 0.36143 0.19653 0.0
N365 N 0.78325 0.36168 0.14296 0.0
N366 N 0.79154 0.3264 0.15787 0.0
C367 C 0.78508 0.34041 0.12042 0.0
H368 H 0.79765 0.3333 0.24509 0.0
Co369 Co 0.79421 0.29426 0.1481 0.0
C370 C 0.81862 0.30024 0.03511 0.0
O371 O 0.80792 0.27304 0.0309 0.0
N372 N 0.79685 0.26158 0.13895 0.0
C373 C 0.78724 0.21747 0.12849 0.0
C374 C 0.77653 0.23519 0.12675 0.0
C375 C 0.8197 0.25916 0.14754 0.0
N376 N 0.81433 0.23261 0.14212 0.0
O377 O 0.82782 0.31135 0.19242 0.0
H378 H 0.75499 0.22871 0.11841 0.0
H379 H 0.83992 0.27641 0.15887 0.0
O380 O 0.81517 0.31065 0.07942 0.0
C381 C 0.82282 0.30122 0.24114 0.0
O382 O 0.79819 0.27932 0.25114 0.0
N383 N 0.75966 0.2775 0.11257 0.0
C384 C 0.70438 0.2588 0.08516 0.0
C385 C 0.72527 0.27036 0.04501 0.0
C386 C 0.75294 0.27954 0.05947 0.0
C387 C 0.73937 0.26523 0.1514 0.0
C388 C 0.71152 0.25541 0.13849 0.0
H389 H 0.76869 0.29016 0.02873 0.0
H390 H 0.74515 0.26426 0.19339 0.0
H391 H 0.78105 0.33481 0.07763 0.0
H392 H 0.78767 0.37491 0.22733 0.0
H393 H 0.77566 0.19496 0.12327 0.0
H394 H 0.72044 0.27354 1.00348 0.0
H395 H 0.69602 0.24703 0.17081 0.0
C396 C 0.47318 0.644 0.88762 0.0
C397 C 0.44894 0.61924 0.89826 0.0
N398 N 0.44189 0.61949 0.95096 0.0
N399 N 0.4814 0.65958 0.93364 0.0
C400 C 0.46195 0.64401 0.97147 0.0
H401 H 0.48316 0.65081 0.84812 0.0
Co402 Co 0.51064 0.69604 0.94233 0.0
C403 C 0.5303 0.69717 0.0589 0.0
O404 O 0.54359 0.72464 0.06139 0.0
N405 N 0.54034 0.73318 0.95079 0.0
C406 C 0.56524 0.77977 0.95154 0.0
C407 C 0.53883 0.75689 0.95325 0.0
C408 C 0.56801 0.74238 0.94775 0.0
N409 N 0.58354 0.7706 0.94744 0.0
O410 O 0.53464 0.68555 0.90406 0.0
H411 H 0.51982 0.75785 0.95345 0.0
H412 H 0.57662 0.72866 0.9439 0.0
O413 O 0.5179 0.68481 1.01453 0.0
C414 C 0.53919 0.69561 0.85528 0.0
O415 O 0.53207 0.71448 0.84362 0.0
N416 N 0.48538 0.70578 0.9709 0.0
C417 C 0.44239 0.71739 0.9857 0.0
C418 C 0.45716 0.71578 0.03108 0.0
C419 C 0.47862 0.70959 0.02284 0.0
C420 C 0.47157 0.70799 0.92675 0.0
C421 C 0.45001 0.71362 0.93315 0.0
H422 H 0.48926 0.70761 0.05801 0.0
H423 H 0.47733 0.70503 0.886 0.0
H424 H 0.46169 0.65114 1.01264 0.0
H425 H 0.43635 0.60332 0.86855 0.0
H426 H 0.57043 0.80148 0.94981 0.0
H427 H 0.45183 0.71875 0.07225 0.0
H428 H 0.4395 0.71526 0.89703 0.0
C429 C 0.30831 0.7672 0.83522 0.0
C430 C 0.31966 0.75028 0.84255 0.0
N431 N 0.32946 0.75371 0.89417 0.0
N432 N 0.31105 0.78141 0.88183 0.0
C433 C 0.32399 0.77266 0.91717 0.0
H434 H 0.2979 0.76839 0.79868 0.0
Co435 Co 0.29459 0.80327 0.89186 0.0
C436 C 0.33952 0.83222 0.98252 0.0
O437 O 0.36219 0.83883 0.95425 0.0
N438 N 0.27762 0.82484 0.90096 0.0
C439 C 0.26941 0.85921 0.92181 0.0
C440 C 0.28554 0.84739 0.93335 0.0
C441 C 0.25652 0.82327 0.87049 0.0
N442 N 0.25138 0.84423 0.88169 0.0
O443 O 0.32262 0.83185 0.8444 0.0
H444 H 0.30281 0.85583 0.96172 0.0
H445 H 0.24624 0.80803 0.83837 0.0
O446 O 0.31574 0.81955 0.95911 0.0
C447 C 0.3132 0.8286 0.79528 0.0
O448 O 0.28705 0.80946 0.78674 0.0
N449 N 0.26629 0.77381 0.93165 0.0
C450 C 0.23809 0.71733 0.95771 0.0
C451 C 0.25545 0.73711 0.99652 0.0
C452 C 0.26932 0.76552 0.98284 0.0
C453 C 0.24629 0.75531 0.897 0.0
C454 C 0.23179 0.72677 0.90932 0.0
H455 H 0.28489 0.77992 1.01093 0.0
H456 H 0.24453 0.76208 0.85629 0.0
H457 H 0.32814 0.77892 0.95964 0.0
H458 H 0.32064 0.73652 0.8122 0.0
H459 H 0.27153 0.87798 0.94034 0.0
H460 H 0.26051 0.73051 0.03461 0.0
H461 H 0.2186 0.71211 0.87822 0.0
C462 C 0.24957 0.54292 0.90022 0.0
C463 C 0.26038 0.57147 0.90137 0.0
N464 N 0.24155 0.57663 0.92558 0.0
N465 N 0.22425 0.53026 0.92433 0.0
C466 C 0.21976 0.55132 0.93851 0.0
H467 H 0.25978 0.53215 0.88392 0.0
Co468 Co 0.20155 0.49233 0.93905 0.0
C469 C 0.16833 0.49437 0.03819 0.0
O470 O 0.14411 0.47246 0.02603 0.0
N471 N 0.179 0.45426 0.95404 0.0
C472 C 0.1585 0.41289 0.99609 0.0
C473 C 0.17491 0.44133 1.00308 0.0
C474 C 0.16543 0.43325 0.91781 0.0
N475 N 0.15269 0.4079 0.94234 0.0
O476 O 0.17292 0.4925 0.89395 0.0
H477 H 0.18393 0.45185 0.04135 0.0
H478 H 0.16516 0.43631 0.87411 0.0
O479 O 0.18912 0.50203 1.00611 0.0
C480 C 0.1788 0.48985 0.84431 0.0
O481 O 0.19994 0.48575 0.83585 0.0
N482 N 0.23093 0.49244 0.97661 0.0
C483 C 0.28538 0.50644 1.00172 0.0
C484 C 0.26985 0.51312 0.03797 0.0
C485 C 0.2427 0.50634 0.02418 0.0
C486 C 0.24419 0.48243 0.94496 0.0
C487 C 0.27155 0.48935 0.95648 0.0
H488 H 0.23237 0.51437 0.0495 0.0
H489 H 0.23459 0.47167 0.90718 0.0
H490 H 0.20123 0.54823 0.95956 0.0
H491 H 0.28053 0.58721 0.88582 0.0
H492 H 0.15228 0.39706 0.02773 0.0
H493 H 0.27929 0.5255 0.07434 0.0
H494 H 0.28244 0.48369 0.92692 0.0
C495 C 0.38674 0.79521 0.43687 0.0
C496 C 0.36564 0.76795 0.43077 0.0
N497 N 0.34446 0.76816 0.40396 0.0
N498 N 0.37902 0.81241 0.41316 0.0
C499 C 0.35296 0.79535 0.39431 0.0
H500 H 0.40675 0.80205 0.45601 0.0
Co501 Co 0.40139 0.85098 0.4057 0.0
C502 C 0.36478 0.85119 0.30886 0.0
O503 O 0.34512 0.85289 0.33564 0.0
N504 N 0.42378 0.88969 0.39826 0.0
C505 C 0.44839 0.93236 0.36261 0.0
C506 C 0.43498 0.90415 0.35156 0.0
C507 C 0.43106 0.90949 0.43718 0.0
N508 N 0.44577 0.93569 0.41659 0.0
O509 O 0.37491 0.85562 0.45008 0.0
H510 H 0.43304 0.89482 0.31172 0.0
H511 H 0.42559 0.90487 0.47988 0.0
O512 O 0.38424 0.8503 0.3352 0.0
C513 C 0.38189 0.85443 0.4998 0.0
O514 O 0.40397 0.85181 0.5079 0.0
N515 N 0.42793 0.84553 0.36914 0.0
C516 C 0.45687 0.81715 0.35493 0.0
C517 C 0.43518 0.81248 0.31908 0.0
C518 C 0.42088 0.82703 0.32679 0.0
C519 C 0.45146 0.85323 0.39902 0.0
C520 C 0.46649 0.83931 0.39227 0.0
H521 H 0.40173 0.82014 0.30431 0.0
H522 H 0.45638 0.86739 0.43321 0.0
H523 H 0.34069 0.80255 0.37261 0.0
H524 H 0.36585 0.74942 0.44486 0.0
H525 H 0.45841 0.94901 0.33271 0.0
H526 H 0.4271 0.79529 0.2902 0.0
H527 H 0.48296 0.84321 0.42106 0.0
C528 C 0.21118 0.59891 0.4998 0.0
C529 C 0.2379 0.60462 0.50987 0.0
N530 N 0.24089 0.58395 0.48806 0.0
N531 N 0.19734 0.57495 0.47069 0.0
C532 C 0.21592 0.56588 0.46588 0.0
H533 H 0.20234 0.61111 0.51506 0.0
Co534 Co 0.15912 0.55667 0.45242 0.0
C535 C 0.1838 0.54545 0.3509 0.0
O536 O 0.20677 0.56986 0.35526 0.0
N537 N 0.1213 0.53866 0.43636 0.0
C538 C 0.07993 0.51595 0.39569 0.0
C539 C 0.10831 0.52873 0.38793 0.0
C540 C 0.10054 0.5322 0.47251 0.0
N541 N 0.07506 0.51804 0.44913 0.0
O542 O 0.15349 0.52653 0.50116 0.0
H543 H 0.11865 0.53023 0.34947 0.0
H544 H 0.10409 0.53775 0.51533 0.0
O545 O 0.16471 0.53795 0.38754 0.0
C546 C 0.15142 0.53317 0.55052 0.0
O547 O 0.15196 0.55699 0.55869 0.0
N548 N 0.16428 0.58779 0.41079 0.0
C549 C 0.19169 0.64264 0.37505 0.0
C550 C 0.1844 0.62083 0.33753 0.0
C551 C 0.16957 0.59313 0.35611 0.0
C552 C 0.16541 0.6081 0.44406 0.0
C553 C 0.17957 0.63603 0.42728 0.0
H554 H 0.16436 0.57656 0.32716 0.0
H555 H 0.15862 0.6031 0.48621 0.0
H556 H 0.21112 0.54612 0.44757 0.0
H557 H 0.25391 0.62255 0.53171 0.0
H558 H 0.06418 0.50515 0.36463 0.0
H559 H 0.19222 0.62517 0.29586 0.0
H560 H 0.18404 0.65224 0.45715 0.0
C561 C 0.45917 0.65534 0.53505 0.0
C562 C 0.45413 0.6772 0.52893 0.0
N563 N 0.46325 0.68854 0.479 0.0
N564 N 0.47101 0.65277 0.48886 0.0
C565 C 0.47349 0.6735 0.45551 0.0
H566 H 0.45306 0.64111 0.56956 0.0
Co567 Co 0.47584 0.62252 0.47568 0.0
C568 C 0.49374 0.62796 0.35879 0.0
O569 O 0.47889 0.60063 0.35401 0.0
N570 N 0.48058 0.59091 0.464 0.0
C571 C 0.47172 0.54682 0.4578 0.0
C572 C 0.46115 0.56439 0.45007 0.0
C573 C 0.50318 0.58878 0.47766 0.0
N574 N 0.49807 0.56222 0.47563 0.0
O575 O 0.51037 0.64162 0.51613 0.0
H576 H 0.44007 0.55755 0.4371 0.0
H577 H 0.52251 0.60588 0.4931 0.0
O578 O 0.49466 0.63933 0.40514 0.0
C579 C 0.50652 0.6324 0.56545 0.0
O580 O 0.48265 0.60993 0.57753 0.0
N581 N 0.44017 0.60432 0.44442 0.0
C582 C 0.3837 0.58721 0.43358 0.0
C583 C 0.40284 0.6035 0.39257 0.0
C584 C 0.4312 0.61219 0.39908 0.0
C585 C 0.42157 0.58748 0.48318 0.0
C586 C 0.39326 0.57824 0.47807 0.0
H587 H 0.4459 0.62728 0.37044 0.0
H588 H 0.42912 0.58266 0.52021 0.0
H589 H 0.48051 0.6762 0.4134 0.0
H590 H 0.44341 0.68346 0.55773 0.0
H591 H 0.46042 0.52425 0.45365 0.0
H592 H 0.39636 0.61141 0.35825 0.0
H593 H 0.37923 0.56562 0.51057 0.0
H594 H 0.1356 0.15296 0.25073 0.0
H595 H 0.10286 0.08113 0.35875 0.0
H596 H 0.05696 0.07645 0.35429 0.0
H597 H 0.02456 0.08853 0.3101 0.0
H598 H 0.05598 0.15944 0.20131 0.0
H599 H 0.10378 0.16827 0.21423 0.0
C600 C 0.11853 0.13656 0.27398 0.0
C601 C 0.12283 0.11729 0.30449 0.0
C602 C 0.09172 0.13325 0.26968 0.0
C603 C 0.10051 0.09654 0.33535 0.0
C604 C 0.07398 0.09346 0.33208 0.0
C605 C 0.04197 0.10582 0.28921 0.0
C606 C 0.03701 0.12288 0.25367 0.0
C607 C 0.06915 0.11093 0.29763 0.0
C608 C 0.05957 0.14586 0.22812 0.0
C609 C 0.08676 0.15092 0.23573 0.0
H610 H 0.84972 0.92826 0.22215 0.0
H611 H 0.86739 0.91433 0.38781 0.0
H612 H 0.87417 0.95992 0.41494 0.0
H613 H 0.87971 0.00569 0.38928 0.0
H614 H 0.86686 0.02041 0.22017 0.0
H615 H 0.8529 0.97259 0.19767 0.0
C616 C 0.85509 0.93515 0.26421 0.0
C617 C 0.85844 0.91798 0.30252 0.0
C618 C 0.85971 0.96166 0.27919 0.0
C619 C 0.86459 0.92699 0.3573 0.0
C620 C 0.86867 0.9532 0.37282 0.0
C621 C 0.87383 -0.00146 0.34748 0.0
C622 C 0.87454 0.01716 0.30683 0.0
C623 C 0.86701 0.97105 0.33372 0.0
C624 C 0.8661 0.00689 0.25316 0.0
C625 C 0.85845 0.97944 0.23973 0.0
H626 H 0.96726 0.90256 0.22868 0.0
H627 H -0.00929 0.90561 0.39818 0.0
H628 H 0.038 0.94388 0.37681 0.0
H629 H 0.07232 0.97689 0.30911 0.0
H630 H 0.04715 0.97418 0.14105 0.0
H631 H 0.00085 0.93476 0.16217 0.0
C632 C 0.98282 0.91137 0.2609 0.0
C633 C 0.97572 0.90108 0.31477 0.0
C634 C 0.0096 0.93322 0.24833 0.0
C635 C -0.00422 0.91321 0.35641 0.0
C636 C 0.02278 0.93495 0.3441 0.0
C637 C 0.05672 0.96727 0.27721 0.0
C638 C 0.06298 0.97808 0.22351 0.0
C639 C 0.02992 0.9451 0.29012 0.0
C640 C 0.04261 0.96604 0.18251 0.0
C641 C 0.01622 0.94363 0.19464 0.0
H642 H 0.13052 0.04845 0.75781 0.0
H643 H 0.04075 -0.00195 0.76002 0.0
H644 H 0.03685 0.03959 0.74316 0.0
H645 H 0.0588 0.09021 0.73081 0.0
H646 H 0.1484 0.14162 0.73271 0.0
H647 H 0.1527 0.09965 0.74422 0.0
C648 C 0.11015 0.0466 0.75405 0.0
C649 C 0.08595 0.02024 0.76025 0.0
C650 C 0.1081 0.07068 0.74482 0.0
C651 C 0.05965 0.01814 0.75615 0.0
C652 C 0.05742 0.04185 0.74616 0.0
C653 C 0.07929 0.09214 0.73253 0.0
C654 C 0.1033 0.11877 0.72971 0.0
C655 C 0.08148 0.06818 0.74068 0.0
C656 C 0.1297 0.12121 0.73404 0.0
C657 C 0.13211 0.09728 0.74086 0.0
H658 H 0.9591 0.07939 0.7706 0.0
H659 H 0.01609 0.05473 0.83609 0.0
H660 H 0.98107 0.00558 0.82485 0.0
H661 H 0.93273 0.96966 0.8059 0.0
H662 H 0.87522 -0.00663 0.74044 0.0
H663 H 0.91211 0.04285 0.74066 0.0
C664 C 0.96399 0.06327 0.78151 0.0
C665 C -0.01005 0.07076 0.80551 0.0
C666 C 0.94365 0.0349 0.77496 0.0
C667 C -0.00401 0.04957 0.81925 0.0
C668 C 0.97604 0.02143 0.81246 0.0
C669 C 0.92853 0.98571 0.79069 0.0
C670 C 0.90147 0.97818 0.77351 0.0
C671 C 0.94958 0.01388 0.7919 0.0
C672 C 0.89604 -0.00113 0.7536 0.0
C673 C 0.91703 0.02709 0.75423 0.0
H674 H 0.00323 0.9103 0.69777 0.0
H675 H -0.00597 0.82948 0.73519 0.0
H676 H 0.94795 0.81413 0.77419 0.0
H677 H 0.91257 0.82574 0.80672 0.0
H678 H 0.92123 0.90556 0.76445 0.0
H679 H 0.96526 0.91922 0.71736 0.0
C680 C -0.00911 0.88894 0.71245 0.0
C681 C 0.0024 0.87124 0.71408 0.0
C682 C 0.96449 0.88027 0.7348 0.0
C683 C 0.98598 0.84378 0.73432 0.0
C684 C 0.95963 0.83498 0.75676 0.0
C685 C 0.92413 0.84597 0.78667 0.0
C686 C 0.91417 0.86485 0.78938 0.0
C687 C 0.94914 0.85343 0.75899 0.0
C688 C 0.92877 0.89085 0.76271 0.0
C689 C 0.95386 0.89862 0.73595 0.0
H690 H 0.7622 0.51487 0.6272 0.0
H691 H 0.71371 0.46733 0.76649 0.0
H692 H 0.74489 0.44821 0.77977 0.0
H693 H 0.78495 0.44399 0.74955 0.0
H694 H 0.82977 0.48791 0.60314 0.0
H695 H 0.80198 0.5105 0.59683 0.0
C696 C 0.7587 0.5006 0.66086 0.0
C697 C 0.7358 0.49256 0.69595 0.0
C698 C 0.7763 0.4893 0.66739 0.0
C699 C 0.73113 0.47363 0.73878 0.0
C700 C 0.74901 0.46283 0.74645 0.0
C701 C 0.78864 0.4583 0.7159 0.0
C702 C 0.80976 0.46401 0.67707 0.0
C703 C 0.77149 0.47027 0.71055 0.0
C704 C 0.81436 0.48333 0.63472 0.0
C705 C 0.7981 0.49607 0.63041 0.0
H706 H 0.62354 0.3685 0.63403 0.0
H707 H 0.61545 0.39744 0.47395 0.0
H708 H 0.60465 0.35251 0.43439 0.0
H709 H 0.5945 0.30367 0.44645 0.0
H710 H 0.59741 0.27387 0.60828 0.0
H711 H 0.61243 0.32024 0.6465 0.0
C712 C 0.61897 0.36499 0.59062 0.0
C713 C 0.62005 0.3864 0.55732 0.0
C714 C 0.6116 0.3388 0.56856 0.0
C715 C 0.61508 0.38155 0.5007 0.0
C716 C 0.60863 0.35574 0.47803 0.0
C717 C 0.59862 0.3076 0.48993 0.0
C718 C 0.5949 0.28571 0.52476 0.0
C719 C 0.60645 0.33408 0.5117 0.0
C720 C 0.59998 0.29058 0.58112 0.0
C721 C 0.60862 0.31701 0.60281 0.0
H722 H 0.66543 0.22957 0.50876 0.0
H723 H 0.66302 0.21581 0.68328 0.0
H724 H 0.71077 0.25531 0.69172 0.0
H725 H 0.75086 0.29711 0.65027 0.0
H726 H 0.7511 0.31149 0.47647 0.0
H727 H 0.70655 0.26816 0.46666 0.0
C728 C 0.67563 0.23457 0.54845 0.0
C729 C 0.6608 0.21969 0.59529 0.0
C730 C 0.70251 0.25772 0.55312 0.0
C731 C 0.67407 0.22698 0.64664 0.0
C732 C 0.70127 0.24962 0.65147 0.0
C733 C 0.74129 0.29038 0.61026 0.0
C734 C 0.75392 0.30752 0.56424 0.0
C735 C 0.71535 0.26568 0.60518 0.0
C736 C 0.7414 0.29882 0.51254 0.0
C737 C 0.71604 0.27403 0.5069 0.0
H738 H 0.80623 0.41737 0.14044 0.0
H739 H 0.73384 0.34028 0.09198 0.0
H740 H 0.71001 0.36581 0.06473 0.0
H741 H 0.70786 0.40947 0.06723 0.0
H742 H 0.78098 0.48685 0.11269 0.0
H743 H 0.80691 0.46219 0.1272 0.0
C744 C 0.78549 0.40644 0.12275 0.0
C745 C 0.77157 0.37717 0.11849 0.0
C746 C 0.77218 0.42132 0.10674 0.0
C747 C 0.7448 0.3629 0.09532 0.0
C748 C 0.7312 0.37746 0.08007 0.0
C749 C 0.72974 0.42096 0.07855 0.0
C750 C 0.74258 0.44983 0.08899 0.0
C751 C 0.74439 0.40658 0.08719 0.0
C752 C 0.77085 0.46465 0.1039 0.0
C753 C 0.78555 0.4505 0.11285 0.0
H754 H 0.55521 0.42753 0.10579 0.0
H755 H 0.62582 0.42338 0.04334 0.0
H756 H 0.59484 0.38248 0.9884 0.0
H757 H 0.54773 0.34393 0.97061 0.0
H758 H 0.47662 0.34749 0.03289 0.0
H759 H 0.50777 0.39292 0.07466 0.0
C760 C 0.56372 0.41783 0.07947 0.0
C761 C 0.59264 0.4281 0.07917 0.0
C762 C 0.54574 0.39423 0.04819 0.0
C763 C 0.60361 0.41582 0.0442 0.0
C764 C 0.5859 0.39236 1.01301 0.0
C765 C 0.53887 0.35507 0.99129 0.0
C766 C 0.50981 0.34204 0.9992 0.0
C767 C 0.55689 0.38085 1.01615 0.0
C768 C 0.49891 0.35683 0.02684 0.0
C769 C 0.51672 0.38273 0.05105 0.0
H770 H 0.69158 0.29549 0.04001 0.0
H771 H 0.65435 0.21233 0.10862 0.0
H772 H 0.60801 0.20765 0.10233 0.0
H773 H 0.57881 0.2287 0.08319 0.0
H774 H 0.61674 0.31254 1.01737 0.0
H775 H 0.66226 0.31567 1.01728 0.0
C776 C 0.67321 0.27612 0.05237 0.0
C777 C 0.67616 0.25416 0.07418 0.0
C778 C 0.64693 0.27394 0.05005 0.0
C779 C 0.6524 0.22942 0.09146 0.0
C780 C 0.62601 0.22681 0.08809 0.0
C781 C 0.59698 0.24748 0.06819 0.0
C782 C 0.59444 0.27041 0.05068 0.0
C783 C 0.62311 0.24915 0.06839 0.0
C784 C 0.61824 0.29479 0.032 0.0
C785 C 0.64423 0.29652 0.0315 0.0
H786 H 0.37054 0.77539 0.96964 0.0
H787 H 0.31947 0.70151 0.87363 0.0
H788 H 0.34761 0.68113 0.903 0.0
H789 H 0.3906 0.68741 0.94442 0.0
H790 H 0.44355 0.76208 0.03646 0.0
H791 H 0.41036 0.77872 1.02211 0.0
C792 C 0.36526 0.75459 0.95621 0.0
C793 C 0.34338 0.74022 0.91853 0.0
C794 C 0.38191 0.74322 0.97252 0.0
C795 C 0.33672 0.71329 0.90136 0.0
C796 C 0.3527 0.70157 0.91837 0.0
C797 C 0.39447 0.70701 0.96242 0.0
C798 C 0.4195 0.72371 0.99084 0.0
C799 C 0.37595 0.71681 0.95217 0.0
C800 C 0.42433 0.74891 1.01453 0.0
C801 C 0.40553 0.75854 1.00574 0.0
H802 H 0.27563 0.70091 0.97543 0.0
H803 H 0.18826 0.66875 0.94298 0.0
H804 H 0.18127 0.6214 0.9327 0.0
H805 H 0.20107 0.59011 0.92594 0.0
H806 H 0.28902 0.62349 0.9537 0.0
H807 H 0.29477 0.66947 0.97341 0.0
C808 C 0.25489 0.68339 0.96768 0.0
C809 C 0.23235 0.68812 0.96091 0.0
C810 C 0.25131 0.65662 0.96003 0.0
C811 C 0.20579 0.66545 0.94893 0.0
C812 C 0.20188 0.63849 0.94272 0.0
C813 C 0.22141 0.60745 0.93673 0.0
C814 C 0.24464 0.60352 0.93797 0.0
C815 C 0.22463 0.63396 0.94701 0.0
C816 C 0.27096 0.62616 0.95151 0.0
C817 C 0.27423 0.6524 0.96299 0.0
H818 H 0.31993 0.55994 0.03535 0.0
H819 H 0.32118 0.48744 0.97225 0.0
H820 H 0.37107 0.51623 0.95373 0.0
H821 H 0.41285 0.56338 0.94454 0.0
H822 H 0.41105 0.63472 1.01119 0.0
H823 H 0.36289 0.60472 0.04077 0.0
C824 C 0.33107 0.54996 1.01952 0.0
C825 C 0.31646 0.52152 1.00428 0.0
C826 C 0.35969 0.56656 1.00906 0.0
C827 C 0.33163 0.50941 0.98308 0.0
C828 C 0.3602 0.52585 0.9725 0.0
C829 C 0.40191 0.5721 0.96637 0.0
C830 C 0.41524 0.60111 0.97535 0.0
C831 C 0.37418 0.55468 0.98331 0.0
C832 C 0.4012 0.61238 1.00416 0.0
C833 C 0.37362 0.59528 1.02075 0.0
H834 H 0.50053 0.73609 0.42891 0.0
H835 H 0.41355 0.68512 0.46969 0.0
H836 H 0.40352 0.7194 0.4273 0.0
H837 H 0.41999 0.76508 0.38505 0.0
H838 H 0.50755 0.81923 0.35259 0.0
H839 H 0.51717 0.78254 0.38464 0.0
C840 C 0.47946 0.73264 0.4279 0.0
C841 C 0.45774 0.70844 0.45234 0.0
C842 C 0.47408 0.75289 0.40491 0.0
C843 C 0.43046 0.70388 0.45149 0.0
C844 C 0.42477 0.72335 0.42715 0.0
C845 C 0.44109 0.76855 0.38373 0.0
C846 C 0.463 0.79441 0.36546 0.0
C847 C 0.44646 0.74806 0.40449 0.0
C848 C 0.49039 0.7992 0.3657 0.0
C849 C 0.49585 0.77834 0.38435 0.0
H850 H 0.29385 0.76383 0.40251 0.0
H851 H 0.33715 0.71881 0.3685 0.0
H852 H 0.293 0.6768 0.34655 0.0
H853 H 0.24215 0.65173 0.34662 0.0
H854 H 0.19794 0.6949 0.38879 0.0
H855 H 0.24235 0.73911 0.39651 0.0
C856 C 0.29353 0.7449 0.38944 0.0
C857 C 0.31858 0.74423 0.38755 0.0
C858 C 0.26796 0.72065 0.3781 0.0
C859 C 0.31803 0.71958 0.37111 0.0
C860 C 0.29285 0.69566 0.35825 0.0
C861 C 0.2422 0.67102 0.35562 0.0
C862 C 0.2169 0.67026 0.36628 0.0
C863 C 0.26768 0.6958 0.36275 0.0
C864 C 0.21723 0.69517 0.37976 0.0
C865 C 0.24258 0.7203 0.3847 0.0
H866 H 0.35781 0.59493 0.51965 0.0
H867 H 0.34555 0.57078 0.34948 0.0
H868 H 0.2988 0.56549 0.35231 0.0
H869 H 0.26211 0.56955 0.40319 0.0
H870 H 0.27631 0.5957 0.57202 0.0
H871 H 0.32147 0.59783 0.57028 0.0
C872 C 0.34474 0.58801 0.48336 0.0
C873 C 0.35497 0.58289 0.4346 0.0
C874 C 0.31824 0.58534 0.48524 0.0
C875 C 0.3381 0.57481 0.3875 0.0
C876 C 0.31139 0.57171 0.3892 0.0
C877 C 0.275 0.57525 0.43965 0.0
C878 C 0.26602 0.58237 0.48778 0.0
C879 C 0.3013 0.5771 0.43782 0.0
C880 C 0.28297 0.59025 0.53462 0.0
C881 C 0.30873 0.59148 0.53357 0.0
H882 H 0.35119 0.13241 0.0373 0.0
H883 H 0.39576 0.19676 0.15799 0.0
H884 H 0.35546 0.17531 0.21861 0.0
H885 H 0.30692 0.13876 0.23684 0.0
H886 H 0.26186 0.07562 0.11476 0.0
H887 H 0.30273 0.09626 0.055 0.0
C888 C 0.35203 0.14192 0.07658 0.0
C889 C 0.37662 0.16609 0.09292 0.0
C890 C 0.32861 0.12969 0.11109 0.0
C891 C 0.37737 0.17788 0.14449 0.0
C892 C 0.35423 0.16572 0.17921 0.0
C893 C 0.30624 0.12946 0.19737 0.0
C894 C 0.28149 0.10582 0.1801 0.0
C895 C 0.32974 0.14162 0.16297 0.0
C896 C 0.28064 0.09406 0.12858 0.0
C897 C 0.30401 0.10578 0.0945 0.0
H898 H 0.84934 0.24927 0.22746 0.0
H899 H 0.81828 0.19098 0.09313 0.0
H900 H 0.84565 0.16979 0.1247 0.0
H901 H 0.87644 0.16646 0.1937 0.0
H902 H 0.9052 0.22329 0.33061 0.0
H903 H 0.88075 0.24663 0.29501 0.0
C904 C 0.84902 0.23227 0.20462 0.0
C905 C 0.83211 0.22177 0.15787 0.0
C906 C 0.86415 0.21985 0.22383 0.0
C907 C 0.83122 0.19929 0.12927 0.0
C908 C 0.84681 0.18723 0.14732 0.0
C909 C 0.87756 0.18416 0.21523 0.0
C910 C 0.8925 0.19318 0.26465 0.0
C911 C 0.86305 0.19711 0.19499 0.0
C912 C 0.89354 0.21585 0.29279 0.0
C913 C 0.87968 0.22924 0.27236 0.0
H914 H 0.78859 0.6085 0.28854 0.0
H915 H 0.75187 0.62684 0.15024 0.0
H916 H 0.77279 0.67566 0.17963 0.0
H917 H 0.80247 0.71318 0.24342 0.0
H918 H 0.83836 0.69457 0.38307 0.0
H919 H 0.81687 0.64571 0.35439 0.0
C920 C 0.78547 0.62332 0.26464 0.0
C921 C 0.76902 0.61431 0.21706 0.0
C922 C 0.79725 0.65116 0.28219 0.0
C923 C 0.7645 0.63345 0.18702 0.0
C924 C 0.77642 0.66128 0.20381 0.0
C925 C 0.80517 0.69836 0.26817 0.0
C926 C 0.82203 0.70753 0.31531 0.0
C927 C 0.79282 0.67035 0.25137 0.0
C928 C 0.82572 0.68809 0.34632 0.0
C929 C 0.81343 0.66017 0.32997 0.0
H930 H 0.07908 0.28372 0.86607 0.0
H931 H 0.13464 0.31565 0.72696 0.0
H932 H 0.1572 0.36255 0.76634 0.0
H933 H 0.16289 0.39395 0.84287 0.0
H934 H 0.10885 0.36127 0.98369 0.0
H935 H 0.08437 0.31489 0.94164 0.0
C936 C 0.0963 0.30077 0.84446 0.0
C937 C 0.10525 0.29592 0.79375 0.0
C938 C 0.1096 0.32753 0.8679 0.0
C939 C 0.12712 0.31865 0.76581 0.0
C940 C 0.14019 0.3455 0.7885 0.0
C941 C 0.14553 0.37675 0.86397 0.0
C942 C 0.13766 0.38097 0.9163 0.0
C943 C 0.1318 0.3501 0.8398 0.0
C944 C 0.11543 0.3584 0.94363 0.0
C945 C 0.10139 0.33196 0.91953 0.0
H946 H 0.61443 0.75697 0.88304 0.0
H947 H 0.61843 0.82263 0.98492 0.0
H948 H 0.66745 0.85299 0.96034 0.0
H949 H 0.70897 0.86079 0.90976 0.0
H950 H 0.70511 0.79535 0.8074 0.0
H951 H 0.6562 0.76473 0.83272 0.0
C952 C 0.62616 0.77775 0.90053 0.0
C953 C 0.61289 0.78753 0.93598 0.0
C954 C 0.65424 0.79512 0.88585 0.0
C955 C 0.6282 0.81474 0.95736 0.0
C956 C 0.65619 0.83206 0.94333 0.0
C957 C 0.69734 0.83999 0.89237 0.0
C958 C 0.71061 0.83041 0.85646 0.0
C959 C 0.66934 0.82254 0.90728 0.0
C960 C 0.69539 0.80313 0.83532 0.0
C961 C 0.66744 0.78566 0.84974 0.0
H962 H 0.25863 0.89586 0.86821 0.0
H963 H 0.20421 0.80916 0.82594 0.0
H964 H 0.17474 0.82199 0.77287 0.0
H965 H 0.16361 0.85798 0.74132 0.0
H966 H 0.2172 0.94402 0.78808 0.0
H967 H 0.24789 0.93137 0.83701 0.0
C968 C 0.24013 0.87965 0.84815 0.0
C969 C 0.23354 0.85155 0.85153 0.0
C970 C 0.22324 0.88714 0.8183 0.0
C971 C 0.20985 0.83097 0.82381 0.0
C972 C 0.19296 0.83829 0.79357 0.0
C973 C 0.18225 0.87389 0.76163 0.0
C974 C 0.18832 0.90185 0.76123 0.0
C975 C 0.19942 0.86632 0.79066 0.0
C976 C 0.21221 0.92236 0.78827 0.0
C977 C 0.22967 0.91513 0.8162 0.0
H978 H 0.95078 0.45402 0.52906 0.0
H979 H -0.00874 0.45757 0.68249 0.0
H980 H 0.03688 0.48504 0.63913 0.0
H981 H 0.06485 0.50485 0.55663 0.0
H982 H 0.02463 0.50255 0.40339 0.0
H983 H 0.97915 0.47768 0.44798 0.0
C984 C 0.96952 0.4613 0.55339 0.0
C985 C 0.96759 0.45358 0.60896 0.0
C986 C -0.00432 0.477 0.52812 0.0
C987 C -0.0078 0.46289 0.6395 0.0
C988 C 0.01827 0.47864 0.61476 0.0
C989 C 0.04631 0.49951 0.53296 0.0
C990 C 0.04835 0.50548 0.47643 0.0
C991 C 0.02023 0.48534 0.55888 0.0
C992 C 0.02379 0.49783 0.44665 0.0
C993 C -0.00228 0.48372 0.47221 0.0
H994 H 0.47939 0.51986 0.54711 0.0
H995 H 0.55331 0.58243 0.46484 0.0
H996 H 0.58149 0.56618 0.51356 0.0
H997 H 0.58449 0.53366 0.57844 0.0
H998 H 0.5106 0.47276 0.66439 0.0
H999 H 0.48279 0.48885 0.61517 0.0
C1000 C 0.50162 0.52963 0.53947 0.0
C1001 C 0.51434 0.55187 0.50188 0.0
C1002 C 0.51757 0.52065 0.56854 0.0
C1003 C 0.54323 0.56507 0.49332 0.0
C1004 C 0.55924 0.55585 0.52124 0.0
C1005 C 0.56244 0.52425 0.58734 0.0
C1006 C 0.54966 0.50197 0.62517 0.0
C1007 C 0.54661 0.53371 0.5591 0.0
C1008 C 0.52089 0.48971 0.63515 0.0
C1009 C 0.50499 0.49891 0.60705 0.0
H1010 H 0.48696 0.98697 0.38654 0.0
H1011 H 0.42501 0.94325 0.51201 0.0
H1012 H 0.43946 0.98726 0.55907 0.0
H1013 H 0.46852 0.03866 0.56285 0.0
H1014 H 0.52909 0.08222 0.43544 0.0
H1015 H 0.51587 0.03793 0.39027 0.0
C1016 C 0.47642 0.987 0.4239 0.0
C1017 C 0.45491 0.96167 0.44542 0.0
C1018 C 0.48442 0.01247 0.45027 0.0
C1019 C 0.44191 0.96223 0.49463 0.0
C1020 C 0.45001 0.98749 0.52149 0.0
C1021 C 0.4789 0.03834 0.52543 0.0
C1022 C 0.49955 0.06365 0.50231 0.0
C1023 C 0.47111 0.01276 0.49949 0.0
C1024 C 0.51274 0.06306 0.45352 0.0
C1025 C 0.50534 0.03772 0.42785 0.0
H1026 H 0.12139 0.01686 0.43047 0.0
H1027 H 0.19108 0.01189 0.36463 0.0
H1028 H 0.19921 -0.00247 0.45496 0.0
H1029 H 0.18615 0.98619 0.55315 0.0
H1030 H 0.11682 0.99265 0.61683 0.0
H1031 H 0.10924 0.00692 0.52699 0.0
C1032 C 0.13835 0.01255 0.43546 0.0
C1033 C 0.15547 0.01529 0.39036 0.0
C1034 C 0.14311 0.00475 0.48748 0.0
C1035 C 0.17744 0.00979 0.39832 0.0
C1036 C 0.18216 0.00169 0.45011 0.0
C1037 C 0.16955 0.99097 0.54748 0.0
C1038 C 0.15202 0.98818 0.59203 0.0
C1039 C 0.16515 -0.00084 0.49514 0.0
C1040 C 0.13054 -0.00562 0.58358 0.0
C1041 C 0.12614 0.00254 0.53204 0.0
H1042 H 0.00516 0.20907 0.61127 0.0
H1043 H 0.00294 0.13274 0.66089 0.0
H1044 H -0.00503 0.11652 0.56661 0.0
H1045 H -0.00879 0.12471 0.46935 0.0
H1046 H -0.00965 0.19906 0.41758 0.0
H1047 H -0.00308 0.21531 0.51311 0.0
C1048 C 0.00246 0.18868 0.60164 0.0
C1049 C 0.00511 0.1724 0.64357 0.0
C1050 C -0.00227 0.17928 0.54667 0.0
C1051 C 0.00143 0.14599 0.62989 0.0
C1052 C -0.00308 0.13666 0.57571 0.0
C1053 C -0.00739 0.14458 0.47879 0.0
C1054 C -0.00905 0.16098 0.43616 0.0
C1055 C -0.00435 0.15336 0.53367 0.0
C1056 C -0.00807 0.18623 0.44951 0.0
C1057 C -0.00439 0.19546 0.50417 0.0
H1058 H 0.78279 0.84093 0.61947 0.0
H1059 H 0.82842 0.8115 0.71624 0.0
H1060 H 0.84549 0.8009 0.63276 0.0
H1061 H 0.84961 0.80219 0.5329 0.0
H1062 H 0.80549 0.83273 0.43468 0.0
H1063 H 0.78564 0.84055 0.51808 0.0
C1064 C 0.79615 0.83183 0.62238 0.0
C1065 C 0.80421 0.827 0.67448 0.0
C1066 C 0.80637 0.82617 0.57388 0.0
C1067 C 0.82178 0.81543 0.67705 0.0
C1068 C 0.83166 0.80943 0.6292 0.0
C1069 C 0.83555 0.81045 0.52941 0.0
C1070 C 0.82919 0.81694 0.47724 0.0
C1071 C 0.82444 0.8151 0.57747 0.0
C1072 C 0.8108 0.82752 0.47405 0.0
C1073 C 0.79947 0.83204 0.52184 0.0
H1074 H 0.81285 0.28269 0.9286 0.0
H1075 H 0.84654 0.35736 0.02775 0.0
H1076 H 0.86003 0.38622 0.94494 0.0
H1077 H 0.86118 0.39032 0.84524 0.0
H1078 H 0.82637 0.31616 0.74459 0.0
H1079 H 0.81417 0.28695 0.82745 0.0
C1080 C 0.82343 0.3053 0.93221 0.0
C1081 C 0.82885 0.31782 0.98466 0.0
C1082 C 0.83066 0.3218 0.88421 0.0
C1083 C 0.84222 0.34714 0.98821 0.0
C1084 C 0.84985 0.36366 0.94079 0.0
C1085 C 0.85097 0.36775 0.84104 0.0
C1086 C 0.84477 0.35549 0.78842 0.0
C1087 C 0.84397 0.35121 0.88868 0.0
C1088 C 0.83138 0.32618 0.78436 0.0
C1089 C 0.82447 0.3095 0.8318 0.0
H1090 H 0.71319 0.57513 0.96697 0.0
H1091 H 0.63624 0.518 0.04938 0.0
H1092 H 0.61127 0.50718 0.96268 0.0
H1093 H 0.6129 0.50759 0.86273 0.0
H1094 H 0.68977 0.56245 0.77861 0.0
H1095 H 0.71295 0.58126 0.86659 0.0
C1096 C 0.69085 0.56083 0.96613 0.0
C1097 C 0.67675 0.54689 1.01444 0.0
C1098 C 0.67661 0.55422 0.91572 0.0
C1099 C 0.64774 0.5286 1.01268 0.0
C1100 C 0.63339 0.52239 0.96309 0.0
C1101 C 0.63453 0.52427 0.86367 0.0
C1102 C 0.64973 0.53339 0.81458 0.0
C1103 C 0.64785 0.53413 0.91419 0.0
C1104 C 0.67763 0.55517 0.81599 0.0
C1105 C 0.69097 0.56564 0.86634 0.0
H1106 H 0.4714 0.15248 0.70395 0.0
H1107 H 0.54859 0.22462 0.65211 0.0
H1108 H 0.55546 0.24448 0.74303 0.0
H1109 H 0.54077 0.24154 0.83783 0.0
H1110 H 0.46351 0.17076 0.89294 0.0
H1111 H 0.45566 0.1503 0.80075 0.0
C1112 C 0.48958 0.17269 0.71235 0.0
C1113 C 0.50948 0.18686 0.6704 0.0
C1114 C 0.49361 0.18419 0.76576 0.0
C1115 C 0.53291 0.21298 0.68275 0.0
C1116 C 0.53696 0.22444 0.73518 0.0
C1117 C 0.52217 0.22154 0.83016 0.0
C1118 C 0.50289 0.20767 0.8729 0.0
C1119 C 0.51765 0.21015 0.7771 0.0
C1120 C 0.47884 0.18191 0.86123 0.0
C1121 C 0.47431 0.17023 0.80834 0.0
H1122 H 0.4899 0.60966 0.25383 0.0
H1123 H 0.52393 0.6854 0.34962 0.0
H1124 H 0.53994 0.71345 0.26558 0.0
H1125 H 0.54196 0.7164 0.16448 0.0
H1126 H 0.50609 0.64031 0.06937 0.0
H1127 H 0.49333 0.61258 0.15359 0.0
C1128 C 0.50102 0.63232 0.25661 0.0
C1129 C 0.50561 0.64532 0.30834 0.0
C1130 C 0.50981 0.6483 0.20805 0.0
C1131 C 0.52005 0.67474 0.31063 0.0
C1132 C 0.52918 0.69082 0.26246 0.0
C1133 C 0.53165 0.69376 0.16205 0.0
C1134 C 0.52507 0.68054 0.1103 0.0
C1135 C 0.52387 0.67783 0.21087 0.0
C1136 C 0.51148 0.65113 0.10834 0.0
C1137 C 0.50409 0.63521 0.1566 0.0
H1138 H 0.38325 0.84596 0.05298 0.0
H1139 H 0.29814 0.82865 0.04908 0.0
H1140 H 0.29847 0.83364 0.14833 0.0
H1141 H 0.32237 0.84161 0.23761 0.0
H1142 H 0.40719 0.85805 0.24142 0.0
H1143 H 0.40738 0.85469 0.14199 0.0
C1144 C 0.36484 0.84351 0.07372 0.0
C1145 C 0.34074 0.83695 0.04306 0.0
C1146 C 0.36499 0.84608 0.13139 0.0
C1147 C 0.31704 0.83365 0.07117 0.0
C1148 C 0.31716 0.83649 0.12821 0.0
C1149 C 0.34095 0.84459 0.21672 0.0
C1150 C 0.36465 0.84991 0.24758 0.0
C1151 C 0.34094 0.84249 0.15895 0.0
C1152 C 0.38847 0.85363 0.21934 0.0
C1153 C 0.38868 0.85181 0.16213 0.0
H1154 H 0.21318 0.56442 0.25613 0.0
H1155 H 0.13917 0.49396 0.32331 0.0
H1156 H 0.12696 0.47236 0.23225 0.0
H1157 H 0.13742 0.47373 0.13275 0.0
H1158 H 0.21109 0.54546 0.0675 0.0
H1159 H 0.22298 0.56636 0.15831 0.0
C1160 C 0.19447 0.54419 0.25127 0.0
C1161 C 0.17728 0.53077 0.29698 0.0
C1162 C 0.1873 0.53223 0.19873 0.0
C1163 C 0.15294 0.50472 0.28916 0.0
C1164 C 0.14586 0.49243 0.23693 0.0
C1165 C 0.15588 0.49408 0.13832 0.0
C1166 C 0.17335 0.50791 0.09304 0.0
C1167 C 0.1628 0.50608 0.19123 0.0
C1168 C 0.19732 0.53419 0.10135 0.0
C1169 C 0.20422 0.54618 0.15344 0.0
H1170 H 0.19243 0.05279 0.03036 0.0
H1171 H 0.15737 0.97723 0.1276 0.0
H1172 H 0.14911 0.9495 0.04399 0.0
H1173 H 0.14634 0.94655 0.94329 0.0
H1174 H 0.1797 0.02208 0.84618 0.0
H1175 H 0.19463 0.05021 0.93006 0.0
C1176 C 0.18329 0.03025 0.03342 0.0
C1177 C 0.1751 0.01699 0.08513 0.0
C1178 C 0.17821 0.01454 0.98523 0.0
C1179 C 0.16379 0.9879 0.08843 0.0
C1180 C 0.15892 0.97207 0.04057 0.0
C1181 C 0.15729 0.96921 0.94033 0.0
C1182 C 0.16161 0.98222 0.88845 0.0
C1183 C 0.16521 0.98512 0.98872 0.0
C1184 C 0.17614 0.01157 0.88541 0.0
C1185 C 0.18446 0.02761 0.93343 0.0
H1186 H 0.94949 0.16297 0.07879 0.0
H1187 H 0.02455 0.19919 0.17624 0.0
H1188 H 0.05278 0.21461 0.09239 0.0
H1189 H 0.05583 0.21234 0.99192 0.0
H1190 H 0.98061 0.17438 0.89473 0.0
H1191 H 0.95268 0.16534 0.97809 0.0
C1192 C 0.97206 0.1747 0.08182 0.0
C1193 C 0.9849 0.17977 0.13388 0.0
C1194 C -0.01194 0.18289 0.03343 0.0
C1195 C 0.01413 0.19518 0.13694 0.0
C1196 C 0.03025 0.20374 0.08889 0.0
C1197 C 0.03332 0.20243 0.98874 0.0
C1198 C 0.02031 0.19375 0.93694 0.0
C1199 C 0.01741 0.19689 0.03697 0.0
C1200 C -0.00882 0.18127 0.9338 0.0
C1201 C 0.9752 0.17595 0.98158 0.0
H1202 H 0.77396 0.83105 0.03143 0.0
H1203 H 0.80571 0.78677 0.93785 0.0
H1204 H 0.81181 0.7664 1.02244 0.0
H1205 H 0.81658 0.7687 0.12311 0.0
H1206 H 0.78721 0.81516 0.21644 0.0
H1207 H 0.77115 0.82666 0.132 0.0
C1208 C 0.78151 0.81632 0.02937 0.0
C1209 C 0.78977 0.81077 0.97836 0.0
C1210 C 0.78569 0.80536 0.07833 0.0
C1211 C 0.79918 0.7914 0.97637 0.0
C1212 C 0.80295 0.77999 0.0249 0.0
C1213 C 0.8059 0.78066 0.12515 0.0
C1214 C 0.80337 0.79131 0.17607 0.0
C1215 C 0.79753 0.78791 0.07618 0.0
C1216 C 0.78933 0.80658 0.17804 0.0
C1217 C 0.78045 0.81344 0.12957 0.0
H1218 H 0.81909 0.28173 0.34497 0.0
H1219 H 0.86695 0.35516 0.24466 0.0
H1220 H 0.88951 0.38264 0.32684 0.0
H1221 H 0.89042 0.38718 0.42728 0.0
H1222 H 0.84065 0.31425 0.5276 0.0
H1223 H 0.82439 0.2851 0.44531 0.0
C1224 C 0.83485 0.30365 0.34087 0.0
C1225 C 0.84105 0.31643 0.28856 0.0
C1226 C 0.84721 0.31944 0.38845 0.0
C1227 C 0.86174 0.34476 0.28418 0.0
C1228 C 0.87449 0.36053 0.3313 0.0
C1229 C 0.87645 0.36479 0.43132 0.0
C1230 C 0.86659 0.35298 0.48371 0.0
C1231 C 0.86663 0.34831 0.38369 0.0
C1232 C 0.84868 0.32391 0.48804 0.0
C1233 C 0.83917 0.30727 0.44085 0.0
H1234 H 0.70662 0.55666 0.35178 0.0
H1235 H 0.62549 0.52088 0.27674 0.0
H1236 H 0.60429 0.51774 0.36657 0.0
H1237 H 0.60813 0.51497 0.46681 0.0
H1238 H 0.68943 0.54842 0.54105 0.0
H1239 H 0.71141 0.56338 0.45132 0.0
C1240 C 0.68443 0.54919 0.35503 0.0
C1241 C 0.66748 0.5386 0.30832 0.0
C1242 C 0.67243 0.54654 0.40679 0.0
C1243 C 0.63886 0.52917 0.31236 0.0
C1244 C 0.62674 0.52702 0.3638 0.0
C1245 C 0.6307 0.5262 0.46346 0.0
C1246 C 0.64711 0.52985 0.51026 0.0
C1247 C 0.64316 0.53404 0.41148 0.0
C1248 C 0.67631 0.54502 0.50564 0.0
C1249 C 0.6889 0.55342 0.45422 0.0
H1250 H 0.47135 0.2085 0.23515 0.0
H1251 H 0.51015 0.17342 0.13429 0.0
H1252 H 0.52108 0.15502 0.21664 0.0
H1253 H 0.52375 0.15325 0.3174 0.0
H1254 H 0.48583 0.18938 0.41802 0.0
H1255 H 0.47 0.20272 0.33536 0.0
C1256 C 0.48196 0.19656 0.231 0.0
C1257 C 0.4902 0.19259 0.1785 0.0
C1258 C 0.48837 0.18636 0.2785 0.0
C1259 C 0.50354 0.17674 0.17397 0.0
C1260 C 0.50992 0.16638 0.22116 0.0
C1261 C 0.51167 0.16371 0.32142 0.0
C1262 C 0.5062 0.17053 0.37412 0.0
C1263 C 0.50305 0.17169 0.27366 0.0
C1264 C 0.49029 0.18381 0.37828 0.0
C1265 C 0.48142 0.19162 0.33092 0.0
H1266 H 0.55987 0.71782 0.75558 0.0
H1267 H 0.52786 0.64121 0.84863 0.0
H1268 H 0.51946 0.61471 0.76364 0.0
H1269 H 0.51186 0.61256 0.66369 0.0
H1270 H 0.54196 0.68904 0.57096 0.0
H1271 H 0.56089 0.71641 0.6548 0.0
C1272 C 0.5519 0.69541 0.75736 0.0
C1273 C 0.54395 0.68143 0.80835 0.0
C1274 C 0.5463 0.68026 0.70822 0.0
C1275 C 0.53409 0.6525 0.81007 0.0
C1276 C 0.52893 0.63729 0.76132 0.0
C1277 C 0.52328 0.63526 0.66162 0.0
C1278 C 0.52512 0.64877 0.61129 0.0
C1279 C 0.5335 0.65079 0.71022 0.0
C1280 C 0.54025 0.67815 0.60906 0.0
C1281 C 0.55084 0.69378 0.65716 0.0
H1282 H 0.29645 0.83068 0.69155 0.0
H1283 H 0.37047 0.85534 0.78826 0.0
H1284 H 0.39858 0.8684 0.70435 0.0
H1285 H 0.40111 0.86753 0.60376 0.0
H1286 H 0.327 0.84152 0.50665 0.0
H1287 H 0.29987 0.8345 0.59072 0.0
C1288 C 0.31883 0.83931 0.69448 0.0
C1289 C 0.33129 0.84176 0.74639 0.0
C1290 C 0.33472 0.84626 0.64595 0.0
C1291 C 0.36032 0.85327 0.74917 0.0
C1292 C 0.37635 0.86053 0.70106 0.0
C1293 C 0.37905 0.86063 0.60078 0.0
C1294 C 0.36601 0.85472 0.5488 0.0
C1295 C 0.36363 0.8563 0.64926 0.0
C1296 C 0.33755 0.84623 0.54589 0.0
C1297 C 0.32204 0.84205 0.59405 0.0
H1298 H 0.13654 0.53701 0.65466 0.0
H1299 H 0.16768 0.49361 0.55639 0.0
H1300 H 0.17573 0.47367 0.63965 0.0
H1301 H 0.17893 0.47308 0.74023 0.0
H1302 H 0.149 0.51746 0.8387 0.0
H1303 H 0.13503 0.53223 0.75529 0.0
C1304 C 0.14475 0.52287 0.6513 0.0
C1305 C 0.1518 0.51705 0.59921 0.0
C1306 C 0.14966 0.51183 0.6994 0.0
C1307 C 0.16207 0.49843 0.59573 0.0
C1308 C 0.16683 0.48718 0.64343 0.0
C1309 C 0.16896 0.48565 0.74359 0.0
C1310 C 0.16526 0.49439 0.79576 0.0
C1311 C 0.16145 0.4944 0.69547 0.0
C1312 C 0.15202 0.51038 0.79927 0.0
C1313 C 0.14425 0.519 0.75149 0.0
loop_
_geom_bond_atom_site_label_1
_geom_bond_atom_site_label_2
_geom_bond_distance
_geom_bond_site_symmetry_2
_ccdc_geom_bond_type
C0 C1 1.351 . S
C0 N3 1.368 . S
C0 H5 0.931 . S
C1 C0 1.351 . S
C1 N2 1.373 . S
C1 H29 0.930 . S
N2 C1 1.373 . S
N2 C4 1.340 . S
N3 C0 1.368 . S
N3 C4 1.321 . S
N3 Co6 2.135 1_565 S
C4 N2 1.340 . S
C4 N3 1.321 . S
C4 H28 0.930 . S
H5 C0 0.931 . S
Co6 N3 2.135 1_545 S
Co6 N9 2.121 . S
Co6 O14 2.055 1_545 S
Co6 O17 2.039 1_545 S
Co6 N20 2.140 . S
C7 O8 1.227 . S
C7 O17 1.265 1_545 S
O8 C7 1.227 . S
N9 Co6 2.121 . S
N9 C11 1.375 . S
N9 C12 1.313 . S
C10 C11 1.338 . S
C10 N13 1.377 . S
C10 H30 0.930 . S
C11 N9 1.375 . S
C11 C10 1.338 . S
C11 H15 0.931 . S
C12 N9 1.313 . S
C12 N13 1.344 . S
C12 H16 0.930 . S
N13 C10 1.377 . S
N13 C12 1.344 . S
O14 Co6 2.055 1_565 S
O14 C18 1.253 1_565 S
H15 C11 0.931 . S
H16 C12 0.930 . S
O17 Co6 2.039 1_565 S
O17 C7 1.265 1_565 S
C18 O14 1.253 1_545 S
C18 O19 1.227 . S
O19 C18 1.227 . S
N20 Co6 2.140 . S
N20 C23 1.346 . S
N20 C24 1.345 . S
C21 C22 1.387 . S
C21 C25 1.391 . S
C22 C21 1.387 . S
C22 C23 1.369 . S
C22 H31 0.929 . S
C23 N20 1.346 . S
C23 C22 1.369 . S
C23 H26 0.928 . S
C24 N20 1.345 . S
C24 C25 1.371 . S
C24 H27 0.931 . S
C25 C21 1.391 . S
C25 C24 1.371 . S
C25 H32 0.930 . S
H26 C23 0.928 . S
H27 C24 0.931 . S
H28 C4 0.930 . S
H29 C1 0.930 . S
H30 C10 0.930 . S
H31 C22 0.929 . S
H32 C25 0.930 . S
C33 C34 1.351 . S
C33 N36 1.368 . S
C33 H38 0.931 . S
C34 C33 1.351 . S
C34 N35 1.373 . S
C34 H62 0.930 . S
N35 C34 1.373 . S
N35 C37 1.340 . S
N36 C33 1.368 . S
N36 C37 1.321 . S
N36 Co39 2.135 . S
C37 N35 1.340 . S
C37 N36 1.321 . S
C37 H61 0.930 . S
H38 C33 0.931 . S
Co39 N36 2.135 . S
Co39 N42 2.121 1_455 S
Co39 O47 2.055 . S
Co39 O50 2.039 . S
Co39 N53 2.140 1_455 S
C40 O41 1.227 . S
C40 O50 1.265 . S
O41 C40 1.227 . S
N42 Co39 2.121 1_655 S
N42 C44 1.375 . S
N42 C45 1.313 . S
C43 C44 1.338 . S
C43 N46 1.377 . S
C43 H63 0.930 . S
C44 N42 1.375 . S
C44 C43 1.338 . S
C44 H48 0.931 . S
C45 N42 1.313 . S
C45 N46 1.344 . S
C45 H49 0.930 . S
N46 C43 1.377 . S
N46 C45 1.344 . S
O47 Co39 2.055 . S
O47 C51 1.253 . S
H48 C44 0.931 . S
H49 C45 0.930 . S
O50 Co39 2.039 . S
O50 C40 1.265 . S
C51 O47 1.253 . S
C51 O52 1.237 . S
O52 C51 1.237 . S
N53 Co39 2.140 1_655 S
N53 C56 1.346 . S
N53 C57 1.345 . S
C54 C55 1.387 . S
C54 C58 1.391 . S
C55 C54 1.387 . S
C55 C56 1.369 . S
C55 H64 0.929 . S
C56 N53 1.346 . S
C56 C55 1.369 . S
C56 H59 0.928 . S
C57 N53 1.345 . S
C57 C58 1.371 . S
C57 H60 0.931 . S
C58 C54 1.391 . S
C58 C57 1.371 . S
C58 H65 0.930 . S
H59 C56 0.928 . S
H60 C57 0.931 . S
H61 C37 0.930 . S
H62 C34 0.930 . S
H63 C43 0.930 . S
H64 C55 0.929 . S
H65 C58 0.930 . S
C66 C67 1.351 . S
C66 N69 1.368 . S
C66 H71 0.931 . S
C67 C66 1.351 . S
C67 N68 1.373 . S
C67 H95 0.930 . S
N68 C67 1.373 . S
N68 C70 1.340 . S
N69 C66 1.368 . S
N69 C70 1.321 . S
N69 Co72 2.135 . S
C70 N68 1.340 . S
C70 N69 1.321 . S
C70 H94 0.930 . S
H71 C66 0.931 . S
Co72 N69 2.135 . S
Co72 N75 2.121 . S
Co72 O80 2.055 . S
Co72 O83 2.039 . S
Co72 N86 2.140 . S
C73 O74 1.227 . S
C73 O83 1.265 . S
O74 C73 1.227 . S
N75 Co72 2.121 . S
N75 C77 1.375 . S
N75 C78 1.313 . S
C76 C77 1.338 . S
C76 N79 1.377 . S
C76 H96 0.930 . S
C77 N75 1.375 . S
C77 C76 1.338 . S
C77 H81 0.931 . S
C78 N75 1.313 . S
C78 N79 1.344 . S
C78 H82 0.930 . S
N79 C76 1.377 . S
N79 C78 1.344 . S
O80 Co72 2.055 . S
O80 C84 1.253 . S
H81 C77 0.931 . S
H82 C78 0.930 . S
O83 Co72 2.039 . S
O83 C73 1.265 . S
C84 O80 1.253 . S
C84 O85 1.227 . S
O85 C84 1.227 . S
N86 Co72 2.140 . S
N86 C89 1.346 . S
N86 C90 1.345 . S
C87 C88 1.387 . S
C87 C91 1.391 . S
C88 C87 1.387 . S
C88 C89 1.369 . S
C88 H97 0.929 . S
C89 N86 1.346 . S
C89 C88 1.369 . S
C89 H92 0.928 . S
C90 N86 1.345 . S
C90 C91 1.371 . S
C90 H93 0.931 . S
C91 C87 1.391 . S
C91 C90 1.371 . S
C91 H98 0.930 . S
H92 C89 0.928 . S
H93 C90 0.931 . S
H94 C70 0.930 . S
H95 C67 0.930 . S
H96 C76 0.930 . S
H97 C88 0.929 . S
H98 C91 0.930 . S
C99 C100 1.351 . S
C99 N102 1.368 . S
C99 H104 0.931 . S
C100 C99 1.351 . S
C100 N101 1.373 . S
C100 H128 0.930 . S
N101 C100 1.373 . S
N101 C103 1.340 . S
N102 C99 1.368 . S
N102 C103 1.321 . S
N102 Co105 2.135 1_655 S
C103 N101 1.340 . S
C103 N102 1.321 . S
C103 H127 0.930 . S
H104 C99 0.931 . S
Co105 N102 2.135 1_455 S
Co105 N108 2.121 . S
Co105 O113 2.055 1_455 S
Co105 O116 2.039 1_455 S
Co105 N119 2.140 . S
C106 O107 1.227 . S
C106 O116 1.265 1_455 S
O107 C106 1.227 . S
N108 Co105 2.121 . S
N108 C110 1.375 . S
N108 C111 1.313 . S
C109 C110 1.338 . S
C109 N112 1.377 . S
C109 H129 0.930 . S
C110 N108 1.375 . S
C110 C109 1.338 . S
C110 H114 0.931 . S
C111 N108 1.313 . S
C111 N112 1.344 . S
C111 H115 0.930 . S
N112 C109 1.377 . S
N112 C111 1.344 . S
O113 Co105 2.055 1_655 S
O113 C117 1.253 1_655 S
H114 C110 0.931 . S
H115 C111 0.930 . S
O116 Co105 2.039 1_655 S
O116 C106 1.265 1_655 S
C117 O113 1.253 1_455 S
C117 O118 1.227 . S
O118 C117 1.227 . S
N119 Co105 2.140 . S
N119 C122 1.346 . S
N119 C123 1.345 . S
C120 C121 1.387 . S
C120 C124 1.391 . S
C121 C120 1.387 . S
C121 C122 1.369 . S
C121 H130 0.929 . S
C122 N119 1.346 . S
C122 C121 1.369 . S
C122 H125 0.928 . S
C123 N119 1.345 . S
C123 C124 1.371 . S
C123 H126 0.931 . S
C124 C120 1.391 . S
C124 C123 1.371 . S
C124 H131 0.930 . S
H125 C122 0.928 . S
H126 C123 0.931 . S
H127 C103 0.930 . S
H128 C100 0.930 . S
H129 C109 0.930 . S
H130 C121 0.929 . S
H131 C124 0.930 . S
C132 C133 1.351 . S
C132 N135 1.368 . S
C132 H137 0.931 . S
C133 C132 1.351 . S
C133 N134 1.373 . S
C133 H161 0.930 . S
N134 C133 1.373 . S
N134 C136 1.340 . S
N135 C132 1.368 . S
N135 C136 1.321 . S
N135 Co138 2.135 . S
C136 N134 1.340 . S
C136 N135 1.321 . S
C136 H160 0.930 . S
H137 C132 0.931 . S
Co138 N135 2.135 . S
Co138 N141 2.121 . S
Co138 O146 2.055 . S
Co138 O149 2.039 . S
Co138 N152 2.140 . S
C139 O140 1.227 . S
C139 O149 1.265 . S
O140 C139 1.227 . S
N141 Co138 2.121 . S
N141 C143 1.375 . S
N141 C144 1.313 . S
C142 C143 1.338 . S
C142 N145 1.377 . S
C142 H162 0.930 . S
C143 N141 1.375 . S
C143 C142 1.338 . S
C143 H147 0.931 . S
C144 N141 1.313 . S
C144 N145 1.344 . S
C144 H148 0.930 . S
N145 C142 1.377 . S
N145 C144 1.344 . S
O146 Co138 2.055 . S
O146 C150 1.253 . S
H147 C143 0.931 . S
H148 C144 0.930 . S
O149 Co138 2.039 . S
O149 C139 1.265 . S
C150 O146 1.253 . S
C150 O151 1.227 . S
O151 C150 1.227 . S
N152 Co138 2.140 . S
N152 C155 1.346 . S
N152 C156 1.345 . S
C153 C154 1.387 . S
C153 C157 1.391 . S
C154 C153 1.387 . S
C154 C155 1.369 . S
C154 H163 0.929 . S
C155 N152 1.346 . S
C155 C154 1.369 . S
C155 H158 0.928 . S
C156 N152 1.345 . S
C156 C157 1.371 . S
C156 H159 0.931 . S
C157 C153 1.391 . S
C157 C156 1.371 . S
C157 H164 0.930 . S
H158 C155 0.928 . S
H159 C156 0.931 . S
H160 C136 0.930 . S
H161 C133 0.930 . S
H162 C142 0.930 . S
H163 C154 0.929 . S
H164 C157 0.930 . S
C165 C166 1.351 . S
C165 N168 1.368 . S
C165 H170 0.931 . S
C166 C165 1.351 . S
C166 N167 1.373 . S
C166 H194 0.930 . S
N167 C166 1.373 . S
N167 C169 1.340 . S
N168 C165 1.368 . S
N168 C169 1.321 . S
N168 Co171 2.135 . S
C169 N167 1.340 . S
C169 N168 1.321 . S
C169 H193 0.930 . S
H170 C165 0.931 . S
Co171 N168 2.135 . S
Co171 N174 2.121 1_545 S
Co171 O179 2.055 . S
Co171 O182 2.039 . S
Co171 N185 2.140 1_545 S
C172 O173 1.227 . S
C172 O182 1.265 . S
O173 C172 1.227 . S
N174 Co171 2.121 1_565 S
N174 C176 1.375 . S
N174 C177 1.313 . S
C175 C176 1.338 . S
C175 N178 1.377 . S
C175 H195 0.930 . S
C176 N174 1.375 . S
C176 C175 1.338 . S
C176 H180 0.931 . S
C177 N174 1.313 . S
C177 N178 1.344 . S
C177 H181 0.930 . S
N178 C175 1.377 . S
N178 C177 1.344 . S
O179 Co171 2.055 . S
O179 C183 1.253 . S
H180 C176 0.931 . S
H181 C177 0.930 . S
O182 Co171 2.039 . S
O182 C172 1.265 . S
C183 O179 1.253 . S
C183 O184 1.237 . S
O184 C183 1.237 . S
N185 Co171 2.140 1_565 S
N185 C188 1.346 . S
N185 C189 1.345 . S
C186 C187 1.387 . S
C186 C190 1.391 . S
C187 C186 1.387 . S
C187 C188 1.369 . S
C187 H196 0.929 . S
C188 N185 1.346 . S
C188 C187 1.369 . S
C188 H191 0.928 . S
C189 N185 1.345 . S
C189 C190 1.371 . S
C189 H192 0.931 . S
C190 C186 1.391 . S
C190 C189 1.371 . S
C190 H197 0.930 . S
H191 C188 0.928 . S
H192 C189 0.931 . S
H193 C169 0.930 . S
H194 C166 0.930 . S
H195 C175 0.930 . S
H196 C187 0.929 . S
H197 C190 0.930 . S
C198 C199 1.351 . S
C198 N201 1.368 . S
C198 H203 0.931 . S
C199 C198 1.351 . S
C199 N200 1.373 . S
C199 H227 0.930 . S
N200 C199 1.373 . S
N200 C202 1.340 . S
N201 C198 1.368 . S
N201 C202 1.321 . S
N201 Co204 2.135 . S
C202 N200 1.340 . S
C202 N201 1.321 . S
C202 H226 0.930 . S
H203 C198 0.931 . S
Co204 N201 2.135 . S
Co204 N207 2.121 . S
Co204 O212 2.055 . S
Co204 O215 2.039 . S
Co204 N218 2.140 . S
C205 O206 1.227 . S
C205 O215 1.265 . S
O206 C205 1.227 . S
N207 Co204 2.121 . S
N207 C209 1.375 . S
N207 C210 1.313 . S
C208 C209 1.338 . S
C208 N211 1.377 . S
C208 H228 0.930 . S
C209 N207 1.375 . S
C209 C208 1.338 . S
C209 H213 0.931 . S
C210 N207 1.313 . S
C210 N211 1.344 . S
C210 H214 0.930 . S
N211 C208 1.377 . S
N211 C210 1.344 . S
O212 Co204 2.055 . S
O212 C216 1.253 . S
H213 C209 0.931 . S
H214 C210 0.930 . S
O215 Co204 2.039 . S
O215 C205 1.265 . S
C216 O212 1.253 . S
C216 O217 1.227 . S
O217 C216 1.227 . S
N218 Co204 2.140 . S
N218 C221 1.346 . S
N218 C222 1.345 . S
C219 C220 1.387 . S
C219 C223 1.391 . S
C220 C219 1.387 . S
C220 C221 1.369 . S
C220 H229 0.929 . S
C221 N218 1.346 . S
C221 C220 1.369 . S
C221 H224 0.928 . S
C222 N218 1.345 . S
C222 C223 1.371 . S
C222 H225 0.931 . S
C223 C219 1.391 . S
C223 C222 1.371 . S
C223 H230 0.930 . S
H224 C221 0.928 . S
H225 C222 0.931 . S
H226 C202 0.930 . S
H227 C199 0.930 . S
H228 C208 0.930 . S
H229 C220 0.929 . S
H230 C223 0.930 . S
C231 C232 1.351 . S
C231 N234 1.368 . S
C231 H236 0.931 . S
C232 C231 1.351 . S
C232 N233 1.373 . S
C232 H260 0.930 . S
N233 C232 1.373 . S
N233 C235 1.340 . S
N234 C231 1.368 . S
N234 C235 1.321 . S
N234 Co237 2.135 . S
C235 N233 1.340 . S
C235 N234 1.321 . S
C235 H259 0.930 . S
H236 C231 0.931 . S
Co237 N234 2.135 . S
Co237 N240 2.121 . S
Co237 O245 2.055 . S
Co237 O248 2.039 . S
Co237 N251 2.140 . S
C238 O239 1.227 . S
C238 O248 1.265 . S
O239 C238 1.227 . S
N240 Co237 2.121 . S
N240 C242 1.375 . S
N240 C243 1.313 . S
C241 C242 1.338 . S
C241 N244 1.377 . S
C241 H261 0.930 . S
C242 N240 1.375 . S
C242 C241 1.338 . S
C242 H246 0.931 . S
C243 N240 1.313 . S
C243 N244 1.344 . S
C243 H247 0.930 . S
N244 C241 1.377 . S
N244 C243 1.344 . S
O245 Co237 2.055 . S
O245 C249 1.253 . S
H246 C242 0.931 . S
H247 C243 0.930 . S
O248 Co237 2.039 . S
O248 C238 1.265 . S
C249 O245 1.253 . S
C249 O250 1.227 . S
O250 C249 1.227 . S
N251 Co237 2.140 . S
N251 C254 1.346 . S
N251 C255 1.345 . S
C252 C253 1.387 . S
C252 C256 1.391 . S
C253 C252 1.387 . S
C253 C254 1.369 . S
C253 H262 0.929 . S
C254 N251 1.346 . S
C254 C253 1.369 . S
C254 H257 0.928 . S
C255 N251 1.345 . S
C255 C256 1.371 . S
C255 H258 0.931 . S
C256 C252 1.391 . S
C256 C255 1.371 . S
C256 H263 0.930 . S
H257 C254 0.928 . S
H258 C255 0.931 . S
H259 C235 0.930 . S
H260 C232 0.930 . S
H261 C241 0.930 . S
H262 C253 0.929 . S
H263 C256 0.930 . S
C264 C265 1.351 . S
C264 N267 1.368 . S
C264 H269 0.931 . S
C265 C264 1.351 . S
C265 N266 1.373 . S
C265 H293 0.930 . S
N266 C265 1.373 . S
N266 C268 1.340 . S
N267 C264 1.368 . S
N267 C268 1.321 . S
N267 Co270 2.135 . S
C268 N266 1.340 . S
C268 N267 1.321 . S
C268 H292 0.930 . S
H269 C264 0.931 . S
Co270 N267 2.135 . S
Co270 N273 2.121 . S
Co270 O278 2.055 . S
Co270 O281 2.039 . S
Co270 N284 2.140 . S
C271 O272 1.227 . S
C271 O281 1.265 . S
O272 C271 1.227 . S
N273 Co270 2.121 . S
N273 C275 1.375 . S
N273 C276 1.313 . S
C274 C275 1.338 . S
C274 N277 1.377 . S
C274 H294 0.930 . S
C275 N273 1.375 . S
C275 C274 1.338 . S
C275 H279 0.931 . S
C276 N273 1.313 . S
C276 N277 1.344 . S
C276 H280 0.930 . S
N277 C274 1.377 . S
N277 C276 1.344 . S
O278 Co270 2.055 . S
O278 C282 1.253 . S
H279 C275 0.931 . S
H280 C276 0.930 . S
O281 Co270 2.039 . S
O281 C271 1.265 . S
C282 O278 1.253 . S
C282 O283 1.227 . S
O283 C282 1.227 . S
N284 Co270 2.140 . S
N284 C287 1.346 . S
N284 C288 1.345 . S
C285 C286 1.387 . S
C285 C289 1.391 . S
C286 C285 1.387 . S
C286 C287 1.369 . S
C286 H295 0.929 . S
C287 N284 1.346 . S
C287 C286 1.369 . S
C287 H290 0.928 . S
C288 N284 1.345 . S
C288 C289 1.371 . S
C288 H291 0.931 . S
C289 C285 1.391 . S
C289 C288 1.371 . S
C289 H296 0.930 . S
H290 C287 0.928 . S
H291 C288 0.931 . S
H292 C268 0.930 . S
H293 C265 0.930 . S
H294 C274 0.930 . S
H295 C286 0.929 . S
H296 C289 0.930 . S
C297 C298 1.351 . S
C297 N300 1.368 . S
C297 H302 0.931 . S
C298 C297 1.351 . S
C298 N299 1.373 . S
C298 H326 0.930 . S
N299 C298 1.373 . S
N299 C301 1.340 . S
N300 C297 1.368 . S
N300 C301 1.321 . S
N300 Co303 2.135 . S
C301 N299 1.340 . S
C301 N300 1.321 . S
C301 H325 0.930 . S
H302 C297 0.931 . S
Co303 N300 2.135 . S
Co303 N306 2.121 . S
Co303 O311 2.055 . S
Co303 O314 2.039 . S
Co303 N317 2.140 . S
C304 O305 1.227 . S
C304 O314 1.265 1_556 S
O305 C304 1.227 . S
N306 Co303 2.121 . S
N306 C308 1.375 . S
N306 C309 1.313 . S
C307 C308 1.338 . S
C307 N310 1.377 . S
C307 H327 0.930 . S
C308 N306 1.375 . S
C308 C307 1.338 . S
C308 H312 0.931 . S
C309 N306 1.313 . S
C309 N310 1.344 . S
C309 H313 0.930 . S
N310 C307 1.377 . S
N310 C309 1.344 . S
O311 Co303 2.055 . S
O311 C315 1.253 . S
H312 C308 0.931 . S
H313 C309 0.930 . S
O314 Co303 2.039 . S
O314 C304 1.265 1_554 S
C315 O311 1.253 . S
C315 O316 1.227 . S
O316 C315 1.227 . S
N317 Co303 2.140 . S
N317 C320 1.346 . S
N317 C321 1.345 . S
C318 C319 1.387 . S
C318 C322 1.391 . S
C319 C318 1.387 . S
C319 C320 1.369 . S
C319 H328 0.929 . S
C320 N317 1.346 . S
C320 C319 1.369 . S
C320 H323 0.928 . S
C321 N317 1.345 . S
C321 C322 1.371 . S
C321 H324 0.931 . S
C322 C318 1.391 . S
C322 C321 1.371 . S
C322 H329 0.930 . S
H323 C320 0.928 . S
H324 C321 0.931 . S
H325 C301 0.930 . S
H326 C298 0.930 . S
H327 C307 0.930 . S
H328 C319 0.929 . S
H329 C322 0.930 . S
C330 C331 1.351 . S
C330 N333 1.368 . S
C330 H335 0.931 . S
C331 C330 1.351 . S
C331 N332 1.373 . S
C331 H359 0.930 . S
N332 C331 1.373 . S
N332 C334 1.340 . S
N333 C330 1.368 . S
N333 C334 1.321 . S
N333 Co336 2.135 . S
C334 N332 1.340 . S
C334 N333 1.321 . S
C334 H358 0.930 . S
H335 C330 0.931 . S
Co336 N333 2.135 . S
Co336 N339 2.121 . S
Co336 O344 2.055 . S
Co336 O347 2.039 . S
Co336 N350 2.140 . S
C337 O338 1.227 . S
C337 O347 1.265 1_556 S
O338 C337 1.227 . S
N339 Co336 2.121 . S
N339 C341 1.375 . S
N339 C342 1.313 . S
C340 C341 1.338 . S
C340 N343 1.377 . S
C340 H360 0.930 . S
C341 N339 1.375 . S
C341 C340 1.338 . S
C341 H345 0.931 . S
C342 N339 1.313 . S
C342 N343 1.344 . S
C342 H346 0.930 . S
N343 C340 1.377 . S
N343 C342 1.344 . S
O344 Co336 2.055 . S
O344 C348 1.253 . S
H345 C341 0.931 . S
H346 C342 0.930 . S
O347 Co336 2.039 . S
O347 C337 1.265 1_554 S
C348 O344 1.253 . S
C348 O349 1.227 . S
O349 C348 1.227 . S
N350 Co336 2.140 . S
N350 C353 1.346 . S
N350 C354 1.345 . S
C351 C352 1.387 . S
C351 C355 1.391 . S
C352 C351 1.387 . S
C352 C353 1.369 . S
C352 H361 0.929 . S
C353 N350 1.346 . S
C353 C352 1.369 . S
C353 H356 0.928 . S
C354 N350 1.345 . S
C354 C355 1.371 . S
C354 H357 0.931 . S
C355 C351 1.391 . S
C355 C354 1.371 . S
C355 H362 0.930 . S
H356 C353 0.928 . S
H357 C354 0.931 . S
H358 C334 0.930 . S
H359 C331 0.930 . S
H360 C340 0.930 . S
H361 C352 0.929 . S
H362 C355 0.930 . S
C363 C364 1.351 . S
C363 N366 1.368 . S
C363 H368 0.931 . S
C364 C363 1.351 . S
C364 N365 1.373 . S
C364 H392 0.930 . S
N365 C364 1.373 . S
N365 C367 1.340 . S
N366 C363 1.368 . S
N366 C367 1.321 . S
N366 Co369 2.135 . S
C367 N365 1.340 . S
C367 N366 1.321 . S
C367 H391 0.930 . S
H368 C363 0.931 . S
Co369 N366 2.135 . S
Co369 N372 2.121 . S
Co369 O377 2.055 . S
Co369 O380 2.039 . S
Co369 N383 2.140 . S
C370 O371 1.227 . S
C370 O380 1.265 1_556 S
O371 C370 1.227 . S
N372 Co369 2.121 . S
N372 C374 1.375 . S
N372 C375 1.313 . S
C373 C374 1.338 . S
C373 N376 1.377 . S
C373 H393 0.930 . S
C374 N372 1.375 . S
C374 C373 1.338 . S
C374 H378 0.931 . S
C375 N372 1.313 . S
C375 N376 1.344 . S
C375 H379 0.930 . S
N376 C373 1.377 . S
N376 C375 1.344 . S
O377 Co369 2.055 . S
O377 C381 1.253 . S
H378 C374 0.931 . S
H379 C375 0.930 . S
O380 Co369 2.039 . S
O380 C370 1.265 1_554 S
C381 O377 1.253 . S
C381 O382 1.227 . S
O382 C381 1.227 . S
N383 Co369 2.140 . S
N383 C386 1.346 . S
N383 C387 1.345 . S
C384 C385 1.387 . S
C384 C388 1.391 . S
C385 C384 1.387 . S
C385 C386 1.369 . S
C385 H394 0.929 . S
C386 N383 1.346 . S
C386 C385 1.369 . S
C386 H389 0.928 . S
C387 N383 1.345 . S
C387 C388 1.371 . S
C387 H390 0.931 . S
C388 C384 1.391 . S
C388 C387 1.371 . S
C388 H395 0.930 . S
H389 C386 0.928 . S
H390 C387 0.931 . S
H391 C367 0.930 . S
H392 C364 0.930 . S
H393 C373 0.930 . S
H394 C385 0.929 . S
H395 C388 0.930 . S
C396 C397 1.351 . S
C396 N399 1.368 . S
C396 H401 0.931 . S
C397 C396 1.351 . S
C397 N398 1.373 . S
C397 H425 0.930 . S
N398 C397 1.373 . S
N398 C400 1.340 . S
N399 C396 1.368 . S
N399 C400 1.321 . S
N399 Co402 2.135 . S
C400 N398 1.340 . S
C400 N399 1.321 . S
C400 H424 0.930 . S
H401 C396 0.931 . S
Co402 N399 2.135 . S
Co402 N405 2.121 . S
Co402 O410 2.055 . S
Co402 O413 2.039 . S
Co402 N416 2.140 . S
C403 O404 1.227 . S
C403 O413 1.265 1_554 S
O404 C403 1.227 . S
N405 Co402 2.121 . S
N405 C407 1.375 . S
N405 C408 1.313 . S
C406 C407 1.338 . S
C406 N409 1.377 . S
C406 H426 0.930 . S
C407 N405 1.375 . S
C407 C406 1.338 . S
C407 H411 0.931 . S
C408 N405 1.313 . S
C408 N409 1.344 . S
C408 H412 0.930 . S
N409 C406 1.377 . S
N409 C408 1.344 . S
O410 Co402 2.055 . S
O410 C414 1.253 . S
H411 C407 0.931 . S
H412 C408 0.930 . S
O413 Co402 2.039 . S
O413 C403 1.265 1_556 S
C414 O410 1.253 . S
C414 O415 1.227 . S
O415 C414 1.227 . S
N416 Co402 2.140 . S
N416 C419 1.346 . S
N416 C420 1.345 . S
C417 C418 1.387 . S
C417 C421 1.391 . S
C418 C417 1.387 . S
C418 C419 1.369 . S
C418 H427 0.929 . S
C419 N416 1.346 . S
C419 C418 1.369 . S
C419 H422 0.928 . S
C420 N416 1.345 . S
C420 C421 1.371 . S
C420 H423 0.931 . S
C421 C417 1.391 . S
C421 C420 1.371 . S
C421 H428 0.930 . S
H422 C419 0.928 . S
H423 C420 0.931 . S
H424 C400 0.930 . S
H425 C397 0.930 . S
H426 C406 0.930 . S
H427 C418 0.929 . S
H428 C421 0.930 . S
C429 C430 1.351 . S
C429 N432 1.368 . S
C429 H434 0.931 . S
C430 C429 1.351 . S
C430 N431 1.373 . S
C430 H458 0.930 . S
N431 C430 1.373 . S
N431 C433 1.340 . S
N432 C429 1.368 . S
N432 C433 1.321 . S
N432 Co435 2.135 . S
C433 N431 1.340 . S
C433 N432 1.321 . S
C433 H457 0.930 . S
H434 C429 0.931 . S
Co435 N432 2.135 . S
Co435 N438 2.121 . S
Co435 O443 2.055 . S
Co435 O446 2.039 . S
Co435 N449 2.140 . S
C436 O437 1.227 . S
C436 O446 1.265 1_554 S
O437 C436 1.227 . S
N438 Co435 2.121 . S
N438 C440 1.375 . S
N438 C441 1.313 . S
C439 C440 1.338 . S
C439 N442 1.377 . S
C439 H459 0.930 . S
C440 N438 1.375 . S
C440 C439 1.338 . S
C440 H444 0.931 . S
C441 N438 1.313 . S
C441 N442 1.344 . S
C441 H445 0.930 . S
N442 C439 1.377 . S
N442 C441 1.344 . S
O443 Co435 2.055 . S
O443 C447 1.253 . S
H444 C440 0.931 . S
H445 C441 0.930 . S
O446 Co435 2.039 . S
O446 C436 1.265 1_556 S
C447 O443 1.253 . S
C447 O448 1.227 . S
O448 C447 1.227 . S
N449 Co435 2.140 . S
N449 C452 1.346 . S
N449 C453 1.345 . S
C450 C451 1.387 . S
C450 C454 1.391 . S
C451 C450 1.387 . S
C451 C452 1.369 . S
C451 H460 0.929 . S
C452 N449 1.346 . S
C452 C451 1.369 . S
C452 H455 0.928 . S
C453 N449 1.345 . S
C453 C454 1.371 . S
C453 H456 0.931 . S
C454 C450 1.391 . S
C454 C453 1.371 . S
C454 H461 0.930 . S
H455 C452 0.928 . S
H456 C453 0.931 . S
H457 C433 0.930 . S
H458 C430 0.930 . S
H459 C439 0.930 . S
H460 C451 0.929 . S
H461 C454 0.930 . S
C462 C463 1.351 . S
C462 N465 1.368 . S
C462 H467 0.931 . S
C463 C462 1.351 . S
C463 N464 1.373 . S
C463 H491 0.930 . S
N464 C463 1.373 . S
N464 C466 1.340 . S
N465 C462 1.368 . S
N465 C466 1.321 . S
N465 Co468 2.135 . S
C466 N464 1.340 . S
C466 N465 1.321 . S
C466 H490 0.930 . S
H467 C462 0.931 . S
Co468 N465 2.135 . S
Co468 N471 2.121 . S
Co468 O476 2.055 . S
Co468 O479 2.039 . S
Co468 N482 2.140 . S
C469 O470 1.227 . S
C469 O479 1.265 1_554 S
O470 C469 1.227 . S
N471 Co468 2.121 . S
N471 C473 1.375 . S
N471 C474 1.313 . S
C472 C473 1.338 . S
C472 N475 1.377 . S
C472 H492 0.930 . S
C473 N471 1.375 . S
C473 C472 1.338 . S
C473 H477 0.931 . S
C474 N471 1.313 . S
C474 N475 1.344 . S
C474 H478 0.930 . S
N475 C472 1.377 . S
N475 C474 1.344 . S
O476 Co468 2.055 . S
O476 C480 1.253 . S
H477 C473 0.931 . S
H478 C474 0.930 . S
O479 Co468 2.039 . S
O479 C469 1.265 1_556 S
C480 O476 1.253 . S
C480 O481 1.227 . S
O481 C480 1.227 . S
N482 Co468 2.140 . S
N482 C485 1.346 . S
N482 C486 1.345 . S
C483 C484 1.387 . S
C483 C487 1.391 . S
C484 C483 1.387 . S
C484 C485 1.369 . S
C484 H493 0.929 . S
C485 N482 1.346 . S
C485 C484 1.369 . S
C485 H488 0.928 . S
C486 N482 1.345 . S
C486 C487 1.371 . S
C486 H489 0.931 . S
C487 C483 1.391 . S
C487 C486 1.371 . S
C487 H494 0.930 . S
H488 C485 0.928 . S
H489 C486 0.931 . S
H490 C466 0.930 . S
H491 C463 0.930 . S
H492 C472 0.930 . S
H493 C484 0.929 . S
H494 C487 0.930 . S
C495 C496 1.351 . S
C495 N498 1.368 . S
C495 H500 0.931 . S
C496 C495 1.351 . S
C496 N497 1.373 . S
C496 H524 0.930 . S
N497 C496 1.373 . S
N497 C499 1.340 . S
N498 C495 1.368 . S
N498 C499 1.321 . S
N498 Co501 2.135 . S
C499 N497 1.340 . S
C499 N498 1.321 . S
C499 H523 0.930 . S
H500 C495 0.931 . S
Co501 N498 2.135 . S
Co501 N504 2.121 . S
Co501 O509 2.055 . S
Co501 O512 2.039 . S
Co501 N515 2.140 . S
C502 O503 1.227 . S
C502 O512 1.265 . S
O503 C502 1.227 . S
N504 Co501 2.121 . S
N504 C506 1.375 . S
N504 C507 1.313 . S
C505 C506 1.338 . S
C505 N508 1.377 . S
C505 H525 0.930 . S
C506 N504 1.375 . S
C506 C505 1.338 . S
C506 H510 0.931 . S
C507 N504 1.313 . S
C507 N508 1.344 . S
C507 H511 0.930 . S
N508 C505 1.377 . S
N508 C507 1.344 . S
O509 Co501 2.055 . S
O509 C513 1.253 . S
H510 C506 0.931 . S
H511 C507 0.930 . S
O512 Co501 2.039 . S
O512 C502 1.265 . S
C513 O509 1.253 . S
C513 O514 1.227 . S
O514 C513 1.227 . S
N515 Co501 2.140 . S
N515 C518 1.346 . S
N515 C519 1.345 . S
C516 C517 1.387 . S
C516 C520 1.391 . S
C517 C516 1.387 . S
C517 C518 1.369 . S
C517 H526 0.929 . S
C518 N515 1.346 . S
C518 C517 1.369 . S
C518 H521 0.928 . S
C519 N515 1.345 . S
C519 C520 1.371 . S
C519 H522 0.931 . S
C520 C516 1.391 . S
C520 C519 1.371 . S
C520 H527 0.930 . S
H521 C518 0.928 . S
H522 C519 0.931 . S
H523 C499 0.930 . S
H524 C496 0.930 . S
H525 C505 0.930 . S
H526 C517 0.929 . S
H527 C520 0.930 . S
C528 C529 1.351 . S
C528 N531 1.368 . S
C528 H533 0.931 . S
C529 C528 1.351 . S
C529 N530 1.373 . S
C529 H557 0.930 . S
N530 C529 1.373 . S
N530 C532 1.340 . S
N531 C528 1.368 . S
N531 C532 1.321 . S
N531 Co534 2.135 . S
C532 N530 1.340 . S
C532 N531 1.321 . S
C532 H556 0.930 . S
H533 C528 0.931 . S
Co534 N531 2.135 . S
Co534 N537 2.121 . S
Co534 O542 2.055 . S
Co534 O545 2.039 . S
Co534 N548 2.140 . S
C535 O536 1.227 . S
C535 O545 1.265 . S
O536 C535 1.227 . S
N537 Co534 2.121 . S
N537 C539 1.375 . S
N537 C540 1.313 . S
C538 C539 1.338 . S
C538 N541 1.377 . S
C538 H558 0.930 . S
C539 N537 1.375 . S
C539 C538 1.338 . S
C539 H543 0.931 . S
C540 N537 1.313 . S
C540 N541 1.344 . S
C540 H544 0.930 . S
N541 C538 1.377 . S
N541 C540 1.344 . S
O542 Co534 2.055 . S
O542 C546 1.253 . S
H543 C539 0.931 . S
H544 C540 0.930 . S
O545 Co534 2.039 . S
O545 C535 1.265 . S
C546 O542 1.253 . S
C546 O547 1.227 . S
O547 C546 1.227 . S
N548 Co534 2.140 . S
N548 C551 1.346 . S
N548 C552 1.345 . S
C549 C550 1.387 . S
C549 C553 1.391 . S
C550 C549 1.387 . S
C550 C551 1.369 . S
C550 H559 0.929 . S
C551 N548 1.346 . S
C551 C550 1.369 . S
C551 H554 0.928 . S
C552 N548 1.345 . S
C552 C553 1.371 . S
C552 H555 0.931 . S
C553 C549 1.391 . S
C553 C552 1.371 . S
C553 H560 0.930 . S
H554 C551 0.928 . S
H555 C552 0.931 . S
H556 C532 0.930 . S
H557 C529 0.930 . S
H558 C538 0.930 . S
H559 C550 0.929 . S
H560 C553 0.930 . S
C561 C562 1.351 . S
C561 N564 1.368 . S
C561 H566 0.931 . S
C562 C561 1.351 . S
C562 N563 1.373 . S
C562 H590 0.930 . S
N563 C562 1.373 . S
N563 C565 1.340 . S
N564 C561 1.368 . S
N564 C565 1.321 . S
N564 Co567 2.135 . S
C565 N563 1.340 . S
C565 N564 1.321 . S
C565 H589 0.930 . S
H566 C561 0.931 . S
Co567 N564 2.135 . S
Co567 N570 2.121 . S
Co567 O575 2.055 . S
Co567 O578 2.039 . S
Co567 N581 2.140 . S
C568 O569 1.227 . S
C568 O578 1.265 . S
O569 C568 1.227 . S
N570 Co567 2.121 . S
N570 C572 1.375 . S
N570 C573 1.313 . S
C571 C572 1.338 . S
C571 N574 1.377 . S
C571 H591 0.930 . S
C572 N570 1.375 . S
C572 C571 1.338 . S
C572 H576 0.931 . S
C573 N570 1.313 . S
C573 N574 1.344 . S
C573 H577 0.930 . S
N574 C571 1.377 . S
N574 C573 1.344 . S
O575 Co567 2.055 . S
O575 C579 1.253 . S
H576 C572 0.931 . S
H577 C573 0.930 . S
O578 Co567 2.039 . S
O578 C568 1.265 . S
C579 O575 1.253 . S
C579 O580 1.227 . S
O580 C579 1.227 . S
N581 Co567 2.140 . S
N581 C584 1.346 . S
N581 C585 1.345 . S
C582 C583 1.387 . S
C582 C586 1.391 . S
C583 C582 1.387 . S
C583 C584 1.369 . S
C583 H592 0.929 . S
C584 N581 1.346 . S
C584 C583 1.369 . S
C584 H587 0.928 . S
C585 N581 1.345 . S
C585 C586 1.371 . S
C585 H588 0.931 . S
C586 C582 1.391 . S
C586 C585 1.371 . S
C586 H593 0.930 . S
H587 C584 0.928 . S
H588 C585 0.931 . S
H589 C565 0.930 . S
H590 C562 0.930 . S
H591 C571 0.930 . S
H592 C583 0.929 . S
H593 C586 0.930 . S
H594 C600 0.930 . S
H595 C603 0.930 . S
H596 C604 0.930 . S
H597 C605 0.930 . S
H598 C608 0.930 . S
H599 C609 0.930 . S
C600 H594 0.930 . S
C600 C601 1.355 . S
C600 C602 1.415 . S
C601 C600 1.355 . S
C601 C603 1.419 . S
C602 C600 1.415 . S
C602 C607 1.425 . S
C602 C609 1.409 . S
C603 H595 0.930 . S
C603 C601 1.419 . S
C603 C604 1.362 . S
C604 H596 0.930 . S
C604 C603 1.362 . S
C604 C607 1.409 . S
C605 H597 0.930 . S
C605 C606 1.355 . S
C605 C607 1.415 . S
C606 C605 1.355 . S
C606 C608 1.419 . S
C607 C602 1.425 . S
C607 C604 1.409 . S
C607 C605 1.415 . S
C608 H598 0.930 . S
C608 C606 1.419 . S
C608 C609 1.362 . S
C609 H599 0.930 . S
C609 C602 1.409 . S
C609 C608 1.362 . S
H610 C616 0.930 . S
H611 C619 0.930 . S
H612 C620 0.946 . S
H613 C621 0.930 . S
H614 C624 0.930 . S
H615 C625 0.930 . S
C616 H610 0.930 . S
C616 C617 1.355 . S
C616 C618 1.414 . S
C617 C616 1.355 . S
C617 C619 1.419 . S
C618 C616 1.414 . S
C618 C623 1.426 1_565 S
C618 C625 1.410 1_565 S
C619 H611 0.930 . S
C619 C617 1.419 . S
C619 C620 1.362 . S
C620 H612 0.946 . S
C620 C619 1.362 . S
C620 C623 1.409 1_565 S
C621 H613 0.930 . S
C621 C622 1.355 . S
C621 C623 1.415 . S
C622 C621 1.355 . S
C622 C624 1.419 . S
C623 C618 1.426 1_545 S
C623 C620 1.409 1_545 S
C623 C621 1.415 . S
C624 H614 0.930 . S
C624 C622 1.419 . S
C624 C625 1.362 . S
C625 H615 0.930 . S
C625 C618 1.410 1_545 S
C625 C624 1.362 . S
H626 C632 0.930 . S
H627 C635 0.930 . S
H628 C636 0.930 . S
H629 C637 0.930 . S
H630 C640 0.930 . S
H631 C641 0.930 . S
C632 H626 0.930 . S
C632 C633 1.355 . S
C632 C634 1.415 1_655 S
C633 C632 1.355 . S
C633 C635 1.419 . S
C634 C632 1.415 1_455 S
C634 C639 1.425 . S
C634 C641 1.409 . S
C635 H627 0.930 . S
C635 C633 1.419 . S
C635 C636 1.362 1_655 S
C636 H628 0.930 . S
C636 C635 1.362 1_455 S
C636 C639 1.409 . S
C637 H629 0.930 . S
C637 C638 1.355 . S
C637 C639 1.415 . S
C638 C637 1.355 . S
C638 C640 1.419 . S
C639 C634 1.425 . S
C639 C636 1.409 . S
C639 C637 1.415 . S
C640 H630 0.930 . S
C640 C638 1.419 . S
C640 C641 1.362 . S
C641 H631 0.930 . S
C641 C634 1.409 . S
C641 C640 1.362 . S
H642 C648 0.930 . S
H643 C651 0.930 . S
H644 C652 0.930 . S
H645 C653 0.930 . S
H646 C656 0.930 . S
H647 C657 0.930 . S
C648 H642 0.930 . S
C648 C649 1.355 . S
C648 C650 1.415 . S
C649 C648 1.355 . S
C649 C651 1.419 . S
C650 C648 1.415 . S
C650 C655 1.425 . S
C650 C657 1.409 . S
C651 H643 0.930 . S
C651 C649 1.419 . S
C651 C652 1.362 . S
C652 H644 0.930 . S
C652 C651 1.362 . S
C652 C655 1.409 . S
C653 H645 0.930 . S
C653 C654 1.355 . S
C653 C655 1.415 . S
C654 C653 1.355 . S
C654 C656 1.419 . S
C655 C650 1.425 . S
C655 C652 1.409 . S
C655 C653 1.415 . S
C656 H646 0.930 . S
C656 C654 1.419 . S
C656 C657 1.362 . S
C657 H647 0.930 . S
C657 C650 1.409 . S
C657 C656 1.362 . S
H658 C664 0.930 . S
H659 C667 0.930 . S
H660 C668 0.930 . S
H661 C669 0.930 . S
H662 C672 0.930 . S
H663 C673 0.930 . S
C664 H658 0.930 . S
C664 C665 1.355 . S
C664 C666 1.415 . S
C665 C664 1.355 . S
C665 C667 1.419 . S
C666 C664 1.415 . S
C666 C671 1.425 . S
C666 C673 1.409 . S
C667 H659 0.930 . S
C667 C665 1.419 . S
C667 C668 1.362 . S
C668 H660 0.930 . S
C668 C667 1.362 . S
C668 C671 1.409 . S
C669 H661 0.930 . S
C669 C670 1.355 . S
C669 C671 1.415 1_565 S
C670 C669 1.355 . S
C670 C672 1.419 . S
C671 C666 1.425 . S
C671 C668 1.409 . S
C671 C669 1.415 1_545 S
C672 H662 0.930 . S
C672 C670 1.419 . S
C672 C673 1.362 1_565 S
C673 H663 0.930 . S
C673 C666 1.409 . S
C673 C672 1.362 1_545 S
H674 C680 0.930 . S
H675 C683 0.930 . S
H676 C684 0.930 . S
H677 C685 0.930 . S
H678 C688 0.930 . S
H679 C689 0.930 1_455 S
C680 H674 0.930 . S
C680 C681 1.355 . S
C680 C682 1.415 . S
C681 C680 1.355 . S
C681 C683 1.419 . S
C682 C680 1.415 . S
C682 C687 1.425 1_455 S
C682 C689 1.409 1_455 S
C683 H675 0.930 . S
C683 C681 1.419 . S
C683 C684 1.362 . S
C684 H676 0.930 . S
C684 C683 1.362 . S
C684 C687 1.409 1_455 S
C685 H677 0.930 . S
C685 C686 1.355 . S
C685 C687 1.415 . S
C686 C685 1.355 . S
C686 C688 1.419 . S
C687 C682 1.425 1_655 S
C687 C684 1.409 1_655 S
C687 C685 1.415 . S
C688 H678 0.930 . S
C688 C686 1.419 . S
C688 C689 1.362 . S
C689 H679 0.930 1_655 S
C689 C682 1.409 1_655 S
C689 C688 1.362 . S
H690 C696 0.930 . S
H691 C699 0.930 . S
H692 C700 0.930 . S
H693 C701 0.930 . S
H694 C704 0.930 . S
H695 C705 0.930 . S
C696 H690 0.930 . S
C696 C697 1.355 . S
C696 C698 1.415 . S
C697 C696 1.355 . S
C697 C699 1.419 . S
C698 C696 1.415 . S
C698 C703 1.425 . S
C698 C705 1.409 . S
C699 H691 0.930 . S
C699 C697 1.419 . S
C699 C700 1.362 . S
C700 H692 0.930 . S
C700 C699 1.362 . S
C700 C703 1.409 . S
C701 H693 0.930 . S
C701 C702 1.355 . S
C701 C703 1.415 . S
C702 C701 1.355 . S
C702 C704 1.419 . S
C703 C698 1.425 . S
C703 C700 1.409 . S
C703 C701 1.415 . S
C704 H694 0.930 . S
C704 C702 1.419 . S
C704 C705 1.362 . S
C705 H695 0.930 . S
C705 C698 1.409 . S
C705 C704 1.362 . S
H706 C712 0.930 . S
H707 C715 0.930 . S
H708 C716 0.930 . S
H709 C717 0.930 . S
H710 C720 0.930 . S
H711 C721 0.930 . S
C712 H706 0.930 . S
C712 C713 1.355 . S
C712 C714 1.415 . S
C713 C712 1.355 . S
C713 C715 1.419 . S
C714 C712 1.415 . S
C714 C719 1.425 . S
C714 C721 1.409 . S
C715 H707 0.930 . S
C715 C713 1.419 . S
C715 C716 1.362 . S
C716 H708 0.930 . S
C716 C715 1.362 . S
C716 C719 1.409 . S
C717 H709 0.930 . S
C717 C718 1.355 . S
C717 C719 1.415 . S
C718 C717 1.355 . S
C718 C720 1.419 . S
C719 C714 1.425 . S
C719 C716 1.409 . S
C719 C717 1.415 . S
C720 H710 0.930 . S
C720 C718 1.419 . S
C720 C721 1.362 . S
C721 H711 0.930 . S
C721 C714 1.409 . S
C721 C720 1.362 . S
H722 C728 0.930 . S
H723 C731 0.930 . S
H724 C732 0.930 . S
H725 C733 0.930 . S
H726 C736 0.930 . S
H727 C737 0.930 . S
C728 H722 0.930 . S
C728 C729 1.355 . S
C728 C730 1.415 . S
C729 C728 1.355 . S
C729 C731 1.419 . S
C730 C728 1.415 . S
C730 C735 1.425 . S
C730 C737 1.409 . S
C731 H723 0.930 . S
C731 C729 1.419 . S
C731 C732 1.362 . S
C732 H724 0.930 . S
C732 C731 1.362 . S
C732 C735 1.409 . S
C733 H725 0.930 . S
C733 C734 1.355 . S
C733 C735 1.415 . S
C734 C733 1.355 . S
C734 C736 1.419 . S
C735 C730 1.425 . S
C735 C732 1.409 . S
C735 C733 1.415 . S
C736 H726 0.930 . S
C736 C734 1.419 . S
C736 C737 1.362 . S
C737 H727 0.930 . S
C737 C730 1.409 . S
C737 C736 1.362 . S
H738 C744 0.930 . S
H739 C747 0.930 . S
H740 C748 0.930 . S
H741 C749 0.930 . S
H742 C752 0.930 . S
H743 C753 0.930 . S
C744 H738 0.930 . S
C744 C745 1.355 . S
C744 C746 1.415 . S
C745 C744 1.355 . S
C745 C747 1.419 . S
C746 C744 1.415 . S
C746 C751 1.425 . S
C746 C753 1.409 . S
C747 H739 0.930 . S
C747 C745 1.419 . S
C747 C748 1.362 . S
C748 H740 0.930 . S
C748 C747 1.362 . S
C748 C751 1.409 . S
C749 H741 0.930 . S
C749 C750 1.355 . S
C749 C751 1.415 . S
C750 C749 1.355 . S
C750 C752 1.419 . S
C751 C746 1.425 . S
C751 C748 1.409 . S
C751 C749 1.415 . S
C752 H742 0.930 . S
C752 C750 1.419 . S
C752 C753 1.362 . S
C753 H743 0.930 . S
C753 C746 1.409 . S
C753 C752 1.362 . S
H754 C760 0.930 . S
H755 C763 0.930 . S
H756 C764 0.930 . S
H757 C765 0.930 . S
H758 C768 0.930 . S
H759 C769 0.930 . S
C760 H754 0.930 . S
C760 C761 1.355 . S
C760 C762 1.415 . S
C761 C760 1.355 . S
C761 C763 1.419 . S
C762 C760 1.415 . S
C762 C767 1.425 . S
C762 C769 1.409 . S
C763 H755 0.930 . S
C763 C761 1.419 . S
C763 C764 1.362 . S
C764 H756 0.930 . S
C764 C763 1.362 . S
C764 C767 1.409 . S
C765 H757 0.930 . S
C765 C766 1.355 . S
C765 C767 1.415 . S
C766 C765 1.355 . S
C766 C768 1.419 . S
C767 C762 1.425 . S
C767 C764 1.409 . S
C767 C765 1.415 . S
C768 H758 0.930 . S
C768 C766 1.419 . S
C768 C769 1.362 . S
C769 H759 0.930 . S
C769 C762 1.409 . S
C769 C768 1.362 . S
H770 C776 0.930 . S
H771 C779 0.930 . S
H772 C780 0.930 . S
H773 C781 0.930 . S
H774 C784 0.930 . S
H775 C785 0.930 . S
C776 H770 0.930 . S
C776 C777 1.355 . S
C776 C778 1.415 . S
C777 C776 1.355 . S
C777 C779 1.419 . S
C778 C776 1.415 . S
C778 C783 1.425 . S
C778 C785 1.409 . S
C779 H771 0.930 . S
C779 C777 1.419 . S
C779 C780 1.362 . S
C780 H772 0.930 . S
C780 C779 1.362 . S
C780 C783 1.409 . S
C781 H773 0.930 . S
C781 C782 1.355 . S
C781 C783 1.415 . S
C782 C781 1.355 . S
C782 C784 1.419 . S
C783 C778 1.425 . S
C783 C780 1.409 . S
C783 C781 1.415 . S
C784 H774 0.930 . S
C784 C782 1.419 . S
C784 C785 1.362 . S
C785 H775 0.930 . S
C785 C778 1.409 . S
C785 C784 1.362 . S
H786 C792 0.930 . S
H787 C795 0.930 . S
H788 C796 0.930 . S
H789 C797 0.930 . S
H790 C800 0.930 . S
H791 C801 0.930 . S
C792 H786 0.930 . S
C792 C793 1.355 . S
C792 C794 1.415 . S
C793 C792 1.355 . S
C793 C795 1.419 . S
C794 C792 1.415 . S
C794 C799 1.425 . S
C794 C801 1.409 . S
C795 H787 0.930 . S
C795 C793 1.419 . S
C795 C796 1.362 . S
C796 H788 0.930 . S
C796 C795 1.362 . S
C796 C799 1.409 . S
C797 H789 0.930 . S
C797 C798 1.355 . S
C797 C799 1.415 . S
C798 C797 1.355 . S
C798 C800 1.419 . S
C799 C794 1.425 . S
C799 C796 1.409 . S
C799 C797 1.415 . S
C800 H790 0.930 . S
C800 C798 1.419 . S
C800 C801 1.362 . S
C801 H791 0.930 . S
C801 C794 1.409 . S
C801 C800 1.362 . S
H802 C808 0.930 . S
H803 C811 0.930 . S
H804 C812 0.930 . S
H805 C813 0.930 . S
H806 C816 0.930 . S
H807 C817 0.930 . S
C808 H802 0.930 . S
C808 C809 1.355 . S
C808 C810 1.415 . S
C809 C808 1.355 . S
C809 C811 1.419 . S
C810 C808 1.415 . S
C810 C815 1.425 . S
C810 C817 1.409 . S
C811 H803 0.930 . S
C811 C809 1.419 . S
C811 C812 1.362 . S
C812 H804 0.930 . S
C812 C811 1.362 . S
C812 C815 1.409 . S
C813 H805 0.930 . S
C813 C814 1.355 . S
C813 C815 1.415 . S
C814 C813 1.355 . S
C814 C816 1.419 . S
C815 C810 1.425 . S
C815 C812 1.409 . S
C815 C813 1.415 . S
C816 H806 0.930 . S
C816 C814 1.419 . S
C816 C817 1.362 . S
C817 H807 0.930 . S
C817 C810 1.409 . S
C817 C816 1.362 . S
H818 C824 0.930 . S
H819 C827 0.930 1_554 S
H820 C828 0.930 1_554 S
H821 C829 0.930 1_554 S
H822 C832 0.930 . S
H823 C833 0.930 . S
C824 H818 0.930 . S
C824 C825 1.355 . S
C824 C826 1.415 . S
C825 C824 1.355 . S
C825 C827 1.419 . S
C826 C824 1.415 . S
C826 C831 1.425 . S
C826 C833 1.409 . S
C827 H819 0.930 1_556 S
C827 C825 1.419 . S
C827 C828 1.362 . S
C828 H820 0.930 1_556 S
C828 C827 1.362 . S
C828 C831 1.409 . S
C829 H821 0.930 1_556 S
C829 C830 1.355 . S
C829 C831 1.415 . S
C830 C829 1.355 . S
C830 C832 1.419 . S
C831 C826 1.425 . S
C831 C828 1.409 . S
C831 C829 1.415 . S
C832 H822 0.930 . S
C832 C830 1.419 . S
C832 C833 1.362 . S
C833 H823 0.930 . S
C833 C826 1.409 . S
C833 C832 1.362 . S
H834 C840 0.930 . S
H835 C843 0.930 . S
H836 C844 0.930 . S
H837 C845 0.930 . S
H838 C848 0.930 . S
H839 C849 0.930 . S
C840 H834 0.930 . S
C840 C841 1.355 . S
C840 C842 1.415 . S
C841 C840 1.355 . S
C841 C843 1.419 . S
C842 C840 1.415 . S
C842 C847 1.425 . S
C842 C849 1.409 . S
C843 H835 0.930 . S
C843 C841 1.419 . S
C843 C844 1.362 . S
C844 H836 0.930 . S
C844 C843 1.362 . S
C844 C847 1.409 . S
C845 H837 0.930 . S
C845 C846 1.355 . S
C845 C847 1.415 . S
C846 C845 1.355 . S
C846 C848 1.419 . S
C847 C842 1.425 . S
C847 C844 1.409 . S
C847 C845 1.415 . S
C848 H838 0.930 . S
C848 C846 1.419 . S
C848 C849 1.362 . S
C849 H839 0.930 . S
C849 C842 1.409 . S
C849 C848 1.362 . S
H850 C856 0.930 . S
H851 C859 0.930 . S
H852 C860 0.930 . S
H853 C861 0.930 . S
H854 C864 0.930 . S
H855 C865 0.930 . S
C856 H850 0.930 . S
C856 C857 1.355 . S
C856 C858 1.415 . S
C857 C856 1.355 . S
C857 C859 1.419 . S
C858 C856 1.415 . S
C858 C863 1.425 . S
C858 C865 1.409 . S
C859 H851 0.930 . S
C859 C857 1.419 . S
C859 C860 1.362 . S
C860 H852 0.930 . S
C860 C859 1.362 . S
C860 C863 1.409 . S
C861 H853 0.930 . S
C861 C862 1.355 . S
C861 C863 1.415 . S
C862 C861 1.355 . S
C862 C864 1.419 . S
C863 C858 1.425 . S
C863 C860 1.409 . S
C863 C861 1.415 . S
C864 H854 0.930 . S
C864 C862 1.419 . S
C864 C865 1.362 . S
C865 H855 0.930 . S
C865 C858 1.409 . S
C865 C864 1.362 . S
H866 C872 0.930 . S
H867 C875 0.930 . S
H868 C876 0.930 . S
H869 C877 0.930 . S
H870 C880 0.930 . S
H871 C881 0.930 . S
C872 H866 0.930 . S
C872 C873 1.355 . S
C872 C874 1.415 . S
C873 C872 1.355 . S
C873 C875 1.419 . S
C874 C872 1.415 . S
C874 C879 1.425 . S
C874 C881 1.409 . S
C875 H867 0.930 . S
C875 C873 1.419 . S
C875 C876 1.362 . S
C876 H868 0.930 . S
C876 C875 1.362 . S
C876 C879 1.409 . S
C877 H869 0.930 . S
C877 C878 1.355 . S
C877 C879 1.415 . S
C878 C877 1.355 . S
C878 C880 1.419 . S
C879 C874 1.425 . S
C879 C876 1.409 . S
C879 C877 1.415 . S
C880 H870 0.930 . S
C880 C878 1.419 . S
C880 C881 1.362 . S
C881 H871 0.930 . S
C881 C874 1.409 . S
C881 C880 1.362 . S
H882 C888 0.930 . S
H883 C891 0.930 . S
H884 C892 0.930 . S
H885 C893 0.930 . S
H886 C896 0.930 . S
H887 C897 0.930 . S
C888 H882 0.930 . S
C888 C889 1.355 . S
C888 C890 1.415 . S
C889 C888 1.355 . S
C889 C891 1.419 . S
C890 C888 1.415 . S
C890 C895 1.425 . S
C890 C897 1.409 . S
C891 H883 0.930 . S
C891 C889 1.419 . S
C891 C892 1.362 . S
C892 H884 0.930 . S
C892 C891 1.362 . S
C892 C895 1.409 . S
C893 H885 0.930 . S
C893 C894 1.355 . S
C893 C895 1.415 . S
C894 C893 1.355 . S
C894 C896 1.419 . S
C895 C890 1.425 . S
C895 C892 1.409 . S
C895 C893 1.415 . S
C896 H886 0.930 . S
C896 C894 1.419 . S
C896 C897 1.362 . S
C897 H887 0.930 . S
C897 C890 1.409 . S
C897 C896 1.362 . S
H898 C904 0.930 . S
H899 C907 0.930 . S
H900 C908 0.930 . S
H901 C909 0.930 . S
H902 C912 0.930 . S
H903 C913 0.930 . S
C904 H898 0.930 . S
C904 C905 1.355 . S
C904 C906 1.415 . S
C905 C904 1.355 . S
C905 C907 1.419 . S
C906 C904 1.415 . S
C906 C911 1.425 . S
C906 C913 1.409 . S
C907 H899 0.930 . S
C907 C905 1.419 . S
C907 C908 1.362 . S
C908 H900 0.930 . S
C908 C907 1.362 . S
C908 C911 1.409 . S
C909 H901 0.930 . S
C909 C910 1.355 . S
C909 C911 1.415 . S
C910 C909 1.355 . S
C910 C912 1.419 . S
C911 C906 1.425 . S
C911 C908 1.409 . S
C911 C909 1.415 . S
C912 H902 0.930 . S
C912 C910 1.419 . S
C912 C913 1.362 . S
C913 H903 0.930 . S
C913 C906 1.409 . S
C913 C912 1.362 . S
H914 C920 0.930 . S
H915 C923 0.930 . S
H916 C924 0.930 . S
H917 C925 0.930 . S
H918 C928 0.930 . S
H919 C929 0.930 . S
C920 H914 0.930 . S
C920 C921 1.355 . S
C920 C922 1.415 . S
C921 C920 1.355 . S
C921 C923 1.419 . S
C922 C920 1.415 . S
C922 C927 1.425 . S
C922 C929 1.409 . S
C923 H915 0.930 . S
C923 C921 1.419 . S
C923 C924 1.362 . S
C924 H916 0.930 . S
C924 C923 1.362 . S
C924 C927 1.409 . S
C925 H917 0.930 . S
C925 C926 1.355 . S
C925 C927 1.415 . S
C926 C925 1.355 . S
C926 C928 1.419 . S
C927 C922 1.425 . S
C927 C924 1.409 . S
C927 C925 1.415 . S
C928 H918 0.930 . S
C928 C926 1.419 . S
C928 C929 1.362 . S
C929 H919 0.930 . S
C929 C922 1.409 . S
C929 C928 1.362 . S
H930 C936 0.930 . S
H931 C939 0.930 . S
H932 C940 0.930 . S
H933 C941 0.930 . S
H934 C944 0.930 . S
H935 C945 0.930 . S
C936 H930 0.930 . S
C936 C937 1.355 . S
C936 C938 1.415 . S
C937 C936 1.355 . S
C937 C939 1.419 . S
C938 C936 1.415 . S
C938 C943 1.425 . S
C938 C945 1.409 . S
C939 H931 0.930 . S
C939 C937 1.419 . S
C939 C940 1.362 . S
C940 H932 0.930 . S
C940 C939 1.362 . S
C940 C943 1.409 . S
C941 H933 0.930 . S
C941 C942 1.355 . S
C941 C943 1.415 . S
C942 C941 1.355 . S
C942 C944 1.419 . S
C943 C938 1.425 . S
C943 C940 1.409 . S
C943 C941 1.415 . S
C944 H934 0.930 . S
C944 C942 1.419 . S
C944 C945 1.362 . S
C945 H935 0.930 . S
C945 C938 1.409 . S
C945 C944 1.362 . S
H946 C952 0.930 . S
H947 C955 0.930 . S
H948 C956 0.930 . S
H949 C957 0.930 . S
H950 C960 0.930 . S
H951 C961 0.930 . S
C952 H946 0.930 . S
C952 C953 1.355 . S
C952 C954 1.415 . S
C953 C952 1.355 . S
C953 C955 1.419 . S
C954 C952 1.415 . S
C954 C959 1.425 . S
C954 C961 1.409 . S
C955 H947 0.930 . S
C955 C953 1.419 . S
C955 C956 1.362 . S
C956 H948 0.930 . S
C956 C955 1.362 . S
C956 C959 1.409 . S
C957 H949 0.930 . S
C957 C958 1.355 . S
C957 C959 1.415 . S
C958 C957 1.355 . S
C958 C960 1.419 . S
C959 C954 1.425 . S
C959 C956 1.409 . S
C959 C957 1.415 . S
C960 H950 0.930 . S
C960 C958 1.419 . S
C960 C961 1.362 . S
C961 H951 0.930 . S
C961 C954 1.409 . S
C961 C960 1.362 . S
H962 C968 0.930 . S
H963 C971 0.930 . S
H964 C972 0.930 . S
H965 C973 0.930 . S
H966 C976 0.930 . S
H967 C977 0.930 . S
C968 H962 0.930 . S
C968 C969 1.355 . S
C968 C970 1.415 . S
C969 C968 1.355 . S
C969 C971 1.419 . S
C970 C968 1.415 . S
C970 C975 1.425 . S
C970 C977 1.409 . S
C971 H963 0.930 . S
C971 C969 1.419 . S
C971 C972 1.362 . S
C972 H964 0.930 . S
C972 C971 1.362 . S
C972 C975 1.409 . S
C973 H965 0.930 . S
C973 C974 1.355 . S
C973 C975 1.415 . S
C974 C973 1.355 . S
C974 C976 1.419 . S
C975 C970 1.425 . S
C975 C972 1.409 . S
C975 C973 1.415 . S
C976 H966 0.930 . S
C976 C974 1.419 . S
C976 C977 1.362 . S
C977 H967 0.930 . S
C977 C970 1.409 . S
C977 C976 1.362 . S
H978 C984 0.930 . S
H979 C987 0.930 . S
H980 C988 0.930 . S
H981 C989 0.930 . S
H982 C992 0.930 . S
H983 C993 0.930 . S
C984 H978 0.930 . S
C984 C985 1.355 . S
C984 C986 1.415 1_655 S
C985 C984 1.355 . S
C985 C987 1.419 . S
C986 C984 1.415 1_455 S
C986 C991 1.425 . S
C986 C993 1.409 . S
C987 H979 0.930 . S
C987 C985 1.419 . S
C987 C988 1.362 . S
C988 H980 0.930 . S
C988 C987 1.362 . S
C988 C991 1.409 1_655 S
C989 H981 0.930 . S
C989 C990 1.355 . S
C989 C991 1.415 . S
C990 C989 1.355 . S
C990 C992 1.419 . S
C991 C986 1.425 . S
C991 C988 1.409 1_455 S
C991 C989 1.415 . S
C992 H982 0.930 . S
C992 C990 1.419 . S
C992 C993 1.362 . S
C993 H983 0.930 . S
C993 C986 1.409 . S
C993 C992 1.362 . S
H994 C1000 0.930 . S
H995 C1003 0.930 . S
H996 C1004 0.930 . S
H997 C1005 0.930 . S
H998 C1008 0.930 . S
H999 C1009 0.930 . S
C1000 H994 0.930 . S
C1000 C1001 1.355 . S
C1000 C1002 1.415 . S
C1001 C1000 1.355 . S
C1001 C1003 1.419 . S
C1002 C1000 1.415 . S
C1002 C1007 1.425 . S
C1002 C1009 1.409 . S
C1003 H995 0.930 . S
C1003 C1001 1.419 . S
C1003 C1004 1.362 . S
C1004 H996 0.930 . S
C1004 C1003 1.362 . S
C1004 C1007 1.409 . S
C1005 H997 0.930 . S
C1005 C1006 1.355 . S
C1005 C1007 1.415 . S
C1006 C1005 1.355 . S
C1006 C1008 1.419 . S
C1007 C1002 1.425 . S
C1007 C1004 1.409 . S
C1007 C1005 1.415 . S
C1008 H998 0.930 . S
C1008 C1006 1.419 . S
C1008 C1009 1.362 . S
C1009 H999 0.930 . S
C1009 C1002 1.409 . S
C1009 C1008 1.362 . S
H1010 C1016 0.930 . S
H1011 C1019 0.930 . S
H1012 C1020 0.930 . S
H1013 C1021 0.930 . S
H1014 C1024 0.930 . S
H1015 C1025 0.930 . S
C1016 H1010 0.930 . S
C1016 C1017 1.355 . S
C1016 C1018 1.415 1_565 S
C1017 C1016 1.355 . S
C1017 C1019 1.419 . S
C1018 C1016 1.415 1_545 S
C1018 C1023 1.425 . S
C1018 C1025 1.409 . S
C1019 H1011 0.930 . S
C1019 C1017 1.419 . S
C1019 C1020 1.362 . S
C1020 H1012 0.930 . S
C1020 C1019 1.362 . S
C1020 C1023 1.409 1_565 S
C1021 H1013 0.930 . S
C1021 C1022 1.355 . S
C1021 C1023 1.415 . S
C1022 C1021 1.355 . S
C1022 C1024 1.419 . S
C1023 C1018 1.425 . S
C1023 C1020 1.409 1_545 S
C1023 C1021 1.415 . S
C1024 H1014 0.930 . S
C1024 C1022 1.419 . S
C1024 C1025 1.362 . S
C1025 H1015 0.930 . S
C1025 C1018 1.409 . S
C1025 C1024 1.362 . S
H1026 C1032 0.930 . S
H1027 C1035 0.930 . S
H1028 C1036 0.930 . S
H1029 C1037 0.930 1_565 S
H1030 C1040 0.930 . S
H1031 C1041 0.930 . S
C1032 H1026 0.930 . S
C1032 C1033 1.350 1_545 S
C1032 C1034 1.415 . S
C1033 C1032 1.350 1_565 S
C1033 C1035 1.424 . S
C1034 C1032 1.415 . S
C1034 C1039 1.444 . S
C1034 C1041 1.409 . S
C1035 H1027 0.930 . S
C1035 C1033 1.424 . S
C1035 C1036 1.362 . S
C1036 H1028 0.930 . S
C1036 C1035 1.362 . S
C1036 C1039 1.389 1_565 S
C1037 H1029 0.930 1_545 S
C1037 C1038 1.355 . S
C1037 C1039 1.417 . S
C1038 C1037 1.355 . S
C1038 C1040 1.419 . S
C1039 C1034 1.444 . S
C1039 C1036 1.389 1_545 S
C1039 C1037 1.417 . S
C1040 H1030 0.930 . S
C1040 C1038 1.419 . S
C1040 C1041 1.362 . S
C1041 H1031 0.930 . S
C1041 C1034 1.409 . S
C1041 C1040 1.362 . S
H1042 C1048 0.930 . S
H1043 C1051 0.930 . S
H1044 C1052 0.930 . S
H1045 C1053 0.930 . S
H1046 C1056 0.930 . S
H1047 C1057 0.930 . S
C1048 H1042 0.930 . S
C1048 C1049 1.356 . S
C1048 C1050 1.415 . S
C1049 C1048 1.356 . S
C1049 C1051 1.419 1_455 S
C1050 C1048 1.415 . S
C1050 C1055 1.425 . S
C1050 C1057 1.409 . S
C1051 H1043 0.930 . S
C1051 C1049 1.419 1_655 S
C1051 C1052 1.362 . S
C1052 H1044 0.930 . S
C1052 C1051 1.362 . S
C1052 C1055 1.409 1_655 S
C1053 H1045 0.930 . S
C1053 C1054 1.355 . S
C1053 C1055 1.415 . S
C1054 C1053 1.355 . S
C1054 C1056 1.419 . S
C1055 C1050 1.425 . S
C1055 C1052 1.409 1_455 S
C1055 C1053 1.415 . S
C1056 H1046 0.930 . S
C1056 C1054 1.419 . S
C1056 C1057 1.362 . S
C1057 H1047 0.930 . S
C1057 C1050 1.409 . S
C1057 C1056 1.362 . S
H1058 C1064 0.930 . S
H1059 C1067 0.930 . S
H1060 C1068 0.930 . S
H1061 C1069 0.930 . S
H1062 C1072 0.930 . S
H1063 C1073 0.930 . S
C1064 H1058 0.930 . S
C1064 C1065 1.355 . S
C1064 C1066 1.415 . S
C1065 C1064 1.355 . S
C1065 C1067 1.419 . S
C1066 C1064 1.415 . S
C1066 C1071 1.425 . S
C1066 C1073 1.409 . S
C1067 H1059 0.930 . S
C1067 C1065 1.419 . S
C1067 C1068 1.362 . S
C1068 H1060 0.930 . S
C1068 C1067 1.362 . S
C1068 C1071 1.409 . S
C1069 H1061 0.930 . S
C1069 C1070 1.355 . S
C1069 C1071 1.415 . S
C1070 C1069 1.355 . S
C1070 C1072 1.419 . S
C1071 C1066 1.425 . S
C1071 C1068 1.409 . S
C1071 C1069 1.415 . S
C1072 H1062 0.930 . S
C1072 C1070 1.419 . S
C1072 C1073 1.362 . S
C1073 H1063 0.930 . S
C1073 C1066 1.409 . S
C1073 C1072 1.362 . S
H1074 C1080 0.930 . S
H1075 C1083 0.930 . S
H1076 C1084 0.930 . S
H1077 C1085 0.930 . S
H1078 C1088 0.930 . S
H1079 C1089 0.930 . S
C1080 H1074 0.930 . S
C1080 C1081 1.355 . S
C1080 C1082 1.415 . S
C1081 C1080 1.355 . S
C1081 C1083 1.419 . S
C1082 C1080 1.415 . S
C1082 C1087 1.425 . S
C1082 C1089 1.409 . S
C1083 H1075 0.930 . S
C1083 C1081 1.419 . S
C1083 C1084 1.362 . S
C1084 H1076 0.930 . S
C1084 C1083 1.362 . S
C1084 C1087 1.409 . S
C1085 H1077 0.930 . S
C1085 C1086 1.355 . S
C1085 C1087 1.415 . S
C1086 C1085 1.355 . S
C1086 C1088 1.419 . S
C1087 C1082 1.425 . S
C1087 C1084 1.409 . S
C1087 C1085 1.415 . S
C1088 H1078 0.930 . S
C1088 C1086 1.419 . S
C1088 C1089 1.362 . S
C1089 H1079 0.930 . S
C1089 C1082 1.409 . S
C1089 C1088 1.362 . S
H1090 C1096 0.930 . S
H1091 C1099 0.930 . S
H1092 C1100 0.930 . S
H1093 C1101 0.930 . S
H1094 C1104 0.930 . S
H1095 C1105 0.930 . S
C1096 H1090 0.930 . S
C1096 C1097 1.355 . S
C1096 C1098 1.415 . S
C1097 C1096 1.355 . S
C1097 C1099 1.419 . S
C1098 C1096 1.415 . S
C1098 C1103 1.425 . S
C1098 C1105 1.409 . S
C1099 H1091 0.930 . S
C1099 C1097 1.419 . S
C1099 C1100 1.362 . S
C1100 H1092 0.930 . S
C1100 C1099 1.362 . S
C1100 C1103 1.409 . S
C1101 H1093 0.930 . S
C1101 C1102 1.355 . S
C1101 C1103 1.415 . S
C1102 C1101 1.355 . S
C1102 C1104 1.419 . S
C1103 C1098 1.425 . S
C1103 C1100 1.409 . S
C1103 C1101 1.415 . S
C1104 H1094 0.930 . S
C1104 C1102 1.419 . S
C1104 C1105 1.362 . S
C1105 H1095 0.930 . S
C1105 C1098 1.409 . S
C1105 C1104 1.362 . S
H1106 C1112 0.930 . S
H1107 C1115 0.930 . S
H1108 C1116 0.930 . S
H1109 C1117 0.930 . S
H1110 C1120 0.930 . S
H1111 C1121 0.930 . S
C1112 H1106 0.930 . S
C1112 C1113 1.355 . S
C1112 C1114 1.415 . S
C1113 C1112 1.355 . S
C1113 C1115 1.419 . S
C1114 C1112 1.415 . S
C1114 C1119 1.425 . S
C1114 C1121 1.409 . S
C1115 H1107 0.930 . S
C1115 C1113 1.419 . S
C1115 C1116 1.362 . S
C1116 H1108 0.930 . S
C1116 C1115 1.362 . S
C1116 C1119 1.409 . S
C1117 H1109 0.930 . S
C1117 C1118 1.355 . S
C1117 C1119 1.415 . S
C1118 C1117 1.355 . S
C1118 C1120 1.419 . S
C1119 C1114 1.425 . S
C1119 C1116 1.409 . S
C1119 C1117 1.415 . S
C1120 H1110 0.930 . S
C1120 C1118 1.419 . S
C1120 C1121 1.362 . S
C1121 H1111 0.930 . S
C1121 C1114 1.409 . S
C1121 C1120 1.362 . S
H1122 C1128 0.930 . S
H1123 C1131 0.930 . S
H1124 C1132 0.930 . S
H1125 C1133 0.930 . S
H1126 C1136 0.930 . S
H1127 C1137 0.930 . S
C1128 H1122 0.930 . S
C1128 C1129 1.355 . S
C1128 C1130 1.415 . S
C1129 C1128 1.355 . S
C1129 C1131 1.419 . S
C1130 C1128 1.415 . S
C1130 C1135 1.425 . S
C1130 C1137 1.409 . S
C1131 H1123 0.930 . S
C1131 C1129 1.419 . S
C1131 C1132 1.362 . S
C1132 H1124 0.930 . S
C1132 C1131 1.362 . S
C1132 C1135 1.409 . S
C1133 H1125 0.930 . S
C1133 C1134 1.355 . S
C1133 C1135 1.415 . S
C1134 C1133 1.355 . S
C1134 C1136 1.419 . S
C1135 C1130 1.425 . S
C1135 C1132 1.409 . S
C1135 C1133 1.415 . S
C1136 H1126 0.930 . S
C1136 C1134 1.419 . S
C1136 C1137 1.362 . S
C1137 H1127 0.930 . S
C1137 C1130 1.409 . S
C1137 C1136 1.362 . S
H1138 C1144 0.930 . S
H1139 C1147 0.930 . S
H1140 C1148 0.930 . S
H1141 C1149 0.930 . S
H1142 C1152 0.930 . S
H1143 C1153 0.930 . S
C1144 H1138 0.930 . S
C1144 C1145 1.355 . S
C1144 C1146 1.415 . S
C1145 C1144 1.355 . S
C1145 C1147 1.419 . S
C1146 C1144 1.415 . S
C1146 C1151 1.425 . S
C1146 C1153 1.409 . S
C1147 H1139 0.930 . S
C1147 C1145 1.419 . S
C1147 C1148 1.362 . S
C1148 H1140 0.930 . S
C1148 C1147 1.362 . S
C1148 C1151 1.409 . S
C1149 H1141 0.930 . S
C1149 C1150 1.355 . S
C1149 C1151 1.415 . S
C1150 C1149 1.355 . S
C1150 C1152 1.419 . S
C1151 C1146 1.425 . S
C1151 C1148 1.409 . S
C1151 C1149 1.415 . S
C1152 H1142 0.930 . S
C1152 C1150 1.419 . S
C1152 C1153 1.362 . S
C1153 H1143 0.930 . S
C1153 C1146 1.409 . S
C1153 C1152 1.362 . S
H1154 C1160 0.930 . S
H1155 C1163 0.930 . S
H1156 C1164 0.930 . S
H1157 C1165 0.930 . S
H1158 C1168 0.930 . S
H1159 C1169 0.930 . S
C1160 H1154 0.930 . S
C1160 C1161 1.355 . S
C1160 C1162 1.415 . S
C1161 C1160 1.355 . S
C1161 C1163 1.419 . S
C1162 C1160 1.415 . S
C1162 C1167 1.425 . S
C1162 C1169 1.409 . S
C1163 H1155 0.930 . S
C1163 C1161 1.419 . S
C1163 C1164 1.362 . S
C1164 H1156 0.930 . S
C1164 C1163 1.362 . S
C1164 C1167 1.409 . S
C1165 H1157 0.930 . S
C1165 C1166 1.355 . S
C1165 C1167 1.415 . S
C1166 C1165 1.355 . S
C1166 C1168 1.419 . S
C1167 C1162 1.425 . S
C1167 C1164 1.409 . S
C1167 C1165 1.415 . S
C1168 H1158 0.930 . S
C1168 C1166 1.419 . S
C1168 C1169 1.362 . S
C1169 H1159 0.930 . S
C1169 C1162 1.409 . S
C1169 C1168 1.362 . S
H1170 C1176 0.930 . S
H1171 C1179 0.930 . S
H1172 C1180 0.930 1_556 S
H1173 C1181 0.930 1_565 S
H1174 C1184 0.930 . S
H1175 C1185 0.930 1_554 S
C1176 H1170 0.930 . S
C1176 C1177 1.357 . S
C1176 C1178 1.415 . S
C1177 C1176 1.357 . S
C1177 C1179 1.417 1_545 S
C1178 C1176 1.415 . S
C1178 C1183 1.443 1_554 S
C1178 C1185 1.409 1_554 S
C1179 H1171 0.930 . S
C1179 C1177 1.417 1_565 S
C1179 C1180 1.362 . S
C1180 H1172 0.930 1_554 S
C1180 C1179 1.362 . S
C1180 C1183 1.392 1_564 S
C1181 H1173 0.930 1_545 S
C1181 C1182 1.355 . S
C1181 C1183 1.415 . S
C1182 C1181 1.355 . S
C1182 C1184 1.419 . S
C1183 C1178 1.443 1_556 S
C1183 C1180 1.392 1_546 S
C1183 C1181 1.415 . S
C1184 H1174 0.930 . S
C1184 C1182 1.419 . S
C1184 C1185 1.362 . S
C1185 H1175 0.930 1_556 S
C1185 C1178 1.409 1_556 S
C1185 C1184 1.362 . S
H1186 C1192 0.930 . S
H1187 C1195 0.930 . S
H1188 C1196 0.930 . S
H1189 C1197 0.930 . S
H1190 C1200 0.930 . S
H1191 C1201 0.930 . S
C1192 H1186 0.930 . S
C1192 C1193 1.355 . S
C1192 C1194 1.415 . S
C1193 C1192 1.355 . S
C1193 C1195 1.419 . S
C1194 C1192 1.415 . S
C1194 C1199 1.425 1_554 S
C1194 C1201 1.409 1_554 S
C1195 H1187 0.930 . S
C1195 C1193 1.419 . S
C1195 C1196 1.362 . S
C1196 H1188 0.930 . S
C1196 C1195 1.362 . S
C1196 C1199 1.409 1_554 S
C1197 H1189 0.930 . S
C1197 C1198 1.355 . S
C1197 C1199 1.415 . S
C1198 C1197 1.355 . S
C1198 C1200 1.419 . S
C1199 C1194 1.425 1_556 S
C1199 C1196 1.409 1_556 S
C1199 C1197 1.415 . S
C1200 H1190 0.930 . S
C1200 C1198 1.419 . S
C1200 C1201 1.362 . S
C1201 H1191 0.930 . S
C1201 C1194 1.409 1_556 S
C1201 C1200 1.362 . S
H1202 C1208 0.930 . S
H1203 C1211 0.930 . S
H1204 C1212 0.939 . S
H1205 C1213 0.930 . S
H1206 C1216 0.930 . S
H1207 C1217 0.939 . S
C1208 H1202 0.930 . S
C1208 C1209 1.355 . S
C1208 C1210 1.415 . S
C1209 C1208 1.355 . S
C1209 C1211 1.419 . S
C1210 C1208 1.415 . S
C1210 C1215 1.425 1_556 S
C1210 C1217 1.409 1_556 S
C1211 H1203 0.930 . S
C1211 C1209 1.419 . S
C1211 C1212 1.362 . S
C1212 H1204 0.939 . S
C1212 C1211 1.362 . S
C1212 C1215 1.409 1_556 S
C1213 H1205 0.930 . S
C1213 C1214 1.355 . S
C1213 C1215 1.415 . S
C1214 C1213 1.355 . S
C1214 C1216 1.419 . S
C1215 C1210 1.425 1_554 S
C1215 C1212 1.409 1_554 S
C1215 C1213 1.415 . S
C1216 H1206 0.930 . S
C1216 C1214 1.419 . S
C1216 C1217 1.362 . S
C1217 H1207 0.939 . S
C1217 C1210 1.409 1_554 S
C1217 C1216 1.362 . S
H1218 C1224 0.930 . S
H1219 C1227 0.930 . S
H1220 C1228 0.930 . S
H1221 C1229 0.930 . S
H1222 C1232 0.930 . S
H1223 C1233 0.930 . S
C1224 H1218 0.930 . S
C1224 C1225 1.355 . S
C1224 C1226 1.415 . S
C1225 C1224 1.355 . S
C1225 C1227 1.419 . S
C1226 C1224 1.415 . S
C1226 C1231 1.425 . S
C1226 C1233 1.409 . S
C1227 H1219 0.930 . S
C1227 C1225 1.419 . S
C1227 C1228 1.362 . S
C1228 H1220 0.930 . S
C1228 C1227 1.362 . S
C1228 C1231 1.409 . S
C1229 H1221 0.930 . S
C1229 C1230 1.355 . S
C1229 C1231 1.415 . S
C1230 C1229 1.355 . S
C1230 C1232 1.419 . S
C1231 C1226 1.425 . S
C1231 C1228 1.409 . S
C1231 C1229 1.415 . S
C1232 H1222 0.930 . S
C1232 C1230 1.419 . S
C1232 C1233 1.362 . S
C1233 H1223 0.930 . S
C1233 C1226 1.409 . S
C1233 C1232 1.362 . S
H1234 C1240 0.930 . S
H1235 C1243 0.930 . S
H1236 C1244 0.930 . S
H1237 C1245 0.930 . S
H1238 C1248 0.930 . S
H1239 C1249 0.930 . S
C1240 H1234 0.930 . S
C1240 C1241 1.355 . S
C1240 C1242 1.415 . S
C1241 C1240 1.355 . S
C1241 C1243 1.419 . S
C1242 C1240 1.415 . S
C1242 C1247 1.425 . S
C1242 C1249 1.409 . S
C1243 H1235 0.930 . S
C1243 C1241 1.419 . S
C1243 C1244 1.362 . S
C1244 H1236 0.930 . S
C1244 C1243 1.362 . S
C1244 C1247 1.409 . S
C1245 H1237 0.930 . S
C1245 C1246 1.355 . S
C1245 C1247 1.415 . S
C1246 C1245 1.355 . S
C1246 C1248 1.419 . S
C1247 C1242 1.425 . S
C1247 C1244 1.409 . S
C1247 C1245 1.415 . S
C1248 H1238 0.930 . S
C1248 C1246 1.419 . S
C1248 C1249 1.362 . S
C1249 H1239 0.930 . S
C1249 C1242 1.409 . S
C1249 C1248 1.362 . S
H1250 C1256 0.930 . S
H1251 C1259 0.930 . S
H1252 C1260 0.930 . S
H1253 C1261 0.930 . S
H1254 C1264 0.930 . S
H1255 C1265 0.930 . S
C1256 H1250 0.930 . S
C1256 C1257 1.355 . S
C1256 C1258 1.415 . S
C1257 C1256 1.355 . S
C1257 C1259 1.419 . S
C1258 C1256 1.415 . S
C1258 C1263 1.425 . S
C1258 C1265 1.409 . S
C1259 H1251 0.930 . S
C1259 C1257 1.419 . S
C1259 C1260 1.362 . S
C1260 H1252 0.930 . S
C1260 C1259 1.362 . S
C1260 C1263 1.409 . S
C1261 H1253 0.930 . S
C1261 C1262 1.355 . S
C1261 C1263 1.415 . S
C1262 C1261 1.355 . S
C1262 C1264 1.419 . S
C1263 C1258 1.425 . S
C1263 C1260 1.409 . S
C1263 C1261 1.415 . S
C1264 H1254 0.930 . S
C1264 C1262 1.419 . S
C1264 C1265 1.362 . S
C1265 H1255 0.930 . S
C1265 C1258 1.409 . S
C1265 C1264 1.362 . S
H1266 C1272 0.930 . S
H1267 C1275 0.930 . S
H1268 C1276 0.930 . S
H1269 C1277 0.930 . S
H1270 C1280 0.930 . S
H1271 C1281 0.930 . S
C1272 H1266 0.930 . S
C1272 C1273 1.355 . S
C1272 C1274 1.415 . S
C1273 C1272 1.355 . S
C1273 C1275 1.419 . S
C1274 C1272 1.415 . S
C1274 C1279 1.425 . S
C1274 C1281 1.409 . S
C1275 H1267 0.930 . S
C1275 C1273 1.419 . S
C1275 C1276 1.362 . S
C1276 H1268 0.930 . S
C1276 C1275 1.362 . S
C1276 C1279 1.409 . S
C1277 H1269 0.930 . S
C1277 C1278 1.355 . S
C1277 C1279 1.415 . S
C1278 C1277 1.355 . S
C1278 C1280 1.419 . S
C1279 C1274 1.425 . S
C1279 C1276 1.409 . S
C1279 C1277 1.415 . S
C1280 H1270 0.930 . S
C1280 C1278 1.419 . S
C1280 C1281 1.362 . S
C1281 H1271 0.930 . S
C1281 C1274 1.409 . S
C1281 C1280 1.362 . S
H1282 C1288 0.930 . S
H1283 C1291 0.930 . S
H1284 C1292 0.930 . S
H1285 C1293 0.930 . S
H1286 C1296 0.930 . S
H1287 C1297 0.930 . S
C1288 H1282 0.930 . S
C1288 C1289 1.355 . S
C1288 C1290 1.415 . S
C1289 C1288 1.355 . S
C1289 C1291 1.419 . S
C1290 C1288 1.415 . S
C1290 C1295 1.425 . S
C1290 C1297 1.409 . S
C1291 H1283 0.930 . S
C1291 C1289 1.419 . S
C1291 C1292 1.362 . S
C1292 H1284 0.930 . S
C1292 C1291 1.362 . S
C1292 C1295 1.409 . S
C1293 H1285 0.930 . S
C1293 C1294 1.355 . S
C1293 C1295 1.415 . S
C1294 C1293 1.355 . S
C1294 C1296 1.419 . S
C1295 C1290 1.425 . S
C1295 C1292 1.409 . S
C1295 C1293 1.415 . S
C1296 H1286 0.930 . S
C1296 C1294 1.419 . S
C1296 C1297 1.362 . S
C1297 H1287 0.930 . S
C1297 C1290 1.409 . S
C1297 C1296 1.362 . S
H1298 C1304 0.930 . S
H1299 C1307 0.930 . S
H1300 C1308 0.930 . S
H1301 C1309 0.930 . S
H1302 C1312 0.930 . S
H1303 C1313 0.930 . S
C1304 H1298 0.930 . S
C1304 C1305 1.355 . S
C1304 C1306 1.415 . S
C1305 C1304 1.355 . S
C1305 C1307 1.419 . S
C1306 C1304 1.415 . S
C1306 C1311 1.425 . S
C1306 C1313 1.409 . S
C1307 H1299 0.930 . S
C1307 C1305 1.419 . S
C1307 C1308 1.362 . S
C1308 H1300 0.930 . S
C1308 C1307 1.362 . S
C1308 C1311 1.409 . S
C1309 H1301 0.930 . S
C1309 C1310 1.355 . S
C1309 C1311 1.415 . S
C1310 C1309 1.355 . S
C1310 C1312 1.419 . S
C1311 C1306 1.425 . S
C1311 C1308 1.409 . S
C1311 C1309 1.415 . S
C1312 H1302 0.930 . S
C1312 C1310 1.419 . S
C1312 C1313 1.362 . S
C1313 H1303 0.930 . S
C1313 C1306 1.409 . S
C1313 C1312 1.362 . S
C601 C21 1.118 . S
C606 N35 1.110 . S
C617 N68 1.170 . S
C622 C54 1.156 . S
C633 C87 1.161 . S
C638 N2 1.062 . S
C649 N167 1.063 . S
C654 C120 1.166 . S
C665 N101 1.096 . S
C670 C153 1.183 . S
C681 C186 1.179 . S
C686 N134 1.152 . S
C697 N233 1.169 . S
C702 C219 1.161 . S
C713 C252 1.183 . S
C718 N266 1.098 . S
C729 C285 1.135 . S
C734 N200 1.065 . S
C745 N365 1.112 . S
C750 C318 1.185 . S
C761 N299 1.132 . S
C766 C351 1.184 . S
C777 C384 1.183 . S
C782 N332 1.141 . S
C793 N431 1.095 . S
C798 C417 1.182 . S
C809 C450 1.178 . S
C814 N464 1.153 . S
C825 C483 1.174 . S
C830 N398 1.076 . S
C841 N563 1.096 . S
C846 C516 1.182 . S
C857 N497 1.069 . S
C862 C549 1.169 . S
C873 C582 1.141 . S
C878 N530 1.061 . S
C889 N343 1.401 . S
C894 N13 1.389 . S
C905 N376 1.392 . S
C910 N46 1.371 . S
C921 N310 1.385 . S
C926 N79 1.401 . S
C937 N112 1.383 . S
C942 N475 1.376 . S
C953 N409 1.389 . S
C958 N145 1.374 . S
C969 N442 1.401 . S
C974 N178 1.386 . S
C985 N211 1.398 . S
C990 N541 1.379 . S
C1001 N574 1.378 . S
C1006 N244 1.397 . S
C1017 N508 1.393 . S
C1022 N277 1.400 . S
C1033 C7 1.323 1_565 S
C1038 C172 1.304 . S
C1049 C106 1.288 . S
C1054 C40 1.330 . S
C1065 C139 1.322 . S
C1070 C73 1.309 . S
C1081 C370 1.329 . S
C1086 C205 1.295 . S
C1097 C304 1.280 . S
C1102 C238 1.227 . S
C1113 C271 1.229 . S
C1118 C337 1.270 . S
C1129 C568 1.329 . S
C1134 C403 1.293 . S
C1145 C436 1.227 . S
C1150 C502 1.278 . S
C1161 C535 1.328 . S
C1166 C469 1.259 . S
C1177 C18 1.367 . S
C1182 C183 1.382 . S
C1193 C51 1.294 . S
C1198 C117 1.342 . S
C1209 C150 1.382 . S
C1214 C84 1.361 . S
C1225 C381 1.344 . S
C1230 C216 1.381 . S
C1241 C315 1.377 . S
C1246 C249 1.333 . S
C1257 C348 1.366 . S
C1262 C282 1.381 . S
C1273 C414 1.361 . S
C1278 C579 1.382 . S
C1289 C447 1.289 . S
C1294 C513 1.330 . S
C1305 C546 1.347 . S
C1310 C480 1.382 . S
