# Generated by pormake.
# Topology umm, (4)-cn, num edge types: 1
# Building blocks:
#     Node 0, Type 0, BuildingBlock: NAWXER_clean_sbu_0, # of connection points: 4
#     Node 1, Type 0, BuildingBlock: NAWXER_clean_sbu_0, # of connection points: 4
#     Node 2, Type 0, BuildingBlock: NAWXER_clean_sbu_0, # of connection points: 4
#     Node 3, Type 0, BuildingBlock: NAWXER_clean_sbu_0, # of connection points: 4
#     Node 4, Type 0, BuildingBlock: NAWXER_clean_sbu_0, # of connection points: 4
#     Node 5, Type 0, BuildingBlock: NAWXER_clean_sbu_0, # of connection points: 4
#     Node 6, Type 0, BuildingBlock: NAWXER_clean_sbu_0, # of connection points: 4
#     Node 7, Type 0, BuildingBlock: NAWXER_clean_sbu_0, # of connection points: 4
#     Node 8, Type 0, BuildingBlock: NAWXER_clean_sbu_0, # of connection points: 4
#     Node 9, Type 0, BuildingBlock: NAWXER_clean_sbu_0, # of connection points: 4
#     Node 10, Type 0, BuildingBlock: NAWXER_clean_sbu_0, # of connection points: 4
#     Node 11, Type 0, BuildingBlock: NAWXER_clean_sbu_0, # of connection points: 4
#     Edge 12, Type (0, 0), BuildingBlock: TEMPAE_clean_linker_10, # of connection points: 2
#     Edge 13, Type (0, 0), BuildingBlock: TEMPAE_clean_linker_10, # of connection points: 2
#     Edge 14, Type (0, 0), BuildingBlock: TEMPAE_clean_linker_10, # of connection points: 2
#     Edge 15, Type (0, 0), BuildingBlock: TEMPAE_clean_linker_10, # of connection points: 2
#     Edge 16, Type (0, 0), BuildingBlock: TEMPAE_clean_linker_10, # of connection points: 2
#     Edge 17, Type (0, 0), BuildingBlock: TEMPAE_clean_linker_10, # of connection points: 2
#     Edge 18, Type (0, 0), BuildingBlock: TEMPAE_clean_linker_10, # of connection points: 2
#     Edge 19, Type (0, 0), BuildingBlock: TEMPAE_clean_linker_10, # of connection points: 2
#     Edge 20, Type (0, 0), BuildingBlock: TEMPAE_clean_linker_10, # of connection points: 2
#     Edge 21, Type (0, 0), BuildingBlock: TEMPAE_clean_linker_10, # of connection points: 2
#     Edge 22, Type (0, 0), BuildingBlock: TEMPAE_clean_linker_10, # of connection points: 2
#     Edge 23, Type (0, 0), BuildingBlock: TEMPAE_clean_linker_10, # of connection points: 2
#     Edge 24, Type (0, 0), BuildingBlock: TEMPAE_clean_linker_10, # of connection points: 2
#     Edge 25, Type (0, 0), BuildingBlock: TEMPAE_clean_linker_10, # of connection points: 2
#     Edge 26, Type (0, 0), BuildingBlock: TEMPAE_clean_linker_10, # of connection points: 2
#     Edge 27, Type (0, 0), BuildingBlock: TEMPAE_clean_linker_10, # of connection points: 2
#     Edge 28, Type (0, 0), BuildingBlock: TEMPAE_clean_linker_10, # of connection points: 2
#     Edge 29, Type (0, 0), BuildingBlock: TEMPAE_clean_linker_10, # of connection points: 2
#     Edge 30, Type (0, 0), BuildingBlock: TEMPAE_clean_linker_10, # of connection points: 2
#     Edge 31, Type (0, 0), BuildingBlock: TEMPAE_clean_linker_10, # of connection points: 2
#     Edge 32, Type (0, 0), BuildingBlock: TEMPAE_clean_linker_10, # of connection points: 2
#     Edge 33, Type (0, 0), BuildingBlock: TEMPAE_clean_linker_10, # of connection points: 2
#     Edge 34, Type (0, 0), BuildingBlock: TEMPAE_clean_linker_10, # of connection points: 2
#     Edge 35, Type (0, 0), BuildingBlock: TEMPAE_clean_linker_10, # of connection points: 2
# Relax obj value: 0.044
# Max RMSD: 0.161
# Mean RMSD: 0.161
data_MOF--net-umm--node1-NAWXER_clean_sbu_0--edge1-TEMPAE_clean_linker_10
_symmetry_space_group_name_H-M    P1
_symmetry_Int_Tables_number       1
_symmetry_cell_setting            triclinic
loop_
_symmetry_equiv_pos_as_xyz
'x, y, z'
_cell_length_a     57.377801
_cell_length_b     57.394171
_cell_length_c     29.56706
_cell_angle_alpha  90.012411
_cell_angle_beta   89.988806
_cell_angle_gamma 120.0053
loop_
_atom_site_label
_atom_site_type_symbol
_atom_site_fract_x
_atom_site_fract_y
_atom_site_fract_z
_atom_type_partial_charge
C0 C 0.34139 0.52205 0.07022 0.0
C1 C 0.42359 0.51923 0.09615 0.0
O2 O 0.36175 0.54578 0.07448 0.0
Zn3 Zn 0.40425 0.56312 0.08711 0.0
O4 O 0.34434 0.50174 0.07557 0.0
Zn5 Zn 0.38258 0.52091 0.08634 0.0
O6 O 0.38841 0.53888 0.15297 0.0
O7 O 0.41008 0.58278 0.14229 0.0
O8 O 0.39974 0.49976 0.09127 0.0
O9 O 0.4281 0.54353 0.09591 0.0
O10 O 0.41928 0.58376 0.03256 0.0
O11 O 0.39779 0.53985 0.0218 0.0
C12 C 0.39937 0.56287 0.1691 0.0
C13 C 0.41129 0.5638 0.00598 0.0
C14 C 0.85172 0.41796 0.33632 0.0
C15 C 0.83779 0.40659 0.49919 0.0
O16 O 0.85987 0.40264 0.35302 0.0
Zn17 Zn 0.86115 0.38657 0.4187 0.0
O18 O 0.84124 0.42797 0.3621 0.0
Zn19 Zn 0.84387 0.41143 0.41696 0.0
O20 O 0.88704 0.43202 0.42756 0.0
O21 O 0.89926 0.40108 0.42511 0.0
O22 O 0.82998 0.41822 0.47167 0.0
O23 O 0.84965 0.39426 0.48397 0.0
O24 O 0.83879 0.34807 0.40986 0.0
O25 O 0.81663 0.36995 0.40105 0.0
C26 C 0.90546 0.42555 0.4293 0.0
C27 C 0.8173 0.34799 0.39938 0.0
C28 C 0.43575 0.8391 0.83651 0.0
C29 C 0.43863 0.85333 0.67373 0.0
O30 O 0.45995 0.85066 0.82137 0.0
Zn31 Zn 0.47926 0.86215 0.75616 0.0
O32 O 0.41637 0.83174 0.80895 0.0
Zn33 Zn 0.43717 0.84551 0.75439 0.0
O34 O 0.45078 0.8178 0.73833 0.0
O35 O 0.49484 0.8393 0.74714 0.0
O36 O 0.41816 0.84327 0.69955 0.0
O37 O 0.46204 0.86111 0.69044 0.0
O38 O 0.5033 0.90022 0.76278 0.0
O39 O 0.46029 0.88858 0.7652 0.0
C40 C 0.47322 0.81804 0.73658 0.0
C41 C 0.48527 0.90675 0.76704 0.0
C42 C 0.58596 0.43597 0.00677 0.0
C43 C 0.5953 0.43289 0.16994 0.0
O44 O 0.60112 0.45947 0.0236 0.0
Zn45 Zn 0.61634 0.47665 0.08993 0.0
O46 O 0.57553 0.41554 0.03263 0.0
Zn47 Zn 0.59153 0.43464 0.08762 0.0
O48 O 0.57083 0.45719 0.0974 0.0
O49 O 0.60186 0.50031 0.09561 0.0
O50 O 0.58403 0.41365 0.14194 0.0
O51 O 0.60788 0.45718 0.15519 0.0
O52 O 0.65494 0.49293 0.0824 0.0
O53 O 0.63322 0.44895 0.07279 0.0
C54 C 0.57733 0.48208 0.09919 0.0
C55 C 0.65518 0.47163 0.07177 0.0
C56 C 0.16495 0.5947 0.50062 0.0
C57 C 0.15263 0.58596 0.3374 0.0
O58 O 0.15313 0.6072 0.486 0.0
Zn59 Zn 0.14202 0.61576 0.42103 0.0
O60 O 0.17305 0.58358 0.47253 0.0
Zn61 Zn 0.15951 0.59116 0.41832 0.0
O62 O 0.18669 0.63295 0.40419 0.0
O63 O 0.16416 0.65441 0.41397 0.0
O64 O 0.16275 0.57551 0.36298 0.0
O65 O 0.14418 0.60093 0.35459 0.0
O66 O 0.10381 0.60091 0.42671 0.0
O67 O 0.11628 0.57016 0.42809 0.0
C68 C 0.18582 0.65483 0.40346 0.0
C69 C 0.09774 0.57644 0.43004 0.0
C70 C 0.56345 0.16507 0.8361 0.0
C71 C 0.56498 0.15408 0.67318 0.0
O72 O 0.53953 0.15177 0.81976 0.0
Zn73 Zn 0.52178 0.13932 0.75312 0.0
O74 O 0.58349 0.17443 0.80953 0.0
Zn75 Zn 0.56407 0.16039 0.75425 0.0
O76 O 0.54625 0.18505 0.74153 0.0
O77 O 0.50225 0.15801 0.74192 0.0
O78 O 0.58489 0.16633 0.69979 0.0
O79 O 0.54098 0.14331 0.6889 0.0
O80 O 0.50112 0.10096 0.75815 0.0
O81 O 0.54501 0.11703 0.76315 0.0
C82 C 0.52243 0.1814 0.73696 0.0
C83 C 0.52084 0.09699 0.76329 0.0
C84 C 0.43483 0.58588 0.66787 0.0
C85 C 0.43144 0.59492 0.50467 0.0
O86 O 0.45828 0.60112 0.65093 0.0
Zn87 Zn 0.47533 0.61629 0.5845 0.0
O88 O 0.41435 0.57532 0.64209 0.0
Zn89 Zn 0.43333 0.59131 0.587 0.0
O90 O 0.45608 0.57081 0.57724 0.0
O91 O 0.49916 0.60202 0.57878 0.0
O92 O 0.41223 0.58361 0.53273 0.0
O93 O 0.45575 0.60762 0.51933 0.0
O94 O 0.49144 0.65485 0.59182 0.0
O95 O 0.44745 0.63297 0.60162 0.0
C96 C 0.48102 0.57745 0.57535 0.0
C97 C 0.47008 0.65499 0.60248 0.0
C98 C 0.83829 0.43696 0.83523 0.0
C99 C 0.85258 0.43898 0.9979 0.0
O100 O 0.8501 0.46111 0.85064 0.0
Zn101 Zn 0.86172 0.48009 0.91609 0.0
O102 O 0.83068 0.41745 0.86258 0.0
Zn103 Zn 0.84465 0.43797 0.91736 0.0
O104 O 0.8173 0.45192 0.93407 0.0
O105 O 0.83917 0.49599 0.92567 0.0
O106 O 0.84219 0.41861 0.97188 0.0
O107 O 0.86062 0.46252 0.98152 0.0
O108 O 0.89984 0.50385 0.90954 0.0
O109 O 0.88778 0.46076 0.90659 0.0
C110 C 0.8178 0.47446 0.93619 0.0
C111 C 0.90613 0.48566 0.905 0.0
C112 C 0.42518 0.90584 0.24277 0.0
C113 C 0.34723 0.81801 0.27319 0.0
O114 O 0.43143 0.88727 0.24427 0.0
Zn115 Zn 0.41054 0.84409 0.25477 0.0
O116 O 0.40078 0.89985 0.2472 0.0
Zn117 Zn 0.38596 0.86171 0.25356 0.0
O118 O 0.4023 0.86035 0.31892 0.0
O119 O 0.42717 0.84122 0.30935 0.0
O120 O 0.34744 0.83959 0.26289 0.0
O121 O 0.36909 0.81715 0.27115 0.0
O122 O 0.41691 0.83007 0.19983 0.0
O123 O 0.39324 0.85011 0.18809 0.0
C124 C 0.41751 0.85197 0.33531 0.0
C125 C 0.40531 0.83807 0.17256 0.0
C126 C 0.5223 0.34242 0.6039 0.0
C127 C 0.51932 0.42453 0.5786 0.0
O128 O 0.54603 0.36281 0.59978 0.0
Zn129 Zn 0.56332 0.40532 0.58749 0.0
O130 O 0.50197 0.34535 0.59863 0.0
Zn131 Zn 0.5211 0.38359 0.58815 0.0
O132 O 0.53915 0.38963 0.52153 0.0
O133 O 0.58306 0.41133 0.53235 0.0
O134 O 0.49988 0.40067 0.58339 0.0
O135 O 0.54365 0.42911 0.57882 0.0
O136 O 0.5839 0.42026 0.64214 0.0
O137 O 0.53997 0.39867 0.65277 0.0
C138 C 0.56317 0.40066 0.50548 0.0
C139 C 0.56391 0.41217 0.66868 0.0
C140 C 0.16435 0.56313 0.83623 0.0
C141 C 0.15319 0.56441 0.99917 0.0
O142 O 0.15106 0.53918 0.85245 0.0
Zn143 Zn 0.13853 0.52133 0.91904 0.0
O144 O 0.17363 0.58311 0.86291 0.0
Zn145 Zn 0.15953 0.5636 0.91808 0.0
O146 O 0.18425 0.54583 0.93088 0.0
O147 O 0.15724 0.50183 0.93022 0.0
O148 O 0.16534 0.58433 0.97258 0.0
O149 O 0.14248 0.54044 0.98339 0.0
O150 O 0.10014 0.50064 0.91387 0.0
O151 O 0.11618 0.5445 0.90901 0.0
C152 C 0.18061 0.52201 0.93538 0.0
C153 C 0.09614 0.52033 0.90876 0.0
C154 C 0.58575 0.15264 0.33495 0.0
C155 C 0.59439 0.16509 0.17177 0.0
O156 O 0.60086 0.14437 0.31769 0.0
Zn157 Zn 0.61568 0.14229 0.25123 0.0
O158 O 0.57508 0.16254 0.30942 0.0
Zn159 Zn 0.59079 0.15949 0.254 0.0
O160 O 0.57007 0.11633 0.24407 0.0
O161 O 0.60101 0.1041 0.24544 0.0
O162 O 0.58309 0.17298 0.19987 0.0
O163 O 0.60704 0.15342 0.18634 0.0
O164 O 0.65431 0.16466 0.25829 0.0
O165 O 0.63255 0.18689 0.2681 0.0
C166 C 0.5765 0.09789 0.24205 0.0
C167 C 0.65454 0.18622 0.26882 0.0
C168 C 0.4083 0.59286 0.23617 0.0
C169 C 0.40113 0.56742 0.21866 0.0
C170 C 0.41204 0.59803 0.28283 0.0
C171 C 0.40895 0.57738 0.31265 0.0
C172 C 0.40122 0.55151 0.29528 0.0
C173 C 0.3972 0.54678 0.24854 0.0
C174 C 0.41983 0.62576 0.3001 0.0
C175 C 0.39803 0.52904 0.3259 0.0
C176 C 0.44661 0.59738 0.42457 0.0
C177 C 0.42592 0.59203 0.45537 0.0
C178 C 0.44137 0.59285 0.37805 0.0
C179 C 0.41487 0.58311 0.36178 0.0
C180 C 0.39403 0.57834 0.39255 0.0
C181 C 0.39976 0.58265 0.43901 0.0
C182 C 0.4641 0.59789 0.34642 0.0
C183 C 0.36562 0.56838 0.37643 0.0
H184 H 0.41123 0.60888 0.21333 0.0
H185 H 0.39183 0.52711 0.23528 0.0
H186 H 0.40581 0.62432 0.32723 0.0
H187 H 0.44029 0.63529 0.31508 0.0
H188 H 0.41973 0.63906 0.27292 0.0
H189 H 0.39117 0.50988 0.30729 0.0
H190 H 0.41752 0.5348 0.34249 0.0
H191 H 0.38331 0.52555 0.35309 0.0
H192 H 0.46685 0.60445 0.43694 0.0
H193 H 0.38368 0.57857 0.46257 0.0
H194 H 0.46637 0.6126 0.32 0.0
H195 H 0.45942 0.57893 0.32892 0.0
H196 H 0.48361 0.60568 0.36439 0.0
H197 H 0.36546 0.58211 0.35018 0.0
H198 H 0.35198 0.56686 0.40438 0.0
H199 H 0.35749 0.54826 0.36063 0.0
C200 C 0.85077 0.4038 0.57888 0.0
C201 C 0.83488 0.40869 0.54862 0.0
C202 C 0.8499 0.40775 0.62557 0.0
C203 C 0.83234 0.41633 0.64257 0.0
C204 C 0.8156 0.42047 0.61235 0.0
C205 C 0.81726 0.41685 0.56568 0.0
C206 C 0.86836 0.4035 0.65657 0.0
C207 C 0.79628 0.42914 0.62925 0.0
C208 C 0.81755 0.40626 0.76874 0.0
C209 C 0.83517 0.43204 0.7858 0.0
C210 C 0.81576 0.40104 0.72204 0.0
C211 C 0.83235 0.42196 0.69178 0.0
C212 C 0.84986 0.44811 0.70877 0.0
C213 C 0.85088 0.45288 0.7555 0.0
C214 C 0.79648 0.37302 0.70517 0.0
C215 C 0.86818 0.47088 0.67772 0.0
H216 H 0.86457 0.39767 0.56596 0.0
H217 H 0.80482 0.42054 0.5425 0.0
H218 H 0.88232 0.42265 0.67392 0.0
H219 H 0.85649 0.3886 0.68314 0.0
H220 H 0.88047 0.39634 0.63811 0.0
H221 H 0.78344 0.42983 0.60176 0.0
H222 H 0.78309 0.41515 0.65591 0.0
H223 H 0.80766 0.44942 0.64476 0.0
H224 H 0.80525 0.39009 0.79193 0.0
H225 H 0.86467 0.47281 0.76842 0.0
H226 H 0.8079 0.36417 0.68967 0.0
H227 H 0.78326 0.37378 0.67852 0.0
H228 H 0.78367 0.35949 0.73268 0.0
H229 H 0.88224 0.46583 0.66036 0.0
H230 H 0.88016 0.49017 0.69615 0.0
H231 H 0.85621 0.47376 0.65116 0.0
C232 C 0.45148 0.85134 0.91639 0.0
C233 C 0.43063 0.83594 0.88589 0.0
C234 C 0.4466 0.85023 0.96309 0.0
C235 C 0.42032 0.83294 0.97983 0.0
C236 C 0.39937 0.81669 0.94935 0.0
C237 C 0.40472 0.81858 0.9027 0.0
C238 C 0.4694 0.86819 0.99437 0.0
C239 C 0.37122 0.79767 0.96597 0.0
C240 C 0.41497 0.81732 0.10572 0.0
C241 C 0.40721 0.83518 0.12309 0.0
C242 C 0.41848 0.81573 0.059 0.0
C243 C 0.41465 0.83278 0.02904 0.0
C244 C 0.40643 0.85055 0.04635 0.0
C245 C 0.40257 0.85136 0.09308 0.0
C246 C 0.42675 0.79616 0.04176 0.0
C247 C 0.40252 0.86935 0.01564 0.0
H248 H 0.47151 0.86494 0.90366 0.0
H249 H 0.38854 0.80652 0.87934 0.0
H250 H 0.46454 0.8823 0.012 0.0
H251 H 0.47206 0.85595 0.02071 0.0
H252 H 0.48877 0.88009 0.97609 0.0
H253 H 0.35763 0.78515 0.93828 0.0
H254 H 0.37167 0.78417 0.99239 0.0
H255 H 0.36262 0.80926 0.9817 0.0
H256 H 0.41845 0.80466 0.1287 0.0
H257 H 0.39675 0.86534 0.10625 0.0
H258 H 0.44709 0.80735 0.02642 0.0
H259 H 0.4127 0.78326 0.0149 0.0
H260 H 0.42712 0.78304 0.06904 0.0
H261 H 0.42177 0.88323 0.99849 0.0
H262 H 0.39552 0.88153 0.0343 0.0
H263 H 0.38762 0.85775 0.9889 0.0
C264 C 0.58296 0.40124 0.23564 0.0
C265 C 0.59248 0.42742 0.21925 0.0
C266 C 0.57866 0.39554 0.2821 0.0
C267 C 0.5836 0.41643 0.31287 0.0
C268 C 0.59352 0.44295 0.29659 0.0
C269 C 0.59803 0.44816 0.25005 0.0
C270 C 0.56848 0.3671 0.29822 0.0
C271 C 0.59878 0.46573 0.32822 0.0
C272 C 0.54722 0.39886 0.42605 0.0
C273 C 0.56777 0.40255 0.45594 0.0
C274 C 0.552 0.40297 0.37934 0.0
C275 C 0.57785 0.41053 0.36199 0.0
C276 C 0.59842 0.41339 0.39181 0.0
C277 C 0.5932 0.40958 0.43845 0.0
C278 C 0.52962 0.40002 0.34872 0.0
C279 C 0.6261 0.421 0.37456 0.0
H280 H 0.57872 0.38512 0.21208 0.0
H281 H 0.60523 0.4684 0.23768 0.0
H282 H 0.58214 0.36681 0.3245 0.0
H283 H 0.54837 0.35912 0.314 0.0
H284 H 0.56686 0.35342 0.27028 0.0
H285 H 0.60675 0.48526 0.31026 0.0
H286 H 0.57986 0.46124 0.3457 0.0
H287 H 0.61343 0.46785 0.35466 0.0
H288 H 0.52757 0.3936 0.43931 0.0
H289 H 0.60915 0.41234 0.4613 0.0
H290 H 0.52598 0.38526 0.32153 0.0
H291 H 0.53557 0.41956 0.33214 0.0
H292 H 0.51048 0.39335 0.36733 0.0
H293 H 0.62456 0.40693 0.34745 0.0
H294 H 0.63936 0.42079 0.40175 0.0
H295 H 0.63577 0.44144 0.35956 0.0
C296 C 0.15223 0.59722 0.58063 0.0
C297 C 0.16756 0.59182 0.5499 0.0
C298 C 0.15291 0.59273 0.62716 0.0
C299 C 0.16965 0.58299 0.6435 0.0
C300 C 0.18572 0.57816 0.61281 0.0
C301 C 0.18433 0.58244 0.56633 0.0
C302 C 0.13524 0.59784 0.65872 0.0
C303 C 0.20412 0.56817 0.62902 0.0
C304 C 0.18577 0.59293 0.76911 0.0
C305 C 0.16734 0.56755 0.78668 0.0
C306 C 0.18735 0.598 0.72242 0.0
C307 C 0.1698 0.57732 0.69262 0.0
C308 C 0.15155 0.55149 0.71004 0.0
C309 C 0.15068 0.54686 0.75682 0.0
C310 C 0.20737 0.62567 0.70509 0.0
C311 C 0.1323 0.52899 0.67943 0.0
H312 H 0.13909 0.6043 0.56822 0.0
H313 H 0.19631 0.57832 0.54281 0.0
H314 H 0.12093 0.57891 0.67626 0.0
H315 H 0.1477 0.61258 0.68511 0.0
H316 H 0.12356 0.60564 0.64069 0.0
H317 H 0.21622 0.56659 0.60111 0.0
H318 H 0.21802 0.58192 0.65526 0.0
H319 H 0.19208 0.54807 0.64487 0.0
H320 H 0.19882 0.60898 0.79194 0.0
H321 H 0.13629 0.52724 0.77013 0.0
H322 H 0.19653 0.63527 0.69006 0.0
H323 H 0.21993 0.62415 0.67799 0.0
H324 H 0.22082 0.63898 0.73226 0.0
H325 H 0.11855 0.53471 0.66279 0.0
H326 H 0.11999 0.50984 0.69807 0.0
H327 H 0.14355 0.52549 0.65229 0.0
C328 C 0.58198 0.18439 0.10616 0.0
C329 C 0.59159 0.1678 0.1225 0.0
C330 C 0.57779 0.18587 0.05967 0.0
C331 C 0.58294 0.17008 0.02889 0.0
C332 C 0.59292 0.15353 0.04515 0.0
C333 C 0.59731 0.15275 0.09168 0.0
C334 C 0.56753 0.20407 0.04355 0.0
C335 C 0.59839 0.13616 0.01348 0.0
C336 C 0.54708 0.15109 0.91535 0.0
C337 C 0.56776 0.16797 0.88567 0.0
C338 C 0.55162 0.15189 0.96215 0.0
C339 C 0.57735 0.17031 0.97976 0.0
C340 C 0.59801 0.18808 0.95013 0.0
C341 C 0.59304 0.18655 0.90342 0.0
C342 C 0.52915 0.13239 0.99256 0.0
C343 C 0.62557 0.20828 0.96768 0.0
H344 H 0.5776 0.19616 0.12974 0.0
H345 H 0.60458 0.13975 0.10403 0.0
H346 H 0.58125 0.21813 0.01744 0.0
H347 H 0.54749 0.1919 0.02755 0.0
H348 H 0.56572 0.21599 0.07153 0.0
H349 H 0.60635 0.1246 0.03146 0.0
H350 H 0.57957 0.12175 0.99576 0.0
H351 H 0.61313 0.14881 0.98724 0.0
H352 H 0.52755 0.13658 0.90189 0.0
H353 H 0.60908 0.19977 0.88071 0.0
H354 H 0.52543 0.14344 0.01977 0.0
H355 H 0.53506 0.11877 0.00913 0.0
H356 H 0.51008 0.11996 0.97378 0.0
H357 H 0.62381 0.22065 0.99486 0.0
H358 H 0.63884 0.22189 0.94065 0.0
H359 H 0.63535 0.19761 0.98267 0.0
C360 C 0.30081 0.49921 0.02105 0.0
C361 C 0.31556 0.51867 0.05395 0.0
C362 C 0.27818 0.49804 1.0005 0.0
C363 C 0.26957 0.51615 0.01442 0.0
C364 C 0.28373 0.53502 0.04919 0.0
C365 C 0.30691 0.53643 0.06787 0.0
C366 C 0.26424 0.47828 0.96252 0.0
C367 C 0.27468 0.55405 0.06612 0.0
C368 C 0.22923 0.53549 0.9366 0.0
C369 C 0.20292 0.51847 0.95179 0.0
C370 C 0.25099 0.5341 0.95538 0.0
C371 C 0.2464 0.51609 0.99155 0.0
C372 C 0.21978 0.49874 0.00678 0.0
C373 C 0.19829 0.49981 0.9861 0.0
C374 C 0.27895 0.55226 0.93706 0.0
C375 C 0.21411 0.47995 0.04624 0.0
H376 H 0.30778 0.48576 0.00973 0.0
H377 H 0.31836 0.55148 0.09331 0.0
H378 H 0.24252 0.46534 0.97014 0.0
H379 H 0.26577 0.48939 0.93091 0.0
H380 H 0.27307 0.46519 0.95638 0.0
H381 H 0.28632 0.56567 0.09615 0.0
H382 H 0.27711 0.56844 0.03901 0.0
H383 H 0.253 0.54269 0.07516 0.0
H384 H 0.23277 0.54994 0.91008 0.0
H385 H 0.17796 0.48698 0.99839 0.0
H386 H 0.2888 0.54034 0.92893 0.0
H387 H 0.29144 0.56728 0.96306 0.0
H388 H 0.27876 0.56318 0.90616 0.0
H389 H 0.22243 0.46651 0.03967 0.0
H390 H 0.19224 0.46736 0.05331 0.0
H391 H 0.22423 0.49183 0.07699 0.0
C392 C 0.77889 0.32611 0.34588 0.0
C393 C 0.79401 0.32357 0.38076 0.0
C394 C 0.75722 0.30338 0.32617 0.0
C395 C 0.74988 0.27748 0.34281 0.0
C396 C 0.76499 0.27479 0.3783 0.0
C397 C 0.78725 0.2979 0.39633 0.0
C398 C 0.74217 0.30713 0.28755 0.0
C399 C 0.75726 0.24758 0.3979 0.0
C400 C 0.67697 0.22449 0.3224 0.0
C401 C 0.67915 0.20952 0.28688 0.0
C402 C 0.6999 0.24605 0.34185 0.0
C403 C 0.72563 0.25344 0.3243 0.0
C404 C 0.72797 0.23853 0.28808 0.0
C405 C 0.70466 0.21636 0.27033 0.0
C406 C 0.69654 0.26088 0.38126 0.0
C407 C 0.75498 0.24633 0.26753 0.0
H408 H 0.7844 0.34596 0.33327 0.0
H409 H 0.79896 0.29596 0.4233 0.0
H410 H 0.7412 0.29456 0.25828 0.0
H411 H 0.72117 0.30041 0.29795 0.0
H412 H 0.75171 0.32843 0.27636 0.0
H413 H 0.7711 0.24891 0.42534 0.0
H414 H 0.73651 0.23808 0.41168 0.0
H415 H 0.7573 0.23411 0.37105 0.0
H416 H 0.65725 0.21891 0.33577 0.0
H417 H 0.70632 0.20474 0.24288 0.0
H418 H 0.70329 0.28197 0.37146 0.0
H419 H 0.7093 0.26156 0.41001 0.0
H420 H 0.67533 0.25136 0.39296 0.0
H421 H 0.76445 0.26721 0.25434 0.0
H422 H 0.75335 0.23272 0.23946 0.0
H423 H 0.76864 0.24598 0.29369 0.0
C424 C 0.49239 0.78725 0.7329 0.0
C425 C 0.47386 0.79458 0.71757 0.0
C426 C 0.49279 0.76486 0.71441 0.0
C427 C 0.47493 0.75021 0.67868 0.0
C428 C 0.45672 0.7581 0.66234 0.0
C429 C 0.45611 0.77989 0.6825 0.0
C430 C 0.51189 0.75653 0.73369 0.0
C431 C 0.43789 0.74355 0.62347 0.0
C432 C 0.4903 0.7051 0.60489 0.0
C433 C 0.4714 0.67953 0.62088 0.0
C434 C 0.49165 0.72837 0.62322 0.0
C435 C 0.47438 0.72594 0.65945 0.0
C436 C 0.45573 0.70014 0.67636 0.0
C437 C 0.45416 0.67725 0.65634 0.0
C438 C 0.51117 0.75547 0.60331 0.0
C439 C 0.4375 0.69667 0.71576 0.0
H440 H 0.50611 0.79864 0.76001 0.0
H441 H 0.44206 0.78584 0.67007 0.0
H442 H 0.50032 0.73566 0.74683 0.0
H443 H 0.52542 0.75664 0.7068 0.0
H444 H 0.5244 0.76998 0.76154 0.0
H445 H 0.42638 0.75344 0.61269 0.0
H446 H 0.44944 0.74266 0.59406 0.0
H447 H 0.42339 0.72254 0.63339 0.0
H448 H 0.50364 0.70684 0.5775 0.0
H449 H 0.43984 0.65748 0.66929 0.0
H450 H 0.52528 0.76875 0.62973 0.0
H451 H 0.50003 0.76535 0.59067 0.0
H452 H 0.52303 0.7539 0.57499 0.0
H453 H 0.4496 0.70901 0.74486 0.0
H454 H 0.42548 0.67537 0.72682 0.0
H455 H 0.42346 0.70385 0.70629 0.0
C456 C 0.67742 0.45582 0.01768 0.0
C457 C 0.67974 0.47304 0.05318 0.0
C458 C 0.7003 0.45743 0.99752 0.0
C459 C 0.72614 0.47611 0.01431 0.0
C460 C 0.7286 0.49338 0.05055 0.0
C461 C 0.70533 0.49199 0.06903 0.0
C462 C 0.69679 0.4392 0.95811 0.0
C463 C 0.75573 0.51293 0.07034 0.0
C464 C 0.77993 0.45767 0.99082 0.0
C465 C 0.79453 0.47532 0.95558 0.0
C466 C 0.75827 0.45842 0.01124 0.0
C467 C 0.75038 0.47664 0.99498 0.0
C468 C 0.76496 0.49444 0.95913 0.0
C469 C 0.78725 0.49391 0.94038 0.0
C470 C 0.74381 0.43967 0.05023 0.0
C471 C 0.75665 0.51355 0.93993 0.0
H472 H 0.65764 0.44147 0.00483 0.0
H473 H 0.7071 0.50532 0.09645 0.0
H474 H 0.70912 0.45128 0.92899 0.0
H475 H 0.70397 0.42514 0.96756 0.0
H476 H 0.67547 0.42719 0.94709 0.0
H477 H 0.7542 0.52484 0.09862 0.0
H478 H 0.76563 0.50182 0.08301 0.0
H479 H 0.76898 0.527 0.04384 0.0
H480 H 0.78585 0.44359 0.00314 0.0
H481 H 0.79857 0.50756 0.91314 0.0
H482 H 0.72278 0.42511 0.04042 0.0
H483 H 0.74294 0.45125 0.0796 0.0
H484 H 0.75375 0.42821 0.06102 0.0
H485 H 0.73577 0.502 0.92677 0.0
H486 H 0.7701 0.52608 0.91211 0.0
H487 H 0.75675 0.52705 0.96687 0.0
C488 C 0.22418 0.67756 0.35008 0.0
C489 C 0.20902 0.67956 0.38548 0.0
C490 C 0.24564 0.7006 0.33071 0.0
C491 C 0.25275 0.72627 0.34822 0.0
C492 C 0.23765 0.72841 0.3843 0.0
C493 C 0.21558 0.705 0.40198 0.0
C494 C 0.26069 0.69743 0.29144 0.0
C495 C 0.24515 0.75535 0.40483 0.0
C496 C 0.32537 0.77982 0.32705 0.0
C497 C 0.3228 0.79482 0.29199 0.0
C498 C 0.30265 0.75813 0.34673 0.0
C499 C 0.27675 0.75063 0.32989 0.0
C500 C 0.27403 0.76565 0.29427 0.0
C501 C 0.29712 0.78794 0.27627 0.0
C502 C 0.30642 0.74319 0.38551 0.0
C503 C 0.24682 0.75776 0.27445 0.0
H504 H 0.21881 0.65789 0.33674 0.0
H505 H 0.20382 0.70651 0.42933 0.0
H506 H 0.26134 0.71016 0.26267 0.0
H507 H 0.28179 0.70432 0.30143 0.0
H508 H 0.25135 0.67625 0.2797 0.0
H509 H 0.23137 0.75358 0.43271 0.0
H510 H 0.26598 0.76495 0.41826 0.0
H511 H 0.24479 0.76897 0.37859 0.0
H512 H 0.34522 0.78543 0.33977 0.0
H513 H 0.29517 0.79957 0.24916 0.0
H514 H 0.29996 0.72225 0.37511 0.0
H515 H 0.29367 0.74206 0.41459 0.0
H516 H 0.32769 0.7529 0.39695 0.0
H517 H 0.23753 0.73706 0.26049 0.0
H518 H 0.24811 0.77162 0.24709 0.0
H519 H 0.23318 0.75757 0.3012 0.0
C520 C 0.50002 0.19917 0.68687 0.0
C521 C 0.51889 0.20375 0.72081 0.0
C522 C 0.49892 0.2207 0.66645 0.0
C523 C 0.51644 0.2473 0.68156 0.0
C524 C 0.53466 0.25184 0.71737 0.0
C525 C 0.53606 0.23004 0.7359 0.0
C526 C 0.47988 0.21508 0.62738 0.0
C527 C 0.55302 0.27978 0.73555 0.0
C528 C 0.53654 0.30784 0.6055 0.0
C529 C 0.51893 0.31658 0.61995 0.0
C530 C 0.53513 0.28461 0.62391 0.0
C531 C 0.51645 0.2705 0.65895 0.0
C532 C 0.49851 0.2792 0.67341 0.0
C533 C 0.49965 0.30187 0.65311 0.0
C534 C 0.55397 0.27545 0.60642 0.0
C535 C 0.47897 0.26533 0.7117 0.0
H536 H 0.48706 0.17885 0.67467 0.0
H537 H 0.55067 0.23355 0.76214 0.0
H538 H 0.46654 0.22348 0.63435 0.0
H539 H 0.49158 0.22515 0.59646 0.0
H540 H 0.46717 0.19322 0.62038 0.0
H541 H 0.56413 0.27956 0.76618 0.0
H542 H 0.56789 0.29223 0.70933 0.0
H543 H 0.54122 0.2897 0.74408 0.0
H544 H 0.55146 0.31925 0.57986 0.0
H545 H 0.48633 0.30892 0.66482 0.0
H546 H 0.54249 0.25379 0.59741 0.0
H547 H 0.56853 0.27784 0.63321 0.0
H548 H 0.56543 0.28706 0.57624 0.0
H549 H 0.46591 0.24362 0.70414 0.0
H550 H 0.46598 0.27423 0.71824 0.0
H551 H 0.49026 0.26682 0.74306 0.0
C552 C 0.46796 0.52966 0.12858 0.0
C553 C 0.4462 0.51402 0.09992 0.0
C554 C 0.48973 0.525 0.13182 0.0
C555 C 0.49015 0.50498 0.10436 0.0
C556 C 0.4683 0.48938 0.07495 0.0
C557 C 0.44634 0.49376 0.07375 0.0
C558 C 0.51217 0.54137 0.16475 0.0
C559 C 0.46836 0.46846 0.04402 0.0
C560 C 0.55747 0.51038 0.07745 0.0
C561 C 0.55611 0.48928 0.10325 0.0
C562 C 0.5362 0.51586 0.0777 0.0
C563 C 0.51355 0.50048 0.10574 0.0
C564 C 0.5127 0.47992 0.1334 0.0
C565 C 0.53377 0.47419 0.13109 0.0
C566 C 0.53747 0.53733 0.04659 0.0
C567 C 0.48937 0.46372 0.16491 0.0
H568 H 0.46771 0.54523 0.149 0.0
H569 H 0.42961 0.48188 0.05121 0.0
H570 H 0.51514 0.52779 0.18774 0.0
H571 H 0.53132 0.5536 0.14619 0.0
H572 H 0.50806 0.55507 0.18546 0.0
H573 H 0.45024 0.45872 0.02205 0.0
H574 H 0.48653 0.47789 0.02217 0.0
H575 H 0.46924 0.45265 0.06425 0.0
H576 H 0.57466 0.52185 0.05556 0.0
H577 H 0.53285 0.45797 0.15125 0.0
H578 H 0.53533 0.5526 0.06625 0.0
H579 H 0.52049 0.52817 0.02224 0.0
H580 H 0.55663 0.54765 0.02726 0.0
H581 H 0.48553 0.47735 0.18629 0.0
H582 H 0.49303 0.45032 0.18729 0.0
H583 H 0.47085 0.45114 0.145 0.0
C584 C 0.94095 0.46887 0.46224 0.0
C585 C 0.93385 0.4468 0.4338 0.0
C586 C 0.96774 0.48992 0.46511 0.0
C587 C 0.98759 0.48933 0.43744 0.0
C588 C 0.98043 0.46702 0.40862 0.0
C589 C 0.9537 0.44575 0.40781 0.0
C590 C 0.97475 0.51285 0.49747 0.0
C591 C 1.0008 0.46603 0.3775 0.0
C592 C 0.04953 0.55613 0.40826 0.0
C593 C 0.06939 0.55504 0.43414 0.0
C594 C 0.02281 0.53482 0.4089 0.0
C595 C 0.01568 0.51241 0.43747 0.0
C596 C 0.03555 0.51175 0.46499 0.0
C597 C 0.06232 0.53285 0.46227 0.0
C598 C 0.00244 0.53588 0.37794 0.0
C599 C 0.02856 0.48872 0.49709 0.0
H600 H 0.92554 0.46955 0.4825 0.0
H601 H 0.94807 0.42879 0.38543 0.0
H602 H 0.99177 0.51603 0.51945 0.0
H603 H 0.98133 0.53173 0.47829 0.0
H604 H 0.95745 0.50918 0.51924 0.0
H605 H 0.9919 0.44737 0.35683 0.0
H606 H 0.00931 0.48362 0.35439 0.0
H607 H 0.01775 0.46725 0.3974 0.0
H608 H 0.05513 0.5732 0.38613 0.0
H609 H 0.07773 0.53215 0.48246 0.0
H610 H 0.98552 0.53467 0.39797 0.0
H611 H 0.99387 0.51832 0.35475 0.0
H612 H 0.01134 0.55457 0.35736 0.0
H613 H 0.01158 0.48551 0.51924 0.0
H614 H 0.04588 0.4923 0.51869 0.0
H615 H 0.0219 0.46988 0.47772 0.0
C616 C 0.53195 0.06362 0.79609 0.0
C617 C 0.51609 0.06934 0.76724 0.0
C618 C 0.52773 0.03737 0.79955 0.0
C619 C 0.50795 0.01669 0.77211 0.0
C620 C 0.49216 0.02255 0.74246 0.0
C621 C 0.49609 0.04871 0.74105 0.0
C622 C 0.54429 0.03171 0.83271 0.0
C623 C 0.47146 0.00132 0.71158 0.0
C624 C 0.51388 0.95501 0.74593 0.0
C625 C 0.49273 0.93523 0.77161 0.0
C626 C 0.51929 0.98173 0.74612 0.0
C627 C 0.50377 0.98893 0.77396 0.0
C628 C 0.48323 0.9692 0.80164 0.0
C629 C 0.47759 0.94244 0.79942 0.0
C630 C 0.54076 0.00195 0.71501 0.0
C631 C 0.46686 0.97624 0.83293 0.0
H632 H 0.54733 0.07961 0.81653 0.0
H633 H 0.48404 0.05326 0.71835 0.0
H634 H 0.53082 0.01524 0.85595 0.0
H635 H 0.55664 0.02484 0.8144 0.0
H636 H 0.5579 0.04969 0.85315 0.0
H637 H 0.46163 0.00944 0.68925 0.0
H638 H 0.48111 0.99266 0.69009 0.0
H639 H 0.45569 0.98463 0.73187 0.0
H640 H 0.52537 0.94931 0.72404 0.0
H641 H 0.46132 0.9271 0.81947 0.0
H642 H 0.55577 0.0196 0.73455 0.0
H643 H 0.53149 0.00938 0.69016 0.0
H644 H 0.55141 0.99327 0.69625 0.0
H645 H 0.48036 0.99391 0.85401 0.0
H646 H 0.45365 0.95926 0.85558 0.0
H647 H 0.45406 0.9818 0.81281 0.0
C648 C 0.50993 0.55814 0.59642 0.0
C649 C 0.48839 0.55635 0.57133 0.0
C650 C 0.51562 0.53703 0.59622 0.0
C651 C 0.5 0.51407 0.56895 0.0
C652 C 0.47898 0.51277 0.54198 0.0
C653 C 0.47307 0.53371 0.54422 0.0
C654 C 0.53761 0.5388 0.6266 0.0
C655 C 0.46248 0.48909 0.51129 0.0
C656 C 0.52924 0.4686 0.54563 0.0
C657 C 0.51403 0.44708 0.57496 0.0
C658 C 0.52442 0.49026 0.54237 0.0
C659 C 0.50472 0.49083 0.5705 0.0
C660 C 0.4896 0.46925 0.60064 0.0
C661 C 0.49409 0.44737 0.60185 0.0
C662 C 0.54026 0.51241 0.50867 0.0
C663 C 0.46906 0.4695 0.63229 0.0
H664 H 0.52158 0.57557 0.61774 0.0
H665 H 0.45652 0.53246 0.52458 0.0
H666 H 0.52888 0.5221 0.65151 0.0
H667 H 0.55267 0.53654 0.60649 0.0
H668 H 0.54811 0.55817 0.64529 0.0
H669 H 0.44869 0.49239 0.4893 0.0
H670 H 0.4759 0.48515 0.48955 0.0
H671 H 0.45026 0.47076 0.53184 0.0
H672 H 0.54456 0.46822 0.52467 0.0
H673 H 0.48256 0.43082 0.6249 0.0
H674 H 0.55259 0.53176 0.5266 0.0
H675 H 0.52629 0.51499 0.48601 0.0
H676 H 0.55381 0.50823 0.48765 0.0
H677 H 0.47869 0.4879 0.65353 0.0
H678 H 0.45976 0.45163 0.65485 0.0
H679 H 0.45287 0.47 0.61259 0.0
C680 C 0.04773 0.49531 0.93033 0.0
C681 C 0.06848 0.51556 0.90465 0.0
C682 C 0.02157 0.4914 0.92888 0.0
C683 C 0.01584 0.50748 0.89972 0.0
C684 C 0.03661 0.52748 0.87273 0.0
C685 C 0.06286 0.53165 0.87622 0.0
C686 C 1.00022 0.47045 0.95928 0.0
C687 C 0.03109 0.54436 0.84008 0.0
C688 C 0.94165 0.47783 0.87221 0.0
C689 C 0.93455 0.49287 0.90048 0.0
C690 C 0.96835 0.48326 0.86995 0.0
C691 C 0.98812 0.50347 0.89807 0.0
C692 C 0.98103 0.51886 0.92642 0.0
C693 C 0.95437 0.51369 0.92664 0.0
C694 C 0.97529 0.46706 0.83811 0.0
C695 C 0.00127 0.53996 0.95799 0.0
H696 H 0.05219 0.48307 0.9527 0.0
H697 H 0.07893 0.54722 0.85617 0.0
H698 H 0.99162 0.47996 0.98124 0.0
H699 H 0.9835 0.45496 0.93865 0.0
H700 H 0.00821 0.4603 0.98112 0.0
H701 H 0.04911 0.55802 0.81975 0.0
H702 H 0.01457 0.53114 0.81672 0.0
H703 H 0.02436 0.55669 0.85881 0.0
H704 H 0.92628 0.46182 0.8518 0.0
H705 H 0.94876 0.5251 0.94888 0.0
H706 H 0.98074 0.45403 0.85779 0.0
H707 H 0.99303 0.48066 0.81722 0.0
H708 H 0.9583 0.45411 0.81527 0.0
H709 H 0.00865 0.53039 0.98236 0.0
H710 H 0.99264 0.55047 0.9773 0.0
H711 H 0.01897 0.55512 0.93872 0.0
C712 C 0.46873 0.94108 0.21004 0.0
C713 C 0.44661 0.93416 0.23828 0.0
C714 C 0.48992 0.9678 0.20716 0.0
C715 C 0.48942 0.98777 0.23462 0.0
C716 C 0.46707 0.98079 0.26328 0.0
C717 C 0.44567 0.95413 0.2641 0.0
C718 C 0.5129 0.97462 0.17499 0.0
C719 C 0.46616 0.00128 0.29416 0.0
C720 C 0.55624 0.0497 0.26386 0.0
C721 C 0.55519 0.06952 0.23781 0.0
C722 C 0.53493 0.02299 0.26319 0.0
C723 C 0.51257 0.01581 0.23445 0.0
C724 C 0.51199 0.03564 0.20671 0.0
C725 C 0.53308 0.06241 0.20945 0.0
C726 C 0.53591 0.00266 0.29439 0.0
C727 C 0.48903 0.02861 0.17442 0.0
H728 H 0.46934 0.92559 0.18991 0.0
H729 H 0.42868 0.94865 0.28634 0.0
H730 H 0.51616 0.99158 0.15277 0.0
H731 H 0.53175 0.98123 0.1943 0.0
H732 H 0.50921 0.95723 0.15347 0.0
H733 H 0.4475 0.9925 0.31484 0.0
H734 H 0.48376 0.00983 0.31726 0.0
H735 H 0.46742 0.01818 0.27406 0.0
H736 H 0.57324 0.05534 0.28616 0.0
H737 H 0.53241 0.07779 0.18912 0.0
H738 H 0.53458 0.98564 0.27456 0.0
H739 H 0.51836 0.99426 0.31761 0.0
H740 H 0.55462 0.01155 0.31494 0.0
H741 H 0.48577 0.01152 0.15253 0.0
H742 H 0.49272 0.04587 0.15255 0.0
H743 H 0.47017 0.02212 0.19366 0.0
C744 C 0.45432 0.58872 0.74461 0.0
C745 C 0.43175 0.58181 0.71739 0.0
C746 C 0.45198 0.58606 0.7918 0.0
C747 C 0.42653 0.57662 0.8123 0.0
C748 C 0.40365 0.56958 0.78503 0.0
C749 C 0.40651 0.57207 0.73785 0.0
C750 C 0.47674 0.59336 0.81973 0.0
C751 C 0.37622 0.55968 0.80574 0.0
C752 C 0.41356 0.54627 0.92989 0.0
C753 C 0.41663 0.56775 0.95683 0.0
C754 C 0.41722 0.54905 0.88292 0.0
C755 C 0.42373 0.57381 0.86228 0.0
C756 C 0.42714 0.59569 0.88929 0.0
C757 C 0.42375 0.59246 0.93636 0.0
C758 C 0.41385 0.5254 0.85534 0.0
C759 C 0.43381 0.62232 0.86835 0.0
H760 H 0.47388 0.59618 0.729 0.0
H761 H 0.38903 0.56689 0.71704 0.0
H762 H 0.48052 0.60978 0.84364 0.0
H763 H 0.47353 0.57581 0.84024 0.0
H764 H 0.49497 0.59998 0.79851 0.0
H765 H 0.36054 0.55539 0.77986 0.0
H766 H 0.37014 0.54107 0.82546 0.0
H767 H 0.37696 0.57496 0.82961 0.0
H768 H 0.40825 0.52716 0.94554 0.0
H769 H 0.426 0.60908 0.95699 0.0
H770 H 0.43224 0.53129 0.83505 0.0
H771 H 0.3969 0.51904 0.83127 0.0
H772 H 0.40984 0.50789 0.8768 0.0
H773 H 0.45276 0.63052 0.84866 0.0
H774 H 0.4361 0.63742 0.8941 0.0
H775 H 0.41767 0.61938 0.84441 0.0
C776 C 0.87074 0.41754 0.26062 0.0
C777 C 0.85354 0.42277 0.28699 0.0
C778 C 0.87173 0.42054 0.21348 0.0
C779 C 0.85479 0.42854 0.19213 0.0
C780 C 0.83752 0.43406 0.21856 0.0
C781 C 0.83727 0.43133 0.26578 0.0
C782 C 0.89075 0.41493 0.18649 0.0
C783 C 0.81894 0.44234 0.19689 0.0
C784 C 0.87143 0.45808 0.07385 0.0
C785 C 0.85425 0.43579 0.0472 0.0
C786 C 0.87215 0.45589 0.121 0.0
C787 C 0.85496 0.43091 0.14205 0.0
C788 C 0.83774 0.40826 0.11532 0.0
C789 C 0.83776 0.41091 0.06812 0.0
C790 C 0.89113 0.48036 0.14831 0.0
C791 C 0.81889 0.38136 0.13666 0.0
H792 H 0.88348 0.41105 0.27687 0.0
H793 H 0.8238 0.4352 0.28597 0.0
H794 H 0.87916 0.39794 0.16292 0.0
H795 H 0.90424 0.43273 0.16567 0.0
H796 H 0.90331 0.40986 0.2084 0.0
H797 H 0.80679 0.44596 0.22223 0.0
H798 H 0.83075 0.46096 0.1768 0.0
H799 H 0.80504 0.42643 0.17321 0.0
H800 H 0.88432 0.47733 0.05782 0.0
H801 H 0.8243 0.39368 0.0477 0.0
H802 H 0.90437 0.47584 0.16941 0.0
H803 H 0.87949 0.48584 0.17164 0.0
H804 H 0.90394 0.49802 0.1266 0.0
H805 H 0.83048 0.3744 0.15703 0.0
H806 H 0.80686 0.36571 0.11111 0.0
H807 H 0.80488 0.38341 0.16004 0.0
C808 C 0.4105 0.83957 0.6035 0.0
C809 C 0.43565 0.85492 0.62432 0.0
C810 C 0.4079 0.83948 0.55628 0.0
C811 C 0.43093 0.85544 0.5294 0.0
C812 C 0.45624 0.87146 0.5503 0.0
C813 C 0.45833 0.87086 0.59749 0.0
C814 C 0.38062 0.82192 0.5351 0.0
C815 C 0.48116 0.88906 0.5228 0.0
C816 C 0.42968 0.83651 0.40592 0.0
C817 C 0.42257 0.85385 0.38453 0.0
C818 C 0.43247 0.8368 0.45313 0.0
C819 C 0.42856 0.85523 0.47933 0.0
C820 C 0.4221 0.87328 0.45774 0.0
C821 C 0.41894 0.8722 0.41063 0.0
C822 C 0.43903 0.817 0.47506 0.0
C823 C 0.41829 0.89357 0.48445 0.0
H824 H 0.39294 0.82707 0.62402 0.0
H825 H 0.47781 0.88288 0.61339 0.0
H826 H 0.37477 0.83438 0.51463 0.0
H827 H 0.38149 0.80719 0.51185 0.0
H828 H 0.36471 0.81073 0.56075 0.0
H829 H 0.49913 0.90103 0.54438 0.0
H830 H 0.48542 0.87644 0.49964 0.0
H831 H 0.47785 0.90307 0.50152 0.0
H832 H 0.43229 0.82215 0.3859 0.0
H833 H 0.41359 0.88576 0.39419 0.0
H834 H 0.4227 0.80389 0.4988 0.0
H835 H 0.45781 0.82788 0.49513 0.0
H836 H 0.44157 0.80407 0.44988 0.0
H837 H 0.40112 0.883 0.50811 0.0
H838 H 0.41441 0.90691 0.46234 0.0
H839 H 0.43645 0.90622 0.50516 0.0
C840 C 0.54621 0.4141 0.74482 0.0
C841 C 0.5678 0.41745 0.71785 0.0
C842 C 0.54898 0.41776 0.79179 0.0
C843 C 0.57383 0.42457 0.81241 0.0
C844 C 0.59581 0.42824 0.78538 0.0
C845 C 0.59259 0.42483 0.73831 0.0
C846 C 0.52521 0.41408 0.81939 0.0
C847 C 0.62254 0.43524 0.8063 0.0
C848 C 0.58849 0.45527 0.92998 0.0
C849 C 0.58185 0.4328 0.95726 0.0
C850 C 0.58581 0.45286 0.8828 0.0
C851 C 0.57665 0.42744 0.86238 0.0
C852 C 0.56988 0.40466 0.88972 0.0
C853 C 0.57237 0.40758 0.93689 0.0
C854 C 0.5928 0.47751 0.85479 0.0
C855 C 0.5603 0.37727 0.86909 0.0
H856 H 0.52704 0.40858 0.72919 0.0
H857 H 0.60929 0.42731 0.71767 0.0
H858 H 0.51908 0.39722 0.84353 0.0
H859 H 0.53088 0.43245 0.83961 0.0
H860 H 0.50761 0.40981 0.79796 0.0
H861 H 0.6377 0.43767 0.78055 0.0
H862 H 0.63056 0.4542 0.8259 0.0
H863 H 0.61981 0.41921 0.83032 0.0
H864 H 0.59574 0.47481 0.94553 0.0
H865 H 0.56742 0.39018 0.95776 0.0
H866 H 0.57515 0.47405 0.83429 0.0
H867 H 0.60927 0.48146 0.83087 0.0
H868 H 0.59921 0.49572 0.87596 0.0
H869 H 0.54163 0.37096 0.84938 0.0
H870 H 0.55621 0.36168 0.89502 0.0
H871 H 0.57567 0.37819 0.84524 0.0
C872 C 0.16978 0.59303 0.06879 0.0
C873 C 0.15194 0.56839 0.04833 0.0
C874 C 0.16982 0.59622 0.11589 0.0
C875 C 0.15131 0.57438 0.14293 0.0
C876 C 0.13281 0.54971 0.12229 0.0
C877 C 0.13347 0.54696 0.07529 0.0
C878 C 0.19001 0.62275 0.13683 0.0
C879 C 0.11249 0.5261 0.14992 0.0
C880 C 0.16697 0.57224 0.26712 0.0
C881 C 0.15161 0.58205 0.28785 0.0
C882 C 0.16725 0.56987 0.2199 0.0
C883 C 0.15149 0.57713 0.19291 0.0
C884 C 0.13564 0.58667 0.21368 0.0
C885 C 0.13602 0.58918 0.26089 0.0
C886 C 0.18459 0.55984 0.19887 0.0
C887 C 0.11828 0.59422 0.18603 0.0
H888 H 0.18419 0.6096 0.04813 0.0
H889 H 0.11949 0.52791 0.05964 0.0
H890 H 0.17947 0.63106 0.15681 0.0
H891 H 0.20322 0.61965 0.16051 0.0
H892 H 0.20281 0.63785 0.11106 0.0
H893 H 0.09882 0.50865 0.12848 0.0
H894 H 0.12305 0.5196 0.17379 0.0
H895 H 0.10016 0.5321 0.17044 0.0
H896 H 0.17922 0.5669 0.28773 0.0
H897 H 0.12403 0.59669 0.2767 0.0
H898 H 0.19913 0.57509 0.17498 0.0
H899 H 0.17189 0.54127 0.17912 0.0
H900 H 0.19596 0.55541 0.22456 0.0
H901 H 0.13096 0.6106 0.16209 0.0
H902 H 0.10687 0.60099 0.20745 0.0
H903 H 0.10375 0.57674 0.16556 0.0
C904 C 0.54785 0.13356 0.59746 0.0
C905 C 0.569 0.15274 0.62409 0.0
C906 C 0.55055 0.13277 0.55048 0.0
C907 C 0.57484 0.15188 0.52952 0.0
C908 C 0.5964 0.17111 0.55623 0.0
C909 C 0.59329 0.17117 0.60334 0.0
C910 C 0.52727 0.11166 0.52322 0.0
C911 C 0.6225 0.19197 0.53492 0.0
C912 C 0.59016 0.13701 0.41165 0.0
C913 C 0.58201 0.15172 0.38455 0.0
C914 C 0.58787 0.13682 0.45888 0.0
C915 C 0.57745 0.15194 0.47953 0.0
C916 C 0.56914 0.16679 0.4524 0.0
C917 C 0.57136 0.16638 0.40517 0.0
C918 C 0.59659 0.12043 0.48669 0.0
C919 C 0.55811 0.18331 0.4733 0.0
H920 H 0.52908 0.11912 0.61338 0.0
H921 H 0.60963 0.18612 0.62377 0.0
H922 H 0.52 0.12149 0.49926 0.0
H923 H 0.53396 0.09985 0.5028 0.0
H924 H 0.51017 0.09759 0.54491 0.0
H925 H 0.63744 0.20529 0.56047 0.0
H926 H 0.63143 0.18201 0.51497 0.0
H927 H 0.6186 0.2046 0.51116 0.0
H928 H 0.59835 0.12558 0.39594 0.0
H929 H 0.56521 0.17794 0.38447 0.0
H930 H 0.5795 0.10553 0.50744 0.0
H931 H 0.61284 0.13374 0.51037 0.0
H932 H 0.604 0.10955 0.46536 0.0
H933 H 0.5398 0.17014 0.49329 0.0
H934 H 0.55293 0.19406 0.44751 0.0
H935 H 0.57311 0.19835 0.49695 0.0
loop_
_geom_bond_atom_site_label_1
_geom_bond_atom_site_label_2
_geom_bond_distance
_geom_bond_site_symmetry_2
_ccdc_geom_bond_type
C0 O2 1.247 . S
C0 O4 1.258 . S
C1 O8 1.247 . S
C1 O9 1.258 . S
O2 C0 1.247 . S
O2 Zn3 2.028 . S
Zn3 O2 2.028 . S
Zn3 O7 2.035 . S
Zn3 O9 2.035 . S
Zn3 O10 2.028 . S
O4 C0 1.258 . S
O4 Zn5 2.035 . S
Zn5 O4 2.035 . S
Zn5 O6 2.028 . S
Zn5 O8 2.028 . S
Zn5 O11 2.035 . S
O6 Zn5 2.028 . S
O6 C12 1.247 . S
O7 Zn3 2.035 . S
O7 C12 1.258 . S
O8 C1 1.247 . S
O8 Zn5 2.028 . S
O9 C1 1.258 . S
O9 Zn3 2.035 . S
O10 Zn3 2.028 . S
O10 C13 1.247 1_554 S
O11 Zn5 2.035 . S
O11 C13 1.258 1_554 S
C12 O6 1.247 . S
C12 O7 1.258 . S
C13 O10 1.247 1_556 S
C13 O11 1.258 1_556 S
C14 O16 1.247 . S
C14 O18 1.258 . S
C15 O22 1.247 . S
C15 O23 1.258 . S
O16 C14 1.247 . S
O16 Zn17 2.028 . S
Zn17 O16 2.028 . S
Zn17 O21 2.035 . S
Zn17 O23 2.035 . S
Zn17 O24 2.028 . S
O18 C14 1.258 . S
O18 Zn19 2.035 . S
Zn19 O18 2.035 . S
Zn19 O20 2.028 . S
Zn19 O22 2.028 . S
Zn19 O25 2.035 . S
O20 Zn19 2.028 . S
O20 C26 1.247 . S
O21 Zn17 2.035 . S
O21 C26 1.258 . S
O22 C15 1.247 . S
O22 Zn19 2.028 . S
O23 C15 1.258 . S
O23 Zn17 2.035 . S
O24 Zn17 2.028 . S
O24 C27 1.247 . S
O25 Zn19 2.035 . S
O25 C27 1.258 . S
C26 O20 1.247 . S
C26 O21 1.258 . S
C27 O24 1.247 . S
C27 O25 1.258 . S
C28 O30 1.247 . S
C28 O32 1.258 . S
C29 O36 1.247 . S
C29 O37 1.258 . S
O30 C28 1.247 . S
O30 Zn31 2.028 . S
Zn31 O30 2.028 . S
Zn31 O35 2.035 . S
Zn31 O37 2.035 . S
Zn31 O38 2.028 . S
O32 C28 1.258 . S
O32 Zn33 2.035 . S
Zn33 O32 2.035 . S
Zn33 O34 2.028 . S
Zn33 O36 2.028 . S
Zn33 O39 2.035 . S
O34 Zn33 2.028 . S
O34 C40 1.247 . S
O35 Zn31 2.035 . S
O35 C40 1.258 . S
O36 C29 1.247 . S
O36 Zn33 2.028 . S
O37 C29 1.258 . S
O37 Zn31 2.035 . S
O38 Zn31 2.028 . S
O38 C41 1.247 . S
O39 Zn33 2.035 . S
O39 C41 1.258 . S
C40 O34 1.247 . S
C40 O35 1.258 . S
C41 O38 1.247 . S
C41 O39 1.258 . S
C42 O44 1.247 1_556 S
C42 O46 1.258 1_556 S
C43 O50 1.247 . S
C43 O51 1.258 . S
O44 C42 1.247 1_554 S
O44 Zn45 2.028 . S
Zn45 O44 2.028 . S
Zn45 O49 2.035 . S
Zn45 O51 2.035 . S
Zn45 O52 2.028 . S
O46 C42 1.258 1_554 S
O46 Zn47 2.035 . S
Zn47 O46 2.035 . S
Zn47 O48 2.028 . S
Zn47 O50 2.028 . S
Zn47 O53 2.035 . S
O48 Zn47 2.028 . S
O48 C54 1.247 . S
O49 Zn45 2.035 . S
O49 C54 1.258 . S
O50 C43 1.247 . S
O50 Zn47 2.028 . S
O51 C43 1.258 . S
O51 Zn45 2.035 . S
O52 Zn45 2.028 . S
O52 C55 1.247 . S
O53 Zn47 2.035 . S
O53 C55 1.258 . S
C54 O48 1.247 . S
C54 O49 1.258 . S
C55 O52 1.247 . S
C55 O53 1.258 . S
C56 O58 1.247 . S
C56 O60 1.258 . S
C57 O64 1.247 . S
C57 O65 1.258 . S
O58 C56 1.247 . S
O58 Zn59 2.028 . S
Zn59 O58 2.028 . S
Zn59 O63 2.035 . S
Zn59 O65 2.035 . S
Zn59 O66 2.028 . S
O60 C56 1.258 . S
O60 Zn61 2.035 . S
Zn61 O60 2.035 . S
Zn61 O62 2.028 . S
Zn61 O64 2.028 . S
Zn61 O67 2.035 . S
O62 Zn61 2.028 . S
O62 C68 1.247 . S
O63 Zn59 2.035 . S
O63 C68 1.258 . S
O64 C57 1.247 . S
O64 Zn61 2.028 . S
O65 C57 1.258 . S
O65 Zn59 2.035 . S
O66 Zn59 2.028 . S
O66 C69 1.247 . S
O67 Zn61 2.035 . S
O67 C69 1.258 . S
C68 O62 1.247 . S
C68 O63 1.258 . S
C69 O66 1.247 . S
C69 O67 1.258 . S
C70 O72 1.247 . S
C70 O74 1.258 . S
C71 O78 1.247 . S
C71 O79 1.258 . S
O72 C70 1.247 . S
O72 Zn73 2.028 . S
Zn73 O72 2.028 . S
Zn73 O77 2.035 . S
Zn73 O79 2.035 . S
Zn73 O80 2.028 . S
O74 C70 1.258 . S
O74 Zn75 2.035 . S
Zn75 O74 2.035 . S
Zn75 O76 2.028 . S
Zn75 O78 2.028 . S
Zn75 O81 2.035 . S
O76 Zn75 2.028 . S
O76 C82 1.247 . S
O77 Zn73 2.035 . S
O77 C82 1.258 . S
O78 C71 1.247 . S
O78 Zn75 2.028 . S
O79 C71 1.258 . S
O79 Zn73 2.035 . S
O80 Zn73 2.028 . S
O80 C83 1.247 . S
O81 Zn75 2.035 . S
O81 C83 1.258 . S
C82 O76 1.247 . S
C82 O77 1.258 . S
C83 O80 1.247 . S
C83 O81 1.258 . S
C84 O86 1.247 . S
C84 O88 1.258 . S
C85 O92 1.247 . S
C85 O93 1.258 . S
O86 C84 1.247 . S
O86 Zn87 2.028 . S
Zn87 O86 2.028 . S
Zn87 O91 2.035 . S
Zn87 O93 2.035 . S
Zn87 O94 2.028 . S
O88 C84 1.258 . S
O88 Zn89 2.035 . S
Zn89 O88 2.035 . S
Zn89 O90 2.028 . S
Zn89 O92 2.028 . S
Zn89 O95 2.035 . S
O90 Zn89 2.028 . S
O90 C96 1.247 . S
O91 Zn87 2.035 . S
O91 C96 1.258 . S
O92 C85 1.247 . S
O92 Zn89 2.028 . S
O93 C85 1.258 . S
O93 Zn87 2.035 . S
O94 Zn87 2.028 . S
O94 C97 1.247 . S
O95 Zn89 2.035 . S
O95 C97 1.258 . S
C96 O90 1.247 . S
C96 O91 1.258 . S
C97 O94 1.247 . S
C97 O95 1.258 . S
C98 O100 1.247 . S
C98 O102 1.258 . S
C99 O106 1.247 1_554 S
C99 O107 1.258 1_554 S
O100 C98 1.247 . S
O100 Zn101 2.028 . S
Zn101 O100 2.028 . S
Zn101 O105 2.035 . S
Zn101 O107 2.035 . S
Zn101 O108 2.028 . S
O102 C98 1.258 . S
O102 Zn103 2.035 . S
Zn103 O102 2.035 . S
Zn103 O104 2.028 . S
Zn103 O106 2.028 . S
Zn103 O109 2.035 . S
O104 Zn103 2.028 . S
O104 C110 1.247 . S
O105 Zn101 2.035 . S
O105 C110 1.258 . S
O106 C99 1.247 1_556 S
O106 Zn103 2.028 . S
O107 C99 1.258 1_556 S
O107 Zn101 2.035 . S
O108 Zn101 2.028 . S
O108 C111 1.247 . S
O109 Zn103 2.035 . S
O109 C111 1.258 . S
C110 O104 1.247 . S
C110 O105 1.258 . S
C111 O108 1.247 . S
C111 O109 1.258 . S
C112 O114 1.247 . S
C112 O116 1.258 . S
C113 O120 1.247 . S
C113 O121 1.258 . S
O114 C112 1.247 . S
O114 Zn115 2.028 . S
Zn115 O114 2.028 . S
Zn115 O119 2.035 . S
Zn115 O121 2.035 . S
Zn115 O122 2.028 . S
O116 C112 1.258 . S
O116 Zn117 2.035 . S
Zn117 O116 2.035 . S
Zn117 O118 2.028 . S
Zn117 O120 2.028 . S
Zn117 O123 2.035 . S
O118 Zn117 2.028 . S
O118 C124 1.247 . S
O119 Zn115 2.035 . S
O119 C124 1.258 . S
O120 C113 1.247 . S
O120 Zn117 2.028 . S
O121 C113 1.258 . S
O121 Zn115 2.035 . S
O122 Zn115 2.028 . S
O122 C125 1.247 . S
O123 Zn117 2.035 . S
O123 C125 1.258 . S
C124 O118 1.247 . S
C124 O119 1.258 . S
C125 O122 1.247 . S
C125 O123 1.258 . S
C126 O128 1.247 . S
C126 O130 1.258 . S
C127 O134 1.247 . S
C127 O135 1.258 . S
O128 C126 1.247 . S
O128 Zn129 2.028 . S
Zn129 O128 2.028 . S
Zn129 O133 2.035 . S
Zn129 O135 2.035 . S
Zn129 O136 2.028 . S
O130 C126 1.258 . S
O130 Zn131 2.035 . S
Zn131 O130 2.035 . S
Zn131 O132 2.028 . S
Zn131 O134 2.028 . S
Zn131 O137 2.035 . S
O132 Zn131 2.028 . S
O132 C138 1.247 . S
O133 Zn129 2.035 . S
O133 C138 1.258 . S
O134 C127 1.247 . S
O134 Zn131 2.028 . S
O135 C127 1.258 . S
O135 Zn129 2.035 . S
O136 Zn129 2.028 . S
O136 C139 1.247 . S
O137 Zn131 2.035 . S
O137 C139 1.258 . S
C138 O132 1.247 . S
C138 O133 1.258 . S
C139 O136 1.247 . S
C139 O137 1.258 . S
C140 O142 1.247 . S
C140 O144 1.258 . S
C141 O148 1.247 1_554 S
C141 O149 1.258 1_554 S
O142 C140 1.247 . S
O142 Zn143 2.028 . S
Zn143 O142 2.028 . S
Zn143 O147 2.035 . S
Zn143 O149 2.035 . S
Zn143 O150 2.028 . S
O144 C140 1.258 . S
O144 Zn145 2.035 . S
Zn145 O144 2.035 . S
Zn145 O146 2.028 . S
Zn145 O148 2.028 . S
Zn145 O151 2.035 . S
O146 Zn145 2.028 . S
O146 C152 1.247 . S
O147 Zn143 2.035 . S
O147 C152 1.258 . S
O148 C141 1.247 1_556 S
O148 Zn145 2.028 . S
O149 C141 1.258 1_556 S
O149 Zn143 2.035 . S
O150 Zn143 2.028 . S
O150 C153 1.247 . S
O151 Zn145 2.035 . S
O151 C153 1.258 . S
C152 O146 1.247 . S
C152 O147 1.258 . S
C153 O150 1.247 . S
C153 O151 1.258 . S
C154 O156 1.247 . S
C154 O158 1.258 . S
C155 O162 1.247 . S
C155 O163 1.258 . S
O156 C154 1.247 . S
O156 Zn157 2.028 . S
Zn157 O156 2.028 . S
Zn157 O161 2.035 . S
Zn157 O163 2.035 . S
Zn157 O164 2.028 . S
O158 C154 1.258 . S
O158 Zn159 2.035 . S
Zn159 O158 2.035 . S
Zn159 O160 2.028 . S
Zn159 O162 2.028 . S
Zn159 O165 2.035 . S
O160 Zn159 2.028 . S
O160 C166 1.247 . S
O161 Zn157 2.035 . S
O161 C166 1.258 . S
O162 C155 1.247 . S
O162 Zn159 2.028 . S
O163 C155 1.258 . S
O163 Zn157 2.035 . S
O164 Zn157 2.028 . S
O164 C167 1.247 . S
O165 Zn159 2.035 . S
O165 C167 1.258 . S
C166 O160 1.247 . S
C166 O161 1.258 . S
C167 O164 1.247 . S
C167 O165 1.258 . S
C168 C169 1.391 . S
C168 C170 1.394 . S
C168 H184 0.931 . S
C169 C168 1.391 . S
C169 C173 1.376 . S
C170 C168 1.394 . S
C170 C171 1.369 . S
C170 C174 1.531 . S
C171 C170 1.369 . S
C171 C172 1.410 . S
C171 C179 1.503 . S
C172 C171 1.410 . S
C172 C173 1.392 . S
C172 C175 1.511 . S
C173 C169 1.376 . S
C173 C172 1.392 . S
C173 H185 0.929 . S
C174 C170 1.531 . S
C174 H186 0.960 . S
C174 H187 0.962 . S
C174 H188 0.960 . S
C175 C172 1.511 . S
C175 H189 0.961 . S
C175 H190 0.961 . S
C175 H191 0.961 . S
C176 C177 1.370 . S
C176 C178 1.363 . S
C176 H192 0.931 . S
C177 C176 1.370 . S
C177 C181 1.408 . S
C178 C176 1.363 . S
C178 C179 1.370 . S
C178 C182 1.524 . S
C179 C171 1.503 . S
C179 C178 1.370 . S
C179 C180 1.403 . S
C180 C179 1.403 . S
C180 C181 1.404 . S
C180 C183 1.539 . S
C181 C177 1.408 . S
C181 C180 1.404 . S
C181 H193 0.930 . S
C182 C178 1.524 . S
C182 H194 0.956 . S
C182 H195 0.961 . S
C182 H196 0.961 . S
C183 C180 1.539 . S
C183 H197 0.958 . S
C183 H198 0.961 . S
C183 H199 0.960 . S
H184 C168 0.931 . S
H185 C173 0.929 . S
H186 C174 0.960 . S
H187 C174 0.962 . S
H188 C174 0.960 . S
H189 C175 0.961 . S
H190 C175 0.961 . S
H191 C175 0.961 . S
H192 C176 0.931 . S
H193 C181 0.930 . S
H194 C182 0.956 . S
H195 C182 0.961 . S
H196 C182 0.961 . S
H197 C183 0.958 . S
H198 C183 0.961 . S
H199 C183 0.960 . S
C200 C201 1.391 . S
C200 C202 1.394 . S
C200 H216 0.931 . S
C201 C200 1.391 . S
C201 C205 1.376 . S
C202 C200 1.394 . S
C202 C203 1.369 . S
C202 C206 1.531 . S
C203 C202 1.369 . S
C203 C204 1.410 . S
C203 C211 1.503 . S
C204 C203 1.410 . S
C204 C205 1.392 . S
C204 C207 1.511 . S
C205 C201 1.376 . S
C205 C204 1.392 . S
C205 H217 0.929 . S
C206 C202 1.531 . S
C206 H218 0.960 . S
C206 H219 0.962 . S
C206 H220 0.960 . S
C207 C204 1.511 . S
C207 H221 0.961 . S
C207 H222 0.961 . S
C207 H223 0.961 . S
C208 C209 1.370 . S
C208 C210 1.363 . S
C208 H224 0.931 . S
C209 C208 1.370 . S
C209 C213 1.408 . S
C210 C208 1.363 . S
C210 C211 1.370 . S
C210 C214 1.524 . S
C211 C203 1.503 . S
C211 C210 1.370 . S
C211 C212 1.403 . S
C212 C211 1.403 . S
C212 C213 1.404 . S
C212 C215 1.539 . S
C213 C209 1.408 . S
C213 C212 1.404 . S
C213 H225 0.930 . S
C214 C210 1.524 . S
C214 H226 0.956 . S
C214 H227 0.961 . S
C214 H228 0.961 . S
C215 C212 1.539 . S
C215 H229 0.958 . S
C215 H230 0.961 . S
C215 H231 0.960 . S
H216 C200 0.931 . S
H217 C205 0.929 . S
H218 C206 0.960 . S
H219 C206 0.962 . S
H220 C206 0.960 . S
H221 C207 0.961 . S
H222 C207 0.961 . S
H223 C207 0.961 . S
H224 C208 0.931 . S
H225 C213 0.930 . S
H226 C214 0.956 . S
H227 C214 0.961 . S
H228 C214 0.961 . S
H229 C215 0.958 . S
H230 C215 0.961 . S
H231 C215 0.960 . S
C232 C233 1.391 . S
C232 C234 1.394 . S
C232 H248 0.931 . S
C233 C232 1.391 . S
C233 C237 1.376 . S
C234 C232 1.394 . S
C234 C235 1.369 . S
C234 C238 1.531 . S
C235 C234 1.369 . S
C235 C236 1.410 . S
C235 C243 1.503 1_556 S
C236 C235 1.410 . S
C236 C237 1.392 . S
C236 C239 1.511 . S
C237 C233 1.376 . S
C237 C236 1.392 . S
C237 H249 0.929 . S
C238 C234 1.531 . S
C238 H250 0.960 1_556 S
C238 H251 0.962 . S
C238 H252 0.960 . S
C239 C236 1.511 . S
C239 H253 0.961 . S
C239 H254 0.984 . S
C239 H255 0.961 . S
C240 C241 1.370 . S
C240 C242 1.363 . S
C240 H256 0.931 . S
C241 C240 1.370 . S
C241 C245 1.408 . S
C242 C240 1.363 . S
C242 C243 1.370 . S
C242 C246 1.524 . S
C243 C235 1.503 1_554 S
C243 C242 1.370 . S
C243 C244 1.403 . S
C244 C243 1.403 . S
C244 C245 1.404 . S
C244 C247 1.539 . S
C245 C241 1.408 . S
C245 C244 1.404 . S
C245 H257 0.930 . S
C246 C242 1.524 . S
C246 H258 0.956 . S
C246 H259 0.961 . S
C246 H260 0.961 . S
C247 C244 1.539 . S
C247 H261 0.958 . S
C247 H262 0.961 . S
C247 H263 0.960 1_554 S
H248 C232 0.931 . S
H249 C237 0.929 . S
H250 C238 0.960 1_554 S
H251 C238 0.962 . S
H252 C238 0.960 . S
H253 C239 0.961 . S
H254 C239 0.984 . S
H255 C239 0.961 . S
H256 C240 0.931 . S
H257 C245 0.930 . S
H258 C246 0.956 . S
H259 C246 0.961 . S
H260 C246 0.961 . S
H261 C247 0.958 . S
H262 C247 0.961 . S
H263 C247 0.960 1_556 S
C264 C265 1.391 . S
C264 C266 1.394 . S
C264 H280 0.931 . S
C265 C264 1.391 . S
C265 C269 1.376 . S
C266 C264 1.394 . S
C266 C267 1.369 . S
C266 C270 1.531 . S
C267 C266 1.369 . S
C267 C268 1.410 . S
C267 C275 1.503 . S
C268 C267 1.410 . S
C268 C269 1.392 . S
C268 C271 1.511 . S
C269 C265 1.376 . S
C269 C268 1.392 . S
C269 H281 0.929 . S
C270 C266 1.531 . S
C270 H282 0.960 . S
C270 H283 0.962 . S
C270 H284 0.960 . S
C271 C268 1.511 . S
C271 H285 0.961 . S
C271 H286 0.961 . S
C271 H287 0.961 . S
C272 C273 1.370 . S
C272 C274 1.363 . S
C272 H288 0.931 . S
C273 C272 1.370 . S
C273 C277 1.408 . S
C274 C272 1.363 . S
C274 C275 1.370 . S
C274 C278 1.524 . S
C275 C267 1.503 . S
C275 C274 1.370 . S
C275 C276 1.403 . S
C276 C275 1.403 . S
C276 C277 1.404 . S
C276 C279 1.539 . S
C277 C273 1.408 . S
C277 C276 1.404 . S
C277 H289 0.930 . S
C278 C274 1.524 . S
C278 H290 0.956 . S
C278 H291 0.961 . S
C278 H292 0.961 . S
C279 C276 1.539 . S
C279 H293 0.958 . S
C279 H294 0.961 . S
C279 H295 0.960 . S
H280 C264 0.931 . S
H281 C269 0.929 . S
H282 C270 0.960 . S
H283 C270 0.962 . S
H284 C270 0.960 . S
H285 C271 0.961 . S
H286 C271 0.961 . S
H287 C271 0.961 . S
H288 C272 0.931 . S
H289 C277 0.930 . S
H290 C278 0.956 . S
H291 C278 0.961 . S
H292 C278 0.961 . S
H293 C279 0.958 . S
H294 C279 0.961 . S
H295 C279 0.960 . S
C296 C297 1.391 . S
C296 C298 1.394 . S
C296 H312 0.931 . S
C297 C296 1.391 . S
C297 C301 1.376 . S
C298 C296 1.394 . S
C298 C299 1.369 . S
C298 C302 1.531 . S
C299 C298 1.369 . S
C299 C300 1.410 . S
C299 C307 1.503 . S
C300 C299 1.410 . S
C300 C301 1.392 . S
C300 C303 1.511 . S
C301 C297 1.376 . S
C301 C300 1.392 . S
C301 H313 0.929 . S
C302 C298 1.531 . S
C302 H314 0.960 . S
C302 H315 0.962 . S
C302 H316 0.960 . S
C303 C300 1.511 . S
C303 H317 0.961 . S
C303 H318 0.961 . S
C303 H319 0.961 . S
C304 C305 1.370 . S
C304 C306 1.363 . S
C304 H320 0.931 . S
C305 C304 1.370 . S
C305 C309 1.408 . S
C306 C304 1.363 . S
C306 C307 1.370 . S
C306 C310 1.524 . S
C307 C299 1.503 . S
C307 C306 1.370 . S
C307 C308 1.403 . S
C308 C307 1.403 . S
C308 C309 1.404 . S
C308 C311 1.539 . S
C309 C305 1.408 . S
C309 C308 1.404 . S
C309 H321 0.930 . S
C310 C306 1.524 . S
C310 H322 0.956 . S
C310 H323 0.961 . S
C310 H324 0.961 . S
C311 C308 1.539 . S
C311 H325 0.958 . S
C311 H326 0.961 . S
C311 H327 0.960 . S
H312 C296 0.931 . S
H313 C301 0.929 . S
H314 C302 0.960 . S
H315 C302 0.962 . S
H316 C302 0.960 . S
H317 C303 0.961 . S
H318 C303 0.961 . S
H319 C303 0.961 . S
H320 C304 0.931 . S
H321 C309 0.930 . S
H322 C310 0.956 . S
H323 C310 0.961 . S
H324 C310 0.961 . S
H325 C311 0.958 . S
H326 C311 0.961 . S
H327 C311 0.960 . S
C328 C329 1.391 . S
C328 C330 1.394 . S
C328 H344 0.931 . S
C329 C328 1.391 . S
C329 C333 1.376 . S
C330 C328 1.394 . S
C330 C331 1.369 . S
C330 C334 1.531 . S
C331 C330 1.369 . S
C331 C332 1.410 . S
C331 C339 1.503 1_554 S
C332 C331 1.410 . S
C332 C333 1.392 . S
C332 C335 1.511 . S
C333 C329 1.376 . S
C333 C332 1.392 . S
C333 H345 0.929 . S
C334 C330 1.531 . S
C334 H346 0.960 . S
C334 H347 0.962 . S
C334 H348 0.960 . S
C335 C332 1.511 . S
C335 H349 0.961 . S
C335 H350 0.961 1_554 S
C335 H351 0.961 . S
C336 C337 1.370 . S
C336 C338 1.363 . S
C336 H352 0.931 . S
C337 C336 1.370 . S
C337 C341 1.408 . S
C338 C336 1.363 . S
C338 C339 1.370 . S
C338 C342 1.524 . S
C339 C331 1.503 1_556 S
C339 C338 1.370 . S
C339 C340 1.403 . S
C340 C339 1.403 . S
C340 C341 1.404 . S
C340 C343 1.539 . S
C341 C337 1.408 . S
C341 C340 1.404 . S
C341 H353 0.930 . S
C342 C338 1.524 . S
C342 H354 0.956 1_556 S
C342 H355 0.961 1_556 S
C342 H356 0.961 . S
C343 C340 1.539 . S
C343 H357 0.958 . S
C343 H358 0.961 . S
C343 H359 0.960 . S
H344 C328 0.931 . S
H345 C333 0.929 . S
H346 C334 0.960 . S
H347 C334 0.962 . S
H348 C334 0.960 . S
H349 C335 0.961 . S
H350 C335 0.961 1_556 S
H351 C335 0.961 . S
H352 C336 0.931 . S
H353 C341 0.930 . S
H354 C342 0.956 1_554 S
H355 C342 0.961 1_554 S
H356 C342 0.961 . S
H357 C343 0.958 . S
H358 C343 0.961 . S
H359 C343 0.960 . S
C360 C361 1.391 . S
C360 C362 1.394 . S
C360 H376 0.931 . S
C361 C360 1.391 . S
C361 C365 1.376 . S
C362 C360 1.394 . S
C362 C363 1.369 . S
C362 C366 1.531 1_554 S
C363 C362 1.369 . S
C363 C364 1.410 . S
C363 C371 1.503 1_554 S
C364 C363 1.410 . S
C364 C365 1.392 . S
C364 C367 1.511 . S
C365 C361 1.376 . S
C365 C364 1.392 . S
C365 H377 0.929 . S
C366 C362 1.531 1_556 S
C366 H378 0.960 . S
C366 H379 0.962 . S
C366 H380 0.959 1_556 S
C367 C364 1.511 . S
C367 H381 0.961 . S
C367 H382 0.961 . S
C367 H383 0.961 . S
C368 C369 1.370 . S
C368 C370 1.363 . S
C368 H384 0.931 . S
C369 C368 1.370 . S
C369 C373 1.408 1_556 S
C370 C368 1.363 . S
C370 C371 1.370 . S
C370 C374 1.524 . S
C371 C363 1.503 1_556 S
C371 C370 1.370 . S
C371 C372 1.403 1_556 S
C372 C371 1.403 1_554 S
C372 C373 1.404 . S
C372 C375 1.539 . S
C373 C369 1.408 1_554 S
C373 C372 1.404 . S
C373 H385 0.930 . S
C374 C370 1.524 . S
C374 H386 0.956 . S
C374 H387 0.961 . S
C374 H388 0.961 . S
C375 C372 1.539 . S
C375 H389 0.958 . S
C375 H390 0.961 . S
C375 H391 0.960 . S
H376 C360 0.931 . S
H377 C365 0.929 . S
H378 C366 0.960 . S
H379 C366 0.962 . S
H380 C366 0.959 1_554 S
H381 C367 0.961 . S
H382 C367 0.961 . S
H383 C367 0.961 . S
H384 C368 0.931 . S
H385 C373 0.930 . S
H386 C374 0.956 . S
H387 C374 0.961 . S
H388 C374 0.961 . S
H389 C375 0.958 . S
H390 C375 0.961 . S
H391 C375 0.960 . S
C392 C393 1.391 . S
C392 C394 1.394 . S
C392 H408 0.931 . S
C393 C392 1.391 . S
C393 C397 1.376 . S
C394 C392 1.394 . S
C394 C395 1.369 . S
C394 C398 1.531 . S
C395 C394 1.369 . S
C395 C396 1.410 . S
C395 C403 1.503 . S
C396 C395 1.410 . S
C396 C397 1.392 . S
C396 C399 1.511 . S
C397 C393 1.376 . S
C397 C396 1.392 . S
C397 H409 0.929 . S
C398 C394 1.531 . S
C398 H410 0.960 . S
C398 H411 0.962 . S
C398 H412 0.960 . S
C399 C396 1.511 . S
C399 H413 0.961 . S
C399 H414 0.961 . S
C399 H415 0.961 . S
C400 C401 1.370 . S
C400 C402 1.363 . S
C400 H416 0.931 . S
C401 C400 1.370 . S
C401 C405 1.408 . S
C402 C400 1.363 . S
C402 C403 1.370 . S
C402 C406 1.524 . S
C403 C395 1.503 . S
C403 C402 1.370 . S
C403 C404 1.403 . S
C404 C403 1.403 . S
C404 C405 1.404 . S
C404 C407 1.539 . S
C405 C401 1.408 . S
C405 C404 1.404 . S
C405 H417 0.930 . S
C406 C402 1.524 . S
C406 H418 0.956 . S
C406 H419 0.961 . S
C406 H420 0.961 . S
C407 C404 1.539 . S
C407 H421 0.958 . S
C407 H422 0.961 . S
C407 H423 0.960 . S
H408 C392 0.931 . S
H409 C397 0.929 . S
H410 C398 0.960 . S
H411 C398 0.962 . S
H412 C398 0.960 . S
H413 C399 0.961 . S
H414 C399 0.961 . S
H415 C399 0.961 . S
H416 C400 0.931 . S
H417 C405 0.930 . S
H418 C406 0.956 . S
H419 C406 0.961 . S
H420 C406 0.961 . S
H421 C407 0.958 . S
H422 C407 0.961 . S
H423 C407 0.960 . S
C424 C425 1.391 . S
C424 C426 1.394 . S
C424 H440 0.931 . S
C425 C424 1.391 . S
C425 C429 1.376 . S
C426 C424 1.394 . S
C426 C427 1.369 . S
C426 C430 1.531 . S
C427 C426 1.369 . S
C427 C428 1.410 . S
C427 C435 1.503 . S
C428 C427 1.410 . S
C428 C429 1.392 . S
C428 C431 1.511 . S
C429 C425 1.376 . S
C429 C428 1.392 . S
C429 H441 0.929 . S
C430 C426 1.531 . S
C430 H442 0.960 . S
C430 H443 0.962 . S
C430 H444 0.960 . S
C431 C428 1.511 . S
C431 H445 0.961 . S
C431 H446 0.961 . S
C431 H447 0.961 . S
C432 C433 1.370 . S
C432 C434 1.363 . S
C432 H448 0.931 . S
C433 C432 1.370 . S
C433 C437 1.408 . S
C434 C432 1.363 . S
C434 C435 1.370 . S
C434 C438 1.524 . S
C435 C427 1.503 . S
C435 C434 1.370 . S
C435 C436 1.403 . S
C436 C435 1.403 . S
C436 C437 1.404 . S
C436 C439 1.539 . S
C437 C433 1.408 . S
C437 C436 1.404 . S
C437 H449 0.930 . S
C438 C434 1.524 . S
C438 H450 0.956 . S
C438 H451 0.961 . S
C438 H452 0.961 . S
C439 C436 1.539 . S
C439 H453 0.958 . S
C439 H454 0.961 . S
C439 H455 0.960 . S
H440 C424 0.931 . S
H441 C429 0.929 . S
H442 C430 0.960 . S
H443 C430 0.962 . S
H444 C430 0.960 . S
H445 C431 0.961 . S
H446 C431 0.961 . S
H447 C431 0.961 . S
H448 C432 0.931 . S
H449 C437 0.930 . S
H450 C438 0.956 . S
H451 C438 0.961 . S
H452 C438 0.961 . S
H453 C439 0.958 . S
H454 C439 0.961 . S
H455 C439 0.960 . S
C456 C457 1.388 1_556 S
C456 C458 1.395 . S
C456 H472 0.933 . S
C457 C456 1.388 1_554 S
C457 C461 1.376 . S
C458 C456 1.395 . S
C458 C459 1.369 1_556 S
C458 C462 1.531 . S
C459 C458 1.369 1_554 S
C459 C460 1.410 . S
C459 C467 1.503 1_554 S
C460 C459 1.410 . S
C460 C461 1.392 . S
C460 C463 1.511 . S
C461 C457 1.376 . S
C461 C460 1.392 . S
C461 H473 0.929 . S
C462 C458 1.531 . S
C462 H474 0.960 . S
C462 H475 0.962 . S
C462 H476 0.960 . S
C463 C460 1.511 . S
C463 H477 0.961 . S
C463 H478 0.961 . S
C463 H479 0.961 . S
C464 C465 1.370 . S
C464 C466 1.363 . S
C464 H480 0.931 . S
C465 C464 1.370 . S
C465 C469 1.408 . S
C466 C464 1.363 . S
C466 C467 1.370 . S
C466 C470 1.524 1_556 S
C467 C459 1.503 1_556 S
C467 C466 1.370 . S
C467 C468 1.403 . S
C468 C467 1.403 . S
C468 C469 1.404 . S
C468 C471 1.539 . S
C469 C465 1.408 . S
C469 C468 1.404 . S
C469 H481 0.930 . S
C470 C466 1.524 1_554 S
C470 H482 0.956 . S
C470 H483 0.961 . S
C470 H484 0.961 . S
C471 C468 1.539 . S
C471 H485 0.958 . S
C471 H486 0.961 . S
C471 H487 0.960 . S
H472 C456 0.933 . S
H473 C461 0.929 . S
H474 C462 0.960 . S
H475 C462 0.962 . S
H476 C462 0.960 . S
H477 C463 0.961 . S
H478 C463 0.961 . S
H479 C463 0.961 . S
H480 C464 0.931 . S
H481 C469 0.930 . S
H482 C470 0.956 . S
H483 C470 0.961 . S
H484 C470 0.961 . S
H485 C471 0.958 . S
H486 C471 0.961 . S
H487 C471 0.960 . S
C488 C489 1.391 . S
C488 C490 1.394 . S
C488 H504 0.931 . S
C489 C488 1.391 . S
C489 C493 1.376 . S
C490 C488 1.394 . S
C490 C491 1.369 . S
C490 C494 1.531 . S
C491 C490 1.369 . S
C491 C492 1.410 . S
C491 C499 1.503 . S
C492 C491 1.410 . S
C492 C493 1.392 . S
C492 C495 1.511 . S
C493 C489 1.376 . S
C493 C492 1.392 . S
C493 H505 0.929 . S
C494 C490 1.531 . S
C494 H506 0.960 . S
C494 H507 0.962 . S
C494 H508 0.960 . S
C495 C492 1.511 . S
C495 H509 0.961 . S
C495 H510 0.961 . S
C495 H511 0.961 . S
C496 C497 1.370 . S
C496 C498 1.363 . S
C496 H512 0.931 . S
C497 C496 1.370 . S
C497 C501 1.408 . S
C498 C496 1.363 . S
C498 C499 1.370 . S
C498 C502 1.524 . S
C499 C491 1.503 . S
C499 C498 1.370 . S
C499 C500 1.403 . S
C500 C499 1.403 . S
C500 C501 1.404 . S
C500 C503 1.539 . S
C501 C497 1.408 . S
C501 C500 1.404 . S
C501 H513 0.930 . S
C502 C498 1.524 . S
C502 H514 0.956 . S
C502 H515 0.961 . S
C502 H516 0.961 . S
C503 C500 1.539 . S
C503 H517 0.958 . S
C503 H518 0.961 . S
C503 H519 0.960 . S
H504 C488 0.931 . S
H505 C493 0.929 . S
H506 C494 0.960 . S
H507 C494 0.962 . S
H508 C494 0.960 . S
H509 C495 0.961 . S
H510 C495 0.961 . S
H511 C495 0.961 . S
H512 C496 0.931 . S
H513 C501 0.930 . S
H514 C502 0.956 . S
H515 C502 0.961 . S
H516 C502 0.961 . S
H517 C503 0.958 . S
H518 C503 0.961 . S
H519 C503 0.960 . S
C520 C521 1.391 . S
C520 C522 1.394 . S
C520 H536 0.931 . S
C521 C520 1.391 . S
C521 C525 1.376 . S
C522 C520 1.394 . S
C522 C523 1.369 . S
C522 C526 1.531 . S
C523 C522 1.369 . S
C523 C524 1.410 . S
C523 C531 1.503 . S
C524 C523 1.410 . S
C524 C525 1.392 . S
C524 C527 1.511 . S
C525 C521 1.376 . S
C525 C524 1.392 . S
C525 H537 0.929 . S
C526 C522 1.531 . S
C526 H538 0.960 . S
C526 H539 0.962 . S
C526 H540 0.960 . S
C527 C524 1.511 . S
C527 H541 0.961 . S
C527 H542 0.961 . S
C527 H543 0.961 . S
C528 C529 1.370 . S
C528 C530 1.363 . S
C528 H544 0.931 . S
C529 C528 1.370 . S
C529 C533 1.408 . S
C530 C528 1.363 . S
C530 C531 1.370 . S
C530 C534 1.524 . S
C531 C523 1.503 . S
C531 C530 1.370 . S
C531 C532 1.403 . S
C532 C531 1.403 . S
C532 C533 1.404 . S
C532 C535 1.539 . S
C533 C529 1.408 . S
C533 C532 1.404 . S
C533 H545 0.930 . S
C534 C530 1.524 . S
C534 H546 0.956 . S
C534 H547 0.961 . S
C534 H548 0.961 . S
C535 C532 1.539 . S
C535 H549 0.958 . S
C535 H550 0.961 . S
C535 H551 0.960 . S
H536 C520 0.931 . S
H537 C525 0.929 . S
H538 C526 0.960 . S
H539 C526 0.962 . S
H540 C526 0.960 . S
H541 C527 0.961 . S
H542 C527 0.961 . S
H543 C527 0.961 . S
H544 C528 0.931 . S
H545 C533 0.930 . S
H546 C534 0.956 . S
H547 C534 0.961 . S
H548 C534 0.961 . S
H549 C535 0.958 . S
H550 C535 0.961 . S
H551 C535 0.960 . S
C552 C553 1.391 . S
C552 C554 1.394 . S
C552 H568 0.931 . S
C553 C552 1.391 . S
C553 C557 1.376 . S
C554 C552 1.394 . S
C554 C555 1.369 . S
C554 C558 1.531 . S
C555 C554 1.369 . S
C555 C556 1.410 . S
C555 C563 1.503 . S
C556 C555 1.410 . S
C556 C557 1.392 . S
C556 C559 1.511 . S
C557 C553 1.376 . S
C557 C556 1.392 . S
C557 H569 0.929 . S
C558 C554 1.531 . S
C558 H570 0.960 . S
C558 H571 0.962 . S
C558 H572 0.960 . S
C559 C556 1.511 . S
C559 H573 0.961 . S
C559 H574 0.961 . S
C559 H575 0.961 . S
C560 C561 1.370 . S
C560 C562 1.363 . S
C560 H576 0.931 . S
C561 C560 1.370 . S
C561 C565 1.408 . S
C562 C560 1.363 . S
C562 C563 1.370 . S
C562 C566 1.524 . S
C563 C555 1.503 . S
C563 C562 1.370 . S
C563 C564 1.403 . S
C564 C563 1.403 . S
C564 C565 1.404 . S
C564 C567 1.539 . S
C565 C561 1.408 . S
C565 C564 1.404 . S
C565 H577 0.930 . S
C566 C562 1.524 . S
C566 H578 0.956 . S
C566 H579 0.961 . S
C566 H580 0.961 . S
C567 C564 1.539 . S
C567 H581 0.958 . S
C567 H582 0.961 . S
C567 H583 0.960 . S
H568 C552 0.931 . S
H569 C557 0.929 . S
H570 C558 0.960 . S
H571 C558 0.962 . S
H572 C558 0.960 . S
H573 C559 0.961 . S
H574 C559 0.961 . S
H575 C559 0.961 . S
H576 C560 0.931 . S
H577 C565 0.930 . S
H578 C566 0.956 . S
H579 C566 0.961 . S
H580 C566 0.961 . S
H581 C567 0.958 . S
H582 C567 0.961 . S
H583 C567 0.960 . S
C584 C585 1.391 . S
C584 C586 1.394 . S
C584 H600 0.931 . S
C585 C584 1.391 . S
C585 C589 1.376 . S
C586 C584 1.394 . S
C586 C587 1.369 . S
C586 C590 1.531 . S
C587 C586 1.369 . S
C587 C588 1.410 . S
C587 C595 1.503 1_655 S
C588 C587 1.410 . S
C588 C589 1.392 . S
C588 C591 1.511 . S
C589 C585 1.376 . S
C589 C588 1.392 . S
C589 H601 0.929 . S
C590 C586 1.531 . S
C590 H602 0.960 1_655 S
C590 H603 0.962 . S
C590 H604 0.960 . S
C591 C588 1.511 . S
C591 H605 0.961 . S
C591 H606 0.991 . S
C591 H607 0.961 . S
C592 C593 1.370 . S
C592 C594 1.363 . S
C592 H608 0.931 . S
C593 C592 1.370 . S
C593 C597 1.408 . S
C594 C592 1.363 . S
C594 C595 1.370 . S
C594 C598 1.524 . S
C595 C587 1.503 1_455 S
C595 C594 1.370 . S
C595 C596 1.403 . S
C596 C595 1.403 . S
C596 C597 1.404 . S
C596 C599 1.539 . S
C597 C593 1.408 . S
C597 C596 1.404 . S
C597 H609 0.930 . S
C598 C594 1.524 . S
C598 H610 0.956 . S
C598 H611 0.953 1_455 S
C598 H612 0.961 . S
C599 C596 1.539 . S
C599 H613 0.958 . S
C599 H614 0.961 . S
C599 H615 0.960 1_455 S
H600 C584 0.931 . S
H601 C589 0.929 . S
H602 C590 0.960 1_455 S
H603 C590 0.962 . S
H604 C590 0.960 . S
H605 C591 0.961 . S
H606 C591 0.991 . S
H607 C591 0.961 . S
H608 C592 0.931 . S
H609 C597 0.930 . S
H610 C598 0.956 . S
H611 C598 0.953 1_655 S
H612 C598 0.961 . S
H613 C599 0.958 . S
H614 C599 0.961 . S
H615 C599 0.960 1_655 S
C616 C617 1.391 . S
C616 C618 1.394 . S
C616 H632 0.931 . S
C617 C616 1.391 . S
C617 C621 1.376 . S
C618 C616 1.394 . S
C618 C619 1.369 . S
C618 C622 1.531 . S
C619 C618 1.369 . S
C619 C620 1.410 . S
C619 C627 1.503 1_545 S
C620 C619 1.410 . S
C620 C621 1.392 . S
C620 C623 1.511 . S
C621 C617 1.376 . S
C621 C620 1.392 . S
C621 H633 0.929 . S
C622 C618 1.531 . S
C622 H634 0.960 1_545 S
C622 H635 0.962 . S
C622 H636 0.960 . S
C623 C620 1.511 . S
C623 H637 0.961 . S
C623 H638 0.927 1_545 S
C623 H639 0.961 . S
C624 C625 1.370 . S
C624 C626 1.363 . S
C624 H640 0.931 . S
C625 C624 1.370 . S
C625 C629 1.408 . S
C626 C624 1.363 . S
C626 C627 1.370 . S
C626 C630 1.524 . S
C627 C619 1.503 1_565 S
C627 C626 1.370 . S
C627 C628 1.403 . S
C628 C627 1.403 . S
C628 C629 1.404 . S
C628 C631 1.539 . S
C629 C625 1.408 . S
C629 C628 1.404 . S
C629 H641 0.930 . S
C630 C626 1.524 . S
C630 H642 0.956 . S
C630 H643 0.961 . S
C630 H644 0.961 . S
C631 C628 1.539 . S
C631 H645 0.958 . S
C631 H646 0.961 . S
C631 H647 0.960 1_565 S
H632 C616 0.931 . S
H633 C621 0.929 . S
H634 C622 0.960 1_565 S
H635 C622 0.962 . S
H636 C622 0.960 . S
H637 C623 0.961 . S
H638 C623 0.927 1_565 S
H639 C623 0.961 . S
H640 C624 0.931 . S
H641 C629 0.930 . S
H642 C630 0.956 . S
H643 C630 0.961 . S
H644 C630 0.961 . S
H645 C631 0.958 . S
H646 C631 0.961 . S
H647 C631 0.960 1_545 S
C648 C649 1.391 . S
C648 C650 1.394 . S
C648 H664 0.931 . S
C649 C648 1.391 . S
C649 C653 1.376 . S
C650 C648 1.394 . S
C650 C651 1.369 . S
C650 C654 1.531 . S
C651 C650 1.369 . S
C651 C652 1.410 . S
C651 C659 1.503 . S
C652 C651 1.410 . S
C652 C653 1.392 . S
C652 C655 1.511 . S
C653 C649 1.376 . S
C653 C652 1.392 . S
C653 H665 0.929 . S
C654 C650 1.531 . S
C654 H666 0.960 . S
C654 H667 0.962 . S
C654 H668 0.960 . S
C655 C652 1.511 . S
C655 H669 0.961 . S
C655 H670 0.961 . S
C655 H671 0.961 . S
C656 C657 1.370 . S
C656 C658 1.363 . S
C656 H672 0.931 . S
C657 C656 1.370 . S
C657 C661 1.408 . S
C658 C656 1.363 . S
C658 C659 1.370 . S
C658 C662 1.524 . S
C659 C651 1.503 . S
C659 C658 1.370 . S
C659 C660 1.403 . S
C660 C659 1.403 . S
C660 C661 1.404 . S
C660 C663 1.539 . S
C661 C657 1.408 . S
C661 C660 1.404 . S
C661 H673 0.930 . S
C662 C658 1.524 . S
C662 H674 0.956 . S
C662 H675 0.961 . S
C662 H676 0.961 . S
C663 C660 1.539 . S
C663 H677 0.958 . S
C663 H678 0.961 . S
C663 H679 0.960 . S
H664 C648 0.931 . S
H665 C653 0.929 . S
H666 C654 0.960 . S
H667 C654 0.962 . S
H668 C654 0.960 . S
H669 C655 0.961 . S
H670 C655 0.961 . S
H671 C655 0.961 . S
H672 C656 0.931 . S
H673 C661 0.930 . S
H674 C662 0.956 . S
H675 C662 0.961 . S
H676 C662 0.961 . S
H677 C663 0.958 . S
H678 C663 0.961 . S
H679 C663 0.960 . S
C680 C681 1.391 . S
C680 C682 1.394 . S
C680 H696 0.931 . S
C681 C680 1.391 . S
C681 C685 1.376 . S
C682 C680 1.394 . S
C682 C683 1.369 . S
C682 C686 1.531 . S
C683 C682 1.369 . S
C683 C684 1.410 . S
C683 C691 1.503 1_455 S
C684 C683 1.410 . S
C684 C685 1.392 . S
C684 C687 1.511 . S
C685 C681 1.376 . S
C685 C684 1.392 . S
C685 H697 0.929 . S
C686 C682 1.531 . S
C686 H698 0.991 . S
C686 H699 0.962 . S
C686 H700 0.960 . S
C687 C684 1.511 . S
C687 H701 0.961 . S
C687 H702 0.961 1_455 S
C687 H703 0.961 . S
C688 C689 1.370 . S
C688 C690 1.363 . S
C688 H704 0.931 . S
C689 C688 1.370 . S
C689 C693 1.408 . S
C690 C688 1.363 . S
C690 C691 1.370 . S
C690 C694 1.524 . S
C691 C683 1.503 1_655 S
C691 C690 1.370 . S
C691 C692 1.403 . S
C692 C691 1.403 . S
C692 C693 1.404 . S
C692 C695 1.539 . S
C693 C689 1.408 . S
C693 C692 1.404 . S
C693 H705 0.930 . S
C694 C690 1.524 . S
C694 H706 0.956 1_655 S
C694 H707 0.961 1_655 S
C694 H708 0.961 . S
C695 C692 1.539 . S
C695 H709 0.958 1_556 S
C695 H710 0.961 1_556 S
C695 H711 0.960 . S
H696 C680 0.931 . S
H697 C685 0.929 . S
H698 C686 0.991 . S
H699 C686 0.962 . S
H700 C686 0.960 . S
H701 C687 0.961 . S
H702 C687 0.961 1_655 S
H703 C687 0.961 . S
H704 C688 0.931 . S
H705 C693 0.930 . S
H706 C694 0.956 1_455 S
H707 C694 0.961 1_455 S
H708 C694 0.961 . S
H709 C695 0.958 1_554 S
H710 C695 0.961 1_554 S
H711 C695 0.960 . S
C712 C713 1.391 . S
C712 C714 1.394 . S
C712 H728 0.931 . S
C713 C712 1.391 . S
C713 C717 1.376 . S
C714 C712 1.394 . S
C714 C715 1.369 . S
C714 C718 1.531 . S
C715 C714 1.369 . S
C715 C716 1.410 . S
C715 C723 1.503 1_565 S
C716 C715 1.410 . S
C716 C717 1.392 . S
C716 C719 1.511 . S
C717 C713 1.376 . S
C717 C716 1.392 . S
C717 H729 0.929 . S
C718 C714 1.531 . S
C718 H730 0.960 1_565 S
C718 H731 0.962 . S
C718 H732 0.960 . S
C719 C716 1.511 . S
C719 H733 0.961 . S
C719 H734 0.961 . S
C719 H735 0.961 . S
C720 C721 1.370 . S
C720 C722 1.363 . S
C720 H736 0.931 . S
C721 C720 1.370 . S
C721 C725 1.408 . S
C722 C720 1.363 . S
C722 C723 1.370 . S
C722 C726 1.524 . S
C723 C715 1.503 1_545 S
C723 C722 1.370 . S
C723 C724 1.403 . S
C724 C723 1.403 . S
C724 C725 1.404 . S
C724 C727 1.539 . S
C725 C721 1.408 . S
C725 C724 1.404 . S
C725 H737 0.930 . S
C726 C722 1.524 . S
C726 H738 0.956 . S
C726 H739 0.961 1_545 S
C726 H740 0.961 . S
C727 C724 1.539 . S
C727 H741 0.958 . S
C727 H742 0.961 . S
C727 H743 0.960 1_545 S
H728 C712 0.931 . S
H729 C717 0.929 . S
H730 C718 0.960 1_545 S
H731 C718 0.962 . S
H732 C718 0.960 . S
H733 C719 0.961 . S
H734 C719 0.961 . S
H735 C719 0.961 . S
H736 C720 0.931 . S
H737 C725 0.930 . S
H738 C726 0.956 . S
H739 C726 0.961 1_565 S
H740 C726 0.961 . S
H741 C727 0.958 . S
H742 C727 0.961 . S
H743 C727 0.960 1_565 S
C744 C745 1.391 . S
C744 C746 1.394 . S
C744 H760 0.931 . S
C745 C744 1.391 . S
C745 C749 1.376 . S
C746 C744 1.394 . S
C746 C747 1.369 . S
C746 C750 1.531 . S
C747 C746 1.369 . S
C747 C748 1.410 . S
C747 C755 1.503 . S
C748 C747 1.410 . S
C748 C749 1.392 . S
C748 C751 1.511 . S
C749 C745 1.376 . S
C749 C748 1.392 . S
C749 H761 0.929 . S
C750 C746 1.531 . S
C750 H762 0.960 . S
C750 H763 0.962 . S
C750 H764 0.960 . S
C751 C748 1.511 . S
C751 H765 0.961 . S
C751 H766 0.961 . S
C751 H767 0.961 . S
C752 C753 1.370 . S
C752 C754 1.363 . S
C752 H768 0.931 . S
C753 C752 1.370 . S
C753 C757 1.408 . S
C754 C752 1.363 . S
C754 C755 1.370 . S
C754 C758 1.524 . S
C755 C747 1.503 . S
C755 C754 1.370 . S
C755 C756 1.403 . S
C756 C755 1.403 . S
C756 C757 1.404 . S
C756 C759 1.539 . S
C757 C753 1.408 . S
C757 C756 1.404 . S
C757 H769 0.930 . S
C758 C754 1.524 . S
C758 H770 0.956 . S
C758 H771 0.961 . S
C758 H772 0.961 . S
C759 C756 1.539 . S
C759 H773 0.958 . S
C759 H774 0.961 . S
C759 H775 0.960 . S
H760 C744 0.931 . S
H761 C749 0.929 . S
H762 C750 0.960 . S
H763 C750 0.962 . S
H764 C750 0.960 . S
H765 C751 0.961 . S
H766 C751 0.961 . S
H767 C751 0.961 . S
H768 C752 0.931 . S
H769 C757 0.930 . S
H770 C758 0.956 . S
H771 C758 0.961 . S
H772 C758 0.961 . S
H773 C759 0.958 . S
H774 C759 0.961 . S
H775 C759 0.960 . S
C776 C777 1.391 . S
C776 C778 1.394 . S
C776 H792 0.931 . S
C777 C776 1.391 . S
C777 C781 1.376 . S
C778 C776 1.394 . S
C778 C779 1.369 . S
C778 C782 1.531 . S
C779 C778 1.369 . S
C779 C780 1.410 . S
C779 C787 1.503 . S
C780 C779 1.410 . S
C780 C781 1.392 . S
C780 C783 1.511 . S
C781 C777 1.376 . S
C781 C780 1.392 . S
C781 H793 0.929 . S
C782 C778 1.531 . S
C782 H794 0.960 . S
C782 H795 0.962 . S
C782 H796 0.960 . S
C783 C780 1.511 . S
C783 H797 0.961 . S
C783 H798 0.961 . S
C783 H799 0.961 . S
C784 C785 1.370 . S
C784 C786 1.363 . S
C784 H800 0.931 . S
C785 C784 1.370 . S
C785 C789 1.408 . S
C786 C784 1.363 . S
C786 C787 1.370 . S
C786 C790 1.524 . S
C787 C779 1.503 . S
C787 C786 1.370 . S
C787 C788 1.403 . S
C788 C787 1.403 . S
C788 C789 1.404 . S
C788 C791 1.539 . S
C789 C785 1.408 . S
C789 C788 1.404 . S
C789 H801 0.930 . S
C790 C786 1.524 . S
C790 H802 0.956 . S
C790 H803 0.961 . S
C790 H804 0.961 . S
C791 C788 1.539 . S
C791 H805 0.958 . S
C791 H806 0.961 . S
C791 H807 0.960 . S
H792 C776 0.931 . S
H793 C781 0.929 . S
H794 C782 0.960 . S
H795 C782 0.962 . S
H796 C782 0.960 . S
H797 C783 0.961 . S
H798 C783 0.961 . S
H799 C783 0.961 . S
H800 C784 0.931 . S
H801 C789 0.930 . S
H802 C790 0.956 . S
H803 C790 0.961 . S
H804 C790 0.961 . S
H805 C791 0.958 . S
H806 C791 0.961 . S
H807 C791 0.960 . S
C808 C809 1.391 . S
C808 C810 1.394 . S
C808 H824 0.931 . S
C809 C808 1.391 . S
C809 C813 1.376 . S
C810 C808 1.394 . S
C810 C811 1.369 . S
C810 C814 1.531 . S
C811 C810 1.369 . S
C811 C812 1.410 . S
C811 C819 1.503 . S
C812 C811 1.410 . S
C812 C813 1.392 . S
C812 C815 1.511 . S
C813 C809 1.376 . S
C813 C812 1.392 . S
C813 H825 0.929 . S
C814 C810 1.531 . S
C814 H826 0.960 . S
C814 H827 0.962 . S
C814 H828 0.960 . S
C815 C812 1.511 . S
C815 H829 0.961 . S
C815 H830 0.961 . S
C815 H831 0.961 . S
C816 C817 1.370 . S
C816 C818 1.363 . S
C816 H832 0.931 . S
C817 C816 1.370 . S
C817 C821 1.408 . S
C818 C816 1.363 . S
C818 C819 1.370 . S
C818 C822 1.524 . S
C819 C811 1.503 . S
C819 C818 1.370 . S
C819 C820 1.403 . S
C820 C819 1.403 . S
C820 C821 1.404 . S
C820 C823 1.539 . S
C821 C817 1.408 . S
C821 C820 1.404 . S
C821 H833 0.930 . S
C822 C818 1.524 . S
C822 H834 0.956 . S
C822 H835 0.961 . S
C822 H836 0.961 . S
C823 C820 1.539 . S
C823 H837 0.958 . S
C823 H838 0.961 . S
C823 H839 0.960 . S
H824 C808 0.931 . S
H825 C813 0.929 . S
H826 C814 0.960 . S
H827 C814 0.962 . S
H828 C814 0.960 . S
H829 C815 0.961 . S
H830 C815 0.961 . S
H831 C815 0.961 . S
H832 C816 0.931 . S
H833 C821 0.930 . S
H834 C822 0.956 . S
H835 C822 0.961 . S
H836 C822 0.961 . S
H837 C823 0.958 . S
H838 C823 0.961 . S
H839 C823 0.960 . S
C840 C841 1.391 . S
C840 C842 1.394 . S
C840 H856 0.931 . S
C841 C840 1.391 . S
C841 C845 1.376 . S
C842 C840 1.394 . S
C842 C843 1.369 . S
C842 C846 1.531 . S
C843 C842 1.369 . S
C843 C844 1.410 . S
C843 C851 1.503 . S
C844 C843 1.410 . S
C844 C845 1.392 . S
C844 C847 1.511 . S
C845 C841 1.376 . S
C845 C844 1.392 . S
C845 H857 0.929 . S
C846 C842 1.531 . S
C846 H858 0.960 . S
C846 H859 0.962 . S
C846 H860 0.960 . S
C847 C844 1.511 . S
C847 H861 0.961 . S
C847 H862 0.961 . S
C847 H863 0.961 . S
C848 C849 1.370 . S
C848 C850 1.363 . S
C848 H864 0.931 . S
C849 C848 1.370 . S
C849 C853 1.408 . S
C850 C848 1.363 . S
C850 C851 1.370 . S
C850 C854 1.524 . S
C851 C843 1.503 . S
C851 C850 1.370 . S
C851 C852 1.403 . S
C852 C851 1.403 . S
C852 C853 1.404 . S
C852 C855 1.539 . S
C853 C849 1.408 . S
C853 C852 1.404 . S
C853 H865 0.930 . S
C854 C850 1.524 . S
C854 H866 0.956 . S
C854 H867 0.961 . S
C854 H868 0.961 . S
C855 C852 1.539 . S
C855 H869 0.958 . S
C855 H870 0.961 . S
C855 H871 0.960 . S
H856 C840 0.931 . S
H857 C845 0.929 . S
H858 C846 0.960 . S
H859 C846 0.962 . S
H860 C846 0.960 . S
H861 C847 0.961 . S
H862 C847 0.961 . S
H863 C847 0.961 . S
H864 C848 0.931 . S
H865 C853 0.930 . S
H866 C854 0.956 . S
H867 C854 0.961 . S
H868 C854 0.961 . S
H869 C855 0.958 . S
H870 C855 0.961 . S
H871 C855 0.960 . S
C872 C873 1.391 . S
C872 C874 1.394 . S
C872 H888 0.931 . S
C873 C872 1.391 . S
C873 C877 1.376 . S
C874 C872 1.394 . S
C874 C875 1.369 . S
C874 C878 1.531 . S
C875 C874 1.369 . S
C875 C876 1.410 . S
C875 C883 1.503 . S
C876 C875 1.410 . S
C876 C877 1.392 . S
C876 C879 1.511 . S
C877 C873 1.376 . S
C877 C876 1.392 . S
C877 H889 0.929 . S
C878 C874 1.531 . S
C878 H890 0.960 . S
C878 H891 0.962 . S
C878 H892 0.960 . S
C879 C876 1.511 . S
C879 H893 0.961 . S
C879 H894 0.961 . S
C879 H895 0.961 . S
C880 C881 1.370 . S
C880 C882 1.363 . S
C880 H896 0.931 . S
C881 C880 1.370 . S
C881 C885 1.408 . S
C882 C880 1.363 . S
C882 C883 1.370 . S
C882 C886 1.524 . S
C883 C875 1.503 . S
C883 C882 1.370 . S
C883 C884 1.403 . S
C884 C883 1.403 . S
C884 C885 1.404 . S
C884 C887 1.539 . S
C885 C881 1.408 . S
C885 C884 1.404 . S
C885 H897 0.930 . S
C886 C882 1.524 . S
C886 H898 0.956 . S
C886 H899 0.961 . S
C886 H900 0.961 . S
C887 C884 1.539 . S
C887 H901 0.958 . S
C887 H902 0.961 . S
C887 H903 0.960 . S
H888 C872 0.931 . S
H889 C877 0.929 . S
H890 C878 0.960 . S
H891 C878 0.962 . S
H892 C878 0.960 . S
H893 C879 0.961 . S
H894 C879 0.961 . S
H895 C879 0.961 . S
H896 C880 0.931 . S
H897 C885 0.930 . S
H898 C886 0.956 . S
H899 C886 0.961 . S
H900 C886 0.961 . S
H901 C887 0.958 . S
H902 C887 0.961 . S
H903 C887 0.960 . S
C904 C905 1.391 . S
C904 C906 1.394 . S
C904 H920 0.931 . S
C905 C904 1.391 . S
C905 C909 1.376 . S
C906 C904 1.394 . S
C906 C907 1.369 . S
C906 C910 1.531 . S
C907 C906 1.369 . S
C907 C908 1.410 . S
C907 C915 1.503 . S
C908 C907 1.410 . S
C908 C909 1.392 . S
C908 C911 1.511 . S
C909 C905 1.376 . S
C909 C908 1.392 . S
C909 H921 0.929 . S
C910 C906 1.531 . S
C910 H922 0.960 . S
C910 H923 0.962 . S
C910 H924 0.960 . S
C911 C908 1.511 . S
C911 H925 0.961 . S
C911 H926 0.961 . S
C911 H927 0.961 . S
C912 C913 1.370 . S
C912 C914 1.363 . S
C912 H928 0.931 . S
C913 C912 1.370 . S
C913 C917 1.408 . S
C914 C912 1.363 . S
C914 C915 1.370 . S
C914 C918 1.524 . S
C915 C907 1.503 . S
C915 C914 1.370 . S
C915 C916 1.403 . S
C916 C915 1.403 . S
C916 C917 1.404 . S
C916 C919 1.539 . S
C917 C913 1.408 . S
C917 C916 1.404 . S
C917 H929 0.930 . S
C918 C914 1.524 . S
C918 H930 0.956 . S
C918 H931 0.961 . S
C918 H932 0.961 . S
C919 C916 1.539 . S
C919 H933 0.958 . S
C919 H934 0.961 . S
C919 H935 0.960 . S
H920 C904 0.931 . S
H921 C909 0.929 . S
H922 C910 0.960 . S
H923 C910 0.962 . S
H924 C910 0.960 . S
H925 C911 0.961 . S
H926 C911 0.961 . S
H927 C911 0.961 . S
H928 C912 0.931 . S
H929 C917 0.930 . S
H930 C918 0.956 . S
H931 C918 0.961 . S
H932 C918 0.961 . S
H933 C919 0.958 . S
H934 C919 0.961 . S
H935 C919 0.960 . S
C169 C12 1.677 . S
C177 C85 1.682 . S
C201 C15 1.674 . S
C209 C98 1.687 . S
C233 C28 1.678 . S
C241 C125 1.687 . S
C265 C43 1.673 . S
C273 C138 1.684 . S
C297 C56 1.677 . S
C305 C140 1.688 . S
C329 C155 1.681 . S
C337 C70 1.682 . S
C361 C0 1.796 . S
C369 C152 1.793 . S
C393 C27 1.779 . S
C401 C167 1.795 . S
C425 C40 1.803 . S
C433 C97 1.795 . S
C457 C55 1.778 . S
C465 C110 1.794 . S
C489 C68 1.780 . S
C497 C113 1.794 . S
C521 C82 1.793 . S
C529 C126 1.793 . S
C553 C1 1.773 . S
C561 C54 1.792 . S
C585 C26 1.780 . S
C593 C69 1.790 . S
C617 C83 1.767 . S
C625 C41 1.790 . S
C649 C96 1.772 . S
C657 C127 1.775 . S
C681 C153 1.776 . S
C689 C111 1.773 . S
C713 C112 1.786 . S
C721 C166 1.791 . S
C745 C84 1.101 . S
C753 C13 1.091 . S
C777 C14 1.098 . S
C785 C99 1.094 . S
C809 C29 1.090 . S
C817 C124 1.087 . S
C841 C139 1.096 . S
C849 C42 1.095 . S
C873 C141 1.077 . S
C881 C57 1.095 . S
C905 C71 1.095 . S
C913 C154 1.087 . S
