# Generated by pormake.
# Topology crb, (4)-cn, num edge types: 1
# Building blocks:
#     Node 0, Type 0, BuildingBlock: NAHDIM_clean_sbu_0, # of connection points: 4
#     Node 1, Type 0, BuildingBlock: NAHDIM_clean_sbu_0, # of connection points: 4
#     Node 2, Type 0, BuildingBlock: NAHDIM_clean_sbu_0, # of connection points: 4
#     Node 3, Type 0, BuildingBlock: NAHDIM_clean_sbu_0, # of connection points: 4
#     Node 4, Type 0, BuildingBlock: NAHDIM_clean_sbu_0, # of connection points: 4
#     Node 5, Type 0, BuildingBlock: NAHDIM_clean_sbu_0, # of connection points: 4
#     Node 6, Type 0, BuildingBlock: NAHDIM_clean_sbu_0, # of connection points: 4
#     Node 7, Type 0, BuildingBlock: NAHDIM_clean_sbu_0, # of connection points: 4
#     Edge 8, Type (0, 0), BuildingBlock: MIFKUJ_clean_linker_0, # of connection points: 2
#     Edge 9, Type (0, 0), BuildingBlock: MIFKUJ_clean_linker_0, # of connection points: 2
#     Edge 10, Type (0, 0), BuildingBlock: MIFKUJ_clean_linker_0, # of connection points: 2
#     Edge 11, Type (0, 0), BuildingBlock: MIFKUJ_clean_linker_0, # of connection points: 2
#     Edge 12, Type (0, 0), BuildingBlock: MIFKUJ_clean_linker_0, # of connection points: 2
#     Edge 13, Type (0, 0), BuildingBlock: MIFKUJ_clean_linker_0, # of connection points: 2
#     Edge 14, Type (0, 0), BuildingBlock: MIFKUJ_clean_linker_0, # of connection points: 2
#     Edge 15, Type (0, 0), BuildingBlock: MIFKUJ_clean_linker_0, # of connection points: 2
#     Edge 16, Type (0, 0), BuildingBlock: MIFKUJ_clean_linker_0, # of connection points: 2
#     Edge 17, Type (0, 0), BuildingBlock: MIFKUJ_clean_linker_0, # of connection points: 2
#     Edge 18, Type (0, 0), BuildingBlock: MIFKUJ_clean_linker_0, # of connection points: 2
#     Edge 19, Type (0, 0), BuildingBlock: MIFKUJ_clean_linker_0, # of connection points: 2
#     Edge 20, Type (0, 0), BuildingBlock: MIFKUJ_clean_linker_0, # of connection points: 2
#     Edge 21, Type (0, 0), BuildingBlock: MIFKUJ_clean_linker_0, # of connection points: 2
#     Edge 22, Type (0, 0), BuildingBlock: MIFKUJ_clean_linker_0, # of connection points: 2
#     Edge 23, Type (0, 0), BuildingBlock: MIFKUJ_clean_linker_0, # of connection points: 2
# Relax obj value: 0.033
# Max RMSD: 0.065
# Mean RMSD: 0.065
data_MOF--net-crb--node1-NAHDIM_clean_sbu_0--edge1-MIFKUJ_clean_linker_0
_symmetry_space_group_name_H-M    P1
_symmetry_Int_Tables_number       1
_symmetry_cell_setting            triclinic
loop_
_symmetry_equiv_pos_as_xyz
'x, y, z'
_cell_length_a     54.408967
_cell_length_b     56.765655
_cell_length_c     31.820635
_cell_angle_alpha  90.019014
_cell_angle_beta   89.992847
_cell_angle_gamma 90.051537
loop_
_atom_site_label
_atom_site_type_symbol
_atom_site_fract_x
_atom_site_fract_y
_atom_site_fract_z
_atom_type_partial_charge
C0 C 0.3151 0.31109 0.14257 0.0
O1 O 0.33851 0.31627 0.14678 0.0
O2 O 0.35763 0.32259 0.06063 0.0
Zn3 Zn 0.32137 0.32945 0.05809 0.0
O4 O 0.30569 0.31551 0.00682 0.0
C5 C 0.32923 0.37719 0.08253 0.0
O6 O 0.34483 0.36702 0.10827 0.0
O7 O 0.30435 0.31548 0.10803 0.0
C8 C 0.31403 0.31725 0.96968 0.0
O9 O 0.33458 0.32884 0.96301 0.0
C10 C 0.36831 0.30533 0.04298 0.0
O11 O 0.35536 0.29019 0.02096 0.0
O12 O 0.31661 0.36447 0.05775 0.0
C13 C 0.68843 0.2877 0.95745 0.0
O14 O 0.67541 0.27533 0.98434 0.0
O15 O 0.64236 0.31391 0.02052 0.0
Zn16 Zn 0.67798 0.32351 0.01728 0.0
O17 O 0.69642 0.31056 0.06734 0.0
C18 C 0.66595 0.37207 0.03552 0.0
O19 O 0.64974 0.36221 0.06054 0.0
O20 O 0.6923 0.30938 0.9649 0.0
C21 C 0.70109 0.32241 0.10029 0.0
O22 O 0.69418 0.34453 0.10241 0.0
C23 C 0.63133 0.31063 0.05524 0.0
O24 O 0.64343 0.31329 0.09063 0.0
O25 O 0.68023 0.35907 0.01399 0.0
C26 C 0.68417 0.68584 0.14935 0.0
O27 O 0.66191 0.67716 0.15353 0.0
O28 O 0.6423 0.68083 0.06316 0.0
Zn29 Zn 0.67797 0.67186 0.06252 0.0
O30 O 0.69394 0.68627 0.01176 0.0
C31 C 0.68056 0.6249 0.02721 0.0
O32 O 0.68037 0.63638 0.99138 0.0
O33 O 0.69463 0.68497 0.11369 0.0
C34 C 0.71542 0.68075 -0.00031 0.0
O35 O 0.72779 0.66469 0.02057 0.0
C36 C 0.63032 0.68159 0.02892 0.0
O37 O 0.64171 0.67684 0.9935 0.0
O38 O 0.68013 0.6364 0.06151 0.0
C39 C 0.3106 0.68823 0.9358 0.0
O40 O 0.33274 0.67959 0.93001 0.0
O41 O 0.35538 0.68355 0.01752 0.0
Zn42 Zn 0.31947 0.67551 0.02236 0.0
O43 O 0.30493 0.69015 0.07388 0.0
C44 C 0.32732 0.62969 0.05501 0.0
O45 O 0.34091 0.64194 0.08124 0.0
O46 O 0.30129 0.68795 0.97238 0.0
C47 C 0.28194 0.68846 0.07997 0.0
O48 O 0.26843 0.67697 0.05253 0.0
C49 C 0.36792 0.6909 0.04856 0.0
O50 O 0.35711 0.69392 0.08507 0.0
O51 O 0.31581 0.6404 0.02602 0.0
C52 C 0.81377 0.79219 0.6305 0.0
O53 O 0.82982 0.78103 0.60697 0.0
O54 O 0.8554 0.82001 0.56148 0.0
Zn55 Zn 0.81896 0.8263 0.56514 0.0
O56 O 0.80042 0.81145 0.51689 0.0
C57 C 0.82632 0.87439 0.54071 0.0
O58 O 0.84224 0.86445 0.51526 0.0
O59 O 0.80619 0.81236 0.61901 0.0
C60 C 0.80677 0.81335 0.4786 0.0
O61 O 0.8264 0.82569 0.46895 0.0
C62 C 0.86548 0.80377 0.54004 0.0
O63 O 0.85179 0.78927 0.51797 0.0
O64 O 0.81384 0.86153 0.56553 0.0
C65 C 0.17567 0.8052 0.4367 0.0
O66 O 0.15185 0.80848 0.43985 0.0
O67 O 0.14019 0.82349 0.52181 0.0
Zn68 Zn 0.17693 0.82709 0.51915 0.0
O69 O 0.19325 0.8113 0.56844 0.0
C70 C 0.1874 0.87403 0.5506 0.0
O71 O 0.18494 0.86394 0.58748 0.0
O72 O 0.18966 0.8119 0.46639 0.0
C73 C 0.1836 0.80964 0.6047 0.0
O74 O 0.16188 0.819 0.61152 0.0
C75 C 0.12949 0.80455 0.53275 0.0
O76 O 0.14269 0.78623 0.54397 0.0
O77 O 0.18509 0.86167 0.51752 0.0
C78 C 0.1866 0.19271 0.64213 0.0
O79 O 0.16358 0.18628 0.64703 0.0
O80 O 0.1445 0.17859 0.56078 0.0
Zn81 Zn 0.18101 0.17315 0.55824 0.0
O82 O 0.19586 0.18768 0.5065 0.0
C83 C 0.18993 0.12613 0.52652 0.0
O84 O 0.18868 0.13672 0.48991 0.0
O85 O 0.19737 0.18855 0.60751 0.0
C86 C 0.18534 0.18995 0.47108 0.0
O87 O 0.16287 0.18195 0.46597 0.0
C88 C 0.13416 0.19762 0.54944 0.0
O89 O 0.14759 0.21506 0.53499 0.0
O90 O 0.18745 0.13821 0.55989 0.0
C91 C 0.80107 0.21023 0.46758 0.0
O92 O 0.80343 0.22259 0.50227 0.0
O93 O 0.8591 0.18382 0.52077 0.0
Zn94 Zn 0.82328 0.17509 0.51937 0.0
O95 O 0.80655 0.18879 0.57021 0.0
C96 C 0.81881 0.1274 0.55183 0.0
O97 O 0.81885 0.1381 0.58843 0.0
O98 O 0.80824 0.18892 0.46718 0.0
C99 C 0.78536 0.18222 0.58223 0.0
O100 O 0.77378 0.16564 0.56127 0.0
C101 C 0.87203 0.17919 0.55298 0.0
O102 O 0.86162 0.16891 0.5854 0.0
O103 O 0.8203 0.13959 0.51839 0.0
H104 H 0.35521 0.40941 0.12835 0.0
H105 H 0.35255 0.45229 0.12463 0.0
H106 H 0.29556 0.44663 0.03089 0.0
H107 H 0.29838 0.40368 0.03389 0.0
H108 H 0.32965 0.47828 0.00838 0.0
H109 H 0.28194 0.46233 0.1319 0.0
H110 H 0.27359 0.44523 0.2017 0.0
H111 H 0.33417 0.48397 0.25382 0.0
H112 H 0.34309 0.50107 0.18419 0.0
H113 H 0.29783 0.59945 0.01087 0.0
H114 H 0.29602 0.55655 0.01672 0.0
H115 H 0.35194 0.55843 0.11281 0.0
H116 H 0.35345 0.60133 0.10786 0.0
H117 H 0.31643 0.52859 0.13388 0.0
H118 H 0.36542 0.54306 0.01061 0.0
H119 H 0.37451 0.55997 0.94093 0.0
H120 H 0.31232 0.52378 0.88853 0.0
H121 H 0.30266 0.50689 0.95806 0.0
C122 C 0.34201 0.41726 0.10709 0.0
C123 C 0.32699 0.40313 0.08143 0.0
C124 C 0.34044 0.44179 0.10514 0.0
C125 C 0.32367 0.45264 0.07781 0.0
C126 C 0.3086 0.43859 0.05224 0.0
C127 C 0.3102 0.41406 0.05408 0.0
C128 C 0.32242 0.47866 0.07494 0.0
C129 C 0.32636 0.48928 0.03569 0.0
C130 C 0.31871 0.49299 0.11078 0.0
C131 C 0.31331 0.48283 0.15274 0.0
C132 C 0.29359 0.46707 0.15818 0.0
C133 C 0.28874 0.45741 0.19773 0.0
C134 C 0.30338 0.46347 0.23215 0.0
C135 C 0.32286 0.47927 0.22712 0.0
C136 C 0.32781 0.48898 0.18763 0.0
C137 C 0.30972 0.59074 0.03328 0.0
C138 C 0.32587 0.60378 0.05877 0.0
C139 C 0.30872 0.56621 0.03649 0.0
C140 C 0.32408 0.55427 0.06481 0.0
C141 C 0.33993 0.56729 0.09072 0.0
C142 C 0.34082 0.59181 0.08775 0.0
C143 C 0.32379 0.5282 0.06735 0.0
C144 C 0.31958 0.51758 0.10653 0.0
C145 C 0.32734 0.51385 0.03148 0.0
C146 C 0.33317 0.52391 0.98962 0.0
C147 C 0.35357 0.53885 0.9843 0.0
C148 C 0.35885 0.5484 0.94482 0.0
C149 C 0.34396 0.543 0.91035 0.0
C150 C 0.32381 0.52798 0.91527 0.0
C151 C 0.31844 0.51839 0.95469 0.0
H152 H 0.34808 0.55041 0.87981 0.0
H153 H 0.29959 0.45597 0.26274 0.0
H154 H 0.39895 0.27929 0.99315 0.0
H155 H 0.44382 0.27748 0.9964 0.0
H156 H 0.44327 0.32367 0.10422 0.0
H157 H 0.39857 0.32627 0.10005 0.0
H158 H 0.47655 0.3378 0.05333 0.0
H159 H 0.45538 0.26258 0.11077 0.0
H160 H 0.43523 0.22368 0.1133 0.0
H161 H 0.47342 0.20278 0.00125 0.0
H162 H 0.49356 0.24169 0.99773 0.0
H163 H 0.59938 0.31788 0.11995 0.0
H164 H 0.55458 0.31391 0.1185 0.0
H165 H 0.55812 0.28904 0.99061 0.0
H166 H 0.60297 0.29343 0.99142 0.0
H167 H 0.5242 0.26329 0.05116 0.0
H168 H 0.54455 0.34041 0.99543 0.0
H169 H 0.56578 0.37879 0.99798 0.0
H170 H 0.52918 0.39538 0.11381 0.0
H171 H 0.50804 0.35689 0.11229 0.0
C172 C 0.40841 0.28891 0.01771 0.0
C173 C 0.39527 0.30295 0.04629 0.0
C174 C 0.43406 0.28778 0.01968 0.0
C175 C 0.44697 0.30024 0.05086 0.0
C176 C 0.43377 0.31395 0.07981 0.0
C177 C 0.4082 0.31539 0.07744 0.0
C178 C 0.47426 0.29983 0.05238 0.0
C179 C 0.48686 0.32144 0.05343 0.0
C180 C 0.48787 0.27855 0.05175 0.0
C181 C 0.47579 0.25514 0.05375 0.0
C182 C 0.45933 0.24976 0.08647 0.0
C183 C 0.44794 0.22769 0.08812 0.0
C184 C 0.45299 0.21079 0.05739 0.0
C185 C 0.4695 0.2159 0.025 0.0
C186 C 0.48092 0.23795 0.02318 0.0
C187 C 0.59067 0.31129 0.09169 0.0
C188 C 0.60462 0.3061 0.0557 0.0
C189 C 0.56512 0.30906 0.09093 0.0
C190 C 0.55319 0.30125 0.05442 0.0
C191 C 0.56711 0.29504 0.01906 0.0
C192 C 0.59264 0.29768 0.01952 0.0
C193 C 0.52609 0.30113 0.05236 0.0
C194 C 0.51367 0.27951 0.05112 0.0
C195 C 0.51258 0.32235 0.05341 0.0
C196 C 0.52493 0.34567 0.05398 0.0
C197 C 0.54119 0.35215 0.02163 0.0
C198 C 0.55318 0.37394 0.02285 0.0
C199 C 0.54889 0.38947 0.05611 0.0
C200 C 0.53252 0.3833 0.08811 0.0
C201 C 0.52051 0.36151 0.08707 0.0
H202 H 0.55824 0.4063 0.05705 0.0
H203 H 0.44416 0.19372 0.05872 0.0
H204 H 0.6486 0.40396 0.09209 0.0
H205 H 0.65168 0.44679 0.08901 0.0
H206 H 0.68979 0.44173 0.97034 0.0
H207 H 0.68772 0.39871 0.9743 0.0
H208 H 0.71082 0.47351 0.015 0.0
H209 H 0.62725 0.458 0.97923 0.0
H210 H 0.5857 0.44115 0.98706 0.0
H211 H 0.57601 0.47904 0.10266 0.0
H212 H 0.61766 0.49581 0.09592 0.0
H213 H 0.69075 0.59504 0.96217 0.0
H214 H 0.68892 0.55192 0.96242 0.0
H215 H 0.66723 0.55284 0.09274 0.0
H216 H 0.6693 0.59592 0.09299 0.0
H217 H 0.63751 0.52369 0.03891 0.0
H218 H 0.72288 0.53817 0.07268 0.0
H219 H 0.76385 0.55551 0.06068 0.0
H220 H 0.76877 0.51991 0.94189 0.0
H221 H 0.72764 0.50262 0.95294 0.0
C222 C 0.65761 0.41197 0.0653 0.0
C223 C 0.66782 0.398 0.03332 0.0
C224 C 0.65923 0.43648 0.06344 0.0
C225 C 0.67051 0.44758 0.02899 0.0
C226 C 0.68093 0.43361 0.99718 0.0
C227 C 0.6797 0.40904 -0.00058 0.0
C228 C 0.67176 0.4737 0.02662 0.0
C229 C 0.69468 0.48442 0.01957 0.0
C230 C 0.65079 0.48806 0.03309 0.0
C231 C 0.62568 0.47802 0.03723 0.0
C232 C 0.61634 0.4626 0.00649 0.0
C233 C 0.59275 0.45308 0.01071 0.0
C234 C 0.57824 0.45901 0.04536 0.0
C235 C 0.58728 0.47446 0.07585 0.0
C236 C 0.61087 0.48399 0.07184 0.0
C237 C 0.68568 0.58606 0.99093 0.0
C238 C 0.6802 0.59886 0.02759 0.0
C239 C 0.68469 0.56146 0.99101 0.0
C240 C 0.67799 0.54928 0.02762 0.0
C241 C 0.67243 0.56198 0.0642 0.0
C242 C 0.67374 0.58656 0.06432 0.0
C243 C 0.6765 0.52326 0.02767 0.0
C244 C 0.65354 0.51264 0.03419 0.0
C245 C 0.69731 0.50901 0.02 0.0
C246 C 0.72208 0.5193 0.01344 0.0
C247 C 0.7326 0.53421 0.04384 0.0
C248 C 0.75587 0.54399 0.03724 0.0
C249 C 0.76888 0.53887 0.00049 0.0
C250 C 0.75866 0.52389 0.97032 0.0
C251 C 0.73538 0.51408 0.97674 0.0
H252 H 0.78689 0.54646 0.99544 0.0
H253 H 0.55996 0.45168 0.04852 0.0
H254 H 0.40109 0.70107 0.11052 0.0
H255 H 0.44573 0.7036 0.10409 0.0
H256 H 0.4401 0.69127 0.97062 0.0
H257 H 0.39546 0.68823 0.9769 0.0
H258 H 0.47348 0.66341 0.00426 0.0
H259 H 0.45569 0.74584 0.01051 0.0
H260 H 0.43747 0.78217 0.03932 0.0
H261 H 0.47823 0.773 0.15367 0.0
H262 H 0.49645 0.73642 0.12577 0.0
H263 H 0.5992 0.68312 0.9616 0.0
H264 H 0.55469 0.68875 0.96251 0.0
H265 H 0.55649 0.69657 0.09731 0.0
H266 H 0.60107 0.69121 0.09672 0.0
H267 H 0.52522 0.72829 0.0601 0.0
H268 H 0.5408 0.64477 0.05526 0.0
H269 H 0.559 0.60838 0.02662 0.0
H270 H 0.52199 0.61988 0.90924 0.0
H271 H 0.50383 0.65654 0.93702 0.0
C272 C 0.40931 0.69914 0.07971 0.0
C273 C 0.39474 0.69435 0.04424 0.0
C274 C 0.43485 0.70071 0.07606 0.0
C275 C 0.44625 0.69782 0.03681 0.0
C276 C 0.43168 0.69356 0.00121 0.0
C277 C 0.40617 0.69186 0.00486 0.0
C278 C 0.47342 0.69772 0.03332 0.0
C279 C 0.48475 0.67781 0.01577 0.0
C280 C 0.48815 0.71623 0.04931 0.0
C281 C 0.47727 0.73826 0.06617 0.0
C282 C 0.46062 0.75146 0.04193 0.0
C283 C 0.45032 0.77212 0.05807 0.0
C284 C 0.45664 0.77986 0.09834 0.0
C285 C 0.47333 0.76697 0.1225 0.0
C286 C 0.48367 0.74629 0.10652 0.0
C287 C 0.59018 0.68621 0.99143 0.0
C288 C 0.60364 0.6865 0.02914 0.0
C289 C 0.56474 0.68939 0.99188 0.0
C290 C 0.5523 0.69278 0.03003 0.0
C291 C 0.56577 0.69394 0.06756 0.0
C292 C 0.59122 0.69077 0.06715 0.0
C293 C 0.52513 0.69403 0.03104 0.0
C294 C 0.51385 0.71404 0.04826 0.0
C295 C 0.51039 0.67563 0.01474 0.0
C296 C 0.52117 0.65352 0.99807 0.0
C297 C 0.5367 0.63964 0.02324 0.0
C298 C 0.54698 0.61894 0.00718 0.0
C299 C 0.54171 0.61186 0.9661 0.0
C300 C 0.52609 0.62541 0.94103 0.0
C301 C 0.51578 0.64614 0.95692 0.0
H302 H 0.54969 0.59583 0.95372 0.0
H303 H 0.44865 0.79586 0.11078 0.0
H304 H 0.80704 0.90209 0.60281 0.0
H305 H 0.80428 0.94508 0.60389 0.0
H306 H 0.83556 0.94795 0.47928 0.0
H307 H 0.83942 0.90511 0.47895 0.0
H308 H 0.85609 0.97955 0.5238 0.0
H309 H 0.77204 0.95777 0.50138 0.0
H310 H 0.73301 0.93715 0.5156 0.0
H311 H 0.72822 0.97079 0.6362 0.0
H312 H 0.7674 0.99139 0.62293 0.0
H313 H 0.82585 0.09927 0.48304 0.0
H314 H 0.82543 0.05619 0.48044 0.0
H315 H 0.80866 0.05364 0.61282 0.0
H316 H 0.80911 0.09671 0.6158 0.0
H317 H 0.78019 0.02245 0.56376 0.0
H318 H 0.86532 0.04404 0.58362 0.0
H319 H 0.90355 0.0652 0.566 0.0
H320 H 0.90491 0.03199 0.44476 0.0
H321 H 0.86646 0.01087 0.46145 0.0
C322 C 0.81319 0.91191 0.57559 0.0
C323 C 0.82344 0.90026 0.5408 0.0
C324 C 0.81148 0.93649 0.57611 0.0
C325 C 0.81937 0.94982 0.5414 0.0
C326 C 0.82937 0.93811 0.50648 0.0
C327 C 0.83152 0.91361 0.50628 0.0
C328 C 0.81805 0.97599 0.54192 0.0
C329 C 0.83933 0.98886 0.5319 0.0
C330 C 0.79637 0.98828 0.55328 0.0
C331 C 0.77278 0.97595 0.56131 0.0
C332 C 0.76275 0.96064 0.53106 0.0
C333 C 0.74059 0.94898 0.53893 0.0
C334 C 0.72817 0.95261 0.57682 0.0
C335 C 0.73787 0.96797 0.60688 0.0
C336 C 0.76004 0.97966 0.59919 0.0
C337 C 0.82196 0.08956 0.51157 0.0
C338 C 0.81764 0.1014 0.54969 0.0
C339 C 0.82178 0.06496 0.51003 0.0
C340 C 0.81719 0.05179 0.54651 0.0
C341 C 0.81225 0.06353 0.58435 0.0
C342 C 0.81263 0.08812 0.58601 0.0
C343 C 0.81811 0.02573 0.54544 0.0
C344 C 0.79682 0.01298 0.55547 0.0
C345 C 0.83965 0.01353 0.53354 0.0
C346 C 0.86288 0.02606 0.52363 0.0
C347 C 0.87366 0.04139 0.55308 0.0
C348 C 0.89539 0.05335 0.54328 0.0
C349 C 0.90662 0.04999 0.50424 0.0
C350 C 0.89618 0.0346 0.47497 0.0
C351 C 0.87443 0.02262 0.48459 0.0
H352 H 0.92344 0.05928 0.49671 0.0
H353 H 0.71102 0.94356 0.58285 0.0
H354 H 0.09993 0.77373 0.57517 0.0
H355 H 0.05499 0.77233 0.57498 0.0
H356 H 0.05323 0.83022 0.48702 0.0
H357 H 0.098 0.83236 0.4887 0.0
H358 H 0.02074 0.83769 0.54178 0.0
H359 H 0.04143 0.7709 0.45818 0.0
H360 H 0.06197 0.73347 0.44059 0.0
H361 H 0.02623 0.69964 0.5447 0.0
H362 H 0.00572 0.73697 0.56325 0.0
H363 H 0.89403 0.78249 0.48058 0.0
H364 H 0.93897 0.78152 0.47749 0.0
H365 H 0.94263 0.81826 0.59614 0.0
H366 H 0.89784 0.82023 0.59834 0.0
H367 H 0.97394 0.76354 0.52119 0.0
H368 H 0.99067 0.85448 0.60036 0.0
H369 H 0.96987 0.89289 0.60729 0.0
H370 H 0.9307 0.88034 0.4923 0.0
H371 H 0.9515 0.84201 0.48437 0.0
C372 C 0.08991 0.7861 0.55575 0.0
C373 C 0.10242 0.80317 0.53201 0.0
C374 C 0.06423 0.78521 0.55546 0.0
C375 C 0.05066 0.80098 0.53055 0.0
C376 C 0.06323 0.81791 0.50661 0.0
C377 C 0.08883 0.8191 0.50754 0.0
C378 C 0.02336 0.80035 0.53023 0.0
C379 C 0.01056 0.82145 0.5372 0.0
C380 C 0.00996 0.77929 0.5234 0.0
C381 C 0.02222 0.75679 0.51233 0.0
C382 C 0.03809 0.75552 0.4775 0.0
C383 C 0.0497 0.73432 0.46733 0.0
C384 C 0.04545 0.7142 0.49157 0.0
C385 C 0.02953 0.71524 0.52598 0.0
C386 C 0.01789 0.73641 0.53632 0.0
C387 C 0.90446 0.7903 0.50601 0.0
C388 C 0.89249 0.80169 0.53943 0.0
C389 C 0.93012 0.78969 0.50428 0.0
C390 C 0.94421 0.80021 0.53618 0.0
C391 C 0.93219 0.8106 0.57056 0.0
C392 C 0.90659 0.81164 0.57188 0.0
C393 C 0.97143 0.80083 0.5331 0.0
C394 C 0.98419 0.77975 0.52565 0.0
C395 C 0.98482 0.82207 0.53786 0.0
C396 C 0.97248 0.84527 0.54202 0.0
C397 C 0.9777 0.85997 0.57646 0.0
C398 C 0.9659 0.88171 0.58058 0.0
C399 C 0.94892 0.88902 0.55033 0.0
C400 C 0.94379 0.87463 0.51579 0.0
C401 C 0.95556 0.85288 0.51149 0.0
H402 H 0.93978 0.90584 0.55361 0.0
H403 H 0.05446 0.6978 0.48365 0.0
H404 H 0.19496 0.09528 0.46119 0.0
H405 H 0.19784 0.0524 0.46472 0.0
H406 H 0.19449 0.0555 0.60005 0.0
H407 H 0.19189 0.09847 0.59689 0.0
H408 H 0.22855 0.02368 0.57296 0.0
H409 H 0.14389 0.04199 0.54472 0.0
H410 H 0.1096 0.06053 0.50637 0.0
H411 H 0.13011 0.02339 0.39415 0.0
H412 H 0.16474 0.00487 0.43171 0.0
H413 H 0.19134 0.90577 0.61489 0.0
H414 H 0.19536 0.94852 0.60955 0.0
H415 H 0.19668 0.94326 0.47431 0.0
H416 H 0.19232 0.90051 0.47931 0.0
H417 H 0.16495 0.9762 0.49991 0.0
H418 H 0.24872 0.95638 0.52938 0.0
H419 H 0.28271 0.93774 0.56829 0.0
H420 H 0.26377 0.97734 0.67861 0.0
H421 H 0.22943 0.99599 0.64052 0.0
C422 C 0.19497 0.08688 0.49174 0.0
C423 C 0.193 0.10028 0.52876 0.0
C424 C 0.19656 0.06237 0.49368 0.0
C425 C 0.19605 0.05078 0.53262 0.0
C426 C 0.19486 0.06412 0.56968 0.0
C427 C 0.19329 0.08866 0.56779 0.0
C428 C 0.19596 0.02472 0.53462 0.0
C429 C 0.21452 0.01326 0.55738 0.0
C430 C 0.17792 0.01118 0.51353 0.0
C431 C 0.15706 0.02224 0.49091 0.0
C432 C 0.14121 0.03793 0.51177 0.0
C433 C 0.12169 0.0484 0.4902 0.0
C434 C 0.11772 0.04319 0.44782 0.0
C435 C 0.13323 0.02744 0.42696 0.0
C436 C 0.15279 0.01694 0.44838 0.0
C437 C 0.19268 0.91367 0.584 0.0
C438 C 0.19143 0.89974 0.54751 0.0
C439 C 0.19511 0.93811 0.58101 0.0
C440 C 0.19651 0.94905 0.54153 0.0
C441 C 0.19564 0.93516 0.50508 0.0
C442 C 0.19319 0.91073 0.50802 0.0
C443 C 0.19758 0.97507 0.5382 0.0
C444 C 0.17911 0.98655 0.51528 0.0
C445 C 0.21568 0.98858 0.55921 0.0
C446 C 0.23635 0.97742 0.58219 0.0
C447 C 0.25167 0.96098 0.56204 0.0
C448 C 0.27103 0.95043 0.58392 0.0
C449 C 0.27536 0.95631 0.62592 0.0
C450 C 0.26038 0.97279 0.64609 0.0
C451 C 0.24098 0.98337 0.62435 0.0
H452 H 0.29036 0.94813 0.64281 0.0
H453 H 0.1026 0.05132 0.43117 0.0
H454 H 0.89822 0.2051 0.49591 0.0
H455 H 0.94246 0.21265 0.4956 0.0
H456 H 0.95027 0.17244 0.60988 0.0
H457 H 0.906 0.16539 0.61106 0.0
H458 H 0.97811 0.21008 0.6138 0.0
H459 H 0.96417 0.14903 0.51208 0.0
H460 H 0.94534 0.13061 0.4497 0.0
H461 H 0.97395 0.18593 0.3717 0.0
H462 H 0.99269 0.20486 0.43377 0.0
H463 H 0.10268 0.17229 0.59824 0.0
H464 H 0.05776 0.17426 0.59908 0.0
H465 H 0.05957 0.2287 0.50466 0.0
H466 H 0.10467 0.2272 0.50424 0.0
H467 H 0.02718 0.18794 0.4884 0.0
H468 H 0.04468 0.24638 0.59317 0.0
H469 H 0.06451 0.26199 0.65703 0.0
H470 H 0.03011 0.208 0.73104 0.0
H471 H 0.01036 0.19182 0.66748 0.0
C472 C 0.90935 0.19794 0.52107 0.0
C473 C 0.89863 0.18451 0.55337 0.0
C474 C 0.93464 0.20221 0.52078 0.0
C475 C 0.94975 0.19281 0.55238 0.0
C476 C 0.93899 0.17986 0.58516 0.0
C477 C 0.91368 0.17578 0.58571 0.0
C478 C 0.97682 0.19596 0.55093 0.0
C479 C 0.98883 0.20507 0.58647 0.0
C480 C 0.99081 0.18985 0.51499 0.0
C481 C 0.97957 0.17851 0.47763 0.0
C482 C 0.96627 0.15737 0.48168 0.0
C483 C 0.95565 0.14682 0.44637 0.0
C484 C 0.95838 0.15713 0.40678 0.0
C485 C 0.9718 0.17799 0.4024 0.0
C486 C 0.98244 0.18863 0.43762 0.0
C487 C 0.09353 0.18479 0.57785 0.0
C488 C 0.10713 0.19959 0.55114 0.0
C489 C 0.06791 0.18594 0.57848 0.0
C490 C 0.05547 0.20167 0.55203 0.0
C491 C 0.06895 0.21651 0.52535 0.0
C492 C 0.09464 0.21568 0.52527 0.0
C493 C 0.02832 0.2018 0.55131 0.0
C494 C 0.01635 0.19323 0.51544 0.0
C495 C 0.01443 0.20804 0.58714 0.0
C496 C 0.02622 0.21776 0.62547 0.0
C497 C 0.04152 0.23769 0.62299 0.0
C498 C 0.05271 0.24668 0.65915 0.0
C499 C 0.04862 0.23596 0.69805 0.0
C500 C 0.03328 0.21627 0.70088 0.0
C501 C 0.02206 0.2072 0.66479 0.0
H502 H 0.0573 0.24294 0.72602 0.0
H503 H 0.95015 0.14893 0.37948 0.0
H504 H 0.23264 0.2059 0.47061 0.0
H505 H 0.25393 0.22667 0.41431 0.0
H506 H 0.18895 0.22241 0.33698 0.0
H507 H 0.16753 0.20118 0.3931 0.0
H508 H 0.22982 0.2122 0.29267 0.0
H509 H 0.20397 0.27351 0.3862 0.0
H510 H 0.19956 0.29368 0.45442 0.0
H511 H 0.27804 0.29899 0.46512 0.0
H512 H 0.28294 0.27855 0.3972 0.0
H513 H 0.26714 0.29692 0.14237 0.0
H514 H 0.24491 0.27652 0.19815 0.0
H515 H 0.30976 0.27817 0.27608 0.0
H516 H 0.33217 0.29883 0.22047 0.0
H517 H 0.26831 0.29006 0.31965 0.0
H518 H 0.29398 0.22826 0.22631 0.0
H519 H 0.29821 0.20814 0.15801 0.0
H520 H 0.21968 0.20399 0.14681 0.0
H521 H 0.21497 0.22439 0.21482 0.0
C522 C 0.22283 0.20933 0.44164 0.0
C523 C 0.19833 0.20199 0.4364 0.0
C524 C 0.23502 0.2213 0.40955 0.0
C525 C 0.22289 0.2264 0.37175 0.0
C526 C 0.19859 0.21871 0.36602 0.0
C527 C 0.18638 0.20663 0.39812 0.0
C528 C 0.23568 0.23971 0.33823 0.0
C529 C 0.23791 0.22939 0.29836 0.0
C530 C 0.2467 0.26189 0.34602 0.0
C531 C 0.24382 0.27431 0.38678 0.0
C532 C 0.2203 0.27882 0.40324 0.0
C533 C 0.21771 0.29033 0.44184 0.0
C534 C 0.23851 0.29757 0.46414 0.0
C535 C 0.26194 0.29336 0.44783 0.0
C536 C 0.26464 0.28183 0.40927 0.0
C537 C 0.2767 0.29301 0.17139 0.0
C538 C 0.30148 0.29941 0.17693 0.0
C539 C 0.26398 0.28127 0.20316 0.0
C540 C 0.2758 0.27558 0.24098 0.0
C541 C 0.30035 0.28235 0.24702 0.0
C542 C 0.31313 0.2941 0.2152 0.0
C543 C 0.26249 0.26251 0.27418 0.0
C544 C 0.26016 0.27289 0.31397 0.0
C545 C 0.25134 0.24041 0.2663 0.0
C546 C 0.25412 0.22807 0.22547 0.0
C547 C 0.27761 0.22323 0.20913 0.0
C548 C 0.28009 0.21174 0.17049 0.0
C549 C 0.25923 0.20485 0.14803 0.0
C550 C 0.23582 0.20937 0.16422 0.0
C551 C 0.23324 0.22088 0.20283 0.0
H552 H 0.26119 0.19596 0.11813 0.0
H553 H 0.23647 0.30647 0.49401 0.0
H554 H 0.72226 0.27877 0.1038 0.0
H555 H 0.74037 0.25946 0.16503 0.0
H556 H 0.7241 0.32055 0.24078 0.0
H557 H 0.70659 0.34023 0.17947 0.0
H558 H 0.76841 0.30458 0.25856 0.0
H559 H 0.68802 0.27004 0.24368 0.0
H560 H 0.65463 0.24957 0.20602 0.0
H561 H 0.70143 0.18965 0.18682 0.0
H562 H 0.73522 0.20991 0.22389 0.0
H563 H 0.78027 0.25378 0.46017 0.0
H564 H 0.76405 0.27228 0.39674 0.0
H565 H 0.78269 0.21037 0.32483 0.0
H566 H 0.79848 0.19149 0.38841 0.0
H567 H 0.73818 0.2261 0.30388 0.0
H568 H 0.81828 0.26051 0.32064 0.0
H569 H 0.85144 0.28114 0.35862 0.0
H570 H 0.80485 0.34149 0.37475 0.0
H571 H 0.7713 0.32109 0.33734 0.0
C572 C 0.72261 0.28813 0.13346 0.0
C573 C 0.71288 0.31099 0.13684 0.0
C574 C 0.73287 0.27702 0.16848 0.0
C575 C 0.73322 0.28841 0.20766 0.0
C576 C 0.72398 0.31141 0.21088 0.0
C577 C 0.71393 0.32262 0.17581 0.0
C578 C 0.74307 0.27634 0.24543 0.0
C579 C 0.76159 0.28755 0.26875 0.0
C580 C 0.73458 0.25386 0.25818 0.0
C581 C 0.71422 0.24158 0.23621 0.0
C582 C 0.69124 0.25257 0.23118 0.0
C583 C 0.67224 0.24099 0.20998 0.0
C584 C 0.67593 0.21835 0.19395 0.0
C585 C 0.69861 0.2072 0.1992 0.0
C586 C 0.71768 0.21871 0.22034 0.0
C587 C 0.78092 0.24407 0.43088 0.0
C588 C 0.79079 0.22121 0.42929 0.0
C589 C 0.77173 0.25472 0.3946 0.0
C590 C 0.77253 0.24286 0.35591 0.0
C591 C 0.78197 0.21987 0.35434 0.0
C592 C 0.79103 0.20913 0.39069 0.0
C593 C 0.76341 0.25441 0.31713 0.0
C594 C 0.74504 0.24311 0.29362 0.0
C595 C 0.77199 0.27683 0.30424 0.0
C596 C 0.79221 0.28919 0.3265 0.0
C597 C 0.81505 0.27812 0.33253 0.0
C598 C 0.83393 0.28978 0.35392 0.0
C599 C 0.83023 0.31259 0.36917 0.0
C600 C 0.80768 0.32381 0.36296 0.0
C601 C 0.78874 0.31222 0.34162 0.0
H602 H 0.84487 0.32159 0.38573 0.0
H603 H 0.6612 0.20942 0.17753 0.0
H604 H 0.81967 0.80758 0.39633 0.0
H605 H 0.79743 0.78588 0.34212 0.0
H606 H 0.74018 0.76934 0.43125 0.0
H607 H 0.7627 0.7905 0.48606 0.0
H608 H 0.75131 0.73167 0.38709 0.0
H609 H 0.73219 0.81171 0.35407 0.0
H610 H 0.74083 0.85352 0.33901 0.0
H611 H 0.78256 0.8337 0.23008 0.0
H612 H 0.77445 0.79174 0.24481 0.0
H613 H 0.66687 0.69185 0.2295 0.0
H614 H 0.6866 0.7133 0.28707 0.0
H615 H 0.74885 0.72822 0.2074 0.0
H616 H 0.72924 0.70704 0.14966 0.0
H617 H 0.7329 0.76726 0.24826 0.0
H618 H 0.75252 0.6868 0.28371 0.0
H619 H 0.74304 0.64522 0.2993 0.0
H620 H 0.69875 0.66646 0.40438 0.0
H621 H 0.70772 0.7082 0.38906 0.0
C622 C 0.80229 0.79943 0.40439 0.0
C623 C 0.7929 0.80083 0.44546 0.0
C624 C 0.78954 0.7871 0.3733 0.0
C625 C 0.76695 0.77627 0.38245 0.0
C626 C 0.75755 0.7776 0.42346 0.0
C627 C 0.77041 0.78975 0.45471 0.0
C628 C 0.75342 0.76315 0.34938 0.0
C629 C 0.74693 0.73958 0.35697 0.0
C630 C 0.74805 0.77333 0.30983 0.0
C631 C 0.75288 0.79856 0.30076 0.0
C632 C 0.74336 0.81626 0.32708 0.0
C633 C 0.74813 0.83998 0.31857 0.0
C634 C 0.76228 0.84626 0.28367 0.0
C635 C 0.77163 0.82881 0.25713 0.0
C636 C 0.76692 0.80506 0.26551 0.0
C637 C 0.68482 0.69957 0.2243 0.0
C638 C 0.69648 0.69774 0.18498 0.0
C639 C 0.69609 0.71177 0.25727 0.0
C640 C 0.71924 0.72225 0.25153 0.0
C641 C 0.73096 0.72029 0.21244 0.0
C642 C 0.71975 0.7081 0.17953 0.0
C643 C 0.73107 0.73577 0.28585 0.0
C644 C 0.73719 0.75943 0.27848 0.0
C645 C 0.73593 0.72572 0.32566 0.0
C646 C 0.73059 0.70063 0.33496 0.0
C647 C 0.7406 0.68261 0.30993 0.0
C648 C 0.73535 0.65901 0.31876 0.0
C649 C 0.72025 0.65321 0.35274 0.0
C650 C 0.71042 0.67099 0.37803 0.0
C651 C 0.7156 0.69461 0.36931 0.0
H652 H 0.7162 0.63493 0.35953 0.0
H653 H 0.76596 0.86464 0.27714 0.0
H654 H 0.15083 0.78379 0.3725 0.0
H655 H 0.1683 0.76372 0.31139 0.0
H656 H 0.24141 0.77984 0.3553 0.0
H657 H 0.22415 0.79997 0.41646 0.0
H658 H 0.2352 0.78895 0.27068 0.0
H659 H 0.21951 0.72593 0.36829 0.0
H660 H 0.19414 0.70204 0.41635 0.0
H661 H 0.14567 0.68425 0.31466 0.0
H662 H 0.17057 0.70833 0.26609 0.0
H663 H 0.30487 0.71225 0.14347 0.0
H664 H 0.28583 0.73192 0.20341 0.0
H665 H 0.21416 0.71049 0.15966 0.0
H666 H 0.23309 0.6904 0.09988 0.0
H667 H 0.21841 0.7044 0.24303 0.0
H668 H 0.23392 0.76653 0.14499 0.0
H669 H 0.25868 0.79062 0.09634 0.0
H670 H 0.3065 0.81056 0.19766 0.0
H671 H 0.28221 0.78629 0.24684 0.0
C672 C 0.17063 0.78311 0.36913 0.0
C673 C 0.18612 0.79342 0.39936 0.0
C674 C 0.18056 0.77157 0.3343 0.0
C675 C 0.20612 0.77017 0.3291 0.0
C676 C 0.22162 0.78074 0.35885 0.0
C677 C 0.21172 0.79216 0.39381 0.0
C678 C 0.21677 0.7577 0.29259 0.0
C679 C 0.23179 0.77039 0.26485 0.0
C680 C 0.21171 0.73367 0.28453 0.0
C681 C 0.19676 0.71914 0.31366 0.0
C682 C 0.20332 0.71709 0.35625 0.0
C683 C 0.18905 0.70348 0.38357 0.0
C684 C 0.16827 0.69169 0.3686 0.0
C685 C 0.16175 0.69343 0.32623 0.0
C686 C 0.17595 0.70704 0.29879 0.0
C687 C 0.28506 0.71167 0.14659 0.0
C688 C 0.27047 0.69987 0.1168 0.0
C689 C 0.2742 0.72301 0.18078 0.0
C690 C 0.24856 0.72295 0.18562 0.0
C691 C 0.23398 0.7108 0.15641 0.0
C692 C 0.24483 0.69938 0.12223 0.0
C693 C 0.23701 0.73561 0.22118 0.0
C694 C 0.22178 0.72297 0.24873 0.0
C695 C 0.24177 0.75974 0.22897 0.0
C696 C 0.25638 0.77441 0.19952 0.0
C697 C 0.24983 0.7759 0.15684 0.0
C698 C 0.26376 0.78961 0.12918 0.0
C699 C 0.28418 0.80207 0.14388 0.0
C700 C 0.29069 0.80088 0.18631 0.0
C701 C 0.27683 0.78716 0.2141 0.0
H702 H 0.29494 0.81268 0.12242 0.0
H703 H 0.15725 0.68116 0.38979 0.0
H704 H 0.16792 0.80181 0.68516 0.0
H705 H 0.18947 0.78053 0.74081 0.0
H706 H 0.25028 0.76778 0.65685 0.0
H707 H 0.22876 0.78873 0.60086 0.0
H708 H 0.23818 0.72859 0.69976 0.0
H709 H 0.25428 0.8097 0.7323 0.0
H710 H 0.24359 0.85113 0.74669 0.0
H711 H 0.2014 0.8298 0.85422 0.0
H712 H 0.21157 0.78818 0.84013 0.0
H713 H 0.3258 0.69398 0.85442 0.0
H714 H 0.3038 0.71378 0.79748 0.0
H715 H 0.24273 0.72693 0.88071 0.0
H716 H 0.26466 0.70748 0.93788 0.0
H717 H 0.25512 0.76584 0.83783 0.0
H718 H 0.23925 0.68461 0.80527 0.0
H719 H 0.25014 0.64325 0.79076 0.0
H720 H 0.29219 0.66485 0.68326 0.0
H721 H 0.28183 0.7064 0.69746 0.0
C722 C 0.18589 0.79452 0.67854 0.0
C723 C 0.19666 0.79703 0.63863 0.0
C724 C 0.19821 0.78243 0.71041 0.0
C725 C 0.22157 0.77279 0.70305 0.0
C726 C 0.23227 0.7751 0.66317 0.0
C727 C 0.21997 0.78716 0.63127 0.0
C728 C 0.23483 0.76018 0.73687 0.0
C729 C 0.24218 0.73682 0.72978 0.0
C730 C 0.23957 0.77079 0.77629 0.0
C731 C 0.23349 0.79581 0.78491 0.0
C732 C 0.24256 0.81382 0.75882 0.0
C733 C 0.23662 0.83734 0.76696 0.0
C734 C 0.22177 0.84309 0.80128 0.0
C735 C 0.21288 0.82532 0.82761 0.0
C736 C 0.21874 0.80177 0.81958 0.0
C737 C 0.30763 0.70096 0.86054 0.0
C738 C 0.29698 0.69917 0.90067 0.0
C739 C 0.29505 0.7122 0.82794 0.0
C740 C 0.27156 0.72168 0.83483 0.0
C741 C 0.26085 0.71976 0.87476 0.0
C742 C 0.2734 0.70857 0.90735 0.0
C743 C 0.2584 0.73422 0.8008 0.0
C744 C 0.25111 0.75759 0.80784 0.0
C745 C 0.25375 0.72362 0.76134 0.0
C746 C 0.25996 0.69864 0.75268 0.0
C747 C 0.25099 0.68056 0.77873 0.0
C748 C 0.25703 0.65708 0.77053 0.0
C749 C 0.2719 0.65143 0.73617 0.0
C750 C 0.28071 0.66925 0.70989 0.0
C751 C 0.27473 0.69277 0.71798 0.0
H752 H 0.27656 0.63323 0.72987 0.0
H753 H 0.2172 0.86131 0.80753 0.0
H754 H 0.3307 0.30881 0.88987 0.0
H755 H 0.30921 0.28795 0.83346 0.0
H756 H 0.24608 0.27899 0.91407 0.0
H757 H 0.26767 0.29914 0.9708 0.0
H758 H 0.2557 0.23944 0.87603 0.0
H759 H 0.24756 0.32009 0.83239 0.0
H760 H 0.26213 0.3599 0.81381 0.0
H761 H 0.30519 0.33109 0.71308 0.0
H762 H 0.29112 0.29106 0.73141 0.0
H763 H 0.16929 0.20508 0.71986 0.0
H764 H 0.19121 0.22656 0.77502 0.0
H765 H 0.25561 0.23018 0.6962 0.0
H766 H 0.23383 0.20899 0.64079 0.0
H767 H 0.24567 0.27225 0.7326 0.0
H768 H 0.25304 0.19148 0.77668 0.0
H769 H 0.23769 0.15195 0.79534 0.0
H770 H 0.19498 0.18164 0.89569 0.0
H771 H 0.20983 0.2214 0.87726 0.0
C772 C 0.3122 0.3025 0.89545 0.0
C773 C 0.30089 0.30561 0.93476 0.0
C774 C 0.29989 0.29066 0.86315 0.0
C775 C 0.27592 0.28211 0.8694 0.0
C776 C 0.26458 0.28538 0.90855 0.0
C777 C 0.27694 0.29696 0.94092 0.0
C778 C 0.26279 0.26918 0.83567 0.0
C779 C 0.25323 0.24678 0.84484 0.0
C780 C 0.26004 0.27849 0.79468 0.0
C781 C 0.26847 0.30256 0.78354 0.0
C782 C 0.26028 0.32223 0.80648 0.0
C783 C 0.26842 0.34483 0.79596 0.0
C784 C 0.28463 0.34802 0.76236 0.0
C785 C 0.29267 0.3286 0.73913 0.0
C786 C 0.28459 0.30595 0.74955 0.0
C787 C 0.18813 0.21039 0.7143 0.0
C788 C 0.19983 0.20527 0.67599 0.0
C789 C 0.20065 0.2226 0.74588 0.0
C790 C 0.22509 0.22978 0.73977 0.0
C791 C 0.23676 0.2248 0.70151 0.0
C792 C 0.22429 0.2126 0.66996 0.0
C793 C 0.23851 0.24265 0.77313 0.0
C794 C 0.24815 0.26499 0.76384 0.0
C795 C 0.24122 0.23334 0.81408 0.0
C796 C 0.23237 0.20943 0.82532 0.0
C797 C 0.24023 0.1896 0.80252 0.0
C798 C 0.23164 0.16715 0.81309 0.0
C799 C 0.21532 0.16429 0.84661 0.0
C800 C 0.2076 0.18388 0.8697 0.0
C801 C 0.21611 0.20637 0.85923 0.0
H802 H 0.20869 0.1469 0.85475 0.0
H803 H 0.29091 0.36553 0.75426 0.0
H804 H 0.68138 0.24251 0.93042 0.0
H805 H 0.69719 0.22427 0.8664 0.0
H806 H 0.7336 0.28924 0.83342 0.0
H807 H 0.71747 0.30777 0.89704 0.0
H808 H 0.71124 0.27107 0.76682 0.0
H809 H 0.76577 0.24252 0.87287 0.0
H810 H 0.77754 0.22362 0.93964 0.0
H811 H 0.74362 0.15905 0.89976 0.0
H812 H 0.73133 0.17767 0.83293 0.0
H813 H 0.79678 0.22433 0.61839 0.0
H814 H 0.77872 0.24173 0.68163 0.0
H815 H 0.7313 0.18131 0.69539 0.0
H816 H 0.74895 0.16393 0.63155 0.0
H817 H 0.75853 0.19638 0.7709 0.0
H818 H 0.7051 0.22624 0.66291 0.0
H819 H 0.69561 0.24594 0.59583 0.0
H820 H 0.73042 0.30923 0.63978 0.0
H821 H 0.74047 0.28977 0.70695 0.0
C822 C 0.69278 0.25293 0.90961 0.0
C823 C 0.69822 0.27658 0.91889 0.0
C824 C 0.70189 0.24244 0.87309 0.0
C825 C 0.71681 0.25531 0.84536 0.0
C826 C 0.72213 0.27897 0.8544 0.0
C827 C 0.71296 0.28951 0.89084 0.0
C828 C 0.72665 0.24418 0.80671 0.0
C829 C 0.72183 0.25489 0.76781 0.0
C830 C 0.74009 0.22283 0.8079 0.0
C831 C 0.74739 0.21157 0.84809 0.0
C832 C 0.76062 0.22435 0.87849 0.0
C833 C 0.76742 0.21368 0.91632 0.0
C834 C 0.76126 0.19017 0.92399 0.0
C835 C 0.74833 0.17727 0.8938 0.0
C836 C 0.74146 0.18787 0.85593 0.0
C837 C 0.78247 0.21477 0.63482 0.0
C838 C 0.77423 0.19279 0.62006 0.0
C839 C 0.77216 0.22475 0.67082 0.0
C840 C 0.75369 0.21279 0.69295 0.0
C841 C 0.74555 0.19076 0.67859 0.0
C842 C 0.75555 0.18094 0.64211 0.0
C843 C 0.74309 0.2233 0.73135 0.0
C844 C 0.74783 0.2125 0.77009 0.0
C845 C 0.72984 0.24469 0.73009 0.0
C846 C 0.72377 0.25646 0.68979 0.0
C847 C 0.71095 0.24429 0.65813 0.0
C848 C 0.70542 0.25542 0.62012 0.0
C849 C 0.71247 0.2788 0.61349 0.0
C850 C 0.72501 0.29111 0.64493 0.0
C851 C 0.73061 0.28004 0.68299 0.0
H852 H 0.70817 0.2874 0.58405 0.0
H853 H 0.76656 0.18193 0.95329 0.0
H854 H 0.75697 0.66823 0.95673 0.0
H855 H 0.7743 0.68725 0.89446 0.0
H856 H 0.71596 0.73871 0.89687 0.0
H857 H 0.69814 0.71936 0.95819 0.0
H858 H 0.72272 0.7244 0.82017 0.0
H859 H 0.77571 0.75144 0.93061 0.0
H860 H 0.80369 0.74749 0.99115 0.0
H861 H 0.85421 0.7078 0.91545 0.0
H862 H 0.82636 0.71126 0.85457 0.0
H863 H 0.77663 0.80777 0.6814 0.0
H864 H 0.76062 0.7888 0.74479 0.0
H865 H 0.81361 0.73286 0.73104 0.0
H866 H 0.82977 0.75167 0.66769 0.0
H867 H 0.81003 0.74937 0.813 0.0
H868 H 0.7562 0.72313 0.70231 0.0
H869 H 0.72807 0.72833 0.64228 0.0
H870 H 0.67885 0.76834 0.71993 0.0
H871 H 0.70687 0.76365 0.78031 0.0
C872 C 0.74788 0.68362 0.94403 0.0
C873 C 0.72622 0.69232 0.96241 0.0
C874 C 0.75786 0.69455 0.90855 0.0
C875 C 0.74662 0.71462 0.8913 0.0
C876 C 0.72496 0.72326 0.90961 0.0
C877 C 0.71482 0.7122 0.94473 0.0
C878 C 0.75708 0.7264 0.85371 0.0
C879 C 0.74173 0.73015 0.81889 0.0
C880 C 0.78203 0.73347 0.85162 0.0
C881 C 0.79883 0.73141 0.88815 0.0
C882 C 0.7927 0.74172 0.92696 0.0
C883 C 0.80855 0.73959 0.96132 0.0
C884 C 0.83068 0.72735 0.95718 0.0
C885 C 0.83704 0.71725 0.91863 0.0
C886 C 0.82124 0.71931 0.88418 0.0
C887 C 0.78493 0.79146 0.69191 0.0
C888 C 0.8044 0.78116 0.66942 0.0
C889 C 0.77571 0.78063 0.72804 0.0
C890 C 0.78582 0.75935 0.74232 0.0
C891 C 0.80556 0.74927 0.72045 0.0
C892 C 0.81469 0.76001 0.68419 0.0
C893 C 0.77561 0.74743 0.77982 0.0
C894 C 0.79102 0.74363 0.81448 0.0
C895 C 0.75068 0.74049 0.78193 0.0
C896 C 0.73375 0.74323 0.74571 0.0
C897 C 0.73947 0.7332 0.7065 0.0
C898 C 0.72353 0.73603 0.67242 0.0
C899 C 0.70171 0.74871 0.67726 0.0
C900 C 0.69577 0.75854 0.71621 0.0
C901 C 0.71166 0.75579 0.75038 0.0
H902 H 0.68939 0.75088 0.65084 0.0
H903 H 0.84293 0.72572 0.98381 0.0
loop_
_geom_bond_atom_site_label_1
_geom_bond_atom_site_label_2
_geom_bond_distance
_geom_bond_site_symmetry_2
_ccdc_geom_bond_type
C0 O1 1.160 . S
C0 O7 1.185 . S
O1 C0 1.160 . S
O2 Zn3 1.899 . S
O2 C10 1.284 . S
Zn3 O2 1.899 . S
Zn3 O4 2.032 . S
Zn3 O7 2.086 . S
Zn3 O12 1.977 . S
O4 Zn3 2.032 . S
O4 C8 1.278 1_554 S
C5 O6 1.203 . S
C5 O12 1.267 . S
O6 C5 1.203 . S
O7 C0 1.185 . S
O7 Zn3 2.086 . S
C8 O4 1.278 1_556 S
C8 O9 1.211 . S
O9 C8 1.211 . S
C10 O2 1.284 . S
C10 O11 1.273 . S
O11 C10 1.273 . S
O12 Zn3 1.977 . S
O12 C5 1.267 . S
C13 O14 1.160 . S
C13 O20 1.185 . S
O14 C13 1.160 . S
O15 Zn16 1.899 . S
O15 C23 1.284 . S
Zn16 O15 1.899 . S
Zn16 O17 2.032 . S
Zn16 O20 2.086 1_554 S
Zn16 O25 1.977 . S
O17 Zn16 2.032 . S
O17 C21 1.278 . S
C18 O19 1.203 . S
C18 O25 1.267 . S
O19 C18 1.203 . S
O20 C13 1.185 . S
O20 Zn16 2.086 1_556 S
C21 O17 1.278 . S
C21 O22 1.211 . S
O22 C21 1.211 . S
C23 O15 1.284 . S
C23 O24 1.273 . S
O24 C23 1.273 . S
O25 Zn16 1.977 . S
O25 C18 1.267 . S
C26 O27 1.160 . S
C26 O33 1.185 . S
O27 C26 1.160 . S
O28 Zn29 1.899 . S
O28 C36 1.284 . S
Zn29 O28 1.899 . S
Zn29 O30 2.032 . S
Zn29 O33 2.086 . S
Zn29 O38 1.977 . S
O30 Zn29 2.032 . S
O30 C34 1.278 1_554 S
C31 O32 1.203 . S
C31 O38 1.267 . S
O32 C31 1.203 . S
O33 C26 1.185 . S
O33 Zn29 2.086 . S
C34 O30 1.278 1_556 S
C34 O35 1.211 . S
O35 C34 1.211 . S
C36 O28 1.284 . S
C36 O37 1.273 . S
O37 C36 1.273 . S
O38 Zn29 1.977 . S
O38 C31 1.267 . S
C39 O40 1.160 . S
C39 O46 1.185 . S
O40 C39 1.160 . S
O41 Zn42 1.899 . S
O41 C49 1.284 . S
Zn42 O41 1.899 . S
Zn42 O43 2.032 . S
Zn42 O46 2.086 1_554 S
Zn42 O51 1.977 . S
O43 Zn42 2.032 . S
O43 C47 1.278 . S
C44 O45 1.203 . S
C44 O51 1.267 . S
O45 C44 1.203 . S
O46 C39 1.185 . S
O46 Zn42 2.086 1_556 S
C47 O43 1.278 . S
C47 O48 1.211 . S
O48 C47 1.211 . S
C49 O41 1.284 . S
C49 O50 1.273 . S
O50 C49 1.273 . S
O51 Zn42 1.977 . S
O51 C44 1.267 . S
C52 O53 1.160 . S
C52 O59 1.185 . S
O53 C52 1.160 . S
O54 Zn55 1.899 . S
O54 C62 1.284 . S
Zn55 O54 1.899 . S
Zn55 O56 2.032 . S
Zn55 O59 2.086 . S
Zn55 O64 1.977 . S
O56 Zn55 2.032 . S
O56 C60 1.278 . S
C57 O58 1.203 . S
C57 O64 1.267 . S
O58 C57 1.203 . S
O59 C52 1.185 . S
O59 Zn55 2.086 . S
C60 O56 1.278 . S
C60 O61 1.211 . S
O61 C60 1.211 . S
C62 O54 1.284 . S
C62 O63 1.273 . S
O63 C62 1.273 . S
O64 Zn55 1.977 . S
O64 C57 1.267 . S
C65 O66 1.160 . S
C65 O72 1.185 . S
O66 C65 1.160 . S
O67 Zn68 1.899 . S
O67 C75 1.284 . S
Zn68 O67 1.899 . S
Zn68 O69 2.032 . S
Zn68 O72 2.086 . S
Zn68 O77 1.977 . S
O69 Zn68 2.032 . S
O69 C73 1.278 . S
C70 O71 1.203 . S
C70 O77 1.267 . S
O71 C70 1.203 . S
O72 C65 1.185 . S
O72 Zn68 2.086 . S
C73 O69 1.278 . S
C73 O74 1.211 . S
O74 C73 1.211 . S
C75 O67 1.284 . S
C75 O76 1.273 . S
O76 C75 1.273 . S
O77 Zn68 1.977 . S
O77 C70 1.267 . S
C78 O79 1.160 . S
C78 O85 1.185 . S
O79 C78 1.160 . S
O80 Zn81 1.899 . S
O80 C88 1.284 . S
Zn81 O80 1.899 . S
Zn81 O82 2.032 . S
Zn81 O85 2.086 . S
Zn81 O90 1.977 . S
O82 Zn81 2.032 . S
O82 C86 1.278 . S
C83 O84 1.203 . S
C83 O90 1.267 . S
O84 C83 1.203 . S
O85 C78 1.185 . S
O85 Zn81 2.086 . S
C86 O82 1.278 . S
C86 O87 1.211 . S
O87 C86 1.211 . S
C88 O80 1.284 . S
C88 O89 1.273 . S
O89 C88 1.273 . S
O90 Zn81 1.977 . S
O90 C83 1.267 . S
C91 O92 1.160 . S
C91 O98 1.185 . S
O92 C91 1.160 . S
O93 Zn94 1.899 . S
O93 C101 1.284 . S
Zn94 O93 1.899 . S
Zn94 O95 2.032 . S
Zn94 O98 2.086 . S
Zn94 O103 1.977 . S
O95 Zn94 2.032 . S
O95 C99 1.278 . S
C96 O97 1.203 . S
C96 O103 1.267 . S
O97 C96 1.203 . S
O98 C91 1.185 . S
O98 Zn94 2.086 . S
C99 O95 1.278 . S
C99 O100 1.211 . S
O100 C99 1.211 . S
C101 O93 1.284 . S
C101 O102 1.273 . S
O102 C101 1.273 . S
O103 Zn94 1.977 . S
O103 C96 1.267 . S
H104 C122 0.951 . S
H105 C124 0.951 . S
H106 C126 0.950 . S
H107 C127 0.950 . S
H108 C129 0.950 1_556 S
H109 C132 0.950 . S
H110 C133 0.950 . S
H111 C135 0.950 . S
H112 C136 0.950 . S
H113 C137 0.951 . S
H114 C139 0.951 . S
H115 C141 0.950 . S
H116 C142 0.950 . S
H117 C144 0.950 . S
H118 C147 0.950 . S
H119 C148 0.950 . S
H120 C150 0.950 . S
H121 C151 0.950 . S
C122 H104 0.951 . S
C122 C123 1.366 . S
C122 C124 1.388 . S
C123 C122 1.366 . S
C123 C127 1.385 . S
C124 H105 0.951 . S
C124 C122 1.388 . S
C124 C125 1.366 . S
C125 C124 1.366 . S
C125 C126 1.414 . S
C125 C128 1.499 . S
C126 H106 0.950 . S
C126 C125 1.414 . S
C126 C127 1.374 . S
C127 H107 0.950 . S
C127 C123 1.385 . S
C127 C126 1.374 . S
C128 C125 1.499 . S
C128 C129 1.373 . S
C128 C130 1.389 . S
C129 H108 0.950 1_554 S
C129 C128 1.373 . S
C129 C145 1.377 . S
C130 C128 1.389 . S
C130 C131 1.524 . S
C130 C144 1.377 . S
C131 C130 1.524 . S
C131 C132 1.397 . S
C131 C136 1.363 . S
C132 H109 0.950 . S
C132 C131 1.397 . S
C132 C133 1.334 . S
C133 H110 0.950 . S
C133 C132 1.334 . S
C133 C134 1.287 . S
C134 C133 1.287 . S
C134 C135 1.524 . S
C134 H153 0.913 . S
C135 H111 0.950 . S
C135 C134 1.524 . S
C135 C136 1.415 . S
C136 H112 0.950 . S
C136 C131 1.363 . S
C136 C135 1.415 . S
C137 H113 0.951 . S
C137 C138 1.366 . S
C137 C139 1.388 . S
C138 C137 1.366 . S
C138 C142 1.385 . S
C139 H114 0.951 . S
C139 C137 1.388 . S
C139 C140 1.366 . S
C140 C139 1.366 . S
C140 C141 1.414 . S
C140 C143 1.499 . S
C141 H115 0.950 . S
C141 C140 1.414 . S
C141 C142 1.374 . S
C142 H116 0.950 . S
C142 C138 1.385 . S
C142 C141 1.374 . S
C143 C140 1.499 . S
C143 C144 1.373 . S
C143 C145 1.389 . S
C144 H117 0.950 . S
C144 C130 1.377 . S
C144 C143 1.373 . S
C145 C129 1.377 . S
C145 C143 1.389 . S
C145 C146 1.524 1_554 S
C146 C145 1.524 1_556 S
C146 C147 1.397 . S
C146 C151 1.363 . S
C147 H118 0.950 . S
C147 C146 1.397 . S
C147 C148 1.334 . S
C148 H119 0.950 . S
C148 C147 1.334 . S
C148 C149 1.287 . S
C149 C148 1.287 . S
C149 C150 1.524 . S
C149 H152 0.999 . S
C150 H120 0.950 . S
C150 C149 1.524 . S
C150 C151 1.415 . S
C151 H121 0.950 . S
C151 C146 1.363 . S
C151 C150 1.415 . S
H152 C149 0.999 . S
H153 C134 0.913 . S
H154 C172 0.951 . S
H155 C174 0.951 . S
H156 C176 0.950 . S
H157 C177 0.950 . S
H158 C179 0.950 . S
H159 C182 0.950 . S
H160 C183 0.950 . S
H161 C185 0.950 . S
H162 C186 0.950 . S
H163 C187 0.951 . S
H164 C189 0.951 . S
H165 C191 0.950 1_556 S
H166 C192 0.950 1_556 S
H167 C194 0.950 . S
H168 C197 0.950 . S
H169 C198 0.950 . S
H170 C200 0.950 . S
H171 C201 0.950 . S
C172 H154 0.951 . S
C172 C173 1.366 . S
C172 C174 1.388 . S
C173 C172 1.366 . S
C173 C177 1.385 . S
C174 H155 0.951 . S
C174 C172 1.388 . S
C174 C175 1.366 . S
C175 C174 1.366 . S
C175 C176 1.414 . S
C175 C178 1.499 . S
C176 H156 0.950 . S
C176 C175 1.414 . S
C176 C177 1.374 . S
C177 H157 0.950 . S
C177 C173 1.385 . S
C177 C176 1.374 . S
C178 C175 1.499 . S
C178 C179 1.373 . S
C178 C180 1.389 . S
C179 H158 0.950 . S
C179 C178 1.373 . S
C179 C195 1.377 . S
C180 C178 1.389 . S
C180 C181 1.524 . S
C180 C194 1.377 . S
C181 C180 1.524 . S
C181 C182 1.397 . S
C181 C186 1.363 . S
C182 H159 0.950 . S
C182 C181 1.397 . S
C182 C183 1.334 . S
C183 H160 0.950 . S
C183 C182 1.334 . S
C183 C184 1.287 . S
C184 C183 1.287 . S
C184 C185 1.524 . S
C184 H203 0.913 . S
C185 H161 0.950 . S
C185 C184 1.524 . S
C185 C186 1.415 . S
C186 H162 0.950 . S
C186 C181 1.363 . S
C186 C185 1.415 . S
C187 H163 0.951 . S
C187 C188 1.366 . S
C187 C189 1.388 . S
C188 C187 1.366 . S
C188 C192 1.385 . S
C189 H164 0.951 . S
C189 C187 1.388 . S
C189 C190 1.366 . S
C190 C189 1.366 . S
C190 C191 1.414 . S
C190 C193 1.499 . S
C191 H165 0.950 1_554 S
C191 C190 1.414 . S
C191 C192 1.374 . S
C192 H166 0.950 1_554 S
C192 C188 1.385 . S
C192 C191 1.374 . S
C193 C190 1.499 . S
C193 C194 1.373 . S
C193 C195 1.389 . S
C194 H167 0.950 . S
C194 C180 1.377 . S
C194 C193 1.373 . S
C195 C179 1.377 . S
C195 C193 1.389 . S
C195 C196 1.524 . S
C196 C195 1.524 . S
C196 C197 1.397 1_554 S
C196 C201 1.363 . S
C197 H168 0.950 . S
C197 C196 1.397 1_556 S
C197 C198 1.334 . S
C198 H169 0.950 . S
C198 C197 1.334 . S
C198 C199 1.287 . S
C199 C198 1.287 . S
C199 C200 1.524 1_556 S
C199 H202 0.999 . S
C200 H170 0.950 . S
C200 C199 1.524 1_554 S
C200 C201 1.415 . S
C201 H171 0.950 . S
C201 C196 1.363 . S
C201 C200 1.415 . S
H202 C199 0.999 . S
H203 C184 0.913 . S
H204 C222 0.951 . S
H205 C224 0.951 . S
H206 C226 0.950 1_556 S
H207 C227 0.935 1_556 S
H208 C229 0.941 1_556 S
H209 C232 0.950 . S
H210 C233 0.950 . S
H211 C235 0.950 . S
H212 C236 0.950 . S
H213 C237 0.951 1_556 S
H214 C239 0.951 1_556 S
H215 C241 0.950 . S
H216 C242 0.950 . S
H217 C244 0.950 . S
H218 C247 0.950 . S
H219 C248 0.950 . S
H220 C250 0.950 . S
H221 C251 0.950 . S
C222 H204 0.951 . S
C222 C223 1.366 . S
C222 C224 1.388 . S
C223 C222 1.366 . S
C223 C227 1.399 . S
C224 H205 0.951 . S
C224 C222 1.388 . S
C224 C225 1.366 . S
C225 C224 1.366 . S
C225 C226 1.414 . S
C225 C228 1.499 . S
C226 H206 0.950 1_554 S
C226 C225 1.414 . S
C226 C227 1.374 . S
C227 H207 0.935 1_554 S
C227 C223 1.399 . S
C227 C226 1.374 . S
C228 C225 1.499 . S
C228 C229 1.373 . S
C228 C230 1.389 . S
C229 H208 0.941 1_554 S
C229 C228 1.373 . S
C229 C245 1.377 . S
C230 C228 1.389 . S
C230 C231 1.524 . S
C230 C244 1.377 . S
C231 C230 1.524 . S
C231 C232 1.397 . S
C231 C236 1.363 . S
C232 H209 0.950 . S
C232 C231 1.397 . S
C232 C233 1.334 . S
C233 H210 0.950 . S
C233 C232 1.334 . S
C233 C234 1.287 . S
C234 C233 1.287 . S
C234 C235 1.524 . S
C234 H253 0.913 . S
C235 H211 0.950 . S
C235 C234 1.524 . S
C235 C236 1.415 . S
C236 H212 0.950 . S
C236 C231 1.363 . S
C236 C235 1.415 . S
C237 H213 0.951 1_554 S
C237 C238 1.366 . S
C237 C239 1.388 . S
C238 C237 1.366 . S
C238 C242 1.385 . S
C239 H214 0.951 1_554 S
C239 C237 1.388 . S
C239 C240 1.366 . S
C240 C239 1.366 . S
C240 C241 1.414 . S
C240 C243 1.499 . S
C241 H215 0.950 . S
C241 C240 1.414 . S
C241 C242 1.374 . S
C242 H216 0.950 . S
C242 C238 1.385 . S
C242 C241 1.374 . S
C243 C240 1.499 . S
C243 C244 1.373 . S
C243 C245 1.389 . S
C244 H217 0.950 . S
C244 C230 1.377 . S
C244 C243 1.373 . S
C245 C229 1.377 . S
C245 C243 1.389 . S
C245 C246 1.524 1_554 S
C246 C245 1.524 1_556 S
C246 C247 1.397 1_556 S
C246 C251 1.363 . S
C247 H218 0.950 . S
C247 C246 1.397 1_554 S
C247 C248 1.334 . S
C248 H219 0.950 . S
C248 C247 1.334 . S
C248 C249 1.287 1_554 S
C249 C248 1.287 1_556 S
C249 C250 1.524 . S
C249 H252 0.999 . S
C250 H220 0.950 . S
C250 C249 1.524 . S
C250 C251 1.415 . S
C251 H221 0.950 . S
C251 C246 1.363 . S
C251 C250 1.415 . S
H252 C249 0.999 . S
H253 C234 0.913 . S
H254 C272 0.951 . S
H255 C274 0.951 . S
H256 C276 0.950 . S
H257 C277 0.950 . S
H258 C279 0.950 1_556 S
H259 C282 0.950 . S
H260 C283 0.950 . S
H261 C285 0.950 . S
H262 C286 0.950 . S
H263 C287 0.951 1_556 S
H264 C289 0.951 1_556 S
H265 C291 0.950 . S
H266 C292 0.950 . S
H267 C294 0.950 . S
H268 C297 0.950 . S
H269 C298 0.950 1_554 S
H270 C300 0.950 . S
H271 C301 0.950 . S
C272 H254 0.951 . S
C272 C273 1.366 . S
C272 C274 1.388 . S
C273 C272 1.366 . S
C273 C277 1.385 1_554 S
C274 H255 0.951 . S
C274 C272 1.388 . S
C274 C275 1.366 . S
C275 C274 1.366 . S
C275 C276 1.414 1_554 S
C275 C278 1.499 . S
C276 H256 0.950 . S
C276 C275 1.414 1_556 S
C276 C277 1.374 . S
C277 H257 0.950 . S
C277 C273 1.385 1_556 S
C277 C276 1.374 . S
C278 C275 1.499 . S
C278 C279 1.373 . S
C278 C280 1.389 . S
C279 H258 0.950 1_554 S
C279 C278 1.373 . S
C279 C295 1.377 . S
C280 C278 1.389 . S
C280 C281 1.524 . S
C280 C294 1.377 . S
C281 C280 1.524 . S
C281 C282 1.397 . S
C281 C286 1.363 . S
C282 H259 0.950 . S
C282 C281 1.397 . S
C282 C283 1.334 . S
C283 H260 0.950 . S
C283 C282 1.334 . S
C283 C284 1.287 . S
C284 C283 1.287 . S
C284 C285 1.524 . S
C284 H303 0.913 . S
C285 H261 0.950 . S
C285 C284 1.524 . S
C285 C286 1.415 . S
C286 H262 0.950 . S
C286 C281 1.363 . S
C286 C285 1.415 . S
C287 H263 0.951 1_554 S
C287 C288 1.366 . S
C287 C289 1.388 . S
C288 C287 1.366 . S
C288 C292 1.385 . S
C289 H264 0.951 1_554 S
C289 C287 1.388 . S
C289 C290 1.366 . S
C290 C289 1.366 . S
C290 C291 1.414 . S
C290 C293 1.499 . S
C291 H265 0.950 . S
C291 C290 1.414 . S
C291 C292 1.374 . S
C292 H266 0.950 . S
C292 C288 1.385 . S
C292 C291 1.374 . S
C293 C290 1.499 . S
C293 C294 1.373 . S
C293 C295 1.389 . S
C294 H267 0.950 . S
C294 C280 1.377 . S
C294 C293 1.373 . S
C295 C279 1.377 . S
C295 C293 1.389 . S
C295 C296 1.524 1_554 S
C296 C295 1.524 1_556 S
C296 C297 1.397 1_556 S
C296 C301 1.363 . S
C297 H268 0.950 . S
C297 C296 1.397 1_554 S
C297 C298 1.334 1_554 S
C298 H269 0.950 1_556 S
C298 C297 1.334 1_556 S
C298 C299 1.287 . S
C299 C298 1.287 . S
C299 C300 1.524 . S
C299 H302 0.999 . S
C300 H270 0.950 . S
C300 C299 1.524 . S
C300 C301 1.415 . S
C301 H271 0.950 . S
C301 C296 1.363 . S
C301 C300 1.415 . S
H302 C299 0.999 . S
H303 C284 0.913 . S
H304 C322 0.951 . S
H305 C324 0.951 . S
H306 C326 0.950 . S
H307 C327 0.950 . S
H308 C329 0.950 . S
H309 C332 0.950 . S
H310 C333 0.950 . S
H311 C335 0.950 . S
H312 C336 0.950 . S
H313 C337 0.951 . S
H314 C339 0.951 . S
H315 C341 0.950 . S
H316 C342 0.950 . S
H317 C344 0.950 . S
H318 C347 0.950 . S
H319 C348 0.950 . S
H320 C350 0.950 . S
H321 C351 0.950 . S
C322 H304 0.951 . S
C322 C323 1.366 . S
C322 C324 1.388 . S
C323 C322 1.366 . S
C323 C327 1.385 . S
C324 H305 0.951 . S
C324 C322 1.388 . S
C324 C325 1.366 . S
C325 C324 1.366 . S
C325 C326 1.414 . S
C325 C328 1.499 . S
C326 H306 0.950 . S
C326 C325 1.414 . S
C326 C327 1.374 . S
C327 H307 0.950 . S
C327 C323 1.385 . S
C327 C326 1.374 . S
C328 C325 1.499 . S
C328 C329 1.373 . S
C328 C330 1.389 . S
C329 H308 0.950 . S
C329 C328 1.373 . S
C329 C345 1.377 1_565 S
C330 C328 1.389 . S
C330 C331 1.524 . S
C330 C344 1.377 1_565 S
C331 C330 1.524 . S
C331 C332 1.397 . S
C331 C336 1.363 . S
C332 H309 0.950 . S
C332 C331 1.397 . S
C332 C333 1.334 . S
C333 H310 0.950 . S
C333 C332 1.334 . S
C333 C334 1.287 . S
C334 C333 1.287 . S
C334 C335 1.524 . S
C334 H353 0.913 . S
C335 H311 0.950 . S
C335 C334 1.524 . S
C335 C336 1.415 . S
C336 H312 0.950 . S
C336 C331 1.363 . S
C336 C335 1.415 . S
C337 H313 0.951 . S
C337 C338 1.366 . S
C337 C339 1.388 . S
C338 C337 1.366 . S
C338 C342 1.385 . S
C339 H314 0.951 . S
C339 C337 1.388 . S
C339 C340 1.366 . S
C340 C339 1.366 . S
C340 C341 1.414 . S
C340 C343 1.499 . S
C341 H315 0.950 . S
C341 C340 1.414 . S
C341 C342 1.374 . S
C342 H316 0.950 . S
C342 C338 1.385 . S
C342 C341 1.374 . S
C343 C340 1.499 . S
C343 C344 1.373 . S
C343 C345 1.389 . S
C344 H317 0.950 . S
C344 C330 1.377 1_545 S
C344 C343 1.373 . S
C345 C329 1.377 1_545 S
C345 C343 1.389 . S
C345 C346 1.524 . S
C346 C345 1.524 . S
C346 C347 1.397 . S
C346 C351 1.363 . S
C347 H318 0.950 . S
C347 C346 1.397 . S
C347 C348 1.334 . S
C348 H319 0.950 . S
C348 C347 1.334 . S
C348 C349 1.287 . S
C349 C348 1.287 . S
C349 C350 1.524 . S
C349 H352 0.999 . S
C350 H320 0.950 . S
C350 C349 1.524 . S
C350 C351 1.415 . S
C351 H321 0.950 . S
C351 C346 1.363 . S
C351 C350 1.415 . S
H352 C349 0.999 . S
H353 C334 0.913 . S
H354 C372 0.951 . S
H355 C374 0.951 . S
H356 C376 0.950 . S
H357 C377 0.950 . S
H358 C379 0.950 . S
H359 C382 0.950 . S
H360 C383 0.950 . S
H361 C385 0.950 . S
H362 C386 0.950 . S
H363 C387 0.951 . S
H364 C389 0.951 . S
H365 C391 0.950 . S
H366 C392 0.950 . S
H367 C394 0.950 . S
H368 C397 0.950 . S
H369 C398 0.950 . S
H370 C400 0.950 . S
H371 C401 0.950 . S
C372 H354 0.951 . S
C372 C373 1.366 . S
C372 C374 1.388 . S
C373 C372 1.366 . S
C373 C377 1.385 . S
C374 H355 0.951 . S
C374 C372 1.388 . S
C374 C375 1.366 . S
C375 C374 1.366 . S
C375 C376 1.414 . S
C375 C378 1.499 . S
C376 H356 0.950 . S
C376 C375 1.414 . S
C376 C377 1.374 . S
C377 H357 0.950 . S
C377 C373 1.385 . S
C377 C376 1.374 . S
C378 C375 1.499 . S
C378 C379 1.373 . S
C378 C380 1.389 . S
C379 H358 0.950 . S
C379 C378 1.373 . S
C379 C395 1.377 1_455 S
C380 C378 1.389 . S
C380 C381 1.524 . S
C380 C394 1.377 1_455 S
C381 C380 1.524 . S
C381 C382 1.397 . S
C381 C386 1.363 . S
C382 H359 0.950 . S
C382 C381 1.397 . S
C382 C383 1.334 . S
C383 H360 0.950 . S
C383 C382 1.334 . S
C383 C384 1.287 . S
C384 C383 1.287 . S
C384 C385 1.524 . S
C384 H403 0.913 . S
C385 H361 0.950 . S
C385 C384 1.524 . S
C385 C386 1.415 . S
C386 H362 0.950 . S
C386 C381 1.363 . S
C386 C385 1.415 . S
C387 H363 0.951 . S
C387 C388 1.366 . S
C387 C389 1.388 . S
C388 C387 1.366 . S
C388 C392 1.385 . S
C389 H364 0.951 . S
C389 C387 1.388 . S
C389 C390 1.366 . S
C390 C389 1.366 . S
C390 C391 1.414 . S
C390 C393 1.499 . S
C391 H365 0.950 . S
C391 C390 1.414 . S
C391 C392 1.374 . S
C392 H366 0.950 . S
C392 C388 1.385 . S
C392 C391 1.374 . S
C393 C390 1.499 . S
C393 C394 1.373 . S
C393 C395 1.389 . S
C394 H367 0.950 . S
C394 C380 1.377 1_655 S
C394 C393 1.373 . S
C395 C379 1.377 1_655 S
C395 C393 1.389 . S
C395 C396 1.524 . S
C396 C395 1.524 . S
C396 C397 1.397 . S
C396 C401 1.363 . S
C397 H368 0.950 . S
C397 C396 1.397 . S
C397 C398 1.334 . S
C398 H369 0.950 . S
C398 C397 1.334 . S
C398 C399 1.287 . S
C399 C398 1.287 . S
C399 C400 1.524 . S
C399 H402 0.999 . S
C400 H370 0.950 . S
C400 C399 1.524 . S
C400 C401 1.415 . S
C401 H371 0.950 . S
C401 C396 1.363 . S
C401 C400 1.415 . S
H402 C399 0.999 . S
H403 C384 0.913 . S
H404 C422 0.951 . S
H405 C424 0.951 . S
H406 C426 0.950 . S
H407 C427 0.950 . S
H408 C429 0.950 . S
H409 C432 0.950 . S
H410 C433 0.950 . S
H411 C435 0.950 . S
H412 C436 0.950 . S
H413 C437 0.951 . S
H414 C439 0.951 . S
H415 C441 0.950 . S
H416 C442 0.950 . S
H417 C444 0.950 . S
H418 C447 0.950 . S
H419 C448 0.950 . S
H420 C450 0.950 . S
H421 C451 0.950 . S
C422 H404 0.951 . S
C422 C423 1.366 . S
C422 C424 1.388 . S
C423 C422 1.366 . S
C423 C427 1.385 . S
C424 H405 0.951 . S
C424 C422 1.388 . S
C424 C425 1.366 . S
C425 C424 1.366 . S
C425 C426 1.414 . S
C425 C428 1.499 . S
C426 H406 0.950 . S
C426 C425 1.414 . S
C426 C427 1.374 . S
C427 H407 0.950 . S
C427 C423 1.385 . S
C427 C426 1.374 . S
C428 C425 1.499 . S
C428 C429 1.373 . S
C428 C430 1.389 . S
C429 H408 0.950 . S
C429 C428 1.373 . S
C429 C445 1.377 1_545 S
C430 C428 1.389 . S
C430 C431 1.524 . S
C430 C444 1.377 1_545 S
C431 C430 1.524 . S
C431 C432 1.397 . S
C431 C436 1.363 . S
C432 H409 0.950 . S
C432 C431 1.397 . S
C432 C433 1.334 . S
C433 H410 0.950 . S
C433 C432 1.334 . S
C433 C434 1.287 . S
C434 C433 1.287 . S
C434 C435 1.524 . S
C434 H453 0.913 . S
C435 H411 0.950 . S
C435 C434 1.524 . S
C435 C436 1.415 . S
C436 H412 0.950 . S
C436 C431 1.363 . S
C436 C435 1.415 . S
C437 H413 0.951 . S
C437 C438 1.366 . S
C437 C439 1.388 . S
C438 C437 1.366 . S
C438 C442 1.385 . S
C439 H414 0.951 . S
C439 C437 1.388 . S
C439 C440 1.366 . S
C440 C439 1.366 . S
C440 C441 1.414 . S
C440 C443 1.499 . S
C441 H415 0.950 . S
C441 C440 1.414 . S
C441 C442 1.374 . S
C442 H416 0.950 . S
C442 C438 1.385 . S
C442 C441 1.374 . S
C443 C440 1.499 . S
C443 C444 1.373 . S
C443 C445 1.389 . S
C444 H417 0.950 . S
C444 C430 1.377 1_565 S
C444 C443 1.373 . S
C445 C429 1.377 1_565 S
C445 C443 1.389 . S
C445 C446 1.524 . S
C446 C445 1.524 . S
C446 C447 1.397 . S
C446 C451 1.363 . S
C447 H418 0.950 . S
C447 C446 1.397 . S
C447 C448 1.334 . S
C448 H419 0.950 . S
C448 C447 1.334 . S
C448 C449 1.287 . S
C449 C448 1.287 . S
C449 C450 1.524 . S
C449 H452 0.999 . S
C450 H420 0.950 . S
C450 C449 1.524 . S
C450 C451 1.415 . S
C451 H421 0.950 . S
C451 C446 1.363 . S
C451 C450 1.415 . S
H452 C449 0.999 . S
H453 C434 0.913 . S
H454 C472 0.951 . S
H455 C474 0.951 . S
H456 C476 0.950 . S
H457 C477 0.950 . S
H458 C479 0.950 . S
H459 C482 0.950 . S
H460 C483 0.950 . S
H461 C485 0.950 . S
H462 C486 0.950 . S
H463 C487 0.951 . S
H464 C489 0.951 . S
H465 C491 0.950 . S
H466 C492 0.950 . S
H467 C494 0.950 . S
H468 C497 0.950 . S
H469 C498 0.950 . S
H470 C500 0.950 . S
H471 C501 0.950 . S
C472 H454 0.951 . S
C472 C473 1.366 . S
C472 C474 1.388 . S
C473 C472 1.366 . S
C473 C477 1.385 . S
C474 H455 0.951 . S
C474 C472 1.388 . S
C474 C475 1.366 . S
C475 C474 1.366 . S
C475 C476 1.414 . S
C475 C478 1.499 . S
C476 H456 0.950 . S
C476 C475 1.414 . S
C476 C477 1.374 . S
C477 H457 0.950 . S
C477 C473 1.385 . S
C477 C476 1.374 . S
C478 C475 1.499 . S
C478 C479 1.373 . S
C478 C480 1.389 . S
C479 H458 0.950 . S
C479 C478 1.373 . S
C479 C495 1.377 1_655 S
C480 C478 1.389 . S
C480 C481 1.524 . S
C480 C494 1.377 1_655 S
C481 C480 1.524 . S
C481 C482 1.397 . S
C481 C486 1.363 . S
C482 H459 0.950 . S
C482 C481 1.397 . S
C482 C483 1.334 . S
C483 H460 0.950 . S
C483 C482 1.334 . S
C483 C484 1.287 . S
C484 C483 1.287 . S
C484 C485 1.524 . S
C484 H503 0.913 . S
C485 H461 0.950 . S
C485 C484 1.524 . S
C485 C486 1.415 . S
C486 H462 0.950 . S
C486 C481 1.363 . S
C486 C485 1.415 . S
C487 H463 0.951 . S
C487 C488 1.366 . S
C487 C489 1.388 . S
C488 C487 1.366 . S
C488 C492 1.385 . S
C489 H464 0.951 . S
C489 C487 1.388 . S
C489 C490 1.366 . S
C490 C489 1.366 . S
C490 C491 1.414 . S
C490 C493 1.499 . S
C491 H465 0.950 . S
C491 C490 1.414 . S
C491 C492 1.374 . S
C492 H466 0.950 . S
C492 C488 1.385 . S
C492 C491 1.374 . S
C493 C490 1.499 . S
C493 C494 1.373 . S
C493 C495 1.389 . S
C494 H467 0.950 . S
C494 C480 1.377 1_455 S
C494 C493 1.373 . S
C495 C479 1.377 1_455 S
C495 C493 1.389 . S
C495 C496 1.524 . S
C496 C495 1.524 . S
C496 C497 1.397 . S
C496 C501 1.363 . S
C497 H468 0.950 . S
C497 C496 1.397 . S
C497 C498 1.334 . S
C498 H469 0.950 . S
C498 C497 1.334 . S
C498 C499 1.287 . S
C499 C498 1.287 . S
C499 C500 1.524 . S
C499 H502 0.999 . S
C500 H470 0.950 . S
C500 C499 1.524 . S
C500 C501 1.415 . S
C501 H471 0.950 . S
C501 C496 1.363 . S
C501 C500 1.415 . S
H502 C499 0.999 . S
H503 C484 0.913 . S
H504 C522 0.951 . S
H505 C524 0.951 . S
H506 C526 0.950 . S
H507 C527 0.950 . S
H508 C529 0.950 . S
H509 C532 0.950 . S
H510 C533 0.950 . S
H511 C535 0.950 . S
H512 C536 0.950 . S
H513 C537 0.951 . S
H514 C539 0.951 . S
H515 C541 0.950 . S
H516 C542 0.950 . S
H517 C544 0.950 . S
H518 C547 0.950 . S
H519 C548 0.950 . S
H520 C550 0.950 . S
H521 C551 0.950 . S
C522 H504 0.951 . S
C522 C523 1.366 . S
C522 C524 1.388 . S
C523 C522 1.366 . S
C523 C527 1.385 . S
C524 H505 0.951 . S
C524 C522 1.388 . S
C524 C525 1.366 . S
C525 C524 1.366 . S
C525 C526 1.414 . S
C525 C528 1.499 . S
C526 H506 0.950 . S
C526 C525 1.414 . S
C526 C527 1.374 . S
C527 H507 0.950 . S
C527 C523 1.385 . S
C527 C526 1.374 . S
C528 C525 1.499 . S
C528 C529 1.373 . S
C528 C530 1.389 . S
C529 H508 0.950 . S
C529 C528 1.373 . S
C529 C545 1.377 . S
C530 C528 1.389 . S
C530 C531 1.524 . S
C530 C544 1.377 . S
C531 C530 1.524 . S
C531 C532 1.397 . S
C531 C536 1.363 . S
C532 H509 0.950 . S
C532 C531 1.397 . S
C532 C533 1.334 . S
C533 H510 0.950 . S
C533 C532 1.334 . S
C533 C534 1.287 . S
C534 C533 1.287 . S
C534 C535 1.524 . S
C534 H553 0.913 . S
C535 H511 0.950 . S
C535 C534 1.524 . S
C535 C536 1.415 . S
C536 H512 0.950 . S
C536 C531 1.363 . S
C536 C535 1.415 . S
C537 H513 0.951 . S
C537 C538 1.366 . S
C537 C539 1.388 . S
C538 C537 1.366 . S
C538 C542 1.385 . S
C539 H514 0.951 . S
C539 C537 1.388 . S
C539 C540 1.366 . S
C540 C539 1.366 . S
C540 C541 1.414 . S
C540 C543 1.499 . S
C541 H515 0.950 . S
C541 C540 1.414 . S
C541 C542 1.374 . S
C542 H516 0.950 . S
C542 C538 1.385 . S
C542 C541 1.374 . S
C543 C540 1.499 . S
C543 C544 1.373 . S
C543 C545 1.389 . S
C544 H517 0.950 . S
C544 C530 1.377 . S
C544 C543 1.373 . S
C545 C529 1.377 . S
C545 C543 1.389 . S
C545 C546 1.524 . S
C546 C545 1.524 . S
C546 C547 1.397 . S
C546 C551 1.363 . S
C547 H518 0.950 . S
C547 C546 1.397 . S
C547 C548 1.334 . S
C548 H519 0.950 . S
C548 C547 1.334 . S
C548 C549 1.287 . S
C549 C548 1.287 . S
C549 C550 1.524 . S
C549 H552 0.999 . S
C550 H520 0.950 . S
C550 C549 1.524 . S
C550 C551 1.415 . S
C551 H521 0.950 . S
C551 C546 1.363 . S
C551 C550 1.415 . S
H552 C549 0.999 . S
H553 C534 0.913 . S
H554 C572 0.951 . S
H555 C574 0.951 . S
H556 C576 0.950 . S
H557 C577 0.950 . S
H558 C579 0.950 . S
H559 C582 0.950 . S
H560 C583 0.950 . S
H561 C585 0.950 . S
H562 C586 0.950 . S
H563 C587 0.951 . S
H564 C589 0.951 . S
H565 C591 0.950 . S
H566 C592 0.950 . S
H567 C594 0.950 . S
H568 C597 0.950 . S
H569 C598 0.950 . S
H570 C600 0.950 . S
H571 C601 0.950 . S
C572 H554 0.951 . S
C572 C573 1.366 . S
C572 C574 1.388 . S
C573 C572 1.366 . S
C573 C577 1.385 . S
C574 H555 0.951 . S
C574 C572 1.388 . S
C574 C575 1.366 . S
C575 C574 1.366 . S
C575 C576 1.414 . S
C575 C578 1.499 . S
C576 H556 0.950 . S
C576 C575 1.414 . S
C576 C577 1.374 . S
C577 H557 0.950 . S
C577 C573 1.385 . S
C577 C576 1.374 . S
C578 C575 1.499 . S
C578 C579 1.373 . S
C578 C580 1.389 . S
C579 H558 0.950 . S
C579 C578 1.373 . S
C579 C595 1.377 . S
C580 C578 1.389 . S
C580 C581 1.524 . S
C580 C594 1.377 . S
C581 C580 1.524 . S
C581 C582 1.397 . S
C581 C586 1.363 . S
C582 H559 0.950 . S
C582 C581 1.397 . S
C582 C583 1.334 . S
C583 H560 0.950 . S
C583 C582 1.334 . S
C583 C584 1.287 . S
C584 C583 1.287 . S
C584 C585 1.524 . S
C584 H603 0.913 . S
C585 H561 0.950 . S
C585 C584 1.524 . S
C585 C586 1.415 . S
C586 H562 0.950 . S
C586 C581 1.363 . S
C586 C585 1.415 . S
C587 H563 0.951 . S
C587 C588 1.366 . S
C587 C589 1.388 . S
C588 C587 1.366 . S
C588 C592 1.385 . S
C589 H564 0.951 . S
C589 C587 1.388 . S
C589 C590 1.366 . S
C590 C589 1.366 . S
C590 C591 1.414 . S
C590 C593 1.499 . S
C591 H565 0.950 . S
C591 C590 1.414 . S
C591 C592 1.374 . S
C592 H566 0.950 . S
C592 C588 1.385 . S
C592 C591 1.374 . S
C593 C590 1.499 . S
C593 C594 1.373 . S
C593 C595 1.389 . S
C594 H567 0.950 . S
C594 C580 1.377 . S
C594 C593 1.373 . S
C595 C579 1.377 . S
C595 C593 1.389 . S
C595 C596 1.524 . S
C596 C595 1.524 . S
C596 C597 1.397 . S
C596 C601 1.363 . S
C597 H568 0.950 . S
C597 C596 1.397 . S
C597 C598 1.334 . S
C598 H569 0.950 . S
C598 C597 1.334 . S
C598 C599 1.287 . S
C599 C598 1.287 . S
C599 C600 1.524 . S
C599 H602 0.999 . S
C600 H570 0.950 . S
C600 C599 1.524 . S
C600 C601 1.415 . S
C601 H571 0.950 . S
C601 C596 1.363 . S
C601 C600 1.415 . S
H602 C599 0.999 . S
H603 C584 0.913 . S
H604 C622 0.951 . S
H605 C624 0.951 . S
H606 C626 0.950 . S
H607 C627 0.950 . S
H608 C629 0.950 . S
H609 C632 0.950 . S
H610 C633 0.950 . S
H611 C635 0.950 . S
H612 C636 0.950 . S
H613 C637 0.951 . S
H614 C639 0.951 . S
H615 C641 0.950 . S
H616 C642 0.950 . S
H617 C644 0.950 . S
H618 C647 0.950 . S
H619 C648 0.950 . S
H620 C650 0.950 . S
H621 C651 0.950 . S
C622 H604 0.951 . S
C622 C623 1.366 . S
C622 C624 1.388 . S
C623 C622 1.366 . S
C623 C627 1.385 . S
C624 H605 0.951 . S
C624 C622 1.388 . S
C624 C625 1.366 . S
C625 C624 1.366 . S
C625 C626 1.414 . S
C625 C628 1.499 . S
C626 H606 0.950 . S
C626 C625 1.414 . S
C626 C627 1.374 . S
C627 H607 0.950 . S
C627 C623 1.385 . S
C627 C626 1.374 . S
C628 C625 1.499 . S
C628 C629 1.373 . S
C628 C630 1.389 . S
C629 H608 0.950 . S
C629 C628 1.373 . S
C629 C645 1.377 . S
C630 C628 1.389 . S
C630 C631 1.524 . S
C630 C644 1.377 . S
C631 C630 1.524 . S
C631 C632 1.397 . S
C631 C636 1.363 . S
C632 H609 0.950 . S
C632 C631 1.397 . S
C632 C633 1.334 . S
C633 H610 0.950 . S
C633 C632 1.334 . S
C633 C634 1.287 . S
C634 C633 1.287 . S
C634 C635 1.524 . S
C634 H653 0.913 . S
C635 H611 0.950 . S
C635 C634 1.524 . S
C635 C636 1.415 . S
C636 H612 0.950 . S
C636 C631 1.363 . S
C636 C635 1.415 . S
C637 H613 0.951 . S
C637 C638 1.366 . S
C637 C639 1.388 . S
C638 C637 1.366 . S
C638 C642 1.385 . S
C639 H614 0.951 . S
C639 C637 1.388 . S
C639 C640 1.366 . S
C640 C639 1.366 . S
C640 C641 1.414 . S
C640 C643 1.499 . S
C641 H615 0.950 . S
C641 C640 1.414 . S
C641 C642 1.374 . S
C642 H616 0.950 . S
C642 C638 1.385 . S
C642 C641 1.374 . S
C643 C640 1.499 . S
C643 C644 1.373 . S
C643 C645 1.389 . S
C644 H617 0.950 . S
C644 C630 1.377 . S
C644 C643 1.373 . S
C645 C629 1.377 . S
C645 C643 1.389 . S
C645 C646 1.524 . S
C646 C645 1.524 . S
C646 C647 1.397 . S
C646 C651 1.363 . S
C647 H618 0.950 . S
C647 C646 1.397 . S
C647 C648 1.334 . S
C648 H619 0.950 . S
C648 C647 1.334 . S
C648 C649 1.287 . S
C649 C648 1.287 . S
C649 C650 1.524 . S
C649 H652 0.999 . S
C650 H620 0.950 . S
C650 C649 1.524 . S
C650 C651 1.415 . S
C651 H621 0.950 . S
C651 C646 1.363 . S
C651 C650 1.415 . S
H652 C649 0.999 . S
H653 C634 0.913 . S
H654 C672 0.951 . S
H655 C674 0.951 . S
H656 C676 0.950 . S
H657 C677 0.950 . S
H658 C679 0.950 . S
H659 C682 0.950 . S
H660 C683 0.950 . S
H661 C685 0.950 . S
H662 C686 0.950 . S
H663 C687 0.951 . S
H664 C689 0.951 . S
H665 C691 0.950 . S
H666 C692 0.950 . S
H667 C694 0.950 . S
H668 C697 0.950 . S
H669 C698 0.950 . S
H670 C700 0.950 . S
H671 C701 0.950 . S
C672 H654 0.951 . S
C672 C673 1.366 . S
C672 C674 1.388 . S
C673 C672 1.366 . S
C673 C677 1.385 . S
C674 H655 0.951 . S
C674 C672 1.388 . S
C674 C675 1.366 . S
C675 C674 1.366 . S
C675 C676 1.414 . S
C675 C678 1.499 . S
C676 H656 0.950 . S
C676 C675 1.414 . S
C676 C677 1.374 . S
C677 H657 0.950 . S
C677 C673 1.385 . S
C677 C676 1.374 . S
C678 C675 1.499 . S
C678 C679 1.373 . S
C678 C680 1.389 . S
C679 H658 0.950 . S
C679 C678 1.373 . S
C679 C695 1.377 . S
C680 C678 1.389 . S
C680 C681 1.524 . S
C680 C694 1.377 . S
C681 C680 1.524 . S
C681 C682 1.397 . S
C681 C686 1.363 . S
C682 H659 0.950 . S
C682 C681 1.397 . S
C682 C683 1.334 . S
C683 H660 0.950 . S
C683 C682 1.334 . S
C683 C684 1.287 . S
C684 C683 1.287 . S
C684 C685 1.524 . S
C684 H703 0.913 . S
C685 H661 0.950 . S
C685 C684 1.524 . S
C685 C686 1.415 . S
C686 H662 0.950 . S
C686 C681 1.363 . S
C686 C685 1.415 . S
C687 H663 0.951 . S
C687 C688 1.366 . S
C687 C689 1.388 . S
C688 C687 1.366 . S
C688 C692 1.385 . S
C689 H664 0.951 . S
C689 C687 1.388 . S
C689 C690 1.366 . S
C690 C689 1.366 . S
C690 C691 1.414 . S
C690 C693 1.499 . S
C691 H665 0.950 . S
C691 C690 1.414 . S
C691 C692 1.374 . S
C692 H666 0.950 . S
C692 C688 1.385 . S
C692 C691 1.374 . S
C693 C690 1.499 . S
C693 C694 1.373 . S
C693 C695 1.389 . S
C694 H667 0.950 . S
C694 C680 1.377 . S
C694 C693 1.373 . S
C695 C679 1.377 . S
C695 C693 1.389 . S
C695 C696 1.524 . S
C696 C695 1.524 . S
C696 C697 1.397 . S
C696 C701 1.363 . S
C697 H668 0.950 . S
C697 C696 1.397 . S
C697 C698 1.334 . S
C698 H669 0.950 . S
C698 C697 1.334 . S
C698 C699 1.287 . S
C699 C698 1.287 . S
C699 C700 1.524 . S
C699 H702 0.999 . S
C700 H670 0.950 . S
C700 C699 1.524 . S
C700 C701 1.415 . S
C701 H671 0.950 . S
C701 C696 1.363 . S
C701 C700 1.415 . S
H702 C699 0.999 . S
H703 C684 0.913 . S
H704 C722 0.951 . S
H705 C724 0.951 . S
H706 C726 0.950 . S
H707 C727 0.950 . S
H708 C729 0.950 . S
H709 C732 0.950 . S
H710 C733 0.950 . S
H711 C735 0.950 . S
H712 C736 0.950 . S
H713 C737 0.951 . S
H714 C739 0.951 . S
H715 C741 0.950 . S
H716 C742 0.950 . S
H717 C744 0.950 . S
H718 C747 0.950 . S
H719 C748 0.950 . S
H720 C750 0.950 . S
H721 C751 0.950 . S
C722 H704 0.951 . S
C722 C723 1.366 . S
C722 C724 1.388 . S
C723 C722 1.366 . S
C723 C727 1.385 . S
C724 H705 0.951 . S
C724 C722 1.388 . S
C724 C725 1.366 . S
C725 C724 1.366 . S
C725 C726 1.414 . S
C725 C728 1.499 . S
C726 H706 0.950 . S
C726 C725 1.414 . S
C726 C727 1.374 . S
C727 H707 0.950 . S
C727 C723 1.385 . S
C727 C726 1.374 . S
C728 C725 1.499 . S
C728 C729 1.373 . S
C728 C730 1.389 . S
C729 H708 0.950 . S
C729 C728 1.373 . S
C729 C745 1.377 . S
C730 C728 1.389 . S
C730 C731 1.524 . S
C730 C744 1.377 . S
C731 C730 1.524 . S
C731 C732 1.397 . S
C731 C736 1.363 . S
C732 H709 0.950 . S
C732 C731 1.397 . S
C732 C733 1.334 . S
C733 H710 0.950 . S
C733 C732 1.334 . S
C733 C734 1.287 . S
C734 C733 1.287 . S
C734 C735 1.524 . S
C734 H753 0.913 . S
C735 H711 0.950 . S
C735 C734 1.524 . S
C735 C736 1.415 . S
C736 H712 0.950 . S
C736 C731 1.363 . S
C736 C735 1.415 . S
C737 H713 0.951 . S
C737 C738 1.366 . S
C737 C739 1.388 . S
C738 C737 1.366 . S
C738 C742 1.385 . S
C739 H714 0.951 . S
C739 C737 1.388 . S
C739 C740 1.366 . S
C740 C739 1.366 . S
C740 C741 1.414 . S
C740 C743 1.499 . S
C741 H715 0.950 . S
C741 C740 1.414 . S
C741 C742 1.374 . S
C742 H716 0.950 . S
C742 C738 1.385 . S
C742 C741 1.374 . S
C743 C740 1.499 . S
C743 C744 1.373 . S
C743 C745 1.389 . S
C744 H717 0.950 . S
C744 C730 1.377 . S
C744 C743 1.373 . S
C745 C729 1.377 . S
C745 C743 1.389 . S
C745 C746 1.524 . S
C746 C745 1.524 . S
C746 C747 1.397 . S
C746 C751 1.363 . S
C747 H718 0.950 . S
C747 C746 1.397 . S
C747 C748 1.334 . S
C748 H719 0.950 . S
C748 C747 1.334 . S
C748 C749 1.287 . S
C749 C748 1.287 . S
C749 C750 1.524 . S
C749 H752 0.999 . S
C750 H720 0.950 . S
C750 C749 1.524 . S
C750 C751 1.415 . S
C751 H721 0.950 . S
C751 C746 1.363 . S
C751 C750 1.415 . S
H752 C749 0.999 . S
H753 C734 0.913 . S
H754 C772 0.951 . S
H755 C774 0.951 . S
H756 C776 0.950 . S
H757 C777 0.950 . S
H758 C779 0.950 . S
H759 C782 0.950 . S
H760 C783 0.950 . S
H761 C785 0.950 . S
H762 C786 0.950 . S
H763 C787 0.951 . S
H764 C789 0.951 . S
H765 C791 0.950 . S
H766 C792 0.950 . S
H767 C794 0.950 . S
H768 C797 0.950 . S
H769 C798 0.950 . S
H770 C800 0.950 . S
H771 C801 0.950 . S
C772 H754 0.951 . S
C772 C773 1.366 . S
C772 C774 1.388 . S
C773 C772 1.366 . S
C773 C777 1.385 . S
C774 H755 0.951 . S
C774 C772 1.388 . S
C774 C775 1.366 . S
C775 C774 1.366 . S
C775 C776 1.414 . S
C775 C778 1.499 . S
C776 H756 0.950 . S
C776 C775 1.414 . S
C776 C777 1.374 . S
C777 H757 0.950 . S
C777 C773 1.385 . S
C777 C776 1.374 . S
C778 C775 1.499 . S
C778 C779 1.373 . S
C778 C780 1.389 . S
C779 H758 0.950 . S
C779 C778 1.373 . S
C779 C795 1.377 . S
C780 C778 1.389 . S
C780 C781 1.524 . S
C780 C794 1.377 . S
C781 C780 1.524 . S
C781 C782 1.397 . S
C781 C786 1.363 . S
C782 H759 0.950 . S
C782 C781 1.397 . S
C782 C783 1.334 . S
C783 H760 0.950 . S
C783 C782 1.334 . S
C783 C784 1.287 . S
C784 C783 1.287 . S
C784 C785 1.524 . S
C784 H803 0.913 . S
C785 H761 0.950 . S
C785 C784 1.524 . S
C785 C786 1.415 . S
C786 H762 0.950 . S
C786 C781 1.363 . S
C786 C785 1.415 . S
C787 H763 0.951 . S
C787 C788 1.366 . S
C787 C789 1.388 . S
C788 C787 1.366 . S
C788 C792 1.385 . S
C789 H764 0.951 . S
C789 C787 1.388 . S
C789 C790 1.366 . S
C790 C789 1.366 . S
C790 C791 1.414 . S
C790 C793 1.499 . S
C791 H765 0.950 . S
C791 C790 1.414 . S
C791 C792 1.374 . S
C792 H766 0.950 . S
C792 C788 1.385 . S
C792 C791 1.374 . S
C793 C790 1.499 . S
C793 C794 1.373 . S
C793 C795 1.389 . S
C794 H767 0.950 . S
C794 C780 1.377 . S
C794 C793 1.373 . S
C795 C779 1.377 . S
C795 C793 1.389 . S
C795 C796 1.524 . S
C796 C795 1.524 . S
C796 C797 1.397 . S
C796 C801 1.363 . S
C797 H768 0.950 . S
C797 C796 1.397 . S
C797 C798 1.334 . S
C798 H769 0.950 . S
C798 C797 1.334 . S
C798 C799 1.287 . S
C799 C798 1.287 . S
C799 C800 1.524 . S
C799 H802 0.999 . S
C800 H770 0.950 . S
C800 C799 1.524 . S
C800 C801 1.415 . S
C801 H771 0.950 . S
C801 C796 1.363 . S
C801 C800 1.415 . S
H802 C799 0.999 . S
H803 C784 0.913 . S
H804 C822 0.951 . S
H805 C824 0.951 . S
H806 C826 0.950 . S
H807 C827 0.950 . S
H808 C829 0.950 . S
H809 C832 0.950 . S
H810 C833 0.950 . S
H811 C835 0.950 . S
H812 C836 0.950 . S
H813 C837 0.951 . S
H814 C839 0.951 . S
H815 C841 0.950 . S
H816 C842 0.950 . S
H817 C844 0.950 . S
H818 C847 0.950 . S
H819 C848 0.950 . S
H820 C850 0.950 . S
H821 C851 0.950 . S
C822 H804 0.951 . S
C822 C823 1.366 . S
C822 C824 1.388 . S
C823 C822 1.366 . S
C823 C827 1.385 . S
C824 H805 0.951 . S
C824 C822 1.388 . S
C824 C825 1.366 . S
C825 C824 1.366 . S
C825 C826 1.414 . S
C825 C828 1.499 . S
C826 H806 0.950 . S
C826 C825 1.414 . S
C826 C827 1.374 . S
C827 H807 0.950 . S
C827 C823 1.385 . S
C827 C826 1.374 . S
C828 C825 1.499 . S
C828 C829 1.373 . S
C828 C830 1.389 . S
C829 H808 0.950 . S
C829 C828 1.373 . S
C829 C845 1.377 . S
C830 C828 1.389 . S
C830 C831 1.524 . S
C830 C844 1.377 . S
C831 C830 1.524 . S
C831 C832 1.397 . S
C831 C836 1.363 . S
C832 H809 0.950 . S
C832 C831 1.397 . S
C832 C833 1.334 . S
C833 H810 0.950 . S
C833 C832 1.334 . S
C833 C834 1.287 . S
C834 C833 1.287 . S
C834 C835 1.524 . S
C834 H853 0.913 . S
C835 H811 0.950 . S
C835 C834 1.524 . S
C835 C836 1.415 . S
C836 H812 0.950 . S
C836 C831 1.363 . S
C836 C835 1.415 . S
C837 H813 0.951 . S
C837 C838 1.366 . S
C837 C839 1.388 . S
C838 C837 1.366 . S
C838 C842 1.385 . S
C839 H814 0.951 . S
C839 C837 1.388 . S
C839 C840 1.366 . S
C840 C839 1.366 . S
C840 C841 1.414 . S
C840 C843 1.499 . S
C841 H815 0.950 . S
C841 C840 1.414 . S
C841 C842 1.374 . S
C842 H816 0.950 . S
C842 C838 1.385 . S
C842 C841 1.374 . S
C843 C840 1.499 . S
C843 C844 1.373 . S
C843 C845 1.389 . S
C844 H817 0.950 . S
C844 C830 1.377 . S
C844 C843 1.373 . S
C845 C829 1.377 . S
C845 C843 1.389 . S
C845 C846 1.524 . S
C846 C845 1.524 . S
C846 C847 1.397 . S
C846 C851 1.363 . S
C847 H818 0.950 . S
C847 C846 1.397 . S
C847 C848 1.334 . S
C848 H819 0.950 . S
C848 C847 1.334 . S
C848 C849 1.287 . S
C849 C848 1.287 . S
C849 C850 1.524 . S
C849 H852 0.999 . S
C850 H820 0.950 . S
C850 C849 1.524 . S
C850 C851 1.415 . S
C851 H821 0.950 . S
C851 C846 1.363 . S
C851 C850 1.415 . S
H852 C849 0.999 . S
H853 C834 0.913 . S
H854 C872 0.951 . S
H855 C874 0.951 . S
H856 C876 0.950 . S
H857 C877 0.950 . S
H858 C879 0.950 . S
H859 C882 0.950 . S
H860 C883 0.950 . S
H861 C885 0.950 . S
H862 C886 0.950 . S
H863 C887 0.951 . S
H864 C889 0.951 . S
H865 C891 0.950 . S
H866 C892 0.950 . S
H867 C894 0.950 . S
H868 C897 0.950 . S
H869 C898 0.950 . S
H870 C900 0.950 . S
H871 C901 0.950 . S
C872 H854 0.951 . S
C872 C873 1.366 . S
C872 C874 1.388 . S
C873 C872 1.366 . S
C873 C877 1.385 . S
C874 H855 0.951 . S
C874 C872 1.388 . S
C874 C875 1.366 . S
C875 C874 1.366 . S
C875 C876 1.414 . S
C875 C878 1.499 . S
C876 H856 0.950 . S
C876 C875 1.414 . S
C876 C877 1.374 . S
C877 H857 0.950 . S
C877 C873 1.385 . S
C877 C876 1.374 . S
C878 C875 1.499 . S
C878 C879 1.373 . S
C878 C880 1.389 . S
C879 H858 0.950 . S
C879 C878 1.373 . S
C879 C895 1.377 . S
C880 C878 1.389 . S
C880 C881 1.524 . S
C880 C894 1.377 . S
C881 C880 1.524 . S
C881 C882 1.397 . S
C881 C886 1.363 . S
C882 H859 0.950 . S
C882 C881 1.397 . S
C882 C883 1.334 . S
C883 H860 0.950 . S
C883 C882 1.334 . S
C883 C884 1.287 . S
C884 C883 1.287 . S
C884 C885 1.524 . S
C884 H903 0.913 . S
C885 H861 0.950 . S
C885 C884 1.524 . S
C885 C886 1.415 . S
C886 H862 0.950 . S
C886 C881 1.363 . S
C886 C885 1.415 . S
C887 H863 0.951 . S
C887 C888 1.366 . S
C887 C889 1.388 . S
C888 C887 1.366 . S
C888 C892 1.385 . S
C889 H864 0.951 . S
C889 C887 1.388 . S
C889 C890 1.366 . S
C890 C889 1.366 . S
C890 C891 1.414 . S
C890 C893 1.499 . S
C891 H865 0.950 . S
C891 C890 1.414 . S
C891 C892 1.374 . S
C892 H866 0.950 . S
C892 C888 1.385 . S
C892 C891 1.374 . S
C893 C890 1.499 . S
C893 C894 1.373 . S
C893 C895 1.389 . S
C894 H867 0.950 . S
C894 C880 1.377 . S
C894 C893 1.373 . S
C895 C879 1.377 . S
C895 C893 1.389 . S
C895 C896 1.524 . S
C896 C895 1.524 . S
C896 C897 1.397 . S
C896 C901 1.363 . S
C897 H868 0.950 . S
C897 C896 1.397 . S
C897 C898 1.334 . S
C898 H869 0.950 . S
C898 C897 1.334 . S
C898 C899 1.287 . S
C899 C898 1.287 . S
C899 C900 1.524 . S
C899 H902 0.999 . S
C900 H870 0.950 . S
C900 C899 1.524 . S
C900 C901 1.415 . S
C901 H871 0.950 . S
C901 C896 1.363 . S
C901 C900 1.415 . S
H902 C899 0.999 . S
H903 C884 0.913 . S
C123 C5 1.418 . S
C138 C44 1.418 . S
C173 C10 1.445 . S
C188 C23 1.445 . S
C223 C18 1.418 . S
C238 C31 1.417 . S
C273 C49 1.445 . S
C288 C36 1.445 . S
C323 C57 1.417 . S
C338 C96 1.418 . S
C373 C75 1.445 . S
C388 C62 1.445 . S
C423 C83 1.418 . S
C438 C70 1.417 . S
C473 C101 1.445 . S
C488 C88 1.445 . S
C523 C86 1.381 . S
C538 C0 1.381 . S
C573 C21 1.381 . S
C588 C91 1.381 . S
C623 C60 1.382 . S
C638 C26 1.381 . S
C673 C65 1.381 . S
C688 C47 1.381 . S
C723 C73 1.382 . S
C738 C39 1.381 . S
C773 C8 1.382 . S
C788 C78 1.381 . S
C823 C13 1.381 . S
C838 C99 1.382 . S
C873 C34 1.381 . S
C888 C52 1.381 . S
