# Generated by pormake.
# Topology smc, (6)-cn, num edge types: 1
# Building blocks:
#     Node 0, Type 0, BuildingBlock: PAMTUU_clean_sbu_0, # of connection points: 6
#     Node 1, Type 0, BuildingBlock: PAMTUU_clean_sbu_0, # of connection points: 6
#     Node 2, Type 0, BuildingBlock: PAMTUU_clean_sbu_0, # of connection points: 6
#     Node 3, Type 0, BuildingBlock: PAMTUU_clean_sbu_0, # of connection points: 6
#     Node 4, Type 0, BuildingBlock: PAMTUU_clean_sbu_0, # of connection points: 6
#     Node 5, Type 0, BuildingBlock: PAMTUU_clean_sbu_0, # of connection points: 6
#     Node 6, Type 0, BuildingBlock: PAMTUU_clean_sbu_0, # of connection points: 6
#     Node 7, Type 0, BuildingBlock: PAMTUU_clean_sbu_0, # of connection points: 6
#     Node 8, Type 0, BuildingBlock: PAMTUU_clean_sbu_0, # of connection points: 6
#     Edge 9, Type (0, 0), BuildingBlock: XIVTED_clean_linker_0, # of connection points: 2
#     Edge 10, Type (0, 0), BuildingBlock: XIVTED_clean_linker_0, # of connection points: 2
#     Edge 11, Type (0, 0), BuildingBlock: XIVTED_clean_linker_0, # of connection points: 2
#     Edge 12, Type (0, 0), BuildingBlock: XIVTED_clean_linker_0, # of connection points: 2
#     Edge 13, Type (0, 0), BuildingBlock: XIVTED_clean_linker_0, # of connection points: 2
#     Edge 14, Type (0, 0), BuildingBlock: XIVTED_clean_linker_0, # of connection points: 2
#     Edge 15, Type (0, 0), BuildingBlock: XIVTED_clean_linker_0, # of connection points: 2
#     Edge 16, Type (0, 0), BuildingBlock: XIVTED_clean_linker_0, # of connection points: 2
#     Edge 17, Type (0, 0), BuildingBlock: XIVTED_clean_linker_0, # of connection points: 2
#     Edge 18, Type (0, 0), BuildingBlock: XIVTED_clean_linker_0, # of connection points: 2
#     Edge 19, Type (0, 0), BuildingBlock: XIVTED_clean_linker_0, # of connection points: 2
#     Edge 20, Type (0, 0), BuildingBlock: XIVTED_clean_linker_0, # of connection points: 2
#     Edge 21, Type (0, 0), BuildingBlock: XIVTED_clean_linker_0, # of connection points: 2
#     Edge 22, Type (0, 0), BuildingBlock: XIVTED_clean_linker_0, # of connection points: 2
#     Edge 23, Type (0, 0), BuildingBlock: XIVTED_clean_linker_0, # of connection points: 2
#     Edge 24, Type (0, 0), BuildingBlock: XIVTED_clean_linker_0, # of connection points: 2
#     Edge 25, Type (0, 0), BuildingBlock: XIVTED_clean_linker_0, # of connection points: 2
#     Edge 26, Type (0, 0), BuildingBlock: XIVTED_clean_linker_0, # of connection points: 2
#     Edge 27, Type (0, 0), BuildingBlock: XIVTED_clean_linker_0, # of connection points: 2
#     Edge 28, Type (0, 0), BuildingBlock: XIVTED_clean_linker_0, # of connection points: 2
#     Edge 29, Type (0, 0), BuildingBlock: XIVTED_clean_linker_0, # of connection points: 2
#     Edge 30, Type (0, 0), BuildingBlock: XIVTED_clean_linker_0, # of connection points: 2
#     Edge 31, Type (0, 0), BuildingBlock: XIVTED_clean_linker_0, # of connection points: 2
#     Edge 32, Type (0, 0), BuildingBlock: XIVTED_clean_linker_0, # of connection points: 2
#     Edge 33, Type (0, 0), BuildingBlock: XIVTED_clean_linker_0, # of connection points: 2
#     Edge 34, Type (0, 0), BuildingBlock: XIVTED_clean_linker_0, # of connection points: 2
#     Edge 35, Type (0, 0), BuildingBlock: XIVTED_clean_linker_0, # of connection points: 2
# Relax obj value: 0.298
# Max RMSD: 0.346
# Mean RMSD: 0.309
data_MOF--net-smc--node1-PAMTUU_clean_sbu_0--edge1-XIVTED_clean_linker_0
_symmetry_space_group_name_H-M    P1
_symmetry_Int_Tables_number       1
_symmetry_cell_setting            triclinic
loop_
_symmetry_equiv_pos_as_xyz
'x, y, z'
_cell_length_a     42.750649
_cell_length_b     31.890655
_cell_length_c     39.812405
_cell_angle_alpha  90.231745
_cell_angle_beta   90.209114
_cell_angle_gamma 119.07425
loop_
_atom_site_label
_atom_site_type_symbol
_atom_site_fract_x
_atom_site_fract_y
_atom_site_fract_z
_atom_type_partial_charge
Tb0 Tb 0.08185 0.40907 0.9946 0.0
Tb1 Tb 0.05803 0.48533 0.01857 0.0
C2 C 1.03201 0.43058 0.94797 0.0
C3 C 0.14522 0.37003 0.99074 0.0
C4 C 0.21517 0.44387 1.00177 0.0
C5 C 0.2059 0.41822 0.97121 0.0
C6 C 0.17106 0.38121 0.96577 0.0
C7 C 0.1564 0.38955 0.0232 0.0
C8 C 0.19111 0.42672 0.02859 0.0
C9 C 0.10871 0.35719 0.98004 0.0
O10 O 0.13057 0.48001 0.99779 0.0
O11 O 0.10352 0.52447 0.98624 0.0
O12 O 0.09852 0.48941 0.05554 0.0
O13 O 0.08591 0.41208 0.04894 0.0
O14 O 1.03954 0.53428 1.00841 0.0
O15 O 1.05243 0.52358 0.05885 0.0
O16 O 1.02015 0.41724 0.04018 0.0
O17 O 1.02395 0.36743 1.00085 0.0
O18 O 0.05957 0.42301 0.94956 0.0
O19 O 1.02369 0.44927 0.97395 0.0
C20 C 0.13254 0.52065 0.98812 0.0
O21 O 0.08519 0.34635 1.00389 0.0
O22 O 0.10778 0.38805 0.95919 0.0
C23 C 0.09997 0.45155 0.06687 0.0
C24 C 1.00532 0.5403 0.05246 0.0
C25 C 0.94241 0.53437 0.07904 0.0
C26 C 0.97393 0.57887 0.07685 0.0
C27 C 1.00511 0.58175 0.06371 0.0
C28 C 0.97405 0.49573 0.05446 0.0
C29 C 0.94275 0.49278 0.06761 0.0
C30 C 1.03874 0.5439 0.04011 0.0
C31 C 1.00621 0.37591 0.02437 0.0
H32 H 0.22457 0.42966 0.95051 0.0
H33 H 0.16321 0.36639 0.94067 0.0
H34 H 0.13725 0.3811 0.04326 0.0
H35 H 0.19769 0.44521 0.05261 0.0
H36 H 0.97439 0.61169 0.08479 0.0
H37 H 1.02911 0.61637 0.06239 0.0
H38 H 0.97394 0.46328 0.04607 0.0
H39 H 0.91898 0.45798 0.06912 0.0
Tb40 Tb 0.64638 0.65468 0.02954 0.0
Tb41 Tb 0.57774 0.61701 0.98677 0.0
C42 C 0.58081 0.61866 0.06592 0.0
C43 C 0.71496 0.65882 0.08798 0.0
C44 C 0.74959 0.60989 0.11345 0.0
C45 C 0.76735 0.66038 0.11267 0.0
C46 C 0.75015 0.68461 0.09993 0.0
C47 C 0.6961 0.60873 0.09121 0.0
C48 C 0.71329 0.58441 0.10392 0.0
C49 C 0.70051 0.68332 0.06729 0.0
O50 O 0.63109 0.57578 0.0198 0.0
O51 O 0.57521 0.54733 0.99662 0.0
O52 O 0.62012 0.6241 0.95051 0.0
O53 O 0.66778 0.68009 0.98001 0.0
O54 O 0.52212 0.573 0.98406 0.0
O55 O 0.5513 0.61998 0.94309 0.0
O56 O 0.59569 0.69394 0.98522 0.0
O57 O 0.63027 0.71426 0.03219 0.0
O58 O 0.6026 0.60316 0.05819 0.0
O59 O 0.57015 0.63445 0.04015 0.0
C60 C 0.60023 0.53853 1.00864 0.0
O61 O 0.70061 0.67542 0.03516 0.0
O62 O 0.67038 0.68042 0.07689 0.0
C63 C 0.65465 0.65625 0.95207 0.0
C64 C 0.49743 0.61607 0.95865 0.0
C65 C 0.44925 0.65076 0.9693 0.0
C66 C 0.44415 0.61917 0.94234 0.0
C67 C 0.46811 0.60187 0.93711 0.0
C68 C 0.50425 0.65056 0.98376 0.0
C69 C 0.48044 0.66803 0.98894 0.0
C70 C 0.52 0.59346 0.95644 0.0
C71 C 0.611 0.72431 1.01008 0.0
H72 H 0.7954 0.68114 0.1194 0.0
H73 H 0.76511 0.72326 0.09735 0.0
H74 H 0.66884 0.58829 0.082 0.0
H75 H 0.69878 0.54557 0.10459 0.0
H76 H 0.42009 0.60455 0.92704 0.0
H77 H 0.46272 0.57557 0.91746 0.0
H78 H 0.52696 0.66207 1.00054 0.0
H79 H 0.4851 0.69241 1.00976 0.0
Tb80 Tb 0.49036 1.05012 1.01164 0.0
Tb81 Tb 0.56631 0.10728 0.04392 0.0
C82 C 0.55032 0.10086 0.9641 0.0
C83 C 0.39862 0.95162 0.9889 0.0
C84 C 0.34493 0.85336 0.98506 0.0
C85 C 0.3809 0.8664 0.99213 0.0
C86 C 0.40743 0.91497 0.99403 0.0
C87 C 0.36286 0.93885 0.98224 0.0
C88 C 0.33639 0.89049 0.9804 0.0
C89 C 0.42606 1.00315 0.99071 0.0
O90 O 0.50885 0.99425 1.00996 0.0
O91 O 0.55677 1.0325 0.04503 0.0
O92 O 0.52773 0.09157 0.08622 0.0
O93 O 0.48399 1.02399 0.06257 0.0
O94 O 0.61498 0.10764 0.04302 0.0
O95 O 0.60768 0.15605 0.07629 0.0
O96 O 0.56081 0.1704 0.03758 0.0
O97 O 0.50543 0.1317 1.01208 0.0
O98 O 0.52442 0.05843 0.97042 0.0
O99 O 0.56847 0.12887 0.9897 0.0
C100 C 0.53607 0.99451 0.02665 0.0
O101 O 0.43519 1.02187 0.02066 0.0
O102 O 0.45398 1.01704 0.97164 0.0
C103 C 0.49629 1.05226 0.08864 0.0
C104 C 0.66712 0.17967 0.05689 0.0
C105 C 0.74208 0.23198 0.04851 0.0
C106 C 0.72622 0.23563 0.07856 0.0
C107 C 0.68912 0.20934 0.08279 0.0
C108 C 0.68256 0.17941 0.02582 0.0
C109 C 0.71961 0.20496 0.02176 0.0
C110 C 0.63009 0.14287 0.06456 0.0
C111 C 0.53407 0.17292 0.02343 0.0
H112 H 0.38873 0.83912 0.99565 0.0
H113 H 0.43484 0.92389 0.99935 0.0
H114 H 0.35532 0.9664 0.97851 0.0
H115 H 0.30904 0.88228 0.97565 0.0
H116 H 0.74251 0.25722 0.09939 0.0
H117 H 0.67785 0.21014 0.10696 0.0
H118 H 0.66632 0.15694 1.00525 0.0
H119 H 0.73055 0.20083 0.9983 0.0
Tb120 Tb 0.74919 0.78281 0.34062 0.0
Tb121 Tb 0.68797 0.8213 0.36352 0.0
C122 C 0.69176 0.77632 0.28769 0.0
C123 C 0.85172 0.80046 0.33542 0.0
C124 C 0.9291 0.82962 0.33359 0.0
C125 C 0.90583 0.80862 0.30547 0.0
C126 C 0.86829 0.79403 0.30647 0.0
C127 C 0.87497 0.82151 0.36342 0.0
C128 C 0.91218 0.83488 0.36273 0.0
C129 C 0.81258 0.79212 0.33535 0.0
O130 O 0.76017 0.85311 0.32323 0.0
O131 O 0.74099 0.88143 0.36581 0.0
O132 O 0.72087 0.82663 0.40901 0.0
O133 O 0.73771 0.7706 0.39369 0.0
O134 O 0.6694 0.86974 0.35072 0.0
O135 O 0.64603 0.82152 0.39245 0.0
O136 O 0.66128 0.74579 0.37351 0.0
O137 O 0.69459 0.71615 0.3446 0.0
O138 O 0.71998 0.7706 0.29387 0.0
O139 O 0.67855 0.79551 0.30975 0.0
C140 C 0.76497 0.88802 0.34348 0.0
O141 O 0.804 0.81879 0.35404 0.0
O142 O 0.7841 0.75687 0.32062 0.0
C143 C 0.73575 0.79942 0.41619 0.0
C144 C 0.61143 0.85878 0.36976 0.0
C145 C 0.55236 0.87929 0.36358 0.0
C146 C 0.56318 0.86993 0.39501 0.0
C147 C 0.59195 0.85992 0.39799 0.0
C148 C 0.60045 0.86736 0.33821 0.0
C149 C 0.57143 0.87704 0.33516 0.0
C150 C 0.64566 0.85575 0.37469 0.0
C151 C 0.6642 0.71075 0.35902 0.0
H152 H 0.91663 0.80317 0.28234 0.0
H153 H 0.85242 0.77911 0.28391 0.0
H154 H 0.86439 0.82832 0.38623 0.0
H155 H 0.92805 0.85097 0.38512 0.0
H156 H 0.54941 0.87037 0.41766 0.0
H157 H 0.59966 0.85433 0.42281 0.0
H158 H 0.61486 0.86777 0.31579 0.0
H159 H 0.56475 0.88434 0.31042 0.0
Tb160 Tb 0.28864 0.99589 0.34255 0.0
Tb161 Tb 0.25597 0.8882 0.32685 0.0
C162 C 0.30912 0.96872 0.27378 0.0
C163 C 0.29372 0.10017 0.38458 0.0
C164 C 0.25795 0.13866 0.42181 0.0
C165 C 0.29252 0.1687 0.40922 0.0
C166 C 0.31029 0.1495 0.39073 0.0
C167 C 0.26 0.06979 0.39835 0.0
C168 C 0.24228 0.08887 0.41695 0.0
C169 C 0.31101 0.08018 0.36329 0.0
O170 O 0.23153 0.97175 0.32473 0.0
O171 O 0.20985 0.89621 0.34317 0.0
O172 O 0.26976 0.89612 0.38155 0.0
O173 O 0.2591 0.95814 0.38628 0.0
O174 O 0.21361 0.83758 0.29776 0.0
O175 O 0.24619 0.81699 0.32821 0.0
O176 O 0.31087 0.90372 0.3268 0.0
O177 O 0.33343 0.97777 0.35188 0.0
O178 O 0.31628 1.0026 0.29588 0.0
O179 O 0.28242 0.9248 0.27899 0.0
C180 C 0.20325 0.93036 0.33344 0.0
O181 O 0.31785 1.04922 0.37823 0.0
O182 O 0.29636 0.0651 0.33369 0.0
C183 C 0.26597 0.92716 0.40083 0.0
C184 C 0.23121 0.78706 0.27277 0.0
C185 C 0.24704 0.75125 0.21431 0.0
C186 C 0.27325 0.79408 0.2294 0.0
C187 C 0.26551 0.81139 0.25867 0.0
C188 C 0.20386 0.7485 0.25552 0.0
C189 C 0.2115 0.73097 0.22639 0.0
C190 C 0.22308 0.80508 0.30346 0.0
C191 C 0.33768 0.94111 0.34086 0.0
H192 H 0.30507 0.20732 0.41195 0.0
H193 H 0.33638 0.17327 0.38034 0.0
H194 H 0.24693 1.03146 0.39388 0.0
H195 H 0.21581 0.06488 0.42646 0.0
H196 H 0.30054 0.81171 0.22039 0.0
H197 H 0.28667 0.84282 0.27092 0.0
H198 H 0.1768 0.73088 0.26519 0.0
H199 H 0.18986 0.69878 0.21543 0.0
Tb200 Tb 0.13472 0.39405 0.33838 0.0
Tb201 Tb 0.2178 0.46523 0.36952 0.0
C202 C 0.19934 0.43036 0.29374 0.0
C203 C 1.04199 0.29994 0.31574 0.0
C204 C 0.97957 0.21252 0.32529 0.0
C205 C 0.98608 0.23607 0.29429 0.0
C206 C 1.01714 0.27953 0.28957 0.0
C207 C 1.03518 0.27759 0.34714 0.0
C208 C 1.00397 0.23406 0.35195 0.0
C209 C 0.07608 0.34224 0.30881 0.0
O210 O 0.14434 0.35222 0.37556 0.0
O211 O 0.20487 0.39075 0.36669 0.0
O212 O 0.17978 0.44894 0.41351 0.0
O213 O 0.12398 0.41376 0.38693 0.0
O214 O 0.26801 0.52863 0.36701 0.0
O215 O 0.26071 0.47242 0.40062 0.0
O216 O 0.19287 0.50954 0.36187 0.0
O217 O 0.15526 0.46565 0.31886 0.0
O218 O 0.17539 0.39135 0.30803 0.0
O219 O 0.21958 0.46705 0.31349 0.0
C220 C 0.17595 0.35577 0.38011 0.0
O221 O 0.08314 0.3812 0.32544 0.0
O222 O 0.10344 0.3348 0.30772 0.0
C223 C 0.14394 0.43031 0.41413 0.0
C224 C 0.32151 0.52287 0.38014 0.0
C225 C 0.39639 0.54994 0.37183 0.0
C226 C 0.37454 0.51543 0.39573 0.0
C227 C 0.33804 0.50234 0.39983 0.0
C228 C 0.34305 0.55675 0.35586 0.0
C229 C 0.37957 0.5698 0.3517 0.0
C230 C 0.28383 0.51355 0.38792 0.0
C231 C 0.17605 0.50704 0.33355 0.0
H232 H 0.9674 0.22048 0.27353 0.0
H233 H 1.02224 0.29656 0.26519 0.0
H234 H 1.05445 0.29306 0.36748 0.0
H235 H 0.99959 0.21639 0.37601 0.0
H236 H 0.38562 0.49833 0.41157 0.0
H237 H 0.32288 0.47669 0.41914 0.0
H238 H 0.33194 0.57433 0.34051 0.0
H239 H 0.39491 0.59688 0.33329 0.0
Tb240 Tb 0.41815 0.05863 0.68681 0.0
Tb241 Tb 0.39895 0.14354 0.6898 0.0
C242 C 0.37933 0.07374 0.62563 0.0
C243 C 0.47248 1.00682 0.70777 0.0
C244 C 0.54175 0.077 0.72434 0.0
C245 C 0.53588 1.04698 0.6964 0.0
C246 C 0.50123 1.01149 0.68827 0.0
C247 C 0.47972 1.02941 0.73954 0.0
C248 C 0.51434 0.06507 0.74763 0.0
C249 C 0.43958 0.99812 0.69 0.0
O250 O 0.46917 0.1283 0.68646 0.0
O251 O 0.44679 0.17093 0.65991 0.0
O252 O 0.43686 0.15532 0.73226 0.0
O253 O 0.41831 0.07643 0.73924 0.0
O254 O 0.38421 0.19033 0.66618 0.0
O255 O 0.39364 0.19416 0.7195 0.0
O256 O 0.35663 0.08431 0.71632 0.0
O257 O 0.35924 1.02331 0.68858 0.0
O258 O 0.40471 0.06459 0.63528 0.0
O259 O 0.36895 0.09803 0.64565 0.0
C260 C 0.47433 0.16677 0.66956 0.0
O261 O 0.41376 0.99588 0.70858 0.0
O262 O 0.44544 1.02627 0.66434 0.0
C263 C 0.43545 0.12023 0.7509 0.0
C264 C 0.3498 0.21247 0.70068 0.0
C265 C 0.28823 0.21923 0.71658 0.0
C266 C 0.32188 0.26073 0.71445 0.0
C267 C 0.35236 0.25732 0.70657 0.0
C268 C 0.31632 0.17086 0.70242 0.0
C269 C 0.2857 0.17423 0.71019 0.0
C270 C 0.38255 0.20968 0.6945 0.0
C271 C 0.34126 1.03953 0.70627 0.0
H272 H 0.55705 0.05539 0.6784 0.0
H273 H 0.49643 0.99391 0.66397 0.0
H274 H 0.45813 1.02523 0.75569 0.0
H275 H 0.51852 0.08748 0.76956 0.0
H276 H 0.32464 0.29594 0.71869 0.0
H277 H 0.37805 0.28974 0.70539 0.0
H278 H 0.31397 0.13584 0.69821 0.0
H279 H 0.26022 0.14161 0.71188 0.0
Tb280 Tb 0.96749 0.3272 0.69081 0.0
Tb281 Tb 0.89616 0.28922 0.65188 0.0
C282 C 0.90381 0.29009 0.7309 0.0
C283 C 1.04534 0.33477 0.73801 0.0
C284 C 0.08986 0.29456 0.75181 0.0
C285 C 0.10292 0.34429 0.7552 0.0
C286 C 0.08084 0.36417 0.74827 0.0
C287 C 1.03135 0.28484 0.73695 0.0
C288 C 1.05344 0.26486 0.74386 0.0
C289 C 1.02589 0.35694 0.72235 0.0
O290 O 0.95161 0.24819 0.68017 0.0
O291 O 0.89469 0.21986 0.65967 0.0
O292 O 0.93635 0.29813 0.6125 0.0
O293 O 0.98441 0.35496 0.64082 0.0
O294 O 0.84094 0.24212 0.65128 0.0
O295 O 0.86596 0.29425 0.61191 0.0
O296 O 0.91381 0.36598 0.65155 0.0
O297 O 0.9512 0.38647 0.69662 0.0
O298 O 0.92616 0.27608 0.72192 0.0
O299 O 0.89165 0.30581 0.70624 0.0
C300 C 0.92013 0.21095 0.6702 0.0
O301 O 1.02233 0.35091 0.68992 0.0
O302 O 0.99636 0.35043 0.73648 0.0
C303 C 0.97051 0.33167 0.61294 0.0
C304 C 0.81199 0.28389 0.63374 0.0
C305 C 0.76106 0.30771 0.65791 0.0
C306 C 0.7535 0.27757 0.62953 0.0
C307 C 0.77885 0.26564 0.61759 0.0
C308 C 0.8208 0.31738 0.65999 0.0
C309 C 0.79563 0.32957 0.67181 0.0
C310 C 0.83595 0.26452 0.62624 0.0
C311 C 0.9306 0.39642 0.67603 0.0
H312 H 0.13087 0.36833 0.7609 0.0
H313 H 0.09217 0.40284 0.74879 0.0
H314 H 1.004 0.2616 0.72885 0.0
H315 H 1.0424 0.22638 0.74154 0.0
H316 H 0.72696 0.25958 0.61846 0.0
H317 H 0.77174 0.23981 0.59728 0.0
H318 H 0.84631 0.33166 0.67283 0.0
H319 H 0.80227 0.35304 0.69352 0.0
Tb320 Tb 0.81016 0.72293 0.68214 0.0
Tb321 Tb 0.89165 0.78349 0.70056 0.0
C322 C 0.85882 0.76917 0.62559 0.0
C323 C 0.71954 0.61133 0.67225 0.0
C324 C 0.67303 0.50971 0.66815 0.0
C325 C 0.69577 0.53523 0.64124 0.0
C326 C 0.7188 0.58532 0.64329 0.0
C327 C 0.69659 0.58589 0.69884 0.0
C328 C 0.6739 0.53609 0.69692 0.0
C329 C 0.74362 0.66442 0.67618 0.0
O330 O 0.82857 0.66778 0.694 0.0
O331 O 0.88869 0.71448 0.68932 0.0
O332 O 0.85941 0.75035 0.74807 0.0
O333 O 0.81506 0.76055 0.72805 0.0
O334 O 0.94233 0.80533 0.68135 0.0
O335 O 0.93664 0.82451 0.73299 0.0
O336 O 0.8789 0.84171 0.70338 0.0
O337 O 0.82448 0.80376 0.67559 0.0
O338 O 0.83645 0.72652 0.63591 0.0
O339 O 0.88044 0.80057 0.64825 0.0
C340 C 0.8611 0.67154 0.69169 0.0
O341 O 0.76105 0.67755 0.70458 0.0
O342 O 0.76362 0.68985 0.65117 0.0
C343 C 0.82896 0.75098 0.75373 0.0
C344 C 0.99809 0.85099 0.71154 0.0
C345 C 0.07333 0.88774 0.7151 0.0
C346 C 1.05342 0.88345 0.74431 0.0
C347 C 1.01616 0.86522 0.74254 0.0
C348 C 1.01818 0.85674 0.68233 0.0
C349 C 1.05518 0.87489 0.68408 0.0
C350 C 0.95839 0.82631 0.70925 0.0
C351 C 0.85263 0.84479 0.68822 0.0
H352 H 0.69615 0.5164 0.6187 0.0
H353 H 0.73606 0.60354 0.6223 0.0
H354 H 0.69618 0.60469 0.72143 0.0
H355 H 0.6565 0.5184 0.71793 0.0
H356 H 0.06642 0.89281 0.76869 0.0
H357 H 1.0014 0.8609 0.7655 0.0
H358 H 1.00522 0.84641 0.65796 0.0
H359 H 0.06958 0.87874 0.66095 0.0
H360 H 0.4017 0.66755 0.93281 0.0
H361 H 0.26301 0.48318 0.05417 0.0
H362 H 0.42557 0.64223 0.03365 0.0
H363 H 0.23884 0.51472 0.95519 0.0
H364 H 0.31795 0.56054 0.05476 0.0
H365 H 0.33932 0.63663 0.94877 0.0
C366 C 0.39407 0.65717 0.95864 0.0
C367 C 0.41834 0.65515 0.98146 0.0
C368 C 0.30037 0.55087 0.03308 0.0
C369 C 0.34721 0.61826 0.99954 0.0
C370 C 0.26917 0.50654 0.03267 0.0
C371 C 0.24735 0.49162 1.00393 0.0
C372 C 0.30987 0.58004 1.00439 0.0
C373 C 0.25601 0.52376 0.97713 0.0
C374 C 0.35841 0.63925 0.96776 0.0
C375 C 0.40747 0.643 0.01489 0.0
N376 N 0.28693 0.56604 0.97774 0.0
N377 N 0.37232 0.62326 0.02265 0.0
H378 H 0.58423 0.9803 0.06618 0.0
H379 H 0.56949 0.74676 0.96777 0.0
H380 H 0.51107 0.91166 0.98393 0.0
H381 H 0.62977 0.79936 0.05969 0.0
H382 H 0.55059 0.80768 0.97233 0.0
H383 H 0.60247 0.91817 0.0633 0.0
C384 C 0.57158 0.9522 0.04745 0.0
C385 C 0.5454 0.95258 0.02544 0.0
C386 C 0.56807 0.80645 0.99158 0.0
C387 C 0.56758 0.87898 0.02165 0.0
C388 C 0.57925 0.77112 0.98904 0.0
C389 C 0.60195 0.7664 1.01323 0.0
C390 C 0.57945 0.83958 0.01853 0.0
C391 C 0.61273 0.80048 0.03996 0.0
C392 C 0.58233 0.91624 0.04585 0.0
C393 C 0.53096 0.91403 1.00186 0.0
N394 N 0.60168 0.83495 0.04169 0.0
N395 N 0.5422 0.8798 1.00058 0.0
H396 H 0.28756 0.81307 0.94149 0.0
H397 H 0.19935 0.54512 0.01485 0.0
H398 H 0.33681 0.77468 0.02175 0.0
H399 H 0.14515 0.59829 0.95061 0.0
H400 H 0.25378 0.62427 1.01196 0.0
H401 H 0.23915 0.73054 0.93924 0.0
C402 C 0.28823 0.78746 0.95883 0.0
C403 C 0.31632 0.80163 0.98227 0.0
C404 C 0.23003 0.61834 0.99827 0.0
C405 C 0.26053 0.70562 0.97935 0.0
C406 C 0.19905 0.57304 0.99967 0.0
C407 C 0.16751 0.56501 0.98304 0.0
C408 C 0.2295 0.65561 0.97981 0.0
C409 C 0.16866 0.60276 0.96404 0.0
C410 C 0.26054 0.73998 0.95735 0.0
C411 C 0.31591 0.76578 1.00322 0.0
N412 N 0.1989 0.64612 0.96305 0.0
N413 N 0.28841 0.71963 1.00142 0.0
H414 H 0.49381 0.21331 0.99053 0.0
H415 H 0.63863 0.49468 0.03733 0.0
H416 H 0.59008 0.25737 0.04867 0.0
H417 H 0.54043 0.45564 0.98401 0.0
H418 H 0.62144 0.4086 0.04018 0.0
H419 H 0.50939 0.29924 0.98659 0.0
C420 C 0.51802 0.24024 1.00266 0.0
C421 C 0.54013 0.22566 0.02016 0.0
C422 C 0.60351 0.41861 0.02772 0.0
C423 C 0.55894 0.3273 0.01533 0.0
C424 C 0.61355 0.46858 0.02598 0.0
C425 C 0.59145 0.48459 1.01025 0.0
C426 C 0.57077 0.38237 0.01362 0.0
C427 C 0.55899 0.44679 0.99646 0.0
C428 C 0.52713 0.29009 1.0003 0.0
C429 C 0.57144 0.26463 0.0348 0.0
N430 N 0.54996 0.3988 0.99842 0.0
N431 N 0.57956 0.31202 0.03204 0.0
H432 H 0.78953 0.24022 0.09834 0.0
H433 H 0.95661 0.32164 0.97687 0.0
H434 H 0.78524 0.26895 0.99286 0.0
H435 H 0.96838 0.35959 0.08206 0.0
H436 H 0.89132 0.28354 0.98289 0.0
H437 H 0.85352 0.26885 0.09312 0.0
C438 C 0.80192 0.25304 0.07415 0.0
C439 C 0.78163 0.2523 0.04603 0.0
C440 C 0.90828 0.29955 1.00472 0.0
C441 C 0.85485 0.28317 0.03977 0.0
C442 C 0.94539 0.3206 1.00142 0.0
C443 C 0.96772 0.34347 0.02909 0.0
C444 C 0.89363 0.30085 0.03597 0.0
C445 C 0.95196 0.34217 0.06018 0.0
C446 C 0.83845 0.26881 0.07118 0.0
C447 C 0.79942 0.26807 0.01517 0.0
N448 N 0.91583 0.32131 0.0628 0.0
N449 N 0.83495 0.28261 1.01284 0.0
H450 H 0.87407 0.48128 0.05445 0.0
H451 H 0.80305 0.62996 0.15979 0.0
H452 H 0.93484 0.58249 0.1329 0.0
H453 H 0.74468 0.53301 0.07844 0.0
H454 H 0.84596 0.60005 0.15864 0.0
H455 H 0.8213 0.48672 0.07121 0.0
C456 C 0.87618 0.504 0.07559 0.0
C457 C 0.90911 0.53217 0.09189 0.0
C458 C 0.82337 0.58468 0.14147 0.0
C459 C 0.8489 0.53915 0.11088 0.0
C460 C 0.79889 0.60177 0.14211 0.0
C461 C 0.77056 0.58458 0.11881 0.0
C462 C 0.81963 0.55042 0.11718 0.0
C463 C 0.76606 0.54738 0.09691 0.0
C464 C 0.84605 0.50728 0.08506 0.0
C465 C 0.91023 0.56112 0.11905 0.0
N466 N 0.79068 0.53215 0.09625 0.0
N467 N 0.8807 0.56435 0.1274 0.0
H468 H 0.97967 0.87198 0.28141 0.0
H469 H 0.14788 0.8689 0.37456 0.0
H470 H 0.97483 0.82627 0.3837 0.0
H471 H 0.16548 0.96577 0.29299 0.0
H472 H 0.08423 0.84675 0.37458 0.0
H473 H 1.04457 0.89893 0.28121 0.0
C474 C 0.9918 0.86711 0.30392 0.0
C475 C 0.97023 0.84623 0.33267 0.0
C476 C 0.10176 0.873 0.35664 0.0
C477 C 1.0469 0.87752 0.33237 0.0
C478 C 0.1387 0.88597 0.35656 0.0
C479 C 0.16357 0.92011 0.33397 0.0
C480 C 0.08769 0.89274 0.33323 0.0
C481 C 0.14844 0.93991 0.31136 0.0
C482 C 1.02945 0.88304 0.30378 0.0
C483 C 0.98918 0.84212 0.36079 0.0
N484 N 0.11209 0.92573 0.31137 0.0
N485 N 1.02545 0.85681 0.35974 0.0
H486 H 0.1266 0.26109 0.38951 0.0
H487 H 0.27925 0.2157 0.4645 0.0
H488 H 0.23347 0.36972 0.41691 0.0
H489 H 0.18788 0.11101 0.40815 0.0
H490 H 0.25012 0.26503 0.46958 0.0
H491 H 0.13768 0.20067 0.41711 0.0
C492 C 0.1521 0.27224 0.40182 0.0
C493 C 0.17965 0.31987 0.40004 0.0
C494 C 0.23604 0.23056 0.45695 0.0
C495 C 0.19211 0.25191 0.43199 0.0
C496 C 0.25267 0.2025 0.454 0.0
C497 C 0.23654 0.16015 0.43482 0.0
C498 C 0.20333 0.21622 0.44033 0.0
C499 C 0.2016 0.14386 0.42268 0.0
C500 C 0.15833 0.23795 0.41765 0.0
C501 C 0.21198 0.33293 0.41681 0.0
N502 N 0.18651 0.17259 0.42485 0.0
N503 N 0.21748 0.29901 0.43176 0.0
H504 H 0.93213 0.17915 0.3773 0.0
H505 H 0.8184 0.91698 0.29709 0.0
H506 H 0.95635 0.13694 0.28198 0.0
H507 H 0.78368 0.96712 0.38267 0.0
H508 H 0.8715 0.99586 0.29329 0.0
H509 H 0.87989 0.09928 0.38224 0.0
C510 C 0.92645 0.15296 0.35751 0.0
C511 C 0.94824 0.16455 0.32908 0.0
C512 C 0.85216 0.9896 0.3128 0.0
C513 C 0.88885 0.07367 0.33443 0.0
C514 C 0.82186 0.94465 0.31495 0.0
C515 C 0.79652 0.93568 0.34006 0.0
C516 C 0.85719 1.02561 0.33606 0.0
C517 C 0.80245 0.97263 0.36275 0.0
C518 C 0.89662 0.10758 0.36022 0.0
C519 C 0.93978 0.12957 0.30403 0.0
N520 N 0.83224 1.01603 0.36023 0.0
N521 N 0.91071 0.08563 0.3073 0.0
H522 H 0.21149 0.67949 0.16404 0.0
H523 H 0.24424 0.58263 0.3335 0.0
H524 H 0.31084 0.74589 0.21737 0.0
H525 H 0.14377 0.52188 0.27953 0.0
H526 H 0.2738 0.63318 0.28523 0.0
H527 H 0.19486 0.6043 0.19304 0.0
C528 C 0.23076 0.67795 0.18103 0.0
C529 C 0.25832 0.72045 0.19509 0.0
C530 C 0.24525 0.60885 0.28399 0.0
C531 C 0.24184 0.63619 0.22579 0.0
C532 C 0.2282 0.58087 0.31189 0.0
C533 C 0.19146 0.54809 0.31056 0.0
C534 C 0.22533 0.6043 0.25473 0.0
C535 C 0.17214 0.54687 0.28164 0.0
C536 C 0.22074 0.63514 0.19822 0.0
C537 C 0.28535 0.71495 0.21131 0.0
N538 N 0.18932 0.57448 0.25484 0.0
N539 N 0.27527 0.67446 0.22937 0.0
H540 H 0.44507 0.55679 0.42129 0.0
H541 H 0.62051 0.67354 0.3038 0.0
H542 H 0.44066 0.58076 0.31525 0.0
H543 H 0.62353 0.65359 0.41024 0.0
H544 H 0.55468 0.63006 0.30561 0.0
H545 H 0.50907 0.58395 0.41622 0.0
C546 C 0.45716 0.56715 0.39675 0.0
C547 C 0.43639 0.566 0.36871 0.0
C548 C 0.56964 0.6338 0.32847 0.0
C549 C 0.51149 0.59832 0.36277 0.0
C550 C 0.6075 0.65767 0.32728 0.0
C551 C 0.62828 0.66612 0.3567 0.0
C552 C 0.55179 0.61816 0.35943 0.0
C553 C 0.60912 0.64678 0.38665 0.0
C554 C 0.49416 0.58308 0.39394 0.0
C555 C 0.4549 0.58128 0.33789 0.0
N556 N 0.57246 0.62446 0.38728 0.0
N557 N 0.49095 0.59666 0.33583 0.0
H558 H 0.36132 0.89495 0.29871 0.0
H559 H 0.53169 0.92932 0.40835 0.0
H560 H 0.39395 0.98101 0.38898 0.0
H561 H 0.50233 0.85831 0.31188 0.0
H562 H 0.48246 0.94802 0.40306 0.0
H563 H 0.41291 0.88221 0.30411 0.0
C564 C 0.37946 0.91164 0.31971 0.0
C565 C 0.37267 0.93936 0.34335 0.0
C566 C 0.4868 0.92844 0.383 0.0
C567 C 0.43309 0.92388 0.35003 0.0
C568 C 0.51499 0.91725 0.38606 0.0
C569 C 0.5219 0.89173 0.3606 0.0
C570 C 0.46453 0.91394 0.3543 0.0
C571 C 0.499 0.87837 0.33221 0.0
C572 C 0.4092 0.90416 0.32277 0.0
C573 C 0.39782 0.9598 0.36983 0.0
N574 N 0.4717 0.88931 0.33002 0.0
N575 N 0.4265 0.95137 0.37256 0.0
H576 H 0.75048 0.29616 0.72554 0.0
H577 H 0.55078 0.1418 0.67741 0.0
H578 H 0.70233 0.31295 0.63476 0.0
H579 H 0.5975 0.12531 0.76906 0.0
H580 H 0.60139 0.22186 0.67078 0.0
H581 H 0.69204 0.25703 0.7517 0.0
C582 C 0.72787 0.2936 0.71149 0.0
C583 C 0.73095 0.30578 0.67731 0.0
C584 C 0.60055 0.20131 0.69267 0.0
C585 C 0.66389 0.25941 0.70684 0.0
C586 C 0.57192 0.1554 0.69619 0.0
C587 C 0.57109 0.12663 0.72302 0.0
C588 C 0.62891 0.21834 0.71588 0.0
C589 C 0.59801 0.1462 0.7475 0.0
C590 C 0.6943 0.27066 0.72644 0.0
C591 C 0.70079 0.30215 0.66072 0.0
N592 N 0.62646 0.19069 0.74293 0.0
N593 N 0.6682 0.27781 0.67529 0.0
H594 H 0.88023 0.41113 0.64168 0.0
H595 H 0.92185 0.67014 0.71524 0.0
H596 H 0.95887 0.47987 0.72 0.0
H597 H 0.8206 0.57352 0.66938 0.0
H598 H 0.93858 0.60642 0.71369 0.0
H599 H 0.86205 0.47245 0.64769 0.0
C600 C 0.89407 0.43895 0.66034 0.0
C601 C 0.92156 0.43843 0.68038 0.0
C602 C 0.91258 0.59867 0.70409 0.0
C603 C 0.90033 0.51275 0.68683 0.0
C604 C 0.90272 0.63551 0.70493 0.0
C605 C 0.86918 0.62856 0.69274 0.0
C606 C 0.88952 0.55315 0.68998 0.0
C607 C 0.84647 0.58182 0.6796 0.0
C608 C 0.88331 0.47458 0.66369 0.0
C609 C 0.93773 0.4773 0.70365 0.0
N610 N 0.85711 0.54696 0.67827 0.0
N611 N 0.92726 0.51237 0.70588 0.0
H612 H 0.63364 0.45463 0.61385 0.0
H613 H 0.52824 0.20784 0.71718 0.0
H614 H 0.65457 0.44184 0.71832 0.0
H615 H 0.50018 0.22838 0.61694 0.0
H616 H 0.57996 0.28952 0.71596 0.0
H617 H 0.59019 0.36887 0.61252 0.0
C618 C 0.62951 0.43387 0.63647 0.0
C619 C 0.64791 0.45623 0.66631 0.0
C620 C 0.56281 0.2759 0.69402 0.0
C621 C 0.59744 0.35696 0.66501 0.0
C622 C 0.53354 0.22894 0.69455 0.0
C623 C 0.51006 0.21083 0.66692 0.0
C624 C 0.56875 0.30507 0.66561 0.0
C625 C 0.51774 0.24055 0.63868 0.0
C626 C 0.6044 0.3847 0.63574 0.0
C627 C 0.64075 0.42682 0.69483 0.0
N628 N 0.54615 0.28591 0.63879 0.0
N629 N 0.61617 0.37908 0.69349 0.0
H630 H 0.906 0.92729 0.71805 0.0
H631 H 0.86107 0.12973 0.64336 0.0
H632 H 0.81652 0.8884 0.65116 0.0
H633 H 0.95636 0.16438 0.70037 0.0
H634 H 0.84349 1.04408 0.64672 0.0
H635 H 0.92212 1.01138 0.71293 0.0
C636 C 0.88917 0.93563 0.70219 0.0
C637 C 0.85919 0.89787 0.6852 0.0
C638 C 0.86833 0.07006 0.65849 0.0
C639 C 0.87884 0.99965 0.67915 0.0
C640 C 0.87873 0.11996 0.65659 0.0
C641 C 0.91088 0.15672 0.67138 0.0
C642 C 0.88961 0.0543 0.67576 0.0
C643 C 0.9316 0.13914 0.68813 0.0
C644 C 0.89885 0.98495 0.69929 0.0
C645 C 0.83958 0.9143 0.66527 0.0
N646 N 0.92068 0.09035 0.68987 0.0
N647 N 0.8496 0.96294 0.66296 0.0
H648 H 0.11235 0.85541 0.67902 0.0
H649 H 0.30123 0.05684 0.7515 0.0
H650 H 0.12455 0.95973 0.75464 0.0
H651 H 0.29178 0.95621 0.67405 0.0
H652 H 0.2364 1.0166 0.75607 0.0
H653 H 0.1772 0.88733 0.67943 0.0
C654 C 0.1286 0.88511 0.69569 0.0
C655 C 0.11274 0.90515 0.71661 0.0
C656 C 0.24835 1.00286 0.73827 0.0
C657 C 0.18735 0.94152 0.71747 0.0
C658 C 0.28553 1.02579 0.73567 0.0
C659 C 0.30216 1.01002 0.71224 0.0
C660 C 0.22719 0.96375 0.71718 0.0
C661 C 0.2802 0.96949 0.69256 0.0
C662 C 0.16569 0.90309 0.69604 0.0
C663 C 0.13532 0.94283 0.73821 0.0
N664 N 0.24383 0.94801 0.69526 0.0
N665 N 0.17135 0.95989 0.73791 0.0
H666 H 0.22104 0.17159 0.68842 0.0
H667 H 0.14724 0.31902 0.79424 0.0
H668 H 0.28216 0.27607 0.76499 0.0
H669 H 0.09077 0.22637 0.71035 0.0
H670 H 0.1934 0.29518 0.78904 0.0
H671 H 0.16961 0.18275 0.70127 0.0
C672 C 0.22353 0.1965 0.70817 0.0
C673 C 0.25606 0.22329 0.72543 0.0
C674 C 0.1707 0.27967 0.772 0.0
C675 C 0.1974 0.23647 0.74014 0.0
C676 C 0.14435 0.29333 0.77493 0.0
C677 C 0.11515 0.275 0.75255 0.0
C678 C 0.16796 0.24751 0.74645 0.0
C679 C 0.11257 0.24118 0.72839 0.0
C680 C 0.19422 0.20303 0.7154 0.0
C681 C 0.25781 0.25533 0.75062 0.0
N682 N 0.13878 0.2289 0.72579 0.0
N683 N 0.22898 0.26118 0.7571 0.0
H684 H 0.22609 0.51394 0.25561 0.0
H685 H 0.09791 0.37469 0.09851 0.0
H686 H 0.15746 0.36103 0.24837 0.0
H687 H 0.14314 0.52786 0.11031 0.0
H688 H 0.12665 0.37211 0.15041 0.0
H689 H 0.20411 0.52254 0.19983 0.0
C690 C 0.20675 0.48222 0.24229 0.0
C691 C 0.19321 0.43683 0.25731 0.0
C692 C 0.13045 0.40647 0.14189 0.0
C693 C 0.16799 0.44628 0.19332 0.0
C694 C 0.11391 0.40806 0.11197 0.0
C695 C 0.1177 0.45159 0.09966 0.0
C696 C 0.15149 0.44871 0.16033 0.0
C697 C 0.13909 0.49337 0.11875 0.0
C698 C 0.19405 0.48718 0.21051 0.0
C699 C 0.16859 0.39693 0.23835 0.0
N700 N 0.15517 0.49092 0.14808 0.0
N701 N 0.1568 0.40265 0.20779 0.0
H702 H 0.64417 0.79693 0.25208 0.0
H703 H 0.59035 0.57929 0.12233 0.0
H704 H 0.69341 0.70679 0.24849 0.0
H705 H 0.58434 0.70396 0.08993 0.0
H706 H 0.61479 0.61854 0.17615 0.0
H707 H 0.61151 0.75849 0.1994 0.0
C708 C 0.6483 0.76934 0.24032 0.0
C709 C 0.67214 0.75573 0.25492 0.0
C710 C 0.60761 0.63721 0.1576 0.0
C711 C 0.63385 0.7105 0.19505 0.0
C712 C 0.59313 0.61449 0.12684 0.0
C713 C 0.58496 0.63795 0.10122 0.0
C714 C 0.614 0.68415 0.1636 0.0
C715 C 0.58974 0.68401 0.10885 0.0
C716 C 0.62961 0.74743 0.21021 0.0
C717 C 0.67592 0.71933 0.23835 0.0
N718 N 0.60416 0.70572 0.13922 0.0
N719 N 0.65694 0.69801 0.20984 0.0
H720 H 0.49834 0.10995 0.14289 0.0
H721 H 0.31093 0.9087 0.22319 0.0
H722 H 0.43646 0.96668 0.10286 0.0
H723 H 0.36762 0.05548 0.25781 0.0
H724 H 0.3572 0.92841 0.18015 0.0
H725 H 0.45269 0.08983 0.18683 0.0
C726 C 0.4756 0.07411 0.14352 0.0
C727 C 0.47179 1.04014 0.11883 0.0
C728 C 0.35944 0.95642 0.19706 0.0
C729 C 0.41852 1.01673 0.16929 0.0
C730 C 0.33272 0.94514 0.22166 0.0
C731 C 0.3347 0.98029 0.24445 0.0
C732 C 0.38889 1.0033 0.195 0.0
C733 C 0.36433 1.02688 0.24098 0.0
C734 C 0.44922 0.06267 0.16855 0.0
C735 C 0.44102 0.99439 0.12109 0.0
N736 N 0.38995 1.0368 0.2171 0.0
N737 N 0.41592 0.98424 0.14551 0.0
H738 H 0.54248 0.05379 0.90537 0.0
H739 H 0.49055 0.20465 0.78021 0.0
H740 H 0.55126 0.18524 0.94445 0.0
H741 H 0.42744 1.05218 0.79612 0.0
H742 H 0.52688 0.2098 0.83057 0.0
H743 H 0.51812 0.06592 0.85298 0.0
C744 C 0.5407 0.08634 0.90246 0.0
C745 C 0.54938 0.11866 0.92951 0.0
C746 C 0.50491 0.17542 0.82288 0.0
C747 C 0.52022 0.1322 0.86924 0.0
C748 C 0.48401 0.17246 0.79428 0.0
C749 C 0.45581 0.1278 0.78342 0.0
C750 C 0.49807 0.13331 0.84016 0.0
C751 C 0.44903 0.08738 0.80278 0.0
C752 C 0.52624 0.09287 0.87263 0.0
C753 C 0.54561 0.15975 0.9242 0.0
N754 N 0.4701 0.09103 0.82953 0.0
N755 N 0.53087 0.16508 0.89486 0.0
H756 H 1.02158 0.35394 0.91013 0.0
H757 H 0.91267 0.37699 0.75676 0.0
H758 H 0.98636 0.45947 0.91682 0.0
H759 H 0.90892 0.24477 0.78608 0.0
H760 H 0.93996 0.41212 0.81192 0.0
H761 H 0.9836 0.31911 0.86105 0.0
C762 C 1.00596 0.37014 0.90122 0.0
C763 C 1.00764 0.41018 0.91786 0.0
C764 C 0.93225 0.37503 0.80654 0.0
C765 C 0.96335 0.36972 0.86045 0.0
C766 C 0.91622 0.35469 0.77514 0.0
C767 C 0.90814 0.30749 0.76661 0.0
C768 C 0.94075 0.34824 0.82931 0.0
C769 C 0.91439 0.28106 0.79139 0.0
C770 C 0.98391 0.3498 0.87312 0.0
C771 C 0.98606 0.4287 0.90493 0.0
N772 N 0.93071 0.30186 0.82101 0.0
N773 N 0.96518 0.40877 0.87676 0.0
H774 H 0.75847 0.72601 0.75717 0.0
H775 H 0.72807 0.69699 0.95498 0.0
H776 H 0.8431 0.73676 0.8222 0.0
H777 H 0.64159 0.63833 0.88289 0.0
H778 H 0.77106 0.7164 0.9091 0.0
H779 H 0.71773 0.69969 0.80378 0.0
C780 C 0.76893 0.72274 0.78121 0.0
C781 C 0.80514 0.73379 0.78483 0.0
C782 C 0.74274 0.69908 0.90324 0.0
C783 C 0.75668 0.70361 0.84031 0.0
C784 C 0.71788 0.68803 0.92951 0.0
C785 C 0.68058 0.66594 0.92323 0.0
C786 C 0.73079 0.68903 0.86976 0.0
C787 C 0.66972 0.6552 0.88941 0.0
C788 C 0.74505 0.70743 0.80816 0.0
C789 C 0.81578 0.7287 0.81753 0.0
N790 N 0.69452 0.66728 0.86423 0.0
N791 N 0.79188 0.71455 0.84391 0.0
H792 H 0.76812 0.8721 0.4654 0.0
H793 H 0.83779 0.71541 0.5687 0.0
H794 H 0.74106 0.72561 0.44424 0.0
H795 H 0.85529 0.85148 0.60733 0.0
H796 H 0.80779 0.72536 0.51977 0.0
H797 H 0.80235 0.87057 0.51548 0.0
C798 C 0.76868 0.83942 0.47149 0.0
C799 C 0.75138 0.7989 0.45023 0.0
C800 C 0.81847 0.7536 0.53857 0.0
C801 C 0.79151 0.79736 0.50707 0.0
C802 C 0.83617 0.74816 0.56648 0.0
C803 C 0.84974 0.78283 0.59224 0.0
C804 C 0.81352 0.79401 0.53587 0.0
C805 C 0.84599 0.82414 0.58792 0.0
C806 C 0.78863 0.83874 0.49992 0.0
C807 C 0.75388 0.75797 0.45939 0.0
N808 N 0.82804 0.82841 0.56052 0.0
N809 N 0.77347 0.75846 0.48658 0.0
H810 H 0.31551 0.91157 0.43622 0.0
H811 H 0.31948 0.07227 0.59589 0.0
H812 H 0.24307 0.96852 0.44773 0.0
H813 H 0.39599 1.02271 0.58029 0.0
H814 H 0.28882 1.03088 0.54355 0.0
H815 H 0.3418 0.94579 0.49152 0.0
C816 C 0.30437 0.92992 0.45073 0.0
C817 C 0.27668 0.93654 0.43722 0.0
C818 C 0.31236 1.02913 0.55164 0.0
C819 C 0.30749 0.97742 0.50042 0.0
C820 C 0.33002 0.05307 0.58153 0.0
C821 C 0.36065 1.05151 0.59285 0.0
C822 C 0.32518 1.00307 0.53277 0.0
C823 C 0.37263 1.02537 0.57293 0.0
C824 C 0.31977 0.95019 0.48217 0.0
C825 C 0.2642 0.96211 0.45704 0.0
N826 N 0.35501 1.00242 0.54421 0.0
N827 N 0.2797 0.98168 0.48727 0.0
H828 H 0.95535 0.31871 0.54368 0.0
H829 H 0.16118 0.42756 0.48271 0.0
H830 H 1.0438 0.37426 0.61367 0.0
H831 H 0.07496 0.41353 0.41864 0.0
H832 H 0.11941 0.40283 0.53086 0.0
H833 H 0.99871 0.3453 0.49709 0.0
C834 C 0.9837 0.33606 0.54939 0.0
C835 C 0.99549 0.34424 0.58303 0.0
C836 C 0.10982 0.40546 0.50618 0.0
C837 C 1.04591 0.37485 0.52933 0.0
C838 C 0.1339 0.42011 0.47864 0.0
C839 C 0.12217 0.42294 0.446 0.0
C840 C 0.07342 0.39278 0.50123 0.0
C841 C 0.08585 0.4118 0.44285 0.0
C842 C 1.00863 0.35157 0.5227 0.0
C843 C 1.03302 0.36731 0.58837 0.0
N844 N 0.06315 0.39703 0.4696 0.0
N845 N 1.05657 0.38145 0.56215 0.0
loop_
_geom_bond_atom_site_label_1
_geom_bond_atom_site_label_2
_geom_bond_distance
_geom_bond_site_symmetry_2
_ccdc_geom_bond_type
Tb0 C9 2.764 . S
Tb0 O10 2.325 . S
Tb0 O13 2.301 1_556 S
Tb0 O17 2.322 1_456 S
Tb0 O18 2.352 . S
Tb0 O21 2.414 1_556 S
Tb0 O22 2.400 . S
Tb1 O11 2.322 1_655 S
Tb1 O12 2.351 1_655 S
Tb1 O14 2.415 1_554 S
Tb1 O15 2.399 . S
Tb1 O16 2.325 . S
Tb1 O19 2.303 1_554 S
Tb1 C30 2.764 . S
C2 O18 1.261 1_655 S
C2 O19 1.257 . S
C3 C6 1.356 . S
C3 C7 1.334 1_556 S
C3 C9 1.504 . S
C4 C5 1.373 1_554 S
C4 C8 1.308 . S
C5 C4 1.373 1_556 S
C5 C6 1.429 . S
C5 H32 0.932 . S
C6 C3 1.356 . S
C6 C5 1.429 . S
C6 H33 0.930 . S
C7 C3 1.334 1_554 S
C7 C8 1.394 . S
C7 H34 0.932 . S
C8 C4 1.308 . S
C8 C7 1.394 . S
C8 H35 0.929 . S
C9 Tb0 2.764 . S
C9 C3 1.504 . S
C9 O21 1.225 1_556 S
C9 O22 1.276 . S
O10 Tb0 2.325 . S
O10 C20 1.236 1_556 S
O11 Tb1 2.322 1_455 S
O11 C20 1.257 . S
O12 Tb1 2.351 1_455 S
O12 C23 1.258 . S
O13 Tb0 2.301 1_554 S
O13 C23 1.257 . S
O14 Tb1 2.415 1_556 S
O14 C30 1.239 1_556 S
O15 Tb1 2.399 . S
O15 C30 1.263 . S
O16 Tb1 2.325 . S
O16 C31 1.236 . S
O17 Tb0 2.322 1_654 S
O17 C31 1.257 . S
O18 Tb0 2.352 . S
O18 C2 1.261 1_455 S
O19 Tb1 2.303 1_556 S
O19 C2 1.257 . S
C20 O10 1.236 1_554 S
C20 O11 1.257 . S
O21 Tb0 2.414 1_554 S
O21 C9 1.225 1_554 S
O22 Tb0 2.400 . S
O22 C9 1.276 . S
C23 O12 1.258 . S
C23 O13 1.257 . S
C24 C27 1.358 . S
C24 C28 1.332 1_554 S
C24 C30 1.504 . S
C25 C26 1.373 . S
C25 C29 1.308 1_554 S
C26 C25 1.373 . S
C26 C27 1.429 . S
C26 H36 0.932 . S
C27 C24 1.358 . S
C27 C26 1.429 . S
C27 H37 0.930 . S
C28 C24 1.332 1_556 S
C28 C29 1.394 . S
C28 H38 0.932 . S
C29 C25 1.308 1_556 S
C29 C28 1.394 . S
C29 H39 0.929 . S
C30 Tb1 2.764 . S
C30 O14 1.239 1_554 S
C30 O15 1.263 . S
C30 C24 1.504 . S
C31 O16 1.236 . S
C31 O17 1.257 . S
H32 C5 0.932 . S
H33 C6 0.930 . S
H34 C7 0.932 . S
H35 C8 0.929 . S
H36 C26 0.932 . S
H37 C27 0.930 . S
H38 C28 0.932 . S
H39 C29 0.929 . S
Tb40 C49 2.764 . S
Tb40 O50 2.325 . S
Tb40 O53 2.303 1_554 S
Tb40 O57 2.322 . S
Tb40 O58 2.349 . S
Tb40 O61 2.415 1_554 S
Tb40 O62 2.399 . S
Tb41 O51 2.322 . S
Tb41 O52 2.349 . S
Tb41 O54 2.415 1_556 S
Tb41 O55 2.399 . S
Tb41 O56 2.325 . S
Tb41 O59 2.303 1_556 S
Tb41 C70 2.764 . S
C42 O58 1.261 . S
C42 O59 1.257 . S
C43 C46 1.358 . S
C43 C47 1.332 1_554 S
C43 C49 1.504 . S
C44 C45 1.373 . S
C44 C48 1.308 1_554 S
C45 C44 1.373 . S
C45 C46 1.429 . S
C45 H72 0.932 . S
C46 C43 1.358 . S
C46 C45 1.429 . S
C46 H73 0.930 . S
C47 C43 1.332 1_556 S
C47 C48 1.394 . S
C47 H74 0.932 . S
C48 C44 1.308 1_556 S
C48 C47 1.394 . S
C48 H75 0.929 . S
C49 Tb40 2.764 . S
C49 C43 1.504 . S
C49 O61 1.239 1_554 S
C49 O62 1.263 . S
O50 Tb40 2.325 . S
O50 C60 1.236 . S
O51 Tb41 2.322 . S
O51 C60 1.257 1_556 S
O52 Tb41 2.349 . S
O52 C63 1.261 . S
O53 Tb40 2.303 1_556 S
O53 C63 1.257 . S
O54 Tb41 2.415 1_554 S
O54 C70 1.239 1_554 S
O55 Tb41 2.399 . S
O55 C70 1.263 . S
O56 Tb41 2.325 . S
O56 C71 1.236 . S
O57 Tb40 2.322 . S
O57 C71 1.257 1_554 S
O58 Tb40 2.349 . S
O58 C42 1.261 . S
O59 Tb41 2.303 1_554 S
O59 C42 1.257 . S
C60 O50 1.236 . S
C60 O51 1.257 1_554 S
O61 Tb40 2.415 1_556 S
O61 C49 1.239 1_556 S
O62 Tb40 2.399 . S
O62 C49 1.263 . S
C63 O52 1.261 . S
C63 O53 1.257 . S
C64 C67 1.358 . S
C64 C68 1.332 1_556 S
C64 C70 1.504 . S
C65 C66 1.373 . S
C65 C69 1.308 1_556 S
C66 C65 1.373 . S
C66 C67 1.429 . S
C66 H76 0.932 . S
C67 C64 1.358 . S
C67 C66 1.429 . S
C67 H77 0.930 . S
C68 C64 1.332 1_554 S
C68 C69 1.394 . S
C68 H78 0.932 . S
C69 C65 1.308 1_554 S
C69 C68 1.394 . S
C69 H79 0.929 . S
C70 Tb41 2.764 . S
C70 O54 1.239 1_556 S
C70 O55 1.263 . S
C70 C64 1.504 . S
C71 O56 1.236 . S
C71 O57 1.257 1_556 S
H72 C45 0.932 . S
H73 C46 0.930 . S
H74 C47 0.932 . S
H75 C48 0.929 . S
H76 C66 0.932 . S
H77 C67 0.930 . S
H78 C68 0.932 . S
H79 C69 0.929 . S
Tb80 C89 2.764 . S
Tb80 O90 2.325 . S
Tb80 O93 2.303 1_556 S
Tb80 O97 2.322 1_566 S
Tb80 O98 2.349 . S
Tb80 O101 2.415 1_556 S
Tb80 O102 2.399 . S
Tb81 O91 2.322 1_545 S
Tb81 O92 2.349 . S
Tb81 O94 2.415 1_554 S
Tb81 O95 2.399 . S
Tb81 O96 2.325 . S
Tb81 O99 2.303 1_554 S
Tb81 C110 2.764 . S
C82 O98 1.261 1_545 S
C82 O99 1.257 . S
C83 C86 1.372 . S
C83 C87 1.317 1_556 S
C83 C89 1.505 . S
C84 C85 1.347 1_554 S
C84 C88 1.331 . S
C85 C84 1.347 1_556 S
C85 C86 1.429 . S
C85 H112 0.932 . S
C86 C83 1.372 . S
C86 C85 1.429 . S
C86 H113 0.930 . S
C87 C83 1.317 1_554 S
C87 C88 1.394 . S
C87 H114 0.932 . S
C88 C84 1.331 . S
C88 C87 1.394 . S
C88 H115 0.929 . S
C89 Tb80 2.764 . S
C89 C83 1.505 . S
C89 O101 1.239 1_556 S
C89 O102 1.263 . S
O90 Tb80 2.325 . S
O90 C100 1.236 1_556 S
O91 Tb81 2.322 1_565 S
O91 C100 1.257 . S
O92 Tb81 2.349 . S
O92 C103 1.261 1_545 S
O93 Tb80 2.303 1_554 S
O93 C103 1.257 . S
O94 Tb81 2.415 1_556 S
O94 C110 1.239 1_556 S
O95 Tb81 2.399 . S
O95 C110 1.263 . S
O96 Tb81 2.325 . S
O96 C111 1.236 . S
O97 Tb80 2.322 1_544 S
O97 C111 1.257 . S
O98 Tb80 2.349 . S
O98 C82 1.261 1_565 S
O99 Tb81 2.303 1_556 S
O99 C82 1.257 . S
C100 O90 1.236 1_554 S
C100 O91 1.257 . S
O101 Tb80 2.415 1_554 S
O101 C89 1.239 1_554 S
O102 Tb80 2.399 . S
O102 C89 1.263 . S
C103 O92 1.261 1_565 S
C103 O93 1.257 . S
C104 C107 1.358 . S
C104 C108 1.332 1_554 S
C104 C110 1.504 . S
C105 C106 1.373 . S
C105 C109 1.308 1_554 S
C106 C105 1.373 . S
C106 C107 1.429 . S
C106 H116 0.932 . S
C107 C104 1.358 . S
C107 C106 1.429 . S
C107 H117 0.930 . S
C108 C104 1.332 1_556 S
C108 C109 1.394 . S
C108 H118 0.932 . S
C109 C105 1.308 1_556 S
C109 C108 1.394 . S
C109 H119 0.929 . S
C110 Tb81 2.764 . S
C110 O94 1.239 1_554 S
C110 O95 1.263 . S
C110 C104 1.504 . S
C111 O96 1.236 . S
C111 O97 1.257 . S
H112 C85 0.932 . S
H113 C86 0.930 . S
H114 C87 0.932 . S
H115 C88 0.929 . S
H116 C106 0.932 . S
H117 C107 0.930 . S
H118 C108 0.932 . S
H119 C109 0.929 . S
Tb120 C129 2.764 . S
Tb120 O130 2.325 . S
Tb120 O133 2.303 . S
Tb120 O137 2.322 . S
Tb120 O138 2.349 . S
Tb120 O141 2.415 . S
Tb120 O142 2.399 . S
Tb121 O131 2.322 . S
Tb121 O132 2.349 . S
Tb121 O134 2.415 . S
Tb121 O135 2.399 . S
Tb121 O136 2.325 . S
Tb121 O139 2.303 . S
Tb121 C150 2.764 . S
C122 O138 1.261 . S
C122 O139 1.257 . S
C123 C126 1.358 . S
C123 C127 1.332 . S
C123 C129 1.504 . S
C124 C125 1.373 . S
C124 C128 1.308 . S
C125 C124 1.373 . S
C125 C126 1.429 . S
C125 H152 0.932 . S
C126 C123 1.358 . S
C126 C125 1.429 . S
C126 H153 0.930 . S
C127 C123 1.332 . S
C127 C128 1.394 . S
C127 H154 0.932 . S
C128 C124 1.308 . S
C128 C127 1.394 . S
C128 H155 0.929 . S
C129 Tb120 2.764 . S
C129 C123 1.504 . S
C129 O141 1.239 . S
C129 O142 1.263 . S
O130 Tb120 2.325 . S
O130 C140 1.236 . S
O131 Tb121 2.322 . S
O131 C140 1.257 . S
O132 Tb121 2.349 . S
O132 C143 1.261 . S
O133 Tb120 2.303 . S
O133 C143 1.257 . S
O134 Tb121 2.415 . S
O134 C150 1.239 . S
O135 Tb121 2.399 . S
O135 C150 1.263 . S
O136 Tb121 2.325 . S
O136 C151 1.236 . S
O137 Tb120 2.322 . S
O137 C151 1.257 . S
O138 Tb120 2.349 . S
O138 C122 1.261 . S
O139 Tb121 2.303 . S
O139 C122 1.257 . S
C140 O130 1.236 . S
C140 O131 1.257 . S
O141 Tb120 2.415 . S
O141 C129 1.239 . S
O142 Tb120 2.399 . S
O142 C129 1.263 . S
C143 O132 1.261 . S
C143 O133 1.257 . S
C144 C147 1.358 . S
C144 C148 1.332 . S
C144 C150 1.504 . S
C145 C146 1.373 . S
C145 C149 1.308 . S
C146 C145 1.373 . S
C146 C147 1.429 . S
C146 H156 0.932 . S
C147 C144 1.358 . S
C147 C146 1.429 . S
C147 H157 0.930 . S
C148 C144 1.332 . S
C148 C149 1.394 . S
C148 H158 0.932 . S
C149 C145 1.308 . S
C149 C148 1.394 . S
C149 H159 0.929 . S
C150 Tb121 2.764 . S
C150 O134 1.239 . S
C150 O135 1.263 . S
C150 C144 1.504 . S
C151 O136 1.236 . S
C151 O137 1.257 . S
H152 C125 0.932 . S
H153 C126 0.930 . S
H154 C127 0.932 . S
H155 C128 0.929 . S
H156 C146 0.932 . S
H157 C147 0.930 . S
H158 C148 0.932 . S
H159 C149 0.929 . S
Tb160 C169 2.764 1_565 S
Tb160 O170 2.325 . S
Tb160 O173 2.303 . S
Tb160 O177 2.322 . S
Tb160 O178 2.349 . S
Tb160 O181 2.415 . S
Tb160 O182 2.399 1_565 S
Tb161 O171 2.322 . S
Tb161 O172 2.349 . S
Tb161 O174 2.415 . S
Tb161 O175 2.399 . S
Tb161 O176 2.325 . S
Tb161 O179 2.303 . S
Tb161 C190 2.764 . S
C162 O178 1.261 . S
C162 O179 1.257 . S
C163 C166 1.358 . S
C163 C167 1.332 . S
C163 C169 1.504 . S
C164 C165 1.373 . S
C164 C168 1.308 . S
C165 C164 1.373 . S
C165 C166 1.429 . S
C165 H192 0.932 . S
C166 C163 1.358 . S
C166 C165 1.429 . S
C166 H193 0.930 . S
C167 C163 1.332 . S
C167 C168 1.394 . S
C167 H194 0.932 . S
C168 C164 1.308 . S
C168 C167 1.394 . S
C168 H195 0.929 . S
C169 Tb160 2.764 1_545 S
C169 C163 1.504 . S
C169 O181 1.239 1_545 S
C169 O182 1.263 . S
O170 Tb160 2.325 . S
O170 C180 1.236 . S
O171 Tb161 2.322 . S
O171 C180 1.257 . S
O172 Tb161 2.349 . S
O172 C183 1.261 . S
O173 Tb160 2.303 . S
O173 C183 1.257 . S
O174 Tb161 2.415 . S
O174 C190 1.239 . S
O175 Tb161 2.399 . S
O175 C190 1.263 . S
O176 Tb161 2.325 . S
O176 C191 1.236 . S
O177 Tb160 2.322 . S
O177 C191 1.257 . S
O178 Tb160 2.349 . S
O178 C162 1.261 . S
O179 Tb161 2.303 . S
O179 C162 1.257 . S
C180 O170 1.236 . S
C180 O171 1.257 . S
O181 Tb160 2.415 . S
O181 C169 1.239 1_565 S
O182 Tb160 2.399 1_545 S
O182 C169 1.263 . S
C183 O172 1.261 . S
C183 O173 1.257 . S
C184 C187 1.358 . S
C184 C188 1.332 . S
C184 C190 1.504 . S
C185 C186 1.373 . S
C185 C189 1.308 . S
C186 C185 1.373 . S
C186 C187 1.429 . S
C186 H196 0.932 . S
C187 C184 1.358 . S
C187 C186 1.429 . S
C187 H197 0.930 . S
C188 C184 1.332 . S
C188 C189 1.394 . S
C188 H198 0.932 . S
C189 C185 1.308 . S
C189 C188 1.394 . S
C189 H199 0.929 . S
C190 Tb161 2.764 . S
C190 O174 1.239 . S
C190 O175 1.263 . S
C190 C184 1.504 . S
C191 O176 1.236 . S
C191 O177 1.257 . S
H192 C165 0.932 . S
H193 C166 0.930 . S
H194 C167 0.932 . S
H195 C168 0.929 . S
H196 C186 0.932 . S
H197 C187 0.930 . S
H198 C188 0.932 . S
H199 C189 0.929 . S
Tb200 C209 2.764 . S
Tb200 O210 2.325 . S
Tb200 O213 2.303 . S
Tb200 O217 2.322 . S
Tb200 O218 2.349 . S
Tb200 O221 2.415 . S
Tb200 O222 2.399 . S
Tb201 O211 2.322 . S
Tb201 O212 2.349 . S
Tb201 O214 2.415 . S
Tb201 O215 2.399 . S
Tb201 O216 2.325 . S
Tb201 O219 2.303 . S
Tb201 C230 2.764 . S
C202 O218 1.261 . S
C202 O219 1.257 . S
C203 C206 1.358 . S
C203 C207 1.332 . S
C203 C209 1.504 1_655 S
C204 C205 1.373 . S
C204 C208 1.308 . S
C205 C204 1.373 . S
C205 C206 1.429 . S
C205 H232 0.932 . S
C206 C203 1.358 . S
C206 C205 1.429 . S
C206 H233 0.930 . S
C207 C203 1.332 . S
C207 C208 1.394 . S
C207 H234 0.932 . S
C208 C204 1.308 . S
C208 C207 1.394 . S
C208 H235 0.929 . S
C209 Tb200 2.764 . S
C209 C203 1.504 1_455 S
C209 O221 1.239 . S
C209 O222 1.263 . S
O210 Tb200 2.325 . S
O210 C220 1.236 . S
O211 Tb201 2.322 . S
O211 C220 1.257 . S
O212 Tb201 2.349 . S
O212 C223 1.261 . S
O213 Tb200 2.303 . S
O213 C223 1.257 . S
O214 Tb201 2.415 . S
O214 C230 1.239 . S
O215 Tb201 2.399 . S
O215 C230 1.263 . S
O216 Tb201 2.325 . S
O216 C231 1.236 . S
O217 Tb200 2.322 . S
O217 C231 1.257 . S
O218 Tb200 2.349 . S
O218 C202 1.261 . S
O219 Tb201 2.303 . S
O219 C202 1.257 . S
C220 O210 1.236 . S
C220 O211 1.257 . S
O221 Tb200 2.415 . S
O221 C209 1.239 . S
O222 Tb200 2.399 . S
O222 C209 1.263 . S
C223 O212 1.261 . S
C223 O213 1.257 . S
C224 C227 1.358 . S
C224 C228 1.332 . S
C224 C230 1.504 . S
C225 C226 1.373 . S
C225 C229 1.308 . S
C226 C225 1.373 . S
C226 C227 1.429 . S
C226 H236 0.932 . S
C227 C224 1.358 . S
C227 C226 1.429 . S
C227 H237 0.930 . S
C228 C224 1.332 . S
C228 C229 1.394 . S
C228 H238 0.932 . S
C229 C225 1.308 . S
C229 C228 1.394 . S
C229 H239 0.929 . S
C230 Tb201 2.764 . S
C230 O214 1.239 . S
C230 O215 1.263 . S
C230 C224 1.504 . S
C231 O216 1.236 . S
C231 O217 1.257 . S
H232 C205 0.932 . S
H233 C206 0.930 . S
H234 C207 0.932 . S
H235 C208 0.929 . S
H236 C226 0.932 . S
H237 C227 0.930 . S
H238 C228 0.932 . S
H239 C229 0.929 . S
Tb240 C249 2.764 . S
Tb240 O250 2.325 . S
Tb240 O253 2.303 . S
Tb240 O257 2.322 . S
Tb240 O258 2.349 . S
Tb240 O261 2.415 . S
Tb240 O262 2.399 . S
Tb241 O251 2.322 . S
Tb241 O252 2.349 . S
Tb241 O254 2.415 . S
Tb241 O255 2.399 . S
Tb241 O256 2.325 . S
Tb241 O259 2.303 . S
Tb241 C270 2.764 . S
C242 O258 1.261 . S
C242 O259 1.257 . S
C243 C246 1.358 . S
C243 C247 1.332 . S
C243 C249 1.504 . S
C244 C245 1.373 . S
C244 C248 1.308 . S
C245 C244 1.373 . S
C245 C246 1.429 . S
C245 H272 0.932 . S
C246 C243 1.358 . S
C246 C245 1.429 . S
C246 H273 0.930 . S
C247 C243 1.332 . S
C247 C248 1.394 . S
C247 H274 0.932 . S
C248 C244 1.308 . S
C248 C247 1.394 . S
C248 H275 0.929 . S
C249 Tb240 2.764 . S
C249 C243 1.504 . S
C249 O261 1.239 . S
C249 O262 1.263 . S
O250 Tb240 2.325 . S
O250 C260 1.236 . S
O251 Tb241 2.322 . S
O251 C260 1.257 . S
O252 Tb241 2.349 . S
O252 C263 1.261 . S
O253 Tb240 2.303 . S
O253 C263 1.257 . S
O254 Tb241 2.415 . S
O254 C270 1.239 . S
O255 Tb241 2.399 . S
O255 C270 1.263 . S
O256 Tb241 2.325 . S
O256 C271 1.236 . S
O257 Tb240 2.322 . S
O257 C271 1.257 . S
O258 Tb240 2.349 . S
O258 C242 1.261 . S
O259 Tb241 2.303 . S
O259 C242 1.257 . S
C260 O250 1.236 . S
C260 O251 1.257 . S
O261 Tb240 2.415 . S
O261 C249 1.239 . S
O262 Tb240 2.399 . S
O262 C249 1.263 . S
C263 O252 1.261 . S
C263 O253 1.257 . S
C264 C267 1.358 . S
C264 C268 1.332 . S
C264 C270 1.504 . S
C265 C266 1.373 . S
C265 C269 1.308 . S
C266 C265 1.373 . S
C266 C267 1.429 . S
C266 H276 0.932 . S
C267 C264 1.358 . S
C267 C266 1.429 . S
C267 H277 0.930 . S
C268 C264 1.332 . S
C268 C269 1.394 . S
C268 H278 0.932 . S
C269 C265 1.308 . S
C269 C268 1.394 . S
C269 H279 0.929 . S
C270 Tb241 2.764 . S
C270 O254 1.239 . S
C270 O255 1.263 . S
C270 C264 1.504 . S
C271 O256 1.236 . S
C271 O257 1.257 . S
H272 C245 0.932 . S
H273 C246 0.930 . S
H274 C247 0.932 . S
H275 C248 0.929 . S
H276 C266 0.932 . S
H277 C267 0.930 . S
H278 C268 0.932 . S
H279 C269 0.929 . S
Tb280 C289 2.764 . S
Tb280 O290 2.325 . S
Tb280 O293 2.303 . S
Tb280 O297 2.322 . S
Tb280 O298 2.349 . S
Tb280 O301 2.415 . S
Tb280 O302 2.399 . S
Tb281 O291 2.322 . S
Tb281 O292 2.349 . S
Tb281 O294 2.415 . S
Tb281 O295 2.399 . S
Tb281 O296 2.325 . S
Tb281 O299 2.303 . S
Tb281 C310 2.764 . S
C282 O298 1.261 . S
C282 O299 1.257 . S
C283 C286 1.358 . S
C283 C287 1.332 . S
C283 C289 1.504 1_455 S
C284 C285 1.373 . S
C284 C288 1.308 . S
C285 C284 1.373 . S
C285 C286 1.429 . S
C285 H312 0.932 . S
C286 C283 1.358 . S
C286 C285 1.429 . S
C286 H313 0.930 . S
C287 C283 1.332 . S
C287 C288 1.394 . S
C287 H314 0.932 . S
C288 C284 1.308 . S
C288 C287 1.394 . S
C288 H315 0.929 . S
C289 Tb280 2.764 . S
C289 C283 1.504 1_655 S
C289 O301 1.239 . S
C289 O302 1.263 . S
O290 Tb280 2.325 . S
O290 C300 1.236 . S
O291 Tb281 2.322 . S
O291 C300 1.257 . S
O292 Tb281 2.349 . S
O292 C303 1.261 . S
O293 Tb280 2.303 . S
O293 C303 1.257 . S
O294 Tb281 2.415 . S
O294 C310 1.239 . S
O295 Tb281 2.399 . S
O295 C310 1.263 . S
O296 Tb281 2.325 . S
O296 C311 1.236 . S
O297 Tb280 2.322 . S
O297 C311 1.257 . S
O298 Tb280 2.349 . S
O298 C282 1.261 . S
O299 Tb281 2.303 . S
O299 C282 1.257 . S
C300 O290 1.236 . S
C300 O291 1.257 . S
O301 Tb280 2.415 . S
O301 C289 1.239 . S
O302 Tb280 2.399 . S
O302 C289 1.263 . S
C303 O292 1.261 . S
C303 O293 1.257 . S
C304 C307 1.358 . S
C304 C308 1.332 . S
C304 C310 1.504 . S
C305 C306 1.373 . S
C305 C309 1.308 . S
C306 C305 1.373 . S
C306 C307 1.429 . S
C306 H316 0.932 . S
C307 C304 1.358 . S
C307 C306 1.429 . S
C307 H317 0.930 . S
C308 C304 1.332 . S
C308 C309 1.394 . S
C308 H318 0.932 . S
C309 C305 1.308 . S
C309 C308 1.394 . S
C309 H319 0.929 . S
C310 Tb281 2.764 . S
C310 O294 1.239 . S
C310 O295 1.263 . S
C310 C304 1.504 . S
C311 O296 1.236 . S
C311 O297 1.257 . S
H312 C285 0.932 . S
H313 C286 0.930 . S
H314 C287 0.932 . S
H315 C288 0.929 . S
H316 C306 0.932 . S
H317 C307 0.930 . S
H318 C308 0.932 . S
H319 C309 0.929 . S
Tb320 C329 2.764 . S
Tb320 O330 2.325 . S
Tb320 O333 2.303 . S
Tb320 O337 2.322 . S
Tb320 O338 2.349 . S
Tb320 O341 2.415 . S
Tb320 O342 2.399 . S
Tb321 O331 2.322 . S
Tb321 O332 2.349 . S
Tb321 O334 2.415 . S
Tb321 O335 2.399 . S
Tb321 O336 2.325 . S
Tb321 O339 2.303 . S
Tb321 C350 2.764 . S
C322 O338 1.261 . S
C322 O339 1.257 . S
C323 C326 1.358 . S
C323 C327 1.332 . S
C323 C329 1.504 . S
C324 C325 1.373 . S
C324 C328 1.308 . S
C325 C324 1.373 . S
C325 C326 1.429 . S
C325 H352 0.932 . S
C326 C323 1.358 . S
C326 C325 1.429 . S
C326 H353 0.930 . S
C327 C323 1.332 . S
C327 C328 1.394 . S
C327 H354 0.932 . S
C328 C324 1.308 . S
C328 C327 1.394 . S
C328 H355 0.929 . S
C329 Tb320 2.764 . S
C329 C323 1.504 . S
C329 O341 1.239 . S
C329 O342 1.263 . S
O330 Tb320 2.325 . S
O330 C340 1.236 . S
O331 Tb321 2.322 . S
O331 C340 1.257 . S
O332 Tb321 2.349 . S
O332 C343 1.261 . S
O333 Tb320 2.303 . S
O333 C343 1.257 . S
O334 Tb321 2.415 . S
O334 C350 1.239 . S
O335 Tb321 2.399 . S
O335 C350 1.263 . S
O336 Tb321 2.325 . S
O336 C351 1.236 . S
O337 Tb320 2.322 . S
O337 C351 1.257 . S
O338 Tb320 2.349 . S
O338 C322 1.261 . S
O339 Tb321 2.303 . S
O339 C322 1.257 . S
C340 O330 1.236 . S
C340 O331 1.257 . S
O341 Tb320 2.415 . S
O341 C329 1.239 . S
O342 Tb320 2.399 . S
O342 C329 1.263 . S
C343 O332 1.261 . S
C343 O333 1.257 . S
C344 C347 1.358 . S
C344 C348 1.332 . S
C344 C350 1.504 . S
C345 C346 1.373 1_455 S
C345 C349 1.308 1_455 S
C346 C345 1.373 1_655 S
C346 C347 1.429 . S
C346 H356 0.932 1_655 S
C347 C344 1.358 . S
C347 C346 1.429 . S
C347 H357 0.930 . S
C348 C344 1.332 . S
C348 C349 1.394 . S
C348 H358 0.932 . S
C349 C345 1.308 1_655 S
C349 C348 1.394 . S
C349 H359 0.929 . S
C350 Tb321 2.764 . S
C350 O334 1.239 . S
C350 O335 1.263 . S
C350 C344 1.504 . S
C351 O336 1.236 . S
C351 O337 1.257 . S
H352 C325 0.932 . S
H353 C326 0.930 . S
H354 C327 0.932 . S
H355 C328 0.929 . S
H356 C346 0.932 1_455 S
H357 C347 0.930 . S
H358 C348 0.932 . S
H359 C349 0.929 . S
H360 C366 0.930 . S
H361 C370 0.930 . S
H362 C375 0.929 . S
H363 C373 0.929 . S
H364 C368 0.929 . S
H365 C374 0.929 . S
C366 H360 0.930 . S
C366 C367 1.367 . S
C366 C374 1.378 . S
C367 C366 1.367 . S
C367 C375 1.433 1_556 S
C368 H364 0.929 . S
C368 C370 1.378 . S
C368 C372 1.350 1_554 S
C369 C372 1.463 . S
C369 C374 1.350 . S
C369 N377 1.427 1_556 S
C370 H361 0.930 . S
C370 C368 1.378 . S
C370 C371 1.380 . S
C371 C370 1.380 . S
C371 C373 1.417 1_554 S
C372 C368 1.350 1_556 S
C372 C369 1.463 . S
C372 N376 1.427 . S
C373 H363 0.929 . S
C373 C371 1.417 1_556 S
C373 N376 1.384 . S
C374 H365 0.929 . S
C374 C366 1.378 . S
C374 C369 1.350 . S
C375 H362 0.929 . S
C375 C367 1.433 1_554 S
C375 N377 1.384 . S
N376 C372 1.427 . S
N376 C373 1.384 . S
N377 C369 1.427 1_554 S
N377 C375 1.384 . S
H378 C384 0.930 . S
H379 C388 0.930 . S
H380 C393 0.929 . S
H381 C391 0.929 . S
H382 C386 0.929 . S
H383 C392 0.929 . S
C384 H378 0.930 . S
C384 C385 1.367 . S
C384 C392 1.378 . S
C385 C384 1.367 . S
C385 C393 1.433 1_554 S
C386 H382 0.929 . S
C386 C388 1.378 . S
C386 C390 1.351 . S
C387 C390 1.462 1_554 S
C387 C392 1.350 . S
C387 N395 1.427 1_554 S
C388 H379 0.930 . S
C388 C386 1.378 . S
C388 C389 1.367 . S
C389 C388 1.367 . S
C389 C391 1.433 1_556 S
C390 C386 1.351 . S
C390 C387 1.462 1_556 S
C390 N394 1.426 1_556 S
C391 H381 0.929 . S
C391 C389 1.433 1_554 S
C391 N394 1.384 . S
C392 H383 0.929 . S
C392 C384 1.378 . S
C392 C387 1.350 . S
C393 H380 0.929 . S
C393 C385 1.433 1_556 S
C393 N395 1.384 . S
N394 C390 1.426 1_554 S
N394 C391 1.384 . S
N395 C387 1.427 1_556 S
N395 C393 1.384 . S
H396 C402 0.930 . S
H397 C406 0.930 . S
H398 C411 0.929 . S
H399 C409 0.929 . S
H400 C404 0.929 . S
H401 C410 0.929 . S
C402 H396 0.930 . S
C402 C403 1.372 . S
C402 C410 1.378 . S
C403 C402 1.372 . S
C403 C411 1.428 1_554 S
C404 H400 0.929 . S
C404 C406 1.378 . S
C404 C408 1.350 1_556 S
C405 C408 1.463 . S
C405 C410 1.350 . S
C405 N413 1.427 1_554 S
C406 H397 0.930 . S
C406 C404 1.378 . S
C406 C407 1.367 1_556 S
C407 C406 1.367 1_554 S
C407 C409 1.433 . S
C408 C404 1.350 1_554 S
C408 C405 1.463 . S
C408 N412 1.427 . S
C409 H399 0.929 . S
C409 C407 1.433 . S
C409 N412 1.384 . S
C410 H401 0.929 . S
C410 C402 1.378 . S
C410 C405 1.350 . S
C411 H398 0.929 . S
C411 C403 1.428 1_556 S
C411 N413 1.384 . S
N412 C408 1.427 . S
N412 C409 1.384 . S
N413 C405 1.427 1_556 S
N413 C411 1.384 . S
H414 C420 0.930 . S
H415 C424 0.930 . S
H416 C429 0.929 . S
H417 C427 0.929 . S
H418 C422 0.929 . S
H419 C428 0.929 . S
C420 H414 0.930 . S
C420 C421 1.367 1_556 S
C420 C428 1.378 . S
C421 C420 1.367 1_554 S
C421 C429 1.433 . S
C422 H418 0.929 . S
C422 C424 1.378 . S
C422 C426 1.350 . S
C423 C426 1.463 . S
C423 C428 1.350 1_554 S
C423 N431 1.427 . S
C424 H415 0.930 . S
C424 C422 1.378 . S
C424 C425 1.367 . S
C425 C424 1.367 . S
C425 C427 1.433 1_554 S
C426 C422 1.350 . S
C426 C423 1.463 . S
C426 N430 1.427 1_554 S
C427 H417 0.929 . S
C427 C425 1.433 1_556 S
C427 N430 1.384 . S
C428 H419 0.929 . S
C428 C420 1.378 . S
C428 C423 1.350 1_556 S
C429 H416 0.929 . S
C429 C421 1.433 . S
C429 N431 1.384 . S
N430 C426 1.427 1_556 S
N430 C427 1.384 . S
N431 C423 1.427 . S
N431 C429 1.384 . S
H432 C438 0.930 . S
H433 C442 0.930 . S
H434 C447 0.929 . S
H435 C445 0.929 . S
H436 C440 0.929 . S
H437 C446 0.929 . S
C438 H432 0.930 . S
C438 C439 1.367 . S
C438 C446 1.378 . S
C439 C438 1.367 . S
C439 C447 1.433 1_554 S
C440 H436 0.929 . S
C440 C442 1.378 . S
C440 C444 1.350 1_556 S
C441 C444 1.463 . S
C441 C446 1.350 . S
C441 N449 1.427 1_554 S
C442 H433 0.930 . S
C442 C440 1.378 . S
C442 C443 1.367 1_556 S
C443 C442 1.367 1_554 S
C443 C445 1.433 . S
C444 C440 1.350 1_554 S
C444 C441 1.463 . S
C444 N448 1.427 . S
C445 H435 0.929 . S
C445 C443 1.433 . S
C445 N448 1.384 . S
C446 H437 0.929 . S
C446 C438 1.378 . S
C446 C441 1.350 . S
C447 H434 0.929 . S
C447 C439 1.433 1_556 S
C447 N449 1.384 . S
N448 C444 1.427 . S
N448 C445 1.384 . S
N449 C441 1.427 1_556 S
N449 C447 1.384 . S
H450 C456 0.930 . S
H451 C460 0.930 . S
H452 C465 0.929 . S
H453 C463 0.929 . S
H454 C458 0.929 . S
H455 C464 0.929 . S
C456 H450 0.930 . S
C456 C457 1.367 1_556 S
C456 C464 1.378 . S
C457 C456 1.367 1_554 S
C457 C465 1.433 . S
C458 H454 0.929 . S
C458 C460 1.378 . S
C458 C462 1.350 . S
C459 C462 1.463 . S
C459 C464 1.350 1_554 S
C459 N467 1.427 . S
C460 H451 0.930 . S
C460 C458 1.378 . S
C460 C461 1.367 . S
C461 C460 1.367 . S
C461 C463 1.433 1_554 S
C462 C458 1.350 . S
C462 C459 1.463 . S
C462 N466 1.427 1_554 S
C463 H453 0.929 . S
C463 C461 1.433 1_556 S
C463 N466 1.384 . S
C464 H455 0.929 . S
C464 C456 1.378 . S
C464 C459 1.350 1_556 S
C465 H452 0.929 . S
C465 C457 1.433 . S
C465 N467 1.384 . S
N466 C462 1.427 1_556 S
N466 C463 1.384 . S
N467 C459 1.427 . S
N467 C465 1.384 . S
H468 C474 0.930 . S
H469 C478 0.930 . S
H470 C483 0.929 . S
H471 C481 0.929 . S
H472 C476 0.929 . S
H473 C482 0.929 . S
C474 H468 0.930 . S
C474 C475 1.367 . S
C474 C482 1.378 . S
C475 C474 1.367 . S
C475 C483 1.433 . S
C476 H472 0.929 . S
C476 C478 1.378 . S
C476 C480 1.350 . S
C477 C480 1.463 1_655 S
C477 C482 1.350 . S
C477 N485 1.427 . S
C478 H469 0.930 . S
C478 C476 1.378 . S
C478 C479 1.367 . S
C479 C478 1.367 . S
C479 C481 1.433 . S
C480 C476 1.350 . S
C480 C477 1.463 1_455 S
C480 N484 1.427 . S
C481 H471 0.929 . S
C481 C479 1.433 . S
C481 N484 1.384 . S
C482 H473 0.929 . S
C482 C474 1.378 . S
C482 C477 1.350 . S
C483 H470 0.929 . S
C483 C475 1.433 . S
C483 N485 1.384 . S
N484 C480 1.427 . S
N484 C481 1.384 . S
N485 C477 1.427 . S
N485 C483 1.384 . S
H486 C492 0.930 . S
H487 C496 0.930 . S
H488 C501 0.929 . S
H489 C499 0.929 . S
H490 C494 0.929 . S
H491 C500 0.929 . S
C492 H486 0.930 . S
C492 C493 1.367 . S
C492 C500 1.378 . S
C493 C492 1.367 . S
C493 C501 1.433 . S
C494 H490 0.929 . S
C494 C496 1.378 . S
C494 C498 1.350 . S
C495 C498 1.463 . S
C495 C500 1.350 . S
C495 N503 1.427 . S
C496 H487 0.930 . S
C496 C494 1.378 . S
C496 C497 1.367 . S
C497 C496 1.367 . S
C497 C499 1.433 . S
C498 C494 1.350 . S
C498 C495 1.463 . S
C498 N502 1.427 . S
C499 H489 0.929 . S
C499 C497 1.433 . S
C499 N502 1.384 . S
C500 H491 0.929 . S
C500 C492 1.378 . S
C500 C495 1.350 . S
C501 H488 0.929 . S
C501 C493 1.433 . S
C501 N503 1.384 . S
N502 C498 1.427 . S
N502 C499 1.384 . S
N503 C495 1.427 . S
N503 C501 1.384 . S
H504 C510 0.930 . S
H505 C514 0.930 . S
H506 C519 0.929 . S
H507 C517 0.929 . S
H508 C512 0.929 . S
H509 C518 0.929 . S
C510 H504 0.930 . S
C510 C511 1.367 . S
C510 C518 1.378 . S
C511 C510 1.367 . S
C511 C519 1.433 . S
C512 H508 0.929 . S
C512 C514 1.378 . S
C512 C516 1.350 . S
C513 C516 1.463 1_545 S
C513 C518 1.350 . S
C513 N521 1.427 . S
C514 H505 0.930 . S
C514 C512 1.378 . S
C514 C515 1.367 . S
C515 C514 1.367 . S
C515 C517 1.433 . S
C516 C512 1.350 . S
C516 C513 1.463 1_565 S
C516 N520 1.427 . S
C517 H507 0.929 . S
C517 C515 1.433 . S
C517 N520 1.384 . S
C518 H509 0.929 . S
C518 C510 1.378 . S
C518 C513 1.350 . S
C519 H506 0.929 . S
C519 C511 1.433 . S
C519 N521 1.384 . S
N520 C516 1.427 . S
N520 C517 1.384 . S
N521 C513 1.427 . S
N521 C519 1.384 . S
H522 C528 0.930 . S
H523 C532 0.930 . S
H524 C537 0.929 . S
H525 C535 0.929 . S
H526 C530 0.929 . S
H527 C536 0.929 . S
C528 H522 0.930 . S
C528 C529 1.367 . S
C528 C536 1.378 . S
C529 C528 1.367 . S
C529 C537 1.433 . S
C530 H526 0.929 . S
C530 C532 1.378 . S
C530 C534 1.350 . S
C531 C534 1.463 . S
C531 C536 1.350 . S
C531 N539 1.427 . S
C532 H523 0.930 . S
C532 C530 1.378 . S
C532 C533 1.367 . S
C533 C532 1.367 . S
C533 C535 1.433 . S
C534 C530 1.350 . S
C534 C531 1.463 . S
C534 N538 1.427 . S
C535 H525 0.929 . S
C535 C533 1.433 . S
C535 N538 1.384 . S
C536 H527 0.929 . S
C536 C528 1.378 . S
C536 C531 1.350 . S
C537 H524 0.929 . S
C537 C529 1.433 . S
C537 N539 1.384 . S
N538 C534 1.427 . S
N538 C535 1.384 . S
N539 C531 1.427 . S
N539 C537 1.384 . S
H540 C546 0.930 . S
H541 C550 0.930 . S
H542 C555 0.929 . S
H543 C553 0.929 . S
H544 C548 0.929 . S
H545 C554 0.929 . S
C546 H540 0.930 . S
C546 C547 1.367 . S
C546 C554 1.378 . S
C547 C546 1.367 . S
C547 C555 1.433 . S
C548 H544 0.929 . S
C548 C550 1.378 . S
C548 C552 1.350 . S
C549 C552 1.463 . S
C549 C554 1.350 . S
C549 N557 1.427 . S
C550 H541 0.930 . S
C550 C548 1.378 . S
C550 C551 1.367 . S
C551 C550 1.367 . S
C551 C553 1.433 . S
C552 C548 1.350 . S
C552 C549 1.463 . S
C552 N556 1.427 . S
C553 H543 0.929 . S
C553 C551 1.433 . S
C553 N556 1.384 . S
C554 H545 0.929 . S
C554 C546 1.378 . S
C554 C549 1.350 . S
C555 H542 0.929 . S
C555 C547 1.433 . S
C555 N557 1.384 . S
N556 C552 1.427 . S
N556 C553 1.384 . S
N557 C549 1.427 . S
N557 C555 1.384 . S
H558 C564 0.930 . S
H559 C568 0.930 . S
H560 C573 0.929 . S
H561 C571 0.929 . S
H562 C566 0.929 . S
H563 C572 0.929 . S
C564 H558 0.930 . S
C564 C565 1.367 . S
C564 C572 1.378 . S
C565 C564 1.367 . S
C565 C573 1.433 . S
C566 H562 0.929 . S
C566 C568 1.378 . S
C566 C570 1.350 . S
C567 C570 1.463 . S
C567 C572 1.350 . S
C567 N575 1.427 . S
C568 H559 0.930 . S
C568 C566 1.378 . S
C568 C569 1.367 . S
C569 C568 1.367 . S
C569 C571 1.433 . S
C570 C566 1.350 . S
C570 C567 1.463 . S
C570 N574 1.427 . S
C571 H561 0.929 . S
C571 C569 1.433 . S
C571 N574 1.384 . S
C572 H563 0.929 . S
C572 C564 1.378 . S
C572 C567 1.350 . S
C573 H560 0.929 . S
C573 C565 1.433 . S
C573 N575 1.384 . S
N574 C570 1.427 . S
N574 C571 1.384 . S
N575 C567 1.427 . S
N575 C573 1.384 . S
H576 C582 0.930 . S
H577 C586 0.930 . S
H578 C591 0.929 . S
H579 C589 0.929 . S
H580 C584 0.929 . S
H581 C590 0.929 . S
C582 H576 0.930 . S
C582 C583 1.367 . S
C582 C590 1.378 . S
C583 C582 1.367 . S
C583 C591 1.433 . S
C584 H580 0.929 . S
C584 C586 1.378 . S
C584 C588 1.350 . S
C585 C588 1.463 . S
C585 C590 1.350 . S
C585 N593 1.427 . S
C586 H577 0.930 . S
C586 C584 1.378 . S
C586 C587 1.367 . S
C587 C586 1.367 . S
C587 C589 1.433 . S
C588 C584 1.350 . S
C588 C585 1.463 . S
C588 N592 1.427 . S
C589 H579 0.929 . S
C589 C587 1.433 . S
C589 N592 1.384 . S
C590 H581 0.929 . S
C590 C582 1.378 . S
C590 C585 1.350 . S
C591 H578 0.929 . S
C591 C583 1.433 . S
C591 N593 1.384 . S
N592 C588 1.427 . S
N592 C589 1.384 . S
N593 C585 1.427 . S
N593 C591 1.384 . S
H594 C600 0.930 . S
H595 C604 0.930 . S
H596 C609 0.929 . S
H597 C607 0.929 . S
H598 C602 0.929 . S
H599 C608 0.929 . S
C600 H594 0.930 . S
C600 C601 1.367 . S
C600 C608 1.378 . S
C601 C600 1.367 . S
C601 C609 1.433 . S
C602 H598 0.929 . S
C602 C604 1.378 . S
C602 C606 1.350 . S
C603 C606 1.463 . S
C603 C608 1.350 . S
C603 N611 1.427 . S
C604 H595 0.930 . S
C604 C602 1.378 . S
C604 C605 1.367 . S
C605 C604 1.367 . S
C605 C607 1.433 . S
C606 C602 1.350 . S
C606 C603 1.463 . S
C606 N610 1.427 . S
C607 H597 0.929 . S
C607 C605 1.433 . S
C607 N610 1.384 . S
C608 H599 0.929 . S
C608 C600 1.378 . S
C608 C603 1.350 . S
C609 H596 0.929 . S
C609 C601 1.433 . S
C609 N611 1.384 . S
N610 C606 1.427 . S
N610 C607 1.384 . S
N611 C603 1.427 . S
N611 C609 1.384 . S
H612 C618 0.930 . S
H613 C622 0.930 . S
H614 C627 0.929 . S
H615 C625 0.929 . S
H616 C620 0.929 . S
H617 C626 0.929 . S
C618 H612 0.930 . S
C618 C619 1.367 . S
C618 C626 1.378 . S
C619 C618 1.367 . S
C619 C627 1.433 . S
C620 H616 0.929 . S
C620 C622 1.378 . S
C620 C624 1.350 . S
C621 C624 1.463 . S
C621 C626 1.350 . S
C621 N629 1.427 . S
C622 H613 0.930 . S
C622 C620 1.378 . S
C622 C623 1.367 . S
C623 C622 1.367 . S
C623 C625 1.433 . S
C624 C620 1.350 . S
C624 C621 1.463 . S
C624 N628 1.427 . S
C625 H615 0.929 . S
C625 C623 1.433 . S
C625 N628 1.384 . S
C626 H617 0.929 . S
C626 C618 1.378 . S
C626 C621 1.350 . S
C627 H614 0.929 . S
C627 C619 1.433 . S
C627 N629 1.384 . S
N628 C624 1.427 . S
N628 C625 1.384 . S
N629 C621 1.427 . S
N629 C627 1.384 . S
H630 C636 0.930 . S
H631 C640 0.930 . S
H632 C645 0.929 . S
H633 C643 0.929 . S
H634 C638 0.929 . S
H635 C644 0.929 . S
C636 H630 0.930 . S
C636 C637 1.367 . S
C636 C644 1.378 . S
C637 C636 1.367 . S
C637 C645 1.433 . S
C638 H634 0.929 . S
C638 C640 1.378 1_565 S
C638 C642 1.350 . S
C639 C642 1.463 . S
C639 C644 1.350 . S
C639 N647 1.427 . S
C640 H631 0.930 . S
C640 C638 1.378 1_545 S
C640 C641 1.367 . S
C641 C640 1.367 . S
C641 C643 1.433 . S
C642 C638 1.350 . S
C642 C639 1.463 . S
C642 N646 1.427 . S
C643 H633 0.929 . S
C643 C641 1.433 . S
C643 N646 1.384 1_545 S
C644 H635 0.929 . S
C644 C636 1.378 . S
C644 C639 1.350 . S
C645 H632 0.929 . S
C645 C637 1.433 . S
C645 N647 1.384 . S
N646 C642 1.427 . S
N646 C643 1.384 1_565 S
N647 C639 1.427 . S
N647 C645 1.384 . S
H648 C654 0.930 . S
H649 C658 0.930 . S
H650 C663 0.929 . S
H651 C661 0.929 . S
H652 C656 0.929 . S
H653 C662 0.929 . S
C654 H648 0.930 . S
C654 C655 1.367 . S
C654 C662 1.378 . S
C655 C654 1.367 . S
C655 C663 1.433 . S
C656 H652 0.929 . S
C656 C658 1.378 . S
C656 C660 1.350 . S
C657 C660 1.463 . S
C657 C662 1.350 . S
C657 N665 1.427 . S
C658 H649 0.930 . S
C658 C656 1.378 . S
C658 C659 1.367 1_565 S
C659 C658 1.367 1_545 S
C659 C661 1.433 . S
C660 C656 1.350 . S
C660 C657 1.463 . S
C660 N664 1.427 . S
C661 H651 0.929 . S
C661 C659 1.433 . S
C661 N664 1.384 1_545 S
C662 H653 0.929 . S
C662 C654 1.378 . S
C662 C657 1.350 . S
C663 H650 0.929 . S
C663 C655 1.433 . S
C663 N665 1.384 . S
N664 C660 1.427 . S
N664 C661 1.384 1_565 S
N665 C657 1.427 . S
N665 C663 1.384 . S
H666 C672 0.930 . S
H667 C676 0.930 . S
H668 C681 0.929 . S
H669 C679 0.929 . S
H670 C674 0.929 . S
H671 C680 0.929 . S
C672 H666 0.930 . S
C672 C673 1.367 . S
C672 C680 1.378 . S
C673 C672 1.367 . S
C673 C681 1.433 . S
C674 H670 0.929 . S
C674 C676 1.378 . S
C674 C678 1.350 . S
C675 C678 1.463 . S
C675 C680 1.350 . S
C675 N683 1.427 . S
C676 H667 0.930 . S
C676 C674 1.378 . S
C676 C677 1.367 . S
C677 C676 1.367 . S
C677 C679 1.433 . S
C678 C674 1.350 . S
C678 C675 1.463 . S
C678 N682 1.427 . S
C679 H669 0.929 . S
C679 C677 1.433 . S
C679 N682 1.384 . S
C680 H671 0.929 . S
C680 C672 1.378 . S
C680 C675 1.350 . S
C681 H668 0.929 . S
C681 C673 1.433 . S
C681 N683 1.384 . S
N682 C678 1.427 . S
N682 C679 1.384 . S
N683 C675 1.427 . S
N683 C681 1.384 . S
H684 C690 0.930 . S
H685 C694 0.954 . S
H686 C699 0.929 . S
H687 C697 0.929 . S
H688 C692 0.929 . S
H689 C698 0.929 . S
C690 H684 0.930 . S
C690 C691 1.367 . S
C690 C698 1.378 . S
C691 C690 1.367 . S
C691 C699 1.433 . S
C692 H688 0.929 . S
C692 C694 1.378 . S
C692 C696 1.350 . S
C693 C696 1.463 . S
C693 C698 1.350 . S
C693 N701 1.427 . S
C694 H685 0.954 . S
C694 C692 1.378 . S
C694 C695 1.367 . S
C695 C694 1.367 . S
C695 C697 1.433 . S
C696 C692 1.350 . S
C696 C693 1.463 . S
C696 N700 1.427 . S
C697 H687 0.929 . S
C697 C695 1.433 . S
C697 N700 1.384 . S
C698 H689 0.929 . S
C698 C690 1.378 . S
C698 C693 1.350 . S
C699 H686 0.929 . S
C699 C691 1.433 . S
C699 N701 1.384 . S
N700 C696 1.427 . S
N700 C697 1.384 . S
N701 C693 1.427 . S
N701 C699 1.384 . S
H702 C708 0.930 . S
H703 C712 0.930 . S
H704 C717 0.929 . S
H705 C715 0.929 . S
H706 C710 0.929 . S
H707 C716 0.929 . S
C708 H702 0.930 . S
C708 C709 1.367 . S
C708 C716 1.378 . S
C709 C708 1.367 . S
C709 C717 1.433 . S
C710 H706 0.929 . S
C710 C712 1.378 . S
C710 C714 1.350 . S
C711 C714 1.463 . S
C711 C716 1.350 . S
C711 N719 1.427 . S
C712 H703 0.930 . S
C712 C710 1.378 . S
C712 C713 1.367 . S
C713 C712 1.367 . S
C713 C715 1.433 . S
C714 C710 1.350 . S
C714 C711 1.463 . S
C714 N718 1.427 . S
C715 H705 0.929 . S
C715 C713 1.433 . S
C715 N718 1.384 . S
C716 H707 0.929 . S
C716 C708 1.378 . S
C716 C711 1.350 . S
C717 H704 0.929 . S
C717 C709 1.433 . S
C717 N719 1.384 . S
N718 C714 1.427 . S
N718 C715 1.384 . S
N719 C711 1.427 . S
N719 C717 1.384 . S
H720 C726 0.930 . S
H721 C730 0.930 . S
H722 C735 0.929 . S
H723 C733 0.929 . S
H724 C728 0.929 . S
H725 C734 0.929 . S
C726 H720 0.930 . S
C726 C727 1.367 . S
C726 C734 1.378 . S
C727 C726 1.367 . S
C727 C735 1.433 . S
C728 H724 0.929 . S
C728 C730 1.378 . S
C728 C732 1.350 . S
C729 C732 1.463 . S
C729 C734 1.350 . S
C729 N737 1.427 . S
C730 H721 0.930 . S
C730 C728 1.378 . S
C730 C731 1.367 . S
C731 C730 1.367 . S
C731 C733 1.433 . S
C732 C728 1.350 . S
C732 C729 1.463 . S
C732 N736 1.427 . S
C733 H723 0.929 . S
C733 C731 1.433 . S
C733 N736 1.384 . S
C734 H725 0.929 . S
C734 C726 1.378 . S
C734 C729 1.350 . S
C735 H722 0.929 . S
C735 C727 1.433 . S
C735 N737 1.384 . S
N736 C732 1.427 . S
N736 C733 1.384 . S
N737 C729 1.427 . S
N737 C735 1.384 . S
H738 C744 0.930 1_565 S
H739 C748 0.930 . S
H740 C753 0.929 . S
H741 C751 0.929 . S
H742 C746 0.929 . S
H743 C752 0.929 . S
C744 H738 0.930 1_545 S
C744 C745 1.367 . S
C744 C752 1.378 . S
C745 C744 1.367 . S
C745 C753 1.433 . S
C746 H742 0.929 . S
C746 C748 1.378 . S
C746 C750 1.350 . S
C747 C750 1.463 . S
C747 C752 1.350 . S
C747 N755 1.427 . S
C748 H739 0.930 . S
C748 C746 1.378 . S
C748 C749 1.367 . S
C749 C748 1.367 . S
C749 C751 1.433 . S
C750 C746 1.350 . S
C750 C747 1.463 . S
C750 N754 1.427 . S
C751 H741 0.929 . S
C751 C749 1.433 . S
C751 N754 1.384 . S
C752 H743 0.929 . S
C752 C744 1.378 . S
C752 C747 1.350 . S
C753 H740 0.929 . S
C753 C745 1.433 . S
C753 N755 1.384 . S
N754 C750 1.427 . S
N754 C751 1.384 . S
N755 C747 1.427 . S
N755 C753 1.384 . S
H756 C762 0.930 1_455 S
H757 C766 0.930 . S
H758 C771 0.929 . S
H759 C769 0.929 . S
H760 C764 0.929 . S
H761 C770 0.929 . S
C762 H756 0.930 1_655 S
C762 C763 1.367 . S
C762 C770 1.378 . S
C763 C762 1.367 . S
C763 C771 1.433 . S
C764 H760 0.929 . S
C764 C766 1.378 . S
C764 C768 1.350 . S
C765 C768 1.463 . S
C765 C770 1.350 . S
C765 N773 1.427 . S
C766 H757 0.930 . S
C766 C764 1.378 . S
C766 C767 1.367 . S
C767 C766 1.367 . S
C767 C769 1.433 . S
C768 C764 1.350 . S
C768 C765 1.463 . S
C768 N772 1.427 . S
C769 H759 0.929 . S
C769 C767 1.433 . S
C769 N772 1.384 . S
C770 H761 0.929 . S
C770 C762 1.378 . S
C770 C765 1.350 . S
C771 H758 0.929 . S
C771 C763 1.433 . S
C771 N773 1.384 . S
N772 C768 1.427 . S
N772 C769 1.384 . S
N773 C765 1.427 . S
N773 C771 1.384 . S
H774 C780 0.930 . S
H775 C784 0.930 . S
H776 C789 0.929 . S
H777 C787 0.929 . S
H778 C782 0.929 . S
H779 C788 0.929 . S
C780 H774 0.930 . S
C780 C781 1.367 . S
C780 C788 1.378 . S
C781 C780 1.367 . S
C781 C789 1.433 . S
C782 H778 0.929 . S
C782 C784 1.378 . S
C782 C786 1.350 . S
C783 C786 1.463 . S
C783 C788 1.350 . S
C783 N791 1.427 . S
C784 H775 0.930 . S
C784 C782 1.378 . S
C784 C785 1.367 . S
C785 C784 1.367 . S
C785 C787 1.433 . S
C786 C782 1.350 . S
C786 C783 1.463 . S
C786 N790 1.427 . S
C787 H777 0.929 . S
C787 C785 1.433 . S
C787 N790 1.384 . S
C788 H779 0.929 . S
C788 C780 1.378 . S
C788 C783 1.350 . S
C789 H776 0.929 . S
C789 C781 1.433 . S
C789 N791 1.384 . S
N790 C786 1.427 . S
N790 C787 1.384 . S
N791 C783 1.427 . S
N791 C789 1.384 . S
H792 C798 0.930 . S
H793 C802 0.930 . S
H794 C807 0.929 . S
H795 C805 0.929 . S
H796 C800 0.929 . S
H797 C806 0.929 . S
C798 H792 0.930 . S
C798 C799 1.367 . S
C798 C806 1.378 . S
C799 C798 1.367 . S
C799 C807 1.433 . S
C800 H796 0.929 . S
C800 C802 1.378 . S
C800 C804 1.350 . S
C801 C804 1.463 . S
C801 C806 1.350 . S
C801 N809 1.427 . S
C802 H793 0.930 . S
C802 C800 1.378 . S
C802 C803 1.367 . S
C803 C802 1.367 . S
C803 C805 1.433 . S
C804 C800 1.350 . S
C804 C801 1.463 . S
C804 N808 1.427 . S
C805 H795 0.929 . S
C805 C803 1.433 . S
C805 N808 1.384 . S
C806 H797 0.929 . S
C806 C798 1.378 . S
C806 C801 1.350 . S
C807 H794 0.929 . S
C807 C799 1.433 . S
C807 N809 1.384 . S
N808 C804 1.427 . S
N808 C805 1.384 . S
N809 C801 1.427 . S
N809 C807 1.384 . S
H810 C816 0.930 . S
H811 C820 0.930 . S
H812 C825 0.929 . S
H813 C823 0.929 . S
H814 C818 0.929 1_565 S
H815 C824 0.929 . S
C816 H810 0.930 . S
C816 C817 1.367 . S
C816 C824 1.378 . S
C817 C816 1.367 . S
C817 C825 1.433 . S
C818 H814 0.929 1_545 S
C818 C820 1.378 . S
C818 C822 1.350 . S
C819 C822 1.463 1_565 S
C819 C824 1.350 . S
C819 N827 1.427 . S
C820 H811 0.930 . S
C820 C818 1.378 . S
C820 C821 1.367 . S
C821 C820 1.367 . S
C821 C823 1.433 . S
C822 C818 1.350 . S
C822 C819 1.463 1_545 S
C822 N826 1.427 . S
C823 H813 0.929 . S
C823 C821 1.433 . S
C823 N826 1.384 . S
C824 H815 0.929 . S
C824 C816 1.378 . S
C824 C819 1.350 . S
C825 H812 0.929 . S
C825 C817 1.433 . S
C825 N827 1.384 . S
N826 C822 1.427 . S
N826 C823 1.384 . S
N827 C819 1.427 . S
N827 C825 1.384 . S
H828 C834 0.930 . S
H829 C838 0.930 . S
H830 C843 0.929 . S
H831 C841 0.929 . S
H832 C836 0.929 . S
H833 C842 0.929 . S
C834 H828 0.930 . S
C834 C835 1.367 . S
C834 C842 1.378 . S
C835 C834 1.367 . S
C835 C843 1.433 . S
C836 H832 0.929 . S
C836 C838 1.378 . S
C836 C840 1.350 . S
C837 C840 1.463 1_655 S
C837 C842 1.350 . S
C837 N845 1.433 . S
C838 H829 0.930 . S
C838 C836 1.378 . S
C838 C839 1.367 . S
C839 C838 1.367 . S
C839 C841 1.433 . S
C840 C836 1.350 . S
C840 C837 1.463 1_455 S
C840 N844 1.427 . S
C841 H831 0.929 . S
C841 C839 1.433 . S
C841 N844 1.384 . S
C842 H833 0.929 . S
C842 C834 1.378 . S
C842 C837 1.350 . S
C843 H830 0.929 . S
C843 C835 1.433 . S
C843 N845 1.402 . S
N844 C840 1.427 . S
N844 C841 1.384 . S
N845 C837 1.433 . S
N845 C843 1.402 . S
C367 C65 0.552 . S
C371 C4 0.615 . S
C385 C100 3.361 . S
C389 C71 3.396 . S
C403 C84 0.987 . S
C407 C20 0.987 . S
C421 C111 3.025 . S
C425 C60 3.005 . S
C439 C105 2.007 . S
C443 C31 2.005 . S
C457 C25 0.564 . S
C461 C44 0.689 . S
C475 C124 2.830 . S
C479 C180 2.860 . S
C493 C220 0.861 . S
C497 C164 0.865 . S
C511 C204 0.840 . S
C515 C140 0.840 . S
C529 C185 0.391 . S
C533 C231 0.345 . S
C547 C225 2.092 . S
C551 C151 2.090 . S
C565 C191 2.315 . S
C569 C145 2.323 . S
C583 C305 0.516 . S
C587 C244 0.598 . S
C601 C311 3.434 . S
C605 C340 3.401 . S
C619 C324 1.007 . S
C623 C260 1.007 . S
C637 C351 2.962 . S
C641 C300 2.941 . S
C655 C345 2.024 . S
C659 C271 2.022 . S
C673 C265 0.521 . S
C677 C284 0.644 . S
C691 C202 2.332 . S
C695 C23 2.607 . S
C709 C122 2.027 . S
C713 C42 1.976 . S
C727 C103 2.992 . S
C731 C162 2.782 . S
C745 C82 2.331 . S
C749 C263 2.617 . S
C763 C2 1.975 . S
C767 C282 1.945 . S
C781 C343 2.979 . S
C785 C63 2.999 . S
C799 C143 2.662 . S
C803 C322 2.374 . S
C817 C183 2.145 . S
C821 C242 1.996 . S
C835 C303 2.958 . S
C839 C223 2.938 . S
