# Generated by pormake.
# Topology wiv, (6)-cn, num edge types: 1
# Building blocks:
#     Node 0, Type 0, BuildingBlock: HISSIN_clean_sbu_0, # of connection points: 6
#     Node 1, Type 0, BuildingBlock: HISSIN_clean_sbu_0, # of connection points: 6
#     Node 2, Type 0, BuildingBlock: HISSIN_clean_sbu_0, # of connection points: 6
#     Node 3, Type 0, BuildingBlock: HISSIN_clean_sbu_0, # of connection points: 6
#     Node 4, Type 0, BuildingBlock: HISSIN_clean_sbu_0, # of connection points: 6
#     Node 5, Type 0, BuildingBlock: HISSIN_clean_sbu_0, # of connection points: 6
#     Node 6, Type 0, BuildingBlock: HISSIN_clean_sbu_0, # of connection points: 6
#     Node 7, Type 0, BuildingBlock: HISSIN_clean_sbu_0, # of connection points: 6
#     Node 8, Type 0, BuildingBlock: HISSIN_clean_sbu_0, # of connection points: 6
#     Node 9, Type 0, BuildingBlock: HISSIN_clean_sbu_0, # of connection points: 6
#     Node 10, Type 0, BuildingBlock: HISSIN_clean_sbu_0, # of connection points: 6
#     Node 11, Type 0, BuildingBlock: HISSIN_clean_sbu_0, # of connection points: 6
#     Node 12, Type 0, BuildingBlock: HISSIN_clean_sbu_0, # of connection points: 6
#     Node 13, Type 0, BuildingBlock: HISSIN_clean_sbu_0, # of connection points: 6
#     Node 14, Type 0, BuildingBlock: HISSIN_clean_sbu_0, # of connection points: 6
#     Node 15, Type 0, BuildingBlock: HISSIN_clean_sbu_0, # of connection points: 6
#     Edge 16, Type (0, 0), BuildingBlock: EZIPEK_clean_linker_0, # of connection points: 2
#     Edge 17, Type (0, 0), BuildingBlock: EZIPEK_clean_linker_0, # of connection points: 2
#     Edge 18, Type (0, 0), BuildingBlock: EZIPEK_clean_linker_0, # of connection points: 2
#     Edge 19, Type (0, 0), BuildingBlock: EZIPEK_clean_linker_0, # of connection points: 2
#     Edge 20, Type (0, 0), BuildingBlock: EZIPEK_clean_linker_0, # of connection points: 2
#     Edge 21, Type (0, 0), BuildingBlock: EZIPEK_clean_linker_0, # of connection points: 2
#     Edge 22, Type (0, 0), BuildingBlock: EZIPEK_clean_linker_0, # of connection points: 2
#     Edge 23, Type (0, 0), BuildingBlock: EZIPEK_clean_linker_0, # of connection points: 2
#     Edge 24, Type (0, 0), BuildingBlock: EZIPEK_clean_linker_0, # of connection points: 2
#     Edge 25, Type (0, 0), BuildingBlock: EZIPEK_clean_linker_0, # of connection points: 2
#     Edge 26, Type (0, 0), BuildingBlock: EZIPEK_clean_linker_0, # of connection points: 2
#     Edge 27, Type (0, 0), BuildingBlock: EZIPEK_clean_linker_0, # of connection points: 2
#     Edge 28, Type (0, 0), BuildingBlock: EZIPEK_clean_linker_0, # of connection points: 2
#     Edge 29, Type (0, 0), BuildingBlock: EZIPEK_clean_linker_0, # of connection points: 2
#     Edge 30, Type (0, 0), BuildingBlock: EZIPEK_clean_linker_0, # of connection points: 2
#     Edge 31, Type (0, 0), BuildingBlock: EZIPEK_clean_linker_0, # of connection points: 2
#     Edge 32, Type (0, 0), BuildingBlock: EZIPEK_clean_linker_0, # of connection points: 2
#     Edge 33, Type (0, 0), BuildingBlock: EZIPEK_clean_linker_0, # of connection points: 2
#     Edge 34, Type (0, 0), BuildingBlock: EZIPEK_clean_linker_0, # of connection points: 2
#     Edge 35, Type (0, 0), BuildingBlock: EZIPEK_clean_linker_0, # of connection points: 2
#     Edge 36, Type (0, 0), BuildingBlock: EZIPEK_clean_linker_0, # of connection points: 2
#     Edge 37, Type (0, 0), BuildingBlock: EZIPEK_clean_linker_0, # of connection points: 2
#     Edge 38, Type (0, 0), BuildingBlock: EZIPEK_clean_linker_0, # of connection points: 2
#     Edge 39, Type (0, 0), BuildingBlock: EZIPEK_clean_linker_0, # of connection points: 2
#     Edge 40, Type (0, 0), BuildingBlock: EZIPEK_clean_linker_0, # of connection points: 2
#     Edge 41, Type (0, 0), BuildingBlock: EZIPEK_clean_linker_0, # of connection points: 2
#     Edge 42, Type (0, 0), BuildingBlock: EZIPEK_clean_linker_0, # of connection points: 2
#     Edge 43, Type (0, 0), BuildingBlock: EZIPEK_clean_linker_0, # of connection points: 2
#     Edge 44, Type (0, 0), BuildingBlock: EZIPEK_clean_linker_0, # of connection points: 2
#     Edge 45, Type (0, 0), BuildingBlock: EZIPEK_clean_linker_0, # of connection points: 2
#     Edge 46, Type (0, 0), BuildingBlock: EZIPEK_clean_linker_0, # of connection points: 2
#     Edge 47, Type (0, 0), BuildingBlock: EZIPEK_clean_linker_0, # of connection points: 2
#     Edge 48, Type (0, 0), BuildingBlock: EZIPEK_clean_linker_0, # of connection points: 2
#     Edge 49, Type (0, 0), BuildingBlock: EZIPEK_clean_linker_0, # of connection points: 2
#     Edge 50, Type (0, 0), BuildingBlock: EZIPEK_clean_linker_0, # of connection points: 2
#     Edge 51, Type (0, 0), BuildingBlock: EZIPEK_clean_linker_0, # of connection points: 2
#     Edge 52, Type (0, 0), BuildingBlock: EZIPEK_clean_linker_0, # of connection points: 2
#     Edge 53, Type (0, 0), BuildingBlock: EZIPEK_clean_linker_0, # of connection points: 2
#     Edge 54, Type (0, 0), BuildingBlock: EZIPEK_clean_linker_0, # of connection points: 2
#     Edge 55, Type (0, 0), BuildingBlock: EZIPEK_clean_linker_0, # of connection points: 2
#     Edge 56, Type (0, 0), BuildingBlock: EZIPEK_clean_linker_0, # of connection points: 2
#     Edge 57, Type (0, 0), BuildingBlock: EZIPEK_clean_linker_0, # of connection points: 2
#     Edge 58, Type (0, 0), BuildingBlock: EZIPEK_clean_linker_0, # of connection points: 2
#     Edge 59, Type (0, 0), BuildingBlock: EZIPEK_clean_linker_0, # of connection points: 2
#     Edge 60, Type (0, 0), BuildingBlock: EZIPEK_clean_linker_0, # of connection points: 2
#     Edge 61, Type (0, 0), BuildingBlock: EZIPEK_clean_linker_0, # of connection points: 2
#     Edge 62, Type (0, 0), BuildingBlock: EZIPEK_clean_linker_0, # of connection points: 2
#     Edge 63, Type (0, 0), BuildingBlock: EZIPEK_clean_linker_0, # of connection points: 2
# Relax obj value: 0.173
# Max RMSD: 0.222
# Mean RMSD: 0.222
data_MOF--net-wiv--node1-HISSIN_clean_sbu_0--edge1-EZIPEK_clean_linker_0
_symmetry_space_group_name_H-M    P1
_symmetry_Int_Tables_number       1
_symmetry_cell_setting            triclinic
loop_
_symmetry_equiv_pos_as_xyz
'x, y, z'
_cell_length_a     35.463482
_cell_length_b     35.557159
_cell_length_c     20.239142
_cell_angle_alpha  89.896712
_cell_angle_beta   90.196821
_cell_angle_gamma 90.000858
loop_
_atom_site_label
_atom_site_type_symbol
_atom_site_fract_x
_atom_site_fract_y
_atom_site_fract_z
_atom_type_partial_charge
Eu0 Eu 0.32128 0.09137 0.19706 0.0
Eu1 Eu 0.38351 0.09272 0.07996 0.0
C2 C 0.36349 0.0176 0.15932 0.0
C3 C 0.29487 0.08771 0.37369 0.0
C4 C 0.3206 0.06022 0.39609 0.0
C5 C 0.29858 0.11761 0.48192 0.0
C6 C 0.33517 0.06152 0.4604 0.0
C7 C 0.28419 0.11653 0.41727 0.0
C8 C 0.3242 0.09012 0.5039 0.0
C9 C 0.2812 0.08774 0.30413 0.0
O10 O 0.32874 0.07405 1.0335 0.0
O11 O 0.28669 0.10268 0.10241 0.0
C12 C 0.29543 0.08879 1.04369 0.0
O13 O 0.34656 0.14887 0.19639 0.0
O14 O 0.41205 0.06129 1.0021 0.0
O15 O 0.42068 0.12135 1.01001 0.0
O16 O 0.35644 0.15087 0.08601 0.0
C17 C 0.3511 0.1684 0.14243 0.0
O18 O 0.378 0.08597 0.24852 0.0
O19 O 0.41892 0.10872 0.16968 0.0
O20 O 0.39161 0.03891 0.13962 0.0
O21 O 0.28581 0.11892 0.27107 0.0
O22 O 0.28953 0.05827 0.26875 0.0
O23 O 0.32987 0.0326 0.16046 0.0
C24 C 0.41279 0.09544 0.90256 0.0
C25 C 0.38237 0.11877 0.88441 0.0
C26 C 0.41595 0.07291 0.78909 0.0
C27 C 0.36899 0.11923 0.8192 0.0
C28 C 0.42963 0.07276 0.85419 0.0
C29 C 0.38535 0.09594 0.77123 0.0
C30 C 0.42421 0.09159 0.97272 0.0
C31 C 0.41105 0.09968 0.23144 0.0
H32 H 0.32997 0.03788 0.36374 0.0
H33 H 0.2899 0.14001 0.51473 0.0
H34 H 0.35507 0.0402 0.47629 0.0
H35 H 0.26468 0.13818 0.40127 0.0
H36 H 0.36832 0.13596 0.92098 0.0
H37 H 0.42887 0.05467 0.7528 0.0
H38 H 0.34522 0.137 0.80651 0.0
H39 H 0.45272 0.05418 0.8672 0.0
Eu40 Eu 0.0936 0.60714 1.01677 0.0
Eu41 Eu 0.08335 0.67167 0.89906 0.0
C42 C 0.16737 0.64551 0.94265 0.0
C43 C 0.09212 0.57798 0.19488 0.0
C44 C 0.10479 0.6139 0.21374 0.0
C45 C 0.0713 0.56708 0.30802 0.0
C46 C 0.10065 0.62633 0.27892 0.0
C47 C 0.07538 0.55466 0.24259 0.0
C48 C 0.08375 0.60312 0.32659 0.0
C49 C 0.09318 0.56646 0.1246 0.0
O50 O 0.09379 0.61572 0.84779 0.0
O51 O 0.10504 0.57072 0.92827 0.0
C52 C 0.103 0.58123 0.86591 0.0
O53 O 0.04044 0.59577 0.95739 0.0
O54 O 0.09689 0.71335 0.82241 0.0
O55 O 0.04067 0.69022 0.82859 0.0
O56 O 0.02939 0.65686 0.94986 0.0
C57 C 0.01661 0.62271 0.94355 0.0
O58 O 0.08084 0.66221 0.06792 0.0
O59 O 0.08921 0.70906 0.99041 0.0
O60 O 0.1461 0.66652 0.90439 0.0
O61 O 0.0629 0.57446 0.09065 0.0
O62 O 0.12386 0.57448 0.09188 0.0
O63 O 0.15391 0.6232 0.98938 0.0
C64 C 0.06598 0.69593 0.72101 0.0
C65 C 0.03379 0.67985 0.6913 0.0
C66 C 0.10088 0.68334 0.61961 0.0
C67 C 0.03544 0.66473 0.62751 0.0
C68 C 0.09949 0.6977 0.68408 0.0
C69 C 0.06904 0.66617 0.59108 0.0
C70 C 0.06487 0.70795 0.79158 0.0
C71 C 0.08471 0.69789 0.05241 0.0
H72 H 0.11731 0.63266 0.17775 0.0
H73 H 0.05798 0.54884 0.34394 0.0
H74 H 0.1102 0.65428 0.29205 0.0
H75 H 0.0649 0.52711 0.22899 0.0
H76 H 0.00746 0.67803 0.71806 0.0
H77 H 0.12709 0.68488 0.59241 0.0
H78 H 0.01051 0.65163 0.60668 0.0
H79 H 0.12484 0.70974 0.70523 0.0
Eu80 Eu 0.67661 0.9027 0.1885 0.0
Eu81 Eu 0.61036 0.90045 0.07301 0.0
C82 C 0.63389 0.97504 0.14992 0.0
C83 C 0.69702 0.91178 0.36801 0.0
C84 C 0.67743 0.94355 0.39141 0.0
C85 C 0.68293 0.88009 0.47231 0.0
C86 C 0.66089 0.94365 0.45412 0.0
C87 C 0.69909 0.87985 0.40906 0.0
C88 C 0.66377 0.91205 0.49543 0.0
C89 C 0.71274 0.91121 0.29962 0.0
O90 O 0.66607 0.90784 1.02021 0.0
O91 O 0.71379 0.899 0.0967 0.0
C92 C 0.70191 0.90368 1.03508 0.0
O93 O 0.6729 0.84146 0.16703 0.0
O94 O 0.58068 0.93431 0.99894 0.0
O95 O 0.57339 0.87397 0.99997 0.0
O96 O 0.6206 0.83887 0.09847 0.0
C97 C 0.64673 0.82266 0.13546 0.0
O98 O 0.62018 0.89782 0.24029 0.0
O99 O 0.57374 0.88912 0.16141 0.0
O100 O 0.60494 0.95384 0.13426 0.0
O101 O 0.71182 0.87924 0.26808 0.0
O102 O 0.70327 0.93917 0.26124 0.0
O103 O 0.66712 0.95975 0.14498 0.0
C104 C 0.57922 0.90381 0.8957 0.0
C105 C 0.61373 0.88775 0.87653 0.0
C106 C 0.56797 0.9222 0.78119 0.0
C107 C 0.62534 0.88907 0.81052 0.0
C108 C 0.55633 0.92087 0.84744 0.0
C109 C 0.60272 0.90651 0.76232 0.0
C110 C 0.56862 0.90502 0.9664 0.0
C111 C 0.58506 0.89082 0.22331 0.0
H112 H 0.67422 0.96822 0.36077 0.0
H113 H 0.68527 0.85529 0.50319 0.0
H114 H 0.64589 0.96845 0.47055 0.0
H115 H 0.71313 0.8546 0.39222 0.0
H116 H 0.63205 0.87469 0.91283 0.0
H117 H 0.55021 0.93596 0.74485 0.0
H118 H 0.65232 0.87702 0.79715 0.0
H119 H 0.52981 0.93374 0.86117 0.0
Eu120 Eu 0.90918 0.39061 1.0133 0.0
Eu121 Eu 0.91446 0.32666 0.8968 0.0
C122 C 0.83403 0.35585 0.9456 0.0
C123 C 0.91043 0.41856 0.19235 0.0
C124 C 0.8985 0.44299 0.24262 0.0
C125 C 0.92282 0.37037 0.2756 0.0
C126 C 0.89869 0.43112 0.30895 0.0
C127 C 0.92265 0.3822 0.20967 0.0
C128 C 0.91081 0.39464 0.32585 0.0
C129 C 0.90996 0.43048 0.12203 0.0
O130 O 0.9084 0.38161 0.84285 0.0
O131 O 0.89529 0.42613 0.92271 0.0
C132 C 0.89882 0.41586 0.86017 0.0
O133 O 0.9611 0.40223 0.95167 0.0
O134 O 0.89566 0.28407 0.82645 0.0
O135 O 0.953 0.30461 0.82227 0.0
O136 O 0.97168 0.34079 0.93783 0.0
C137 C 0.98438 0.37529 0.93518 0.0
O138 O 0.93077 0.33616 0.05731 0.0
O139 O 0.90334 0.29236 0.99034 0.0
O140 O 0.85414 0.34538 0.89471 0.0
O141 O 0.9401 0.42221 0.08828 0.0
O142 O 0.87922 0.42317 0.08874 0.0
O143 O 0.85001 0.36638 1.0015 0.0
C144 C 0.92077 0.30072 0.7209 0.0
C145 C 0.95083 0.29826 0.67608 0.0
C146 C 0.88524 0.33644 0.63842 0.0
C147 C 0.94774 0.31367 0.61247 0.0
C148 C 0.88795 0.32018 0.70141 0.0
C149 C 0.91498 0.3331 0.59308 0.0
C150 C 0.92591 0.28779 0.79022 0.0
C151 C 0.91652 0.30253 0.04872 0.0
H152 H 0.88895 0.47114 0.23059 0.0
H153 H 0.93219 0.34213 0.28743 0.0
H154 H 0.88922 0.45025 0.34702 0.0
H155 H 0.93213 0.3628 0.17226 0.0
H156 H 0.97699 0.28481 0.69064 0.0
H157 H 0.85993 0.35176 0.62501 0.0
H158 H 0.97123 0.31105 0.57871 0.0
H159 H 0.86474 0.3238 0.73545 0.0
Eu160 Eu 0.32584 0.41406 0.14651 0.0
Eu161 Eu 0.39035 0.40333 0.26398 0.0
C162 C 0.37368 0.48088 0.19306 0.0
C163 C 0.30055 0.42756 0.96952 0.0
C164 C 0.28837 0.45308 0.92088 0.0
C165 C 0.34148 0.39796 0.88813 0.0
C166 C 0.3024 0.45085 0.8562 0.0
C167 C 0.32721 0.39995 0.95249 0.0
C168 C 0.32924 0.42339 0.83944 0.0
C169 C 0.28914 0.43249 1.03928 0.0
O170 O 0.33553 0.41663 0.31521 0.0
O171 O 0.28869 0.40682 0.23809 0.0
C172 C 0.2999 0.4114 0.30013 0.0
O173 O 0.33199 0.35155 0.14839 0.0
O174 O 0.42739 0.43236 0.33359 0.0
O175 O 0.41834 0.37254 0.34435 0.0
O176 O 0.37512 0.34331 0.23375 0.0
C177 C 0.35308 0.33013 0.1862 0.0
O178 O 0.38218 0.40369 0.09581 0.0
O179 O 0.42702 0.39121 0.17626 0.0
O180 O 0.40084 0.45713 0.20635 0.0
O181 O 0.28176 0.40208 0.07336 0.0
O182 O 0.31016 0.45589 0.07239 0.0
O183 O 0.33951 0.46784 0.19851 0.0
C184 C 0.41828 0.40897 0.44236 0.0
C185 C 0.43175 0.38516 0.49264 0.0
C186 C 0.37809 0.44015 0.52334 0.0
C187 C 0.41814 0.38847 0.55746 0.0
C188 C 0.39137 0.43663 0.45853 0.0
C189 C 0.39099 0.41582 0.57315 0.0
C190 C 0.43024 0.40328 0.37276 0.0
C191 C 0.41664 0.39395 0.1139 0.0
H192 H 0.26835 0.47499 0.93311 0.0
H193 H 0.36234 0.37676 0.87638 0.0
H194 H 0.29271 0.47084 0.81943 0.0
H195 H 0.33764 0.38041 0.98937 0.0
H196 H 0.45226 0.36352 0.48149 0.0
H197 H 0.35719 0.46141 0.53443 0.0
H198 H 0.42844 0.36943 0.59525 0.0
H199 H 0.38007 0.45519 0.42087 0.0
Eu200 Eu 0.40347 0.61344 0.82831 0.0
Eu201 Eu 0.40827 0.67602 0.94579 0.0
C202 C 0.3294 0.64711 0.8964 0.0
C203 C 0.4009 0.58281 0.65113 0.0
C204 C 0.3863 0.61808 0.6326 0.0
C205 C 0.41874 0.57184 0.5366 0.0
C206 C 0.388 0.63015 0.56678 0.0
C207 C 0.41686 0.55968 0.60252 0.0
C208 C 0.40462 0.60734 0.51831 0.0
C209 C 0.4029 0.57198 0.72167 0.0
O210 O 0.41278 0.61921 0.99613 0.0
O211 O 0.38769 0.57879 0.91857 0.0
C212 C 0.39774 0.58667 0.97989 0.0
O213 O 0.45788 0.60488 0.88645 0.0
O214 O 0.38507 0.71403 1.02084 0.0
O215 O 0.44504 0.70348 1.01728 0.0
O216 O 0.46528 0.66659 0.90207 0.0
C217 C 0.47989 0.63294 0.90376 0.0
O218 O 0.42221 0.66768 0.7808 0.0
O219 O 0.39616 0.71062 0.85151 0.0
O220 O 0.35007 0.65209 0.9491 0.0
O221 O 0.43367 0.58221 0.75215 0.0
O222 O 0.37292 0.5784 0.75723 0.0
O223 O 0.34566 0.64109 0.83892 0.0
C224 C 0.41681 0.70125 0.12333 0.0
C225 C 0.44987 0.6863 0.152 0.0
C226 C 0.38299 0.68503 0.22442 0.0
C227 C 0.44931 0.6702 0.2152 0.0
C228 C 0.3833 0.70022 0.16037 0.0
C229 C 0.41593 0.66962 0.25229 0.0
C230 C 0.41695 0.71489 0.05349 0.0
C231 C 0.4086 0.70133 0.79194 0.0
H232 H 0.37443 0.63673 0.66937 0.0
H233 H 0.43192 0.55393 0.5001 0.0
H234 H 0.37724 0.65774 0.5539 0.0
H235 H 0.42879 0.53267 0.61583 0.0
H236 H 0.47613 0.68622 0.12501 0.0
H237 H 0.35685 0.68478 0.25196 0.0
H238 H 0.475 0.65824 0.23533 0.0
H239 H 0.35723 0.71102 0.13976 0.0
Eu240 Eu 0.67694 0.57791 0.14701 0.0
Eu241 Eu 0.61184 0.58809 0.26306 0.0
C242 C 0.62712 0.51143 0.1916 0.0
C243 C 0.70225 0.56042 0.97007 0.0
C244 C 0.69195 0.52709 0.93705 0.0
C245 C 0.68422 0.59589 0.87146 0.0
C246 C 0.67702 0.52825 0.87279 0.0
C247 C 0.69804 0.59485 0.93643 0.0
C248 C 0.67303 0.56269 0.83922 0.0
C249 C 0.71393 0.55903 1.04091 0.0
O250 O 0.66735 0.57613 0.31472 0.0
O251 O 0.71402 0.58681 0.23803 0.0
C252 C 0.70285 0.58219 0.29981 0.0
O253 O 0.67077 0.64053 0.15075 0.0
O254 O 0.57851 0.55767 0.33658 0.0
O255 O 0.58016 0.61844 0.33868 0.0
O256 O 0.62588 0.64798 0.23284 0.0
C257 C 0.64839 0.6616 0.18667 0.0
O258 O 0.62139 0.5882 0.09394 0.0
O259 O 0.57614 0.60088 0.17322 0.0
O260 O 0.60015 0.53527 0.20448 0.0
O261 O 0.71948 0.59086 0.07178 0.0
O262 O 0.69556 0.53505 0.07738 0.0
O263 O 0.66148 0.52406 0.19804 0.0
C264 C 0.58412 0.58603 0.44135 0.0
C265 C 0.61948 0.60047 0.46043 0.0
C266 C 0.57539 0.5627 0.55371 0.0
C267 C 0.63258 0.59616 0.5254 0.0
C268 C 0.56218 0.56717 0.48864 0.0
C269 C 0.61077 0.5771 0.57262 0.0
C270 C 0.57178 0.5878 0.37126 0.0
C271 C 0.587 0.5982 0.1111 0.0
H272 H 0.69446 0.50011 0.96167 0.0
H273 H 0.68136 0.62281 0.84679 0.0
H274 H 0.66841 0.50226 0.84931 0.0
H275 H 0.70509 0.62113 0.96043 0.0
H276 H 0.63728 0.61463 0.42482 0.0
H277 H 0.55819 0.54772 0.5892 0.0
H278 H 0.66001 0.6073 0.53869 0.0
H279 H 0.53509 0.55536 0.47496 0.0
Eu280 Eu 0.59664 0.38164 0.82473 0.0
Eu281 Eu 0.5964 0.31687 0.94177 0.0
C282 C 0.67415 0.35068 0.88886 0.0
C283 C 0.59306 0.41068 0.64651 0.0
C284 C 0.60887 0.43371 0.59738 0.0
C285 C 0.57983 0.36323 0.56248 0.0
C286 C 0.61026 0.42153 0.53133 0.0
C287 C 0.57835 0.37542 0.62814 0.0
C288 C 0.59589 0.38605 0.51344 0.0
C289 C 0.59321 0.42242 0.71699 0.0
O290 O 0.59233 0.37272 0.99417 0.0
O291 O 0.6119 0.416 0.91614 0.0
C292 C 0.60434 0.40641 0.97791 0.0
O293 O 0.54341 0.38835 0.88598 0.0
O294 O 0.62209 0.2781 1.01285 0.0
O295 O 0.56228 0.28917 1.01742 0.0
O296 O 0.53821 0.32624 0.90156 0.0
C297 C 0.52288 0.35958 0.90511 0.0
O298 O 0.57936 0.32657 0.77798 0.0
O299 O 0.60657 0.28303 0.84677 0.0
O300 O 0.65527 0.33926 0.94049 0.0
O301 O 0.56371 0.4128 0.75147 0.0
O302 O 0.62444 0.41653 0.7497 0.0
O303 O 0.65716 0.36078 0.83367 0.0
C304 C 0.59534 0.29055 0.11916 0.0
C305 C 0.56363 0.29037 0.16071 0.0
C306 C 0.63033 0.3236 0.20576 0.0
C307 C 0.56538 0.3059 0.22428 0.0
C308 C 0.6288 0.30738 0.14261 0.0
C309 C 0.59867 0.32292 0.24735 0.0
C310 C 0.59184 0.27715 0.04956 0.0
C311 C 0.5935 0.29297 0.78786 0.0
H312 H 0.62041 0.46093 0.61021 0.0
H313 H 0.56872 0.33575 0.54997 0.0
H314 H 0.62288 0.43957 0.49432 0.0
H315 H 0.56593 0.35702 0.66465 0.0
H316 H 0.53718 0.27878 0.14346 0.0
H317 H 0.65621 0.33689 0.22212 0.0
H318 H 0.54048 0.30526 0.25513 0.0
H319 H 0.65359 0.30891 0.11163 0.0
Eu320 Eu 0.82349 0.58902 0.69062 0.0
Eu321 Eu 0.8877 0.59441 0.57294 0.0
C322 C 0.86652 0.51819 0.64596 0.0
C323 C 0.79802 0.58168 0.86788 0.0
C324 C 0.82464 0.55513 0.89081 0.0
C325 C 0.80136 0.61249 0.97556 0.0
C326 C 0.83948 0.55736 0.9549 0.0
C327 C 0.78687 0.61057 0.91095 0.0
C328 C 0.82795 0.586 0.99791 0.0
C329 C 0.78428 0.58079 0.79809 0.0
O330 O 0.83283 0.57858 0.52334 0.0
O331 O 0.78849 0.60018 0.59688 0.0
C332 C 0.79838 0.58958 0.53659 0.0
O333 O 0.84639 0.64744 0.69368 0.0
O334 O 0.91805 0.56378 0.49612 0.0
O335 O 0.92441 0.62412 0.50343 0.0
O336 O 0.86312 0.65297 0.58503 0.0
C337 C 0.85494 0.66811 0.64249 0.0
O338 O 0.88018 0.58368 0.74144 0.0
O339 O 0.92157 0.60891 0.66546 0.0
O340 O 0.89501 0.53997 0.63015 0.0
O341 O 0.78518 0.61245 0.76517 0.0
O342 O 0.79582 0.55261 0.76225 0.0
O343 O 0.83293 0.53305 0.64336 0.0
C344 C 0.9182 0.59748 0.39586 0.0
C345 C 0.88787 0.62057 0.37632 0.0
C346 C 0.92156 0.57332 0.28327 0.0
C347 C 0.87451 0.61998 0.31104 0.0
C348 C 0.93516 0.57417 0.34849 0.0
C349 C 0.89089 0.59596 0.26417 0.0
C350 C 0.92924 0.59439 0.4665 0.0
C351 C 0.91296 0.59868 0.72645 0.0
H352 H 0.8347 0.53296 0.85886 0.0
H353 H 0.79223 0.63495 1.00787 0.0
H354 H 0.86013 0.53679 0.97092 0.0
H355 H 0.76721 0.63192 0.89439 0.0
H356 H 0.87382 0.63836 0.41194 0.0
H357 H 0.93452 0.55451 0.24795 0.0
H358 H 0.8507 0.63749 0.2975 0.0
H359 H 0.95823 0.55579 0.36243 0.0
Eu360 Eu 0.60018 0.10875 0.50986 0.0
Eu361 Eu 0.58753 0.17364 0.39394 0.0
C362 C 0.67247 0.14998 0.4364 0.0
C363 C 0.59864 0.07929 0.68849 0.0
C364 C 0.62648 0.06811 0.73409 0.0
C365 C 0.56767 0.11464 0.77642 0.0
C366 C 0.62516 0.0804 0.79998 0.0
C367 C 0.56914 0.10266 0.71058 0.0
C368 C 0.59582 0.10391 0.82152 0.0
C369 C 0.60145 0.06823 0.61772 0.0
O370 O 0.60011 0.11836 0.34227 0.0
O371 O 0.61052 0.07227 0.42095 0.0
C372 C 0.60812 0.08342 0.35898 0.0
O373 O 0.54605 0.09751 0.45265 0.0
O374 O 0.59942 0.21756 0.32097 0.0
O375 O 0.54645 0.18755 0.31701 0.0
O376 O 0.53306 0.15838 0.44283 0.0
C377 C 0.52132 0.1237 0.43882 0.0
O378 O 0.58887 0.16337 0.56326 0.0
O379 O 0.5906 0.21103 0.48585 0.0
O380 O 0.65043 0.17202 0.40147 0.0
O381 O 0.5713 0.0732 0.58158 0.0
O382 O 0.63199 0.07847 0.58657 0.0
O383 O 0.65989 0.12487 0.47928 0.0
C384 C 0.5774 0.19618 0.21585 0.0
C385 C 0.54917 0.20008 0.16747 0.0
C386 C 0.61499 0.16048 0.13681 0.0
C387 C 0.55417 0.18524 0.10392 0.0
C388 C 0.61033 0.17605 0.19991 0.0
C389 C 0.58702 0.16511 0.08811 0.0
C390 C 0.5702 0.20856 0.2847 0.0
C391 C 0.58943 0.1993 0.54806 0.0
H392 H 0.64961 0.05037 0.71846 0.0
H393 H 0.54487 0.1328 0.792 0.0
H394 H 0.6472 0.07187 0.83403 0.0
H395 H 0.54737 0.1122 0.67683 0.0
H396 H 0.52295 0.21415 0.1792 0.0
H397 H 0.64031 0.14464 0.12601 0.0
H398 H 0.53203 0.18875 0.06741 0.0
H399 H 0.63208 0.17145 0.23679 0.0
Eu400 Eu 0.18294 0.40358 0.6934 0.0
Eu401 Eu 0.11822 0.40254 0.5749 0.0
C402 C 0.13919 0.47648 0.65603 0.0
C403 C 0.20607 0.41323 0.87003 0.0
C404 C 0.17651 0.43877 0.88192 0.0
C405 C 0.20089 0.3919 0.98454 0.0
C406 C 0.15963 0.44109 0.94419 0.0
C407 C 0.21793 0.38963 0.92197 0.0
C408 C 0.17156 0.41765 0.99603 0.0
C409 C 0.22177 0.409 0.80228 0.0
O410 O 0.17357 0.42006 0.52954 0.0
O411 O 0.21695 0.39273 0.59892 0.0
C412 C 0.20717 0.40589 0.54 0.0
O413 O 0.16241 0.34434 0.69106 0.0
O414 O 0.08442 0.43478 0.50432 0.0
O415 O 0.08608 0.3743 0.49646 0.0
O416 O 0.13759 0.34179 0.58614 0.0
C417 C 0.14931 0.32533 0.64083 0.0
O418 O 0.12644 0.40935 0.74372 0.0
O419 O 0.08408 0.38699 0.66621 0.0
O420 O 0.11075 0.45586 0.63546 0.0
O421 O 0.21527 0.37691 0.77335 0.0
O422 O 0.21677 0.43721 0.76186 0.0
O423 O 0.17278 0.46153 0.65363 0.0
C424 C 0.08752 0.40922 0.39632 0.0
C425 C 0.06473 0.39372 0.3468 0.0
C426 C 0.13094 0.43038 0.31085 0.0
C427 C 0.07443 0.39748 0.27978 0.0
C428 C 0.12139 0.42647 0.37765 0.0
C429 C 0.10619 0.41896 0.25943 0.0
C430 C 0.07705 0.40574 0.46716 0.0
C431 C 0.09317 0.39588 0.72767 0.0
H432 H 0.16582 0.45656 0.84268 0.0
H433 H 0.2104 0.37344 1.02381 0.0
H434 H 0.13691 0.46097 0.95176 0.0
H435 H 0.24017 0.36928 0.91396 0.0
H436 H 0.03956 0.37816 0.35994 0.0
H437 H 0.15836 0.44217 0.30034 0.0
H438 H 0.057 0.38221 0.24555 0.0
H439 H 0.14076 0.43688 0.41479 0.0
Eu440 Eu 0.40512 0.88036 0.51321 0.0
Eu441 Eu 0.40789 0.81765 0.39596 0.0
C442 C 0.32968 0.84602 0.44897 0.0
C443 C 0.40535 0.91106 0.69111 0.0
C444 C 0.37843 0.88525 0.71471 0.0
C445 C 0.43476 0.91136 0.80024 0.0
C446 C 0.37969 0.87268 0.78037 0.0
C447 C 0.43327 0.92427 0.73478 0.0
C448 C 0.40815 0.88525 0.82338 0.0
C449 C 0.40701 0.92141 0.62008 0.0
O450 O 0.40971 0.87423 0.34436 0.0
O451 O 0.38764 0.91502 0.42386 0.0
C452 C 0.3954 0.9069 0.36172 0.0
O453 O 0.45803 0.8896 0.45195 0.0
O454 O 0.38415 0.78018 0.32024 0.0
O455 O 0.44435 0.78919 0.3257 0.0
O456 O 0.46545 0.82791 0.43787 0.0
C457 C 0.47993 0.86157 0.43459 0.0
O458 O 0.42373 0.82573 0.55998 0.0
O459 O 0.39608 0.78318 0.49024 0.0
O460 O 0.34923 0.84038 0.39538 0.0
O461 O 0.43717 0.91021 0.58911 0.0
O462 O 0.3765 0.9165 0.58469 0.0
O463 O 0.3469 0.85323 0.50539 0.0
C464 C 0.41678 0.79184 0.21874 0.0
C465 C 0.44921 0.80934 0.19269 0.0
C466 C 0.38438 0.80459 0.11439 0.0
C467 C 0.44897 0.82488 0.12908 0.0
C468 C 0.3843 0.78989 0.17878 0.0
C469 C 0.41665 0.82245 0.08917 0.0
C470 C 0.4162 0.77842 0.28865 0.0
C471 C 0.40917 0.79238 0.54953 0.0
H472 H 0.35696 0.87401 0.68207 0.0
H473 H 0.45701 0.92128 0.83261 0.0
H474 H 0.35908 0.85234 0.79717 0.0
H475 H 0.45458 0.94379 0.71768 0.0
H476 H 0.47466 0.81184 0.22197 0.0
H477 H 0.35905 0.80263 0.08456 0.0
H478 H 0.47407 0.83877 0.11085 0.0
H479 H 0.3587 0.77719 0.19745 0.0
Eu480 Eu 0.81507 0.90215 0.63913 0.0
Eu481 Eu 0.88036 0.90713 0.75693 0.0
C482 C 0.86355 0.97516 0.65799 0.0
C483 C 0.78611 0.91136 0.46187 0.0
C484 C 0.79662 0.94665 0.43587 0.0
C485 C 0.80456 0.88276 0.3571 0.0
C486 C 0.81259 0.94966 0.37279 0.0
C487 C 0.79017 0.87948 0.42137 0.0
C488 C 0.81646 0.9178 0.33243 0.0
C489 C 0.77387 0.90763 0.53223 0.0
O490 O 0.824 0.92479 0.79874 0.0
O491 O 0.78252 0.89153 0.73515 0.0
C492 C 0.7919 0.90693 0.79227 0.0
O493 O 0.83457 0.84314 0.64816 0.0
O494 O 0.90595 0.94328 0.83201 0.0
O495 O 0.91793 0.88358 0.83233 0.0
O496 O 0.86424 0.8452 0.74986 0.0
C497 C 0.85095 0.82665 0.69835 0.0
O498 O 0.87153 0.89264 0.58893 0.0
O499 O 0.91796 0.89409 0.66959 0.0
O500 O 0.8906 0.95596 0.68667 0.0
O501 O 0.78036 0.87567 0.56193 0.0
O502 O 0.78143 0.93596 0.57076 0.0
O503 O 0.82899 0.9627 0.6604 0.0
C504 C 0.90828 0.91356 0.93635 0.0
C505 C 0.88341 0.88573 0.95982 0.0
C506 C 0.90662 0.94325 0.04492 0.0
C507 C 0.87044 0.8866 1.02517 0.0
C508 C 0.91994 0.94215 0.97974 0.0
C509 C 0.88163 0.91557 0.06807 0.0
C510 C 0.91948 0.91499 0.86572 0.0
C511 C 0.90709 0.89054 0.60746 0.0
H512 H 0.79391 0.97193 0.46525 0.0
H513 H 0.80742 0.85772 0.32714 0.0
H514 H 0.82192 0.97693 0.35538 0.0
H515 H 0.78247 0.85187 0.43955 0.0
H516 H 0.87333 0.86371 0.92733 0.0
H517 H 0.91542 0.96596 0.07709 0.0
H518 H 0.85091 0.86519 1.04184 0.0
H519 H 0.93869 0.96417 0.96272 0.0
Eu520 Eu 0.90737 0.12345 0.32133 0.0
Eu521 Eu 0.91454 0.18382 0.44119 0.0
C522 C 0.83428 0.15762 0.3909 0.0
C523 C 0.90585 0.09391 0.14333 0.0
C524 C 0.89353 0.06913 0.0938 0.0
C525 C 0.91806 0.14142 0.05934 0.0
C526 C 0.89329 0.08057 1.02735 0.0
C527 C 0.91818 0.13007 0.12541 0.0
C528 C 0.90547 0.11688 1.00979 0.0
C529 C 0.90511 0.08278 0.21368 0.0
O530 O 0.9145 0.1267 0.49101 0.0
O531 O 0.88792 0.08974 0.40988 0.0
C532 C 0.89787 0.09543 0.47202 0.0
O533 O 0.9592 0.10893 0.38228 0.0
O534 O 0.89313 0.22604 0.5097 0.0
O535 O 0.95103 0.20748 0.51779 0.0
O536 O 0.97195 0.16949 0.40234 0.0
C537 C 0.9833 0.13444 0.4025 0.0
O538 O 0.93097 0.17698 0.27848 0.0
O539 O 0.90418 0.21948 0.34813 0.0
O540 O 0.85506 0.16252 0.44363 0.0
O541 O 0.93592 0.08952 0.24698 0.0
O542 O 0.87511 0.0926 0.24651 0.0
O543 O 0.85035 0.15214 0.33312 0.0
C544 C 0.91704 0.21205 0.61732 0.0
C545 C 0.94801 0.20942 0.66063 0.0
C546 C 0.87771 0.18281 0.70165 0.0
C547 C 0.94372 0.19443 0.72417 0.0
C548 C 0.88167 0.19906 0.639 0.0
C549 C 0.90865 0.18034 0.74495 0.0
C550 C 0.92293 0.22381 0.54766 0.0
C551 C 0.91743 0.21061 0.28924 0.0
H552 H 0.88382 0.04116 0.10655 0.0
H553 H 0.92738 0.16957 0.04688 0.0
H554 H 0.88331 0.0613 0.98976 0.0
H555 H 0.92774 0.14972 0.16252 0.0
H556 H 0.97574 0.21847 0.64489 0.0
H557 H 0.85046 0.17192 0.71632 0.0
H558 H 0.96806 0.19278 0.75652 0.0
H559 H 0.85727 0.20007 0.60673 0.0
Eu560 Eu 0.17811 0.08705 0.64862 0.0
Eu561 Eu 0.11451 0.09031 0.76512 0.0
C562 C 0.13413 0.0156 0.68734 0.0
C563 C 0.20454 0.08017 0.47241 0.0
C564 C 0.21545 0.0526 0.42667 0.0
C565 C 0.1628 0.10724 0.38882 0.0
C566 C 0.2007 0.05274 0.36224 0.0
C567 C 0.17781 0.10733 0.45297 0.0
C568 C 0.17429 0.0801 0.34275 0.0
C569 C 0.21771 0.07786 0.54192 0.0
O570 O 0.16945 0.07216 0.81237 0.0
O571 O 0.21261 0.09882 0.74276 0.0
C572 C 0.20301 0.08644 0.80214 0.0
O573 O 0.15776 0.14646 0.64766 0.0
O574 O 0.0804 0.05827 0.83499 0.0
O575 O 0.08266 0.11879 0.84322 0.0
O576 O 0.13779 0.14984 0.75507 0.0
C577 C 0.14777 0.16614 0.69925 0.0
O578 O 0.12144 0.08588 0.59649 0.0
O579 O 0.08012 0.10819 0.67518 0.0
O580 O 0.10587 0.03747 0.70361 0.0
O581 O 0.2184 0.10899 0.57625 0.0
O582 O 0.20357 0.05003 0.57547 0.0
O583 O 0.1678 0.03009 0.69235 0.0
C584 C 0.08639 0.08369 0.9428 0.0
C585 C 0.06925 0.10532 0.99236 0.0
C586 C 0.13023 0.05877 1.02534 0.0
C587 C 0.08273 0.10398 0.05768 0.0
C588 C 0.11697 0.06029 0.96012 0.0
C589 C 0.11348 0.08086 0.07455 0.0
C590 C 0.07412 0.08728 0.87277 0.0
C591 C 0.08858 0.10008 0.61324 0.0
H592 H 0.23534 0.03089 0.44088 0.0
H593 H 0.14216 0.12834 0.37505 0.0
H594 H 0.20973 0.03138 0.32764 0.0
H595 H 0.16796 0.12825 0.48772 0.0
H596 H 0.04584 0.12371 0.98031 0.0
H597 H 0.15405 0.04089 1.03722 0.0
H598 H 0.06945 0.12127 0.09497 0.0
H599 H 0.13107 0.04351 0.92306 0.0
Eu600 Eu 0.0946 0.88132 0.3271 0.0
Eu601 Eu 0.08335 0.81701 0.44442 0.0
C602 C 0.16747 0.84375 0.40589 0.0
C603 C 0.09555 0.91049 0.14729 0.0
C604 C 0.12422 0.88873 0.11812 0.0
C605 C 0.05995 0.90658 0.04391 0.0
C606 C 0.12055 0.87569 0.053 0.0
C607 C 0.06369 0.91977 0.1089 0.0
C608 C 0.08816 0.88411 1.01567 0.0
C609 C 0.09706 0.92126 0.21846 0.0
O610 O 0.09484 0.8724 0.49685 0.0
O611 O 0.10314 0.91813 0.41673 0.0
C612 C 0.10185 0.90745 0.47916 0.0
O613 O 0.04203 0.8948 0.38528 0.0
O614 O 0.09638 0.77415 0.51953 0.0
O615 O 0.04044 0.79794 0.51367 0.0
O616 O 0.02841 0.83407 0.39759 0.0
C617 C 0.01739 0.86905 0.40117 0.0
O618 O 0.07526 0.82756 0.2781 0.0
O619 O 0.09293 0.78143 0.35142 0.0
O620 O 0.14576 0.8252 0.44683 0.0
O621 O 0.06624 0.91547 0.25198 0.0
O622 O 0.12707 0.91182 0.25229 0.0
O623 O 0.15442 0.86317 0.35487 0.0
C624 C 0.06604 0.79132 0.62133 0.0
C625 C 0.03431 0.80804 0.65123 0.0
C626 C 0.10156 0.80285 0.72302 0.0
C627 C 0.0365 0.82282 0.71532 0.0
C628 C 0.09963 0.78874 0.65835 0.0
C629 C 0.07018 0.82047 0.75176 0.0
C630 C 0.06452 0.77968 0.55043 0.0
C631 C 0.08452 0.79258 0.29063 0.0
H632 H 0.14917 0.88102 0.146 0.0
H633 H 0.03476 0.91343 1.01595 0.0
H634 H 0.1426 0.85834 1.03219 0.0
H635 H 0.04116 0.9365 0.12979 0.0
H636 H 0.00795 0.81064 0.62439 0.0
H637 H 0.12785 0.80077 0.7502 0.0
H638 H 0.01196 0.83634 0.73639 0.0
H639 H 0.12466 0.77629 0.63708 0.0
C640 C 0.41642 0.94618 0.26439 0.0
C641 C 0.38701 0.93433 0.30745 0.0
C642 C 0.34075 0.96478 0.23399 0.0
C643 C 0.3705 0.98173 0.19777 0.0
N644 N 0.43341 0.97231 0.1575 0.0
N645 N 0.32059 0.93345 0.33409 0.0
C646 C 0.40757 0.96766 0.20672 0.0
C647 C 0.349 0.94399 0.29253 0.0
N648 N 0.45306 0.93846 0.28042 0.0
N649 N 0.30502 0.96507 0.20849 0.0
H650 H 0.32474 0.91647 0.37541 0.0
H651 H 0.2932 0.94382 0.33021 0.0
H652 H 0.29929 0.97457 0.16071 0.0
H653 H 0.28245 0.95078 0.22964 0.0
H654 H 0.47608 0.94931 0.25494 0.0
H655 H 0.46055 0.92389 0.32314 0.0
H656 H 0.46018 0.96032 0.15815 0.0
H657 H 0.42612 0.98388 0.11181 0.0
C658 C 0.9445 0.64151 0.80903 0.0
C659 C 0.93976 0.60481 0.78263 0.0
C660 C 0.97348 0.57866 0.87899 0.0
C661 C 0.98277 0.61559 0.89982 0.0
N662 N 0.95931 0.67898 0.90557 0.0
N663 N 0.95205 0.53837 0.78995 0.0
C664 C 0.96318 0.6463 0.87084 0.0
C665 C 0.95449 0.5733 0.81747 0.0
N666 N 0.93154 0.67197 0.77476 0.0
N667 N 0.98008 0.54903 0.92041 0.0
H668 H 0.93962 0.53394 0.74395 0.0
H669 H 0.96557 0.51475 0.80917 0.0
H670 H 0.98984 0.55277 0.96862 0.0
H671 H 0.97074 0.5218 0.91096 0.0
H672 H 0.93808 0.69963 0.78722 0.0
H673 H 0.91689 0.66946 0.73048 0.0
H674 H 0.9429 0.70156 0.88972 0.0
H675 H 0.96789 0.68129 0.95476 0.0
C676 C 0.5927 0.02677 0.1994 0.0
C677 C 0.62882 0.01 0.19161 0.0
C678 C 0.65057 0.04043 0.29374 0.0
C679 C 0.61427 0.05616 0.3037 0.0
N680 N 0.55222 0.06965 0.26 0.0
N681 N 0.69519 0.02066 0.21113 0.0
C682 C 0.58577 0.05101 0.25446 0.0
C683 C 0.65882 0.02255 0.23277 0.0
N684 N 0.5653 0.02012 0.15328 0.0
N685 N 0.67765 0.04293 0.3417 0.0
H686 H 0.70187 0.0138 0.16249 0.0
H687 H 0.71791 0.03176 0.23746 0.0
H688 H 0.67357 0.05659 0.38657 0.0
H689 H 0.70351 0.0291 0.33851 0.0
H690 H 0.53685 0.02604 0.1601 0.0
H691 H 0.57148 0.00912 0.10681 0.0
H692 H 0.53197 0.07106 0.22279 0.0
H693 H 0.54496 0.08525 0.30148 0.0
C694 C 0.02726 0.41932 0.87022 0.0
C695 C 0.01979 0.38307 0.89639 0.0
C696 C 0.06418 0.35576 0.81674 0.0
C697 C 0.0659 0.39081 0.78296 0.0
N698 N 0.04698 0.4557 0.77513 0.0
N699 N 0.04634 0.32197 0.91629 0.0
C700 C 0.04719 0.42264 0.80951 0.0
C701 C 0.04269 0.35259 0.87587 0.0
N702 N 0.01765 0.45057 0.90539 0.0
N703 N 0.08258 0.32529 0.7916 0.0
H704 H 0.03447 0.32121 0.96339 0.0
H705 H 0.06477 0.29977 0.90757 0.0
H706 H 0.09984 0.32713 0.75037 0.0
H707 H 0.07891 0.29792 0.80869 0.0
H708 H 0.02515 0.47772 0.8912 0.0
H709 H 0.00751 0.44893 0.9536 0.0
H710 H 0.03054 0.47876 0.78831 0.0
H711 H 0.06015 0.45859 0.72951 0.0
C712 C 0.3499 0.53459 0.12133 0.0
C713 C 0.38075 0.51497 0.15015 0.0
C714 C 0.42317 0.54395 0.0688 0.0
C715 C 0.39158 0.55915 1.03459 0.0
N716 N 0.3241 0.56618 1.02512 0.0
N717 N 0.4476 0.51705 0.17056 0.0
C718 C 0.35471 0.55369 0.06 0.0
C719 C 0.41781 0.52431 0.12956 0.0
N720 N 0.31702 0.53798 0.15576 0.0
N721 N 0.45817 0.54663 1.04131 0.0
H722 H 0.44389 0.50722 0.21869 0.0
H723 H 0.47509 0.52572 0.16097 0.0
H724 H 0.46267 0.55969 0.99592 0.0
H725 H 0.4818 0.53267 0.05971 0.0
H726 H 0.29437 0.55438 0.14004 0.0
H727 H 0.3146 0.52902 0.20468 0.0
H728 H 0.29644 0.55929 1.0374 0.0
H729 H 0.32634 0.58054 0.98044 0.0
C730 C 0.55189 0.57934 1.00744 0.0
C731 C 0.56023 0.60715 0.05602 0.0
C732 C 0.52935 0.65466 0.98636 0.0
C733 C 0.51492 0.62593 0.94465 0.0
N734 N 0.52623 0.56485 0.89853 0.0
N735 N 0.55401 0.6713 0.09385 0.0
C736 C 0.53029 0.58924 0.95019 0.0
C737 C 0.54796 0.64476 0.04624 0.0
N738 N 0.56321 0.54307 1.01772 0.0
N739 N 0.52884 0.69123 0.9656 0.0
H740 H 0.56847 0.66588 0.13769 0.0
H741 H 0.54235 0.69818 0.09181 0.0
H742 H 0.52138 0.69871 0.91746 0.0
H743 H 0.54153 0.71311 0.99165 0.0
H744 H 0.55533 0.52056 0.98806 0.0
H745 H 0.57863 0.5349 0.05916 0.0
H746 H 0.53856 0.53835 0.89635 0.0
H747 H 0.51417 0.57308 0.8537 0.0
C748 C 0.65053 0.45633 0.12401 0.0
C749 C 0.61979 0.47718 0.14953 0.0
C750 C 0.57817 0.44919 0.06559 0.0
C751 C 0.61003 0.43325 1.03376 0.0
N752 N 0.67683 0.42104 1.03306 0.0
N753 N 0.55259 0.47658 0.16568 0.0
C754 C 0.64629 0.43659 0.0633 0.0
C755 C 0.5829 0.46862 0.12668 0.0
N756 N 0.68252 0.45242 0.16122 0.0
N757 N 0.54358 0.44704 1.03602 0.0
H758 H 0.55572 0.4863 0.21397 0.0
H759 H 0.52509 0.46855 0.15437 0.0
H760 H 0.53952 0.4339 0.99061 0.0
H761 H 0.51989 0.46134 0.05291 0.0
H762 H 0.70511 0.43531 0.14821 0.0
H763 H 0.68416 0.46206 0.20981 0.0
H764 H 0.70459 0.42641 0.04702 0.0
H765 H 0.67432 0.4047 0.99085 0.0
C766 C 0.44972 0.41187 1.00783 0.0
C767 C 0.44403 0.3853 0.05976 0.0
C768 C 0.47795 0.3379 0.99497 0.0
C769 C 0.48873 0.36572 0.94831 0.0
N770 N 0.47161 0.42386 0.89579 0.0
N771 N 0.45848 0.32413 0.10645 0.0
C772 C 0.47075 0.40134 0.95055 0.0
C773 C 0.46016 0.34882 0.05473 0.0
N774 N 0.43696 0.44789 1.01521 0.0
N775 N 0.48064 0.30067 0.97921 0.0
H776 H 0.44389 0.3293 0.14998 0.0
H777 H 0.47361 0.29901 0.10739 0.0
H778 H 0.48641 0.29157 0.93138 0.0
H779 H 0.47103 0.27915 1.00976 0.0
H780 H 0.44327 0.46977 0.98292 0.0
H781 H 0.42268 0.45686 0.05721 0.0
H782 H 0.45675 0.44896 0.89119 0.0
H783 H 0.48366 0.41501 0.8515 0.0
C784 C 0.91872 0.44707 0.75339 0.0
C785 C 0.89123 0.44253 0.8043 0.0
C786 C 0.84414 0.47141 0.73115 0.0
C787 C 0.87301 0.48379 0.68809 0.0
N788 N 0.9357 0.47424 0.64693 0.0
N789 N 0.82755 0.45328 0.84195 0.0
C790 C 0.90971 0.46848 0.69558 0.0
C791 C 0.85396 0.4558 0.79339 0.0
N792 N 0.95334 0.43065 0.76025 0.0
N793 N 0.80744 0.47157 0.71048 0.0
H794 H 0.83345 0.44191 0.88802 0.0
H795 H 0.80107 0.46589 0.83847 0.0
H796 H 0.79996 0.47736 0.66162 0.0
H797 H 0.78543 0.4604 0.7383 0.0
H798 H 0.97325 0.42882 0.72281 0.0
H799 H 0.96197 0.41759 0.80372 0.0
H800 H 0.96442 0.46906 0.65201 0.0
H801 H 0.92795 0.48394 0.60011 0.0
C802 C 0.46323 0.14518 0.37581 0.0
C803 C 0.48638 0.11516 0.39832 0.0
C804 C 0.4585 0.07421 0.31319 0.0
C805 C 0.43934 0.10556 0.28539 0.0
N806 N 0.42647 0.17211 0.28635 0.0
N807 N 0.49058 0.04773 0.40856 0.0
C808 C 0.44241 0.14137 0.31584 0.0
C809 C 0.47953 0.07851 0.37299 0.0
N810 N 0.45863 0.1761 0.41491 0.0
N811 N 0.4582 0.04068 0.28047 0.0
H812 H 0.501 0.0499 0.45662 0.0
H813 H 0.48429 0.02019 0.39505 0.0
H814 H 0.44393 0.03705 0.23588 0.0
H815 H 0.47519 0.01797 0.29359 0.0
H816 H 0.43967 0.19767 0.40435 0.0
H817 H 0.46975 0.17745 0.46266 0.0
H818 H 0.43105 0.19955 0.30238 0.0
H819 H 0.4117 0.17055 0.24189 0.0
C820 C 0.08552 0.5485 0.75919 0.0
C821 C 0.11184 0.55395 0.81178 0.0
C822 C 0.15988 0.52092 0.74718 0.0
C823 C 0.13234 0.51021 0.69976 0.0
N824 N 0.07386 0.52649 0.64696 0.0
N825 N 0.17279 0.53906 0.85971 0.0
C826 C 0.09638 0.52767 0.70185 0.0
C827 C 0.14845 0.53797 0.80724 0.0
N828 N 0.04946 0.56149 0.76588 0.0
N829 N 0.19732 0.5187 0.73214 0.0
H830 H 0.16713 0.55292 0.90377 0.0
H831 H 0.19796 0.52391 0.86078 0.0
H832 H 0.20678 0.51359 0.68429 0.0
H833 H 0.21862 0.52806 0.76359 0.0
H834 H 0.02766 0.55561 0.733 0.0
H835 H 0.04037 0.57578 0.80775 0.0
H836 H 0.04838 0.54074 0.64226 0.0
H837 H 0.083 0.51479 0.60258 0.0
C838 C 0.54726 0.8463 0.29292 0.0
C839 C 0.55816 0.88376 0.27834 0.0
C840 C 0.52854 0.90503 0.38189 0.0
C841 C 0.51436 0.86816 0.39231 0.0
N842 N 0.52981 0.80257 0.37898 0.0
N843 N 0.55852 0.94948 0.30709 0.0
C844 C 0.5293 0.83827 0.35397 0.0
C845 C 0.54903 0.91331 0.32288 0.0
N846 N 0.55371 0.81825 0.24831 0.0
N847 N 0.5248 0.9312 0.43076 0.0
H848 H 0.57315 0.95634 0.26416 0.0
H849 H 0.54946 0.97294 0.33328 0.0
H850 H 0.51394 0.9243 0.47707 0.0
H851 H 0.53653 0.95799 0.42903 0.0
H852 H 0.54285 0.79118 0.25358 0.0
H853 H 0.56716 0.82272 0.20328 0.0
H854 H 0.54285 0.78006 0.35539 0.0
H855 H 0.5227 0.79675 0.42791 0.0
C856 C 0.88176 -0.00116 0.54517 0.0
C857 C 0.87264 0.00672 0.61196 0.0
C858 C 0.8758 0.07387 0.58562 0.0
C859 C 0.89093 0.06535 0.52207 0.0
N860 N 0.91826 0.01817 0.45085 0.0
N861 N 0.86642 0.05265 0.69851 0.0
C862 C 0.89734 0.02734 0.505 0.0
C863 C 0.87171 0.04456 0.6333 0.0
N864 N 0.87247 0.96518 0.51797 0.0
N865 N 0.86245 0.109 0.59906 0.0
H866 H 0.86233 0.03179 0.73411 0.0
H867 H 0.86911 0.07977 0.71749 0.0
H868 H 0.86212 0.13068 0.56446 0.0
H869 H 0.84739 0.1151 0.64183 0.0
H870 H 0.87766 0.95833 0.46878 0.0
H871 H 0.85315 0.94778 0.54107 0.0
H872 H 0.92507 0.99048 0.43904 0.0
H873 H 0.93236 0.03815 0.42242 0.0
C874 C 0.05896 0.14566 0.53295 0.0
C875 C 0.06166 0.10841 0.55803 0.0
C876 C 0.02408 0.08595 0.46323 0.0
C877 C 0.01723 0.12382 0.4439 0.0
N878 N 0.04506 0.18538 0.43865 0.0
N879 N 0.04577 0.04279 0.54858 0.0
C880 C 0.03956 0.15258 0.47256 0.0
C881 C 0.0442 0.07839 0.52316 0.0
N882 N 0.07451 0.17472 0.56737 0.0
N883 N 0.01481 0.05743 0.42113 0.0
H884 H 0.06005 0.03643 0.59231 0.0
H885 H 0.03044 0.02027 0.52965 0.0
H886 H 0.00525 0.06244 0.37315 0.0
H887 H 0.022 0.02944 0.42934 0.0
H888 H 0.06967 0.20293 0.55621 0.0
H889 H 0.0897 0.17049 0.61059 0.0
H890 H 0.06353 0.20642 0.45397 0.0
H891 H 0.03537 0.18909 0.39033 0.0
C892 C 0.14457 0.95382 0.53764 0.0
C893 C 0.10915 0.93527 0.53356 0.0
C894 C 0.09192 0.9634 0.6413 0.0
C895 C 0.12774 0.98127 0.64461 0.0
N896 N 0.19299 0.97279 0.6142 0.0
N897 N 0.05126 0.91744 0.58843 0.0
C898 C 0.15563 0.97057 0.59821 0.0
C899 C 0.08348 0.93849 0.58766 0.0
N900 N 0.16859 0.95476 0.48505 0.0
N901 N 0.06624 0.96953 0.69024 0.0
H902 H 0.04226 0.90142 0.54843 0.0
H903 H 0.03416 0.91434 0.62977 0.0
H904 H 0.07371 0.9816 0.73536 0.0
H905 H 0.03781 0.96257 0.68637 0.0
H906 H 0.1929 0.97129 0.48495 0.0
H907 H 0.16349 0.94117 0.44045 0.0
H908 H 0.21431 0.9635 0.5829 0.0
H909 H 0.20226 0.97807 0.66222 0.0
C910 C 0.95644 0.84954 0.45606 0.0
C911 C 0.98278 0.87833 0.4412 0.0
C912 C 0.95877 0.91578 0.53391 0.0
C913 C 0.93528 0.88532 0.55342 0.0
N914 N 0.91252 0.82236 0.53435 0.0
N915 N 0.99323 0.94526 0.44463 0.0
C916 C 0.93401 0.85212 0.51427 0.0
C917 C 0.97934 0.91349 0.47368 0.0
N918 N 0.95083 0.82131 0.41137 0.0
N919 N 0.96211 0.94675 0.5733 0.0
H920 H 0.00248 0.94568 0.39583 0.0
H921 H 0.98998 0.97206 0.46428 0.0
H922 H 0.94768 0.94974 0.61754 0.0
H923 H 0.98194 0.96788 0.56548 0.0
H924 H 0.92996 0.8009 0.41567 0.0
H925 H 0.96404 0.8212 0.36537 0.0
H926 H 0.91377 0.79574 0.51316 0.0
H927 H 0.89539 0.8234 0.57592 0.0
C928 C 0.37392 0.2341 0.11095 0.0
C929 C 0.34939 0.2104 0.14756 0.0
C930 C 0.33005 0.26503 0.21382 0.0
C931 C 0.35189 0.28896 0.17322 0.0
N932 N 0.38338 0.29682 0.06833 0.0
N933 N 0.29402 0.20741 0.21691 0.0
C934 C 0.3702 0.27375 0.11694 0.0
C935 C 0.3245 0.22703 0.19432 0.0
N936 N 0.40231 0.2194 0.07363 0.0
N937 N 0.31409 0.2785 0.27032 0.0
H938 H 0.28646 0.18124 0.19785 0.0
H939 H 0.27355 0.21922 0.24732 0.0
H940 H 0.31709 0.30635 0.28553 0.0
H941 H 0.30067 0.26118 0.30456 0.0
H942 H 0.42261 0.23615 0.05092 0.0
H943 H 0.4084 0.19081 0.07161 0.0
H944 H 0.39375 0.28662 1.02365 0.0
H945 H 0.38069 0.32596 0.07006 0.0
C946 C 0.26347 0.62354 0.86841 0.0
C947 C 0.2874 0.64839 0.90394 0.0
C948 C 0.23286 0.66808 0.97052 0.0
C949 C 0.20868 0.64638 0.93 0.0
N950 N 0.20063 0.6142 0.82576 0.0
N951 N 0.29096 0.70352 0.97384 0.0
C952 C 0.2238 0.62758 0.8742 0.0
C953 C 0.27103 0.67332 0.95099 0.0
N954 N 0.278 0.59452 0.8325 0.0
N955 N 0.21946 0.6842 1.02693 0.0
H956 H 0.3173 0.7109 0.95515 0.0
H957 H 0.27929 0.72398 1.00438 0.0
H958 H 0.19151 0.68143 1.04201 0.0
H959 H 0.23691 0.69749 0.06124 0.0
H960 H 0.26102 0.57413 0.81052 0.0
H961 H 0.30659 0.58793 0.83156 0.0
H962 H 0.21087 0.60345 0.78138 0.0
H963 H 0.17144 0.61709 0.82724 0.0
C964 C 0.64527 0.76768 0.21348 0.0
C965 C 0.64555 0.78137 0.14731 0.0
C966 C 0.64377 0.71644 0.10682 0.0
C967 C 0.64785 0.70285 0.1729 0.0
N968 N 0.66142 0.7166 0.28733 0.0
N969 N 0.65249 0.76861 1.03107 0.0
C970 C 0.65101 0.72877 0.22579 0.0
C971 C 0.64678 0.75571 0.09392 0.0
N972 N 0.63837 0.79163 0.26485 0.0
N973 N 0.6355 0.69222 0.05644 0.0
H974 H 0.65542 0.79707 1.01966 0.0
H975 H 0.65792 0.75092 0.99123 0.0
H976 H 0.63204 0.6634 0.06303 0.0
H977 H 0.62804 0.70119 1.00914 0.0
H978 H 0.63371 0.78239 0.31302 0.0
H979 H 0.63325 0.82027 0.25856 0.0
H980 H 0.66805 0.73486 0.32589 0.0
H981 H 0.66751 0.68858 0.29814 0.0
C982 C 0.77512 0.3187 0.92167 0.0
C983 C 0.79218 0.35363 0.93855 0.0
C984 C 0.73411 0.38661 0.90685 0.0
C985 C 0.71593 0.35173 0.89539 0.0
N986 N 0.71766 0.28401 0.89723 0.0
N987 N 0.78338 0.41894 0.96682 0.0
C988 C 0.73608 0.31756 0.90438 0.0
C989 C 0.77037 0.38705 0.93703 0.0
N990 N 0.79627 0.28656 0.92258 0.0
N991 N 0.71694 0.41944 0.88865 0.0
H992 H 0.80929 0.42025 0.99107 0.0
H993 H 0.76695 0.44301 0.97266 0.0
H994 H 0.69024 0.42028 0.86699 0.0
H995 H 0.73057 0.4454 0.88995 0.0
H996 H 0.78713 0.26107 0.90306 0.0
H997 H 0.82372 0.28567 0.94121 0.0
H998 H 0.72906 0.25818 0.91104 0.0
H999 H 0.68998 0.28211 0.87987 0.0
C1000 C 0.81924 0.72608 0.67269 0.0
C1001 C 0.85366 0.70946 0.65184 0.0
C1002 C 0.88769 0.76774 0.67832 0.0
C1003 C 0.85296 0.78511 0.69478 0.0
N1004 N 0.78552 0.78224 0.70674 0.0
N1005 N 0.91968 0.71559 0.62531 0.0
C1006 C 0.8187 0.76452 0.69207 0.0
C1007 C 0.88762 0.73066 0.65173 0.0
N1008 N 0.78702 0.7049 0.67386 0.0
N1009 N 0.92077 0.78665 0.68865 0.0
H1010 H 0.92108 0.68823 0.60715 0.0
H1011 H 0.94425 0.73086 0.61704 0.0
H1012 H 0.92178 0.81403 0.70686 0.0
H1013 H 0.94729 0.77438 0.6843 0.0
H1014 H 0.76208 0.71327 0.6964 0.0
H1015 H 0.78536 0.67801 0.65349 0.0
H1016 H 0.75895 0.77087 0.69796 0.0
H1017 H 0.78447 0.80936 0.72628 0.0
C1018 C 0.76938 0.13132 0.36363 0.0
C1019 C 0.79228 0.15746 0.39854 0.0
C1020 C 0.73672 0.17617 0.46341 0.0
C1021 C 0.71364 0.15278 0.42377 0.0
N1022 N 0.707 0.11901 0.32101 0.0
N1023 N 0.79403 0.21302 0.46754 0.0
C1024 C 0.72959 0.13386 0.36899 0.0
C1025 C 0.77492 0.1823 0.44463 0.0
N1026 N 0.78507 0.10241 0.32893 0.0
N1027 N 0.72222 0.19281 0.51852 0.0
H1028 H 0.82061 0.2206 0.45017 0.0
H1029 H 0.78164 0.23353 0.49709 0.0
H1030 H 0.6942 0.1894 0.53286 0.0
H1031 H 0.7388 0.20733 0.55259 0.0
H1032 H 0.76891 0.08112 0.30754 0.0
H1033 H 0.81387 0.09684 0.32862 0.0
H1034 H 0.71768 0.10798 0.27718 0.0
H1035 H 0.6777 0.12108 0.32219 0.0
C1036 C 0.18337 0.26415 0.65536 0.0
C1037 C 0.14867 0.28374 0.64842 0.0
C1038 C 0.1145 0.22862 0.69053 0.0
C1039 C 0.14872 0.20785 0.69199 0.0
N1040 N 0.21585 0.20493 0.67405 0.0
N1041 N 0.08073 0.28276 0.64745 0.0
C1042 C 0.1832 0.22545 0.67386 0.0
C1043 C 0.11408 0.26536 0.66231 0.0
N1044 N 0.21655 0.28286 0.64504 0.0
N1045 N 0.08238 0.21344 0.71653 0.0
H1046 H 0.07933 0.30976 0.62747 0.0
H1047 H 0.05464 0.26938 0.64973 0.0
H1048 H 0.08116 0.18633 0.73598 0.0
H1049 H 0.05764 0.22868 0.72348 0.0
H1050 H 0.24294 0.27206 0.6573 0.0
H1051 H 0.21769 0.31019 0.62626 0.0
H1052 H 0.24099 0.21416 0.65321 0.0
H1053 H 0.21756 0.17777 0.6934 0.0
C1054 C 0.26383 0.86952 0.47605 0.0
C1055 C 0.28769 0.84335 0.4438 0.0
C1056 C 0.23265 0.81872 0.38316 0.0
C1057 C 0.20875 0.84295 0.41935 0.0
N1058 N 0.20123 0.88061 0.51765 0.0
N1059 N 0.2918 0.78484 0.38339 0.0
C1060 C 0.22416 0.86493 0.47135 0.0
C1061 C 0.27126 0.81556 0.40191 0.0
N1062 N 0.27843 0.90012 0.50782 0.0
N1063 N 0.21848 0.79819 0.33181 0.0
H1064 H 0.31889 0.77955 0.40137 0.0
H1065 H 0.28034 0.76232 0.35728 0.0
H1066 H 0.18996 0.79828 0.31907 0.0
H1067 H 0.23551 0.78314 0.29936 0.0
H1068 H 0.26148 0.92152 0.5266 0.0
H1069 H 0.30707 0.9065 0.50875 0.0
H1070 H 0.21169 0.89354 0.56013 0.0
H1071 H 0.1721 0.87717 0.51716 0.0
C1072 C 0.24011 0.05373 0.89271 0.0
C1073 C 0.22953 0.08783 0.86079 0.0
C1074 C 0.26038 0.12335 0.95144 0.0
C1075 C 0.26845 0.08922 0.98565 0.0
N1076 N 0.26061 0.0222 0.99346 0.0
N1077 N 0.22496 0.15539 0.86484 0.0
C1078 C 0.25675 0.05451 0.95736 0.0
C1079 C 0.23855 0.12273 0.8915 0.0
N1080 N 0.23534 0.02046 0.85999 0.0
N1081 N 0.27476 0.1564 0.97489 0.0
H1082 H 0.20994 0.15629 0.8205 0.0
H1083 H 0.22638 0.18127 0.88871 0.0
H1084 H 0.28939 0.15829 1.01951 0.0
H1085 H 0.27425 0.18149 0.94831 0.0
H1086 H 0.24582 0.99486 0.87699 0.0
H1087 H 0.22395 0.01898 0.81244 0.0
H1088 H 0.24932 0.99643 0.97921 0.0
H1089 H 0.27212 0.02189 1.041 0.0
C1090 C 0.11438 0.74942 0.12388 0.0
C1091 C 0.08338 0.72531 0.10964 0.0
C1092 C 0.05636 0.74062 0.2195 0.0
C1093 C 0.08606 0.76646 0.23183 0.0
N1094 N 0.14057 0.7997 0.19098 0.0
N1095 N 0.02109 0.70404 0.13866 0.0
C1096 C 0.11413 0.77213 0.1824 0.0
C1097 C 0.05338 0.72258 0.15627 0.0
N1098 N 0.14514 0.74932 0.08336 0.0
N1099 N 0.0308 0.73338 0.26826 0.0
H1100 H 0.01723 0.69214 0.09203 0.0
H1101 H 0.99673 0.70366 0.16717 0.0
H1102 H 0.0317 0.74661 0.3142 0.0
H1103 H 0.01046 0.71237 0.26523 0.0
H1104 H 0.17059 0.76227 0.09528 0.0
H1105 H 0.14638 0.73398 1.03967 0.0
H1106 H 0.15873 0.80859 0.15379 0.0
H1107 H 0.14292 0.81546 0.23419 0.0
C1108 C 0.72998 0.9381 0.93747 0.0
C1109 C 0.72872 0.90506 0.97729 0.0
C1110 C 0.76844 0.87267 0.89472 0.0
C1111 C 0.76684 0.90469 0.85233 0.0
N1112 N 0.74176 0.96616 0.82962 0.0
N1113 N 0.74244 0.83906 0.98899 0.0
C1114 C 0.74637 0.93692 0.87284 0.0
C1115 C 0.74698 0.87189 0.95472 0.0
N1116 N 0.71644 0.97109 0.96258 0.0
N1117 N 0.79134 0.84322 0.87853 0.0
H1118 H 0.72778 0.83749 1.0335 0.0
H1119 H 0.75093 0.81295 0.97119 0.0
H1120 H 0.80611 0.842 0.83416 0.0
H1121 H 0.79761 0.82122 0.91076 0.0
H1122 H 0.71962 0.99704 0.93937 0.0
H1123 H 0.70508 0.97307 1.00995 0.0
H1124 H 0.72391 0.98885 0.83823 0.0
H1125 H 0.75326 0.96606 0.78222 0.0
C1126 C 0.88159 0.26806 0.13998 0.0
C1127 C 0.91613 0.27657 0.10761 0.0
C1128 C 0.95099 0.24867 0.20173 0.0
C1129 C 0.91652 0.23747 0.23157 0.0
N1130 N 0.84884 0.23252 0.22492 0.0
N1131 N 0.98363 0.27059 0.10332 0.0
C1132 C 0.88177 0.24625 0.19963 0.0
C1133 C 0.95081 0.26569 0.13751 0.0
N1134 N 0.84856 0.2821 0.11514 0.0
N1135 N 0.98396 0.24398 0.23596 0.0
H1136 H 0.98441 0.28242 0.05611 0.0
H1137 H 0.00957 0.26001 0.11878 0.0
H1138 H 0.98494 0.23212 0.28315 0.0
H1139 H 0.00975 0.2548 0.22061 0.0
H1140 H 0.82306 0.28114 0.14042 0.0
H1141 H 0.847 0.29707 0.07088 0.0
H1142 H 0.82318 0.23347 0.19981 0.0
H1143 H 0.84747 0.21804 0.26964 0.0
C1144 C 0.27616 0.4397 0.40722 0.0
C1145 C 0.27281 0.41116 0.35795 0.0
C1146 C 0.22672 0.37856 0.42962 0.0
C1147 C 0.23326 0.40496 0.48132 0.0
N1148 N 0.26783 0.4582 0.52212 0.0
N1149 N 0.24851 0.3501 0.32773 0.0
C1150 C 0.25926 0.43467 0.47092 0.0
C1151 C 0.24883 0.37981 0.37045 0.0
N1152 N 0.29412 0.47258 0.39187 0.0
N1153 N 0.1988 0.35237 0.43657 0.0
H1154 H 0.26353 0.34978 0.28366 0.0
H1155 H 0.23556 0.32451 0.33827 0.0
H1156 H 0.18376 0.34878 0.4803 0.0
H1157 H 0.18902 0.33576 0.39778 0.0
H1158 H 0.29488 0.49587 0.42292 0.0
H1159 H 0.30494 0.47809 0.34495 0.0
H1160 H 0.28908 0.47836 0.52017 0.0
H1161 H 0.25571 0.45543 0.56879 0.0
C1162 C 0.37326 0.73634 0.7007 0.0
C1163 C 0.4078 0.72804 0.73375 0.0
C1164 C 0.44252 0.75496 0.63878 0.0
C1165 C 0.40808 0.76586 0.60802 0.0
N1166 N 0.34048 0.77128 0.6144 0.0
N1167 N 0.47521 0.73462 0.7386 0.0
C1168 C 0.37339 0.75759 0.64023 0.0
C1169 C 0.44238 0.73885 0.70379 0.0
N1170 N 0.34025 0.72267 0.72574 0.0
N1171 N 0.47548 0.75896 0.60465 0.0
H1172 H 0.47599 0.72348 0.78634 0.0
H1173 H 0.50105 0.74528 0.72309 0.0
H1174 H 0.47646 0.76994 0.55682 0.0
H1175 H 0.50124 0.74827 0.62082 0.0
H1176 H 0.31473 0.72337 0.70016 0.0
H1177 H 0.33875 0.70845 0.77075 0.0
H1178 H 0.31487 0.77059 0.63937 0.0
H1179 H 0.33915 0.78549 0.56937 0.0
C1180 C 0.74886 0.61764 0.37409 0.0
C1181 C 0.73011 0.58356 0.3573 0.0
C1182 C 0.75011 0.55647 0.46486 0.0
C1183 C 0.77097 0.58953 0.47949 0.0
N1184 N 0.79422 0.64993 0.44425 0.0
N1185 N 0.71788 0.51848 0.38212 0.0
C1186 C 0.77147 0.61959 0.43287 0.0
C1187 C 0.73208 0.55245 0.4017 0.0
N1188 N 0.74361 0.64885 0.33563 0.0
N1189 N 0.7474 0.52893 0.5118 0.0
H1190 H 0.70563 0.51432 0.33575 0.0
H1191 H 0.72123 0.49364 0.40876 0.0
H1192 H 0.7603 0.53106 0.55806 0.0
H1193 H 0.73006 0.50547 0.50732 0.0
H1194 H 0.75245 0.67567 0.34924 0.0
H1195 H 0.72801 0.64858 0.29189 0.0
H1196 H 0.79998 0.67038 0.4088 0.0
H1197 H 0.80918 0.65356 0.48822 0.0
C1198 C 0.61761 0.25375 0.61514 0.0
C1199 C 0.58888 0.22621 0.60625 0.0
C1200 C 0.56817 0.23752 0.7218 0.0
C1201 C 0.59471 0.26714 0.72858 0.0
N1202 N 0.64151 0.30693 0.67771 0.0
N1203 N 0.53181 0.19786 0.64747 0.0
C1204 C 0.61831 0.27631 0.67386 0.0
C1205 C 0.56286 0.21974 0.65884 0.0
N1206 N 0.64574 0.25704 0.56951 0.0
N1207 N 0.54785 0.22635 0.7756 0.0
H1208 H 0.52581 0.18618 0.60135 0.0
H1209 H 0.50997 0.19453 0.68122 0.0
H1210 H 0.5504 0.23924 0.82165 0.0
H1211 H 0.53089 0.20246 0.77615 0.0
H1212 H 0.67003 0.27292 0.57726 0.0
H1213 H 0.64653 0.2416 0.52589 0.0
H1214 H 0.65541 0.31826 0.63704 0.0
H1215 H 0.64515 0.32248 0.72085 0.0
C1216 C 0.32397 0.06895 0.6229 0.0
C1217 C 0.34009 0.09151 0.57234 0.0
C1218 C 0.38752 0.11518 0.65113 0.0
C1219 C 0.36962 0.09474 0.70266 0.0
N1220 N 0.31822 0.05576 0.74015 0.0
N1221 N 0.38541 0.138 0.53777 0.0
C1222 C 0.33703 0.07271 0.68924 0.0
C1223 C 0.3714 0.11519 0.58637 0.0
N1224 N 0.297 0.04296 0.60707 0.0
N1225 N 0.4203 0.13412 0.66406 0.0
H1226 H 0.37563 0.13741 0.48912 0.0
H1227 H 0.40533 0.15899 0.54591 0.0
H1228 H 0.4319 0.13626 0.71133 0.0
H1229 H 0.4373 0.146 0.6278 0.0
H1230 H 0.28693 0.02282 0.63996 0.0
H1231 H 0.28663 0.03943 0.55923 0.0
H1232 H 0.29173 0.04346 0.73511 0.0
H1233 H 0.32785 0.05613 0.78889 0.0
C1234 C 0.04971 0.66344 0.47047 0.0
C1235 C 0.07129 0.64865 0.52387 0.0
C1236 C 0.10148 0.60395 0.44779 0.0
C1237 C 0.07827 0.61728 0.39544 0.0
N1238 N 0.02424 0.65339 0.36058 0.0
N1239 N 0.11108 0.59902 0.56623 0.0
C1240 C 0.05056 0.64516 0.40792 0.0
C1241 C 0.09528 0.61717 0.51334 0.0
N1242 N 0.02955 0.69586 0.47853 0.0
N1243 N 0.13023 0.57951 0.43462 0.0
H1244 H 0.10638 0.60714 0.61501 0.0
H1245 H 0.12581 0.57379 0.56231 0.0
H1246 H 0.13544 0.56891 0.38751 0.0
H1247 H 0.15071 0.57205 0.46924 0.0
H1248 H 0.01698 0.71033 0.43944 0.0
H1249 H 0.02799 0.71012 0.52335 0.0
H1250 H 0.00073 0.67019 0.36944 0.0
H1251 H 0.02389 0.64056 0.31425 0.0
C1252 C 0.61394 0.89051 0.57601 0.0
C1253 C 0.6466 0.91242 0.56294 0.0
C1254 C 0.64624 0.93507 0.67784 0.0
C1255 C 0.61652 0.90968 0.69275 0.0
N1256 N 0.57447 0.86016 0.65809 0.0
N1257 N 0.69588 0.95352 0.60233 0.0
C1258 C 0.60087 0.88667 0.64228 0.0
C1259 C 0.66321 0.93429 0.6141 0.0
N1260 N 0.59469 0.87438 0.52471 0.0
N1261 N 0.6575 0.96073 0.72416 0.0
H1262 H 0.70842 0.9549 0.55591 0.0
H1263 H 0.71204 0.966 0.63932 0.0
H1264 H 0.64562 0.96233 0.77116 0.0
H1265 H 0.67629 0.98253 0.7145 0.0
H1266 H 0.56848 0.86152 0.52991 0.0
H1267 H 0.60323 0.87684 0.47561 0.0
H1268 H 0.56504 0.83971 0.62517 0.0
H1269 H 0.56398 0.85669 0.7058 0.0
C1270 C 0.88243 0.35476 0.41593 0.0
C1271 C 0.91026 0.38109 0.39586 0.0
C1272 C 0.9371 0.38035 0.50807 0.0
C1273 C 0.91225 0.35062 0.52576 0.0
N1274 N 0.86388 0.30637 0.49379 0.0
N1275 N 0.96729 0.41542 0.41991 0.0
C1276 C 0.88547 0.33708 0.47901 0.0
C1277 C 0.93844 0.39302 0.44122 0.0
N1278 N 0.85255 0.34728 0.37515 0.0
N1279 N 0.95849 0.39743 0.55567 0.0
H1280 H 0.96913 0.42548 0.37158 0.0
H1281 H 0.99095 0.42155 0.44853 0.0
H1282 H 0.95752 0.38968 0.60538 0.0
H1283 H 0.97439 0.42157 0.54719 0.0
H1284 H 0.82921 0.33153 0.38954 0.0
H1285 H 0.84939 0.35962 0.32866 0.0
H1286 H 0.84721 0.29243 0.45918 0.0
H1287 H 0.86484 0.29275 0.53938 0.0
C1288 C 0.39273 0.44122 0.68968 0.0
C1289 C 0.37507 0.41818 0.64135 0.0
C1290 C 0.32934 0.39643 0.72413 0.0
C1291 C 0.34513 0.42158 0.77113 0.0
N1292 N 0.38943 0.47072 0.79784 0.0
N1293 N 0.32314 0.37842 0.60898 0.0
C1294 C 0.37614 0.44485 0.75357 0.0
C1295 C 0.34232 0.39714 0.65757 0.0
N1296 N 0.42587 0.45892 0.67484 0.0
N1297 N 0.30273 0.37095 0.74366 0.0
H1298 H 0.33225 0.37742 0.56006 0.0
H1299 H 0.2967 0.36632 0.61586 0.0
H1300 H 0.29257 0.36955 0.79187 0.0
H1301 H 0.29295 0.34921 0.71377 0.0
H1302 H 0.4425 0.47282 0.70952 0.0
H1303 H 0.43818 0.45776 0.62815 0.0
H1304 H 0.40907 0.4914 0.7861 0.0
H1305 H 0.37912 0.47308 0.84586 0.0
C1306 C 0.39329 0.6192 0.33092 0.0
C1307 C 0.41516 0.65212 0.31976 0.0
C1308 C 0.43495 0.65135 0.4365 0.0
C1309 C 0.4091 0.62172 0.44926 0.0
N1310 N 0.36029 0.58001 0.41014 0.0
N1311 N 0.45463 0.70161 0.3635 0.0
C1312 C 0.38743 0.60623 0.3968 0.0
C1313 C 0.43554 0.66867 0.37297 0.0
N1314 N 0.37931 0.59948 0.2783 0.0
N1315 N 0.45991 0.66211 0.48456 0.0
H1316 H 0.45724 0.71443 0.3175 0.0
H1317 H 0.46571 0.71764 0.40195 0.0
H1318 H 0.46067 0.64989 0.53143 0.0
H1319 H 0.48214 0.68065 0.47628 0.0
H1320 H 0.36658 0.57321 0.28275 0.0
H1321 H 0.38375 0.60758 0.22937 0.0
H1322 H 0.34083 0.57067 0.37517 0.0
H1323 H 0.35516 0.56978 0.45759 0.0
C1324 C 0.67413 0.54688 0.71681 0.0
C1325 C 0.65593 0.56438 0.77125 0.0
C1326 C 0.60883 0.59145 0.69509 0.0
C1327 C 0.62547 0.5718 0.64155 0.0
N1328 N 0.66904 0.52445 0.60407 0.0
N1329 N 0.60087 0.59593 0.81376 0.0
C1330 C 0.6567 0.54763 0.65324 0.0
C1331 C 0.62175 0.58453 0.76079 0.0
N1332 N 0.70884 0.53082 0.725 0.0
N1333 N 0.58153 0.61775 0.68306 0.0
H1334 H 0.60856 0.59019 0.86253 0.0
H1335 H 0.57411 0.60776 0.80937 0.0
H1336 H 0.57138 0.62375 0.63578 0.0
H1337 H 0.5713 0.63593 0.71909 0.0
H1338 H 0.72543 0.52173 0.68576 0.0
H1339 H 0.72258 0.52937 0.7705 0.0
H1340 H 0.68867 0.50309 0.61187 0.0
H1341 H 0.65698 0.524 0.55699 0.0
C1342 C 0.57389 0.38609 0.39419 0.0
C1343 C 0.59848 0.37192 0.44389 0.0
C1344 C 0.62283 0.32507 0.36544 0.0
C1345 C 0.59993 0.34073 0.31454 0.0
N1346 N 0.56022 0.39162 0.277 0.0
N1347 N 0.65176 0.33325 0.47329 0.0
C1348 C 0.57735 0.37288 0.32795 0.0
C1349 C 0.62456 0.34297 0.42838 0.0
N1350 N 0.54628 0.41117 0.41065 0.0
N1351 N 0.64187 0.29224 0.35463 0.0
H1352 H 0.65405 0.34585 0.51963 0.0
H1353 H 0.67408 0.31526 0.46252 0.0
H1354 H 0.64192 0.2785 0.30921 0.0
H1355 H 0.65515 0.27699 0.39203 0.0
H1356 H 0.52479 0.41918 0.37837 0.0
H1357 H 0.543 0.42169 0.45836 0.0
H1358 H 0.54658 0.41735 0.28269 0.0
H1359 H 0.56277 0.38335 0.22778 0.0
C1360 C 0.87555 0.61254 0.07855 0.0
C1361 C 0.8443 0.58847 0.06608 0.0
C1362 C 0.84254 0.57082 0.18375 0.0
C1363 C 0.87491 0.59344 0.19572 0.0
N1364 N 0.9248 0.63296 0.15452 0.0
N1365 N 0.80168 0.54025 0.10364 0.0
C1366 C 0.89216 0.61348 0.14299 0.0
C1367 C 0.8288 0.56639 0.11788 0.0
N1368 N 0.88901 0.63484 1.02876 0.0
N1369 N 0.82454 0.554 0.23568 0.0
H1370 H 0.79062 0.5365 0.05632 0.0
H1371 H 0.79204 0.52031 0.13729 0.0
H1372 H 0.83472 0.55486 0.28405 0.0
H1373 H 0.79822 0.54121 0.23187 0.0
H1374 H 0.9089 0.656 1.03552 0.0
H1375 H 0.87876 0.63364 0.98043 0.0
H1376 H 0.94134 0.64474 0.11753 0.0
H1377 H 0.93677 0.63566 0.20142 0.0
C1378 C 0.6126 0.15338 0.90576 0.0
C1379 C 0.59507 0.1185 0.89079 0.0
C1380 C 0.57246 0.11377 1.00549 0.0
C1381 C 0.59142 0.1479 1.02105 0.0
N1382 N 0.63605 0.19584 0.99002 0.0
N1383 N 0.56281 0.06266 0.92742 0.0
C1384 C 0.61346 0.16638 0.97233 0.0
C1385 C 0.57632 0.09784 0.94108 0.0
N1386 N 0.62753 0.17468 0.85595 0.0
N1387 N 0.55039 0.09685 0.05219 0.0
H1388 H 0.56425 0.05063 0.88052 0.0
H1389 H 0.55252 0.04428 0.96314 0.0
H1390 H 0.54876 0.10631 0.10086 0.0
H1391 H 0.5322 0.07459 1.04226 0.0
H1392 H 0.63641 0.20237 0.86217 0.0
H1393 H 0.6285 0.16571 0.80694 0.0
H1394 H 0.65587 0.20792 0.95863 0.0
H1395 H 0.63735 0.20626 1.03807 0.0
C1396 C 0.14555 0.45201 0.16913 0.0
C1397 C 0.11634 0.42639 0.18658 0.0
C1398 C 0.11851 0.40096 0.07373 0.0
C1399 C 0.15278 0.42045 0.06195 0.0
N1400 N 0.19857 0.46624 0.09808 0.0
N1401 N 0.05979 0.40479 0.13227 0.0
C1402 C 0.1661 0.44665 0.10945 0.0
C1403 C 0.09808 0.40804 0.13286 0.0
N1404 N 0.14966 0.48454 0.20413 0.0
N1405 N 0.10501 0.37595 1.02833 0.0
H1406 H 0.0432 0.41926 0.16631 0.0
H1407 H 0.04468 0.39422 0.0921 0.0
H1408 H 0.1185 0.37063 0.98356 0.0
H1409 H 0.08193 0.35862 1.03788 0.0
H1410 H 0.16775 0.50621 0.19018 0.0
H1411 H 0.13101 0.49184 0.24179 0.0
H1412 H 0.2118 0.48246 0.13422 0.0
H1413 H 0.21359 0.46424 0.05401 0.0
C1414 C 0.39752 0.87456 1.01093 0.0
C1415 C 0.41613 0.83961 1.02159 0.0
C1416 C 0.4287 0.83437 0.90245 0.0
C1417 C 0.41109 0.86978 0.89192 0.0
N1418 N 0.38254 0.92592 0.93559 0.0
N1419 N 0.45606 0.7901 0.98026 0.0
C1420 C 0.39663 0.89059 0.94614 0.0
C1421 C 0.43366 0.82064 0.9681 0.0
N1422 N 0.3805 0.89227 0.0629 0.0
N1423 N 0.44014 0.81349 0.84945 0.0
H1424 H 0.46039 0.77914 1.02744 0.0
H1425 H 0.47293 0.7774 0.94473 0.0
H1426 H 0.43889 0.82323 0.80085 0.0
H1427 H 0.44855 0.7855 0.85291 0.0
H1428 H 0.36288 0.9155 0.05811 0.0
H1429 H 0.38274 0.88278 0.11156 0.0
H1430 H 0.37531 0.94448 0.97314 0.0
H1431 H 0.37994 0.93781 0.88864 0.0
C1432 C 0.81519 0.93732 0.21171 0.0
C1433 C 0.83472 0.92043 0.26567 0.0
C1434 C 0.8874 0.90461 0.19122 0.0
C1435 C 0.86589 0.91778 0.13647 0.0
N1436 N 0.80814 0.94381 0.09288 0.0
N1437 N 0.89 0.88905 0.30833 0.0
C1438 C 0.82948 0.93339 0.14633 0.0
C1439 C 0.8711 0.90444 0.25576 0.0
N1440 N 0.78352 0.95819 0.22301 0.0
N1441 N 0.92365 0.89272 0.18138 0.0
H1442 H 0.88069 0.89146 0.35698 0.0
H1443 H 0.91433 0.87292 0.3042 0.0
H1444 H 0.93584 0.89093 0.13467 0.0
H1445 H 0.94255 0.88649 0.21924 0.0
H1446 H 0.77037 0.97466 0.18715 0.0
H1447 H 0.77208 0.96195 0.26976 0.0
H1448 H 0.77965 0.95064 0.09572 0.0
H1449 H 0.81815 0.94328 0.0445 0.0
C1450 C 0.92994 0.1168 0.8927 0.0
C1451 C 0.90379 0.13027 0.93997 0.0
C1452 C 0.88006 0.17643 0.8596 0.0
C1453 C 0.90494 0.16172 0.81108 0.0
N1454 N 0.94549 0.11087 0.77675 0.0
N1455 N 0.84811 0.16657 0.96396 0.0
C1456 C 0.9275 0.12976 0.82625 0.0
C1457 C 0.87702 0.15814 0.92195 0.0
N1458 N 0.95805 0.09276 0.91166 0.0
N1459 N 0.86042 0.20877 0.84753 0.0
H1460 H 0.84482 0.15356 1.00983 0.0
H1461 H 0.82545 0.1837 0.95086 0.0
H1462 H 0.86107 0.22295 0.80254 0.0
H1463 H 0.8459 0.22333 0.88403 0.0
H1464 H 0.98043 0.08546 0.88102 0.0
H1465 H 0.9608 0.08257 0.95979 0.0
H1466 H 0.95938 0.08537 0.78401 0.0
H1467 H 0.94308 0.11852 0.72712 0.0
C1468 C 0.1601 0.10396 0.15967 0.0
C1469 C 0.12897 0.08053 0.14341 0.0
C1470 C 0.12896 0.05503 0.25675 0.0
C1471 C 0.15849 0.08028 0.27405 0.0
N1472 N 0.19905 0.13215 0.24513 0.0
N1473 N 0.08159 0.03578 0.1763 0.0
C1474 C 0.17318 0.10569 0.22632 0.0
C1475 C 0.11281 0.05658 0.192 0.0
N1476 N 0.17776 0.12394 0.11092 0.0
N1477 N 0.11669 0.02929 0.30218 0.0
H1478 H 0.06998 0.03511 0.12889 0.0
H1479 H 0.06579 0.02075 0.21057 0.0
H1480 H 0.12635 0.02863 0.3509 0.0
H1481 H 0.09847 0.00723 0.29121 0.0
H1482 H 0.20339 0.13773 0.11744 0.0
H1483 H 0.16819 0.12467 0.06215 0.0
H1484 H 0.20777 0.15423 0.215 0.0
H1485 H 0.2101 0.13373 0.29284 0.0
C1486 C 0.0593 0.81798 0.87518 0.0
C1487 C 0.07316 0.8377 0.81915 0.0
C1488 C 0.09368 0.88965 0.89145 0.0
C1489 C 0.08309 0.86821 0.94776 0.0
N1490 N 0.05976 0.81032 0.99446 0.0
N1491 N 0.10492 0.89159 0.77296 0.0
C1492 C 0.06702 0.83188 0.93991 0.0
C1493 C 0.09074 0.8734 0.82708 0.0
N1494 N 0.03775 0.7865 0.86642 0.0
N1495 N 0.10587 0.92585 0.89958 0.0
H1496 H 0.10126 0.8818 0.72481 0.0
H1497 H 0.12188 0.91542 0.77554 0.0
H1498 H 0.10962 0.93813 0.94592 0.0
H1499 H 0.11004 0.94463 0.8608 0.0
H1500 H 0.02356 0.77287 0.9045 0.0
H1501 H 0.03121 0.77575 0.81993 0.0
H1502 H 0.05227 0.78205 0.99221 0.0
H1503 H 0.06381 0.81988 1.04266 0.0
loop_
_geom_bond_atom_site_label_1
_geom_bond_atom_site_label_2
_geom_bond_distance
_geom_bond_site_symmetry_2
_ccdc_geom_bond_type
Eu0 C9 2.828 . S
Eu0 O11 2.392 . S
Eu0 O13 2.418 . S
Eu0 O18 2.373 . S
Eu0 O21 2.488 . S
Eu0 O22 2.471 . S
Eu0 O23 2.349 . S
Eu1 O10 2.373 . S
Eu1 O14 2.488 1_554 S
Eu1 O15 2.471 1_554 S
Eu1 O16 2.349 . S
Eu1 O19 2.392 . S
Eu1 O20 2.418 . S
Eu1 C30 2.828 1_554 S
C2 O20 1.244 . S
C2 O23 1.265 . S
C3 C4 1.379 . S
C3 C7 1.373 . S
C3 C9 1.505 . S
C4 C3 1.379 . S
C4 C6 1.369 . S
C4 H32 0.930 . S
C5 C7 1.383 . S
C5 C8 1.382 . S
C5 H33 0.930 . S
C6 C4 1.369 . S
C6 C8 1.392 . S
C6 H34 0.930 . S
C7 C3 1.373 . S
C7 C5 1.383 . S
C7 H35 0.931 . S
C8 C5 1.382 . S
C8 C6 1.392 . S
C9 Eu0 2.828 . S
C9 C3 1.505 . S
C9 O21 1.249 . S
C9 O22 1.244 . S
O10 Eu1 2.373 . S
O10 C12 1.258 . S
O11 Eu0 2.392 . S
O11 C12 1.242 . S
C12 O10 1.258 . S
C12 O11 1.242 . S
O13 Eu0 2.418 . S
O13 C17 1.244 . S
O14 Eu1 2.488 1_556 S
O14 C30 1.249 . S
O15 Eu1 2.471 1_556 S
O15 C30 1.244 . S
O16 Eu1 2.349 . S
O16 C17 1.265 . S
C17 O13 1.244 . S
C17 O16 1.265 . S
O18 Eu0 2.373 . S
O18 C31 1.258 . S
O19 Eu1 2.392 . S
O19 C31 1.242 . S
O20 Eu1 2.418 . S
O20 C2 1.244 . S
O21 Eu0 2.488 . S
O21 C9 1.249 . S
O22 Eu0 2.471 . S
O22 C9 1.244 . S
O23 Eu0 2.349 . S
O23 C2 1.265 . S
C24 C25 1.379 . S
C24 C28 1.373 . S
C24 C30 1.505 . S
C25 C24 1.379 . S
C25 C27 1.369 . S
C25 H36 0.930 . S
C26 C28 1.383 . S
C26 C29 1.382 . S
C26 H37 0.930 . S
C27 C25 1.369 . S
C27 C29 1.392 . S
C27 H38 0.930 . S
C28 C24 1.373 . S
C28 C26 1.383 . S
C28 H39 0.931 . S
C29 C26 1.382 . S
C29 C27 1.392 . S
C30 Eu1 2.828 1_556 S
C30 O14 1.249 . S
C30 O15 1.244 . S
C30 C24 1.505 . S
C31 O18 1.258 . S
C31 O19 1.242 . S
H32 C4 0.930 . S
H33 C5 0.930 . S
H34 C6 0.930 . S
H35 C7 0.931 . S
H36 C25 0.930 . S
H37 C26 0.930 . S
H38 C27 0.930 . S
H39 C28 0.931 . S
Eu40 C49 2.828 1_556 S
Eu40 O51 2.392 . S
Eu40 O53 2.418 . S
Eu40 O58 2.373 . S
Eu40 O61 2.488 1_556 S
Eu40 O62 2.471 1_556 S
Eu40 O63 2.349 . S
Eu41 O50 2.373 . S
Eu41 O54 2.488 . S
Eu41 O55 2.471 . S
Eu41 O56 2.349 . S
Eu41 O59 2.392 . S
Eu41 O60 2.418 . S
Eu41 C70 2.828 . S
C42 O60 1.244 . S
C42 O63 1.265 . S
C43 C44 1.379 . S
C43 C47 1.373 . S
C43 C49 1.505 . S
C44 C43 1.379 . S
C44 C46 1.369 . S
C44 H72 0.930 . S
C45 C47 1.383 . S
C45 C48 1.382 . S
C45 H73 0.930 . S
C46 C44 1.369 . S
C46 C48 1.392 . S
C46 H74 0.930 . S
C47 C43 1.373 . S
C47 C45 1.383 . S
C47 H75 0.931 . S
C48 C45 1.382 . S
C48 C46 1.392 . S
C49 Eu40 2.828 1_554 S
C49 C43 1.505 . S
C49 O61 1.249 . S
C49 O62 1.244 . S
O50 Eu41 2.373 . S
O50 C52 1.258 . S
O51 Eu40 2.392 . S
O51 C52 1.242 . S
C52 O50 1.258 . S
C52 O51 1.242 . S
O53 Eu40 2.418 . S
O53 C57 1.244 . S
O54 Eu41 2.488 . S
O54 C70 1.249 . S
O55 Eu41 2.471 . S
O55 C70 1.244 . S
O56 Eu41 2.349 . S
O56 C57 1.265 . S
C57 O53 1.244 . S
C57 O56 1.265 . S
O58 Eu40 2.373 . S
O58 C71 1.258 . S
O59 Eu41 2.392 . S
O59 C71 1.242 . S
O60 Eu41 2.418 . S
O60 C42 1.244 . S
O61 Eu40 2.488 1_554 S
O61 C49 1.249 . S
O62 Eu40 2.471 1_554 S
O62 C49 1.244 . S
O63 Eu40 2.349 . S
O63 C42 1.265 . S
C64 C65 1.379 . S
C64 C68 1.373 . S
C64 C70 1.505 . S
C65 C64 1.379 . S
C65 C67 1.369 . S
C65 H76 0.930 . S
C66 C68 1.383 . S
C66 C69 1.382 . S
C66 H77 0.930 . S
C67 C65 1.369 . S
C67 C69 1.392 . S
C67 H78 0.930 . S
C68 C64 1.373 . S
C68 C66 1.383 . S
C68 H79 0.931 . S
C69 C66 1.382 . S
C69 C67 1.392 . S
C70 Eu41 2.828 . S
C70 O54 1.249 . S
C70 O55 1.244 . S
C70 C64 1.505 . S
C71 O58 1.258 . S
C71 O59 1.242 . S
H72 C44 0.930 . S
H73 C45 0.930 . S
H74 C46 0.930 . S
H75 C47 0.931 . S
H76 C65 0.930 . S
H77 C66 0.930 . S
H78 C67 0.930 . S
H79 C68 0.931 . S
Eu80 C89 2.828 . S
Eu80 O91 2.392 . S
Eu80 O93 2.418 . S
Eu80 O98 2.373 . S
Eu80 O101 2.488 . S
Eu80 O102 2.471 . S
Eu80 O103 2.349 . S
Eu81 O90 2.373 . S
Eu81 O94 2.488 1_554 S
Eu81 O95 2.471 1_554 S
Eu81 O96 2.349 . S
Eu81 O99 2.392 . S
Eu81 O100 2.418 . S
Eu81 C110 2.828 1_554 S
C82 O100 1.244 . S
C82 O103 1.265 . S
C83 C84 1.379 . S
C83 C87 1.373 . S
C83 C89 1.505 . S
C84 C83 1.379 . S
C84 C86 1.369 . S
C84 H112 0.930 . S
C85 C87 1.383 . S
C85 C88 1.382 . S
C85 H113 0.930 . S
C86 C84 1.369 . S
C86 C88 1.392 . S
C86 H114 0.930 . S
C87 C83 1.373 . S
C87 C85 1.383 . S
C87 H115 0.931 . S
C88 C85 1.382 . S
C88 C86 1.392 . S
C89 Eu80 2.828 . S
C89 C83 1.505 . S
C89 O101 1.249 . S
C89 O102 1.244 . S
O90 Eu81 2.373 . S
O90 C92 1.258 . S
O91 Eu80 2.392 . S
O91 C92 1.242 . S
C92 O90 1.258 . S
C92 O91 1.242 . S
O93 Eu80 2.418 . S
O93 C97 1.244 . S
O94 Eu81 2.488 1_556 S
O94 C110 1.249 . S
O95 Eu81 2.471 1_556 S
O95 C110 1.244 . S
O96 Eu81 2.349 . S
O96 C97 1.265 . S
C97 O93 1.244 . S
C97 O96 1.265 . S
O98 Eu80 2.373 . S
O98 C111 1.258 . S
O99 Eu81 2.392 . S
O99 C111 1.242 . S
O100 Eu81 2.418 . S
O100 C82 1.244 . S
O101 Eu80 2.488 . S
O101 C89 1.249 . S
O102 Eu80 2.471 . S
O102 C89 1.244 . S
O103 Eu80 2.349 . S
O103 C82 1.265 . S
C104 C105 1.379 . S
C104 C108 1.373 . S
C104 C110 1.505 . S
C105 C104 1.379 . S
C105 C107 1.369 . S
C105 H116 0.930 . S
C106 C108 1.383 . S
C106 C109 1.382 . S
C106 H117 0.930 . S
C107 C105 1.369 . S
C107 C109 1.392 . S
C107 H118 0.930 . S
C108 C104 1.373 . S
C108 C106 1.383 . S
C108 H119 0.931 . S
C109 C106 1.382 . S
C109 C107 1.392 . S
C110 Eu81 2.828 1_556 S
C110 O94 1.249 . S
C110 O95 1.244 . S
C110 C104 1.505 . S
C111 O98 1.258 . S
C111 O99 1.242 . S
H112 C84 0.930 . S
H113 C85 0.930 . S
H114 C86 0.930 . S
H115 C87 0.931 . S
H116 C105 0.930 . S
H117 C106 0.930 . S
H118 C107 0.930 . S
H119 C108 0.931 . S
Eu120 C129 2.828 1_556 S
Eu120 O131 2.392 . S
Eu120 O133 2.418 . S
Eu120 O138 2.373 . S
Eu120 O141 2.488 1_556 S
Eu120 O142 2.471 1_556 S
Eu120 O143 2.349 . S
Eu121 O130 2.373 . S
Eu121 O134 2.488 . S
Eu121 O135 2.471 . S
Eu121 O136 2.349 . S
Eu121 O139 2.392 . S
Eu121 O140 2.418 . S
Eu121 C150 2.828 . S
C122 O140 1.244 . S
C122 O143 1.265 . S
C123 C124 1.379 . S
C123 C127 1.373 . S
C123 C129 1.505 . S
C124 C123 1.379 . S
C124 C126 1.369 . S
C124 H152 0.930 . S
C125 C127 1.383 . S
C125 C128 1.382 . S
C125 H153 0.930 . S
C126 C124 1.369 . S
C126 C128 1.392 . S
C126 H154 0.930 . S
C127 C123 1.373 . S
C127 C125 1.383 . S
C127 H155 0.931 . S
C128 C125 1.382 . S
C128 C126 1.392 . S
C129 Eu120 2.828 1_554 S
C129 C123 1.505 . S
C129 O141 1.249 . S
C129 O142 1.244 . S
O130 Eu121 2.373 . S
O130 C132 1.258 . S
O131 Eu120 2.392 . S
O131 C132 1.242 . S
C132 O130 1.258 . S
C132 O131 1.242 . S
O133 Eu120 2.418 . S
O133 C137 1.244 . S
O134 Eu121 2.488 . S
O134 C150 1.249 . S
O135 Eu121 2.471 . S
O135 C150 1.244 . S
O136 Eu121 2.349 . S
O136 C137 1.265 . S
C137 O133 1.244 . S
C137 O136 1.265 . S
O138 Eu120 2.373 . S
O138 C151 1.258 . S
O139 Eu121 2.392 . S
O139 C151 1.242 . S
O140 Eu121 2.418 . S
O140 C122 1.244 . S
O141 Eu120 2.488 1_554 S
O141 C129 1.249 . S
O142 Eu120 2.471 1_554 S
O142 C129 1.244 . S
O143 Eu120 2.349 . S
O143 C122 1.265 . S
C144 C145 1.379 . S
C144 C148 1.373 . S
C144 C150 1.505 . S
C145 C144 1.379 . S
C145 C147 1.369 . S
C145 H156 0.930 . S
C146 C148 1.383 . S
C146 C149 1.382 . S
C146 H157 0.930 . S
C147 C145 1.369 . S
C147 C149 1.392 . S
C147 H158 0.930 . S
C148 C144 1.373 . S
C148 C146 1.383 . S
C148 H159 0.931 . S
C149 C146 1.382 . S
C149 C147 1.392 . S
C150 Eu121 2.828 . S
C150 O134 1.249 . S
C150 O135 1.244 . S
C150 C144 1.505 . S
C151 O138 1.258 . S
C151 O139 1.242 . S
H152 C124 0.930 . S
H153 C125 0.930 . S
H154 C126 0.930 . S
H155 C127 0.931 . S
H156 C145 0.930 . S
H157 C146 0.930 . S
H158 C147 0.930 . S
H159 C148 0.931 . S
Eu160 C169 2.828 1_554 S
Eu160 O171 2.392 . S
Eu160 O173 2.418 . S
Eu160 O178 2.373 . S
Eu160 O181 2.488 1_554 S
Eu160 O182 2.471 1_554 S
Eu160 O183 2.349 . S
Eu161 O170 2.373 . S
Eu161 O174 2.488 . S
Eu161 O175 2.471 . S
Eu161 O176 2.349 . S
Eu161 O179 2.392 . S
Eu161 O180 2.418 . S
Eu161 C190 2.828 . S
C162 O180 1.244 . S
C162 O183 1.265 . S
C163 C164 1.379 . S
C163 C167 1.373 . S
C163 C169 1.505 . S
C164 C163 1.379 . S
C164 C166 1.369 . S
C164 H192 0.930 . S
C165 C167 1.383 . S
C165 C168 1.382 . S
C165 H193 0.930 . S
C166 C164 1.369 . S
C166 C168 1.392 . S
C166 H194 0.930 . S
C167 C163 1.373 . S
C167 C165 1.383 . S
C167 H195 0.931 . S
C168 C165 1.382 . S
C168 C166 1.392 . S
C169 Eu160 2.828 1_556 S
C169 C163 1.505 . S
C169 O181 1.249 . S
C169 O182 1.244 . S
O170 Eu161 2.373 . S
O170 C172 1.258 . S
O171 Eu160 2.392 . S
O171 C172 1.242 . S
C172 O170 1.258 . S
C172 O171 1.242 . S
O173 Eu160 2.418 . S
O173 C177 1.244 . S
O174 Eu161 2.488 . S
O174 C190 1.249 . S
O175 Eu161 2.471 . S
O175 C190 1.244 . S
O176 Eu161 2.349 . S
O176 C177 1.265 . S
C177 O173 1.244 . S
C177 O176 1.265 . S
O178 Eu160 2.373 . S
O178 C191 1.258 . S
O179 Eu161 2.392 . S
O179 C191 1.242 . S
O180 Eu161 2.418 . S
O180 C162 1.244 . S
O181 Eu160 2.488 1_556 S
O181 C169 1.249 . S
O182 Eu160 2.471 1_556 S
O182 C169 1.244 . S
O183 Eu160 2.349 . S
O183 C162 1.265 . S
C184 C185 1.379 . S
C184 C188 1.373 . S
C184 C190 1.505 . S
C185 C184 1.379 . S
C185 C187 1.369 . S
C185 H196 0.930 . S
C186 C188 1.383 . S
C186 C189 1.382 . S
C186 H197 0.930 . S
C187 C185 1.369 . S
C187 C189 1.392 . S
C187 H198 0.930 . S
C188 C184 1.373 . S
C188 C186 1.383 . S
C188 H199 0.931 . S
C189 C186 1.382 . S
C189 C187 1.392 . S
C190 Eu161 2.828 . S
C190 O174 1.249 . S
C190 O175 1.244 . S
C190 C184 1.505 . S
C191 O178 1.258 . S
C191 O179 1.242 . S
H192 C164 0.930 . S
H193 C165 0.930 . S
H194 C166 0.930 . S
H195 C167 0.931 . S
H196 C185 0.930 . S
H197 C186 0.930 . S
H198 C187 0.930 . S
H199 C188 0.931 . S
Eu200 C209 2.828 . S
Eu200 O211 2.392 . S
Eu200 O213 2.418 . S
Eu200 O218 2.373 . S
Eu200 O221 2.488 . S
Eu200 O222 2.471 . S
Eu200 O223 2.349 . S
Eu201 O210 2.373 . S
Eu201 O214 2.488 1_556 S
Eu201 O215 2.471 1_556 S
Eu201 O216 2.349 . S
Eu201 O219 2.392 . S
Eu201 O220 2.418 . S
Eu201 C230 2.828 1_556 S
C202 O220 1.244 . S
C202 O223 1.265 . S
C203 C204 1.379 . S
C203 C207 1.373 . S
C203 C209 1.505 . S
C204 C203 1.379 . S
C204 C206 1.369 . S
C204 H232 0.930 . S
C205 C207 1.383 . S
C205 C208 1.382 . S
C205 H233 0.930 . S
C206 C204 1.369 . S
C206 C208 1.392 . S
C206 H234 0.930 . S
C207 C203 1.373 . S
C207 C205 1.383 . S
C207 H235 0.931 . S
C208 C205 1.382 . S
C208 C206 1.392 . S
C209 Eu200 2.828 . S
C209 C203 1.505 . S
C209 O221 1.249 . S
C209 O222 1.244 . S
O210 Eu201 2.373 . S
O210 C212 1.258 . S
O211 Eu200 2.392 . S
O211 C212 1.242 . S
C212 O210 1.258 . S
C212 O211 1.242 . S
O213 Eu200 2.418 . S
O213 C217 1.244 . S
O214 Eu201 2.488 1_554 S
O214 C230 1.249 . S
O215 Eu201 2.471 1_554 S
O215 C230 1.244 . S
O216 Eu201 2.349 . S
O216 C217 1.265 . S
C217 O213 1.244 . S
C217 O216 1.265 . S
O218 Eu200 2.373 . S
O218 C231 1.258 . S
O219 Eu201 2.392 . S
O219 C231 1.242 . S
O220 Eu201 2.418 . S
O220 C202 1.244 . S
O221 Eu200 2.488 . S
O221 C209 1.249 . S
O222 Eu200 2.471 . S
O222 C209 1.244 . S
O223 Eu200 2.349 . S
O223 C202 1.265 . S
C224 C225 1.379 . S
C224 C228 1.373 . S
C224 C230 1.505 . S
C225 C224 1.379 . S
C225 C227 1.369 . S
C225 H236 0.930 . S
C226 C228 1.383 . S
C226 C229 1.382 . S
C226 H237 0.930 . S
C227 C225 1.369 . S
C227 C229 1.392 . S
C227 H238 0.930 . S
C228 C224 1.373 . S
C228 C226 1.383 . S
C228 H239 0.931 . S
C229 C226 1.382 . S
C229 C227 1.392 . S
C230 Eu201 2.828 1_554 S
C230 O214 1.249 . S
C230 O215 1.244 . S
C230 C224 1.505 . S
C231 O218 1.258 . S
C231 O219 1.242 . S
H232 C204 0.930 . S
H233 C205 0.930 . S
H234 C206 0.930 . S
H235 C207 0.931 . S
H236 C225 0.930 . S
H237 C226 0.930 . S
H238 C227 0.930 . S
H239 C228 0.931 . S
Eu240 C249 2.828 1_554 S
Eu240 O251 2.392 . S
Eu240 O253 2.418 . S
Eu240 O258 2.373 . S
Eu240 O261 2.488 1_554 S
Eu240 O262 2.471 1_554 S
Eu240 O263 2.349 . S
Eu241 O250 2.373 . S
Eu241 O254 2.488 . S
Eu241 O255 2.471 . S
Eu241 O256 2.349 . S
Eu241 O259 2.392 . S
Eu241 O260 2.418 . S
Eu241 C270 2.828 . S
C242 O260 1.244 . S
C242 O263 1.265 . S
C243 C244 1.379 . S
C243 C247 1.373 . S
C243 C249 1.505 . S
C244 C243 1.379 . S
C244 C246 1.369 . S
C244 H272 0.930 . S
C245 C247 1.383 . S
C245 C248 1.382 . S
C245 H273 0.930 . S
C246 C244 1.369 . S
C246 C248 1.392 . S
C246 H274 0.930 . S
C247 C243 1.373 . S
C247 C245 1.383 . S
C247 H275 0.931 . S
C248 C245 1.382 . S
C248 C246 1.392 . S
C249 Eu240 2.828 1_556 S
C249 C243 1.505 . S
C249 O261 1.249 . S
C249 O262 1.244 . S
O250 Eu241 2.373 . S
O250 C252 1.258 . S
O251 Eu240 2.392 . S
O251 C252 1.242 . S
C252 O250 1.258 . S
C252 O251 1.242 . S
O253 Eu240 2.418 . S
O253 C257 1.244 . S
O254 Eu241 2.488 . S
O254 C270 1.249 . S
O255 Eu241 2.471 . S
O255 C270 1.244 . S
O256 Eu241 2.349 . S
O256 C257 1.265 . S
C257 O253 1.244 . S
C257 O256 1.265 . S
O258 Eu240 2.373 . S
O258 C271 1.258 . S
O259 Eu241 2.392 . S
O259 C271 1.242 . S
O260 Eu241 2.418 . S
O260 C242 1.244 . S
O261 Eu240 2.488 1_556 S
O261 C249 1.249 . S
O262 Eu240 2.471 1_556 S
O262 C249 1.244 . S
O263 Eu240 2.349 . S
O263 C242 1.265 . S
C264 C265 1.379 . S
C264 C268 1.373 . S
C264 C270 1.505 . S
C265 C264 1.379 . S
C265 C267 1.369 . S
C265 H276 0.930 . S
C266 C268 1.383 . S
C266 C269 1.382 . S
C266 H277 0.930 . S
C267 C265 1.369 . S
C267 C269 1.392 . S
C267 H278 0.930 . S
C268 C264 1.373 . S
C268 C266 1.383 . S
C268 H279 0.931 . S
C269 C266 1.382 . S
C269 C267 1.392 . S
C270 Eu241 2.828 . S
C270 O254 1.249 . S
C270 O255 1.244 . S
C270 C264 1.505 . S
C271 O258 1.258 . S
C271 O259 1.242 . S
H272 C244 0.930 . S
H273 C245 0.930 . S
H274 C246 0.930 . S
H275 C247 0.931 . S
H276 C265 0.930 . S
H277 C266 0.930 . S
H278 C267 0.930 . S
H279 C268 0.931 . S
Eu280 C289 2.828 . S
Eu280 O291 2.392 . S
Eu280 O293 2.418 . S
Eu280 O298 2.373 . S
Eu280 O301 2.488 . S
Eu280 O302 2.471 . S
Eu280 O303 2.349 . S
Eu281 O290 2.373 . S
Eu281 O294 2.488 1_556 S
Eu281 O295 2.471 1_556 S
Eu281 O296 2.349 . S
Eu281 O299 2.392 . S
Eu281 O300 2.418 . S
Eu281 C310 2.828 1_556 S
C282 O300 1.244 . S
C282 O303 1.265 . S
C283 C284 1.379 . S
C283 C287 1.373 . S
C283 C289 1.505 . S
C284 C283 1.379 . S
C284 C286 1.369 . S
C284 H312 0.930 . S
C285 C287 1.383 . S
C285 C288 1.382 . S
C285 H313 0.930 . S
C286 C284 1.369 . S
C286 C288 1.392 . S
C286 H314 0.930 . S
C287 C283 1.373 . S
C287 C285 1.383 . S
C287 H315 0.931 . S
C288 C285 1.382 . S
C288 C286 1.392 . S
C289 Eu280 2.828 . S
C289 C283 1.505 . S
C289 O301 1.249 . S
C289 O302 1.244 . S
O290 Eu281 2.373 . S
O290 C292 1.258 . S
O291 Eu280 2.392 . S
O291 C292 1.242 . S
C292 O290 1.258 . S
C292 O291 1.242 . S
O293 Eu280 2.418 . S
O293 C297 1.244 . S
O294 Eu281 2.488 1_554 S
O294 C310 1.249 . S
O295 Eu281 2.471 1_554 S
O295 C310 1.244 . S
O296 Eu281 2.349 . S
O296 C297 1.265 . S
C297 O293 1.244 . S
C297 O296 1.265 . S
O298 Eu280 2.373 . S
O298 C311 1.258 . S
O299 Eu281 2.392 . S
O299 C311 1.242 . S
O300 Eu281 2.418 . S
O300 C282 1.244 . S
O301 Eu280 2.488 . S
O301 C289 1.249 . S
O302 Eu280 2.471 . S
O302 C289 1.244 . S
O303 Eu280 2.349 . S
O303 C282 1.265 . S
C304 C305 1.379 . S
C304 C308 1.373 . S
C304 C310 1.505 . S
C305 C304 1.379 . S
C305 C307 1.369 . S
C305 H316 0.930 . S
C306 C308 1.383 . S
C306 C309 1.382 . S
C306 H317 0.930 . S
C307 C305 1.369 . S
C307 C309 1.392 . S
C307 H318 0.930 . S
C308 C304 1.373 . S
C308 C306 1.383 . S
C308 H319 0.931 . S
C309 C306 1.382 . S
C309 C307 1.392 . S
C310 Eu281 2.828 1_554 S
C310 O294 1.249 . S
C310 O295 1.244 . S
C310 C304 1.505 . S
C311 O298 1.258 . S
C311 O299 1.242 . S
H312 C284 0.930 . S
H313 C285 0.930 . S
H314 C286 0.930 . S
H315 C287 0.931 . S
H316 C305 0.930 . S
H317 C306 0.930 . S
H318 C307 0.930 . S
H319 C308 0.931 . S
Eu320 C329 2.828 . S
Eu320 O331 2.392 . S
Eu320 O333 2.418 . S
Eu320 O338 2.373 . S
Eu320 O341 2.488 . S
Eu320 O342 2.471 . S
Eu320 O343 2.349 . S
Eu321 O330 2.373 . S
Eu321 O334 2.488 . S
Eu321 O335 2.471 . S
Eu321 O336 2.349 . S
Eu321 O339 2.392 . S
Eu321 O340 2.418 . S
Eu321 C350 2.828 . S
C322 O340 1.244 . S
C322 O343 1.265 . S
C323 C324 1.379 . S
C323 C327 1.373 . S
C323 C329 1.505 . S
C324 C323 1.379 . S
C324 C326 1.369 . S
C324 H352 0.930 . S
C325 C327 1.383 . S
C325 C328 1.382 1_556 S
C325 H353 0.930 1_556 S
C326 C324 1.369 . S
C326 C328 1.392 1_556 S
C326 H354 0.923 1_556 S
C327 C323 1.373 . S
C327 C325 1.383 . S
C327 H355 0.931 . S
C328 C325 1.382 1_554 S
C328 C326 1.392 1_554 S
C329 Eu320 2.828 . S
C329 C323 1.505 . S
C329 O341 1.249 . S
C329 O342 1.244 . S
O330 Eu321 2.373 . S
O330 C332 1.258 . S
O331 Eu320 2.392 . S
O331 C332 1.242 . S
C332 O330 1.258 . S
C332 O331 1.242 . S
O333 Eu320 2.418 . S
O333 C337 1.244 . S
O334 Eu321 2.488 . S
O334 C350 1.249 . S
O335 Eu321 2.471 . S
O335 C350 1.244 . S
O336 Eu321 2.349 . S
O336 C337 1.265 . S
C337 O333 1.244 . S
C337 O336 1.265 . S
O338 Eu320 2.373 . S
O338 C351 1.258 . S
O339 Eu321 2.392 . S
O339 C351 1.242 . S
O340 Eu321 2.418 . S
O340 C322 1.244 . S
O341 Eu320 2.488 . S
O341 C329 1.249 . S
O342 Eu320 2.471 . S
O342 C329 1.244 . S
O343 Eu320 2.349 . S
O343 C322 1.265 . S
C344 C345 1.379 . S
C344 C348 1.373 . S
C344 C350 1.505 . S
C345 C344 1.379 . S
C345 C347 1.369 . S
C345 H356 0.930 . S
C346 C348 1.383 . S
C346 C349 1.382 . S
C346 H357 0.930 . S
C347 C345 1.369 . S
C347 C349 1.392 . S
C347 H358 0.930 . S
C348 C344 1.373 . S
C348 C346 1.383 . S
C348 H359 0.931 . S
C349 C346 1.382 . S
C349 C347 1.392 . S
C350 Eu321 2.828 . S
C350 O334 1.249 . S
C350 O335 1.244 . S
C350 C344 1.505 . S
C351 O338 1.258 . S
C351 O339 1.242 . S
H352 C324 0.930 . S
H353 C325 0.930 1_554 S
H354 C326 0.923 1_554 S
H355 C327 0.931 . S
H356 C345 0.930 . S
H357 C346 0.930 . S
H358 C347 0.930 . S
H359 C348 0.931 . S
Eu360 C369 2.828 . S
Eu360 O371 2.392 . S
Eu360 O373 2.418 . S
Eu360 O378 2.373 . S
Eu360 O381 2.488 . S
Eu360 O382 2.471 . S
Eu360 O383 2.349 . S
Eu361 O370 2.373 . S
Eu361 O374 2.488 . S
Eu361 O375 2.471 . S
Eu361 O376 2.349 . S
Eu361 O379 2.392 . S
Eu361 O380 2.418 . S
Eu361 C390 2.828 . S
C362 O380 1.244 . S
C362 O383 1.265 . S
C363 C364 1.379 . S
C363 C367 1.373 . S
C363 C369 1.505 . S
C364 C363 1.379 . S
C364 C366 1.369 . S
C364 H392 0.930 . S
C365 C367 1.383 . S
C365 C368 1.382 . S
C365 H393 0.930 . S
C366 C364 1.369 . S
C366 C368 1.392 . S
C366 H394 0.930 . S
C367 C363 1.373 . S
C367 C365 1.383 . S
C367 H395 0.931 . S
C368 C365 1.382 . S
C368 C366 1.392 . S
C369 Eu360 2.828 . S
C369 C363 1.505 . S
C369 O381 1.249 . S
C369 O382 1.244 . S
O370 Eu361 2.373 . S
O370 C372 1.258 . S
O371 Eu360 2.392 . S
O371 C372 1.242 . S
C372 O370 1.258 . S
C372 O371 1.242 . S
O373 Eu360 2.418 . S
O373 C377 1.244 . S
O374 Eu361 2.488 . S
O374 C390 1.249 . S
O375 Eu361 2.471 . S
O375 C390 1.244 . S
O376 Eu361 2.349 . S
O376 C377 1.265 . S
C377 O373 1.244 . S
C377 O376 1.265 . S
O378 Eu360 2.373 . S
O378 C391 1.258 . S
O379 Eu361 2.392 . S
O379 C391 1.242 . S
O380 Eu361 2.418 . S
O380 C362 1.244 . S
O381 Eu360 2.488 . S
O381 C369 1.249 . S
O382 Eu360 2.471 . S
O382 C369 1.244 . S
O383 Eu360 2.349 . S
O383 C362 1.265 . S
C384 C385 1.379 . S
C384 C388 1.373 . S
C384 C390 1.505 . S
C385 C384 1.379 . S
C385 C387 1.369 . S
C385 H396 0.930 . S
C386 C388 1.383 . S
C386 C389 1.382 1_554 S
C386 H397 0.930 1_554 S
C387 C385 1.369 . S
C387 C389 1.392 1_554 S
C387 H398 0.923 1_554 S
C388 C384 1.373 . S
C388 C386 1.383 . S
C388 H399 0.931 . S
C389 C386 1.382 1_556 S
C389 C387 1.392 1_556 S
C390 Eu361 2.828 . S
C390 O374 1.249 . S
C390 O375 1.244 . S
C390 C384 1.505 . S
C391 O378 1.258 . S
C391 O379 1.242 . S
H392 C364 0.930 . S
H393 C365 0.930 . S
H394 C366 0.930 . S
H395 C367 0.931 . S
H396 C385 0.930 . S
H397 C386 0.930 1_556 S
H398 C387 0.923 1_556 S
H399 C388 0.931 . S
Eu400 C409 2.828 . S
Eu400 O411 2.392 . S
Eu400 O413 2.418 . S
Eu400 O418 2.373 . S
Eu400 O421 2.488 . S
Eu400 O422 2.471 . S
Eu400 O423 2.349 . S
Eu401 O410 2.373 . S
Eu401 O414 2.488 . S
Eu401 O415 2.471 . S
Eu401 O416 2.349 . S
Eu401 O419 2.392 . S
Eu401 O420 2.418 . S
Eu401 C430 2.828 . S
C402 O420 1.244 . S
C402 O423 1.265 . S
C403 C404 1.379 . S
C403 C407 1.373 . S
C403 C409 1.505 . S
C404 C403 1.379 . S
C404 C406 1.369 . S
C404 H432 0.930 . S
C405 C407 1.383 . S
C405 C408 1.382 1_556 S
C405 H433 0.930 1_556 S
C406 C404 1.369 . S
C406 C408 1.392 1_556 S
C406 H434 0.923 1_556 S
C407 C403 1.373 . S
C407 C405 1.383 . S
C407 H435 0.931 . S
C408 C405 1.382 1_554 S
C408 C406 1.392 1_554 S
C409 Eu400 2.828 . S
C409 C403 1.505 . S
C409 O421 1.249 . S
C409 O422 1.244 . S
O410 Eu401 2.373 . S
O410 C412 1.258 . S
O411 Eu400 2.392 . S
O411 C412 1.242 . S
C412 O410 1.258 . S
C412 O411 1.242 . S
O413 Eu400 2.418 . S
O413 C417 1.244 . S
O414 Eu401 2.488 . S
O414 C430 1.249 . S
O415 Eu401 2.471 . S
O415 C430 1.244 . S
O416 Eu401 2.349 . S
O416 C417 1.265 . S
C417 O413 1.244 . S
C417 O416 1.265 . S
O418 Eu400 2.373 . S
O418 C431 1.258 . S
O419 Eu401 2.392 . S
O419 C431 1.242 . S
O420 Eu401 2.418 . S
O420 C402 1.244 . S
O421 Eu400 2.488 . S
O421 C409 1.249 . S
O422 Eu400 2.471 . S
O422 C409 1.244 . S
O423 Eu400 2.349 . S
O423 C402 1.265 . S
C424 C425 1.379 . S
C424 C428 1.373 . S
C424 C430 1.505 . S
C425 C424 1.379 . S
C425 C427 1.369 . S
C425 H436 0.930 . S
C426 C428 1.383 . S
C426 C429 1.382 . S
C426 H437 0.930 . S
C427 C425 1.369 . S
C427 C429 1.392 . S
C427 H438 0.930 . S
C428 C424 1.373 . S
C428 C426 1.383 . S
C428 H439 0.931 . S
C429 C426 1.382 . S
C429 C427 1.392 . S
C430 Eu401 2.828 . S
C430 O414 1.249 . S
C430 O415 1.244 . S
C430 C424 1.505 . S
C431 O418 1.258 . S
C431 O419 1.242 . S
H432 C404 0.930 . S
H433 C405 0.930 1_554 S
H434 C406 0.923 1_554 S
H435 C407 0.931 . S
H436 C425 0.930 . S
H437 C426 0.930 . S
H438 C427 0.930 . S
H439 C428 0.931 . S
Eu440 C449 2.828 . S
Eu440 O451 2.392 . S
Eu440 O453 2.418 . S
Eu440 O458 2.373 . S
Eu440 O461 2.488 . S
Eu440 O462 2.471 . S
Eu440 O463 2.349 . S
Eu441 O450 2.373 . S
Eu441 O454 2.488 . S
Eu441 O455 2.471 . S
Eu441 O456 2.349 . S
Eu441 O459 2.392 . S
Eu441 O460 2.418 . S
Eu441 C470 2.828 . S
C442 O460 1.244 . S
C442 O463 1.265 . S
C443 C444 1.379 . S
C443 C447 1.373 . S
C443 C449 1.505 . S
C444 C443 1.379 . S
C444 C446 1.369 . S
C444 H472 0.930 . S
C445 C447 1.383 . S
C445 C448 1.382 . S
C445 H473 0.930 . S
C446 C444 1.369 . S
C446 C448 1.392 . S
C446 H474 0.930 . S
C447 C443 1.373 . S
C447 C445 1.383 . S
C447 H475 0.931 . S
C448 C445 1.382 . S
C448 C446 1.392 . S
C449 Eu440 2.828 . S
C449 C443 1.505 . S
C449 O461 1.249 . S
C449 O462 1.244 . S
O450 Eu441 2.373 . S
O450 C452 1.258 . S
O451 Eu440 2.392 . S
O451 C452 1.242 . S
C452 O450 1.258 . S
C452 O451 1.242 . S
O453 Eu440 2.418 . S
O453 C457 1.244 . S
O454 Eu441 2.488 . S
O454 C470 1.249 . S
O455 Eu441 2.471 . S
O455 C470 1.244 . S
O456 Eu441 2.349 . S
O456 C457 1.265 . S
C457 O453 1.244 . S
C457 O456 1.265 . S
O458 Eu440 2.373 . S
O458 C471 1.258 . S
O459 Eu441 2.392 . S
O459 C471 1.242 . S
O460 Eu441 2.418 . S
O460 C442 1.244 . S
O461 Eu440 2.488 . S
O461 C449 1.249 . S
O462 Eu440 2.471 . S
O462 C449 1.244 . S
O463 Eu440 2.349 . S
O463 C442 1.265 . S
C464 C465 1.379 . S
C464 C468 1.373 . S
C464 C470 1.505 . S
C465 C464 1.379 . S
C465 C467 1.369 . S
C465 H476 0.930 . S
C466 C468 1.383 . S
C466 C469 1.382 1_554 S
C466 H477 0.930 1_554 S
C467 C465 1.369 . S
C467 C469 1.392 1_554 S
C467 H478 0.923 1_554 S
C468 C464 1.373 . S
C468 C466 1.383 . S
C468 H479 0.931 . S
C469 C466 1.382 1_556 S
C469 C467 1.392 1_556 S
C470 Eu441 2.828 . S
C470 O454 1.249 . S
C470 O455 1.244 . S
C470 C464 1.505 . S
C471 O458 1.258 . S
C471 O459 1.242 . S
H472 C444 0.930 . S
H473 C445 0.930 . S
H474 C446 0.930 . S
H475 C447 0.931 . S
H476 C465 0.930 . S
H477 C466 0.930 1_556 S
H478 C467 0.923 1_556 S
H479 C468 0.931 . S
Eu480 C489 2.828 . S
Eu480 O491 2.392 . S
Eu480 O493 2.418 . S
Eu480 O498 2.373 . S
Eu480 O501 2.488 . S
Eu480 O502 2.471 . S
Eu480 O503 2.349 . S
Eu481 O490 2.373 . S
Eu481 O494 2.488 . S
Eu481 O495 2.471 . S
Eu481 O496 2.349 . S
Eu481 O499 2.392 . S
Eu481 O500 2.418 . S
Eu481 C510 2.828 . S
C482 O500 1.244 . S
C482 O503 1.265 . S
C483 C484 1.379 . S
C483 C487 1.373 . S
C483 C489 1.505 . S
C484 C483 1.379 . S
C484 C486 1.369 . S
C484 H512 0.930 . S
C485 C487 1.383 . S
C485 C488 1.382 . S
C485 H513 0.930 . S
C486 C484 1.369 . S
C486 C488 1.392 . S
C486 H514 0.930 . S
C487 C483 1.373 . S
C487 C485 1.383 . S
C487 H515 0.931 . S
C488 C485 1.382 . S
C488 C486 1.392 . S
C489 Eu480 2.828 . S
C489 C483 1.505 . S
C489 O501 1.249 . S
C489 O502 1.244 . S
O490 Eu481 2.373 . S
O490 C492 1.258 . S
O491 Eu480 2.392 . S
O491 C492 1.242 . S
C492 O490 1.258 . S
C492 O491 1.242 . S
O493 Eu480 2.418 . S
O493 C497 1.244 . S
O494 Eu481 2.488 . S
O494 C510 1.249 . S
O495 Eu481 2.471 . S
O495 C510 1.244 . S
O496 Eu481 2.349 . S
O496 C497 1.265 . S
C497 O493 1.244 . S
C497 O496 1.265 . S
O498 Eu480 2.373 . S
O498 C511 1.258 . S
O499 Eu481 2.392 . S
O499 C511 1.242 . S
O500 Eu481 2.418 . S
O500 C482 1.244 . S
O501 Eu480 2.488 . S
O501 C489 1.249 . S
O502 Eu480 2.471 . S
O502 C489 1.244 . S
O503 Eu480 2.349 . S
O503 C482 1.265 . S
C504 C505 1.379 . S
C504 C508 1.373 . S
C504 C510 1.505 . S
C505 C504 1.379 . S
C505 C507 1.369 . S
C505 H516 0.930 . S
C506 C508 1.383 . S
C506 C509 1.382 1_556 S
C506 H517 0.930 1_556 S
C507 C505 1.369 . S
C507 C509 1.392 1_556 S
C507 H518 0.930 . S
C508 C504 1.373 . S
C508 C506 1.383 . S
C508 H519 0.931 . S
C509 C506 1.382 1_554 S
C509 C507 1.392 1_554 S
C510 Eu481 2.828 . S
C510 O494 1.249 . S
C510 O495 1.244 . S
C510 C504 1.505 . S
C511 O498 1.258 . S
C511 O499 1.242 . S
H512 C484 0.930 . S
H513 C485 0.930 . S
H514 C486 0.930 . S
H515 C487 0.931 . S
H516 C505 0.930 . S
H517 C506 0.930 1_554 S
H518 C507 0.930 . S
H519 C508 0.931 . S
Eu520 C529 2.828 . S
Eu520 O531 2.392 . S
Eu520 O533 2.418 . S
Eu520 O538 2.373 . S
Eu520 O541 2.488 . S
Eu520 O542 2.471 . S
Eu520 O543 2.349 . S
Eu521 O530 2.373 . S
Eu521 O534 2.488 . S
Eu521 O535 2.471 . S
Eu521 O536 2.349 . S
Eu521 O539 2.392 . S
Eu521 O540 2.418 . S
Eu521 C550 2.828 . S
C522 O540 1.244 . S
C522 O543 1.265 . S
C523 C524 1.379 . S
C523 C527 1.373 . S
C523 C529 1.505 . S
C524 C523 1.379 . S
C524 C526 1.369 . S
C524 H552 0.930 . S
C525 C527 1.383 . S
C525 C528 1.382 1_554 S
C525 H553 0.930 1_554 S
C526 C524 1.369 . S
C526 C528 1.392 1_554 S
C526 H554 0.930 . S
C527 C523 1.373 . S
C527 C525 1.383 . S
C527 H555 0.931 . S
C528 C525 1.382 1_556 S
C528 C526 1.392 1_556 S
C529 Eu520 2.828 . S
C529 C523 1.505 . S
C529 O541 1.249 . S
C529 O542 1.244 . S
O530 Eu521 2.373 . S
O530 C532 1.258 . S
O531 Eu520 2.392 . S
O531 C532 1.242 . S
C532 O530 1.258 . S
C532 O531 1.242 . S
O533 Eu520 2.418 . S
O533 C537 1.244 . S
O534 Eu521 2.488 . S
O534 C550 1.249 . S
O535 Eu521 2.471 . S
O535 C550 1.244 . S
O536 Eu521 2.349 . S
O536 C537 1.265 . S
C537 O533 1.244 . S
C537 O536 1.265 . S
O538 Eu520 2.373 . S
O538 C551 1.258 . S
O539 Eu521 2.392 . S
O539 C551 1.242 . S
O540 Eu521 2.418 . S
O540 C522 1.244 . S
O541 Eu520 2.488 . S
O541 C529 1.249 . S
O542 Eu520 2.471 . S
O542 C529 1.244 . S
O543 Eu520 2.349 . S
O543 C522 1.265 . S
C544 C545 1.379 . S
C544 C548 1.373 . S
C544 C550 1.505 . S
C545 C544 1.379 . S
C545 C547 1.369 . S
C545 H556 0.930 . S
C546 C548 1.383 . S
C546 C549 1.382 . S
C546 H557 0.930 . S
C547 C545 1.369 . S
C547 C549 1.392 . S
C547 H558 0.930 . S
C548 C544 1.373 . S
C548 C546 1.383 . S
C548 H559 0.931 . S
C549 C546 1.382 . S
C549 C547 1.392 . S
C550 Eu521 2.828 . S
C550 O534 1.249 . S
C550 O535 1.244 . S
C550 C544 1.505 . S
C551 O538 1.258 . S
C551 O539 1.242 . S
H552 C524 0.930 . S
H553 C525 0.930 1_556 S
H554 C526 0.930 . S
H555 C527 0.931 . S
H556 C545 0.930 . S
H557 C546 0.930 . S
H558 C547 0.930 . S
H559 C548 0.931 . S
Eu560 C569 2.828 . S
Eu560 O571 2.392 . S
Eu560 O573 2.418 . S
Eu560 O578 2.373 . S
Eu560 O581 2.488 . S
Eu560 O582 2.471 . S
Eu560 O583 2.349 . S
Eu561 O570 2.373 . S
Eu561 O574 2.488 . S
Eu561 O575 2.471 . S
Eu561 O576 2.349 . S
Eu561 O579 2.392 . S
Eu561 O580 2.418 . S
Eu561 C590 2.828 . S
C562 O580 1.244 . S
C562 O583 1.265 . S
C563 C564 1.379 . S
C563 C567 1.373 . S
C563 C569 1.505 . S
C564 C563 1.379 . S
C564 C566 1.369 . S
C564 H592 0.930 . S
C565 C567 1.383 . S
C565 C568 1.382 . S
C565 H593 0.930 . S
C566 C564 1.369 . S
C566 C568 1.392 . S
C566 H594 0.930 . S
C567 C563 1.373 . S
C567 C565 1.383 . S
C567 H595 0.931 . S
C568 C565 1.382 . S
C568 C566 1.392 . S
C569 Eu560 2.828 . S
C569 C563 1.505 . S
C569 O581 1.249 . S
C569 O582 1.244 . S
O570 Eu561 2.373 . S
O570 C572 1.258 . S
O571 Eu560 2.392 . S
O571 C572 1.242 . S
C572 O570 1.258 . S
C572 O571 1.242 . S
O573 Eu560 2.418 . S
O573 C577 1.244 . S
O574 Eu561 2.488 . S
O574 C590 1.249 . S
O575 Eu561 2.471 . S
O575 C590 1.244 . S
O576 Eu561 2.349 . S
O576 C577 1.265 . S
C577 O573 1.244 . S
C577 O576 1.265 . S
O578 Eu560 2.373 . S
O578 C591 1.258 . S
O579 Eu561 2.392 . S
O579 C591 1.242 . S
O580 Eu561 2.418 . S
O580 C562 1.244 . S
O581 Eu560 2.488 . S
O581 C569 1.249 . S
O582 Eu560 2.471 . S
O582 C569 1.244 . S
O583 Eu560 2.349 . S
O583 C562 1.265 . S
C584 C585 1.379 . S
C584 C588 1.373 . S
C584 C590 1.505 . S
C585 C584 1.379 . S
C585 C587 1.369 . S
C585 H596 0.930 . S
C586 C588 1.383 . S
C586 C589 1.382 1_556 S
C586 H597 0.930 1_556 S
C587 C585 1.369 . S
C587 C589 1.392 1_556 S
C587 H598 0.930 . S
C588 C584 1.373 . S
C588 C586 1.383 . S
C588 H599 0.931 . S
C589 C586 1.382 1_554 S
C589 C587 1.392 1_554 S
C590 Eu561 2.828 . S
C590 O574 1.249 . S
C590 O575 1.244 . S
C590 C584 1.505 . S
C591 O578 1.258 . S
C591 O579 1.242 . S
H592 C564 0.930 . S
H593 C565 0.930 . S
H594 C566 0.930 . S
H595 C567 0.931 . S
H596 C585 0.930 . S
H597 C586 0.930 1_554 S
H598 C587 0.930 . S
H599 C588 0.931 . S
Eu600 C609 2.828 . S
Eu600 O611 2.392 . S
Eu600 O613 2.418 . S
Eu600 O618 2.373 . S
Eu600 O621 2.488 . S
Eu600 O622 2.471 . S
Eu600 O623 2.349 . S
Eu601 O610 2.373 . S
Eu601 O614 2.488 . S
Eu601 O615 2.471 . S
Eu601 O616 2.349 . S
Eu601 O619 2.392 . S
Eu601 O620 2.418 . S
Eu601 C630 2.828 . S
C602 O620 1.244 . S
C602 O623 1.265 . S
C603 C604 1.379 . S
C603 C607 1.373 . S
C603 C609 1.505 . S
C604 C603 1.379 . S
C604 C606 1.369 . S
C604 H632 0.930 . S
C605 C607 1.383 . S
C605 C608 1.382 1_554 S
C605 H633 0.930 1_554 S
C606 C604 1.369 . S
C606 C608 1.392 1_554 S
C606 H634 0.930 . S
C607 C603 1.373 . S
C607 C605 1.383 . S
C607 H635 0.931 . S
C608 C605 1.382 1_556 S
C608 C606 1.392 1_556 S
C609 Eu600 2.828 . S
C609 C603 1.505 . S
C609 O621 1.249 . S
C609 O622 1.244 . S
O610 Eu601 2.373 . S
O610 C612 1.258 . S
O611 Eu600 2.392 . S
O611 C612 1.242 . S
C612 O610 1.258 . S
C612 O611 1.242 . S
O613 Eu600 2.418 . S
O613 C617 1.244 . S
O614 Eu601 2.488 . S
O614 C630 1.249 . S
O615 Eu601 2.471 . S
O615 C630 1.244 . S
O616 Eu601 2.349 . S
O616 C617 1.265 . S
C617 O613 1.244 . S
C617 O616 1.265 . S
O618 Eu600 2.373 . S
O618 C631 1.258 . S
O619 Eu601 2.392 . S
O619 C631 1.242 . S
O620 Eu601 2.418 . S
O620 C602 1.244 . S
O621 Eu600 2.488 . S
O621 C609 1.249 . S
O622 Eu600 2.471 . S
O622 C609 1.244 . S
O623 Eu600 2.349 . S
O623 C602 1.265 . S
C624 C625 1.379 . S
C624 C628 1.373 . S
C624 C630 1.505 . S
C625 C624 1.379 . S
C625 C627 1.369 . S
C625 H636 0.930 . S
C626 C628 1.383 . S
C626 C629 1.382 . S
C626 H637 0.930 . S
C627 C625 1.369 . S
C627 C629 1.392 . S
C627 H638 0.930 . S
C628 C624 1.373 . S
C628 C626 1.383 . S
C628 H639 0.931 . S
C629 C626 1.382 . S
C629 C627 1.392 . S
C630 Eu601 2.828 . S
C630 O614 1.249 . S
C630 O615 1.244 . S
C630 C624 1.505 . S
C631 O618 1.258 . S
C631 O619 1.242 . S
H632 C604 0.930 . S
H633 C605 0.930 1_556 S
H634 C606 0.930 . S
H635 C607 0.931 . S
H636 C625 0.930 . S
H637 C626 0.930 . S
H638 C627 0.930 . S
H639 C628 0.931 . S
C640 C641 1.363 . S
C640 C646 1.379 . S
C640 N648 1.356 . S
C641 C640 1.363 . S
C641 C647 1.363 . S
C642 C643 1.363 . S
C642 C647 1.379 . S
C642 N649 1.356 . S
C643 C642 1.363 . S
C643 C646 1.363 . S
N644 C646 1.356 . S
N644 H656 0.984 . S
N644 H657 0.985 1_565 S
N645 C647 1.356 . S
N645 H650 0.984 . S
N645 H651 0.985 . S
C646 C640 1.379 . S
C646 C643 1.363 . S
C646 N644 1.356 . S
C647 C641 1.363 . S
C647 C642 1.379 . S
C647 N645 1.356 . S
N648 C640 1.356 . S
N648 H654 0.984 . S
N648 H655 0.984 . S
N649 C642 1.356 . S
N649 H652 0.984 1_565 S
N649 H653 0.985 . S
H650 N645 0.984 . S
H651 N645 0.985 . S
H652 N649 0.984 1_545 S
H653 N649 0.985 . S
H654 N648 0.984 . S
H655 N648 0.984 . S
H656 N644 0.984 . S
H657 N644 0.985 1_545 S
C658 C659 1.363 . S
C658 C664 1.379 . S
C658 N666 1.356 . S
C659 C658 1.363 . S
C659 C665 1.363 . S
C660 C661 1.363 . S
C660 C665 1.379 . S
C660 N667 1.356 . S
C661 C660 1.363 . S
C661 C664 1.363 . S
N662 C664 1.356 1_455 S
N662 H674 0.984 . S
N662 H675 0.985 . S
N663 C665 1.356 . S
N663 H668 0.984 . S
N663 H669 0.985 . S
C664 C658 1.379 . S
C664 C661 1.363 . S
C664 N662 1.356 1_655 S
C665 C659 1.363 . S
C665 C660 1.379 . S
C665 N663 1.356 . S
N666 C658 1.356 . S
N666 H672 0.984 . S
N666 H673 0.984 . S
N667 C660 1.356 . S
N667 H670 0.980 1_655 S
N667 H671 0.985 . S
H668 N663 0.984 . S
H669 N663 0.985 . S
H670 N667 0.980 1_455 S
H671 N667 0.985 . S
H672 N666 0.984 . S
H673 N666 0.984 . S
H674 N662 0.984 . S
H675 N662 0.985 . S
C676 C677 1.363 . S
C676 C682 1.379 . S
C676 N684 1.356 . S
C677 C676 1.363 . S
C677 C683 1.363 . S
C678 C679 1.363 . S
C678 C683 1.379 . S
C678 N685 1.356 . S
C679 C678 1.363 . S
C679 C682 1.363 . S
N680 C682 1.356 . S
N680 H692 0.984 . S
N680 H693 0.985 . S
N681 C683 1.356 1_565 S
N681 H686 0.984 . S
N681 H687 0.985 . S
C682 C676 1.379 . S
C682 C679 1.363 . S
C682 N680 1.356 . S
C683 C677 1.363 . S
C683 C678 1.379 . S
C683 N681 1.356 1_545 S
N684 C676 1.356 . S
N684 H690 0.984 . S
N684 H691 0.984 1_545 S
N685 C678 1.356 . S
N685 H688 0.984 . S
N685 H689 0.985 . S
H686 N681 0.984 . S
H687 N681 0.985 . S
H688 N685 0.984 . S
H689 N685 0.985 . S
H690 N684 0.984 . S
H691 N684 0.984 1_565 S
H692 N680 0.984 . S
H693 N680 0.985 . S
C694 C695 1.363 . S
C694 C700 1.379 . S
C694 N702 1.356 1_455 S
C695 C694 1.363 . S
C695 C701 1.363 . S
C696 C697 1.363 . S
C696 C701 1.379 . S
C696 N703 1.356 . S
C697 C696 1.363 . S
C697 C700 1.363 . S
N698 C700 1.356 . S
N698 H710 0.984 . S
N698 H711 0.985 . S
N699 C701 1.356 . S
N699 H704 0.984 . S
N699 H705 0.985 . S
C700 C694 1.379 . S
C700 C697 1.363 . S
C700 N698 1.356 . S
C701 C695 1.363 . S
C701 C696 1.379 . S
C701 N699 1.356 . S
N702 C694 1.356 1_655 S
N702 H708 0.984 . S
N702 H709 0.984 . S
N703 C696 1.356 . S
N703 H706 0.984 . S
N703 H707 0.985 . S
H704 N699 0.984 . S
H705 N699 0.985 . S
H706 N703 0.984 . S
H707 N703 0.985 . S
H708 N702 0.984 . S
H709 N702 0.984 . S
H710 N698 0.984 . S
H711 N698 0.985 . S
C712 C713 1.363 . S
C712 C718 1.379 1_554 S
C712 N720 1.356 . S
C713 C712 1.363 . S
C713 C719 1.363 . S
C714 C715 1.363 . S
C714 C719 1.379 . S
C714 N721 1.356 . S
C715 C714 1.363 . S
C715 C718 1.363 1_554 S
N716 C718 1.356 . S
N716 H728 0.984 . S
N716 H729 0.985 . S
N717 C719 1.356 . S
N717 H722 0.984 . S
N717 H723 0.985 . S
C718 C712 1.379 1_556 S
C718 C715 1.363 1_556 S
C718 N716 1.356 . S
C719 C713 1.363 . S
C719 C714 1.379 . S
C719 N717 1.356 . S
N720 C712 1.356 . S
N720 H726 0.984 1_554 S
N720 H727 0.984 . S
N721 C714 1.356 . S
N721 H724 0.984 . S
N721 H725 0.985 . S
H722 N717 0.984 . S
H723 N717 0.985 . S
H724 N721 0.984 . S
H725 N721 0.985 . S
H726 N720 0.984 1_556 S
H727 N720 0.984 . S
H728 N716 0.984 . S
H729 N716 0.985 . S
C730 C731 1.363 . S
C730 C736 1.379 . S
C730 N738 1.356 1_556 S
C731 C730 1.363 . S
C731 C737 1.363 . S
C732 C733 1.363 . S
C732 C737 1.379 . S
C732 N739 1.356 . S
C733 C732 1.363 . S
C733 C736 1.363 . S
N734 C736 1.356 . S
N734 H746 0.984 . S
N734 H747 0.985 . S
N735 C737 1.356 . S
N735 H740 0.984 1_556 S
N735 H741 0.985 . S
C736 C730 1.379 . S
C736 C733 1.363 . S
C736 N734 1.356 . S
C737 C731 1.363 . S
C737 C732 1.379 . S
C737 N735 1.356 . S
N738 C730 1.356 1_554 S
N738 H744 0.984 . S
N738 H745 0.984 . S
N739 C732 1.356 . S
N739 H742 0.984 . S
N739 H743 0.985 . S
H740 N735 0.984 1_554 S
H741 N735 0.985 . S
H742 N739 0.984 . S
H743 N739 0.985 . S
H744 N738 0.984 . S
H745 N738 0.984 . S
H746 N734 0.984 . S
H747 N734 0.985 . S
C748 C749 1.363 . S
C748 C754 1.379 . S
C748 N756 1.356 . S
C749 C748 1.363 . S
C749 C755 1.363 . S
C750 C751 1.363 . S
C750 C755 1.379 . S
C750 N757 1.356 . S
C751 C750 1.363 . S
C751 C754 1.363 . S
N752 C754 1.356 1_556 S
N752 H764 0.984 . S
N752 H765 0.985 . S
N753 C755 1.356 . S
N753 H758 0.984 . S
N753 H759 0.985 . S
C754 C748 1.379 . S
C754 C751 1.363 . S
C754 N752 1.356 1_554 S
C755 C749 1.363 . S
C755 C750 1.379 . S
C755 N753 1.356 . S
N756 C748 1.356 . S
N756 H762 0.984 . S
N756 H763 0.984 . S
N757 C750 1.356 . S
N757 H760 0.984 1_554 S
N757 H761 0.985 . S
H758 N753 0.984 . S
H759 N753 0.985 . S
H760 N757 0.984 1_556 S
H761 N757 0.985 . S
H762 N756 0.984 . S
H763 N756 0.984 . S
H764 N752 0.984 . S
H765 N752 0.985 . S
C766 C767 1.363 . S
C766 C772 1.379 . S
C766 N774 1.356 . S
C767 C766 1.363 . S
C767 C773 1.363 . S
C768 C769 1.363 . S
C768 C773 1.379 . S
C768 N775 1.356 . S
C769 C768 1.363 . S
C769 C772 1.363 . S
N770 C772 1.356 . S
N770 H782 0.984 . S
N770 H783 0.985 . S
N771 C773 1.356 1_554 S
N771 H776 0.984 . S
N771 H777 0.985 . S
C772 C766 1.379 . S
C772 C769 1.363 . S
C772 N770 1.356 . S
C773 C767 1.363 . S
C773 C768 1.379 . S
C773 N771 1.356 1_556 S
N774 C766 1.356 . S
N774 H780 0.984 . S
N774 H781 0.984 1_556 S
N775 C768 1.356 . S
N775 H778 0.984 . S
N775 H779 0.985 . S
H776 N771 0.984 . S
H777 N771 0.985 . S
H778 N775 0.984 . S
H779 N775 0.985 . S
H780 N774 0.984 . S
H781 N774 0.984 1_554 S
H782 N770 0.984 . S
H783 N770 0.985 . S
C784 C785 1.363 . S
C784 C790 1.379 . S
C784 N792 1.356 . S
C785 C784 1.363 . S
C785 C791 1.363 . S
C786 C787 1.363 . S
C786 C791 1.379 . S
C786 N793 1.356 . S
C787 C786 1.363 . S
C787 C790 1.363 . S
N788 C790 1.356 . S
N788 H800 0.984 . S
N788 H801 0.985 . S
N789 C791 1.356 . S
N789 H794 0.984 . S
N789 H795 0.985 . S
C790 C784 1.379 . S
C790 C787 1.363 . S
C790 N788 1.356 . S
C791 C785 1.363 . S
C791 C786 1.379 . S
C791 N789 1.356 . S
N792 C784 1.356 . S
N792 H798 0.984 . S
N792 H799 0.984 . S
N793 C786 1.356 . S
N793 H796 0.984 . S
N793 H797 0.985 . S
H794 N789 0.984 . S
H795 N789 0.985 . S
H796 N793 0.984 . S
H797 N793 0.985 . S
H798 N792 0.984 . S
H799 N792 0.984 . S
H800 N788 0.984 . S
H801 N788 0.985 . S
C802 C803 1.363 . S
C802 C808 1.379 . S
C802 N810 1.356 . S
C803 C802 1.363 . S
C803 C809 1.363 . S
C804 C805 1.363 . S
C804 C809 1.379 . S
C804 N811 1.356 . S
C805 C804 1.363 . S
C805 C808 1.363 . S
N806 C808 1.356 . S
N806 H818 0.984 . S
N806 H819 0.985 . S
N807 C809 1.356 . S
N807 H812 0.984 . S
N807 H813 0.985 . S
C808 C802 1.379 . S
C808 C805 1.363 . S
C808 N806 1.356 . S
C809 C803 1.363 . S
C809 C804 1.379 . S
C809 N807 1.356 . S
N810 C802 1.356 . S
N810 H816 0.984 . S
N810 H817 0.984 . S
N811 C804 1.356 . S
N811 H814 0.984 . S
N811 H815 0.985 . S
H812 N807 0.984 . S
H813 N807 0.985 . S
H814 N811 0.984 . S
H815 N811 0.985 . S
H816 N810 0.984 . S
H817 N810 0.984 . S
H818 N806 0.984 . S
H819 N806 0.985 . S
C820 C821 1.363 . S
C820 C826 1.379 . S
C820 N828 1.356 . S
C821 C820 1.363 . S
C821 C827 1.363 . S
C822 C823 1.363 . S
C822 C827 1.379 . S
C822 N829 1.356 . S
C823 C822 1.363 . S
C823 C826 1.363 . S
N824 C826 1.356 . S
N824 H836 0.984 . S
N824 H837 0.985 . S
N825 C827 1.356 . S
N825 H830 0.984 . S
N825 H831 0.985 . S
C826 C820 1.379 . S
C826 C823 1.363 . S
C826 N824 1.356 . S
C827 C821 1.363 . S
C827 C822 1.379 . S
C827 N825 1.356 . S
N828 C820 1.356 . S
N828 H834 0.984 . S
N828 H835 0.984 . S
N829 C822 1.356 . S
N829 H832 0.984 . S
N829 H833 0.985 . S
H830 N825 0.984 . S
H831 N825 0.985 . S
H832 N829 0.984 . S
H833 N829 0.985 . S
H834 N828 0.984 . S
H835 N828 0.984 . S
H836 N824 0.984 . S
H837 N824 0.985 . S
C838 C839 1.363 . S
C838 C844 1.379 . S
C838 N846 1.356 . S
C839 C838 1.363 . S
C839 C845 1.363 . S
C840 C841 1.363 . S
C840 C845 1.379 . S
C840 N847 1.356 . S
C841 C840 1.363 . S
C841 C844 1.363 . S
N842 C844 1.356 . S
N842 H854 0.984 . S
N842 H855 0.985 . S
N843 C845 1.356 . S
N843 H848 0.984 . S
N843 H849 0.985 . S
C844 C838 1.379 . S
C844 C841 1.363 . S
C844 N842 1.356 . S
C845 C839 1.363 . S
C845 C840 1.379 . S
C845 N843 1.356 . S
N846 C838 1.356 . S
N846 H852 0.984 . S
N846 H853 0.984 . S
N847 C840 1.356 . S
N847 H850 0.984 . S
N847 H851 0.985 . S
H848 N843 0.984 . S
H849 N843 0.985 . S
H850 N847 0.984 . S
H851 N847 0.985 . S
H852 N846 0.984 . S
H853 N846 0.984 . S
H854 N842 0.984 . S
H855 N842 0.985 . S
C856 C857 1.363 . S
C856 C862 1.379 . S
C856 N864 1.356 1_545 S
C857 C856 1.363 . S
C857 C863 1.363 . S
C858 C859 1.363 . S
C858 C863 1.379 . S
C858 N865 1.356 . S
C859 C858 1.363 . S
C859 C862 1.363 . S
N860 C862 1.356 . S
N860 H872 0.984 . S
N860 H873 0.985 . S
N861 C863 1.356 . S
N861 H866 0.984 . S
N861 H867 0.985 . S
C862 C856 1.379 . S
C862 C859 1.363 . S
C862 N860 1.356 . S
C863 C857 1.363 . S
C863 C858 1.379 . S
C863 N861 1.356 . S
N864 C856 1.356 1_565 S
N864 H870 0.984 . S
N864 H871 0.984 . S
N865 C858 1.356 . S
N865 H868 0.984 . S
N865 H869 0.985 . S
H866 N861 0.984 . S
H867 N861 0.985 . S
H868 N865 0.984 . S
H869 N865 0.985 . S
H870 N864 0.984 . S
H871 N864 0.984 . S
H872 N860 0.984 . S
H873 N860 0.985 . S
C874 C875 1.363 . S
C874 C880 1.379 . S
C874 N882 1.356 . S
C875 C874 1.363 . S
C875 C881 1.363 . S
C876 C877 1.363 . S
C876 C881 1.379 . S
C876 N883 1.356 . S
C877 C876 1.363 . S
C877 C880 1.363 . S
N878 C880 1.356 1_655 S
N878 H890 0.984 . S
N878 H891 0.985 . S
N879 C881 1.356 . S
N879 H884 0.984 . S
N879 H885 0.985 . S
C880 C874 1.379 . S
C880 C877 1.363 . S
C880 N878 1.356 1_455 S
C881 C875 1.363 . S
C881 C876 1.379 . S
C881 N879 1.356 . S
N882 C874 1.356 . S
N882 H888 0.984 . S
N882 H889 0.984 . S
N883 C876 1.356 . S
N883 H886 0.984 1_455 S
N883 H887 0.985 . S
H884 N879 0.984 . S
H885 N879 0.985 . S
H886 N883 0.984 1_655 S
H887 N883 0.985 . S
H888 N882 0.984 . S
H889 N882 0.984 . S
H890 N878 0.984 . S
H891 N878 0.985 . S
C892 C893 1.363 . S
C892 C898 1.379 . S
C892 N900 1.356 . S
C893 C892 1.363 . S
C893 C899 1.363 . S
C894 C895 1.363 . S
C894 C899 1.379 . S
C894 N901 1.356 . S
C895 C894 1.363 . S
C895 C898 1.363 . S
N896 C898 1.356 1_545 S
N896 H908 0.984 . S
N896 H909 0.985 . S
N897 C899 1.356 . S
N897 H902 0.984 . S
N897 H903 0.985 . S
C898 C892 1.379 . S
C898 C895 1.363 . S
C898 N896 1.356 1_565 S
C899 C893 1.363 . S
C899 C894 1.379 . S
C899 N897 1.356 . S
N900 C892 1.356 . S
N900 H906 0.984 . S
N900 H907 0.984 . S
N901 C894 1.356 . S
N901 H904 0.984 1_565 S
N901 H905 0.985 . S
H902 N897 0.984 . S
H903 N897 0.985 . S
H904 N901 0.984 1_545 S
H905 N901 0.985 . S
H906 N900 0.984 . S
H907 N900 0.984 . S
H908 N896 0.984 . S
H909 N896 0.985 . S
C910 C911 1.363 . S
C910 C916 1.379 . S
C910 N918 1.356 . S
C911 C910 1.363 . S
C911 C917 1.363 . S
C912 C913 1.363 . S
C912 C917 1.379 . S
C912 N919 1.356 . S
C913 C912 1.363 . S
C913 C916 1.363 . S
N914 C916 1.356 . S
N914 H926 0.984 . S
N914 H927 0.985 . S
N915 C917 1.356 1_455 S
N915 H920 0.984 . S
N915 H921 0.985 . S
C916 C910 1.379 . S
C916 C913 1.363 . S
C916 N914 1.356 . S
C917 C911 1.363 . S
C917 C912 1.379 . S
C917 N915 1.356 1_655 S
N918 C910 1.356 . S
N918 H924 0.984 . S
N918 H925 0.984 . S
N919 C912 1.356 . S
N919 H922 0.984 . S
N919 H923 0.985 . S
H920 N915 0.984 . S
H921 N915 0.985 . S
H922 N919 0.984 . S
H923 N919 0.985 . S
H924 N918 0.984 . S
H925 N918 0.984 . S
H926 N914 0.984 . S
H927 N914 0.985 . S
C928 C929 1.363 . S
C928 C934 1.379 . S
C928 N936 1.356 . S
C929 C928 1.363 . S
C929 C935 1.363 . S
C930 C931 1.363 . S
C930 C935 1.379 . S
C930 N937 1.356 . S
C931 C930 1.363 . S
C931 C934 1.363 . S
N932 C934 1.356 . S
N932 H944 0.984 . S
N932 H945 0.985 . S
N933 C935 1.356 . S
N933 H938 0.984 . S
N933 H939 0.985 . S
C934 C928 1.379 . S
C934 C931 1.363 . S
C934 N932 1.356 . S
C935 C929 1.363 . S
C935 C930 1.379 . S
C935 N933 1.356 . S
N936 C928 1.356 . S
N936 H942 0.984 1_554 S
N936 H943 0.984 . S
N937 C930 1.356 . S
N937 H940 0.984 . S
N937 H941 0.985 . S
H938 N933 0.984 . S
H939 N933 0.985 . S
H940 N937 0.984 . S
H941 N937 0.985 . S
H942 N936 0.984 1_556 S
H943 N936 0.984 . S
H944 N932 0.984 . S
H945 N932 0.985 . S
C946 C947 1.363 . S
C946 C952 1.379 . S
C946 N954 1.356 . S
C947 C946 1.363 . S
C947 C953 1.363 . S
C948 C949 1.363 . S
C948 C953 1.379 . S
C948 N955 1.356 . S
C949 C948 1.363 . S
C949 C952 1.363 . S
N950 C952 1.356 . S
N950 H962 0.984 . S
N950 H963 0.985 . S
N951 C953 1.356 . S
N951 H956 0.984 . S
N951 H957 0.985 . S
C952 C946 1.379 . S
C952 C949 1.363 . S
C952 N950 1.356 . S
C953 C947 1.363 . S
C953 C948 1.379 . S
C953 N951 1.356 . S
N954 C946 1.356 . S
N954 H960 0.984 . S
N954 H961 0.984 . S
N955 C948 1.356 . S
N955 H958 0.984 . S
N955 H959 0.985 . S
H956 N951 0.984 . S
H957 N951 0.985 . S
H958 N955 0.984 . S
H959 N955 0.985 . S
H960 N954 0.984 . S
H961 N954 0.984 . S
H962 N950 0.984 . S
H963 N950 0.985 . S
C964 C965 1.363 . S
C964 C970 1.379 . S
C964 N972 1.356 . S
C965 C964 1.363 . S
C965 C971 1.363 . S
C966 C967 1.363 . S
C966 C971 1.379 . S
C966 N973 1.356 . S
C967 C966 1.363 . S
C967 C970 1.363 . S
N968 C970 1.356 . S
N968 H980 0.984 . S
N968 H981 0.985 . S
N969 C971 1.356 . S
N969 H974 0.984 . S
N969 H975 0.985 1_554 S
C970 C964 1.379 . S
C970 C967 1.363 . S
C970 N968 1.356 . S
C971 C965 1.363 . S
C971 C966 1.379 . S
C971 N969 1.356 . S
N972 C964 1.356 . S
N972 H978 0.984 . S
N972 H979 0.984 . S
N973 C966 1.356 . S
N973 H976 0.984 . S
N973 H977 0.985 . S
H974 N969 0.984 . S
H975 N969 0.985 1_556 S
H976 N973 0.984 . S
H977 N973 0.985 . S
H978 N972 0.984 . S
H979 N972 0.984 . S
H980 N968 0.984 . S
H981 N968 0.985 . S
C982 C983 1.363 . S
C982 C988 1.379 . S
C982 N990 1.356 . S
C983 C982 1.363 . S
C983 C989 1.363 . S
C984 C985 1.363 . S
C984 C989 1.379 . S
C984 N991 1.356 . S
C985 C984 1.363 . S
C985 C988 1.363 . S
N986 C988 1.356 . S
N986 H998 0.984 . S
N986 H999 0.985 . S
N987 C989 1.356 . S
N987 H992 0.984 . S
N987 H993 0.985 . S
C988 C982 1.379 . S
C988 C985 1.363 . S
C988 N986 1.356 . S
C989 C983 1.363 . S
C989 C984 1.379 . S
C989 N987 1.356 . S
N990 C982 1.356 . S
N990 H996 0.984 . S
N990 H997 0.984 . S
N991 C984 1.356 . S
N991 H994 0.984 . S
N991 H995 0.985 . S
H992 N987 0.984 . S
H993 N987 0.985 . S
H994 N991 0.984 . S
H995 N991 0.985 . S
H996 N990 0.984 . S
H997 N990 0.984 . S
H998 N986 0.984 . S
H999 N986 0.985 . S
C1000 C1001 1.363 . S
C1000 C1006 1.379 . S
C1000 N1008 1.356 . S
C1001 C1000 1.363 . S
C1001 C1007 1.363 . S
C1002 C1003 1.363 . S
C1002 C1007 1.379 . S
C1002 N1009 1.356 . S
C1003 C1002 1.363 . S
C1003 C1006 1.363 . S
N1004 C1006 1.356 . S
N1004 H1016 0.984 . S
N1004 H1017 0.985 . S
N1005 C1007 1.356 . S
N1005 H1010 0.984 . S
N1005 H1011 0.985 . S
C1006 C1000 1.379 . S
C1006 C1003 1.363 . S
C1006 N1004 1.356 . S
C1007 C1001 1.363 . S
C1007 C1002 1.379 . S
C1007 N1005 1.356 . S
N1008 C1000 1.356 . S
N1008 H1014 0.984 . S
N1008 H1015 0.984 . S
N1009 C1002 1.356 . S
N1009 H1012 0.984 . S
N1009 H1013 0.985 . S
H1010 N1005 0.984 . S
H1011 N1005 0.985 . S
H1012 N1009 0.984 . S
H1013 N1009 0.985 . S
H1014 N1008 0.984 . S
H1015 N1008 0.984 . S
H1016 N1004 0.984 . S
H1017 N1004 0.985 . S
C1018 C1019 1.363 . S
C1018 C1024 1.379 . S
C1018 N1026 1.356 . S
C1019 C1018 1.363 . S
C1019 C1025 1.363 . S
C1020 C1021 1.363 . S
C1020 C1025 1.379 . S
C1020 N1027 1.356 . S
C1021 C1020 1.363 . S
C1021 C1024 1.363 . S
N1022 C1024 1.356 . S
N1022 H1034 0.984 . S
N1022 H1035 0.985 . S
N1023 C1025 1.356 . S
N1023 H1028 0.984 . S
N1023 H1029 0.985 . S
C1024 C1018 1.379 . S
C1024 C1021 1.363 . S
C1024 N1022 1.356 . S
C1025 C1019 1.363 . S
C1025 C1020 1.379 . S
C1025 N1023 1.356 . S
N1026 C1018 1.356 . S
N1026 H1032 0.984 . S
N1026 H1033 0.984 . S
N1027 C1020 1.356 . S
N1027 H1030 0.984 . S
N1027 H1031 0.985 . S
H1028 N1023 0.984 . S
H1029 N1023 0.985 . S
H1030 N1027 0.984 . S
H1031 N1027 0.985 . S
H1032 N1026 0.984 . S
H1033 N1026 0.984 . S
H1034 N1022 0.984 . S
H1035 N1022 0.985 . S
C1036 C1037 1.363 . S
C1036 C1042 1.379 . S
C1036 N1044 1.356 . S
C1037 C1036 1.363 . S
C1037 C1043 1.363 . S
C1038 C1039 1.363 . S
C1038 C1043 1.379 . S
C1038 N1045 1.356 . S
C1039 C1038 1.363 . S
C1039 C1042 1.363 . S
N1040 C1042 1.356 . S
N1040 H1052 0.984 . S
N1040 H1053 0.985 . S
N1041 C1043 1.356 . S
N1041 H1046 0.984 . S
N1041 H1047 0.985 . S
C1042 C1036 1.379 . S
C1042 C1039 1.363 . S
C1042 N1040 1.356 . S
C1043 C1037 1.363 . S
C1043 C1038 1.379 . S
C1043 N1041 1.356 . S
N1044 C1036 1.356 . S
N1044 H1050 0.984 . S
N1044 H1051 0.984 . S
N1045 C1038 1.356 . S
N1045 H1048 0.984 . S
N1045 H1049 0.985 . S
H1046 N1041 0.984 . S
H1047 N1041 0.985 . S
H1048 N1045 0.984 . S
H1049 N1045 0.985 . S
H1050 N1044 0.984 . S
H1051 N1044 0.984 . S
H1052 N1040 0.984 . S
H1053 N1040 0.985 . S
C1054 C1055 1.363 . S
C1054 C1060 1.379 . S
C1054 N1062 1.356 . S
C1055 C1054 1.363 . S
C1055 C1061 1.363 . S
C1056 C1057 1.363 . S
C1056 C1061 1.379 . S
C1056 N1063 1.356 . S
C1057 C1056 1.363 . S
C1057 C1060 1.363 . S
N1058 C1060 1.356 . S
N1058 H1070 0.984 . S
N1058 H1071 0.985 . S
N1059 C1061 1.356 . S
N1059 H1064 0.984 . S
N1059 H1065 0.985 . S
C1060 C1054 1.379 . S
C1060 C1057 1.363 . S
C1060 N1058 1.356 . S
C1061 C1055 1.363 . S
C1061 C1056 1.379 . S
C1061 N1059 1.356 . S
N1062 C1054 1.356 . S
N1062 H1068 0.984 . S
N1062 H1069 0.984 . S
N1063 C1056 1.356 . S
N1063 H1066 0.984 . S
N1063 H1067 0.985 . S
H1064 N1059 0.984 . S
H1065 N1059 0.985 . S
H1066 N1063 0.984 . S
H1067 N1063 0.985 . S
H1068 N1062 0.984 . S
H1069 N1062 0.984 . S
H1070 N1058 0.984 . S
H1071 N1058 0.985 . S
C1072 C1073 1.363 . S
C1072 C1078 1.379 . S
C1072 N1080 1.356 . S
C1073 C1072 1.363 . S
C1073 C1079 1.363 . S
C1074 C1075 1.363 . S
C1074 C1079 1.379 . S
C1074 N1081 1.356 . S
C1075 C1074 1.363 . S
C1075 C1078 1.363 . S
N1076 C1078 1.356 . S
N1076 H1088 0.984 . S
N1076 H1089 0.985 . S
N1077 C1079 1.356 . S
N1077 H1082 0.984 . S
N1077 H1083 0.985 . S
C1078 C1072 1.379 . S
C1078 C1075 1.363 . S
C1078 N1076 1.356 . S
C1079 C1073 1.363 . S
C1079 C1074 1.379 . S
C1079 N1077 1.356 . S
N1080 C1072 1.356 . S
N1080 H1086 0.984 . S
N1080 H1087 0.984 . S
N1081 C1074 1.356 . S
N1081 H1084 0.984 . S
N1081 H1085 0.985 . S
H1082 N1077 0.984 . S
H1083 N1077 0.985 . S
H1084 N1081 0.984 . S
H1085 N1081 0.985 . S
H1086 N1080 0.984 . S
H1087 N1080 0.984 . S
H1088 N1076 0.984 . S
H1089 N1076 0.985 . S
C1090 C1091 1.363 . S
C1090 C1096 1.379 . S
C1090 N1098 1.356 . S
C1091 C1090 1.363 . S
C1091 C1097 1.363 . S
C1092 C1093 1.363 . S
C1092 C1097 1.379 . S
C1092 N1099 1.356 . S
C1093 C1092 1.363 . S
C1093 C1096 1.363 . S
N1094 C1096 1.356 . S
N1094 H1106 0.984 . S
N1094 H1107 0.985 . S
N1095 C1097 1.356 . S
N1095 H1100 0.984 . S
N1095 H1101 0.985 . S
C1096 C1090 1.379 . S
C1096 C1093 1.363 . S
C1096 N1094 1.356 . S
C1097 C1091 1.363 . S
C1097 C1092 1.379 . S
C1097 N1095 1.356 . S
N1098 C1090 1.356 . S
N1098 H1104 0.984 . S
N1098 H1105 0.984 . S
N1099 C1092 1.356 . S
N1099 H1102 0.984 . S
N1099 H1103 0.985 . S
H1100 N1095 0.984 . S
H1101 N1095 0.985 . S
H1102 N1099 0.984 . S
H1103 N1099 0.985 . S
H1104 N1098 0.984 . S
H1105 N1098 0.984 . S
H1106 N1094 0.984 . S
H1107 N1094 0.985 . S
C1108 C1109 1.363 . S
C1108 C1114 1.379 . S
C1108 N1116 1.356 . S
C1109 C1108 1.363 . S
C1109 C1115 1.363 . S
C1110 C1111 1.363 . S
C1110 C1115 1.379 . S
C1110 N1117 1.356 . S
C1111 C1110 1.363 . S
C1111 C1114 1.363 . S
N1112 C1114 1.356 . S
N1112 H1124 0.984 . S
N1112 H1125 0.985 . S
N1113 C1115 1.356 . S
N1113 H1118 0.984 . S
N1113 H1119 0.985 . S
C1114 C1108 1.379 . S
C1114 C1111 1.363 . S
C1114 N1112 1.356 . S
C1115 C1109 1.363 . S
C1115 C1110 1.379 . S
C1115 N1113 1.356 . S
N1116 C1108 1.356 . S
N1116 H1122 0.984 . S
N1116 H1123 0.984 . S
N1117 C1110 1.356 . S
N1117 H1120 0.984 . S
N1117 H1121 0.985 . S
H1118 N1113 0.984 . S
H1119 N1113 0.985 . S
H1120 N1117 0.984 . S
H1121 N1117 0.985 . S
H1122 N1116 0.984 . S
H1123 N1116 0.984 . S
H1124 N1112 0.984 . S
H1125 N1112 0.985 . S
C1126 C1127 1.363 . S
C1126 C1132 1.379 . S
C1126 N1134 1.356 . S
C1127 C1126 1.363 . S
C1127 C1133 1.363 . S
C1128 C1129 1.363 . S
C1128 C1133 1.379 . S
C1128 N1135 1.356 . S
C1129 C1128 1.363 . S
C1129 C1132 1.363 . S
N1130 C1132 1.356 . S
N1130 H1142 0.984 . S
N1130 H1143 0.985 . S
N1131 C1133 1.356 . S
N1131 H1136 0.984 . S
N1131 H1137 0.985 . S
C1132 C1126 1.379 . S
C1132 C1129 1.363 . S
C1132 N1130 1.356 . S
C1133 C1127 1.363 . S
C1133 C1128 1.379 . S
C1133 N1131 1.356 . S
N1134 C1126 1.356 . S
N1134 H1140 0.984 . S
N1134 H1141 0.984 . S
N1135 C1128 1.356 . S
N1135 H1138 0.984 . S
N1135 H1139 0.985 . S
H1136 N1131 0.984 . S
H1137 N1131 0.985 . S
H1138 N1135 0.984 . S
H1139 N1135 0.985 . S
H1140 N1134 0.984 . S
H1141 N1134 0.984 . S
H1142 N1130 0.984 . S
H1143 N1130 0.985 . S
C1144 C1145 1.363 . S
C1144 C1150 1.379 . S
C1144 N1152 1.356 . S
C1145 C1144 1.363 . S
C1145 C1151 1.363 . S
C1146 C1147 1.363 . S
C1146 C1151 1.379 . S
C1146 N1153 1.356 . S
C1147 C1146 1.363 . S
C1147 C1150 1.363 . S
N1148 C1150 1.356 . S
N1148 H1160 0.984 . S
N1148 H1161 0.985 . S
N1149 C1151 1.356 . S
N1149 H1154 0.984 . S
N1149 H1155 0.985 . S
C1150 C1144 1.379 . S
C1150 C1147 1.363 . S
C1150 N1148 1.356 . S
C1151 C1145 1.363 . S
C1151 C1146 1.379 . S
C1151 N1149 1.356 . S
N1152 C1144 1.356 . S
N1152 H1158 0.984 . S
N1152 H1159 0.984 . S
N1153 C1146 1.356 . S
N1153 H1156 0.984 . S
N1153 H1157 0.985 . S
H1154 N1149 0.984 . S
H1155 N1149 0.985 . S
H1156 N1153 0.984 . S
H1157 N1153 0.985 . S
H1158 N1152 0.984 . S
H1159 N1152 0.984 . S
H1160 N1148 0.984 . S
H1161 N1148 0.985 . S
C1162 C1163 1.363 . S
C1162 C1168 1.379 . S
C1162 N1170 1.356 . S
C1163 C1162 1.363 . S
C1163 C1169 1.363 . S
C1164 C1165 1.363 . S
C1164 C1169 1.379 . S
C1164 N1171 1.356 . S
C1165 C1164 1.363 . S
C1165 C1168 1.363 . S
N1166 C1168 1.356 . S
N1166 H1178 0.984 . S
N1166 H1179 0.985 . S
N1167 C1169 1.356 . S
N1167 H1172 0.984 . S
N1167 H1173 0.985 . S
C1168 C1162 1.379 . S
C1168 C1165 1.363 . S
C1168 N1166 1.356 . S
C1169 C1163 1.363 . S
C1169 C1164 1.379 . S
C1169 N1167 1.356 . S
N1170 C1162 1.356 . S
N1170 H1176 0.984 . S
N1170 H1177 0.984 . S
N1171 C1164 1.356 . S
N1171 H1174 0.984 . S
N1171 H1175 0.985 . S
H1172 N1167 0.984 . S
H1173 N1167 0.985 . S
H1174 N1171 0.984 . S
H1175 N1171 0.985 . S
H1176 N1170 0.984 . S
H1177 N1170 0.984 . S
H1178 N1166 0.984 . S
H1179 N1166 0.985 . S
C1180 C1181 1.363 . S
C1180 C1186 1.379 . S
C1180 N1188 1.356 . S
C1181 C1180 1.363 . S
C1181 C1187 1.363 . S
C1182 C1183 1.363 . S
C1182 C1187 1.379 . S
C1182 N1189 1.356 . S
C1183 C1182 1.363 . S
C1183 C1186 1.363 . S
N1184 C1186 1.356 . S
N1184 H1196 0.984 . S
N1184 H1197 0.985 . S
N1185 C1187 1.356 . S
N1185 H1190 0.984 . S
N1185 H1191 0.985 . S
C1186 C1180 1.379 . S
C1186 C1183 1.363 . S
C1186 N1184 1.356 . S
C1187 C1181 1.363 . S
C1187 C1182 1.379 . S
C1187 N1185 1.356 . S
N1188 C1180 1.356 . S
N1188 H1194 0.984 . S
N1188 H1195 0.984 . S
N1189 C1182 1.356 . S
N1189 H1192 0.984 . S
N1189 H1193 0.985 . S
H1190 N1185 0.984 . S
H1191 N1185 0.985 . S
H1192 N1189 0.984 . S
H1193 N1189 0.985 . S
H1194 N1188 0.984 . S
H1195 N1188 0.984 . S
H1196 N1184 0.984 . S
H1197 N1184 0.985 . S
C1198 C1199 1.363 . S
C1198 C1204 1.379 . S
C1198 N1206 1.356 . S
C1199 C1198 1.363 . S
C1199 C1205 1.363 . S
C1200 C1201 1.363 . S
C1200 C1205 1.379 . S
C1200 N1207 1.356 . S
C1201 C1200 1.363 . S
C1201 C1204 1.363 . S
N1202 C1204 1.356 . S
N1202 H1214 0.984 . S
N1202 H1215 0.985 . S
N1203 C1205 1.356 . S
N1203 H1208 0.984 . S
N1203 H1209 0.985 . S
C1204 C1198 1.379 . S
C1204 C1201 1.363 . S
C1204 N1202 1.356 . S
C1205 C1199 1.363 . S
C1205 C1200 1.379 . S
C1205 N1203 1.356 . S
N1206 C1198 1.356 . S
N1206 H1212 0.984 . S
N1206 H1213 0.984 . S
N1207 C1200 1.356 . S
N1207 H1210 0.984 . S
N1207 H1211 0.985 . S
H1208 N1203 0.984 . S
H1209 N1203 0.985 . S
H1210 N1207 0.984 . S
H1211 N1207 0.985 . S
H1212 N1206 0.984 . S
H1213 N1206 0.984 . S
H1214 N1202 0.984 . S
H1215 N1202 0.985 . S
C1216 C1217 1.363 . S
C1216 C1222 1.379 . S
C1216 N1224 1.356 . S
C1217 C1216 1.363 . S
C1217 C1223 1.363 . S
C1218 C1219 1.363 . S
C1218 C1223 1.379 . S
C1218 N1225 1.356 . S
C1219 C1218 1.363 . S
C1219 C1222 1.363 . S
N1220 C1222 1.356 . S
N1220 H1232 0.984 . S
N1220 H1233 0.985 . S
N1221 C1223 1.356 . S
N1221 H1226 0.984 . S
N1221 H1227 0.985 . S
C1222 C1216 1.379 . S
C1222 C1219 1.363 . S
C1222 N1220 1.356 . S
C1223 C1217 1.363 . S
C1223 C1218 1.379 . S
C1223 N1221 1.356 . S
N1224 C1216 1.356 . S
N1224 H1230 0.984 . S
N1224 H1231 0.984 . S
N1225 C1218 1.356 . S
N1225 H1228 0.984 . S
N1225 H1229 0.985 . S
H1226 N1221 0.984 . S
H1227 N1221 0.985 . S
H1228 N1225 0.984 . S
H1229 N1225 0.985 . S
H1230 N1224 0.984 . S
H1231 N1224 0.984 . S
H1232 N1220 0.984 . S
H1233 N1220 0.985 . S
C1234 C1235 1.363 . S
C1234 C1240 1.379 . S
C1234 N1242 1.356 . S
C1235 C1234 1.363 . S
C1235 C1241 1.363 . S
C1236 C1237 1.363 . S
C1236 C1241 1.379 . S
C1236 N1243 1.356 . S
C1237 C1236 1.363 . S
C1237 C1240 1.363 . S
N1238 C1240 1.356 . S
N1238 H1250 0.984 . S
N1238 H1251 0.985 . S
N1239 C1241 1.356 . S
N1239 H1244 0.984 . S
N1239 H1245 0.985 . S
C1240 C1234 1.379 . S
C1240 C1237 1.363 . S
C1240 N1238 1.356 . S
C1241 C1235 1.363 . S
C1241 C1236 1.379 . S
C1241 N1239 1.356 . S
N1242 C1234 1.356 . S
N1242 H1248 0.984 . S
N1242 H1249 0.984 . S
N1243 C1236 1.356 . S
N1243 H1246 0.984 . S
N1243 H1247 0.985 . S
H1244 N1239 0.984 . S
H1245 N1239 0.985 . S
H1246 N1243 0.984 . S
H1247 N1243 0.985 . S
H1248 N1242 0.984 . S
H1249 N1242 0.984 . S
H1250 N1238 0.984 . S
H1251 N1238 0.985 . S
C1252 C1253 1.363 . S
C1252 C1258 1.379 . S
C1252 N1260 1.356 . S
C1253 C1252 1.363 . S
C1253 C1259 1.363 . S
C1254 C1255 1.363 . S
C1254 C1259 1.379 . S
C1254 N1261 1.356 . S
C1255 C1254 1.363 . S
C1255 C1258 1.363 . S
N1256 C1258 1.356 . S
N1256 H1268 0.984 . S
N1256 H1269 0.985 . S
N1257 C1259 1.356 . S
N1257 H1262 0.984 . S
N1257 H1263 0.985 . S
C1258 C1252 1.379 . S
C1258 C1255 1.363 . S
C1258 N1256 1.356 . S
C1259 C1253 1.363 . S
C1259 C1254 1.379 . S
C1259 N1257 1.356 . S
N1260 C1252 1.356 . S
N1260 H1266 0.984 . S
N1260 H1267 0.984 . S
N1261 C1254 1.356 . S
N1261 H1264 0.984 . S
N1261 H1265 0.985 . S
H1262 N1257 0.984 . S
H1263 N1257 0.985 . S
H1264 N1261 0.984 . S
H1265 N1261 0.985 . S
H1266 N1260 0.984 . S
H1267 N1260 0.984 . S
H1268 N1256 0.984 . S
H1269 N1256 0.985 . S
C1270 C1271 1.363 . S
C1270 C1276 1.379 . S
C1270 N1278 1.356 . S
C1271 C1270 1.363 . S
C1271 C1277 1.363 . S
C1272 C1273 1.363 . S
C1272 C1277 1.379 . S
C1272 N1279 1.356 . S
C1273 C1272 1.363 . S
C1273 C1276 1.363 . S
N1274 C1276 1.356 . S
N1274 H1286 0.984 . S
N1274 H1287 0.985 . S
N1275 C1277 1.356 . S
N1275 H1280 0.984 . S
N1275 H1281 0.985 . S
C1276 C1270 1.379 . S
C1276 C1273 1.363 . S
C1276 N1274 1.356 . S
C1277 C1271 1.363 . S
C1277 C1272 1.379 . S
C1277 N1275 1.356 . S
N1278 C1270 1.356 . S
N1278 H1284 0.984 . S
N1278 H1285 0.984 . S
N1279 C1272 1.356 . S
N1279 H1282 0.984 . S
N1279 H1283 0.985 . S
H1280 N1275 0.984 . S
H1281 N1275 0.985 . S
H1282 N1279 0.984 . S
H1283 N1279 0.985 . S
H1284 N1278 0.984 . S
H1285 N1278 0.984 . S
H1286 N1274 0.984 . S
H1287 N1274 0.985 . S
C1288 C1289 1.363 . S
C1288 C1294 1.379 . S
C1288 N1296 1.356 . S
C1289 C1288 1.363 . S
C1289 C1295 1.363 . S
C1290 C1291 1.363 . S
C1290 C1295 1.379 . S
C1290 N1297 1.356 . S
C1291 C1290 1.363 . S
C1291 C1294 1.363 . S
N1292 C1294 1.356 . S
N1292 H1304 0.984 . S
N1292 H1305 0.985 . S
N1293 C1295 1.356 . S
N1293 H1298 0.984 . S
N1293 H1299 0.985 . S
C1294 C1288 1.379 . S
C1294 C1291 1.363 . S
C1294 N1292 1.356 . S
C1295 C1289 1.363 . S
C1295 C1290 1.379 . S
C1295 N1293 1.356 . S
N1296 C1288 1.356 . S
N1296 H1302 0.984 . S
N1296 H1303 0.984 . S
N1297 C1290 1.356 . S
N1297 H1300 0.984 . S
N1297 H1301 0.985 . S
H1298 N1293 0.984 . S
H1299 N1293 0.985 . S
H1300 N1297 0.984 . S
H1301 N1297 0.985 . S
H1302 N1296 0.984 . S
H1303 N1296 0.984 . S
H1304 N1292 0.984 . S
H1305 N1292 0.985 . S
C1306 C1307 1.363 . S
C1306 C1312 1.379 . S
C1306 N1314 1.356 . S
C1307 C1306 1.363 . S
C1307 C1313 1.363 . S
C1308 C1309 1.363 . S
C1308 C1313 1.379 . S
C1308 N1315 1.356 . S
C1309 C1308 1.363 . S
C1309 C1312 1.363 . S
N1310 C1312 1.356 . S
N1310 H1322 0.984 . S
N1310 H1323 0.985 . S
N1311 C1313 1.356 . S
N1311 H1316 0.984 . S
N1311 H1317 0.985 . S
C1312 C1306 1.379 . S
C1312 C1309 1.363 . S
C1312 N1310 1.356 . S
C1313 C1307 1.363 . S
C1313 C1308 1.379 . S
C1313 N1311 1.356 . S
N1314 C1306 1.356 . S
N1314 H1320 0.984 . S
N1314 H1321 0.984 . S
N1315 C1308 1.356 . S
N1315 H1318 0.984 . S
N1315 H1319 0.985 . S
H1316 N1311 0.984 . S
H1317 N1311 0.985 . S
H1318 N1315 0.984 . S
H1319 N1315 0.985 . S
H1320 N1314 0.984 . S
H1321 N1314 0.984 . S
H1322 N1310 0.984 . S
H1323 N1310 0.985 . S
C1324 C1325 1.363 . S
C1324 C1330 1.379 . S
C1324 N1332 1.356 . S
C1325 C1324 1.363 . S
C1325 C1331 1.363 . S
C1326 C1327 1.363 . S
C1326 C1331 1.379 . S
C1326 N1333 1.356 . S
C1327 C1326 1.363 . S
C1327 C1330 1.363 . S
N1328 C1330 1.356 . S
N1328 H1340 0.984 . S
N1328 H1341 0.985 . S
N1329 C1331 1.356 . S
N1329 H1334 0.984 . S
N1329 H1335 0.985 . S
C1330 C1324 1.379 . S
C1330 C1327 1.363 . S
C1330 N1328 1.356 . S
C1331 C1325 1.363 . S
C1331 C1326 1.379 . S
C1331 N1329 1.356 . S
N1332 C1324 1.356 . S
N1332 H1338 0.984 . S
N1332 H1339 0.984 . S
N1333 C1326 1.356 . S
N1333 H1336 0.984 . S
N1333 H1337 0.985 . S
H1334 N1329 0.984 . S
H1335 N1329 0.985 . S
H1336 N1333 0.984 . S
H1337 N1333 0.985 . S
H1338 N1332 0.984 . S
H1339 N1332 0.984 . S
H1340 N1328 0.984 . S
H1341 N1328 0.985 . S
C1342 C1343 1.363 . S
C1342 C1348 1.379 . S
C1342 N1350 1.356 . S
C1343 C1342 1.363 . S
C1343 C1349 1.363 . S
C1344 C1345 1.363 . S
C1344 C1349 1.379 . S
C1344 N1351 1.356 . S
C1345 C1344 1.363 . S
C1345 C1348 1.363 . S
N1346 C1348 1.356 . S
N1346 H1358 0.984 . S
N1346 H1359 0.985 . S
N1347 C1349 1.356 . S
N1347 H1352 0.984 . S
N1347 H1353 0.985 . S
C1348 C1342 1.379 . S
C1348 C1345 1.363 . S
C1348 N1346 1.356 . S
C1349 C1343 1.363 . S
C1349 C1344 1.379 . S
C1349 N1347 1.356 . S
N1350 C1342 1.356 . S
N1350 H1356 0.984 . S
N1350 H1357 0.984 . S
N1351 C1344 1.356 . S
N1351 H1354 0.984 . S
N1351 H1355 0.985 . S
H1352 N1347 0.984 . S
H1353 N1347 0.985 . S
H1354 N1351 0.984 . S
H1355 N1351 0.985 . S
H1356 N1350 0.984 . S
H1357 N1350 0.984 . S
H1358 N1346 0.984 . S
H1359 N1346 0.985 . S
C1360 C1361 1.363 . S
C1360 C1366 1.379 . S
C1360 N1368 1.356 . S
C1361 C1360 1.363 . S
C1361 C1367 1.363 . S
C1362 C1363 1.363 . S
C1362 C1367 1.379 . S
C1362 N1369 1.356 . S
C1363 C1362 1.363 . S
C1363 C1366 1.363 . S
N1364 C1366 1.356 . S
N1364 H1376 0.984 . S
N1364 H1377 0.985 . S
N1365 C1367 1.356 . S
N1365 H1370 0.984 . S
N1365 H1371 0.985 . S
C1366 C1360 1.379 . S
C1366 C1363 1.363 . S
C1366 N1364 1.356 . S
C1367 C1361 1.363 . S
C1367 C1362 1.379 . S
C1367 N1365 1.356 . S
N1368 C1360 1.356 . S
N1368 H1374 0.984 . S
N1368 H1375 0.984 . S
N1369 C1362 1.356 . S
N1369 H1372 0.984 . S
N1369 H1373 0.985 . S
H1370 N1365 0.984 . S
H1371 N1365 0.985 . S
H1372 N1369 0.984 . S
H1373 N1369 0.985 . S
H1374 N1368 0.984 . S
H1375 N1368 0.984 . S
H1376 N1364 0.984 . S
H1377 N1364 0.985 . S
C1378 C1379 1.363 . S
C1378 C1384 1.379 . S
C1378 N1386 1.356 . S
C1379 C1378 1.363 . S
C1379 C1385 1.363 . S
C1380 C1381 1.363 . S
C1380 C1385 1.379 . S
C1380 N1387 1.356 . S
C1381 C1380 1.363 . S
C1381 C1384 1.363 . S
N1382 C1384 1.356 . S
N1382 H1394 0.984 . S
N1382 H1395 0.985 . S
N1383 C1385 1.356 . S
N1383 H1388 0.984 . S
N1383 H1389 0.985 . S
C1384 C1378 1.379 . S
C1384 C1381 1.363 . S
C1384 N1382 1.356 . S
C1385 C1379 1.363 . S
C1385 C1380 1.379 . S
C1385 N1383 1.356 . S
N1386 C1378 1.356 . S
N1386 H1392 0.984 . S
N1386 H1393 0.984 . S
N1387 C1380 1.356 . S
N1387 H1390 0.984 1_556 S
N1387 H1391 0.985 . S
H1388 N1383 0.984 . S
H1389 N1383 0.985 . S
H1390 N1387 0.984 1_554 S
H1391 N1387 0.985 . S
H1392 N1386 0.984 . S
H1393 N1386 0.984 . S
H1394 N1382 0.984 . S
H1395 N1382 0.985 . S
C1396 C1397 1.363 . S
C1396 C1402 1.379 . S
C1396 N1404 1.356 . S
C1397 C1396 1.363 . S
C1397 C1403 1.363 . S
C1398 C1399 1.363 . S
C1398 C1403 1.379 . S
C1398 N1405 1.356 . S
C1399 C1398 1.363 . S
C1399 C1402 1.363 . S
N1400 C1402 1.356 . S
N1400 H1412 0.984 . S
N1400 H1413 0.985 1_554 S
N1401 C1403 1.356 . S
N1401 H1406 0.984 . S
N1401 H1407 0.985 . S
C1402 C1396 1.379 . S
C1402 C1399 1.363 . S
C1402 N1400 1.356 . S
C1403 C1397 1.363 . S
C1403 C1398 1.379 . S
C1403 N1401 1.356 . S
N1404 C1396 1.356 . S
N1404 H1410 0.984 . S
N1404 H1411 0.984 . S
N1405 C1398 1.356 . S
N1405 H1408 0.984 . S
N1405 H1409 0.985 . S
H1406 N1401 0.984 . S
H1407 N1401 0.985 . S
H1408 N1405 0.984 . S
H1409 N1405 0.985 . S
H1410 N1404 0.984 . S
H1411 N1404 0.984 . S
H1412 N1400 0.984 . S
H1413 N1400 0.985 1_556 S
C1414 C1415 1.363 . S
C1414 C1420 1.379 . S
C1414 N1422 1.356 . S
C1415 C1414 1.363 . S
C1415 C1421 1.363 . S
C1416 C1417 1.363 . S
C1416 C1421 1.379 . S
C1416 N1423 1.356 . S
C1417 C1416 1.363 . S
C1417 C1420 1.363 . S
N1418 C1420 1.356 . S
N1418 H1430 0.984 . S
N1418 H1431 0.985 . S
N1419 C1421 1.356 . S
N1419 H1424 0.984 . S
N1419 H1425 0.985 . S
C1420 C1414 1.379 . S
C1420 C1417 1.363 . S
C1420 N1418 1.356 . S
C1421 C1415 1.363 . S
C1421 C1416 1.379 . S
C1421 N1419 1.356 . S
N1422 C1414 1.356 . S
N1422 H1428 0.984 . S
N1422 H1429 0.984 1_556 S
N1423 C1416 1.356 . S
N1423 H1426 0.984 . S
N1423 H1427 0.985 . S
H1424 N1419 0.984 . S
H1425 N1419 0.985 . S
H1426 N1423 0.984 . S
H1427 N1423 0.985 . S
H1428 N1422 0.984 . S
H1429 N1422 0.984 1_554 S
H1430 N1418 0.984 . S
H1431 N1418 0.985 . S
C1432 C1433 1.363 . S
C1432 C1438 1.379 . S
C1432 N1440 1.356 . S
C1433 C1432 1.363 . S
C1433 C1439 1.363 . S
C1434 C1435 1.363 . S
C1434 C1439 1.379 . S
C1434 N1441 1.356 . S
C1435 C1434 1.363 . S
C1435 C1438 1.363 . S
N1436 C1438 1.356 . S
N1436 H1448 0.984 . S
N1436 H1449 0.985 . S
N1437 C1439 1.356 . S
N1437 H1442 0.984 . S
N1437 H1443 0.985 . S
C1438 C1432 1.379 . S
C1438 C1435 1.363 . S
C1438 N1436 1.356 . S
C1439 C1433 1.363 . S
C1439 C1434 1.379 . S
C1439 N1437 1.356 . S
N1440 C1432 1.356 . S
N1440 H1446 0.984 . S
N1440 H1447 0.984 . S
N1441 C1434 1.356 . S
N1441 H1444 0.984 . S
N1441 H1445 0.985 . S
H1442 N1437 0.984 . S
H1443 N1437 0.985 . S
H1444 N1441 0.984 . S
H1445 N1441 0.985 . S
H1446 N1440 0.984 . S
H1447 N1440 0.984 . S
H1448 N1436 0.984 . S
H1449 N1436 0.985 . S
C1450 C1451 1.363 . S
C1450 C1456 1.379 . S
C1450 N1458 1.356 . S
C1451 C1450 1.363 . S
C1451 C1457 1.363 . S
C1452 C1453 1.363 . S
C1452 C1457 1.379 . S
C1452 N1459 1.356 . S
C1453 C1452 1.363 . S
C1453 C1456 1.363 . S
N1454 C1456 1.356 . S
N1454 H1466 0.984 . S
N1454 H1467 0.985 . S
N1455 C1457 1.356 . S
N1455 H1460 0.984 1_556 S
N1455 H1461 0.985 . S
C1456 C1450 1.379 . S
C1456 C1453 1.363 . S
C1456 N1454 1.356 . S
C1457 C1451 1.363 . S
C1457 C1452 1.379 . S
C1457 N1455 1.356 . S
N1458 C1450 1.356 . S
N1458 H1464 0.984 . S
N1458 H1465 0.984 . S
N1459 C1452 1.356 . S
N1459 H1462 0.984 . S
N1459 H1463 0.985 . S
H1460 N1455 0.984 1_554 S
H1461 N1455 0.985 . S
H1462 N1459 0.984 . S
H1463 N1459 0.985 . S
H1464 N1458 0.984 . S
H1465 N1458 0.984 . S
H1466 N1454 0.984 . S
H1467 N1454 0.985 . S
C1468 C1469 1.363 . S
C1468 C1474 1.379 . S
C1468 N1476 1.356 . S
C1469 C1468 1.363 . S
C1469 C1475 1.363 . S
C1470 C1471 1.363 . S
C1470 C1475 1.379 . S
C1470 N1477 1.356 . S
C1471 C1470 1.363 . S
C1471 C1474 1.363 . S
N1472 C1474 1.356 . S
N1472 H1484 0.984 . S
N1472 H1485 0.985 . S
N1473 C1475 1.356 . S
N1473 H1478 0.984 . S
N1473 H1479 0.985 . S
C1474 C1468 1.379 . S
C1474 C1471 1.363 . S
C1474 N1472 1.356 . S
C1475 C1469 1.363 . S
C1475 C1470 1.379 . S
C1475 N1473 1.356 . S
N1476 C1468 1.356 . S
N1476 H1482 0.984 . S
N1476 H1483 0.984 1_554 S
N1477 C1470 1.356 . S
N1477 H1480 0.984 . S
N1477 H1481 0.985 . S
H1478 N1473 0.984 . S
H1479 N1473 0.985 . S
H1480 N1477 0.984 . S
H1481 N1477 0.985 . S
H1482 N1476 0.984 . S
H1483 N1476 0.984 1_556 S
H1484 N1472 0.984 . S
H1485 N1472 0.985 . S
C1486 C1487 1.363 . S
C1486 C1492 1.379 . S
C1486 N1494 1.356 . S
C1487 C1486 1.363 . S
C1487 C1493 1.363 . S
C1488 C1489 1.363 . S
C1488 C1493 1.379 . S
C1488 N1495 1.356 . S
C1489 C1488 1.363 . S
C1489 C1492 1.363 . S
N1490 C1492 1.356 . S
N1490 H1502 0.984 . S
N1490 H1503 0.985 1_556 S
N1491 C1493 1.356 . S
N1491 H1496 0.984 . S
N1491 H1497 0.985 . S
C1492 C1486 1.379 . S
C1492 C1489 1.363 . S
C1492 N1490 1.356 . S
C1493 C1487 1.363 . S
C1493 C1488 1.379 . S
C1493 N1491 1.356 . S
N1494 C1486 1.356 . S
N1494 H1500 0.984 . S
N1494 H1501 0.984 . S
N1495 C1488 1.356 . S
N1495 H1498 0.984 . S
N1495 H1499 0.985 . S
H1496 N1491 0.984 . S
H1497 N1491 0.985 . S
H1498 N1495 0.984 . S
H1499 N1495 0.985 . S
H1500 N1494 0.984 . S
H1501 N1494 0.984 . S
H1502 N1490 0.984 . S
H1503 N1490 0.985 1_554 S
C641 C452 1.801 . S
C643 C2 1.755 1_565 S
C659 C351 1.801 . S
C661 C57 1.755 1_655 S
C677 C82 1.755 1_545 S
C679 C372 1.801 . S
C695 C137 1.755 1_455 S
C697 C431 1.801 . S
C713 C162 1.755 . S
C715 C212 1.801 1_554 S
C731 C271 1.801 1_556 S
C733 C217 1.755 . S
C749 C242 1.755 . S
C751 C292 1.801 1_554 S
C767 C191 1.801 1_556 S
C769 C297 1.755 . S
C785 C132 1.801 . S
C787 C322 1.755 . S
C803 C377 1.755 . S
C805 C31 1.801 . S
C821 C52 1.801 . S
C823 C402 1.755 . S
C839 C111 1.801 . S
C841 C457 1.755 . S
C857 C482 1.755 1_545 S
C859 C532 1.801 . S
C875 C591 1.801 . S
C877 C537 1.755 1_455 S
C893 C612 1.801 . S
C895 C562 1.755 1_565 S
C911 C617 1.755 1_655 S
C913 C511 1.801 . S
C929 C17 1.259 . S
C931 C177 1.259 . S
C947 C202 1.259 . S
C949 C42 1.259 . S
C965 C97 1.259 . S
C967 C257 1.259 . S
C983 C122 1.259 . S
C985 C282 1.259 . S
C1001 C337 1.259 . S
C1003 C497 1.259 . S
C1019 C522 1.259 . S
C1021 C362 1.259 . S
C1037 C417 1.259 . S
C1039 C577 1.259 . S
C1055 C442 1.259 . S
C1057 C602 1.259 . S
C1073 C572 2.513 . S
C1075 C12 2.513 1_556 S
C1091 C71 2.513 1_554 S
C1093 C631 2.513 . S
C1109 C92 2.513 1_556 S
C1111 C492 2.513 . S
C1127 C151 2.513 1_554 S
C1129 C551 2.513 . S
C1145 C172 2.513 . S
C1147 C412 2.513 . S
C1163 C231 2.513 . S
C1165 C471 2.513 . S
C1181 C252 2.513 . S
C1183 C332 2.513 . S
C1199 C391 2.513 . S
C1201 C311 2.513 . S
C1217 C8 1.200 . S
C1219 C29 1.200 . S
C1235 C69 1.200 . S
C1237 C48 1.200 . S
C1253 C88 1.200 . S
C1255 C109 1.200 . S
C1271 C128 1.200 . S
C1273 C149 1.200 . S
C1289 C189 1.200 . S
C1291 C168 1.200 . S
C1307 C229 1.200 . S
C1309 C208 1.200 . S
C1325 C248 1.200 . S
C1327 C269 1.200 . S
C1343 C288 1.200 . S
C1345 C309 1.200 . S
C1361 C328 1.200 . S
C1363 C349 1.200 . S
C1379 C368 1.200 . S
C1381 C389 1.200 . S
C1397 C429 1.200 . S
C1399 C408 1.200 . S
C1415 C469 1.200 . S
C1417 C448 1.200 . S
C1433 C488 1.200 . S
C1435 C509 1.200 . S
C1451 C528 1.200 . S
C1453 C549 1.200 . S
C1469 C589 1.200 . S
C1471 C568 1.200 . S
C1487 C629 1.200 . S
C1489 C608 1.200 . S
