# Generated by pormake.
# Topology bcs, (6)-cn, num edge types: 1
# Building blocks:
#     Node 0, Type 0, BuildingBlock: GEDQOX_clean_sbu_0, # of connection points: 6
#     Node 1, Type 0, BuildingBlock: GEDQOX_clean_sbu_0, # of connection points: 6
#     Node 2, Type 0, BuildingBlock: GEDQOX_clean_sbu_0, # of connection points: 6
#     Node 3, Type 0, BuildingBlock: GEDQOX_clean_sbu_0, # of connection points: 6
#     Node 4, Type 0, BuildingBlock: GEDQOX_clean_sbu_0, # of connection points: 6
#     Node 5, Type 0, BuildingBlock: GEDQOX_clean_sbu_0, # of connection points: 6
#     Node 6, Type 0, BuildingBlock: GEDQOX_clean_sbu_0, # of connection points: 6
#     Node 7, Type 0, BuildingBlock: GEDQOX_clean_sbu_0, # of connection points: 6
#     Node 8, Type 0, BuildingBlock: GEDQOX_clean_sbu_0, # of connection points: 6
#     Node 9, Type 0, BuildingBlock: GEDQOX_clean_sbu_0, # of connection points: 6
#     Node 10, Type 0, BuildingBlock: GEDQOX_clean_sbu_0, # of connection points: 6
#     Node 11, Type 0, BuildingBlock: GEDQOX_clean_sbu_0, # of connection points: 6
#     Node 12, Type 0, BuildingBlock: GEDQOX_clean_sbu_0, # of connection points: 6
#     Node 13, Type 0, BuildingBlock: GEDQOX_clean_sbu_0, # of connection points: 6
#     Node 14, Type 0, BuildingBlock: GEDQOX_clean_sbu_0, # of connection points: 6
#     Node 15, Type 0, BuildingBlock: GEDQOX_clean_sbu_0, # of connection points: 6
#     Edge 16, Type (0, 0), BuildingBlock: UVAHIK_clean_linker_0, # of connection points: 2
#     Edge 17, Type (0, 0), BuildingBlock: UVAHIK_clean_linker_0, # of connection points: 2
#     Edge 18, Type (0, 0), BuildingBlock: UVAHIK_clean_linker_0, # of connection points: 2
#     Edge 19, Type (0, 0), BuildingBlock: UVAHIK_clean_linker_0, # of connection points: 2
#     Edge 20, Type (0, 0), BuildingBlock: UVAHIK_clean_linker_0, # of connection points: 2
#     Edge 21, Type (0, 0), BuildingBlock: UVAHIK_clean_linker_0, # of connection points: 2
#     Edge 22, Type (0, 0), BuildingBlock: UVAHIK_clean_linker_0, # of connection points: 2
#     Edge 23, Type (0, 0), BuildingBlock: UVAHIK_clean_linker_0, # of connection points: 2
#     Edge 24, Type (0, 0), BuildingBlock: UVAHIK_clean_linker_0, # of connection points: 2
#     Edge 25, Type (0, 0), BuildingBlock: UVAHIK_clean_linker_0, # of connection points: 2
#     Edge 26, Type (0, 0), BuildingBlock: UVAHIK_clean_linker_0, # of connection points: 2
#     Edge 27, Type (0, 0), BuildingBlock: UVAHIK_clean_linker_0, # of connection points: 2
#     Edge 28, Type (0, 0), BuildingBlock: UVAHIK_clean_linker_0, # of connection points: 2
#     Edge 29, Type (0, 0), BuildingBlock: UVAHIK_clean_linker_0, # of connection points: 2
#     Edge 30, Type (0, 0), BuildingBlock: UVAHIK_clean_linker_0, # of connection points: 2
#     Edge 31, Type (0, 0), BuildingBlock: UVAHIK_clean_linker_0, # of connection points: 2
#     Edge 32, Type (0, 0), BuildingBlock: UVAHIK_clean_linker_0, # of connection points: 2
#     Edge 33, Type (0, 0), BuildingBlock: UVAHIK_clean_linker_0, # of connection points: 2
#     Edge 34, Type (0, 0), BuildingBlock: UVAHIK_clean_linker_0, # of connection points: 2
#     Edge 35, Type (0, 0), BuildingBlock: UVAHIK_clean_linker_0, # of connection points: 2
#     Edge 36, Type (0, 0), BuildingBlock: UVAHIK_clean_linker_0, # of connection points: 2
#     Edge 37, Type (0, 0), BuildingBlock: UVAHIK_clean_linker_0, # of connection points: 2
#     Edge 38, Type (0, 0), BuildingBlock: UVAHIK_clean_linker_0, # of connection points: 2
#     Edge 39, Type (0, 0), BuildingBlock: UVAHIK_clean_linker_0, # of connection points: 2
#     Edge 40, Type (0, 0), BuildingBlock: UVAHIK_clean_linker_0, # of connection points: 2
#     Edge 41, Type (0, 0), BuildingBlock: UVAHIK_clean_linker_0, # of connection points: 2
#     Edge 42, Type (0, 0), BuildingBlock: UVAHIK_clean_linker_0, # of connection points: 2
#     Edge 43, Type (0, 0), BuildingBlock: UVAHIK_clean_linker_0, # of connection points: 2
#     Edge 44, Type (0, 0), BuildingBlock: UVAHIK_clean_linker_0, # of connection points: 2
#     Edge 45, Type (0, 0), BuildingBlock: UVAHIK_clean_linker_0, # of connection points: 2
#     Edge 46, Type (0, 0), BuildingBlock: UVAHIK_clean_linker_0, # of connection points: 2
#     Edge 47, Type (0, 0), BuildingBlock: UVAHIK_clean_linker_0, # of connection points: 2
#     Edge 48, Type (0, 0), BuildingBlock: UVAHIK_clean_linker_0, # of connection points: 2
#     Edge 49, Type (0, 0), BuildingBlock: UVAHIK_clean_linker_0, # of connection points: 2
#     Edge 50, Type (0, 0), BuildingBlock: UVAHIK_clean_linker_0, # of connection points: 2
#     Edge 51, Type (0, 0), BuildingBlock: UVAHIK_clean_linker_0, # of connection points: 2
#     Edge 52, Type (0, 0), BuildingBlock: UVAHIK_clean_linker_0, # of connection points: 2
#     Edge 53, Type (0, 0), BuildingBlock: UVAHIK_clean_linker_0, # of connection points: 2
#     Edge 54, Type (0, 0), BuildingBlock: UVAHIK_clean_linker_0, # of connection points: 2
#     Edge 55, Type (0, 0), BuildingBlock: UVAHIK_clean_linker_0, # of connection points: 2
#     Edge 56, Type (0, 0), BuildingBlock: UVAHIK_clean_linker_0, # of connection points: 2
#     Edge 57, Type (0, 0), BuildingBlock: UVAHIK_clean_linker_0, # of connection points: 2
#     Edge 58, Type (0, 0), BuildingBlock: UVAHIK_clean_linker_0, # of connection points: 2
#     Edge 59, Type (0, 0), BuildingBlock: UVAHIK_clean_linker_0, # of connection points: 2
#     Edge 60, Type (0, 0), BuildingBlock: UVAHIK_clean_linker_0, # of connection points: 2
#     Edge 61, Type (0, 0), BuildingBlock: UVAHIK_clean_linker_0, # of connection points: 2
#     Edge 62, Type (0, 0), BuildingBlock: UVAHIK_clean_linker_0, # of connection points: 2
#     Edge 63, Type (0, 0), BuildingBlock: UVAHIK_clean_linker_0, # of connection points: 2
# Relax obj value: 0.329
# Max RMSD: 0.304
# Mean RMSD: 0.221
data_MOF--net-bcs--node1-GEDQOX_clean_sbu_0--edge1-UVAHIK_clean_linker_0
_symmetry_space_group_name_H-M    P1
_symmetry_Int_Tables_number       1
_symmetry_cell_setting            triclinic
loop_
_symmetry_equiv_pos_as_xyz
'x, y, z'
_cell_length_a     51.938727
_cell_length_b     53.145468
_cell_length_c     50.729105
_cell_angle_alpha  114.74561
_cell_angle_beta   92.891197
_cell_angle_gamma 95.73946
loop_
_atom_site_label
_atom_site_type_symbol
_atom_site_fract_x
_atom_site_fract_y
_atom_site_fract_z
_atom_type_partial_charge
Nd0 Nd 0.04244 1.01192 0.02909 0.0
Nd1 Nd 1.00556 1.01333 0.97519 0.0
C2 C 0.08062 1.01237 0.06686 0.0
C3 C 0.09149 0.99293 0.07815 0.0
C4 C 0.10289 0.96947 0.06001 0.0
C5 C 0.11443 0.95257 0.07133 0.0
C6 C 0.1151 0.95841 0.10126 0.0
C7 C 0.10341 0.98176 0.11926 0.0
C8 C 0.09192 0.99867 0.10794 0.0
C9 C 0.99814 0.9728 0.0149 0.0
C10 C 0.05061 0.97079 0.96027 0.0
C11 C 0.96766 1.01186 0.9367 0.0
C12 C 0.9572 0.03081 0.92452 0.0
C13 C 0.94467 0.05376 0.94155 0.0
C14 C 0.93375 0.0703 0.92935 0.0
C15 C 0.93484 0.0645 0.89959 0.0
C16 C 0.94764 0.04166 0.88272 0.0
C17 C 0.95854 0.02515 0.89493 0.0
C18 C 0.0498 0.05236 0.98904 0.0
C19 C 0.99805 0.05557 0.04394 0.0
O20 O 0.0836 1.00818 0.03991 0.0
O21 O 0.05808 0.02061 0.07455 0.0
O22 O 1.017 0.97657 0.03425 0.0
O23 O 1.00394 0.98858 1.0024 0.0
O24 O 0.06026 0.98427 0.98796 0.0
O25 O 0.0279 0.97524 0.9506 0.0
O26 O 0.96443 0.01679 0.96381 0.0
O27 O 0.9902 1.0034 0.92941 0.0
O28 O 0.03101 0.04827 0.96949 0.0
O29 O 0.04418 0.03665 1.00171 0.0
O30 O 0.98852 0.04272 0.01615 0.0
O31 O 1.02003 0.0499 0.05388 0.0
H32 H 0.10309 0.96418 0.03697 0.0
H33 H 0.12272 0.93473 0.05641 0.0
H34 H 0.10365 0.98751 0.14242 0.0
H35 H 0.08367 0.01664 0.12273 0.0
H36 H 0.94297 0.05885 0.96436 0.0
H37 H 0.92389 0.08731 0.94323 0.0
H38 H 0.94945 0.0365 0.85993 0.0
H39 H 0.96789 1.00766 0.88101 0.0
Nd40 Nd 0.27171 0.7847 0.28239 0.0
Nd41 Nd 0.27514 0.73786 0.22228 0.0
C42 C 0.28209 0.82286 0.3366 0.0
C43 C 0.28523 0.81935 0.36394 0.0
C44 C 0.30501 0.80502 0.3687 0.0
C45 C 0.30292 0.79359 0.38891 0.0
C46 C 0.28092 0.79606 0.40443 0.0
C47 C 0.26305 0.81357 0.40239 0.0
C48 C 0.2653 0.82524 0.38244 0.0
C49 C 0.23119 0.74219 0.26301 0.0
C50 C 0.3013 0.72905 0.27688 0.0
C51 C 0.26516 0.70013 0.16784 0.0
C52 C 0.26175 0.70454 0.14107 0.0
C53 C 0.24303 0.72089 0.13827 0.0
C54 C 0.24601 0.73412 0.11973 0.0
C55 C 0.26766 0.73107 0.10369 0.0
C56 C 0.28406 0.71142 0.10323 0.0
C57 C 0.28109 0.69821 0.12179 0.0
C58 C 0.31539 0.78068 0.24182 0.0
C59 C 0.24576 0.79378 0.22792 0.0
O60 O 0.30013 0.81472 0.31878 0.0
O61 O 0.25854 0.81494 0.32302 0.0
O62 O 0.22802 0.76821 0.27746 0.0
O63 O 0.25478 0.73962 0.26053 0.0
O64 O 0.29821 0.75565 0.2927 0.0
O65 O 0.29122 0.71592 0.24926 0.0
O66 O 0.24708 0.70742 0.18574 0.0
O67 O 0.28869 0.70836 0.18145 0.0
O68 O 0.31895 0.75473 0.22781 0.0
O69 O 0.29175 0.78287 0.24395 0.0
O70 O 0.24839 0.76699 0.21218 0.0
O71 O 0.25624 0.80687 0.25538 0.0
H72 H 0.32097 0.80059 0.35521 0.0
H73 H 0.31745 0.78095 0.39064 0.0
H74 H 0.24585 0.81606 0.41397 0.0
H75 H 0.24999 0.83655 0.37948 0.0
H76 H 0.2275 0.72567 0.15235 0.0
H77 H 0.23274 0.74867 0.11994 0.0
H78 H 0.3009 0.70855 0.09103 0.0
H79 H 0.29559 0.68543 0.1233 0.0
Nd80 Nd 0.53032 0.03999 0.49281 0.0
Nd81 Nd 0.51122 0.99306 0.51058 0.0
C82 C 0.55572 0.08056 0.48341 0.0
C83 C 0.54892 0.10548 0.48052 0.0
C84 C 0.5676 0.12905 0.48885 0.0
C85 C 0.56127 0.15275 0.48585 0.0
C86 C 0.53614 0.15314 0.47439 0.0
C87 C 0.51746 0.12942 0.4663 0.0
C88 C 0.52374 0.1059 0.46953 0.0
C89 C 0.48851 1.00367 0.45823 0.0
C90 C 0.48188 0.05084 0.53214 0.0
C91 C 0.48635 0.95271 0.52073 0.0
C92 C 0.494 0.92893 0.5253 0.0
C93 C 0.47514 0.90728 0.52327 0.0
C94 C 0.48234 0.88537 0.52921 0.0
C95 C 0.50854 0.88493 0.5374 0.0
C96 C 0.5274 0.90653 0.53881 0.0
C97 C 0.52021 0.92823 0.53266 0.0
C98 C 0.55372 0.02858 0.54403 0.0
C99 C 0.55973 0.98235 0.47121 0.0
O100 O 0.55508 0.08112 0.5094 0.0
O101 O 0.54553 0.05651 0.4625 0.0
O102 O 0.49123 0.03021 0.46451 0.0
O103 O 0.50794 0.99736 0.46871 0.0
O104 O 0.50086 0.06304 0.52336 0.0
O105 O 0.48027 0.02391 0.52649 0.0
O106 O 0.48768 0.95129 0.49446 0.0
O107 O 0.49555 0.97735 0.54129 0.0
O108 O 0.55082 1.00204 0.53771 0.0
O109 O 0.53407 0.03534 0.53447 0.0
O110 O 0.54068 0.97005 0.47985 0.0
O111 O 0.56128 1.00927 0.47687 0.0
H112 H 0.58708 0.1291 0.49761 0.0
H113 H 0.576 0.17078 0.49263 0.0
H114 H 0.49807 0.12874 0.45691 0.0
H115 H 0.50898 0.08794 0.46315 0.0
H116 H 0.45483 0.9075 0.51745 0.0
H117 H 0.46739 0.86889 0.52754 0.0
H118 H 0.54767 0.90717 0.54552 0.0
H119 H 0.53504 0.94481 0.53427 0.0
Nd120 Nd 0.28131 0.28828 0.7402 0.0
Nd121 Nd 0.26687 0.24848 0.76882 0.0
C122 C 0.2868 0.32085 0.71212 0.0
C123 C 0.30417 0.3302 0.69418 0.0
C124 C 0.2964 0.32245 0.66453 0.0
C125 C 0.3111 0.33312 0.648 0.0
C126 C 0.33407 0.3521 0.66058 0.0
C127 C 0.34203 0.35952 0.69021 0.0
C128 C 0.32731 0.34883 0.70674 0.0
C129 C 0.32163 0.28395 0.77454 0.0
C130 C 0.30306 0.22799 0.71537 0.0
C131 C 0.2581 0.22175 0.80279 0.0
C132 C 0.2396 0.21137 0.81907 0.0
C133 C 0.23631 0.22777 0.84852 0.0
C134 C 0.2217 0.21646 0.86466 0.0
C135 C 0.21002 0.18828 0.85199 0.0
C136 C 0.21299 0.17212 0.82235 0.0
C137 C 0.22752 0.18343 0.80625 0.0
C138 C 0.23544 0.23897 0.71919 0.0
C139 C 0.24145 0.30773 0.79256 0.0
O140 O 0.27433 0.29531 0.70015 0.0
O141 O 0.29412 0.32938 0.73998 0.0
O142 O 0.32421 0.28671 0.75064 0.0
O143 O 0.29846 0.28519 0.78088 0.0
O144 O 0.29272 0.24602 0.70754 0.0
O145 O 0.29957 0.22804 0.74113 0.0
O146 O 0.26694 0.24837 0.81301 0.0
O147 O 0.25524 0.20963 0.77431 0.0
O148 O 0.24289 0.21934 0.72538 0.0
O149 O 0.24393 0.26249 0.73935 0.0
O150 O 0.24142 0.28287 0.79279 0.0
O151 O 0.25582 0.31509 0.77533 0.0
H152 H 0.2786 0.30841 0.65413 0.0
H153 H 0.30436 0.3264 0.62525 0.0
H154 H 0.35931 0.37429 0.70102 0.0
H155 H 0.33387 0.35566 0.72957 0.0
H156 H 0.24553 0.24924 0.85936 0.0
H157 H 0.21972 0.22988 0.88721 0.0
H158 H 0.20485 0.15028 0.81167 0.0
H159 H 0.22998 0.16987 0.78387 0.0
Nd160 Nd 0.99849 1.01306 0.52497 0.0
Nd161 Nd 0.04385 0.02071 0.49413 0.0
C162 C 0.96486 1.0083 0.56137 0.0
C163 C 0.95476 0.99095 0.57629 0.0
C164 C 0.95642 0.96215 0.56527 0.0
C165 C 0.9447 0.94598 0.5786 0.0
C166 C 0.93093 0.95815 0.60325 0.0
C167 C 0.92976 0.98714 0.61434 0.0
C168 C 0.9415 1.00322 0.60107 0.0
C169 C 0.99678 0.97307 0.4687 0.0
C170 C 0.05195 0.98515 0.53127 0.0
C171 C 0.07785 0.02593 0.45825 0.0
C172 C 0.08826 0.04284 0.44298 0.0
C173 C 0.1024 0.03029 0.41901 0.0
C174 C 0.11458 0.04594 0.40556 0.0
C175 C 0.113 0.07476 0.41561 0.0
C176 C 0.09817 0.0872 0.43923 0.0
C177 C 0.08606 0.07147 0.45284 0.0
C178 C 0.04482 0.06107 0.55043 0.0
C179 C 0.99046 0.04817 0.4872 0.0
O180 O 0.98814 0.02253 0.5702 0.0
O181 O 0.95957 0.99803 0.53309 0.0
O182 O 0.97707 0.98498 0.48026 0.0
O183 O 1.01677 0.98193 0.48683 0.0
O184 O 0.03089 0.99527 0.54312 0.0
O185 O 0.05928 0.98854 0.50824 0.0
O186 O 0.05476 1.01132 0.44909 0.0
O187 O 0.0827 0.03659 0.48659 0.0
O188 O 0.0646 0.04895 0.53937 0.0
O189 O 0.0252 0.05186 0.53184 0.0
O190 O 1.0115 0.03798 0.47545 0.0
O191 O 0.98311 0.04505 0.51039 0.0
H192 H 0.96649 0.95208 0.54615 0.0
H193 H 0.9465 0.9239 0.56952 0.0
H194 H 0.9191 0.99743 0.63286 0.0
H195 H 0.93968 0.02531 0.60987 0.0
H196 H 0.10447 1.0083 0.41096 0.0
H197 H 0.12534 0.03537 0.3872 0.0
H198 H 0.09655 0.10931 0.44777 0.0
H199 H 0.07539 0.08177 0.47138 0.0
Nd200 Nd 0.267 0.77026 0.72697 0.0
Nd201 Nd 0.28108 0.75441 0.77814 0.0
C202 C 0.25473 0.79478 0.69234 0.0
C203 C 0.23623 0.81096 0.68412 0.0
C204 C 0.24361 0.83929 0.69045 0.0
C205 C 0.22799 0.85371 0.67953 0.0
C206 C 0.2045 0.84025 0.66167 0.0
C207 C 0.19687 0.81204 0.65591 0.0
C208 C 0.21247 0.79765 0.66686 0.0
C209 C 0.24662 0.71831 0.71979 0.0
C210 C 0.23307 0.79101 0.7854 0.0
C211 C 0.29276 0.72994 0.81297 0.0
C212 C 0.30998 0.7131 0.82172 0.0
C213 C 0.2986 0.69068 0.82693 0.0
C214 C 0.31371 0.67656 0.83868 0.0
C215 C 0.34082 0.68436 0.84567 0.0
C216 C 0.35234 0.70633 0.8396 0.0
C217 C 0.33715 0.72057 0.82793 0.0
C218 C 0.30313 0.80583 0.78403 0.0
C219 C 0.31525 0.73385 0.71985 0.0
O220 O 0.27051 0.80736 0.71647 0.0
O221 O 0.24704 0.76858 0.68636 0.0
O222 O 0.25492 0.72373 0.69879 0.0
O223 O 0.24763 0.74008 0.74328 0.0
O224 O 0.24067 0.79468 0.76249 0.0
O225 O 0.24344 0.77345 0.79392 0.0
O226 O 0.27663 0.71759 0.78914 0.0
O227 O 0.3017 0.75567 0.81825 0.0
O228 O 0.29465 0.80121 0.80547 0.0
O229 O 0.30092 0.78355 0.761 0.0
O230 O 0.30771 0.73015 0.7428 0.0
O231 O 0.30478 0.75139 0.71131 0.0
H232 H 0.26194 0.85017 0.70318 0.0
H233 H 0.2349 0.87522 0.68429 0.0
H234 H 0.17881 0.80088 0.64274 0.0
H235 H 0.20611 0.77581 0.66118 0.0
H236 H 0.27775 0.68448 0.8226 0.0
H237 H 0.30401 0.65953 0.84244 0.0
H238 H 0.37305 0.71322 0.84478 0.0
H239 H 0.34662 0.73787 0.82445 0.0
Nd240 Nd 0.52292 0.03385 0.99195 0.0
Nd241 Nd 0.52187 0.99664 0.02151 0.0
C242 C 0.52689 0.05764 0.95563 0.0
C243 C 0.55003 0.06926 0.94711 0.0
C244 C 0.57472 0.06679 0.9576 0.0
C245 C 0.5969 0.08145 0.95378 0.0
C246 C 0.59473 0.09875 0.93933 0.0
C247 C 0.57008 0.09996 0.92743 0.0
C248 C 0.5478 0.08539 0.93146 0.0
C249 C 0.55359 0.05559 0.04406 0.0
C250 C 0.56385 0.9864 0.97573 0.0
C251 C 0.51794 0.97263 0.05765 0.0
C252 C 0.49513 0.96021 0.06595 0.0
C253 C 0.49735 0.95277 0.08928 0.0
C254 C 0.47578 0.93894 0.09548 0.0
C255 C 0.45178 0.93216 0.0782 0.0
C256 C 0.4496 0.94064 0.05546 0.0
C257 C 0.47103 0.95467 0.04952 0.0
C258 C 0.4908 0.97547 0.96957 0.0
C259 C 0.48123 0.04451 0.03809 0.0
O260 O 0.52372 0.03053 0.94691 0.0
O261 O 0.52314 0.07117 0.98301 0.0
O262 O 0.53955 0.07007 0.03555 0.0
O263 O 0.5523 0.03094 0.02495 0.0
O264 O 0.54971 1.00086 0.96615 0.0
O265 O 0.56009 0.98587 1.00105 0.0
O266 O 0.52024 0.99971 0.06641 0.0
O267 O 0.52232 0.95939 0.03041 0.0
O268 O 0.50497 0.96069 0.97747 0.0
O269 O 0.49234 0.99993 0.98904 0.0
O270 O 0.49521 0.02979 0.04749 0.0
O271 O 0.48494 0.04506 0.01276 0.0
H272 H 0.57672 0.05447 0.96987 0.0
H273 H 0.61569 0.07997 0.96291 0.0
H274 H 0.5679 0.11333 0.91639 0.0
H275 H 0.52883 0.08763 0.92343 0.0
H276 H 0.51582 0.95716 0.10231 0.0
H277 H 0.47803 0.93317 0.11348 0.0
H278 H 0.43164 0.93546 0.04139 0.0
H279 H 0.469 0.96043 0.03146 0.0
Nd280 Nd 0.29064 0.27664 0.27973 0.0
Nd281 Nd 0.25065 0.25214 0.23185 0.0
C282 C 0.32709 0.30832 0.3225 0.0
C283 C 0.35276 0.30491 0.33286 0.0
C284 C 0.37009 0.32838 0.35147 0.0
C285 C 0.39388 0.32506 0.36297 0.0
C286 C 0.40057 0.29815 0.35612 0.0
C287 C 0.38332 0.27473 0.33668 0.0
C288 C 0.35973 0.27811 0.32503 0.0
C289 C 0.25946 0.23232 0.28209 0.0
C290 C 0.30548 0.22401 0.22469 0.0
C291 C 0.21385 0.22201 0.18892 0.0
C292 C 0.18781 0.22651 0.18065 0.0
C293 C 0.1727 0.24272 0.20199 0.0
C294 C 0.15017 0.25111 0.19384 0.0
C295 C 0.14256 0.24373 0.16425 0.0
C296 C 0.15698 0.22615 0.14292 0.0
C297 C 0.17943 0.21762 0.1511 0.0
C298 C 0.28197 0.29666 0.23003 0.0
C299 C 0.23557 0.30415 0.28717 0.0
O300 O 0.32518 0.30925 0.29717 0.0
O301 O 0.30748 0.29274 0.32556 0.0
O302 O 0.28471 0.23608 0.28624 0.0
O303 O 0.25152 0.25125 0.27607 0.0
O304 O 0.31551 0.24647 0.24816 0.0
O305 O 0.28023 0.21981 0.21644 0.0
O306 O 0.217 0.2186 0.21288 0.0
O307 O 0.2329 0.2387 0.18665 0.0
O308 O 0.25673 0.29325 0.22633 0.0
O309 O 0.28978 0.2774 0.23554 0.0
O310 O 0.22557 0.28135 0.26409 0.0
O311 O 0.26095 0.3089 0.2948 0.0
H312 H 0.36501 0.34924 0.35751 0.0
H313 H 0.40683 0.34353 0.37752 0.0
H314 H 0.38751 0.25368 0.33127 0.0
H315 H 0.34657 0.25974 0.31055 0.0
H316 H 0.17891 0.24996 0.22498 0.0
H317 H 0.13929 0.26431 0.21077 0.0
H318 H 0.1519 0.22037 0.11997 0.0
H319 H 0.19101 0.20532 0.13437 0.0
Nd320 Nd 0.50019 0.50895 0.02059 0.0
Nd321 Nd 0.54558 0.51653 0.98964 0.0
C322 C 0.46638 0.50427 0.05686 0.0
C323 C 0.45583 0.48731 0.07203 0.0
C324 C 0.44211 0.49997 0.09634 0.0
C325 C 0.42968 0.48426 0.1096 0.0
C326 C 0.43061 0.45528 0.099 0.0
C327 C 0.44505 0.44272 0.07506 0.0
C328 C 0.4574 0.45851 0.06164 0.0
C329 C 0.49886 0.46859 0.96452 0.0
C330 C 0.55365 0.48125 0.02714 0.0
C331 C 0.57949 0.52148 0.9536 0.0
C332 C 0.58999 0.53925 0.93931 0.0
C333 C 0.58928 0.56827 0.95136 0.0
C334 C 0.6014 0.58476 0.93862 0.0
C335 C 0.61464 0.57269 0.9135 0.0
C336 C 0.61483 0.5435 0.90135 0.0
C337 C 0.60269 0.5271 0.91405 0.0
C338 C 0.54678 0.55694 0.04577 0.0
C339 C 0.49212 0.54396 0.98262 0.0
O340 O 0.48966 0.51848 0.0658 0.0
O341 O 0.46125 0.49382 0.02856 0.0
O342 O 0.47903 0.48043 0.9758 0.0
O343 O 0.51874 0.4778 0.98277 0.0
O344 O 0.53263 0.49143 0.03903 0.0
O345 O 0.56085 0.48441 1.00394 0.0
O346 O 0.55605 0.5077 0.94458 0.0
O347 O 0.58478 0.53112 0.98182 0.0
O348 O 0.56659 0.54497 0.03458 0.0
O349 O 0.52701 0.54775 0.0274 0.0
O350 O 0.5133 0.53398 0.97105 0.0
O351 O 0.48464 0.54067 1.00568 0.0
H352 H 0.44051 0.5221 0.10479 0.0
H353 H 0.41924 0.4949 0.12822 0.0
H354 H 0.44615 0.42049 0.06609 0.0
H355 H 0.46772 0.44811 0.04283 0.0
H356 H 0.57966 0.57826 0.97087 0.0
H357 H 0.60037 0.60701 0.9485 0.0
H358 H 0.62504 0.53327 0.88242 0.0
H359 H 0.60377 0.50483 0.90444 0.0
Nd360 Nd 0.7679 0.27584 0.23085 0.0
Nd361 Nd 0.78488 0.25541 0.27746 0.0
C362 C 0.76007 0.29679 0.19201 0.0
C363 C 0.74255 0.31268 0.18223 0.0
C364 C 0.75353 0.33378 0.17476 0.0
C365 C 0.73783 0.34759 0.16321 0.0
C366 C 0.71052 0.34077 0.15869 0.0
C367 C 0.69949 0.31999 0.16682 0.0
C368 C 0.71526 0.3061 0.17834 0.0
C369 C 0.73377 0.23558 0.23553 0.0
C370 C 0.7417 0.30122 0.29167 0.0
C371 C 0.79246 0.23447 0.31637 0.0
C372 C 0.81036 0.2193 0.32692 0.0
C373 C 0.80352 0.19082 0.32026 0.0
C374 C 0.81871 0.17698 0.33232 0.0
C375 C 0.84127 0.19116 0.35166 0.0
C376 C 0.84829 0.21961 0.35799 0.0
C377 C 0.83308 0.23345 0.3459 0.0
C378 C 0.81882 0.29614 0.27308 0.0
C379 C 0.81121 0.22988 0.21659 0.0
O380 O 0.77501 0.31029 0.21663 0.0
O381 O 0.7513 0.27121 0.18755 0.0
O382 O 0.72665 0.2562 0.2309 0.0
O383 O 0.75803 0.23572 0.23605 0.0
O384 O 0.74896 0.30614 0.26946 0.0
O385 O 0.75054 0.28099 0.29714 0.0
O386 O 0.77851 0.22061 0.29111 0.0
O387 O 0.80012 0.2605 0.32149 0.0
O388 O 0.82609 0.2756 0.27775 0.0
O389 O 0.79453 0.29564 0.27247 0.0
O390 O 0.80471 0.22571 0.23947 0.0
O391 O 0.80157 0.24934 0.21034 0.0
H392 H 0.77445 0.33933 0.17742 0.0
H393 H 0.74721 0.36372 0.15784 0.0
H394 H 0.67864 0.31386 0.16355 0.0
H395 H 0.7061 0.28989 0.18374 0.0
H396 H 0.78596 0.17929 0.30618 0.0
H397 H 0.81223 0.15528 0.3271 0.0
H398 H 0.86563 0.23134 0.37235 0.0
H399 H 0.83897 0.25543 0.35186 0.0
Nd400 Nd 0.02904 0.53704 0.49703 0.0
Nd401 Nd 1.02007 0.49723 0.52408 0.0
C402 C 0.03154 0.57034 0.47043 0.0
C403 C 0.05333 0.58223 0.46016 0.0
C404 C 0.07738 0.5721 0.459 0.0
C405 C 0.0992 0.58578 0.45322 0.0
C406 C 0.09731 0.60982 0.44854 0.0
C407 C 0.07294 0.61928 0.44868 0.0
C408 C 0.05111 0.60561 0.45457 0.0
C409 C 0.06823 0.54239 0.53809 0.0
C410 C 0.06099 0.48351 0.47589 0.0
C411 C 1.0119 0.472 0.55863 0.0
C412 C 0.98825 0.46597 0.57078 0.0
C413 C 0.98985 0.46311 0.59699 0.0
C414 C 0.96724 0.45582 0.6075 0.0
C415 C 0.94271 0.45099 0.59173 0.0
C416 C 0.94131 0.455 0.566 0.0
C417 C 0.9638 0.46265 0.5558 0.0
C418 C 0.99341 0.47996 0.47022 0.0
C419 C 0.98445 0.54869 0.54341 0.0
O420 O 0.02485 0.54322 0.45652 0.0
O421 O 0.03269 0.57949 0.49881 0.0
O422 O 0.0724 0.54417 0.51398 0.0
O423 O 0.04435 0.53896 0.54034 0.0
O424 O 0.04811 0.4991 0.46664 0.0
O425 O 0.05734 0.48363 0.50164 0.0
O426 O 1.02148 0.49832 0.56847 0.0
O427 O 1.01151 0.45866 0.53036 0.0
O428 O 1.00482 0.46355 0.4785 0.0
O429 O 0.99544 0.50434 0.49021 0.0
O430 O 0.9882 0.52485 0.54441 0.0
O431 O 0.99781 0.55795 0.52699 0.0
H432 H 0.07943 0.55411 0.46344 0.0
H433 H 0.11764 0.57782 0.45288 0.0
H434 H 0.07095 0.6379 0.44542 0.0
H435 H 0.03272 0.61384 0.45573 0.0
H436 H 1.00858 0.46605 0.60905 0.0
H437 H 0.96905 0.45351 0.6277 0.0
H438 H 0.92296 0.4511 0.55294 0.0
H439 H 0.96213 0.46515 0.53568 0.0
Nd440 Nd 0.77786 0.78556 0.23632 0.0
Nd441 Nd 0.76534 0.74914 0.26904 0.0
C442 C 0.78263 0.81811 0.20805 0.0
C443 C 0.80005 0.82794 0.19054 0.0
C444 C 0.80558 0.80996 0.16242 0.0
C445 C 0.82031 0.82035 0.14562 0.0
C446 C 0.82995 0.84904 0.15635 0.0
C447 C 0.82456 0.86683 0.18465 0.0
C448 C 0.80986 0.85647 0.20137 0.0
C449 C 0.81882 0.78444 0.27207 0.0
C450 C 0.79944 0.72601 0.21127 0.0
C451 C 0.76088 0.71655 0.29732 0.0
C452 C 0.74382 0.70636 0.31487 0.0
C453 C 0.73929 0.72381 0.34361 0.0
C454 C 0.72509 0.713 0.36043 0.0
C455 C 0.71501 0.68438 0.34914 0.0
C456 C 0.71936 0.66712 0.32024 0.0
C457 C 0.73353 0.67791 0.30349 0.0
C458 C 0.72437 0.75038 0.23337 0.0
C459 C 0.74334 0.80862 0.29363 0.0
O460 O 0.77075 0.79236 0.1962 0.0
O461 O 0.78975 0.82689 0.23592 0.0
O462 O 0.82095 0.78508 0.24706 0.0
O463 O 0.79573 0.78607 0.27863 0.0
O464 O 0.79123 0.74522 0.20398 0.0
O465 O 0.79435 0.72521 0.23636 0.0
O466 O 0.77258 0.74237 0.30919 0.0
O467 O 0.75364 0.70779 0.26947 0.0
O468 O 0.72224 0.74964 0.25834 0.0
O469 O 0.74744 0.7486 0.22676 0.0
O470 O 0.75138 0.78941 0.30105 0.0
O471 O 0.74873 0.80946 0.26864 0.0
H472 H 0.79832 0.78788 0.1532 0.0
H473 H 0.82421 0.80577 0.12418 0.0
H474 H 0.83111 0.88906 0.19374 0.0
H475 H 0.80569 0.87101 0.22273 0.0
H476 H 0.74698 0.7458 0.35329 0.0
H477 H 0.72199 0.72719 0.38235 0.0
H478 H 0.71246 0.64495 0.31067 0.0
H479 H 0.73694 0.66373 0.28165 0.0
Nd480 Nd 0.77982 0.28511 0.7786 0.0
Nd481 Nd 0.78456 0.2412 0.71695 0.0
C482 C 0.78635 0.31998 0.83447 0.0
C483 C 0.78617 0.31402 0.86029 0.0
C484 C 0.77382 0.3304 0.88439 0.0
C485 C 0.76762 0.3207 0.90537 0.0
C486 C 0.77337 0.29429 0.90225 0.0
C487 C 0.78771 0.27918 0.87931 0.0
C488 C 0.79401 0.28897 0.85863 0.0
C489 C 0.74017 0.24155 0.7555 0.0
C490 C 0.81063 0.22933 0.76934 0.0
C491 C 0.77425 0.20681 0.66135 0.0
C492 C 0.76928 0.2143 0.6367 0.0
C493 C 0.74691 0.22647 0.63436 0.0
C494 C 0.7467 0.24321 0.61925 0.0
C495 C 0.76878 0.248 0.60629 0.0
C496 C 0.78938 0.23233 0.6048 0.0
C497 C 0.78957 0.2155 0.6198 0.0
C498 C 0.82477 0.28396 0.73941 0.0
C499 C 0.75478 0.29757 0.72626 0.0
O500 O 0.80583 0.31252 0.81866 0.0
O501 O 0.76391 0.313 0.81865 0.0
O502 O 0.73619 0.26713 0.77074 0.0
O503 O 0.76393 0.24001 0.75388 0.0
O504 O 0.8077 0.25577 0.78607 0.0
O505 O 0.80033 0.21708 0.74176 0.0
O506 O 0.75658 0.21159 0.67984 0.0
O507 O 0.79797 0.21483 0.67451 0.0
O508 O 0.82806 0.25844 0.72264 0.0
O509 O 0.80112 0.28628 0.74196 0.0
O510 O 0.75702 0.27093 0.70957 0.0
O511 O 0.76574 0.30975 0.75356 0.0
H512 H 0.76751 0.34977 0.88601 0.0
H513 H 0.75702 0.33315 0.92307 0.0
H514 H 0.79225 0.25863 0.87573 0.0
H515 H 0.80331 0.27584 0.84019 0.0
H516 H 0.7306 0.22541 0.64651 0.0
H517 H 0.73025 0.25444 0.61999 0.0
H518 H 0.80666 0.2354 0.59484 0.0
H519 H 0.80685 0.20594 0.62076 0.0
Nd520 Nd 0.79518 0.78243 0.7839 0.0
Nd521 Nd 0.75493 0.75097 0.7392 0.0
C522 C 0.8388 0.80893 0.81816 0.0
C523 C 0.85369 0.80625 0.84199 0.0
C524 C 0.88006 0.81723 0.84926 0.0
C525 C 0.89464 0.81368 0.87109 0.0
C526 C 0.88303 0.79905 0.88598 0.0
C527 C 0.85642 0.7885 0.87886 0.0
C528 C 0.84192 0.79196 0.85698 0.0
C529 C 0.76374 0.74586 0.79892 0.0
C530 C 0.80811 0.72606 0.7291 0.0
C531 C 0.7108 0.72338 0.70694 0.0
C532 C 0.68822 0.73157 0.69559 0.0
C533 C 0.66637 0.71189 0.68102 0.0
C534 C 0.64527 0.71953 0.66916 0.0
C535 C 0.64584 0.74699 0.67167 0.0
C536 C 0.66775 0.76671 0.68677 0.0
C537 C 0.6887 0.75908 0.69871 0.0
C538 C 0.78664 0.78701 0.72379 0.0
C539 C 0.74236 0.80944 0.79194 0.0
O540 O 0.83826 0.78836 0.7924 0.0
O541 O 0.81609 0.81724 0.82356 0.0
O542 O 0.77336 0.77106 0.81656 0.0
O543 O 0.77177 0.73971 0.77412 0.0
O544 O 0.81733 0.75197 0.74753 0.0
O545 O 0.78291 0.71798 0.7258 0.0
O546 O 0.714 0.73212 0.73521 0.0
O547 O 0.73246 0.72654 0.69606 0.0
O548 O 0.77697 0.76168 0.70635 0.0
O549 O 0.77867 0.79359 0.74874 0.0
O550 O 0.73261 0.78429 0.77219 0.0
O551 O 0.76779 0.81623 0.79716 0.0
H552 H 0.88946 0.82817 0.83774 0.0
H553 H 0.91516 0.8217 0.87573 0.0
H554 H 0.8468 0.77745 0.89014 0.0
H555 H 0.82156 0.78327 0.85159 0.0
H556 H 0.66574 0.69058 0.67859 0.0
H557 H 0.62858 0.70395 0.65797 0.0
H558 H 0.66907 0.78789 0.68869 0.0
H559 H 0.70551 0.77452 0.70993 0.0
Nd560 Nd 0.54656 0.51662 0.5329 0.0
Nd561 Nd 0.50888 0.51746 0.47893 0.0
C562 C 0.58537 0.5174 0.57013 0.0
C563 C 0.59717 0.49799 0.58083 0.0
C564 C 0.62169 0.48976 0.57303 0.0
C565 C 0.63375 0.47297 0.58404 0.0
C566 C 0.62188 0.46376 0.60349 0.0
C567 C 0.59716 0.47183 0.61106 0.0
C568 C 0.58508 0.48865 0.60002 0.0
C569 C 0.50214 0.47773 0.51944 0.0
C570 C 0.55419 0.47489 0.46404 0.0
C571 C 0.46985 0.51516 0.44105 0.0
C572 C 0.45836 0.53341 0.42876 0.0
C573 C 0.46301 0.56283 0.44292 0.0
C574 C 0.4513 0.5794 0.43123 0.0
C575 C 0.43446 0.56715 0.40496 0.0
C576 C 0.43001 0.53761 0.39094 0.0
C577 C 0.44175 0.52114 0.4026 0.0
C578 C 0.55309 0.55637 0.49207 0.0
C579 C 0.5023 0.5602 0.54799 0.0
O580 O 0.58823 0.51386 0.54333 0.0
O581 O 0.56258 0.52479 0.57789 0.0
O582 O 0.52104 0.48171 0.53884 0.0
O583 O 0.50796 0.49325 0.50666 0.0
O584 O 0.56372 0.48822 0.49176 0.0
O585 O 0.53162 0.47958 0.45421 0.0
O586 O 0.46752 0.5209 0.46851 0.0
O587 O 0.4925 0.5073 0.4334 0.0
O588 O 0.5341 0.55224 0.4727 0.0
O589 O 0.54759 0.54084 0.50498 0.0
O590 O 0.49249 0.54723 0.52029 0.0
O591 O 0.52444 0.55468 0.55773 0.0
H592 H 0.63177 0.49654 0.55848 0.0
H593 H 0.65246 0.46709 0.57704 0.0
H594 H 0.58725 0.46573 0.62617 0.0
H595 H 0.56634 0.4946 0.60688 0.0
H596 H 0.47571 0.57306 0.46311 0.0
H597 H 0.45575 0.6019 0.44275 0.0
H598 H 0.41696 0.52697 0.37109 0.0
H599 H 0.43756 0.49858 0.39119 0.0
Nd600 Nd 0.03355 0.5443 0.99385 0.0
Nd601 Nd 1.00925 0.49526 1.00523 0.0
C602 C 0.0543 0.59221 0.99491 0.0
C603 C 0.04973 0.62154 0.00724 0.0
C604 C 0.06765 0.64154 1.00442 0.0
C605 C 0.0609 0.66793 0.00969 0.0
C606 C 0.03597 0.67452 0.01753 0.0
C607 C 1.01895 0.65513 0.02273 0.0
C608 C 0.02582 0.62888 0.01766 0.0
C609 C 1.00496 0.50185 0.94685 0.0
C610 C 0.98 0.55188 0.02802 0.0
C611 C 0.98274 0.45241 0.0097 0.0
C612 C 0.99079 0.43104 0.01825 0.0
C613 C 0.9723 0.41096 0.02024 0.0
C614 C 0.98002 0.39282 0.03181 0.0
C615 C 1.00622 0.39499 0.04186 0.0
C616 C 0.02474 0.41445 0.03878 0.0
C617 C 1.0171 0.43224 0.02694 0.0
C618 C 0.05021 0.52906 0.0445 0.0
C619 C 0.06179 0.48784 0.97131 0.0
O620 O 0.06297 0.58239 0.01297 0.0
O621 O 0.03613 0.57483 0.975 0.0
O622 O 0.02678 0.5149 0.94508 0.0
O623 O 0.99853 0.51158 0.97248 0.0
O624 O 0.99859 0.56363 0.01818 0.0
O625 O 0.97917 0.52561 0.02426 0.0
O626 O 0.99005 0.45131 0.98492 0.0
O627 O 0.98644 0.47776 0.03067 0.0
O628 O 0.04681 0.50216 0.03574 0.0
O629 O 0.03207 0.53658 0.03359 0.0
O630 O 0.0394 0.47492 0.97355 0.0
O631 O 0.06615 0.51557 0.98256 0.0
H632 H 0.08624 0.63621 0.99646 0.0
H633 H 0.07465 0.68258 0.00606 0.0
H634 H 0.99953 0.65928 0.02851 0.0
H635 H 1.01174 0.61367 0.01992 0.0
H636 H 0.9519 0.40988 0.01367 0.0
H637 H 0.96545 0.37795 0.03403 0.0
H638 H 0.04509 0.41625 0.04606 0.0
H639 H 0.03162 0.44757 0.02544 0.0
C640 C 0.17399 0.15448 0.85665 0.0
C641 C 0.19552 0.1755 0.8696 0.0
C642 C 0.16109 0.14186 0.87269 0.0
C643 C 0.15124 0.15142 0.94891 0.0
H644 H 0.125 0.07242 0.91073 0.0
C645 C 0.07496 0.09724 0.99591 0.0
C646 C 0.07492 0.06884 0.98972 0.0
C647 C 0.09313 0.11099 0.98506 0.0
C648 C 0.13244 0.09444 0.92199 0.0
H649 H 0.22008 0.1993 0.91026 0.0
H650 H 0.19753 0.17765 0.9381 0.0
H651 H 0.14878 0.09439 0.88395 0.0
H652 H 0.09452 0.03281 0.96754 0.0
H653 H 0.12672 0.05681 0.9492 0.0
H654 H 0.13483 0.15143 0.98696 0.0
C655 C 0.19042 0.17106 0.91546 0.0
C656 C 0.14583 0.10721 0.90639 0.0
C657 C 0.2034 0.18362 0.89938 0.0
C658 C 0.09457 0.05496 0.97371 0.0
C659 C 0.11266 0.06862 0.96255 0.0
C660 C 0.13769 0.13867 0.96448 0.0
C661 C 0.16911 0.14981 0.90238 0.0
C662 C 0.15533 0.136 0.91946 0.0
C663 C 0.1116 0.09659 0.96709 0.0
C664 C 0.12788 0.10995 0.95126 0.0
H665 H 0.1668 0.14784 0.83403 0.0
H666 H 0.14451 0.12604 0.8618 0.0
H667 H 0.158 0.17362 0.95987 0.0
H668 H 0.05949 0.10826 0.00715 0.0
H669 H 0.09133 0.13235 0.98895 0.0
C670 C 0.15035 0.92821 0.10244 0.0
C671 C 0.1281 0.9406 0.11365 0.0
C672 C 0.16262 0.91206 0.1142 0.0
C673 C 0.167 0.89652 0.18064 0.0
H674 H 0.2016 0.83487 0.13122 0.0
C675 C 0.23077 0.83879 0.23017 0.0
C676 C 0.23196 0.80995 0.21429 0.0
C677 C 0.21814 0.85415 0.2177 0.0
C678 C 0.19189 0.85182 0.14549 0.0
H679 H 0.10135 0.94445 0.1462 0.0
H680 H 0.1224 0.91653 0.16639 0.0
H681 H 0.17948 0.86159 0.1102 0.0
H682 H 0.22023 0.77504 0.17233 0.0
H683 H 0.19821 0.80147 0.15068 0.0
H684 H 0.17886 0.8864 0.21579 0.0
C685 C 0.13085 0.91974 0.14879 0.0
C686 C 0.17936 0.86757 0.13338 0.0
C687 C 0.11861 0.93593 0.13706 0.0
C688 C 0.22 0.79712 0.18536 0.0
C689 C 0.20737 0.8125 0.17283 0.0
C690 C 0.17952 0.8808 0.19274 0.0
C691 C 0.15321 0.90748 0.13771 0.0
C692 C 0.16663 0.89033 0.15068 0.0
C693 C 0.20608 0.84139 0.18876 0.0
C694 C 0.19233 0.85811 0.17549 0.0
H695 H 0.15877 0.93145 0.08484 0.0
H696 H 0.17993 0.90363 0.10511 0.0
H697 H 0.15787 0.9139 0.1951 0.0
H698 H 0.23976 0.84973 0.25241 0.0
H699 H 0.21825 0.8763 0.23083 0.0
C700 C 0.44953 0.99013 0.42175 0.0
C701 C 0.46947 0.98248 0.43543 0.0
C702 C 0.43292 0.9696 0.39851 0.0
C703 C 0.4308 0.89877 0.34115 0.0
H704 H 0.35587 0.89537 0.33997 0.0
C705 C 0.32966 0.83156 0.26498 0.0
C706 C 0.33574 0.8044 0.25721 0.0
C707 C 0.34719 0.85461 0.28338 0.0
C708 C 0.37676 0.89631 0.3396 0.0
H709 H 0.4874 0.9476 0.43631 0.0
H710 H 0.45853 0.91198 0.39588 0.0
H711 H 0.3835 0.93387 0.3793 0.0
H712 H 0.36505 0.77969 0.26131 0.0
H713 H 0.39565 0.82007 0.29437 0.0
H714 H 0.4242 0.86124 0.30153 0.0
C715 C 0.45586 0.93372 0.4028 0.0
C716 C 0.39252 0.91832 0.3622 0.0
C717 C 0.47221 0.9541 0.42608 0.0
C718 C 0.36011 0.80053 0.26692 0.0
C719 C 0.37758 0.82365 0.28577 0.0
C720 C 0.41506 0.8769 0.31838 0.0
C721 C 0.43631 0.94129 0.38857 0.0
C722 C 0.41964 0.91945 0.36341 0.0
C723 C 0.37097 0.85091 0.29479 0.0
C724 C 0.38786 0.8752 0.31758 0.0
H725 H 0.44706 1.0119 0.42865 0.0
H726 H 0.4179 0.97588 0.38784 0.0
H727 H 0.45174 0.89944 0.34147 0.0
H728 H 0.31098 0.83497 0.25746 0.0
H729 H 0.34178 0.87531 0.2893 0.0
C730 C 0.33024 0.21347 0.67263 0.0
C731 C 0.32031 0.20877 0.69576 0.0
C732 C 0.34737 0.1963 0.65504 0.0
C733 C 0.36868 0.126 0.63009 0.0
H734 H 0.43022 0.16026 0.61149 0.0
C735 C 0.44718 0.0591 0.56718 0.0
C736 C 0.46233 0.06809 0.54971 0.0
C737 C 0.42989 0.07597 0.58488 0.0
C738 C 0.41296 0.15006 0.61585 0.0
H739 H 0.32067 0.18178 0.71804 0.0
H740 H 0.34999 0.15151 0.68698 0.0
H741 H 0.40016 0.18952 0.64156 0.0
H742 H 0.47048 0.10194 0.53691 0.0
H743 H 0.43975 0.13059 0.5664 0.0
H744 H 0.38082 0.08653 0.60378 0.0
C745 C 0.3446 0.16862 0.68254 0.0
C746 C 0.39568 0.16704 0.63339 0.0
C747 C 0.3278 0.18609 0.70046 0.0
C748 C 0.45931 0.09429 0.55014 0.0
C749 C 0.44171 0.11095 0.56745 0.0
C750 C 0.38573 0.10896 0.61215 0.0
C751 C 0.35483 0.17358 0.65967 0.0
C752 C 0.37328 0.15532 0.64086 0.0
C753 C 0.42678 0.1023 0.58544 0.0
C754 C 0.40829 0.12061 0.60466 0.0
H755 H 0.32511 0.23075 0.66832 0.0
H756 H 0.35461 0.2007 0.63755 0.0
H757 H 0.35152 0.11612 0.63505 0.0
H758 H 0.4491 0.03923 0.56776 0.0
H759 H 0.41938 0.06843 0.5986 0.0
C760 C 0.05923 0.96484 0.56785 0.0
C761 C 0.06745 0.96983 0.5442 0.0
C762 C 0.0739 0.95096 0.58036 0.0
C763 C 0.12724 0.90521 0.56639 0.0
H764 H 0.12923 0.92644 0.64951 0.0
C765 C 0.17524 0.84099 0.62018 0.0
C766 C 0.18847 0.85522 0.64847 0.0
C767 C 0.16066 0.85492 0.60764 0.0
C768 C 0.12918 0.92029 0.62629 0.0
H769 H 0.09799 0.96384 0.5154 0.0
H770 H 0.12362 0.94009 0.53729 0.0
H771 H 0.10449 0.95077 0.62773 0.0
H772 H 0.19606 0.89576 0.6856 0.0
H773 H 0.17127 0.92001 0.66368 0.0
H774 H 0.15245 0.87519 0.56506 0.0
C775 C 0.10555 0.9465 0.546 0.0
C776 C 0.11456 0.93409 0.61362 0.0
C777 C 0.09084 0.96035 0.53344 0.0
C778 C 0.18649 0.88394 0.66373 0.0
C779 C 0.17189 0.89788 0.65118 0.0
C780 C 0.14186 0.89141 0.57906 0.0
C781 C 0.0974 0.94157 0.56976 0.0
C782 C 0.11325 0.92681 0.58339 0.0
C783 C 0.15871 0.88366 0.62285 0.0
C784 C 0.1431 0.89863 0.60927 0.0
H785 H 0.04133 0.97164 0.57678 0.0
H786 H 0.06652 0.94729 0.5982 0.0
H787 H 0.12667 0.89858 0.54305 0.0
H788 H 0.17641 0.81903 0.60737 0.0
H789 H 0.15067 0.84294 0.58599 0.0
C790 C 0.33979 0.82999 0.76993 0.0
C791 C 0.32037 0.83122 0.78856 0.0
C792 C 0.35998 0.85206 0.77813 0.0
C793 C 0.40694 0.88239 0.82279 0.0
H794 H 0.40599 0.96224 0.86416 0.0
C795 C 0.45231 0.97533 0.93848 0.0
C796 C 0.47586 0.96545 0.94103 0.0
C797 C 0.43701 0.96402 0.91174 0.0
C798 C 0.40663 0.93998 0.85283 0.0
H799 H 0.30471 0.85739 0.82817 0.0
H800 H 0.33973 0.89615 0.84231 0.0
H801 H 0.36909 0.93307 0.82939 0.0
H802 H 0.50354 0.93847 0.91771 0.0
H803 H 0.47775 0.92006 0.87051 0.0
H804 H 0.44251 0.88806 0.84823 0.0
C805 C 0.33957 0.87819 0.82157 0.0
C806 C 0.38565 0.92342 0.8326 0.0
C807 C 0.3197 0.85593 0.81368 0.0
C808 C 0.48494 0.94578 0.91622 0.0
C809 C 0.47013 0.93518 0.88923 0.0
C810 C 0.4275 0.89873 0.8435 0.0
C811 C 0.3606 0.87578 0.8047 0.0
C812 C 0.38519 0.89434 0.81843 0.0
C813 C 0.44538 0.94326 0.88683 0.0
C814 C 0.42704 0.92756 0.85992 0.0
H815 H 0.34057 0.81114 0.75029 0.0
H816 H 0.37606 0.84977 0.76487 0.0
H817 H 0.40691 0.85994 0.81238 0.0
H818 H 0.44514 0.99069 0.95741 0.0
H819 H 0.41797 0.97063 0.9112 0.0
C820 C 0.45765 0.06105 0.08377 0.0
C821 C 0.46194 0.06134 0.05668 0.0
C822 C 0.44046 0.07777 0.10179 0.0
C823 C 0.38607 0.11956 0.1014 0.0
H824 H 0.40226 0.15197 0.18533 0.0
C825 C 0.313 0.18058 0.18046 0.0
C826 C 0.32298 0.20405 0.20643 0.0
C827 C 0.32958 0.16279 0.16254 0.0
C828 C 0.39741 0.14334 0.16195 0.0
H829 H 0.45109 0.07982 0.0276 0.0
H830 H 0.42154 0.10902 0.05891 0.0
H831 H 0.43153 0.12269 0.15377 0.0
H832 H 0.35866 0.22681 0.23367 0.0
H833 H 0.3874 0.19619 0.20253 0.0
H834 H 0.35231 0.14083 0.10956 0.0
C835 C 0.43112 0.09553 0.06618 0.0
C836 C 0.41415 0.12609 0.1437 0.0
C837 C 0.44828 0.07877 0.04814 0.0
C838 C 0.35009 0.20893 0.214 0.0
C839 C 0.36667 0.19116 0.19608 0.0
C840 C 0.36933 0.13682 0.11964 0.0
C841 C 0.42694 0.09547 0.09343 0.0
C842 C 0.40883 0.11386 0.11305 0.0
C843 C 0.35678 0.16782 0.16989 0.0
C844 C 0.37467 0.14908 0.15029 0.0
H845 H 0.4677 0.04795 0.09122 0.0
H846 H 0.43763 0.07659 0.12226 0.0
H847 H 0.38091 0.11045 0.07804 0.0
H848 H 0.2923 0.17599 0.17376 0.0
H849 H 0.32096 0.14491 0.14293 0.0
C850 C 0.15229 0.08645 0.39306 0.0
C851 C 0.12727 0.09155 0.40179 0.0
C852 C 0.16559 0.10149 0.37962 0.0
C853 C 0.16613 0.16608 0.36611 0.0
H854 H 0.21171 0.12846 0.30793 0.0
C855 C 0.21664 0.21815 0.29724 0.0
C856 C 0.24287 0.21468 0.29298 0.0
C857 C 0.20175 0.20297 0.30956 0.0
C858 C 0.19926 0.13945 0.3243 0.0
H859 H 0.09686 0.11699 0.40299 0.0
H860 H 0.11977 0.1429 0.37922 0.0
H861 H 0.1875 0.10298 0.33102 0.0
H862 H 0.27372 0.19196 0.29791 0.0
H863 H 0.24787 0.16536 0.31895 0.0
H864 H 0.1778 0.2025 0.35897 0.0
C865 C 0.1294 0.1275 0.38321 0.0
C866 C 0.18532 0.12478 0.33773 0.0
C867 C 0.11614 0.11253 0.39687 0.0
C868 C 0.25359 0.19515 0.30077 0.0
C869 C 0.23866 0.17978 0.31279 0.0
C870 C 0.17995 0.18071 0.35248 0.0
C871 C 0.15436 0.12216 0.37416 0.0
C872 C 0.16866 0.13785 0.35913 0.0
C873 C 0.21255 0.1836 0.31768 0.0
C874 C 0.19693 0.16771 0.33151 0.0
H875 H 0.16187 0.07096 0.39696 0.0
H876 H 0.18494 0.09705 0.37384 0.0
H877 H 0.1539 0.17722 0.38266 0.0
H878 H 0.20771 0.23302 0.29154 0.0
H879 H 0.18169 0.20633 0.3126 0.0
C880 C 0.84537 0.19744 0.20945 0.0
C881 C 0.83092 0.21287 0.19869 0.0
C882 C 0.86417 0.18172 0.19358 0.0
C883 C 0.90352 0.1705 0.12955 0.0
H884 H 0.91762 0.10446 0.13931 0.0
C885 C 0.96507 0.08924 0.05233 0.0
C886 C 0.98229 0.07668 0.064 0.0
C887 C 0.94815 0.10691 0.06959 0.0
C888 C 0.91424 0.12302 0.13652 0.0
H889 H 0.82532 0.22337 0.16211 0.0
H890 H 0.85735 0.19526 0.13391 0.0
H891 H 0.88475 0.1317 0.16597 0.0
H892 H 0.99496 0.07346 0.10364 0.0
H893 H 0.96515 0.10418 0.13387 0.0
H894 H 0.93257 0.1611 0.09934 0.0
C895 C 0.85465 0.19581 0.15513 0.0
C896 C 0.89524 0.13888 0.15198 0.0
C897 C 0.83598 0.2119 0.17128 0.0
C898 C 0.98223 0.08283 0.09385 0.0
C899 C 0.96489 0.10028 0.11112 0.0
C900 C 0.92228 0.15442 0.11383 0.0
C901 C 0.86919 0.18035 0.16597 0.0
C902 C 0.88946 0.16305 0.14892 0.0
C903 C 0.94742 0.11251 0.09921 0.0
C904 C 0.92802 0.13037 0.11701 0.0
H905 H 0.84248 0.19776 0.23058 0.0
H906 H 0.87506 0.17099 0.20344 0.0
H907 H 0.90037 0.18906 0.1267 0.0
H908 H 0.96437 0.08514 0.0295 0.0
H909 H 0.93498 0.11552 0.05934 0.0
C910 C 0.12037 0.63655 0.42405 0.0
C911 C 0.12092 0.6258 0.44504 0.0
C912 C 0.14232 0.65261 0.42167 0.0
C913 C 0.20186 0.69772 0.46387 0.0
H914 H 0.21995 0.68945 0.38773 0.0
C915 C 0.27708 0.74807 0.4026 0.0
C916 C 0.27368 0.77638 0.41758 0.0
C917 C 0.26413 0.72786 0.40975 0.0
C918 C 0.21555 0.69175 0.40921 0.0
H919 H 0.14487 0.62346 0.48004 0.0
H920 H 0.18333 0.65131 0.47565 0.0
H921 H 0.18551 0.65683 0.39122 0.0
H922 H 0.25658 0.80593 0.45415 0.0
H923 H 0.23335 0.77055 0.46608 0.0
H924 H 0.23175 0.73296 0.48181 0.0
C925 C 0.16588 0.64738 0.46113 0.0
C926 C 0.19553 0.67328 0.41116 0.0
C927 C 0.14396 0.6312 0.46341 0.0
C928 C 0.25918 0.78426 0.4418 0.0
C929 C 0.24605 0.76397 0.44881 0.0
C930 C 0.22192 0.71629 0.46192 0.0
C931 C 0.16525 0.65835 0.44031 0.0
C932 C 0.18811 0.67639 0.43846 0.0
C933 C 0.24736 0.73544 0.43188 0.0
C934 C 0.22867 0.71379 0.43454 0.0
H935 H 0.10294 0.63258 0.40949 0.0
H936 H 0.14114 0.66106 0.40563 0.0
H937 H 0.19648 0.70071 0.48523 0.0
H938 H 0.28798 0.74106 0.38374 0.0
H939 H 0.266 0.70608 0.39675 0.0
C940 C 0.54003 0.85256 0.53883 0.0
C941 C 0.51622 0.86292 0.54585 0.0
C942 C 0.54874 0.83438 0.54964 0.0
C943 C 0.54078 0.81521 0.61088 0.0
H944 H 0.58675 0.76153 0.57028 0.0
C945 C 0.61658 0.78162 0.67121 0.0
C946 C 0.62433 0.75493 0.65755 0.0
C947 C 0.59854 0.79034 0.65662 0.0
C948 C 0.57356 0.776 0.58182 0.0
H949 H 0.4823 0.86111 0.56862 0.0
H950 H 0.49704 0.82847 0.58648 0.0
H951 H 0.56339 0.78319 0.54444 0.0
H952 H 0.61816 0.71593 0.6183 0.0
H953 H 0.58591 0.73078 0.59326 0.0
H954 H 0.55072 0.80777 0.64817 0.0
C955 C 0.50929 0.83501 0.57322 0.0
C956 C 0.56045 0.78876 0.56708 0.0
C957 C 0.50068 0.85345 0.56264 0.0
C958 C 0.61255 0.7366 0.62954 0.0
C959 C 0.5943 0.74524 0.61502 0.0
C960 C 0.55366 0.80221 0.62552 0.0
C961 C 0.53373 0.8258 0.56745 0.0
C962 C 0.54453 0.80916 0.58168 0.0
C963 C 0.58755 0.77247 0.6281 0.0
C964 C 0.57084 0.78309 0.61144 0.0
H965 H 0.55227 0.85901 0.5255 0.0
H966 H 0.56778 0.82801 0.54495 0.0
H967 H 0.52883 0.83094 0.62294 0.0
H968 H 0.62491 0.79609 0.69298 0.0
H969 H 0.59406 0.81156 0.66732 0.0
C970 C 0.47989 0.43738 0.91452 0.0
C971 C 0.49486 0.44098 0.93985 0.0
C972 C 0.47003 0.41063 0.89379 0.0
C973 C 0.44237 0.34666 0.89319 0.0
H974 H 0.43193 0.32499 0.81 0.0
C975 C 0.36722 0.27706 0.78232 0.0
C976 C 0.34429 0.28628 0.79429 0.0
C977 C 0.39075 0.28508 0.79996 0.0
C978 C 0.43496 0.33004 0.83303 0.0
H979 H 0.51249 0.41998 0.9632 0.0
H980 H 0.49438 0.37276 0.9271 0.0
H981 H 0.46771 0.36047 0.83922 0.0
H982 H 0.32716 0.30859 0.83419 0.0
H983 H 0.36845 0.32364 0.86508 0.0
H984 H 0.40852 0.31751 0.88729 0.0
C985 C 0.4908 0.39062 0.92302 0.0
C986 C 0.45545 0.35053 0.84976 0.0
C987 C 0.50126 0.4175 0.94348 0.0
C988 C 0.34468 0.30131 0.82455 0.0
C989 C 0.36836 0.30977 0.84221 0.0
C990 C 0.42174 0.32617 0.87644 0.0
C991 C 0.47444 0.38708 0.89847 0.0
C992 C 0.45853 0.36001 0.88014 0.0
C993 C 0.39182 0.30297 0.82979 0.0
C994 C 0.41708 0.31865 0.84639 0.0
H995 H 0.47455 0.45532 0.91159 0.0
H996 H 0.4572 0.40853 0.87526 0.0
H997 H 0.44427 0.35372 0.91665 0.0
H998 H 0.3672 0.265 0.75901 0.0
H999 H 0.40836 0.2789 0.78986 0.0
C1000 C 0.86539 0.78145 0.28123 0.0
C1001 C 0.8418 0.78912 0.29247 0.0
C1002 C 0.88865 0.79101 0.29943 0.0
C1003 C 0.93152 0.83736 0.33402 0.0
H1004 H 0.93987 0.85884 0.4173 0.0
C1005 C 0.97804 0.94336 0.41826 0.0
C1006 C 0.99254 0.94587 0.44343 0.0
C1007 C 0.96764 0.91708 0.39692 0.0
C1008 C 0.93821 0.85245 0.39394 0.0
H1009 H 0.82344 0.81048 0.33174 0.0
H1010 H 0.86423 0.82809 0.36364 0.0
H1011 H 0.90439 0.82285 0.38679 0.0
H1012 H 1.00875 0.92336 0.46591 0.0
H1013 H 0.98978 0.87697 0.42867 0.0
H1014 H 0.96435 0.8681 0.34144 0.0
C1015 C 0.86484 0.81432 0.34085 0.0
C1016 C 0.91772 0.83209 0.37655 0.0
C1017 C 0.84145 0.80438 0.32262 0.0
C1018 C 0.99793 0.92173 0.44631 0.0
C1019 C 0.98695 0.89532 0.42521 0.0
C1020 C 0.95185 0.85773 0.3514 0.0
C1021 C 0.88879 0.80882 0.32916 0.0
C1022 C 0.91352 0.8252 0.34659 0.0
C1023 C 0.97104 0.8929 0.4008 0.0
C1024 C 0.95468 0.86633 0.38167 0.0
H1025 H 0.86601 0.76925 0.25804 0.0
H1026 H 0.90669 0.78585 0.28989 0.0
H1027 H 0.9288 0.83281 0.31109 0.0
H1028 H 0.97344 0.96183 0.41592 0.0
H1029 H 0.95519 0.91588 0.37852 0.0
C1030 C 0.48723 0.58751 0.59823 0.0
C1031 C 0.48668 0.58123 0.56831 0.0
C1032 C 0.4701 0.60496 0.61589 0.0
C1033 C 0.42746 0.65912 0.61932 0.0
H1034 H 0.39087 0.63719 0.6726 0.0
C1035 C 0.34105 0.71591 0.67574 0.0
C1036 C 0.33599 0.71761 0.70341 0.0
C1037 C 0.35995 0.69995 0.66014 0.0
C1038 C 0.40111 0.6441 0.65827 0.0
H1039 H 0.46788 0.58938 0.53403 0.0
H1040 H 0.43884 0.61979 0.56454 0.0
H1041 H 0.4234 0.60958 0.6454 0.0
H1042 H 0.34757 0.70379 0.73631 0.0
H1043 H 0.38079 0.67705 0.70992 0.0
H1044 H 0.40569 0.69382 0.63232 0.0
C1045 C 0.45233 0.61128 0.57455 0.0
C1046 C 0.41989 0.62806 0.64251 0.0
C1047 C 0.46905 0.59361 0.55692 0.0
C1048 C 0.35067 0.703 0.71504 0.0
C1049 C 0.36975 0.68732 0.69962 0.0
C1050 C 0.40893 0.67533 0.63529 0.0
C1051 C 0.45226 0.61706 0.60428 0.0
C1052 C 0.43324 0.63512 0.62254 0.0
C1053 C 0.37476 0.6853 0.67174 0.0
C1054 C 0.39515 0.66809 0.65496 0.0
H1055 H 0.50029 0.57825 0.60781 0.0
H1056 H 0.47085 0.609 0.6387 0.0
H1057 H 0.43749 0.66561 0.60454 0.0
H1058 H 0.3301 0.72657 0.66582 0.0
H1059 H 0.36254 0.69878 0.63864 0.0
C1060 C 0.63369 0.13383 0.96523 0.0
C1061 C 0.61775 0.11742 0.93915 0.0
C1062 C 0.65426 0.15317 0.96592 0.0
C1063 C 0.69819 0.17176 0.92099 0.0
H1064 H 0.69815 0.24839 0.97782 0.0
C1065 C 0.73504 0.2831 0.92541 0.0
C1066 C 0.761 0.28025 0.91929 0.0
C1067 C 0.72108 0.26498 0.93466 0.0
C1068 C 0.69856 0.22703 0.96213 0.0
H1069 H 0.61122 0.10765 0.89319 0.0
H1070 H 0.64758 0.14136 0.89429 0.0
H1071 H 0.66678 0.21118 0.97864 0.0
H1072 H 0.79341 0.25805 0.92138 0.0
H1073 H 0.76854 0.22568 0.93645 0.0
H1074 H 0.72956 0.18768 0.90405 0.0
C1075 C 0.64404 0.13922 0.91417 0.0
C1076 C 0.68072 0.20578 0.96261 0.0
C1077 C 0.6232 0.12012 0.91356 0.0
C1078 C 0.77326 0.26038 0.92512 0.0
C1079 C 0.75912 0.24192 0.93385 0.0
C1080 C 0.71631 0.19293 0.92081 0.0
C1081 C 0.65947 0.1562 0.94046 0.0
C1082 C 0.68002 0.17808 0.94164 0.0
C1083 C 0.73267 0.24346 0.93766 0.0
C1084 C 0.71628 0.22081 0.94099 0.0
H1085 H 0.62973 0.13237 0.98534 0.0
H1086 H 0.66595 0.16597 0.98641 0.0
H1087 H 0.69809 0.15052 0.90471 0.0
H1088 H 0.72475 0.29782 0.92089 0.0
H1089 H 0.70064 0.26648 0.93731 0.0
C1090 C 0.02893 0.39185 0.08446 0.0
C1091 C 1.01439 0.3783 0.05708 0.0
C1092 C 0.03876 0.37643 0.09813 0.0
C1093 C 0.03528 0.30602 0.09725 0.0
H1094 H 0.10652 0.33327 0.13213 0.0
C1095 C 0.10493 0.24225 0.13009 0.0
C1096 C 0.12185 0.25708 0.1558 0.0
C1097 C 0.08828 0.25616 0.11999 0.0
C1098 C 0.08649 0.32558 0.12288 0.0
H1099 H 0.99771 0.33819 0.02292 0.0
H1100 H 1.01559 0.31088 0.04653 0.0
H1101 H 0.08417 0.35904 0.11051 0.0
H1102 H 0.13362 0.29793 0.19171 0.0
H1103 H 0.10429 0.32188 0.17445 0.0
H1104 H 0.03816 0.27202 0.10916 0.0
C1105 C 1.01905 0.33348 0.05764 0.0
C1106 C 0.07364 0.34038 0.11049 0.0
C1107 C 1.00891 0.34903 0.04406 0.0
C1108 C 0.1207 0.28576 0.172 0.0
C1109 C 0.10411 0.29959 0.16193 0.0
C1110 C 0.04827 0.29105 0.10958 0.0
C1111 C 0.03459 0.34705 0.08453 0.0
C1112 C 0.04784 0.33093 0.09768 0.0
C1113 C 0.08834 0.28514 0.13538 0.0
C1114 C 0.07397 0.30083 0.12267 0.0
H1115 H 0.03297 0.41446 0.09515 0.0
H1116 H 0.05004 0.38756 0.11919 0.0
H1117 H 1.01535 0.29828 0.08768 0.0
H1118 H 0.10514 0.22008 0.11731 0.0
H1119 H 0.07634 0.24451 0.09943 0.0
C1120 C 0.63013 0.58002 0.87004 0.0
C1121 C 0.62871 0.59033 0.90042 0.0
C1122 C 0.644 0.59606 0.85796 0.0
C1123 C 0.6715 0.66937 0.87416 0.0
H1124 H 0.71324 0.63405 0.81076 0.0
C1125 C 0.74437 0.73567 0.83824 0.0
C1126 C 0.74841 0.72644 0.8086 0.0
C1127 C 0.72949 0.71848 0.84813 0.0
C1128 C 0.70144 0.6443 0.82818 0.0
H1129 H 0.6414 0.62611 0.94167 0.0
H1130 H 0.66514 0.65399 0.9207 0.0
H1131 H 0.68795 0.60574 0.83038 0.0
H1132 H 0.73978 0.69156 0.76606 0.0
H1133 H 0.71338 0.66145 0.7832 0.0
H1134 H 0.68471 0.70784 0.87195 0.0
C1135 C 0.65525 0.63351 0.9061 0.0
C1136 C 0.68689 0.62798 0.83953 0.0
C1137 C 0.64148 0.61743 0.9182 0.0
C1138 C 0.73719 0.6993 0.78905 0.0
C1139 C 0.72211 0.682 0.79898 0.0
C1140 C 0.68592 0.68563 0.86276 0.0
C1141 C 0.65685 0.62308 0.87577 0.0
C1142 C 0.67186 0.64029 0.86292 0.0
C1143 C 0.71785 0.69141 0.82872 0.0
C1144 C 0.70142 0.67349 0.83978 0.0
H1145 H 0.62027 0.55954 0.85539 0.0
H1146 H 0.64433 0.58736 0.83451 0.0
H1147 H 0.65981 0.67966 0.89168 0.0
H1148 H 0.75277 0.75637 0.85402 0.0
H1149 H 0.72736 0.72648 0.87123 0.0
C1150 C 0.66921 0.36158 0.15414 0.0
C1151 C 0.69388 0.35492 0.14512 0.0
C1152 C 0.65393 0.37497 0.14154 0.0
C1153 C 0.6581 0.41627 0.09651 0.0
H1154 H 0.58298 0.3991 0.08616 0.0
C1155 C 0.59308 0.45748 0.02997 0.0
C1156 C 0.56926 0.46608 0.04015 0.0
C1157 C 0.60798 0.44391 0.04266 0.0
C1158 C 0.60392 0.40445 0.08912 0.0
H1159 H 0.72109 0.35678 0.11472 0.0
H1160 H 0.69467 0.37971 0.09284 0.0
H1161 H 0.60904 0.37583 0.10817 0.0
H1162 H 0.5426 0.46668 0.07189 0.0
H1163 H 0.56842 0.44313 0.09388 0.0
H1164 H 0.65296 0.44474 0.07727 0.0
C1165 C 0.68726 0.37525 0.11021 0.0
C1166 C 0.61898 0.39104 0.10188 0.0
C1167 C 0.70254 0.36196 0.12285 0.0
C1168 C 0.56076 0.46042 0.06331 0.0
C1169 C 0.57558 0.44669 0.07589 0.0
C1170 C 0.64305 0.42958 0.08366 0.0
C1171 C 0.66267 0.38214 0.11935 0.0
C1172 C 0.64639 0.39665 0.10581 0.0
C1173 C 0.59954 0.43828 0.06589 0.0
C1174 C 0.61567 0.42392 0.07969 0.0
H1175 H 0.66184 0.35693 0.17141 0.0
H1176 H 0.63539 0.38016 0.14966 0.0
H1177 H 0.67902 0.42178 0.09955 0.0
H1178 H 0.60037 0.46138 0.01221 0.0
H1179 H 0.62606 0.43753 0.03396 0.0
C1180 C 0.99267 0.45276 0.417 0.0
C1181 C 0.98111 0.47115 0.44059 0.0
C1182 C 0.97936 0.4405 0.38915 0.0
C1183 C 0.9392 0.39761 0.34571 0.0
H1184 H 0.88177 0.42333 0.31651 0.0
C1185 C 0.83153 0.34759 0.2929 0.0
C1186 C 0.83715 0.3204 0.2766 0.0
C1187 C 0.85144 0.37015 0.30282 0.0
C1188 C 0.89787 0.41589 0.32425 0.0
H1189 H 0.9478 0.49314 0.45383 0.0
H1190 H 0.92346 0.47014 0.40546 0.0
H1191 H 0.91445 0.45734 0.35444 0.0
H1192 H 0.86644 0.29552 0.25414 0.0
H1193 H 0.9009 0.33502 0.26991 0.0
H1194 H 0.9223 0.35637 0.31726 0.0
C1195 C 0.94313 0.4658 0.408 0.0
C1196 C 0.91655 0.43535 0.346 0.0
C1197 C 0.9569 0.4788 0.43577 0.0
C1198 C 0.86192 0.31637 0.26722 0.0
C1199 C 0.8816 0.33896 0.27636 0.0
C1200 C 0.92072 0.37834 0.32412 0.0
C1201 C 0.95377 0.44551 0.38466 0.0
C1202 C 0.93694 0.4263 0.35768 0.0
C1203 C 0.87706 0.36576 0.29602 0.0
C1204 C 0.8993 0.38706 0.3138 0.0
H1205 H 1.01167 0.44713 0.42027 0.0
H1206 H 0.98852 0.42575 0.3715 0.0
H1207 H 0.95416 0.3896 0.35445 0.0
H1208 H 0.81243 0.35108 0.30023 0.0
H1209 H 0.84717 0.39044 0.3179 0.0
C1210 C 0.5781 0.60059 0.4969 0.0
C1211 C 0.57821 0.57259 0.49228 0.0
C1212 C 0.5965 0.61362 0.48562 0.0
C1213 C 0.63749 0.59477 0.42374 0.0
H1214 H 0.66127 0.67435 0.45824 0.0
C1215 C 0.67978 0.65036 0.35461 0.0
C1216 C 0.70051 0.67238 0.36736 0.0
C1217 C 0.66678 0.6386 0.37132 0.0
C1218 C 0.65505 0.65203 0.44824 0.0
H1219 H 0.59835 0.53653 0.47248 0.0
H1220 H 0.631 0.55934 0.4534 0.0
H1221 H 0.63779 0.65373 0.48644 0.0
H1222 H 0.72357 0.69891 0.40838 0.0
H1223 H 0.70093 0.67863 0.43736 0.0
H1224 H 0.65476 0.59302 0.38557 0.0
C1225 C 0.6166 0.57138 0.46583 0.0
C1226 C 0.64129 0.64016 0.46443 0.0
C1227 C 0.59825 0.55843 0.47743 0.0
C1228 C 0.70753 0.68235 0.39761 0.0
C1229 C 0.69448 0.67061 0.41435 0.0
C1230 C 0.65114 0.60665 0.40751 0.0
C1231 C 0.61542 0.59888 0.46877 0.0
C1232 C 0.63206 0.61133 0.45242 0.0
C1233 C 0.67393 0.6484 0.4015 0.0
C1234 C 0.65999 0.63555 0.41933 0.0
H1235 H 0.56237 0.61176 0.50724 0.0
H1236 H 0.59456 0.63462 0.48826 0.0
H1237 H 0.63053 0.5726 0.41337 0.0
H1238 H 0.67328 0.6423 0.33161 0.0
H1239 H 0.65078 0.62199 0.36052 0.0
C1240 C 0.87172 0.30393 0.74931 0.0
C1241 C 0.8457 0.30728 0.75424 0.0
C1242 C 0.89151 0.32595 0.76489 0.0
C1243 C 0.90261 0.40229 0.81429 0.0
H1244 H 0.96335 0.38322 0.84597 0.0
C1245 C 0.96245 0.47317 0.92319 0.0
C1246 C 0.989 0.47968 0.92169 0.0
C1247 C 0.94707 0.4528 0.89888 0.0
C1248 C 0.94664 0.38874 0.83691 0.0
H1249 H 0.81969 0.33615 0.77855 0.0
H1250 H 0.85396 0.37395 0.8065 0.0
H1251 H 0.93231 0.3461 0.8091 0.0
H1252 H 1.02065 0.4698 0.8943 0.0
H1253 H 0.99369 0.43319 0.85185 0.0
H1254 H 0.91622 0.44482 0.84382 0.0
C1255 C 0.85933 0.35484 0.79014 0.0
C1256 C 0.92894 0.36758 0.8157 0.0
C1257 C 0.83964 0.33304 0.77436 0.0
C1258 C 1.00013 0.46516 0.8958 0.0
C1259 C 0.98484 0.44432 0.87166 0.0
C1260 C 0.92003 0.42332 0.83588 0.0
C1261 C 0.88553 0.35152 0.78583 0.0
C1262 C 0.90634 0.37407 0.80474 0.0
C1263 C 0.95818 0.43829 0.87301 0.0
C1264 C 0.94179 0.41658 0.84774 0.0
H1265 H 0.8768 0.28424 0.7337 0.0
H1266 H 0.91146 0.32283 0.76077 0.0
H1267 H 0.88579 0.40809 0.80577 0.0
H1268 H 0.9535 0.48412 0.94298 0.0
H1269 H 0.92653 0.44815 0.90032 0.0
C1270 C 0.86553 0.88284 0.15116 0.0
C1271 C 0.8451 0.86052 0.13816 0.0
C1272 C 0.87918 0.89409 0.13443 0.0
C1273 C 0.89346 0.87878 0.05776 0.0
H1274 H 0.91733 0.95832 0.0913 0.0
C1275 C 0.97276 0.92891 0.01049 0.0
C1276 C 0.97282 0.95671 0.01433 0.0
C1277 C 0.95372 0.91617 0.02138 0.0
C1278 C 0.91056 0.93611 0.08129 0.0
H1279 H 0.82327 0.8329 0.0967 0.0
H1280 H 0.847 0.85232 0.06769 0.0
H1281 H 0.89191 0.9387 0.11895 0.0
H1282 H 0.95231 0.99271 0.03222 0.0
H1283 H 0.91859 0.97041 0.05063 0.0
H1284 H 0.91209 0.87624 0.02004 0.0
C1285 C 0.85273 0.86097 0.09092 0.0
C1286 C 0.89623 0.9247 0.09745 0.0
C1287 C 0.83904 0.84972 0.10767 0.0
C1288 C 0.95234 0.97095 0.02792 0.0
C1289 C 0.93335 0.95831 0.03913 0.0
C1290 C 0.90789 0.89018 0.04162 0.0
C1291 C 0.87298 0.88347 0.10399 0.0
C1292 C 0.88761 0.89578 0.08614 0.0
C1293 C 0.93431 0.93104 0.03704 0.0
C1294 C 0.91691 0.91905 0.05317 0.0
H1295 H 0.8713 0.89152 0.17438 0.0
H1296 H 0.89492 0.91095 0.14543 0.0
H1297 H 0.88745 0.85643 0.04817 0.0
H1298 H 0.98876 0.91769 1.00109 0.0
H1299 H 0.95551 0.89535 0.0194 0.0
C1300 C 0.83677 0.2255 0.81115 0.0
C1301 C 0.82444 0.21277 0.78237 0.0
C1302 C 0.84886 0.20987 0.82367 0.0
C1303 C 0.87512 0.14125 0.80473 0.0
H1304 H 0.87174 0.15984 0.8868 0.0
C1305 C 0.91112 0.06964 0.85697 0.0
C1306 C 0.92249 0.08183 0.88618 0.0
C1307 C 0.89955 0.0856 0.8445 0.0
C1308 C 0.87329 0.15442 0.86392 0.0
H1309 H 0.81578 0.17305 0.74432 0.0
H1310 H 0.83667 0.14596 0.76593 0.0
H1311 H 0.85145 0.18708 0.86512 0.0
H1312 H 0.93054 0.12132 0.92469 0.0
H1313 H 0.91059 0.14889 0.90317 0.0
H1314 H 0.897 0.10865 0.80351 0.0
C1315 C 0.83721 0.1682 0.77894 0.0
C1316 C 0.86152 0.17021 0.85135 0.0
C1317 C 0.82503 0.18383 0.76646 0.0
C1318 C 0.92175 0.11075 0.90236 0.0
C1319 C 0.91018 0.12673 0.88988 0.0
C1320 C 0.88693 0.1255 0.8173 0.0
C1321 C 0.84929 0.18085 0.80788 0.0
C1322 C 0.86213 0.16395 0.82146 0.0
C1323 C 0.89881 0.11452 0.86066 0.0
C1324 C 0.88625 0.13168 0.84717 0.0
H1325 H 0.83723 0.24771 0.82415 0.0
H1326 H 0.85821 0.22075 0.84575 0.0
H1327 H 0.8766 0.13581 0.78183 0.0
H1328 H 0.91065 0.04747 0.84368 0.0
H1329 H 0.89071 0.07498 0.82219 0.0
C1330 C 0.69663 0.22418 0.72688 0.0
C1331 C 0.72035 0.2187 0.73635 0.0
C1332 C 0.67967 0.20253 0.70521 0.0
C1333 C 0.66223 0.1267 0.66994 0.0
H1334 H 0.63609 0.13929 0.60409 0.0
C1335 C 0.574 0.07761 0.57254 0.0
C1336 C 0.57547 0.04898 0.56296 0.0
C1337 C 0.59384 0.09732 0.59167 0.0
C1338 C 0.64311 0.13552 0.62241 0.0
H1339 H 0.74472 0.1866 0.73191 0.0
H1340 H 0.7148 0.14867 0.6945 0.0
H1341 H 0.66514 0.17625 0.64355 0.0
H1342 H 0.59901 0.01825 0.56489 0.0
H1343 H 0.63413 0.05291 0.59834 0.0
H1344 H 0.63971 0.0863 0.64932 0.0
C1345 C 0.70937 0.16957 0.70359 0.0
C1346 C 0.65965 0.15667 0.64496 0.0
C1347 C 0.72642 0.19122 0.72492 0.0
C1348 C 0.59742 0.04027 0.5722 0.0
C1349 C 0.61741 0.06007 0.59134 0.0
C1350 C 0.64551 0.10561 0.6475 0.0
C1351 C 0.68612 0.17515 0.69314 0.0
C1352 C 0.66905 0.15255 0.66907 0.0
C1353 C 0.61563 0.0888 0.60153 0.0
C1354 C 0.63548 0.10997 0.62372 0.0
H1355 H 0.69172 0.2453 0.73528 0.0
H1356 H 0.66168 0.20721 0.69763 0.0
H1357 H 0.66925 0.1231 0.68837 0.0
H1358 H 0.55716 0.08485 0.56587 0.0
H1359 H 0.59163 0.11925 0.59949 0.0
C1360 C 0.5953 0.97499 0.43737 0.0
C1361 C 0.5795 0.96535 0.45388 0.0
C1362 C 0.61305 0.95857 0.42009 0.0
C1363 C 0.63027 0.88475 0.38803 0.0
H1364 H 0.69333 0.92014 0.37326 0.0
C1365 C 0.71439 0.82255 0.33469 0.0
C1366 C 0.72584 0.82796 0.31265 0.0
C1367 C 0.69678 0.83948 0.35152 0.0
C1368 C 0.67572 0.90987 0.37695 0.0
H1369 H 0.57062 0.93073 0.46538 0.0
H1370 H 0.60208 0.90275 0.43652 0.0
H1371 H 0.66301 0.94892 0.40359 0.0
H1372 H 0.72764 0.85604 0.29158 0.0
H1373 H 0.69736 0.88595 0.32142 0.0
H1374 H 0.64355 0.84569 0.362 0.0
C1375 C 0.60031 0.92263 0.43596 0.0
C1376 C 0.65811 0.92644 0.39436 0.0
C1377 C 0.58229 0.93889 0.45288 0.0
C1378 C 0.71936 0.85119 0.30834 0.0
C1379 C 0.70201 0.86843 0.32555 0.0
C1380 C 0.64807 0.86822 0.37101 0.0
C1381 C 0.61595 0.93201 0.419 0.0
C1382 C 0.63498 0.91423 0.40028 0.0
C1383 C 0.69023 0.86267 0.34723 0.0
C1384 C 0.67109 0.88049 0.36518 0.0
H1385 H 0.5936 0.9951 0.43726 0.0
H1386 H 0.62412 0.96664 0.40714 0.0
H1387 H 0.61259 0.87419 0.39118 0.0
H1388 H 0.71867 0.80485 0.33869 0.0
H1389 H 0.68839 0.83448 0.36815 0.0
C1390 C 0.85989 0.14807 0.35036 0.0
C1391 C 0.85697 0.17656 0.36559 0.0
C1392 C 0.87411 0.13438 0.36351 0.0
C1393 C 0.90131 0.14077 0.43667 0.0
H1394 H 0.94083 0.08274 0.38977 0.0
C1395 C 0.95141 0.07241 0.48391 0.0
C1396 C 0.97518 0.06342 0.474 0.0
C1397 C 0.93697 0.08614 0.47095 0.0
C1398 C 0.93015 0.09906 0.40342 0.0
H1399 H 0.86701 0.2126 0.40725 0.0
H1400 H 0.89218 0.18915 0.4297 0.0
H1401 H 0.91683 0.10685 0.36719 0.0
H1402 H 1.00235 0.06245 0.4426 0.0
H1403 H 0.97771 0.08664 0.42059 0.0
H1404 H 0.91524 0.13349 0.47307 0.0
C1405 C 0.88316 0.17714 0.40761 0.0
C1406 C 0.91595 0.11273 0.39026 0.0
C1407 C 0.86893 0.19082 0.39446 0.0
C1408 C 0.98411 0.06882 0.45085 0.0
C1409 C 0.96976 0.08262 0.43799 0.0
C1410 C 0.91556 0.12713 0.44986 0.0
C1411 C 0.88601 0.14863 0.39243 0.0
C1412 C 0.90124 0.13389 0.4066 0.0
C1413 C 0.94583 0.09146 0.44767 0.0
C1414 C 0.93032 0.10602 0.43351 0.0
H1415 H 0.85135 0.13624 0.32804 0.0
H1416 H 0.87542 0.11241 0.35099 0.0
H1417 H 0.89008 0.15659 0.45015 0.0
H1418 H 0.94374 0.06858 0.50155 0.0
H1419 H 0.91857 0.09213 0.47895 0.0
C1420 C 0.69103 0.21734 0.24429 0.0
C1421 C 0.71519 0.21213 0.23357 0.0
C1422 C 0.67077 0.19548 0.23633 0.0
C1423 C 0.63023 0.15778 0.18943 0.0
H1424 H 0.63324 0.0781 0.15881 0.0
C1425 C 0.59082 0.05765 0.07815 0.0
C1426 C 0.56695 0.06604 0.07346 0.0
C1427 C 0.605 0.07072 0.10566 0.0
C1428 C 0.63206 0.1003 0.16732 0.0
H1429 H 0.7384 0.18017 0.20898 0.0
H1430 H 0.70255 0.14206 0.19335 0.0
H1431 H 0.66693 0.11076 0.19637 0.0
H1432 H 0.53744 0.09172 0.0939 0.0
H1433 H 0.56135 0.11342 0.14225 0.0
H1434 H 0.59682 0.14804 0.15941 0.0
C1435 C 0.69922 0.16271 0.20857 0.0
C1436 C 0.65129 0.11897 0.18889 0.0
C1437 C 0.71975 0.18454 0.2173 0.0
C1438 C 0.55623 0.08559 0.09699 0.0
C1439 C 0.56995 0.09797 0.12462 0.0
C1440 C 0.61124 0.13929 0.16797 0.0
C1441 C 0.6741 0.16829 0.21653 0.0
C1442 C 0.65106 0.14799 0.1994 0.0
C1443 C 0.59512 0.09184 0.12896 0.0
C1444 C 0.61237 0.11037 0.15584 0.0
H1445 H 0.68738 0.23853 0.25741 0.0
H1446 H 0.65187 0.20031 0.24362 0.0
H1447 H 0.62959 0.17993 0.19639 0.0
H1448 H 0.59922 0.04232 0.06018 0.0
H1449 H 0.62435 0.06553 0.10806 0.0
C1450 C 0.73429 0.85469 0.8335 0.0
C1451 C 0.7245 0.82932 0.80949 0.0
C1452 C 0.71742 0.87228 0.85114 0.0
C1453 C 0.6481 0.88712 0.85298 0.0
H1454 H 0.66696 0.92547 0.9365 0.0
C1455 C 0.5867 0.96908 0.92958 0.0
C1456 C 0.58338 0.96986 0.9573 0.0
C1457 C 0.60412 0.9526 0.91172 0.0
C1458 C 0.66119 0.91482 0.91326 0.0
H1459 H 0.68887 0.80303 0.78527 0.0
H1460 H 0.65966 0.83348 0.8158 0.0
H1461 H 0.69622 0.8957 0.90527 0.0
H1462 H 0.59627 0.95366 0.98775 0.0
H1463 H 0.62641 0.92501 0.95677 0.0
H1464 H 0.61285 0.9058 0.86101 0.0
C1465 C 0.68041 0.84002 0.82098 0.0
C1466 C 0.67824 0.89792 0.89518 0.0
C1467 C 0.69727 0.82238 0.80343 0.0
C1468 C 0.59828 0.95382 0.96667 0.0
C1469 C 0.61575 0.93739 0.94884 0.0
C1470 C 0.6311 0.90411 0.87104 0.0
C1471 C 0.69015 0.8652 0.84533 0.0
C1472 C 0.67201 0.88369 0.86469 0.0
C1473 C 0.6189 0.93633 0.92094 0.0
C1474 C 0.63729 0.91826 0.90154 0.0
H1475 H 0.75507 0.86082 0.839 0.0
H1476 H 0.72584 0.89158 0.86933 0.0
H1477 H 0.64254 0.87686 0.82968 0.0
H1478 H 0.57568 0.98109 0.92148 0.0
H1479 H 0.60612 0.95283 0.89068 0.0
C1480 C 0.91544 0.95194 0.64732 0.0
C1481 C 0.91735 0.94081 0.61698 0.0
C1482 C 0.90204 0.93613 0.65997 0.0
C1483 C 0.87714 0.86273 0.6462 0.0
H1484 H 0.83388 0.89783 0.70807 0.0
C1485 C 0.80629 0.79623 0.68402 0.0
C1486 C 0.80172 0.80618 0.71357 0.0
C1487 C 0.82072 0.81325 0.67358 0.0
C1488 C 0.84612 0.88766 0.69111 0.0
H1489 H 0.90605 0.90378 0.57642 0.0
H1490 H 0.88314 0.87633 0.59839 0.0
H1491 H 0.85823 0.92582 0.68743 0.0
H1492 H 0.80896 0.84222 0.75537 0.0
H1493 H 0.83457 0.87206 0.73728 0.0
H1494 H 0.86531 0.82467 0.64988 0.0
C1495 C 0.89228 0.89729 0.61254 0.0
C1496 C 0.86014 0.90379 0.67916 0.0
C1497 C 0.90557 0.91313 0.59986 0.0
C1498 C 0.812 0.83388 0.73247 0.0
C1499 C 0.82662 0.85102 0.72198 0.0
C1500 C 0.86326 0.84666 0.65819 0.0
C1501 C 0.89018 0.90853 0.64281 0.0
C1502 C 0.87571 0.89154 0.65629 0.0
C1503 C 0.83136 0.8409 0.69232 0.0
C1504 C 0.84723 0.85871 0.68064 0.0
H1505 H 0.92455 0.97289 0.66152 0.0
H1506 H 0.90132 0.94549 0.68338 0.0
H1507 H 0.88927 0.85251 0.62912 0.0
H1508 H 0.79864 0.77508 0.66871 0.0
H1509 H 0.82325 0.80465 0.65054 0.0
C1510 C 0.20168 0.80274 0.82462 0.0
C1511 C 0.21255 0.80757 0.80199 0.0
C1512 C 0.18279 0.81867 0.84027 0.0
C1513 C 0.13682 0.86951 0.83889 0.0
H1514 H 0.13525 0.88484 0.92034 0.0
C1515 C 0.05904 0.9333 0.91044 0.0
C1516 C 0.06709 0.95056 0.94013 0.0
C1517 C 0.07538 0.91475 0.89257 0.0
C1518 C 0.13541 0.88114 0.89769 0.0
H1519 H 0.21167 0.83351 0.7785 0.0
H1520 H 0.17961 0.86146 0.80596 0.0
H1521 H 0.16634 0.85615 0.89221 0.0
H1522 H 0.09943 0.96173 0.97364 0.0
H1523 H 0.12735 0.93065 0.94305 0.0
H1524 H 0.10648 0.89554 0.84487 0.0
C1525 C 0.18508 0.84492 0.81134 0.0
C1526 C 0.15318 0.86409 0.88124 0.0
C1527 C 0.2038 0.82887 0.79558 0.0
C1528 C 0.09204 0.94876 0.9511 0.0
C1529 C 0.10825 0.93052 0.9334 0.0
C1530 C 0.11911 0.88676 0.85545 0.0
C1531 C 0.17417 0.84023 0.83408 0.0
C1532 C 0.15442 0.858 0.8515 0.0
C1533 C 0.1003 0.91292 0.90382 0.0
C1534 C 0.11821 0.89317 0.8853 0.0
H1535 H 0.20769 0.78652 0.83024 0.0
H1536 H 0.17478 0.81377 0.85711 0.0
H1537 H 0.13658 0.86518 0.81604 0.0
H1538 H 0.04009 0.93398 0.90103 0.0
H1539 H 0.06826 0.90156 0.87002 0.0
C1540 C 0.89427 0.44579 0.59448 0.0
C1541 C 0.91899 0.43938 0.60033 0.0
C1542 C 0.87171 0.43121 0.59788 0.0
C1543 C 0.83331 0.37744 0.5817 0.0
H1544 H 0.82499 0.36041 0.64825 0.0
C1545 C 0.78642 0.27289 0.57712 0.0
C1546 C 0.77311 0.27326 0.60068 0.0
C1547 C 0.79687 0.29795 0.5766 0.0
C1548 C 0.82667 0.36533 0.62968 0.0
H1549 H 0.93914 0.41363 0.61608 0.0
H1550 H 0.89991 0.38922 0.62311 0.0
H1551 H 0.85879 0.39741 0.65189 0.0
H1552 H 0.7586 0.30019 0.64093 0.0
H1553 H 0.77653 0.3437 0.63979 0.0
H1554 H 0.80226 0.34409 0.55889 0.0
C1555 C 0.89808 0.40536 0.61563 0.0
C1556 C 0.84611 0.38637 0.63175 0.0
C1557 C 0.92059 0.41951 0.61172 0.0
C1558 C 0.76842 0.29911 0.62226 0.0
C1559 C 0.77896 0.3241 0.62182 0.0
C1560 C 0.81408 0.35607 0.57948 0.0
C1561 C 0.87347 0.41046 0.60789 0.0
C1562 C 0.85004 0.39208 0.60755 0.0
C1563 C 0.79431 0.32372 0.59973 0.0
C1564 C 0.81105 0.34937 0.60323 0.0
H1565 H 0.89226 0.46147 0.5864 0.0
H1566 H 0.8529 0.43565 0.59205 0.0
H1567 H 0.83613 0.38134 0.56266 0.0
H1568 H 0.79022 0.25329 0.56014 0.0
H1569 H 0.80871 0.29706 0.55933 0.0
C1570 C 0.54722 0.19221 0.45952 0.0
C1571 C 0.52942 0.17772 0.46998 0.0
C1572 C 0.53984 0.21347 0.45257 0.0
C1573 C 0.48642 0.2573 0.45846 0.0
H1574 H 0.5066 0.2533 0.38443 0.0
C1575 C 0.43193 0.31101 0.40053 0.0
C1576 C 0.42431 0.29413 0.37074 0.0
C1577 C 0.45151 0.30433 0.41545 0.0
C1578 C 0.50074 0.25471 0.40514 0.0
H1579 H 0.49047 0.17553 0.48316 0.0
H1580 H 0.47721 0.21135 0.46975 0.0
H1581 H 0.52716 0.22702 0.40686 0.0
H1582 H 0.43312 0.25861 0.33272 0.0
H1583 H 0.46598 0.24603 0.35885 0.0
H1584 H 0.45836 0.28289 0.45552 0.0
C1585 C 0.49704 0.20682 0.46734 0.0
C1586 C 0.51285 0.23994 0.41827 0.0
C1587 C 0.5045 0.18584 0.47457 0.0
C1588 C 0.43801 0.27165 0.35582 0.0
C1589 C 0.45727 0.26471 0.3708 0.0
C1590 C 0.47401 0.27168 0.4451 0.0
C1591 C 0.51443 0.22056 0.45571 0.0
C1592 C 0.50515 0.24024 0.44459 0.0
C1593 C 0.46365 0.28039 0.40103 0.0
C1594 C 0.48036 0.26976 0.41774 0.0
H1595 H 0.56655 0.18642 0.4556 0.0
H1596 H 0.55386 0.22388 0.44409 0.0
H1597 H 0.48048 0.25862 0.47911 0.0
H1598 H 0.42183 0.32849 0.4128 0.0
H1599 H 0.45633 0.31729 0.43857 0.0
C1600 C 0.54455 0.60802 0.06594 0.0
C1601 C 0.55097 0.58479 0.07008 0.0
C1602 C 0.55525 0.63503 0.08584 0.0
C1603 C 0.59129 0.67627 0.15852 0.0
H1604 H 0.63708 0.7086 0.11941 0.0
C1605 C 0.70123 0.72939 0.18304 0.0
C1606 C 0.70134 0.74571 0.21306 0.0
C1607 C 0.67761 0.71915 0.16526 0.0
C1608 C 0.62419 0.7001 0.13067 0.0
H1609 H 0.57161 0.57107 0.09871 0.0
H1610 H 0.5894 0.61816 0.1341 0.0
H1611 H 0.60166 0.67155 0.09088 0.0
H1612 H 0.67777 0.76719 0.24757 0.0
H1613 H 0.63667 0.75005 0.21647 0.0
H1614 H 0.61476 0.70302 0.19795 0.0
C1615 C 0.57635 0.61574 0.11558 0.0
C1616 C 0.60375 0.67913 0.1144 0.0
C1617 C 0.56622 0.58884 0.0954 0.0
C1618 C 0.67802 0.75419 0.22449 0.0
C1619 C 0.65452 0.74433 0.20672 0.0
C1620 C 0.61157 0.69728 0.17478 0.0
C1621 C 0.5719 0.63899 0.11035 0.0
C1622 C 0.58794 0.66614 0.12807 0.0
C1623 C 0.65389 0.7254 0.1773 0.0
C1624 C 0.62899 0.70852 0.16088 0.0
H1625 H 0.53311 0.60521 0.04622 0.0
H1626 H 0.55162 0.65265 0.08136 0.0
H1627 H 0.57931 0.6666 0.16952 0.0
H1628 H 0.71904 0.72264 0.1738 0.0
H1629 H 0.67784 0.70452 0.14271 0.0
C1630 C 0.20695 0.20907 0.67382 0.0
C1631 C 0.21192 0.2339 0.69946 0.0
C1632 C 0.18266 0.2015 0.65766 0.0
C1633 C 0.11732 0.20138 0.67078 0.0
H1634 H 0.10439 0.16756 0.5864 0.0
C1635 C 0.06406 0.09416 0.59983 0.0
C1636 C 0.04913 0.08936 0.57403 0.0
C1637 C 0.07498 0.12123 0.61887 0.0
C1638 C 0.1073 0.17759 0.61003 0.0
H1639 H 0.19614 0.27106 0.72782 0.0
H1640 H 0.15301 0.25704 0.70005 0.0
H1641 H 0.14431 0.19953 0.6102 0.0
H1642 H 0.03228 0.1087 0.54844 0.0
H1643 H 0.05242 0.15623 0.58133 0.0
H1644 H 0.08174 0.17694 0.67039 0.0
C1645 C 0.16815 0.24389 0.69217 0.0
C1646 C 0.13018 0.19574 0.62357 0.0
C1647 C 0.19275 0.25186 0.70793 0.0
C1648 C 0.0435 0.11211 0.56852 0.0
C1649 C 0.05503 0.13919 0.58721 0.0
C1650 C 0.09467 0.18279 0.65719 0.0
C1651 C 0.16279 0.21833 0.6673 0.0
C1652 C 0.13589 0.20671 0.65392 0.0
C1653 C 0.07173 0.14374 0.61189 0.0
C1654 C 0.09013 0.16974 0.62663 0.0
H1655 H 0.22147 0.19495 0.667 0.0
H1656 H 0.17883 0.18151 0.63874 0.0
H1657 H 0.12146 0.20945 0.69423 0.0
H1658 H 0.06879 0.07679 0.60422 0.0
H1659 H 0.08805 0.12412 0.63755 0.0
C1660 C 0.7151 0.34159 0.30609 0.0
C1661 C 0.72199 0.31811 0.30965 0.0
C1662 C 0.69588 0.35687 0.32161 0.0
C1663 C 0.65764 0.36861 0.38618 0.0
H1664 H 0.61618 0.40609 0.35181 0.0
C1665 C 0.59442 0.45075 0.45619 0.0
C1666 C 0.57079 0.45456 0.44416 0.0
C1667 C 0.6111 0.43296 0.43883 0.0
C1668 C 0.62729 0.39558 0.36176 0.0
H1669 H 0.71344 0.2925 0.33273 0.0
H1670 H 0.67973 0.31864 0.35937 0.0
H1671 H 0.64782 0.37747 0.32397 0.0
H1672 H 0.54663 0.44183 0.40351 0.0
H1673 H 0.57566 0.41018 0.37299 0.0
H1674 H 0.63665 0.38594 0.42357 0.0
C1675 C 0.68956 0.32574 0.34492 0.0
C1676 C 0.64592 0.37935 0.34584 0.0
C1677 C 0.70898 0.31054 0.32949 0.0
C1678 C 0.56448 0.43955 0.41376 0.0
C1679 C 0.58134 0.42147 0.3962 0.0
C1680 C 0.63897 0.38467 0.40198 0.0
C1681 C 0.68253 0.34921 0.34124 0.0
C1682 C 0.66173 0.36577 0.35785 0.0
C1683 C 0.605 0.41781 0.40849 0.0
C1684 C 0.62365 0.39886 0.39033 0.0
H1685 H 0.72461 0.34833 0.29118 0.0
H1686 H 0.69177 0.37499 0.31835 0.0
H1687 H 0.66928 0.35891 0.39663 0.0
H1688 H 0.60046 0.46183 0.47935 0.0
H1689 H 0.6292 0.43161 0.44941 0.0
C1690 C 0.43418 0.892 0.08875 0.0
C1691 C 0.42965 0.91447 0.08218 0.0
C1692 C 0.41345 0.87336 0.08914 0.0
C1693 C 0.34177 0.86302 0.09048 0.0
H1694 H 0.35293 0.78528 0.06035 0.0
C1695 C 0.27789 0.78084 0.11245 0.0
C1696 C 0.2766 0.7524 0.09333 0.0
C1697 C 0.29236 0.80124 0.1068 0.0
C1698 C 0.34916 0.80676 0.06825 0.0
H1699 H 0.39955 0.93584 0.07255 0.0
H1700 H 0.36347 0.90265 0.07199 0.0
H1701 H 0.38704 0.81983 0.06039 0.0
H1702 H 0.28723 0.72323 0.05189 0.0
H1703 H 0.31177 0.75902 0.04131 0.0
H1704 H 0.30355 0.84973 0.09759 0.0
C1705 C 0.38305 0.89958 0.07717 0.0
C1706 C 0.36903 0.82674 0.06887 0.0
C1707 C 0.4038 0.91845 0.07714 0.0
C1708 C 0.28813 0.74499 0.06712 0.0
C1709 C 0.30236 0.76549 0.06125 0.0
C1710 C 0.32173 0.84294 0.08951 0.0
C1711 C 0.38766 0.87648 0.08258 0.0
C1712 C 0.36583 0.8552 0.08059 0.0
C1713 C 0.3057 0.79371 0.08172 0.0
C1714 C 0.32536 0.81461 0.07894 0.0
H1715 H 0.45378 0.88808 0.09252 0.0
H1716 H 0.41773 0.85623 0.09416 0.0
H1717 H 0.33862 0.88475 0.09971 0.0
H1718 H 0.26954 0.78724 0.13306 0.0
H1719 H 0.29462 0.82263 0.12325 0.0
C1720 C 0.03194 0.70595 0.99252 0.0
C1721 C 0.02616 0.69918 0.01576 0.0
C1722 C 1.01879 0.7251 0.98691 0.0
C1723 C 0.95496 0.74811 0.99433 0.0
H1724 H 0.98332 0.79417 0.95749 0.0
C1725 C 0.89505 0.76739 0.90851 0.0
C1726 C 0.89884 0.79367 0.90786 0.0
C1727 C 0.91058 0.76167 0.92803 0.0
C1728 C 0.97511 0.78181 0.96817 0.0
H1729 H 1.00365 0.70921 0.0529 0.0
H1730 H 0.98047 0.74259 0.04288 0.0
H1731 H 1.01273 0.77605 0.98229 0.0
H1732 H 0.92149 0.83485 0.92787 0.0
H1733 H 0.94891 0.82466 0.96186 0.0
H1734 H 0.91737 0.7532 0.97951 0.0
C1735 C 0.99497 0.7327 0.0288 0.0
C1736 C 0.99195 0.77125 0.98218 0.0
C1737 C 1.00823 0.71358 0.03451 0.0
C1738 C 0.91831 0.81427 0.92755 0.0
C1739 C 0.93395 0.80848 0.94706 0.0
C1740 C 0.93815 0.75861 0.98029 0.0
C1741 C 0.99948 0.73791 1.00433 0.0
C1742 C 0.98205 0.75356 0.9946 0.0
C1743 C 0.93035 0.78204 0.94734 0.0
C1744 C 0.94804 0.77481 0.96625 0.0
H1745 H 0.04528 0.69502 0.97731 0.0
H1746 H 1.02252 0.72833 0.96766 0.0
H1747 H 0.94667 0.73437 1.00345 0.0
H1748 H 0.88059 0.75087 0.8933 0.0
H1749 H 0.90766 0.7409 0.92728 0.0
C1750 C 0.39109 0.44395 0.12147 0.0
C1751 C 0.41598 0.43841 0.11249 0.0
C1752 C 0.37734 0.42858 0.13428 0.0
C1753 C 0.38552 0.38319 0.173 0.0
H1754 H 0.31112 0.36234 0.1527 0.0
C1755 C 0.32463 0.31059 0.21444 0.0
C1756 C 0.29855 0.31438 0.21924 0.0
C1757 C 0.33945 0.32575 0.20205 0.0
C1758 C 0.33181 0.3683 0.15914 0.0
H1759 H 0.4457 0.41194 0.11033 0.0
H1760 H 0.42171 0.3851 0.13262 0.0
H1761 H 0.33559 0.38796 0.12998 0.0
H1762 H 0.268 0.33796 0.2156 0.0
H1763 H 0.29378 0.36491 0.19503 0.0
H1764 H 0.38172 0.36385 0.20246 0.0
C1765 C 0.41288 0.40155 0.12983 0.0
C1766 C 0.34595 0.38302 0.1459 0.0
C1767 C 0.42658 0.41681 0.11674 0.0
C1768 C 0.28795 0.33432 0.21206 0.0
C1769 C 0.30278 0.34964 0.19991 0.0
C1770 C 0.37134 0.36862 0.18644 0.0
C1771 C 0.38797 0.40714 0.13877 0.0
C1772 C 0.37304 0.39082 0.15264 0.0
C1773 C 0.32871 0.34538 0.19424 0.0
C1774 C 0.34415 0.36096 0.17984 0.0
H1775 H 0.382 0.4601 0.11833 0.0
H1776 H 0.35839 0.43381 0.14104 0.0
H1777 H 0.40627 0.38904 0.1791 0.0
H1778 H 0.33344 0.29533 0.21957 0.0
H1779 H 0.35914 0.32145 0.19788 0.0
C1780 C 0.45246 0.56706 0.97844 0.0
C1781 C 0.47677 0.55914 0.96936 0.0
C1782 C 0.43794 0.58065 0.96538 0.0
C1783 C 0.44396 0.62159 0.92049 0.0
H1784 H 0.3691 0.60233 0.90518 0.0
C1785 C 0.38207 0.6646 0.85285 0.0
C1786 C 0.35668 0.67011 0.85986 0.0
C1787 C 0.39667 0.65123 0.86611 0.0
C1788 C 0.38994 0.6084 0.9096 0.0
H1789 H 0.5047 0.5598 0.9392 0.0
H1790 H 0.47961 0.58338 0.91668 0.0
H1791 H 0.39417 0.57953 0.92858 0.0
H1792 H 0.32736 0.6662 0.88737 0.0
H1793 H 0.35263 0.64341 0.91049 0.0
H1794 H 0.4398 0.65065 0.90181 0.0
C1795 C 0.47173 0.57926 0.93406 0.0
C1796 C 0.40442 0.59517 0.92309 0.0
C1797 C 0.48614 0.5655 0.94694 0.0
C1798 C 0.34656 0.66193 0.88079 0.0
C1799 C 0.36117 0.64871 0.89414 0.0
C1800 C 0.42948 0.63494 0.90715 0.0
C1801 C 0.4473 0.58701 0.94293 0.0
C1802 C 0.43172 0.60147 0.92875 0.0
C1803 C 0.38652 0.64299 0.88704 0.0
C1804 C 0.40215 0.62861 0.90138 0.0
H1805 H 0.44449 0.56259 0.99558 0.0
H1806 H 0.41942 0.58646 0.97318 0.0
H1807 H 0.46484 0.62746 0.92479 0.0
H1808 H 0.39058 0.67017 0.83666 0.0
H1809 H 0.41585 0.64694 0.85949 0.0
C1810 C 0.08437 0.55843 0.59024 0.0
C1811 C 0.08871 0.54594 0.56075 0.0
C1812 C 0.10498 0.56548 0.6119 0.0
C1813 C 0.15126 0.57957 0.65628 0.0
H1814 H 0.21136 0.61083 0.63245 0.0
C1815 C 0.24848 0.6676 0.6981 0.0
C1816 C 0.23597 0.69015 0.71536 0.0
C1817 C 0.23536 0.6405 0.68641 0.0
C1818 C 0.19522 0.60164 0.63965 0.0
H1819 H 0.11664 0.5277 0.53036 0.0
H1820 H 0.15233 0.53826 0.56804 0.0
H1821 H 0.17807 0.57927 0.59607 0.0
H1822 H 0.20144 0.70242 0.73694 0.0
H1823 H 0.1777 0.65515 0.71509 0.0
H1824 H 0.16798 0.60451 0.7004 0.0
C1825 C 0.13355 0.54422 0.57471 0.0
C1826 C 0.17589 0.58328 0.61853 0.0
C1827 C 0.11316 0.53807 0.55309 0.0
C1828 C 0.21131 0.68515 0.72354 0.0
C1829 C 0.19784 0.65803 0.71116 0.0
C1830 C 0.17062 0.59836 0.67759 0.0
C1831 C 0.13012 0.55943 0.60436 0.0
C1832 C 0.15306 0.57296 0.62653 0.0
C1833 C 0.20916 0.63577 0.69087 0.0
C1834 C 0.19227 0.61049 0.66946 0.0
H1835 H 0.06549 0.56441 0.59655 0.0
H1836 H 0.10144 0.57733 0.63435 0.0
H1837 H 0.13429 0.57144 0.66325 0.0
H1838 H 0.26775 0.67115 0.692 0.0
H1839 H 0.24485 0.62365 0.67154 0.0
C1840 C 0.37673 0.37015 0.64764 0.0
C1841 C 0.34935 0.36433 0.64305 0.0
C1842 C 0.3909 0.38157 0.63138 0.0
C1843 C 0.38401 0.41908 0.58319 0.0
H1844 H 0.45181 0.39705 0.56317 0.0
C1845 C 0.47533 0.43367 0.51258 0.0
C1846 C 0.47666 0.46234 0.51958 0.0
C1847 C 0.45697 0.42051 0.52379 0.0
C1848 C 0.43277 0.40328 0.56809 0.0
H1849 H 0.31574 0.36683 0.61749 0.0
H1850 H 0.34032 0.38595 0.58886 0.0
H1851 H 0.4264 0.37682 0.59009 0.0
H1852 H 0.45918 0.49952 0.54365 0.0
H1853 H 0.42703 0.47679 0.5631 0.0
H1854 H 0.3903 0.44523 0.56068 0.0
C1855 C 0.35092 0.38194 0.60532 0.0
C1856 C 0.41825 0.39192 0.58413 0.0
C1857 C 0.33674 0.37051 0.62159 0.0
C1858 C 0.45804 0.47716 0.53679 0.0
C1859 C 0.43976 0.46407 0.54831 0.0
C1860 C 0.39856 0.43046 0.56707 0.0
C1861 C 0.3783 0.38765 0.60983 0.0
C1862 C 0.39364 0.39967 0.59216 0.0
C1863 C 0.43964 0.43575 0.54304 0.0
C1864 C 0.42327 0.42281 0.55923 0.0
H1865 H 0.38738 0.36556 0.66365 0.0
H1866 H 0.41186 0.38592 0.63601 0.0
H1867 H 0.36533 0.42595 0.58904 0.0
H1868 H 0.48987 0.42182 0.50016 0.0
H1869 H 0.45726 0.39857 0.51841 0.0
C1870 C 0.18571 0.72464 0.23971 0.0
C1871 C 0.21034 0.71919 0.24675 0.0
C1872 C 0.16742 0.7028 0.22026 0.0
C1873 C 0.14883 0.6269 0.1847 0.0
H1874 H 0.12471 0.64021 0.11865 0.0
C1875 C 0.06673 0.57764 0.07919 0.0
C1876 C 0.06932 0.54911 0.06812 0.0
C1877 C 0.08406 0.59725 0.10189 0.0
C1878 C 0.13095 0.63624 0.13709 0.0
H1879 H 0.23481 0.68686 0.24088 0.0
H1880 H 0.20261 0.64862 0.20726 0.0
H1881 H 0.15261 0.677 0.15906 0.0
H1882 H 0.09199 0.51853 0.07192 0.0
H1883 H 0.12316 0.55324 0.11156 0.0
H1884 H 0.12673 0.58621 0.16288 0.0
C1885 C 0.1975 0.66966 0.21656 0.0
C1886 C 0.1469 0.65734 0.16021 0.0
C1887 C 0.21589 0.69151 0.23564 0.0
C1888 C 0.08967 0.54046 0.08015 0.0
C1889 C 0.10732 0.56028 0.10289 0.0
C1890 C 0.13251 0.60581 0.16165 0.0
C1891 C 0.17345 0.67526 0.20803 0.0
C1892 C 0.15583 0.65293 0.18427 0.0
C1893 C 0.1047 0.58891 0.11388 0.0
C1894 C 0.12322 0.61038 0.13771 0.0
H1895 H 0.18106 0.74585 0.248 0.0
H1896 H 0.14886 0.70751 0.21406 0.0
H1897 H 0.15566 0.62307 0.20305 0.0
H1898 H 0.05104 0.5849 0.07052 0.0
H1899 H 0.08106 0.61901 0.11027 0.0
C1900 C 0.72595 0.30139 0.68619 0.0
C1901 C 0.7406 0.31432 0.71373 0.0
C1902 C 0.71312 0.31709 0.67427 0.0
C1903 C 0.71083 0.39127 0.68277 0.0
H1904 H 0.64669 0.35851 0.63192 0.0
C1905 C 0.66269 0.44974 0.62155 0.0
C1906 C 0.63532 0.44627 0.61597 0.0
C1907 C 0.67522 0.43365 0.63315 0.0
C1908 C 0.66445 0.36829 0.64628 0.0
H1909 H 0.75249 0.35447 0.75041 0.0
H1910 H 0.72999 0.38158 0.73019 0.0
H1911 H 0.66818 0.33135 0.65279 0.0
H1912 H 0.6001 0.42208 0.6185 0.0
H1913 H 0.62168 0.39481 0.63918 0.0
H1914 H 0.70676 0.42846 0.67695 0.0
C1915 C 0.72877 0.35926 0.71723 0.0
C1916 C 0.67713 0.35238 0.65805 0.0
C1917 C 0.74162 0.34355 0.72909 0.0
C1918 C 0.62109 0.42592 0.62259 0.0
C1919 C 0.63365 0.40981 0.63422 0.0
C1920 C 0.69814 0.40718 0.67105 0.0
C1921 C 0.7143 0.34644 0.68947 0.0
C1922 C 0.70062 0.3635 0.67661 0.0
C1923 C 0.66102 0.41332 0.6398 0.0
C1924 C 0.67465 0.39609 0.6525 0.0
H1925 H 0.72437 0.27899 0.6737 0.0
H1926 H 0.70263 0.30609 0.65277 0.0
H1927 H 0.72895 0.40084 0.6965 0.0
H1928 H 0.67464 0.46526 0.61732 0.0
H1929 H 0.69625 0.43706 0.63656 0.0
C1930 C 0.82736 0.71199 0.16931 0.0
C1931 C 0.81675 0.7067 0.19183 0.0
C1932 C 0.84467 0.69509 0.15189 0.0
C1933 C 0.86612 0.62484 0.12593 0.0
H1934 H 0.92753 0.66038 0.1084 0.0
C1935 C 0.94543 0.55985 0.063 0.0
C1936 C 0.9603 0.56901 0.04544 0.0
C1937 C 0.928 0.57635 0.08072 0.0
C1938 C 0.91031 0.64987 0.11249 0.0
H1939 H 0.81618 0.67886 0.21316 0.0
H1940 H 0.84599 0.64898 0.1823 0.0
H1941 H 0.8973 0.68895 0.13899 0.0
H1942 H 0.96774 0.60291 0.03259 0.0
H1943 H 0.93682 0.63115 0.06242 0.0
H1944 H 0.87855 0.58576 0.09888 0.0
C1945 C 0.84089 0.6664 0.17826 0.0
C1946 C 0.89294 0.66642 0.13032 0.0
C1947 C 0.8238 0.68362 0.19605 0.0
C1948 C 0.95684 0.59512 0.04587 0.0
C1949 C 0.93911 0.6115 0.06333 0.0
C1950 C 0.8833 0.60824 0.10775 0.0
C1951 C 0.85179 0.67204 0.15606 0.0
C1952 C 0.87055 0.6542 0.13735 0.0
C1953 C 0.92445 0.60256 0.08131 0.0
C1954 C 0.9058 0.6204 0.10066 0.0
H1955 H 0.82262 0.72956 0.16533 0.0
H1956 H 0.85234 0.69999 0.13488 0.0
H1957 H 0.84898 0.61459 0.13049 0.0
H1958 H 0.94767 0.54006 0.06365 0.0
H1959 H 0.91774 0.56864 0.09446 0.0
C1960 C 0.95535 0.56037 0.58442 0.0
C1961 C 0.96515 0.56578 0.56163 0.0
C1962 C 0.93829 0.57725 0.60248 0.0
C1963 C 0.89108 0.6264 0.60591 0.0
H1964 H 0.90253 0.65152 0.6897 0.0
C1965 C 0.81604 0.68278 0.68521 0.0
C1966 C 0.82592 0.70677 0.71072 0.0
C1967 C 0.83281 0.66548 0.6671 0.0
C1968 C 0.89905 0.64476 0.66636 0.0
H1969 H 0.96401 0.59323 0.53992 0.0
H1970 H 0.9339 0.62216 0.57092 0.0
H1971 H 0.93172 0.62166 0.65795 0.0
H1972 H 0.86148 0.7309 0.73723 0.0
H1973 H 0.89062 0.70038 0.70612 0.0
H1974 H 0.85827 0.6493 0.61431 0.0
C1975 C 0.93955 0.60491 0.57493 0.0
C1976 C 0.9157 0.62742 0.64809 0.0
C1977 C 0.95695 0.58831 0.55717 0.0
C1978 C 0.85309 0.71264 0.71783 0.0
C1979 C 0.86984 0.69504 0.7 0.0
C1980 C 0.87416 0.64334 0.62415 0.0
C1981 C 0.93012 0.59981 0.59806 0.0
C1982 C 0.91206 0.61805 0.61757 0.0
C1983 C 0.85998 0.67132 0.6742 0.0
C1984 C 0.87793 0.65291 0.65468 0.0
H1985 H 0.96119 0.5433 0.58868 0.0
H1986 H 0.9313 0.57245 0.61984 0.0
H1987 H 0.8875 0.61952 0.58256 0.0
H1988 H 0.79528 0.67759 0.67887 0.0
H1989 H 0.82443 0.64732 0.6476 0.0
C1990 C 0.41448 0.61119 0.41027 0.0
C1991 C 0.42152 0.5848 0.39227 0.0
C1992 C 0.40207 0.62721 0.39842 0.0
C1993 C 0.38704 0.63318 0.32725 0.0
H1994 H 0.33792 0.68123 0.37039 0.0
C1995 C 0.32116 0.68602 0.27367 0.0
C1996 C 0.31545 0.71324 0.29066 0.0
C1997 C 0.33426 0.6711 0.28632 0.0
C1998 C 0.35177 0.6682 0.35803 0.0
H1999 H 0.42092 0.55548 0.34687 0.0
H2000 H 0.39886 0.58256 0.32658 0.0
H2001 H 0.35989 0.65441 0.39141 0.0
H2002 H 0.31926 0.74565 0.33488 0.0
H2003 H 0.34189 0.71981 0.3569 0.0
H2004 H 0.37866 0.64677 0.29374 0.0
C2005 C 0.40321 0.59127 0.35003 0.0
C2006 C 0.36456 0.65267 0.37022 0.0
C2007 C 0.41568 0.57532 0.36185 0.0
C2008 C 0.32324 0.72487 0.3209 0.0
C2009 C 0.33617 0.70983 0.33363 0.0
C2010 C 0.37414 0.64857 0.31501 0.0
C2011 C 0.39607 0.61761 0.368 0.0
C2012 C 0.38246 0.63471 0.35509 0.0
C2013 C 0.34206 0.68263 0.31658 0.0
C2014 C 0.35617 0.66638 0.33007 0.0
H2015 H 0.41818 0.61947 0.43376 0.0
H2016 H 0.39742 0.64738 0.41333 0.0
H2017 H 0.40095 0.62032 0.31483 0.0
H2018 H 0.31553 0.6761 0.25038 0.0
H2019 H 0.3379 0.65018 0.27227 0.0
C2020 C 0.22508 0.35515 0.81486 0.0
C2021 C 0.22385 0.32726 0.8113 0.0
C2022 C 0.20829 0.37312 0.83229 0.0
C2023 C 0.14476 0.37246 0.86365 0.0
H2024 H 0.1702 0.44946 0.91598 0.0
C2025 C 0.07914 0.44158 0.94662 0.0
C2026 C 0.08167 0.47053 0.95446 0.0
C2027 C 0.09683 0.42486 0.92965 0.0
C2028 C 0.16249 0.42816 0.90123 0.0
H2029 H 0.20352 0.29676 0.82363 0.0
H2030 H 0.1744 0.32776 0.85351 0.0
H2031 H 0.19974 0.41949 0.88539 0.0
H2032 H 0.10527 0.50437 0.95024 0.0
H2033 H 0.13567 0.4753 0.92013 0.0
H2034 H 0.10748 0.38101 0.87878 0.0
C2035 C 0.1883 0.33582 0.8428 0.0
C2036 C 0.17961 0.41086 0.88363 0.0
C2037 C 0.20523 0.31799 0.8257 0.0
C2038 C 0.1027 0.48224 0.94491 0.0
C2039 C 0.1203 0.46544 0.92762 0.0
C2040 C 0.12761 0.38979 0.88097 0.0
C2041 C 0.18948 0.36371 0.84642 0.0
C2042 C 0.17109 0.38262 0.8647 0.0
C2043 C 0.11764 0.43633 0.91947 0.0
C2044 C 0.13613 0.41796 0.90036 0.0
H2045 H 0.23906 0.36317 0.8042 0.0
H2046 H 0.20976 0.39432 0.83426 0.0
H2047 H 0.13722 0.35106 0.84903 0.0
H2048 H 0.06338 0.43169 0.95364 0.0
H2049 H 0.09418 0.40284 0.92473 0.0
C2050 C 0.22797 0.34739 0.33154 0.0
C2051 C 0.218 0.32379 0.30569 0.0
C2052 C 0.21132 0.36484 0.34974 0.0
C2053 C 0.14311 0.38318 0.35112 0.0
H2054 H 0.16025 0.41625 0.43495 0.0
C2055 C 0.08349 0.46558 0.42962 0.0
C2056 C 0.07944 0.46561 0.45689 0.0
C2057 C 0.10042 0.4486 0.41148 0.0
C2058 C 0.15493 0.40706 0.41162 0.0
H2059 H 0.18227 0.30043 0.27892 0.0
H2060 H 0.15342 0.3305 0.3105 0.0
H2061 H 0.18895 0.38623 0.4031 0.0
H2062 H 0.09042 0.44746 0.48621 0.0
H2063 H 0.11959 0.41769 0.45459 0.0
H2064 H 0.10878 0.40342 0.35962 0.0
C2065 C 0.17418 0.33587 0.31667 0.0
C2066 C 0.1717 0.39003 0.39319 0.0
C2067 C 0.19083 0.31842 0.29849 0.0
C2068 C 0.093 0.44815 0.46547 0.0
C2069 C 0.10995 0.43112 0.44729 0.0
C2070 C 0.12635 0.4002 0.36953 0.0
C2071 C 0.18408 0.35933 0.34275 0.0
C2072 C 0.16614 0.37775 0.36257 0.0
C2073 C 0.11393 0.43095 0.41988 0.0
C2074 C 0.13193 0.41252 0.40015 0.0
H2075 H 0.24872 0.35231 0.33795 0.0
H2076 H 0.21992 0.38283 0.36926 0.0
H2077 H 0.13808 0.37452 0.32776 0.0
H2078 H 0.07356 0.47874 0.42216 0.0
H2079 H 0.10313 0.44964 0.39093 0.0
loop_
_geom_bond_atom_site_label_1
_geom_bond_atom_site_label_2
_geom_bond_distance
_geom_bond_site_symmetry_2
_ccdc_geom_bond_type
Nd0 C2 2.836 1_545 S
Nd0 O20 2.500 . S
Nd0 O21 2.492 1_545 S
Nd0 O22 2.487 1_445 S
Nd0 O23 2.682 1_445 S
Nd0 O24 2.410 1_544 S
Nd0 O29 2.414 1_554 S
Nd0 O31 2.424 1_455 S
Nd1 C11 2.836 1_565 S
Nd1 O23 2.414 1_556 S
Nd1 O25 2.424 1_655 S
Nd1 O26 2.500 . S
Nd1 O27 2.492 1_565 S
Nd1 O28 2.487 1_665 S
Nd1 O29 2.682 1_665 S
Nd1 O30 2.410 1_566 S
C2 Nd0 2.836 1_565 S
C2 C3 1.498 . S
C2 O20 1.258 1_565 S
C2 O21 1.239 . S
C3 C2 1.498 . S
C3 C4 1.366 . S
C3 C8 1.407 . S
C4 C3 1.366 . S
C4 C5 1.392 . S
C4 H32 0.930 . S
C5 C4 1.392 . S
C5 C6 1.398 . S
C5 H33 0.929 . S
C6 C5 1.398 . S
C6 C7 1.352 . S
C7 C6 1.352 . S
C7 C8 1.384 . S
C7 H34 0.930 . S
C8 C3 1.407 . S
C8 C7 1.384 . S
C8 H35 0.929 . S
C9 O22 1.241 . S
C9 O23 1.273 . S
C10 O24 1.251 . S
C10 O25 1.268 . S
C11 Nd1 2.836 1_545 S
C11 C12 1.498 . S
C11 O26 1.258 1_545 S
C11 O27 1.239 . S
C12 C11 1.498 . S
C12 C13 1.366 . S
C12 C17 1.407 . S
C13 C12 1.366 . S
C13 C14 1.392 . S
C13 H36 0.930 . S
C14 C13 1.392 . S
C14 C15 1.398 . S
C14 H37 0.929 . S
C15 C14 1.398 . S
C15 C16 1.352 . S
C16 C15 1.352 . S
C16 C17 1.384 . S
C16 H38 0.930 . S
C17 C12 1.407 . S
C17 C16 1.384 . S
C17 H39 0.929 . S
C18 O28 1.241 . S
C18 O29 1.273 . S
C19 O30 1.251 . S
C19 O31 1.268 . S
O20 Nd0 2.500 . S
O20 C2 1.258 1_545 S
O21 Nd0 2.492 1_565 S
O21 C2 1.239 . S
O22 Nd0 2.487 1_665 S
O22 C9 1.241 . S
O23 Nd0 2.682 1_665 S
O23 Nd1 2.414 1_554 S
O23 C9 1.273 . S
O24 Nd0 2.410 1_566 S
O24 C10 1.251 . S
O25 Nd1 2.424 1_455 S
O25 C10 1.268 . S
O26 Nd1 2.500 . S
O26 C11 1.258 1_565 S
O27 Nd1 2.492 1_545 S
O27 C11 1.239 . S
O28 Nd1 2.487 1_445 S
O28 C18 1.241 . S
O29 Nd0 2.414 1_556 S
O29 Nd1 2.682 1_445 S
O29 C18 1.273 . S
O30 Nd1 2.410 1_544 S
O30 C19 1.251 . S
O31 Nd0 2.424 1_655 S
O31 C19 1.268 . S
H32 C4 0.930 . S
H33 C5 0.929 . S
H34 C7 0.930 . S
H35 C8 0.929 . S
H36 C13 0.930 . S
H37 C14 0.929 . S
H38 C16 0.930 . S
H39 C17 0.929 . S
Nd40 C42 2.836 . S
Nd40 O60 2.500 . S
Nd40 O61 2.492 . S
Nd40 O62 2.487 . S
Nd40 O63 2.682 . S
Nd40 O64 2.410 . S
Nd40 O69 2.414 . S
Nd40 O71 2.424 . S
Nd41 C51 2.836 . S
Nd41 O63 2.414 . S
Nd41 O65 2.424 . S
Nd41 O66 2.500 . S
Nd41 O67 2.492 . S
Nd41 O68 2.487 . S
Nd41 O69 2.682 . S
Nd41 O70 2.410 . S
C42 Nd40 2.836 . S
C42 C43 1.498 . S
C42 O60 1.258 . S
C42 O61 1.239 . S
C43 C42 1.498 . S
C43 C44 1.366 . S
C43 C48 1.407 . S
C44 C43 1.366 . S
C44 C45 1.392 . S
C44 H72 0.930 . S
C45 C44 1.392 . S
C45 C46 1.398 . S
C45 H73 0.929 . S
C46 C45 1.398 . S
C46 C47 1.352 . S
C47 C46 1.352 . S
C47 C48 1.384 . S
C47 H74 0.930 . S
C48 C43 1.407 . S
C48 C47 1.384 . S
C48 H75 0.929 . S
C49 O62 1.241 . S
C49 O63 1.273 . S
C50 O64 1.251 . S
C50 O65 1.268 . S
C51 Nd41 2.836 . S
C51 C52 1.498 . S
C51 O66 1.258 . S
C51 O67 1.239 . S
C52 C51 1.498 . S
C52 C53 1.366 . S
C52 C57 1.407 . S
C53 C52 1.366 . S
C53 C54 1.392 . S
C53 H76 0.930 . S
C54 C53 1.392 . S
C54 C55 1.398 . S
C54 H77 0.929 . S
C55 C54 1.398 . S
C55 C56 1.352 . S
C56 C55 1.352 . S
C56 C57 1.384 . S
C56 H78 0.930 . S
C57 C52 1.407 . S
C57 C56 1.384 . S
C57 H79 0.929 . S
C58 O68 1.241 . S
C58 O69 1.273 . S
C59 O70 1.251 . S
C59 O71 1.268 . S
O60 Nd40 2.500 . S
O60 C42 1.258 . S
O61 Nd40 2.492 . S
O61 C42 1.239 . S
O62 Nd40 2.487 . S
O62 C49 1.241 . S
O63 Nd40 2.682 . S
O63 Nd41 2.414 . S
O63 C49 1.273 . S
O64 Nd40 2.410 . S
O64 C50 1.251 . S
O65 Nd41 2.424 . S
O65 C50 1.268 . S
O66 Nd41 2.500 . S
O66 C51 1.258 . S
O67 Nd41 2.492 . S
O67 C51 1.239 . S
O68 Nd41 2.487 . S
O68 C58 1.241 . S
O69 Nd40 2.414 . S
O69 Nd41 2.682 . S
O69 C58 1.273 . S
O70 Nd41 2.410 . S
O70 C59 1.251 . S
O71 Nd40 2.424 . S
O71 C59 1.268 . S
H72 C44 0.930 . S
H73 C45 0.929 . S
H74 C47 0.930 . S
H75 C48 0.929 . S
H76 C53 0.930 . S
H77 C54 0.929 . S
H78 C56 0.930 . S
H79 C57 0.929 . S
Nd80 C82 2.836 . S
Nd80 O100 2.500 . S
Nd80 O101 2.492 . S
Nd80 O102 2.487 1_545 S
Nd80 O103 2.682 1_545 S
Nd80 O104 2.410 . S
Nd80 O109 2.414 . S
Nd80 O111 2.424 1_545 S
Nd81 C91 2.836 . S
Nd81 O103 2.414 . S
Nd81 O105 2.424 1_565 S
Nd81 O106 2.500 . S
Nd81 O107 2.492 . S
Nd81 O108 2.487 1_565 S
Nd81 O109 2.682 1_565 S
Nd81 O110 2.410 . S
C82 Nd80 2.836 . S
C82 C83 1.498 . S
C82 O100 1.258 . S
C82 O101 1.239 . S
C83 C82 1.498 . S
C83 C84 1.366 . S
C83 C88 1.407 . S
C84 C83 1.366 . S
C84 C85 1.392 . S
C84 H112 0.930 . S
C85 C84 1.392 . S
C85 C86 1.398 . S
C85 H113 0.929 . S
C86 C85 1.398 . S
C86 C87 1.352 . S
C87 C86 1.352 . S
C87 C88 1.384 . S
C87 H114 0.930 . S
C88 C83 1.407 . S
C88 C87 1.384 . S
C88 H115 0.929 . S
C89 O102 1.241 . S
C89 O103 1.273 . S
C90 O104 1.251 . S
C90 O105 1.268 . S
C91 Nd81 2.836 . S
C91 C92 1.498 . S
C91 O106 1.258 . S
C91 O107 1.239 . S
C92 C91 1.498 . S
C92 C93 1.366 . S
C92 C97 1.407 . S
C93 C92 1.366 . S
C93 C94 1.392 . S
C93 H116 0.930 . S
C94 C93 1.392 . S
C94 C95 1.398 . S
C94 H117 0.929 . S
C95 C94 1.398 . S
C95 C96 1.352 . S
C96 C95 1.352 . S
C96 C97 1.384 . S
C96 H118 0.930 . S
C97 C92 1.407 . S
C97 C96 1.384 . S
C97 H119 0.929 . S
C98 O108 1.241 . S
C98 O109 1.273 . S
C99 O110 1.251 . S
C99 O111 1.268 . S
O100 Nd80 2.500 . S
O100 C82 1.258 . S
O101 Nd80 2.492 . S
O101 C82 1.239 . S
O102 Nd80 2.487 1_565 S
O102 C89 1.241 . S
O103 Nd80 2.682 1_565 S
O103 Nd81 2.414 . S
O103 C89 1.273 . S
O104 Nd80 2.410 . S
O104 C90 1.251 . S
O105 Nd81 2.424 1_545 S
O105 C90 1.268 . S
O106 Nd81 2.500 . S
O106 C91 1.258 . S
O107 Nd81 2.492 . S
O107 C91 1.239 . S
O108 Nd81 2.487 1_545 S
O108 C98 1.241 . S
O109 Nd80 2.414 . S
O109 Nd81 2.682 1_545 S
O109 C98 1.273 . S
O110 Nd81 2.410 . S
O110 C99 1.251 . S
O111 Nd80 2.424 1_565 S
O111 C99 1.268 . S
H112 C84 0.930 . S
H113 C85 0.929 . S
H114 C87 0.930 . S
H115 C88 0.929 . S
H116 C93 0.930 . S
H117 C94 0.929 . S
H118 C96 0.930 . S
H119 C97 0.929 . S
Nd120 C122 2.836 . S
Nd120 O140 2.500 . S
Nd120 O141 2.492 . S
Nd120 O142 2.487 . S
Nd120 O143 2.682 . S
Nd120 O144 2.410 . S
Nd120 O149 2.414 . S
Nd120 O151 2.424 . S
Nd121 C131 2.836 . S
Nd121 O143 2.414 . S
Nd121 O145 2.424 . S
Nd121 O146 2.500 . S
Nd121 O147 2.492 . S
Nd121 O148 2.487 . S
Nd121 O149 2.682 . S
Nd121 O150 2.410 . S
C122 Nd120 2.836 . S
C122 C123 1.498 . S
C122 O140 1.258 . S
C122 O141 1.239 . S
C123 C122 1.498 . S
C123 C124 1.366 . S
C123 C128 1.407 . S
C124 C123 1.366 . S
C124 C125 1.392 . S
C124 H152 0.930 . S
C125 C124 1.392 . S
C125 C126 1.398 . S
C125 H153 0.929 . S
C126 C125 1.398 . S
C126 C127 1.352 . S
C127 C126 1.352 . S
C127 C128 1.384 . S
C127 H154 0.930 . S
C128 C123 1.407 . S
C128 C127 1.384 . S
C128 H155 0.929 . S
C129 O142 1.241 . S
C129 O143 1.273 . S
C130 O144 1.251 . S
C130 O145 1.268 . S
C131 Nd121 2.836 . S
C131 C132 1.498 . S
C131 O146 1.258 . S
C131 O147 1.239 . S
C132 C131 1.498 . S
C132 C133 1.366 . S
C132 C137 1.407 . S
C133 C132 1.366 . S
C133 C134 1.392 . S
C133 H156 0.930 . S
C134 C133 1.392 . S
C134 C135 1.398 . S
C134 H157 0.929 . S
C135 C134 1.398 . S
C135 C136 1.352 . S
C136 C135 1.352 . S
C136 C137 1.384 . S
C136 H158 0.930 . S
C137 C132 1.407 . S
C137 C136 1.384 . S
C137 H159 0.929 . S
C138 O148 1.241 . S
C138 O149 1.273 . S
C139 O150 1.251 . S
C139 O151 1.268 . S
O140 Nd120 2.500 . S
O140 C122 1.258 . S
O141 Nd120 2.492 . S
O141 C122 1.239 . S
O142 Nd120 2.487 . S
O142 C129 1.241 . S
O143 Nd120 2.682 . S
O143 Nd121 2.414 . S
O143 C129 1.273 . S
O144 Nd120 2.410 . S
O144 C130 1.251 . S
O145 Nd121 2.424 . S
O145 C130 1.268 . S
O146 Nd121 2.500 . S
O146 C131 1.258 . S
O147 Nd121 2.492 . S
O147 C131 1.239 . S
O148 Nd121 2.487 . S
O148 C138 1.241 . S
O149 Nd120 2.414 . S
O149 Nd121 2.682 . S
O149 C138 1.273 . S
O150 Nd121 2.410 . S
O150 C139 1.251 . S
O151 Nd120 2.424 . S
O151 C139 1.268 . S
H152 C124 0.930 . S
H153 C125 0.929 . S
H154 C127 0.930 . S
H155 C128 0.929 . S
H156 C133 0.930 . S
H157 C134 0.929 . S
H158 C136 0.930 . S
H159 C137 0.929 . S
Nd160 C162 2.836 . S
Nd160 O180 2.485 . S
Nd160 O181 2.492 . S
Nd160 O182 2.487 . S
Nd160 O183 2.682 . S
Nd160 O184 2.410 . S
Nd160 O189 2.414 1_665 S
Nd160 O191 2.424 1_565 S
Nd161 C171 2.836 . S
Nd161 O183 2.414 1_445 S
Nd161 O185 2.424 1_545 S
Nd161 O186 2.481 . S
Nd161 O187 2.492 . S
Nd161 O188 2.487 . S
Nd161 O189 2.682 . S
Nd161 O190 2.410 . S
C162 Nd160 2.836 . S
C162 C163 1.498 . S
C162 O180 1.280 . S
C162 O181 1.239 . S
C163 C162 1.498 . S
C163 C164 1.366 . S
C163 C168 1.407 . S
C164 C163 1.366 . S
C164 C165 1.392 . S
C164 H192 0.930 . S
C165 C164 1.392 . S
C165 C166 1.398 . S
C165 H193 0.929 . S
C166 C165 1.398 . S
C166 C167 1.352 . S
C167 C166 1.352 . S
C167 C168 1.384 . S
C167 H194 0.930 . S
C168 C163 1.407 . S
C168 C167 1.384 . S
C168 H195 0.929 . S
C169 O182 1.241 . S
C169 O183 1.273 . S
C170 O184 1.251 1_455 S
C170 O185 1.268 . S
C171 Nd161 2.836 . S
C171 C172 1.498 . S
C171 O186 1.287 . S
C171 O187 1.239 . S
C172 C171 1.498 . S
C172 C173 1.366 . S
C172 C177 1.407 . S
C173 C172 1.366 . S
C173 C174 1.392 . S
C173 H196 0.930 . S
C174 C173 1.392 . S
C174 C175 1.398 . S
C174 H197 0.929 . S
C175 C174 1.398 . S
C175 C176 1.352 . S
C176 C175 1.352 . S
C176 C177 1.384 . S
C176 H198 0.930 . S
C177 C172 1.407 . S
C177 C176 1.384 . S
C177 H199 0.929 . S
C178 O188 1.241 . S
C178 O189 1.273 . S
C179 O190 1.251 1_655 S
C179 O191 1.268 . S
O180 Nd160 2.485 . S
O180 C162 1.280 . S
O181 Nd160 2.492 . S
O181 C162 1.239 . S
O182 Nd160 2.487 . S
O182 C169 1.241 . S
O183 Nd160 2.682 . S
O183 Nd161 2.414 1_665 S
O183 C169 1.273 . S
O184 Nd160 2.410 . S
O184 C170 1.251 1_655 S
O185 Nd161 2.424 1_565 S
O185 C170 1.268 . S
O186 Nd161 2.481 . S
O186 C171 1.287 . S
O187 Nd161 2.492 . S
O187 C171 1.239 . S
O188 Nd161 2.487 . S
O188 C178 1.241 . S
O189 Nd160 2.414 1_445 S
O189 Nd161 2.682 . S
O189 C178 1.273 . S
O190 Nd161 2.410 . S
O190 C179 1.251 1_455 S
O191 Nd160 2.424 1_545 S
O191 C179 1.268 . S
H192 C164 0.930 . S
H193 C165 0.929 . S
H194 C167 0.930 . S
H195 C168 0.929 . S
H196 C173 0.930 . S
H197 C174 0.929 . S
H198 C176 0.930 . S
H199 C177 0.929 . S
Nd200 C202 2.836 . S
Nd200 O220 2.500 . S
Nd200 O221 2.492 . S
Nd200 O222 2.487 . S
Nd200 O223 2.682 . S
Nd200 O224 2.410 . S
Nd200 O229 2.414 . S
Nd200 O231 2.424 . S
Nd201 C211 2.836 . S
Nd201 O223 2.414 . S
Nd201 O225 2.424 . S
Nd201 O226 2.500 . S
Nd201 O227 2.492 . S
Nd201 O228 2.487 . S
Nd201 O229 2.682 . S
Nd201 O230 2.410 . S
C202 Nd200 2.836 . S
C202 C203 1.498 . S
C202 O220 1.258 . S
C202 O221 1.239 . S
C203 C202 1.498 . S
C203 C204 1.366 . S
C203 C208 1.407 . S
C204 C203 1.366 . S
C204 C205 1.392 . S
C204 H232 0.930 . S
C205 C204 1.392 . S
C205 C206 1.398 . S
C205 H233 0.929 . S
C206 C205 1.398 . S
C206 C207 1.352 . S
C207 C206 1.352 . S
C207 C208 1.384 . S
C207 H234 0.930 . S
C208 C203 1.407 . S
C208 C207 1.384 . S
C208 H235 0.929 . S
C209 O222 1.241 . S
C209 O223 1.273 . S
C210 O224 1.251 . S
C210 O225 1.268 . S
C211 Nd201 2.836 . S
C211 C212 1.498 . S
C211 O226 1.258 . S
C211 O227 1.239 . S
C212 C211 1.498 . S
C212 C213 1.366 . S
C212 C217 1.407 . S
C213 C212 1.366 . S
C213 C214 1.392 . S
C213 H236 0.930 . S
C214 C213 1.392 . S
C214 C215 1.398 . S
C214 H237 0.929 . S
C215 C214 1.398 . S
C215 C216 1.352 . S
C216 C215 1.352 . S
C216 C217 1.384 . S
C216 H238 0.930 . S
C217 C212 1.407 . S
C217 C216 1.384 . S
C217 H239 0.929 . S
C218 O228 1.241 . S
C218 O229 1.273 . S
C219 O230 1.251 . S
C219 O231 1.268 . S
O220 Nd200 2.500 . S
O220 C202 1.258 . S
O221 Nd200 2.492 . S
O221 C202 1.239 . S
O222 Nd200 2.487 . S
O222 C209 1.241 . S
O223 Nd200 2.682 . S
O223 Nd201 2.414 . S
O223 C209 1.273 . S
O224 Nd200 2.410 . S
O224 C210 1.251 . S
O225 Nd201 2.424 . S
O225 C210 1.268 . S
O226 Nd201 2.500 . S
O226 C211 1.258 . S
O227 Nd201 2.492 . S
O227 C211 1.239 . S
O228 Nd201 2.487 . S
O228 C218 1.241 . S
O229 Nd200 2.414 . S
O229 Nd201 2.682 . S
O229 C218 1.273 . S
O230 Nd201 2.410 . S
O230 C219 1.251 . S
O231 Nd200 2.424 . S
O231 C219 1.268 . S
H232 C204 0.930 . S
H233 C205 0.929 . S
H234 C207 0.930 . S
H235 C208 0.929 . S
H236 C213 0.930 . S
H237 C214 0.929 . S
H238 C216 0.930 . S
H239 C217 0.929 . S
Nd240 C242 2.836 . S
Nd240 O260 2.500 . S
Nd240 O261 2.492 . S
Nd240 O262 2.487 1_556 S
Nd240 O263 2.682 1_556 S
Nd240 O264 2.390 1_545 S
Nd240 O269 2.414 1_545 S
Nd240 O271 2.424 1_556 S
Nd241 C251 2.836 . S
Nd241 O263 2.414 1_565 S
Nd241 O265 2.424 1_554 S
Nd241 O266 2.500 . S
Nd241 O267 2.492 . S
Nd241 O268 2.487 1_554 S
Nd241 O269 2.682 1_554 S
Nd241 O270 2.382 1_565 S
C242 Nd240 2.836 . S
C242 C243 1.498 . S
C242 O260 1.258 . S
C242 O261 1.239 . S
C243 C242 1.498 . S
C243 C244 1.366 . S
C243 C248 1.407 . S
C244 C243 1.366 . S
C244 C245 1.392 . S
C244 H272 0.965 . S
C245 C244 1.392 . S
C245 C246 1.398 . S
C245 H273 0.929 . S
C246 C245 1.398 . S
C246 C247 1.352 . S
C247 C246 1.352 . S
C247 C248 1.384 . S
C247 H274 0.930 . S
C248 C243 1.407 . S
C248 C247 1.384 . S
C248 H275 0.929 . S
C249 O262 1.241 . S
C249 O263 1.273 . S
C250 O264 1.279 . S
C250 O265 1.268 . S
C251 Nd241 2.836 . S
C251 C252 1.498 . S
C251 O266 1.258 . S
C251 O267 1.239 . S
C252 C251 1.498 . S
C252 C253 1.366 . S
C252 C257 1.407 . S
C253 C252 1.366 . S
C253 C254 1.392 . S
C253 H276 0.956 . S
C254 C253 1.392 . S
C254 C255 1.398 . S
C254 H277 0.929 . S
C255 C254 1.398 . S
C255 C256 1.352 . S
C256 C255 1.352 . S
C256 C257 1.384 . S
C256 H278 0.930 . S
C257 C252 1.407 . S
C257 C256 1.384 . S
C257 H279 0.929 . S
C258 O268 1.241 . S
C258 O269 1.273 . S
C259 O270 1.289 . S
C259 O271 1.268 . S
O260 Nd240 2.500 . S
O260 C242 1.258 . S
O261 Nd240 2.492 . S
O261 C242 1.239 . S
O262 Nd240 2.487 1_554 S
O262 C249 1.241 . S
O263 Nd240 2.682 1_554 S
O263 Nd241 2.414 1_545 S
O263 C249 1.273 . S
O264 Nd240 2.390 1_565 S
O264 C250 1.279 . S
O265 Nd241 2.424 1_556 S
O265 C250 1.268 . S
O266 Nd241 2.500 . S
O266 C251 1.258 . S
O267 Nd241 2.492 . S
O267 C251 1.239 . S
O268 Nd241 2.487 1_556 S
O268 C258 1.241 . S
O269 Nd240 2.414 1_565 S
O269 Nd241 2.682 1_556 S
O269 C258 1.273 . S
O270 Nd241 2.382 1_545 S
O270 C259 1.289 . S
O271 Nd240 2.424 1_554 S
O271 C259 1.268 . S
H272 C244 0.965 . S
H273 C245 0.929 . S
H274 C247 0.930 . S
H275 C248 0.929 . S
H276 C253 0.956 . S
H277 C254 0.929 . S
H278 C256 0.930 . S
H279 C257 0.929 . S
Nd280 C282 2.836 . S
Nd280 O300 2.500 . S
Nd280 O301 2.492 . S
Nd280 O302 2.487 . S
Nd280 O303 2.682 . S
Nd280 O304 2.410 . S
Nd280 O309 2.414 . S
Nd280 O311 2.424 . S
Nd281 C291 2.836 . S
Nd281 O303 2.414 . S
Nd281 O305 2.424 . S
Nd281 O306 2.500 . S
Nd281 O307 2.492 . S
Nd281 O308 2.487 . S
Nd281 O309 2.682 . S
Nd281 O310 2.410 . S
C282 Nd280 2.836 . S
C282 C283 1.498 . S
C282 O300 1.258 . S
C282 O301 1.239 . S
C283 C282 1.498 . S
C283 C284 1.366 . S
C283 C288 1.407 . S
C284 C283 1.366 . S
C284 C285 1.392 . S
C284 H312 0.930 . S
C285 C284 1.392 . S
C285 C286 1.398 . S
C285 H313 0.929 . S
C286 C285 1.398 . S
C286 C287 1.352 . S
C287 C286 1.352 . S
C287 C288 1.384 . S
C287 H314 0.930 . S
C288 C283 1.407 . S
C288 C287 1.384 . S
C288 H315 0.929 . S
C289 O302 1.241 . S
C289 O303 1.273 . S
C290 O304 1.251 . S
C290 O305 1.268 . S
C291 Nd281 2.836 . S
C291 C292 1.498 . S
C291 O306 1.258 . S
C291 O307 1.239 . S
C292 C291 1.498 . S
C292 C293 1.366 . S
C292 C297 1.407 . S
C293 C292 1.366 . S
C293 C294 1.392 . S
C293 H316 0.930 . S
C294 C293 1.392 . S
C294 C295 1.398 . S
C294 H317 0.929 . S
C295 C294 1.398 . S
C295 C296 1.352 . S
C296 C295 1.352 . S
C296 C297 1.384 . S
C296 H318 0.930 . S
C297 C292 1.407 . S
C297 C296 1.384 . S
C297 H319 0.929 . S
C298 O308 1.241 . S
C298 O309 1.273 . S
C299 O310 1.251 . S
C299 O311 1.268 . S
O300 Nd280 2.500 . S
O300 C282 1.258 . S
O301 Nd280 2.492 . S
O301 C282 1.239 . S
O302 Nd280 2.487 . S
O302 C289 1.241 . S
O303 Nd280 2.682 . S
O303 Nd281 2.414 . S
O303 C289 1.273 . S
O304 Nd280 2.410 . S
O304 C290 1.251 . S
O305 Nd281 2.424 . S
O305 C290 1.268 . S
O306 Nd281 2.500 . S
O306 C291 1.258 . S
O307 Nd281 2.492 . S
O307 C291 1.239 . S
O308 Nd281 2.487 . S
O308 C298 1.241 . S
O309 Nd280 2.414 . S
O309 Nd281 2.682 . S
O309 C298 1.273 . S
O310 Nd281 2.410 . S
O310 C299 1.251 . S
O311 Nd280 2.424 . S
O311 C299 1.268 . S
H312 C284 0.930 . S
H313 C285 0.929 . S
H314 C287 0.930 . S
H315 C288 0.929 . S
H316 C293 0.930 . S
H317 C294 0.929 . S
H318 C296 0.930 . S
H319 C297 0.929 . S
Nd320 C322 2.836 . S
Nd320 O340 2.500 . S
Nd320 O341 2.492 . S
Nd320 O342 2.487 1_554 S
Nd320 O343 2.682 1_554 S
Nd320 O344 2.410 . S
Nd320 O349 2.414 . S
Nd320 O351 2.424 1_554 S
Nd321 C331 2.836 . S
Nd321 O343 2.414 . S
Nd321 O345 2.424 1_556 S
Nd321 O346 2.500 . S
Nd321 O347 2.492 . S
Nd321 O348 2.487 1_556 S
Nd321 O349 2.682 1_556 S
Nd321 O350 2.410 . S
C322 Nd320 2.836 . S
C322 C323 1.498 . S
C322 O340 1.258 . S
C322 O341 1.239 . S
C323 C322 1.498 . S
C323 C324 1.366 . S
C323 C328 1.407 . S
C324 C323 1.366 . S
C324 C325 1.392 . S
C324 H352 0.930 . S
C325 C324 1.392 . S
C325 C326 1.398 . S
C325 H353 0.929 . S
C326 C325 1.398 . S
C326 C327 1.352 . S
C327 C326 1.352 . S
C327 C328 1.384 . S
C327 H354 0.930 . S
C328 C323 1.407 . S
C328 C327 1.384 . S
C328 H355 0.929 . S
C329 O342 1.241 . S
C329 O343 1.273 . S
C330 O344 1.251 . S
C330 O345 1.268 . S
C331 Nd321 2.836 . S
C331 C332 1.498 . S
C331 O346 1.258 . S
C331 O347 1.239 . S
C332 C331 1.498 . S
C332 C333 1.366 . S
C332 C337 1.407 . S
C333 C332 1.366 . S
C333 C334 1.392 . S
C333 H356 0.930 . S
C334 C333 1.392 . S
C334 C335 1.398 . S
C334 H357 0.929 . S
C335 C334 1.398 . S
C335 C336 1.352 . S
C336 C335 1.352 . S
C336 C337 1.384 . S
C336 H358 0.930 . S
C337 C332 1.407 . S
C337 C336 1.384 . S
C337 H359 0.929 . S
C338 O348 1.241 . S
C338 O349 1.273 . S
C339 O350 1.251 . S
C339 O351 1.268 . S
O340 Nd320 2.500 . S
O340 C322 1.258 . S
O341 Nd320 2.492 . S
O341 C322 1.239 . S
O342 Nd320 2.487 1_556 S
O342 C329 1.241 . S
O343 Nd320 2.682 1_556 S
O343 Nd321 2.414 . S
O343 C329 1.273 . S
O344 Nd320 2.410 . S
O344 C330 1.251 . S
O345 Nd321 2.424 1_554 S
O345 C330 1.268 . S
O346 Nd321 2.500 . S
O346 C331 1.258 . S
O347 Nd321 2.492 . S
O347 C331 1.239 . S
O348 Nd321 2.487 1_554 S
O348 C338 1.241 . S
O349 Nd320 2.414 . S
O349 Nd321 2.682 1_554 S
O349 C338 1.273 . S
O350 Nd321 2.410 . S
O350 C339 1.251 . S
O351 Nd320 2.424 1_556 S
O351 C339 1.268 . S
H352 C324 0.930 . S
H353 C325 0.929 . S
H354 C327 0.930 . S
H355 C328 0.929 . S
H356 C333 0.930 . S
H357 C334 0.929 . S
H358 C336 0.930 . S
H359 C337 0.929 . S
Nd360 C362 2.836 . S
Nd360 O380 2.500 . S
Nd360 O381 2.492 . S
Nd360 O382 2.487 . S
Nd360 O383 2.682 . S
Nd360 O384 2.410 . S
Nd360 O389 2.414 . S
Nd360 O391 2.424 . S
Nd361 C371 2.836 . S
Nd361 O383 2.414 . S
Nd361 O385 2.424 . S
Nd361 O386 2.500 . S
Nd361 O387 2.492 . S
Nd361 O388 2.487 . S
Nd361 O389 2.682 . S
Nd361 O390 2.410 . S
C362 Nd360 2.836 . S
C362 C363 1.498 . S
C362 O380 1.258 . S
C362 O381 1.239 . S
C363 C362 1.498 . S
C363 C364 1.366 . S
C363 C368 1.407 . S
C364 C363 1.366 . S
C364 C365 1.392 . S
C364 H392 0.930 . S
C365 C364 1.392 . S
C365 C366 1.398 . S
C365 H393 0.929 . S
C366 C365 1.398 . S
C366 C367 1.352 . S
C367 C366 1.352 . S
C367 C368 1.384 . S
C367 H394 0.930 . S
C368 C363 1.407 . S
C368 C367 1.384 . S
C368 H395 0.929 . S
C369 O382 1.241 . S
C369 O383 1.273 . S
C370 O384 1.251 . S
C370 O385 1.268 . S
C371 Nd361 2.836 . S
C371 C372 1.498 . S
C371 O386 1.258 . S
C371 O387 1.239 . S
C372 C371 1.498 . S
C372 C373 1.366 . S
C372 C377 1.407 . S
C373 C372 1.366 . S
C373 C374 1.392 . S
C373 H396 0.930 . S
C374 C373 1.392 . S
C374 C375 1.398 . S
C374 H397 0.929 . S
C375 C374 1.398 . S
C375 C376 1.352 . S
C376 C375 1.352 . S
C376 C377 1.384 . S
C376 H398 0.930 . S
C377 C372 1.407 . S
C377 C376 1.384 . S
C377 H399 0.929 . S
C378 O388 1.241 . S
C378 O389 1.273 . S
C379 O390 1.251 . S
C379 O391 1.268 . S
O380 Nd360 2.500 . S
O380 C362 1.258 . S
O381 Nd360 2.492 . S
O381 C362 1.239 . S
O382 Nd360 2.487 . S
O382 C369 1.241 . S
O383 Nd360 2.682 . S
O383 Nd361 2.414 . S
O383 C369 1.273 . S
O384 Nd360 2.410 . S
O384 C370 1.251 . S
O385 Nd361 2.424 . S
O385 C370 1.268 . S
O386 Nd361 2.500 . S
O386 C371 1.258 . S
O387 Nd361 2.492 . S
O387 C371 1.239 . S
O388 Nd361 2.487 . S
O388 C378 1.241 . S
O389 Nd360 2.414 . S
O389 Nd361 2.682 . S
O389 C378 1.273 . S
O390 Nd361 2.410 . S
O390 C379 1.251 . S
O391 Nd360 2.424 . S
O391 C379 1.268 . S
H392 C364 0.930 . S
H393 C365 0.929 . S
H394 C367 0.930 . S
H395 C368 0.929 . S
H396 C373 0.930 . S
H397 C374 0.929 . S
H398 C376 0.930 . S
H399 C377 0.929 . S
Nd400 C402 2.836 . S
Nd400 O420 2.500 . S
Nd400 O421 2.492 . S
Nd400 O422 2.487 . S
Nd400 O423 2.682 . S
Nd400 O424 2.410 . S
Nd400 O429 2.414 1_455 S
Nd400 O431 2.424 1_455 S
Nd401 C411 2.836 . S
Nd401 O423 2.414 1_655 S
Nd401 O425 2.424 1_655 S
Nd401 O426 2.500 . S
Nd401 O427 2.492 . S
Nd401 O428 2.487 . S
Nd401 O429 2.682 . S
Nd401 O430 2.410 . S
C402 Nd400 2.836 . S
C402 C403 1.498 . S
C402 O420 1.258 . S
C402 O421 1.239 . S
C403 C402 1.498 . S
C403 C404 1.366 . S
C403 C408 1.407 . S
C404 C403 1.366 . S
C404 C405 1.392 . S
C404 H432 0.930 . S
C405 C404 1.392 . S
C405 C406 1.398 . S
C405 H433 0.929 . S
C406 C405 1.398 . S
C406 C407 1.352 . S
C407 C406 1.352 . S
C407 C408 1.384 . S
C407 H434 0.930 . S
C408 C403 1.407 . S
C408 C407 1.384 . S
C408 H435 0.929 . S
C409 O422 1.241 . S
C409 O423 1.273 . S
C410 O424 1.251 . S
C410 O425 1.268 . S
C411 Nd401 2.836 . S
C411 C412 1.498 . S
C411 O426 1.258 . S
C411 O427 1.239 . S
C412 C411 1.498 . S
C412 C413 1.366 . S
C412 C417 1.407 . S
C413 C412 1.366 . S
C413 C414 1.392 . S
C413 H436 0.930 . S
C414 C413 1.392 . S
C414 C415 1.398 . S
C414 H437 0.929 . S
C415 C414 1.398 . S
C415 C416 1.352 . S
C416 C415 1.352 . S
C416 C417 1.384 . S
C416 H438 0.930 . S
C417 C412 1.407 . S
C417 C416 1.384 . S
C417 H439 0.929 . S
C418 O428 1.241 . S
C418 O429 1.273 . S
C419 O430 1.251 . S
C419 O431 1.268 . S
O420 Nd400 2.500 . S
O420 C402 1.258 . S
O421 Nd400 2.492 . S
O421 C402 1.239 . S
O422 Nd400 2.487 . S
O422 C409 1.241 . S
O423 Nd400 2.682 . S
O423 Nd401 2.414 1_455 S
O423 C409 1.273 . S
O424 Nd400 2.410 . S
O424 C410 1.251 . S
O425 Nd401 2.424 1_455 S
O425 C410 1.268 . S
O426 Nd401 2.500 . S
O426 C411 1.258 . S
O427 Nd401 2.492 . S
O427 C411 1.239 . S
O428 Nd401 2.487 . S
O428 C418 1.241 . S
O429 Nd400 2.414 1_655 S
O429 Nd401 2.682 . S
O429 C418 1.273 . S
O430 Nd401 2.410 . S
O430 C419 1.251 . S
O431 Nd400 2.424 1_655 S
O431 C419 1.268 . S
H432 C404 0.930 . S
H433 C405 0.929 . S
H434 C407 0.930 . S
H435 C408 0.929 . S
H436 C413 0.930 . S
H437 C414 0.929 . S
H438 C416 0.930 . S
H439 C417 0.929 . S
Nd440 C442 2.836 . S
Nd440 O460 2.500 . S
Nd440 O461 2.492 . S
Nd440 O462 2.487 . S
Nd440 O463 2.682 . S
Nd440 O464 2.410 . S
Nd440 O469 2.414 . S
Nd440 O471 2.424 . S
Nd441 C451 2.836 . S
Nd441 O463 2.414 . S
Nd441 O465 2.424 . S
Nd441 O466 2.500 . S
Nd441 O467 2.492 . S
Nd441 O468 2.487 . S
Nd441 O469 2.682 . S
Nd441 O470 2.410 . S
C442 Nd440 2.836 . S
C442 C443 1.498 . S
C442 O460 1.258 . S
C442 O461 1.239 . S
C443 C442 1.498 . S
C443 C444 1.366 . S
C443 C448 1.407 . S
C444 C443 1.366 . S
C444 C445 1.392 . S
C444 H472 0.930 . S
C445 C444 1.392 . S
C445 C446 1.398 . S
C445 H473 0.929 . S
C446 C445 1.398 . S
C446 C447 1.352 . S
C447 C446 1.352 . S
C447 C448 1.384 . S
C447 H474 0.930 . S
C448 C443 1.407 . S
C448 C447 1.384 . S
C448 H475 0.929 . S
C449 O462 1.241 . S
C449 O463 1.273 . S
C450 O464 1.251 . S
C450 O465 1.268 . S
C451 Nd441 2.836 . S
C451 C452 1.498 . S
C451 O466 1.258 . S
C451 O467 1.239 . S
C452 C451 1.498 . S
C452 C453 1.366 . S
C452 C457 1.407 . S
C453 C452 1.366 . S
C453 C454 1.392 . S
C453 H476 0.930 . S
C454 C453 1.392 . S
C454 C455 1.398 . S
C454 H477 0.929 . S
C455 C454 1.398 . S
C455 C456 1.352 . S
C456 C455 1.352 . S
C456 C457 1.384 . S
C456 H478 0.930 . S
C457 C452 1.407 . S
C457 C456 1.384 . S
C457 H479 0.929 . S
C458 O468 1.241 . S
C458 O469 1.273 . S
C459 O470 1.251 . S
C459 O471 1.268 . S
O460 Nd440 2.500 . S
O460 C442 1.258 . S
O461 Nd440 2.492 . S
O461 C442 1.239 . S
O462 Nd440 2.487 . S
O462 C449 1.241 . S
O463 Nd440 2.682 . S
O463 Nd441 2.414 . S
O463 C449 1.273 . S
O464 Nd440 2.410 . S
O464 C450 1.251 . S
O465 Nd441 2.424 . S
O465 C450 1.268 . S
O466 Nd441 2.500 . S
O466 C451 1.258 . S
O467 Nd441 2.492 . S
O467 C451 1.239 . S
O468 Nd441 2.487 . S
O468 C458 1.241 . S
O469 Nd440 2.414 . S
O469 Nd441 2.682 . S
O469 C458 1.273 . S
O470 Nd441 2.410 . S
O470 C459 1.251 . S
O471 Nd440 2.424 . S
O471 C459 1.268 . S
H472 C444 0.930 . S
H473 C445 0.929 . S
H474 C447 0.930 . S
H475 C448 0.929 . S
H476 C453 0.930 . S
H477 C454 0.929 . S
H478 C456 0.930 . S
H479 C457 0.929 . S
Nd480 C482 2.836 . S
Nd480 O500 2.500 . S
Nd480 O501 2.492 . S
Nd480 O502 2.487 . S
Nd480 O503 2.682 . S
Nd480 O504 2.410 . S
Nd480 O509 2.414 . S
Nd480 O511 2.424 . S
Nd481 C491 2.836 . S
Nd481 O503 2.414 . S
Nd481 O505 2.424 . S
Nd481 O506 2.500 . S
Nd481 O507 2.492 . S
Nd481 O508 2.487 . S
Nd481 O509 2.682 . S
Nd481 O510 2.410 . S
C482 Nd480 2.836 . S
C482 C483 1.498 . S
C482 O500 1.258 . S
C482 O501 1.239 . S
C483 C482 1.498 . S
C483 C484 1.366 . S
C483 C488 1.407 . S
C484 C483 1.366 . S
C484 C485 1.392 . S
C484 H512 0.930 . S
C485 C484 1.392 . S
C485 C486 1.398 . S
C485 H513 0.929 . S
C486 C485 1.398 . S
C486 C487 1.352 . S
C487 C486 1.352 . S
C487 C488 1.384 . S
C487 H514 0.930 . S
C488 C483 1.407 . S
C488 C487 1.384 . S
C488 H515 0.929 . S
C489 O502 1.241 . S
C489 O503 1.273 . S
C490 O504 1.251 . S
C490 O505 1.268 . S
C491 Nd481 2.836 . S
C491 C492 1.498 . S
C491 O506 1.258 . S
C491 O507 1.239 . S
C492 C491 1.498 . S
C492 C493 1.366 . S
C492 C497 1.407 . S
C493 C492 1.366 . S
C493 C494 1.392 . S
C493 H516 0.930 . S
C494 C493 1.392 . S
C494 C495 1.398 . S
C494 H517 0.929 . S
C495 C494 1.398 . S
C495 C496 1.352 . S
C496 C495 1.352 . S
C496 C497 1.384 . S
C496 H518 0.930 . S
C497 C492 1.407 . S
C497 C496 1.384 . S
C497 H519 0.929 . S
C498 O508 1.241 . S
C498 O509 1.273 . S
C499 O510 1.251 . S
C499 O511 1.268 . S
O500 Nd480 2.500 . S
O500 C482 1.258 . S
O501 Nd480 2.492 . S
O501 C482 1.239 . S
O502 Nd480 2.487 . S
O502 C489 1.241 . S
O503 Nd480 2.682 . S
O503 Nd481 2.414 . S
O503 C489 1.273 . S
O504 Nd480 2.410 . S
O504 C490 1.251 . S
O505 Nd481 2.424 . S
O505 C490 1.268 . S
O506 Nd481 2.500 . S
O506 C491 1.258 . S
O507 Nd481 2.492 . S
O507 C491 1.239 . S
O508 Nd481 2.487 . S
O508 C498 1.241 . S
O509 Nd480 2.414 . S
O509 Nd481 2.682 . S
O509 C498 1.273 . S
O510 Nd481 2.410 . S
O510 C499 1.251 . S
O511 Nd480 2.424 . S
O511 C499 1.268 . S
H512 C484 0.930 . S
H513 C485 0.929 . S
H514 C487 0.930 . S
H515 C488 0.929 . S
H516 C493 0.930 . S
H517 C494 0.929 . S
H518 C496 0.930 . S
H519 C497 0.929 . S
Nd520 C522 2.836 . S
Nd520 O540 2.500 . S
Nd520 O541 2.492 . S
Nd520 O542 2.487 . S
Nd520 O543 2.682 . S
Nd520 O544 2.410 . S
Nd520 O549 2.414 . S
Nd520 O551 2.424 . S
Nd521 C531 2.836 . S
Nd521 O543 2.414 . S
Nd521 O545 2.424 . S
Nd521 O546 2.500 . S
Nd521 O547 2.492 . S
Nd521 O548 2.487 . S
Nd521 O549 2.682 . S
Nd521 O550 2.410 . S
C522 Nd520 2.836 . S
C522 C523 1.498 . S
C522 O540 1.258 . S
C522 O541 1.239 . S
C523 C522 1.498 . S
C523 C524 1.366 . S
C523 C528 1.407 . S
C524 C523 1.366 . S
C524 C525 1.392 . S
C524 H552 0.930 . S
C525 C524 1.392 . S
C525 C526 1.398 . S
C525 H553 0.929 . S
C526 C525 1.398 . S
C526 C527 1.352 . S
C527 C526 1.352 . S
C527 C528 1.384 . S
C527 H554 0.930 . S
C528 C523 1.407 . S
C528 C527 1.384 . S
C528 H555 0.929 . S
C529 O542 1.241 . S
C529 O543 1.273 . S
C530 O544 1.251 . S
C530 O545 1.268 . S
C531 Nd521 2.836 . S
C531 C532 1.498 . S
C531 O546 1.258 . S
C531 O547 1.239 . S
C532 C531 1.498 . S
C532 C533 1.366 . S
C532 C537 1.407 . S
C533 C532 1.366 . S
C533 C534 1.392 . S
C533 H556 0.930 . S
C534 C533 1.392 . S
C534 C535 1.398 . S
C534 H557 0.929 . S
C535 C534 1.398 . S
C535 C536 1.352 . S
C536 C535 1.352 . S
C536 C537 1.384 . S
C536 H558 0.930 . S
C537 C532 1.407 . S
C537 C536 1.384 . S
C537 H559 0.929 . S
C538 O548 1.241 . S
C538 O549 1.273 . S
C539 O550 1.251 . S
C539 O551 1.268 . S
O540 Nd520 2.500 . S
O540 C522 1.258 . S
O541 Nd520 2.492 . S
O541 C522 1.239 . S
O542 Nd520 2.487 . S
O542 C529 1.241 . S
O543 Nd520 2.682 . S
O543 Nd521 2.414 . S
O543 C529 1.273 . S
O544 Nd520 2.410 . S
O544 C530 1.251 . S
O545 Nd521 2.424 . S
O545 C530 1.268 . S
O546 Nd521 2.500 . S
O546 C531 1.258 . S
O547 Nd521 2.492 . S
O547 C531 1.239 . S
O548 Nd521 2.487 . S
O548 C538 1.241 . S
O549 Nd520 2.414 . S
O549 Nd521 2.682 . S
O549 C538 1.273 . S
O550 Nd521 2.410 . S
O550 C539 1.251 . S
O551 Nd520 2.424 . S
O551 C539 1.268 . S
H552 C524 0.930 . S
H553 C525 0.929 . S
H554 C527 0.930 . S
H555 C528 0.929 . S
H556 C533 0.930 . S
H557 C534 0.929 . S
H558 C536 0.930 . S
H559 C537 0.929 . S
Nd560 C562 2.836 . S
Nd560 O580 2.500 . S
Nd560 O581 2.492 . S
Nd560 O582 2.487 . S
Nd560 O583 2.682 . S
Nd560 O584 2.410 . S
Nd560 O589 2.414 . S
Nd560 O591 2.424 . S
Nd561 C571 2.836 . S
Nd561 O583 2.414 . S
Nd561 O585 2.424 . S
Nd561 O586 2.500 . S
Nd561 O587 2.492 . S
Nd561 O588 2.487 . S
Nd561 O589 2.682 . S
Nd561 O590 2.410 . S
C562 Nd560 2.836 . S
C562 C563 1.498 . S
C562 O580 1.258 . S
C562 O581 1.239 . S
C563 C562 1.498 . S
C563 C564 1.366 . S
C563 C568 1.407 . S
C564 C563 1.366 . S
C564 C565 1.392 . S
C564 H592 0.930 . S
C565 C564 1.392 . S
C565 C566 1.398 . S
C565 H593 0.929 . S
C566 C565 1.398 . S
C566 C567 1.352 . S
C567 C566 1.352 . S
C567 C568 1.384 . S
C567 H594 0.930 . S
C568 C563 1.407 . S
C568 C567 1.384 . S
C568 H595 0.929 . S
C569 O582 1.241 . S
C569 O583 1.273 . S
C570 O584 1.251 . S
C570 O585 1.268 . S
C571 Nd561 2.836 . S
C571 C572 1.498 . S
C571 O586 1.258 . S
C571 O587 1.239 . S
C572 C571 1.498 . S
C572 C573 1.366 . S
C572 C577 1.407 . S
C573 C572 1.366 . S
C573 C574 1.392 . S
C573 H596 0.930 . S
C574 C573 1.392 . S
C574 C575 1.398 . S
C574 H597 0.929 . S
C575 C574 1.398 . S
C575 C576 1.352 . S
C576 C575 1.352 . S
C576 C577 1.384 . S
C576 H598 0.930 . S
C577 C572 1.407 . S
C577 C576 1.384 . S
C577 H599 0.929 . S
C578 O588 1.241 . S
C578 O589 1.273 . S
C579 O590 1.251 . S
C579 O591 1.268 . S
O580 Nd560 2.500 . S
O580 C562 1.258 . S
O581 Nd560 2.492 . S
O581 C562 1.239 . S
O582 Nd560 2.487 . S
O582 C569 1.241 . S
O583 Nd560 2.682 . S
O583 Nd561 2.414 . S
O583 C569 1.273 . S
O584 Nd560 2.410 . S
O584 C570 1.251 . S
O585 Nd561 2.424 . S
O585 C570 1.268 . S
O586 Nd561 2.500 . S
O586 C571 1.258 . S
O587 Nd561 2.492 . S
O587 C571 1.239 . S
O588 Nd561 2.487 . S
O588 C578 1.241 . S
O589 Nd560 2.414 . S
O589 Nd561 2.682 . S
O589 C578 1.273 . S
O590 Nd561 2.410 . S
O590 C579 1.251 . S
O591 Nd560 2.424 . S
O591 C579 1.268 . S
H592 C564 0.930 . S
H593 C565 0.929 . S
H594 C567 0.930 . S
H595 C568 0.929 . S
H596 C573 0.930 . S
H597 C574 0.929 . S
H598 C576 0.930 . S
H599 C577 0.929 . S
Nd600 C602 2.836 . S
Nd600 O620 2.500 . S
Nd600 O621 2.492 . S
Nd600 O622 2.487 . S
Nd600 O623 2.682 . S
Nd600 O624 2.410 1_556 S
Nd600 O629 2.414 1_656 S
Nd600 O631 2.424 1_655 S
Nd601 C611 2.836 . S
Nd601 O623 2.414 1_454 S
Nd601 O625 2.424 1_455 S
Nd601 O626 2.500 . S
Nd601 O627 2.492 . S
Nd601 O628 2.487 . S
Nd601 O629 2.682 . S
Nd601 O630 2.381 1_554 S
C602 Nd600 2.836 . S
C602 C603 1.498 . S
C602 O620 1.258 . S
C602 O621 1.239 . S
C603 C602 1.498 . S
C603 C604 1.366 . S
C603 C608 1.407 . S
C604 C603 1.366 . S
C604 C605 1.392 . S
C604 H632 0.930 . S
C605 C604 1.392 . S
C605 C606 1.398 . S
C605 H633 0.929 . S
C606 C605 1.398 . S
C606 C607 1.352 . S
C607 C606 1.352 . S
C607 C608 1.384 . S
C607 H634 0.930 . S
C608 C603 1.407 . S
C608 C607 1.384 . S
C608 H635 0.929 . S
C609 O622 1.241 . S
C609 O623 1.273 . S
C610 O624 1.251 . S
C610 O625 1.268 . S
C611 Nd601 2.836 . S
C611 C612 1.498 . S
C611 O626 1.258 . S
C611 O627 1.239 . S
C612 C611 1.498 . S
C612 C613 1.366 . S
C612 C617 1.407 . S
C613 C612 1.366 . S
C613 C614 1.392 . S
C613 H636 0.930 . S
C614 C613 1.392 . S
C614 C615 1.398 . S
C614 H637 0.929 . S
C615 C614 1.398 . S
C615 C616 1.352 . S
C616 C615 1.352 . S
C616 C617 1.384 . S
C616 H638 0.930 . S
C617 C612 1.407 . S
C617 C616 1.384 . S
C617 H639 0.929 . S
C618 O628 1.241 . S
C618 O629 1.273 . S
C619 O630 1.293 . S
C619 O631 1.268 . S
O620 Nd600 2.500 . S
O620 C602 1.258 . S
O621 Nd600 2.492 . S
O621 C602 1.239 . S
O622 Nd600 2.487 . S
O622 C609 1.241 . S
O623 Nd600 2.682 . S
O623 Nd601 2.414 1_656 S
O623 C609 1.273 . S
O624 Nd600 2.410 1_554 S
O624 C610 1.251 . S
O625 Nd601 2.424 1_655 S
O625 C610 1.268 . S
O626 Nd601 2.500 . S
O626 C611 1.258 . S
O627 Nd601 2.492 . S
O627 C611 1.239 . S
O628 Nd601 2.487 . S
O628 C618 1.241 . S
O629 Nd600 2.414 1_454 S
O629 Nd601 2.682 . S
O629 C618 1.273 . S
O630 Nd601 2.381 1_556 S
O630 C619 1.293 . S
O631 Nd600 2.424 1_455 S
O631 C619 1.268 . S
H632 C604 0.930 . S
H633 C605 0.929 . S
H634 C607 0.930 . S
H635 C608 0.929 . S
H636 C613 0.930 . S
H637 C614 0.929 . S
H638 C616 0.930 . S
H639 C617 0.929 . S
C640 C641 1.349 . S
C640 C642 1.327 . S
C640 H665 0.950 . S
C641 C640 1.349 . S
C641 C657 1.349 . S
C642 C640 1.327 . S
C642 C661 1.429 . S
C642 H666 0.950 . S
C643 C660 1.574 . S
C643 C662 1.368 . S
C643 H667 0.949 . S
H644 C648 0.949 . S
C645 C646 1.349 . S
C645 C647 1.327 . S
C645 H668 0.950 1_556 S
C646 C645 1.349 . S
C646 C658 1.349 . S
C647 C645 1.327 . S
C647 C663 1.429 . S
C647 H669 0.963 . S
C648 H644 0.949 . S
C648 C656 1.574 . S
C648 C664 1.368 . S
H649 C657 0.950 . S
H650 C655 0.950 . S
H651 C656 0.949 . S
H652 C658 0.950 . S
H653 C659 0.950 . S
H654 C660 0.949 . S
C655 H650 0.950 . S
C655 C657 1.327 . S
C655 C661 1.429 . S
C656 C648 1.574 . S
C656 H651 0.949 . S
C656 C662 1.368 . S
C657 C641 1.349 . S
C657 H649 0.950 . S
C657 C655 1.327 . S
C658 C646 1.349 . S
C658 H652 0.950 . S
C658 C659 1.327 . S
C659 H653 0.950 . S
C659 C658 1.327 . S
C659 C663 1.429 . S
C660 C643 1.574 . S
C660 H654 0.949 . S
C660 C664 1.368 . S
C661 C642 1.429 . S
C661 C655 1.429 . S
C661 C662 1.523 . S
C662 C643 1.368 . S
C662 C656 1.368 . S
C662 C661 1.523 . S
C663 C647 1.429 . S
C663 C659 1.429 . S
C663 C664 1.523 . S
C664 C648 1.368 . S
C664 C660 1.368 . S
C664 C663 1.523 . S
H665 C640 0.950 . S
H666 C642 0.950 . S
H667 C643 0.949 . S
H668 C645 0.950 1_554 S
H669 C647 0.963 . S
C670 C671 1.349 . S
C670 C672 1.327 . S
C670 H695 0.950 . S
C671 C670 1.349 . S
C671 C687 1.349 . S
C672 C670 1.327 . S
C672 C691 1.429 . S
C672 H696 0.950 . S
C673 C690 1.574 . S
C673 C692 1.368 . S
C673 H697 0.949 . S
H674 C678 0.949 . S
C675 C676 1.349 . S
C675 C677 1.327 . S
C675 H698 0.950 . S
C676 C675 1.349 . S
C676 C688 1.349 . S
C677 C675 1.327 . S
C677 C693 1.429 . S
C677 H699 0.950 . S
C678 H674 0.949 . S
C678 C686 1.574 . S
C678 C694 1.368 . S
H679 C687 0.950 . S
H680 C685 0.950 . S
H681 C686 0.949 . S
H682 C688 0.950 . S
H683 C689 0.950 . S
H684 C690 0.949 . S
C685 H680 0.950 . S
C685 C687 1.327 . S
C685 C691 1.429 . S
C686 C678 1.574 . S
C686 H681 0.949 . S
C686 C692 1.368 . S
C687 C671 1.349 . S
C687 H679 0.950 . S
C687 C685 1.327 . S
C688 C676 1.349 . S
C688 H682 0.950 . S
C688 C689 1.327 . S
C689 H683 0.950 . S
C689 C688 1.327 . S
C689 C693 1.429 . S
C690 C673 1.574 . S
C690 H684 0.949 . S
C690 C694 1.368 . S
C691 C672 1.429 . S
C691 C685 1.429 . S
C691 C692 1.523 . S
C692 C673 1.368 . S
C692 C686 1.368 . S
C692 C691 1.523 . S
C693 C677 1.429 . S
C693 C689 1.429 . S
C693 C694 1.523 . S
C694 C678 1.368 . S
C694 C690 1.368 . S
C694 C693 1.523 . S
H695 C670 0.950 . S
H696 C672 0.950 . S
H697 C673 0.949 . S
H698 C675 0.950 . S
H699 C677 0.950 . S
C700 C701 1.349 . S
C700 C702 1.327 . S
C700 H725 0.950 . S
C701 C700 1.349 . S
C701 C717 1.349 . S
C702 C700 1.327 . S
C702 C721 1.429 . S
C702 H726 0.950 . S
C703 C720 1.574 . S
C703 C722 1.368 . S
C703 H727 0.949 . S
H704 C708 0.949 . S
C705 C706 1.349 . S
C705 C707 1.327 . S
C705 H728 0.950 . S
C706 C705 1.349 . S
C706 C718 1.349 . S
C707 C705 1.327 . S
C707 C723 1.429 . S
C707 H729 0.950 . S
C708 H704 0.949 . S
C708 C716 1.574 . S
C708 C724 1.368 . S
H709 C717 0.950 . S
H710 C715 0.950 . S
H711 C716 0.949 . S
H712 C718 0.950 . S
H713 C719 0.950 . S
H714 C720 0.949 . S
C715 H710 0.950 . S
C715 C717 1.327 . S
C715 C721 1.429 . S
C716 C708 1.574 . S
C716 H711 0.949 . S
C716 C722 1.368 . S
C717 C701 1.349 . S
C717 H709 0.950 . S
C717 C715 1.327 . S
C718 C706 1.349 . S
C718 H712 0.950 . S
C718 C719 1.327 . S
C719 H713 0.950 . S
C719 C718 1.327 . S
C719 C723 1.429 . S
C720 C703 1.574 . S
C720 H714 0.949 . S
C720 C724 1.368 . S
C721 C702 1.429 . S
C721 C715 1.429 . S
C721 C722 1.523 . S
C722 C703 1.368 . S
C722 C716 1.368 . S
C722 C721 1.523 . S
C723 C707 1.429 . S
C723 C719 1.429 . S
C723 C724 1.523 . S
C724 C708 1.368 . S
C724 C720 1.368 . S
C724 C723 1.523 . S
H725 C700 0.950 . S
H726 C702 0.950 . S
H727 C703 0.949 . S
H728 C705 0.950 . S
H729 C707 0.950 . S
C730 C731 1.349 . S
C730 C732 1.327 . S
C730 H755 0.950 . S
C731 C730 1.349 . S
C731 C747 1.349 . S
C732 C730 1.327 . S
C732 C751 1.429 . S
C732 H756 0.950 . S
C733 C750 1.574 . S
C733 C752 1.368 . S
C733 H757 0.949 . S
H734 C738 0.949 . S
C735 C736 1.349 . S
C735 C737 1.327 . S
C735 H758 0.950 . S
C736 C735 1.349 . S
C736 C748 1.349 . S
C737 C735 1.327 . S
C737 C753 1.429 . S
C737 H759 0.950 . S
C738 H734 0.949 . S
C738 C746 1.574 . S
C738 C754 1.368 . S
H739 C747 0.950 . S
H740 C745 0.950 . S
H741 C746 0.949 . S
H742 C748 0.950 . S
H743 C749 0.950 . S
H744 C750 0.949 . S
C745 H740 0.950 . S
C745 C747 1.327 . S
C745 C751 1.429 . S
C746 C738 1.574 . S
C746 H741 0.949 . S
C746 C752 1.368 . S
C747 C731 1.349 . S
C747 H739 0.950 . S
C747 C745 1.327 . S
C748 C736 1.349 . S
C748 H742 0.950 . S
C748 C749 1.327 . S
C749 H743 0.950 . S
C749 C748 1.327 . S
C749 C753 1.429 . S
C750 C733 1.574 . S
C750 H744 0.949 . S
C750 C754 1.368 . S
C751 C732 1.429 . S
C751 C745 1.429 . S
C751 C752 1.523 . S
C752 C733 1.368 . S
C752 C746 1.368 . S
C752 C751 1.523 . S
C753 C737 1.429 . S
C753 C749 1.429 . S
C753 C754 1.523 . S
C754 C738 1.368 . S
C754 C750 1.368 . S
C754 C753 1.523 . S
H755 C730 0.950 . S
H756 C732 0.950 . S
H757 C733 0.949 . S
H758 C735 0.950 . S
H759 C737 0.950 . S
C760 C761 1.349 . S
C760 C762 1.327 . S
C760 H785 0.950 . S
C761 C760 1.349 . S
C761 C777 1.349 . S
C762 C760 1.327 . S
C762 C781 1.429 . S
C762 H786 0.950 . S
C763 C780 1.574 . S
C763 C782 1.368 . S
C763 H787 0.949 . S
H764 C768 0.949 . S
C765 C766 1.349 . S
C765 C767 1.327 . S
C765 H788 0.950 . S
C766 C765 1.349 . S
C766 C778 1.349 . S
C767 C765 1.327 . S
C767 C783 1.429 . S
C767 H789 0.950 . S
C768 H764 0.949 . S
C768 C776 1.574 . S
C768 C784 1.368 . S
H769 C777 0.950 . S
H770 C775 0.950 . S
H771 C776 0.949 . S
H772 C778 0.950 . S
H773 C779 0.950 . S
H774 C780 0.949 . S
C775 H770 0.950 . S
C775 C777 1.327 . S
C775 C781 1.429 . S
C776 C768 1.574 . S
C776 H771 0.949 . S
C776 C782 1.368 . S
C777 C761 1.349 . S
C777 H769 0.950 . S
C777 C775 1.327 . S
C778 C766 1.349 . S
C778 H772 0.950 . S
C778 C779 1.327 . S
C779 H773 0.950 . S
C779 C778 1.327 . S
C779 C783 1.429 . S
C780 C763 1.574 . S
C780 H774 0.949 . S
C780 C784 1.368 . S
C781 C762 1.429 . S
C781 C775 1.429 . S
C781 C782 1.523 . S
C782 C763 1.368 . S
C782 C776 1.368 . S
C782 C781 1.523 . S
C783 C767 1.429 . S
C783 C779 1.429 . S
C783 C784 1.523 . S
C784 C768 1.368 . S
C784 C780 1.368 . S
C784 C783 1.523 . S
H785 C760 0.950 . S
H786 C762 0.950 . S
H787 C763 0.949 . S
H788 C765 0.950 . S
H789 C767 0.950 . S
C790 C791 1.349 . S
C790 C792 1.327 . S
C790 H815 0.950 . S
C791 C790 1.349 . S
C791 C807 1.349 . S
C792 C790 1.327 . S
C792 C811 1.429 . S
C792 H816 0.950 . S
C793 C810 1.574 . S
C793 C812 1.368 . S
C793 H817 0.949 . S
H794 C798 0.949 . S
C795 C796 1.349 . S
C795 C797 1.327 . S
C795 H818 0.950 . S
C796 C795 1.349 . S
C796 C808 1.349 . S
C797 C795 1.327 . S
C797 C813 1.429 . S
C797 H819 0.950 . S
C798 H794 0.949 . S
C798 C806 1.574 . S
C798 C814 1.368 . S
H799 C807 0.950 . S
H800 C805 0.950 . S
H801 C806 0.949 . S
H802 C808 0.950 . S
H803 C809 0.950 . S
H804 C810 0.949 . S
C805 H800 0.950 . S
C805 C807 1.327 . S
C805 C811 1.429 . S
C806 C798 1.574 . S
C806 H801 0.949 . S
C806 C812 1.368 . S
C807 C791 1.349 . S
C807 H799 0.950 . S
C807 C805 1.327 . S
C808 C796 1.349 . S
C808 H802 0.950 . S
C808 C809 1.327 . S
C809 H803 0.950 . S
C809 C808 1.327 . S
C809 C813 1.429 . S
C810 C793 1.574 . S
C810 H804 0.949 . S
C810 C814 1.368 . S
C811 C792 1.429 . S
C811 C805 1.429 . S
C811 C812 1.523 . S
C812 C793 1.368 . S
C812 C806 1.368 . S
C812 C811 1.523 . S
C813 C797 1.429 . S
C813 C809 1.429 . S
C813 C814 1.523 . S
C814 C798 1.368 . S
C814 C810 1.368 . S
C814 C813 1.523 . S
H815 C790 0.950 . S
H816 C792 0.950 . S
H817 C793 0.949 . S
H818 C795 0.950 . S
H819 C797 0.950 . S
C820 C821 1.349 . S
C820 C822 1.327 . S
C820 H845 0.950 . S
C821 C820 1.349 . S
C821 C837 1.349 . S
C822 C820 1.327 . S
C822 C841 1.429 . S
C822 H846 0.950 . S
C823 C840 1.574 . S
C823 C842 1.368 . S
C823 H847 0.949 . S
H824 C828 0.949 . S
C825 C826 1.349 . S
C825 C827 1.327 . S
C825 H848 0.950 . S
C826 C825 1.349 . S
C826 C838 1.349 . S
C827 C825 1.327 . S
C827 C843 1.429 . S
C827 H849 0.950 . S
C828 H824 0.949 . S
C828 C836 1.574 . S
C828 C844 1.368 . S
H829 C837 0.950 . S
H830 C835 0.950 . S
H831 C836 0.949 . S
H832 C838 0.950 . S
H833 C839 0.950 . S
H834 C840 0.949 . S
C835 H830 0.950 . S
C835 C837 1.327 . S
C835 C841 1.429 . S
C836 C828 1.574 . S
C836 H831 0.949 . S
C836 C842 1.368 . S
C837 C821 1.349 . S
C837 H829 0.950 . S
C837 C835 1.327 . S
C838 C826 1.349 . S
C838 H832 0.950 . S
C838 C839 1.327 . S
C839 H833 0.950 . S
C839 C838 1.327 . S
C839 C843 1.429 . S
C840 C823 1.574 . S
C840 H834 0.949 . S
C840 C844 1.368 . S
C841 C822 1.429 . S
C841 C835 1.429 . S
C841 C842 1.523 . S
C842 C823 1.368 . S
C842 C836 1.368 . S
C842 C841 1.523 . S
C843 C827 1.429 . S
C843 C839 1.429 . S
C843 C844 1.523 . S
C844 C828 1.368 . S
C844 C840 1.368 . S
C844 C843 1.523 . S
H845 C820 0.950 . S
H846 C822 0.950 . S
H847 C823 0.949 . S
H848 C825 0.950 . S
H849 C827 0.950 . S
C850 C851 1.349 . S
C850 C852 1.327 . S
C850 H875 0.950 . S
C851 C850 1.349 . S
C851 C867 1.349 . S
C852 C850 1.327 . S
C852 C871 1.429 . S
C852 H876 0.950 . S
C853 C870 1.574 . S
C853 C872 1.368 . S
C853 H877 0.949 . S
H854 C858 0.949 . S
C855 C856 1.349 . S
C855 C857 1.327 . S
C855 H878 0.950 . S
C856 C855 1.349 . S
C856 C868 1.349 . S
C857 C855 1.327 . S
C857 C873 1.429 . S
C857 H879 0.950 . S
C858 H854 0.949 . S
C858 C866 1.574 . S
C858 C874 1.368 . S
H859 C867 0.950 . S
H860 C865 0.950 . S
H861 C866 0.949 . S
H862 C868 0.950 . S
H863 C869 0.950 . S
H864 C870 0.949 . S
C865 H860 0.950 . S
C865 C867 1.327 . S
C865 C871 1.429 . S
C866 C858 1.574 . S
C866 H861 0.949 . S
C866 C872 1.368 . S
C867 C851 1.349 . S
C867 H859 0.950 . S
C867 C865 1.327 . S
C868 C856 1.349 . S
C868 H862 0.950 . S
C868 C869 1.327 . S
C869 H863 0.950 . S
C869 C868 1.327 . S
C869 C873 1.429 . S
C870 C853 1.574 . S
C870 H864 0.949 . S
C870 C874 1.368 . S
C871 C852 1.429 . S
C871 C865 1.429 . S
C871 C872 1.523 . S
C872 C853 1.368 . S
C872 C866 1.368 . S
C872 C871 1.523 . S
C873 C857 1.429 . S
C873 C869 1.429 . S
C873 C874 1.523 . S
C874 C858 1.368 . S
C874 C870 1.368 . S
C874 C873 1.523 . S
H875 C850 0.950 . S
H876 C852 0.950 . S
H877 C853 0.949 . S
H878 C855 0.950 . S
H879 C857 0.950 . S
C880 C881 1.349 . S
C880 C882 1.327 . S
C880 H905 0.950 . S
C881 C880 1.349 . S
C881 C897 1.349 . S
C882 C880 1.327 . S
C882 C901 1.429 . S
C882 H906 0.950 . S
C883 C900 1.574 . S
C883 C902 1.368 . S
C883 H907 0.949 . S
H884 C888 0.949 . S
C885 C886 1.349 . S
C885 C887 1.327 . S
C885 H908 0.950 . S
C886 C885 1.349 . S
C886 C898 1.349 . S
C887 C885 1.327 . S
C887 C903 1.429 . S
C887 H909 0.950 . S
C888 H884 0.949 . S
C888 C896 1.574 . S
C888 C904 1.368 . S
H889 C897 0.950 . S
H890 C895 0.950 . S
H891 C896 0.949 . S
H892 C898 0.950 . S
H893 C899 0.950 . S
H894 C900 0.949 . S
C895 H890 0.950 . S
C895 C897 1.327 . S
C895 C901 1.429 . S
C896 C888 1.574 . S
C896 H891 0.949 . S
C896 C902 1.368 . S
C897 C881 1.349 . S
C897 H889 0.950 . S
C897 C895 1.327 . S
C898 C886 1.349 . S
C898 H892 0.950 . S
C898 C899 1.327 . S
C899 H893 0.950 . S
C899 C898 1.327 . S
C899 C903 1.429 . S
C900 C883 1.574 . S
C900 H894 0.949 . S
C900 C904 1.368 . S
C901 C882 1.429 . S
C901 C895 1.429 . S
C901 C902 1.523 . S
C902 C883 1.368 . S
C902 C896 1.368 . S
C902 C901 1.523 . S
C903 C887 1.429 . S
C903 C899 1.429 . S
C903 C904 1.523 . S
C904 C888 1.368 . S
C904 C900 1.368 . S
C904 C903 1.523 . S
H905 C880 0.950 . S
H906 C882 0.950 . S
H907 C883 0.949 . S
H908 C885 0.950 . S
H909 C887 0.950 . S
C910 C911 1.349 . S
C910 C912 1.327 . S
C910 H935 0.950 . S
C911 C910 1.349 . S
C911 C927 1.349 . S
C912 C910 1.327 . S
C912 C931 1.429 . S
C912 H936 0.950 . S
C913 C930 1.574 . S
C913 C932 1.368 . S
C913 H937 0.949 . S
H914 C918 0.949 . S
C915 C916 1.349 . S
C915 C917 1.327 . S
C915 H938 0.950 . S
C916 C915 1.349 . S
C916 C928 1.349 . S
C917 C915 1.327 . S
C917 C933 1.429 . S
C917 H939 0.950 . S
C918 H914 0.949 . S
C918 C926 1.574 . S
C918 C934 1.368 . S
H919 C927 0.950 . S
H920 C925 0.950 . S
H921 C926 0.949 . S
H922 C928 0.950 . S
H923 C929 0.950 . S
H924 C930 0.949 . S
C925 H920 0.950 . S
C925 C927 1.327 . S
C925 C931 1.429 . S
C926 C918 1.574 . S
C926 H921 0.949 . S
C926 C932 1.368 . S
C927 C911 1.349 . S
C927 H919 0.950 . S
C927 C925 1.327 . S
C928 C916 1.349 . S
C928 H922 0.950 . S
C928 C929 1.327 . S
C929 H923 0.950 . S
C929 C928 1.327 . S
C929 C933 1.429 . S
C930 C913 1.574 . S
C930 H924 0.949 . S
C930 C934 1.368 . S
C931 C912 1.429 . S
C931 C925 1.429 . S
C931 C932 1.523 . S
C932 C913 1.368 . S
C932 C926 1.368 . S
C932 C931 1.523 . S
C933 C917 1.429 . S
C933 C929 1.429 . S
C933 C934 1.523 . S
C934 C918 1.368 . S
C934 C930 1.368 . S
C934 C933 1.523 . S
H935 C910 0.950 . S
H936 C912 0.950 . S
H937 C913 0.949 . S
H938 C915 0.950 . S
H939 C917 0.950 . S
C940 C941 1.349 . S
C940 C942 1.327 . S
C940 H965 0.950 . S
C941 C940 1.349 . S
C941 C957 1.349 . S
C942 C940 1.327 . S
C942 C961 1.429 . S
C942 H966 0.950 . S
C943 C960 1.574 . S
C943 C962 1.368 . S
C943 H967 0.949 . S
H944 C948 0.949 . S
C945 C946 1.349 . S
C945 C947 1.327 . S
C945 H968 0.950 . S
C946 C945 1.349 . S
C946 C958 1.349 . S
C947 C945 1.327 . S
C947 C963 1.429 . S
C947 H969 0.950 . S
C948 H944 0.949 . S
C948 C956 1.574 . S
C948 C964 1.368 . S
H949 C957 0.950 . S
H950 C955 0.950 . S
H951 C956 0.949 . S
H952 C958 0.950 . S
H953 C959 0.950 . S
H954 C960 0.949 . S
C955 H950 0.950 . S
C955 C957 1.327 . S
C955 C961 1.429 . S
C956 C948 1.574 . S
C956 H951 0.949 . S
C956 C962 1.368 . S
C957 C941 1.349 . S
C957 H949 0.950 . S
C957 C955 1.327 . S
C958 C946 1.349 . S
C958 H952 0.950 . S
C958 C959 1.327 . S
C959 H953 0.950 . S
C959 C958 1.327 . S
C959 C963 1.429 . S
C960 C943 1.574 . S
C960 H954 0.949 . S
C960 C964 1.368 . S
C961 C942 1.429 . S
C961 C955 1.429 . S
C961 C962 1.523 . S
C962 C943 1.368 . S
C962 C956 1.368 . S
C962 C961 1.523 . S
C963 C947 1.429 . S
C963 C959 1.429 . S
C963 C964 1.523 . S
C964 C948 1.368 . S
C964 C960 1.368 . S
C964 C963 1.523 . S
H965 C940 0.950 . S
H966 C942 0.950 . S
H967 C943 0.949 . S
H968 C945 0.950 . S
H969 C947 0.950 . S
C970 C971 1.349 . S
C970 C972 1.327 . S
C970 H995 0.950 . S
C971 C970 1.349 . S
C971 C987 1.349 . S
C972 C970 1.327 . S
C972 C991 1.429 . S
C972 H996 0.950 . S
C973 C990 1.574 . S
C973 C992 1.368 . S
C973 H997 0.949 . S
H974 C978 0.949 . S
C975 C976 1.349 . S
C975 C977 1.327 . S
C975 H998 0.950 . S
C976 C975 1.349 . S
C976 C988 1.349 . S
C977 C975 1.327 . S
C977 C993 1.429 . S
C977 H999 0.950 . S
C978 H974 0.949 . S
C978 C986 1.574 . S
C978 C994 1.368 . S
H979 C987 0.950 . S
H980 C985 0.950 . S
H981 C986 0.949 . S
H982 C988 0.950 . S
H983 C989 0.950 . S
H984 C990 0.949 . S
C985 H980 0.950 . S
C985 C987 1.327 . S
C985 C991 1.429 . S
C986 C978 1.574 . S
C986 H981 0.949 . S
C986 C992 1.368 . S
C987 C971 1.349 . S
C987 H979 0.950 . S
C987 C985 1.327 . S
C988 C976 1.349 . S
C988 H982 0.950 . S
C988 C989 1.327 . S
C989 H983 0.950 . S
C989 C988 1.327 . S
C989 C993 1.429 . S
C990 C973 1.574 . S
C990 H984 0.949 . S
C990 C994 1.368 . S
C991 C972 1.429 . S
C991 C985 1.429 . S
C991 C992 1.523 . S
C992 C973 1.368 . S
C992 C986 1.368 . S
C992 C991 1.523 . S
C993 C977 1.429 . S
C993 C989 1.429 . S
C993 C994 1.523 . S
C994 C978 1.368 . S
C994 C990 1.368 . S
C994 C993 1.523 . S
H995 C970 0.950 . S
H996 C972 0.950 . S
H997 C973 0.949 . S
H998 C975 0.950 . S
H999 C977 0.950 . S
C1000 C1001 1.349 . S
C1000 C1002 1.327 . S
C1000 H1025 0.950 . S
C1001 C1000 1.349 . S
C1001 C1017 1.349 . S
C1002 C1000 1.327 . S
C1002 C1021 1.429 . S
C1002 H1026 0.950 . S
C1003 C1020 1.574 . S
C1003 C1022 1.368 . S
C1003 H1027 0.949 . S
H1004 C1008 0.949 . S
C1005 C1006 1.349 . S
C1005 C1007 1.327 . S
C1005 H1028 0.950 . S
C1006 C1005 1.349 . S
C1006 C1018 1.349 . S
C1007 C1005 1.327 . S
C1007 C1023 1.429 . S
C1007 H1029 0.950 . S
C1008 H1004 0.949 . S
C1008 C1016 1.574 . S
C1008 C1024 1.368 . S
H1009 C1017 0.950 . S
H1010 C1015 0.950 . S
H1011 C1016 0.949 . S
H1012 C1018 0.950 . S
H1013 C1019 0.950 . S
H1014 C1020 0.949 . S
C1015 H1010 0.950 . S
C1015 C1017 1.327 . S
C1015 C1021 1.429 . S
C1016 C1008 1.574 . S
C1016 H1011 0.949 . S
C1016 C1022 1.368 . S
C1017 C1001 1.349 . S
C1017 H1009 0.950 . S
C1017 C1015 1.327 . S
C1018 C1006 1.349 . S
C1018 H1012 0.950 . S
C1018 C1019 1.327 . S
C1019 H1013 0.950 . S
C1019 C1018 1.327 . S
C1019 C1023 1.429 . S
C1020 C1003 1.574 . S
C1020 H1014 0.949 . S
C1020 C1024 1.368 . S
C1021 C1002 1.429 . S
C1021 C1015 1.429 . S
C1021 C1022 1.523 . S
C1022 C1003 1.368 . S
C1022 C1016 1.368 . S
C1022 C1021 1.523 . S
C1023 C1007 1.429 . S
C1023 C1019 1.429 . S
C1023 C1024 1.523 . S
C1024 C1008 1.368 . S
C1024 C1020 1.368 . S
C1024 C1023 1.523 . S
H1025 C1000 0.950 . S
H1026 C1002 0.950 . S
H1027 C1003 0.949 . S
H1028 C1005 0.950 . S
H1029 C1007 0.950 . S
C1030 C1031 1.349 . S
C1030 C1032 1.327 . S
C1030 H1055 0.950 . S
C1031 C1030 1.349 . S
C1031 C1047 1.349 . S
C1032 C1030 1.327 . S
C1032 C1051 1.429 . S
C1032 H1056 0.950 . S
C1033 C1050 1.574 . S
C1033 C1052 1.368 . S
C1033 H1057 0.949 . S
H1034 C1038 0.949 . S
C1035 C1036 1.349 . S
C1035 C1037 1.327 . S
C1035 H1058 0.950 . S
C1036 C1035 1.349 . S
C1036 C1048 1.349 . S
C1037 C1035 1.327 . S
C1037 C1053 1.429 . S
C1037 H1059 0.950 . S
C1038 H1034 0.949 . S
C1038 C1046 1.574 . S
C1038 C1054 1.368 . S
H1039 C1047 0.950 . S
H1040 C1045 0.950 . S
H1041 C1046 0.949 . S
H1042 C1048 0.950 . S
H1043 C1049 0.950 . S
H1044 C1050 0.949 . S
C1045 H1040 0.950 . S
C1045 C1047 1.327 . S
C1045 C1051 1.429 . S
C1046 C1038 1.574 . S
C1046 H1041 0.949 . S
C1046 C1052 1.368 . S
C1047 C1031 1.349 . S
C1047 H1039 0.950 . S
C1047 C1045 1.327 . S
C1048 C1036 1.349 . S
C1048 H1042 0.950 . S
C1048 C1049 1.327 . S
C1049 H1043 0.950 . S
C1049 C1048 1.327 . S
C1049 C1053 1.429 . S
C1050 C1033 1.574 . S
C1050 H1044 0.949 . S
C1050 C1054 1.368 . S
C1051 C1032 1.429 . S
C1051 C1045 1.429 . S
C1051 C1052 1.523 . S
C1052 C1033 1.368 . S
C1052 C1046 1.368 . S
C1052 C1051 1.523 . S
C1053 C1037 1.429 . S
C1053 C1049 1.429 . S
C1053 C1054 1.523 . S
C1054 C1038 1.368 . S
C1054 C1050 1.368 . S
C1054 C1053 1.523 . S
H1055 C1030 0.950 . S
H1056 C1032 0.950 . S
H1057 C1033 0.949 . S
H1058 C1035 0.950 . S
H1059 C1037 0.950 . S
C1060 C1061 1.349 . S
C1060 C1062 1.327 . S
C1060 H1085 0.950 . S
C1061 C1060 1.349 . S
C1061 C1077 1.349 . S
C1062 C1060 1.327 . S
C1062 C1081 1.429 . S
C1062 H1086 0.950 . S
C1063 C1080 1.574 . S
C1063 C1082 1.368 . S
C1063 H1087 0.949 . S
H1064 C1068 0.949 . S
C1065 C1066 1.349 . S
C1065 C1067 1.327 . S
C1065 H1088 0.950 . S
C1066 C1065 1.349 . S
C1066 C1078 1.349 . S
C1067 C1065 1.327 . S
C1067 C1083 1.429 . S
C1067 H1089 0.950 . S
C1068 H1064 0.949 . S
C1068 C1076 1.574 . S
C1068 C1084 1.368 . S
H1069 C1077 0.950 . S
H1070 C1075 0.950 . S
H1071 C1076 0.949 . S
H1072 C1078 0.950 . S
H1073 C1079 0.950 . S
H1074 C1080 0.949 . S
C1075 H1070 0.950 . S
C1075 C1077 1.327 . S
C1075 C1081 1.429 . S
C1076 C1068 1.574 . S
C1076 H1071 0.949 . S
C1076 C1082 1.368 . S
C1077 C1061 1.349 . S
C1077 H1069 0.950 . S
C1077 C1075 1.327 . S
C1078 C1066 1.349 . S
C1078 H1072 0.950 . S
C1078 C1079 1.327 . S
C1079 H1073 0.950 . S
C1079 C1078 1.327 . S
C1079 C1083 1.429 . S
C1080 C1063 1.574 . S
C1080 H1074 0.949 . S
C1080 C1084 1.368 . S
C1081 C1062 1.429 . S
C1081 C1075 1.429 . S
C1081 C1082 1.523 . S
C1082 C1063 1.368 . S
C1082 C1076 1.368 . S
C1082 C1081 1.523 . S
C1083 C1067 1.429 . S
C1083 C1079 1.429 . S
C1083 C1084 1.523 . S
C1084 C1068 1.368 . S
C1084 C1080 1.368 . S
C1084 C1083 1.523 . S
H1085 C1060 0.950 . S
H1086 C1062 0.950 . S
H1087 C1063 0.949 . S
H1088 C1065 0.950 . S
H1089 C1067 0.950 . S
C1090 C1091 1.349 . S
C1090 C1092 1.327 . S
C1090 H1115 0.950 . S
C1091 C1090 1.349 . S
C1091 C1107 1.349 . S
C1092 C1090 1.327 . S
C1092 C1111 1.429 . S
C1092 H1116 0.950 . S
C1093 C1110 1.574 . S
C1093 C1112 1.368 . S
C1093 H1117 0.949 . S
H1094 C1098 0.949 . S
C1095 C1096 1.349 . S
C1095 C1097 1.327 . S
C1095 H1118 0.950 . S
C1096 C1095 1.349 . S
C1096 C1108 1.349 . S
C1097 C1095 1.327 . S
C1097 C1113 1.429 . S
C1097 H1119 0.950 . S
C1098 H1094 0.949 . S
C1098 C1106 1.574 . S
C1098 C1114 1.368 . S
H1099 C1107 0.950 . S
H1100 C1105 0.950 . S
H1101 C1106 0.949 . S
H1102 C1108 0.950 . S
H1103 C1109 0.950 . S
H1104 C1110 0.949 . S
C1105 H1100 0.950 . S
C1105 C1107 1.327 . S
C1105 C1111 1.429 . S
C1106 C1098 1.574 . S
C1106 H1101 0.949 . S
C1106 C1112 1.368 . S
C1107 C1091 1.349 . S
C1107 H1099 0.950 . S
C1107 C1105 1.327 . S
C1108 C1096 1.349 . S
C1108 H1102 0.950 . S
C1108 C1109 1.327 . S
C1109 H1103 0.950 . S
C1109 C1108 1.327 . S
C1109 C1113 1.429 . S
C1110 C1093 1.574 . S
C1110 H1104 0.949 . S
C1110 C1114 1.368 . S
C1111 C1092 1.429 . S
C1111 C1105 1.429 . S
C1111 C1112 1.523 . S
C1112 C1093 1.368 . S
C1112 C1106 1.368 . S
C1112 C1111 1.523 . S
C1113 C1097 1.429 . S
C1113 C1109 1.429 . S
C1113 C1114 1.523 . S
C1114 C1098 1.368 . S
C1114 C1110 1.368 . S
C1114 C1113 1.523 . S
H1115 C1090 0.950 . S
H1116 C1092 0.950 . S
H1117 C1093 0.949 . S
H1118 C1095 0.950 . S
H1119 C1097 0.950 . S
C1120 C1121 1.349 . S
C1120 C1122 1.327 . S
C1120 H1145 0.950 . S
C1121 C1120 1.349 . S
C1121 C1137 1.349 . S
C1122 C1120 1.327 . S
C1122 C1141 1.429 . S
C1122 H1146 0.950 . S
C1123 C1140 1.574 . S
C1123 C1142 1.368 . S
C1123 H1147 0.949 . S
H1124 C1128 0.949 . S
C1125 C1126 1.349 . S
C1125 C1127 1.327 . S
C1125 H1148 0.950 . S
C1126 C1125 1.349 . S
C1126 C1138 1.349 . S
C1127 C1125 1.327 . S
C1127 C1143 1.429 . S
C1127 H1149 0.950 . S
C1128 H1124 0.949 . S
C1128 C1136 1.574 . S
C1128 C1144 1.368 . S
H1129 C1137 0.950 . S
H1130 C1135 0.950 . S
H1131 C1136 0.949 . S
H1132 C1138 0.950 . S
H1133 C1139 0.950 . S
H1134 C1140 0.949 . S
C1135 H1130 0.950 . S
C1135 C1137 1.327 . S
C1135 C1141 1.429 . S
C1136 C1128 1.574 . S
C1136 H1131 0.949 . S
C1136 C1142 1.368 . S
C1137 C1121 1.349 . S
C1137 H1129 0.950 . S
C1137 C1135 1.327 . S
C1138 C1126 1.349 . S
C1138 H1132 0.950 . S
C1138 C1139 1.327 . S
C1139 H1133 0.950 . S
C1139 C1138 1.327 . S
C1139 C1143 1.429 . S
C1140 C1123 1.574 . S
C1140 H1134 0.949 . S
C1140 C1144 1.368 . S
C1141 C1122 1.429 . S
C1141 C1135 1.429 . S
C1141 C1142 1.523 . S
C1142 C1123 1.368 . S
C1142 C1136 1.368 . S
C1142 C1141 1.523 . S
C1143 C1127 1.429 . S
C1143 C1139 1.429 . S
C1143 C1144 1.523 . S
C1144 C1128 1.368 . S
C1144 C1140 1.368 . S
C1144 C1143 1.523 . S
H1145 C1120 0.950 . S
H1146 C1122 0.950 . S
H1147 C1123 0.949 . S
H1148 C1125 0.950 . S
H1149 C1127 0.950 . S
C1150 C1151 1.349 . S
C1150 C1152 1.327 . S
C1150 H1175 0.950 . S
C1151 C1150 1.349 . S
C1151 C1167 1.349 . S
C1152 C1150 1.327 . S
C1152 C1171 1.429 . S
C1152 H1176 0.950 . S
C1153 C1170 1.574 . S
C1153 C1172 1.368 . S
C1153 H1177 0.949 . S
H1154 C1158 0.949 . S
C1155 C1156 1.349 . S
C1155 C1157 1.327 . S
C1155 H1178 0.950 . S
C1156 C1155 1.349 . S
C1156 C1168 1.349 . S
C1157 C1155 1.327 . S
C1157 C1173 1.429 . S
C1157 H1179 0.950 . S
C1158 H1154 0.949 . S
C1158 C1166 1.574 . S
C1158 C1174 1.368 . S
H1159 C1167 0.950 . S
H1160 C1165 0.950 . S
H1161 C1166 0.949 . S
H1162 C1168 0.950 . S
H1163 C1169 0.950 . S
H1164 C1170 0.949 . S
C1165 H1160 0.950 . S
C1165 C1167 1.327 . S
C1165 C1171 1.429 . S
C1166 C1158 1.574 . S
C1166 H1161 0.949 . S
C1166 C1172 1.368 . S
C1167 C1151 1.349 . S
C1167 H1159 0.950 . S
C1167 C1165 1.327 . S
C1168 C1156 1.349 . S
C1168 H1162 0.950 . S
C1168 C1169 1.327 . S
C1169 H1163 0.950 . S
C1169 C1168 1.327 . S
C1169 C1173 1.429 . S
C1170 C1153 1.574 . S
C1170 H1164 0.949 . S
C1170 C1174 1.368 . S
C1171 C1152 1.429 . S
C1171 C1165 1.429 . S
C1171 C1172 1.523 . S
C1172 C1153 1.368 . S
C1172 C1166 1.368 . S
C1172 C1171 1.523 . S
C1173 C1157 1.429 . S
C1173 C1169 1.429 . S
C1173 C1174 1.523 . S
C1174 C1158 1.368 . S
C1174 C1170 1.368 . S
C1174 C1173 1.523 . S
H1175 C1150 0.950 . S
H1176 C1152 0.950 . S
H1177 C1153 0.949 . S
H1178 C1155 0.950 . S
H1179 C1157 0.950 . S
C1180 C1181 1.349 . S
C1180 C1182 1.327 . S
C1180 H1205 0.950 . S
C1181 C1180 1.349 . S
C1181 C1197 1.349 . S
C1182 C1180 1.327 . S
C1182 C1201 1.429 . S
C1182 H1206 0.950 . S
C1183 C1200 1.574 . S
C1183 C1202 1.368 . S
C1183 H1207 0.949 . S
H1184 C1188 0.949 . S
C1185 C1186 1.349 . S
C1185 C1187 1.327 . S
C1185 H1208 0.950 . S
C1186 C1185 1.349 . S
C1186 C1198 1.349 . S
C1187 C1185 1.327 . S
C1187 C1203 1.429 . S
C1187 H1209 0.950 . S
C1188 H1184 0.949 . S
C1188 C1196 1.574 . S
C1188 C1204 1.368 . S
H1189 C1197 0.950 . S
H1190 C1195 0.950 . S
H1191 C1196 0.949 . S
H1192 C1198 0.950 . S
H1193 C1199 0.950 . S
H1194 C1200 0.949 . S
C1195 H1190 0.950 . S
C1195 C1197 1.327 . S
C1195 C1201 1.429 . S
C1196 C1188 1.574 . S
C1196 H1191 0.949 . S
C1196 C1202 1.368 . S
C1197 C1181 1.349 . S
C1197 H1189 0.950 . S
C1197 C1195 1.327 . S
C1198 C1186 1.349 . S
C1198 H1192 0.950 . S
C1198 C1199 1.327 . S
C1199 H1193 0.950 . S
C1199 C1198 1.327 . S
C1199 C1203 1.429 . S
C1200 C1183 1.574 . S
C1200 H1194 0.949 . S
C1200 C1204 1.368 . S
C1201 C1182 1.429 . S
C1201 C1195 1.429 . S
C1201 C1202 1.523 . S
C1202 C1183 1.368 . S
C1202 C1196 1.368 . S
C1202 C1201 1.523 . S
C1203 C1187 1.429 . S
C1203 C1199 1.429 . S
C1203 C1204 1.523 . S
C1204 C1188 1.368 . S
C1204 C1200 1.368 . S
C1204 C1203 1.523 . S
H1205 C1180 0.950 . S
H1206 C1182 0.950 . S
H1207 C1183 0.949 . S
H1208 C1185 0.950 . S
H1209 C1187 0.950 . S
C1210 C1211 1.349 . S
C1210 C1212 1.327 . S
C1210 H1235 0.950 . S
C1211 C1210 1.349 . S
C1211 C1227 1.349 . S
C1212 C1210 1.327 . S
C1212 C1231 1.429 . S
C1212 H1236 0.950 . S
C1213 C1230 1.574 . S
C1213 C1232 1.368 . S
C1213 H1237 0.949 . S
H1214 C1218 0.949 . S
C1215 C1216 1.349 . S
C1215 C1217 1.327 . S
C1215 H1238 0.950 . S
C1216 C1215 1.349 . S
C1216 C1228 1.349 . S
C1217 C1215 1.327 . S
C1217 C1233 1.429 . S
C1217 H1239 0.950 . S
C1218 H1214 0.949 . S
C1218 C1226 1.574 . S
C1218 C1234 1.368 . S
H1219 C1227 0.950 . S
H1220 C1225 0.950 . S
H1221 C1226 0.949 . S
H1222 C1228 0.950 . S
H1223 C1229 0.950 . S
H1224 C1230 0.949 . S
C1225 H1220 0.950 . S
C1225 C1227 1.327 . S
C1225 C1231 1.429 . S
C1226 C1218 1.574 . S
C1226 H1221 0.949 . S
C1226 C1232 1.368 . S
C1227 C1211 1.349 . S
C1227 H1219 0.950 . S
C1227 C1225 1.327 . S
C1228 C1216 1.349 . S
C1228 H1222 0.950 . S
C1228 C1229 1.327 . S
C1229 H1223 0.950 . S
C1229 C1228 1.327 . S
C1229 C1233 1.429 . S
C1230 C1213 1.574 . S
C1230 H1224 0.949 . S
C1230 C1234 1.368 . S
C1231 C1212 1.429 . S
C1231 C1225 1.429 . S
C1231 C1232 1.523 . S
C1232 C1213 1.368 . S
C1232 C1226 1.368 . S
C1232 C1231 1.523 . S
C1233 C1217 1.429 . S
C1233 C1229 1.429 . S
C1233 C1234 1.523 . S
C1234 C1218 1.368 . S
C1234 C1230 1.368 . S
C1234 C1233 1.523 . S
H1235 C1210 0.950 . S
H1236 C1212 0.950 . S
H1237 C1213 0.949 . S
H1238 C1215 0.950 . S
H1239 C1217 0.950 . S
C1240 C1241 1.349 . S
C1240 C1242 1.327 . S
C1240 H1265 0.950 . S
C1241 C1240 1.349 . S
C1241 C1257 1.349 . S
C1242 C1240 1.327 . S
C1242 C1261 1.429 . S
C1242 H1266 0.950 . S
C1243 C1260 1.574 . S
C1243 C1262 1.368 . S
C1243 H1267 0.949 . S
H1244 C1248 0.949 . S
C1245 C1246 1.349 . S
C1245 C1247 1.327 . S
C1245 H1268 0.950 . S
C1246 C1245 1.349 . S
C1246 C1258 1.349 . S
C1247 C1245 1.327 . S
C1247 C1263 1.429 . S
C1247 H1269 0.950 . S
C1248 H1244 0.949 . S
C1248 C1256 1.574 . S
C1248 C1264 1.368 . S
H1249 C1257 0.950 . S
H1250 C1255 0.950 . S
H1251 C1256 0.949 . S
H1252 C1258 0.950 . S
H1253 C1259 0.950 . S
H1254 C1260 0.949 . S
C1255 H1250 0.950 . S
C1255 C1257 1.327 . S
C1255 C1261 1.429 . S
C1256 C1248 1.574 . S
C1256 H1251 0.949 . S
C1256 C1262 1.368 . S
C1257 C1241 1.349 . S
C1257 H1249 0.950 . S
C1257 C1255 1.327 . S
C1258 C1246 1.349 . S
C1258 H1252 0.950 . S
C1258 C1259 1.327 . S
C1259 H1253 0.950 . S
C1259 C1258 1.327 . S
C1259 C1263 1.429 . S
C1260 C1243 1.574 . S
C1260 H1254 0.949 . S
C1260 C1264 1.368 . S
C1261 C1242 1.429 . S
C1261 C1255 1.429 . S
C1261 C1262 1.523 . S
C1262 C1243 1.368 . S
C1262 C1256 1.368 . S
C1262 C1261 1.523 . S
C1263 C1247 1.429 . S
C1263 C1259 1.429 . S
C1263 C1264 1.523 . S
C1264 C1248 1.368 . S
C1264 C1260 1.368 . S
C1264 C1263 1.523 . S
H1265 C1240 0.950 . S
H1266 C1242 0.950 . S
H1267 C1243 0.949 . S
H1268 C1245 0.950 . S
H1269 C1247 0.950 . S
C1270 C1271 1.349 . S
C1270 C1272 1.327 . S
C1270 H1295 0.950 . S
C1271 C1270 1.349 . S
C1271 C1287 1.349 . S
C1272 C1270 1.327 . S
C1272 C1291 1.429 . S
C1272 H1296 0.950 . S
C1273 C1290 1.574 . S
C1273 C1292 1.368 . S
C1273 H1297 0.949 . S
H1274 C1278 0.949 . S
C1275 C1276 1.349 . S
C1275 C1277 1.327 . S
C1275 H1298 0.950 1_554 S
C1276 C1275 1.349 . S
C1276 C1288 1.349 . S
C1277 C1275 1.327 . S
C1277 C1293 1.429 . S
C1277 H1299 0.950 . S
C1278 H1274 0.949 . S
C1278 C1286 1.574 . S
C1278 C1294 1.368 . S
H1279 C1287 0.950 . S
H1280 C1285 0.950 . S
H1281 C1286 0.949 . S
H1282 C1288 0.950 . S
H1283 C1289 0.950 . S
H1284 C1290 0.949 . S
C1285 H1280 0.950 . S
C1285 C1287 1.327 . S
C1285 C1291 1.429 . S
C1286 C1278 1.574 . S
C1286 H1281 0.949 . S
C1286 C1292 1.368 . S
C1287 C1271 1.349 . S
C1287 H1279 0.950 . S
C1287 C1285 1.327 . S
C1288 C1276 1.349 . S
C1288 H1282 0.950 . S
C1288 C1289 1.327 . S
C1289 H1283 0.950 . S
C1289 C1288 1.327 . S
C1289 C1293 1.429 . S
C1290 C1273 1.574 . S
C1290 H1284 0.949 . S
C1290 C1294 1.368 . S
C1291 C1272 1.429 . S
C1291 C1285 1.429 . S
C1291 C1292 1.523 . S
C1292 C1273 1.368 . S
C1292 C1286 1.368 . S
C1292 C1291 1.523 . S
C1293 C1277 1.429 . S
C1293 C1289 1.429 . S
C1293 C1294 1.523 . S
C1294 C1278 1.368 . S
C1294 C1290 1.368 . S
C1294 C1293 1.523 . S
H1295 C1270 0.950 . S
H1296 C1272 0.950 . S
H1297 C1273 0.949 . S
H1298 C1275 0.950 1_556 S
H1299 C1277 0.950 . S
C1300 C1301 1.349 . S
C1300 C1302 1.327 . S
C1300 H1325 0.950 . S
C1301 C1300 1.349 . S
C1301 C1317 1.349 . S
C1302 C1300 1.327 . S
C1302 C1321 1.429 . S
C1302 H1326 0.950 . S
C1303 C1320 1.574 . S
C1303 C1322 1.368 . S
C1303 H1327 0.949 . S
H1304 C1308 0.949 . S
C1305 C1306 1.349 . S
C1305 C1307 1.327 . S
C1305 H1328 0.950 . S
C1306 C1305 1.349 . S
C1306 C1318 1.349 . S
C1307 C1305 1.327 . S
C1307 C1323 1.429 . S
C1307 H1329 0.950 . S
C1308 H1304 0.949 . S
C1308 C1316 1.574 . S
C1308 C1324 1.368 . S
H1309 C1317 0.950 . S
H1310 C1315 0.950 . S
H1311 C1316 0.949 . S
H1312 C1318 0.950 . S
H1313 C1319 0.950 . S
H1314 C1320 0.949 . S
C1315 H1310 0.950 . S
C1315 C1317 1.327 . S
C1315 C1321 1.429 . S
C1316 C1308 1.574 . S
C1316 H1311 0.949 . S
C1316 C1322 1.368 . S
C1317 C1301 1.349 . S
C1317 H1309 0.950 . S
C1317 C1315 1.327 . S
C1318 C1306 1.349 . S
C1318 H1312 0.950 . S
C1318 C1319 1.327 . S
C1319 H1313 0.950 . S
C1319 C1318 1.327 . S
C1319 C1323 1.429 . S
C1320 C1303 1.574 . S
C1320 H1314 0.949 . S
C1320 C1324 1.368 . S
C1321 C1302 1.429 . S
C1321 C1315 1.429 . S
C1321 C1322 1.523 . S
C1322 C1303 1.368 . S
C1322 C1316 1.368 . S
C1322 C1321 1.523 . S
C1323 C1307 1.429 . S
C1323 C1319 1.429 . S
C1323 C1324 1.523 . S
C1324 C1308 1.368 . S
C1324 C1320 1.368 . S
C1324 C1323 1.523 . S
H1325 C1300 0.950 . S
H1326 C1302 0.950 . S
H1327 C1303 0.949 . S
H1328 C1305 0.950 . S
H1329 C1307 0.950 . S
C1330 C1331 1.349 . S
C1330 C1332 1.327 . S
C1330 H1355 0.950 . S
C1331 C1330 1.349 . S
C1331 C1347 1.349 . S
C1332 C1330 1.327 . S
C1332 C1351 1.429 . S
C1332 H1356 0.950 . S
C1333 C1350 1.574 . S
C1333 C1352 1.368 . S
C1333 H1357 0.949 . S
H1334 C1338 0.949 . S
C1335 C1336 1.349 . S
C1335 C1337 1.327 . S
C1335 H1358 0.950 . S
C1336 C1335 1.349 . S
C1336 C1348 1.349 . S
C1337 C1335 1.327 . S
C1337 C1353 1.429 . S
C1337 H1359 0.950 . S
C1338 H1334 0.949 . S
C1338 C1346 1.574 . S
C1338 C1354 1.368 . S
H1339 C1347 0.950 . S
H1340 C1345 0.950 . S
H1341 C1346 0.949 . S
H1342 C1348 0.950 . S
H1343 C1349 0.950 . S
H1344 C1350 0.949 . S
C1345 H1340 0.950 . S
C1345 C1347 1.327 . S
C1345 C1351 1.429 . S
C1346 C1338 1.574 . S
C1346 H1341 0.949 . S
C1346 C1352 1.368 . S
C1347 C1331 1.349 . S
C1347 H1339 0.950 . S
C1347 C1345 1.327 . S
C1348 C1336 1.349 . S
C1348 H1342 0.950 . S
C1348 C1349 1.327 . S
C1349 H1343 0.950 . S
C1349 C1348 1.327 . S
C1349 C1353 1.429 . S
C1350 C1333 1.574 . S
C1350 H1344 0.949 . S
C1350 C1354 1.368 . S
C1351 C1332 1.429 . S
C1351 C1345 1.429 . S
C1351 C1352 1.523 . S
C1352 C1333 1.368 . S
C1352 C1346 1.368 . S
C1352 C1351 1.523 . S
C1353 C1337 1.429 . S
C1353 C1349 1.429 . S
C1353 C1354 1.523 . S
C1354 C1338 1.368 . S
C1354 C1350 1.368 . S
C1354 C1353 1.523 . S
H1355 C1330 0.950 . S
H1356 C1332 0.950 . S
H1357 C1333 0.949 . S
H1358 C1335 0.950 . S
H1359 C1337 0.950 . S
C1360 C1361 1.349 . S
C1360 C1362 1.327 . S
C1360 H1385 0.950 . S
C1361 C1360 1.349 . S
C1361 C1377 1.349 . S
C1362 C1360 1.327 . S
C1362 C1381 1.429 . S
C1362 H1386 0.950 . S
C1363 C1380 1.574 . S
C1363 C1382 1.368 . S
C1363 H1387 0.949 . S
H1364 C1368 0.949 . S
C1365 C1366 1.349 . S
C1365 C1367 1.327 . S
C1365 H1388 0.950 . S
C1366 C1365 1.349 . S
C1366 C1378 1.349 . S
C1367 C1365 1.327 . S
C1367 C1383 1.429 . S
C1367 H1389 0.950 . S
C1368 H1364 0.949 . S
C1368 C1376 1.574 . S
C1368 C1384 1.368 . S
H1369 C1377 0.950 . S
H1370 C1375 0.950 . S
H1371 C1376 0.949 . S
H1372 C1378 0.950 . S
H1373 C1379 0.950 . S
H1374 C1380 0.949 . S
C1375 H1370 0.950 . S
C1375 C1377 1.327 . S
C1375 C1381 1.429 . S
C1376 C1368 1.574 . S
C1376 H1371 0.949 . S
C1376 C1382 1.368 . S
C1377 C1361 1.349 . S
C1377 H1369 0.950 . S
C1377 C1375 1.327 . S
C1378 C1366 1.349 . S
C1378 H1372 0.950 . S
C1378 C1379 1.327 . S
C1379 H1373 0.950 . S
C1379 C1378 1.327 . S
C1379 C1383 1.429 . S
C1380 C1363 1.574 . S
C1380 H1374 0.949 . S
C1380 C1384 1.368 . S
C1381 C1362 1.429 . S
C1381 C1375 1.429 . S
C1381 C1382 1.523 . S
C1382 C1363 1.368 . S
C1382 C1376 1.368 . S
C1382 C1381 1.523 . S
C1383 C1367 1.429 . S
C1383 C1379 1.429 . S
C1383 C1384 1.523 . S
C1384 C1368 1.368 . S
C1384 C1380 1.368 . S
C1384 C1383 1.523 . S
H1385 C1360 0.950 . S
H1386 C1362 0.950 . S
H1387 C1363 0.949 . S
H1388 C1365 0.950 . S
H1389 C1367 0.950 . S
C1390 C1391 1.349 . S
C1390 C1392 1.327 . S
C1390 H1415 0.950 . S
C1391 C1390 1.349 . S
C1391 C1407 1.349 . S
C1392 C1390 1.327 . S
C1392 C1411 1.429 . S
C1392 H1416 0.950 . S
C1393 C1410 1.574 . S
C1393 C1412 1.368 . S
C1393 H1417 0.949 . S
H1394 C1398 0.949 . S
C1395 C1396 1.349 . S
C1395 C1397 1.327 . S
C1395 H1418 0.950 . S
C1396 C1395 1.349 . S
C1396 C1408 1.349 . S
C1397 C1395 1.327 . S
C1397 C1413 1.429 . S
C1397 H1419 0.950 . S
C1398 H1394 0.949 . S
C1398 C1406 1.574 . S
C1398 C1414 1.368 . S
H1399 C1407 0.950 . S
H1400 C1405 0.950 . S
H1401 C1406 0.949 . S
H1402 C1408 0.950 . S
H1403 C1409 0.950 . S
H1404 C1410 0.949 . S
C1405 H1400 0.950 . S
C1405 C1407 1.327 . S
C1405 C1411 1.429 . S
C1406 C1398 1.574 . S
C1406 H1401 0.949 . S
C1406 C1412 1.368 . S
C1407 C1391 1.349 . S
C1407 H1399 0.950 . S
C1407 C1405 1.327 . S
C1408 C1396 1.349 . S
C1408 H1402 0.950 . S
C1408 C1409 1.327 . S
C1409 H1403 0.950 . S
C1409 C1408 1.327 . S
C1409 C1413 1.429 . S
C1410 C1393 1.574 . S
C1410 H1404 0.949 . S
C1410 C1414 1.368 . S
C1411 C1392 1.429 . S
C1411 C1405 1.429 . S
C1411 C1412 1.523 . S
C1412 C1393 1.368 . S
C1412 C1406 1.368 . S
C1412 C1411 1.523 . S
C1413 C1397 1.429 . S
C1413 C1409 1.429 . S
C1413 C1414 1.523 . S
C1414 C1398 1.368 . S
C1414 C1410 1.368 . S
C1414 C1413 1.523 . S
H1415 C1390 0.950 . S
H1416 C1392 0.950 . S
H1417 C1393 0.949 . S
H1418 C1395 0.950 . S
H1419 C1397 0.950 . S
C1420 C1421 1.349 . S
C1420 C1422 1.327 . S
C1420 H1445 0.950 . S
C1421 C1420 1.349 . S
C1421 C1437 1.349 . S
C1422 C1420 1.327 . S
C1422 C1441 1.429 . S
C1422 H1446 0.950 . S
C1423 C1440 1.574 . S
C1423 C1442 1.368 . S
C1423 H1447 0.949 . S
H1424 C1428 0.949 . S
C1425 C1426 1.349 . S
C1425 C1427 1.327 . S
C1425 H1448 0.950 . S
C1426 C1425 1.349 . S
C1426 C1438 1.349 . S
C1427 C1425 1.327 . S
C1427 C1443 1.429 . S
C1427 H1449 0.950 . S
C1428 H1424 0.949 . S
C1428 C1436 1.574 . S
C1428 C1444 1.368 . S
H1429 C1437 0.950 . S
H1430 C1435 0.950 . S
H1431 C1436 0.949 . S
H1432 C1438 0.950 . S
H1433 C1439 0.950 . S
H1434 C1440 0.949 . S
C1435 H1430 0.950 . S
C1435 C1437 1.327 . S
C1435 C1441 1.429 . S
C1436 C1428 1.574 . S
C1436 H1431 0.949 . S
C1436 C1442 1.368 . S
C1437 C1421 1.349 . S
C1437 H1429 0.950 . S
C1437 C1435 1.327 . S
C1438 C1426 1.349 . S
C1438 H1432 0.950 . S
C1438 C1439 1.327 . S
C1439 H1433 0.950 . S
C1439 C1438 1.327 . S
C1439 C1443 1.429 . S
C1440 C1423 1.574 . S
C1440 H1434 0.949 . S
C1440 C1444 1.368 . S
C1441 C1422 1.429 . S
C1441 C1435 1.429 . S
C1441 C1442 1.523 . S
C1442 C1423 1.368 . S
C1442 C1436 1.368 . S
C1442 C1441 1.523 . S
C1443 C1427 1.429 . S
C1443 C1439 1.429 . S
C1443 C1444 1.523 . S
C1444 C1428 1.368 . S
C1444 C1440 1.368 . S
C1444 C1443 1.523 . S
H1445 C1420 0.950 . S
H1446 C1422 0.950 . S
H1447 C1423 0.949 . S
H1448 C1425 0.950 . S
H1449 C1427 0.950 . S
C1450 C1451 1.349 . S
C1450 C1452 1.327 . S
C1450 H1475 0.950 . S
C1451 C1450 1.349 . S
C1451 C1467 1.349 . S
C1452 C1450 1.327 . S
C1452 C1471 1.429 . S
C1452 H1476 0.950 . S
C1453 C1470 1.574 . S
C1453 C1472 1.368 . S
C1453 H1477 0.949 . S
H1454 C1458 0.949 . S
C1455 C1456 1.349 . S
C1455 C1457 1.327 . S
C1455 H1478 0.950 . S
C1456 C1455 1.349 . S
C1456 C1468 1.349 . S
C1457 C1455 1.327 . S
C1457 C1473 1.429 . S
C1457 H1479 0.950 . S
C1458 H1454 0.949 . S
C1458 C1466 1.574 . S
C1458 C1474 1.368 . S
H1459 C1467 0.950 . S
H1460 C1465 0.950 . S
H1461 C1466 0.949 . S
H1462 C1468 0.950 . S
H1463 C1469 0.950 . S
H1464 C1470 0.949 . S
C1465 H1460 0.950 . S
C1465 C1467 1.327 . S
C1465 C1471 1.429 . S
C1466 C1458 1.574 . S
C1466 H1461 0.949 . S
C1466 C1472 1.368 . S
C1467 C1451 1.349 . S
C1467 H1459 0.950 . S
C1467 C1465 1.327 . S
C1468 C1456 1.349 . S
C1468 H1462 0.950 . S
C1468 C1469 1.327 . S
C1469 H1463 0.950 . S
C1469 C1468 1.327 . S
C1469 C1473 1.429 . S
C1470 C1453 1.574 . S
C1470 H1464 0.949 . S
C1470 C1474 1.368 . S
C1471 C1452 1.429 . S
C1471 C1465 1.429 . S
C1471 C1472 1.523 . S
C1472 C1453 1.368 . S
C1472 C1466 1.368 . S
C1472 C1471 1.523 . S
C1473 C1457 1.429 . S
C1473 C1469 1.429 . S
C1473 C1474 1.523 . S
C1474 C1458 1.368 . S
C1474 C1470 1.368 . S
C1474 C1473 1.523 . S
H1475 C1450 0.950 . S
H1476 C1452 0.950 . S
H1477 C1453 0.949 . S
H1478 C1455 0.950 . S
H1479 C1457 0.950 . S
C1480 C1481 1.349 . S
C1480 C1482 1.327 . S
C1480 H1505 0.950 . S
C1481 C1480 1.349 . S
C1481 C1497 1.349 . S
C1482 C1480 1.327 . S
C1482 C1501 1.429 . S
C1482 H1506 0.950 . S
C1483 C1500 1.574 . S
C1483 C1502 1.368 . S
C1483 H1507 0.949 . S
H1484 C1488 0.949 . S
C1485 C1486 1.349 . S
C1485 C1487 1.327 . S
C1485 H1508 0.950 . S
C1486 C1485 1.349 . S
C1486 C1498 1.349 . S
C1487 C1485 1.327 . S
C1487 C1503 1.429 . S
C1487 H1509 0.950 . S
C1488 H1484 0.949 . S
C1488 C1496 1.574 . S
C1488 C1504 1.368 . S
H1489 C1497 0.950 . S
H1490 C1495 0.950 . S
H1491 C1496 0.949 . S
H1492 C1498 0.950 . S
H1493 C1499 0.950 . S
H1494 C1500 0.949 . S
C1495 H1490 0.950 . S
C1495 C1497 1.327 . S
C1495 C1501 1.429 . S
C1496 C1488 1.574 . S
C1496 H1491 0.949 . S
C1496 C1502 1.368 . S
C1497 C1481 1.349 . S
C1497 H1489 0.950 . S
C1497 C1495 1.327 . S
C1498 C1486 1.349 . S
C1498 H1492 0.950 . S
C1498 C1499 1.327 . S
C1499 H1493 0.950 . S
C1499 C1498 1.327 . S
C1499 C1503 1.429 . S
C1500 C1483 1.574 . S
C1500 H1494 0.949 . S
C1500 C1504 1.368 . S
C1501 C1482 1.429 . S
C1501 C1495 1.429 . S
C1501 C1502 1.523 . S
C1502 C1483 1.368 . S
C1502 C1496 1.368 . S
C1502 C1501 1.523 . S
C1503 C1487 1.429 . S
C1503 C1499 1.429 . S
C1503 C1504 1.523 . S
C1504 C1488 1.368 . S
C1504 C1500 1.368 . S
C1504 C1503 1.523 . S
H1505 C1480 0.950 . S
H1506 C1482 0.950 . S
H1507 C1483 0.949 . S
H1508 C1485 0.950 . S
H1509 C1487 0.950 . S
C1510 C1511 1.349 . S
C1510 C1512 1.327 . S
C1510 H1535 0.950 . S
C1511 C1510 1.349 . S
C1511 C1527 1.349 . S
C1512 C1510 1.327 . S
C1512 C1531 1.429 . S
C1512 H1536 0.950 . S
C1513 C1530 1.574 . S
C1513 C1532 1.368 . S
C1513 H1537 0.949 . S
H1514 C1518 0.949 . S
C1515 C1516 1.349 . S
C1515 C1517 1.327 . S
C1515 H1538 0.950 . S
C1516 C1515 1.349 . S
C1516 C1528 1.349 . S
C1517 C1515 1.327 . S
C1517 C1533 1.429 . S
C1517 H1539 0.950 . S
C1518 H1514 0.949 . S
C1518 C1526 1.574 . S
C1518 C1534 1.368 . S
H1519 C1527 0.950 . S
H1520 C1525 0.950 . S
H1521 C1526 0.949 . S
H1522 C1528 0.950 . S
H1523 C1529 0.950 . S
H1524 C1530 0.949 . S
C1525 H1520 0.950 . S
C1525 C1527 1.327 . S
C1525 C1531 1.429 . S
C1526 C1518 1.574 . S
C1526 H1521 0.949 . S
C1526 C1532 1.368 . S
C1527 C1511 1.349 . S
C1527 H1519 0.950 . S
C1527 C1525 1.327 . S
C1528 C1516 1.349 . S
C1528 H1522 0.950 . S
C1528 C1529 1.327 . S
C1529 H1523 0.950 . S
C1529 C1528 1.327 . S
C1529 C1533 1.429 . S
C1530 C1513 1.574 . S
C1530 H1524 0.949 . S
C1530 C1534 1.368 . S
C1531 C1512 1.429 . S
C1531 C1525 1.429 . S
C1531 C1532 1.523 . S
C1532 C1513 1.368 . S
C1532 C1526 1.368 . S
C1532 C1531 1.523 . S
C1533 C1517 1.429 . S
C1533 C1529 1.429 . S
C1533 C1534 1.523 . S
C1534 C1518 1.368 . S
C1534 C1530 1.368 . S
C1534 C1533 1.523 . S
H1535 C1510 0.950 . S
H1536 C1512 0.950 . S
H1537 C1513 0.949 . S
H1538 C1515 0.950 . S
H1539 C1517 0.950 . S
C1540 C1541 1.349 . S
C1540 C1542 1.327 . S
C1540 H1565 0.950 . S
C1541 C1540 1.349 . S
C1541 C1557 1.349 . S
C1542 C1540 1.327 . S
C1542 C1561 1.429 . S
C1542 H1566 0.950 . S
C1543 C1560 1.574 . S
C1543 C1562 1.368 . S
C1543 H1567 0.949 . S
H1544 C1548 0.949 . S
C1545 C1546 1.349 . S
C1545 C1547 1.327 . S
C1545 H1568 0.950 . S
C1546 C1545 1.349 . S
C1546 C1558 1.349 . S
C1547 C1545 1.327 . S
C1547 C1563 1.429 . S
C1547 H1569 0.950 . S
C1548 H1544 0.949 . S
C1548 C1556 1.574 . S
C1548 C1564 1.368 . S
H1549 C1557 0.950 . S
H1550 C1555 0.950 . S
H1551 C1556 0.949 . S
H1552 C1558 0.950 . S
H1553 C1559 0.950 . S
H1554 C1560 0.949 . S
C1555 H1550 0.950 . S
C1555 C1557 1.327 . S
C1555 C1561 1.429 . S
C1556 C1548 1.574 . S
C1556 H1551 0.949 . S
C1556 C1562 1.368 . S
C1557 C1541 1.349 . S
C1557 H1549 0.950 . S
C1557 C1555 1.327 . S
C1558 C1546 1.349 . S
C1558 H1552 0.950 . S
C1558 C1559 1.327 . S
C1559 H1553 0.950 . S
C1559 C1558 1.327 . S
C1559 C1563 1.429 . S
C1560 C1543 1.574 . S
C1560 H1554 0.949 . S
C1560 C1564 1.368 . S
C1561 C1542 1.429 . S
C1561 C1555 1.429 . S
C1561 C1562 1.523 . S
C1562 C1543 1.368 . S
C1562 C1556 1.368 . S
C1562 C1561 1.523 . S
C1563 C1547 1.429 . S
C1563 C1559 1.429 . S
C1563 C1564 1.523 . S
C1564 C1548 1.368 . S
C1564 C1560 1.368 . S
C1564 C1563 1.523 . S
H1565 C1540 0.950 . S
H1566 C1542 0.950 . S
H1567 C1543 0.949 . S
H1568 C1545 0.950 . S
H1569 C1547 0.950 . S
C1570 C1571 1.349 . S
C1570 C1572 1.327 . S
C1570 H1595 0.950 . S
C1571 C1570 1.349 . S
C1571 C1587 1.349 . S
C1572 C1570 1.327 . S
C1572 C1591 1.429 . S
C1572 H1596 0.950 . S
C1573 C1590 1.574 . S
C1573 C1592 1.368 . S
C1573 H1597 0.949 . S
H1574 C1578 0.949 . S
C1575 C1576 1.349 . S
C1575 C1577 1.327 . S
C1575 H1598 0.950 . S
C1576 C1575 1.349 . S
C1576 C1588 1.349 . S
C1577 C1575 1.327 . S
C1577 C1593 1.429 . S
C1577 H1599 0.950 . S
C1578 H1574 0.949 . S
C1578 C1586 1.574 . S
C1578 C1594 1.368 . S
H1579 C1587 0.950 . S
H1580 C1585 0.950 . S
H1581 C1586 0.949 . S
H1582 C1588 0.950 . S
H1583 C1589 0.950 . S
H1584 C1590 0.949 . S
C1585 H1580 0.950 . S
C1585 C1587 1.327 . S
C1585 C1591 1.429 . S
C1586 C1578 1.574 . S
C1586 H1581 0.949 . S
C1586 C1592 1.368 . S
C1587 C1571 1.349 . S
C1587 H1579 0.950 . S
C1587 C1585 1.327 . S
C1588 C1576 1.349 . S
C1588 H1582 0.950 . S
C1588 C1589 1.327 . S
C1589 H1583 0.950 . S
C1589 C1588 1.327 . S
C1589 C1593 1.429 . S
C1590 C1573 1.574 . S
C1590 H1584 0.949 . S
C1590 C1594 1.368 . S
C1591 C1572 1.429 . S
C1591 C1585 1.429 . S
C1591 C1592 1.523 . S
C1592 C1573 1.368 . S
C1592 C1586 1.368 . S
C1592 C1591 1.523 . S
C1593 C1577 1.429 . S
C1593 C1589 1.429 . S
C1593 C1594 1.523 . S
C1594 C1578 1.368 . S
C1594 C1590 1.368 . S
C1594 C1593 1.523 . S
H1595 C1570 0.950 . S
H1596 C1572 0.950 . S
H1597 C1573 0.949 . S
H1598 C1575 0.950 . S
H1599 C1577 0.950 . S
C1600 C1601 1.349 . S
C1600 C1602 1.327 . S
C1600 H1625 0.950 . S
C1601 C1600 1.349 . S
C1601 C1617 1.349 . S
C1602 C1600 1.327 . S
C1602 C1621 1.429 . S
C1602 H1626 0.950 . S
C1603 C1620 1.574 . S
C1603 C1622 1.368 . S
C1603 H1627 0.949 . S
H1604 C1608 0.949 . S
C1605 C1606 1.349 . S
C1605 C1607 1.327 . S
C1605 H1628 0.950 . S
C1606 C1605 1.349 . S
C1606 C1618 1.349 . S
C1607 C1605 1.327 . S
C1607 C1623 1.429 . S
C1607 H1629 0.950 . S
C1608 H1604 0.949 . S
C1608 C1616 1.574 . S
C1608 C1624 1.368 . S
H1609 C1617 0.950 . S
H1610 C1615 0.950 . S
H1611 C1616 0.949 . S
H1612 C1618 0.950 . S
H1613 C1619 0.950 . S
H1614 C1620 0.949 . S
C1615 H1610 0.950 . S
C1615 C1617 1.327 . S
C1615 C1621 1.429 . S
C1616 C1608 1.574 . S
C1616 H1611 0.949 . S
C1616 C1622 1.368 . S
C1617 C1601 1.349 . S
C1617 H1609 0.950 . S
C1617 C1615 1.327 . S
C1618 C1606 1.349 . S
C1618 H1612 0.950 . S
C1618 C1619 1.327 . S
C1619 H1613 0.950 . S
C1619 C1618 1.327 . S
C1619 C1623 1.429 . S
C1620 C1603 1.574 . S
C1620 H1614 0.949 . S
C1620 C1624 1.368 . S
C1621 C1602 1.429 . S
C1621 C1615 1.429 . S
C1621 C1622 1.523 . S
C1622 C1603 1.368 . S
C1622 C1616 1.368 . S
C1622 C1621 1.523 . S
C1623 C1607 1.429 . S
C1623 C1619 1.429 . S
C1623 C1624 1.523 . S
C1624 C1608 1.368 . S
C1624 C1620 1.368 . S
C1624 C1623 1.523 . S
H1625 C1600 0.950 . S
H1626 C1602 0.950 . S
H1627 C1603 0.949 . S
H1628 C1605 0.950 . S
H1629 C1607 0.950 . S
C1630 C1631 1.349 . S
C1630 C1632 1.327 . S
C1630 H1655 0.950 . S
C1631 C1630 1.349 . S
C1631 C1647 1.349 . S
C1632 C1630 1.327 . S
C1632 C1651 1.429 . S
C1632 H1656 0.950 . S
C1633 C1650 1.574 . S
C1633 C1652 1.368 . S
C1633 H1657 0.949 . S
H1634 C1638 0.949 . S
C1635 C1636 1.349 . S
C1635 C1637 1.327 . S
C1635 H1658 0.950 . S
C1636 C1635 1.349 . S
C1636 C1648 1.349 . S
C1637 C1635 1.327 . S
C1637 C1653 1.429 . S
C1637 H1659 0.950 . S
C1638 H1634 0.949 . S
C1638 C1646 1.574 . S
C1638 C1654 1.368 . S
H1639 C1647 0.950 . S
H1640 C1645 0.950 . S
H1641 C1646 0.949 . S
H1642 C1648 0.950 . S
H1643 C1649 0.950 . S
H1644 C1650 0.949 . S
C1645 H1640 0.950 . S
C1645 C1647 1.327 . S
C1645 C1651 1.429 . S
C1646 C1638 1.574 . S
C1646 H1641 0.949 . S
C1646 C1652 1.368 . S
C1647 C1631 1.349 . S
C1647 H1639 0.950 . S
C1647 C1645 1.327 . S
C1648 C1636 1.349 . S
C1648 H1642 0.950 . S
C1648 C1649 1.327 . S
C1649 H1643 0.950 . S
C1649 C1648 1.327 . S
C1649 C1653 1.429 . S
C1650 C1633 1.574 . S
C1650 H1644 0.949 . S
C1650 C1654 1.368 . S
C1651 C1632 1.429 . S
C1651 C1645 1.429 . S
C1651 C1652 1.523 . S
C1652 C1633 1.368 . S
C1652 C1646 1.368 . S
C1652 C1651 1.523 . S
C1653 C1637 1.429 . S
C1653 C1649 1.429 . S
C1653 C1654 1.523 . S
C1654 C1638 1.368 . S
C1654 C1650 1.368 . S
C1654 C1653 1.523 . S
H1655 C1630 0.950 . S
H1656 C1632 0.950 . S
H1657 C1633 0.949 . S
H1658 C1635 0.950 . S
H1659 C1637 0.950 . S
C1660 C1661 1.349 . S
C1660 C1662 1.327 . S
C1660 H1685 0.950 . S
C1661 C1660 1.349 . S
C1661 C1677 1.349 . S
C1662 C1660 1.327 . S
C1662 C1681 1.429 . S
C1662 H1686 0.950 . S
C1663 C1680 1.574 . S
C1663 C1682 1.368 . S
C1663 H1687 0.949 . S
H1664 C1668 0.949 . S
C1665 C1666 1.349 . S
C1665 C1667 1.327 . S
C1665 H1688 0.950 . S
C1666 C1665 1.349 . S
C1666 C1678 1.349 . S
C1667 C1665 1.327 . S
C1667 C1683 1.429 . S
C1667 H1689 0.950 . S
C1668 H1664 0.949 . S
C1668 C1676 1.574 . S
C1668 C1684 1.368 . S
H1669 C1677 0.950 . S
H1670 C1675 0.950 . S
H1671 C1676 0.949 . S
H1672 C1678 0.950 . S
H1673 C1679 0.950 . S
H1674 C1680 0.949 . S
C1675 H1670 0.950 . S
C1675 C1677 1.327 . S
C1675 C1681 1.429 . S
C1676 C1668 1.574 . S
C1676 H1671 0.949 . S
C1676 C1682 1.368 . S
C1677 C1661 1.349 . S
C1677 H1669 0.950 . S
C1677 C1675 1.327 . S
C1678 C1666 1.349 . S
C1678 H1672 0.950 . S
C1678 C1679 1.327 . S
C1679 H1673 0.950 . S
C1679 C1678 1.327 . S
C1679 C1683 1.429 . S
C1680 C1663 1.574 . S
C1680 H1674 0.949 . S
C1680 C1684 1.368 . S
C1681 C1662 1.429 . S
C1681 C1675 1.429 . S
C1681 C1682 1.523 . S
C1682 C1663 1.368 . S
C1682 C1676 1.368 . S
C1682 C1681 1.523 . S
C1683 C1667 1.429 . S
C1683 C1679 1.429 . S
C1683 C1684 1.523 . S
C1684 C1668 1.368 . S
C1684 C1680 1.368 . S
C1684 C1683 1.523 . S
H1685 C1660 0.950 . S
H1686 C1662 0.950 . S
H1687 C1663 0.949 . S
H1688 C1665 0.950 . S
H1689 C1667 0.950 . S
C1690 C1691 1.349 . S
C1690 C1692 1.327 . S
C1690 H1715 0.950 . S
C1691 C1690 1.349 . S
C1691 C1707 1.349 . S
C1692 C1690 1.327 . S
C1692 C1711 1.429 . S
C1692 H1716 0.950 . S
C1693 C1710 1.574 . S
C1693 C1712 1.368 . S
C1693 H1717 0.949 . S
H1694 C1698 0.949 . S
C1695 C1696 1.349 . S
C1695 C1697 1.327 . S
C1695 H1718 0.950 . S
C1696 C1695 1.349 . S
C1696 C1708 1.349 . S
C1697 C1695 1.327 . S
C1697 C1713 1.429 . S
C1697 H1719 0.950 . S
C1698 H1694 0.949 . S
C1698 C1706 1.574 . S
C1698 C1714 1.368 . S
H1699 C1707 0.950 . S
H1700 C1705 0.950 . S
H1701 C1706 0.949 . S
H1702 C1708 0.950 . S
H1703 C1709 0.950 . S
H1704 C1710 0.949 . S
C1705 H1700 0.950 . S
C1705 C1707 1.327 . S
C1705 C1711 1.429 . S
C1706 C1698 1.574 . S
C1706 H1701 0.949 . S
C1706 C1712 1.368 . S
C1707 C1691 1.349 . S
C1707 H1699 0.950 . S
C1707 C1705 1.327 . S
C1708 C1696 1.349 . S
C1708 H1702 0.950 . S
C1708 C1709 1.327 . S
C1709 H1703 0.950 . S
C1709 C1708 1.327 . S
C1709 C1713 1.429 . S
C1710 C1693 1.574 . S
C1710 H1704 0.949 . S
C1710 C1714 1.368 . S
C1711 C1692 1.429 . S
C1711 C1705 1.429 . S
C1711 C1712 1.523 . S
C1712 C1693 1.368 . S
C1712 C1706 1.368 . S
C1712 C1711 1.523 . S
C1713 C1697 1.429 . S
C1713 C1709 1.429 . S
C1713 C1714 1.523 . S
C1714 C1698 1.368 . S
C1714 C1710 1.368 . S
C1714 C1713 1.523 . S
H1715 C1690 0.950 . S
H1716 C1692 0.950 . S
H1717 C1693 0.949 . S
H1718 C1695 0.950 . S
H1719 C1697 0.950 . S
C1720 C1721 1.349 . S
C1720 C1722 1.327 . S
C1720 H1745 0.950 . S
C1721 C1720 1.349 . S
C1721 C1737 1.349 . S
C1722 C1720 1.327 . S
C1722 C1741 1.429 . S
C1722 H1746 0.950 . S
C1723 C1740 1.574 . S
C1723 C1742 1.368 . S
C1723 H1747 0.949 . S
H1724 C1728 0.949 . S
C1725 C1726 1.349 . S
C1725 C1727 1.327 . S
C1725 H1748 0.950 . S
C1726 C1725 1.349 . S
C1726 C1738 1.349 . S
C1727 C1725 1.327 . S
C1727 C1743 1.429 . S
C1727 H1749 0.950 . S
C1728 H1724 0.949 . S
C1728 C1736 1.574 . S
C1728 C1744 1.368 . S
H1729 C1737 0.950 . S
H1730 C1735 0.950 . S
H1731 C1736 0.949 . S
H1732 C1738 0.950 . S
H1733 C1739 0.950 . S
H1734 C1740 0.949 . S
C1735 H1730 0.950 . S
C1735 C1737 1.327 . S
C1735 C1741 1.429 . S
C1736 C1728 1.574 . S
C1736 H1731 0.949 . S
C1736 C1742 1.368 . S
C1737 C1721 1.349 . S
C1737 H1729 0.950 . S
C1737 C1735 1.327 . S
C1738 C1726 1.349 . S
C1738 H1732 0.950 . S
C1738 C1739 1.327 . S
C1739 H1733 0.950 . S
C1739 C1738 1.327 . S
C1739 C1743 1.429 . S
C1740 C1723 1.574 . S
C1740 H1734 0.949 . S
C1740 C1744 1.368 . S
C1741 C1722 1.429 . S
C1741 C1735 1.429 . S
C1741 C1742 1.523 . S
C1742 C1723 1.368 . S
C1742 C1736 1.368 . S
C1742 C1741 1.523 . S
C1743 C1727 1.429 . S
C1743 C1739 1.429 . S
C1743 C1744 1.523 . S
C1744 C1728 1.368 . S
C1744 C1740 1.368 . S
C1744 C1743 1.523 . S
H1745 C1720 0.950 . S
H1746 C1722 0.950 . S
H1747 C1723 0.949 . S
H1748 C1725 0.950 . S
H1749 C1727 0.950 . S
C1750 C1751 1.349 . S
C1750 C1752 1.327 . S
C1750 H1775 0.950 . S
C1751 C1750 1.349 . S
C1751 C1767 1.349 . S
C1752 C1750 1.327 . S
C1752 C1771 1.429 . S
C1752 H1776 0.950 . S
C1753 C1770 1.574 . S
C1753 C1772 1.368 . S
C1753 H1777 0.949 . S
H1754 C1758 0.949 . S
C1755 C1756 1.349 . S
C1755 C1757 1.327 . S
C1755 H1778 0.950 . S
C1756 C1755 1.349 . S
C1756 C1768 1.349 . S
C1757 C1755 1.327 . S
C1757 C1773 1.429 . S
C1757 H1779 0.950 . S
C1758 H1754 0.949 . S
C1758 C1766 1.574 . S
C1758 C1774 1.368 . S
H1759 C1767 0.950 . S
H1760 C1765 0.950 . S
H1761 C1766 0.949 . S
H1762 C1768 0.950 . S
H1763 C1769 0.950 . S
H1764 C1770 0.949 . S
C1765 H1760 0.950 . S
C1765 C1767 1.327 . S
C1765 C1771 1.429 . S
C1766 C1758 1.574 . S
C1766 H1761 0.949 . S
C1766 C1772 1.368 . S
C1767 C1751 1.349 . S
C1767 H1759 0.950 . S
C1767 C1765 1.327 . S
C1768 C1756 1.349 . S
C1768 H1762 0.950 . S
C1768 C1769 1.327 . S
C1769 H1763 0.950 . S
C1769 C1768 1.327 . S
C1769 C1773 1.429 . S
C1770 C1753 1.574 . S
C1770 H1764 0.949 . S
C1770 C1774 1.368 . S
C1771 C1752 1.429 . S
C1771 C1765 1.429 . S
C1771 C1772 1.523 . S
C1772 C1753 1.368 . S
C1772 C1766 1.368 . S
C1772 C1771 1.523 . S
C1773 C1757 1.429 . S
C1773 C1769 1.429 . S
C1773 C1774 1.523 . S
C1774 C1758 1.368 . S
C1774 C1770 1.368 . S
C1774 C1773 1.523 . S
H1775 C1750 0.950 . S
H1776 C1752 0.950 . S
H1777 C1753 0.949 . S
H1778 C1755 0.950 . S
H1779 C1757 0.950 . S
C1780 C1781 1.349 . S
C1780 C1782 1.327 . S
C1780 H1805 0.950 . S
C1781 C1780 1.349 . S
C1781 C1797 1.349 . S
C1782 C1780 1.327 . S
C1782 C1801 1.429 . S
C1782 H1806 0.950 . S
C1783 C1800 1.574 . S
C1783 C1802 1.368 . S
C1783 H1807 0.949 . S
H1784 C1788 0.949 . S
C1785 C1786 1.349 . S
C1785 C1787 1.327 . S
C1785 H1808 0.950 . S
C1786 C1785 1.349 . S
C1786 C1798 1.349 . S
C1787 C1785 1.327 . S
C1787 C1803 1.429 . S
C1787 H1809 0.950 . S
C1788 H1784 0.949 . S
C1788 C1796 1.574 . S
C1788 C1804 1.368 . S
H1789 C1797 0.950 . S
H1790 C1795 0.950 . S
H1791 C1796 0.949 . S
H1792 C1798 0.950 . S
H1793 C1799 0.950 . S
H1794 C1800 0.949 . S
C1795 H1790 0.950 . S
C1795 C1797 1.327 . S
C1795 C1801 1.429 . S
C1796 C1788 1.574 . S
C1796 H1791 0.949 . S
C1796 C1802 1.368 . S
C1797 C1781 1.349 . S
C1797 H1789 0.950 . S
C1797 C1795 1.327 . S
C1798 C1786 1.349 . S
C1798 H1792 0.950 . S
C1798 C1799 1.327 . S
C1799 H1793 0.950 . S
C1799 C1798 1.327 . S
C1799 C1803 1.429 . S
C1800 C1783 1.574 . S
C1800 H1794 0.949 . S
C1800 C1804 1.368 . S
C1801 C1782 1.429 . S
C1801 C1795 1.429 . S
C1801 C1802 1.523 . S
C1802 C1783 1.368 . S
C1802 C1796 1.368 . S
C1802 C1801 1.523 . S
C1803 C1787 1.429 . S
C1803 C1799 1.429 . S
C1803 C1804 1.523 . S
C1804 C1788 1.368 . S
C1804 C1800 1.368 . S
C1804 C1803 1.523 . S
H1805 C1780 0.950 . S
H1806 C1782 0.950 . S
H1807 C1783 0.949 . S
H1808 C1785 0.950 . S
H1809 C1787 0.950 . S
C1810 C1811 1.349 . S
C1810 C1812 1.327 . S
C1810 H1835 0.950 . S
C1811 C1810 1.349 . S
C1811 C1827 1.349 . S
C1812 C1810 1.327 . S
C1812 C1831 1.429 . S
C1812 H1836 0.950 . S
C1813 C1830 1.574 . S
C1813 C1832 1.368 . S
C1813 H1837 0.949 . S
H1814 C1818 0.949 . S
C1815 C1816 1.349 . S
C1815 C1817 1.327 . S
C1815 H1838 0.950 . S
C1816 C1815 1.349 . S
C1816 C1828 1.349 . S
C1817 C1815 1.327 . S
C1817 C1833 1.429 . S
C1817 H1839 0.950 . S
C1818 H1814 0.949 . S
C1818 C1826 1.574 . S
C1818 C1834 1.368 . S
H1819 C1827 0.950 . S
H1820 C1825 0.950 . S
H1821 C1826 0.949 . S
H1822 C1828 0.950 . S
H1823 C1829 0.950 . S
H1824 C1830 0.949 . S
C1825 H1820 0.950 . S
C1825 C1827 1.327 . S
C1825 C1831 1.429 . S
C1826 C1818 1.574 . S
C1826 H1821 0.949 . S
C1826 C1832 1.368 . S
C1827 C1811 1.349 . S
C1827 H1819 0.950 . S
C1827 C1825 1.327 . S
C1828 C1816 1.349 . S
C1828 H1822 0.950 . S
C1828 C1829 1.327 . S
C1829 H1823 0.950 . S
C1829 C1828 1.327 . S
C1829 C1833 1.429 . S
C1830 C1813 1.574 . S
C1830 H1824 0.949 . S
C1830 C1834 1.368 . S
C1831 C1812 1.429 . S
C1831 C1825 1.429 . S
C1831 C1832 1.523 . S
C1832 C1813 1.368 . S
C1832 C1826 1.368 . S
C1832 C1831 1.523 . S
C1833 C1817 1.429 . S
C1833 C1829 1.429 . S
C1833 C1834 1.523 . S
C1834 C1818 1.368 . S
C1834 C1830 1.368 . S
C1834 C1833 1.523 . S
H1835 C1810 0.950 . S
H1836 C1812 0.950 . S
H1837 C1813 0.949 . S
H1838 C1815 0.950 . S
H1839 C1817 0.950 . S
C1840 C1841 1.349 . S
C1840 C1842 1.327 . S
C1840 H1865 0.950 . S
C1841 C1840 1.349 . S
C1841 C1857 1.349 . S
C1842 C1840 1.327 . S
C1842 C1861 1.429 . S
C1842 H1866 0.950 . S
C1843 C1860 1.574 . S
C1843 C1862 1.368 . S
C1843 H1867 0.949 . S
H1844 C1848 0.949 . S
C1845 C1846 1.349 . S
C1845 C1847 1.327 . S
C1845 H1868 0.950 . S
C1846 C1845 1.349 . S
C1846 C1858 1.349 . S
C1847 C1845 1.327 . S
C1847 C1863 1.429 . S
C1847 H1869 0.950 . S
C1848 H1844 0.949 . S
C1848 C1856 1.574 . S
C1848 C1864 1.368 . S
H1849 C1857 0.950 . S
H1850 C1855 0.950 . S
H1851 C1856 0.949 . S
H1852 C1858 0.950 . S
H1853 C1859 0.950 . S
H1854 C1860 0.949 . S
C1855 H1850 0.950 . S
C1855 C1857 1.327 . S
C1855 C1861 1.429 . S
C1856 C1848 1.574 . S
C1856 H1851 0.949 . S
C1856 C1862 1.368 . S
C1857 C1841 1.349 . S
C1857 H1849 0.950 . S
C1857 C1855 1.327 . S
C1858 C1846 1.349 . S
C1858 H1852 0.950 . S
C1858 C1859 1.327 . S
C1859 H1853 0.950 . S
C1859 C1858 1.327 . S
C1859 C1863 1.429 . S
C1860 C1843 1.574 . S
C1860 H1854 0.949 . S
C1860 C1864 1.368 . S
C1861 C1842 1.429 . S
C1861 C1855 1.429 . S
C1861 C1862 1.523 . S
C1862 C1843 1.368 . S
C1862 C1856 1.368 . S
C1862 C1861 1.523 . S
C1863 C1847 1.429 . S
C1863 C1859 1.429 . S
C1863 C1864 1.523 . S
C1864 C1848 1.368 . S
C1864 C1860 1.368 . S
C1864 C1863 1.523 . S
H1865 C1840 0.950 . S
H1866 C1842 0.950 . S
H1867 C1843 0.949 . S
H1868 C1845 0.950 . S
H1869 C1847 0.950 . S
C1870 C1871 1.349 . S
C1870 C1872 1.327 . S
C1870 H1895 0.950 . S
C1871 C1870 1.349 . S
C1871 C1887 1.349 . S
C1872 C1870 1.327 . S
C1872 C1891 1.429 . S
C1872 H1896 0.950 . S
C1873 C1890 1.574 . S
C1873 C1892 1.368 . S
C1873 H1897 0.949 . S
H1874 C1878 0.949 . S
C1875 C1876 1.349 . S
C1875 C1877 1.327 . S
C1875 H1898 0.950 . S
C1876 C1875 1.349 . S
C1876 C1888 1.349 . S
C1877 C1875 1.327 . S
C1877 C1893 1.429 . S
C1877 H1899 0.950 . S
C1878 H1874 0.949 . S
C1878 C1886 1.574 . S
C1878 C1894 1.368 . S
H1879 C1887 0.950 . S
H1880 C1885 0.950 . S
H1881 C1886 0.949 . S
H1882 C1888 0.950 . S
H1883 C1889 0.950 . S
H1884 C1890 0.949 . S
C1885 H1880 0.950 . S
C1885 C1887 1.327 . S
C1885 C1891 1.429 . S
C1886 C1878 1.574 . S
C1886 H1881 0.949 . S
C1886 C1892 1.368 . S
C1887 C1871 1.349 . S
C1887 H1879 0.950 . S
C1887 C1885 1.327 . S
C1888 C1876 1.349 . S
C1888 H1882 0.950 . S
C1888 C1889 1.327 . S
C1889 H1883 0.950 . S
C1889 C1888 1.327 . S
C1889 C1893 1.429 . S
C1890 C1873 1.574 . S
C1890 H1884 0.949 . S
C1890 C1894 1.368 . S
C1891 C1872 1.429 . S
C1891 C1885 1.429 . S
C1891 C1892 1.523 . S
C1892 C1873 1.368 . S
C1892 C1886 1.368 . S
C1892 C1891 1.523 . S
C1893 C1877 1.429 . S
C1893 C1889 1.429 . S
C1893 C1894 1.523 . S
C1894 C1878 1.368 . S
C1894 C1890 1.368 . S
C1894 C1893 1.523 . S
H1895 C1870 0.950 . S
H1896 C1872 0.950 . S
H1897 C1873 0.949 . S
H1898 C1875 0.950 . S
H1899 C1877 0.950 . S
C1900 C1901 1.349 . S
C1900 C1902 1.327 . S
C1900 H1925 0.950 . S
C1901 C1900 1.349 . S
C1901 C1917 1.349 . S
C1902 C1900 1.327 . S
C1902 C1921 1.429 . S
C1902 H1926 0.950 . S
C1903 C1920 1.574 . S
C1903 C1922 1.368 . S
C1903 H1927 0.949 . S
H1904 C1908 0.949 . S
C1905 C1906 1.349 . S
C1905 C1907 1.327 . S
C1905 H1928 0.950 . S
C1906 C1905 1.349 . S
C1906 C1918 1.349 . S
C1907 C1905 1.327 . S
C1907 C1923 1.429 . S
C1907 H1929 0.950 . S
C1908 H1904 0.949 . S
C1908 C1916 1.574 . S
C1908 C1924 1.368 . S
H1909 C1917 0.950 . S
H1910 C1915 0.950 . S
H1911 C1916 0.949 . S
H1912 C1918 0.950 . S
H1913 C1919 0.950 . S
H1914 C1920 0.949 . S
C1915 H1910 0.950 . S
C1915 C1917 1.327 . S
C1915 C1921 1.429 . S
C1916 C1908 1.574 . S
C1916 H1911 0.949 . S
C1916 C1922 1.368 . S
C1917 C1901 1.349 . S
C1917 H1909 0.950 . S
C1917 C1915 1.327 . S
C1918 C1906 1.349 . S
C1918 H1912 0.950 . S
C1918 C1919 1.327 . S
C1919 H1913 0.950 . S
C1919 C1918 1.327 . S
C1919 C1923 1.429 . S
C1920 C1903 1.574 . S
C1920 H1914 0.949 . S
C1920 C1924 1.368 . S
C1921 C1902 1.429 . S
C1921 C1915 1.429 . S
C1921 C1922 1.523 . S
C1922 C1903 1.368 . S
C1922 C1916 1.368 . S
C1922 C1921 1.523 . S
C1923 C1907 1.429 . S
C1923 C1919 1.429 . S
C1923 C1924 1.523 . S
C1924 C1908 1.368 . S
C1924 C1920 1.368 . S
C1924 C1923 1.523 . S
H1925 C1900 0.950 . S
H1926 C1902 0.950 . S
H1927 C1903 0.949 . S
H1928 C1905 0.950 . S
H1929 C1907 0.950 . S
C1930 C1931 1.349 . S
C1930 C1932 1.327 . S
C1930 H1955 0.950 . S
C1931 C1930 1.349 . S
C1931 C1947 1.349 . S
C1932 C1930 1.327 . S
C1932 C1951 1.429 . S
C1932 H1956 0.950 . S
C1933 C1950 1.574 . S
C1933 C1952 1.368 . S
C1933 H1957 0.949 . S
H1934 C1938 0.949 . S
C1935 C1936 1.349 . S
C1935 C1937 1.327 . S
C1935 H1958 0.950 . S
C1936 C1935 1.349 . S
C1936 C1948 1.349 . S
C1937 C1935 1.327 . S
C1937 C1953 1.429 . S
C1937 H1959 0.950 . S
C1938 H1934 0.949 . S
C1938 C1946 1.574 . S
C1938 C1954 1.368 . S
H1939 C1947 0.950 . S
H1940 C1945 0.950 . S
H1941 C1946 0.949 . S
H1942 C1948 0.950 . S
H1943 C1949 0.950 . S
H1944 C1950 0.949 . S
C1945 H1940 0.950 . S
C1945 C1947 1.327 . S
C1945 C1951 1.429 . S
C1946 C1938 1.574 . S
C1946 H1941 0.949 . S
C1946 C1952 1.368 . S
C1947 C1931 1.349 . S
C1947 H1939 0.950 . S
C1947 C1945 1.327 . S
C1948 C1936 1.349 . S
C1948 H1942 0.950 . S
C1948 C1949 1.327 . S
C1949 H1943 0.950 . S
C1949 C1948 1.327 . S
C1949 C1953 1.429 . S
C1950 C1933 1.574 . S
C1950 H1944 0.949 . S
C1950 C1954 1.368 . S
C1951 C1932 1.429 . S
C1951 C1945 1.429 . S
C1951 C1952 1.523 . S
C1952 C1933 1.368 . S
C1952 C1946 1.368 . S
C1952 C1951 1.523 . S
C1953 C1937 1.429 . S
C1953 C1949 1.429 . S
C1953 C1954 1.523 . S
C1954 C1938 1.368 . S
C1954 C1950 1.368 . S
C1954 C1953 1.523 . S
H1955 C1930 0.950 . S
H1956 C1932 0.950 . S
H1957 C1933 0.949 . S
H1958 C1935 0.950 . S
H1959 C1937 0.950 . S
C1960 C1961 1.349 . S
C1960 C1962 1.327 . S
C1960 H1985 0.950 . S
C1961 C1960 1.349 . S
C1961 C1977 1.349 . S
C1962 C1960 1.327 . S
C1962 C1981 1.429 . S
C1962 H1986 0.950 . S
C1963 C1980 1.574 . S
C1963 C1982 1.368 . S
C1963 H1987 0.949 . S
H1964 C1968 0.949 . S
C1965 C1966 1.349 . S
C1965 C1967 1.327 . S
C1965 H1988 0.950 . S
C1966 C1965 1.349 . S
C1966 C1978 1.349 . S
C1967 C1965 1.327 . S
C1967 C1983 1.429 . S
C1967 H1989 0.950 . S
C1968 H1964 0.949 . S
C1968 C1976 1.574 . S
C1968 C1984 1.368 . S
H1969 C1977 0.950 . S
H1970 C1975 0.950 . S
H1971 C1976 0.949 . S
H1972 C1978 0.950 . S
H1973 C1979 0.950 . S
H1974 C1980 0.949 . S
C1975 H1970 0.950 . S
C1975 C1977 1.327 . S
C1975 C1981 1.429 . S
C1976 C1968 1.574 . S
C1976 H1971 0.949 . S
C1976 C1982 1.368 . S
C1977 C1961 1.349 . S
C1977 H1969 0.950 . S
C1977 C1975 1.327 . S
C1978 C1966 1.349 . S
C1978 H1972 0.950 . S
C1978 C1979 1.327 . S
C1979 H1973 0.950 . S
C1979 C1978 1.327 . S
C1979 C1983 1.429 . S
C1980 C1963 1.574 . S
C1980 H1974 0.949 . S
C1980 C1984 1.368 . S
C1981 C1962 1.429 . S
C1981 C1975 1.429 . S
C1981 C1982 1.523 . S
C1982 C1963 1.368 . S
C1982 C1976 1.368 . S
C1982 C1981 1.523 . S
C1983 C1967 1.429 . S
C1983 C1979 1.429 . S
C1983 C1984 1.523 . S
C1984 C1968 1.368 . S
C1984 C1980 1.368 . S
C1984 C1983 1.523 . S
H1985 C1960 0.950 . S
H1986 C1962 0.950 . S
H1987 C1963 0.949 . S
H1988 C1965 0.950 . S
H1989 C1967 0.950 . S
C1990 C1991 1.349 . S
C1990 C1992 1.327 . S
C1990 H2015 0.950 . S
C1991 C1990 1.349 . S
C1991 C2007 1.349 . S
C1992 C1990 1.327 . S
C1992 C2011 1.429 . S
C1992 H2016 0.950 . S
C1993 C2010 1.574 . S
C1993 C2012 1.368 . S
C1993 H2017 0.949 . S
H1994 C1998 0.949 . S
C1995 C1996 1.349 . S
C1995 C1997 1.327 . S
C1995 H2018 0.950 . S
C1996 C1995 1.349 . S
C1996 C2008 1.349 . S
C1997 C1995 1.327 . S
C1997 C2013 1.429 . S
C1997 H2019 0.950 . S
C1998 H1994 0.949 . S
C1998 C2006 1.574 . S
C1998 C2014 1.368 . S
H1999 C2007 0.950 . S
H2000 C2005 0.950 . S
H2001 C2006 0.949 . S
H2002 C2008 0.950 . S
H2003 C2009 0.950 . S
H2004 C2010 0.949 . S
C2005 H2000 0.950 . S
C2005 C2007 1.327 . S
C2005 C2011 1.429 . S
C2006 C1998 1.574 . S
C2006 H2001 0.949 . S
C2006 C2012 1.368 . S
C2007 C1991 1.349 . S
C2007 H1999 0.950 . S
C2007 C2005 1.327 . S
C2008 C1996 1.349 . S
C2008 H2002 0.950 . S
C2008 C2009 1.327 . S
C2009 H2003 0.950 . S
C2009 C2008 1.327 . S
C2009 C2013 1.429 . S
C2010 C1993 1.574 . S
C2010 H2004 0.949 . S
C2010 C2014 1.368 . S
C2011 C1992 1.429 . S
C2011 C2005 1.429 . S
C2011 C2012 1.523 . S
C2012 C1993 1.368 . S
C2012 C2006 1.368 . S
C2012 C2011 1.523 . S
C2013 C1997 1.429 . S
C2013 C2009 1.429 . S
C2013 C2014 1.523 . S
C2014 C1998 1.368 . S
C2014 C2010 1.368 . S
C2014 C2013 1.523 . S
H2015 C1990 0.950 . S
H2016 C1992 0.950 . S
H2017 C1993 0.949 . S
H2018 C1995 0.950 . S
H2019 C1997 0.950 . S
C2020 C2021 1.349 . S
C2020 C2022 1.327 . S
C2020 H2045 0.950 . S
C2021 C2020 1.349 . S
C2021 C2037 1.349 . S
C2022 C2020 1.327 . S
C2022 C2041 1.429 . S
C2022 H2046 0.950 . S
C2023 C2040 1.574 . S
C2023 C2042 1.368 . S
C2023 H2047 0.949 . S
H2024 C2028 0.949 . S
C2025 C2026 1.349 . S
C2025 C2027 1.327 . S
C2025 H2048 0.950 . S
C2026 C2025 1.349 . S
C2026 C2038 1.349 . S
C2027 C2025 1.327 . S
C2027 C2043 1.429 . S
C2027 H2049 0.950 . S
C2028 H2024 0.949 . S
C2028 C2036 1.574 . S
C2028 C2044 1.368 . S
H2029 C2037 0.950 . S
H2030 C2035 0.950 . S
H2031 C2036 0.949 . S
H2032 C2038 0.950 . S
H2033 C2039 0.950 . S
H2034 C2040 0.949 . S
C2035 H2030 0.950 . S
C2035 C2037 1.327 . S
C2035 C2041 1.429 . S
C2036 C2028 1.574 . S
C2036 H2031 0.949 . S
C2036 C2042 1.368 . S
C2037 C2021 1.349 . S
C2037 H2029 0.950 . S
C2037 C2035 1.327 . S
C2038 C2026 1.349 . S
C2038 H2032 0.950 . S
C2038 C2039 1.327 . S
C2039 H2033 0.950 . S
C2039 C2038 1.327 . S
C2039 C2043 1.429 . S
C2040 C2023 1.574 . S
C2040 H2034 0.949 . S
C2040 C2044 1.368 . S
C2041 C2022 1.429 . S
C2041 C2035 1.429 . S
C2041 C2042 1.523 . S
C2042 C2023 1.368 . S
C2042 C2036 1.368 . S
C2042 C2041 1.523 . S
C2043 C2027 1.429 . S
C2043 C2039 1.429 . S
C2043 C2044 1.523 . S
C2044 C2028 1.368 . S
C2044 C2040 1.368 . S
C2044 C2043 1.523 . S
H2045 C2020 0.950 . S
H2046 C2022 0.950 . S
H2047 C2023 0.949 . S
H2048 C2025 0.950 . S
H2049 C2027 0.950 . S
C2050 C2051 1.349 . S
C2050 C2052 1.327 . S
C2050 H2075 0.950 . S
C2051 C2050 1.349 . S
C2051 C2067 1.349 . S
C2052 C2050 1.327 . S
C2052 C2071 1.429 . S
C2052 H2076 0.950 . S
C2053 C2070 1.574 . S
C2053 C2072 1.368 . S
C2053 H2077 0.949 . S
H2054 C2058 0.949 . S
C2055 C2056 1.349 . S
C2055 C2057 1.327 . S
C2055 H2078 0.950 . S
C2056 C2055 1.349 . S
C2056 C2068 1.349 . S
C2057 C2055 1.327 . S
C2057 C2073 1.429 . S
C2057 H2079 0.950 . S
C2058 H2054 0.949 . S
C2058 C2066 1.574 . S
C2058 C2074 1.368 . S
H2059 C2067 0.950 . S
H2060 C2065 0.950 . S
H2061 C2066 0.949 . S
H2062 C2068 0.950 . S
H2063 C2069 0.950 . S
H2064 C2070 0.949 . S
C2065 H2060 0.950 . S
C2065 C2067 1.327 . S
C2065 C2071 1.429 . S
C2066 C2058 1.574 . S
C2066 H2061 0.949 . S
C2066 C2072 1.368 . S
C2067 C2051 1.349 . S
C2067 H2059 0.950 . S
C2067 C2065 1.327 . S
C2068 C2056 1.349 . S
C2068 H2062 0.950 . S
C2068 C2069 1.327 . S
C2069 H2063 0.950 . S
C2069 C2068 1.327 . S
C2069 C2073 1.429 . S
C2070 C2053 1.574 . S
C2070 H2064 0.949 . S
C2070 C2074 1.368 . S
C2071 C2052 1.429 . S
C2071 C2065 1.429 . S
C2071 C2072 1.523 . S
C2072 C2053 1.368 . S
C2072 C2066 1.368 . S
C2072 C2071 1.523 . S
C2073 C2057 1.429 . S
C2073 C2069 1.429 . S
C2073 C2074 1.523 . S
C2074 C2058 1.368 . S
C2074 C2070 1.368 . S
C2074 C2073 1.523 . S
H2075 C2050 0.950 . S
H2076 C2052 0.950 . S
H2077 C2053 0.949 . S
H2078 C2055 0.950 . S
H2079 C2057 0.950 . S
C641 C135 1.939 . S
C646 C18 1.852 . S
C671 C6 2.605 . S
C676 C59 2.704 . S
C701 C89 0.597 . S
C706 C58 0.606 . S
C731 C130 2.669 . S
C736 C90 2.678 . S
C761 C170 2.444 . S
C766 C206 2.399 . S
C791 C218 0.583 . S
C796 C258 0.586 . S
C821 C259 2.713 . S
C826 C290 2.730 . S
C851 C175 1.933 . S
C856 C289 1.856 . S
C881 C379 2.712 . S
C886 C19 2.730 . S
C911 C406 0.872 . S
C916 C46 0.849 . S
C941 C95 0.401 . S
C946 C535 0.557 . S
C971 C329 0.628 . S
C976 C129 0.621 . S
C1001 C449 0.621 . S
C1006 C169 0.628 . S
C1031 C579 2.729 . S
C1036 C219 2.712 . S
C1061 C246 0.872 . S
C1066 C486 0.849 . S
C1091 C615 0.401 . S
C1096 C295 0.557 . S
C1121 C335 1.933 . S
C1126 C529 1.859 . S
C1151 C366 2.398 . S
C1156 C330 2.444 . S
C1181 C418 0.587 . S
C1186 C378 0.583 . S
C1211 C578 1.855 . S
C1216 C455 1.939 . S
C1241 C498 0.607 . S
C1246 C609 0.597 . S
C1271 C446 1.939 . S
C1276 C9 1.857 . S
C1301 C490 2.703 . S
C1306 C15 2.604 . S
C1331 C489 0.606 . S
C1336 C98 0.595 . S
C1361 C99 2.679 . S
C1366 C459 2.670 . S
C1391 C375 2.398 . S
C1396 C179 2.443 . S
C1421 C369 0.583 . S
C1426 C249 0.587 . S
C1451 C539 2.731 . S
C1456 C250 2.713 . S
C1481 C166 1.933 . S
C1486 C538 1.861 . S
C1511 C210 2.712 . S
C1516 C10 2.729 . S
C1541 C415 0.872 . S
C1546 C495 0.847 . S
C1571 C86 0.401 . S
C1576 C286 0.558 . S
C1601 C338 0.628 . S
C1606 C458 0.622 . S
C1631 C138 0.622 . S
C1636 C178 0.629 . S
C1661 C370 2.712 . S
C1666 C570 2.729 . S
C1691 C255 0.872 . S
C1696 C55 0.848 . S
C1721 C606 0.401 . S
C1726 C526 0.559 . S
C1751 C326 1.933 . S
C1756 C298 1.858 . S
C1781 C339 2.444 . S
C1786 C215 2.398 . S
C1811 C409 0.587 . S
C1816 C209 0.582 . S
C1841 C126 1.939 . S
C1846 C569 1.855 . S
C1871 C49 0.606 . S
C1876 C618 0.596 . S
C1901 C499 2.703 . S
C1906 C566 2.605 . S
C1931 C450 2.669 . S
C1936 C610 2.680 . S
C1961 C419 2.713 . S
C1966 C530 2.733 . S
C1991 C575 2.605 . S
C1996 C50 2.703 . S
C2021 C139 2.669 . S
C2026 C619 2.678 . S
C2051 C299 2.731 . S
C2056 C410 2.711 . S
