# Generated by pormake.
# Topology rob, (6)-cn, num edge types: 1
# Building blocks:
#     Node 0, Type 0, BuildingBlock: BETGAK_clean_sbu_0, # of connection points: 6
#     Node 1, Type 0, BuildingBlock: BETGAK_clean_sbu_0, # of connection points: 6
#     Node 2, Type 0, BuildingBlock: BETGAK_clean_sbu_0, # of connection points: 6
#     Node 3, Type 0, BuildingBlock: BETGAK_clean_sbu_0, # of connection points: 6
#     Edge 4, Type (0, 0), BuildingBlock: XIVTED_clean_linker_0, # of connection points: 2
#     Edge 5, Type (0, 0), BuildingBlock: XIVTED_clean_linker_0, # of connection points: 2
#     Edge 6, Type (0, 0), BuildingBlock: XIVTED_clean_linker_0, # of connection points: 2
#     Edge 7, Type (0, 0), BuildingBlock: XIVTED_clean_linker_0, # of connection points: 2
#     Edge 8, Type (0, 0), BuildingBlock: XIVTED_clean_linker_0, # of connection points: 2
#     Edge 9, Type (0, 0), BuildingBlock: XIVTED_clean_linker_0, # of connection points: 2
#     Edge 10, Type (0, 0), BuildingBlock: XIVTED_clean_linker_0, # of connection points: 2
#     Edge 11, Type (0, 0), BuildingBlock: XIVTED_clean_linker_0, # of connection points: 2
#     Edge 12, Type (0, 0), BuildingBlock: XIVTED_clean_linker_0, # of connection points: 2
#     Edge 13, Type (0, 0), BuildingBlock: XIVTED_clean_linker_0, # of connection points: 2
#     Edge 14, Type (0, 0), BuildingBlock: XIVTED_clean_linker_0, # of connection points: 2
#     Edge 15, Type (0, 0), BuildingBlock: XIVTED_clean_linker_0, # of connection points: 2
# Relax obj value: 0.163
# Max RMSD: 0.200
# Mean RMSD: 0.200
data_MOF--net-rob--node1-BETGAK_clean_sbu_0--edge1-XIVTED_clean_linker_0
_symmetry_space_group_name_H-M    P1
_symmetry_Int_Tables_number       1
_symmetry_cell_setting            triclinic
loop_
_symmetry_equiv_pos_as_xyz
'x, y, z'
_cell_length_a     16.643912
_cell_length_b     23.171769
_cell_length_c     37.153377
_cell_angle_alpha  90.066231
_cell_angle_beta   124.21062
_cell_angle_gamma 90.131027
loop_
_atom_site_label
_atom_site_type_symbol
_atom_site_fract_x
_atom_site_fract_y
_atom_site_fract_z
_atom_type_partial_charge
La0 La 0.17631 0.30368 0.99549 0.0
La1 La 0.35799 0.25729 0.00572 0.0
C2 C 0.0384 0.31997 0.00417 0.0
C3 C 0.02891 0.31614 0.04139 0.0
C4 C 0.99476 0.36395 0.05214 0.0
C5 C 0.99026 0.36266 0.08862 0.0
C6 C 0.01932 0.31327 0.11514 0.0
C7 C 0.05239 0.26508 0.10391 0.0
C8 C 0.05738 0.26652 0.06754 0.0
C9 C 0.2911 0.3817 0.99551 0.0
C10 C 0.36579 0.27245 0.08986 0.0
C11 C 0.49567 0.24125 0.99679 0.0
C12 C 0.50495 0.24502 0.95948 0.0
C13 C 0.54085 0.1976 0.94923 0.0
C14 C 0.54567 0.19888 0.91282 0.0
C15 C 0.51509 0.24786 0.88582 0.0
C16 C 0.48009 0.29564 0.89651 0.0
C17 C 0.47485 0.29421 0.93283 0.0
C18 C 0.2432 0.17933 0.00578 0.0
C19 C 0.16773 0.28813 0.91132 0.0
O20 O 0.09489 0.36128 0.00652 0.0
O21 O 0.05156 0.27161 0.98986 0.0
O22 O 0.19715 0.38566 0.97257 0.0
O23 O 0.31742 0.33729 0.01899 0.0
O24 O 0.2703 0.27877 0.06412 0.0
O25 O 0.42045 0.27 0.07438 0.0
O26 O 0.43962 0.19983 0.99467 0.0
O27 O 0.48228 0.28962 0.01102 0.0
O28 O 0.33716 0.17528 0.02864 0.0
O29 O 0.2171 0.2237 0.98227 0.0
O30 O 0.26329 0.28186 0.93693 0.0
O31 O 0.11345 0.29068 0.92695 0.0
H32 H 0.97302 0.40282 0.03267 0.0
H33 H 0.96593 0.40097 0.09649 0.0
H34 H 0.07414 0.226 0.1231 0.0
H35 H 0.08456 0.22898 0.06025 0.0
H36 H 0.56388 0.15904 0.96908 0.0
H37 H 0.57153 0.16087 0.90538 0.0
H38 H 0.45712 0.33442 0.87696 0.0
H39 H 0.4463 0.33144 0.93972 0.0
La40 La 0.67766 0.80359 0.99598 0.0
La41 La 0.85861 0.75661 0.00585 0.0
C42 C 0.53965 0.82011 0.00457 0.0
C43 C 0.52968 0.81592 0.04161 0.0
C44 C 0.48943 0.86214 0.05068 0.0
C45 C 0.48441 0.86069 0.08702 0.0
C46 C 0.51931 0.81276 0.1151 0.0
C47 C 0.55853 0.76611 0.10555 0.0
C48 C 0.56387 0.7677 0.06928 0.0
C49 C 0.79197 0.88124 0.99528 0.0
C50 C 0.86813 0.77295 0.09027 0.0
C51 C 0.99617 0.73965 0.99702 0.0
C52 C 1.00587 0.74365 0.95987 0.0
C53 C 0.04215 0.69638 0.94969 0.0
C54 C 0.04708 0.69782 0.91332 0.0
C55 C 1.01623 0.74681 0.88634 0.0
C56 C 0.98094 0.79447 0.89699 0.0
C57 C 0.97556 0.79287 0.93326 0.0
C58 C 0.74384 0.67916 0.00652 0.0
C59 C 0.66849 0.78764 0.91161 0.0
O60 O 0.59688 0.86124 0.00738 0.0
O61 O 0.55248 0.77181 0.99008 0.0
O62 O 0.69804 0.88531 0.97263 0.0
O63 O 0.81856 0.83698 0.01893 0.0
O64 O 0.77256 0.7793 0.0648 0.0
O65 O 0.92201 0.77 0.07445 0.0
O66 O 0.93886 0.69866 0.99434 0.0
O67 O 0.98385 0.78802 0.01162 0.0
O68 O 0.83777 0.675 0.02928 0.0
O69 O 0.71779 0.72334 0.98284 0.0
O70 O 0.76402 0.78123 0.93711 0.0
O71 O 0.61449 0.79045 0.92738 0.0
H72 H 0.46327 0.89995 0.03 0.0
H73 H 0.45513 0.89781 0.0936 0.0
H74 H 0.58494 0.72815 0.12601 0.0
H75 H 0.59583 0.73146 0.06325 0.0
H76 H 0.0653 0.65781 0.96953 0.0
H77 H 0.07316 0.65991 0.90589 0.0
H78 H 0.95777 0.83325 0.87743 0.0
H79 H 0.94669 0.82996 0.94012 0.0
La80 La 0.35951 0.80445 0.50617 0.0
La81 La 0.17863 0.75691 0.49601 0.0
C82 C 0.49667 0.82056 0.49684 0.0
C83 C 0.5042 0.81861 0.45885 0.0
C84 C 0.49284 0.86923 0.43558 0.0
C85 C 0.49601 0.86737 0.39876 0.0
C86 C 0.51167 0.81496 0.38454 0.0
C87 C 0.52517 0.76452 0.40833 0.0
C88 C 0.52143 0.76629 0.44503 0.0
C89 C 0.2451 0.88192 0.5067 0.0
C90 C 0.16874 0.77389 0.41159 0.0
C91 C 0.04172 0.73999 0.50538 0.0
C92 C 0.03363 0.7426 0.54318 0.0
C93 C 0.03339 0.69136 0.56335 0.0
C94 C 0.03002 0.69312 0.60012 0.0
C95 C 0.02561 0.74616 0.61733 0.0
C96 C 0.02368 0.79742 0.59663 0.0
C97 C 0.02788 0.79571 0.56004 0.0
C98 C 0.29354 0.67971 0.49547 0.0
C99 C 0.36896 0.78795 0.59047 0.0
O100 O 0.4443 0.86226 0.49729 0.0
O101 O 0.48092 0.7715 0.50939 0.0
O102 O 0.33908 0.88624 0.52944 0.0
O103 O 0.21851 0.8375 0.48298 0.0
O104 O 0.26417 0.78113 0.43708 0.0
O105 O 0.1149 0.77011 0.42741 0.0
O106 O 0.09604 0.69872 0.506 0.0
O107 O 0.05561 0.78883 0.49187 0.0
O108 O 0.19957 0.67532 0.47255 0.0
O109 O 0.31954 0.72401 0.51924 0.0
O110 O 0.27346 0.78118 0.56491 0.0
O111 O 0.42298 0.7911 0.57472 0.0
H112 H 0.48076 0.91038 0.44562 0.0
H113 H 0.48698 0.90716 0.38161 0.0
H114 H 0.53677 0.7234 0.39808 0.0
H115 H 0.53107 0.7265 0.46229 0.0
H116 H 0.03668 0.64976 0.5509 0.0
H117 H 0.03013 0.65284 0.61491 0.0
H118 H 0.02095 0.83898 0.60928 0.0
H119 H 0.02763 0.83608 0.54531 0.0
La120 La 0.86101 0.30548 0.50627 0.0
La121 La 0.67967 0.25784 0.4957 0.0
C122 C 0.99815 0.32241 0.49709 0.0
C123 C 1.0063 0.31921 0.45934 0.0
C124 C 1.01109 0.37027 0.44024 0.0
C125 C 1.01396 0.36824 0.40334 0.0
C126 C 1.01332 0.31504 0.38496 0.0
C127 C 1.0107 0.26386 0.40459 0.0
C128 C 1.00692 0.26588 0.44129 0.0
C129 C 0.74591 0.38277 0.50648 0.0
C130 C 0.67173 0.2739 0.41167 0.0
C131 C 0.5426 0.24139 0.50507 0.0
C132 C 0.53473 0.24384 0.54297 0.0
C133 C 0.53606 0.19261 0.56355 0.0
C134 C 0.53258 0.19431 0.6003 0.0
C135 C 0.5265 0.24728 0.61712 0.0
C136 C 0.52309 0.29851 0.59604 0.0
C137 C 0.52736 0.29685 0.55945 0.0
C138 C 0.79472 0.18056 0.49541 0.0
C139 C 0.86994 0.28879 0.59038 0.0
O140 O 0.94312 0.36362 0.49594 0.0
O141 O 0.98489 0.2738 0.51108 0.0
O142 O 0.83989 0.3871 0.52951 0.0
O143 O 0.71973 0.33838 0.48276 0.0
O144 O 0.76714 0.2808 0.43749 0.0
O145 O 0.617 0.27076 0.42709 0.0
O146 O 0.59616 0.19989 0.50532 0.0
O147 O 0.55716 0.29024 0.49181 0.0
O148 O 0.70074 0.17611 0.47252 0.0
O149 O 0.82073 0.22493 0.51914 0.0
O150 O 0.77451 0.28169 0.56472 0.0
O151 O 0.9242 0.29235 0.57478 0.0
H152 H 1.01159 0.41197 0.45359 0.0
H153 H 1.01733 0.4084 0.38934 0.0
H154 H 1.00945 0.22222 0.39101 0.0
H155 H 1.00333 0.22562 0.45512 0.0
H156 H 0.54058 0.15105 0.55142 0.0
H157 H 0.53382 0.15403 0.61536 0.0
H158 H 0.51907 0.34003 0.60835 0.0
H159 H 0.52582 0.33722 0.5444 0.0
H160 H 0.79175 0.58744 0.06072 0.0
H161 H 0.243 0.47376 0.94156 0.0
H162 H 0.5462 0.6716 0.94991 0.0
H163 H 0.48873 0.38929 0.05209 0.0
H164 H 0.35265 0.5468 0.94414 0.0
H165 H 0.68205 0.51454 0.05823 0.0
C166 C 0.71459 0.5906 0.03593 0.0
C167 C 0.67777 0.6357 0.00563 0.0
C168 C 0.38276 0.51224 0.96778 0.0
C169 C 0.55172 0.55247 0.00245 0.0
C170 C 0.32018 0.47057 0.96632 0.0
C171 C 0.35707 0.42534 0.9965 0.0
C172 C 0.48304 0.50871 0.99978 0.0
C173 C 0.45752 0.42317 0.02792 0.0
C174 C 0.65198 0.54901 0.03451 0.0
C175 C 0.57734 0.63783 0.97417 0.0
N176 N 0.51704 0.46428 0.02876 0.0
N177 N 0.51779 0.59678 0.97337 0.0
H178 H 0.24552 0.58742 0.4414 0.0
H179 H 0.79401 0.47517 0.56049 0.0
H180 H 0.49136 0.67264 0.55217 0.0
H181 H 0.54807 0.38974 0.4499 0.0
H182 H 0.68457 0.54794 0.55798 0.0
H183 H 0.35497 0.51465 0.44392 0.0
C184 C 0.32269 0.59084 0.4662 0.0
C185 C 0.35961 0.63623 0.49648 0.0
C186 C 0.65435 0.51323 0.5343 0.0
C187 C 0.48546 0.55308 0.49968 0.0
C188 C 0.71682 0.4717 0.53572 0.0
C189 C 0.67988 0.42626 0.50549 0.0
C190 C 0.55405 0.5094 0.50231 0.0
C191 C 0.57938 0.42378 0.47409 0.0
C192 C 0.38517 0.54931 0.46764 0.0
C193 C 0.46008 0.63864 0.52794 0.0
N194 N 0.51997 0.46478 0.47329 0.0
N195 N 0.51951 0.59765 0.52874 0.0
H196 H 0.29153 0.08737 0.05976 0.0
H197 H 0.7432 0.97335 0.94131 0.0
H198 H 0.04547 0.1717 0.94929 0.0
H199 H 0.9897 0.88874 0.05139 0.0
H200 H 0.85244 0.0465 0.94366 0.0
H201 H 0.18219 1.01425 0.05728 0.0
C202 C 0.21432 0.09051 0.03504 0.0
C203 C 0.17726 0.13572 0.00483 0.0
C204 C 0.8828 1.01188 0.96725 0.0
C205 C 0.05161 0.05223 0.00167 0.0
C206 C 0.82046 0.97015 0.96591 0.0
C207 C 0.85769 0.92486 0.99606 0.0
C208 C 0.98317 1.00836 0.99908 0.0
C209 C 0.95823 0.92267 0.02727 0.0
C210 C 0.15192 0.04879 0.03362 0.0
C211 C 0.07679 0.13783 0.97346 0.0
N212 N 1.0175 0.96385 0.02799 0.0
N213 N 1.01741 0.09665 0.97268 0.0
H214 H 0.74627 0.08799 0.44161 0.0
H215 H 0.29413 0.97491 0.56028 0.0
H216 H 0.99271 0.17357 0.55187 0.0
H217 H 0.04717 0.8889 0.45055 0.0
H218 H 0.18529 0.04821 0.55769 0.0
H219 H 0.85528 1.01487 0.44422 0.0
C220 C 0.82349 0.09142 0.46632 0.0
C221 C 0.86069 0.13699 0.49644 0.0
C222 C 0.15473 1.01326 0.53422 0.0
C223 C 0.98606 0.05342 0.49974 0.0
C224 C 0.21685 0.97143 0.53569 0.0
C225 C 0.17944 0.92568 0.50572 0.0
C226 C 0.05432 1.00943 0.50244 0.0
C227 C 0.07885 0.92319 0.47454 0.0
C228 C 0.88572 0.04968 0.4678 0.0
C229 C 0.96122 0.13942 0.52777 0.0
N230 N 0.01979 0.96448 0.47369 0.0
N231 N 0.02042 0.0982 0.52863 0.0
H232 H 0.76415 0.27379 0.36987 0.0
H233 H 0.27372 0.26808 0.13172 0.0
H234 H 0.47801 0.2656 0.34543 0.0
H235 H 0.55992 0.26856 0.1561 0.0
H236 H 0.3473 0.26531 0.2097 0.0
H237 H 0.69072 0.27019 0.29188 0.0
C238 C 0.68573 0.27112 0.34814 0.0
C239 C 0.62704 0.2702 0.36432 0.0
C240 C 0.39414 0.26584 0.19808 0.0
C241 C 0.54251 0.26606 0.27465 0.0
C242 C 0.35218 0.26748 0.15344 0.0
C243 C 0.41077 0.26879 0.13723 0.0
C244 C 0.49563 0.26568 0.22694 0.0
C245 C 0.51194 0.26767 0.16709 0.0
C246 C 0.6439 0.26899 0.30351 0.0
C247 C 0.52603 0.26651 0.33445 0.0
N248 N 0.55119 0.2664 0.21055 0.0
N249 N 0.48693 0.26476 0.29102 0.0
H250 H 0.37636 0.85454 0.1238 0.0
H251 H 0.63774 0.75641 0.37218 0.0
H252 H 0.65464 0.76911 0.19645 0.0
H253 H 0.38879 0.86893 0.30639 0.0
H254 H 0.63881 0.75436 0.30655 0.0
H255 H 0.37432 0.85482 0.18898 0.0
C256 C 0.43733 0.83605 0.15344 0.0
C257 C 0.51593 0.81188 0.15442 0.0
C258 C 0.58401 0.77955 0.30649 0.0
C259 C 0.51316 0.8113 0.2293 0.0
C260 C 0.58302 0.78047 0.34387 0.0
C261 C 0.5132 0.81301 0.34487 0.0
C262 C 0.51417 0.811 0.26961 0.0
C263 C 0.44471 0.84384 0.30731 0.0
C264 C 0.43582 0.83598 0.19066 0.0
C265 C 0.59178 0.78751 0.19377 0.0
N266 N 0.44679 0.84196 0.27125 0.0
N267 N 0.58847 0.78786 0.22954 0.0
H268 H 0.47403 0.7932 0.84641 0.0
H269 H 0.56321 0.79573 0.65571 0.0
H270 H 0.75818 0.79013 0.86864 0.0
H271 H 0.27905 0.78786 0.63339 0.0
H272 H 0.63615 0.7988 0.73405 0.0
H273 H 0.40094 0.79635 0.76806 0.0
C274 C 0.52107 0.79337 0.83488 0.0
C275 C 0.62236 0.79118 0.86418 0.0
C276 C 0.55782 0.79651 0.71195 0.0
C277 C 0.53935 0.79478 0.77465 0.0
C278 C 0.51617 0.7948 0.66722 0.0
C279 C 0.41496 0.79132 0.63791 0.0
C280 C 0.49777 0.79481 0.72743 0.0
C281 C 0.35751 0.79031 0.65471 0.0
C282 C 0.47932 0.79511 0.79015 0.0
C283 C 0.67974 0.79154 0.84734 0.0
N284 N 0.39976 0.79196 0.69833 0.0
N285 N 0.63743 0.79321 0.80373 0.0
H286 H 0.41021 0.31272 0.63189 0.0
H287 H 0.65345 0.20072 0.87596 0.0
H288 H 0.63847 0.18573 0.69265 0.0
H289 H 0.38542 0.29698 0.80569 0.0
H290 H 0.65616 0.20068 0.81097 0.0
H291 H 0.40809 0.31417 0.69731 0.0
C292 C 0.4602 0.28534 0.65906 0.0
C293 C 0.52447 0.24894 0.6567 0.0
C294 C 0.59675 0.22182 0.80977 0.0
C295 C 0.52237 0.25033 0.73172 0.0
C296 C 0.59479 0.22162 0.84688 0.0
C297 C 0.51889 0.24875 0.84656 0.0
C298 C 0.5227 0.24969 0.77188 0.0
C299 C 0.44623 0.2762 0.80792 0.0
C300 C 0.45856 0.28594 0.6963 0.0
C301 C 0.58691 0.21395 0.69279 0.0
N302 N 0.45 0.27598 0.77225 0.0
N303 N 0.5845 0.21566 0.72878 0.0
H304 H 0.06273 0.76811 0.15542 0.0
H305 H 0.97451 0.76529 0.34643 0.0
H306 H 0.77881 0.77051 0.13341 0.0
H307 H 0.25833 0.77507 0.36852 0.0
H308 H 0.90137 0.76208 0.26807 0.0
H309 H 0.13614 0.7655 0.23382 0.0
C310 C 1.01581 0.76789 0.167 0.0
C311 C 0.91447 0.76973 0.13775 0.0
C312 C 0.97968 0.76484 0.29013 0.0
C313 C 0.99783 0.76675 0.22733 0.0
C314 C 0.02144 0.76662 0.33487 0.0
C315 C 0.12262 0.77065 0.36413 0.0
C316 C 0.03957 0.76697 0.27458 0.0
C317 C 0.1799 0.77217 0.34725 0.0
C318 C 0.05773 0.76648 0.21176 0.0
C319 C 0.85726 0.76935 0.15466 0.0
N320 N 0.13755 0.77041 0.30362 0.0
N321 N 0.89972 0.76799 0.19829 0.0
H322 H 0.12262 0.24577 0.36836 0.0
H323 H 0.88339 0.36219 0.12585 0.0
H324 H 0.90605 0.37978 0.31092 0.0
H325 H 0.14788 0.26248 0.19467 0.0
H326 H 0.8819 0.36243 0.19116 0.0
H327 H 0.12328 0.24394 0.30256 0.0
C328 C 0.07491 0.27462 0.34182 0.0
C329 C 1.01437 0.3131 0.3452 0.0
C330 C 0.94026 0.34049 0.19195 0.0
C331 C 1.01469 0.31123 0.2698 0.0
C332 C 0.94152 0.34056 0.15467 0.0
C333 C 1.01609 0.31242 0.15452 0.0
C334 C 1.0136 0.31169 0.22948 0.0
C335 C 0.08807 0.28405 0.19281 0.0
C336 C 0.07571 0.27379 0.30439 0.0
C337 C 0.95469 0.3499 0.30994 0.0
N338 N 0.08495 0.28439 0.22864 0.0
N339 N 0.95611 0.34791 0.27371 0.0
H340 H 0.06398 0.29704 0.65576 0.0
H341 H 0.97339 0.29337 0.84598 0.0
H342 H 0.77954 0.28808 0.63308 0.0
H343 H 0.25789 0.29105 0.86856 0.0
H344 H 0.90067 0.29661 0.76767 0.0
H345 H 0.13649 0.30003 0.73406 0.0
C346 C 1.01678 0.29585 0.66718 0.0
C347 C 0.91563 0.29209 0.63779 0.0
C348 C 0.97905 0.29551 0.78983 0.0
C349 C 0.99795 0.2955 0.72725 0.0
C350 C 0.02058 0.29373 0.83454 0.0
C351 C 0.12186 0.29172 0.86391 0.0
C352 C 0.03929 0.29542 0.77444 0.0
C353 C 0.17945 0.29231 0.84719 0.0
C354 C 0.05819 0.29751 0.71189 0.0
C355 C 0.85797 0.29076 0.65448 0.0
N356 N 0.13734 0.29402 0.8036 0.0
N357 N 0.89998 0.29237 0.69807 0.0
H358 H 0.91064 0.81223 0.63246 0.0
H359 H 0.15484 0.70019 0.87647 0.0
H360 H 0.13708 0.68409 0.69255 0.0
H361 H 0.88593 0.79563 0.80621 0.0
H362 H 0.15715 0.7002 0.81138 0.0
H363 H 0.90912 0.81378 0.69803 0.0
C364 C 0.96034 0.78462 0.65952 0.0
C365 C 0.02393 0.74787 0.65695 0.0
C366 C 0.09765 0.72114 0.81022 0.0
C367 C 0.02257 0.74939 0.73211 0.0
C368 C 0.09593 0.72093 0.84738 0.0
C369 C 0.01988 0.74781 0.84707 0.0
C370 C 0.02322 0.74879 0.77232 0.0
C371 C 0.94686 0.77505 0.80842 0.0
C372 C 0.95906 0.78528 0.69684 0.0
C373 C 0.08607 0.7126 0.69288 0.0
N374 N 0.95041 0.77486 0.77271 0.0
N375 N 0.08405 0.71437 0.72896 0.0
loop_
_geom_bond_atom_site_label_1
_geom_bond_atom_site_label_2
_geom_bond_distance
_geom_bond_site_symmetry_2
_ccdc_geom_bond_type
La0 C2 2.928 1_556 S
La0 O20 2.521 1_556 S
La0 O21 2.628 1_556 S
La0 O22 2.554 1_556 S
La0 O23 2.757 . S
La0 O24 2.470 1_556 S
La0 O29 2.482 1_556 S
La0 O31 2.503 . S
La1 C11 2.928 1_554 S
La1 O23 2.482 1_554 S
La1 O25 2.503 . S
La1 O26 2.521 1_554 S
La1 O27 2.628 1_554 S
La1 O28 2.554 1_554 S
La1 O29 2.757 . S
La1 O30 2.470 1_554 S
C2 La0 2.928 1_554 S
C2 C3 1.503 . S
C2 O20 1.261 . S
C2 O21 1.243 . S
C3 C2 1.503 . S
C3 C4 1.394 . S
C3 C8 1.373 . S
C4 C3 1.394 . S
C4 C5 1.380 . S
C4 H32 0.930 . S
C5 C4 1.380 . S
C5 C6 1.376 . S
C5 H33 0.930 . S
C6 C5 1.376 . S
C6 C7 1.370 . S
C7 C6 1.370 . S
C7 C8 1.396 . S
C7 H34 0.929 . S
C8 C3 1.373 . S
C8 C7 1.396 . S
C8 H35 0.929 . S
C9 O22 1.240 . S
C9 O23 1.289 1_554 S
C10 O24 1.258 . S
C10 O25 1.256 . S
C11 La1 2.928 1_556 S
C11 C12 1.503 . S
C11 O26 1.261 . S
C11 O27 1.243 . S
C12 C11 1.503 . S
C12 C13 1.394 . S
C12 C17 1.373 . S
C13 C12 1.394 . S
C13 C14 1.380 . S
C13 H36 0.930 . S
C14 C13 1.380 . S
C14 C15 1.376 . S
C14 H37 0.930 . S
C15 C14 1.376 . S
C15 C16 1.370 . S
C16 C15 1.370 . S
C16 C17 1.396 . S
C16 H38 0.929 . S
C17 C12 1.373 . S
C17 C16 1.396 . S
C17 H39 0.929 . S
C18 O28 1.240 . S
C18 O29 1.289 1_556 S
C19 O30 1.258 . S
C19 O31 1.256 . S
O20 La0 2.521 1_554 S
O20 C2 1.261 . S
O21 La0 2.628 1_554 S
O21 C2 1.243 . S
O22 La0 2.554 1_554 S
O22 C9 1.240 . S
O23 La0 2.757 . S
O23 La1 2.482 1_556 S
O23 C9 1.289 1_556 S
O24 La0 2.470 1_554 S
O24 C10 1.258 . S
O25 La1 2.503 . S
O25 C10 1.256 . S
O26 La1 2.521 1_556 S
O26 C11 1.261 . S
O27 La1 2.628 1_556 S
O27 C11 1.243 . S
O28 La1 2.554 1_556 S
O28 C18 1.240 . S
O29 La0 2.482 1_554 S
O29 La1 2.757 . S
O29 C18 1.289 1_554 S
O30 La1 2.470 1_556 S
O30 C19 1.258 . S
O31 La0 2.503 . S
O31 C19 1.256 . S
H32 C4 0.930 . S
H33 C5 0.930 . S
H34 C7 0.929 . S
H35 C8 0.929 . S
H36 C13 0.930 . S
H37 C14 0.930 . S
H38 C16 0.929 . S
H39 C17 0.929 . S
La40 C42 2.928 1_556 S
La40 O60 2.521 1_556 S
La40 O61 2.628 1_556 S
La40 O62 2.554 1_556 S
La40 O63 2.757 . S
La40 O64 2.470 1_556 S
La40 O69 2.482 1_556 S
La40 O71 2.503 . S
La41 C51 2.928 1_554 S
La41 O63 2.482 1_554 S
La41 O65 2.503 . S
La41 O66 2.521 1_554 S
La41 O67 2.628 1_554 S
La41 O68 2.554 1_554 S
La41 O69 2.757 . S
La41 O70 2.470 1_554 S
C42 La40 2.928 1_554 S
C42 C43 1.503 . S
C42 O60 1.261 . S
C42 O61 1.243 . S
C43 C42 1.503 . S
C43 C44 1.394 . S
C43 C48 1.373 . S
C44 C43 1.394 . S
C44 C45 1.380 . S
C44 H72 0.930 . S
C45 C44 1.380 . S
C45 C46 1.376 . S
C45 H73 0.930 . S
C46 C45 1.376 . S
C46 C47 1.370 . S
C47 C46 1.370 . S
C47 C48 1.396 . S
C47 H74 0.929 . S
C48 C43 1.373 . S
C48 C47 1.396 . S
C48 H75 0.929 . S
C49 O62 1.240 . S
C49 O63 1.289 1_554 S
C50 O64 1.258 . S
C50 O65 1.256 . S
C51 La41 2.928 1_556 S
C51 C52 1.503 . S
C51 O66 1.261 . S
C51 O67 1.243 . S
C52 C51 1.503 . S
C52 C53 1.394 . S
C52 C57 1.373 . S
C53 C52 1.394 . S
C53 C54 1.380 . S
C53 H76 0.930 . S
C54 C53 1.380 . S
C54 C55 1.376 . S
C54 H77 0.930 . S
C55 C54 1.376 . S
C55 C56 1.370 . S
C56 C55 1.370 . S
C56 C57 1.396 . S
C56 H78 0.929 . S
C57 C52 1.373 . S
C57 C56 1.396 . S
C57 H79 0.929 . S
C58 O68 1.240 . S
C58 O69 1.289 1_556 S
C59 O70 1.258 . S
C59 O71 1.256 . S
O60 La40 2.521 1_554 S
O60 C42 1.261 . S
O61 La40 2.628 1_554 S
O61 C42 1.243 . S
O62 La40 2.554 1_554 S
O62 C49 1.240 . S
O63 La40 2.757 . S
O63 La41 2.482 1_556 S
O63 C49 1.289 1_556 S
O64 La40 2.470 1_554 S
O64 C50 1.258 . S
O65 La41 2.503 . S
O65 C50 1.256 . S
O66 La41 2.521 1_556 S
O66 C51 1.261 . S
O67 La41 2.628 1_556 S
O67 C51 1.243 . S
O68 La41 2.554 1_556 S
O68 C58 1.240 . S
O69 La40 2.482 1_554 S
O69 La41 2.757 . S
O69 C58 1.289 1_554 S
O70 La41 2.470 1_556 S
O70 C59 1.258 . S
O71 La40 2.503 . S
O71 C59 1.256 . S
H72 C44 0.930 . S
H73 C45 0.930 . S
H74 C47 0.929 . S
H75 C48 0.929 . S
H76 C53 0.930 . S
H77 C54 0.930 . S
H78 C56 0.929 . S
H79 C57 0.929 . S
La80 C82 2.928 . S
La80 O100 2.521 . S
La80 O101 2.628 . S
La80 O102 2.554 . S
La80 O103 2.757 . S
La80 O104 2.470 . S
La80 O109 2.482 . S
La80 O111 2.503 . S
La81 C91 2.928 . S
La81 O103 2.482 . S
La81 O105 2.503 . S
La81 O106 2.521 . S
La81 O107 2.628 . S
La81 O108 2.554 . S
La81 O109 2.757 . S
La81 O110 2.470 . S
C82 La80 2.928 . S
C82 C83 1.503 . S
C82 O100 1.261 . S
C82 O101 1.243 . S
C83 C82 1.503 . S
C83 C84 1.394 . S
C83 C88 1.373 . S
C84 C83 1.394 . S
C84 C85 1.380 . S
C84 H112 0.930 . S
C85 C84 1.380 . S
C85 C86 1.376 . S
C85 H113 0.930 . S
C86 C85 1.376 . S
C86 C87 1.370 . S
C87 C86 1.370 . S
C87 C88 1.396 . S
C87 H114 0.929 . S
C88 C83 1.373 . S
C88 C87 1.396 . S
C88 H115 0.929 . S
C89 O102 1.240 . S
C89 O103 1.289 . S
C90 O104 1.258 . S
C90 O105 1.256 . S
C91 La81 2.928 . S
C91 C92 1.503 . S
C91 O106 1.261 . S
C91 O107 1.243 . S
C92 C91 1.503 . S
C92 C93 1.394 . S
C92 C97 1.373 . S
C93 C92 1.394 . S
C93 C94 1.380 . S
C93 H116 0.930 . S
C94 C93 1.380 . S
C94 C95 1.376 . S
C94 H117 0.930 . S
C95 C94 1.376 . S
C95 C96 1.370 . S
C96 C95 1.370 . S
C96 C97 1.396 . S
C96 H118 0.929 . S
C97 C92 1.373 . S
C97 C96 1.396 . S
C97 H119 0.929 . S
C98 O108 1.240 . S
C98 O109 1.289 . S
C99 O110 1.258 . S
C99 O111 1.256 . S
O100 La80 2.521 . S
O100 C82 1.261 . S
O101 La80 2.628 . S
O101 C82 1.243 . S
O102 La80 2.554 . S
O102 C89 1.240 . S
O103 La80 2.757 . S
O103 La81 2.482 . S
O103 C89 1.289 . S
O104 La80 2.470 . S
O104 C90 1.258 . S
O105 La81 2.503 . S
O105 C90 1.256 . S
O106 La81 2.521 . S
O106 C91 1.261 . S
O107 La81 2.628 . S
O107 C91 1.243 . S
O108 La81 2.554 . S
O108 C98 1.240 . S
O109 La80 2.482 . S
O109 La81 2.757 . S
O109 C98 1.289 . S
O110 La81 2.470 . S
O110 C99 1.258 . S
O111 La80 2.503 . S
O111 C99 1.256 . S
H112 C84 0.930 . S
H113 C85 0.930 . S
H114 C87 0.929 . S
H115 C88 0.929 . S
H116 C93 0.930 . S
H117 C94 0.930 . S
H118 C96 0.929 . S
H119 C97 0.929 . S
La120 C122 2.928 . S
La120 O140 2.521 . S
La120 O141 2.628 . S
La120 O142 2.554 . S
La120 O143 2.757 . S
La120 O144 2.470 . S
La120 O149 2.482 . S
La120 O151 2.503 . S
La121 C131 2.928 . S
La121 O143 2.482 . S
La121 O145 2.503 . S
La121 O146 2.521 . S
La121 O147 2.628 . S
La121 O148 2.554 . S
La121 O149 2.757 . S
La121 O150 2.470 . S
C122 La120 2.928 . S
C122 C123 1.503 . S
C122 O140 1.261 . S
C122 O141 1.243 . S
C123 C122 1.503 . S
C123 C124 1.394 . S
C123 C128 1.373 . S
C124 C123 1.394 . S
C124 C125 1.380 . S
C124 H152 0.930 . S
C125 C124 1.380 . S
C125 C126 1.376 . S
C125 H153 0.930 . S
C126 C125 1.376 . S
C126 C127 1.370 . S
C127 C126 1.370 . S
C127 C128 1.396 . S
C127 H154 0.929 . S
C128 C123 1.373 . S
C128 C127 1.396 . S
C128 H155 0.929 . S
C129 O142 1.240 . S
C129 O143 1.289 . S
C130 O144 1.258 . S
C130 O145 1.256 . S
C131 La121 2.928 . S
C131 C132 1.503 . S
C131 O146 1.261 . S
C131 O147 1.243 . S
C132 C131 1.503 . S
C132 C133 1.394 . S
C132 C137 1.373 . S
C133 C132 1.394 . S
C133 C134 1.380 . S
C133 H156 0.930 . S
C134 C133 1.380 . S
C134 C135 1.376 . S
C134 H157 0.930 . S
C135 C134 1.376 . S
C135 C136 1.370 . S
C136 C135 1.370 . S
C136 C137 1.396 . S
C136 H158 0.929 . S
C137 C132 1.373 . S
C137 C136 1.396 . S
C137 H159 0.929 . S
C138 O148 1.240 . S
C138 O149 1.289 . S
C139 O150 1.258 . S
C139 O151 1.256 . S
O140 La120 2.521 . S
O140 C122 1.261 . S
O141 La120 2.628 . S
O141 C122 1.243 . S
O142 La120 2.554 . S
O142 C129 1.240 . S
O143 La120 2.757 . S
O143 La121 2.482 . S
O143 C129 1.289 . S
O144 La120 2.470 . S
O144 C130 1.258 . S
O145 La121 2.503 . S
O145 C130 1.256 . S
O146 La121 2.521 . S
O146 C131 1.261 . S
O147 La121 2.628 . S
O147 C131 1.243 . S
O148 La121 2.554 . S
O148 C138 1.240 . S
O149 La120 2.482 . S
O149 La121 2.757 . S
O149 C138 1.289 . S
O150 La121 2.470 . S
O150 C139 1.258 . S
O151 La120 2.503 . S
O151 C139 1.256 . S
H152 C124 0.930 . S
H153 C125 0.930 . S
H154 C127 0.929 . S
H155 C128 0.929 . S
H156 C133 0.930 . S
H157 C134 0.930 . S
H158 C136 0.929 . S
H159 C137 0.929 . S
H160 C166 0.930 . S
H161 C170 0.930 . S
H162 C175 0.929 . S
H163 C173 0.929 . S
H164 C168 0.929 . S
H165 C174 0.929 . S
C166 H160 0.930 . S
C166 C167 1.367 . S
C166 C174 1.378 . S
C167 C166 1.367 . S
C167 C175 1.433 1_556 S
C168 H164 0.929 . S
C168 C170 1.378 . S
C168 C172 1.350 . S
C169 C172 1.463 1_556 S
C169 C174 1.350 . S
C169 N177 1.427 1_556 S
C170 H161 0.930 . S
C170 C168 1.378 . S
C170 C171 1.367 . S
C171 C170 1.367 . S
C171 C173 1.433 1_554 S
C172 C168 1.350 . S
C172 C169 1.463 1_554 S
C172 N176 1.427 1_554 S
C173 H163 0.929 . S
C173 C171 1.433 1_556 S
C173 N176 1.384 . S
C174 H165 0.929 . S
C174 C166 1.378 . S
C174 C169 1.350 . S
C175 H162 0.929 . S
C175 C167 1.433 1_554 S
C175 N177 1.384 . S
N176 C172 1.427 1_556 S
N176 C173 1.384 . S
N177 C169 1.427 1_554 S
N177 C175 1.384 . S
H178 C184 0.930 . S
H179 C188 0.930 . S
H180 C193 0.929 . S
H181 C191 0.929 . S
H182 C186 0.929 . S
H183 C192 0.929 . S
C184 H178 0.930 . S
C184 C185 1.367 . S
C184 C192 1.378 . S
C185 C184 1.367 . S
C185 C193 1.433 . S
C186 H182 0.929 . S
C186 C188 1.378 . S
C186 C190 1.350 . S
C187 C190 1.463 . S
C187 C192 1.350 . S
C187 N195 1.427 . S
C188 H179 0.930 . S
C188 C186 1.378 . S
C188 C189 1.367 . S
C189 C188 1.367 . S
C189 C191 1.433 . S
C190 C186 1.350 . S
C190 C187 1.463 . S
C190 N194 1.427 . S
C191 H181 0.929 . S
C191 C189 1.433 . S
C191 N194 1.384 . S
C192 H183 0.929 . S
C192 C184 1.378 . S
C192 C187 1.350 . S
C193 H180 0.929 . S
C193 C185 1.433 . S
C193 N195 1.384 . S
N194 C190 1.427 . S
N194 C191 1.384 . S
N195 C187 1.427 . S
N195 C193 1.384 . S
H196 C202 0.930 . S
H197 C206 0.930 . S
H198 C211 0.929 . S
H199 C209 0.929 . S
H200 C204 0.929 1_545 S
H201 C210 0.929 1_565 S
C202 H196 0.930 . S
C202 C203 1.367 . S
C202 C210 1.378 . S
C203 C202 1.367 . S
C203 C211 1.433 1_556 S
C204 H200 0.929 1_565 S
C204 C206 1.378 . S
C204 C208 1.350 . S
C205 C208 1.463 1_446 S
C205 C210 1.350 . S
C205 N213 1.427 1_556 S
C206 H197 0.930 . S
C206 C204 1.378 . S
C206 C207 1.367 . S
C207 C206 1.367 . S
C207 C209 1.433 1_554 S
C208 C204 1.350 . S
C208 C205 1.463 1_664 S
C208 N212 1.427 1_554 S
C209 H199 0.929 . S
C209 C207 1.433 1_556 S
C209 N212 1.384 . S
C210 H201 0.929 1_545 S
C210 C202 1.378 . S
C210 C205 1.350 . S
C211 H198 0.929 . S
C211 C203 1.433 1_554 S
C211 N213 1.384 . S
N212 C208 1.427 1_556 S
N212 C209 1.384 . S
N213 C205 1.427 1_554 S
N213 C211 1.384 . S
H214 C220 0.930 . S
H215 C224 0.930 . S
H216 C229 0.929 . S
H217 C227 0.929 . S
H218 C222 0.929 . S
H219 C228 0.929 . S
C220 H214 0.930 . S
C220 C221 1.367 . S
C220 C228 1.378 . S
C221 C220 1.367 . S
C221 C229 1.433 . S
C222 H218 0.929 . S
C222 C224 1.378 . S
C222 C226 1.350 . S
C223 C226 1.463 1_645 S
C223 C228 1.350 . S
C223 N231 1.427 . S
C224 H215 0.930 . S
C224 C222 1.378 . S
C224 C225 1.367 . S
C225 C224 1.367 . S
C225 C227 1.433 . S
C226 C222 1.350 . S
C226 C223 1.463 1_465 S
C226 N230 1.427 . S
C227 H217 0.929 . S
C227 C225 1.433 . S
C227 N230 1.384 . S
C228 H219 0.929 . S
C228 C220 1.378 . S
C228 C223 1.350 . S
C229 H216 0.929 . S
C229 C221 1.433 . S
C229 N231 1.384 . S
N230 C226 1.427 . S
N230 C227 1.384 . S
N231 C223 1.427 . S
N231 C229 1.384 . S
H232 C238 0.930 . S
H233 C242 0.930 . S
H234 C247 0.929 . S
H235 C245 0.929 . S
H236 C240 0.929 . S
H237 C246 0.929 . S
C238 H232 0.930 . S
C238 C239 1.367 . S
C238 C246 1.378 . S
C239 C238 1.367 . S
C239 C247 1.433 . S
C240 H236 0.929 . S
C240 C242 1.378 . S
C240 C244 1.350 . S
C241 C244 1.463 . S
C241 C246 1.350 . S
C241 N249 1.427 . S
C242 H233 0.930 . S
C242 C240 1.378 . S
C242 C243 1.367 . S
C243 C242 1.367 . S
C243 C245 1.433 . S
C244 C240 1.350 . S
C244 C241 1.463 . S
C244 N248 1.427 . S
C245 H235 0.929 . S
C245 C243 1.433 . S
C245 N248 1.384 . S
C246 H237 0.929 . S
C246 C238 1.378 . S
C246 C241 1.350 . S
C247 H234 0.929 . S
C247 C239 1.433 . S
C247 N249 1.384 . S
N248 C244 1.427 . S
N248 C245 1.384 . S
N249 C241 1.427 . S
N249 C247 1.384 . S
H250 C256 0.930 . S
H251 C260 0.930 . S
H252 C265 0.929 . S
H253 C263 0.929 . S
H254 C258 0.929 . S
H255 C264 0.929 . S
C256 H250 0.930 . S
C256 C257 1.367 . S
C256 C264 1.378 . S
C257 C256 1.367 . S
C257 C265 1.433 . S
C258 H254 0.929 . S
C258 C260 1.378 . S
C258 C262 1.350 . S
C259 C262 1.463 . S
C259 C264 1.350 . S
C259 N267 1.427 . S
C260 H251 0.930 . S
C260 C258 1.378 . S
C260 C261 1.367 . S
C261 C260 1.367 . S
C261 C263 1.433 . S
C262 C258 1.350 . S
C262 C259 1.463 . S
C262 N266 1.427 . S
C263 H253 0.929 . S
C263 C261 1.433 . S
C263 N266 1.384 . S
C264 H255 0.929 . S
C264 C256 1.378 . S
C264 C259 1.350 . S
C265 H252 0.929 . S
C265 C257 1.433 . S
C265 N267 1.384 . S
N266 C262 1.427 . S
N266 C263 1.384 . S
N267 C259 1.427 . S
N267 C265 1.384 . S
H268 C274 0.930 . S
H269 C278 0.930 . S
H270 C283 0.929 . S
H271 C281 0.929 . S
H272 C276 0.929 . S
H273 C282 0.929 . S
C274 H268 0.930 . S
C274 C275 1.367 . S
C274 C282 1.378 . S
C275 C274 1.367 . S
C275 C283 1.433 . S
C276 H272 0.929 . S
C276 C278 1.378 . S
C276 C280 1.350 . S
C277 C280 1.463 . S
C277 C282 1.350 . S
C277 N285 1.427 . S
C278 H269 0.930 . S
C278 C276 1.378 . S
C278 C279 1.367 . S
C279 C278 1.367 . S
C279 C281 1.433 . S
C280 C276 1.350 . S
C280 C277 1.463 . S
C280 N284 1.427 . S
C281 H271 0.929 . S
C281 C279 1.433 . S
C281 N284 1.384 . S
C282 H273 0.929 . S
C282 C274 1.378 . S
C282 C277 1.350 . S
C283 H270 0.929 . S
C283 C275 1.433 . S
C283 N285 1.384 . S
N284 C280 1.427 . S
N284 C281 1.384 . S
N285 C277 1.427 . S
N285 C283 1.384 . S
H286 C292 0.930 . S
H287 C296 0.930 . S
H288 C301 0.929 . S
H289 C299 0.929 . S
H290 C294 0.929 . S
H291 C300 0.929 . S
C292 H286 0.930 . S
C292 C293 1.367 . S
C292 C300 1.378 . S
C293 C292 1.367 . S
C293 C301 1.433 . S
C294 H290 0.929 . S
C294 C296 1.378 . S
C294 C298 1.350 . S
C295 C298 1.463 . S
C295 C300 1.350 . S
C295 N303 1.427 . S
C296 H287 0.930 . S
C296 C294 1.378 . S
C296 C297 1.367 . S
C297 C296 1.367 . S
C297 C299 1.433 . S
C298 C294 1.350 . S
C298 C295 1.463 . S
C298 N302 1.427 . S
C299 H289 0.929 . S
C299 C297 1.433 . S
C299 N302 1.384 . S
C300 H291 0.929 . S
C300 C292 1.378 . S
C300 C295 1.350 . S
C301 H288 0.929 . S
C301 C293 1.433 . S
C301 N303 1.384 . S
N302 C298 1.427 . S
N302 C299 1.384 . S
N303 C295 1.427 . S
N303 C301 1.384 . S
H304 C310 0.930 . S
H305 C314 0.930 . S
H306 C319 0.929 . S
H307 C317 0.929 . S
H308 C312 0.929 1_655 S
H309 C318 0.929 1_455 S
C310 H304 0.930 . S
C310 C311 1.367 . S
C310 C318 1.378 . S
C311 C310 1.367 . S
C311 C319 1.433 . S
C312 H308 0.929 1_455 S
C312 C314 1.378 . S
C312 C316 1.350 . S
C313 C316 1.463 1_655 S
C313 C318 1.350 . S
C313 N321 1.427 . S
C314 H305 0.930 . S
C314 C312 1.378 . S
C314 C315 1.367 . S
C315 C314 1.367 . S
C315 C317 1.433 . S
C316 C312 1.350 . S
C316 C313 1.463 1_455 S
C316 N320 1.427 . S
C317 H307 0.929 . S
C317 C315 1.433 . S
C317 N320 1.384 . S
C318 H309 0.929 1_655 S
C318 C310 1.378 . S
C318 C313 1.350 . S
C319 H306 0.929 . S
C319 C311 1.433 . S
C319 N321 1.384 . S
N320 C316 1.427 . S
N320 C317 1.384 . S
N321 C313 1.427 . S
N321 C319 1.384 . S
H322 C328 0.930 . S
H323 C332 0.930 . S
H324 C337 0.929 . S
H325 C335 0.929 . S
H326 C330 0.929 . S
H327 C336 0.929 . S
C328 H322 0.930 . S
C328 C329 1.367 1_455 S
C328 C336 1.378 . S
C329 C328 1.367 1_655 S
C329 C337 1.433 . S
C330 H326 0.929 . S
C330 C332 1.378 . S
C330 C334 1.350 1_655 S
C331 C334 1.463 1_655 S
C331 C336 1.350 1_655 S
C331 N339 1.427 . S
C332 H323 0.930 . S
C332 C330 1.378 . S
C332 C333 1.367 1_655 S
C333 C332 1.367 1_455 S
C333 C335 1.433 . S
C334 C330 1.350 1_455 S
C334 C331 1.463 1_455 S
C334 N338 1.427 . S
C335 H325 0.929 . S
C335 C333 1.433 . S
C335 N338 1.384 . S
C336 H327 0.929 . S
C336 C328 1.378 . S
C336 C331 1.350 1_455 S
C337 H324 0.929 . S
C337 C329 1.433 . S
C337 N339 1.384 . S
N338 C334 1.427 . S
N338 C335 1.384 . S
N339 C331 1.427 . S
N339 C337 1.384 . S
H340 C346 0.930 1_455 S
H341 C350 0.930 1_655 S
H342 C355 0.929 . S
H343 C353 0.929 . S
H344 C348 0.929 . S
H345 C354 0.929 . S
C346 H340 0.930 1_655 S
C346 C347 1.367 . S
C346 C354 1.378 1_655 S
C347 C346 1.367 . S
C347 C355 1.433 . S
C348 H344 0.929 . S
C348 C350 1.378 1_655 S
C348 C352 1.350 1_655 S
C349 C352 1.463 1_655 S
C349 C354 1.350 1_655 S
C349 N357 1.427 . S
C350 H341 0.930 1_455 S
C350 C348 1.378 1_455 S
C350 C351 1.367 . S
C351 C350 1.367 . S
C351 C353 1.433 . S
C352 C348 1.350 1_455 S
C352 C349 1.463 1_455 S
C352 N356 1.427 . S
C353 H343 0.929 . S
C353 C351 1.433 . S
C353 N356 1.384 . S
C354 H345 0.929 . S
C354 C346 1.378 1_455 S
C354 C349 1.350 1_455 S
C355 H342 0.929 . S
C355 C347 1.433 . S
C355 N357 1.384 . S
N356 C352 1.427 . S
N356 C353 1.384 . S
N357 C349 1.427 . S
N357 C355 1.384 . S
H358 C364 0.930 . S
H359 C368 0.930 . S
H360 C373 0.929 . S
H361 C371 0.929 . S
H362 C366 0.929 . S
H363 C372 0.929 . S
C364 H358 0.930 . S
C364 C365 1.367 1_655 S
C364 C372 1.378 . S
C365 C364 1.367 1_455 S
C365 C373 1.433 . S
C366 H362 0.929 . S
C366 C368 1.378 . S
C366 C370 1.350 1_455 S
C367 C370 1.463 1_455 S
C367 C372 1.350 1_455 S
C367 N375 1.427 . S
C368 H359 0.930 . S
C368 C366 1.378 . S
C368 C369 1.367 1_455 S
C369 C368 1.367 1_655 S
C369 C371 1.433 . S
C370 C366 1.350 1_655 S
C370 C367 1.463 1_655 S
C370 N374 1.427 . S
C371 H361 0.929 . S
C371 C369 1.433 . S
C371 N374 1.384 . S
C372 H363 0.929 . S
C372 C364 1.378 . S
C372 C367 1.350 1_655 S
C373 H360 0.929 . S
C373 C365 1.433 . S
C373 N375 1.384 . S
N374 C370 1.427 . S
N374 C371 1.384 . S
N375 C367 1.427 . S
N375 C373 1.384 . S
C167 C58 1.587 . S
C171 C9 1.587 . S
C185 C98 1.586 . S
C189 C129 1.586 . S
C203 C18 1.587 . S
C207 C49 1.587 . S
C221 C138 1.588 . S
C225 C89 1.588 . S
C239 C130 1.694 . S
C243 C10 1.698 . S
C257 C46 1.005 . S
C261 C86 0.997 . S
C275 C59 1.694 . S
C279 C99 1.702 . S
C293 C135 0.998 . S
C297 C15 1.007 . S
C311 C50 1.694 . S
C315 C90 1.698 . S
C329 C126 0.998 . S
C333 C6 1.003 . S
C347 C139 1.699 . S
C351 C19 1.696 . S
C365 C95 0.998 . S
C369 C55 1.006 . S
