# Generated by pormake.
# Topology wip, (6)-cn, num edge types: 1
# Building blocks:
#     Node 0, Type 0, BuildingBlock: BETDIP_clean_sbu_0, # of connection points: 6
#     Node 1, Type 0, BuildingBlock: BETDIP_clean_sbu_0, # of connection points: 6
#     Node 2, Type 0, BuildingBlock: BETDIP_clean_sbu_0, # of connection points: 6
#     Node 3, Type 0, BuildingBlock: BETDIP_clean_sbu_0, # of connection points: 6
#     Node 4, Type 0, BuildingBlock: BETDIP_clean_sbu_0, # of connection points: 6
#     Node 5, Type 0, BuildingBlock: BETDIP_clean_sbu_0, # of connection points: 6
#     Node 6, Type 0, BuildingBlock: BETDIP_clean_sbu_0, # of connection points: 6
#     Node 7, Type 0, BuildingBlock: BETDIP_clean_sbu_0, # of connection points: 6
#     Node 8, Type 0, BuildingBlock: BETDIP_clean_sbu_0, # of connection points: 6
#     Node 9, Type 0, BuildingBlock: BETDIP_clean_sbu_0, # of connection points: 6
#     Node 10, Type 0, BuildingBlock: BETDIP_clean_sbu_0, # of connection points: 6
#     Node 11, Type 0, BuildingBlock: BETDIP_clean_sbu_0, # of connection points: 6
#     Node 12, Type 0, BuildingBlock: BETDIP_clean_sbu_0, # of connection points: 6
#     Node 13, Type 0, BuildingBlock: BETDIP_clean_sbu_0, # of connection points: 6
#     Node 14, Type 0, BuildingBlock: BETDIP_clean_sbu_0, # of connection points: 6
#     Node 15, Type 0, BuildingBlock: BETDIP_clean_sbu_0, # of connection points: 6
#     Node 16, Type 0, BuildingBlock: BETDIP_clean_sbu_0, # of connection points: 6
#     Node 17, Type 0, BuildingBlock: BETDIP_clean_sbu_0, # of connection points: 6
#     Node 18, Type 0, BuildingBlock: BETDIP_clean_sbu_0, # of connection points: 6
#     Node 19, Type 0, BuildingBlock: BETDIP_clean_sbu_0, # of connection points: 6
#     Node 20, Type 0, BuildingBlock: BETDIP_clean_sbu_0, # of connection points: 6
#     Node 21, Type 0, BuildingBlock: BETDIP_clean_sbu_0, # of connection points: 6
#     Node 22, Type 0, BuildingBlock: BETDIP_clean_sbu_0, # of connection points: 6
#     Node 23, Type 0, BuildingBlock: BETDIP_clean_sbu_0, # of connection points: 6
#     Node 24, Type 0, BuildingBlock: BETDIP_clean_sbu_0, # of connection points: 6
#     Node 25, Type 0, BuildingBlock: BETDIP_clean_sbu_0, # of connection points: 6
#     Node 26, Type 0, BuildingBlock: BETDIP_clean_sbu_0, # of connection points: 6
#     Node 27, Type 0, BuildingBlock: BETDIP_clean_sbu_0, # of connection points: 6
#     Node 28, Type 0, BuildingBlock: BETDIP_clean_sbu_0, # of connection points: 6
#     Node 29, Type 0, BuildingBlock: BETDIP_clean_sbu_0, # of connection points: 6
#     Node 30, Type 0, BuildingBlock: BETDIP_clean_sbu_0, # of connection points: 6
#     Node 31, Type 0, BuildingBlock: BETDIP_clean_sbu_0, # of connection points: 6
#     Edge 32, Type (0, 0), BuildingBlock: OJICUG_clean_linker_0, # of connection points: 2
#     Edge 33, Type (0, 0), BuildingBlock: OJICUG_clean_linker_0, # of connection points: 2
#     Edge 34, Type (0, 0), BuildingBlock: OJICUG_clean_linker_0, # of connection points: 2
#     Edge 35, Type (0, 0), BuildingBlock: OJICUG_clean_linker_0, # of connection points: 2
#     Edge 36, Type (0, 0), BuildingBlock: OJICUG_clean_linker_0, # of connection points: 2
#     Edge 37, Type (0, 0), BuildingBlock: OJICUG_clean_linker_0, # of connection points: 2
#     Edge 38, Type (0, 0), BuildingBlock: OJICUG_clean_linker_0, # of connection points: 2
#     Edge 39, Type (0, 0), BuildingBlock: OJICUG_clean_linker_0, # of connection points: 2
#     Edge 40, Type (0, 0), BuildingBlock: OJICUG_clean_linker_0, # of connection points: 2
#     Edge 41, Type (0, 0), BuildingBlock: OJICUG_clean_linker_0, # of connection points: 2
#     Edge 42, Type (0, 0), BuildingBlock: OJICUG_clean_linker_0, # of connection points: 2
#     Edge 43, Type (0, 0), BuildingBlock: OJICUG_clean_linker_0, # of connection points: 2
#     Edge 44, Type (0, 0), BuildingBlock: OJICUG_clean_linker_0, # of connection points: 2
#     Edge 45, Type (0, 0), BuildingBlock: OJICUG_clean_linker_0, # of connection points: 2
#     Edge 46, Type (0, 0), BuildingBlock: OJICUG_clean_linker_0, # of connection points: 2
#     Edge 47, Type (0, 0), BuildingBlock: OJICUG_clean_linker_0, # of connection points: 2
#     Edge 48, Type (0, 0), BuildingBlock: OJICUG_clean_linker_0, # of connection points: 2
#     Edge 49, Type (0, 0), BuildingBlock: OJICUG_clean_linker_0, # of connection points: 2
#     Edge 50, Type (0, 0), BuildingBlock: OJICUG_clean_linker_0, # of connection points: 2
#     Edge 51, Type (0, 0), BuildingBlock: OJICUG_clean_linker_0, # of connection points: 2
#     Edge 52, Type (0, 0), BuildingBlock: OJICUG_clean_linker_0, # of connection points: 2
#     Edge 53, Type (0, 0), BuildingBlock: OJICUG_clean_linker_0, # of connection points: 2
#     Edge 54, Type (0, 0), BuildingBlock: OJICUG_clean_linker_0, # of connection points: 2
#     Edge 55, Type (0, 0), BuildingBlock: OJICUG_clean_linker_0, # of connection points: 2
#     Edge 56, Type (0, 0), BuildingBlock: OJICUG_clean_linker_0, # of connection points: 2
#     Edge 57, Type (0, 0), BuildingBlock: OJICUG_clean_linker_0, # of connection points: 2
#     Edge 58, Type (0, 0), BuildingBlock: OJICUG_clean_linker_0, # of connection points: 2
#     Edge 59, Type (0, 0), BuildingBlock: OJICUG_clean_linker_0, # of connection points: 2
#     Edge 60, Type (0, 0), BuildingBlock: OJICUG_clean_linker_0, # of connection points: 2
#     Edge 61, Type (0, 0), BuildingBlock: OJICUG_clean_linker_0, # of connection points: 2
#     Edge 62, Type (0, 0), BuildingBlock: OJICUG_clean_linker_0, # of connection points: 2
#     Edge 63, Type (0, 0), BuildingBlock: OJICUG_clean_linker_0, # of connection points: 2
#     Edge 64, Type (0, 0), BuildingBlock: OJICUG_clean_linker_0, # of connection points: 2
#     Edge 65, Type (0, 0), BuildingBlock: OJICUG_clean_linker_0, # of connection points: 2
#     Edge 66, Type (0, 0), BuildingBlock: OJICUG_clean_linker_0, # of connection points: 2
#     Edge 67, Type (0, 0), BuildingBlock: OJICUG_clean_linker_0, # of connection points: 2
#     Edge 68, Type (0, 0), BuildingBlock: OJICUG_clean_linker_0, # of connection points: 2
#     Edge 69, Type (0, 0), BuildingBlock: OJICUG_clean_linker_0, # of connection points: 2
#     Edge 70, Type (0, 0), BuildingBlock: OJICUG_clean_linker_0, # of connection points: 2
#     Edge 71, Type (0, 0), BuildingBlock: OJICUG_clean_linker_0, # of connection points: 2
#     Edge 72, Type (0, 0), BuildingBlock: OJICUG_clean_linker_0, # of connection points: 2
#     Edge 73, Type (0, 0), BuildingBlock: OJICUG_clean_linker_0, # of connection points: 2
#     Edge 74, Type (0, 0), BuildingBlock: OJICUG_clean_linker_0, # of connection points: 2
#     Edge 75, Type (0, 0), BuildingBlock: OJICUG_clean_linker_0, # of connection points: 2
#     Edge 76, Type (0, 0), BuildingBlock: OJICUG_clean_linker_0, # of connection points: 2
#     Edge 77, Type (0, 0), BuildingBlock: OJICUG_clean_linker_0, # of connection points: 2
#     Edge 78, Type (0, 0), BuildingBlock: OJICUG_clean_linker_0, # of connection points: 2
#     Edge 79, Type (0, 0), BuildingBlock: OJICUG_clean_linker_0, # of connection points: 2
#     Edge 80, Type (0, 0), BuildingBlock: OJICUG_clean_linker_0, # of connection points: 2
#     Edge 81, Type (0, 0), BuildingBlock: OJICUG_clean_linker_0, # of connection points: 2
#     Edge 82, Type (0, 0), BuildingBlock: OJICUG_clean_linker_0, # of connection points: 2
#     Edge 83, Type (0, 0), BuildingBlock: OJICUG_clean_linker_0, # of connection points: 2
#     Edge 84, Type (0, 0), BuildingBlock: OJICUG_clean_linker_0, # of connection points: 2
#     Edge 85, Type (0, 0), BuildingBlock: OJICUG_clean_linker_0, # of connection points: 2
#     Edge 86, Type (0, 0), BuildingBlock: OJICUG_clean_linker_0, # of connection points: 2
#     Edge 87, Type (0, 0), BuildingBlock: OJICUG_clean_linker_0, # of connection points: 2
#     Edge 88, Type (0, 0), BuildingBlock: OJICUG_clean_linker_0, # of connection points: 2
#     Edge 89, Type (0, 0), BuildingBlock: OJICUG_clean_linker_0, # of connection points: 2
#     Edge 90, Type (0, 0), BuildingBlock: OJICUG_clean_linker_0, # of connection points: 2
#     Edge 91, Type (0, 0), BuildingBlock: OJICUG_clean_linker_0, # of connection points: 2
#     Edge 92, Type (0, 0), BuildingBlock: OJICUG_clean_linker_0, # of connection points: 2
#     Edge 93, Type (0, 0), BuildingBlock: OJICUG_clean_linker_0, # of connection points: 2
#     Edge 94, Type (0, 0), BuildingBlock: OJICUG_clean_linker_0, # of connection points: 2
#     Edge 95, Type (0, 0), BuildingBlock: OJICUG_clean_linker_0, # of connection points: 2
#     Edge 96, Type (0, 0), BuildingBlock: OJICUG_clean_linker_0, # of connection points: 2
#     Edge 97, Type (0, 0), BuildingBlock: OJICUG_clean_linker_0, # of connection points: 2
#     Edge 98, Type (0, 0), BuildingBlock: OJICUG_clean_linker_0, # of connection points: 2
#     Edge 99, Type (0, 0), BuildingBlock: OJICUG_clean_linker_0, # of connection points: 2
#     Edge 100, Type (0, 0), BuildingBlock: OJICUG_clean_linker_0, # of connection points: 2
#     Edge 101, Type (0, 0), BuildingBlock: OJICUG_clean_linker_0, # of connection points: 2
#     Edge 102, Type (0, 0), BuildingBlock: OJICUG_clean_linker_0, # of connection points: 2
#     Edge 103, Type (0, 0), BuildingBlock: OJICUG_clean_linker_0, # of connection points: 2
#     Edge 104, Type (0, 0), BuildingBlock: OJICUG_clean_linker_0, # of connection points: 2
#     Edge 105, Type (0, 0), BuildingBlock: OJICUG_clean_linker_0, # of connection points: 2
#     Edge 106, Type (0, 0), BuildingBlock: OJICUG_clean_linker_0, # of connection points: 2
#     Edge 107, Type (0, 0), BuildingBlock: OJICUG_clean_linker_0, # of connection points: 2
#     Edge 108, Type (0, 0), BuildingBlock: OJICUG_clean_linker_0, # of connection points: 2
#     Edge 109, Type (0, 0), BuildingBlock: OJICUG_clean_linker_0, # of connection points: 2
#     Edge 110, Type (0, 0), BuildingBlock: OJICUG_clean_linker_0, # of connection points: 2
#     Edge 111, Type (0, 0), BuildingBlock: OJICUG_clean_linker_0, # of connection points: 2
#     Edge 112, Type (0, 0), BuildingBlock: OJICUG_clean_linker_0, # of connection points: 2
#     Edge 113, Type (0, 0), BuildingBlock: OJICUG_clean_linker_0, # of connection points: 2
#     Edge 114, Type (0, 0), BuildingBlock: OJICUG_clean_linker_0, # of connection points: 2
#     Edge 115, Type (0, 0), BuildingBlock: OJICUG_clean_linker_0, # of connection points: 2
#     Edge 116, Type (0, 0), BuildingBlock: OJICUG_clean_linker_0, # of connection points: 2
#     Edge 117, Type (0, 0), BuildingBlock: OJICUG_clean_linker_0, # of connection points: 2
#     Edge 118, Type (0, 0), BuildingBlock: OJICUG_clean_linker_0, # of connection points: 2
#     Edge 119, Type (0, 0), BuildingBlock: OJICUG_clean_linker_0, # of connection points: 2
#     Edge 120, Type (0, 0), BuildingBlock: OJICUG_clean_linker_0, # of connection points: 2
#     Edge 121, Type (0, 0), BuildingBlock: OJICUG_clean_linker_0, # of connection points: 2
#     Edge 122, Type (0, 0), BuildingBlock: OJICUG_clean_linker_0, # of connection points: 2
#     Edge 123, Type (0, 0), BuildingBlock: OJICUG_clean_linker_0, # of connection points: 2
#     Edge 124, Type (0, 0), BuildingBlock: OJICUG_clean_linker_0, # of connection points: 2
#     Edge 125, Type (0, 0), BuildingBlock: OJICUG_clean_linker_0, # of connection points: 2
#     Edge 126, Type (0, 0), BuildingBlock: OJICUG_clean_linker_0, # of connection points: 2
#     Edge 127, Type (0, 0), BuildingBlock: OJICUG_clean_linker_0, # of connection points: 2
# Relax obj value: 0.617
# Max RMSD: 0.230
# Mean RMSD: 0.230
data_MOF--net-wip--node1-BETDIP_clean_sbu_0--edge1-OJICUG_clean_linker_0
_symmetry_space_group_name_H-M    P1
_symmetry_Int_Tables_number       1
_symmetry_cell_setting            triclinic
loop_
_symmetry_equiv_pos_as_xyz
'x, y, z'
_cell_length_a     46.196984
_cell_length_b     46.086087
_cell_length_c     24.909051
_cell_angle_alpha  89.932492
_cell_angle_beta   90.009024
_cell_angle_gamma 90.024061
loop_
_atom_site_label
_atom_site_type_symbol
_atom_site_fract_x
_atom_site_fract_y
_atom_site_fract_z
_atom_type_partial_charge
Tb0 Tb 0.08088 0.42674 0.23175 0.0
Tb1 Tb 0.10611 0.48237 0.27342 0.0
C2 C 0.0481 0.39378 0.17951 0.0
C3 C 0.02911 0.40093 0.13347 0.0
C4 C 0.02254 0.43004 0.12145 0.0
C5 C 0.00456 0.43707 1.07801 0.0
C6 C 0.99278 0.41513 1.04541 0.0
C7 C 0.99915 0.38596 1.05813 0.0
C8 C 0.01712 0.37896 0.10167 0.0
C9 C 0.1251 0.41633 0.29829 0.0
C10 C 0.1036 0.47473 0.14601 0.0
C11 C 0.1404 0.52114 0.30377 0.0
C12 C 0.16428 0.5256 0.34068 0.0
C13 C 0.17859 0.50174 0.36264 0.0
C14 C 0.19679 0.50559 0.40619 0.0
C15 C 0.20286 0.53356 0.42533 0.0
C16 C 0.19131 0.55777 0.39855 0.0
C17 C 0.17165 0.55375 0.35674 0.0
C18 C 0.0509 0.48769 0.23999 0.0
C19 C 0.06967 0.44264 0.35336 0.0
O20 O 0.04075 0.40601 0.2248 0.0
O21 O 0.0761 0.39539 0.17087 0.0
O22 O 0.12291 0.43849 0.26646 0.0
O23 O 0.10612 0.3975 0.28209 0.0
O24 O 0.09163 0.44915 0.15517 0.0
O25 O 0.11226 0.49085 0.18674 0.0
O26 O 0.14583 0.50302 0.26455 0.0
O27 O 0.11479 0.51702 0.3255 0.0
O28 O 0.06423 0.46646 0.25872 0.0
O29 O 0.06974 0.50852 0.24171 0.0
O30 O 0.08982 0.46342 0.34975 0.0
O31 O 0.06016 0.42857 0.3102 0.0
H32 H 0.03147 0.44742 0.14556 0.0
H33 H 0.00048 0.45972 1.0692 0.0
H34 H 0.99019 0.36845 1.0344 0.0
H35 H 0.02168 0.35639 0.11041 0.0
H36 H 0.17427 0.48008 0.34827 0.0
H37 H 0.20397 0.48657 0.42779 0.0
H38 H 0.19524 0.57949 0.41339 0.0
H39 H 0.16108 0.57244 0.33903 0.0
Tb40 Tb 0.81107 0.83485 0.49072 0.0
Tb41 Tb 0.76151 0.86564 0.53419 0.0
C42 C 0.84219 0.80118 0.43659 0.0
C43 C 0.83635 0.78491 0.38681 0.0
C44 C 0.80908 0.78661 0.36197 0.0
C45 C 0.80243 0.76892 0.31802 0.0
C46 C 0.82301 0.74929 0.29779 0.0
C47 C 0.85044 0.74795 0.32244 0.0
C48 C 0.85698 0.76552 0.36667 0.0
C49 C 0.82825 0.87437 0.5658 0.0
C50 C 0.76792 0.86357 0.40518 0.0
C51 C 0.73131 0.90853 0.56083 0.0
C52 C 0.73846 0.93247 0.5969 0.0
C53 C 0.76739 0.9411 0.6016 0.0
C54 C 0.77592 0.95923 0.64305 0.0
C55 C 0.75597 0.9682 0.68188 0.0
C56 C 0.72647 0.96144 0.67486 0.0
C57 C 0.71776 0.94363 0.63237 0.0
C58 C 0.74857 0.81131 0.51741 0.0
C59 C 0.79324 0.82007 0.60739 0.0
O60 O 0.82653 0.79289 0.47757 0.0
O61 O 0.8437 0.82957 0.43257 0.0
O62 O 0.80715 0.87689 0.53213 0.0
O63 O 0.84174 0.85109 0.55142 0.0
O64 O 0.79492 0.85548 0.41537 0.0
O65 O 0.7499 0.86689 0.44649 0.0
O66 O 0.74661 0.90747 0.51669 0.0
O67 O 0.72943 0.88318 0.58419 0.0
O68 O 0.76539 0.82688 0.48878 0.0
O69 O 0.73549 0.82776 0.55199 0.0
O70 O 0.77941 0.84547 0.60806 0.0
O71 O 0.8033 0.80935 0.56201 0.0
H72 H 0.79269 0.80121 0.37722 0.0
H73 H 0.78127 0.77078 0.29962 0.0
H74 H 0.8667 0.73291 0.30814 0.0
H75 H 0.87798 0.76358 0.38573 0.0
H76 H 0.78377 0.93228 0.57524 0.0
H77 H 0.79862 0.96433 0.64737 0.0
H78 H 0.71053 0.9677 0.70454 0.0
H79 H 0.69533 0.9369 0.62956 0.0
Tb80 Tb 0.41678 0.56475 0.73481 0.0
Tb81 Tb 0.39342 0.5081 0.77717 0.0
C82 C 0.4482 0.59818 0.68007 0.0
C83 C 0.46547 0.59276 0.63086 0.0
C84 C 0.46714 0.56474 0.60877 0.0
C85 C 0.48534 0.55894 0.565 0.0
C86 C 0.50217 0.58112 0.54186 0.0
C87 C 0.50019 0.60927 0.5638 0.0
C88 C 0.48215 0.61496 0.60793 0.0
C89 C 0.37582 0.5743 0.80833 0.0
C90 C 0.38907 0.51905 0.65051 0.0
C91 C 0.36587 0.46547 0.81471 0.0
C92 C 0.34801 0.45545 0.85989 0.0
C93 C 0.31819 0.46113 0.86114 0.0
C94 C 0.30368 0.46103 0.91022 0.0
C95 C 0.31938 0.45532 0.95716 0.0
C96 C 0.34577 0.44028 0.95246 0.0
C97 C 0.36079 0.4416 0.90407 0.0
C98 C 0.44571 0.50452 0.73016 0.0
C99 C 0.43357 0.54707 0.8529 0.0
O100 O 0.4572 0.58419 0.72258 0.0
O101 O 0.41989 0.59719 0.67532 0.0
O102 O 0.37609 0.55243 0.77543 0.0
O103 O 0.39435 0.59312 0.79035 0.0
O104 O 0.40217 0.54402 0.65946 0.0
O105 O 0.38133 0.50235 0.69143 0.0
O106 O 0.35449 0.48529 0.78326 0.0
O107 O 0.39329 0.47058 0.82469 0.0
O108 O 0.43398 0.52447 0.75561 0.0
O109 O 0.42717 0.48362 0.73334 0.0
O110 O 0.41283 0.52675 0.85166 0.0
O111 O 0.44141 0.56122 0.80878 0.0
H112 H 0.45471 0.54713 0.62592 0.0
H113 H 0.48597 0.53712 0.54891 0.0
H114 H 0.513 0.62685 0.5474 0.0
H115 H 0.48153 0.63666 0.62459 0.0
H116 H 0.30701 0.46842 0.82553 0.0
H117 H 0.28208 0.47 0.91213 0.0
H118 H 0.35745 0.43349 0.98805 0.0
H119 H 0.38317 0.4346 0.90293 0.0
Tb120 Tb 0.66941 0.1664 0.97682 0.0
Tb121 Tb 0.7242 0.14017 1.01873 0.0
C122 C 0.63716 0.1999 0.92447 0.0
C123 C 0.64454 0.21896 0.87859 0.0
C124 C 0.67367 0.22419 0.86518 0.0
C125 C 0.6809 0.24252 0.82226 0.0
C126 C 0.65914 0.25603 0.79162 0.0
C127 C 0.62997 0.25102 0.80581 0.0
C128 C 0.62278 0.23268 0.84879 0.0
C129 C 0.65776 0.12373 1.0467 0.0
C130 C 0.71628 0.14132 0.89099 0.0
C131 C 0.76274 0.10585 1.04947 0.0
C132 C 0.76908 0.08334 0.08847 0.0
C133 C 0.75624 0.08433 0.13887 0.0
C134 C 0.76275 0.06323 0.17625 0.0
C135 C 0.782 0.04048 0.16399 0.0
C136 C 0.79511 0.03947 0.11342 0.0
C137 C 0.78836 0.0608 1.07537 0.0
C138 C 0.73096 0.19474 0.98209 0.0
C139 C 0.68659 0.17926 0.09753 0.0
O140 O 0.64955 0.20701 0.96974 0.0
O141 O 0.63831 0.17182 0.91572 0.0
O142 O 0.67977 0.12451 1.01434 0.0
O143 O 0.63958 0.14298 1.02913 0.0
O144 O 0.6912 0.15431 0.89997 0.0
O145 O 0.73199 0.13236 0.93213 0.0
O146 O 0.74282 0.09908 1.01422 0.0
O147 O 0.76016 0.13251 1.06766 0.0
O148 O 0.70959 0.18233 1.00222 0.0
O149 O 0.75095 0.17506 0.98319 0.0
O150 O 0.70649 0.15819 0.09479 0.0
O151 O 0.67282 0.18857 1.05386 0.0
H152 H 0.6909 0.21402 0.8879 0.0
H153 H 0.70352 0.24553 0.8123 0.0
H154 H 0.61261 0.26134 0.78371 0.0
H155 H 0.60021 0.22923 0.85874 0.0
H156 H 0.74186 0.10185 0.14995 0.0
H157 H 0.75349 0.06545 0.21592 0.0
H158 H 0.81082 0.0228 0.10397 0.0
H159 H 0.79851 0.06003 1.03619 0.0
Tb160 Tb 0.08044 0.56859 0.83746 0.0
Tb161 Tb 0.10936 0.5138 0.79327 0.0
C162 C 0.04815 0.60068 0.89222 0.0
C163 C 0.02938 0.59317 0.93837 0.0
C164 C 0.02171 0.5641 0.94843 0.0
C165 C 0.00396 0.55685 0.9921 0.0
C166 C 0.99378 0.57848 1.0271 0.0
C167 C 0.00144 0.60759 1.01668 0.0
C168 C 0.019 0.61484 0.97273 0.0
C169 C 0.12412 0.58095 0.76856 0.0
C170 C 0.10524 0.52023 0.9211 0.0
C171 C 0.14754 0.48107 0.75591 0.0
C172 C 0.17256 0.48716 0.7222 0.0
C173 C 0.18541 0.51464 0.725 0.0
C174 C 0.20329 0.52398 0.68395 0.0
C175 C 0.20875 0.50597 0.63997 0.0
C176 C 0.19905 0.47708 0.64068 0.0
C177 C 0.18071 0.46772 0.68175 0.0
C178 C 0.05511 0.50399 0.82789 0.0
C179 C 0.06481 0.54904 0.71956 0.0
O180 O 0.04039 0.58924 0.84633 0.0
O181 O 0.07618 0.59874 0.90039 0.0
O182 O 0.12244 0.55897 0.80083 0.0
O183 O 0.10358 0.59832 0.78363 0.0
O184 O 0.09207 0.54535 0.9126 0.0
O185 O 0.11535 0.5049 0.88016 0.0
O186 O 0.14884 0.49275 0.80377 0.0
O187 O 0.12229 0.48496 0.73273 0.0
O188 O 0.06815 0.5267 0.81508 0.0
O189 O 0.0744 0.484 0.81895 0.0
O190 O 0.08786 0.53136 0.71996 0.0
O191 O 0.05595 0.56255 0.76375 0.0
H192 H 0.02963 0.54694 0.92266 0.0
H193 H 0.99883 0.53424 0.99926 0.0
H194 H 0.99379 0.62483 1.04254 0.0
H195 H 0.02457 0.63736 0.96573 0.0
H196 H 0.1795 0.52995 0.75611 0.0
H197 H 0.21001 0.54637 0.68337 0.0
H198 H 0.20266 0.463 0.60652 0.0
H199 H 0.17096 0.44637 0.67938 0.0
Tb200 Tb 0.68806 0.83159 0.08522 0.0
Tb201 Tb 0.73551 0.8693 1.04673 0.0
C202 C 0.66124 0.79183 0.13331 0.0
C203 C 0.66825 0.77395 0.18104 0.0
C204 C 0.69619 0.77439 0.20354 0.0
C205 C 0.70349 0.75559 0.24578 0.0
C206 C 0.68274 0.73653 0.26731 0.0
C207 C 0.65464 0.73655 0.2454 0.0
C208 C 0.64757 0.75486 0.20233 0.0
C209 C 0.66817 0.8725 1.01507 0.0
C210 C 0.72734 0.86218 0.17518 0.0
C211 C 0.76402 0.91505 1.03089 0.0
C212 C 0.76603 0.93619 0.98771 0.0
C213 C 0.74455 0.93668 0.94828 0.0
C214 C 0.74801 0.95395 0.90319 0.0
C215 C 0.77273 0.97136 0.89719 0.0
C216 C 0.79425 0.97113 0.93694 0.0
C217 C 0.79074 0.95372 0.98251 0.0
C218 C 0.75198 0.81546 1.0547 0.0
C219 C 0.70736 0.82516 0.96506 0.0
O220 O 0.67817 0.7875 0.09196 0.0
O221 O 0.65606 0.81954 0.14133 0.0
O222 O 0.68906 0.87502 1.04912 0.0
O223 O 0.65571 0.84828 1.02788 0.0
O224 O 0.70165 0.85092 0.16346 0.0
O225 O 0.74507 0.8691 0.13504 0.0
O226 O 0.73925 0.91429 1.05641 0.0
O227 O 0.77324 0.88916 1.01832 0.0
O228 O 0.73417 0.8284 0.08587 0.0
O229 O 0.76382 0.83452 1.02314 0.0
O230 O 0.72044 0.85105 0.96874 0.0
O231 O 0.69707 0.81182 1.00814 0.0
H232 H 0.71243 0.78919 0.18822 0.0
H233 H 0.72512 0.75646 0.26252 0.0
H234 H 0.63818 0.72223 0.26149 0.0
H235 H 0.62595 0.75403 0.18552 0.0
H236 H 0.72572 0.92272 0.95121 0.0
H237 H 0.73191 0.95264 0.8716 0.0
H238 H 0.81402 0.98347 0.93174 0.0
H239 H 0.80773 0.95302 1.01247 0.0
Tb240 Tb 0.41808 0.43654 0.33452 0.0
Tb241 Tb 0.39119 0.49282 0.29553 0.0
C242 C 0.45348 0.40583 0.38641 0.0
C243 C 0.4736 0.41387 0.43077 0.0
C244 C 0.47606 0.44282 0.44828 0.0
C245 C 0.49553 0.45046 0.48938 0.0
C246 C 0.51304 0.4293 0.51423 0.0
C247 C 0.5108 0.40042 0.49571 0.0
C248 C 0.49137 0.39284 0.45462 0.0
C249 C 0.37505 0.42528 0.26611 0.0
C250 C 0.39001 0.48076 0.42178 0.0
C251 C 0.36112 0.53465 0.26178 0.0
C252 C 0.34175 0.54403 0.21832 0.0
C253 C 0.31287 0.53483 0.21696 0.0
C254 C 0.29812 0.53431 0.16819 0.0
C255 C 0.3128 0.54284 0.12155 0.0
C256 C 0.33682 0.5614 0.12744 0.0
C257 C 0.35235 0.56063 0.17541 0.0
C258 C 0.44558 0.49759 0.33384 0.0
C259 C 0.42899 0.45534 0.21407 0.0
O260 O 0.45925 0.41765 0.33995 0.0
O261 O 0.42565 0.40656 0.39706 0.0
O262 O 0.3761 0.44766 0.29789 0.0
O263 O 0.39397 0.40676 0.28405 0.0
O264 O 0.40459 0.45676 0.41138 0.0
O265 O 0.38047 0.49717 0.38187 0.0
O266 O 0.35138 0.5142 0.29381 0.0
O267 O 0.3884 0.5307 0.24918 0.0
O268 O 0.43282 0.47731 0.31124 0.0
O269 O 0.42627 0.51789 0.33497 0.0
O270 O 0.40809 0.47525 0.21878 0.0
O271 O 0.43896 0.44072 0.25632 0.0
H272 H 0.46286 0.45959 0.43019 0.0
H273 H 0.4963 0.47283 0.50259 0.0
H274 H 0.52416 0.38352 0.51298 0.0
H275 H 0.49025 0.37047 0.44144 0.0
H276 H 0.30303 0.52542 0.25207 0.0
H277 H 0.27777 0.52282 0.16596 0.0
H278 H 0.34712 0.57087 0.09248 0.0
H279 H 0.37369 0.57034 0.17697 0.0
Tb280 Tb 0.81426 0.16224 0.58587 0.0
Tb281 Tb 0.76038 0.13598 0.53877 0.0
C282 C 0.8469 0.19256 0.64341 0.0
C283 C 0.83955 0.21173 0.68897 0.0
C284 C 0.81104 0.22187 0.69574 0.0
C285 C 0.80393 0.24005 0.73882 0.0
C286 C 0.82512 0.24823 0.77638 0.0
C287 C 0.85369 0.23815 0.76916 0.0
C288 C 0.86082 0.22013 0.72586 0.0
C289 C 0.82664 0.11776 0.51893 0.0
C290 C 0.76365 0.13811 0.66645 0.0
C291 C 0.72827 0.10248 0.48683 0.0
C292 C 0.73316 0.087 0.43633 0.0
C293 C 0.72816 0.05702 0.43352 0.0
C294 C 0.73931 0.04088 0.39073 0.0
C295 C 0.75575 0.0547 0.35073 0.0
C296 C 0.75794 0.08515 0.35109 0.0
C297 C 0.74707 0.10109 0.39369 0.0
C298 C 0.75218 0.18987 0.57618 0.0
C299 C 0.79925 0.17912 0.46713 0.0
O300 O 0.83692 0.20108 0.59685 0.0
O301 O 0.84311 0.16463 0.65119 0.0
O302 O 0.80429 0.12025 0.54985 0.0
O303 O 0.84412 0.13825 0.53362 0.0
O304 O 0.78842 0.15216 0.65917 0.0
O305 O 0.74956 0.12731 0.62441 0.0
O306 O 0.7449 0.09385 0.52642 0.0
O307 O 0.72663 0.13084 0.48354 0.0
O308 O 0.77436 0.17794 0.55785 0.0
O309 O 0.73214 0.17009 0.57268 0.0
O310 O 0.78036 0.15712 0.46713 0.0
O311 O 0.81236 0.18734 0.512 0.0
H312 H 0.7942 0.21557 0.66781 0.0
H313 H 0.78171 0.2471 0.74349 0.0
H314 H 0.8706 0.24426 0.79707 0.0
H315 H 0.88292 0.21267 0.72132 0.0
H316 H 0.71713 0.04591 0.46595 0.0
H317 H 0.73665 0.01754 0.39089 0.0
H318 H 0.76905 0.09672 0.3193 0.0
H319 H 0.75088 0.12426 0.39433 0.0
Tb320 Tb 0.88201 0.51579 0.29214 0.0
Tb321 Tb 0.91125 0.56922 0.33795 0.0
C322 C 0.8437 0.48526 0.24875 0.0
C323 C 0.81994 0.49231 0.21204 0.0
C324 C 0.80636 0.51942 0.21544 0.0
C325 C 0.7867 0.52804 0.17636 0.0
C326 C 0.7806 0.50998 0.1325 0.0
C327 C 0.79255 0.48185 0.13142 0.0
C328 C 0.81214 0.47309 0.17104 0.0
C329 C 0.93596 0.50487 0.32693 0.0
C330 C 0.92682 0.55169 0.21925 0.0
C331 C 0.94358 0.60071 0.39398 0.0
C332 C 0.9624 0.59263 0.43976 0.0
C333 C 0.97077 0.56356 0.44767 0.0
C334 C 0.98856 0.55579 0.491 0.0
C335 C 0.99804 0.57687 0.52776 0.0
C336 C 0.98972 0.60598 0.51944 0.0
C337 C 0.97214 0.61377 0.47585 0.0
C338 C 0.86734 0.58274 0.27016 0.0
C339 C 0.88595 0.52029 0.42059 0.0
O340 O 0.84126 0.49652 0.29681 0.0
O341 O 0.8699 0.48805 0.22907 0.0
O342 O 0.92413 0.52792 0.31212 0.0
O343 O 0.91609 0.48526 0.3191 0.0
O344 O 0.9038 0.53399 0.21951 0.0
O345 O 0.93575 0.56474 0.26382 0.0
O346 O 0.95129 0.58981 0.34768 0.0
O347 O 0.91555 0.59868 0.40205 0.0
O348 O 0.86895 0.56068 0.30215 0.0
O349 O 0.88849 0.59958 0.28437 0.0
O350 O 0.89968 0.54518 0.41254 0.0
O351 O 0.87556 0.50554 0.37896 0.0
H352 H 0.81213 0.5346 0.24677 0.0
H353 H 0.77797 0.54976 0.17828 0.0
H354 H 0.78878 0.46749 0.09775 0.0
H355 H 0.8224 0.45202 0.16796 0.0
H356 H 0.96336 0.54679 0.42051 0.0
H357 H 0.99423 0.53318 0.49653 0.0
H358 H 0.99684 0.62281 0.54673 0.0
H359 H 0.96604 0.63628 0.47049 0.0
Tb360 Tb 0.23836 0.14713 1.04813 0.0
Tb361 Tb 0.18122 0.17013 0.08916 0.0
C362 C 0.27684 0.11832 1.00133 0.0
C363 C 0.27789 0.10193 0.95103 0.0
C364 C 0.28181 0.07173 0.95277 0.0
C365 C 0.27508 0.05482 0.90803 0.0
C366 C 0.2645 0.06816 0.86138 0.0
C367 C 0.26456 0.09859 0.85759 0.0
C368 C 0.27086 0.11539 0.90225 0.0
C369 C 0.24147 0.2006 0.0896 0.0
C370 C 0.19916 0.18741 0.97214 0.0
C371 C 0.1492 0.20093 0.14699 0.0
C372 C 0.15834 0.21988 0.1923 0.0
C373 C 0.18745 0.22867 0.19713 0.0
C374 C 0.19641 0.24689 0.23907 0.0
C375 C 0.17658 0.25625 0.27808 0.0
C376 C 0.14745 0.2473 0.27341 0.0
C377 C 0.13841 0.22947 0.23082 0.0
C378 C 0.17319 0.12732 1.01764 0.0
C379 C 0.22903 0.14446 0.1741 0.0
O380 O 0.25938 0.10747 1.0376 0.0
O381 O 0.27444 0.14658 0.99731 0.0
O382 O 0.22116 0.18774 1.06696 0.0
O383 O 0.26256 0.18198 0.08931 0.0
O384 O 0.22012 0.16749 0.97486 0.0
O385 O 0.18372 0.19479 1.01493 0.0
O386 O 0.15854 0.20907 0.09975 0.0
O387 O 0.15205 0.17282 0.15416 0.0
O388 O 0.19451 0.1296 1.05123 0.0
O389 O 0.15351 0.14552 1.03367 0.0
O390 O 0.20406 0.15762 0.16448 0.0
O391 O 0.24549 0.1359 0.13356 0.0
H392 H 0.28772 0.06105 0.98997 0.0
H393 H 0.27571 0.03141 0.9116 0.0
H394 H 0.25766 0.10942 0.82113 0.0
H395 H 0.26828 0.1387 0.89932 0.0
H396 H 0.20339 0.22122 0.16861 0.0
H397 H 0.21904 0.25292 0.24192 0.0
H398 H 0.13162 0.25412 0.30288 0.0
H399 H 0.1159 0.22303 0.2282 0.0
Tb400 Tb 0.61833 0.48943 0.79207 0.0
Tb401 Tb 0.58343 0.44122 0.82957 0.0
C402 C 0.66353 0.5198 0.78792 0.0
C403 C 0.69015 0.51891 0.75701 0.0
C404 C 0.69813 0.49262 0.73364 0.0
C405 C 0.71358 0.49285 0.6862 0.0
C406 C 0.72278 0.51921 0.66354 0.0
C407 C 0.71968 0.54499 0.69309 0.0
C408 C 0.70282 0.5449 0.73957 0.0
C409 C 0.56439 0.50406 0.79612 0.0
C410 C 0.57808 0.45851 0.70798 0.0
C411 C 0.54484 0.41314 0.87829 0.0
C412 C 0.52744 0.41944 0.92675 0.0
C413 C 0.52814 0.44705 0.95073 0.0
C414 C 0.51039 0.45339 0.99489 0.0
C415 C 0.49183 0.43212 1.01639 0.0
C416 C 0.49129 0.40449 0.99218 0.0
C417 C 0.50882 0.39828 0.94774 0.0
C418 C 0.62386 0.42195 0.75952 0.0
C419 C 0.61032 0.48204 0.91923 0.0
O420 O 0.65982 0.49823 0.8214 0.0
O421 O 0.64029 0.52501 0.75934 0.0
O422 O 0.57718 0.48713 0.82917 0.0
O423 O 0.58335 0.5164 0.76502 0.0
O424 O 0.603 0.47313 0.71291 0.0
O425 O 0.56436 0.4483 0.75077 0.0
O426 O 0.53973 0.43022 0.83738 0.0
O427 O 0.57265 0.40861 0.88543 0.0
O428 O 0.62688 0.44312 0.79307 0.0
O429 O 0.60044 0.40865 0.77394 0.0
O430 O 0.60319 0.45494 0.90741 0.0
O431 O 0.61358 0.50052 0.8789 0.0
H432 H 0.6889 0.47233 0.74744 0.0
H433 H 0.71418 0.47292 0.66341 0.0
H434 H 0.72647 0.56557 0.67618 0.0
H435 H 0.69695 0.56538 0.75793 0.0
H436 H 0.54235 0.46376 0.93513 0.0
H437 H 0.51164 0.47475 1.01289 0.0
H438 H 0.47709 0.38768 1.00741 0.0
H439 H 0.50771 0.37696 0.92958 0.0
Tb440 Tb 0.26919 0.85498 0.55256 0.0
Tb441 Tb 0.3242 0.82807 0.59303 0.0
C442 C 0.23107 0.88835 0.51654 0.0
C443 C 0.22611 0.90776 0.47152 0.0
C444 C 0.23836 0.90149 0.42171 0.0
C445 C 0.23364 0.91997 0.37893 0.0
C446 C 0.21684 0.94514 0.38531 0.0
C447 C 0.20442 0.95158 0.43504 0.0
C448 C 0.2091 0.93279 0.4783 0.0
C449 C 0.2629 0.80027 0.58787 0.0
C450 C 0.30685 0.81648 0.47218 0.0
C451 C 0.35504 0.79407 0.64675 0.0
C452 C 0.34582 0.77501 0.69168 0.0
C453 C 0.31688 0.76551 0.69533 0.0
C454 C 0.30773 0.74793 0.73804 0.0
C455 C 0.32719 0.73984 0.77869 0.0
C456 C 0.35618 0.74929 0.77487 0.0
C457 C 0.36541 0.76661 0.73173 0.0
C458 C 0.33568 0.87172 0.52572 0.0
C459 C 0.2775 0.85361 0.67938 0.0
O460 O 0.25138 0.89658 0.54987 0.0
O461 O 0.23228 0.86055 0.50534 0.0
O462 O 0.28403 0.81268 0.56701 0.0
O463 O 0.24294 0.82002 0.5892 0.0
O464 O 0.28667 0.83714 0.47641 0.0
O465 O 0.32151 0.80703 0.51474 0.0
O466 O 0.34407 0.78743 0.59994 0.0
O467 O 0.35425 0.82213 0.65583 0.0
O468 O 0.31368 0.87031 0.55796 0.0
O469 O 0.35409 0.8524 0.54233 0.0
O470 O 0.30189 0.83948 0.66962 0.0
O471 O 0.26204 0.86379 0.63887 0.0
H472 H 0.25126 0.88216 0.41565 0.0
H473 H 0.24306 0.91457 0.34033 0.0
H474 H 0.19092 0.9706 0.44005 0.0
H475 H 0.19948 0.9377 0.51691 0.0
H476 H 0.30119 0.772 0.66541 0.0
H477 H 0.28522 0.74143 0.74012 0.0
H478 H 0.37176 0.74332 0.80545 0.0
H479 H 0.38776 0.77366 0.72995 0.0
Tb480 Tb 0.88788 0.48224 0.77524 0.0
Tb481 Tb 0.91443 0.42717 0.73099 0.0
C482 C 0.85422 0.51981 0.81252 0.0
C483 C 0.83254 0.52475 0.85408 0.0
C484 C 0.83586 0.51274 0.90516 0.0
C485 C 0.81438 0.51664 0.94333 0.0
C486 C 0.78908 0.53217 0.93083 0.0
C487 C 0.78611 0.54522 0.88047 0.0
C488 C 0.80786 0.54142 0.84202 0.0
C489 C 0.94162 0.4894 0.73634 0.0
C490 C 0.92826 0.44384 0.85124 0.0
C491 C 0.94735 0.3946 0.67822 0.0
C492 C 0.96675 0.40151 0.6328 0.0
C493 C 0.97078 0.43045 0.6164 0.0
C494 C 0.98962 0.43721 0.57409 0.0
C495 C 0.00492 0.41516 0.54728 0.0
C496 C 0.00118 0.38624 0.56469 0.0
C497 C 0.98227 0.37952 0.60692 0.0
C498 C 0.87234 0.41534 0.80148 0.0
C499 C 0.88835 0.4747 0.64693 0.0
O500 O 0.84683 0.50106 0.77545 0.0
O501 O 0.8813 0.51701 0.82786 0.0
O502 O 0.92956 0.46773 0.7562 0.0
O503 O 0.92227 0.50967 0.73994 0.0
O504 O 0.90689 0.46342 0.84959 0.0
O505 O 0.9375 0.43061 0.80702 0.0
O506 O 0.95464 0.40669 0.72367 0.0
O507 O 0.91943 0.39657 0.66897 0.0
O508 O 0.87324 0.43756 0.76965 0.0
O509 O 0.89113 0.39701 0.78299 0.0
O510 O 0.90191 0.44978 0.6553 0.0
O511 O 0.87909 0.49013 0.68847 0.0
H512 H 0.855 0.50042 0.91564 0.0
H513 H 0.81743 0.50737 0.98298 0.0
H514 H 0.76722 0.55817 0.87102 0.0
H515 H 0.80526 0.55113 0.80267 0.0
H516 H 0.95933 0.44787 0.63633 0.0
H517 H 0.99164 0.45964 0.56162 0.0
H518 H 0.01293 0.36871 0.54569 0.0
H519 H 0.97983 0.35713 0.61944 0.0
Tb520 Tb 0.25862 0.13789 0.53105 0.0
Tb521 Tb 0.30754 0.17148 0.4928 0.0
C522 C 0.22835 0.09296 0.54349 0.0
C523 C 0.22982 0.0679 0.57884 0.0
C524 C 0.25542 0.06288 0.60708 0.0
C525 C 0.25505 0.04523 0.65198 0.0
C526 C 0.22925 0.03183 0.66874 0.0
C527 C 0.20443 0.034 0.63634 0.0
C528 C 0.2047 0.05222 0.59144 0.0
C529 C 0.24359 0.19162 0.51615 0.0
C530 C 0.28613 0.18362 0.60941 0.0
C531 C 0.33817 0.20706 0.44133 0.0
C532 C 0.33325 0.22309 0.39058 0.0
C533 C 0.3063 0.22185 0.36436 0.0
C534 C 0.30079 0.23918 0.31914 0.0
C535 C 0.32232 0.25773 0.29862 0.0
C536 C 0.34946 0.25845 0.32443 0.0
C537 C 0.35478 0.24146 0.37012 0.0
C538 C 0.32447 0.13194 0.56793 0.0
C539 C 0.26793 0.14226 0.40341 0.0
O540 O 0.24955 0.09508 0.50897 0.0
O541 O 0.2232 0.11759 0.5678 0.0
O542 O 0.26162 0.17735 0.48764 0.0
O543 O 0.23089 0.17422 0.54978 0.0
O544 O 0.2734 0.15751 0.60816 0.0
O545 O 0.29699 0.19514 0.56514 0.0
O546 O 0.32086 0.21435 0.4806 0.0
O547 O 0.34147 0.17882 0.43788 0.0
O548 O 0.3047 0.12876 0.53192 0.0
O549 O 0.33712 0.15618 0.55631 0.0
O550 O 0.29454 0.15054 0.41587 0.0
O551 O 0.24901 0.13887 0.44304 0.0
H552 H 0.27489 0.07505 0.59798 0.0
H553 H 0.27404 0.04541 0.6775 0.0
H554 H 0.18413 0.02452 0.64933 0.0
H555 H 0.18475 0.05604 0.56966 0.0
H556 H 0.28935 0.20776 0.37929 0.0
H557 H 0.27982 0.23781 0.29984 0.0
H558 H 0.36645 0.27259 0.30979 0.0
H559 H 0.37561 0.24296 0.3899 0.0
Tb560 Tb 0.61025 0.51806 0.27356 0.0
Tb561 Tb 0.58679 0.57427 0.23089 0.0
C562 C 0.63882 0.4791 0.31922 0.0
C563 C 0.65279 0.47618 0.37136 0.0
C564 C 0.68247 0.47005 0.37346 0.0
C565 C 0.69786 0.47507 0.42061 0.0
C566 C 0.68349 0.4862 0.46566 0.0
C567 C 0.65314 0.48817 0.46545 0.0
C568 C 0.63789 0.48361 0.41835 0.0
C569 C 0.55641 0.51434 0.23449 0.0
C570 C 0.57117 0.55788 0.35048 0.0
C571 C 0.55521 0.60639 0.17452 0.0
C572 C 0.53602 0.59767 0.1295 0.0
C573 C 0.52998 0.56814 0.12021 0.0
C574 C 0.51172 0.55957 1.07809 0.0
C575 C 0.49913 0.58034 1.04393 0.0
C576 C 0.50492 0.60996 1.05393 0.0
C577 C 0.52314 0.61849 0.09621 0.0
C578 C 0.63105 0.58386 0.29936 0.0
C579 C 0.61087 0.52531 0.14676 0.0
O580 O 0.65045 0.49873 0.28765 0.0
O581 O 0.61049 0.48022 0.31961 0.0
O582 O 0.56919 0.53489 0.25654 0.0
O583 O 0.57537 0.4936 0.23332 0.0
O584 O 0.59127 0.53705 0.34791 0.0
O585 O 0.56345 0.57281 0.30706 0.0
O586 O 0.5475 0.59638 0.22153 0.0
O587 O 0.58319 0.60372 0.16642 0.0
O588 O 0.62791 0.56177 0.26762 0.0
O589 O 0.61234 0.6029 0.28255 0.0
O590 O 0.59755 0.55029 0.15576 0.0
O591 O 0.62061 0.50986 0.18789 0.0
H592 H 0.69403 0.46361 0.33756 0.0
H593 H 0.72116 0.4726 0.42034 0.0
H594 H 0.64138 0.4953 0.50068 0.0
H595 H 0.61482 0.48785 0.41809 0.0
H596 H 0.53952 0.5516 0.14545 0.0
H597 H 0.5081 0.53663 1.07145 0.0
H598 H 0.49533 0.62664 1.02898 0.0
H599 H 0.5272 0.64137 0.1028 0.0
Tb600 Tb 0.23979 0.8605 1.03488 0.0
Tb601 Tb 0.19115 0.82812 0.99206 0.0
C602 C 0.26925 0.90448 1.05829 0.0
C603 C 0.26167 0.9293 0.09194 0.0
C604 C 0.2332 0.93977 0.09064 0.0
C605 C 0.22263 0.95593 0.13307 0.0
C606 C 0.24025 0.96195 0.17754 0.0
C607 C 0.26975 0.95455 0.17586 0.0
C608 C 0.28043 0.93819 0.13302 0.0
C609 C 0.25436 0.80656 1.01959 0.0
C610 C 0.20967 0.81464 0.10905 0.0
C611 C 0.15995 0.79373 0.93921 0.0
C612 C 0.16459 0.77691 0.8895 0.0
C613 C 0.19155 0.77719 0.86332 0.0
C614 C 0.19664 0.75909 0.81911 0.0
C615 C 0.17474 0.74059 0.79982 0.0
C616 C 0.14766 0.74071 0.82585 0.0
C617 C 0.14271 0.75859 0.87036 0.0
C618 C 0.1729 0.86765 1.06628 0.0
C619 C 0.23404 0.85675 0.90624 0.0
O620 O 0.25433 0.902 1.0139 0.0
O621 O 0.27119 0.87983 1.08411 0.0
O622 O 0.23703 0.82131 0.99054 0.0
O623 O 0.26685 0.82359 1.054 0.0
O624 O 0.22245 0.8406 0.10924 0.0
O625 O 0.19993 0.80334 1.06386 0.0
O626 O 0.17629 0.78584 0.97955 0.0
O627 O 0.1583 0.82207 0.93449 0.0
O628 O 0.1938 0.87067 1.03228 0.0
O629 O 0.16029 0.84372 1.05292 0.0
O630 O 0.20718 0.84808 0.91605 0.0
O631 O 0.25173 0.86085 0.94767 0.0
H632 H 0.21812 0.93301 1.05976 0.0
H633 H 0.19974 0.96066 0.13393 0.0
H634 H 0.28368 0.95858 0.21005 0.0
H635 H 0.30245 0.93014 0.13464 0.0
H636 H 0.2088 0.79113 0.87752 0.0
H637 H 0.21758 0.75984 0.7996 0.0
H638 H 0.1304 0.7266 0.8123 0.0
H639 H 0.12189 0.75779 0.89031 0.0
Tb640 Tb 0.58084 0.92869 0.73701 0.0
Tb641 Tb 0.60953 0.98357 0.77667 0.0
C642 C 0.54532 0.89881 0.68492 0.0
C643 C 0.52623 0.90816 0.64004 0.0
C644 C 0.51403 0.9362 0.63941 0.0
C645 C 0.49683 0.94551 0.5963 0.0
C646 C 0.4919 0.9272 0.55221 0.0
C647 C 0.50404 0.89912 0.55296 0.0
C648 C 0.52092 0.88968 0.59648 0.0
C649 C 0.62466 0.91594 0.80278 0.0
C650 C 0.60517 0.97553 0.64953 0.0
C651 C 0.64586 0.02061 0.8064 0.0
C652 C 0.669 0.02442 0.84525 0.0
C653 C 0.68108 1.00022 0.87026 0.0
C654 C 0.69812 0.00381 0.91549 0.0
C655 C 0.70538 0.03171 0.93349 0.0
C656 C 0.6959 0.05606 0.90447 0.0
C657 C 0.67737 0.05241 0.86076 0.0
C658 C 0.5541 0.99078 0.74561 0.0
C659 C 0.57208 0.94628 0.85896 0.0
O660 O 0.5395 0.9103 0.73168 0.0
O661 O 0.57326 0.89844 0.67505 0.0
O662 O 0.6235 0.93839 0.77118 0.0
O663 O 0.60503 0.89796 0.78578 0.0
O664 O 0.59214 0.95055 0.65987 0.0
O665 O 0.61516 0.99144 0.68956 0.0
O666 O 0.65086 0.00118 0.76911 0.0
O667 O 0.61958 0.01883 0.82627 0.0
O668 O 0.56711 0.96928 0.76381 0.0
O669 O 0.57359 0.01106 0.74632 0.0
O670 O 0.59283 0.96635 0.85374 0.0
O671 O 0.56174 0.93163 0.81705 0.0
H672 H 0.51815 0.95119 0.67192 0.0
H673 H 0.48818 0.96736 0.59665 0.0
H674 H 0.50055 0.88444 0.51965 0.0
H675 H 0.53013 0.86807 0.59575 0.0
H676 H 0.67596 0.97862 0.85661 0.0
H677 H 0.70353 0.98483 0.93894 0.0
H678 H 0.70075 0.07778 0.91841 0.0
H679 H 0.66842 0.07134 0.84097 0.0
Tb680 Tb 0.32035 0.3394 0.98481 0.0
Tb681 Tb 0.26605 0.36833 1.02884 0.0
C682 C 0.34924 0.3052 0.92777 0.0
C683 C 0.33878 0.28576 0.88411 0.0
C684 C 0.30984 0.27598 0.88316 0.0
C685 C 0.29976 0.25786 0.84183 0.0
C686 C 0.31822 0.2497 0.79967 0.0
C687 C 0.34712 0.25958 0.80059 0.0
C688 C 0.35732 0.27723 0.84248 0.0
C689 C 0.33352 0.38388 1.05145 0.0
C690 C 0.27203 0.36517 0.90106 0.0
C691 C 0.23344 0.40487 1.07166 0.0
C692 C 0.23982 0.42787 0.1099 0.0
C693 C 0.2676 0.43992 0.11039 0.0
C694 C 0.2756 0.45905 0.15052 0.0
C695 C 0.25639 0.46541 0.19221 0.0
C696 C 0.22786 0.45478 0.1901 0.0
C697 C 0.21956 0.43605 0.1488 0.0
C698 C 0.2571 0.3137 0.99528 0.0
C699 C 0.30258 0.32559 0.10471 0.0
O700 O 0.3401 0.29875 0.97604 0.0
O701 O 0.34799 0.33323 0.91835 0.0
O702 O 0.31107 0.38179 1.02036 0.0
O703 O 0.35098 0.36351 1.03536 0.0
O704 O 0.29691 0.35168 0.90997 0.0
O705 O 0.2567 0.37523 0.9421 0.0
O706 O 0.24545 0.40847 1.02443 0.0
O707 O 0.23663 0.37843 0.09019 0.0
O708 O 0.27934 0.32656 1.01059 0.0
O709 O 0.23696 0.33321 1.00073 0.0
O710 O 0.28394 0.34778 0.10257 0.0
O711 O 0.3168 0.31654 1.06138 0.0
H712 H 0.29482 0.28273 0.914 0.0
H713 H 0.2773 0.25108 0.84182 0.0
H714 H 0.36185 0.25374 0.76854 0.0
H715 H 0.37962 0.28452 0.84197 0.0
H716 H 0.2835 0.43361 1.08075 0.0
H717 H 0.29743 0.46754 0.15093 0.0
H718 H 0.21272 0.4591 0.22234 0.0
H719 H 0.19802 0.42673 0.14895 0.0
Tb720 Tb 0.91697 0.06187 0.24378 0.0
Tb721 Tb 0.89094 0.00616 0.2858 0.0
C722 C 0.9492 0.09486 0.19019 0.0
C723 C 0.96769 0.08815 0.14318 0.0
C724 C 0.97425 0.05919 0.13007 0.0
C725 C 0.99219 0.05269 0.08628 0.0
C726 C 0.00388 0.075 1.05432 0.0
C727 C 0.9973 0.104 1.06784 0.0
C728 C 0.97944 0.11047 0.11179 0.0
C729 C 0.8746 0.07251 0.31419 0.0
C730 C 0.89177 0.01526 0.1582 0.0
C731 C 0.85649 0.96821 0.32028 0.0
C732 C 0.8312 0.9694 0.35486 0.0
C733 C 0.8201 0.99659 0.36711 0.0
C734 C 0.79949 0.99973 0.40676 0.0
C735 C 0.79113 0.97565 0.43735 0.0
C736 C 0.799 0.94764 0.41991 0.0
C737 C 0.81937 0.94453 0.37868 0.0
C738 C 0.94543 0.99977 0.24947 0.0
C739 C 0.93106 0.04422 0.36324 0.0
O740 O 0.95713 0.08235 0.23497 0.0
O741 O 0.92109 0.09331 0.18273 0.0
O742 O 0.87523 0.05075 0.28123 0.0
O743 O 0.89375 0.09099 0.29738 0.0
O744 O 0.90487 0.04024 0.16747 0.0
O745 O 0.8828 0.99914 0.19893 0.0
O746 O 0.85306 0.98239 0.27519 0.0
O747 O 0.88132 0.97424 0.34344 0.0
O748 O 0.93237 0.0212 0.26773 0.0
O749 O 0.92645 0.97916 0.25345 0.0
O750 O 0.90978 0.02446 0.36107 0.0
O751 O 0.94011 0.05796 0.31939 0.0
H752 H 0.96546 0.04154 0.15376 0.0
H753 H 0.99641 0.03015 1.07683 0.0
H754 H 0.00616 0.12178 1.04461 0.0
H755 H 0.97486 0.13294 0.12131 0.0
H756 H 0.8296 0.01565 0.34934 0.0
H757 H 0.79472 0.02159 0.42006 0.0
H758 H 0.79304 0.92876 0.44338 0.0
H759 H 0.82758 0.92318 0.36882 0.0
Tb760 Tb 0.17673 0.66278 0.48472 0.0
Tb761 Tb 0.23117 0.63396 0.52619 0.0
C762 C 0.14665 0.69781 0.432 0.0
C763 C 0.15619 0.71688 0.3875 0.0
C764 C 0.18514 0.72638 0.38471 0.0
C765 C 0.19468 0.74368 0.34198 0.0
C766 C 0.17559 0.75136 0.30052 0.0
C767 C 0.14658 0.74194 0.30346 0.0
C768 C 0.13696 0.72496 0.34666 0.0
C769 C 0.16375 0.61956 0.55175 0.0
C770 C 0.22308 0.63626 0.39862 0.0
C771 C 0.26763 0.59854 0.56158 0.0
C772 C 0.27189 0.57738 0.60433 0.0
C773 C 0.26074 0.5825 0.65552 0.0
C774 C 0.26463 0.56202 0.69559 0.0
C775 C 0.27933 0.53596 0.68498 0.0
C776 C 0.29104 0.53091 0.63412 0.0
C777 C 0.28725 0.55167 0.59371 0.0
C778 C 0.23903 0.68875 0.49191 0.0
C779 C 0.19412 0.67336 0.60605 0.0
O780 O 0.15787 0.70392 0.47886 0.0
O781 O 0.14682 0.66981 0.42216 0.0
O782 O 0.18616 0.62054 0.52048 0.0
O783 O 0.14582 0.63899 0.53389 0.0
O784 O 0.19884 0.65071 0.40823 0.0
O785 O 0.2384 0.62588 0.43931 0.0
O786 O 0.24769 0.5918 0.52632 0.0
O787 O 0.26688 0.62601 0.57559 0.0
O788 O 0.21742 0.67644 0.51124 0.0
O789 O 0.25878 0.66874 0.49216 0.0
O790 O 0.21381 0.6522 0.60202 0.0
O791 O 0.17985 0.68334 0.56342 0.0
H792 H 0.20058 0.72004 0.41519 0.0
H793 H 0.2172 0.75021 0.34043 0.0
H794 H 0.13137 0.74759 0.27206 0.0
H795 H 0.11462 0.71781 0.34779 0.0
H796 H 0.24926 0.60236 0.66471 0.0
H797 H 0.25614 0.5665 0.73532 0.0
H798 H 0.30316 0.51129 0.62594 0.0
H799 H 0.29616 0.54765 0.55417 0.0
Tb800 Tb 0.57759 0.06078 0.33517 0.0
Tb801 Tb 0.61 0.01168 0.2937 0.0
C802 C 0.54273 0.09177 0.38726 0.0
C803 C 0.52597 0.08705 0.43704 0.0
C804 C 0.52711 0.06034 0.46429 0.0
C805 C 0.50907 0.05505 0.50854 0.0
C806 C 0.48975 0.07649 0.52676 0.0
C807 C 0.48898 0.10332 0.49961 0.0
C808 C 0.50681 0.10847 0.4551 0.0
C809 C 0.61658 0.07868 0.25976 0.0
C810 C 0.60645 0.01864 0.42209 0.0
C811 C 0.65385 0.98171 0.27295 0.0
C812 C 0.67866 0.98889 0.23939 0.0
C813 C 0.68763 0.0179 0.23685 0.0
C814 C 0.70321 0.02759 0.19306 0.0
C815 C 0.71033 0.00852 0.15143 0.0
C816 C 0.7046 0.97874 0.15723 0.0
C817 C 0.68863 0.96893 0.20125 0.0
C818 C 0.55627 0.99727 0.31002 0.0
C819 C 0.5644 0.04119 0.21828 0.0
O820 O 0.53517 0.07506 0.34723 0.0
O821 O 0.57097 0.09396 0.39195 0.0
O822 O 0.61985 0.05787 0.2941 0.0
O823 O 0.59294 0.09156 0.27385 0.0
O824 O 0.59792 0.04552 0.4115 0.0
O825 O 0.61024 0.00055 0.38119 0.0
O826 O 0.65121 0.99744 0.31633 0.0
O827 O 0.62943 0.97941 0.24669 0.0
O828 O 0.57114 0.01483 0.33823 0.0
O829 O 0.57315 0.98437 0.27591 0.0
O830 O 0.59022 0.02823 0.21852 0.0
O831 O 0.55315 0.05144 0.26317 0.0
H832 H 0.54165 0.04341 0.45089 0.0
H833 H 0.51051 0.0343 0.52887 0.0
H834 H 0.47421 0.12023 0.51227 0.0
H835 H 0.50531 0.12907 0.43428 0.0
H836 H 0.68011 0.0338 0.26567 0.0
H837 H 0.70681 0.05062 0.18894 0.0
H838 H 0.70961 0.96366 0.12522 0.0
H839 H 0.68169 0.94648 0.20265 0.0
Tb840 Tb 0.18812 0.33709 0.58491 0.0
Tb841 Tb 0.23757 0.36858 0.5445 0.0
C842 C 0.15665 0.30281 0.63701 0.0
C843 C 0.16222 0.28689 0.68724 0.0
C844 C 0.1895 0.28854 0.71201 0.0
C845 C 0.19584 0.27144 0.7569 0.0
C846 C 0.17487 0.25258 0.77823 0.0
C847 C 0.14743 0.25127 0.75367 0.0
C848 C 0.14122 0.26819 0.70839 0.0
C849 C 0.17124 0.37607 0.50917 0.0
C850 C 0.22948 0.3656 0.67286 0.0
C851 C 0.2697 0.41179 0.52858 0.0
C852 C 0.27096 0.43491 0.48914 0.0
C853 C 0.24874 0.43709 0.45142 0.0
C854 C 0.25179 0.45566 0.40814 0.0
C855 C 0.2767 0.47289 0.40266 0.0
C856 C 0.29852 0.47163 0.44176 0.0
C857 C 0.29554 0.45269 0.48528 0.0
C858 C 0.251 0.31447 0.55988 0.0
C859 C 0.20799 0.32341 0.46796 0.0
O860 O 0.17311 0.29484 0.59693 0.0
O861 O 0.15447 0.33115 0.64076 0.0
O862 O 0.19178 0.3792 0.54377 0.0
O863 O 0.15795 0.35258 0.52307 0.0
O864 O 0.20257 0.35774 0.66152 0.0
O865 O 0.24792 0.36857 0.63235 0.0
O866 O 0.24694 0.41221 0.55978 0.0
O867 O 0.27489 0.38592 0.50943 0.0
O868 O 0.23383 0.32945 0.58906 0.0
O869 O 0.26367 0.3313 0.52526 0.0
O870 O 0.22167 0.34902 0.46824 0.0
O871 O 0.19722 0.31256 0.51286 0.0
H872 H 0.20612 0.30269 0.69606 0.0
H873 H 0.21703 0.2732 0.77527 0.0
H874 H 0.13089 0.2368 0.76899 0.0
H875 H 0.12018 0.26637 0.68947 0.0
H876 H 0.22988 0.42314 0.45366 0.0
H877 H 0.23543 0.45509 0.37694 0.0
H878 H 0.3183 0.484 0.43704 0.0
H879 H 0.31296 0.45083 0.51422 0.0
Tb880 Tb 0.91625 0.92498 0.84718 0.0
Tb881 Tb 0.8943 0.9815 0.80468 0.0
C882 C 0.94711 0.89161 0.90271 0.0
C883 C 0.96589 0.89874 0.94924 0.0
C884 C 0.97303 0.92778 0.9607 0.0
C885 C 0.99117 0.93472 1.00402 0.0
C886 C 0.00254 0.91277 1.0372 0.0
C887 C 0.99548 0.88367 1.02521 0.0
C888 C 0.97739 0.87676 0.98175 0.0
C889 C 0.8733 0.91581 0.77749 0.0
C890 C 0.89172 0.97281 0.93144 0.0
C891 C 0.86747 0.02399 0.76537 0.0
C892 C 0.85024 0.03302 0.71879 0.0
C893 C 0.81987 0.03236 0.72133 0.0
C894 C 0.80373 0.03312 0.67408 0.0
C895 C 0.81814 0.03435 0.62481 0.0
C896 C 0.84754 0.04211 0.62358 0.0
C897 C 0.86375 0.04086 0.67049 0.0
C898 C 0.9483 0.98381 0.84487 0.0
C899 C 0.93077 0.94032 0.72701 0.0
O900 O 0.95546 0.90283 0.85705 0.0
O901 O 0.91909 0.89435 0.90993 0.0
O902 O 0.87526 0.93815 0.80907 0.0
O903 O 0.89124 0.89648 0.79567 0.0
O904 O 0.90489 0.94783 0.92272 0.0
O905 O 0.88307 0.98873 0.8902 0.0
O906 O 0.8556 0.00457 0.79706 0.0
O907 O 0.89505 0.01892 0.75721 0.0
O908 O 0.93519 0.96385 0.82176 0.0
O909 O 0.9297 0.00476 0.84624 0.0
O910 O 0.91116 0.96162 0.72956 0.0
O911 O 0.93899 0.92596 0.77072 0.0
H912 H 0.96452 0.94518 0.93611 0.0
H913 H 0.99576 0.95734 1.0122 0.0
H914 H 0.00409 0.86611 1.04932 0.0
H915 H 0.97243 0.85422 0.9735 0.0
H916 H 0.80887 0.02855 0.75905 0.0
H917 H 0.78074 0.02869 0.67565 0.0
H918 H 0.85881 0.04426 0.58562 0.0
H919 H 0.88703 0.04334 0.66792 0.0
Tb920 Tb 0.31024 0.66083 0.0866 0.0
Tb921 Tb 0.2613 0.62888 1.04183 0.0
C922 C 0.34142 0.69471 0.14059 0.0
C923 C 0.33658 0.71171 0.19005 0.0
C924 C 0.30943 0.71182 0.21557 0.0
C925 C 0.30424 0.7301 0.25952 0.0
C926 C 0.32621 0.74841 0.27918 0.0
C927 C 0.35345 0.74793 0.25372 0.0
C928 C 0.35851 0.72986 0.20953 0.0
C929 C 0.32812 0.62046 1.01364 0.0
C930 C 0.2663 0.63209 0.17107 0.0
C931 C 0.23201 0.58583 1.01275 0.0
C932 C 0.23972 0.56245 0.97573 0.0
C933 C 0.26847 0.55304 0.97345 0.0
C934 C 0.27755 0.53462 0.93284 0.0
C935 C 0.25859 0.52691 0.89124 0.0
C936 C 0.22921 0.53489 0.89527 0.0
C937 C 0.2198 0.55243 0.93762 0.0
C938 C 0.24744 0.68303 1.05767 0.0
C939 C 0.29312 0.67489 0.96932 0.0
O940 O 0.32568 0.70285 0.0996 0.0
O941 O 0.34252 0.66635 0.14545 0.0
O942 O 0.30691 0.61828 1.04695 0.0
O943 O 0.34124 0.64418 1.02671 0.0
O944 O 0.29312 0.64116 0.16202 0.0
O945 O 0.24892 0.62761 0.12912 0.0
O946 O 0.24694 0.58662 1.05741 0.0
O947 O 0.22982 0.6114 0.99045 0.0
O948 O 0.26439 0.66787 0.08673 0.0
O949 O 0.23477 0.66624 1.02313 0.0
O950 O 0.28001 0.64908 0.96856 0.0
O951 O 0.3025 0.68599 1.0149 0.0
H952 H 0.29212 0.69806 0.20106 0.0
H953 H 0.28316 0.72963 0.27854 0.0
H954 H 0.37078 0.7619 0.26748 0.0
H955 H 0.37948 0.73038 0.19006 0.0
H956 H 0.28435 0.56096 1.00182 0.0
H957 H 0.30004 0.5281 0.93205 0.0
H958 H 0.21398 0.52972 0.86364 0.0
H959 H 0.19755 0.55984 0.93841 0.0
Tb960 Tb 0.38525 0.01875 0.80226 0.0
Tb961 Tb 0.41253 0.07385 0.84256 0.0
C962 C 0.35061 0.98043 0.77076 0.0
C963 C 0.32845 0.97509 0.7306 0.0
C964 C 0.31964 0.99763 0.69723 0.0
C965 C 0.3016 0.99199 0.65418 0.0
C966 C 0.29041 0.96408 0.64609 0.0
C967 C 0.29788 0.9416 0.68149 0.0
C968 C 0.31701 0.94713 0.72375 0.0
C969 C 0.44039 0.01239 0.83525 0.0
C970 C 0.4229 0.05656 0.72091 0.0
C971 C 0.44713 0.10434 0.89542 0.0
C972 C 0.46632 0.09479 0.9399 0.0
C973 C 0.47765 0.0664 0.94064 0.0
C974 C 0.49489 0.05676 0.98338 0.0
C975 C 0.50072 0.07511 1.02699 0.0
C976 C 0.4895 0.10358 1.0261 0.0
C977 C 0.47257 0.11334 0.98291 0.0
C978 C 0.36881 0.08591 0.77623 0.0
C979 C 0.38825 0.02657 0.92948 0.0
O980 O 0.34411 1.00029 0.80642 0.0
O981 O 0.37722 0.9829 0.75281 0.0
O982 O 0.42752 0.03367 0.81586 0.0
O983 O 0.42103 0.99201 0.83517 0.0
O984 O 0.40249 0.03612 0.72564 0.0
O985 O 0.43251 0.0714 0.76315 0.0
O986 O 0.45329 0.09345 0.84833 0.0
O987 O 0.41919 0.10389 0.9052 0.0
O988 O 0.37014 0.06357 0.80803 0.0
O989 O 0.38817 0.10421 0.79306 0.0
O990 O 0.40134 0.05158 0.91955 0.0
O991 O 0.37854 0.01077 0.88907 0.0
H992 H 0.32762 0.01927 0.7034 0.0
H993 H 0.298 0.009 0.62495 0.0
H994 H 0.29039 0.91966 0.67445 0.0
H995 H 0.32369 0.92947 0.74971 0.0
H996 H 0.47278 0.0514 0.90854 0.0
H997 H 0.50281 0.03463 0.98319 0.0
H998 H 0.4937 0.11828 1.05909 0.0
H999 H 0.46402 0.13522 0.9835 0.0
Tb1000 Tb 0.74328 0.63279 0.54331 0.0
Tb1001 Tb 0.69399 0.66592 0.58306 0.0
C1002 C 0.77565 0.58941 0.52908 0.0
C1003 C 0.77409 0.564 0.49416 0.0
C1004 C 0.74695 0.55438 0.47732 0.0
C1005 C 0.74443 0.5363 0.43321 0.0
C1006 C 0.76905 0.52923 0.40311 0.0
C1007 C 0.79662 0.53516 0.42458 0.0
C1008 C 0.79913 0.55273 0.47015 0.0
C1009 C 0.75622 0.68745 0.55423 0.0
C1010 C 0.71127 0.67387 0.46268 0.0
C1011 C 0.66605 0.7039 0.63418 0.0
C1012 C 0.67257 0.72152 0.68264 0.0
C1013 C 0.69944 0.71932 0.70907 0.0
C1014 C 0.70641 0.73804 0.75173 0.0
C1015 C 0.68635 0.75879 0.76973 0.0
C1016 C 0.65927 0.76049 0.74399 0.0
C1017 C 0.6526 0.74229 0.70056 0.0
C1018 C 0.67595 0.62563 0.51107 0.0
C1019 C 0.73338 0.6366 0.67131 0.0
O1020 O 0.75562 0.59086 0.56609 0.0
O1021 O 0.77891 0.61415 0.50405 0.0
O1022 O 0.73976 0.67269 0.58501 0.0
O1023 O 0.7686 0.6703 0.51998 0.0
O1024 O 0.7258 0.64891 0.46605 0.0
O1025 O 0.70141 0.68694 0.50626 0.0
O1026 O 0.68236 0.7095 0.59254 0.0
O1027 O 0.66216 0.6759 0.64091 0.0
O1028 O 0.69724 0.62291 0.54436 0.0
O1029 O 0.66194 0.64854 0.5264 0.0
O1030 O 0.70662 0.6441 0.65882 0.0
O1031 O 0.75257 0.63406 0.63178 0.0
H1032 H 0.72755 0.56361 0.49432 0.0
H1033 H 0.72293 0.53279 0.41705 0.0
H1034 H 0.8159 0.53018 0.40162 0.0
H1035 H 0.82036 0.55999 0.48284 0.0
H1036 H 0.71515 0.70331 0.69635 0.0
H1037 H 0.72719 0.73584 0.77148 0.0
H1038 H 0.64328 0.77605 0.75745 0.0
H1039 H 0.63183 0.74452 0.6808 0.0
Tb1040 Tb 0.11153 0.97737 0.3051 0.0
Tb1041 Tb 0.08509 0.92229 0.34873 0.0
C1042 C 0.14541 0.01508 0.26873 0.0
C1043 C 0.16748 0.02105 0.22821 0.0
C1044 C 0.16473 0.01025 0.17614 0.0
C1045 C 0.18573 0.01668 0.13812 0.0
C1046 C 0.21016 0.03334 0.1518 0.0
C1047 C 0.21282 0.04459 0.20364 0.0
C1048 C 0.19148 0.03836 0.24186 0.0
C1049 C 0.05786 0.98456 0.3444 0.0
C1050 C 0.0699 0.94003 0.22936 0.0
C1051 C 0.05253 0.88968 0.40229 0.0
C1052 C 0.03353 0.89692 0.44815 0.0
C1053 C 0.02903 0.92604 0.4628 0.0
C1054 C 0.01055 0.93316 0.5054 0.0
C1055 C 0.9961 0.9113 0.53437 0.0
C1056 C 0.00038 0.88215 0.5189 0.0
C1057 C 0.0189 0.87506 0.47628 0.0
C1058 C 0.12632 0.91077 0.27624 0.0
C1059 C 0.11089 0.96974 0.4337 0.0
O1060 O 0.15262 0.99623 0.30578 0.0
O1061 O 0.11851 0.01211 0.25242 0.0
O1062 O 0.06996 0.96294 0.3246 0.0
O1063 O 0.07727 0.00479 0.34072 0.0
O1064 O 0.0915 0.95942 0.23069 0.0
O1065 O 0.06111 0.92652 0.2737 0.0
O1066 O 0.04498 0.90167 0.35685 0.0
O1067 O 0.08055 0.89151 0.41075 0.0
O1068 O 0.12623 0.93254 0.30916 0.0
O1069 O 0.10741 0.89249 0.29461 0.0
O1070 O 0.0977 0.94463 0.42491 0.0
O1071 O 0.11999 0.98535 0.39214 0.0
H1072 H 0.14626 0.99716 0.16465 0.0
H1073 H 0.18293 0.00865 0.09755 0.0
H1074 H 0.23107 0.05818 0.21429 0.0
H1075 H 0.19367 0.04705 0.28206 0.0
H1076 H 0.03983 0.94335 0.44123 0.0
H1077 H 0.00811 0.95577 0.51636 0.0
H1078 H 0.9893 0.86472 0.53964 0.0
H1079 H 0.02174 0.85251 0.46524 0.0
Tb1080 Tb 0.7639 0.36144 1.03987 0.0
Tb1081 Tb 0.81687 0.33217 0.08524 0.0
C1082 C 0.73255 0.39978 0.99869 0.0
C1083 C 0.7401 0.42433 0.96447 0.0
C1084 C 0.76762 0.43682 0.96965 0.0
C1085 C 0.77822 0.45468 0.92954 0.0
C1086 C 0.76151 0.46054 0.88407 0.0
C1087 C 0.73267 0.45093 0.88183 0.0
C1088 C 0.72201 0.43262 0.92199 0.0
C1089 C 0.75256 0.30749 1.07494 0.0
C1090 C 0.79899 0.31665 0.96657 0.0
C1091 C 0.84899 0.29992 0.1402 0.0
C1092 C 0.84164 0.28131 0.18657 0.0
C1093 C 0.81271 0.27331 0.19626 0.0
C1094 C 0.80555 0.25572 0.24018 0.0
C1095 C 0.82715 0.24595 0.27562 0.0
C1096 C 0.85613 0.25392 0.26553 0.0
C1097 C 0.86328 0.27141 0.22141 0.0
C1098 C 0.83095 0.37568 1.01676 0.0
C1099 C 0.76854 0.35744 0.16797 0.0
O1100 O 0.7431 0.40134 1.04737 0.0
O1101 O 0.73627 0.37409 0.97706 0.0
O1102 O 0.77563 0.31892 1.05943 0.0
O1103 O 0.73338 0.32782 1.0682 0.0
O1104 O 0.78144 0.33977 0.96677 0.0
O1105 O 0.81201 0.30768 1.01117 0.0
O1106 O 0.83729 0.29199 0.09468 0.0
O1107 O 0.84708 0.32803 0.14804 0.0
O1108 O 0.80883 0.37458 1.04867 0.0
O1109 O 0.84743 0.35445 1.03188 0.0
O1110 O 0.79311 0.3433 0.16007 0.0
O1111 O 0.75419 0.36829 0.12641 0.0
H1112 H 0.78194 0.43083 1.00228 0.0
H1113 H 0.80054 0.46139 0.9312 0.0
H1114 H 0.71963 0.45478 0.84636 0.0
H1115 H 0.70067 0.42315 0.91764 0.0
H1116 H 0.79559 0.28081 0.16994 0.0
H1117 H 0.78303 0.25034 0.24708 0.0
H1118 H 0.87334 0.24654 0.29171 0.0
H1119 H 0.8857 0.27725 0.21458 0.0
Tb1120 Tb 0.38074 0.98745 0.28517 0.0
Tb1121 Tb 0.4159 0.94021 0.24261 0.0
C1122 C 0.33518 0.01434 0.30787 0.0
C1123 C 0.31129 0.00559 0.34274 0.0
C1124 C 0.30356 0.9762 0.34483 0.0
C1125 C 0.28856 0.96555 0.38873 0.0
C1126 C 0.28073 0.984 0.43086 0.0
C1127 C 0.28534 0.01403 0.42572 0.0
C1128 C 0.30075 0.02479 0.38172 0.0
C1129 C 0.43376 0.00457 0.26948 0.0
C1130 C 0.42767 0.95948 0.36021 0.0
C1131 C 0.4522 0.91054 0.19134 0.0
C1132 C 0.46938 0.9155 0.14225 0.0
C1133 C 0.46756 0.94186 0.11403 0.0
C1134 C 0.48587 0.94734 1.07028 0.0
C1135 C 0.50613 0.92642 1.0536 0.0
C1136 C 0.50767 0.89997 1.08185 0.0
C1137 C 0.48956 0.89464 0.12584 0.0
C1138 C 0.3771 0.9201 0.31636 0.0
C1139 C 0.38569 0.98203 0.15625 0.0
O1140 O 0.33834 0.99879 0.26436 0.0
O1141 O 0.35975 0.01846 0.33285 0.0
O1142 O 0.4198 0.98644 0.24093 0.0
O1143 O 0.41629 0.0164 0.30392 0.0
O1144 O 0.40119 0.97108 0.35996 0.0
O1145 O 0.43961 0.95027 0.31517 0.0
O1146 O 0.45888 0.92754 0.23149 0.0
O1147 O 0.42408 0.90755 0.18556 0.0
O1148 O 0.37332 0.94091 0.28237 0.0
O1149 O 0.40143 0.90842 0.30295 0.0
O1150 O 0.3959 0.95562 0.16606 0.0
O1151 O 0.38019 0.99936 0.19775 0.0
H1152 H 0.31143 0.96089 0.31529 0.0
H1153 H 0.28563 0.94242 0.39231 0.0
H1154 H 0.27986 0.02868 0.45815 0.0
H1155 H 0.30671 0.04753 0.38072 0.0
H1156 H 0.45221 0.95834 0.12619 0.0
H1157 H 0.48387 0.96777 1.04903 0.0
H1158 H 0.52317 0.88349 1.07036 0.0
H1159 H 0.49157 0.87433 0.14749 0.0
Tb1160 Tb 0.75761 0.64365 1.0288 0.0
Tb1161 Tb 0.81407 0.66784 0.98798 0.0
C1162 C 0.71701 0.61525 1.07099 0.0
C1163 C 0.7114 0.59794 0.11944 0.0
C1164 C 0.71212 0.56749 0.11671 0.0
C1165 C 0.71491 0.55118 0.16362 0.0
C1166 C 0.71666 0.56541 0.21315 0.0
C1167 C 0.7098 0.59507 0.21612 0.0
C1168 C 0.70766 0.61141 0.1694 0.0
C1169 C 0.75357 0.69673 0.98494 0.0
C1170 C 0.7965 0.68287 0.10629 0.0
C1171 C 0.84651 0.70004 0.93325 0.0
C1172 C 0.83922 0.71712 0.88471 0.0
C1173 C 0.81026 0.71912 0.86772 0.0
C1174 C 0.80244 0.73719 0.82493 0.0
C1175 C 0.82356 0.75317 0.79728 0.0
C1176 C 0.8527 0.75065 0.81342 0.0
C1177 C 0.86042 0.73299 0.85713 0.0
C1178 C 0.82375 0.62621 1.06024 0.0
C1179 C 0.76895 0.63963 0.90243 0.0
O1180 O 0.73576 0.60422 1.03718 0.0
O1181 O 0.72077 0.64321 1.0776 0.0
O1182 O 0.77376 0.68479 1.00953 0.0
O1183 O 0.73285 0.67788 0.98677 0.0
O1184 O 0.77597 0.66251 0.10347 0.0
O1185 O 0.81128 0.69125 1.06333 0.0
O1186 O 0.83313 0.70858 0.97671 0.0
O1187 O 0.84616 0.67166 0.92826 0.0
O1188 O 0.80198 0.62692 1.02727 0.0
O1189 O 0.84264 0.64479 1.04256 0.0
O1190 O 0.79361 0.65311 0.91232 0.0
O1191 O 0.75204 0.63158 0.94288 0.0
H1192 H 0.71321 0.55656 1.0783 0.0
H1193 H 0.7191 0.52813 0.16057 0.0
H1194 H 0.70975 0.60624 0.2544 0.0
H1195 H 0.70548 0.63474 0.17274 0.0
H1196 H 0.79352 0.70704 0.88823 0.0
H1197 H 0.77993 0.73832 0.8129 0.0
H1198 H 0.86946 0.76264 0.79254 0.0
H1199 H 0.88286 0.73192 0.86961 0.0
Tb1200 Tb 0.11566 0.01152 0.78975 0.0
Tb1201 Tb 0.08708 0.06508 0.74282 0.0
C1202 C 0.15323 0.98183 0.83744 0.0
C1203 C 0.17589 0.99135 0.87464 0.0
C1204 C 0.1848 0.02027 0.87274 0.0
C1205 C 0.20387 0.03123 0.91062 0.0
C1206 C 0.21443 0.01354 0.95204 0.0
C1207 C 0.20664 0.98388 0.95228 0.0
C1208 C 0.18743 0.97286 0.91376 0.0
C1209 C 0.06195 0.00115 0.75478 0.0
C1210 C 0.07162 0.04932 0.86231 0.0
C1211 C 0.05416 0.09598 0.68657 0.0
C1212 C 0.03516 0.08801 0.64101 0.0
C1213 C 0.02939 0.0587 0.62925 0.0
C1214 C 0.01084 0.05114 0.58686 0.0
C1215 C 0.99769 0.07274 0.5552 0.0
C1216 C 0.00323 0.10208 0.56786 0.0
C1217 C 0.02176 0.10959 0.61021 0.0
C1218 C 0.13003 0.07848 0.81179 0.0
C1219 C 0.11258 0.01563 0.66092 0.0
O1220 O 0.15632 0.99174 0.78844 0.0
O1221 O 0.12662 0.98463 0.85494 0.0
O1222 O 0.07368 0.02412 0.77021 0.0
O1223 O 0.08179 0.98136 0.7615 0.0
O1224 O 0.09287 0.02956 0.86131 0.0
O1225 O 0.0633 0.06303 0.81803 0.0
O1226 O 0.04664 0.08471 0.73269 0.0
O1227 O 0.08222 0.09433 0.67835 0.0
O1228 O 0.12898 0.05632 0.78003 0.0
O1229 O 0.10999 0.09603 0.79519 0.0
O1230 O 0.09926 0.0408 0.66859 0.0
O1231 O 0.12249 0.00079 0.70302 0.0
H1232 H 0.17603 0.03473 0.84276 0.0
H1233 H 0.20918 0.05405 0.90867 0.0
H1234 H 0.21371 0.96958 0.98415 0.0
H1235 H 0.1807 0.95038 0.91592 0.0
H1236 H 0.03927 0.04162 0.65287 0.0
H1237 H 0.00736 0.02839 0.57812 0.0
H1238 H 0.99318 0.11935 0.545 0.0
H1239 H 0.02557 0.1323 0.61895 0.0
Tb1240 Tb 0.72791 0.35885 0.52006 0.0
Tb1241 Tb 0.67247 0.33427 0.47666 0.0
C1242 C 0.76646 0.39235 0.5535 0.0
C1243 C 0.77191 0.4141 0.59411 0.0
C1244 C 0.752 0.41818 0.63544 0.0
C1245 C 0.75859 0.43713 0.67673 0.0
C1246 C 0.78468 0.45283 0.67634 0.0
C1247 C 0.80421 0.44952 0.63392 0.0
C1248 C 0.79769 0.43023 0.59247 0.0
C1249 C 0.7332 0.30391 0.48516 0.0
C1250 C 0.68831 0.32101 0.59797 0.0
C1251 C 0.63929 0.30196 0.42381 0.0
C1252 C 0.64617 0.28248 0.37828 0.0
C1253 C 0.67513 0.27581 0.36576 0.0
C1254 C 0.68182 0.25728 0.32287 0.0
C1255 C 0.65969 0.24498 0.29142 0.0
C1256 C 0.63069 0.25136 0.30486 0.0
C1257 C 0.62403 0.26992 0.34773 0.0
C1258 C 0.66231 0.37914 0.54399 0.0
C1259 C 0.72129 0.3569 0.39223 0.0
O1260 O 0.74717 0.3997 0.51739 0.0
O1261 O 0.76337 0.36555 0.57067 0.0
O1262 O 0.71187 0.317 0.50404 0.0
O1263 O 0.75385 0.32295 0.48643 0.0
O1264 O 0.70881 0.34151 0.59556 0.0
O1265 O 0.67429 0.3123 0.55418 0.0
O1266 O 0.65098 0.29447 0.46954 0.0
O1267 O 0.64169 0.32994 0.41473 0.0
O1268 O 0.68436 0.37581 0.51249 0.0
O1269 O 0.64354 0.3602 0.52718 0.0
O1270 O 0.69574 0.34476 0.4007 0.0
O1271 O 0.73697 0.36574 0.43354 0.0
H1272 H 0.73208 0.40576 0.63698 0.0
H1273 H 0.74405 0.4383 0.71083 0.0
H1274 H 0.82486 0.46064 0.63428 0.0
H1275 H 0.81316 0.42709 0.56031 0.0
H1276 H 0.69264 0.28507 0.38907 0.0
H1277 H 0.70435 0.2532 0.31357 0.0
H1278 H 0.61302 0.24198 0.28219 0.0
H1279 H 0.60158 0.27447 0.35697 0.0
C1280 C 0.19404 0.54881 0.51731 0.0
C1281 C 0.21313 0.53612 0.48073 0.0
H1282 H 0.17688 0.54695 0.59593 0.0
C1283 C 0.23541 0.51801 0.49958 0.0
H1284 H 0.17601 0.56192 0.50376 0.0
C1285 C 0.23579 0.50921 0.55319 0.0
C1286 C 0.21468 0.51976 0.58834 0.0
H1287 H 0.2504 0.50833 0.4718 0.0
H1288 H 0.25118 0.49293 0.56624 0.0
C1289 C 0.19459 0.54033 0.57044 0.0
C1290 C 0.75667 0.00096 0.82007 0.0
C1291 C 0.77804 0.98353 0.84389 0.0
H1292 H 0.73239 0.00966 0.74854 0.0
C1293 C 0.79709 0.96796 0.81138 0.0
H1294 H 0.74233 0.01379 0.84466 0.0
C1295 C 0.79118 0.96508 0.75711 0.0
C1296 C 0.76676 0.97858 0.73431 0.0
H1297 H 0.81364 0.95426 0.82901 0.0
H1298 H 0.80373 0.94945 0.73493 0.0
C1299 C 0.75077 0.99826 0.76538 0.0
C1300 C 0.28928 0.48511 1.02146 0.0
C1301 C 0.31635 0.47615 1.00184 0.0
H1302 H 0.26652 0.51388 1.07449 0.0
C1303 C 0.34131 0.49089 1.01883 0.0
H1304 H 0.26958 0.47473 1.00781 0.0
C1305 C 0.3396 0.51317 1.0554 0.0
C1306 C 0.31276 0.52225 1.07589 0.0
H1307 H 0.36256 0.4857 1.0032 0.0
H1308 H 0.35984 0.5227 1.06836 0.0
C1309 C 0.28753 0.50773 1.05897 0.0
C1310 C 0.79836 0.04867 0.29061 0.0
C1311 C 0.77158 0.03816 0.3092 0.0
H1312 H 0.82816 0.05023 0.22578 0.0
C1313 C 0.75931 0.01402 0.28331 0.0
H1314 H 0.80908 0.06629 0.31075 0.0
C1315 C 0.77034 0.00547 0.23338 0.0
C1316 C 0.7919 0.02251 0.20902 0.0
H1317 H 0.73959 0.00414 0.29798 0.0
H1318 H 0.75828 0.98999 0.20971 0.0
C1319 C 0.80996 0.03854 0.24267 0.0
C1320 C 0.75252 0.50557 1.04636 0.0
C1321 C 0.76822 0.52265 1.08287 0.0
H1322 H 0.74289 0.4984 0.96342 0.0
C1323 C 0.77802 0.55008 1.0661 0.0
H1324 H 0.74348 0.48489 1.05848 0.0
C1325 C 0.77775 0.55744 1.01209 0.0
C1326 C 0.76852 0.53709 0.97453 0.0
H1327 H 0.78979 0.56406 0.0928 0.0
H1328 H 0.79016 0.57606 0.99913 0.0
C1329 C 0.75205 0.51333 0.99211 0.0
C1330 C 0.26093 0.02496 0.79998 0.0
C1331 C 0.24969 0.05118 0.81953 0.0
H1332 H 0.25994 0.99461 0.73501 0.0
C1333 C 0.22373 0.06194 0.79802 0.0
H1334 H 0.28034 0.01557 0.8171 0.0
C1335 C 0.21148 0.04918 0.75318 0.0
C1336 C 0.22647 0.02707 0.72668 0.0
H1337 H 0.21356 0.08112 0.81439 0.0
H1338 H 0.19341 0.06015 0.73421 0.0
C1339 C 0.24893 0.0126 0.75383 0.0
C1340 C 0.68963 0.52513 0.53298 0.0
C1341 C 0.69976 0.49919 0.51024 0.0
H1342 H 0.69152 0.55391 0.59925 0.0
C1343 C 0.72503 0.48632 0.53051 0.0
H1344 H 0.67136 0.53669 0.51599 0.0
C1345 C 0.73756 0.4972 0.57726 0.0
C1346 C 0.72414 0.52013 0.60483 0.0
H1347 H 0.73379 0.46675 0.51285 0.0
H1348 H 0.75501 0.48522 0.59577 0.0
C1349 C 0.70197 0.53575 0.5796 0.0
C1350 C 0.22944 0.98404 0.32143 0.0
C1351 C 0.21051 0.9617 0.3368 0.0
H1352 H 0.25511 0.00142 0.25687 0.0
C1353 C 0.19569 0.94613 0.29754 0.0
H1354 H 0.24032 0.99694 0.35141 0.0
C1355 C 0.20432 0.94826 0.24471 0.0
C1356 C 0.22632 0.9674 0.22952 0.0
H1357 H 0.1821 0.92802 0.30893 0.0
H1358 H 0.19721 0.93165 0.21746 0.0
C1359 C 0.23797 0.98647 0.2677 0.0
C1360 C 0.69691 0.04159 1.07834 0.0
C1361 C 0.7161 0.02058 0.09802 0.0
H1362 H 0.67959 0.06284 1.00996 0.0
C1363 C 0.73676 0.00841 1.06366 0.0
H1364 H 0.67961 0.04969 0.10319 0.0
C1365 C 0.73659 0.01577 1.00933 0.0
C1366 C 0.71529 0.03459 0.98908 0.0
H1367 H 0.75166 0.992 1.07804 0.0
H1368 H 0.75099 0.00462 0.98232 0.0
C1369 C 0.69681 0.04897 1.02458 0.0
C1370 C 0.2935 0.46544 0.26368 0.0
C1371 C 0.26793 0.47737 0.24244 0.0
H1372 H 0.31813 0.45724 0.33421 0.0
C1373 C 0.25202 0.49729 0.27299 0.0
H1374 H 0.30602 0.44984 0.24126 0.0
C1375 C 0.25966 0.50213 0.32638 0.0
C1376 C 0.28189 0.48565 0.34983 0.0
H1377 H 0.23271 0.50741 0.25691 0.0
H1378 H 0.24573 0.5153 0.3511 0.0
C1379 C 0.30077 0.47003 0.31696 0.0
C1380 C 0.8153 0.97538 0.52284 0.0
C1381 C 0.78978 0.98169 0.49489 0.0
H1382 H 0.84465 0.98824 0.58367 0.0
C1383 C 0.77107 0.00329 0.51459 0.0
H1384 H 0.83029 0.95902 0.50857 0.0
C1385 C 0.77967 0.02069 0.55781 0.0
C1386 C 0.80708 0.01653 0.58071 0.0
H1387 H 0.75132 0.0084 0.49337 0.0
H1388 H 0.7658 0.03815 0.57131 0.0
C1389 C 0.8241 0.99292 0.56454 0.0
C1390 C 0.26167 0.49964 0.74904 0.0
C1391 C 0.28471 0.51682 0.73066 0.0
H1392 H 0.23439 0.48961 0.81621 0.0
C1393 C 0.30448 0.52777 0.76769 0.0
H1394 H 0.24717 0.48942 0.72082 0.0
C1395 C 0.2971 0.52855 0.82154 0.0
C1396 C 0.27065 0.51684 0.83938 0.0
H1397 H 0.32246 0.54094 0.75413 0.0
H1398 H 0.31036 0.54164 0.84732 0.0
C1399 C 0.25422 0.50008 0.80343 0.0
C1400 C 0.29669 0.94404 0.55726 0.0
C1401 C 0.27824 0.95807 0.59318 0.0
H1402 H 0.31311 0.94375 0.4781 0.0
C1403 C 0.25571 0.97559 0.57352 0.0
H1404 H 0.31476 0.93122 0.5717 0.0
C1405 C 0.25459 0.98262 0.51904 0.0
C1406 C 0.2755 0.97134 0.48409 0.0
H1407 H 0.2413 0.98646 0.60102 0.0
H1408 H 0.2389 0.99838 0.50504 0.0
C1409 C 0.29565 0.9511 0.50333 0.0
C1410 C 0.72843 0.52382 0.27542 0.0
C1411 C 0.73325 0.55227 0.25732 0.0
H1412 H 0.73845 0.49246 0.33649 0.0
C1413 C 0.75599 0.56849 0.27943 0.0
H1414 H 0.71161 0.51055 0.2577 0.0
C1415 C 0.77199 0.55772 0.32183 0.0
C1416 C 0.76472 0.53097 0.34489 0.0
H1417 H 0.76088 0.59009 0.26488 0.0
H1418 H 0.78765 0.57201 0.3406 0.0
C1419 C 0.74408 0.51326 0.31946 0.0
C1420 C 0.21912 0.06114 1.0722 0.0
C1421 C 0.23019 0.04094 0.10838 0.0
H1422 H 0.20533 0.06807 0.99263 0.0
C1423 C 0.248 0.01879 0.08852 0.0
H1424 H 0.20617 0.07905 0.0867 0.0
C1425 C 0.2461 0.01104 1.03438 0.0
C1426 C 0.22803 0.02705 1.00003 0.0
H1427 H 0.2594 0.00473 0.11584 0.0
H1428 H 0.25622 0.99112 1.02103 0.0
C1429 C 0.21787 0.05414 1.01804 0.0
C1430 C 0.80545 0.4459 0.76315 0.0
C1431 C 0.79347 0.46571 0.72708 0.0
H1432 H 0.80144 0.42746 0.8407 0.0
C1433 C 0.77758 0.48938 0.74657 0.0
H1434 H 0.81697 0.427 0.74856 0.0
C1435 C 0.76809 0.48939 0.79979 0.0
C1436 C 0.77666 0.4669 0.83401 0.0
H1437 H 0.76948 0.50554 0.71916 0.0
H1438 H 0.75261 0.50553 0.81295 0.0
C1439 C 0.79643 0.44608 0.81603 0.0
C1440 C 0.15985 0.3707 0.41004 0.0
C1441 C 0.16594 0.38964 0.45314 0.0
H1442 H 0.1451 0.36417 0.32943 0.0
C1443 C 0.1606 0.41951 0.44272 0.0
H1444 H 0.16134 0.34756 0.41596 0.0
C1445 C 0.14895 0.42929 0.39208 0.0
C1446 C 0.14344 0.40985 0.34888 0.0
H1447 H 0.16329 0.43507 0.47486 0.0
H1448 H 0.14223 0.45162 0.38857 0.0
C1449 C 0.14979 0.38044 0.35958 0.0
C1450 C 0.84963 0.87951 0.71569 0.0
C1451 C 0.85554 0.90905 0.72628 0.0
H1452 H 0.83856 0.84633 0.65972 0.0
C1453 C 0.85006 0.92833 0.68276 0.0
H1454 H 0.85425 0.86335 0.74615 0.0
C1455 C 0.83927 0.91807 0.63174 0.0
C1456 C 0.83385 0.88816 0.62171 0.0
H1457 H 0.8553 0.9511 0.68708 0.0
H1458 H 0.8369 0.93336 0.5992 0.0
C1459 C 0.83987 0.86947 0.66524 0.0
C1460 C 0.33925 0.62281 0.91366 0.0
C1461 C 0.33423 0.60533 0.95931 0.0
H1462 H 0.35356 0.62681 0.83212 0.0
C1463 C 0.34112 0.57547 0.9529 0.0
H1464 H 0.33659 0.64599 0.91646 0.0
C1465 C 0.35267 0.56413 0.90341 0.0
C1466 C 0.35707 0.58208 0.8576 0.0
H1467 H 0.33926 0.56116 0.98706 0.0
H1468 H 0.35923 0.5416 0.90191 0.0
C1469 C 0.34962 0.61157 0.86448 0.0
C1470 C 0.66995 0.10124 0.14225 0.0
C1471 C 0.65071 0.10647 0.09865 0.0
H1472 H 0.67541 0.08786 0.2258 0.0
C1473 C 0.62126 0.10069 0.1097 0.0
H1474 H 0.69256 0.10651 0.13757 0.0
C1475 C 0.61141 0.09081 0.16038 0.0
C1476 C 0.63021 0.08465 0.20374 0.0
H1477 H 0.6051 0.10532 1.07934 0.0
H1478 H 0.58832 0.08932 0.16621 0.0
C1479 C 0.65998 0.09026 0.19342 0.0
C1480 C 0.16665 0.58774 0.69922 0.0
C1481 C 0.13677 0.58407 0.71129 0.0
H1482 H 0.19929 0.6008 0.64075 0.0
C1483 C 0.11765 0.59099 0.66893 0.0
H1484 H 0.18244 0.58479 0.73085 0.0
C1485 C 0.12722 0.59967 0.6175 0.0
C1486 C 0.15676 0.60355 0.60478 0.0
H1487 H 0.09466 0.59154 0.67621 0.0
H1488 H 0.11085 0.60505 0.58795 0.0
C1489 C 0.17645 0.59734 0.64714 0.0
C1490 C 0.6489 0.92729 0.89754 0.0
C1491 C 0.64201 0.90829 0.8543 0.0
H1492 H 0.66382 0.93213 0.98027 0.0
C1493 C 0.64591 0.87848 0.86555 0.0
H1494 H 0.64387 0.95003 0.8939 0.0
C1495 C 0.65501 0.86808 0.91625 0.0
C1496 C 0.66274 0.88654 0.95919 0.0
H1497 H 0.64009 0.86251 0.83553 0.0
H1498 H 0.65472 0.84491 0.92236 0.0
C1499 C 0.65976 0.91673 0.94837 0.0
C1500 C 0.35467 0.38815 0.2017 0.0
C1501 C 0.35805 0.4179 0.21413 0.0
H1502 H 0.34654 0.35513 0.14372 0.0
C1503 C 0.35067 0.43735 0.1719 0.0
H1504 H 0.36087 0.37191 0.23102 0.0
C1505 C 0.34062 0.42705 0.12035 0.0
C1506 C 0.33751 0.39697 0.10851 0.0
H1507 H 0.35381 0.46041 0.1776 0.0
H1508 H 0.33673 0.4427 0.08895 0.0
C1509 C 0.34553 0.37817 0.15076 0.0
C1510 C 0.83846 0.07303 0.45782 0.0
C1511 C 0.8309 0.10276 0.46395 0.0
H1512 H 0.85889 0.03998 0.40859 0.0
C1513 C 0.83598 0.12024 0.41825 0.0
H1514 H 0.83685 0.05868 0.49212 0.0
C1515 C 0.84716 0.10925 0.36953 0.0
C1516 C 0.85553 0.08002 0.36322 0.0
H1517 H 0.83341 0.14334 0.4208 0.0
H1518 H 0.85113 0.12452 0.33725 0.0
C1519 C 0.85095 0.06202 0.4089 0.0
C1520 C 0.8234 0.59347 0.20639 0.0
C1521 C 0.85307 0.58655 0.21433 0.0
H1522 H 0.79005 0.61064 0.15323 0.0
C1523 C 0.87094 0.59111 0.16912 0.0
H1524 H 0.809 0.59255 0.2404 0.0
C1525 C 0.86023 0.60067 0.11896 0.0
C1526 C 0.83088 0.60795 0.11055 0.0
H1527 H 0.89403 0.58935 0.17303 0.0
H1528 H 0.87578 0.60437 0.08712 0.0
C1529 C 0.81251 0.60411 0.15584 0.0
C1530 C 0.14037 0.07308 0.91441 0.0
C1531 C 0.14761 0.08494 0.86345 0.0
H1532 H 0.14255 0.07626 1.00108 0.0
C1533 C 0.16662 0.109 0.86519 0.0
H1534 H 0.1256 0.05515 0.91725 0.0
C1535 C 0.17746 0.12061 0.91435 0.0
C1536 C 0.16928 0.10955 0.96536 0.0
H1537 H 0.17224 0.11989 0.82808 0.0
H1538 H 0.19093 0.13955 0.91157 0.0
C1539 C 0.15049 0.08528 0.96371 0.0
C1540 C 0.66504 0.41991 0.61936 0.0
C1541 C 0.6594 0.39098 0.60212 0.0
H1542 H 0.65832 0.45312 0.6804 0.0
C1543 C 0.64471 0.37339 0.63988 0.0
H1544 H 0.67523 0.43495 0.5918 0.0
C1545 C 0.636 0.38345 0.69092 0.0
C1546 C 0.64034 0.41232 0.70816 0.0
H1547 H 0.63856 0.3515 0.62914 0.0
H1548 H 0.62425 0.36845 0.71639 0.0
C1549 C 0.65545 0.43043 0.67111 0.0
C1550 C 0.37178 0.89721 0.46559 0.0
C1551 C 0.34252 0.8899 0.47504 0.0
H1552 H 0.4048 0.91062 0.41086 0.0
C1553 C 0.32357 0.89445 0.43078 0.0
H1554 H 0.38773 0.89313 0.49658 0.0
C1555 C 0.33363 0.90614 0.38035 0.0
C1556 C 0.36319 0.9133 0.37161 0.0
H1557 H 0.30117 0.88814 0.4344 0.0
H1558 H 0.31852 0.90796 0.34732 0.0
C1559 C 0.38175 0.90792 0.41563 0.0
C1560 C 0.85084 0.37902 0.86618 0.0
C1561 C 0.85609 0.4085 0.85426 0.0
H1562 H 0.84092 0.34639 0.92386 0.0
C1563 C 0.85067 0.42816 0.89704 0.0
H1564 H 0.85566 0.36262 0.83634 0.0
C1565 C 0.84035 0.4184 0.94868 0.0
C1566 C 0.83499 0.3886 0.95983 0.0
H1567 H 0.85532 0.4509 0.89134 0.0
H1568 H 0.83803 0.4341 0.98068 0.0
C1569 C 0.84136 0.36946 0.91716 0.0
C1570 C 0.33655 0.08697 0.62947 0.0
C1571 C 0.3295 0.11675 0.62268 0.0
H1572 H 0.35607 0.05412 0.68011 0.0
C1573 C 0.33329 0.13415 0.66885 0.0
H1574 H 0.33582 0.07271 0.595 0.0
C1575 C 0.34262 0.12287 0.71887 0.0
C1576 C 0.35048 0.09349 0.72608 0.0
H1577 H 0.33051 0.15732 0.66585 0.0
H1578 H 0.34567 0.13804 0.7516 0.0
C1579 C 0.34754 0.07584 0.67957 0.0
C1580 C 0.67333 0.5841 0.37145 0.0
C1581 C 0.64365 0.587 0.3569 0.0
H1582 H 0.70739 0.59409 0.42904 0.0
C1583 C 0.6259 0.60008 0.39634 0.0
H1584 H 0.68846 0.57548 0.34239 0.0
C1585 C 0.63655 0.60984 0.44646 0.0
C1586 C 0.66606 0.60813 0.46097 0.0
H1587 H 0.6034 0.60437 0.38744 0.0
H1588 H 0.62139 0.62037 0.47329 0.0
C1589 C 0.68432 0.59468 0.42215 0.0
C1590 C 0.15903 0.91175 0.12919 0.0
C1591 C 0.16648 0.8821 0.1213 0.0
H1592 H 0.14073 0.94458 0.18229 0.0
C1593 C 0.1615 0.86389 0.16606 0.0
H1594 H 0.1607 0.92667 0.09574 0.0
C1595 C 0.15116 0.87424 0.21599 0.0
C1596 C 0.14363 0.90355 0.22467 0.0
H1597 H 0.16425 0.84078 0.16198 0.0
H1598 H 0.14758 0.85851 0.24766 0.0
C1599 C 0.1473 0.92213 0.1794 0.0
C1600 C 0.98578 0.52292 0.30553 0.0
C1601 C 0.96642 0.49949 0.31042 0.0
H1602 H 0.02682 0.53815 0.27713 0.0
C1603 C 0.97478 0.47241 0.28962 0.0
H1604 H 0.98009 0.54406 0.32094 0.0
C1605 C 0.00159 0.46905 0.26396 0.0
C1606 C 0.02068 0.49264 0.25824 0.0
H1607 H 0.9603 0.45396 0.29179 0.0
H1608 H 0.00746 0.44788 0.24895 0.0
C1609 C 0.01241 0.51965 0.27941 0.0
C1610 C 0.76319 0.76122 0.48732 0.0
C1611 C 0.75031 0.77946 0.52532 0.0
H1612 H 0.77519 0.71773 0.46688 0.0
C1613 C 0.74011 0.76732 0.57375 0.0
H1614 H 0.7712 0.76994 0.44984 0.0
C1615 C 0.74281 0.73763 0.58402 0.0
C1616 C 0.75519 0.71927 0.5458 0.0
H1617 H 0.73048 0.78087 0.60444 0.0
H1618 H 0.73527 0.72905 0.62181 0.0
C1619 C 0.76558 0.73138 0.49742 0.0
C1620 C 0.51236 0.49032 0.81209 0.0
C1621 C 0.5338 0.5023 0.77915 0.0
H1622 H 0.46717 0.48077 0.82092 0.0
C1623 C 0.52622 0.51205 0.7273 0.0
H1624 H 0.51752 0.48303 0.85226 0.0
C1625 C 0.49772 0.51046 0.70918 0.0
C1626 C 0.47624 0.4991 0.74245 0.0
H1627 H 0.54232 0.52115 0.70052 0.0
H1628 H 0.49237 0.51899 0.66998 0.0
C1629 C 0.48375 0.4887 0.79383 0.0
C1630 C 0.71454 0.24443 1.00781 0.0
C1631 C 0.73735 0.22461 1.00078 0.0
H1632 H 0.70093 0.28555 1.03882 0.0
C1633 C 0.76465 0.23152 1.02225 0.0
H1634 H 0.69317 0.23956 0.99262 0.0
C1635 C 0.76891 0.25752 1.0502 0.0
C1636 C 0.74617 0.2775 1.05672 0.0
H1637 H 0.78255 0.21646 1.01896 0.0
H1638 H 0.79024 0.26225 1.06579 0.0
C1639 C 0.71885 0.27052 1.03547 0.0
C1640 C 0.97931 0.5208 0.77937 0.0
C1641 C 0.97184 0.4949 0.75297 0.0
H1642 H 0.01082 0.54333 0.82663 0.0
C1643 C 0.99141 0.47163 0.75429 0.0
H1644 H 0.96441 0.53893 0.78044 0.0
C1645 C 0.01758 0.47388 0.78205 0.0
C1646 C 0.02507 0.49969 0.80868 0.0
H1647 H 0.98614 0.45133 0.73495 0.0
H1648 H 0.03225 0.45556 0.78141 0.0
C1649 C 0.0056 0.5231 0.80703 0.0
C1650 C 0.73836 0.73403 1.05114 0.0
C1651 C 0.74793 0.72717 0.9989 0.0
H1652 H 0.73285 0.76728 0.11074 0.0
C1653 C 0.75828 0.74929 0.96587 0.0
H1654 H 0.73117 0.71701 1.07807 0.0
C1655 C 0.75997 0.77764 0.98502 0.0
C1656 C 0.75077 0.78468 1.03746 0.0
H1657 H 0.76586 0.74464 0.92582 0.0
H1658 H 0.76841 0.79413 0.95824 0.0
C1659 C 0.73968 0.76262 1.07021 0.0
C1660 C 0.48144 0.52928 0.28671 0.0
C1661 C 0.47529 0.50358 0.31492 0.0
H1662 H 0.51146 0.55213 0.23657 0.0
C1663 C 0.49532 0.4807 0.31274 0.0
H1664 H 0.46613 0.54708 0.28626 0.0
C1665 C 0.52064 0.48312 0.28241 0.0
C1666 C 0.52675 0.50873 0.25397 0.0
H1667 H 0.49116 0.46066 0.33379 0.0
H1668 H 0.53593 0.4653 0.283 0.0
C1669 C 0.50694 0.53183 0.25674 0.0
C1670 C 0.7189 0.22839 0.53976 0.0
C1671 C 0.74635 0.2202 0.55887 0.0
H1672 H 0.6936 0.26065 0.49922 0.0
C1673 C 0.7697 0.23935 0.55088 0.0
H1674 H 0.70051 0.214 0.54419 0.0
C1675 C 0.76593 0.26566 0.52356 0.0
C1676 C 0.73853 0.27379 0.50416 0.0
H1677 H 0.79117 0.23368 0.56471 0.0
H1678 H 0.78439 0.27994 0.51894 0.0
C1679 C 0.71507 0.25485 0.5128 0.0
C1680 C 0.22536 0.27529 1.0355 0.0
C1681 C 0.25239 0.28369 1.01497 0.0
H1682 H 0.20116 0.2431 1.07789 0.0
C1683 C 0.27628 0.26534 1.02364 0.0
H1684 H 0.20656 0.28908 1.03061 0.0
C1685 C 0.27343 0.23946 1.05242 0.0
C1686 C 0.24639 0.23098 1.07265 0.0
H1687 H 0.29744 0.27115 1.00895 0.0
H1688 H 0.2922 0.22559 1.05685 0.0
C1689 C 0.22244 0.24929 1.064 0.0
C1690 C 0.22281 0.73719 0.52558 0.0
C1691 C 0.24564 0.71844 0.51142 0.0
H1692 H 0.20994 0.77696 0.56311 0.0
C1693 C 0.27393 0.72613 0.52626 0.0
H1694 H 0.20073 0.73182 0.51554 0.0
C1695 C 0.27913 0.75178 0.55472 0.0
C1696 C 0.25628 0.77051 0.56887 0.0
H1697 H 0.29199 0.712 0.51714 0.0
H1698 H 0.30124 0.75724 0.56466 0.0
C1699 C 0.228 0.76281 0.55409 0.0
C1700 C 0.25857 0.24195 0.4904 0.0
C1701 C 0.24417 0.22329 0.52563 0.0
H1702 H 0.27256 0.2852 0.47438 0.0
C1703 C 0.2322 0.23471 0.57325 0.0
H1704 H 0.26769 0.23384 0.45343 0.0
C1705 C 0.23501 0.26418 0.58568 0.0
C1706 C 0.24961 0.28279 0.55055 0.0
H1707 H 0.22118 0.22074 0.60167 0.0
H1708 H 0.22587 0.27233 0.62263 0.0
C1709 C 0.26144 0.27134 0.50285 0.0
C1710 C 0.23659 0.72693 1.00254 0.0
C1711 C 0.24862 0.71482 1.04955 0.0
H1712 H 0.22986 0.76525 0.9552 0.0
C1713 C 0.26313 0.73299 0.08556 0.0
H1714 H 0.2255 0.71341 0.97354 0.0
C1715 C 0.26571 0.76266 1.07465 0.0
C1716 C 0.25363 0.77476 1.02768 0.0
H1717 H 0.27241 0.7243 0.12202 0.0
H1718 H 0.27674 0.77622 0.10366 0.0
C1719 C 0.23919 0.75657 0.99164 0.0
C1720 C 0.48818 0.02988 0.80006 0.0
C1721 C 0.47052 0.00668 0.81718 0.0
H1722 H 0.52769 0.04328 0.76218 0.0
C1723 C 0.4801 0.97827 0.8078 0.0
H1724 H 0.48143 0.05206 0.80595 0.0
C1725 C 0.50646 0.97327 0.78167 0.0
C1726 C 0.52408 0.99646 0.76439 0.0
H1727 H 0.46692 0.95987 0.81944 0.0
H1728 H 0.51316 0.95111 0.7758 0.0
C1729 C 0.51453 0.02488 0.77391 0.0
C1730 C 0.02064 0.01604 0.30035 0.0
C1731 C 0.02779 0.99007 0.3269 0.0
H1732 H 0.98966 0.03871 0.25211 0.0
C1733 C 0.00823 0.96677 0.3246 0.0
H1734 H 0.03553 0.0342 0.30002 0.0
C1735 C 0.9824 0.96906 0.2957 0.0
C1736 C 0.9753 0.99495 0.26888 0.0
H1737 H 0.01327 0.94642 0.34404 0.0
H1738 H 0.96764 0.9508 0.2958 0.0
C1739 C 0.99471 0.01839 0.27163 0.0
C1740 C 0.47699 0.01573 0.32587 0.0
C1741 C 0.46535 0.00444 0.27792 0.0
H1742 H 0.51485 0.02131 0.37471 0.0
C1743 C 0.48372 0.99068 0.24139 0.0
H1744 H 0.46322 0.02621 0.35519 0.0
C1745 C 0.5131 0.98761 0.25303 0.0
C1746 C 0.52473 0.99867 0.30113 0.0
H1747 H 0.47533 0.98208 0.20415 0.0
H1748 H 0.52678 0.97698 0.22373 0.0
C1749 C 0.50644 0.01275 0.33744 0.0
C1750 C 0.98625 0.01598 0.80485 0.0
C1751 C 0.97846 0.98915 0.82747 0.0
H1752 H 0.01783 0.04006 0.7607 0.0
C1753 C 0.99757 0.96559 0.8219 0.0
H1754 H 0.97168 0.03436 0.80675 0.0
C1755 C 0.02392 0.96878 0.79475 0.0
C1756 C 0.03177 0.99566 0.77234 0.0
H1757 H 0.99189 0.9445 0.83779 0.0
H1758 H 0.03845 0.95038 0.79263 0.0
C1759 C 0.01244 0.01908 0.77728 0.0
C1760 C 0.97954 0.40708 0.94889 0.0
C1761 C 0.97526 0.42255 0.99673 0.0
H1762 H 0.96836 0.40152 0.86667 0.0
C1763 C 0.95477 0.44529 0.99682 0.0
H1764 H 0.99541 0.38983 0.94678 0.0
C1765 C 0.93901 0.45223 0.95011 0.0
C1766 C 0.94365 0.43676 0.90223 0.0
H1767 H 0.95078 0.4576 1.03308 0.0
H1768 H 0.92347 0.4698 0.95139 0.0
C1769 C 0.96406 0.41405 0.90255 0.0
C1770 C 0.83029 0.71149 0.1634 0.0
C1771 C 0.80324 0.69782 0.1575 0.0
H1772 H 0.85758 0.73837 0.21161 0.0
C1773 C 0.78288 0.70025 0.19914 0.0
H1774 H 0.84657 0.70995 0.13222 0.0
C1775 C 0.78928 0.71684 0.24497 0.0
C1776 C 0.81625 0.73087 0.25027 0.0
H1777 H 0.76183 0.69008 0.19567 0.0
H1778 H 0.77322 0.71875 0.27634 0.0
C1779 C 0.83674 0.72768 0.20915 0.0
C1780 C 0.55488 0.54423 0.44454 0.0
C1781 C 0.55512 0.56388 0.40127 0.0
H1782 H 0.53795 0.53413 0.52282 0.0
C1783 C 0.53848 0.58938 0.40553 0.0
H1784 H 0.56734 0.52436 0.44263 0.0
C1785 C 0.52182 0.595 0.4512 0.0
C1786 C 0.521 0.57521 0.49411 0.0
H1787 H 0.53812 0.60511 0.3732 0.0
H1788 H 0.50896 0.61463 0.45227 0.0
C1789 C 0.53784 0.54974 0.4903 0.0
C1790 C 0.69059 0.29296 0.74268 0.0
C1791 C 0.66663 0.27391 0.74333 0.0
H1792 H 0.71622 0.32319 0.69674 0.0
C1793 C 0.64997 0.27133 0.69645 0.0
H1794 H 0.70383 0.29566 0.77821 0.0
C1795 C 0.65702 0.28696 0.6503 0.0
C1796 C 0.68103 0.30582 0.64914 0.0
H1797 H 0.63171 0.2566 0.69485 0.0
H1798 H 0.64354 0.28396 0.61516 0.0
C1799 C 0.69763 0.30888 0.69613 0.0
C1800 C 0.93739 0.54386 0.12012 0.0
C1801 C 0.94383 0.55733 0.16936 0.0
H1802 H 0.9481 0.53989 1.03634 0.0
C1803 C 0.96696 0.57726 0.17107 0.0
H1804 H 0.91976 0.52845 0.11728 0.0
C1805 C 0.98289 0.58391 0.1251 0.0
C1806 C 0.97644 0.57078 1.07575 0.0
H1807 H 0.97283 0.58807 0.20809 0.0
H1808 H 0.00058 0.59925 0.12842 0.0
C1809 C 0.95366 0.55039 1.07382 0.0
C1810 C 0.67935 0.70595 0.40814 0.0
C1811 C 0.70367 0.68754 0.41038 0.0
H1812 H 0.6538 0.73543 0.36161 0.0
C1813 C 0.72042 0.68398 0.36373 0.0
H1814 H 0.66567 0.70899 0.443 0.0
C1815 C 0.71352 0.69953 0.31666 0.0
C1816 C 0.68959 0.7185 0.31535 0.0
H1817 H 0.73919 0.6699 0.36405 0.0
H1818 H 0.72676 0.69672 0.28123 0.0
C1819 C 0.67235 0.72105 0.36134 0.0
C1820 C 0.5641 0.47006 0.61103 0.0
C1821 C 0.56496 0.4509 0.65499 0.0
H1822 H 0.54698 0.47851 0.53198 0.0
C1823 C 0.55004 0.42436 0.65071 0.0
H1824 H 0.5751 0.49078 0.61315 0.0
C1825 C 0.534 0.41739 0.60495 0.0
C1826 C 0.5321 0.43672 0.56142 0.0
H1827 H 0.55022 0.40898 0.68366 0.0
H1828 H 0.52218 0.39709 0.60468 0.0
C1829 C 0.54766 0.46313 0.56484 0.0
C1830 C 0.82174 0.27431 0.92043 0.0
C1831 C 0.80416 0.29923 0.91711 0.0
H1832 H 0.84176 0.23894 0.87948 0.0
C1833 C 0.79277 0.30705 0.86676 0.0
H1834 H 0.83078 0.26726 0.95838 0.0
C1835 C 0.79921 0.29044 0.82087 0.0
C1836 C 0.81738 0.26591 0.82446 0.0
H1837 H 0.77921 0.32609 0.86271 0.0
H1838 H 0.79047 0.29711 0.78245 0.0
C1839 C 0.82826 0.258 0.87494 0.0
C1840 C 0.02363 0.57326 0.67222 0.0
C1841 C 0.04766 0.55447 0.66973 0.0
H1842 H 0.98947 0.59475 0.63028 0.0
C1843 C 0.05496 0.54227 0.61977 0.0
H1844 H 0.01699 0.58301 0.70979 0.0
C1845 C 0.03875 0.54911 0.5735 0.0
C1846 C 0.01519 0.56855 0.57627 0.0
H1847 H 0.07329 0.52776 0.61629 0.0
H1848 H 0.045 0.53969 0.53542 0.0
C1849 C 0.00779 0.58023 0.62635 0.0
C1850 C 0.18661 0.28006 0.42244 0.0
C1851 C 0.20266 0.30603 0.41807 0.0
H1852 H 0.16586 0.24464 0.38261 0.0
C1853 C 0.2114 0.31502 0.36651 0.0
H1854 H 0.17961 0.27192 0.46113 0.0
C1855 C 0.20356 0.29871 0.32072 0.0
C1856 C 0.18641 0.27345 0.32565 0.0
H1857 H 0.22375 0.33481 0.36147 0.0
H1858 H 0.21022 0.30624 0.28141 0.0
C1859 C 0.17846 0.26426 0.37718 0.0
C1860 C 0.44319 0.46981 0.11942 0.0
C1861 C 0.44298 0.44938 0.16142 0.0
H1862 H 0.45902 0.48053 1.04056 0.0
C1863 C 0.45795 0.42309 0.15423 0.0
H1864 H 0.43195 0.4903 0.12371 0.0
C1865 C 0.47321 0.41749 0.10699 0.0
C1866 C 0.47421 0.43809 1.06547 0.0
H1867 H 0.45816 0.40675 0.18553 0.0
H1868 H 0.48492 0.39721 0.10363 0.0
C1869 C 0.45888 0.46431 1.07205 0.0
C1870 C 0.29937 0.69834 0.82206 0.0
C1871 C 0.31706 0.72319 0.82665 0.0
H1872 H 0.27798 0.66317 0.86332 0.0
C1873 C 0.32512 0.7325 0.87806 0.0
H1874 H 0.29268 0.69069 0.78288 0.0
C1875 C 0.31642 0.71719 0.92361 0.0
C1876 C 0.29962 0.69174 0.91947 0.0
H1877 H 0.33816 0.75185 0.88321 0.0
H1878 H 0.32349 0.72526 0.96227 0.0
C1879 C 0.2909 0.68261 0.86805 0.0
C1880 C 0.03866 0.40993 0.4087 0.0
C1881 C 0.05542 0.43538 0.40526 0.0
H1882 H 0.00961 0.38399 0.45483 0.0
C1883 C 0.0566 0.45381 0.45016 0.0
H1884 H 0.03725 0.39506 0.37515 0.0
C1885 C 0.0406 0.44723 0.49674 0.0
C1886 C 0.02334 0.42196 0.49945 0.0
H1887 H 0.06925 0.47359 0.44886 0.0
H1888 H 0.04167 0.46196 0.53051 0.0
C1889 C 0.0229 0.40336 0.45487 0.0
C1890 C 0.28684 0.30906 0.19729 0.0
C1891 C 0.30739 0.30929 0.15562 0.0
H1892 H 0.27516 0.2922 0.27496 0.0
C1893 C 0.33271 0.29265 0.16177 0.0
H1894 H 0.26702 0.32145 0.19367 0.0
C1895 C 0.33752 0.27631 0.20822 0.0
C1896 C 0.31693 0.27567 0.24965 0.0
H1897 H 0.34905 0.2923 0.13058 0.0
H1898 H 0.35723 0.26369 0.21128 0.0
C1899 C 0.29142 0.29216 0.24362 0.0
C1900 C 0.46149 0.54815 0.99818 0.0
C1901 C 0.48154 0.57131 0.99614 0.0
H1902 H 0.43024 0.52226 0.95506 0.0
C1903 C 0.48535 0.58579 0.9471 0.0
H1904 H 0.45789 0.53657 1.03542 0.0
C1905 C 0.4697 0.57768 0.90165 0.0
C1906 C 0.44953 0.55471 0.9032 0.0
H1907 H 0.50091 0.60326 0.94338 0.0
H1908 H 0.47365 0.58968 0.86496 0.0
C1909 C 0.44554 0.54001 0.95222 0.0
C1910 C 0.1584 0.72031 0.71151 0.0
C1911 C 0.17965 0.72196 0.7517 0.0
H1912 H 0.14628 0.70361 0.63479 0.0
C1913 C 0.20549 0.70609 0.74492 0.0
H1914 H 0.1384 0.73241 0.71509 0.0
C1915 C 0.20997 0.68921 0.69866 0.0
C1916 C 0.1889 0.6883 0.65795 0.0
H1917 H 0.22222 0.70673 0.77537 0.0
H1918 H 0.23022 0.67763 0.69407 0.0
C1919 C 0.16301 0.70385 0.66527 0.0
C1920 C 0.47216 0.94171 0.40699 0.0
C1921 C 0.4445 0.95451 0.41063 0.0
H1922 H 0.50832 0.92313 0.44807 0.0
C1923 C 0.43315 0.96007 0.46204 0.0
H1924 H 0.48204 0.9374 0.36839 0.0
C1925 C 0.44869 0.95189 0.5084 0.0
C1926 C 0.47567 0.93772 0.5041 0.0
H1927 H 0.41199 0.96989 0.46643 0.0
H1928 H 0.43922 0.9558 0.54749 0.0
C1929 C 0.48734 0.9333 0.45283 0.0
C1930 C 0.30315 0.22868 0.65549 0.0
C1931 C 0.29041 0.20091 0.6598 0.0
H1932 H 0.32188 0.26519 0.69541 0.0
C1933 C 0.28457 0.19011 0.71163 0.0
H1934 H 0.30754 0.23833 0.61667 0.0
C1935 C 0.2927 0.20617 0.7576 0.0
C1936 C 0.30709 0.23308 0.75242 0.0
H1937 H 0.27474 0.16895 0.71665 0.0
H1938 H 0.2887 0.1971 0.79704 0.0
C1939 C 0.31154 0.24428 0.70082 0.0
C1940 C 0.04274 0.04578 1.00626 0.0
C1941 C 0.02189 0.06818 1.00592 0.0
H1942 H 0.07513 0.02235 0.96173 0.0
C1943 C 0.01796 0.08403 0.95829 0.0
H1944 H 0.04649 0.0332 1.04234 0.0
C1945 C 0.03424 0.07782 0.91247 0.0
C1946 C 0.05513 0.05555 0.91253 0.0
H1947 H 0.00185 0.10105 0.956 0.0
H1948 H 0.03023 0.09061 0.87674 0.0
C1949 C 0.05928 0.03963 0.96015 0.0
C1950 C 0.21146 0.80819 0.2104 0.0
C1951 C 0.20389 0.7979 0.15912 0.0
H1952 H 0.20845 0.80147 0.29583 0.0
C1953 C 0.18843 0.7716 0.15539 0.0
H1954 H 0.22334 0.82831 0.21475 0.0
C1955 C 0.17958 0.75672 0.20122 0.0
C1956 C 0.1862 0.76734 0.25242 0.0
H1957 H 0.1824 0.76261 0.11682 0.0
H1958 H 0.1674 0.73677 0.19655 0.0
C1959 C 0.20284 0.7929 0.25671 0.0
C1960 C 0.45641 0.04492 0.58277 0.0
C1961 C 0.47114 0.0714 0.57491 0.0
H1962 H 0.42895 0.01955 0.63455 0.0
C1963 C 0.46839 0.09313 0.61407 0.0
H1964 H 0.4579 0.02779 0.55316 0.0
C1965 C 0.452 0.08838 0.66036 0.0
C1966 C 0.4376 0.06186 0.66877 0.0
H1967 H 0.47961 0.11363 0.60968 0.0
H1968 H 0.45094 0.10549 0.69008 0.0
C1969 C 0.43959 0.04029 0.62907 0.0
C1970 C 0.20757 0.21989 0.83251 0.0
C1971 C 0.18124 0.23501 0.82691 0.0
H1972 H 0.23385 0.19247 0.88258 0.0
C1973 C 0.16094 0.23369 0.86872 0.0
H1974 H 0.22358 0.22037 0.80074 0.0
C1975 C 0.16687 0.21801 0.91534 0.0
C1976 C 0.19316 0.20297 0.92127 0.0
H1977 H 0.14063 0.24532 0.8659 0.0
H1978 H 0.15073 0.21775 0.94688 0.0
C1979 C 0.21339 0.20379 0.87915 0.0
C1980 C 0.0325 0.91144 0.17944 0.0
C1981 C 0.05359 0.93355 0.17892 0.0
H1982 H 1.00005 0.88798 0.1365 0.0
C1983 C 0.05803 0.94892 0.13077 0.0
H1984 H 0.02822 0.89903 0.21553 0.0
C1985 C 0.04157 0.94237 0.08463 0.0
C1986 C 0.02054 0.92009 0.0855 0.0
H1987 H 0.07402 0.96608 0.12879 0.0
H1988 H 0.04552 0.95453 1.04814 0.0
C1989 C 0.01633 0.90484 0.13368 0.0
C1990 C 0.29098 0.80028 0.37969 0.0
C1991 C 0.31203 0.8013 0.42045 0.0
H1992 H 0.27875 0.78252 0.30314 0.0
C1993 C 0.33786 0.78561 0.41339 0.0
H1994 H 0.27078 0.81195 0.38404 0.0
C1995 C 0.34244 0.76893 0.36742 0.0
C1996 C 0.32124 0.76721 0.32713 0.0
H1997 H 0.35458 0.78589 0.4439 0.0
H1998 H 0.36239 0.75673 0.36413 0.0
C1999 C 0.29545 0.7832 0.33364 0.0
C2000 C 0.54318 0.04904 1.07038 0.0
C2001 C 0.51676 0.0642 1.07492 0.0
H2002 H 0.57933 0.0298 0.11208 0.0
C2003 C 0.5054 0.06914 0.12623 0.0
H2004 H 0.55237 0.0447 1.03121 0.0
C2005 C 0.5204 0.06027 0.17194 0.0
C2006 C 0.54757 0.04649 0.16806 0.0
H2007 H 0.4848 0.08005 0.13114 0.0
H2008 H 0.51079 0.065 0.21061 0.0
C2009 C 0.55855 0.04038 0.11661 0.0
C2010 C 0.67444 0.77361 0.8633 0.0
C2011 C 0.6923 0.77676 0.81832 0.0
H2012 H 0.66528 0.78612 0.94371 0.0
C2013 C 0.71532 0.79686 0.82069 0.0
H2014 H 0.6566 0.75833 0.86275 0.0
C2015 C 0.72019 0.81353 0.86745 0.0
C2016 C 0.70246 0.80983 0.9129 0.0
H2017 H 0.72925 0.79984 0.7862 0.0
H2018 H 0.73808 0.82871 0.86844 0.0
C2019 C 0.6796 0.78959 0.90987 0.0
C2020 C 0.97921 0.90101 0.62821 0.0
C2021 C 0.97791 0.91861 0.58223 0.0
H2022 H 0.96543 0.89384 0.70867 0.0
C2023 C 0.95989 0.94335 0.5834 0.0
H2024 H 0.99311 0.88211 0.62941 0.0
C2025 C 0.94383 0.95032 0.62968 0.0
C2026 C 0.94569 0.93282 0.67586 0.0
H2027 H 0.95816 0.95732 0.54855 0.0
H2028 H 0.93045 0.96961 0.6296 0.0
C2029 C 0.96339 0.90797 0.67411 0.0
C2030 C 0.83259 0.23484 0.37359 0.0
C2031 C 0.81948 0.22853 0.32414 0.0
H2032 H 0.8364 0.22461 0.45668 0.0
C2033 C 0.79901 0.20585 0.32192 0.0
H2034 H 0.848 0.25245 0.3771 0.0
C2035 C 0.7922 0.18964 0.36809 0.0
C2036 C 0.80555 0.19598 0.41745 0.0
H2037 H 0.78858 0.20036 0.28434 0.0
H2038 H 0.77663 0.17216 0.36504 0.0
C2039 C 0.82572 0.21888 0.41947 0.0
C2040 C 0.55538 0.96294 0.95039 0.0
C2041 C 0.55795 0.94101 0.91151 0.0
H2042 H 0.53666 0.97572 1.02579 0.0
C2043 C 0.54445 0.91414 0.92091 0.0
H2044 H 0.56534 0.98395 0.94402 0.0
C2045 C 0.52823 0.9094 0.96737 0.0
C2046 C 0.52478 0.93149 1.00562 0.0
H2047 H 0.54602 0.89678 0.89178 0.0
H2048 H 0.51762 0.88862 0.97252 0.0
C2049 C 0.53872 0.95831 0.99685 0.0
C2050 C 0.82171 0.78196 0.65514 0.0
C2051 C 0.79993 0.80337 0.65716 0.0
H2052 H 0.84629 0.74991 0.69748 0.0
C2053 C 0.78595 0.80846 0.70639 0.0
H2054 H 0.83323 0.77746 0.61821 0.0
C2055 C 0.79347 0.79215 0.75221 0.0
C2056 C 0.81546 0.77098 0.74972 0.0
H2057 H 0.7692 0.8248 0.70941 0.0
H2058 H 0.78245 0.7963 0.78978 0.0
C2059 C 0.82949 0.76621 0.70074 0.0
C2060 C 0.98268 0.08114 0.45979 0.0
C2061 C 0.97966 0.06501 0.50726 0.0
H2062 H 0.96996 0.08748 0.37869 0.0
C2063 C 0.95986 0.04163 0.50763 0.0
H2064 H 0.99802 0.09887 0.45734 0.0
C2065 C 0.94346 0.0348 0.46152 0.0
C2066 C 0.9468 0.05104 0.41405 0.0
H2067 H 0.95688 0.02876 0.54362 0.0
H2068 H 0.9285 0.01671 0.4629 0.0
C2069 C 0.96658 0.07432 0.4142 0.0
C2070 C 0.69621 0.19074 0.19595 0.0
C2071 C 0.67989 0.19462 0.14879 0.0
H2072 H 0.70272 0.20346 0.2782 0.0
C2073 C 0.6568 0.21458 0.1498 0.0
H2074 H 0.71413 0.1756 0.19669 0.0
C2075 C 0.65034 0.23043 0.19593 0.0
C2076 C 0.66666 0.22696 0.24303 0.0
H2077 H 0.64359 0.21832 0.11454 0.0
H2078 H 0.6328 0.24599 0.19413 0.0
C2079 C 0.68975 0.20686 0.24253 0.0
C2080 C 0.10639 0.52716 1.02365 0.0
C2081 C 0.10707 0.50846 0.97864 0.0
H2082 H 0.10564 0.53172 0.10991 0.0
C2083 C 0.10748 0.47834 0.98982 0.0
H2084 H 0.10583 0.55042 1.01757 0.0
C2085 C 0.1065 0.46749 1.04334 0.0
C2086 C 0.10598 0.48623 0.08833 0.0
H2087 H 0.10763 0.46298 0.95696 0.0
H2088 H 0.10612 0.44423 1.04945 0.0
C2089 C 0.10632 0.51633 1.07713 0.0
C2090 C 0.71793 0.86245 0.2781 0.0
C2091 C 0.73742 0.86466 0.23428 0.0
H2092 H 0.71153 0.8611 0.36417 0.0
C2093 C 0.76703 0.86771 0.24818 0.0
H2094 H 0.69501 0.85991 0.27031 0.0
C2095 C 0.77666 0.86783 0.30264 0.0
C2096 C 0.7572 0.86559 0.34644 0.0
H2097 H 0.7831 0.86925 0.21668 0.0
H2098 H 0.79967 0.86951 0.31038 0.0
C2099 C 0.72752 0.86323 0.33263 0.0
C2100 C 0.38652 0.47925 0.57797 0.0
C2101 C 0.38551 0.50892 0.59224 0.0
H2102 H 0.38918 0.44723 0.51484 0.0
C2103 C 0.38412 0.52899 0.54923 0.0
H2104 H 0.38801 0.46292 0.60915 0.0
C2105 C 0.38404 0.5199 0.49468 0.0
C2106 C 0.38628 0.4903 0.48037 0.0
H2107 H 0.38353 0.55203 0.55771 0.0
H2108 H 0.38346 0.5363 0.46354 0.0
C2109 C 0.38733 0.47019 0.52337 0.0
C2110 C 0.76931 0.1368 0.76947 0.0
C2111 C 0.75109 0.13632 0.72373 0.0
H2112 H 0.77323 0.1378 0.85587 0.0
C2113 C 0.72094 0.13648 0.73419 0.0
H2114 H 0.79258 0.13694 0.76415 0.0
C2115 C 0.70968 0.1379 0.78756 0.0
C2116 C 0.72799 0.1383 0.83326 0.0
H2117 H 0.70588 0.13653 0.70087 0.0
H2118 H 0.68645 0.13876 0.79299 0.0
C2119 C 0.75808 0.13728 0.82271 0.0
C2120 C 0.88484 0.4675 0.5438 0.0
C2121 C 0.88511 0.48623 0.58896 0.0
H2122 H 0.88391 0.46285 0.45727 0.0
C2123 C 0.88417 0.5163 0.57736 0.0
H2124 H 0.88564 0.44426 0.54996 0.0
C2125 C 0.884 0.52706 0.52363 0.0
C2126 C 0.88379 0.50837 0.47845 0.0
H2127 H 0.8846 0.53176 0.61005 0.0
H2128 H 0.8842 0.55033 0.5175 0.0
C2129 C 0.88374 0.47827 0.49002 0.0
C2130 C 0.26878 0.13893 0.2467 0.0
C2131 C 0.23917 0.14123 0.23259 0.0
H2132 H 0.30105 0.13791 0.30966 0.0
C2133 C 0.21933 0.14266 0.27581 0.0
H2134 H 0.285 0.13812 0.21538 0.0
C2135 C 0.22855 0.14191 0.33025 0.0
C2136 C 0.25817 0.14042 0.34448 0.0
H2137 H 0.1964 0.14462 0.26761 0.0
H2138 H 0.21229 0.14338 0.36142 0.0
C2139 C 0.27807 0.1389 0.3013 0.0
C2140 C 0.615 0.47372 1.0222 0.0
C2141 C 0.61206 0.49276 0.97779 0.0
H2142 H 0.6178 0.46848 0.1085 0.0
C2143 C 0.60983 0.52264 0.99034 0.0
H2144 H 0.6167 0.45059 1.01526 0.0
C2145 C 0.60988 0.53291 1.04419 0.0
C2146 C 0.61293 0.51398 0.08865 0.0
H2147 H 0.60732 0.53832 0.95827 0.0
H2148 H 0.60738 0.55598 1.05096 0.0
C2149 C 0.61578 0.4841 1.07622 0.0
C2150 C 0.27513 0.85535 0.83597 0.0
C2151 C 0.24532 0.85827 0.84813 0.0
H2152 H 0.3084 0.85115 0.77544 0.0
C2153 C 0.22645 0.86068 0.80353 0.0
H2154 H 0.29063 0.85307 0.86832 0.0
C2155 C 0.23685 0.86028 0.74965 0.0
C2156 C 0.26658 0.85659 0.73751 0.0
H2157 H 0.20338 0.86274 0.8102 0.0
H2158 H 0.22131 0.86199 0.71726 0.0
C2159 C 0.28543 0.85415 0.78211 0.0
C2160 C 0.60471 0.96749 0.54686 0.0
C2161 C 0.60736 0.98648 0.59122 0.0
H2162 H 0.60314 0.9621 0.46078 0.0
C2163 C 0.61065 0.01631 0.57872 0.0
H2164 H 0.60197 0.94445 0.55377 0.0
C2165 C 0.61062 0.02664 0.52473 0.0
C2166 C 0.60812 0.0076 0.48039 0.0
H2167 H 0.61248 0.03196 0.61092 0.0
H2168 H 0.61249 0.04976 0.51777 0.0
C2169 C 0.60547 0.97773 0.49291 0.0
C2170 C 0.22095 0.37 0.77577 0.0
C2171 C 0.24011 0.36763 0.73151 0.0
H2172 H 0.21539 0.37193 0.86208 0.0
C2173 C 0.2699 0.36561 0.74444 0.0
H2174 H 0.19788 0.37143 0.76859 0.0
C2175 C 0.27995 0.36523 0.79848 0.0
C2176 C 0.26089 0.36761 0.84279 0.0
H2177 H 0.28566 0.36347 0.71253 0.0
H2178 H 0.30297 0.36291 0.80551 0.0
C2179 C 0.23111 0.37036 0.82998 0.0
C2180 C 0.8882 0.97453 0.0876 0.0
C2181 C 0.88887 0.00445 0.10013 0.0
H2182 H 0.88904 0.94128 1.02655 0.0
C2183 C 0.88883 0.0238 1.05589 0.0
H2184 H 0.8885 0.95869 0.11974 0.0
C2185 C 0.8883 0.01372 1.00187 0.0
C2186 C 0.8887 0.98379 0.98936 0.0
H2187 H 0.88945 0.04697 1.06299 0.0
H2188 H 0.88871 0.02955 0.96971 0.0
C2189 C 0.88857 0.96446 1.03361 0.0
C2190 C 0.26344 0.62839 0.32785 0.0
C2191 C 0.23385 0.63287 0.34027 0.0
H2192 H 0.29672 0.62501 0.26706 0.0
C2193 C 0.21499 0.63566 0.29566 0.0
H2194 H 0.27901 0.62632 0.36012 0.0
C2195 C 0.22516 0.63414 0.24164 0.0
C2196 C 0.25487 0.63052 0.22924 0.0
H2197 H 0.19211 0.63922 0.30244 0.0
H2198 H 0.20968 0.6368 0.20938 0.0
C2199 C 0.27372 0.62766 0.27384 0.0
C2200 C 0.38633 0.02354 0.08629 0.0
C2201 C 0.38418 0.99353 0.09816 0.0
H2202 H 0.38983 0.05724 1.02612 0.0
C2203 C 0.38257 0.97474 1.05332 0.0
H2204 H 0.38801 0.039 0.11883 0.0
C2205 C 0.38289 0.98539 0.99953 0.0
C2206 C 0.38572 0.01534 0.98765 0.0
H2207 H 0.38113 0.95154 1.05973 0.0
H2208 H 0.38172 0.96988 0.96699 0.0
C2209 C 0.38748 0.03412 1.03251 0.0
C2210 C 0.78021 0.63774 0.80125 0.0
C2211 C 0.75979 0.63555 0.84352 0.0
H2212 H 0.78851 0.63911 0.71598 0.0
C2213 C 0.73054 0.63209 0.82785 0.0
H2214 H 0.80292 0.64058 0.8106 0.0
C2215 C 0.72211 0.63185 0.77276 0.0
C2216 C 0.74256 0.63441 0.73056 0.0
H2217 H 0.71388 0.63061 0.85829 0.0
H2218 H 0.69932 0.62999 0.76324 0.0
C2219 C 0.77187 0.63686 0.7463 0.0
C2220 C 0.11335 0.96265 0.53745 0.0
C2221 C 0.11384 0.98128 0.492 0.0
H2222 H 0.11355 0.95803 0.62411 0.0
C2223 C 0.11529 0.01135 0.50366 0.0
H2224 H 0.11208 0.93941 0.53146 0.0
C2225 C 0.11531 0.02216 0.55745 0.0
C2226 C 0.11483 0.00356 0.60291 0.0
H2227 H 0.11543 0.02683 0.47093 0.0
H2228 H 0.11556 0.04543 0.5634 0.0
C2229 C 0.1143 0.97345 0.59131 0.0
C2230 C 0.71498 0.35998 0.28909 0.0
C2231 C 0.73329 0.35911 0.33471 0.0
H2232 H 0.71115 0.36114 0.2025 0.0
C2233 C 0.7634 0.35878 0.32422 0.0
H2234 H 0.69173 0.3601 0.29453 0.0
C2235 C 0.7746 0.35852 0.27096 0.0
C2236 C 0.75634 0.35958 0.22532 0.0
H2237 H 0.7785 0.35778 0.35742 0.0
H2238 H 0.79784 0.35742 0.26555 0.0
C2239 C 0.72623 0.36069 0.23577 0.0
loop_
_geom_bond_atom_site_label_1
_geom_bond_atom_site_label_2
_geom_bond_distance
_geom_bond_site_symmetry_2
_ccdc_geom_bond_type
Tb0 C2 2.809 . S
Tb0 O20 2.484 . S
Tb0 O21 2.440 . S
Tb0 O22 2.658 . S
Tb0 O23 2.409 . S
Tb0 O24 2.378 . S
Tb0 O28 2.325 . S
Tb0 O31 2.341 . S
Tb1 C11 2.809 . S
Tb1 O22 2.325 . S
Tb1 O25 2.341 . S
Tb1 O26 2.484 . S
Tb1 O27 2.440 . S
Tb1 O28 2.658 . S
Tb1 O29 2.409 . S
Tb1 O30 2.378 . S
C2 Tb0 2.809 . S
C2 C3 1.514 1_554 S
C2 O20 1.248 . S
C2 O21 1.266 . S
C3 C2 1.514 1_556 S
C3 C4 1.359 . S
C3 C8 1.348 . S
C4 C3 1.359 . S
C4 C5 1.380 . S
C4 H32 0.929 . S
C5 C4 1.380 . S
C5 C6 1.347 . S
C5 H33 0.931 . S
C6 C5 1.347 . S
C6 C7 1.369 . S
C7 C6 1.369 . S
C7 C8 1.408 . S
C7 H34 0.930 . S
C8 C3 1.348 . S
C8 C7 1.408 . S
C8 H35 0.930 . S
C9 O22 1.281 . S
C9 O23 1.254 . S
C10 O24 1.236 . S
C10 O25 1.266 . S
C11 Tb1 2.809 . S
C11 C12 1.514 . S
C11 O26 1.248 . S
C11 O27 1.266 . S
C12 C11 1.514 . S
C12 C13 1.359 . S
C12 C17 1.348 . S
C13 C12 1.359 . S
C13 C14 1.380 . S
C13 H36 0.929 . S
C14 C13 1.380 . S
C14 C15 1.347 . S
C14 H37 0.931 . S
C15 C14 1.347 . S
C15 C16 1.369 . S
C16 C15 1.369 . S
C16 C17 1.408 . S
C16 H38 0.930 . S
C17 C12 1.348 . S
C17 C16 1.408 . S
C17 H39 0.930 . S
C18 O28 1.281 . S
C18 O29 1.254 . S
C19 O30 1.236 . S
C19 O31 1.266 . S
O20 Tb0 2.484 . S
O20 C2 1.248 . S
O21 Tb0 2.440 . S
O21 C2 1.266 . S
O22 Tb0 2.658 . S
O22 Tb1 2.325 . S
O22 C9 1.281 . S
O23 Tb0 2.409 . S
O23 C9 1.254 . S
O24 Tb0 2.378 . S
O24 C10 1.236 . S
O25 Tb1 2.341 . S
O25 C10 1.266 . S
O26 Tb1 2.484 . S
O26 C11 1.248 . S
O27 Tb1 2.440 . S
O27 C11 1.266 . S
O28 Tb0 2.325 . S
O28 Tb1 2.658 . S
O28 C18 1.281 . S
O29 Tb1 2.409 . S
O29 C18 1.254 . S
O30 Tb1 2.378 . S
O30 C19 1.236 . S
O31 Tb0 2.341 . S
O31 C19 1.266 . S
H32 C4 0.929 . S
H33 C5 0.931 . S
H34 C7 0.930 . S
H35 C8 0.930 . S
H36 C13 0.929 . S
H37 C14 0.931 . S
H38 C16 0.930 . S
H39 C17 0.930 . S
Tb40 C42 2.809 . S
Tb40 O60 2.484 . S
Tb40 O61 2.440 . S
Tb40 O62 2.658 . S
Tb40 O63 2.409 . S
Tb40 O64 2.378 . S
Tb40 O68 2.325 . S
Tb40 O71 2.341 . S
Tb41 C51 2.809 . S
Tb41 O62 2.325 . S
Tb41 O65 2.341 . S
Tb41 O66 2.484 . S
Tb41 O67 2.440 . S
Tb41 O68 2.658 . S
Tb41 O69 2.409 . S
Tb41 O70 2.378 . S
C42 Tb40 2.809 . S
C42 C43 1.514 . S
C42 O60 1.248 . S
C42 O61 1.266 . S
C43 C42 1.514 . S
C43 C44 1.359 . S
C43 C48 1.348 . S
C44 C43 1.359 . S
C44 C45 1.380 . S
C44 H72 0.929 . S
C45 C44 1.380 . S
C45 C46 1.347 . S
C45 H73 0.931 . S
C46 C45 1.347 . S
C46 C47 1.369 . S
C47 C46 1.369 . S
C47 C48 1.408 . S
C47 H74 0.930 . S
C48 C43 1.348 . S
C48 C47 1.408 . S
C48 H75 0.930 . S
C49 O62 1.281 . S
C49 O63 1.254 . S
C50 O64 1.236 . S
C50 O65 1.266 . S
C51 Tb41 2.809 . S
C51 C52 1.514 . S
C51 O66 1.248 . S
C51 O67 1.266 . S
C52 C51 1.514 . S
C52 C53 1.359 . S
C52 C57 1.348 . S
C53 C52 1.359 . S
C53 C54 1.380 . S
C53 H76 0.929 . S
C54 C53 1.380 . S
C54 C55 1.347 . S
C54 H77 0.931 . S
C55 C54 1.347 . S
C55 C56 1.369 . S
C56 C55 1.369 . S
C56 C57 1.408 . S
C56 H78 0.930 . S
C57 C52 1.348 . S
C57 C56 1.408 . S
C57 H79 0.930 . S
C58 O68 1.281 . S
C58 O69 1.254 . S
C59 O70 1.236 . S
C59 O71 1.266 . S
O60 Tb40 2.484 . S
O60 C42 1.248 . S
O61 Tb40 2.440 . S
O61 C42 1.266 . S
O62 Tb40 2.658 . S
O62 Tb41 2.325 . S
O62 C49 1.281 . S
O63 Tb40 2.409 . S
O63 C49 1.254 . S
O64 Tb40 2.378 . S
O64 C50 1.236 . S
O65 Tb41 2.341 . S
O65 C50 1.266 . S
O66 Tb41 2.484 . S
O66 C51 1.248 . S
O67 Tb41 2.440 . S
O67 C51 1.266 . S
O68 Tb40 2.325 . S
O68 Tb41 2.658 . S
O68 C58 1.281 . S
O69 Tb41 2.409 . S
O69 C58 1.254 . S
O70 Tb41 2.378 . S
O70 C59 1.236 . S
O71 Tb40 2.341 . S
O71 C59 1.266 . S
H72 C44 0.929 . S
H73 C45 0.931 . S
H74 C47 0.930 . S
H75 C48 0.930 . S
H76 C53 0.929 . S
H77 C54 0.931 . S
H78 C56 0.930 . S
H79 C57 0.930 . S
Tb80 C82 2.809 . S
Tb80 O100 2.484 . S
Tb80 O101 2.440 . S
Tb80 O102 2.658 . S
Tb80 O103 2.409 . S
Tb80 O104 2.378 . S
Tb80 O108 2.325 . S
Tb80 O111 2.341 . S
Tb81 C91 2.809 . S
Tb81 O102 2.325 . S
Tb81 O105 2.341 . S
Tb81 O106 2.484 . S
Tb81 O107 2.440 . S
Tb81 O108 2.658 . S
Tb81 O109 2.409 . S
Tb81 O110 2.378 . S
C82 Tb80 2.809 . S
C82 C83 1.514 . S
C82 O100 1.248 . S
C82 O101 1.266 . S
C83 C82 1.514 . S
C83 C84 1.359 . S
C83 C88 1.348 . S
C84 C83 1.359 . S
C84 C85 1.380 . S
C84 H112 0.929 . S
C85 C84 1.380 . S
C85 C86 1.347 . S
C85 H113 0.931 . S
C86 C85 1.347 . S
C86 C87 1.369 . S
C87 C86 1.369 . S
C87 C88 1.408 . S
C87 H114 0.930 . S
C88 C83 1.348 . S
C88 C87 1.408 . S
C88 H115 0.930 . S
C89 O102 1.281 . S
C89 O103 1.254 . S
C90 O104 1.236 . S
C90 O105 1.266 . S
C91 Tb81 2.809 . S
C91 C92 1.514 . S
C91 O106 1.248 . S
C91 O107 1.266 . S
C92 C91 1.514 . S
C92 C93 1.359 . S
C92 C97 1.348 . S
C93 C92 1.359 . S
C93 C94 1.380 . S
C93 H116 0.929 . S
C94 C93 1.380 . S
C94 C95 1.347 . S
C94 H117 0.931 . S
C95 C94 1.347 . S
C95 C96 1.369 . S
C96 C95 1.369 . S
C96 C97 1.408 . S
C96 H118 0.930 . S
C97 C92 1.348 . S
C97 C96 1.408 . S
C97 H119 0.930 . S
C98 O108 1.281 . S
C98 O109 1.254 . S
C99 O110 1.236 . S
C99 O111 1.266 . S
O100 Tb80 2.484 . S
O100 C82 1.248 . S
O101 Tb80 2.440 . S
O101 C82 1.266 . S
O102 Tb80 2.658 . S
O102 Tb81 2.325 . S
O102 C89 1.281 . S
O103 Tb80 2.409 . S
O103 C89 1.254 . S
O104 Tb80 2.378 . S
O104 C90 1.236 . S
O105 Tb81 2.341 . S
O105 C90 1.266 . S
O106 Tb81 2.484 . S
O106 C91 1.248 . S
O107 Tb81 2.440 . S
O107 C91 1.266 . S
O108 Tb80 2.325 . S
O108 Tb81 2.658 . S
O108 C98 1.281 . S
O109 Tb81 2.409 . S
O109 C98 1.254 . S
O110 Tb81 2.378 . S
O110 C99 1.236 . S
O111 Tb80 2.341 . S
O111 C99 1.266 . S
H112 C84 0.929 . S
H113 C85 0.931 . S
H114 C87 0.930 . S
H115 C88 0.930 . S
H116 C93 0.929 . S
H117 C94 0.931 . S
H118 C96 0.930 . S
H119 C97 0.930 . S
Tb120 C122 2.809 . S
Tb120 O140 2.484 . S
Tb120 O141 2.440 . S
Tb120 O142 2.658 . S
Tb120 O143 2.409 . S
Tb120 O144 2.378 . S
Tb120 O148 2.325 . S
Tb120 O151 2.341 . S
Tb121 C131 2.809 1_556 S
Tb121 O142 2.325 . S
Tb121 O145 2.341 . S
Tb121 O146 2.484 1_556 S
Tb121 O147 2.440 1_556 S
Tb121 O148 2.658 . S
Tb121 O149 2.409 . S
Tb121 O150 2.378 . S
C122 Tb120 2.809 . S
C122 C123 1.514 . S
C122 O140 1.248 . S
C122 O141 1.266 . S
C123 C122 1.514 . S
C123 C124 1.359 . S
C123 C128 1.348 . S
C124 C123 1.359 . S
C124 C125 1.380 . S
C124 H152 0.929 . S
C125 C124 1.380 . S
C125 C126 1.347 . S
C125 H153 0.931 . S
C126 C125 1.347 . S
C126 C127 1.369 . S
C127 C126 1.369 . S
C127 C128 1.408 . S
C127 H154 0.930 . S
C128 C123 1.348 . S
C128 C127 1.408 . S
C128 H155 0.930 . S
C129 O142 1.281 . S
C129 O143 1.254 . S
C130 O144 1.236 . S
C130 O145 1.266 . S
C131 Tb121 2.809 1_554 S
C131 C132 1.514 . S
C131 O146 1.248 . S
C131 O147 1.266 . S
C132 C131 1.514 . S
C132 C133 1.359 . S
C132 C137 1.348 . S
C133 C132 1.359 . S
C133 C134 1.380 . S
C133 H156 0.929 . S
C134 C133 1.380 . S
C134 C135 1.347 . S
C134 H157 0.931 . S
C135 C134 1.347 . S
C135 C136 1.369 . S
C136 C135 1.369 . S
C136 C137 1.408 . S
C136 H158 0.930 . S
C137 C132 1.348 . S
C137 C136 1.408 . S
C137 H159 0.930 . S
C138 O148 1.281 . S
C138 O149 1.254 . S
C139 O150 1.236 . S
C139 O151 1.266 . S
O140 Tb120 2.484 . S
O140 C122 1.248 . S
O141 Tb120 2.440 . S
O141 C122 1.266 . S
O142 Tb120 2.658 . S
O142 Tb121 2.325 . S
O142 C129 1.281 . S
O143 Tb120 2.409 . S
O143 C129 1.254 . S
O144 Tb120 2.378 . S
O144 C130 1.236 . S
O145 Tb121 2.341 . S
O145 C130 1.266 . S
O146 Tb121 2.484 1_554 S
O146 C131 1.248 . S
O147 Tb121 2.440 1_554 S
O147 C131 1.266 . S
O148 Tb120 2.325 . S
O148 Tb121 2.658 . S
O148 C138 1.281 . S
O149 Tb121 2.409 . S
O149 C138 1.254 . S
O150 Tb121 2.378 . S
O150 C139 1.236 . S
O151 Tb120 2.341 . S
O151 C139 1.266 . S
H152 C124 0.929 . S
H153 C125 0.931 . S
H154 C127 0.930 . S
H155 C128 0.930 . S
H156 C133 0.929 . S
H157 C134 0.931 . S
H158 C136 0.930 . S
H159 C137 0.930 . S
Tb160 C162 2.809 . S
Tb160 O180 2.484 . S
Tb160 O181 2.440 . S
Tb160 O182 2.658 . S
Tb160 O183 2.409 . S
Tb160 O184 2.378 . S
Tb160 O188 2.325 . S
Tb160 O191 2.341 . S
Tb161 C171 2.809 . S
Tb161 O182 2.325 . S
Tb161 O185 2.341 . S
Tb161 O186 2.484 . S
Tb161 O187 2.440 . S
Tb161 O188 2.658 . S
Tb161 O189 2.409 . S
Tb161 O190 2.378 . S
C162 Tb160 2.809 . S
C162 C163 1.514 . S
C162 O180 1.248 . S
C162 O181 1.266 . S
C163 C162 1.514 . S
C163 C164 1.359 . S
C163 C168 1.348 . S
C164 C163 1.359 . S
C164 C165 1.380 . S
C164 H192 0.929 . S
C165 C164 1.380 . S
C165 C166 1.347 1_556 S
C165 H193 0.931 1_556 S
C166 C165 1.347 1_554 S
C166 C167 1.369 1_554 S
C167 C166 1.369 1_556 S
C167 C168 1.408 . S
C167 H194 0.930 . S
C168 C163 1.348 . S
C168 C167 1.408 . S
C168 H195 0.930 . S
C169 O182 1.281 . S
C169 O183 1.254 . S
C170 O184 1.236 . S
C170 O185 1.266 . S
C171 Tb161 2.809 . S
C171 C172 1.514 . S
C171 O186 1.248 . S
C171 O187 1.266 . S
C172 C171 1.514 . S
C172 C173 1.359 . S
C172 C177 1.348 . S
C173 C172 1.359 . S
C173 C174 1.380 . S
C173 H196 0.929 . S
C174 C173 1.380 . S
C174 C175 1.347 . S
C174 H197 0.931 . S
C175 C174 1.347 . S
C175 C176 1.369 . S
C176 C175 1.369 . S
C176 C177 1.408 . S
C176 H198 0.930 . S
C177 C172 1.348 . S
C177 C176 1.408 . S
C177 H199 0.930 . S
C178 O188 1.281 . S
C178 O189 1.254 . S
C179 O190 1.236 . S
C179 O191 1.266 . S
O180 Tb160 2.484 . S
O180 C162 1.248 . S
O181 Tb160 2.440 . S
O181 C162 1.266 . S
O182 Tb160 2.658 . S
O182 Tb161 2.325 . S
O182 C169 1.281 . S
O183 Tb160 2.409 . S
O183 C169 1.254 . S
O184 Tb160 2.378 . S
O184 C170 1.236 . S
O185 Tb161 2.341 . S
O185 C170 1.266 . S
O186 Tb161 2.484 . S
O186 C171 1.248 . S
O187 Tb161 2.440 . S
O187 C171 1.266 . S
O188 Tb160 2.325 . S
O188 Tb161 2.658 . S
O188 C178 1.281 . S
O189 Tb161 2.409 . S
O189 C178 1.254 . S
O190 Tb161 2.378 . S
O190 C179 1.236 . S
O191 Tb160 2.341 . S
O191 C179 1.266 . S
H192 C164 0.929 . S
H193 C165 0.931 1_554 S
H194 C167 0.930 . S
H195 C168 0.930 . S
H196 C173 0.929 . S
H197 C174 0.931 . S
H198 C176 0.930 . S
H199 C177 0.930 . S
Tb200 C202 2.809 . S
Tb200 O220 2.484 . S
Tb200 O221 2.440 . S
Tb200 O222 2.658 1_554 S
Tb200 O223 2.409 . S
Tb200 O224 2.378 . S
Tb200 O228 2.325 . S
Tb200 O231 2.341 1_554 S
Tb201 C211 2.809 . S
Tb201 O222 2.325 . S
Tb201 O225 2.341 1_556 S
Tb201 O226 2.484 . S
Tb201 O227 2.440 . S
Tb201 O228 2.658 1_556 S
Tb201 O229 2.409 . S
Tb201 O230 2.378 . S
C202 Tb200 2.809 . S
C202 C203 1.514 . S
C202 O220 1.248 . S
C202 O221 1.266 . S
C203 C202 1.514 . S
C203 C204 1.359 . S
C203 C208 1.348 . S
C204 C203 1.359 . S
C204 C205 1.380 . S
C204 H232 0.929 . S
C205 C204 1.380 . S
C205 C206 1.347 . S
C205 H233 0.931 . S
C206 C205 1.347 . S
C206 C207 1.369 . S
C207 C206 1.369 . S
C207 C208 1.408 . S
C207 H234 0.930 . S
C208 C203 1.348 . S
C208 C207 1.408 . S
C208 H235 0.930 . S
C209 O222 1.281 . S
C209 O223 1.254 1_556 S
C210 O224 1.236 . S
C210 O225 1.266 . S
C211 Tb201 2.809 . S
C211 C212 1.514 . S
C211 O226 1.248 . S
C211 O227 1.266 . S
C212 C211 1.514 . S
C212 C213 1.359 . S
C212 C217 1.348 . S
C213 C212 1.359 . S
C213 C214 1.380 . S
C213 H236 0.929 . S
C214 C213 1.380 . S
C214 C215 1.347 . S
C214 H237 0.931 . S
C215 C214 1.347 . S
C215 C216 1.369 . S
C216 C215 1.369 . S
C216 C217 1.408 . S
C216 H238 0.930 . S
C217 C212 1.348 . S
C217 C216 1.408 . S
C217 H239 0.930 . S
C218 O228 1.286 . S
C218 O229 1.244 1_554 S
C219 O230 1.236 . S
C219 O231 1.266 . S
O220 Tb200 2.484 . S
O220 C202 1.248 . S
O221 Tb200 2.440 . S
O221 C202 1.266 . S
O222 Tb200 2.658 1_556 S
O222 Tb201 2.325 . S
O222 C209 1.281 . S
O223 Tb200 2.409 . S
O223 C209 1.254 1_554 S
O224 Tb200 2.378 . S
O224 C210 1.236 . S
O225 Tb201 2.341 1_554 S
O225 C210 1.266 . S
O226 Tb201 2.484 . S
O226 C211 1.248 . S
O227 Tb201 2.440 . S
O227 C211 1.266 . S
O228 Tb200 2.325 . S
O228 Tb201 2.658 1_554 S
O228 C218 1.286 . S
O229 Tb201 2.409 . S
O229 C218 1.244 1_556 S
O230 Tb201 2.378 . S
O230 C219 1.236 . S
O231 Tb200 2.341 1_556 S
O231 C219 1.266 . S
H232 C204 0.929 . S
H233 C205 0.931 . S
H234 C207 0.930 . S
H235 C208 0.930 . S
H236 C213 0.929 . S
H237 C214 0.931 . S
H238 C216 0.930 . S
H239 C217 0.930 . S
Tb240 C242 2.809 . S
Tb240 O260 2.484 . S
Tb240 O261 2.440 . S
Tb240 O262 2.658 . S
Tb240 O263 2.409 . S
Tb240 O264 2.378 . S
Tb240 O268 2.325 . S
Tb240 O271 2.341 . S
Tb241 C251 2.809 . S
Tb241 O262 2.325 . S
Tb241 O265 2.341 . S
Tb241 O266 2.484 . S
Tb241 O267 2.440 . S
Tb241 O268 2.658 . S
Tb241 O269 2.409 . S
Tb241 O270 2.378 . S
C242 Tb240 2.809 . S
C242 C243 1.514 . S
C242 O260 1.248 . S
C242 O261 1.266 . S
C243 C242 1.514 . S
C243 C244 1.359 . S
C243 C248 1.348 . S
C244 C243 1.359 . S
C244 C245 1.380 . S
C244 H272 0.929 . S
C245 C244 1.380 . S
C245 C246 1.347 . S
C245 H273 0.931 . S
C246 C245 1.347 . S
C246 C247 1.369 . S
C247 C246 1.369 . S
C247 C248 1.408 . S
C247 H274 0.930 . S
C248 C243 1.348 . S
C248 C247 1.408 . S
C248 H275 0.930 . S
C249 O262 1.281 . S
C249 O263 1.254 . S
C250 O264 1.236 . S
C250 O265 1.266 . S
C251 Tb241 2.809 . S
C251 C252 1.514 . S
C251 O266 1.248 . S
C251 O267 1.266 . S
C252 C251 1.514 . S
C252 C253 1.359 . S
C252 C257 1.348 . S
C253 C252 1.359 . S
C253 C254 1.380 1_554 S
C253 H276 0.929 . S
C254 C253 1.380 1_556 S
C254 C255 1.347 . S
C254 H277 0.931 . S
C255 C254 1.347 . S
C255 C256 1.369 1_556 S
C256 C255 1.369 1_554 S
C256 C257 1.408 . S
C256 H278 0.930 1_554 S
C257 C252 1.348 . S
C257 C256 1.408 . S
C257 H279 0.930 . S
C258 O268 1.281 . S
C258 O269 1.254 . S
C259 O270 1.236 . S
C259 O271 1.266 . S
O260 Tb240 2.484 . S
O260 C242 1.248 . S
O261 Tb240 2.440 . S
O261 C242 1.266 . S
O262 Tb240 2.658 . S
O262 Tb241 2.325 . S
O262 C249 1.281 . S
O263 Tb240 2.409 . S
O263 C249 1.254 . S
O264 Tb240 2.378 . S
O264 C250 1.236 . S
O265 Tb241 2.341 . S
O265 C250 1.266 . S
O266 Tb241 2.484 . S
O266 C251 1.248 . S
O267 Tb241 2.440 . S
O267 C251 1.266 . S
O268 Tb240 2.325 . S
O268 Tb241 2.658 . S
O268 C258 1.281 . S
O269 Tb241 2.409 . S
O269 C258 1.254 . S
O270 Tb241 2.378 . S
O270 C259 1.236 . S
O271 Tb240 2.341 . S
O271 C259 1.266 . S
H272 C244 0.929 . S
H273 C245 0.931 . S
H274 C247 0.930 . S
H275 C248 0.930 . S
H276 C253 0.929 . S
H277 C254 0.931 . S
H278 C256 0.930 1_556 S
H279 C257 0.930 . S
Tb280 C282 2.809 . S
Tb280 O300 2.484 . S
Tb280 O301 2.440 . S
Tb280 O302 2.658 . S
Tb280 O303 2.409 . S
Tb280 O304 2.378 . S
Tb280 O308 2.325 . S
Tb280 O311 2.341 . S
Tb281 C291 2.809 . S
Tb281 O302 2.325 . S
Tb281 O305 2.341 . S
Tb281 O306 2.484 . S
Tb281 O307 2.440 . S
Tb281 O308 2.658 . S
Tb281 O309 2.409 . S
Tb281 O310 2.378 . S
C282 Tb280 2.809 . S
C282 C283 1.514 . S
C282 O300 1.248 . S
C282 O301 1.266 . S
C283 C282 1.514 . S
C283 C284 1.359 . S
C283 C288 1.348 . S
C284 C283 1.359 . S
C284 C285 1.380 . S
C284 H312 0.929 . S
C285 C284 1.380 . S
C285 C286 1.347 . S
C285 H313 0.931 . S
C286 C285 1.347 . S
C286 C287 1.369 . S
C287 C286 1.369 . S
C287 C288 1.408 . S
C287 H314 0.930 . S
C288 C283 1.348 . S
C288 C287 1.408 . S
C288 H315 0.930 . S
C289 O302 1.281 . S
C289 O303 1.254 . S
C290 O304 1.236 . S
C290 O305 1.266 . S
C291 Tb281 2.809 . S
C291 C292 1.514 . S
C291 O306 1.248 . S
C291 O307 1.266 . S
C292 C291 1.514 . S
C292 C293 1.359 . S
C292 C297 1.348 . S
C293 C292 1.359 . S
C293 C294 1.380 . S
C293 H316 0.929 . S
C294 C293 1.380 . S
C294 C295 1.347 . S
C294 H317 0.931 . S
C295 C294 1.347 . S
C295 C296 1.369 . S
C296 C295 1.369 . S
C296 C297 1.408 . S
C296 H318 0.930 . S
C297 C292 1.348 . S
C297 C296 1.408 . S
C297 H319 0.930 . S
C298 O308 1.281 . S
C298 O309 1.254 . S
C299 O310 1.236 . S
C299 O311 1.266 . S
O300 Tb280 2.484 . S
O300 C282 1.248 . S
O301 Tb280 2.440 . S
O301 C282 1.266 . S
O302 Tb280 2.658 . S
O302 Tb281 2.325 . S
O302 C289 1.281 . S
O303 Tb280 2.409 . S
O303 C289 1.254 . S
O304 Tb280 2.378 . S
O304 C290 1.236 . S
O305 Tb281 2.341 . S
O305 C290 1.266 . S
O306 Tb281 2.484 . S
O306 C291 1.248 . S
O307 Tb281 2.440 . S
O307 C291 1.266 . S
O308 Tb280 2.325 . S
O308 Tb281 2.658 . S
O308 C298 1.281 . S
O309 Tb281 2.409 . S
O309 C298 1.254 . S
O310 Tb281 2.378 . S
O310 C299 1.236 . S
O311 Tb280 2.341 . S
O311 C299 1.266 . S
H312 C284 0.929 . S
H313 C285 0.931 . S
H314 C287 0.930 . S
H315 C288 0.930 . S
H316 C293 0.929 . S
H317 C294 0.931 . S
H318 C296 0.930 . S
H319 C297 0.930 . S
Tb320 C322 2.809 . S
Tb320 O340 2.484 . S
Tb320 O341 2.440 . S
Tb320 O342 2.658 . S
Tb320 O343 2.409 . S
Tb320 O344 2.378 . S
Tb320 O348 2.325 . S
Tb320 O351 2.341 . S
Tb321 C331 2.809 . S
Tb321 O342 2.325 . S
Tb321 O345 2.341 . S
Tb321 O346 2.484 . S
Tb321 O347 2.440 . S
Tb321 O348 2.658 . S
Tb321 O349 2.409 . S
Tb321 O350 2.378 . S
C322 Tb320 2.809 . S
C322 C323 1.514 . S
C322 O340 1.248 . S
C322 O341 1.266 . S
C323 C322 1.514 . S
C323 C324 1.359 . S
C323 C328 1.348 . S
C324 C323 1.359 . S
C324 C325 1.380 1_554 S
C324 H352 0.929 . S
C325 C324 1.380 1_556 S
C325 C326 1.347 . S
C325 H353 0.931 . S
C326 C325 1.347 . S
C326 C327 1.369 1_556 S
C327 C326 1.369 1_554 S
C327 C328 1.408 . S
C327 H354 0.930 1_554 S
C328 C323 1.348 . S
C328 C327 1.408 . S
C328 H355 0.930 . S
C329 O342 1.281 . S
C329 O343 1.254 . S
C330 O344 1.236 . S
C330 O345 1.266 . S
C331 Tb321 2.809 . S
C331 C332 1.514 . S
C331 O346 1.248 . S
C331 O347 1.266 . S
C332 C331 1.514 . S
C332 C333 1.359 . S
C332 C337 1.348 . S
C333 C332 1.359 . S
C333 C334 1.380 . S
C333 H356 0.929 . S
C334 C333 1.380 . S
C334 C335 1.347 . S
C334 H357 0.931 . S
C335 C334 1.347 . S
C335 C336 1.369 . S
C336 C335 1.369 . S
C336 C337 1.408 . S
C336 H358 0.930 . S
C337 C332 1.348 . S
C337 C336 1.408 . S
C337 H359 0.930 . S
C338 O348 1.281 . S
C338 O349 1.254 . S
C339 O350 1.236 . S
C339 O351 1.266 . S
O340 Tb320 2.484 . S
O340 C322 1.248 . S
O341 Tb320 2.440 . S
O341 C322 1.266 . S
O342 Tb320 2.658 . S
O342 Tb321 2.325 . S
O342 C329 1.281 . S
O343 Tb320 2.409 . S
O343 C329 1.254 . S
O344 Tb320 2.378 . S
O344 C330 1.236 . S
O345 Tb321 2.341 . S
O345 C330 1.266 . S
O346 Tb321 2.484 . S
O346 C331 1.248 . S
O347 Tb321 2.440 . S
O347 C331 1.266 . S
O348 Tb320 2.325 . S
O348 Tb321 2.658 . S
O348 C338 1.281 . S
O349 Tb321 2.409 . S
O349 C338 1.254 . S
O350 Tb321 2.378 . S
O350 C339 1.236 . S
O351 Tb320 2.341 . S
O351 C339 1.266 . S
H352 C324 0.929 . S
H353 C325 0.931 . S
H354 C327 0.930 1_556 S
H355 C328 0.930 . S
H356 C333 0.929 . S
H357 C334 0.931 . S
H358 C336 0.930 . S
H359 C337 0.930 . S
Tb360 C362 2.809 . S
Tb360 O380 2.484 . S
Tb360 O381 2.440 . S
Tb360 O382 2.658 1_556 S
Tb360 O383 2.409 . S
Tb360 O384 2.378 . S
Tb360 O388 2.325 . S
Tb360 O391 2.341 1_556 S
Tb361 C371 2.809 . S
Tb361 O382 2.325 . S
Tb361 O385 2.341 1_554 S
Tb361 O386 2.484 . S
Tb361 O387 2.440 . S
Tb361 O388 2.658 1_554 S
Tb361 O389 2.409 . S
Tb361 O390 2.378 . S
C362 Tb360 2.809 . S
C362 C363 1.514 . S
C362 O380 1.248 . S
C362 O381 1.266 . S
C363 C362 1.514 . S
C363 C364 1.359 . S
C363 C368 1.348 . S
C364 C363 1.359 . S
C364 C365 1.380 . S
C364 H392 0.929 . S
C365 C364 1.380 . S
C365 C366 1.347 . S
C365 H393 0.931 . S
C366 C365 1.347 . S
C366 C367 1.369 . S
C367 C366 1.369 . S
C367 C368 1.408 . S
C367 H394 0.930 . S
C368 C363 1.348 . S
C368 C367 1.408 . S
C368 H395 0.930 . S
C369 O382 1.286 . S
C369 O383 1.244 1_554 S
C370 O384 1.236 . S
C370 O385 1.266 . S
C371 Tb361 2.809 . S
C371 C372 1.514 . S
C371 O386 1.248 . S
C371 O387 1.266 . S
C372 C371 1.514 . S
C372 C373 1.359 . S
C372 C377 1.348 . S
C373 C372 1.359 . S
C373 C374 1.380 . S
C373 H396 0.929 . S
C374 C373 1.380 . S
C374 C375 1.347 . S
C374 H397 0.931 . S
C375 C374 1.347 . S
C375 C376 1.369 . S
C376 C375 1.369 . S
C376 C377 1.408 . S
C376 H398 0.930 . S
C377 C372 1.348 . S
C377 C376 1.408 . S
C377 H399 0.930 . S
C378 O388 1.281 . S
C378 O389 1.254 1_556 S
C379 O390 1.236 . S
C379 O391 1.266 . S
O380 Tb360 2.484 . S
O380 C362 1.248 . S
O381 Tb360 2.440 . S
O381 C362 1.266 . S
O382 Tb360 2.658 1_554 S
O382 Tb361 2.325 . S
O382 C369 1.286 . S
O383 Tb360 2.409 . S
O383 C369 1.244 1_556 S
O384 Tb360 2.378 . S
O384 C370 1.236 . S
O385 Tb361 2.341 1_556 S
O385 C370 1.266 . S
O386 Tb361 2.484 . S
O386 C371 1.248 . S
O387 Tb361 2.440 . S
O387 C371 1.266 . S
O388 Tb360 2.325 . S
O388 Tb361 2.658 1_556 S
O388 C378 1.281 . S
O389 Tb361 2.409 . S
O389 C378 1.254 1_554 S
O390 Tb361 2.378 . S
O390 C379 1.236 . S
O391 Tb360 2.341 1_554 S
O391 C379 1.266 . S
H392 C364 0.929 . S
H393 C365 0.931 . S
H394 C367 0.930 . S
H395 C368 0.930 . S
H396 C373 0.929 . S
H397 C374 0.931 . S
H398 C376 0.930 . S
H399 C377 0.930 . S
Tb400 C402 2.809 . S
Tb400 O420 2.484 . S
Tb400 O421 2.440 . S
Tb400 O422 2.658 . S
Tb400 O423 2.409 . S
Tb400 O424 2.378 . S
Tb400 O428 2.325 . S
Tb400 O431 2.341 . S
Tb401 C411 2.809 . S
Tb401 O422 2.325 . S
Tb401 O425 2.341 . S
Tb401 O426 2.484 . S
Tb401 O427 2.440 . S
Tb401 O428 2.658 . S
Tb401 O429 2.409 . S
Tb401 O430 2.378 . S
C402 Tb400 2.809 . S
C402 C403 1.514 . S
C402 O420 1.248 . S
C402 O421 1.266 . S
C403 C402 1.514 . S
C403 C404 1.359 . S
C403 C408 1.348 . S
C404 C403 1.359 . S
C404 C405 1.380 . S
C404 H432 0.929 . S
C405 C404 1.380 . S
C405 C406 1.347 . S
C405 H433 0.931 . S
C406 C405 1.347 . S
C406 C407 1.369 . S
C407 C406 1.369 . S
C407 C408 1.408 . S
C407 H434 0.930 . S
C408 C403 1.348 . S
C408 C407 1.408 . S
C408 H435 0.930 . S
C409 O422 1.281 . S
C409 O423 1.254 . S
C410 O424 1.236 . S
C410 O425 1.266 . S
C411 Tb401 2.809 . S
C411 C412 1.514 . S
C411 O426 1.248 . S
C411 O427 1.266 . S
C412 C411 1.514 . S
C412 C413 1.359 . S
C412 C417 1.348 . S
C413 C412 1.359 . S
C413 C414 1.380 . S
C413 H436 0.929 . S
C414 C413 1.380 . S
C414 C415 1.347 1_556 S
C414 H437 0.931 1_556 S
C415 C414 1.347 1_554 S
C415 C416 1.369 1_554 S
C416 C415 1.369 1_556 S
C416 C417 1.408 . S
C416 H438 0.930 . S
C417 C412 1.348 . S
C417 C416 1.408 . S
C417 H439 0.930 . S
C418 O428 1.281 . S
C418 O429 1.254 . S
C419 O430 1.236 . S
C419 O431 1.266 . S
O420 Tb400 2.484 . S
O420 C402 1.248 . S
O421 Tb400 2.440 . S
O421 C402 1.266 . S
O422 Tb400 2.658 . S
O422 Tb401 2.325 . S
O422 C409 1.281 . S
O423 Tb400 2.409 . S
O423 C409 1.254 . S
O424 Tb400 2.378 . S
O424 C410 1.236 . S
O425 Tb401 2.341 . S
O425 C410 1.266 . S
O426 Tb401 2.484 . S
O426 C411 1.248 . S
O427 Tb401 2.440 . S
O427 C411 1.266 . S
O428 Tb400 2.325 . S
O428 Tb401 2.658 . S
O428 C418 1.281 . S
O429 Tb401 2.409 . S
O429 C418 1.254 . S
O430 Tb401 2.378 . S
O430 C419 1.236 . S
O431 Tb400 2.341 . S
O431 C419 1.266 . S
H432 C404 0.929 . S
H433 C405 0.931 . S
H434 C407 0.930 . S
H435 C408 0.930 . S
H436 C413 0.929 . S
H437 C414 0.931 1_554 S
H438 C416 0.930 . S
H439 C417 0.930 . S
Tb440 C442 2.809 . S
Tb440 O460 2.484 . S
Tb440 O461 2.440 . S
Tb440 O462 2.658 . S
Tb440 O463 2.409 . S
Tb440 O464 2.378 . S
Tb440 O468 2.325 . S
Tb440 O471 2.341 . S
Tb441 C451 2.809 . S
Tb441 O462 2.325 . S
Tb441 O465 2.341 . S
Tb441 O466 2.484 . S
Tb441 O467 2.440 . S
Tb441 O468 2.658 . S
Tb441 O469 2.409 . S
Tb441 O470 2.378 . S
C442 Tb440 2.809 . S
C442 C443 1.514 . S
C442 O460 1.248 . S
C442 O461 1.266 . S
C443 C442 1.514 . S
C443 C444 1.359 . S
C443 C448 1.348 . S
C444 C443 1.359 . S
C444 C445 1.380 . S
C444 H472 0.929 . S
C445 C444 1.380 . S
C445 C446 1.347 . S
C445 H473 0.931 . S
C446 C445 1.347 . S
C446 C447 1.369 . S
C447 C446 1.369 . S
C447 C448 1.408 . S
C447 H474 0.930 . S
C448 C443 1.348 . S
C448 C447 1.408 . S
C448 H475 0.930 . S
C449 O462 1.281 . S
C449 O463 1.254 . S
C450 O464 1.236 . S
C450 O465 1.266 . S
C451 Tb441 2.809 . S
C451 C452 1.514 . S
C451 O466 1.248 . S
C451 O467 1.266 . S
C452 C451 1.514 . S
C452 C453 1.359 . S
C452 C457 1.348 . S
C453 C452 1.359 . S
C453 C454 1.380 . S
C453 H476 0.929 . S
C454 C453 1.380 . S
C454 C455 1.347 . S
C454 H477 0.931 . S
C455 C454 1.347 . S
C455 C456 1.369 . S
C456 C455 1.369 . S
C456 C457 1.408 . S
C456 H478 0.930 . S
C457 C452 1.348 . S
C457 C456 1.408 . S
C457 H479 0.930 . S
C458 O468 1.281 . S
C458 O469 1.254 . S
C459 O470 1.236 . S
C459 O471 1.266 . S
O460 Tb440 2.484 . S
O460 C442 1.248 . S
O461 Tb440 2.440 . S
O461 C442 1.266 . S
O462 Tb440 2.658 . S
O462 Tb441 2.325 . S
O462 C449 1.281 . S
O463 Tb440 2.409 . S
O463 C449 1.254 . S
O464 Tb440 2.378 . S
O464 C450 1.236 . S
O465 Tb441 2.341 . S
O465 C450 1.266 . S
O466 Tb441 2.484 . S
O466 C451 1.248 . S
O467 Tb441 2.440 . S
O467 C451 1.266 . S
O468 Tb440 2.325 . S
O468 Tb441 2.658 . S
O468 C458 1.281 . S
O469 Tb441 2.409 . S
O469 C458 1.254 . S
O470 Tb441 2.378 . S
O470 C459 1.236 . S
O471 Tb440 2.341 . S
O471 C459 1.266 . S
H472 C444 0.929 . S
H473 C445 0.931 . S
H474 C447 0.930 . S
H475 C448 0.930 . S
H476 C453 0.929 . S
H477 C454 0.931 . S
H478 C456 0.930 . S
H479 C457 0.930 . S
Tb480 C482 2.809 . S
Tb480 O500 2.484 . S
Tb480 O501 2.440 . S
Tb480 O502 2.658 . S
Tb480 O503 2.409 . S
Tb480 O504 2.378 . S
Tb480 O508 2.325 . S
Tb480 O511 2.341 . S
Tb481 C491 2.809 . S
Tb481 O502 2.325 . S
Tb481 O505 2.341 . S
Tb481 O506 2.484 . S
Tb481 O507 2.440 . S
Tb481 O508 2.658 . S
Tb481 O509 2.409 . S
Tb481 O510 2.378 . S
C482 Tb480 2.809 . S
C482 C483 1.514 . S
C482 O500 1.248 . S
C482 O501 1.266 . S
C483 C482 1.514 . S
C483 C484 1.359 . S
C483 C488 1.348 . S
C484 C483 1.359 . S
C484 C485 1.380 . S
C484 H512 0.929 . S
C485 C484 1.380 . S
C485 C486 1.347 . S
C485 H513 0.931 . S
C486 C485 1.347 . S
C486 C487 1.369 . S
C487 C486 1.369 . S
C487 C488 1.408 . S
C487 H514 0.930 . S
C488 C483 1.348 . S
C488 C487 1.408 . S
C488 H515 0.930 . S
C489 O502 1.281 . S
C489 O503 1.254 . S
C490 O504 1.236 . S
C490 O505 1.266 . S
C491 Tb481 2.809 . S
C491 C492 1.514 . S
C491 O506 1.248 . S
C491 O507 1.266 . S
C492 C491 1.514 . S
C492 C493 1.359 . S
C492 C497 1.348 . S
C493 C492 1.359 . S
C493 C494 1.380 . S
C493 H516 0.929 . S
C494 C493 1.380 . S
C494 C495 1.347 . S
C494 H517 0.931 . S
C495 C494 1.347 . S
C495 C496 1.369 . S
C496 C495 1.369 . S
C496 C497 1.408 . S
C496 H518 0.930 . S
C497 C492 1.348 . S
C497 C496 1.408 . S
C497 H519 0.930 . S
C498 O508 1.281 . S
C498 O509 1.254 . S
C499 O510 1.236 . S
C499 O511 1.266 . S
O500 Tb480 2.484 . S
O500 C482 1.248 . S
O501 Tb480 2.440 . S
O501 C482 1.266 . S
O502 Tb480 2.658 . S
O502 Tb481 2.325 . S
O502 C489 1.281 . S
O503 Tb480 2.409 . S
O503 C489 1.254 . S
O504 Tb480 2.378 . S
O504 C490 1.236 . S
O505 Tb481 2.341 . S
O505 C490 1.266 . S
O506 Tb481 2.484 . S
O506 C491 1.248 . S
O507 Tb481 2.440 . S
O507 C491 1.266 . S
O508 Tb480 2.325 . S
O508 Tb481 2.658 . S
O508 C498 1.281 . S
O509 Tb481 2.409 . S
O509 C498 1.254 . S
O510 Tb481 2.378 . S
O510 C499 1.236 . S
O511 Tb480 2.341 . S
O511 C499 1.266 . S
H512 C484 0.929 . S
H513 C485 0.931 . S
H514 C487 0.930 . S
H515 C488 0.930 . S
H516 C493 0.929 . S
H517 C494 0.931 . S
H518 C496 0.930 . S
H519 C497 0.930 . S
Tb520 C522 2.809 . S
Tb520 O540 2.484 . S
Tb520 O541 2.440 . S
Tb520 O542 2.658 . S
Tb520 O543 2.409 . S
Tb520 O544 2.378 . S
Tb520 O548 2.325 . S
Tb520 O551 2.341 . S
Tb521 C531 2.809 . S
Tb521 O542 2.325 . S
Tb521 O545 2.341 . S
Tb521 O546 2.484 . S
Tb521 O547 2.440 . S
Tb521 O548 2.658 . S
Tb521 O549 2.409 . S
Tb521 O550 2.378 . S
C522 Tb520 2.809 . S
C522 C523 1.514 . S
C522 O540 1.248 . S
C522 O541 1.266 . S
C523 C522 1.514 . S
C523 C524 1.359 . S
C523 C528 1.348 . S
C524 C523 1.359 . S
C524 C525 1.380 . S
C524 H552 0.929 . S
C525 C524 1.380 . S
C525 C526 1.347 . S
C525 H553 0.931 . S
C526 C525 1.347 . S
C526 C527 1.369 . S
C527 C526 1.369 . S
C527 C528 1.408 . S
C527 H554 0.930 . S
C528 C523 1.348 . S
C528 C527 1.408 . S
C528 H555 0.930 . S
C529 O542 1.281 . S
C529 O543 1.254 . S
C530 O544 1.236 . S
C530 O545 1.266 . S
C531 Tb521 2.809 . S
C531 C532 1.514 . S
C531 O546 1.248 . S
C531 O547 1.266 . S
C532 C531 1.514 . S
C532 C533 1.359 . S
C532 C537 1.348 . S
C533 C532 1.359 . S
C533 C534 1.380 . S
C533 H556 0.929 . S
C534 C533 1.380 . S
C534 C535 1.347 . S
C534 H557 0.931 . S
C535 C534 1.347 . S
C535 C536 1.369 . S
C536 C535 1.369 . S
C536 C537 1.408 . S
C536 H558 0.930 . S
C537 C532 1.348 . S
C537 C536 1.408 . S
C537 H559 0.930 . S
C538 O548 1.281 . S
C538 O549 1.254 . S
C539 O550 1.236 . S
C539 O551 1.266 . S
O540 Tb520 2.484 . S
O540 C522 1.248 . S
O541 Tb520 2.440 . S
O541 C522 1.266 . S
O542 Tb520 2.658 . S
O542 Tb521 2.325 . S
O542 C529 1.281 . S
O543 Tb520 2.409 . S
O543 C529 1.254 . S
O544 Tb520 2.378 . S
O544 C530 1.236 . S
O545 Tb521 2.341 . S
O545 C530 1.266 . S
O546 Tb521 2.484 . S
O546 C531 1.248 . S
O547 Tb521 2.440 . S
O547 C531 1.266 . S
O548 Tb520 2.325 . S
O548 Tb521 2.658 . S
O548 C538 1.281 . S
O549 Tb521 2.409 . S
O549 C538 1.254 . S
O550 Tb521 2.378 . S
O550 C539 1.236 . S
O551 Tb520 2.341 . S
O551 C539 1.266 . S
H552 C524 0.929 . S
H553 C525 0.931 . S
H554 C527 0.930 . S
H555 C528 0.930 . S
H556 C533 0.929 . S
H557 C534 0.931 . S
H558 C536 0.930 . S
H559 C537 0.930 . S
Tb560 C562 2.809 . S
Tb560 O580 2.484 . S
Tb560 O581 2.440 . S
Tb560 O582 2.658 . S
Tb560 O583 2.409 . S
Tb560 O584 2.378 . S
Tb560 O588 2.325 . S
Tb560 O591 2.341 . S
Tb561 C571 2.809 . S
Tb561 O582 2.325 . S
Tb561 O585 2.341 . S
Tb561 O586 2.484 . S
Tb561 O587 2.440 . S
Tb561 O588 2.658 . S
Tb561 O589 2.409 . S
Tb561 O590 2.378 . S
C562 Tb560 2.809 . S
C562 C563 1.514 . S
C562 O580 1.248 . S
C562 O581 1.266 . S
C563 C562 1.514 . S
C563 C564 1.359 . S
C563 C568 1.348 . S
C564 C563 1.359 . S
C564 C565 1.380 . S
C564 H592 0.929 . S
C565 C564 1.380 . S
C565 C566 1.347 . S
C565 H593 0.931 . S
C566 C565 1.347 . S
C566 C567 1.369 . S
C567 C566 1.369 . S
C567 C568 1.408 . S
C567 H594 0.930 . S
C568 C563 1.348 . S
C568 C567 1.408 . S
C568 H595 0.930 . S
C569 O582 1.281 . S
C569 O583 1.254 . S
C570 O584 1.236 . S
C570 O585 1.266 . S
C571 Tb561 2.809 . S
C571 C572 1.514 1_554 S
C571 O586 1.248 . S
C571 O587 1.266 . S
C572 C571 1.514 1_556 S
C572 C573 1.359 . S
C572 C577 1.348 . S
C573 C572 1.359 . S
C573 C574 1.380 . S
C573 H596 0.929 . S
C574 C573 1.380 . S
C574 C575 1.347 . S
C574 H597 0.931 . S
C575 C574 1.347 . S
C575 C576 1.369 . S
C576 C575 1.369 . S
C576 C577 1.408 . S
C576 H598 0.930 . S
C577 C572 1.348 . S
C577 C576 1.408 . S
C577 H599 0.930 . S
C578 O588 1.281 . S
C578 O589 1.254 . S
C579 O590 1.236 . S
C579 O591 1.266 . S
O580 Tb560 2.484 . S
O580 C562 1.248 . S
O581 Tb560 2.440 . S
O581 C562 1.266 . S
O582 Tb560 2.658 . S
O582 Tb561 2.325 . S
O582 C569 1.281 . S
O583 Tb560 2.409 . S
O583 C569 1.254 . S
O584 Tb560 2.378 . S
O584 C570 1.236 . S
O585 Tb561 2.341 . S
O585 C570 1.266 . S
O586 Tb561 2.484 . S
O586 C571 1.248 . S
O587 Tb561 2.440 . S
O587 C571 1.266 . S
O588 Tb560 2.325 . S
O588 Tb561 2.658 . S
O588 C578 1.281 . S
O589 Tb561 2.409 . S
O589 C578 1.254 . S
O590 Tb561 2.378 . S
O590 C579 1.236 . S
O591 Tb560 2.341 . S
O591 C579 1.266 . S
H592 C564 0.929 . S
H593 C565 0.931 . S
H594 C567 0.930 . S
H595 C568 0.930 . S
H596 C573 0.929 . S
H597 C574 0.931 . S
H598 C576 0.930 . S
H599 C577 0.930 . S
Tb600 C602 2.809 1_556 S
Tb600 O620 2.484 1_556 S
Tb600 O621 2.440 1_556 S
Tb600 O622 2.658 . S
Tb600 O623 2.409 . S
Tb600 O624 2.378 . S
Tb600 O628 2.325 . S
Tb600 O631 2.341 . S
Tb601 C611 2.809 . S
Tb601 O622 2.325 . S
Tb601 O625 2.341 . S
Tb601 O626 2.484 . S
Tb601 O627 2.440 . S
Tb601 O628 2.658 . S
Tb601 O629 2.409 . S
Tb601 O630 2.378 . S
C602 Tb600 2.809 1_554 S
C602 C603 1.514 . S
C602 O620 1.248 . S
C602 O621 1.266 . S
C603 C602 1.514 . S
C603 C604 1.359 . S
C603 C608 1.348 . S
C604 C603 1.359 . S
C604 C605 1.380 . S
C604 H632 0.929 . S
C605 C604 1.380 . S
C605 C606 1.347 . S
C605 H633 0.931 . S
C606 C605 1.347 . S
C606 C607 1.369 . S
C607 C606 1.369 . S
C607 C608 1.408 . S
C607 H634 0.930 . S
C608 C603 1.348 . S
C608 C607 1.408 . S
C608 H635 0.930 . S
C609 O622 1.281 . S
C609 O623 1.254 . S
C610 O624 1.236 . S
C610 O625 1.266 . S
C611 Tb601 2.809 . S
C611 C612 1.514 . S
C611 O626 1.248 . S
C611 O627 1.266 . S
C612 C611 1.514 . S
C612 C613 1.359 . S
C612 C617 1.348 . S
C613 C612 1.359 . S
C613 C614 1.380 . S
C613 H636 0.929 . S
C614 C613 1.380 . S
C614 C615 1.347 . S
C614 H637 0.931 . S
C615 C614 1.347 . S
C615 C616 1.369 . S
C616 C615 1.369 . S
C616 C617 1.408 . S
C616 H638 0.930 . S
C617 C612 1.348 . S
C617 C616 1.408 . S
C617 H639 0.930 . S
C618 O628 1.281 . S
C618 O629 1.254 . S
C619 O630 1.236 . S
C619 O631 1.266 . S
O620 Tb600 2.484 1_554 S
O620 C602 1.248 . S
O621 Tb600 2.440 1_554 S
O621 C602 1.266 . S
O622 Tb600 2.658 . S
O622 Tb601 2.325 . S
O622 C609 1.281 . S
O623 Tb600 2.409 . S
O623 C609 1.254 . S
O624 Tb600 2.378 . S
O624 C610 1.236 . S
O625 Tb601 2.341 . S
O625 C610 1.266 . S
O626 Tb601 2.484 . S
O626 C611 1.248 . S
O627 Tb601 2.440 . S
O627 C611 1.266 . S
O628 Tb600 2.325 . S
O628 Tb601 2.658 . S
O628 C618 1.281 . S
O629 Tb601 2.409 . S
O629 C618 1.254 . S
O630 Tb601 2.378 . S
O630 C619 1.236 . S
O631 Tb600 2.341 . S
O631 C619 1.266 . S
H632 C604 0.929 . S
H633 C605 0.931 . S
H634 C607 0.930 . S
H635 C608 0.930 . S
H636 C613 0.929 . S
H637 C614 0.931 . S
H638 C616 0.930 . S
H639 C617 0.930 . S
Tb640 C642 2.809 . S
Tb640 O660 2.484 . S
Tb640 O661 2.440 . S
Tb640 O662 2.658 . S
Tb640 O663 2.409 . S
Tb640 O664 2.378 . S
Tb640 O668 2.325 . S
Tb640 O671 2.341 . S
Tb641 C651 2.809 . S
Tb641 O662 2.325 . S
Tb641 O665 2.341 . S
Tb641 O666 2.484 . S
Tb641 O667 2.440 . S
Tb641 O668 2.658 . S
Tb641 O669 2.409 . S
Tb641 O670 2.378 . S
C642 Tb640 2.809 . S
C642 C643 1.514 . S
C642 O660 1.248 . S
C642 O661 1.266 . S
C643 C642 1.514 . S
C643 C644 1.359 . S
C643 C648 1.348 . S
C644 C643 1.359 . S
C644 C645 1.380 . S
C644 H672 0.929 . S
C645 C644 1.380 . S
C645 C646 1.347 . S
C645 H673 0.931 . S
C646 C645 1.347 . S
C646 C647 1.369 . S
C647 C646 1.369 . S
C647 C648 1.408 . S
C647 H674 0.930 . S
C648 C643 1.348 . S
C648 C647 1.408 . S
C648 H675 0.930 . S
C649 O662 1.281 . S
C649 O663 1.254 . S
C650 O664 1.236 . S
C650 O665 1.266 . S
C651 Tb641 2.809 . S
C651 C652 1.514 . S
C651 O666 1.248 . S
C651 O667 1.266 . S
C652 C651 1.514 . S
C652 C653 1.359 . S
C652 C657 1.348 . S
C653 C652 1.359 . S
C653 C654 1.380 . S
C653 H676 0.929 . S
C654 C653 1.380 . S
C654 C655 1.347 . S
C654 H677 0.931 . S
C655 C654 1.347 . S
C655 C656 1.369 1_565 S
C656 C655 1.369 1_545 S
C656 C657 1.408 1_545 S
C656 H678 0.930 . S
C657 C652 1.348 . S
C657 C656 1.408 1_565 S
C657 H679 0.930 1_565 S
C658 O668 1.281 . S
C658 O669 1.254 . S
C659 O670 1.236 . S
C659 O671 1.266 . S
O660 Tb640 2.484 . S
O660 C642 1.248 . S
O661 Tb640 2.440 . S
O661 C642 1.266 . S
O662 Tb640 2.658 . S
O662 Tb641 2.325 . S
O662 C649 1.281 . S
O663 Tb640 2.409 . S
O663 C649 1.254 . S
O664 Tb640 2.378 . S
O664 C650 1.236 . S
O665 Tb641 2.341 . S
O665 C650 1.266 . S
O666 Tb641 2.484 . S
O666 C651 1.248 . S
O667 Tb641 2.440 . S
O667 C651 1.266 . S
O668 Tb640 2.325 . S
O668 Tb641 2.658 . S
O668 C658 1.281 . S
O669 Tb641 2.409 . S
O669 C658 1.254 . S
O670 Tb641 2.378 . S
O670 C659 1.236 . S
O671 Tb640 2.341 . S
O671 C659 1.266 . S
H672 C644 0.929 . S
H673 C645 0.931 . S
H674 C647 0.930 . S
H675 C648 0.930 . S
H676 C653 0.929 . S
H677 C654 0.931 . S
H678 C656 0.930 . S
H679 C657 0.930 1_545 S
Tb680 C682 2.809 . S
Tb680 O700 2.484 . S
Tb680 O701 2.440 . S
Tb680 O702 2.658 . S
Tb680 O703 2.409 . S
Tb680 O704 2.378 . S
Tb680 O708 2.325 . S
Tb680 O711 2.341 . S
Tb681 C691 2.809 1_556 S
Tb681 O702 2.325 . S
Tb681 O705 2.341 . S
Tb681 O706 2.484 1_556 S
Tb681 O707 2.440 1_556 S
Tb681 O708 2.658 . S
Tb681 O709 2.409 . S
Tb681 O710 2.378 . S
C682 Tb680 2.809 . S
C682 C683 1.514 . S
C682 O700 1.248 . S
C682 O701 1.266 . S
C683 C682 1.514 . S
C683 C684 1.359 . S
C683 C688 1.348 . S
C684 C683 1.359 . S
C684 C685 1.380 . S
C684 H712 0.929 . S
C685 C684 1.380 . S
C685 C686 1.347 . S
C685 H713 0.931 . S
C686 C685 1.347 . S
C686 C687 1.369 . S
C687 C686 1.369 . S
C687 C688 1.408 . S
C687 H714 0.930 . S
C688 C683 1.348 . S
C688 C687 1.408 . S
C688 H715 0.930 . S
C689 O702 1.281 . S
C689 O703 1.254 . S
C690 O704 1.236 . S
C690 O705 1.266 . S
C691 Tb681 2.809 1_554 S
C691 C692 1.514 . S
C691 O706 1.248 . S
C691 O707 1.266 . S
C692 C691 1.514 . S
C692 C693 1.359 . S
C692 C697 1.348 . S
C693 C692 1.359 . S
C693 C694 1.380 . S
C693 H716 0.929 . S
C694 C693 1.380 . S
C694 C695 1.347 . S
C694 H717 0.931 . S
C695 C694 1.347 . S
C695 C696 1.369 . S
C696 C695 1.369 . S
C696 C697 1.408 . S
C696 H718 0.930 . S
C697 C692 1.348 . S
C697 C696 1.408 . S
C697 H719 0.930 . S
C698 O708 1.281 . S
C698 O709 1.254 . S
C699 O710 1.236 . S
C699 O711 1.266 . S
O700 Tb680 2.484 . S
O700 C682 1.248 . S
O701 Tb680 2.440 . S
O701 C682 1.266 . S
O702 Tb680 2.658 . S
O702 Tb681 2.325 . S
O702 C689 1.281 . S
O703 Tb680 2.409 . S
O703 C689 1.254 . S
O704 Tb680 2.378 . S
O704 C690 1.236 . S
O705 Tb681 2.341 . S
O705 C690 1.266 . S
O706 Tb681 2.484 1_554 S
O706 C691 1.248 . S
O707 Tb681 2.440 1_554 S
O707 C691 1.266 . S
O708 Tb680 2.325 . S
O708 Tb681 2.658 . S
O708 C698 1.281 . S
O709 Tb681 2.409 . S
O709 C698 1.254 . S
O710 Tb681 2.378 . S
O710 C699 1.236 . S
O711 Tb680 2.341 . S
O711 C699 1.266 . S
H712 C684 0.929 . S
H713 C685 0.931 . S
H714 C687 0.930 . S
H715 C688 0.930 . S
H716 C693 0.929 . S
H717 C694 0.931 . S
H718 C696 0.930 . S
H719 C697 0.930 . S
Tb720 C722 2.809 . S
Tb720 O740 2.484 . S
Tb720 O741 2.440 . S
Tb720 O742 2.658 . S
Tb720 O743 2.409 . S
Tb720 O744 2.378 . S
Tb720 O748 2.325 . S
Tb720 O751 2.341 . S
Tb721 C731 2.809 . S
Tb721 O742 2.325 . S
Tb721 O745 2.341 . S
Tb721 O746 2.484 . S
Tb721 O747 2.440 . S
Tb721 O748 2.658 . S
Tb721 O749 2.409 . S
Tb721 O750 2.378 . S
C722 Tb720 2.809 . S
C722 C723 1.514 1_554 S
C722 O740 1.248 . S
C722 O741 1.266 . S
C723 C722 1.514 1_556 S
C723 C724 1.359 . S
C723 C728 1.348 . S
C724 C723 1.359 . S
C724 C725 1.380 . S
C724 H752 0.929 . S
C725 C724 1.380 . S
C725 C726 1.347 . S
C725 H753 0.931 . S
C726 C725 1.347 . S
C726 C727 1.369 . S
C727 C726 1.369 . S
C727 C728 1.408 . S
C727 H754 0.930 . S
C728 C723 1.348 . S
C728 C727 1.408 . S
C728 H755 0.930 . S
C729 O742 1.281 . S
C729 O743 1.254 . S
C730 O744 1.236 . S
C730 O745 1.266 . S
C731 Tb721 2.809 . S
C731 C732 1.514 . S
C731 O746 1.248 . S
C731 O747 1.266 . S
C732 C731 1.514 . S
C732 C733 1.359 . S
C732 C737 1.348 . S
C733 C732 1.359 . S
C733 C734 1.380 . S
C733 H756 0.929 . S
C734 C733 1.380 . S
C734 C735 1.347 . S
C734 H757 0.931 . S
C735 C734 1.347 . S
C735 C736 1.369 1_545 S
C736 C735 1.369 1_565 S
C736 C737 1.408 1_565 S
C736 H758 0.930 . S
C737 C732 1.348 . S
C737 C736 1.408 1_545 S
C737 H759 0.930 1_545 S
C738 O748 1.281 . S
C738 O749 1.254 . S
C739 O750 1.236 . S
C739 O751 1.266 . S
O740 Tb720 2.484 . S
O740 C722 1.248 . S
O741 Tb720 2.440 . S
O741 C722 1.266 . S
O742 Tb720 2.658 . S
O742 Tb721 2.325 . S
O742 C729 1.281 . S
O743 Tb720 2.409 . S
O743 C729 1.254 . S
O744 Tb720 2.378 . S
O744 C730 1.236 . S
O745 Tb721 2.341 . S
O745 C730 1.266 . S
O746 Tb721 2.484 . S
O746 C731 1.248 . S
O747 Tb721 2.440 . S
O747 C731 1.266 . S
O748 Tb720 2.325 . S
O748 Tb721 2.658 . S
O748 C738 1.281 . S
O749 Tb721 2.409 . S
O749 C738 1.254 . S
O750 Tb721 2.378 . S
O750 C739 1.236 . S
O751 Tb720 2.341 . S
O751 C739 1.266 . S
H752 C724 0.929 . S
H753 C725 0.931 . S
H754 C727 0.930 . S
H755 C728 0.930 . S
H756 C733 0.929 . S
H757 C734 0.931 . S
H758 C736 0.930 . S
H759 C737 0.930 1_565 S
Tb760 C762 2.809 . S
Tb760 O780 2.484 . S
Tb760 O781 2.440 . S
Tb760 O782 2.658 . S
Tb760 O783 2.409 . S
Tb760 O784 2.378 . S
Tb760 O788 2.325 . S
Tb760 O791 2.341 . S
Tb761 C771 2.809 . S
Tb761 O782 2.325 . S
Tb761 O785 2.341 . S
Tb761 O786 2.484 . S
Tb761 O787 2.440 . S
Tb761 O788 2.658 . S
Tb761 O789 2.409 . S
Tb761 O790 2.378 . S
C762 Tb760 2.809 . S
C762 C763 1.514 . S
C762 O780 1.248 . S
C762 O781 1.266 . S
C763 C762 1.514 . S
C763 C764 1.359 . S
C763 C768 1.348 . S
C764 C763 1.359 . S
C764 C765 1.380 . S
C764 H792 0.929 . S
C765 C764 1.380 . S
C765 C766 1.347 . S
C765 H793 0.931 . S
C766 C765 1.347 . S
C766 C767 1.369 . S
C767 C766 1.369 . S
C767 C768 1.408 . S
C767 H794 0.930 . S
C768 C763 1.348 . S
C768 C767 1.408 . S
C768 H795 0.930 . S
C769 O782 1.281 . S
C769 O783 1.254 . S
C770 O784 1.236 . S
C770 O785 1.266 . S
C771 Tb761 2.809 . S
C771 C772 1.514 . S
C771 O786 1.248 . S
C771 O787 1.266 . S
C772 C771 1.514 . S
C772 C773 1.359 . S
C772 C777 1.348 . S
C773 C772 1.359 . S
C773 C774 1.380 . S
C773 H796 0.929 . S
C774 C773 1.380 . S
C774 C775 1.347 . S
C774 H797 0.931 . S
C775 C774 1.347 . S
C775 C776 1.369 . S
C776 C775 1.369 . S
C776 C777 1.408 . S
C776 H798 0.930 . S
C777 C772 1.348 . S
C777 C776 1.408 . S
C777 H799 0.930 . S
C778 O788 1.281 . S
C778 O789 1.254 . S
C779 O790 1.236 . S
C779 O791 1.266 . S
O780 Tb760 2.484 . S
O780 C762 1.248 . S
O781 Tb760 2.440 . S
O781 C762 1.266 . S
O782 Tb760 2.658 . S
O782 Tb761 2.325 . S
O782 C769 1.281 . S
O783 Tb760 2.409 . S
O783 C769 1.254 . S
O784 Tb760 2.378 . S
O784 C770 1.236 . S
O785 Tb761 2.341 . S
O785 C770 1.266 . S
O786 Tb761 2.484 . S
O786 C771 1.248 . S
O787 Tb761 2.440 . S
O787 C771 1.266 . S
O788 Tb760 2.325 . S
O788 Tb761 2.658 . S
O788 C778 1.281 . S
O789 Tb761 2.409 . S
O789 C778 1.254 . S
O790 Tb761 2.378 . S
O790 C779 1.236 . S
O791 Tb760 2.341 . S
O791 C779 1.266 . S
H792 C764 0.929 . S
H793 C765 0.931 . S
H794 C767 0.930 . S
H795 C768 0.930 . S
H796 C773 0.929 . S
H797 C774 0.931 . S
H798 C776 0.930 . S
H799 C777 0.930 . S
Tb800 C802 2.809 . S
Tb800 O820 2.484 . S
Tb800 O821 2.440 . S
Tb800 O822 2.658 . S
Tb800 O823 2.409 . S
Tb800 O824 2.378 . S
Tb800 O828 2.325 . S
Tb800 O831 2.341 . S
Tb801 C811 2.809 . S
Tb801 O822 2.325 . S
Tb801 O825 2.341 . S
Tb801 O826 2.484 . S
Tb801 O827 2.440 . S
Tb801 O828 2.658 . S
Tb801 O829 2.409 . S
Tb801 O830 2.378 . S
C802 Tb800 2.809 . S
C802 C803 1.514 . S
C802 O820 1.248 . S
C802 O821 1.266 . S
C803 C802 1.514 . S
C803 C804 1.359 . S
C803 C808 1.348 . S
C804 C803 1.359 . S
C804 C805 1.380 . S
C804 H832 0.929 . S
C805 C804 1.380 . S
C805 C806 1.347 . S
C805 H833 0.931 . S
C806 C805 1.347 . S
C806 C807 1.369 . S
C807 C806 1.369 . S
C807 C808 1.408 . S
C807 H834 0.930 . S
C808 C803 1.348 . S
C808 C807 1.408 . S
C808 H835 0.930 . S
C809 O822 1.281 . S
C809 O823 1.254 . S
C810 O824 1.236 . S
C810 O825 1.266 . S
C811 Tb801 2.809 . S
C811 C812 1.514 . S
C811 O826 1.248 . S
C811 O827 1.266 . S
C812 C811 1.514 . S
C812 C813 1.359 . S
C812 C817 1.348 . S
C813 C812 1.359 . S
C813 C814 1.380 1_554 S
C813 H836 0.929 . S
C814 C813 1.380 1_556 S
C814 C815 1.347 . S
C814 H837 0.931 . S
C815 C814 1.347 . S
C815 C816 1.369 1_546 S
C816 C815 1.369 1_564 S
C816 C817 1.408 1_565 S
C816 H838 0.930 1_554 S
C817 C812 1.348 . S
C817 C816 1.408 1_545 S
C817 H839 0.930 1_545 S
C818 O828 1.281 . S
C818 O829 1.254 . S
C819 O830 1.236 . S
C819 O831 1.266 . S
O820 Tb800 2.484 . S
O820 C802 1.248 . S
O821 Tb800 2.440 . S
O821 C802 1.266 . S
O822 Tb800 2.658 . S
O822 Tb801 2.325 . S
O822 C809 1.281 . S
O823 Tb800 2.409 . S
O823 C809 1.254 . S
O824 Tb800 2.378 . S
O824 C810 1.236 . S
O825 Tb801 2.341 . S
O825 C810 1.266 . S
O826 Tb801 2.484 . S
O826 C811 1.248 . S
O827 Tb801 2.440 . S
O827 C811 1.266 . S
O828 Tb800 2.325 . S
O828 Tb801 2.658 . S
O828 C818 1.281 . S
O829 Tb801 2.409 . S
O829 C818 1.254 . S
O830 Tb801 2.378 . S
O830 C819 1.236 . S
O831 Tb800 2.341 . S
O831 C819 1.266 . S
H832 C804 0.929 . S
H833 C805 0.931 . S
H834 C807 0.930 . S
H835 C808 0.930 . S
H836 C813 0.929 . S
H837 C814 0.931 . S
H838 C816 0.930 1_556 S
H839 C817 0.930 1_565 S
Tb840 C842 2.809 . S
Tb840 O860 2.484 . S
Tb840 O861 2.440 . S
Tb840 O862 2.658 . S
Tb840 O863 2.409 . S
Tb840 O864 2.378 . S
Tb840 O868 2.325 . S
Tb840 O871 2.341 . S
Tb841 C851 2.809 . S
Tb841 O862 2.325 . S
Tb841 O865 2.341 . S
Tb841 O866 2.484 . S
Tb841 O867 2.440 . S
Tb841 O868 2.658 . S
Tb841 O869 2.409 . S
Tb841 O870 2.378 . S
C842 Tb840 2.809 . S
C842 C843 1.514 . S
C842 O860 1.248 . S
C842 O861 1.266 . S
C843 C842 1.514 . S
C843 C844 1.359 . S
C843 C848 1.348 . S
C844 C843 1.359 . S
C844 C845 1.380 . S
C844 H872 0.929 . S
C845 C844 1.380 . S
C845 C846 1.347 . S
C845 H873 0.931 . S
C846 C845 1.347 . S
C846 C847 1.369 . S
C847 C846 1.369 . S
C847 C848 1.408 . S
C847 H874 0.930 . S
C848 C843 1.348 . S
C848 C847 1.408 . S
C848 H875 0.930 . S
C849 O862 1.281 . S
C849 O863 1.254 . S
C850 O864 1.236 . S
C850 O865 1.266 . S
C851 Tb841 2.809 . S
C851 C852 1.514 . S
C851 O866 1.248 . S
C851 O867 1.266 . S
C852 C851 1.514 . S
C852 C853 1.359 . S
C852 C857 1.348 . S
C853 C852 1.359 . S
C853 C854 1.380 . S
C853 H876 0.929 . S
C854 C853 1.380 . S
C854 C855 1.347 . S
C854 H877 0.931 . S
C855 C854 1.347 . S
C855 C856 1.369 . S
C856 C855 1.369 . S
C856 C857 1.408 . S
C856 H878 0.930 . S
C857 C852 1.348 . S
C857 C856 1.408 . S
C857 H879 0.930 . S
C858 O868 1.281 . S
C858 O869 1.254 . S
C859 O870 1.236 . S
C859 O871 1.266 . S
O860 Tb840 2.484 . S
O860 C842 1.248 . S
O861 Tb840 2.440 . S
O861 C842 1.266 . S
O862 Tb840 2.658 . S
O862 Tb841 2.325 . S
O862 C849 1.281 . S
O863 Tb840 2.409 . S
O863 C849 1.254 . S
O864 Tb840 2.378 . S
O864 C850 1.236 . S
O865 Tb841 2.341 . S
O865 C850 1.266 . S
O866 Tb841 2.484 . S
O866 C851 1.248 . S
O867 Tb841 2.440 . S
O867 C851 1.266 . S
O868 Tb840 2.325 . S
O868 Tb841 2.658 . S
O868 C858 1.281 . S
O869 Tb841 2.409 . S
O869 C858 1.254 . S
O870 Tb841 2.378 . S
O870 C859 1.236 . S
O871 Tb840 2.341 . S
O871 C859 1.266 . S
H872 C844 0.929 . S
H873 C845 0.931 . S
H874 C847 0.930 . S
H875 C848 0.930 . S
H876 C853 0.929 . S
H877 C854 0.931 . S
H878 C856 0.930 . S
H879 C857 0.930 . S
Tb880 C882 2.809 . S
Tb880 O900 2.484 . S
Tb880 O901 2.440 . S
Tb880 O902 2.658 . S
Tb880 O903 2.409 . S
Tb880 O904 2.378 . S
Tb880 O908 2.325 . S
Tb880 O911 2.341 . S
Tb881 C891 2.809 . S
Tb881 O902 2.325 . S
Tb881 O905 2.341 . S
Tb881 O906 2.484 . S
Tb881 O907 2.440 . S
Tb881 O908 2.658 . S
Tb881 O909 2.409 . S
Tb881 O910 2.378 . S
C882 Tb880 2.809 . S
C882 C883 1.514 . S
C882 O900 1.248 . S
C882 O901 1.266 . S
C883 C882 1.514 . S
C883 C884 1.359 . S
C883 C888 1.348 . S
C884 C883 1.359 . S
C884 C885 1.380 . S
C884 H912 0.929 . S
C885 C884 1.380 . S
C885 C886 1.347 1_556 S
C885 H913 0.931 1_556 S
C886 C885 1.347 1_554 S
C886 C887 1.369 1_554 S
C887 C886 1.369 1_556 S
C887 C888 1.408 . S
C887 H914 0.930 . S
C888 C883 1.348 . S
C888 C887 1.408 . S
C888 H915 0.930 . S
C889 O902 1.281 . S
C889 O903 1.254 . S
C890 O904 1.236 . S
C890 O905 1.266 . S
C891 Tb881 2.809 . S
C891 C892 1.514 . S
C891 O906 1.248 . S
C891 O907 1.266 . S
C892 C891 1.514 . S
C892 C893 1.359 . S
C892 C897 1.348 . S
C893 C892 1.359 . S
C893 C894 1.380 . S
C893 H916 0.929 . S
C894 C893 1.380 . S
C894 C895 1.347 . S
C894 H917 0.931 . S
C895 C894 1.347 . S
C895 C896 1.369 1_565 S
C896 C895 1.369 1_545 S
C896 C897 1.408 1_545 S
C896 H918 0.930 . S
C897 C892 1.348 . S
C897 C896 1.408 1_565 S
C897 H919 0.930 1_565 S
C898 O908 1.281 . S
C898 O909 1.254 . S
C899 O910 1.236 . S
C899 O911 1.266 . S
O900 Tb880 2.484 . S
O900 C882 1.248 . S
O901 Tb880 2.440 . S
O901 C882 1.266 . S
O902 Tb880 2.658 . S
O902 Tb881 2.325 . S
O902 C889 1.281 . S
O903 Tb880 2.409 . S
O903 C889 1.254 . S
O904 Tb880 2.378 . S
O904 C890 1.236 . S
O905 Tb881 2.341 . S
O905 C890 1.266 . S
O906 Tb881 2.484 . S
O906 C891 1.248 . S
O907 Tb881 2.440 . S
O907 C891 1.266 . S
O908 Tb880 2.325 . S
O908 Tb881 2.658 . S
O908 C898 1.281 . S
O909 Tb881 2.409 . S
O909 C898 1.254 . S
O910 Tb881 2.378 . S
O910 C899 1.236 . S
O911 Tb880 2.341 . S
O911 C899 1.266 . S
H912 C884 0.929 . S
H913 C885 0.931 1_554 S
H914 C887 0.930 . S
H915 C888 0.930 . S
H916 C893 0.929 . S
H917 C894 0.931 . S
H918 C896 0.930 . S
H919 C897 0.930 1_545 S
Tb920 C922 2.809 . S
Tb920 O940 2.484 . S
Tb920 O941 2.440 . S
Tb920 O942 2.658 1_554 S
Tb920 O943 2.409 . S
Tb920 O944 2.378 . S
Tb920 O948 2.325 . S
Tb920 O951 2.341 1_554 S
Tb921 C931 2.809 . S
Tb921 O942 2.325 . S
Tb921 O945 2.341 1_556 S
Tb921 O946 2.484 . S
Tb921 O947 2.440 . S
Tb921 O948 2.658 1_556 S
Tb921 O949 2.409 . S
Tb921 O950 2.378 . S
C922 Tb920 2.809 . S
C922 C923 1.514 . S
C922 O940 1.248 . S
C922 O941 1.266 . S
C923 C922 1.514 . S
C923 C924 1.359 . S
C923 C928 1.348 . S
C924 C923 1.359 . S
C924 C925 1.380 . S
C924 H952 0.929 . S
C925 C924 1.380 . S
C925 C926 1.347 . S
C925 H953 0.931 . S
C926 C925 1.347 . S
C926 C927 1.369 . S
C927 C926 1.369 . S
C927 C928 1.408 . S
C927 H954 0.930 . S
C928 C923 1.348 . S
C928 C927 1.408 . S
C928 H955 0.930 . S
C929 O942 1.281 . S
C929 O943 1.254 1_556 S
C930 O944 1.236 . S
C930 O945 1.266 . S
C931 Tb921 2.809 . S
C931 C932 1.514 . S
C931 O946 1.248 . S
C931 O947 1.266 . S
C932 C931 1.514 . S
C932 C933 1.359 . S
C932 C937 1.348 . S
C933 C932 1.359 . S
C933 C934 1.380 . S
C933 H956 0.929 . S
C934 C933 1.380 . S
C934 C935 1.347 . S
C934 H957 0.931 . S
C935 C934 1.347 . S
C935 C936 1.369 . S
C936 C935 1.369 . S
C936 C937 1.408 . S
C936 H958 0.930 . S
C937 C932 1.348 . S
C937 C936 1.408 . S
C937 H959 0.930 . S
C938 O948 1.286 . S
C938 O949 1.244 1_554 S
C939 O950 1.236 . S
C939 O951 1.266 . S
O940 Tb920 2.484 . S
O940 C922 1.248 . S
O941 Tb920 2.440 . S
O941 C922 1.266 . S
O942 Tb920 2.658 1_556 S
O942 Tb921 2.325 . S
O942 C929 1.281 . S
O943 Tb920 2.409 . S
O943 C929 1.254 1_554 S
O944 Tb920 2.378 . S
O944 C930 1.236 . S
O945 Tb921 2.341 1_554 S
O945 C930 1.266 . S
O946 Tb921 2.484 . S
O946 C931 1.248 . S
O947 Tb921 2.440 . S
O947 C931 1.266 . S
O948 Tb920 2.325 . S
O948 Tb921 2.658 1_554 S
O948 C938 1.286 . S
O949 Tb921 2.409 . S
O949 C938 1.244 1_556 S
O950 Tb921 2.378 . S
O950 C939 1.236 . S
O951 Tb920 2.341 1_556 S
O951 C939 1.266 . S
H952 C924 0.929 . S
H953 C925 0.931 . S
H954 C927 0.930 . S
H955 C928 0.930 . S
H956 C933 0.929 . S
H957 C934 0.931 . S
H958 C936 0.930 . S
H959 C937 0.930 . S
Tb960 C962 2.809 . S
Tb960 O980 2.484 . S
Tb960 O981 2.440 . S
Tb960 O982 2.658 . S
Tb960 O983 2.409 . S
Tb960 O984 2.378 . S
Tb960 O988 2.325 . S
Tb960 O991 2.341 . S
Tb961 C971 2.809 . S
Tb961 O982 2.325 . S
Tb961 O985 2.341 . S
Tb961 O986 2.484 . S
Tb961 O987 2.440 . S
Tb961 O988 2.658 . S
Tb961 O989 2.409 . S
Tb961 O990 2.378 . S
C962 Tb960 2.809 . S
C962 C963 1.514 . S
C962 O980 1.248 . S
C962 O981 1.266 . S
C963 C962 1.514 . S
C963 C964 1.359 . S
C963 C968 1.348 . S
C964 C963 1.359 . S
C964 C965 1.380 . S
C964 H992 0.929 . S
C965 C964 1.380 . S
C965 C966 1.347 . S
C965 H993 0.931 . S
C966 C965 1.347 . S
C966 C967 1.369 1_545 S
C967 C966 1.369 1_565 S
C967 C968 1.408 1_565 S
C967 H994 0.930 . S
C968 C963 1.348 . S
C968 C967 1.408 1_545 S
C968 H995 0.930 1_545 S
C969 O982 1.281 . S
C969 O983 1.254 . S
C970 O984 1.236 . S
C970 O985 1.266 . S
C971 Tb961 2.809 . S
C971 C972 1.514 . S
C971 O986 1.248 . S
C971 O987 1.266 . S
C972 C971 1.514 . S
C972 C973 1.359 . S
C972 C977 1.348 . S
C973 C972 1.359 . S
C973 C974 1.380 . S
C973 H996 0.929 . S
C974 C973 1.380 . S
C974 C975 1.347 1_556 S
C974 H997 0.931 1_556 S
C975 C974 1.347 1_554 S
C975 C976 1.369 1_554 S
C976 C975 1.369 1_556 S
C976 C977 1.408 . S
C976 H998 0.930 . S
C977 C972 1.348 . S
C977 C976 1.408 . S
C977 H999 0.930 . S
C978 O988 1.281 . S
C978 O989 1.254 . S
C979 O990 1.236 . S
C979 O991 1.266 . S
O980 Tb960 2.484 . S
O980 C962 1.248 . S
O981 Tb960 2.440 . S
O981 C962 1.266 . S
O982 Tb960 2.658 . S
O982 Tb961 2.325 . S
O982 C969 1.281 . S
O983 Tb960 2.409 . S
O983 C969 1.254 . S
O984 Tb960 2.378 . S
O984 C970 1.236 . S
O985 Tb961 2.341 . S
O985 C970 1.266 . S
O986 Tb961 2.484 . S
O986 C971 1.248 . S
O987 Tb961 2.440 . S
O987 C971 1.266 . S
O988 Tb960 2.325 . S
O988 Tb961 2.658 . S
O988 C978 1.281 . S
O989 Tb961 2.409 . S
O989 C978 1.254 . S
O990 Tb961 2.378 . S
O990 C979 1.236 . S
O991 Tb960 2.341 . S
O991 C979 1.266 . S
H992 C964 0.929 . S
H993 C965 0.931 . S
H994 C967 0.930 . S
H995 C968 0.930 1_565 S
H996 C973 0.929 . S
H997 C974 0.931 1_554 S
H998 C976 0.930 . S
H999 C977 0.930 . S
Tb1000 C1002 2.809 . S
Tb1000 O1020 2.484 . S
Tb1000 O1021 2.440 . S
Tb1000 O1022 2.658 . S
Tb1000 O1023 2.409 . S
Tb1000 O1024 2.378 . S
Tb1000 O1028 2.325 . S
Tb1000 O1031 2.341 . S
Tb1001 C1011 2.809 . S
Tb1001 O1022 2.325 . S
Tb1001 O1025 2.341 . S
Tb1001 O1026 2.484 . S
Tb1001 O1027 2.440 . S
Tb1001 O1028 2.658 . S
Tb1001 O1029 2.409 . S
Tb1001 O1030 2.378 . S
C1002 Tb1000 2.809 . S
C1002 C1003 1.514 . S
C1002 O1020 1.248 . S
C1002 O1021 1.266 . S
C1003 C1002 1.514 . S
C1003 C1004 1.359 . S
C1003 C1008 1.348 . S
C1004 C1003 1.359 . S
C1004 C1005 1.380 . S
C1004 H1032 0.929 . S
C1005 C1004 1.380 . S
C1005 C1006 1.347 . S
C1005 H1033 0.931 . S
C1006 C1005 1.347 . S
C1006 C1007 1.369 . S
C1007 C1006 1.369 . S
C1007 C1008 1.408 . S
C1007 H1034 0.930 . S
C1008 C1003 1.348 . S
C1008 C1007 1.408 . S
C1008 H1035 0.930 . S
C1009 O1022 1.281 . S
C1009 O1023 1.254 . S
C1010 O1024 1.236 . S
C1010 O1025 1.266 . S
C1011 Tb1001 2.809 . S
C1011 C1012 1.514 . S
C1011 O1026 1.248 . S
C1011 O1027 1.266 . S
C1012 C1011 1.514 . S
C1012 C1013 1.359 . S
C1012 C1017 1.348 . S
C1013 C1012 1.359 . S
C1013 C1014 1.380 . S
C1013 H1036 0.929 . S
C1014 C1013 1.380 . S
C1014 C1015 1.347 . S
C1014 H1037 0.931 . S
C1015 C1014 1.347 . S
C1015 C1016 1.369 . S
C1016 C1015 1.369 . S
C1016 C1017 1.408 . S
C1016 H1038 0.930 . S
C1017 C1012 1.348 . S
C1017 C1016 1.408 . S
C1017 H1039 0.930 . S
C1018 O1028 1.281 . S
C1018 O1029 1.254 . S
C1019 O1030 1.236 . S
C1019 O1031 1.266 . S
O1020 Tb1000 2.484 . S
O1020 C1002 1.248 . S
O1021 Tb1000 2.440 . S
O1021 C1002 1.266 . S
O1022 Tb1000 2.658 . S
O1022 Tb1001 2.325 . S
O1022 C1009 1.281 . S
O1023 Tb1000 2.409 . S
O1023 C1009 1.254 . S
O1024 Tb1000 2.378 . S
O1024 C1010 1.236 . S
O1025 Tb1001 2.341 . S
O1025 C1010 1.266 . S
O1026 Tb1001 2.484 . S
O1026 C1011 1.248 . S
O1027 Tb1001 2.440 . S
O1027 C1011 1.266 . S
O1028 Tb1000 2.325 . S
O1028 Tb1001 2.658 . S
O1028 C1018 1.281 . S
O1029 Tb1001 2.409 . S
O1029 C1018 1.254 . S
O1030 Tb1001 2.378 . S
O1030 C1019 1.236 . S
O1031 Tb1000 2.341 . S
O1031 C1019 1.266 . S
H1032 C1004 0.929 . S
H1033 C1005 0.931 . S
H1034 C1007 0.930 . S
H1035 C1008 0.930 . S
H1036 C1013 0.929 . S
H1037 C1014 0.931 . S
H1038 C1016 0.930 . S
H1039 C1017 0.930 . S
Tb1040 C1042 2.809 . S
Tb1040 O1060 2.484 . S
Tb1040 O1061 2.440 . S
Tb1040 O1062 2.658 . S
Tb1040 O1063 2.409 . S
Tb1040 O1064 2.378 . S
Tb1040 O1068 2.325 . S
Tb1040 O1071 2.341 . S
Tb1041 C1051 2.809 . S
Tb1041 O1062 2.325 . S
Tb1041 O1065 2.341 . S
Tb1041 O1066 2.484 . S
Tb1041 O1067 2.440 . S
Tb1041 O1068 2.658 . S
Tb1041 O1069 2.409 . S
Tb1041 O1070 2.378 . S
C1042 Tb1040 2.809 . S
C1042 C1043 1.514 . S
C1042 O1060 1.248 . S
C1042 O1061 1.266 . S
C1043 C1042 1.514 . S
C1043 C1044 1.359 . S
C1043 C1048 1.348 . S
C1044 C1043 1.359 . S
C1044 C1045 1.380 1_554 S
C1044 H1072 0.929 . S
C1045 C1044 1.380 1_556 S
C1045 C1046 1.347 . S
C1045 H1073 0.931 . S
C1046 C1045 1.347 . S
C1046 C1047 1.369 1_566 S
C1047 C1046 1.369 1_544 S
C1047 C1048 1.408 1_545 S
C1047 H1074 0.930 1_554 S
C1048 C1043 1.348 . S
C1048 C1047 1.408 1_565 S
C1048 H1075 0.930 1_565 S
C1049 O1062 1.281 . S
C1049 O1063 1.254 . S
C1050 O1064 1.236 . S
C1050 O1065 1.266 . S
C1051 Tb1041 2.809 . S
C1051 C1052 1.514 . S
C1051 O1066 1.248 . S
C1051 O1067 1.266 . S
C1052 C1051 1.514 . S
C1052 C1053 1.359 . S
C1052 C1057 1.348 . S
C1053 C1052 1.359 . S
C1053 C1054 1.380 . S
C1053 H1076 0.929 . S
C1054 C1053 1.380 . S
C1054 C1055 1.347 . S
C1054 H1077 0.931 . S
C1055 C1054 1.347 . S
C1055 C1056 1.369 . S
C1056 C1055 1.369 . S
C1056 C1057 1.408 . S
C1056 H1078 0.930 . S
C1057 C1052 1.348 . S
C1057 C1056 1.408 . S
C1057 H1079 0.930 . S
C1058 O1068 1.281 . S
C1058 O1069 1.254 . S
C1059 O1070 1.236 . S
C1059 O1071 1.266 . S
O1060 Tb1040 2.484 . S
O1060 C1042 1.248 . S
O1061 Tb1040 2.440 . S
O1061 C1042 1.266 . S
O1062 Tb1040 2.658 . S
O1062 Tb1041 2.325 . S
O1062 C1049 1.281 . S
O1063 Tb1040 2.409 . S
O1063 C1049 1.254 . S
O1064 Tb1040 2.378 . S
O1064 C1050 1.236 . S
O1065 Tb1041 2.341 . S
O1065 C1050 1.266 . S
O1066 Tb1041 2.484 . S
O1066 C1051 1.248 . S
O1067 Tb1041 2.440 . S
O1067 C1051 1.266 . S
O1068 Tb1040 2.325 . S
O1068 Tb1041 2.658 . S
O1068 C1058 1.281 . S
O1069 Tb1041 2.409 . S
O1069 C1058 1.254 . S
O1070 Tb1041 2.378 . S
O1070 C1059 1.236 . S
O1071 Tb1040 2.341 . S
O1071 C1059 1.266 . S
H1072 C1044 0.929 . S
H1073 C1045 0.931 . S
H1074 C1047 0.930 1_556 S
H1075 C1048 0.930 1_545 S
H1076 C1053 0.929 . S
H1077 C1054 0.931 . S
H1078 C1056 0.930 . S
H1079 C1057 0.930 . S
Tb1080 C1082 2.809 . S
Tb1080 O1100 2.484 . S
Tb1080 O1101 2.440 . S
Tb1080 O1102 2.658 1_556 S
Tb1080 O1103 2.409 . S
Tb1080 O1104 2.378 . S
Tb1080 O1108 2.325 . S
Tb1080 O1111 2.341 1_556 S
Tb1081 C1091 2.809 . S
Tb1081 O1102 2.325 . S
Tb1081 O1105 2.341 1_554 S
Tb1081 O1106 2.484 . S
Tb1081 O1107 2.440 . S
Tb1081 O1108 2.658 1_554 S
Tb1081 O1109 2.409 . S
Tb1081 O1110 2.378 . S
C1082 Tb1080 2.809 . S
C1082 C1083 1.514 . S
C1082 O1100 1.248 . S
C1082 O1101 1.266 . S
C1083 C1082 1.514 . S
C1083 C1084 1.359 . S
C1083 C1088 1.348 . S
C1084 C1083 1.359 . S
C1084 C1085 1.380 . S
C1084 H1112 0.929 . S
C1085 C1084 1.380 . S
C1085 C1086 1.347 . S
C1085 H1113 0.931 . S
C1086 C1085 1.347 . S
C1086 C1087 1.369 . S
C1087 C1086 1.369 . S
C1087 C1088 1.408 . S
C1087 H1114 0.930 . S
C1088 C1083 1.348 . S
C1088 C1087 1.408 . S
C1088 H1115 0.930 . S
C1089 O1102 1.286 . S
C1089 O1103 1.244 1_554 S
C1090 O1104 1.236 . S
C1090 O1105 1.266 . S
C1091 Tb1081 2.809 . S
C1091 C1092 1.514 . S
C1091 O1106 1.248 . S
C1091 O1107 1.266 . S
C1092 C1091 1.514 . S
C1092 C1093 1.359 . S
C1092 C1097 1.348 . S
C1093 C1092 1.359 . S
C1093 C1094 1.380 . S
C1093 H1116 0.929 . S
C1094 C1093 1.380 . S
C1094 C1095 1.347 . S
C1094 H1117 0.931 . S
C1095 C1094 1.347 . S
C1095 C1096 1.369 . S
C1096 C1095 1.369 . S
C1096 C1097 1.408 . S
C1096 H1118 0.930 . S
C1097 C1092 1.348 . S
C1097 C1096 1.408 . S
C1097 H1119 0.930 . S
C1098 O1108 1.281 . S
C1098 O1109 1.254 1_556 S
C1099 O1110 1.236 . S
C1099 O1111 1.266 . S
O1100 Tb1080 2.484 . S
O1100 C1082 1.248 . S
O1101 Tb1080 2.440 . S
O1101 C1082 1.266 . S
O1102 Tb1080 2.658 1_554 S
O1102 Tb1081 2.325 . S
O1102 C1089 1.286 . S
O1103 Tb1080 2.409 . S
O1103 C1089 1.244 1_556 S
O1104 Tb1080 2.378 . S
O1104 C1090 1.236 . S
O1105 Tb1081 2.341 1_556 S
O1105 C1090 1.266 . S
O1106 Tb1081 2.484 . S
O1106 C1091 1.248 . S
O1107 Tb1081 2.440 . S
O1107 C1091 1.266 . S
O1108 Tb1080 2.325 . S
O1108 Tb1081 2.658 1_556 S
O1108 C1098 1.281 . S
O1109 Tb1081 2.409 . S
O1109 C1098 1.254 1_554 S
O1110 Tb1081 2.378 . S
O1110 C1099 1.236 . S
O1111 Tb1080 2.341 1_554 S
O1111 C1099 1.266 . S
H1112 C1084 0.929 . S
H1113 C1085 0.931 . S
H1114 C1087 0.930 . S
H1115 C1088 0.930 . S
H1116 C1093 0.929 . S
H1117 C1094 0.931 . S
H1118 C1096 0.930 . S
H1119 C1097 0.930 . S
Tb1120 C1122 2.809 . S
Tb1120 O1140 2.484 . S
Tb1120 O1141 2.440 . S
Tb1120 O1142 2.658 . S
Tb1120 O1143 2.409 . S
Tb1120 O1144 2.378 . S
Tb1120 O1148 2.325 . S
Tb1120 O1151 2.341 . S
Tb1121 C1131 2.809 . S
Tb1121 O1142 2.325 . S
Tb1121 O1145 2.341 . S
Tb1121 O1146 2.484 . S
Tb1121 O1147 2.440 . S
Tb1121 O1148 2.658 . S
Tb1121 O1149 2.409 . S
Tb1121 O1150 2.378 . S
C1122 Tb1120 2.809 . S
C1122 C1123 1.514 . S
C1122 O1140 1.248 . S
C1122 O1141 1.266 . S
C1123 C1122 1.514 . S
C1123 C1124 1.359 . S
C1123 C1128 1.348 . S
C1124 C1123 1.359 . S
C1124 C1125 1.380 . S
C1124 H1152 0.929 . S
C1125 C1124 1.380 . S
C1125 C1126 1.347 . S
C1125 H1153 0.931 . S
C1126 C1125 1.347 . S
C1126 C1127 1.369 1_565 S
C1127 C1126 1.369 1_545 S
C1127 C1128 1.408 1_545 S
C1127 H1154 0.930 . S
C1128 C1123 1.348 . S
C1128 C1127 1.408 1_565 S
C1128 H1155 0.930 1_565 S
C1129 O1142 1.281 . S
C1129 O1143 1.254 . S
C1130 O1144 1.236 . S
C1130 O1145 1.266 . S
C1131 Tb1121 2.809 . S
C1131 C1132 1.514 1_554 S
C1131 O1146 1.248 . S
C1131 O1147 1.266 . S
C1132 C1131 1.514 1_556 S
C1132 C1133 1.359 . S
C1132 C1137 1.348 . S
C1133 C1132 1.359 . S
C1133 C1134 1.380 . S
C1133 H1156 0.929 . S
C1134 C1133 1.380 . S
C1134 C1135 1.347 . S
C1134 H1157 0.931 . S
C1135 C1134 1.347 . S
C1135 C1136 1.369 . S
C1136 C1135 1.369 . S
C1136 C1137 1.408 . S
C1136 H1158 0.930 . S
C1137 C1132 1.348 . S
C1137 C1136 1.408 . S
C1137 H1159 0.930 . S
C1138 O1148 1.281 . S
C1138 O1149 1.254 . S
C1139 O1150 1.236 . S
C1139 O1151 1.266 . S
O1140 Tb1120 2.484 . S
O1140 C1122 1.248 . S
O1141 Tb1120 2.440 . S
O1141 C1122 1.266 . S
O1142 Tb1120 2.658 . S
O1142 Tb1121 2.325 . S
O1142 C1129 1.281 . S
O1143 Tb1120 2.409 . S
O1143 C1129 1.254 . S
O1144 Tb1120 2.378 . S
O1144 C1130 1.236 . S
O1145 Tb1121 2.341 . S
O1145 C1130 1.266 . S
O1146 Tb1121 2.484 . S
O1146 C1131 1.248 . S
O1147 Tb1121 2.440 . S
O1147 C1131 1.266 . S
O1148 Tb1120 2.325 . S
O1148 Tb1121 2.658 . S
O1148 C1138 1.281 . S
O1149 Tb1121 2.409 . S
O1149 C1138 1.254 . S
O1150 Tb1121 2.378 . S
O1150 C1139 1.236 . S
O1151 Tb1120 2.341 . S
O1151 C1139 1.266 . S
H1152 C1124 0.929 . S
H1153 C1125 0.931 . S
H1154 C1127 0.930 . S
H1155 C1128 0.930 1_545 S
H1156 C1133 0.929 . S
H1157 C1134 0.931 . S
H1158 C1136 0.930 . S
H1159 C1137 0.930 . S
Tb1160 C1162 2.809 1_556 S
Tb1160 O1180 2.484 1_556 S
Tb1160 O1181 2.440 1_556 S
Tb1160 O1182 2.658 . S
Tb1160 O1183 2.409 . S
Tb1160 O1184 2.378 . S
Tb1160 O1188 2.325 . S
Tb1160 O1191 2.341 . S
Tb1161 C1171 2.809 . S
Tb1161 O1182 2.325 . S
Tb1161 O1185 2.341 . S
Tb1161 O1186 2.484 . S
Tb1161 O1187 2.440 . S
Tb1161 O1188 2.658 . S
Tb1161 O1189 2.409 . S
Tb1161 O1190 2.378 . S
C1162 Tb1160 2.809 1_554 S
C1162 C1163 1.514 . S
C1162 O1180 1.248 . S
C1162 O1181 1.266 . S
C1163 C1162 1.514 . S
C1163 C1164 1.359 . S
C1163 C1168 1.348 . S
C1164 C1163 1.359 . S
C1164 C1165 1.380 . S
C1164 H1192 0.929 . S
C1165 C1164 1.380 . S
C1165 C1166 1.347 . S
C1165 H1193 0.931 . S
C1166 C1165 1.347 . S
C1166 C1167 1.369 . S
C1167 C1166 1.369 . S
C1167 C1168 1.408 . S
C1167 H1194 0.930 . S
C1168 C1163 1.348 . S
C1168 C1167 1.408 . S
C1168 H1195 0.930 . S
C1169 O1182 1.281 . S
C1169 O1183 1.254 . S
C1170 O1184 1.236 . S
C1170 O1185 1.266 . S
C1171 Tb1161 2.809 . S
C1171 C1172 1.514 . S
C1171 O1186 1.248 . S
C1171 O1187 1.266 . S
C1172 C1171 1.514 . S
C1172 C1173 1.359 . S
C1172 C1177 1.348 . S
C1173 C1172 1.359 . S
C1173 C1174 1.380 . S
C1173 H1196 0.929 . S
C1174 C1173 1.380 . S
C1174 C1175 1.347 . S
C1174 H1197 0.931 . S
C1175 C1174 1.347 . S
C1175 C1176 1.369 . S
C1176 C1175 1.369 . S
C1176 C1177 1.408 . S
C1176 H1198 0.930 . S
C1177 C1172 1.348 . S
C1177 C1176 1.408 . S
C1177 H1199 0.930 . S
C1178 O1188 1.281 . S
C1178 O1189 1.254 . S
C1179 O1190 1.236 . S
C1179 O1191 1.266 . S
O1180 Tb1160 2.484 1_554 S
O1180 C1162 1.248 . S
O1181 Tb1160 2.440 1_554 S
O1181 C1162 1.266 . S
O1182 Tb1160 2.658 . S
O1182 Tb1161 2.325 . S
O1182 C1169 1.281 . S
O1183 Tb1160 2.409 . S
O1183 C1169 1.254 . S
O1184 Tb1160 2.378 . S
O1184 C1170 1.236 . S
O1185 Tb1161 2.341 . S
O1185 C1170 1.266 . S
O1186 Tb1161 2.484 . S
O1186 C1171 1.248 . S
O1187 Tb1161 2.440 . S
O1187 C1171 1.266 . S
O1188 Tb1160 2.325 . S
O1188 Tb1161 2.658 . S
O1188 C1178 1.281 . S
O1189 Tb1161 2.409 . S
O1189 C1178 1.254 . S
O1190 Tb1161 2.378 . S
O1190 C1179 1.236 . S
O1191 Tb1160 2.341 . S
O1191 C1179 1.266 . S
H1192 C1164 0.929 . S
H1193 C1165 0.931 . S
H1194 C1167 0.930 . S
H1195 C1168 0.930 . S
H1196 C1173 0.929 . S
H1197 C1174 0.931 . S
H1198 C1176 0.930 . S
H1199 C1177 0.930 . S
Tb1200 C1202 2.809 . S
Tb1200 O1220 2.484 . S
Tb1200 O1221 2.440 . S
Tb1200 O1222 2.658 . S
Tb1200 O1223 2.409 . S
Tb1200 O1224 2.378 . S
Tb1200 O1228 2.325 . S
Tb1200 O1231 2.341 . S
Tb1201 C1211 2.809 . S
Tb1201 O1222 2.325 . S
Tb1201 O1225 2.341 . S
Tb1201 O1226 2.484 . S
Tb1201 O1227 2.440 . S
Tb1201 O1228 2.658 . S
Tb1201 O1229 2.409 . S
Tb1201 O1230 2.378 . S
C1202 Tb1200 2.809 . S
C1202 C1203 1.514 . S
C1202 O1220 1.248 . S
C1202 O1221 1.266 . S
C1203 C1202 1.514 . S
C1203 C1204 1.359 . S
C1203 C1208 1.348 . S
C1204 C1203 1.359 . S
C1204 C1205 1.380 . S
C1204 H1232 0.929 . S
C1205 C1204 1.380 . S
C1205 C1206 1.347 . S
C1205 H1233 0.931 . S
C1206 C1205 1.347 . S
C1206 C1207 1.369 1_545 S
C1207 C1206 1.369 1_565 S
C1207 C1208 1.408 1_565 S
C1207 H1234 0.930 . S
C1208 C1203 1.348 . S
C1208 C1207 1.408 1_545 S
C1208 H1235 0.930 1_545 S
C1209 O1222 1.281 . S
C1209 O1223 1.254 . S
C1210 O1224 1.236 . S
C1210 O1225 1.266 . S
C1211 Tb1201 2.809 . S
C1211 C1212 1.514 . S
C1211 O1226 1.248 . S
C1211 O1227 1.266 . S
C1212 C1211 1.514 . S
C1212 C1213 1.359 . S
C1212 C1217 1.348 . S
C1213 C1212 1.359 . S
C1213 C1214 1.380 . S
C1213 H1236 0.929 . S
C1214 C1213 1.380 . S
C1214 C1215 1.347 . S
C1214 H1237 0.931 . S
C1215 C1214 1.347 . S
C1215 C1216 1.369 . S
C1216 C1215 1.369 . S
C1216 C1217 1.408 . S
C1216 H1238 0.930 . S
C1217 C1212 1.348 . S
C1217 C1216 1.408 . S
C1217 H1239 0.930 . S
C1218 O1228 1.281 . S
C1218 O1229 1.254 . S
C1219 O1230 1.236 . S
C1219 O1231 1.266 . S
O1220 Tb1200 2.484 . S
O1220 C1202 1.248 . S
O1221 Tb1200 2.440 . S
O1221 C1202 1.266 . S
O1222 Tb1200 2.658 . S
O1222 Tb1201 2.325 . S
O1222 C1209 1.281 . S
O1223 Tb1200 2.409 . S
O1223 C1209 1.254 . S
O1224 Tb1200 2.378 . S
O1224 C1210 1.236 . S
O1225 Tb1201 2.341 . S
O1225 C1210 1.266 . S
O1226 Tb1201 2.484 . S
O1226 C1211 1.248 . S
O1227 Tb1201 2.440 . S
O1227 C1211 1.266 . S
O1228 Tb1200 2.325 . S
O1228 Tb1201 2.658 . S
O1228 C1218 1.281 . S
O1229 Tb1201 2.409 . S
O1229 C1218 1.254 . S
O1230 Tb1201 2.378 . S
O1230 C1219 1.236 . S
O1231 Tb1200 2.341 . S
O1231 C1219 1.266 . S
H1232 C1204 0.929 . S
H1233 C1205 0.931 . S
H1234 C1207 0.930 . S
H1235 C1208 0.930 1_565 S
H1236 C1213 0.929 . S
H1237 C1214 0.931 . S
H1238 C1216 0.930 . S
H1239 C1217 0.930 . S
Tb1240 C1242 2.809 . S
Tb1240 O1260 2.484 . S
Tb1240 O1261 2.440 . S
Tb1240 O1262 2.658 . S
Tb1240 O1263 2.409 . S
Tb1240 O1264 2.378 . S
Tb1240 O1268 2.325 . S
Tb1240 O1271 2.341 . S
Tb1241 C1251 2.809 . S
Tb1241 O1262 2.325 . S
Tb1241 O1265 2.341 . S
Tb1241 O1266 2.484 . S
Tb1241 O1267 2.440 . S
Tb1241 O1268 2.658 . S
Tb1241 O1269 2.409 . S
Tb1241 O1270 2.378 . S
C1242 Tb1240 2.809 . S
C1242 C1243 1.514 . S
C1242 O1260 1.248 . S
C1242 O1261 1.266 . S
C1243 C1242 1.514 . S
C1243 C1244 1.359 . S
C1243 C1248 1.348 . S
C1244 C1243 1.359 . S
C1244 C1245 1.380 . S
C1244 H1272 0.929 . S
C1245 C1244 1.380 . S
C1245 C1246 1.347 . S
C1245 H1273 0.931 . S
C1246 C1245 1.347 . S
C1246 C1247 1.369 . S
C1247 C1246 1.369 . S
C1247 C1248 1.408 . S
C1247 H1274 0.930 . S
C1248 C1243 1.348 . S
C1248 C1247 1.408 . S
C1248 H1275 0.930 . S
C1249 O1262 1.281 . S
C1249 O1263 1.254 . S
C1250 O1264 1.236 . S
C1250 O1265 1.266 . S
C1251 Tb1241 2.809 . S
C1251 C1252 1.514 . S
C1251 O1266 1.248 . S
C1251 O1267 1.266 . S
C1252 C1251 1.514 . S
C1252 C1253 1.359 . S
C1252 C1257 1.348 . S
C1253 C1252 1.359 . S
C1253 C1254 1.380 . S
C1253 H1276 0.929 . S
C1254 C1253 1.380 . S
C1254 C1255 1.347 . S
C1254 H1277 0.931 . S
C1255 C1254 1.347 . S
C1255 C1256 1.369 . S
C1256 C1255 1.369 . S
C1256 C1257 1.408 . S
C1256 H1278 0.930 . S
C1257 C1252 1.348 . S
C1257 C1256 1.408 . S
C1257 H1279 0.930 . S
C1258 O1268 1.281 . S
C1258 O1269 1.254 . S
C1259 O1270 1.236 . S
C1259 O1271 1.266 . S
O1260 Tb1240 2.484 . S
O1260 C1242 1.248 . S
O1261 Tb1240 2.440 . S
O1261 C1242 1.266 . S
O1262 Tb1240 2.658 . S
O1262 Tb1241 2.325 . S
O1262 C1249 1.281 . S
O1263 Tb1240 2.409 . S
O1263 C1249 1.254 . S
O1264 Tb1240 2.378 . S
O1264 C1250 1.236 . S
O1265 Tb1241 2.341 . S
O1265 C1250 1.266 . S
O1266 Tb1241 2.484 . S
O1266 C1251 1.248 . S
O1267 Tb1241 2.440 . S
O1267 C1251 1.266 . S
O1268 Tb1240 2.325 . S
O1268 Tb1241 2.658 . S
O1268 C1258 1.281 . S
O1269 Tb1241 2.409 . S
O1269 C1258 1.254 . S
O1270 Tb1241 2.378 . S
O1270 C1259 1.236 . S
O1271 Tb1240 2.341 . S
O1271 C1259 1.266 . S
H1272 C1244 0.929 . S
H1273 C1245 0.931 . S
H1274 C1247 0.930 . S
H1275 C1248 0.930 . S
H1276 C1253 0.929 . S
H1277 C1254 0.931 . S
H1278 C1256 0.930 . S
H1279 C1257 0.930 . S
C1280 C1281 1.387 . S
C1280 H1284 0.950 . S
C1280 C1289 1.390 . S
C1281 C1280 1.387 . S
C1281 C1283 1.387 . S
H1282 C1289 0.950 . S
C1283 C1281 1.387 . S
C1283 C1285 1.390 . S
C1283 H1287 0.950 . S
H1284 C1280 0.950 . S
C1285 C1283 1.390 . S
C1285 C1286 1.387 . S
C1285 H1288 0.950 . S
C1286 C1285 1.387 . S
C1286 C1289 1.387 . S
H1287 C1283 0.950 . S
H1288 C1285 0.950 . S
C1289 C1280 1.390 . S
C1289 H1282 0.950 . S
C1289 C1286 1.387 . S
C1290 C1291 1.387 . S
C1290 H1294 0.950 . S
C1290 C1299 1.390 . S
C1291 C1290 1.387 . S
C1291 C1293 1.387 . S
H1292 C1299 0.950 . S
C1293 C1291 1.387 . S
C1293 C1295 1.390 . S
C1293 H1297 0.950 . S
H1294 C1290 0.950 . S
C1295 C1293 1.390 . S
C1295 C1296 1.387 . S
C1295 H1298 0.950 . S
C1296 C1295 1.387 . S
C1296 C1299 1.387 . S
H1297 C1293 0.950 . S
H1298 C1295 0.950 . S
C1299 C1290 1.390 . S
C1299 H1292 0.950 . S
C1299 C1296 1.387 . S
C1300 C1301 1.387 . S
C1300 H1304 0.950 . S
C1300 C1309 1.390 . S
C1301 C1300 1.387 . S
C1301 C1303 1.387 . S
H1302 C1309 0.950 . S
C1303 C1301 1.387 . S
C1303 C1305 1.390 . S
C1303 H1307 0.950 . S
H1304 C1300 0.950 . S
C1305 C1303 1.390 . S
C1305 C1306 1.387 . S
C1305 H1308 0.950 . S
C1306 C1305 1.387 . S
C1306 C1309 1.387 . S
H1307 C1303 0.950 . S
H1308 C1305 0.950 . S
C1309 C1300 1.390 . S
C1309 H1302 0.950 . S
C1309 C1306 1.387 . S
C1310 C1311 1.387 . S
C1310 H1314 0.950 . S
C1310 C1319 1.390 . S
C1311 C1310 1.387 . S
C1311 C1313 1.387 . S
H1312 C1319 0.950 . S
C1313 C1311 1.387 . S
C1313 C1315 1.390 . S
C1313 H1317 0.950 . S
H1314 C1310 0.950 . S
C1315 C1313 1.390 . S
C1315 C1316 1.387 . S
C1315 H1318 0.950 . S
C1316 C1315 1.387 . S
C1316 C1319 1.387 . S
H1317 C1313 0.950 . S
H1318 C1315 0.950 . S
C1319 C1310 1.390 . S
C1319 H1312 0.950 . S
C1319 C1316 1.387 . S
C1320 C1321 1.387 . S
C1320 H1324 0.950 . S
C1320 C1329 1.390 . S
C1321 C1320 1.387 . S
C1321 C1323 1.387 . S
H1322 C1329 0.950 . S
C1323 C1321 1.387 . S
C1323 C1325 1.390 . S
C1323 H1327 0.950 . S
H1324 C1320 0.950 . S
C1325 C1323 1.390 . S
C1325 C1326 1.387 . S
C1325 H1328 0.950 . S
C1326 C1325 1.387 . S
C1326 C1329 1.387 . S
H1327 C1323 0.950 . S
H1328 C1325 0.950 . S
C1329 C1320 1.390 . S
C1329 H1322 0.950 . S
C1329 C1326 1.387 . S
C1330 C1331 1.387 . S
C1330 H1334 0.950 . S
C1330 C1339 1.390 . S
C1331 C1330 1.387 . S
C1331 C1333 1.387 . S
H1332 C1339 0.950 . S
C1333 C1331 1.387 . S
C1333 C1335 1.390 . S
C1333 H1337 0.950 . S
H1334 C1330 0.950 . S
C1335 C1333 1.390 . S
C1335 C1336 1.387 . S
C1335 H1338 0.950 . S
C1336 C1335 1.387 . S
C1336 C1339 1.387 . S
H1337 C1333 0.950 . S
H1338 C1335 0.950 . S
C1339 C1330 1.390 . S
C1339 H1332 0.950 . S
C1339 C1336 1.387 . S
C1340 C1341 1.387 . S
C1340 H1344 0.950 . S
C1340 C1349 1.390 . S
C1341 C1340 1.387 . S
C1341 C1343 1.387 . S
H1342 C1349 0.950 . S
C1343 C1341 1.387 . S
C1343 C1345 1.390 . S
C1343 H1347 0.950 . S
H1344 C1340 0.950 . S
C1345 C1343 1.390 . S
C1345 C1346 1.387 . S
C1345 H1348 0.950 . S
C1346 C1345 1.387 . S
C1346 C1349 1.387 . S
H1347 C1343 0.950 . S
H1348 C1345 0.950 . S
C1349 C1340 1.390 . S
C1349 H1342 0.950 . S
C1349 C1346 1.387 . S
C1350 C1351 1.387 . S
C1350 H1354 0.950 . S
C1350 C1359 1.390 . S
C1351 C1350 1.387 . S
C1351 C1353 1.387 . S
H1352 C1359 0.950 . S
C1353 C1351 1.387 . S
C1353 C1355 1.390 . S
C1353 H1357 0.950 . S
H1354 C1350 0.950 . S
C1355 C1353 1.390 . S
C1355 C1356 1.387 . S
C1355 H1358 0.950 . S
C1356 C1355 1.387 . S
C1356 C1359 1.387 . S
H1357 C1353 0.950 . S
H1358 C1355 0.950 . S
C1359 C1350 1.390 . S
C1359 H1352 0.950 . S
C1359 C1356 1.387 . S
C1360 C1361 1.387 . S
C1360 H1364 0.950 . S
C1360 C1369 1.390 1_545 S
C1361 C1360 1.387 . S
C1361 C1363 1.387 . S
H1362 C1369 0.950 . S
C1363 C1361 1.387 . S
C1363 C1365 1.390 1_545 S
C1363 H1367 0.950 . S
H1364 C1360 0.950 . S
C1365 C1363 1.390 1_565 S
C1365 C1366 1.387 . S
C1365 H1368 0.950 . S
C1366 C1365 1.387 . S
C1366 C1369 1.387 . S
H1367 C1363 0.950 . S
H1368 C1365 0.950 . S
C1369 C1360 1.390 1_565 S
C1369 H1362 0.950 . S
C1369 C1366 1.387 . S
C1370 C1371 1.387 . S
C1370 H1374 0.950 . S
C1370 C1379 1.390 . S
C1371 C1370 1.387 . S
C1371 C1373 1.387 . S
H1372 C1379 0.950 . S
C1373 C1371 1.387 . S
C1373 C1375 1.390 . S
C1373 H1377 0.950 . S
H1374 C1370 0.950 . S
C1375 C1373 1.390 . S
C1375 C1376 1.387 . S
C1375 H1378 0.950 . S
C1376 C1375 1.387 . S
C1376 C1379 1.387 . S
H1377 C1373 0.950 . S
H1378 C1375 0.950 . S
C1379 C1370 1.390 . S
C1379 H1372 0.950 . S
C1379 C1376 1.387 . S
C1380 C1381 1.387 . S
C1380 H1384 0.950 . S
C1380 C1389 1.390 1_545 S
C1381 C1380 1.387 . S
C1381 C1383 1.387 . S
H1382 C1389 0.950 . S
C1383 C1381 1.387 . S
C1383 C1385 1.390 1_545 S
C1383 H1387 0.950 . S
H1384 C1380 0.950 . S
C1385 C1383 1.390 1_565 S
C1385 C1386 1.387 . S
C1385 H1388 0.950 . S
C1386 C1385 1.387 . S
C1386 C1389 1.387 . S
H1387 C1383 0.950 . S
H1388 C1385 0.950 . S
C1389 C1380 1.390 1_565 S
C1389 H1382 0.950 . S
C1389 C1386 1.387 . S
C1390 C1391 1.387 . S
C1390 H1394 0.950 . S
C1390 C1399 1.390 . S
C1391 C1390 1.387 . S
C1391 C1393 1.387 . S
H1392 C1399 0.950 . S
C1393 C1391 1.387 . S
C1393 C1395 1.390 . S
C1393 H1397 0.950 . S
H1394 C1390 0.950 . S
C1395 C1393 1.390 . S
C1395 C1396 1.387 . S
C1395 H1398 0.950 . S
C1396 C1395 1.387 . S
C1396 C1399 1.387 . S
H1397 C1393 0.950 . S
H1398 C1395 0.950 . S
C1399 C1390 1.390 . S
C1399 H1392 0.950 . S
C1399 C1396 1.387 . S
C1400 C1401 1.387 . S
C1400 H1404 0.950 . S
C1400 C1409 1.390 1_545 S
C1401 C1400 1.387 . S
C1401 C1403 1.387 . S
H1402 C1409 0.950 . S
C1403 C1401 1.387 . S
C1403 C1405 1.390 1_545 S
C1403 H1407 0.950 . S
H1404 C1400 0.950 . S
C1405 C1403 1.390 1_565 S
C1405 C1406 1.387 . S
C1405 H1408 0.950 . S
C1406 C1405 1.387 . S
C1406 C1409 1.387 . S
H1407 C1403 0.950 . S
H1408 C1405 0.950 . S
C1409 C1400 1.390 1_565 S
C1409 H1402 0.950 . S
C1409 C1406 1.387 . S
C1410 C1411 1.387 . S
C1410 H1414 0.950 . S
C1410 C1419 1.390 . S
C1411 C1410 1.387 . S
C1411 C1413 1.387 . S
H1412 C1419 0.950 . S
C1413 C1411 1.387 . S
C1413 C1415 1.390 . S
C1413 H1417 0.950 . S
H1414 C1410 0.950 . S
C1415 C1413 1.390 . S
C1415 C1416 1.387 . S
C1415 H1418 0.950 . S
C1416 C1415 1.387 . S
C1416 C1419 1.387 . S
H1417 C1413 0.950 . S
H1418 C1415 0.950 . S
C1419 C1410 1.390 . S
C1419 H1412 0.950 . S
C1419 C1416 1.387 . S
C1420 C1421 1.387 . S
C1420 H1424 0.950 . S
C1420 C1429 1.390 1_565 S
C1421 C1420 1.387 . S
C1421 C1423 1.387 . S
H1422 C1429 0.950 . S
C1423 C1421 1.387 . S
C1423 C1425 1.390 1_565 S
C1423 H1427 0.950 . S
H1424 C1420 0.950 . S
C1425 C1423 1.390 1_545 S
C1425 C1426 1.387 . S
C1425 H1428 0.950 . S
C1426 C1425 1.387 . S
C1426 C1429 1.387 . S
H1427 C1423 0.950 . S
H1428 C1425 0.950 . S
C1429 C1420 1.390 1_545 S
C1429 H1422 0.950 . S
C1429 C1426 1.387 . S
C1430 C1431 1.387 . S
C1430 H1434 0.950 . S
C1430 C1439 1.390 . S
C1431 C1430 1.387 . S
C1431 C1433 1.387 . S
H1432 C1439 0.950 . S
C1433 C1431 1.387 . S
C1433 C1435 1.390 . S
C1433 H1437 0.950 . S
H1434 C1430 0.950 . S
C1435 C1433 1.390 . S
C1435 C1436 1.387 . S
C1435 H1438 0.950 . S
C1436 C1435 1.387 . S
C1436 C1439 1.387 . S
H1437 C1433 0.950 . S
H1438 C1435 0.950 . S
C1439 C1430 1.390 . S
C1439 H1432 0.950 . S
C1439 C1436 1.387 . S
C1440 C1441 1.387 . S
C1440 H1444 0.950 . S
C1440 C1449 1.390 . S
C1441 C1440 1.387 . S
C1441 C1443 1.387 . S
H1442 C1449 0.950 . S
C1443 C1441 1.387 . S
C1443 C1445 1.390 . S
C1443 H1447 0.950 . S
H1444 C1440 0.950 . S
C1445 C1443 1.390 . S
C1445 C1446 1.387 . S
C1445 H1448 0.950 . S
C1446 C1445 1.387 . S
C1446 C1449 1.387 . S
H1447 C1443 0.950 . S
H1448 C1445 0.950 . S
C1449 C1440 1.390 . S
C1449 H1442 0.950 . S
C1449 C1446 1.387 . S
C1450 C1451 1.387 . S
C1450 H1454 0.950 . S
C1450 C1459 1.390 . S
C1451 C1450 1.387 . S
C1451 C1453 1.387 . S
H1452 C1459 0.950 . S
C1453 C1451 1.387 . S
C1453 C1455 1.390 . S
C1453 H1457 0.950 . S
H1454 C1450 0.950 . S
C1455 C1453 1.390 . S
C1455 C1456 1.387 . S
C1455 H1458 0.950 . S
C1456 C1455 1.387 . S
C1456 C1459 1.387 . S
H1457 C1453 0.950 . S
H1458 C1455 0.950 . S
C1459 C1450 1.390 . S
C1459 H1452 0.950 . S
C1459 C1456 1.387 . S
C1460 C1461 1.387 . S
C1460 H1464 0.950 . S
C1460 C1469 1.390 . S
C1461 C1460 1.387 . S
C1461 C1463 1.387 . S
H1462 C1469 0.950 . S
C1463 C1461 1.387 . S
C1463 C1465 1.390 . S
C1463 H1467 0.950 . S
H1464 C1460 0.950 . S
C1465 C1463 1.390 . S
C1465 C1466 1.387 . S
C1465 H1468 0.950 . S
C1466 C1465 1.387 . S
C1466 C1469 1.387 . S
H1467 C1463 0.950 . S
H1468 C1465 0.950 . S
C1469 C1460 1.390 . S
C1469 H1462 0.950 . S
C1469 C1466 1.387 . S
C1470 C1471 1.387 . S
C1470 H1474 0.950 . S
C1470 C1479 1.390 . S
C1471 C1470 1.387 . S
C1471 C1473 1.387 . S
H1472 C1479 0.950 . S
C1473 C1471 1.387 . S
C1473 C1475 1.390 . S
C1473 H1477 0.950 . S
H1474 C1470 0.950 . S
C1475 C1473 1.390 . S
C1475 C1476 1.387 . S
C1475 H1478 0.950 . S
C1476 C1475 1.387 . S
C1476 C1479 1.387 . S
H1477 C1473 0.950 . S
H1478 C1475 0.950 . S
C1479 C1470 1.390 . S
C1479 H1472 0.950 . S
C1479 C1476 1.387 . S
C1480 C1481 1.387 . S
C1480 H1484 0.950 . S
C1480 C1489 1.390 . S
C1481 C1480 1.387 . S
C1481 C1483 1.387 . S
H1482 C1489 0.950 . S
C1483 C1481 1.387 . S
C1483 C1485 1.390 . S
C1483 H1487 0.950 . S
H1484 C1480 0.950 . S
C1485 C1483 1.390 . S
C1485 C1486 1.387 . S
C1485 H1488 0.950 . S
C1486 C1485 1.387 . S
C1486 C1489 1.387 . S
H1487 C1483 0.950 . S
H1488 C1485 0.950 . S
C1489 C1480 1.390 . S
C1489 H1482 0.950 . S
C1489 C1486 1.387 . S
C1490 C1491 1.387 . S
C1490 H1494 0.950 . S
C1490 C1499 1.390 . S
C1491 C1490 1.387 . S
C1491 C1493 1.387 . S
H1492 C1499 0.950 . S
C1493 C1491 1.387 . S
C1493 C1495 1.390 . S
C1493 H1497 0.950 . S
H1494 C1490 0.950 . S
C1495 C1493 1.390 . S
C1495 C1496 1.387 . S
C1495 H1498 0.950 . S
C1496 C1495 1.387 . S
C1496 C1499 1.387 . S
H1497 C1493 0.950 . S
H1498 C1495 0.950 . S
C1499 C1490 1.390 . S
C1499 H1492 0.950 . S
C1499 C1496 1.387 . S
C1500 C1501 1.387 . S
C1500 H1504 0.950 . S
C1500 C1509 1.390 . S
C1501 C1500 1.387 . S
C1501 C1503 1.387 . S
H1502 C1509 0.950 . S
C1503 C1501 1.387 . S
C1503 C1505 1.390 . S
C1503 H1507 0.950 . S
H1504 C1500 0.950 . S
C1505 C1503 1.390 . S
C1505 C1506 1.387 . S
C1505 H1508 0.950 . S
C1506 C1505 1.387 . S
C1506 C1509 1.387 . S
H1507 C1503 0.950 . S
H1508 C1505 0.950 . S
C1509 C1500 1.390 . S
C1509 H1502 0.950 . S
C1509 C1506 1.387 . S
C1510 C1511 1.387 . S
C1510 H1514 0.950 . S
C1510 C1519 1.390 . S
C1511 C1510 1.387 . S
C1511 C1513 1.387 . S
H1512 C1519 0.950 . S
C1513 C1511 1.387 . S
C1513 C1515 1.390 . S
C1513 H1517 0.950 . S
H1514 C1510 0.950 . S
C1515 C1513 1.390 . S
C1515 C1516 1.387 . S
C1515 H1518 0.950 . S
C1516 C1515 1.387 . S
C1516 C1519 1.387 . S
H1517 C1513 0.950 . S
H1518 C1515 0.950 . S
C1519 C1510 1.390 . S
C1519 H1512 0.950 . S
C1519 C1516 1.387 . S
C1520 C1521 1.387 . S
C1520 H1524 0.950 . S
C1520 C1529 1.390 . S
C1521 C1520 1.387 . S
C1521 C1523 1.387 . S
H1522 C1529 0.950 . S
C1523 C1521 1.387 . S
C1523 C1525 1.390 . S
C1523 H1527 0.950 . S
H1524 C1520 0.950 . S
C1525 C1523 1.390 . S
C1525 C1526 1.387 . S
C1525 H1528 0.950 . S
C1526 C1525 1.387 . S
C1526 C1529 1.387 . S
H1527 C1523 0.950 . S
H1528 C1525 0.950 . S
C1529 C1520 1.390 . S
C1529 H1522 0.950 . S
C1529 C1526 1.387 . S
C1530 C1531 1.387 . S
C1530 H1534 0.950 . S
C1530 C1539 1.390 . S
C1531 C1530 1.387 . S
C1531 C1533 1.387 . S
H1532 C1539 0.950 . S
C1533 C1531 1.387 . S
C1533 C1535 1.390 . S
C1533 H1537 0.950 . S
H1534 C1530 0.950 . S
C1535 C1533 1.390 . S
C1535 C1536 1.387 . S
C1535 H1538 0.950 . S
C1536 C1535 1.387 . S
C1536 C1539 1.387 . S
H1537 C1533 0.950 . S
H1538 C1535 0.950 . S
C1539 C1530 1.390 . S
C1539 H1532 0.950 . S
C1539 C1536 1.387 . S
C1540 C1541 1.387 . S
C1540 H1544 0.950 . S
C1540 C1549 1.390 . S
C1541 C1540 1.387 . S
C1541 C1543 1.387 . S
H1542 C1549 0.950 . S
C1543 C1541 1.387 . S
C1543 C1545 1.390 . S
C1543 H1547 0.950 . S
H1544 C1540 0.950 . S
C1545 C1543 1.390 . S
C1545 C1546 1.387 . S
C1545 H1548 0.950 . S
C1546 C1545 1.387 . S
C1546 C1549 1.387 . S
H1547 C1543 0.950 . S
H1548 C1545 0.950 . S
C1549 C1540 1.390 . S
C1549 H1542 0.950 . S
C1549 C1546 1.387 . S
C1550 C1551 1.387 . S
C1550 H1554 0.950 . S
C1550 C1559 1.390 . S
C1551 C1550 1.387 . S
C1551 C1553 1.387 . S
H1552 C1559 0.950 . S
C1553 C1551 1.387 . S
C1553 C1555 1.390 . S
C1553 H1557 0.950 . S
H1554 C1550 0.950 . S
C1555 C1553 1.390 . S
C1555 C1556 1.387 . S
C1555 H1558 0.950 . S
C1556 C1555 1.387 . S
C1556 C1559 1.387 . S
H1557 C1553 0.950 . S
H1558 C1555 0.950 . S
C1559 C1550 1.390 . S
C1559 H1552 0.950 . S
C1559 C1556 1.387 . S
C1560 C1561 1.387 . S
C1560 H1564 0.950 . S
C1560 C1569 1.390 . S
C1561 C1560 1.387 . S
C1561 C1563 1.387 . S
H1562 C1569 0.950 . S
C1563 C1561 1.387 . S
C1563 C1565 1.390 . S
C1563 H1567 0.950 . S
H1564 C1560 0.950 . S
C1565 C1563 1.390 . S
C1565 C1566 1.387 . S
C1565 H1568 0.950 . S
C1566 C1565 1.387 . S
C1566 C1569 1.387 . S
H1567 C1563 0.950 . S
H1568 C1565 0.950 . S
C1569 C1560 1.390 . S
C1569 H1562 0.950 . S
C1569 C1566 1.387 . S
C1570 C1571 1.387 . S
C1570 H1574 0.950 . S
C1570 C1579 1.390 . S
C1571 C1570 1.387 . S
C1571 C1573 1.387 . S
H1572 C1579 0.950 . S
C1573 C1571 1.387 . S
C1573 C1575 1.390 . S
C1573 H1577 0.950 . S
H1574 C1570 0.950 . S
C1575 C1573 1.390 . S
C1575 C1576 1.387 . S
C1575 H1578 0.950 . S
C1576 C1575 1.387 . S
C1576 C1579 1.387 . S
H1577 C1573 0.950 . S
H1578 C1575 0.950 . S
C1579 C1570 1.390 . S
C1579 H1572 0.950 . S
C1579 C1576 1.387 . S
C1580 C1581 1.387 . S
C1580 H1584 0.950 . S
C1580 C1589 1.390 . S
C1581 C1580 1.387 . S
C1581 C1583 1.387 . S
H1582 C1589 0.950 . S
C1583 C1581 1.387 . S
C1583 C1585 1.390 . S
C1583 H1587 0.950 . S
H1584 C1580 0.950 . S
C1585 C1583 1.390 . S
C1585 C1586 1.387 . S
C1585 H1588 0.950 . S
C1586 C1585 1.387 . S
C1586 C1589 1.387 . S
H1587 C1583 0.950 . S
H1588 C1585 0.950 . S
C1589 C1580 1.390 . S
C1589 H1582 0.950 . S
C1589 C1586 1.387 . S
C1590 C1591 1.387 . S
C1590 H1594 0.950 . S
C1590 C1599 1.390 . S
C1591 C1590 1.387 . S
C1591 C1593 1.387 . S
H1592 C1599 0.950 . S
C1593 C1591 1.387 . S
C1593 C1595 1.390 . S
C1593 H1597 0.950 . S
H1594 C1590 0.950 . S
C1595 C1593 1.390 . S
C1595 C1596 1.387 . S
C1595 H1598 0.950 . S
C1596 C1595 1.387 . S
C1596 C1599 1.387 . S
H1597 C1593 0.950 . S
H1598 C1595 0.950 . S
C1599 C1590 1.390 . S
C1599 H1592 0.950 . S
C1599 C1596 1.387 . S
C1600 C1601 1.387 . S
C1600 H1604 0.950 . S
C1600 C1609 1.390 1_655 S
C1601 C1600 1.387 . S
C1601 C1603 1.387 . S
H1602 C1609 0.950 . S
C1603 C1601 1.387 . S
C1603 C1605 1.390 1_655 S
C1603 H1607 0.950 . S
H1604 C1600 0.950 . S
C1605 C1603 1.390 1_455 S
C1605 C1606 1.387 . S
C1605 H1608 0.950 . S
C1606 C1605 1.387 . S
C1606 C1609 1.387 . S
H1607 C1603 0.950 . S
H1608 C1605 0.950 . S
C1609 C1600 1.390 1_455 S
C1609 H1602 0.950 . S
C1609 C1606 1.387 . S
C1610 C1611 1.387 . S
C1610 H1614 0.950 . S
C1610 C1619 1.390 . S
C1611 C1610 1.387 . S
C1611 C1613 1.387 . S
H1612 C1619 0.950 . S
C1613 C1611 1.387 . S
C1613 C1615 1.390 . S
C1613 H1617 0.950 . S
H1614 C1610 0.950 . S
C1615 C1613 1.390 . S
C1615 C1616 1.387 . S
C1615 H1618 0.950 . S
C1616 C1615 1.387 . S
C1616 C1619 1.387 . S
H1617 C1613 0.950 . S
H1618 C1615 0.950 . S
C1619 C1610 1.390 . S
C1619 H1612 0.950 . S
C1619 C1616 1.387 . S
C1620 C1621 1.387 . S
C1620 H1624 0.950 . S
C1620 C1629 1.390 . S
C1621 C1620 1.387 . S
C1621 C1623 1.387 . S
H1622 C1629 0.950 . S
C1623 C1621 1.387 . S
C1623 C1625 1.390 . S
C1623 H1627 0.950 . S
H1624 C1620 0.950 . S
C1625 C1623 1.390 . S
C1625 C1626 1.387 . S
C1625 H1628 0.950 . S
C1626 C1625 1.387 . S
C1626 C1629 1.387 . S
H1627 C1623 0.950 . S
H1628 C1625 0.950 . S
C1629 C1620 1.390 . S
C1629 H1622 0.950 . S
C1629 C1626 1.387 . S
C1630 C1631 1.387 . S
C1630 H1634 0.950 . S
C1630 C1639 1.390 . S
C1631 C1630 1.387 . S
C1631 C1633 1.387 . S
H1632 C1639 0.950 . S
C1633 C1631 1.387 . S
C1633 C1635 1.390 . S
C1633 H1637 0.950 . S
H1634 C1630 0.950 . S
C1635 C1633 1.390 . S
C1635 C1636 1.387 . S
C1635 H1638 0.950 1_556 S
C1636 C1635 1.387 . S
C1636 C1639 1.387 . S
H1637 C1633 0.950 . S
H1638 C1635 0.950 1_554 S
C1639 C1630 1.390 . S
C1639 H1632 0.950 . S
C1639 C1636 1.387 . S
C1640 C1641 1.387 . S
C1640 H1644 0.950 . S
C1640 C1649 1.390 . S
C1641 C1640 1.387 . S
C1641 C1643 1.387 1_655 S
H1642 C1649 0.950 . S
C1643 C1641 1.387 1_455 S
C1643 C1645 1.390 . S
C1643 H1647 0.950 . S
H1644 C1640 0.950 . S
C1645 C1643 1.390 . S
C1645 C1646 1.387 . S
C1645 H1648 0.950 . S
C1646 C1645 1.387 . S
C1646 C1649 1.387 1_455 S
H1647 C1643 0.950 . S
H1648 C1645 0.950 . S
C1649 C1640 1.390 . S
C1649 H1642 0.950 . S
C1649 C1646 1.387 1_655 S
C1650 C1651 1.387 . S
C1650 H1654 0.950 . S
C1650 C1659 1.390 . S
C1651 C1650 1.387 . S
C1651 C1653 1.387 . S
H1652 C1659 0.950 . S
C1653 C1651 1.387 . S
C1653 C1655 1.390 . S
C1653 H1657 0.950 . S
H1654 C1650 0.950 . S
C1655 C1653 1.390 . S
C1655 C1656 1.387 . S
C1655 H1658 0.950 1_556 S
C1656 C1655 1.387 . S
C1656 C1659 1.387 . S
H1657 C1653 0.950 . S
H1658 C1655 0.950 1_554 S
C1659 C1650 1.390 . S
C1659 H1652 0.950 . S
C1659 C1656 1.387 . S
C1660 C1661 1.387 . S
C1660 H1664 0.950 . S
C1660 C1669 1.390 . S
C1661 C1660 1.387 . S
C1661 C1663 1.387 . S
H1662 C1669 0.950 . S
C1663 C1661 1.387 . S
C1663 C1665 1.390 . S
C1663 H1667 0.950 . S
H1664 C1660 0.950 . S
C1665 C1663 1.390 . S
C1665 C1666 1.387 . S
C1665 H1668 0.950 . S
C1666 C1665 1.387 . S
C1666 C1669 1.387 . S
H1667 C1663 0.950 . S
H1668 C1665 0.950 . S
C1669 C1660 1.390 . S
C1669 H1662 0.950 . S
C1669 C1666 1.387 . S
C1670 C1671 1.387 . S
C1670 H1674 0.950 . S
C1670 C1679 1.390 . S
C1671 C1670 1.387 . S
C1671 C1673 1.387 . S
H1672 C1679 0.950 . S
C1673 C1671 1.387 . S
C1673 C1675 1.390 . S
C1673 H1677 0.950 . S
H1674 C1670 0.950 . S
C1675 C1673 1.390 . S
C1675 C1676 1.387 . S
C1675 H1678 0.950 . S
C1676 C1675 1.387 . S
C1676 C1679 1.387 . S
H1677 C1673 0.950 . S
H1678 C1675 0.950 . S
C1679 C1670 1.390 . S
C1679 H1672 0.950 . S
C1679 C1676 1.387 . S
C1680 C1681 1.387 . S
C1680 H1684 0.950 . S
C1680 C1689 1.405 . S
C1681 C1680 1.387 . S
C1681 C1683 1.387 . S
H1682 C1689 0.928 1_554 S
C1683 C1681 1.387 . S
C1683 C1685 1.390 . S
C1683 H1687 0.950 . S
H1684 C1680 0.950 . S
C1685 C1683 1.390 . S
C1685 C1686 1.387 . S
C1685 H1688 0.950 . S
C1686 C1685 1.387 . S
C1686 C1689 1.394 . S
H1687 C1683 0.950 . S
H1688 C1685 0.950 . S
C1689 C1680 1.405 . S
C1689 H1682 0.928 1_556 S
C1689 C1686 1.394 . S
C1690 C1691 1.387 . S
C1690 H1694 0.950 . S
C1690 C1699 1.390 . S
C1691 C1690 1.387 . S
C1691 C1693 1.387 . S
H1692 C1699 0.950 . S
C1693 C1691 1.387 . S
C1693 C1695 1.390 . S
C1693 H1697 0.950 . S
H1694 C1690 0.950 . S
C1695 C1693 1.390 . S
C1695 C1696 1.387 . S
C1695 H1698 0.950 . S
C1696 C1695 1.387 . S
C1696 C1699 1.387 . S
H1697 C1693 0.950 . S
H1698 C1695 0.950 . S
C1699 C1690 1.390 . S
C1699 H1692 0.950 . S
C1699 C1696 1.387 . S
C1700 C1701 1.387 . S
C1700 H1704 0.950 . S
C1700 C1709 1.390 . S
C1701 C1700 1.387 . S
C1701 C1703 1.387 . S
H1702 C1709 0.950 . S
C1703 C1701 1.387 . S
C1703 C1705 1.390 . S
C1703 H1707 0.950 . S
H1704 C1700 0.950 . S
C1705 C1703 1.390 . S
C1705 C1706 1.387 . S
C1705 H1708 0.950 . S
C1706 C1705 1.387 . S
C1706 C1709 1.387 . S
H1707 C1703 0.950 . S
H1708 C1705 0.950 . S
C1709 C1700 1.390 . S
C1709 H1702 0.950 . S
C1709 C1706 1.387 . S
C1710 C1711 1.387 . S
C1710 H1714 0.950 . S
C1710 C1719 1.390 . S
C1711 C1710 1.387 . S
C1711 C1713 1.387 . S
H1712 C1719 0.950 . S
C1713 C1711 1.387 . S
C1713 C1715 1.390 . S
C1713 H1717 0.950 1_556 S
H1714 C1710 0.950 . S
C1715 C1713 1.390 . S
C1715 C1716 1.387 . S
C1715 H1718 0.950 . S
C1716 C1715 1.387 . S
C1716 C1719 1.387 . S
H1717 C1713 0.950 1_554 S
H1718 C1715 0.950 . S
C1719 C1710 1.390 . S
C1719 H1712 0.950 . S
C1719 C1716 1.387 . S
C1720 C1721 1.387 . S
C1720 H1724 0.950 . S
C1720 C1729 1.390 . S
C1721 C1720 1.387 . S
C1721 C1723 1.387 1_545 S
H1722 C1729 0.950 . S
C1723 C1721 1.387 1_565 S
C1723 C1725 1.390 . S
C1723 H1727 0.950 . S
H1724 C1720 0.950 . S
C1725 C1723 1.390 . S
C1725 C1726 1.387 . S
C1725 H1728 0.950 . S
C1726 C1725 1.387 . S
C1726 C1729 1.387 1_565 S
H1727 C1723 0.950 . S
H1728 C1725 0.950 . S
C1729 C1720 1.390 . S
C1729 H1722 0.950 . S
C1729 C1726 1.387 1_545 S
C1730 C1731 1.387 . S
C1730 H1734 0.950 . S
C1730 C1739 1.390 1_565 S
C1731 C1730 1.387 . S
C1731 C1733 1.387 1_455 S
H1732 C1739 0.950 . S
C1733 C1731 1.387 1_655 S
C1733 C1735 1.390 1_565 S
C1733 H1737 0.950 . S
H1734 C1730 0.950 . S
C1735 C1733 1.390 1_545 S
C1735 C1736 1.387 . S
C1735 H1738 0.950 . S
C1736 C1735 1.387 . S
C1736 C1739 1.387 1_655 S
H1737 C1733 0.950 . S
H1738 C1735 0.950 . S
C1739 C1730 1.390 1_545 S
C1739 H1732 0.950 . S
C1739 C1736 1.387 1_455 S
C1740 C1741 1.387 1_545 S
C1740 H1744 0.950 . S
C1740 C1749 1.390 . S
C1741 C1740 1.387 1_565 S
C1741 C1743 1.387 . S
H1742 C1749 0.950 . S
C1743 C1741 1.387 . S
C1743 C1745 1.390 . S
C1743 H1747 0.950 . S
H1744 C1740 0.950 . S
C1745 C1743 1.390 . S
C1745 C1746 1.387 1_565 S
C1745 H1748 0.950 . S
C1746 C1745 1.387 1_545 S
C1746 C1749 1.387 . S
H1747 C1743 0.950 . S
H1748 C1745 0.950 . S
C1749 C1740 1.390 . S
C1749 H1742 0.950 . S
C1749 C1746 1.387 . S
C1750 C1751 1.387 . S
C1750 H1754 0.950 . S
C1750 C1759 1.390 . S
C1751 C1750 1.387 . S
C1751 C1753 1.387 1_665 S
H1752 C1759 0.950 . S
C1753 C1751 1.387 1_445 S
C1753 C1755 1.390 . S
C1753 H1757 0.950 . S
H1754 C1750 0.950 . S
C1755 C1753 1.390 . S
C1755 C1756 1.387 . S
C1755 H1758 0.950 . S
C1756 C1755 1.387 . S
C1756 C1759 1.387 1_445 S
H1757 C1753 0.950 . S
H1758 C1755 0.950 . S
C1759 C1750 1.390 . S
C1759 H1752 0.950 . S
C1759 C1756 1.387 1_665 S
C1760 C1761 1.387 1_655 S
C1760 H1764 0.950 . S
C1760 C1769 1.390 . S
C1761 C1760 1.387 1_455 S
C1761 C1763 1.387 . S
H1762 C1769 0.950 . S
C1763 C1761 1.387 . S
C1763 C1765 1.390 1_455 S
C1763 H1767 0.950 . S
H1764 C1760 0.950 . S
C1765 C1763 1.390 1_655 S
C1765 C1766 1.387 . S
C1765 H1768 0.950 . S
C1766 C1765 1.387 . S
C1766 C1769 1.387 . S
H1767 C1763 0.950 . S
H1768 C1765 0.950 . S
C1769 C1760 1.390 . S
C1769 H1762 0.950 . S
C1769 C1766 1.387 . S
C1770 C1771 1.387 . S
C1770 H1774 0.950 . S
C1770 C1779 1.390 . S
C1771 C1770 1.387 . S
C1771 C1773 1.387 . S
H1772 C1779 0.950 . S
C1773 C1771 1.387 . S
C1773 C1775 1.390 . S
C1773 H1777 0.950 . S
H1774 C1770 0.950 . S
C1775 C1773 1.390 . S
C1775 C1776 1.387 . S
C1775 H1778 0.950 . S
C1776 C1775 1.387 . S
C1776 C1779 1.387 . S
H1777 C1773 0.950 . S
H1778 C1775 0.950 . S
C1779 C1770 1.390 . S
C1779 H1772 0.950 . S
C1779 C1776 1.387 . S
C1780 C1781 1.387 . S
C1780 H1784 0.950 . S
C1780 C1789 1.390 . S
C1781 C1780 1.387 . S
C1781 C1783 1.387 . S
H1782 C1789 0.950 . S
C1783 C1781 1.387 . S
C1783 C1785 1.390 . S
C1783 H1787 0.950 . S
H1784 C1780 0.950 . S
C1785 C1783 1.390 . S
C1785 C1786 1.387 . S
C1785 H1788 0.950 . S
C1786 C1785 1.387 . S
C1786 C1789 1.387 . S
H1787 C1783 0.950 . S
H1788 C1785 0.950 . S
C1789 C1780 1.390 . S
C1789 H1782 0.950 . S
C1789 C1786 1.387 . S
C1790 C1791 1.387 . S
C1790 H1794 0.950 . S
C1790 C1799 1.390 . S
C1791 C1790 1.387 . S
C1791 C1793 1.387 . S
H1792 C1799 0.950 . S
C1793 C1791 1.387 . S
C1793 C1795 1.390 . S
C1793 H1797 0.950 . S
H1794 C1790 0.950 . S
C1795 C1793 1.390 . S
C1795 C1796 1.387 . S
C1795 H1798 0.950 . S
C1796 C1795 1.387 . S
C1796 C1799 1.387 . S
H1797 C1793 0.950 . S
H1798 C1795 0.950 . S
C1799 C1790 1.390 . S
C1799 H1792 0.950 . S
C1799 C1796 1.387 . S
C1800 C1801 1.387 . S
C1800 H1804 0.950 . S
C1800 C1809 1.390 . S
C1801 C1800 1.387 . S
C1801 C1803 1.387 . S
H1802 C1809 0.950 . S
C1803 C1801 1.387 . S
C1803 C1805 1.390 1_655 S
C1803 H1807 0.950 . S
H1804 C1800 0.950 . S
C1805 C1803 1.390 1_455 S
C1805 C1806 1.387 . S
C1805 H1808 0.950 . S
C1806 C1805 1.387 . S
C1806 C1809 1.387 1_455 S
H1807 C1803 0.950 . S
H1808 C1805 0.950 . S
C1809 C1800 1.390 . S
C1809 H1802 0.950 . S
C1809 C1806 1.387 1_655 S
C1810 C1811 1.387 . S
C1810 H1814 0.950 . S
C1810 C1819 1.390 . S
C1811 C1810 1.387 . S
C1811 C1813 1.387 . S
H1812 C1819 0.950 . S
C1813 C1811 1.387 . S
C1813 C1815 1.390 . S
C1813 H1817 0.950 . S
H1814 C1810 0.950 . S
C1815 C1813 1.390 . S
C1815 C1816 1.387 . S
C1815 H1818 0.950 . S
C1816 C1815 1.387 . S
C1816 C1819 1.387 . S
H1817 C1813 0.950 . S
H1818 C1815 0.950 . S
C1819 C1810 1.390 . S
C1819 H1812 0.950 . S
C1819 C1816 1.387 . S
C1820 C1821 1.387 . S
C1820 H1824 0.950 . S
C1820 C1829 1.390 . S
C1821 C1820 1.387 . S
C1821 C1823 1.387 . S
H1822 C1829 0.950 . S
C1823 C1821 1.387 . S
C1823 C1825 1.390 . S
C1823 H1827 0.950 . S
H1824 C1820 0.950 . S
C1825 C1823 1.390 . S
C1825 C1826 1.387 . S
C1825 H1828 0.950 . S
C1826 C1825 1.387 . S
C1826 C1829 1.387 . S
H1827 C1823 0.950 . S
H1828 C1825 0.950 . S
C1829 C1820 1.390 . S
C1829 H1822 0.950 . S
C1829 C1826 1.387 . S
C1830 C1831 1.387 . S
C1830 H1834 0.950 . S
C1830 C1839 1.390 . S
C1831 C1830 1.387 . S
C1831 C1833 1.387 . S
H1832 C1839 0.950 . S
C1833 C1831 1.387 . S
C1833 C1835 1.390 . S
C1833 H1837 0.950 . S
H1834 C1830 0.950 . S
C1835 C1833 1.390 . S
C1835 C1836 1.387 . S
C1835 H1838 0.950 . S
C1836 C1835 1.387 . S
C1836 C1839 1.387 . S
H1837 C1833 0.950 . S
H1838 C1835 0.950 . S
C1839 C1830 1.390 . S
C1839 H1832 0.950 . S
C1839 C1836 1.387 . S
C1840 C1841 1.387 . S
C1840 H1844 0.950 1_455 S
C1840 C1849 1.390 1_455 S
C1841 C1840 1.387 . S
C1841 C1843 1.387 . S
H1842 C1849 0.950 . S
C1843 C1841 1.387 . S
C1843 C1845 1.390 . S
C1843 H1847 0.950 . S
H1844 C1840 0.950 1_655 S
C1845 C1843 1.390 . S
C1845 C1846 1.387 1_455 S
C1845 H1848 0.950 . S
C1846 C1845 1.387 1_655 S
C1846 C1849 1.387 . S
H1847 C1843 0.950 . S
H1848 C1845 0.950 . S
C1849 C1840 1.390 1_655 S
C1849 H1842 0.950 . S
C1849 C1846 1.387 . S
C1850 C1851 1.387 . S
C1850 H1854 0.950 . S
C1850 C1859 1.390 . S
C1851 C1850 1.387 . S
C1851 C1853 1.387 . S
H1852 C1859 0.950 . S
C1853 C1851 1.387 . S
C1853 C1855 1.390 . S
C1853 H1857 0.950 . S
H1854 C1850 0.950 . S
C1855 C1853 1.390 . S
C1855 C1856 1.387 . S
C1855 H1858 0.950 . S
C1856 C1855 1.387 . S
C1856 C1859 1.387 . S
H1857 C1853 0.950 . S
H1858 C1855 0.950 . S
C1859 C1850 1.390 . S
C1859 H1852 0.950 . S
C1859 C1856 1.387 . S
C1860 C1861 1.387 . S
C1860 H1864 0.950 . S
C1860 C1869 1.390 . S
C1861 C1860 1.387 . S
C1861 C1863 1.387 . S
H1862 C1869 0.950 . S
C1863 C1861 1.387 . S
C1863 C1865 1.390 . S
C1863 H1867 0.950 . S
H1864 C1860 0.950 . S
C1865 C1863 1.390 . S
C1865 C1866 1.387 . S
C1865 H1868 0.950 . S
C1866 C1865 1.387 . S
C1866 C1869 1.387 . S
H1867 C1863 0.950 . S
H1868 C1865 0.950 . S
C1869 C1860 1.390 . S
C1869 H1862 0.950 . S
C1869 C1866 1.387 . S
C1870 C1871 1.387 . S
C1870 H1874 0.950 . S
C1870 C1879 1.390 . S
C1871 C1870 1.387 . S
C1871 C1873 1.387 . S
H1872 C1879 0.950 . S
C1873 C1871 1.387 . S
C1873 C1875 1.390 . S
C1873 H1877 0.950 . S
H1874 C1870 0.950 . S
C1875 C1873 1.390 . S
C1875 C1876 1.387 . S
C1875 H1878 0.950 . S
C1876 C1875 1.387 . S
C1876 C1879 1.387 . S
H1877 C1873 0.950 . S
H1878 C1875 0.950 . S
C1879 C1870 1.390 . S
C1879 H1872 0.950 . S
C1879 C1876 1.387 . S
C1880 C1881 1.387 . S
C1880 H1884 0.950 . S
C1880 C1889 1.390 1_455 S
C1881 C1880 1.387 . S
C1881 C1883 1.387 . S
H1882 C1889 0.950 . S
C1883 C1881 1.387 . S
C1883 C1885 1.390 . S
C1883 H1887 0.950 . S
H1884 C1880 0.950 . S
C1885 C1883 1.390 . S
C1885 C1886 1.387 1_455 S
C1885 H1888 0.950 . S
C1886 C1885 1.387 1_655 S
C1886 C1889 1.387 . S
H1887 C1883 0.950 . S
H1888 C1885 0.950 . S
C1889 C1880 1.390 1_655 S
C1889 H1882 0.950 . S
C1889 C1886 1.387 . S
C1890 C1891 1.387 . S
C1890 H1894 0.950 . S
C1890 C1899 1.390 . S
C1891 C1890 1.387 . S
C1891 C1893 1.387 . S
H1892 C1899 0.950 . S
C1893 C1891 1.387 . S
C1893 C1895 1.390 . S
C1893 H1897 0.950 1_554 S
H1894 C1890 0.950 . S
C1895 C1893 1.390 . S
C1895 C1896 1.387 . S
C1895 H1898 0.950 . S
C1896 C1895 1.387 . S
C1896 C1899 1.387 . S
H1897 C1893 0.950 1_556 S
H1898 C1895 0.950 . S
C1899 C1890 1.390 . S
C1899 H1892 0.950 . S
C1899 C1896 1.387 . S
C1900 C1901 1.387 . S
C1900 H1904 0.950 . S
C1900 C1909 1.390 . S
C1901 C1900 1.387 . S
C1901 C1903 1.387 . S
H1902 C1909 0.950 . S
C1903 C1901 1.387 . S
C1903 C1905 1.390 . S
C1903 H1907 0.950 . S
H1904 C1900 0.950 . S
C1905 C1903 1.390 . S
C1905 C1906 1.387 . S
C1905 H1908 0.950 . S
C1906 C1905 1.387 . S
C1906 C1909 1.387 . S
H1907 C1903 0.950 . S
H1908 C1905 0.950 . S
C1909 C1900 1.390 . S
C1909 H1902 0.950 . S
C1909 C1906 1.387 . S
C1910 C1911 1.387 . S
C1910 H1914 0.950 . S
C1910 C1919 1.390 . S
C1911 C1910 1.387 . S
C1911 C1913 1.387 . S
H1912 C1919 0.950 . S
C1913 C1911 1.387 . S
C1913 C1915 1.390 . S
C1913 H1917 0.950 . S
H1914 C1910 0.950 . S
C1915 C1913 1.390 . S
C1915 C1916 1.387 . S
C1915 H1918 0.950 . S
C1916 C1915 1.387 . S
C1916 C1919 1.387 . S
H1917 C1913 0.950 . S
H1918 C1915 0.950 . S
C1919 C1910 1.390 . S
C1919 H1912 0.950 . S
C1919 C1916 1.387 . S
C1920 C1921 1.387 . S
C1920 H1924 0.950 . S
C1920 C1929 1.390 . S
C1921 C1920 1.387 . S
C1921 C1923 1.387 . S
H1922 C1929 0.950 . S
C1923 C1921 1.387 . S
C1923 C1925 1.390 . S
C1923 H1927 0.950 . S
H1924 C1920 0.950 . S
C1925 C1923 1.390 . S
C1925 C1926 1.387 . S
C1925 H1928 0.950 . S
C1926 C1925 1.387 . S
C1926 C1929 1.387 . S
H1927 C1923 0.950 . S
H1928 C1925 0.950 . S
C1929 C1920 1.390 . S
C1929 H1922 0.950 . S
C1929 C1926 1.387 . S
C1930 C1931 1.387 . S
C1930 H1934 0.950 . S
C1930 C1939 1.390 . S
C1931 C1930 1.387 . S
C1931 C1933 1.387 . S
H1932 C1939 0.950 . S
C1933 C1931 1.387 . S
C1933 C1935 1.390 . S
C1933 H1937 0.950 . S
H1934 C1930 0.950 . S
C1935 C1933 1.390 . S
C1935 C1936 1.387 . S
C1935 H1938 0.950 . S
C1936 C1935 1.387 . S
C1936 C1939 1.387 . S
H1937 C1933 0.950 . S
H1938 C1935 0.950 . S
C1939 C1930 1.390 . S
C1939 H1932 0.950 . S
C1939 C1936 1.387 . S
C1940 C1941 1.387 . S
C1940 H1944 0.950 . S
C1940 C1949 1.390 1_655 S
C1941 C1940 1.387 . S
C1941 C1943 1.387 1_655 S
H1942 C1949 0.950 . S
C1943 C1941 1.387 1_455 S
C1943 C1945 1.390 . S
C1943 H1947 0.950 . S
H1944 C1940 0.950 . S
C1945 C1943 1.390 . S
C1945 C1946 1.387 . S
C1945 H1948 0.950 . S
C1946 C1945 1.387 . S
C1946 C1949 1.387 . S
H1947 C1943 0.950 . S
H1948 C1945 0.950 . S
C1949 C1940 1.390 1_455 S
C1949 H1942 0.950 . S
C1949 C1946 1.387 . S
C1950 C1951 1.387 . S
C1950 H1954 0.950 . S
C1950 C1959 1.390 . S
C1951 C1950 1.387 . S
C1951 C1953 1.387 . S
H1952 C1959 0.950 . S
C1953 C1951 1.387 . S
C1953 C1955 1.390 . S
C1953 H1957 0.950 . S
H1954 C1950 0.950 . S
C1955 C1953 1.390 . S
C1955 C1956 1.387 . S
C1955 H1958 0.950 . S
C1956 C1955 1.387 . S
C1956 C1959 1.387 . S
H1957 C1953 0.950 . S
H1958 C1955 0.950 . S
C1959 C1950 1.390 . S
C1959 H1952 0.950 . S
C1959 C1956 1.387 . S
C1960 C1961 1.387 . S
C1960 H1964 0.950 . S
C1960 C1969 1.390 . S
C1961 C1960 1.387 . S
C1961 C1963 1.387 . S
H1962 C1969 0.950 . S
C1963 C1961 1.387 . S
C1963 C1965 1.390 . S
C1963 H1967 0.950 . S
H1964 C1960 0.950 . S
C1965 C1963 1.390 . S
C1965 C1966 1.387 . S
C1965 H1968 0.950 . S
C1966 C1965 1.387 . S
C1966 C1969 1.387 . S
H1967 C1963 0.950 . S
H1968 C1965 0.950 . S
C1969 C1960 1.390 . S
C1969 H1962 0.950 . S
C1969 C1966 1.387 . S
C1970 C1971 1.387 . S
C1970 H1974 0.950 . S
C1970 C1979 1.390 . S
C1971 C1970 1.387 . S
C1971 C1973 1.387 . S
H1972 C1979 0.950 . S
C1973 C1971 1.387 . S
C1973 C1975 1.390 . S
C1973 H1977 0.950 . S
H1974 C1970 0.950 . S
C1975 C1973 1.390 . S
C1975 C1976 1.387 . S
C1975 H1978 0.950 . S
C1976 C1975 1.387 . S
C1976 C1979 1.387 . S
H1977 C1973 0.950 . S
H1978 C1975 0.950 . S
C1979 C1970 1.390 . S
C1979 H1972 0.950 . S
C1979 C1976 1.387 . S
C1980 C1981 1.387 . S
C1980 H1984 0.950 . S
C1980 C1989 1.390 . S
C1981 C1980 1.387 . S
C1981 C1983 1.387 . S
H1982 C1989 0.950 1_655 S
C1983 C1981 1.387 . S
C1983 C1985 1.373 1_455 S
C1983 H1987 0.950 . S
H1984 C1980 0.950 . S
C1985 C1983 1.373 1_655 S
C1985 C1986 1.394 . S
C1985 H1988 0.961 . S
C1986 C1985 1.394 . S
C1986 C1989 1.387 1_655 S
H1987 C1983 0.950 . S
H1988 C1985 0.961 . S
C1989 C1980 1.390 . S
C1989 H1982 0.950 1_455 S
C1989 C1986 1.387 1_455 S
C1990 C1991 1.387 . S
C1990 H1994 0.950 . S
C1990 C1999 1.390 . S
C1991 C1990 1.387 . S
C1991 C1993 1.387 . S
H1992 C1999 0.950 . S
C1993 C1991 1.387 . S
C1993 C1995 1.390 . S
C1993 H1997 0.950 . S
H1994 C1990 0.950 . S
C1995 C1993 1.390 . S
C1995 C1996 1.387 . S
C1995 H1998 0.950 . S
C1996 C1995 1.387 . S
C1996 C1999 1.387 . S
H1997 C1993 0.950 . S
H1998 C1995 0.950 . S
C1999 C1990 1.390 . S
C1999 H1992 0.950 . S
C1999 C1996 1.387 . S
C2000 C2001 1.387 . S
C2000 H2004 0.950 . S
C2000 C2009 1.390 . S
C2001 C2000 1.387 . S
C2001 C2003 1.387 . S
H2002 C2009 0.950 . S
C2003 C2001 1.387 . S
C2003 C2005 1.390 . S
C2003 H2007 0.950 . S
H2004 C2000 0.950 . S
C2005 C2003 1.390 . S
C2005 C2006 1.387 . S
C2005 H2008 0.950 . S
C2006 C2005 1.387 . S
C2006 C2009 1.387 . S
H2007 C2003 0.950 . S
H2008 C2005 0.950 . S
C2009 C2000 1.390 . S
C2009 H2002 0.950 . S
C2009 C2006 1.387 . S
C2010 C2011 1.387 . S
C2010 H2014 0.950 . S
C2010 C2019 1.390 . S
C2011 C2010 1.387 . S
C2011 C2013 1.387 . S
H2012 C2019 0.950 . S
C2013 C2011 1.387 . S
C2013 C2015 1.390 . S
C2013 H2017 0.950 . S
H2014 C2010 0.950 . S
C2015 C2013 1.390 . S
C2015 C2016 1.387 . S
C2015 H2018 0.950 . S
C2016 C2015 1.387 . S
C2016 C2019 1.387 . S
H2017 C2013 0.950 . S
H2018 C2015 0.950 . S
C2019 C2010 1.390 . S
C2019 H2012 0.950 . S
C2019 C2016 1.387 . S
C2020 C2021 1.387 1_655 S
C2020 H2024 0.950 . S
C2020 C2029 1.390 . S
C2021 C2020 1.387 1_455 S
C2021 C2023 1.387 . S
H2022 C2029 0.950 . S
C2023 C2021 1.387 . S
C2023 C2025 1.390 1_455 S
C2023 H2027 0.950 . S
H2024 C2020 0.950 . S
C2025 C2023 1.390 1_655 S
C2025 C2026 1.387 . S
C2025 H2028 0.950 . S
C2026 C2025 1.387 . S
C2026 C2029 1.387 . S
H2027 C2023 0.950 . S
H2028 C2025 0.950 . S
C2029 C2020 1.390 . S
C2029 H2022 0.950 . S
C2029 C2026 1.387 . S
C2030 C2031 1.387 . S
C2030 H2034 0.950 . S
C2030 C2039 1.390 . S
C2031 C2030 1.387 . S
C2031 C2033 1.387 . S
H2032 C2039 0.950 . S
C2033 C2031 1.387 . S
C2033 C2035 1.390 . S
C2033 H2037 0.950 . S
H2034 C2030 0.950 . S
C2035 C2033 1.390 . S
C2035 C2036 1.387 . S
C2035 H2038 0.950 . S
C2036 C2035 1.387 . S
C2036 C2039 1.387 . S
H2037 C2033 0.950 . S
H2038 C2035 0.950 . S
C2039 C2030 1.390 . S
C2039 H2032 0.950 . S
C2039 C2036 1.387 . S
C2040 C2041 1.387 . S
C2040 H2044 0.950 . S
C2040 C2049 1.390 . S
C2041 C2040 1.387 . S
C2041 C2043 1.387 . S
H2042 C2049 0.950 . S
C2043 C2041 1.387 . S
C2043 C2045 1.390 . S
C2043 H2047 0.950 . S
H2044 C2040 0.950 . S
C2045 C2043 1.390 . S
C2045 C2046 1.387 . S
C2045 H2048 0.950 . S
C2046 C2045 1.387 . S
C2046 C2049 1.387 . S
H2047 C2043 0.950 . S
H2048 C2045 0.950 . S
C2049 C2040 1.390 . S
C2049 H2042 0.950 . S
C2049 C2046 1.387 . S
C2050 C2051 1.387 . S
C2050 H2054 0.950 . S
C2050 C2059 1.390 . S
C2051 C2050 1.387 . S
C2051 C2053 1.387 . S
H2052 C2059 0.950 . S
C2053 C2051 1.387 . S
C2053 C2055 1.390 . S
C2053 H2057 0.950 . S
H2054 C2050 0.950 . S
C2055 C2053 1.390 . S
C2055 C2056 1.387 . S
C2055 H2058 0.950 . S
C2056 C2055 1.387 . S
C2056 C2059 1.387 . S
H2057 C2053 0.950 . S
H2058 C2055 0.950 . S
C2059 C2050 1.390 . S
C2059 H2052 0.950 . S
C2059 C2056 1.387 . S
C2060 C2061 1.387 . S
C2060 H2064 0.950 . S
C2060 C2069 1.390 1_455 S
C2061 C2060 1.387 . S
C2061 C2063 1.387 1_455 S
H2062 C2069 0.950 . S
C2063 C2061 1.387 1_655 S
C2063 C2065 1.390 . S
C2063 H2067 0.950 . S
H2064 C2060 0.950 . S
C2065 C2063 1.390 . S
C2065 C2066 1.387 . S
C2065 H2068 0.950 . S
C2066 C2065 1.387 . S
C2066 C2069 1.387 . S
H2067 C2063 0.950 . S
H2068 C2065 0.950 . S
C2069 C2060 1.390 1_655 S
C2069 H2062 0.950 . S
C2069 C2066 1.387 . S
C2070 C2071 1.387 . S
C2070 H2074 0.950 . S
C2070 C2079 1.390 . S
C2071 C2070 1.387 . S
C2071 C2073 1.387 . S
H2072 C2079 0.950 . S
C2073 C2071 1.387 . S
C2073 C2075 1.390 . S
C2073 H2077 0.950 1_554 S
H2074 C2070 0.950 . S
C2075 C2073 1.390 . S
C2075 C2076 1.387 . S
C2075 H2078 0.950 . S
C2076 C2075 1.387 . S
C2076 C2079 1.387 . S
H2077 C2073 0.950 1_556 S
H2078 C2075 0.950 . S
C2079 C2070 1.390 . S
C2079 H2072 0.950 . S
C2079 C2076 1.387 . S
C2080 C2081 1.387 . S
C2080 H2084 0.950 . S
C2080 C2089 1.390 . S
C2081 C2080 1.387 . S
C2081 C2083 1.387 . S
H2082 C2089 0.950 . S
C2083 C2081 1.387 . S
C2083 C2085 1.390 . S
C2083 H2087 0.950 . S
H2084 C2080 0.950 . S
C2085 C2083 1.390 . S
C2085 C2086 1.387 . S
C2085 H2088 0.950 . S
C2086 C2085 1.387 . S
C2086 C2089 1.387 . S
H2087 C2083 0.950 . S
H2088 C2085 0.950 . S
C2089 C2080 1.390 . S
C2089 H2082 0.950 . S
C2089 C2086 1.387 . S
C2090 C2091 1.387 . S
C2090 H2094 0.950 . S
C2090 C2099 1.390 . S
C2091 C2090 1.387 . S
C2091 C2093 1.387 . S
H2092 C2099 0.950 . S
C2093 C2091 1.387 . S
C2093 C2095 1.390 . S
C2093 H2097 0.950 . S
H2094 C2090 0.950 . S
C2095 C2093 1.390 . S
C2095 C2096 1.387 . S
C2095 H2098 0.950 . S
C2096 C2095 1.387 . S
C2096 C2099 1.387 . S
H2097 C2093 0.950 . S
H2098 C2095 0.950 . S
C2099 C2090 1.390 . S
C2099 H2092 0.950 . S
C2099 C2096 1.387 . S
C2100 C2101 1.387 . S
C2100 H2104 0.950 . S
C2100 C2109 1.390 . S
C2101 C2100 1.387 . S
C2101 C2103 1.387 . S
H2102 C2109 0.950 . S
C2103 C2101 1.387 . S
C2103 C2105 1.390 . S
C2103 H2107 0.950 . S
H2104 C2100 0.950 . S
C2105 C2103 1.390 . S
C2105 C2106 1.387 . S
C2105 H2108 0.950 . S
C2106 C2105 1.387 . S
C2106 C2109 1.387 . S
H2107 C2103 0.950 . S
H2108 C2105 0.950 . S
C2109 C2100 1.390 . S
C2109 H2102 0.950 . S
C2109 C2106 1.387 . S
C2110 C2111 1.387 . S
C2110 H2114 0.950 . S
C2110 C2119 1.390 . S
C2111 C2110 1.387 . S
C2111 C2113 1.387 . S
H2112 C2119 0.950 . S
C2113 C2111 1.387 . S
C2113 C2115 1.390 . S
C2113 H2117 0.950 . S
H2114 C2110 0.950 . S
C2115 C2113 1.390 . S
C2115 C2116 1.387 . S
C2115 H2118 0.950 . S
C2116 C2115 1.387 . S
C2116 C2119 1.387 . S
H2117 C2113 0.950 . S
H2118 C2115 0.950 . S
C2119 C2110 1.390 . S
C2119 H2112 0.950 . S
C2119 C2116 1.387 . S
C2120 C2121 1.387 . S
C2120 H2124 0.950 . S
C2120 C2129 1.390 . S
C2121 C2120 1.387 . S
C2121 C2123 1.387 . S
H2122 C2129 0.950 . S
C2123 C2121 1.387 . S
C2123 C2125 1.390 . S
C2123 H2127 0.950 . S
H2124 C2120 0.950 . S
C2125 C2123 1.390 . S
C2125 C2126 1.387 . S
C2125 H2128 0.950 . S
C2126 C2125 1.387 . S
C2126 C2129 1.387 . S
H2127 C2123 0.950 . S
H2128 C2125 0.950 . S
C2129 C2120 1.390 . S
C2129 H2122 0.950 . S
C2129 C2126 1.387 . S
C2130 C2131 1.387 . S
C2130 H2134 0.950 . S
C2130 C2139 1.390 . S
C2131 C2130 1.387 . S
C2131 C2133 1.387 . S
H2132 C2139 0.950 . S
C2133 C2131 1.387 . S
C2133 C2135 1.390 . S
C2133 H2137 0.950 . S
H2134 C2130 0.950 . S
C2135 C2133 1.390 . S
C2135 C2136 1.387 . S
C2135 H2138 0.950 . S
C2136 C2135 1.387 . S
C2136 C2139 1.387 . S
H2137 C2133 0.950 . S
H2138 C2135 0.950 . S
C2139 C2130 1.390 . S
C2139 H2132 0.950 . S
C2139 C2136 1.387 . S
C2140 C2141 1.387 . S
C2140 H2144 0.950 . S
C2140 C2149 1.390 . S
C2141 C2140 1.387 . S
C2141 C2143 1.387 . S
H2142 C2149 0.950 . S
C2143 C2141 1.387 . S
C2143 C2145 1.390 . S
C2143 H2147 0.950 . S
H2144 C2140 0.950 . S
C2145 C2143 1.390 . S
C2145 C2146 1.387 . S
C2145 H2148 0.950 . S
C2146 C2145 1.387 . S
C2146 C2149 1.387 . S
H2147 C2143 0.950 . S
H2148 C2145 0.950 . S
C2149 C2140 1.390 . S
C2149 H2142 0.950 . S
C2149 C2146 1.387 . S
C2150 C2151 1.387 . S
C2150 H2154 0.950 . S
C2150 C2159 1.390 . S
C2151 C2150 1.387 . S
C2151 C2153 1.387 . S
H2152 C2159 0.950 . S
C2153 C2151 1.387 . S
C2153 C2155 1.390 . S
C2153 H2157 0.950 . S
H2154 C2150 0.950 . S
C2155 C2153 1.390 . S
C2155 C2156 1.387 . S
C2155 H2158 0.950 . S
C2156 C2155 1.387 . S
C2156 C2159 1.387 . S
H2157 C2153 0.950 . S
H2158 C2155 0.950 . S
C2159 C2150 1.390 . S
C2159 H2152 0.950 . S
C2159 C2156 1.387 . S
C2160 C2161 1.387 . S
C2160 H2164 0.950 . S
C2160 C2169 1.390 1_565 S
C2161 C2160 1.387 . S
C2161 C2163 1.387 . S
H2162 C2169 0.950 . S
C2163 C2161 1.387 . S
C2163 C2165 1.390 1_565 S
C2163 H2167 0.950 . S
H2164 C2160 0.950 . S
C2165 C2163 1.390 1_545 S
C2165 C2166 1.387 . S
C2165 H2168 0.950 . S
C2166 C2165 1.387 . S
C2166 C2169 1.387 . S
H2167 C2163 0.950 . S
H2168 C2165 0.950 . S
C2169 C2160 1.390 1_545 S
C2169 H2162 0.950 . S
C2169 C2166 1.387 . S
C2170 C2171 1.387 . S
C2170 H2174 0.950 . S
C2170 C2179 1.390 . S
C2171 C2170 1.387 . S
C2171 C2173 1.387 . S
H2172 C2179 0.950 . S
C2173 C2171 1.387 . S
C2173 C2175 1.390 . S
C2173 H2177 0.950 . S
H2174 C2170 0.950 . S
C2175 C2173 1.390 . S
C2175 C2176 1.387 . S
C2175 H2178 0.950 . S
C2176 C2175 1.387 . S
C2176 C2179 1.387 . S
H2177 C2173 0.950 . S
H2178 C2175 0.950 . S
C2179 C2170 1.390 . S
C2179 H2172 0.950 . S
C2179 C2176 1.387 . S
C2180 C2181 1.387 . S
C2180 H2184 0.950 . S
C2180 C2189 1.390 1_545 S
C2181 C2180 1.387 . S
C2181 C2183 1.387 . S
H2182 C2189 0.950 . S
C2183 C2181 1.387 . S
C2183 C2185 1.390 1_545 S
C2183 H2187 0.950 . S
H2184 C2180 0.950 . S
C2185 C2183 1.390 1_565 S
C2185 C2186 1.387 . S
C2185 H2188 0.950 . S
C2186 C2185 1.387 . S
C2186 C2189 1.387 . S
H2187 C2183 0.950 . S
H2188 C2185 0.950 . S
C2189 C2180 1.390 1_565 S
C2189 H2182 0.950 . S
C2189 C2186 1.387 . S
C2190 C2191 1.387 . S
C2190 H2194 0.950 . S
C2190 C2199 1.390 . S
C2191 C2190 1.387 . S
C2191 C2193 1.387 . S
H2192 C2199 0.950 . S
C2193 C2191 1.387 . S
C2193 C2195 1.390 . S
C2193 H2197 0.950 . S
H2194 C2190 0.950 . S
C2195 C2193 1.390 . S
C2195 C2196 1.387 . S
C2195 H2198 0.950 . S
C2196 C2195 1.387 . S
C2196 C2199 1.387 . S
H2197 C2193 0.950 . S
H2198 C2195 0.950 . S
C2199 C2190 1.390 . S
C2199 H2192 0.950 . S
C2199 C2196 1.387 . S
C2200 C2201 1.387 . S
C2200 H2204 0.950 . S
C2200 C2209 1.390 1_565 S
C2201 C2200 1.387 . S
C2201 C2203 1.387 . S
H2202 C2209 0.950 . S
C2203 C2201 1.387 . S
C2203 C2205 1.390 1_565 S
C2203 H2207 0.950 . S
H2204 C2200 0.950 . S
C2205 C2203 1.390 1_545 S
C2205 C2206 1.387 . S
C2205 H2208 0.950 . S
C2206 C2205 1.387 . S
C2206 C2209 1.387 . S
H2207 C2203 0.950 . S
H2208 C2205 0.950 . S
C2209 C2200 1.390 1_545 S
C2209 H2202 0.950 . S
C2209 C2206 1.387 . S
C2210 C2211 1.387 . S
C2210 H2214 0.950 . S
C2210 C2219 1.390 . S
C2211 C2210 1.387 . S
C2211 C2213 1.387 . S
H2212 C2219 0.950 . S
C2213 C2211 1.387 . S
C2213 C2215 1.390 . S
C2213 H2217 0.950 . S
H2214 C2210 0.950 . S
C2215 C2213 1.390 . S
C2215 C2216 1.387 . S
C2215 H2218 0.950 . S
C2216 C2215 1.387 . S
C2216 C2219 1.387 . S
H2217 C2213 0.950 . S
H2218 C2215 0.950 . S
C2219 C2210 1.390 . S
C2219 H2212 0.950 . S
C2219 C2216 1.387 . S
C2220 C2221 1.387 . S
C2220 H2224 0.950 . S
C2220 C2229 1.390 1_565 S
C2221 C2220 1.387 . S
C2221 C2223 1.387 . S
H2222 C2229 0.950 . S
C2223 C2221 1.387 . S
C2223 C2225 1.390 1_565 S
C2223 H2227 0.950 . S
H2224 C2220 0.950 . S
C2225 C2223 1.390 1_545 S
C2225 C2226 1.387 . S
C2225 H2228 0.950 . S
C2226 C2225 1.387 . S
C2226 C2229 1.387 . S
H2227 C2223 0.950 . S
H2228 C2225 0.950 . S
C2229 C2220 1.390 1_545 S
C2229 H2222 0.950 . S
C2229 C2226 1.387 . S
C2230 C2231 1.387 . S
C2230 H2234 0.950 . S
C2230 C2239 1.390 . S
C2231 C2230 1.387 . S
C2231 C2233 1.387 . S
H2232 C2239 0.950 . S
C2233 C2231 1.387 . S
C2233 C2235 1.390 . S
C2233 H2237 0.950 . S
H2234 C2230 0.950 . S
C2235 C2233 1.390 . S
C2235 C2236 1.387 . S
C2235 H2238 0.950 . S
C2236 C2235 1.387 . S
C2236 C2239 1.387 . S
H2237 C2233 0.950 . S
H2238 C2235 0.950 . S
C2239 C2230 1.390 . S
C2239 H2232 0.950 . S
C2239 C2236 1.387 . S
C1281 C15 1.084 . S
C1286 C175 1.084 . S
C1291 C215 1.089 . S
C1296 C55 1.089 . S
C1301 C95 1.092 . S
C1306 C255 1.092 . S
C1311 C295 1.081 . S
C1316 C135 1.081 . S
C1321 C326 1.084 . S
C1326 C486 1.085 . S
C1331 C366 1.081 . S
C1336 C526 1.081 . S
C1341 C566 1.092 . S
C1346 C406 1.092 . S
C1351 C446 1.081 . S
C1356 C606 1.081 . S
C1361 C815 1.084 . S
C1366 C655 1.084 . S
C1371 C695 1.081 . S
C1376 C855 1.081 . S
C1381 C735 1.084 . S
C1386 C895 1.084 . S
C1391 C775 1.089 . S
C1396 C935 1.089 . S
C1401 C966 1.092 . S
C1406 C1126 1.092 . S
C1411 C1166 1.081 . S
C1416 C1006 1.081 . S
C1421 C1046 1.092 . S
C1426 C1206 1.092 . S
C1431 C1246 1.089 . S
C1436 C1086 1.089 . S
C1441 C849 3.188 . S
C1446 C9 3.188 . S
C1451 C889 3.188 . S
C1456 C49 3.188 . S
C1461 C929 3.189 . S
C1466 C89 3.188 . S
C1471 C129 3.189 1_554 S
C1476 C809 3.191 . S
C1481 C169 3.191 . S
C1486 C769 3.189 . S
C1491 C649 3.191 . S
C1496 C209 3.190 . S
C1501 C249 3.189 . S
C1506 C689 3.189 1_554 S
C1511 C289 3.190 . S
C1516 C729 3.190 . S
C1521 C338 3.188 . S
C1526 C1178 3.188 1_554 S
C1531 C1218 3.189 . S
C1536 C378 3.189 . S
C1541 C1258 3.188 . S
C1546 C418 3.188 . S
C1551 C458 3.189 . S
C1556 C1138 3.191 . S
C1561 C498 3.191 . S
C1566 C1098 3.190 . S
C1571 C538 3.189 . S
C1576 C978 3.188 . S
C1581 C578 3.188 . S
C1586 C1018 3.188 . S
C1591 C618 3.189 1_554 S
C1596 C1058 3.189 . S
C1601 C329 1.488 . S
C1606 C18 1.488 . S
C1611 C58 1.491 . S
C1616 C1009 1.491 . S
C1621 C409 1.487 . S
C1626 C98 1.487 . S
C1631 C138 1.491 . S
C1636 C1089 1.486 1_556 S
C1641 C489 1.489 . S
C1646 C178 1.489 . S
C1651 C1169 1.493 . S
C1656 C218 1.488 1_556 S
C1661 C258 1.487 . S
C1666 C569 1.487 . S
C1671 C298 1.491 . S
C1676 C1249 1.491 . S
C1681 C698 1.492 . S
C1686 C369 1.486 1_556 S
C1691 C778 1.493 . S
C1696 C449 1.493 . S
C1701 C529 1.490 . S
C1706 C858 1.490 . S
C1711 C938 1.484 1_556 S
C1716 C609 1.489 . S
C1721 C969 1.487 . S
C1726 C658 1.487 . S
C1731 C1049 1.490 . S
C1736 C738 1.490 . S
C1741 C1129 1.493 . S
C1746 C818 1.493 . S
C1751 C898 1.491 . S
C1756 C1209 1.491 . S
C1761 C6 1.616 . S
C1766 C490 1.749 . S
C1771 C1170 1.747 1_554 S
C1776 C46 1.616 . S
C1781 C570 1.747 . S
C1786 C86 1.614 . S
C1791 C126 1.615 . S
C1796 C1250 1.746 . S
C1801 C330 1.748 . S
C1806 C166 1.616 . S
C1811 C1010 1.747 . S
C1816 C206 1.615 . S
C1821 C410 1.747 . S
C1826 C246 1.614 . S
C1831 C1090 1.747 . S
C1836 C286 1.615 . S
C1841 C179 1.748 . S
C1846 C335 1.617 . S
C1851 C859 1.747 . S
C1856 C375 1.615 . S
C1861 C259 1.749 . S
C1866 C415 1.615 . S
C1871 C455 1.611 . S
C1876 C939 1.746 . S
C1881 C19 1.747 . S
C1886 C495 1.615 . S
C1891 C699 1.747 1_554 S
C1896 C535 1.612 . S
C1901 C575 1.614 . S
C1906 C99 1.748 . S
C1911 C615 1.614 . S
C1916 C779 1.746 . S
C1921 C1130 1.749 . S
C1926 C646 1.616 . S
C1931 C530 1.746 . S
C1936 C686 1.612 . S
C1941 C726 1.614 . S
C1946 C1210 1.747 . S
C1951 C610 1.745 1_554 S
C1956 C766 1.611 . S
C1961 C806 1.615 . S
C1966 C970 1.747 . S
C1971 C846 1.614 . S
C1976 C370 1.746 . S
C1981 C1050 1.749 . S
C1986 C886 1.616 . S
C1991 C450 1.746 . S
C1996 C926 1.614 . S
C2001 C975 1.615 . S
C2006 C819 1.749 . S
C2011 C1015 1.615 . S
C2016 C219 1.747 . S
C2021 C1055 1.614 . S
C2026 C899 1.747 . S
C2031 C1095 1.616 . S
C2036 C299 1.747 . S
C2041 C659 1.749 . S
C2046 C1135 1.615 . S
C2051 C59 1.747 . S
C2056 C1175 1.615 . S
C2061 C1215 1.616 . S
C2066 C739 1.748 . S
C2071 C139 1.746 1_554 S
C2076 C1255 1.612 . S
C2081 C170 3.486 . S
C2086 C10 3.486 1_556 S
C2091 C210 3.488 . S
C2096 C50 3.488 . S
C2101 C90 3.487 . S
C2106 C250 3.487 . S
C2111 C290 3.487 . S
C2116 C130 3.487 . S
C2121 C499 3.487 . S
C2126 C339 3.487 . S
C2131 C379 3.487 . S
C2136 C539 3.487 . S
C2141 C419 3.486 . S
C2146 C579 3.486 1_556 S
C2151 C619 3.488 . S
C2156 C459 3.488 . S
C2161 C650 3.487 . S
C2166 C810 3.487 . S
C2171 C850 3.487 . S
C2176 C690 3.487 . S
C2181 C730 3.486 1_556 S
C2186 C890 3.486 . S
C2191 C770 3.488 . S
C2196 C930 3.488 . S
C2201 C1139 3.486 1_556 S
C2206 C979 3.486 . S
C2211 C1179 3.488 . S
C2216 C1019 3.488 . S
C2221 C1059 3.487 . S
C2226 C1219 3.487 . S
C2231 C1259 3.487 . S
C2236 C1099 3.487 . S
