# Generated by pormake.
# Topology wlm, (5)-cn, num edge types: 1
# Building blocks:
#     Node 0, Type 0, BuildingBlock: BEQFEK_clean_sbu_0, # of connection points: 5
#     Node 1, Type 0, BuildingBlock: BEQFEK_clean_sbu_0, # of connection points: 5
#     Node 2, Type 0, BuildingBlock: BEQFEK_clean_sbu_0, # of connection points: 5
#     Node 3, Type 0, BuildingBlock: BEQFEK_clean_sbu_0, # of connection points: 5
#     Node 4, Type 0, BuildingBlock: BEQFEK_clean_sbu_0, # of connection points: 5
#     Node 5, Type 0, BuildingBlock: BEQFEK_clean_sbu_0, # of connection points: 5
#     Node 6, Type 0, BuildingBlock: BEQFEK_clean_sbu_0, # of connection points: 5
#     Node 7, Type 0, BuildingBlock: BEQFEK_clean_sbu_0, # of connection points: 5
#     Node 8, Type 0, BuildingBlock: BEQFEK_clean_sbu_0, # of connection points: 5
#     Node 9, Type 0, BuildingBlock: BEQFEK_clean_sbu_0, # of connection points: 5
#     Node 10, Type 0, BuildingBlock: BEQFEK_clean_sbu_0, # of connection points: 5
#     Node 11, Type 0, BuildingBlock: BEQFEK_clean_sbu_0, # of connection points: 5
#     Node 12, Type 0, BuildingBlock: BEQFEK_clean_sbu_0, # of connection points: 5
#     Node 13, Type 0, BuildingBlock: BEQFEK_clean_sbu_0, # of connection points: 5
#     Node 14, Type 0, BuildingBlock: BEQFEK_clean_sbu_0, # of connection points: 5
#     Node 15, Type 0, BuildingBlock: BEQFEK_clean_sbu_0, # of connection points: 5
#     Node 16, Type 0, BuildingBlock: BEQFEK_clean_sbu_0, # of connection points: 5
#     Node 17, Type 0, BuildingBlock: BEQFEK_clean_sbu_0, # of connection points: 5
#     Node 18, Type 0, BuildingBlock: BEQFEK_clean_sbu_0, # of connection points: 5
#     Node 19, Type 0, BuildingBlock: BEQFEK_clean_sbu_0, # of connection points: 5
#     Node 20, Type 0, BuildingBlock: BEQFEK_clean_sbu_0, # of connection points: 5
#     Node 21, Type 0, BuildingBlock: BEQFEK_clean_sbu_0, # of connection points: 5
#     Node 22, Type 0, BuildingBlock: BEQFEK_clean_sbu_0, # of connection points: 5
#     Node 23, Type 0, BuildingBlock: BEQFEK_clean_sbu_0, # of connection points: 5
#     Node 24, Type 0, BuildingBlock: BEQFEK_clean_sbu_0, # of connection points: 5
#     Node 25, Type 0, BuildingBlock: BEQFEK_clean_sbu_0, # of connection points: 5
#     Node 26, Type 0, BuildingBlock: BEQFEK_clean_sbu_0, # of connection points: 5
#     Node 27, Type 0, BuildingBlock: BEQFEK_clean_sbu_0, # of connection points: 5
#     Node 28, Type 0, BuildingBlock: BEQFEK_clean_sbu_0, # of connection points: 5
#     Node 29, Type 0, BuildingBlock: BEQFEK_clean_sbu_0, # of connection points: 5
#     Node 30, Type 0, BuildingBlock: BEQFEK_clean_sbu_0, # of connection points: 5
#     Node 31, Type 0, BuildingBlock: BEQFEK_clean_sbu_0, # of connection points: 5
#     Node 32, Type 0, BuildingBlock: BEQFEK_clean_sbu_0, # of connection points: 5
#     Node 33, Type 0, BuildingBlock: BEQFEK_clean_sbu_0, # of connection points: 5
#     Node 34, Type 0, BuildingBlock: BEQFEK_clean_sbu_0, # of connection points: 5
#     Node 35, Type 0, BuildingBlock: BEQFEK_clean_sbu_0, # of connection points: 5
#     Edge 36, Type (0, 0), None
#     Edge 37, Type (0, 0), None
#     Edge 38, Type (0, 0), None
#     Edge 39, Type (0, 0), None
#     Edge 40, Type (0, 0), None
#     Edge 41, Type (0, 0), None
#     Edge 42, Type (0, 0), None
#     Edge 43, Type (0, 0), None
#     Edge 44, Type (0, 0), None
#     Edge 45, Type (0, 0), None
#     Edge 46, Type (0, 0), None
#     Edge 47, Type (0, 0), None
#     Edge 48, Type (0, 0), None
#     Edge 49, Type (0, 0), None
#     Edge 50, Type (0, 0), None
#     Edge 51, Type (0, 0), None
#     Edge 52, Type (0, 0), None
#     Edge 53, Type (0, 0), None
#     Edge 54, Type (0, 0), None
#     Edge 55, Type (0, 0), None
#     Edge 56, Type (0, 0), None
#     Edge 57, Type (0, 0), None
#     Edge 58, Type (0, 0), None
#     Edge 59, Type (0, 0), None
#     Edge 60, Type (0, 0), None
#     Edge 61, Type (0, 0), None
#     Edge 62, Type (0, 0), None
#     Edge 63, Type (0, 0), None
#     Edge 64, Type (0, 0), None
#     Edge 65, Type (0, 0), None
#     Edge 66, Type (0, 0), None
#     Edge 67, Type (0, 0), None
#     Edge 68, Type (0, 0), None
#     Edge 69, Type (0, 0), None
#     Edge 70, Type (0, 0), None
#     Edge 71, Type (0, 0), None
#     Edge 72, Type (0, 0), None
#     Edge 73, Type (0, 0), None
#     Edge 74, Type (0, 0), None
#     Edge 75, Type (0, 0), None
#     Edge 76, Type (0, 0), None
#     Edge 77, Type (0, 0), None
#     Edge 78, Type (0, 0), None
#     Edge 79, Type (0, 0), None
#     Edge 80, Type (0, 0), None
#     Edge 81, Type (0, 0), None
#     Edge 82, Type (0, 0), None
#     Edge 83, Type (0, 0), None
#     Edge 84, Type (0, 0), None
#     Edge 85, Type (0, 0), None
#     Edge 86, Type (0, 0), None
#     Edge 87, Type (0, 0), None
#     Edge 88, Type (0, 0), None
#     Edge 89, Type (0, 0), None
#     Edge 90, Type (0, 0), None
#     Edge 91, Type (0, 0), None
#     Edge 92, Type (0, 0), None
#     Edge 93, Type (0, 0), None
#     Edge 94, Type (0, 0), None
#     Edge 95, Type (0, 0), None
#     Edge 96, Type (0, 0), None
#     Edge 97, Type (0, 0), None
#     Edge 98, Type (0, 0), None
#     Edge 99, Type (0, 0), None
#     Edge 100, Type (0, 0), None
#     Edge 101, Type (0, 0), None
#     Edge 102, Type (0, 0), None
#     Edge 103, Type (0, 0), None
#     Edge 104, Type (0, 0), None
#     Edge 105, Type (0, 0), None
#     Edge 106, Type (0, 0), None
#     Edge 107, Type (0, 0), None
#     Edge 108, Type (0, 0), None
#     Edge 109, Type (0, 0), None
#     Edge 110, Type (0, 0), None
#     Edge 111, Type (0, 0), None
#     Edge 112, Type (0, 0), None
#     Edge 113, Type (0, 0), None
#     Edge 114, Type (0, 0), None
#     Edge 115, Type (0, 0), None
#     Edge 116, Type (0, 0), None
#     Edge 117, Type (0, 0), None
#     Edge 118, Type (0, 0), None
#     Edge 119, Type (0, 0), None
#     Edge 120, Type (0, 0), None
#     Edge 121, Type (0, 0), None
#     Edge 122, Type (0, 0), None
#     Edge 123, Type (0, 0), None
#     Edge 124, Type (0, 0), None
#     Edge 125, Type (0, 0), None
# Relax obj value: 0.075
# Max RMSD: 0.119
# Mean RMSD: 0.119
data_MOF--net-wlm--node1-BEQFEK_clean_sbu_0--edge1-none
_symmetry_space_group_name_H-M    P1
_symmetry_Int_Tables_number       1
_symmetry_cell_setting            triclinic
loop_
_symmetry_equiv_pos_as_xyz
'x, y, z'
_cell_length_a     60.701303
_cell_length_b     60.707585
_cell_length_c     11.069866
_cell_angle_alpha  89.910535
_cell_angle_beta   90.089804
_cell_angle_gamma 120.01944
loop_
_atom_site_label
_atom_site_type_symbol
_atom_site_fract_x
_atom_site_fract_y
_atom_site_fract_z
_atom_type_partial_charge
Co0 Co 0.14917 0.40312 0.39042 0.0
Co1 Co 0.14099 0.38498 0.1213 0.0
C2 C 0.19172 0.40554 0.25637 0.0
O3 O 0.18428 0.41108 0.35322 0.0
O4 O 0.17684 0.39559 0.16637 0.0
C5 C 0.15762 0.40553 0.6412 0.0
O6 O 0.17757 0.40402 0.60811 0.0
C7 C 0.15601 0.39951 0.87131 0.0
C8 C 0.12154 0.37297 0.76954 0.0
C9 C 0.14552 0.39411 0.75677 0.0
N10 N 0.13876 0.38276 0.94927 0.0
N11 N 0.11831 0.3667 0.88758 0.0
C12 C 0.18128 0.42122 0.90804 0.0
H13 H 0.1936 0.4136 0.9381 0.0
H14 H 0.1788 0.43124 0.98608 0.0
H15 H 0.19065 0.43476 0.8324 0.0
C16 C 0.13041 0.43669 0.28818 0.0
N17 N 0.13723 0.41875 0.27845 0.0
N18 N 0.13163 0.4091 0.16914 0.0
C19 C 0.11973 0.4194 0.10818 0.0
C20 C 0.11902 0.43773 0.17996 0.0
C21 C 0.13479 0.45228 0.39954 0.0
H22 H 0.1541 0.4585 0.43561 0.0
H23 H 0.13273 0.46913 0.38078 0.0
H24 H 0.12095 0.44035 0.47005 0.0
O25 O 0.12731 0.36538 0.38856 0.0
O26 O 0.11889 0.35153 0.19945 0.0
H27 H 0.09001 0.41341 0.98111 0.0
H28 H 0.11834 0.41573 0.91575 0.0
C29 C 0.10515 0.40848 0.99376 0.0
H30 H 0.09589 0.38748 0.99678 0.0
H31 H 0.1018 0.35209 0.92666 0.0
O32 O 0.14472 0.40926 0.56158 0.0
C33 C 0.11644 0.34733 0.31294 0.0
Co34 Co 0.59944 0.74663 0.38805 0.0
Co35 Co 0.61726 0.75683 0.11881 0.0
C36 C 0.59779 0.78754 0.25633 0.0
O37 O 0.59192 0.77419 0.3523 0.0
O38 O 0.60751 0.78258 0.16575 0.0
C39 C 0.59609 0.75198 0.6387 0.0
O40 O 0.59615 0.77277 0.60565 0.0
C41 C 0.60116 0.75511 0.86861 0.0
C42 C 0.63114 0.75286 0.7663 0.0
C43 C 0.60812 0.75219 0.75378 0.0
N44 N 0.61901 0.75694 0.9468 0.0
N45 N 0.63698 0.75574 0.88485 0.0
C46 C 0.57649 0.75317 0.90379 0.0
H47 H 0.57563 0.75578 0.00232 0.0
H48 H 0.56062 0.73414 0.87772 0.0
H49 H 0.57391 0.76752 0.85332 0.0
C50 C 0.56593 0.69436 0.28635 0.0
N51 N 0.58358 0.7192 0.27615 0.0
N52 N 0.59311 0.72339 0.16662 0.0
C53 C 0.58306 0.70123 0.10584 0.0
C54 C 0.56499 0.68201 0.17817 0.0
C55 C 0.55052 0.683 0.39811 0.0
H56 H 0.54441 0.69606 0.43535 0.0
H57 H 0.53359 0.66414 0.37937 0.0
H58 H 0.56254 0.68094 0.4677 0.0
O59 O 0.63711 0.7622 0.38464 0.0
O60 O 0.65082 0.76775 0.19526 0.0
H61 H 0.59027 0.67813 0.98097 0.0
H62 H 0.58564 0.70255 0.91294 0.0
C63 C 0.59405 0.69789 0.99096 0.0
H64 H 0.61492 0.71082 0.99046 0.0
H65 H 0.65275 0.75603 0.92405 0.0
O66 O 0.59352 0.73582 0.55898 0.0
C67 C 0.65509 0.76933 0.30871 0.0
Co68 Co 0.25699 0.85402 0.39165 0.0
Co69 Co 0.24704 0.86182 0.12229 0.0
C70 C 0.21643 0.81144 0.25928 0.0
O71 O 0.2296 0.81885 0.3558 0.0
O72 O 0.22142 0.82627 0.16912 0.0
C73 C 0.25195 0.84522 0.64275 0.0
O74 O 0.23124 0.82432 0.61058 0.0
C75 C 0.24849 0.84711 0.87288 0.0
C76 C 0.25174 0.87972 0.76942 0.0
C77 C 0.25182 0.85706 0.75772 0.0
N78 N 0.24701 0.86342 0.95024 0.0
N79 N 0.24878 0.88279 0.88763 0.0
C80 C 0.25003 0.82424 0.91037 0.0
H81 H 0.23603 0.81374 0.98237 0.0
H82 H 0.26925 0.83062 0.94805 0.0
H83 H 0.24679 0.81144 0.83263 0.0
C84 C 0.30927 0.87257 0.29063 0.0
N85 N 0.28451 0.86567 0.28024 0.0
N86 N 0.28044 0.87113 0.17063 0.0
C87 C 0.30263 0.88306 0.10997 0.0
C88 C 0.32171 0.88391 0.18245 0.0
C89 C 0.32046 0.86824 0.40242 0.0
H90 H 0.30718 0.8491 0.43967 0.0
H91 H 0.33919 0.86989 0.38371 0.0
H92 H 0.32274 0.88237 0.47197 0.0
O93 O 0.24127 0.87604 0.38786 0.0
O94 O 0.23595 0.88434 0.19817 0.0
H95 H 0.32602 0.91323 0.98465 0.0
H96 H 0.3013 0.88431 0.91703 0.0
C97 C 0.30616 0.89742 0.99483 0.0
H98 H 0.29347 0.90564 0.99415 0.0
H99 H 0.24888 0.8985 0.9262 0.0
O100 O 0.26788 0.85891 0.56238 0.0
C101 C 0.23419 0.88692 0.31153 0.0
Co102 Co 0.40389 0.14843 0.61 0.0
Co103 Co 0.38575 0.14024 0.87912 0.0
C104 C 0.40631 0.19097 0.74405 0.0
O105 O 0.41186 0.18353 0.6472 0.0
O106 O 0.39636 0.17609 0.83405 0.0
C107 C 0.4063 0.15688 0.35922 0.0
O108 O 0.40479 0.17682 0.39232 0.0
C109 C 0.40027 0.15526 0.12911 0.0
C110 C 0.37374 0.1208 0.23088 0.0
C111 C 0.39487 0.14477 0.24365 0.0
N112 N 0.38353 0.13802 0.05115 0.0
N113 N 0.36747 0.11756 0.11284 0.0
C114 C 0.42198 0.18053 0.09238 0.0
H115 H 0.41436 0.19286 0.06236 0.0
H116 H 0.432 0.17806 0.01432 0.0
H117 H 0.43553 0.1899 0.16801 0.0
C118 C 0.43746 0.12966 0.71226 0.0
N119 N 0.41953 0.13648 0.72198 0.0
N120 N 0.40987 0.13089 0.83129 0.0
C121 C 0.42016 0.11898 0.89225 0.0
C122 C 0.43849 0.11826 0.82049 0.0
C123 C 0.45305 0.13403 0.60091 0.0
H124 H 0.45928 0.15334 0.56483 0.0
H125 H 0.4699 0.13196 0.61969 0.0
H126 H 0.44112 0.12019 0.5304 0.0
O127 O 0.36616 0.12657 0.61185 0.0
O128 O 0.3523 0.11814 0.80095 0.0
H129 H 0.41415 0.08925 0.0193 0.0
H130 H 0.41648 0.11758 0.08468 0.0
C131 C 0.40923 0.10439 0.00665 0.0
H132 H 0.38823 0.09514 0.00359 0.0
H133 H 0.35286 0.10106 0.07376 0.0
O134 O 0.41003 0.14397 0.43884 0.0
C135 C 0.3481 0.1157 0.68745 0.0
Co136 Co 0.85482 0.25623 0.60876 0.0
Co137 Co 0.86263 0.2463 0.87811 0.0
C138 C 0.81222 0.2157 0.74127 0.0
O139 O 0.81964 0.22885 0.6447 0.0
O140 O 0.82706 0.2207 0.83141 0.0
C141 C 0.84603 0.25118 0.35765 0.0
O142 O 0.82517 0.23043 0.38983 0.0
C143 C 0.84794 0.24774 0.12751 0.0
C144 C 0.88056 0.25103 0.23098 0.0
C145 C 0.85789 0.25108 0.24268 0.0
N146 N 0.86426 0.24629 0.05016 0.0
N147 N 0.88364 0.24807 0.11277 0.0
C148 C 0.82505 0.24924 0.08994 0.0
H149 H 0.81439 0.23498 0.01916 0.0
H150 H 0.83142 0.26832 0.05052 0.0
H151 H 0.8124 0.24633 0.16792 0.0
C152 C 0.87338 0.30852 0.70977 0.0
N153 N 0.86648 0.28376 0.72015 0.0
N154 N 0.87195 0.2797 0.82975 0.0
C155 C 0.88388 0.30189 0.8904 0.0
C156 C 0.88472 0.32097 0.81794 0.0
C157 C 0.86903 0.31971 0.598 0.0
H158 H 0.84989 0.30641 0.56077 0.0
H159 H 0.87067 0.33843 0.61673 0.0
H160 H 0.88316 0.322 0.52843 0.0
O161 O 0.87682 0.2405 0.61248 0.0
O162 O 0.88513 0.23519 0.80216 0.0
H163 H 0.91404 0.32529 0.01573 0.0
H164 H 0.88514 0.30055 0.08334 0.0
C165 C 0.89825 0.30543 0.00554 0.0
H166 H 0.90648 0.29275 0.00619 0.0
H167 H 0.89937 0.24819 0.07421 0.0
O168 O 0.85969 0.26713 0.43802 0.0
C169 C 0.8877 0.23343 0.6888 0.0
Co170 Co 0.7474 0.5987 0.61268 0.0
Co171 Co 0.7576 0.61651 0.88192 0.0
C172 C 0.7883 0.59704 0.74439 0.0
O173 O 0.77495 0.59117 0.64841 0.0
O174 O 0.78335 0.60677 0.83497 0.0
C175 C 0.75273 0.59533 0.36202 0.0
O176 O 0.77351 0.59536 0.39504 0.0
C177 C 0.75587 0.60041 0.13211 0.0
C178 C 0.75362 0.63038 0.23444 0.0
C179 C 0.75295 0.60736 0.24695 0.0
N180 N 0.7577 0.61827 0.05394 0.0
N181 N 0.75651 0.63623 0.11589 0.0
C182 C 0.75393 0.57574 0.09692 0.0
H183 H 0.75654 0.57489 0.99839 0.0
H184 H 0.73489 0.55988 0.12296 0.0
H185 H 0.76827 0.57315 0.1474 0.0
C186 C 0.69512 0.56519 0.71439 0.0
N187 N 0.71996 0.58284 0.72459 0.0
N188 N 0.72416 0.59237 0.83412 0.0
C189 C 0.702 0.58232 0.8949 0.0
C190 C 0.68277 0.56425 0.82258 0.0
C191 C 0.68375 0.54978 0.60262 0.0
H192 H 0.69682 0.54368 0.56539 0.0
H193 H 0.66489 0.53286 0.62136 0.0
H194 H 0.6817 0.56181 0.53304 0.0
O195 O 0.76296 0.63636 0.6161 0.0
O196 O 0.76851 0.65007 0.80549 0.0
H197 H 0.67889 0.58953 0.01977 0.0
H198 H 0.70331 0.5849 0.0878 0.0
C199 C 0.69865 0.5933 0.00978 0.0
H200 H 0.71158 0.61417 0.01029 0.0
H201 H 0.75679 0.652 0.0767 0.0
O202 O 0.73658 0.59278 0.44175 0.0
C203 C 0.77009 0.65434 0.69204 0.0
Co204 Co 0.85524 0.59978 0.60949 0.0
Co205 Co 0.86342 0.61794 0.87859 0.0
C206 C 0.81268 0.59736 0.74352 0.0
O207 O 0.82012 0.59181 0.64668 0.0
O208 O 0.82756 0.60732 0.83351 0.0
C209 C 0.84679 0.59739 0.35871 0.0
O210 O 0.82686 0.59892 0.39186 0.0
C211 C 0.84841 0.60342 0.1286 0.0
C212 C 0.88287 0.62996 0.23037 0.0
C213 C 0.8589 0.60882 0.24314 0.0
N214 N 0.86564 0.62017 0.05064 0.0
N215 N 0.8861 0.63623 0.11232 0.0
C216 C 0.82314 0.5817 0.09186 0.0
H217 H 0.81081 0.58932 0.06177 0.0
H218 H 0.82562 0.57168 0.01386 0.0
H219 H 0.81376 0.56816 0.16752 0.0
C220 C 0.87403 0.56623 0.71189 0.0
N221 N 0.8672 0.58416 0.72153 0.0
N222 N 0.87279 0.59382 0.83083 0.0
C223 C 0.8847 0.58354 0.89186 0.0
C224 C 0.88542 0.5652 0.82015 0.0
C225 C 0.86967 0.55063 0.60057 0.0
H226 H 0.85036 0.5444 0.56445 0.0
H227 H 0.87173 0.53379 0.61941 0.0
H228 H 0.88351 0.56256 0.53007 0.0
O229 O 0.8771 0.63752 0.61126 0.0
O230 O 0.88552 0.65139 0.80033 0.0
H231 H 0.91442 0.58955 0.01897 0.0
H232 H 0.88609 0.58723 0.08427 0.0
C233 C 0.89928 0.59448 0.00627 0.0
H234 H 0.90853 0.61547 0.00319 0.0
H235 H 0.90261 0.65085 0.07325 0.0
O236 O 0.85969 0.59364 0.43831 0.0
C237 C 0.88797 0.65558 0.68682 0.0
Co238 Co 0.40501 0.25626 0.6133 0.0
Co239 Co 0.38717 0.24605 0.88252 0.0
C240 C 0.40664 0.21535 0.74495 0.0
O241 O 0.41252 0.2287 0.64898 0.0
O242 O 0.3969 0.2203 0.83552 0.0
C243 C 0.40839 0.25093 0.36262 0.0
O244 O 0.40835 0.23015 0.39563 0.0
C245 C 0.40328 0.24777 0.13271 0.0
C246 C 0.37333 0.25005 0.23507 0.0
C247 C 0.39634 0.25071 0.24756 0.0
N248 N 0.38542 0.24594 0.05456 0.0
N249 N 0.36747 0.24716 0.11653 0.0
C250 C 0.42794 0.2497 0.09749 0.0
H251 H 0.42877 0.24703 0.999 0.0
H252 H 0.44381 0.26876 0.12326 0.0
H253 H 0.43056 0.2354 0.14817 0.0
C254 C 0.43861 0.30849 0.71525 0.0
N255 N 0.42091 0.28367 0.72533 0.0
N256 N 0.41135 0.27948 0.8348 0.0
C257 C 0.42142 0.30164 0.89562 0.0
C258 C 0.43954 0.32084 0.8234 0.0
C259 C 0.45406 0.31985 0.60356 0.0
H260 H 0.46035 0.30687 0.56712 0.0
H261 H 0.47086 0.3388 0.62209 0.0
H262 H 0.442 0.32168 0.53342 0.0
O263 O 0.36735 0.24071 0.61666 0.0
O264 O 0.35361 0.23516 0.806 0.0
H265 H 0.4142 0.32476 0.02031 0.0
H266 H 0.41883 0.30036 0.08852 0.0
C267 C 0.41043 0.305 0.01043 0.0
H268 H 0.38955 0.29207 0.01093 0.0
H269 H 0.3517 0.24689 0.07736 0.0
O270 O 0.41095 0.26708 0.44236 0.0
C271 C 0.34935 0.23358 0.69253 0.0
Co272 Co 0.74745 0.14885 0.60922 0.0
Co273 Co 0.75738 0.14103 0.87879 0.0
C274 C 0.78797 0.19148 0.7419 0.0
O275 O 0.77486 0.1839 0.64528 0.0
O276 O 0.78294 0.17682 0.83298 0.0
C277 C 0.75315 0.15731 0.35841 0.0
O278 O 0.77436 0.17765 0.39103 0.0
C279 C 0.75713 0.15566 0.12851 0.0
C280 C 0.75082 0.12173 0.23047 0.0
C281 C 0.75268 0.14529 0.2431 0.0
N282 N 0.75731 0.13878 0.05059 0.0
N283 N 0.7538 0.11862 0.11229 0.0
C284 C 0.75953 0.18046 0.09203 0.0
H285 H 0.7799 0.19438 0.07676 0.0
H286 H 0.74924 0.17819 0.00581 0.0
H287 H 0.75212 0.18789 0.16324 0.0
C288 C 0.69517 0.1304 0.70993 0.0
N289 N 0.71992 0.13724 0.72054 0.0
N290 N 0.72393 0.13173 0.8302 0.0
C291 C 0.7017 0.11985 0.89062 0.0
C292 C 0.68268 0.11908 0.81799 0.0
C293 C 0.68404 0.13476 0.59799 0.0
H294 H 0.69736 0.1539 0.56083 0.0
H295 H 0.66532 0.13313 0.61647 0.0
H296 H 0.68178 0.12063 0.52848 0.0
O297 O 0.76305 0.1268 0.61291 0.0
O298 O 0.7685 0.11867 0.80261 0.0
H299 H 0.678 0.08999 0.01692 0.0
H300 H 0.7036 0.11853 0.08332 0.0
C301 C 0.69802 0.10535 0.00542 0.0
H302 H 0.71008 0.09643 0.00408 0.0
H303 H 0.75254 0.1024 0.07318 0.0
O304 O 0.73676 0.14415 0.43825 0.0
C305 C 0.77016 0.11599 0.68937 0.0
Co306 Co 0.60053 0.85447 0.39123 0.0
Co307 Co 0.6187 0.86266 0.12214 0.0
C308 C 0.59811 0.81192 0.2572 0.0
O309 O 0.59256 0.81936 0.35404 0.0
O310 O 0.60807 0.8268 0.16721 0.0
C311 C 0.59815 0.84603 0.64201 0.0
O312 O 0.59968 0.8261 0.60885 0.0
C313 C 0.60418 0.84764 0.87212 0.0
C314 C 0.63072 0.88211 0.77035 0.0
C315 C 0.60958 0.85813 0.75758 0.0
N316 N 0.62093 0.86488 0.95009 0.0
N317 N 0.63699 0.88533 0.8884 0.0
C318 C 0.58246 0.82238 0.90885 0.0
H319 H 0.59007 0.81005 0.93895 0.0
H320 H 0.57244 0.82486 0.98685 0.0
H321 H 0.56892 0.813 0.83319 0.0
C322 C 0.56699 0.87327 0.28881 0.0
N323 N 0.58491 0.86644 0.27918 0.0
N324 N 0.59457 0.87203 0.16988 0.0
C325 C 0.5843 0.88394 0.10885 0.0
C326 C 0.56596 0.88466 0.18055 0.0
C327 C 0.55138 0.86891 0.40013 0.0
H328 H 0.54515 0.84961 0.43626 0.0
H329 H 0.53454 0.87098 0.38127 0.0
H330 H 0.56331 0.88276 0.47062 0.0
O331 O 0.63827 0.87633 0.38948 0.0
O332 O 0.65215 0.88475 0.20042 0.0
H333 H 0.59032 0.91366 0.98175 0.0
H334 H 0.588 0.88533 0.91644 0.0
C335 C 0.59524 0.89852 0.99445 0.0
H336 H 0.61624 0.90777 0.99756 0.0
H337 H 0.65161 0.90184 0.92748 0.0
O338 O 0.59439 0.85893 0.56242 0.0
C339 C 0.65634 0.8872 0.31393 0.0
Co340 Co 0.14958 0.74669 0.39147 0.0
Co341 Co 0.14174 0.75662 0.12191 0.0
C342 C 0.1922 0.78719 0.25872 0.0
O343 O 0.18464 0.77408 0.35534 0.0
O344 O 0.17753 0.78216 0.16768 0.0
C345 C 0.15802 0.75247 0.64221 0.0
O346 O 0.17829 0.77372 0.60947 0.0
C347 C 0.15639 0.75646 0.8721 0.0
C348 C 0.12237 0.74996 0.77029 0.0
C349 C 0.14599 0.75195 0.75756 0.0
N350 N 0.13948 0.75654 0.9501 0.0
N351 N 0.11927 0.75293 0.88848 0.0
C352 C 0.18129 0.75906 0.90842 0.0
H353 H 0.19515 0.77948 0.92288 0.0
H354 H 0.17915 0.74892 0.995 0.0
H355 H 0.18871 0.75159 0.83743 0.0
C356 C 0.13113 0.69442 0.2908 0.0
N357 N 0.13796 0.71916 0.28017 0.0
N358 N 0.13245 0.72316 0.17051 0.0
C359 C 0.12057 0.70093 0.1101 0.0
C360 C 0.11981 0.68192 0.18274 0.0
C361 C 0.13551 0.6833 0.40273 0.0
H362 H 0.15464 0.69663 0.43989 0.0
H363 H 0.13389 0.66458 0.38425 0.0
H364 H 0.12137 0.68103 0.47225 0.0
O365 O 0.12754 0.76231 0.38782 0.0
O366 O 0.11938 0.76774 0.19813 0.0
H367 H 0.09074 0.67722 0.98371 0.0
H368 H 0.11926 0.70287 0.91742 0.0
C369 C 0.10606 0.69724 0.99531 0.0
H370 H 0.09709 0.70925 0.99677 0.0
H371 H 0.10301 0.75158 0.92765 0.0
O372 O 0.1449 0.73602 0.56245 0.0
C373 C 0.11672 0.76941 0.31137 0.0
Co374 Co 0.25701 0.40425 0.38711 0.0
Co375 Co 0.2468 0.38641 0.11789 0.0
C376 C 0.2161 0.40587 0.25546 0.0
O377 O 0.22945 0.41175 0.35144 0.0
O378 O 0.22105 0.39614 0.16489 0.0
C379 C 0.25169 0.40763 0.6378 0.0
O380 O 0.23091 0.4076 0.6048 0.0
C381 C 0.24853 0.40252 0.8677 0.0
C382 C 0.25081 0.37257 0.76533 0.0
C383 C 0.25147 0.39558 0.75286 0.0
N384 N 0.2467 0.38466 0.94585 0.0
N385 N 0.24791 0.36671 0.88387 0.0
C386 C 0.25046 0.42718 0.90294 0.0
H387 H 0.24781 0.42801 0.00145 0.0
H388 H 0.26951 0.44305 0.87709 0.0
H389 H 0.23614 0.42979 0.85233 0.0
C390 C 0.30925 0.43784 0.28516 0.0
N391 N 0.28442 0.42014 0.27508 0.0
N392 N 0.28023 0.41059 0.16561 0.0
C393 C 0.30239 0.42066 0.10479 0.0
C394 C 0.3216 0.43877 0.17701 0.0
C395 C 0.3206 0.4533 0.39684 0.0
H396 H 0.30763 0.4596 0.43325 0.0
H397 H 0.33956 0.47009 0.37832 0.0
H398 H 0.32243 0.44124 0.46701 0.0
O399 O 0.24147 0.36659 0.38375 0.0
O400 O 0.23591 0.35285 0.19441 0.0
H401 H 0.32552 0.41344 0.9801 0.0
H402 H 0.30112 0.41807 0.91189 0.0
C403 C 0.30576 0.40966 0.98998 0.0
H404 H 0.29283 0.38879 0.98947 0.0
H405 H 0.24764 0.35094 0.92304 0.0
O406 O 0.26784 0.41018 0.55805 0.0
C407 C 0.23434 0.34859 0.30787 0.0
Co408 Co 0.81587 0.73648 0.72405 0.0
Co409 Co 0.80767 0.71833 0.45492 0.0
C410 C 0.8584 0.73889 0.58994 0.0
O411 O 0.85097 0.74444 0.6868 0.0
O412 O 0.84352 0.72894 0.49996 0.0
C413 C 0.82431 0.73887 0.97482 0.0
O414 O 0.84424 0.73733 0.94171 0.0
C415 C 0.82269 0.73285 0.20493 0.0
C416 C 0.78822 0.70633 0.10316 0.0
C417 C 0.8122 0.72746 0.09039 0.0
N418 N 0.80544 0.71612 0.28289 0.0
N419 N 0.78498 0.70006 0.22121 0.0
C420 C 0.84797 0.75455 0.24165 0.0
H421 H 0.86029 0.74692 0.27158 0.0
H422 H 0.84551 0.76456 0.31977 0.0
H423 H 0.85734 0.7681 0.16604 0.0
C424 C 0.79711 0.77004 0.62184 0.0
N425 N 0.80392 0.75211 0.61209 0.0
N426 N 0.79832 0.74246 0.50278 0.0
C427 C 0.78641 0.75275 0.44185 0.0
C428 C 0.7857 0.77108 0.51364 0.0
C429 C 0.80148 0.78564 0.7332 0.0
H430 H 0.8208 0.79187 0.76923 0.0
H431 H 0.79942 0.80248 0.71444 0.0
H432 H 0.78765 0.77371 0.80373 0.0
O433 O 0.79401 0.69875 0.72221 0.0
O434 O 0.78557 0.68489 0.5331 0.0
H435 H 0.75668 0.74675 0.31482 0.0
H436 H 0.785 0.74907 0.24942 0.0
C437 C 0.77182 0.74182 0.32745 0.0
H438 H 0.76256 0.72083 0.3305 0.0
H439 H 0.76847 0.68546 0.26027 0.0
O440 O 0.81142 0.74262 0.8952 0.0
C441 C 0.78313 0.6807 0.6466 0.0
Co442 Co 0.2661 0.07998 0.72133 0.0
Co443 Co 0.28391 0.09016 0.4521 0.0
C444 C 0.26445 0.12088 0.58955 0.0
O445 O 0.25858 0.10753 0.68554 0.0
O446 O 0.27418 0.11592 0.49899 0.0
C447 C 0.26277 0.08534 0.97195 0.0
O448 O 0.26289 0.10616 0.93886 0.0
C449 C 0.26783 0.08845 0.20187 0.0
C450 C 0.29781 0.08619 0.09959 0.0
C451 C 0.27479 0.08553 0.08704 0.0
N452 N 0.28567 0.09026 0.28008 0.0
N453 N 0.30364 0.08907 0.21815 0.0
C454 C 0.24316 0.08652 0.23702 0.0
H455 H 0.24232 0.08917 0.33552 0.0
H456 H 0.22729 0.06747 0.21114 0.0
H457 H 0.24056 0.10084 0.18638 0.0
C458 C 0.23258 0.0277 0.61968 0.0
N459 N 0.25023 0.05254 0.60945 0.0
N460 N 0.25976 0.05673 0.49992 0.0
C461 C 0.24971 0.03457 0.43917 0.0
C462 C 0.23164 0.01535 0.5115 0.0
C463 C 0.21717 0.01634 0.73144 0.0
H464 H 0.21107 0.02941 0.76866 0.0
H465 H 0.20025 0.99749 0.71272 0.0
H466 H 0.22919 0.01429 0.80104 0.0
O467 O 0.30376 0.09554 0.71794 0.0
O468 O 0.31748 0.10107 0.52856 0.0
H469 H 0.25692 0.01145 0.31432 0.0
H470 H 0.2523 0.03588 0.24626 0.0
C471 C 0.2607 0.03122 0.3243 0.0
H472 H 0.28157 0.04414 0.3238 0.0
H473 H 0.3194 0.08934 0.25737 0.0
O474 O 0.26017 0.06917 0.89227 0.0
C475 C 0.32174 0.10266 0.64201 0.0
Co476 Co 0.92366 0.18729 0.72447 0.0
Co477 Co 0.91368 0.19504 0.45511 0.0
C478 C 0.88304 0.14471 0.59243 0.0
O479 O 0.89625 0.15213 0.68883 0.0
O480 O 0.88802 0.15953 0.50223 0.0
C481 C 0.91865 0.17845 0.97552 0.0
O482 O 0.89798 0.15752 0.94332 0.0
C483 C 0.91511 0.18029 0.20561 0.0
C484 C 0.91837 0.21291 0.10226 0.0
C485 C 0.91846 0.19026 0.0905 0.0
N486 N 0.91363 0.19659 0.28304 0.0
N487 N 0.91539 0.21596 0.22047 0.0
C488 C 0.9167 0.15744 0.24289 0.0
H489 H 0.90328 0.1473 0.31744 0.0
H490 H 0.9362 0.16379 0.27674 0.0
H491 H 0.91271 0.1443 0.16575 0.0
C492 C 0.97593 0.20581 0.62339 0.0
N493 N 0.95117 0.19889 0.61301 0.0
N494 N 0.94709 0.20433 0.50337 0.0
C495 C 0.96927 0.21626 0.44269 0.0
C496 C 0.98837 0.21715 0.51519 0.0
C497 C 0.98714 0.20151 0.73522 0.0
H498 H 0.97387 0.18237 0.7725 0.0
H499 H 0.00588 0.20318 0.71654 0.0
H500 H 0.9894 0.21564 0.80472 0.0
O501 O 0.90796 0.20932 0.72056 0.0
O502 O 0.90264 0.21761 0.53085 0.0
H503 H 0.99265 0.24643 0.31733 0.0
H504 H 0.96793 0.2175 0.24974 0.0
C505 C 0.97279 0.23062 0.32753 0.0
H506 H 0.96009 0.23882 0.32683 0.0
H507 H 0.91548 0.23167 0.25908 0.0
O508 O 0.93456 0.19219 0.89518 0.0
C509 C 0.9009 0.22021 0.64421 0.0
Co510 Co 0.07058 0.48179 0.94294 0.0
Co511 Co 0.05243 0.47359 0.21206 0.0
C512 C 0.073 0.52433 0.07708 0.0
O513 O 0.07855 0.5169 0.98021 0.0
O514 O 0.06305 0.50944 0.16704 0.0
C515 C 0.07296 0.49023 0.69217 0.0
O516 O 0.07142 0.51015 0.72529 0.0
C517 C 0.06696 0.4886 0.46206 0.0
C518 C 0.04042 0.45414 0.56383 0.0
C519 C 0.06155 0.47811 0.5766 0.0
N520 N 0.05021 0.47135 0.38409 0.0
N521 N 0.03415 0.4509 0.44578 0.0
C522 C 0.08867 0.51387 0.42533 0.0
H523 H 0.08104 0.52618 0.39515 0.0
H524 H 0.0987 0.51139 0.34737 0.0
H525 H 0.1022 0.52326 0.50101 0.0
C526 C 0.10413 0.463 0.04511 0.0
N527 N 0.08621 0.46983 0.05489 0.0
N528 N 0.07655 0.46423 0.1642 0.0
C529 C 0.08682 0.4523 0.22509 0.0
C530 C 0.10513 0.45156 0.15324 0.0
C531 C 0.11973 0.46738 0.93375 0.0
H532 H 0.12595 0.48669 0.89771 0.0
H533 H 0.13657 0.46532 0.95252 0.0
H534 H 0.1078 0.45355 0.86323 0.0
O535 O 0.03285 0.45994 0.94476 0.0
O536 O 0.01898 0.4515 0.13386 0.0
H537 H 0.08082 0.42256 0.35209 0.0
H538 H 0.08315 0.45089 0.41752 0.0
C539 C 0.07589 0.43771 0.33948 0.0
H540 H 0.0549 0.42846 0.33643 0.0
H541 H 0.01954 0.43439 0.40671 0.0
O542 O 0.07673 0.47734 0.77179 0.0
C543 C 0.01479 0.44906 0.02036 0.0
Co544 Co 0.52142 0.58957 0.94251 0.0
Co545 Co 0.5292 0.57961 0.21187 0.0
C546 C 0.47884 0.54898 0.07474 0.0
O547 O 0.48625 0.56217 0.97827 0.0
O548 O 0.49367 0.55397 0.16491 0.0
C549 C 0.5126 0.58454 0.69143 0.0
O550 O 0.49169 0.56385 0.7236 0.0
C551 C 0.51447 0.58105 0.46132 0.0
C552 C 0.54709 0.58431 0.56473 0.0
C553 C 0.52443 0.58439 0.57646 0.0
N554 N 0.53078 0.57958 0.38393 0.0
N555 N 0.55015 0.58134 0.44652 0.0
C556 C 0.49161 0.58262 0.42392 0.0
H557 H 0.48128 0.56889 0.3507 0.0
H558 H 0.49798 0.60197 0.38805 0.0
H559 H 0.47865 0.57902 0.5014 0.0
C560 C 0.53997 0.64185 0.04351 0.0
N561 N 0.53305 0.61708 0.05393 0.0
N562 N 0.53851 0.61302 0.16356 0.0
C563 C 0.55045 0.63521 0.2242 0.0
C564 C 0.55133 0.65429 0.15165 0.0
C565 C 0.53564 0.65304 0.93171 0.0
H566 H 0.51651 0.63975 0.89443 0.0
H567 H 0.53729 0.67176 0.95041 0.0
H568 H 0.54978 0.65532 0.86219 0.0
O569 O 0.54344 0.57385 0.94634 0.0
O570 O 0.55175 0.56854 0.13604 0.0
H571 H 0.58061 0.65859 0.34956 0.0
H572 H 0.55169 0.63387 0.41715 0.0
C573 C 0.56481 0.63873 0.33937 0.0
H574 H 0.57301 0.62604 0.34007 0.0
H575 H 0.56587 0.58144 0.40793 0.0
O576 O 0.52631 0.60046 0.77179 0.0
C577 C 0.55432 0.56678 0.02268 0.0
Co578 Co 0.41408 0.93203 0.94622 0.0
Co579 Co 0.42427 0.94984 0.21546 0.0
C580 C 0.45497 0.93036 0.07799 0.0
O581 O 0.44163 0.9245 0.98199 0.0
O582 O 0.45001 0.94008 0.16857 0.0
C583 C 0.41941 0.92866 0.69556 0.0
O584 O 0.4402 0.92871 0.72857 0.0
C585 C 0.42253 0.93374 0.46565 0.0
C586 C 0.42029 0.96371 0.56798 0.0
C587 C 0.41962 0.94069 0.58049 0.0
N588 N 0.42436 0.95159 0.38747 0.0
N589 N 0.42317 0.96956 0.44943 0.0
C590 C 0.42059 0.90907 0.43045 0.0
H591 H 0.42312 0.90818 0.33186 0.0
H592 H 0.40159 0.8932 0.4569 0.0
H593 H 0.435 0.90653 0.4806 0.0
C594 C 0.36179 0.89854 0.04783 0.0
N595 N 0.38664 0.91618 0.05809 0.0
N596 N 0.39083 0.9257 0.16763 0.0
C597 C 0.36866 0.91566 0.22836 0.0
C598 C 0.34944 0.89761 0.15595 0.0
C599 C 0.35043 0.88313 0.93606 0.0
H600 H 0.36351 0.87703 0.89882 0.0
H601 H 0.33158 0.86621 0.95478 0.0
H602 H 0.34838 0.89515 0.86648 0.0
O603 O 0.42964 0.96969 0.94962 0.0
O604 O 0.43519 0.9834 0.13901 0.0
H605 H 0.34555 0.92286 0.35323 0.0
H606 H 0.36997 0.91823 0.42127 0.0
C607 C 0.36531 0.92664 0.34325 0.0
H608 H 0.37824 0.94751 0.34378 0.0
H609 H 0.42346 0.98533 0.41024 0.0
O610 O 0.40326 0.92611 0.77529 0.0
C611 C 0.43677 0.98767 0.02556 0.0
Co612 Co 0.52191 0.9331 0.94313 0.0
Co613 Co 0.53009 0.95126 0.21223 0.0
C614 C 0.47935 0.93068 0.07714 0.0
O615 O 0.48679 0.92513 0.98031 0.0
O616 O 0.49423 0.94063 0.16714 0.0
C617 C 0.51346 0.9307 0.69235 0.0
O618 O 0.49352 0.93221 0.72547 0.0
C619 C 0.51508 0.93672 0.46224 0.0
C620 C 0.54954 0.96328 0.56402 0.0
C621 C 0.52557 0.94213 0.57678 0.0
N622 N 0.53231 0.95348 0.38428 0.0
N623 N 0.55276 0.96955 0.44597 0.0
C624 C 0.48982 0.91499 0.42548 0.0
H625 H 0.47749 0.92259 0.39517 0.0
H626 H 0.49233 0.90495 0.34761 0.0
H627 H 0.48043 0.90147 0.50119 0.0
C628 C 0.54071 0.89956 0.04548 0.0
N629 N 0.53387 0.91748 0.05516 0.0
N630 N 0.53947 0.92714 0.16447 0.0
C631 C 0.55139 0.91687 0.22546 0.0
C632 C 0.55213 0.89856 0.15368 0.0
C633 C 0.53634 0.88396 0.93416 0.0
H634 H 0.51704 0.87774 0.89803 0.0
H635 H 0.5384 0.86711 0.953 0.0
H636 H 0.55019 0.89588 0.86367 0.0
O637 O 0.54376 0.97084 0.94492 0.0
O638 O 0.55218 0.98471 0.134 0.0
H639 H 0.58111 0.92288 0.35256 0.0
H640 H 0.55277 0.92054 0.41788 0.0
C641 C 0.56597 0.9278 0.33988 0.0
H642 H 0.57521 0.94879 0.33684 0.0
H643 H 0.56927 0.98417 0.4069 0.0
O644 O 0.52637 0.92696 0.77196 0.0
C645 C 0.55463 0.9889 0.02049 0.0
Co646 Co 0.07168 0.5896 0.94641 0.0
Co647 Co 0.05385 0.57939 0.21563 0.0
C648 C 0.07333 0.54871 0.07803 0.0
O649 O 0.07919 0.56205 0.98205 0.0
O650 O 0.06359 0.55365 0.16862 0.0
C651 C 0.07508 0.5843 0.69571 0.0
O652 O 0.07509 0.56354 0.72867 0.0
C653 C 0.06996 0.58112 0.46581 0.0
C654 C 0.04001 0.5834 0.56818 0.0
C655 C 0.06303 0.58406 0.58065 0.0
N656 N 0.0521 0.57928 0.38766 0.0
N657 N 0.03414 0.5805 0.44965 0.0
C658 C 0.09463 0.58306 0.43056 0.0
H659 H 0.09549 0.58048 0.332 0.0
H660 H 0.1105 0.60208 0.45676 0.0
H661 H 0.09719 0.56869 0.48089 0.0
C662 C 0.10526 0.64183 0.04833 0.0
N663 N 0.08757 0.61701 0.05843 0.0
N664 N 0.07801 0.61282 0.16791 0.0
C665 C 0.08808 0.63498 0.22872 0.0
C666 C 0.10617 0.65419 0.15643 0.0
C667 C 0.12071 0.65318 0.93664 0.0
H668 H 0.12699 0.6402 0.90014 0.0
H669 H 0.13753 0.67213 0.95519 0.0
H670 H 0.10866 0.65505 0.86653 0.0
O671 O 0.03401 0.57404 0.94979 0.0
O672 O 0.02028 0.56848 0.13914 0.0
H673 H 0.08086 0.65811 0.35345 0.0
H674 H 0.0855 0.6337 0.42162 0.0
C675 C 0.07709 0.63835 0.34355 0.0
H676 H 0.05622 0.62541 0.34408 0.0
H677 H 0.01837 0.58022 0.41048 0.0
O678 O 0.0776 0.60043 0.77548 0.0
C679 C 0.01602 0.56691 0.02567 0.0
Co680 Co 0.41414 0.48214 0.94229 0.0
Co681 Co 0.42404 0.47427 0.21185 0.0
C682 C 0.45461 0.52475 0.07518 0.0
O683 O 0.44151 0.51719 0.97852 0.0
O684 O 0.44958 0.51007 0.16616 0.0
C685 C 0.41999 0.49055 0.69164 0.0
O686 O 0.4413 0.51073 0.72452 0.0
C687 C 0.42399 0.48895 0.46173 0.0
C688 C 0.41727 0.45484 0.56339 0.0
C689 C 0.4194 0.47852 0.57623 0.0
N690 N 0.42396 0.47199 0.38365 0.0
N691 N 0.42023 0.45173 0.4452 0.0
C692 C 0.42678 0.51393 0.42555 0.0
H693 H 0.44722 0.52765 0.41068 0.0
H694 H 0.41659 0.51186 0.33921 0.0
H695 H 0.41948 0.52147 0.49676 0.0
C696 C 0.36186 0.46369 0.04279 0.0
N697 N 0.38659 0.47051 0.05351 0.0
N698 N 0.39058 0.46498 0.16319 0.0
C699 C 0.36834 0.4531 0.22351 0.0
C700 C 0.34934 0.45234 0.15076 0.0
C701 C 0.35076 0.46808 0.93083 0.0
H702 H 0.3641 0.48722 0.89371 0.0
H703 H 0.33204 0.46648 0.94926 0.0
H704 H 0.34848 0.45395 0.86131 0.0
O705 O 0.42975 0.4601 0.9459 0.0
O706 O 0.43517 0.45193 0.13559 0.0
H707 H 0.34459 0.42331 0.34997 0.0
H708 H 0.37031 0.4518 0.41619 0.0
C709 C 0.36463 0.4386 0.3383 0.0
H710 H 0.37659 0.42958 0.33676 0.0
H711 H 0.41879 0.43544 0.40597 0.0
O712 O 0.40349 0.47749 0.77129 0.0
C713 C 0.43685 0.44927 0.02235 0.0
Co714 Co 0.26719 0.18782 0.72434 0.0
Co715 Co 0.28536 0.19599 0.45524 0.0
C716 C 0.26478 0.14526 0.59037 0.0
O717 O 0.25923 0.15271 0.68719 0.0
O718 O 0.27473 0.16013 0.50036 0.0
C719 C 0.26479 0.17937 0.97513 0.0
O720 O 0.26628 0.15942 0.94199 0.0
C721 C 0.27083 0.18097 0.20523 0.0
C722 C 0.29738 0.21543 0.10346 0.0
C723 C 0.27623 0.19146 0.09069 0.0
N724 N 0.28759 0.19821 0.28319 0.0
N725 N 0.30365 0.21866 0.2215 0.0
C726 C 0.24911 0.15571 0.24198 0.0
H727 H 0.25671 0.14338 0.27203 0.0
H728 H 0.23909 0.1582 0.32002 0.0
H729 H 0.23556 0.14635 0.16634 0.0
C730 C 0.23365 0.20661 0.62186 0.0
N731 N 0.25157 0.19978 0.61226 0.0
N732 N 0.26124 0.20536 0.50296 0.0
C733 C 0.25096 0.21728 0.44191 0.0
C734 C 0.23262 0.218 0.51358 0.0
C735 C 0.21804 0.20226 0.73316 0.0
H736 H 0.21181 0.18295 0.76931 0.0
H737 H 0.2012 0.20433 0.71429 0.0
H738 H 0.22997 0.2161 0.80365 0.0
O739 O 0.30493 0.20968 0.72257 0.0
O740 O 0.31881 0.21809 0.5335 0.0
H741 H 0.25699 0.247 0.3148 0.0
H742 H 0.25466 0.21867 0.2495 0.0
C743 C 0.26191 0.23186 0.32751 0.0
H744 H 0.2829 0.2411 0.33063 0.0
H745 H 0.31827 0.23516 0.26057 0.0
O746 O 0.26106 0.19228 0.89553 0.0
C747 C 0.323 0.22054 0.64701 0.0
Co748 Co 0.8162 0.08005 0.72508 0.0
Co749 Co 0.8083 0.08994 0.45552 0.0
C750 C 0.8588 0.12049 0.5921 0.0
O751 O 0.85125 0.10741 0.68878 0.0
O752 O 0.8441 0.11547 0.50118 0.0
C753 C 0.82461 0.08593 0.97571 0.0
O754 O 0.84476 0.10726 0.94278 0.0
C755 C 0.82302 0.08998 0.20562 0.0
C756 C 0.78885 0.08309 0.104 0.0
C757 C 0.81257 0.08533 0.09114 0.0
N758 N 0.80602 0.08987 0.28371 0.0
N759 N 0.78573 0.08605 0.22218 0.0
C760 C 0.84807 0.09292 0.24179 0.0
H761 H 0.86165 0.11336 0.25771 0.0
H762 H 0.846 0.08257 0.32762 0.0
H763 H 0.85579 0.08588 0.17019 0.0
C764 C 0.79775 0.02777 0.62452 0.0
N765 N 0.80454 0.0525 0.61386 0.0
N766 N 0.79902 0.05649 0.50419 0.0
C767 C 0.78716 0.03425 0.44383 0.0
C768 C 0.78643 0.01526 0.51649 0.0
C769 C 0.80215 0.01668 0.73646 0.0
H770 H 0.82129 0.03002 0.77356 0.0
H771 H 0.80055 0.99796 0.71801 0.0
H772 H 0.78802 0.01439 0.80601 0.0
O773 O 0.79417 0.09568 0.72151 0.0
O774 O 0.78597 0.10108 0.53184 0.0
H775 H 0.75738 0.01048 0.3173 0.0
H776 H 0.78584 0.03625 0.25117 0.0
C777 C 0.77264 0.03053 0.32906 0.0
H778 H 0.76358 0.04245 0.33072 0.0
H779 H 0.76941 0.08454 0.26142 0.0
O780 O 0.81157 0.06941 0.89609 0.0
C781 C 0.78333 0.10278 0.64508 0.0
Co782 Co 0.92369 0.73758 0.72057 0.0
Co783 Co 0.91347 0.71975 0.45135 0.0
C784 C 0.88278 0.73922 0.58899 0.0
O785 O 0.89613 0.74509 0.68495 0.0
O786 O 0.88772 0.72948 0.4984 0.0
C787 C 0.91839 0.74098 0.97126 0.0
O788 O 0.89762 0.74099 0.93827 0.0
C789 C 0.9152 0.73586 0.20116 0.0
C790 C 0.91748 0.70591 0.09879 0.0
C791 C 0.91815 0.72893 0.08632 0.0
N792 N 0.91336 0.718 0.27931 0.0
N793 N 0.91457 0.70005 0.21732 0.0
C794 C 0.91714 0.76052 0.2364 0.0
H795 H 0.91444 0.76134 0.33488 0.0
H796 H 0.9362 0.77639 0.21076 0.0
H797 H 0.90285 0.76316 0.18563 0.0
C798 C 0.97593 0.77117 0.61857 0.0
N799 N 0.9511 0.75347 0.60851 0.0
N800 N 0.94691 0.74392 0.49904 0.0
C801 C 0.96906 0.75399 0.43819 0.0
C802 C 0.98827 0.7721 0.5104 0.0
C803 C 0.98729 0.78663 0.73025 0.0
H804 H 0.97431 0.79293 0.76668 0.0
H805 H 0.00624 0.80342 0.71172 0.0
H806 H 0.98912 0.77457 0.8004 0.0
O807 O 0.90814 0.69992 0.71719 0.0
O808 O 0.90258 0.68619 0.52784 0.0
H809 H 0.99219 0.74676 0.31349 0.0
H810 H 0.96778 0.7514 0.2453 0.0
C811 C 0.97242 0.74299 0.32338 0.0
H812 H 0.95949 0.72212 0.32288 0.0
H813 H 0.9143 0.68428 0.25649 0.0
O814 O 0.93452 0.74351 0.8915 0.0
C815 C 0.90101 0.68193 0.64131 0.0
Co816 Co 0.48253 0.06981 0.05758 0.0
Co817 Co 0.47433 0.05166 0.78845 0.0
C818 C 0.52507 0.07222 0.9235 0.0
O819 O 0.51763 0.07778 0.02035 0.0
O820 O 0.51019 0.06228 0.83351 0.0
C821 C 0.49097 0.07221 0.30836 0.0
O822 O 0.51092 0.07069 0.27527 0.0
C823 C 0.48935 0.0662 0.53847 0.0
C824 C 0.45489 0.03965 0.43668 0.0
C825 C 0.47886 0.06079 0.42392 0.0
N826 N 0.47211 0.04945 0.61642 0.0
N827 N 0.45165 0.03339 0.55473 0.0
C828 C 0.51462 0.08791 0.57522 0.0
H829 H 0.52693 0.0803 0.60544 0.0
H830 H 0.51213 0.09795 0.65314 0.0
H831 H 0.524 0.10144 0.49953 0.0
C832 C 0.46375 0.10336 0.95538 0.0
N833 N 0.47058 0.08544 0.94561 0.0
N834 N 0.46497 0.07578 0.8363 0.0
C835 C 0.45305 0.08606 0.77538 0.0
C836 C 0.45232 0.10437 0.84723 0.0
C837 C 0.46813 0.11896 0.06673 0.0
H838 H 0.48745 0.12518 0.10278 0.0
H839 H 0.46608 0.13581 0.04795 0.0
H840 H 0.4543 0.10703 0.13725 0.0
O841 O 0.46067 0.03208 0.05573 0.0
O842 O 0.45224 0.01822 0.86663 0.0
H843 H 0.42332 0.08006 0.64836 0.0
H844 H 0.45165 0.08239 0.58296 0.0
C845 C 0.43846 0.07514 0.66098 0.0
H846 H 0.42922 0.05414 0.664 0.0
H847 H 0.43514 0.01877 0.5938 0.0
O848 O 0.47807 0.07595 0.22873 0.0
C849 C 0.4498 0.01402 0.98013 0.0
Co850 Co 0.93279 0.41331 0.05424 0.0
Co851 Co 0.9506 0.42352 0.785 0.0
C852 C 0.93111 0.45421 0.92254 0.0
O853 O 0.92525 0.44086 0.01851 0.0
O854 O 0.94084 0.44926 0.83194 0.0
C855 C 0.9294 0.41863 0.30492 0.0
O856 O 0.9294 0.4394 0.27193 0.0
C857 C 0.93449 0.42178 0.53483 0.0
C858 C 0.96447 0.41955 0.43248 0.0
C859 C 0.94144 0.41886 0.41999 0.0
N860 N 0.95235 0.42362 0.61299 0.0
N861 N 0.97032 0.42244 0.55102 0.0
C862 C 0.90982 0.41983 0.57005 0.0
H863 H 0.90893 0.42236 0.66864 0.0
H864 H 0.89395 0.40083 0.54361 0.0
H865 H 0.90727 0.43424 0.51989 0.0
C866 C 0.89932 0.36103 0.95259 0.0
N867 N 0.91694 0.38588 0.94234 0.0
N868 N 0.92647 0.39008 0.83281 0.0
C869 C 0.91644 0.36791 0.77206 0.0
C870 C 0.8984 0.34869 0.84446 0.0
C871 C 0.88391 0.34966 0.06437 0.0
H872 H 0.8778 0.36272 0.10163 0.0
H873 H 0.867 0.3308 0.04565 0.0
H874 H 0.89595 0.34762 0.13393 0.0
O875 O 0.97045 0.42889 0.05084 0.0
O876 O 0.98417 0.43445 0.86145 0.0
H877 H 0.92366 0.34482 0.64715 0.0
H878 H 0.91902 0.36924 0.57916 0.0
C879 C 0.92743 0.36458 0.65716 0.0
H880 H 0.9483 0.37752 0.65665 0.0
H881 H 0.98609 0.42272 0.5902 0.0
O882 O 0.92687 0.4025 0.22517 0.0
C883 C 0.98843 0.43602 0.97491 0.0
Co884 Co 0.59032 0.52068 0.0582 0.0
Co885 Co 0.58037 0.52847 0.78885 0.0
C886 C 0.54975 0.4781 0.92587 0.0
O887 O 0.56293 0.48551 0.02238 0.0
O888 O 0.55474 0.49293 0.83571 0.0
C889 C 0.58529 0.51187 0.3093 0.0
O890 O 0.56458 0.49097 0.27712 0.0
C891 C 0.58182 0.51375 0.53942 0.0
C892 C 0.58507 0.54636 0.43598 0.0
C893 C 0.58515 0.52371 0.42426 0.0
N894 N 0.58034 0.53006 0.61679 0.0
N895 N 0.5821 0.54943 0.55419 0.0
C896 C 0.58337 0.49089 0.57686 0.0
H897 H 0.56949 0.48046 0.6494 0.0
H898 H 0.60265 0.49727 0.61375 0.0
H899 H 0.57997 0.47802 0.49924 0.0
C900 C 0.6426 0.53923 0.95722 0.0
N901 N 0.61784 0.53232 0.9468 0.0
N902 N 0.61377 0.53778 0.83718 0.0
C903 C 0.63597 0.54972 0.77654 0.0
C904 C 0.65505 0.5506 0.84909 0.0
C905 C 0.65379 0.5349 0.06901 0.0
H906 H 0.6405 0.51576 0.10628 0.0
H907 H 0.67252 0.53655 0.05031 0.0
H908 H 0.65608 0.54904 0.13855 0.0
O909 O 0.5746 0.54269 0.05441 0.0
O910 O 0.56929 0.551 0.86472 0.0
H911 H 0.65936 0.57988 0.65121 0.0
H912 H 0.63463 0.55097 0.5836 0.0
C913 C 0.6395 0.56408 0.66139 0.0
H914 H 0.6268 0.57229 0.6607 0.0
H915 H 0.5822 0.56515 0.59276 0.0
O916 O 0.60121 0.52556 0.22893 0.0
C917 C 0.56753 0.55358 0.97808 0.0
Co918 Co 0.73723 0.81512 0.27669 0.0
Co919 Co 0.71909 0.80691 0.54582 0.0
C920 C 0.73965 0.85765 0.41083 0.0
O921 O 0.7452 0.85022 0.31396 0.0
O922 O 0.72971 0.84276 0.5008 0.0
C923 C 0.73962 0.82355 0.02592 0.0
O924 O 0.73807 0.84348 0.05903 0.0
C925 C 0.73361 0.82193 0.79582 0.0
C926 C 0.70709 0.78745 0.89758 0.0
C927 C 0.72821 0.81144 0.91035 0.0
N928 N 0.71687 0.80468 0.71785 0.0
N929 N 0.70082 0.78422 0.77952 0.0
C930 C 0.7553 0.84721 0.75911 0.0
H931 H 0.74766 0.85953 0.72921 0.0
H932 H 0.76532 0.84476 0.68098 0.0
H933 H 0.76885 0.85658 0.83473 0.0
C934 C 0.77079 0.79634 0.37882 0.0
N935 N 0.75287 0.80317 0.38862 0.0
N936 N 0.74322 0.79756 0.49794 0.0
C937 C 0.7535 0.78564 0.55882 0.0
C938 C 0.77181 0.78491 0.48695 0.0
C939 C 0.78639 0.80073 0.26745 0.0
H940 H 0.79261 0.82004 0.23141 0.0
H941 H 0.80324 0.79867 0.28619 0.0
H942 H 0.77446 0.7869 0.19693 0.0
O943 O 0.6995 0.79325 0.27853 0.0
O944 O 0.68564 0.78481 0.46764 0.0
H945 H 0.74751 0.75592 0.68584 0.0
H946 H 0.74983 0.78423 0.75125 0.0
C947 C 0.74258 0.77105 0.67323 0.0
H948 H 0.72158 0.76179 0.67019 0.0
H949 H 0.68622 0.7677 0.74045 0.0
O950 O 0.74338 0.81067 0.10554 0.0
C951 C 0.68145 0.78237 0.35414 0.0
Co952 Co 0.18808 0.9229 0.27591 0.0
Co953 Co 0.19585 0.91295 0.54527 0.0
C954 C 0.1455 0.88231 0.4081 0.0
O955 O 0.15291 0.8955 0.31165 0.0
O956 O 0.16033 0.8873 0.49829 0.0
C957 C 0.17926 0.91788 0.02482 0.0
O958 O 0.15833 0.8972 0.05699 0.0
C959 C 0.18112 0.91439 0.79471 0.0
C960 C 0.21374 0.91765 0.89813 0.0
C961 C 0.19108 0.91772 0.90985 0.0
N962 N 0.19743 0.91291 0.71732 0.0
N963 N 0.2168 0.91468 0.77991 0.0
C964 C 0.15826 0.91596 0.75733 0.0
H965 H 0.14795 0.90226 0.68398 0.0
H966 H 0.16463 0.93532 0.72165 0.0
H967 H 0.14528 0.91232 0.83477 0.0
C968 C 0.20662 0.97518 0.37688 0.0
N969 N 0.1997 0.95041 0.38732 0.0
N970 N 0.20515 0.94635 0.49695 0.0
C971 C 0.2171 0.96854 0.55758 0.0
C972 C 0.21798 0.98763 0.48501 0.0
C973 C 0.20229 0.98636 0.26507 0.0
H974 H 0.18315 0.97308 0.2278 0.0
H975 H 0.20394 0.00509 0.28375 0.0
H976 H 0.21643 0.98864 0.19555 0.0
O977 O 0.2101 0.90719 0.27977 0.0
O978 O 0.21841 0.90189 0.46947 0.0
H979 H 0.24726 0.99193 0.68294 0.0
H980 H 0.21833 0.96721 0.75053 0.0
C981 C 0.23145 0.97207 0.67276 0.0
H982 H 0.23966 0.95938 0.67348 0.0
H983 H 0.23252 0.91477 0.74133 0.0
O984 O 0.19297 0.9338 0.10519 0.0
C985 C 0.22099 0.90013 0.35612 0.0
Co986 Co 0.08074 0.26534 0.27902 0.0
Co987 Co 0.09091 0.28315 0.54826 0.0
C988 C 0.12164 0.26369 0.41084 0.0
O989 O 0.1083 0.25782 0.31483 0.0
O990 O 0.11667 0.27342 0.50139 0.0
C991 C 0.08611 0.26203 0.02841 0.0
O992 O 0.10695 0.26218 0.06152 0.0
C993 C 0.08919 0.26707 0.79849 0.0
C994 C 0.08694 0.29704 0.90075 0.0
C995 C 0.08628 0.27404 0.91331 0.0
N996 N 0.091 0.28491 0.72027 0.0
N997 N 0.0898 0.30287 0.78218 0.0
C998 C 0.08727 0.24241 0.76336 0.0
H999 H 0.08992 0.24156 0.66486 0.0
H1000 H 0.06823 0.22654 0.78928 0.0
H1001 H 0.10161 0.23982 0.81399 0.0
C1002 C 0.02846 0.23181 0.38059 0.0
N1003 N 0.05329 0.24947 0.39087 0.0
N1004 N 0.05747 0.259 0.5004 0.0
C1005 C 0.0353 0.24894 0.56111 0.0
C1006 C 0.01609 0.23087 0.4887 0.0
C1007 C 0.01712 0.21639 0.26883 0.0
H1008 H 0.03021 0.21031 0.23163 0.0
H1009 H 0.99827 0.19946 0.28755 0.0
H1010 H 0.01505 0.22841 0.19923 0.0
O1011 O 0.09629 0.303 0.28242 0.0
O1012 O 0.10182 0.31671 0.47181 0.0
H1013 H 0.01217 0.25612 0.68596 0.0
H1014 H 0.03661 0.25151 0.75402 0.0
C1015 C 0.03194 0.25991 0.676 0.0
H1016 H 0.04486 0.28078 0.67652 0.0
H1017 H 0.09007 0.31863 0.74296 0.0
O1018 O 0.06993 0.2594 0.10809 0.0
C1019 C 0.1034 0.32098 0.35836 0.0
Co1020 Co 0.18859 0.26644 0.27605 0.0
Co1021 Co 0.19676 0.2846 0.54515 0.0
C1022 C 0.14602 0.26402 0.41002 0.0
O1023 O 0.15347 0.25847 0.3132 0.0
O1024 O 0.1609 0.27397 0.50004 0.0
C1025 C 0.18013 0.26404 0.02526 0.0
O1026 O 0.16018 0.26554 0.05839 0.0
C1027 C 0.18174 0.27007 0.79516 0.0
C1028 C 0.21621 0.29662 0.89693 0.0
C1029 C 0.19223 0.27547 0.90969 0.0
N1030 N 0.19898 0.28683 0.7172 0.0
N1031 N 0.21943 0.30289 0.77888 0.0
C1032 C 0.15647 0.24836 0.75841 0.0
H1033 H 0.14414 0.25597 0.72834 0.0
H1034 H 0.15896 0.23834 0.68039 0.0
H1035 H 0.1471 0.23481 0.83406 0.0
C1036 C 0.20738 0.2329 0.37846 0.0
N1037 N 0.20055 0.25082 0.38811 0.0
N1038 N 0.20614 0.26049 0.49741 0.0
C1039 C 0.21806 0.25021 0.55843 0.0
C1040 C 0.2188 0.2319 0.48667 0.0
C1041 C 0.20301 0.21729 0.26715 0.0
H1042 H 0.18371 0.21107 0.231 0.0
H1043 H 0.20507 0.20045 0.28601 0.0
H1044 H 0.21686 0.22922 0.19666 0.0
O1045 O 0.21044 0.30418 0.27782 0.0
O1046 O 0.21886 0.31806 0.4669 0.0
H1047 H 0.24777 0.25622 0.68555 0.0
H1048 H 0.21944 0.2539 0.75084 0.0
C1049 C 0.23263 0.26115 0.67285 0.0
H1050 H 0.24188 0.28214 0.66977 0.0
H1051 H 0.23594 0.31751 0.73981 0.0
O1052 O 0.19304 0.26031 0.10487 0.0
C1053 C 0.2213 0.32224 0.35339 0.0
Co1054 Co 0.73835 0.92293 0.28021 0.0
Co1055 Co 0.72051 0.91272 0.54943 0.0
C1056 C 0.73999 0.88203 0.4118 0.0
O1057 O 0.74586 0.89538 0.31584 0.0
O1058 O 0.73025 0.88697 0.50238 0.0
C1059 C 0.74175 0.91763 0.02951 0.0
O1060 O 0.74175 0.89686 0.06249 0.0
C1061 C 0.73663 0.91444 0.79961 0.0
C1062 C 0.70668 0.91673 0.90198 0.0
C1063 C 0.7297 0.91739 0.91445 0.0
N1064 N 0.71877 0.91261 0.72146 0.0
N1065 N 0.70081 0.91382 0.78345 0.0
C1066 C 0.76129 0.91638 0.76437 0.0
H1067 H 0.76211 0.91369 0.66589 0.0
H1068 H 0.77716 0.93544 0.79006 0.0
H1069 H 0.76392 0.90209 0.81511 0.0
C1070 C 0.77192 0.97517 0.38214 0.0
N1071 N 0.75424 0.95034 0.39225 0.0
N1072 N 0.74468 0.94615 0.50172 0.0
C1073 C 0.75473 0.96831 0.56252 0.0
C1074 C 0.77282 0.98752 0.49023 0.0
C1075 C 0.78737 0.98653 0.27045 0.0
H1076 H 0.79369 0.97356 0.23405 0.0
H1077 H 0.80416 0.00549 0.28896 0.0
H1078 H 0.77531 0.98835 0.20028 0.0
O1079 O 0.70069 0.90738 0.28358 0.0
O1080 O 0.68695 0.90182 0.47292 0.0
H1081 H 0.7475 0.99143 0.68724 0.0
H1082 H 0.75215 0.96703 0.75542 0.0
C1083 C 0.74374 0.97167 0.67734 0.0
H1084 H 0.72287 0.95873 0.67785 0.0
H1085 H 0.68505 0.91355 0.74428 0.0
O1086 O 0.74428 0.93376 0.10927 0.0
C1087 C 0.68269 0.90024 0.35945 0.0
Co1088 Co 0.08081 0.81547 0.27562 0.0
Co1089 Co 0.09071 0.80759 0.54518 0.0
C1090 C 0.12127 0.85808 0.40853 0.0
O1091 O 0.10818 0.85052 0.31186 0.0
O1092 O 0.11625 0.84339 0.49949 0.0
C1093 C 0.08665 0.82389 0.02496 0.0
O1094 O 0.10795 0.84407 0.05781 0.0
C1095 C 0.09066 0.82228 0.79506 0.0
C1096 C 0.08393 0.78817 0.89673 0.0
C1097 C 0.08607 0.81185 0.90955 0.0
N1098 N 0.09063 0.80532 0.71699 0.0
N1099 N 0.08689 0.78506 0.77854 0.0
C1100 C 0.09346 0.84726 0.75885 0.0
H1101 H 0.11391 0.86097 0.74378 0.0
H1102 H 0.08325 0.84518 0.67259 0.0
H1103 H 0.0862 0.85484 0.83012 0.0
C1104 C 0.02853 0.79702 0.37616 0.0
N1105 N 0.05326 0.80383 0.38685 0.0
N1106 N 0.05725 0.7983 0.49652 0.0
C1107 C 0.03501 0.78643 0.55686 0.0
C1108 C 0.01601 0.78567 0.48413 0.0
C1109 C 0.01743 0.80141 0.26421 0.0
H1110 H 0.03077 0.82054 0.22709 0.0
H1111 H 0.99871 0.79981 0.28266 0.0
H1112 H 0.01514 0.78727 0.19468 0.0
O1113 O 0.09643 0.79343 0.27922 0.0
O1114 O 0.10184 0.78525 0.46891 0.0
H1115 H 0.01126 0.75663 0.68331 0.0
H1116 H 0.03698 0.78511 0.74953 0.0
C1117 C 0.0313 0.77192 0.67164 0.0
H1118 H 0.04326 0.76289 0.67007 0.0
H1119 H 0.08545 0.76876 0.73932 0.0
O1120 O 0.07015 0.81082 0.10463 0.0
C1121 C 0.10353 0.7826 0.35566 0.0
Co1122 Co 0.93386 0.52114 0.0575 0.0
Co1123 Co 0.95202 0.52933 0.7884 0.0
C1124 C 0.93144 0.47859 0.92343 0.0
O1125 O 0.92589 0.48603 0.02029 0.0
O1126 O 0.94139 0.49347 0.83346 0.0
C1127 C 0.93148 0.5127 0.30828 0.0
O1128 O 0.93302 0.49278 0.27514 0.0
C1129 C 0.93749 0.51432 0.53839 0.0
C1130 C 0.96404 0.54878 0.43662 0.0
C1131 C 0.9429 0.52481 0.42385 0.0
N1132 N 0.95424 0.53156 0.61636 0.0
N1133 N 0.97031 0.55201 0.55467 0.0
C1134 C 0.91577 0.48906 0.57513 0.0
H1135 H 0.92338 0.47674 0.60537 0.0
H1136 H 0.90573 0.49155 0.65304 0.0
H1137 H 0.90224 0.47968 0.49943 0.0
C1138 C 0.90032 0.53995 0.95518 0.0
N1139 N 0.91824 0.53311 0.94548 0.0
N1140 N 0.9279 0.53871 0.83618 0.0
C1141 C 0.91763 0.55063 0.77521 0.0
C1142 C 0.89931 0.55137 0.847 0.0
C1143 C 0.88471 0.53558 0.06651 0.0
H1144 H 0.87849 0.51627 0.10262 0.0
H1145 H 0.86787 0.53764 0.04768 0.0
H1146 H 0.89664 0.54942 0.13701 0.0
O1147 O 0.9716 0.543 0.05574 0.0
O1148 O 0.98547 0.55143 0.86666 0.0
H1149 H 0.92364 0.58035 0.64813 0.0
H1150 H 0.92131 0.55202 0.58279 0.0
C1151 C 0.92856 0.56521 0.6608 0.0
H1152 H 0.94956 0.57446 0.66387 0.0
H1153 H 0.98493 0.56852 0.59374 0.0
O1154 O 0.92772 0.52559 0.22867 0.0
C1155 C 0.98966 0.55387 0.98017 0.0
Co1156 Co 0.48291 0.41337 0.05817 0.0
Co1157 Co 0.47505 0.42327 0.78861 0.0
C1158 C 0.52552 0.45385 0.92536 0.0
O1159 O 0.51796 0.44075 0.02199 0.0
O1160 O 0.51084 0.44882 0.83434 0.0
C1161 C 0.49133 0.41919 0.30886 0.0
O1162 O 0.51155 0.44047 0.27604 0.0
C1163 C 0.48971 0.42317 0.53876 0.0
C1164 C 0.45565 0.41656 0.43704 0.0
C1165 C 0.4793 0.41862 0.42424 0.0
N1166 N 0.47277 0.42319 0.61681 0.0
N1167 N 0.45254 0.41952 0.55524 0.0
C1168 C 0.51466 0.42587 0.57498 0.0
H1169 H 0.52846 0.44631 0.58937 0.0
H1170 H 0.51257 0.41576 0.66157 0.0
H1171 H 0.52212 0.41844 0.50397 0.0
C1172 C 0.46446 0.36109 0.95764 0.0
N1173 N 0.47128 0.38583 0.94693 0.0
N1174 N 0.46576 0.38982 0.83725 0.0
C1175 C 0.45388 0.36758 0.77691 0.0
C1176 C 0.45311 0.34858 0.84966 0.0
C1177 C 0.46885 0.34999 0.0696 0.0
H1178 H 0.48798 0.36333 0.10673 0.0
H1179 H 0.46724 0.33128 0.05115 0.0
H1180 H 0.45471 0.34772 0.13911 0.0
O1181 O 0.46086 0.42898 0.05453 0.0
O1182 O 0.4527 0.4344 0.86484 0.0
H1183 H 0.42407 0.34384 0.65048 0.0
H1184 H 0.45257 0.36953 0.58423 0.0
C1185 C 0.43938 0.36388 0.66211 0.0
H1186 H 0.43038 0.37586 0.66359 0.0
H1187 H 0.43626 0.41812 0.59445 0.0
O1188 O 0.47825 0.40271 0.22916 0.0
C1189 C 0.45004 0.43608 0.97808 0.0
Co1190 Co 0.59035 0.0709 0.05427 0.0
Co1191 Co 0.58014 0.05308 0.78504 0.0
C1192 C 0.54945 0.07255 0.92259 0.0
O1193 O 0.56279 0.07841 0.01859 0.0
O1194 O 0.5544 0.06282 0.83201 0.0
C1195 C 0.58503 0.07429 0.30496 0.0
O1196 O 0.56425 0.07426 0.27198 0.0
C1197 C 0.58187 0.06918 0.53486 0.0
C1198 C 0.58415 0.03923 0.4325 0.0
C1199 C 0.58481 0.06225 0.42002 0.0
N1200 N 0.58004 0.05133 0.61302 0.0
N1201 N 0.58126 0.03337 0.55104 0.0
C1202 C 0.58381 0.09384 0.57009 0.0
H1203 H 0.58123 0.09471 0.66865 0.0
H1204 H 0.60283 0.10972 0.5439 0.0
H1205 H 0.56943 0.09641 0.51975 0.0
C1206 C 0.64258 0.1045 0.9524 0.0
N1207 N 0.61776 0.08679 0.94227 0.0
N1208 N 0.61358 0.07724 0.83279 0.0
C1209 C 0.63574 0.08732 0.77199 0.0
C1210 C 0.65494 0.10542 0.84429 0.0
C1211 C 0.65393 0.11995 0.06409 0.0
H1212 H 0.64092 0.1262 0.10063 0.0
H1213 H 0.67286 0.13677 0.04554 0.0
H1214 H 0.65581 0.1079 0.13417 0.0
O1215 O 0.57479 0.03324 0.0509 0.0
O1216 O 0.56924 0.01951 0.86154 0.0
H1217 H 0.65888 0.08013 0.64727 0.0
H1218 H 0.63446 0.08475 0.57909 0.0
C1219 C 0.63911 0.07634 0.65715 0.0
H1220 H 0.62619 0.05547 0.65661 0.0
H1221 H 0.58098 0.01761 0.59021 0.0
O1222 O 0.60117 0.07684 0.2252 0.0
C1223 C 0.56767 0.01525 0.975 0.0
loop_
_geom_bond_atom_site_label_1
_geom_bond_atom_site_label_2
_geom_bond_distance
_geom_bond_site_symmetry_2
_ccdc_geom_bond_type
Co0 O3 1.970 . S
Co0 N17 1.989 . S
Co0 O25 1.967 . S
Co0 O32 1.920 . S
Co1 O4 1.966 . S
Co1 N10 2.022 1_554 S
Co1 N18 1.993 . S
Co1 O26 1.941 . S
C2 O3 1.258 . S
C2 O4 1.263 . S
O3 Co0 1.970 . S
O3 C2 1.258 . S
O4 Co1 1.966 . S
O4 C2 1.263 . S
C5 O6 1.235 . S
C5 O32 1.289 . S
O6 C5 1.235 . S
C7 C9 1.400 . S
C7 N10 1.351 . S
C7 C12 1.501 . S
C8 C9 1.387 . S
C8 N11 1.341 . S
C9 C7 1.400 . S
C9 C8 1.387 . S
N10 Co1 2.022 1_556 S
N10 C7 1.351 . S
N10 N11 1.365 . S
N11 C8 1.341 . S
N11 N10 1.365 . S
N11 H31 0.862 . S
C12 C7 1.501 . S
C12 H13 0.961 . S
C12 H14 0.961 . S
C12 H15 0.960 . S
H13 C12 0.961 . S
H14 C12 0.961 . S
H15 C12 0.960 . S
C16 N17 1.342 . S
C16 C20 1.401 . S
C16 C21 1.499 . S
N17 Co0 1.989 . S
N17 C16 1.342 . S
N17 N18 1.388 . S
N18 Co1 1.993 . S
N18 N17 1.388 . S
N18 C19 1.346 . S
C19 N18 1.346 . S
C19 C20 1.396 . S
C19 C29 1.510 1_554 S
C20 C16 1.401 . S
C20 C19 1.396 . S
C21 C16 1.499 . S
C21 H22 0.959 . S
C21 H23 0.960 . S
C21 H24 0.961 . S
H22 C21 0.959 . S
H23 C21 0.960 . S
H24 C21 0.961 . S
O25 Co0 1.967 . S
O25 C33 1.258 . S
O26 Co1 1.941 . S
O26 C33 1.266 . S
H27 C29 0.959 . S
H28 C29 0.961 . S
C29 C19 1.510 1_556 S
C29 H27 0.959 . S
C29 H28 0.961 . S
C29 H30 0.960 . S
H30 C29 0.960 . S
H31 N11 0.862 . S
O32 Co0 1.920 . S
O32 C5 1.289 . S
C33 O25 1.258 . S
C33 O26 1.266 . S
Co34 O37 1.970 . S
Co34 N51 1.989 . S
Co34 O59 1.967 . S
Co34 O66 1.920 . S
Co35 O38 1.966 . S
Co35 N44 2.022 1_554 S
Co35 N52 1.993 . S
Co35 O60 1.941 . S
C36 O37 1.258 . S
C36 O38 1.263 . S
O37 Co34 1.970 . S
O37 C36 1.258 . S
O38 Co35 1.966 . S
O38 C36 1.263 . S
C39 O40 1.235 . S
C39 O66 1.289 . S
O40 C39 1.235 . S
C41 C43 1.400 . S
C41 N44 1.351 . S
C41 C46 1.501 . S
C42 C43 1.387 . S
C42 N45 1.341 . S
C43 C41 1.400 . S
C43 C42 1.387 . S
N44 Co35 2.022 1_556 S
N44 C41 1.351 . S
N44 N45 1.365 . S
N45 C42 1.341 . S
N45 N44 1.365 . S
N45 H65 0.862 . S
C46 C41 1.501 . S
C46 H47 0.961 . S
C46 H48 0.961 . S
C46 H49 0.960 . S
H47 C46 0.961 . S
H48 C46 0.961 . S
H49 C46 0.960 . S
C50 N51 1.342 . S
C50 C54 1.401 . S
C50 C55 1.499 . S
N51 Co34 1.989 . S
N51 C50 1.342 . S
N51 N52 1.388 . S
N52 Co35 1.993 . S
N52 N51 1.388 . S
N52 C53 1.346 . S
C53 N52 1.346 . S
C53 C54 1.396 . S
C53 C63 1.510 1_554 S
C54 C50 1.401 . S
C54 C53 1.396 . S
C55 C50 1.499 . S
C55 H56 0.959 . S
C55 H57 0.960 . S
C55 H58 0.961 . S
H56 C55 0.959 . S
H57 C55 0.960 . S
H58 C55 0.961 . S
O59 Co34 1.967 . S
O59 C67 1.258 . S
O60 Co35 1.941 . S
O60 C67 1.266 . S
H61 C63 0.959 . S
H62 C63 0.961 . S
C63 C53 1.510 1_556 S
C63 H61 0.959 . S
C63 H62 0.961 . S
C63 H64 0.960 . S
H64 C63 0.960 . S
H65 N45 0.862 . S
O66 Co34 1.920 . S
O66 C39 1.289 . S
C67 O59 1.258 . S
C67 O60 1.266 . S
Co68 O71 1.970 . S
Co68 N85 1.989 . S
Co68 O93 1.967 . S
Co68 O100 1.920 . S
Co69 O72 1.966 . S
Co69 N78 2.022 1_554 S
Co69 N86 1.993 . S
Co69 O94 1.941 . S
C70 O71 1.258 . S
C70 O72 1.263 . S
O71 Co68 1.970 . S
O71 C70 1.258 . S
O72 Co69 1.966 . S
O72 C70 1.263 . S
C73 O74 1.235 . S
C73 O100 1.289 . S
O74 C73 1.235 . S
C75 C77 1.400 . S
C75 N78 1.351 . S
C75 C80 1.501 . S
C76 C77 1.387 . S
C76 N79 1.341 . S
C77 C75 1.400 . S
C77 C76 1.387 . S
N78 Co69 2.022 1_556 S
N78 C75 1.351 . S
N78 N79 1.365 . S
N79 C76 1.341 . S
N79 N78 1.365 . S
N79 H99 0.862 . S
C80 C75 1.501 . S
C80 H81 0.961 . S
C80 H82 0.961 . S
C80 H83 0.960 . S
H81 C80 0.961 . S
H82 C80 0.961 . S
H83 C80 0.960 . S
C84 N85 1.342 . S
C84 C88 1.401 . S
C84 C89 1.499 . S
N85 Co68 1.989 . S
N85 C84 1.342 . S
N85 N86 1.388 . S
N86 Co69 1.993 . S
N86 N85 1.388 . S
N86 C87 1.346 . S
C87 N86 1.346 . S
C87 C88 1.396 . S
C87 C97 1.510 1_554 S
C88 C84 1.401 . S
C88 C87 1.396 . S
C89 C84 1.499 . S
C89 H90 0.959 . S
C89 H91 0.960 . S
C89 H92 0.961 . S
H90 C89 0.959 . S
H91 C89 0.960 . S
H92 C89 0.961 . S
O93 Co68 1.967 . S
O93 C101 1.258 . S
O94 Co69 1.941 . S
O94 C101 1.266 . S
H95 C97 0.959 . S
H96 C97 0.961 . S
C97 C87 1.510 1_556 S
C97 H95 0.959 . S
C97 H96 0.961 . S
C97 H98 0.960 . S
H98 C97 0.960 . S
H99 N79 0.862 . S
O100 Co68 1.920 . S
O100 C73 1.289 . S
C101 O93 1.258 . S
C101 O94 1.266 . S
Co102 O105 1.970 . S
Co102 N119 1.989 . S
Co102 O127 1.967 . S
Co102 O134 1.920 . S
Co103 O106 1.966 . S
Co103 N112 2.022 1_556 S
Co103 N120 1.993 . S
Co103 O128 1.941 . S
C104 O105 1.258 . S
C104 O106 1.263 . S
O105 Co102 1.970 . S
O105 C104 1.258 . S
O106 Co103 1.966 . S
O106 C104 1.263 . S
C107 O108 1.235 . S
C107 O134 1.289 . S
O108 C107 1.235 . S
C109 C111 1.400 . S
C109 N112 1.351 . S
C109 C114 1.501 . S
C110 C111 1.387 . S
C110 N113 1.341 . S
C111 C109 1.400 . S
C111 C110 1.387 . S
N112 Co103 2.022 1_554 S
N112 C109 1.351 . S
N112 N113 1.365 . S
N113 C110 1.341 . S
N113 N112 1.365 . S
N113 H133 0.862 . S
C114 C109 1.501 . S
C114 H115 0.961 . S
C114 H116 0.961 . S
C114 H117 0.960 . S
H115 C114 0.961 . S
H116 C114 0.961 . S
H117 C114 0.960 . S
C118 N119 1.342 . S
C118 C122 1.401 . S
C118 C123 1.499 . S
N119 Co102 1.989 . S
N119 C118 1.342 . S
N119 N120 1.388 . S
N120 Co103 1.993 . S
N120 N119 1.388 . S
N120 C121 1.346 . S
C121 N120 1.346 . S
C121 C122 1.396 . S
C121 C131 1.510 1_556 S
C122 C118 1.401 . S
C122 C121 1.396 . S
C123 C118 1.499 . S
C123 H124 0.959 . S
C123 H125 0.960 . S
C123 H126 0.961 . S
H124 C123 0.959 . S
H125 C123 0.960 . S
H126 C123 0.961 . S
O127 Co102 1.967 . S
O127 C135 1.258 . S
O128 Co103 1.941 . S
O128 C135 1.266 . S
H129 C131 0.959 . S
H130 C131 0.961 . S
C131 C121 1.510 1_554 S
C131 H129 0.959 . S
C131 H130 0.961 . S
C131 H132 0.960 . S
H132 C131 0.960 . S
H133 N113 0.862 . S
O134 Co102 1.920 . S
O134 C107 1.289 . S
C135 O127 1.258 . S
C135 O128 1.266 . S
Co136 O139 1.970 . S
Co136 N153 1.989 . S
Co136 O161 1.967 . S
Co136 O168 1.920 . S
Co137 O140 1.966 . S
Co137 N146 2.022 1_556 S
Co137 N154 1.993 . S
Co137 O162 1.941 . S
C138 O139 1.258 . S
C138 O140 1.263 . S
O139 Co136 1.970 . S
O139 C138 1.258 . S
O140 Co137 1.966 . S
O140 C138 1.263 . S
C141 O142 1.235 . S
C141 O168 1.289 . S
O142 C141 1.235 . S
C143 C145 1.400 . S
C143 N146 1.351 . S
C143 C148 1.501 . S
C144 C145 1.387 . S
C144 N147 1.341 . S
C145 C143 1.400 . S
C145 C144 1.387 . S
N146 Co137 2.022 1_554 S
N146 C143 1.351 . S
N146 N147 1.365 . S
N147 C144 1.341 . S
N147 N146 1.365 . S
N147 H167 0.862 . S
C148 C143 1.501 . S
C148 H149 0.961 . S
C148 H150 0.961 . S
C148 H151 0.960 . S
H149 C148 0.961 . S
H150 C148 0.961 . S
H151 C148 0.960 . S
C152 N153 1.342 . S
C152 C156 1.401 . S
C152 C157 1.499 . S
N153 Co136 1.989 . S
N153 C152 1.342 . S
N153 N154 1.388 . S
N154 Co137 1.993 . S
N154 N153 1.388 . S
N154 C155 1.346 . S
C155 N154 1.346 . S
C155 C156 1.396 . S
C155 C165 1.510 1_556 S
C156 C152 1.401 . S
C156 C155 1.396 . S
C157 C152 1.499 . S
C157 H158 0.959 . S
C157 H159 0.960 . S
C157 H160 0.961 . S
H158 C157 0.959 . S
H159 C157 0.960 . S
H160 C157 0.961 . S
O161 Co136 1.967 . S
O161 C169 1.258 . S
O162 Co137 1.941 . S
O162 C169 1.266 . S
H163 C165 0.959 . S
H164 C165 0.961 . S
C165 C155 1.510 1_554 S
C165 H163 0.959 . S
C165 H164 0.961 . S
C165 H166 0.960 . S
H166 C165 0.960 . S
H167 N147 0.862 . S
O168 Co136 1.920 . S
O168 C141 1.289 . S
C169 O161 1.258 . S
C169 O162 1.266 . S
Co170 O173 1.970 . S
Co170 N187 1.989 . S
Co170 O195 1.967 . S
Co170 O202 1.920 . S
Co171 O174 1.966 . S
Co171 N180 2.022 1_556 S
Co171 N188 1.993 . S
Co171 O196 1.941 . S
C172 O173 1.258 . S
C172 O174 1.263 . S
O173 Co170 1.970 . S
O173 C172 1.258 . S
O174 Co171 1.966 . S
O174 C172 1.263 . S
C175 O176 1.235 . S
C175 O202 1.289 . S
O176 C175 1.235 . S
C177 C179 1.400 . S
C177 N180 1.351 . S
C177 C182 1.501 . S
C178 C179 1.387 . S
C178 N181 1.341 . S
C179 C177 1.400 . S
C179 C178 1.387 . S
N180 Co171 2.022 1_554 S
N180 C177 1.351 . S
N180 N181 1.365 . S
N181 C178 1.341 . S
N181 N180 1.365 . S
N181 H201 0.862 . S
C182 C177 1.501 . S
C182 H183 0.961 . S
C182 H184 0.961 . S
C182 H185 0.960 . S
H183 C182 0.961 . S
H184 C182 0.961 . S
H185 C182 0.960 . S
C186 N187 1.342 . S
C186 C190 1.401 . S
C186 C191 1.499 . S
N187 Co170 1.989 . S
N187 C186 1.342 . S
N187 N188 1.388 . S
N188 Co171 1.993 . S
N188 N187 1.388 . S
N188 C189 1.346 . S
C189 N188 1.346 . S
C189 C190 1.396 . S
C189 C199 1.510 1_556 S
C190 C186 1.401 . S
C190 C189 1.396 . S
C191 C186 1.499 . S
C191 H192 0.959 . S
C191 H193 0.960 . S
C191 H194 0.961 . S
H192 C191 0.959 . S
H193 C191 0.960 . S
H194 C191 0.961 . S
O195 Co170 1.967 . S
O195 C203 1.258 . S
O196 Co171 1.941 . S
O196 C203 1.266 . S
H197 C199 0.959 . S
H198 C199 0.961 . S
C199 C189 1.510 1_554 S
C199 H197 0.959 . S
C199 H198 0.961 . S
C199 H200 0.960 . S
H200 C199 0.960 . S
H201 N181 0.862 . S
O202 Co170 1.920 . S
O202 C175 1.289 . S
C203 O195 1.258 . S
C203 O196 1.266 . S
Co204 O207 1.970 . S
Co204 N221 1.989 . S
Co204 O229 1.967 . S
Co204 O236 1.920 . S
Co205 O208 1.966 . S
Co205 N214 2.022 1_556 S
Co205 N222 1.993 . S
Co205 O230 1.941 . S
C206 O207 1.258 . S
C206 O208 1.263 . S
O207 Co204 1.970 . S
O207 C206 1.258 . S
O208 Co205 1.966 . S
O208 C206 1.263 . S
C209 O210 1.235 . S
C209 O236 1.289 . S
O210 C209 1.235 . S
C211 C213 1.400 . S
C211 N214 1.351 . S
C211 C216 1.501 . S
C212 C213 1.387 . S
C212 N215 1.341 . S
C213 C211 1.400 . S
C213 C212 1.387 . S
N214 Co205 2.022 1_554 S
N214 C211 1.351 . S
N214 N215 1.365 . S
N215 C212 1.341 . S
N215 N214 1.365 . S
N215 H235 0.862 . S
C216 C211 1.501 . S
C216 H217 0.961 . S
C216 H218 0.961 . S
C216 H219 0.960 . S
H217 C216 0.961 . S
H218 C216 0.961 . S
H219 C216 0.960 . S
C220 N221 1.342 . S
C220 C224 1.401 . S
C220 C225 1.499 . S
N221 Co204 1.989 . S
N221 C220 1.342 . S
N221 N222 1.388 . S
N222 Co205 1.993 . S
N222 N221 1.388 . S
N222 C223 1.346 . S
C223 N222 1.346 . S
C223 C224 1.396 . S
C223 C233 1.510 1_556 S
C224 C220 1.401 . S
C224 C223 1.396 . S
C225 C220 1.499 . S
C225 H226 0.959 . S
C225 H227 0.960 . S
C225 H228 0.961 . S
H226 C225 0.959 . S
H227 C225 0.960 . S
H228 C225 0.961 . S
O229 Co204 1.967 . S
O229 C237 1.258 . S
O230 Co205 1.941 . S
O230 C237 1.266 . S
H231 C233 0.959 . S
H232 C233 0.961 . S
C233 C223 1.510 1_554 S
C233 H231 0.959 . S
C233 H232 0.961 . S
C233 H234 0.960 . S
H234 C233 0.960 . S
H235 N215 0.862 . S
O236 Co204 1.920 . S
O236 C209 1.289 . S
C237 O229 1.258 . S
C237 O230 1.266 . S
Co238 O241 1.970 . S
Co238 N255 1.989 . S
Co238 O263 1.967 . S
Co238 O270 1.920 . S
Co239 O242 1.966 . S
Co239 N248 2.022 1_556 S
Co239 N256 1.993 . S
Co239 O264 1.941 . S
C240 O241 1.258 . S
C240 O242 1.263 . S
O241 Co238 1.970 . S
O241 C240 1.258 . S
O242 Co239 1.966 . S
O242 C240 1.263 . S
C243 O244 1.235 . S
C243 O270 1.289 . S
O244 C243 1.235 . S
C245 C247 1.400 . S
C245 N248 1.351 . S
C245 C250 1.501 . S
C246 C247 1.387 . S
C246 N249 1.341 . S
C247 C245 1.400 . S
C247 C246 1.387 . S
N248 Co239 2.022 1_554 S
N248 C245 1.351 . S
N248 N249 1.365 . S
N249 C246 1.341 . S
N249 N248 1.365 . S
N249 H269 0.862 . S
C250 C245 1.501 . S
C250 H251 0.961 . S
C250 H252 0.961 . S
C250 H253 0.960 . S
H251 C250 0.961 . S
H252 C250 0.961 . S
H253 C250 0.960 . S
C254 N255 1.342 . S
C254 C258 1.401 . S
C254 C259 1.499 . S
N255 Co238 1.989 . S
N255 C254 1.342 . S
N255 N256 1.388 . S
N256 Co239 1.993 . S
N256 N255 1.388 . S
N256 C257 1.346 . S
C257 N256 1.346 . S
C257 C258 1.396 . S
C257 C267 1.510 1_556 S
C258 C254 1.401 . S
C258 C257 1.396 . S
C259 C254 1.499 . S
C259 H260 0.959 . S
C259 H261 0.960 . S
C259 H262 0.961 . S
H260 C259 0.959 . S
H261 C259 0.960 . S
H262 C259 0.961 . S
O263 Co238 1.967 . S
O263 C271 1.258 . S
O264 Co239 1.941 . S
O264 C271 1.266 . S
H265 C267 0.959 . S
H266 C267 0.961 . S
C267 C257 1.510 1_554 S
C267 H265 0.959 . S
C267 H266 0.961 . S
C267 H268 0.960 . S
H268 C267 0.960 . S
H269 N249 0.862 . S
O270 Co238 1.920 . S
O270 C243 1.289 . S
C271 O263 1.258 . S
C271 O264 1.266 . S
Co272 O275 1.970 . S
Co272 N289 1.989 . S
Co272 O297 1.967 . S
Co272 O304 1.920 . S
Co273 O276 1.966 . S
Co273 N282 2.022 1_556 S
Co273 N290 1.993 . S
Co273 O298 1.941 . S
C274 O275 1.258 . S
C274 O276 1.263 . S
O275 Co272 1.970 . S
O275 C274 1.258 . S
O276 Co273 1.966 . S
O276 C274 1.263 . S
C277 O278 1.235 . S
C277 O304 1.289 . S
O278 C277 1.235 . S
C279 C281 1.400 . S
C279 N282 1.351 . S
C279 C284 1.501 . S
C280 C281 1.387 . S
C280 N283 1.341 . S
C281 C279 1.400 . S
C281 C280 1.387 . S
N282 Co273 2.022 1_554 S
N282 C279 1.351 . S
N282 N283 1.365 . S
N283 C280 1.341 . S
N283 N282 1.365 . S
N283 H303 0.862 . S
C284 C279 1.501 . S
C284 H285 0.961 . S
C284 H286 0.961 . S
C284 H287 0.960 . S
H285 C284 0.961 . S
H286 C284 0.961 . S
H287 C284 0.960 . S
C288 N289 1.342 . S
C288 C292 1.401 . S
C288 C293 1.499 . S
N289 Co272 1.989 . S
N289 C288 1.342 . S
N289 N290 1.388 . S
N290 Co273 1.993 . S
N290 N289 1.388 . S
N290 C291 1.346 . S
C291 N290 1.346 . S
C291 C292 1.396 . S
C291 C301 1.510 1_556 S
C292 C288 1.401 . S
C292 C291 1.396 . S
C293 C288 1.499 . S
C293 H294 0.959 . S
C293 H295 0.960 . S
C293 H296 0.961 . S
H294 C293 0.959 . S
H295 C293 0.960 . S
H296 C293 0.961 . S
O297 Co272 1.967 . S
O297 C305 1.258 . S
O298 Co273 1.941 . S
O298 C305 1.266 . S
H299 C301 0.959 . S
H300 C301 0.961 . S
C301 C291 1.510 1_554 S
C301 H299 0.959 . S
C301 H300 0.961 . S
C301 H302 0.960 . S
H302 C301 0.960 . S
H303 N283 0.862 . S
O304 Co272 1.920 . S
O304 C277 1.289 . S
C305 O297 1.258 . S
C305 O298 1.266 . S
Co306 O309 1.970 . S
Co306 N323 1.989 . S
Co306 O331 1.967 . S
Co306 O338 1.920 . S
Co307 O310 1.966 . S
Co307 N316 2.022 1_554 S
Co307 N324 1.993 . S
Co307 O332 1.941 . S
C308 O309 1.258 . S
C308 O310 1.263 . S
O309 Co306 1.970 . S
O309 C308 1.258 . S
O310 Co307 1.966 . S
O310 C308 1.263 . S
C311 O312 1.235 . S
C311 O338 1.289 . S
O312 C311 1.235 . S
C313 C315 1.400 . S
C313 N316 1.351 . S
C313 C318 1.501 . S
C314 C315 1.387 . S
C314 N317 1.341 . S
C315 C313 1.400 . S
C315 C314 1.387 . S
N316 Co307 2.022 1_556 S
N316 C313 1.351 . S
N316 N317 1.365 . S
N317 C314 1.341 . S
N317 N316 1.365 . S
N317 H337 0.862 . S
C318 C313 1.501 . S
C318 H319 0.961 . S
C318 H320 0.961 . S
C318 H321 0.960 . S
H319 C318 0.961 . S
H320 C318 0.961 . S
H321 C318 0.960 . S
C322 N323 1.342 . S
C322 C326 1.401 . S
C322 C327 1.499 . S
N323 Co306 1.989 . S
N323 C322 1.342 . S
N323 N324 1.388 . S
N324 Co307 1.993 . S
N324 N323 1.388 . S
N324 C325 1.346 . S
C325 N324 1.346 . S
C325 C326 1.396 . S
C325 C335 1.510 1_554 S
C326 C322 1.401 . S
C326 C325 1.396 . S
C327 C322 1.499 . S
C327 H328 0.959 . S
C327 H329 0.960 . S
C327 H330 0.961 . S
H328 C327 0.959 . S
H329 C327 0.960 . S
H330 C327 0.961 . S
O331 Co306 1.967 . S
O331 C339 1.258 . S
O332 Co307 1.941 . S
O332 C339 1.266 . S
H333 C335 0.959 . S
H334 C335 0.961 . S
C335 C325 1.510 1_556 S
C335 H333 0.959 . S
C335 H334 0.961 . S
C335 H336 0.960 . S
H336 C335 0.960 . S
H337 N317 0.862 . S
O338 Co306 1.920 . S
O338 C311 1.289 . S
C339 O331 1.258 . S
C339 O332 1.266 . S
Co340 O343 1.970 . S
Co340 N357 1.989 . S
Co340 O365 1.967 . S
Co340 O372 1.920 . S
Co341 O344 1.966 . S
Co341 N350 2.022 1_554 S
Co341 N358 1.993 . S
Co341 O366 1.941 . S
C342 O343 1.258 . S
C342 O344 1.263 . S
O343 Co340 1.970 . S
O343 C342 1.258 . S
O344 Co341 1.966 . S
O344 C342 1.263 . S
C345 O346 1.235 . S
C345 O372 1.289 . S
O346 C345 1.235 . S
C347 C349 1.400 . S
C347 N350 1.351 . S
C347 C352 1.501 . S
C348 C349 1.387 . S
C348 N351 1.341 . S
C349 C347 1.400 . S
C349 C348 1.387 . S
N350 Co341 2.022 1_556 S
N350 C347 1.351 . S
N350 N351 1.365 . S
N351 C348 1.341 . S
N351 N350 1.365 . S
N351 H371 0.862 . S
C352 C347 1.501 . S
C352 H353 0.961 . S
C352 H354 0.961 . S
C352 H355 0.960 . S
H353 C352 0.961 . S
H354 C352 0.961 . S
H355 C352 0.960 . S
C356 N357 1.342 . S
C356 C360 1.401 . S
C356 C361 1.499 . S
N357 Co340 1.989 . S
N357 C356 1.342 . S
N357 N358 1.388 . S
N358 Co341 1.993 . S
N358 N357 1.388 . S
N358 C359 1.346 . S
C359 N358 1.346 . S
C359 C360 1.396 . S
C359 C369 1.510 1_554 S
C360 C356 1.401 . S
C360 C359 1.396 . S
C361 C356 1.499 . S
C361 H362 0.959 . S
C361 H363 0.960 . S
C361 H364 0.961 . S
H362 C361 0.959 . S
H363 C361 0.960 . S
H364 C361 0.961 . S
O365 Co340 1.967 . S
O365 C373 1.258 . S
O366 Co341 1.941 . S
O366 C373 1.266 . S
H367 C369 0.959 . S
H368 C369 0.961 . S
C369 C359 1.510 1_556 S
C369 H367 0.959 . S
C369 H368 0.961 . S
C369 H370 0.960 . S
H370 C369 0.960 . S
H371 N351 0.862 . S
O372 Co340 1.920 . S
O372 C345 1.289 . S
C373 O365 1.258 . S
C373 O366 1.266 . S
Co374 O377 1.970 . S
Co374 N391 1.989 . S
Co374 O399 1.967 . S
Co374 O406 1.920 . S
Co375 O378 1.966 . S
Co375 N384 2.022 1_554 S
Co375 N392 1.993 . S
Co375 O400 1.941 . S
C376 O377 1.258 . S
C376 O378 1.263 . S
O377 Co374 1.970 . S
O377 C376 1.258 . S
O378 Co375 1.966 . S
O378 C376 1.263 . S
C379 O380 1.235 . S
C379 O406 1.289 . S
O380 C379 1.235 . S
C381 C383 1.400 . S
C381 N384 1.351 . S
C381 C386 1.501 . S
C382 C383 1.387 . S
C382 N385 1.341 . S
C383 C381 1.400 . S
C383 C382 1.387 . S
N384 Co375 2.022 1_556 S
N384 C381 1.351 . S
N384 N385 1.365 . S
N385 C382 1.341 . S
N385 N384 1.365 . S
N385 H405 0.862 . S
C386 C381 1.501 . S
C386 H387 0.961 . S
C386 H388 0.961 . S
C386 H389 0.960 . S
H387 C386 0.961 . S
H388 C386 0.961 . S
H389 C386 0.960 . S
C390 N391 1.342 . S
C390 C394 1.401 . S
C390 C395 1.499 . S
N391 Co374 1.989 . S
N391 C390 1.342 . S
N391 N392 1.388 . S
N392 Co375 1.993 . S
N392 N391 1.388 . S
N392 C393 1.346 . S
C393 N392 1.346 . S
C393 C394 1.396 . S
C393 C403 1.510 1_554 S
C394 C390 1.401 . S
C394 C393 1.396 . S
C395 C390 1.499 . S
C395 H396 0.959 . S
C395 H397 0.960 . S
C395 H398 0.961 . S
H396 C395 0.959 . S
H397 C395 0.960 . S
H398 C395 0.961 . S
O399 Co374 1.967 . S
O399 C407 1.258 . S
O400 Co375 1.941 . S
O400 C407 1.266 . S
H401 C403 0.959 . S
H402 C403 0.961 . S
C403 C393 1.510 1_556 S
C403 H401 0.959 . S
C403 H402 0.961 . S
C403 H404 0.960 . S
H404 C403 0.960 . S
H405 N385 0.862 . S
O406 Co374 1.920 . S
O406 C379 1.289 . S
C407 O399 1.258 . S
C407 O400 1.266 . S
Co408 O411 1.970 . S
Co408 N425 1.989 . S
Co408 O433 1.967 . S
Co408 O440 1.920 . S
Co409 O412 1.966 . S
Co409 N418 2.022 . S
Co409 N426 1.993 . S
Co409 O434 1.941 . S
C410 O411 1.258 . S
C410 O412 1.263 . S
O411 Co408 1.970 . S
O411 C410 1.258 . S
O412 Co409 1.966 . S
O412 C410 1.263 . S
C413 O414 1.235 . S
C413 O440 1.289 . S
O414 C413 1.235 . S
C415 C417 1.400 . S
C415 N418 1.351 . S
C415 C420 1.501 . S
C416 C417 1.387 . S
C416 N419 1.341 . S
C417 C415 1.400 . S
C417 C416 1.387 . S
N418 Co409 2.022 . S
N418 C415 1.351 . S
N418 N419 1.365 . S
N419 C416 1.341 . S
N419 N418 1.365 . S
N419 H439 0.862 . S
C420 C415 1.501 . S
C420 H421 0.961 . S
C420 H422 0.961 . S
C420 H423 0.960 . S
H421 C420 0.961 . S
H422 C420 0.961 . S
H423 C420 0.960 . S
C424 N425 1.342 . S
C424 C428 1.401 . S
C424 C429 1.499 . S
N425 Co408 1.989 . S
N425 C424 1.342 . S
N425 N426 1.388 . S
N426 Co409 1.993 . S
N426 N425 1.388 . S
N426 C427 1.346 . S
C427 N426 1.346 . S
C427 C428 1.396 . S
C427 C437 1.510 . S
C428 C424 1.401 . S
C428 C427 1.396 . S
C429 C424 1.499 . S
C429 H430 0.959 . S
C429 H431 0.960 . S
C429 H432 0.961 . S
H430 C429 0.959 . S
H431 C429 0.960 . S
H432 C429 0.961 . S
O433 Co408 1.967 . S
O433 C441 1.258 . S
O434 Co409 1.941 . S
O434 C441 1.266 . S
H435 C437 0.959 . S
H436 C437 0.961 . S
C437 C427 1.510 . S
C437 H435 0.959 . S
C437 H436 0.961 . S
C437 H438 0.960 . S
H438 C437 0.960 . S
H439 N419 0.862 . S
O440 Co408 1.920 . S
O440 C413 1.289 . S
C441 O433 1.258 . S
C441 O434 1.266 . S
Co442 O445 1.970 . S
Co442 N459 1.989 . S
Co442 O467 1.967 . S
Co442 O474 1.920 . S
Co443 O446 1.966 . S
Co443 N452 2.022 . S
Co443 N460 1.993 . S
Co443 O468 1.941 . S
C444 O445 1.258 . S
C444 O446 1.263 . S
O445 Co442 1.970 . S
O445 C444 1.258 . S
O446 Co443 1.966 . S
O446 C444 1.263 . S
C447 O448 1.235 . S
C447 O474 1.289 . S
O448 C447 1.235 . S
C449 C451 1.400 . S
C449 N452 1.351 . S
C449 C454 1.501 . S
C450 C451 1.387 . S
C450 N453 1.341 . S
C451 C449 1.400 . S
C451 C450 1.387 . S
N452 Co443 2.022 . S
N452 C449 1.351 . S
N452 N453 1.365 . S
N453 C450 1.341 . S
N453 N452 1.365 . S
N453 H473 0.862 . S
C454 C449 1.501 . S
C454 H455 0.961 . S
C454 H456 0.961 . S
C454 H457 0.960 . S
H455 C454 0.961 . S
H456 C454 0.961 . S
H457 C454 0.960 . S
C458 N459 1.342 . S
C458 C462 1.401 . S
C458 C463 1.499 . S
N459 Co442 1.989 . S
N459 C458 1.342 . S
N459 N460 1.388 . S
N460 Co443 1.993 . S
N460 N459 1.388 . S
N460 C461 1.346 . S
C461 N460 1.346 . S
C461 C462 1.396 . S
C461 C471 1.510 . S
C462 C458 1.401 . S
C462 C461 1.396 . S
C463 C458 1.499 . S
C463 H464 0.959 . S
C463 H465 0.960 . S
C463 H466 0.961 . S
H464 C463 0.959 . S
H465 C463 0.960 . S
H466 C463 0.961 . S
O467 Co442 1.967 . S
O467 C475 1.258 . S
O468 Co443 1.941 . S
O468 C475 1.266 . S
H469 C471 0.959 . S
H470 C471 0.961 . S
C471 C461 1.510 . S
C471 H469 0.959 . S
C471 H470 0.961 . S
C471 H472 0.960 . S
H472 C471 0.960 . S
H473 N453 0.862 . S
O474 Co442 1.920 . S
O474 C447 1.289 . S
C475 O467 1.258 . S
C475 O468 1.266 . S
Co476 O479 1.970 . S
Co476 N493 1.989 . S
Co476 O501 1.967 . S
Co476 O508 1.920 . S
Co477 O480 1.966 . S
Co477 N486 2.022 . S
Co477 N494 1.993 . S
Co477 O502 1.941 . S
C478 O479 1.258 . S
C478 O480 1.263 . S
O479 Co476 1.970 . S
O479 C478 1.258 . S
O480 Co477 1.966 . S
O480 C478 1.263 . S
C481 O482 1.235 . S
C481 O508 1.289 . S
O482 C481 1.235 . S
C483 C485 1.400 . S
C483 N486 1.351 . S
C483 C488 1.501 . S
C484 C485 1.387 . S
C484 N487 1.341 . S
C485 C483 1.400 . S
C485 C484 1.387 . S
N486 Co477 2.022 . S
N486 C483 1.351 . S
N486 N487 1.365 . S
N487 C484 1.341 . S
N487 N486 1.365 . S
N487 H507 0.862 . S
C488 C483 1.501 . S
C488 H489 0.961 . S
C488 H490 0.961 . S
C488 H491 0.960 . S
H489 C488 0.961 . S
H490 C488 0.961 . S
H491 C488 0.960 . S
C492 N493 1.342 . S
C492 C496 1.401 . S
C492 C497 1.499 . S
N493 Co476 1.989 . S
N493 C492 1.342 . S
N493 N494 1.388 . S
N494 Co477 1.993 . S
N494 N493 1.388 . S
N494 C495 1.346 . S
C495 N494 1.346 . S
C495 C496 1.396 . S
C495 C505 1.510 . S
C496 C492 1.401 . S
C496 C495 1.396 . S
C497 C492 1.499 . S
C497 H498 0.959 . S
C497 H499 0.960 . S
C497 H500 0.961 . S
H498 C497 0.959 . S
H499 C497 0.960 . S
H500 C497 0.961 . S
O501 Co476 1.967 . S
O501 C509 1.258 . S
O502 Co477 1.941 . S
O502 C509 1.266 . S
H503 C505 0.959 . S
H504 C505 0.961 . S
C505 C495 1.510 . S
C505 H503 0.959 . S
C505 H504 0.961 . S
C505 H506 0.960 . S
H506 C505 0.960 . S
H507 N487 0.862 . S
O508 Co476 1.920 . S
O508 C481 1.289 . S
C509 O501 1.258 . S
C509 O502 1.266 . S
Co510 O513 1.970 . S
Co510 N527 1.989 1_556 S
Co510 O535 1.967 . S
Co510 O542 1.920 . S
Co511 O514 1.966 . S
Co511 N520 2.022 . S
Co511 N528 1.993 . S
Co511 O536 1.941 . S
C512 O513 1.258 1_554 S
C512 O514 1.263 . S
O513 Co510 1.970 . S
O513 C512 1.258 1_556 S
O514 Co511 1.966 . S
O514 C512 1.263 . S
C515 O516 1.235 . S
C515 O542 1.289 . S
O516 C515 1.235 . S
C517 C519 1.400 . S
C517 N520 1.351 . S
C517 C522 1.501 . S
C518 C519 1.387 . S
C518 N521 1.341 . S
C519 C517 1.400 . S
C519 C518 1.387 . S
N520 Co511 2.022 . S
N520 C517 1.351 . S
N520 N521 1.365 . S
N521 C518 1.341 . S
N521 N520 1.365 . S
N521 H541 0.862 . S
C522 C517 1.501 . S
C522 H523 0.961 . S
C522 H524 0.961 . S
C522 H525 0.960 . S
H523 C522 0.961 . S
H524 C522 0.961 . S
H525 C522 0.960 . S
C526 N527 1.342 . S
C526 C530 1.401 . S
C526 C531 1.499 1_554 S
N527 Co510 1.989 1_554 S
N527 C526 1.342 . S
N527 N528 1.388 . S
N528 Co511 1.993 . S
N528 N527 1.388 . S
N528 C529 1.346 . S
C529 N528 1.346 . S
C529 C530 1.396 . S
C529 C539 1.510 . S
C530 C526 1.401 . S
C530 C529 1.396 . S
C531 C526 1.499 1_556 S
C531 H532 0.959 . S
C531 H533 0.960 . S
C531 H534 0.961 . S
H532 C531 0.959 . S
H533 C531 0.960 . S
H534 C531 0.961 . S
O535 Co510 1.967 . S
O535 C543 1.258 1_556 S
O536 Co511 1.941 . S
O536 C543 1.266 . S
H537 C539 0.959 . S
H538 C539 0.961 . S
C539 C529 1.510 . S
C539 H537 0.959 . S
C539 H538 0.961 . S
C539 H540 0.960 . S
H540 C539 0.960 . S
H541 N521 0.862 . S
O542 Co510 1.920 . S
O542 C515 1.289 . S
C543 O535 1.258 1_554 S
C543 O536 1.266 . S
Co544 O547 1.970 . S
Co544 N561 1.989 1_556 S
Co544 O569 1.967 . S
Co544 O576 1.920 . S
Co545 O548 1.966 . S
Co545 N554 2.022 . S
Co545 N562 1.993 . S
Co545 O570 1.941 . S
C546 O547 1.258 1_554 S
C546 O548 1.263 . S
O547 Co544 1.970 . S
O547 C546 1.258 1_556 S
O548 Co545 1.966 . S
O548 C546 1.263 . S
C549 O550 1.235 . S
C549 O576 1.289 . S
O550 C549 1.235 . S
C551 C553 1.400 . S
C551 N554 1.351 . S
C551 C556 1.501 . S
C552 C553 1.387 . S
C552 N555 1.341 . S
C553 C551 1.400 . S
C553 C552 1.387 . S
N554 Co545 2.022 . S
N554 C551 1.351 . S
N554 N555 1.365 . S
N555 C552 1.341 . S
N555 N554 1.365 . S
N555 H575 0.862 . S
C556 C551 1.501 . S
C556 H557 0.961 . S
C556 H558 0.961 . S
C556 H559 0.960 . S
H557 C556 0.961 . S
H558 C556 0.961 . S
H559 C556 0.960 . S
C560 N561 1.342 . S
C560 C564 1.401 . S
C560 C565 1.499 1_554 S
N561 Co544 1.989 1_554 S
N561 C560 1.342 . S
N561 N562 1.388 . S
N562 Co545 1.993 . S
N562 N561 1.388 . S
N562 C563 1.346 . S
C563 N562 1.346 . S
C563 C564 1.396 . S
C563 C573 1.510 . S
C564 C560 1.401 . S
C564 C563 1.396 . S
C565 C560 1.499 1_556 S
C565 H566 0.959 . S
C565 H567 0.960 . S
C565 H568 0.961 . S
H566 C565 0.959 . S
H567 C565 0.960 . S
H568 C565 0.961 . S
O569 Co544 1.967 . S
O569 C577 1.258 1_556 S
O570 Co545 1.941 . S
O570 C577 1.266 . S
H571 C573 0.959 . S
H572 C573 0.961 . S
C573 C563 1.510 . S
C573 H571 0.959 . S
C573 H572 0.961 . S
C573 H574 0.960 . S
H574 C573 0.960 . S
H575 N555 0.862 . S
O576 Co544 1.920 . S
O576 C549 1.289 . S
C577 O569 1.258 1_554 S
C577 O570 1.266 . S
Co578 O581 1.970 . S
Co578 N595 1.989 1_556 S
Co578 O603 1.967 . S
Co578 O610 1.920 . S
Co579 O582 1.966 . S
Co579 N588 2.022 . S
Co579 N596 1.993 . S
Co579 O604 1.941 . S
C580 O581 1.258 1_554 S
C580 O582 1.263 . S
O581 Co578 1.970 . S
O581 C580 1.258 1_556 S
O582 Co579 1.966 . S
O582 C580 1.263 . S
C583 O584 1.235 . S
C583 O610 1.289 . S
O584 C583 1.235 . S
C585 C587 1.400 . S
C585 N588 1.351 . S
C585 C590 1.501 . S
C586 C587 1.387 . S
C586 N589 1.341 . S
C587 C585 1.400 . S
C587 C586 1.387 . S
N588 Co579 2.022 . S
N588 C585 1.351 . S
N588 N589 1.365 . S
N589 C586 1.341 . S
N589 N588 1.365 . S
N589 H609 0.862 . S
C590 C585 1.501 . S
C590 H591 0.961 . S
C590 H592 0.961 . S
C590 H593 0.960 . S
H591 C590 0.961 . S
H592 C590 0.961 . S
H593 C590 0.960 . S
C594 N595 1.342 . S
C594 C598 1.401 . S
C594 C599 1.499 1_554 S
N595 Co578 1.989 1_554 S
N595 C594 1.342 . S
N595 N596 1.388 . S
N596 Co579 1.993 . S
N596 N595 1.388 . S
N596 C597 1.346 . S
C597 N596 1.346 . S
C597 C598 1.396 . S
C597 C607 1.510 . S
C598 C594 1.401 . S
C598 C597 1.396 . S
C599 C594 1.499 1_556 S
C599 H600 0.959 . S
C599 H601 0.960 . S
C599 H602 0.961 . S
H600 C599 0.959 . S
H601 C599 0.960 . S
H602 C599 0.961 . S
O603 Co578 1.967 . S
O603 C611 1.258 1_556 S
O604 Co579 1.941 . S
O604 C611 1.266 . S
H605 C607 0.959 . S
H606 C607 0.961 . S
C607 C597 1.510 . S
C607 H605 0.959 . S
C607 H606 0.961 . S
C607 H608 0.960 . S
H608 C607 0.960 . S
H609 N589 0.862 . S
O610 Co578 1.920 . S
O610 C583 1.289 . S
C611 O603 1.258 1_554 S
C611 O604 1.266 . S
Co612 O615 1.970 . S
Co612 N629 1.989 1_556 S
Co612 O637 1.967 . S
Co612 O644 1.920 . S
Co613 O616 1.966 . S
Co613 N622 2.022 . S
Co613 N630 1.993 . S
Co613 O638 1.941 . S
C614 O615 1.258 1_554 S
C614 O616 1.263 . S
O615 Co612 1.970 . S
O615 C614 1.258 1_556 S
O616 Co613 1.966 . S
O616 C614 1.263 . S
C617 O618 1.235 . S
C617 O644 1.289 . S
O618 C617 1.235 . S
C619 C621 1.400 . S
C619 N622 1.351 . S
C619 C624 1.501 . S
C620 C621 1.387 . S
C620 N623 1.341 . S
C621 C619 1.400 . S
C621 C620 1.387 . S
N622 Co613 2.022 . S
N622 C619 1.351 . S
N622 N623 1.365 . S
N623 C620 1.341 . S
N623 N622 1.365 . S
N623 H643 0.862 . S
C624 C619 1.501 . S
C624 H625 0.961 . S
C624 H626 0.961 . S
C624 H627 0.960 . S
H625 C624 0.961 . S
H626 C624 0.961 . S
H627 C624 0.960 . S
C628 N629 1.342 . S
C628 C632 1.401 . S
C628 C633 1.499 1_554 S
N629 Co612 1.989 1_554 S
N629 C628 1.342 . S
N629 N630 1.388 . S
N630 Co613 1.993 . S
N630 N629 1.388 . S
N630 C631 1.346 . S
C631 N630 1.346 . S
C631 C632 1.396 . S
C631 C641 1.510 . S
C632 C628 1.401 . S
C632 C631 1.396 . S
C633 C628 1.499 1_556 S
C633 H634 0.959 . S
C633 H635 0.960 . S
C633 H636 0.961 . S
H634 C633 0.959 . S
H635 C633 0.960 . S
H636 C633 0.961 . S
O637 Co612 1.967 . S
O637 C645 1.258 1_556 S
O638 Co613 1.941 . S
O638 C645 1.266 . S
H639 C641 0.959 . S
H640 C641 0.961 . S
C641 C631 1.510 . S
C641 H639 0.959 . S
C641 H640 0.961 . S
C641 H642 0.960 . S
H642 C641 0.960 . S
H643 N623 0.862 . S
O644 Co612 1.920 . S
O644 C617 1.289 . S
C645 O637 1.258 1_554 S
C645 O638 1.266 . S
Co646 O649 1.970 . S
Co646 N663 1.989 1_556 S
Co646 O671 1.967 . S
Co646 O678 1.920 . S
Co647 O650 1.966 . S
Co647 N656 2.022 . S
Co647 N664 1.993 . S
Co647 O672 1.941 . S
C648 O649 1.258 1_554 S
C648 O650 1.263 . S
O649 Co646 1.970 . S
O649 C648 1.258 1_556 S
O650 Co647 1.966 . S
O650 C648 1.263 . S
C651 O652 1.235 . S
C651 O678 1.289 . S
O652 C651 1.235 . S
C653 C655 1.400 . S
C653 N656 1.351 . S
C653 C658 1.501 . S
C654 C655 1.387 . S
C654 N657 1.341 . S
C655 C653 1.400 . S
C655 C654 1.387 . S
N656 Co647 2.022 . S
N656 C653 1.351 . S
N656 N657 1.365 . S
N657 C654 1.341 . S
N657 N656 1.365 . S
N657 H677 0.862 . S
C658 C653 1.501 . S
C658 H659 0.961 . S
C658 H660 0.961 . S
C658 H661 0.960 . S
H659 C658 0.961 . S
H660 C658 0.961 . S
H661 C658 0.960 . S
C662 N663 1.342 . S
C662 C666 1.401 . S
C662 C667 1.499 1_554 S
N663 Co646 1.989 1_554 S
N663 C662 1.342 . S
N663 N664 1.388 . S
N664 Co647 1.993 . S
N664 N663 1.388 . S
N664 C665 1.346 . S
C665 N664 1.346 . S
C665 C666 1.396 . S
C665 C675 1.510 . S
C666 C662 1.401 . S
C666 C665 1.396 . S
C667 C662 1.499 1_556 S
C667 H668 0.959 . S
C667 H669 0.960 . S
C667 H670 0.961 . S
H668 C667 0.959 . S
H669 C667 0.960 . S
H670 C667 0.961 . S
O671 Co646 1.967 . S
O671 C679 1.258 1_556 S
O672 Co647 1.941 . S
O672 C679 1.266 . S
H673 C675 0.959 . S
H674 C675 0.961 . S
C675 C665 1.510 . S
C675 H673 0.959 . S
C675 H674 0.961 . S
C675 H676 0.960 . S
H676 C675 0.960 . S
H677 N657 0.862 . S
O678 Co646 1.920 . S
O678 C651 1.289 . S
C679 O671 1.258 1_554 S
C679 O672 1.266 . S
Co680 O683 1.970 . S
Co680 N697 1.989 1_556 S
Co680 O705 1.967 . S
Co680 O712 1.920 . S
Co681 O684 1.966 . S
Co681 N690 2.022 . S
Co681 N698 1.993 . S
Co681 O706 1.941 . S
C682 O683 1.258 1_554 S
C682 O684 1.263 . S
O683 Co680 1.970 . S
O683 C682 1.258 1_556 S
O684 Co681 1.966 . S
O684 C682 1.263 . S
C685 O686 1.235 . S
C685 O712 1.289 . S
O686 C685 1.235 . S
C687 C689 1.400 . S
C687 N690 1.351 . S
C687 C692 1.501 . S
C688 C689 1.387 . S
C688 N691 1.341 . S
C689 C687 1.400 . S
C689 C688 1.387 . S
N690 Co681 2.022 . S
N690 C687 1.351 . S
N690 N691 1.365 . S
N691 C688 1.341 . S
N691 N690 1.365 . S
N691 H711 0.862 . S
C692 C687 1.501 . S
C692 H693 0.961 . S
C692 H694 0.961 . S
C692 H695 0.960 . S
H693 C692 0.961 . S
H694 C692 0.961 . S
H695 C692 0.960 . S
C696 N697 1.342 . S
C696 C700 1.401 . S
C696 C701 1.499 1_554 S
N697 Co680 1.989 1_554 S
N697 C696 1.342 . S
N697 N698 1.388 . S
N698 Co681 1.993 . S
N698 N697 1.388 . S
N698 C699 1.346 . S
C699 N698 1.346 . S
C699 C700 1.396 . S
C699 C709 1.510 . S
C700 C696 1.401 . S
C700 C699 1.396 . S
C701 C696 1.499 1_556 S
C701 H702 0.959 . S
C701 H703 0.960 . S
C701 H704 0.961 . S
H702 C701 0.959 . S
H703 C701 0.960 . S
H704 C701 0.961 . S
O705 Co680 1.967 . S
O705 C713 1.258 1_556 S
O706 Co681 1.941 . S
O706 C713 1.266 . S
H707 C709 0.959 . S
H708 C709 0.961 . S
C709 C699 1.510 . S
C709 H707 0.959 . S
C709 H708 0.961 . S
C709 H710 0.960 . S
H710 C709 0.960 . S
H711 N691 0.862 . S
O712 Co680 1.920 . S
O712 C685 1.289 . S
C713 O705 1.258 1_554 S
C713 O706 1.266 . S
Co714 O717 1.970 . S
Co714 N731 1.989 . S
Co714 O739 1.967 . S
Co714 O746 1.920 . S
Co715 O718 1.966 . S
Co715 N724 2.022 . S
Co715 N732 1.993 . S
Co715 O740 1.941 . S
C716 O717 1.258 . S
C716 O718 1.263 . S
O717 Co714 1.970 . S
O717 C716 1.258 . S
O718 Co715 1.966 . S
O718 C716 1.263 . S
C719 O720 1.235 . S
C719 O746 1.289 . S
O720 C719 1.235 . S
C721 C723 1.400 . S
C721 N724 1.351 . S
C721 C726 1.501 . S
C722 C723 1.387 . S
C722 N725 1.341 . S
C723 C721 1.400 . S
C723 C722 1.387 . S
N724 Co715 2.022 . S
N724 C721 1.351 . S
N724 N725 1.365 . S
N725 C722 1.341 . S
N725 N724 1.365 . S
N725 H745 0.862 . S
C726 C721 1.501 . S
C726 H727 0.961 . S
C726 H728 0.961 . S
C726 H729 0.960 . S
H727 C726 0.961 . S
H728 C726 0.961 . S
H729 C726 0.960 . S
C730 N731 1.342 . S
C730 C734 1.401 . S
C730 C735 1.499 . S
N731 Co714 1.989 . S
N731 C730 1.342 . S
N731 N732 1.388 . S
N732 Co715 1.993 . S
N732 N731 1.388 . S
N732 C733 1.346 . S
C733 N732 1.346 . S
C733 C734 1.396 . S
C733 C743 1.510 . S
C734 C730 1.401 . S
C734 C733 1.396 . S
C735 C730 1.499 . S
C735 H736 0.959 . S
C735 H737 0.960 . S
C735 H738 0.961 . S
H736 C735 0.959 . S
H737 C735 0.960 . S
H738 C735 0.961 . S
O739 Co714 1.967 . S
O739 C747 1.258 . S
O740 Co715 1.941 . S
O740 C747 1.266 . S
H741 C743 0.959 . S
H742 C743 0.961 . S
C743 C733 1.510 . S
C743 H741 0.959 . S
C743 H742 0.961 . S
C743 H744 0.960 . S
H744 C743 0.960 . S
H745 N725 0.862 . S
O746 Co714 1.920 . S
O746 C719 1.289 . S
C747 O739 1.258 . S
C747 O740 1.266 . S
Co748 O751 1.970 . S
Co748 N765 1.989 . S
Co748 O773 1.967 . S
Co748 O780 1.920 . S
Co749 O752 1.966 . S
Co749 N758 2.022 . S
Co749 N766 1.993 . S
Co749 O774 1.941 . S
C750 O751 1.258 . S
C750 O752 1.263 . S
O751 Co748 1.970 . S
O751 C750 1.258 . S
O752 Co749 1.966 . S
O752 C750 1.263 . S
C753 O754 1.235 . S
C753 O780 1.289 . S
O754 C753 1.235 . S
C755 C757 1.400 . S
C755 N758 1.351 . S
C755 C760 1.501 . S
C756 C757 1.387 . S
C756 N759 1.341 . S
C757 C755 1.400 . S
C757 C756 1.387 . S
N758 Co749 2.022 . S
N758 C755 1.351 . S
N758 N759 1.365 . S
N759 C756 1.341 . S
N759 N758 1.365 . S
N759 H779 0.862 . S
C760 C755 1.501 . S
C760 H761 0.961 . S
C760 H762 0.961 . S
C760 H763 0.960 . S
H761 C760 0.961 . S
H762 C760 0.961 . S
H763 C760 0.960 . S
C764 N765 1.342 . S
C764 C768 1.401 . S
C764 C769 1.499 . S
N765 Co748 1.989 . S
N765 C764 1.342 . S
N765 N766 1.388 . S
N766 Co749 1.993 . S
N766 N765 1.388 . S
N766 C767 1.346 . S
C767 N766 1.346 . S
C767 C768 1.396 . S
C767 C777 1.510 . S
C768 C764 1.401 . S
C768 C767 1.396 . S
C769 C764 1.499 . S
C769 H770 0.959 . S
C769 H771 0.960 . S
C769 H772 0.961 . S
H770 C769 0.959 . S
H771 C769 0.960 . S
H772 C769 0.961 . S
O773 Co748 1.967 . S
O773 C781 1.258 . S
O774 Co749 1.941 . S
O774 C781 1.266 . S
H775 C777 0.959 . S
H776 C777 0.961 . S
C777 C767 1.510 . S
C777 H775 0.959 . S
C777 H776 0.961 . S
C777 H778 0.960 . S
H778 C777 0.960 . S
H779 N759 0.862 . S
O780 Co748 1.920 . S
O780 C753 1.289 . S
C781 O773 1.258 . S
C781 O774 1.266 . S
Co782 O785 1.970 . S
Co782 N799 1.989 . S
Co782 O807 1.967 . S
Co782 O814 1.920 . S
Co783 O786 1.966 . S
Co783 N792 2.022 . S
Co783 N800 1.993 . S
Co783 O808 1.941 . S
C784 O785 1.258 . S
C784 O786 1.263 . S
O785 Co782 1.970 . S
O785 C784 1.258 . S
O786 Co783 1.966 . S
O786 C784 1.263 . S
C787 O788 1.235 . S
C787 O814 1.289 . S
O788 C787 1.235 . S
C789 C791 1.400 . S
C789 N792 1.351 . S
C789 C794 1.501 . S
C790 C791 1.387 . S
C790 N793 1.341 . S
C791 C789 1.400 . S
C791 C790 1.387 . S
N792 Co783 2.022 . S
N792 C789 1.351 . S
N792 N793 1.365 . S
N793 C790 1.341 . S
N793 N792 1.365 . S
N793 H813 0.862 . S
C794 C789 1.501 . S
C794 H795 0.961 . S
C794 H796 0.961 . S
C794 H797 0.960 . S
H795 C794 0.961 . S
H796 C794 0.961 . S
H797 C794 0.960 . S
C798 N799 1.342 . S
C798 C802 1.401 . S
C798 C803 1.499 . S
N799 Co782 1.989 . S
N799 C798 1.342 . S
N799 N800 1.388 . S
N800 Co783 1.993 . S
N800 N799 1.388 . S
N800 C801 1.346 . S
C801 N800 1.346 . S
C801 C802 1.396 . S
C801 C811 1.510 . S
C802 C798 1.401 . S
C802 C801 1.396 . S
C803 C798 1.499 . S
C803 H804 0.959 . S
C803 H805 0.960 . S
C803 H806 0.961 . S
H804 C803 0.959 . S
H805 C803 0.960 . S
H806 C803 0.961 . S
O807 Co782 1.967 . S
O807 C815 1.258 . S
O808 Co783 1.941 . S
O808 C815 1.266 . S
H809 C811 0.959 . S
H810 C811 0.961 . S
C811 C801 1.510 . S
C811 H809 0.959 . S
C811 H810 0.961 . S
C811 H812 0.960 . S
H812 C811 0.960 . S
H813 N793 0.862 . S
O814 Co782 1.920 . S
O814 C787 1.289 . S
C815 O807 1.258 . S
C815 O808 1.266 . S
Co816 O819 1.970 . S
Co816 N833 1.989 1_554 S
Co816 O841 1.967 . S
Co816 O848 1.920 . S
Co817 O820 1.966 . S
Co817 N826 2.022 . S
Co817 N834 1.993 . S
Co817 O842 1.941 . S
C818 O819 1.258 1_556 S
C818 O820 1.263 . S
O819 Co816 1.970 . S
O819 C818 1.258 1_554 S
O820 Co817 1.966 . S
O820 C818 1.263 . S
C821 O822 1.235 . S
C821 O848 1.289 . S
O822 C821 1.235 . S
C823 C825 1.400 . S
C823 N826 1.351 . S
C823 C828 1.501 . S
C824 C825 1.387 . S
C824 N827 1.341 . S
C825 C823 1.400 . S
C825 C824 1.387 . S
N826 Co817 2.022 . S
N826 C823 1.351 . S
N826 N827 1.365 . S
N827 C824 1.341 . S
N827 N826 1.365 . S
N827 H847 0.862 . S
C828 C823 1.501 . S
C828 H829 0.961 . S
C828 H830 0.961 . S
C828 H831 0.960 . S
H829 C828 0.961 . S
H830 C828 0.961 . S
H831 C828 0.960 . S
C832 N833 1.342 . S
C832 C836 1.401 . S
C832 C837 1.499 1_556 S
N833 Co816 1.989 1_556 S
N833 C832 1.342 . S
N833 N834 1.388 . S
N834 Co817 1.993 . S
N834 N833 1.388 . S
N834 C835 1.346 . S
C835 N834 1.346 . S
C835 C836 1.396 . S
C835 C845 1.510 . S
C836 C832 1.401 . S
C836 C835 1.396 . S
C837 C832 1.499 1_554 S
C837 H838 0.959 . S
C837 H839 0.960 . S
C837 H840 0.961 . S
H838 C837 0.959 . S
H839 C837 0.960 . S
H840 C837 0.961 . S
O841 Co816 1.967 . S
O841 C849 1.258 1_554 S
O842 Co817 1.941 . S
O842 C849 1.266 . S
H843 C845 0.959 . S
H844 C845 0.961 . S
C845 C835 1.510 . S
C845 H843 0.959 . S
C845 H844 0.961 . S
C845 H846 0.960 . S
H846 C845 0.960 . S
H847 N827 0.862 . S
O848 Co816 1.920 . S
O848 C821 1.289 . S
C849 O841 1.258 1_556 S
C849 O842 1.266 . S
Co850 O853 1.970 . S
Co850 N867 1.989 1_554 S
Co850 O875 1.967 . S
Co850 O882 1.920 . S
Co851 O854 1.966 . S
Co851 N860 2.022 . S
Co851 N868 1.993 . S
Co851 O876 1.941 . S
C852 O853 1.258 1_556 S
C852 O854 1.263 . S
O853 Co850 1.970 . S
O853 C852 1.258 1_554 S
O854 Co851 1.966 . S
O854 C852 1.263 . S
C855 O856 1.235 . S
C855 O882 1.289 . S
O856 C855 1.235 . S
C857 C859 1.400 . S
C857 N860 1.351 . S
C857 C862 1.501 . S
C858 C859 1.387 . S
C858 N861 1.341 . S
C859 C857 1.400 . S
C859 C858 1.387 . S
N860 Co851 2.022 . S
N860 C857 1.351 . S
N860 N861 1.365 . S
N861 C858 1.341 . S
N861 N860 1.365 . S
N861 H881 0.862 . S
C862 C857 1.501 . S
C862 H863 0.961 . S
C862 H864 0.961 . S
C862 H865 0.960 . S
H863 C862 0.961 . S
H864 C862 0.961 . S
H865 C862 0.960 . S
C866 N867 1.342 . S
C866 C870 1.401 . S
C866 C871 1.499 1_556 S
N867 Co850 1.989 1_556 S
N867 C866 1.342 . S
N867 N868 1.388 . S
N868 Co851 1.993 . S
N868 N867 1.388 . S
N868 C869 1.346 . S
C869 N868 1.346 . S
C869 C870 1.396 . S
C869 C879 1.510 . S
C870 C866 1.401 . S
C870 C869 1.396 . S
C871 C866 1.499 1_554 S
C871 H872 0.959 . S
C871 H873 0.960 . S
C871 H874 0.961 . S
H872 C871 0.959 . S
H873 C871 0.960 . S
H874 C871 0.961 . S
O875 Co850 1.967 . S
O875 C883 1.258 1_554 S
O876 Co851 1.941 . S
O876 C883 1.266 . S
H877 C879 0.959 . S
H878 C879 0.961 . S
C879 C869 1.510 . S
C879 H877 0.959 . S
C879 H878 0.961 . S
C879 H880 0.960 . S
H880 C879 0.960 . S
H881 N861 0.862 . S
O882 Co850 1.920 . S
O882 C855 1.289 . S
C883 O875 1.258 1_556 S
C883 O876 1.266 . S
Co884 O887 1.970 . S
Co884 N901 1.989 1_554 S
Co884 O909 1.967 . S
Co884 O916 1.920 . S
Co885 O888 1.966 . S
Co885 N894 2.022 . S
Co885 N902 1.993 . S
Co885 O910 1.941 . S
C886 O887 1.258 1_556 S
C886 O888 1.263 . S
O887 Co884 1.970 . S
O887 C886 1.258 1_554 S
O888 Co885 1.966 . S
O888 C886 1.263 . S
C889 O890 1.235 . S
C889 O916 1.289 . S
O890 C889 1.235 . S
C891 C893 1.400 . S
C891 N894 1.351 . S
C891 C896 1.501 . S
C892 C893 1.387 . S
C892 N895 1.341 . S
C893 C891 1.400 . S
C893 C892 1.387 . S
N894 Co885 2.022 . S
N894 C891 1.351 . S
N894 N895 1.365 . S
N895 C892 1.341 . S
N895 N894 1.365 . S
N895 H915 0.862 . S
C896 C891 1.501 . S
C896 H897 0.961 . S
C896 H898 0.961 . S
C896 H899 0.960 . S
H897 C896 0.961 . S
H898 C896 0.961 . S
H899 C896 0.960 . S
C900 N901 1.342 . S
C900 C904 1.401 . S
C900 C905 1.499 1_556 S
N901 Co884 1.989 1_556 S
N901 C900 1.342 . S
N901 N902 1.388 . S
N902 Co885 1.993 . S
N902 N901 1.388 . S
N902 C903 1.346 . S
C903 N902 1.346 . S
C903 C904 1.396 . S
C903 C913 1.510 . S
C904 C900 1.401 . S
C904 C903 1.396 . S
C905 C900 1.499 1_554 S
C905 H906 0.959 . S
C905 H907 0.960 . S
C905 H908 0.961 . S
H906 C905 0.959 . S
H907 C905 0.960 . S
H908 C905 0.961 . S
O909 Co884 1.967 . S
O909 C917 1.258 1_554 S
O910 Co885 1.941 . S
O910 C917 1.266 . S
H911 C913 0.959 . S
H912 C913 0.961 . S
C913 C903 1.510 . S
C913 H911 0.959 . S
C913 H912 0.961 . S
C913 H914 0.960 . S
H914 C913 0.960 . S
H915 N895 0.862 . S
O916 Co884 1.920 . S
O916 C889 1.289 . S
C917 O909 1.258 1_556 S
C917 O910 1.266 . S
Co918 O921 1.970 . S
Co918 N935 1.989 . S
Co918 O943 1.967 . S
Co918 O950 1.920 . S
Co919 O922 1.966 . S
Co919 N928 2.022 . S
Co919 N936 1.993 . S
Co919 O944 1.941 . S
C920 O921 1.258 . S
C920 O922 1.263 . S
O921 Co918 1.970 . S
O921 C920 1.258 . S
O922 Co919 1.966 . S
O922 C920 1.263 . S
C923 O924 1.235 . S
C923 O950 1.289 . S
O924 C923 1.235 . S
C925 C927 1.400 . S
C925 N928 1.351 . S
C925 C930 1.501 . S
C926 C927 1.387 . S
C926 N929 1.341 . S
C927 C925 1.400 . S
C927 C926 1.387 . S
N928 Co919 2.022 . S
N928 C925 1.351 . S
N928 N929 1.365 . S
N929 C926 1.341 . S
N929 N928 1.365 . S
N929 H949 0.862 . S
C930 C925 1.501 . S
C930 H931 0.961 . S
C930 H932 0.961 . S
C930 H933 0.960 . S
H931 C930 0.961 . S
H932 C930 0.961 . S
H933 C930 0.960 . S
C934 N935 1.342 . S
C934 C938 1.401 . S
C934 C939 1.499 . S
N935 Co918 1.989 . S
N935 C934 1.342 . S
N935 N936 1.388 . S
N936 Co919 1.993 . S
N936 N935 1.388 . S
N936 C937 1.346 . S
C937 N936 1.346 . S
C937 C938 1.396 . S
C937 C947 1.510 . S
C938 C934 1.401 . S
C938 C937 1.396 . S
C939 C934 1.499 . S
C939 H940 0.959 . S
C939 H941 0.960 . S
C939 H942 0.961 . S
H940 C939 0.959 . S
H941 C939 0.960 . S
H942 C939 0.961 . S
O943 Co918 1.967 . S
O943 C951 1.258 . S
O944 Co919 1.941 . S
O944 C951 1.266 . S
H945 C947 0.959 . S
H946 C947 0.961 . S
C947 C937 1.510 . S
C947 H945 0.959 . S
C947 H946 0.961 . S
C947 H948 0.960 . S
H948 C947 0.960 . S
H949 N929 0.862 . S
O950 Co918 1.920 . S
O950 C923 1.289 . S
C951 O943 1.258 . S
C951 O944 1.266 . S
Co952 O955 1.970 . S
Co952 N969 1.989 . S
Co952 O977 1.967 . S
Co952 O984 1.920 . S
Co953 O956 1.966 . S
Co953 N962 2.022 . S
Co953 N970 1.993 . S
Co953 O978 1.941 . S
C954 O955 1.258 . S
C954 O956 1.263 . S
O955 Co952 1.970 . S
O955 C954 1.258 . S
O956 Co953 1.966 . S
O956 C954 1.263 . S
C957 O958 1.235 . S
C957 O984 1.289 . S
O958 C957 1.235 . S
C959 C961 1.400 . S
C959 N962 1.351 . S
C959 C964 1.501 . S
C960 C961 1.387 . S
C960 N963 1.341 . S
C961 C959 1.400 . S
C961 C960 1.387 . S
N962 Co953 2.022 . S
N962 C959 1.351 . S
N962 N963 1.365 . S
N963 C960 1.341 . S
N963 N962 1.365 . S
N963 H983 0.862 . S
C964 C959 1.501 . S
C964 H965 0.961 . S
C964 H966 0.961 . S
C964 H967 0.960 . S
H965 C964 0.961 . S
H966 C964 0.961 . S
H967 C964 0.960 . S
C968 N969 1.342 . S
C968 C972 1.401 . S
C968 C973 1.499 . S
N969 Co952 1.989 . S
N969 C968 1.342 . S
N969 N970 1.388 . S
N970 Co953 1.993 . S
N970 N969 1.388 . S
N970 C971 1.346 . S
C971 N970 1.346 . S
C971 C972 1.396 . S
C971 C981 1.510 . S
C972 C968 1.401 . S
C972 C971 1.396 . S
C973 C968 1.499 . S
C973 H974 0.959 . S
C973 H975 0.960 . S
C973 H976 0.961 . S
H974 C973 0.959 . S
H975 C973 0.960 . S
H976 C973 0.961 . S
O977 Co952 1.967 . S
O977 C985 1.258 . S
O978 Co953 1.941 . S
O978 C985 1.266 . S
H979 C981 0.959 . S
H980 C981 0.961 . S
C981 C971 1.510 . S
C981 H979 0.959 . S
C981 H980 0.961 . S
C981 H982 0.960 . S
H982 C981 0.960 . S
H983 N963 0.862 . S
O984 Co952 1.920 . S
O984 C957 1.289 . S
C985 O977 1.258 . S
C985 O978 1.266 . S
Co986 O989 1.970 . S
Co986 N1003 1.989 . S
Co986 O1011 1.967 . S
Co986 O1018 1.920 . S
Co987 O990 1.966 . S
Co987 N996 2.022 . S
Co987 N1004 1.993 . S
Co987 O1012 1.941 . S
C988 O989 1.258 . S
C988 O990 1.263 . S
O989 Co986 1.970 . S
O989 C988 1.258 . S
O990 Co987 1.966 . S
O990 C988 1.263 . S
C991 O992 1.235 . S
C991 O1018 1.289 . S
O992 C991 1.235 . S
C993 C995 1.400 . S
C993 N996 1.351 . S
C993 C998 1.501 . S
C994 C995 1.387 . S
C994 N997 1.341 . S
C995 C993 1.400 . S
C995 C994 1.387 . S
N996 Co987 2.022 . S
N996 C993 1.351 . S
N996 N997 1.365 . S
N997 C994 1.341 . S
N997 N996 1.365 . S
N997 H1017 0.862 . S
C998 C993 1.501 . S
C998 H999 0.961 . S
C998 H1000 0.961 . S
C998 H1001 0.960 . S
H999 C998 0.961 . S
H1000 C998 0.961 . S
H1001 C998 0.960 . S
C1002 N1003 1.342 . S
C1002 C1006 1.401 . S
C1002 C1007 1.499 . S
N1003 Co986 1.989 . S
N1003 C1002 1.342 . S
N1003 N1004 1.388 . S
N1004 Co987 1.993 . S
N1004 N1003 1.388 . S
N1004 C1005 1.346 . S
C1005 N1004 1.346 . S
C1005 C1006 1.396 . S
C1005 C1015 1.510 . S
C1006 C1002 1.401 . S
C1006 C1005 1.396 . S
C1007 C1002 1.499 . S
C1007 H1008 0.959 . S
C1007 H1009 0.960 . S
C1007 H1010 0.961 . S
H1008 C1007 0.959 . S
H1009 C1007 0.960 . S
H1010 C1007 0.961 . S
O1011 Co986 1.967 . S
O1011 C1019 1.258 . S
O1012 Co987 1.941 . S
O1012 C1019 1.266 . S
H1013 C1015 0.959 . S
H1014 C1015 0.961 . S
C1015 C1005 1.510 . S
C1015 H1013 0.959 . S
C1015 H1014 0.961 . S
C1015 H1016 0.960 . S
H1016 C1015 0.960 . S
H1017 N997 0.862 . S
O1018 Co986 1.920 . S
O1018 C991 1.289 . S
C1019 O1011 1.258 . S
C1019 O1012 1.266 . S
Co1020 O1023 1.970 . S
Co1020 N1037 1.989 . S
Co1020 O1045 1.967 . S
Co1020 O1052 1.920 . S
Co1021 O1024 1.966 . S
Co1021 N1030 2.022 . S
Co1021 N1038 1.993 . S
Co1021 O1046 1.941 . S
C1022 O1023 1.258 . S
C1022 O1024 1.263 . S
O1023 Co1020 1.970 . S
O1023 C1022 1.258 . S
O1024 Co1021 1.966 . S
O1024 C1022 1.263 . S
C1025 O1026 1.235 . S
C1025 O1052 1.289 . S
O1026 C1025 1.235 . S
C1027 C1029 1.400 . S
C1027 N1030 1.351 . S
C1027 C1032 1.501 . S
C1028 C1029 1.387 . S
C1028 N1031 1.341 . S
C1029 C1027 1.400 . S
C1029 C1028 1.387 . S
N1030 Co1021 2.022 . S
N1030 C1027 1.351 . S
N1030 N1031 1.365 . S
N1031 C1028 1.341 . S
N1031 N1030 1.365 . S
N1031 H1051 0.862 . S
C1032 C1027 1.501 . S
C1032 H1033 0.961 . S
C1032 H1034 0.961 . S
C1032 H1035 0.960 . S
H1033 C1032 0.961 . S
H1034 C1032 0.961 . S
H1035 C1032 0.960 . S
C1036 N1037 1.342 . S
C1036 C1040 1.401 . S
C1036 C1041 1.499 . S
N1037 Co1020 1.989 . S
N1037 C1036 1.342 . S
N1037 N1038 1.388 . S
N1038 Co1021 1.993 . S
N1038 N1037 1.388 . S
N1038 C1039 1.346 . S
C1039 N1038 1.346 . S
C1039 C1040 1.396 . S
C1039 C1049 1.510 . S
C1040 C1036 1.401 . S
C1040 C1039 1.396 . S
C1041 C1036 1.499 . S
C1041 H1042 0.959 . S
C1041 H1043 0.960 . S
C1041 H1044 0.961 . S
H1042 C1041 0.959 . S
H1043 C1041 0.960 . S
H1044 C1041 0.961 . S
O1045 Co1020 1.967 . S
O1045 C1053 1.258 . S
O1046 Co1021 1.941 . S
O1046 C1053 1.266 . S
H1047 C1049 0.959 . S
H1048 C1049 0.961 . S
C1049 C1039 1.510 . S
C1049 H1047 0.959 . S
C1049 H1048 0.961 . S
C1049 H1050 0.960 . S
H1050 C1049 0.960 . S
H1051 N1031 0.862 . S
O1052 Co1020 1.920 . S
O1052 C1025 1.289 . S
C1053 O1045 1.258 . S
C1053 O1046 1.266 . S
Co1054 O1057 1.970 . S
Co1054 N1071 1.989 . S
Co1054 O1079 1.967 . S
Co1054 O1086 1.920 . S
Co1055 O1058 1.966 . S
Co1055 N1064 2.022 . S
Co1055 N1072 1.993 . S
Co1055 O1080 1.941 . S
C1056 O1057 1.258 . S
C1056 O1058 1.263 . S
O1057 Co1054 1.970 . S
O1057 C1056 1.258 . S
O1058 Co1055 1.966 . S
O1058 C1056 1.263 . S
C1059 O1060 1.235 . S
C1059 O1086 1.289 . S
O1060 C1059 1.235 . S
C1061 C1063 1.400 . S
C1061 N1064 1.351 . S
C1061 C1066 1.501 . S
C1062 C1063 1.387 . S
C1062 N1065 1.341 . S
C1063 C1061 1.400 . S
C1063 C1062 1.387 . S
N1064 Co1055 2.022 . S
N1064 C1061 1.351 . S
N1064 N1065 1.365 . S
N1065 C1062 1.341 . S
N1065 N1064 1.365 . S
N1065 H1085 0.862 . S
C1066 C1061 1.501 . S
C1066 H1067 0.961 . S
C1066 H1068 0.961 . S
C1066 H1069 0.960 . S
H1067 C1066 0.961 . S
H1068 C1066 0.961 . S
H1069 C1066 0.960 . S
C1070 N1071 1.342 . S
C1070 C1074 1.401 . S
C1070 C1075 1.499 . S
N1071 Co1054 1.989 . S
N1071 C1070 1.342 . S
N1071 N1072 1.388 . S
N1072 Co1055 1.993 . S
N1072 N1071 1.388 . S
N1072 C1073 1.346 . S
C1073 N1072 1.346 . S
C1073 C1074 1.396 . S
C1073 C1083 1.510 . S
C1074 C1070 1.401 . S
C1074 C1073 1.396 . S
C1075 C1070 1.499 . S
C1075 H1076 0.959 . S
C1075 H1077 0.960 . S
C1075 H1078 0.961 . S
H1076 C1075 0.959 . S
H1077 C1075 0.960 . S
H1078 C1075 0.961 . S
O1079 Co1054 1.967 . S
O1079 C1087 1.258 . S
O1080 Co1055 1.941 . S
O1080 C1087 1.266 . S
H1081 C1083 0.959 . S
H1082 C1083 0.961 . S
C1083 C1073 1.510 . S
C1083 H1081 0.959 . S
C1083 H1082 0.961 . S
C1083 H1084 0.960 . S
H1084 C1083 0.960 . S
H1085 N1065 0.862 . S
O1086 Co1054 1.920 . S
O1086 C1059 1.289 . S
C1087 O1079 1.258 . S
C1087 O1080 1.266 . S
Co1088 O1091 1.970 . S
Co1088 N1105 1.989 . S
Co1088 O1113 1.967 . S
Co1088 O1120 1.920 . S
Co1089 O1092 1.966 . S
Co1089 N1098 2.022 . S
Co1089 N1106 1.993 . S
Co1089 O1114 1.941 . S
C1090 O1091 1.258 . S
C1090 O1092 1.263 . S
O1091 Co1088 1.970 . S
O1091 C1090 1.258 . S
O1092 Co1089 1.966 . S
O1092 C1090 1.263 . S
C1093 O1094 1.235 . S
C1093 O1120 1.289 . S
O1094 C1093 1.235 . S
C1095 C1097 1.400 . S
C1095 N1098 1.351 . S
C1095 C1100 1.501 . S
C1096 C1097 1.387 . S
C1096 N1099 1.341 . S
C1097 C1095 1.400 . S
C1097 C1096 1.387 . S
N1098 Co1089 2.022 . S
N1098 C1095 1.351 . S
N1098 N1099 1.365 . S
N1099 C1096 1.341 . S
N1099 N1098 1.365 . S
N1099 H1119 0.862 . S
C1100 C1095 1.501 . S
C1100 H1101 0.961 . S
C1100 H1102 0.961 . S
C1100 H1103 0.960 . S
H1101 C1100 0.961 . S
H1102 C1100 0.961 . S
H1103 C1100 0.960 . S
C1104 N1105 1.342 . S
C1104 C1108 1.401 . S
C1104 C1109 1.499 . S
N1105 Co1088 1.989 . S
N1105 C1104 1.342 . S
N1105 N1106 1.388 . S
N1106 Co1089 1.993 . S
N1106 N1105 1.388 . S
N1106 C1107 1.346 . S
C1107 N1106 1.346 . S
C1107 C1108 1.396 . S
C1107 C1117 1.510 . S
C1108 C1104 1.401 . S
C1108 C1107 1.396 . S
C1109 C1104 1.499 . S
C1109 H1110 0.959 . S
C1109 H1111 0.960 . S
C1109 H1112 0.961 . S
H1110 C1109 0.959 . S
H1111 C1109 0.960 . S
H1112 C1109 0.961 . S
O1113 Co1088 1.967 . S
O1113 C1121 1.258 . S
O1114 Co1089 1.941 . S
O1114 C1121 1.266 . S
H1115 C1117 0.959 . S
H1116 C1117 0.961 . S
C1117 C1107 1.510 . S
C1117 H1115 0.959 . S
C1117 H1116 0.961 . S
C1117 H1118 0.960 . S
H1118 C1117 0.960 . S
H1119 N1099 0.862 . S
O1120 Co1088 1.920 . S
O1120 C1093 1.289 . S
C1121 O1113 1.258 . S
C1121 O1114 1.266 . S
Co1122 O1125 1.970 . S
Co1122 N1139 1.989 1_554 S
Co1122 O1147 1.967 . S
Co1122 O1154 1.920 . S
Co1123 O1126 1.966 . S
Co1123 N1132 2.022 . S
Co1123 N1140 1.993 . S
Co1123 O1148 1.941 . S
C1124 O1125 1.258 1_556 S
C1124 O1126 1.263 . S
O1125 Co1122 1.970 . S
O1125 C1124 1.258 1_554 S
O1126 Co1123 1.966 . S
O1126 C1124 1.263 . S
C1127 O1128 1.235 . S
C1127 O1154 1.289 . S
O1128 C1127 1.235 . S
C1129 C1131 1.400 . S
C1129 N1132 1.351 . S
C1129 C1134 1.501 . S
C1130 C1131 1.387 . S
C1130 N1133 1.341 . S
C1131 C1129 1.400 . S
C1131 C1130 1.387 . S
N1132 Co1123 2.022 . S
N1132 C1129 1.351 . S
N1132 N1133 1.365 . S
N1133 C1130 1.341 . S
N1133 N1132 1.365 . S
N1133 H1153 0.862 . S
C1134 C1129 1.501 . S
C1134 H1135 0.961 . S
C1134 H1136 0.961 . S
C1134 H1137 0.960 . S
H1135 C1134 0.961 . S
H1136 C1134 0.961 . S
H1137 C1134 0.960 . S
C1138 N1139 1.342 . S
C1138 C1142 1.401 . S
C1138 C1143 1.499 1_556 S
N1139 Co1122 1.989 1_556 S
N1139 C1138 1.342 . S
N1139 N1140 1.388 . S
N1140 Co1123 1.993 . S
N1140 N1139 1.388 . S
N1140 C1141 1.346 . S
C1141 N1140 1.346 . S
C1141 C1142 1.396 . S
C1141 C1151 1.510 . S
C1142 C1138 1.401 . S
C1142 C1141 1.396 . S
C1143 C1138 1.499 1_554 S
C1143 H1144 0.959 . S
C1143 H1145 0.960 . S
C1143 H1146 0.961 . S
H1144 C1143 0.959 . S
H1145 C1143 0.960 . S
H1146 C1143 0.961 . S
O1147 Co1122 1.967 . S
O1147 C1155 1.258 1_554 S
O1148 Co1123 1.941 . S
O1148 C1155 1.266 . S
H1149 C1151 0.959 . S
H1150 C1151 0.961 . S
C1151 C1141 1.510 . S
C1151 H1149 0.959 . S
C1151 H1150 0.961 . S
C1151 H1152 0.960 . S
H1152 C1151 0.960 . S
H1153 N1133 0.862 . S
O1154 Co1122 1.920 . S
O1154 C1127 1.289 . S
C1155 O1147 1.258 1_556 S
C1155 O1148 1.266 . S
Co1156 O1159 1.970 . S
Co1156 N1173 1.989 1_554 S
Co1156 O1181 1.967 . S
Co1156 O1188 1.920 . S
Co1157 O1160 1.966 . S
Co1157 N1166 2.022 . S
Co1157 N1174 1.993 . S
Co1157 O1182 1.941 . S
C1158 O1159 1.258 1_556 S
C1158 O1160 1.263 . S
O1159 Co1156 1.970 . S
O1159 C1158 1.258 1_554 S
O1160 Co1157 1.966 . S
O1160 C1158 1.263 . S
C1161 O1162 1.235 . S
C1161 O1188 1.289 . S
O1162 C1161 1.235 . S
C1163 C1165 1.400 . S
C1163 N1166 1.351 . S
C1163 C1168 1.501 . S
C1164 C1165 1.387 . S
C1164 N1167 1.341 . S
C1165 C1163 1.400 . S
C1165 C1164 1.387 . S
N1166 Co1157 2.022 . S
N1166 C1163 1.351 . S
N1166 N1167 1.365 . S
N1167 C1164 1.341 . S
N1167 N1166 1.365 . S
N1167 H1187 0.862 . S
C1168 C1163 1.501 . S
C1168 H1169 0.961 . S
C1168 H1170 0.961 . S
C1168 H1171 0.960 . S
H1169 C1168 0.961 . S
H1170 C1168 0.961 . S
H1171 C1168 0.960 . S
C1172 N1173 1.342 . S
C1172 C1176 1.401 . S
C1172 C1177 1.499 1_556 S
N1173 Co1156 1.989 1_556 S
N1173 C1172 1.342 . S
N1173 N1174 1.388 . S
N1174 Co1157 1.993 . S
N1174 N1173 1.388 . S
N1174 C1175 1.346 . S
C1175 N1174 1.346 . S
C1175 C1176 1.396 . S
C1175 C1185 1.510 . S
C1176 C1172 1.401 . S
C1176 C1175 1.396 . S
C1177 C1172 1.499 1_554 S
C1177 H1178 0.959 . S
C1177 H1179 0.960 . S
C1177 H1180 0.961 . S
H1178 C1177 0.959 . S
H1179 C1177 0.960 . S
H1180 C1177 0.961 . S
O1181 Co1156 1.967 . S
O1181 C1189 1.258 1_554 S
O1182 Co1157 1.941 . S
O1182 C1189 1.266 . S
H1183 C1185 0.959 . S
H1184 C1185 0.961 . S
C1185 C1175 1.510 . S
C1185 H1183 0.959 . S
C1185 H1184 0.961 . S
C1185 H1186 0.960 . S
H1186 C1185 0.960 . S
H1187 N1167 0.862 . S
O1188 Co1156 1.920 . S
O1188 C1161 1.289 . S
C1189 O1181 1.258 1_556 S
C1189 O1182 1.266 . S
Co1190 O1193 1.970 . S
Co1190 N1207 1.989 1_554 S
Co1190 O1215 1.967 . S
Co1190 O1222 1.920 . S
Co1191 O1194 1.966 . S
Co1191 N1200 2.022 . S
Co1191 N1208 1.993 . S
Co1191 O1216 1.941 . S
C1192 O1193 1.258 1_556 S
C1192 O1194 1.263 . S
O1193 Co1190 1.970 . S
O1193 C1192 1.258 1_554 S
O1194 Co1191 1.966 . S
O1194 C1192 1.263 . S
C1195 O1196 1.235 . S
C1195 O1222 1.289 . S
O1196 C1195 1.235 . S
C1197 C1199 1.400 . S
C1197 N1200 1.351 . S
C1197 C1202 1.501 . S
C1198 C1199 1.387 . S
C1198 N1201 1.341 . S
C1199 C1197 1.400 . S
C1199 C1198 1.387 . S
N1200 Co1191 2.022 . S
N1200 C1197 1.351 . S
N1200 N1201 1.365 . S
N1201 C1198 1.341 . S
N1201 N1200 1.365 . S
N1201 H1221 0.862 . S
C1202 C1197 1.501 . S
C1202 H1203 0.961 . S
C1202 H1204 0.961 . S
C1202 H1205 0.960 . S
H1203 C1202 0.961 . S
H1204 C1202 0.961 . S
H1205 C1202 0.960 . S
C1206 N1207 1.342 . S
C1206 C1210 1.401 . S
C1206 C1211 1.499 1_556 S
N1207 Co1190 1.989 1_556 S
N1207 C1206 1.342 . S
N1207 N1208 1.388 . S
N1208 Co1191 1.993 . S
N1208 N1207 1.388 . S
N1208 C1209 1.346 . S
C1209 N1208 1.346 . S
C1209 C1210 1.396 . S
C1209 C1219 1.510 . S
C1210 C1206 1.401 . S
C1210 C1209 1.396 . S
C1211 C1206 1.499 1_554 S
C1211 H1212 0.959 . S
C1211 H1213 0.960 . S
C1211 H1214 0.961 . S
H1212 C1211 0.959 . S
H1213 C1211 0.960 . S
H1214 C1211 0.961 . S
O1215 Co1190 1.967 . S
O1215 C1223 1.258 1_554 S
O1216 Co1191 1.941 . S
O1216 C1223 1.266 . S
H1217 C1219 0.959 . S
H1218 C1219 0.961 . S
C1219 C1209 1.510 . S
C1219 H1217 0.959 . S
C1219 H1218 0.961 . S
C1219 H1220 0.960 . S
H1220 C1219 0.960 . S
H1221 N1201 0.862 . S
O1222 Co1190 1.920 . S
O1222 C1195 1.289 . S
C1223 O1215 1.258 1_556 S
C1223 O1216 1.266 . S
C20 C530 1.754 . S
C564 C54 1.753 . S
C598 C88 1.753 . S
C836 C122 1.754 . S
C156 C870 1.753 . S
C904 C190 1.753 . S
C1142 C224 1.754 . S
C258 C1176 1.753 . S
C1210 C292 1.753 . S
C632 C326 1.754 . S
C666 C360 1.753 . S
C700 C394 1.753 . S
C938 C428 1.754 . S
C972 C462 1.753 1_565 S
C496 C1006 1.753 1_655 S
C734 C1040 1.754 . S
C1074 C768 1.753 1_565 S
C802 C1108 1.753 1_655 S
C1019 C33 1.638 . S
C67 C951 1.638 . S
C985 C101 1.638 . S
C475 C135 1.638 . S
C509 C169 1.638 . S
C441 C203 1.638 . S
C237 C815 1.638 . S
C747 C271 1.638 . S
C305 C781 1.638 . S
C1087 C339 1.638 . S
C373 C1121 1.638 . S
C407 C1053 1.638 . S
C883 C543 1.638 1_656 S
C917 C577 1.638 1_556 S
C611 C849 1.638 1_564 S
C645 C1223 1.638 1_564 S
C1155 C679 1.638 1_656 S
C1189 C713 1.638 1_556 S
C2 C376 1.495 . S
C36 C308 1.495 . S
C70 C342 1.494 . S
C104 C240 1.495 . S
C274 C138 1.494 . S
C206 C172 1.495 . S
C784 C410 1.495 . S
C716 C444 1.495 . S
C478 C750 1.494 . S
C648 C512 1.495 . S
C682 C546 1.494 . S
C614 C580 1.495 . S
C1192 C818 1.495 . S
C852 C1124 1.495 . S
C1158 C886 1.494 . S
C1056 C920 1.495 . S
C1090 C954 1.494 . S
C1022 C988 1.495 . S
C9 C5 1.810 . S
C39 C43 1.810 . S
C77 C73 1.810 . S
C107 C111 1.810 . S
C141 C145 1.810 . S
C175 C179 1.810 . S
C209 C213 1.810 . S
C243 C247 1.810 . S
C281 C277 1.810 . S
C315 C311 1.810 . S
C345 C349 1.810 . S
C383 C379 1.810 . S
C413 C417 1.810 1_556 S
C447 C451 1.810 1_556 S
C481 C485 1.810 1_556 S
C515 C519 1.810 . S
C549 C553 1.811 . S
C587 C583 1.810 . S
C617 C621 1.810 . S
C655 C651 1.810 . S
C689 C685 1.811 . S
C723 C719 1.810 1_554 S
C753 C757 1.810 1_556 S
C787 C791 1.810 1_556 S
C825 C821 1.810 . S
C859 C855 1.810 . S
C889 C893 1.811 . S
C923 C927 1.810 1_554 S
C961 C957 1.810 1_556 S
C991 C995 1.810 1_554 S
C1029 C1025 1.810 1_556 S
C1063 C1059 1.810 1_556 S
C1097 C1093 1.810 1_556 S
C1127 C1131 1.810 . S
C1165 C1161 1.811 . S
C1195 C1199 1.810 . S
