# Generated by pormake.
# Topology fnl, (5)-cn, num edge types: 1
# Building blocks:
#     Node 0, Type 0, BuildingBlock: XOMCOT_clean_sbu_0, # of connection points: 5
#     Node 1, Type 0, BuildingBlock: XOMCOT_clean_sbu_0, # of connection points: 5
#     Node 2, Type 0, BuildingBlock: XOMCOT_clean_sbu_0, # of connection points: 5
#     Node 3, Type 0, BuildingBlock: XOMCOT_clean_sbu_0, # of connection points: 5
#     Node 4, Type 0, BuildingBlock: XOMCOT_clean_sbu_0, # of connection points: 5
#     Node 5, Type 0, BuildingBlock: XOMCOT_clean_sbu_0, # of connection points: 5
#     Node 6, Type 0, BuildingBlock: XOMCOT_clean_sbu_0, # of connection points: 5
#     Node 7, Type 0, BuildingBlock: XOMCOT_clean_sbu_0, # of connection points: 5
#     Node 8, Type 0, BuildingBlock: XOMCOT_clean_sbu_0, # of connection points: 5
#     Node 9, Type 0, BuildingBlock: XOMCOT_clean_sbu_0, # of connection points: 5
#     Node 10, Type 0, BuildingBlock: XOMCOT_clean_sbu_0, # of connection points: 5
#     Node 11, Type 0, BuildingBlock: XOMCOT_clean_sbu_0, # of connection points: 5
#     Node 12, Type 0, BuildingBlock: XOMCOT_clean_sbu_0, # of connection points: 5
#     Node 13, Type 0, BuildingBlock: XOMCOT_clean_sbu_0, # of connection points: 5
#     Node 14, Type 0, BuildingBlock: XOMCOT_clean_sbu_0, # of connection points: 5
#     Node 15, Type 0, BuildingBlock: XOMCOT_clean_sbu_0, # of connection points: 5
#     Edge 16, Type (0, 0), BuildingBlock: ZUJKAS_clean_linker_0, # of connection points: 2
#     Edge 17, Type (0, 0), BuildingBlock: ZUJKAS_clean_linker_0, # of connection points: 2
#     Edge 18, Type (0, 0), BuildingBlock: ZUJKAS_clean_linker_0, # of connection points: 2
#     Edge 19, Type (0, 0), BuildingBlock: ZUJKAS_clean_linker_0, # of connection points: 2
#     Edge 20, Type (0, 0), BuildingBlock: ZUJKAS_clean_linker_0, # of connection points: 2
#     Edge 21, Type (0, 0), BuildingBlock: ZUJKAS_clean_linker_0, # of connection points: 2
#     Edge 22, Type (0, 0), BuildingBlock: ZUJKAS_clean_linker_0, # of connection points: 2
#     Edge 23, Type (0, 0), BuildingBlock: ZUJKAS_clean_linker_0, # of connection points: 2
#     Edge 24, Type (0, 0), BuildingBlock: ZUJKAS_clean_linker_0, # of connection points: 2
#     Edge 25, Type (0, 0), BuildingBlock: ZUJKAS_clean_linker_0, # of connection points: 2
#     Edge 26, Type (0, 0), BuildingBlock: ZUJKAS_clean_linker_0, # of connection points: 2
#     Edge 27, Type (0, 0), BuildingBlock: ZUJKAS_clean_linker_0, # of connection points: 2
#     Edge 28, Type (0, 0), BuildingBlock: ZUJKAS_clean_linker_0, # of connection points: 2
#     Edge 29, Type (0, 0), BuildingBlock: ZUJKAS_clean_linker_0, # of connection points: 2
#     Edge 30, Type (0, 0), BuildingBlock: ZUJKAS_clean_linker_0, # of connection points: 2
#     Edge 31, Type (0, 0), BuildingBlock: ZUJKAS_clean_linker_0, # of connection points: 2
#     Edge 32, Type (0, 0), BuildingBlock: ZUJKAS_clean_linker_0, # of connection points: 2
#     Edge 33, Type (0, 0), BuildingBlock: ZUJKAS_clean_linker_0, # of connection points: 2
#     Edge 34, Type (0, 0), BuildingBlock: ZUJKAS_clean_linker_0, # of connection points: 2
#     Edge 35, Type (0, 0), BuildingBlock: ZUJKAS_clean_linker_0, # of connection points: 2
#     Edge 36, Type (0, 0), BuildingBlock: ZUJKAS_clean_linker_0, # of connection points: 2
#     Edge 37, Type (0, 0), BuildingBlock: ZUJKAS_clean_linker_0, # of connection points: 2
#     Edge 38, Type (0, 0), BuildingBlock: ZUJKAS_clean_linker_0, # of connection points: 2
#     Edge 39, Type (0, 0), BuildingBlock: ZUJKAS_clean_linker_0, # of connection points: 2
#     Edge 40, Type (0, 0), BuildingBlock: ZUJKAS_clean_linker_0, # of connection points: 2
#     Edge 41, Type (0, 0), BuildingBlock: ZUJKAS_clean_linker_0, # of connection points: 2
#     Edge 42, Type (0, 0), BuildingBlock: ZUJKAS_clean_linker_0, # of connection points: 2
#     Edge 43, Type (0, 0), BuildingBlock: ZUJKAS_clean_linker_0, # of connection points: 2
#     Edge 44, Type (0, 0), BuildingBlock: ZUJKAS_clean_linker_0, # of connection points: 2
#     Edge 45, Type (0, 0), BuildingBlock: ZUJKAS_clean_linker_0, # of connection points: 2
#     Edge 46, Type (0, 0), BuildingBlock: ZUJKAS_clean_linker_0, # of connection points: 2
#     Edge 47, Type (0, 0), BuildingBlock: ZUJKAS_clean_linker_0, # of connection points: 2
#     Edge 48, Type (0, 0), BuildingBlock: ZUJKAS_clean_linker_0, # of connection points: 2
#     Edge 49, Type (0, 0), BuildingBlock: ZUJKAS_clean_linker_0, # of connection points: 2
#     Edge 50, Type (0, 0), BuildingBlock: ZUJKAS_clean_linker_0, # of connection points: 2
#     Edge 51, Type (0, 0), BuildingBlock: ZUJKAS_clean_linker_0, # of connection points: 2
#     Edge 52, Type (0, 0), BuildingBlock: ZUJKAS_clean_linker_0, # of connection points: 2
#     Edge 53, Type (0, 0), BuildingBlock: ZUJKAS_clean_linker_0, # of connection points: 2
#     Edge 54, Type (0, 0), BuildingBlock: ZUJKAS_clean_linker_0, # of connection points: 2
#     Edge 55, Type (0, 0), BuildingBlock: ZUJKAS_clean_linker_0, # of connection points: 2
# Relax obj value: 0.519
# Max RMSD: 0.271
# Mean RMSD: 0.271
data_MOF--net-fnl--node1-XOMCOT_clean_sbu_0--edge1-ZUJKAS_clean_linker_0
_symmetry_space_group_name_H-M    P1
_symmetry_Int_Tables_number       1
_symmetry_cell_setting            triclinic
loop_
_symmetry_equiv_pos_as_xyz
'x, y, z'
_cell_length_a     42.825758
_cell_length_b     42.832515
_cell_length_c     121.9768
_cell_angle_alpha  89.975342
_cell_angle_beta   89.976389
_cell_angle_gamma 89.992248
loop_
_atom_site_label
_atom_site_type_symbol
_atom_site_fract_x
_atom_site_fract_y
_atom_site_fract_z
_atom_type_partial_charge
Co0 Co 0.03141 0.03932 0.07667 0.0
C1 C 0.04342 0.10513 0.08326 0.0
C2 C 0.08527 0.08124 0.07853 0.0
C3 C 0.09299 0.11129 0.08148 0.0
N4 N 0.05417 0.07738 0.07969 0.0
N5 N 0.0666 0.12611 0.0845 0.0
H6 H 0.01924 0.11041 0.08475 0.0
H7 H 0.1013 0.0633 0.07583 0.0
C8 C 0.06946 0.02618 0.09685 0.0
O9 O 0.06549 0.05499 0.10026 0.0
N10 N 0.0095 0.00125 0.07351 0.0
C11 C 0.97893 0.99745 0.07127 0.0
C12 C 0.97357 0.96627 0.06922 0.0
C13 C 0.02239 0.97275 0.07267 0.0
N14 N 0.00098 0.95092 0.07007 0.0
C15 C 0.97531 0.07049 0.08331 0.0
C16 C 0.96727 0.03891 0.10284 0.0
C17 C 0.94383 0.05907 0.09919 0.0
C18 C 0.948 0.07513 0.08935 0.0
C19 C 0.99384 0.03432 0.09643 0.0
N20 N -0.00198 0.05039 0.08686 0.0
H21 H 0.97768 0.08238 0.07555 0.0
H22 H 0.00969 0.01618 0.09892 0.0
H23 H 0.96183 0.01599 0.07101 0.0
H24 H 0.04696 0.96814 0.07397 0.0
O25 O 0.01485 0.05754 0.06338 0.0
O26 O 0.05914 0.03099 0.0646 0.0
O27 O 0.05626 0.01651 0.08811 0.0
C28 C 0.03924 0.04591 0.0585 0.0
H29 H 0.11617 0.12135 0.08147 0.0
H30 H 0.95141 0.95583 0.06704 0.0
H31 H 0.96405 0.02511 0.1102 0.0
H32 H 0.92984 0.09023 0.08616 0.0
Co33 Co 0.27803 0.78162 0.32555 0.0
C34 C 0.21152 0.78727 0.33236 0.0
C35 C 0.23532 0.83126 0.33249 0.0
C36 C 0.2047 0.83622 0.33547 0.0
N37 N 0.2397 0.80046 0.33072 0.0
N38 N 0.18988 0.8085 0.33531 0.0
H39 H 0.20644 0.76289 0.33128 0.0
H40 H 0.25316 0.84893 0.33155 0.0
C41 C 0.29495 0.81202 0.34691 0.0
O42 O 0.26822 0.80316 0.35119 0.0
N43 N 0.31629 0.7637 0.32022 0.0
C44 C 0.32043 0.73514 0.31585 0.0
C45 C 0.35137 0.73201 0.31297 0.0
C46 C 0.34437 0.77767 0.31986 0.0
N47 N 0.36634 0.75881 0.31549 0.0
C48 C 0.25185 0.72211 0.33128 0.0
C49 C 0.29392 0.70855 0.34773 0.0
C50 C 0.27318 0.68529 0.34427 0.0
C51 C 0.2514 0.69255 0.33613 0.0
C52 C 0.29357 0.73773 0.3427 0.0
N53 N 0.27247 0.74455 0.33464 0.0
H54 H 0.23687 0.72613 0.32432 0.0
H55 H 0.31208 0.75366 0.34476 0.0
H56 H 0.30223 0.71791 0.31478 0.0
H57 H 0.34863 0.80106 0.32285 0.0
O58 O 0.25713 0.76772 0.31242 0.0
O59 O 0.28086 0.81338 0.31444 0.0
O60 O 0.30234 0.80434 0.33714 0.0
C61 C 0.26582 0.79413 0.30811 0.0
H62 H 0.19393 0.85852 0.33723 0.0
H63 H 0.36189 0.71173 0.30918 0.0
H64 H 0.31146 0.70371 0.3539 0.0
H65 H 0.23564 0.67491 0.33299 0.0
Co66 Co 0.54176 0.03107 0.57446 0.0
C67 C 0.5346 0.96421 0.5785 0.0
C68 C 0.4928 0.98916 0.58273 0.0
C69 C 0.48845 0.95798 0.58508 0.0
N70 N 0.52177 0.99283 0.57865 0.0
N71 N 0.51486 0.94243 0.58247 0.0
H72 H 0.55795 0.95956 0.57553 0.0
H73 H 0.47621 0.00785 0.58401 0.0
C74 C 0.53031 0.07488 0.59301 0.0
O75 O 0.5602 0.08182 0.59302 0.0
N76 N 0.56097 0.07021 0.5701 0.0
C77 C 0.59017 0.07689 0.56664 0.0
C78 C 0.59172 0.10814 0.56404 0.0
C79 C 0.54511 0.09727 0.5692 0.0
N80 N 0.56335 0.12092 0.56571 0.0
C81 C 0.60468 0.01181 0.57872 0.0
C82 C 0.59977 0.0088 0.60125 0.0
C83 C 0.62934 0.00535 0.59641 0.0
C84 C 0.63126 0.00556 0.58493 0.0
C85 C 0.57386 0.01537 0.59468 0.0
N86 N 0.57714 0.0195 0.58364 0.0
H87 H 0.60652 0.01105 0.56991 0.0
H88 H 0.55125 0.0175 0.59853 0.0
H89 H 0.60919 0.06069 0.56578 0.0
H90 H 0.52044 0.09937 0.57097 0.0
O91 O 0.55499 0.01235 0.56086 0.0
O92 O 0.51041 0.03774 0.56341 0.0
O93 O 0.51973 0.05357 0.5867 0.0
C94 C 0.52904 0.02302 0.55676 0.0
H95 H 0.46772 0.94773 0.58866 0.0
H96 H 0.61228 0.12045 0.56123 0.0
H97 H 0.59675 0.00714 0.61004 0.0
H98 H 0.65327 0.00232 0.58072 0.0
Co99 Co 0.28218 0.27829 0.81988 0.0
C100 C 0.34883 0.27054 0.82419 0.0
C101 C 0.32387 0.22785 0.82709 0.0
C102 C 0.35486 0.22324 0.82969 0.0
N103 N 0.32032 0.25755 0.82373 0.0
N104 N 0.37042 0.25019 0.82788 0.0
H105 H 0.35329 0.29479 0.82226 0.0
H106 H 0.3052 0.21095 0.82776 0.0
C107 C 0.24052 0.26622 0.83903 0.0
O108 O 0.23372 0.29615 0.83915 0.0
N109 N 0.24318 0.29827 0.81573 0.0
C110 C 0.23829 0.325 0.8101 0.0
C111 C 0.20691 0.32775 0.80783 0.0
C112 C 0.21489 0.28452 0.81625 0.0
N113 N 0.19229 0.30231 0.81179 0.0
C114 C 0.29873 0.34165 0.8252 0.0
C115 C 0.3069 0.33207 0.84739 0.0
C116 C 0.30761 0.36273 0.84333 0.0
C117 C 0.30476 0.36715 0.83198 0.0
C118 C 0.30042 0.30733 0.84031 0.0
N119 N 0.29391 0.31266 0.8295 0.0
H120 H 0.29803 0.34532 0.81649 0.0
H121 H 0.30014 0.28389 0.84358 0.0
H122 H 0.25603 0.34074 0.80718 0.0
H123 H 0.21105 0.26127 0.81944 0.0
O124 O 0.30098 0.29275 0.80646 0.0
O125 O 0.27513 0.24815 0.80846 0.0
O126 O 0.26015 0.25549 0.83209 0.0
C127 C 0.29006 0.26732 0.80205 0.0
H128 H 0.36504 0.20177 0.8327 0.0
H129 H 0.19585 0.34679 0.80347 0.0
H130 H 0.3106 0.32725 0.85601 0.0
H131 H 0.30599 0.39019 0.82836 0.0
Co132 Co 0.02523 0.0372 0.92382 0.0
C133 C 0.03855 0.97054 0.91861 0.0
C134 C 0.08001 -0.00159 0.91942 0.0
C135 C 0.08856 0.96805 0.91725 0.0
N136 N 0.04861 0.0 0.92013 0.0
N137 N 0.0624 0.95064 0.91679 0.0
H138 H 0.01451 0.9634 0.91886 0.0
H139 H 0.09563 0.01801 0.92051 0.0
C140 C 0.05721 0.05202 0.90262 0.0
O141 O 0.05054 0.02383 0.89908 0.0
N142 N 0.00297 0.07452 0.92769 0.0
C143 C 0.97301 0.07725 0.93092 0.0
C144 C 0.96728 0.10817 0.93333 0.0
C145 C 0.01514 0.10337 0.92827 0.0
N146 N 0.99387 0.12444 0.9317 0.0
C147 C 0.96983 0.00396 0.91747 0.0
C148 C 0.95636 0.04006 0.89934 0.0
C149 C 0.93498 0.01709 0.90258 0.0
C150 C 0.94206 -0.00124 0.91174 0.0
C151 C 0.98361 0.04469 0.90534 0.0
N152 N 0.9907 0.02619 0.91413 0.0
H153 H 0.97375 0.99101 0.92493 0.0
H154 H 0.99762 0.06474 0.90332 0.0
H155 H 0.95666 0.05812 0.9316 0.0
H156 H 0.03912 0.10873 0.9262 0.0
O157 O 0.01078 0.01775 0.93717 0.0
O158 O 0.0544 0.04526 0.93548 0.0
O159 O 0.04788 0.06105 0.91204 0.0
C160 C 0.03553 0.02954 0.94176 0.0
H161 H 0.11216 0.95934 0.9164 0.0
H162 H 0.94546 0.11776 0.93628 0.0
H163 H 0.95107 0.0559 0.89267 0.0
H164 H 0.92577 0.98134 0.9147 0.0
Co165 Co 0.2777 0.77569 0.17454 0.0
C166 C 0.34456 0.78086 0.16767 0.0
C167 C 0.32242 0.82535 0.1697 0.0
C168 C 0.35285 0.83027 0.16651 0.0
N169 N 0.31714 0.79435 0.17034 0.0
N170 N 0.36665 0.80223 0.16527 0.0
H171 H 0.34859 0.75613 0.16732 0.0
H172 H 0.30519 0.84318 0.17138 0.0
C173 C 0.26594 0.80705 0.15297 0.0
O174 O 0.29331 0.79763 0.14941 0.0
N175 N 0.23828 0.75813 0.17887 0.0
C176 C 0.23292 0.72963 0.18312 0.0
C177 C 0.20138 0.72678 0.18511 0.0
C178 C 0.21032 0.77233 0.1784 0.0
N179 N 0.18725 0.75368 0.18214 0.0
C180 C 0.30465 0.71625 0.16907 0.0
C181 C 0.26572 0.70395 0.15158 0.0
C182 C 0.2865 0.68077 0.15508 0.0
C183 C 0.30655 0.6873 0.16382 0.0
C184 C 0.26475 0.73255 0.15698 0.0
N185 N 0.28452 0.73885 0.16548 0.0
H186 H 0.31873 0.72009 0.17629 0.0
H187 H 0.24652 0.74861 0.1547 0.0
H188 H 0.25067 0.71224 0.18469 0.0
H189 H 0.20698 0.79571 0.17527 0.0
O190 O 0.29588 0.76123 0.18812 0.0
O191 O 0.27302 0.80717 0.18564 0.0
O192 O 0.25616 0.79914 0.16246 0.0
C193 C 0.28675 0.78772 0.19225 0.0
H194 H 0.36406 0.85269 0.16539 0.0
H195 H 0.18986 0.7066 0.1886 0.0
H196 H 0.24945 0.69959 0.14495 0.0
H197 H 0.32234 0.66965 0.16694 0.0
Co198 Co 0.53719 0.03538 0.42277 0.0
C199 C 0.53043 0.10241 0.41669 0.0
C200 C 0.48647 0.0786 0.41746 0.0
C201 C 0.48103 0.10917 0.41453 0.0
N202 N 0.51752 0.07427 0.41862 0.0
N203 N 0.50874 0.12396 0.41411 0.0
H204 H 0.55501 0.10745 0.4171 0.0
H205 H 0.46902 0.06064 0.4186 0.0
C206 C 0.50479 0.02168 0.40144 0.0
O207 O 0.51231 0.04937 0.39763 0.0
N208 N 0.55579 0.99642 0.42703 0.0
C209 C 0.58517 0.99106 0.43046 0.0
C210 C 0.58846 0.9595 0.43235 0.0
C211 C 0.54153 0.9685 0.42698 0.0
N212 N 0.56097 0.94537 0.43012 0.0
C213 C 0.59594 0.06319 0.41706 0.0
C214 C 0.60773 0.02602 0.39905 0.0
C215 C 0.63092 0.04674 0.40261 0.0
C216 C 0.62466 0.06568 0.41169 0.0
C217 C 0.5795 0.0241 0.40469 0.0
N218 N 0.57341 0.04304 0.41345 0.0
H219 H 0.59242 0.07664 0.42443 0.0
H220 H 0.56374 0.00565 0.4024 0.0
H221 H 0.60299 0.00873 0.43141 0.0
H222 H 0.51728 0.96537 0.42477 0.0
O223 O 0.55197 0.05407 0.43619 0.0
O224 O 0.50636 0.03026 0.43412 0.0
O225 O 0.51378 0.01285 0.41091 0.0
C226 C 0.52592 0.0445 0.44055 0.0
H227 H 0.45851 0.11984 0.41305 0.0
H228 H 0.60964 0.94787 0.43493 0.0
H229 H 0.61212 0.00985 0.3924 0.0
H230 H 0.64216 0.08156 0.41485 0.0
Co231 Co 0.27786 0.29173 0.66822 0.0
C232 C 0.2111 0.28188 0.66487 0.0
C233 C 0.23761 0.24273 0.65899 0.0
C234 C 0.20643 0.2373 0.65692 0.0
N235 N 0.24029 0.27074 0.66391 0.0
N236 N 0.18994 0.26196 0.66065 0.0
H237 H 0.20561 0.30449 0.66833 0.0
H238 H 0.2569 0.22746 0.657 0.0
C239 C 0.32179 0.28246 0.64948 0.0
O240 O 0.3282 0.31246 0.64969 0.0
N241 N 0.31629 0.312 0.67271 0.0
C242 C 0.32162 0.34074 0.67686 0.0
C243 C 0.35275 0.34318 0.67956 0.0
C244 C 0.344 0.2972 0.67333 0.0
N245 N 0.36676 0.31577 0.67728 0.0
C246 C 0.25727 0.35447 0.66415 0.0
C247 C 0.25543 0.35008 0.6416 0.0
C248 C 0.25218 0.37956 0.64649 0.0
C249 C 0.25148 0.38124 0.65797 0.0
C250 C 0.26139 0.32399 0.64814 0.0
N251 N 0.26527 0.32708 0.6592 0.0
H252 H 0.25601 0.35603 0.67296 0.0
H253 H 0.26367 0.30146 0.64425 0.0
H254 H 0.30449 0.35867 0.67822 0.0
H255 H 0.34716 0.27294 0.67113 0.0
O256 O 0.25868 0.30378 0.68189 0.0
O257 O 0.28543 0.26011 0.6791 0.0
O258 O 0.30106 0.271 0.65585 0.0
C259 C 0.27007 0.27794 0.68584 0.0
H260 H 0.19665 0.21677 0.65306 0.0
H261 H 0.36409 0.36361 0.68293 0.0
H262 H 0.25441 0.34733 0.63278 0.0
H263 H 0.24813 0.40322 0.66218 0.0
Co264 Co 0.77573 0.27151 0.66887 0.0
C265 C 0.84142 0.28756 0.66601 0.0
C266 C 0.81186 0.32469 0.66032 0.0
C267 C 0.84253 0.33294 0.65845 0.0
N268 N 0.81142 0.29619 0.66499 0.0
N269 N 0.86093 0.30954 0.66208 0.0
H270 H 0.84873 0.26522 0.66927 0.0
H271 H 0.7914 0.33835 0.65832 0.0
C272 C 0.73087 0.27965 0.65041 0.0
O273 O 0.72664 0.24927 0.65022 0.0
N274 N 0.73904 0.24752 0.67294 0.0
C275 C 0.73495 0.21693 0.67526 0.0
C276 C 0.70418 0.21208 0.67812 0.0
C277 C 0.71096 0.26076 0.67472 0.0
N278 N 0.6893 0.23975 0.6778 0.0
C279 C 0.80199 0.21165 0.66386 0.0
C280 C 0.8036 0.21898 0.6414 0.0
C281 C 0.80963 0.18932 0.64584 0.0
C282 C 0.81031 0.18634 0.6573 0.0
C283 C 0.79492 0.24351 0.6483 0.0
N284 N 0.79137 0.23871 0.6593 0.0
H285 H 0.80288 0.20898 0.67265 0.0
H286 H 0.79043 0.26615 0.64474 0.0
H287 H 0.75255 0.19905 0.67515 0.0
H288 H 0.70641 0.28541 0.67357 0.0
O289 O 0.79592 0.25927 0.68234 0.0
O290 O 0.7654 0.30077 0.68028 0.0
O291 O 0.7509 0.29187 0.65686 0.0
C292 C 0.78232 0.28343 0.6867 0.0
H293 H 0.85068 0.35443 0.65476 0.0
H294 H 0.69373 0.19004 0.68045 0.0
H295 H 0.80458 0.22301 0.63264 0.0
H296 H 0.81551 0.1643 0.66123 0.0
Co297 Co 0.77327 0.77881 0.1693 0.0
C298 C 0.70832 0.76593 0.16184 0.0
C299 C 0.73381 0.72403 0.16531 0.0
C300 C 0.70411 0.71592 0.16205 0.0
N301 N 0.73643 0.75543 0.16516 0.0
N302 N 0.68829 0.74236 0.15982 0.0
H303 H 0.70203 0.79016 0.16113 0.0
H304 H 0.75229 0.70811 0.16761 0.0
C305 C 0.78915 0.74748 0.14801 0.0
O306 O 0.76054 0.7519 0.14447 0.0
N307 N 0.81013 0.80136 0.17355 0.0
C308 C 0.81179 0.83016 0.17793 0.0
C309 C 0.84269 0.8369 0.18002 0.0
C310 C 0.83968 0.79087 0.17306 0.0
N311 N 0.8601 0.81216 0.17692 0.0
C312 C 0.74021 0.83506 0.16412 0.0
C313 C 0.77543 0.85092 0.146 0.0
C314 C 0.75387 0.87255 0.15011 0.0
C315 C 0.73574 0.86415 0.15918 0.0
C316 C 0.77946 0.82231 0.15126 0.0
N317 N 0.76176 0.81436 0.16015 0.0
H318 H 0.72707 0.82972 0.17144 0.0
H319 H 0.79864 0.80797 0.1486 0.0
H320 H 0.79197 0.84511 0.17954 0.0
H321 H 0.846 0.76782 0.1702 0.0
O322 O 0.75325 0.79102 0.18283 0.0
O323 O 0.78205 0.74847 0.18054 0.0
O324 O 0.79778 0.75801 0.15731 0.0
C325 C 0.76579 0.76611 0.18706 0.0
H326 H 0.69491 0.69247 0.16135 0.0
H327 H 0.85164 0.85838 0.18347 0.0
H328 H 0.79088 0.85698 0.13929 0.0
H329 H 0.71918 0.88042 0.16271 0.0
Co330 Co 0.7775 0.27866 0.82175 0.0
C331 C 0.71248 0.29254 0.82887 0.0
C332 C 0.7374 0.33376 0.82413 0.0
C333 C 0.70752 0.34224 0.82707 0.0
N334 N 0.74045 0.30255 0.82525 0.0
N335 N 0.69212 0.31624 0.83011 0.0
H336 H 0.70644 0.26851 0.83033 0.0
H337 H 0.75565 0.34929 0.82132 0.0
C338 C 0.79302 0.31451 0.84218 0.0
O339 O 0.76466 0.30983 0.84594 0.0
N340 N 0.8146 0.25567 0.81813 0.0
C341 C 0.81698 0.2256 0.81502 0.0
C342 C 0.84789 0.21931 0.81277 0.0
C343 C 0.84367 0.26735 0.81764 0.0
N344 N 0.86456 0.24566 0.8144 0.0
C345 C 0.74466 0.22343 0.82837 0.0
C346 C 0.7772 0.21348 0.84758 0.0
C347 C 0.75524 0.19141 0.84419 0.0
C348 C 0.73886 0.19641 0.83446 0.0
C349 C 0.78283 0.23974 0.84114 0.0
N350 N 0.76603 0.24509 0.8318 0.0
H351 H 0.73234 0.22656 0.82073 0.0
H352 H 0.80209 0.25448 0.84342 0.0
H353 H 0.79761 0.20954 0.81429 0.0
H354 H 0.8493 0.29129 0.81964 0.0
O355 O 0.75779 0.26349 0.80853 0.0
O356 O 0.78615 0.30666 0.8098 0.0
O357 O 0.80171 0.30227 0.83314 0.0
C358 C 0.77016 0.28762 0.80371 0.0
H359 H 0.69786 0.36559 0.82695 0.0
H360 H 0.85722 0.19726 0.80993 0.0
H361 H 0.79128 0.20947 0.85483 0.0
H362 H 0.72239 0.17923 0.83145 0.0
Co363 Co 0.781 0.78656 0.32092 0.0
C364 C 0.84659 0.77344 0.32561 0.0
C365 C 0.81723 0.73561 0.33084 0.0
C366 C 0.84745 0.72933 0.33405 0.0
N367 N 0.81688 0.76337 0.32566 0.0
N368 N 0.86572 0.75319 0.33074 0.0
H369 H 0.85374 0.79591 0.32241 0.0
H370 H 0.79686 0.72144 0.33249 0.0
C371 C 0.73577 0.78059 0.33955 0.0
O372 O 0.73112 0.81091 0.33935 0.0
N373 N 0.74419 0.80905 0.31603 0.0
C374 C 0.74116 0.83725 0.31118 0.0
C375 C 0.71011 0.8421 0.30871 0.0
C376 C 0.71523 0.79678 0.31597 0.0
N377 N 0.6939 0.81666 0.31184 0.0
C378 C 0.80497 0.84822 0.32473 0.0
C379 C 0.80557 0.84479 0.34733 0.0
C380 C 0.81121 0.87366 0.34227 0.0
C381 C 0.81239 0.87479 0.3308 0.0
C382 C 0.79831 0.81881 0.34091 0.0
N383 N 0.79523 0.82155 0.32981 0.0
H384 H 0.80675 0.84927 0.31593 0.0
H385 H 0.79434 0.7967 0.34493 0.0
H386 H 0.75981 0.85314 0.30923 0.0
H387 H 0.70993 0.77341 0.31878 0.0
O388 O 0.80178 0.79654 0.30732 0.0
O389 O 0.77178 0.75504 0.3102 0.0
O390 O 0.75595 0.76794 0.33325 0.0
C391 C 0.78862 0.77146 0.30345 0.0
H392 H 0.8553 0.70911 0.33861 0.0
H393 H 0.70026 0.86282 0.30499 0.0
H394 H 0.80519 0.84254 0.35617 0.0
H395 H 0.81821 0.89622 0.32655 0.0
Co396 Co 0.52159 0.53054 0.57127 0.0
C397 C 0.53714 0.59549 0.57623 0.0
C398 C 0.57624 0.56526 0.57918 0.0
C399 C 0.58463 0.59532 0.58194 0.0
N400 N 0.54648 0.5656 0.57566 0.0
N401 N 0.5599 0.6142 0.58013 0.0
H402 H 0.5141 0.60327 0.57382 0.0
H403 H 0.59065 0.5446 0.57982 0.0
C404 C 0.52949 0.48388 0.58921 0.0
O405 O 0.49908 0.47974 0.5893 0.0
N406 N 0.49749 0.49441 0.5667 0.0
C407 C 0.46695 0.49077 0.5642 0.0
C408 C 0.4617 0.45999 0.56147 0.0
C409 C 0.51036 0.46609 0.56506 0.0
N410 N 0.48909 0.44463 0.56202 0.0
C411 C 0.4616 0.55609 0.57674 0.0
C412 C 0.46916 0.55471 0.59919 0.0
C413 C 0.43942 0.56096 0.59488 0.0
C414 C 0.43628 0.56331 0.58347 0.0
C415 C 0.49371 0.54733 0.59212 0.0
N416 N 0.4888 0.54509 0.58109 0.0
H417 H 0.45888 0.55819 0.56798 0.0
H418 H 0.51645 0.54266 0.59557 0.0
H419 H 0.44935 0.50866 0.56421 0.0
H420 H 0.53482 0.4611 0.56644 0.0
O421 O 0.50943 0.55239 0.55812 0.0
O422 O 0.55079 0.52144 0.55972 0.0
O423 O 0.54189 0.50435 0.58296 0.0
C424 C 0.53355 0.53922 0.55356 0.0
H425 H 0.60692 0.60255 0.58526 0.0
H426 H 0.43952 0.44974 0.55921 0.0
H427 H 0.47318 0.55438 0.60796 0.0
H428 H 0.41409 0.5689 0.5797 0.0
Co429 Co 0.0362 0.53448 0.07046 0.0
C430 C 0.02869 0.46788 0.07719 0.0
C431 C 0.98492 0.4913 0.07501 0.0
C432 C 0.97903 0.46103 0.0782 0.0
N433 N 0.01609 0.49565 0.07448 0.0
N434 N 0.00663 0.44645 0.07953 0.0
H435 H 0.05329 0.46314 0.07765 0.0
H436 H 0.96764 0.50906 0.0733 0.0
C437 C 0.00445 0.54722 0.09193 0.0
O438 O 0.01198 0.51927 0.09549 0.0
N439 N 0.05524 0.57335 0.06633 0.0
C440 C 0.08441 0.5781 0.06257 0.0
C441 C 0.08853 0.60968 0.06097 0.0
C442 C 0.0419 0.60169 0.06687 0.0
N443 N 0.06177 0.62444 0.06372 0.0
C444 C 0.0947 0.50561 0.07601 0.0
C445 C 0.10775 0.5439 0.09361 0.0
C446 C 0.13054 0.52283 0.09003 0.0
C447 C 0.12362 0.50303 0.08126 0.0
C448 C 0.07918 0.54554 0.08822 0.0
N449 N 0.07254 0.52619 0.07963 0.0
H450 H 0.0906 0.49179 0.06875 0.0
H451 H 0.06356 0.56409 0.09054 0.0
H452 H 0.10157 0.55997 0.06123 0.0
H453 H 0.01803 0.60544 0.06945 0.0
O454 O 0.05043 0.51622 0.05686 0.0
O455 O 0.00521 0.54056 0.05927 0.0
O456 O 0.01325 0.55664 0.08251 0.0
C457 C 0.02441 0.52648 0.05267 0.0
H458 H 0.95628 0.45047 0.07929 0.0
H459 H 0.10981 0.62087 0.05825 0.0
H460 H 0.11247 0.55998 0.10026 0.0
H461 H 0.141 0.48701 0.0781 0.0
Co462 Co 0.52351 0.5337 0.41878 0.0
C463 C 0.53973 0.46805 0.41598 0.0
C464 C 0.57693 0.49768 0.4104 0.0
C465 C 0.58466 0.46712 0.40809 0.0
N466 N 0.54866 0.49803 0.41525 0.0
N467 N 0.5612 0.44871 0.41164 0.0
H468 H 0.51722 0.4607 0.4191 0.0
H469 H 0.5905 0.51817 0.40836 0.0
C470 C 0.53181 0.57743 0.40003 0.0
O471 O 0.50136 0.581 0.39966 0.0
N472 N 0.49914 0.57047 0.42249 0.0
C473 C 0.46843 0.57471 0.42459 0.0
C474 C 0.46343 0.60567 0.42712 0.0
C475 C 0.51226 0.59869 0.42407 0.0
N476 N 0.49109 0.62055 0.42681 0.0
C477 C 0.46376 0.50744 0.41337 0.0
C478 C 0.47382 0.50285 0.3911 0.0
C479 C 0.44352 0.49773 0.39516 0.0
C480 C 0.43914 0.49861 0.40657 0.0
C481 C 0.49746 0.51248 0.39821 0.0
N482 N 0.49138 0.5174 0.40906 0.0
H483 H 0.46021 0.50729 0.42213 0.0
H484 H 0.52054 0.51648 0.39493 0.0
H485 H 0.45054 0.55713 0.42453 0.0
H486 H 0.53695 0.6032 0.42301 0.0
O487 O 0.51071 0.51406 0.4323 0.0
O488 O 0.55213 0.54472 0.43028 0.0
O489 O 0.54417 0.55814 0.40673 0.0
C490 C 0.53455 0.52808 0.43672 0.0
H491 H 0.60556 0.45909 0.40397 0.0
H492 H 0.44126 0.61629 0.4292 0.0
H493 H 0.47913 0.50042 0.38247 0.0
H494 H 0.41663 0.49406 0.41026 0.0
Co495 Co 0.03241 0.53885 0.91993 0.0
C496 C 0.02913 0.60441 0.91182 0.0
C497 C 0.98492 0.5811 0.91124 0.0
C498 C 0.98072 0.61148 0.90788 0.0
N499 N 0.01537 0.57658 0.91359 0.0
N500 N 0.00861 0.62598 0.90824 0.0
H501 H 0.05306 0.6097 0.9137 0.0
H502 H 0.96687 0.56363 0.91216 0.0
C503 C 0.00454 0.51858 0.89858 0.0
O504 O 0.01705 0.54304 0.89378 0.0
N505 N 0.04839 0.50114 0.92638 0.0
C506 C 0.07581 0.49719 0.9316 0.0
C507 C 0.07814 0.4664 0.93478 0.0
C508 C 0.03433 0.4731 0.9265 0.0
N509 N 0.05207 0.45137 0.93151 0.0
C510 C 0.09283 0.5622 0.91374 0.0
C511 C 0.10656 0.5148 0.8992 0.0
C512 C 0.12962 0.53679 0.9017 0.0
C513 C 0.12241 0.56107 0.90891 0.0
C514 C 0.07727 0.517 0.90409 0.0
N515 N 0.07026 0.54091 0.91109 0.0
H516 H 0.08893 0.57905 0.92016 0.0
H517 H 0.06119 0.49801 0.9028 0.0
H518 H 0.09303 0.51531 0.93287 0.0
H519 H 0.0115 0.46874 0.92304 0.0
O520 O 0.04639 0.56181 0.93261 0.0
O521 O -0.00012 0.53959 0.9308 0.0
O522 O 0.00942 0.51334 0.90874 0.0
C523 C 0.01944 0.55493 0.93692 0.0
H524 H 0.95878 0.62222 0.90561 0.0
H525 H 0.09782 0.45574 0.9389 0.0
H526 H 0.11157 0.49523 0.89385 0.0
H527 H 0.14008 0.57779 0.91135 0.0
H528 H 0.05467 0.40981 0.07324 0.0
H529 H 0.06353 0.35542 0.07824 0.0
H530 H 0.97963 0.35605 0.09783 0.0
H531 H 0.97054 0.41076 0.09279 0.0
H532 H 0.07069 0.32712 0.09892 0.0
H533 H 0.96606 0.28321 0.07658 0.0
H534 H 0.98095 0.32222 0.07464 0.0
H535 H 0.95916 0.31268 0.08677 0.0
C536 C 0.03826 0.39851 0.0787 0.0
C537 C 0.01185 0.41448 0.0826 0.0
C538 C 0.04334 0.36744 0.08154 0.0
C539 C 0.02211 0.35174 0.08832 0.0
C540 C 0.996 0.3677 0.09243 0.0
H541 H 0.02255 0.14985 0.09804 0.0
H542 H 0.01225 0.20508 0.10157 0.0
C543 C 0.9908 0.39884 0.08953 0.0
C544 C 0.02709 0.31832 0.09067 0.0
H545 H -0.00121 0.24596 0.08467 0.0
C546 C 0.05482 0.30932 0.09593 0.0
C547 C 0.00623 0.29527 0.08679 0.0
C548 C 0.97652 0.30366 0.08081 0.0
C549 C 0.06276 0.27775 0.09709 0.0
C550 C 0.0426 0.25479 0.09275 0.0
C551 C 0.01416 0.26373 0.08798 0.0
C552 C 0.05161 0.2216 0.09209 0.0
C553 C 0.09286 0.26924 0.10277 0.0
C554 C 0.0774 0.2127 0.08571 0.0
C555 C 0.08319 0.18121 0.08361 0.0
C556 C 0.06307 0.15816 0.08776 0.0
C557 C 0.03808 0.16713 0.09455 0.0
C558 C 0.03232 0.1986 0.09666 0.0
H559 H 0.10043 0.28793 0.1085 0.0
H560 H 0.09048 0.24704 0.1074 0.0
H561 H 0.11149 0.26618 0.09654 0.0
H562 H 0.09214 0.23017 0.08191 0.0
H563 H 0.1024 0.17504 0.07827 0.0
H564 H 0.15201 0.83825 0.34966 0.0
H565 H 0.09618 0.82831 0.35264 0.0
H566 H 0.09842 0.7567 0.32777 0.0
H567 H 0.15394 0.76611 0.32496 0.0
H568 H 0.04913 0.83485 0.3389 0.0
H569 H 0.0533 0.71151 0.35172 0.0
H570 H 0.08783 0.73563 0.35116 0.0
H571 H 0.07361 0.7164 0.33899 0.0
C572 C 0.14049 0.8203 0.3449 0.0
C573 C 0.15727 0.80274 0.33717 0.0
C574 C 0.10874 0.81453 0.34664 0.0
C575 C 0.09334 0.7912 0.34063 0.0
C576 C 0.11005 0.77399 0.3328 0.0
H577 H 0.90775 0.78112 0.3176 0.0
H578 H 0.96262 0.7914 0.32169 0.0
C579 C 0.14175 0.7795 0.33116 0.0
C580 C 0.05932 0.78627 0.34183 0.0
H581 H 0.00441 0.72885 0.34362 0.0
C582 C 0.03933 0.81177 0.34015 0.0
C583 C 0.04646 0.75632 0.34374 0.0
C584 C 0.06649 0.72853 0.34663 0.0
C585 C 0.00691 0.80774 0.33955 0.0
C586 C 0.99434 0.77726 0.34031 0.0
C587 C 0.01413 0.75211 0.34278 0.0
C588 C 0.96114 0.77073 0.3379 0.0
C589 C 0.98656 0.83615 0.33798 0.0
C590 C 0.94249 0.75437 0.34543 0.0
C591 C 0.91127 0.74794 0.34299 0.0
C592 C 0.89826 0.7579 0.33301 0.0
C593 C 0.91714 0.77369 0.32542 0.0
C594 C 0.94837 0.77976 0.32779 0.0
H595 H 0.99773 0.85732 0.34149 0.0
H596 H 0.9832 0.84033 0.32908 0.0
H597 H 0.9633 0.83304 0.34185 0.0
H598 H 0.952 0.74693 0.35323 0.0
H599 H 0.8971 0.73594 0.34901 0.0
H600 H 0.57136 0.91489 0.58512 0.0
H601 H 0.58211 0.859 0.58626 0.0
H602 H 0.48356 0.83943 0.58417 0.0
H603 H 0.47252 0.89535 0.58279 0.0
H604 H 0.52013 0.8056 0.60134 0.0
H605 H 0.57027 0.79886 0.55926 0.0
H606 H 0.58531 0.8289 0.5681 0.0
H607 H 0.54547 0.83066 0.5636 0.0
C608 C 0.55195 0.89876 0.5848 0.0
C609 C 0.52107 0.90959 0.58371 0.0
C610 C 0.55816 0.86686 0.58552 0.0
C611 C 0.53364 0.84527 0.58518 0.0
C612 C 0.50276 0.85589 0.58443 0.0
H613 H 0.50754 0.64738 0.58453 0.0
H614 H 0.50338 0.70374 0.5867 0.0
C615 C 0.4965 0.88782 0.58368 0.0
C616 C 0.54024 0.81151 0.5853 0.0
H617 H 0.57017 0.75267 0.5697 0.0
C618 C 0.53115 0.79394 0.59446 0.0
C619 C 0.55482 0.79665 0.57632 0.0
C620 C 0.56441 0.81458 0.56621 0.0
C621 C 0.53619 0.76161 0.59485 0.0
C622 C 0.54999 0.74657 0.58573 0.0
C623 C 0.55964 0.76432 0.57667 0.0
C624 C 0.55299 0.71226 0.58509 0.0
C625 C 0.52687 0.74392 0.60504 0.0
C626 C 0.58221 0.6984 0.58325 0.0
C627 C 0.58461 0.66614 0.5818 0.0
C628 C 0.55777 0.64726 0.58209 0.0
C629 C 0.52862 0.66125 0.58409 0.0
C630 C 0.52624 0.69345 0.58551 0.0
H631 H 0.52616 0.75946 0.61233 0.0
H632 H 0.50314 0.73407 0.60388 0.0
H633 H 0.54323 0.72439 0.60672 0.0
H634 H 0.60309 0.71262 0.58279 0.0
H635 H 0.60734 0.65613 0.58017 0.0
H636 H 0.40878 0.22051 0.84225 0.0
H637 H 0.46362 0.23273 0.84594 0.0
H638 H 0.46018 0.3072 0.82218 0.0
H639 H 0.40582 0.29482 0.81825 0.0
H640 H 0.51283 0.23348 0.8299 0.0
H641 H 0.49758 0.34853 0.85007 0.0
H642 H 0.4663 0.32041 0.84886 0.0
H643 H 0.47676 0.3445 0.83736 0.0
C644 C 0.41972 0.23935 0.83776 0.0
C645 C 0.40282 0.25679 0.82999 0.0
C646 C 0.45093 0.24646 0.83996 0.0
C647 C 0.46557 0.27127 0.8345 0.0
C648 C 0.44894 0.2885 0.82668 0.0
H649 H 0.64371 0.34974 0.82217 0.0
H650 H 0.58818 0.33905 0.82518 0.0
C651 C 0.41787 0.28134 0.82444 0.0
C652 C 0.49887 0.27806 0.83637 0.0
H653 H 0.54897 0.33638 0.84363 0.0
C654 C 0.52085 0.25573 0.83308 0.0
C655 C 0.509 0.30718 0.84048 0.0
C656 C 0.4862 0.33147 0.84449 0.0
C657 C 0.55286 0.26237 0.83324 0.0
C658 C 0.56302 0.29188 0.83706 0.0
C659 C 0.54104 0.31381 0.84072 0.0
C660 C 0.5962 0.30105 0.83655 0.0
C661 C 0.57536 0.23835 0.8288 0.0
C662 C 0.61888 0.28406 0.84229 0.0
C663 C 0.65049 0.28998 0.84052 0.0
C664 C 0.65984 0.31327 0.83309 0.0
C665 C 0.63707 0.33174 0.82795 0.0
C666 C 0.60543 0.3256 0.82965 0.0
H667 H 0.56325 0.21995 0.82399 0.0
H668 H 0.59322 0.24949 0.82348 0.0
H669 H 0.58758 0.22683 0.83572 0.0
H670 H 0.61214 0.26553 0.84786 0.0
H671 H 0.66767 0.27587 0.84474 0.0
H672 H 0.96928 0.67427 0.91195 0.0
H673 H 0.98241 0.72985 0.91132 0.0
H674 H 0.07552 0.70723 0.90049 0.0
H675 H 0.06249 0.65151 0.90098 0.0
H676 H 0.04588 0.75026 0.92434 0.0
H677 H 0.03245 0.78355 0.88038 0.0
H678 H 0.00803 0.75379 0.88646 0.0
H679 H 0.04858 0.74606 0.88412 0.0
C680 C 0.99228 0.68113 0.90918 0.0
C681 C 0.01495 0.65858 0.90659 0.0
C682 C -0.00024 0.71281 0.90886 0.0
C683 C 0.02984 0.72235 0.90584 0.0
C684 C 0.05214 0.7001 0.90279 0.0
H685 H 0.10158 0.91398 0.90501 0.0
H686 H 0.09714 0.8574 0.90221 0.0
C687 C 0.04473 0.6684 0.90316 0.0
C688 C 0.03873 0.75532 0.90697 0.0
H689 H 0.04529 0.82368 0.89285 0.0
C690 C 0.04599 0.76635 0.91747 0.0
C691 C 0.03919 0.77582 0.89793 0.0
C692 C 0.03166 0.76446 0.88654 0.0
C693 C 0.05298 0.79785 0.91923 0.0
C694 C 0.05203 0.81877 0.91027 0.0
C695 C 0.04588 0.80749 0.89969 0.0
C696 C 0.0551 0.85272 0.91191 0.0
C697 C 0.06109 0.80854 0.93067 0.0
C698 C 0.03278 0.86859 0.91819 0.0
C699 C 0.03532 0.90064 0.91983 0.0
C700 C 0.06015 0.91748 0.91516 0.0
C701 C 0.08244 0.90153 0.90881 0.0
C702 C 0.07983 0.86934 0.90715 0.0
H703 H 0.06958 0.78888 0.93581 0.0
H704 H 0.07927 0.82703 0.93049 0.0
H705 H 0.03991 0.81831 0.93463 0.0
H706 H 0.0133 0.85615 0.92181 0.0
H707 H 0.018 0.91214 0.92487 0.0
H708 H 0.40176 0.75272 0.17138 0.0
H709 H 0.45629 0.74295 0.16672 0.0
H710 H 0.45866 0.82787 0.14773 0.0
H711 H 0.40385 0.83782 0.15236 0.0
H712 H 0.48649 0.73689 0.14611 0.0
H713 H 0.52961 0.83874 0.17011 0.0
H714 H 0.49035 0.82397 0.17149 0.0
H715 H 0.50088 0.84713 0.15979 0.0
C716 C 0.41371 0.76915 0.16611 0.0
C717 C 0.39856 0.79614 0.16228 0.0
C718 C 0.44488 0.76355 0.16347 0.0
C719 C 0.46148 0.78484 0.15698 0.0
C720 C 0.4463 0.81143 0.1529 0.0
H721 H 0.66296 0.788 0.14738 0.0
H722 H 0.60734 0.7975 0.14434 0.0
C723 C 0.41509 0.81713 0.15557 0.0
C724 C 0.49504 0.7796 0.15494 0.0
H725 H 0.5672 0.80742 0.16149 0.0
C726 C 0.50421 0.75242 0.14937 0.0
C727 C 0.51796 0.79998 0.1592 0.0
C728 C 0.50937 0.82899 0.16556 0.0
C729 C 0.53586 0.74477 0.14813 0.0
C730 C 0.55871 0.7646 0.15273 0.0
C731 C 0.54954 0.79232 0.15795 0.0
C732 C 0.59214 0.75617 0.15303 0.0
C733 C 0.54454 0.71546 0.142 0.0
C734 C 0.60195 0.72951 0.15877 0.0
C735 C 0.63369 0.72411 0.16055 0.0
C736 C 0.65605 0.74551 0.15674 0.0
C737 C 0.64619 0.77143 0.15057 0.0
C738 C 0.61449 0.77676 0.14876 0.0
H739 H 0.52582 0.70839 0.1362 0.0
H740 H 0.56663 0.71861 0.13735 0.0
H741 H 0.54789 0.69614 0.14794 0.0
H742 H 0.58502 0.71372 0.16234 0.0
H743 H 0.6406 0.70414 0.16542 0.0
H744 H 0.47798 0.15977 0.39941 0.0
H745 H 0.48807 0.21493 0.39526 0.0
H746 H 0.56133 0.21609 0.41955 0.0
H747 H 0.55189 0.16105 0.42345 0.0
H748 H 0.4824 0.2638 0.40781 0.0
H749 H 0.60538 0.25756 0.39472 0.0
H750 H 0.58144 0.22313 0.39617 0.0
H751 H 0.60109 0.2396 0.40789 0.0
C752 C 0.49631 0.1719 0.40379 0.0
C753 C 0.51434 0.15625 0.41168 0.0
C754 C 0.50218 0.20325 0.40138 0.0
C755 C 0.52601 0.2194 0.40689 0.0
C756 C 0.54365 0.20383 0.4149 0.0
H757 H 0.53494 0.40864 0.42585 0.0
H758 H 0.52589 0.35289 0.42307 0.0
C759 C 0.5381 0.17246 0.41718 0.0
C760 C 0.53096 0.25316 0.40499 0.0
H761 H 0.58828 0.30773 0.40192 0.0
C762 C 0.50546 0.27337 0.4063 0.0
C763 C 0.56086 0.26569 0.40274 0.0
C764 C 0.58862 0.24527 0.40017 0.0
C765 C 0.50944 0.30582 0.40618 0.0
C766 C 0.5399 0.31826 0.40511 0.0
C767 C 0.56504 0.29813 0.40301 0.0
C768 C 0.54635 0.3518 0.40682 0.0
C769 C 0.48099 0.32635 0.40734 0.0
C770 C 0.56235 0.36929 0.39887 0.0
C771 C 0.56814 0.40103 0.40057 0.0
C772 C 0.55783 0.41566 0.41022 0.0
C773 C 0.54261 0.39791 0.41828 0.0
C774 C 0.53724 0.36619 0.41665 0.0
H775 H 0.45982 0.31456 0.40409 0.0
H776 H 0.47685 0.33124 0.41615 0.0
H777 H 0.48403 0.3489 0.40297 0.0
H778 H 0.56987 0.35851 0.39128 0.0
H779 H 0.57974 0.41434 0.39422 0.0
H780 H 0.89867 0.28104 0.67663 0.0
H781 H 0.95522 0.27471 0.6753 0.0
H782 H 0.95534 0.32623 0.64489 0.0
H783 H 0.89862 0.33299 0.64629 0.0
H784 H 0.98759 0.24499 0.65917 0.0
H785 H 0.02414 0.36917 0.66218 0.0
H786 H 0.98516 0.35634 0.66553 0.0
H787 H 0.99658 0.36117 0.65145 0.0
C788 C 0.91079 0.29109 0.66969 0.0
C789 C 0.89435 0.30749 0.66156 0.0
C790 C 0.94304 0.28752 0.66894 0.0
C791 C 0.95945 0.30022 0.66005 0.0
C792 C 0.94317 0.31681 0.65194 0.0
H793 H 0.15056 0.24148 0.64488 0.0
H794 H 0.09415 0.25071 0.64387 0.0
C795 C 0.91084 0.32064 0.65273 0.0
C796 C 0.99344 0.29494 0.65916 0.0
H797 H 0.06381 0.33214 0.65855 0.0
C798 C 0.0043 0.26402 0.65901 0.0
C799 C 0.01507 0.31986 0.65902 0.0
C800 C 0.00476 0.35351 0.65965 0.0
C801 C 0.03631 0.25729 0.6589 0.0
C802 C 0.05794 0.2822 0.65866 0.0
C803 C 0.04708 0.31313 0.65866 0.0
C804 C 0.09198 0.27675 0.65906 0.0
C805 C 0.04664 0.22362 0.65944 0.0
C806 C 0.10942 0.2889 0.6678 0.0
C807 C 0.14153 0.28389 0.66833 0.0
C808 C 0.15677 0.26658 0.66014 0.0
C809 C 0.13928 0.25445 0.65138 0.0
C810 C 0.10713 0.25971 0.6508 0.0
H811 H 0.02754 0.20802 0.66228 0.0
H812 H 0.05385 0.21582 0.65115 0.0
H813 H 0.06688 0.22083 0.66504 0.0
H814 H 0.09811 0.30207 0.67426 0.0
H815 H 0.15439 0.29322 0.67523 0.0
H816 H 0.08791 0.02367 0.04643 0.0
H817 H 0.09222 0.02182 0.02646 0.0
H818 H 0.00337 0.06851 0.02351 0.0
H819 H -0.00097 0.07083 0.04349 0.0
H820 H 0.05097 0.99163 0.01256 0.0
H821 H 0.05927 0.11763 0.00244 0.0
H822 H 0.06559 0.10276 0.01611 0.0
H823 H 0.02655 0.10804 0.01101 0.0
C824 C 0.06949 0.03396 0.04153 0.0
C825 C 0.04314 0.04745 0.04651 0.0
C826 C 0.07198 0.03282 0.03014 0.0
C827 C 0.04827 0.04528 0.02353 0.0
C828 C 0.0222 0.05929 0.02847 0.0
H829 H 0.99771 0.00246 0.95705 0.0
H830 H 0.00347 0.00445 0.97698 0.0
C831 C 0.0197 0.06049 0.03988 0.0
C832 C 0.04987 0.04184 0.01149 0.0
H833 H 0.04885 0.08299 0.98757 0.0
C834 C 0.05078 0.01159 0.00708 0.0
C835 C 0.04997 0.06793 0.0044 0.0
C836 C 0.0506 0.10094 0.00871 0.0
C837 C 0.05091 0.00671 0.99572 0.0
C838 C 0.04962 0.03278 0.98863 0.0
C839 C 0.0496 0.06305 0.99304 0.0
C840 C 0.04747 0.02929 0.9766 0.0
C841 C 0.05254 0.97374 0.9914 0.0
C842 C 0.07025 0.04272 0.96982 0.0
C843 C 0.06693 0.04177 0.95844 0.0
C844 C 0.04068 0.02753 0.95368 0.0
C845 C 0.01828 0.01342 0.96049 0.0
C846 C 0.0216 0.01442 0.97187 0.0
H847 H 0.06219 0.95741 -0.00238 0.0
H848 H 0.02865 0.96573 0.98928 0.0
H849 H 0.06716 0.97246 0.98389 0.0
H850 H 0.09032 0.0544 0.97334 0.0
H851 H 0.08455 0.05289 0.9534 0.0
H852 H 0.28628 0.84499 0.29676 0.0
H853 H 0.2881 0.85125 0.27684 0.0
H854 H 0.24081 0.76309 0.27285 0.0
H855 H 0.23866 0.75671 0.29275 0.0
H856 H 0.31935 0.80876 0.26323 0.0
H857 H 0.19496 0.82102 0.25132 0.0
H858 H 0.20848 0.8273 0.26517 0.0
H859 H 0.20251 0.78831 0.26014 0.0
C860 C 0.27563 0.82726 0.29165 0.0
C861 C 0.26238 0.80031 0.2963 0.0
C862 C 0.27677 0.83086 0.28028 0.0
C863 C 0.26443 0.80773 0.27341 0.0
C864 C 0.25 0.78144 0.27804 0.0
H865 H 0.31032 0.74997 0.20828 0.0
H866 H 0.30729 0.75826 0.2281 0.0
C867 C 0.24889 0.77779 0.2894 0.0
C868 C 0.26929 0.80953 0.26145 0.0
H869 H 0.23094 0.80856 0.23697 0.0
C870 C 0.30005 0.8091 0.25747 0.0
C871 C 0.24406 0.8102 0.254 0.0
C872 C 0.21063 0.81203 0.25785 0.0
C873 C 0.30625 0.80822 0.24619 0.0
C874 C 0.28099 0.80741 0.23876 0.0
C875 C 0.25025 0.80896 0.24273 0.0
C876 C 0.28578 0.80386 0.22685 0.0
C877 C 0.33971 0.80802 0.24232 0.0
C878 C 0.27479 0.82682 0.21963 0.0
C879 C 0.27644 0.82214 0.20833 0.0
C880 C 0.28888 0.79428 0.20408 0.0
C881 C 0.30077 0.77173 0.21132 0.0
C882 C 0.29915 0.77647 0.22263 0.0
H883 H 0.35583 0.81705 0.24871 0.0
H884 H 0.3467 0.78369 0.24039 0.0
H885 H 0.34251 0.82227 0.23478 0.0
H886 H 0.26431 0.84806 0.22275 0.0
H887 H 0.26705 0.83992 0.20294 0.0
H888 H 0.5659 -0.00202 0.5408 0.0
H889 H 0.55838 0.00184 0.52098 0.0
H890 H 0.47022 0.04828 0.52611 0.0
H891 H 0.47772 0.04493 0.54597 0.0
H892 H 0.51019 0.98144 0.50693 0.0
H893 H 0.52132 0.11084 0.50771 0.0
H894 H 0.53189 0.08661 0.51923 0.0
H895 H 0.49154 0.09478 0.51643 0.0
C896 C 0.54473 0.00867 0.53772 0.0
C897 C 0.52253 0.02142 0.54492 0.0
C898 C 0.54048 0.01085 0.5264 0.0
C899 C 0.51404 0.02585 0.52213 0.0
C900 C 0.49105 0.03716 0.52929 0.0
H901 H 0.47421 0.02549 0.45178 0.0
H902 H 0.46782 0.02271 0.47169 0.0
C903 C 0.49531 0.03505 0.54061 0.0
C904 C 0.5114 0.03079 0.51019 0.0
H905 H 0.51225 0.08746 0.49051 0.0
C906 C 0.51037 0.00458 0.50332 0.0
C907 C 0.51207 0.06107 0.50556 0.0
C908 C 0.51453 0.08999 0.51258 0.0
C909 C 0.51035 0.00783 0.49188 0.0
C910 C 0.51087 0.03812 0.48725 0.0
C911 C 0.51154 0.06433 0.49412 0.0
C912 C 0.51296 0.04292 0.47529 0.0
C913 C 0.51098 0.97883 0.48485 0.0
C914 C 0.53984 0.05653 0.47078 0.0
C915 C 0.54347 0.05838 0.45943 0.0
C916 C 0.52022 0.04667 0.45243 0.0
C917 C 0.49261 0.03452 0.45698 0.0
C918 C 0.48898 0.03274 0.46834 0.0
H919 H 0.51707 0.95767 0.48967 0.0
H920 H 0.48756 0.97515 0.48119 0.0
H921 H 0.52807 0.98137 0.47806 0.0
H922 H 0.55852 0.06466 0.47604 0.0
H923 H 0.56497 0.06793 0.45616 0.0
H924 H 0.24505 0.31379 0.70208 0.0
H925 H 0.24835 0.3047 0.72183 0.0
H926 H 0.29427 0.21662 0.716 0.0
H927 H 0.29155 0.22575 0.69622 0.0
H928 H 0.22712 0.25635 0.73537 0.0
H929 H 0.35674 0.26474 0.73512 0.0
H930 H 0.33313 0.27633 0.72357 0.0
H931 H 0.34051 0.2357 0.72616 0.0
C932 C 0.25553 0.29232 0.705 0.0
C933 C 0.26832 0.27062 0.69763 0.0
C934 C 0.25739 0.28717 0.71627 0.0
C935 C 0.27207 0.26028 0.72035 0.0
C936 C 0.28342 0.23781 0.713 0.0
H937 H 0.26853 0.217 0.79058 0.0
H938 H 0.26563 0.21146 0.77063 0.0
C939 C 0.28168 0.24299 0.70172 0.0
C940 C 0.27659 0.25662 0.73228 0.0
H941 H 0.33267 0.25471 0.75214 0.0
C942 C 0.25016 0.25573 0.73906 0.0
C943 C 0.30675 0.25622 0.73701 0.0
C944 C 0.33596 0.25856 0.73013 0.0
C945 C 0.25305 0.25489 0.75051 0.0
C946 C 0.28321 0.25436 0.75524 0.0
C947 C 0.30963 0.25479 0.74845 0.0
C948 C 0.28776 0.25584 0.76723 0.0
C949 C 0.22385 0.25586 0.75744 0.0
C950 C 0.30244 0.28194 0.77187 0.0
C951 C 0.3044 0.28505 0.78323 0.0
C952 C 0.29172 0.26205 0.79013 0.0
C953 C 0.27834 0.2352 0.78546 0.0
C954 C 0.27648 0.23207 0.77408 0.0
H955 H 0.20303 0.26288 0.75259 0.0
H956 H 0.21939 0.23231 0.76089 0.0
H957 H 0.22664 0.2724 0.76438 0.0
H958 H 0.31141 0.30046 0.76669 0.0
H959 H 0.31489 0.30597 0.78659 0.0
H960 H 0.73033 0.25957 0.78928 0.0
H961 H 0.73167 0.26305 0.76924 0.0
H962 H 0.80936 0.32698 0.7712 0.0
H963 H 0.80719 0.3247 0.79117 0.0
H964 H 0.77074 0.34455 0.75561 0.0
H965 H 0.79509 0.21817 0.75104 0.0
H966 H 0.75892 0.22548 0.75798 0.0
H967 H 0.79518 0.23736 0.76419 0.0
C968 C 0.74744 0.27459 0.78541 0.0
C969 C 0.76878 0.29169 0.79174 0.0
C970 C 0.74837 0.27637 0.77398 0.0
C971 C 0.77118 0.29461 0.76873 0.0
C972 C 0.7917 0.31261 0.77507 0.0
H973 H 0.82591 0.26235 0.70117 0.0
H974 H 0.82538 0.2683 0.72113 0.0
C975 C 0.79042 0.31129 0.78649 0.0
C976 C 0.7743 0.29445 0.75664 0.0
H977 H 0.7843 0.24624 0.73469 0.0
C978 C 0.77385 0.32307 0.75103 0.0
C979 C 0.77911 0.26648 0.7507 0.0
C980 C 0.78246 0.23518 0.75629 0.0
C981 C 0.77761 0.32446 0.73961 0.0
C982 C 0.7808 0.29634 0.73363 0.0
C983 C 0.78163 0.26778 0.73927 0.0
C984 C 0.78287 0.29571 0.72151 0.0
C985 C 0.77885 0.35608 0.73416 0.0
C986 C 0.7594 0.30945 0.71509 0.0
C987 C 0.76006 0.30663 0.70369 0.0
C988 C 0.78375 0.28931 0.69856 0.0
C989 C 0.80741 0.27583 0.70495 0.0
C990 C 0.80707 0.27917 0.71633 0.0
H991 H 0.78682 0.3744 0.73997 0.0
H992 H 0.79472 0.35599 0.72696 0.0
H993 H 0.75508 0.36257 0.73135 0.0
H994 H 0.73997 0.32147 0.71889 0.0
H995 H 0.74127 0.31686 0.69895 0.0
H996 H 0.80494 0.72955 0.19897 0.0
H997 H 0.80744 0.72509 0.21888 0.0
H998 H 0.72586 0.78372 0.22181 0.0
H999 H 0.72425 0.78952 0.20186 0.0
H1000 H 0.76947 0.80396 0.23457 0.0
H1001 H 0.76031 0.67662 0.24114 0.0
H1002 H 0.79173 0.68585 0.232 0.0
H1003 H 0.7521 0.6945 0.22807 0.0
C1004 C 0.78717 0.74098 0.20386 0.0
C1005 C 0.76438 0.75988 0.1989 0.0
C1006 C 0.7885 0.73823 0.21524 0.0
C1007 C 0.76655 0.75364 0.22186 0.0
C1008 C 0.74301 0.77155 0.21687 0.0
H1009 H 0.7492 0.73342 0.29223 0.0
H1010 H 0.74507 0.72788 0.27237 0.0
C1011 C 0.74205 0.77482 0.20549 0.0
C1012 C 0.76999 0.75367 0.23395 0.0
H1013 H 0.78041 0.70656 0.25623 0.0
C1014 C 0.77152 0.78262 0.23931 0.0
C1015 C 0.77243 0.72585 0.24016 0.0
C1016 C 0.76871 0.69398 0.23505 0.0
C1017 C 0.77574 0.78459 0.25067 0.0
C1018 C 0.77988 0.75683 0.25679 0.0
C1019 C 0.77788 0.72783 0.25148 0.0
C1020 C 0.78478 0.75749 0.26881 0.0
C1021 C 0.7749 0.81643 0.25598 0.0
C1022 C 0.80923 0.77496 0.27341 0.0
C1023 C 0.81131 0.77861 0.28476 0.0
C1024 C 0.78946 0.76414 0.29167 0.0
C1025 C 0.76639 0.74483 0.28709 0.0
C1026 C 0.76397 0.74167 0.27574 0.0
H1027 H 0.76252 0.83375 0.25077 0.0
H1028 H 0.76316 0.81556 0.26409 0.0
H1029 H 0.79914 0.82491 0.25718 0.0
H1030 H 0.82615 0.78654 0.26821 0.0
H1031 H 0.82952 0.79334 0.28811 0.0
H1032 H 0.51015 0.48754 0.45169 0.0
H1033 H 0.5147 0.49049 0.47167 0.0
H1034 H 0.57367 0.57172 0.46856 0.0
H1035 H 0.57025 0.56811 0.44862 0.0
H1036 H 0.59428 0.53469 0.48444 0.0
H1037 H 0.46708 0.55308 0.48953 0.0
H1038 H 0.47576 0.51702 0.48273 0.0
H1039 H 0.48578 0.55353 0.47629 0.0
C1040 C 0.52434 0.5058 0.45529 0.0
C1041 C 0.53967 0.52772 0.44864 0.0
C1042 C 0.52672 0.50762 0.46669 0.0
C1043 C 0.54382 0.53184 0.4716 0.0
C1044 C 0.56018 0.55297 0.46494 0.0
H1045 H 0.51079 0.58329 0.53955 0.0
H1046 H 0.51673 0.58475 0.5196 0.0
C1047 C 0.55823 0.55086 0.45355 0.0
C1048 C 0.54403 0.53572 0.48365 0.0
H1049 H 0.49612 0.54347 0.50581 0.0
C1050 C 0.57284 0.53681 0.48912 0.0
C1051 C 0.51606 0.5393 0.48971 0.0
C1052 C 0.48446 0.54103 0.48425 0.0
C1053 C 0.57442 0.54057 0.50053 0.0
C1054 C 0.54638 0.54228 0.50665 0.0
C1055 C 0.51762 0.5419 0.50113 0.0
C1056 C 0.54602 0.54357 0.51878 0.0
C1057 C 0.60611 0.54319 0.50586 0.0
C1058 C 0.56083 0.52022 0.52495 0.0
C1059 C 0.55794 0.51971 0.53634 0.0
C1060 C 0.53953 0.5421 0.54173 0.0
C1061 C 0.5251 0.56575 0.53559 0.0
C1062 C 0.52846 0.56658 0.5242 0.0
H1063 H 0.62379 0.55236 0.50002 0.0
H1064 H 0.60545 0.55871 0.51315 0.0
H1065 H 0.61392 0.51967 0.50851 0.0
H1066 H 0.57369 0.50168 0.52095 0.0
H1067 H 0.56898 0.50097 0.54088 0.0
H1068 H 0.05864 0.58001 0.95217 0.0
H1069 H 0.05296 0.57701 0.97209 0.0
H1070 H 0.96136 0.53669 0.96825 0.0
H1071 H 0.96689 0.53932 0.94831 0.0
H1072 H 0.00676 0.59857 0.98752 0.0
H1073 H 0.01383 0.46911 0.98445 0.0
H1074 H 0.02405 0.49458 0.97322 0.0
H1075 H 0.98376 0.48739 0.97642 0.0
C1076 C 0.037 0.57116 0.95556 0.0
C1077 C 0.01337 0.55953 0.9487 0.0
C1078 C 0.03382 0.56943 0.96693 0.0
C1079 C 0.00703 0.55604 0.97157 0.0
C1080 C 0.98243 0.54659 0.96477 0.0
H1081 H 0.97253 0.54693 0.04194 0.0
H1082 H 0.96575 0.55268 0.02214 0.0
C1083 C 0.98558 0.54829 0.9534 0.0
C1084 C 0.00606 0.54971 0.98346 0.0
H1085 H 0.00783 0.49038 0.00215 0.0
C1086 C 0.00674 0.57497 0.99075 0.0
C1087 C 0.00657 0.51881 0.98756 0.0
C1088 C 0.00727 0.49084 0.98004 0.0
C1089 C 0.00797 0.57014 0.00211 0.0
C1090 C 0.00814 0.53924 0.00621 0.0
C1091 C 0.00739 0.51399 -0.00108 0.0
C1092 C 0.01068 0.53276 0.01806 0.0
C1093 C 0.01006 0.59807 0.00961 0.0
C1094 C 0.03758 0.51834 0.02223 0.0
C1095 C 0.04148 0.51483 0.03352 0.0
C1096 C 0.01844 0.52564 0.04079 0.0
C1097 C 0.99078 0.53855 0.03654 0.0
C1098 C 0.98692 0.54203 0.02525 0.0
H1099 H 0.01619 0.61973 0.00508 0.0
H1100 H 0.98713 0.60177 0.01365 0.0
H1101 H 0.02776 0.59414 0.01612 0.0
H1102 H 0.05607 0.51086 0.01676 0.0
H1103 H 0.06301 0.50477 0.03656 0.0
H1104 H 0.2847 0.84533 0.13628 0.0
H1105 H 0.253 0.8843 0.12664 0.0
H1106 H 0.17166 0.85444 0.14471 0.0
H1107 H 0.20329 0.81634 0.1546 0.0
H1108 H 0.2031 0.88078 0.11361 0.0
H1109 H 0.17139 0.94641 0.15105 0.0
H1110 H 0.20095 0.91642 0.15102 0.0
H1111 H 0.16025 0.90616 0.152 0.0
C1112 C 0.26002 0.84699 0.13814 0.0
C1113 C 0.24652 0.8281 0.14627 0.0
C1114 C 0.24197 0.8693 0.13266 0.0
C1115 C 0.21017 0.87285 0.13519 0.0
C1116 C 0.19637 0.85285 0.1429 0.0
H1117 H 0.06963 0.96271 0.09576 0.0
H1118 H 0.10476 0.92666 0.10512 0.0
C1119 C 0.21443 0.83092 0.14848 0.0
C1120 C 0.19129 0.89736 0.12976 0.0
H1121 H 0.1415 0.9578 0.13496 0.0
C1122 C 0.18983 0.8978 0.11827 0.0
C1123 C 0.17455 0.92002 0.13584 0.0
C1124 C 0.17711 0.92249 0.14815 0.0
C1125 C 0.17125 0.9196 0.1127 0.0
C1126 C 0.15289 0.9409 0.11882 0.0
C1127 C 0.15518 0.94115 0.13029 0.0
C1128 C 0.13084 0.96281 0.11348 0.0
C1129 C 0.17181 0.91979 0.10033 0.0
C1130 C 0.13275 0.99503 0.11552 0.0
C1131 C 0.11218 0.0157 0.11037 0.0
C1132 C 0.08952 0.00444 0.10305 0.0
C1133 C 0.08713 0.97211 0.10125 0.0
C1134 C 0.10738 0.95149 0.10652 0.0
H1135 H 0.19392 0.90977 0.09711 0.0
H1136 H 0.15232 0.90524 0.0972 0.0
H1137 H 0.16911 0.9438 0.09703 0.0
H1138 H 0.1505 0.00423 0.12096 0.0
H1139 H 0.11457 0.0405 0.11189 0.0
H1140 H 0.35772 0.81655 0.34411 0.0
H1141 H 0.39382 0.85121 0.35366 0.0
H1142 H 0.31763 0.88735 0.37305 0.0
H1143 H 0.28155 0.85165 0.36381 0.0
H1144 H 0.3953 0.91229 0.35378 0.0
H1145 H 0.38044 0.87112 0.39652 0.0
H1146 H 0.36504 0.84993 0.38496 0.0
H1147 H 0.34426 0.88301 0.39043 0.0
C1148 C 0.34873 0.8316 0.35052 0.0
C1149 C 0.31687 0.83136 0.35327 0.0
C1150 C 0.36937 0.85144 0.35595 0.0
C1151 C 0.35854 0.87166 0.36416 0.0
C1152 C 0.32669 0.87138 0.36695 0.0
H1153 H 0.46242 0.03636 0.3855 0.0
H1154 H 0.42693 0.00046 0.37606 0.0
C1155 C 0.30608 0.85108 0.36164 0.0
C1156 C 0.38046 0.89392 0.36939 0.0
H1157 H 0.40816 0.91876 0.3941 0.0
C1158 C 0.39825 0.91359 0.3626 0.0
C1159 C 0.38456 0.89536 0.38089 0.0
C1160 C 0.3678 0.87351 0.38861 0.0
C1161 C 0.42001 0.93465 0.36698 0.0
C1162 C 0.42327 0.93689 0.37849 0.0
C1163 C 0.40548 0.91722 0.38528 0.0
C1164 C 0.44555 0.95877 0.38373 0.0
C1165 C 0.43984 0.95357 0.35919 0.0
C1166 C 0.46742 0.9474 0.39131 0.0
C1167 C 0.48714 0.96788 0.39686 0.0
C1168 C 0.48562 0.00015 0.39486 0.0
C1169 C 0.46432 0.01154 0.38708 0.0
C1170 C 0.44414 0.99103 0.38166 0.0
H1171 H 0.44134 0.94238 0.35099 0.0
H1172 H 0.42915 0.97695 0.35809 0.0
H1173 H 0.46388 0.9567 0.36242 0.0
H1174 H 0.46897 0.92263 0.39303 0.0
H1175 H 0.50345 0.95844 0.40279 0.0
H1176 H 0.47025 0.08738 0.58747 0.0
H1177 H 0.43465 0.12412 0.59623 0.0
H1178 H 0.50401 0.14354 0.62098 0.0
H1179 H 0.54051 0.10806 0.6118 0.0
H1180 H 0.40774 0.12539 0.61475 0.0
H1181 H 0.48284 0.23017 0.61255 0.0
H1182 H 0.49273 0.1943 0.60565 0.0
H1183 H 0.50161 0.19937 0.61999 0.0
C1184 C 0.47788 0.09942 0.59481 0.0
C1185 C 0.50812 0.09493 0.59897 0.0
C1186 C 0.45754 0.12051 0.59979 0.0
C1187 C 0.4668 0.13718 0.60915 0.0
C1188 C 0.49666 0.13182 0.61356 0.0
H1189 H 0.33545 0.22195 0.65388 0.0
H1190 H 0.37016 0.18739 0.64373 0.0
C1191 C 0.51736 0.11127 0.6084 0.0
C1192 C 0.44478 0.15946 0.61438 0.0
H1193 H 0.43826 0.23366 0.62432 0.0
C1194 C 0.41438 0.14916 0.61675 0.0
C1195 C 0.45307 0.19075 0.61675 0.0
C1196 C 0.48422 0.20439 0.61348 0.0
C1197 C 0.3923 0.16898 0.6216 0.0
C1198 C 0.40128 0.19955 0.62469 0.0
C1199 C 0.43145 0.2101 0.62211 0.0
C1200 C 0.38002 0.22069 0.63081 0.0
C1201 C 0.35941 0.157 0.6231 0.0
C1202 C 0.37497 0.25149 0.62722 0.0
C1203 C 0.35581 0.27167 0.63323 0.0
C1204 C 0.341 0.26119 0.64281 0.0
C1205 C 0.346 0.23041 0.64638 0.0
C1206 C 0.36572 0.21056 0.64053 0.0
H1207 H 0.35366 0.13889 0.6169 0.0
H1208 H 0.35728 0.14601 0.63131 0.0
H1209 H 0.34196 0.17609 0.62245 0.0
H1210 H 0.38592 0.25995 0.61978 0.0
H1211 H 0.35247 0.29537 0.63035 0.0
H1212 H 0.08957 0.03895 0.88382 0.0
H1213 H 0.12084 0.07524 0.87279 0.0
H1214 H 0.09628 0.15054 0.89458 0.0
H1215 H 0.06516 0.11461 0.90569 0.0
H1216 H 0.09053 0.15961 0.86937 0.0
H1217 H 0.20533 0.11801 0.88517 0.0
H1218 H 0.17689 0.08924 0.88111 0.0
H1219 H 0.16957 0.11328 0.89286 0.0
C1220 C 0.0907 0.06326 0.88623 0.0
C1221 C 0.07502 0.07389 0.89565 0.0
C1222 C 0.10861 0.08387 0.87995 0.0
C1223 C 0.1109 0.11538 0.88296 0.0
C1224 C 0.09478 0.12623 0.89219 0.0
H1225 H 0.19771 0.28035 0.85493 0.0
H1226 H 0.16636 0.24383 0.86572 0.0
C1227 C 0.0771 0.10564 0.89852 0.0
C1228 C 0.13047 0.13708 0.87656 0.0
H1229 H 0.2062 0.1575 0.87174 0.0
C1230 C 0.11582 0.15924 0.86985 0.0
C1231 C 0.16336 0.13628 0.87725 0.0
C1232 C 0.17993 0.11308 0.88451 0.0
C1233 C 0.13336 0.18058 0.86366 0.0
C1234 C 0.16634 0.18017 0.86448 0.0
C1235 C 0.18093 0.15784 0.87117 0.0
C1236 C 0.18619 0.20238 0.85833 0.0
C1237 C 0.11644 0.20286 0.85613 0.0
C1238 C 0.20863 0.19116 0.85094 0.0
C1239 C 0.22689 0.21192 0.84488 0.0
C1240 C 0.22302 0.24435 0.84611 0.0
C1241 C 0.20111 0.25553 0.85374 0.0
C1242 C 0.18299 0.2347 0.85985 0.0
H1243 H 0.09253 0.19448 0.85417 0.0
H1244 H 0.11424 0.22589 0.86022 0.0
H1245 H 0.12945 0.20618 0.84834 0.0
H1246 H 0.21162 0.16628 0.84971 0.0
H1247 H 0.24358 0.20252 0.83908 0.0
H1248 H 0.92173 0.01867 0.8807 0.0
H1249 H 0.87147 0.03211 0.87249 0.0
H1250 H 0.82754 0.02653 0.90424 0.0
H1251 H 0.87792 0.01377 0.91257 0.0
H1252 H 0.80426 0.01109 0.87282 0.0
H1253 H 0.83045 0.12116 0.89554 0.0
H1254 H 0.85952 0.09116 0.89378 0.0
H1255 H 0.82786 0.08541 0.90321 0.0
C1256 C 0.90119 0.01941 0.88588 0.0
C1257 C 0.90385 0.01585 0.89729 0.0
C1258 C 0.87244 0.02679 0.88117 0.0
C1259 C 0.84598 0.03073 0.8878 0.0
C1260 C 0.84781 0.02371 0.89901 0.0
H1261 H 0.72971 0.18076 0.86426 0.0
H1262 H 0.73841 0.13464 0.87578 0.0
C1263 C 0.87661 0.01634 0.90375 0.0
C1264 C 0.81926 0.04849 0.88336 0.0
H1265 H 0.79311 0.12338 0.88187 0.0
C1266 C 0.80112 0.03547 0.87495 0.0
C1267 C 0.8151 0.08019 0.88624 0.0
C1268 C 0.83426 0.09553 0.89514 0.0
C1269 C 0.78012 0.05392 0.86891 0.0
C1270 C 0.77812 0.08631 0.87113 0.0
C1271 C 0.79451 0.0986 0.88012 0.0
C1272 C 0.76395 0.10898 0.86336 0.0
C1273 C 0.76103 0.03862 0.86003 0.0
C1274 C 0.77392 0.10933 0.85238 0.0
C1275 C 0.76824 0.13529 0.84575 0.0
C1276 C 0.75312 0.16154 0.85008 0.0
C1277 C 0.74122 0.16053 0.86078 0.0
C1278 C 0.74623 0.13424 0.86733 0.0
H1279 H 0.75415 0.01462 0.86251 0.0
H1280 H 0.73962 0.05218 0.8581 0.0
H1281 H 0.7754 0.03652 0.85249 0.0
H1282 H 0.78848 0.09081 0.84916 0.0
H1283 H 0.77803 0.13593 0.83756 0.0
H1284 H 0.68459 0.97363 0.59271 0.0
H1285 H 0.73496 0.98392 0.60149 0.0
H1286 H 0.68987 0.04696 0.62406 0.0
H1287 H 0.64016 0.03767 0.61527 0.0
H1288 H 0.76022 0.04147 0.6008 0.0
H1289 H 0.75299 0.00664 0.644 0.0
H1290 H 0.72759 0.99017 0.63367 0.0
H1291 H 0.7175 0.02627 0.64044 0.0
C1292 C 0.68532 0.98924 0.59968 0.0
C1293 C 0.65826 0.00513 0.60317 0.0
C1294 C 0.71411 0.99483 0.60475 0.0
C1295 C 0.71617 0.0159 0.61352 0.0
C1296 C 0.68882 0.0299 0.61752 0.0
H1297 H 0.77714 0.17863 0.62699 0.0
H1298 H 0.76954 0.12933 0.6178 0.0
C1299 C 0.66021 0.02457 0.61243 0.0
C1300 C 0.74668 0.0283 0.61721 0.0
H1301 H 0.77875 0.05803 0.64049 0.0
C1302 C 0.76515 0.04409 0.60947 0.0
C1303 C 0.75396 0.03103 0.62847 0.0
C1304 C 0.73709 0.01225 0.63708 0.0
C1305 C 0.78732 0.06622 0.6128 0.0
C1306 C 0.79056 0.07289 0.62409 0.0
C1307 C 0.77573 0.05355 0.6318 0.0
C1308 C 0.80217 0.10358 0.62791 0.0
C1309 C 0.8051 0.08411 0.60418 0.0
C1310 C 0.82365 0.10588 0.63655 0.0
C1311 C 0.82834 0.13449 0.64185 0.0
C1312 C 0.81109 0.1611 0.63873 0.0
C1313 C 0.79131 0.15901 0.62956 0.0
C1314 C 0.78691 0.13061 0.62424 0.0
H1315 H 0.81074 0.06878 0.59711 0.0
H1316 H 0.79033 0.10348 0.60107 0.0
H1317 H 0.8271 0.09404 0.60751 0.0
H1318 H 0.83554 0.08526 0.63956 0.0
H1319 H 0.84428 0.13534 0.64873 0.0
H1320 H 0.78263 0.92859 0.33753 0.0
H1321 H 0.77327 0.9719 0.34986 0.0
H1322 H 0.8312 0.92829 0.37442 0.0
H1323 H 0.84035 0.88418 0.36205 0.0
H1324 H 0.77581 0.93767 0.382 0.0
H1325 H 0.81066 0.04809 0.36279 0.0
H1326 H 0.78897 0.02603 0.35294 0.0
H1327 H 0.82556 0.01098 0.35807 0.0
C1328 C 0.79449 0.92871 0.34537 0.0
C1329 C 0.81202 0.90279 0.34884 0.0
C1330 C 0.78928 0.95375 0.35243 0.0
C1331 C 0.80182 0.95368 0.36306 0.0
C1332 C 0.8214 0.92895 0.36624 0.0
H1333 H 0.68732 0.04582 0.41315 0.0
H1334 H 0.73787 0.03163 0.4052 0.0
C1335 C 0.82644 0.90367 0.3592 0.0
C1336 C 0.78889 0.97557 0.37132 0.0
H1337 H 0.7614 0.05008 0.37368 0.0
C1338 C 0.77367 0.9625 0.38043 0.0
C1339 C 0.78615 0.00801 0.36933 0.0
C1340 C 0.80407 0.02403 0.3603 0.0
C1341 C 0.75301 0.98014 0.38682 0.0
C1342 C 0.74779 0.01183 0.3841 0.0
C1343 C 0.76524 0.02569 0.37567 0.0
C1344 C 0.72051 0.02868 0.38859 0.0
C1345 C 0.73474 0.96395 0.39577 0.0
C1346 C 0.69462 0.0336 0.38177 0.0
C1347 C 0.66583 0.04188 0.38625 0.0
C1348 C 0.66249 0.04539 0.39764 0.0
C1349 C 0.68917 0.04334 0.40434 0.0
C1350 C 0.71803 0.03507 0.39983 0.0
H1351 H 0.7393 0.93842 0.39603 0.0
H1352 H 0.74124 0.97395 0.40384 0.0
H1353 H 0.7093 0.96765 0.39457 0.0
H1354 H 0.6961 0.02882 0.37306 0.0
H1355 H 0.64578 0.04382 0.38088 0.0
H1356 H 0.75657 0.92618 0.16207 0.0
H1357 H 0.77243 0.97757 0.15536 0.0
H1358 H 0.76989 0.94327 0.12214 0.0
H1359 H 0.7537 0.89198 0.12878 0.0
H1360 H 0.82952 0.97599 0.14493 0.0
H1361 H 0.74342 0.03488 0.11831 0.0
H1362 H 0.73242 0.00644 0.12859 0.0
H1363 H 0.7466 0.99392 0.11541 0.0
C1364 C 0.75792 0.93 0.1533 0.0
C1365 C 0.75426 0.90503 0.14593 0.0
C1366 C 0.76701 0.9594 0.14949 0.0
C1367 C 0.7722 0.9643 0.13826 0.0
C1368 C 0.76548 0.94022 0.13082 0.0
H1369 H 0.8908 0.03282 0.09181 0.0
H1370 H 0.8447 0.01978 0.10268 0.0
C1371 C 0.75657 0.9108 0.13463 0.0
C1372 C 0.7917 0.9908 0.13457 0.0
H1373 H 0.79812 0.04506 0.11423 0.0
C1374 C 0.82249 0.99185 0.13844 0.0
C1375 C 0.78241 0.01119 0.12608 0.0
C1376 C 0.74929 0.01179 0.12192 0.0
C1377 C 0.84513 0.01043 0.13335 0.0
C1378 C 0.83635 0.02957 0.12437 0.0
C1379 C 0.80487 0.03045 0.1211 0.0
C1380 C 0.86023 0.0443 0.11723 0.0
C1381 C 0.87869 0.00694 0.137 0.0
C1382 C 0.88349 0.0639 0.12157 0.0
C1383 C 0.91029 0.07055 0.11544 0.0
C1384 C 0.91339 0.05883 0.10476 0.0
C1385 C 0.88867 0.04219 0.10002 0.0
C1386 C 0.86234 0.03483 0.10623 0.0
H1387 H 0.88201 0.98667 0.14256 0.0
H1388 H 0.89441 0.00389 0.12984 0.0
H1389 H 0.88597 0.02821 0.14151 0.0
H1390 H 0.8819 0.07226 0.12992 0.0
H1391 H 0.92918 0.08352 0.1192 0.0
H1392 H 0.71485 0.33948 0.65502 0.0
H1393 H 0.67897 0.37308 0.64494 0.0
H1394 H 0.66603 0.30063 0.62077 0.0
H1395 H 0.70069 0.26617 0.63123 0.0
H1396 H 0.6819 0.39749 0.62592 0.0
H1397 H 0.57742 0.3215 0.62659 0.0
H1398 H 0.61183 0.3129 0.63453 0.0
H1399 H 0.61004 0.30258 0.62022 0.0
C1400 C 0.70432 0.33069 0.64755 0.0
C1401 C 0.71047 0.30022 0.64389 0.0
C1402 C 0.68376 0.3499 0.64181 0.0
C1403 C 0.66927 0.33925 0.63219 0.0
C1404 C 0.67607 0.30905 0.62835 0.0
H1405 H 0.58961 0.46795 0.58494 0.0
H1406 H 0.62292 0.43251 0.59534 0.0
C1407 C 0.69612 0.2895 0.63426 0.0
C1408 C 0.64796 0.36034 0.62607 0.0
H1409 H 0.57545 0.36547 0.61458 0.0
C1410 C 0.65853 0.39051 0.62352 0.0
C1411 C 0.61723 0.35152 0.6231 0.0
C1412 C 0.60334 0.32049 0.62636 0.0
C1413 C 0.63944 0.41201 0.61803 0.0
C1414 C 0.60938 0.40262 0.61451 0.0
C1415 C 0.59863 0.37256 0.61716 0.0
C1416 C 0.58878 0.42358 0.60807 0.0
C1417 C 0.65152 0.4448 0.61637 0.0
C1418 C 0.55794 0.42928 0.61146 0.0
C1419 C 0.53851 0.4489 0.60534 0.0
C1420 C 0.54979 0.46346 0.59582 0.0
C1421 C 0.58054 0.45756 0.59239 0.0
C1422 C 0.59966 0.43742 0.59836 0.0
H1423 H 0.66926 0.451 0.62264 0.0
H1424 H 0.66294 0.44643 0.60822 0.0
H1425 H 0.63236 0.46224 0.61674 0.0
H1426 H 0.54894 0.41869 0.61889 0.0
H1427 H 0.51483 0.45296 0.60812 0.0
H1428 H 0.97746 0.465 0.90603 0.0
H1429 H 0.94298 0.42981 0.89609 0.0
H1430 H 0.95187 0.48687 0.86712 0.0
H1431 H 0.98629 0.52272 0.87708 0.0
H1432 H 0.89016 0.47116 0.87234 0.0
H1433 H 0.96641 0.36646 0.87241 0.0
H1434 H 0.96046 0.38301 0.88577 0.0
H1435 H 0.98086 0.40509 0.87547 0.0
C1436 C 0.97233 0.47007 0.89752 0.0
C1437 C 0.98471 0.49668 0.89233 0.0
C1438 C 0.95272 0.44977 0.89184 0.0
C1439 C 0.94527 0.45551 0.88084 0.0
C1440 C 0.95755 0.48199 0.8756 0.0
H1441 H 0.85339 0.32752 0.83672 0.0
H1442 H 0.88969 0.36195 0.84621 0.0
C1443 C 0.97723 0.50239 0.88129 0.0
C1444 C 0.92365 0.43443 0.87498 0.0
H1445 H 0.91334 0.35859 0.86725 0.0
C1446 C 0.89525 0.44658 0.87116 0.0
C1447 C 0.93055 0.40246 0.87341 0.0
C1448 C 0.96135 0.38849 0.87688 0.0
C1449 C 0.87323 0.42743 0.86595 0.0
C1450 C 0.87968 0.39524 0.86471 0.0
C1451 C 0.90832 0.38322 0.86836 0.0
C1452 C 0.85754 0.37384 0.85923 0.0
C1453 C 0.84352 0.4419 0.86165 0.0
C1454 C 0.82758 0.36867 0.86354 0.0
C1455 C 0.80662 0.34898 0.85812 0.0
C1456 C 0.81542 0.33404 0.84833 0.0
C1457 C 0.84576 0.33872 0.84421 0.0
C1458 C 0.8666 0.35839 0.84962 0.0
H1459 H 0.84554 0.46767 0.86088 0.0
H1460 H 0.83726 0.43205 0.85353 0.0
H1461 H 0.82415 0.43678 0.86743 0.0
H1462 H 0.8204 0.37992 0.87108 0.0
H1463 H 0.78349 0.34575 0.86153 0.0
H1464 H 0.00116 0.61044 0.0906 0.0
H1465 H 0.96617 0.64521 0.1006 0.0
H1466 H 0.92801 0.56629 0.11807 0.0
H1467 H 0.96385 0.53142 0.10832 0.0
H1468 H 0.90449 0.646 0.09997 0.0
H1469 H 0.94265 0.62617 0.14282 0.0
H1470 H 0.96496 0.61268 0.1312 0.0
H1471 H 0.93174 0.59078 0.13597 0.0
C1472 C 0.98559 0.60053 0.09668 0.0
C1473 C 0.98521 0.56824 0.0987 0.0
C1474 C 0.9656 0.62043 0.10237 0.0
C1475 C 0.94466 0.60842 0.11015 0.0
C1476 C 0.94448 0.57618 0.1123 0.0
H1477 H 0.77682 0.70558 0.1317 0.0
H1478 H 0.81438 0.67218 0.12215 0.0
C1479 C 0.96487 0.55626 0.1067 0.0
C1480 C 0.92192 0.62956 0.11551 0.0
H1481 H 0.89509 0.65412 0.14038 0.0
C1482 C 0.90254 0.64791 0.10881 0.0
C1483 C 0.91965 0.63227 0.12704 0.0
C1484 C 0.94107 0.61467 0.13468 0.0
C1485 C 0.88086 0.66881 0.11332 0.0
C1486 C 0.87781 0.67069 0.12484 0.0
C1487 C 0.89729 0.65246 0.13154 0.0
C1488 C 0.855 0.69179 0.13017 0.0
C1489 C 0.86204 0.68918 0.10568 0.0
C1490 C 0.8653 0.71356 0.13797 0.0
C1491 C 0.84389 0.73222 0.14355 0.0
C1492 C 0.81175 0.72961 0.1414 0.0
C1493 C 0.80147 0.70834 0.13342 0.0
C1494 C 0.82292 0.68933 0.12793 0.0
H1495 H 0.87359 0.69168 0.09757 0.0
H1496 H 0.83885 0.67831 0.10431 0.0
H1497 H 0.8584 0.71281 0.10919 0.0
H1498 H 0.88993 0.71586 0.13982 0.0
H1499 H 0.85251 0.7485 0.14963 0.0
H1500 H 0.72043 0.72055 0.33509 0.0
H1501 H 0.68374 0.68726 0.34487 0.0
H1502 H 0.6678 0.76071 0.36845 0.0
H1503 H 0.7034 0.79491 0.35825 0.0
H1504 H 0.68549 0.66393 0.36409 0.0
H1505 H 0.57995 0.73821 0.36172 0.0
H1506 H 0.61495 0.74685 0.35409 0.0
H1507 H 0.61174 0.75794 0.3683 0.0
C1508 C 0.70911 0.72965 0.34236 0.0
C1509 C 0.71477 0.76029 0.34594 0.0
C1510 C 0.68805 0.71061 0.34793 0.0
C1511 C 0.67255 0.72158 0.35731 0.0
C1512 C 0.6787 0.75201 0.36105 0.0
H1513 H 0.59125 0.59483 0.40465 0.0
H1514 H 0.62461 0.63011 0.39423 0.0
C1515 C 0.6993 0.77141 0.3553 0.0
C1516 C 0.65098 0.7005 0.36331 0.0
H1517 H 0.57748 0.69473 0.37396 0.0
C1518 C 0.66179 0.67064 0.36617 0.0
C1519 C 0.61984 0.70895 0.36585 0.0
C1520 C 0.60582 0.7396 0.36222 0.0
C1521 C 0.64253 0.64911 0.37156 0.0
C1522 C 0.61201 0.65819 0.37467 0.0
C1523 C 0.601 0.6879 0.3717 0.0
C1524 C 0.59131 0.63731 0.38111 0.0
C1525 C 0.65497 0.61662 0.37358 0.0
C1526 C 0.56088 0.63069 0.37747 0.0
C1527 C 0.54139 0.61113 0.3836 0.0
C1528 C 0.55221 0.59758 0.39337 0.0
C1529 C 0.58255 0.60441 0.39702 0.0
C1530 C 0.60171 0.62446 0.39104 0.0
H1531 H 0.6733 0.61034 0.36751 0.0
H1532 H 0.66578 0.61563 0.38184 0.0
H1533 H 0.63614 0.59886 0.37315 0.0
H1534 H 0.55227 0.64053 0.36987 0.0
H1535 H 0.51802 0.60637 0.38065 0.0
H1536 H 0.38744 0.46619 0.39808 0.0
H1537 H 0.33931 0.47439 0.38766 0.0
H1538 H 0.38973 0.53154 0.36457 0.0
H1539 H 0.43693 0.52514 0.37504 0.0
H1540 H 0.31664 0.53457 0.3859 0.0
H1541 H 0.32918 0.4864 0.34444 0.0
H1542 H 0.35073 0.47114 0.35603 0.0
H1543 H 0.36528 0.50424 0.34842 0.0
C1544 C 0.38844 0.48017 0.3907 0.0
C1545 C 0.41626 0.49543 0.38757 0.0
C1546 C 0.36092 0.48441 0.38467 0.0
C1547 C 0.36098 0.50322 0.37526 0.0
C1548 C 0.38922 0.51618 0.37163 0.0
H1549 H 0.3274 0.65321 0.34585 0.0
H1550 H 0.33548 0.60055 0.35273 0.0
C1551 C 0.41645 0.51245 0.3777 0.0
C1552 C 0.33162 0.51527 0.37046 0.0
H1553 H 0.30678 0.54034 0.34547 0.0
C1554 C 0.31322 0.53477 0.37709 0.0
C1555 C 0.32675 0.51509 0.35901 0.0
C1556 C 0.34388 0.49275 0.35161 0.0
C1557 C 0.29411 0.5578 0.37241 0.0
C1558 C 0.2934 0.56095 0.36088 0.0
C1559 C 0.30779 0.53819 0.35432 0.0
C1560 C 0.28654 0.59154 0.35584 0.0
C1561 C 0.2782 0.58117 0.37978 0.0
C1562 C 0.25621 0.60386 0.35525 0.0
C1563 C 0.25153 0.63433 0.35135 0.0
C1564 C 0.27717 0.65277 0.34815 0.0
C1565 C 0.30728 0.63987 0.3485 0.0
C1566 C 0.31188 0.60963 0.3523 0.0
H1567 H 0.28004 0.57469 0.38858 0.0
H1568 H 0.28887 0.60457 0.37862 0.0
H1569 H 0.25312 0.58298 0.37759 0.0
H1570 H 0.23639 0.59016 0.35794 0.0
H1571 H 0.22806 0.64373 0.35109 0.0
H1572 H 0.23471 0.64603 0.15178 0.0
H1573 H 0.23019 0.59745 0.14169 0.0
H1574 H 0.33019 0.59494 0.13727 0.0
H1575 H 0.3347 0.64464 0.1473 0.0
H1576 H 0.30154 0.5884 0.11827 0.0
H1577 H 0.24464 0.50649 0.14615 0.0
H1578 H 0.22442 0.54279 0.14762 0.0
H1579 H 0.26532 0.54039 0.15118 0.0
C1580 C 0.2558 0.63493 0.14879 0.0
C1581 C 0.28498 0.64925 0.15017 0.0
C1582 C 0.25329 0.60679 0.1432 0.0
C1583 C 0.27992 0.59204 0.13892 0.0
C1584 C 0.30939 0.60565 0.14065 0.0
H1585 H 0.16571 0.47459 0.09829 0.0
H1586 H 0.21523 0.47913 0.10846 0.0
C1587 C 0.31194 0.63398 0.14634 0.0
C1588 C 0.27544 0.56577 0.13116 0.0
H1589 H 0.221 0.50914 0.1271 0.0
C1590 C 0.28498 0.57009 0.12026 0.0
C1591 C 0.25506 0.5408 0.13369 0.0
C1592 C 0.24718 0.5322 0.14535 0.0
C1593 C 0.27022 0.55397 0.11171 0.0
C1594 C 0.24489 0.53397 0.11418 0.0
C1595 C 0.23959 0.5254 0.12513 0.0
C1596 C 0.21915 0.52914 0.10623 0.0
C1597 C 0.27988 0.56078 0.10006 0.0
C1598 C 0.20509 0.55559 0.10154 0.0
C1599 C 0.17706 0.55306 0.09588 0.0
C1600 C 0.16218 0.52406 0.09484 0.0
C1601 C 0.17684 0.49721 0.09901 0.0
C1602 C 0.20507 0.49977 0.10477 0.0
H1603 H 0.3057 0.56285 0.09951 0.0
H1604 H 0.27188 0.54231 0.09433 0.0
H1605 H 0.26987 0.58351 0.09747 0.0
H1606 H 0.21476 0.57867 0.10283 0.0
H1607 H 0.16638 0.57407 0.09264 0.0
H1608 H 0.16441 0.48448 0.90352 0.0
H1609 H 0.21503 0.47385 0.89527 0.0
H1610 H 0.21843 0.5678 0.88252 0.0
H1611 H 0.16708 0.57855 0.89085 0.0
H1612 H 0.22582 0.52315 0.86675 0.0
H1613 H 0.30563 0.49585 0.90064 0.0
H1614 H 0.26903 0.47676 0.903 0.0
H1615 H 0.27063 0.51884 0.90258 0.0
C1616 C 0.17617 0.50303 0.8991 0.0
C1617 C 0.16181 0.53217 0.89768 0.0
C1618 C 0.20534 0.49712 0.89454 0.0
C1619 C 0.22085 0.52024 0.88847 0.0
C1620 C 0.20707 0.54984 0.88734 0.0
H1621 H 0.33638 0.42001 0.84058 0.0
H1622 H 0.3275 0.46723 0.85153 0.0
C1623 C 0.17781 0.5559 0.89203 0.0
C1624 C 0.24844 0.51101 0.88192 0.0
H1625 H 0.31068 0.46187 0.88413 0.0
C1626 C 0.24529 0.5109 0.87047 0.0
C1627 C 0.27407 0.4955 0.88678 0.0
C1628 C 0.28018 0.49708 0.89893 0.0
C1629 C 0.26425 0.49178 0.86393 0.0
C1630 C 0.287 0.4727 0.86902 0.0
C1631 C 0.29293 0.47621 0.88027 0.0
C1632 C 0.29836 0.44413 0.86353 0.0
C1633 C 0.25733 0.48931 0.85183 0.0
C1634 C 0.28603 0.41541 0.86694 0.0
C1635 C 0.29071 0.38863 0.86069 0.0
C1636 C 0.30802 0.38992 0.85091 0.0
C1637 C 0.32236 0.41833 0.84795 0.0
C1638 C 0.31751 0.44529 0.85421 0.0
H1639 H 0.23817 0.50517 0.84924 0.0
H1640 H 0.27855 0.49531 0.84705 0.0
H1641 H 0.25067 0.46498 0.84973 0.0
H1642 H 0.271 0.41408 0.87407 0.0
H1643 H 0.27892 0.36742 0.86319 0.0
H1644 H 0.28827 0.38999 0.62853 0.0
H1645 H 0.29965 0.43957 0.61988 0.0
H1646 H 0.23229 0.48532 0.64069 0.0
H1647 H 0.22041 0.43514 0.64948 0.0
H1648 H 0.26676 0.48732 0.60921 0.0
H1649 H 0.31494 0.52637 0.64945 0.0
H1650 H 0.30369 0.48628 0.6473 0.0
H1651 H 0.27433 0.51601 0.64847 0.0
C1652 C 0.27496 0.41024 0.63106 0.0
C1653 C 0.25366 0.40854 0.63981 0.0
C1654 C 0.28162 0.43873 0.62611 0.0
C1655 C 0.26722 0.46624 0.62977 0.0
C1656 C 0.24409 0.46444 0.63789 0.0
H1657 H 0.38588 0.59688 0.59332 0.0
H1658 H 0.33613 0.58725 0.60274 0.0
C1659 C 0.23739 0.43576 0.6429 0.0
C1660 C 0.28004 0.4964 0.6259 0.0
H1661 H 0.33558 0.54895 0.63366 0.0
C1662 C 0.28097 0.50174 0.61456 0.0
C1663 C 0.29824 0.51531 0.63295 0.0
C1664 C 0.29798 0.51087 0.64522 0.0
C1665 C 0.30278 0.52238 0.60995 0.0
C1666 C 0.32366 0.53844 0.61696 0.0
C1667 C 0.31965 0.53638 0.62835 0.0
C1668 C 0.35412 0.54976 0.61281 0.0
C1669 C 0.30573 0.52395 0.59763 0.0
C1670 C 0.381 0.53312 0.6158 0.0
C1671 C 0.40924 0.53848 0.61049 0.0
C1672 C 0.41131 0.5607 0.60204 0.0
C1673 C 0.38491 0.57916 0.59964 0.0
C1674 C 0.35649 0.57375 0.60502 0.0
H1675 H 0.28862 0.50862 0.59341 0.0
H1676 H 0.30181 0.54828 0.59483 0.0
H1677 H 0.32961 0.51692 0.59508 0.0
H1678 H 0.3797 0.5144 0.62177 0.0
H1679 H 0.4288 0.5235 0.61248 0.0
H1680 H 0.05348 0.92418 0.06214 0.0
H1681 H 0.06353 0.86838 0.05988 0.0
H1682 H 0.97139 0.84767 0.07221 0.0
H1683 H 0.96111 0.90354 0.07437 0.0
H1684 H 0.0645 0.82369 0.07558 0.0
H1685 H 0.97413 0.79556 0.04456 0.0
H1686 H 0.98514 0.83516 0.04782 0.0
H1687 H 0.95855 0.81418 0.05655 0.0
C1688 C 0.03537 0.90772 0.06436 0.0
C1689 C 0.0065 0.91816 0.06843 0.0
C1690 C 0.04109 0.8759 0.06302 0.0
C1691 C 0.01804 0.85394 0.06572 0.0
C1692 C 0.98919 0.86427 0.0698 0.0
H1693 H 0.01873 0.65567 0.07584 0.0
H1694 H 0.00864 0.71171 0.07576 0.0
C1695 C 0.98337 0.89615 0.07106 0.0
C1696 C 0.02484 0.82021 0.06478 0.0
H1697 H -0.00097 0.75226 0.0533 0.0
C1698 C 0.05037 0.80813 0.07063 0.0
C1699 C 0.00638 0.80001 0.05828 0.0
C1700 C 0.97971 0.8119 0.05136 0.0
C1701 C 0.05749 0.77622 0.07034 0.0
C1702 C 0.03861 0.75605 0.06407 0.0
C1703 C 0.01332 0.76801 0.05812 0.0
C1704 C 0.04442 0.72221 0.06382 0.0
C1705 C 0.08475 0.76399 0.07689 0.0
C1706 C 0.06778 0.70981 0.05707 0.0
C1707 C 0.07344 0.6777 0.05699 0.0
C1708 C 0.05583 0.65755 0.06369 0.0
C1709 C 0.03239 0.6703 0.07044 0.0
C1710 C 0.02667 0.70235 0.07046 0.0
H1711 H 0.09605 0.78251 0.08188 0.0
H1712 H 0.07685 0.74497 0.08242 0.0
H1713 H 0.10243 0.75395 0.07124 0.0
H1714 H 0.08158 0.725 0.05187 0.0
H1715 H 0.09137 0.66868 0.0516 0.0
H1716 H 0.41422 0.71744 0.31479 0.0
H1717 H 0.46982 0.72949 0.31313 0.0
H1718 H 0.44836 0.82772 0.31141 0.0
H1719 H 0.39271 0.81592 0.31293 0.0
H1720 H 0.5025 0.76349 0.29634 0.0
H1721 H 0.51046 0.81959 0.33737 0.0
H1722 H 0.47796 0.79524 0.33341 0.0
H1723 H 0.48059 0.83465 0.32847 0.0
C1724 C 0.42125 0.74158 0.31393 0.0
C1725 C 0.399 0.76573 0.31408 0.0
C1726 C 0.45302 0.74842 0.31303 0.0
C1727 C 0.46309 0.77949 0.3123 0.0
C1728 C 0.441 0.80362 0.31217 0.0
H1729 H 0.65304 0.84121 0.29719 0.0
H1730 H 0.59631 0.8333 0.29682 0.0
C1731 C 0.40923 0.79682 0.31307 0.0
C1732 C 0.49681 0.7866 0.31188 0.0
H1733 H 0.55586 0.82049 0.32638 0.0
C1734 C 0.51422 0.77605 0.30287 0.0
C1735 C 0.5119 0.80273 0.32048 0.0
C1736 C 0.49441 0.81354 0.33054 0.0
C1737 C 0.54652 0.78122 0.30224 0.0
C1738 C 0.56154 0.79759 0.3108 0.0
C1739 C 0.5441 0.80818 0.31979 0.0
C1740 C 0.59566 0.80252 0.31089 0.0
C1741 C 0.56449 0.76846 0.29259 0.0
C1742 C 0.6138 0.78826 0.31903 0.0
C1743 C 0.646 0.79284 0.31929 0.0
C1744 C 0.66067 0.81193 0.31144 0.0
C1745 C 0.64237 0.82648 0.30335 0.0
C1746 C 0.61007 0.82178 0.30308 0.0
H1747 H 0.55052 0.75142 0.28779 0.0
H1748 H 0.57109 0.78798 0.28707 0.0
H1749 H 0.58631 0.7569 0.29537 0.0
H1750 H 0.60301 0.77351 0.32518 0.0
H1751 H 0.65934 0.78181 0.32576 0.0
H1752 H 0.5155 0.15103 0.57579 0.0
H1753 H 0.50098 0.20583 0.57374 0.0
H1754 H 0.57684 0.21946 0.55102 0.0
H1755 H 0.59109 0.16434 0.55271 0.0
H1756 H 0.56711 0.26248 0.57242 0.0
H1757 H 0.46787 0.25049 0.54316 0.0
H1758 H 0.47181 0.22265 0.55417 0.0
H1759 H 0.50003 0.22314 0.54333 0.0
C1760 C 0.52881 0.16541 0.57019 0.0
C1761 C 0.55444 0.15315 0.56437 0.0
C1762 C 0.52053 0.19676 0.56909 0.0
C1763 C 0.53776 0.21639 0.56219 0.0
C1764 C 0.56328 0.20444 0.55636 0.0
H1765 H 0.54129 0.41743 0.55412 0.0
H1766 H 0.55277 0.36151 0.55356 0.0
C1767 C 0.57149 0.17302 0.5574 0.0
C1768 C 0.52993 0.24979 0.56145 0.0
H1769 H 0.47865 0.30101 0.54987 0.0
C1770 C 0.54789 0.27105 0.56747 0.0
C1771 C 0.50462 0.2605 0.55508 0.0
C1772 C 0.48488 0.23817 0.54851 0.0
C1773 C 0.54098 0.30302 0.56736 0.0
C1774 C 0.51597 0.31395 0.5608 0.0
C1775 C 0.49792 0.29256 0.55482 0.0
C1776 C 0.50803 0.3475 0.5602 0.0
C1777 C 0.55999 0.32466 0.57449 0.0
C1778 C 0.47853 0.35798 0.56359 0.0
C1779 C 0.47182 0.3899 0.5638 0.0
C1780 C 0.49457 0.41177 0.56065 0.0
C1781 C 0.52358 0.40108 0.5568 0.0
C1782 C 0.53017 0.3692 0.5565 0.0
H1783 H 0.57214 0.31179 0.58116 0.0
H1784 H 0.57803 0.33632 0.5694 0.0
H1785 H 0.54506 0.34297 0.57824 0.0
H1786 H 0.46106 0.34154 0.56642 0.0
H1787 H 0.44935 0.39752 0.56686 0.0
H1788 H 0.15047 0.32108 0.79646 0.0
H1789 H 0.09427 0.31028 0.79631 0.0
H1790 H 0.10374 0.25658 0.82604 0.0
H1791 H 0.15968 0.26777 0.82638 0.0
H1792 H 0.06301 0.24938 0.79661 0.0
H1793 H 0.03572 0.32389 0.8327 0.0
H1794 H 0.07165 0.32753 0.82505 0.0
H1795 H 0.06667 0.29604 0.83461 0.0
C1796 C 0.14053 0.30715 0.80299 0.0
C1797 C 0.15946 0.29535 0.81145 0.0
C1798 C 0.10854 0.30083 0.80285 0.0
C1799 C 0.09499 0.28289 0.81121 0.0
C1800 C 0.11382 0.27071 0.81957 0.0
H1801 H 0.90984 0.20151 0.81578 0.0
H1802 H 0.96624 0.20977 0.81428 0.0
C1803 C 0.14579 0.27691 0.8197 0.0
C1804 C 0.06103 0.27722 0.81128 0.0
H1805 H 0.99456 0.29306 0.82564 0.0
C1806 C 0.04796 0.25891 0.80293 0.0
C1807 C 0.04163 0.28998 0.81951 0.0
C1808 C 0.05447 0.31068 0.82845 0.0
C1809 C 0.01581 0.25267 0.80268 0.0
C1810 C 0.99652 0.26495 0.81102 0.0
C1811 C 0.00957 0.28355 0.8193 0.0
C1812 C 0.96253 0.2594 0.81125 0.0
C1813 C 0.0026 0.2334 0.79343 0.0
C1814 C 0.94195 0.2846 0.81007 0.0
C1815 C 0.90982 0.27996 0.81089 0.0
C1816 C 0.89766 0.25005 0.813 0.0
C1817 C 0.9184 0.22474 0.81402 0.0
C1818 C 0.95061 0.22941 0.81317 0.0
H1819 H 0.01939 0.23103 0.78653 0.0
H1820 H 0.99699 0.20968 0.79651 0.0
H1821 H 0.98068 0.24397 0.79028 0.0
H1822 H 0.95081 0.30791 0.80857 0.0
H1823 H 0.89455 0.29987 0.80986 0.0
H1824 H 0.04828 0.15305 0.93684 0.0
H1825 H 0.05746 0.20912 0.93832 0.0
H1826 H 0.96016 0.22675 0.93165 0.0
H1827 H 0.9508 0.17056 0.93005 0.0
H1828 H 0.04658 0.25231 0.92141 0.0
H1829 H 0.97864 0.28101 0.9589 0.0
H1830 H 0.99016 0.24161 0.95549 0.0
H1831 H 0.95755 0.25944 0.94866 0.0
C1832 C 0.02881 0.16881 0.93568 0.0
C1833 C -0.00117 0.15736 0.93325 0.0
C1834 C 0.03407 0.20081 0.9366 0.0
C1835 C 0.00944 0.22196 0.9352 0.0
C1836 C 0.97935 0.2107 0.93297 0.0
H1837 H 0.01775 0.41621 0.91759 0.0
H1838 H 0.0073 0.36029 0.91901 0.0
C1839 C 0.97405 0.17863 0.93205 0.0
C1840 C 0.01577 0.25583 0.93532 0.0
H1841 H -0.00211 0.32387 0.94846 0.0
C1842 C 0.03606 0.26795 0.92735 0.0
C1843 C 0.00215 0.27602 0.94314 0.0
C1844 C 0.98111 0.26392 0.95211 0.0
C1845 C 0.04266 0.29993 0.92687 0.0
C1846 C 0.02839 0.32022 0.93449 0.0
C1847 C 0.00858 0.30811 0.9426 0.0
C1848 C 0.03351 0.3542 0.934 0.0
C1849 C 0.0649 0.31187 0.91823 0.0
C1850 C 0.05126 0.36918 0.94209 0.0
C1851 C 0.05727 0.40117 0.94132 0.0
C1852 C 0.0453 0.41861 0.9325 0.0
C1853 C 0.02699 0.40351 0.92454 0.0
C1854 C 0.02118 0.37156 0.92529 0.0
H1855 H 0.07852 0.29268 0.91439 0.0
H1856 H 0.05142 0.32385 0.91169 0.0
H1857 H 0.0814 0.32908 0.9218 0.0
H1858 H 0.06085 0.35603 0.94889 0.0
H1859 H 0.07112 0.41228 0.94763 0.0
H1860 H 0.16084 0.81115 0.18346 0.0
H1861 H 0.10516 0.82342 0.1834 0.0
H1862 H 0.0833 0.72527 0.1819 0.0
H1863 H 0.13895 0.71272 0.18178 0.0
H1864 H 0.06155 0.80663 0.16686 0.0
H1865 H 0.02956 0.75846 0.20764 0.0
H1866 H 0.06941 0.76696 0.2038 0.0
H1867 H 0.05077 0.73203 0.19895 0.0
C1868 C 0.14426 0.79213 0.18308 0.0
C1869 C 0.15442 0.76091 0.1826 0.0
C1870 C 0.11245 0.79921 0.18311 0.0
C1871 C 0.09023 0.77524 0.18277 0.0
C1872 C 0.10016 0.74407 0.18238 0.0
H1873 H 0.89725 0.77796 0.16361 0.0
H1874 H 0.9537 0.77085 0.16519 0.0
C1875 C 0.13198 0.73694 0.18232 0.0
C1876 C 0.05663 0.78289 0.18234 0.0
H1877 H 0.98762 0.77286 0.19588 0.0
C1878 C 0.04538 0.79944 0.17323 0.0
C1879 C 0.03577 0.77373 0.19072 0.0
C1880 C 0.04693 0.75705 0.20089 0.0
C1881 C 0.01354 0.80636 0.17214 0.0
C1882 C 0.99253 0.79619 0.18033 0.0
C1883 C 0.00387 0.7804 0.18958 0.0
C1884 C 0.95853 0.80104 0.1793 0.0
C1885 C 0.0026 0.82451 0.16226 0.0
C1886 C 0.94262 0.82002 0.18682 0.0
C1887 C 0.91033 0.82403 0.18596 0.0
C1888 C 0.89345 0.80879 0.17765 0.0
C1889 C 0.90956 0.78974 0.17016 0.0
C1890 C 0.94181 0.7859 0.17098 0.0
H1891 H 0.02217 0.83691 0.15816 0.0
H1892 H 0.9921 0.80815 0.15625 0.0
H1893 H 0.98449 0.84184 0.1646 0.0
H1894 H 0.9552 0.8317 0.19334 0.0
H1895 H 0.89851 0.83852 0.19193 0.0
H1896 H 0.45293 0.66888 0.42195 0.0
H1897 H 0.46525 0.72456 0.42359 0.0
H1898 H 0.55492 0.70142 0.4375 0.0
H1899 H 0.54287 0.64584 0.43574 0.0
H1900 H 0.48037 0.76145 0.44128 0.0
H1901 H 0.57885 0.75632 0.4117 0.0
H1902 H 0.5514 0.72472 0.41335 0.0
H1903 H 0.5828 0.72971 0.42299 0.0
C1904 C 0.47511 0.67574 0.42546 0.0
C1905 C 0.49712 0.65313 0.4286 0.0
C1906 C 0.48216 0.70747 0.42635 0.0
C1907 C 0.51126 0.71702 0.43044 0.0
C1908 C 0.5327 0.69449 0.43404 0.0
H1909 H 0.59106 0.90094 0.44203 0.0
H1910 H 0.57912 0.84508 0.4426 0.0
C1911 C 0.52578 0.66281 0.43305 0.0
C1912 C 0.51937 0.75054 0.43079 0.0
H1913 H 0.57185 0.80408 0.42125 0.0
C1914 C 0.50034 0.77078 0.43689 0.0
C1915 C 0.54537 0.76262 0.425 0.0
C1916 C 0.56562 0.7423 0.4178 0.0
C1917 C 0.50681 0.80283 0.43743 0.0
C1918 C 0.5329 0.81474 0.43173 0.0
C1919 C 0.55204 0.79459 0.42568 0.0
C1920 C 0.53987 0.84838 0.43153 0.0
C1921 C 0.48585 0.82388 0.44407 0.0
C1922 C 0.5219 0.86836 0.42501 0.0
C1923 C 0.52887 0.90012 0.42453 0.0
C1924 C 0.55388 0.91251 0.43063 0.0
C1925 C 0.57186 0.89223 0.43716 0.0
C1926 C 0.56498 0.86036 0.43756 0.0
H1927 H 0.46922 0.81046 0.44924 0.0
H1928 H 0.50004 0.8393 0.44943 0.0
H1929 H 0.47225 0.83905 0.43845 0.0
H1930 H 0.50268 0.85928 0.42019 0.0
H1931 H 0.51489 0.91476 0.41923 0.0
H1932 H 0.66465 0.29225 0.68646 0.0
H1933 H 0.60921 0.30455 0.68856 0.0
H1934 H 0.58513 0.21384 0.67573 0.0
H1935 H 0.64061 0.20133 0.67373 0.0
H1936 H 0.56741 0.30812 0.67203 0.0
H1937 H 0.52855 0.21954 0.70224 0.0
H1938 H 0.56926 0.22816 0.69985 0.0
H1939 H 0.5483 0.2028 0.69068 0.0
C1940 C 0.6475 0.27487 0.68417 0.0
C1941 C 0.65686 0.24587 0.6799 0.0
C1942 C 0.6159 0.28185 0.68542 0.0
C1943 C 0.59309 0.25998 0.68242 0.0
C1944 C 0.60236 0.23076 0.67835 0.0
H1945 H 0.39917 0.2716 0.66615 0.0
H1946 H 0.45429 0.25841 0.66829 0.0
C1947 C 0.63402 0.22366 0.67718 0.0
C1948 C 0.5597 0.26874 0.6827 0.0
H1949 H 0.48827 0.24632 0.69235 0.0
C1950 C 0.55017 0.29484 0.67659 0.0
C1951 C 0.5373 0.25134 0.68866 0.0
C1952 C 0.54638 0.22408 0.69582 0.0
C1953 C 0.51868 0.3035 0.67603 0.0
C1954 C 0.4963 0.2856 0.68172 0.0
C1955 C 0.50571 0.25984 0.68798 0.0
C1956 C 0.4628 0.29281 0.68089 0.0
C1957 C 0.50926 0.33126 0.66917 0.0
C1958 C 0.44959 0.31641 0.68734 0.0
C1959 C 0.41799 0.32387 0.68623 0.0
C1960 C 0.39922 0.30783 0.67862 0.0
C1961 C 0.41273 0.28405 0.67222 0.0
C1962 C 0.44424 0.27656 0.67338 0.0
H1963 H 0.52945 0.34203 0.66488 0.0
H1964 H 0.49167 0.32406 0.66298 0.0
H1965 H 0.49821 0.34916 0.67449 0.0
H1966 H 0.46376 0.32912 0.69319 0.0
H1967 H 0.40828 0.34202 0.69136 0.0
loop_
_geom_bond_atom_site_label_1
_geom_bond_atom_site_label_2
_geom_bond_distance
_geom_bond_site_symmetry_2
_ccdc_geom_bond_type
Co0 N4 2.148 . S
Co0 N10 2.128 1_545 S
Co0 N20 2.194 1_455 S
Co0 O25 2.351 1_455 S
Co0 O26 2.155 . S
Co0 O27 2.096 . S
C1 N4 1.301 . S
C1 N5 1.328 . S
C1 H6 0.923 1_455 S
C2 C3 1.333 . S
C2 N4 1.317 . S
C2 H7 0.930 . S
C3 C2 1.333 . S
C3 N5 1.350 . S
C3 H29 0.931 . S
N4 Co0 2.148 . S
N4 C1 1.301 . S
N4 C2 1.317 . S
N5 C1 1.328 . S
N5 C3 1.350 . S
H6 C1 0.923 1_655 S
H7 C2 0.930 . S
C8 O9 1.224 . S
C8 O27 1.247 . S
O9 C8 1.224 . S
N10 Co0 2.128 1_565 S
N10 C11 1.355 1_455 S
N10 C13 1.311 . S
C11 N10 1.355 1_655 S
C11 C12 1.363 . S
C11 H23 0.929 . S
C12 C11 1.363 . S
C12 N14 1.375 1_655 S
C12 H30 0.931 . S
C13 N10 1.311 . S
C13 N14 1.347 . S
C13 H24 0.929 . S
N14 C12 1.375 1_455 S
N14 C13 1.347 . S
C15 C18 1.365 . S
C15 N20 1.328 . S
C15 H21 0.929 . S
C16 C17 1.362 . S
C16 C19 1.378 . S
C16 H31 0.929 . S
C17 C16 1.362 . S
C17 C18 1.366 . S
C18 C15 1.365 . S
C18 C17 1.366 . S
C18 H32 0.930 . S
C19 C16 1.378 . S
C19 N20 1.315 . S
C19 H22 0.930 1_655 S
N20 Co0 2.194 1_655 S
N20 C15 1.328 . S
N20 C19 1.315 . S
H21 C15 0.929 . S
H22 C19 0.930 1_455 S
H23 C11 0.929 . S
H24 C13 0.929 . S
O25 Co0 2.351 1_655 S
O25 C28 1.244 1_655 S
O26 Co0 2.155 . S
O26 C28 1.240 . S
O27 Co0 2.096 . S
O27 C8 1.247 . S
C28 O25 1.244 1_455 S
C28 O26 1.240 . S
H29 C3 0.931 . S
H30 C12 0.931 . S
H31 C16 0.929 . S
H32 C18 0.930 . S
Co33 N37 2.148 . S
Co33 N43 2.128 . S
Co33 N53 2.194 . S
Co33 O58 2.351 . S
Co33 O59 2.155 . S
Co33 O60 2.096 . S
C34 N37 1.301 . S
C34 N38 1.328 . S
C34 H39 0.930 . S
C35 C36 1.333 . S
C35 N37 1.317 . S
C35 H40 0.930 . S
C36 C35 1.333 . S
C36 N38 1.350 . S
C36 H62 0.931 . S
N37 Co33 2.148 . S
N37 C34 1.301 . S
N37 C35 1.317 . S
N38 C34 1.328 . S
N38 C36 1.350 . S
H39 C34 0.930 . S
H40 C35 0.930 . S
C41 O42 1.224 . S
C41 O60 1.247 . S
O42 C41 1.224 . S
N43 Co33 2.128 . S
N43 C44 1.355 . S
N43 C46 1.311 . S
C44 N43 1.355 . S
C44 C45 1.363 . S
C44 H56 0.929 . S
C45 C44 1.363 . S
C45 N47 1.375 . S
C45 H63 0.931 . S
C46 N43 1.311 . S
C46 N47 1.347 . S
C46 H57 0.929 . S
N47 C45 1.375 . S
N47 C46 1.347 . S
C48 C51 1.365 . S
C48 N53 1.328 . S
C48 H54 0.929 . S
C49 C50 1.362 . S
C49 C52 1.378 . S
C49 H64 0.929 . S
C50 C49 1.362 . S
C50 C51 1.366 . S
C51 C48 1.365 . S
C51 C50 1.366 . S
C51 H65 0.930 . S
C52 C49 1.378 . S
C52 N53 1.315 . S
C52 H55 0.930 . S
N53 Co33 2.194 . S
N53 C48 1.328 . S
N53 C52 1.315 . S
H54 C48 0.929 . S
H55 C52 0.930 . S
H56 C44 0.929 . S
H57 C46 0.929 . S
O58 Co33 2.351 . S
O58 C61 1.244 . S
O59 Co33 2.155 . S
O59 C61 1.240 . S
O60 Co33 2.096 . S
O60 C41 1.247 . S
C61 O58 1.244 . S
C61 O59 1.240 . S
H62 C36 0.931 . S
H63 C45 0.931 . S
H64 C49 0.929 . S
H65 C51 0.930 . S
Co66 N70 2.148 1_545 S
Co66 N76 2.128 . S
Co66 N86 2.194 . S
Co66 O91 2.351 . S
Co66 O92 2.155 . S
Co66 O93 2.096 . S
C67 N70 1.301 . S
C67 N71 1.328 . S
C67 H72 0.930 . S
C68 C69 1.333 . S
C68 N70 1.317 . S
C68 H73 0.930 . S
C69 C68 1.333 . S
C69 N71 1.350 . S
C69 H95 0.931 . S
N70 Co66 2.148 1_565 S
N70 C67 1.301 . S
N70 C68 1.317 . S
N71 C67 1.328 . S
N71 C69 1.350 . S
H72 C67 0.930 . S
H73 C68 0.930 . S
C74 O75 1.224 . S
C74 O93 1.247 . S
O75 C74 1.224 . S
N76 Co66 2.128 . S
N76 C77 1.355 . S
N76 C79 1.311 . S
C77 N76 1.355 . S
C77 C78 1.363 . S
C77 H89 0.929 . S
C78 C77 1.363 . S
C78 N80 1.375 . S
C78 H96 0.931 . S
C79 N76 1.311 . S
C79 N80 1.347 . S
C79 H90 0.929 . S
N80 C78 1.375 . S
N80 C79 1.347 . S
C81 C84 1.365 . S
C81 N86 1.328 . S
C81 H87 0.929 . S
C82 C83 1.362 . S
C82 C85 1.378 . S
C82 H97 0.929 . S
C83 C82 1.362 . S
C83 C84 1.366 . S
C84 C81 1.365 . S
C84 C83 1.366 . S
C84 H98 0.930 . S
C85 C82 1.378 . S
C85 N86 1.315 . S
C85 H88 0.930 . S
N86 Co66 2.194 . S
N86 C81 1.328 . S
N86 C85 1.315 . S
H87 C81 0.929 . S
H88 C85 0.930 . S
H89 C77 0.929 . S
H90 C79 0.929 . S
O91 Co66 2.351 . S
O91 C94 1.244 . S
O92 Co66 2.155 . S
O92 C94 1.240 . S
O93 Co66 2.096 . S
O93 C74 1.247 . S
C94 O91 1.244 . S
C94 O92 1.240 . S
H95 C69 0.931 . S
H96 C78 0.931 . S
H97 C82 0.929 . S
H98 C84 0.930 . S
Co99 N103 2.148 . S
Co99 N109 2.128 . S
Co99 N119 2.194 . S
Co99 O124 2.351 . S
Co99 O125 2.155 . S
Co99 O126 2.096 . S
C100 N103 1.301 . S
C100 N104 1.328 . S
C100 H105 0.930 . S
C101 C102 1.333 . S
C101 N103 1.317 . S
C101 H106 0.930 . S
C102 C101 1.333 . S
C102 N104 1.350 . S
C102 H128 0.931 . S
N103 Co99 2.148 . S
N103 C100 1.301 . S
N103 C101 1.317 . S
N104 C100 1.328 . S
N104 C102 1.350 . S
H105 C100 0.930 . S
H106 C101 0.930 . S
C107 O108 1.224 . S
C107 O126 1.247 . S
O108 C107 1.224 . S
N109 Co99 2.128 . S
N109 C110 1.355 . S
N109 C112 1.311 . S
C110 N109 1.355 . S
C110 C111 1.363 . S
C110 H122 0.929 . S
C111 C110 1.363 . S
C111 N113 1.375 . S
C111 H129 0.931 . S
C112 N109 1.311 . S
C112 N113 1.347 . S
C112 H123 0.929 . S
N113 C111 1.375 . S
N113 C112 1.347 . S
C114 C117 1.365 . S
C114 N119 1.328 . S
C114 H120 0.929 . S
C115 C116 1.362 . S
C115 C118 1.378 . S
C115 H130 0.929 . S
C116 C115 1.362 . S
C116 C117 1.366 . S
C117 C114 1.365 . S
C117 C116 1.366 . S
C117 H131 0.930 . S
C118 C115 1.378 . S
C118 N119 1.315 . S
C118 H121 0.930 . S
N119 Co99 2.194 . S
N119 C114 1.328 . S
N119 C118 1.315 . S
H120 C114 0.929 . S
H121 C118 0.930 . S
H122 C110 0.929 . S
H123 C112 0.929 . S
O124 Co99 2.351 . S
O124 C127 1.244 . S
O125 Co99 2.155 . S
O125 C127 1.240 . S
O126 Co99 2.096 . S
O126 C107 1.247 . S
C127 O124 1.244 . S
C127 O125 1.240 . S
H128 C102 0.931 . S
H129 C111 0.931 . S
H130 C115 0.929 . S
H131 C117 0.930 . S
Co132 N136 2.148 1_545 S
Co132 N142 2.128 . S
Co132 N152 2.194 1_455 S
Co132 O157 2.351 1_455 S
Co132 O158 2.155 . S
Co132 O159 2.096 . S
C133 N136 1.301 . S
C133 N137 1.328 . S
C133 H138 0.916 1_455 S
C134 C135 1.333 . S
C134 N136 1.317 . S
C134 H139 0.930 . S
C135 C134 1.333 . S
C135 N137 1.350 . S
C135 H161 0.931 . S
N136 Co132 2.148 1_565 S
N136 C133 1.301 . S
N136 C134 1.317 . S
N137 C133 1.328 . S
N137 C135 1.350 . S
H138 C133 0.916 1_655 S
H139 C134 0.930 . S
C140 O141 1.224 . S
C140 O159 1.247 . S
O141 C140 1.224 . S
N142 Co132 2.128 . S
N142 C143 1.355 1_455 S
N142 C145 1.311 . S
C143 N142 1.355 1_655 S
C143 C144 1.363 . S
C143 H155 0.929 . S
C144 C143 1.363 . S
C144 N146 1.375 1_655 S
C144 H162 0.931 . S
C145 N142 1.311 . S
C145 N146 1.347 . S
C145 H156 0.929 . S
N146 C144 1.375 1_455 S
N146 C145 1.347 . S
C147 C150 1.365 . S
C147 N152 1.328 . S
C147 H153 0.929 . S
C148 C149 1.362 . S
C148 C151 1.378 . S
C148 H163 0.929 . S
C149 C148 1.362 . S
C149 C150 1.366 . S
C150 C147 1.365 . S
C150 C149 1.366 . S
C150 H164 0.930 . S
C151 C148 1.378 . S
C151 N152 1.315 . S
C151 H154 0.930 1_655 S
N152 Co132 2.194 1_655 S
N152 C147 1.328 . S
N152 C151 1.315 . S
H153 C147 0.929 . S
H154 C151 0.930 1_455 S
H155 C143 0.929 . S
H156 C145 0.929 . S
O157 Co132 2.351 1_655 S
O157 C160 1.244 1_655 S
O158 Co132 2.155 . S
O158 C160 1.240 . S
O159 Co132 2.096 . S
O159 C140 1.247 . S
C160 O157 1.244 1_455 S
C160 O158 1.240 . S
H161 C135 0.931 . S
H162 C144 0.931 . S
H163 C148 0.929 . S
H164 C150 0.930 . S
Co165 N169 2.148 . S
Co165 N175 2.128 . S
Co165 N185 2.194 . S
Co165 O190 2.351 . S
Co165 O191 2.155 . S
Co165 O192 2.096 . S
C166 N169 1.301 . S
C166 N170 1.328 . S
C166 H171 0.930 . S
C167 C168 1.333 . S
C167 N169 1.317 . S
C167 H172 0.930 . S
C168 C167 1.333 . S
C168 N170 1.350 . S
C168 H194 0.931 . S
N169 Co165 2.148 . S
N169 C166 1.301 . S
N169 C167 1.317 . S
N170 C166 1.328 . S
N170 C168 1.350 . S
H171 C166 0.930 . S
H172 C167 0.930 . S
C173 O174 1.224 . S
C173 O192 1.247 . S
O174 C173 1.224 . S
N175 Co165 2.128 . S
N175 C176 1.355 . S
N175 C178 1.311 . S
C176 N175 1.355 . S
C176 C177 1.363 . S
C176 H188 0.929 . S
C177 C176 1.363 . S
C177 N179 1.375 . S
C177 H195 0.931 . S
C178 N175 1.311 . S
C178 N179 1.347 . S
C178 H189 0.929 . S
N179 C177 1.375 . S
N179 C178 1.347 . S
C180 C183 1.365 . S
C180 N185 1.328 . S
C180 H186 0.929 . S
C181 C182 1.362 . S
C181 C184 1.378 . S
C181 H196 0.929 . S
C182 C181 1.362 . S
C182 C183 1.366 . S
C183 C180 1.365 . S
C183 C182 1.366 . S
C183 H197 0.930 . S
C184 C181 1.378 . S
C184 N185 1.315 . S
C184 H187 0.930 . S
N185 Co165 2.194 . S
N185 C180 1.328 . S
N185 C184 1.315 . S
H186 C180 0.929 . S
H187 C184 0.930 . S
H188 C176 0.929 . S
H189 C178 0.929 . S
O190 Co165 2.351 . S
O190 C193 1.244 . S
O191 Co165 2.155 . S
O191 C193 1.240 . S
O192 Co165 2.096 . S
O192 C173 1.247 . S
C193 O190 1.244 . S
C193 O191 1.240 . S
H194 C168 0.931 . S
H195 C177 0.931 . S
H196 C181 0.929 . S
H197 C183 0.930 . S
Co198 N202 2.148 . S
Co198 N208 2.128 1_545 S
Co198 N218 2.194 . S
Co198 O223 2.351 . S
Co198 O224 2.155 . S
Co198 O225 2.096 . S
C199 N202 1.301 . S
C199 N203 1.328 . S
C199 H204 0.930 . S
C200 C201 1.333 . S
C200 N202 1.317 . S
C200 H205 0.930 . S
C201 C200 1.333 . S
C201 N203 1.350 . S
C201 H227 0.931 . S
N202 Co198 2.148 . S
N202 C199 1.301 . S
N202 C200 1.317 . S
N203 C199 1.328 . S
N203 C201 1.350 . S
H204 C199 0.930 . S
H205 C200 0.930 . S
C206 O207 1.224 . S
C206 O225 1.247 . S
O207 C206 1.224 . S
N208 Co198 2.128 1_565 S
N208 C209 1.355 . S
N208 C211 1.311 . S
C209 N208 1.355 . S
C209 C210 1.363 . S
C209 H221 0.929 . S
C210 C209 1.363 . S
C210 N212 1.375 . S
C210 H228 0.931 . S
C211 N208 1.311 . S
C211 N212 1.347 . S
C211 H222 0.929 . S
N212 C210 1.375 . S
N212 C211 1.347 . S
C213 C216 1.365 . S
C213 N218 1.328 . S
C213 H219 0.929 . S
C214 C215 1.362 . S
C214 C217 1.378 . S
C214 H229 0.929 . S
C215 C214 1.362 . S
C215 C216 1.366 . S
C216 C213 1.365 . S
C216 C215 1.366 . S
C216 H230 0.930 . S
C217 C214 1.378 . S
C217 N218 1.315 . S
C217 H220 0.930 . S
N218 Co198 2.194 . S
N218 C213 1.328 . S
N218 C217 1.315 . S
H219 C213 0.929 . S
H220 C217 0.930 . S
H221 C209 0.929 . S
H222 C211 0.929 . S
O223 Co198 2.351 . S
O223 C226 1.244 . S
O224 Co198 2.155 . S
O224 C226 1.240 . S
O225 Co198 2.096 . S
O225 C206 1.247 . S
C226 O223 1.244 . S
C226 O224 1.240 . S
H227 C201 0.931 . S
H228 C210 0.931 . S
H229 C214 0.929 . S
H230 C216 0.930 . S
Co231 N235 2.148 . S
Co231 N241 2.128 . S
Co231 N251 2.194 . S
Co231 O256 2.351 . S
Co231 O257 2.155 . S
Co231 O258 2.096 . S
C232 N235 1.301 . S
C232 N236 1.328 . S
C232 H237 0.930 . S
C233 C234 1.333 . S
C233 N235 1.317 . S
C233 H238 0.930 . S
C234 C233 1.333 . S
C234 N236 1.350 . S
C234 H260 0.931 . S
N235 Co231 2.148 . S
N235 C232 1.301 . S
N235 C233 1.317 . S
N236 C232 1.328 . S
N236 C234 1.350 . S
H237 C232 0.930 . S
H238 C233 0.930 . S
C239 O240 1.224 . S
C239 O258 1.247 . S
O240 C239 1.224 . S
N241 Co231 2.128 . S
N241 C242 1.355 . S
N241 C244 1.311 . S
C242 N241 1.355 . S
C242 C243 1.363 . S
C242 H254 0.929 . S
C243 C242 1.363 . S
C243 N245 1.375 . S
C243 H261 0.931 . S
C244 N241 1.311 . S
C244 N245 1.347 . S
C244 H255 0.929 . S
N245 C243 1.375 . S
N245 C244 1.347 . S
C246 C249 1.365 . S
C246 N251 1.328 . S
C246 H252 0.929 . S
C247 C248 1.362 . S
C247 C250 1.378 . S
C247 H262 0.929 . S
C248 C247 1.362 . S
C248 C249 1.366 . S
C249 C246 1.365 . S
C249 C248 1.366 . S
C249 H263 0.930 . S
C250 C247 1.378 . S
C250 N251 1.315 . S
C250 H253 0.930 . S
N251 Co231 2.194 . S
N251 C246 1.328 . S
N251 C250 1.315 . S
H252 C246 0.929 . S
H253 C250 0.930 . S
H254 C242 0.929 . S
H255 C244 0.929 . S
O256 Co231 2.351 . S
O256 C259 1.244 . S
O257 Co231 2.155 . S
O257 C259 1.240 . S
O258 Co231 2.096 . S
O258 C239 1.247 . S
C259 O256 1.244 . S
C259 O257 1.240 . S
H260 C234 0.931 . S
H261 C243 0.931 . S
H262 C247 0.929 . S
H263 C249 0.930 . S
Co264 N268 2.148 . S
Co264 N274 2.128 . S
Co264 N284 2.194 . S
Co264 O289 2.351 . S
Co264 O290 2.155 . S
Co264 O291 2.096 . S
C265 N268 1.301 . S
C265 N269 1.328 . S
C265 H270 0.930 . S
C266 C267 1.333 . S
C266 N268 1.317 . S
C266 H271 0.930 . S
C267 C266 1.333 . S
C267 N269 1.350 . S
C267 H293 0.931 . S
N268 Co264 2.148 . S
N268 C265 1.301 . S
N268 C266 1.317 . S
N269 C265 1.328 . S
N269 C267 1.350 . S
H270 C265 0.930 . S
H271 C266 0.930 . S
C272 O273 1.224 . S
C272 O291 1.247 . S
O273 C272 1.224 . S
N274 Co264 2.128 . S
N274 C275 1.355 . S
N274 C277 1.311 . S
C275 N274 1.355 . S
C275 C276 1.363 . S
C275 H287 0.929 . S
C276 C275 1.363 . S
C276 N278 1.375 . S
C276 H294 0.931 . S
C277 N274 1.311 . S
C277 N278 1.347 . S
C277 H288 0.929 . S
N278 C276 1.375 . S
N278 C277 1.347 . S
C279 C282 1.365 . S
C279 N284 1.328 . S
C279 H285 0.929 . S
C280 C281 1.362 . S
C280 C283 1.378 . S
C280 H295 0.929 . S
C281 C280 1.362 . S
C281 C282 1.366 . S
C282 C279 1.365 . S
C282 C281 1.366 . S
C282 H296 0.930 . S
C283 C280 1.378 . S
C283 N284 1.315 . S
C283 H286 0.930 . S
N284 Co264 2.194 . S
N284 C279 1.328 . S
N284 C283 1.315 . S
H285 C279 0.929 . S
H286 C283 0.930 . S
H287 C275 0.929 . S
H288 C277 0.929 . S
O289 Co264 2.351 . S
O289 C292 1.244 . S
O290 Co264 2.155 . S
O290 C292 1.240 . S
O291 Co264 2.096 . S
O291 C272 1.247 . S
C292 O289 1.244 . S
C292 O290 1.240 . S
H293 C267 0.931 . S
H294 C276 0.931 . S
H295 C280 0.929 . S
H296 C282 0.930 . S
Co297 N301 2.148 . S
Co297 N307 2.128 . S
Co297 N317 2.194 . S
Co297 O322 2.351 . S
Co297 O323 2.155 . S
Co297 O324 2.096 . S
C298 N301 1.301 . S
C298 N302 1.328 . S
C298 H303 0.930 . S
C299 C300 1.333 . S
C299 N301 1.317 . S
C299 H304 0.930 . S
C300 C299 1.333 . S
C300 N302 1.350 . S
C300 H326 0.931 . S
N301 Co297 2.148 . S
N301 C298 1.301 . S
N301 C299 1.317 . S
N302 C298 1.328 . S
N302 C300 1.350 . S
H303 C298 0.930 . S
H304 C299 0.930 . S
C305 O306 1.224 . S
C305 O324 1.247 . S
O306 C305 1.224 . S
N307 Co297 2.128 . S
N307 C308 1.355 . S
N307 C310 1.311 . S
C308 N307 1.355 . S
C308 C309 1.363 . S
C308 H320 0.929 . S
C309 C308 1.363 . S
C309 N311 1.375 . S
C309 H327 0.931 . S
C310 N307 1.311 . S
C310 N311 1.347 . S
C310 H321 0.929 . S
N311 C309 1.375 . S
N311 C310 1.347 . S
C312 C315 1.365 . S
C312 N317 1.328 . S
C312 H318 0.929 . S
C313 C314 1.362 . S
C313 C316 1.378 . S
C313 H328 0.929 . S
C314 C313 1.362 . S
C314 C315 1.366 . S
C315 C312 1.365 . S
C315 C314 1.366 . S
C315 H329 0.930 . S
C316 C313 1.378 . S
C316 N317 1.315 . S
C316 H319 0.930 . S
N317 Co297 2.194 . S
N317 C312 1.328 . S
N317 C316 1.315 . S
H318 C312 0.929 . S
H319 C316 0.930 . S
H320 C308 0.929 . S
H321 C310 0.929 . S
O322 Co297 2.351 . S
O322 C325 1.244 . S
O323 Co297 2.155 . S
O323 C325 1.240 . S
O324 Co297 2.096 . S
O324 C305 1.247 . S
C325 O322 1.244 . S
C325 O323 1.240 . S
H326 C300 0.931 . S
H327 C309 0.931 . S
H328 C313 0.929 . S
H329 C315 0.930 . S
Co330 N334 2.148 . S
Co330 N340 2.128 . S
Co330 N350 2.194 . S
Co330 O355 2.351 . S
Co330 O356 2.155 . S
Co330 O357 2.096 . S
C331 N334 1.301 . S
C331 N335 1.328 . S
C331 H336 0.930 . S
C332 C333 1.333 . S
C332 N334 1.317 . S
C332 H337 0.930 . S
C333 C332 1.333 . S
C333 N335 1.350 . S
C333 H359 0.931 . S
N334 Co330 2.148 . S
N334 C331 1.301 . S
N334 C332 1.317 . S
N335 C331 1.328 . S
N335 C333 1.350 . S
H336 C331 0.930 . S
H337 C332 0.930 . S
C338 O339 1.224 . S
C338 O357 1.247 . S
O339 C338 1.224 . S
N340 Co330 2.128 . S
N340 C341 1.355 . S
N340 C343 1.311 . S
C341 N340 1.355 . S
C341 C342 1.363 . S
C341 H353 0.929 . S
C342 C341 1.363 . S
C342 N344 1.375 . S
C342 H360 0.931 . S
C343 N340 1.311 . S
C343 N344 1.347 . S
C343 H354 0.929 . S
N344 C342 1.375 . S
N344 C343 1.347 . S
C345 C348 1.365 . S
C345 N350 1.328 . S
C345 H351 0.929 . S
C346 C347 1.362 . S
C346 C349 1.378 . S
C346 H361 0.929 . S
C347 C346 1.362 . S
C347 C348 1.366 . S
C348 C345 1.365 . S
C348 C347 1.366 . S
C348 H362 0.930 . S
C349 C346 1.378 . S
C349 N350 1.315 . S
C349 H352 0.930 . S
N350 Co330 2.194 . S
N350 C345 1.328 . S
N350 C349 1.315 . S
H351 C345 0.929 . S
H352 C349 0.930 . S
H353 C341 0.929 . S
H354 C343 0.929 . S
O355 Co330 2.351 . S
O355 C358 1.244 . S
O356 Co330 2.155 . S
O356 C358 1.240 . S
O357 Co330 2.096 . S
O357 C338 1.247 . S
C358 O355 1.244 . S
C358 O356 1.240 . S
H359 C333 0.931 . S
H360 C342 0.931 . S
H361 C346 0.929 . S
H362 C348 0.930 . S
Co363 N367 2.148 . S
Co363 N373 2.128 . S
Co363 N383 2.194 . S
Co363 O388 2.351 . S
Co363 O389 2.155 . S
Co363 O390 2.096 . S
C364 N367 1.301 . S
C364 N368 1.328 . S
C364 H369 0.930 . S
C365 C366 1.333 . S
C365 N367 1.317 . S
C365 H370 0.930 . S
C366 C365 1.333 . S
C366 N368 1.350 . S
C366 H392 0.931 . S
N367 Co363 2.148 . S
N367 C364 1.301 . S
N367 C365 1.317 . S
N368 C364 1.328 . S
N368 C366 1.350 . S
H369 C364 0.930 . S
H370 C365 0.930 . S
C371 O372 1.224 . S
C371 O390 1.247 . S
O372 C371 1.224 . S
N373 Co363 2.128 . S
N373 C374 1.355 . S
N373 C376 1.311 . S
C374 N373 1.355 . S
C374 C375 1.363 . S
C374 H386 0.929 . S
C375 C374 1.363 . S
C375 N377 1.375 . S
C375 H393 0.931 . S
C376 N373 1.311 . S
C376 N377 1.347 . S
C376 H387 0.929 . S
N377 C375 1.375 . S
N377 C376 1.347 . S
C378 C381 1.365 . S
C378 N383 1.328 . S
C378 H384 0.929 . S
C379 C380 1.362 . S
C379 C382 1.378 . S
C379 H394 0.929 . S
C380 C379 1.362 . S
C380 C381 1.366 . S
C381 C378 1.365 . S
C381 C380 1.366 . S
C381 H395 0.930 . S
C382 C379 1.378 . S
C382 N383 1.315 . S
C382 H385 0.930 . S
N383 Co363 2.194 . S
N383 C378 1.328 . S
N383 C382 1.315 . S
H384 C378 0.929 . S
H385 C382 0.930 . S
H386 C374 0.929 . S
H387 C376 0.929 . S
O388 Co363 2.351 . S
O388 C391 1.244 . S
O389 Co363 2.155 . S
O389 C391 1.240 . S
O390 Co363 2.096 . S
O390 C371 1.247 . S
C391 O388 1.244 . S
C391 O389 1.240 . S
H392 C366 0.931 . S
H393 C375 0.931 . S
H394 C379 0.929 . S
H395 C381 0.930 . S
Co396 N400 2.148 . S
Co396 N406 2.128 . S
Co396 N416 2.194 . S
Co396 O421 2.351 . S
Co396 O422 2.155 . S
Co396 O423 2.096 . S
C397 N400 1.301 . S
C397 N401 1.328 . S
C397 H402 0.930 . S
C398 C399 1.333 . S
C398 N400 1.317 . S
C398 H403 0.930 . S
C399 C398 1.333 . S
C399 N401 1.350 . S
C399 H425 0.931 . S
N400 Co396 2.148 . S
N400 C397 1.301 . S
N400 C398 1.317 . S
N401 C397 1.328 . S
N401 C399 1.350 . S
H402 C397 0.930 . S
H403 C398 0.930 . S
C404 O405 1.224 . S
C404 O423 1.247 . S
O405 C404 1.224 . S
N406 Co396 2.128 . S
N406 C407 1.355 . S
N406 C409 1.311 . S
C407 N406 1.355 . S
C407 C408 1.363 . S
C407 H419 0.929 . S
C408 C407 1.363 . S
C408 N410 1.375 . S
C408 H426 0.931 . S
C409 N406 1.311 . S
C409 N410 1.347 . S
C409 H420 0.929 . S
N410 C408 1.375 . S
N410 C409 1.347 . S
C411 C414 1.365 . S
C411 N416 1.328 . S
C411 H417 0.929 . S
C412 C413 1.362 . S
C412 C415 1.378 . S
C412 H427 0.929 . S
C413 C412 1.362 . S
C413 C414 1.366 . S
C414 C411 1.365 . S
C414 C413 1.366 . S
C414 H428 0.930 . S
C415 C412 1.378 . S
C415 N416 1.315 . S
C415 H418 0.930 . S
N416 Co396 2.194 . S
N416 C411 1.328 . S
N416 C415 1.315 . S
H417 C411 0.929 . S
H418 C415 0.930 . S
H419 C407 0.929 . S
H420 C409 0.929 . S
O421 Co396 2.351 . S
O421 C424 1.244 . S
O422 Co396 2.155 . S
O422 C424 1.240 . S
O423 Co396 2.096 . S
O423 C404 1.247 . S
C424 O421 1.244 . S
C424 O422 1.240 . S
H425 C399 0.931 . S
H426 C408 0.931 . S
H427 C412 0.929 . S
H428 C414 0.930 . S
Co429 N433 2.148 . S
Co429 N439 2.128 . S
Co429 N449 2.194 . S
Co429 O454 2.351 . S
Co429 O455 2.155 . S
Co429 O456 2.096 1_455 S
C430 N433 1.301 . S
C430 N434 1.328 . S
C430 H435 0.930 . S
C431 C432 1.333 . S
C431 N433 1.317 . S
C431 H436 0.930 1_455 S
C432 C431 1.333 . S
C432 N434 1.350 . S
C432 H458 0.931 1_455 S
N433 Co429 2.148 . S
N433 C430 1.301 . S
N433 C431 1.317 . S
N434 C430 1.328 . S
N434 C432 1.350 . S
H435 C430 0.930 . S
H436 C431 0.930 1_655 S
C437 O438 1.224 1_655 S
C437 O456 1.247 . S
O438 C437 1.224 1_455 S
N439 Co429 2.128 . S
N439 C440 1.355 . S
N439 C442 1.311 . S
C440 N439 1.355 . S
C440 C441 1.363 . S
C440 H452 0.929 . S
C441 C440 1.363 . S
C441 N443 1.375 . S
C441 H459 0.931 . S
C442 N439 1.311 . S
C442 N443 1.347 . S
C442 H453 0.929 . S
N443 C441 1.375 . S
N443 C442 1.347 . S
C444 C447 1.365 . S
C444 N449 1.328 . S
C444 H450 0.929 . S
C445 C446 1.362 . S
C445 C448 1.378 . S
C445 H460 0.929 . S
C446 C445 1.362 . S
C446 C447 1.366 . S
C447 C444 1.365 . S
C447 C446 1.366 . S
C447 H461 0.930 . S
C448 C445 1.378 . S
C448 N449 1.315 . S
C448 H451 0.930 . S
N449 Co429 2.194 . S
N449 C444 1.328 . S
N449 C448 1.315 . S
H450 C444 0.929 . S
H451 C448 0.930 . S
H452 C440 0.929 . S
H453 C442 0.929 . S
O454 Co429 2.351 . S
O454 C457 1.244 . S
O455 Co429 2.155 . S
O455 C457 1.240 . S
O456 Co429 2.096 1_655 S
O456 C437 1.247 . S
C457 O454 1.244 . S
C457 O455 1.240 . S
H458 C432 0.931 1_655 S
H459 C441 0.931 . S
H460 C445 0.929 . S
H461 C447 0.930 . S
Co462 N466 2.148 . S
Co462 N472 2.128 . S
Co462 N482 2.194 . S
Co462 O487 2.351 . S
Co462 O488 2.155 . S
Co462 O489 2.096 . S
C463 N466 1.301 . S
C463 N467 1.328 . S
C463 H468 0.930 . S
C464 C465 1.333 . S
C464 N466 1.317 . S
C464 H469 0.930 . S
C465 C464 1.333 . S
C465 N467 1.350 . S
C465 H491 0.931 . S
N466 Co462 2.148 . S
N466 C463 1.301 . S
N466 C464 1.317 . S
N467 C463 1.328 . S
N467 C465 1.350 . S
H468 C463 0.930 . S
H469 C464 0.930 . S
C470 O471 1.224 . S
C470 O489 1.247 . S
O471 C470 1.224 . S
N472 Co462 2.128 . S
N472 C473 1.355 . S
N472 C475 1.311 . S
C473 N472 1.355 . S
C473 C474 1.363 . S
C473 H485 0.929 . S
C474 C473 1.363 . S
C474 N476 1.375 . S
C474 H492 0.931 . S
C475 N472 1.311 . S
C475 N476 1.347 . S
C475 H486 0.929 . S
N476 C474 1.375 . S
N476 C475 1.347 . S
C477 C480 1.365 . S
C477 N482 1.328 . S
C477 H483 0.929 . S
C478 C479 1.362 . S
C478 C481 1.378 . S
C478 H493 0.929 . S
C479 C478 1.362 . S
C479 C480 1.366 . S
C480 C477 1.365 . S
C480 C479 1.366 . S
C480 H494 0.930 . S
C481 C478 1.378 . S
C481 N482 1.315 . S
C481 H484 0.930 . S
N482 Co462 2.194 . S
N482 C477 1.328 . S
N482 C481 1.315 . S
H483 C477 0.929 . S
H484 C481 0.930 . S
H485 C473 0.929 . S
H486 C475 0.929 . S
O487 Co462 2.351 . S
O487 C490 1.244 . S
O488 Co462 2.155 . S
O488 C490 1.240 . S
O489 Co462 2.096 . S
O489 C470 1.247 . S
C490 O487 1.244 . S
C490 O488 1.240 . S
H491 C465 0.931 . S
H492 C474 0.931 . S
H493 C478 0.929 . S
H494 C480 0.930 . S
Co495 N499 2.148 . S
Co495 N505 2.128 . S
Co495 N515 2.194 . S
Co495 O520 2.351 . S
Co495 O521 2.155 . S
Co495 O522 2.096 1_455 S
C496 N499 1.301 . S
C496 N500 1.328 . S
C496 H501 0.930 . S
C497 C498 1.333 . S
C497 N499 1.317 . S
C497 H502 0.930 1_455 S
C498 C497 1.333 . S
C498 N500 1.350 . S
C498 H524 0.931 1_455 S
N499 Co495 2.148 . S
N499 C496 1.301 . S
N499 C497 1.317 . S
N500 C496 1.328 . S
N500 C498 1.350 . S
H501 C496 0.930 . S
H502 C497 0.930 1_655 S
C503 O504 1.224 1_655 S
C503 O522 1.247 . S
O504 C503 1.224 1_455 S
N505 Co495 2.128 . S
N505 C506 1.355 . S
N505 C508 1.311 . S
C506 N505 1.355 . S
C506 C507 1.363 . S
C506 H518 0.929 . S
C507 C506 1.363 . S
C507 N509 1.375 . S
C507 H525 0.931 . S
C508 N505 1.311 . S
C508 N509 1.347 . S
C508 H519 0.929 . S
N509 C507 1.375 . S
N509 C508 1.347 . S
C510 C513 1.365 . S
C510 N515 1.328 . S
C510 H516 0.929 . S
C511 C512 1.362 . S
C511 C514 1.378 . S
C511 H526 0.929 . S
C512 C511 1.362 . S
C512 C513 1.366 . S
C513 C510 1.365 . S
C513 C512 1.366 . S
C513 H527 0.930 . S
C514 C511 1.378 . S
C514 N515 1.315 . S
C514 H517 0.930 . S
N515 Co495 2.194 . S
N515 C510 1.328 . S
N515 C514 1.315 . S
H516 C510 0.929 . S
H517 C514 0.930 . S
H518 C506 0.929 . S
H519 C508 0.929 . S
O520 Co495 2.351 . S
O520 C523 1.244 . S
O521 Co495 2.155 . S
O521 C523 1.240 . S
O522 Co495 2.096 1_655 S
O522 C503 1.247 . S
C523 O520 1.244 . S
C523 O521 1.240 . S
H524 C498 0.931 1_655 S
H525 C507 0.931 . S
H526 C511 0.929 . S
H527 C513 0.930 . S
H528 C536 0.929 . S
H529 C538 0.930 . S
H530 C540 0.930 . S
H531 C543 0.929 . S
H532 C546 0.930 . S
H533 C548 0.960 . S
H534 C548 0.960 . S
H535 C548 0.960 . S
C536 H528 0.929 . S
C536 C537 1.377 . S
C536 C538 1.384 . S
C537 C536 1.377 . S
C537 C543 1.390 . S
C538 H529 0.930 . S
C538 C536 1.384 . S
C538 C539 1.372 . S
C539 C538 1.372 . S
C539 C540 1.400 . S
C539 C544 1.490 . S
C540 H530 0.930 . S
C540 C539 1.400 . S
C540 C543 1.386 . S
H541 C557 0.930 1_655 S
H542 C558 0.931 . S
C543 H531 0.929 . S
C543 C537 1.390 . S
C543 C540 1.386 . S
C544 C539 1.490 . S
C544 C546 1.395 . S
C544 C547 1.403 . S
H545 C551 0.930 1_655 S
C546 H532 0.930 . S
C546 C544 1.395 . S
C546 C549 1.403 . S
C547 C544 1.403 . S
C547 C548 1.524 1_455 S
C547 C551 1.400 . S
C548 H533 0.960 . S
C548 H534 0.960 . S
C548 H535 0.960 . S
C548 C547 1.524 1_655 S
C549 C546 1.403 . S
C549 C550 1.392 . S
C549 C553 1.495 . S
C550 C549 1.392 . S
C550 C551 1.385 . S
C550 C552 1.478 . S
C551 H545 0.930 1_455 S
C551 C547 1.400 . S
C551 C550 1.385 . S
C552 C550 1.478 . S
C552 C554 1.381 . S
C552 C558 1.383 . S
C553 C549 1.495 . S
C553 H559 0.959 . S
C553 H560 0.961 . S
C553 H561 0.960 . S
C554 C552 1.381 . S
C554 C555 1.394 . S
C554 H562 0.930 . S
C555 C554 1.394 . S
C555 C556 1.383 . S
C555 H563 0.929 . S
C556 C555 1.383 . S
C556 C557 1.377 . S
C557 H541 0.930 1_455 S
C557 C556 1.377 . S
C557 C558 1.379 . S
C558 H542 0.931 . S
C558 C552 1.383 . S
C558 C557 1.379 . S
H559 C553 0.959 . S
H560 C553 0.961 . S
H561 C553 0.960 . S
H562 C554 0.930 . S
H563 C555 0.929 . S
H564 C572 0.929 . S
H565 C574 0.930 . S
H566 C576 0.930 . S
H567 C579 0.929 . S
H568 C582 0.930 . S
H569 C584 0.960 . S
H570 C584 0.960 . S
H571 C584 0.960 . S
C572 H564 0.929 . S
C572 C573 1.377 . S
C572 C574 1.384 . S
C573 C572 1.377 . S
C573 C579 1.390 . S
C574 H565 0.930 . S
C574 C572 1.384 . S
C574 C575 1.372 . S
C575 C574 1.372 . S
C575 C576 1.400 . S
C575 C580 1.490 . S
C576 H566 0.930 . S
C576 C575 1.400 . S
C576 C579 1.386 . S
H577 C593 0.930 . S
H578 C594 0.931 . S
C579 H567 0.929 . S
C579 C573 1.390 . S
C579 C576 1.386 . S
C580 C575 1.490 . S
C580 C582 1.395 . S
C580 C583 1.403 . S
H581 C587 0.908 1_655 S
C582 H568 0.930 . S
C582 C580 1.395 . S
C582 C585 1.403 . S
C583 C580 1.403 . S
C583 C584 1.524 . S
C583 C587 1.400 . S
C584 H569 0.960 . S
C584 H570 0.960 . S
C584 H571 0.960 . S
C584 C583 1.524 . S
C585 C582 1.403 . S
C585 C586 1.376 1_455 S
C585 C589 1.495 . S
C586 C585 1.376 1_655 S
C586 C587 1.374 1_655 S
C586 C588 1.505 . S
C587 H581 0.908 1_455 S
C587 C583 1.400 . S
C587 C586 1.374 1_455 S
C588 C586 1.505 . S
C588 C590 1.381 . S
C588 C594 1.383 . S
C589 C585 1.495 . S
C589 H595 0.959 . S
C589 H596 0.961 1_455 S
C589 H597 0.960 1_455 S
C590 C588 1.381 . S
C590 C591 1.394 . S
C590 H598 0.930 . S
C591 C590 1.394 . S
C591 C592 1.383 . S
C591 H599 0.929 . S
C592 C591 1.383 . S
C592 C593 1.377 . S
C593 H577 0.930 . S
C593 C592 1.377 . S
C593 C594 1.379 . S
C594 H578 0.931 . S
C594 C588 1.383 . S
C594 C593 1.379 . S
H595 C589 0.959 . S
H596 C589 0.961 1_655 S
H597 C589 0.960 1_655 S
H598 C590 0.930 . S
H599 C591 0.929 . S
H600 C608 0.929 . S
H601 C610 0.930 . S
H602 C612 0.930 . S
H603 C615 0.929 . S
H604 C618 0.930 . S
H605 C620 0.960 . S
H606 C620 0.960 . S
H607 C620 0.960 . S
C608 H600 0.929 . S
C608 C609 1.377 . S
C608 C610 1.384 . S
C609 C608 1.377 . S
C609 C615 1.390 . S
C610 H601 0.930 . S
C610 C608 1.384 . S
C610 C611 1.372 . S
C611 C610 1.372 . S
C611 C612 1.400 . S
C611 C616 1.490 . S
C612 H602 0.930 . S
C612 C611 1.400 . S
C612 C615 1.386 . S
H613 C629 0.930 . S
H614 C630 0.931 . S
C615 H603 0.929 . S
C615 C609 1.390 . S
C615 C612 1.386 . S
C616 C611 1.490 . S
C616 C618 1.395 . S
C616 C619 1.403 . S
H617 C623 0.930 . S
C618 H604 0.930 . S
C618 C616 1.395 . S
C618 C621 1.403 . S
C619 C616 1.403 . S
C619 C620 1.524 . S
C619 C623 1.400 . S
C620 H605 0.960 . S
C620 H606 0.960 . S
C620 H607 0.960 . S
C620 C619 1.524 . S
C621 C618 1.403 . S
C621 C622 1.392 . S
C621 C625 1.495 . S
C622 C621 1.392 . S
C622 C623 1.385 . S
C622 C624 1.478 . S
C623 H617 0.930 . S
C623 C619 1.400 . S
C623 C622 1.385 . S
C624 C622 1.478 . S
C624 C626 1.381 . S
C624 C630 1.383 . S
C625 C621 1.495 . S
C625 H631 0.959 . S
C625 H632 0.961 . S
C625 H633 0.960 . S
C626 C624 1.381 . S
C626 C627 1.394 . S
C626 H634 0.930 . S
C627 C626 1.394 . S
C627 C628 1.383 . S
C627 H635 0.929 . S
C628 C627 1.383 . S
C628 C629 1.377 . S
C629 H613 0.930 . S
C629 C628 1.377 . S
C629 C630 1.379 . S
C630 H614 0.931 . S
C630 C624 1.383 . S
C630 C629 1.379 . S
H631 C625 0.959 . S
H632 C625 0.961 . S
H633 C625 0.960 . S
H634 C626 0.930 . S
H635 C627 0.929 . S
H636 C644 0.929 . S
H637 C646 0.930 . S
H638 C648 0.930 . S
H639 C651 0.929 . S
H640 C654 0.930 . S
H641 C656 0.960 . S
H642 C656 0.960 . S
H643 C656 0.960 . S
C644 H636 0.929 . S
C644 C645 1.377 . S
C644 C646 1.384 . S
C645 C644 1.377 . S
C645 C651 1.390 . S
C646 H637 0.930 . S
C646 C644 1.384 . S
C646 C647 1.372 . S
C647 C646 1.372 . S
C647 C648 1.400 . S
C647 C652 1.490 . S
C648 H638 0.930 . S
C648 C647 1.400 . S
C648 C651 1.386 . S
H649 C665 0.930 . S
H650 C666 0.931 . S
C651 H639 0.929 . S
C651 C645 1.390 . S
C651 C648 1.386 . S
C652 C647 1.490 . S
C652 C654 1.395 . S
C652 C655 1.403 . S
H653 C659 0.930 . S
C654 H640 0.930 . S
C654 C652 1.395 . S
C654 C657 1.403 . S
C655 C652 1.403 . S
C655 C656 1.524 . S
C655 C659 1.400 . S
C656 H641 0.960 . S
C656 H642 0.960 . S
C656 H643 0.960 . S
C656 C655 1.524 . S
C657 C654 1.403 . S
C657 C658 1.392 . S
C657 C661 1.495 . S
C658 C657 1.392 . S
C658 C659 1.385 . S
C658 C660 1.478 . S
C659 H653 0.930 . S
C659 C655 1.400 . S
C659 C658 1.385 . S
C660 C658 1.478 . S
C660 C662 1.381 . S
C660 C666 1.383 . S
C661 C657 1.495 . S
C661 H667 0.959 . S
C661 H668 0.961 . S
C661 H669 0.960 . S
C662 C660 1.381 . S
C662 C663 1.394 . S
C662 H670 0.930 . S
C663 C662 1.394 . S
C663 C664 1.383 . S
C663 H671 0.929 . S
C664 C663 1.383 . S
C664 C665 1.377 . S
C665 H649 0.930 . S
C665 C664 1.377 . S
C665 C666 1.379 . S
C666 H650 0.931 . S
C666 C660 1.383 . S
C666 C665 1.379 . S
H667 C661 0.959 . S
H668 C661 0.961 . S
H669 C661 0.960 . S
H670 C662 0.930 . S
H671 C663 0.929 . S
H672 C680 0.929 . S
H673 C682 0.930 . S
H674 C684 0.930 . S
H675 C687 0.929 . S
H676 C690 0.930 . S
H677 C692 0.960 1_655 S
H678 C692 0.960 1_655 S
H679 C692 0.960 . S
C680 H672 0.929 . S
C680 C681 1.377 . S
C680 C682 1.384 . S
C681 C680 1.377 . S
C681 C687 1.390 . S
C682 H673 0.930 . S
C682 C680 1.384 . S
C682 C683 1.372 . S
C683 C682 1.372 . S
C683 C684 1.400 . S
C683 C688 1.490 . S
C684 H674 0.930 . S
C684 C683 1.400 . S
C684 C687 1.386 . S
H685 C701 0.930 . S
H686 C702 0.931 . S
C687 H675 0.929 . S
C687 C681 1.390 . S
C687 C684 1.386 . S
C688 C683 1.490 . S
C688 C690 1.395 . S
C688 C691 1.403 . S
H689 C695 0.930 . S
C690 H676 0.930 . S
C690 C688 1.395 . S
C690 C693 1.403 . S
C691 C688 1.403 . S
C691 C692 1.524 . S
C691 C695 1.400 . S
C692 H677 0.960 1_455 S
C692 H678 0.960 1_455 S
C692 H679 0.960 . S
C692 C691 1.524 . S
C693 C690 1.403 . S
C693 C694 1.392 . S
C693 C697 1.495 . S
C694 C693 1.392 . S
C694 C695 1.385 . S
C694 C696 1.478 . S
C695 H689 0.930 . S
C695 C691 1.400 . S
C695 C694 1.385 . S
C696 C694 1.478 . S
C696 C698 1.381 . S
C696 C702 1.383 . S
C697 C693 1.495 . S
C697 H703 0.959 . S
C697 H704 0.961 . S
C697 H705 0.960 . S
C698 C696 1.381 . S
C698 C699 1.394 . S
C698 H706 0.930 . S
C699 C698 1.394 . S
C699 C700 1.383 . S
C699 H707 0.929 1_455 S
C700 C699 1.383 . S
C700 C701 1.377 . S
C701 H685 0.930 . S
C701 C700 1.377 . S
C701 C702 1.379 . S
C702 H686 0.931 . S
C702 C696 1.383 . S
C702 C701 1.379 . S
H703 C697 0.959 . S
H704 C697 0.961 . S
H705 C697 0.960 . S
H706 C698 0.930 . S
H707 C699 0.929 1_655 S
H708 C716 0.929 . S
H709 C718 0.930 . S
H710 C720 0.930 . S
H711 C723 0.929 . S
H712 C726 0.930 . S
H713 C728 0.960 . S
H714 C728 0.960 . S
H715 C728 0.960 . S
C716 H708 0.929 . S
C716 C717 1.377 . S
C716 C718 1.384 . S
C717 C716 1.377 . S
C717 C723 1.390 . S
C718 H709 0.930 . S
C718 C716 1.384 . S
C718 C719 1.372 . S
C719 C718 1.372 . S
C719 C720 1.400 . S
C719 C724 1.490 . S
C720 H710 0.930 . S
C720 C719 1.400 . S
C720 C723 1.386 . S
H721 C737 0.930 . S
H722 C738 0.931 . S
C723 H711 0.929 . S
C723 C717 1.390 . S
C723 C720 1.386 . S
C724 C719 1.490 . S
C724 C726 1.395 . S
C724 C727 1.403 . S
H725 C731 0.930 . S
C726 H712 0.930 . S
C726 C724 1.395 . S
C726 C729 1.403 . S
C727 C724 1.403 . S
C727 C728 1.524 . S
C727 C731 1.400 . S
C728 H713 0.960 . S
C728 H714 0.960 . S
C728 H715 0.960 . S
C728 C727 1.524 . S
C729 C726 1.403 . S
C729 C730 1.392 . S
C729 C733 1.495 . S
C730 C729 1.392 . S
C730 C731 1.385 . S
C730 C732 1.478 . S
C731 H725 0.930 . S
C731 C727 1.400 . S
C731 C730 1.385 . S
C732 C730 1.478 . S
C732 C734 1.381 . S
C732 C738 1.383 . S
C733 C729 1.495 . S
C733 H739 0.959 . S
C733 H740 0.961 . S
C733 H741 0.960 . S
C734 C732 1.381 . S
C734 C735 1.394 . S
C734 H742 0.930 . S
C735 C734 1.394 . S
C735 C736 1.383 . S
C735 H743 0.929 . S
C736 C735 1.383 . S
C736 C737 1.377 . S
C737 H721 0.930 . S
C737 C736 1.377 . S
C737 C738 1.379 . S
C738 H722 0.931 . S
C738 C732 1.383 . S
C738 C737 1.379 . S
H739 C733 0.959 . S
H740 C733 0.961 . S
H741 C733 0.960 . S
H742 C734 0.930 . S
H743 C735 0.929 . S
H744 C752 0.929 . S
H745 C754 0.930 . S
H746 C756 0.930 . S
H747 C759 0.929 . S
H748 C762 0.930 . S
H749 C764 0.960 . S
H750 C764 0.960 . S
H751 C764 0.960 . S
C752 H744 0.929 . S
C752 C753 1.377 . S
C752 C754 1.384 . S
C753 C752 1.377 . S
C753 C759 1.390 . S
C754 H745 0.930 . S
C754 C752 1.384 . S
C754 C755 1.372 . S
C755 C754 1.372 . S
C755 C756 1.400 . S
C755 C760 1.490 . S
C756 H746 0.930 . S
C756 C755 1.400 . S
C756 C759 1.386 . S
H757 C773 0.930 . S
H758 C774 0.931 . S
C759 H747 0.929 . S
C759 C753 1.390 . S
C759 C756 1.386 . S
C760 C755 1.490 . S
C760 C762 1.395 . S
C760 C763 1.403 . S
H761 C767 0.930 . S
C762 H748 0.930 . S
C762 C760 1.395 . S
C762 C765 1.403 . S
C763 C760 1.403 . S
C763 C764 1.524 . S
C763 C767 1.400 . S
C764 H749 0.960 . S
C764 H750 0.960 . S
C764 H751 0.960 . S
C764 C763 1.524 . S
C765 C762 1.403 . S
C765 C766 1.392 . S
C765 C769 1.495 . S
C766 C765 1.392 . S
C766 C767 1.385 . S
C766 C768 1.478 . S
C767 H761 0.930 . S
C767 C763 1.400 . S
C767 C766 1.385 . S
C768 C766 1.478 . S
C768 C770 1.381 . S
C768 C774 1.383 . S
C769 C765 1.495 . S
C769 H775 0.959 . S
C769 H776 0.961 . S
C769 H777 0.960 . S
C770 C768 1.381 . S
C770 C771 1.394 . S
C770 H778 0.930 . S
C771 C770 1.394 . S
C771 C772 1.383 . S
C771 H779 0.929 . S
C772 C771 1.383 . S
C772 C773 1.377 . S
C773 H757 0.930 . S
C773 C772 1.377 . S
C773 C774 1.379 . S
C774 H758 0.931 . S
C774 C768 1.383 . S
C774 C773 1.379 . S
H775 C769 0.959 . S
H776 C769 0.961 . S
H777 C769 0.960 . S
H778 C770 0.930 . S
H779 C771 0.929 . S
H780 C788 0.929 . S
H781 C790 0.930 . S
H782 C792 0.930 . S
H783 C795 0.929 . S
H784 C798 0.930 . S
H785 C800 0.958 1_455 S
H786 C800 0.962 . S
H787 C800 0.962 . S
C788 H780 0.929 . S
C788 C789 1.377 . S
C788 C790 1.384 . S
C789 C788 1.377 . S
C789 C795 1.390 . S
C790 H781 0.930 . S
C790 C788 1.384 . S
C790 C791 1.372 . S
C791 C790 1.372 . S
C791 C792 1.400 . S
C791 C796 1.502 . S
C792 H782 0.930 . S
C792 C791 1.400 . S
C792 C795 1.386 . S
H793 C809 0.930 . S
H794 C810 0.931 . S
C795 H783 0.929 . S
C795 C789 1.390 . S
C795 C792 1.386 . S
C796 C791 1.502 . S
C796 C798 1.389 1_655 S
C796 C799 1.397 1_655 S
H797 C803 0.930 . S
C798 H784 0.930 . S
C798 C796 1.389 1_455 S
C798 C801 1.403 . S
C799 C796 1.397 1_455 S
C799 C800 1.522 1_455 S
C799 C803 1.400 . S
C800 H785 0.958 1_655 S
C800 H786 0.962 . S
C800 H787 0.962 . S
C800 C799 1.522 1_655 S
C801 C798 1.403 . S
C801 C802 1.392 . S
C801 C805 1.495 . S
C802 C801 1.392 . S
C802 C803 1.385 . S
C802 C804 1.478 . S
C803 H797 0.930 . S
C803 C799 1.400 . S
C803 C802 1.385 . S
C804 C802 1.478 . S
C804 C806 1.381 . S
C804 C810 1.383 . S
C805 C801 1.495 . S
C805 H811 0.959 . S
C805 H812 0.961 . S
C805 H813 0.960 . S
C806 C804 1.381 . S
C806 C807 1.394 . S
C806 H814 0.930 . S
C807 C806 1.394 . S
C807 C808 1.383 . S
C807 H815 0.929 . S
C808 C807 1.383 . S
C808 C809 1.377 . S
C809 H793 0.930 . S
C809 C808 1.377 . S
C809 C810 1.379 . S
C810 H794 0.931 . S
C810 C804 1.383 . S
C810 C809 1.379 . S
H811 C805 0.959 . S
H812 C805 0.961 . S
H813 C805 0.960 . S
H814 C806 0.930 . S
H815 C807 0.929 . S
H816 C824 0.929 . S
H817 C826 0.930 . S
H818 C828 0.930 . S
H819 C831 0.929 . S
H820 C834 0.930 1_565 S
H821 C836 0.961 . S
H822 C836 0.960 . S
H823 C836 0.960 1_655 S
C824 H816 0.929 . S
C824 C825 1.377 . S
C824 C826 1.384 . S
C825 C824 1.377 . S
C825 C831 1.390 1_455 S
C826 H817 0.930 . S
C826 C824 1.384 . S
C826 C827 1.372 . S
C827 C826 1.372 . S
C827 C828 1.400 1_455 S
C827 C832 1.490 . S
C828 H818 0.930 . S
C828 C827 1.400 1_655 S
C828 C831 1.386 . S
H829 C845 0.930 . S
H830 C846 0.931 . S
C831 H819 0.929 . S
C831 C825 1.390 1_655 S
C831 C828 1.386 . S
C832 C827 1.490 . S
C832 C834 1.395 . S
C832 C835 1.403 . S
H833 C839 0.930 . S
C834 H820 0.930 1_545 S
C834 C832 1.395 . S
C834 C837 1.403 1_554 S
C835 C832 1.403 . S
C835 C836 1.524 . S
C835 C839 1.400 1_554 S
C836 H821 0.961 . S
C836 H822 0.960 . S
C836 H823 0.960 1_455 S
C836 C835 1.524 . S
C837 C834 1.403 1_556 S
C837 C838 1.392 . S
C837 C841 1.495 1_545 S
C838 C837 1.392 . S
C838 C839 1.385 . S
C838 C840 1.478 . S
C839 H833 0.930 . S
C839 C835 1.400 1_556 S
C839 C838 1.385 . S
C840 C838 1.478 . S
C840 C842 1.381 . S
C840 C846 1.383 1_455 S
C841 C837 1.495 1_565 S
C841 H847 0.959 . S
C841 H848 0.961 . S
C841 H849 0.960 . S
C842 C840 1.381 . S
C842 C843 1.394 . S
C842 H850 0.930 . S
C843 C842 1.394 . S
C843 C844 1.383 . S
C843 H851 0.929 . S
C844 C843 1.383 . S
C844 C845 1.377 1_455 S
C845 H829 0.930 . S
C845 C844 1.377 1_655 S
C845 C846 1.379 . S
C846 H830 0.931 . S
C846 C840 1.383 1_655 S
C846 C845 1.379 . S
H847 C841 0.959 . S
H848 C841 0.961 . S
H849 C841 0.960 . S
H850 C842 0.930 . S
H851 C843 0.929 . S
H852 C860 0.929 . S
H853 C862 0.930 . S
H854 C864 0.930 . S
H855 C867 0.929 . S
H856 C870 0.930 . S
H857 C872 0.960 . S
H858 C872 0.960 . S
H859 C872 0.960 . S
C860 H852 0.929 . S
C860 C861 1.377 . S
C860 C862 1.384 . S
C861 C860 1.377 . S
C861 C867 1.390 . S
C862 H853 0.930 . S
C862 C860 1.384 . S
C862 C863 1.372 . S
C863 C862 1.372 . S
C863 C864 1.400 . S
C863 C868 1.490 . S
C864 H854 0.930 . S
C864 C863 1.400 . S
C864 C867 1.386 . S
H865 C881 0.930 . S
H866 C882 0.931 . S
C867 H855 0.929 . S
C867 C861 1.390 . S
C867 C864 1.386 . S
C868 C863 1.490 . S
C868 C870 1.395 . S
C868 C871 1.403 . S
H869 C875 0.930 . S
C870 H856 0.930 . S
C870 C868 1.395 . S
C870 C873 1.403 . S
C871 C868 1.403 . S
C871 C872 1.524 . S
C871 C875 1.400 . S
C872 H857 0.960 . S
C872 H858 0.960 . S
C872 H859 0.960 . S
C872 C871 1.524 . S
C873 C870 1.403 . S
C873 C874 1.392 . S
C873 C877 1.495 . S
C874 C873 1.392 . S
C874 C875 1.385 . S
C874 C876 1.478 . S
C875 H869 0.930 . S
C875 C871 1.400 . S
C875 C874 1.385 . S
C876 C874 1.478 . S
C876 C878 1.381 . S
C876 C882 1.383 . S
C877 C873 1.495 . S
C877 H883 0.959 . S
C877 H884 0.961 . S
C877 H885 0.960 . S
C878 C876 1.381 . S
C878 C879 1.394 . S
C878 H886 0.930 . S
C879 C878 1.394 . S
C879 C880 1.383 . S
C879 H887 0.929 . S
C880 C879 1.383 . S
C880 C881 1.377 . S
C881 H865 0.930 . S
C881 C880 1.377 . S
C881 C882 1.379 . S
C882 H866 0.931 . S
C882 C876 1.383 . S
C882 C881 1.379 . S
H883 C877 0.959 . S
H884 C877 0.961 . S
H885 C877 0.960 . S
H886 C878 0.930 . S
H887 C879 0.929 . S
H888 C896 0.929 . S
H889 C898 0.930 . S
H890 C900 0.930 . S
H891 C903 0.929 . S
H892 C906 0.930 1_565 S
H893 C908 0.960 . S
H894 C908 0.960 . S
H895 C908 0.960 . S
C896 H888 0.929 . S
C896 C897 1.377 . S
C896 C898 1.384 . S
C897 C896 1.377 . S
C897 C903 1.390 . S
C898 H889 0.930 . S
C898 C896 1.384 . S
C898 C899 1.372 . S
C899 C898 1.372 . S
C899 C900 1.400 . S
C899 C904 1.490 . S
C900 H890 0.930 . S
C900 C899 1.400 . S
C900 C903 1.386 . S
H901 C917 0.930 . S
H902 C918 0.931 . S
C903 H891 0.929 . S
C903 C897 1.390 . S
C903 C900 1.386 . S
C904 C899 1.490 . S
C904 C906 1.395 . S
C904 C907 1.403 . S
H905 C911 0.930 . S
C906 H892 0.930 1_545 S
C906 C904 1.395 . S
C906 C909 1.403 . S
C907 C904 1.403 . S
C907 C908 1.524 . S
C907 C911 1.400 . S
C908 H893 0.960 . S
C908 H894 0.960 . S
C908 H895 0.960 . S
C908 C907 1.524 . S
C909 C906 1.403 . S
C909 C910 1.392 . S
C909 C913 1.495 1_545 S
C910 C909 1.392 . S
C910 C911 1.385 . S
C910 C912 1.478 . S
C911 H905 0.930 . S
C911 C907 1.400 . S
C911 C910 1.385 . S
C912 C910 1.478 . S
C912 C914 1.381 . S
C912 C918 1.383 . S
C913 C909 1.495 1_565 S
C913 H919 0.959 . S
C913 H920 0.961 . S
C913 H921 0.960 . S
C914 C912 1.381 . S
C914 C915 1.394 . S
C914 H922 0.930 . S
C915 C914 1.394 . S
C915 C916 1.383 . S
C915 H923 0.929 . S
C916 C915 1.383 . S
C916 C917 1.377 . S
C917 H901 0.930 . S
C917 C916 1.377 . S
C917 C918 1.379 . S
C918 H902 0.931 . S
C918 C912 1.383 . S
C918 C917 1.379 . S
H919 C913 0.959 . S
H920 C913 0.961 . S
H921 C913 0.960 . S
H922 C914 0.930 . S
H923 C915 0.929 . S
H924 C932 0.929 . S
H925 C934 0.930 . S
H926 C936 0.930 . S
H927 C939 0.929 . S
H928 C942 0.930 . S
H929 C944 0.960 . S
H930 C944 0.960 . S
H931 C944 0.960 . S
C932 H924 0.929 . S
C932 C933 1.377 . S
C932 C934 1.384 . S
C933 C932 1.377 . S
C933 C939 1.390 . S
C934 H925 0.930 . S
C934 C932 1.384 . S
C934 C935 1.372 . S
C935 C934 1.372 . S
C935 C936 1.400 . S
C935 C940 1.490 . S
C936 H926 0.930 . S
C936 C935 1.400 . S
C936 C939 1.386 . S
H937 C953 0.930 . S
H938 C954 0.931 . S
C939 H927 0.929 . S
C939 C933 1.390 . S
C939 C936 1.386 . S
C940 C935 1.490 . S
C940 C942 1.395 . S
C940 C943 1.403 . S
H941 C947 0.930 . S
C942 H928 0.930 . S
C942 C940 1.395 . S
C942 C945 1.403 . S
C943 C940 1.403 . S
C943 C944 1.524 . S
C943 C947 1.400 . S
C944 H929 0.960 . S
C944 H930 0.960 . S
C944 H931 0.960 . S
C944 C943 1.524 . S
C945 C942 1.403 . S
C945 C946 1.392 . S
C945 C949 1.495 . S
C946 C945 1.392 . S
C946 C947 1.385 . S
C946 C948 1.478 . S
C947 H941 0.930 . S
C947 C943 1.400 . S
C947 C946 1.385 . S
C948 C946 1.478 . S
C948 C950 1.381 . S
C948 C954 1.383 . S
C949 C945 1.495 . S
C949 H955 0.959 . S
C949 H956 0.961 . S
C949 H957 0.960 . S
C950 C948 1.381 . S
C950 C951 1.394 . S
C950 H958 0.930 . S
C951 C950 1.394 . S
C951 C952 1.383 . S
C951 H959 0.929 . S
C952 C951 1.383 . S
C952 C953 1.377 . S
C953 H937 0.930 . S
C953 C952 1.377 . S
C953 C954 1.379 . S
C954 H938 0.931 . S
C954 C948 1.383 . S
C954 C953 1.379 . S
H955 C949 0.959 . S
H956 C949 0.961 . S
H957 C949 0.960 . S
H958 C950 0.930 . S
H959 C951 0.929 . S
H960 C968 0.929 . S
H961 C970 0.930 . S
H962 C972 0.930 . S
H963 C975 0.929 . S
H964 C978 0.930 . S
H965 C980 0.960 . S
H966 C980 0.960 . S
H967 C980 0.960 . S
C968 H960 0.929 . S
C968 C969 1.377 . S
C968 C970 1.384 . S
C969 C968 1.377 . S
C969 C975 1.390 . S
C970 H961 0.930 . S
C970 C968 1.384 . S
C970 C971 1.372 . S
C971 C970 1.372 . S
C971 C972 1.400 . S
C971 C976 1.490 . S
C972 H962 0.930 . S
C972 C971 1.400 . S
C972 C975 1.386 . S
H973 C989 0.930 . S
H974 C990 0.931 . S
C975 H963 0.929 . S
C975 C969 1.390 . S
C975 C972 1.386 . S
C976 C971 1.490 . S
C976 C978 1.395 . S
C976 C979 1.403 . S
H977 C983 0.930 . S
C978 H964 0.930 . S
C978 C976 1.395 . S
C978 C981 1.403 . S
C979 C976 1.403 . S
C979 C980 1.524 . S
C979 C983 1.400 . S
C980 H965 0.960 . S
C980 H966 0.960 . S
C980 H967 0.960 . S
C980 C979 1.524 . S
C981 C978 1.403 . S
C981 C982 1.392 . S
C981 C985 1.495 . S
C982 C981 1.392 . S
C982 C983 1.385 . S
C982 C984 1.478 . S
C983 H977 0.930 . S
C983 C979 1.400 . S
C983 C982 1.385 . S
C984 C982 1.478 . S
C984 C986 1.381 . S
C984 C990 1.383 . S
C985 C981 1.495 . S
C985 H991 0.959 . S
C985 H992 0.961 . S
C985 H993 0.960 . S
C986 C984 1.381 . S
C986 C987 1.394 . S
C986 H994 0.930 . S
C987 C986 1.394 . S
C987 C988 1.383 . S
C987 H995 0.929 . S
C988 C987 1.383 . S
C988 C989 1.377 . S
C989 H973 0.930 . S
C989 C988 1.377 . S
C989 C990 1.379 . S
C990 H974 0.931 . S
C990 C984 1.383 . S
C990 C989 1.379 . S
H991 C985 0.959 . S
H992 C985 0.961 . S
H993 C985 0.960 . S
H994 C986 0.930 . S
H995 C987 0.929 . S
H996 C1004 0.929 . S
H997 C1006 0.930 . S
H998 C1008 0.930 . S
H999 C1011 0.929 . S
H1000 C1014 0.930 . S
H1001 C1016 0.960 . S
H1002 C1016 0.960 . S
H1003 C1016 0.960 . S
C1004 H996 0.929 . S
C1004 C1005 1.377 . S
C1004 C1006 1.384 . S
C1005 C1004 1.377 . S
C1005 C1011 1.390 . S
C1006 H997 0.930 . S
C1006 C1004 1.384 . S
C1006 C1007 1.372 . S
C1007 C1006 1.372 . S
C1007 C1008 1.400 . S
C1007 C1012 1.490 . S
C1008 H998 0.930 . S
C1008 C1007 1.400 . S
C1008 C1011 1.386 . S
H1009 C1025 0.930 . S
H1010 C1026 0.931 . S
C1011 H999 0.929 . S
C1011 C1005 1.390 . S
C1011 C1008 1.386 . S
C1012 C1007 1.490 . S
C1012 C1014 1.395 . S
C1012 C1015 1.403 . S
H1013 C1019 0.930 . S
C1014 H1000 0.930 . S
C1014 C1012 1.395 . S
C1014 C1017 1.403 . S
C1015 C1012 1.403 . S
C1015 C1016 1.524 . S
C1015 C1019 1.400 . S
C1016 H1001 0.960 . S
C1016 H1002 0.960 . S
C1016 H1003 0.960 . S
C1016 C1015 1.524 . S
C1017 C1014 1.403 . S
C1017 C1018 1.392 . S
C1017 C1021 1.495 . S
C1018 C1017 1.392 . S
C1018 C1019 1.385 . S
C1018 C1020 1.478 . S
C1019 H1013 0.930 . S
C1019 C1015 1.400 . S
C1019 C1018 1.385 . S
C1020 C1018 1.478 . S
C1020 C1022 1.381 . S
C1020 C1026 1.383 . S
C1021 C1017 1.495 . S
C1021 H1027 0.959 . S
C1021 H1028 0.961 . S
C1021 H1029 0.960 . S
C1022 C1020 1.381 . S
C1022 C1023 1.394 . S
C1022 H1030 0.930 . S
C1023 C1022 1.394 . S
C1023 C1024 1.383 . S
C1023 H1031 0.929 . S
C1024 C1023 1.383 . S
C1024 C1025 1.377 . S
C1025 H1009 0.930 . S
C1025 C1024 1.377 . S
C1025 C1026 1.379 . S
C1026 H1010 0.931 . S
C1026 C1020 1.383 . S
C1026 C1025 1.379 . S
H1027 C1021 0.959 . S
H1028 C1021 0.961 . S
H1029 C1021 0.960 . S
H1030 C1022 0.930 . S
H1031 C1023 0.929 . S
H1032 C1040 0.929 . S
H1033 C1042 0.930 . S
H1034 C1044 0.930 . S
H1035 C1047 0.929 . S
H1036 C1050 0.930 . S
H1037 C1052 0.960 . S
H1038 C1052 0.960 . S
H1039 C1052 0.960 . S
C1040 H1032 0.929 . S
C1040 C1041 1.377 . S
C1040 C1042 1.384 . S
C1041 C1040 1.377 . S
C1041 C1047 1.390 . S
C1042 H1033 0.930 . S
C1042 C1040 1.384 . S
C1042 C1043 1.372 . S
C1043 C1042 1.372 . S
C1043 C1044 1.400 . S
C1043 C1048 1.490 . S
C1044 H1034 0.930 . S
C1044 C1043 1.400 . S
C1044 C1047 1.386 . S
H1045 C1061 0.930 . S
H1046 C1062 0.931 . S
C1047 H1035 0.929 . S
C1047 C1041 1.390 . S
C1047 C1044 1.386 . S
C1048 C1043 1.490 . S
C1048 C1050 1.395 . S
C1048 C1051 1.403 . S
H1049 C1055 0.930 . S
C1050 H1036 0.930 . S
C1050 C1048 1.395 . S
C1050 C1053 1.403 . S
C1051 C1048 1.403 . S
C1051 C1052 1.524 . S
C1051 C1055 1.400 . S
C1052 H1037 0.960 . S
C1052 H1038 0.960 . S
C1052 H1039 0.960 . S
C1052 C1051 1.524 . S
C1053 C1050 1.403 . S
C1053 C1054 1.392 . S
C1053 C1057 1.495 . S
C1054 C1053 1.392 . S
C1054 C1055 1.385 . S
C1054 C1056 1.478 . S
C1055 H1049 0.930 . S
C1055 C1051 1.400 . S
C1055 C1054 1.385 . S
C1056 C1054 1.478 . S
C1056 C1058 1.381 . S
C1056 C1062 1.383 . S
C1057 C1053 1.495 . S
C1057 H1063 0.959 . S
C1057 H1064 0.961 . S
C1057 H1065 0.960 . S
C1058 C1056 1.381 . S
C1058 C1059 1.394 . S
C1058 H1066 0.930 . S
C1059 C1058 1.394 . S
C1059 C1060 1.383 . S
C1059 H1067 0.929 . S
C1060 C1059 1.383 . S
C1060 C1061 1.377 . S
C1061 H1045 0.930 . S
C1061 C1060 1.377 . S
C1061 C1062 1.379 . S
C1062 H1046 0.931 . S
C1062 C1056 1.383 . S
C1062 C1061 1.379 . S
H1063 C1057 0.959 . S
H1064 C1057 0.961 . S
H1065 C1057 0.960 . S
H1066 C1058 0.930 . S
H1067 C1059 0.929 . S
H1068 C1076 0.929 . S
H1069 C1078 0.930 . S
H1070 C1080 0.924 1_655 S
H1071 C1083 0.929 1_655 S
H1072 C1086 0.930 . S
H1073 C1088 0.960 . S
H1074 C1088 0.960 . S
H1075 C1088 0.960 . S
C1076 H1068 0.929 . S
C1076 C1077 1.377 . S
C1076 C1078 1.384 . S
C1077 C1076 1.377 . S
C1077 C1083 1.390 . S
C1078 H1069 0.930 . S
C1078 C1076 1.384 . S
C1078 C1079 1.372 . S
C1079 C1078 1.372 . S
C1079 C1080 1.400 . S
C1079 C1084 1.490 . S
C1080 H1070 0.924 1_455 S
C1080 C1079 1.400 . S
C1080 C1083 1.386 . S
H1081 C1097 0.927 . S
H1082 C1098 0.931 . S
C1083 H1071 0.929 1_455 S
C1083 C1077 1.390 . S
C1083 C1080 1.386 . S
C1084 C1079 1.490 . S
C1084 C1086 1.395 . S
C1084 C1087 1.403 . S
H1085 C1091 0.930 . S
C1086 H1072 0.930 . S
C1086 C1084 1.395 . S
C1086 C1089 1.403 1_556 S
C1087 C1084 1.403 . S
C1087 C1088 1.524 . S
C1087 C1091 1.400 1_556 S
C1088 H1073 0.960 . S
C1088 H1074 0.960 . S
C1088 H1075 0.960 . S
C1088 C1087 1.524 . S
C1089 C1086 1.403 1_554 S
C1089 C1090 1.392 . S
C1089 C1093 1.495 . S
C1090 C1089 1.392 . S
C1090 C1091 1.385 . S
C1090 C1092 1.478 . S
C1091 H1085 0.930 . S
C1091 C1087 1.400 1_554 S
C1091 C1090 1.385 . S
C1092 C1090 1.478 . S
C1092 C1094 1.381 . S
C1092 C1098 1.383 . S
C1093 C1089 1.495 . S
C1093 H1099 0.959 . S
C1093 H1100 0.961 . S
C1093 H1101 0.960 . S
C1094 C1092 1.381 . S
C1094 C1095 1.394 . S
C1094 H1102 0.930 . S
C1095 C1094 1.394 . S
C1095 C1096 1.383 . S
C1095 H1103 0.929 . S
C1096 C1095 1.383 . S
C1096 C1097 1.377 . S
C1097 H1081 0.927 . S
C1097 C1096 1.377 . S
C1097 C1098 1.379 . S
C1098 H1082 0.931 . S
C1098 C1092 1.383 . S
C1098 C1097 1.379 . S
H1099 C1093 0.959 . S
H1100 C1093 0.961 . S
H1101 C1093 0.960 . S
H1102 C1094 0.930 . S
H1103 C1095 0.929 . S
H1104 C1112 0.929 . S
H1105 C1114 0.930 . S
H1106 C1116 0.930 . S
H1107 C1119 0.929 . S
H1108 C1122 0.930 . S
H1109 C1124 0.960 . S
H1110 C1124 0.960 . S
H1111 C1124 0.960 . S
C1112 H1104 0.929 . S
C1112 C1113 1.377 . S
C1112 C1114 1.384 . S
C1113 C1112 1.377 . S
C1113 C1119 1.390 . S
C1114 H1105 0.930 . S
C1114 C1112 1.384 . S
C1114 C1115 1.372 . S
C1115 C1114 1.372 . S
C1115 C1116 1.400 . S
C1115 C1120 1.490 . S
C1116 H1106 0.930 . S
C1116 C1115 1.400 . S
C1116 C1119 1.386 . S
H1117 C1133 0.930 . S
H1118 C1134 0.931 . S
C1119 H1107 0.929 . S
C1119 C1113 1.390 . S
C1119 C1116 1.386 . S
C1120 C1115 1.490 . S
C1120 C1122 1.395 . S
C1120 C1123 1.403 . S
H1121 C1127 0.930 . S
C1122 H1108 0.930 . S
C1122 C1120 1.395 . S
C1122 C1125 1.403 . S
C1123 C1120 1.403 . S
C1123 C1124 1.524 . S
C1123 C1127 1.400 . S
C1124 H1109 0.960 . S
C1124 H1110 0.960 . S
C1124 H1111 0.960 . S
C1124 C1123 1.524 . S
C1125 C1122 1.403 . S
C1125 C1126 1.392 . S
C1125 C1129 1.495 . S
C1126 C1125 1.392 . S
C1126 C1127 1.385 . S
C1126 C1128 1.478 . S
C1127 H1121 0.930 . S
C1127 C1123 1.400 . S
C1127 C1126 1.385 . S
C1128 C1126 1.478 . S
C1128 C1130 1.381 . S
C1128 C1134 1.383 . S
C1129 C1125 1.495 . S
C1129 H1135 0.959 . S
C1129 H1136 0.961 . S
C1129 H1137 0.960 . S
C1130 C1128 1.381 . S
C1130 C1131 1.394 1_565 S
C1130 H1138 0.930 1_565 S
C1131 C1130 1.394 1_545 S
C1131 C1132 1.383 . S
C1131 H1139 0.929 . S
C1132 C1131 1.383 . S
C1132 C1133 1.377 1_545 S
C1133 H1117 0.930 . S
C1133 C1132 1.377 1_565 S
C1133 C1134 1.379 . S
C1134 H1118 0.931 . S
C1134 C1128 1.383 . S
C1134 C1133 1.379 . S
H1135 C1129 0.959 . S
H1136 C1129 0.961 . S
H1137 C1129 0.960 . S
H1138 C1130 0.930 1_545 S
H1139 C1131 0.929 . S
H1140 C1148 0.929 . S
H1141 C1150 0.930 . S
H1142 C1152 0.930 . S
H1143 C1155 0.929 . S
H1144 C1158 0.930 . S
H1145 C1160 0.960 . S
H1146 C1160 0.960 . S
H1147 C1160 0.960 . S
C1148 H1140 0.929 . S
C1148 C1149 1.377 . S
C1148 C1150 1.384 . S
C1149 C1148 1.377 . S
C1149 C1155 1.390 . S
C1150 H1141 0.930 . S
C1150 C1148 1.384 . S
C1150 C1151 1.372 . S
C1151 C1150 1.372 . S
C1151 C1152 1.400 . S
C1151 C1156 1.490 . S
C1152 H1142 0.930 . S
C1152 C1151 1.400 . S
C1152 C1155 1.386 . S
H1153 C1169 0.930 . S
H1154 C1170 0.931 . S
C1155 H1143 0.929 . S
C1155 C1149 1.390 . S
C1155 C1152 1.386 . S
C1156 C1151 1.490 . S
C1156 C1158 1.395 . S
C1156 C1159 1.403 . S
H1157 C1163 0.930 . S
C1158 H1144 0.930 . S
C1158 C1156 1.395 . S
C1158 C1161 1.403 . S
C1159 C1156 1.403 . S
C1159 C1160 1.524 . S
C1159 C1163 1.400 . S
C1160 H1145 0.960 . S
C1160 H1146 0.960 . S
C1160 H1147 0.960 . S
C1160 C1159 1.524 . S
C1161 C1158 1.403 . S
C1161 C1162 1.392 . S
C1161 C1165 1.495 . S
C1162 C1161 1.392 . S
C1162 C1163 1.385 . S
C1162 C1164 1.478 . S
C1163 H1157 0.930 . S
C1163 C1159 1.400 . S
C1163 C1162 1.385 . S
C1164 C1162 1.478 . S
C1164 C1166 1.381 . S
C1164 C1170 1.383 . S
C1165 C1161 1.495 . S
C1165 H1171 0.959 . S
C1165 H1172 0.961 . S
C1165 H1173 0.960 . S
C1166 C1164 1.381 . S
C1166 C1167 1.394 . S
C1166 H1174 0.930 . S
C1167 C1166 1.394 . S
C1167 C1168 1.383 1_565 S
C1167 H1175 0.929 . S
C1168 C1167 1.383 1_545 S
C1168 C1169 1.377 . S
C1169 H1153 0.930 . S
C1169 C1168 1.377 . S
C1169 C1170 1.379 1_545 S
C1170 H1154 0.931 . S
C1170 C1164 1.383 . S
C1170 C1169 1.379 1_565 S
H1171 C1165 0.959 . S
H1172 C1165 0.961 . S
H1173 C1165 0.960 . S
H1174 C1166 0.930 . S
H1175 C1167 0.929 . S
H1176 C1184 0.929 . S
H1177 C1186 0.930 . S
H1178 C1188 0.930 . S
H1179 C1191 0.929 . S
H1180 C1194 0.930 . S
H1181 C1196 0.960 . S
H1182 C1196 0.960 . S
H1183 C1196 0.960 . S
C1184 H1176 0.929 . S
C1184 C1185 1.377 . S
C1184 C1186 1.384 . S
C1185 C1184 1.377 . S
C1185 C1191 1.390 . S
C1186 H1177 0.930 . S
C1186 C1184 1.384 . S
C1186 C1187 1.372 . S
C1187 C1186 1.372 . S
C1187 C1188 1.400 . S
C1187 C1192 1.490 . S
C1188 H1178 0.930 . S
C1188 C1187 1.400 . S
C1188 C1191 1.386 . S
H1189 C1205 0.930 . S
H1190 C1206 0.931 . S
C1191 H1179 0.929 . S
C1191 C1185 1.390 . S
C1191 C1188 1.386 . S
C1192 C1187 1.490 . S
C1192 C1194 1.395 . S
C1192 C1195 1.403 . S
H1193 C1199 0.930 . S
C1194 H1180 0.930 . S
C1194 C1192 1.395 . S
C1194 C1197 1.403 . S
C1195 C1192 1.403 . S
C1195 C1196 1.524 . S
C1195 C1199 1.400 . S
C1196 H1181 0.960 . S
C1196 H1182 0.960 . S
C1196 H1183 0.960 . S
C1196 C1195 1.524 . S
C1197 C1194 1.403 . S
C1197 C1198 1.392 . S
C1197 C1201 1.495 . S
C1198 C1197 1.392 . S
C1198 C1199 1.385 . S
C1198 C1200 1.478 . S
C1199 H1193 0.930 . S
C1199 C1195 1.400 . S
C1199 C1198 1.385 . S
C1200 C1198 1.478 . S
C1200 C1202 1.381 . S
C1200 C1206 1.383 . S
C1201 C1197 1.495 . S
C1201 H1207 0.959 . S
C1201 H1208 0.961 . S
C1201 H1209 0.960 . S
C1202 C1200 1.381 . S
C1202 C1203 1.394 . S
C1202 H1210 0.930 . S
C1203 C1202 1.394 . S
C1203 C1204 1.383 . S
C1203 H1211 0.929 . S
C1204 C1203 1.383 . S
C1204 C1205 1.377 . S
C1205 H1189 0.930 . S
C1205 C1204 1.377 . S
C1205 C1206 1.379 . S
C1206 H1190 0.931 . S
C1206 C1200 1.383 . S
C1206 C1205 1.379 . S
H1207 C1201 0.959 . S
H1208 C1201 0.961 . S
H1209 C1201 0.960 . S
H1210 C1202 0.930 . S
H1211 C1203 0.929 . S
H1212 C1220 0.929 . S
H1213 C1222 0.930 . S
H1214 C1224 0.930 . S
H1215 C1227 0.929 . S
H1216 C1230 0.930 . S
H1217 C1232 0.960 . S
H1218 C1232 0.960 . S
H1219 C1232 0.960 . S
C1220 H1212 0.929 . S
C1220 C1221 1.377 . S
C1220 C1222 1.384 . S
C1221 C1220 1.377 . S
C1221 C1227 1.390 . S
C1222 H1213 0.930 . S
C1222 C1220 1.384 . S
C1222 C1223 1.372 . S
C1223 C1222 1.372 . S
C1223 C1224 1.400 . S
C1223 C1228 1.490 . S
C1224 H1214 0.930 . S
C1224 C1223 1.400 . S
C1224 C1227 1.386 . S
H1225 C1241 0.930 . S
H1226 C1242 0.931 . S
C1227 H1215 0.929 . S
C1227 C1221 1.390 . S
C1227 C1224 1.386 . S
C1228 C1223 1.490 . S
C1228 C1230 1.395 . S
C1228 C1231 1.403 . S
H1229 C1235 0.930 . S
C1230 H1216 0.930 . S
C1230 C1228 1.395 . S
C1230 C1233 1.403 . S
C1231 C1228 1.403 . S
C1231 C1232 1.524 . S
C1231 C1235 1.400 . S
C1232 H1217 0.960 . S
C1232 H1218 0.960 . S
C1232 H1219 0.960 . S
C1232 C1231 1.524 . S
C1233 C1230 1.403 . S
C1233 C1234 1.392 . S
C1233 C1237 1.495 . S
C1234 C1233 1.392 . S
C1234 C1235 1.385 . S
C1234 C1236 1.478 . S
C1235 H1229 0.930 . S
C1235 C1231 1.400 . S
C1235 C1234 1.385 . S
C1236 C1234 1.478 . S
C1236 C1238 1.381 . S
C1236 C1242 1.383 . S
C1237 C1233 1.495 . S
C1237 H1243 0.959 . S
C1237 H1244 0.961 . S
C1237 H1245 0.960 . S
C1238 C1236 1.381 . S
C1238 C1239 1.394 . S
C1238 H1246 0.930 . S
C1239 C1238 1.394 . S
C1239 C1240 1.383 . S
C1239 H1247 0.929 . S
C1240 C1239 1.383 . S
C1240 C1241 1.377 . S
C1241 H1225 0.930 . S
C1241 C1240 1.377 . S
C1241 C1242 1.379 . S
C1242 H1226 0.931 . S
C1242 C1236 1.383 . S
C1242 C1241 1.379 . S
H1243 C1237 0.959 . S
H1244 C1237 0.961 . S
H1245 C1237 0.960 . S
H1246 C1238 0.930 . S
H1247 C1239 0.929 . S
H1248 C1256 0.929 . S
H1249 C1258 0.930 . S
H1250 C1260 0.930 . S
H1251 C1263 0.929 . S
H1252 C1266 0.930 . S
H1253 C1268 0.960 . S
H1254 C1268 0.960 . S
H1255 C1268 0.960 . S
C1256 H1248 0.929 . S
C1256 C1257 1.377 . S
C1256 C1258 1.384 . S
C1257 C1256 1.377 . S
C1257 C1263 1.390 . S
C1258 H1249 0.930 . S
C1258 C1256 1.384 . S
C1258 C1259 1.372 . S
C1259 C1258 1.372 . S
C1259 C1260 1.400 . S
C1259 C1264 1.490 . S
C1260 H1250 0.930 . S
C1260 C1259 1.400 . S
C1260 C1263 1.386 . S
H1261 C1277 0.930 . S
H1262 C1278 0.931 . S
C1263 H1251 0.929 . S
C1263 C1257 1.390 . S
C1263 C1260 1.386 . S
C1264 C1259 1.490 . S
C1264 C1266 1.395 . S
C1264 C1267 1.403 . S
H1265 C1271 0.930 . S
C1266 H1252 0.930 . S
C1266 C1264 1.395 . S
C1266 C1269 1.403 . S
C1267 C1264 1.403 . S
C1267 C1268 1.524 . S
C1267 C1271 1.400 . S
C1268 H1253 0.960 . S
C1268 H1254 0.960 . S
C1268 H1255 0.960 . S
C1268 C1267 1.524 . S
C1269 C1266 1.403 . S
C1269 C1270 1.392 . S
C1269 C1273 1.495 . S
C1270 C1269 1.392 . S
C1270 C1271 1.385 . S
C1270 C1272 1.478 . S
C1271 H1265 0.930 . S
C1271 C1267 1.400 . S
C1271 C1270 1.385 . S
C1272 C1270 1.478 . S
C1272 C1274 1.381 . S
C1272 C1278 1.383 . S
C1273 C1269 1.495 . S
C1273 H1279 0.959 . S
C1273 H1280 0.961 . S
C1273 H1281 0.960 . S
C1274 C1272 1.381 . S
C1274 C1275 1.394 . S
C1274 H1282 0.930 . S
C1275 C1274 1.394 . S
C1275 C1276 1.383 . S
C1275 H1283 0.929 . S
C1276 C1275 1.383 . S
C1276 C1277 1.377 . S
C1277 H1261 0.930 . S
C1277 C1276 1.377 . S
C1277 C1278 1.379 . S
C1278 H1262 0.931 . S
C1278 C1272 1.383 . S
C1278 C1277 1.379 . S
H1279 C1273 0.959 . S
H1280 C1273 0.961 . S
H1281 C1273 0.960 . S
H1282 C1274 0.930 . S
H1283 C1275 0.929 . S
H1284 C1292 0.929 1_565 S
H1285 C1294 0.930 . S
H1286 C1296 0.930 . S
H1287 C1299 0.929 . S
H1288 C1302 0.930 . S
H1289 C1304 0.960 . S
H1290 C1304 0.960 . S
H1291 C1304 0.960 . S
C1292 H1284 0.929 1_545 S
C1292 C1293 1.377 . S
C1292 C1294 1.384 . S
C1293 C1292 1.377 . S
C1293 C1299 1.390 . S
C1294 H1285 0.930 . S
C1294 C1292 1.384 . S
C1294 C1295 1.372 . S
C1295 C1294 1.372 . S
C1295 C1296 1.400 . S
C1295 C1300 1.490 . S
C1296 H1286 0.930 . S
C1296 C1295 1.400 . S
C1296 C1299 1.386 . S
H1297 C1313 0.930 . S
H1298 C1314 0.931 . S
C1299 H1287 0.929 . S
C1299 C1293 1.390 . S
C1299 C1296 1.386 . S
C1300 C1295 1.490 . S
C1300 C1302 1.395 . S
C1300 C1303 1.403 . S
H1301 C1307 0.930 . S
C1302 H1288 0.930 . S
C1302 C1300 1.395 . S
C1302 C1305 1.403 . S
C1303 C1300 1.403 . S
C1303 C1304 1.524 . S
C1303 C1307 1.400 . S
C1304 H1289 0.960 . S
C1304 H1290 0.960 . S
C1304 H1291 0.960 . S
C1304 C1303 1.524 . S
C1305 C1302 1.403 . S
C1305 C1306 1.392 . S
C1305 C1309 1.495 . S
C1306 C1305 1.392 . S
C1306 C1307 1.385 . S
C1306 C1308 1.478 . S
C1307 H1301 0.930 . S
C1307 C1303 1.400 . S
C1307 C1306 1.385 . S
C1308 C1306 1.478 . S
C1308 C1310 1.381 . S
C1308 C1314 1.383 . S
C1309 C1305 1.495 . S
C1309 H1315 0.959 . S
C1309 H1316 0.961 . S
C1309 H1317 0.960 . S
C1310 C1308 1.381 . S
C1310 C1311 1.394 . S
C1310 H1318 0.930 . S
C1311 C1310 1.394 . S
C1311 C1312 1.383 . S
C1311 H1319 0.929 . S
C1312 C1311 1.383 . S
C1312 C1313 1.377 . S
C1313 H1297 0.930 . S
C1313 C1312 1.377 . S
C1313 C1314 1.379 . S
C1314 H1298 0.931 . S
C1314 C1308 1.383 . S
C1314 C1313 1.379 . S
H1315 C1309 0.959 . S
H1316 C1309 0.961 . S
H1317 C1309 0.960 . S
H1318 C1310 0.930 . S
H1319 C1311 0.929 . S
H1320 C1328 0.929 . S
H1321 C1330 0.930 . S
H1322 C1332 0.930 . S
H1323 C1335 0.929 . S
H1324 C1338 0.930 . S
H1325 C1340 0.959 . S
H1326 C1340 0.960 . S
H1327 C1340 0.960 . S
C1328 H1320 0.929 . S
C1328 C1329 1.377 . S
C1328 C1330 1.384 . S
C1329 C1328 1.377 . S
C1329 C1335 1.390 . S
C1330 H1321 0.930 . S
C1330 C1328 1.384 . S
C1330 C1331 1.372 . S
C1331 C1330 1.372 . S
C1331 C1332 1.400 . S
C1331 C1336 1.490 . S
C1332 H1322 0.930 . S
C1332 C1331 1.400 . S
C1332 C1335 1.386 . S
H1333 C1349 0.930 . S
H1334 C1350 0.931 . S
C1335 H1323 0.929 . S
C1335 C1329 1.390 . S
C1335 C1332 1.386 . S
C1336 C1331 1.490 . S
C1336 C1338 1.395 . S
C1336 C1339 1.403 . S
H1337 C1343 0.930 1_545 S
C1338 H1324 0.930 . S
C1338 C1336 1.395 . S
C1338 C1341 1.403 . S
C1339 C1336 1.403 . S
C1339 C1340 1.524 . S
C1339 C1343 1.400 . S
C1340 H1325 0.959 . S
C1340 H1326 0.960 . S
C1340 H1327 0.960 . S
C1340 C1339 1.524 . S
C1341 C1338 1.403 . S
C1341 C1342 1.392 . S
C1341 C1345 1.495 . S
C1342 C1341 1.392 . S
C1342 C1343 1.385 . S
C1342 C1344 1.478 . S
C1343 H1337 0.930 1_565 S
C1343 C1339 1.400 . S
C1343 C1342 1.385 . S
C1344 C1342 1.478 . S
C1344 C1346 1.381 1_565 S
C1344 C1350 1.383 . S
C1345 C1341 1.495 . S
C1345 H1351 0.959 . S
C1345 H1352 0.961 . S
C1345 H1353 0.960 . S
C1346 C1344 1.381 1_545 S
C1346 C1347 1.394 . S
C1346 H1354 0.930 . S
C1347 C1346 1.394 . S
C1347 C1348 1.383 . S
C1347 H1355 0.929 . S
C1348 C1347 1.383 . S
C1348 C1349 1.377 . S
C1349 H1333 0.930 . S
C1349 C1348 1.377 . S
C1349 C1350 1.379 1_545 S
C1350 H1334 0.931 . S
C1350 C1344 1.383 . S
C1350 C1349 1.379 1_565 S
H1351 C1345 0.959 . S
H1352 C1345 0.961 . S
H1353 C1345 0.960 . S
H1354 C1346 0.930 . S
H1355 C1347 0.929 . S
H1356 C1364 0.929 . S
H1357 C1366 0.930 . S
H1358 C1368 0.930 . S
H1359 C1371 0.929 . S
H1360 C1374 0.930 . S
H1361 C1376 0.960 . S
H1362 C1376 0.960 . S
H1363 C1376 0.960 . S
C1364 H1356 0.929 . S
C1364 C1365 1.377 . S
C1364 C1366 1.384 . S
C1365 C1364 1.377 . S
C1365 C1371 1.390 . S
C1366 H1357 0.930 . S
C1366 C1364 1.384 . S
C1366 C1367 1.372 . S
C1367 C1366 1.372 . S
C1367 C1368 1.400 . S
C1367 C1372 1.490 . S
C1368 H1358 0.930 . S
C1368 C1367 1.400 . S
C1368 C1371 1.386 . S
H1369 C1385 0.930 1_565 S
H1370 C1386 0.931 . S
C1371 H1359 0.929 . S
C1371 C1365 1.390 . S
C1371 C1368 1.386 . S
C1372 C1367 1.490 . S
C1372 C1374 1.395 . S
C1372 C1375 1.403 . S
H1373 C1379 0.930 . S
C1374 H1360 0.930 . S
C1374 C1372 1.395 . S
C1374 C1377 1.403 . S
C1375 C1372 1.403 . S
C1375 C1376 1.524 . S
C1375 C1379 1.400 . S
C1376 H1361 0.960 . S
C1376 H1362 0.960 . S
C1376 H1363 0.960 . S
C1376 C1375 1.524 . S
C1377 C1374 1.403 . S
C1377 C1378 1.392 . S
C1377 C1381 1.495 . S
C1378 C1377 1.392 . S
C1378 C1379 1.385 . S
C1378 C1380 1.480 . S
C1379 H1373 0.930 . S
C1379 C1375 1.400 . S
C1379 C1378 1.385 . S
C1380 C1378 1.480 . S
C1380 C1382 1.377 1_565 S
C1380 C1386 1.384 . S
C1381 C1377 1.495 . S
C1381 H1387 0.959 . S
C1381 H1388 0.961 . S
C1381 H1389 0.960 1_565 S
C1382 C1380 1.377 1_545 S
C1382 C1383 1.394 . S
C1382 H1390 0.930 . S
C1383 C1382 1.394 . S
C1383 C1384 1.383 . S
C1383 H1391 0.929 . S
C1384 C1383 1.383 . S
C1384 C1385 1.377 . S
C1385 H1369 0.930 1_545 S
C1385 C1384 1.377 . S
C1385 C1386 1.379 1_545 S
C1386 H1370 0.931 . S
C1386 C1380 1.384 . S
C1386 C1385 1.379 1_565 S
H1387 C1381 0.959 . S
H1388 C1381 0.961 . S
H1389 C1381 0.960 1_545 S
H1390 C1382 0.930 . S
H1391 C1383 0.929 . S
H1392 C1400 0.929 . S
H1393 C1402 0.930 . S
H1394 C1404 0.930 . S
H1395 C1407 0.929 . S
H1396 C1410 0.930 . S
H1397 C1412 0.960 . S
H1398 C1412 0.960 . S
H1399 C1412 0.960 . S
C1400 H1392 0.929 . S
C1400 C1401 1.377 . S
C1400 C1402 1.384 . S
C1401 C1400 1.377 . S
C1401 C1407 1.390 . S
C1402 H1393 0.930 . S
C1402 C1400 1.384 . S
C1402 C1403 1.372 . S
C1403 C1402 1.372 . S
C1403 C1404 1.400 . S
C1403 C1408 1.490 . S
C1404 H1394 0.930 . S
C1404 C1403 1.400 . S
C1404 C1407 1.386 . S
H1405 C1421 0.930 . S
H1406 C1422 0.931 . S
C1407 H1395 0.929 . S
C1407 C1401 1.390 . S
C1407 C1404 1.386 . S
C1408 C1403 1.490 . S
C1408 C1410 1.395 . S
C1408 C1411 1.403 . S
H1409 C1415 0.930 . S
C1410 H1396 0.930 . S
C1410 C1408 1.395 . S
C1410 C1413 1.403 . S
C1411 C1408 1.403 . S
C1411 C1412 1.524 . S
C1411 C1415 1.400 . S
C1412 H1397 0.960 . S
C1412 H1398 0.960 . S
C1412 H1399 0.960 . S
C1412 C1411 1.524 . S
C1413 C1410 1.403 . S
C1413 C1414 1.392 . S
C1413 C1417 1.495 . S
C1414 C1413 1.392 . S
C1414 C1415 1.385 . S
C1414 C1416 1.478 . S
C1415 H1409 0.930 . S
C1415 C1411 1.400 . S
C1415 C1414 1.385 . S
C1416 C1414 1.478 . S
C1416 C1418 1.381 . S
C1416 C1422 1.383 . S
C1417 C1413 1.495 . S
C1417 H1423 0.959 . S
C1417 H1424 0.961 . S
C1417 H1425 0.960 . S
C1418 C1416 1.381 . S
C1418 C1419 1.394 . S
C1418 H1426 0.930 . S
C1419 C1418 1.394 . S
C1419 C1420 1.383 . S
C1419 H1427 0.929 . S
C1420 C1419 1.383 . S
C1420 C1421 1.377 . S
C1421 H1405 0.930 . S
C1421 C1420 1.377 . S
C1421 C1422 1.379 . S
C1422 H1406 0.931 . S
C1422 C1416 1.383 . S
C1422 C1421 1.379 . S
H1423 C1417 0.959 . S
H1424 C1417 0.961 . S
H1425 C1417 0.960 . S
H1426 C1418 0.930 . S
H1427 C1419 0.929 . S
H1428 C1436 0.929 . S
H1429 C1438 0.930 . S
H1430 C1440 0.930 . S
H1431 C1443 0.929 1_455 S
H1432 C1446 0.930 . S
H1433 C1448 0.960 . S
H1434 C1448 0.960 . S
H1435 C1448 0.960 . S
C1436 H1428 0.929 . S
C1436 C1437 1.377 . S
C1436 C1438 1.384 . S
C1437 C1436 1.377 . S
C1437 C1443 1.390 . S
C1438 H1429 0.930 . S
C1438 C1436 1.384 . S
C1438 C1439 1.372 . S
C1439 C1438 1.372 . S
C1439 C1440 1.400 . S
C1439 C1444 1.490 . S
C1440 H1430 0.930 . S
C1440 C1439 1.400 . S
C1440 C1443 1.386 . S
H1441 C1457 0.930 . S
H1442 C1458 0.931 . S
C1443 H1431 0.929 1_655 S
C1443 C1437 1.390 . S
C1443 C1440 1.386 . S
C1444 C1439 1.490 . S
C1444 C1446 1.395 . S
C1444 C1447 1.403 . S
H1445 C1451 0.930 . S
C1446 H1432 0.930 . S
C1446 C1444 1.395 . S
C1446 C1449 1.403 . S
C1447 C1444 1.403 . S
C1447 C1448 1.524 . S
C1447 C1451 1.400 . S
C1448 H1433 0.960 . S
C1448 H1434 0.960 . S
C1448 H1435 0.960 . S
C1448 C1447 1.524 . S
C1449 C1446 1.403 . S
C1449 C1450 1.392 . S
C1449 C1453 1.495 . S
C1450 C1449 1.392 . S
C1450 C1451 1.385 . S
C1450 C1452 1.478 . S
C1451 H1445 0.930 . S
C1451 C1447 1.400 . S
C1451 C1450 1.385 . S
C1452 C1450 1.478 . S
C1452 C1454 1.381 . S
C1452 C1458 1.383 . S
C1453 C1449 1.495 . S
C1453 H1459 0.959 . S
C1453 H1460 0.961 . S
C1453 H1461 0.960 . S
C1454 C1452 1.381 . S
C1454 C1455 1.394 . S
C1454 H1462 0.930 . S
C1455 C1454 1.394 . S
C1455 C1456 1.383 . S
C1455 H1463 0.929 . S
C1456 C1455 1.383 . S
C1456 C1457 1.377 . S
C1457 H1441 0.930 . S
C1457 C1456 1.377 . S
C1457 C1458 1.379 . S
C1458 H1442 0.931 . S
C1458 C1452 1.383 . S
C1458 C1457 1.379 . S
H1459 C1453 0.959 . S
H1460 C1453 0.961 . S
H1461 C1453 0.960 . S
H1462 C1454 0.930 . S
H1463 C1455 0.929 . S
H1464 C1472 0.929 1_455 S
H1465 C1474 0.930 . S
H1466 C1476 0.930 . S
H1467 C1479 0.929 . S
H1468 C1482 0.930 . S
H1469 C1484 0.960 . S
H1470 C1484 0.960 . S
H1471 C1484 0.960 . S
C1472 H1464 0.929 1_655 S
C1472 C1473 1.377 . S
C1472 C1474 1.384 . S
C1473 C1472 1.377 . S
C1473 C1479 1.390 . S
C1474 H1465 0.930 . S
C1474 C1472 1.384 . S
C1474 C1475 1.372 . S
C1475 C1474 1.372 . S
C1475 C1476 1.400 . S
C1475 C1480 1.490 . S
C1476 H1466 0.930 . S
C1476 C1475 1.400 . S
C1476 C1479 1.386 . S
H1477 C1493 0.930 . S
H1478 C1494 0.931 . S
C1479 H1467 0.929 . S
C1479 C1473 1.390 . S
C1479 C1476 1.386 . S
C1480 C1475 1.490 . S
C1480 C1482 1.395 . S
C1480 C1483 1.403 . S
H1481 C1487 0.930 . S
C1482 H1468 0.930 . S
C1482 C1480 1.395 . S
C1482 C1485 1.403 . S
C1483 C1480 1.403 . S
C1483 C1484 1.524 . S
C1483 C1487 1.400 . S
C1484 H1469 0.960 . S
C1484 H1470 0.960 . S
C1484 H1471 0.960 . S
C1484 C1483 1.524 . S
C1485 C1482 1.403 . S
C1485 C1486 1.392 . S
C1485 C1489 1.495 . S
C1486 C1485 1.392 . S
C1486 C1487 1.385 . S
C1486 C1488 1.478 . S
C1487 H1481 0.930 . S
C1487 C1483 1.400 . S
C1487 C1486 1.385 . S
C1488 C1486 1.478 . S
C1488 C1490 1.381 . S
C1488 C1494 1.383 . S
C1489 C1485 1.495 . S
C1489 H1495 0.959 . S
C1489 H1496 0.961 . S
C1489 H1497 0.960 . S
C1490 C1488 1.381 . S
C1490 C1491 1.394 . S
C1490 H1498 0.930 . S
C1491 C1490 1.394 . S
C1491 C1492 1.383 . S
C1491 H1499 0.929 . S
C1492 C1491 1.383 . S
C1492 C1493 1.377 . S
C1493 H1477 0.930 . S
C1493 C1492 1.377 . S
C1493 C1494 1.379 . S
C1494 H1478 0.931 . S
C1494 C1488 1.383 . S
C1494 C1493 1.379 . S
H1495 C1489 0.959 . S
H1496 C1489 0.961 . S
H1497 C1489 0.960 . S
H1498 C1490 0.930 . S
H1499 C1491 0.929 . S
H1500 C1508 0.929 . S
H1501 C1510 0.930 . S
H1502 C1512 0.930 . S
H1503 C1515 0.929 . S
H1504 C1518 0.930 . S
H1505 C1520 0.960 . S
H1506 C1520 0.960 . S
H1507 C1520 0.960 . S
C1508 H1500 0.929 . S
C1508 C1509 1.377 . S
C1508 C1510 1.384 . S
C1509 C1508 1.377 . S
C1509 C1515 1.390 . S
C1510 H1501 0.930 . S
C1510 C1508 1.384 . S
C1510 C1511 1.372 . S
C1511 C1510 1.372 . S
C1511 C1512 1.400 . S
C1511 C1516 1.490 . S
C1512 H1502 0.930 . S
C1512 C1511 1.400 . S
C1512 C1515 1.386 . S
H1513 C1529 0.930 . S
H1514 C1530 0.931 . S
C1515 H1503 0.929 . S
C1515 C1509 1.390 . S
C1515 C1512 1.386 . S
C1516 C1511 1.490 . S
C1516 C1518 1.395 . S
C1516 C1519 1.403 . S
H1517 C1523 0.930 . S
C1518 H1504 0.930 . S
C1518 C1516 1.395 . S
C1518 C1521 1.403 . S
C1519 C1516 1.403 . S
C1519 C1520 1.524 . S
C1519 C1523 1.400 . S
C1520 H1505 0.960 . S
C1520 H1506 0.960 . S
C1520 H1507 0.960 . S
C1520 C1519 1.524 . S
C1521 C1518 1.403 . S
C1521 C1522 1.392 . S
C1521 C1525 1.495 . S
C1522 C1521 1.392 . S
C1522 C1523 1.385 . S
C1522 C1524 1.478 . S
C1523 H1517 0.930 . S
C1523 C1519 1.400 . S
C1523 C1522 1.385 . S
C1524 C1522 1.478 . S
C1524 C1526 1.381 . S
C1524 C1530 1.383 . S
C1525 C1521 1.495 . S
C1525 H1531 0.959 . S
C1525 H1532 0.961 . S
C1525 H1533 0.960 . S
C1526 C1524 1.381 . S
C1526 C1527 1.394 . S
C1526 H1534 0.930 . S
C1527 C1526 1.394 . S
C1527 C1528 1.383 . S
C1527 H1535 0.929 . S
C1528 C1527 1.383 . S
C1528 C1529 1.377 . S
C1529 H1513 0.930 . S
C1529 C1528 1.377 . S
C1529 C1530 1.379 . S
C1530 H1514 0.931 . S
C1530 C1524 1.383 . S
C1530 C1529 1.379 . S
H1531 C1525 0.959 . S
H1532 C1525 0.961 . S
H1533 C1525 0.960 . S
H1534 C1526 0.930 . S
H1535 C1527 0.929 . S
H1536 C1544 0.929 . S
H1537 C1546 0.930 . S
H1538 C1548 0.930 . S
H1539 C1551 0.929 . S
H1540 C1554 0.930 . S
H1541 C1556 0.960 . S
H1542 C1556 0.960 . S
H1543 C1556 0.960 . S
C1544 H1536 0.929 . S
C1544 C1545 1.377 . S
C1544 C1546 1.384 . S
C1545 C1544 1.377 . S
C1545 C1551 1.390 . S
C1546 H1537 0.930 . S
C1546 C1544 1.384 . S
C1546 C1547 1.372 . S
C1547 C1546 1.372 . S
C1547 C1548 1.400 . S
C1547 C1552 1.490 . S
C1548 H1538 0.930 . S
C1548 C1547 1.400 . S
C1548 C1551 1.386 . S
H1549 C1565 0.930 . S
H1550 C1566 0.931 . S
C1551 H1539 0.929 . S
C1551 C1545 1.390 . S
C1551 C1548 1.386 . S
C1552 C1547 1.490 . S
C1552 C1554 1.395 . S
C1552 C1555 1.403 . S
H1553 C1559 0.930 . S
C1554 H1540 0.930 . S
C1554 C1552 1.395 . S
C1554 C1557 1.403 . S
C1555 C1552 1.403 . S
C1555 C1556 1.524 . S
C1555 C1559 1.400 . S
C1556 H1541 0.960 . S
C1556 H1542 0.960 . S
C1556 H1543 0.960 . S
C1556 C1555 1.524 . S
C1557 C1554 1.403 . S
C1557 C1558 1.392 . S
C1557 C1561 1.495 . S
C1558 C1557 1.392 . S
C1558 C1559 1.385 . S
C1558 C1560 1.478 . S
C1559 H1553 0.930 . S
C1559 C1555 1.400 . S
C1559 C1558 1.385 . S
C1560 C1558 1.478 . S
C1560 C1562 1.381 . S
C1560 C1566 1.383 . S
C1561 C1557 1.495 . S
C1561 H1567 0.959 . S
C1561 H1568 0.961 . S
C1561 H1569 0.960 . S
C1562 C1560 1.381 . S
C1562 C1563 1.394 . S
C1562 H1570 0.930 . S
C1563 C1562 1.394 . S
C1563 C1564 1.383 . S
C1563 H1571 0.929 . S
C1564 C1563 1.383 . S
C1564 C1565 1.377 . S
C1565 H1549 0.930 . S
C1565 C1564 1.377 . S
C1565 C1566 1.379 . S
C1566 H1550 0.931 . S
C1566 C1560 1.383 . S
C1566 C1565 1.379 . S
H1567 C1561 0.959 . S
H1568 C1561 0.961 . S
H1569 C1561 0.960 . S
H1570 C1562 0.930 . S
H1571 C1563 0.929 . S
H1572 C1580 0.929 . S
H1573 C1582 0.930 . S
H1574 C1584 0.930 . S
H1575 C1587 0.929 . S
H1576 C1590 0.930 . S
H1577 C1592 0.960 . S
H1578 C1592 0.960 . S
H1579 C1592 0.960 . S
C1580 H1572 0.929 . S
C1580 C1581 1.377 . S
C1580 C1582 1.384 . S
C1581 C1580 1.377 . S
C1581 C1587 1.390 . S
C1582 H1573 0.930 . S
C1582 C1580 1.384 . S
C1582 C1583 1.372 . S
C1583 C1582 1.372 . S
C1583 C1584 1.400 . S
C1583 C1588 1.490 . S
C1584 H1574 0.930 . S
C1584 C1583 1.400 . S
C1584 C1587 1.386 . S
H1585 C1601 0.930 . S
H1586 C1602 0.931 . S
C1587 H1575 0.929 . S
C1587 C1581 1.390 . S
C1587 C1584 1.386 . S
C1588 C1583 1.490 . S
C1588 C1590 1.395 . S
C1588 C1591 1.403 . S
H1589 C1595 0.930 . S
C1590 H1576 0.930 . S
C1590 C1588 1.395 . S
C1590 C1593 1.403 . S
C1591 C1588 1.403 . S
C1591 C1592 1.524 . S
C1591 C1595 1.400 . S
C1592 H1577 0.960 . S
C1592 H1578 0.960 . S
C1592 H1579 0.960 . S
C1592 C1591 1.524 . S
C1593 C1590 1.403 . S
C1593 C1594 1.392 . S
C1593 C1597 1.495 . S
C1594 C1593 1.392 . S
C1594 C1595 1.385 . S
C1594 C1596 1.478 . S
C1595 H1589 0.930 . S
C1595 C1591 1.400 . S
C1595 C1594 1.385 . S
C1596 C1594 1.478 . S
C1596 C1598 1.381 . S
C1596 C1602 1.383 . S
C1597 C1593 1.495 . S
C1597 H1603 0.959 . S
C1597 H1604 0.961 . S
C1597 H1605 0.960 . S
C1598 C1596 1.381 . S
C1598 C1599 1.394 . S
C1598 H1606 0.930 . S
C1599 C1598 1.394 . S
C1599 C1600 1.383 . S
C1599 H1607 0.929 . S
C1600 C1599 1.383 . S
C1600 C1601 1.377 . S
C1601 H1585 0.930 . S
C1601 C1600 1.377 . S
C1601 C1602 1.379 . S
C1602 H1586 0.931 . S
C1602 C1596 1.383 . S
C1602 C1601 1.379 . S
H1603 C1597 0.959 . S
H1604 C1597 0.961 . S
H1605 C1597 0.960 . S
H1606 C1598 0.930 . S
H1607 C1599 0.929 . S
H1608 C1616 0.929 . S
H1609 C1618 0.930 . S
H1610 C1620 0.930 . S
H1611 C1623 0.929 . S
H1612 C1626 0.930 . S
H1613 C1628 0.960 . S
H1614 C1628 0.960 . S
H1615 C1628 0.960 . S
C1616 H1608 0.929 . S
C1616 C1617 1.377 . S
C1616 C1618 1.384 . S
C1617 C1616 1.377 . S
C1617 C1623 1.390 . S
C1618 H1609 0.930 . S
C1618 C1616 1.384 . S
C1618 C1619 1.372 . S
C1619 C1618 1.372 . S
C1619 C1620 1.400 . S
C1619 C1624 1.490 . S
C1620 H1610 0.930 . S
C1620 C1619 1.400 . S
C1620 C1623 1.386 . S
H1621 C1637 0.930 . S
H1622 C1638 0.931 . S
C1623 H1611 0.929 . S
C1623 C1617 1.390 . S
C1623 C1620 1.386 . S
C1624 C1619 1.490 . S
C1624 C1626 1.395 . S
C1624 C1627 1.403 . S
H1625 C1631 0.930 . S
C1626 H1612 0.930 . S
C1626 C1624 1.395 . S
C1626 C1629 1.403 . S
C1627 C1624 1.403 . S
C1627 C1628 1.524 . S
C1627 C1631 1.400 . S
C1628 H1613 0.960 . S
C1628 H1614 0.960 . S
C1628 H1615 0.960 . S
C1628 C1627 1.524 . S
C1629 C1626 1.403 . S
C1629 C1630 1.392 . S
C1629 C1633 1.495 . S
C1630 C1629 1.392 . S
C1630 C1631 1.385 . S
C1630 C1632 1.478 . S
C1631 H1625 0.930 . S
C1631 C1627 1.400 . S
C1631 C1630 1.385 . S
C1632 C1630 1.478 . S
C1632 C1634 1.381 . S
C1632 C1638 1.383 . S
C1633 C1629 1.495 . S
C1633 H1639 0.959 . S
C1633 H1640 0.961 . S
C1633 H1641 0.960 . S
C1634 C1632 1.381 . S
C1634 C1635 1.394 . S
C1634 H1642 0.930 . S
C1635 C1634 1.394 . S
C1635 C1636 1.383 . S
C1635 H1643 0.929 . S
C1636 C1635 1.383 . S
C1636 C1637 1.377 . S
C1637 H1621 0.930 . S
C1637 C1636 1.377 . S
C1637 C1638 1.379 . S
C1638 H1622 0.931 . S
C1638 C1632 1.383 . S
C1638 C1637 1.379 . S
H1639 C1633 0.959 . S
H1640 C1633 0.961 . S
H1641 C1633 0.960 . S
H1642 C1634 0.930 . S
H1643 C1635 0.929 . S
H1644 C1652 0.929 . S
H1645 C1654 0.930 . S
H1646 C1656 0.930 . S
H1647 C1659 0.929 . S
H1648 C1662 0.930 . S
H1649 C1664 0.960 . S
H1650 C1664 0.960 . S
H1651 C1664 0.960 . S
C1652 H1644 0.929 . S
C1652 C1653 1.377 . S
C1652 C1654 1.384 . S
C1653 C1652 1.377 . S
C1653 C1659 1.390 . S
C1654 H1645 0.930 . S
C1654 C1652 1.384 . S
C1654 C1655 1.372 . S
C1655 C1654 1.372 . S
C1655 C1656 1.400 . S
C1655 C1660 1.490 . S
C1656 H1646 0.930 . S
C1656 C1655 1.400 . S
C1656 C1659 1.386 . S
H1657 C1673 0.930 . S
H1658 C1674 0.931 . S
C1659 H1647 0.929 . S
C1659 C1653 1.390 . S
C1659 C1656 1.386 . S
C1660 C1655 1.490 . S
C1660 C1662 1.395 . S
C1660 C1663 1.403 . S
H1661 C1667 0.930 . S
C1662 H1648 0.930 . S
C1662 C1660 1.395 . S
C1662 C1665 1.403 . S
C1663 C1660 1.403 . S
C1663 C1664 1.524 . S
C1663 C1667 1.400 . S
C1664 H1649 0.960 . S
C1664 H1650 0.960 . S
C1664 H1651 0.960 . S
C1664 C1663 1.524 . S
C1665 C1662 1.403 . S
C1665 C1666 1.392 . S
C1665 C1669 1.495 . S
C1666 C1665 1.392 . S
C1666 C1667 1.385 . S
C1666 C1668 1.478 . S
C1667 H1661 0.930 . S
C1667 C1663 1.400 . S
C1667 C1666 1.385 . S
C1668 C1666 1.478 . S
C1668 C1670 1.381 . S
C1668 C1674 1.383 . S
C1669 C1665 1.495 . S
C1669 H1675 0.959 . S
C1669 H1676 0.961 . S
C1669 H1677 0.960 . S
C1670 C1668 1.381 . S
C1670 C1671 1.394 . S
C1670 H1678 0.930 . S
C1671 C1670 1.394 . S
C1671 C1672 1.383 . S
C1671 H1679 0.929 . S
C1672 C1671 1.383 . S
C1672 C1673 1.377 . S
C1673 H1657 0.930 . S
C1673 C1672 1.377 . S
C1673 C1674 1.379 . S
C1674 H1658 0.931 . S
C1674 C1668 1.383 . S
C1674 C1673 1.379 . S
H1675 C1669 0.959 . S
H1676 C1669 0.961 . S
H1677 C1669 0.960 . S
H1678 C1670 0.930 . S
H1679 C1671 0.929 . S
H1680 C1688 0.929 . S
H1681 C1690 0.930 . S
H1682 C1692 0.930 . S
H1683 C1695 0.929 . S
H1684 C1698 0.930 . S
H1685 C1700 0.960 . S
H1686 C1700 0.960 . S
H1687 C1700 0.960 . S
C1688 H1680 0.929 . S
C1688 C1689 1.377 . S
C1688 C1690 1.384 . S
C1689 C1688 1.377 . S
C1689 C1695 1.390 . S
C1690 H1681 0.930 . S
C1690 C1688 1.384 . S
C1690 C1691 1.372 . S
C1691 C1690 1.372 . S
C1691 C1692 1.400 . S
C1691 C1696 1.490 . S
C1692 H1682 0.930 . S
C1692 C1691 1.400 . S
C1692 C1695 1.386 . S
H1693 C1709 0.930 . S
H1694 C1710 0.931 . S
C1695 H1683 0.929 . S
C1695 C1689 1.390 . S
C1695 C1692 1.386 . S
C1696 C1691 1.490 . S
C1696 C1698 1.395 . S
C1696 C1699 1.403 . S
H1697 C1703 0.930 1_655 S
C1698 H1684 0.930 . S
C1698 C1696 1.395 . S
C1698 C1701 1.403 . S
C1699 C1696 1.403 . S
C1699 C1700 1.524 1_455 S
C1699 C1703 1.400 . S
C1700 H1685 0.960 . S
C1700 H1686 0.960 . S
C1700 H1687 0.960 . S
C1700 C1699 1.524 1_655 S
C1701 C1698 1.403 . S
C1701 C1702 1.392 . S
C1701 C1705 1.495 . S
C1702 C1701 1.392 . S
C1702 C1703 1.385 . S
C1702 C1704 1.478 . S
C1703 H1697 0.930 1_455 S
C1703 C1699 1.400 . S
C1703 C1702 1.385 . S
C1704 C1702 1.478 . S
C1704 C1706 1.381 . S
C1704 C1710 1.383 . S
C1705 C1701 1.495 . S
C1705 H1711 0.959 . S
C1705 H1712 0.961 . S
C1705 H1713 0.960 . S
C1706 C1704 1.381 . S
C1706 C1707 1.394 . S
C1706 H1714 0.930 . S
C1707 C1706 1.394 . S
C1707 C1708 1.383 . S
C1707 H1715 0.929 . S
C1708 C1707 1.383 . S
C1708 C1709 1.377 . S
C1709 H1693 0.930 . S
C1709 C1708 1.377 . S
C1709 C1710 1.379 . S
C1710 H1694 0.931 . S
C1710 C1704 1.383 . S
C1710 C1709 1.379 . S
H1711 C1705 0.959 . S
H1712 C1705 0.961 . S
H1713 C1705 0.960 . S
H1714 C1706 0.930 . S
H1715 C1707 0.929 . S
H1716 C1724 0.929 . S
H1717 C1726 0.930 . S
H1718 C1728 0.930 . S
H1719 C1731 0.929 . S
H1720 C1734 0.930 . S
H1721 C1736 0.960 . S
H1722 C1736 0.960 . S
H1723 C1736 0.960 . S
C1724 H1716 0.929 . S
C1724 C1725 1.377 . S
C1724 C1726 1.384 . S
C1725 C1724 1.377 . S
C1725 C1731 1.390 . S
C1726 H1717 0.930 . S
C1726 C1724 1.384 . S
C1726 C1727 1.372 . S
C1727 C1726 1.372 . S
C1727 C1728 1.400 . S
C1727 C1732 1.490 . S
C1728 H1718 0.930 . S
C1728 C1727 1.400 . S
C1728 C1731 1.386 . S
H1729 C1745 0.930 . S
H1730 C1746 0.931 . S
C1731 H1719 0.929 . S
C1731 C1725 1.390 . S
C1731 C1728 1.386 . S
C1732 C1727 1.490 . S
C1732 C1734 1.395 . S
C1732 C1735 1.403 . S
H1733 C1739 0.930 . S
C1734 H1720 0.930 . S
C1734 C1732 1.395 . S
C1734 C1737 1.403 . S
C1735 C1732 1.403 . S
C1735 C1736 1.524 . S
C1735 C1739 1.400 . S
C1736 H1721 0.960 . S
C1736 H1722 0.960 . S
C1736 H1723 0.960 . S
C1736 C1735 1.524 . S
C1737 C1734 1.403 . S
C1737 C1738 1.392 . S
C1737 C1741 1.495 . S
C1738 C1737 1.392 . S
C1738 C1739 1.385 . S
C1738 C1740 1.478 . S
C1739 H1733 0.930 . S
C1739 C1735 1.400 . S
C1739 C1738 1.385 . S
C1740 C1738 1.478 . S
C1740 C1742 1.381 . S
C1740 C1746 1.383 . S
C1741 C1737 1.495 . S
C1741 H1747 0.959 . S
C1741 H1748 0.961 . S
C1741 H1749 0.960 . S
C1742 C1740 1.381 . S
C1742 C1743 1.394 . S
C1742 H1750 0.930 . S
C1743 C1742 1.394 . S
C1743 C1744 1.383 . S
C1743 H1751 0.929 . S
C1744 C1743 1.383 . S
C1744 C1745 1.377 . S
C1745 H1729 0.930 . S
C1745 C1744 1.377 . S
C1745 C1746 1.379 . S
C1746 H1730 0.931 . S
C1746 C1740 1.383 . S
C1746 C1745 1.379 . S
H1747 C1741 0.959 . S
H1748 C1741 0.961 . S
H1749 C1741 0.960 . S
H1750 C1742 0.930 . S
H1751 C1743 0.929 . S
H1752 C1760 0.929 . S
H1753 C1762 0.930 . S
H1754 C1764 0.930 . S
H1755 C1767 0.929 . S
H1756 C1770 0.930 . S
H1757 C1772 0.960 . S
H1758 C1772 0.960 . S
H1759 C1772 0.960 . S
C1760 H1752 0.929 . S
C1760 C1761 1.377 . S
C1760 C1762 1.384 . S
C1761 C1760 1.377 . S
C1761 C1767 1.390 . S
C1762 H1753 0.930 . S
C1762 C1760 1.384 . S
C1762 C1763 1.372 . S
C1763 C1762 1.372 . S
C1763 C1764 1.400 . S
C1763 C1768 1.490 . S
C1764 H1754 0.930 . S
C1764 C1763 1.400 . S
C1764 C1767 1.386 . S
H1765 C1781 0.930 . S
H1766 C1782 0.931 . S
C1767 H1755 0.929 . S
C1767 C1761 1.390 . S
C1767 C1764 1.386 . S
C1768 C1763 1.490 . S
C1768 C1770 1.395 . S
C1768 C1771 1.403 . S
H1769 C1775 0.930 . S
C1770 H1756 0.930 . S
C1770 C1768 1.395 . S
C1770 C1773 1.403 . S
C1771 C1768 1.403 . S
C1771 C1772 1.524 . S
C1771 C1775 1.400 . S
C1772 H1757 0.960 . S
C1772 H1758 0.960 . S
C1772 H1759 0.960 . S
C1772 C1771 1.524 . S
C1773 C1770 1.403 . S
C1773 C1774 1.392 . S
C1773 C1777 1.495 . S
C1774 C1773 1.392 . S
C1774 C1775 1.385 . S
C1774 C1776 1.478 . S
C1775 H1769 0.930 . S
C1775 C1771 1.400 . S
C1775 C1774 1.385 . S
C1776 C1774 1.478 . S
C1776 C1778 1.381 . S
C1776 C1782 1.383 . S
C1777 C1773 1.495 . S
C1777 H1783 0.959 . S
C1777 H1784 0.961 . S
C1777 H1785 0.960 . S
C1778 C1776 1.381 . S
C1778 C1779 1.394 . S
C1778 H1786 0.930 . S
C1779 C1778 1.394 . S
C1779 C1780 1.383 . S
C1779 H1787 0.929 . S
C1780 C1779 1.383 . S
C1780 C1781 1.377 . S
C1781 H1765 0.930 . S
C1781 C1780 1.377 . S
C1781 C1782 1.379 . S
C1782 H1766 0.931 . S
C1782 C1776 1.383 . S
C1782 C1781 1.379 . S
H1783 C1777 0.959 . S
H1784 C1777 0.961 . S
H1785 C1777 0.960 . S
H1786 C1778 0.930 . S
H1787 C1779 0.929 . S
H1788 C1796 0.929 . S
H1789 C1798 0.930 . S
H1790 C1800 0.930 . S
H1791 C1803 0.929 . S
H1792 C1806 0.930 . S
H1793 C1808 0.960 . S
H1794 C1808 0.960 . S
H1795 C1808 0.960 . S
C1796 H1788 0.929 . S
C1796 C1797 1.377 . S
C1796 C1798 1.384 . S
C1797 C1796 1.377 . S
C1797 C1803 1.390 . S
C1798 H1789 0.930 . S
C1798 C1796 1.384 . S
C1798 C1799 1.372 . S
C1799 C1798 1.372 . S
C1799 C1800 1.400 . S
C1799 C1804 1.490 . S
C1800 H1790 0.930 . S
C1800 C1799 1.400 . S
C1800 C1803 1.386 . S
H1801 C1817 0.930 . S
H1802 C1818 0.931 . S
C1803 H1791 0.929 . S
C1803 C1797 1.390 . S
C1803 C1800 1.386 . S
C1804 C1799 1.490 . S
C1804 C1806 1.395 . S
C1804 C1807 1.403 . S
H1805 C1811 0.952 . S
C1806 H1792 0.930 . S
C1806 C1804 1.395 . S
C1806 C1809 1.403 . S
C1807 C1804 1.403 . S
C1807 C1808 1.524 . S
C1807 C1811 1.400 . S
C1808 H1793 0.960 . S
C1808 H1794 0.960 . S
C1808 H1795 0.960 . S
C1808 C1807 1.524 . S
C1809 C1806 1.403 . S
C1809 C1810 1.392 1_455 S
C1809 C1813 1.495 . S
C1810 C1809 1.392 1_655 S
C1810 C1811 1.385 1_655 S
C1810 C1812 1.478 . S
C1811 H1805 0.952 . S
C1811 C1807 1.400 . S
C1811 C1810 1.385 1_455 S
C1812 C1810 1.478 . S
C1812 C1814 1.381 . S
C1812 C1818 1.383 . S
C1813 C1809 1.495 . S
C1813 H1819 0.959 . S
C1813 H1820 0.961 1_455 S
C1813 H1821 0.960 1_455 S
C1814 C1812 1.381 . S
C1814 C1815 1.394 . S
C1814 H1822 0.930 . S
C1815 C1814 1.394 . S
C1815 C1816 1.383 . S
C1815 H1823 0.929 . S
C1816 C1815 1.383 . S
C1816 C1817 1.377 . S
C1817 H1801 0.930 . S
C1817 C1816 1.377 . S
C1817 C1818 1.379 . S
C1818 H1802 0.931 . S
C1818 C1812 1.383 . S
C1818 C1817 1.379 . S
H1819 C1813 0.959 . S
H1820 C1813 0.961 1_655 S
H1821 C1813 0.960 1_655 S
H1822 C1814 0.930 . S
H1823 C1815 0.929 . S
H1824 C1832 0.929 . S
H1825 C1834 0.930 . S
H1826 C1836 0.917 1_655 S
H1827 C1839 0.929 1_655 S
H1828 C1842 0.930 . S
H1829 C1844 0.960 . S
H1830 C1844 0.960 . S
H1831 C1844 0.960 . S
C1832 H1824 0.929 . S
C1832 C1833 1.377 . S
C1832 C1834 1.384 . S
C1833 C1832 1.377 . S
C1833 C1839 1.390 . S
C1834 H1825 0.930 . S
C1834 C1832 1.384 . S
C1834 C1835 1.372 . S
C1835 C1834 1.372 . S
C1835 C1836 1.400 . S
C1835 C1840 1.490 . S
C1836 H1826 0.917 1_455 S
C1836 C1835 1.400 . S
C1836 C1839 1.386 . S
H1837 C1853 0.930 . S
H1838 C1854 0.931 . S
C1839 H1827 0.929 1_455 S
C1839 C1833 1.390 . S
C1839 C1836 1.386 . S
C1840 C1835 1.490 . S
C1840 C1842 1.395 . S
C1840 C1843 1.403 . S
H1841 C1847 0.930 1_655 S
C1842 H1828 0.930 . S
C1842 C1840 1.395 . S
C1842 C1845 1.403 . S
C1843 C1840 1.403 . S
C1843 C1844 1.524 1_455 S
C1843 C1847 1.400 . S
C1844 H1829 0.960 . S
C1844 H1830 0.960 . S
C1844 H1831 0.960 . S
C1844 C1843 1.524 1_655 S
C1845 C1842 1.403 . S
C1845 C1846 1.392 . S
C1845 C1849 1.495 . S
C1846 C1845 1.392 . S
C1846 C1847 1.385 . S
C1846 C1848 1.478 . S
C1847 H1841 0.930 1_455 S
C1847 C1843 1.400 . S
C1847 C1846 1.385 . S
C1848 C1846 1.478 . S
C1848 C1850 1.381 . S
C1848 C1854 1.383 . S
C1849 C1845 1.495 . S
C1849 H1855 0.959 . S
C1849 H1856 0.961 . S
C1849 H1857 0.960 . S
C1850 C1848 1.381 . S
C1850 C1851 1.394 . S
C1850 H1858 0.930 . S
C1851 C1850 1.394 . S
C1851 C1852 1.383 . S
C1851 H1859 0.929 . S
C1852 C1851 1.383 . S
C1852 C1853 1.377 . S
C1853 H1837 0.930 . S
C1853 C1852 1.377 . S
C1853 C1854 1.379 . S
C1854 H1838 0.931 . S
C1854 C1848 1.383 . S
C1854 C1853 1.379 . S
H1855 C1849 0.959 . S
H1856 C1849 0.961 . S
H1857 C1849 0.960 . S
H1858 C1850 0.930 . S
H1859 C1851 0.929 . S
H1860 C1868 0.929 . S
H1861 C1870 0.930 . S
H1862 C1872 0.930 . S
H1863 C1875 0.929 . S
H1864 C1878 0.930 . S
H1865 C1880 0.960 . S
H1866 C1880 0.960 . S
H1867 C1880 0.960 . S
C1868 H1860 0.929 . S
C1868 C1869 1.377 . S
C1868 C1870 1.384 . S
C1869 C1868 1.377 . S
C1869 C1875 1.390 . S
C1870 H1861 0.930 . S
C1870 C1868 1.384 . S
C1870 C1871 1.372 . S
C1871 C1870 1.372 . S
C1871 C1872 1.400 . S
C1871 C1876 1.490 . S
C1872 H1862 0.930 . S
C1872 C1871 1.400 . S
C1872 C1875 1.386 . S
H1873 C1889 0.930 . S
H1874 C1890 0.931 . S
C1875 H1863 0.929 . S
C1875 C1869 1.390 . S
C1875 C1872 1.386 . S
C1876 C1871 1.490 . S
C1876 C1878 1.395 . S
C1876 C1879 1.403 . S
H1877 C1883 0.930 . S
C1878 H1864 0.930 . S
C1878 C1876 1.395 . S
C1878 C1881 1.403 . S
C1879 C1876 1.403 . S
C1879 C1880 1.524 . S
C1879 C1883 1.400 . S
C1880 H1865 0.960 . S
C1880 H1866 0.960 . S
C1880 H1867 0.960 . S
C1880 C1879 1.524 . S
C1881 C1878 1.403 . S
C1881 C1882 1.392 1_455 S
C1881 C1885 1.495 . S
C1882 C1881 1.392 1_655 S
C1882 C1883 1.385 1_655 S
C1882 C1884 1.478 . S
C1883 H1877 0.930 . S
C1883 C1879 1.400 . S
C1883 C1882 1.385 1_455 S
C1884 C1882 1.478 . S
C1884 C1886 1.381 . S
C1884 C1890 1.383 . S
C1885 C1881 1.495 . S
C1885 H1891 0.959 . S
C1885 H1892 0.961 1_455 S
C1885 H1893 0.960 1_455 S
C1886 C1884 1.381 . S
C1886 C1887 1.394 . S
C1886 H1894 0.930 . S
C1887 C1886 1.394 . S
C1887 C1888 1.383 . S
C1887 H1895 0.929 . S
C1888 C1887 1.383 . S
C1888 C1889 1.377 . S
C1889 H1873 0.930 . S
C1889 C1888 1.377 . S
C1889 C1890 1.379 . S
C1890 H1874 0.931 . S
C1890 C1884 1.383 . S
C1890 C1889 1.379 . S
H1891 C1885 0.959 . S
H1892 C1885 0.961 1_655 S
H1893 C1885 0.960 1_655 S
H1894 C1886 0.930 . S
H1895 C1887 0.929 . S
H1896 C1904 0.929 . S
H1897 C1906 0.930 . S
H1898 C1908 0.930 . S
H1899 C1911 0.929 . S
H1900 C1914 0.930 . S
H1901 C1916 0.960 . S
H1902 C1916 0.960 . S
H1903 C1916 0.960 . S
C1904 H1896 0.929 . S
C1904 C1905 1.377 . S
C1904 C1906 1.384 . S
C1905 C1904 1.377 . S
C1905 C1911 1.390 . S
C1906 H1897 0.930 . S
C1906 C1904 1.384 . S
C1906 C1907 1.372 . S
C1907 C1906 1.372 . S
C1907 C1908 1.400 . S
C1907 C1912 1.490 . S
C1908 H1898 0.930 . S
C1908 C1907 1.400 . S
C1908 C1911 1.386 . S
H1909 C1925 0.930 . S
H1910 C1926 0.931 . S
C1911 H1899 0.929 . S
C1911 C1905 1.390 . S
C1911 C1908 1.386 . S
C1912 C1907 1.490 . S
C1912 C1914 1.395 . S
C1912 C1915 1.403 . S
H1913 C1919 0.930 . S
C1914 H1900 0.930 . S
C1914 C1912 1.395 . S
C1914 C1917 1.403 . S
C1915 C1912 1.403 . S
C1915 C1916 1.524 . S
C1915 C1919 1.400 . S
C1916 H1901 0.960 . S
C1916 H1902 0.960 . S
C1916 H1903 0.960 . S
C1916 C1915 1.524 . S
C1917 C1914 1.403 . S
C1917 C1918 1.392 . S
C1917 C1921 1.495 . S
C1918 C1917 1.392 . S
C1918 C1919 1.385 . S
C1918 C1920 1.478 . S
C1919 H1913 0.930 . S
C1919 C1915 1.400 . S
C1919 C1918 1.385 . S
C1920 C1918 1.478 . S
C1920 C1922 1.381 . S
C1920 C1926 1.383 . S
C1921 C1917 1.495 . S
C1921 H1927 0.959 . S
C1921 H1928 0.961 . S
C1921 H1929 0.960 . S
C1922 C1920 1.381 . S
C1922 C1923 1.394 . S
C1922 H1930 0.930 . S
C1923 C1922 1.394 . S
C1923 C1924 1.383 . S
C1923 H1931 0.929 . S
C1924 C1923 1.383 . S
C1924 C1925 1.377 . S
C1925 H1909 0.930 . S
C1925 C1924 1.377 . S
C1925 C1926 1.379 . S
C1926 H1910 0.931 . S
C1926 C1920 1.383 . S
C1926 C1925 1.379 . S
H1927 C1921 0.959 . S
H1928 C1921 0.961 . S
H1929 C1921 0.960 . S
H1930 C1922 0.930 . S
H1931 C1923 0.929 . S
H1932 C1940 0.929 . S
H1933 C1942 0.930 . S
H1934 C1944 0.930 . S
H1935 C1947 0.929 . S
H1936 C1950 0.930 . S
H1937 C1952 0.960 . S
H1938 C1952 0.960 . S
H1939 C1952 0.960 . S
C1940 H1932 0.929 . S
C1940 C1941 1.377 . S
C1940 C1942 1.384 . S
C1941 C1940 1.377 . S
C1941 C1947 1.390 . S
C1942 H1933 0.930 . S
C1942 C1940 1.384 . S
C1942 C1943 1.372 . S
C1943 C1942 1.372 . S
C1943 C1944 1.400 . S
C1943 C1948 1.490 . S
C1944 H1934 0.930 . S
C1944 C1943 1.400 . S
C1944 C1947 1.386 . S
H1945 C1961 0.930 . S
H1946 C1962 0.931 . S
C1947 H1935 0.929 . S
C1947 C1941 1.390 . S
C1947 C1944 1.386 . S
C1948 C1943 1.490 . S
C1948 C1950 1.395 . S
C1948 C1951 1.403 . S
H1949 C1955 0.930 . S
C1950 H1936 0.930 . S
C1950 C1948 1.395 . S
C1950 C1953 1.403 . S
C1951 C1948 1.403 . S
C1951 C1952 1.524 . S
C1951 C1955 1.400 . S
C1952 H1937 0.960 . S
C1952 H1938 0.960 . S
C1952 H1939 0.960 . S
C1952 C1951 1.524 . S
C1953 C1950 1.403 . S
C1953 C1954 1.392 . S
C1953 C1957 1.495 . S
C1954 C1953 1.392 . S
C1954 C1955 1.385 . S
C1954 C1956 1.478 . S
C1955 H1949 0.930 . S
C1955 C1951 1.400 . S
C1955 C1954 1.385 . S
C1956 C1954 1.478 . S
C1956 C1958 1.381 . S
C1956 C1962 1.383 . S
C1957 C1953 1.495 . S
C1957 H1963 0.959 . S
C1957 H1964 0.961 . S
C1957 H1965 0.960 . S
C1958 C1956 1.381 . S
C1958 C1959 1.394 . S
C1958 H1966 0.930 . S
C1959 C1958 1.394 . S
C1959 C1960 1.383 . S
C1959 H1967 0.929 . S
C1960 C1959 1.383 . S
C1960 C1961 1.377 . S
C1961 H1945 0.930 . S
C1961 C1960 1.377 . S
C1961 C1962 1.379 . S
C1962 H1946 0.931 . S
C1962 C1956 1.383 . S
C1962 C1961 1.379 . S
H1963 C1957 0.959 . S
H1964 C1957 0.961 . S
H1965 C1957 0.960 . S
H1966 C1958 0.930 . S
H1967 C1959 0.929 . S
C537 N434 1.249 . S
C556 N5 1.220 . S
C573 N38 1.248 . S
C592 N368 1.270 . S
C609 N71 1.253 . S
C628 N401 1.241 . S
C645 N104 1.246 . S
C664 N335 1.270 . S
C681 N500 1.243 . S
C700 N137 1.238 . S
C717 N170 1.251 . S
C736 N302 1.222 . S
C753 N203 1.247 . S
C772 N467 1.271 . S
C789 N269 1.249 . S
C808 N236 1.220 . S
C825 C28 1.627 . S
C844 C160 1.639 . S
C861 C61 1.629 . S
C880 C193 1.634 . S
C897 C94 1.624 . S
C916 C226 1.605 . S
C933 C259 1.622 . S
C952 C127 1.616 . S
C969 C358 1.627 . S
C988 C292 1.608 . S
C1005 C325 1.622 . S
C1024 C391 1.620 . S
C1041 C490 1.628 . S
C1060 C424 1.612 . S
C1077 C523 1.623 . S
C1096 C457 1.607 . S
C1113 C173 0.902 . S
C1132 C8 0.933 . S
C1149 C41 0.890 . S
C1168 C206 0.888 . S
C1185 C74 0.893 . S
C1204 C239 0.935 . S
C1221 C140 0.900 . S
C1240 C107 0.855 . S
C1257 C149 0.913 . S
C1276 C347 0.949 . S
C1293 C83 0.922 . S
C1312 C281 0.968 . S
C1329 C380 0.926 . S
C1348 C215 0.893 . S
C1365 C314 0.930 . S
C1384 C17 0.913 . S
C1401 C272 0.896 . S
C1420 C404 0.938 . S
C1437 C503 0.898 . S
C1456 C338 0.939 . S
C1473 C437 0.893 . S
C1492 C305 0.868 . S
C1509 C371 0.895 . S
C1528 C470 0.937 . S
C1545 C479 0.926 . S
C1564 C50 0.952 . S
C1581 C182 0.916 . S
C1600 C446 0.918 . S
C1617 C512 0.916 . S
C1636 C116 0.919 . S
C1653 C248 0.918 . S
C1672 C413 0.906 . S
C1689 N14 0.392 . S
C1708 N443 0.332 . S
C1725 N47 0.413 . S
C1744 N377 0.474 . S
C1761 N80 0.419 . S
C1780 N410 0.477 . S
C1797 N113 0.388 . S
C1816 N344 0.340 . S
C1833 N146 0.397 . S
C1852 N509 0.346 . S
C1869 N179 0.399 . S
C1888 N311 0.353 . S
C1905 N476 0.412 . S
C1924 N212 0.472 . S
C1941 N278 0.394 . S
C1960 N245 0.336 . S
