# Generated by pormake.
# Topology ttw, (5)-cn, num edge types: 1
# Building blocks:
#     Node 0, Type 0, BuildingBlock: XOMCOT_clean_sbu_1, # of connection points: 5
#     Node 1, Type 0, BuildingBlock: XOMCOT_clean_sbu_1, # of connection points: 5
#     Node 2, Type 0, BuildingBlock: XOMCOT_clean_sbu_1, # of connection points: 5
#     Node 3, Type 0, BuildingBlock: XOMCOT_clean_sbu_1, # of connection points: 5
#     Node 4, Type 0, BuildingBlock: XOMCOT_clean_sbu_1, # of connection points: 5
#     Node 5, Type 0, BuildingBlock: XOMCOT_clean_sbu_1, # of connection points: 5
#     Edge 6, Type (0, 0), BuildingBlock: XIVTED_clean_linker_0, # of connection points: 2
#     Edge 7, Type (0, 0), BuildingBlock: XIVTED_clean_linker_0, # of connection points: 2
#     Edge 8, Type (0, 0), BuildingBlock: XIVTED_clean_linker_0, # of connection points: 2
#     Edge 9, Type (0, 0), BuildingBlock: XIVTED_clean_linker_0, # of connection points: 2
#     Edge 10, Type (0, 0), BuildingBlock: XIVTED_clean_linker_0, # of connection points: 2
#     Edge 11, Type (0, 0), BuildingBlock: XIVTED_clean_linker_0, # of connection points: 2
#     Edge 12, Type (0, 0), BuildingBlock: XIVTED_clean_linker_0, # of connection points: 2
#     Edge 13, Type (0, 0), BuildingBlock: XIVTED_clean_linker_0, # of connection points: 2
#     Edge 14, Type (0, 0), BuildingBlock: XIVTED_clean_linker_0, # of connection points: 2
#     Edge 15, Type (0, 0), BuildingBlock: XIVTED_clean_linker_0, # of connection points: 2
#     Edge 16, Type (0, 0), BuildingBlock: XIVTED_clean_linker_0, # of connection points: 2
#     Edge 17, Type (0, 0), BuildingBlock: XIVTED_clean_linker_0, # of connection points: 2
#     Edge 18, Type (0, 0), BuildingBlock: XIVTED_clean_linker_0, # of connection points: 2
#     Edge 19, Type (0, 0), BuildingBlock: XIVTED_clean_linker_0, # of connection points: 2
#     Edge 20, Type (0, 0), BuildingBlock: XIVTED_clean_linker_0, # of connection points: 2
# Relax obj value: 0.323
# Max RMSD: 0.299
# Mean RMSD: 0.265
data_MOF--net-ttw--node1-XOMCOT_clean_sbu_1--edge1-XIVTED_clean_linker_0
_symmetry_space_group_name_H-M    P1
_symmetry_Int_Tables_number       1
_symmetry_cell_setting            triclinic
loop_
_symmetry_equiv_pos_as_xyz
'x, y, z'
_cell_length_a     54.871434
_cell_length_b     55.713706
_cell_length_c     17.614376
_cell_angle_alpha  94.53396
_cell_angle_beta   94.239719
_cell_angle_gamma 120.81345
loop_
_atom_site_label
_atom_site_type_symbol
_atom_site_fract_x
_atom_site_fract_y
_atom_site_fract_z
_atom_type_partial_charge
C0 C 0.163 0.54242 0.97313 0.0
C1 C 0.15602 0.53736 0.89473 0.0
N2 N 0.14997 0.55655 0.87283 0.0
N3 N 0.16189 0.56503 1.00125 0.0
C4 C 0.15298 0.57264 0.93876 0.0
H5 H 0.16892 0.5305 1.00751 0.0
Co6 Co 0.16988 0.57863 0.10697 0.0
C7 C 0.20171 0.63566 0.0416 0.0
O8 O 0.20199 0.62648 0.9709 0.0
N9 N 0.17744 0.59136 0.21235 0.0
C10 C 0.19978 0.61676 0.32609 0.0
C11 C 0.20182 0.61411 0.24907 0.0
C12 C 0.16103 0.58019 0.26852 0.0
N13 N 0.17413 0.59543 0.33849 0.0
O14 O 0.1348 0.57877 0.10286 0.0
H15 H 0.22025 0.62765 0.22179 0.0
H16 H 0.13995 0.56126 0.25824 0.0
O17 O 0.19038 0.61835 0.08993 0.0
C18 C 0.11109 0.55547 0.08472 0.0
O19 O 0.11118 0.53225 0.06552 0.0
N20 N 0.20346 0.57689 0.11353 0.0
C21 C 0.2486 0.56692 0.12517 0.0
C22 C 0.24895 0.58657 0.07937 0.0
C23 C 0.22614 0.59119 0.07414 0.0
C24 C 0.20262 0.55752 0.1577 0.0
C25 C 0.22499 0.55233 0.16475 0.0
H26 H 0.2266 0.60572 0.03692 0.0
H27 H 0.18416 0.54564 0.1868 0.0
H28 H 0.14895 0.58975 0.94143 0.0
H29 H 0.15657 0.52149 0.85653 0.0
H30 H 0.21635 0.63264 0.37002 0.0
H31 H 0.26676 0.59841 0.04798 0.0
H32 H 0.22347 0.53659 0.19966 0.0
C33 C 0.53174 0.0552 0.69391 0.0
C34 C 0.52729 0.04832 0.61544 0.0
N35 N 0.50842 0.05486 0.58575 0.0
N36 N 0.51616 0.06652 0.71423 0.0
C37 C 0.50145 0.06518 0.64721 0.0
H38 H 0.54608 0.05281 0.73376 0.0
Co39 Co 0.5169 0.07938 0.81674 0.0
C40 C 0.51722 0.12814 0.74067 0.0
O41 O 0.52253 0.12387 0.67105 0.0
N42 N 0.51717 0.09124 0.91983 0.0
C43 C 0.52469 0.1179 0.02991 0.0
C44 C 0.52866 0.11802 0.95384 0.0
C45 C 0.50664 0.07522 0.97675 0.0
N46 N 0.51083 0.09097 0.04451 0.0
O47 O 0.47622 0.05799 0.80686 0.0
H48 H 0.53991 0.13659 0.92572 0.0
H49 H 0.49616 0.05246 0.96852 0.0
O50 O 0.51536 0.11191 0.79013 0.0
C51 C 0.46219 0.03127 0.80259 0.0
O52 O 0.47529 0.01754 0.78799 0.0
N53 N 0.55744 0.10072 0.83014 0.0
C54 C 0.6156 0.13989 0.87416 0.0
C55 C 0.60156 0.14006 0.80452 0.0
C56 C 0.57255 0.12009 0.78323 0.0
C57 C 0.57149 0.098 0.89302 0.0
C58 C 0.60053 0.11766 0.9168 0.0
H59 H 0.56213 0.12093 0.73035 0.0
H60 H 0.55973 0.08165 0.92794 0.0
H61 H 0.48607 0.07182 0.64343 0.0
H62 H 0.5382 0.04036 0.58261 0.0
H63 H 0.53234 0.13635 0.07188 0.0
H64 H 0.61231 0.15648 0.76887 0.0
H65 H 0.61074 0.11613 0.96965 0.0
C66 C 0.52675 0.62212 0.17194 0.0
C67 C 0.53043 0.6216 0.09554 0.0
N68 N 0.50436 0.60732 0.05363 0.0
N69 N 0.49853 0.60802 0.17811 0.0
C70 C 0.48548 0.59918 0.10489 0.0
H71 H 0.54362 0.63311 0.21994 0.0
Co72 Co 0.48421 0.60579 0.2715 0.0
C73 C 0.42643 0.5589 0.18434 0.0
O74 O 0.43394 0.54182 0.15348 0.0
N75 N 0.47045 0.60395 0.36545 0.0
C76 C 0.44385 0.60335 0.45499 0.0
C77 C 0.44671 0.60429 0.37851 0.0
C78 C 0.48193 0.60324 0.43501 0.0
N79 N 0.46609 0.60278 0.49079 0.0
O80 O 0.48681 0.57332 0.28293 0.0
H81 H 0.43263 0.60576 0.33535 0.0
H82 H 0.5019 0.60382 0.44476 0.0
O83 O 0.4448 0.58213 0.22514 0.0
C84 C 0.5111 0.57763 0.31011 0.0
O85 O 0.532 0.60364 0.33461 0.0
N86 N 0.48265 0.63818 0.25998 0.0
C87 C 0.48012 0.68665 0.2492 0.0
C88 C 0.46557 0.66329 0.19146 0.0
C89 C 0.46671 0.63921 0.19854 0.0
C90 C 0.49825 0.66108 0.31481 0.0
C91 C 0.4969 0.68538 0.31131 0.0
H92 H 0.45459 0.6214 0.15422 0.0
H93 H 0.51118 0.66018 0.36265 0.0
H94 H 0.46261 0.58799 0.08871 0.0
H95 H 0.55061 0.63221 0.07264 0.0
H96 H 0.42664 0.60314 0.48174 0.0
H97 H 0.45322 0.66336 0.14076 0.0
H98 H 0.50842 0.70263 0.3578 0.0
C99 C 0.86418 0.39605 0.25116 0.0
C100 C 0.87174 0.39868 0.32876 0.0
N101 N 0.87828 0.42435 0.36086 0.0
N102 N 0.86532 0.41973 0.23359 0.0
C103 C 0.87512 0.43703 0.30154 0.0
H104 H 0.85789 0.37771 0.21028 0.0
Co105 Co 0.85703 0.42533 0.1323 0.0
C106 C 0.81983 0.44139 0.22131 0.0
O107 O 0.82353 0.43238 0.28518 0.0
N108 N 0.84956 0.43049 0.03108 0.0
C109 C 0.82623 0.43002 0.92181 0.0
C110 C 0.82414 0.42514 0.99688 0.0
C111 C 0.86665 0.43792 0.97483 0.0
N112 N 0.85296 0.43804 0.90772 0.0
O113 O 0.88982 0.46303 0.14985 0.0
H114 H 0.80482 0.41674 0.02361 0.0
H115 H 0.88848 0.44263 0.98257 0.0
O116 O 0.83165 0.4391 0.16323 0.0
C117 C 0.91331 0.46344 0.15349 0.0
O118 O 0.91259 0.43943 0.14888 0.0
N119 N 0.82631 0.3877 0.11111 0.0
C120 C 0.78515 0.3306 0.06768 0.0
C121 C 0.78052 0.3473 0.12167 0.0
C122 C 0.80143 0.37578 0.14294 0.0
C123 C 0.8314 0.37171 0.05964 0.0
C124 C 0.81112 0.34318 0.03693 0.0
H125 H 0.79744 0.38785 0.18524 0.0
H126 H 0.85151 0.38125 0.03624 0.0
H127 H 0.879 0.45825 0.30775 0.0
H128 H 0.87116 0.38238 0.35962 0.0
H129 H 0.80894 0.42652 0.87968 0.0
H130 H 0.76073 0.33857 0.14665 0.0
H131 H 0.81592 0.33106 0.99626 0.0
C132 C 0.42653 0.91647 0.33885 0.0
C133 C 0.42861 0.92356 0.41636 0.0
N134 N 0.40206 0.91386 0.43487 0.0
N135 N 0.39876 0.90191 0.30781 0.0
C136 C 0.38438 0.90151 0.36749 0.0
H137 H 0.44417 0.9208 0.30711 0.0
Co138 Co 0.38877 0.88749 0.20258 0.0
C139 C 0.33615 0.83703 0.26022 0.0
O140 O 0.34359 0.8421 0.33492 0.0
N141 N 0.37984 0.8742 0.09706 0.0
C142 C 0.3628 0.84627 0.98515 0.0
C143 C 0.36611 0.84712 0.06359 0.0
C144 C 0.38537 0.88945 0.0377 0.0
N145 N 0.37478 0.87292 0.96874 0.0
O146 O 0.36918 0.90728 0.18608 0.0
H147 H 0.35914 0.82909 0.09423 0.0
H148 H 0.3967 0.91225 0.04514 0.0
O149 O 0.35275 0.85366 0.21644 0.0
C150 C 0.38286 0.93414 0.19472 0.0
O151 O 0.40827 0.94808 0.23588 0.0
N152 N 0.40886 0.86865 0.21558 0.0
C153 C 0.43753 0.8396 0.22431 0.0
C154 C 0.41889 0.83721 0.27723 0.0
C155 C 0.40468 0.85189 0.27174 0.0
C156 C 0.42863 0.87283 0.16727 0.0
C157 C 0.44274 0.85792 0.1694 0.0
H158 H 0.3905 0.84987 0.31304 0.0
H159 H 0.43292 0.88719 0.12527 0.0
H160 H 0.36146 0.89232 0.36199 0.0
H161 H 0.44812 0.93367 0.45655 0.0
H162 H 0.35276 0.82743 0.94342 0.0
H163 H 0.41456 0.82333 0.32076 0.0
H164 H 0.45731 0.86044 0.12817 0.0
C165 C 0.5593 0.42281 1.00911 0.0
C166 C 0.5623 0.42756 0.93402 0.0
N167 N 0.57933 0.41873 0.90856 0.0
N168 N 0.57457 0.41126 0.03176 0.0
C169 C 0.58662 0.40911 0.96912 0.0
H170 H 0.5457 0.42644 0.04348 0.0
Co171 Co 0.5746 0.39748 0.12577 0.0
C172 C 0.63679 0.43904 0.1759 0.0
O173 O 0.63178 0.45555 0.22082 0.0
N174 N 0.57429 0.38345 0.22044 0.0
C175 C 0.56299 0.35452 0.30947 0.0
C176 C 0.5602 0.35612 0.23215 0.0
C177 C 0.58519 0.39801 0.29211 0.0
N178 N 0.57859 0.38091 0.34737 0.0
O179 O 0.57542 0.42942 0.17804 0.0
H180 H 0.54763 0.3383 0.18784 0.0
H181 H 0.59695 0.42075 0.30396 0.0
O182 O 0.61605 0.41657 0.13668 0.0
C183 C 0.55109 0.4235 0.19643 0.0
O184 O 0.52964 0.39721 0.18095 0.0
N185 N 0.57103 0.36519 0.0731 0.0
C186 C 0.55769 0.31417 0.99188 0.0
C187 C 0.58524 0.33267 0.03163 0.0
C188 C 0.59145 0.3581 0.07288 0.0
C189 C 0.54431 0.3476 0.03412 0.0
C190 C 0.53713 0.32191 0.99332 0.0
H191 H 0.61241 0.37169 0.10536 0.0
H192 H 0.52839 0.35353 0.03567 0.0
H193 H 0.59972 0.39979 0.96718 0.0
H194 H 0.5514 0.43537 0.89953 0.0
H195 H 0.55298 0.33538 0.3359 0.0
H196 H 0.60153 0.32717 0.03253 0.0
H197 H 0.51569 0.30823 0.96305 0.0
H198 H 0.09605 0.57503 0.20867 0.0
H199 H 0.93065 0.49274 0.03271 0.0
H200 H 0.06344 0.52973 0.97948 0.0
H201 H 0.959 0.49048 0.26519 0.0
H202 H 0.98077 0.52472 1.01432 0.0
H203 H 0.04696 0.5617 0.22958 0.0
C204 C 0.07868 0.56312 0.16201 0.0
C205 C 0.08355 0.55337 0.09232 0.0
C206 C 0.97587 0.51799 0.07013 0.0
C207 C 0.02797 0.5385 0.11532 0.0
C208 C 0.94736 0.50003 0.08086 0.0
C209 C 0.94089 0.48929 0.15074 0.0
C210 C 0.99785 0.52541 0.13008 0.0
C211 C 0.96327 0.49866 0.2108 0.0
C212 C 0.05079 0.55542 0.17409 0.0
C213 C 0.06039 0.53757 0.03401 0.0
N214 N 0.99087 0.51607 0.19901 0.0
N215 N 0.03355 0.53054 0.04683 0.0
H216 H 0.34722 0.9107 0.05725 0.0
H217 H 0.44245 0.05607 0.90049 0.0
H218 H 0.40441 0.99067 0.19794 0.0
H219 H 0.42217 0.97489 0.79009 0.0
H220 H 0.40841 0.03244 0.99023 0.0
H221 H 0.35447 0.93521 0.94417 0.0
C222 C 0.36036 0.93351 0.06508 0.0
C223 C 0.37639 0.94859 0.13656 0.0
C224 C 0.4107 0.0198 0.94459 0.0
C225 C 0.38397 0.97662 1.00805 0.0
C226 C 0.43006 0.03323 0.89307 0.0
C227 C 0.43566 0.01737 0.83883 0.0
C228 C 0.39662 0.99038 0.94104 0.0
C229 C 0.41889 0.98787 0.83202 0.0
C230 C 0.36451 0.94743 1.00032 0.0
C231 C 0.39242 0.97814 0.14342 0.0
N232 N 0.40045 0.97529 0.88352 0.0
N233 N 0.39634 0.99119 0.07958 0.0
H234 H 0.50004 0.41717 0.22427 0.0
H235 H 0.56271 0.58174 0.34184 0.0
H236 H 0.58962 0.48051 0.2348 0.0
H237 H 0.47309 0.52084 0.26837 0.0
H238 H 0.57298 0.54404 0.32384 0.0
H239 H 0.4902 0.45412 0.26157 0.0
C240 C 0.51774 0.43885 0.23503 0.0
C241 C 0.54572 0.44577 0.22576 0.0
C242 C 0.55106 0.53891 0.31211 0.0
C243 C 0.53447 0.48823 0.26862 0.0
C244 C 0.54511 0.56039 0.32265 0.0
C245 C 0.51697 0.55446 0.30618 0.0
C246 C 0.52869 0.51123 0.2855 0.0
C247 C 0.4951 0.52639 0.28146 0.0
C248 C 0.51203 0.45994 0.25611 0.0
C249 C 0.56773 0.47424 0.24084 0.0
N250 N 0.50144 0.50582 0.2717 0.0
N251 N 0.56161 0.49447 0.26131 0.0
H252 H 0.18627 0.6336 0.46229 0.0
H253 H 0.1254 0.51722 0.74602 0.0
H254 H 0.13986 0.54423 0.38423 0.0
H255 H 0.16574 0.60644 0.82017 0.0
H256 H 0.12599 0.5262 0.61232 0.0
H257 H 0.17476 0.6238 0.59182 0.0
C258 C 0.17349 0.61188 0.4724 0.0
C259 C 0.16434 0.5897 0.41251 0.0
C260 C 0.1344 0.5438 0.65773 0.0
C261 C 0.15103 0.57823 0.56119 0.0
C262 C 0.13412 0.53869 0.73415 0.0
C263 C 0.14586 0.56114 0.79455 0.0
C264 C 0.14675 0.57164 0.64126 0.0
C265 C 0.15642 0.58848 0.77566 0.0
C266 C 0.16681 0.60628 0.54638 0.0
C267 C 0.14734 0.56196 0.42862 0.0
N268 N 0.15696 0.59299 0.70078 0.0
N269 N 0.14155 0.557 0.50162 0.0
H270 H 0.49863 0.11627 0.16077 0.0
H271 H 0.50665 0.02043 0.46428 0.0
H272 H 0.50725 0.04483 0.09829 0.0
H273 H 0.49454 0.08996 0.52207 0.0
H274 H 0.50201 0.02576 0.32835 0.0
H275 H 0.49236 0.10391 0.29068 0.0
C276 C 0.49911 0.09789 0.17433 0.0
C277 C 0.50391 0.08182 0.11866 0.0
C278 C 0.50006 0.03967 0.37065 0.0
C279 C 0.49665 0.06741 0.26805 0.0
C280 C 0.50278 0.03669 0.4484 0.0
C281 C 0.50135 0.05501 0.50508 0.0
C282 C 0.49606 0.06129 0.34907 0.0
C283 C 0.49575 0.07532 0.48073 0.0
C284 C 0.49539 0.09075 0.24858 0.0
C285 C 0.50363 0.05784 0.13923 0.0
N286 N 0.49367 0.07812 0.40482 0.0
N287 N 0.50043 0.05156 0.21247 0.0
H288 H 0.45944 0.60647 0.97605 0.0
H289 H 0.50155 0.58793 0.56109 0.0
H290 H 0.53478 0.60285 0.94468 0.0
H291 H 0.44415 0.61723 0.60721 0.0
H292 H 0.51091 0.58793 0.69892 0.0
H293 H 0.44967 0.60395 0.83766 0.0
C294 C 0.47376 0.60481 0.93989 0.0
C295 C 0.49793 0.60478 0.97178 0.0
C296 C 0.49627 0.59434 0.67847 0.0
C297 C 0.48708 0.60228 0.8132 0.0
C298 C 0.49099 0.59448 0.59977 0.0
C299 C 0.47195 0.60256 0.57184 0.0
C300 C 0.48223 0.60207 0.72946 0.0
C301 C 0.45859 0.61038 0.62519 0.0
C302 C 0.46832 0.60364 0.86091 0.0
C303 C 0.51607 0.60315 0.92222 0.0
N304 N 0.46394 0.60986 0.7012 0.0
N305 N 0.51025 0.60191 0.84513 0.0
H306 H 0.83837 0.46129 0.79767 0.0
H307 H 0.90335 0.41114 0.47532 0.0
H308 H 0.89011 0.42542 0.84806 0.0
H309 H 0.86175 0.45763 0.43318 0.0
H310 H 0.90249 0.41966 0.61326 0.0
H311 H 0.85015 0.4636 0.66635 0.0
C312 C 0.85242 0.4541 0.78113 0.0
C313 C 0.86302 0.44286 0.8337 0.0
C314 C 0.8939 0.42835 0.57404 0.0
C315 C 0.87655 0.44527 0.68277 0.0
C316 C 0.89435 0.42345 0.4952 0.0
C317 C 0.88235 0.43344 0.44239 0.0
C318 C 0.88106 0.44311 0.60058 0.0
C319 C 0.87132 0.4496 0.47159 0.0
C320 C 0.85924 0.45551 0.70615 0.0
C321 C 0.88152 0.43426 0.8095 0.0
N322 N 0.87057 0.45357 0.54849 0.0
N323 N 0.88737 0.43528 0.7355 0.0
H324 H 0.4343 0.95018 0.56359 0.0
H325 H 0.3371 0.84297 0.84023 0.0
H326 H 0.35328 0.87379 0.48384 0.0
H327 H 0.41451 0.92252 0.92371 0.0
H328 H 0.34091 0.85581 0.71062 0.0
H329 H 0.42571 0.94251 0.69601 0.0
C330 C 0.4145 0.93198 0.57387 0.0
C331 C 0.39467 0.9124 0.51217 0.0
C332 C 0.35701 0.87057 0.75722 0.0
C333 C 0.38453 0.9036 0.66435 0.0
C334 C 0.35496 0.86315 0.83136 0.0
C335 C 0.3758 0.88145 0.89304 0.0
C336 C 0.38021 0.89646 0.74399 0.0
C337 C 0.39801 0.90768 0.87807 0.0
C338 C 0.40954 0.92768 0.64968 0.0
C339 C 0.36916 0.88947 0.52924 0.0
N340 N 0.39981 0.91425 0.80498 0.0
N341 N 0.365 0.88554 0.60361 0.0
H342 H 0.5836 0.3513 0.45634 0.0
H343 H 0.58292 0.45278 0.80264 0.0
H344 H 0.58529 0.42827 0.42733 0.0
H345 H 0.58773 0.37929 0.83442 0.0
H346 H 0.58674 0.44573 0.66632 0.0
H347 H 0.58795 0.36258 0.5955 0.0
C348 C 0.585 0.37064 0.47923 0.0
C349 C 0.58386 0.38874 0.42979 0.0
C350 C 0.58722 0.43126 0.70313 0.0
C351 C 0.5889 0.40187 0.58959 0.0
C352 C 0.58495 0.43524 0.781 0.0
C353 C 0.5848 0.4165 0.8301 0.0
C354 C 0.58914 0.4082 0.67356 0.0
C355 C 0.58793 0.39437 0.79899 0.0
C356 C 0.58761 0.37714 0.55881 0.0
C357 C 0.58626 0.41376 0.46298 0.0
N358 N 0.58968 0.39068 0.72265 0.0
N359 N 0.58839 0.41943 0.54062 0.0
H360 H 0.27328 0.559 0.2542 0.0
H361 H 0.39314 0.54763 0.04692 0.0
H362 H 0.27893 0.56294 1.01194 0.0
H363 H 0.39304 0.55678 0.29195 0.0
H364 H 0.34732 0.54605 0.02928 0.0
H365 H 0.3134 0.55154 0.26555 0.0
C366 C 0.28278 0.55805 0.20316 0.0
C367 C 0.27272 0.56174 0.13206 0.0
C368 C 0.35718 0.54806 0.08685 0.0
C369 C 0.31906 0.5534 0.14482 0.0
C370 C 0.38309 0.54866 0.09677 0.0
C371 C 0.39674 0.55243 0.17096 0.0
C372 C 0.34495 0.55109 0.15171 0.0
C373 C 0.38326 0.55417 0.23387 0.0
C374 C 0.30584 0.55392 0.20976 0.0
C375 C 0.28624 0.56065 0.06817 0.0
N376 N 0.35821 0.5536 0.22288 0.0
N377 N 0.30874 0.55664 0.07607 0.0
H378 H 0.66148 0.17057 0.79671 0.0
H379 H 0.74995 0.29138 0.15558 0.0
H380 H 0.6353 0.16562 0.02299 0.0
H381 H 0.7695 0.30088 0.92288 0.0
H382 H 0.71165 0.24265 0.11167 0.0
H383 H 0.70533 0.21539 0.84619 0.0
C384 C 0.66506 0.17873 0.85695 0.0
C385 C 0.64446 0.16438 0.9055 0.0
C386 C 0.72444 0.25535 0.07031 0.0
C387 C 0.69466 0.21572 0.96254 0.0
C388 C 0.7462 0.28326 0.09525 0.0
C389 C 0.76286 0.30042 0.04278 0.0
C390 C 0.71922 0.24443 0.99227 0.0
C391 C 0.7574 0.28845 0.96558 0.0
C392 C 0.69012 0.20432 0.88518 0.0
C393 C 0.65058 0.17576 0.98342 0.0
N394 N 0.73596 0.26129 0.94263 0.0
N395 N 0.67496 0.20087 1.00929 0.0
H396 H 0.51908 0.74287 0.30569 0.0
H397 H 0.42992 0.80124 0.10616 0.0
H398 H 0.43366 0.68777 0.18377 0.0
H399 H 0.47092 0.83544 0.3395 0.0
H400 H 0.44342 0.76556 0.10978 0.0
H401 H 0.51235 0.78289 0.29796 0.0
C402 C 0.49897 0.739 0.2774 0.0
C403 C 0.47701 0.71162 0.24485 0.0
C404 C 0.44983 0.78121 0.15963 0.0
C405 C 0.46996 0.75755 0.23329 0.0
C406 C 0.44234 0.80157 0.15745 0.0
C407 C 0.44935 0.82109 0.22268 0.0
C408 C 0.46489 0.78083 0.22694 0.0
C409 C 0.46513 0.82057 0.28826 0.0
C410 C 0.49534 0.76193 0.27259 0.0
C411 C 0.45166 0.70833 0.20771 0.0
N412 N 0.47245 0.80066 0.28885 0.0
N413 N 0.44897 0.73101 0.20239 0.0
H414 H 0.7958 0.45457 0.33533 0.0
H415 H 0.65803 0.42005 0.06606 0.0
H416 H 0.79213 0.44466 0.08861 0.0
H417 H 0.68261 0.47065 0.2879 0.0
H418 H 0.70579 0.42629 0.07385 0.0
H419 H 0.75358 0.45884 0.32107 0.0
C420 C 0.78631 0.45352 0.27807 0.0
C421 C 0.79727 0.44861 0.21292 0.0
C422 C 0.70082 0.43631 0.12031 0.0
C423 C 0.74856 0.453 0.19637 0.0
C424 C 0.67356 0.43266 0.1161 0.0
C425 C 0.66632 0.44478 0.17656 0.0
C426 C 0.72075 0.45163 0.18622 0.0
C427 C 0.6873 0.461 0.23991 0.0
C428 C 0.76221 0.456 0.27008 0.0
C429 C 0.78418 0.44779 0.14035 0.0
N430 N 0.71342 0.46358 0.24365 0.0
N431 N 0.76018 0.44939 0.13392 0.0
H432 H 0.23301 0.67881 0.95937 0.0
H433 H 0.30957 0.82071 0.11124 0.0
H434 H 0.20653 0.66294 0.18399 0.0
H435 H 0.30586 0.78976 0.32965 0.0
H436 H 0.27349 0.77304 0.05122 0.0
H437 H 0.26229 0.72898 1.00667 0.0
C438 C 0.23301 0.68589 1.01844 0.0
C439 C 0.21746 0.66647 0.0679 0.0
C440 C 0.28074 0.77652 0.11206 0.0
C441 C 0.2507 0.72432 0.12256 0.0
C442 C 0.30127 0.80386 0.14654 0.0
C443 C 0.31139 0.80917 0.22525 0.0
C444 C 0.27025 0.75425 0.15665 0.0
C445 C 0.29901 0.78666 0.2686 0.0
C446 C 0.24962 0.71472 0.04539 0.0
C447 C 0.21843 0.67701 0.14395 0.0
N448 N 0.27928 0.76018 0.23362 0.0
N449 N 0.23502 0.70514 0.16911 0.0
H450 H 0.54608 0.1784 0.68395 0.0
H451 H 0.51104 0.2627 1.00167 0.0
H452 H 0.49387 0.13902 0.86029 0.0
H453 H 0.58676 0.30287 0.88903 0.0
H454 H 0.49845 0.21696 0.93373 0.0
H455 H 0.55469 0.22408 0.74119 0.0
C456 C 0.53603 0.17929 0.73388 0.0
C457 C 0.51933 0.15496 0.76772 0.0
C458 C 0.51778 0.23579 0.92379 0.0
C459 C 0.52916 0.20697 0.8333 0.0
C460 C 0.52491 0.26185 0.96224 0.0
C461 C 0.55 0.2865 0.95091 0.0
C462 C 0.53565 0.23442 0.87283 0.0
C463 C 0.56737 0.28427 0.89974 0.0
C464 C 0.54117 0.20536 0.76685 0.0
C465 C 0.50703 0.15734 0.83279 0.0
N466 N 0.55981 0.25865 0.86223 0.0
N467 N 0.51222 0.18291 0.86355 0.0
loop_
_geom_bond_atom_site_label_1
_geom_bond_atom_site_label_2
_geom_bond_distance
_geom_bond_site_symmetry_2
_ccdc_geom_bond_type
C0 C1 1.351 . S
C0 N3 1.368 . S
C0 H5 0.931 . S
C1 C0 1.351 . S
C1 N2 1.373 . S
C1 H29 0.930 . S
N2 C1 1.373 . S
N2 C4 1.340 . S
N3 C0 1.368 . S
N3 C4 1.321 . S
N3 Co6 2.135 1_556 S
C4 N2 1.340 . S
C4 N3 1.321 . S
C4 H28 0.930 . S
H5 C0 0.931 . S
Co6 N3 2.135 1_554 S
Co6 N9 2.121 . S
Co6 O14 2.055 . S
Co6 O17 2.039 . S
Co6 N20 2.140 . S
C7 O8 1.227 . S
C7 O17 1.265 . S
O8 C7 1.227 . S
N9 Co6 2.121 . S
N9 C11 1.375 . S
N9 C12 1.313 . S
C10 C11 1.338 . S
C10 N13 1.377 . S
C10 H30 0.930 . S
C11 N9 1.375 . S
C11 C10 1.338 . S
C11 H15 0.931 . S
C12 N9 1.313 . S
C12 N13 1.344 . S
C12 H16 0.930 . S
N13 C10 1.377 . S
N13 C12 1.344 . S
O14 Co6 2.055 . S
O14 C18 1.253 . S
H15 C11 0.931 . S
H16 C12 0.930 . S
O17 Co6 2.039 . S
O17 C7 1.265 . S
C18 O14 1.253 . S
C18 O19 1.227 . S
O19 C18 1.227 . S
N20 Co6 2.140 . S
N20 C23 1.346 1_554 S
N20 C24 1.345 . S
C21 C22 1.387 1_554 S
C21 C25 1.391 . S
C22 C21 1.387 1_556 S
C22 C23 1.369 . S
C22 H31 0.929 . S
C23 N20 1.346 1_556 S
C23 C22 1.369 . S
C23 H26 0.928 . S
C24 N20 1.345 . S
C24 C25 1.371 . S
C24 H27 0.931 . S
C25 C21 1.391 . S
C25 C24 1.371 . S
C25 H32 0.930 . S
H26 C23 0.928 . S
H27 C24 0.931 . S
H28 C4 0.930 . S
H29 C1 0.930 . S
H30 C10 0.930 . S
H31 C22 0.929 . S
H32 C25 0.930 . S
C33 C34 1.351 . S
C33 N36 1.368 . S
C33 H38 0.931 . S
C34 C33 1.351 . S
C34 N35 1.373 . S
C34 H62 0.930 . S
N35 C34 1.373 . S
N35 C37 1.340 . S
N36 C33 1.368 . S
N36 C37 1.321 . S
N36 Co39 2.135 1_556 S
C37 N35 1.340 . S
C37 N36 1.321 . S
C37 H61 0.930 . S
H38 C33 0.931 . S
Co39 N36 2.135 1_554 S
Co39 N42 2.121 . S
Co39 O47 2.055 . S
Co39 O50 2.039 . S
Co39 N53 2.140 . S
C40 O41 1.227 . S
C40 O50 1.265 . S
O41 C40 1.227 . S
N42 Co39 2.121 . S
N42 C44 1.375 . S
N42 C45 1.313 . S
C43 C44 1.338 . S
C43 N46 1.377 . S
C43 H63 0.930 . S
C44 N42 1.375 . S
C44 C43 1.338 . S
C44 H48 0.931 . S
C45 N42 1.313 . S
C45 N46 1.344 . S
C45 H49 0.930 . S
N46 C43 1.377 . S
N46 C45 1.344 . S
O47 Co39 2.055 . S
O47 C51 1.253 . S
H48 C44 0.931 . S
H49 C45 0.930 . S
O50 Co39 2.039 . S
O50 C40 1.265 . S
C51 O47 1.253 . S
C51 O52 1.227 . S
O52 C51 1.227 . S
N53 Co39 2.140 . S
N53 C56 1.346 . S
N53 C57 1.345 . S
C54 C55 1.387 . S
C54 C58 1.391 . S
C55 C54 1.387 . S
C55 C56 1.369 . S
C55 H64 0.929 1_554 S
C56 N53 1.346 . S
C56 C55 1.369 . S
C56 H59 0.928 1_554 S
C57 N53 1.345 . S
C57 C58 1.371 . S
C57 H60 0.931 . S
C58 C54 1.391 . S
C58 C57 1.371 . S
C58 H65 0.930 . S
H59 C56 0.928 1_556 S
H60 C57 0.931 . S
H61 C37 0.930 . S
H62 C34 0.930 . S
H63 C43 0.930 . S
H64 C55 0.929 1_556 S
H65 C58 0.930 . S
C66 C67 1.351 . S
C66 N69 1.368 . S
C66 H71 0.931 . S
C67 C66 1.351 . S
C67 N68 1.373 . S
C67 H95 0.930 . S
N68 C67 1.373 . S
N68 C70 1.340 . S
N69 C66 1.368 . S
N69 C70 1.321 . S
N69 Co72 2.135 1_556 S
C70 N68 1.340 . S
C70 N69 1.321 . S
C70 H94 0.930 . S
H71 C66 0.931 . S
Co72 N69 2.135 1_554 S
Co72 N75 2.121 . S
Co72 O80 2.055 . S
Co72 O83 2.039 . S
Co72 N86 2.140 . S
C73 O74 1.227 . S
C73 O83 1.265 . S
O74 C73 1.227 . S
N75 Co72 2.121 . S
N75 C77 1.375 . S
N75 C78 1.313 . S
C76 C77 1.338 . S
C76 N79 1.377 . S
C76 H96 0.930 . S
C77 N75 1.375 . S
C77 C76 1.338 . S
C77 H81 0.931 . S
C78 N75 1.313 . S
C78 N79 1.344 . S
C78 H82 0.930 . S
N79 C76 1.377 . S
N79 C78 1.344 . S
O80 Co72 2.055 . S
O80 C84 1.253 . S
H81 C77 0.931 . S
H82 C78 0.930 . S
O83 Co72 2.039 . S
O83 C73 1.265 . S
C84 O80 1.253 . S
C84 O85 1.227 . S
O85 C84 1.227 . S
N86 Co72 2.140 . S
N86 C89 1.346 . S
N86 C90 1.345 . S
C87 C88 1.387 . S
C87 C91 1.391 . S
C88 C87 1.387 . S
C88 C89 1.369 . S
C88 H97 0.929 . S
C89 N86 1.346 . S
C89 C88 1.369 . S
C89 H92 0.928 . S
C90 N86 1.345 . S
C90 C91 1.371 . S
C90 H93 0.931 . S
C91 C87 1.391 . S
C91 C90 1.371 . S
C91 H98 0.930 . S
H92 C89 0.928 . S
H93 C90 0.931 . S
H94 C70 0.930 . S
H95 C67 0.930 . S
H96 C76 0.930 . S
H97 C88 0.929 . S
H98 C91 0.930 . S
C99 C100 1.351 . S
C99 N102 1.368 . S
C99 H104 0.931 . S
C100 C99 1.351 . S
C100 N101 1.373 . S
C100 H128 0.930 . S
N101 C100 1.373 . S
N101 C103 1.340 . S
N102 C99 1.368 . S
N102 C103 1.321 . S
N102 Co105 2.135 . S
C103 N101 1.340 . S
C103 N102 1.321 . S
C103 H127 0.930 . S
H104 C99 0.931 . S
Co105 N102 2.135 . S
Co105 N108 2.121 1_554 S
Co105 O113 2.055 . S
Co105 O116 2.039 . S
Co105 N119 2.140 . S
C106 O107 1.227 . S
C106 O116 1.265 . S
O107 C106 1.227 . S
N108 Co105 2.121 1_556 S
N108 C110 1.375 . S
N108 C111 1.313 . S
C109 C110 1.338 . S
C109 N112 1.377 . S
C109 H129 0.930 . S
C110 N108 1.375 . S
C110 C109 1.338 . S
C110 H114 0.931 . S
C111 N108 1.313 . S
C111 N112 1.344 . S
C111 H115 0.930 . S
N112 C109 1.377 . S
N112 C111 1.344 . S
O113 Co105 2.055 . S
O113 C117 1.253 . S
H114 C110 0.931 . S
H115 C111 0.930 . S
O116 Co105 2.039 . S
O116 C106 1.265 . S
C117 O113 1.253 . S
C117 O118 1.227 . S
O118 C117 1.227 . S
N119 Co105 2.140 . S
N119 C122 1.346 . S
N119 C123 1.345 . S
C120 C121 1.387 . S
C120 C124 1.391 . S
C121 C120 1.387 . S
C121 C122 1.369 . S
C121 H130 0.929 . S
C122 N119 1.346 . S
C122 C121 1.369 . S
C122 H125 0.928 . S
C123 N119 1.345 . S
C123 C124 1.371 . S
C123 H126 0.931 . S
C124 C120 1.391 . S
C124 C123 1.371 . S
C124 H131 0.930 1_554 S
H125 C122 0.928 . S
H126 C123 0.931 . S
H127 C103 0.930 . S
H128 C100 0.930 . S
H129 C109 0.930 . S
H130 C121 0.929 . S
H131 C124 0.930 1_556 S
C132 C133 1.351 . S
C132 N135 1.368 . S
C132 H137 0.931 . S
C133 C132 1.351 . S
C133 N134 1.373 . S
C133 H161 0.930 . S
N134 C133 1.373 . S
N134 C136 1.340 . S
N135 C132 1.368 . S
N135 C136 1.321 . S
N135 Co138 2.135 . S
C136 N134 1.340 . S
C136 N135 1.321 . S
C136 H160 0.930 . S
H137 C132 0.931 . S
Co138 N135 2.135 . S
Co138 N141 2.121 1_554 S
Co138 O146 2.055 . S
Co138 O149 2.039 . S
Co138 N152 2.140 . S
C139 O140 1.227 . S
C139 O149 1.265 . S
O140 C139 1.227 . S
N141 Co138 2.121 1_556 S
N141 C143 1.375 . S
N141 C144 1.313 . S
C142 C143 1.338 . S
C142 N145 1.377 . S
C142 H162 0.930 . S
C143 N141 1.375 . S
C143 C142 1.338 . S
C143 H147 0.931 . S
C144 N141 1.313 . S
C144 N145 1.344 . S
C144 H148 0.930 . S
N145 C142 1.377 . S
N145 C144 1.344 . S
O146 Co138 2.055 . S
O146 C150 1.253 . S
H147 C143 0.931 . S
H148 C144 0.930 . S
O149 Co138 2.039 . S
O149 C139 1.265 . S
C150 O146 1.253 . S
C150 O151 1.227 . S
O151 C150 1.227 . S
N152 Co138 2.140 . S
N152 C155 1.346 . S
N152 C156 1.345 . S
C153 C154 1.387 . S
C153 C157 1.391 . S
C154 C153 1.387 . S
C154 C155 1.369 . S
C154 H163 0.929 . S
C155 N152 1.346 . S
C155 C154 1.369 . S
C155 H158 0.928 . S
C156 N152 1.345 . S
C156 C157 1.371 . S
C156 H159 0.931 . S
C157 C153 1.391 . S
C157 C156 1.371 . S
C157 H164 0.930 . S
H158 C155 0.928 . S
H159 C156 0.931 . S
H160 C136 0.930 . S
H161 C133 0.930 . S
H162 C142 0.930 . S
H163 C154 0.929 . S
H164 C157 0.930 . S
C165 C166 1.351 . S
C165 N168 1.368 1_556 S
C165 H170 0.931 . S
C166 C165 1.351 . S
C166 N167 1.373 . S
C166 H194 0.930 . S
N167 C166 1.373 . S
N167 C169 1.340 . S
N168 C165 1.368 1_554 S
N168 C169 1.321 1_554 S
N168 Co171 2.135 . S
C169 N167 1.340 . S
C169 N168 1.321 1_556 S
C169 H193 0.930 . S
H170 C165 0.931 . S
Co171 N168 2.135 . S
Co171 N174 2.121 . S
Co171 O179 2.055 . S
Co171 O182 2.039 . S
Co171 N185 2.140 . S
C172 O173 1.227 . S
C172 O182 1.265 . S
O173 C172 1.227 . S
N174 Co171 2.121 . S
N174 C176 1.375 . S
N174 C177 1.313 . S
C175 C176 1.338 . S
C175 N178 1.377 . S
C175 H195 0.930 . S
C176 N174 1.375 . S
C176 C175 1.338 . S
C176 H180 0.931 . S
C177 N174 1.313 . S
C177 N178 1.344 . S
C177 H181 0.930 . S
N178 C175 1.377 . S
N178 C177 1.344 . S
O179 Co171 2.055 . S
O179 C183 1.253 . S
H180 C176 0.931 . S
H181 C177 0.930 . S
O182 Co171 2.039 . S
O182 C172 1.265 . S
C183 O179 1.253 . S
C183 O184 1.227 . S
O184 C183 1.227 . S
N185 Co171 2.140 . S
N185 C188 1.346 . S
N185 C189 1.345 . S
C186 C187 1.387 . S
C186 C190 1.391 . S
C187 C186 1.387 . S
C187 C188 1.369 . S
C187 H196 0.929 . S
C188 N185 1.346 . S
C188 C187 1.369 . S
C188 H191 0.928 . S
C189 N185 1.345 . S
C189 C190 1.371 . S
C189 H192 0.931 . S
C190 C186 1.391 . S
C190 C189 1.371 . S
C190 H197 0.930 . S
H191 C188 0.928 . S
H192 C189 0.931 . S
H193 C169 0.930 . S
H194 C166 0.930 . S
H195 C175 0.930 . S
H196 C187 0.929 . S
H197 C190 0.930 . S
H198 C204 0.930 . S
H199 C208 0.930 1_556 S
H200 C213 0.929 . S
H201 C211 0.929 . S
H202 C206 0.929 1_556 S
H203 C212 0.929 . S
C204 H198 0.930 . S
C204 C205 1.367 . S
C204 C212 1.378 . S
C205 C204 1.367 . S
C205 C213 1.433 1_554 S
C206 H202 0.929 1_554 S
C206 C208 1.378 . S
C206 C210 1.350 . S
C207 C210 1.463 1_455 S
C207 C212 1.350 . S
C207 N215 1.414 1_554 S
C208 H199 0.930 1_554 S
C208 C206 1.378 . S
C208 C209 1.367 . S
C209 C208 1.367 . S
C209 C211 1.433 . S
C210 C206 1.350 . S
C210 C207 1.463 1_655 S
C210 N214 1.427 . S
C211 H201 0.929 . S
C211 C209 1.433 . S
C211 N214 1.384 . S
C212 H203 0.929 . S
C212 C204 1.378 . S
C212 C207 1.350 . S
C213 H200 0.929 . S
C213 C205 1.433 1_556 S
C213 N215 1.387 . S
N214 C210 1.427 . S
N214 C211 1.384 . S
N215 C207 1.414 1_556 S
N215 C213 1.387 . S
H216 C222 0.930 . S
H217 C226 0.930 . S
H218 C231 0.929 . S
H219 C229 0.929 . S
H220 C224 0.929 . S
H221 C230 0.929 1_556 S
C222 H216 0.930 . S
C222 C223 1.367 . S
C222 C230 1.378 . S
C223 C222 1.367 . S
C223 C231 1.433 . S
C224 H220 0.929 . S
C224 C226 1.378 . S
C224 C228 1.350 . S
C225 C228 1.463 1_565 S
C225 C230 1.350 . S
C225 N233 1.427 . S
C226 H217 0.930 . S
C226 C224 1.378 . S
C226 C227 1.367 . S
C227 C226 1.367 . S
C227 C229 1.433 1_554 S
C228 C224 1.350 . S
C228 C225 1.463 1_545 S
C228 N232 1.427 . S
C229 H219 0.929 . S
C229 C227 1.433 1_556 S
C229 N232 1.384 1_556 S
C230 H221 0.929 1_554 S
C230 C222 1.378 . S
C230 C225 1.350 . S
C231 H218 0.929 . S
C231 C223 1.433 . S
C231 N233 1.384 . S
N232 C228 1.427 . S
N232 C229 1.384 1_554 S
N233 C225 1.427 . S
N233 C231 1.384 . S
H234 C240 0.930 . S
H235 C244 0.930 . S
H236 C249 0.929 . S
H237 C247 0.929 . S
H238 C242 0.929 . S
H239 C248 0.929 . S
C240 H234 0.930 . S
C240 C241 1.367 . S
C240 C248 1.378 . S
C241 C240 1.367 . S
C241 C249 1.433 . S
C242 H238 0.929 . S
C242 C244 1.378 . S
C242 C246 1.350 . S
C243 C246 1.463 . S
C243 C248 1.350 . S
C243 N251 1.427 . S
C244 H235 0.930 . S
C244 C242 1.378 . S
C244 C245 1.367 . S
C245 C244 1.367 . S
C245 C247 1.433 . S
C246 C242 1.350 . S
C246 C243 1.463 . S
C246 N250 1.427 . S
C247 H237 0.929 . S
C247 C245 1.433 . S
C247 N250 1.384 . S
C248 H239 0.929 . S
C248 C240 1.378 . S
C248 C243 1.350 . S
C249 H236 0.929 . S
C249 C241 1.433 . S
C249 N251 1.384 . S
N250 C246 1.427 . S
N250 C247 1.384 . S
N251 C243 1.427 . S
N251 C249 1.384 . S
H252 C258 0.930 . S
H253 C262 0.930 . S
H254 C267 0.929 . S
H255 C265 0.929 . S
H256 C260 0.929 . S
H257 C266 0.929 . S
C258 H252 0.930 . S
C258 C259 1.367 . S
C258 C266 1.378 . S
C259 C258 1.367 . S
C259 C267 1.433 . S
C260 H256 0.929 . S
C260 C262 1.378 . S
C260 C264 1.350 . S
C261 C264 1.463 . S
C261 C266 1.350 . S
C261 N269 1.427 . S
C262 H253 0.930 . S
C262 C260 1.378 . S
C262 C263 1.367 . S
C263 C262 1.367 . S
C263 C265 1.433 . S
C264 C260 1.350 . S
C264 C261 1.463 . S
C264 N268 1.427 . S
C265 H255 0.929 . S
C265 C263 1.433 . S
C265 N268 1.384 . S
C266 H257 0.929 . S
C266 C258 1.378 . S
C266 C261 1.350 . S
C267 H254 0.929 . S
C267 C259 1.433 . S
C267 N269 1.384 . S
N268 C264 1.427 . S
N268 C265 1.384 . S
N269 C261 1.427 . S
N269 C267 1.384 . S
H270 C276 0.930 . S
H271 C280 0.930 . S
H272 C285 0.929 . S
H273 C283 0.929 . S
H274 C278 0.929 . S
H275 C284 0.929 . S
C276 H270 0.930 . S
C276 C277 1.367 . S
C276 C284 1.378 . S
C277 C276 1.367 . S
C277 C285 1.433 . S
C278 H274 0.929 . S
C278 C280 1.378 . S
C278 C282 1.350 . S
C279 C282 1.463 . S
C279 C284 1.350 . S
C279 N287 1.427 . S
C280 H271 0.930 . S
C280 C278 1.378 . S
C280 C281 1.367 . S
C281 C280 1.367 . S
C281 C283 1.433 . S
C282 C278 1.350 . S
C282 C279 1.463 . S
C282 N286 1.427 . S
C283 H273 0.929 . S
C283 C281 1.433 . S
C283 N286 1.384 . S
C284 H275 0.929 . S
C284 C276 1.378 . S
C284 C279 1.350 . S
C285 H272 0.929 . S
C285 C277 1.433 . S
C285 N287 1.384 . S
N286 C282 1.427 . S
N286 C283 1.384 . S
N287 C279 1.427 . S
N287 C285 1.384 . S
H288 C294 0.930 . S
H289 C298 0.930 . S
H290 C303 0.929 . S
H291 C301 0.929 . S
H292 C296 0.929 . S
H293 C302 0.929 . S
C294 H288 0.930 . S
C294 C295 1.367 . S
C294 C302 1.378 . S
C295 C294 1.367 . S
C295 C303 1.433 . S
C296 H292 0.929 . S
C296 C298 1.378 . S
C296 C300 1.350 . S
C297 C300 1.463 . S
C297 C302 1.350 . S
C297 N305 1.427 . S
C298 H289 0.930 . S
C298 C296 1.378 . S
C298 C299 1.367 . S
C299 C298 1.367 . S
C299 C301 1.433 . S
C300 C296 1.350 . S
C300 C297 1.463 . S
C300 N304 1.427 . S
C301 H291 0.929 . S
C301 C299 1.433 . S
C301 N304 1.384 . S
C302 H293 0.929 . S
C302 C294 1.378 . S
C302 C297 1.350 . S
C303 H290 0.929 . S
C303 C295 1.433 . S
C303 N305 1.384 . S
N304 C300 1.427 . S
N304 C301 1.384 . S
N305 C297 1.427 . S
N305 C303 1.384 . S
H306 C312 0.930 . S
H307 C316 0.930 . S
H308 C321 0.929 . S
H309 C319 0.929 . S
H310 C314 0.929 . S
H311 C320 0.929 . S
C312 H306 0.930 . S
C312 C313 1.367 . S
C312 C320 1.378 . S
C313 C312 1.367 . S
C313 C321 1.433 . S
C314 H310 0.929 . S
C314 C316 1.378 . S
C314 C318 1.350 . S
C315 C318 1.463 . S
C315 C320 1.350 . S
C315 N323 1.427 . S
C316 H307 0.930 . S
C316 C314 1.378 . S
C316 C317 1.367 . S
C317 C316 1.367 . S
C317 C319 1.433 . S
C318 C314 1.350 . S
C318 C315 1.463 . S
C318 N322 1.427 . S
C319 H309 0.929 . S
C319 C317 1.433 . S
C319 N322 1.384 . S
C320 H311 0.929 . S
C320 C312 1.378 . S
C320 C315 1.350 . S
C321 H308 0.929 . S
C321 C313 1.433 . S
C321 N323 1.384 . S
N322 C318 1.427 . S
N322 C319 1.384 . S
N323 C315 1.427 . S
N323 C321 1.384 . S
H324 C330 0.930 . S
H325 C334 0.930 . S
H326 C339 0.929 . S
H327 C337 0.929 . S
H328 C332 0.929 . S
H329 C338 0.929 . S
C330 H324 0.930 . S
C330 C331 1.367 . S
C330 C338 1.378 . S
C331 C330 1.367 . S
C331 C339 1.433 . S
C332 H328 0.929 . S
C332 C334 1.378 . S
C332 C336 1.350 . S
C333 C336 1.463 . S
C333 C338 1.350 . S
C333 N341 1.427 . S
C334 H325 0.930 . S
C334 C332 1.378 . S
C334 C335 1.367 . S
C335 C334 1.367 . S
C335 C337 1.433 . S
C336 C332 1.350 . S
C336 C333 1.463 . S
C336 N340 1.427 . S
C337 H327 0.929 . S
C337 C335 1.433 . S
C337 N340 1.384 . S
C338 H329 0.929 . S
C338 C330 1.378 . S
C338 C333 1.350 . S
C339 H326 0.929 . S
C339 C331 1.433 . S
C339 N341 1.384 . S
N340 C336 1.427 . S
N340 C337 1.384 . S
N341 C333 1.427 . S
N341 C339 1.384 . S
H342 C348 0.930 . S
H343 C352 0.930 . S
H344 C357 0.929 . S
H345 C355 0.929 . S
H346 C350 0.929 . S
H347 C356 0.929 . S
C348 H342 0.930 . S
C348 C349 1.367 . S
C348 C356 1.378 . S
C349 C348 1.367 . S
C349 C357 1.433 . S
C350 H346 0.929 . S
C350 C352 1.378 . S
C350 C354 1.350 . S
C351 C354 1.463 . S
C351 C356 1.350 . S
C351 N359 1.427 . S
C352 H343 0.930 . S
C352 C350 1.378 . S
C352 C353 1.367 . S
C353 C352 1.367 . S
C353 C355 1.433 . S
C354 C350 1.350 . S
C354 C351 1.463 . S
C354 N358 1.427 . S
C355 H345 0.929 . S
C355 C353 1.433 . S
C355 N358 1.384 . S
C356 H347 0.929 . S
C356 C348 1.378 . S
C356 C351 1.350 . S
C357 H344 0.929 . S
C357 C349 1.433 . S
C357 N359 1.384 . S
N358 C354 1.427 . S
N358 C355 1.384 . S
N359 C351 1.427 . S
N359 C357 1.384 . S
H360 C366 0.930 . S
H361 C370 0.930 . S
H362 C375 0.929 1_556 S
H363 C373 0.929 . S
H364 C368 0.929 1_556 S
H365 C374 0.929 . S
C366 H360 0.930 . S
C366 C367 1.367 . S
C366 C374 1.378 . S
C367 C366 1.367 . S
C367 C375 1.433 . S
C368 H364 0.929 1_554 S
C368 C370 1.378 . S
C368 C372 1.350 . S
C369 C372 1.463 . S
C369 C374 1.350 . S
C369 N377 1.427 . S
C370 H361 0.930 . S
C370 C368 1.378 . S
C370 C371 1.367 . S
C371 C370 1.367 . S
C371 C373 1.433 . S
C372 C368 1.350 . S
C372 C369 1.463 . S
C372 N376 1.427 . S
C373 H363 0.929 . S
C373 C371 1.433 . S
C373 N376 1.384 . S
C374 H365 0.929 . S
C374 C366 1.378 . S
C374 C369 1.350 . S
C375 H362 0.929 1_554 S
C375 C367 1.433 . S
C375 N377 1.384 . S
N376 C372 1.427 . S
N376 C373 1.384 . S
N377 C369 1.427 . S
N377 C375 1.384 . S
H378 C384 0.930 1_556 S
H379 C388 0.930 . S
H380 C393 0.929 . S
H381 C391 0.929 1_556 S
H382 C386 0.929 . S
H383 C392 0.929 1_556 S
C384 H378 0.930 1_554 S
C384 C385 1.367 . S
C384 C392 1.378 . S
C385 C384 1.367 . S
C385 C393 1.433 . S
C386 H382 0.929 . S
C386 C388 1.378 . S
C386 C390 1.350 . S
C387 C390 1.463 . S
C387 C392 1.350 . S
C387 N395 1.427 . S
C388 H379 0.930 . S
C388 C386 1.378 . S
C388 C389 1.367 . S
C389 C388 1.367 . S
C389 C391 1.433 . S
C390 C386 1.350 . S
C390 C387 1.463 . S
C390 N394 1.427 . S
C391 H381 0.929 1_554 S
C391 C389 1.433 . S
C391 N394 1.384 . S
C392 H383 0.929 1_554 S
C392 C384 1.378 . S
C392 C387 1.350 . S
C393 H380 0.929 . S
C393 C385 1.433 . S
C393 N395 1.384 . S
N394 C390 1.427 . S
N394 C391 1.384 . S
N395 C387 1.427 . S
N395 C393 1.384 . S
H396 C402 0.930 . S
H397 C406 0.930 . S
H398 C411 0.929 . S
H399 C409 0.929 . S
H400 C404 0.929 . S
H401 C410 0.929 . S
C402 H396 0.930 . S
C402 C403 1.367 . S
C402 C410 1.378 . S
C403 C402 1.367 . S
C403 C411 1.433 . S
C404 H400 0.929 . S
C404 C406 1.378 . S
C404 C408 1.350 . S
C405 C408 1.463 . S
C405 C410 1.350 . S
C405 N413 1.427 . S
C406 H397 0.930 . S
C406 C404 1.378 . S
C406 C407 1.367 . S
C407 C406 1.367 . S
C407 C409 1.433 . S
C408 C404 1.350 . S
C408 C405 1.463 . S
C408 N412 1.427 . S
C409 H399 0.929 . S
C409 C407 1.433 . S
C409 N412 1.384 . S
C410 H401 0.929 . S
C410 C402 1.378 . S
C410 C405 1.350 . S
C411 H398 0.929 . S
C411 C403 1.433 . S
C411 N413 1.384 . S
N412 C408 1.427 . S
N412 C409 1.384 . S
N413 C405 1.427 . S
N413 C411 1.384 . S
H414 C420 0.930 . S
H415 C424 0.930 . S
H416 C429 0.929 . S
H417 C427 0.929 . S
H418 C422 0.929 . S
H419 C428 0.929 . S
C420 H414 0.930 . S
C420 C421 1.367 . S
C420 C428 1.378 . S
C421 C420 1.367 . S
C421 C429 1.433 . S
C422 H418 0.929 . S
C422 C424 1.378 . S
C422 C426 1.350 . S
C423 C426 1.463 . S
C423 C428 1.350 . S
C423 N431 1.427 . S
C424 H415 0.930 . S
C424 C422 1.378 . S
C424 C425 1.367 . S
C425 C424 1.367 . S
C425 C427 1.433 . S
C426 C422 1.350 . S
C426 C423 1.463 . S
C426 N430 1.427 . S
C427 H417 0.929 . S
C427 C425 1.433 . S
C427 N430 1.384 . S
C428 H419 0.929 . S
C428 C420 1.378 . S
C428 C423 1.350 . S
C429 H416 0.929 . S
C429 C421 1.433 . S
C429 N431 1.384 . S
N430 C426 1.427 . S
N430 C427 1.384 . S
N431 C423 1.427 . S
N431 C429 1.384 . S
H432 C438 0.930 . S
H433 C442 0.930 . S
H434 C447 0.929 . S
H435 C445 0.929 . S
H436 C440 0.929 . S
H437 C446 0.929 . S
C438 H432 0.930 . S
C438 C439 1.367 . S
C438 C446 1.378 . S
C439 C438 1.367 . S
C439 C447 1.433 . S
C440 H436 0.929 . S
C440 C442 1.378 . S
C440 C444 1.350 . S
C441 C444 1.463 . S
C441 C446 1.350 . S
C441 N449 1.427 . S
C442 H433 0.930 . S
C442 C440 1.378 . S
C442 C443 1.367 . S
C443 C442 1.367 . S
C443 C445 1.433 . S
C444 C440 1.350 . S
C444 C441 1.463 . S
C444 N448 1.427 . S
C445 H435 0.929 . S
C445 C443 1.433 . S
C445 N448 1.384 . S
C446 H437 0.929 . S
C446 C438 1.378 . S
C446 C441 1.350 . S
C447 H434 0.929 . S
C447 C439 1.433 . S
C447 N449 1.384 . S
N448 C444 1.427 . S
N448 C445 1.384 . S
N449 C441 1.427 . S
N449 C447 1.384 . S
H450 C456 0.930 . S
H451 C460 0.930 . S
H452 C465 0.929 . S
H453 C463 0.929 1_556 S
H454 C458 0.929 . S
H455 C464 0.929 . S
C456 H450 0.930 . S
C456 C457 1.367 1_556 S
C456 C464 1.378 . S
C457 C456 1.367 1_554 S
C457 C465 1.433 . S
C458 H454 0.929 . S
C458 C460 1.378 . S
C458 C462 1.350 . S
C459 C462 1.463 . S
C459 C464 1.350 1_554 S
C459 N467 1.427 . S
C460 H451 0.930 . S
C460 C458 1.378 . S
C460 C461 1.367 . S
C461 C460 1.367 . S
C461 C463 1.433 . S
C462 C458 1.350 . S
C462 C459 1.463 . S
C462 N466 1.427 . S
C463 H453 0.929 1_554 S
C463 C461 1.433 . S
C463 N466 1.384 . S
C464 H455 0.929 . S
C464 C456 1.378 . S
C464 C459 1.350 1_556 S
C465 H452 0.929 . S
C465 C457 1.433 . S
C465 N467 1.384 . S
N466 C462 1.427 . S
N466 C463 1.384 . S
N467 C459 1.427 . S
N467 C465 1.384 . S
C205 C18 0.985 . S
C209 C117 0.985 . S
C223 C150 0.857 . S
C227 C51 0.857 . S
C241 C183 0.965 . S
C245 C84 0.965 . S
C259 N13 1.448 . S
C263 N2 1.446 . S
C277 N46 1.448 . S
C281 N35 1.445 . S
C295 N68 1.454 . S
C299 N79 1.457 . S
C313 N112 1.449 . S
C317 N101 1.447 . S
C331 N134 1.446 . S
C335 N145 1.448 . S
C349 N178 1.451 . S
C353 N167 1.448 . S
C367 C21 0.788 . S
C371 C73 0.806 . S
C385 C54 0.710 . S
C389 C120 0.717 . S
C403 C87 0.723 . S
C407 C153 0.701 . S
C421 C106 0.897 . S
C425 C172 0.888 . S
C439 C7 0.927 . S
C443 C139 0.891 . S
C457 C40 0.809 . S
C461 C186 0.802 . S
