# Generated by pormake.
# Topology und, (4)-cn, num edge types: 1
# Building blocks:
#     Node 0, Type 0, BuildingBlock: UXUYUI_clean_sbu_0, # of connection points: 4
#     Node 1, Type 0, BuildingBlock: UXUYUI_clean_sbu_0, # of connection points: 4
#     Node 2, Type 0, BuildingBlock: UXUYUI_clean_sbu_0, # of connection points: 4
#     Node 3, Type 0, BuildingBlock: UXUYUI_clean_sbu_0, # of connection points: 4
#     Node 4, Type 0, BuildingBlock: UXUYUI_clean_sbu_0, # of connection points: 4
#     Node 5, Type 0, BuildingBlock: UXUYUI_clean_sbu_0, # of connection points: 4
#     Node 6, Type 0, BuildingBlock: UXUYUI_clean_sbu_0, # of connection points: 4
#     Node 7, Type 0, BuildingBlock: UXUYUI_clean_sbu_0, # of connection points: 4
#     Node 8, Type 0, BuildingBlock: UXUYUI_clean_sbu_0, # of connection points: 4
#     Node 9, Type 0, BuildingBlock: UXUYUI_clean_sbu_0, # of connection points: 4
#     Node 10, Type 0, BuildingBlock: UXUYUI_clean_sbu_0, # of connection points: 4
#     Node 11, Type 0, BuildingBlock: UXUYUI_clean_sbu_0, # of connection points: 4
#     Node 12, Type 0, BuildingBlock: UXUYUI_clean_sbu_0, # of connection points: 4
#     Node 13, Type 0, BuildingBlock: UXUYUI_clean_sbu_0, # of connection points: 4
#     Node 14, Type 0, BuildingBlock: UXUYUI_clean_sbu_0, # of connection points: 4
#     Node 15, Type 0, BuildingBlock: UXUYUI_clean_sbu_0, # of connection points: 4
#     Edge 16, Type (0, 0), BuildingBlock: EZIPEK_clean_linker_0, # of connection points: 2
#     Edge 17, Type (0, 0), BuildingBlock: EZIPEK_clean_linker_0, # of connection points: 2
#     Edge 18, Type (0, 0), BuildingBlock: EZIPEK_clean_linker_0, # of connection points: 2
#     Edge 19, Type (0, 0), BuildingBlock: EZIPEK_clean_linker_0, # of connection points: 2
#     Edge 20, Type (0, 0), BuildingBlock: EZIPEK_clean_linker_0, # of connection points: 2
#     Edge 21, Type (0, 0), BuildingBlock: EZIPEK_clean_linker_0, # of connection points: 2
#     Edge 22, Type (0, 0), BuildingBlock: EZIPEK_clean_linker_0, # of connection points: 2
#     Edge 23, Type (0, 0), BuildingBlock: EZIPEK_clean_linker_0, # of connection points: 2
#     Edge 24, Type (0, 0), BuildingBlock: EZIPEK_clean_linker_0, # of connection points: 2
#     Edge 25, Type (0, 0), BuildingBlock: EZIPEK_clean_linker_0, # of connection points: 2
#     Edge 26, Type (0, 0), BuildingBlock: EZIPEK_clean_linker_0, # of connection points: 2
#     Edge 27, Type (0, 0), BuildingBlock: EZIPEK_clean_linker_0, # of connection points: 2
#     Edge 28, Type (0, 0), BuildingBlock: EZIPEK_clean_linker_0, # of connection points: 2
#     Edge 29, Type (0, 0), BuildingBlock: EZIPEK_clean_linker_0, # of connection points: 2
#     Edge 30, Type (0, 0), BuildingBlock: EZIPEK_clean_linker_0, # of connection points: 2
#     Edge 31, Type (0, 0), BuildingBlock: EZIPEK_clean_linker_0, # of connection points: 2
#     Edge 32, Type (0, 0), BuildingBlock: EZIPEK_clean_linker_0, # of connection points: 2
#     Edge 33, Type (0, 0), BuildingBlock: EZIPEK_clean_linker_0, # of connection points: 2
#     Edge 34, Type (0, 0), BuildingBlock: EZIPEK_clean_linker_0, # of connection points: 2
#     Edge 35, Type (0, 0), BuildingBlock: EZIPEK_clean_linker_0, # of connection points: 2
#     Edge 36, Type (0, 0), BuildingBlock: EZIPEK_clean_linker_0, # of connection points: 2
#     Edge 37, Type (0, 0), BuildingBlock: EZIPEK_clean_linker_0, # of connection points: 2
#     Edge 38, Type (0, 0), BuildingBlock: EZIPEK_clean_linker_0, # of connection points: 2
#     Edge 39, Type (0, 0), BuildingBlock: EZIPEK_clean_linker_0, # of connection points: 2
#     Edge 40, Type (0, 0), BuildingBlock: EZIPEK_clean_linker_0, # of connection points: 2
#     Edge 41, Type (0, 0), BuildingBlock: EZIPEK_clean_linker_0, # of connection points: 2
#     Edge 42, Type (0, 0), BuildingBlock: EZIPEK_clean_linker_0, # of connection points: 2
#     Edge 43, Type (0, 0), BuildingBlock: EZIPEK_clean_linker_0, # of connection points: 2
#     Edge 44, Type (0, 0), BuildingBlock: EZIPEK_clean_linker_0, # of connection points: 2
#     Edge 45, Type (0, 0), BuildingBlock: EZIPEK_clean_linker_0, # of connection points: 2
#     Edge 46, Type (0, 0), BuildingBlock: EZIPEK_clean_linker_0, # of connection points: 2
#     Edge 47, Type (0, 0), BuildingBlock: EZIPEK_clean_linker_0, # of connection points: 2
# Relax obj value: 0.184
# Max RMSD: 0.213
# Mean RMSD: 0.213
data_MOF--net-und--node1-UXUYUI_clean_sbu_0--edge1-EZIPEK_clean_linker_0
_symmetry_space_group_name_H-M    P1
_symmetry_Int_Tables_number       1
_symmetry_cell_setting            triclinic
loop_
_symmetry_equiv_pos_as_xyz
'x, y, z'
_cell_length_a     70.747851
_cell_length_b     70.726103
_cell_length_c     26.764547
_cell_angle_alpha  90.013845
_cell_angle_beta   90.018153
_cell_angle_gamma 89.998907
loop_
_atom_site_label
_atom_site_type_symbol
_atom_site_fract_x
_atom_site_fract_y
_atom_site_fract_z
_atom_type_partial_charge
Li0 Li 0.22782 0.34399 0.00847 0.0
Li1 Li 0.2624 0.34712 0.99071 0.0
Li2 Li 0.24343 0.32144 0.95259 0.0
Li3 Li 0.24955 0.32153 0.04077 0.0
C4 C 0.22761 0.35276 0.90625 0.0
N5 N 0.20172 0.35971 0.83121 0.0
C6 C 0.23174 0.36584 0.86873 0.0
C7 C 0.21033 0.34316 0.90559 0.0
C8 C 0.21845 0.36918 0.83111 0.0
C9 C 0.19742 0.34689 0.86734 0.0
C10 C 0.25035 0.34909 0.10626 0.0
C11 C 0.26911 0.34678 0.18128 0.0
N12 N 0.25306 0.3475 0.20919 0.0
C13 C 0.23405 0.34996 0.13572 0.0
C14 C 0.26804 0.34766 0.1292 0.0
C15 C 0.23572 0.34909 0.18768 0.0
C16 C 0.1904 0.34863 0.04183 0.0
N17 N 0.20595 0.35807 0.0255 0.0
C18 C 0.19296 0.38757 0.05235 0.0
C19 C 0.20737 0.37719 0.02943 0.0
C20 C 0.17714 0.37805 0.07134 0.0
C21 C 0.17569 0.35844 0.06497 0.0
H22 H 0.18993 0.33339 0.03946 0.0
H23 H 0.22014 0.38422 0.01722 0.0
C24 C 0.28749 0.36248 0.92424 0.0
N25 N 0.28215 0.36386 0.97287 0.0
C26 C 0.30108 0.37467 0.90478 0.0
C27 C 0.3037 0.3894 0.98613 0.0
C28 C 0.28995 0.37688 0.0041 0.0
C29 C 0.3092 0.3884 0.93577 0.0
H30 H 0.28088 0.35207 0.90035 0.0
H31 H 0.28531 0.3777 0.04255 0.0
C32 C 0.22104 0.29711 0.00638 0.0
N33 N 0.21309 0.25883 0.00617 0.0
C34 C 0.23569 0.28389 0.00358 0.0
C35 C 0.20233 0.29083 0.00895 0.0
C36 C 0.2314 0.26462 0.00358 0.0
C37 C 0.19861 0.27143 0.0088 0.0
C38 C 0.28538 0.31222 0.99428 0.0
C39 C 0.28959 0.29437 0.97479 0.0
C40 C 0.29914 0.32209 0.02118 0.0
C41 C 0.30742 0.28653 0.98343 0.0
C42 C 0.3168 0.31377 0.02899 0.0
N43 N 0.32053 0.2963 0.01017 0.0
C44 C 0.26035 0.30887 0.86789 0.0
C45 C 0.23077 0.29364 0.87928 0.0
C46 C 0.26456 0.29723 0.8275 0.0
N47 N 0.2439 0.30666 0.89342 0.0
C48 C 0.23446 0.28159 0.83888 0.0
C49 C 0.2517 0.28321 0.81334 0.0
H50 H 0.27054 0.31925 0.88028 0.0
H51 H 0.2178 0.29216 0.90023 0.0
C52 C 0.23583 0.3028 0.12323 0.0
N53 N 0.25224 0.30519 0.09751 0.0
C54 C 0.23465 0.28957 0.16163 0.0
C55 C 0.2675 0.28173 0.14763 0.0
C56 C 0.26805 0.29519 0.10936 0.0
C57 C 0.25053 0.27868 0.17349 0.0
H58 H 0.22341 0.31078 0.11268 0.0
H59 H 0.28091 0.29716 0.0884 0.0
O60 O 0.24056 0.34927 0.94302 0.0
O61 O 0.24897 0.3495 0.05527 0.0
O62 O 0.22486 0.31611 0.00699 0.0
O63 O 0.26807 0.32019 0.98566 0.0
H64 H 0.24509 0.37333 0.86868 0.0
H65 H 0.2069 0.33292 0.93417 0.0
H66 H 0.22146 0.37927 0.80182 0.0
H67 H 0.184 0.33957 0.86635 0.0
H68 H 0.2827 0.34553 0.1995 0.0
H69 H 0.22024 0.35107 0.11874 0.0
H70 H 0.2808 0.34712 0.1071 0.0
H71 H 0.22321 0.34963 0.21088 0.0
H72 H 0.19449 0.4027 0.05719 0.0
H73 H 0.16369 0.35074 0.07971 0.0
H74 H 0.30503 0.37363 0.86577 0.0
H75 H 0.30975 0.39992 0.01082 0.0
H76 H 0.25022 0.28841 0.00171 0.0
H77 H 0.19079 0.30083 0.01095 0.0
H78 H 0.24262 0.25426 0.00158 0.0
H79 H 0.18419 0.26639 0.01078 0.0
H80 H 0.27923 0.28665 0.95312 0.0
H81 H 0.29624 0.33602 0.0358 0.0
H82 H 0.31085 0.27269 0.96876 0.0
H83 H 0.32756 0.32123 0.04992 0.0
H84 H 0.27799 0.29875 0.80844 0.0
H85 H 0.22429 0.27083 0.82859 0.0
H86 H 0.22137 0.28748 0.18097 0.0
H87 H 0.27997 0.27345 0.15611 0.0
Li88 Li 0.93085 0.99664 0.22498 0.0
Li89 Li 0.92718 0.00506 0.31149 0.0
Li90 Li 0.90488 0.9834 0.26962 0.0
Li91 Li 0.9039 0.01675 0.24644 0.0
C92 C 0.94628 0.96732 0.27411 0.0
N93 N 0.97538 0.94248 0.25343 0.0
C94 C 0.9629 0.96783 0.30234 0.0
C95 C 0.9444 0.9541 0.23563 0.0
C96 C 0.97746 0.95517 0.29125 0.0
C97 C 0.95929 0.9417 0.22565 0.0
C98 C 0.94717 0.03134 0.23896 0.0
C99 C 0.9626 0.05393 0.18525 0.0
N100 N 0.97952 0.04933 0.20615 0.0
C101 C 0.96468 0.02689 0.26005 0.0
C102 C 0.94609 0.04496 0.20126 0.0
C103 C 0.98089 0.0361 0.24283 0.0
C104 C 0.94343 0.99816 0.12586 0.0
N105 N 0.94938 0.99437 0.17315 0.0
C106 C 0.98157 0.99336 0.14606 0.0
C107 C 0.96803 0.99181 0.18369 0.0
C108 C 0.97582 0.99779 0.09743 0.0
C109 C 0.95653 0.99993 0.08708 0.0
H110 H 0.92858 0.00057 0.11869 0.0
H111 H 0.97257 0.98953 0.22166 0.0
C112 C 0.93971 0.99465 0.4053 0.0
N113 N 0.93939 0.00948 0.3733 0.0
C114 C 0.94938 0.99595 0.45053 0.0
C115 C 0.95845 0.02771 0.42891 0.0
C116 C 0.94854 0.02581 0.38403 0.0
C117 C 0.95827 0.01304 0.46507 0.0
H118 H 0.93293 0.98152 0.3948 0.0
H119 H 0.94864 0.03718 0.35704 0.0
C120 C 0.89036 0.98439 0.18001 0.0
N121 N 0.86151 0.96321 0.13873 0.0
C122 C 0.87165 0.99058 0.18364 0.0
C123 C 0.89443 0.96754 0.15502 0.0
C124 C 0.85725 0.97964 0.16261 0.0
C125 C 0.87964 0.95699 0.1345 0.0
C126 C 0.89241 0.01831 0.34739 0.0
C127 C 0.87747 0.01387 0.3794 0.0
C128 C 0.90115 0.036 0.35087 0.0
C129 C 0.87142 0.02726 0.41428 0.0
C130 C 0.8947 0.049 0.38628 0.0
N131 N 0.88009 0.0444 0.41697 0.0
C132 C 0.89608 0.94499 0.2926 0.0
C133 C 0.87042 0.96658 0.29433 0.0
C134 C 0.88463 0.93068 0.31208 0.0
N135 N 0.88886 0.96257 0.28468 0.0
C136 C 0.85847 0.95269 0.31366 0.0
C137 C 0.86572 0.93465 0.32358 0.0
H138 H 0.91089 0.9423 0.28595 0.0
H139 H 0.8652 0.98081 0.28898 0.0
C140 C 0.89181 0.04058 0.17139 0.0
N141 N 0.88841 0.0365 0.22023 0.0
C142 C 0.88052 0.05359 0.14596 0.0
C143 C 0.86244 0.05815 0.22167 0.0
C144 C 0.87399 0.0449 0.24557 0.0
C145 C 0.86561 0.06246 0.17117 0.0
H146 H 0.90306 0.03333 0.15186 0.0
H147 H 0.87108 0.04103 0.28379 0.0
O148 O 0.93187 0.9796 0.28444 0.0
O149 O 0.93111 0.02263 0.25567 0.0
O150 O 0.90461 0.9947 0.2012 0.0
O151 O 0.89862 0.00521 0.31358 0.0
H152 H 0.96463 0.97802 0.33215 0.0
H153 H 0.93161 0.9535 0.21356 0.0
H154 H 0.99044 0.95545 0.31262 0.0
H155 H 0.95807 0.93145 0.19582 0.0
H156 H 0.96198 0.0645 0.1561 0.0
H157 H 0.96579 0.01625 0.28893 0.0
H158 H 0.93263 0.04865 0.18473 0.0
H159 H 0.99455 0.0327 0.25859 0.0
H160 H 0.99642 0.99183 0.15509 0.0
H161 H 0.95174 0.00348 0.04979 0.0
H162 H 0.95033 0.98319 0.47247 0.0
H163 H 0.96667 0.0404 0.43287 0.0
H164 H 0.86823 0.00355 0.20306 0.0
H165 H 0.90886 0.96266 0.15146 0.0
H166 H 0.84269 0.98419 0.16541 0.0
H167 H 0.88257 0.94388 0.1152 0.0
H168 H 0.87063 1.0002 0.37733 0.0
H169 H 0.91272 0.03973 0.32642 0.0
H170 H 0.85984 0.02403 0.43926 0.0
H171 H 0.90131 0.06274 0.38934 0.0
H172 H 0.89059 0.91687 0.31975 0.0
H173 H 0.84395 0.95616 0.32256 0.0
H174 H 0.88317 0.05649 0.10685 0.0
H175 H 0.85089 0.06465 0.24191 0.0
Li176 Li 0.2555 0.68325 0.45763 0.0
Li177 Li 0.24841 0.68216 0.54647 0.0
Li178 Li 0.26957 0.65807 0.50989 0.0
Li179 Li 0.23542 0.65768 0.49099 0.0
C180 C 0.28485 0.70073 0.5198 0.0
N181 N 0.30853 0.73145 0.532 0.0
C182 C 0.27731 0.71863 0.52939 0.0
C183 C 0.30443 0.69843 0.51676 0.0
C184 C 0.28951 0.73399 0.53537 0.0
C185 C 0.31617 0.71414 0.52291 0.0
C186 C 0.21815 0.69987 0.4911 0.0
C187 C 0.18655 0.71196 0.50213 0.0
N188 N 0.19292 0.72969 0.49192 0.0
C189 C 0.22435 0.71819 0.48031 0.0
C190 C 0.19907 0.69668 0.50165 0.0
C191 C 0.21139 0.73308 0.48104 0.0
C192 C 0.24197 0.69912 0.37121 0.0
N193 N 0.25734 0.69963 0.40166 0.0
C194 C 0.27007 0.72583 0.35646 0.0
C195 C 0.2715 0.71236 0.39455 0.0
C196 C 0.25395 0.72602 0.32591 0.0
C197 C 0.23995 0.71229 0.33287 0.0
H198 H 0.23089 0.68891 0.37812 0.0
H199 H 0.28358 0.71248 0.41925 0.0
C200 C 0.26154 0.6932 0.63698 0.0
N201 N 0.24697 0.69705 0.6055 0.0
C202 C 0.26509 0.70481 0.6779 0.0
C203 C 0.23797 0.72374 0.65494 0.0
C204 C 0.23495 0.71173 0.61408 0.0
C205 C 0.25347 0.72048 0.68652 0.0
H206 H 0.27094 0.68156 0.6288 0.0
H207 H 0.22355 0.71461 0.58836 0.0
C208 C 0.2701 0.65202 0.40648 0.0
N209 N 0.29629 0.64513 0.33216 0.0
C210 C 0.26609 0.63901 0.36866 0.0
C211 C 0.28739 0.66157 0.40648 0.0
C212 C 0.27953 0.6357 0.33142 0.0
C213 C 0.30045 0.65788 0.36859 0.0
C214 C 0.23556 0.6489 0.59331 0.0
C215 C 0.23967 0.63362 0.62455 0.0
C216 C 0.21863 0.65881 0.59942 0.0
C217 C 0.22666 0.62841 0.66132 0.0
C218 C 0.20599 0.65317 0.63663 0.0
N219 N 0.21023 0.63821 0.66653 0.0
C220 C 0.29923 0.64799 0.57112 0.0
C221 C 0.2955 0.62684 0.50299 0.0
C222 C 0.31286 0.63629 0.5926 0.0
N223 N 0.29067 0.64296 0.52762 0.0
C224 C 0.30925 0.61479 0.52294 0.0
C225 C 0.31772 0.61932 0.56889 0.0
H226 H 0.29488 0.66075 0.59014 0.0
H227 H 0.28817 0.62297 0.46903 0.0
C228 C 0.20708 0.64647 0.42677 0.0
N229 N 0.21499 0.64189 0.47144 0.0
C230 C 0.19379 0.63452 0.40466 0.0
C231 C 0.19652 0.61363 0.47584 0.0
C232 C 0.20994 0.62591 0.4964 0.0
C233 C 0.1886 0.61777 0.42899 0.0
H234 H 0.21163 0.65911 0.40748 0.0
H235 H 0.21675 0.62234 0.53127 0.0
O236 O 0.27323 0.68541 0.51424 0.0
O237 O 0.2305 0.68498 0.48986 0.0
O238 O 0.25703 0.65539 0.44305 0.0
O239 O 0.24816 0.65413 0.55717 0.0
H240 H 0.26224 0.72066 0.53253 0.0
H241 H 0.3105 0.68463 0.50968 0.0
H242 H 0.28387 0.74793 0.54279 0.0
H243 H 0.33135 0.71257 0.52053 0.0
H244 H 0.17176 0.70971 0.51043 0.0
H245 H 0.23897 0.72091 0.47117 0.0
H246 H 0.19397 0.68254 0.50925 0.0
H247 H 0.21601 0.74732 0.47281 0.0
H248 H 0.2811 0.7363 0.35175 0.0
H249 H 0.22737 0.71214 0.30979 0.0
H250 H 0.27717 0.70199 0.70163 0.0
H251 H 0.2288 0.7358 0.66078 0.0
H252 H 0.25273 0.63154 0.36814 0.0
H253 H 0.29073 0.67171 0.43533 0.0
H254 H 0.27663 0.62565 0.30192 0.0
H255 H 0.3139 0.66516 0.36813 0.0
H256 H 0.25276 0.62586 0.62032 0.0
H257 H 0.21532 0.67075 0.57587 0.0
H258 H 0.22962 0.61658 0.68571 0.0
H259 H 0.19283 0.6607 0.64176 0.0
H260 H 0.31909 0.64012 0.62817 0.0
H261 H 0.31268 0.60171 0.50394 0.0
H262 H 0.18798 0.63805 0.36839 0.0
H263 H 0.19283 0.60073 0.49535 0.0
Li264 Li 0.59768 0.98145 0.733 0.0
Li265 Li 0.59727 0.016 0.7563 0.0
Li266 Li 0.57228 0.99419 0.78662 0.0
Li267 Li 0.57423 0.00232 0.69988 0.0
C268 C 0.60376 0.97959 0.83621 0.0
N269 N 0.61138 0.9523 0.90723 0.0
C270 C 0.61645 0.98337 0.87494 0.0
C271 C 0.59494 0.96192 0.83355 0.0
C272 C 0.62012 0.96938 0.9105 0.0
C273 C 0.59898 0.94832 0.86983 0.0
C274 C 0.60349 0.00771 0.64037 0.0
C275 C 0.59816 0.02833 0.56996 0.0
N276 N 0.60466 0.01462 0.53875 0.0
C277 C 0.61034 0.99391 0.60763 0.0
C278 C 0.59758 0.02515 0.62145 0.0
C279 C 0.61075 0.99764 0.55639 0.0
C280 C 0.60631 0.94921 0.67847 0.0
N281 N 0.61307 0.96052 0.71547 0.0
C282 C 0.64279 0.94447 0.71411 0.0
C283 C 0.63081 0.95827 0.73413 0.0
C284 C 0.63646 0.93327 0.6741 0.0
C285 C 0.61788 0.93549 0.65687 0.0
H286 H 0.59225 0.95157 0.66389 0.0
H287 H 0.63588 0.96764 0.76313 0.0
C288 C 0.61286 0.03802 0.83028 0.0
N289 N 0.61219 0.03645 0.77969 0.0
C290 C 0.62423 0.05169 0.85276 0.0
C291 C 0.63359 0.06239 0.77055 0.0
C292 C 0.62216 0.0483 0.74956 0.0
C293 C 0.63485 0.06396 0.82279 0.0
H294 H 0.60474 0.02839 0.85319 0.0
H295 H 0.6214 0.04667 0.70942 0.0
C296 C 0.55256 0.96967 0.72304 0.0
N297 N 0.5166 0.95526 0.71 0.0
C298 C 0.53685 0.98158 0.72605 0.0
C299 C 0.55 0.95043 0.71335 0.0
C300 C 0.51878 0.97404 0.71939 0.0
C301 C 0.5317 0.94341 0.70688 0.0
C302 C 0.55921 0.0353 0.74859 0.0
C303 C 0.54022 0.03583 0.76309 0.0
C304 C 0.56745 0.05128 0.72701 0.0
C305 C 0.52965 0.05218 0.7543 0.0
C306 C 0.55641 0.06736 0.71885 0.0
N307 N 0.53789 0.06747 0.73246 0.0
C308 C 0.55452 0.00725 0.87053 0.0
C309 C 0.54484 0.97599 0.85085 0.0
C310 C 0.54117 0.00838 0.90864 0.0
N311 N 0.55584 0.99141 0.842 0.0
C312 C 0.53122 0.97652 0.88872 0.0
C313 C 0.52915 0.99301 0.91734 0.0
H314 H 0.56344 0.01929 0.86243 0.0
H315 H 0.54622 0.96355 0.82767 0.0
C316 C 0.56147 0.98832 0.61154 0.0
N317 N 0.55911 0.0039 0.64067 0.0
C318 C 0.54953 0.98498 0.57122 0.0
C319 C 0.53318 0.01415 0.59006 0.0
C320 C 0.54551 0.01696 0.63037 0.0
C321 C 0.53499 0.99778 0.56082 0.0
H322 H 0.57213 0.978 0.62119 0.0
H323 H 0.54368 0.02909 0.65433 0.0
O324 O 0.60001 0.99319 0.80125 0.0
O325 O 0.6026 0.00414 0.69061 0.0
O326 O 0.57042 0.97677 0.72887 0.0
O327 O 0.56982 0.01946 0.75727 0.0
H328 H 0.6234 0.99697 0.87748 0.0
H329 H 0.58508 0.95871 0.80388 0.0
H330 H 0.62992 0.97211 0.94069 0.0
H331 H 0.59226 0.93459 0.86825 0.0
H332 H 0.59343 0.0417 0.55482 0.0
H333 H 0.61531 0.98047 0.62154 0.0
H334 H 0.59235 0.03602 0.64612 0.0
H335 H 0.61591 0.98704 0.53064 0.0
H336 H 0.65708 0.94307 0.72816 0.0
H337 H 0.61262 0.92711 0.62597 0.0
H338 H 0.6249 0.05256 0.89313 0.0
H339 H 0.64165 0.07169 0.74649 0.0
H340 H 0.53862 0.99648 0.73313 0.0
H341 H 0.56203 0.94102 0.7109 0.0
H342 H 0.50651 0.98312 0.72152 0.0
H343 H 0.5295 0.92855 0.69936 0.0
H344 H 0.5337 0.02381 0.78114 0.0
H345 H 0.58224 0.05136 0.71708 0.0
H346 H 0.51492 0.05275 0.76504 0.0
H347 H 0.56259 0.0798 0.70193 0.0
H348 H 0.53986 0.02127 0.93024 0.0
H349 H 0.52209 0.96444 0.89479 0.0
H350 H 0.55119 0.97218 0.54939 0.0
H351 H 0.52198 0.02423 0.58284 0.0
Li352 Li 0.7552 0.67722 0.03168 0.0
Li353 Li 0.73482 0.65122 0.00848 0.0
Li354 Li 0.7677 0.65091 0.97828 0.0
Li355 Li 0.74479 0.67273 0.94436 0.0
C356 C 0.77357 0.64746 0.08069 0.0
N357 N 0.80417 0.64222 0.14335 0.0
C358 C 0.77263 0.63424 0.11939 0.0
C359 C 0.79008 0.65801 0.07381 0.0
C360 C 0.78824 0.6318 0.1507 0.0
C361 C 0.80539 0.65515 0.10589 0.0
C362 C 0.7121 0.68007 0.0249 0.0
C363 C 0.67813 0.68056 0.01797 0.0
N364 N 0.67677 0.68195 0.06854 0.0
C365 C 0.71039 0.68166 0.07676 0.0
C366 C 0.69587 0.67966 0.99518 0.0
C367 C 0.6924 0.68254 0.09812 0.0
C368 C 0.75341 0.71401 0.06383 0.0
N369 N 0.75853 0.69652 0.08 0.0
C370 C 0.76109 0.70768 0.16395 0.0
C371 C 0.76249 0.6931 0.12891 0.0
C372 C 0.75517 0.72569 0.14845 0.0
C373 C 0.75154 0.72889 0.09768 0.0
H374 H 0.74988 0.71613 0.0249 0.0
H375 H 0.76583 0.67896 0.14123 0.0
C376 C 0.70268 0.62615 0.00896 0.0
N377 N 0.7154 0.63598 0.03686 0.0
C378 C 0.68909 0.61485 0.03234 0.0
C379 C 0.70191 0.6241 0.11249 0.0
C380 C 0.71526 0.63515 0.08764 0.0
C381 C 0.68874 0.61375 0.08465 0.0
H382 H 0.70321 0.62687 0.9687 0.0
H383 H 0.72561 0.64305 0.10883 0.0
C384 C 0.78178 0.68619 0.93387 0.0
N385 N 0.80495 0.70162 0.86153 0.0
C386 C 0.78584 0.67602 0.89041 0.0
C387 C 0.7894 0.70424 0.94046 0.0
C388 C 0.79757 0.68407 0.85424 0.0
C389 C 0.80113 0.71178 0.9035 0.0
C390 C 0.73726 0.64053 0.89485 0.0
C391 C 0.74862 0.63165 0.8591 0.0
C392 C 0.71866 0.64537 0.88289 0.0
C393 C 0.74114 0.6278 0.81186 0.0
C394 C 0.71171 0.6413 0.83523 0.0
N395 N 0.723 0.63267 0.801 0.0
C396 C 0.78441 0.61678 0.95134 0.0
C397 C 0.80634 0.64213 0.95494 0.0
C398 C 0.7981 0.60487 0.93093 0.0
N399 N 0.78859 0.63514 0.96153 0.0
C400 C 0.82047 0.63071 0.93437 0.0
C401 C 0.81619 0.61201 0.92118 0.0
H402 H 0.77016 0.61165 0.95696 0.0
H403 H 0.80933 0.65675 0.96369 0.0
C404 C 0.73347 0.70593 0.89838 0.0
N405 N 0.73943 0.68812 0.8874 0.0
C406 C 0.73331 0.71989 0.86153 0.0
C407 C 0.74453 0.69672 0.80207 0.0
C408 C 0.74462 0.68324 0.84014 0.0
C409 C 0.73933 0.71536 0.81315 0.0
H410 H 0.72993 0.70956 0.93651 0.0
H411 H 0.75009 0.66932 0.83247 0.0
O412 O 0.75837 0.64988 0.04973 0.0
O413 O 0.72957 0.67874 0.00335 0.0
O414 O 0.77065 0.67845 0.97025 0.0
O415 O 0.74431 0.64438 0.94133 0.0
H416 H 0.75995 0.62595 0.12515 0.0
H417 H 0.79109 0.66838 0.0443 0.0
H418 H 0.78771 0.62163 0.18083 0.0
H419 H 0.81825 0.66322 0.10103 0.0
H420 H 0.66543 0.68017 0.99546 0.0
H421 H 0.7228 0.68193 0.10035 0.0
H422 H 0.69696 0.67867 0.95495 0.0
H423 H 0.69086 0.68362 0.13823 0.0
H424 H 0.76382 0.70478 0.20304 0.0
H425 H 0.74679 0.7426 0.08471 0.0
H426 H 0.6791 0.6069 0.00998 0.0
H427 H 0.70199 0.62343 0.15293 0.0
H428 H 0.77999 0.66206 0.88468 0.0
H429 H 0.78637 0.71228 0.97395 0.0
H430 H 0.80083 0.67636 0.82041 0.0
H431 H 0.80718 0.72572 0.90813 0.0
H432 H 0.7631 0.62793 0.86749 0.0
H433 H 0.70973 0.65233 0.91 0.0
H434 H 0.74978 0.62099 0.78379 0.0
H435 H 0.69735 0.64503 0.82542 0.0
H436 H 0.79446 0.59046 0.92114 0.0
H437 H 0.83438 0.63653 0.92736 0.0
H438 H 0.72942 0.73425 0.87114 0.0
H439 H 0.74951 0.69294 0.76513 0.0
Li440 Li 0.09312 0.98557 0.764 0.0
Li441 Li 0.07137 0.00814 0.80576 0.0
Li442 Li 0.06804 0.00162 0.72031 0.0
Li443 Li 0.09436 0.02029 0.74463 0.0
C444 C 0.05452 0.9702 0.7519 0.0
N445 N 0.03172 0.94533 0.69978 0.0
C446 C 0.03505 0.96978 0.76074 0.0
C447 C 0.0624 0.95785 0.71684 0.0
C448 C 0.02376 0.95715 0.73389 0.0
C449 C 0.05064 0.94539 0.69087 0.0
C450 C 0.10687 0.00101 0.85381 0.0
C451 C 0.13046 0.00227 0.91877 0.0
N452 N 0.12161 0.98782 0.94281 0.0
C453 C 0.09806 0.98611 0.87902 0.0
C454 C 0.12322 0.00913 0.8737 0.0
C455 C 0.10571 0.97968 0.92402 0.0
C456 C 0.1275 0.96565 0.76872 0.0
N457 N 0.1086 0.96411 0.77695 0.0
C458 C 0.11303 0.93513 0.82138 0.0
C459 C 0.10116 0.94905 0.80175 0.0
C460 C 0.13262 0.93679 0.81514 0.0
C461 C 0.13988 0.95197 0.78746 0.0
H462 H 0.13302 0.97802 0.74994 0.0
H463 H 0.08613 0.94845 0.80889 0.0
C464 C 0.03761 0.01123 0.8539 0.0
N465 N 0.05641 0.01242 0.86374 0.0
C466 C 0.02457 0.01044 0.8928 0.0
C467 C 0.05037 0.01369 0.95153 0.0
C468 C 0.06297 0.01441 0.91128 0.0
C469 C 0.03104 0.01111 0.94216 0.0
H470 H 0.03284 0.01015 0.81566 0.0
H471 H 0.07794 0.01587 0.9182 0.0
C472 C 0.09479 0.99645 0.64809 0.0
N473 N 0.09472 0.99264 0.54541 0.0
C474 C 0.08988 0.01178 0.61783 0.0
C475 C 0.09981 0.97922 0.62622 0.0
C476 C 0.08989 0.00955 0.56597 0.0
C477 C 0.09965 0.97757 0.5742 0.0
C478 C 0.06602 0.04453 0.77204 0.0
C479 C 0.05336 0.05762 0.75177 0.0
C480 C 0.07734 0.04974 0.81261 0.0
C481 C 0.05224 0.07573 0.77239 0.0
C482 C 0.07579 0.06799 0.8322 0.0
N483 N 0.06338 0.08049 0.81185 0.0
C484 C 0.03307 0.01137 0.68709 0.0
C485 C 0.04751 0.99084 0.62834 0.0
C486 C 0.01733 0.01349 0.65651 0.0
N487 N 0.04792 0.00053 0.67234 0.0
C488 C 0.03198 0.99267 0.59622 0.0
C489 C 0.01684 0.00433 0.61026 0.0
H490 H 0.0335 0.01853 0.72271 0.0
H491 H 0.0592 0.98186 0.61789 0.0
C492 C 0.12958 0.03882 0.73378 0.0
N493 N 0.11078 0.04003 0.72373 0.0
C494 C 0.14217 0.05183 0.71278 0.0
C495 C 0.11573 0.06724 0.67238 0.0
C496 C 0.10367 0.054 0.69425 0.0
C497 C 0.13521 0.06599 0.68108 0.0
H498 H 0.13484 0.02736 0.75666 0.0
H499 H 0.08871 0.05444 0.68614 0.0
O500 O 0.0658 0.98296 0.7762 0.0
O501 O 0.09975 0.00749 0.80949 0.0
O502 O 0.09494 0.99832 0.69889 0.0
O503 O 0.06723 0.02679 0.75175 0.0
H504 H 0.02867 0.97913 0.78782 0.0
H505 H 0.07741 0.95806 0.70929 0.0
H506 H 0.00866 0.95676 0.74013 0.0
H507 H 0.05655 0.93585 0.66341 0.0
H508 H 0.1431 0.00844 0.93464 0.0
H509 H 0.08534 0.97972 0.86426 0.0
H510 H 0.13024 0.02063 0.85451 0.0
H511 H 0.09902 0.96819 0.94398 0.0
H512 H 0.10709 0.92363 0.84302 0.0
H513 H 0.15498 0.95368 0.78254 0.0
H514 H 0.00969 0.00865 0.88458 0.0
H515 H 0.05568 0.01442 0.98944 0.0
H516 H 0.08583 0.02515 0.63422 0.0
H517 H 0.10378 0.96727 0.6492 0.0
H518 H 0.08599 0.02125 0.54207 0.0
H519 H 0.10345 0.96431 0.55671 0.0
H520 H 0.04454 0.05384 0.72025 0.0
H521 H 0.08722 0.03991 0.82897 0.0
H522 H 0.04252 0.086 0.75701 0.0
H523 H 0.08446 0.0722 0.86358 0.0
H524 H 0.00574 0.02243 0.66845 0.0
H525 H 0.03182 0.98527 0.5608 0.0
H526 H 0.15718 0.05051 0.71985 0.0
H527 H 0.11002 0.07799 0.64783 0.0
Li528 Li 0.76713 0.346 0.51476 0.0
Li529 Li 0.74452 0.32372 0.55123 0.0
Li530 Li 0.75102 0.32163 0.46564 0.0
Li531 Li 0.73207 0.34748 0.49447 0.0
C532 C 0.7779 0.3019 0.50855 0.0
N533 N 0.79464 0.26835 0.47952 0.0
C534 C 0.76986 0.28461 0.52226 0.0
C535 C 0.79455 0.30213 0.48044 0.0
C536 C 0.77852 0.2678 0.50715 0.0
C537 C 0.80276 0.28502 0.46601 0.0
C538 C 0.74104 0.35343 0.60831 0.0
C539 C 0.71869 0.35174 0.6761 0.0
N540 N 0.73292 0.35518 0.70908 0.0
C541 C 0.75544 0.35704 0.64278 0.0
C542 C 0.7225 0.35085 0.62493 0.0
C543 C 0.75104 0.35785 0.69362 0.0
C544 C 0.78606 0.38021 0.52996 0.0
N545 N 0.78821 0.36113 0.53212 0.0
C546 C 0.81766 0.36442 0.57496 0.0
C547 C 0.8037 0.35307 0.5534 0.0
C548 C 0.81543 0.38413 0.57486 0.0
C549 C 0.79963 0.39208 0.5512 0.0
H550 H 0.77336 0.38613 0.51376 0.0
H551 H 0.80476 0.33783 0.55558 0.0
C552 C 0.7265 0.29761 0.61742 0.0
N553 N 0.74164 0.3091 0.60994 0.0
C554 C 0.72683 0.28428 0.656 0.0
C555 C 0.75798 0.29543 0.67911 0.0
C556 C 0.75709 0.30844 0.64013 0.0
C557 C 0.74292 0.28292 0.68646 0.0
H558 H 0.71463 0.29817 0.59202 0.0
H559 H 0.7691 0.31742 0.63229 0.0
C560 C 0.76479 0.35168 0.40635 0.0
N561 N 0.78578 0.35763 0.32073 0.0
C562 C 0.75581 0.35672 0.36175 0.0
C563 C 0.78446 0.3499 0.40753 0.0
C564 C 0.76667 0.35958 0.31882 0.0
C565 C 0.79482 0.35292 0.36382 0.0
C566 C 0.71162 0.3172 0.4634 0.0
C567 C 0.71311 0.32489 0.41546 0.0
C568 C 0.69575 0.30642 0.4759 0.0
C569 C 0.69869 0.3217 0.38082 0.0
C570 C 0.68163 0.30354 0.4402 0.0
N571 N 0.68338 0.31118 0.3938 0.0
C572 C 0.74221 0.28705 0.42242 0.0
C573 C 0.76307 0.30454 0.37087 0.0
C574 C 0.74074 0.27287 0.38652 0.0
N575 N 0.75284 0.30276 0.41368 0.0
C576 C 0.76222 0.29051 0.33411 0.0
C577 C 0.75067 0.27463 0.34158 0.0
H578 H 0.7346 0.28563 0.45722 0.0
H579 H 0.77175 0.31682 0.36477 0.0
C580 C 0.71798 0.37937 0.44668 0.0
N581 N 0.71258 0.36453 0.47561 0.0
C582 C 0.70445 0.39128 0.42561 0.0
C583 C 0.68002 0.37274 0.4656 0.0
C584 C 0.69406 0.36116 0.48604 0.0
C585 C 0.68526 0.38781 0.43447 0.0
H586 H 0.7328 0.38164 0.43889 0.0
H587 H 0.69018 0.34917 0.50892 0.0
O588 O 0.76937 0.31851 0.52186 0.0
O589 O 0.74512 0.35213 0.55855 0.0
O590 O 0.7544 0.34902 0.44887 0.0
O591 O 0.72547 0.32023 0.4983 0.0
H592 H 0.75691 0.28412 0.54363 0.0
H593 H 0.80101 0.31537 0.46969 0.0
H594 H 0.77237 0.25433 0.51722 0.0
H595 H 0.81559 0.28498 0.44403 0.0
H596 H 0.70443 0.34966 0.68959 0.0
H597 H 0.76987 0.35903 0.63044 0.0
H598 H 0.71124 0.34798 0.5986 0.0
H599 H 0.76204 0.36054 0.72078 0.0
H600 H 0.82969 0.35793 0.59319 0.0
H601 H 0.79752 0.40725 0.55079 0.0
H602 H 0.71507 0.27465 0.6608 0.0
H603 H 0.77061 0.29455 0.70191 0.0
H604 H 0.74062 0.35845 0.36025 0.0
H605 H 0.79166 0.34611 0.44165 0.0
H606 H 0.7599 0.36341 0.28401 0.0
H607 H 0.81004 0.35149 0.36416 0.0
H608 H 0.72525 0.33321 0.40506 0.0
H609 H 0.69435 0.30038 0.51286 0.0
H610 H 0.69969 0.32759 0.34361 0.0
H611 H 0.66927 0.29523 0.4494 0.0
H612 H 0.73183 0.2607 0.39356 0.0
H613 H 0.7702 0.29215 0.29985 0.0
H614 H 0.70886 0.40285 0.40179 0.0
H615 H 0.66527 0.36978 0.47308 0.0
Li616 Li 0.40729 0.01846 0.26318 0.0
Li617 Li 0.43134 0.99745 0.28987 0.0
Li618 Li 0.4304 0.005 0.20337 0.0
Li619 Li 0.40548 0.9842 0.24175 0.0
C620 C 0.43885 0.04051 0.24262 0.0
N621 N 0.44615 0.07659 0.20803 0.0
C622 C 0.45148 0.05223 0.26821 0.0
C623 C 0.42998 0.04713 0.19937 0.0
C624 C 0.45497 0.07043 0.25016 0.0
C625 C 0.43385 0.0654 0.18248 0.0
C626 C 0.40075 0.00282 0.35604 0.0
C627 C 0.3816 0.00343 0.43056 0.0
N628 N 0.39301 0.01706 0.44997 0.0
C629 C 0.41227 0.01685 0.37671 0.0
C630 C 0.38528 0.99606 0.3831 0.0
C631 C 0.40813 0.02386 0.42426 0.0
C632 C 0.37262 0.03689 0.27658 0.0
N633 N 0.39159 0.03904 0.28261 0.0
C634 C 0.38693 0.06749 0.32924 0.0
C635 C 0.3989 0.05404 0.30793 0.0
C636 C 0.36732 0.0653 0.32471 0.0
C637 C 0.36013 0.05 0.29738 0.0
H638 H 0.36722 0.02458 0.25729 0.0
H639 H 0.41397 0.05511 0.3137 0.0
C640 C 0.46641 0.00146 0.33435 0.0
N641 N 0.4495 0.99286 0.34103 0.0
C642 C 0.481 0.99878 0.36854 0.0
C643 C 0.46027 0.97926 0.4176 0.0
C644 C 0.44602 0.98224 0.38217 0.0
C645 C 0.47876 0.9864 0.40967 0.0
H646 H 0.46859 0.01046 0.30219 0.0
H647 H 0.43213 0.97621 0.38775 0.0
C648 C 0.39235 0.00847 0.15472 0.0
N649 N 0.37161 0.01186 0.06767 0.0
C650 C 0.39016 0.99293 0.12296 0.0
C651 C 0.38383 0.02569 0.14244 0.0
C652 C 0.37967 0.99494 0.07905 0.0
C653 C 0.37345 0.02713 0.09819 0.0
C654 C 0.44659 0.96786 0.24904 0.0
C655 C 0.46542 0.97127 0.23604 0.0
C656 C 0.44217 0.95286 0.28093 0.0
C657 C 0.47958 0.95968 0.25567 0.0
C658 C 0.45674 0.94159 0.29976 0.0
N659 N 0.47499 0.94522 0.28689 0.0
C660 C 0.46249 0.01665 0.14783 0.0
C661 C 0.44128 0.99637 0.10492 0.0
C662 C 0.47557 0.01526 0.10894 0.0
N663 N 0.44576 0.00719 0.14523 0.0
C664 C 0.45394 0.99458 0.06522 0.0
C665 C 0.47141 0.00384 0.06758 0.0
H666 H 0.46614 0.02445 0.18116 0.0
H667 H 0.42834 0.98832 0.10474 0.0
C668 C 0.36972 0.9679 0.22662 0.0
N669 N 0.3886 0.96438 0.22496 0.0
C670 C 0.35696 0.95506 0.20568 0.0
C671 C 0.38332 0.93499 0.18314 0.0
C672 C 0.39557 0.94822 0.20447 0.0
C673 C 0.36384 0.9386 0.18282 0.0
H674 H 0.36467 0.9811 0.24209 0.0
H675 H 0.41068 0.94605 0.20251 0.0
O676 O 0.43527 0.02272 0.26033 0.0
O677 O 0.40413 0.99611 0.30892 0.0
O678 O 0.40226 0.00675 0.19842 0.0
O679 O 0.4326 0.97945 0.23164 0.0
H680 H 0.45844 0.04732 0.30182 0.0
H681 H 0.42036 0.03823 0.17877 0.0
H682 H 0.46467 0.07966 0.26966 0.0
H683 H 0.42709 0.07069 0.14902 0.0
H684 H 0.36966 0.99835 0.4519 0.0
H685 H 0.42419 0.02241 0.35617 0.0
H686 H 0.37614 0.9853 0.36743 0.0
H687 H 0.41689 0.03475 0.44063 0.0
H688 H 0.39284 0.07911 0.35051 0.0
H689 H 0.34502 0.04793 0.29358 0.0
H690 H 0.49382 0.00675 0.36252 0.0
H691 H 0.45611 0.97184 0.45083 0.0
H692 H 0.39654 0.97946 0.13196 0.0
H693 H 0.38519 0.03781 0.16687 0.0
H694 H 0.37793 0.98306 0.05404 0.0
H695 H 0.36682 0.04038 0.08817 0.0
H696 H 0.46907 0.98288 0.21155 0.0
H697 H 0.42766 0.95015 0.29158 0.0
H698 H 0.49423 0.96223 0.24624 0.0
H699 H 0.45356 0.93002 0.32478 0.0
H700 H 0.48908 0.02238 0.11193 0.0
H701 H 0.45049 0.98548 0.03396 0.0
H702 H 0.34199 0.95824 0.20564 0.0
H703 H 0.38899 0.92244 0.16543 0.0
Li704 Li 0.7333 0.84305 0.50101 0.0
Li705 Li 0.76842 0.84208 0.48238 0.0
Li706 Li 0.7481 0.81993 0.44712 0.0
Li707 Li 0.75413 0.8165 0.53407 0.0
C708 C 0.74485 0.84876 0.38714 0.0
N709 N 0.74076 0.84959 0.28451 0.0
C710 C 0.76062 0.84658 0.35623 0.0
C711 C 0.72701 0.85144 0.36588 0.0
C712 C 0.75826 0.847 0.30443 0.0
C713 C 0.72523 0.85182 0.31389 0.0
C714 C 0.7602 0.85822 0.58028 0.0
C715 C 0.77587 0.86919 0.65491 0.0
N716 N 0.76964 0.88702 0.64545 0.0
C717 C 0.75382 0.87662 0.57154 0.0
C718 C 0.77117 0.85441 0.62255 0.0
C719 C 0.75879 0.891 0.60483 0.0
C720 C 0.70944 0.85619 0.57383 0.0
N721 N 0.71312 0.8584 0.52432 0.0
C722 C 0.69056 0.88348 0.51886 0.0
C723 C 0.70397 0.87163 0.49649 0.0
C724 C 0.68696 0.88183 0.57032 0.0
C725 C 0.69646 0.86791 0.59781 0.0
H726 H 0.71711 0.84566 0.59503 0.0
H727 H 0.70741 0.87334 0.45743 0.0
C728 C 0.8046 0.85051 0.44184 0.0
N729 N 0.78945 0.85804 0.46614 0.0
C730 C 0.81837 0.86228 0.42106 0.0
C731 C 0.80083 0.88936 0.45085 0.0
C732 C 0.7874 0.87707 0.47103 0.0
C733 C 0.81631 0.88192 0.42481 0.0
H734 H 0.80552 0.83542 0.43608 0.0
H735 H 0.77483 0.88278 0.48812 0.0
C736 C 0.71658 0.80358 0.47878 0.0
N737 N 0.6914 0.77944 0.43246 0.0
C738 C 0.72102 0.78444 0.47328 0.0
C739 C 0.69928 0.81043 0.46129 0.0
C740 C 0.70813 0.77247 0.44951 0.0
C741 C 0.68674 0.79799 0.43791 0.0
C742 C 0.78972 0.80953 0.50107 0.0
C743 C 0.79881 0.79261 0.48856 0.0
C744 C 0.79777 0.82136 0.5371 0.0
C745 C 0.81584 0.78793 0.5119 0.0
C746 C 0.81483 0.81622 0.55955 0.0
N747 N 0.82344 0.79974 0.5466 0.0
C748 C 0.76148 0.79506 0.37556 0.0
C749 C 0.72989 0.80398 0.35794 0.0
C750 C 0.76181 0.78306 0.33443 0.0
N751 N 0.74563 0.80498 0.3872 0.0
C752 C 0.72969 0.79228 0.31572 0.0
C753 C 0.74576 0.78147 0.30424 0.0
H754 H 0.77398 0.79643 0.39822 0.0
H755 H 0.71751 0.81217 0.3673 0.0
C756 C 0.74827 0.80508 0.6332 0.0
N757 N 0.75546 0.79956 0.58841 0.0
C758 C 0.74618 0.79196 0.67181 0.0
C759 C 0.7593 0.7679 0.61763 0.0
C760 C 0.76105 0.78145 0.58002 0.0
C761 C 0.75151 0.77313 0.66372 0.0
H762 H 0.74348 0.81948 0.63823 0.0
H763 H 0.76615 0.77737 0.54351 0.0
O764 O 0.74687 0.84811 0.43793 0.0
O765 O 0.75522 0.84385 0.54864 0.0
O766 O 0.72906 0.81556 0.5014 0.0
O767 O 0.77272 0.81397 0.47936 0.0
H768 H 0.77451 0.84435 0.37204 0.0
H769 H 0.71461 0.85288 0.38922 0.0
H770 H 0.77032 0.84522 0.28007 0.0
H771 H 0.71149 0.85376 0.2969 0.0
H772 H 0.78443 0.86646 0.68763 0.0
H773 H 0.74521 0.87981 0.5392 0.0
H774 H 0.776 0.84019 0.63031 0.0
H775 H 0.75401 0.90533 0.59837 0.0
H776 H 0.68348 0.89416 0.49672 0.0
H777 H 0.69406 0.86635 0.63757 0.0
H778 H 0.83006 0.85618 0.40053 0.0
H779 H 0.79878 0.9045 0.45366 0.0
H780 H 0.73438 0.77895 0.48669 0.0
H781 H 0.69566 0.82523 0.46541 0.0
H782 H 0.71143 0.75766 0.44453 0.0
H783 H 0.67333 0.8031 0.42392 0.0
H784 H 0.79268 0.78302 0.46155 0.0
H785 H 0.79108 0.83448 0.54732 0.0
H786 H 0.82297 0.77487 0.50258 0.0
H787 H 0.82123 0.82533 0.58728 0.0
H788 H 0.77449 0.77505 0.32621 0.0
H789 H 0.71712 0.79146 0.29271 0.0
H790 H 0.74004 0.79631 0.70706 0.0
H791 H 0.76339 0.7534 0.61041 0.0
Li792 Li 0.40383 0.51859 0.74063 0.0
Li793 Li 0.4011 0.48572 0.77104 0.0
Li794 Li 0.42696 0.50492 0.7945 0.0
Li795 Li 0.42562 0.49532 0.70938 0.0
C796 C 0.40245 0.5198 0.85232 0.0
N797 N 0.40998 0.53999 0.93842 0.0
C798 C 0.40048 0.5112 0.89904 0.0
C799 C 0.40813 0.53869 0.84937 0.0
C800 C 0.4044 0.52164 0.94214 0.0
C801 C 0.41187 0.54866 0.89334 0.0
C802 C 0.38133 0.49918 0.67765 0.0
C803 C 0.36369 0.50556 0.60243 0.0
N804 N 0.34784 0.50822 0.6303 0.0
C805 C 0.36489 0.50204 0.70557 0.0
C806 C 0.38077 0.50096 0.62568 0.0
C807 C 0.34808 0.50657 0.68093 0.0
C808 C 0.39409 0.54547 0.66962 0.0
N809 N 0.39002 0.53989 0.71702 0.0
C810 C 0.36429 0.56172 0.7213 0.0
C811 C 0.37559 0.54779 0.74332 0.0
C812 C 0.36777 0.5672 0.67169 0.0
C813 C 0.383 0.5591 0.64596 0.0
H814 H 0.40551 0.53873 0.64953 0.0
H815 H 0.37249 0.54284 0.78065 0.0
C816 C 0.3888 0.46055 0.84309 0.0
N817 N 0.38505 0.46627 0.79562 0.0
C818 C 0.37712 0.4474 0.86666 0.0
C819 C 0.35836 0.44562 0.79122 0.0
C820 C 0.37042 0.45885 0.76906 0.0
C821 C 0.36157 0.44002 0.8408 0.0
H822 H 0.40076 0.46644 0.86284 0.0
H823 H 0.36797 0.46335 0.73104 0.0
C824 C 0.45024 0.52475 0.72925 0.0
N825 N 0.48824 0.53252 0.71702 0.0
C826 C 0.46381 0.5111 0.74121 0.0
C827 C 0.45601 0.54231 0.71082 0.0
C828 C 0.48294 0.51531 0.73482 0.0
C829 C 0.47529 0.54598 0.70495 0.0
C830 C 0.43042 0.46034 0.75537 0.0
C831 C 0.44382 0.44896 0.77921 0.0
C832 C 0.41925 0.4527 0.71725 0.0
C833 C 0.44585 0.43012 0.7645 0.0
C834 C 0.42169 0.43379 0.70367 0.0
N835 N 0.43483 0.42299 0.72736 0.0
C836 C 0.44568 0.49189 0.87785 0.0
C837 C 0.4545 0.52341 0.85819 0.0
C838 C 0.45904 0.49115 0.916 0.0
N839 N 0.44388 0.50771 0.84941 0.0
C840 C 0.46811 0.52327 0.89611 0.0
C841 C 0.4706 0.50686 0.92479 0.0
H842 H 0.43698 0.47967 0.87004 0.0
H843 H 0.45276 0.5358 0.83498 0.0
C844 C 0.43738 0.50237 0.6131 0.0
N845 N 0.44049 0.49035 0.65183 0.0
C846 C 0.45028 0.5035 0.57385 0.0
C847 C 0.46905 0.47931 0.61415 0.0
C848 C 0.45575 0.47862 0.65269 0.0
C849 C 0.46655 0.49224 0.57501 0.0
H850 H 0.42552 0.512 0.61441 0.0
H851 H 0.45831 0.46972 0.68478 0.0
O852 O 0.39938 0.50967 0.80955 0.0
O853 O 0.39797 0.49498 0.70118 0.0
O854 O 0.43137 0.52108 0.73517 0.0
O855 O 0.42837 0.47879 0.76977 0.0
H856 H 0.3961 0.49661 0.90204 0.0
H857 H 0.40991 0.54549 0.81346 0.0
H858 H 0.40305 0.51514 0.97855 0.0
H859 H 0.41639 0.56326 0.8916 0.0
H860 H 0.36304 0.507 0.56224 0.0
H861 H 0.36515 0.50092 0.74591 0.0
H862 H 0.39337 0.49879 0.60353 0.0
H863 H 0.33526 0.50887 0.70206 0.0
H864 H 0.35256 0.56769 0.74199 0.0
H865 H 0.38597 0.56297 0.60761 0.0
H866 H 0.37999 0.44324 0.90487 0.0
H867 H 0.3465 0.44003 0.7703 0.0
H868 H 0.45967 0.49741 0.75542 0.0
H869 H 0.44567 0.553 0.70121 0.0
H870 H 0.49358 0.50489 0.74402 0.0
H871 H 0.47995 0.55951 0.69075 0.0
H872 H 0.4526 0.45466 0.80873 0.0
H873 H 0.4088 0.46119 0.69826 0.0
H874 H 0.45618 0.42117 0.78262 0.0
H875 H 0.41314 0.4277 0.67427 0.0
H876 H 0.46066 0.47832 0.93771 0.0
H877 H 0.47689 0.5356 0.90226 0.0
H878 H 0.44813 0.51375 0.54432 0.0
H879 H 0.48164 0.47063 0.61618 0.0
Li880 Li 0.75295 0.17913 0.96236 0.0
Li881 Li 0.74617 0.17776 0.04837 0.0
Li882 Li 0.76748 0.15439 0.01295 0.0
Li883 Li 0.73201 0.15455 0.99105 0.0
C884 C 0.78699 0.19173 0.007 0.0
N885 N 0.81936 0.21197 0.98495 0.0
C886 C 0.7881 0.21099 0.01853 0.0
C887 C 0.8025 0.18271 0.98515 0.0
C888 C 0.80454 0.22099 0.00681 0.0
C889 C 0.8187 0.1932 0.97407 0.0
C890 C 0.72015 0.19954 0.99824 0.0
C891 C 0.69303 0.21998 0.00592 0.0
N892 N 0.70472 0.23524 0.00769 0.0
C893 C 0.73188 0.21541 1.00013 0.0
C894 C 0.70056 0.20181 0.00112 0.0
C895 C 0.72382 0.23334 0.00489 0.0
C896 C 0.7377 0.19884 0.88301 0.0
N897 N 0.75459 0.196 0.90618 0.0
C898 C 0.76923 0.21929 0.85424 0.0
C899 C 0.77037 0.20555 0.8917 0.0
C900 C 0.75175 0.22297 0.83158 0.0
C901 C 0.73593 0.21237 0.8455 0.0
H902 H 0.72542 0.19089 0.89462 0.0
H903 H 0.78374 0.2029 0.90965 0.0
C904 C 0.76036 0.19779 0.12836 0.0
N905 N 0.74364 0.19277 0.10712 0.0
C906 C 0.76079 0.21043 0.1682 0.0
C907 C 0.72663 0.2117 0.16587 0.0
C908 C 0.72687 0.19917 0.12539 0.0
C909 C 0.7438 0.21773 0.18686 0.0
H910 H 0.77346 0.19227 0.11358 0.0
H911 H 0.71377 0.19487 0.10796 0.0
C912 C 0.75921 0.15243 0.89724 0.0
N913 N 0.76826 0.15586 0.79723 0.0
C914 C 0.7449 0.15352 0.86134 0.0
C915 C 0.77811 0.15276 0.88221 0.0
C916 C 0.74976 0.15535 0.81099 0.0
C917 C 0.78241 0.15458 0.83149 0.0
C918 C 0.73694 0.14938 0.10317 0.0
C919 C 0.74858 0.14923 0.14537 0.0
C920 C 0.71733 0.15016 0.1089 0.0
C921 C 0.74036 0.14998 0.19279 0.0
C922 C 0.70966 0.15085 0.15697 0.0
N923 N 0.72124 0.15077 0.19755 0.0
C924 C 0.79711 0.14347 0.07408 0.0
C925 C 0.79251 0.12268 0.00553 0.0
C926 C 0.81069 0.13144 0.0945 0.0
N927 N 0.78813 0.13874 0.03096 0.0
C928 C 0.80618 0.1103 0.0244 0.0
C929 C 0.81509 0.11449 0.07 0.0
H930 H 0.79323 0.15632 0.09346 0.0
H931 H 0.78496 0.11922 0.97159 0.0
C932 C 0.69904 0.14684 0.93696 0.0
N933 N 0.71132 0.13936 0.97069 0.0
C934 C 0.68557 0.13535 0.91385 0.0
C935 C 0.69699 0.10892 0.96269 0.0
C936 C 0.7104 0.12088 0.98447 0.0
C937 C 0.68471 0.11609 0.92609 0.0
H938 H 0.70033 0.16153 0.92628 0.0
H939 H 0.72055 0.1153 0.01087 0.0
O940 O 0.77108 0.18167 0.01877 0.0
O941 O 0.72772 0.18181 0.99414 0.0
O942 O 0.75473 0.15127 0.94687 0.0
O943 O 0.74469 0.1494 0.0564 0.0
H944 H 0.77645 0.21815 0.03658 0.0
H945 H 0.8021 0.16778 0.97691 0.0
H946 H 0.80554 0.23591 0.01529 0.0
H947 H 0.83076 0.1864 0.95691 0.0
H948 H 0.67789 0.22195 0.00827 0.0
H949 H 0.74703 0.21388 0.99781 0.0
H950 H 0.6913 0.18963 0.99985 0.0
H951 H 0.73274 0.24575 0.00636 0.0
H952 H 0.78171 0.22723 0.84379 0.0
H953 H 0.72229 0.21486 0.82834 0.0
H954 H 0.77425 0.21472 0.18384 0.0
H955 H 0.71328 0.21704 0.17979 0.0
H956 H 0.7302 0.15324 0.87228 0.0
H957 H 0.78936 0.15161 0.90935 0.0
H958 H 0.73883 0.1564 0.78287 0.0
H959 H 0.79698 0.15497 0.81936 0.0
H960 H 0.76379 0.14875 0.14155 0.0
H961 H 0.70815 0.15047 0.07656 0.0
H962 H 0.74919 0.14999 0.22579 0.0
H963 H 0.6945 0.15154 0.16199 0.0
H964 H 0.81732 0.13505 0.12972 0.0
H965 H 0.80931 0.09729 0.00471 0.0
H966 H 0.67633 0.14126 0.88559 0.0
H967 H 0.69667 0.0941 0.97277 0.0
Li968 Li 0.10019 0.51776 0.2619 0.0
Li969 Li 0.09925 0.48394 0.2364 0.0
Li970 Li 0.07608 0.50495 0.20815 0.0
Li971 Li 0.07516 0.496 0.29382 0.0
C972 C 0.10217 0.51629 0.15014 0.0
N973 N 0.09713 0.53542 0.06114 0.0
C974 C 0.10327 0.50659 0.10472 0.0
C975 C 0.09861 0.53573 0.15029 0.0
C976 C 0.10063 0.51652 0.06013 0.0
C977 C 0.09611 0.54515 0.10491 0.0
C978 C 0.12119 0.49317 0.32192 0.0
C979 C 0.14359 0.48715 0.38794 0.0
N980 N 0.15799 0.49125 0.35607 0.0
C981 C 0.13621 0.49732 0.28979 0.0
C982 C 0.12488 0.48807 0.37139 0.0
C983 C 0.15471 0.49627 0.30779 0.0
C984 C 0.11196 0.54348 0.33277 0.0
N985 N 0.11539 0.53809 0.28487 0.0
C986 C 0.14145 0.55949 0.27931 0.0
C987 C 0.12973 0.54577 0.25782 0.0
C988 C 0.13841 0.56501 0.32907 0.0
C989 C 0.1234 0.55698 0.3558 0.0
H990 H 0.1006 0.53688 0.35346 0.0
H991 H 0.13235 0.54093 0.22012 0.0
C992 C 0.10806 0.45575 0.16954 0.0
N993 N 0.11284 0.46193 0.21577 0.0
C994 C 0.11617 0.43941 0.14983 0.0
C995 C 0.13442 0.43616 0.22505 0.0
C996 C 0.12594 0.45262 0.24346 0.0
C997 C 0.12868 0.42826 0.17873 0.0
H998 H 0.09784 0.4636 0.14783 0.0
H999 H 0.1299 0.45791 0.27983 0.0
C1000 C 0.05838 0.53399 0.25932 0.0
N1001 N 0.0289 0.55892 0.24415 0.0
C1002 C 0.03981 0.52732 0.25683 0.0
C1003 C 0.06198 0.55332 0.25436 0.0
C1004 C 0.0251 0.54016 0.24903 0.0
C1005 C 0.04687 0.5657 0.24666 0.0
C1006 C 0.06785 0.46161 0.25234 0.0
C1007 C 0.0538 0.45078 0.22932 0.0
C1008 C 0.07789 0.45409 0.29275 0.0
C1009 C 0.05007 0.43258 0.24698 0.0
C1010 C 0.07374 0.43582 0.30926 0.0
N1011 N 0.06004 0.42553 0.28623 0.0
C1012 C 0.0556 0.49183 0.12851 0.0
C1013 C 0.05156 0.52496 0.13723 0.0
C1014 C 0.04211 0.49121 0.09069 0.0
N1015 N 0.05967 0.5084 0.15193 0.0
C1016 C 0.03788 0.52498 0.09946 0.0
C1017 C 0.03284 0.50784 0.07668 0.0
H1018 H 0.06255 0.47896 0.14009 0.0
H1019 H 0.05531 0.53805 0.15546 0.0
C1020 C 0.06473 0.49838 0.39496 0.0
N1021 N 0.05898 0.49238 0.34916 0.0
C1022 C 0.05194 0.49895 0.43468 0.0
C1023 C 0.02771 0.48687 0.37935 0.0
C1024 C 0.04101 0.48632 0.34091 0.0
C1025 C 0.0331 0.49357 0.42654 0.0
H1026 H 0.07904 0.50342 0.40004 0.0
H1027 H 0.03679 0.48187 0.30391 0.0
O1028 O 0.10408 0.50678 0.19434 0.0
O1029 O 0.10291 0.49462 0.30572 0.0
O1030 O 0.07301 0.52171 0.26691 0.0
O1031 O 0.07158 0.47947 0.23512 0.0
H1032 H 0.10605 0.49157 0.10385 0.0
H1033 H 0.0975 0.5434 0.18513 0.0
H1034 H 0.10134 0.50918 0.02471 0.0
H1035 H 0.09323 0.56017 0.1045 0.0
H1036 H 0.14666 0.48322 0.42615 0.0
H1037 H 0.13365 0.50133 0.25141 0.0
H1038 H 0.11339 0.48493 0.39677 0.0
H1039 H 0.16647 0.49948 0.28338 0.0
H1040 H 0.15301 0.56539 0.2579 0.0
H1041 H 0.12078 0.5609 0.39432 0.0
H1042 H 0.11271 0.43608 0.11158 0.0
H1043 H 0.14569 0.4303 0.24724 0.0
H1044 H 0.03683 0.51238 0.25992 0.0
H1045 H 0.07629 0.55868 0.25638 0.0
H1046 H 0.01066 0.53519 0.24666 0.0
H1047 H 0.04943 0.58071 0.24265 0.0
H1048 H 0.04582 0.4564 0.19818 0.0
H1049 H 0.08877 0.46216 0.31128 0.0
H1050 H 0.03923 0.42405 0.22948 0.0
H1051 H 0.08142 0.42983 0.34042 0.0
H1052 H 0.03858 0.47781 0.07339 0.0
H1053 H 0.03099 0.53806 0.08898 0.0
H1054 H 0.05646 0.50419 0.47078 0.0
H1055 H 0.01325 0.48264 0.37204 0.0
Li1056 Li 0.25534 0.17949 0.54237 0.0
Li1057 Li 0.23464 0.155 0.51577 0.0
Li1058 Li 0.2683 0.15478 0.48961 0.0
Li1059 Li 0.24575 0.17894 0.4568 0.0
C1060 C 0.26811 0.14747 0.59818 0.0
N1061 N 0.2894 0.13807 0.68111 0.0
C1062 C 0.25922 0.14182 0.64236 0.0
C1063 C 0.28784 0.14804 0.59595 0.0
C1064 C 0.27023 0.13721 0.68395 0.0
C1065 C 0.29835 0.14332 0.63833 0.0
C1066 C 0.21655 0.18648 0.55274 0.0
C1067 C 0.18819 0.20189 0.58171 0.0
N1068 N 0.1907 0.19397 0.62755 0.0
C1069 C 0.21886 0.17853 0.60015 0.0
C1070 C 0.2011 0.19826 0.5434 0.0
C1071 C 0.20564 0.18247 0.63746 0.0
C1072 C 0.25224 0.21497 0.58455 0.0
N1073 N 0.26003 0.19782 0.59403 0.0
C1074 C 0.27176 0.20909 0.67235 0.0
C1075 C 0.26935 0.19455 0.63748 0.0
C1076 C 0.26543 0.22769 0.66184 0.0
C1077 C 0.25437 0.22984 0.61818 0.0
H1078 H 0.24416 0.21708 0.55071 0.0
H1079 H 0.27472 0.18066 0.64581 0.0
C1080 C 0.22037 0.12213 0.5583 0.0
N1081 N 0.21483 0.13857 0.53638 0.0
C1082 C 0.20703 0.11011 0.57979 0.0
C1083 C 0.18244 0.1319 0.55465 0.0
C1084 C 0.19627 0.1435 0.53339 0.0
C1085 C 0.18789 0.11515 0.57868 0.0
H1086 H 0.23523 0.11862 0.56019 0.0
H1087 H 0.19226 0.15664 0.51574 0.0
C1088 C 0.28209 0.19798 0.49441 0.0
N1089 N 0.30225 0.22982 0.52182 0.0
C1090 C 0.27629 0.21587 0.47828 0.0
C1091 C 0.29829 0.19629 0.52399 0.0
C1092 C 0.28664 0.23179 0.49262 0.0
C1093 C 0.30824 0.21256 0.53762 0.0
C1094 C 0.23095 0.14528 0.41613 0.0
C1095 C 0.23303 0.12886 0.38761 0.0
C1096 C 0.21426 0.15578 0.41284 0.0
C1097 C 0.21832 0.12321 0.35612 0.0
C1098 C 0.19988 0.14965 0.38094 0.0
N1099 N 0.20219 0.13363 0.35347 0.0
C1100 C 0.28508 0.11999 0.46693 0.0
C1101 C 0.3048 0.14653 0.45181 0.0
C1102 C 0.29846 0.10788 0.44581 0.0
N1103 N 0.2884 0.1389 0.46901 0.0
C1104 C 0.31862 0.13492 0.43055 0.0
C1105 C 0.31531 0.11542 0.42673 0.0
H1106 H 0.27175 0.11443 0.48023 0.0
H1107 H 0.30689 0.16167 0.45322 0.0
C1108 C 0.22976 0.20927 0.40179 0.0
N1109 N 0.24151 0.19408 0.39977 0.0
C1110 C 0.22988 0.22259 0.36323 0.0
C1111 C 0.25361 0.20391 0.32069 0.0
C1112 C 0.25304 0.19098 0.36001 0.0
C1113 C 0.24225 0.22012 0.32282 0.0
H1114 H 0.22111 0.21157 0.43452 0.0
H1115 H 0.26249 0.17895 0.36017 0.0
O1116 O 0.25753 0.15186 0.557 0.0
O1117 O 0.22919 0.18268 0.51532 0.0
O1118 O 0.27183 0.18226 0.48186 0.0
O1119 O 0.24516 0.15085 0.44745 0.0
H1120 H 0.24396 0.14098 0.64455 0.0
H1121 H 0.29497 0.15208 0.56195 0.0
H1122 H 0.26353 0.13291 0.71845 0.0
H1123 H 0.31363 0.14379 0.63719 0.0
H1124 H 0.17615 0.21096 0.57497 0.0
H1125 H 0.23071 0.16942 0.60808 0.0
H1126 H 0.19906 0.20448 0.50685 0.0
H1127 H 0.20726 0.17638 0.67428 0.0
H1128 H 0.27799 0.20509 0.70744 0.0
H1129 H 0.24683 0.24272 0.60978 0.0
H1130 H 0.2116 0.09723 0.59808 0.0
H1131 H 0.16772 0.13608 0.55323 0.0
H1132 H 0.26379 0.21751 0.45551 0.0
H1133 H 0.30307 0.1826 0.53662 0.0
H1134 H 0.28222 0.24572 0.48068 0.0
H1135 H 0.32072 0.21145 0.5608 0.0
H1136 H 0.24586 0.12057 0.38989 0.0
H1137 H 0.21236 0.16848 0.43477 0.0
H1138 H 0.21972 0.11053 0.33382 0.0
H1139 H 0.18687 0.15762 0.37806 0.0
H1140 H 0.29553 0.09288 0.44317 0.0
H1141 H 0.33149 0.1411 0.41595 0.0
H1142 H 0.22104 0.23506 0.36583 0.0
H1143 H 0.26335 0.20173 0.29 0.0
Li1144 Li 0.56956 0.50599 0.30155 0.0
Li1145 Li 0.5932 0.48396 0.26866 0.0
Li1146 Li 0.59416 0.51846 0.24445 0.0
Li1147 Li 0.57011 0.49784 0.21004 0.0
C1148 C 0.60315 0.51434 0.35571 0.0
N1149 N 0.61488 0.52998 0.44514 0.0
C1150 C 0.61013 0.50276 0.39381 0.0
C1151 C 0.60247 0.53391 0.36278 0.0
C1152 C 0.61589 0.51093 0.43884 0.0
C1153 C 0.60838 0.54154 0.40833 0.0
C1154 C 0.55949 0.46313 0.27593 0.0
C1155 C 0.55401 0.43151 0.24542 0.0
N1156 N 0.54763 0.42637 0.29138 0.0
C1157 C 0.55265 0.45759 0.32268 0.0
C1158 C 0.55998 0.45006 0.23681 0.0
C1159 C 0.54681 0.43892 0.32982 0.0
C1160 C 0.53481 0.51429 0.34568 0.0
N1161 N 0.55284 0.50897 0.35632 0.0
C1162 C 0.54421 0.50116 0.4401 0.0
C1163 C 0.5578 0.50269 0.40253 0.0
C1164 C 0.52542 0.50594 0.4295 0.0
C1165 C 0.52076 0.51294 0.38211 0.0
H1166 H 0.53119 0.51869 0.30817 0.0
H1167 H 0.57198 0.49776 0.40941 0.0
C1168 C 0.62453 0.45853 0.26729 0.0
N1169 N 0.60799 0.46303 0.29032 0.0
C1170 C 0.63662 0.44508 0.2884 0.0
C1171 C 0.61428 0.44096 0.35591 0.0
C1172 C 0.60267 0.45448 0.33361 0.0
C1173 C 0.6316 0.43643 0.33364 0.0
H1174 H 0.62869 0.46594 0.2337 0.0
H1175 H 0.58989 0.45891 0.35229 0.0
C1176 C 0.56202 0.54158 0.24327 0.0
N1177 N 0.55296 0.5796 0.24458 0.0
C1178 C 0.55725 0.55089 0.19895 0.0
C1179 C 0.56174 0.55152 0.28839 0.0
C1180 C 0.55285 0.57014 0.20033 0.0
C1181 C 0.55724 0.57075 0.28826 0.0
C1182 C 0.60132 0.48737 0.15665 0.0
C1183 C 0.60628 0.49851 0.11556 0.0
C1184 C 0.59995 0.46778 0.15119 0.0
C1185 C 0.60934 0.48987 0.06932 0.0
C1186 C 0.60314 0.45966 0.10436 0.0
N1187 N 0.60769 0.47079 0.0647 0.0
C1188 C 0.62657 0.54261 0.2493 0.0
C1189 C 0.60577 0.54745 0.18096 0.0
C1190 C 0.63928 0.55585 0.22981 0.0
N1191 N 0.61022 0.53868 0.22462 0.0
C1192 C 0.61803 0.56075 0.1602 0.0
C1193 C 0.63508 0.56483 0.18442 0.0
H1194 H 0.63009 0.53498 0.28303 0.0
H1195 H 0.5931 0.54348 0.16107 0.0
C1196 C 0.53803 0.48523 0.15573 0.0
N1197 N 0.55424 0.49551 0.15323 0.0
C1198 C 0.52479 0.48622 0.11707 0.0
C1199 C 0.54527 0.50821 0.07396 0.0
C1200 C 0.55809 0.5068 0.11338 0.0
C1201 C 0.5283 0.49806 0.07611 0.0
H1202 H 0.53498 0.47694 0.18867 0.0
H1203 H 0.57068 0.51545 0.11338 0.0
O1204 O 0.59753 0.50656 0.31129 0.0
O1205 O 0.56516 0.4814 0.26822 0.0
O1206 O 0.56629 0.52271 0.24261 0.0
O1207 O 0.59819 0.49559 0.20219 0.0
H1208 H 0.61101 0.48762 0.38881 0.0
H1209 H 0.59771 0.54314 0.33319 0.0
H1210 H 0.6212 0.50212 0.46875 0.0
H1211 H 0.60788 0.55666 0.41432 0.0
H1212 H 0.55436 0.42124 0.21549 0.0
H1213 H 0.55195 0.46756 0.35324 0.0
H1214 H 0.56468 0.45422 0.20001 0.0
H1215 H 0.54161 0.43442 0.36591 0.0
H1216 H 0.54811 0.49552 0.47629 0.0
H1217 H 0.5063 0.5166 0.37294 0.0
H1218 H 0.65003 0.44195 0.27071 0.0
H1219 H 0.61018 0.43468 0.39118 0.0
H1220 H 0.55704 0.54336 0.16378 0.0
H1221 H 0.5648 0.54444 0.32325 0.0
H1222 H 0.54931 0.57755 0.16623 0.0
H1223 H 0.55707 0.57862 0.32291 0.0
H1224 H 0.60766 0.51367 0.11925 0.0
H1225 H 0.59662 0.45891 0.18286 0.0
H1226 H 0.61304 0.49833 0.03712 0.0
H1227 H 0.60206 0.44451 0.09958 0.0
H1228 H 0.65249 0.55859 0.24894 0.0
H1229 H 0.61457 0.56727 0.12474 0.0
H1230 H 0.51168 0.47837 0.11982 0.0
H1231 H 0.54821 0.51763 0.04301 0.0
Li1232 Li 0.24375 0.82494 0.0424 0.0
Li1233 Li 0.26608 0.84953 0.01032 0.0
Li1234 Li 0.23257 0.84854 0.98219 0.0
Li1235 Li 0.25397 0.82444 0.95717 0.0
C1236 C 0.22791 0.85846 0.08136 0.0
N1237 N 0.19834 0.86976 0.14175 0.0
C1238 C 0.22929 0.87515 0.10905 0.0
C1239 C 0.2115 0.84751 0.08432 0.0
C1240 C 0.21418 0.88062 0.1394 0.0
C1241 C 0.1967 0.85347 0.11508 0.0
C1242 C 0.28101 0.80686 0.0065 0.0
C1243 C 0.30804 0.79338 0.96467 0.0
N1244 N 0.30263 0.77587 0.98011 0.0
C1245 C 0.27581 0.78874 0.02227 0.0
C1246 C 0.29734 0.80922 0.9778 0.0
C1247 C 0.2869 0.77326 0.00846 0.0
C1248 C 0.22929 0.7936 0.09634 0.0
N1249 N 0.23958 0.80979 0.0995 0.0
C1250 C 0.25114 0.80116 0.18015 0.0
C1251 C 0.25006 0.81398 0.14062 0.0
C1252 C 0.24145 0.78394 0.17678 0.0
C1253 C 0.23003 0.78034 0.135 0.0
H1254 H 0.22151 0.79047 0.06255 0.0
H1255 H 0.2584 0.82679 0.14139 0.0
C1256 C 0.28273 0.88463 0.03263 0.0
N1257 N 0.28584 0.86566 0.03223 0.0
C1258 C 0.29586 0.89677 0.05486 0.0
C1259 C 0.31528 0.86964 0.07475 0.0
C1260 C 0.30177 0.85801 0.05225 0.0
C1261 C 0.31218 0.8892 0.07683 0.0
H1262 H 0.26976 0.89023 0.01715 0.0
H1263 H 0.30368 0.84284 0.05216 0.0
C1264 C 0.21531 0.81646 0.94556 0.0
N1265 N 0.18992 0.8079 0.87041 0.0
C1266 C 0.21763 0.82414 0.89786 0.0
C1267 C 0.20008 0.8044 0.95504 0.0
C1268 C 0.20465 0.81966 0.86038 0.0
C1269 C 0.1874 0.80024 0.91655 0.0
C1270 C 0.26637 0.85646 0.90114 0.0
C1271 C 0.2575 0.86138 0.85629 0.0
C1272 C 0.28609 0.85666 0.90411 0.0
C1273 C 0.26855 0.86598 0.81478 0.0
C1274 C 0.29664 0.86135 0.86179 0.0
N1275 N 0.28772 0.86585 0.81835 0.0
C1276 C 0.21782 0.88093 0.93799 0.0
C1277 C 0.19404 0.85919 0.96262 0.0
C1278 C 0.20433 0.89267 0.91598 0.0
N1279 N 0.21252 0.86447 0.96013 0.0
C1280 C 0.18006 0.87049 0.94083 0.0
C1281 C 0.18528 0.88731 0.91678 0.0
H1282 H 0.23262 0.88473 0.93648 0.0
H1283 H 0.1902 0.84603 0.98046 0.0
C1284 C 0.25175 0.78881 0.91575 0.0
N1285 N 0.25937 0.80602 0.90617 0.0
C1286 C 0.25422 0.77385 0.88255 0.0
C1287 C 0.27171 0.7946 0.82865 0.0
C1288 C 0.26894 0.80923 0.86307 0.0
C1289 C 0.26551 0.77596 0.83931 0.0
H1290 H 0.2435 0.78671 0.94931 0.0
H1291 H 0.27421 0.82316 0.85466 0.0
O1292 O 0.24251 0.85306 0.05111 0.0
O1293 O 0.27004 0.82214 0.01857 0.0
O1294 O 0.22773 0.82075 0.9831 0.0
O1295 O 0.25575 0.8521 0.94225 0.0
H1296 H 0.2419 0.8838 0.107 0.0
H1297 H 0.21014 0.83459 0.06302 0.0
H1298 H 0.21504 0.89351 0.16105 0.0
H1299 H 0.18391 0.84515 0.11769 0.0
H1300 H 0.32064 0.795 0.94218 0.0
H1301 H 0.26324 0.78659 0.04441 0.0
H1302 H 0.30167 0.8231 0.9655 0.0
H1303 H 0.28296 0.75916 0.02014 0.0
H1304 H 0.26014 0.80422 0.21189 0.0
H1305 H 0.2225 0.76707 0.1314 0.0
H1306 H 0.29309 0.91183 0.05611 0.0
H1307 H 0.32775 0.86343 0.09158 0.0
H1308 H 0.22932 0.83344 0.88988 0.0
H1309 H 0.19805 0.79838 0.99182 0.0
H1310 H 0.20628 0.82553 0.82331 0.0
H1311 H 0.17553 0.79095 0.92337 0.0
H1312 H 0.24224 0.86168 0.85352 0.0
H1313 H 0.29318 0.85327 0.93866 0.0
H1314 H 0.26187 0.86971 0.77977 0.0
H1315 H 0.31191 0.86146 0.86351 0.0
H1316 H 0.20873 0.90561 0.89774 0.0
H1317 H 0.16541 0.86607 0.94208 0.0
H1318 H 0.2467 0.76097 0.89092 0.0
H1319 H 0.27811 0.79852 0.7937 0.0
Li1320 Li 0.93154 0.4943 0.79723 0.0
Li1321 Li 0.90697 0.51497 0.75753 0.0
Li1322 Li 0.90775 0.48031 0.73992 0.0
Li1323 Li 0.93214 0.50039 0.70988 0.0
C1324 C 0.8943 0.49249 0.84863 0.0
N1325 N 0.87541 0.49106 0.93891 0.0
C1326 C 0.89341 0.50851 0.87914 0.0
C1327 C 0.88536 0.47582 0.86373 0.0
C1328 C 0.88387 0.50748 0.92474 0.0
C1329 C 0.87594 0.47537 0.90958 0.0
C1330 C 0.94848 0.5301 0.74664 0.0
C1331 C 0.95928 0.55467 0.69116 0.0
N1332 N 0.97738 0.55131 0.70586 0.0
C1333 C 0.96716 0.52695 0.76144 0.0
C1334 C 0.94445 0.54413 0.71145 0.0
C1335 C 0.98159 0.53781 0.74031 0.0
C1336 C 0.96277 0.48172 0.85614 0.0
N1337 N 0.94723 0.49305 0.855 0.0
C1338 C 0.95728 0.50896 0.92924 0.0
C1339 C 0.94428 0.50646 0.89058 0.0
C1340 C 0.97352 0.49765 0.93073 0.0
C1341 C 0.97611 0.48369 0.89424 0.0
H1342 H 0.9654 0.47183 0.82622 0.0
H1343 H 0.93239 0.51593 0.88742 0.0
C1344 C 0.87189 0.5327 0.77239 0.0
N1345 N 0.89089 0.53553 0.7731 0.0
C1346 C 0.85976 0.54616 0.79317 0.0
C1347 C 0.88699 0.56537 0.81368 0.0
C1348 C 0.89859 0.55157 0.79239 0.0
C1349 C 0.8674 0.56248 0.81501 0.0
H1350 H 0.86625 0.51957 0.75792 0.0
H1351 H 0.91379 0.55318 0.7936 0.0
C1352 C 0.93917 0.45799 0.76132 0.0
N1353 N 0.94632 0.42228 0.79859 0.0
C1354 C 0.95203 0.4461 0.73717 0.0
C1355 C 0.92998 0.45174 0.80447 0.0
C1356 C 0.95544 0.42809 0.75658 0.0
C1357 C 0.93378 0.43364 0.82273 0.0
C1358 C 0.90109 0.49468 0.64554 0.0
C1359 C 0.91185 0.47971 0.62667 0.0
C1360 C 0.88607 0.50184 0.61742 0.0
C1361 C 0.90744 0.47221 0.57982 0.0
C1362 C 0.8821 0.49395 0.57071 0.0
N1363 N 0.89278 0.47942 0.55304 0.0
C1364 C 0.87262 0.46265 0.72642 0.0
C1365 C 0.89865 0.44401 0.70011 0.0
C1366 C 0.85994 0.44969 0.70564 0.0
N1367 N 0.89156 0.45973 0.7227 0.0
C1368 C 0.8865 0.43067 0.67904 0.0
C1369 C 0.86694 0.4337 0.68082 0.0
H1370 H 0.8674 0.4755 0.7435 0.0
H1371 H 0.91373 0.44229 0.69591 0.0
C1372 C 0.96707 0.49497 0.66661 0.0
N1373 N 0.95003 0.50312 0.65731 0.0
C1374 C 0.9809 0.49439 0.62963 0.0
C1375 C 0.95946 0.51081 0.57407 0.0
C1376 C 0.94609 0.5113 0.6125 0.0
C1377 C 0.97698 0.50205 0.58251 0.0
H1378 H 0.96976 0.48859 0.70264 0.0
H1379 H 0.93242 0.51771 0.6062 0.0
O1380 O 0.90336 0.49321 0.80348 0.0
O1381 O 0.93424 0.51925 0.76574 0.0
O1382 O 0.93564 0.47559 0.74228 0.0
O1383 O 0.90482 0.50202 0.69183 0.0
H1384 H 0.89999 0.52161 0.86779 0.0
H1385 H 0.88565 0.46337 0.84021 0.0
H1386 H 0.88316 0.51974 0.94885 0.0
H1387 H 0.86901 0.46254 0.92179 0.0
H1388 H 0.9564 0.56548 0.6636 0.0
H1389 H 0.97051 0.5161 0.78855 0.0
H1390 H 0.93005 0.54665 0.6995 0.0
H1391 H 0.99613 0.53547 0.75119 0.0
H1392 H 0.95508 0.52003 0.9566 0.0
H1393 H 0.98868 0.47494 0.8942 0.0
H1394 H 0.84468 0.54354 0.79408 0.0
H1395 H 0.89324 0.57779 0.83064 0.0
H1396 H 0.95923 0.45073 0.70364 0.0
H1397 H 0.92016 0.46079 0.82389 0.0
H1398 H 0.96533 0.41872 0.73822 0.0
H1399 H 0.92679 0.42864 0.85613 0.0
H1400 H 0.92345 0.47387 0.64799 0.0
H1401 H 0.87752 0.51334 0.63167 0.0
H1402 H 0.91564 0.46062 0.56482 0.0
H1403 H 0.87051 0.49935 0.54856 0.0
H1404 H 0.84489 0.45243 0.70726 0.0
H1405 H 0.89229 0.41852 0.65971 0.0
H1406 H 0.99431 0.48758 0.63718 0.0
H1407 H 0.9561 0.51685 0.53796 0.0
C1408 C 0.23975 0.24631 0.19873 0.0
C1409 C 0.24897 0.26349 0.21143 0.0
C1410 C 0.25513 0.25155 0.2958 0.0
C1411 C 0.24439 0.23512 0.2845 0.0
N1412 N 0.22431 0.21777 0.22805 0.0
N1413 N 0.26314 0.28379 0.27333 0.0
C1414 C 0.2361 0.23273 0.23667 0.0
C1415 C 0.25606 0.26648 0.26035 0.0
N1416 N 0.23495 0.2428 0.15009 0.0
N1417 N 0.26491 0.25261 0.33981 0.0
H1418 H 0.26429 0.29498 0.24814 0.0
H1419 H 0.26654 0.28754 0.30986 0.0
H1420 H 0.2645 0.24203 0.36694 0.0
H1421 H 0.27464 0.26323 0.34783 0.0
H1422 H 0.23003 0.22977 0.13746 0.0
H1423 H 0.23734 0.25244 0.12127 0.0
H1424 H 0.21619 0.21632 0.19583 0.0
H1425 H 0.22145 0.20746 0.25489 0.0
C1426 C 0.96844 0.99941 0.54976 0.0
C1427 C 0.96925 0.0142 0.51401 0.0
C1428 C 0.99914 0.02477 0.54993 0.0
C1429 C 0.00046 0.00754 0.57685 0.0
N1430 N 0.98572 0.97874 0.60563 0.0
N1431 N 0.97691 0.04729 0.51707 0.0
C1432 C 0.98484 0.99497 0.57809 0.0
C1433 C 0.98224 0.02896 0.52382 0.0
N1434 N 0.9514 0.99154 0.56135 0.0
N1435 N 0.01395 0.03713 0.5489 0.0
H1436 H 0.96294 0.05078 0.50839 0.0
H1437 H 0.98529 0.05873 0.52774 0.0
H1438 H 0.02663 0.03467 0.56774 0.0
H1439 H 0.01403 0.04907 0.52601 0.0
H1440 H 0.94948 0.98192 0.59039 0.0
H1441 H 0.93886 0.9966 0.54565 0.0
H1442 H 0.97548 0.96818 0.60352 0.0
H1443 H 0.99729 0.97528 0.628 0.0
C1444 C 0.25523 0.72897 0.77747 0.0
C1445 C 0.25855 0.73392 0.72689 0.0
C1446 C 0.27611 0.7618 0.75503 0.0
C1447 C 0.26842 0.75942 0.80351 0.0
N1448 N 0.26542 0.73398 0.86258 0.0
N1449 N 0.27344 0.75474 0.66697 0.0
C1450 C 0.26216 0.74095 0.81584 0.0
C1451 C 0.26938 0.75026 0.71542 0.0
N1452 N 0.2451 0.71313 0.78902 0.0
N1453 N 0.29215 0.77221 0.74891 0.0
H1454 H 0.26948 0.74628 0.63682 0.0
H1455 H 0.2797 0.76753 0.65687 0.0
H1456 H 0.29971 0.77729 0.77966 0.0
H1457 H 0.29941 0.77312 0.71512 0.0
H1458 H 0.24078 0.71 0.82533 0.0
H1459 H 0.23979 0.70395 0.76191 0.0
H1460 H 0.26278 0.71998 0.87254 0.0
H1461 H 0.27306 0.7417 0.88904 0.0
C1462 C 0.48429 0.00979 0.98161 0.0
C1463 C 0.48586 0.00053 0.0284 0.0
C1464 C 0.516 0.9864 0.00275 0.0
C1465 C 0.51384 0.99474 0.95493 0.0
N1466 N 0.49456 0.01153 0.89529 0.0
N1467 N 0.50117 0.97738 0.08085 0.0
C1468 C 0.49755 0.00561 0.9433 0.0
C1469 C 0.50114 0.98805 0.03822 0.0
N1470 N 0.47048 0.02305 0.97442 0.0
N1471 N 0.53253 0.97747 0.01483 0.0
H1472 H 0.49057 0.97825 0.10786 0.0
H1473 H 0.5108 0.96656 0.08761 0.0
H1474 H 0.54361 0.97572 0.98955 0.0
H1475 H 0.53585 0.97301 0.05085 0.0
H1476 H 0.46985 0.03183 0.94324 0.0
H1477 H 0.46041 0.02635 0.0015 0.0
H1478 H 0.48204 0.01777 0.88325 0.0
H1479 H 0.504 0.00875 0.86624 0.0
C1480 C 0.23472 0.76987 0.26104 0.0
C1481 C 0.24459 0.76908 0.21501 0.0
C1482 C 0.26004 0.73957 0.24072 0.0
C1483 C 0.25117 0.74109 0.28806 0.0
N1484 N 0.23233 0.75885 0.34667 0.0
N1485 N 0.26875 0.75505 0.16324 0.0
C1486 C 0.23913 0.75659 0.2992 0.0
C1487 C 0.25785 0.75443 0.20543 0.0
N1488 N 0.22078 0.78303 0.26769 0.0
N1489 N 0.27007 0.72365 0.22902 0.0
H1490 H 0.2674 0.76555 0.1361 0.0
H1491 H 0.28012 0.74603 0.1568 0.0
H1492 H 0.27227 0.71263 0.25428 0.0
H1493 H 0.27505 0.72067 0.19327 0.0
H1494 H 0.21162 0.78309 0.29812 0.0
H1495 H 0.21737 0.79313 0.24074 0.0
H1496 H 0.22515 0.77087 0.35867 0.0
H1497 H 0.23512 0.74932 0.37549 0.0
C1498 C 0.49258 0.97632 0.49485 0.0
C1499 C 0.49518 0.9832 0.44563 0.0
C1500 C 0.52623 0.99547 0.4702 0.0
C1501 C 0.52117 0.99307 0.52107 0.0
N1502 N 0.4996 0.98031 0.58251 0.0
N1503 N 0.52023 0.98537 0.38526 0.0
C1504 C 0.50432 0.98328 0.53368 0.0
C1505 C 0.51381 0.98875 0.43249 0.0
N1506 N 0.48197 0.96052 0.50263 0.0
N1507 N 0.54258 0.0046 0.45781 0.0
H1508 H 0.51194 0.97826 0.35898 0.0
H1509 H 0.53422 0.98744 0.3744 0.0
H1510 H 0.55208 0.00967 0.48447 0.0
H1511 H 0.54592 0.0084 0.42125 0.0
H1512 H 0.48076 0.95396 0.53736 0.0
H1513 H 0.47736 0.95223 0.47272 0.0
H1514 H 0.48654 0.97476 0.59312 0.0
H1515 H 0.50813 0.98456 0.61226 0.0
C1516 C 0.26213 0.26273 0.68495 0.0
C1517 C 0.26798 0.24418 0.69797 0.0
C1518 C 0.26733 0.25313 0.78613 0.0
C1519 C 0.25711 0.26972 0.77346 0.0
N1520 N 0.24544 0.29104 0.71012 0.0
N1521 N 0.29063 0.23122 0.75551 0.0
C1522 C 0.25485 0.27485 0.7226 0.0
C1523 C 0.27473 0.24165 0.74735 0.0
N1524 N 0.26601 0.26953 0.63838 0.0
N1525 N 0.27012 0.24832 0.83499 0.0
H1526 H 0.29883 0.22632 0.72576 0.0
H1527 H 0.29717 0.2302 0.79031 0.0
H1528 H 0.26537 0.2566 0.86472 0.0
H1529 H 0.276 0.2354 0.84554 0.0
H1530 H 0.26371 0.28354 0.62793 0.0
H1531 H 0.27379 0.26163 0.61261 0.0
H1532 H 0.24178 0.29437 0.67344 0.0
H1533 H 0.24009 0.3004 0.73676 0.0
C1534 C 0.01237 0.98895 0.9958 0.0
C1535 C 0.01756 0.00779 0.98364 0.0
C1536 C 0.99647 0.01995 0.04872 0.0
C1537 C 0.99014 0.00122 0.05801 0.0
N1538 N 0.9901 0.96808 0.03722 0.0
N1539 N 0.01338 0.04137 0.99376 0.0
C1540 C 0.99757 0.98574 0.03069 0.0
C1541 C 0.00933 0.02335 0.0089 0.0
N1542 N 0.02193 0.97413 0.97476 0.0
N1543 N 0.99046 0.03439 0.07873 0.0
H1544 H 0.0231 0.04438 0.96556 0.0
H1545 H 0.00626 0.05329 0.00665 0.0
H1546 H 0.98062 0.0325 0.10724 0.0
H1547 H 0.99612 0.04797 0.07779 0.0
H1548 H 0.02026 0.96014 0.98592 0.0
H1549 H 0.03271 0.97592 0.9486 0.0
H1550 H 0.99335 0.95657 0.01455 0.0
H1551 H 0.9795 0.96516 0.06322 0.0
C1552 C 0.7601 0.7395 0.77225 0.0
C1553 C 0.74219 0.7305 0.77559 0.0
C1554 C 0.7306 0.74901 0.7045 0.0
C1555 C 0.7482 0.75865 0.70279 0.0
N1556 N 0.77885 0.76515 0.73798 0.0
N1557 N 0.70963 0.72802 0.75023 0.0
C1558 C 0.76273 0.75448 0.73754 0.0
C1559 C 0.72719 0.73566 0.74322 0.0
N1560 N 0.7747 0.73339 0.80163 0.0
N1561 N 0.71735 0.7523 0.66827 0.0
H1562 H 0.70681 0.7178 0.77734 0.0
H1563 H 0.69756 0.73263 0.73167 0.0
H1564 H 0.71913 0.76236 0.64016 0.0
H1565 H 0.70513 0.74429 0.66391 0.0
H1566 H 0.78866 0.73769 0.79709 0.0
H1567 H 0.7731 0.72304 0.829 0.0
H1568 H 0.78913 0.76431 0.76571 0.0
H1569 H 0.78145 0.77592 0.71225 0.0
C1570 C 0.75541 0.24139 0.31061 0.0
C1571 C 0.74859 0.25999 0.30213 0.0
C1572 C 0.73915 0.2511 0.21721 0.0
C1573 C 0.74434 0.23209 0.22738 0.0
N1574 N 0.75374 0.20835 0.28711 0.0
N1575 N 0.73016 0.28145 0.25159 0.0
C1576 C 0.75137 0.22699 0.27517 0.0
C1577 C 0.73933 0.26454 0.25664 0.0
N1578 N 0.76634 0.23764 0.35155 0.0
N1579 N 0.73484 0.25655 0.16954 0.0
H1580 H 0.72968 0.29158 0.27989 0.0
H1581 H 0.72153 0.28466 0.22122 0.0
H1582 H 0.73481 0.24725 0.13929 0.0
H1583 H 0.73298 0.27062 0.1592 0.0
H1584 H 0.7733 0.22482 0.35692 0.0
H1585 H 0.76993 0.2479 0.37791 0.0
H1586 H 0.75703 0.20371 0.323 0.0
H1587 H 0.75061 0.1974 0.26233 0.0
C1588 C 0.7428 0.25635 0.81032 0.0
C1589 C 0.74967 0.23843 0.79462 0.0
C1590 C 0.75225 0.24975 0.70863 0.0
C1591 C 0.74476 0.26751 0.72362 0.0
N1592 N 0.73082 0.28734 0.78678 0.0
N1593 N 0.76072 0.21775 0.72898 0.0
C1594 C 0.73947 0.27073 0.77404 0.0
C1595 C 0.75428 0.23507 0.74393 0.0
N1596 N 0.74007 0.25976 0.86014 0.0
N1597 N 0.75758 0.2463 0.66054 0.0
H1598 H 0.76238 0.20637 0.75339 0.0
H1599 H 0.76424 0.21479 0.69191 0.0
H1600 H 0.7567 0.25616 0.6316 0.0
H1601 H 0.7567 0.25616 0.6316 0.0
H1602 H 0.73697 0.27299 0.87495 0.0
H1603 H 0.74215 0.2495 0.88761 0.0
H1604 H 0.72478 0.28996 0.82153 0.0
H1605 H 0.72854 0.29827 0.76129 0.0
C1606 C 0.76311 0.75728 0.18658 0.0
C1607 C 0.75162 0.74084 0.18581 0.0
C1608 C 0.73544 0.7514 0.26182 0.0
C1609 C 0.74618 0.76835 0.26092 0.0
N1610 N 0.76676 0.7895 0.21593 0.0
N1611 N 0.72361 0.72468 0.21466 0.0
C1612 C 0.75891 0.77195 0.22111 0.0
C1613 C 0.73676 0.73865 0.22097 0.0
N1614 N 0.77853 0.75854 0.15601 0.0
N1615 N 0.72472 0.74698 0.30266 0.0
H1616 H 0.72388 0.71528 0.18462 0.0
H1617 H 0.71143 0.72362 0.23633 0.0
H1618 H 0.72346 0.7558 0.33369 0.0
H1619 H 0.71834 0.73383 0.30757 0.0
H1620 H 0.78854 0.76929 0.15879 0.0
H1621 H 0.78228 0.74797 0.13073 0.0
H1622 H 0.77474 0.7935 0.18498 0.0
H1623 H 0.76372 0.80065 0.24018 0.0
C1624 C 0.51589 0.49176 0.98983 0.0
C1625 C 0.51373 0.50074 0.03686 0.0
C1626 C 0.48308 0.51362 0.01078 0.0
C1627 C 0.48581 0.50561 0.96275 0.0
N1628 N 0.50603 0.48996 0.90317 0.0
N1629 N 0.4972 0.52292 0.0896 0.0
C1630 C 0.50261 0.49553 0.95126 0.0
C1631 C 0.49786 0.51247 0.04664 0.0
N1632 N 0.53031 0.47918 0.98262 0.0
N1633 N 0.46614 0.52178 0.0226 0.0
H1634 H 0.50771 0.52239 0.1169 0.0
H1635 H 0.48706 0.53328 0.09641 0.0
H1636 H 0.4551 0.52318 0.997 0.0
H1637 H 0.46247 0.52591 0.05865 0.0
H1638 H 0.53146 0.47059 0.95117 0.0
H1639 H 0.54041 0.4762 0.00991 0.0
H1640 H 0.51886 0.48434 0.89129 0.0
H1641 H 0.49657 0.49243 0.87395 0.0
C1642 C 0.01028 0.47956 0.48817 0.0
C1643 C 0.01874 0.4958 0.46661 0.0
C1644 C 0.00075 0.51618 0.52347 0.0
C1645 C 0.99102 0.50006 0.54161 0.0
N1646 N 0.9837 0.46684 0.53409 0.0
N1647 N 0.01926 0.52973 0.45636 0.0
C1648 C 0.99497 0.48185 0.52189 0.0
C1649 C 0.0132 0.51419 0.48217 0.0
N1650 N 0.01727 0.46198 0.47769 0.0
N1651 N 0.99861 0.53326 0.5467 0.0
H1652 H 0.02813 0.52888 0.42533 0.0
H1653 H 0.01408 0.5433 0.46279 0.0
H1654 H 0.98969 0.53527 0.57727 0.0
H1655 H 0.00691 0.54502 0.53849 0.0
H1656 H 0.01297 0.4498 0.49638 0.0
H1657 H 0.02864 0.45974 0.45357 0.0
H1658 H 0.98471 0.45367 0.51685 0.0
H1659 H 0.97211 0.468 0.55799 0.0
C1660 C 0.02038 0.51196 0.98945 0.0
C1661 C 0.01718 0.50687 0.03997 0.0
C1662 C 0.98555 0.49521 0.01873 0.0
C1663 C 0.98836 0.50121 0.96874 0.0
N1664 N 0.00672 0.51858 0.90822 0.0
N1665 N 0.99573 0.49717 0.10509 0.0
C1666 C 0.00529 0.51058 0.95457 0.0
C1667 C 0.99942 0.49957 0.05534 0.0
N1668 N 0.03802 0.51749 0.97451 0.0
N1669 N 0.96995 0.48475 0.03079 0.0
H1670 H 0.00558 0.50021 0.13298 0.0
H1671 H 0.98242 0.49377 0.11906 0.0
H1672 H 0.95942 0.48136 0.00501 0.0
H1673 H 0.96813 0.47815 0.06523 0.0
H1674 H 0.04182 0.51927 0.93722 0.0
H1675 H 0.04933 0.51902 0.9992 0.0
H1676 H 0.01786 0.5273 0.89752 0.0
H1677 H 0.99595 0.51786 0.88163 0.0
C1678 C 0.48406 0.48292 0.49718 0.0
C1679 C 0.48183 0.49547 0.53806 0.0
C1680 C 0.50733 0.51558 0.50592 0.0
C1681 C 0.51041 0.50237 0.46696 0.0
N1682 N 0.50397 0.47206 0.4292 0.0
N1683 N 0.49304 0.52198 0.58649 0.0
C1684 C 0.4994 0.48562 0.46361 0.0
C1685 C 0.49396 0.51132 0.5439 0.0
N1686 N 0.47119 0.46878 0.48969 0.0
N1687 N 0.51684 0.53242 0.50582 0.0
H1688 H 0.48334 0.51939 0.61499 0.0
H1689 H 0.50283 0.53242 0.59557 0.0
H1690 H 0.52696 0.53587 0.479 0.0
H1691 H 0.51372 0.54354 0.52992 0.0
H1692 H 0.47076 0.46047 0.45761 0.0
H1693 H 0.45996 0.46623 0.51403 0.0
H1694 H 0.49787 0.45867 0.42845 0.0
H1695 H 0.51497 0.47361 0.40356 0.0
C1696 C 0.13168 0.40275 0.11062 0.0
C1697 C 0.1372 0.41006 0.15782 0.0
C1698 C 0.16606 0.39109 0.15355 0.0
C1699 C 0.16287 0.38826 0.10169 0.0
N1700 N 0.14184 0.39036 0.03081 0.0
N1701 N 0.15064 0.39679 0.23248 0.0
C1702 C 0.14534 0.39359 0.08024 0.0
C1703 C 0.15197 0.40025 0.18251 0.0
N1704 N 0.11298 0.402 0.09842 0.0
N1705 N 0.18249 0.38515 0.17529 0.0
H1706 H 0.1384 0.40013 0.2524 0.0
H1707 H 0.16015 0.38825 0.25186 0.0
H1708 H 0.19289 0.37769 0.15594 0.0
H1709 H 0.18615 0.38869 0.21185 0.0
H1710 H 0.10792 0.39525 0.06648 0.0
H1711 H 0.10253 0.40593 0.12397 0.0
H1712 H 0.12999 0.39576 0.01255 0.0
H1713 H 0.15141 0.38344 0.00745 0.0
C1714 C 0.84398 0.9041 0.4258 0.0
C1715 C 0.82958 0.89474 0.39848 0.0
C1716 C 0.84055 0.90968 0.32097 0.0
C1717 C 0.85375 0.92038 0.34907 0.0
N1718 N 0.86671 0.92974 0.42872 0.0
N1719 N 0.81238 0.89014 0.32156 0.0
C1720 C 0.85516 0.91809 0.40166 0.0
C1721 C 0.82741 0.89789 0.34637 0.0
N1722 N 0.84722 0.89928 0.47453 0.0
N1723 N 0.84085 0.91055 0.26993 0.0
H1724 H 0.80256 0.88125 0.33869 0.0
H1725 H 0.80877 0.89359 0.28498 0.0
H1726 H 0.85012 0.91925 0.25019 0.0
H1727 H 0.83301 0.9016 0.24701 0.0
H1728 H 0.85879 0.90405 0.49501 0.0
H1729 H 0.83914 0.88924 0.49352 0.0
H1730 H 0.86674 0.93028 0.46759 0.0
H1731 H 0.87536 0.93995 0.41237 0.0
C1732 C 0.32345 0.58859 0.61361 0.0
C1733 C 0.33069 0.60579 0.59413 0.0
C1734 C 0.36169 0.59869 0.63074 0.0
C1735 C 0.35493 0.58065 0.64561 0.0
N1736 N 0.33045 0.55689 0.642 0.0
N1737 N 0.35745 0.62584 0.57655 0.0
C1738 C 0.3361 0.57515 0.63443 0.0
C1739 C 0.35005 0.61046 0.60052 0.0
N1740 N 0.30439 0.58537 0.61409 0.0
N1741 N 0.37895 0.60485 0.6469 0.0
H1742 H 0.34938 0.63467 0.55376 0.0
H1743 H 0.37185 0.62884 0.57559 0.0
H1744 H 0.38776 0.59673 0.66964 0.0
H1745 H 0.3838 0.61861 0.6416 0.0
H1746 H 0.29822 0.57401 0.63275 0.0
H1747 H 0.29454 0.59496 0.6 0.0
H1748 H 0.31755 0.55161 0.62939 0.0
H1749 H 0.33932 0.54653 0.65666 0.0
C1750 C 0.65196 0.10458 0.90466 0.0
C1751 C 0.67183 0.10321 0.89824 0.0
C1752 C 0.66752 0.0757 0.84358 0.0
C1753 C 0.64763 0.07804 0.84668 0.0
N1754 N 0.62092 0.09695 0.87196 0.0
N1755 N 0.69829 0.09027 0.85268 0.0
C1756 C 0.63984 0.09317 0.87482 0.0
C1757 C 0.67955 0.08959 0.86503 0.0
N1758 N 0.6447 0.11626 0.94053 0.0
N1759 N 0.67497 0.05983 0.82207 0.0
H1760 H 0.70755 0.10041 0.86692 0.0
H1761 H 0.70425 0.08195 0.82468 0.0
H1762 H 0.66669 0.04916 0.80643 0.0
H1763 H 0.68928 0.05642 0.82377 0.0
H1764 H 0.63048 0.11635 0.95058 0.0
H1765 H 0.65313 0.12472 0.9634 0.0
H1766 H 0.61473 0.10893 0.88757 0.0
H1767 H 0.61166 0.08904 0.84996 0.0
C1768 C 0.14469 0.59689 0.36741 0.0
C1769 C 0.15133 0.57863 0.3541 0.0
C1770 C 0.1828 0.58666 0.38604 0.0
C1771 C 0.17565 0.60415 0.40397 0.0
N1772 N 0.14902 0.62463 0.41941 0.0
N1773 N 0.17561 0.55473 0.35948 0.0
C1774 C 0.15635 0.60892 0.39681 0.0
C1775 C 0.1701 0.5731 0.36587 0.0
N1776 N 0.12747 0.60296 0.35064 0.0
N1777 N 0.20182 0.58325 0.38649 0.0
H1778 H 0.16669 0.54428 0.34533 0.0
H1779 H 0.18845 0.54946 0.37251 0.0
H1780 H 0.21168 0.5929 0.40027 0.0
H1781 H 0.20798 0.57163 0.36897 0.0
H1782 H 0.12272 0.61681 0.35469 0.0
H1783 H 0.11861 0.59461 0.32865 0.0
H1784 H 0.13464 0.62776 0.41989 0.0
H1785 H 0.1571 0.63368 0.44159 0.0
C1786 C 0.66513 0.9273 0.62072 0.0
C1787 C 0.64953 0.92004 0.64805 0.0
C1788 C 0.65703 0.88809 0.61852 0.0
C1789 C 0.67383 0.89507 0.59613 0.0
N1790 N 0.69591 0.92081 0.58538 0.0
N1791 N 0.63259 0.89311 0.68051 0.0
C1792 C 0.67848 0.91455 0.59987 0.0
C1793 C 0.64602 0.90029 0.64911 0.0
N1794 N 0.66684 0.94632 0.61292 0.0
N1795 N 0.65125 0.86999 0.60924 0.0
H1796 H 0.62446 0.90159 0.70408 0.0
H1797 H 0.63076 0.87868 0.68662 0.0
H1798 H 0.65873 0.86074 0.5862 0.0
H1799 H 0.63816 0.86475 0.62044 0.0
H1800 H 0.67685 0.95215 0.58888 0.0
H1801 H 0.65713 0.95617 0.62641 0.0
H1802 H 0.7007 0.93451 0.59219 0.0
H1803 H 0.70632 0.91189 0.57103 0.0
C1804 C 0.33051 0.43366 0.88282 0.0
C1805 C 0.34834 0.4269 0.86633 0.0
C1806 C 0.34156 0.39581 0.90272 0.0
C1807 C 0.323 0.402 0.91445 0.0
N1808 N 0.29871 0.42588 0.90935 0.0
N1809 N 0.37009 0.40105 0.85441 0.0
C1810 C 0.31717 0.4207 0.90292 0.0
C1811 C 0.3537 0.40783 0.8747 0.0
N1812 N 0.32653 0.45256 0.88056 0.0
N1813 N 0.34769 0.3786 0.91943 0.0
H1814 H 0.37936 0.40946 0.8338 0.0
H1815 H 0.37379 0.3868 0.8545 0.0
H1816 H 0.33915 0.36945 0.94007 0.0
H1817 H 0.36165 0.37406 0.91663 0.0
H1818 H 0.31465 0.45862 0.89705 0.0
H1819 H 0.33589 0.4625 0.86586 0.0
H1820 H 0.29313 0.43856 0.8962 0.0
H1821 H 0.28851 0.41687 0.92434 0.0
C1822 C 0.8477 0.10533 0.09867 0.0
C1823 C 0.82825 0.10077 0.09379 0.0
C1824 C 0.83391 0.07014 0.13398 0.0
C1825 C 0.85282 0.07564 0.14407 0.0
N1826 N 0.87704 0.09965 0.14294 0.0
N1827 N 0.80207 0.08036 0.11501 0.0
C1828 C 0.85957 0.09356 0.12823 0.0
C1829 C 0.82112 0.08357 0.11362 0.0
N1830 N 0.85492 0.12061 0.07395 0.0
N1831 N 0.8283 0.05192 0.14239 0.0
H1832 H 0.79215 0.08992 0.1012 0.0
H1833 H 0.79601 0.06902 0.13399 0.0
H1834 H 0.8373 0.04157 0.15671 0.0
H1835 H 0.81529 0.04662 0.13075 0.0
H1836 H 0.86933 0.12354 0.07188 0.0
H1837 H 0.84667 0.12944 0.05159 0.0
H1838 H 0.88191 0.11336 0.13706 0.0
H1839 H 0.88609 0.0915 0.16495 0.0
C1840 C 0.8318 0.60158 0.84162 0.0
C1841 C 0.83021 0.60014 0.89439 0.0
C1842 C 0.85268 0.57376 0.89492 0.0
C1843 C 0.85499 0.57583 0.84248 0.0
N1844 N 0.8493 0.59329 0.76672 0.0
N1845 N 0.84102 0.58719 0.97253 0.0
C1846 C 0.8453 0.59024 0.81605 0.0
C1847 C 0.84124 0.5869 0.92144 0.0
N1848 N 0.81995 0.61336 0.81584 0.0
N1849 N 0.86098 0.55886 0.91905 0.0
H1850 H 0.83258 0.59646 0.99306 0.0
H1851 H 0.85021 0.57932 0.99467 0.0
H1852 H 0.8698 0.5492 0.90113 0.0
H1853 H 0.85814 0.55525 0.95599 0.0
H1854 H 0.81884 0.61347 0.77707 0.0
H1855 H 0.81018 0.62222 0.83328 0.0
H1856 H 0.84431 0.60484 0.74657 0.0
H1857 H 0.85885 0.585 0.74666 0.0
C1858 C 0.16848 0.10713 0.65425 0.0
C1859 C 0.17372 0.10306 0.60417 0.0
C1860 C 0.15446 0.07425 0.60549 0.0
C1861 C 0.1484 0.07886 0.65458 0.0
N1862 N 0.14721 0.10077 0.72344 0.0
N1863 N 0.16984 0.08463 0.52918 0.0
C1864 C 0.15472 0.09564 0.67834 0.0
C1865 C 0.16615 0.08715 0.57891 0.0
N1866 N 0.1771 0.12165 0.67919 0.0
N1867 N 0.14945 0.05726 0.58488 0.0
H1868 H 0.17859 0.09365 0.50879 0.0
H1869 H 0.16315 0.07453 0.50711 0.0
H1870 H 0.14057 0.04762 0.60273 0.0
H1871 H 0.1551 0.05206 0.55172 0.0
H1872 H 0.17558 0.12404 0.71735 0.0
H1873 H 0.18687 0.13069 0.66241 0.0
H1874 H 0.14959 0.11382 0.74027 0.0
H1875 H 0.13742 0.09246 0.74262 0.0
C1876 C 0.66135 0.39323 0.36649 0.0
C1877 C 0.67075 0.39982 0.41003 0.0
C1878 C 0.65548 0.43074 0.40126 0.0
C1879 C 0.64506 0.42374 0.35984 0.0
N1880 N 0.63568 0.39766 0.30745 0.0
N1881 N 0.67457 0.42348 0.47404 0.0
C1882 C 0.64731 0.40477 0.34369 0.0
C1883 C 0.66716 0.4182 0.42895 0.0
N1884 N 0.66631 0.37623 0.34598 0.0
N1885 N 0.65472 0.44955 0.41303 0.0
H1886 H 0.68328 0.41467 0.49522 0.0
H1887 H 0.67085 0.43589 0.4925 0.0
H1888 H 0.6463 0.45922 0.39375 0.0
H1889 H 0.66356 0.45592 0.43919 0.0
H1890 H 0.66156 0.3716 0.31126 0.0
H1891 H 0.67634 0.36725 0.36195 0.0
H1892 H 0.63518 0.38341 0.29782 0.0
H1893 H 0.6254 0.40579 0.28955 0.0
C1894 C 0.33933 0.91288 0.18287 0.0
C1895 C 0.35075 0.92576 0.15574 0.0
C1896 C 0.33817 0.91343 0.07672 0.0
C1897 C 0.3256 0.90169 0.10397 0.0
N1898 N 0.31196 0.89225 0.18273 0.0
N1899 N 0.3591 0.94058 0.07761 0.0
C1900 C 0.32557 0.90195 0.15705 0.0
C1901 C 0.34964 0.92667 0.10281 0.0
N1902 N 0.342 0.91076 0.23316 0.0
N1903 N 0.33951 0.91153 0.026 0.0
H1904 H 0.36776 0.95045 0.09533 0.0
H1905 H 0.3572 0.94332 0.03972 0.0
H1906 H 0.33125 0.90205 0.00561 0.0
H1907 H 0.34984 0.91817 0.00458 0.0
H1908 H 0.33563 0.90014 0.25417 0.0
H1909 H 0.35181 0.91869 0.25337 0.0
H1910 H 0.30989 0.89354 0.22109 0.0
H1911 H 0.30166 0.88405 0.16519 0.0
C1912 C 0.82865 0.39705 0.6551 0.0
C1913 C 0.82899 0.39646 0.60205 0.0
C1914 C 0.853 0.42144 0.60079 0.0
C1915 C 0.8539 0.42079 0.65379 0.0
N1916 N 0.84492 0.40597 0.73132 0.0
N1917 N 0.84348 0.4057 0.52432 0.0
C1918 C 0.84238 0.40801 0.68097 0.0
C1919 C 0.84175 0.40798 0.57484 0.0
N1920 N 0.81478 0.38772 0.68073 0.0
N1921 N 0.86236 0.43536 0.57537 0.0
H1922 H 0.83544 0.39599 0.50406 0.0
H1923 H 0.85396 0.41222 0.50314 0.0
H1924 H 0.87066 0.44556 0.59302 0.0
H1925 H 0.86062 0.43782 0.5373 0.0
H1926 H 0.81254 0.38931 0.71895 0.0
H1927 H 0.80441 0.37959 0.66322 0.0
H1928 H 0.83843 0.39542 0.75232 0.0
H1929 H 0.85478 0.41384 0.75155 0.0
C1930 C 0.33029 0.1034 0.34775 0.0
C1931 C 0.32905 0.10296 0.4007 0.0
C1932 C 0.35189 0.07691 0.40343 0.0
C1933 C 0.3543 0.07844 0.35091 0.0
N1934 N 0.3483 0.09503 0.27388 0.0
N1935 N 0.34077 0.09164 0.4798 0.0
C1936 C 0.34421 0.09225 0.32326 0.0
C1937 C 0.34047 0.09037 0.42883 0.0
N1938 N 0.31771 0.11393 0.32074 0.0
N1939 N 0.36 0.0622 0.42877 0.0
H1940 H 0.33255 0.10131 0.49966 0.0
H1941 H 0.3503 0.08427 0.50216 0.0
H1942 H 0.36847 0.05205 0.41154 0.0
H1943 H 0.35708 0.05913 0.46602 0.0
H1944 H 0.31654 0.11319 0.28201 0.0
H1945 H 0.30728 0.12229 0.33723 0.0
H1946 H 0.34293 0.10625 0.25305 0.0
H1947 H 0.35832 0.08704 0.25463 0.0
C1948 C 0.66465 0.56945 0.13417 0.0
C1949 C 0.64908 0.57746 0.1601 0.0
C1950 C 0.65867 0.60919 0.13309 0.0
C1951 C 0.67499 0.60127 0.11045 0.0
N1952 N 0.69534 0.57445 0.09621 0.0
N1953 N 0.63251 0.60488 0.19069 0.0
C1954 C 0.6785 0.58155 0.11291 0.0
C1955 C 0.64644 0.59734 0.16139 0.0
N1956 N 0.66583 0.55027 0.12835 0.0
N1957 N 0.65462 0.62792 0.12631 0.0
H1958 H 0.62322 0.59659 0.21157 0.0
H1959 H 0.63107 0.6193 0.19749 0.0
H1960 H 0.66337 0.63705 0.10624 0.0
H1961 H 0.64194 0.63414 0.13721 0.0
H1962 H 0.6756 0.54371 0.105 0.0
H1963 H 0.65605 0.54087 0.14368 0.0
H1964 H 0.69964 0.56055 0.10219 0.0
H1965 H 0.70577 0.58283 0.07985 0.0
C1966 C 0.16584 0.89548 0.84121 0.0
C1967 C 0.17093 0.8993 0.89156 0.0
C1968 C 0.15147 0.92798 0.89103 0.0
C1969 C 0.14562 0.92366 0.84154 0.0
N1970 N 0.14486 0.90227 0.77158 0.0
N1971 N 0.1666 0.91718 0.96729 0.0
C1972 C 0.15211 0.90707 0.81723 0.0
C1973 C 0.16313 0.91497 0.91734 0.0
N1974 N 0.17459 0.88112 0.81595 0.0
N1975 N 0.14629 0.94479 0.9123 0.0
H1976 H 0.17533 0.90809 0.98754 0.0
H1977 H 0.15974 0.92708 0.98963 0.0
H1978 H 0.13743 0.95448 0.89464 0.0
H1979 H 0.15178 0.94981 0.94586 0.0
H1980 H 0.17318 0.87891 0.77769 0.0
H1981 H 0.18431 0.87202 0.83268 0.0
H1982 H 0.14739 0.88936 0.75412 0.0
H1983 H 0.13517 0.9107 0.75246 0.0
loop_
_geom_bond_atom_site_label_1
_geom_bond_atom_site_label_2
_geom_bond_distance
_geom_bond_site_symmetry_2
_ccdc_geom_bond_type
Li0 N17 1.990 . S
Li0 O60 1.956 1_554 S
Li0 O61 1.970 . S
Li0 O62 1.961 . S
Li1 N25 1.990 . S
Li1 O60 1.970 . S
Li1 O61 1.956 1_556 S
Li1 O63 1.961 . S
Li2 N47 1.990 . S
Li2 O60 1.961 . S
Li2 O62 1.956 1_556 S
Li2 O63 1.970 . S
Li3 N53 1.990 . S
Li3 O61 1.961 . S
Li3 O62 1.970 . S
Li3 O63 1.956 1_554 S
C4 C6 1.348 . S
C4 C7 1.356 . S
C4 O60 1.325 . S
N5 C8 1.314 . S
N5 C9 1.279 . S
C6 C4 1.348 . S
C6 C8 1.353 . S
C6 H64 0.929 . S
C7 C4 1.356 . S
C7 C9 1.358 . S
C7 H65 0.930 . S
C8 N5 1.314 . S
C8 C6 1.353 . S
C8 H66 0.930 . S
C9 N5 1.279 . S
C9 C7 1.358 . S
C9 H67 0.930 . S
C10 C13 1.348 . S
C10 C14 1.356 . S
C10 O61 1.325 . S
C11 N12 1.279 . S
C11 C14 1.358 . S
C11 H68 0.930 . S
N12 C11 1.279 . S
N12 C15 1.314 . S
C13 C10 1.348 . S
C13 C15 1.353 . S
C13 H69 0.929 . S
C14 C10 1.356 . S
C14 C11 1.358 . S
C14 H70 0.930 . S
C15 N12 1.314 . S
C15 C13 1.353 . S
C15 H71 0.930 . S
C16 N17 1.314 . S
C16 C21 1.353 . S
C16 H22 0.930 . S
N17 Li0 1.990 . S
N17 C16 1.314 . S
N17 C19 1.279 1_554 S
C18 C19 1.358 1_554 S
C18 C20 1.356 . S
C18 H72 0.930 1_554 S
C19 N17 1.279 1_556 S
C19 C18 1.358 1_556 S
C19 H23 0.930 . S
C20 C18 1.356 . S
C20 C21 1.348 . S
C21 C16 1.353 . S
C21 C20 1.348 . S
C21 H73 0.929 . S
H22 C16 0.930 . S
H23 C19 0.930 . S
C24 N25 1.314 . S
C24 C26 1.353 . S
C24 H30 0.930 . S
N25 Li1 1.990 . S
N25 C24 1.314 . S
N25 C28 1.279 1_556 S
C26 C24 1.353 . S
C26 C29 1.348 . S
C26 H74 0.929 . S
C27 C28 1.358 1_556 S
C27 C29 1.356 . S
C27 H75 0.930 1_556 S
C28 N25 1.279 1_554 S
C28 C27 1.358 1_554 S
C28 H31 0.930 . S
C29 C26 1.348 . S
C29 C27 1.356 . S
H30 C24 0.930 . S
H31 C28 0.930 . S
C32 C34 1.348 . S
C32 C35 1.356 . S
C32 O62 1.325 . S
N33 C36 1.314 . S
N33 C37 1.279 . S
C34 C32 1.348 . S
C34 C36 1.353 . S
C34 H76 0.929 . S
C35 C32 1.356 . S
C35 C37 1.358 . S
C35 H77 0.930 1_554 S
C36 N33 1.314 . S
C36 C34 1.353 . S
C36 H78 0.930 . S
C37 N33 1.279 . S
C37 C35 1.358 . S
C37 H79 0.930 1_554 S
C38 C39 1.348 . S
C38 C40 1.356 . S
C38 O63 1.325 . S
C39 C38 1.348 . S
C39 C41 1.353 . S
C39 H80 0.929 . S
C40 C38 1.356 . S
C40 C42 1.358 . S
C40 H81 0.930 1_556 S
C41 C39 1.353 . S
C41 N43 1.314 . S
C41 H82 0.930 . S
C42 C40 1.358 . S
C42 N43 1.279 . S
C42 H83 0.930 1_556 S
N43 C41 1.314 . S
N43 C42 1.279 . S
C44 C46 1.353 . S
C44 N47 1.314 . S
C44 H50 0.930 . S
C45 N47 1.279 . S
C45 C48 1.358 . S
C45 H51 0.930 . S
C46 C44 1.353 . S
C46 C49 1.348 . S
C46 H84 0.929 . S
N47 Li2 1.990 . S
N47 C44 1.314 . S
N47 C45 1.279 . S
C48 C45 1.358 . S
C48 C49 1.356 . S
C48 H85 0.930 . S
C49 C46 1.348 . S
C49 C48 1.356 . S
H50 C44 0.930 . S
H51 C45 0.930 . S
C52 N53 1.314 . S
C52 C54 1.353 . S
C52 H58 0.930 . S
N53 Li3 1.990 . S
N53 C52 1.314 . S
N53 C56 1.279 . S
C54 C52 1.353 . S
C54 C57 1.348 . S
C54 H86 0.929 . S
C55 C56 1.358 . S
C55 C57 1.356 . S
C55 H87 0.930 . S
C56 N53 1.279 . S
C56 C55 1.358 . S
C56 H59 0.930 . S
C57 C54 1.348 . S
C57 C55 1.356 . S
H58 C52 0.930 . S
H59 C56 0.930 . S
O60 Li0 1.956 1_556 S
O60 Li1 1.970 . S
O60 Li2 1.961 . S
O60 C4 1.325 . S
O61 Li0 1.970 . S
O61 Li1 1.956 1_554 S
O61 Li3 1.961 . S
O61 C10 1.325 . S
O62 Li0 1.961 . S
O62 Li2 1.956 1_554 S
O62 Li3 1.970 . S
O62 C32 1.325 . S
O63 Li1 1.961 . S
O63 Li2 1.970 . S
O63 Li3 1.956 1_556 S
O63 C38 1.325 . S
H64 C6 0.929 . S
H65 C7 0.930 . S
H66 C8 0.930 . S
H67 C9 0.930 . S
H68 C11 0.930 . S
H69 C13 0.929 . S
H70 C14 0.930 . S
H71 C15 0.930 . S
H72 C18 0.930 1_556 S
H73 C21 0.929 . S
H74 C26 0.929 . S
H75 C27 0.930 1_554 S
H76 C34 0.929 . S
H77 C35 0.930 1_556 S
H78 C36 0.930 . S
H79 C37 0.930 1_556 S
H80 C39 0.929 . S
H81 C40 0.930 1_554 S
H82 C41 0.930 . S
H83 C42 0.930 1_554 S
H84 C46 0.929 . S
H85 C48 0.930 . S
H86 C54 0.929 . S
H87 C55 0.930 . S
Li88 N105 1.990 . S
Li88 O148 1.956 . S
Li88 O149 1.970 1_565 S
Li88 O150 1.961 . S
Li89 N113 1.990 . S
Li89 O148 1.970 1_545 S
Li89 O149 1.956 . S
Li89 O151 1.961 . S
Li90 N135 1.990 . S
Li90 O148 1.961 . S
Li90 O150 1.956 . S
Li90 O151 1.970 1_565 S
Li91 N141 1.990 . S
Li91 O149 1.961 . S
Li91 O150 1.970 1_545 S
Li91 O151 1.956 . S
C92 C94 1.348 . S
C92 C95 1.356 . S
C92 O148 1.325 . S
N93 C96 1.314 . S
N93 C97 1.279 . S
C94 C92 1.348 . S
C94 C96 1.353 . S
C94 H152 0.929 . S
C95 C92 1.356 . S
C95 C97 1.358 . S
C95 H153 0.930 . S
C96 N93 1.314 . S
C96 C94 1.353 . S
C96 H154 0.930 . S
C97 N93 1.279 . S
C97 C95 1.358 . S
C97 H155 0.930 . S
C98 C101 1.348 . S
C98 C102 1.356 . S
C98 O149 1.325 . S
C99 N100 1.279 . S
C99 C102 1.358 . S
C99 H156 0.930 . S
N100 C99 1.279 . S
N100 C103 1.314 . S
C101 C98 1.348 . S
C101 C103 1.353 . S
C101 H157 0.929 . S
C102 C98 1.356 . S
C102 C99 1.358 . S
C102 H158 0.930 . S
C103 N100 1.314 . S
C103 C101 1.353 . S
C103 H159 0.930 . S
C104 N105 1.314 . S
C104 C109 1.353 . S
C104 H110 0.930 1_565 S
N105 Li88 1.990 . S
N105 C104 1.314 . S
N105 C107 1.279 . S
C106 C107 1.358 . S
C106 C108 1.356 . S
C106 H160 0.930 . S
C107 N105 1.279 . S
C107 C106 1.358 . S
C107 H111 0.930 . S
C108 C106 1.356 . S
C108 C109 1.348 . S
C109 C104 1.353 . S
C109 C108 1.348 . S
C109 H161 0.929 . S
H110 C104 0.930 1_545 S
H111 C107 0.930 . S
C112 N113 1.314 . S
C112 C114 1.353 . S
C112 H118 0.930 1_545 S
N113 Li89 1.990 . S
N113 C112 1.314 . S
N113 C116 1.279 . S
C114 C112 1.353 . S
C114 C117 1.348 . S
C114 H162 0.929 . S
C115 C116 1.358 . S
C115 C117 1.356 . S
C115 H163 0.930 . S
C116 N113 1.279 . S
C116 C115 1.358 . S
C116 H119 0.930 . S
C117 C114 1.348 . S
C117 C115 1.356 . S
H118 C112 0.930 1_565 S
H119 C116 0.930 . S
C120 C122 1.332 1_565 S
C120 C123 1.356 . S
C120 O150 1.325 . S
N121 C124 1.314 . S
N121 C125 1.279 . S
C122 C120 1.332 1_545 S
C122 C124 1.344 1_545 S
C122 H164 0.955 . S
C123 C120 1.356 . S
C123 C125 1.358 . S
C123 H165 0.930 . S
C124 N121 1.314 . S
C124 C122 1.344 1_565 S
C124 H166 0.930 1_565 S
C125 N121 1.279 . S
C125 C123 1.358 . S
C125 H167 0.930 . S
C126 C127 1.339 1_545 S
C126 C128 1.356 . S
C126 O151 1.325 . S
C127 C126 1.339 1_565 S
C127 C129 1.348 1_565 S
C127 H168 0.944 . S
C128 C126 1.356 . S
C128 C130 1.358 . S
C128 H169 0.930 . S
C129 C127 1.348 1_545 S
C129 N131 1.314 . S
C129 H170 0.930 1_545 S
C130 C128 1.358 . S
C130 N131 1.279 . S
C130 H171 0.930 . S
N131 C129 1.314 . S
N131 C130 1.279 . S
C132 C134 1.353 . S
C132 N135 1.314 . S
C132 H138 0.930 . S
C133 N135 1.279 . S
C133 C136 1.358 . S
C133 H139 0.930 . S
C134 C132 1.353 . S
C134 C137 1.348 . S
C134 H172 0.929 . S
N135 Li90 1.990 . S
N135 C132 1.314 . S
N135 C133 1.279 . S
C136 C133 1.358 . S
C136 C137 1.356 . S
C136 H173 0.930 . S
C137 C134 1.348 . S
C137 C136 1.356 . S
H138 C132 0.930 . S
H139 C133 0.930 . S
C140 N141 1.314 . S
C140 C142 1.353 . S
C140 H146 0.930 . S
N141 Li91 1.990 . S
N141 C140 1.314 . S
N141 C144 1.279 . S
C142 C140 1.353 . S
C142 C145 1.348 . S
C142 H174 0.929 . S
C143 C144 1.358 . S
C143 C145 1.356 . S
C143 H175 0.930 . S
C144 N141 1.279 . S
C144 C143 1.358 . S
C144 H147 0.930 . S
C145 C142 1.348 . S
C145 C143 1.356 . S
H146 C140 0.930 . S
H147 C144 0.930 . S
O148 Li88 1.956 . S
O148 Li89 1.970 1_565 S
O148 Li90 1.961 . S
O148 C92 1.325 . S
O149 Li88 1.970 1_545 S
O149 Li89 1.956 . S
O149 Li91 1.961 . S
O149 C98 1.325 . S
O150 Li88 1.961 . S
O150 Li90 1.956 . S
O150 Li91 1.970 1_565 S
O150 C120 1.325 . S
O151 Li89 1.961 . S
O151 Li90 1.970 1_545 S
O151 Li91 1.956 . S
O151 C126 1.325 . S
H152 C94 0.929 . S
H153 C95 0.930 . S
H154 C96 0.930 . S
H155 C97 0.930 . S
H156 C99 0.930 . S
H157 C101 0.929 . S
H158 C102 0.930 . S
H159 C103 0.930 . S
H160 C106 0.930 . S
H161 C109 0.929 . S
H162 C114 0.929 . S
H163 C115 0.930 . S
H164 C122 0.955 . S
H165 C123 0.930 . S
H166 C124 0.930 1_545 S
H167 C125 0.930 . S
H168 C127 0.944 . S
H169 C128 0.930 . S
H170 C129 0.930 1_565 S
H171 C130 0.930 . S
H172 C134 0.929 . S
H173 C136 0.930 . S
H174 C142 0.929 . S
H175 C143 0.930 . S
Li176 N193 1.990 . S
Li176 O236 1.956 . S
Li176 O237 1.970 . S
Li176 O238 1.961 . S
Li177 N201 1.990 . S
Li177 O236 1.970 . S
Li177 O237 1.956 . S
Li177 O239 1.961 . S
Li178 N223 1.990 . S
Li178 O236 1.961 . S
Li178 O238 1.956 . S
Li178 O239 1.970 . S
Li179 N229 1.990 . S
Li179 O237 1.961 . S
Li179 O238 1.970 . S
Li179 O239 1.956 . S
C180 C182 1.348 . S
C180 C183 1.356 . S
C180 O236 1.325 . S
N181 C184 1.314 . S
N181 C185 1.279 . S
C182 C180 1.348 . S
C182 C184 1.353 . S
C182 H240 0.929 . S
C183 C180 1.356 . S
C183 C185 1.358 . S
C183 H241 0.930 . S
C184 N181 1.314 . S
C184 C182 1.353 . S
C184 H242 0.930 . S
C185 N181 1.279 . S
C185 C183 1.358 . S
C185 H243 0.930 . S
C186 C189 1.348 . S
C186 C190 1.356 . S
C186 O237 1.325 . S
C187 N188 1.279 . S
C187 C190 1.358 . S
C187 H244 0.930 . S
N188 C187 1.279 . S
N188 C191 1.314 . S
C189 C186 1.348 . S
C189 C191 1.353 . S
C189 H245 0.929 . S
C190 C186 1.356 . S
C190 C187 1.358 . S
C190 H246 0.930 . S
C191 N188 1.314 . S
C191 C189 1.353 . S
C191 H247 0.930 . S
C192 N193 1.314 . S
C192 C197 1.353 . S
C192 H198 0.930 . S
N193 Li176 1.990 . S
N193 C192 1.314 . S
N193 C195 1.279 . S
C194 C195 1.358 . S
C194 C196 1.356 . S
C194 H248 0.930 . S
C195 N193 1.279 . S
C195 C194 1.358 . S
C195 H199 0.930 . S
C196 C194 1.356 . S
C196 C197 1.348 . S
C197 C192 1.353 . S
C197 C196 1.348 . S
C197 H249 0.929 . S
H198 C192 0.930 . S
H199 C195 0.930 . S
C200 N201 1.314 . S
C200 C202 1.353 . S
C200 H206 0.930 . S
N201 Li177 1.990 . S
N201 C200 1.314 . S
N201 C204 1.279 . S
C202 C200 1.353 . S
C202 C205 1.348 . S
C202 H250 0.929 . S
C203 C204 1.358 . S
C203 C205 1.356 . S
C203 H251 0.930 . S
C204 N201 1.279 . S
C204 C203 1.358 . S
C204 H207 0.930 . S
C205 C202 1.348 . S
C205 C203 1.356 . S
H206 C200 0.930 . S
H207 C204 0.930 . S
C208 C210 1.348 . S
C208 C211 1.356 . S
C208 O238 1.325 . S
N209 C212 1.314 . S
N209 C213 1.279 . S
C210 C208 1.348 . S
C210 C212 1.353 . S
C210 H252 0.929 . S
C211 C208 1.356 . S
C211 C213 1.358 . S
C211 H253 0.930 . S
C212 N209 1.314 . S
C212 C210 1.353 . S
C212 H254 0.930 . S
C213 N209 1.279 . S
C213 C211 1.358 . S
C213 H255 0.930 . S
C214 C215 1.348 . S
C214 C216 1.356 . S
C214 O239 1.325 . S
C215 C214 1.348 . S
C215 C217 1.353 . S
C215 H256 0.929 . S
C216 C214 1.356 . S
C216 C218 1.358 . S
C216 H257 0.930 . S
C217 C215 1.353 . S
C217 N219 1.314 . S
C217 H258 0.930 . S
C218 C216 1.358 . S
C218 N219 1.279 . S
C218 H259 0.930 . S
N219 C217 1.314 . S
N219 C218 1.279 . S
C220 C222 1.353 . S
C220 N223 1.314 . S
C220 H226 0.930 . S
C221 N223 1.279 . S
C221 C224 1.358 . S
C221 H227 0.930 . S
C222 C220 1.353 . S
C222 C225 1.348 . S
C222 H260 0.929 . S
N223 Li178 1.990 . S
N223 C220 1.314 . S
N223 C221 1.279 . S
C224 C221 1.358 . S
C224 C225 1.356 . S
C224 H261 0.930 . S
C225 C222 1.348 . S
C225 C224 1.356 . S
H226 C220 0.930 . S
H227 C221 0.930 . S
C228 N229 1.314 . S
C228 C230 1.353 . S
C228 H234 0.930 . S
N229 Li179 1.990 . S
N229 C228 1.314 . S
N229 C232 1.279 . S
C230 C228 1.353 . S
C230 C233 1.348 . S
C230 H262 0.929 . S
C231 C232 1.358 . S
C231 C233 1.356 . S
C231 H263 0.930 . S
C232 N229 1.279 . S
C232 C231 1.358 . S
C232 H235 0.930 . S
C233 C230 1.348 . S
C233 C231 1.356 . S
H234 C228 0.930 . S
H235 C232 0.930 . S
O236 Li176 1.956 . S
O236 Li177 1.970 . S
O236 Li178 1.961 . S
O236 C180 1.325 . S
O237 Li176 1.970 . S
O237 Li177 1.956 . S
O237 Li179 1.961 . S
O237 C186 1.325 . S
O238 Li176 1.961 . S
O238 Li178 1.956 . S
O238 Li179 1.970 . S
O238 C208 1.325 . S
O239 Li177 1.961 . S
O239 Li178 1.970 . S
O239 Li179 1.956 . S
O239 C214 1.325 . S
H240 C182 0.929 . S
H241 C183 0.930 . S
H242 C184 0.930 . S
H243 C185 0.930 . S
H244 C187 0.930 . S
H245 C189 0.929 . S
H246 C190 0.930 . S
H247 C191 0.930 . S
H248 C194 0.930 . S
H249 C197 0.929 . S
H250 C202 0.929 . S
H251 C203 0.930 . S
H252 C210 0.929 . S
H253 C211 0.930 . S
H254 C212 0.930 . S
H255 C213 0.930 . S
H256 C215 0.929 . S
H257 C216 0.930 . S
H258 C217 0.930 . S
H259 C218 0.930 . S
H260 C222 0.929 . S
H261 C224 0.930 . S
H262 C230 0.929 . S
H263 C231 0.930 . S
Li264 N281 1.990 . S
Li264 O324 1.956 . S
Li264 O325 1.970 1_565 S
Li264 O326 1.961 . S
Li265 N289 1.990 . S
Li265 O324 1.970 1_545 S
Li265 O325 1.956 . S
Li265 O327 1.961 . S
Li266 N311 1.990 . S
Li266 O324 1.961 . S
Li266 O326 1.956 . S
Li266 O327 1.970 1_565 S
Li267 N317 1.990 . S
Li267 O325 1.961 . S
Li267 O326 1.970 1_545 S
Li267 O327 1.956 . S
C268 C270 1.332 1_565 S
C268 C271 1.356 . S
C268 O324 1.325 . S
N269 C272 1.314 . S
N269 C273 1.279 . S
C270 C268 1.332 1_545 S
C270 C272 1.344 1_545 S
C270 H328 0.955 . S
C271 C268 1.356 . S
C271 C273 1.358 . S
C271 H329 0.930 . S
C272 N269 1.314 . S
C272 C270 1.344 1_565 S
C272 H330 0.930 1_565 S
C273 N269 1.279 . S
C273 C271 1.358 . S
C273 H331 0.930 . S
C274 C277 1.339 1_545 S
C274 C278 1.356 . S
C274 O325 1.325 . S
C275 N276 1.279 . S
C275 C278 1.358 . S
C275 H332 0.930 . S
N276 C275 1.279 . S
N276 C279 1.314 . S
C277 C274 1.339 1_565 S
C277 C279 1.348 1_565 S
C277 H333 0.944 . S
C278 C274 1.356 . S
C278 C275 1.358 . S
C278 H334 0.930 . S
C279 N276 1.314 . S
C279 C277 1.348 1_545 S
C279 H335 0.930 1_545 S
C280 N281 1.314 . S
C280 C285 1.353 . S
C280 H286 0.930 . S
N281 Li264 1.990 . S
N281 C280 1.314 . S
N281 C283 1.279 . S
C282 C283 1.358 . S
C282 C284 1.356 . S
C282 H336 0.930 . S
C283 N281 1.279 . S
C283 C282 1.358 . S
C283 H287 0.930 . S
C284 C282 1.356 . S
C284 C285 1.348 . S
C285 C280 1.353 . S
C285 C284 1.348 . S
C285 H337 0.929 . S
H286 C280 0.930 . S
H287 C283 0.930 . S
C288 N289 1.314 . S
C288 C290 1.353 . S
C288 H294 0.930 . S
N289 Li265 1.990 . S
N289 C288 1.314 . S
N289 C292 1.279 . S
C290 C288 1.353 . S
C290 C293 1.348 . S
C290 H338 0.929 . S
C291 C292 1.358 . S
C291 C293 1.356 . S
C291 H339 0.930 . S
C292 N289 1.279 . S
C292 C291 1.358 . S
C292 H295 0.930 . S
C293 C290 1.348 . S
C293 C291 1.356 . S
H294 C288 0.930 . S
H295 C292 0.930 . S
C296 C298 1.348 . S
C296 C299 1.356 . S
C296 O326 1.325 . S
N297 C300 1.314 . S
N297 C301 1.279 . S
C298 C296 1.348 . S
C298 C300 1.353 . S
C298 H340 0.929 . S
C299 C296 1.356 . S
C299 C301 1.358 . S
C299 H341 0.930 . S
C300 N297 1.314 . S
C300 C298 1.353 . S
C300 H342 0.930 . S
C301 N297 1.279 . S
C301 C299 1.358 . S
C301 H343 0.930 . S
C302 C303 1.348 . S
C302 C304 1.356 . S
C302 O327 1.325 . S
C303 C302 1.348 . S
C303 C305 1.353 . S
C303 H344 0.929 . S
C304 C302 1.356 . S
C304 C306 1.358 . S
C304 H345 0.930 . S
C305 C303 1.353 . S
C305 N307 1.314 . S
C305 H346 0.930 . S
C306 C304 1.358 . S
C306 N307 1.279 . S
C306 H347 0.930 . S
N307 C305 1.314 . S
N307 C306 1.279 . S
C308 C310 1.353 . S
C308 N311 1.314 . S
C308 H314 0.930 1_565 S
C309 N311 1.279 . S
C309 C312 1.358 . S
C309 H315 0.930 . S
C310 C308 1.353 . S
C310 C313 1.348 . S
C310 H348 0.929 . S
N311 Li266 1.990 . S
N311 C308 1.314 . S
N311 C309 1.279 . S
C312 C309 1.358 . S
C312 C313 1.356 . S
C312 H349 0.930 . S
C313 C310 1.348 . S
C313 C312 1.356 . S
H314 C308 0.930 1_545 S
H315 C309 0.930 . S
C316 N317 1.314 . S
C316 C318 1.353 . S
C316 H322 0.930 1_545 S
N317 Li267 1.990 . S
N317 C316 1.314 . S
N317 C320 1.279 . S
C318 C316 1.353 . S
C318 C321 1.348 . S
C318 H350 0.929 . S
C319 C320 1.358 . S
C319 C321 1.356 . S
C319 H351 0.930 . S
C320 N317 1.279 . S
C320 C319 1.358 . S
C320 H323 0.930 . S
C321 C318 1.348 . S
C321 C319 1.356 . S
H322 C316 0.930 1_565 S
H323 C320 0.930 . S
O324 Li264 1.956 . S
O324 Li265 1.970 1_565 S
O324 Li266 1.961 . S
O324 C268 1.325 . S
O325 Li264 1.970 1_545 S
O325 Li265 1.956 . S
O325 Li267 1.961 . S
O325 C274 1.325 . S
O326 Li264 1.961 . S
O326 Li266 1.956 . S
O326 Li267 1.970 1_565 S
O326 C296 1.325 . S
O327 Li265 1.961 . S
O327 Li266 1.970 1_545 S
O327 Li267 1.956 . S
O327 C302 1.325 . S
H328 C270 0.955 . S
H329 C271 0.930 . S
H330 C272 0.930 1_545 S
H331 C273 0.930 . S
H332 C275 0.930 . S
H333 C277 0.944 . S
H334 C278 0.930 . S
H335 C279 0.930 1_565 S
H336 C282 0.930 . S
H337 C285 0.929 . S
H338 C290 0.929 . S
H339 C291 0.930 . S
H340 C298 0.929 . S
H341 C299 0.930 . S
H342 C300 0.930 . S
H343 C301 0.930 . S
H344 C303 0.929 . S
H345 C304 0.930 . S
H346 C305 0.930 . S
H347 C306 0.930 . S
H348 C310 0.929 . S
H349 C312 0.930 . S
H350 C318 0.929 . S
H351 C319 0.930 . S
Li352 N369 1.990 . S
Li352 O412 1.956 . S
Li352 O413 1.970 . S
Li352 O414 1.961 1_554 S
Li353 N377 1.990 . S
Li353 O412 1.970 . S
Li353 O413 1.956 . S
Li353 O415 1.961 1_554 S
Li354 N399 1.990 . S
Li354 O412 1.961 1_556 S
Li354 O414 1.956 . S
Li354 O415 1.970 . S
Li355 N405 1.990 . S
Li355 O413 1.961 1_556 S
Li355 O414 1.970 . S
Li355 O415 1.956 . S
C356 C358 1.348 . S
C356 C359 1.356 . S
C356 O412 1.325 . S
N357 C360 1.314 . S
N357 C361 1.279 . S
C358 C356 1.348 . S
C358 C360 1.353 . S
C358 H416 0.929 . S
C359 C356 1.356 . S
C359 C361 1.358 . S
C359 H417 0.930 . S
C360 N357 1.314 . S
C360 C358 1.353 . S
C360 H418 0.930 . S
C361 N357 1.279 . S
C361 C359 1.358 . S
C361 H419 0.930 . S
C362 C365 1.348 . S
C362 C366 1.356 1_554 S
C362 O413 1.325 . S
C363 N364 1.279 . S
C363 C366 1.358 1_554 S
C363 H420 0.930 1_554 S
N364 C363 1.279 . S
N364 C367 1.314 . S
C365 C362 1.348 . S
C365 C367 1.353 . S
C365 H421 0.929 . S
C366 C362 1.356 1_556 S
C366 C363 1.358 1_556 S
C366 H422 0.930 . S
C367 N364 1.314 . S
C367 C365 1.353 . S
C367 H423 0.930 . S
C368 N369 1.314 . S
C368 C373 1.353 . S
C368 H374 0.930 . S
N369 Li352 1.990 . S
N369 C368 1.314 . S
N369 C371 1.279 . S
C370 C371 1.358 . S
C370 C372 1.356 . S
C370 H424 0.930 . S
C371 N369 1.279 . S
C371 C370 1.358 . S
C371 H375 0.930 . S
C372 C370 1.356 . S
C372 C373 1.348 . S
C373 C368 1.353 . S
C373 C372 1.348 . S
C373 H425 0.929 . S
H374 C368 0.930 . S
H375 C371 0.930 . S
C376 N377 1.314 . S
C376 C378 1.353 . S
C376 H382 0.930 1_554 S
N377 Li353 1.990 . S
N377 C376 1.314 . S
N377 C380 1.279 . S
C378 C376 1.353 . S
C378 C381 1.348 . S
C378 H426 0.929 . S
C379 C380 1.358 . S
C379 C381 1.356 . S
C379 H427 0.930 . S
C380 N377 1.279 . S
C380 C379 1.358 . S
C380 H383 0.930 . S
C381 C378 1.348 . S
C381 C379 1.356 . S
H382 C376 0.930 1_556 S
H383 C380 0.930 . S
C384 C386 1.348 . S
C384 C387 1.356 1_556 S
C384 O414 1.325 . S
N385 C388 1.314 . S
N385 C389 1.279 . S
C386 C384 1.348 . S
C386 C388 1.353 . S
C386 H428 0.929 . S
C387 C384 1.356 1_554 S
C387 C389 1.358 1_554 S
C387 H429 0.930 . S
C388 N385 1.314 . S
C388 C386 1.353 . S
C388 H430 0.930 . S
C389 N385 1.279 . S
C389 C387 1.358 1_556 S
C389 H431 0.930 1_556 S
C390 C391 1.348 . S
C390 C392 1.356 . S
C390 O415 1.325 . S
C391 C390 1.348 . S
C391 C393 1.353 . S
C391 H432 0.929 . S
C392 C390 1.356 . S
C392 C394 1.358 . S
C392 H433 0.930 . S
C393 C391 1.353 . S
C393 N395 1.314 . S
C393 H434 0.930 . S
C394 C392 1.358 . S
C394 N395 1.279 . S
C394 H435 0.930 . S
N395 C393 1.314 . S
N395 C394 1.279 . S
C396 C398 1.353 . S
C396 N399 1.314 . S
C396 H402 0.930 1_556 S
C397 N399 1.279 . S
C397 C400 1.358 . S
C397 H403 0.930 . S
C398 C396 1.353 . S
C398 C401 1.348 . S
C398 H436 0.929 . S
N399 Li354 1.990 . S
N399 C396 1.314 . S
N399 C397 1.279 . S
C400 C397 1.358 . S
C400 C401 1.356 . S
C400 H437 0.930 . S
C401 C398 1.348 . S
C401 C400 1.356 . S
H402 C396 0.930 1_554 S
H403 C397 0.930 . S
C404 N405 1.314 . S
C404 C406 1.353 . S
C404 H410 0.930 . S
N405 Li355 1.990 . S
N405 C404 1.314 . S
N405 C408 1.279 . S
C406 C404 1.353 . S
C406 C409 1.348 . S
C406 H438 0.929 . S
C407 C408 1.358 . S
C407 C409 1.356 . S
C407 H439 0.930 . S
C408 N405 1.279 . S
C408 C407 1.358 . S
C408 H411 0.930 . S
C409 C406 1.348 . S
C409 C407 1.356 . S
H410 C404 0.930 . S
H411 C408 0.930 . S
O412 Li352 1.956 . S
O412 Li353 1.970 . S
O412 Li354 1.961 1_554 S
O412 C356 1.325 . S
O413 Li352 1.970 . S
O413 Li353 1.956 . S
O413 Li355 1.961 1_554 S
O413 C362 1.325 . S
O414 Li352 1.961 1_556 S
O414 Li354 1.956 . S
O414 Li355 1.970 . S
O414 C384 1.325 . S
O415 Li353 1.961 1_556 S
O415 Li354 1.970 . S
O415 Li355 1.956 . S
O415 C390 1.325 . S
H416 C358 0.929 . S
H417 C359 0.930 . S
H418 C360 0.930 . S
H419 C361 0.930 . S
H420 C363 0.930 1_556 S
H421 C365 0.929 . S
H422 C366 0.930 . S
H423 C367 0.930 . S
H424 C370 0.930 . S
H425 C373 0.929 . S
H426 C378 0.929 . S
H427 C379 0.930 . S
H428 C386 0.929 . S
H429 C387 0.930 . S
H430 C388 0.930 . S
H431 C389 0.930 1_554 S
H432 C391 0.929 . S
H433 C392 0.930 . S
H434 C393 0.930 . S
H435 C394 0.930 . S
H436 C398 0.929 . S
H437 C400 0.930 . S
H438 C406 0.929 . S
H439 C407 0.930 . S
Li440 N457 1.990 . S
Li440 O500 1.956 . S
Li440 O501 1.970 1_565 S
Li440 O502 1.961 . S
Li441 N465 1.990 . S
Li441 O500 1.970 1_545 S
Li441 O501 1.956 . S
Li441 O503 1.961 . S
Li442 N487 1.990 . S
Li442 O500 1.961 . S
Li442 O502 1.956 . S
Li442 O503 1.970 1_565 S
Li443 N493 1.990 . S
Li443 O501 1.961 . S
Li443 O502 1.970 1_545 S
Li443 O503 1.956 . S
C444 C446 1.348 . S
C444 C447 1.356 . S
C444 O500 1.325 . S
N445 C448 1.314 . S
N445 C449 1.279 . S
C446 C444 1.348 . S
C446 C448 1.353 . S
C446 H504 0.929 . S
C447 C444 1.356 . S
C447 C449 1.358 . S
C447 H505 0.930 . S
C448 N445 1.314 . S
C448 C446 1.353 . S
C448 H506 0.930 . S
C449 N445 1.279 . S
C449 C447 1.358 . S
C449 H507 0.930 . S
C450 C453 1.348 1_545 S
C450 C454 1.356 . S
C450 O501 1.325 . S
C451 N452 1.279 . S
C451 C454 1.358 . S
C451 H508 0.930 . S
N452 C451 1.279 . S
N452 C455 1.314 . S
C453 C450 1.348 1_565 S
C453 C455 1.353 1_565 S
C453 H509 0.929 . S
C454 C450 1.356 . S
C454 C451 1.358 . S
C454 H510 0.930 . S
C455 N452 1.314 . S
C455 C453 1.353 1_545 S
C455 H511 0.930 1_545 S
C456 N457 1.314 . S
C456 C461 1.353 . S
C456 H462 0.930 . S
N457 Li440 1.990 . S
N457 C456 1.314 . S
N457 C459 1.279 . S
C458 C459 1.358 . S
C458 C460 1.356 . S
C458 H512 0.930 . S
C459 N457 1.279 . S
C459 C458 1.358 . S
C459 H463 0.930 . S
C460 C458 1.356 . S
C460 C461 1.348 . S
C461 C456 1.353 . S
C461 C460 1.348 . S
C461 H513 0.929 . S
H462 C456 0.930 . S
H463 C459 0.930 . S
C464 N465 1.314 . S
C464 C466 1.353 . S
C464 H470 0.930 . S
N465 Li441 1.990 . S
N465 C464 1.314 . S
N465 C468 1.279 . S
C466 C464 1.353 . S
C466 C469 1.348 . S
C466 H514 0.929 . S
C467 C468 1.358 . S
C467 C469 1.356 . S
C467 H515 0.930 . S
C468 N465 1.279 . S
C468 C467 1.358 . S
C468 H471 0.930 . S
C469 C466 1.348 . S
C469 C467 1.356 . S
H470 C464 0.930 . S
H471 C468 0.930 . S
C472 C474 1.348 1_565 S
C472 C475 1.356 . S
C472 O502 1.325 . S
N473 C476 1.365 . S
N473 C477 1.279 . S
C474 C472 1.348 1_545 S
C474 C476 1.339 1_545 S
C474 H516 0.929 . S
C475 C472 1.356 . S
C475 C477 1.358 . S
C475 H517 0.930 . S
C476 N473 1.365 . S
C476 C474 1.339 1_565 S
C476 H518 0.890 1_565 S
C477 N473 1.279 . S
C477 C475 1.358 . S
C477 H519 0.930 . S
C478 C479 1.348 . S
C478 C480 1.356 . S
C478 O503 1.325 . S
C479 C478 1.348 . S
C479 C481 1.353 . S
C479 H520 0.929 . S
C480 C478 1.356 . S
C480 C482 1.358 . S
C480 H521 0.930 . S
C481 C479 1.353 . S
C481 N483 1.314 . S
C481 H522 0.930 . S
C482 C480 1.358 . S
C482 N483 1.279 . S
C482 H523 0.930 . S
N483 C481 1.314 . S
N483 C482 1.279 . S
C484 C486 1.353 . S
C484 N487 1.314 . S
C484 H490 0.930 . S
C485 N487 1.279 . S
C485 C488 1.358 . S
C485 H491 0.930 . S
C486 C484 1.353 . S
C486 C489 1.348 . S
C486 H524 0.929 . S
N487 Li442 1.990 . S
N487 C484 1.314 . S
N487 C485 1.279 . S
C488 C485 1.358 . S
C488 C489 1.356 . S
C488 H525 0.930 . S
C489 C486 1.348 . S
C489 C488 1.356 . S
H490 C484 0.930 . S
H491 C485 0.930 . S
C492 N493 1.314 . S
C492 C494 1.353 . S
C492 H498 0.930 . S
N493 Li443 1.990 . S
N493 C492 1.314 . S
N493 C496 1.279 . S
C494 C492 1.353 . S
C494 C497 1.348 . S
C494 H526 0.929 . S
C495 C496 1.358 . S
C495 C497 1.356 . S
C495 H527 0.930 . S
C496 N493 1.279 . S
C496 C495 1.358 . S
C496 H499 0.930 . S
C497 C494 1.348 . S
C497 C495 1.356 . S
H498 C492 0.930 . S
H499 C496 0.930 . S
O500 Li440 1.956 . S
O500 Li441 1.970 1_565 S
O500 Li442 1.961 . S
O500 C444 1.325 . S
O501 Li440 1.970 1_545 S
O501 Li441 1.956 . S
O501 Li443 1.961 . S
O501 C450 1.325 . S
O502 Li440 1.961 . S
O502 Li442 1.956 . S
O502 Li443 1.970 1_565 S
O502 C472 1.325 . S
O503 Li441 1.961 . S
O503 Li442 1.970 1_545 S
O503 Li443 1.956 . S
O503 C478 1.325 . S
H504 C446 0.929 . S
H505 C447 0.930 . S
H506 C448 0.930 . S
H507 C449 0.930 . S
H508 C451 0.930 . S
H509 C453 0.929 . S
H510 C454 0.930 . S
H511 C455 0.930 1_565 S
H512 C458 0.930 . S
H513 C461 0.929 . S
H514 C466 0.929 . S
H515 C467 0.930 . S
H516 C474 0.929 . S
H517 C475 0.930 . S
H518 C476 0.890 1_545 S
H519 C477 0.930 . S
H520 C479 0.929 . S
H521 C480 0.930 . S
H522 C481 0.930 . S
H523 C482 0.930 . S
H524 C486 0.929 . S
H525 C488 0.930 . S
H526 C494 0.929 . S
H527 C495 0.930 . S
Li528 N545 1.990 . S
Li528 O588 1.956 . S
Li528 O589 1.970 . S
Li528 O590 1.961 . S
Li529 N553 1.990 . S
Li529 O588 1.970 . S
Li529 O589 1.956 . S
Li529 O591 1.961 . S
Li530 N575 1.990 . S
Li530 O588 1.961 . S
Li530 O590 1.956 . S
Li530 O591 1.970 . S
Li531 N581 1.990 . S
Li531 O589 1.961 . S
Li531 O590 1.970 . S
Li531 O591 1.956 . S
C532 C534 1.348 . S
C532 C535 1.356 . S
C532 O588 1.325 . S
N533 C536 1.314 . S
N533 C537 1.279 . S
C534 C532 1.348 . S
C534 C536 1.353 . S
C534 H592 0.929 . S
C535 C532 1.356 . S
C535 C537 1.358 . S
C535 H593 0.930 . S
C536 N533 1.314 . S
C536 C534 1.353 . S
C536 H594 0.930 . S
C537 N533 1.279 . S
C537 C535 1.358 . S
C537 H595 0.930 . S
C538 C541 1.348 . S
C538 C542 1.356 . S
C538 O589 1.325 . S
C539 N540 1.279 . S
C539 C542 1.358 . S
C539 H596 0.930 . S
N540 C539 1.279 . S
N540 C543 1.314 . S
C541 C538 1.348 . S
C541 C543 1.353 . S
C541 H597 0.929 . S
C542 C538 1.356 . S
C542 C539 1.358 . S
C542 H598 0.930 . S
C543 N540 1.314 . S
C543 C541 1.353 . S
C543 H599 0.930 . S
C544 N545 1.314 . S
C544 C549 1.353 . S
C544 H550 0.930 . S
N545 Li528 1.990 . S
N545 C544 1.314 . S
N545 C547 1.279 . S
C546 C547 1.358 . S
C546 C548 1.356 . S
C546 H600 0.930 . S
C547 N545 1.279 . S
C547 C546 1.358 . S
C547 H551 0.930 . S
C548 C546 1.356 . S
C548 C549 1.348 . S
C549 C544 1.353 . S
C549 C548 1.348 . S
C549 H601 0.929 . S
H550 C544 0.930 . S
H551 C547 0.930 . S
C552 N553 1.314 . S
C552 C554 1.353 . S
C552 H558 0.930 . S
N553 Li529 1.990 . S
N553 C552 1.314 . S
N553 C556 1.279 . S
C554 C552 1.353 . S
C554 C557 1.348 . S
C554 H602 0.929 . S
C555 C556 1.358 . S
C555 C557 1.356 . S
C555 H603 0.930 . S
C556 N553 1.279 . S
C556 C555 1.358 . S
C556 H559 0.930 . S
C557 C554 1.348 . S
C557 C555 1.356 . S
H558 C552 0.930 . S
H559 C556 0.930 . S
C560 C562 1.348 . S
C560 C563 1.356 . S
C560 O590 1.325 . S
N561 C564 1.314 . S
N561 C565 1.279 . S
C562 C560 1.348 . S
C562 C564 1.353 . S
C562 H604 0.929 . S
C563 C560 1.356 . S
C563 C565 1.358 . S
C563 H605 0.930 . S
C564 N561 1.314 . S
C564 C562 1.353 . S
C564 H606 0.930 . S
C565 N561 1.279 . S
C565 C563 1.358 . S
C565 H607 0.930 . S
C566 C567 1.348 . S
C566 C568 1.356 . S
C566 O591 1.325 . S
C567 C566 1.348 . S
C567 C569 1.353 . S
C567 H608 0.929 . S
C568 C566 1.356 . S
C568 C570 1.358 . S
C568 H609 0.930 . S
C569 C567 1.353 . S
C569 N571 1.314 . S
C569 H610 0.930 . S
C570 C568 1.358 . S
C570 N571 1.279 . S
C570 H611 0.930 . S
N571 C569 1.314 . S
N571 C570 1.279 . S
C572 C574 1.353 . S
C572 N575 1.314 . S
C572 H578 0.930 . S
C573 N575 1.279 . S
C573 C576 1.358 . S
C573 H579 0.930 . S
C574 C572 1.353 . S
C574 C577 1.348 . S
C574 H612 0.929 . S
N575 Li530 1.990 . S
N575 C572 1.314 . S
N575 C573 1.279 . S
C576 C573 1.358 . S
C576 C577 1.356 . S
C576 H613 0.930 . S
C577 C574 1.348 . S
C577 C576 1.356 . S
H578 C572 0.930 . S
H579 C573 0.930 . S
C580 N581 1.314 . S
C580 C582 1.353 . S
C580 H586 0.930 . S
N581 Li531 1.990 . S
N581 C580 1.314 . S
N581 C584 1.279 . S
C582 C580 1.353 . S
C582 C585 1.348 . S
C582 H614 0.929 . S
C583 C584 1.358 . S
C583 C585 1.356 . S
C583 H615 0.930 . S
C584 N581 1.279 . S
C584 C583 1.358 . S
C584 H587 0.930 . S
C585 C582 1.348 . S
C585 C583 1.356 . S
H586 C580 0.930 . S
H587 C584 0.930 . S
O588 Li528 1.956 . S
O588 Li529 1.970 . S
O588 Li530 1.961 . S
O588 C532 1.325 . S
O589 Li528 1.970 . S
O589 Li529 1.956 . S
O589 Li531 1.961 . S
O589 C538 1.325 . S
O590 Li528 1.961 . S
O590 Li530 1.956 . S
O590 Li531 1.970 . S
O590 C560 1.325 . S
O591 Li529 1.961 . S
O591 Li530 1.970 . S
O591 Li531 1.956 . S
O591 C566 1.325 . S
H592 C534 0.929 . S
H593 C535 0.930 . S
H594 C536 0.930 . S
H595 C537 0.930 . S
H596 C539 0.930 . S
H597 C541 0.929 . S
H598 C542 0.930 . S
H599 C543 0.930 . S
H600 C546 0.930 . S
H601 C549 0.929 . S
H602 C554 0.929 . S
H603 C555 0.930 . S
H604 C562 0.929 . S
H605 C563 0.930 . S
H606 C564 0.930 . S
H607 C565 0.930 . S
H608 C567 0.929 . S
H609 C568 0.930 . S
H610 C569 0.930 . S
H611 C570 0.930 . S
H612 C574 0.929 . S
H613 C576 0.930 . S
H614 C582 0.929 . S
H615 C583 0.930 . S
Li616 N633 1.990 . S
Li616 O676 1.956 . S
Li616 O677 1.970 1_545 S
Li616 O678 1.961 . S
Li617 N641 1.990 . S
Li617 O676 1.970 1_565 S
Li617 O677 1.956 . S
Li617 O679 1.961 . S
Li618 N663 1.990 . S
Li618 O676 1.961 . S
Li618 O678 1.956 . S
Li618 O679 1.970 1_545 S
Li619 N669 1.990 . S
Li619 O677 1.961 . S
Li619 O678 1.970 1_565 S
Li619 O679 1.956 . S
C620 C622 1.348 . S
C620 C623 1.356 . S
C620 O676 1.325 . S
N621 C624 1.314 . S
N621 C625 1.279 . S
C622 C620 1.348 . S
C622 C624 1.353 . S
C622 H680 0.929 . S
C623 C620 1.356 . S
C623 C625 1.358 . S
C623 H681 0.930 . S
C624 N621 1.314 . S
C624 C622 1.353 . S
C624 H682 0.930 . S
C625 N621 1.279 . S
C625 C623 1.358 . S
C625 H683 0.930 . S
C626 C629 1.348 1_565 S
C626 C630 1.356 . S
C626 O677 1.325 . S
C627 N628 1.279 . S
C627 C630 1.358 . S
C627 H684 0.930 . S
N628 C627 1.279 . S
N628 C631 1.365 . S
C629 C626 1.348 1_545 S
C629 C631 1.339 1_545 S
C629 H685 0.929 . S
C630 C626 1.356 . S
C630 C627 1.358 . S
C630 H686 0.930 . S
C631 N628 1.365 . S
C631 C629 1.339 1_565 S
C631 H687 0.890 1_565 S
C632 N633 1.314 . S
C632 C637 1.353 . S
C632 H638 0.930 . S
N633 Li616 1.990 . S
N633 C632 1.314 . S
N633 C635 1.279 . S
C634 C635 1.358 . S
C634 C636 1.356 . S
C634 H688 0.930 . S
C635 N633 1.279 . S
C635 C634 1.358 . S
C635 H639 0.930 . S
C636 C634 1.356 . S
C636 C637 1.348 . S
C637 C632 1.353 . S
C637 C636 1.348 . S
C637 H689 0.929 . S
H638 C632 0.930 . S
H639 C635 0.930 . S
C640 N641 1.314 . S
C640 C642 1.353 . S
C640 H646 0.930 . S
N641 Li617 1.990 . S
N641 C640 1.314 . S
N641 C644 1.279 . S
C642 C640 1.353 . S
C642 C645 1.348 . S
C642 H690 0.929 . S
C643 C644 1.358 . S
C643 C645 1.356 . S
C643 H691 0.930 . S
C644 N641 1.279 . S
C644 C643 1.358 . S
C644 H647 0.930 . S
C645 C642 1.348 . S
C645 C643 1.356 . S
H646 C640 0.930 . S
H647 C644 0.930 . S
C648 C650 1.348 1_545 S
C648 C651 1.356 . S
C648 O678 1.325 . S
N649 C652 1.314 . S
N649 C653 1.279 . S
C650 C648 1.348 1_565 S
C650 C652 1.353 1_565 S
C650 H692 0.929 . S
C651 C648 1.356 . S
C651 C653 1.358 . S
C651 H693 0.930 . S
C652 N649 1.314 . S
C652 C650 1.353 1_545 S
C652 H694 0.930 1_545 S
C653 N649 1.279 . S
C653 C651 1.358 . S
C653 H695 0.930 . S
C654 C655 1.348 . S
C654 C656 1.356 . S
C654 O679 1.325 . S
C655 C654 1.348 . S
C655 C657 1.353 . S
C655 H696 0.929 . S
C656 C654 1.356 . S
C656 C658 1.358 . S
C656 H697 0.930 . S
C657 C655 1.353 . S
C657 N659 1.314 . S
C657 H698 0.930 . S
C658 C656 1.358 . S
C658 N659 1.279 . S
C658 H699 0.930 . S
N659 C657 1.314 . S
N659 C658 1.279 . S
C660 C662 1.353 . S
C660 N663 1.314 . S
C660 H666 0.930 . S
C661 N663 1.279 . S
C661 C664 1.358 . S
C661 H667 0.930 . S
C662 C660 1.353 . S
C662 C665 1.348 . S
C662 H700 0.929 . S
N663 Li618 1.990 . S
N663 C660 1.314 . S
N663 C661 1.279 . S
C664 C661 1.358 . S
C664 C665 1.356 . S
C664 H701 0.930 . S
C665 C662 1.348 . S
C665 C664 1.356 . S
H666 C660 0.930 . S
H667 C661 0.930 . S
C668 N669 1.314 . S
C668 C670 1.353 . S
C668 H674 0.930 . S
N669 Li619 1.990 . S
N669 C668 1.314 . S
N669 C672 1.279 . S
C670 C668 1.353 . S
C670 C673 1.348 . S
C670 H702 0.929 . S
C671 C672 1.358 . S
C671 C673 1.356 . S
C671 H703 0.930 . S
C672 N669 1.279 . S
C672 C671 1.358 . S
C672 H675 0.930 . S
C673 C670 1.348 . S
C673 C671 1.356 . S
H674 C668 0.930 . S
H675 C672 0.930 . S
O676 Li616 1.956 . S
O676 Li617 1.970 1_545 S
O676 Li618 1.961 . S
O676 C620 1.325 . S
O677 Li616 1.970 1_565 S
O677 Li617 1.956 . S
O677 Li619 1.961 . S
O677 C626 1.325 . S
O678 Li616 1.961 . S
O678 Li618 1.956 . S
O678 Li619 1.970 1_545 S
O678 C648 1.325 . S
O679 Li617 1.961 . S
O679 Li618 1.970 1_565 S
O679 Li619 1.956 . S
O679 C654 1.325 . S
H680 C622 0.929 . S
H681 C623 0.930 . S
H682 C624 0.930 . S
H683 C625 0.930 . S
H684 C627 0.930 . S
H685 C629 0.929 . S
H686 C630 0.930 . S
H687 C631 0.890 1_545 S
H688 C634 0.930 . S
H689 C637 0.929 . S
H690 C642 0.929 . S
H691 C643 0.930 . S
H692 C650 0.929 . S
H693 C651 0.930 . S
H694 C652 0.930 1_565 S
H695 C653 0.930 . S
H696 C655 0.929 . S
H697 C656 0.930 . S
H698 C657 0.930 . S
H699 C658 0.930 . S
H700 C662 0.929 . S
H701 C664 0.930 . S
H702 C670 0.929 . S
H703 C671 0.930 . S
Li704 N721 1.990 . S
Li704 O764 1.956 . S
Li704 O765 1.970 . S
Li704 O766 1.961 . S
Li705 N729 1.990 . S
Li705 O764 1.970 . S
Li705 O765 1.956 . S
Li705 O767 1.961 . S
Li706 N751 1.990 . S
Li706 O764 1.961 . S
Li706 O766 1.956 . S
Li706 O767 1.970 . S
Li707 N757 1.990 . S
Li707 O765 1.961 . S
Li707 O766 1.970 . S
Li707 O767 1.956 . S
C708 C710 1.348 . S
C708 C711 1.356 . S
C708 O764 1.325 . S
N709 C712 1.314 . S
N709 C713 1.279 . S
C710 C708 1.348 . S
C710 C712 1.353 . S
C710 H768 0.929 . S
C711 C708 1.356 . S
C711 C713 1.358 . S
C711 H769 0.930 . S
C712 N709 1.314 . S
C712 C710 1.353 . S
C712 H770 0.930 . S
C713 N709 1.279 . S
C713 C711 1.358 . S
C713 H771 0.930 . S
C714 C717 1.348 . S
C714 C718 1.356 . S
C714 O765 1.325 . S
C715 N716 1.279 . S
C715 C718 1.358 . S
C715 H772 0.930 . S
N716 C715 1.279 . S
N716 C719 1.314 . S
C717 C714 1.348 . S
C717 C719 1.353 . S
C717 H773 0.929 . S
C718 C714 1.356 . S
C718 C715 1.358 . S
C718 H774 0.930 . S
C719 N716 1.314 . S
C719 C717 1.353 . S
C719 H775 0.930 . S
C720 N721 1.314 . S
C720 C725 1.353 . S
C720 H726 0.930 . S
N721 Li704 1.990 . S
N721 C720 1.314 . S
N721 C723 1.279 . S
C722 C723 1.358 . S
C722 C724 1.356 . S
C722 H776 0.930 . S
C723 N721 1.279 . S
C723 C722 1.358 . S
C723 H727 0.930 . S
C724 C722 1.356 . S
C724 C725 1.348 . S
C725 C720 1.353 . S
C725 C724 1.348 . S
C725 H777 0.929 . S
H726 C720 0.930 . S
H727 C723 0.930 . S
C728 N729 1.314 . S
C728 C730 1.353 . S
C728 H734 0.930 . S
N729 Li705 1.990 . S
N729 C728 1.314 . S
N729 C732 1.279 . S
C730 C728 1.353 . S
C730 C733 1.348 . S
C730 H778 0.929 . S
C731 C732 1.358 . S
C731 C733 1.356 . S
C731 H779 0.930 . S
C732 N729 1.279 . S
C732 C731 1.358 . S
C732 H735 0.930 . S
C733 C730 1.348 . S
C733 C731 1.356 . S
H734 C728 0.930 . S
H735 C732 0.930 . S
C736 C738 1.348 . S
C736 C739 1.356 . S
C736 O766 1.325 . S
N737 C740 1.314 . S
N737 C741 1.279 . S
C738 C736 1.348 . S
C738 C740 1.353 . S
C738 H780 0.929 . S
C739 C736 1.356 . S
C739 C741 1.358 . S
C739 H781 0.930 . S
C740 N737 1.314 . S
C740 C738 1.353 . S
C740 H782 0.930 . S
C741 N737 1.279 . S
C741 C739 1.358 . S
C741 H783 0.930 . S
C742 C743 1.348 . S
C742 C744 1.356 . S
C742 O767 1.325 . S
C743 C742 1.348 . S
C743 C745 1.353 . S
C743 H784 0.929 . S
C744 C742 1.356 . S
C744 C746 1.358 . S
C744 H785 0.930 . S
C745 C743 1.353 . S
C745 N747 1.314 . S
C745 H786 0.930 . S
C746 C744 1.358 . S
C746 N747 1.279 . S
C746 H787 0.930 . S
N747 C745 1.314 . S
N747 C746 1.279 . S
C748 C750 1.353 . S
C748 N751 1.314 . S
C748 H754 0.930 . S
C749 N751 1.279 . S
C749 C752 1.358 . S
C749 H755 0.930 . S
C750 C748 1.353 . S
C750 C753 1.348 . S
C750 H788 0.929 . S
N751 Li706 1.990 . S
N751 C748 1.314 . S
N751 C749 1.279 . S
C752 C749 1.358 . S
C752 C753 1.356 . S
C752 H789 0.930 . S
C753 C750 1.348 . S
C753 C752 1.356 . S
H754 C748 0.930 . S
H755 C749 0.930 . S
C756 N757 1.314 . S
C756 C758 1.353 . S
C756 H762 0.930 . S
N757 Li707 1.990 . S
N757 C756 1.314 . S
N757 C760 1.279 . S
C758 C756 1.353 . S
C758 C761 1.348 . S
C758 H790 0.929 . S
C759 C760 1.358 . S
C759 C761 1.356 . S
C759 H791 0.930 . S
C760 N757 1.279 . S
C760 C759 1.358 . S
C760 H763 0.930 . S
C761 C758 1.348 . S
C761 C759 1.356 . S
H762 C756 0.930 . S
H763 C760 0.930 . S
O764 Li704 1.956 . S
O764 Li705 1.970 . S
O764 Li706 1.961 . S
O764 C708 1.325 . S
O765 Li704 1.970 . S
O765 Li705 1.956 . S
O765 Li707 1.961 . S
O765 C714 1.325 . S
O766 Li704 1.961 . S
O766 Li706 1.956 . S
O766 Li707 1.970 . S
O766 C736 1.325 . S
O767 Li705 1.961 . S
O767 Li706 1.970 . S
O767 Li707 1.956 . S
O767 C742 1.325 . S
H768 C710 0.929 . S
H769 C711 0.930 . S
H770 C712 0.930 . S
H771 C713 0.930 . S
H772 C715 0.930 . S
H773 C717 0.929 . S
H774 C718 0.930 . S
H775 C719 0.930 . S
H776 C722 0.930 . S
H777 C725 0.929 . S
H778 C730 0.929 . S
H779 C731 0.930 . S
H780 C738 0.929 . S
H781 C739 0.930 . S
H782 C740 0.930 . S
H783 C741 0.930 . S
H784 C743 0.929 . S
H785 C744 0.930 . S
H786 C745 0.930 . S
H787 C746 0.930 . S
H788 C750 0.929 . S
H789 C752 0.930 . S
H790 C758 0.929 . S
H791 C759 0.930 . S
Li792 N809 1.990 . S
Li792 O852 1.956 . S
Li792 O853 1.970 . S
Li792 O854 1.961 . S
Li793 N817 1.990 . S
Li793 O852 1.970 . S
Li793 O853 1.956 . S
Li793 O855 1.961 . S
Li794 N839 1.990 . S
Li794 O852 1.961 . S
Li794 O854 1.956 . S
Li794 O855 1.970 . S
Li795 N845 1.990 . S
Li795 O853 1.961 . S
Li795 O854 1.970 . S
Li795 O855 1.956 . S
C796 C798 1.348 . S
C796 C799 1.356 . S
C796 O852 1.325 . S
N797 C800 1.314 . S
N797 C801 1.279 . S
C798 C796 1.348 . S
C798 C800 1.353 . S
C798 H856 0.929 . S
C799 C796 1.356 . S
C799 C801 1.358 . S
C799 H857 0.930 . S
C800 N797 1.314 . S
C800 C798 1.353 . S
C800 H858 0.930 . S
C801 N797 1.279 . S
C801 C799 1.358 . S
C801 H859 0.930 . S
C802 C805 1.348 . S
C802 C806 1.356 . S
C802 O853 1.325 . S
C803 N804 1.279 . S
C803 C806 1.358 . S
C803 H860 0.930 . S
N804 C803 1.279 . S
N804 C807 1.314 . S
C805 C802 1.348 . S
C805 C807 1.353 . S
C805 H861 0.929 . S
C806 C802 1.356 . S
C806 C803 1.358 . S
C806 H862 0.930 . S
C807 N804 1.314 . S
C807 C805 1.353 . S
C807 H863 0.930 . S
C808 N809 1.314 . S
C808 C813 1.353 . S
C808 H814 0.930 . S
N809 Li792 1.990 . S
N809 C808 1.314 . S
N809 C811 1.279 . S
C810 C811 1.358 . S
C810 C812 1.356 . S
C810 H864 0.930 . S
C811 N809 1.279 . S
C811 C810 1.358 . S
C811 H815 0.930 . S
C812 C810 1.356 . S
C812 C813 1.348 . S
C813 C808 1.353 . S
C813 C812 1.348 . S
C813 H865 0.929 . S
H814 C808 0.930 . S
H815 C811 0.930 . S
C816 N817 1.314 . S
C816 C818 1.353 . S
C816 H822 0.930 . S
N817 Li793 1.990 . S
N817 C816 1.314 . S
N817 C820 1.279 . S
C818 C816 1.353 . S
C818 C821 1.348 . S
C818 H866 0.929 . S
C819 C820 1.358 . S
C819 C821 1.356 . S
C819 H867 0.930 . S
C820 N817 1.279 . S
C820 C819 1.358 . S
C820 H823 0.930 . S
C821 C818 1.348 . S
C821 C819 1.356 . S
H822 C816 0.930 . S
H823 C820 0.930 . S
C824 C826 1.348 . S
C824 C827 1.356 . S
C824 O854 1.325 . S
N825 C828 1.314 . S
N825 C829 1.279 . S
C826 C824 1.348 . S
C826 C828 1.353 . S
C826 H868 0.929 . S
C827 C824 1.356 . S
C827 C829 1.358 . S
C827 H869 0.930 . S
C828 N825 1.314 . S
C828 C826 1.353 . S
C828 H870 0.930 . S
C829 N825 1.279 . S
C829 C827 1.358 . S
C829 H871 0.930 . S
C830 C831 1.348 . S
C830 C832 1.356 . S
C830 O855 1.325 . S
C831 C830 1.348 . S
C831 C833 1.353 . S
C831 H872 0.929 . S
C832 C830 1.356 . S
C832 C834 1.358 . S
C832 H873 0.930 . S
C833 C831 1.353 . S
C833 N835 1.314 . S
C833 H874 0.930 . S
C834 C832 1.358 . S
C834 N835 1.279 . S
C834 H875 0.930 . S
N835 C833 1.314 . S
N835 C834 1.279 . S
C836 C838 1.353 . S
C836 N839 1.314 . S
C836 H842 0.930 . S
C837 N839 1.279 . S
C837 C840 1.358 . S
C837 H843 0.930 . S
C838 C836 1.353 . S
C838 C841 1.348 . S
C838 H876 0.929 . S
N839 Li794 1.990 . S
N839 C836 1.314 . S
N839 C837 1.279 . S
C840 C837 1.358 . S
C840 C841 1.356 . S
C840 H877 0.930 . S
C841 C838 1.348 . S
C841 C840 1.356 . S
H842 C836 0.930 . S
H843 C837 0.930 . S
C844 N845 1.314 . S
C844 C846 1.353 . S
C844 H850 0.930 . S
N845 Li795 1.990 . S
N845 C844 1.314 . S
N845 C848 1.279 . S
C846 C844 1.353 . S
C846 C849 1.348 . S
C846 H878 0.929 . S
C847 C848 1.358 . S
C847 C849 1.356 . S
C847 H879 0.930 . S
C848 N845 1.279 . S
C848 C847 1.358 . S
C848 H851 0.930 . S
C849 C846 1.348 . S
C849 C847 1.356 . S
H850 C844 0.930 . S
H851 C848 0.930 . S
O852 Li792 1.956 . S
O852 Li793 1.970 . S
O852 Li794 1.961 . S
O852 C796 1.325 . S
O853 Li792 1.970 . S
O853 Li793 1.956 . S
O853 Li795 1.961 . S
O853 C802 1.325 . S
O854 Li792 1.961 . S
O854 Li794 1.956 . S
O854 Li795 1.970 . S
O854 C824 1.325 . S
O855 Li793 1.961 . S
O855 Li794 1.970 . S
O855 Li795 1.956 . S
O855 C830 1.325 . S
H856 C798 0.929 . S
H857 C799 0.930 . S
H858 C800 0.930 . S
H859 C801 0.930 . S
H860 C803 0.930 . S
H861 C805 0.929 . S
H862 C806 0.930 . S
H863 C807 0.930 . S
H864 C810 0.930 . S
H865 C813 0.929 . S
H866 C818 0.929 . S
H867 C819 0.930 . S
H868 C826 0.929 . S
H869 C827 0.930 . S
H870 C828 0.930 . S
H871 C829 0.930 . S
H872 C831 0.929 . S
H873 C832 0.930 . S
H874 C833 0.930 . S
H875 C834 0.930 . S
H876 C838 0.929 . S
H877 C840 0.930 . S
H878 C846 0.929 . S
H879 C847 0.930 . S
Li880 N897 1.990 . S
Li880 O940 1.956 1_556 S
Li880 O941 1.970 . S
Li880 O942 1.961 . S
Li881 N905 1.990 . S
Li881 O940 1.970 . S
Li881 O941 1.956 1_554 S
Li881 O943 1.961 . S
Li882 N927 1.990 . S
Li882 O940 1.961 . S
Li882 O942 1.956 1_554 S
Li882 O943 1.970 . S
Li883 N933 1.990 . S
Li883 O941 1.961 . S
Li883 O942 1.970 . S
Li883 O943 1.956 1_556 S
C884 C886 1.348 . S
C884 C887 1.356 . S
C884 O940 1.325 . S
N885 C888 1.314 . S
N885 C889 1.279 . S
C886 C884 1.348 . S
C886 C888 1.353 . S
C886 H944 0.929 . S
C887 C884 1.356 . S
C887 C889 1.358 . S
C887 H945 0.930 1_554 S
C888 N885 1.314 . S
C888 C886 1.353 . S
C888 H946 0.930 . S
C889 N885 1.279 . S
C889 C887 1.358 . S
C889 H947 0.930 1_554 S
C890 C893 1.348 . S
C890 C894 1.356 . S
C890 O941 1.325 . S
C891 N892 1.279 . S
C891 C894 1.358 . S
C891 H948 0.930 1_556 S
N892 C891 1.279 . S
N892 C895 1.314 . S
C893 C890 1.348 . S
C893 C895 1.353 . S
C893 H949 0.929 . S
C894 C890 1.356 . S
C894 C891 1.358 . S
C894 H950 0.930 1_556 S
C895 N892 1.314 . S
C895 C893 1.353 . S
C895 H951 0.930 . S
C896 N897 1.314 . S
C896 C901 1.353 . S
C896 H902 0.930 . S
N897 Li880 1.990 . S
N897 C896 1.314 . S
N897 C899 1.279 . S
C898 C899 1.358 . S
C898 C900 1.356 . S
C898 H952 0.930 . S
C899 N897 1.279 . S
C899 C898 1.358 . S
C899 H903 0.930 . S
C900 C898 1.356 . S
C900 C901 1.348 . S
C901 C896 1.353 . S
C901 C900 1.348 . S
C901 H953 0.929 . S
H902 C896 0.930 . S
H903 C899 0.930 . S
C904 N905 1.314 . S
C904 C906 1.353 . S
C904 H910 0.930 . S
N905 Li881 1.990 . S
N905 C904 1.314 . S
N905 C908 1.279 . S
C906 C904 1.353 . S
C906 C909 1.348 . S
C906 H954 0.929 . S
C907 C908 1.358 . S
C907 C909 1.356 . S
C907 H955 0.930 . S
C908 N905 1.279 . S
C908 C907 1.358 . S
C908 H911 0.930 . S
C909 C906 1.348 . S
C909 C907 1.356 . S
H910 C904 0.930 . S
H911 C908 0.930 . S
C912 C914 1.348 . S
C912 C915 1.356 . S
C912 O942 1.325 . S
N913 C916 1.314 . S
N913 C917 1.279 . S
C914 C912 1.348 . S
C914 C916 1.353 . S
C914 H956 0.929 . S
C915 C912 1.356 . S
C915 C917 1.358 . S
C915 H957 0.930 . S
C916 N913 1.314 . S
C916 C914 1.353 . S
C916 H958 0.930 . S
C917 N913 1.279 . S
C917 C915 1.358 . S
C917 H959 0.930 . S
C918 C919 1.348 . S
C918 C920 1.356 . S
C918 O943 1.325 . S
C919 C918 1.348 . S
C919 C921 1.353 . S
C919 H960 0.929 . S
C920 C918 1.356 . S
C920 C922 1.358 . S
C920 H961 0.930 . S
C921 C919 1.353 . S
C921 N923 1.314 . S
C921 H962 0.930 . S
C922 C920 1.358 . S
C922 N923 1.279 . S
C922 H963 0.930 . S
N923 C921 1.314 . S
N923 C922 1.279 . S
C924 C926 1.353 . S
C924 N927 1.314 . S
C924 H930 0.930 . S
C925 N927 1.279 1_556 S
C925 C928 1.358 1_556 S
C925 H931 0.930 . S
C926 C924 1.353 . S
C926 C929 1.348 . S
C926 H964 0.929 . S
N927 Li882 1.990 . S
N927 C924 1.314 . S
N927 C925 1.279 1_554 S
C928 C925 1.358 1_554 S
C928 C929 1.356 . S
C928 H965 0.930 1_554 S
C929 C926 1.348 . S
C929 C928 1.356 . S
H930 C924 0.930 . S
H931 C925 0.930 . S
C932 N933 1.314 . S
C932 C934 1.353 . S
C932 H938 0.930 . S
N933 Li883 1.990 . S
N933 C932 1.314 . S
N933 C936 1.279 1_556 S
C934 C932 1.353 . S
C934 C937 1.348 . S
C934 H966 0.929 . S
C935 C936 1.358 1_556 S
C935 C937 1.356 . S
C935 H967 0.930 1_556 S
C936 N933 1.279 1_554 S
C936 C935 1.358 1_554 S
C936 H939 0.930 . S
C937 C934 1.348 . S
C937 C935 1.356 . S
H938 C932 0.930 . S
H939 C936 0.930 . S
O940 Li880 1.956 1_554 S
O940 Li881 1.970 . S
O940 Li882 1.961 . S
O940 C884 1.325 . S
O941 Li880 1.970 . S
O941 Li881 1.956 1_556 S
O941 Li883 1.961 . S
O941 C890 1.325 . S
O942 Li880 1.961 . S
O942 Li882 1.956 1_556 S
O942 Li883 1.970 . S
O942 C912 1.325 . S
O943 Li881 1.961 . S
O943 Li882 1.970 . S
O943 Li883 1.956 1_554 S
O943 C918 1.325 . S
H944 C886 0.929 . S
H945 C887 0.930 1_556 S
H946 C888 0.930 . S
H947 C889 0.930 1_556 S
H948 C891 0.930 1_554 S
H949 C893 0.929 . S
H950 C894 0.930 1_554 S
H951 C895 0.930 . S
H952 C898 0.930 . S
H953 C901 0.929 . S
H954 C906 0.929 . S
H955 C907 0.930 . S
H956 C914 0.929 . S
H957 C915 0.930 . S
H958 C916 0.930 . S
H959 C917 0.930 . S
H960 C919 0.929 . S
H961 C920 0.930 . S
H962 C921 0.930 . S
H963 C922 0.930 . S
H964 C926 0.929 . S
H965 C928 0.930 1_556 S
H966 C934 0.929 . S
H967 C935 0.930 1_554 S
Li968 N985 1.990 . S
Li968 O1028 1.956 . S
Li968 O1029 1.970 . S
Li968 O1030 1.961 . S
Li969 N993 1.990 . S
Li969 O1028 1.970 . S
Li969 O1029 1.956 . S
Li969 O1031 1.961 . S
Li970 N1015 1.990 . S
Li970 O1028 1.961 . S
Li970 O1030 1.956 . S
Li970 O1031 1.970 . S
Li971 N1021 1.990 . S
Li971 O1029 1.961 . S
Li971 O1030 1.970 . S
Li971 O1031 1.956 . S
C972 C974 1.348 . S
C972 C975 1.356 . S
C972 O1028 1.325 . S
N973 C976 1.314 . S
N973 C977 1.279 . S
C974 C972 1.348 . S
C974 C976 1.353 . S
C974 H1032 0.929 . S
C975 C972 1.356 . S
C975 C977 1.358 . S
C975 H1033 0.930 . S
C976 N973 1.314 . S
C976 C974 1.353 . S
C976 H1034 0.930 . S
C977 N973 1.279 . S
C977 C975 1.358 . S
C977 H1035 0.930 . S
C978 C981 1.348 . S
C978 C982 1.356 . S
C978 O1029 1.325 . S
C979 N980 1.279 . S
C979 C982 1.358 . S
C979 H1036 0.930 . S
N980 C979 1.279 . S
N980 C983 1.314 . S
C981 C978 1.348 . S
C981 C983 1.353 . S
C981 H1037 0.929 . S
C982 C978 1.356 . S
C982 C979 1.358 . S
C982 H1038 0.930 . S
C983 N980 1.314 . S
C983 C981 1.353 . S
C983 H1039 0.930 . S
C984 N985 1.314 . S
C984 C989 1.353 . S
C984 H990 0.930 . S
N985 Li968 1.990 . S
N985 C984 1.314 . S
N985 C987 1.279 . S
C986 C987 1.358 . S
C986 C988 1.356 . S
C986 H1040 0.930 . S
C987 N985 1.279 . S
C987 C986 1.358 . S
C987 H991 0.930 . S
C988 C986 1.356 . S
C988 C989 1.348 . S
C989 C984 1.353 . S
C989 C988 1.348 . S
C989 H1041 0.929 . S
H990 C984 0.930 . S
H991 C987 0.930 . S
C992 N993 1.314 . S
C992 C994 1.353 . S
C992 H998 0.930 . S
N993 Li969 1.990 . S
N993 C992 1.314 . S
N993 C996 1.279 . S
C994 C992 1.353 . S
C994 C997 1.348 . S
C994 H1042 0.929 . S
C995 C996 1.358 . S
C995 C997 1.356 . S
C995 H1043 0.930 . S
C996 N993 1.279 . S
C996 C995 1.358 . S
C996 H999 0.930 . S
C997 C994 1.348 . S
C997 C995 1.356 . S
H998 C992 0.930 . S
H999 C996 0.930 . S
C1000 C1002 1.348 . S
C1000 C1003 1.356 . S
C1000 O1030 1.325 . S
N1001 C1004 1.314 . S
N1001 C1005 1.279 . S
C1002 C1000 1.348 . S
C1002 C1004 1.353 . S
C1002 H1044 0.929 . S
C1003 C1000 1.356 . S
C1003 C1005 1.358 . S
C1003 H1045 0.930 . S
C1004 N1001 1.314 . S
C1004 C1002 1.353 . S
C1004 H1046 0.930 . S
C1005 N1001 1.279 . S
C1005 C1003 1.358 . S
C1005 H1047 0.930 . S
C1006 C1007 1.348 . S
C1006 C1008 1.356 . S
C1006 O1031 1.325 . S
C1007 C1006 1.348 . S
C1007 C1009 1.353 . S
C1007 H1048 0.929 . S
C1008 C1006 1.356 . S
C1008 C1010 1.358 . S
C1008 H1049 0.930 . S
C1009 C1007 1.353 . S
C1009 N1011 1.314 . S
C1009 H1050 0.930 . S
C1010 C1008 1.358 . S
C1010 N1011 1.279 . S
C1010 H1051 0.930 . S
N1011 C1009 1.314 . S
N1011 C1010 1.279 . S
C1012 C1014 1.353 . S
C1012 N1015 1.314 . S
C1012 H1018 0.930 . S
C1013 N1015 1.279 . S
C1013 C1016 1.358 . S
C1013 H1019 0.930 . S
C1014 C1012 1.353 . S
C1014 C1017 1.348 . S
C1014 H1052 0.929 . S
N1015 Li970 1.990 . S
N1015 C1012 1.314 . S
N1015 C1013 1.279 . S
C1016 C1013 1.358 . S
C1016 C1017 1.356 . S
C1016 H1053 0.930 . S
C1017 C1014 1.348 . S
C1017 C1016 1.356 . S
H1018 C1012 0.930 . S
H1019 C1013 0.930 . S
C1020 N1021 1.314 . S
C1020 C1022 1.353 . S
C1020 H1026 0.930 . S
N1021 Li971 1.990 . S
N1021 C1020 1.314 . S
N1021 C1024 1.279 . S
C1022 C1020 1.353 . S
C1022 C1025 1.348 . S
C1022 H1054 0.929 . S
C1023 C1024 1.358 . S
C1023 C1025 1.356 . S
C1023 H1055 0.930 . S
C1024 N1021 1.279 . S
C1024 C1023 1.358 . S
C1024 H1027 0.930 . S
C1025 C1022 1.348 . S
C1025 C1023 1.356 . S
H1026 C1020 0.930 . S
H1027 C1024 0.930 . S
O1028 Li968 1.956 . S
O1028 Li969 1.970 . S
O1028 Li970 1.961 . S
O1028 C972 1.325 . S
O1029 Li968 1.970 . S
O1029 Li969 1.956 . S
O1029 Li971 1.961 . S
O1029 C978 1.325 . S
O1030 Li968 1.961 . S
O1030 Li970 1.956 . S
O1030 Li971 1.970 . S
O1030 C1000 1.325 . S
O1031 Li969 1.961 . S
O1031 Li970 1.970 . S
O1031 Li971 1.956 . S
O1031 C1006 1.325 . S
H1032 C974 0.929 . S
H1033 C975 0.930 . S
H1034 C976 0.930 . S
H1035 C977 0.930 . S
H1036 C979 0.930 . S
H1037 C981 0.929 . S
H1038 C982 0.930 . S
H1039 C983 0.930 . S
H1040 C986 0.930 . S
H1041 C989 0.929 . S
H1042 C994 0.929 . S
H1043 C995 0.930 . S
H1044 C1002 0.929 . S
H1045 C1003 0.930 . S
H1046 C1004 0.930 . S
H1047 C1005 0.930 . S
H1048 C1007 0.929 . S
H1049 C1008 0.930 . S
H1050 C1009 0.930 . S
H1051 C1010 0.930 . S
H1052 C1014 0.929 . S
H1053 C1016 0.930 . S
H1054 C1022 0.929 . S
H1055 C1023 0.930 . S
Li1056 N1073 1.990 . S
Li1056 O1116 1.956 . S
Li1056 O1117 1.970 . S
Li1056 O1118 1.961 . S
Li1057 N1081 1.990 . S
Li1057 O1116 1.970 . S
Li1057 O1117 1.956 . S
Li1057 O1119 1.961 . S
Li1058 N1103 1.990 . S
Li1058 O1116 1.961 . S
Li1058 O1118 1.956 . S
Li1058 O1119 1.970 . S
Li1059 N1109 1.990 . S
Li1059 O1117 1.961 . S
Li1059 O1118 1.970 . S
Li1059 O1119 1.956 . S
C1060 C1062 1.348 . S
C1060 C1063 1.356 . S
C1060 O1116 1.325 . S
N1061 C1064 1.314 . S
N1061 C1065 1.279 . S
C1062 C1060 1.348 . S
C1062 C1064 1.353 . S
C1062 H1120 0.929 . S
C1063 C1060 1.356 . S
C1063 C1065 1.358 . S
C1063 H1121 0.930 . S
C1064 N1061 1.314 . S
C1064 C1062 1.353 . S
C1064 H1122 0.930 . S
C1065 N1061 1.279 . S
C1065 C1063 1.358 . S
C1065 H1123 0.930 . S
C1066 C1069 1.348 . S
C1066 C1070 1.356 . S
C1066 O1117 1.325 . S
C1067 N1068 1.279 . S
C1067 C1070 1.358 . S
C1067 H1124 0.930 . S
N1068 C1067 1.279 . S
N1068 C1071 1.314 . S
C1069 C1066 1.348 . S
C1069 C1071 1.353 . S
C1069 H1125 0.929 . S
C1070 C1066 1.356 . S
C1070 C1067 1.358 . S
C1070 H1126 0.930 . S
C1071 N1068 1.314 . S
C1071 C1069 1.353 . S
C1071 H1127 0.930 . S
C1072 N1073 1.314 . S
C1072 C1077 1.353 . S
C1072 H1078 0.930 . S
N1073 Li1056 1.990 . S
N1073 C1072 1.314 . S
N1073 C1075 1.279 . S
C1074 C1075 1.358 . S
C1074 C1076 1.356 . S
C1074 H1128 0.930 . S
C1075 N1073 1.279 . S
C1075 C1074 1.358 . S
C1075 H1079 0.930 . S
C1076 C1074 1.356 . S
C1076 C1077 1.348 . S
C1077 C1072 1.353 . S
C1077 C1076 1.348 . S
C1077 H1129 0.929 . S
H1078 C1072 0.930 . S
H1079 C1075 0.930 . S
C1080 N1081 1.314 . S
C1080 C1082 1.353 . S
C1080 H1086 0.930 . S
N1081 Li1057 1.990 . S
N1081 C1080 1.314 . S
N1081 C1084 1.279 . S
C1082 C1080 1.353 . S
C1082 C1085 1.348 . S
C1082 H1130 0.929 . S
C1083 C1084 1.358 . S
C1083 C1085 1.356 . S
C1083 H1131 0.930 . S
C1084 N1081 1.279 . S
C1084 C1083 1.358 . S
C1084 H1087 0.930 . S
C1085 C1082 1.348 . S
C1085 C1083 1.356 . S
H1086 C1080 0.930 . S
H1087 C1084 0.930 . S
C1088 C1090 1.348 . S
C1088 C1091 1.356 . S
C1088 O1118 1.325 . S
N1089 C1092 1.314 . S
N1089 C1093 1.279 . S
C1090 C1088 1.348 . S
C1090 C1092 1.353 . S
C1090 H1132 0.929 . S
C1091 C1088 1.356 . S
C1091 C1093 1.358 . S
C1091 H1133 0.930 . S
C1092 N1089 1.314 . S
C1092 C1090 1.353 . S
C1092 H1134 0.930 . S
C1093 N1089 1.279 . S
C1093 C1091 1.358 . S
C1093 H1135 0.930 . S
C1094 C1095 1.348 . S
C1094 C1096 1.356 . S
C1094 O1119 1.325 . S
C1095 C1094 1.348 . S
C1095 C1097 1.353 . S
C1095 H1136 0.929 . S
C1096 C1094 1.356 . S
C1096 C1098 1.358 . S
C1096 H1137 0.930 . S
C1097 C1095 1.353 . S
C1097 N1099 1.314 . S
C1097 H1138 0.930 . S
C1098 C1096 1.358 . S
C1098 N1099 1.279 . S
C1098 H1139 0.930 . S
N1099 C1097 1.314 . S
N1099 C1098 1.279 . S
C1100 C1102 1.353 . S
C1100 N1103 1.314 . S
C1100 H1106 0.930 . S
C1101 N1103 1.279 . S
C1101 C1104 1.358 . S
C1101 H1107 0.930 . S
C1102 C1100 1.353 . S
C1102 C1105 1.348 . S
C1102 H1140 0.929 . S
N1103 Li1058 1.990 . S
N1103 C1100 1.314 . S
N1103 C1101 1.279 . S
C1104 C1101 1.358 . S
C1104 C1105 1.356 . S
C1104 H1141 0.930 . S
C1105 C1102 1.348 . S
C1105 C1104 1.356 . S
H1106 C1100 0.930 . S
H1107 C1101 0.930 . S
C1108 N1109 1.314 . S
C1108 C1110 1.353 . S
C1108 H1114 0.930 . S
N1109 Li1059 1.990 . S
N1109 C1108 1.314 . S
N1109 C1112 1.279 . S
C1110 C1108 1.353 . S
C1110 C1113 1.348 . S
C1110 H1142 0.929 . S
C1111 C1112 1.358 . S
C1111 C1113 1.356 . S
C1111 H1143 0.930 . S
C1112 N1109 1.279 . S
C1112 C1111 1.358 . S
C1112 H1115 0.930 . S
C1113 C1110 1.348 . S
C1113 C1111 1.356 . S
H1114 C1108 0.930 . S
H1115 C1112 0.930 . S
O1116 Li1056 1.956 . S
O1116 Li1057 1.970 . S
O1116 Li1058 1.961 . S
O1116 C1060 1.325 . S
O1117 Li1056 1.970 . S
O1117 Li1057 1.956 . S
O1117 Li1059 1.961 . S
O1117 C1066 1.325 . S
O1118 Li1056 1.961 . S
O1118 Li1058 1.956 . S
O1118 Li1059 1.970 . S
O1118 C1088 1.325 . S
O1119 Li1057 1.961 . S
O1119 Li1058 1.970 . S
O1119 Li1059 1.956 . S
O1119 C1094 1.325 . S
H1120 C1062 0.929 . S
H1121 C1063 0.930 . S
H1122 C1064 0.930 . S
H1123 C1065 0.930 . S
H1124 C1067 0.930 . S
H1125 C1069 0.929 . S
H1126 C1070 0.930 . S
H1127 C1071 0.930 . S
H1128 C1074 0.930 . S
H1129 C1077 0.929 . S
H1130 C1082 0.929 . S
H1131 C1083 0.930 . S
H1132 C1090 0.929 . S
H1133 C1091 0.930 . S
H1134 C1092 0.930 . S
H1135 C1093 0.930 . S
H1136 C1095 0.929 . S
H1137 C1096 0.930 . S
H1138 C1097 0.930 . S
H1139 C1098 0.930 . S
H1140 C1102 0.929 . S
H1141 C1104 0.930 . S
H1142 C1110 0.929 . S
H1143 C1111 0.930 . S
Li1144 N1161 1.990 . S
Li1144 O1204 1.956 . S
Li1144 O1205 1.970 . S
Li1144 O1206 1.961 . S
Li1145 N1169 1.990 . S
Li1145 O1204 1.970 . S
Li1145 O1205 1.956 . S
Li1145 O1207 1.961 . S
Li1146 N1191 1.990 . S
Li1146 O1204 1.961 . S
Li1146 O1206 1.956 . S
Li1146 O1207 1.970 . S
Li1147 N1197 1.990 . S
Li1147 O1205 1.961 . S
Li1147 O1206 1.970 . S
Li1147 O1207 1.956 . S
C1148 C1150 1.348 . S
C1148 C1151 1.356 . S
C1148 O1204 1.325 . S
N1149 C1152 1.314 . S
N1149 C1153 1.279 . S
C1150 C1148 1.348 . S
C1150 C1152 1.353 . S
C1150 H1208 0.929 . S
C1151 C1148 1.356 . S
C1151 C1153 1.358 . S
C1151 H1209 0.930 . S
C1152 N1149 1.314 . S
C1152 C1150 1.353 . S
C1152 H1210 0.930 . S
C1153 N1149 1.279 . S
C1153 C1151 1.358 . S
C1153 H1211 0.930 . S
C1154 C1157 1.348 . S
C1154 C1158 1.356 . S
C1154 O1205 1.325 . S
C1155 N1156 1.279 . S
C1155 C1158 1.358 . S
C1155 H1212 0.930 . S
N1156 C1155 1.279 . S
N1156 C1159 1.314 . S
C1157 C1154 1.348 . S
C1157 C1159 1.353 . S
C1157 H1213 0.929 . S
C1158 C1154 1.356 . S
C1158 C1155 1.358 . S
C1158 H1214 0.930 . S
C1159 N1156 1.314 . S
C1159 C1157 1.353 . S
C1159 H1215 0.930 . S
C1160 N1161 1.314 . S
C1160 C1165 1.353 . S
C1160 H1166 0.930 . S
N1161 Li1144 1.990 . S
N1161 C1160 1.314 . S
N1161 C1163 1.279 . S
C1162 C1163 1.358 . S
C1162 C1164 1.356 . S
C1162 H1216 0.930 . S
C1163 N1161 1.279 . S
C1163 C1162 1.358 . S
C1163 H1167 0.930 . S
C1164 C1162 1.356 . S
C1164 C1165 1.348 . S
C1165 C1160 1.353 . S
C1165 C1164 1.348 . S
C1165 H1217 0.929 . S
H1166 C1160 0.930 . S
H1167 C1163 0.930 . S
C1168 N1169 1.314 . S
C1168 C1170 1.353 . S
C1168 H1174 0.930 . S
N1169 Li1145 1.990 . S
N1169 C1168 1.314 . S
N1169 C1172 1.279 . S
C1170 C1168 1.353 . S
C1170 C1173 1.348 . S
C1170 H1218 0.929 . S
C1171 C1172 1.358 . S
C1171 C1173 1.356 . S
C1171 H1219 0.930 . S
C1172 N1169 1.279 . S
C1172 C1171 1.358 . S
C1172 H1175 0.930 . S
C1173 C1170 1.348 . S
C1173 C1171 1.356 . S
H1174 C1168 0.930 . S
H1175 C1172 0.930 . S
C1176 C1178 1.348 . S
C1176 C1179 1.356 . S
C1176 O1206 1.325 . S
N1177 C1180 1.314 . S
N1177 C1181 1.279 . S
C1178 C1176 1.348 . S
C1178 C1180 1.353 . S
C1178 H1220 0.929 . S
C1179 C1176 1.356 . S
C1179 C1181 1.358 . S
C1179 H1221 0.930 . S
C1180 N1177 1.314 . S
C1180 C1178 1.353 . S
C1180 H1222 0.930 . S
C1181 N1177 1.279 . S
C1181 C1179 1.358 . S
C1181 H1223 0.930 . S
C1182 C1183 1.348 . S
C1182 C1184 1.356 . S
C1182 O1207 1.325 . S
C1183 C1182 1.348 . S
C1183 C1185 1.353 . S
C1183 H1224 0.929 . S
C1184 C1182 1.356 . S
C1184 C1186 1.358 . S
C1184 H1225 0.930 . S
C1185 C1183 1.353 . S
C1185 N1187 1.314 . S
C1185 H1226 0.930 . S
C1186 C1184 1.358 . S
C1186 N1187 1.279 . S
C1186 H1227 0.930 . S
N1187 C1185 1.314 . S
N1187 C1186 1.279 . S
C1188 C1190 1.353 . S
C1188 N1191 1.314 . S
C1188 H1194 0.930 . S
C1189 N1191 1.279 . S
C1189 C1192 1.358 . S
C1189 H1195 0.930 . S
C1190 C1188 1.353 . S
C1190 C1193 1.348 . S
C1190 H1228 0.929 . S
N1191 Li1146 1.990 . S
N1191 C1188 1.314 . S
N1191 C1189 1.279 . S
C1192 C1189 1.358 . S
C1192 C1193 1.356 . S
C1192 H1229 0.930 . S
C1193 C1190 1.348 . S
C1193 C1192 1.356 . S
H1194 C1188 0.930 . S
H1195 C1189 0.930 . S
C1196 N1197 1.314 . S
C1196 C1198 1.353 . S
C1196 H1202 0.930 . S
N1197 Li1147 1.990 . S
N1197 C1196 1.314 . S
N1197 C1200 1.279 . S
C1198 C1196 1.353 . S
C1198 C1201 1.348 . S
C1198 H1230 0.929 . S
C1199 C1200 1.358 . S
C1199 C1201 1.356 . S
C1199 H1231 0.930 . S
C1200 N1197 1.279 . S
C1200 C1199 1.358 . S
C1200 H1203 0.930 . S
C1201 C1198 1.348 . S
C1201 C1199 1.356 . S
H1202 C1196 0.930 . S
H1203 C1200 0.930 . S
O1204 Li1144 1.956 . S
O1204 Li1145 1.970 . S
O1204 Li1146 1.961 . S
O1204 C1148 1.325 . S
O1205 Li1144 1.970 . S
O1205 Li1145 1.956 . S
O1205 Li1147 1.961 . S
O1205 C1154 1.325 . S
O1206 Li1144 1.961 . S
O1206 Li1146 1.956 . S
O1206 Li1147 1.970 . S
O1206 C1176 1.325 . S
O1207 Li1145 1.961 . S
O1207 Li1146 1.970 . S
O1207 Li1147 1.956 . S
O1207 C1182 1.325 . S
H1208 C1150 0.929 . S
H1209 C1151 0.930 . S
H1210 C1152 0.930 . S
H1211 C1153 0.930 . S
H1212 C1155 0.930 . S
H1213 C1157 0.929 . S
H1214 C1158 0.930 . S
H1215 C1159 0.930 . S
H1216 C1162 0.930 . S
H1217 C1165 0.929 . S
H1218 C1170 0.929 . S
H1219 C1171 0.930 . S
H1220 C1178 0.929 . S
H1221 C1179 0.930 . S
H1222 C1180 0.930 . S
H1223 C1181 0.930 . S
H1224 C1183 0.929 . S
H1225 C1184 0.930 . S
H1226 C1185 0.930 . S
H1227 C1186 0.930 . S
H1228 C1190 0.929 . S
H1229 C1192 0.930 . S
H1230 C1198 0.929 . S
H1231 C1199 0.930 . S
Li1232 N1249 1.990 . S
Li1232 O1292 1.956 . S
Li1232 O1293 1.970 . S
Li1232 O1294 1.961 1_554 S
Li1233 N1257 1.990 . S
Li1233 O1292 1.970 . S
Li1233 O1293 1.956 . S
Li1233 O1295 1.961 1_554 S
Li1234 N1279 1.990 . S
Li1234 O1292 1.961 1_556 S
Li1234 O1294 1.956 . S
Li1234 O1295 1.970 . S
Li1235 N1285 1.990 . S
Li1235 O1293 1.961 1_556 S
Li1235 O1294 1.970 . S
Li1235 O1295 1.956 . S
C1236 C1238 1.348 . S
C1236 C1239 1.356 . S
C1236 O1292 1.325 . S
N1237 C1240 1.314 . S
N1237 C1241 1.279 . S
C1238 C1236 1.348 . S
C1238 C1240 1.353 . S
C1238 H1296 0.929 . S
C1239 C1236 1.356 . S
C1239 C1241 1.358 . S
C1239 H1297 0.930 . S
C1240 N1237 1.314 . S
C1240 C1238 1.353 . S
C1240 H1298 0.930 . S
C1241 N1237 1.279 . S
C1241 C1239 1.358 . S
C1241 H1299 0.930 . S
C1242 C1245 1.348 . S
C1242 C1246 1.356 1_554 S
C1242 O1293 1.325 . S
C1243 N1244 1.279 . S
C1243 C1246 1.358 1_554 S
C1243 H1300 0.930 1_554 S
N1244 C1243 1.279 . S
N1244 C1247 1.314 . S
C1245 C1242 1.348 . S
C1245 C1247 1.353 . S
C1245 H1301 0.929 . S
C1246 C1242 1.356 1_556 S
C1246 C1243 1.358 1_556 S
C1246 H1302 0.930 . S
C1247 N1244 1.314 . S
C1247 C1245 1.353 . S
C1247 H1303 0.930 . S
C1248 N1249 1.314 . S
C1248 C1253 1.353 . S
C1248 H1254 0.930 . S
N1249 Li1232 1.990 . S
N1249 C1248 1.314 . S
N1249 C1251 1.279 . S
C1250 C1251 1.358 . S
C1250 C1252 1.356 . S
C1250 H1304 0.930 . S
C1251 N1249 1.279 . S
C1251 C1250 1.358 . S
C1251 H1255 0.930 . S
C1252 C1250 1.356 . S
C1252 C1253 1.348 . S
C1253 C1248 1.353 . S
C1253 C1252 1.348 . S
C1253 H1305 0.929 . S
H1254 C1248 0.930 . S
H1255 C1251 0.930 . S
C1256 N1257 1.314 . S
C1256 C1258 1.353 . S
C1256 H1262 0.930 1_554 S
N1257 Li1233 1.990 . S
N1257 C1256 1.314 . S
N1257 C1260 1.279 . S
C1258 C1256 1.353 . S
C1258 C1261 1.348 . S
C1258 H1306 0.929 . S
C1259 C1260 1.358 . S
C1259 C1261 1.356 . S
C1259 H1307 0.930 . S
C1260 N1257 1.279 . S
C1260 C1259 1.358 . S
C1260 H1263 0.930 . S
C1261 C1258 1.348 . S
C1261 C1259 1.356 . S
H1262 C1256 0.930 1_556 S
H1263 C1260 0.930 . S
C1264 C1266 1.348 . S
C1264 C1267 1.356 1_556 S
C1264 O1294 1.325 . S
N1265 C1268 1.314 . S
N1265 C1269 1.279 . S
C1266 C1264 1.348 . S
C1266 C1268 1.353 . S
C1266 H1308 0.929 . S
C1267 C1264 1.356 1_554 S
C1267 C1269 1.358 1_554 S
C1267 H1309 0.930 . S
C1268 N1265 1.314 . S
C1268 C1266 1.353 . S
C1268 H1310 0.930 . S
C1269 N1265 1.279 . S
C1269 C1267 1.358 1_556 S
C1269 H1311 0.930 1_556 S
C1270 C1271 1.348 . S
C1270 C1272 1.356 . S
C1270 O1295 1.325 . S
C1271 C1270 1.348 . S
C1271 C1273 1.353 . S
C1271 H1312 0.929 . S
C1272 C1270 1.356 . S
C1272 C1274 1.358 . S
C1272 H1313 0.930 . S
C1273 C1271 1.353 . S
C1273 N1275 1.314 . S
C1273 H1314 0.930 . S
C1274 C1272 1.358 . S
C1274 N1275 1.279 . S
C1274 H1315 0.930 . S
N1275 C1273 1.314 . S
N1275 C1274 1.279 . S
C1276 C1278 1.353 . S
C1276 N1279 1.314 . S
C1276 H1282 0.930 1_556 S
C1277 N1279 1.279 . S
C1277 C1280 1.358 . S
C1277 H1283 0.930 . S
C1278 C1276 1.353 . S
C1278 C1281 1.348 . S
C1278 H1316 0.929 . S
N1279 Li1234 1.990 . S
N1279 C1276 1.314 . S
N1279 C1277 1.279 . S
C1280 C1277 1.358 . S
C1280 C1281 1.356 . S
C1280 H1317 0.930 . S
C1281 C1278 1.348 . S
C1281 C1280 1.356 . S
H1282 C1276 0.930 1_554 S
H1283 C1277 0.930 . S
C1284 N1285 1.314 . S
C1284 C1286 1.353 . S
C1284 H1290 0.930 . S
N1285 Li1235 1.990 . S
N1285 C1284 1.314 . S
N1285 C1288 1.279 . S
C1286 C1284 1.353 . S
C1286 C1289 1.348 . S
C1286 H1318 0.929 . S
C1287 C1288 1.358 . S
C1287 C1289 1.356 . S
C1287 H1319 0.930 . S
C1288 N1285 1.279 . S
C1288 C1287 1.358 . S
C1288 H1291 0.930 . S
C1289 C1286 1.348 . S
C1289 C1287 1.356 . S
H1290 C1284 0.930 . S
H1291 C1288 0.930 . S
O1292 Li1232 1.956 . S
O1292 Li1233 1.970 . S
O1292 Li1234 1.961 1_554 S
O1292 C1236 1.325 . S
O1293 Li1232 1.970 . S
O1293 Li1233 1.956 . S
O1293 Li1235 1.961 1_554 S
O1293 C1242 1.325 . S
O1294 Li1232 1.961 1_556 S
O1294 Li1234 1.956 . S
O1294 Li1235 1.970 . S
O1294 C1264 1.325 . S
O1295 Li1233 1.961 1_556 S
O1295 Li1234 1.970 . S
O1295 Li1235 1.956 . S
O1295 C1270 1.325 . S
H1296 C1238 0.929 . S
H1297 C1239 0.930 . S
H1298 C1240 0.930 . S
H1299 C1241 0.930 . S
H1300 C1243 0.930 1_556 S
H1301 C1245 0.929 . S
H1302 C1246 0.930 . S
H1303 C1247 0.930 . S
H1304 C1250 0.930 . S
H1305 C1253 0.929 . S
H1306 C1258 0.929 . S
H1307 C1259 0.930 . S
H1308 C1266 0.929 . S
H1309 C1267 0.930 . S
H1310 C1268 0.930 . S
H1311 C1269 0.930 1_554 S
H1312 C1271 0.929 . S
H1313 C1272 0.930 . S
H1314 C1273 0.930 . S
H1315 C1274 0.930 . S
H1316 C1278 0.929 . S
H1317 C1280 0.930 . S
H1318 C1286 0.929 . S
H1319 C1287 0.930 . S
Li1320 N1337 1.990 . S
Li1320 O1380 1.956 . S
Li1320 O1381 1.970 . S
Li1320 O1382 1.961 . S
Li1321 N1345 1.990 . S
Li1321 O1380 1.970 . S
Li1321 O1381 1.956 . S
Li1321 O1383 1.961 . S
Li1322 N1367 1.990 . S
Li1322 O1380 1.961 . S
Li1322 O1382 1.956 . S
Li1322 O1383 1.970 . S
Li1323 N1373 1.990 . S
Li1323 O1381 1.961 . S
Li1323 O1382 1.970 . S
Li1323 O1383 1.956 . S
C1324 C1326 1.348 . S
C1324 C1327 1.356 . S
C1324 O1380 1.325 . S
N1325 C1328 1.314 . S
N1325 C1329 1.279 . S
C1326 C1324 1.348 . S
C1326 C1328 1.353 . S
C1326 H1384 0.929 . S
C1327 C1324 1.356 . S
C1327 C1329 1.358 . S
C1327 H1385 0.930 . S
C1328 N1325 1.314 . S
C1328 C1326 1.353 . S
C1328 H1386 0.930 . S
C1329 N1325 1.279 . S
C1329 C1327 1.358 . S
C1329 H1387 0.930 . S
C1330 C1333 1.348 . S
C1330 C1334 1.356 . S
C1330 O1381 1.325 . S
C1331 N1332 1.279 . S
C1331 C1334 1.358 . S
C1331 H1388 0.930 . S
N1332 C1331 1.279 . S
N1332 C1335 1.314 . S
C1333 C1330 1.348 . S
C1333 C1335 1.353 . S
C1333 H1389 0.929 . S
C1334 C1330 1.356 . S
C1334 C1331 1.358 . S
C1334 H1390 0.930 . S
C1335 N1332 1.314 . S
C1335 C1333 1.353 . S
C1335 H1391 0.930 . S
C1336 N1337 1.314 . S
C1336 C1341 1.353 . S
C1336 H1342 0.930 . S
N1337 Li1320 1.990 . S
N1337 C1336 1.314 . S
N1337 C1339 1.279 . S
C1338 C1339 1.358 . S
C1338 C1340 1.356 . S
C1338 H1392 0.930 . S
C1339 N1337 1.279 . S
C1339 C1338 1.358 . S
C1339 H1343 0.930 . S
C1340 C1338 1.356 . S
C1340 C1341 1.348 . S
C1341 C1336 1.353 . S
C1341 C1340 1.348 . S
C1341 H1393 0.929 . S
H1342 C1336 0.930 . S
H1343 C1339 0.930 . S
C1344 N1345 1.314 . S
C1344 C1346 1.353 . S
C1344 H1350 0.930 . S
N1345 Li1321 1.990 . S
N1345 C1344 1.314 . S
N1345 C1348 1.279 . S
C1346 C1344 1.353 . S
C1346 C1349 1.348 . S
C1346 H1394 0.929 . S
C1347 C1348 1.358 . S
C1347 C1349 1.356 . S
C1347 H1395 0.930 . S
C1348 N1345 1.279 . S
C1348 C1347 1.358 . S
C1348 H1351 0.930 . S
C1349 C1346 1.348 . S
C1349 C1347 1.356 . S
H1350 C1344 0.930 . S
H1351 C1348 0.930 . S
C1352 C1354 1.348 . S
C1352 C1355 1.356 . S
C1352 O1382 1.325 . S
N1353 C1356 1.314 . S
N1353 C1357 1.279 . S
C1354 C1352 1.348 . S
C1354 C1356 1.353 . S
C1354 H1396 0.929 . S
C1355 C1352 1.356 . S
C1355 C1357 1.358 . S
C1355 H1397 0.930 . S
C1356 N1353 1.314 . S
C1356 C1354 1.353 . S
C1356 H1398 0.930 . S
C1357 N1353 1.279 . S
C1357 C1355 1.358 . S
C1357 H1399 0.930 . S
C1358 C1359 1.348 . S
C1358 C1360 1.356 . S
C1358 O1383 1.325 . S
C1359 C1358 1.348 . S
C1359 C1361 1.353 . S
C1359 H1400 0.929 . S
C1360 C1358 1.356 . S
C1360 C1362 1.358 . S
C1360 H1401 0.930 . S
C1361 C1359 1.353 . S
C1361 N1363 1.314 . S
C1361 H1402 0.930 . S
C1362 C1360 1.358 . S
C1362 N1363 1.279 . S
C1362 H1403 0.930 . S
N1363 C1361 1.314 . S
N1363 C1362 1.279 . S
C1364 C1366 1.353 . S
C1364 N1367 1.314 . S
C1364 H1370 0.930 . S
C1365 N1367 1.279 . S
C1365 C1368 1.358 . S
C1365 H1371 0.930 . S
C1366 C1364 1.353 . S
C1366 C1369 1.348 . S
C1366 H1404 0.929 . S
N1367 Li1322 1.990 . S
N1367 C1364 1.314 . S
N1367 C1365 1.279 . S
C1368 C1365 1.358 . S
C1368 C1369 1.356 . S
C1368 H1405 0.930 . S
C1369 C1366 1.348 . S
C1369 C1368 1.356 . S
H1370 C1364 0.930 . S
H1371 C1365 0.930 . S
C1372 N1373 1.314 . S
C1372 C1374 1.353 . S
C1372 H1378 0.930 . S
N1373 Li1323 1.990 . S
N1373 C1372 1.314 . S
N1373 C1376 1.279 . S
C1374 C1372 1.353 . S
C1374 C1377 1.348 . S
C1374 H1406 0.929 . S
C1375 C1376 1.358 . S
C1375 C1377 1.356 . S
C1375 H1407 0.930 . S
C1376 N1373 1.279 . S
C1376 C1375 1.358 . S
C1376 H1379 0.930 . S
C1377 C1374 1.348 . S
C1377 C1375 1.356 . S
H1378 C1372 0.930 . S
H1379 C1376 0.930 . S
O1380 Li1320 1.956 . S
O1380 Li1321 1.970 . S
O1380 Li1322 1.961 . S
O1380 C1324 1.325 . S
O1381 Li1320 1.970 . S
O1381 Li1321 1.956 . S
O1381 Li1323 1.961 . S
O1381 C1330 1.325 . S
O1382 Li1320 1.961 . S
O1382 Li1322 1.956 . S
O1382 Li1323 1.970 . S
O1382 C1352 1.325 . S
O1383 Li1321 1.961 . S
O1383 Li1322 1.970 . S
O1383 Li1323 1.956 . S
O1383 C1358 1.325 . S
H1384 C1326 0.929 . S
H1385 C1327 0.930 . S
H1386 C1328 0.930 . S
H1387 C1329 0.930 . S
H1388 C1331 0.930 . S
H1389 C1333 0.929 . S
H1390 C1334 0.930 . S
H1391 C1335 0.930 . S
H1392 C1338 0.930 . S
H1393 C1341 0.929 . S
H1394 C1346 0.929 . S
H1395 C1347 0.930 . S
H1396 C1354 0.929 . S
H1397 C1355 0.930 . S
H1398 C1356 0.930 . S
H1399 C1357 0.930 . S
H1400 C1359 0.929 . S
H1401 C1360 0.930 . S
H1402 C1361 0.930 . S
H1403 C1362 0.930 . S
H1404 C1366 0.929 . S
H1405 C1368 0.930 . S
H1406 C1374 0.929 . S
H1407 C1375 0.930 . S
C1408 C1409 1.363 . S
C1408 C1414 1.379 . S
C1408 N1416 1.356 . S
C1409 C1408 1.363 . S
C1409 C1415 1.363 . S
C1410 C1411 1.363 . S
C1410 C1415 1.379 . S
C1410 N1417 1.356 . S
C1411 C1410 1.363 . S
C1411 C1414 1.363 . S
N1412 C1414 1.356 . S
N1412 H1424 0.984 . S
N1412 H1425 0.985 . S
N1413 C1415 1.356 . S
N1413 H1418 0.984 . S
N1413 H1419 0.985 . S
C1414 C1408 1.379 . S
C1414 C1411 1.363 . S
C1414 N1412 1.356 . S
C1415 C1409 1.363 . S
C1415 C1410 1.379 . S
C1415 N1413 1.356 . S
N1416 C1408 1.356 . S
N1416 H1422 0.984 . S
N1416 H1423 0.984 . S
N1417 C1410 1.356 . S
N1417 H1420 0.984 . S
N1417 H1421 0.985 . S
H1418 N1413 0.984 . S
H1419 N1413 0.985 . S
H1420 N1417 0.984 . S
H1421 N1417 0.985 . S
H1422 N1416 0.984 . S
H1423 N1416 0.984 . S
H1424 N1412 0.984 . S
H1425 N1412 0.985 . S
C1426 C1427 1.363 1_565 S
C1426 C1432 1.379 . S
C1426 N1434 1.356 1_565 S
C1427 C1426 1.363 1_545 S
C1427 C1433 1.363 1_655 S
C1428 C1429 1.363 1_545 S
C1428 C1433 1.379 . S
C1428 N1435 1.356 1_545 S
C1429 C1428 1.363 1_565 S
C1429 C1432 1.363 1_455 S
N1430 C1432 1.356 . S
N1430 H1442 0.984 . S
N1430 H1443 0.985 1_655 S
N1431 C1433 1.356 . S
N1431 H1436 0.984 1_455 S
N1431 H1437 0.985 . S
C1432 C1426 1.379 . S
C1432 C1429 1.363 1_655 S
C1432 N1430 1.356 . S
C1433 C1427 1.363 1_455 S
C1433 C1428 1.379 . S
C1433 N1431 1.356 . S
N1434 C1426 1.356 1_545 S
N1434 H1440 0.984 1_545 S
N1434 H1441 0.984 . S
N1435 C1428 1.356 1_565 S
N1435 H1438 0.984 . S
N1435 H1439 0.985 1_565 S
H1436 N1431 0.984 1_655 S
H1437 N1431 0.985 . S
H1438 N1435 0.984 . S
H1439 N1435 0.985 1_545 S
H1440 N1434 0.984 1_565 S
H1441 N1434 0.984 . S
H1442 N1430 0.984 . S
H1443 N1430 0.985 1_455 S
C1444 C1445 1.363 . S
C1444 C1450 1.379 . S
C1444 N1452 1.356 . S
C1445 C1444 1.363 . S
C1445 C1451 1.363 . S
C1446 C1447 1.363 . S
C1446 C1451 1.379 . S
C1446 N1453 1.356 . S
C1447 C1446 1.363 . S
C1447 C1450 1.363 . S
N1448 C1450 1.356 . S
N1448 H1460 0.984 . S
N1448 H1461 0.985 . S
N1449 C1451 1.356 . S
N1449 H1454 0.984 . S
N1449 H1455 0.985 . S
C1450 C1444 1.379 . S
C1450 C1447 1.363 . S
C1450 N1448 1.356 . S
C1451 C1445 1.363 . S
C1451 C1446 1.379 . S
C1451 N1449 1.356 . S
N1452 C1444 1.356 . S
N1452 H1458 0.984 . S
N1452 H1459 0.984 . S
N1453 C1446 1.356 . S
N1453 H1456 0.984 . S
N1453 H1457 0.985 . S
H1454 N1449 0.984 . S
H1455 N1449 0.985 . S
H1456 N1453 0.984 . S
H1457 N1453 0.985 . S
H1458 N1452 0.984 . S
H1459 N1452 0.984 . S
H1460 N1448 0.984 . S
H1461 N1448 0.985 . S
C1462 C1463 1.363 1_556 S
C1462 C1468 1.379 1_545 S
C1462 N1470 1.356 . S
C1463 C1462 1.363 1_554 S
C1463 C1469 1.363 . S
C1464 C1465 1.363 1_554 S
C1464 C1469 1.379 1_565 S
C1464 N1471 1.356 . S
C1465 C1464 1.363 1_556 S
C1465 C1468 1.363 . S
N1466 C1468 1.356 . S
N1466 H1478 0.984 . S
N1466 H1479 0.985 . S
N1467 C1469 1.356 . S
N1467 H1472 0.984 . S
N1467 H1473 0.985 . S
C1468 C1462 1.379 1_565 S
C1468 C1465 1.363 . S
C1468 N1466 1.356 . S
C1469 C1463 1.363 . S
C1469 C1464 1.379 1_545 S
C1469 N1467 1.356 . S
N1470 C1462 1.356 . S
N1470 H1476 0.984 . S
N1470 H1477 0.984 . S
N1471 C1464 1.356 . S
N1471 H1474 0.984 . S
N1471 H1475 0.985 . S
H1472 N1467 0.984 . S
H1473 N1467 0.985 . S
H1474 N1471 0.984 . S
H1475 N1471 0.985 . S
H1476 N1470 0.984 . S
H1477 N1470 0.984 . S
H1478 N1466 0.984 . S
H1479 N1466 0.985 . S
C1480 C1481 1.363 . S
C1480 C1486 1.379 . S
C1480 N1488 1.356 . S
C1481 C1480 1.363 . S
C1481 C1487 1.363 . S
C1482 C1483 1.363 . S
C1482 C1487 1.379 . S
C1482 N1489 1.356 . S
C1483 C1482 1.363 . S
C1483 C1486 1.363 . S
N1484 C1486 1.356 . S
N1484 H1496 0.984 . S
N1484 H1497 0.985 . S
N1485 C1487 1.356 . S
N1485 H1490 0.984 . S
N1485 H1491 0.985 . S
C1486 C1480 1.379 . S
C1486 C1483 1.363 . S
C1486 N1484 1.356 . S
C1487 C1481 1.363 . S
C1487 C1482 1.379 . S
C1487 N1485 1.356 . S
N1488 C1480 1.356 . S
N1488 H1494 0.984 . S
N1488 H1495 0.984 . S
N1489 C1482 1.356 . S
N1489 H1492 0.984 . S
N1489 H1493 0.985 . S
H1490 N1485 0.984 . S
H1491 N1485 0.985 . S
H1492 N1489 0.984 . S
H1493 N1489 0.985 . S
H1494 N1488 0.984 . S
H1495 N1488 0.984 . S
H1496 N1484 0.984 . S
H1497 N1484 0.985 . S
C1498 C1499 1.363 . S
C1498 C1504 1.379 1_565 S
C1498 N1506 1.356 . S
C1499 C1498 1.363 . S
C1499 C1505 1.363 . S
C1500 C1501 1.363 . S
C1500 C1505 1.379 1_545 S
C1500 N1507 1.356 . S
C1501 C1500 1.363 . S
C1501 C1504 1.363 . S
N1502 C1504 1.356 . S
N1502 H1514 0.984 . S
N1502 H1515 0.985 . S
N1503 C1505 1.356 . S
N1503 H1508 0.984 . S
N1503 H1509 0.985 . S
C1504 C1498 1.379 1_545 S
C1504 C1501 1.363 . S
C1504 N1502 1.356 . S
C1505 C1499 1.363 . S
C1505 C1500 1.379 1_565 S
C1505 N1503 1.356 . S
N1506 C1498 1.356 . S
N1506 H1512 0.984 . S
N1506 H1513 0.984 . S
N1507 C1500 1.356 . S
N1507 H1510 0.984 . S
N1507 H1511 0.985 . S
H1508 N1503 0.984 . S
H1509 N1503 0.985 . S
H1510 N1507 0.984 . S
H1511 N1507 0.985 . S
H1512 N1506 0.984 . S
H1513 N1506 0.984 . S
H1514 N1502 0.984 . S
H1515 N1502 0.985 . S
C1516 C1517 1.363 . S
C1516 C1522 1.379 . S
C1516 N1524 1.356 . S
C1517 C1516 1.363 . S
C1517 C1523 1.363 . S
C1518 C1519 1.363 . S
C1518 C1523 1.379 . S
C1518 N1525 1.356 . S
C1519 C1518 1.363 . S
C1519 C1522 1.363 . S
N1520 C1522 1.356 . S
N1520 H1532 0.984 . S
N1520 H1533 0.985 . S
N1521 C1523 1.356 . S
N1521 H1526 0.984 . S
N1521 H1527 0.985 . S
C1522 C1516 1.379 . S
C1522 C1519 1.363 . S
C1522 N1520 1.356 . S
C1523 C1517 1.363 . S
C1523 C1518 1.379 . S
C1523 N1521 1.356 . S
N1524 C1516 1.356 . S
N1524 H1530 0.984 . S
N1524 H1531 0.984 . S
N1525 C1518 1.356 . S
N1525 H1528 0.984 . S
N1525 H1529 0.985 . S
H1526 N1521 0.984 . S
H1527 N1521 0.985 . S
H1528 N1525 0.984 . S
H1529 N1525 0.985 . S
H1530 N1524 0.984 . S
H1531 N1524 0.984 . S
H1532 N1520 0.984 . S
H1533 N1520 0.985 . S
C1534 C1535 1.363 1_565 S
C1534 C1540 1.379 1_455 S
C1534 N1542 1.363 . S
C1535 C1534 1.363 1_545 S
C1535 C1541 1.363 1_556 S
C1536 C1537 1.363 1_545 S
C1536 C1541 1.379 1_655 S
C1536 N1543 1.356 . S
C1537 C1536 1.363 1_565 S
C1537 C1540 1.363 1_554 S
N1538 C1540 1.356 . S
N1538 H1550 0.984 . S
N1538 H1551 0.985 . S
N1539 C1541 1.356 . S
N1539 H1544 0.984 . S
N1539 H1545 0.985 . S
C1540 C1534 1.379 1_655 S
C1540 C1537 1.363 1_556 S
C1540 N1538 1.356 . S
C1541 C1535 1.363 1_554 S
C1541 C1536 1.379 1_455 S
C1541 N1539 1.356 . S
N1542 C1534 1.363 . S
N1542 H1548 1.024 . S
N1542 H1549 0.941 1_565 S
N1543 C1536 1.356 . S
N1543 H1546 0.984 1_545 S
N1543 H1547 0.985 . S
H1544 N1539 0.984 . S
H1545 N1539 0.985 . S
H1546 N1543 0.984 1_565 S
H1547 N1543 0.985 . S
H1548 N1542 1.024 . S
H1549 N1542 0.941 1_545 S
H1550 N1538 0.984 . S
H1551 N1538 0.985 . S
C1552 C1553 1.363 . S
C1552 C1558 1.379 . S
C1552 N1560 1.356 . S
C1553 C1552 1.363 . S
C1553 C1559 1.363 . S
C1554 C1555 1.363 . S
C1554 C1559 1.379 . S
C1554 N1561 1.356 . S
C1555 C1554 1.363 . S
C1555 C1558 1.363 . S
N1556 C1558 1.356 . S
N1556 H1568 0.984 . S
N1556 H1569 0.985 . S
N1557 C1559 1.356 . S
N1557 H1562 0.984 . S
N1557 H1563 0.985 . S
C1558 C1552 1.379 . S
C1558 C1555 1.363 . S
C1558 N1556 1.356 . S
C1559 C1553 1.363 . S
C1559 C1554 1.379 . S
C1559 N1557 1.356 . S
N1560 C1552 1.356 . S
N1560 H1566 0.984 . S
N1560 H1567 0.984 . S
N1561 C1554 1.356 . S
N1561 H1564 0.984 . S
N1561 H1565 0.985 . S
H1562 N1557 0.984 . S
H1563 N1557 0.985 . S
H1564 N1561 0.984 . S
H1565 N1561 0.985 . S
H1566 N1560 0.984 . S
H1567 N1560 0.984 . S
H1568 N1556 0.984 . S
H1569 N1556 0.985 . S
C1570 C1571 1.363 . S
C1570 C1576 1.379 . S
C1570 N1578 1.356 . S
C1571 C1570 1.363 . S
C1571 C1577 1.363 . S
C1572 C1573 1.363 . S
C1572 C1577 1.379 . S
C1572 N1579 1.356 . S
C1573 C1572 1.363 . S
C1573 C1576 1.363 . S
N1574 C1576 1.356 . S
N1574 H1586 0.984 . S
N1574 H1587 0.985 . S
N1575 C1577 1.356 . S
N1575 H1580 0.984 . S
N1575 H1581 0.985 . S
C1576 C1570 1.379 . S
C1576 C1573 1.363 . S
C1576 N1574 1.356 . S
C1577 C1571 1.363 . S
C1577 C1572 1.379 . S
C1577 N1575 1.356 . S
N1578 C1570 1.356 . S
N1578 H1584 0.984 . S
N1578 H1585 0.984 . S
N1579 C1572 1.356 . S
N1579 H1582 0.984 . S
N1579 H1583 0.985 . S
H1580 N1575 0.984 . S
H1581 N1575 0.985 . S
H1582 N1579 0.984 . S
H1583 N1579 0.985 . S
H1584 N1578 0.984 . S
H1585 N1578 0.984 . S
H1586 N1574 0.984 . S
H1587 N1574 0.985 . S
C1588 C1589 1.363 . S
C1588 C1594 1.379 . S
C1588 N1596 1.356 . S
C1589 C1588 1.363 . S
C1589 C1595 1.363 . S
C1590 C1591 1.363 . S
C1590 C1595 1.379 . S
C1590 N1597 1.356 . S
C1591 C1590 1.363 . S
C1591 C1594 1.363 . S
N1592 C1594 1.356 . S
N1592 H1604 0.984 . S
N1592 H1605 0.985 . S
N1593 C1595 1.356 . S
N1593 H1598 0.984 . S
N1593 H1599 0.985 . S
C1594 C1588 1.379 . S
C1594 C1591 1.363 . S
C1594 N1592 1.356 . S
C1595 C1589 1.363 . S
C1595 C1590 1.379 . S
C1595 N1593 1.356 . S
N1596 C1588 1.356 . S
N1596 H1602 0.984 . S
N1596 H1603 0.984 . S
N1597 C1590 1.356 . S
N1597 H1600 0.984 . S
N1597 H1601 0.985 . S
H1598 N1593 0.984 . S
H1599 N1593 0.985 . S
H1600 N1597 0.984 . S
H1601 N1597 0.985 . S
H1602 N1596 0.984 . S
H1603 N1596 0.984 . S
H1604 N1592 0.984 . S
H1605 N1592 0.985 . S
C1606 C1607 1.363 . S
C1606 C1612 1.379 . S
C1606 N1614 1.356 . S
C1607 C1606 1.363 . S
C1607 C1613 1.363 . S
C1608 C1609 1.363 . S
C1608 C1613 1.379 . S
C1608 N1615 1.356 . S
C1609 C1608 1.363 . S
C1609 C1612 1.363 . S
N1610 C1612 1.356 . S
N1610 H1622 0.984 . S
N1610 H1623 0.985 . S
N1611 C1613 1.356 . S
N1611 H1616 0.984 . S
N1611 H1617 0.985 . S
C1612 C1606 1.379 . S
C1612 C1609 1.363 . S
C1612 N1610 1.356 . S
C1613 C1607 1.363 . S
C1613 C1608 1.379 . S
C1613 N1611 1.356 . S
N1614 C1606 1.356 . S
N1614 H1620 0.984 . S
N1614 H1621 0.984 . S
N1615 C1608 1.356 . S
N1615 H1618 0.984 . S
N1615 H1619 0.985 . S
H1616 N1611 0.984 . S
H1617 N1611 0.985 . S
H1618 N1615 0.984 . S
H1619 N1615 0.985 . S
H1620 N1614 0.984 . S
H1621 N1614 0.984 . S
H1622 N1610 0.984 . S
H1623 N1610 0.985 . S
C1624 C1625 1.363 1_556 S
C1624 C1630 1.379 . S
C1624 N1632 1.356 . S
C1625 C1624 1.363 1_554 S
C1625 C1631 1.363 . S
C1626 C1627 1.363 1_554 S
C1626 C1631 1.379 . S
C1626 N1633 1.356 . S
C1627 C1626 1.363 1_556 S
C1627 C1630 1.363 . S
N1628 C1630 1.356 . S
N1628 H1640 0.984 . S
N1628 H1641 0.985 . S
N1629 C1631 1.356 . S
N1629 H1634 0.984 . S
N1629 H1635 0.985 . S
C1630 C1624 1.379 . S
C1630 C1627 1.363 . S
C1630 N1628 1.356 . S
C1631 C1625 1.363 . S
C1631 C1626 1.379 . S
C1631 N1629 1.356 . S
N1632 C1624 1.356 . S
N1632 H1638 0.984 . S
N1632 H1639 0.984 . S
N1633 C1626 1.356 . S
N1633 H1636 0.984 . S
N1633 H1637 0.985 . S
H1634 N1629 0.984 . S
H1635 N1629 0.985 . S
H1636 N1633 0.984 . S
H1637 N1633 0.985 . S
H1638 N1632 0.984 . S
H1639 N1632 0.984 . S
H1640 N1628 0.984 . S
H1641 N1628 0.985 . S
C1642 C1643 1.363 1_655 S
C1642 C1648 1.379 . S
C1642 N1650 1.356 . S
C1643 C1642 1.363 1_455 S
C1643 C1649 1.363 . S
C1644 C1645 1.363 1_455 S
C1644 C1649 1.379 . S
C1644 N1651 1.356 . S
C1645 C1644 1.363 1_655 S
C1645 C1648 1.363 . S
N1646 C1648 1.356 . S
N1646 H1658 0.984 . S
N1646 H1659 0.985 . S
N1647 C1649 1.356 . S
N1647 H1652 0.984 . S
N1647 H1653 0.985 . S
C1648 C1642 1.379 . S
C1648 C1645 1.363 . S
C1648 N1646 1.356 . S
C1649 C1643 1.363 . S
C1649 C1644 1.379 . S
C1649 N1647 1.356 . S
N1650 C1642 1.356 . S
N1650 H1656 0.984 . S
N1650 H1657 0.984 1_655 S
N1651 C1644 1.356 . S
N1651 H1654 0.984 1_455 S
N1651 H1655 0.985 . S
H1652 N1647 0.984 . S
H1653 N1647 0.985 . S
H1654 N1651 0.984 1_655 S
H1655 N1651 0.985 . S
H1656 N1650 0.984 . S
H1657 N1650 0.984 1_455 S
H1658 N1646 0.984 . S
H1659 N1646 0.985 . S
C1660 C1661 1.363 1_556 S
C1660 C1666 1.379 . S
C1660 N1668 1.356 . S
C1661 C1660 1.363 1_554 S
C1661 C1667 1.363 1_455 S
C1662 C1663 1.363 1_554 S
C1662 C1667 1.379 . S
C1662 N1669 1.356 . S
C1663 C1662 1.363 1_556 S
C1663 C1666 1.363 1_655 S
N1664 C1666 1.356 . S
N1664 H1676 0.984 . S
N1664 H1677 0.985 1_455 S
N1665 C1667 1.356 . S
N1665 H1670 0.984 1_655 S
N1665 H1671 0.985 . S
C1666 C1660 1.379 . S
C1666 C1663 1.363 1_455 S
C1666 N1664 1.356 . S
C1667 C1661 1.363 1_655 S
C1667 C1662 1.379 . S
C1667 N1665 1.356 . S
N1668 C1660 1.356 . S
N1668 H1674 0.984 . S
N1668 H1675 0.984 . S
N1669 C1662 1.356 . S
N1669 H1672 0.984 . S
N1669 H1673 0.985 . S
H1670 N1665 0.984 1_455 S
H1671 N1665 0.985 . S
H1672 N1669 0.984 . S
H1673 N1669 0.985 . S
H1674 N1668 0.984 . S
H1675 N1668 0.984 . S
H1676 N1664 0.984 . S
H1677 N1664 0.985 1_655 S
C1678 C1679 1.363 . S
C1678 C1684 1.379 . S
C1678 N1686 1.356 . S
C1679 C1678 1.363 . S
C1679 C1685 1.363 . S
C1680 C1681 1.363 . S
C1680 C1685 1.379 . S
C1680 N1687 1.356 . S
C1681 C1680 1.363 . S
C1681 C1684 1.363 . S
N1682 C1684 1.356 . S
N1682 H1694 0.984 . S
N1682 H1695 0.985 . S
N1683 C1685 1.356 . S
N1683 H1688 0.984 . S
N1683 H1689 0.985 . S
C1684 C1678 1.379 . S
C1684 C1681 1.363 . S
C1684 N1682 1.356 . S
C1685 C1679 1.363 . S
C1685 C1680 1.379 . S
C1685 N1683 1.356 . S
N1686 C1678 1.356 . S
N1686 H1692 0.984 . S
N1686 H1693 0.984 . S
N1687 C1680 1.356 . S
N1687 H1690 0.984 . S
N1687 H1691 0.985 . S
H1688 N1683 0.984 . S
H1689 N1683 0.985 . S
H1690 N1687 0.984 . S
H1691 N1687 0.985 . S
H1692 N1686 0.984 . S
H1693 N1686 0.984 . S
H1694 N1682 0.984 . S
H1695 N1682 0.985 . S
C1696 C1697 1.363 . S
C1696 C1702 1.379 . S
C1696 N1704 1.356 . S
C1697 C1696 1.363 . S
C1697 C1703 1.363 . S
C1698 C1699 1.363 . S
C1698 C1703 1.379 . S
C1698 N1705 1.356 . S
C1699 C1698 1.363 . S
C1699 C1702 1.363 . S
N1700 C1702 1.356 . S
N1700 H1712 0.984 . S
N1700 H1713 0.985 . S
N1701 C1703 1.356 . S
N1701 H1706 0.984 . S
N1701 H1707 0.985 . S
C1702 C1696 1.379 . S
C1702 C1699 1.363 . S
C1702 N1700 1.356 . S
C1703 C1697 1.363 . S
C1703 C1698 1.379 . S
C1703 N1701 1.356 . S
N1704 C1696 1.356 . S
N1704 H1710 0.984 . S
N1704 H1711 0.984 . S
N1705 C1698 1.356 . S
N1705 H1708 0.984 . S
N1705 H1709 0.985 . S
H1706 N1701 0.984 . S
H1707 N1701 0.985 . S
H1708 N1705 0.984 . S
H1709 N1705 0.985 . S
H1710 N1704 0.984 . S
H1711 N1704 0.984 . S
H1712 N1700 0.984 . S
H1713 N1700 0.985 . S
C1714 C1715 1.363 . S
C1714 C1720 1.379 . S
C1714 N1722 1.356 . S
C1715 C1714 1.363 . S
C1715 C1721 1.363 . S
C1716 C1717 1.363 . S
C1716 C1721 1.379 . S
C1716 N1723 1.356 . S
C1717 C1716 1.363 . S
C1717 C1720 1.363 . S
N1718 C1720 1.356 . S
N1718 H1730 0.984 . S
N1718 H1731 0.985 . S
N1719 C1721 1.356 . S
N1719 H1724 0.984 . S
N1719 H1725 0.985 . S
C1720 C1714 1.379 . S
C1720 C1717 1.363 . S
C1720 N1718 1.356 . S
C1721 C1715 1.363 . S
C1721 C1716 1.379 . S
C1721 N1719 1.356 . S
N1722 C1714 1.356 . S
N1722 H1728 0.984 . S
N1722 H1729 0.984 . S
N1723 C1716 1.356 . S
N1723 H1726 0.984 . S
N1723 H1727 0.985 . S
H1724 N1719 0.984 . S
H1725 N1719 0.985 . S
H1726 N1723 0.984 . S
H1727 N1723 0.985 . S
H1728 N1722 0.984 . S
H1729 N1722 0.984 . S
H1730 N1718 0.984 . S
H1731 N1718 0.985 . S
C1732 C1733 1.363 . S
C1732 C1738 1.379 . S
C1732 N1740 1.356 . S
C1733 C1732 1.363 . S
C1733 C1739 1.363 . S
C1734 C1735 1.363 . S
C1734 C1739 1.379 . S
C1734 N1741 1.356 . S
C1735 C1734 1.363 . S
C1735 C1738 1.363 . S
N1736 C1738 1.356 . S
N1736 H1748 0.984 . S
N1736 H1749 0.985 . S
N1737 C1739 1.356 . S
N1737 H1742 0.984 . S
N1737 H1743 0.985 . S
C1738 C1732 1.379 . S
C1738 C1735 1.363 . S
C1738 N1736 1.356 . S
C1739 C1733 1.363 . S
C1739 C1734 1.379 . S
C1739 N1737 1.356 . S
N1740 C1732 1.356 . S
N1740 H1746 0.984 . S
N1740 H1747 0.984 . S
N1741 C1734 1.356 . S
N1741 H1744 0.984 . S
N1741 H1745 0.985 . S
H1742 N1737 0.984 . S
H1743 N1737 0.985 . S
H1744 N1741 0.984 . S
H1745 N1741 0.985 . S
H1746 N1740 0.984 . S
H1747 N1740 0.984 . S
H1748 N1736 0.984 . S
H1749 N1736 0.985 . S
C1750 C1751 1.363 . S
C1750 C1756 1.379 . S
C1750 N1758 1.356 . S
C1751 C1750 1.363 . S
C1751 C1757 1.363 . S
C1752 C1753 1.363 . S
C1752 C1757 1.379 . S
C1752 N1759 1.356 . S
C1753 C1752 1.363 . S
C1753 C1756 1.363 . S
N1754 C1756 1.356 . S
N1754 H1766 0.984 . S
N1754 H1767 0.985 . S
N1755 C1757 1.356 . S
N1755 H1760 0.984 . S
N1755 H1761 0.985 . S
C1756 C1750 1.379 . S
C1756 C1753 1.363 . S
C1756 N1754 1.356 . S
C1757 C1751 1.363 . S
C1757 C1752 1.379 . S
C1757 N1755 1.356 . S
N1758 C1750 1.356 . S
N1758 H1764 0.984 . S
N1758 H1765 0.984 . S
N1759 C1752 1.356 . S
N1759 H1762 0.984 . S
N1759 H1763 0.985 . S
H1760 N1755 0.984 . S
H1761 N1755 0.985 . S
H1762 N1759 0.984 . S
H1763 N1759 0.985 . S
H1764 N1758 0.984 . S
H1765 N1758 0.984 . S
H1766 N1754 0.984 . S
H1767 N1754 0.985 . S
C1768 C1769 1.363 . S
C1768 C1774 1.379 . S
C1768 N1776 1.356 . S
C1769 C1768 1.363 . S
C1769 C1775 1.363 . S
C1770 C1771 1.363 . S
C1770 C1775 1.379 . S
C1770 N1777 1.356 . S
C1771 C1770 1.363 . S
C1771 C1774 1.363 . S
N1772 C1774 1.356 . S
N1772 H1784 0.984 . S
N1772 H1785 0.985 . S
N1773 C1775 1.356 . S
N1773 H1778 0.984 . S
N1773 H1779 0.985 . S
C1774 C1768 1.379 . S
C1774 C1771 1.363 . S
C1774 N1772 1.356 . S
C1775 C1769 1.363 . S
C1775 C1770 1.379 . S
C1775 N1773 1.356 . S
N1776 C1768 1.356 . S
N1776 H1782 0.984 . S
N1776 H1783 0.984 . S
N1777 C1770 1.356 . S
N1777 H1780 0.984 . S
N1777 H1781 0.985 . S
H1778 N1773 0.984 . S
H1779 N1773 0.985 . S
H1780 N1777 0.984 . S
H1781 N1777 0.985 . S
H1782 N1776 0.984 . S
H1783 N1776 0.984 . S
H1784 N1772 0.984 . S
H1785 N1772 0.985 . S
C1786 C1787 1.363 . S
C1786 C1792 1.379 . S
C1786 N1794 1.356 . S
C1787 C1786 1.363 . S
C1787 C1793 1.363 . S
C1788 C1789 1.363 . S
C1788 C1793 1.379 . S
C1788 N1795 1.356 . S
C1789 C1788 1.363 . S
C1789 C1792 1.363 . S
N1790 C1792 1.356 . S
N1790 H1802 0.984 . S
N1790 H1803 0.985 . S
N1791 C1793 1.356 . S
N1791 H1796 0.984 . S
N1791 H1797 0.985 . S
C1792 C1786 1.379 . S
C1792 C1789 1.363 . S
C1792 N1790 1.356 . S
C1793 C1787 1.363 . S
C1793 C1788 1.379 . S
C1793 N1791 1.356 . S
N1794 C1786 1.356 . S
N1794 H1800 0.984 . S
N1794 H1801 0.984 . S
N1795 C1788 1.356 . S
N1795 H1798 0.984 . S
N1795 H1799 0.985 . S
H1796 N1791 0.984 . S
H1797 N1791 0.985 . S
H1798 N1795 0.984 . S
H1799 N1795 0.985 . S
H1800 N1794 0.984 . S
H1801 N1794 0.984 . S
H1802 N1790 0.984 . S
H1803 N1790 0.985 . S
C1804 C1805 1.363 . S
C1804 C1810 1.379 . S
C1804 N1812 1.356 . S
C1805 C1804 1.363 . S
C1805 C1811 1.363 . S
C1806 C1807 1.363 . S
C1806 C1811 1.379 . S
C1806 N1813 1.356 . S
C1807 C1806 1.363 . S
C1807 C1810 1.363 . S
N1808 C1810 1.356 . S
N1808 H1820 0.984 . S
N1808 H1821 0.985 . S
N1809 C1811 1.356 . S
N1809 H1814 0.984 . S
N1809 H1815 0.985 . S
C1810 C1804 1.379 . S
C1810 C1807 1.363 . S
C1810 N1808 1.356 . S
C1811 C1805 1.363 . S
C1811 C1806 1.379 . S
C1811 N1809 1.356 . S
N1812 C1804 1.356 . S
N1812 H1818 0.984 . S
N1812 H1819 0.984 . S
N1813 C1806 1.356 . S
N1813 H1816 0.984 . S
N1813 H1817 0.985 . S
H1814 N1809 0.984 . S
H1815 N1809 0.985 . S
H1816 N1813 0.984 . S
H1817 N1813 0.985 . S
H1818 N1812 0.984 . S
H1819 N1812 0.984 . S
H1820 N1808 0.984 . S
H1821 N1808 0.985 . S
C1822 C1823 1.363 . S
C1822 C1828 1.379 . S
C1822 N1830 1.356 . S
C1823 C1822 1.363 . S
C1823 C1829 1.363 . S
C1824 C1825 1.363 . S
C1824 C1829 1.379 . S
C1824 N1831 1.356 . S
C1825 C1824 1.363 . S
C1825 C1828 1.363 . S
N1826 C1828 1.356 . S
N1826 H1838 0.984 . S
N1826 H1839 0.985 . S
N1827 C1829 1.356 . S
N1827 H1832 0.984 . S
N1827 H1833 0.985 . S
C1828 C1822 1.379 . S
C1828 C1825 1.363 . S
C1828 N1826 1.356 . S
C1829 C1823 1.363 . S
C1829 C1824 1.379 . S
C1829 N1827 1.356 . S
N1830 C1822 1.356 . S
N1830 H1836 0.984 . S
N1830 H1837 0.984 . S
N1831 C1824 1.356 . S
N1831 H1834 0.984 . S
N1831 H1835 0.985 . S
H1832 N1827 0.984 . S
H1833 N1827 0.985 . S
H1834 N1831 0.984 . S
H1835 N1831 0.985 . S
H1836 N1830 0.984 . S
H1837 N1830 0.984 . S
H1838 N1826 0.984 . S
H1839 N1826 0.985 . S
C1840 C1841 1.363 . S
C1840 C1846 1.379 . S
C1840 N1848 1.356 . S
C1841 C1840 1.363 . S
C1841 C1847 1.363 . S
C1842 C1843 1.363 . S
C1842 C1847 1.379 . S
C1842 N1849 1.356 . S
C1843 C1842 1.363 . S
C1843 C1846 1.363 . S
N1844 C1846 1.356 . S
N1844 H1856 0.984 . S
N1844 H1857 0.985 . S
N1845 C1847 1.356 . S
N1845 H1850 0.984 . S
N1845 H1851 0.985 . S
C1846 C1840 1.379 . S
C1846 C1843 1.363 . S
C1846 N1844 1.356 . S
C1847 C1841 1.363 . S
C1847 C1842 1.379 . S
C1847 N1845 1.356 . S
N1848 C1840 1.356 . S
N1848 H1854 0.984 . S
N1848 H1855 0.984 . S
N1849 C1842 1.356 . S
N1849 H1852 0.984 . S
N1849 H1853 0.985 . S
H1850 N1845 0.984 . S
H1851 N1845 0.985 . S
H1852 N1849 0.984 . S
H1853 N1849 0.985 . S
H1854 N1848 0.984 . S
H1855 N1848 0.984 . S
H1856 N1844 0.984 . S
H1857 N1844 0.985 . S
C1858 C1859 1.363 . S
C1858 C1864 1.379 . S
C1858 N1866 1.356 . S
C1859 C1858 1.363 . S
C1859 C1865 1.363 . S
C1860 C1861 1.363 . S
C1860 C1865 1.379 . S
C1860 N1867 1.356 . S
C1861 C1860 1.363 . S
C1861 C1864 1.363 . S
N1862 C1864 1.356 . S
N1862 H1874 0.984 . S
N1862 H1875 0.985 . S
N1863 C1865 1.356 . S
N1863 H1868 0.984 . S
N1863 H1869 0.985 . S
C1864 C1858 1.379 . S
C1864 C1861 1.363 . S
C1864 N1862 1.356 . S
C1865 C1859 1.363 . S
C1865 C1860 1.379 . S
C1865 N1863 1.356 . S
N1866 C1858 1.356 . S
N1866 H1872 0.984 . S
N1866 H1873 0.984 . S
N1867 C1860 1.356 . S
N1867 H1870 0.984 . S
N1867 H1871 0.985 . S
H1868 N1863 0.984 . S
H1869 N1863 0.985 . S
H1870 N1867 0.984 . S
H1871 N1867 0.985 . S
H1872 N1866 0.984 . S
H1873 N1866 0.984 . S
H1874 N1862 0.984 . S
H1875 N1862 0.985 . S
C1876 C1877 1.363 . S
C1876 C1882 1.379 . S
C1876 N1884 1.356 . S
C1877 C1876 1.363 . S
C1877 C1883 1.363 . S
C1878 C1879 1.363 . S
C1878 C1883 1.379 . S
C1878 N1885 1.356 . S
C1879 C1878 1.363 . S
C1879 C1882 1.363 . S
N1880 C1882 1.356 . S
N1880 H1892 0.984 . S
N1880 H1893 0.985 . S
N1881 C1883 1.356 . S
N1881 H1886 0.984 . S
N1881 H1887 0.985 . S
C1882 C1876 1.379 . S
C1882 C1879 1.363 . S
C1882 N1880 1.356 . S
C1883 C1877 1.363 . S
C1883 C1878 1.379 . S
C1883 N1881 1.356 . S
N1884 C1876 1.356 . S
N1884 H1890 0.984 . S
N1884 H1891 0.984 . S
N1885 C1878 1.356 . S
N1885 H1888 0.984 . S
N1885 H1889 0.985 . S
H1886 N1881 0.984 . S
H1887 N1881 0.985 . S
H1888 N1885 0.984 . S
H1889 N1885 0.985 . S
H1890 N1884 0.984 . S
H1891 N1884 0.984 . S
H1892 N1880 0.984 . S
H1893 N1880 0.985 . S
C1894 C1895 1.363 . S
C1894 C1900 1.379 . S
C1894 N1902 1.356 . S
C1895 C1894 1.363 . S
C1895 C1901 1.363 . S
C1896 C1897 1.363 . S
C1896 C1901 1.379 . S
C1896 N1903 1.356 . S
C1897 C1896 1.363 . S
C1897 C1900 1.363 . S
N1898 C1900 1.356 . S
N1898 H1910 0.984 . S
N1898 H1911 0.985 . S
N1899 C1901 1.356 . S
N1899 H1904 0.984 . S
N1899 H1905 0.985 . S
C1900 C1894 1.379 . S
C1900 C1897 1.363 . S
C1900 N1898 1.356 . S
C1901 C1895 1.363 . S
C1901 C1896 1.379 . S
C1901 N1899 1.356 . S
N1902 C1894 1.356 . S
N1902 H1908 0.984 . S
N1902 H1909 0.984 . S
N1903 C1896 1.356 . S
N1903 H1906 0.984 . S
N1903 H1907 0.985 . S
H1904 N1899 0.984 . S
H1905 N1899 0.985 . S
H1906 N1903 0.984 . S
H1907 N1903 0.985 . S
H1908 N1902 0.984 . S
H1909 N1902 0.984 . S
H1910 N1898 0.984 . S
H1911 N1898 0.985 . S
C1912 C1913 1.363 . S
C1912 C1918 1.379 . S
C1912 N1920 1.356 . S
C1913 C1912 1.363 . S
C1913 C1919 1.363 . S
C1914 C1915 1.363 . S
C1914 C1919 1.379 . S
C1914 N1921 1.356 . S
C1915 C1914 1.363 . S
C1915 C1918 1.363 . S
N1916 C1918 1.356 . S
N1916 H1928 0.984 . S
N1916 H1929 0.985 . S
N1917 C1919 1.356 . S
N1917 H1922 0.984 . S
N1917 H1923 0.985 . S
C1918 C1912 1.379 . S
C1918 C1915 1.363 . S
C1918 N1916 1.356 . S
C1919 C1913 1.363 . S
C1919 C1914 1.379 . S
C1919 N1917 1.356 . S
N1920 C1912 1.356 . S
N1920 H1926 0.984 . S
N1920 H1927 0.984 . S
N1921 C1914 1.356 . S
N1921 H1924 0.984 . S
N1921 H1925 0.985 . S
H1922 N1917 0.984 . S
H1923 N1917 0.985 . S
H1924 N1921 0.984 . S
H1925 N1921 0.985 . S
H1926 N1920 0.984 . S
H1927 N1920 0.984 . S
H1928 N1916 0.984 . S
H1929 N1916 0.985 . S
C1930 C1931 1.363 . S
C1930 C1936 1.379 . S
C1930 N1938 1.356 . S
C1931 C1930 1.363 . S
C1931 C1937 1.363 . S
C1932 C1933 1.363 . S
C1932 C1937 1.379 . S
C1932 N1939 1.356 . S
C1933 C1932 1.363 . S
C1933 C1936 1.363 . S
N1934 C1936 1.356 . S
N1934 H1946 0.984 . S
N1934 H1947 0.985 . S
N1935 C1937 1.356 . S
N1935 H1940 0.984 . S
N1935 H1941 0.985 . S
C1936 C1930 1.379 . S
C1936 C1933 1.363 . S
C1936 N1934 1.356 . S
C1937 C1931 1.363 . S
C1937 C1932 1.379 . S
C1937 N1935 1.356 . S
N1938 C1930 1.356 . S
N1938 H1944 0.984 . S
N1938 H1945 0.984 . S
N1939 C1932 1.356 . S
N1939 H1942 0.984 . S
N1939 H1943 0.985 . S
H1940 N1935 0.984 . S
H1941 N1935 0.985 . S
H1942 N1939 0.984 . S
H1943 N1939 0.985 . S
H1944 N1938 0.984 . S
H1945 N1938 0.984 . S
H1946 N1934 0.984 . S
H1947 N1934 0.985 . S
C1948 C1949 1.363 . S
C1948 C1954 1.379 . S
C1948 N1956 1.356 . S
C1949 C1948 1.363 . S
C1949 C1955 1.363 . S
C1950 C1951 1.363 . S
C1950 C1955 1.379 . S
C1950 N1957 1.356 . S
C1951 C1950 1.363 . S
C1951 C1954 1.363 . S
N1952 C1954 1.356 . S
N1952 H1964 0.984 . S
N1952 H1965 0.985 . S
N1953 C1955 1.356 . S
N1953 H1958 0.984 . S
N1953 H1959 0.985 . S
C1954 C1948 1.379 . S
C1954 C1951 1.363 . S
C1954 N1952 1.356 . S
C1955 C1949 1.363 . S
C1955 C1950 1.379 . S
C1955 N1953 1.356 . S
N1956 C1948 1.356 . S
N1956 H1962 0.984 . S
N1956 H1963 0.984 . S
N1957 C1950 1.356 . S
N1957 H1960 0.984 . S
N1957 H1961 0.985 . S
H1958 N1953 0.984 . S
H1959 N1953 0.985 . S
H1960 N1957 0.984 . S
H1961 N1957 0.985 . S
H1962 N1956 0.984 . S
H1963 N1956 0.984 . S
H1964 N1952 0.984 . S
H1965 N1952 0.985 . S
C1966 C1967 1.363 . S
C1966 C1972 1.379 . S
C1966 N1974 1.356 . S
C1967 C1966 1.363 . S
C1967 C1973 1.363 . S
C1968 C1969 1.363 . S
C1968 C1973 1.379 . S
C1968 N1975 1.356 . S
C1969 C1968 1.363 . S
C1969 C1972 1.363 . S
N1970 C1972 1.356 . S
N1970 H1982 0.984 . S
N1970 H1983 0.985 . S
N1971 C1973 1.356 . S
N1971 H1976 0.984 . S
N1971 H1977 0.985 . S
C1972 C1966 1.379 . S
C1972 C1969 1.363 . S
C1972 N1970 1.356 . S
C1973 C1967 1.363 . S
C1973 C1968 1.379 . S
C1973 N1971 1.356 . S
N1974 C1966 1.356 . S
N1974 H1980 0.984 . S
N1974 H1981 0.984 . S
N1975 C1968 1.356 . S
N1975 H1978 0.984 . S
N1975 H1979 0.985 . S
H1976 N1971 0.984 . S
H1977 N1971 0.985 . S
H1978 N1975 0.984 . S
H1979 N1975 0.985 . S
H1980 N1974 0.984 . S
H1981 N1974 0.984 . S
H1982 N1970 0.984 . S
H1983 N1970 0.985 . S
C1409 C57 1.411 . S
C1411 C1113 1.408 . S
C1427 C117 1.411 . S
C1429 C489 1.410 . S
C1445 C205 1.411 . S
C1447 C1289 1.411 . S
C1463 C665 1.410 . S
C1465 C313 1.411 . S
C1481 C1252 1.410 . S
C1483 C196 1.409 . S
C1499 C645 1.410 . S
C1501 C321 1.411 . S
C1517 C1076 1.410 . S
C1519 C49 1.412 . S
C1535 C469 1.410 . S
C1537 C108 1.411 . S
C1553 C409 1.410 . S
C1555 C761 1.412 . S
C1571 C577 1.410 . S
C1573 C909 1.409 . S
C1589 C900 1.411 . S
C1591 C557 1.411 . S
C1607 C372 1.410 . S
C1609 C753 1.409 . S
C1625 C1201 1.410 . S
C1627 C841 1.411 . S
C1643 C1025 1.411 . S
C1645 C1377 1.410 . S
C1661 C1017 1.411 . S
C1663 C1340 1.410 . S
C1679 C849 1.411 . S
C1681 C1164 1.410 . S
C1697 C997 1.748 . S
C1699 C20 1.746 . S
C1715 C733 1.748 . S
C1717 C137 1.752 . S
C1733 C225 1.748 . S
C1735 C812 1.748 . S
C1751 C937 1.748 . S
C1753 C293 1.745 . S
C1769 C988 1.748 . S
C1771 C233 1.748 . S
C1787 C284 1.748 . S
C1789 C724 1.752 . S
C1805 C821 1.748 . S
C1807 C29 1.749 . S
C1823 C929 1.748 . S
C1825 C145 1.742 . S
C1841 C401 1.750 . S
C1843 C1349 1.752 . S
C1859 C1085 1.750 . S
C1861 C497 1.746 . S
C1877 C585 1.750 . S
C1879 C1173 1.750 . S
C1895 C673 1.750 . S
C1897 C1261 1.752 . S
C1913 C548 1.750 . S
C1915 C1369 1.750 . S
C1931 C1105 1.750 . S
C1933 C636 1.746 . S
C1949 C1193 1.750 . S
C1951 C381 1.749 . S
C1967 C1281 1.750 . S
C1969 C460 1.756 . S
