# Generated by pormake.
# Topology ukf, (4)-cn, num edge types: 1
# Building blocks:
#     Node 0, Type 0, BuildingBlock: KUFVIS_clean_sbu_0, # of connection points: 4
#     Node 1, Type 0, BuildingBlock: KUFVIS_clean_sbu_0, # of connection points: 4
#     Node 2, Type 0, BuildingBlock: KUFVIS_clean_sbu_0, # of connection points: 4
#     Node 3, Type 0, BuildingBlock: KUFVIS_clean_sbu_0, # of connection points: 4
#     Node 4, Type 0, BuildingBlock: KUFVIS_clean_sbu_0, # of connection points: 4
#     Node 5, Type 0, BuildingBlock: KUFVIS_clean_sbu_0, # of connection points: 4
#     Node 6, Type 0, BuildingBlock: KUFVIS_clean_sbu_0, # of connection points: 4
#     Node 7, Type 0, BuildingBlock: KUFVIS_clean_sbu_0, # of connection points: 4
#     Node 8, Type 0, BuildingBlock: KUFVIS_clean_sbu_0, # of connection points: 4
#     Node 9, Type 0, BuildingBlock: KUFVIS_clean_sbu_0, # of connection points: 4
#     Node 10, Type 0, BuildingBlock: KUFVIS_clean_sbu_0, # of connection points: 4
#     Node 11, Type 0, BuildingBlock: KUFVIS_clean_sbu_0, # of connection points: 4
#     Edge 12, Type (0, 0), BuildingBlock: AJUNOK_clean_linker_0, # of connection points: 2
#     Edge 13, Type (0, 0), BuildingBlock: AJUNOK_clean_linker_0, # of connection points: 2
#     Edge 14, Type (0, 0), BuildingBlock: AJUNOK_clean_linker_0, # of connection points: 2
#     Edge 15, Type (0, 0), BuildingBlock: AJUNOK_clean_linker_0, # of connection points: 2
#     Edge 16, Type (0, 0), BuildingBlock: AJUNOK_clean_linker_0, # of connection points: 2
#     Edge 17, Type (0, 0), BuildingBlock: AJUNOK_clean_linker_0, # of connection points: 2
#     Edge 18, Type (0, 0), BuildingBlock: AJUNOK_clean_linker_0, # of connection points: 2
#     Edge 19, Type (0, 0), BuildingBlock: AJUNOK_clean_linker_0, # of connection points: 2
#     Edge 20, Type (0, 0), BuildingBlock: AJUNOK_clean_linker_0, # of connection points: 2
#     Edge 21, Type (0, 0), BuildingBlock: AJUNOK_clean_linker_0, # of connection points: 2
#     Edge 22, Type (0, 0), BuildingBlock: AJUNOK_clean_linker_0, # of connection points: 2
#     Edge 23, Type (0, 0), BuildingBlock: AJUNOK_clean_linker_0, # of connection points: 2
#     Edge 24, Type (0, 0), BuildingBlock: AJUNOK_clean_linker_0, # of connection points: 2
#     Edge 25, Type (0, 0), BuildingBlock: AJUNOK_clean_linker_0, # of connection points: 2
#     Edge 26, Type (0, 0), BuildingBlock: AJUNOK_clean_linker_0, # of connection points: 2
#     Edge 27, Type (0, 0), BuildingBlock: AJUNOK_clean_linker_0, # of connection points: 2
#     Edge 28, Type (0, 0), BuildingBlock: AJUNOK_clean_linker_0, # of connection points: 2
#     Edge 29, Type (0, 0), BuildingBlock: AJUNOK_clean_linker_0, # of connection points: 2
#     Edge 30, Type (0, 0), BuildingBlock: AJUNOK_clean_linker_0, # of connection points: 2
#     Edge 31, Type (0, 0), BuildingBlock: AJUNOK_clean_linker_0, # of connection points: 2
#     Edge 32, Type (0, 0), BuildingBlock: AJUNOK_clean_linker_0, # of connection points: 2
#     Edge 33, Type (0, 0), BuildingBlock: AJUNOK_clean_linker_0, # of connection points: 2
#     Edge 34, Type (0, 0), BuildingBlock: AJUNOK_clean_linker_0, # of connection points: 2
#     Edge 35, Type (0, 0), BuildingBlock: AJUNOK_clean_linker_0, # of connection points: 2
# Relax obj value: 0.096
# Max RMSD: 0.095
# Mean RMSD: 0.095
data_MOF--net-ukf--node1-KUFVIS_clean_sbu_0--edge1-AJUNOK_clean_linker_0
_symmetry_space_group_name_H-M    P1
_symmetry_Int_Tables_number       1
_symmetry_cell_setting            triclinic
loop_
_symmetry_equiv_pos_as_xyz
'x, y, z'
_cell_length_a     23.840523
_cell_length_b     23.886564
_cell_length_c     46.357459
_cell_angle_alpha  89.953004
_cell_angle_beta   90.321545
_cell_angle_gamma 119.87726
loop_
_atom_site_label
_atom_site_type_symbol
_atom_site_fract_x
_atom_site_fract_y
_atom_site_fract_z
_atom_type_partial_charge
Mn0 Mn 0.44822 0.25403 0.04157 0.0
Mn1 Mn 0.57959 0.32523 0.08515 0.0
C2 C 0.55124 0.29339 0.02258 0.0
C3 C 0.37015 0.15406 0.02101 0.0
C4 C 0.51023 0.39526 0.06309 0.0
O5 O 0.4081 0.22763 0.08154 0.0
O6 O 0.50023 0.27265 0.10769 0.0
C7 C 0.57506 0.20328 0.10174 0.0
N8 N 0.60826 0.26407 0.09071 0.0
C9 C 0.70126 0.25255 0.08152 0.0
C10 C 0.66822 0.19 0.09299 0.0
C11 C 0.60475 0.16522 0.10307 0.0
C12 C 0.66888 0.2879 0.08046 0.0
H13 H 0.52613 0.18382 0.10928 0.0
C14 C 0.43877 0.23916 0.10536 0.0
O15 O 0.35973 0.20262 0.02193 0.0
O16 O 0.42308 0.16327 0.03274 0.0
N17 N 0.66147 0.37797 0.0671 0.0
C18 C 0.6881 0.44066 0.0585 0.0
C19 C 0.75269 0.47404 0.04925 0.0
C20 C 0.78962 0.44304 0.04942 0.0
C21 C 0.76196 0.3793 0.05933 0.0
C22 C 0.69767 0.34888 0.06872 0.0
H23 H 0.66019 0.46491 0.05841 0.0
O24 O 0.50279 0.28169 0.00596 0.0
O25 O 0.53741 0.28088 0.04962 0.0
O26 O 0.46615 0.34829 0.04801 0.0
O27 O 0.55245 0.38996 0.07829 0.0
C28 C 0.79563 0.34479 0.0603 0.0
C29 C 0.76506 0.28117 0.07109 0.0
H30 H 0.69104 0.16058 0.09412 0.0
H31 H 0.57876 0.11686 0.11182 0.0
H32 H 0.77387 0.52345 0.04194 0.0
H33 H 0.8392 0.4687 0.042 0.0
H34 H 0.84503 0.36668 0.05274 0.0
H35 H 0.79127 0.25495 0.07155 0.0
Mn36 Mn 0.20836 0.43462 0.38547 0.0
Mn37 Mn 0.2544 0.56121 0.43066 0.0
C38 C 0.27333 0.53917 0.3693 0.0
C39 C 0.24036 0.36241 0.36605 0.0
C40 C 0.12325 0.49474 0.40029 0.0
O41 O 0.18636 0.39031 0.42482 0.0
O42 O 0.2207 0.47928 0.45233 0.0
C43 C 0.36499 0.55435 0.45628 0.0
N44 N 0.34169 0.58827 0.44186 0.0
C45 C 0.44899 0.67926 0.43654 0.0
C46 C 0.47403 0.64518 0.45129 0.0
C47 C 0.4318 0.58243 0.46121 0.0
C48 C 0.382 0.64848 0.43203 0.0
H49 H 0.33289 0.50619 0.46389 0.0
C50 C 0.19633 0.41833 0.44923 0.0
O51 O 0.1807 0.34976 0.36365 0.0
O52 O 0.27762 0.41304 0.38085 0.0
N53 N 0.2894 0.64472 0.41331 0.0
C54 C 0.25688 0.67354 0.40238 0.0
C55 C 0.29159 0.73807 0.39319 0.0
C56 C 0.3593 0.77269 0.3958 0.0
C57 C 0.3915 0.74296 0.40828 0.0
C58 C 0.35417 0.6789 0.4175 0.0
H59 H 0.20494 0.64732 0.40033 0.0
O60 O 0.24197 0.49247 0.35121 0.0
O61 O 0.26702 0.52294 0.39623 0.0
O62 O 0.12976 0.45064 0.38712 0.0
O63 O 0.16591 0.53589 0.41769 0.0
C64 C 0.45905 0.77471 0.41235 0.0
C65 C 0.48784 0.74268 0.42626 0.0
H66 H 0.52553 0.66678 0.45521 0.0
H67 H 0.45068 0.55576 0.47264 0.0
H68 H 0.26624 0.7609 0.38396 0.0
H69 H 0.38598 0.82224 0.38844 0.0
H70 H 0.48926 0.82393 0.40507 0.0
H71 H 0.53982 0.76762 0.42934 0.0
Mn72 Mn 0.81048 0.2086 0.71578 0.0
Mn73 Mn 0.74077 0.27052 0.75866 0.0
C74 C 0.776 0.27597 0.69629 0.0
C75 C 0.91196 0.22585 0.69966 0.0
C76 C 0.66974 0.13196 0.73625 0.0
O77 O 0.82935 0.18862 0.75638 0.0
O78 O 0.79495 0.24594 0.78188 0.0
C79 C 0.86185 0.3896 0.77451 0.0
N80 N 0.80074 0.36062 0.7634 0.0
C81 C 0.80975 0.46348 0.75295 0.0
C82 C 0.87262 0.49443 0.76449 0.0
C83 C 0.89883 0.45729 0.77524 0.0
C84 C 0.7755 0.3959 0.75254 0.0
H85 H 0.88231 0.36122 0.78256 0.0
C86 C 0.82301 0.21239 0.77988 0.0
O87 O 0.86052 0.16895 0.69782 0.0
O88 O 0.90392 0.27099 0.71047 0.0
N89 N 0.68651 0.29723 0.73966 0.0
C90 C 0.62405 0.25986 0.73061 0.0
C91 C 0.5896 0.28947 0.72035 0.0
C92 C 0.61921 0.35712 0.72005 0.0
C93 C 0.6828 0.39455 0.73033 0.0
C94 C 0.71438 0.36229 0.74066 0.0
H95 H 0.60062 0.20784 0.73119 0.0
O96 O 0.78976 0.24117 0.67956 0.0
O97 O 0.78525 0.27182 0.72355 0.0
O98 O 0.71435 0.13541 0.71946 0.0
O99 O 0.67679 0.17801 0.75286 0.0
C100 C 0.71614 0.46257 0.7307 0.0
C101 C 0.77983 0.49703 0.74172 0.0
H102 H 0.90125 0.54663 0.76513 0.0
H103 H 0.94746 0.48079 0.78402 0.0
H104 H 0.54037 0.26022 0.71269 0.0
H105 H 0.59273 0.3798 0.71187 0.0
H106 H 0.69333 0.48886 0.72244 0.0
H107 H 0.80518 0.54931 0.74167 0.0
Mn108 Mn 0.60224 0.79825 0.04649 0.0
Mn109 Mn 0.45989 0.71445 0.08166 0.0
C110 C 0.50518 0.76576 0.0224 0.0
C111 C 0.6875 0.90204 0.03354 0.0
C112 C 0.53322 0.65097 0.05852 0.0
O113 O 0.6317 0.81176 0.08858 0.0
O114 O 0.53372 0.7542 0.109 0.0
C115 C 0.46608 0.83157 0.10654 0.0
N116 N 0.43398 0.77639 0.09065 0.0
C117 C 0.34759 0.79799 0.08019 0.0
C118 C 0.3796 0.85489 0.09654 0.0
C119 C 0.43919 0.87181 0.10971 0.0
C120 C 0.37727 0.76036 0.07741 0.0
H121 H 0.51202 0.84496 0.11659 0.0
C122 C 0.59526 0.78877 0.11049 0.0
O123 O 0.695 0.85169 0.03237 0.0
O124 O 0.63215 0.89182 0.0426 0.0
N125 N 0.38234 0.67237 0.05901 0.0
C126 C 0.35413 0.61206 0.04719 0.0
C127 C 0.29199 0.5853 0.03491 0.0
C128 C 0.25876 0.62004 0.03564 0.0
C129 C 0.28747 0.68068 0.04911 0.0
C130 C 0.34913 0.70442 0.0613 0.0
H131 H 0.37883 0.58455 0.04717 0.0
O132 O 0.55756 0.78207 0.00813 0.0
O133 O 0.51146 0.77032 0.05024 0.0
O134 O 0.5823 0.7026 0.04865 0.0
O135 O 0.48497 0.64983 0.07114 0.0
C136 C 0.25672 0.71779 0.05151 0.0
C137 C 0.28714 0.77684 0.06673 0.0
H138 H 0.35879 0.88583 0.09919 0.0
H139 H 0.4643 0.91573 0.12231 0.0
H140 H 0.26973 0.538 0.02497 0.0
H141 H 0.21102 0.59946 0.02605 0.0
H142 H 0.20944 0.70111 0.04192 0.0
H143 H 0.26304 0.80497 0.06844 0.0
Mn144 Mn 0.81514 0.5932 0.38336 0.0
Mn145 Mn 0.77447 0.45759 0.42149 0.0
C146 C 0.74355 0.4933 0.36412 0.0
C147 C 0.79718 0.67699 0.36742 0.0
C148 C 0.89706 0.5252 0.38824 0.0
O149 O 0.83938 0.62934 0.42383 0.0
O150 O 0.82455 0.53789 0.44478 0.0
C151 C 0.68631 0.46882 0.46304 0.0
N152 N 0.69792 0.43367 0.44328 0.0
C153 C 0.59853 0.33732 0.4552 0.0
C154 C 0.58572 0.37248 0.47575 0.0
C155 C 0.62961 0.43861 0.47954 0.0
C156 C 0.65574 0.37015 0.4393 0.0
H157 H 0.72017 0.51932 0.46639 0.0
C158 C 0.84342 0.59839 0.44534 0.0
O159 O 0.85377 0.6818 0.36549 0.0
O160 O 0.75237 0.62534 0.37956 0.0
N161 N 0.72527 0.37553 0.40298 0.0
C162 C 0.74279 0.34958 0.38106 0.0
C163 C 0.70194 0.28481 0.37322 0.0
C164 C 0.6441 0.24705 0.38825 0.0
C165 C 0.62758 0.27448 0.41105 0.0
C166 C 0.66997 0.33939 0.41779 0.0
H167 H 0.78747 0.37823 0.36964 0.0
O168 O 0.77894 0.54243 0.34781 0.0
O169 O 0.75152 0.50272 0.39198 0.0
O170 O 0.89319 0.57589 0.38276 0.0
O171 O 0.85234 0.47552 0.40046 0.0
C172 C 0.57045 0.24008 0.4272 0.0
C173 C 0.55605 0.27143 0.44933 0.0
H174 H 0.54201 0.34935 0.48851 0.0
H175 H 0.62004 0.46615 0.49531 0.0
H176 H 0.71535 0.2637 0.35591 0.0
H177 H 0.61282 0.19708 0.38212 0.0
H178 H 0.53688 0.18975 0.42255 0.0
H179 H 0.51151 0.24473 0.46131 0.0
Mn180 Mn 0.2711 0.82541 0.71234 0.0
Mn181 Mn 0.33754 0.77463 0.763 0.0
C182 C 0.31672 0.76239 0.69862 0.0
C183 C 0.17161 0.79742 0.68892 0.0
C184 C 0.40785 0.91018 0.73753 0.0
O185 O 0.23907 0.84487 0.74965 0.0
O186 O 0.27903 0.80096 0.78053 0.0
C187 C 0.21436 0.65702 0.77746 0.0
N188 N 0.27724 0.68513 0.76901 0.0
C189 C 0.2711 0.58181 0.76516 0.0
C190 C 0.20632 0.55174 0.7739 0.0
C191 C 0.17776 0.58954 0.77997 0.0
C192 C 0.30457 0.64912 0.76229 0.0
H193 H 0.19226 0.68585 0.78213 0.0
C194 C 0.24619 0.82848 0.77488 0.0
O195 O 0.21924 0.85679 0.68868 0.0
O196 O 0.18186 0.75677 0.70284 0.0
N197 N 0.39617 0.74675 0.75088 0.0
C198 C 0.46168 0.78411 0.74858 0.0
C199 C 0.49985 0.75463 0.74642 0.0
C200 C 0.47039 0.687 0.74689 0.0
C201 C 0.40331 0.6496 0.75053 0.0
C202 C 0.36815 0.68187 0.7536 0.0
H203 H 0.48487 0.83613 0.74901 0.0
O204 O 0.30495 0.79554 0.67991 0.0
O205 O 0.29981 0.76637 0.72477 0.0
O206 O 0.36364 0.90353 0.7194 0.0
O207 O 0.40132 0.86636 0.75547 0.0
C208 C 0.37055 0.58179 0.7529 0.0
C209 C 0.30416 0.5478 0.75975 0.0
H210 H 0.17824 0.49978 0.77626 0.0
H211 H 0.12778 0.56677 0.78671 0.0
H212 H 0.55181 0.78396 0.74436 0.0
H213 H 0.49992 0.66441 0.74501 0.0
H214 H 0.39626 0.55545 0.75012 0.0
H215 H 0.27955 0.49571 0.76176 0.0
Mn216 Mn 0.80122 0.59053 0.62576 0.0
Mn217 Mn 0.71243 0.45938 0.58418 0.0
C218 C 0.75774 0.48793 0.64658 0.0
C219 C 0.91039 0.66343 0.64007 0.0
C220 C 0.66165 0.54507 0.60734 0.0
O221 O 0.82061 0.62665 0.58486 0.0
O222 O 0.7746 0.53264 0.56046 0.0
C223 C 0.81908 0.43661 0.56746 0.0
N224 N 0.75907 0.41437 0.57877 0.0
C225 C 0.74649 0.30923 0.58679 0.0
C226 C 0.80789 0.33078 0.57496 0.0
C227 C 0.84446 0.39487 0.56537 0.0
C228 C 0.72402 0.35321 0.58854 0.0
H229 H 0.84742 0.4859 0.56021 0.0
C230 C 0.80997 0.59395 0.5618 0.0
O231 O 0.86587 0.67957 0.64256 0.0
O232 O 0.89089 0.60704 0.62942 0.0
N233 N 0.64945 0.38308 0.60342 0.0
C234 C 0.59059 0.36954 0.6138 0.0
C235 C 0.54749 0.30708 0.62381 0.0
C236 C 0.56469 0.2588 0.62248 0.0
C237 C 0.62447 0.27316 0.61074 0.0
C238 C 0.66518 0.33614 0.60083 0.0
H239 H 0.57642 0.40591 0.6144 0.0
O240 O 0.7782 0.53924 0.66236 0.0
O241 O 0.76333 0.49889 0.61903 0.0
O242 O 0.70989 0.58187 0.6238 0.0
O243 O 0.66098 0.50272 0.59016 0.0
C244 C 0.64567 0.22777 0.60881 0.0
C245 C 0.70686 0.24593 0.59707 0.0
H246 H 0.82756 0.29867 0.57325 0.0
H247 H 0.89208 0.41202 0.55639 0.0
H248 H 0.50109 0.29618 0.63249 0.0
H249 H 0.53156 0.21084 0.63046 0.0
H250 H 0.61554 0.17891 0.61656 0.0
H251 H 0.72292 0.21082 0.59599 0.0
Mn252 Mn 0.21585 0.79435 0.9505 0.0
Mn253 Mn 0.25605 0.70801 0.9057 0.0
C254 C 0.28147 0.75451 0.96787 0.0
C255 C 0.24569 0.89979 0.96726 0.0
C256 C 0.12607 0.65076 0.93555 0.0
O257 O 0.19171 0.8141 0.91102 0.0
O258 O 0.22609 0.75929 0.88395 0.0
C259 C 0.3699 0.82097 0.88029 0.0
N260 N 0.34372 0.76328 0.89429 0.0
C261 C 0.44675 0.76783 0.89636 0.0
C262 C 0.4748 0.82718 0.88187 0.0
C263 C 0.4362 0.85393 0.87386 0.0
C264 C 0.38061 0.73769 0.90253 0.0
H265 H 0.34045 0.84172 0.8741 0.0
C266 C 0.20141 0.7956 0.8868 0.0
O267 O 0.18683 0.85206 0.97025 0.0
O268 O 0.28504 0.88585 0.95445 0.0
N269 N 0.28609 0.6544 0.92223 0.0
C270 C 0.24966 0.59251 0.93185 0.0
C271 C 0.28007 0.55703 0.93939 0.0
C272 C 0.34718 0.58455 0.93585 0.0
C273 C 0.38288 0.64646 0.92391 0.0
C274 C 0.34983 0.67937 0.91673 0.0
H275 H 0.19789 0.57046 0.93392 0.0
O276 O 0.25039 0.77191 0.98513 0.0
O277 O 0.27334 0.76124 0.94054 0.0
O278 O 0.13586 0.70139 0.94958 0.0
O279 O 0.16663 0.6491 0.91813 0.0
C280 C 0.44963 0.67615 0.9182 0.0
C281 C 0.48165 0.73702 0.90463 0.0
H282 H 0.52582 0.85248 0.87666 0.0
H283 H 0.45747 0.89971 0.86267 0.0
H284 H 0.25182 0.50854 0.94777 0.0
H285 H 0.3705 0.55712 0.9417 0.0
H286 H 0.47663 0.65222 0.92382 0.0
H287 H 0.53288 0.75918 0.90017 0.0
Mn288 Mn 0.43506 0.20729 0.28431 0.0
Mn289 Mn 0.5689 0.23915 0.24648 0.0
C290 C 0.53576 0.2681 0.30625 0.0
C291 C 0.36243 0.24013 0.30146 0.0
C292 C 0.48482 0.11177 0.27533 0.0
O293 O 0.40028 0.19294 0.24343 0.0
O294 O 0.49076 0.20822 0.22153 0.0
C295 C 0.58068 0.34939 0.21231 0.0
N296 N 0.60797 0.32288 0.22936 0.0
C297 C 0.71427 0.41439 0.22253 0.0
C298 C 0.68737 0.44253 0.20471 0.0
C299 C 0.62026 0.40998 0.19966 0.0
C300 C 0.67253 0.35356 0.23421 0.0
H301 H 0.5292 0.32439 0.20831 0.0
C302 C 0.43129 0.19353 0.22112 0.0
O303 O 0.34663 0.17957 0.30168 0.0
O304 O 0.41687 0.27915 0.28946 0.0
N305 N 0.64971 0.26953 0.26609 0.0
C306 C 0.66659 0.23909 0.28631 0.0
C307 C 0.73172 0.26646 0.29473 0.0
C308 C 0.77858 0.3251 0.28259 0.0
C309 C 0.76006 0.35542 0.26175 0.0
C310 C 0.69488 0.3248 0.25347 0.0
H311 H 0.63075 0.19391 0.29562 0.0
O312 O 0.48381 0.23174 0.32067 0.0
O313 O 0.52922 0.26461 0.27802 0.0
O314 O 0.43931 0.12211 0.28325 0.0
O315 O 0.53548 0.15318 0.26254 0.0
C316 C 0.80338 0.4156 0.24942 0.0
C317 C 0.78049 0.44509 0.22986 0.0
H318 H 0.71765 0.48951 0.19512 0.0
H319 H 0.59911 0.4315 0.18605 0.0
H320 H 0.74592 0.24224 0.31043 0.0
H321 H 0.82854 0.34656 0.28956 0.0
H322 H 0.85414 0.44031 0.25533 0.0
H323 H 0.81402 0.49205 0.22104 0.0
Mn324 Mn 0.25731 0.43144 0.62712 0.0
Mn325 Mn 0.31873 0.5618 0.58328 0.0
C326 C 0.29353 0.53311 0.64653 0.0
C327 C 0.16195 0.34703 0.64751 0.0
C328 C 0.39918 0.50402 0.6057 0.0
O329 O 0.23096 0.38985 0.58717 0.0
O330 O 0.27218 0.48068 0.56094 0.0
C331 C 0.19076 0.5428 0.56558 0.0
N332 N 0.25013 0.58054 0.57776 0.0
C333 C 0.22571 0.66514 0.58719 0.0
C334 C 0.16467 0.62743 0.57442 0.0
C335 C 0.14697 0.5658 0.56374 0.0
C336 C 0.26697 0.63921 0.58879 0.0
H337 H 0.17692 0.49554 0.55728 0.0
C338 C 0.2415 0.41934 0.56323 0.0
O339 O 0.21452 0.34329 0.64626 0.0
O340 O 0.16486 0.39816 0.63677 0.0
N341 N 0.36513 0.64568 0.60045 0.0
C342 C 0.43033 0.68161 0.60453 0.0
C343 C 0.45835 0.74714 0.61203 0.0
C344 C 0.41918 0.77525 0.61508 0.0
C345 C 0.35305 0.73877 0.60858 0.0
C346 C 0.32831 0.67424 0.60029 0.0
H347 H 0.46087 0.66052 0.60177 0.0
O348 O 0.28395 0.48531 0.6629 0.0
O349 O 0.27829 0.51928 0.61948 0.0
O350 O 0.35373 0.45724 0.62009 0.0
O351 O 0.39066 0.54424 0.59049 0.0
C352 C 0.31177 0.76516 0.60812 0.0
C353 C 0.24786 0.7281 0.59768 0.0
H354 H 0.13123 0.64553 0.57245 0.0
H355 H 0.09984 0.53628 0.55394 0.0
H356 H 0.51 0.77579 0.61565 0.0
H357 H 0.44088 0.82562 0.62117 0.0
H358 H 0.32929 0.81457 0.61488 0.0
H359 H 0.21688 0.74926 0.59692 0.0
Mn360 Mn 0.83614 0.24718 0.95816 0.0
Mn361 Mn 0.77156 0.30838 0.91121 0.0
C362 C 0.76648 0.28141 0.97439 0.0
C363 C 0.82223 0.15179 0.98019 0.0
C364 C 0.90705 0.38858 0.93652 0.0
O365 O 0.85748 0.2224 0.91927 0.0
O366 O 0.80878 0.26207 0.89085 0.0
C367 C 0.6645 0.18037 0.89305 0.0
N368 N 0.68497 0.24038 0.90408 0.0
C369 C 0.57529 0.21638 0.91126 0.0
C370 C 0.55307 0.15446 0.89984 0.0
C371 C 0.59791 0.13637 0.89072 0.0
C372 C 0.64221 0.25785 0.91335 0.0
H373 H 0.69872 0.16602 0.88626 0.0
C374 C 0.84045 0.23255 0.89464 0.0
O375 O 0.87876 0.20393 0.97988 0.0
O376 O 0.77599 0.15495 0.96725 0.0
N377 N 0.73262 0.35495 0.92675 0.0
C378 C 0.76199 0.41908 0.93331 0.0
C379 C 0.72404 0.44672 0.94082 0.0
C380 C 0.65627 0.40859 0.94069 0.0
C381 C 0.62707 0.34359 0.93233 0.0
C382 C 0.66746 0.31908 0.92465 0.0
H383 H 0.81401 0.44887 0.93296 0.0
O384 O 0.80306 0.27261 0.99236 0.0
O385 O 0.76987 0.26738 0.9477 0.0
O386 O 0.90704 0.3435 0.95193 0.0
O387 O 0.8598 0.37951 0.92 0.0
C388 C 0.55954 0.30258 0.93068 0.0
C389 C 0.53364 0.23875 0.92045 0.0
H390 H 0.50175 0.12049 0.89791 0.0
H391 H 0.58117 0.08861 0.88195 0.0
H392 H 0.74695 0.49724 0.94667 0.0
H393 H 0.62714 0.42993 0.94666 0.0
H394 H 0.52708 0.31984 0.93696 0.0
H395 H 0.48165 0.20769 0.91922 0.0
Mn396 Mn 0.58662 0.81523 0.29279 0.0
Mn397 Mn 0.44952 0.74615 0.25287 0.0
C398 C 0.4881 0.75394 0.31553 0.0
C399 C 0.67069 0.79809 0.30994 0.0
C400 C 0.51725 0.88721 0.27185 0.0
O401 O 0.62066 0.82793 0.25155 0.0
O402 O 0.52568 0.76882 0.22856 0.0
C403 C 0.45413 0.62689 0.2406 0.0
N404 N 0.42133 0.65602 0.25055 0.0
C405 C 0.32966 0.55361 0.2632 0.0
C406 C 0.36218 0.52245 0.25281 0.0
C407 C 0.42481 0.5593 0.24158 0.0
C408 C 0.36181 0.62115 0.26209 0.0
H409 H 0.50247 0.65506 0.2322 0.0
C410 C 0.58732 0.80153 0.22896 0.0
O411 O 0.678 0.85589 0.30957 0.0
O412 O 0.61655 0.75249 0.30014 0.0
N413 N 0.36945 0.72024 0.27202 0.0
C414 C 0.34219 0.75731 0.27812 0.0
C415 C 0.27813 0.7278 0.28799 0.0
C416 C 0.24191 0.66031 0.29053 0.0
C417 C 0.26969 0.62289 0.28259 0.0
C418 C 0.33355 0.65503 0.27264 0.0
H419 H 0.36915 0.80907 0.27563 0.0
O420 O 0.53955 0.79159 0.33024 0.0
O421 O 0.49675 0.75106 0.28807 0.0
O422 O 0.56308 0.8875 0.28695 0.0
O423 O 0.47633 0.83855 0.25687 0.0
C424 C 0.23629 0.55493 0.28386 0.0
C425 C 0.26658 0.52034 0.27451 0.0
H426 H 0.33956 0.47031 0.25338 0.0
H427 H 0.45041 0.53565 0.23369 0.0
H428 H 0.25664 0.75698 0.2935 0.0
H429 H 0.19264 0.63772 0.29828 0.0
H430 H 0.18727 0.5288 0.29194 0.0
H431 H 0.24053 0.4681 0.27569 0.0
C432 C 0.33516 0.01366 0.97261 0.0
C433 C 0.2705 0.96691 0.97859 0.0
C434 C 0.36467 0.07513 0.98515 0.0
C435 C 0.33112 0.09378 0.00409 0.0
H436 H 0.36461 1.00222 0.9588 0.0
H437 H 0.41537 0.10785 0.98068 0.0
S438 S 0.15976 0.99266 0.02565 0.0
N439 N 0.1725 0.94547 0.0038 0.0
N440 N 0.22857 0.0621 0.02727 0.0
C441 C 0.26555 0.04933 0.00929 0.0
C442 C 0.23515 0.98574 0.99658 0.0
C443 C 0.23141 0.26856 0.33562 0.0
C444 C 0.26905 0.32712 0.35075 0.0
C445 C 0.26074 0.23861 0.32015 0.0
C446 C 0.32867 0.26724 0.31868 0.0
H447 H 0.17918 0.24599 0.33557 0.0
H448 H 0.23027 0.19397 0.30867 0.0
S449 S 0.44921 0.41834 0.35519 0.0
N450 N 0.37867 0.41009 0.36397 0.0
N451 N 0.43211 0.3557 0.33458 0.0
C452 C 0.36631 0.32495 0.33399 0.0
C453 C 0.33702 0.35437 0.35006 0.0
C454 C 0.9862 0.22401 0.66151 0.0
C455 C 0.97734 0.24193 0.68932 0.0
C456 C 0.04807 0.25385 0.64867 0.0
C457 C 0.10315 0.30114 0.66352 0.0
H458 H 0.94458 0.19093 0.64872 0.0
H459 H 0.05212 0.24304 0.62634 0.0
S460 S 0.10671 0.36029 0.73772 0.0
N461 N 0.02984 0.30663 0.73193 0.0
N462 N 0.14519 0.36113 0.70805 0.0
C463 C 0.09536 0.31581 0.69198 0.0
C464 C 0.03273 0.28647 0.70484 0.0
C465 C 0.73277 0.02131 0.03475 0.0
C466 C 0.73627 0.96818 0.02366 0.0
C467 C 0.76669 0.08263 0.02209 0.0
C468 C 0.80597 0.0939 0.99784 0.0
H469 H 0.70063 0.01474 0.05247 0.0
H470 H 0.75865 0.12061 0.0302 0.0
S471 S 0.836 0.97327 0.9615 0.0
N472 N 0.78612 0.93244 0.98801 0.0
N473 N 0.84943 0.04802 0.96403 0.0
C474 C 0.81331 0.04258 0.98752 0.0
C475 C 0.77879 0.97972 1.00055 0.0
C476 C 0.74279 0.79908 0.35028 0.0
C477 C 0.71827 0.7811 0.32199 0.0
C478 C 0.77236 0.76813 0.3647 0.0
C479 C 0.77957 0.71943 0.35102 0.0
H480 H 0.7347 0.83353 0.36206 0.0
H481 H 0.78675 0.78011 0.38706 0.0
S482 S 0.72752 0.65793 0.27669 0.0
N483 N 0.70619 0.71349 0.28064 0.0
N484 N 0.76267 0.65714 0.30737 0.0
C485 C 0.75862 0.70392 0.32232 0.0
C486 C 0.72788 0.7344 0.30789 0.0
C487 C 1.00339 0.76327 0.66429 0.0
C488 C 0.97984 0.7039 0.64951 0.0
C489 C 0.0675 0.79706 0.67547 0.0
C490 C 0.11001 0.77245 0.67227 0.0
H491 H 0.97152 0.78258 0.66813 0.0
H492 H 0.08259 0.84064 0.68794 0.0
S493 S 0.07487 0.62213 0.63395 0.0
N494 N 1.00744 0.62502 0.63104 0.0
N495 N 0.1254 0.68768 0.65199 0.0
C496 C 0.08794 0.71503 0.65652 0.0
C497 C 0.02367 0.68104 0.64517 0.0
C498 C 0.71649 0.34463 0.9922 0.0
C499 C 0.71131 0.28509 0.98549 0.0
C500 C 0.66293 0.34761 0.00255 0.0
C501 C 0.60616 0.29114 0.01005 0.0
H502 H 0.76168 0.38898 0.98894 0.0
H503 H 0.6663 0.39413 0.00513 0.0
S504 S 0.57052 0.12311 0.9986 0.0
N505 N 0.64491 0.16835 0.98649 0.0
N506 N 0.54749 0.17389 0.01017 0.0
C507 C 0.60126 0.23123 0.00436 0.0
C508 C 0.65368 0.22822 0.9916 0.0
C509 C 0.32371 0.64899 0.34808 0.0
C510 C 0.3296 0.59746 0.35889 0.0
C511 C 0.37718 0.70284 0.33616 0.0
C512 C 0.43418 0.7016 0.33076 0.0
H513 H 0.27778 0.6477 0.34892 0.0
H514 H 0.37341 0.74466 0.33051 0.0
S515 S 0.47515 0.5799 0.35674 0.0
N516 N 0.39945 0.5519 0.36683 0.0
N517 N 0.49651 0.64823 0.33967 0.0
C518 C 0.44104 0.65084 0.34186 0.0
C519 C 0.38888 0.59908 0.35647 0.0
C520 C 0.71145 0.32048 0.67368 0.0
C521 C 0.77062 0.32963 0.68418 0.0
C522 C 0.70646 0.37287 0.66313 0.0
C523 C 0.76156 0.43329 0.65909 0.0
H524 H 0.66845 0.27335 0.67479 0.0
H525 H 0.65922 0.36623 0.65865 0.0
S526 S 0.92831 0.48122 0.68293 0.0
N527 N 0.88506 0.40411 0.69158 0.0
N528 N 0.87723 0.50012 0.66761 0.0
C529 C 0.82134 0.44254 0.66909 0.0
C530 C 0.82566 0.39081 0.68203 0.0
C531 C 0.34688 0.70296 0.98237 0.0
C532 C 0.341 0.7581 0.97931 0.0
C533 C 0.40267 0.70643 0.99429 0.0
C534 C 0.44969 0.7633 0.00753 0.0
H535 H 0.30705 0.65637 0.97699 0.0
H536 H 0.40698 0.66341 0.99485 0.0
S537 S 0.45401 0.92033 0.00916 0.0
N538 N 0.38731 0.87195 0.99099 0.0
N539 N 0.48701 0.87603 0.01794 0.0
C540 C 0.44343 0.8185 0.00599 0.0
C541 C 0.38959 0.81622 0.99142 0.0
C542 C 0.64328 0.37068 0.30727 0.0
C543 C 0.58828 0.32513 0.32178 0.0
C544 C 0.6951 0.42184 0.32159 0.0
C545 C 0.69 0.43505 0.35063 0.0
H546 H 0.64399 0.36993 0.28446 0.0
H547 H 0.73789 0.45345 0.30929 0.0
S548 S 0.53836 0.35776 0.39273 0.0
N549 N 0.52288 0.31017 0.36452 0.0
N550 N 0.61384 0.41642 0.38892 0.0
C551 C 0.62975 0.39838 0.36391 0.0
C552 C 0.57994 0.34152 0.35018 0.0
C553 C 0.24765 0.59784 0.66553 0.0
C554 C 0.3024 0.59233 0.65999 0.0
C555 C 0.25339 0.65203 0.67973 0.0
C556 C 0.31423 0.70336 0.68795 0.0
H557 H 0.20003 0.55977 0.65902 0.0
H558 H 0.21 0.65473 0.68355 0.0
S559 S 0.47217 0.71172 0.67751 0.0
N560 N 0.41834 0.63906 0.6658 0.0
N561 N 0.43064 0.74702 0.68737 0.0
C562 C 0.36949 0.69891 0.68189 0.0
C563 C 0.36306 0.64142 0.66938 0.0
C564 C 0.40503 0.15583 0.14268 0.0
C565 C 0.40436 0.21075 0.13228 0.0
C566 C 0.40491 0.1449 0.17239 0.0
C567 C 0.40259 0.1878 0.1924 0.0
H568 H 0.41367 0.12564 0.12803 0.0
H569 H 0.41331 0.10658 0.17973 0.0
S570 S 0.38922 0.3323 0.17577 0.0
N571 N 0.39342 0.30378 0.14388 0.0
N572 N 0.39039 0.28177 0.1998 0.0
C573 C 0.39324 0.23787 0.18214 0.0
C574 C 0.3948 0.24976 0.15192 0.0
C575 C 0.14408 0.37989 0.49649 0.0
C576 C 0.18874 0.3825 0.47611 0.0
C577 C 0.1559 0.3795 0.52616 0.0
C578 C 0.21361 0.38367 0.53623 0.0
H579 H 0.10394 0.38599 0.4896 0.0
H580 H 0.12396 0.38457 0.54113 0.0
S581 S 0.33918 0.37854 0.4916 0.0
N582 N 0.28614 0.37669 0.46795 0.0
N583 N 0.31036 0.38005 0.52375 0.0
C584 C 0.25415 0.3778 0.51614 0.0
C585 C 0.2411 0.37614 0.48596 0.0
C586 C 0.8073 0.15476 0.85479 0.0
C587 C 0.85677 0.21052 0.86813 0.0
C588 C 0.8022 0.14992 0.82461 0.0
C589 C 0.84676 0.20052 0.80715 0.0
H590 H 0.76757 0.11901 0.86752 0.0
H591 H 0.75873 0.11063 0.81512 0.0
S592 S 0.99259 0.34943 0.83172 0.0
N593 N 0.95688 0.31164 0.86181 0.0
N594 N 0.94789 0.30197 0.80508 0.0
C595 C 0.90146 0.25162 0.82023 0.0
C596 C 0.90644 0.25671 0.85088 0.0
C597 C 0.61399 0.75088 0.15703 0.0
C598 C 0.62272 0.80299 0.13978 0.0
C599 C 0.61218 0.75417 0.18716 0.0
C600 C 0.6188 0.80957 0.2009 0.0
H601 H 0.6018 0.70508 0.14712 0.0
H602 H 0.59879 0.71084 0.19953 0.0
S603 S 0.6506 0.9615 0.1655 0.0
N604 N 0.64526 0.91382 0.13855 0.0
N605 N 0.64126 0.91983 0.19533 0.0
C606 C 0.63432 0.86422 0.18407 0.0
C607 C 0.63642 0.86095 0.15336 0.0
C608 C 0.88703 0.61348 0.52295 0.0
C609 C 0.84018 0.62598 0.53468 0.0
C610 C 0.89564 0.61434 0.49309 0.0
C611 C 0.85791 0.62818 0.47417 0.0
H612 H 0.91171 0.59565 0.53663 0.0
H613 H 0.92655 0.59699 0.48467 0.0
S614 S 0.73721 0.67535 0.49474 0.0
N615 N 0.76227 0.66117 0.52575 0.0
N616 N 0.77944 0.66443 0.46946 0.0
C617 C 0.81753 0.64951 0.4859 0.0
C618 C 0.80817 0.64775 0.51633 0.0
C619 C 0.24211 0.87856 0.84919 0.0
C620 C 0.1905 0.82075 0.85976 0.0
C621 C 0.2543 0.88727 0.81948 0.0
C622 C 0.21458 0.83881 0.79972 0.0
H623 H 0.27858 0.91261 0.86395 0.0
H624 H 0.29976 0.92767 0.8124 0.0
S625 S 0.06433 0.68683 0.81633 0.0
N626 N 0.09286 0.72047 0.84816 0.0
N627 N 0.11459 0.73796 0.79223 0.0
C628 C 0.15705 0.78627 0.80978 0.0
C629 C 0.14523 0.77689 0.83998 0.0
C630 C 0.48372 0.53594 0.04183 0.0
C631 C 0.53241 0.58856 0.05736 0.0
C632 C 0.47646 0.47372 0.04379 0.0
C633 C 0.51659 0.46119 0.06198 0.0
H634 H 0.45064 0.54286 0.02819 0.0
H635 H 0.43881 0.43518 0.03106 0.0
S636 S 0.64832 0.58325 0.10909 0.0
N637 N 0.61963 0.62448 0.0921 0.0
N638 N 0.60544 0.50844 0.09708 0.0
C639 C 0.56488 0.51401 0.07806 0.0
C640 C 0.57291 0.57733 0.07543 0.0
C641 C 1.01141 0.5667 0.40253 0.0
C642 C 0.95878 0.52507 0.38514 0.0
C643 C 0.06337 0.55581 0.40724 0.0
C644 C 0.0659 0.50326 0.3944 0.0
H645 H 1.01048 0.60557 0.41417 0.0
H646 H 0.10114 0.58848 0.42183 0.0
S647 S 0.94088 0.38261 0.34507 0.0
N648 N 0.91253 0.43074 0.35401 0.0
N649 N 1.01117 0.41124 0.36193 0.0
C650 C 1.01444 0.46278 0.37588 0.0
C651 C 0.96085 0.47347 0.37149 0.0
C652 C 0.57044 0.04566 0.71064 0.0
C653 C 0.60461 0.07304 0.73648 0.0
C654 C 0.50543 0.9951 0.71096 0.0
C655 C 0.47268 0.96958 0.73714 0.0
H656 H 0.59358 0.06442 0.69007 0.0
H657 H 0.48124 0.97473 0.69063 0.0
S658 S 0.54077 0.0242 0.81064 0.0
N659 N 0.60047 0.07104 0.78884 0.0
N660 N 0.4798 0.9757 0.78946 0.0
C661 C 0.50664 0.99648 0.76302 0.0
C662 C 0.57209 0.04824 0.76269 0.0
C663 C 0.57366 0.55828 0.58472 0.0
C664 C 0.59946 0.54488 0.60939 0.0
C665 C 0.50916 0.54496 0.58385 0.0
C666 C 0.46681 0.51541 0.60723 0.0
H667 H 0.60322 0.57782 0.56565 0.0
H668 H 0.49187 0.55648 0.56432 0.0
S669 S 0.51075 0.4694 0.67675 0.0
N670 N 0.57811 0.50058 0.65778 0.0
N671 N 0.45655 0.47406 0.65605 0.0
C672 C 0.49224 0.50184 0.63209 0.0
C673 C 0.55851 0.51692 0.63318 0.0
C674 C 1.0159 0.56776 0.91947 0.0
C675 C 0.0661 0.5884 0.93979 0.0
C676 C 0.96517 0.50346 0.91879 0.0
C677 C 0.96285 0.45642 0.93813 0.0
H678 H 1.01706 0.60107 0.90327 0.0
H679 H 0.92814 0.49046 0.9024 0.0
S680 S 0.08444 0.48721 0.9955 0.0
N681 N 0.11144 0.55799 0.9797 0.0
N682 N 1.0164 0.43698 0.97863 0.0
C683 C 1.01291 0.47709 0.95883 0.0
C684 C 0.06438 0.54295 0.95957 0.0
C685 C 0.53479 0.99013 0.29536 0.0
C686 C 0.50607 0.94351 0.27332 0.0
C687 C 0.52243 0.04173 0.29776 0.0
C688 C 0.4799 0.04813 0.27863 0.0
H689 H 0.5677 0.98732 0.31071 0.0
H690 H 0.54843 0.07846 0.31399 0.0
S691 S 0.3934 0.94153 0.21674 0.0
N692 N 0.43349 0.9089 0.23153 0.0
N693 N 0.41032 1.00524 0.23673 0.0
C694 C 0.44996 1.00167 0.25694 0.0
C695 C 0.46298 0.94961 0.25412 0.0
loop_
_geom_bond_atom_site_label_1
_geom_bond_atom_site_label_2
_geom_bond_distance
_geom_bond_site_symmetry_2
_ccdc_geom_bond_type
Mn0 O5 2.095 . S
Mn0 O15 2.162 . S
Mn0 O16 2.297 . S
Mn0 O24 2.404 . S
Mn0 O25 2.209 . S
Mn0 O26 2.094 . S
Mn1 O6 2.121 . S
Mn1 N8 2.257 . S
Mn1 N17 2.282 . S
Mn1 O25 2.215 . S
Mn1 O27 2.117 . S
C2 O24 1.251 . S
C2 O25 1.283 . S
C3 O15 1.281 . S
C3 O16 1.236 . S
C4 O26 1.240 . S
C4 O27 1.264 . S
O5 Mn0 2.095 . S
O5 C14 1.250 . S
O6 Mn1 2.121 . S
O6 C14 1.258 . S
C7 N8 1.326 . S
C7 C11 1.460 . S
C7 H13 0.929 . S
N8 Mn1 2.257 . S
N8 C7 1.326 . S
N8 C12 1.362 . S
C9 C10 1.258 . S
C9 C12 1.431 . S
C9 C29 1.449 . S
C10 C9 1.258 . S
C10 C11 1.477 . S
C10 H30 0.931 . S
C11 C7 1.460 . S
C11 C10 1.477 . S
C11 H31 0.930 . S
C12 N8 1.362 . S
C12 C9 1.431 . S
C12 C22 1.476 . S
H13 C7 0.929 . S
C14 O5 1.250 . S
C14 O6 1.258 . S
O15 Mn0 2.162 . S
O15 C3 1.281 . S
O16 Mn0 2.297 . S
O16 C3 1.236 . S
N17 Mn1 2.282 . S
N17 C18 1.328 . S
N17 C22 1.318 . S
C18 N17 1.328 . S
C18 C19 1.457 . S
C18 H23 0.929 . S
C19 C18 1.457 . S
C19 C20 1.291 . S
C19 H32 0.931 1_554 S
C20 C19 1.291 . S
C20 C21 1.373 . S
C20 H33 0.929 1_554 S
C21 C20 1.373 . S
C21 C22 1.396 . S
C21 C28 1.403 . S
C22 C12 1.476 . S
C22 N17 1.318 . S
C22 C21 1.396 . S
H23 C18 0.929 . S
O24 Mn0 2.404 . S
O24 C2 1.251 . S
O25 Mn0 2.209 . S
O25 Mn1 2.215 . S
O25 C2 1.283 . S
O26 Mn0 2.094 . S
O26 C4 1.240 . S
O27 Mn1 2.117 . S
O27 C4 1.264 . S
C28 C21 1.403 . S
C28 C29 1.399 . S
C28 H34 0.929 . S
C29 C9 1.449 . S
C29 C28 1.399 . S
C29 H35 0.930 . S
H30 C10 0.931 . S
H31 C11 0.930 . S
H32 C19 0.931 1_556 S
H33 C20 0.929 1_556 S
H34 C28 0.929 . S
H35 C29 0.930 . S
Mn36 O41 2.095 . S
Mn36 O51 2.162 . S
Mn36 O52 2.297 . S
Mn36 O60 2.385 . S
Mn36 O61 2.209 . S
Mn36 O62 2.094 . S
Mn37 O42 2.121 . S
Mn37 N44 2.257 . S
Mn37 N53 2.282 . S
Mn37 O61 2.215 . S
Mn37 O63 2.117 . S
C38 O60 1.234 . S
C38 O61 1.283 . S
C39 O51 1.281 . S
C39 O52 1.236 . S
C40 O62 1.240 . S
C40 O63 1.264 . S
O41 Mn36 2.095 . S
O41 C50 1.250 . S
O42 Mn37 2.121 . S
O42 C50 1.258 . S
C43 N44 1.326 . S
C43 C47 1.460 . S
C43 H49 0.929 . S
N44 Mn37 2.257 . S
N44 C43 1.326 . S
N44 C48 1.362 . S
C45 C46 1.258 . S
C45 C48 1.431 . S
C45 C65 1.449 . S
C46 C45 1.258 . S
C46 C47 1.477 . S
C46 H66 0.931 . S
C47 C43 1.460 . S
C47 C46 1.477 . S
C47 H67 0.930 . S
C48 N44 1.362 . S
C48 C45 1.431 . S
C48 C58 1.476 . S
H49 C43 0.929 . S
C50 O41 1.250 . S
C50 O42 1.258 . S
O51 Mn36 2.162 . S
O51 C39 1.281 . S
O52 Mn36 2.297 . S
O52 C39 1.236 . S
N53 Mn37 2.282 . S
N53 C54 1.328 . S
N53 C58 1.318 . S
C54 N53 1.328 . S
C54 C55 1.457 . S
C54 H59 0.929 . S
C55 C54 1.457 . S
C55 C56 1.291 . S
C55 H68 0.931 . S
C56 C55 1.291 . S
C56 C57 1.373 . S
C56 H69 0.929 . S
C57 C56 1.373 . S
C57 C58 1.396 . S
C57 C64 1.403 . S
C58 C48 1.476 . S
C58 N53 1.318 . S
C58 C57 1.396 . S
H59 C54 0.929 . S
O60 Mn36 2.385 . S
O60 C38 1.234 . S
O61 Mn36 2.209 . S
O61 Mn37 2.215 . S
O61 C38 1.283 . S
O62 Mn36 2.094 . S
O62 C40 1.240 . S
O63 Mn37 2.117 . S
O63 C40 1.264 . S
C64 C57 1.403 . S
C64 C65 1.399 . S
C64 H70 0.929 . S
C65 C45 1.449 . S
C65 C64 1.399 . S
C65 H71 0.930 . S
H66 C46 0.931 . S
H67 C47 0.930 . S
H68 C55 0.931 . S
H69 C56 0.929 . S
H70 C64 0.929 . S
H71 C65 0.930 . S
Mn72 O77 2.095 . S
Mn72 O87 2.162 . S
Mn72 O88 2.297 . S
Mn72 O96 2.385 . S
Mn72 O97 2.209 . S
Mn72 O98 2.094 . S
Mn73 O78 2.121 . S
Mn73 N80 2.257 . S
Mn73 N89 2.282 . S
Mn73 O97 2.215 . S
Mn73 O99 2.117 . S
C74 O96 1.234 . S
C74 O97 1.283 . S
C75 O87 1.281 . S
C75 O88 1.236 . S
C76 O98 1.240 . S
C76 O99 1.264 . S
O77 Mn72 2.095 . S
O77 C86 1.250 . S
O78 Mn73 2.121 . S
O78 C86 1.258 . S
C79 N80 1.326 . S
C79 C83 1.460 . S
C79 H85 0.929 . S
N80 Mn73 2.257 . S
N80 C79 1.326 . S
N80 C84 1.362 . S
C81 C82 1.258 . S
C81 C84 1.431 . S
C81 C101 1.449 . S
C82 C81 1.258 . S
C82 C83 1.477 . S
C82 H102 0.931 . S
C83 C79 1.460 . S
C83 C82 1.477 . S
C83 H103 0.930 . S
C84 N80 1.362 . S
C84 C81 1.431 . S
C84 C94 1.476 . S
H85 C79 0.929 . S
C86 O77 1.250 . S
C86 O78 1.258 . S
O87 Mn72 2.162 . S
O87 C75 1.281 . S
O88 Mn72 2.297 . S
O88 C75 1.236 . S
N89 Mn73 2.282 . S
N89 C90 1.328 . S
N89 C94 1.318 . S
C90 N89 1.328 . S
C90 C91 1.457 . S
C90 H95 0.929 . S
C91 C90 1.457 . S
C91 C92 1.291 . S
C91 H104 0.931 . S
C92 C91 1.291 . S
C92 C93 1.373 . S
C92 H105 0.929 . S
C93 C92 1.373 . S
C93 C94 1.396 . S
C93 C100 1.403 . S
C94 C84 1.476 . S
C94 N89 1.318 . S
C94 C93 1.396 . S
H95 C90 0.929 . S
O96 Mn72 2.385 . S
O96 C74 1.234 . S
O97 Mn72 2.209 . S
O97 Mn73 2.215 . S
O97 C74 1.283 . S
O98 Mn72 2.094 . S
O98 C76 1.240 . S
O99 Mn73 2.117 . S
O99 C76 1.264 . S
C100 C93 1.403 . S
C100 C101 1.399 . S
C100 H106 0.929 . S
C101 C81 1.449 . S
C101 C100 1.399 . S
C101 H107 0.930 . S
H102 C82 0.931 . S
H103 C83 0.930 . S
H104 C91 0.931 . S
H105 C92 0.929 . S
H106 C100 0.929 . S
H107 C101 0.930 . S
Mn108 O113 2.095 . S
Mn108 O123 2.162 . S
Mn108 O124 2.297 . S
Mn108 O132 2.404 . S
Mn108 O133 2.209 . S
Mn108 O134 2.094 . S
Mn109 O114 2.121 . S
Mn109 N116 2.257 . S
Mn109 N125 2.282 . S
Mn109 O133 2.215 . S
Mn109 O135 2.117 . S
C110 O132 1.251 . S
C110 O133 1.283 . S
C111 O123 1.281 . S
C111 O124 1.236 . S
C112 O134 1.240 . S
C112 O135 1.264 . S
O113 Mn108 2.095 . S
O113 C122 1.250 . S
O114 Mn109 2.121 . S
O114 C122 1.258 . S
C115 N116 1.326 . S
C115 C119 1.460 . S
C115 H121 0.929 . S
N116 Mn109 2.257 . S
N116 C115 1.326 . S
N116 C120 1.362 . S
C117 C118 1.258 . S
C117 C120 1.431 . S
C117 C137 1.449 . S
C118 C117 1.258 . S
C118 C119 1.477 . S
C118 H138 0.931 . S
C119 C115 1.460 . S
C119 C118 1.477 . S
C119 H139 0.930 . S
C120 N116 1.362 . S
C120 C117 1.431 . S
C120 C130 1.476 . S
H121 C115 0.929 . S
C122 O113 1.250 . S
C122 O114 1.258 . S
O123 Mn108 2.162 . S
O123 C111 1.281 . S
O124 Mn108 2.297 . S
O124 C111 1.236 . S
N125 Mn109 2.282 . S
N125 C126 1.328 . S
N125 C130 1.318 . S
C126 N125 1.328 . S
C126 C127 1.457 . S
C126 H131 0.929 . S
C127 C126 1.457 . S
C127 C128 1.291 . S
C127 H140 0.931 1_554 S
C128 C127 1.291 . S
C128 C129 1.373 . S
C128 H141 0.929 1_554 S
C129 C128 1.373 . S
C129 C130 1.396 . S
C129 C136 1.403 . S
C130 C120 1.476 . S
C130 N125 1.318 . S
C130 C129 1.396 . S
H131 C126 0.929 . S
O132 Mn108 2.404 . S
O132 C110 1.251 . S
O133 Mn108 2.209 . S
O133 Mn109 2.215 . S
O133 C110 1.283 . S
O134 Mn108 2.094 . S
O134 C112 1.240 . S
O135 Mn109 2.117 . S
O135 C112 1.264 . S
C136 C129 1.403 . S
C136 C137 1.399 . S
C136 H142 0.929 . S
C137 C117 1.449 . S
C137 C136 1.399 . S
C137 H143 0.930 . S
H138 C118 0.931 . S
H139 C119 0.930 . S
H140 C127 0.931 1_556 S
H141 C128 0.929 1_556 S
H142 C136 0.929 . S
H143 C137 0.930 . S
Mn144 O149 2.095 . S
Mn144 O159 2.162 . S
Mn144 O160 2.297 . S
Mn144 O168 2.385 . S
Mn144 O169 2.209 . S
Mn144 O170 2.094 . S
Mn145 O150 2.121 . S
Mn145 N152 2.257 . S
Mn145 N161 2.282 . S
Mn145 O169 2.215 . S
Mn145 O171 2.117 . S
C146 O168 1.234 . S
C146 O169 1.283 . S
C147 O159 1.281 . S
C147 O160 1.236 . S
C148 O170 1.240 . S
C148 O171 1.264 . S
O149 Mn144 2.095 . S
O149 C158 1.250 . S
O150 Mn145 2.121 . S
O150 C158 1.258 . S
C151 N152 1.326 . S
C151 C155 1.460 . S
C151 H157 0.929 . S
N152 Mn145 2.257 . S
N152 C151 1.326 . S
N152 C156 1.362 . S
C153 C154 1.258 . S
C153 C156 1.431 . S
C153 C173 1.449 . S
C154 C153 1.258 . S
C154 C155 1.477 . S
C154 H174 0.931 . S
C155 C151 1.460 . S
C155 C154 1.477 . S
C155 H175 0.930 . S
C156 N152 1.362 . S
C156 C153 1.431 . S
C156 C166 1.476 . S
H157 C151 0.929 . S
C158 O149 1.250 . S
C158 O150 1.258 . S
O159 Mn144 2.162 . S
O159 C147 1.281 . S
O160 Mn144 2.297 . S
O160 C147 1.236 . S
N161 Mn145 2.282 . S
N161 C162 1.328 . S
N161 C166 1.318 . S
C162 N161 1.328 . S
C162 C163 1.457 . S
C162 H167 0.929 . S
C163 C162 1.457 . S
C163 C164 1.291 . S
C163 H176 0.931 . S
C164 C163 1.291 . S
C164 C165 1.373 . S
C164 H177 0.929 . S
C165 C164 1.373 . S
C165 C166 1.396 . S
C165 C172 1.403 . S
C166 C156 1.476 . S
C166 N161 1.318 . S
C166 C165 1.396 . S
H167 C162 0.929 . S
O168 Mn144 2.385 . S
O168 C146 1.234 . S
O169 Mn144 2.209 . S
O169 Mn145 2.215 . S
O169 C146 1.283 . S
O170 Mn144 2.094 . S
O170 C148 1.240 . S
O171 Mn145 2.117 . S
O171 C148 1.264 . S
C172 C165 1.403 . S
C172 C173 1.399 . S
C172 H178 0.929 . S
C173 C153 1.449 . S
C173 C172 1.399 . S
C173 H179 0.930 . S
H174 C154 0.931 . S
H175 C155 0.930 . S
H176 C163 0.931 . S
H177 C164 0.929 . S
H178 C172 0.929 . S
H179 C173 0.930 . S
Mn180 O185 2.095 . S
Mn180 O195 2.162 . S
Mn180 O196 2.297 . S
Mn180 O204 2.385 . S
Mn180 O205 2.209 . S
Mn180 O206 2.094 . S
Mn181 O186 2.121 . S
Mn181 N188 2.257 . S
Mn181 N197 2.282 . S
Mn181 O205 2.215 . S
Mn181 O207 2.117 . S
C182 O204 1.234 . S
C182 O205 1.283 . S
C183 O195 1.281 . S
C183 O196 1.236 . S
C184 O206 1.240 . S
C184 O207 1.264 . S
O185 Mn180 2.095 . S
O185 C194 1.250 . S
O186 Mn181 2.121 . S
O186 C194 1.258 . S
C187 N188 1.326 . S
C187 C191 1.460 . S
C187 H193 0.929 . S
N188 Mn181 2.257 . S
N188 C187 1.326 . S
N188 C192 1.362 . S
C189 C190 1.258 . S
C189 C192 1.431 . S
C189 C209 1.449 . S
C190 C189 1.258 . S
C190 C191 1.477 . S
C190 H210 0.931 . S
C191 C187 1.460 . S
C191 C190 1.477 . S
C191 H211 0.930 . S
C192 N188 1.362 . S
C192 C189 1.431 . S
C192 C202 1.476 . S
H193 C187 0.929 . S
C194 O185 1.250 . S
C194 O186 1.258 . S
O195 Mn180 2.162 . S
O195 C183 1.281 . S
O196 Mn180 2.297 . S
O196 C183 1.236 . S
N197 Mn181 2.282 . S
N197 C198 1.328 . S
N197 C202 1.318 . S
C198 N197 1.328 . S
C198 C199 1.457 . S
C198 H203 0.929 . S
C199 C198 1.457 . S
C199 C200 1.291 . S
C199 H212 0.931 . S
C200 C199 1.291 . S
C200 C201 1.373 . S
C200 H213 0.929 . S
C201 C200 1.373 . S
C201 C202 1.396 . S
C201 C208 1.403 . S
C202 C192 1.476 . S
C202 N197 1.318 . S
C202 C201 1.396 . S
H203 C198 0.929 . S
O204 Mn180 2.385 . S
O204 C182 1.234 . S
O205 Mn180 2.209 . S
O205 Mn181 2.215 . S
O205 C182 1.283 . S
O206 Mn180 2.094 . S
O206 C184 1.240 . S
O207 Mn181 2.117 . S
O207 C184 1.264 . S
C208 C201 1.403 . S
C208 C209 1.399 . S
C208 H214 0.929 . S
C209 C189 1.449 . S
C209 C208 1.399 . S
C209 H215 0.930 . S
H210 C190 0.931 . S
H211 C191 0.930 . S
H212 C199 0.931 . S
H213 C200 0.929 . S
H214 C208 0.929 . S
H215 C209 0.930 . S
Mn216 O221 2.095 . S
Mn216 O231 2.162 . S
Mn216 O232 2.297 . S
Mn216 O240 2.385 . S
Mn216 O241 2.209 . S
Mn216 O242 2.094 . S
Mn217 O222 2.121 . S
Mn217 N224 2.257 . S
Mn217 N233 2.282 . S
Mn217 O241 2.215 . S
Mn217 O243 2.117 . S
C218 O240 1.234 . S
C218 O241 1.283 . S
C219 O231 1.281 . S
C219 O232 1.236 . S
C220 O242 1.240 . S
C220 O243 1.264 . S
O221 Mn216 2.095 . S
O221 C230 1.250 . S
O222 Mn217 2.121 . S
O222 C230 1.258 . S
C223 N224 1.326 . S
C223 C227 1.460 . S
C223 H229 0.929 . S
N224 Mn217 2.257 . S
N224 C223 1.326 . S
N224 C228 1.362 . S
C225 C226 1.258 . S
C225 C228 1.431 . S
C225 C245 1.449 . S
C226 C225 1.258 . S
C226 C227 1.477 . S
C226 H246 0.931 . S
C227 C223 1.460 . S
C227 C226 1.477 . S
C227 H247 0.930 . S
C228 N224 1.362 . S
C228 C225 1.431 . S
C228 C238 1.476 . S
H229 C223 0.929 . S
C230 O221 1.250 . S
C230 O222 1.258 . S
O231 Mn216 2.162 . S
O231 C219 1.281 . S
O232 Mn216 2.297 . S
O232 C219 1.236 . S
N233 Mn217 2.282 . S
N233 C234 1.328 . S
N233 C238 1.318 . S
C234 N233 1.328 . S
C234 C235 1.457 . S
C234 H239 0.929 . S
C235 C234 1.457 . S
C235 C236 1.291 . S
C235 H248 0.931 . S
C236 C235 1.291 . S
C236 C237 1.373 . S
C236 H249 0.929 . S
C237 C236 1.373 . S
C237 C238 1.396 . S
C237 C244 1.403 . S
C238 C228 1.476 . S
C238 N233 1.318 . S
C238 C237 1.396 . S
H239 C234 0.929 . S
O240 Mn216 2.385 . S
O240 C218 1.234 . S
O241 Mn216 2.209 . S
O241 Mn217 2.215 . S
O241 C218 1.283 . S
O242 Mn216 2.094 . S
O242 C220 1.240 . S
O243 Mn217 2.117 . S
O243 C220 1.264 . S
C244 C237 1.403 . S
C244 C245 1.399 . S
C244 H250 0.929 . S
C245 C225 1.449 . S
C245 C244 1.399 . S
C245 H251 0.930 . S
H246 C226 0.931 . S
H247 C227 0.930 . S
H248 C235 0.931 . S
H249 C236 0.929 . S
H250 C244 0.929 . S
H251 C245 0.930 . S
Mn252 O257 2.095 . S
Mn252 O267 2.162 . S
Mn252 O268 2.297 . S
Mn252 O276 2.404 . S
Mn252 O277 2.209 . S
Mn252 O278 2.094 . S
Mn253 O258 2.121 . S
Mn253 N260 2.257 . S
Mn253 N269 2.282 . S
Mn253 O277 2.215 . S
Mn253 O279 2.117 . S
C254 O276 1.251 . S
C254 O277 1.283 . S
C255 O267 1.281 . S
C255 O268 1.236 . S
C256 O278 1.240 . S
C256 O279 1.264 . S
O257 Mn252 2.095 . S
O257 C266 1.250 . S
O258 Mn253 2.121 . S
O258 C266 1.258 . S
C259 N260 1.326 . S
C259 C263 1.460 . S
C259 H265 0.929 . S
N260 Mn253 2.257 . S
N260 C259 1.326 . S
N260 C264 1.362 . S
C261 C262 1.258 . S
C261 C264 1.431 . S
C261 C281 1.449 . S
C262 C261 1.258 . S
C262 C263 1.477 . S
C262 H282 0.931 . S
C263 C259 1.460 . S
C263 C262 1.477 . S
C263 H283 0.930 . S
C264 N260 1.362 . S
C264 C261 1.431 . S
C264 C274 1.476 . S
H265 C259 0.929 . S
C266 O257 1.250 . S
C266 O258 1.258 . S
O267 Mn252 2.162 . S
O267 C255 1.281 . S
O268 Mn252 2.297 . S
O268 C255 1.236 . S
N269 Mn253 2.282 . S
N269 C270 1.328 . S
N269 C274 1.318 . S
C270 N269 1.328 . S
C270 C271 1.457 . S
C270 H275 0.929 . S
C271 C270 1.457 . S
C271 C272 1.291 . S
C271 H284 0.931 1_556 S
C272 C271 1.291 . S
C272 C273 1.373 . S
C272 H285 0.929 1_556 S
C273 C272 1.373 . S
C273 C274 1.396 . S
C273 C280 1.403 . S
C274 C264 1.476 . S
C274 N269 1.318 . S
C274 C273 1.396 . S
H275 C270 0.929 . S
O276 Mn252 2.404 . S
O276 C254 1.251 . S
O277 Mn252 2.209 . S
O277 Mn253 2.215 . S
O277 C254 1.283 . S
O278 Mn252 2.094 . S
O278 C256 1.240 . S
O279 Mn253 2.117 . S
O279 C256 1.264 . S
C280 C273 1.403 . S
C280 C281 1.399 . S
C280 H286 0.929 . S
C281 C261 1.449 . S
C281 C280 1.399 . S
C281 H287 0.930 . S
H282 C262 0.931 . S
H283 C263 0.930 . S
H284 C271 0.931 1_554 S
H285 C272 0.929 1_554 S
H286 C280 0.929 . S
H287 C281 0.930 . S
Mn288 O293 2.095 . S
Mn288 O303 2.162 . S
Mn288 O304 2.297 . S
Mn288 O312 2.385 . S
Mn288 O313 2.209 . S
Mn288 O314 2.094 . S
Mn289 O294 2.121 . S
Mn289 N296 2.257 . S
Mn289 N305 2.282 . S
Mn289 O313 2.215 . S
Mn289 O315 2.117 . S
C290 O312 1.234 . S
C290 O313 1.283 . S
C291 O303 1.281 . S
C291 O304 1.236 . S
C292 O314 1.240 . S
C292 O315 1.264 . S
O293 Mn288 2.095 . S
O293 C302 1.250 . S
O294 Mn289 2.121 . S
O294 C302 1.258 . S
C295 N296 1.326 . S
C295 C299 1.460 . S
C295 H301 0.929 . S
N296 Mn289 2.257 . S
N296 C295 1.326 . S
N296 C300 1.362 . S
C297 C298 1.258 . S
C297 C300 1.431 . S
C297 C317 1.449 . S
C298 C297 1.258 . S
C298 C299 1.477 . S
C298 H318 0.931 . S
C299 C295 1.460 . S
C299 C298 1.477 . S
C299 H319 0.930 . S
C300 N296 1.362 . S
C300 C297 1.431 . S
C300 C310 1.476 . S
H301 C295 0.929 . S
C302 O293 1.250 . S
C302 O294 1.258 . S
O303 Mn288 2.162 . S
O303 C291 1.281 . S
O304 Mn288 2.297 . S
O304 C291 1.236 . S
N305 Mn289 2.282 . S
N305 C306 1.328 . S
N305 C310 1.318 . S
C306 N305 1.328 . S
C306 C307 1.457 . S
C306 H311 0.929 . S
C307 C306 1.457 . S
C307 C308 1.291 . S
C307 H320 0.931 . S
C308 C307 1.291 . S
C308 C309 1.373 . S
C308 H321 0.929 . S
C309 C308 1.373 . S
C309 C310 1.396 . S
C309 C316 1.403 . S
C310 C300 1.476 . S
C310 N305 1.318 . S
C310 C309 1.396 . S
H311 C306 0.929 . S
O312 Mn288 2.385 . S
O312 C290 1.234 . S
O313 Mn288 2.209 . S
O313 Mn289 2.215 . S
O313 C290 1.283 . S
O314 Mn288 2.094 . S
O314 C292 1.240 . S
O315 Mn289 2.117 . S
O315 C292 1.264 . S
C316 C309 1.403 . S
C316 C317 1.399 . S
C316 H322 0.929 . S
C317 C297 1.449 . S
C317 C316 1.399 . S
C317 H323 0.930 . S
H318 C298 0.931 . S
H319 C299 0.930 . S
H320 C307 0.931 . S
H321 C308 0.929 . S
H322 C316 0.929 . S
H323 C317 0.930 . S
Mn324 O329 2.095 . S
Mn324 O339 2.162 . S
Mn324 O340 2.297 . S
Mn324 O348 2.385 . S
Mn324 O349 2.209 . S
Mn324 O350 2.094 . S
Mn325 O330 2.121 . S
Mn325 N332 2.257 . S
Mn325 N341 2.282 . S
Mn325 O349 2.215 . S
Mn325 O351 2.117 . S
C326 O348 1.234 . S
C326 O349 1.283 . S
C327 O339 1.281 . S
C327 O340 1.236 . S
C328 O350 1.240 . S
C328 O351 1.264 . S
O329 Mn324 2.095 . S
O329 C338 1.250 . S
O330 Mn325 2.121 . S
O330 C338 1.258 . S
C331 N332 1.326 . S
C331 C335 1.460 . S
C331 H337 0.929 . S
N332 Mn325 2.257 . S
N332 C331 1.326 . S
N332 C336 1.362 . S
C333 C334 1.258 . S
C333 C336 1.431 . S
C333 C353 1.449 . S
C334 C333 1.258 . S
C334 C335 1.477 . S
C334 H354 0.931 . S
C335 C331 1.460 . S
C335 C334 1.477 . S
C335 H355 0.930 . S
C336 N332 1.362 . S
C336 C333 1.431 . S
C336 C346 1.476 . S
H337 C331 0.929 . S
C338 O329 1.250 . S
C338 O330 1.258 . S
O339 Mn324 2.162 . S
O339 C327 1.281 . S
O340 Mn324 2.297 . S
O340 C327 1.236 . S
N341 Mn325 2.282 . S
N341 C342 1.328 . S
N341 C346 1.318 . S
C342 N341 1.328 . S
C342 C343 1.457 . S
C342 H347 0.929 . S
C343 C342 1.457 . S
C343 C344 1.291 . S
C343 H356 0.931 . S
C344 C343 1.291 . S
C344 C345 1.373 . S
C344 H357 0.929 . S
C345 C344 1.373 . S
C345 C346 1.396 . S
C345 C352 1.403 . S
C346 C336 1.476 . S
C346 N341 1.318 . S
C346 C345 1.396 . S
H347 C342 0.929 . S
O348 Mn324 2.385 . S
O348 C326 1.234 . S
O349 Mn324 2.209 . S
O349 Mn325 2.215 . S
O349 C326 1.283 . S
O350 Mn324 2.094 . S
O350 C328 1.240 . S
O351 Mn325 2.117 . S
O351 C328 1.264 . S
C352 C345 1.403 . S
C352 C353 1.399 . S
C352 H358 0.929 . S
C353 C333 1.449 . S
C353 C352 1.399 . S
C353 H359 0.930 . S
H354 C334 0.931 . S
H355 C335 0.930 . S
H356 C343 0.931 . S
H357 C344 0.929 . S
H358 C352 0.929 . S
H359 C353 0.930 . S
Mn360 O365 2.095 . S
Mn360 O375 2.162 . S
Mn360 O376 2.297 . S
Mn360 O384 2.404 . S
Mn360 O385 2.209 . S
Mn360 O386 2.094 . S
Mn361 O366 2.121 . S
Mn361 N368 2.257 . S
Mn361 N377 2.282 . S
Mn361 O385 2.215 . S
Mn361 O387 2.117 . S
C362 O384 1.251 . S
C362 O385 1.283 . S
C363 O375 1.281 . S
C363 O376 1.236 . S
C364 O386 1.240 . S
C364 O387 1.264 . S
O365 Mn360 2.095 . S
O365 C374 1.250 . S
O366 Mn361 2.121 . S
O366 C374 1.258 . S
C367 N368 1.326 . S
C367 C371 1.460 . S
C367 H373 0.929 . S
N368 Mn361 2.257 . S
N368 C367 1.326 . S
N368 C372 1.362 . S
C369 C370 1.258 . S
C369 C372 1.431 . S
C369 C389 1.449 . S
C370 C369 1.258 . S
C370 C371 1.477 . S
C370 H390 0.931 . S
C371 C367 1.460 . S
C371 C370 1.477 . S
C371 H391 0.930 . S
C372 N368 1.362 . S
C372 C369 1.431 . S
C372 C382 1.476 . S
H373 C367 0.929 . S
C374 O365 1.250 . S
C374 O366 1.258 . S
O375 Mn360 2.162 . S
O375 C363 1.281 . S
O376 Mn360 2.297 . S
O376 C363 1.236 . S
N377 Mn361 2.282 . S
N377 C378 1.328 . S
N377 C382 1.318 . S
C378 N377 1.328 . S
C378 C379 1.457 . S
C378 H383 0.929 . S
C379 C378 1.457 . S
C379 C380 1.291 . S
C379 H392 0.931 1_556 S
C380 C379 1.291 . S
C380 C381 1.373 . S
C380 H393 0.929 1_556 S
C381 C380 1.373 . S
C381 C382 1.396 . S
C381 C388 1.403 . S
C382 C372 1.476 . S
C382 N377 1.318 . S
C382 C381 1.396 . S
H383 C378 0.929 . S
O384 Mn360 2.404 . S
O384 C362 1.251 . S
O385 Mn360 2.209 . S
O385 Mn361 2.215 . S
O385 C362 1.283 . S
O386 Mn360 2.094 . S
O386 C364 1.240 . S
O387 Mn361 2.117 . S
O387 C364 1.264 . S
C388 C381 1.403 . S
C388 C389 1.399 . S
C388 H394 0.929 . S
C389 C369 1.449 . S
C389 C388 1.399 . S
C389 H395 0.930 . S
H390 C370 0.931 . S
H391 C371 0.930 . S
H392 C379 0.931 1_554 S
H393 C380 0.929 1_554 S
H394 C388 0.929 . S
H395 C389 0.930 . S
Mn396 O401 2.095 . S
Mn396 O411 2.162 . S
Mn396 O412 2.297 . S
Mn396 O420 2.385 . S
Mn396 O421 2.209 . S
Mn396 O422 2.094 . S
Mn397 O402 2.121 . S
Mn397 N404 2.257 . S
Mn397 N413 2.282 . S
Mn397 O421 2.215 . S
Mn397 O423 2.117 . S
C398 O420 1.234 . S
C398 O421 1.283 . S
C399 O411 1.281 . S
C399 O412 1.236 . S
C400 O422 1.240 . S
C400 O423 1.264 . S
O401 Mn396 2.095 . S
O401 C410 1.250 . S
O402 Mn397 2.121 . S
O402 C410 1.258 . S
C403 N404 1.326 . S
C403 C407 1.460 . S
C403 H409 0.929 . S
N404 Mn397 2.257 . S
N404 C403 1.326 . S
N404 C408 1.362 . S
C405 C406 1.258 . S
C405 C408 1.431 . S
C405 C425 1.449 . S
C406 C405 1.258 . S
C406 C407 1.477 . S
C406 H426 0.931 . S
C407 C403 1.460 . S
C407 C406 1.477 . S
C407 H427 0.930 . S
C408 N404 1.362 . S
C408 C405 1.431 . S
C408 C418 1.476 . S
H409 C403 0.929 . S
C410 O401 1.250 . S
C410 O402 1.258 . S
O411 Mn396 2.162 . S
O411 C399 1.281 . S
O412 Mn396 2.297 . S
O412 C399 1.236 . S
N413 Mn397 2.282 . S
N413 C414 1.328 . S
N413 C418 1.318 . S
C414 N413 1.328 . S
C414 C415 1.457 . S
C414 H419 0.929 . S
C415 C414 1.457 . S
C415 C416 1.291 . S
C415 H428 0.931 . S
C416 C415 1.291 . S
C416 C417 1.373 . S
C416 H429 0.929 . S
C417 C416 1.373 . S
C417 C418 1.396 . S
C417 C424 1.403 . S
C418 C408 1.476 . S
C418 N413 1.318 . S
C418 C417 1.396 . S
H419 C414 0.929 . S
O420 Mn396 2.385 . S
O420 C398 1.234 . S
O421 Mn396 2.209 . S
O421 Mn397 2.215 . S
O421 C398 1.283 . S
O422 Mn396 2.094 . S
O422 C400 1.240 . S
O423 Mn397 2.117 . S
O423 C400 1.264 . S
C424 C417 1.403 . S
C424 C425 1.399 . S
C424 H430 0.929 . S
C425 C405 1.449 . S
C425 C424 1.399 . S
C425 H431 0.930 . S
H426 C406 0.931 . S
H427 C407 0.930 . S
H428 C415 0.931 . S
H429 C416 0.929 . S
H430 C424 0.929 . S
H431 C425 0.930 . S
C432 C433 1.369 . S
C432 C434 1.419 1_565 S
C432 H436 0.930 . S
C433 C432 1.369 . S
C433 C442 1.429 1_556 S
C434 C432 1.419 1_545 S
C434 C435 1.363 1_556 S
C434 H437 0.929 . S
C435 C434 1.363 1_554 S
C435 C441 1.428 . S
H436 C432 0.930 . S
H437 C434 0.929 . S
S438 N439 1.613 . S
S438 N440 1.610 1_565 S
N439 S438 1.613 . S
N439 C442 1.350 . S
N440 S438 1.610 1_545 S
N440 C441 1.351 . S
C441 C435 1.428 . S
C441 N440 1.351 . S
C441 C442 1.434 1_545 S
C442 C433 1.429 1_554 S
C442 N439 1.350 . S
C442 C441 1.434 1_565 S
C443 C444 1.369 . S
C443 C445 1.419 . S
C443 H447 0.930 . S
C444 C443 1.369 . S
C444 C453 1.429 . S
C445 C443 1.419 . S
C445 C446 1.363 . S
C445 H448 0.929 . S
C446 C445 1.363 . S
C446 C452 1.428 . S
H447 C443 0.930 . S
H448 C445 0.929 . S
S449 N450 1.613 . S
S449 N451 1.610 . S
N450 S449 1.613 . S
N450 C453 1.350 . S
N451 S449 1.610 . S
N451 C452 1.351 . S
C452 C446 1.428 . S
C452 N451 1.351 . S
C452 C453 1.434 . S
C453 C444 1.429 . S
C453 N450 1.350 . S
C453 C452 1.434 . S
C454 C455 1.369 . S
C454 C456 1.419 1_655 S
C454 H458 0.930 . S
C455 C454 1.369 . S
C455 C464 1.429 . S
C456 C454 1.419 1_455 S
C456 C457 1.363 . S
C456 H459 0.929 . S
C457 C456 1.363 . S
C457 C463 1.428 . S
H458 C454 0.930 . S
H459 C456 0.929 . S
S460 N461 1.613 1_455 S
S460 N462 1.610 . S
N461 S460 1.613 1_655 S
N461 C464 1.350 . S
N462 S460 1.610 . S
N462 C463 1.351 . S
C463 C457 1.428 . S
C463 N462 1.351 . S
C463 C464 1.434 1_455 S
C464 C455 1.429 . S
C464 N461 1.350 . S
C464 C463 1.434 1_655 S
C465 C466 1.369 1_556 S
C465 C467 1.419 1_565 S
C465 H469 0.930 . S
C466 C465 1.369 1_554 S
C466 C475 1.429 . S
C467 C465 1.419 1_545 S
C467 C468 1.363 . S
C467 H470 0.929 . S
C468 C467 1.363 . S
C468 C474 1.428 1_556 S
H469 C465 0.930 . S
H470 C467 0.929 . S
S471 N472 1.613 1_545 S
S471 N473 1.610 . S
N472 S471 1.613 1_565 S
N472 C475 1.350 . S
N473 S471 1.610 . S
N473 C474 1.351 . S
C474 C468 1.428 1_554 S
C474 N473 1.351 . S
C474 C475 1.434 1_545 S
C475 C466 1.429 . S
C475 N472 1.350 . S
C475 C474 1.434 1_565 S
C476 C477 1.369 . S
C476 C478 1.419 . S
C476 H480 0.930 . S
C477 C476 1.369 . S
C477 C486 1.429 . S
C478 C476 1.419 . S
C478 C479 1.363 . S
C478 H481 0.929 . S
C479 C478 1.363 . S
C479 C485 1.428 . S
H480 C476 0.930 . S
H481 C478 0.929 . S
S482 N483 1.613 . S
S482 N484 1.610 . S
N483 S482 1.613 . S
N483 C486 1.350 . S
N484 S482 1.610 . S
N484 C485 1.351 . S
C485 C479 1.428 . S
C485 N484 1.351 . S
C485 C486 1.434 . S
C486 C477 1.429 . S
C486 N483 1.350 . S
C486 C485 1.434 . S
C487 C488 1.369 . S
C487 C489 1.419 1_655 S
C487 H491 0.930 . S
C488 C487 1.369 . S
C488 C497 1.429 . S
C489 C487 1.419 1_455 S
C489 C490 1.363 . S
C489 H492 0.929 . S
C490 C489 1.363 . S
C490 C496 1.428 . S
H491 C487 0.930 . S
H492 C489 0.929 . S
S493 N494 1.613 . S
S493 N495 1.610 1_655 S
N494 S493 1.613 . S
N494 C497 1.350 . S
N495 S493 1.610 1_455 S
N495 C496 1.351 . S
C496 C490 1.428 . S
C496 N495 1.351 . S
C496 C497 1.434 1_455 S
C497 C488 1.429 . S
C497 N494 1.350 . S
C497 C496 1.434 1_655 S
C498 C499 1.369 . S
C498 C500 1.419 . S
C498 H502 0.930 . S
C499 C498 1.369 . S
C499 C508 1.429 1_556 S
C500 C498 1.419 . S
C500 C501 1.363 1_556 S
C500 H503 0.929 . S
C501 C500 1.363 1_554 S
C501 C507 1.428 . S
H502 C498 0.930 . S
H503 C500 0.929 . S
S504 N505 1.613 . S
S504 N506 1.610 . S
N505 S504 1.613 . S
N505 C508 1.350 . S
N506 S504 1.610 . S
N506 C507 1.351 . S
C507 C501 1.428 . S
C507 N506 1.351 . S
C507 C508 1.434 . S
C508 C499 1.429 1_554 S
C508 N505 1.350 . S
C508 C507 1.434 . S
C509 C510 1.369 . S
C509 C511 1.419 . S
C509 H513 0.930 . S
C510 C509 1.369 . S
C510 C519 1.429 . S
C511 C509 1.419 . S
C511 C512 1.363 . S
C511 H514 0.929 . S
C512 C511 1.363 . S
C512 C518 1.428 . S
H513 C509 0.930 . S
H514 C511 0.929 . S
S515 N516 1.613 . S
S515 N517 1.610 . S
N516 S515 1.613 . S
N516 C519 1.350 . S
N517 S515 1.610 . S
N517 C518 1.351 . S
C518 C512 1.428 . S
C518 N517 1.351 . S
C518 C519 1.434 . S
C519 C510 1.429 . S
C519 N516 1.350 . S
C519 C518 1.434 . S
C520 C521 1.369 . S
C520 C522 1.419 . S
C520 H524 0.930 . S
C521 C520 1.369 . S
C521 C530 1.429 . S
C522 C520 1.419 . S
C522 C523 1.363 . S
C522 H525 0.929 . S
C523 C522 1.363 . S
C523 C529 1.428 . S
H524 C520 0.930 . S
H525 C522 0.929 . S
S526 N527 1.613 . S
S526 N528 1.610 . S
N527 S526 1.613 . S
N527 C530 1.350 . S
N528 S526 1.610 . S
N528 C529 1.351 . S
C529 C523 1.428 . S
C529 N528 1.351 . S
C529 C530 1.434 . S
C530 C521 1.429 . S
C530 N527 1.350 . S
C530 C529 1.434 . S
C531 C532 1.369 . S
C531 C533 1.419 . S
C531 H535 0.930 . S
C532 C531 1.369 . S
C532 C541 1.429 1_556 S
C533 C531 1.419 . S
C533 C534 1.363 1_556 S
C533 H536 0.929 . S
C534 C533 1.363 1_554 S
C534 C540 1.428 . S
H535 C531 0.930 . S
H536 C533 0.929 . S
S537 N538 1.613 . S
S537 N539 1.610 . S
N538 S537 1.613 . S
N538 C541 1.350 . S
N539 S537 1.610 . S
N539 C540 1.351 . S
C540 C534 1.428 . S
C540 N539 1.351 . S
C540 C541 1.434 . S
C541 C532 1.429 1_554 S
C541 N538 1.350 . S
C541 C540 1.434 . S
C542 C543 1.369 . S
C542 C544 1.419 . S
C542 H546 0.930 . S
C543 C542 1.369 . S
C543 C552 1.429 . S
C544 C542 1.419 . S
C544 C545 1.363 . S
C544 H547 0.929 . S
C545 C544 1.363 . S
C545 C551 1.428 . S
H546 C542 0.930 . S
H547 C544 0.929 . S
S548 N549 1.613 . S
S548 N550 1.610 . S
N549 S548 1.613 . S
N549 C552 1.350 . S
N550 S548 1.610 . S
N550 C551 1.351 . S
C551 C545 1.428 . S
C551 N550 1.351 . S
C551 C552 1.434 . S
C552 C543 1.429 . S
C552 N549 1.350 . S
C552 C551 1.434 . S
C553 C554 1.369 . S
C553 C555 1.419 . S
C553 H557 0.930 . S
C554 C553 1.369 . S
C554 C563 1.429 . S
C555 C553 1.419 . S
C555 C556 1.363 . S
C555 H558 0.929 . S
C556 C555 1.363 . S
C556 C562 1.428 . S
H557 C553 0.930 . S
H558 C555 0.929 . S
S559 N560 1.613 . S
S559 N561 1.610 . S
N560 S559 1.613 . S
N560 C563 1.350 . S
N561 S559 1.610 . S
N561 C562 1.351 . S
C562 C556 1.428 . S
C562 N561 1.351 . S
C562 C563 1.434 . S
C563 C554 1.429 . S
C563 N560 1.350 . S
C563 C562 1.434 . S
C564 C565 1.369 . S
C564 C566 1.419 . S
C564 H568 0.930 . S
C565 C564 1.369 . S
C565 C574 1.429 . S
C566 C564 1.419 . S
C566 C567 1.363 . S
C566 H569 0.929 . S
C567 C566 1.363 . S
C567 C573 1.428 . S
H568 C564 0.930 . S
H569 C566 0.929 . S
S570 N571 1.613 . S
S570 N572 1.610 . S
N571 S570 1.613 . S
N571 C574 1.350 . S
N572 S570 1.610 . S
N572 C573 1.351 . S
C573 C567 1.428 . S
C573 N572 1.351 . S
C573 C574 1.434 . S
C574 C565 1.429 . S
C574 N571 1.350 . S
C574 C573 1.434 . S
C575 C576 1.369 . S
C575 C577 1.419 . S
C575 H579 0.930 . S
C576 C575 1.369 . S
C576 C585 1.429 . S
C577 C575 1.419 . S
C577 C578 1.363 . S
C577 H580 0.929 . S
C578 C577 1.363 . S
C578 C584 1.428 . S
H579 C575 0.930 . S
H580 C577 0.929 . S
S581 N582 1.613 . S
S581 N583 1.610 . S
N582 S581 1.613 . S
N582 C585 1.350 . S
N583 S581 1.610 . S
N583 C584 1.351 . S
C584 C578 1.428 . S
C584 N583 1.351 . S
C584 C585 1.434 . S
C585 C576 1.429 . S
C585 N582 1.350 . S
C585 C584 1.434 . S
C586 C587 1.369 . S
C586 C588 1.419 . S
C586 H590 0.930 . S
C587 C586 1.369 . S
C587 C596 1.429 . S
C588 C586 1.419 . S
C588 C589 1.363 . S
C588 H591 0.929 . S
C589 C588 1.363 . S
C589 C595 1.428 . S
H590 C586 0.930 . S
H591 C588 0.929 . S
S592 N593 1.613 . S
S592 N594 1.610 . S
N593 S592 1.613 . S
N593 C596 1.350 . S
N594 S592 1.610 . S
N594 C595 1.351 . S
C595 C589 1.428 . S
C595 N594 1.351 . S
C595 C596 1.434 . S
C596 C587 1.429 . S
C596 N593 1.350 . S
C596 C595 1.434 . S
C597 C598 1.369 . S
C597 C599 1.419 . S
C597 H601 0.930 . S
C598 C597 1.369 . S
C598 C607 1.429 . S
C599 C597 1.419 . S
C599 C600 1.363 . S
C599 H602 0.929 . S
C600 C599 1.363 . S
C600 C606 1.428 . S
H601 C597 0.930 . S
H602 C599 0.929 . S
S603 N604 1.613 . S
S603 N605 1.610 . S
N604 S603 1.613 . S
N604 C607 1.350 . S
N605 S603 1.610 . S
N605 C606 1.351 . S
C606 C600 1.428 . S
C606 N605 1.351 . S
C606 C607 1.434 . S
C607 C598 1.429 . S
C607 N604 1.350 . S
C607 C606 1.434 . S
C608 C609 1.369 . S
C608 C610 1.419 . S
C608 H612 0.930 . S
C609 C608 1.369 . S
C609 C618 1.429 . S
C610 C608 1.419 . S
C610 C611 1.363 . S
C610 H613 0.929 . S
C611 C610 1.363 . S
C611 C617 1.428 . S
H612 C608 0.930 . S
H613 C610 0.929 . S
S614 N615 1.613 . S
S614 N616 1.610 . S
N615 S614 1.613 . S
N615 C618 1.350 . S
N616 S614 1.610 . S
N616 C617 1.351 . S
C617 C611 1.428 . S
C617 N616 1.351 . S
C617 C618 1.434 . S
C618 C609 1.429 . S
C618 N615 1.350 . S
C618 C617 1.434 . S
C619 C620 1.369 . S
C619 C621 1.419 . S
C619 H623 0.930 . S
C620 C619 1.369 . S
C620 C629 1.429 . S
C621 C619 1.419 . S
C621 C622 1.363 . S
C621 H624 0.929 . S
C622 C621 1.363 . S
C622 C628 1.428 . S
H623 C619 0.930 . S
H624 C621 0.929 . S
S625 N626 1.613 . S
S625 N627 1.610 . S
N626 S625 1.613 . S
N626 C629 1.350 . S
N627 S625 1.610 . S
N627 C628 1.351 . S
C628 C622 1.428 . S
C628 N627 1.351 . S
C628 C629 1.434 . S
C629 C620 1.429 . S
C629 N626 1.350 . S
C629 C628 1.434 . S
C630 C631 1.369 . S
C630 C632 1.419 . S
C630 H634 0.930 . S
C631 C630 1.369 . S
C631 C640 1.429 . S
C632 C630 1.419 . S
C632 C633 1.363 . S
C632 H635 0.929 . S
C633 C632 1.363 . S
C633 C639 1.428 . S
H634 C630 0.930 . S
H635 C632 0.929 . S
S636 N637 1.613 . S
S636 N638 1.610 . S
N637 S636 1.613 . S
N637 C640 1.350 . S
N638 S636 1.610 . S
N638 C639 1.351 . S
C639 C633 1.428 . S
C639 N638 1.351 . S
C639 C640 1.434 . S
C640 C631 1.429 . S
C640 N637 1.350 . S
C640 C639 1.434 . S
C641 C642 1.369 . S
C641 C643 1.419 1_655 S
C641 H645 0.930 . S
C642 C641 1.369 . S
C642 C651 1.429 . S
C643 C641 1.419 1_455 S
C643 C644 1.363 . S
C643 H646 0.929 . S
C644 C643 1.363 . S
C644 C650 1.428 . S
H645 C641 0.930 . S
H646 C643 0.929 . S
S647 N648 1.613 . S
S647 N649 1.610 1_655 S
N648 S647 1.613 . S
N648 C651 1.350 . S
N649 S647 1.610 1_455 S
N649 C650 1.351 . S
C650 C644 1.428 . S
C650 N649 1.351 . S
C650 C651 1.434 1_455 S
C651 C642 1.429 . S
C651 N648 1.350 . S
C651 C650 1.434 1_655 S
C652 C653 1.369 . S
C652 C654 1.419 . S
C652 H656 0.930 . S
C653 C652 1.369 . S
C653 C662 1.429 1_545 S
C654 C652 1.419 . S
C654 C655 1.363 1_545 S
C654 H657 0.929 . S
C655 C654 1.363 1_565 S
C655 C661 1.428 . S
H656 C652 0.930 . S
H657 C654 0.929 . S
S658 N659 1.613 . S
S658 N660 1.610 . S
N659 S658 1.613 . S
N659 C662 1.350 . S
N660 S658 1.610 . S
N660 C661 1.351 . S
C661 C655 1.428 . S
C661 N660 1.351 . S
C661 C662 1.434 . S
C662 C653 1.429 1_565 S
C662 N659 1.350 . S
C662 C661 1.434 . S
C663 C664 1.369 . S
C663 C665 1.419 . S
C663 H667 0.930 . S
C664 C663 1.369 . S
C664 C673 1.429 . S
C665 C663 1.419 . S
C665 C666 1.363 . S
C665 H668 0.929 . S
C666 C665 1.363 . S
C666 C672 1.428 . S
H667 C663 0.930 . S
H668 C665 0.929 . S
S669 N670 1.613 . S
S669 N671 1.610 . S
N670 S669 1.613 . S
N670 C673 1.350 . S
N671 S669 1.610 . S
N671 C672 1.351 . S
C672 C666 1.428 . S
C672 N671 1.351 . S
C672 C673 1.434 . S
C673 C664 1.429 . S
C673 N670 1.350 . S
C673 C672 1.434 . S
C674 C675 1.369 . S
C674 C676 1.419 1_455 S
C674 H678 0.930 . S
C675 C674 1.369 . S
C675 C684 1.429 . S
C676 C674 1.419 1_655 S
C676 C677 1.363 . S
C676 H679 0.929 . S
C677 C676 1.363 . S
C677 C683 1.428 . S
H678 C674 0.930 . S
H679 C676 0.929 . S
S680 N681 1.613 1_655 S
S680 N682 1.610 . S
N681 S680 1.613 1_455 S
N681 C684 1.350 1_554 S
N682 S680 1.610 . S
N682 C683 1.351 1_554 S
C683 C677 1.428 . S
C683 N682 1.351 1_556 S
C683 C684 1.434 1_655 S
C684 C675 1.429 . S
C684 N681 1.350 1_556 S
C684 C683 1.434 1_455 S
C685 C686 1.369 1_545 S
C685 C687 1.419 . S
C685 H689 0.930 . S
C686 C685 1.369 1_565 S
C686 C695 1.429 . S
C687 C685 1.419 . S
C687 C688 1.363 . S
C687 H690 0.929 . S
C688 C687 1.363 . S
C688 C694 1.428 1_545 S
H689 C685 0.930 . S
H690 C687 0.929 . S
S691 N692 1.613 . S
S691 N693 1.610 . S
N692 S691 1.613 . S
N692 C695 1.350 . S
N693 S691 1.610 . S
N693 C694 1.351 . S
C694 C688 1.428 1_565 S
C694 N693 1.351 . S
C694 C695 1.434 . S
C695 C686 1.429 . S
C695 N692 1.350 . S
C695 C694 1.434 . S
C433 C255 1.406 . S
C435 C3 1.406 . S
C444 C39 1.402 . S
C446 C291 1.403 . S
C455 C75 1.403 . S
C457 C327 1.404 . S
C466 C111 1.404 . S
C468 C363 1.405 . S
C477 C399 1.402 . S
C479 C147 1.403 . S
C488 C219 1.403 . S
C490 C183 1.403 . S
C499 C362 1.443 . S
C501 C2 1.444 . S
C510 C38 1.445 . S
C512 C398 1.444 . S
C521 C74 1.445 . S
C523 C218 1.444 . S
C532 C254 1.443 . S
C534 C110 1.444 . S
C543 C290 1.444 . S
C545 C146 1.445 . S
C554 C326 1.444 . S
C556 C182 1.445 . S
C565 C14 1.556 . S
C567 C302 1.560 . S
C576 C50 1.560 . S
C578 C338 1.557 . S
C587 C374 1.555 . S
C589 C86 1.558 . S
C598 C122 1.561 . S
C600 C410 1.558 . S
C609 C230 1.555 . S
C611 C158 1.557 . S
C620 C266 1.555 . S
C622 C194 1.557 . S
C631 C112 1.378 . S
C633 C4 1.368 . S
C642 C148 1.369 . S
C644 C40 1.375 . S
C653 C76 1.375 . S
C655 C184 1.368 . S
C664 C220 1.365 . S
C666 C328 1.376 . S
C675 C256 1.372 . S
C677 C364 1.373 . S
C686 C400 1.365 . S
C688 C292 1.376 . S
