# Generated by pormake.
# Topology ukk, (4)-cn, num edge types: 1
# Building blocks:
#     Node 0, Type 0, BuildingBlock: ESEHIV_clean_sbu_0, # of connection points: 4
#     Node 1, Type 0, BuildingBlock: ESEHIV_clean_sbu_0, # of connection points: 4
#     Node 2, Type 0, BuildingBlock: ESEHIV_clean_sbu_0, # of connection points: 4
#     Node 3, Type 0, BuildingBlock: ESEHIV_clean_sbu_0, # of connection points: 4
#     Node 4, Type 0, BuildingBlock: ESEHIV_clean_sbu_0, # of connection points: 4
#     Node 5, Type 0, BuildingBlock: ESEHIV_clean_sbu_0, # of connection points: 4
#     Node 6, Type 0, BuildingBlock: ESEHIV_clean_sbu_0, # of connection points: 4
#     Node 7, Type 0, BuildingBlock: ESEHIV_clean_sbu_0, # of connection points: 4
#     Node 8, Type 0, BuildingBlock: ESEHIV_clean_sbu_0, # of connection points: 4
#     Node 9, Type 0, BuildingBlock: ESEHIV_clean_sbu_0, # of connection points: 4
#     Node 10, Type 0, BuildingBlock: ESEHIV_clean_sbu_0, # of connection points: 4
#     Node 11, Type 0, BuildingBlock: ESEHIV_clean_sbu_0, # of connection points: 4
#     Node 12, Type 0, BuildingBlock: ESEHIV_clean_sbu_0, # of connection points: 4
#     Node 13, Type 0, BuildingBlock: ESEHIV_clean_sbu_0, # of connection points: 4
#     Node 14, Type 0, BuildingBlock: ESEHIV_clean_sbu_0, # of connection points: 4
#     Node 15, Type 0, BuildingBlock: ESEHIV_clean_sbu_0, # of connection points: 4
#     Edge 16, Type (0, 0), None
#     Edge 17, Type (0, 0), None
#     Edge 18, Type (0, 0), None
#     Edge 19, Type (0, 0), None
#     Edge 20, Type (0, 0), None
#     Edge 21, Type (0, 0), None
#     Edge 22, Type (0, 0), None
#     Edge 23, Type (0, 0), None
#     Edge 24, Type (0, 0), None
#     Edge 25, Type (0, 0), None
#     Edge 26, Type (0, 0), None
#     Edge 27, Type (0, 0), None
#     Edge 28, Type (0, 0), None
#     Edge 29, Type (0, 0), None
#     Edge 30, Type (0, 0), None
#     Edge 31, Type (0, 0), None
#     Edge 32, Type (0, 0), None
#     Edge 33, Type (0, 0), None
#     Edge 34, Type (0, 0), None
#     Edge 35, Type (0, 0), None
#     Edge 36, Type (0, 0), None
#     Edge 37, Type (0, 0), None
#     Edge 38, Type (0, 0), None
#     Edge 39, Type (0, 0), None
#     Edge 40, Type (0, 0), None
#     Edge 41, Type (0, 0), None
#     Edge 42, Type (0, 0), None
#     Edge 43, Type (0, 0), None
#     Edge 44, Type (0, 0), None
#     Edge 45, Type (0, 0), None
#     Edge 46, Type (0, 0), None
#     Edge 47, Type (0, 0), None
# Relax obj value: 0.028
# Max RMSD: 0.130
# Mean RMSD: 0.130
data_MOF--net-ukk--node1-ESEHIV_clean_sbu_0--edge1-none
_symmetry_space_group_name_H-M    P1
_symmetry_Int_Tables_number       1
_symmetry_cell_setting            triclinic
loop_
_symmetry_equiv_pos_as_xyz
'x, y, z'
_cell_length_a     26.7498
_cell_length_b     26.749476
_cell_length_c     12.89858
_cell_angle_alpha  89.991207
_cell_angle_beta   90.005054
_cell_angle_gamma 90.159682
loop_
_atom_site_label
_atom_site_type_symbol
_atom_site_fract_x
_atom_site_fract_y
_atom_site_fract_z
_atom_type_partial_charge
Cu0 Cu 0.42074 0.16155 0.13611 0.0
N1 N 0.48952 0.15745 0.11179 0.0
N2 N 0.57067 0.15705 0.15309 0.0
C3 C 0.52464 0.1731 0.17941 0.0
C4 C 0.56462 0.13137 0.06389 0.0
C5 C 0.51438 0.13114 0.03931 0.0
O6 O 0.40567 0.11009 0.23803 0.0
C7 C 0.4068 0.26491 0.12667 0.0
O8 O 0.41174 0.25727 0.02667 0.0
H9 H 0.5161 0.19297 0.25026 0.0
H10 H 0.49702 0.11007 0.97749 0.0
N11 N 0.3826 0.15108 1.01601 0.0
N12 N 0.31564 0.14463 0.91347 0.0
C13 C 0.3324 0.14675 1.01215 0.0
C14 C 0.3978 0.15196 0.91634 0.0
C15 C 0.35652 0.14779 0.85274 0.0
C16 C 0.423 0.11236 0.32997 0.0
O17 O 0.44518 0.15357 0.36116 0.0
H18 H 0.30877 0.14706 0.08018 0.0
H19 H 0.4359 0.15774 0.89124 0.0
O20 O 0.40787 0.228 0.18888 0.0
H21 H 0.59368 0.11087 0.02388 0.0
H22 H 0.35654 0.14898 0.76891 0.0
Cu23 Cu 0.16158 0.66012 0.90751 0.0
N24 N 0.15733 0.5913 0.93162 0.0
N25 N 0.15687 0.51016 0.89023 0.0
C26 C 0.17289 0.5563 0.86387 0.0
C27 C 0.13129 0.51605 0.97957 0.0
C28 C 0.1311 0.56629 1.00421 0.0
O29 O 0.11016 0.67515 0.80565 0.0
C30 C 0.265 0.67403 0.91694 0.0
O31 O 0.25735 0.66872 1.01687 0.0
H32 H 0.19271 0.56496 0.79295 0.0
H33 H 0.11016 0.58351 0.06623 0.0
N34 N 0.15122 0.69815 0.02773 0.0
N35 N 0.14478 0.76503 0.13036 0.0
C36 C 0.14683 0.74831 0.03166 0.0
C37 C 0.1522 0.68292 0.12738 0.0
C38 C 0.14803 0.72415 0.19104 0.0
C39 C 0.1124 0.65797 0.7136 0.0
O40 O 0.15354 0.63593 0.68232 0.0
H41 H 0.14704 0.77197 0.96364 0.0
H42 H 0.15802 0.64484 0.15242 0.0
O43 O 0.22806 0.67321 0.85477 0.0
H44 H 0.11086 0.48687 1.01969 0.0
H45 H 0.14928 0.72411 0.27486 0.0
Cu46 Cu 0.66026 0.91971 0.13603 0.0
N47 N 0.59147 0.92385 0.11171 0.0
N48 N 0.51033 0.92428 0.15307 0.0
C49 C 0.55637 0.90819 0.17932 0.0
C50 C 0.51638 0.95001 0.06391 0.0
C51 C 0.56662 0.95022 0.0393 0.0
O52 O 0.67535 0.97116 0.23794 0.0
C53 C 0.67417 0.81634 0.12658 0.0
O54 O 0.66927 0.824 0.02658 0.0
H55 H 0.56491 0.88827 0.25015 0.0
H56 H 0.58398 0.97132 0.97752 0.0
N57 N 0.69842 0.93015 1.01594 0.0
N58 N 0.7654 0.93639 0.91343 0.0
C59 C 0.74863 0.93427 1.01209 0.0
C60 C 0.68321 0.92941 0.91627 0.0
C61 C 0.72451 0.93345 0.85268 0.0
C62 C 0.65802 0.96889 0.32989 0.0
O63 O 0.63584 0.92767 0.36109 0.0
H64 H 0.77226 0.93379 0.08013 0.0
H65 H 0.64509 0.92381 0.89114 0.0
O66 O 0.67309 0.85324 0.18881 0.0
H67 H 0.48733 0.97055 0.02397 0.0
H68 H 0.72447 0.93232 0.76885 0.0
Cu69 Cu 0.91935 0.42044 0.90735 0.0
N70 N 0.92363 0.48925 0.93147 0.0
N71 N 0.9241 0.57039 0.89011 0.0
C72 C 0.90808 0.52427 0.86373 0.0
C73 C 0.94966 0.56449 0.97948 0.0
C74 C 0.94984 0.51425 1.00411 0.0
O75 O 0.97078 0.40541 0.80553 0.0
C76 C 0.81592 0.40684 0.91681 0.0
O77 O 0.8236 0.41236 1.01669 0.0
H78 H 0.88827 0.51561 0.79278 0.0
H79 H 0.97077 0.49701 0.06615 0.0
N80 N 0.92969 0.38241 0.02757 0.0
N81 N 0.93619 0.31553 0.13021 0.0
C82 C 0.93414 0.33225 0.03151 0.0
C83 C 0.92865 0.39763 0.12721 0.0
C84 C 0.93286 0.35639 0.19089 0.0
C85 C 0.96856 0.4226 0.71347 0.0
O86 O 0.92743 0.44465 0.68212 0.0
H87 H 0.934 0.30861 0.96349 0.0
H88 H 0.92278 0.43569 0.15224 0.0
O89 O 0.85285 0.40741 0.85463 0.0
H90 H 0.97008 0.59367 1.01963 0.0
H91 H 0.93157 0.35642 0.27471 0.0
Cu92 Cu 0.42058 0.41951 0.15738 0.0
N93 N 0.48939 0.42383 0.18152 0.0
N94 N 0.57053 0.42437 0.14012 0.0
C95 C 0.52442 0.40826 0.11383 0.0
C96 C 0.56461 0.45002 0.22936 0.0
C97 C 0.51437 0.45016 0.254 0.0
O98 O 0.40553 0.47089 0.05546 0.0
C99 C 0.40683 0.31608 0.16695 0.0
O100 O 0.41218 0.32376 0.26686 0.0
H101 H 0.51577 0.38838 0.04298 0.0
H102 H 0.49712 0.47115 0.31592 0.0
N103 N 0.38253 0.42985 0.27756 0.0
N104 N 0.31562 0.43623 0.38013 0.0
C105 C 0.33235 0.43414 0.28145 0.0
C106 C 0.39775 0.42898 0.37721 0.0
C107 C 0.3565 0.43311 0.44085 0.0
C108 C 0.42275 0.46865 0.96344 0.0
O109 O 0.44483 0.42752 0.93221 0.0
H110 H 0.30871 0.43383 0.21342 0.0
H111 H 0.43584 0.42328 0.40228 0.0
O112 O 0.40757 0.353 0.10472 0.0
H113 H 0.59376 0.47053 0.26938 0.0
H114 H 0.35654 0.43192 0.52467 0.0
Cu115 Cu 0.41954 0.66027 0.88591 0.0
N116 N 0.42365 0.59149 0.86167 0.0
N117 N 0.42412 0.51037 0.90314 0.0
C118 C 0.40807 0.5564 0.92942 0.0
C119 C 0.44969 0.51637 0.81378 0.0
C120 C 0.44989 0.56661 0.78911 0.0
O121 O 0.47102 0.6754 0.98775 0.0
C122 C 0.31615 0.67411 0.87659 0.0
O123 O 0.32377 0.66912 0.77659 0.0
H124 H 0.38824 0.56496 1.00032 0.0
H125 H 0.47087 0.58395 0.72714 0.0
N126 N 0.42994 0.69839 0.76575 0.0
N127 N 0.43635 0.76534 0.66318 0.0
C128 C 0.43429 0.74859 0.76187 0.0
C129 C 0.42899 0.68318 0.6661 0.0
C130 C 0.43314 0.72446 0.60246 0.0
C131 C 0.46875 0.65814 0.07976 0.0
O132 O 0.42753 0.636 0.11106 0.0
H133 H 0.43404 0.77222 0.82989 0.0
H134 H 0.42318 0.64508 0.64103 0.0
O135 O 0.35309 0.67312 0.93875 0.0
H136 H 0.47011 0.4873 0.77369 0.0
H137 H 0.43188 0.72443 0.51865 0.0
Cu138 Cu 0.66041 0.66172 0.15722 0.0
N139 N 0.59161 0.65739 0.18138 0.0
N140 N 0.51048 0.6568 0.13999 0.0
C141 C 0.55658 0.67291 0.11365 0.0
C142 C 0.5164 0.63124 0.22935 0.0
C143 C 0.56665 0.63111 0.25397 0.0
O144 O 0.67546 0.61035 0.05531 0.0
C145 C 0.67413 0.76516 0.16684 0.0
O146 O 0.66875 0.75746 0.26674 0.0
H147 H 0.5652 0.69278 0.04276 0.0
H148 H 0.58391 0.61019 0.31599 0.0
N149 N 0.69846 0.65134 0.27741 0.0
N150 N 0.76534 0.64477 0.38001 0.0
C151 C 0.74862 0.64686 0.28132 0.0
C152 C 0.68325 0.65234 0.37706 0.0
C153 C 0.72448 0.6481 0.44071 0.0
C154 C 0.65822 0.61257 0.96329 0.0
O155 O 0.63614 0.65371 0.93203 0.0
H156 H 0.77226 0.64702 0.21329 0.0
H157 H 0.64518 0.65822 0.4021 0.0
O158 O 0.67343 0.72825 0.1046 0.0
H159 H 0.48725 0.61078 0.26949 0.0
H160 H 0.72446 0.64935 0.52453 0.0
Cu161 Cu 0.66138 0.42093 0.88589 0.0
N162 N 0.65727 0.48972 0.86162 0.0
N163 N 0.65682 0.57085 0.90303 0.0
C164 C 0.67288 0.52481 0.92932 0.0
C165 C 0.63122 0.56484 0.81371 0.0
C166 C 0.631 0.5146 0.78909 0.0
O167 O 0.60993 0.40581 0.9878 0.0
C168 C 0.76475 0.40682 0.8765 0.0
O169 O 0.75713 0.4116 0.77645 0.0
H170 H 0.69274 0.51625 1.0002 0.0
H171 H 0.60998 0.49727 0.72717 0.0
N172 N 0.65093 0.3828 0.76575 0.0
N173 N 0.6446 0.31586 0.6632 0.0
C174 C 0.64668 0.3326 0.76188 0.0
C175 C 0.6518 0.39803 0.66609 0.0
C176 C 0.6477 0.35675 0.60247 0.0
C177 C 0.61222 0.42308 0.07978 0.0
O178 O 0.65344 0.44526 0.11099 0.0
H179 H 0.64703 0.30896 0.8299 0.0
H180 H 0.65754 0.43614 0.64099 0.0
O181 O 0.72784 0.40805 0.93868 0.0
H182 H 0.61078 0.59392 0.77363 0.0
H183 H 0.64891 0.35679 0.51865 0.0
Cu184 Cu 0.92078 0.66127 0.6359 0.0
N185 N 0.98957 0.65712 0.61174 0.0
N186 N 0.07069 0.65661 0.65328 0.0
C187 C 1.02465 0.67266 0.67955 0.0
C188 C 0.0647 0.63109 0.56387 0.0
C189 C 1.01446 0.63091 0.53916 0.0
O190 O 0.90561 0.6098 0.73773 0.0
C191 C 0.90683 0.76465 0.62661 0.0
O192 O 0.9117 0.75705 0.52658 0.0
H193 H 1.01608 0.69247 0.75047 0.0
H194 H 0.99714 0.60995 0.47714 0.0
N195 N 0.88266 0.6509 0.51572 0.0
N196 N 0.81571 0.64469 0.41313 0.0
C197 C 0.83246 0.6467 0.51182 0.0
C198 C 0.89788 0.65178 0.41607 0.0
C199 C 0.8566 0.64773 0.35242 0.0
C200 C 0.92281 0.6121 0.82979 0.0
O201 O 0.94491 0.65333 0.8611 0.0
H202 H 0.80882 0.64702 0.57984 0.0
H203 H 0.936 0.65747 0.39099 0.0
O204 O 0.90795 0.72772 0.68876 0.0
H205 H 0.09378 0.61067 0.52378 0.0
H206 H 0.85664 0.64893 0.2686 0.0
Cu207 Cu 0.66154 0.16055 0.40734 0.0
N208 N 0.6572 0.09174 0.4315 0.0
N209 N 0.65663 1.01061 0.39012 0.0
C210 C 0.67277 0.05671 0.36384 0.0
C211 C 0.63101 1.01653 0.47938 0.0
C212 C 0.63087 0.06677 0.50401 0.0
O213 O 0.61017 0.17563 0.30542 0.0
C214 C 0.76498 0.1741 0.41691 0.0
O215 O 0.75729 0.16862 0.51679 0.0
H216 H 0.69269 0.06535 0.29301 0.0
H217 H 0.6099 0.08403 0.56595 0.0
N218 N 0.65121 0.1986 0.52752 0.0
N219 N 0.64476 0.26549 0.63009 0.0
C220 C 0.64683 0.24877 0.53141 0.0
C221 C 0.65214 0.18338 0.62717 0.0
C222 C 0.64795 0.22462 0.69081 0.0
C223 C 0.61238 0.15837 0.21343 0.0
O224 O 0.65349 0.13624 0.18222 0.0
H225 H 0.64702 0.27241 0.46337 0.0
H226 H 0.6579 0.1453 0.65224 0.0
O227 O 0.72806 0.17353 0.35469 0.0
H228 H 0.61052 0.98737 0.51945 0.0
H229 H 0.64912 0.22458 0.77464 0.0
Cu230 Cu 0.16021 0.41932 0.63599 0.0
N231 N 0.09141 0.42346 0.61177 0.0
N232 N 1.01029 0.42396 0.65321 0.0
C233 C 0.05633 0.40793 0.67957 0.0
C234 C 1.01629 0.44946 0.56377 0.0
C235 C 0.06653 0.44965 0.53912 0.0
O236 O 0.17536 0.47078 0.73785 0.0
C237 C 0.17413 0.31593 0.62663 0.0
O238 O 0.16922 0.32356 0.52661 0.0
H239 H 0.06489 0.38813 0.75053 0.0
H240 H 0.08386 0.47059 0.47708 0.0
N241 N 0.19832 0.42974 0.51582 0.0
N242 N 0.26526 0.43613 0.41324 0.0
C243 C 0.24851 0.43411 0.51193 0.0
C244 C 0.18311 0.42877 0.41616 0.0
C245 C 0.22437 0.43293 0.35252 0.0
C246 C 0.15816 0.46847 0.8299 0.0
O247 O 0.13605 0.42723 0.86119 0.0
H248 H 0.27215 0.43391 0.57996 0.0
H249 H 0.14501 0.42295 0.39108 0.0
O250 O 0.17305 0.35286 0.6888 0.0
H251 H 0.98722 0.46986 0.5236 0.0
H252 H 0.22434 0.4317 0.2687 0.0
Cu253 Cu 0.4195 0.92069 0.40736 0.0
N254 N 0.42384 0.98949 0.43157 0.0
N255 N 0.42439 0.07063 0.3902 0.0
C256 C 0.40823 1.02453 0.36394 0.0
C257 C 0.45006 0.06469 0.47942 0.0
C258 C 0.45021 1.01444 0.50403 0.0
O259 O 0.47086 0.90565 0.3054 0.0
C260 C 0.31606 0.90682 0.41699 0.0
O261 O 0.32377 0.91205 0.51692 0.0
H262 H 0.38828 1.01592 0.29314 0.0
H263 H 0.47122 0.99717 0.5659 0.0
N264 N 0.42988 0.88262 0.52751 0.0
N265 N 0.43627 0.81571 0.63008 0.0
C266 C 0.43419 0.83245 0.5314 0.0
C267 C 0.42902 0.89783 0.62717 0.0
C268 C 0.43317 0.85658 0.6908 0.0
C269 C 0.46864 0.92295 0.21343 0.0
O270 O 0.42754 0.94512 0.18227 0.0
H271 H 0.43391 0.80882 0.46337 0.0
H272 H 0.42331 0.93591 0.65225 0.0
O273 O 0.35297 0.90769 0.35475 0.0
H274 H 0.47058 0.09383 0.51945 0.0
H275 H 0.43204 0.8566 0.77463 0.0
Cu276 Cu 0.92069 0.91922 0.65758 0.0
N277 N 0.98951 0.92342 0.68175 0.0
N278 N 0.07066 0.9238 0.64047 0.0
C279 C 1.02452 0.90783 0.61406 0.0
C280 C 0.06477 0.94939 0.7298 0.0
C281 C 1.01452 0.94963 0.75438 0.0
O282 O 0.90569 0.97066 0.55574 0.0
C283 C 0.9069 0.8158 0.66697 0.0
O284 O 0.91233 0.82344 0.76688 0.0
H285 H 1.01585 0.88801 0.54314 0.0
H286 H 0.9973 0.97058 0.81637 0.0
N287 N 0.88265 0.92957 0.77777 0.0
N288 N 0.81577 0.93612 0.88034 0.0
C289 C 0.8325 0.93408 0.78166 0.0
C290 C 0.89786 0.92853 0.87743 0.0
C291 C 0.85662 0.93278 0.94107 0.0
C292 C 0.92291 0.96845 0.46371 0.0
O293 O 0.94499 0.92732 0.43243 0.0
H294 H 0.80886 0.93399 0.71361 0.0
H295 H 0.93592 0.92265 0.90249 0.0
O296 O 0.90759 0.85275 0.60481 0.0
H297 H 0.09396 0.9698 0.76994 0.0
H298 H 0.85665 0.93155 0.02489 0.0
Cu299 Cu 0.91953 0.16008 0.38608 0.0
N300 N 0.92369 0.09129 0.36189 0.0
N301 N 0.92426 1.01017 0.40341 0.0
C302 C 0.90816 0.05619 0.42967 0.0
C303 C 0.94981 1.01619 0.31404 0.0
C304 C 0.94996 0.06642 0.28935 0.0
O305 O 0.97097 0.17522 0.48798 0.0
C306 C 0.81615 0.17412 0.37664 0.0
O307 O 0.82379 0.16932 0.27661 0.0
H308 H 0.88833 0.06474 0.50057 0.0
H309 H 0.97093 0.08377 0.22737 0.0
N310 N 0.92995 0.19821 0.26592 0.0
N311 N 0.93623 0.26516 0.16334 0.0
C312 C 0.93418 0.24841 0.26203 0.0
C313 C 0.9291 0.18299 0.16627 0.0
C314 C 0.93319 0.22427 0.10263 0.0
C315 C 0.96866 0.15799 0.58001 0.0
O316 O 0.92741 0.1359 0.61127 0.0
H317 H 0.93384 0.27205 0.33005 0.0
H318 H 0.9234 0.14487 0.14119 0.0
O319 O 0.85306 0.17292 0.43885 0.0
H320 H 0.97026 0.98713 0.27397 0.0
H321 H 0.93203 0.22423 1.0188 0.0
Cu322 Cu 0.16031 0.16134 0.65759 0.0
N323 N 0.0915 0.15709 0.68173 0.0
N324 N 1.01037 0.1566 0.64029 0.0
C325 C 0.0565 0.17265 0.61397 0.0
C326 C 1.01625 0.13105 0.72967 0.0
C327 C 0.06649 0.13086 0.75433 0.0
O328 O 0.17533 0.1099 0.55579 0.0
C329 C 0.17408 0.26477 0.66697 0.0
O330 O 0.16869 0.25711 0.76689 0.0
H331 H 0.06516 0.1925 0.54307 0.0
H332 H 0.08371 0.10992 0.81637 0.0
N333 N 0.19836 0.15103 0.7778 0.0
N334 N 0.26527 0.1447 0.88038 0.0
C335 C 0.24853 0.14671 0.78169 0.0
C336 C 0.18315 0.15198 0.87745 0.0
C337 C 0.22441 0.14786 0.9411 0.0
C338 C 0.15811 0.1121 0.46376 0.0
O339 O 0.13604 0.15323 0.43242 0.0
H340 H 0.27217 0.14693 0.71366 0.0
H341 H 0.14507 0.15773 0.90251 0.0
O342 O 0.17336 0.22784 0.6048 0.0
H343 H 0.98706 0.11064 0.7698 0.0
H344 H 0.22438 0.14907 0.02492 0.0
Cu345 Cu 0.16149 0.92045 0.38624 0.0
N346 N 0.1573 0.98925 0.36205 0.0
N347 N 0.15675 0.07037 0.40351 0.0
C348 C 0.17283 1.02434 0.42983 0.0
C349 C 0.13122 0.06435 0.31411 0.0
C350 C 0.13106 1.01411 0.28945 0.0
O351 O 0.11005 0.90527 0.48813 0.0
C352 C 0.26489 0.90676 0.37675 0.0
O353 O 0.25722 0.91181 0.27677 0.0
H354 H 0.19265 1.01579 0.50076 0.0
H355 H 0.11011 0.99677 0.22744 0.0
N356 N 0.1511 0.88233 0.26608 0.0
N357 N 0.14479 0.81539 0.16349 0.0
C358 C 0.14682 0.83213 0.26218 0.0
C359 C 0.15199 0.89756 0.16642 0.0
C360 C 0.14788 0.85629 0.10278 0.0
C361 C 0.11236 0.92248 0.58017 0.0
O362 O 0.1536 0.94458 0.61146 0.0
H363 H 0.14711 0.80848 0.3302 0.0
H364 H 0.15772 0.93567 0.14134 0.0
O365 O 0.22798 0.90766 0.43898 0.0
H366 H 0.11079 0.09342 0.27397 0.0
H367 H 0.14906 0.85634 1.01896 0.0
loop_
_geom_bond_atom_site_label_1
_geom_bond_atom_site_label_2
_geom_bond_distance
_geom_bond_site_symmetry_2
_ccdc_geom_bond_type
Cu0 N1 1.999 . S
Cu0 O6 1.974 . S
Cu0 N11 1.985 . S
Cu0 O20 1.959 . S
N1 Cu0 1.999 . S
N1 C3 1.263 . S
N1 C5 1.389 . S
N2 C3 1.358 . S
N2 C4 1.400 . S
C3 N1 1.263 . S
C3 N2 1.358 . S
C3 H9 0.930 . S
C4 N2 1.400 . S
C4 C5 1.351 . S
C4 H21 0.930 . S
C5 N1 1.389 . S
C5 C4 1.351 . S
C5 H10 0.930 . S
O6 Cu0 1.974 . S
O6 C16 1.282 . S
C7 O8 1.261 . S
C7 O20 1.251 . S
O8 C7 1.261 . S
H9 C3 0.930 . S
H10 C5 0.930 . S
N11 Cu0 1.985 . S
N11 C13 1.335 1_554 S
N11 C14 1.390 . S
N12 C13 1.345 . S
N12 C15 1.336 1_556 S
C13 N11 1.335 1_556 S
C13 N12 1.345 . S
C13 H18 0.930 . S
C14 N11 1.390 . S
C14 C15 1.346 . S
C14 H19 0.930 . S
C15 N12 1.336 1_554 S
C15 C14 1.346 . S
C15 H22 0.929 . S
C16 O6 1.282 . S
C16 O17 1.216 . S
O17 C16 1.216 . S
H18 C13 0.930 . S
H19 C14 0.930 . S
O20 Cu0 1.959 . S
O20 C7 1.251 . S
H21 C4 0.930 . S
H22 C15 0.929 . S
Cu23 N24 1.999 . S
Cu23 O29 1.974 . S
Cu23 N34 1.985 . S
Cu23 O43 1.959 . S
N24 Cu23 1.999 . S
N24 C26 1.263 . S
N24 C28 1.389 . S
N25 C26 1.358 . S
N25 C27 1.400 . S
C26 N24 1.263 . S
C26 N25 1.358 . S
C26 H32 0.930 . S
C27 N25 1.400 . S
C27 C28 1.351 . S
C27 H44 0.930 . S
C28 N24 1.389 . S
C28 C27 1.351 . S
C28 H33 0.930 . S
O29 Cu23 1.974 . S
O29 C39 1.282 . S
C30 O31 1.261 . S
C30 O43 1.251 . S
O31 C30 1.261 . S
H32 C26 0.930 . S
H33 C28 0.930 . S
N34 Cu23 1.985 . S
N34 C36 1.335 1_556 S
N34 C37 1.390 . S
N35 C36 1.345 . S
N35 C38 1.336 1_554 S
C36 N34 1.335 1_554 S
C36 N35 1.345 . S
C36 H41 0.930 . S
C37 N34 1.390 . S
C37 C38 1.346 . S
C37 H42 0.930 . S
C38 N35 1.336 1_556 S
C38 C37 1.346 . S
C38 H45 0.929 . S
C39 O29 1.282 . S
C39 O40 1.216 . S
O40 C39 1.216 . S
H41 C36 0.930 . S
H42 C37 0.930 . S
O43 Cu23 1.959 . S
O43 C30 1.251 . S
H44 C27 0.930 . S
H45 C38 0.929 . S
Cu46 N47 1.999 . S
Cu46 O52 1.974 . S
Cu46 N57 1.985 . S
Cu46 O66 1.959 . S
N47 Cu46 1.999 . S
N47 C49 1.263 . S
N47 C51 1.389 . S
N48 C49 1.358 . S
N48 C50 1.400 . S
C49 N47 1.263 . S
C49 N48 1.358 . S
C49 H55 0.930 . S
C50 N48 1.400 . S
C50 C51 1.351 . S
C50 H67 0.930 . S
C51 N47 1.389 . S
C51 C50 1.351 . S
C51 H56 0.930 . S
O52 Cu46 1.974 . S
O52 C62 1.282 . S
C53 O54 1.261 . S
C53 O66 1.251 . S
O54 C53 1.261 . S
H55 C49 0.930 . S
H56 C51 0.930 . S
N57 Cu46 1.985 . S
N57 C59 1.335 1_554 S
N57 C60 1.390 . S
N58 C59 1.345 . S
N58 C61 1.336 1_556 S
C59 N57 1.335 1_556 S
C59 N58 1.345 . S
C59 H64 0.930 . S
C60 N57 1.390 . S
C60 C61 1.346 . S
C60 H65 0.930 . S
C61 N58 1.336 1_554 S
C61 C60 1.346 . S
C61 H68 0.929 . S
C62 O52 1.282 . S
C62 O63 1.216 . S
O63 C62 1.216 . S
H64 C59 0.930 . S
H65 C60 0.930 . S
O66 Cu46 1.959 . S
O66 C53 1.251 . S
H67 C50 0.930 . S
H68 C61 0.929 . S
Cu69 N70 1.999 . S
Cu69 O75 1.974 . S
Cu69 N80 1.985 . S
Cu69 O89 1.959 . S
N70 Cu69 1.999 . S
N70 C72 1.263 . S
N70 C74 1.389 . S
N71 C72 1.358 . S
N71 C73 1.400 . S
C72 N70 1.263 . S
C72 N71 1.358 . S
C72 H78 0.930 . S
C73 N71 1.400 . S
C73 C74 1.351 . S
C73 H90 0.930 . S
C74 N70 1.389 . S
C74 C73 1.351 . S
C74 H79 0.930 . S
O75 Cu69 1.974 . S
O75 C85 1.282 . S
C76 O77 1.261 . S
C76 O89 1.251 . S
O77 C76 1.261 . S
H78 C72 0.930 . S
H79 C74 0.930 . S
N80 Cu69 1.985 . S
N80 C82 1.335 1_556 S
N80 C83 1.390 . S
N81 C82 1.345 . S
N81 C84 1.336 1_554 S
C82 N80 1.335 1_554 S
C82 N81 1.345 . S
C82 H87 0.930 . S
C83 N80 1.390 . S
C83 C84 1.346 . S
C83 H88 0.930 . S
C84 N81 1.336 1_556 S
C84 C83 1.346 . S
C84 H91 0.929 . S
C85 O75 1.282 . S
C85 O86 1.216 . S
O86 C85 1.216 . S
H87 C82 0.930 . S
H88 C83 0.930 . S
O89 Cu69 1.959 . S
O89 C76 1.251 . S
H90 C73 0.930 . S
H91 C84 0.929 . S
Cu92 N93 1.999 . S
Cu92 O98 1.974 . S
Cu92 N103 1.985 . S
Cu92 O112 1.959 . S
N93 Cu92 1.999 . S
N93 C95 1.263 . S
N93 C97 1.389 . S
N94 C95 1.358 1_556 S
N94 C96 1.400 1_556 S
C95 N93 1.263 . S
C95 N94 1.358 1_554 S
C95 H101 0.930 1_554 S
C96 N94 1.400 1_554 S
C96 C97 1.351 . S
C96 H113 0.930 . S
C97 N93 1.389 . S
C97 C96 1.351 . S
C97 H102 0.930 . S
O98 Cu92 1.974 . S
O98 C108 1.282 . S
C99 O100 1.261 . S
C99 O112 1.251 . S
O100 C99 1.261 . S
H101 C95 0.930 1_556 S
H102 C97 0.930 . S
N103 Cu92 1.985 . S
N103 C105 1.335 . S
N103 C106 1.390 . S
N104 C105 1.345 . S
N104 C107 1.336 . S
C105 N103 1.335 . S
C105 N104 1.345 . S
C105 H110 0.930 . S
C106 N103 1.390 . S
C106 C107 1.346 . S
C106 H111 0.930 . S
C107 N104 1.336 . S
C107 C106 1.346 . S
C107 H114 0.929 . S
C108 O98 1.282 . S
C108 O109 1.216 1_554 S
O109 C108 1.216 1_556 S
H110 C105 0.930 . S
H111 C106 0.930 . S
O112 Cu92 1.959 . S
O112 C99 1.251 . S
H113 C96 0.930 . S
H114 C107 0.929 . S
Cu115 N116 1.999 . S
Cu115 O121 1.974 . S
Cu115 N126 1.985 . S
Cu115 O135 1.959 . S
N116 Cu115 1.999 . S
N116 C118 1.263 . S
N116 C120 1.389 . S
N117 C118 1.358 1_554 S
N117 C119 1.400 1_554 S
C118 N116 1.263 . S
C118 N117 1.358 1_556 S
C118 H124 0.930 1_556 S
C119 N117 1.400 1_556 S
C119 C120 1.351 . S
C119 H136 0.930 . S
C120 N116 1.389 . S
C120 C119 1.351 . S
C120 H125 0.930 . S
O121 Cu115 1.974 . S
O121 C131 1.282 . S
C122 O123 1.261 . S
C122 O135 1.251 . S
O123 C122 1.261 . S
H124 C118 0.930 1_554 S
H125 C120 0.930 . S
N126 Cu115 1.985 . S
N126 C128 1.335 . S
N126 C129 1.390 . S
N127 C128 1.345 . S
N127 C130 1.336 . S
C128 N126 1.335 . S
C128 N127 1.345 . S
C128 H133 0.930 . S
C129 N126 1.390 . S
C129 C130 1.346 . S
C129 H134 0.930 . S
C130 N127 1.336 . S
C130 C129 1.346 . S
C130 H137 0.929 . S
C131 O121 1.282 . S
C131 O132 1.216 1_556 S
O132 C131 1.216 1_554 S
H133 C128 0.930 . S
H134 C129 0.930 . S
O135 Cu115 1.959 . S
O135 C122 1.251 . S
H136 C119 0.930 . S
H137 C130 0.929 . S
Cu138 N139 1.999 . S
Cu138 O144 1.974 . S
Cu138 N149 1.985 . S
Cu138 O158 1.959 . S
N139 Cu138 1.999 . S
N139 C141 1.263 . S
N139 C143 1.389 . S
N140 C141 1.358 1_556 S
N140 C142 1.400 1_556 S
C141 N139 1.263 . S
C141 N140 1.358 1_554 S
C141 H147 0.930 1_554 S
C142 N140 1.400 1_554 S
C142 C143 1.351 . S
C142 H159 0.930 . S
C143 N139 1.389 . S
C143 C142 1.351 . S
C143 H148 0.930 . S
O144 Cu138 1.974 . S
O144 C154 1.282 . S
C145 O146 1.261 . S
C145 O158 1.251 . S
O146 C145 1.261 . S
H147 C141 0.930 1_556 S
H148 C143 0.930 . S
N149 Cu138 1.985 . S
N149 C151 1.335 . S
N149 C152 1.390 . S
N150 C151 1.345 . S
N150 C153 1.336 . S
C151 N149 1.335 . S
C151 N150 1.345 . S
C151 H156 0.930 . S
C152 N149 1.390 . S
C152 C153 1.346 . S
C152 H157 0.930 . S
C153 N150 1.336 . S
C153 C152 1.346 . S
C153 H160 0.929 . S
C154 O144 1.282 . S
C154 O155 1.216 1_554 S
O155 C154 1.216 1_556 S
H156 C151 0.930 . S
H157 C152 0.930 . S
O158 Cu138 1.959 . S
O158 C145 1.251 . S
H159 C142 0.930 . S
H160 C153 0.929 . S
Cu161 N162 1.999 . S
Cu161 O167 1.974 . S
Cu161 N172 1.985 . S
Cu161 O181 1.959 . S
N162 Cu161 1.999 . S
N162 C164 1.263 . S
N162 C166 1.389 . S
N163 C164 1.358 1_554 S
N163 C165 1.400 1_554 S
C164 N162 1.263 . S
C164 N163 1.358 1_556 S
C164 H170 0.930 1_556 S
C165 N163 1.400 1_556 S
C165 C166 1.351 . S
C165 H182 0.930 . S
C166 N162 1.389 . S
C166 C165 1.351 . S
C166 H171 0.930 . S
O167 Cu161 1.974 . S
O167 C177 1.282 . S
C168 O169 1.261 . S
C168 O181 1.251 . S
O169 C168 1.261 . S
H170 C164 0.930 1_554 S
H171 C166 0.930 . S
N172 Cu161 1.985 . S
N172 C174 1.335 . S
N172 C175 1.390 . S
N173 C174 1.345 . S
N173 C176 1.336 . S
C174 N172 1.335 . S
C174 N173 1.345 . S
C174 H179 0.930 . S
C175 N172 1.390 . S
C175 C176 1.346 . S
C175 H180 0.930 . S
C176 N173 1.336 . S
C176 C175 1.346 . S
C176 H183 0.929 . S
C177 O167 1.282 . S
C177 O178 1.216 1_556 S
O178 C177 1.216 1_554 S
H179 C174 0.930 . S
H180 C175 0.930 . S
O181 Cu161 1.959 . S
O181 C168 1.251 . S
H182 C165 0.930 . S
H183 C176 0.929 . S
Cu184 N185 1.999 . S
Cu184 O190 1.974 . S
Cu184 N195 1.985 . S
Cu184 O204 1.959 . S
N185 Cu184 1.999 . S
N185 C187 1.263 . S
N185 C189 1.389 . S
N186 C187 1.358 . S
N186 C188 1.400 1_655 S
C187 N185 1.263 . S
C187 N186 1.358 . S
C187 H193 0.930 . S
C188 N186 1.400 1_455 S
C188 C189 1.351 1_455 S
C188 H205 0.930 . S
C189 N185 1.389 . S
C189 C188 1.351 1_655 S
C189 H194 0.930 . S
O190 Cu184 1.974 . S
O190 C200 1.282 . S
C191 O192 1.261 . S
C191 O204 1.251 . S
O192 C191 1.261 . S
H193 C187 0.930 . S
H194 C189 0.930 . S
N195 Cu184 1.985 . S
N195 C197 1.335 . S
N195 C198 1.390 . S
N196 C197 1.345 . S
N196 C199 1.336 . S
C197 N195 1.335 . S
C197 N196 1.345 . S
C197 H202 0.930 . S
C198 N195 1.390 . S
C198 C199 1.346 . S
C198 H203 0.930 . S
C199 N196 1.336 . S
C199 C198 1.346 . S
C199 H206 0.929 . S
C200 O190 1.282 . S
C200 O201 1.216 . S
O201 C200 1.216 . S
H202 C197 0.930 . S
H203 C198 0.930 . S
O204 Cu184 1.959 . S
O204 C191 1.251 . S
H205 C188 0.930 . S
H206 C199 0.929 . S
Cu207 N208 1.999 . S
Cu207 O213 1.974 . S
Cu207 N218 1.985 . S
Cu207 O227 1.959 . S
N208 Cu207 1.999 . S
N208 C210 1.263 . S
N208 C212 1.389 . S
N209 C210 1.358 . S
N209 C211 1.400 1_545 S
C210 N208 1.263 . S
C210 N209 1.358 . S
C210 H216 0.930 . S
C211 N209 1.400 1_565 S
C211 C212 1.351 1_565 S
C211 H228 0.930 . S
C212 N208 1.389 . S
C212 C211 1.351 1_545 S
C212 H217 0.930 . S
O213 Cu207 1.974 . S
O213 C223 1.282 . S
C214 O215 1.261 . S
C214 O227 1.251 . S
O215 C214 1.261 . S
H216 C210 0.930 . S
H217 C212 0.930 . S
N218 Cu207 1.985 . S
N218 C220 1.335 . S
N218 C221 1.390 . S
N219 C220 1.345 . S
N219 C222 1.336 . S
C220 N218 1.335 . S
C220 N219 1.345 . S
C220 H225 0.930 . S
C221 N218 1.390 . S
C221 C222 1.346 . S
C221 H226 0.930 . S
C222 N219 1.336 . S
C222 C221 1.346 . S
C222 H229 0.929 . S
C223 O213 1.282 . S
C223 O224 1.216 . S
O224 C223 1.216 . S
H225 C220 0.930 . S
H226 C221 0.930 . S
O227 Cu207 1.959 . S
O227 C214 1.251 . S
H228 C211 0.930 . S
H229 C222 0.929 . S
Cu230 N231 1.999 . S
Cu230 O236 1.974 . S
Cu230 N241 1.985 . S
Cu230 O250 1.959 . S
N231 Cu230 1.999 . S
N231 C233 1.263 . S
N231 C235 1.389 . S
N232 C233 1.358 . S
N232 C234 1.400 1_455 S
C233 N231 1.263 . S
C233 N232 1.358 . S
C233 H239 0.930 . S
C234 N232 1.400 1_655 S
C234 C235 1.351 1_655 S
C234 H251 0.930 . S
C235 N231 1.389 . S
C235 C234 1.351 1_455 S
C235 H240 0.930 . S
O236 Cu230 1.974 . S
O236 C246 1.282 . S
C237 O238 1.261 . S
C237 O250 1.251 . S
O238 C237 1.261 . S
H239 C233 0.930 . S
H240 C235 0.930 . S
N241 Cu230 1.985 . S
N241 C243 1.335 . S
N241 C244 1.390 . S
N242 C243 1.345 . S
N242 C245 1.336 . S
C243 N241 1.335 . S
C243 N242 1.345 . S
C243 H248 0.930 . S
C244 N241 1.390 . S
C244 C245 1.346 . S
C244 H249 0.930 . S
C245 N242 1.336 . S
C245 C244 1.346 . S
C245 H252 0.929 . S
C246 O236 1.282 . S
C246 O247 1.216 . S
O247 C246 1.216 . S
H248 C243 0.930 . S
H249 C244 0.930 . S
O250 Cu230 1.959 . S
O250 C237 1.251 . S
H251 C234 0.930 . S
H252 C245 0.929 . S
Cu253 N254 1.999 . S
Cu253 O259 1.974 . S
Cu253 N264 1.985 . S
Cu253 O273 1.959 . S
N254 Cu253 1.999 . S
N254 C256 1.263 . S
N254 C258 1.389 . S
N255 C256 1.358 . S
N255 C257 1.400 1_565 S
C256 N254 1.263 . S
C256 N255 1.358 . S
C256 H262 0.930 . S
C257 N255 1.400 1_545 S
C257 C258 1.351 1_545 S
C257 H274 0.930 . S
C258 N254 1.389 . S
C258 C257 1.351 1_565 S
C258 H263 0.930 . S
O259 Cu253 1.974 . S
O259 C269 1.282 . S
C260 O261 1.261 . S
C260 O273 1.251 . S
O261 C260 1.261 . S
H262 C256 0.930 . S
H263 C258 0.930 . S
N264 Cu253 1.985 . S
N264 C266 1.335 . S
N264 C267 1.390 . S
N265 C266 1.345 . S
N265 C268 1.336 . S
C266 N264 1.335 . S
C266 N265 1.345 . S
C266 H271 0.930 . S
C267 N264 1.390 . S
C267 C268 1.346 . S
C267 H272 0.930 . S
C268 N265 1.336 . S
C268 C267 1.346 . S
C268 H275 0.929 . S
C269 O259 1.282 . S
C269 O270 1.216 . S
O270 C269 1.216 . S
H271 C266 0.930 . S
H272 C267 0.930 . S
O273 Cu253 1.959 . S
O273 C260 1.251 . S
H274 C257 0.930 . S
H275 C268 0.929 . S
Cu276 N277 1.999 . S
Cu276 O282 1.974 . S
Cu276 N287 1.985 . S
Cu276 O296 1.959 . S
N277 Cu276 1.999 . S
N277 C279 1.263 . S
N277 C281 1.389 . S
N278 C279 1.358 . S
N278 C280 1.400 1_655 S
C279 N277 1.263 . S
C279 N278 1.358 . S
C279 H285 0.930 . S
C280 N278 1.400 1_455 S
C280 C281 1.351 1_455 S
C280 H297 0.930 . S
C281 N277 1.389 . S
C281 C280 1.351 1_655 S
C281 H286 0.930 . S
O282 Cu276 1.974 . S
O282 C292 1.282 . S
C283 O284 1.261 . S
C283 O296 1.251 . S
O284 C283 1.261 . S
H285 C279 0.930 . S
H286 C281 0.930 . S
N287 Cu276 1.985 . S
N287 C289 1.335 . S
N287 C290 1.390 . S
N288 C289 1.345 . S
N288 C291 1.336 . S
C289 N287 1.335 . S
C289 N288 1.345 . S
C289 H294 0.930 . S
C290 N287 1.390 . S
C290 C291 1.346 . S
C290 H295 0.930 . S
C291 N288 1.336 . S
C291 C290 1.346 . S
C291 H298 0.929 . S
C292 O282 1.282 . S
C292 O293 1.216 . S
O293 C292 1.216 . S
H294 C289 0.930 . S
H295 C290 0.930 . S
O296 Cu276 1.959 . S
O296 C283 1.251 . S
H297 C280 0.930 . S
H298 C291 0.929 . S
Cu299 N300 1.999 . S
Cu299 O305 1.974 . S
Cu299 N310 1.985 . S
Cu299 O319 1.959 . S
N300 Cu299 1.999 . S
N300 C302 1.263 . S
N300 C304 1.389 . S
N301 C302 1.358 . S
N301 C303 1.400 1_545 S
C302 N300 1.263 . S
C302 N301 1.358 . S
C302 H308 0.930 . S
C303 N301 1.400 1_565 S
C303 C304 1.351 1_565 S
C303 H320 0.930 . S
C304 N300 1.389 . S
C304 C303 1.351 1_545 S
C304 H309 0.930 . S
O305 Cu299 1.974 . S
O305 C315 1.282 . S
C306 O307 1.261 . S
C306 O319 1.251 . S
O307 C306 1.261 . S
H308 C302 0.930 . S
H309 C304 0.930 . S
N310 Cu299 1.985 . S
N310 C312 1.335 . S
N310 C313 1.390 . S
N311 C312 1.345 . S
N311 C314 1.336 . S
C312 N310 1.335 . S
C312 N311 1.345 . S
C312 H317 0.930 . S
C313 N310 1.390 . S
C313 C314 1.346 . S
C313 H318 0.930 . S
C314 N311 1.336 . S
C314 C313 1.346 . S
C314 H321 0.929 . S
C315 O305 1.282 . S
C315 O316 1.216 . S
O316 C315 1.216 . S
H317 C312 0.930 . S
H318 C313 0.930 . S
O319 Cu299 1.959 . S
O319 C306 1.251 . S
H320 C303 0.930 . S
H321 C314 0.929 . S
Cu322 N323 1.999 . S
Cu322 O328 1.974 . S
Cu322 N333 1.985 . S
Cu322 O342 1.959 . S
N323 Cu322 1.999 . S
N323 C325 1.263 . S
N323 C327 1.389 . S
N324 C325 1.358 . S
N324 C326 1.400 1_455 S
C325 N323 1.263 . S
C325 N324 1.358 . S
C325 H331 0.930 . S
C326 N324 1.400 1_655 S
C326 C327 1.351 1_655 S
C326 H343 0.930 . S
C327 N323 1.389 . S
C327 C326 1.351 1_455 S
C327 H332 0.930 . S
O328 Cu322 1.974 . S
O328 C338 1.282 . S
C329 O330 1.261 . S
C329 O342 1.251 . S
O330 C329 1.261 . S
H331 C325 0.930 . S
H332 C327 0.930 . S
N333 Cu322 1.985 . S
N333 C335 1.335 . S
N333 C336 1.390 . S
N334 C335 1.345 . S
N334 C337 1.336 . S
C335 N333 1.335 . S
C335 N334 1.345 . S
C335 H340 0.930 . S
C336 N333 1.390 . S
C336 C337 1.346 . S
C336 H341 0.930 . S
C337 N334 1.336 . S
C337 C336 1.346 . S
C337 H344 0.929 . S
C338 O328 1.282 . S
C338 O339 1.216 . S
O339 C338 1.216 . S
H340 C335 0.930 . S
H341 C336 0.930 . S
O342 Cu322 1.959 . S
O342 C329 1.251 . S
H343 C326 0.930 . S
H344 C337 0.929 . S
Cu345 N346 1.999 . S
Cu345 O351 1.974 . S
Cu345 N356 1.985 . S
Cu345 O365 1.959 . S
N346 Cu345 1.999 . S
N346 C348 1.263 . S
N346 C350 1.389 . S
N347 C348 1.358 . S
N347 C349 1.400 1_565 S
C348 N346 1.263 . S
C348 N347 1.358 . S
C348 H354 0.930 . S
C349 N347 1.400 1_545 S
C349 C350 1.351 1_545 S
C349 H366 0.930 . S
C350 N346 1.389 . S
C350 C349 1.351 1_565 S
C350 H355 0.930 . S
O351 Cu345 1.974 . S
O351 C361 1.282 . S
C352 O353 1.261 . S
C352 O365 1.251 . S
O353 C352 1.261 . S
H354 C348 0.930 . S
H355 C350 0.930 . S
N356 Cu345 1.985 . S
N356 C358 1.335 . S
N356 C359 1.390 . S
N357 C358 1.345 . S
N357 C360 1.336 . S
C358 N356 1.335 . S
C358 N357 1.345 . S
C358 H363 0.930 . S
C359 N356 1.390 . S
C359 C360 1.346 . S
C359 H364 0.930 . S
C360 N357 1.336 . S
C360 C359 1.346 . S
C360 H367 0.929 . S
C361 O351 1.282 . S
C361 O362 1.216 . S
O362 C361 1.216 . S
H363 C358 0.930 . S
H364 C359 0.930 . S
O365 Cu345 1.959 . S
O365 C352 1.251 . S
H366 C349 0.930 . S
H367 C360 0.929 . S
N255 C16 1.520 1_565 S
C39 N186 1.520 1_455 S
C62 N209 1.520 1_565 S
N232 C85 1.521 1_455 S
C108 N117 1.521 . S
C131 N140 1.520 . S
N163 C154 1.520 . S
N94 C177 1.520 . S
N71 C200 1.520 . S
C223 N2 1.520 . S
N25 C246 1.520 . S
C269 N48 1.521 . S
C292 N301 1.521 1_565 S
C315 N324 1.520 1_655 S
N347 C338 1.520 1_565 S
N278 C361 1.520 1_655 S
C99 C7 1.433 . S
C30 C122 1.433 . S
C53 C145 1.433 . S
C168 C76 1.433 . S
C191 C283 1.433 . S
C306 C214 1.433 . S
C237 C329 1.433 . S
C352 C260 1.433 . S
N334 N12 2.166 . S
N357 N35 2.166 . S
N58 N288 2.167 . S
N311 N81 2.167 . S
N242 N104 2.167 . S
N265 N127 2.167 . S
N150 N196 2.166 . S
N219 N173 2.166 . S
