# Generated by pormake.
# Topology vbm, (6)-cn, num edge types: 1
# Building blocks:
#     Node 0, Type 0, BuildingBlock: GEDQOX_clean_sbu_0, # of connection points: 6
#     Node 1, Type 0, BuildingBlock: GEDQOX_clean_sbu_0, # of connection points: 6
#     Node 2, Type 0, BuildingBlock: GEDQOX_clean_sbu_0, # of connection points: 6
#     Node 3, Type 0, BuildingBlock: GEDQOX_clean_sbu_0, # of connection points: 6
#     Node 4, Type 0, BuildingBlock: GEDQOX_clean_sbu_0, # of connection points: 6
#     Node 5, Type 0, BuildingBlock: GEDQOX_clean_sbu_0, # of connection points: 6
#     Node 6, Type 0, BuildingBlock: GEDQOX_clean_sbu_0, # of connection points: 6
#     Node 7, Type 0, BuildingBlock: GEDQOX_clean_sbu_0, # of connection points: 6
#     Node 8, Type 0, BuildingBlock: GEDQOX_clean_sbu_0, # of connection points: 6
#     Node 9, Type 0, BuildingBlock: GEDQOX_clean_sbu_0, # of connection points: 6
#     Node 10, Type 0, BuildingBlock: GEDQOX_clean_sbu_0, # of connection points: 6
#     Node 11, Type 0, BuildingBlock: GEDQOX_clean_sbu_0, # of connection points: 6
#     Node 12, Type 0, BuildingBlock: GEDQOX_clean_sbu_0, # of connection points: 6
#     Node 13, Type 0, BuildingBlock: GEDQOX_clean_sbu_0, # of connection points: 6
#     Node 14, Type 0, BuildingBlock: GEDQOX_clean_sbu_0, # of connection points: 6
#     Node 15, Type 0, BuildingBlock: GEDQOX_clean_sbu_0, # of connection points: 6
#     Edge 16, Type (0, 0), BuildingBlock: AJUNOK_clean_linker_0, # of connection points: 2
#     Edge 17, Type (0, 0), BuildingBlock: AJUNOK_clean_linker_0, # of connection points: 2
#     Edge 18, Type (0, 0), BuildingBlock: AJUNOK_clean_linker_0, # of connection points: 2
#     Edge 19, Type (0, 0), BuildingBlock: AJUNOK_clean_linker_0, # of connection points: 2
#     Edge 20, Type (0, 0), BuildingBlock: AJUNOK_clean_linker_0, # of connection points: 2
#     Edge 21, Type (0, 0), BuildingBlock: AJUNOK_clean_linker_0, # of connection points: 2
#     Edge 22, Type (0, 0), BuildingBlock: AJUNOK_clean_linker_0, # of connection points: 2
#     Edge 23, Type (0, 0), BuildingBlock: AJUNOK_clean_linker_0, # of connection points: 2
#     Edge 24, Type (0, 0), BuildingBlock: AJUNOK_clean_linker_0, # of connection points: 2
#     Edge 25, Type (0, 0), BuildingBlock: AJUNOK_clean_linker_0, # of connection points: 2
#     Edge 26, Type (0, 0), BuildingBlock: AJUNOK_clean_linker_0, # of connection points: 2
#     Edge 27, Type (0, 0), BuildingBlock: AJUNOK_clean_linker_0, # of connection points: 2
#     Edge 28, Type (0, 0), BuildingBlock: AJUNOK_clean_linker_0, # of connection points: 2
#     Edge 29, Type (0, 0), BuildingBlock: AJUNOK_clean_linker_0, # of connection points: 2
#     Edge 30, Type (0, 0), BuildingBlock: AJUNOK_clean_linker_0, # of connection points: 2
#     Edge 31, Type (0, 0), BuildingBlock: AJUNOK_clean_linker_0, # of connection points: 2
#     Edge 32, Type (0, 0), BuildingBlock: AJUNOK_clean_linker_0, # of connection points: 2
#     Edge 33, Type (0, 0), BuildingBlock: AJUNOK_clean_linker_0, # of connection points: 2
#     Edge 34, Type (0, 0), BuildingBlock: AJUNOK_clean_linker_0, # of connection points: 2
#     Edge 35, Type (0, 0), BuildingBlock: AJUNOK_clean_linker_0, # of connection points: 2
#     Edge 36, Type (0, 0), BuildingBlock: AJUNOK_clean_linker_0, # of connection points: 2
#     Edge 37, Type (0, 0), BuildingBlock: AJUNOK_clean_linker_0, # of connection points: 2
#     Edge 38, Type (0, 0), BuildingBlock: AJUNOK_clean_linker_0, # of connection points: 2
#     Edge 39, Type (0, 0), BuildingBlock: AJUNOK_clean_linker_0, # of connection points: 2
#     Edge 40, Type (0, 0), BuildingBlock: AJUNOK_clean_linker_0, # of connection points: 2
#     Edge 41, Type (0, 0), BuildingBlock: AJUNOK_clean_linker_0, # of connection points: 2
#     Edge 42, Type (0, 0), BuildingBlock: AJUNOK_clean_linker_0, # of connection points: 2
#     Edge 43, Type (0, 0), BuildingBlock: AJUNOK_clean_linker_0, # of connection points: 2
#     Edge 44, Type (0, 0), BuildingBlock: AJUNOK_clean_linker_0, # of connection points: 2
#     Edge 45, Type (0, 0), BuildingBlock: AJUNOK_clean_linker_0, # of connection points: 2
#     Edge 46, Type (0, 0), BuildingBlock: AJUNOK_clean_linker_0, # of connection points: 2
#     Edge 47, Type (0, 0), BuildingBlock: AJUNOK_clean_linker_0, # of connection points: 2
#     Edge 48, Type (0, 0), BuildingBlock: AJUNOK_clean_linker_0, # of connection points: 2
#     Edge 49, Type (0, 0), BuildingBlock: AJUNOK_clean_linker_0, # of connection points: 2
#     Edge 50, Type (0, 0), BuildingBlock: AJUNOK_clean_linker_0, # of connection points: 2
#     Edge 51, Type (0, 0), BuildingBlock: AJUNOK_clean_linker_0, # of connection points: 2
#     Edge 52, Type (0, 0), BuildingBlock: AJUNOK_clean_linker_0, # of connection points: 2
#     Edge 53, Type (0, 0), BuildingBlock: AJUNOK_clean_linker_0, # of connection points: 2
#     Edge 54, Type (0, 0), BuildingBlock: AJUNOK_clean_linker_0, # of connection points: 2
#     Edge 55, Type (0, 0), BuildingBlock: AJUNOK_clean_linker_0, # of connection points: 2
#     Edge 56, Type (0, 0), BuildingBlock: AJUNOK_clean_linker_0, # of connection points: 2
#     Edge 57, Type (0, 0), BuildingBlock: AJUNOK_clean_linker_0, # of connection points: 2
#     Edge 58, Type (0, 0), BuildingBlock: AJUNOK_clean_linker_0, # of connection points: 2
#     Edge 59, Type (0, 0), BuildingBlock: AJUNOK_clean_linker_0, # of connection points: 2
#     Edge 60, Type (0, 0), BuildingBlock: AJUNOK_clean_linker_0, # of connection points: 2
#     Edge 61, Type (0, 0), BuildingBlock: AJUNOK_clean_linker_0, # of connection points: 2
#     Edge 62, Type (0, 0), BuildingBlock: AJUNOK_clean_linker_0, # of connection points: 2
#     Edge 63, Type (0, 0), BuildingBlock: AJUNOK_clean_linker_0, # of connection points: 2
# Relax obj value: 0.197
# Max RMSD: 0.214
# Mean RMSD: 0.214
data_MOF--net-vbm--node1-GEDQOX_clean_sbu_0--edge1-AJUNOK_clean_linker_0
_symmetry_space_group_name_H-M    P1
_symmetry_Int_Tables_number       1
_symmetry_cell_setting            triclinic
loop_
_symmetry_equiv_pos_as_xyz
'x, y, z'
_cell_length_a     89.413134
_cell_length_b     11.598723
_cell_length_c     42.975204
_cell_angle_alpha  89.955995
_cell_angle_beta   89.913702
_cell_angle_gamma 90.115594
loop_
_atom_site_label
_atom_site_type_symbol
_atom_site_fract_x
_atom_site_fract_y
_atom_site_fract_z
_atom_type_partial_charge
Nd0 Nd 0.12235 0.14142 0.12909 0.0
Nd1 Nd 0.15721 0.13942 0.13099 0.0
C2 C 0.09337 0.10497 0.13316 0.0
C3 C 0.07707 0.08473 0.13463 0.0
C4 C 0.0698 0.07 0.16334 0.0
C5 C 0.05421 0.05849 0.16464 0.0
C6 C 0.04564 0.06219 0.13723 0.0
C7 C 0.05304 0.07261 0.10847 0.0
C8 C 0.06859 0.08329 0.10718 0.0
C9 C 0.13625 0.18361 0.07258 0.0
C10 C 0.14006 0.89307 0.13098 0.0
C11 C 0.18587 0.15867 0.11541 0.0
C12 C 0.20077 0.21018 0.12247 0.0
C13 C 0.20847 0.26873 0.09871 0.0
C14 C 0.22354 0.29936 0.10224 0.0
C15 C 0.23136 0.27251 0.1297 0.0
C16 C 0.22338 0.22117 0.15439 0.0
C17 C 0.20825 0.19003 0.1508 0.0
C18 C 0.14652 0.12833 0.19182 0.0
C19 C 0.13878 0.38734 0.13577 0.0
O20 O 0.10096 0.15279 0.15584 0.0
O21 O 0.10119 0.07816 0.10846 0.0
O22 O 0.12475 0.23928 0.08318 0.0
O23 O 0.1403 0.10775 0.09216 0.0
O24 O 0.12782 0.95122 0.13771 0.0
O25 O 0.1526 0.94626 0.12297 0.0
O26 O 0.1754 0.22548 0.10407 0.0
O27 O 0.18064 0.0774 0.13366 0.0
O28 O 0.16055 0.13543 0.1846 0.0
O29 O 0.1389 0.1341 0.16731 0.0
O30 O 0.15125 0.33297 0.128 0.0
O31 O 0.12628 0.33057 0.14199 0.0
H32 H 0.07613 0.06937 0.18481 0.0
H33 H 0.04883 1.05129 0.18716 0.0
H34 H 0.04674 0.07449 0.08695 0.0
H35 H 0.07394 0.09385 0.08471 0.0
H36 H 0.20302 0.28581 0.07668 0.0
H37 H 0.22927 0.34028 0.08292 0.0
H38 H 0.22904 0.19887 0.17581 0.0
H39 H 0.20264 0.14553 0.16966 0.0
Nd40 Nd 0.90504 0.96263 0.12839 0.0
Nd41 Nd 0.8711 0.96702 0.13275 0.0
C42 C 0.93448 0.97895 0.12739 0.0
C43 C 0.94967 1.02693 0.13094 0.0
C44 C 0.95597 1.04829 0.16032 0.0
C45 C 0.97135 0.06948 0.1631 0.0
C46 C 0.98057 0.06943 0.13656 0.0
C47 C 0.97406 0.05601 0.10712 0.0
C48 C 0.95876 1.03458 0.10437 0.0
C49 C 0.89022 0.92563 0.07264 0.0
C50 C 0.88835 0.21299 0.13135 0.0
C51 C 0.84253 0.95098 0.11682 0.0
C52 C 0.82762 0.90098 0.12413 0.0
C53 C 0.82028 0.8346 0.10146 0.0
C54 C 0.80521 0.80399 0.10511 0.0
C55 C 0.79709 0.83935 0.1315 0.0
C56 C 0.80472 0.89947 0.15511 0.0
C57 C 0.81982 0.9299 0.15148 0.0
C58 C 0.88156 0.97726 0.19366 0.0
C59 C 0.88884 0.71794 0.13637 0.0
O60 O 0.92704 0.9404 0.15155 0.0
O61 O 0.92605 1.01236 0.10428 0.0
O62 O 0.90122 0.86368 0.08268 0.0
O63 O 0.88701 1.00188 0.09259 0.0
O64 O 0.90069 0.15456 0.13712 0.0
O65 O 0.87564 0.15986 0.12489 0.0
O66 O 0.85289 0.88216 0.10594 0.0
O67 O 0.84785 1.03247 0.13482 0.0
O68 O 0.86758 0.97046 0.18599 0.0
O69 O 0.88963 0.97146 0.16951 0.0
O70 O 0.87636 0.77242 0.12914 0.0
O71 O 0.90123 0.77524 0.14231 0.0
H72 H 0.94919 1.04327 0.18119 0.0
H73 H 0.97614 0.08147 0.18601 0.0
H74 H 0.98094 1.05521 0.08635 0.0
H75 H 0.9542 1.01732 0.08148 0.0
H76 H 0.82599 0.81098 0.08015 0.0
H77 H 0.79974 0.75643 0.08665 0.0
H78 H 0.7988 0.92913 0.17558 0.0
H79 H 0.82515 0.9808 0.16945 0.0
Nd80 Nd 0.123 0.9572 0.37834 0.0
Nd81 Nd 0.15584 0.96906 0.37993 0.0
C82 C 0.09341 0.9693 0.37129 0.0
C83 C 0.07791 1.01599 0.37372 0.0
C84 C 0.07032 1.05312 0.34686 0.0
C85 C 0.05478 0.07136 0.34737 0.0
C86 C 0.04646 1.05174 0.3747 0.0
C87 C 0.05417 1.02135 0.40196 0.0
C88 C 0.06969 1.00416 0.40154 0.0
C89 C 0.13532 0.93282 0.43753 0.0
C90 C 0.13894 0.21098 0.38273 0.0
C91 C 0.1852 0.94968 0.39012 0.0
C92 C 0.20005 0.89383 0.38464 0.0
C93 C 0.2075 0.83914 0.40936 0.0
C94 C 0.22271 0.81 0.40695 0.0
C95 C 0.23094 0.83498 0.37975 0.0
C96 C 0.22323 0.8831 0.35433 0.0
C97 C 0.20801 0.91197 0.35672 0.0
C98 C 0.14472 1.01788 0.32167 0.0
C99 C 0.13933 0.71514 0.37262 0.0
O100 O 0.1028 1.00449 0.34993 0.0
O101 O 0.10002 0.93019 0.39616 0.0
O102 O 0.1249 0.86777 0.42624 0.0
O103 O 0.1391 1.00775 0.41773 0.0
O104 O 0.12725 0.15177 0.37295 0.0
O105 O 0.15085 0.15687 0.39355 0.0
O106 O 0.17512 0.90033 0.4078 0.0
O107 O 0.17931 1.01078 0.36782 0.0
O108 O 0.1561 0.06673 0.33461 0.0
O109 O 0.13974 0.93586 0.33865 0.0
O110 O 0.15123 0.77232 0.38226 0.0
O111 O 0.12722 0.77084 0.36405 0.0
H112 H 0.07625 0.06194 0.32499 0.0
H113 H 0.04917 0.09437 0.32593 0.0
H114 H 0.04809 1.007 0.42345 0.0
H115 H 0.07509 0.97547 0.4227 0.0
H116 H 0.20178 0.82427 0.43124 0.0
H117 H 0.22819 0.77149 0.42687 0.0
H118 H 0.22915 0.90494 0.33313 0.0
H119 H 0.20273 0.95443 0.33717 0.0
Nd120 Nd 0.9064 0.15096 0.37551 0.0
Nd121 Nd 0.86978 0.15591 0.3791 0.0
C122 C 0.93495 0.14056 0.35868 0.0
C123 C 0.95013 0.09437 0.36545 0.0
C124 C 0.95843 1.04575 0.34098 0.0
C125 C 0.97374 1.02322 0.34441 0.0
C126 C 0.98105 1.04823 0.37246 0.0
C127 C 0.9726 0.0888 0.39777 0.0
C128 C 0.95725 0.11179 0.39433 0.0
C129 C 0.89602 0.14413 0.43743 0.0
C130 C 0.88783 0.90741 0.37938 0.0
C131 C 0.84141 0.17413 0.39639 0.0
C132 C 0.8266 0.22642 0.39027 0.0
C133 C 0.81817 0.26557 0.41566 0.0
C134 C 0.80311 0.295 0.41205 0.0
C135 C 0.79611 0.28586 0.38287 0.0
C136 C 0.80492 0.25598 0.35688 0.0
C137 C 0.82001 0.22568 0.36056 0.0
C138 C 0.88073 0.14027 0.31865 0.0
C139 C 0.88855 0.40155 0.37625 0.0
O140 O 0.92471 0.07038 0.34771 0.0
O141 O 0.9295 0.22027 0.37708 0.0
O142 O 0.91 0.14722 0.42932 0.0
O143 O 0.88861 0.14043 0.41255 0.0
O144 O 0.89999 0.96069 0.3692 0.0
O145 O 0.87582 0.96448 0.38925 0.0
O146 O 0.85205 0.23949 0.40771 0.0
O147 O 0.8463 0.09549 0.37706 0.0
O148 O 0.86693 0.12247 0.32665 0.0
O149 O 0.88746 0.1849 0.34176 0.0
O150 O 0.87582 0.34806 0.38281 0.0
O151 O 0.90102 0.34557 0.36866 0.0
H152 H 0.95327 1.03148 0.31852 0.0
H153 H 0.98004 0.99228 0.32457 0.0
H154 H 0.97804 0.10887 0.41962 0.0
H155 H 0.95117 0.14863 0.41373 0.0
H156 H 0.82302 0.26752 0.43875 0.0
H157 H 0.79674 0.31858 0.43253 0.0
H158 H 0.80002 0.25236 0.33387 0.0
H159 H 0.82632 0.1975 0.34043 0.0
Nd160 Nd 0.87096 0.95794 0.87806 0.0
Nd161 Nd 0.90493 0.95446 0.88161 0.0
C162 C 0.8424 0.94071 0.89432 0.0
C163 C 0.82756 0.88829 0.88768 0.0
C164 C 0.82011 0.82772 0.91149 0.0
C165 C 0.80504 0.79644 0.9083 0.0
C166 C 0.79712 0.82586 0.8813 0.0
C167 C 0.80477 0.87949 0.85664 0.0
C168 C 0.81989 0.91008 0.85972 0.0
C169 C 0.88109 0.97595 0.81694 0.0
C170 C 0.88876 0.70904 0.87413 0.0
C171 C 0.9344 0.97209 0.88173 0.0
C172 C 0.94953 1.02265 0.87919 0.0
C173 C 0.95584 1.05355 0.8504 0.0
C174 C 0.97121 0.07663 0.84811 0.0
C175 C 0.98049 0.06749 0.87446 0.0
C176 C 0.9739 1.04536 0.90352 0.0
C177 C 0.9586 1.02311 0.90583 0.0
C178 C 0.89014 0.91956 0.93772 0.0
C179 C 0.88808 0.20488 0.88004 0.0
O180 O 0.85289 0.87465 0.90584 0.0
O181 O 0.84756 1.02025 0.87545 0.0
O182 O 0.86722 0.9662 0.82533 0.0
O183 O 0.88934 0.96706 0.84077 0.0
O184 O 0.87621 0.76338 0.8809 0.0
O185 O 0.90121 0.76612 0.86836 0.0
O186 O 0.92679 0.94256 0.85693 0.0
O187 O 0.9261 0.99547 0.90595 0.0
O188 O 0.90109 0.85679 0.92771 0.0
O189 O 0.88701 0.99508 0.91756 0.0
O190 O 0.90054 0.14738 0.87458 0.0
O191 O 0.87531 0.15117 0.88584 0.0
H192 H 0.82573 0.81 0.9333 0.0
H193 H 0.79935 0.75542 0.92765 0.0
H194 H 0.79886 0.90237 0.83555 0.0
H195 H 0.82532 0.95573 0.84082 0.0
H196 H 0.94909 1.05458 0.82951 0.0
H197 H 0.97594 0.09666 0.82553 0.0
H198 H 0.98072 1.03774 0.92423 0.0
H199 H 0.95403 0.99896 0.92829 0.0
Nd200 Nd 0.15745 0.15553 0.87993 0.0
Nd201 Nd 0.12069 0.14433 0.87916 0.0
C202 C 0.18579 0.16858 0.89701 0.0
C203 C 0.20052 0.2224 0.89066 0.0
C204 C 0.20889 0.26343 0.9159 0.0
C205 C 0.22392 0.29387 0.91217 0.0
C206 C 0.23096 0.28405 0.883 0.0
C207 C 0.22218 0.25295 0.8571 0.0
C208 C 0.20711 0.22167 0.8609 0.0
C209 C 0.14674 0.15004 0.81881 0.0
C210 C 0.13835 0.39773 0.87927 0.0
C211 C 0.09241 0.14098 0.86165 0.0
C212 C 0.07702 0.09712 0.86544 0.0
C213 C 0.06854 0.08034 0.83849 0.0
C214 C 0.05315 0.06217 0.84032 0.0
C215 C 0.04584 0.05714 0.86931 0.0
C216 C 0.05458 0.06607 0.89655 0.0
C217 C 0.07004 0.08687 0.89464 0.0
C218 C 0.13194 0.13399 0.93976 0.0
C219 C 0.13947 0.90188 0.88099 0.0
O220 O 0.17529 0.23295 0.90927 0.0
O221 O 0.18072 0.09193 0.87722 0.0
O222 O 0.16069 0.16189 0.82658 0.0
O223 O 0.1392 0.15588 0.84375 0.0
O224 O 0.15132 0.34701 0.88473 0.0
O225 O 0.12588 0.3398 0.87293 0.0
O226 O 0.10256 0.07332 0.84937 0.0
O227 O 0.09768 0.21191 0.88271 0.0
O228 O 0.11777 0.13269 0.9331 0.0
O229 O 0.13903 0.13858 0.91446 0.0
O230 O 0.12656 0.95264 0.87484 0.0
O231 O 0.15203 0.95989 0.88715 0.0
H232 H 0.20402 0.26588 0.939 0.0
H233 H 0.23025 0.31855 0.93257 0.0
H234 H 0.2271 0.24897 0.83408 0.0
H235 H 0.20083 0.19254 0.84085 0.0
H236 H 0.07369 0.08862 0.81575 0.0
H237 H 0.04692 0.0595 0.81878 0.0
H238 H 0.04939 0.0611 0.9193 0.0
H239 H 0.07637 0.09932 0.91585 0.0
Nd240 Nd 0.8688 0.15395 0.63106 0.0
Nd241 Nd 0.90538 0.14685 0.63071 0.0
C242 C 0.84038 0.16548 0.61404 0.0
C243 C 0.82547 0.21714 0.62008 0.0
C244 C 0.81765 0.26564 0.59503 0.0
C245 C 0.80258 0.29595 0.59803 0.0
C246 C 0.79494 0.27966 0.62636 0.0
C247 C 0.80306 0.23771 0.65207 0.0
C248 C 0.81817 0.2066 0.64898 0.0
C249 C 0.87975 0.14837 0.69174 0.0
C250 C 0.88747 0.39896 0.63382 0.0
C251 C 0.93374 0.14224 0.64806 0.0
C252 C 0.94919 0.09859 0.6447 0.0
C253 C 0.95733 0.07937 0.6719 0.0
C254 C 0.9728 0.06432 0.67093 0.0
C255 C 0.98069 0.06079 0.64241 0.0
C256 C 0.97207 0.06933 0.6148 0.0
C257 C 0.95659 0.09094 0.61593 0.0
C258 C 0.89464 0.14665 0.56991 0.0
C259 C 0.88671 0.90222 0.62831 0.0
O260 O 0.85085 0.23108 0.60196 0.0
O261 O 0.84553 0.08895 0.63375 0.0
O262 O 0.8657 0.15805 0.68457 0.0
O263 O 0.88725 0.15016 0.66676 0.0
O264 O 0.8744 0.3474 0.63005 0.0
O265 O 0.90025 0.34195 0.63716 0.0
O266 O 0.92351 0.07501 0.66032 0.0
O267 O 0.92853 0.2136 0.6271 0.0
O268 O 0.90866 0.14149 0.57757 0.0
O269 O 0.88691 0.1467 0.59467 0.0
O270 O 0.8998 0.95366 0.63229 0.0
O271 O 0.87394 0.95906 0.62451 0.0
H272 H 0.82299 0.27443 0.57249 0.0
H273 H 0.79673 0.32596 0.57755 0.0
H274 H 0.79759 0.22562 0.67435 0.0
H275 H 0.82393 0.17027 0.66884 0.0
H276 H 0.95185 0.08483 0.69437 0.0
H277 H 0.97836 0.0642 0.69311 0.0
H278 H 0.97723 0.06312 0.5921 0.0
H279 H 0.95054 0.10489 0.59444 0.0
Nd280 Nd 0.15678 0.96488 0.63204 0.0
Nd281 Nd 0.12287 0.96111 0.62854 0.0
C282 C 0.18536 0.9456 0.61576 0.0
C283 C 0.20019 0.8915 0.6217 0.0
C284 C 0.20772 0.83824 0.59682 0.0
C285 C 0.22279 0.80666 0.59948 0.0
C286 C 0.23065 0.82672 0.6272 0.0
C287 C 0.22291 0.87223 0.65288 0.0
C288 C 0.2078 0.90462 0.65017 0.0
C289 C 0.14698 0.97645 0.69324 0.0
C290 C 0.13905 0.71543 0.63658 0.0
C291 C 0.09343 0.98059 0.6276 0.0
C292 C 0.07775 1.01954 0.62995 0.0
C293 C 0.07183 0.0681 0.65722 0.0
C294 C 0.05643 0.09043 0.65957 0.0
C295 C 0.04666 0.06234 0.63493 0.0
C296 C 0.05285 1.01964 0.60715 0.0
C297 C 0.06819 0.99883 0.6047 0.0
C298 C 0.13752 0.92401 0.57248 0.0
C299 C 0.14 0.21186 0.63074 0.0
O300 O 0.1747 0.88188 0.60384 0.0
O301 O 0.18038 1.02387 0.63515 0.0
O302 O 0.1608 0.96933 0.68448 0.0
O303 O 0.13837 0.97083 0.66982 0.0
O304 O 0.15154 0.77082 0.6299 0.0
O305 O 0.12637 0.77098 0.64116 0.0
O306 O 0.10084 0.94717 0.65229 0.0
O307 O 0.10182 1.00831 0.60383 0.0
O308 O 0.12665 0.86113 0.58296 0.0
O309 O 0.14074 1.00055 0.59235 0.0
O310 O 0.12738 0.15507 0.63551 0.0
O311 O 0.15267 0.15773 0.62484 0.0
H312 H 0.20216 0.82688 0.57464 0.0
H313 H 0.22853 0.77182 0.57936 0.0
H314 H 0.22876 0.88866 0.67448 0.0
H315 H 0.20233 0.94483 0.66986 0.0
H316 H 0.07902 0.08618 0.6769 0.0
H317 H 0.05214 0.12715 0.68094 0.0
H318 H 0.04574 0.99695 0.58771 0.0
H319 H 0.07251 0.96163 0.58338 0.0
Nd320 Nd 0.62049 0.64455 0.13051 0.0
Nd321 Nd 0.65736 0.65209 0.1331 0.0
C322 C 0.59215 0.63591 0.14767 0.0
C323 C 0.57711 0.58765 0.1417 0.0
C324 C 0.56922 0.53799 0.16662 0.0
C325 C 0.5539 0.51544 0.16408 0.0
C326 C 0.54627 0.54276 0.13661 0.0
C327 C 0.55433 0.58369 0.11081 0.0
C328 C 0.56969 0.60563 0.11326 0.0
C329 C 0.63249 0.63936 0.07078 0.0
C330 C 0.63928 0.40021 0.12912 0.0
C331 C 0.6859 0.6668 0.11715 0.0
C332 C 0.70078 0.71985 0.12223 0.0
C333 C 0.7099 0.73789 0.09628 0.0
C334 C 0.72496 0.76702 0.09974 0.0
C335 C 0.73142 0.78377 0.12944 0.0
C336 C 0.72168 0.77623 0.15545 0.0
C337 C 0.70666 0.74175 0.15194 0.0
C338 C 0.64485 0.64428 0.19273 0.0
C339 C 0.6384 0.89661 0.13486 0.0
O340 O 0.60239 0.56808 0.1595 0.0
O341 O 0.59747 0.7122 0.128 0.0
O342 O 0.61824 0.6378 0.07682 0.0
O343 O 0.63954 0.64132 0.09632 0.0
O344 O 0.62613 0.45164 0.13194 0.0
O345 O 0.65218 0.45713 0.1265 0.0
O346 O 0.67542 0.72867 0.10392 0.0
O347 O 0.6808 0.59402 0.13799 0.0
O348 O 0.65914 0.64639 0.18707 0.0
O349 O 0.63833 0.65318 0.16677 0.0
O350 O 0.65159 0.84515 0.13314 0.0
O351 O 0.6255 0.83977 0.13602 0.0
H352 H 0.57469 0.52353 0.18876 0.0
H353 H 0.54784 0.48412 0.18424 0.0
H354 H 0.54859 0.60477 0.08937 0.0
H355 H 0.57551 0.64294 0.09355 0.0
H356 H 0.70557 0.72288 0.07308 0.0
H357 H 0.73155 0.77035 0.07869 0.0
H358 H 0.72544 0.79596 0.17868 0.0
H359 H 0.69975 0.73043 0.17245 0.0
Nd360 Nd 0.40502 0.45721 0.12984 0.0
Nd361 Nd 0.37121 0.45996 0.13064 0.0
C362 C 0.43426 0.48785 0.12987 0.0
C363 C 0.4503 0.51742 0.13226 0.0
C364 C 0.45699 0.5498 0.16054 0.0
C365 C 0.4725 0.56831 0.16209 0.0
C366 C 0.48143 0.55407 0.13541 0.0
C367 C 0.4746 0.52818 0.10695 0.0
C368 C 0.45918 0.51081 0.10535 0.0
C369 C 0.39141 0.42187 0.07245 0.0
C370 C 0.38827 0.70666 0.13 0.0
C371 C 0.34275 0.44476 0.11336 0.0
C372 C 0.32751 0.39775 0.11884 0.0
C373 C 0.31806 0.38524 0.09315 0.0
C374 C 0.30298 0.35619 0.097 0.0
C375 C 0.29684 0.33586 0.12679 0.0
C376 C 0.30669 0.34087 0.15252 0.0
C377 C 0.32181 0.37318 0.14864 0.0
C378 C 0.37971 0.4792 0.19256 0.0
C379 C 0.38918 0.21107 0.13451 0.0
O380 O 0.42694 0.44532 0.15374 0.0
O381 O 0.426 0.5147 0.10596 0.0
O382 O 0.40211 0.35912 0.0836 0.0
O383 O 0.38775 0.49747 0.0922 0.0
O384 O 0.40024 0.64933 0.13898 0.0
O385 O 0.37605 0.65199 0.12088 0.0
O386 O 0.35317 0.37501 0.10319 0.0
O387 O 0.34786 0.5246 0.13209 0.0
O388 O 0.36616 0.46676 0.18265 0.0
O389 O 0.38879 0.47119 0.16993 0.0
O390 O 0.37699 0.26652 0.12585 0.0
O391 O 0.40135 0.26748 0.14295 0.0
H392 H 0.45032 0.55752 0.1815 0.0
H393 H 0.4776 0.58872 0.18426 0.0
H394 H 0.4813 0.51759 0.08611 0.0
H395 H 0.45426 0.48776 0.08318 0.0
H396 H 0.32221 0.4027 0.0699 0.0
H397 H 0.29605 0.35431 0.0764 0.0
H398 H 0.30281 0.3205 0.17573 0.0
H399 H 0.32894 0.38052 0.16889 0.0
Nd400 Nd 0.62266 0.46575 0.38176 0.0
Nd401 Nd 0.65716 0.4638 0.37582 0.0
C402 C 0.59378 0.50414 0.37866 0.0
C403 C 0.57757 0.52541 0.37721 0.0
C404 C 0.57084 0.5585 0.34913 0.0
C405 C 0.55538 0.57494 0.34757 0.0
C406 C 0.54635 0.55649 0.37395 0.0
C407 C 0.55322 0.5276 0.40231 0.0
C408 C 0.5687 0.51271 0.40395 0.0
C409 C 0.63758 0.42503 0.43692 0.0
C410 C 0.64075 0.71447 0.37883 0.0
C411 C 0.68575 0.44623 0.39117 0.0
C412 C 0.70058 0.39229 0.38601 0.0
C413 C 0.70823 0.34716 0.41179 0.0
C414 C 0.72333 0.31699 0.40951 0.0
C415 C 0.73104 0.32998 0.38127 0.0
C416 C 0.72317 0.36721 0.35484 0.0
C417 C 0.70805 0.39877 0.35719 0.0
C418 C 0.64543 0.47351 0.31609 0.0
C419 C 0.63847 0.21619 0.37341 0.0
O420 O 0.60145 0.46677 0.3547 0.0
O421 O 0.60142 0.5184 0.4043 0.0
O422 O 0.62572 0.37026 0.42773 0.0
O423 O 0.64135 0.49911 0.41649 0.0
O424 O 0.62782 0.65964 0.378 0.0
O425 O 0.65368 0.65971 0.3803 0.0
O426 O 0.67518 0.38487 0.40439 0.0
O427 O 0.68072 0.51994 0.37058 0.0
O428 O 0.65959 0.4649 0.32213 0.0
O429 O 0.63813 0.46935 0.34123 0.0
O430 O 0.65147 0.26945 0.37662 0.0
O431 O 0.62563 0.27239 0.37185 0.0
H432 H 0.57754 0.57143 0.32838 0.0
H433 H 0.55047 0.60097 0.32565 0.0
H434 H 0.54657 0.51302 0.42304 0.0
H435 H 0.57367 0.48821 0.42596 0.0
H436 H 0.70274 0.34118 0.43424 0.0
H437 H 0.72917 0.28789 0.43014 0.0
H438 H 0.72893 0.37794 0.33283 0.0
H439 H 0.70245 0.43307 0.33688 0.0
Nd440 Nd 0.40423 0.64442 0.38042 0.0
Nd441 Nd 0.37126 0.64855 0.37901 0.0
C442 C 0.43327 0.60984 0.37586 0.0
C443 C 0.44959 0.58997 0.3741 0.0
C444 C 0.4572 0.59731 0.34556 0.0
C445 C 0.47277 0.58567 0.34436 0.0
C446 C 0.48105 0.5652 0.37165 0.0
C447 C 0.4733 0.55371 0.4 0.0
C448 C 0.45777 0.56615 0.40123 0.0
C449 C 0.39155 0.69325 0.43776 0.0
C450 C 0.38713 0.39474 0.38084 0.0
C451 C 0.34199 0.64802 0.39061 0.0
C452 C 0.3272 0.70596 0.38739 0.0
C453 C 0.31816 0.71811 0.4139 0.0
C454 C 0.30315 0.75135 0.41135 0.0
C455 C 0.29666 0.77575 0.38214 0.0
C456 C 0.30624 0.7741 0.35588 0.0
C457 C 0.32121 0.73765 0.35839 0.0
C458 C 0.38376 0.6598 0.31967 0.0
C459 C 0.38883 0.89342 0.37489 0.0
O460 O 0.42549 0.65512 0.35309 0.0
O461 O 0.42557 0.58469 0.40085 0.0
O462 O 0.40259 0.75009 0.42556 0.0
O463 O 0.38713 0.61609 0.41913 0.0
O464 O 0.40004 0.44941 0.38075 0.0
O465 O 0.37427 0.45086 0.3808 0.0
O466 O 0.35189 0.69294 0.40947 0.0
O467 O 0.34803 0.59886 0.36625 0.0
O468 O 0.37278 0.72339 0.32956 0.0
O469 O 0.38821 0.59608 0.34166 0.0
O470 O 0.37672 0.84103 0.38526 0.0
O471 O 0.40073 0.83417 0.36633 0.0
H472 H 0.45115 0.61442 0.32424 0.0
H473 H 0.47834 0.59699 0.32218 0.0
H474 H 0.47928 0.53647 0.42141 0.0
H475 H 0.45221 0.55933 0.42357 0.0
H476 H 0.3225 0.69575 0.43665 0.0
H477 H 0.29648 0.75191 0.43238 0.0
H478 H 0.30221 0.79916 0.33317 0.0
H479 H 0.32797 0.73153 0.33752 0.0
Nd480 Nd 0.36969 0.46289 0.87858 0.0
Nd481 Nd 0.40666 0.4697 0.87935 0.0
C482 C 0.34112 0.45013 0.89463 0.0
C483 C 0.32639 0.39466 0.88877 0.0
C484 C 0.31845 0.34904 0.91419 0.0
C485 C 0.30343 0.31684 0.91115 0.0
C486 C 0.29607 0.32824 0.8825 0.0
C487 C 0.30426 0.36549 0.85642 0.0
C488 C 0.3193 0.39903 0.85952 0.0
C489 C 0.38137 0.46847 0.81834 0.0
C490 C 0.38843 0.21826 0.87647 0.0
C491 C 0.43518 0.47444 0.86289 0.0
C492 C 0.45051 0.51715 0.86904 0.0
C493 C 0.45892 0.5594 0.84391 0.0
C494 C 0.47429 0.57862 0.84694 0.0
C495 C 0.4816 0.55641 0.87524 0.0
C496 C 0.473 0.52237 0.90112 0.0
C497 C 0.45757 0.50246 0.89803 0.0
C498 C 0.39497 0.47479 0.93956 0.0
C499 C 0.38774 0.71396 0.88085 0.0
O500 O 0.35159 0.38887 0.90808 0.0
O501 O 0.34632 0.52367 0.87408 0.0
O502 O 0.36723 0.45882 0.82483 0.0
O503 O 0.38851 0.46663 0.84364 0.0
O504 O 0.37547 0.26986 0.88164 0.0
O505 O 0.40111 0.27546 0.87142 0.0
O506 O 0.42525 0.54635 0.85167 0.0
O507 O 0.42948 0.39727 0.88182 0.0
O508 O 0.40918 0.47658 0.93325 0.0
O509 O 0.38794 0.47298 0.91412 0.0
O510 O 0.40071 0.66239 0.87539 0.0
O511 O 0.37507 0.657 0.88643 0.0
H512 H 0.32364 0.34427 0.93692 0.0
H513 H 0.29736 0.28779 0.93154 0.0
H514 H 0.29878 0.37502 0.83409 0.0
H515 H 0.32513 0.43326 0.83942 0.0
H516 H 0.45375 0.5716 0.82136 0.0
H517 H 0.4806 0.60622 0.82671 0.0
H518 H 0.47833 0.50433 0.9232 0.0
H519 H 0.45135 0.47027 0.91787 0.0
Nd520 Nd 0.65859 0.65326 0.87996 0.0
Nd521 Nd 0.62202 0.65035 0.87745 0.0
C522 C 0.68673 0.6685 0.89887 0.0
C523 C 0.7017 0.71733 0.89141 0.0
C524 C 0.70934 0.78061 0.91432 0.0
C525 C 0.72438 0.81134 0.91024 0.0
C526 C 0.73214 0.77864 0.88322 0.0
C527 C 0.72428 0.72144 0.85946 0.0
C528 C 0.70917 0.69163 0.86341 0.0
C529 C 0.64931 0.6426 0.81797 0.0
C530 C 0.64005 0.89874 0.87569 0.0
C531 C 0.59363 0.64216 0.85996 0.0
C532 C 0.57818 0.60084 0.86532 0.0
C533 C 0.56885 0.58885 0.83941 0.0
C534 C 0.55355 0.56874 0.8431 0.0
C535 C 0.54713 0.55852 0.87293 0.0
C536 C 0.55677 0.56121 0.89894 0.0
C537 C 0.57215 0.58363 0.8952 0.0
C538 C 0.63248 0.64469 0.93889 0.0
C539 C 0.64017 0.40506 0.88081 0.0
O540 O 0.67625 0.73965 0.90802 0.0
O541 O 0.68164 0.58379 0.88166 0.0
O542 O 0.66304 0.65296 0.82728 0.0
O543 O 0.64087 0.64881 0.84182 0.0
O544 O 0.65264 0.84575 0.88314 0.0
O545 O 0.62768 0.84165 0.86839 0.0
O546 O 0.60368 0.56841 0.85033 0.0
O547 O 0.59904 0.72154 0.8785 0.0
O548 O 0.61844 0.64641 0.93141 0.0
O549 O 0.63989 0.64521 0.91397 0.0
O550 O 0.62766 0.45957 0.87385 0.0
O551 O 0.65273 0.46033 0.88831 0.0
H552 H 0.70386 0.80166 0.93609 0.0
H553 H 0.73018 0.85512 0.92896 0.0
H554 H 0.72998 0.69656 0.83825 0.0
H555 H 0.70356 0.64429 0.84511 0.0
H556 H 0.57329 0.60077 0.81614 0.0
H557 H 0.54665 0.56701 0.82242 0.0
H558 H 0.55243 0.54844 0.92221 0.0
H559 H 0.5792 0.59061 0.91559 0.0
Nd560 Nd 0.37121 0.64955 0.63085 0.0
Nd561 Nd 0.40376 0.66099 0.63242 0.0
C562 C 0.34183 0.66752 0.6208 0.0
C563 C 0.32696 0.72448 0.62466 0.0
C564 C 0.31959 0.77065 0.59858 0.0
C565 C 0.30434 0.79961 0.59995 0.0
C566 C 0.29603 0.78305 0.62749 0.0
C567 C 0.30365 0.74373 0.65409 0.0
C568 C 0.31889 0.71498 0.65273 0.0
C569 C 0.38227 0.59197 0.68884 0.0
C570 C 0.38743 0.90456 0.63697 0.0
C571 C 0.4333 0.64826 0.63862 0.0
C572 C 0.44875 0.60108 0.63948 0.0
C573 C 0.45663 0.60122 0.66767 0.0
C574 C 0.47216 0.58525 0.66818 0.0
C575 C 0.48027 0.56479 0.64054 0.0
C576 C 0.47209 0.55621 0.61254 0.0
C577 C 0.4566 0.57563 0.61195 0.0
C578 C 0.39174 0.69348 0.57346 0.0
C579 C 0.38784 0.40841 0.62581 0.0
O580 O 0.35188 0.71012 0.60183 0.0
O581 O 0.34774 0.61453 0.64456 0.0
O582 O 0.37105 0.54438 0.67497 0.0
O583 O 0.38728 0.6764 0.67275 0.0
O584 O 0.3754 0.84542 0.62929 0.0
O585 O 0.39989 0.85093 0.64433 0.0
O586 O 0.42414 0.63893 0.66225 0.0
O587 O 0.42651 0.66133 0.61203 0.0
O588 O 0.4017 0.75949 0.58612 0.0
O589 O 0.38781 0.61546 0.59236 0.0
O590 O 0.39947 0.46528 0.63693 0.0
O591 O 0.37615 0.46525 0.61515 0.0
H592 H 0.3254 0.77819 0.57652 0.0
H593 H 0.29888 0.82859 0.57888 0.0
H594 H 0.29768 0.73155 0.6758 0.0
H595 H 0.32413 0.67978 0.67335 0.0
H596 H 0.45095 0.62168 0.68925 0.0
H597 H 0.47775 0.59681 0.69021 0.0
H598 H 0.47771 0.5382 0.59075 0.0
H599 H 0.45092 0.5755 0.5897 0.0
Nd600 Nd 0.65574 0.45777 0.63181 0.0
Nd601 Nd 0.62285 0.4607 0.62899 0.0
C602 C 0.68504 0.45715 0.62132 0.0
C603 C 0.69958 0.39672 0.6254 0.0
C604 C 0.70662 0.34648 0.5994 0.0
C605 C 0.72161 0.31188 0.60085 0.0
C606 C 0.72983 0.32598 0.62839 0.0
C607 C 0.72255 0.36791 0.65502 0.0
C608 C 0.70758 0.40339 0.65355 0.0
C609 C 0.64275 0.45426 0.69129 0.0
C610 C 0.63836 0.21261 0.63399 0.0
C611 C 0.59377 0.49744 0.63139 0.0
C612 C 0.57746 0.51806 0.63276 0.0
C613 C 0.57089 0.56147 0.65998 0.0
C614 C 0.55545 0.58111 0.66144 0.0
C615 C 0.54615 0.55452 0.63598 0.0
C616 C 0.55289 0.51483 0.60834 0.0
C617 C 0.56839 0.49759 0.60669 0.0
C618 C 0.63661 0.41784 0.57178 0.0
C619 C 0.64006 0.7107 0.62916 0.0
O620 O 0.67525 0.41224 0.60225 0.0
O621 O 0.67885 0.50841 0.64522 0.0
O622 O 0.65383 0.38998 0.6822 0.0
O623 O 0.63846 0.51322 0.66823 0.0
O624 O 0.65018 0.26656 0.62289 0.0
O625 O 0.62668 0.27145 0.64405 0.0
O626 O 0.60122 0.45313 0.65475 0.0
O627 O 0.60172 0.5191 0.60653 0.0
O628 O 0.62518 0.36166 0.58256 0.0
O629 O 0.64038 0.4933 0.59141 0.0
O630 O 0.6272 0.65596 0.63176 0.0
O631 O 0.65286 0.65468 0.62686 0.0
H632 H 0.70081 0.34026 0.57736 0.0
H633 H 0.72702 0.27977 0.58002 0.0
H634 H 0.72873 0.38003 0.67644 0.0
H635 H 0.70255 0.44172 0.67399 0.0
H636 H 0.57773 0.58099 0.6801 0.0
H637 H 0.5508 0.6164 0.68265 0.0
H638 H 0.54614 0.49379 0.58823 0.0
H639 H 0.57324 0.46554 0.58526 0.0
C640 C 0.2568 0.24435 0.10624 0.0
C641 C 0.24804 0.28674 0.13088 0.0
C642 C 0.27243 0.25576 0.10605 0.0
C643 C 0.28022 0.31323 0.1301 0.0
H644 H 0.25152 0.20053 0.08688 0.0
H645 H 0.27843 0.219 0.08656 0.0
S646 S 0.26235 0.43857 0.20075 0.0
N647 N 0.24822 0.38449 0.18079 0.0
N648 N 0.2775 0.41155 0.17997 0.0
C649 C 0.27153 0.35435 0.15535 0.0
C650 C 0.25553 0.34021 0.15579 0.0
C651 C 0.77192 0.85694 0.10656 0.0
C652 C 0.78046 0.82499 0.13253 0.0
C653 C 0.75628 0.84923 0.10669 0.0
C654 C 0.74819 0.80394 0.13231 0.0
H655 H 0.77737 0.89119 0.08599 0.0
H656 H 0.75062 0.88059 0.08619 0.0
S657 S 0.76567 0.71145 0.20717 0.0
N658 N 0.77993 0.7528 0.18547 0.0
N659 N 0.75067 0.72958 0.18539 0.0
C660 C 0.75675 0.77302 0.15887 0.0
C661 C 0.77277 0.78491 0.15898 0.0
C662 C 0.27206 0.84869 0.40438 0.0
C663 C 0.27996 0.79668 0.37956 0.0
C664 C 0.25638 0.85898 0.40427 0.0
C665 C 0.24767 0.82031 0.37906 0.0
H666 H 0.278 0.88239 0.42432 0.0
H667 H 0.25104 0.89944 0.42408 0.0
S668 S 0.2623 0.68036 0.30758 0.0
N669 N 0.27736 0.70573 0.32867 0.0
N670 N 0.2481 0.72988 0.32814 0.0
C671 C 0.25531 0.77116 0.35364 0.0
C672 C 0.27132 0.75859 0.35392 0.0
C673 C 0.77218 0.38889 0.39642 0.0
C674 C 0.77952 0.29927 0.38041 0.0
C675 C 0.75651 0.39757 0.39653 0.0
C676 C 0.74756 0.31774 0.38044 0.0
H677 H 0.77858 0.45269 0.40911 0.0
H678 H 0.75134 0.4676 0.40926 0.0
S679 S 0.76091 0.0631 0.33664 0.0
N680 N 0.77636 0.12541 0.34937 0.0
N681 N 0.74696 0.14441 0.34898 0.0
C682 C 0.75464 0.22799 0.36432 0.0
C683 C 0.7706 0.21826 0.36441 0.0
C684 C 0.75794 0.69616 0.87792 0.0
C685 C 0.74867 0.79362 0.88123 0.0
C686 C 0.77363 0.70633 0.87792 0.0
C687 C 0.78058 0.81469 0.88055 0.0
H688 H 0.75301 0.61107 0.87606 0.0
H689 H 0.78037 0.62917 0.87586 0.0
S690 S 0.76156 0.09608 0.88976 0.0
N691 N 0.74772 1.00169 0.88753 0.0
N692 N 0.77715 1.02074 0.88674 0.0
C693 C 0.77148 0.9126 0.88362 0.0
C694 C 0.75555 0.90218 0.88418 0.0
C695 C 0.27053 0.39649 0.8968 0.0
C696 C 0.27954 0.31618 0.88107 0.0
C697 C 0.25487 0.38787 0.89645 0.0
C698 C 0.24756 0.2978 0.88053 0.0
H699 H 0.27566 0.46676 0.90953 0.0
H700 H 0.24843 0.45197 0.90894 0.0
S701 S 0.26624 0.06059 0.83745 0.0
N702 N 0.28018 0.14209 0.84987 0.0
N703 N 0.25077 0.12329 0.84981 0.0
C704 C 0.25651 0.21646 0.86479 0.0
C705 C 0.27249 0.22611 0.86494 0.0
C706 C 0.75352 0.22116 0.64256 0.0
C707 C 0.74636 0.31438 0.62801 0.0
C708 C 0.76922 0.21202 0.64249 0.0
C709 C 0.77835 0.29638 0.62815 0.0
H710 H 0.74694 0.15433 0.65371 0.0
H711 H 0.77424 0.13688 0.65317 0.0
S712 S 0.76473 0.56226 0.58919 0.0
N713 N 0.74933 0.49448 0.60008 0.0
N714 N 0.77875 0.48032 0.60079 0.0
C715 C 0.77119 0.39149 0.61422 0.0
C716 C 0.75524 0.39968 0.61397 0.0
C717 C 0.25438 0.72039 0.64105 0.0
C718 C 0.24726 0.81627 0.62769 0.0
C719 C 0.27011 0.7112 0.64114 0.0
C720 C 0.27933 0.79757 0.62792 0.0
H721 H 0.24776 0.65169 0.65122 0.0
H722 H 0.27509 0.63472 0.65119 0.0
S723 S 0.26585 0.06839 0.5914 0.0
N724 N 0.2504 0.99998 0.60165 0.0
N725 N 0.27983 0.98439 0.60215 0.0
C726 C 0.27221 0.8943 0.61477 0.0
C727 C 0.25624 0.90318 0.61462 0.0
C728 C 0.14574 0.1595 0.27865 0.0
C729 C 0.14059 1.05104 0.28913 0.0
C730 C 0.14623 0.18799 0.24701 0.0
C731 C 0.14113 0.11113 0.22425 0.0
H732 H 0.15049 0.22075 0.29493 0.0
H733 H 0.15152 0.2683 0.24018 0.0
S734 S 0.12333 0.82701 0.23913 0.0
N735 N 0.12807 0.87321 0.2742 0.0
N736 N 0.12851 0.92896 0.2144 0.0
C737 C 0.13429 1.00789 0.23437 0.0
C738 C 0.13406 0.97742 0.26692 0.0
C739 C 0.89297 0.15228 0.26506 0.0
C740 C 0.88676 0.08637 0.28956 0.0
C741 C 0.89294 0.11074 0.23391 0.0
C742 C 0.88646 1.00319 0.22621 0.0
H743 H 0.89661 0.23989 0.26941 0.0
H744 H 0.89672 0.16754 0.21547 0.0
S745 S 0.87053 0.79317 0.2823 0.0
N746 N 0.8757 0.90323 0.30409 0.0
N747 N 0.87511 0.82838 0.24627 0.0
C748 C 0.88136 0.93394 0.25084 0.0
C749 C 0.88168 0.97468 0.28226 0.0
C750 C 0.87595 0.17426 0.74832 0.0
C751 C 0.88463 0.12524 0.72448 0.0
C752 C 0.87611 0.13066 0.77873 0.0
C753 C 0.88496 1.0355 0.78707 0.0
H754 H 0.86806 0.24223 0.74293 0.0
H755 H 0.86843 0.16765 0.7955 0.0
S756 S 0.91205 0.88838 0.73511 0.0
N757 N 0.90406 0.98562 0.7124 0.0
N758 N 0.90443 0.90369 0.76998 0.0
C759 C 0.89493 0.99249 0.76444 0.0
C760 C 0.89476 1.03745 0.73304 0.0
C761 C 0.13282 0.12936 0.76684 0.0
C762 C 0.14288 0.08686 0.78943 0.0
C763 C 0.13285 0.08545 0.73585 0.0
C764 C 0.14299 0.99831 0.72662 0.0
H765 H 0.12574 0.2022 0.77237 0.0
H766 H 0.12583 0.12635 0.71857 0.0
S767 S 0.17046 0.85197 0.77762 0.0
N768 N 0.16225 0.94666 0.80054 0.0
N769 N 0.16218 0.86528 0.74355 0.0
C770 C 0.15212 0.95005 0.74974 0.0
C771 C 0.15211 0.99409 0.78075 0.0
C772 C 0.6443 0.43493 0.25916 0.0
C773 C 0.63972 0.50278 0.2845 0.0
C774 C 0.64381 0.47736 0.22853 0.0
C775 C 0.63904 0.5902 0.22183 0.0
H776 H 0.64938 0.35154 0.26325 0.0
H777 H 0.64859 0.42533 0.21023 0.0
S778 S 0.62404 0.79792 0.27948 0.0
N779 N 0.62846 0.68361 0.30053 0.0
N780 N 0.62816 0.7651 0.24301 0.0
C781 C 0.63322 0.65562 0.24662 0.0
C782 C 0.63341 0.61132 0.27793 0.0
C783 C 0.37234 0.64742 0.26668 0.0
C784 C 0.38454 0.62331 0.28621 0.0
C785 C 0.37135 0.60159 0.23661 0.0
C786 C 0.38263 0.53113 0.22391 0.0
H787 H 0.36305 0.6986 0.27506 0.0
H788 H 0.3614 0.62103 0.22323 0.0
S789 S 0.41803 0.45336 0.26364 0.0
N790 N 0.40888 0.53074 0.28976 0.0
N791 N 0.40723 0.44794 0.23242 0.0
C792 C 0.39542 0.5116 0.24229 0.0
C793 C 0.39629 0.55661 0.27357 0.0
C794 C 0.37982 0.41716 0.76293 0.0
C795 C 0.3868 0.48464 0.78572 0.0
C796 C 0.37969 0.45007 0.73163 0.0
C797 C 0.38625 0.55402 0.72126 0.0
H798 H 0.37345 0.34149 0.76966 0.0
H799 H 0.3735 0.39576 0.71568 0.0
S800 S 0.40974 0.74585 0.77014 0.0
N801 N 0.40328 0.64836 0.79493 0.0
N802 N 0.40272 0.71249 0.73567 0.0
C803 C 0.3948 0.61642 0.74311 0.0
C804 C 0.39512 0.58127 0.77544 0.0
C805 C 0.65818 0.59608 0.76439 0.0
C806 C 0.64592 0.60494 0.78505 0.0
C807 C 0.65688 0.54729 0.73464 0.0
C808 C 0.64316 0.50595 0.72332 0.0
H809 H 0.6692 0.62467 0.77148 0.0
H810 H 0.66683 0.54194 0.72028 0.0
S811 S 0.60701 0.51788 0.76581 0.0
N812 N 0.61915 0.57343 0.79069 0.0
N813 N 0.61661 0.48474 0.73413 0.0
C814 C 0.63053 0.51893 0.74278 0.0
C815 C 0.63191 0.5675 0.77369 0.0
C816 C 0.14318 0.06676 0.99053 0.0
C817 C 0.13762 0.15666 0.97174 0.0
C818 C 0.14407 0.07855 0.0233 0.0
C819 C 0.13925 0.18017 0.03831 0.0
H820 H 0.14582 0.98422 0.98015 0.0
H821 H 0.14748 1.0048 0.03702 0.0
S822 S 0.12593 0.44583 0.99893 0.0
N823 N 0.12887 0.35401 0.97023 0.0
N824 N 0.13057 0.37685 0.03112 0.0
C825 C 0.1349 0.27338 0.01935 0.0
C826 C 0.13404 0.26132 0.98627 0.0
C827 C 0.88153 0.8415 0.98912 0.0
C828 C 0.88756 0.93338 0.97173 0.0
C829 C 0.88151 0.84318 0.02193 0.0
C830 C 0.88752 0.93681 0.03861 0.0
H831 H 0.87731 0.76574 0.97726 0.0
H832 H 0.8773 0.76856 0.03437 0.0
S833 S 0.90541 0.19591 1.00412 0.0
N834 N 0.90001 0.11945 0.9737 0.0
N835 N 0.9 0.12249 0.03515 0.0
C836 C 0.89328 1.03041 0.02149 0.0
C837 C 0.89329 1.02873 0.9881 0.0
C838 C 0.14459 0.84874 0.48765 0.0
C839 C 0.13807 0.94157 0.47156 0.0
C840 C 0.14528 0.84711 0.52044 0.0
C841 C 0.13948 0.9383 0.53832 0.0
H842 H 0.14878 0.77513 0.47483 0.0
H843 H 0.1499 0.77203 0.53192 0.0
S844 S 0.12047 0.19816 0.50748 0.0
N845 N 0.12538 0.12554 0.47602 0.0
N846 N 0.12661 0.12238 0.53742 0.0
C847 C 0.13319 1.03261 0.52246 0.0
C848 C 0.1325 1.03429 0.48912 0.0
C849 C 0.89973 0.24511 0.52014 0.0
C850 C 0.89014 0.17197 0.53707 0.0
C851 C 0.90019 0.24376 0.48757 0.0
C852 C 0.89104 0.16965 0.47005 0.0
H853 H 0.90791 0.2975 0.53225 0.0
H854 H 0.90868 0.29538 0.4761 0.0
S855 S 0.86081 0.98531 0.50249 0.0
N856 N 0.86899 1.04044 0.53366 0.0
N857 N 0.86973 1.03891 0.47194 0.0
C858 C 0.8799 0.10752 0.48633 0.0
C859 C 0.87947 0.10843 0.51999 0.0
C860 C 0.64409 0.56417 0.02121 0.0
C861 C 0.63828 0.65716 0.03855 0.0
C862 C 0.64395 0.56522 0.98819 0.0
C863 C 0.63791 0.659 0.97152 0.0
H864 H 0.64747 0.48608 0.0331 0.0
H865 H 0.6473 0.48811 0.97582 0.0
S866 S 0.62352 0.93003 0.00591 0.0
N867 N 0.62813 0.8506 0.03633 0.0
N868 N 0.62775 0.85218 0.97496 0.0
C869 C 0.63341 0.75609 0.98866 0.0
C870 C 0.63364 0.75527 0.02198 0.0
C871 C 0.38501 0.54582 0.99095 0.0
C872 C 0.38919 0.4533 0.97157 0.0
C873 C 0.38448 0.53336 0.02372 0.0
C874 C 0.38841 0.42843 0.03823 0.0
H875 H 0.38318 0.63035 0.98093 0.0
H876 H 0.38207 0.60855 0.03778 0.0
S877 S 0.39808 0.1565 0.99756 0.0
N878 N 0.3957 0.25086 0.9692 0.0
N879 N 0.3948 0.22726 0.03019 0.0
C880 C 0.39145 0.33354 0.01886 0.0
C881 C 0.39185 0.34611 0.98572 0.0
C882 C 0.6502 0.38021 0.48798 0.0
C883 C 0.63951 0.44311 0.47093 0.0
C884 C 0.64974 0.37636 0.52089 0.0
C885 C 0.6385 0.43452 0.53769 0.0
H886 H 0.65851 0.32946 0.4758 0.0
H887 H 0.65782 0.32386 0.53316 0.0
S888 S 0.60837 0.61436 0.50411 0.0
N889 N 0.61781 0.56798 0.47353 0.0
N890 N 0.61692 0.56019 0.53485 0.0
C891 C 0.62817 0.5009 0.52091 0.0
C892 C 0.62868 0.50529 0.48767 0.0
C893 C 0.39226 0.79313 0.52189 0.0
C894 C 0.38916 0.69252 0.5391 0.0
C895 C 0.3922 0.79325 0.48919 0.0
C896 C 0.38898 0.69285 0.4721 0.0
H897 H 0.39524 0.87216 0.53381 0.0
H898 H 0.39516 0.8722 0.47715 0.0
S899 S 0.37949 0.40681 0.5057 0.0
N900 N 0.38218 0.48999 0.53641 0.0
N901 N 0.38202 0.49028 0.47495 0.0
C902 C 0.38515 0.59254 0.48891 0.0
C903 C 0.38525 0.59235 0.52239 0.0
C904 C 1.00547 0.15176 0.1218 0.0
C905 C 0.99709 0.07214 0.13928 0.0
C906 C 0.02113 0.14804 0.12154 0.0
C907 C 0.02902 0.06388 0.13851 0.0
H908 H 0.99986 0.21681 0.10801 0.0
H909 H 0.02713 0.21173 0.1079 0.0
S910 S 1.01214 0.83101 0.18638 0.0
N911 N 0.99768 0.90456 0.17317 0.0
N912 N 0.02715 0.89632 0.17238 0.0
C913 C 0.02074 0.98363 0.15609 0.0
C914 C 1.00477 0.98806 0.15653 0.0
C915 C 1.00582 0.95482 0.38468 0.0
C916 C 0.99766 1.04964 0.37355 0.0
C917 C 0.02158 0.95686 0.38516 0.0
C918 C 0.02973 1.05339 0.37435 0.0
H919 H 1.0 0.87862 0.39289 0.0
H920 H 0.02746 0.88159 0.39366 0.0
S921 S 1.01333 0.32408 0.34368 0.0
N922 N 0.99869 0.24263 0.35203 0.0
N923 N 0.02821 0.24675 0.35275 0.0
C924 C 0.0216 0.14846 0.36318 0.0
C925 C 1.0056 0.14646 0.36288 0.0
C926 C 0.02152 0.12499 0.89241 0.0
C927 C 0.02912 1.05458 0.87084 0.0
C928 C 1.00585 0.13121 0.89293 0.0
C929 C 0.99709 0.06846 0.87166 0.0
H930 H 0.02771 0.17775 0.90872 0.0
H931 H 1.00053 0.18606 0.91006 0.0
S932 S 1.01119 0.86551 0.81177 0.0
N933 N 0.02642 0.9149 0.82889 0.0
N934 N 0.99707 0.93044 0.82917 0.0
C935 C 1.00447 0.99755 0.85003 0.0
C936 C 0.02042 0.98949 0.84983 0.0
C937 C 1.00539 0.1062 0.61558 0.0
C938 C 0.99769 0.05844 0.64138 0.0
C939 C 0.02108 0.10948 0.61399 0.0
C940 C 0.03002 0.06839 0.63847 0.0
H941 H 0.99939 0.1439 0.5963 0.0
H942 H 0.02626 0.14562 0.59336 0.0
S943 S 0.01636 0.93468 0.71165 0.0
N944 N 1.00104 0.96355 0.69184 0.0
N945 N 0.03027 0.98018 0.68962 0.0
C946 C 0.02271 1.0231 0.66475 0.0
C947 C 1.0067 1.01544 0.66601 0.0
C948 C 0.50563 0.44815 0.13426 0.0
C949 C 0.49794 0.55337 0.13739 0.0
C950 C 0.52133 0.4443 0.13415 0.0
C951 C 0.52977 0.546 0.13659 0.0
H952 H 0.49943 0.36836 0.13177 0.0
H953 H 0.52688 0.36182 0.13182 0.0
S954 S 0.51513 0.84257 0.14562 0.0
N955 N 0.49998 0.76096 0.14353 0.0
N956 N 0.5295 0.75389 0.14277 0.0
C957 C 0.52224 0.65141 0.1399 0.0
C958 C 0.5063 0.65519 0.14045 0.0
C959 C 0.50585 0.62087 0.39445 0.0
C960 C 0.49774 0.56274 0.37112 0.0
C961 C 0.52152 0.62031 0.39487 0.0
C962 C 0.52977 0.56226 0.37186 0.0
H963 H 0.50005 0.66822 0.4125 0.0
H964 H 0.52723 0.66604 0.41336 0.0
S965 S 0.51413 0.39367 0.30612 0.0
N966 N 0.49929 0.4427 0.32478 0.0
N967 N 0.52874 0.4435 0.32533 0.0
C968 C 0.52187 0.50464 0.34821 0.0
C969 C 0.50588 0.50437 0.3479 0.0
C970 C 0.50629 0.49241 0.85411 0.0
C971 C 0.49827 0.55591 0.87642 0.0
C972 C 0.52197 0.48951 0.85414 0.0
C973 C 0.53042 0.55173 0.87617 0.0
H974 H 0.50038 0.44373 0.83646 0.0
H975 H 0.52749 0.43854 0.83644 0.0
S976 S 0.51466 0.73335 0.93949 0.0
N977 N 0.49981 0.68146 0.92144 0.0
N978 N 0.52929 0.67994 0.92102 0.0
C979 C 0.52248 0.61467 0.89895 0.0
C980 C 0.50643 0.61609 0.89914 0.0
C981 C 0.5052 0.6071 0.61478 0.0
C982 C 0.49717 0.56138 0.64034 0.0
C983 C 0.52092 0.60657 0.61378 0.0
C984 C 0.52946 0.56216 0.6385 0.0
H985 H 0.49936 0.64535 0.59532 0.0
H986 H 0.52643 0.64212 0.59345 0.0
S987 S 0.5144 0.43295 0.71119 0.0
N988 N 0.4994 0.468 0.69101 0.0
N989 N 0.52877 0.47281 0.68961 0.0
C990 C 0.5217 0.51873 0.66454 0.0
C991 C 0.50566 0.51684 0.66534 0.0
C992 C 0.15147 0.69778 0.12153 0.0
C993 C 0.13951 0.76442 0.1328 0.0
C994 C 0.15114 0.5767 0.12287 0.0
C995 C 0.13884 0.51633 0.1356 0.0
H996 H 0.16117 0.7392 0.1113 0.0
H997 H 0.16062 0.53021 0.11347 0.0
S998 S 0.1047 0.64975 0.16918 0.0
N999 N 0.11499 0.76011 0.15771 0.0
N1000 N 0.11444 0.53371 0.16022 0.0
C1001 C 0.12681 0.58189 0.14712 0.0
C1002 C 0.12713 0.70529 0.14574 0.0
C1003 C 0.8755 0.40581 0.13085 0.0
C1004 C 0.88882 0.34153 0.13253 0.0
C1005 C 0.87562 0.5268 0.13245 0.0
C1006 C 0.88906 0.5892 0.13585 0.0
H1007 H 0.86482 0.36254 0.12841 0.0
H1008 H 0.86502 0.57159 0.13099 0.0
S1009 S 0.9272 0.46269 0.13977 0.0
N1010 N 0.91596 0.35036 0.13673 0.0
N1011 N 0.91618 0.5766 0.13976 0.0
C1012 C 0.9025 0.52603 0.13727 0.0
C1013 C 0.90238 0.40279 0.13559 0.0
C1014 C 0.14998 0.40643 0.39416 0.0
C1015 C 0.13882 0.33926 0.37985 0.0
C1016 C 0.15019 0.52723 0.39121 0.0
C1017 C 0.13927 0.58637 0.37377 0.0
H1018 H 0.1586 0.36563 0.40798 0.0
H1019 H 0.1589 0.57465 0.40317 0.0
S1020 S 0.10817 0.4505 0.3297 0.0
N1021 N 0.11695 0.34125 0.34606 0.0
N1022 N 0.11728 0.56712 0.3409 0.0
C1023 C 0.12816 0.52008 0.35893 0.0
C1024 C 0.12796 0.3971 0.36185 0.0
C1025 C 0.89672 0.59647 0.35608 0.0
C1026 C 0.88861 0.53022 0.37776 0.0
C1027 C 0.89634 0.718 0.35677 0.0
C1028 C 0.88786 0.77844 0.37921 0.0
H1029 H 0.90319 0.55422 0.33808 0.0
H1030 H 0.9026 0.76501 0.33926 0.0
S1031 S 0.86622 0.64525 0.44361 0.0
N1032 N 0.87285 0.53438 0.42388 0.0
N1033 N 0.87217 0.76159 0.42515 0.0
C1034 C 0.88001 0.71304 0.40145 0.0
C1035 C 0.88039 0.58948 0.40074 0.0
C1036 C 0.87524 0.39684 0.87538 0.0
C1037 C 0.88851 0.33325 0.87912 0.0
C1038 C 0.87545 0.51782 0.87345 0.0
C1039 C 0.88895 0.58051 0.87508 0.0
H1040 H 0.86457 0.35292 0.87357 0.0
H1041 H 0.86492 0.56245 0.87049 0.0
S1042 S 0.92672 0.45582 0.88767 0.0
N1043 N 0.91548 0.34296 0.88628 0.0
N1044 N 0.91589 0.56929 0.88258 0.0
C1045 C 0.90229 0.51802 0.87935 0.0
C1046 C 0.90207 0.39489 0.8814 0.0
C1047 C 0.13741 0.58773 0.9076 0.0
C1048 C 0.1381 0.52599 0.8794 0.0
C1049 C 0.13813 0.70943 0.90812 0.0
C1050 C 0.13967 0.77349 0.88045 0.0
H1051 H 0.13633 0.54166 0.92941 0.0
H1052 H 0.13736 0.7537 0.93025 0.0
S1053 S 0.14171 0.65267 0.80068 0.0
N1054 N 0.14038 0.53798 0.82333 0.0
N1055 N 0.14137 0.76551 0.82414 0.0
C1056 C 0.14018 0.7125 0.85219 0.0
C1057 C 0.13953 0.58906 0.8517 0.0
C1058 C 0.88169 0.71484 0.65579 0.0
C1059 C 0.88647 0.77416 0.62894 0.0
C1060 C 0.88224 0.59336 0.6575 0.0
C1061 C 0.88776 0.52718 0.63255 0.0
H1062 H 0.87764 0.76278 0.67571 0.0
H1063 H 0.87838 0.55093 0.6785 0.0
S1064 S 0.90084 0.64088 0.55656 0.0
N1065 N 0.8964 0.75749 0.5766 0.0
N1066 N 0.89748 0.53011 0.57979 0.0
C1067 C 0.89246 0.58567 0.60557 0.0
C1068 C 0.89184 0.70896 0.60379 0.0
C1069 C 0.1267 0.4023 0.62697 0.0
C1070 C 0.13994 0.34001 0.63259 0.0
C1071 C 0.12637 0.5234 0.62896 0.0
C1072 C 0.13928 0.587 0.63671 0.0
H1073 H 0.11653 0.35734 0.62055 0.0
H1074 H 0.11601 0.5675 0.62372 0.0
S1075 S 0.17648 0.46482 0.65615 0.0
N1076 N 0.16608 0.35123 0.64787 0.0
N1077 N 0.16547 0.57765 0.65163 0.0
C1078 C 0.15251 0.52551 0.64288 0.0
C1079 C 0.15285 0.4025 0.64081 0.0
C1080 C 0.62908 0.08558 0.11355 0.0
C1081 C 0.63822 1.02493 0.13461 0.0
C1082 C 0.62962 0.20695 0.11156 0.0
C1083 C 0.63945 0.27192 0.13025 0.0
H1084 H 0.62166 1.03882 0.09812 0.0
H1085 H 0.62241 0.25022 0.09503 0.0
S1086 S 0.6642 0.15532 0.19182 0.0
N1087 N 0.65629 1.03983 0.17645 0.0
N1088 N 0.65763 0.26649 0.17209 0.0
C1089 C 0.64841 0.21222 0.15173 0.0
C1090 C 0.64771 0.08916 0.15404 0.0
C1091 C 0.39718 0.89454 0.15281 0.0
C1092 C 0.3887 0.8351 0.13027 0.0
C1093 C 0.3975 1.016 0.1539 0.0
C1094 C 0.38932 0.08269 0.1325 0.0
H1095 H 0.40341 0.84684 0.17014 0.0
H1096 H 0.40394 0.05783 0.172 0.0
S1097 S 0.36756 0.96935 0.06556 0.0
N1098 N 0.37336 0.85269 0.08395 0.0
N1099 N 0.37399 0.07976 0.08579 0.0
C1100 C 0.38134 1.02418 0.10904 0.0
C1101 C 0.381 0.90083 0.10799 0.0
C1102 C 0.63129 1.02684 0.3975 0.0
C1103 C 0.63846 0.08824 0.37344 0.0
C1104 C 0.63223 0.90576 0.39933 0.0
C1105 C 0.6405 0.84218 0.37737 0.0
H1106 H 0.62516 0.07288 0.41534 0.0
H1107 H 0.62659 0.86162 0.41824 0.0
S1108 S 0.65991 0.96103 0.30816 0.0
N1109 N 0.65316 0.07576 0.32608 0.0
N1110 N 0.65504 0.84888 0.32968 0.0
C1111 C 0.64748 0.90242 0.35297 0.0
C1112 C 0.64644 1.02534 0.35099 0.0
C1113 C 0.39793 0.0822 0.39606 0.0
C1114 C 0.38908 1.02111 0.3746 0.0
C1115 C 0.39713 0.20324 0.39816 0.0
C1116 C 0.38734 0.26701 0.37914 0.0
H1117 H 0.40526 1.03598 0.41174 0.0
H1118 H 0.40407 0.24714 0.41509 0.0
S1119 S 0.36331 0.14845 0.31665 0.0
N1120 N 0.37121 1.03365 0.33236 0.0
N1121 N 0.36968 0.26055 0.33633 0.0
C1122 C 0.37876 0.20692 0.3571 0.0
C1123 C 0.37963 0.08405 0.35485 0.0
C1124 C 0.38904 0.90835 0.90677 0.0
C1125 C 0.38744 0.84218 0.87956 0.0
C1126 C 0.38954 1.02998 0.90552 0.0
C1127 C 0.38863 0.08977 0.87702 0.0
H1128 H 0.38998 0.86585 0.92914 0.0
H1129 H 0.39063 0.07756 0.92703 0.0
S1130 S 0.38363 0.95677 0.7994 0.0
N1131 N 0.38437 0.84573 0.82349 0.0
N1132 N 0.38558 0.07323 0.82116 0.0
C1133 C 0.38693 1.02448 0.84976 0.0
C1134 C 0.38629 0.90098 0.85103 0.0
C1135 C 0.65157 0.21069 0.89248 0.0
C1136 C 0.63994 0.27616 0.87937 0.0
C1137 C 0.65151 0.08942 0.89102 0.0
C1138 C 0.63984 1.02786 0.87635 0.0
H1139 H 0.66077 0.25321 0.90417 0.0
H1140 H 0.6607 1.04367 0.90181 0.0
S1141 S 0.60695 0.15819 0.83709 0.0
N1142 N 0.61656 0.2694 0.85025 0.0
N1143 N 0.61646 1.04311 0.84783 0.0
C1144 C 0.62816 0.09236 0.86303 0.0
C1145 C 0.62822 0.21575 0.86444 0.0
C1146 C 0.39969 0.09912 0.64336 0.0
C1147 C 0.38714 1.03319 0.6346 0.0
C1148 C 0.39989 0.21972 0.63999 0.0
C1149 C 0.38759 0.27994 0.62752 0.0
H1150 H 0.4095 0.05747 0.6529 0.0
H1151 H 0.4098 0.26594 0.6474 0.0
S1152 S 0.352 0.14862 0.60037 0.0
N1153 N 0.36207 1.03837 0.61243 0.0
N1154 N 0.36249 0.26365 0.60619 0.0
C1155 C 0.37499 0.21519 0.61851 0.0
C1156 C 0.37475 0.09248 0.62203 0.0
C1157 C 0.64138 0.89725 0.65841 0.0
C1158 C 0.63994 0.83825 0.62995 0.0
C1159 C 0.64042 1.01855 0.65982 0.0
C1160 C 0.63803 0.08459 0.6328 0.0
H1161 H 0.64319 0.84924 0.67971 0.0
H1162 H 0.64178 0.06099 0.68208 0.0
S1163 S 0.63305 0.97038 0.55287 0.0
N1164 N 0.63553 0.85406 0.57448 0.0
N1165 N 0.63407 0.08137 0.5769 0.0
C1166 C 0.63652 1.02612 0.60429 0.0
C1167 C 0.63735 0.903 0.60294 0.0
loop_
_geom_bond_atom_site_label_1
_geom_bond_atom_site_label_2
_geom_bond_distance
_geom_bond_site_symmetry_2
_ccdc_geom_bond_type
Nd0 C2 2.836 . S
Nd0 O20 2.500 . S
Nd0 O21 2.492 . S
Nd0 O22 2.487 . S
Nd0 O23 2.682 . S
Nd0 O24 2.410 1_545 S
Nd0 O29 2.414 . S
Nd0 O31 2.424 . S
Nd1 C11 2.836 . S
Nd1 O23 2.414 . S
Nd1 O25 2.424 1_545 S
Nd1 O26 2.500 . S
Nd1 O27 2.492 . S
Nd1 O28 2.487 . S
Nd1 O29 2.682 . S
Nd1 O30 2.410 . S
C2 Nd0 2.836 . S
C2 C3 1.498 1_545 S
C2 O20 1.258 . S
C2 O21 1.239 . S
C3 C2 1.498 1_565 S
C3 C4 1.366 . S
C3 C8 1.407 . S
C4 C3 1.366 . S
C4 C5 1.392 . S
C4 H32 0.930 . S
C5 C4 1.392 . S
C5 C6 1.398 . S
C5 H33 0.929 . S
C6 C5 1.398 . S
C6 C7 1.352 . S
C7 C6 1.352 . S
C7 C8 1.384 . S
C7 H34 0.930 . S
C8 C3 1.407 . S
C8 C7 1.384 . S
C8 H35 0.929 1_565 S
C9 O22 1.241 . S
C9 O23 1.273 . S
C10 O24 1.251 . S
C10 O25 1.268 . S
C11 Nd1 2.836 . S
C11 C12 1.498 . S
C11 O26 1.258 . S
C11 O27 1.239 . S
C12 C11 1.498 . S
C12 C13 1.366 . S
C12 C17 1.407 . S
C13 C12 1.366 . S
C13 C14 1.392 . S
C13 H36 0.930 . S
C14 C13 1.392 . S
C14 C15 1.398 . S
C14 H37 0.929 . S
C15 C14 1.398 . S
C15 C16 1.352 . S
C16 C15 1.352 . S
C16 C17 1.384 . S
C16 H38 0.930 . S
C17 C12 1.407 . S
C17 C16 1.384 . S
C17 H39 0.929 . S
C18 O28 1.241 . S
C18 O29 1.273 . S
C19 O30 1.251 . S
C19 O31 1.268 . S
O20 Nd0 2.500 . S
O20 C2 1.258 . S
O21 Nd0 2.492 . S
O21 C2 1.239 . S
O22 Nd0 2.487 . S
O22 C9 1.241 . S
O23 Nd0 2.682 . S
O23 Nd1 2.414 . S
O23 C9 1.273 . S
O24 Nd0 2.410 1_565 S
O24 C10 1.251 . S
O25 Nd1 2.424 1_565 S
O25 C10 1.268 . S
O26 Nd1 2.500 . S
O26 C11 1.258 . S
O27 Nd1 2.492 . S
O27 C11 1.239 . S
O28 Nd1 2.487 . S
O28 C18 1.241 . S
O29 Nd0 2.414 . S
O29 Nd1 2.682 . S
O29 C18 1.273 . S
O30 Nd1 2.410 . S
O30 C19 1.251 . S
O31 Nd0 2.424 . S
O31 C19 1.268 . S
H32 C4 0.930 . S
H33 C5 0.929 . S
H34 C7 0.930 . S
H35 C8 0.929 1_545 S
H36 C13 0.930 . S
H37 C14 0.929 . S
H38 C16 0.930 . S
H39 C17 0.929 . S
Nd40 C42 2.836 . S
Nd40 O60 2.500 . S
Nd40 O61 2.492 . S
Nd40 O62 2.487 . S
Nd40 O63 2.682 . S
Nd40 O64 2.410 1_565 S
Nd40 O69 2.414 . S
Nd40 O71 2.424 . S
Nd41 C51 2.836 . S
Nd41 O63 2.414 . S
Nd41 O65 2.424 1_565 S
Nd41 O66 2.500 . S
Nd41 O67 2.492 . S
Nd41 O68 2.487 . S
Nd41 O69 2.682 . S
Nd41 O70 2.410 . S
C42 Nd40 2.836 . S
C42 C43 1.498 1_565 S
C42 O60 1.258 . S
C42 O61 1.239 . S
C43 C42 1.498 1_545 S
C43 C44 1.366 . S
C43 C48 1.407 . S
C44 C43 1.366 . S
C44 C45 1.392 . S
C44 H72 0.930 . S
C45 C44 1.392 . S
C45 C46 1.398 . S
C45 H73 0.929 . S
C46 C45 1.398 . S
C46 C47 1.352 . S
C47 C46 1.352 . S
C47 C48 1.384 . S
C47 H74 0.930 . S
C48 C43 1.407 . S
C48 C47 1.384 . S
C48 H75 0.929 1_545 S
C49 O62 1.241 . S
C49 O63 1.273 . S
C50 O64 1.251 . S
C50 O65 1.268 . S
C51 Nd41 2.836 . S
C51 C52 1.498 . S
C51 O66 1.258 . S
C51 O67 1.239 . S
C52 C51 1.498 . S
C52 C53 1.366 . S
C52 C57 1.407 . S
C53 C52 1.366 . S
C53 C54 1.392 . S
C53 H76 0.930 . S
C54 C53 1.392 . S
C54 C55 1.398 . S
C54 H77 0.929 . S
C55 C54 1.398 . S
C55 C56 1.352 . S
C56 C55 1.352 . S
C56 C57 1.384 . S
C56 H78 0.930 . S
C57 C52 1.407 . S
C57 C56 1.384 . S
C57 H79 0.929 . S
C58 O68 1.241 . S
C58 O69 1.273 . S
C59 O70 1.251 . S
C59 O71 1.268 . S
O60 Nd40 2.500 . S
O60 C42 1.258 . S
O61 Nd40 2.492 . S
O61 C42 1.239 . S
O62 Nd40 2.487 . S
O62 C49 1.241 . S
O63 Nd40 2.682 . S
O63 Nd41 2.414 . S
O63 C49 1.273 . S
O64 Nd40 2.410 1_545 S
O64 C50 1.251 . S
O65 Nd41 2.424 1_545 S
O65 C50 1.268 . S
O66 Nd41 2.500 . S
O66 C51 1.258 . S
O67 Nd41 2.492 . S
O67 C51 1.239 . S
O68 Nd41 2.487 . S
O68 C58 1.241 . S
O69 Nd40 2.414 . S
O69 Nd41 2.682 . S
O69 C58 1.273 . S
O70 Nd41 2.410 . S
O70 C59 1.251 . S
O71 Nd40 2.424 . S
O71 C59 1.268 . S
H72 C44 0.930 . S
H73 C45 0.929 . S
H74 C47 0.930 . S
H75 C48 0.929 1_565 S
H76 C53 0.930 . S
H77 C54 0.929 . S
H78 C56 0.930 . S
H79 C57 0.929 . S
Nd80 C82 2.836 . S
Nd80 O100 2.500 . S
Nd80 O101 2.492 . S
Nd80 O102 2.487 . S
Nd80 O103 2.682 . S
Nd80 O104 2.410 1_565 S
Nd80 O109 2.414 . S
Nd80 O111 2.424 . S
Nd81 C91 2.836 . S
Nd81 O103 2.414 . S
Nd81 O105 2.424 1_565 S
Nd81 O106 2.500 . S
Nd81 O107 2.492 . S
Nd81 O108 2.487 . S
Nd81 O109 2.682 . S
Nd81 O110 2.410 . S
C82 Nd80 2.836 . S
C82 C83 1.498 1_565 S
C82 O100 1.258 . S
C82 O101 1.239 . S
C83 C82 1.498 1_545 S
C83 C84 1.366 . S
C83 C88 1.407 . S
C84 C83 1.366 . S
C84 C85 1.392 . S
C84 H112 0.930 . S
C85 C84 1.392 . S
C85 C86 1.398 . S
C85 H113 0.929 . S
C86 C85 1.398 . S
C86 C87 1.352 . S
C87 C86 1.352 . S
C87 C88 1.384 . S
C87 H114 0.930 . S
C88 C83 1.407 . S
C88 C87 1.384 . S
C88 H115 0.929 1_545 S
C89 O102 1.241 . S
C89 O103 1.273 . S
C90 O104 1.251 . S
C90 O105 1.268 . S
C91 Nd81 2.836 . S
C91 C92 1.498 . S
C91 O106 1.258 . S
C91 O107 1.239 . S
C92 C91 1.498 . S
C92 C93 1.366 . S
C92 C97 1.407 . S
C93 C92 1.366 . S
C93 C94 1.392 . S
C93 H116 0.930 . S
C94 C93 1.392 . S
C94 C95 1.398 . S
C94 H117 0.929 . S
C95 C94 1.398 . S
C95 C96 1.352 . S
C96 C95 1.352 . S
C96 C97 1.384 . S
C96 H118 0.930 . S
C97 C92 1.407 . S
C97 C96 1.384 . S
C97 H119 0.929 . S
C98 O108 1.241 . S
C98 O109 1.273 . S
C99 O110 1.251 . S
C99 O111 1.268 . S
O100 Nd80 2.500 . S
O100 C82 1.258 . S
O101 Nd80 2.492 . S
O101 C82 1.239 . S
O102 Nd80 2.487 . S
O102 C89 1.241 . S
O103 Nd80 2.682 . S
O103 Nd81 2.414 . S
O103 C89 1.273 . S
O104 Nd80 2.410 1_545 S
O104 C90 1.251 . S
O105 Nd81 2.424 1_545 S
O105 C90 1.268 . S
O106 Nd81 2.500 . S
O106 C91 1.258 . S
O107 Nd81 2.492 . S
O107 C91 1.239 . S
O108 Nd81 2.487 . S
O108 C98 1.241 . S
O109 Nd80 2.414 . S
O109 Nd81 2.682 . S
O109 C98 1.273 . S
O110 Nd81 2.410 . S
O110 C99 1.251 . S
O111 Nd80 2.424 . S
O111 C99 1.268 . S
H112 C84 0.930 . S
H113 C85 0.929 . S
H114 C87 0.930 . S
H115 C88 0.929 1_565 S
H116 C93 0.930 . S
H117 C94 0.929 . S
H118 C96 0.930 . S
H119 C97 0.929 . S
Nd120 C122 2.836 . S
Nd120 O140 2.500 . S
Nd120 O141 2.492 . S
Nd120 O142 2.487 . S
Nd120 O143 2.682 . S
Nd120 O144 2.410 1_545 S
Nd120 O149 2.414 . S
Nd120 O151 2.424 . S
Nd121 C131 2.836 . S
Nd121 O143 2.414 . S
Nd121 O145 2.424 1_545 S
Nd121 O146 2.500 . S
Nd121 O147 2.492 . S
Nd121 O148 2.487 . S
Nd121 O149 2.682 . S
Nd121 O150 2.410 . S
C122 Nd120 2.836 . S
C122 C123 1.498 1_545 S
C122 O140 1.258 . S
C122 O141 1.239 . S
C123 C122 1.498 1_565 S
C123 C124 1.366 . S
C123 C128 1.407 . S
C124 C123 1.366 . S
C124 C125 1.392 . S
C124 H152 0.930 . S
C125 C124 1.392 . S
C125 C126 1.398 . S
C125 H153 0.929 . S
C126 C125 1.398 . S
C126 C127 1.352 . S
C127 C126 1.352 . S
C127 C128 1.384 . S
C127 H154 0.930 . S
C128 C123 1.407 . S
C128 C127 1.384 . S
C128 H155 0.929 1_565 S
C129 O142 1.241 . S
C129 O143 1.273 . S
C130 O144 1.251 . S
C130 O145 1.268 . S
C131 Nd121 2.836 . S
C131 C132 1.498 . S
C131 O146 1.258 . S
C131 O147 1.239 . S
C132 C131 1.498 . S
C132 C133 1.366 . S
C132 C137 1.407 . S
C133 C132 1.366 . S
C133 C134 1.392 . S
C133 H156 0.930 . S
C134 C133 1.392 . S
C134 C135 1.398 . S
C134 H157 0.929 . S
C135 C134 1.398 . S
C135 C136 1.352 . S
C136 C135 1.352 . S
C136 C137 1.384 . S
C136 H158 0.930 . S
C137 C132 1.407 . S
C137 C136 1.384 . S
C137 H159 0.929 . S
C138 O148 1.241 . S
C138 O149 1.273 . S
C139 O150 1.251 . S
C139 O151 1.268 . S
O140 Nd120 2.500 . S
O140 C122 1.258 . S
O141 Nd120 2.492 . S
O141 C122 1.239 . S
O142 Nd120 2.487 . S
O142 C129 1.241 . S
O143 Nd120 2.682 . S
O143 Nd121 2.414 . S
O143 C129 1.273 . S
O144 Nd120 2.410 1_565 S
O144 C130 1.251 . S
O145 Nd121 2.424 1_565 S
O145 C130 1.268 . S
O146 Nd121 2.500 . S
O146 C131 1.258 . S
O147 Nd121 2.492 . S
O147 C131 1.239 . S
O148 Nd121 2.487 . S
O148 C138 1.241 . S
O149 Nd120 2.414 . S
O149 Nd121 2.682 . S
O149 C138 1.273 . S
O150 Nd121 2.410 . S
O150 C139 1.251 . S
O151 Nd120 2.424 . S
O151 C139 1.268 . S
H152 C124 0.930 . S
H153 C125 0.929 . S
H154 C127 0.930 . S
H155 C128 0.929 1_545 S
H156 C133 0.930 . S
H157 C134 0.929 . S
H158 C136 0.930 . S
H159 C137 0.929 . S
Nd160 C162 2.836 . S
Nd160 O180 2.500 . S
Nd160 O181 2.492 . S
Nd160 O182 2.487 . S
Nd160 O183 2.682 . S
Nd160 O184 2.410 . S
Nd160 O189 2.414 . S
Nd160 O191 2.424 1_565 S
Nd161 C171 2.836 . S
Nd161 O183 2.414 . S
Nd161 O185 2.424 . S
Nd161 O186 2.500 . S
Nd161 O187 2.492 . S
Nd161 O188 2.487 . S
Nd161 O189 2.682 . S
Nd161 O190 2.410 1_565 S
C162 Nd160 2.836 . S
C162 C163 1.498 . S
C162 O180 1.258 . S
C162 O181 1.239 . S
C163 C162 1.498 . S
C163 C164 1.366 . S
C163 C168 1.407 . S
C164 C163 1.366 . S
C164 C165 1.392 . S
C164 H192 0.930 . S
C165 C164 1.392 . S
C165 C166 1.398 . S
C165 H193 0.929 . S
C166 C165 1.398 . S
C166 C167 1.352 . S
C167 C166 1.352 . S
C167 C168 1.384 . S
C167 H194 0.930 . S
C168 C163 1.407 . S
C168 C167 1.384 . S
C168 H195 0.929 . S
C169 O182 1.241 . S
C169 O183 1.273 . S
C170 O184 1.251 . S
C170 O185 1.268 . S
C171 Nd161 2.836 . S
C171 C172 1.498 1_565 S
C171 O186 1.258 . S
C171 O187 1.239 . S
C172 C171 1.498 1_545 S
C172 C173 1.366 . S
C172 C177 1.407 . S
C173 C172 1.366 . S
C173 C174 1.392 . S
C173 H196 0.930 . S
C174 C173 1.392 . S
C174 C175 1.398 . S
C174 H197 0.929 . S
C175 C174 1.398 . S
C175 C176 1.352 . S
C176 C175 1.352 . S
C176 C177 1.384 . S
C176 H198 0.930 . S
C177 C172 1.407 . S
C177 C176 1.384 . S
C177 H199 0.929 1_545 S
C178 O188 1.241 . S
C178 O189 1.273 . S
C179 O190 1.251 . S
C179 O191 1.268 . S
O180 Nd160 2.500 . S
O180 C162 1.258 . S
O181 Nd160 2.492 . S
O181 C162 1.239 . S
O182 Nd160 2.487 . S
O182 C169 1.241 . S
O183 Nd160 2.682 . S
O183 Nd161 2.414 . S
O183 C169 1.273 . S
O184 Nd160 2.410 . S
O184 C170 1.251 . S
O185 Nd161 2.424 . S
O185 C170 1.268 . S
O186 Nd161 2.500 . S
O186 C171 1.258 . S
O187 Nd161 2.492 . S
O187 C171 1.239 . S
O188 Nd161 2.487 . S
O188 C178 1.241 . S
O189 Nd160 2.414 . S
O189 Nd161 2.682 . S
O189 C178 1.273 . S
O190 Nd161 2.410 1_545 S
O190 C179 1.251 . S
O191 Nd160 2.424 1_545 S
O191 C179 1.268 . S
H192 C164 0.930 . S
H193 C165 0.929 . S
H194 C167 0.930 . S
H195 C168 0.929 . S
H196 C173 0.930 . S
H197 C174 0.929 . S
H198 C176 0.930 . S
H199 C177 0.929 1_565 S
Nd200 C202 2.836 . S
Nd200 O220 2.500 . S
Nd200 O221 2.492 . S
Nd200 O222 2.487 . S
Nd200 O223 2.682 . S
Nd200 O224 2.410 . S
Nd200 O229 2.414 . S
Nd200 O231 2.424 1_545 S
Nd201 C211 2.836 . S
Nd201 O223 2.414 . S
Nd201 O225 2.424 . S
Nd201 O226 2.500 . S
Nd201 O227 2.492 . S
Nd201 O228 2.487 . S
Nd201 O229 2.682 . S
Nd201 O230 2.410 1_545 S
C202 Nd200 2.836 . S
C202 C203 1.498 . S
C202 O220 1.258 . S
C202 O221 1.239 . S
C203 C202 1.498 . S
C203 C204 1.366 . S
C203 C208 1.407 . S
C204 C203 1.366 . S
C204 C205 1.392 . S
C204 H232 0.930 . S
C205 C204 1.392 . S
C205 C206 1.398 . S
C205 H233 0.929 . S
C206 C205 1.398 . S
C206 C207 1.352 . S
C207 C206 1.352 . S
C207 C208 1.384 . S
C207 H234 0.930 . S
C208 C203 1.407 . S
C208 C207 1.384 . S
C208 H235 0.929 . S
C209 O222 1.241 . S
C209 O223 1.273 . S
C210 O224 1.251 . S
C210 O225 1.268 . S
C211 Nd201 2.836 . S
C211 C212 1.498 1_545 S
C211 O226 1.258 . S
C211 O227 1.239 . S
C212 C211 1.498 1_565 S
C212 C213 1.366 . S
C212 C217 1.407 . S
C213 C212 1.366 . S
C213 C214 1.392 . S
C213 H236 0.930 . S
C214 C213 1.392 . S
C214 C215 1.398 . S
C214 H237 0.929 . S
C215 C214 1.398 . S
C215 C216 1.352 . S
C216 C215 1.352 . S
C216 C217 1.384 . S
C216 H238 0.930 . S
C217 C212 1.407 . S
C217 C216 1.384 . S
C217 H239 0.929 1_565 S
C218 O228 1.241 . S
C218 O229 1.273 . S
C219 O230 1.251 . S
C219 O231 1.268 . S
O220 Nd200 2.500 . S
O220 C202 1.258 . S
O221 Nd200 2.492 . S
O221 C202 1.239 . S
O222 Nd200 2.487 . S
O222 C209 1.241 . S
O223 Nd200 2.682 . S
O223 Nd201 2.414 . S
O223 C209 1.273 . S
O224 Nd200 2.410 . S
O224 C210 1.251 . S
O225 Nd201 2.424 . S
O225 C210 1.268 . S
O226 Nd201 2.500 . S
O226 C211 1.258 . S
O227 Nd201 2.492 . S
O227 C211 1.239 . S
O228 Nd201 2.487 . S
O228 C218 1.241 . S
O229 Nd200 2.414 . S
O229 Nd201 2.682 . S
O229 C218 1.273 . S
O230 Nd201 2.410 1_565 S
O230 C219 1.251 . S
O231 Nd200 2.424 1_565 S
O231 C219 1.268 . S
H232 C204 0.930 . S
H233 C205 0.929 . S
H234 C207 0.930 . S
H235 C208 0.929 . S
H236 C213 0.930 . S
H237 C214 0.929 . S
H238 C216 0.930 . S
H239 C217 0.929 1_545 S
Nd240 C242 2.836 . S
Nd240 O260 2.500 . S
Nd240 O261 2.492 . S
Nd240 O262 2.487 . S
Nd240 O263 2.682 . S
Nd240 O264 2.410 . S
Nd240 O269 2.414 . S
Nd240 O271 2.424 1_545 S
Nd241 C251 2.836 . S
Nd241 O263 2.414 . S
Nd241 O265 2.424 . S
Nd241 O266 2.500 . S
Nd241 O267 2.492 . S
Nd241 O268 2.487 . S
Nd241 O269 2.682 . S
Nd241 O270 2.410 1_545 S
C242 Nd240 2.836 . S
C242 C243 1.498 . S
C242 O260 1.258 . S
C242 O261 1.239 . S
C243 C242 1.498 . S
C243 C244 1.366 . S
C243 C248 1.407 . S
C244 C243 1.366 . S
C244 C245 1.392 . S
C244 H272 0.930 . S
C245 C244 1.392 . S
C245 C246 1.398 . S
C245 H273 0.929 . S
C246 C245 1.398 . S
C246 C247 1.352 . S
C247 C246 1.352 . S
C247 C248 1.384 . S
C247 H274 0.930 . S
C248 C243 1.407 . S
C248 C247 1.384 . S
C248 H275 0.929 . S
C249 O262 1.241 . S
C249 O263 1.273 . S
C250 O264 1.251 . S
C250 O265 1.268 . S
C251 Nd241 2.836 . S
C251 C252 1.498 1_545 S
C251 O266 1.258 . S
C251 O267 1.239 . S
C252 C251 1.498 1_565 S
C252 C253 1.366 . S
C252 C257 1.407 . S
C253 C252 1.366 . S
C253 C254 1.392 . S
C253 H276 0.930 . S
C254 C253 1.392 . S
C254 C255 1.398 . S
C254 H277 0.929 . S
C255 C254 1.398 . S
C255 C256 1.352 . S
C256 C255 1.352 . S
C256 C257 1.384 . S
C256 H278 0.930 . S
C257 C252 1.407 . S
C257 C256 1.384 . S
C257 H279 0.929 1_565 S
C258 O268 1.241 . S
C258 O269 1.273 . S
C259 O270 1.251 . S
C259 O271 1.268 . S
O260 Nd240 2.500 . S
O260 C242 1.258 . S
O261 Nd240 2.492 . S
O261 C242 1.239 . S
O262 Nd240 2.487 . S
O262 C249 1.241 . S
O263 Nd240 2.682 . S
O263 Nd241 2.414 . S
O263 C249 1.273 . S
O264 Nd240 2.410 . S
O264 C250 1.251 . S
O265 Nd241 2.424 . S
O265 C250 1.268 . S
O266 Nd241 2.500 . S
O266 C251 1.258 . S
O267 Nd241 2.492 . S
O267 C251 1.239 . S
O268 Nd241 2.487 . S
O268 C258 1.241 . S
O269 Nd240 2.414 . S
O269 Nd241 2.682 . S
O269 C258 1.273 . S
O270 Nd241 2.410 1_565 S
O270 C259 1.251 . S
O271 Nd240 2.424 1_565 S
O271 C259 1.268 . S
H272 C244 0.930 . S
H273 C245 0.929 . S
H274 C247 0.930 . S
H275 C248 0.929 . S
H276 C253 0.930 . S
H277 C254 0.929 . S
H278 C256 0.930 . S
H279 C257 0.929 1_545 S
Nd280 C282 2.836 . S
Nd280 O300 2.500 . S
Nd280 O301 2.492 . S
Nd280 O302 2.487 . S
Nd280 O303 2.682 . S
Nd280 O304 2.410 . S
Nd280 O309 2.414 . S
Nd280 O311 2.424 1_565 S
Nd281 C291 2.836 . S
Nd281 O303 2.414 . S
Nd281 O305 2.424 . S
Nd281 O306 2.500 . S
Nd281 O307 2.492 . S
Nd281 O308 2.487 . S
Nd281 O309 2.682 . S
Nd281 O310 2.410 1_565 S
C282 Nd280 2.836 . S
C282 C283 1.498 . S
C282 O300 1.258 . S
C282 O301 1.239 . S
C283 C282 1.498 . S
C283 C284 1.366 . S
C283 C288 1.407 . S
C284 C283 1.366 . S
C284 C285 1.392 . S
C284 H312 0.930 . S
C285 C284 1.392 . S
C285 C286 1.398 . S
C285 H313 0.929 . S
C286 C285 1.398 . S
C286 C287 1.352 . S
C287 C286 1.352 . S
C287 C288 1.384 . S
C287 H314 0.930 . S
C288 C283 1.407 . S
C288 C287 1.384 . S
C288 H315 0.929 . S
C289 O302 1.241 . S
C289 O303 1.273 . S
C290 O304 1.251 . S
C290 O305 1.268 . S
C291 Nd281 2.836 . S
C291 C292 1.498 1_565 S
C291 O306 1.258 . S
C291 O307 1.239 . S
C292 C291 1.498 1_545 S
C292 C293 1.366 . S
C292 C297 1.407 . S
C293 C292 1.366 . S
C293 C294 1.392 . S
C293 H316 0.930 . S
C294 C293 1.392 . S
C294 C295 1.398 . S
C294 H317 0.929 . S
C295 C294 1.398 . S
C295 C296 1.352 . S
C296 C295 1.352 . S
C296 C297 1.384 . S
C296 H318 0.930 . S
C297 C292 1.407 . S
C297 C296 1.384 . S
C297 H319 0.929 1_545 S
C298 O308 1.241 . S
C298 O309 1.273 . S
C299 O310 1.251 . S
C299 O311 1.268 . S
O300 Nd280 2.500 . S
O300 C282 1.258 . S
O301 Nd280 2.492 . S
O301 C282 1.239 . S
O302 Nd280 2.487 . S
O302 C289 1.241 . S
O303 Nd280 2.682 . S
O303 Nd281 2.414 . S
O303 C289 1.273 . S
O304 Nd280 2.410 . S
O304 C290 1.251 . S
O305 Nd281 2.424 . S
O305 C290 1.268 . S
O306 Nd281 2.500 . S
O306 C291 1.258 . S
O307 Nd281 2.492 . S
O307 C291 1.239 . S
O308 Nd281 2.487 . S
O308 C298 1.241 . S
O309 Nd280 2.414 . S
O309 Nd281 2.682 . S
O309 C298 1.273 . S
O310 Nd281 2.410 1_545 S
O310 C299 1.251 . S
O311 Nd280 2.424 1_545 S
O311 C299 1.268 . S
H312 C284 0.930 . S
H313 C285 0.929 . S
H314 C287 0.930 . S
H315 C288 0.929 . S
H316 C293 0.930 . S
H317 C294 0.929 . S
H318 C296 0.930 . S
H319 C297 0.929 1_565 S
Nd320 C322 2.836 . S
Nd320 O340 2.500 . S
Nd320 O341 2.492 . S
Nd320 O342 2.487 . S
Nd320 O343 2.682 . S
Nd320 O344 2.410 . S
Nd320 O349 2.414 . S
Nd320 O351 2.424 . S
Nd321 C331 2.836 . S
Nd321 O343 2.414 . S
Nd321 O345 2.424 . S
Nd321 O346 2.500 . S
Nd321 O347 2.492 . S
Nd321 O348 2.487 . S
Nd321 O349 2.682 . S
Nd321 O350 2.410 . S
C322 Nd320 2.836 . S
C322 C323 1.498 . S
C322 O340 1.258 . S
C322 O341 1.239 . S
C323 C322 1.498 . S
C323 C324 1.366 . S
C323 C328 1.407 . S
C324 C323 1.366 . S
C324 C325 1.392 . S
C324 H352 0.930 . S
C325 C324 1.392 . S
C325 C326 1.398 . S
C325 H353 0.929 . S
C326 C325 1.398 . S
C326 C327 1.352 . S
C327 C326 1.352 . S
C327 C328 1.384 . S
C327 H354 0.930 . S
C328 C323 1.407 . S
C328 C327 1.384 . S
C328 H355 0.929 . S
C329 O342 1.241 . S
C329 O343 1.273 . S
C330 O344 1.251 . S
C330 O345 1.268 . S
C331 Nd321 2.836 . S
C331 C332 1.498 . S
C331 O346 1.258 . S
C331 O347 1.239 . S
C332 C331 1.498 . S
C332 C333 1.366 . S
C332 C337 1.407 . S
C333 C332 1.366 . S
C333 C334 1.392 . S
C333 H356 0.930 . S
C334 C333 1.392 . S
C334 C335 1.398 . S
C334 H357 0.929 . S
C335 C334 1.398 . S
C335 C336 1.352 . S
C336 C335 1.352 . S
C336 C337 1.384 . S
C336 H358 0.930 . S
C337 C332 1.407 . S
C337 C336 1.384 . S
C337 H359 0.929 . S
C338 O348 1.241 . S
C338 O349 1.273 . S
C339 O350 1.251 . S
C339 O351 1.268 . S
O340 Nd320 2.500 . S
O340 C322 1.258 . S
O341 Nd320 2.492 . S
O341 C322 1.239 . S
O342 Nd320 2.487 . S
O342 C329 1.241 . S
O343 Nd320 2.682 . S
O343 Nd321 2.414 . S
O343 C329 1.273 . S
O344 Nd320 2.410 . S
O344 C330 1.251 . S
O345 Nd321 2.424 . S
O345 C330 1.268 . S
O346 Nd321 2.500 . S
O346 C331 1.258 . S
O347 Nd321 2.492 . S
O347 C331 1.239 . S
O348 Nd321 2.487 . S
O348 C338 1.241 . S
O349 Nd320 2.414 . S
O349 Nd321 2.682 . S
O349 C338 1.273 . S
O350 Nd321 2.410 . S
O350 C339 1.251 . S
O351 Nd320 2.424 . S
O351 C339 1.268 . S
H352 C324 0.930 . S
H353 C325 0.929 . S
H354 C327 0.930 . S
H355 C328 0.929 . S
H356 C333 0.930 . S
H357 C334 0.929 . S
H358 C336 0.930 . S
H359 C337 0.929 . S
Nd360 C362 2.836 . S
Nd360 O380 2.500 . S
Nd360 O381 2.492 . S
Nd360 O382 2.487 . S
Nd360 O383 2.682 . S
Nd360 O384 2.410 . S
Nd360 O389 2.414 . S
Nd360 O391 2.424 . S
Nd361 C371 2.836 . S
Nd361 O383 2.414 . S
Nd361 O385 2.424 . S
Nd361 O386 2.500 . S
Nd361 O387 2.492 . S
Nd361 O388 2.487 . S
Nd361 O389 2.682 . S
Nd361 O390 2.410 . S
C362 Nd360 2.836 . S
C362 C363 1.498 . S
C362 O380 1.258 . S
C362 O381 1.239 . S
C363 C362 1.498 . S
C363 C364 1.366 . S
C363 C368 1.407 . S
C364 C363 1.366 . S
C364 C365 1.392 . S
C364 H392 0.930 . S
C365 C364 1.392 . S
C365 C366 1.398 . S
C365 H393 0.929 . S
C366 C365 1.398 . S
C366 C367 1.352 . S
C367 C366 1.352 . S
C367 C368 1.384 . S
C367 H394 0.930 . S
C368 C363 1.407 . S
C368 C367 1.384 . S
C368 H395 0.929 . S
C369 O382 1.241 . S
C369 O383 1.273 . S
C370 O384 1.251 . S
C370 O385 1.268 . S
C371 Nd361 2.836 . S
C371 C372 1.498 . S
C371 O386 1.258 . S
C371 O387 1.239 . S
C372 C371 1.498 . S
C372 C373 1.366 . S
C372 C377 1.407 . S
C373 C372 1.366 . S
C373 C374 1.392 . S
C373 H396 0.930 . S
C374 C373 1.392 . S
C374 C375 1.398 . S
C374 H397 0.929 . S
C375 C374 1.398 . S
C375 C376 1.352 . S
C376 C375 1.352 . S
C376 C377 1.384 . S
C376 H398 0.930 . S
C377 C372 1.407 . S
C377 C376 1.384 . S
C377 H399 0.929 . S
C378 O388 1.241 . S
C378 O389 1.273 . S
C379 O390 1.251 . S
C379 O391 1.268 . S
O380 Nd360 2.500 . S
O380 C362 1.258 . S
O381 Nd360 2.492 . S
O381 C362 1.239 . S
O382 Nd360 2.487 . S
O382 C369 1.241 . S
O383 Nd360 2.682 . S
O383 Nd361 2.414 . S
O383 C369 1.273 . S
O384 Nd360 2.410 . S
O384 C370 1.251 . S
O385 Nd361 2.424 . S
O385 C370 1.268 . S
O386 Nd361 2.500 . S
O386 C371 1.258 . S
O387 Nd361 2.492 . S
O387 C371 1.239 . S
O388 Nd361 2.487 . S
O388 C378 1.241 . S
O389 Nd360 2.414 . S
O389 Nd361 2.682 . S
O389 C378 1.273 . S
O390 Nd361 2.410 . S
O390 C379 1.251 . S
O391 Nd360 2.424 . S
O391 C379 1.268 . S
H392 C364 0.930 . S
H393 C365 0.929 . S
H394 C367 0.930 . S
H395 C368 0.929 . S
H396 C373 0.930 . S
H397 C374 0.929 . S
H398 C376 0.930 . S
H399 C377 0.929 . S
Nd400 C402 2.836 . S
Nd400 O420 2.500 . S
Nd400 O421 2.492 . S
Nd400 O422 2.487 . S
Nd400 O423 2.682 . S
Nd400 O424 2.410 . S
Nd400 O429 2.414 . S
Nd400 O431 2.424 . S
Nd401 C411 2.836 . S
Nd401 O423 2.414 . S
Nd401 O425 2.424 . S
Nd401 O426 2.500 . S
Nd401 O427 2.492 . S
Nd401 O428 2.487 . S
Nd401 O429 2.682 . S
Nd401 O430 2.410 . S
C402 Nd400 2.836 . S
C402 C403 1.498 . S
C402 O420 1.258 . S
C402 O421 1.239 . S
C403 C402 1.498 . S
C403 C404 1.366 . S
C403 C408 1.407 . S
C404 C403 1.366 . S
C404 C405 1.392 . S
C404 H432 0.930 . S
C405 C404 1.392 . S
C405 C406 1.398 . S
C405 H433 0.929 . S
C406 C405 1.398 . S
C406 C407 1.352 . S
C407 C406 1.352 . S
C407 C408 1.384 . S
C407 H434 0.930 . S
C408 C403 1.407 . S
C408 C407 1.384 . S
C408 H435 0.929 . S
C409 O422 1.241 . S
C409 O423 1.273 . S
C410 O424 1.251 . S
C410 O425 1.268 . S
C411 Nd401 2.836 . S
C411 C412 1.498 . S
C411 O426 1.258 . S
C411 O427 1.239 . S
C412 C411 1.498 . S
C412 C413 1.366 . S
C412 C417 1.407 . S
C413 C412 1.366 . S
C413 C414 1.392 . S
C413 H436 0.930 . S
C414 C413 1.392 . S
C414 C415 1.398 . S
C414 H437 0.929 . S
C415 C414 1.398 . S
C415 C416 1.352 . S
C416 C415 1.352 . S
C416 C417 1.384 . S
C416 H438 0.930 . S
C417 C412 1.407 . S
C417 C416 1.384 . S
C417 H439 0.929 . S
C418 O428 1.241 . S
C418 O429 1.273 . S
C419 O430 1.251 . S
C419 O431 1.268 . S
O420 Nd400 2.500 . S
O420 C402 1.258 . S
O421 Nd400 2.492 . S
O421 C402 1.239 . S
O422 Nd400 2.487 . S
O422 C409 1.241 . S
O423 Nd400 2.682 . S
O423 Nd401 2.414 . S
O423 C409 1.273 . S
O424 Nd400 2.410 . S
O424 C410 1.251 . S
O425 Nd401 2.424 . S
O425 C410 1.268 . S
O426 Nd401 2.500 . S
O426 C411 1.258 . S
O427 Nd401 2.492 . S
O427 C411 1.239 . S
O428 Nd401 2.487 . S
O428 C418 1.241 . S
O429 Nd400 2.414 . S
O429 Nd401 2.682 . S
O429 C418 1.273 . S
O430 Nd401 2.410 . S
O430 C419 1.251 . S
O431 Nd400 2.424 . S
O431 C419 1.268 . S
H432 C404 0.930 . S
H433 C405 0.929 . S
H434 C407 0.930 . S
H435 C408 0.929 . S
H436 C413 0.930 . S
H437 C414 0.929 . S
H438 C416 0.930 . S
H439 C417 0.929 . S
Nd440 C442 2.836 . S
Nd440 O460 2.500 . S
Nd440 O461 2.492 . S
Nd440 O462 2.487 . S
Nd440 O463 2.682 . S
Nd440 O464 2.410 . S
Nd440 O469 2.414 . S
Nd440 O471 2.424 . S
Nd441 C451 2.836 . S
Nd441 O463 2.414 . S
Nd441 O465 2.424 . S
Nd441 O466 2.500 . S
Nd441 O467 2.492 . S
Nd441 O468 2.487 . S
Nd441 O469 2.682 . S
Nd441 O470 2.410 . S
C442 Nd440 2.836 . S
C442 C443 1.498 . S
C442 O460 1.258 . S
C442 O461 1.239 . S
C443 C442 1.498 . S
C443 C444 1.366 . S
C443 C448 1.407 . S
C444 C443 1.366 . S
C444 C445 1.392 . S
C444 H472 0.930 . S
C445 C444 1.392 . S
C445 C446 1.398 . S
C445 H473 0.929 . S
C446 C445 1.398 . S
C446 C447 1.352 . S
C447 C446 1.352 . S
C447 C448 1.384 . S
C447 H474 0.930 . S
C448 C443 1.407 . S
C448 C447 1.384 . S
C448 H475 0.929 . S
C449 O462 1.241 . S
C449 O463 1.273 . S
C450 O464 1.251 . S
C450 O465 1.268 . S
C451 Nd441 2.836 . S
C451 C452 1.498 . S
C451 O466 1.258 . S
C451 O467 1.239 . S
C452 C451 1.498 . S
C452 C453 1.366 . S
C452 C457 1.407 . S
C453 C452 1.366 . S
C453 C454 1.392 . S
C453 H476 0.930 . S
C454 C453 1.392 . S
C454 C455 1.398 . S
C454 H477 0.929 . S
C455 C454 1.398 . S
C455 C456 1.352 . S
C456 C455 1.352 . S
C456 C457 1.384 . S
C456 H478 0.930 . S
C457 C452 1.407 . S
C457 C456 1.384 . S
C457 H479 0.929 . S
C458 O468 1.241 . S
C458 O469 1.273 . S
C459 O470 1.251 . S
C459 O471 1.268 . S
O460 Nd440 2.500 . S
O460 C442 1.258 . S
O461 Nd440 2.492 . S
O461 C442 1.239 . S
O462 Nd440 2.487 . S
O462 C449 1.241 . S
O463 Nd440 2.682 . S
O463 Nd441 2.414 . S
O463 C449 1.273 . S
O464 Nd440 2.410 . S
O464 C450 1.251 . S
O465 Nd441 2.424 . S
O465 C450 1.268 . S
O466 Nd441 2.500 . S
O466 C451 1.258 . S
O467 Nd441 2.492 . S
O467 C451 1.239 . S
O468 Nd441 2.487 . S
O468 C458 1.241 . S
O469 Nd440 2.414 . S
O469 Nd441 2.682 . S
O469 C458 1.273 . S
O470 Nd441 2.410 . S
O470 C459 1.251 . S
O471 Nd440 2.424 . S
O471 C459 1.268 . S
H472 C444 0.930 . S
H473 C445 0.929 . S
H474 C447 0.930 . S
H475 C448 0.929 . S
H476 C453 0.930 . S
H477 C454 0.929 . S
H478 C456 0.930 . S
H479 C457 0.929 . S
Nd480 C482 2.836 . S
Nd480 O500 2.500 . S
Nd480 O501 2.492 . S
Nd480 O502 2.487 . S
Nd480 O503 2.682 . S
Nd480 O504 2.410 . S
Nd480 O509 2.414 . S
Nd480 O511 2.424 . S
Nd481 C491 2.836 . S
Nd481 O503 2.414 . S
Nd481 O505 2.424 . S
Nd481 O506 2.500 . S
Nd481 O507 2.492 . S
Nd481 O508 2.487 . S
Nd481 O509 2.682 . S
Nd481 O510 2.410 . S
C482 Nd480 2.836 . S
C482 C483 1.498 . S
C482 O500 1.258 . S
C482 O501 1.239 . S
C483 C482 1.498 . S
C483 C484 1.366 . S
C483 C488 1.407 . S
C484 C483 1.366 . S
C484 C485 1.392 . S
C484 H512 0.930 . S
C485 C484 1.392 . S
C485 C486 1.398 . S
C485 H513 0.929 . S
C486 C485 1.398 . S
C486 C487 1.352 . S
C487 C486 1.352 . S
C487 C488 1.384 . S
C487 H514 0.930 . S
C488 C483 1.407 . S
C488 C487 1.384 . S
C488 H515 0.929 . S
C489 O502 1.241 . S
C489 O503 1.273 . S
C490 O504 1.251 . S
C490 O505 1.268 . S
C491 Nd481 2.836 . S
C491 C492 1.498 . S
C491 O506 1.258 . S
C491 O507 1.239 . S
C492 C491 1.498 . S
C492 C493 1.366 . S
C492 C497 1.407 . S
C493 C492 1.366 . S
C493 C494 1.392 . S
C493 H516 0.930 . S
C494 C493 1.392 . S
C494 C495 1.398 . S
C494 H517 0.929 . S
C495 C494 1.398 . S
C495 C496 1.352 . S
C496 C495 1.352 . S
C496 C497 1.384 . S
C496 H518 0.930 . S
C497 C492 1.407 . S
C497 C496 1.384 . S
C497 H519 0.929 . S
C498 O508 1.241 . S
C498 O509 1.273 . S
C499 O510 1.251 . S
C499 O511 1.268 . S
O500 Nd480 2.500 . S
O500 C482 1.258 . S
O501 Nd480 2.492 . S
O501 C482 1.239 . S
O502 Nd480 2.487 . S
O502 C489 1.241 . S
O503 Nd480 2.682 . S
O503 Nd481 2.414 . S
O503 C489 1.273 . S
O504 Nd480 2.410 . S
O504 C490 1.251 . S
O505 Nd481 2.424 . S
O505 C490 1.268 . S
O506 Nd481 2.500 . S
O506 C491 1.258 . S
O507 Nd481 2.492 . S
O507 C491 1.239 . S
O508 Nd481 2.487 . S
O508 C498 1.241 . S
O509 Nd480 2.414 . S
O509 Nd481 2.682 . S
O509 C498 1.273 . S
O510 Nd481 2.410 . S
O510 C499 1.251 . S
O511 Nd480 2.424 . S
O511 C499 1.268 . S
H512 C484 0.930 . S
H513 C485 0.929 . S
H514 C487 0.930 . S
H515 C488 0.929 . S
H516 C493 0.930 . S
H517 C494 0.929 . S
H518 C496 0.930 . S
H519 C497 0.929 . S
Nd520 C522 2.836 . S
Nd520 O540 2.500 . S
Nd520 O541 2.492 . S
Nd520 O542 2.487 . S
Nd520 O543 2.682 . S
Nd520 O544 2.410 . S
Nd520 O549 2.414 . S
Nd520 O551 2.424 . S
Nd521 C531 2.836 . S
Nd521 O543 2.414 . S
Nd521 O545 2.424 . S
Nd521 O546 2.500 . S
Nd521 O547 2.492 . S
Nd521 O548 2.487 . S
Nd521 O549 2.682 . S
Nd521 O550 2.410 . S
C522 Nd520 2.836 . S
C522 C523 1.498 . S
C522 O540 1.258 . S
C522 O541 1.239 . S
C523 C522 1.498 . S
C523 C524 1.366 . S
C523 C528 1.407 . S
C524 C523 1.366 . S
C524 C525 1.392 . S
C524 H552 0.930 . S
C525 C524 1.392 . S
C525 C526 1.398 . S
C525 H553 0.929 . S
C526 C525 1.398 . S
C526 C527 1.352 . S
C527 C526 1.352 . S
C527 C528 1.384 . S
C527 H554 0.930 . S
C528 C523 1.407 . S
C528 C527 1.384 . S
C528 H555 0.929 . S
C529 O542 1.241 . S
C529 O543 1.273 . S
C530 O544 1.251 . S
C530 O545 1.268 . S
C531 Nd521 2.836 . S
C531 C532 1.498 . S
C531 O546 1.258 . S
C531 O547 1.239 . S
C532 C531 1.498 . S
C532 C533 1.366 . S
C532 C537 1.407 . S
C533 C532 1.366 . S
C533 C534 1.392 . S
C533 H556 0.930 . S
C534 C533 1.392 . S
C534 C535 1.398 . S
C534 H557 0.929 . S
C535 C534 1.398 . S
C535 C536 1.352 . S
C536 C535 1.352 . S
C536 C537 1.384 . S
C536 H558 0.930 . S
C537 C532 1.407 . S
C537 C536 1.384 . S
C537 H559 0.929 . S
C538 O548 1.241 . S
C538 O549 1.273 . S
C539 O550 1.251 . S
C539 O551 1.268 . S
O540 Nd520 2.500 . S
O540 C522 1.258 . S
O541 Nd520 2.492 . S
O541 C522 1.239 . S
O542 Nd520 2.487 . S
O542 C529 1.241 . S
O543 Nd520 2.682 . S
O543 Nd521 2.414 . S
O543 C529 1.273 . S
O544 Nd520 2.410 . S
O544 C530 1.251 . S
O545 Nd521 2.424 . S
O545 C530 1.268 . S
O546 Nd521 2.500 . S
O546 C531 1.258 . S
O547 Nd521 2.492 . S
O547 C531 1.239 . S
O548 Nd521 2.487 . S
O548 C538 1.241 . S
O549 Nd520 2.414 . S
O549 Nd521 2.682 . S
O549 C538 1.273 . S
O550 Nd521 2.410 . S
O550 C539 1.251 . S
O551 Nd520 2.424 . S
O551 C539 1.268 . S
H552 C524 0.930 . S
H553 C525 0.929 . S
H554 C527 0.930 . S
H555 C528 0.929 . S
H556 C533 0.930 . S
H557 C534 0.929 . S
H558 C536 0.930 . S
H559 C537 0.929 . S
Nd560 C562 2.836 . S
Nd560 O580 2.500 . S
Nd560 O581 2.492 . S
Nd560 O582 2.487 . S
Nd560 O583 2.682 . S
Nd560 O584 2.410 . S
Nd560 O589 2.414 . S
Nd560 O591 2.424 . S
Nd561 C571 2.836 . S
Nd561 O583 2.414 . S
Nd561 O585 2.424 . S
Nd561 O586 2.500 . S
Nd561 O587 2.492 . S
Nd561 O588 2.487 . S
Nd561 O589 2.682 . S
Nd561 O590 2.410 . S
C562 Nd560 2.836 . S
C562 C563 1.498 . S
C562 O580 1.258 . S
C562 O581 1.239 . S
C563 C562 1.498 . S
C563 C564 1.366 . S
C563 C568 1.407 . S
C564 C563 1.366 . S
C564 C565 1.392 . S
C564 H592 0.930 . S
C565 C564 1.392 . S
C565 C566 1.398 . S
C565 H593 0.929 . S
C566 C565 1.398 . S
C566 C567 1.352 . S
C567 C566 1.352 . S
C567 C568 1.384 . S
C567 H594 0.930 . S
C568 C563 1.407 . S
C568 C567 1.384 . S
C568 H595 0.929 . S
C569 O582 1.241 . S
C569 O583 1.273 . S
C570 O584 1.251 . S
C570 O585 1.268 . S
C571 Nd561 2.836 . S
C571 C572 1.498 . S
C571 O586 1.258 . S
C571 O587 1.239 . S
C572 C571 1.498 . S
C572 C573 1.366 . S
C572 C577 1.407 . S
C573 C572 1.366 . S
C573 C574 1.392 . S
C573 H596 0.930 . S
C574 C573 1.392 . S
C574 C575 1.398 . S
C574 H597 0.929 . S
C575 C574 1.398 . S
C575 C576 1.352 . S
C576 C575 1.352 . S
C576 C577 1.384 . S
C576 H598 0.930 . S
C577 C572 1.407 . S
C577 C576 1.384 . S
C577 H599 0.929 . S
C578 O588 1.241 . S
C578 O589 1.273 . S
C579 O590 1.251 . S
C579 O591 1.268 . S
O580 Nd560 2.500 . S
O580 C562 1.258 . S
O581 Nd560 2.492 . S
O581 C562 1.239 . S
O582 Nd560 2.487 . S
O582 C569 1.241 . S
O583 Nd560 2.682 . S
O583 Nd561 2.414 . S
O583 C569 1.273 . S
O584 Nd560 2.410 . S
O584 C570 1.251 . S
O585 Nd561 2.424 . S
O585 C570 1.268 . S
O586 Nd561 2.500 . S
O586 C571 1.258 . S
O587 Nd561 2.492 . S
O587 C571 1.239 . S
O588 Nd561 2.487 . S
O588 C578 1.241 . S
O589 Nd560 2.414 . S
O589 Nd561 2.682 . S
O589 C578 1.273 . S
O590 Nd561 2.410 . S
O590 C579 1.251 . S
O591 Nd560 2.424 . S
O591 C579 1.268 . S
H592 C564 0.930 . S
H593 C565 0.929 . S
H594 C567 0.930 . S
H595 C568 0.929 . S
H596 C573 0.930 . S
H597 C574 0.929 . S
H598 C576 0.930 . S
H599 C577 0.929 . S
Nd600 C602 2.836 . S
Nd600 O620 2.500 . S
Nd600 O621 2.492 . S
Nd600 O622 2.487 . S
Nd600 O623 2.682 . S
Nd600 O624 2.410 . S
Nd600 O629 2.414 . S
Nd600 O631 2.424 . S
Nd601 C611 2.836 . S
Nd601 O623 2.414 . S
Nd601 O625 2.424 . S
Nd601 O626 2.500 . S
Nd601 O627 2.492 . S
Nd601 O628 2.487 . S
Nd601 O629 2.682 . S
Nd601 O630 2.410 . S
C602 Nd600 2.836 . S
C602 C603 1.498 . S
C602 O620 1.258 . S
C602 O621 1.239 . S
C603 C602 1.498 . S
C603 C604 1.366 . S
C603 C608 1.407 . S
C604 C603 1.366 . S
C604 C605 1.392 . S
C604 H632 0.930 . S
C605 C604 1.392 . S
C605 C606 1.398 . S
C605 H633 0.929 . S
C606 C605 1.398 . S
C606 C607 1.352 . S
C607 C606 1.352 . S
C607 C608 1.384 . S
C607 H634 0.930 . S
C608 C603 1.407 . S
C608 C607 1.384 . S
C608 H635 0.929 . S
C609 O622 1.241 . S
C609 O623 1.273 . S
C610 O624 1.251 . S
C610 O625 1.268 . S
C611 Nd601 2.836 . S
C611 C612 1.498 . S
C611 O626 1.258 . S
C611 O627 1.239 . S
C612 C611 1.498 . S
C612 C613 1.366 . S
C612 C617 1.407 . S
C613 C612 1.366 . S
C613 C614 1.392 . S
C613 H636 0.930 . S
C614 C613 1.392 . S
C614 C615 1.398 . S
C614 H637 0.929 . S
C615 C614 1.398 . S
C615 C616 1.352 . S
C616 C615 1.352 . S
C616 C617 1.384 . S
C616 H638 0.930 . S
C617 C612 1.407 . S
C617 C616 1.384 . S
C617 H639 0.929 . S
C618 O628 1.241 . S
C618 O629 1.273 . S
C619 O630 1.251 . S
C619 O631 1.268 . S
O620 Nd600 2.500 . S
O620 C602 1.258 . S
O621 Nd600 2.492 . S
O621 C602 1.239 . S
O622 Nd600 2.487 . S
O622 C609 1.241 . S
O623 Nd600 2.682 . S
O623 Nd601 2.414 . S
O623 C609 1.273 . S
O624 Nd600 2.410 . S
O624 C610 1.251 . S
O625 Nd601 2.424 . S
O625 C610 1.268 . S
O626 Nd601 2.500 . S
O626 C611 1.258 . S
O627 Nd601 2.492 . S
O627 C611 1.239 . S
O628 Nd601 2.487 . S
O628 C618 1.241 . S
O629 Nd600 2.414 . S
O629 Nd601 2.682 . S
O629 C618 1.273 . S
O630 Nd601 2.410 . S
O630 C619 1.251 . S
O631 Nd600 2.424 . S
O631 C619 1.268 . S
H632 C604 0.930 . S
H633 C605 0.929 . S
H634 C607 0.930 . S
H635 C608 0.929 . S
H636 C613 0.930 . S
H637 C614 0.929 . S
H638 C616 0.930 . S
H639 C617 0.929 . S
C640 C641 1.369 . S
C640 C642 1.419 . S
C640 H644 0.930 . S
C641 C640 1.369 . S
C641 C650 1.429 . S
C642 C640 1.419 . S
C642 C643 1.363 . S
C642 H645 0.929 . S
C643 C642 1.363 . S
C643 C649 1.428 . S
H644 C640 0.930 . S
H645 C642 0.929 . S
S646 N647 1.613 . S
S646 N648 1.610 . S
N647 S646 1.613 . S
N647 C650 1.350 . S
N648 S646 1.610 . S
N648 C649 1.351 . S
C649 C643 1.428 . S
C649 N648 1.351 . S
C649 C650 1.434 . S
C650 C641 1.429 . S
C650 N647 1.350 . S
C650 C649 1.434 . S
C651 C652 1.369 . S
C651 C653 1.419 . S
C651 H655 0.930 . S
C652 C651 1.369 . S
C652 C661 1.429 . S
C653 C651 1.419 . S
C653 C654 1.363 . S
C653 H656 0.929 . S
C654 C653 1.363 . S
C654 C660 1.428 . S
H655 C651 0.930 . S
H656 C653 0.929 . S
S657 N658 1.613 . S
S657 N659 1.610 . S
N658 S657 1.613 . S
N658 C661 1.350 . S
N659 S657 1.610 . S
N659 C660 1.351 . S
C660 C654 1.428 . S
C660 N659 1.351 . S
C660 C661 1.434 . S
C661 C652 1.429 . S
C661 N658 1.350 . S
C661 C660 1.434 . S
C662 C663 1.369 . S
C662 C664 1.419 . S
C662 H666 0.930 . S
C663 C662 1.369 . S
C663 C672 1.429 . S
C664 C662 1.419 . S
C664 C665 1.363 . S
C664 H667 0.929 . S
C665 C664 1.363 . S
C665 C671 1.428 . S
H666 C662 0.930 . S
H667 C664 0.929 . S
S668 N669 1.613 . S
S668 N670 1.610 . S
N669 S668 1.613 . S
N669 C672 1.350 . S
N670 S668 1.610 . S
N670 C671 1.351 . S
C671 C665 1.428 . S
C671 N670 1.351 . S
C671 C672 1.434 . S
C672 C663 1.429 . S
C672 N669 1.350 . S
C672 C671 1.434 . S
C673 C674 1.369 . S
C673 C675 1.419 . S
C673 H677 0.930 . S
C674 C673 1.369 . S
C674 C683 1.429 . S
C675 C673 1.419 . S
C675 C676 1.363 . S
C675 H678 0.929 . S
C676 C675 1.363 . S
C676 C682 1.428 . S
H677 C673 0.930 . S
H678 C675 0.929 . S
S679 N680 1.613 . S
S679 N681 1.610 . S
N680 S679 1.613 . S
N680 C683 1.350 . S
N681 S679 1.610 . S
N681 C682 1.351 . S
C682 C676 1.428 . S
C682 N681 1.351 . S
C682 C683 1.434 . S
C683 C674 1.429 . S
C683 N680 1.350 . S
C683 C682 1.434 . S
C684 C685 1.369 . S
C684 C686 1.419 . S
C684 H688 0.930 . S
C685 C684 1.369 . S
C685 C694 1.429 . S
C686 C684 1.419 . S
C686 C687 1.363 . S
C686 H689 0.929 . S
C687 C686 1.363 . S
C687 C693 1.428 . S
H688 C684 0.930 . S
H689 C686 0.929 . S
S690 N691 1.613 . S
S690 N692 1.610 . S
N691 S690 1.613 . S
N691 C694 1.350 . S
N692 S690 1.610 . S
N692 C693 1.351 . S
C693 C687 1.428 . S
C693 N692 1.351 . S
C693 C694 1.434 . S
C694 C685 1.429 . S
C694 N691 1.350 . S
C694 C693 1.434 . S
C695 C696 1.369 . S
C695 C697 1.419 . S
C695 H699 0.930 . S
C696 C695 1.369 . S
C696 C705 1.429 . S
C697 C695 1.419 . S
C697 C698 1.363 . S
C697 H700 0.929 . S
C698 C697 1.363 . S
C698 C704 1.428 . S
H699 C695 0.930 . S
H700 C697 0.929 . S
S701 N702 1.613 . S
S701 N703 1.610 . S
N702 S701 1.613 . S
N702 C705 1.350 . S
N703 S701 1.610 . S
N703 C704 1.351 . S
C704 C698 1.428 . S
C704 N703 1.351 . S
C704 C705 1.434 . S
C705 C696 1.429 . S
C705 N702 1.350 . S
C705 C704 1.434 . S
C706 C707 1.369 . S
C706 C708 1.419 . S
C706 H710 0.930 . S
C707 C706 1.369 . S
C707 C716 1.429 . S
C708 C706 1.419 . S
C708 C709 1.363 . S
C708 H711 0.929 . S
C709 C708 1.363 . S
C709 C715 1.428 . S
H710 C706 0.930 . S
H711 C708 0.929 . S
S712 N713 1.613 . S
S712 N714 1.610 . S
N713 S712 1.613 . S
N713 C716 1.350 . S
N714 S712 1.610 . S
N714 C715 1.351 . S
C715 C709 1.428 . S
C715 N714 1.351 . S
C715 C716 1.434 . S
C716 C707 1.429 . S
C716 N713 1.350 . S
C716 C715 1.434 . S
C717 C718 1.369 . S
C717 C719 1.419 . S
C717 H721 0.930 . S
C718 C717 1.369 . S
C718 C727 1.429 . S
C719 C717 1.419 . S
C719 C720 1.363 . S
C719 H722 0.929 . S
C720 C719 1.363 . S
C720 C726 1.428 . S
H721 C717 0.930 . S
H722 C719 0.929 . S
S723 N724 1.613 . S
S723 N725 1.610 . S
N724 S723 1.613 . S
N724 C727 1.350 . S
N725 S723 1.610 . S
N725 C726 1.351 . S
C726 C720 1.428 . S
C726 N725 1.351 . S
C726 C727 1.434 . S
C727 C718 1.429 . S
C727 N724 1.350 . S
C727 C726 1.434 . S
C728 C729 1.369 1_545 S
C728 C730 1.419 . S
C728 H732 0.930 . S
C729 C728 1.369 1_565 S
C729 C738 1.429 . S
C730 C728 1.419 . S
C730 C731 1.363 . S
C730 H733 0.929 . S
C731 C730 1.363 . S
C731 C737 1.428 1_545 S
H732 C728 0.930 . S
H733 C730 0.929 . S
S734 N735 1.613 . S
S734 N736 1.610 . S
N735 S734 1.613 . S
N735 C738 1.350 . S
N736 S734 1.610 . S
N736 C737 1.351 . S
C737 C731 1.428 1_565 S
C737 N736 1.351 . S
C737 C738 1.434 . S
C738 C729 1.429 . S
C738 N735 1.350 . S
C738 C737 1.434 . S
C739 C740 1.369 . S
C739 C741 1.419 . S
C739 H743 0.930 . S
C740 C739 1.369 . S
C740 C749 1.429 1_545 S
C741 C739 1.419 . S
C741 C742 1.363 1_545 S
C741 H744 0.929 . S
C742 C741 1.363 1_565 S
C742 C748 1.428 . S
H743 C739 0.930 . S
H744 C741 0.929 . S
S745 N746 1.613 . S
S745 N747 1.610 . S
N746 S745 1.613 . S
N746 C749 1.350 . S
N747 S745 1.610 . S
N747 C748 1.351 . S
C748 C742 1.428 . S
C748 N747 1.351 . S
C748 C749 1.434 . S
C749 C740 1.429 1_565 S
C749 N746 1.350 . S
C749 C748 1.434 . S
C750 C751 1.369 . S
C750 C752 1.419 . S
C750 H754 0.930 . S
C751 C750 1.369 . S
C751 C760 1.429 1_545 S
C752 C750 1.419 . S
C752 C753 1.363 1_545 S
C752 H755 0.929 . S
C753 C752 1.363 1_565 S
C753 C759 1.428 . S
H754 C750 0.930 . S
H755 C752 0.929 . S
S756 N757 1.613 . S
S756 N758 1.610 . S
N757 S756 1.613 . S
N757 C760 1.350 . S
N758 S756 1.610 . S
N758 C759 1.351 . S
C759 C753 1.428 . S
C759 N758 1.351 . S
C759 C760 1.434 . S
C760 C751 1.429 1_565 S
C760 N757 1.350 . S
C760 C759 1.434 . S
C761 C762 1.369 . S
C761 C763 1.419 . S
C761 H765 0.930 . S
C762 C761 1.369 . S
C762 C771 1.429 1_545 S
C763 C761 1.419 . S
C763 C764 1.363 1_545 S
C763 H766 0.929 . S
C764 C763 1.363 1_565 S
C764 C770 1.428 . S
H765 C761 0.930 . S
H766 C763 0.929 . S
S767 N768 1.613 . S
S767 N769 1.610 . S
N768 S767 1.613 . S
N768 C771 1.350 . S
N769 S767 1.610 . S
N769 C770 1.351 . S
C770 C764 1.428 . S
C770 N769 1.351 . S
C770 C771 1.434 . S
C771 C762 1.429 1_565 S
C771 N768 1.350 . S
C771 C770 1.434 . S
C772 C773 1.369 . S
C772 C774 1.419 . S
C772 H776 0.930 . S
C773 C772 1.369 . S
C773 C782 1.429 . S
C774 C772 1.419 . S
C774 C775 1.363 . S
C774 H777 0.929 . S
C775 C774 1.363 . S
C775 C781 1.428 . S
H776 C772 0.930 . S
H777 C774 0.929 . S
S778 N779 1.613 . S
S778 N780 1.610 . S
N779 S778 1.613 . S
N779 C782 1.350 . S
N780 S778 1.610 . S
N780 C781 1.351 . S
C781 C775 1.428 . S
C781 N780 1.351 . S
C781 C782 1.434 . S
C782 C773 1.429 . S
C782 N779 1.350 . S
C782 C781 1.434 . S
C783 C784 1.369 . S
C783 C785 1.419 . S
C783 H787 0.930 . S
C784 C783 1.369 . S
C784 C793 1.429 . S
C785 C783 1.419 . S
C785 C786 1.363 . S
C785 H788 0.929 . S
C786 C785 1.363 . S
C786 C792 1.428 . S
H787 C783 0.930 . S
H788 C785 0.929 . S
S789 N790 1.613 . S
S789 N791 1.610 . S
N790 S789 1.613 . S
N790 C793 1.350 . S
N791 S789 1.610 . S
N791 C792 1.351 . S
C792 C786 1.428 . S
C792 N791 1.351 . S
C792 C793 1.434 . S
C793 C784 1.429 . S
C793 N790 1.350 . S
C793 C792 1.434 . S
C794 C795 1.369 . S
C794 C796 1.419 . S
C794 H798 0.930 . S
C795 C794 1.369 . S
C795 C804 1.429 . S
C796 C794 1.419 . S
C796 C797 1.363 . S
C796 H799 0.929 . S
C797 C796 1.363 . S
C797 C803 1.428 . S
H798 C794 0.930 . S
H799 C796 0.929 . S
S800 N801 1.613 . S
S800 N802 1.610 . S
N801 S800 1.613 . S
N801 C804 1.350 . S
N802 S800 1.610 . S
N802 C803 1.351 . S
C803 C797 1.428 . S
C803 N802 1.351 . S
C803 C804 1.434 . S
C804 C795 1.429 . S
C804 N801 1.350 . S
C804 C803 1.434 . S
C805 C806 1.369 . S
C805 C807 1.419 . S
C805 H809 0.930 . S
C806 C805 1.369 . S
C806 C815 1.429 . S
C807 C805 1.419 . S
C807 C808 1.363 . S
C807 H810 0.929 . S
C808 C807 1.363 . S
C808 C814 1.428 . S
H809 C805 0.930 . S
H810 C807 0.929 . S
S811 N812 1.613 . S
S811 N813 1.610 . S
N812 S811 1.613 . S
N812 C815 1.350 . S
N813 S811 1.610 . S
N813 C814 1.351 . S
C814 C808 1.428 . S
C814 N813 1.351 . S
C814 C815 1.434 . S
C815 C806 1.429 . S
C815 N812 1.350 . S
C815 C814 1.434 . S
C816 C817 1.369 . S
C816 C818 1.419 1_556 S
C816 H820 0.930 1_545 S
C817 C816 1.369 . S
C817 C826 1.429 . S
C818 C816 1.419 1_554 S
C818 C819 1.363 . S
C818 H821 0.929 1_545 S
C819 C818 1.363 . S
C819 C825 1.428 . S
H820 C816 0.930 1_565 S
H821 C818 0.929 1_565 S
S822 N823 1.616 1_554 S
S822 N824 1.608 . S
N823 S822 1.616 1_556 S
N823 C826 1.350 . S
N824 S822 1.608 . S
N824 C825 1.351 . S
C825 C819 1.428 . S
C825 N824 1.351 . S
C825 C826 1.434 1_554 S
C826 C817 1.429 . S
C826 N823 1.350 . S
C826 C825 1.434 1_556 S
C827 C828 1.369 . S
C827 C829 1.419 1_556 S
C827 H831 0.930 . S
C828 C827 1.369 . S
C828 C837 1.429 . S
C829 C827 1.419 1_554 S
C829 C830 1.363 . S
C829 H832 0.929 . S
C830 C829 1.363 . S
C830 C836 1.428 . S
H831 C827 0.930 . S
H832 C829 0.929 . S
S833 N834 1.616 1_554 S
S833 N835 1.608 . S
N834 S833 1.616 1_556 S
N834 C837 1.350 1_545 S
N835 S833 1.608 . S
N835 C836 1.351 1_545 S
C836 C830 1.428 . S
C836 N835 1.351 1_565 S
C836 C837 1.434 1_554 S
C837 C828 1.429 . S
C837 N834 1.350 1_565 S
C837 C836 1.434 1_556 S
C838 C839 1.369 . S
C838 C840 1.419 . S
C838 H842 0.930 . S
C839 C838 1.369 . S
C839 C848 1.429 . S
C840 C838 1.419 . S
C840 C841 1.363 . S
C840 H843 0.929 . S
C841 C840 1.363 . S
C841 C847 1.428 . S
H842 C838 0.930 . S
H843 C840 0.929 . S
S844 N845 1.613 . S
S844 N846 1.610 . S
N845 S844 1.613 . S
N845 C848 1.350 1_545 S
N846 S844 1.610 . S
N846 C847 1.351 1_545 S
C847 C841 1.428 . S
C847 N846 1.351 1_565 S
C847 C848 1.434 . S
C848 C839 1.429 . S
C848 N845 1.350 1_565 S
C848 C847 1.434 . S
C849 C850 1.369 . S
C849 C851 1.419 . S
C849 H853 0.930 . S
C850 C849 1.369 . S
C850 C859 1.429 . S
C851 C849 1.419 . S
C851 C852 1.363 . S
C851 H854 0.929 . S
C852 C851 1.363 . S
C852 C858 1.428 . S
H853 C849 0.930 . S
H854 C851 0.929 . S
S855 N856 1.613 1_565 S
S855 N857 1.610 1_565 S
N856 S855 1.613 1_545 S
N856 C859 1.350 . S
N857 S855 1.610 1_545 S
N857 C858 1.351 . S
C858 C852 1.428 . S
C858 N857 1.351 . S
C858 C859 1.434 . S
C859 C850 1.429 . S
C859 N856 1.350 . S
C859 C858 1.434 . S
C860 C861 1.369 . S
C860 C862 1.419 1_554 S
C860 H864 0.930 . S
C861 C860 1.369 . S
C861 C870 1.429 . S
C862 C860 1.419 1_556 S
C862 C863 1.363 . S
C862 H865 0.929 . S
C863 C862 1.363 . S
C863 C869 1.428 . S
H864 C860 0.930 . S
H865 C862 0.929 . S
S866 N867 1.616 1_556 S
S866 N868 1.608 . S
N867 S866 1.616 1_554 S
N867 C870 1.350 . S
N868 S866 1.608 . S
N868 C869 1.351 . S
C869 C863 1.428 . S
C869 N868 1.351 . S
C869 C870 1.434 1_556 S
C870 C861 1.429 . S
C870 N867 1.350 . S
C870 C869 1.434 1_554 S
C871 C872 1.369 . S
C871 C873 1.419 1_556 S
C871 H875 0.930 . S
C872 C871 1.369 . S
C872 C881 1.429 . S
C873 C871 1.419 1_554 S
C873 C874 1.363 . S
C873 H876 0.929 . S
C874 C873 1.363 . S
C874 C880 1.428 . S
H875 C871 0.930 . S
H876 C873 0.929 . S
S877 N878 1.616 1_554 S
S877 N879 1.608 . S
N878 S877 1.616 1_556 S
N878 C881 1.350 . S
N879 S877 1.608 . S
N879 C880 1.351 . S
C880 C874 1.428 . S
C880 N879 1.351 . S
C880 C881 1.434 1_554 S
C881 C872 1.429 . S
C881 N878 1.350 . S
C881 C880 1.434 1_556 S
C882 C883 1.369 . S
C882 C884 1.419 . S
C882 H886 0.930 . S
C883 C882 1.369 . S
C883 C892 1.429 . S
C884 C882 1.419 . S
C884 C885 1.363 . S
C884 H887 0.929 . S
C885 C884 1.363 . S
C885 C891 1.428 . S
H886 C882 0.930 . S
H887 C884 0.929 . S
S888 N889 1.613 . S
S888 N890 1.610 . S
N889 S888 1.613 . S
N889 C892 1.350 . S
N890 S888 1.610 . S
N890 C891 1.351 . S
C891 C885 1.428 . S
C891 N890 1.351 . S
C891 C892 1.434 . S
C892 C883 1.429 . S
C892 N889 1.350 . S
C892 C891 1.434 . S
C893 C894 1.369 . S
C893 C895 1.419 . S
C893 H897 0.930 . S
C894 C893 1.369 . S
C894 C903 1.429 . S
C895 C893 1.419 . S
C895 C896 1.363 . S
C895 H898 0.929 . S
C896 C895 1.363 . S
C896 C902 1.428 . S
H897 C893 0.930 . S
H898 C895 0.929 . S
S899 N900 1.613 . S
S899 N901 1.610 . S
N900 S899 1.613 . S
N900 C903 1.350 . S
N901 S899 1.610 . S
N901 C902 1.351 . S
C902 C896 1.428 . S
C902 N901 1.351 . S
C902 C903 1.434 . S
C903 C894 1.429 . S
C903 N900 1.350 . S
C903 C902 1.434 . S
C904 C905 1.326 1_455 S
C904 C906 1.458 . S
C904 H908 0.936 . S
C905 C904 1.326 1_655 S
C905 C914 1.429 1_545 S
C906 C904 1.458 . S
C906 C907 1.363 1_545 S
C906 H909 0.929 . S
C907 C906 1.363 1_565 S
C907 C913 1.428 1_455 S
H908 C904 0.936 . S
H909 C906 0.929 . S
S910 N911 1.613 . S
S910 N912 1.610 . S
N911 S910 1.613 . S
N911 C914 1.350 . S
N912 S910 1.610 . S
N912 C913 1.351 . S
C913 C907 1.428 1_655 S
C913 N912 1.351 . S
C913 C914 1.434 . S
C914 C905 1.429 1_565 S
C914 N911 1.350 . S
C914 C913 1.434 . S
C915 C916 1.369 1_455 S
C915 C917 1.419 . S
C915 H919 0.930 . S
C916 C915 1.369 1_655 S
C916 C925 1.429 1_565 S
C917 C915 1.419 . S
C917 C918 1.363 1_565 S
C917 H920 0.929 . S
C918 C917 1.363 1_545 S
C918 C924 1.428 1_455 S
H919 C915 0.930 . S
H920 C917 0.929 . S
S921 N922 1.613 . S
S921 N923 1.610 . S
N922 S921 1.613 . S
N922 C925 1.350 . S
N923 S921 1.610 . S
N923 C924 1.351 . S
C924 C918 1.428 1_655 S
C924 N923 1.351 . S
C924 C925 1.434 . S
C925 C916 1.429 1_545 S
C925 N922 1.350 . S
C925 C924 1.434 . S
C926 C927 1.369 1_545 S
C926 C928 1.365 1_455 S
C926 H930 0.930 . S
C927 C926 1.369 1_565 S
C927 C936 1.464 . S
C928 C926 1.365 1_655 S
C928 C929 1.418 . S
C928 H931 0.929 . S
C929 C928 1.418 . S
C929 C935 1.428 1_545 S
H930 C926 0.930 . S
H931 C928 0.929 . S
S932 N933 1.614 . S
S932 N934 1.610 . S
N933 S932 1.614 . S
N933 C936 1.348 1_655 S
N934 S932 1.610 . S
N934 C935 1.351 . S
C935 C929 1.428 1_565 S
C935 N934 1.351 . S
C935 C936 1.398 1_655 S
C936 C927 1.464 . S
C936 N933 1.348 1_455 S
C936 C935 1.398 1_455 S
C937 C938 1.369 . S
C937 C939 1.419 1_665 S
C937 H941 0.930 . S
C938 C937 1.369 . S
C938 C947 1.429 . S
C939 C937 1.419 1_445 S
C939 C940 1.363 . S
C939 H942 0.929 . S
C940 C939 1.363 . S
C940 C946 1.428 . S
H941 C937 0.930 . S
H942 C939 0.929 . S
S943 N944 1.613 1_455 S
S943 N945 1.610 1_565 S
N944 S943 1.613 1_655 S
N944 C947 1.350 . S
N945 S943 1.610 1_545 S
N945 C946 1.351 . S
C946 C940 1.428 . S
C946 N945 1.351 . S
C946 C947 1.434 1_445 S
C947 C938 1.429 . S
C947 N944 1.350 . S
C947 C946 1.434 1_665 S
C948 C949 1.369 . S
C948 C950 1.419 . S
C948 H952 0.930 . S
C949 C948 1.369 . S
C949 C958 1.429 . S
C950 C948 1.419 . S
C950 C951 1.363 . S
C950 H953 0.929 . S
C951 C950 1.363 . S
C951 C957 1.428 . S
H952 C948 0.930 . S
H953 C950 0.929 . S
S954 N955 1.613 . S
S954 N956 1.610 . S
N955 S954 1.613 . S
N955 C958 1.350 . S
N956 S954 1.610 . S
N956 C957 1.351 . S
C957 C951 1.428 . S
C957 N956 1.351 . S
C957 C958 1.434 . S
C958 C949 1.429 . S
C958 N955 1.350 . S
C958 C957 1.434 . S
C959 C960 1.369 . S
C959 C961 1.419 . S
C959 H963 0.930 . S
C960 C959 1.369 . S
C960 C969 1.429 . S
C961 C959 1.419 . S
C961 C962 1.363 . S
C961 H964 0.929 . S
C962 C961 1.363 . S
C962 C968 1.428 . S
H963 C959 0.930 . S
H964 C961 0.929 . S
S965 N966 1.613 . S
S965 N967 1.610 . S
N966 S965 1.613 . S
N966 C969 1.350 . S
N967 S965 1.610 . S
N967 C968 1.351 . S
C968 C962 1.428 . S
C968 N967 1.351 . S
C968 C969 1.434 . S
C969 C960 1.429 . S
C969 N966 1.350 . S
C969 C968 1.434 . S
C970 C971 1.369 . S
C970 C972 1.419 . S
C970 H974 0.930 . S
C971 C970 1.369 . S
C971 C980 1.429 . S
C972 C970 1.419 . S
C972 C973 1.363 . S
C972 H975 0.929 . S
C973 C972 1.363 . S
C973 C979 1.428 . S
H974 C970 0.930 . S
H975 C972 0.929 . S
S976 N977 1.613 . S
S976 N978 1.610 . S
N977 S976 1.613 . S
N977 C980 1.350 . S
N978 S976 1.610 . S
N978 C979 1.351 . S
C979 C973 1.428 . S
C979 N978 1.351 . S
C979 C980 1.434 . S
C980 C971 1.429 . S
C980 N977 1.350 . S
C980 C979 1.434 . S
C981 C982 1.369 . S
C981 C983 1.419 . S
C981 H985 0.930 . S
C982 C981 1.369 . S
C982 C991 1.429 . S
C983 C981 1.419 . S
C983 C984 1.363 . S
C983 H986 0.929 . S
C984 C983 1.363 . S
C984 C990 1.428 . S
H985 C981 0.930 . S
H986 C983 0.929 . S
S987 N988 1.613 . S
S987 N989 1.610 . S
N988 S987 1.613 . S
N988 C991 1.350 . S
N989 S987 1.610 . S
N989 C990 1.351 . S
C990 C984 1.428 . S
C990 N989 1.351 . S
C990 C991 1.434 . S
C991 C982 1.429 . S
C991 N988 1.350 . S
C991 C990 1.434 . S
C992 C993 1.369 . S
C992 C994 1.419 . S
C992 H996 0.930 . S
C993 C992 1.369 . S
C993 C1002 1.429 . S
C994 C992 1.419 . S
C994 C995 1.363 . S
C994 H997 0.929 . S
C995 C994 1.363 . S
C995 C1001 1.428 . S
H996 C992 0.930 . S
H997 C994 0.929 . S
S998 N999 1.613 . S
S998 N1000 1.610 . S
N999 S998 1.613 . S
N999 C1002 1.350 . S
N1000 S998 1.610 . S
N1000 C1001 1.351 . S
C1001 C995 1.428 . S
C1001 N1000 1.351 . S
C1001 C1002 1.434 . S
C1002 C993 1.429 . S
C1002 N999 1.350 . S
C1002 C1001 1.434 . S
C1003 C1004 1.369 . S
C1003 C1005 1.419 . S
C1003 H1007 0.930 . S
C1004 C1003 1.369 . S
C1004 C1013 1.429 . S
C1005 C1003 1.419 . S
C1005 C1006 1.363 . S
C1005 H1008 0.929 . S
C1006 C1005 1.363 . S
C1006 C1012 1.428 . S
H1007 C1003 0.930 . S
H1008 C1005 0.929 . S
S1009 N1010 1.613 . S
S1009 N1011 1.610 . S
N1010 S1009 1.613 . S
N1010 C1013 1.350 . S
N1011 S1009 1.610 . S
N1011 C1012 1.351 . S
C1012 C1006 1.428 . S
C1012 N1011 1.351 . S
C1012 C1013 1.434 . S
C1013 C1004 1.429 . S
C1013 N1010 1.350 . S
C1013 C1012 1.434 . S
C1014 C1015 1.369 . S
C1014 C1016 1.419 . S
C1014 H1018 0.930 . S
C1015 C1014 1.369 . S
C1015 C1024 1.429 . S
C1016 C1014 1.419 . S
C1016 C1017 1.363 . S
C1016 H1019 0.929 . S
C1017 C1016 1.363 . S
C1017 C1023 1.428 . S
H1018 C1014 0.930 . S
H1019 C1016 0.929 . S
S1020 N1021 1.613 . S
S1020 N1022 1.610 . S
N1021 S1020 1.613 . S
N1021 C1024 1.350 . S
N1022 S1020 1.610 . S
N1022 C1023 1.351 . S
C1023 C1017 1.428 . S
C1023 N1022 1.351 . S
C1023 C1024 1.434 . S
C1024 C1015 1.429 . S
C1024 N1021 1.350 . S
C1024 C1023 1.434 . S
C1025 C1026 1.369 . S
C1025 C1027 1.419 . S
C1025 H1029 0.930 . S
C1026 C1025 1.369 . S
C1026 C1035 1.429 . S
C1027 C1025 1.419 . S
C1027 C1028 1.363 . S
C1027 H1030 0.929 . S
C1028 C1027 1.363 . S
C1028 C1034 1.428 . S
H1029 C1025 0.930 . S
H1030 C1027 0.929 . S
S1031 N1032 1.613 . S
S1031 N1033 1.610 . S
N1032 S1031 1.613 . S
N1032 C1035 1.350 . S
N1033 S1031 1.610 . S
N1033 C1034 1.351 . S
C1034 C1028 1.428 . S
C1034 N1033 1.351 . S
C1034 C1035 1.434 . S
C1035 C1026 1.429 . S
C1035 N1032 1.350 . S
C1035 C1034 1.434 . S
C1036 C1037 1.369 . S
C1036 C1038 1.419 . S
C1036 H1040 0.930 . S
C1037 C1036 1.369 . S
C1037 C1046 1.429 . S
C1038 C1036 1.419 . S
C1038 C1039 1.363 . S
C1038 H1041 0.929 . S
C1039 C1038 1.363 . S
C1039 C1045 1.428 . S
H1040 C1036 0.930 . S
H1041 C1038 0.929 . S
S1042 N1043 1.613 . S
S1042 N1044 1.610 . S
N1043 S1042 1.613 . S
N1043 C1046 1.350 . S
N1044 S1042 1.610 . S
N1044 C1045 1.351 . S
C1045 C1039 1.428 . S
C1045 N1044 1.351 . S
C1045 C1046 1.434 . S
C1046 C1037 1.429 . S
C1046 N1043 1.350 . S
C1046 C1045 1.434 . S
C1047 C1048 1.369 . S
C1047 C1049 1.419 . S
C1047 H1051 0.930 . S
C1048 C1047 1.369 . S
C1048 C1057 1.429 . S
C1049 C1047 1.419 . S
C1049 C1050 1.363 . S
C1049 H1052 0.929 . S
C1050 C1049 1.363 . S
C1050 C1056 1.428 . S
H1051 C1047 0.930 . S
H1052 C1049 0.929 . S
S1053 N1054 1.613 . S
S1053 N1055 1.610 . S
N1054 S1053 1.613 . S
N1054 C1057 1.350 . S
N1055 S1053 1.610 . S
N1055 C1056 1.351 . S
C1056 C1050 1.428 . S
C1056 N1055 1.351 . S
C1056 C1057 1.434 . S
C1057 C1048 1.429 . S
C1057 N1054 1.350 . S
C1057 C1056 1.434 . S
C1058 C1059 1.369 . S
C1058 C1060 1.419 . S
C1058 H1062 0.930 . S
C1059 C1058 1.369 . S
C1059 C1068 1.429 . S
C1060 C1058 1.419 . S
C1060 C1061 1.363 . S
C1060 H1063 0.929 . S
C1061 C1060 1.363 . S
C1061 C1067 1.428 . S
H1062 C1058 0.930 . S
H1063 C1060 0.929 . S
S1064 N1065 1.613 . S
S1064 N1066 1.610 . S
N1065 S1064 1.613 . S
N1065 C1068 1.350 . S
N1066 S1064 1.610 . S
N1066 C1067 1.351 . S
C1067 C1061 1.428 . S
C1067 N1066 1.351 . S
C1067 C1068 1.434 . S
C1068 C1059 1.429 . S
C1068 N1065 1.350 . S
C1068 C1067 1.434 . S
C1069 C1070 1.369 . S
C1069 C1071 1.419 . S
C1069 H1073 0.930 . S
C1070 C1069 1.369 . S
C1070 C1079 1.429 . S
C1071 C1069 1.419 . S
C1071 C1072 1.363 . S
C1071 H1074 0.929 . S
C1072 C1071 1.363 . S
C1072 C1078 1.428 . S
H1073 C1069 0.930 . S
H1074 C1071 0.929 . S
S1075 N1076 1.613 . S
S1075 N1077 1.610 . S
N1076 S1075 1.613 . S
N1076 C1079 1.350 . S
N1077 S1075 1.610 . S
N1077 C1078 1.351 . S
C1078 C1072 1.428 . S
C1078 N1077 1.351 . S
C1078 C1079 1.434 . S
C1079 C1070 1.429 . S
C1079 N1076 1.350 . S
C1079 C1078 1.434 . S
C1080 C1081 1.369 1_545 S
C1080 C1082 1.419 . S
C1080 H1084 0.930 1_545 S
C1081 C1080 1.369 1_565 S
C1081 C1090 1.429 1_565 S
C1082 C1080 1.419 . S
C1082 C1083 1.363 . S
C1082 H1085 0.929 . S
C1083 C1082 1.363 . S
C1083 C1089 1.428 . S
H1084 C1080 0.930 1_565 S
H1085 C1082 0.929 . S
S1086 N1087 1.613 . S
S1086 N1088 1.610 . S
N1087 S1086 1.613 . S
N1087 C1090 1.350 . S
N1088 S1086 1.610 . S
N1088 C1089 1.351 . S
C1089 C1083 1.428 . S
C1089 N1088 1.351 . S
C1089 C1090 1.434 . S
C1090 C1081 1.429 1_545 S
C1090 N1087 1.350 . S
C1090 C1089 1.434 . S
C1091 C1092 1.369 . S
C1091 C1093 1.419 . S
C1091 H1095 0.930 . S
C1092 C1091 1.369 . S
C1092 C1101 1.429 . S
C1093 C1091 1.419 . S
C1093 C1094 1.363 1_565 S
C1093 H1096 0.929 1_565 S
C1094 C1093 1.363 1_545 S
C1094 C1100 1.428 1_545 S
H1095 C1091 0.930 . S
H1096 C1093 0.929 1_545 S
S1097 N1098 1.613 . S
S1097 N1099 1.610 . S
N1098 S1097 1.613 . S
N1098 C1101 1.350 . S
N1099 S1097 1.610 . S
N1099 C1100 1.351 . S
C1100 C1094 1.428 1_565 S
C1100 N1099 1.351 . S
C1100 C1101 1.434 . S
C1101 C1092 1.429 . S
C1101 N1098 1.350 . S
C1101 C1100 1.434 . S
C1102 C1103 1.369 1_565 S
C1102 C1104 1.419 . S
C1102 H1106 0.930 . S
C1103 C1102 1.369 1_545 S
C1103 C1112 1.429 1_545 S
C1104 C1102 1.419 . S
C1104 C1105 1.363 . S
C1104 H1107 0.929 . S
C1105 C1104 1.363 . S
C1105 C1111 1.428 . S
H1106 C1102 0.930 . S
H1107 C1104 0.929 . S
S1108 N1109 1.613 . S
S1108 N1110 1.610 . S
N1109 S1108 1.613 . S
N1109 C1112 1.350 . S
N1110 S1108 1.610 . S
N1110 C1111 1.351 . S
C1111 C1105 1.428 . S
C1111 N1110 1.351 . S
C1111 C1112 1.434 . S
C1112 C1103 1.429 1_565 S
C1112 N1109 1.350 . S
C1112 C1111 1.434 . S
C1113 C1114 1.369 1_545 S
C1113 C1115 1.419 . S
C1113 H1117 0.930 1_545 S
C1114 C1113 1.369 1_565 S
C1114 C1123 1.429 1_565 S
C1115 C1113 1.419 . S
C1115 C1116 1.363 . S
C1115 H1118 0.929 . S
C1116 C1115 1.363 . S
C1116 C1122 1.428 . S
H1117 C1113 0.930 1_565 S
H1118 C1115 0.929 . S
S1119 N1120 1.613 . S
S1119 N1121 1.610 . S
N1120 S1119 1.613 . S
N1120 C1123 1.350 . S
N1121 S1119 1.610 . S
N1121 C1122 1.351 . S
C1122 C1116 1.428 . S
C1122 N1121 1.351 . S
C1122 C1123 1.434 . S
C1123 C1114 1.429 1_545 S
C1123 N1120 1.350 . S
C1123 C1122 1.434 . S
C1124 C1125 1.369 . S
C1124 C1126 1.419 . S
C1124 H1128 0.930 . S
C1125 C1124 1.369 . S
C1125 C1134 1.429 . S
C1126 C1124 1.419 . S
C1126 C1127 1.363 1_565 S
C1126 H1129 0.929 . S
C1127 C1126 1.363 1_545 S
C1127 C1133 1.428 1_545 S
H1128 C1124 0.930 . S
H1129 C1126 0.929 . S
S1130 N1131 1.613 . S
S1130 N1132 1.610 . S
N1131 S1130 1.613 . S
N1131 C1134 1.350 . S
N1132 S1130 1.610 . S
N1132 C1133 1.351 . S
C1133 C1127 1.428 1_565 S
C1133 N1132 1.351 . S
C1133 C1134 1.434 . S
C1134 C1125 1.429 . S
C1134 N1131 1.350 . S
C1134 C1133 1.434 . S
C1135 C1136 1.369 . S
C1135 C1137 1.419 . S
C1135 H1139 0.930 . S
C1136 C1135 1.369 . S
C1136 C1145 1.429 . S
C1137 C1135 1.419 . S
C1137 C1138 1.363 1_545 S
C1137 H1140 0.929 . S
C1138 C1137 1.363 1_565 S
C1138 C1144 1.428 1_565 S
H1139 C1135 0.930 . S
H1140 C1137 0.929 . S
S1141 N1142 1.613 . S
S1141 N1143 1.610 1_545 S
N1142 S1141 1.613 . S
N1142 C1145 1.350 . S
N1143 S1141 1.610 1_565 S
N1143 C1144 1.351 1_565 S
C1144 C1138 1.428 1_545 S
C1144 N1143 1.351 1_545 S
C1144 C1145 1.434 . S
C1145 C1136 1.429 . S
C1145 N1142 1.350 . S
C1145 C1144 1.434 . S
C1146 C1147 1.369 1_545 S
C1146 C1148 1.419 . S
C1146 H1150 0.930 1_545 S
C1147 C1146 1.369 1_565 S
C1147 C1156 1.429 1_565 S
C1148 C1146 1.419 . S
C1148 C1149 1.363 . S
C1148 H1151 0.929 . S
C1149 C1148 1.363 . S
C1149 C1155 1.428 . S
H1150 C1146 0.930 1_565 S
H1151 C1148 0.929 . S
S1152 N1153 1.613 . S
S1152 N1154 1.610 . S
N1153 S1152 1.613 . S
N1153 C1156 1.350 . S
N1154 S1152 1.610 . S
N1154 C1155 1.351 . S
C1155 C1149 1.428 . S
C1155 N1154 1.351 . S
C1155 C1156 1.434 . S
C1156 C1147 1.429 1_545 S
C1156 N1153 1.350 . S
C1156 C1155 1.434 . S
C1157 C1158 1.369 . S
C1157 C1159 1.419 . S
C1157 H1161 0.930 . S
C1158 C1157 1.369 . S
C1158 C1167 1.429 . S
C1159 C1157 1.419 . S
C1159 C1160 1.363 1_565 S
C1159 H1162 0.929 . S
C1160 C1159 1.363 1_545 S
C1160 C1166 1.428 1_545 S
H1161 C1157 0.930 . S
H1162 C1159 0.929 . S
S1163 N1164 1.613 . S
S1163 N1165 1.610 . S
N1164 S1163 1.613 . S
N1164 C1167 1.350 . S
N1165 S1163 1.610 . S
N1165 C1166 1.351 . S
C1166 C1160 1.428 1_565 S
C1166 N1165 1.351 . S
C1166 C1167 1.434 . S
C1167 C1158 1.429 . S
C1167 N1164 1.350 . S
C1167 C1166 1.434 . S
C641 C15 2.263 . S
C643 C375 2.258 . S
C652 C55 2.262 . S
C654 C335 2.258 . S
C663 C455 2.260 . S
C665 C95 2.260 . S
C674 C135 2.257 . S
C676 C415 2.262 . S
C685 C526 2.265 . S
C687 C166 2.256 . S
C696 C486 2.263 . S
C698 C206 2.257 . S
C707 C606 2.257 . S
C709 C246 2.263 . S
C718 C286 2.257 . S
C720 C566 2.263 . S
C729 C98 1.512 . S
C731 C18 1.508 . S
C740 C138 1.505 . S
C742 C58 1.510 . S
C751 C249 1.509 . S
C753 C169 1.513 . S
C762 C209 1.504 . S
C764 C289 1.508 . S
C773 C418 1.508 . S
C775 C338 1.512 . S
C784 C458 1.514 . S
C786 C378 1.512 . S
C795 C489 1.508 . S
C797 C569 1.512 . S
C806 C529 1.511 . S
C808 C609 1.513 . S
C817 C218 1.498 . S
C819 C9 1.498 . S
C828 C178 1.494 . S
C830 C49 1.495 . S
C839 C89 1.497 . S
C841 C298 1.497 . S
C850 C258 1.500 . S
C852 C129 1.500 . S
C861 C329 1.495 . S
C863 C538 1.496 . S
C872 C498 1.499 . S
C874 C369 1.498 . S
C883 C409 1.495 . S
C885 C618 1.495 . S
C894 C578 1.496 . S
C896 C449 1.497 . S
C905 C46 2.569 . S
C907 C6 2.574 . S
C916 C126 2.568 . S
C918 C86 2.575 . S
C927 C215 2.573 . S
C929 C175 2.570 . S
C938 C255 2.571 . S
C940 C295 2.572 . S
C949 C366 2.576 . S
C951 C326 2.568 . S
C960 C446 2.575 . S
C962 C406 2.569 . S
C971 C495 2.575 . S
C973 C535 2.568 . S
C982 C575 2.571 . S
C984 C615 2.572 . S
C993 C10 2.368 . S
C995 C19 2.363 . S
C1004 C50 2.368 . S
C1006 C59 2.363 . S
C1015 C90 2.367 . S
C1017 C99 2.363 . S
C1026 C139 2.368 . S
C1028 C130 2.363 . S
C1037 C179 2.367 . S
C1039 C170 2.363 . S
C1048 C210 2.366 . S
C1050 C219 2.364 . S
C1059 C259 2.364 . S
C1061 C250 2.366 . S
C1070 C299 2.363 . S
C1072 C290 2.367 . S
C1081 C339 2.365 . S
C1083 C330 2.365 . S
C1092 C370 2.364 . S
C1094 C379 2.366 . S
C1103 C419 2.363 . S
C1105 C410 2.366 . S
C1114 C459 2.365 . S
C1116 C450 2.365 . S
C1125 C499 2.367 . S
C1127 C490 2.364 . S
C1136 C539 2.368 . S
C1138 C530 2.363 . S
C1147 C570 2.368 . S
C1149 C579 2.363 . S
C1158 C619 2.363 . S
C1160 C610 2.366 . S
