# Generated by pormake.
# Topology sth, (5)-cn, num edge types: 1
# Building blocks:
#     Node 0, Type 0, BuildingBlock: XOMCOT_clean_sbu_1, # of connection points: 5
#     Node 1, Type 0, BuildingBlock: XOMCOT_clean_sbu_1, # of connection points: 5
#     Node 2, Type 0, BuildingBlock: XOMCOT_clean_sbu_1, # of connection points: 5
#     Node 3, Type 0, BuildingBlock: XOMCOT_clean_sbu_1, # of connection points: 5
#     Node 4, Type 0, BuildingBlock: XOMCOT_clean_sbu_1, # of connection points: 5
#     Node 5, Type 0, BuildingBlock: XOMCOT_clean_sbu_1, # of connection points: 5
#     Node 6, Type 0, BuildingBlock: XOMCOT_clean_sbu_1, # of connection points: 5
#     Node 7, Type 0, BuildingBlock: XOMCOT_clean_sbu_1, # of connection points: 5
#     Node 8, Type 0, BuildingBlock: XOMCOT_clean_sbu_1, # of connection points: 5
#     Node 9, Type 0, BuildingBlock: XOMCOT_clean_sbu_1, # of connection points: 5
#     Node 10, Type 0, BuildingBlock: XOMCOT_clean_sbu_1, # of connection points: 5
#     Node 11, Type 0, BuildingBlock: XOMCOT_clean_sbu_1, # of connection points: 5
#     Node 12, Type 0, BuildingBlock: XOMCOT_clean_sbu_1, # of connection points: 5
#     Node 13, Type 0, BuildingBlock: XOMCOT_clean_sbu_1, # of connection points: 5
#     Node 14, Type 0, BuildingBlock: XOMCOT_clean_sbu_1, # of connection points: 5
#     Node 15, Type 0, BuildingBlock: XOMCOT_clean_sbu_1, # of connection points: 5
#     Node 16, Type 0, BuildingBlock: XOMCOT_clean_sbu_1, # of connection points: 5
#     Node 17, Type 0, BuildingBlock: XOMCOT_clean_sbu_1, # of connection points: 5
#     Edge 18, Type (0, 0), BuildingBlock: XIVTED_clean_linker_0, # of connection points: 2
#     Edge 19, Type (0, 0), BuildingBlock: XIVTED_clean_linker_0, # of connection points: 2
#     Edge 20, Type (0, 0), BuildingBlock: XIVTED_clean_linker_0, # of connection points: 2
#     Edge 21, Type (0, 0), BuildingBlock: XIVTED_clean_linker_0, # of connection points: 2
#     Edge 22, Type (0, 0), BuildingBlock: XIVTED_clean_linker_0, # of connection points: 2
#     Edge 23, Type (0, 0), BuildingBlock: XIVTED_clean_linker_0, # of connection points: 2
#     Edge 24, Type (0, 0), BuildingBlock: XIVTED_clean_linker_0, # of connection points: 2
#     Edge 25, Type (0, 0), BuildingBlock: XIVTED_clean_linker_0, # of connection points: 2
#     Edge 26, Type (0, 0), BuildingBlock: XIVTED_clean_linker_0, # of connection points: 2
#     Edge 27, Type (0, 0), BuildingBlock: XIVTED_clean_linker_0, # of connection points: 2
#     Edge 28, Type (0, 0), BuildingBlock: XIVTED_clean_linker_0, # of connection points: 2
#     Edge 29, Type (0, 0), BuildingBlock: XIVTED_clean_linker_0, # of connection points: 2
#     Edge 30, Type (0, 0), BuildingBlock: XIVTED_clean_linker_0, # of connection points: 2
#     Edge 31, Type (0, 0), BuildingBlock: XIVTED_clean_linker_0, # of connection points: 2
#     Edge 32, Type (0, 0), BuildingBlock: XIVTED_clean_linker_0, # of connection points: 2
#     Edge 33, Type (0, 0), BuildingBlock: XIVTED_clean_linker_0, # of connection points: 2
#     Edge 34, Type (0, 0), BuildingBlock: XIVTED_clean_linker_0, # of connection points: 2
#     Edge 35, Type (0, 0), BuildingBlock: XIVTED_clean_linker_0, # of connection points: 2
#     Edge 36, Type (0, 0), BuildingBlock: XIVTED_clean_linker_0, # of connection points: 2
#     Edge 37, Type (0, 0), BuildingBlock: XIVTED_clean_linker_0, # of connection points: 2
#     Edge 38, Type (0, 0), BuildingBlock: XIVTED_clean_linker_0, # of connection points: 2
#     Edge 39, Type (0, 0), BuildingBlock: XIVTED_clean_linker_0, # of connection points: 2
#     Edge 40, Type (0, 0), BuildingBlock: XIVTED_clean_linker_0, # of connection points: 2
#     Edge 41, Type (0, 0), BuildingBlock: XIVTED_clean_linker_0, # of connection points: 2
#     Edge 42, Type (0, 0), BuildingBlock: XIVTED_clean_linker_0, # of connection points: 2
#     Edge 43, Type (0, 0), BuildingBlock: XIVTED_clean_linker_0, # of connection points: 2
#     Edge 44, Type (0, 0), BuildingBlock: XIVTED_clean_linker_0, # of connection points: 2
#     Edge 45, Type (0, 0), BuildingBlock: XIVTED_clean_linker_0, # of connection points: 2
#     Edge 46, Type (0, 0), BuildingBlock: XIVTED_clean_linker_0, # of connection points: 2
#     Edge 47, Type (0, 0), BuildingBlock: XIVTED_clean_linker_0, # of connection points: 2
#     Edge 48, Type (0, 0), BuildingBlock: XIVTED_clean_linker_0, # of connection points: 2
#     Edge 49, Type (0, 0), BuildingBlock: XIVTED_clean_linker_0, # of connection points: 2
#     Edge 50, Type (0, 0), BuildingBlock: XIVTED_clean_linker_0, # of connection points: 2
#     Edge 51, Type (0, 0), BuildingBlock: XIVTED_clean_linker_0, # of connection points: 2
#     Edge 52, Type (0, 0), BuildingBlock: XIVTED_clean_linker_0, # of connection points: 2
#     Edge 53, Type (0, 0), BuildingBlock: XIVTED_clean_linker_0, # of connection points: 2
#     Edge 54, Type (0, 0), BuildingBlock: XIVTED_clean_linker_0, # of connection points: 2
#     Edge 55, Type (0, 0), BuildingBlock: XIVTED_clean_linker_0, # of connection points: 2
#     Edge 56, Type (0, 0), BuildingBlock: XIVTED_clean_linker_0, # of connection points: 2
#     Edge 57, Type (0, 0), BuildingBlock: XIVTED_clean_linker_0, # of connection points: 2
#     Edge 58, Type (0, 0), BuildingBlock: XIVTED_clean_linker_0, # of connection points: 2
#     Edge 59, Type (0, 0), BuildingBlock: XIVTED_clean_linker_0, # of connection points: 2
#     Edge 60, Type (0, 0), BuildingBlock: XIVTED_clean_linker_0, # of connection points: 2
#     Edge 61, Type (0, 0), BuildingBlock: XIVTED_clean_linker_0, # of connection points: 2
#     Edge 62, Type (0, 0), BuildingBlock: XIVTED_clean_linker_0, # of connection points: 2
# Relax obj value: 0.162
# Max RMSD: 0.183
# Mean RMSD: 0.183
data_MOF--net-sth--node1-XOMCOT_clean_sbu_1--edge1-XIVTED_clean_linker_0
_symmetry_space_group_name_H-M    P1
_symmetry_Int_Tables_number       1
_symmetry_cell_setting            triclinic
loop_
_symmetry_equiv_pos_as_xyz
'x, y, z'
_cell_length_a     41.232426
_cell_length_b     41.274134
_cell_length_c     76.903236
_cell_angle_alpha  89.95851
_cell_angle_beta   90.038732
_cell_angle_gamma 120.02673
loop_
_atom_site_label
_atom_site_type_symbol
_atom_site_fract_x
_atom_site_fract_y
_atom_site_fract_z
_atom_type_partial_charge
C0 C 0.20108 0.29451 0.23002 0.0
C1 C 0.23753 0.31729 0.22492 0.0
N2 N 0.23768 0.32952 0.20864 0.0
N3 N 0.17789 0.29246 0.21717 0.0
C4 C 0.20098 0.31389 0.20423 0.0
H5 H 0.19205 0.27917 0.24212 0.0
Co6 Co 0.12575 0.25996 0.21763 0.0
C7 C 0.09585 0.30993 0.20831 0.0
O8 O 0.07722 0.30023 0.22297 0.0
N9 N 0.07223 0.22547 0.21788 0.0
C10 C 1.01112 0.19459 0.2244 0.0
C11 C 0.04568 0.22357 0.22894 0.0
C12 C 0.05227 0.1964 0.20682 0.0
N13 N 1.01527 0.1774 0.2105 0.0
O14 O 0.13032 0.23702 0.19681 0.0
H15 H 0.05047 0.24178 0.23988 0.0
H16 H 0.06423 0.18902 0.19612 0.0
O17 O 0.11711 0.29655 0.2043 0.0
C18 C 0.13855 0.21315 0.20282 0.0
O19 O 0.14018 0.21002 0.21976 0.0
N20 N 0.12429 0.27977 0.23946 0.0
C21 C 0.13012 0.30193 0.27419 0.0
C22 C 0.14223 0.32849 0.2607 0.0
C23 C 0.13979 0.31689 0.2434 0.0
C24 C 0.11433 0.25402 0.25245 0.0
C25 C 0.11593 0.26424 0.26979 0.0
H26 H 0.15134 0.33774 0.23323 0.0
H27 H 0.10502 0.22514 0.24927 0.0
H28 H 0.19099 0.31694 0.19167 0.0
H29 H 0.26202 0.32274 0.23237 0.0
H30 H 0.98504 0.18603 0.23117 0.0
H31 H 0.15479 0.35806 0.2635 0.0
H32 H 0.10636 0.24266 0.27965 0.0
C33 C 0.72773 0.90521 0.23472 0.0
C34 C 0.70517 0.91861 0.22891 0.0
N35 N 0.69604 0.90832 0.21217 0.0
N36 N 0.73276 0.88602 0.22185 0.0
C37 C 0.71323 0.8885 0.20823 0.0
H38 H 0.74116 0.91076 0.2473 0.0
Co39 Co 0.76708 0.86857 0.22277 0.0
C40 C 0.72104 0.78846 0.21314 0.0
O41 O 0.73211 0.78031 0.22764 0.0
N42 N 0.8033 0.85178 0.22342 0.0
C43 C 0.83652 0.8242 0.23032 0.0
C44 C 0.80724 0.82918 0.23502 0.0
C45 C 0.83144 0.8603 0.21185 0.0
N46 N 0.85182 0.84388 0.21576 0.0
O47 O 0.79 0.89644 0.20197 0.0
H48 H 0.7898 0.81621 0.24625 0.0
H49 H 0.83694 0.87779 0.20054 0.0
O50 O 0.73222 0.8228 0.20937 0.0
C51 C 0.81228 0.92933 0.20768 0.0
O52 O 0.81405 0.93524 0.22452 0.0
N53 N 0.74715 0.84677 0.24457 0.0
C54 C 0.72505 0.82904 0.2793 0.0
C55 C 0.6989 0.81265 0.26572 0.0
C56 C 0.71038 0.82252 0.24841 0.0
C57 C 0.77227 0.86442 0.25764 0.0
C58 C 0.76218 0.85525 0.27497 0.0
H59 H 0.68965 0.81151 0.23817 0.0
H60 H 0.80064 0.88575 0.25451 0.0
H61 H 0.71298 0.87723 0.1955 0.0
H62 H 0.69795 0.93645 0.23626 0.0
H63 H 0.84632 0.80793 0.23729 0.0
H64 H 0.66963 0.79341 0.26844 0.0
H65 H 0.78348 0.86881 0.28487 0.0
C66 C 0.12532 0.82872 0.23116 0.0
C67 C 0.11233 0.79267 0.22568 0.0
N68 N 0.12246 0.79341 0.20895 0.0
N69 N 0.1441 0.85259 0.2181 0.0
C70 C 0.14171 0.83027 0.20466 0.0
H71 H 0.11993 0.8369 0.2437 0.0
Co72 Co 0.16146 0.90427 0.21903 0.0
C73 C 0.24061 0.93953 0.2081 0.0
O74 O 0.24884 0.95953 0.22234 0.0
N75 N 0.178 0.95722 0.21977 0.0
C76 C 0.2047 0.01788 0.22677 0.0
C77 C 0.19975 0.9837 0.23159 0.0
C78 C 0.16993 0.97679 0.20797 0.0
N79 N 0.18583 1.01349 0.21194 0.0
O80 O 0.13152 0.89884 0.19896 0.0
H81 H 0.21253 0.97939 0.24293 0.0
H82 H 0.15308 0.9648 0.19647 0.0
O83 O 0.20627 0.91541 0.20469 0.0
C84 C 0.09947 0.88888 0.20559 0.0
O85 O 0.09574 0.88572 0.22257 0.0
N86 N 0.18545 0.90636 0.2402 0.0
C87 C 0.20663 0.9004 0.274 0.0
C88 C 0.2216 0.89128 0.25966 0.0
C89 C 0.2101 0.89379 0.24282 0.0
C90 C 0.169 0.91301 0.25406 0.0
C91 C 0.17988 0.91122 0.27101 0.0
H92 H 0.22003 0.88451 0.23198 0.0
H93 H 0.14704 0.91964 0.25189 0.0
H94 H 0.15279 0.84089 0.19185 0.0
H95 H 0.09495 0.76778 0.23324 0.0
H96 H 0.22045 0.04389 0.23384 0.0
H97 H 0.24152 0.88172 0.26144 0.0
H98 H 0.16639 0.9169 0.28171 0.0
C99 C 0.31524 0.20038 0.77805 0.0
C100 C 0.33827 0.23584 0.78431 0.0
N101 N 0.34385 0.2335 0.80142 0.0
N102 N 0.30659 0.1753 0.79101 0.0
C103 C 0.32426 0.1964 0.80516 0.0
H104 H 0.30417 0.19358 0.76499 0.0
Co105 Co 0.27125 0.1237 0.78937 0.0
C106 C 0.31473 0.08691 0.79895 0.0
O107 O 0.3028 0.06774 0.78448 0.0
N108 N 0.23416 0.07102 0.78794 0.0
C109 C 0.20006 1.01092 0.78003 0.0
C110 C 0.22948 0.04536 0.77569 0.0
C111 C 0.20623 0.05071 0.79952 0.0
N112 N 0.18538 1.01432 0.795 0.0
O113 O 0.24752 0.12783 0.81005 0.0
H114 H 0.24677 0.0504 0.76436 0.0
H115 H 0.20138 0.06187 0.8113 0.0
O116 O 0.30482 0.11101 0.8028 0.0
C117 C 0.22657 0.14004 0.80428 0.0
O118 O 0.22682 0.1464 0.78752 0.0
N119 N 0.29194 0.12261 0.76771 0.0
C120 C 0.31553 0.12935 0.73317 0.0
C121 C 0.34071 0.13647 0.74694 0.0
C122 C 0.32852 0.13367 0.76418 0.0
C123 C 0.26782 0.11756 0.7545 0.0
C124 C 0.27861 0.11967 0.73723 0.0
H125 H 0.34866 0.14159 0.77461 0.0
H126 H 0.23971 0.11158 0.75747 0.0
H127 H 0.32167 0.18484 0.81805 0.0
H128 H 0.34829 0.26154 0.77702 0.0
H129 H 0.1899 0.98535 0.77262 0.0
H130 H 0.36985 0.14546 0.74444 0.0
H131 H 0.25805 0.1139 0.72716 0.0
C132 C 0.83429 0.12053 0.77848 0.0
C133 C 0.79856 0.10805 0.7844 0.0
N134 N 0.80027 0.11612 0.80146 0.0
N135 N 0.85889 0.13715 0.7916 0.0
C136 C 0.83723 0.13374 0.80552 0.0
H137 H 0.84164 0.11624 0.76553 0.0
Co138 Co 0.91062 0.15379 0.79042 0.0
C139 C 0.94655 0.23399 0.79993 0.0
O140 O 0.96609 0.24136 0.78556 0.0
N141 N 0.96348 0.16976 0.78947 0.0
C142 C 0.02399 0.19623 0.7821 0.0
C143 C 0.98967 0.1912 0.77747 0.0
C144 C 0.98336 0.16186 0.80118 0.0
N145 N 1.01998 0.17768 0.79699 0.0
O146 O 0.90579 0.12582 0.81115 0.0
H147 H 0.98502 0.20364 0.76609 0.0
H148 H 0.9717 0.14533 0.81279 0.0
O149 O 0.92259 0.19991 0.80379 0.0
C150 C 0.8946 0.09297 0.80524 0.0
O151 O 0.8897 0.08736 0.7884 0.0
N152 N 0.91237 0.17568 0.76872 0.0
C153 C 0.90632 0.19262 0.73411 0.0
C154 C 0.8983 0.21014 0.74778 0.0
C155 C 0.90077 0.2007 0.76505 0.0
C156 C 0.91834 0.15713 0.75558 0.0
C157 C 0.91658 0.16589 0.73828 0.0
H158 H 0.89212 0.21243 0.77539 0.0
H159 H 0.92471 0.13532 0.75863 0.0
H160 H 0.8483 0.14286 0.81848 0.0
H161 H 0.77311 0.09229 0.77692 0.0
H162 H 0.04987 0.21188 0.77491 0.0
H163 H 0.88883 0.22985 0.74518 0.0
H164 H 0.92301 0.15152 0.72828 0.0
C165 C 0.90752 0.71676 0.77697 0.0
C166 C 0.92012 0.69366 0.78295 0.0
N167 N 0.914 0.68905 0.80021 0.0
N168 N 0.89274 0.72641 0.79028 0.0
C169 C 0.89736 0.70926 0.80433 0.0
H170 H 0.91055 0.7272 0.76383 0.0
Co171 Co 0.87714 0.76231 0.78903 0.0
C172 C 0.79781 0.72077 0.79997 0.0
O173 O 0.79021 0.73331 0.78579 0.0
N174 N 0.86233 0.80005 0.78806 0.0
C175 C 0.83726 0.83543 0.78089 0.0
C176 C 0.84138 0.80569 0.77612 0.0
C177 C 0.87076 0.82766 0.79991 0.0
N178 N 0.85584 0.84931 0.79584 0.0
O179 O 0.9073 0.78655 0.80913 0.0
H180 H 0.82835 0.78878 0.76477 0.0
H181 H 0.88695 0.83175 0.81158 0.0
O182 O 0.83186 0.72981 0.80335 0.0
C183 C 0.94013 0.80658 0.80283 0.0
O184 O 0.94486 0.80539 0.78599 0.0
N185 N 0.85282 0.74079 0.76785 0.0
C186 C 0.83067 0.71447 0.73404 0.0
C187 C 0.81503 0.69032 0.74832 0.0
C188 C 0.82686 0.70395 0.76518 0.0
C189 C 0.86998 0.76374 0.754 0.0
C190 C 0.85853 0.75156 0.73705 0.0
H191 H 0.8162 0.68468 0.776 0.0
H192 H 0.89281 0.7919 0.7562 0.0
H193 H 0.8899 0.71269 0.81741 0.0
H194 H 0.93471 0.68291 0.77531 0.0
H195 H 0.82212 0.84633 0.77377 0.0
H196 H 0.79439 0.66109 0.74643 0.0
H197 H 0.87242 0.77061 0.72634 0.0
C198 C 0.87555 0.65737 0.5632 0.0
C199 C 0.91019 0.68158 0.55644 0.0
N200 N 0.90809 0.67899 0.539 0.0
N201 N 0.85096 0.63956 0.55016 0.0
C202 C 0.87183 0.65347 0.53552 0.0
H203 H 0.86965 0.65193 0.57689 0.0
Co204 Co 0.80111 0.59857 0.55247 0.0
C205 C 0.75121 0.62645 0.5408 0.0
O206 O 0.72848 0.60715 0.55349 0.0
N207 N 0.75105 0.55627 0.55456 0.0
C208 C 0.69374 0.51412 0.56383 0.0
C209 C 0.72736 0.54449 0.56839 0.0
C210 C 0.73054 0.53159 0.54179 0.0
N211 N 0.69581 0.50598 0.54715 0.0
O212 O 0.80794 0.57605 0.53206 0.0
H213 H 0.73256 0.55779 0.58091 0.0
H214 H 0.74022 0.53292 0.5286 0.0
O215 O 0.78209 0.62643 0.53882 0.0
C216 C 0.82707 0.56121 0.53702 0.0
O217 O 0.83919 0.5664 0.55315 0.0
N218 N 0.79686 0.61828 0.57378 0.0
C219 C 0.80113 0.64181 0.60822 0.0
C220 C 0.79816 0.66262 0.59441 0.0
C221 C 0.79647 0.65057 0.57718 0.0
C222 C 0.80115 0.5987 0.58697 0.0
C223 C 0.80216 0.6092 0.60419 0.0
H224 H 0.79654 0.668 0.56669 0.0
H225 H 0.80334 0.57424 0.58399 0.0
H226 H 0.86098 0.64387 0.52257 0.0
H227 H 0.93556 0.69795 0.5639 0.0
H228 H 0.66938 0.49928 0.57209 0.0
H229 H 0.7985 0.68863 0.5968 0.0
H230 H 0.80387 0.59171 0.61423 0.0
C231 C 0.39537 0.23749 0.56482 0.0
C232 C 0.37332 0.2517 0.55938 0.0
N233 N 0.36735 0.24572 0.54215 0.0
N234 N 0.40298 0.22169 0.55125 0.0
C235 C 0.38552 0.22719 0.53755 0.0
H236 H 0.40639 0.23997 0.5778 0.0
Co237 Co 0.43779 0.20459 0.55213 0.0
C238 C 0.39402 0.12521 0.54142 0.0
O239 O 0.40636 0.1174 0.55561 0.0
N240 N 0.47453 0.18844 0.55287 0.0
C241 C 0.50917 0.16251 0.56 0.0
C242 C 0.4795 0.16685 0.56469 0.0
C243 C 0.50247 0.19701 0.54118 0.0
N244 N 0.52371 0.18161 0.54523 0.0
O245 O 0.46211 0.23438 0.5319 0.0
H246 H 0.46237 0.15385 0.57599 0.0
H247 H 0.50726 0.21389 0.5297 0.0
O248 O 0.40392 0.15942 0.53793 0.0
C249 C 0.48304 0.26712 0.53813 0.0
O250 O 0.48255 0.27202 0.55498 0.0
N251 N 0.41639 0.18073 0.57342 0.0
C252 C 0.39028 0.16019 0.60739 0.0
C253 C 0.3658 0.14467 0.5932 0.0
C254 C 0.37931 0.15578 0.57627 0.0
C255 C 0.43987 0.19757 0.58714 0.0
C256 C 0.42773 0.18699 0.60417 0.0
H257 H 0.35978 0.14543 0.56553 0.0
H258 H 0.46833 0.21967 0.58479 0.0
H259 H 0.38799 0.21972 0.52433 0.0
H260 H 0.36328 0.26615 0.56754 0.0
H261 H 0.51977 0.14712 0.56713 0.0
H262 H 0.33639 0.12471 0.59519 0.0
H263 H 0.44716 0.20083 0.61477 0.0
C264 C 0.79776 0.16521 0.56476 0.0
C265 C 0.78482 0.12959 0.55863 0.0
N266 N 0.79338 0.13165 0.54162 0.0
N267 N 0.81507 0.18998 0.55179 0.0
C268 C 0.81173 0.16866 0.53778 0.0
H269 H 0.79332 0.17243 0.57771 0.0
Co270 Co 0.83204 0.24145 0.55312 0.0
C271 C 0.9116 0.27701 0.54271 0.0
O272 O 0.91984 0.29635 0.55716 0.0
N273 N 0.84835 0.29417 0.55419 0.0
C274 C 0.87532 0.35473 0.56136 0.0
C275 C 0.87017 0.32043 0.56607 0.0
C276 C 0.84044 0.31395 0.54247 0.0
N277 N 0.85651 0.35058 0.54653 0.0
O278 O 0.80314 0.23667 0.53276 0.0
H279 H 0.88292 0.31588 0.57736 0.0
H280 H 0.82375 0.30224 0.53089 0.0
O281 O 0.87729 0.25324 0.53913 0.0
C282 C 0.77045 0.22581 0.5388 0.0
O283 O 0.76515 0.22132 0.55567 0.0
N284 N 0.85519 0.24298 0.57446 0.0
C285 C 0.87517 0.23652 0.6084 0.0
C286 C 0.89073 0.22771 0.5942 0.0
C287 C 0.87987 0.23053 0.57728 0.0
C288 C 0.83816 0.24931 0.58818 0.0
C289 C 0.84846 0.2473 0.60521 0.0
H290 H 0.8903 0.22156 0.56651 0.0
H291 H 0.81622 0.25589 0.58582 0.0
H292 H 0.82139 0.18004 0.52492 0.0
H293 H 0.76846 0.10403 0.56594 0.0
H294 H 0.8913 0.3807 0.56844 0.0
H295 H 0.91061 0.21816 0.59616 0.0
H296 H 0.83457 0.25275 0.61581 0.0
C297 C 0.97242 0.53093 0.11154 0.0
C298 C 0.99537 0.56719 0.11681 0.0
N299 N 1.00712 0.56691 0.13315 0.0
N300 N 0.96978 0.50741 0.12434 0.0
C301 C 0.99105 0.53012 0.13742 0.0
H302 H 0.95726 0.5223 0.09939 0.0
Co303 Co 0.93649 0.45547 0.12379 0.0
C304 C 0.98466 0.42341 0.13269 0.0
O305 O 0.97365 0.40448 0.11813 0.0
N306 N 0.90119 0.40219 0.12348 0.0
C307 C 0.86883 0.34123 0.11684 0.0
C308 C 0.8976 0.37566 0.11198 0.0
C309 C 0.87332 0.38238 0.13515 0.0
N310 N 0.85347 0.34549 0.1314 0.0
O311 O 0.91421 0.46027 0.14479 0.0
H312 H 0.9148 0.3803 0.10064 0.0
H313 H 0.86753 0.39435 0.14638 0.0
O314 O 0.9727 0.44578 0.13681 0.0
C315 C 0.89051 0.46904 0.13908 0.0
O316 O 0.88721 0.4713 0.12219 0.0
N317 N 0.95575 0.45384 0.10183 0.0
C318 C 0.97747 0.46048 0.06699 0.0
C319 C 1.00405 0.47091 0.0804 0.0
C320 C 0.99272 0.46814 0.09777 0.0
C321 C 0.93003 0.44534 0.08893 0.0
C322 C 0.94001 0.44742 0.07152 0.0
H323 H 1.01371 0.47862 0.10791 0.0
H324 H 0.90139 0.43694 0.09225 0.0
H325 H 0.99355 0.51981 0.14999 0.0
H326 H 1.00117 0.59184 0.10944 0.0
H327 H 0.85928 0.31515 0.10994 0.0
H328 H 0.03351 0.48253 0.0775 0.0
H329 H 0.91845 0.43918 0.06171 0.0
C330 C 0.50304 0.44896 0.11258 0.0
C331 C 0.46667 0.43548 0.11776 0.0
N332 N 0.46668 0.44616 0.13433 0.0
N333 N 0.52637 0.46861 0.12568 0.0
C334 C 0.50341 0.46625 0.13883 0.0
H335 H 0.51187 0.44339 0.10025 0.0
Co336 Co 0.57836 0.48714 0.1253 0.0
C337 C 0.61022 0.56669 0.13544 0.0
O338 O 0.62948 0.57576 0.12094 0.0
N339 N 0.63166 0.50508 0.12516 0.0
C340 C 0.69283 0.53394 0.11883 0.0
C341 C 0.65859 0.52894 0.11402 0.0
C342 C 0.65104 0.49594 0.13658 0.0
N343 N 0.68806 0.51307 0.13301 0.0
O344 O 0.57288 0.45838 0.14585 0.0
H345 H 0.65434 0.54246 0.10295 0.0
H346 H 0.63863 0.47726 0.14749 0.0
O347 O 0.58783 0.53205 0.13905 0.0
C348 C 0.5635 0.42618 0.1396 0.0
O349 O 0.5611 0.42181 0.12264 0.0
N350 N 0.58068 0.50962 0.10367 0.0
C351 C 0.57478 0.52656 0.06901 0.0
C352 C 0.56406 0.54196 0.08263 0.0
C353 C 0.5665 0.53249 0.0999 0.0
C354 C 0.58956 0.49322 0.09056 0.0
C355 C 0.58789 0.50208 0.07325 0.0
H356 H 0.55578 0.5424 0.11018 0.0
H357 H 0.59788 0.47283 0.09361 0.0
H358 H 0.51349 0.47797 0.1516 0.0
H359 H 0.44209 0.41742 0.11013 0.0
H360 H 0.71909 0.55084 0.11209 0.0
H361 H 0.55243 0.55985 0.07996 0.0
H362 H 0.59643 0.48937 0.06329 0.0
C363 C 0.58539 0.05784 0.11315 0.0
C364 C 0.59825 0.03489 0.11901 0.0
N365 N 0.58662 0.0248 0.13553 0.0
N366 N 0.56521 0.06217 0.12576 0.0
C367 C 0.56658 0.04186 0.13931 0.0
H368 H 0.59185 0.07189 0.1007 0.0
Co369 Co 0.54753 0.09625 0.12447 0.0
C370 C 0.46714 0.05028 0.1335 0.0
O371 O 0.45968 0.06152 0.11888 0.0
N372 N 0.5305 0.13227 0.12341 0.0
C373 C 0.50306 0.16531 0.11596 0.0
C374 C 0.50861 0.13633 0.11143 0.0
C375 C 0.53805 0.16006 0.13503 0.0
N376 N 0.52168 0.18031 0.13079 0.0
O377 O 0.57492 0.1195 0.14531 0.0
H378 H 0.49638 0.1191 0.10008 0.0
H379 H 0.55481 0.16538 0.14661 0.0
O380 O 0.50133 0.06139 0.13765 0.0
C381 C 0.60762 0.14201 0.13943 0.0
O382 O 0.61318 0.14356 0.12255 0.0
N383 N 0.52638 0.076 0.10265 0.0
C384 C 0.51006 0.05297 0.06801 0.0
C385 C 0.49328 0.02716 0.08167 0.0
C386 C 0.50247 0.03911 0.09895 0.0
C387 C 0.54439 0.10081 0.08953 0.0
C388 C 0.53592 0.09023 0.07221 0.0
H389 H 0.49128 0.01865 0.10929 0.0
H390 H 0.56551 0.12927 0.09259 0.0
H391 H 0.55425 0.0408 0.15186 0.0
H392 H 0.61657 0.02797 0.11187 0.0
H393 H 0.4871 0.17509 0.1087 0.0
H394 H 0.47431 0.99781 0.07905 0.0
H395 H 0.54977 0.11122 0.06221 0.0
C396 C 0.53631 0.97103 0.90011 0.0
C397 C 0.57285 0.99258 0.89495 0.0
N398 N 0.57355 0.99932 0.87776 0.0
N399 N 0.51343 0.96456 0.88641 0.0
C400 C 0.53697 0.9821 0.87292 0.0
H401 H 0.52713 0.95965 0.913 0.0
Co402 Co 0.46125 0.93105 0.88692 0.0
C403 C 0.42866 0.97734 0.87566 0.0
O404 O 0.40895 0.96707 0.89002 0.0
N405 N 0.40799 0.89559 0.88724 0.0
C406 C 0.34686 0.86335 0.89366 0.0
C407 C 0.38115 0.89247 0.89845 0.0
C408 C 0.38849 0.86708 0.87583 0.0
N409 N 0.3515 0.84731 0.87945 0.0
O410 O 0.46665 0.9066 0.86683 0.0
H411 H 0.38541 0.91038 0.90945 0.0
H412 H 0.40074 0.86082 0.86486 0.0
O413 O 0.45167 0.96563 0.87243 0.0
C414 C 0.47623 0.88414 0.87333 0.0
O415 O 0.47928 0.88313 0.8903 0.0
N416 N 0.45883 0.95267 0.90812 0.0
C417 C 0.46499 0.97885 0.94212 0.0
C418 C 0.47541 1.00358 0.92795 0.0
C419 C 0.4727 0.99001 0.91102 0.0
C420 C 0.45048 0.92877 0.92182 0.0
C421 C 0.45238 0.941 0.93885 0.0
H422 H 0.48306 1.00963 0.90032 0.0
H423 H 0.44269 0.89993 0.91946 0.0
H424 H 0.52745 0.98041 0.85966 0.0
H425 H 0.59701 1.00177 0.9033 0.0
H426 H 0.32059 0.85413 0.90038 0.0
H427 H 0.48628 0.03322 0.92996 0.0
H428 H 0.44557 0.92125 0.94941 0.0
C429 C 0.06206 0.57331 0.899 0.0
C430 C 0.04059 0.58829 0.89372 0.0
N431 N 0.03382 0.58202 0.87655 0.0
N432 N 0.06846 0.55668 0.8854 0.0
C433 C 0.05094 0.56253 0.87183 0.0
H434 H 0.07347 0.57572 0.9119 0.0
Co435 Co 0.10207 0.53812 0.88613 0.0
C436 C 0.05568 0.45892 0.87533 0.0
O437 O 0.06608 0.44986 0.88977 0.0
N438 N 0.13766 0.52047 0.8867 0.0
C439 C 0.16991 0.49182 0.8935 0.0
C440 C 0.14064 0.49691 0.89806 0.0
C441 C 0.16644 0.52952 0.87544 0.0
N442 N 0.18621 0.51242 0.8793 0.0
O443 O 0.1264 0.56741 0.86588 0.0
H444 H 0.12257 0.48333 0.90904 0.0
H445 H 0.17291 0.54797 0.86442 0.0
O446 O 0.06737 0.49353 0.87189 0.0
C447 C 0.1489 0.59962 0.87221 0.0
O448 O 0.14999 0.60409 0.88915 0.0
N449 N 0.08055 0.51459 0.90745 0.0
C450 C 0.05481 0.4942 0.94148 0.0
C451 C 0.02987 0.47988 0.92738 0.0
C452 C 0.04322 0.49095 0.91043 0.0
C453 C 0.10456 0.53037 0.92109 0.0
C454 C 0.09256 0.51985 0.93814 0.0
H455 H 0.02348 0.48152 0.89977 0.0
H456 H 0.13336 0.55157 0.91867 0.0
H457 H 0.05258 0.55452 0.85861 0.0
H458 H 0.03147 0.60342 0.90197 0.0
H459 H 0.17905 0.47488 0.90037 0.0
H460 H 1.00027 0.46081 0.92945 0.0
H461 H 0.11243 0.53283 0.94866 0.0
C462 C 0.46264 0.49607 0.90048 0.0
C463 C 0.44834 0.45991 0.89492 0.0
N464 N 0.45428 0.46017 0.87767 0.0
N465 N 0.47851 0.5197 0.88697 0.0
C466 C 0.4729 0.49695 0.87319 0.0
H467 H 0.46025 0.50442 0.91351 0.0
Co468 Co 0.49598 0.57163 0.888 0.0
C469 C 0.57537 0.60678 0.87721 0.0
O470 O 0.58375 0.62645 0.89156 0.0
N471 N 0.51254 0.62457 0.88885 0.0
C472 C 0.53969 0.68518 0.896 0.0
C473 C 0.53477 0.65093 0.90061 0.0
C474 C 0.50411 0.64429 0.8773 0.0
N475 N 0.52031 0.68098 0.88136 0.0
O476 O 0.46651 0.56659 0.86778 0.0
H477 H 0.54785 0.64648 0.9118 0.0
H478 H 0.48686 0.63245 0.8659 0.0
O479 O 0.54098 0.58289 0.87377 0.0
C480 C 0.43391 0.55558 0.87399 0.0
O481 O 0.42897 0.55084 0.89087 0.0
N482 N 0.5197 0.57366 0.90928 0.0
C483 C 0.54035 0.56795 0.94324 0.0
C484 C 0.55569 0.55891 0.92901 0.0
C485 C 0.54449 0.56133 0.9121 0.0
C486 C 0.50299 0.58034 0.92303 0.0
C487 C 0.51358 0.57865 0.94005 0.0
H488 H 0.55472 0.55212 0.90134 0.0
H489 H 0.48101 0.58688 0.92071 0.0
H490 H 0.48043 0.50714 0.86001 0.0
H491 H 0.43388 0.43532 0.90304 0.0
H492 H 0.55579 0.71114 0.90306 0.0
H493 H 0.57566 0.54947 0.93095 0.0
H494 H 0.49983 0.58428 0.95065 0.0
C495 C 0.6572 0.8644 0.44461 0.0
C496 C 0.67844 0.90133 0.44946 0.0
N497 N 0.67938 0.90314 0.46696 0.0
N498 N 0.64508 0.84269 0.45896 0.0
C499 C 0.65867 0.86723 0.47235 0.0
H500 H 0.65032 0.85423 0.4314 0.0
Co501 Co 0.61118 0.79066 0.4599 0.0
C502 C 0.67745 0.79678 0.48099 0.0
O503 O 0.70211 0.8315 0.47697 0.0
N504 N 0.57744 0.73898 0.4611 0.0
C505 C 0.55568 0.67777 0.46298 0.0
C506 C 0.58655 0.71195 0.45946 0.0
C507 C 0.54073 0.72043 0.46544 0.0
N508 N 0.52683 0.6831 0.4669 0.0
O509 O 0.58625 0.79838 0.4793 0.0
H510 H 0.61424 0.71688 0.45635 0.0
H511 H 0.52481 0.73414 0.46802 0.0
O512 O 0.64405 0.78172 0.47506 0.0
C513 C 0.56594 0.81036 0.47252 0.0
O514 O 0.56663 0.8145 0.45555 0.0
N515 N 0.63209 0.78349 0.43957 0.0
C516 C 0.65556 0.78177 0.40571 0.0
C517 C 0.68063 0.79182 0.41975 0.0
C518 C 0.6683 0.79243 0.43666 0.0
C519 C 0.60719 0.77254 0.42616 0.0
C520 C 0.61819 0.77113 0.40918 0.0
H521 H 0.68839 0.80202 0.44706 0.0
H522 H 0.57885 0.76648 0.42858 0.0
H523 H 0.6526 0.85884 0.48584 0.0
H524 H 0.69194 0.92497 0.44071 0.0
H525 H 0.55477 0.65112 0.46272 0.0
H526 H 0.70976 0.80024 0.41761 0.0
H527 H 0.59804 0.76386 0.39876 0.0
C528 C 0.17434 0.78263 0.44262 0.0
C529 C 0.13763 0.76742 0.44755 0.0
N530 N 0.13653 0.77637 0.46431 0.0
N531 N 0.19685 0.80191 0.45603 0.0
C532 C 0.17297 0.79755 0.46913 0.0
H533 H 0.18398 0.77864 0.43017 0.0
Co534 Co 0.24913 0.82172 0.45582 0.0
C535 C 0.27972 0.90134 0.46549 0.0
O536 O 0.29904 0.91001 0.45103 0.0
N537 N 0.30268 0.84071 0.45582 0.0
C538 C 0.36385 0.87055 0.44946 0.0
C539 C 0.3293 0.86442 0.44452 0.0
C540 C 0.32259 0.83268 0.46745 0.0
N541 N 0.35964 0.85049 0.46387 0.0
O542 O 0.24404 0.79348 0.47648 0.0
H543 H 0.32467 0.87724 0.43328 0.0
H544 H 0.31058 0.81435 0.47851 0.0
O545 O 0.25761 0.86675 0.46938 0.0
C546 C 0.23684 0.76187 0.47024 0.0
O547 O 0.23621 0.75792 0.45327 0.0
N548 N 0.2511 0.84375 0.43408 0.0
C549 C 0.24462 0.86019 0.39943 0.0
C550 C 0.23342 0.87517 0.41303 0.0
C551 C 0.23614 0.86594 0.43029 0.0
C552 C 0.26044 0.8277 0.42099 0.0
C553 C 0.25845 0.83631 0.40367 0.0
H554 H 0.225 0.87546 0.44055 0.0
H555 H 0.26936 0.80776 0.42406 0.0
H556 H 0.18217 0.80787 0.48218 0.0
H557 H 0.11359 0.75035 0.43942 0.0
H558 H 0.39003 0.88776 0.4427 0.0
H559 H 0.22119 0.89254 0.41034 0.0
H560 H 0.26731 0.82389 0.3937 0.0
C561 C 0.24147 0.38079 0.44296 0.0
C562 C 0.25356 0.35758 0.44933 0.0
N563 N 0.24785 0.3542 0.46664 0.0
N564 N 0.22743 0.39179 0.45607 0.0
C565 C 0.23196 0.37528 0.4704 0.0
H566 H 0.24444 0.39038 0.42967 0.0
Co567 Co 0.21274 0.42832 0.4542 0.0
C568 C 0.1338 0.38979 0.46527 0.0
O569 O 0.12697 0.40318 0.45115 0.0
N570 N 0.19889 0.46672 0.45258 0.0
C571 C 0.17617 0.50359 0.44443 0.0
C572 C 0.18042 0.47382 0.43987 0.0
C573 C 0.20561 0.49343 0.4647 0.0
N574 N 0.1921 0.51602 0.46004 0.0
O575 O 0.24276 0.45317 0.4741 0.0
H576 H 0.169 0.45781 0.42814 0.0
H577 H 0.21963 0.4962 0.47695 0.0
O578 O 0.16739 0.39724 0.46857 0.0
C579 C 0.27572 0.47276 0.4679 0.0
O580 O 0.28096 0.47029 0.45122 0.0
N581 N 0.18829 0.40605 0.43321 0.0
C582 C 0.16605 0.3786 0.39958 0.0
C583 C 0.14878 0.35556 0.41405 0.0
C584 C 0.16078 0.36968 0.43083 0.0
C585 C 0.20694 0.42775 0.41923 0.0
C586 C 0.19566 0.41502 0.40235 0.0
H587 H 0.14886 0.35108 0.44182 0.0
H588 H 0.23082 0.45537 0.42129 0.0
H589 H 0.22499 0.37979 0.4834 0.0
H590 H 0.26758 0.34593 0.4419 0.0
H591 H 0.16273 0.5155 0.43671 0.0
H592 H 0.12662 0.32682 0.41242 0.0
H593 H 0.21083 0.43314 0.39154 0.0
H594 H 0.39538 0.42302 0.12362 0.0
H595 H 0.30916 0.37592 0.21963 0.0
H596 H 0.46217 0.44259 0.16984 0.0
H597 H 0.24216 0.33367 0.17313 0.0
H598 H 0.36524 0.40778 0.20168 0.0
H599 H 0.33934 0.39777 0.14165 0.0
C600 C 0.39843 0.42205 0.13755 0.0
C601 C 0.43384 0.43459 0.14512 0.0
C602 C 0.33826 0.39164 0.19539 0.0
C603 C 0.36925 0.406 0.16596 0.0
C604 C 0.30608 0.37321 0.20565 0.0
C605 C 0.27059 0.35141 0.19797 0.0
C606 C 0.33523 0.38866 0.17723 0.0
C607 C 0.26866 0.35008 0.17971 0.0
C608 C 0.36626 0.4077 0.14786 0.0
C609 C 0.43573 0.43343 0.16335 0.0
N610 N 0.3005 0.36824 0.16999 0.0
N611 N 0.40392 0.41923 0.17311 0.0
H612 H 0.69698 0.91059 0.17658 0.0
H613 H 0.58674 0.02381 0.17113 0.0
H614 H 0.64872 0.93362 0.22139 0.0
H615 H 0.6113 0.9771 0.12622 0.0
H616 H 0.60982 0.99171 0.18981 0.0
H617 H 0.66652 0.93542 0.15791 0.0
C618 C 0.67979 0.92046 0.18255 0.0
C619 C 0.67595 0.92021 0.20073 0.0
C620 C 0.60997 0.98838 0.17585 0.0
C621 C 0.64129 0.94941 0.17929 0.0
C622 C 0.59658 1.00662 0.16514 0.0
C623 C 0.59733 1.00371 0.14695 0.0
C624 C 0.62449 0.96718 0.16838 0.0
C625 C 0.61085 0.98107 0.14008 0.0
C626 C 0.66248 0.93485 0.17184 0.0
C627 C 0.65337 0.93387 0.20756 0.0
N628 N 0.6241 0.96402 0.15075 0.0
N629 N 0.63723 0.94811 0.19689 0.0
H630 H 0.05362 0.63867 0.12259 0.0
H631 H 0.10057 0.72208 0.21904 0.0
H632 H 1.01073 0.57044 0.16869 0.0
H633 H 0.1181 0.78994 0.17342 0.0
H634 H 0.07556 0.6667 0.20063 0.0
H635 H 0.08508 0.6942 0.14087 0.0
C636 C 0.05068 0.63519 0.13654 0.0
C637 C 0.0288 0.59951 0.14401 0.0
C638 C 0.08498 0.69372 0.19464 0.0
C639 C 0.06565 0.66353 0.16513 0.0
C640 C 0.09919 0.72551 0.20516 0.0
C641 C 0.11107 0.76103 0.19789 0.0
C642 C 0.08281 0.69718 0.1766 0.0
C643 C 0.10945 0.76341 0.1797 0.0
C644 C 0.06888 0.66707 0.14699 0.0
C645 C 0.02719 0.5971 0.16226 0.0
N646 N 0.09542 0.73195 0.16971 0.0
N647 N 0.04518 0.62863 0.17216 0.0
H648 H 0.47828 0.45568 0.84507 0.0
H649 H 0.32936 0.23609 0.8358 0.0
H650 H 0.39751 0.38937 0.88448 0.0
H651 H 0.4015 0.30301 0.79397 0.0
H652 H 0.35811 0.29125 0.85463 0.0
H653 H 0.45358 0.39976 0.82666 0.0
C654 C 0.45543 0.42956 0.84989 0.0
C655 C 0.44029 0.42757 0.8665 0.0
C656 C 0.36779 0.29386 0.84134 0.0
C657 C 0.41205 0.36316 0.8455 0.0
C658 C 0.35156 0.26221 0.83062 0.0
C659 C 0.36282 0.26483 0.81321 0.0
C660 C 0.39566 0.3285 0.83468 0.0
C661 C 0.39149 0.29974 0.80721 0.0
C662 C 0.44143 0.39754 0.83939 0.0
C663 C 0.4108 0.39258 0.87201 0.0
N664 N 0.4068 0.33014 0.81788 0.0
N665 N 0.39777 0.36199 0.86158 0.0
H666 H 0.73148 0.10536 0.79334 0.0
H667 H 0.64367 1.01187 0.88516 0.0
H668 H 0.79589 0.09803 0.83578 0.0
H669 H 0.58017 0.02943 0.84532 0.0
H670 H 0.69924 0.04365 0.86721 0.0
H671 H 0.67603 0.07843 0.81202 0.0
C672 C 0.73401 0.09822 0.80662 0.0
C673 C 0.76846 0.10382 0.81295 0.0
C674 C 0.67325 0.04077 0.86238 0.0
C675 C 0.70485 0.07283 0.83447 0.0
C676 C 0.64124 0.02267 0.87272 0.0
C677 C 0.60675 0.01801 0.86693 0.0
C678 C 0.67117 0.05432 0.84594 0.0
C679 C 0.60585 0.03203 0.85037 0.0
C680 C 0.70232 0.08292 0.8173 0.0
C681 C 0.77012 0.09453 0.83036 0.0
N682 N 0.63752 0.04947 0.84047 0.0
N683 N 0.73874 0.07925 0.84044 0.0
H684 H 0.02261 0.6405 0.88347 0.0
H685 H 0.92358 0.63013 0.79256 0.0
H686 H 1.0025 0.55741 0.8444 0.0
H687 H 0.93525 0.70531 0.83412 0.0
H688 H 0.95163 0.60264 0.81117 0.0
H689 H 0.99047 0.6639 0.8655 0.0
C690 C 1.01117 0.62676 0.8712 0.0
C691 C 1.01516 0.59644 0.86563 0.0
C692 C 0.94788 0.62499 0.81627 0.0
C693 C 0.97843 0.62406 0.84461 0.0
C694 C 0.93193 0.64081 0.80562 0.0
C695 C 0.92717 0.6703 0.81171 0.0
C696 C 0.95945 0.6388 0.83318 0.0
C697 C 0.93803 0.68251 0.82888 0.0
C698 C 0.99288 0.64044 0.86084 0.0
C699 C 1.00039 0.58086 0.84926 0.0
N700 N 0.95387 0.66692 0.83893 0.0
N701 N 0.98272 0.59484 0.83935 0.0
H702 H 0.72532 0.67765 0.79009 0.0
H703 H 0.64728 0.63167 0.88684 0.0
H704 H 0.79679 0.70556 0.83514 0.0
H705 H 0.57584 0.59711 0.8416 0.0
H706 H 0.70171 0.65217 0.86812 0.0
H707 H 0.67074 0.64205 0.80848 0.0
C708 C 0.7296 0.67605 0.80389 0.0
C709 C 0.76578 0.69513 0.81112 0.0
C710 C 0.67419 0.63973 0.86223 0.0
C711 C 0.70283 0.65427 0.83238 0.0
C712 C 0.64297 0.62799 0.87291 0.0
C713 C 0.6069 0.61304 0.86575 0.0
C714 C 0.66961 0.63699 0.84414 0.0
C715 C 0.60309 0.60853 0.84767 0.0
C716 C 0.69827 0.65556 0.81439 0.0
C717 C 0.76947 0.69145 0.82903 0.0
N718 N 0.63415 0.62098 0.83745 0.0
N719 N 0.73832 0.67187 0.83909 0.0
H720 H 0.43796 0.98511 0.83997 0.0
H721 H 0.33268 0.10445 0.83367 0.0
H722 H 0.40543 0.02605 0.88439 0.0
H723 H 0.35407 0.05288 0.78972 0.0
H724 H 0.3687 0.08496 0.85208 0.0
H725 H 0.4172 0.01911 0.82087 0.0
C726 C 0.42717 1.00179 0.8457 0.0
C727 C 0.42296 1.00234 0.86376 0.0
C728 C 0.36577 0.07825 0.83835 0.0
C729 C 0.39889 0.04097 0.84211 0.0
C730 C 0.3453 0.0895 0.82786 0.0
C731 C 0.33985 0.07984 0.81019 0.0
C732 C 0.38101 0.05741 0.83109 0.0
C733 C 0.35696 0.06045 0.80334 0.0
C734 C 0.41507 0.021 0.83482 0.0
C735 C 0.40864 0.02433 0.8705 0.0
N736 N 0.37645 0.04969 0.81378 0.0
N737 N 0.39686 0.04244 0.85972 0.0
H738 H 0.04713 0.45955 0.83966 0.0
H739 H 0.92953 0.23479 0.83469 0.0
H740 H 1.00727 0.38713 0.88451 0.0
H741 H 0.97881 0.30693 0.79024 0.0
H742 H 0.94868 0.29058 0.85281 0.0
H743 H 1.01287 0.40429 0.82089 0.0
C744 C 0.03063 0.4322 0.84555 0.0
C745 C 0.03048 0.42789 0.86363 0.0
C746 C 0.95493 0.29411 0.83904 0.0
C747 C 0.99157 0.36463 0.84237 0.0
C748 C 0.94386 0.26223 0.82871 0.0
C749 C 0.95305 0.26616 0.81099 0.0
C750 C 0.97512 0.33006 0.83155 0.0
C751 C 0.97166 0.3025 0.80391 0.0
C752 C 1.01127 0.40061 0.83487 0.0
C753 C 1.0087 0.39171 0.87059 0.0
N754 N 0.98229 0.33291 0.81419 0.0
N755 N 0.99047 0.36156 0.85999 0.0
H756 H 0.70697 0.78945 0.17801 0.0
H757 H 0.59797 0.56492 0.17089 0.0
H758 H 0.67841 0.71518 0.22202 0.0
H759 H 0.63665 0.6394 0.12673 0.0
H760 H 0.61784 0.61942 0.19001 0.0
H761 H 0.67203 0.73461 0.15911 0.0
C762 C 0.69293 0.76174 0.18372 0.0
C763 C 0.69609 0.75693 0.20157 0.0
C764 C 0.62156 0.62373 0.1761 0.0
C765 C 0.65624 0.6941 0.18012 0.0
C766 C 0.61001 0.59258 0.16521 0.0
C767 C 0.61612 0.59763 0.14723 0.0
C768 C 0.63911 0.66006 0.16893 0.0
C769 C 0.63193 0.63419 0.14055 0.0
C770 C 0.67311 0.73041 0.17295 0.0
C771 C 0.67728 0.72028 0.20829 0.0
N772 N 0.64313 0.66391 0.15137 0.0
N773 N 0.65849 0.69039 0.19758 0.0
H774 H 0.24088 0.9264 0.1728 0.0
H775 H 0.46603 0.03629 0.16876 0.0
H776 H 0.31283 0.9666 0.21783 0.0
H777 H 0.39453 1.00699 0.12364 0.0
H778 H 0.40999 1.00117 0.18695 0.0
H779 H 0.29663 0.94603 0.15449 0.0
C780 C 0.26825 0.93874 0.17885 0.0
C781 C 0.27224 0.94538 0.1968 0.0
C782 C 0.40666 1.00213 0.17303 0.0
C783 C 0.33603 0.96802 0.17607 0.0
C784 C 0.43868 0.02203 0.16266 0.0
C785 C 0.43497 0.02507 0.14471 0.0
C786 C 0.37079 0.98505 0.16535 0.0
C787 C 0.39876 1.00598 0.13748 0.0
C788 C 0.3001 0.95013 0.16842 0.0
C789 C 0.30844 0.96153 0.20398 0.0
N790 N 0.36817 0.98712 0.1478 0.0
N791 N 0.33883 0.97252 0.19362 0.0
H792 H 0.10684 0.32052 0.17278 0.0
H793 H 0.99875 0.43703 0.16791 0.0
H794 H 0.07175 0.35771 0.21769 0.0
H795 H 0.02861 0.39478 0.12306 0.0
H796 H 0.0342 0.41682 0.18629 0.0
H797 H 0.0873 0.35622 0.15417 0.0
C798 C 0.09567 0.33667 0.17873 0.0
C799 C 0.09042 0.33566 0.19677 0.0
C800 C 0.03331 0.41238 0.17238 0.0
C801 C 0.06775 0.37627 0.17567 0.0
C802 C 1.01321 0.4241 0.16191 0.0
C803 C 1.01022 0.41711 0.14398 0.0
C804 C 0.05057 0.39368 0.16483 0.0
C805 C 0.02957 0.4002 0.13688 0.0
C806 C 0.08432 0.35689 0.16813 0.0
C807 C 0.07574 0.35712 0.20381 0.0
N808 N 0.04855 0.38879 0.1473 0.0
N809 N 0.06464 0.37617 0.19327 0.0
H810 H 0.06876 0.71381 0.45912 0.0
H811 H 0.9732 0.74464 0.54326 0.0
H812 H 0.12742 0.80759 0.49391 0.0
H813 H 0.91583 0.65183 0.5079 0.0
H814 H 0.02905 0.76946 0.52496 0.0
H815 H 1.01236 0.69216 0.47641 0.0
C816 C 0.06986 0.73017 0.47031 0.0
C817 C 0.10315 0.76296 0.47489 0.0
C818 C 1.00421 0.74378 0.52113 0.0
C819 C 0.03798 0.73762 0.49508 0.0
C820 C 0.97225 0.72952 0.5316 0.0
C821 C 0.93967 0.6959 0.52721 0.0
C822 C 1.00383 0.72434 0.5061 0.0
C823 C 0.94005 0.67793 0.51177 0.0
C824 C 0.03747 0.71755 0.48028 0.0
C825 C 0.10262 0.78214 0.48988 0.0
N826 N 0.97164 0.69223 0.50186 0.0
N827 N 0.07059 0.76923 0.49941 0.0
H828 H 0.26945 0.37202 0.50042 0.0
H829 H 0.33655 0.2204 0.51004 0.0
H830 H 0.25662 0.29446 0.45981 0.0
H831 H 0.35518 0.30365 0.54876 0.0
H832 H 0.30461 0.2448 0.49187 0.0
H833 H 0.29689 0.34398 0.51911 0.0
C834 C 0.27193 0.3488 0.49549 0.0
C835 C 0.26085 0.33579 0.47845 0.0
C836 C 0.3156 0.25757 0.5044 0.0
C837 C 0.29285 0.30375 0.49973 0.0
C838 C 0.33404 0.24374 0.51474 0.0
C839 C 0.34851 0.25966 0.53109 0.0
C840 C 0.3116 0.28761 0.51039 0.0
C841 C 0.34401 0.28979 0.53649 0.0
C842 C 0.28793 0.33296 0.50612 0.0
C843 C 0.26528 0.30583 0.47274 0.0
N844 N 0.32606 0.30267 0.52621 0.0
N845 N 0.281 0.29096 0.4833 0.0
H846 H 0.70265 0.90856 0.50051 0.0
H847 H 0.77818 0.12907 0.50696 0.0
H848 H 0.69843 0.97435 0.45784 0.0
H849 H 0.78009 0.06205 0.54958 0.0
H850 H 0.75226 0.07368 0.48822 0.0
H851 H 0.73308 0.96505 0.51831 0.0
C852 C 0.70792 0.93479 0.49487 0.0
C853 C 0.69774 0.93647 0.4776 0.0
C854 C 0.75852 0.07115 0.50166 0.0
C855 C 0.73316 1.00168 0.49795 0.0
C856 C 0.77362 0.10287 0.51234 0.0
C857 C 0.78117 0.10024 0.52993 0.0
C858 C 0.75099 0.03651 0.5086 0.0
C859 C 0.77418 0.06532 0.5362 0.0
C860 C 0.72557 0.96717 0.50503 0.0
C861 C 0.70603 0.97159 0.47099 0.0
N862 N 0.75941 0.03491 0.52559 0.0
N863 N 0.72311 1.00269 0.48116 0.0
H864 H 0.34895 0.05349 0.55178 0.0
H865 H 0.30165 0.97234 0.45545 0.0
H866 H 0.37948 0.12336 0.50609 0.0
H867 H 0.2715 0.90271 0.5012 0.0
H868 H 0.32205 0.02719 0.47382 0.0
H869 H 0.31299 0.99848 0.53372 0.0
C870 C 0.34782 0.05734 0.5379 0.0
C871 C 0.36777 0.09319 0.53041 0.0
C872 C 0.31058 0.99997 0.4799 0.0
C873 C 0.32649 0.0297 0.50953 0.0
C874 C 0.29885 0.96849 0.46942 0.0
C875 C 0.28522 0.93281 0.47681 0.0
C876 C 0.30906 0.99606 0.49803 0.0
C877 C 0.28184 0.92962 0.49495 0.0
C878 C 0.32715 0.02576 0.5276 0.0
C879 C 0.36466 0.09633 0.51241 0.0
N880 N 0.2942 0.96094 0.50496 0.0
N881 N 0.34484 0.06491 0.50254 0.0
H882 H 0.06086 0.34992 0.45553 0.0
H883 H 0.98365 0.30207 0.55221 0.0
H884 H 0.13258 0.37247 0.50013 0.0
H885 H 0.91174 0.26744 0.50714 0.0
H886 H 0.03786 0.32233 0.53336 0.0
H887 H 1.00623 0.31465 0.47394 0.0
C888 C 0.06517 0.34724 0.46924 0.0
C889 C 0.10144 0.36469 0.47636 0.0
C890 C 1.01028 0.30991 0.52754 0.0
C891 C 0.03851 0.32421 0.49763 0.0
C892 C 0.97921 0.29835 0.5383 0.0
C893 C 0.94309 0.28345 0.53121 0.0
C894 C 1.00546 0.30708 0.50946 0.0
C895 C 0.93905 0.27885 0.51314 0.0
C896 C 0.03383 0.32691 0.47974 0.0
C897 C 0.10517 0.35965 0.49413 0.0
N898 N 0.96997 0.29116 0.50285 0.0
N899 N 0.07404 0.34029 0.50421 0.0
H900 H 0.68169 0.61522 0.53467 0.0
H901 H 0.74916 0.81321 0.4892 0.0
H902 H 0.79787 0.69187 0.52294 0.0
H903 H 0.63367 0.72539 0.49318 0.0
H904 H 0.76836 0.77133 0.50246 0.0
H905 H 0.66448 0.65665 0.52002 0.0
C906 C 0.70365 0.64076 0.52888 0.0
C907 C 0.74132 0.65012 0.53008 0.0
C908 C 0.73885 0.7613 0.50041 0.0
C909 C 0.72171 0.69829 0.51334 0.0
C910 C 0.72781 0.78526 0.49296 0.0
C911 C 0.68967 0.77289 0.49007 0.0
C912 C 0.71157 0.72477 0.50515 0.0
C913 C 0.66336 0.73625 0.49511 0.0
C914 C 0.69376 0.66448 0.5205 0.0
C915 C 0.76848 0.68351 0.52223 0.0
N916 N 0.67479 0.71364 0.5024 0.0
N917 N 0.75818 0.70663 0.51431 0.0
H918 H 0.11933 0.35672 0.28882 0.0
H919 H 0.15366 0.31189 0.38622 0.0
H920 H 0.14906 0.27314 0.30205 0.0
H921 H 0.15483 0.41357 0.37194 0.0
H922 H 0.14238 0.29211 0.35576 0.0
H923 H 0.1246 0.37398 0.31958 0.0
C924 C 0.12708 0.34207 0.29813 0.0
C925 C 0.13355 0.31326 0.29277 0.0
C926 C 0.1449 0.31867 0.35931 0.0
C927 C 0.13892 0.33243 0.32801 0.0
C928 C 0.15098 0.32978 0.37671 0.0
C929 C 0.15533 0.36446 0.38157 0.0
C930 C 0.14287 0.34229 0.34672 0.0
C931 C 0.15205 0.38678 0.36868 0.0
C932 C 0.12984 0.35179 0.3157 0.0
C933 C 0.143 0.29496 0.30553 0.0
N934 N 0.14609 0.37536 0.35183 0.0
N935 N 0.1453 0.30479 0.32251 0.0
H936 H 0.67427 0.76121 0.29394 0.0
H937 H 0.71876 0.8396 0.39143 0.0
H938 H 0.75025 0.87674 0.30727 0.0
H939 H 0.62162 0.73391 0.37823 0.0
H940 H 0.73616 0.84973 0.36074 0.0
H941 H 0.6585 0.74757 0.32482 0.0
C942 C 0.68752 0.78374 0.30328 0.0
C943 C 0.71392 0.82015 0.29791 0.0
C944 C 0.71115 0.82419 0.36455 0.0
C945 C 0.69652 0.8045 0.33329 0.0
C946 C 0.70143 0.8182 0.38211 0.0
C947 C 0.66866 0.78587 0.38742 0.0
C948 C 0.6881 0.79759 0.35215 0.0
C949 C 0.64694 0.7594 0.37468 0.0
C950 C 0.67868 0.77586 0.32092 0.0
C951 C 0.73044 0.84806 0.31072 0.0
N952 N 0.65699 0.76586 0.35762 0.0
N953 N 0.72159 0.83962 0.32775 0.0
H954 H 0.21322 0.84282 0.28784 0.0
H955 H 0.2564 0.92597 0.38457 0.0
H956 H 0.22205 0.94838 0.30138 0.0
H957 H 0.22278 0.81147 0.37191 0.0
H958 H 0.24988 0.93737 0.35385 0.0
H959 H 0.22441 0.83416 0.31826 0.0
C960 C 0.21802 0.86441 0.29718 0.0
C961 C 0.21661 0.89631 0.29209 0.0
C962 C 0.24404 0.9098 0.35783 0.0
C963 C 0.22895 0.8864 0.32697 0.0
C964 C 0.24753 0.9032 0.37538 0.0
C965 C 0.24038 0.86776 0.38088 0.0
C966 C 0.23344 0.8808 0.34568 0.0
C967 C 0.22941 0.83947 0.3683 0.0
C968 C 0.22406 0.8593 0.31457 0.0
C969 C 0.2225 0.92316 0.3048 0.0
N970 N 0.22636 0.84663 0.35134 0.0
N971 N 0.22837 0.91758 0.32166 0.0
H972 H 0.32729 0.15583 0.62142 0.0
H973 H 0.36479 0.11078 0.71815 0.0
H974 H 0.42283 0.14456 0.63475 0.0
H975 H 0.29383 0.15693 0.70582 0.0
H976 H 0.38198 0.11556 0.68736 0.0
H977 H 0.30864 0.14672 0.65203 0.0
C978 C 0.34403 0.15089 0.63076 0.0
C979 C 0.37668 0.15102 0.62557 0.0
C980 C 0.3626 0.12454 0.69146 0.0
C981 C 0.35579 0.14101 0.66061 0.0
C982 C 0.35295 0.12206 0.70904 0.0
C983 C 0.32752 0.13313 0.71465 0.0
C984 C 0.3465 0.13793 0.67938 0.0
C985 C 0.31279 0.14714 0.70215 0.0
C986 C 0.3336 0.14606 0.64824 0.0
C987 C 0.39763 0.14499 0.63826 0.0
N988 N 0.32235 0.14896 0.68515 0.0
N989 N 0.38685 0.14025 0.65521 0.0
H990 H 0.92418 0.26024 0.71911 0.0
H991 H 0.87967 0.17794 0.62236 0.0
H992 H 0.87993 0.14349 0.70672 0.0
H993 H 0.89076 0.28451 0.63577 0.0
H994 H 0.88905 0.16839 0.65293 0.0
H995 H 0.91939 0.2726 0.68831 0.0
C996 C 0.91332 0.23718 0.70998 0.0
C997 C 0.90274 0.2008 0.71557 0.0
C998 C 0.8896 0.19395 0.64918 0.0
C999 C 0.89791 0.21494 0.68031 0.0
C1000 C 0.88461 0.19956 0.63171 0.0
C1001 C 0.88435 0.23201 0.62656 0.0
C1002 C 0.89467 0.22112 0.66156 0.0
C1003 C 0.8904 0.25892 0.63926 0.0
C1004 C 0.91083 0.24433 0.6924 0.0
C1005 C 0.88929 0.17215 0.70305 0.0
N1006 N 0.89529 0.25288 0.65619 0.0
N1007 N 0.88741 0.17987 0.68605 0.0
H1008 H 0.82907 0.65341 0.71956 0.0
H1009 H 0.76822 0.67809 0.6244 0.0
H1010 H 0.81079 0.74506 0.7074 0.0
H1011 H 0.84196 0.634 0.63446 0.0
H1012 H 0.7722 0.69476 0.65529 0.0
H1013 H 0.81994 0.63544 0.68881 0.0
C1014 C 0.82248 0.66932 0.71045 0.0
C1015 C 0.82073 0.70075 0.71595 0.0
C1016 C 0.78731 0.6813 0.65061 0.0
C1017 C 0.81042 0.68054 0.68087 0.0
C1018 C 0.78531 0.672 0.63298 0.0
C1019 C 0.80431 0.65402 0.62672 0.0
C1020 C 0.80794 0.67202 0.66207 0.0
C1021 C 0.82575 0.64663 0.63862 0.0
C1022 C 0.81763 0.6593 0.69292 0.0
C1023 C 0.81256 0.72074 0.70359 0.0
N1024 N 0.82667 0.65532 0.65569 0.0
N1025 N 0.80765 0.71028 0.68658 0.0
H1026 H 0.95076 0.48382 0.03995 0.0
H1027 H 0.08726 0.47711 0.96835 0.0
H1028 H 0.02982 0.44708 0.05145 0.0
H1029 H 0.99266 0.49077 0.95614 0.0
H1030 H 0.06819 0.46761 0.99893 0.0
H1031 H 0.96752 0.48856 0.00936 0.0
C1032 C 0.97144 0.4764 0.03605 0.0
C1033 C 0.9886 0.46462 0.04836 0.0
C1034 C 0.05145 0.47239 0.98954 0.0
C1035 C 1.00848 0.47073 0.01318 0.0
C1036 C 0.06235 0.4779 0.97211 0.0
C1037 C 0.04154 0.48482 0.9597 0.0
C1038 C 1.01971 0.47421 0.99464 0.0
C1039 C 1.00932 0.48519 0.96523 0.0
C1040 C 0.98112 0.47929 0.01854 0.0
C1041 C 1.01603 0.45652 0.04249 0.0
N1042 N 0.99958 0.48028 0.98231 0.0
N1043 N 0.02513 0.45974 0.02532 0.0
H1044 H 0.58765 0.59276 0.05413 0.0
H1045 H 0.54674 0.51039 0.95726 0.0
H1046 H 0.55254 0.47791 0.04146 0.0
H1047 H 0.55493 0.61575 0.97063 0.0
H1048 H 0.55696 0.5015 0.98778 0.0
H1049 H 0.582 0.60452 0.02334 0.0
C1050 C 0.57864 0.56999 0.04493 0.0
C1051 C 0.57086 0.53435 0.05045 0.0
C1052 C 0.55668 0.52665 0.98404 0.0
C1053 C 0.56495 0.5478 0.01518 0.0
C1054 C 0.5512 0.5319 0.96658 0.0
C1055 C 0.54988 0.5638 0.96141 0.0
C1056 C 0.56111 0.55361 0.99642 0.0
C1057 C 0.55533 0.59053 0.97411 0.0
C1058 C 0.57564 0.57679 0.02735 0.0
C1059 C 0.55969 0.50606 0.03785 0.0
N1060 N 0.56066 0.58482 0.99103 0.0
N1061 N 0.55719 0.51343 0.02086 0.0
H1062 H 0.44271 1.0021 0.05313 0.0
H1063 H 0.52484 0.04083 0.95622 0.0
H1064 H 0.55898 0.07702 0.04049 0.0
H1065 H 0.41662 0.9473 0.96951 0.0
H1066 H 0.53484 0.05942 0.98681 0.0
H1067 H 0.43022 0.98516 0.02233 0.0
C1068 C 0.46565 0.01486 0.04394 0.0
C1069 C 0.50192 0.04127 0.04947 0.0
C1070 C 0.50882 0.03491 0.98303 0.0
C1071 C 0.48764 0.02249 0.01418 0.0
C1072 C 0.50295 0.02451 0.96554 0.0
C1073 C 0.46988 0.99244 0.96032 0.0
C1074 C 0.48133 1.01323 0.9954 0.0
C1075 C 0.44269 0.97202 0.97302 0.0
C1076 C 0.45843 1.00535 0.02635 0.0
C1077 C 0.5304 0.05718 0.03687 0.0
N1078 N 0.44903 0.98272 0.98997 0.0
N1079 N 0.52263 0.04764 0.01987 0.0
H1080 H 0.23899 0.08586 0.20754 0.0
H1081 H 0.08821 0.14532 0.18957 0.0
H1082 H 0.1234 1.00654 0.19652 0.0
H1083 H 0.2063 0.22326 0.19414 0.0
H1084 H 0.10178 0.09455 0.18526 0.0
H1085 H 0.22949 0.13624 0.19684 0.0
C1086 C 0.21169 0.07907 0.20263 0.0
C1087 C 0.18181 0.04211 0.20312 0.0
C1088 C 0.12489 0.12293 0.18654 0.0
C1089 C 0.17039 0.09968 0.191 0.0
C1090 C 0.11711 0.15202 0.1887 0.0
C1091 C 0.14623 0.1885 0.192 0.0
C1092 C 0.16202 0.13044 0.18808 0.0
C1093 C 0.18314 0.19553 0.19137 0.0
C1094 C 0.20625 0.10778 0.19644 0.0
C1095 C 0.14712 0.03466 0.19636 0.0
N1096 N 0.18997 0.16667 0.18987 0.0
N1097 N 0.14214 0.06328 0.1909 0.0
H1098 H 0.87933 0.94493 0.19395 0.0
H1099 H 0.94339 0.15901 0.20508 0.0
H1100 H 0.80363 0.98768 0.19871 0.0
H1101 H 1.02068 0.11861 0.19814 0.0
H1102 H 0.892 0.09793 0.19621 0.0
H1103 H 0.9307 1.00844 0.18816 0.0
C1104 C 0.87319 0.96744 0.19286 0.0
C1105 C 0.83722 0.96113 0.1966 0.0
C1106 C 0.92023 0.10244 0.19633 0.0
C1107 C 0.89598 0.03406 0.19087 0.0
C1108 C 0.94953 0.1373 0.20145 0.0
C1109 C 0.9862 0.14366 0.20256 0.0
C1110 C 0.92744 0.0733 0.19257 0.0
C1111 C 0.99279 0.11482 0.19745 0.0
C1112 C 0.90263 1.00386 0.18984 0.0
C1113 C 0.83094 0.99143 0.19564 0.0
N1114 N 0.96359 0.08064 0.193 0.0
N1115 N 0.86013 0.02666 0.1932 0.0
H1116 H 0.8703 0.79037 0.21092 0.0
H1117 H 0.08199 0.93952 0.19268 0.0
H1118 H 0.90841 0.90672 0.20112 0.0
H1119 H 0.04018 0.82141 0.19804 0.0
H1120 H 1.01767 0.92691 0.18895 0.0
H1121 H 0.93014 0.79949 0.20033 0.0
C1122 C 0.89123 0.81778 0.20632 0.0
C1123 C 0.88464 0.84794 0.20709 0.0
C1124 C 0.02255 0.90357 0.19029 0.0
C1125 C 0.95359 0.8589 0.1951 0.0
C1126 C 0.05937 0.9108 0.19212 0.0
C1127 C 0.06629 0.88141 0.19544 0.0
C1128 C 0.99257 0.86672 0.19212 0.0
C1129 C 0.03594 0.84475 0.19525 0.0
C1130 C 0.92537 0.82301 0.2002 0.0
C1131 C 0.91242 0.88277 0.20072 0.0
N1132 N 1.00037 0.83847 0.19399 0.0
N1133 N 0.94598 0.8875 0.1953 0.0
H1134 H 0.09123 0.23239 0.80227 0.0
H1135 H 0.15914 0.08691 0.81709 0.0
H1136 H 1.01513 0.11519 0.81122 0.0
H1137 H 0.23299 0.20593 0.81349 0.0
H1138 H 0.10636 0.09734 0.82192 0.0
H1139 H 0.14298 0.22457 0.81252 0.0
C1140 C 0.08545 0.20507 0.80666 0.0
C1141 C 0.04905 0.17431 0.80574 0.0
C1142 C 0.13428 0.1213 0.82074 0.0
C1143 C 0.10821 0.16476 0.81722 0.0
C1144 C 0.16453 0.11531 0.81827 0.0
C1145 C 0.20043 0.14565 0.81507 0.0
C1146 C 0.14011 0.15787 0.81969 0.0
C1147 C 0.20573 0.18185 0.81612 0.0
C1148 C 0.11494 0.20056 0.81256 0.0
C1149 C 0.04284 0.13956 0.81176 0.0
N1150 N 0.17582 0.18695 0.81799 0.0
N1151 N 0.07226 0.13553 0.81692 0.0
H1152 H 0.82832 0.0352 0.81554 0.0
H1153 H 0.91823 0.90387 0.81168 0.0
H1154 H 0.94699 0.07655 0.81677 0.0
H1155 H 0.80319 0.86925 0.80013 0.0
H1156 H 0.9272 0.9638 0.82255 0.0
H1157 H 0.81693 0.97167 0.82001 0.0
C1158 C 0.85199 0.03106 0.81769 0.0
C1159 C 0.88863 0.06108 0.816 0.0
C1160 C 0.8998 0.94278 0.81796 0.0
C1161 C 0.87599 0.98836 0.82009 0.0
C1162 C 0.89467 0.90856 0.81184 0.0
C1163 C 0.86007 0.88186 0.8048 0.0
C1164 C 0.86999 0.95012 0.81714 0.0
C1165 C 0.83048 0.88941 0.80516 0.0
C1166 C 0.84553 0.99472 0.81991 0.0
C1167 C 0.91835 0.05416 0.81829 0.0
N1168 N 0.83619 0.9229 0.81105 0.0
N1169 N 0.91144 0.01838 0.81983 0.0
H1170 H 0.16909 0.94302 0.79951 0.0
H1171 H 0.95531 0.8735 0.81666 0.0
H1172 H 0.12761 0.01834 0.8097 0.0
H1173 H 1.00088 0.80063 0.80994 0.0
H1174 H 1.01883 0.9263 0.82111 0.0
H1175 H 0.10968 0.89079 0.80956 0.0
C1176 C 0.14749 0.94851 0.80412 0.0
C1177 C 0.15299 0.98486 0.8036 0.0
C1178 C 1.01491 0.89855 0.81929 0.0
C1179 C 0.08443 0.92512 0.81488 0.0
C1180 C 0.97855 0.86831 0.81703 0.0
C1181 C 0.97297 0.83272 0.81309 0.0
C1182 C 0.04573 0.89302 0.81735 0.0
C1183 C 1.00409 0.82764 0.81314 0.0
C1184 C 0.11357 0.91874 0.80991 0.0
C1185 C 0.12438 0.99067 0.80992 0.0
N1186 N 0.03915 0.85753 0.81489 0.0
N1187 N 0.09099 0.96099 0.81498 0.0
H1188 H 0.89199 0.56633 0.52694 0.0
H1189 H 0.79458 0.34477 0.53112 0.0
H1190 H 0.77248 0.49299 0.52564 0.0
H1191 H 0.91085 0.42228 0.54182 0.0
H1192 H 0.78754 0.39688 0.52015 0.0
H1193 H 0.9006 0.51263 0.52216 0.0
C1194 C 0.86756 0.53902 0.52482 0.0
C1195 C 0.83153 0.53394 0.5266 0.0
C1196 C 0.81476 0.40234 0.52457 0.0
C1197 C 0.84097 0.47208 0.52216 0.0
C1198 C 0.81879 0.37262 0.53076 0.0
C1199 C 0.85321 0.37945 0.53759 0.0
C1200 C 0.84551 0.43898 0.52512 0.0
C1201 C 0.88369 0.41604 0.53696 0.0
C1202 C 0.87243 0.50826 0.52236 0.0
C1203 C 0.80072 0.49799 0.52414 0.0
N1204 N 0.87905 0.44443 0.53101 0.0
N1205 N 0.8061 0.46816 0.52247 0.0
H1206 H 0.62588 0.49361 0.54328 0.0
H1207 H 0.54833 0.2802 0.52291 0.0
H1208 H 0.69769 0.44964 0.52995 0.0
H1209 H 0.47927 0.32937 0.53198 0.0
H1210 H 0.60238 0.34289 0.51833 0.0
H1211 H 0.57189 0.43621 0.53256 0.0
C1212 C 0.63018 0.47197 0.5377 0.0
C1213 C 0.66599 0.47606 0.53752 0.0
C1214 C 0.57515 0.33996 0.52068 0.0
C1215 C 0.6043 0.40959 0.52572 0.0
C1216 C 0.54416 0.30406 0.52305 0.0
C1217 C 0.50934 0.2997 0.52774 0.0
C1218 C 0.57112 0.37153 0.52323 0.0
C1219 C 0.50564 0.33161 0.52824 0.0
C1220 C 0.59943 0.43914 0.5316 0.0
C1221 C 0.67039 0.44738 0.53021 0.0
N1222 N 0.53624 0.36616 0.52636 0.0
N1223 N 0.63975 0.41493 0.52493 0.0
H1224 H 0.71356 0.15894 0.52854 0.0
H1225 H 0.57872 0.24487 0.53022 0.0
H1226 H 0.75267 0.27704 0.52712 0.0
H1227 H 0.54486 0.12986 0.54107 0.0
H1228 H 0.63967 0.25516 0.52018 0.0
H1229 H 0.6497 0.14618 0.52327 0.0
C1230 C 0.70887 0.18219 0.52622 0.0
C1231 C 0.7383 0.21906 0.52804 0.0
C1232 C 0.61862 0.22747 0.52442 0.0
C1233 C 0.66522 0.20488 0.523 0.0
C1234 C 0.58379 0.22158 0.53006 0.0
C1235 C 0.55696 0.18659 0.53666 0.0
C1236 C 0.6265 0.19807 0.52533 0.0
C1237 C 0.56509 0.15741 0.53636 0.0
C1238 C 0.67235 0.17495 0.52351 0.0
C1239 C 0.73072 0.24825 0.52551 0.0
N1240 N 0.5992 0.16388 0.53098 0.0
N1241 N 0.69476 0.24057 0.52347 0.0
H1242 H 0.90109 0.53601 0.1495 0.0
H1243 H 0.68017 0.44945 0.14748 0.0
H1244 H 0.82199 0.41794 0.15128 0.0
H1245 H 0.76109 0.56504 0.13744 0.0
H1246 H 0.7309 0.43936 0.15751 0.0
H1247 H 0.84999 0.54877 0.1547 0.0
C1248 C 0.87317 0.51278 0.15193 0.0
C1249 C 0.86569 0.47589 0.1502 0.0
C1250 C 0.73748 0.4671 0.15342 0.0
C1251 C 0.80676 0.49006 0.15513 0.0
C1252 C 0.70848 0.47289 0.14778 0.0
C1253 C 0.71651 0.508 0.14141 0.0
C1254 C 0.77474 0.49671 0.15273 0.0
C1255 C 0.7538 0.53736 0.14193 0.0
C1256 C 0.84386 0.52001 0.15457 0.0
C1257 C 0.82889 0.44674 0.15283 0.0
N1258 N 0.78153 0.53098 0.14729 0.0
N1259 N 0.80061 0.45439 0.1548 0.0
H1260 H 0.46728 0.19787 0.13481 0.0
H1261 H 0.61393 0.40965 0.15378 0.0
H1262 H 0.58338 0.23702 0.14612 0.0
H1263 H 0.49586 0.36683 0.14683 0.0
H1264 H 0.60171 0.34567 0.15793 0.0
H1265 H 0.47512 0.25728 0.1452 0.0
C1266 C 0.49436 0.21893 0.13971 0.0
C1267 C 0.52484 0.21277 0.13941 0.0
C1268 C 0.57826 0.35025 0.15615 0.0
C1269 C 0.53436 0.28126 0.15116 0.0
C1270 C 0.58524 0.3869 0.15407 0.0
C1271 C 0.55581 0.39345 0.15015 0.0
C1272 C 0.54162 0.32006 0.15397 0.0
C1273 C 0.51923 0.36289 0.15007 0.0
C1274 C 0.49885 0.25283 0.14572 0.0
C1275 C 0.55921 0.24071 0.14615 0.0
N1276 N 0.51322 0.32749 0.15157 0.0
N1277 N 0.56325 0.27405 0.15144 0.0
H1278 H 0.62329 0.20944 0.15253 0.0
H1279 H 0.8358 0.27381 0.13654 0.0
H1280 H 0.66632 0.13391 0.14841 0.0
H1281 H 0.79627 0.35109 0.1457 0.0
H1282 H 0.77598 0.22269 0.14695 0.0
H1283 H 0.68711 0.26138 0.15707 0.0
C1284 C 0.646 0.20351 0.15355 0.0
C1285 C 0.63962 0.16739 0.15029 0.0
C1286 C 0.78044 0.25087 0.147 0.0
C1287 C 0.71286 0.22674 0.15452 0.0
C1288 C 0.81457 0.28 0.14098 0.0
C1289 C 0.82075 0.31659 0.14007 0.0
C1290 C 0.75182 0.25816 0.15182 0.0
C1291 C 0.79259 0.32328 0.14622 0.0
C1292 C 0.68257 0.23327 0.15584 0.0
C1293 C 0.67013 0.16136 0.15112 0.0
N1294 N 0.75905 0.29423 0.15152 0.0
N1295 N 0.70549 0.19082 0.15279 0.0
H1296 H 0.42525 0.81639 0.86013 0.0
H1297 H 0.57414 0.75282 0.87649 0.0
H1298 H 0.54361 0.89225 0.86558 0.0
H1299 H 0.4574 0.67514 0.86699 0.0
H1300 H 0.5652 0.80392 0.86637 0.0
H1301 H 0.4376 0.76476 0.85568 0.0
C1302 C 0.45397 0.82245 0.85946 0.0
C1303 C 0.48352 0.85858 0.863 0.0
C1304 C 0.54155 0.77567 0.86619 0.0
C1305 C 0.49789 0.7996 0.85883 0.0
C1306 C 0.54669 0.74655 0.87203 0.0
C1307 C 0.51636 0.70986 0.87277 0.0
C1308 C 0.50558 0.76827 0.86136 0.0
C1309 C 0.48146 0.70306 0.86661 0.0
C1310 C 0.46104 0.79289 0.85721 0.0
C1311 C 0.52015 0.8648 0.86263 0.0
N1312 N 0.47682 0.7321 0.86148 0.0
N1313 N 0.52628 0.83553 0.86095 0.0
H1314 H 0.27969 0.82903 0.87388 0.0
H1315 H 0.21689 0.61633 0.85932 0.0
H1316 H 0.35766 0.7898 0.86599 0.0
H1317 H 0.14058 0.65841 0.86378 0.0
H1318 H 0.26846 0.68026 0.85463 0.0
H1319 H 0.22884 0.76867 0.86391 0.0
C1320 C 0.28609 0.80774 0.86982 0.0
C1321 C 0.32279 0.81417 0.87097 0.0
C1322 C 0.24026 0.67548 0.85599 0.0
C1323 C 0.26466 0.74464 0.85971 0.0
C1324 C 0.21072 0.63886 0.85838 0.0
C1325 C 0.17448 0.63219 0.86171 0.0
C1326 C 0.2334 0.70553 0.85729 0.0
C1327 C 0.16812 0.66246 0.861 0.0
C1328 C 0.25711 0.7733 0.86405 0.0
C1329 C 0.32975 0.78592 0.86529 0.0
N1330 N 0.19738 0.69788 0.8592 0.0
N1331 N 0.30084 0.7521 0.86021 0.0
H1332 H 0.41818 0.60736 0.86081 0.0
H1333 H 0.2039 0.45862 0.87372 0.0
H1334 H 0.37444 0.4888 0.86566 0.0
H1335 H 0.24472 0.57624 0.86639 0.0
H1336 H 0.26451 0.46783 0.86432 0.0
H1337 H 0.35455 0.59573 0.85568 0.0
C1338 C 0.39537 0.57878 0.85988 0.0
C1339 C 0.40147 0.54894 0.86344 0.0
C1340 C 0.26021 0.49165 0.86447 0.0
C1341 C 0.32849 0.53536 0.85845 0.0
C1342 C 0.22561 0.48635 0.86989 0.0
C1343 C 0.21953 0.51679 0.87103 0.0
C1344 C 0.28939 0.52787 0.86048 0.0
C1345 C 0.24834 0.55207 0.86568 0.0
C1346 C 0.35893 0.57211 0.85723 0.0
C1347 C 0.37085 0.51249 0.86272 0.0
N1348 N 0.2823 0.55681 0.86095 0.0
N1349 N 0.33563 0.50674 0.86062 0.0
H1350 H 0.49955 0.76047 0.48782 0.0
H1351 H 0.43079 0.90553 0.46928 0.0
H1352 H 0.5724 0.87781 0.47762 0.0
H1353 H 0.35536 0.78801 0.47795 0.0
H1354 H 0.48279 0.89806 0.4794 0.0
H1355 H 0.4472 0.77204 0.49189 0.0
C1356 C 0.5049 0.78894 0.48727 0.0
C1357 C 0.54029 0.81832 0.48245 0.0
C1358 C 0.45485 0.8739 0.47937 0.0
C1359 C 0.4805 0.83161 0.48645 0.0
C1360 C 0.42519 0.87819 0.47354 0.0
C1361 C 0.38888 0.84725 0.47254 0.0
C1362 C 0.4484 0.83818 0.48397 0.0
C1363 C 0.38297 0.81254 0.4785 0.0
C1364 C 0.47489 0.79549 0.48935 0.0
C1365 C 0.54554 0.85451 0.48148 0.0
N1366 N 0.41256 0.80876 0.48365 0.0
N1367 N 0.51589 0.86005 0.48316 0.0
H1368 H 0.25089 0.56679 0.47942 0.0
H1369 H 0.16863 0.70525 0.47913 0.0
H1370 H 0.14122 0.53908 0.46114 0.0
H1371 H 0.28624 0.7423 0.4827 0.0
H1372 H 0.1544 0.64061 0.48318 0.0
H1373 H 0.26011 0.62681 0.49021 0.0
C1374 C 0.22849 0.57299 0.47799 0.0
C1375 C 0.19557 0.54828 0.46904 0.0
C1376 C 0.18331 0.66295 0.48373 0.0
C1377 C 0.20567 0.61657 0.48148 0.0
C1378 C 0.19137 0.69991 0.48174 0.0
C1379 C 0.22862 0.72906 0.48083 0.0
C1380 C 0.21279 0.65517 0.48455 0.0
C1381 C 0.25716 0.72058 0.48363 0.0
C1382 C 0.23377 0.60726 0.48412 0.0
C1383 C 0.16735 0.5577 0.46761 0.0
N1384 N 0.24872 0.68429 0.48503 0.0
N1385 N 0.17316 0.59117 0.4736 0.0
H1386 H 0.46283 0.68713 0.46549 0.0
H1387 H 0.33323 0.46979 0.48339 0.0
H1388 H 0.50504 0.61429 0.48057 0.0
H1389 H 0.29097 0.54379 0.47174 0.0
H1390 H 0.39556 0.52421 0.48808 0.0
H1391 H 0.3996 0.63741 0.47258 0.0
C1392 C 0.459 0.66091 0.47044 0.0
C1393 C 0.48949 0.65485 0.47208 0.0
C1394 C 0.37244 0.5287 0.48511 0.0
C1395 C 0.41679 0.59746 0.48016 0.0
C1396 C 0.33677 0.49761 0.48272 0.0
C1397 C 0.3069 0.50253 0.47765 0.0
C1398 C 0.37829 0.56483 0.48193 0.0
C1399 C 0.3131 0.53902 0.47621 0.0
C1400 C 0.42276 0.63242 0.47449 0.0
C1401 C 0.48247 0.62006 0.47858 0.0
N1402 N 0.34824 0.56881 0.47802 0.0
N1403 N 0.44692 0.59264 0.48219 0.0
loop_
_geom_bond_atom_site_label_1
_geom_bond_atom_site_label_2
_geom_bond_distance
_geom_bond_site_symmetry_2
_ccdc_geom_bond_type
C0 C1 1.351 . S
C0 N3 1.368 . S
C0 H5 0.931 . S
C1 C0 1.351 . S
C1 N2 1.373 . S
C1 H29 0.930 . S
N2 C1 1.373 . S
N2 C4 1.340 . S
N3 C0 1.368 . S
N3 C4 1.321 . S
N3 Co6 2.135 . S
C4 N2 1.340 . S
C4 N3 1.321 . S
C4 H28 0.930 . S
H5 C0 0.931 . S
Co6 N3 2.135 . S
Co6 N9 2.121 . S
Co6 O14 2.055 . S
Co6 O17 2.039 . S
Co6 N20 2.140 . S
C7 O8 1.227 . S
C7 O17 1.265 . S
O8 C7 1.227 . S
N9 Co6 2.121 . S
N9 C11 1.375 . S
N9 C12 1.313 . S
C10 C11 1.338 1_655 S
C10 N13 1.377 . S
C10 H30 0.930 . S
C11 N9 1.375 . S
C11 C10 1.338 1_455 S
C11 H15 0.931 . S
C12 N9 1.313 . S
C12 N13 1.344 1_455 S
C12 H16 0.930 . S
N13 C10 1.377 . S
N13 C12 1.344 1_655 S
O14 Co6 2.055 . S
O14 C18 1.253 . S
H15 C11 0.931 . S
H16 C12 0.930 . S
O17 Co6 2.039 . S
O17 C7 1.265 . S
C18 O14 1.253 . S
C18 O19 1.227 . S
O19 C18 1.227 . S
N20 Co6 2.140 . S
N20 C23 1.346 . S
N20 C24 1.345 . S
C21 C22 1.387 . S
C21 C25 1.391 . S
C22 C21 1.387 . S
C22 C23 1.369 . S
C22 H31 0.929 . S
C23 N20 1.346 . S
C23 C22 1.369 . S
C23 H26 0.928 . S
C24 N20 1.345 . S
C24 C25 1.371 . S
C24 H27 0.931 . S
C25 C21 1.391 . S
C25 C24 1.371 . S
C25 H32 0.930 . S
H26 C23 0.928 . S
H27 C24 0.931 . S
H28 C4 0.930 . S
H29 C1 0.930 . S
H30 C10 0.930 . S
H31 C22 0.929 . S
H32 C25 0.930 . S
C33 C34 1.351 . S
C33 N36 1.368 . S
C33 H38 0.931 . S
C34 C33 1.351 . S
C34 N35 1.373 . S
C34 H62 0.930 . S
N35 C34 1.373 . S
N35 C37 1.340 . S
N36 C33 1.368 . S
N36 C37 1.321 . S
N36 Co39 2.135 . S
C37 N35 1.340 . S
C37 N36 1.321 . S
C37 H61 0.930 . S
H38 C33 0.931 . S
Co39 N36 2.135 . S
Co39 N42 2.121 . S
Co39 O47 2.055 . S
Co39 O50 2.039 . S
Co39 N53 2.140 . S
C40 O41 1.227 . S
C40 O50 1.265 . S
O41 C40 1.227 . S
N42 Co39 2.121 . S
N42 C44 1.375 . S
N42 C45 1.313 . S
C43 C44 1.338 . S
C43 N46 1.377 . S
C43 H63 0.930 . S
C44 N42 1.375 . S
C44 C43 1.338 . S
C44 H48 0.931 . S
C45 N42 1.313 . S
C45 N46 1.344 . S
C45 H49 0.930 . S
N46 C43 1.377 . S
N46 C45 1.344 . S
O47 Co39 2.055 . S
O47 C51 1.253 . S
H48 C44 0.931 . S
H49 C45 0.930 . S
O50 Co39 2.039 . S
O50 C40 1.265 . S
C51 O47 1.253 . S
C51 O52 1.227 . S
O52 C51 1.227 . S
N53 Co39 2.140 . S
N53 C56 1.346 . S
N53 C57 1.345 . S
C54 C55 1.387 . S
C54 C58 1.391 . S
C55 C54 1.387 . S
C55 C56 1.369 . S
C55 H64 0.929 . S
C56 N53 1.346 . S
C56 C55 1.369 . S
C56 H59 0.928 . S
C57 N53 1.345 . S
C57 C58 1.371 . S
C57 H60 0.931 . S
C58 C54 1.391 . S
C58 C57 1.371 . S
C58 H65 0.930 . S
H59 C56 0.928 . S
H60 C57 0.931 . S
H61 C37 0.930 . S
H62 C34 0.930 . S
H63 C43 0.930 . S
H64 C55 0.929 . S
H65 C58 0.930 . S
C66 C67 1.351 . S
C66 N69 1.368 . S
C66 H71 0.931 . S
C67 C66 1.351 . S
C67 N68 1.373 . S
C67 H95 0.930 . S
N68 C67 1.373 . S
N68 C70 1.340 . S
N69 C66 1.368 . S
N69 C70 1.321 . S
N69 Co72 2.135 . S
C70 N68 1.340 . S
C70 N69 1.321 . S
C70 H94 0.930 . S
H71 C66 0.931 . S
Co72 N69 2.135 . S
Co72 N75 2.121 . S
Co72 O80 2.055 . S
Co72 O83 2.039 . S
Co72 N86 2.140 . S
C73 O74 1.227 . S
C73 O83 1.265 . S
O74 C73 1.227 . S
N75 Co72 2.121 . S
N75 C77 1.375 . S
N75 C78 1.313 . S
C76 C77 1.338 1_545 S
C76 N79 1.377 1_545 S
C76 H96 0.930 . S
C77 N75 1.375 . S
C77 C76 1.338 1_565 S
C77 H81 0.931 . S
C78 N75 1.313 . S
C78 N79 1.344 . S
C78 H82 0.930 . S
N79 C76 1.377 1_565 S
N79 C78 1.344 . S
O80 Co72 2.055 . S
O80 C84 1.253 . S
H81 C77 0.931 . S
H82 C78 0.930 . S
O83 Co72 2.039 . S
O83 C73 1.265 . S
C84 O80 1.253 . S
C84 O85 1.227 . S
O85 C84 1.227 . S
N86 Co72 2.140 . S
N86 C89 1.346 . S
N86 C90 1.345 . S
C87 C88 1.387 . S
C87 C91 1.391 . S
C88 C87 1.387 . S
C88 C89 1.369 . S
C88 H97 0.929 . S
C89 N86 1.346 . S
C89 C88 1.369 . S
C89 H92 0.928 . S
C90 N86 1.345 . S
C90 C91 1.371 . S
C90 H93 0.931 . S
C91 C87 1.391 . S
C91 C90 1.371 . S
C91 H98 0.930 . S
H92 C89 0.928 . S
H93 C90 0.931 . S
H94 C70 0.930 . S
H95 C67 0.930 . S
H96 C76 0.930 . S
H97 C88 0.929 . S
H98 C91 0.930 . S
C99 C100 1.351 . S
C99 N102 1.368 . S
C99 H104 0.931 . S
C100 C99 1.351 . S
C100 N101 1.373 . S
C100 H128 0.930 . S
N101 C100 1.373 . S
N101 C103 1.340 . S
N102 C99 1.368 . S
N102 C103 1.321 . S
N102 Co105 2.135 . S
C103 N101 1.340 . S
C103 N102 1.321 . S
C103 H127 0.930 . S
H104 C99 0.931 . S
Co105 N102 2.135 . S
Co105 N108 2.121 . S
Co105 O113 2.055 . S
Co105 O116 2.039 . S
Co105 N119 2.140 . S
C106 O107 1.227 . S
C106 O116 1.265 . S
O107 C106 1.227 . S
N108 Co105 2.121 . S
N108 C110 1.375 . S
N108 C111 1.313 . S
C109 C110 1.338 1_565 S
C109 N112 1.377 . S
C109 H129 0.930 . S
C110 N108 1.375 . S
C110 C109 1.338 1_545 S
C110 H114 0.931 . S
C111 N108 1.313 . S
C111 N112 1.344 1_545 S
C111 H115 0.930 . S
N112 C109 1.377 . S
N112 C111 1.344 1_565 S
O113 Co105 2.055 . S
O113 C117 1.253 . S
H114 C110 0.931 . S
H115 C111 0.930 . S
O116 Co105 2.039 . S
O116 C106 1.265 . S
C117 O113 1.253 . S
C117 O118 1.227 . S
O118 C117 1.227 . S
N119 Co105 2.140 . S
N119 C122 1.346 . S
N119 C123 1.345 . S
C120 C121 1.387 . S
C120 C124 1.391 . S
C121 C120 1.387 . S
C121 C122 1.369 . S
C121 H130 0.929 . S
C122 N119 1.346 . S
C122 C121 1.369 . S
C122 H125 0.928 . S
C123 N119 1.345 . S
C123 C124 1.371 . S
C123 H126 0.931 . S
C124 C120 1.391 . S
C124 C123 1.371 . S
C124 H131 0.930 . S
H125 C122 0.928 . S
H126 C123 0.931 . S
H127 C103 0.930 . S
H128 C100 0.930 . S
H129 C109 0.930 . S
H130 C121 0.929 . S
H131 C124 0.930 . S
C132 C133 1.351 . S
C132 N135 1.368 . S
C132 H137 0.931 . S
C133 C132 1.351 . S
C133 N134 1.373 . S
C133 H161 0.930 . S
N134 C133 1.373 . S
N134 C136 1.340 . S
N135 C132 1.368 . S
N135 C136 1.321 . S
N135 Co138 2.135 . S
C136 N134 1.340 . S
C136 N135 1.321 . S
C136 H160 0.930 . S
H137 C132 0.931 . S
Co138 N135 2.135 . S
Co138 N141 2.121 . S
Co138 O146 2.055 . S
Co138 O149 2.039 . S
Co138 N152 2.140 . S
C139 O140 1.227 . S
C139 O149 1.265 . S
O140 C139 1.227 . S
N141 Co138 2.121 . S
N141 C143 1.375 . S
N141 C144 1.313 . S
C142 C143 1.338 1_455 S
C142 N145 1.377 1_455 S
C142 H162 0.930 . S
C143 N141 1.375 . S
C143 C142 1.338 1_655 S
C143 H147 0.931 . S
C144 N141 1.313 . S
C144 N145 1.344 . S
C144 H148 0.930 . S
N145 C142 1.377 1_655 S
N145 C144 1.344 . S
O146 Co138 2.055 . S
O146 C150 1.253 . S
H147 C143 0.931 . S
H148 C144 0.930 . S
O149 Co138 2.039 . S
O149 C139 1.265 . S
C150 O146 1.253 . S
C150 O151 1.227 . S
O151 C150 1.227 . S
N152 Co138 2.140 . S
N152 C155 1.346 . S
N152 C156 1.345 . S
C153 C154 1.387 . S
C153 C157 1.391 . S
C154 C153 1.387 . S
C154 C155 1.369 . S
C154 H163 0.929 . S
C155 N152 1.346 . S
C155 C154 1.369 . S
C155 H158 0.928 . S
C156 N152 1.345 . S
C156 C157 1.371 . S
C156 H159 0.931 . S
C157 C153 1.391 . S
C157 C156 1.371 . S
C157 H164 0.930 . S
H158 C155 0.928 . S
H159 C156 0.931 . S
H160 C136 0.930 . S
H161 C133 0.930 . S
H162 C142 0.930 . S
H163 C154 0.929 . S
H164 C157 0.930 . S
C165 C166 1.351 . S
C165 N168 1.368 . S
C165 H170 0.931 . S
C166 C165 1.351 . S
C166 N167 1.373 . S
C166 H194 0.930 . S
N167 C166 1.373 . S
N167 C169 1.340 . S
N168 C165 1.368 . S
N168 C169 1.321 . S
N168 Co171 2.135 . S
C169 N167 1.340 . S
C169 N168 1.321 . S
C169 H193 0.930 . S
H170 C165 0.931 . S
Co171 N168 2.135 . S
Co171 N174 2.121 . S
Co171 O179 2.055 . S
Co171 O182 2.039 . S
Co171 N185 2.140 . S
C172 O173 1.227 . S
C172 O182 1.265 . S
O173 C172 1.227 . S
N174 Co171 2.121 . S
N174 C176 1.375 . S
N174 C177 1.313 . S
C175 C176 1.338 . S
C175 N178 1.377 . S
C175 H195 0.930 . S
C176 N174 1.375 . S
C176 C175 1.338 . S
C176 H180 0.931 . S
C177 N174 1.313 . S
C177 N178 1.344 . S
C177 H181 0.930 . S
N178 C175 1.377 . S
N178 C177 1.344 . S
O179 Co171 2.055 . S
O179 C183 1.253 . S
H180 C176 0.931 . S
H181 C177 0.930 . S
O182 Co171 2.039 . S
O182 C172 1.265 . S
C183 O179 1.253 . S
C183 O184 1.227 . S
O184 C183 1.227 . S
N185 Co171 2.140 . S
N185 C188 1.346 . S
N185 C189 1.345 . S
C186 C187 1.387 . S
C186 C190 1.391 . S
C187 C186 1.387 . S
C187 C188 1.369 . S
C187 H196 0.929 . S
C188 N185 1.346 . S
C188 C187 1.369 . S
C188 H191 0.928 . S
C189 N185 1.345 . S
C189 C190 1.371 . S
C189 H192 0.931 . S
C190 C186 1.391 . S
C190 C189 1.371 . S
C190 H197 0.930 . S
H191 C188 0.928 . S
H192 C189 0.931 . S
H193 C169 0.930 . S
H194 C166 0.930 . S
H195 C175 0.930 . S
H196 C187 0.929 . S
H197 C190 0.930 . S
C198 C199 1.351 . S
C198 N201 1.368 . S
C198 H203 0.931 . S
C199 C198 1.351 . S
C199 N200 1.373 . S
C199 H227 0.930 . S
N200 C199 1.373 . S
N200 C202 1.340 . S
N201 C198 1.368 . S
N201 C202 1.321 . S
N201 Co204 2.135 . S
C202 N200 1.340 . S
C202 N201 1.321 . S
C202 H226 0.930 . S
H203 C198 0.931 . S
Co204 N201 2.135 . S
Co204 N207 2.121 . S
Co204 O212 2.055 . S
Co204 O215 2.039 . S
Co204 N218 2.140 . S
C205 O206 1.227 . S
C205 O215 1.265 . S
O206 C205 1.227 . S
N207 Co204 2.121 . S
N207 C209 1.375 . S
N207 C210 1.313 . S
C208 C209 1.338 . S
C208 N211 1.377 . S
C208 H228 0.930 . S
C209 N207 1.375 . S
C209 C208 1.338 . S
C209 H213 0.931 . S
C210 N207 1.313 . S
C210 N211 1.344 . S
C210 H214 0.930 . S
N211 C208 1.377 . S
N211 C210 1.344 . S
O212 Co204 2.055 . S
O212 C216 1.253 . S
H213 C209 0.931 . S
H214 C210 0.930 . S
O215 Co204 2.039 . S
O215 C205 1.265 . S
C216 O212 1.253 . S
C216 O217 1.227 . S
O217 C216 1.227 . S
N218 Co204 2.140 . S
N218 C221 1.346 . S
N218 C222 1.345 . S
C219 C220 1.387 . S
C219 C223 1.391 . S
C220 C219 1.387 . S
C220 C221 1.369 . S
C220 H229 0.929 . S
C221 N218 1.346 . S
C221 C220 1.369 . S
C221 H224 0.928 . S
C222 N218 1.345 . S
C222 C223 1.371 . S
C222 H225 0.931 . S
C223 C219 1.391 . S
C223 C222 1.371 . S
C223 H230 0.930 . S
H224 C221 0.928 . S
H225 C222 0.931 . S
H226 C202 0.930 . S
H227 C199 0.930 . S
H228 C208 0.930 . S
H229 C220 0.929 . S
H230 C223 0.930 . S
C231 C232 1.351 . S
C231 N234 1.368 . S
C231 H236 0.931 . S
C232 C231 1.351 . S
C232 N233 1.373 . S
C232 H260 0.930 . S
N233 C232 1.373 . S
N233 C235 1.340 . S
N234 C231 1.368 . S
N234 C235 1.321 . S
N234 Co237 2.135 . S
C235 N233 1.340 . S
C235 N234 1.321 . S
C235 H259 0.930 . S
H236 C231 0.931 . S
Co237 N234 2.135 . S
Co237 N240 2.121 . S
Co237 O245 2.055 . S
Co237 O248 2.039 . S
Co237 N251 2.140 . S
C238 O239 1.227 . S
C238 O248 1.265 . S
O239 C238 1.227 . S
N240 Co237 2.121 . S
N240 C242 1.375 . S
N240 C243 1.313 . S
C241 C242 1.338 . S
C241 N244 1.377 . S
C241 H261 0.930 . S
C242 N240 1.375 . S
C242 C241 1.338 . S
C242 H246 0.931 . S
C243 N240 1.313 . S
C243 N244 1.344 . S
C243 H247 0.930 . S
N244 C241 1.377 . S
N244 C243 1.344 . S
O245 Co237 2.055 . S
O245 C249 1.253 . S
H246 C242 0.931 . S
H247 C243 0.930 . S
O248 Co237 2.039 . S
O248 C238 1.265 . S
C249 O245 1.253 . S
C249 O250 1.227 . S
O250 C249 1.227 . S
N251 Co237 2.140 . S
N251 C254 1.346 . S
N251 C255 1.345 . S
C252 C253 1.387 . S
C252 C256 1.391 . S
C253 C252 1.387 . S
C253 C254 1.369 . S
C253 H262 0.929 . S
C254 N251 1.346 . S
C254 C253 1.369 . S
C254 H257 0.928 . S
C255 N251 1.345 . S
C255 C256 1.371 . S
C255 H258 0.931 . S
C256 C252 1.391 . S
C256 C255 1.371 . S
C256 H263 0.930 . S
H257 C254 0.928 . S
H258 C255 0.931 . S
H259 C235 0.930 . S
H260 C232 0.930 . S
H261 C241 0.930 . S
H262 C253 0.929 . S
H263 C256 0.930 . S
C264 C265 1.351 . S
C264 N267 1.368 . S
C264 H269 0.931 . S
C265 C264 1.351 . S
C265 N266 1.373 . S
C265 H293 0.930 . S
N266 C265 1.373 . S
N266 C268 1.340 . S
N267 C264 1.368 . S
N267 C268 1.321 . S
N267 Co270 2.135 . S
C268 N266 1.340 . S
C268 N267 1.321 . S
C268 H292 0.930 . S
H269 C264 0.931 . S
Co270 N267 2.135 . S
Co270 N273 2.121 . S
Co270 O278 2.055 . S
Co270 O281 2.039 . S
Co270 N284 2.140 . S
C271 O272 1.227 . S
C271 O281 1.265 . S
O272 C271 1.227 . S
N273 Co270 2.121 . S
N273 C275 1.375 . S
N273 C276 1.313 . S
C274 C275 1.338 . S
C274 N277 1.377 . S
C274 H294 0.930 . S
C275 N273 1.375 . S
C275 C274 1.338 . S
C275 H279 0.931 . S
C276 N273 1.313 . S
C276 N277 1.344 . S
C276 H280 0.930 . S
N277 C274 1.377 . S
N277 C276 1.344 . S
O278 Co270 2.055 . S
O278 C282 1.253 . S
H279 C275 0.931 . S
H280 C276 0.930 . S
O281 Co270 2.039 . S
O281 C271 1.265 . S
C282 O278 1.253 . S
C282 O283 1.227 . S
O283 C282 1.227 . S
N284 Co270 2.140 . S
N284 C287 1.346 . S
N284 C288 1.345 . S
C285 C286 1.387 . S
C285 C289 1.391 . S
C286 C285 1.387 . S
C286 C287 1.369 . S
C286 H295 0.929 . S
C287 N284 1.346 . S
C287 C286 1.369 . S
C287 H290 0.928 . S
C288 N284 1.345 . S
C288 C289 1.371 . S
C288 H291 0.931 . S
C289 C285 1.391 . S
C289 C288 1.371 . S
C289 H296 0.930 . S
H290 C287 0.928 . S
H291 C288 0.931 . S
H292 C268 0.930 . S
H293 C265 0.930 . S
H294 C274 0.930 . S
H295 C286 0.929 . S
H296 C289 0.930 . S
C297 C298 1.351 . S
C297 N300 1.368 . S
C297 H302 0.931 . S
C298 C297 1.351 . S
C298 N299 1.373 . S
C298 H326 0.930 . S
N299 C298 1.373 . S
N299 C301 1.340 . S
N300 C297 1.368 . S
N300 C301 1.321 . S
N300 Co303 2.135 . S
C301 N299 1.340 . S
C301 N300 1.321 . S
C301 H325 0.930 . S
H302 C297 0.931 . S
Co303 N300 2.135 . S
Co303 N306 2.121 . S
Co303 O311 2.055 . S
Co303 O314 2.039 . S
Co303 N317 2.140 . S
C304 O305 1.227 . S
C304 O314 1.265 . S
O305 C304 1.227 . S
N306 Co303 2.121 . S
N306 C308 1.375 . S
N306 C309 1.313 . S
C307 C308 1.338 . S
C307 N310 1.377 . S
C307 H327 0.930 . S
C308 N306 1.375 . S
C308 C307 1.338 . S
C308 H312 0.931 . S
C309 N306 1.313 . S
C309 N310 1.344 . S
C309 H313 0.930 . S
N310 C307 1.377 . S
N310 C309 1.344 . S
O311 Co303 2.055 . S
O311 C315 1.253 . S
H312 C308 0.931 . S
H313 C309 0.930 . S
O314 Co303 2.039 . S
O314 C304 1.265 . S
C315 O311 1.253 . S
C315 O316 1.227 . S
O316 C315 1.227 . S
N317 Co303 2.140 . S
N317 C320 1.346 . S
N317 C321 1.345 . S
C318 C319 1.387 . S
C318 C322 1.391 . S
C319 C318 1.387 . S
C319 C320 1.369 . S
C319 H328 0.929 1_655 S
C320 N317 1.346 . S
C320 C319 1.369 . S
C320 H323 0.928 . S
C321 N317 1.345 . S
C321 C322 1.371 . S
C321 H324 0.931 . S
C322 C318 1.391 . S
C322 C321 1.371 . S
C322 H329 0.930 . S
H323 C320 0.928 . S
H324 C321 0.931 . S
H325 C301 0.930 . S
H326 C298 0.930 . S
H327 C307 0.930 . S
H328 C319 0.929 1_455 S
H329 C322 0.930 . S
C330 C331 1.351 . S
C330 N333 1.368 . S
C330 H335 0.931 . S
C331 C330 1.351 . S
C331 N332 1.373 . S
C331 H359 0.930 . S
N332 C331 1.373 . S
N332 C334 1.340 . S
N333 C330 1.368 . S
N333 C334 1.321 . S
N333 Co336 2.135 . S
C334 N332 1.340 . S
C334 N333 1.321 . S
C334 H358 0.930 . S
H335 C330 0.931 . S
Co336 N333 2.135 . S
Co336 N339 2.121 . S
Co336 O344 2.055 . S
Co336 O347 2.039 . S
Co336 N350 2.140 . S
C337 O338 1.227 . S
C337 O347 1.265 . S
O338 C337 1.227 . S
N339 Co336 2.121 . S
N339 C341 1.375 . S
N339 C342 1.313 . S
C340 C341 1.338 . S
C340 N343 1.377 . S
C340 H360 0.930 . S
C341 N339 1.375 . S
C341 C340 1.338 . S
C341 H345 0.931 . S
C342 N339 1.313 . S
C342 N343 1.344 . S
C342 H346 0.930 . S
N343 C340 1.377 . S
N343 C342 1.344 . S
O344 Co336 2.055 . S
O344 C348 1.253 . S
H345 C341 0.931 . S
H346 C342 0.930 . S
O347 Co336 2.039 . S
O347 C337 1.265 . S
C348 O344 1.253 . S
C348 O349 1.227 . S
O349 C348 1.227 . S
N350 Co336 2.140 . S
N350 C353 1.346 . S
N350 C354 1.345 . S
C351 C352 1.387 . S
C351 C355 1.391 . S
C352 C351 1.387 . S
C352 C353 1.369 . S
C352 H361 0.929 . S
C353 N350 1.346 . S
C353 C352 1.369 . S
C353 H356 0.928 . S
C354 N350 1.345 . S
C354 C355 1.371 . S
C354 H357 0.931 . S
C355 C351 1.391 . S
C355 C354 1.371 . S
C355 H362 0.930 . S
H356 C353 0.928 . S
H357 C354 0.931 . S
H358 C334 0.930 . S
H359 C331 0.930 . S
H360 C340 0.930 . S
H361 C352 0.929 . S
H362 C355 0.930 . S
C363 C364 1.351 . S
C363 N366 1.368 . S
C363 H368 0.931 . S
C364 C363 1.351 . S
C364 N365 1.366 1_545 S
C364 H392 0.930 . S
N365 C364 1.366 1_565 S
N365 C367 1.313 1_565 S
N366 C363 1.368 . S
N366 C367 1.321 . S
N366 Co369 2.135 . S
C367 N365 1.313 1_545 S
C367 N366 1.321 . S
C367 H391 0.930 . S
H368 C363 0.931 . S
Co369 N366 2.135 . S
Co369 N372 2.121 . S
Co369 O377 2.055 . S
Co369 O380 2.039 . S
Co369 N383 2.140 . S
C370 O371 1.227 . S
C370 O380 1.265 . S
O371 C370 1.227 . S
N372 Co369 2.121 . S
N372 C374 1.375 . S
N372 C375 1.313 . S
C373 C374 1.338 . S
C373 N376 1.377 . S
C373 H393 0.930 . S
C374 N372 1.375 . S
C374 C373 1.338 . S
C374 H378 0.931 . S
C375 N372 1.313 . S
C375 N376 1.344 . S
C375 H379 0.930 . S
N376 C373 1.377 . S
N376 C375 1.344 . S
O377 Co369 2.055 . S
O377 C381 1.253 . S
H378 C374 0.931 . S
H379 C375 0.930 . S
O380 Co369 2.039 . S
O380 C370 1.265 . S
C381 O377 1.253 . S
C381 O382 1.227 . S
O382 C381 1.227 . S
N383 Co369 2.140 . S
N383 C386 1.346 . S
N383 C387 1.345 . S
C384 C385 1.387 . S
C384 C388 1.391 . S
C385 C384 1.387 . S
C385 C386 1.369 . S
C385 H394 0.929 1_545 S
C386 N383 1.346 . S
C386 C385 1.369 . S
C386 H389 0.928 . S
C387 N383 1.345 . S
C387 C388 1.371 . S
C387 H390 0.931 . S
C388 C384 1.391 . S
C388 C387 1.371 . S
C388 H395 0.930 . S
H389 C386 0.928 . S
H390 C387 0.931 . S
H391 C367 0.930 . S
H392 C364 0.930 . S
H393 C373 0.930 . S
H394 C385 0.929 1_565 S
H395 C388 0.930 . S
C396 C397 1.351 . S
C396 N399 1.368 . S
C396 H401 0.931 . S
C397 C396 1.351 . S
C397 N398 1.373 . S
C397 H425 0.930 . S
N398 C397 1.373 . S
N398 C400 1.340 . S
N399 C396 1.368 . S
N399 C400 1.321 . S
N399 Co402 2.135 . S
C400 N398 1.340 . S
C400 N399 1.321 . S
C400 H424 0.930 . S
H401 C396 0.931 . S
Co402 N399 2.135 . S
Co402 N405 2.121 . S
Co402 O410 2.055 . S
Co402 O413 2.039 . S
Co402 N416 2.140 . S
C403 O404 1.227 . S
C403 O413 1.265 . S
O404 C403 1.227 . S
N405 Co402 2.121 . S
N405 C407 1.375 . S
N405 C408 1.313 . S
C406 C407 1.338 . S
C406 N409 1.377 . S
C406 H426 0.930 . S
C407 N405 1.375 . S
C407 C406 1.338 . S
C407 H411 0.931 . S
C408 N405 1.313 . S
C408 N409 1.344 . S
C408 H412 0.930 . S
N409 C406 1.377 . S
N409 C408 1.344 . S
O410 Co402 2.055 . S
O410 C414 1.253 . S
H411 C407 0.931 . S
H412 C408 0.930 . S
O413 Co402 2.039 . S
O413 C403 1.265 . S
C414 O410 1.253 . S
C414 O415 1.227 . S
O415 C414 1.227 . S
N416 Co402 2.140 . S
N416 C419 1.346 . S
N416 C420 1.345 . S
C417 C418 1.387 . S
C417 C421 1.391 . S
C418 C417 1.387 . S
C418 C419 1.369 . S
C418 H427 0.929 1_565 S
C419 N416 1.346 . S
C419 C418 1.369 . S
C419 H422 0.928 . S
C420 N416 1.345 . S
C420 C421 1.371 . S
C420 H423 0.931 . S
C421 C417 1.391 . S
C421 C420 1.371 . S
C421 H428 0.930 . S
H422 C419 0.928 . S
H423 C420 0.931 . S
H424 C400 0.930 . S
H425 C397 0.930 . S
H426 C406 0.930 . S
H427 C418 0.929 1_545 S
H428 C421 0.930 . S
C429 C430 1.351 . S
C429 N432 1.368 . S
C429 H434 0.931 . S
C430 C429 1.351 . S
C430 N431 1.366 1_455 S
C430 H458 0.930 . S
N431 C430 1.366 1_655 S
N431 C433 1.313 1_655 S
N432 C429 1.368 . S
N432 C433 1.321 . S
N432 Co435 2.135 . S
C433 N431 1.313 1_455 S
C433 N432 1.321 . S
C433 H457 0.930 . S
H434 C429 0.931 . S
Co435 N432 2.135 . S
Co435 N438 2.121 . S
Co435 O443 2.055 . S
Co435 O446 2.039 . S
Co435 N449 2.140 . S
C436 O437 1.227 . S
C436 O446 1.265 . S
O437 C436 1.227 . S
N438 Co435 2.121 . S
N438 C440 1.375 . S
N438 C441 1.313 . S
C439 C440 1.338 . S
C439 N442 1.377 . S
C439 H459 0.930 . S
C440 N438 1.375 . S
C440 C439 1.338 . S
C440 H444 0.931 . S
C441 N438 1.313 . S
C441 N442 1.344 . S
C441 H445 0.930 . S
N442 C439 1.377 . S
N442 C441 1.344 . S
O443 Co435 2.055 . S
O443 C447 1.253 . S
H444 C440 0.931 . S
H445 C441 0.930 . S
O446 Co435 2.039 . S
O446 C436 1.265 . S
C447 O443 1.253 . S
C447 O448 1.227 . S
O448 C447 1.227 . S
N449 Co435 2.140 . S
N449 C452 1.346 . S
N449 C453 1.345 . S
C450 C451 1.387 . S
C450 C454 1.391 . S
C451 C450 1.387 . S
C451 C452 1.369 . S
C451 H460 0.929 1_455 S
C452 N449 1.346 . S
C452 C451 1.369 . S
C452 H455 0.928 . S
C453 N449 1.345 . S
C453 C454 1.371 . S
C453 H456 0.931 . S
C454 C450 1.391 . S
C454 C453 1.371 . S
C454 H461 0.930 . S
H455 C452 0.928 . S
H456 C453 0.931 . S
H457 C433 0.930 . S
H458 C430 0.930 . S
H459 C439 0.930 . S
H460 C451 0.929 1_655 S
H461 C454 0.930 . S
C462 C463 1.351 . S
C462 N465 1.368 . S
C462 H467 0.931 . S
C463 C462 1.351 . S
C463 N464 1.373 . S
C463 H491 0.930 . S
N464 C463 1.373 . S
N464 C466 1.340 . S
N465 C462 1.368 . S
N465 C466 1.321 . S
N465 Co468 2.135 . S
C466 N464 1.340 . S
C466 N465 1.321 . S
C466 H490 0.930 . S
H467 C462 0.931 . S
Co468 N465 2.135 . S
Co468 N471 2.121 . S
Co468 O476 2.055 . S
Co468 O479 2.039 . S
Co468 N482 2.140 . S
C469 O470 1.227 . S
C469 O479 1.265 . S
O470 C469 1.227 . S
N471 Co468 2.121 . S
N471 C473 1.375 . S
N471 C474 1.313 . S
C472 C473 1.338 . S
C472 N475 1.377 . S
C472 H492 0.930 . S
C473 N471 1.375 . S
C473 C472 1.338 . S
C473 H477 0.931 . S
C474 N471 1.313 . S
C474 N475 1.344 . S
C474 H478 0.930 . S
N475 C472 1.377 . S
N475 C474 1.344 . S
O476 Co468 2.055 . S
O476 C480 1.253 . S
H477 C473 0.931 . S
H478 C474 0.930 . S
O479 Co468 2.039 . S
O479 C469 1.265 . S
C480 O476 1.253 . S
C480 O481 1.227 . S
O481 C480 1.227 . S
N482 Co468 2.140 . S
N482 C485 1.346 . S
N482 C486 1.345 . S
C483 C484 1.387 . S
C483 C487 1.391 . S
C484 C483 1.387 . S
C484 C485 1.369 . S
C484 H493 0.929 . S
C485 N482 1.346 . S
C485 C484 1.369 . S
C485 H488 0.928 . S
C486 N482 1.345 . S
C486 C487 1.371 . S
C486 H489 0.931 . S
C487 C483 1.391 . S
C487 C486 1.371 . S
C487 H494 0.930 . S
H488 C485 0.928 . S
H489 C486 0.931 . S
H490 C466 0.930 . S
H491 C463 0.930 . S
H492 C472 0.930 . S
H493 C484 0.929 . S
H494 C487 0.930 . S
C495 C496 1.351 . S
C495 N498 1.368 . S
C495 H500 0.931 . S
C496 C495 1.351 . S
C496 N497 1.373 . S
C496 H524 0.930 . S
N497 C496 1.373 . S
N497 C499 1.340 . S
N498 C495 1.368 . S
N498 C499 1.321 . S
N498 Co501 2.135 . S
C499 N497 1.340 . S
C499 N498 1.321 . S
C499 H523 0.930 . S
H500 C495 0.931 . S
Co501 N498 2.135 . S
Co501 N504 2.121 . S
Co501 O509 2.055 . S
Co501 O512 2.039 . S
Co501 N515 2.140 . S
C502 O503 1.227 . S
C502 O512 1.265 . S
O503 C502 1.227 . S
N504 Co501 2.121 . S
N504 C506 1.375 . S
N504 C507 1.313 . S
C505 C506 1.338 . S
C505 N508 1.377 . S
C505 H525 0.930 . S
C506 N504 1.375 . S
C506 C505 1.338 . S
C506 H510 0.931 . S
C507 N504 1.313 . S
C507 N508 1.344 . S
C507 H511 0.930 . S
N508 C505 1.377 . S
N508 C507 1.344 . S
O509 Co501 2.055 . S
O509 C513 1.253 . S
H510 C506 0.931 . S
H511 C507 0.930 . S
O512 Co501 2.039 . S
O512 C502 1.265 . S
C513 O509 1.253 . S
C513 O514 1.227 . S
O514 C513 1.227 . S
N515 Co501 2.140 . S
N515 C518 1.346 . S
N515 C519 1.345 . S
C516 C517 1.387 . S
C516 C520 1.391 . S
C517 C516 1.387 . S
C517 C518 1.369 . S
C517 H526 0.929 . S
C518 N515 1.346 . S
C518 C517 1.369 . S
C518 H521 0.928 . S
C519 N515 1.345 . S
C519 C520 1.371 . S
C519 H522 0.931 . S
C520 C516 1.391 . S
C520 C519 1.371 . S
C520 H527 0.930 . S
H521 C518 0.928 . S
H522 C519 0.931 . S
H523 C499 0.930 . S
H524 C496 0.930 . S
H525 C505 0.930 . S
H526 C517 0.929 . S
H527 C520 0.930 . S
C528 C529 1.351 . S
C528 N531 1.368 . S
C528 H533 0.931 . S
C529 C528 1.351 . S
C529 N530 1.373 . S
C529 H557 0.930 . S
N530 C529 1.373 . S
N530 C532 1.340 . S
N531 C528 1.368 . S
N531 C532 1.321 . S
N531 Co534 2.135 . S
C532 N530 1.340 . S
C532 N531 1.321 . S
C532 H556 0.930 . S
H533 C528 0.931 . S
Co534 N531 2.135 . S
Co534 N537 2.121 . S
Co534 O542 2.055 . S
Co534 O545 2.039 . S
Co534 N548 2.140 . S
C535 O536 1.227 . S
C535 O545 1.265 . S
O536 C535 1.227 . S
N537 Co534 2.121 . S
N537 C539 1.375 . S
N537 C540 1.313 . S
C538 C539 1.338 . S
C538 N541 1.377 . S
C538 H558 0.930 . S
C539 N537 1.375 . S
C539 C538 1.338 . S
C539 H543 0.931 . S
C540 N537 1.313 . S
C540 N541 1.344 . S
C540 H544 0.930 . S
N541 C538 1.377 . S
N541 C540 1.344 . S
O542 Co534 2.055 . S
O542 C546 1.253 . S
H543 C539 0.931 . S
H544 C540 0.930 . S
O545 Co534 2.039 . S
O545 C535 1.265 . S
C546 O542 1.253 . S
C546 O547 1.227 . S
O547 C546 1.227 . S
N548 Co534 2.140 . S
N548 C551 1.346 . S
N548 C552 1.345 . S
C549 C550 1.387 . S
C549 C553 1.391 . S
C550 C549 1.387 . S
C550 C551 1.369 . S
C550 H559 0.929 . S
C551 N548 1.346 . S
C551 C550 1.369 . S
C551 H554 0.928 . S
C552 N548 1.345 . S
C552 C553 1.371 . S
C552 H555 0.931 . S
C553 C549 1.391 . S
C553 C552 1.371 . S
C553 H560 0.930 . S
H554 C551 0.928 . S
H555 C552 0.931 . S
H556 C532 0.930 . S
H557 C529 0.930 . S
H558 C538 0.930 . S
H559 C550 0.929 . S
H560 C553 0.930 . S
C561 C562 1.351 . S
C561 N564 1.368 . S
C561 H566 0.931 . S
C562 C561 1.351 . S
C562 N563 1.373 . S
C562 H590 0.930 . S
N563 C562 1.373 . S
N563 C565 1.340 . S
N564 C561 1.368 . S
N564 C565 1.321 . S
N564 Co567 2.135 . S
C565 N563 1.340 . S
C565 N564 1.321 . S
C565 H589 0.930 . S
H566 C561 0.931 . S
Co567 N564 2.135 . S
Co567 N570 2.121 . S
Co567 O575 2.055 . S
Co567 O578 2.039 . S
Co567 N581 2.140 . S
C568 O569 1.227 . S
C568 O578 1.265 . S
O569 C568 1.227 . S
N570 Co567 2.121 . S
N570 C572 1.375 . S
N570 C573 1.313 . S
C571 C572 1.338 . S
C571 N574 1.377 . S
C571 H591 0.930 . S
C572 N570 1.375 . S
C572 C571 1.338 . S
C572 H576 0.931 . S
C573 N570 1.313 . S
C573 N574 1.344 . S
C573 H577 0.930 . S
N574 C571 1.377 . S
N574 C573 1.344 . S
O575 Co567 2.055 . S
O575 C579 1.253 . S
H576 C572 0.931 . S
H577 C573 0.930 . S
O578 Co567 2.039 . S
O578 C568 1.265 . S
C579 O575 1.253 . S
C579 O580 1.227 . S
O580 C579 1.227 . S
N581 Co567 2.140 . S
N581 C584 1.346 . S
N581 C585 1.345 . S
C582 C583 1.387 . S
C582 C586 1.391 . S
C583 C582 1.387 . S
C583 C584 1.369 . S
C583 H592 0.929 . S
C584 N581 1.346 . S
C584 C583 1.369 . S
C584 H587 0.928 . S
C585 N581 1.345 . S
C585 C586 1.371 . S
C585 H588 0.931 . S
C586 C582 1.391 . S
C586 C585 1.371 . S
C586 H593 0.930 . S
H587 C584 0.928 . S
H588 C585 0.931 . S
H589 C565 0.930 . S
H590 C562 0.930 . S
H591 C571 0.930 . S
H592 C583 0.929 . S
H593 C586 0.930 . S
H594 C600 0.930 . S
H595 C604 0.930 . S
H596 C609 0.929 . S
H597 C607 0.929 . S
H598 C602 0.929 . S
H599 C608 0.929 . S
C600 H594 0.930 . S
C600 C601 1.367 . S
C600 C608 1.378 . S
C601 C600 1.367 . S
C601 C609 1.433 . S
C602 H598 0.929 . S
C602 C604 1.378 . S
C602 C606 1.350 . S
C603 C606 1.463 . S
C603 C608 1.350 . S
C603 N611 1.427 . S
C604 H595 0.930 . S
C604 C602 1.378 . S
C604 C605 1.367 . S
C605 C604 1.367 . S
C605 C607 1.433 . S
C606 C602 1.350 . S
C606 C603 1.463 . S
C606 N610 1.427 . S
C607 H597 0.929 . S
C607 C605 1.433 . S
C607 N610 1.384 . S
C608 H599 0.929 . S
C608 C600 1.378 . S
C608 C603 1.350 . S
C609 H596 0.929 . S
C609 C601 1.433 . S
C609 N611 1.384 . S
N610 C606 1.427 . S
N610 C607 1.384 . S
N611 C603 1.427 . S
N611 C609 1.384 . S
H612 C618 0.930 . S
H613 C622 0.930 . S
H614 C627 0.929 . S
H615 C625 0.929 . S
H616 C620 0.929 . S
H617 C626 0.929 . S
C618 H612 0.930 . S
C618 C619 1.367 . S
C618 C626 1.378 . S
C619 C618 1.367 . S
C619 C627 1.433 . S
C620 H616 0.929 . S
C620 C622 1.378 . S
C620 C624 1.350 . S
C621 C624 1.463 . S
C621 C626 1.350 . S
C621 N629 1.427 . S
C622 H613 0.930 . S
C622 C620 1.378 . S
C622 C623 1.367 . S
C623 C622 1.367 . S
C623 C625 1.433 . S
C624 C620 1.350 . S
C624 C621 1.463 . S
C624 N628 1.427 . S
C625 H615 0.929 . S
C625 C623 1.433 . S
C625 N628 1.384 . S
C626 H617 0.929 . S
C626 C618 1.378 . S
C626 C621 1.350 . S
C627 H614 0.929 . S
C627 C619 1.433 . S
C627 N629 1.384 . S
N628 C624 1.427 . S
N628 C625 1.384 . S
N629 C621 1.427 . S
N629 C627 1.384 . S
H630 C636 0.930 . S
H631 C640 0.930 . S
H632 C645 0.929 . S
H633 C643 0.929 . S
H634 C638 0.929 . S
H635 C644 0.929 . S
C636 H630 0.930 . S
C636 C637 1.367 . S
C636 C644 1.378 . S
C637 C636 1.367 . S
C637 C645 1.433 . S
C638 H634 0.929 . S
C638 C640 1.378 . S
C638 C642 1.350 . S
C639 C642 1.463 . S
C639 C644 1.350 . S
C639 N647 1.427 . S
C640 H631 0.930 . S
C640 C638 1.378 . S
C640 C641 1.367 . S
C641 C640 1.367 . S
C641 C643 1.433 . S
C642 C638 1.350 . S
C642 C639 1.463 . S
C642 N646 1.427 . S
C643 H633 0.929 . S
C643 C641 1.433 . S
C643 N646 1.384 . S
C644 H635 0.929 . S
C644 C636 1.378 . S
C644 C639 1.350 . S
C645 H632 0.929 . S
C645 C637 1.433 . S
C645 N647 1.384 . S
N646 C642 1.427 . S
N646 C643 1.384 . S
N647 C639 1.427 . S
N647 C645 1.384 . S
H648 C654 0.930 . S
H649 C658 0.930 . S
H650 C663 0.929 . S
H651 C661 0.929 . S
H652 C656 0.929 . S
H653 C662 0.929 . S
C654 H648 0.930 . S
C654 C655 1.367 . S
C654 C662 1.378 . S
C655 C654 1.367 . S
C655 C663 1.433 . S
C656 H652 0.929 . S
C656 C658 1.378 . S
C656 C660 1.350 . S
C657 C660 1.463 . S
C657 C662 1.350 . S
C657 N665 1.427 . S
C658 H649 0.930 . S
C658 C656 1.378 . S
C658 C659 1.367 . S
C659 C658 1.367 . S
C659 C661 1.433 . S
C660 C656 1.350 . S
C660 C657 1.463 . S
C660 N664 1.427 . S
C661 H651 0.929 . S
C661 C659 1.433 . S
C661 N664 1.384 . S
C662 H653 0.929 . S
C662 C654 1.378 . S
C662 C657 1.350 . S
C663 H650 0.929 . S
C663 C655 1.433 . S
C663 N665 1.384 . S
N664 C660 1.427 . S
N664 C661 1.384 . S
N665 C657 1.427 . S
N665 C663 1.384 . S
H666 C672 0.930 . S
H667 C676 0.930 . S
H668 C681 0.929 . S
H669 C679 0.929 1_565 S
H670 C674 0.929 . S
H671 C680 0.929 . S
C672 H666 0.930 . S
C672 C673 1.367 . S
C672 C680 1.378 . S
C673 C672 1.367 . S
C673 C681 1.433 . S
C674 H670 0.929 . S
C674 C676 1.378 . S
C674 C678 1.350 . S
C675 C678 1.463 . S
C675 C680 1.350 . S
C675 N683 1.427 . S
C676 H667 0.930 . S
C676 C674 1.378 . S
C676 C677 1.367 . S
C677 C676 1.367 . S
C677 C679 1.433 . S
C678 C674 1.350 . S
C678 C675 1.463 . S
C678 N682 1.427 . S
C679 H669 0.929 1_545 S
C679 C677 1.433 . S
C679 N682 1.384 . S
C680 H671 0.929 . S
C680 C672 1.378 . S
C680 C675 1.350 . S
C681 H668 0.929 . S
C681 C673 1.433 . S
C681 N683 1.384 . S
N682 C678 1.427 . S
N682 C679 1.384 . S
N683 C675 1.427 . S
N683 C681 1.384 . S
H684 C690 0.930 1_455 S
H685 C694 0.930 . S
H686 C699 0.929 . S
H687 C697 0.929 . S
H688 C692 0.929 . S
H689 C698 0.929 . S
C690 H684 0.930 1_655 S
C690 C691 1.367 . S
C690 C698 1.378 . S
C691 C690 1.367 . S
C691 C699 1.433 . S
C692 H688 0.929 . S
C692 C694 1.378 . S
C692 C696 1.350 . S
C693 C696 1.463 . S
C693 C698 1.350 . S
C693 N701 1.427 . S
C694 H685 0.930 . S
C694 C692 1.378 . S
C694 C695 1.367 . S
C695 C694 1.367 . S
C695 C697 1.433 . S
C696 C692 1.350 . S
C696 C693 1.463 . S
C696 N700 1.427 . S
C697 H687 0.929 . S
C697 C695 1.433 . S
C697 N700 1.384 . S
C698 H689 0.929 . S
C698 C690 1.378 . S
C698 C693 1.350 . S
C699 H686 0.929 . S
C699 C691 1.433 . S
C699 N701 1.384 . S
N700 C696 1.427 . S
N700 C697 1.384 . S
N701 C693 1.427 . S
N701 C699 1.384 . S
H702 C708 0.930 . S
H703 C712 0.930 . S
H704 C717 0.929 . S
H705 C715 0.929 . S
H706 C710 0.929 . S
H707 C716 0.929 . S
C708 H702 0.930 . S
C708 C709 1.367 . S
C708 C716 1.378 . S
C709 C708 1.367 . S
C709 C717 1.433 . S
C710 H706 0.929 . S
C710 C712 1.378 . S
C710 C714 1.350 . S
C711 C714 1.463 . S
C711 C716 1.350 . S
C711 N719 1.427 . S
C712 H703 0.930 . S
C712 C710 1.378 . S
C712 C713 1.367 . S
C713 C712 1.367 . S
C713 C715 1.433 . S
C714 C710 1.350 . S
C714 C711 1.463 . S
C714 N718 1.427 . S
C715 H705 0.929 . S
C715 C713 1.433 . S
C715 N718 1.384 . S
C716 H707 0.929 . S
C716 C708 1.378 . S
C716 C711 1.350 . S
C717 H704 0.929 . S
C717 C709 1.433 . S
C717 N719 1.384 . S
N718 C714 1.427 . S
N718 C715 1.384 . S
N719 C711 1.427 . S
N719 C717 1.384 . S
H720 C726 0.930 . S
H721 C730 0.930 . S
H722 C735 0.929 . S
H723 C733 0.929 . S
H724 C728 0.929 . S
H725 C734 0.929 . S
C726 H720 0.930 . S
C726 C727 1.367 . S
C726 C734 1.378 . S
C727 C726 1.367 . S
C727 C735 1.433 1_565 S
C728 H724 0.929 . S
C728 C730 1.378 . S
C728 C732 1.350 . S
C729 C732 1.463 . S
C729 C734 1.350 1_545 S
C729 N737 1.427 . S
C730 H721 0.930 . S
C730 C728 1.378 . S
C730 C731 1.367 . S
C731 C730 1.367 . S
C731 C733 1.433 . S
C732 C728 1.350 . S
C732 C729 1.463 . S
C732 N736 1.427 . S
C733 H723 0.929 . S
C733 C731 1.433 . S
C733 N736 1.384 . S
C734 H725 0.929 . S
C734 C726 1.378 . S
C734 C729 1.350 1_565 S
C735 H722 0.929 . S
C735 C727 1.433 1_545 S
C735 N737 1.384 . S
N736 C732 1.427 . S
N736 C733 1.384 . S
N737 C729 1.427 . S
N737 C735 1.384 . S
H738 C744 0.930 . S
H739 C748 0.930 . S
H740 C753 0.929 . S
H741 C751 0.929 . S
H742 C746 0.929 . S
H743 C752 0.929 . S
C744 H738 0.930 . S
C744 C745 1.367 . S
C744 C752 1.378 . S
C745 C744 1.367 . S
C745 C753 1.433 1_455 S
C746 H742 0.929 . S
C746 C748 1.378 . S
C746 C750 1.350 . S
C747 C750 1.463 . S
C747 C752 1.350 1_655 S
C747 N755 1.427 . S
C748 H739 0.930 . S
C748 C746 1.378 . S
C748 C749 1.367 . S
C749 C748 1.367 . S
C749 C751 1.433 . S
C750 C746 1.350 . S
C750 C747 1.463 . S
C750 N754 1.427 . S
C751 H741 0.929 . S
C751 C749 1.433 . S
C751 N754 1.384 . S
C752 H743 0.929 . S
C752 C744 1.378 . S
C752 C747 1.350 1_455 S
C753 H740 0.929 . S
C753 C745 1.433 1_655 S
C753 N755 1.384 . S
N754 C750 1.427 . S
N754 C751 1.384 . S
N755 C747 1.427 . S
N755 C753 1.384 . S
H756 C762 0.930 . S
H757 C766 0.930 . S
H758 C771 0.929 . S
H759 C769 0.929 . S
H760 C764 0.929 . S
H761 C770 0.929 . S
C762 H756 0.930 . S
C762 C763 1.367 . S
C762 C770 1.378 . S
C763 C762 1.367 . S
C763 C771 1.433 . S
C764 H760 0.929 . S
C764 C766 1.378 . S
C764 C768 1.350 . S
C765 C768 1.463 . S
C765 C770 1.350 . S
C765 N773 1.427 . S
C766 H757 0.930 . S
C766 C764 1.378 . S
C766 C767 1.367 . S
C767 C766 1.367 . S
C767 C769 1.433 . S
C768 C764 1.350 . S
C768 C765 1.463 . S
C768 N772 1.427 . S
C769 H759 0.929 . S
C769 C767 1.433 . S
C769 N772 1.384 . S
C770 H761 0.929 . S
C770 C762 1.378 . S
C770 C765 1.350 . S
C771 H758 0.929 . S
C771 C763 1.433 . S
C771 N773 1.384 . S
N772 C768 1.427 . S
N772 C769 1.384 . S
N773 C765 1.427 . S
N773 C771 1.384 . S
H774 C780 0.930 . S
H775 C784 0.930 . S
H776 C789 0.929 . S
H777 C787 0.929 . S
H778 C782 0.929 . S
H779 C788 0.929 . S
C780 H774 0.930 . S
C780 C781 1.367 . S
C780 C788 1.378 . S
C781 C780 1.367 . S
C781 C789 1.433 . S
C782 H778 0.929 . S
C782 C784 1.378 1_565 S
C782 C786 1.350 . S
C783 C786 1.463 . S
C783 C788 1.350 . S
C783 N791 1.427 . S
C784 H775 0.930 . S
C784 C782 1.378 1_545 S
C784 C785 1.367 . S
C785 C784 1.367 . S
C785 C787 1.433 . S
C786 C782 1.350 . S
C786 C783 1.463 . S
C786 N790 1.427 . S
C787 H777 0.929 . S
C787 C785 1.433 . S
C787 N790 1.384 1_545 S
C788 H779 0.929 . S
C788 C780 1.378 . S
C788 C783 1.350 . S
C789 H776 0.929 . S
C789 C781 1.433 . S
C789 N791 1.384 . S
N790 C786 1.427 . S
N790 C787 1.384 1_565 S
N791 C783 1.427 . S
N791 C789 1.384 . S
H792 C798 0.930 . S
H793 C802 0.943 1_455 S
H794 C807 0.929 . S
H795 C805 0.929 . S
H796 C800 0.929 . S
H797 C806 0.929 . S
C798 H792 0.930 . S
C798 C799 1.367 . S
C798 C806 1.378 . S
C799 C798 1.367 . S
C799 C807 1.433 . S
C800 H796 0.929 . S
C800 C802 1.370 1_455 S
C800 C804 1.350 . S
C801 C804 1.463 . S
C801 C806 1.350 . S
C801 N809 1.427 . S
C802 H793 0.943 1_655 S
C802 C800 1.370 1_655 S
C802 C803 1.370 . S
C803 C802 1.370 . S
C803 C805 1.433 . S
C804 C800 1.350 . S
C804 C801 1.463 . S
C804 N808 1.427 1_455 S
C805 H795 0.929 . S
C805 C803 1.433 . S
C805 N808 1.384 . S
C806 H797 0.929 . S
C806 C798 1.378 . S
C806 C801 1.350 . S
C807 H794 0.929 . S
C807 C799 1.433 . S
C807 N809 1.384 . S
N808 C804 1.427 1_655 S
N808 C805 1.384 . S
N809 C801 1.427 . S
N809 C807 1.384 . S
H810 C816 0.930 . S
H811 C820 0.930 . S
H812 C825 0.929 . S
H813 C823 0.929 . S
H814 C818 0.929 . S
H815 C824 0.929 . S
C816 H810 0.930 . S
C816 C817 1.367 . S
C816 C824 1.378 . S
C817 C816 1.367 . S
C817 C825 1.433 . S
C818 H814 0.929 . S
C818 C820 1.378 . S
C818 C822 1.350 . S
C819 C822 1.463 1_455 S
C819 C824 1.350 . S
C819 N827 1.427 . S
C820 H811 0.930 . S
C820 C818 1.378 . S
C820 C821 1.367 . S
C821 C820 1.367 . S
C821 C823 1.433 . S
C822 C818 1.350 . S
C822 C819 1.463 1_655 S
C822 N826 1.427 . S
C823 H813 0.929 . S
C823 C821 1.433 . S
C823 N826 1.384 . S
C824 H815 0.929 . S
C824 C816 1.378 . S
C824 C819 1.350 . S
C825 H812 0.929 . S
C825 C817 1.433 . S
C825 N827 1.384 . S
N826 C822 1.427 . S
N826 C823 1.384 . S
N827 C819 1.427 . S
N827 C825 1.384 . S
H828 C834 0.930 . S
H829 C838 0.930 . S
H830 C843 0.929 . S
H831 C841 0.929 . S
H832 C836 0.929 . S
H833 C842 0.929 . S
C834 H828 0.930 . S
C834 C835 1.367 . S
C834 C842 1.378 . S
C835 C834 1.367 . S
C835 C843 1.433 . S
C836 H832 0.929 . S
C836 C838 1.378 . S
C836 C840 1.350 . S
C837 C840 1.463 . S
C837 C842 1.350 . S
C837 N845 1.427 . S
C838 H829 0.930 . S
C838 C836 1.378 . S
C838 C839 1.367 . S
C839 C838 1.367 . S
C839 C841 1.433 . S
C840 C836 1.350 . S
C840 C837 1.463 . S
C840 N844 1.427 . S
C841 H831 0.929 . S
C841 C839 1.433 . S
C841 N844 1.384 . S
C842 H833 0.929 . S
C842 C834 1.378 . S
C842 C837 1.350 . S
C843 H830 0.929 . S
C843 C835 1.433 . S
C843 N845 1.384 . S
N844 C840 1.427 . S
N844 C841 1.384 . S
N845 C837 1.427 . S
N845 C843 1.384 . S
H846 C852 0.930 . S
H847 C856 0.930 . S
H848 C861 0.929 . S
H849 C859 0.929 . S
H850 C854 0.929 . S
H851 C860 0.929 . S
C852 H846 0.930 . S
C852 C853 1.367 . S
C852 C860 1.378 . S
C853 C852 1.367 . S
C853 C861 1.433 . S
C854 H850 0.929 . S
C854 C856 1.378 . S
C854 C858 1.350 . S
C855 C858 1.463 1_565 S
C855 C860 1.350 . S
C855 N863 1.427 . S
C856 H847 0.930 . S
C856 C854 1.378 . S
C856 C857 1.367 . S
C857 C856 1.367 . S
C857 C859 1.433 . S
C858 C854 1.350 . S
C858 C855 1.463 1_545 S
C858 N862 1.427 . S
C859 H849 0.929 . S
C859 C857 1.433 . S
C859 N862 1.384 . S
C860 H851 0.929 . S
C860 C852 1.378 . S
C860 C855 1.350 . S
C861 H848 0.929 . S
C861 C853 1.433 . S
C861 N863 1.384 . S
N862 C858 1.427 . S
N862 C859 1.384 . S
N863 C855 1.427 . S
N863 C861 1.384 . S
H864 C870 0.930 . S
H865 C874 0.930 . S
H866 C879 0.929 . S
H867 C877 0.929 . S
H868 C872 0.929 . S
H869 C878 0.929 . S
C870 H864 0.930 . S
C870 C871 1.367 . S
C870 C878 1.378 . S
C871 C870 1.367 . S
C871 C879 1.433 . S
C872 H868 0.929 . S
C872 C874 1.378 . S
C872 C876 1.350 . S
C873 C876 1.463 1_545 S
C873 C878 1.350 . S
C873 N881 1.427 . S
C874 H865 0.930 . S
C874 C872 1.378 . S
C874 C875 1.367 . S
C875 C874 1.367 . S
C875 C877 1.433 . S
C876 C872 1.350 . S
C876 C873 1.463 1_565 S
C876 N880 1.427 . S
C877 H867 0.929 . S
C877 C875 1.433 . S
C877 N880 1.384 . S
C878 H869 0.929 . S
C878 C870 1.378 . S
C878 C873 1.350 . S
C879 H866 0.929 . S
C879 C871 1.433 . S
C879 N881 1.384 . S
N880 C876 1.427 . S
N880 C877 1.384 . S
N881 C873 1.427 . S
N881 C879 1.384 . S
H882 C888 0.930 . S
H883 C892 0.930 . S
H884 C897 0.929 . S
H885 C895 0.929 . S
H886 C890 0.929 . S
H887 C896 0.929 . S
C888 H882 0.930 . S
C888 C889 1.367 . S
C888 C896 1.378 . S
C889 C888 1.367 . S
C889 C897 1.433 . S
C890 H886 0.929 . S
C890 C892 1.378 . S
C890 C894 1.350 . S
C891 C894 1.463 1_455 S
C891 C896 1.350 . S
C891 N899 1.427 . S
C892 H883 0.930 . S
C892 C890 1.378 . S
C892 C893 1.367 . S
C893 C892 1.367 . S
C893 C895 1.433 . S
C894 C890 1.350 . S
C894 C891 1.463 1_655 S
C894 N898 1.427 . S
C895 H885 0.929 . S
C895 C893 1.433 . S
C895 N898 1.384 . S
C896 H887 0.929 . S
C896 C888 1.378 . S
C896 C891 1.350 . S
C897 H884 0.929 . S
C897 C889 1.433 . S
C897 N899 1.384 . S
N898 C894 1.427 . S
N898 C895 1.384 . S
N899 C891 1.427 . S
N899 C897 1.384 . S
H900 C906 0.930 . S
H901 C910 0.930 . S
H902 C915 0.929 . S
H903 C913 0.929 . S
H904 C908 0.929 . S
H905 C914 0.929 . S
C906 H900 0.930 . S
C906 C907 1.367 . S
C906 C914 1.378 . S
C907 C906 1.367 . S
C907 C915 1.433 . S
C908 H904 0.929 . S
C908 C910 1.378 . S
C908 C912 1.350 . S
C909 C912 1.463 . S
C909 C914 1.350 . S
C909 N917 1.427 . S
C910 H901 0.930 . S
C910 C908 1.378 . S
C910 C911 1.367 . S
C911 C910 1.367 . S
C911 C913 1.433 . S
C912 C908 1.350 . S
C912 C909 1.463 . S
C912 N916 1.427 . S
C913 H903 0.929 . S
C913 C911 1.433 . S
C913 N916 1.384 . S
C914 H905 0.929 . S
C914 C906 1.378 . S
C914 C909 1.350 . S
C915 H902 0.929 . S
C915 C907 1.433 . S
C915 N917 1.384 . S
N916 C912 1.427 . S
N916 C913 1.384 . S
N917 C909 1.427 . S
N917 C915 1.384 . S
H918 C924 0.930 . S
H919 C928 0.930 . S
H920 C933 0.929 . S
H921 C931 0.929 . S
H922 C926 0.929 . S
H923 C932 0.929 . S
C924 H918 0.930 . S
C924 C925 1.367 . S
C924 C932 1.378 . S
C925 C924 1.367 . S
C925 C933 1.433 . S
C926 H922 0.929 . S
C926 C928 1.378 . S
C926 C930 1.350 . S
C927 C930 1.463 . S
C927 C932 1.350 . S
C927 N935 1.427 . S
C928 H919 0.930 . S
C928 C926 1.378 . S
C928 C929 1.367 . S
C929 C928 1.367 . S
C929 C931 1.433 . S
C930 C926 1.350 . S
C930 C927 1.463 . S
C930 N934 1.427 . S
C931 H921 0.929 . S
C931 C929 1.433 . S
C931 N934 1.384 . S
C932 H923 0.929 . S
C932 C924 1.378 . S
C932 C927 1.350 . S
C933 H920 0.929 . S
C933 C925 1.433 . S
C933 N935 1.384 . S
N934 C930 1.427 . S
N934 C931 1.384 . S
N935 C927 1.427 . S
N935 C933 1.384 . S
H936 C942 0.930 . S
H937 C946 0.930 . S
H938 C951 0.929 . S
H939 C949 0.929 . S
H940 C944 0.929 . S
H941 C950 0.929 . S
C942 H936 0.930 . S
C942 C943 1.367 . S
C942 C950 1.378 . S
C943 C942 1.367 . S
C943 C951 1.433 . S
C944 H940 0.929 . S
C944 C946 1.378 . S
C944 C948 1.350 . S
C945 C948 1.463 . S
C945 C950 1.350 . S
C945 N953 1.427 . S
C946 H937 0.930 . S
C946 C944 1.378 . S
C946 C947 1.367 . S
C947 C946 1.367 . S
C947 C949 1.433 . S
C948 C944 1.350 . S
C948 C945 1.463 . S
C948 N952 1.427 . S
C949 H939 0.929 . S
C949 C947 1.433 . S
C949 N952 1.384 . S
C950 H941 0.929 . S
C950 C942 1.378 . S
C950 C945 1.350 . S
C951 H938 0.929 . S
C951 C943 1.433 . S
C951 N953 1.384 . S
N952 C948 1.427 . S
N952 C949 1.384 . S
N953 C945 1.427 . S
N953 C951 1.384 . S
H954 C960 0.930 . S
H955 C964 0.930 . S
H956 C969 0.929 . S
H957 C967 0.929 . S
H958 C962 0.929 . S
H959 C968 0.929 . S
C960 H954 0.930 . S
C960 C961 1.367 . S
C960 C968 1.378 . S
C961 C960 1.367 . S
C961 C969 1.433 . S
C962 H958 0.929 . S
C962 C964 1.378 . S
C962 C966 1.350 . S
C963 C966 1.463 . S
C963 C968 1.350 . S
C963 N971 1.427 . S
C964 H955 0.930 . S
C964 C962 1.378 . S
C964 C965 1.367 . S
C965 C964 1.367 . S
C965 C967 1.433 . S
C966 C962 1.350 . S
C966 C963 1.463 . S
C966 N970 1.427 . S
C967 H957 0.929 . S
C967 C965 1.433 . S
C967 N970 1.384 . S
C968 H959 0.929 . S
C968 C960 1.378 . S
C968 C963 1.350 . S
C969 H956 0.929 . S
C969 C961 1.433 . S
C969 N971 1.384 . S
N970 C966 1.427 . S
N970 C967 1.384 . S
N971 C963 1.427 . S
N971 C969 1.384 . S
H972 C978 0.930 . S
H973 C982 0.930 . S
H974 C987 0.929 . S
H975 C985 0.929 . S
H976 C980 0.929 . S
H977 C986 0.929 . S
C978 H972 0.930 . S
C978 C979 1.367 . S
C978 C986 1.378 . S
C979 C978 1.367 . S
C979 C987 1.433 . S
C980 H976 0.929 . S
C980 C982 1.378 . S
C980 C984 1.350 . S
C981 C984 1.463 . S
C981 C986 1.350 . S
C981 N989 1.427 . S
C982 H973 0.930 . S
C982 C980 1.378 . S
C982 C983 1.367 . S
C983 C982 1.367 . S
C983 C985 1.433 . S
C984 C980 1.350 . S
C984 C981 1.463 . S
C984 N988 1.427 . S
C985 H975 0.929 . S
C985 C983 1.433 . S
C985 N988 1.384 . S
C986 H977 0.929 . S
C986 C978 1.378 . S
C986 C981 1.350 . S
C987 H974 0.929 . S
C987 C979 1.433 . S
C987 N989 1.384 . S
N988 C984 1.427 . S
N988 C985 1.384 . S
N989 C981 1.427 . S
N989 C987 1.384 . S
H990 C996 0.930 . S
H991 C1000 0.930 . S
H992 C1005 0.929 . S
H993 C1003 0.929 . S
H994 C998 0.929 . S
H995 C1004 0.929 . S
C996 H990 0.930 . S
C996 C997 1.367 . S
C996 C1004 1.378 . S
C997 C996 1.367 . S
C997 C1005 1.433 . S
C998 H994 0.929 . S
C998 C1000 1.378 . S
C998 C1002 1.350 . S
C999 C1002 1.463 . S
C999 C1004 1.350 . S
C999 N1007 1.427 . S
C1000 H991 0.930 . S
C1000 C998 1.378 . S
C1000 C1001 1.367 . S
C1001 C1000 1.367 . S
C1001 C1003 1.433 . S
C1002 C998 1.350 . S
C1002 C999 1.463 . S
C1002 N1006 1.427 . S
C1003 H993 0.929 . S
C1003 C1001 1.433 . S
C1003 N1006 1.384 . S
C1004 H995 0.929 . S
C1004 C996 1.378 . S
C1004 C999 1.350 . S
C1005 H992 0.929 . S
C1005 C997 1.433 . S
C1005 N1007 1.384 . S
N1006 C1002 1.427 . S
N1006 C1003 1.384 . S
N1007 C999 1.427 . S
N1007 C1005 1.384 . S
H1008 C1014 0.930 . S
H1009 C1018 0.930 . S
H1010 C1023 0.929 . S
H1011 C1021 0.929 . S
H1012 C1016 0.929 . S
H1013 C1022 0.929 . S
C1014 H1008 0.930 . S
C1014 C1015 1.367 . S
C1014 C1022 1.378 . S
C1015 C1014 1.367 . S
C1015 C1023 1.433 . S
C1016 H1012 0.929 . S
C1016 C1018 1.378 . S
C1016 C1020 1.350 . S
C1017 C1020 1.463 . S
C1017 C1022 1.350 . S
C1017 N1025 1.427 . S
C1018 H1009 0.930 . S
C1018 C1016 1.378 . S
C1018 C1019 1.367 . S
C1019 C1018 1.367 . S
C1019 C1021 1.433 . S
C1020 C1016 1.350 . S
C1020 C1017 1.463 . S
C1020 N1024 1.427 . S
C1021 H1011 0.929 . S
C1021 C1019 1.433 . S
C1021 N1024 1.384 . S
C1022 H1013 0.929 . S
C1022 C1014 1.378 . S
C1022 C1017 1.350 . S
C1023 H1010 0.929 . S
C1023 C1015 1.433 . S
C1023 N1025 1.384 . S
N1024 C1020 1.427 . S
N1024 C1021 1.384 . S
N1025 C1017 1.427 . S
N1025 C1023 1.384 . S
H1026 C1032 0.930 . S
H1027 C1036 0.930 . S
H1028 C1041 0.929 . S
H1029 C1039 0.929 . S
H1030 C1034 0.929 . S
H1031 C1040 0.929 . S
C1032 H1026 0.930 . S
C1032 C1033 1.367 . S
C1032 C1040 1.378 . S
C1033 C1032 1.367 . S
C1033 C1041 1.433 . S
C1034 H1030 0.929 . S
C1034 C1036 1.378 . S
C1034 C1038 1.350 . S
C1035 C1038 1.463 1_654 S
C1035 C1040 1.350 . S
C1035 N1043 1.427 . S
C1036 H1027 0.930 . S
C1036 C1034 1.378 . S
C1036 C1037 1.367 . S
C1037 C1036 1.367 . S
C1037 C1039 1.433 . S
C1038 C1034 1.350 . S
C1038 C1035 1.463 1_456 S
C1038 N1042 1.427 . S
C1039 H1029 0.929 . S
C1039 C1037 1.433 . S
C1039 N1042 1.384 . S
C1040 H1031 0.929 . S
C1040 C1032 1.378 . S
C1040 C1035 1.350 . S
C1041 H1028 0.929 . S
C1041 C1033 1.433 . S
C1041 N1043 1.384 . S
N1042 C1038 1.427 . S
N1042 C1039 1.384 . S
N1043 C1035 1.427 . S
N1043 C1041 1.384 . S
H1044 C1050 0.930 . S
H1045 C1054 0.930 . S
H1046 C1059 0.929 . S
H1047 C1057 0.929 . S
H1048 C1052 0.929 . S
H1049 C1058 0.929 . S
C1050 H1044 0.930 . S
C1050 C1051 1.367 . S
C1050 C1058 1.378 . S
C1051 C1050 1.367 . S
C1051 C1059 1.433 . S
C1052 H1048 0.929 . S
C1052 C1054 1.378 . S
C1052 C1056 1.350 . S
C1053 C1056 1.463 1_554 S
C1053 C1058 1.350 . S
C1053 N1061 1.427 . S
C1054 H1045 0.930 . S
C1054 C1052 1.378 . S
C1054 C1055 1.367 . S
C1055 C1054 1.367 . S
C1055 C1057 1.433 . S
C1056 C1052 1.350 . S
C1056 C1053 1.463 1_556 S
C1056 N1060 1.427 . S
C1057 H1047 0.929 . S
C1057 C1055 1.433 . S
C1057 N1060 1.384 . S
C1058 H1049 0.929 . S
C1058 C1050 1.378 . S
C1058 C1053 1.350 . S
C1059 H1046 0.929 . S
C1059 C1051 1.433 . S
C1059 N1061 1.384 . S
N1060 C1056 1.427 . S
N1060 C1057 1.384 . S
N1061 C1053 1.427 . S
N1061 C1059 1.384 . S
H1062 C1068 0.930 . S
H1063 C1072 0.930 . S
H1064 C1077 0.929 . S
H1065 C1075 0.929 . S
H1066 C1070 0.929 . S
H1067 C1076 0.929 . S
C1068 H1062 0.930 . S
C1068 C1069 1.367 1_565 S
C1068 C1076 1.378 . S
C1069 C1068 1.367 1_545 S
C1069 C1077 1.433 . S
C1070 H1066 0.929 . S
C1070 C1072 1.378 . S
C1070 C1074 1.350 1_545 S
C1071 C1074 1.460 1_544 S
C1071 C1076 1.344 1_545 S
C1071 N1079 1.438 . S
C1072 H1063 0.930 . S
C1072 C1070 1.378 . S
C1072 C1073 1.367 1_545 S
C1073 C1072 1.367 1_565 S
C1073 C1075 1.433 . S
C1074 C1070 1.350 1_565 S
C1074 C1071 1.460 1_566 S
C1074 N1078 1.427 . S
C1075 H1065 0.929 . S
C1075 C1073 1.433 . S
C1075 N1078 1.384 . S
C1076 H1067 0.929 . S
C1076 C1068 1.378 . S
C1076 C1071 1.344 1_565 S
C1077 H1064 0.929 . S
C1077 C1069 1.433 . S
C1077 N1079 1.384 . S
N1078 C1074 1.427 . S
N1078 C1075 1.384 . S
N1079 C1071 1.438 . S
N1079 C1077 1.384 . S
H1080 C1086 0.930 . S
H1081 C1090 0.930 . S
H1082 C1095 0.929 . S
H1083 C1093 0.929 . S
H1084 C1088 0.929 . S
H1085 C1094 0.929 . S
C1086 H1080 0.930 . S
C1086 C1087 1.367 . S
C1086 C1094 1.378 . S
C1087 C1086 1.367 . S
C1087 C1095 1.433 . S
C1088 H1084 0.929 . S
C1088 C1090 1.378 . S
C1088 C1092 1.350 . S
C1089 C1092 1.463 . S
C1089 C1094 1.350 . S
C1089 N1097 1.427 . S
C1090 H1081 0.930 . S
C1090 C1088 1.378 . S
C1090 C1091 1.367 . S
C1091 C1090 1.367 . S
C1091 C1093 1.433 . S
C1092 C1088 1.350 . S
C1092 C1089 1.463 . S
C1092 N1096 1.427 . S
C1093 H1083 0.929 . S
C1093 C1091 1.433 . S
C1093 N1096 1.384 . S
C1094 H1085 0.929 . S
C1094 C1086 1.378 . S
C1094 C1089 1.350 . S
C1095 H1082 0.929 . S
C1095 C1087 1.433 . S
C1095 N1097 1.384 . S
N1096 C1092 1.427 . S
N1096 C1093 1.384 . S
N1097 C1089 1.427 . S
N1097 C1095 1.384 . S
H1098 C1104 0.930 . S
H1099 C1108 0.930 . S
H1100 C1113 0.929 . S
H1101 C1111 0.929 . S
H1102 C1106 0.929 . S
H1103 C1112 0.929 . S
C1104 H1098 0.930 . S
C1104 C1105 1.367 . S
C1104 C1112 1.378 1_565 S
C1105 C1104 1.367 . S
C1105 C1113 1.433 . S
C1106 H1102 0.929 . S
C1106 C1108 1.378 . S
C1106 C1110 1.350 . S
C1107 C1110 1.463 . S
C1107 C1112 1.350 . S
C1107 N1115 1.427 . S
C1108 H1099 0.930 . S
C1108 C1106 1.378 . S
C1108 C1109 1.367 . S
C1109 C1108 1.367 . S
C1109 C1111 1.433 . S
C1110 C1106 1.350 . S
C1110 C1107 1.463 . S
C1110 N1114 1.427 . S
C1111 H1101 0.929 . S
C1111 C1109 1.433 . S
C1111 N1114 1.384 . S
C1112 H1103 0.929 . S
C1112 C1104 1.378 1_545 S
C1112 C1107 1.350 . S
C1113 H1100 0.929 . S
C1113 C1105 1.433 . S
C1113 N1115 1.384 1_565 S
N1114 C1110 1.427 . S
N1114 C1111 1.384 . S
N1115 C1107 1.427 . S
N1115 C1113 1.384 1_545 S
H1116 C1122 0.930 . S
H1117 C1126 0.930 . S
H1118 C1131 0.929 . S
H1119 C1129 0.929 . S
H1120 C1124 0.929 . S
H1121 C1130 0.929 . S
C1122 H1116 0.930 . S
C1122 C1123 1.367 . S
C1122 C1130 1.378 . S
C1123 C1122 1.367 . S
C1123 C1131 1.433 . S
C1124 H1120 0.929 . S
C1124 C1126 1.378 1_655 S
C1124 C1128 1.350 . S
C1125 C1128 1.463 . S
C1125 C1130 1.350 . S
C1125 N1133 1.427 . S
C1126 H1117 0.930 . S
C1126 C1124 1.378 1_455 S
C1126 C1127 1.367 . S
C1127 C1126 1.367 . S
C1127 C1129 1.433 . S
C1128 C1124 1.350 . S
C1128 C1125 1.463 . S
C1128 N1132 1.427 . S
C1129 H1119 0.929 . S
C1129 C1127 1.433 . S
C1129 N1132 1.384 1_455 S
C1130 H1121 0.929 . S
C1130 C1122 1.378 . S
C1130 C1125 1.350 . S
C1131 H1118 0.929 . S
C1131 C1123 1.433 . S
C1131 N1133 1.384 . S
N1132 C1128 1.427 . S
N1132 C1129 1.384 1_655 S
N1133 C1125 1.427 . S
N1133 C1131 1.384 . S
H1134 C1140 0.930 . S
H1135 C1144 0.930 . S
H1136 C1149 0.929 . S
H1137 C1147 0.929 . S
H1138 C1142 0.929 . S
H1139 C1148 0.929 . S
C1140 H1134 0.930 . S
C1140 C1141 1.367 . S
C1140 C1148 1.378 . S
C1141 C1140 1.367 . S
C1141 C1149 1.433 . S
C1142 H1138 0.929 . S
C1142 C1144 1.378 . S
C1142 C1146 1.350 . S
C1143 C1146 1.463 . S
C1143 C1148 1.350 . S
C1143 N1151 1.427 . S
C1144 H1135 0.930 . S
C1144 C1142 1.378 . S
C1144 C1145 1.367 . S
C1145 C1144 1.367 . S
C1145 C1147 1.433 . S
C1146 C1142 1.350 . S
C1146 C1143 1.463 . S
C1146 N1150 1.427 . S
C1147 H1137 0.929 . S
C1147 C1145 1.433 . S
C1147 N1150 1.384 . S
C1148 H1139 0.929 . S
C1148 C1140 1.378 . S
C1148 C1143 1.350 . S
C1149 H1136 0.929 . S
C1149 C1141 1.433 . S
C1149 N1151 1.384 . S
N1150 C1146 1.427 . S
N1150 C1147 1.384 . S
N1151 C1143 1.427 . S
N1151 C1149 1.384 . S
H1152 C1158 0.930 . S
H1153 C1162 0.930 . S
H1154 C1167 0.929 . S
H1155 C1165 0.929 . S
H1156 C1160 0.929 . S
H1157 C1166 0.929 . S
C1158 H1152 0.930 . S
C1158 C1159 1.367 . S
C1158 C1166 1.378 1_545 S
C1159 C1158 1.367 . S
C1159 C1167 1.433 . S
C1160 H1156 0.929 . S
C1160 C1162 1.378 . S
C1160 C1164 1.350 . S
C1161 C1164 1.463 . S
C1161 C1166 1.350 . S
C1161 N1169 1.427 . S
C1162 H1153 0.930 . S
C1162 C1160 1.378 . S
C1162 C1163 1.367 . S
C1163 C1162 1.367 . S
C1163 C1165 1.433 . S
C1164 C1160 1.350 . S
C1164 C1161 1.463 . S
C1164 N1168 1.427 . S
C1165 H1155 0.929 . S
C1165 C1163 1.433 . S
C1165 N1168 1.384 . S
C1166 H1157 0.929 . S
C1166 C1158 1.378 1_565 S
C1166 C1161 1.350 . S
C1167 H1154 0.929 . S
C1167 C1159 1.433 . S
C1167 N1169 1.384 1_545 S
N1168 C1164 1.427 . S
N1168 C1165 1.384 . S
N1169 C1161 1.427 . S
N1169 C1167 1.384 1_565 S
H1170 C1176 0.930 . S
H1171 C1180 0.930 . S
H1172 C1185 0.929 . S
H1173 C1183 0.929 . S
H1174 C1178 0.929 . S
H1175 C1184 0.929 . S
C1176 H1170 0.930 . S
C1176 C1177 1.367 . S
C1176 C1184 1.378 . S
C1177 C1176 1.367 . S
C1177 C1185 1.433 . S
C1178 H1174 0.929 . S
C1178 C1180 1.378 1_455 S
C1178 C1182 1.350 . S
C1179 C1182 1.463 . S
C1179 C1184 1.350 . S
C1179 N1187 1.427 . S
C1180 H1171 0.930 . S
C1180 C1178 1.378 1_655 S
C1180 C1181 1.367 . S
C1181 C1180 1.367 . S
C1181 C1183 1.433 . S
C1182 C1178 1.350 . S
C1182 C1179 1.463 . S
C1182 N1186 1.427 . S
C1183 H1173 0.929 . S
C1183 C1181 1.433 . S
C1183 N1186 1.384 1_655 S
C1184 H1175 0.929 . S
C1184 C1176 1.378 . S
C1184 C1179 1.350 . S
C1185 H1172 0.929 . S
C1185 C1177 1.433 . S
C1185 N1187 1.384 . S
N1186 C1182 1.427 . S
N1186 C1183 1.384 1_455 S
N1187 C1179 1.427 . S
N1187 C1185 1.384 . S
H1188 C1194 0.930 . S
H1189 C1198 0.930 . S
H1190 C1203 0.929 . S
H1191 C1201 0.929 . S
H1192 C1196 0.929 . S
H1193 C1202 0.929 . S
C1194 H1188 0.930 . S
C1194 C1195 1.367 . S
C1194 C1202 1.378 . S
C1195 C1194 1.367 . S
C1195 C1203 1.433 . S
C1196 H1192 0.929 . S
C1196 C1198 1.378 . S
C1196 C1200 1.350 . S
C1197 C1200 1.463 . S
C1197 C1202 1.350 . S
C1197 N1205 1.427 . S
C1198 H1189 0.930 . S
C1198 C1196 1.378 . S
C1198 C1199 1.367 . S
C1199 C1198 1.367 . S
C1199 C1201 1.433 . S
C1200 C1196 1.350 . S
C1200 C1197 1.463 . S
C1200 N1204 1.427 . S
C1201 H1191 0.929 . S
C1201 C1199 1.433 . S
C1201 N1204 1.384 . S
C1202 H1193 0.929 . S
C1202 C1194 1.378 . S
C1202 C1197 1.350 . S
C1203 H1190 0.929 . S
C1203 C1195 1.433 . S
C1203 N1205 1.384 . S
N1204 C1200 1.427 . S
N1204 C1201 1.384 . S
N1205 C1197 1.427 . S
N1205 C1203 1.384 . S
H1206 C1212 0.930 . S
H1207 C1216 0.930 . S
H1208 C1221 0.929 . S
H1209 C1219 0.929 . S
H1210 C1214 0.929 . S
H1211 C1220 0.929 . S
C1212 H1206 0.930 . S
C1212 C1213 1.367 . S
C1212 C1220 1.378 . S
C1213 C1212 1.367 . S
C1213 C1221 1.433 . S
C1214 H1210 0.929 . S
C1214 C1216 1.378 . S
C1214 C1218 1.350 . S
C1215 C1218 1.463 . S
C1215 C1220 1.350 . S
C1215 N1223 1.427 . S
C1216 H1207 0.930 . S
C1216 C1214 1.378 . S
C1216 C1217 1.367 . S
C1217 C1216 1.367 . S
C1217 C1219 1.433 . S
C1218 C1214 1.350 . S
C1218 C1215 1.463 . S
C1218 N1222 1.427 . S
C1219 H1209 0.929 . S
C1219 C1217 1.433 . S
C1219 N1222 1.384 . S
C1220 H1211 0.929 . S
C1220 C1212 1.378 . S
C1220 C1215 1.350 . S
C1221 H1208 0.929 . S
C1221 C1213 1.433 . S
C1221 N1223 1.384 . S
N1222 C1218 1.427 . S
N1222 C1219 1.384 . S
N1223 C1215 1.427 . S
N1223 C1221 1.384 . S
H1224 C1230 0.930 . S
H1225 C1234 0.930 . S
H1226 C1239 0.929 . S
H1227 C1237 0.929 . S
H1228 C1232 0.929 . S
H1229 C1238 0.929 . S
C1230 H1224 0.930 . S
C1230 C1231 1.367 . S
C1230 C1238 1.378 . S
C1231 C1230 1.367 . S
C1231 C1239 1.433 . S
C1232 H1228 0.929 . S
C1232 C1234 1.378 . S
C1232 C1236 1.350 . S
C1233 C1236 1.463 . S
C1233 C1238 1.350 . S
C1233 N1241 1.427 . S
C1234 H1225 0.930 . S
C1234 C1232 1.378 . S
C1234 C1235 1.367 . S
C1235 C1234 1.367 . S
C1235 C1237 1.433 . S
C1236 C1232 1.350 . S
C1236 C1233 1.463 . S
C1236 N1240 1.427 . S
C1237 H1227 0.929 . S
C1237 C1235 1.433 . S
C1237 N1240 1.384 . S
C1238 H1229 0.929 . S
C1238 C1230 1.378 . S
C1238 C1233 1.350 . S
C1239 H1226 0.929 . S
C1239 C1231 1.433 . S
C1239 N1241 1.384 . S
N1240 C1236 1.427 . S
N1240 C1237 1.384 . S
N1241 C1233 1.427 . S
N1241 C1239 1.384 . S
H1242 C1248 0.930 . S
H1243 C1252 0.930 . S
H1244 C1257 0.929 . S
H1245 C1255 0.929 . S
H1246 C1250 0.929 . S
H1247 C1256 0.929 . S
C1248 H1242 0.930 . S
C1248 C1249 1.367 . S
C1248 C1256 1.378 . S
C1249 C1248 1.367 . S
C1249 C1257 1.433 . S
C1250 H1246 0.929 . S
C1250 C1252 1.378 . S
C1250 C1254 1.350 . S
C1251 C1254 1.463 . S
C1251 C1256 1.350 . S
C1251 N1259 1.427 . S
C1252 H1243 0.930 . S
C1252 C1250 1.378 . S
C1252 C1253 1.367 . S
C1253 C1252 1.367 . S
C1253 C1255 1.433 . S
C1254 C1250 1.350 . S
C1254 C1251 1.463 . S
C1254 N1258 1.427 . S
C1255 H1245 0.929 . S
C1255 C1253 1.433 . S
C1255 N1258 1.384 . S
C1256 H1247 0.929 . S
C1256 C1248 1.378 . S
C1256 C1251 1.350 . S
C1257 H1244 0.929 . S
C1257 C1249 1.433 . S
C1257 N1259 1.384 . S
N1258 C1254 1.427 . S
N1258 C1255 1.384 . S
N1259 C1251 1.427 . S
N1259 C1257 1.384 . S
H1260 C1266 0.930 . S
H1261 C1270 0.930 . S
H1262 C1275 0.929 . S
H1263 C1273 0.929 . S
H1264 C1268 0.929 . S
H1265 C1274 0.929 . S
C1266 H1260 0.930 . S
C1266 C1267 1.367 . S
C1266 C1274 1.378 . S
C1267 C1266 1.367 . S
C1267 C1275 1.433 . S
C1268 H1264 0.929 . S
C1268 C1270 1.378 . S
C1268 C1272 1.350 . S
C1269 C1272 1.463 . S
C1269 C1274 1.350 . S
C1269 N1277 1.427 . S
C1270 H1261 0.930 . S
C1270 C1268 1.378 . S
C1270 C1271 1.367 . S
C1271 C1270 1.367 . S
C1271 C1273 1.433 . S
C1272 C1268 1.350 . S
C1272 C1269 1.463 . S
C1272 N1276 1.427 . S
C1273 H1263 0.929 . S
C1273 C1271 1.433 . S
C1273 N1276 1.384 . S
C1274 H1265 0.929 . S
C1274 C1266 1.378 . S
C1274 C1269 1.350 . S
C1275 H1262 0.929 . S
C1275 C1267 1.433 . S
C1275 N1277 1.384 . S
N1276 C1272 1.427 . S
N1276 C1273 1.384 . S
N1277 C1269 1.427 . S
N1277 C1275 1.384 . S
H1278 C1284 0.930 . S
H1279 C1288 0.930 . S
H1280 C1293 0.929 . S
H1281 C1291 0.929 . S
H1282 C1286 0.929 . S
H1283 C1292 0.929 . S
C1284 H1278 0.930 . S
C1284 C1285 1.367 . S
C1284 C1292 1.378 . S
C1285 C1284 1.367 . S
C1285 C1293 1.433 . S
C1286 H1282 0.929 . S
C1286 C1288 1.378 . S
C1286 C1290 1.350 . S
C1287 C1290 1.463 . S
C1287 C1292 1.350 . S
C1287 N1295 1.427 . S
C1288 H1279 0.930 . S
C1288 C1286 1.378 . S
C1288 C1289 1.367 . S
C1289 C1288 1.367 . S
C1289 C1291 1.433 . S
C1290 C1286 1.350 . S
C1290 C1287 1.463 . S
C1290 N1294 1.427 . S
C1291 H1281 0.929 . S
C1291 C1289 1.433 . S
C1291 N1294 1.384 . S
C1292 H1283 0.929 . S
C1292 C1284 1.378 . S
C1292 C1287 1.350 . S
C1293 H1280 0.929 . S
C1293 C1285 1.433 . S
C1293 N1295 1.384 . S
N1294 C1290 1.427 . S
N1294 C1291 1.384 . S
N1295 C1287 1.427 . S
N1295 C1293 1.384 . S
H1296 C1302 0.930 . S
H1297 C1306 0.930 . S
H1298 C1311 0.929 . S
H1299 C1309 0.929 . S
H1300 C1304 0.929 . S
H1301 C1310 0.929 . S
C1302 H1296 0.930 . S
C1302 C1303 1.367 . S
C1302 C1310 1.378 . S
C1303 C1302 1.367 . S
C1303 C1311 1.433 . S
C1304 H1300 0.929 . S
C1304 C1306 1.378 . S
C1304 C1308 1.350 . S
C1305 C1308 1.463 . S
C1305 C1310 1.350 . S
C1305 N1313 1.427 . S
C1306 H1297 0.930 . S
C1306 C1304 1.378 . S
C1306 C1307 1.367 . S
C1307 C1306 1.367 . S
C1307 C1309 1.433 . S
C1308 C1304 1.350 . S
C1308 C1305 1.463 . S
C1308 N1312 1.427 . S
C1309 H1299 0.929 . S
C1309 C1307 1.433 . S
C1309 N1312 1.384 . S
C1310 H1301 0.929 . S
C1310 C1302 1.378 . S
C1310 C1305 1.350 . S
C1311 H1298 0.929 . S
C1311 C1303 1.433 . S
C1311 N1313 1.384 . S
N1312 C1308 1.427 . S
N1312 C1309 1.384 . S
N1313 C1305 1.427 . S
N1313 C1311 1.384 . S
H1314 C1320 0.930 . S
H1315 C1324 0.930 . S
H1316 C1329 0.929 . S
H1317 C1327 0.929 . S
H1318 C1322 0.929 . S
H1319 C1328 0.929 . S
C1320 H1314 0.930 . S
C1320 C1321 1.367 . S
C1320 C1328 1.378 . S
C1321 C1320 1.367 . S
C1321 C1329 1.433 . S
C1322 H1318 0.929 . S
C1322 C1324 1.378 . S
C1322 C1326 1.350 . S
C1323 C1326 1.463 . S
C1323 C1328 1.350 . S
C1323 N1331 1.427 . S
C1324 H1315 0.930 . S
C1324 C1322 1.378 . S
C1324 C1325 1.367 . S
C1325 C1324 1.367 . S
C1325 C1327 1.433 . S
C1326 C1322 1.350 . S
C1326 C1323 1.463 . S
C1326 N1330 1.427 . S
C1327 H1317 0.929 . S
C1327 C1325 1.433 . S
C1327 N1330 1.384 . S
C1328 H1319 0.929 . S
C1328 C1320 1.378 . S
C1328 C1323 1.350 . S
C1329 H1316 0.929 . S
C1329 C1321 1.433 . S
C1329 N1331 1.384 . S
N1330 C1326 1.427 . S
N1330 C1327 1.384 . S
N1331 C1323 1.427 . S
N1331 C1329 1.384 . S
H1332 C1338 0.930 . S
H1333 C1342 0.930 . S
H1334 C1347 0.929 . S
H1335 C1345 0.929 . S
H1336 C1340 0.929 . S
H1337 C1346 0.929 . S
C1338 H1332 0.930 . S
C1338 C1339 1.367 . S
C1338 C1346 1.378 . S
C1339 C1338 1.367 . S
C1339 C1347 1.433 . S
C1340 H1336 0.929 . S
C1340 C1342 1.378 . S
C1340 C1344 1.350 . S
C1341 C1344 1.463 . S
C1341 C1346 1.350 . S
C1341 N1349 1.427 . S
C1342 H1333 0.930 . S
C1342 C1340 1.378 . S
C1342 C1343 1.367 . S
C1343 C1342 1.367 . S
C1343 C1345 1.433 . S
C1344 C1340 1.350 . S
C1344 C1341 1.463 . S
C1344 N1348 1.427 . S
C1345 H1335 0.929 . S
C1345 C1343 1.433 . S
C1345 N1348 1.384 . S
C1346 H1337 0.929 . S
C1346 C1338 1.378 . S
C1346 C1341 1.350 . S
C1347 H1334 0.929 . S
C1347 C1339 1.433 . S
C1347 N1349 1.384 . S
N1348 C1344 1.427 . S
N1348 C1345 1.384 . S
N1349 C1341 1.427 . S
N1349 C1347 1.384 . S
H1350 C1356 0.930 . S
H1351 C1360 0.930 . S
H1352 C1365 0.929 . S
H1353 C1363 0.929 . S
H1354 C1358 0.929 . S
H1355 C1364 0.929 . S
C1356 H1350 0.930 . S
C1356 C1357 1.367 . S
C1356 C1364 1.378 . S
C1357 C1356 1.367 . S
C1357 C1365 1.433 . S
C1358 H1354 0.929 . S
C1358 C1360 1.378 . S
C1358 C1362 1.350 . S
C1359 C1362 1.463 . S
C1359 C1364 1.350 . S
C1359 N1367 1.427 . S
C1360 H1351 0.930 . S
C1360 C1358 1.378 . S
C1360 C1361 1.367 . S
C1361 C1360 1.367 . S
C1361 C1363 1.433 . S
C1362 C1358 1.350 . S
C1362 C1359 1.463 . S
C1362 N1366 1.427 . S
C1363 H1353 0.929 . S
C1363 C1361 1.433 . S
C1363 N1366 1.384 . S
C1364 H1355 0.929 . S
C1364 C1356 1.378 . S
C1364 C1359 1.350 . S
C1365 H1352 0.929 . S
C1365 C1357 1.433 . S
C1365 N1367 1.384 . S
N1366 C1362 1.427 . S
N1366 C1363 1.384 . S
N1367 C1359 1.427 . S
N1367 C1365 1.384 . S
H1368 C1374 0.930 . S
H1369 C1378 0.930 . S
H1370 C1383 0.929 . S
H1371 C1381 0.929 . S
H1372 C1376 0.929 . S
H1373 C1382 0.929 . S
C1374 H1368 0.930 . S
C1374 C1375 1.367 . S
C1374 C1382 1.378 . S
C1375 C1374 1.367 . S
C1375 C1383 1.433 . S
C1376 H1372 0.929 . S
C1376 C1378 1.378 . S
C1376 C1380 1.350 . S
C1377 C1380 1.463 . S
C1377 C1382 1.350 . S
C1377 N1385 1.427 . S
C1378 H1369 0.930 . S
C1378 C1376 1.378 . S
C1378 C1379 1.367 . S
C1379 C1378 1.367 . S
C1379 C1381 1.433 . S
C1380 C1376 1.350 . S
C1380 C1377 1.463 . S
C1380 N1384 1.427 . S
C1381 H1371 0.929 . S
C1381 C1379 1.433 . S
C1381 N1384 1.384 . S
C1382 H1373 0.929 . S
C1382 C1374 1.378 . S
C1382 C1377 1.350 . S
C1383 H1370 0.929 . S
C1383 C1375 1.433 . S
C1383 N1385 1.384 . S
N1384 C1380 1.427 . S
N1384 C1381 1.384 . S
N1385 C1377 1.427 . S
N1385 C1383 1.384 . S
H1386 C1392 0.930 . S
H1387 C1396 0.930 . S
H1388 C1401 0.929 . S
H1389 C1399 0.929 . S
H1390 C1394 0.929 . S
H1391 C1400 0.929 . S
C1392 H1386 0.930 . S
C1392 C1393 1.367 . S
C1392 C1400 1.378 . S
C1393 C1392 1.367 . S
C1393 C1401 1.433 . S
C1394 H1390 0.929 . S
C1394 C1396 1.378 . S
C1394 C1398 1.350 . S
C1395 C1398 1.463 . S
C1395 C1400 1.350 . S
C1395 N1403 1.427 . S
C1396 H1387 0.930 . S
C1396 C1394 1.378 . S
C1396 C1397 1.367 . S
C1397 C1396 1.367 . S
C1397 C1399 1.433 . S
C1398 C1394 1.350 . S
C1398 C1395 1.463 . S
C1398 N1402 1.427 . S
C1399 H1389 0.929 . S
C1399 C1397 1.433 . S
C1399 N1402 1.384 . S
C1400 H1391 0.929 . S
C1400 C1392 1.378 . S
C1400 C1395 1.350 . S
C1401 H1388 0.929 . S
C1401 C1393 1.433 . S
C1401 N1403 1.384 . S
N1402 C1398 1.427 . S
N1402 C1399 1.384 . S
N1403 C1395 1.427 . S
N1403 C1401 1.384 . S
C601 N332 1.732 . S
C605 N2 1.723 . S
C619 N35 1.722 . S
C623 N365 1.757 . S
C637 N299 1.724 1_455 S
C641 N68 1.732 . S
C655 N464 1.733 . S
C659 N101 1.718 . S
C673 N134 1.723 . S
C677 N398 1.733 1_545 S
C691 N431 1.747 . S
C695 N167 1.735 . S
C709 C172 1.756 . S
C713 C469 1.758 . S
C727 C403 1.760 . S
C731 C106 1.757 . S
C745 C436 1.762 . S
C749 C139 1.761 . S
C763 C40 1.761 . S
C767 C337 1.759 . S
C781 C73 1.763 . S
C785 C370 1.762 . S
C799 C7 1.762 . S
C803 C304 1.761 . S
C817 N530 1.718 . S
C821 N200 1.735 . S
C835 N563 1.727 . S
C839 N233 1.723 . S
C853 N497 1.721 . S
C857 N266 1.730 . S
C871 C238 1.755 . S
C875 C535 1.756 . S
C889 C568 1.758 . S
C893 C271 1.756 . S
C907 C205 1.755 . S
C911 C502 1.754 . S
C925 C21 1.337 . S
C929 C582 1.337 . S
C943 C54 1.335 . S
C947 C516 1.334 . S
C961 C87 1.337 . S
C965 C549 1.338 . S
C979 C252 1.334 . S
C983 C120 1.335 . S
C997 C153 1.336 . S
C1001 C285 1.335 . S
C1015 C186 1.335 . S
C1019 C219 1.336 . S
C1033 C318 1.333 . S
C1037 C450 1.334 . S
C1051 C351 1.334 . S
C1055 C483 1.333 . S
C1069 C384 1.337 . S
C1073 C417 1.337 . S
C1087 N79 1.411 1_545 S
C1091 C18 1.425 . S
C1105 C51 1.426 . S
C1109 N13 1.411 . S
C1123 N46 1.411 . S
C1127 C84 1.425 . S
C1141 N145 1.411 1_455 S
C1145 C117 1.425 . S
C1159 C150 1.435 . S
C1163 N178 1.424 . S
C1177 N112 1.424 . S
C1181 C183 1.436 . S
C1195 C216 1.429 . S
C1199 N277 1.418 . S
C1213 N211 1.423 . S
C1217 C249 1.436 . S
C1231 C282 1.435 . S
C1235 N244 1.424 . S
C1249 C315 1.425 . S
C1253 N343 1.413 . S
C1267 N376 1.412 . S
C1271 C348 1.427 . S
C1285 C381 1.433 . S
C1289 N310 1.418 . S
C1303 C414 1.436 . S
C1307 N475 1.424 . S
C1321 N409 1.424 . S
C1325 C447 1.437 . S
C1339 C480 1.433 . S
C1343 N442 1.419 . S
C1357 C513 1.425 . S
C1361 N541 1.411 . S
C1375 N574 1.425 . S
C1379 C546 1.437 . S
C1393 N508 1.412 . S
C1397 C579 1.425 . S
