# Generated by pormake.
# Topology wiv, (6)-cn, num edge types: 1
# Building blocks:
#     Node 0, Type 0, BuildingBlock: CUKXOW_clean_sbu_0, # of connection points: 6
#     Node 1, Type 0, BuildingBlock: CUKXOW_clean_sbu_0, # of connection points: 6
#     Node 2, Type 0, BuildingBlock: CUKXOW_clean_sbu_0, # of connection points: 6
#     Node 3, Type 0, BuildingBlock: CUKXOW_clean_sbu_0, # of connection points: 6
#     Node 4, Type 0, BuildingBlock: CUKXOW_clean_sbu_0, # of connection points: 6
#     Node 5, Type 0, BuildingBlock: CUKXOW_clean_sbu_0, # of connection points: 6
#     Node 6, Type 0, BuildingBlock: CUKXOW_clean_sbu_0, # of connection points: 6
#     Node 7, Type 0, BuildingBlock: CUKXOW_clean_sbu_0, # of connection points: 6
#     Node 8, Type 0, BuildingBlock: CUKXOW_clean_sbu_0, # of connection points: 6
#     Node 9, Type 0, BuildingBlock: CUKXOW_clean_sbu_0, # of connection points: 6
#     Node 10, Type 0, BuildingBlock: CUKXOW_clean_sbu_0, # of connection points: 6
#     Node 11, Type 0, BuildingBlock: CUKXOW_clean_sbu_0, # of connection points: 6
#     Node 12, Type 0, BuildingBlock: CUKXOW_clean_sbu_0, # of connection points: 6
#     Node 13, Type 0, BuildingBlock: CUKXOW_clean_sbu_0, # of connection points: 6
#     Node 14, Type 0, BuildingBlock: CUKXOW_clean_sbu_0, # of connection points: 6
#     Node 15, Type 0, BuildingBlock: CUKXOW_clean_sbu_0, # of connection points: 6
#     Edge 16, Type (0, 0), BuildingBlock: EZIPEK_clean_linker_0, # of connection points: 2
#     Edge 17, Type (0, 0), BuildingBlock: EZIPEK_clean_linker_0, # of connection points: 2
#     Edge 18, Type (0, 0), BuildingBlock: EZIPEK_clean_linker_0, # of connection points: 2
#     Edge 19, Type (0, 0), BuildingBlock: EZIPEK_clean_linker_0, # of connection points: 2
#     Edge 20, Type (0, 0), BuildingBlock: EZIPEK_clean_linker_0, # of connection points: 2
#     Edge 21, Type (0, 0), BuildingBlock: EZIPEK_clean_linker_0, # of connection points: 2
#     Edge 22, Type (0, 0), BuildingBlock: EZIPEK_clean_linker_0, # of connection points: 2
#     Edge 23, Type (0, 0), BuildingBlock: EZIPEK_clean_linker_0, # of connection points: 2
#     Edge 24, Type (0, 0), BuildingBlock: EZIPEK_clean_linker_0, # of connection points: 2
#     Edge 25, Type (0, 0), BuildingBlock: EZIPEK_clean_linker_0, # of connection points: 2
#     Edge 26, Type (0, 0), BuildingBlock: EZIPEK_clean_linker_0, # of connection points: 2
#     Edge 27, Type (0, 0), BuildingBlock: EZIPEK_clean_linker_0, # of connection points: 2
#     Edge 28, Type (0, 0), BuildingBlock: EZIPEK_clean_linker_0, # of connection points: 2
#     Edge 29, Type (0, 0), BuildingBlock: EZIPEK_clean_linker_0, # of connection points: 2
#     Edge 30, Type (0, 0), BuildingBlock: EZIPEK_clean_linker_0, # of connection points: 2
#     Edge 31, Type (0, 0), BuildingBlock: EZIPEK_clean_linker_0, # of connection points: 2
#     Edge 32, Type (0, 0), BuildingBlock: EZIPEK_clean_linker_0, # of connection points: 2
#     Edge 33, Type (0, 0), BuildingBlock: EZIPEK_clean_linker_0, # of connection points: 2
#     Edge 34, Type (0, 0), BuildingBlock: EZIPEK_clean_linker_0, # of connection points: 2
#     Edge 35, Type (0, 0), BuildingBlock: EZIPEK_clean_linker_0, # of connection points: 2
#     Edge 36, Type (0, 0), BuildingBlock: EZIPEK_clean_linker_0, # of connection points: 2
#     Edge 37, Type (0, 0), BuildingBlock: EZIPEK_clean_linker_0, # of connection points: 2
#     Edge 38, Type (0, 0), BuildingBlock: EZIPEK_clean_linker_0, # of connection points: 2
#     Edge 39, Type (0, 0), BuildingBlock: EZIPEK_clean_linker_0, # of connection points: 2
#     Edge 40, Type (0, 0), BuildingBlock: EZIPEK_clean_linker_0, # of connection points: 2
#     Edge 41, Type (0, 0), BuildingBlock: EZIPEK_clean_linker_0, # of connection points: 2
#     Edge 42, Type (0, 0), BuildingBlock: EZIPEK_clean_linker_0, # of connection points: 2
#     Edge 43, Type (0, 0), BuildingBlock: EZIPEK_clean_linker_0, # of connection points: 2
#     Edge 44, Type (0, 0), BuildingBlock: EZIPEK_clean_linker_0, # of connection points: 2
#     Edge 45, Type (0, 0), BuildingBlock: EZIPEK_clean_linker_0, # of connection points: 2
#     Edge 46, Type (0, 0), BuildingBlock: EZIPEK_clean_linker_0, # of connection points: 2
#     Edge 47, Type (0, 0), BuildingBlock: EZIPEK_clean_linker_0, # of connection points: 2
#     Edge 48, Type (0, 0), BuildingBlock: EZIPEK_clean_linker_0, # of connection points: 2
#     Edge 49, Type (0, 0), BuildingBlock: EZIPEK_clean_linker_0, # of connection points: 2
#     Edge 50, Type (0, 0), BuildingBlock: EZIPEK_clean_linker_0, # of connection points: 2
#     Edge 51, Type (0, 0), BuildingBlock: EZIPEK_clean_linker_0, # of connection points: 2
#     Edge 52, Type (0, 0), BuildingBlock: EZIPEK_clean_linker_0, # of connection points: 2
#     Edge 53, Type (0, 0), BuildingBlock: EZIPEK_clean_linker_0, # of connection points: 2
#     Edge 54, Type (0, 0), BuildingBlock: EZIPEK_clean_linker_0, # of connection points: 2
#     Edge 55, Type (0, 0), BuildingBlock: EZIPEK_clean_linker_0, # of connection points: 2
#     Edge 56, Type (0, 0), BuildingBlock: EZIPEK_clean_linker_0, # of connection points: 2
#     Edge 57, Type (0, 0), BuildingBlock: EZIPEK_clean_linker_0, # of connection points: 2
#     Edge 58, Type (0, 0), BuildingBlock: EZIPEK_clean_linker_0, # of connection points: 2
#     Edge 59, Type (0, 0), BuildingBlock: EZIPEK_clean_linker_0, # of connection points: 2
#     Edge 60, Type (0, 0), BuildingBlock: EZIPEK_clean_linker_0, # of connection points: 2
#     Edge 61, Type (0, 0), BuildingBlock: EZIPEK_clean_linker_0, # of connection points: 2
#     Edge 62, Type (0, 0), BuildingBlock: EZIPEK_clean_linker_0, # of connection points: 2
#     Edge 63, Type (0, 0), BuildingBlock: EZIPEK_clean_linker_0, # of connection points: 2
# Relax obj value: 0.076
# Max RMSD: 0.162
# Mean RMSD: 0.162
data_MOF--net-wiv--node1-CUKXOW_clean_sbu_0--edge1-EZIPEK_clean_linker_0
_symmetry_space_group_name_H-M    P1
_symmetry_Int_Tables_number       1
_symmetry_cell_setting            triclinic
loop_
_symmetry_equiv_pos_as_xyz
'x, y, z'
_cell_length_a     49.058126
_cell_length_b     49.027266
_cell_length_c     10.59407
_cell_angle_alpha  89.838077
_cell_angle_beta   90.495612
_cell_angle_gamma 89.884298
loop_
_atom_site_label
_atom_site_type_symbol
_atom_site_fract_x
_atom_site_fract_y
_atom_site_fract_z
_atom_type_partial_charge
Tb0 Tb 0.40499 0.12861 0.18148 0.0
C1 C 0.38027 0.18863 0.16535 0.0
Tb2 Tb 0.34535 0.13566 0.16174 0.0
O3 O 0.40704 0.11289 0.98723 0.0
O4 O 0.37785 0.14123 1.0324 0.0
O5 O 0.40177 0.17331 0.19476 0.0
C6 C 0.29618 0.13469 0.04914 0.0
O7 O 0.35652 0.17803 0.13212 0.0
C8 C 0.36368 0.14004 0.39924 0.0
C9 C 0.36883 0.07627 0.21097 0.0
O10 O 0.30111 0.14397 0.162 0.0
O11 O 0.31865 0.12553 1.00268 0.0
O12 O 0.34178 0.15175 0.35433 0.0
O13 O 0.37254 0.12416 0.31407 0.0
O14 O 0.34795 0.09084 0.1672 0.0
O15 O 0.39241 0.08786 0.24093 0.0
C16 C 0.45824 0.12733 0.24259 0.0
O17 O 0.44636 0.11197 0.1598 0.0
O18 O 0.44029 0.14358 0.29057 0.0
C19 C 0.38555 0.12541 0.94541 0.0
Tb20 Tb 0.13598 0.64311 0.95775 0.0
C21 C 0.07648 0.61772 0.92902 0.0
Tb22 Tb 0.1293 0.58042 0.94131 0.0
O23 O 0.15258 0.64591 0.76633 0.0
O24 O 0.12606 0.61438 0.81268 0.0
O25 O 0.09152 0.63976 0.9513 0.0
C26 C 0.12791 0.53148 0.83382 0.0
O27 O 0.0869 0.5928 0.91778 0.0
C28 C 0.13209 0.59594 0.18329 0.0
C29 C 0.18891 0.60605 0.9623 0.0
O30 O 0.11275 0.53908 0.92751 0.0
O31 O 0.14383 0.55134 0.80094 0.0
O32 O 0.12968 0.57071 0.14687 0.0
O33 O 0.13275 0.60999 0.08282 0.0
O34 O 0.1736 0.58406 0.9467 0.0
O35 O 0.17855 0.63098 0.97304 0.0
C36 C 0.13618 0.69199 0.06821 0.0
O37 O 0.14614 0.66972 0.11632 0.0
O38 O 0.12653 0.68688 0.95586 0.0
C39 C 0.14175 0.62318 0.72626 0.0
Tb40 Tb 0.58244 0.8675 0.19302 0.0
C41 C 0.61544 0.81111 0.1823 0.0
Tb42 Tb 0.64771 0.8668 0.17147 0.0
O43 O 0.57405 0.87284 0.98766 0.0
O44 O 0.61278 0.87049 0.0543 0.0
O45 O 0.59204 0.82386 0.2064 0.0
C46 C 0.69574 0.86532 0.05472 0.0
O47 O 0.6389 0.82353 0.15935 0.0
C48 C 0.63117 0.86339 0.41253 0.0
C49 C 0.6155 0.9229 0.20502 0.0
O50 O 0.67394 0.85242 1.01923 0.0
O51 O 0.69064 0.87899 0.15693 0.0
O52 O 0.65662 0.8634 0.37719 0.0
O53 O 0.61739 0.86378 0.31052 0.0
O54 O 0.63839 0.91053 0.16938 0.0
O55 O 0.59199 0.91021 0.22489 0.0
C56 C 0.53172 0.86733 0.28288 0.0
O57 O 0.55171 0.88194 0.3268 0.0
O58 O 0.54036 0.85275 0.18915 0.0
C59 C 0.59934 0.87168 0.95179 0.0
Tb60 Tb 0.86535 0.34849 0.89094 0.0
C61 C 0.92264 0.37527 0.84569 0.0
Tb62 Tb 0.86769 0.40913 0.87889 0.0
O63 O 0.87628 0.34215 0.69374 0.0
O64 O 0.85674 0.37801 0.74632 0.0
O65 O 0.90938 0.35234 0.86936 0.0
C66 C 0.87297 0.46178 0.81929 0.0
O67 O 0.91052 0.39944 0.84318 0.0
C68 C 0.86069 0.38903 0.11005 0.0
C69 C 0.80993 0.38281 0.88658 0.0
O70 O 0.88026 0.4508 0.9257 0.0
O71 O 0.86271 0.44324 0.74631 0.0
O72 O 0.85186 0.41257 0.07124 0.0
O73 O 0.87547 0.3794 1.02311 0.0
O74 O 0.82384 0.40507 0.8586 0.0
O75 O 0.82195 0.35909 0.9126 0.0
C76 C 0.86268 0.29921 1.00188 0.0
O77 O 0.84683 0.3078 0.91089 0.0
O78 O 0.88017 0.31818 1.02707 0.0
C79 C 0.86912 0.36649 0.65574 0.0
Tb80 Tb 0.41538 0.36259 0.17552 0.0
C81 C 0.38667 0.30662 0.17586 0.0
Tb82 Tb 0.35501 0.3635 0.1841 0.0
O83 O 0.41784 0.34596 0.36791 0.0
O84 O 0.38618 0.37198 0.31879 0.0
O85 O 0.40889 0.31959 0.13985 0.0
C86 C 0.30505 0.36102 0.28762 0.0
O87 O 0.36439 0.31984 0.21163 0.0
C88 C 0.37315 0.36714 0.95 0.0
C89 C 0.38525 0.42013 0.16107 0.0
O90 O 0.31489 0.34391 0.20622 0.0
O91 O 0.32305 0.37988 0.30605 0.0
O92 O 0.34923 0.37544 0.98631 0.0
O93 O 0.38376 0.35367 0.04079 0.0
O94 O 0.36146 0.40736 0.16674 0.0
O95 O 0.40859 0.40666 0.16939 0.0
C96 C 0.46739 0.36781 0.10465 0.0
O97 O 0.44625 0.37109 1.03191 0.0
O98 O 0.45929 0.36172 0.2174 0.0
C99 C 0.3951 0.35656 0.40633 0.0
Tb100 Tb 0.35947 0.64669 0.93405 0.0
C101 C 0.4194 0.62267 0.95974 0.0
Tb102 Tb 0.36705 0.58654 0.95396 0.0
O103 O 0.34467 0.65019 0.12841 0.0
O104 O 0.37226 0.61958 0.08349 0.0
O105 O 0.40399 0.6435 0.92252 0.0
C106 C 0.36992 0.53426 1.03052 0.0
O107 O 0.40887 0.59881 0.9915 0.0
C108 C 0.37007 0.60609 0.71903 0.0
C109 C 0.30678 0.61128 0.95176 0.0
O110 O 0.36486 0.55503 0.10182 0.0
O111 O 0.37314 0.5429 0.91586 0.0
O112 O 0.38334 0.58499 0.76121 0.0
O113 O 0.35402 0.61362 0.80593 0.0
O114 O 0.32251 0.58943 0.9679 0.0
O115 O 0.31659 0.63582 0.92631 0.0
C116 C 0.35941 0.69627 0.82527 0.0
O117 O 0.35857 0.67313 0.76696 0.0
O118 O 0.3602 0.69164 0.94621 0.0
C119 C 0.35684 0.62832 0.17087 0.0
Tb120 Tb 0.58661 0.63669 0.13771 0.0
C121 C 0.61789 0.69311 0.16246 0.0
Tb122 Tb 0.65005 0.63705 0.16433 0.0
O123 O 0.58146 0.64688 0.33778 0.0
O124 O 0.61617 0.62743 0.28051 0.0
O125 O 0.59483 0.68058 0.13021 0.0
C126 C 0.69725 0.638 0.28863 0.0
O127 O 0.64109 0.68018 0.18653 0.0
C128 C 0.63527 0.64177 0.92051 0.0
C129 C 0.62012 0.58163 0.10911 0.0
O130 O 0.6756 0.65151 0.31973 0.0
O131 O 0.69255 0.62401 0.18663 0.0
O132 O 0.66037 0.64244 0.96227 0.0
O133 O 0.62068 0.64018 1.0186 0.0
O134 O 0.64223 0.59331 0.1578 0.0
O135 O 0.5973 0.59516 0.08186 0.0
C136 C 0.53474 0.6321 0.06442 0.0
O137 O 0.5467 0.61687 0.14863 0.0
O138 O 0.55184 0.64991 1.0216 0.0
C139 C 0.60564 0.63932 0.37456 0.0
Tb140 Tb 0.63817 0.35072 0.88912 0.0
C141 C 0.58069 0.3775 0.95112 0.0
Tb142 Tb 0.63296 0.41546 0.90689 0.0
O143 O 0.63978 0.3412 0.09309 0.0
O144 O 0.63702 0.38109 1.02965 0.0
O145 O 0.59416 0.35511 0.91659 0.0
C146 C 0.62856 0.46678 0.98678 0.0
O147 O 0.5921 0.40206 0.95878 0.0
C148 C 0.63377 0.39812 0.66639 0.0
C149 C 0.69157 0.38847 0.8858 0.0
O150 O 0.6105 0.45383 0.91984 0.0
O151 O 0.64915 0.45071 1.01012 0.0
O152 O 0.63184 0.42353 0.69971 0.0
O153 O 0.63458 0.38492 0.76898 0.0
O154 O 0.67708 0.41087 0.9076 0.0
O155 O 0.68042 0.36406 0.86512 0.0
C156 C 0.63925 0.30301 0.76933 0.0
O157 O 0.65635 0.3104 0.85723 0.0
O158 O 0.62145 0.32221 0.75067 0.0
C159 C 0.63826 0.36658 0.12948 0.0
Tb160 Tb 0.91049 0.63083 0.72105 0.0
C161 C 0.88287 0.68872 0.69498 0.0
Tb162 Tb 0.84589 0.63593 0.69253 0.0
O163 O 0.91955 0.6301 0.51491 0.0
O164 O 0.88069 0.63321 0.57676 0.0
O165 O 0.90406 0.67459 0.7393 0.0
C166 C 0.79734 0.63706 0.57911 0.0
O167 O 0.85988 0.67734 0.65371 0.0
C168 C 0.86187 0.63484 0.93653 0.0
C169 C 0.87276 0.57843 0.73798 0.0
O170 O 0.80625 0.6554 0.65772 0.0
O171 O 0.81552 0.61809 0.56607 0.0
O172 O 0.83652 0.63598 0.89861 0.0
O173 O 0.87575 0.63404 0.83657 0.0
O174 O 0.85197 0.59204 0.68748 0.0
O175 O 0.89584 0.59033 0.77513 0.0
C176 C 0.96153 0.62687 0.80602 0.0
O177 O 0.94851 0.6081 0.74394 0.0
O178 O 0.9457 0.64785 0.82168 0.0
C179 C 0.89443 0.63224 0.47645 0.0
Tb180 Tb 0.63157 0.1523 0.38206 0.0
C181 C 0.57496 0.12487 0.33941 0.0
Tb182 Tb 0.63011 0.09167 0.36976 0.0
O183 O 0.62072 0.15854 0.1828 0.0
O184 O 0.64 0.12296 0.23742 0.0
O185 O 0.5876 0.14662 0.38408 0.0
C186 C 0.62429 0.03865 0.31165 0.0
O187 O 0.58822 0.10206 0.31317 0.0
C188 C 0.63625 0.11128 0.60373 0.0
C189 C 0.68703 0.11921 0.37606 0.0
O190 O 0.60563 0.05419 0.35919 0.0
O191 O 0.64617 0.05295 0.29719 0.0
O192 O 0.64425 0.08743 0.56673 0.0
O193 O 0.62208 0.12109 0.5144 0.0
O194 O 0.67326 0.09779 0.33503 0.0
O195 O 0.67464 0.14172 0.41431 0.0
C196 C 0.63436 0.20249 0.48295 0.0
O197 O 0.6538 0.19045 0.42201 0.0
O198 O 0.61332 0.18672 0.48219 0.0
C199 C 0.62753 0.13417 0.14589 0.0
Tb200 Tb 0.08996 0.36474 0.65663 0.0
C201 C 0.11493 0.30612 0.64705 0.0
Tb202 Tb 0.15077 0.36025 0.64462 0.0
O203 O 0.08582 0.3498 0.46213 0.0
O204 O 0.11978 0.37212 0.51415 0.0
O205 O 0.093 0.3207 0.67367 0.0
C206 C 0.20049 0.35478 0.5434 0.0
O207 O 0.13917 0.3172 0.6259 0.0
C208 C 0.1319 0.36624 0.87876 0.0
C209 C 0.12626 0.41862 0.6747 0.0
O210 O 0.19472 0.35121 0.66197 0.0
O211 O 0.17824 0.36079 0.48292 0.0
O212 O 0.15605 0.37338 0.8413 0.0
O213 O 0.12096 0.35298 0.78852 0.0
O214 O 0.14773 0.4045 0.63732 0.0
O215 O 0.10214 0.40706 0.69243 0.0
C216 C 0.03794 0.37201 0.72524 0.0
O217 O 0.0478 0.37716 0.61448 0.0
O218 O 0.05737 0.36296 0.79763 0.0
C219 C 0.10956 0.35808 0.42503 0.0
Tb220 Tb 0.35909 0.8496 0.45226 0.0
C221 C 0.41785 0.87687 0.42042 0.0
Tb222 Tb 0.36325 0.91023 0.43716 0.0
O223 O 0.34339 0.84621 0.25761 0.0
O224 O 0.36915 0.87791 0.30553 0.0
O225 O 0.40381 0.85433 0.44563 0.0
C226 C 0.36259 0.96245 0.35975 0.0
O227 O 0.40601 0.90097 0.40494 0.0
C228 C 0.36842 0.8898 0.67038 0.0
C229 C 0.30476 0.88274 0.44675 0.0
O230 O 0.35948 0.95421 0.47528 0.0
O231 O 0.36574 0.94133 0.28839 0.0
O232 O 0.38048 0.91168 0.62969 0.0
O233 O 0.35252 0.88187 0.58276 0.0
O234 O 0.31903 0.9046 0.41442 0.0
O235 O 0.31646 0.85959 0.48244 0.0
C236 C 0.3615 0.79974 0.55691 0.0
O237 O 0.35261 0.80508 0.44352 0.0
O238 O 0.36935 0.82221 0.6091 0.0
C239 C 0.35398 0.86894 0.21712 0.0
Tb240 Tb 0.90932 0.86498 0.63722 0.0
C241 C 0.88149 0.8071 0.66942 0.0
Tb242 Tb 0.84434 0.86111 0.65436 0.0
O243 O 0.91754 0.86536 0.84462 0.0
O244 O 0.87874 0.86395 0.77411 0.0
O245 O 0.90421 0.82113 0.64981 0.0
C246 C 0.79689 0.86275 0.77502 0.0
O247 O 0.85691 0.81853 0.68108 0.0
C248 C 0.86037 0.86109 0.41418 0.0
C249 C 0.87236 0.91822 0.59614 0.0
O250 O 0.80289 0.84585 0.68477 0.0
O251 O 0.81747 0.87875 0.79625 0.0
O252 O 0.83496 0.85985 0.44955 0.0
O253 O 0.87471 0.86198 0.51496 0.0
O254 O 0.84959 0.90485 0.62439 0.0
O255 O 0.89694 0.9067 0.59298 0.0
C256 C 0.9595 0.8657 0.54403 0.0
O257 O 0.95037 0.88214 0.62994 0.0
O258 O 0.94034 0.84896 0.50955 0.0
C259 C 0.89203 0.8642 0.87699 0.0
Tb260 Tb 0.86319 0.14408 0.36083 0.0
C261 C 0.91903 0.11238 0.3871 0.0
Tb262 Tb 0.86056 0.08399 0.37127 0.0
O263 O 0.87796 0.14785 0.55509 0.0
O264 O 0.85238 0.11555 0.50547 0.0
O265 O 0.90705 0.13655 0.37282 0.0
C266 C 0.86443 0.03185 0.44389 0.0
O267 O 0.90471 0.08956 0.38541 0.0
C268 C 0.85625 0.1045 0.13956 0.0
C269 C 0.80515 0.11434 0.36693 0.0
O270 O 0.86606 0.05276 0.51792 0.0
O271 O 0.86069 0.04023 0.32891 0.0
O272 O 0.84468 0.08217 0.17728 0.0
O273 O 0.8716 0.11276 0.22864 0.0
O274 O 0.81746 0.09131 0.3988 0.0
O275 O 0.81894 0.13686 0.33886 0.0
C276 C 0.86126 0.19438 0.26063 0.0
O277 O 0.85393 0.188 0.37461 0.0
O278 O 0.86964 0.17254 0.20439 0.0
C279 C 0.86728 0.12508 0.59411 0.0
Tb280 Tb 0.0834 0.13104 0.62964 0.0
C281 C 0.11071 0.18828 0.64597 0.0
Tb282 Tb 0.14476 0.13283 0.64925 0.0
O283 O 0.07935 0.14648 0.82353 0.0
O284 O 0.1128 0.12298 0.77635 0.0
O285 O 0.08852 0.17485 0.61065 0.0
C286 C 0.19357 0.13339 0.76755 0.0
O287 O 0.13392 0.17589 0.67703 0.0
C288 C 0.12665 0.1291 0.41195 0.0
C289 C 0.11752 0.07559 0.61054 0.0
O290 O 0.18557 0.15067 0.68105 0.0
O291 O 0.17439 0.11569 0.78311 0.0
O292 O 0.15135 0.12298 0.44919 0.0
O293 O 0.11547 0.14128 0.5038 0.0
O294 O 0.14046 0.08897 0.63205 0.0
O295 O 0.09331 0.08771 0.60569 0.0
C296 C 0.03226 0.12507 0.54129 0.0
O297 O 0.05333 0.13149 0.47466 0.0
O298 O 0.04 0.12182 0.65798 0.0
C299 C 0.10283 0.13746 0.86411 0.0
Tb300 Tb 0.1336 0.84703 0.42306 0.0
C301 C 0.07421 0.87185 0.43207 0.0
Tb302 Tb 0.12677 0.90706 0.43614 0.0
O303 O 0.14836 0.84379 0.61929 0.0
O304 O 0.12158 0.87468 0.56918 0.0
O305 O 0.08964 0.8517 0.38937 0.0
C306 C 0.12437 0.95982 0.50163 0.0
O307 O 0.08489 0.89514 0.47121 0.0
C308 C 0.1219 0.88676 0.20322 0.0
C309 C 0.18673 0.8817 0.43984 0.0
O310 O 0.12497 0.95053 0.38734 0.0
O311 O 0.12557 0.93943 0.57938 0.0
O312 O 0.1092 0.90815 0.24446 0.0
O313 O 0.13835 0.8793 0.28985 0.0
O314 O 0.17137 0.90372 0.45641 0.0
O315 O 0.17643 0.85737 0.41626 0.0
C316 C 0.13516 0.79645 0.32669 0.0
O317 O 0.15018 0.81681 0.29315 0.0
O318 O 0.11956 0.80435 0.41825 0.0
C319 C 0.13683 0.86614 0.6584 0.0
C320 C 0.38446 0.00051 0.23635 0.0
C321 C 0.36319 0.99132 0.31621 0.0
C322 C 0.34522 0.03799 0.32704 0.0
C323 C 0.36528 0.04676 0.23987 0.0
N324 N 0.39983 0.03503 0.08909 0.0
N325 N 0.31966 0.0001 0.4126 0.0
C326 C 0.38363 0.02758 0.18762 0.0
C327 C 0.3425 0.00971 0.35446 0.0
N328 N 0.40633 0.98403 0.21255 0.0
N329 N 0.32953 0.05668 0.38844 0.0
H330 H 0.31642 0.97946 0.43093 0.0
H331 H 0.30268 0.01222 0.43078 0.0
H332 H 0.33069 0.07751 0.37089 0.0
H333 H 0.31707 0.05174 0.46424 0.0
H334 H 0.42368 0.99074 0.16584 0.0
H335 H 0.40853 0.9645 0.2504 0.0
H336 H 0.41156 0.02119 0.03842 0.0
H337 H 0.39941 0.05455 0.04956 0.0
C338 C 0.00025 0.63188 0.96145 0.0
C339 C 0.99097 0.62589 0.83752 0.0
C340 C 0.03746 0.61407 0.77503 0.0
C341 C 0.04713 0.62152 0.89726 0.0
N342 N 0.03841 0.64369 0.09663 0.0
N343 N 0.0017 0.61897 0.61799 0.0
C344 C 0.02877 0.63246 0.98725 0.0
C345 C 0.00981 0.61902 0.74195 0.0
N346 N 0.98186 0.6358 0.05602 0.0
N347 N 0.05464 0.60254 0.68917 0.0
H348 H 0.98196 0.62388 0.5885 0.0
H349 H 0.01519 0.61713 0.54307 0.0
H350 H 0.07561 0.60081 0.70249 0.0
H351 H 0.04781 0.59331 0.6063 0.0
H352 H 0.98738 0.63719 0.15093 0.0
H353 H 0.96082 0.6352 0.04147 0.0
H354 H 0.02618 0.65444 0.15922 0.0
H355 H 0.05903 0.64465 0.11943 0.0
C356 C 0.62317 0.97107 0.13223 0.0
C357 C 0.61658 0.95265 0.23062 0.0
C358 C 0.61273 0.99085 0.37951 0.0
C359 C 0.62149 0.00907 0.28337 0.0
N360 N 0.63772 0.01635 0.07097 0.0
N361 N 0.60798 0.94411 0.45123 0.0
C362 C 0.62764 -0.00091 0.16073 0.0
C363 C 0.61185 0.96232 0.3549 0.0
N364 N 0.62369 0.96198 1.01029 0.0
N365 N 0.60565 0.0007 0.49546 0.0
H366 H 0.60682 0.92311 0.43788 0.0
H367 H 0.60794 0.94941 0.54627 0.0
H368 H 0.60906 0.02072 0.52391 0.0
H369 H 0.59527 0.98929 0.56261 0.0
H370 H 0.62547 0.97475 0.93215 0.0
H371 H 0.6197 0.94178 0.98585 0.0
H372 H 0.64591 0.00972 0.98605 0.0
H373 H 0.63946 0.03732 0.08348 0.0
C374 C 0.96133 0.36122 0.70455 0.0
C375 C 0.95231 0.37397 0.81707 0.0
C376 C -0.00053 0.38766 0.86439 0.0
C377 C 0.00857 0.37263 0.75832 0.0
N378 N -0.00135 0.33973 0.59519 0.0
N379 N 0.96329 0.39566 1.01494 0.0
C380 C 0.98965 0.35788 0.6834 0.0
C381 C 0.97155 0.38616 0.90027 0.0
N382 N 0.94295 0.35345 0.61431 0.0
N383 N 0.01722 0.4043 0.92749 0.0
H384 H 0.94306 0.3948 0.04426 0.0
H385 H 0.97674 0.40217 0.08512 0.0
H386 H 0.03755 0.40641 0.90161 0.0
H387 H 0.01126 0.41787 0.99757 0.0
H388 H 0.94852 0.34692 0.52462 0.0
H389 H 0.92215 0.35636 0.62403 0.0
H390 H 0.98573 0.32631 0.54765 0.0
H391 H 0.01924 0.33594 0.57886 0.0
C392 C 0.36347 0.46581 0.20112 0.0
C393 C 0.38514 0.45073 0.14599 0.0
C394 C 0.40052 0.49328 0.04402 0.0
C395 C 0.37558 0.50604 0.07581 0.0
N396 N 0.33205 0.50372 0.17939 0.0
N397 N 0.42559 0.45173 1.01275 0.0
C398 C 0.35677 0.4922 0.15379 0.0
C399 C 0.40422 0.4649 0.06791 0.0
N400 N 0.35012 0.45549 0.30331 0.0
N401 N 0.42143 0.50861 0.99712 0.0
H402 H 0.43243 0.43238 1.03637 0.0
H403 H 0.43647 0.46012 0.93807 0.0
H404 H 0.42003 0.52962 0.98281 0.0
H405 H 0.44116 0.50115 0.98608 0.0
H406 H 0.33571 0.46654 0.35376 0.0
H407 H 0.35604 0.43734 0.34753 0.0
H408 H 0.31647 0.49321 0.22463 0.0
H409 H 0.32619 0.52288 0.14569 0.0
C410 C 0.48756 0.65118 0.07427 0.0
C411 C 0.50555 0.63076 1.03003 0.0
C412 C 0.46767 0.60824 0.92014 0.0
C413 C 0.44918 0.62669 0.97726 0.0
N414 N 0.4412 0.66316 0.12572 0.0
N415 N 0.51304 0.58845 0.92017 0.0
C416 C 0.45902 0.6477 0.05784 0.0
C417 C 0.49568 0.60882 0.95585 0.0
N418 N 0.49767 0.67384 0.13321 0.0
N419 N 0.45863 0.59096 0.82783 0.0
H420 H 0.53394 0.58887 0.93917 0.0
H421 H 0.50651 0.57033 0.87889 0.0
H422 H 0.43844 0.59066 0.79628 0.0
H423 H 0.4715 0.57886 0.77388 0.0
H424 H 0.48584 0.69092 0.15349 0.0
H425 H 0.51831 0.67655 0.15369 0.0
H426 H 0.44721 0.67641 0.19736 0.0
H427 H 0.42017 0.66103 0.1191 0.0
C428 C 0.62145 0.54388 0.9499 0.0
C429 C 0.62142 0.55214 0.07825 0.0
C430 C 0.62827 0.50466 0.14677 0.0
C431 C 0.62704 0.49621 1.01865 0.0
N432 N 0.6217 0.50712 0.79723 0.0
N433 N 0.61989 0.54063 0.299 0.0
C434 C 0.62326 0.51565 0.92001 0.0
C435 C 0.62369 0.5326 0.17685 0.0
N436 N 0.62091 0.56319 0.85643 0.0
N437 N 0.6336 0.48595 0.23983 0.0
H438 H 0.61543 0.56072 0.32341 0.0
H439 H 0.61861 0.52723 0.37506 0.0
H440 H 0.6351 0.46506 0.22326 0.0
H441 H 0.6381 0.49115 0.33286 0.0
H442 H 0.62428 0.55915 0.76151 0.0
H443 H 0.61855 0.58392 0.8742 0.0
H444 H 0.61501 0.51934 0.72271 0.0
H445 H 0.62641 0.48734 0.76888 0.0
C446 C 0.5142 0.3877 0.13248 0.0
C447 C 0.49623 0.37034 0.06504 0.0
C448 C 0.53253 0.36021 0.91443 0.0
C449 C 0.55152 0.37495 0.99016 0.0
N450 N 0.56081 0.39824 0.18771 0.0
N451 N 0.48976 0.33571 0.90623 0.0
C452 C 0.54247 0.3875 0.10376 0.0
C453 C 0.50579 0.35536 0.96003 0.0
N454 N 0.50418 0.40528 0.22076 0.0
N455 N 0.5394 0.35199 0.79592 0.0
H456 H 0.47025 0.33107 0.93805 0.0
H457 H 0.49685 0.32215 0.8384 0.0
H458 H 0.55823 0.35613 0.75646 0.0
H459 H 0.52544 0.3438 0.73185 0.0
H460 H 0.51589 0.42054 0.2626 0.0
H461 H 0.48354 0.40655 0.24284 0.0
H462 H 0.55547 0.4047 0.27779 0.0
H463 H 0.58179 0.39805 0.17417 0.0
C464 C 0.89138 0.50305 0.7094 0.0
C465 C 0.87227 0.49138 0.79313 0.0
C466 C 0.84974 0.53569 0.81797 0.0
C467 C 0.87096 0.54819 0.74773 0.0
N468 N 0.91087 0.54394 0.61722 0.0
N469 N 0.83458 0.49621 0.93599 0.0
C470 C 0.89148 0.53186 0.69063 0.0
C471 C 0.85182 0.50758 0.84971 0.0
N472 N 0.90916 0.48645 0.64682 0.0
N473 N 0.82712 0.55022 0.85148 0.0
H474 H 0.83428 0.47542 0.9569 0.0
H475 H 0.82183 0.50763 0.99364 0.0
H476 H 0.8244 0.57087 0.83287 0.0
H477 H 0.80968 0.5413 0.88855 0.0
H478 H 0.92181 0.49295 0.57449 0.0
H479 H 0.91036 0.46548 0.66284 0.0
H480 H 0.92842 0.53415 0.58647 0.0
H481 H 0.90971 0.56424 0.58796 0.0
C482 C 0.52778 0.10613 0.37448 0.0
C483 C 0.54487 0.12601 0.31789 0.0
C484 C 0.50442 0.14877 0.22726 0.0
C485 C 0.48784 0.12725 0.27209 0.0
N486 N 0.4837 0.08373 0.37647 0.0
N487 N 0.54971 0.16347 0.17106 0.0
C488 C 0.49954 0.10534 0.34172 0.0
C489 C 0.53325 0.14674 0.23984 0.0
N490 N 0.5382 0.08889 0.4645 0.0
N491 N 0.49266 0.17117 0.17179 0.0
H492 H 0.57083 0.1622 0.17399 0.0
H493 H 0.5425 0.17679 0.10162 0.0
H494 H 0.47177 0.17288 0.15467 0.0
H495 H 0.50338 0.18893 0.15127 0.0
H496 H 0.52625 0.07586 0.51847 0.0
H497 H 0.55849 0.08944 0.49446 0.0
H498 H 0.49161 0.0657 0.41409 0.0
H499 H 0.46272 0.08305 0.35997 0.0
C500 C 0.15176 0.48677 0.80861 0.0
C501 C 0.12891 0.50354 0.78175 0.0
C502 C 0.10839 0.46667 0.65758 0.0
C503 C 0.12902 0.44845 0.70129 0.0
N504 N 0.16896 0.44109 0.83457 0.0
N505 N 0.08441 0.50947 0.68752 0.0
C506 C 0.15059 0.45852 0.77958 0.0
C507 C 0.10687 0.49347 0.70842 0.0
N508 N 0.17459 0.49766 0.86363 0.0
N509 N 0.09103 0.45878 0.56301 0.0
H510 H 0.08317 0.52969 0.71742 0.0
H511 H 0.06638 0.50216 0.64761 0.0
H512 H 0.09255 0.4399 0.51862 0.0
H513 H 0.07718 0.47192 0.51903 0.0
H514 H 0.19311 0.48728 0.86982 0.0
H515 H 0.17583 0.51779 0.89449 0.0
H516 H 0.18242 0.44691 0.90607 0.0
H517 H 0.16957 0.42033 0.81768 0.0
C518 C 0.48296 0.87719 0.22716 0.0
C519 C 0.50274 0.87005 0.32009 0.0
C520 C 0.46728 0.8706 0.48252 0.0
C521 C 0.44715 0.87448 0.3872 0.0
N522 N 0.4354 0.87819 0.16594 0.0
N523 N 0.51357 0.85662 0.53389 0.0
C524 C 0.45489 0.87681 0.25869 0.0
C525 C 0.49488 0.86589 0.4474 0.0
N526 N 0.49101 0.88588 0.11044 0.0
N527 N 0.46023 0.87263 0.60655 0.0
H528 H 0.53391 0.85292 0.51159 0.0
H529 H 0.50847 0.85046 0.62481 0.0
H530 H 0.44043 0.87714 0.63456 0.0
H531 H 0.47433 0.87259 0.68058 0.0
H532 H 0.47767 0.8942 0.04362 0.0
H533 H 0.51138 0.88753 0.08438 0.0
H534 H 0.43968 0.87633 0.07019 0.0
H535 H 0.41466 0.87909 0.18478 0.0
C536 C 0.85413 0.96605 0.62898 0.0
C537 C 0.87016 0.94746 0.55788 0.0
C538 C 0.88497 0.98529 0.42248 0.0
C539 C 0.86655 0.00297 0.48411 0.0
N540 N 0.8294 0.00882 0.6296 0.0
N541 N 0.89564 0.93889 0.36652 0.0
C542 C 0.84996 0.99301 0.58294 0.0
C543 C 0.88417 0.95692 0.44892 0.0
N544 N 0.84375 0.95852 0.74309 0.0
N545 N 0.90403 0.99564 0.34211 0.0
H546 H 0.89465 0.91781 0.37721 0.0
H547 H 0.90343 0.94476 0.27937 0.0
H548 H 0.90588 0.01641 0.32273 0.0
H549 H 0.91983 0.98394 0.30534 0.0
H550 H 0.83464 0.97225 0.80473 0.0
H551 H 0.84651 0.93926 0.78227 0.0
H552 H 0.81481 0.00145 0.69182 0.0
H553 H 0.82517 0.02845 0.59672 0.0
C554 C 0.99095 0.09516 0.51971 0.0
C555 C 0.00433 0.11992 0.49031 0.0
C556 C 0.96557 0.13274 0.35475 0.0
C557 C 0.94959 0.1114 0.40707 0.0
N558 N 0.94903 0.07032 0.53892 0.0
N559 N 0.00322 0.16381 0.38647 0.0
C560 C 0.96281 0.09187 0.48838 0.0
C561 C 0.99144 0.13905 0.40878 0.0
N562 N 0.00552 0.07399 0.57119 0.0
N563 N 0.95663 0.14617 0.24901 0.0
H564 H 0.02182 0.16963 0.4262 0.0
H565 H 0.99323 0.17952 0.33821 0.0
H566 H 0.93902 0.14039 0.20006 0.0
H567 H 0.96845 0.16037 0.20085 0.0
H568 H 0.99777 0.05433 0.58103 0.0
H569 H 0.02635 0.07509 0.59112 0.0
H570 H 0.95628 0.05945 0.61704 0.0
H571 H 0.93058 0.06287 0.50592 0.0
C572 C 0.14081 0.00768 0.47436 0.0
C573 C 0.12331 0.98912 0.5363 0.0
C574 C 0.1044 0.02696 0.65991 0.0
C575 C 0.11927 0.04578 0.58541 0.0
N576 N 0.14685 0.05375 0.4009 0.0
N577 N 0.08498 0.98167 0.67402 0.0
C578 C 0.13621 0.03607 0.487 0.0
C579 C 0.1042 -0.00115 0.62587 0.0
N580 N 0.16254 -0.00169 0.40699 0.0
N581 N 0.09119 0.0357 0.76544 0.0
H582 H 0.08356 0.96116 0.64938 0.0
H583 H 0.06882 0.98837 0.72915 0.0
H584 H 0.09124 0.05601 0.79458 0.0
H585 H 0.08241 0.02245 0.83044 0.0
H586 H 0.17745 0.01116 0.3705 0.0
H587 H 0.16745 0.97767 0.39986 0.0
H588 H 0.15695 0.0474 0.31994 0.0
H589 H 0.14283 0.07453 0.40224 0.0
C590 C 0.03393 0.84572 0.51677 0.0
C591 C 0.04428 0.86786 0.44445 0.0
C592 C -0.00167 0.8877 0.4301 0.0
C593 C 0.988 0.86523 0.49925 0.0
N594 N 0.99456 0.82001 0.58504 0.0
N595 N 0.03539 0.90592 0.30564 0.0
C596 C 0.00532 0.84321 0.53385 0.0
C597 C 0.02617 0.88771 0.39328 0.0
N598 N 0.0514 0.82817 0.5772 0.0
N599 N 0.98159 0.90915 0.40043 0.0
H600 H 0.05539 0.90577 0.27314 0.0
H601 H 0.02274 0.91928 0.25577 0.0
H602 H 0.96071 0.9091 0.41842 0.0
H603 H 0.98861 0.92758 0.36416 0.0
H604 H 0.04519 0.81398 0.64429 0.0
H605 H 0.07247 0.82914 0.5691 0.0
H606 H 0.0057 0.80209 0.59777 0.0
H607 H 0.97396 0.8178 0.60575 0.0
C608 C 0.38692 0.23338 0.05367 0.0
C609 C 0.38284 0.21878 0.1678 0.0
C610 C 0.38468 0.26154 0.28756 0.0
C611 C 0.38641 0.27636 0.17283 0.0
N612 N 0.38707 0.27708 0.94521 0.0
N613 N 0.37317 0.21901 0.39058 0.0
C614 C 0.38715 0.26245 0.05533 0.0
C615 C 0.38048 0.23287 0.28409 0.0
N616 N 0.3909 0.21935 0.944 0.0
N617 N 0.38815 0.27473 0.40004 0.0
H618 H 0.36968 0.19808 0.39148 0.0
H619 H 0.36819 0.22849 0.47514 0.0
H620 H 0.39195 0.2956 0.40589 0.0
H621 H 0.38994 0.26474 0.48656 0.0
H622 H 0.39713 0.22836 0.86003 0.0
H623 H 0.38949 0.19818 0.93873 0.0
H624 H 0.38432 0.26847 0.85636 0.0
H625 H 0.38814 0.29829 0.94258 0.0
C626 C 0.26249 0.59393 0.86457 0.0
C627 C 0.27681 0.60798 0.96065 0.0
C628 C 0.23371 0.61757 0.06802 0.0
C629 C 0.21927 0.60307 0.97198 0.0
N630 N 0.22229 0.56879 0.80637 0.0
N631 N 0.27712 0.62766 0.1686 0.0
C632 C 0.23428 0.58845 0.87905 0.0
C633 C 0.26272 0.61823 0.06676 0.0
N634 N 0.27555 0.58685 0.75606 0.0
N635 N 0.21974 0.63055 0.16158 0.0
H636 H 0.2983 0.62843 0.17076 0.0
H637 H 0.26838 0.63248 0.25489 0.0
H638 H 0.199 0.62773 0.17717 0.0
H639 H 0.22855 0.64477 0.22217 0.0
H640 H 0.26542 0.57948 0.67632 0.0
H641 H 0.29609 0.591 0.74125 0.0
H642 H 0.23338 0.55591 0.74783 0.0
H643 H 0.20207 0.56291 0.81294 0.0
C644 C 0.62574 0.76603 0.28492 0.0
C645 C 0.61559 0.78095 0.17958 0.0
C646 C 0.61169 0.73873 0.05815 0.0
C647 C 0.61815 0.72341 0.16816 0.0
N648 N 0.63051 0.72221 0.38941 0.0
N649 N 0.59666 0.78175 0.96889 0.0
C650 C 0.62507 0.73699 0.2825 0.0
C651 C 0.60766 0.76732 0.06744 0.0
N652 N 0.63674 0.7796 0.38574 0.0
N653 N 0.61175 0.72626 0.94305 0.0
H654 H 0.5948 0.80292 0.96989 0.0
H655 H 0.58771 0.7726 0.89021 0.0
H656 H 0.61787 0.70607 0.9323 0.0
H657 H 0.60939 0.73664 0.85773 0.0
H658 H 0.64722 0.77001 0.45933 0.0
H659 H 0.63728 0.80082 0.39145 0.0
H660 H 0.63219 0.7308 0.47888 0.0
H661 H 0.63171 0.701 0.39063 0.0
C662 C 0.76622 0.39794 0.98544 0.0
C663 C 0.77967 0.38465 0.88508 0.0
C664 C 0.73569 0.37793 0.77602 0.0
C665 C 0.72204 0.3904 0.87917 0.0
N666 N 0.72582 0.42029 0.06141 0.0
N667 N 0.77798 0.36082 0.68711 0.0
C668 C 0.73766 0.4028 0.97777 0.0
C669 C 0.76459 0.37438 0.78071 0.0
N670 N 0.78057 0.40468 0.09208 0.0
N671 N 0.72112 0.37141 0.66953 0.0
H672 H 0.79914 0.35916 0.68488 0.0
H673 H 0.7684 0.35001 0.61512 0.0
H674 H 0.70035 0.3755 0.6593 0.0
H675 H 0.72968 0.36434 0.58635 0.0
H676 H 0.77147 0.41073 0.17595 0.0
H677 H 0.80149 0.40171 0.10126 0.0
H678 H 0.73692 0.43241 0.12382 0.0
H679 H 0.70531 0.42534 0.06173 0.0
C680 C 0.90313 0.7327 0.61765 0.0
C681 C 0.88436 0.71896 0.69621 0.0
C682 C 0.86864 0.76306 0.7772 0.0
C683 C 0.88373 0.77679 0.68218 0.0
N684 N 0.91297 0.77331 0.49847 0.0
N685 N 0.84771 0.72104 0.84686 0.0
C686 C 0.90054 0.76131 0.59935 0.0
C687 C 0.86654 0.73414 0.77424 0.0
N688 N 0.92363 0.71859 0.56044 0.0
N689 N 0.8577 0.77741 0.8751 0.0
H690 H 0.84667 0.69987 0.85519 0.0
H691 H 0.83202 0.73121 0.89293 0.0
H692 H 0.86026 0.79836 0.88629 0.0
H693 H 0.84887 0.76818 0.95336 0.0
H694 H 0.93971 0.72807 0.51411 0.0
H695 H 0.92622 0.69762 0.56971 0.0
H696 H 0.92218 0.76221 0.42671 0.0
H697 H 0.91218 0.79401 0.47843 0.0
C698 C 0.7596 0.1113 0.25726 0.0
C699 C 0.77488 0.11525 0.36993 0.0
C700 C 0.73231 0.11885 0.48942 0.0
C701 C 0.71727 0.11827 0.37436 0.0
N702 N 0.71675 0.1184 0.14656 0.0
N703 N 0.77624 0.1241 0.59344 0.0
C704 C 0.73096 0.11575 0.25754 0.0
C705 C 0.76133 0.11951 0.48613 0.0
N706 N 0.77221 0.1019 0.1515 0.0
N707 N 0.7189 0.11726 0.60178 0.0
H708 H 0.79743 0.12276 0.59588 0.0
H709 H 0.76781 0.13065 0.67799 0.0
H710 H 0.69777 0.11576 0.60739 0.0
H711 H 0.72867 0.1149 0.68876 0.0
H712 H 0.76175 0.09621 0.06978 0.0
H713 H 0.79286 0.09694 0.1503 0.0
H714 H 0.72611 0.11966 0.05884 0.0
H715 H 0.69577 0.12189 0.14267 0.0
C716 C 0.11615 0.26139 0.76209 0.0
C717 C 0.11251 0.27602 0.64749 0.0
C718 C 0.10743 0.2331 0.5315 0.0
C719 C 0.10995 0.21849 0.64687 0.0
N720 N 0.10992 0.21871 0.87415 0.0
N721 N 0.09821 0.27645 0.42926 0.0
C722 C 0.11248 0.23263 0.763 0.0
C723 C 0.10623 0.26207 0.53384 0.0
N724 N 0.12326 0.27499 0.86989 0.0
N725 N 0.10705 0.21937 0.41934 0.0
H726 H 0.09652 0.29762 0.42867 0.0
H727 H 0.09077 0.26738 0.3472 0.0
H728 H 0.10719 0.19815 0.41354 0.0
H729 H 0.10861 0.22896 0.33188 0.0
H730 H 0.12935 0.26525 0.95295 0.0
H731 H 0.12466 0.29618 0.87406 0.0
H732 H 0.10916 0.22806 0.96214 0.0
H733 H 0.10566 0.19791 0.87737 0.0
C734 C 0.26016 0.88449 0.56091 0.0
C735 C 0.27453 0.88419 0.44525 0.0
C736 C 0.23123 0.88607 0.32748 0.0
C737 C 0.21686 0.8842 0.44281 0.0
N738 N 0.21732 0.87702 0.66796 0.0
N739 N 0.27406 0.8799 0.21865 0.0
C740 C 0.23122 0.8823 0.5594 0.0
C741 C 0.26017 0.8839 0.32838 0.0
N742 N 0.27419 0.88719 0.67221 0.0
N743 N 0.21715 0.88988 0.21693 0.0
H744 H 0.29512 0.87737 0.2162 0.0
H745 H 0.26467 0.87661 0.13156 0.0
H746 H 0.19593 0.89025 0.21236 0.0
H747 H 0.22638 0.89455 0.13144 0.0
H748 H 0.26487 0.89073 0.75857 0.0
H749 H 0.2954 0.88786 0.67701 0.0
H750 H 0.22672 0.87254 0.75402 0.0
H751 H 0.19622 0.8748 0.6699 0.0
C752 C 0.22033 0.12748 0.97239 0.0
C753 C 0.21982 0.13396 0.84076 0.0
C754 C 0.26868 0.14469 0.8528 0.0
C755 C 0.26966 0.13535 0.97992 0.0
N756 N 0.24735 0.11226 0.15162 0.0
N757 N 0.24559 0.14198 0.65071 0.0
C758 C 0.24575 0.12527 1.03741 0.0
C759 C 0.24457 0.14076 0.7795 0.0
N760 N 0.19666 0.12428 1.03772 0.0
N761 N 0.29043 0.15822 0.80274 0.0
H762 H 0.22891 0.13775 0.5925 0.0
H763 H 0.26375 0.14402 0.6013 0.0
H764 H 0.30808 0.1626 0.85422 0.0
H765 H 0.28978 0.1677 0.71461 0.0
H766 H 0.19599 0.12314 0.13589 0.0
H767 H 0.17744 0.12523 0.99653 0.0
H768 H 0.23108 0.10167 0.19087 0.0
H769 H 0.26556 0.10959 0.20157 0.0
C770 C 0.14161 0.74303 0.06814 0.0
C771 C 0.13517 0.71871 0.134 0.0
C772 C 0.13117 0.74494 0.33023 0.0
C773 C 0.13434 0.76958 0.26114 0.0
N774 N 0.13466 0.79163 0.05611 0.0
N775 N 0.11688 0.69779 0.3223 0.0
C776 C 0.1373 0.76854 0.12768 0.0
C777 C 0.12795 0.71998 0.26362 0.0
N778 N 0.1529 0.74196 0.95077 0.0
N779 N 0.13243 0.74497 0.45912 0.0
H780 H 0.11261 0.67958 0.27571 0.0
H781 H 0.10901 0.69854 0.41328 0.0
H782 H 0.13599 0.7625 0.51204 0.0
H783 H 0.13291 0.72712 0.51277 0.0
H784 H 0.16042 0.75915 0.90471 0.0
H785 H 0.15763 0.72374 0.90541 0.0
H786 H 0.1344 0.79136 0.95775 0.0
H787 H 0.1293 0.81046 0.09357 0.0
C788 C 0.73624 0.83975 0.97164 0.0
C789 C 0.72207 0.86483 0.98647 0.0
C790 C 0.75576 0.88794 0.85346 0.0
C791 C 0.77095 0.86331 0.84623 0.0
N792 N 0.77856 0.81713 0.91748 0.0
N793 N 0.71972 0.91357 0.95452 0.0
C794 C 0.7619 0.8395 0.90977 0.0
C795 C 0.73237 0.8892 0.93206 0.0
N796 N 0.72528 0.81612 1.01736 0.0
N797 N 0.76282 0.90972 0.77963 0.0
H798 H 0.70152 0.91528 1.00388 0.0
H799 H 0.7281 0.93238 0.93103 0.0
H800 H 0.77942 0.90945 0.71878 0.0
H801 H 0.75093 0.9272 0.76955 0.0
H802 H 0.73271 0.79682 0.99514 0.0
H803 H 0.70775 0.81557 0.07222 0.0
H804 H 0.77455 0.80026 0.97421 0.0
H805 H 0.79776 0.81628 0.87626 0.0
C806 C 0.85332 0.24844 1.00554 0.0
C807 C 0.86077 0.27262 0.07059 0.0
C808 C 0.86964 0.24531 0.26213 0.0
C809 C 0.8595 0.2218 0.20013 0.0
N810 N 0.83361 0.20361 1.02545 0.0
N811 N 0.86854 0.29444 0.2729 0.0
C812 C 0.84894 0.22414 0.0755 0.0
C813 C 0.86677 0.27121 0.2025 0.0
N814 N 0.85177 0.248 0.87673 0.0
N815 N 0.88301 0.24301 0.37533 0.0
H816 H 0.8649 0.31377 0.23592 0.0
H817 H 0.87033 0.29426 0.371 0.0
H818 H 0.88617 0.22444 0.42126 0.0
H819 H 0.89331 0.25924 0.41741 0.0
H820 H 0.84883 0.23006 0.82578 0.0
H821 H 0.85657 0.26467 0.82012 0.0
H822 H 0.82332 0.2054 0.93933 0.0
H823 H 0.82825 0.18647 0.07785 0.0
C824 C 0.25524 0.34741 0.29414 0.0
C825 C 0.27854 0.35851 0.3559 0.0
C826 C 0.25027 0.36831 0.54142 0.0
C827 C 0.22803 0.35433 0.48493 0.0
N828 N 0.21224 0.32415 0.32066 0.0
N829 N 0.29911 0.37279 0.55447 0.0
C830 C 0.2314 0.34192 0.36521 0.0
C831 C 0.27637 0.36699 0.48425 0.0
N832 N 0.25509 0.34345 0.16653 0.0
N833 N 0.24646 0.38412 0.64587 0.0
H834 H 0.31884 0.37126 0.52045 0.0
H835 H 0.29852 0.37614 0.65155 0.0
H836 H 0.22762 0.38671 0.68883 0.0
H837 H 0.26148 0.39702 0.6818 0.0
H838 H 0.23763 0.33779 0.11637 0.0
H839 H 0.27123 0.34893 0.10857 0.0
H840 H 0.21487 0.3127 0.2389 0.0
H841 H 0.19536 0.31839 0.37351 0.0
C842 C 0.37973 0.72772 0.66404 0.0
C843 C 0.36045 0.72336 0.76133 0.0
C844 C 0.34283 0.76984 0.729 0.0
C845 C 0.36023 0.77302 0.62324 0.0
N846 N 0.3926 0.75366 0.47869 0.0
N847 N 0.32073 0.73867 0.87379 0.0
C848 C 0.37772 0.75145 0.5867 0.0
C849 C 0.34132 0.74407 0.79125 0.0
N850 N 0.4011 0.71006 0.65091 0.0
N851 N 0.32758 0.79141 0.76986 0.0
H852 H 0.31861 0.72 0.91993 0.0
H853 H 0.30437 0.7518 0.88856 0.0
H854 H 0.32627 0.80994 0.72155 0.0
H855 H 0.3174 0.7915 0.85571 0.0
H856 H 0.41725 0.7134 0.58964 0.0
H857 H 0.40434 0.69357 0.71163 0.0
H858 H 0.40329 0.73741 0.43966 0.0
H859 H 0.3926 0.77117 0.42252 0.0
C860 C 0.73024 0.61426 0.43309 0.0
C861 C 0.7229 0.63781 0.36244 0.0
C862 C 0.76478 0.66076 0.43114 0.0
C863 C 0.77114 0.63799 0.50916 0.0
N864 N 0.75776 0.59527 0.60323 0.0
N865 N 0.73063 0.68494 0.3074 0.0
C866 C 0.75332 0.61527 0.51502 0.0
C867 C 0.73932 0.66158 0.36617 0.0
N868 N 0.71517 0.59093 0.42198 0.0
N869 N 0.78369 0.68083 0.41283 0.0
H870 H 0.71289 0.68597 0.2526 0.0
H871 H 0.74003 0.70378 0.31974 0.0
H872 H 0.80285 0.68078 0.45609 0.0
H873 H 0.78143 0.6963 0.34599 0.0
H874 H 0.72122 0.57222 0.45965 0.0
H875 H 0.6974 0.58972 0.36764 0.0
H876 H 0.74397 0.57967 0.6216 0.0
H877 H 0.77407 0.59563 0.66699 0.0
C878 C 0.64412 0.25287 0.49535 0.0
C879 C 0.63676 0.22818 0.55675 0.0
C880 C 0.63514 0.25213 0.76064 0.0
C881 C 0.64012 0.27711 0.69756 0.0
N882 N 0.64817 0.30223 0.50546 0.0
N883 N 0.62202 0.20476 0.74605 0.0
C884 C 0.6443 0.27774 0.56497 0.0
C885 C 0.63139 0.22793 0.68886 0.0
N886 N 0.65086 0.25256 0.37032 0.0
N887 N 0.63412 0.25144 0.88967 0.0
H888 H 0.62029 0.18605 0.70099 0.0
H889 H 0.61422 0.2043 0.8371 0.0
H890 H 0.63507 0.26884 0.94577 0.0
H891 H 0.63432 0.23347 0.94231 0.0
H892 H 0.65951 0.26901 0.3232 0.0
H893 H 0.64907 0.23529 0.31375 0.0
H894 H 0.6477 0.30479 0.40793 0.0
H895 H 0.65076 0.32053 0.55395 0.0
C896 C 0.39226 0.14918 0.5982 0.0
C897 C 0.36915 0.13663 0.54008 0.0
C898 C 0.35839 0.11513 0.74552 0.0
C899 C 0.37988 0.12956 0.80598 0.0
N900 N 0.41654 0.16192 0.79101 0.0
N901 N 0.32652 0.1129 0.57021 0.0
C902 C 0.39663 0.14701 0.73231 0.0
C903 C 0.35112 0.12122 0.6173 0.0
N904 N 0.41014 0.16329 0.52497 0.0
N905 N 0.3457 0.09445 0.8084 0.0
H906 H 0.32011 0.11676 0.478 0.0
H907 H 0.31139 0.1044 0.62639 0.0
H908 H 0.35101 0.08881 0.90041 0.0
H909 H 0.33188 0.08124 0.76522 0.0
H910 H 0.42911 0.17007 0.5561 0.0
H911 H 0.40643 0.16714 0.42989 0.0
H912 H 0.4275 0.17737 0.74719 0.0
H913 H 0.42094 0.16018 0.88719 0.0
C914 C 0.16085 0.6028 0.5234 0.0
C915 C 0.13929 0.61661 0.5862 0.0
C916 C 0.11349 0.61798 0.38376 0.0
C917 C 0.13533 0.60497 0.31979 0.0
N918 N 0.18069 0.5863 0.32702 0.0
N919 N 0.09802 0.64305 0.56759 0.0
C920 C 0.15924 0.59771 0.38965 0.0
C921 C 0.11647 0.62583 0.51371 0.0
N922 N 0.18294 0.59443 0.59267 0.0
N923 N 0.08917 0.62144 0.32227 0.0
H924 H 0.0993 0.64909 0.66178 0.0
H925 H 0.0827 0.65302 0.51669 0.0
H926 H 0.08616 0.61534 0.22906 0.0
H927 H 0.07143 0.62792 0.36653 0.0
H928 H 0.19828 0.58179 0.55927 0.0
H929 H 0.18549 0.59962 0.68723 0.0
H930 H 0.19976 0.58258 0.36696 0.0
H931 H 0.18005 0.58195 0.23075 0.0
C932 C 0.60133 0.84896 0.6 0.0
C933 C 0.62177 0.86619 0.54889 0.0
C934 C 0.63081 0.88373 0.76565 0.0
C935 C 0.60859 0.86847 0.81499 0.0
N936 N 0.57124 0.83737 0.77164 0.0
N937 N 0.65211 0.90421 0.58238 0.0
C938 C 0.59335 0.85158 0.72956 0.0
C939 C 0.63553 0.88458 0.63194 0.0
N940 N 0.5907 0.82858 0.52738 0.0
N941 N 0.64762 0.89764 0.84587 0.0
H942 H 0.6551 0.9067 0.48577 0.0
H943 H 0.6603 0.92016 0.63506 0.0
H944 H 0.64442 0.8987 0.94235 0.0
H945 H 0.66607 0.90615 0.81833 0.0
H946 H 0.57859 0.8129 0.56227 0.0
H947 H 0.59601 0.82581 0.43386 0.0
H948 H 0.55673 0.82882 0.71144 0.0
H949 H 0.56672 0.83452 0.8664 0.0
C950 C 0.84467 0.36426 0.30788 0.0
C951 C 0.86338 0.38228 0.24881 0.0
C952 C 0.88232 0.39351 0.45931 0.0
C953 C 0.86556 0.37342 0.51706 0.0
N954 N 0.83292 0.33702 0.49104 0.0
N955 N 0.90257 0.41148 0.26753 0.0
C956 C 0.84739 0.35803 0.43963 0.0
C957 C 0.88294 0.39614 0.32458 0.0
N958 N 0.82376 0.35344 0.23874 0.0
N959 N 0.8973 0.41064 0.5334 0.0
H960 H 0.90339 0.41434 0.17006 0.0
H961 H 0.91936 0.4195 0.31524 0.0
H962 H 0.897 0.40952 0.63111 0.0
H963 H 0.90781 0.42749 0.49915 0.0
H964 H 0.80739 0.34309 0.27831 0.0
H965 H 0.82183 0.3564 0.142 0.0
H966 H 0.8222 0.3228 0.43731 0.0
H967 H 0.83292 0.3326 0.58725 0.0
C968 C 0.40442 0.37821 0.62031 0.0
C969 C 0.3888 0.35993 0.54494 0.0
C970 C 0.36541 0.34393 0.73801 0.0
C971 C 0.37983 0.36342 0.81196 0.0
N972 N 0.40983 0.40203 0.81958 0.0
N973 N 0.35168 0.32807 0.52971 0.0
C974 C 0.39855 0.38125 0.75181 0.0
C975 C 0.36857 0.3435 0.60346 0.0
N976 N 0.42516 0.39262 0.56645 0.0
N977 N 0.34892 0.32549 0.79689 0.0
H978 H 0.35292 0.32798 0.43187 0.0
H979 H 0.33478 0.31761 0.5632 0.0
H980 H 0.34572 0.32551 0.89409 0.0
H981 H 0.34016 0.30879 0.75192 0.0
H982 H 0.4396 0.40351 0.61818 0.0
H983 H 0.429 0.39247 0.46978 0.0
H984 H 0.42108 0.41781 0.77994 0.0
H985 H 0.40606 0.40454 0.91523 0.0
C986 C 0.37696 0.63939 0.38908 0.0
C987 C 0.36038 0.6223 0.3115 0.0
C988 C 0.34837 0.59567 0.50374 0.0
C989 C 0.36633 0.61184 0.57882 0.0
N990 N 0.40286 0.64444 0.58383 0.0
N991 N 0.33082 0.58335 0.29561 0.0
C992 C 0.38202 0.63237 0.51872 0.0
C993 C 0.34627 0.60018 0.36944 0.0
N994 N 0.38724 0.66303 0.34065 0.0
N995 N 0.33319 0.57595 0.56133 0.0
H996 H 0.32747 0.58707 0.20015 0.0
H997 H 0.32233 0.5651 0.32614 0.0
H998 H 0.33555 0.5709 0.65648 0.0
H999 H 0.31741 0.56534 0.51767 0.0
H1000 H 0.39684 0.67779 0.39582 0.0
H1001 H 0.38394 0.6692 0.24767 0.0
H1002 H 0.4173 0.65691 0.54119 0.0
H1003 H 0.40728 0.6399 0.67794 0.0
C1004 C 0.6059 0.65647 0.72944 0.0
C1005 C 0.62697 0.63986 0.78144 0.0
C1006 C 0.63452 0.62129 0.56563 0.0
C1007 C 0.61538 0.64025 0.51222 0.0
N1008 N 0.58964 0.68176 0.54826 0.0
N1009 N 0.66344 0.60774 0.74149 0.0
C1010 C 0.60302 0.65942 0.59568 0.0
C1011 C 0.64204 0.62297 0.69689 0.0
N1012 N 0.58832 0.66973 0.80683 0.0
N1013 N 0.64461 0.60041 0.49481 0.0
H1014 H 0.66701 0.60393 0.8369 0.0
H1015 H 0.6781 0.59922 0.68278 0.0
H1016 H 0.64127 0.59826 0.39894 0.0
H1017 H 0.65493 0.58374 0.5335 0.0
H1018 H 0.57058 0.6793 0.7744 0.0
H1019 H 0.59017 0.66915 0.90409 0.0
H1020 H 0.5829 0.69774 0.60476 0.0
H1021 H 0.58844 0.68645 0.45256 0.0
C1022 C 0.61621 0.37026 0.47871 0.0
C1023 C 0.63604 0.38819 0.5313 0.0
C1024 C 0.65802 0.39098 0.3217 0.0
C1025 C 0.63678 0.37527 0.26642 0.0
N1026 N 0.59513 0.34996 0.29208 0.0
N1027 N 0.67497 0.41736 0.49912 0.0
C1028 C 0.6159 0.36467 0.3455 0.0
C1029 C 0.65655 0.39914 0.45127 0.0
N1030 N 0.59734 0.35883 0.55642 0.0
N1031 N 0.68084 0.39623 0.25308 0.0
H1032 H 0.67674 0.42173 0.59507 0.0
H1033 H 0.68778 0.42905 0.44284 0.0
H1034 H 0.68308 0.38949 0.1606 0.0
H1035 H 0.69855 0.4046 0.29129 0.0
H1036 H 0.58407 0.34329 0.53038 0.0
H1037 H 0.59604 0.36396 0.65124 0.0
H1038 H 0.57784 0.3436 0.33976 0.0
H1039 H 0.59397 0.34575 0.19583 0.0
C1040 C 0.86208 0.61236 0.15419 0.0
C1041 C 0.8714 0.63362 0.0734 0.0
C1042 C 0.89647 0.6533 0.25536 0.0
C1043 C 0.88521 0.63343 0.33891 0.0
N1044 N 0.85642 0.59419 0.36613 0.0
N1045 N 0.89333 0.67725 0.05484 0.0
C1046 C 0.86752 0.61321 0.28768 0.0
C1047 C 0.88764 0.65475 0.12608 0.0
N1048 N 0.8493 0.59037 0.10176 0.0
N1049 N 0.91593 0.6709 0.29876 0.0
H1050 H 0.88674 0.67935 0.96184 0.0
H1051 H 0.90219 0.69489 0.09101 0.0
H1052 H 0.92185 0.67197 0.39297 0.0
H1053 H 0.92759 0.68316 0.23977 0.0
H1054 H 0.84437 0.57268 0.1509 0.0
H1055 H 0.84584 0.58881 1.00516 0.0
H1056 H 0.8405 0.58132 0.34018 0.0
H1057 H 0.86244 0.59204 0.45988 0.0
C1058 C 0.61701 0.10139 0.8202 0.0
C1059 C 0.6331 0.11834 0.74147 0.0
C1060 C 0.64705 0.14494 0.92968 0.0
C1061 C 0.63184 0.12716 1.00873 0.0
N1062 N 0.60825 0.08448 1.03123 0.0
N1063 N 0.66528 0.15505 0.72259 0.0
C1064 C 0.61858 0.1042 0.95441 0.0
C1065 C 0.64855 0.13983 0.79685 0.0
N1066 N 0.59943 0.0831 0.76639 0.0
N1067 N 0.66034 0.16672 0.98184 0.0
H1068 H 0.66461 0.15391 0.62496 0.0
H1069 H 0.68011 0.16832 0.75677 0.0
H1070 H 0.66319 0.16899 0.07886 0.0
H1071 H 0.66819 0.18286 0.92965 0.0
H1072 H 0.58501 0.07218 0.81725 0.0
H1073 H 0.59731 0.08081 0.66895 0.0
H1074 H 0.60019 0.06616 0.99862 0.0
H1075 H 0.61088 0.08497 0.12853 0.0
C1076 C 0.13294 0.34088 0.2256 0.0
C1077 C 0.11656 0.36084 0.28651 0.0
C1078 C 0.1073 0.38202 0.07799 0.0
C1079 C 0.12514 0.36317 1.01791 0.0
N1080 N 0.158 0.32679 0.03972 0.0
N1081 N 0.09092 0.40259 0.27232 0.0
C1082 C 0.1388 0.34321 0.09347 0.0
C1083 C 0.10461 0.38205 0.21285 0.0
N1084 N 0.14239 0.3191 0.29348 0.0
N1085 N 0.09227 0.3996 1.00567 0.0
H1086 H 0.08772 0.4028 0.36944 0.0
H1087 H 0.08451 0.42046 0.22783 0.0
H1088 H 0.09339 0.39979 0.9081 0.0
H1089 H 0.07707 0.41225 0.04051 0.0
H1090 H 0.15097 0.30181 0.25285 0.0
H1091 H 0.14026 0.31766 0.39081 0.0
H1092 H 0.17117 0.31429 0.09146 0.0
H1093 H 0.16197 0.32675 0.94321 0.0
C1094 C 0.37537 0.85758 1.00383 0.0
C1095 C 0.35824 0.87477 0.07736 0.0
C1096 C 0.34615 0.90043 0.88188 0.0
C1097 C 0.36438 0.88413 0.81006 0.0
N1098 N 0.40026 0.85065 0.80901 0.0
N1099 N 0.32998 0.91485 0.08774 0.0
C1100 C 0.37998 0.86362 0.87298 0.0
C1101 C 0.34443 0.89685 1.01643 0.0
N1102 N 0.3873 0.83525 0.05879 0.0
N1103 N 0.33002 0.91914 0.8209 0.0
H1104 H 0.32762 0.91245 0.18453 0.0
H1105 H 0.32201 0.93315 0.05365 0.0
H1106 H 0.33129 0.92301 0.72428 0.0
H1107 H 0.31399 0.92945 0.86335 0.0
H1108 H 0.39687 0.8199 1.00779 0.0
H1109 H 0.38648 0.83122 0.15534 0.0
H1110 H 0.41473 0.83804 0.8519 0.0
H1111 H 0.40389 0.85416 0.71367 0.0
C1112 C 0.88101 0.83889 0.21926 0.0
C1113 C 0.86929 0.86222 0.27727 0.0
C1114 C 0.86917 0.88556 0.06849 0.0
C1115 C 0.88195 0.86262 1.01185 0.0
N1116 N 0.90342 0.8187 1.03806 0.0
N1117 N 0.8466 0.90552 0.25003 0.0
C1118 C 0.88883 0.83969 0.08892 0.0
C1119 C 0.86173 0.88487 0.19948 0.0
N1120 N 0.88245 0.81505 0.28595 0.0
N1121 N 0.8659 0.90886 0.99899 0.0
H1122 H 0.84204 0.90668 0.34578 0.0
H1123 H 0.83727 0.9208 0.19663 0.0
H1124 H 0.87138 0.91012 0.90439 0.0
H1125 H 0.8599 0.92751 1.03649 0.0
H1126 H 0.88773 0.79637 0.24653 0.0
H1127 H 0.87562 0.81339 0.37854 0.0
H1128 H 0.9123 0.80316 0.09163 0.0
H1129 H 0.90801 0.81753 0.94228 0.0
C1130 C 0.88119 0.09837 0.93195 0.0
C1131 C 0.8599 0.11096 1.00115 0.0
C1132 C 0.84389 0.13347 0.80429 0.0
C1133 C 0.86374 0.11913 0.73324 0.0
N1134 N 0.89954 0.0857 0.72785 0.0
N1135 N 0.8186 0.13751 0.9991 0.0
C1136 C 0.88189 0.10097 0.79704 0.0
C1137 C 0.84057 0.12761 0.93583 0.0
N1138 N 0.90107 0.08419 0.99545 0.0
N1139 N 0.82879 0.15355 0.74727 0.0
H1140 H 0.81681 0.13597 0.09664 0.0
H1141 H 0.80169 0.14624 0.9545 0.0
H1142 H 0.83025 0.15825 0.65151 0.0
H1143 H 0.81599 0.16671 0.79599 0.0
H1144 H 0.91882 0.07709 0.95356 0.0
H1145 H 0.90085 0.08114 0.09288 0.0
H1146 H 0.91123 0.06978 0.76465 0.0
H1147 H 0.90083 0.08769 0.63041 0.0
C1148 C 0.12905 0.15204 0.06316 0.0
C1149 C 0.10958 0.13457 1.00405 0.0
C1150 C 0.1008 0.11359 0.21315 0.0
C1151 C 0.11891 0.13232 0.2733 0.0
N1152 N 0.14713 0.17221 0.25622 0.0
N1153 N 0.07466 0.10049 1.02663 0.0
C1154 C 0.13205 0.15238 0.19816 0.0
C1155 C 0.09478 0.11594 0.08055 0.0
N1156 N 0.14567 0.16757 0.98973 0.0
N1157 N 0.09007 0.09271 0.28186 0.0
H1158 H 0.07093 0.10002 0.9296 0.0
H1159 H 0.06061 0.08928 0.0783 0.0
H1160 H 0.09315 0.09093 0.37846 0.0
H1161 H 0.07971 0.07624 0.24259 0.0
H1162 H 0.16202 0.17888 1.02431 0.0
H1163 H 0.14513 0.1665 0.89198 0.0
H1164 H 0.15466 0.1893 0.20972 0.0
H1165 H 0.1501 0.17294 0.35376 0.0
C1166 C 0.14615 0.89402 0.85792 0.0
C1167 C 0.1323 0.87207 0.79736 0.0
C1168 C 0.10947 0.86184 0.99983 0.0
C1169 C 0.12569 0.88158 0.06348 0.0
N1170 N 0.16034 0.9162 0.05319 0.0
N1171 N 0.10314 0.83274 0.81684 0.0
C1172 C 0.14427 0.89758 0.99222 0.0
C1173 C 0.11467 0.85531 0.87035 0.0
N1174 N 0.16069 0.91196 0.78644 0.0
N1175 N 0.08824 0.84995 0.06172 0.0
H1176 H 0.10599 0.82741 0.72287 0.0
H1177 H 0.09253 0.81809 0.86788 0.0
H1178 H 0.0836 0.85445 0.15503 0.0
H1179 H 0.07374 0.83768 1.01761 0.0
H1180 H 0.16878 0.93013 0.82053 0.0
H1181 H 0.16294 0.90967 0.68955 0.0
H1182 H 0.17665 0.92617 1.01125 0.0
H1183 H 0.15855 0.92047 0.14914 0.0
loop_
_geom_bond_atom_site_label_1
_geom_bond_atom_site_label_2
_geom_bond_distance
_geom_bond_site_symmetry_2
_ccdc_geom_bond_type
Tb0 O3 2.453 1_554 S
Tb0 O4 2.596 . S
Tb0 O5 2.374 . S
Tb0 O13 2.343 . S
Tb0 O15 2.353 . S
Tb0 O17 2.427 . S
Tb0 O18 2.513 . S
C1 O5 1.251 . S
C1 O7 1.263 . S
Tb2 O4 2.343 . S
Tb2 O7 2.353 . S
Tb2 O10 2.427 . S
Tb2 O11 2.513 . S
Tb2 O12 2.453 . S
Tb2 O13 2.596 . S
Tb2 O14 2.374 . S
O3 Tb0 2.453 1_556 S
O3 C19 1.245 . S
O4 Tb0 2.596 . S
O4 Tb2 2.343 . S
O4 C19 1.259 1_554 S
O5 Tb0 2.374 . S
O5 C1 1.251 . S
C6 O10 1.275 1_556 S
C6 O11 1.246 1_556 S
O7 C1 1.263 . S
O7 Tb2 2.353 . S
C8 O12 1.245 . S
C8 O13 1.259 . S
C9 O14 1.250 . S
C9 O15 1.263 . S
O10 Tb2 2.427 . S
O10 C6 1.275 1_554 S
O11 Tb2 2.513 . S
O11 C6 1.246 1_554 S
O12 Tb2 2.453 . S
O12 C8 1.245 . S
O13 Tb0 2.343 . S
O13 Tb2 2.596 . S
O13 C8 1.259 . S
O14 Tb2 2.374 . S
O14 C9 1.250 . S
O15 Tb0 2.353 . S
O15 C9 1.263 . S
C16 O17 1.275 . S
C16 O18 1.246 . S
O17 Tb0 2.427 . S
O17 C16 1.275 . S
O18 Tb0 2.513 . S
O18 C16 1.246 . S
C19 O3 1.245 . S
C19 O4 1.259 1_556 S
Tb20 O23 2.453 . S
Tb20 O24 2.596 . S
Tb20 O25 2.374 . S
Tb20 O33 2.343 . S
Tb20 O35 2.353 . S
Tb20 O37 2.427 . S
Tb20 O38 2.513 . S
C21 O25 1.251 . S
C21 O27 1.263 . S
Tb22 O24 2.343 . S
Tb22 O27 2.353 . S
Tb22 O30 2.427 . S
Tb22 O31 2.513 . S
Tb22 O32 2.453 1_556 S
Tb22 O33 2.596 . S
Tb22 O34 2.374 . S
O23 Tb20 2.453 . S
O23 C39 1.245 . S
O24 Tb20 2.596 . S
O24 Tb22 2.343 . S
O24 C39 1.259 . S
O25 Tb20 2.374 . S
O25 C21 1.251 . S
C26 O30 1.275 . S
C26 O31 1.246 . S
O27 C21 1.263 . S
O27 Tb22 2.353 . S
C28 O32 1.245 . S
C28 O33 1.259 1_554 S
C29 O34 1.250 . S
C29 O35 1.263 . S
O30 Tb22 2.427 . S
O30 C26 1.275 . S
O31 Tb22 2.513 . S
O31 C26 1.246 . S
O32 Tb22 2.453 1_554 S
O32 C28 1.245 . S
O33 Tb20 2.343 . S
O33 Tb22 2.596 . S
O33 C28 1.259 1_556 S
O34 Tb22 2.374 . S
O34 C29 1.250 . S
O35 Tb20 2.353 . S
O35 C29 1.263 . S
C36 O37 1.275 1_554 S
C36 O38 1.246 1_554 S
O37 Tb20 2.427 . S
O37 C36 1.275 1_556 S
O38 Tb20 2.513 . S
O38 C36 1.246 1_556 S
C39 O23 1.245 . S
C39 O24 1.259 . S
Tb40 O43 2.453 1_554 S
Tb40 O44 2.596 . S
Tb40 O45 2.374 . S
Tb40 O53 2.343 . S
Tb40 O55 2.353 . S
Tb40 O57 2.427 . S
Tb40 O58 2.513 . S
C41 O45 1.251 . S
C41 O47 1.263 . S
Tb42 O44 2.343 . S
Tb42 O47 2.353 . S
Tb42 O50 2.427 . S
Tb42 O51 2.513 . S
Tb42 O52 2.453 . S
Tb42 O53 2.596 . S
Tb42 O54 2.374 . S
O43 Tb40 2.453 1_556 S
O43 C59 1.245 . S
O44 Tb40 2.596 . S
O44 Tb42 2.343 . S
O44 C59 1.259 1_554 S
O45 Tb40 2.374 . S
O45 C41 1.251 . S
C46 O50 1.275 1_556 S
C46 O51 1.246 1_556 S
O47 C41 1.263 . S
O47 Tb42 2.353 . S
C48 O52 1.245 . S
C48 O53 1.259 . S
C49 O54 1.250 . S
C49 O55 1.263 . S
O50 Tb42 2.427 . S
O50 C46 1.275 1_554 S
O51 Tb42 2.513 . S
O51 C46 1.246 1_554 S
O52 Tb42 2.453 . S
O52 C48 1.245 . S
O53 Tb40 2.343 . S
O53 Tb42 2.596 . S
O53 C48 1.259 . S
O54 Tb42 2.374 . S
O54 C49 1.250 . S
O55 Tb40 2.353 . S
O55 C49 1.263 . S
C56 O57 1.275 . S
C56 O58 1.246 . S
O57 Tb40 2.427 . S
O57 C56 1.275 . S
O58 Tb40 2.513 . S
O58 C56 1.246 . S
C59 O43 1.245 . S
C59 O44 1.259 1_556 S
Tb60 O63 2.453 . S
Tb60 O64 2.596 . S
Tb60 O65 2.374 . S
Tb60 O73 2.343 . S
Tb60 O75 2.353 . S
Tb60 O77 2.427 . S
Tb60 O78 2.513 . S
C61 O65 1.251 . S
C61 O67 1.263 . S
Tb62 O64 2.343 . S
Tb62 O67 2.353 . S
Tb62 O70 2.427 . S
Tb62 O71 2.513 . S
Tb62 O72 2.453 1_556 S
Tb62 O73 2.596 . S
Tb62 O74 2.374 . S
O63 Tb60 2.453 . S
O63 C79 1.245 . S
O64 Tb60 2.596 . S
O64 Tb62 2.343 . S
O64 C79 1.259 . S
O65 Tb60 2.374 . S
O65 C61 1.251 . S
C66 O70 1.275 . S
C66 O71 1.246 . S
O67 C61 1.263 . S
O67 Tb62 2.353 . S
C68 O72 1.245 . S
C68 O73 1.259 1_554 S
C69 O74 1.250 . S
C69 O75 1.263 . S
O70 Tb62 2.427 . S
O70 C66 1.275 . S
O71 Tb62 2.513 . S
O71 C66 1.246 . S
O72 Tb62 2.453 1_554 S
O72 C68 1.245 . S
O73 Tb60 2.343 . S
O73 Tb62 2.596 . S
O73 C68 1.259 1_556 S
O74 Tb62 2.374 . S
O74 C69 1.250 . S
O75 Tb60 2.353 . S
O75 C69 1.263 . S
C76 O77 1.275 1_554 S
C76 O78 1.246 1_554 S
O77 Tb60 2.427 . S
O77 C76 1.275 1_556 S
O78 Tb60 2.513 . S
O78 C76 1.246 1_556 S
C79 O63 1.245 . S
C79 O64 1.259 . S
Tb80 O83 2.453 . S
Tb80 O84 2.596 . S
Tb80 O85 2.374 . S
Tb80 O93 2.343 1_554 S
Tb80 O95 2.353 . S
Tb80 O97 2.427 . S
Tb80 O98 2.513 . S
C81 O85 1.251 . S
C81 O87 1.263 . S
Tb82 O84 2.343 . S
Tb82 O87 2.353 . S
Tb82 O90 2.427 . S
Tb82 O91 2.513 . S
Tb82 O92 2.453 1_554 S
Tb82 O93 2.596 1_554 S
Tb82 O94 2.374 . S
O83 Tb80 2.453 . S
O83 C99 1.245 . S
O84 Tb80 2.596 . S
O84 Tb82 2.343 . S
O84 C99 1.259 . S
O85 Tb80 2.374 . S
O85 C81 1.251 . S
C86 O90 1.275 . S
C86 O91 1.246 . S
O87 C81 1.263 . S
O87 Tb82 2.353 . S
C88 O92 1.245 . S
C88 O93 1.259 . S
C89 O94 1.250 . S
C89 O95 1.263 . S
O90 Tb82 2.427 . S
O90 C86 1.275 . S
O91 Tb82 2.513 . S
O91 C86 1.246 . S
O92 Tb82 2.453 1_556 S
O92 C88 1.245 . S
O93 Tb80 2.343 1_556 S
O93 Tb82 2.596 1_556 S
O93 C88 1.259 . S
O94 Tb82 2.374 . S
O94 C89 1.250 . S
O95 Tb80 2.353 . S
O95 C89 1.263 . S
C96 O97 1.275 1_556 S
C96 O98 1.246 1_556 S
O97 Tb80 2.427 . S
O97 C96 1.275 1_554 S
O98 Tb80 2.513 . S
O98 C96 1.246 1_554 S
C99 O83 1.245 . S
C99 O84 1.259 . S
Tb100 O103 2.453 1_556 S
Tb100 O104 2.596 1_556 S
Tb100 O105 2.374 . S
Tb100 O113 2.343 . S
Tb100 O115 2.353 . S
Tb100 O117 2.427 . S
Tb100 O118 2.513 . S
C101 O105 1.251 . S
C101 O107 1.263 . S
Tb102 O104 2.343 1_556 S
Tb102 O107 2.353 . S
Tb102 O110 2.427 . S
Tb102 O111 2.513 . S
Tb102 O112 2.453 . S
Tb102 O113 2.596 . S
Tb102 O114 2.374 . S
O103 Tb100 2.453 1_554 S
O103 C119 1.245 . S
O104 Tb100 2.596 1_554 S
O104 Tb102 2.343 1_554 S
O104 C119 1.259 . S
O105 Tb100 2.374 . S
O105 C101 1.251 . S
C106 O110 1.275 1_554 S
C106 O111 1.246 1_554 S
O107 C101 1.263 . S
O107 Tb102 2.353 . S
C108 O112 1.245 . S
C108 O113 1.259 . S
C109 O114 1.250 . S
C109 O115 1.263 . S
O110 Tb102 2.427 . S
O110 C106 1.275 1_556 S
O111 Tb102 2.513 . S
O111 C106 1.246 1_556 S
O112 Tb102 2.453 . S
O112 C108 1.245 . S
O113 Tb100 2.343 . S
O113 Tb102 2.596 . S
O113 C108 1.259 . S
O114 Tb102 2.374 . S
O114 C109 1.250 . S
O115 Tb100 2.353 . S
O115 C109 1.263 . S
C116 O117 1.275 . S
C116 O118 1.246 . S
O117 Tb100 2.427 . S
O117 C116 1.275 . S
O118 Tb100 2.513 . S
O118 C116 1.246 . S
C119 O103 1.245 . S
C119 O104 1.259 . S
Tb120 O123 2.453 . S
Tb120 O124 2.596 . S
Tb120 O125 2.374 . S
Tb120 O133 2.343 1_554 S
Tb120 O135 2.353 . S
Tb120 O137 2.427 . S
Tb120 O138 2.513 . S
C121 O125 1.251 . S
C121 O127 1.263 . S
Tb122 O124 2.343 . S
Tb122 O127 2.353 . S
Tb122 O130 2.427 . S
Tb122 O131 2.513 . S
Tb122 O132 2.453 1_554 S
Tb122 O133 2.596 1_554 S
Tb122 O134 2.374 . S
O123 Tb120 2.453 . S
O123 C139 1.245 . S
O124 Tb120 2.596 . S
O124 Tb122 2.343 . S
O124 C139 1.259 . S
O125 Tb120 2.374 . S
O125 C121 1.251 . S
C126 O130 1.275 . S
C126 O131 1.246 . S
O127 C121 1.263 . S
O127 Tb122 2.353 . S
C128 O132 1.245 . S
C128 O133 1.259 . S
C129 O134 1.250 . S
C129 O135 1.263 . S
O130 Tb122 2.427 . S
O130 C126 1.275 . S
O131 Tb122 2.513 . S
O131 C126 1.246 . S
O132 Tb122 2.453 1_556 S
O132 C128 1.245 . S
O133 Tb120 2.343 1_556 S
O133 Tb122 2.596 1_556 S
O133 C128 1.259 . S
O134 Tb122 2.374 . S
O134 C129 1.250 . S
O135 Tb120 2.353 . S
O135 C129 1.263 . S
C136 O137 1.275 1_556 S
C136 O138 1.246 1_556 S
O137 Tb120 2.427 . S
O137 C136 1.275 1_554 S
O138 Tb120 2.513 . S
O138 C136 1.246 1_554 S
C139 O123 1.245 . S
C139 O124 1.259 . S
Tb140 O143 2.453 1_556 S
Tb140 O144 2.596 1_556 S
Tb140 O145 2.374 . S
Tb140 O153 2.343 . S
Tb140 O155 2.353 . S
Tb140 O157 2.427 . S
Tb140 O158 2.513 . S
C141 O145 1.251 . S
C141 O147 1.263 . S
Tb142 O144 2.343 1_556 S
Tb142 O147 2.353 . S
Tb142 O150 2.427 . S
Tb142 O151 2.513 . S
Tb142 O152 2.453 . S
Tb142 O153 2.596 . S
Tb142 O154 2.374 . S
O143 Tb140 2.453 1_554 S
O143 C159 1.245 . S
O144 Tb140 2.596 1_554 S
O144 Tb142 2.343 1_554 S
O144 C159 1.259 . S
O145 Tb140 2.374 . S
O145 C141 1.251 . S
C146 O150 1.275 1_554 S
C146 O151 1.246 1_554 S
O147 C141 1.263 . S
O147 Tb142 2.353 . S
C148 O152 1.245 . S
C148 O153 1.259 . S
C149 O154 1.250 . S
C149 O155 1.263 . S
O150 Tb142 2.427 . S
O150 C146 1.275 1_556 S
O151 Tb142 2.513 . S
O151 C146 1.246 1_556 S
O152 Tb142 2.453 . S
O152 C148 1.245 . S
O153 Tb140 2.343 . S
O153 Tb142 2.596 . S
O153 C148 1.259 . S
O154 Tb142 2.374 . S
O154 C149 1.250 . S
O155 Tb140 2.353 . S
O155 C149 1.263 . S
C156 O157 1.275 . S
C156 O158 1.246 . S
O157 Tb140 2.427 . S
O157 C156 1.275 . S
O158 Tb140 2.513 . S
O158 C156 1.246 . S
C159 O143 1.245 . S
C159 O144 1.259 . S
Tb160 O163 2.453 . S
Tb160 O164 2.596 . S
Tb160 O165 2.374 . S
Tb160 O173 2.343 . S
Tb160 O175 2.353 . S
Tb160 O177 2.427 . S
Tb160 O178 2.513 . S
C161 O165 1.251 . S
C161 O167 1.263 . S
Tb162 O164 2.343 . S
Tb162 O167 2.353 . S
Tb162 O170 2.427 . S
Tb162 O171 2.513 . S
Tb162 O172 2.453 . S
Tb162 O173 2.596 . S
Tb162 O174 2.374 . S
O163 Tb160 2.453 . S
O163 C179 1.245 . S
O164 Tb160 2.596 . S
O164 Tb162 2.343 . S
O164 C179 1.259 . S
O165 Tb160 2.374 . S
O165 C161 1.251 . S
C166 O170 1.275 . S
C166 O171 1.246 . S
O167 C161 1.263 . S
O167 Tb162 2.353 . S
C168 O172 1.245 . S
C168 O173 1.259 . S
C169 O174 1.250 . S
C169 O175 1.263 . S
O170 Tb162 2.427 . S
O170 C166 1.275 . S
O171 Tb162 2.513 . S
O171 C166 1.246 . S
O172 Tb162 2.453 . S
O172 C168 1.245 . S
O173 Tb160 2.343 . S
O173 Tb162 2.596 . S
O173 C168 1.259 . S
O174 Tb162 2.374 . S
O174 C169 1.250 . S
O175 Tb160 2.353 . S
O175 C169 1.263 . S
C176 O177 1.275 . S
C176 O178 1.246 . S
O177 Tb160 2.427 . S
O177 C176 1.275 . S
O178 Tb160 2.513 . S
O178 C176 1.246 . S
C179 O163 1.245 . S
C179 O164 1.259 . S
Tb180 O183 2.453 . S
Tb180 O184 2.596 . S
Tb180 O185 2.374 . S
Tb180 O193 2.343 . S
Tb180 O195 2.353 . S
Tb180 O197 2.427 . S
Tb180 O198 2.513 . S
C181 O185 1.251 . S
C181 O187 1.263 . S
Tb182 O184 2.343 . S
Tb182 O187 2.353 . S
Tb182 O190 2.427 . S
Tb182 O191 2.513 . S
Tb182 O192 2.453 . S
Tb182 O193 2.596 . S
Tb182 O194 2.374 . S
O183 Tb180 2.453 . S
O183 C199 1.245 . S
O184 Tb180 2.596 . S
O184 Tb182 2.343 . S
O184 C199 1.259 . S
O185 Tb180 2.374 . S
O185 C181 1.251 . S
C186 O190 1.275 . S
C186 O191 1.246 . S
O187 C181 1.263 . S
O187 Tb182 2.353 . S
C188 O192 1.245 . S
C188 O193 1.259 . S
C189 O194 1.250 . S
C189 O195 1.263 . S
O190 Tb182 2.427 . S
O190 C186 1.275 . S
O191 Tb182 2.513 . S
O191 C186 1.246 . S
O192 Tb182 2.453 . S
O192 C188 1.245 . S
O193 Tb180 2.343 . S
O193 Tb182 2.596 . S
O193 C188 1.259 . S
O194 Tb182 2.374 . S
O194 C189 1.250 . S
O195 Tb180 2.353 . S
O195 C189 1.263 . S
C196 O197 1.275 . S
C196 O198 1.246 . S
O197 Tb180 2.427 . S
O197 C196 1.275 . S
O198 Tb180 2.513 . S
O198 C196 1.246 . S
C199 O183 1.245 . S
C199 O184 1.259 . S
Tb200 O203 2.453 . S
Tb200 O204 2.596 . S
Tb200 O205 2.374 . S
Tb200 O213 2.343 . S
Tb200 O215 2.353 . S
Tb200 O217 2.427 . S
Tb200 O218 2.513 . S
C201 O205 1.251 . S
C201 O207 1.263 . S
Tb202 O204 2.343 . S
Tb202 O207 2.353 . S
Tb202 O210 2.427 . S
Tb202 O211 2.513 . S
Tb202 O212 2.453 . S
Tb202 O213 2.596 . S
Tb202 O214 2.374 . S
O203 Tb200 2.453 . S
O203 C219 1.245 . S
O204 Tb200 2.596 . S
O204 Tb202 2.343 . S
O204 C219 1.259 . S
O205 Tb200 2.374 . S
O205 C201 1.251 . S
C206 O210 1.275 . S
C206 O211 1.246 . S
O207 C201 1.263 . S
O207 Tb202 2.353 . S
C208 O212 1.245 . S
C208 O213 1.259 . S
C209 O214 1.250 . S
C209 O215 1.263 . S
O210 Tb202 2.427 . S
O210 C206 1.275 . S
O211 Tb202 2.513 . S
O211 C206 1.246 . S
O212 Tb202 2.453 . S
O212 C208 1.245 . S
O213 Tb200 2.343 . S
O213 Tb202 2.596 . S
O213 C208 1.259 . S
O214 Tb202 2.374 . S
O214 C209 1.250 . S
O215 Tb200 2.353 . S
O215 C209 1.263 . S
C216 O217 1.275 . S
C216 O218 1.246 . S
O217 Tb200 2.427 . S
O217 C216 1.275 . S
O218 Tb200 2.513 . S
O218 C216 1.246 . S
C219 O203 1.245 . S
C219 O204 1.259 . S
Tb220 O223 2.453 . S
Tb220 O224 2.596 . S
Tb220 O225 2.374 . S
Tb220 O233 2.343 . S
Tb220 O235 2.353 . S
Tb220 O237 2.427 . S
Tb220 O238 2.513 . S
C221 O225 1.251 . S
C221 O227 1.263 . S
Tb222 O224 2.343 . S
Tb222 O227 2.353 . S
Tb222 O230 2.427 . S
Tb222 O231 2.513 . S
Tb222 O232 2.453 . S
Tb222 O233 2.596 . S
Tb222 O234 2.374 . S
O223 Tb220 2.453 . S
O223 C239 1.245 . S
O224 Tb220 2.596 . S
O224 Tb222 2.343 . S
O224 C239 1.259 . S
O225 Tb220 2.374 . S
O225 C221 1.251 . S
C226 O230 1.275 . S
C226 O231 1.246 . S
O227 C221 1.263 . S
O227 Tb222 2.353 . S
C228 O232 1.245 . S
C228 O233 1.259 . S
C229 O234 1.250 . S
C229 O235 1.263 . S
O230 Tb222 2.427 . S
O230 C226 1.275 . S
O231 Tb222 2.513 . S
O231 C226 1.246 . S
O232 Tb222 2.453 . S
O232 C228 1.245 . S
O233 Tb220 2.343 . S
O233 Tb222 2.596 . S
O233 C228 1.259 . S
O234 Tb222 2.374 . S
O234 C229 1.250 . S
O235 Tb220 2.353 . S
O235 C229 1.263 . S
C236 O237 1.275 . S
C236 O238 1.246 . S
O237 Tb220 2.427 . S
O237 C236 1.275 . S
O238 Tb220 2.513 . S
O238 C236 1.246 . S
C239 O223 1.245 . S
C239 O224 1.259 . S
Tb240 O243 2.453 . S
Tb240 O244 2.596 . S
Tb240 O245 2.374 . S
Tb240 O253 2.343 . S
Tb240 O255 2.353 . S
Tb240 O257 2.427 . S
Tb240 O258 2.513 . S
C241 O245 1.251 . S
C241 O247 1.263 . S
Tb242 O244 2.343 . S
Tb242 O247 2.353 . S
Tb242 O250 2.427 . S
Tb242 O251 2.513 . S
Tb242 O252 2.453 . S
Tb242 O253 2.596 . S
Tb242 O254 2.374 . S
O243 Tb240 2.453 . S
O243 C259 1.245 . S
O244 Tb240 2.596 . S
O244 Tb242 2.343 . S
O244 C259 1.259 . S
O245 Tb240 2.374 . S
O245 C241 1.251 . S
C246 O250 1.275 . S
C246 O251 1.246 . S
O247 C241 1.263 . S
O247 Tb242 2.353 . S
C248 O252 1.245 . S
C248 O253 1.259 . S
C249 O254 1.250 . S
C249 O255 1.263 . S
O250 Tb242 2.427 . S
O250 C246 1.275 . S
O251 Tb242 2.513 . S
O251 C246 1.246 . S
O252 Tb242 2.453 . S
O252 C248 1.245 . S
O253 Tb240 2.343 . S
O253 Tb242 2.596 . S
O253 C248 1.259 . S
O254 Tb242 2.374 . S
O254 C249 1.250 . S
O255 Tb240 2.353 . S
O255 C249 1.263 . S
C256 O257 1.275 . S
C256 O258 1.246 . S
O257 Tb240 2.427 . S
O257 C256 1.275 . S
O258 Tb240 2.513 . S
O258 C256 1.246 . S
C259 O243 1.245 . S
C259 O244 1.259 . S
Tb260 O263 2.453 . S
Tb260 O264 2.596 . S
Tb260 O265 2.374 . S
Tb260 O273 2.343 . S
Tb260 O275 2.353 . S
Tb260 O277 2.427 . S
Tb260 O278 2.513 . S
C261 O265 1.251 . S
C261 O267 1.263 . S
Tb262 O264 2.343 . S
Tb262 O267 2.353 . S
Tb262 O270 2.427 . S
Tb262 O271 2.513 . S
Tb262 O272 2.453 . S
Tb262 O273 2.596 . S
Tb262 O274 2.374 . S
O263 Tb260 2.453 . S
O263 C279 1.245 . S
O264 Tb260 2.596 . S
O264 Tb262 2.343 . S
O264 C279 1.259 . S
O265 Tb260 2.374 . S
O265 C261 1.251 . S
C266 O270 1.275 . S
C266 O271 1.246 . S
O267 C261 1.263 . S
O267 Tb262 2.353 . S
C268 O272 1.245 . S
C268 O273 1.259 . S
C269 O274 1.250 . S
C269 O275 1.263 . S
O270 Tb262 2.427 . S
O270 C266 1.275 . S
O271 Tb262 2.513 . S
O271 C266 1.246 . S
O272 Tb262 2.453 . S
O272 C268 1.245 . S
O273 Tb260 2.343 . S
O273 Tb262 2.596 . S
O273 C268 1.259 . S
O274 Tb262 2.374 . S
O274 C269 1.250 . S
O275 Tb260 2.353 . S
O275 C269 1.263 . S
C276 O277 1.275 . S
C276 O278 1.246 . S
O277 Tb260 2.427 . S
O277 C276 1.275 . S
O278 Tb260 2.513 . S
O278 C276 1.246 . S
C279 O263 1.245 . S
C279 O264 1.259 . S
Tb280 O283 2.453 . S
Tb280 O284 2.596 . S
Tb280 O285 2.374 . S
Tb280 O293 2.343 . S
Tb280 O295 2.353 . S
Tb280 O297 2.427 . S
Tb280 O298 2.513 . S
C281 O285 1.251 . S
C281 O287 1.263 . S
Tb282 O284 2.343 . S
Tb282 O287 2.353 . S
Tb282 O290 2.427 . S
Tb282 O291 2.513 . S
Tb282 O292 2.453 . S
Tb282 O293 2.596 . S
Tb282 O294 2.374 . S
O283 Tb280 2.453 . S
O283 C299 1.245 . S
O284 Tb280 2.596 . S
O284 Tb282 2.343 . S
O284 C299 1.259 . S
O285 Tb280 2.374 . S
O285 C281 1.251 . S
C286 O290 1.275 . S
C286 O291 1.246 . S
O287 C281 1.263 . S
O287 Tb282 2.353 . S
C288 O292 1.245 . S
C288 O293 1.259 . S
C289 O294 1.250 . S
C289 O295 1.263 . S
O290 Tb282 2.427 . S
O290 C286 1.275 . S
O291 Tb282 2.513 . S
O291 C286 1.246 . S
O292 Tb282 2.453 . S
O292 C288 1.245 . S
O293 Tb280 2.343 . S
O293 Tb282 2.596 . S
O293 C288 1.259 . S
O294 Tb282 2.374 . S
O294 C289 1.250 . S
O295 Tb280 2.353 . S
O295 C289 1.263 . S
C296 O297 1.275 . S
C296 O298 1.246 . S
O297 Tb280 2.427 . S
O297 C296 1.275 . S
O298 Tb280 2.513 . S
O298 C296 1.246 . S
C299 O283 1.245 . S
C299 O284 1.259 . S
Tb300 O303 2.453 . S
Tb300 O304 2.596 . S
Tb300 O305 2.374 . S
Tb300 O313 2.343 . S
Tb300 O315 2.353 . S
Tb300 O317 2.427 . S
Tb300 O318 2.513 . S
C301 O305 1.251 . S
C301 O307 1.263 . S
Tb302 O304 2.343 . S
Tb302 O307 2.353 . S
Tb302 O310 2.427 . S
Tb302 O311 2.513 . S
Tb302 O312 2.453 . S
Tb302 O313 2.596 . S
Tb302 O314 2.374 . S
O303 Tb300 2.453 . S
O303 C319 1.245 . S
O304 Tb300 2.596 . S
O304 Tb302 2.343 . S
O304 C319 1.259 . S
O305 Tb300 2.374 . S
O305 C301 1.251 . S
C306 O310 1.275 . S
C306 O311 1.246 . S
O307 C301 1.263 . S
O307 Tb302 2.353 . S
C308 O312 1.245 . S
C308 O313 1.259 . S
C309 O314 1.250 . S
C309 O315 1.263 . S
O310 Tb302 2.427 . S
O310 C306 1.275 . S
O311 Tb302 2.513 . S
O311 C306 1.246 . S
O312 Tb302 2.453 . S
O312 C308 1.245 . S
O313 Tb300 2.343 . S
O313 Tb302 2.596 . S
O313 C308 1.259 . S
O314 Tb302 2.374 . S
O314 C309 1.250 . S
O315 Tb300 2.353 . S
O315 C309 1.263 . S
C316 O317 1.275 . S
C316 O318 1.246 . S
O317 Tb300 2.427 . S
O317 C316 1.275 . S
O318 Tb300 2.513 . S
O318 C316 1.246 . S
C319 O303 1.245 . S
C319 O304 1.259 . S
C320 C321 1.363 1_545 S
C320 C326 1.379 . S
C320 N328 1.356 1_545 S
C321 C320 1.363 1_565 S
C321 C327 1.363 1_565 S
C322 C323 1.363 . S
C322 C327 1.379 . S
C322 N329 1.356 . S
C323 C322 1.363 . S
C323 C326 1.363 . S
N324 C326 1.356 . S
N324 H336 0.984 1_554 S
N324 H337 0.985 . S
N325 C327 1.356 1_565 S
N325 H330 0.984 . S
N325 H331 0.985 . S
C326 C320 1.379 . S
C326 C323 1.363 . S
C326 N324 1.356 . S
C327 C321 1.363 1_545 S
C327 C322 1.379 . S
C327 N325 1.356 1_545 S
N328 C320 1.356 1_565 S
N328 H334 0.984 1_554 S
N328 H335 0.984 . S
N329 C322 1.356 . S
N329 H332 0.984 . S
N329 H333 0.985 . S
H330 N325 0.984 . S
H331 N325 0.985 . S
H332 N329 0.984 . S
H333 N329 0.985 . S
H334 N328 0.984 1_556 S
H335 N328 0.984 . S
H336 N324 0.984 1_556 S
H337 N324 0.985 . S
C338 C339 1.363 1_455 S
C338 C344 1.379 . S
C338 N346 1.361 1_455 S
C339 C338 1.363 1_655 S
C339 C345 1.363 1_655 S
C340 C341 1.363 . S
C340 C345 1.379 . S
C340 N347 1.356 . S
C341 C340 1.363 . S
C341 C344 1.363 . S
N342 C344 1.356 . S
N342 H354 0.984 1_556 S
N342 H355 0.985 . S
N343 C345 1.356 1_655 S
N343 H348 0.984 . S
N343 H349 0.985 . S
C344 C338 1.379 . S
C344 C341 1.363 . S
C344 N342 1.356 . S
C345 C339 1.363 1_455 S
C345 C340 1.379 . S
C345 N343 1.356 1_455 S
N346 C338 1.361 1_655 S
N346 H352 0.977 1_556 S
N346 H353 0.987 . S
N347 C340 1.356 . S
N347 H350 0.984 . S
N347 H351 0.985 . S
H348 N343 0.984 . S
H349 N343 0.985 . S
H350 N347 0.984 . S
H351 N347 0.985 . S
H352 N346 0.977 1_554 S
H353 N346 0.987 . S
H354 N342 0.984 1_554 S
H355 N342 0.985 . S
C356 C357 1.363 . S
C356 C362 1.379 . S
C356 N364 1.356 . S
C357 C356 1.363 . S
C357 C363 1.363 . S
C358 C359 1.363 1_565 S
C358 C363 1.379 . S
C358 N365 1.356 1_565 S
C359 C358 1.363 1_545 S
C359 C362 1.363 1_545 S
N360 C362 1.356 1_545 S
N360 H372 0.984 1_554 S
N360 H373 0.985 . S
N361 C363 1.356 . S
N361 H366 0.984 . S
N361 H367 0.985 . S
C362 C356 1.379 . S
C362 C359 1.363 1_565 S
C362 N360 1.356 1_565 S
C363 C357 1.363 . S
C363 C358 1.379 . S
C363 N361 1.356 . S
N364 C356 1.356 . S
N364 H370 0.984 1_554 S
N364 H371 0.984 . S
N365 C358 1.356 1_545 S
N365 H368 0.984 . S
N365 H369 0.985 . S
H366 N361 0.984 . S
H367 N361 0.985 . S
H368 N365 0.984 . S
H369 N365 0.985 . S
H370 N364 0.984 1_556 S
H371 N364 0.984 . S
H372 N360 0.984 1_556 S
H373 N360 0.985 . S
C374 C375 1.363 . S
C374 C380 1.379 . S
C374 N382 1.356 . S
C375 C374 1.363 . S
C375 C381 1.363 . S
C376 C377 1.363 1_655 S
C376 C381 1.379 . S
C376 N383 1.356 1_655 S
C377 C376 1.363 1_455 S
C377 C380 1.363 1_455 S
N378 C380 1.356 1_455 S
N378 H390 0.984 . S
N378 H391 0.985 . S
N379 C381 1.356 . S
N379 H384 0.984 . S
N379 H385 0.985 . S
C380 C374 1.379 . S
C380 C377 1.363 1_655 S
C380 N378 1.356 1_655 S
C381 C375 1.363 . S
C381 C376 1.379 . S
C381 N379 1.356 . S
N382 C374 1.356 . S
N382 H388 0.984 . S
N382 H389 0.984 . S
N383 C376 1.356 1_455 S
N383 H386 0.984 . S
N383 H387 0.985 . S
H384 N379 0.984 . S
H385 N379 0.985 . S
H386 N383 0.984 . S
H387 N383 0.985 . S
H388 N382 0.984 . S
H389 N382 0.984 . S
H390 N378 0.984 . S
H391 N378 0.985 . S
C392 C393 1.363 . S
C392 C398 1.379 . S
C392 N400 1.356 . S
C393 C392 1.363 . S
C393 C399 1.363 1_554 S
C394 C395 1.363 1_556 S
C394 C399 1.379 . S
C394 N401 1.356 . S
C395 C394 1.363 1_554 S
C395 C398 1.363 . S
N396 C398 1.356 . S
N396 H408 0.984 . S
N396 H409 0.985 . S
N397 C399 1.356 . S
N397 H402 0.984 . S
N397 H403 0.985 . S
C398 C392 1.379 . S
C398 C395 1.363 . S
C398 N396 1.356 . S
C399 C393 1.363 1_556 S
C399 C394 1.379 . S
C399 N397 1.356 . S
N400 C392 1.356 . S
N400 H406 0.984 . S
N400 H407 0.984 . S
N401 C394 1.356 . S
N401 H404 0.984 . S
N401 H405 0.985 . S
H402 N397 0.984 . S
H403 N397 0.985 . S
H404 N401 0.984 . S
H405 N401 0.985 . S
H406 N400 0.984 . S
H407 N400 0.984 . S
H408 N396 0.984 . S
H409 N396 0.985 . S
C410 C411 1.363 . S
C410 C416 1.379 . S
C410 N418 1.356 1_556 S
C411 C410 1.363 . S
C411 C417 1.363 . S
C412 C413 1.363 . S
C412 C417 1.379 . S
C412 N419 1.356 . S
C413 C412 1.363 . S
C413 C416 1.363 . S
N414 C416 1.356 1_554 S
N414 H426 0.984 . S
N414 H427 0.985 . S
N415 C417 1.356 . S
N415 H420 0.984 . S
N415 H421 0.985 . S
C416 C410 1.379 . S
C416 C413 1.363 . S
C416 N414 1.356 1_556 S
C417 C411 1.363 . S
C417 C412 1.379 . S
C417 N415 1.356 . S
N418 C410 1.356 1_554 S
N418 H424 0.984 . S
N418 H425 0.984 1_554 S
N419 C412 1.356 . S
N419 H422 0.984 . S
N419 H423 0.985 . S
H420 N415 0.984 . S
H421 N415 0.985 . S
H422 N419 0.984 . S
H423 N419 0.985 . S
H424 N418 0.984 . S
H425 N418 0.984 1_556 S
H426 N414 0.984 . S
H427 N414 0.985 . S
C428 C429 1.363 1_556 S
C428 C434 1.379 . S
C428 N436 1.356 . S
C429 C428 1.363 1_554 S
C429 C435 1.363 . S
C430 C431 1.363 . S
C430 C435 1.379 . S
C430 N437 1.356 . S
C431 C430 1.363 . S
C431 C434 1.363 1_554 S
N432 C434 1.356 . S
N432 H444 0.984 . S
N432 H445 0.985 . S
N433 C435 1.356 . S
N433 H438 0.984 . S
N433 H439 0.985 . S
C434 C428 1.379 . S
C434 C431 1.363 1_556 S
C434 N432 1.356 . S
C435 C429 1.363 . S
C435 C430 1.379 . S
C435 N433 1.356 . S
N436 C428 1.356 . S
N436 H442 0.984 . S
N436 H443 0.984 . S
N437 C430 1.356 . S
N437 H440 0.984 . S
N437 H441 0.985 . S
H438 N433 0.984 . S
H439 N433 0.985 . S
H440 N437 0.984 . S
H441 N437 0.985 . S
H442 N436 0.984 . S
H443 N436 0.984 . S
H444 N432 0.984 . S
H445 N432 0.985 . S
C446 C447 1.363 1_554 S
C446 C452 1.379 . S
C446 N454 1.356 . S
C447 C446 1.363 1_556 S
C447 C453 1.363 . S
C448 C449 1.363 . S
C448 C453 1.379 . S
C448 N455 1.356 . S
C449 C448 1.363 . S
C449 C452 1.363 1_556 S
N450 C452 1.356 . S
N450 H462 0.984 . S
N450 H463 0.985 . S
N451 C453 1.356 . S
N451 H456 0.984 . S
N451 H457 0.985 . S
C452 C446 1.379 . S
C452 C449 1.363 1_554 S
C452 N450 1.356 . S
C453 C447 1.363 . S
C453 C448 1.379 . S
C453 N451 1.356 . S
N454 C446 1.356 . S
N454 H460 0.984 . S
N454 H461 0.984 . S
N455 C448 1.356 . S
N455 H458 0.984 . S
N455 H459 0.985 . S
H456 N451 0.984 . S
H457 N451 0.985 . S
H458 N455 0.984 . S
H459 N455 0.985 . S
H460 N454 0.984 . S
H461 N454 0.984 . S
H462 N450 0.984 . S
H463 N450 0.985 . S
C464 C465 1.363 . S
C464 C470 1.379 . S
C464 N472 1.356 . S
C465 C464 1.363 . S
C465 C471 1.363 . S
C466 C467 1.363 . S
C466 C471 1.379 . S
C466 N473 1.356 . S
C467 C466 1.363 . S
C467 C470 1.363 . S
N468 C470 1.356 . S
N468 H480 0.984 . S
N468 H481 0.985 . S
N469 C471 1.356 . S
N469 H474 0.984 . S
N469 H475 0.985 . S
C470 C464 1.379 . S
C470 C467 1.363 . S
C470 N468 1.356 . S
C471 C465 1.363 . S
C471 C466 1.379 . S
C471 N469 1.356 . S
N472 C464 1.356 . S
N472 H478 0.984 . S
N472 H479 0.984 . S
N473 C466 1.356 . S
N473 H476 0.984 . S
N473 H477 0.985 . S
H474 N469 0.984 . S
H475 N469 0.985 . S
H476 N473 0.984 . S
H477 N473 0.985 . S
H478 N472 0.984 . S
H479 N472 0.984 . S
H480 N468 0.984 . S
H481 N468 0.985 . S
C482 C483 1.363 . S
C482 C488 1.379 . S
C482 N490 1.356 . S
C483 C482 1.363 . S
C483 C489 1.363 . S
C484 C485 1.363 . S
C484 C489 1.379 . S
C484 N491 1.356 . S
C485 C484 1.363 . S
C485 C488 1.363 . S
N486 C488 1.356 . S
N486 H498 0.984 . S
N486 H499 0.985 . S
N487 C489 1.356 . S
N487 H492 0.984 . S
N487 H493 0.985 . S
C488 C482 1.379 . S
C488 C485 1.363 . S
C488 N486 1.356 . S
C489 C483 1.363 . S
C489 C484 1.379 . S
C489 N487 1.356 . S
N490 C482 1.356 . S
N490 H496 0.984 . S
N490 H497 0.984 . S
N491 C484 1.356 . S
N491 H494 0.984 . S
N491 H495 0.985 . S
H492 N487 0.984 . S
H493 N487 0.985 . S
H494 N491 0.984 . S
H495 N491 0.985 . S
H496 N490 0.984 . S
H497 N490 0.984 . S
H498 N486 0.984 . S
H499 N486 0.985 . S
C500 C501 1.363 . S
C500 C506 1.379 . S
C500 N508 1.356 . S
C501 C500 1.363 . S
C501 C507 1.363 . S
C502 C503 1.363 . S
C502 C507 1.379 . S
C502 N509 1.356 . S
C503 C502 1.363 . S
C503 C506 1.363 . S
N504 C506 1.356 . S
N504 H516 0.984 . S
N504 H517 0.985 . S
N505 C507 1.356 . S
N505 H510 0.984 . S
N505 H511 0.985 . S
C506 C500 1.379 . S
C506 C503 1.363 . S
C506 N504 1.356 . S
C507 C501 1.363 . S
C507 C502 1.379 . S
C507 N505 1.356 . S
N508 C500 1.356 . S
N508 H514 0.984 . S
N508 H515 0.984 . S
N509 C502 1.356 . S
N509 H512 0.984 . S
N509 H513 0.985 . S
H510 N505 0.984 . S
H511 N505 0.985 . S
H512 N509 0.984 . S
H513 N509 0.985 . S
H514 N508 0.984 . S
H515 N508 0.984 . S
H516 N504 0.984 . S
H517 N504 0.985 . S
C518 C519 1.363 . S
C518 C524 1.379 . S
C518 N526 1.356 . S
C519 C518 1.363 . S
C519 C525 1.363 . S
C520 C521 1.363 . S
C520 C525 1.379 . S
C520 N527 1.356 . S
C521 C520 1.363 . S
C521 C524 1.363 . S
N522 C524 1.356 . S
N522 H534 0.984 . S
N522 H535 0.985 . S
N523 C525 1.356 . S
N523 H528 0.984 . S
N523 H529 0.985 . S
C524 C518 1.379 . S
C524 C521 1.363 . S
C524 N522 1.356 . S
C525 C519 1.363 . S
C525 C520 1.379 . S
C525 N523 1.356 . S
N526 C518 1.356 . S
N526 H532 0.984 . S
N526 H533 0.984 . S
N527 C520 1.356 . S
N527 H530 0.984 . S
N527 H531 0.985 . S
H528 N523 0.984 . S
H529 N523 0.985 . S
H530 N527 0.984 . S
H531 N527 0.985 . S
H532 N526 0.984 . S
H533 N526 0.984 . S
H534 N522 0.984 . S
H535 N522 0.985 . S
C536 C537 1.363 . S
C536 C542 1.379 . S
C536 N544 1.356 . S
C537 C536 1.363 . S
C537 C543 1.363 . S
C538 C539 1.363 1_565 S
C538 C543 1.379 . S
C538 N545 1.356 1_565 S
C539 C538 1.363 1_545 S
C539 C542 1.363 1_545 S
N540 C542 1.356 1_545 S
N540 H552 0.984 . S
N540 H553 0.985 . S
N541 C543 1.356 . S
N541 H546 0.984 . S
N541 H547 0.985 . S
C542 C536 1.379 . S
C542 C539 1.363 1_565 S
C542 N540 1.356 1_565 S
C543 C537 1.363 . S
C543 C538 1.379 . S
C543 N541 1.356 . S
N544 C536 1.356 . S
N544 H550 0.984 . S
N544 H551 0.984 . S
N545 C538 1.356 1_545 S
N545 H548 0.984 . S
N545 H549 0.985 . S
H546 N541 0.984 . S
H547 N541 0.985 . S
H548 N545 0.984 . S
H549 N545 0.985 . S
H550 N544 0.984 . S
H551 N544 0.984 . S
H552 N540 0.984 . S
H553 N540 0.985 . S
C554 C555 1.363 1_655 S
C554 C560 1.379 . S
C554 N562 1.356 1_655 S
C555 C554 1.363 1_455 S
C555 C561 1.363 1_455 S
C556 C557 1.363 . S
C556 C561 1.379 . S
C556 N563 1.356 . S
C557 C556 1.363 . S
C557 C560 1.363 . S
N558 C560 1.356 . S
N558 H570 0.984 . S
N558 H571 0.985 . S
N559 C561 1.356 1_455 S
N559 H564 0.984 . S
N559 H565 0.985 . S
C560 C554 1.379 . S
C560 C557 1.363 . S
C560 N558 1.356 . S
C561 C555 1.363 1_655 S
C561 C556 1.379 . S
C561 N559 1.356 1_655 S
N562 C554 1.356 1_455 S
N562 H568 0.984 . S
N562 H569 0.984 . S
N563 C556 1.356 . S
N563 H566 0.984 . S
N563 H567 0.985 . S
H564 N559 0.984 . S
H565 N559 0.985 . S
H566 N563 0.984 . S
H567 N563 0.985 . S
H568 N562 0.984 . S
H569 N562 0.984 . S
H570 N558 0.984 . S
H571 N558 0.985 . S
C572 C573 1.363 1_545 S
C572 C578 1.379 . S
C572 N580 1.356 1_545 S
C573 C572 1.363 1_565 S
C573 C579 1.363 1_565 S
C574 C575 1.363 . S
C574 C579 1.379 . S
C574 N581 1.356 . S
C575 C574 1.363 . S
C575 C578 1.363 . S
N576 C578 1.356 . S
N576 H588 0.984 . S
N576 H589 0.985 . S
N577 C579 1.356 1_565 S
N577 H582 0.984 . S
N577 H583 0.985 . S
C578 C572 1.379 . S
C578 C575 1.363 . S
C578 N576 1.356 . S
C579 C573 1.363 1_545 S
C579 C574 1.379 . S
C579 N577 1.356 1_545 S
N580 C572 1.356 1_565 S
N580 H586 0.984 . S
N580 H587 0.984 . S
N581 C574 1.356 . S
N581 H584 0.984 . S
N581 H585 0.985 . S
H582 N577 0.984 . S
H583 N577 0.985 . S
H584 N581 0.984 . S
H585 N581 0.985 . S
H586 N580 0.984 . S
H587 N580 0.984 . S
H588 N576 0.984 . S
H589 N576 0.985 . S
C590 C591 1.363 . S
C590 C596 1.379 . S
C590 N598 1.356 . S
C591 C590 1.363 . S
C591 C597 1.363 . S
C592 C593 1.363 1_455 S
C592 C597 1.379 . S
C592 N599 1.356 1_455 S
C593 C592 1.363 1_655 S
C593 C596 1.363 1_655 S
N594 C596 1.356 1_655 S
N594 H606 0.984 . S
N594 H607 0.985 . S
N595 C597 1.356 . S
N595 H600 0.984 . S
N595 H601 0.985 . S
C596 C590 1.379 . S
C596 C593 1.363 1_455 S
C596 N594 1.356 1_455 S
C597 C591 1.363 . S
C597 C592 1.379 . S
C597 N595 1.356 . S
N598 C590 1.356 . S
N598 H604 0.984 . S
N598 H605 0.984 . S
N599 C592 1.356 1_655 S
N599 H602 0.984 . S
N599 H603 0.985 . S
H600 N595 0.984 . S
H601 N595 0.985 . S
H602 N599 0.984 . S
H603 N599 0.985 . S
H604 N598 0.984 . S
H605 N598 0.984 . S
H606 N594 0.984 . S
H607 N594 0.985 . S
C608 C609 1.363 . S
C608 C614 1.379 . S
C608 N616 1.356 1_554 S
C609 C608 1.363 . S
C609 C615 1.363 . S
C610 C611 1.363 . S
C610 C615 1.379 . S
C610 N617 1.356 . S
C611 C610 1.363 . S
C611 C614 1.363 . S
N612 C614 1.356 . S
N612 H624 0.984 1_554 S
N612 H625 0.985 . S
N613 C615 1.356 . S
N613 H618 0.984 . S
N613 H619 0.985 . S
C614 C608 1.379 . S
C614 C611 1.363 . S
C614 N612 1.356 . S
C615 C609 1.363 . S
C615 C610 1.379 . S
C615 N613 1.356 . S
N616 C608 1.356 1_556 S
N616 H622 0.984 . S
N616 H623 0.984 . S
N617 C610 1.356 . S
N617 H620 0.984 . S
N617 H621 0.985 . S
H618 N613 0.984 . S
H619 N613 0.985 . S
H620 N617 0.984 . S
H621 N617 0.985 . S
H622 N616 0.984 . S
H623 N616 0.984 . S
H624 N612 0.984 1_556 S
H625 N612 0.985 . S
C626 C627 1.363 . S
C626 C632 1.379 . S
C626 N634 1.356 . S
C627 C626 1.363 . S
C627 C633 1.363 . S
C628 C629 1.363 . S
C628 C633 1.379 . S
C628 N635 1.356 1_556 S
C629 C628 1.363 . S
C629 C632 1.363 . S
N630 C632 1.356 . S
N630 H642 0.984 . S
N630 H643 0.985 . S
N631 C633 1.356 . S
N631 H636 0.984 . S
N631 H637 0.985 . S
C632 C626 1.379 . S
C632 C629 1.363 . S
C632 N630 1.356 . S
C633 C627 1.363 . S
C633 C628 1.379 . S
C633 N631 1.356 . S
N634 C626 1.356 . S
N634 H640 0.984 . S
N634 H641 0.984 . S
N635 C628 1.356 1_554 S
N635 H638 0.984 . S
N635 H639 0.985 . S
H636 N631 0.984 . S
H637 N631 0.985 . S
H638 N635 0.984 . S
H639 N635 0.985 . S
H640 N634 0.984 . S
H641 N634 0.984 . S
H642 N630 0.984 . S
H643 N630 0.985 . S
C644 C645 1.363 . S
C644 C650 1.379 . S
C644 N652 1.356 . S
C645 C644 1.363 . S
C645 C651 1.363 . S
C646 C647 1.363 . S
C646 C651 1.379 . S
C646 N653 1.356 . S
C647 C646 1.363 . S
C647 C650 1.363 . S
N648 C650 1.356 . S
N648 H660 0.984 . S
N648 H661 0.985 . S
N649 C651 1.356 1_556 S
N649 H654 0.984 . S
N649 H655 0.985 . S
C650 C644 1.379 . S
C650 C647 1.363 . S
C650 N648 1.356 . S
C651 C645 1.363 . S
C651 C646 1.379 . S
C651 N649 1.356 1_554 S
N652 C644 1.356 . S
N652 H658 0.984 . S
N652 H659 0.984 . S
N653 C646 1.356 . S
N653 H656 0.984 . S
N653 H657 0.985 1_554 S
H654 N649 0.984 . S
H655 N649 0.985 . S
H656 N653 0.984 . S
H657 N653 0.985 1_556 S
H658 N652 0.984 . S
H659 N652 0.984 . S
H660 N648 0.984 . S
H661 N648 0.985 . S
C662 C663 1.363 . S
C662 C668 1.379 . S
C662 N670 1.356 1_556 S
C663 C662 1.363 . S
C663 C669 1.363 . S
C664 C665 1.363 . S
C664 C669 1.379 . S
C664 N671 1.356 . S
C665 C664 1.363 . S
C665 C668 1.363 . S
N666 C668 1.356 . S
N666 H678 0.984 . S
N666 H679 0.985 . S
N667 C669 1.356 . S
N667 H672 0.984 . S
N667 H673 0.985 . S
C668 C662 1.379 . S
C668 C665 1.363 . S
C668 N666 1.356 . S
C669 C663 1.363 . S
C669 C664 1.379 . S
C669 N667 1.356 . S
N670 C662 1.356 1_554 S
N670 H676 0.984 . S
N670 H677 0.984 . S
N671 C664 1.356 . S
N671 H674 0.984 . S
N671 H675 0.985 . S
H672 N667 0.984 . S
H673 N667 0.985 . S
H674 N671 0.984 . S
H675 N671 0.985 . S
H676 N670 0.984 . S
H677 N670 0.984 . S
H678 N666 0.984 . S
H679 N666 0.985 . S
C680 C681 1.363 . S
C680 C686 1.379 . S
C680 N688 1.356 . S
C681 C680 1.363 . S
C681 C687 1.363 . S
C682 C683 1.363 . S
C682 C687 1.379 . S
C682 N689 1.356 . S
C683 C682 1.363 . S
C683 C686 1.363 . S
N684 C686 1.356 . S
N684 H696 0.984 . S
N684 H697 0.985 . S
N685 C687 1.356 . S
N685 H690 0.984 . S
N685 H691 0.985 . S
C686 C680 1.379 . S
C686 C683 1.363 . S
C686 N684 1.356 . S
C687 C681 1.363 . S
C687 C682 1.379 . S
C687 N685 1.356 . S
N688 C680 1.356 . S
N688 H694 0.984 . S
N688 H695 0.984 . S
N689 C682 1.356 . S
N689 H692 0.984 . S
N689 H693 0.985 . S
H690 N685 0.984 . S
H691 N685 0.985 . S
H692 N689 0.984 . S
H693 N689 0.985 . S
H694 N688 0.984 . S
H695 N688 0.984 . S
H696 N684 0.984 . S
H697 N684 0.985 . S
C698 C699 1.363 . S
C698 C704 1.379 . S
C698 N706 1.356 . S
C699 C698 1.363 . S
C699 C705 1.363 . S
C700 C701 1.363 . S
C700 C705 1.379 . S
C700 N707 1.356 . S
C701 C700 1.363 . S
C701 C704 1.363 . S
N702 C704 1.356 . S
N702 H714 0.984 . S
N702 H715 0.985 . S
N703 C705 1.356 . S
N703 H708 0.984 . S
N703 H709 0.985 . S
C704 C698 1.379 . S
C704 C701 1.363 . S
C704 N702 1.356 . S
C705 C699 1.363 . S
C705 C700 1.379 . S
C705 N703 1.356 . S
N706 C698 1.356 . S
N706 H712 0.984 . S
N706 H713 0.984 . S
N707 C700 1.356 . S
N707 H710 0.984 . S
N707 H711 0.985 . S
H708 N703 0.984 . S
H709 N703 0.985 . S
H710 N707 0.984 . S
H711 N707 0.985 . S
H712 N706 0.984 . S
H713 N706 0.984 . S
H714 N702 0.984 . S
H715 N702 0.985 . S
C716 C717 1.363 . S
C716 C722 1.379 . S
C716 N724 1.356 . S
C717 C716 1.363 . S
C717 C723 1.363 . S
C718 C719 1.363 . S
C718 C723 1.379 . S
C718 N725 1.356 . S
C719 C718 1.363 . S
C719 C722 1.363 . S
N720 C722 1.356 . S
N720 H732 0.984 . S
N720 H733 0.985 . S
N721 C723 1.356 . S
N721 H726 0.984 . S
N721 H727 0.985 . S
C722 C716 1.379 . S
C722 C719 1.363 . S
C722 N720 1.356 . S
C723 C717 1.363 . S
C723 C718 1.379 . S
C723 N721 1.356 . S
N724 C716 1.356 . S
N724 H730 0.984 . S
N724 H731 0.984 . S
N725 C718 1.356 . S
N725 H728 0.984 . S
N725 H729 0.985 . S
H726 N721 0.984 . S
H727 N721 0.985 . S
H728 N725 0.984 . S
H729 N725 0.985 . S
H730 N724 0.984 . S
H731 N724 0.984 . S
H732 N720 0.984 . S
H733 N720 0.985 . S
C734 C735 1.363 . S
C734 C740 1.379 . S
C734 N742 1.356 . S
C735 C734 1.363 . S
C735 C741 1.363 . S
C736 C737 1.363 . S
C736 C741 1.379 . S
C736 N743 1.356 . S
C737 C736 1.363 . S
C737 C740 1.363 . S
N738 C740 1.356 . S
N738 H750 0.984 . S
N738 H751 0.985 . S
N739 C741 1.356 . S
N739 H744 0.984 . S
N739 H745 0.985 . S
C740 C734 1.379 . S
C740 C737 1.363 . S
C740 N738 1.356 . S
C741 C735 1.363 . S
C741 C736 1.379 . S
C741 N739 1.356 . S
N742 C734 1.356 . S
N742 H748 0.984 . S
N742 H749 0.984 . S
N743 C736 1.356 . S
N743 H746 0.984 . S
N743 H747 0.985 . S
H744 N739 0.984 . S
H745 N739 0.985 . S
H746 N743 0.984 . S
H747 N743 0.985 . S
H748 N742 0.984 . S
H749 N742 0.984 . S
H750 N738 0.984 . S
H751 N738 0.985 . S
C752 C753 1.363 . S
C752 C758 1.379 . S
C752 N760 1.356 . S
C753 C752 1.363 . S
C753 C759 1.363 . S
C754 C755 1.363 . S
C754 C759 1.379 . S
C754 N761 1.356 . S
C755 C754 1.363 . S
C755 C758 1.363 . S
N756 C758 1.356 1_554 S
N756 H768 0.984 . S
N756 H769 0.985 . S
N757 C759 1.356 . S
N757 H762 0.984 . S
N757 H763 0.985 . S
C758 C752 1.379 . S
C758 C755 1.363 . S
C758 N756 1.356 1_556 S
C759 C753 1.363 . S
C759 C754 1.379 . S
C759 N757 1.356 . S
N760 C752 1.356 . S
N760 H766 0.984 . S
N760 H767 0.984 . S
N761 C754 1.356 . S
N761 H764 0.984 . S
N761 H765 0.985 . S
H762 N757 0.984 . S
H763 N757 0.985 . S
H764 N761 0.984 . S
H765 N761 0.985 . S
H766 N760 0.984 . S
H767 N760 0.984 . S
H768 N756 0.984 . S
H769 N756 0.985 . S
C770 C771 1.363 . S
C770 C776 1.379 . S
C770 N778 1.356 1_554 S
C771 C770 1.363 . S
C771 C777 1.363 . S
C772 C773 1.363 . S
C772 C777 1.379 . S
C772 N779 1.356 . S
C773 C772 1.363 . S
C773 C776 1.363 . S
N774 C776 1.356 . S
N774 H786 0.984 1_554 S
N774 H787 0.985 . S
N775 C777 1.356 . S
N775 H780 0.984 . S
N775 H781 0.985 . S
C776 C770 1.379 . S
C776 C773 1.363 . S
C776 N774 1.356 . S
C777 C771 1.363 . S
C777 C772 1.379 . S
C777 N775 1.356 . S
N778 C770 1.356 1_556 S
N778 H784 0.984 . S
N778 H785 0.984 . S
N779 C772 1.356 . S
N779 H782 0.984 . S
N779 H783 0.985 . S
H780 N775 0.984 . S
H781 N775 0.985 . S
H782 N779 0.984 . S
H783 N779 0.985 . S
H784 N778 0.984 . S
H785 N778 0.984 . S
H786 N774 0.984 1_556 S
H787 N774 0.985 . S
C788 C789 1.363 . S
C788 C794 1.379 . S
C788 N796 1.356 1_556 S
C789 C788 1.363 . S
C789 C795 1.363 . S
C790 C791 1.363 . S
C790 C795 1.379 . S
C790 N797 1.356 . S
C791 C790 1.363 . S
C791 C794 1.363 . S
N792 C794 1.356 . S
N792 H804 0.984 . S
N792 H805 0.985 . S
N793 C795 1.356 . S
N793 H798 0.984 . S
N793 H799 0.985 . S
C794 C788 1.379 . S
C794 C791 1.363 . S
C794 N792 1.356 . S
C795 C789 1.363 . S
C795 C790 1.379 . S
C795 N793 1.356 . S
N796 C788 1.356 1_554 S
N796 H802 0.984 . S
N796 H803 0.984 . S
N797 C790 1.356 . S
N797 H800 0.984 . S
N797 H801 0.985 . S
H798 N793 0.984 . S
H799 N793 0.985 . S
H800 N797 0.984 . S
H801 N797 0.985 . S
H802 N796 0.984 . S
H803 N796 0.984 . S
H804 N792 0.984 . S
H805 N792 0.985 . S
C806 C807 1.363 . S
C806 C812 1.379 . S
C806 N814 1.356 1_554 S
C807 C806 1.363 . S
C807 C813 1.363 . S
C808 C809 1.363 . S
C808 C813 1.379 . S
C808 N815 1.356 . S
C809 C808 1.363 . S
C809 C812 1.363 . S
N810 C812 1.356 . S
N810 H822 0.984 1_554 S
N810 H823 0.985 . S
N811 C813 1.356 . S
N811 H816 0.984 . S
N811 H817 0.985 . S
C812 C806 1.379 . S
C812 C809 1.363 . S
C812 N810 1.356 . S
C813 C807 1.363 . S
C813 C808 1.379 . S
C813 N811 1.356 . S
N814 C806 1.356 1_556 S
N814 H820 0.984 . S
N814 H821 0.984 . S
N815 C808 1.356 . S
N815 H818 0.984 . S
N815 H819 0.985 . S
H816 N811 0.984 . S
H817 N811 0.985 . S
H818 N815 0.984 . S
H819 N815 0.985 . S
H820 N814 0.984 . S
H821 N814 0.984 . S
H822 N810 0.984 1_556 S
H823 N810 0.985 . S
C824 C825 1.363 . S
C824 C830 1.379 . S
C824 N832 1.356 . S
C825 C824 1.363 . S
C825 C831 1.363 . S
C826 C827 1.363 . S
C826 C831 1.379 . S
C826 N833 1.356 . S
C827 C826 1.363 . S
C827 C830 1.363 . S
N828 C830 1.356 . S
N828 H840 0.984 . S
N828 H841 0.985 . S
N829 C831 1.356 . S
N829 H834 0.984 . S
N829 H835 0.985 . S
C830 C824 1.379 . S
C830 C827 1.363 . S
C830 N828 1.356 . S
C831 C825 1.363 . S
C831 C826 1.379 . S
C831 N829 1.356 . S
N832 C824 1.356 . S
N832 H838 0.984 . S
N832 H839 0.984 . S
N833 C826 1.356 . S
N833 H836 0.984 . S
N833 H837 0.985 . S
H834 N829 0.984 . S
H835 N829 0.985 . S
H836 N833 0.984 . S
H837 N833 0.985 . S
H838 N832 0.984 . S
H839 N832 0.984 . S
H840 N828 0.984 . S
H841 N828 0.985 . S
C842 C843 1.363 . S
C842 C848 1.379 . S
C842 N850 1.356 . S
C843 C842 1.363 . S
C843 C849 1.363 . S
C844 C845 1.363 . S
C844 C849 1.379 . S
C844 N851 1.356 . S
C845 C844 1.363 . S
C845 C848 1.363 . S
N846 C848 1.356 . S
N846 H858 0.984 . S
N846 H859 0.985 . S
N847 C849 1.356 . S
N847 H852 0.984 . S
N847 H853 0.985 . S
C848 C842 1.379 . S
C848 C845 1.363 . S
C848 N846 1.356 . S
C849 C843 1.363 . S
C849 C844 1.379 . S
C849 N847 1.356 . S
N850 C842 1.356 . S
N850 H856 0.984 . S
N850 H857 0.984 . S
N851 C844 1.356 . S
N851 H854 0.984 . S
N851 H855 0.985 . S
H852 N847 0.984 . S
H853 N847 0.985 . S
H854 N851 0.984 . S
H855 N851 0.985 . S
H856 N850 0.984 . S
H857 N850 0.984 . S
H858 N846 0.984 . S
H859 N846 0.985 . S
C860 C861 1.363 . S
C860 C866 1.379 . S
C860 N868 1.356 . S
C861 C860 1.363 . S
C861 C867 1.363 . S
C862 C863 1.363 . S
C862 C867 1.379 . S
C862 N869 1.356 . S
C863 C862 1.363 . S
C863 C866 1.363 . S
N864 C866 1.356 . S
N864 H876 0.984 . S
N864 H877 0.985 . S
N865 C867 1.356 . S
N865 H870 0.984 . S
N865 H871 0.985 . S
C866 C860 1.379 . S
C866 C863 1.363 . S
C866 N864 1.356 . S
C867 C861 1.363 . S
C867 C862 1.379 . S
C867 N865 1.356 . S
N868 C860 1.356 . S
N868 H874 0.984 . S
N868 H875 0.984 . S
N869 C862 1.356 . S
N869 H872 0.984 . S
N869 H873 0.985 . S
H870 N865 0.984 . S
H871 N865 0.985 . S
H872 N869 0.984 . S
H873 N869 0.985 . S
H874 N868 0.984 . S
H875 N868 0.984 . S
H876 N864 0.984 . S
H877 N864 0.985 . S
C878 C879 1.363 . S
C878 C884 1.379 . S
C878 N886 1.356 . S
C879 C878 1.363 . S
C879 C885 1.363 . S
C880 C881 1.363 . S
C880 C885 1.379 . S
C880 N887 1.356 . S
C881 C880 1.363 . S
C881 C884 1.363 . S
N882 C884 1.356 . S
N882 H894 0.984 . S
N882 H895 0.985 . S
N883 C885 1.356 . S
N883 H888 0.984 . S
N883 H889 0.985 . S
C884 C878 1.379 . S
C884 C881 1.363 . S
C884 N882 1.356 . S
C885 C879 1.363 . S
C885 C880 1.379 . S
C885 N883 1.356 . S
N886 C878 1.356 . S
N886 H892 0.984 . S
N886 H893 0.984 . S
N887 C880 1.356 . S
N887 H890 0.984 . S
N887 H891 0.985 . S
H888 N883 0.984 . S
H889 N883 0.985 . S
H890 N887 0.984 . S
H891 N887 0.985 . S
H892 N886 0.984 . S
H893 N886 0.984 . S
H894 N882 0.984 . S
H895 N882 0.985 . S
C896 C897 1.363 . S
C896 C902 1.379 . S
C896 N904 1.356 . S
C897 C896 1.363 . S
C897 C903 1.363 . S
C898 C899 1.363 . S
C898 C903 1.379 . S
C898 N905 1.356 . S
C899 C898 1.363 . S
C899 C902 1.363 . S
N900 C902 1.356 . S
N900 H912 0.984 . S
N900 H913 0.985 . S
N901 C903 1.356 . S
N901 H906 0.984 . S
N901 H907 0.985 . S
C902 C896 1.379 . S
C902 C899 1.363 . S
C902 N900 1.356 . S
C903 C897 1.363 . S
C903 C898 1.379 . S
C903 N901 1.356 . S
N904 C896 1.356 . S
N904 H910 0.984 . S
N904 H911 0.984 . S
N905 C898 1.356 . S
N905 H908 0.984 . S
N905 H909 0.985 . S
H906 N901 0.984 . S
H907 N901 0.985 . S
H908 N905 0.984 . S
H909 N905 0.985 . S
H910 N904 0.984 . S
H911 N904 0.984 . S
H912 N900 0.984 . S
H913 N900 0.985 . S
C914 C915 1.363 . S
C914 C920 1.379 . S
C914 N922 1.356 . S
C915 C914 1.363 . S
C915 C921 1.363 . S
C916 C917 1.363 . S
C916 C921 1.379 . S
C916 N923 1.356 . S
C917 C916 1.363 . S
C917 C920 1.363 . S
N918 C920 1.356 . S
N918 H930 0.984 . S
N918 H931 0.985 . S
N919 C921 1.356 . S
N919 H924 0.984 . S
N919 H925 0.985 . S
C920 C914 1.379 . S
C920 C917 1.363 . S
C920 N918 1.356 . S
C921 C915 1.363 . S
C921 C916 1.379 . S
C921 N919 1.356 . S
N922 C914 1.356 . S
N922 H928 0.984 . S
N922 H929 0.984 . S
N923 C916 1.356 . S
N923 H926 0.984 . S
N923 H927 0.985 . S
H924 N919 0.984 . S
H925 N919 0.985 . S
H926 N923 0.984 . S
H927 N923 0.985 . S
H928 N922 0.984 . S
H929 N922 0.984 . S
H930 N918 0.984 . S
H931 N918 0.985 . S
C932 C933 1.363 . S
C932 C938 1.379 . S
C932 N940 1.356 . S
C933 C932 1.363 . S
C933 C939 1.363 . S
C934 C935 1.363 . S
C934 C939 1.379 . S
C934 N941 1.356 . S
C935 C934 1.363 . S
C935 C938 1.363 . S
N936 C938 1.356 . S
N936 H948 0.984 . S
N936 H949 0.985 . S
N937 C939 1.356 . S
N937 H942 0.984 . S
N937 H943 0.985 . S
C938 C932 1.379 . S
C938 C935 1.363 . S
C938 N936 1.356 . S
C939 C933 1.363 . S
C939 C934 1.379 . S
C939 N937 1.356 . S
N940 C932 1.356 . S
N940 H946 0.984 . S
N940 H947 0.984 . S
N941 C934 1.356 . S
N941 H944 0.984 . S
N941 H945 0.985 . S
H942 N937 0.984 . S
H943 N937 0.985 . S
H944 N941 0.984 . S
H945 N941 0.985 . S
H946 N940 0.984 . S
H947 N940 0.984 . S
H948 N936 0.984 . S
H949 N936 0.985 . S
C950 C951 1.363 . S
C950 C956 1.379 . S
C950 N958 1.356 . S
C951 C950 1.363 . S
C951 C957 1.363 . S
C952 C953 1.363 . S
C952 C957 1.379 . S
C952 N959 1.356 . S
C953 C952 1.363 . S
C953 C956 1.363 . S
N954 C956 1.356 . S
N954 H966 0.984 . S
N954 H967 0.985 . S
N955 C957 1.356 . S
N955 H960 0.984 . S
N955 H961 0.985 . S
C956 C950 1.379 . S
C956 C953 1.363 . S
C956 N954 1.356 . S
C957 C951 1.363 . S
C957 C952 1.379 . S
C957 N955 1.356 . S
N958 C950 1.356 . S
N958 H964 0.984 . S
N958 H965 0.984 . S
N959 C952 1.356 . S
N959 H962 0.984 . S
N959 H963 0.985 . S
H960 N955 0.984 . S
H961 N955 0.985 . S
H962 N959 0.984 . S
H963 N959 0.985 . S
H964 N958 0.984 . S
H965 N958 0.984 . S
H966 N954 0.984 . S
H967 N954 0.985 . S
C968 C969 1.363 . S
C968 C974 1.379 . S
C968 N976 1.356 . S
C969 C968 1.363 . S
C969 C975 1.363 . S
C970 C971 1.363 . S
C970 C975 1.379 . S
C970 N977 1.356 . S
C971 C970 1.363 . S
C971 C974 1.363 . S
N972 C974 1.356 . S
N972 H984 0.984 . S
N972 H985 0.985 . S
N973 C975 1.356 . S
N973 H978 0.984 . S
N973 H979 0.985 . S
C974 C968 1.379 . S
C974 C971 1.363 . S
C974 N972 1.356 . S
C975 C969 1.363 . S
C975 C970 1.379 . S
C975 N973 1.356 . S
N976 C968 1.356 . S
N976 H982 0.984 . S
N976 H983 0.984 . S
N977 C970 1.356 . S
N977 H980 0.984 . S
N977 H981 0.985 . S
H978 N973 0.984 . S
H979 N973 0.985 . S
H980 N977 0.984 . S
H981 N977 0.985 . S
H982 N976 0.984 . S
H983 N976 0.984 . S
H984 N972 0.984 . S
H985 N972 0.985 . S
C986 C987 1.363 . S
C986 C992 1.379 . S
C986 N994 1.356 . S
C987 C986 1.363 . S
C987 C993 1.363 . S
C988 C989 1.363 . S
C988 C993 1.379 . S
C988 N995 1.356 . S
C989 C988 1.363 . S
C989 C992 1.363 . S
N990 C992 1.356 . S
N990 H1002 0.984 . S
N990 H1003 0.985 . S
N991 C993 1.356 . S
N991 H996 0.984 . S
N991 H997 0.985 . S
C992 C986 1.379 . S
C992 C989 1.363 . S
C992 N990 1.356 . S
C993 C987 1.363 . S
C993 C988 1.379 . S
C993 N991 1.356 . S
N994 C986 1.356 . S
N994 H1000 0.984 . S
N994 H1001 0.984 . S
N995 C988 1.356 . S
N995 H998 0.984 . S
N995 H999 0.985 . S
H996 N991 0.984 . S
H997 N991 0.985 . S
H998 N995 0.984 . S
H999 N995 0.985 . S
H1000 N994 0.984 . S
H1001 N994 0.984 . S
H1002 N990 0.984 . S
H1003 N990 0.985 . S
C1004 C1005 1.363 . S
C1004 C1010 1.379 . S
C1004 N1012 1.356 . S
C1005 C1004 1.363 . S
C1005 C1011 1.363 . S
C1006 C1007 1.363 . S
C1006 C1011 1.379 . S
C1006 N1013 1.356 . S
C1007 C1006 1.363 . S
C1007 C1010 1.363 . S
N1008 C1010 1.356 . S
N1008 H1020 0.984 . S
N1008 H1021 0.985 . S
N1009 C1011 1.356 . S
N1009 H1014 0.984 . S
N1009 H1015 0.985 . S
C1010 C1004 1.379 . S
C1010 C1007 1.363 . S
C1010 N1008 1.356 . S
C1011 C1005 1.363 . S
C1011 C1006 1.379 . S
C1011 N1009 1.356 . S
N1012 C1004 1.356 . S
N1012 H1018 0.984 . S
N1012 H1019 0.984 . S
N1013 C1006 1.356 . S
N1013 H1016 0.984 . S
N1013 H1017 0.985 . S
H1014 N1009 0.984 . S
H1015 N1009 0.985 . S
H1016 N1013 0.984 . S
H1017 N1013 0.985 . S
H1018 N1012 0.984 . S
H1019 N1012 0.984 . S
H1020 N1008 0.984 . S
H1021 N1008 0.985 . S
C1022 C1023 1.363 . S
C1022 C1028 1.379 . S
C1022 N1030 1.356 . S
C1023 C1022 1.363 . S
C1023 C1029 1.363 . S
C1024 C1025 1.363 . S
C1024 C1029 1.379 . S
C1024 N1031 1.356 . S
C1025 C1024 1.363 . S
C1025 C1028 1.363 . S
N1026 C1028 1.356 . S
N1026 H1038 0.984 . S
N1026 H1039 0.985 . S
N1027 C1029 1.356 . S
N1027 H1032 0.984 . S
N1027 H1033 0.985 . S
C1028 C1022 1.379 . S
C1028 C1025 1.363 . S
C1028 N1026 1.356 . S
C1029 C1023 1.363 . S
C1029 C1024 1.379 . S
C1029 N1027 1.356 . S
N1030 C1022 1.356 . S
N1030 H1036 0.984 . S
N1030 H1037 0.984 . S
N1031 C1024 1.356 . S
N1031 H1034 0.984 . S
N1031 H1035 0.985 . S
H1032 N1027 0.984 . S
H1033 N1027 0.985 . S
H1034 N1031 0.984 . S
H1035 N1031 0.985 . S
H1036 N1030 0.984 . S
H1037 N1030 0.984 . S
H1038 N1026 0.984 . S
H1039 N1026 0.985 . S
C1040 C1041 1.363 . S
C1040 C1046 1.379 . S
C1040 N1048 1.356 1_554 S
C1041 C1040 1.363 . S
C1041 C1047 1.363 . S
C1042 C1043 1.363 . S
C1042 C1047 1.379 . S
C1042 N1049 1.356 . S
C1043 C1042 1.363 . S
C1043 C1046 1.363 . S
N1044 C1046 1.356 . S
N1044 H1056 0.984 . S
N1044 H1057 0.985 . S
N1045 C1047 1.356 1_556 S
N1045 H1050 0.984 . S
N1045 H1051 0.985 1_556 S
C1046 C1040 1.379 . S
C1046 C1043 1.363 . S
C1046 N1044 1.356 . S
C1047 C1041 1.363 . S
C1047 C1042 1.379 . S
C1047 N1045 1.356 1_554 S
N1048 C1040 1.356 1_556 S
N1048 H1054 0.984 1_556 S
N1048 H1055 0.984 . S
N1049 C1042 1.356 . S
N1049 H1052 0.984 . S
N1049 H1053 0.985 . S
H1050 N1045 0.984 . S
H1051 N1045 0.985 1_554 S
H1052 N1049 0.984 . S
H1053 N1049 0.985 . S
H1054 N1048 0.984 1_554 S
H1055 N1048 0.984 . S
H1056 N1044 0.984 . S
H1057 N1044 0.985 . S
C1058 C1059 1.363 . S
C1058 C1064 1.379 . S
C1058 N1066 1.356 . S
C1059 C1058 1.363 . S
C1059 C1065 1.363 . S
C1060 C1061 1.363 . S
C1060 C1065 1.379 . S
C1060 N1067 1.356 1_556 S
C1061 C1060 1.363 . S
C1061 C1064 1.363 . S
N1062 C1064 1.356 . S
N1062 H1074 0.984 . S
N1062 H1075 0.985 1_556 S
N1063 C1065 1.356 . S
N1063 H1068 0.984 . S
N1063 H1069 0.985 . S
C1064 C1058 1.379 . S
C1064 C1061 1.363 . S
C1064 N1062 1.356 . S
C1065 C1059 1.363 . S
C1065 C1060 1.379 . S
C1065 N1063 1.356 . S
N1066 C1058 1.356 . S
N1066 H1072 0.984 . S
N1066 H1073 0.984 . S
N1067 C1060 1.356 1_554 S
N1067 H1070 0.984 . S
N1067 H1071 0.985 . S
H1068 N1063 0.984 . S
H1069 N1063 0.985 . S
H1070 N1067 0.984 . S
H1071 N1067 0.985 . S
H1072 N1066 0.984 . S
H1073 N1066 0.984 . S
H1074 N1062 0.984 . S
H1075 N1062 0.985 1_554 S
C1076 C1077 1.363 . S
C1076 C1082 1.379 . S
C1076 N1084 1.356 . S
C1077 C1076 1.363 . S
C1077 C1083 1.363 . S
C1078 C1079 1.363 . S
C1078 C1083 1.379 . S
C1078 N1085 1.356 . S
C1079 C1078 1.363 . S
C1079 C1082 1.363 . S
N1080 C1082 1.356 1_556 S
N1080 H1092 0.984 . S
N1080 H1093 0.985 . S
N1081 C1083 1.356 . S
N1081 H1086 0.984 . S
N1081 H1087 0.985 . S
C1082 C1076 1.379 . S
C1082 C1079 1.363 . S
C1082 N1080 1.356 1_554 S
C1083 C1077 1.363 . S
C1083 C1078 1.379 . S
C1083 N1081 1.356 . S
N1084 C1076 1.356 . S
N1084 H1090 0.984 . S
N1084 H1091 0.984 . S
N1085 C1078 1.356 . S
N1085 H1088 0.984 1_554 S
N1085 H1089 0.985 . S
H1086 N1081 0.984 . S
H1087 N1081 0.985 . S
H1088 N1085 0.984 1_556 S
H1089 N1085 0.985 . S
H1090 N1084 0.984 . S
H1091 N1084 0.984 . S
H1092 N1080 0.984 . S
H1093 N1080 0.985 . S
C1094 C1095 1.363 . S
C1094 C1100 1.379 . S
C1094 N1102 1.356 1_556 S
C1095 C1094 1.363 . S
C1095 C1101 1.363 . S
C1096 C1097 1.363 . S
C1096 C1101 1.379 . S
C1096 N1103 1.356 . S
C1097 C1096 1.363 . S
C1097 C1100 1.363 . S
N1098 C1100 1.356 . S
N1098 H1110 0.984 . S
N1098 H1111 0.985 . S
N1099 C1101 1.356 . S
N1099 H1104 0.984 1_556 S
N1099 H1105 0.985 . S
C1100 C1094 1.379 . S
C1100 C1097 1.363 . S
C1100 N1098 1.356 . S
C1101 C1095 1.363 . S
C1101 C1096 1.379 . S
C1101 N1099 1.356 . S
N1102 C1094 1.356 1_554 S
N1102 H1108 0.984 . S
N1102 H1109 0.984 . S
N1103 C1096 1.356 . S
N1103 H1106 0.984 . S
N1103 H1107 0.985 . S
H1104 N1099 0.984 1_554 S
H1105 N1099 0.985 . S
H1106 N1103 0.984 . S
H1107 N1103 0.985 . S
H1108 N1102 0.984 . S
H1109 N1102 0.984 . S
H1110 N1098 0.984 . S
H1111 N1098 0.985 . S
C1112 C1113 1.363 . S
C1112 C1118 1.379 . S
C1112 N1120 1.356 . S
C1113 C1112 1.363 . S
C1113 C1119 1.363 . S
C1114 C1115 1.363 1_554 S
C1114 C1119 1.379 . S
C1114 N1121 1.356 1_554 S
C1115 C1114 1.363 1_556 S
C1115 C1118 1.363 1_556 S
N1116 C1118 1.356 1_556 S
N1116 H1128 0.984 1_556 S
N1116 H1129 0.985 . S
N1117 C1119 1.356 . S
N1117 H1122 0.984 . S
N1117 H1123 0.985 . S
C1118 C1112 1.379 . S
C1118 C1115 1.363 1_554 S
C1118 N1116 1.356 1_554 S
C1119 C1113 1.363 . S
C1119 C1114 1.379 . S
C1119 N1117 1.356 . S
N1120 C1112 1.356 . S
N1120 H1126 0.984 . S
N1120 H1127 0.984 . S
N1121 C1114 1.356 1_556 S
N1121 H1124 0.984 . S
N1121 H1125 0.985 . S
H1122 N1117 0.984 . S
H1123 N1117 0.985 . S
H1124 N1121 0.984 . S
H1125 N1121 0.985 . S
H1126 N1120 0.984 . S
H1127 N1120 0.984 . S
H1128 N1116 0.984 1_554 S
H1129 N1116 0.985 . S
C1130 C1131 1.363 1_556 S
C1130 C1136 1.379 . S
C1130 N1138 1.356 1_556 S
C1131 C1130 1.363 1_554 S
C1131 C1137 1.363 1_554 S
C1132 C1133 1.363 . S
C1132 C1137 1.379 . S
C1132 N1139 1.356 . S
C1133 C1132 1.363 . S
C1133 C1136 1.363 . S
N1134 C1136 1.356 . S
N1134 H1146 0.984 . S
N1134 H1147 0.985 . S
N1135 C1137 1.356 . S
N1135 H1140 0.984 1_556 S
N1135 H1141 0.985 . S
C1136 C1130 1.379 . S
C1136 C1133 1.363 . S
C1136 N1134 1.356 . S
C1137 C1131 1.363 1_556 S
C1137 C1132 1.379 . S
C1137 N1135 1.356 . S
N1138 C1130 1.356 1_554 S
N1138 H1144 0.984 . S
N1138 H1145 0.984 . S
N1139 C1132 1.356 . S
N1139 H1142 0.984 . S
N1139 H1143 0.985 . S
H1140 N1135 0.984 1_554 S
H1141 N1135 0.985 . S
H1142 N1139 0.984 . S
H1143 N1139 0.985 . S
H1144 N1138 0.984 . S
H1145 N1138 0.984 . S
H1146 N1134 0.984 . S
H1147 N1134 0.985 . S
C1148 C1149 1.363 1_554 S
C1148 C1154 1.379 . S
C1148 N1156 1.356 . S
C1149 C1148 1.363 1_556 S
C1149 C1155 1.363 1_556 S
C1150 C1151 1.363 . S
C1150 C1155 1.379 . S
C1150 N1157 1.356 . S
C1151 C1150 1.363 . S
C1151 C1154 1.363 . S
N1152 C1154 1.356 . S
N1152 H1164 0.984 . S
N1152 H1165 0.985 . S
N1153 C1155 1.356 1_556 S
N1153 H1158 0.984 . S
N1153 H1159 0.985 . S
C1154 C1148 1.379 . S
C1154 C1151 1.363 . S
C1154 N1152 1.356 . S
C1155 C1149 1.363 1_554 S
C1155 C1150 1.379 . S
C1155 N1153 1.356 1_554 S
N1156 C1148 1.356 . S
N1156 H1162 0.984 . S
N1156 H1163 0.984 1_554 S
N1157 C1150 1.356 . S
N1157 H1160 0.984 . S
N1157 H1161 0.985 . S
H1158 N1153 0.984 . S
H1159 N1153 0.985 . S
H1160 N1157 0.984 . S
H1161 N1157 0.985 . S
H1162 N1156 0.984 . S
H1163 N1156 0.984 1_556 S
H1164 N1152 0.984 . S
H1165 N1152 0.985 . S
C1166 C1167 1.363 . S
C1166 C1172 1.379 . S
C1166 N1174 1.356 . S
C1167 C1166 1.363 . S
C1167 C1173 1.363 . S
C1168 C1169 1.363 1_556 S
C1168 C1173 1.379 . S
C1168 N1175 1.356 1_556 S
C1169 C1168 1.363 1_554 S
C1169 C1172 1.363 1_554 S
N1170 C1172 1.356 1_554 S
N1170 H1182 0.984 . S
N1170 H1183 0.985 . S
N1171 C1173 1.356 . S
N1171 H1176 0.984 . S
N1171 H1177 0.985 . S
C1172 C1166 1.379 . S
C1172 C1169 1.363 1_556 S
C1172 N1170 1.356 1_556 S
C1173 C1167 1.363 . S
C1173 C1168 1.379 . S
C1173 N1171 1.356 . S
N1174 C1166 1.356 . S
N1174 H1180 0.984 . S
N1174 H1181 0.984 . S
N1175 C1168 1.356 1_554 S
N1175 H1178 0.984 . S
N1175 H1179 0.985 1_554 S
H1176 N1171 0.984 . S
H1177 N1171 0.985 . S
H1178 N1175 0.984 . S
H1179 N1175 0.985 1_556 S
H1180 N1174 0.984 . S
H1181 N1174 0.984 . S
H1182 N1170 0.984 . S
H1183 N1170 0.985 . S
C321 C226 1.530 . S
C323 C9 1.626 . S
C339 C176 1.530 . S
C341 C21 1.626 . S
C357 C49 1.626 . S
C359 C186 1.530 . S
C375 C61 1.626 . S
C377 C216 1.530 . S
C393 C89 1.626 . S
C395 C106 1.530 . S
C411 C136 1.530 . S
C413 C101 1.626 . S
C429 C129 1.626 . S
C431 C146 1.530 . S
C447 C96 1.530 . S
C449 C141 1.626 . S
C465 C66 1.530 . S
C467 C169 1.626 . S
C483 C181 1.626 . S
C485 C16 1.530 . S
C501 C26 1.530 . S
C503 C209 1.626 . S
C519 C56 1.530 . S
C521 C221 1.626 . S
C537 C249 1.626 . S
C539 C266 1.530 . S
C555 C296 1.530 . S
C557 C261 1.626 . S
C573 C306 1.530 . S
C575 C289 1.626 . S
C591 C301 1.626 . S
C593 C256 1.530 . S
C609 C1 1.603 . S
C611 C81 1.603 . S
C627 C109 1.603 . S
C629 C29 1.603 . S
C645 C41 1.603 . S
C647 C121 1.603 . S
C663 C69 1.603 . S
C665 C149 1.603 . S
C681 C161 1.603 . S
C683 C241 1.603 . S
C699 C269 1.603 . S
C701 C189 1.603 . S
C717 C201 1.603 . S
C719 C281 1.603 . S
C735 C229 1.603 . S
C737 C309 1.603 . S
C753 C286 1.468 . S
C755 C6 1.468 . S
C771 C36 1.468 . S
C773 C316 1.468 . S
C789 C46 1.468 . S
C791 C246 1.468 . S
C807 C76 1.468 . S
C809 C276 1.468 . S
C825 C86 1.468 . S
C827 C206 1.468 . S
C843 C116 1.468 . S
C845 C236 1.468 . S
C861 C126 1.468 . S
C863 C166 1.468 . S
C879 C196 1.468 . S
C881 C156 1.468 . S
C897 C8 1.770 . S
C899 C19 1.770 . S
C915 C39 1.770 . S
C917 C28 1.770 . S
C933 C48 1.770 . S
C935 C59 1.770 . S
C951 C68 1.770 . S
C953 C79 1.770 . S
C969 C99 1.770 . S
C971 C88 1.770 . S
C987 C119 1.770 . S
C989 C108 1.770 . S
C1005 C128 1.770 . S
C1007 C139 1.770 . S
C1023 C148 1.770 . S
C1025 C159 1.770 . S
C1041 C168 1.770 1_554 S
C1043 C179 1.770 . S
C1059 C188 1.770 . S
C1061 C199 1.770 1_556 S
C1077 C219 1.770 . S
C1079 C208 1.770 1_554 S
C1095 C239 1.770 1_556 S
C1097 C228 1.770 . S
C1113 C248 1.770 . S
C1115 C259 1.770 . S
C1131 C268 1.770 . S
C1133 C279 1.770 . S
C1149 C299 1.770 . S
C1151 C288 1.770 . S
C1167 C319 1.770 . S
C1169 C308 1.770 . S
