# Generated by pormake.
# Topology umk, (4)-cn, num edge types: 1
# Building blocks:
#     Node 0, Type 0, BuildingBlock: TATPOV_clean_sbu_0, # of connection points: 4
#     Node 1, Type 0, BuildingBlock: TATPOV_clean_sbu_0, # of connection points: 4
#     Node 2, Type 0, BuildingBlock: TATPOV_clean_sbu_0, # of connection points: 4
#     Node 3, Type 0, BuildingBlock: TATPOV_clean_sbu_0, # of connection points: 4
#     Node 4, Type 0, BuildingBlock: TATPOV_clean_sbu_0, # of connection points: 4
#     Node 5, Type 0, BuildingBlock: TATPOV_clean_sbu_0, # of connection points: 4
#     Node 6, Type 0, BuildingBlock: TATPOV_clean_sbu_0, # of connection points: 4
#     Node 7, Type 0, BuildingBlock: TATPOV_clean_sbu_0, # of connection points: 4
#     Node 8, Type 0, BuildingBlock: TATPOV_clean_sbu_0, # of connection points: 4
#     Node 9, Type 0, BuildingBlock: TATPOV_clean_sbu_0, # of connection points: 4
#     Node 10, Type 0, BuildingBlock: TATPOV_clean_sbu_0, # of connection points: 4
#     Node 11, Type 0, BuildingBlock: TATPOV_clean_sbu_0, # of connection points: 4
#     Node 12, Type 0, BuildingBlock: TATPOV_clean_sbu_0, # of connection points: 4
#     Node 13, Type 0, BuildingBlock: TATPOV_clean_sbu_0, # of connection points: 4
#     Node 14, Type 0, BuildingBlock: TATPOV_clean_sbu_0, # of connection points: 4
#     Node 15, Type 0, BuildingBlock: TATPOV_clean_sbu_0, # of connection points: 4
#     Node 16, Type 0, BuildingBlock: TATPOV_clean_sbu_0, # of connection points: 4
#     Node 17, Type 0, BuildingBlock: TATPOV_clean_sbu_0, # of connection points: 4
#     Node 18, Type 0, BuildingBlock: TATPOV_clean_sbu_0, # of connection points: 4
#     Node 19, Type 0, BuildingBlock: TATPOV_clean_sbu_0, # of connection points: 4
#     Node 20, Type 0, BuildingBlock: TATPOV_clean_sbu_0, # of connection points: 4
#     Node 21, Type 0, BuildingBlock: TATPOV_clean_sbu_0, # of connection points: 4
#     Node 22, Type 0, BuildingBlock: TATPOV_clean_sbu_0, # of connection points: 4
#     Node 23, Type 0, BuildingBlock: TATPOV_clean_sbu_0, # of connection points: 4
#     Edge 24, Type (0, 0), BuildingBlock: XUDNAN_clean_linker_2, # of connection points: 2
#     Edge 25, Type (0, 0), BuildingBlock: XUDNAN_clean_linker_2, # of connection points: 2
#     Edge 26, Type (0, 0), BuildingBlock: XUDNAN_clean_linker_2, # of connection points: 2
#     Edge 27, Type (0, 0), BuildingBlock: XUDNAN_clean_linker_2, # of connection points: 2
#     Edge 28, Type (0, 0), BuildingBlock: XUDNAN_clean_linker_2, # of connection points: 2
#     Edge 29, Type (0, 0), BuildingBlock: XUDNAN_clean_linker_2, # of connection points: 2
#     Edge 30, Type (0, 0), BuildingBlock: XUDNAN_clean_linker_2, # of connection points: 2
#     Edge 31, Type (0, 0), BuildingBlock: XUDNAN_clean_linker_2, # of connection points: 2
#     Edge 32, Type (0, 0), BuildingBlock: XUDNAN_clean_linker_2, # of connection points: 2
#     Edge 33, Type (0, 0), BuildingBlock: XUDNAN_clean_linker_2, # of connection points: 2
#     Edge 34, Type (0, 0), BuildingBlock: XUDNAN_clean_linker_2, # of connection points: 2
#     Edge 35, Type (0, 0), BuildingBlock: XUDNAN_clean_linker_2, # of connection points: 2
#     Edge 36, Type (0, 0), BuildingBlock: XUDNAN_clean_linker_2, # of connection points: 2
#     Edge 37, Type (0, 0), BuildingBlock: XUDNAN_clean_linker_2, # of connection points: 2
#     Edge 38, Type (0, 0), BuildingBlock: XUDNAN_clean_linker_2, # of connection points: 2
#     Edge 39, Type (0, 0), BuildingBlock: XUDNAN_clean_linker_2, # of connection points: 2
#     Edge 40, Type (0, 0), BuildingBlock: XUDNAN_clean_linker_2, # of connection points: 2
#     Edge 41, Type (0, 0), BuildingBlock: XUDNAN_clean_linker_2, # of connection points: 2
#     Edge 42, Type (0, 0), BuildingBlock: XUDNAN_clean_linker_2, # of connection points: 2
#     Edge 43, Type (0, 0), BuildingBlock: XUDNAN_clean_linker_2, # of connection points: 2
#     Edge 44, Type (0, 0), BuildingBlock: XUDNAN_clean_linker_2, # of connection points: 2
#     Edge 45, Type (0, 0), BuildingBlock: XUDNAN_clean_linker_2, # of connection points: 2
#     Edge 46, Type (0, 0), BuildingBlock: XUDNAN_clean_linker_2, # of connection points: 2
#     Edge 47, Type (0, 0), BuildingBlock: XUDNAN_clean_linker_2, # of connection points: 2
#     Edge 48, Type (0, 0), BuildingBlock: XUDNAN_clean_linker_2, # of connection points: 2
#     Edge 49, Type (0, 0), BuildingBlock: XUDNAN_clean_linker_2, # of connection points: 2
#     Edge 50, Type (0, 0), BuildingBlock: XUDNAN_clean_linker_2, # of connection points: 2
#     Edge 51, Type (0, 0), BuildingBlock: XUDNAN_clean_linker_2, # of connection points: 2
#     Edge 52, Type (0, 0), BuildingBlock: XUDNAN_clean_linker_2, # of connection points: 2
#     Edge 53, Type (0, 0), BuildingBlock: XUDNAN_clean_linker_2, # of connection points: 2
#     Edge 54, Type (0, 0), BuildingBlock: XUDNAN_clean_linker_2, # of connection points: 2
#     Edge 55, Type (0, 0), BuildingBlock: XUDNAN_clean_linker_2, # of connection points: 2
#     Edge 56, Type (0, 0), BuildingBlock: XUDNAN_clean_linker_2, # of connection points: 2
#     Edge 57, Type (0, 0), BuildingBlock: XUDNAN_clean_linker_2, # of connection points: 2
#     Edge 58, Type (0, 0), BuildingBlock: XUDNAN_clean_linker_2, # of connection points: 2
#     Edge 59, Type (0, 0), BuildingBlock: XUDNAN_clean_linker_2, # of connection points: 2
#     Edge 60, Type (0, 0), BuildingBlock: XUDNAN_clean_linker_2, # of connection points: 2
#     Edge 61, Type (0, 0), BuildingBlock: XUDNAN_clean_linker_2, # of connection points: 2
#     Edge 62, Type (0, 0), BuildingBlock: XUDNAN_clean_linker_2, # of connection points: 2
#     Edge 63, Type (0, 0), BuildingBlock: XUDNAN_clean_linker_2, # of connection points: 2
#     Edge 64, Type (0, 0), BuildingBlock: XUDNAN_clean_linker_2, # of connection points: 2
#     Edge 65, Type (0, 0), BuildingBlock: XUDNAN_clean_linker_2, # of connection points: 2
#     Edge 66, Type (0, 0), BuildingBlock: XUDNAN_clean_linker_2, # of connection points: 2
#     Edge 67, Type (0, 0), BuildingBlock: XUDNAN_clean_linker_2, # of connection points: 2
#     Edge 68, Type (0, 0), BuildingBlock: XUDNAN_clean_linker_2, # of connection points: 2
#     Edge 69, Type (0, 0), BuildingBlock: XUDNAN_clean_linker_2, # of connection points: 2
#     Edge 70, Type (0, 0), BuildingBlock: XUDNAN_clean_linker_2, # of connection points: 2
#     Edge 71, Type (0, 0), BuildingBlock: XUDNAN_clean_linker_2, # of connection points: 2
# Relax obj value: 0.094
# Max RMSD: 0.113
# Mean RMSD: 0.113
data_MOF--net-umk--node1-TATPOV_clean_sbu_0--edge1-XUDNAN_clean_linker_2
_symmetry_space_group_name_H-M    P1
_symmetry_Int_Tables_number       1
_symmetry_cell_setting            triclinic
loop_
_symmetry_equiv_pos_as_xyz
'x, y, z'
_cell_length_a     65.305843
_cell_length_b     65.288474
_cell_length_c     43.287249
_cell_angle_alpha  89.955833
_cell_angle_beta   89.934675
_cell_angle_gamma 119.95168
loop_
_atom_site_label
_atom_site_type_symbol
_atom_site_fract_x
_atom_site_fract_y
_atom_site_fract_z
_atom_type_partial_charge
Zn0 Zn 0.36037 0.42511 0.1182 0.0
Zn1 Zn 0.33405 0.42905 0.07312 0.0
O2 O 0.31767 0.42834 0.11406 0.0
O3 O 0.33646 0.42111 0.15076 0.0
O4 O 0.31114 0.42894 0.04204 0.0
O5 O 0.38588 0.45879 0.10559 0.0
O6 O 0.36456 0.46015 0.06693 0.0
C7 C 0.31997 0.42475 0.14244 0.0
C8 C 0.34813 0.39037 0.07083 0.0
O9 O 0.33821 0.40124 0.05962 0.0
O10 O 0.35856 0.39661 0.09666 0.0
C11 C 0.29416 0.40927 0.03283 0.0
O12 O 0.29249 0.38954 0.04304 0.0
C13 C 0.38358 0.46958 0.08262 0.0
Zn14 Zn 0.88479 0.37604 0.61616 0.0
Zn15 Zn 0.8581 0.33622 0.58892 0.0
O16 O 0.85922 0.32539 0.63331 0.0
O17 O 0.88671 0.35881 0.65347 0.0
O18 O 0.83632 0.3055 0.56803 0.0
O19 O 0.86085 0.38668 0.61337 0.0
O20 O 0.84186 0.35633 0.58229 0.0
C21 C 0.87294 0.33673 0.65557 0.0
C22 C 0.9078 0.36869 0.56477 0.0
O23 O 0.88962 0.34811 0.56559 0.0
O24 O 0.90912 0.38472 0.58251 0.0
C25 C 0.82714 0.30477 0.54192 0.0
O26 O 0.8321 0.32465 0.52809 0.0
C27 C 0.84422 0.37517 0.59452 0.0
Zn28 Zn 0.48226 0.86374 0.13213 0.0
Zn29 Zn 0.50556 0.84364 0.10925 0.0
O30 O 0.49911 0.83269 0.1551 0.0
O31 O 0.47859 0.84845 0.17317 0.0
O32 O 0.5214 0.82586 0.09416 0.0
O33 O 0.45635 0.84722 0.10131 0.0
O34 O 0.47631 0.83164 0.08055 0.0
C35 C 0.48791 0.8357 0.17715 0.0
C36 C 0.52933 0.89739 0.10992 0.0
O37 O 0.53026 0.8789 0.1029 0.0
O38 O 0.51094 0.89545 0.12261 0.0
C39 C 0.52455 0.82316 0.06583 0.0
O40 O 0.51809 0.83322 0.04465 0.0
C41 C 0.45829 0.83436 0.08106 0.0
Zn42 Zn 0.62843 0.52038 0.59813 0.0
Zn43 Zn 0.66658 0.5512 0.56729 0.0
O44 O 0.67904 0.54914 0.61028 0.0
O45 O 0.64759 0.52259 0.63527 0.0
O46 O 0.6973 0.56985 0.54448 0.0
O47 O 0.62027 0.49451 0.56768 0.0
O48 O 0.65084 0.5207 0.54098 0.0
C49 C 0.66961 0.53684 0.63444 0.0
C50 C 0.62778 0.56294 0.57742 0.0
O51 O 0.64836 0.56966 0.56651 0.0
O52 O 0.61652 0.54326 0.59132 0.0
C53 C 0.69946 0.57535 0.51604 0.0
O54 O 0.68071 0.5715 0.50024 0.0
C55 C 0.6332 0.49989 0.54389 0.0
Zn56 Zn 0.14491 0.62397 0.12382 0.0
Zn57 Zn 0.154 0.66171 0.09053 0.0
O58 O 0.16721 0.6754 0.13359 0.0
O59 O 0.16239 0.64445 0.15985 0.0
O60 O 0.16449 0.69114 0.06549 0.0
O61 O 0.16181 0.614 0.09419 0.0
O62 O 0.16882 0.64496 0.06619 0.0
C63 C 0.16968 0.66639 0.15841 0.0
C64 C 0.10291 0.62468 0.10227 0.0
O65 O 0.11778 0.6441 0.0895 0.0
O66 O 0.11008 0.61307 0.11796 0.0
C67 C 0.16116 0.70793 0.07376 0.0
O68 O 0.14899 0.70562 0.099 0.0
C69 C 0.17061 0.62657 0.0703 0.0
Zn70 Zn 0.45572 0.11016 0.5509 0.0
Zn71 Zn 0.45213 0.14456 0.53187 0.0
O72 O 0.45167 0.1489 0.57923 0.0
O73 O 0.44557 0.11393 0.59322 0.0
O74 O 0.45068 0.17225 0.51404 0.0
O75 O 0.49018 0.12515 0.54179 0.0
O76 O 0.48428 0.15015 0.51444 0.0
C77 C 0.44709 0.13346 0.60018 0.0
C78 C 0.41736 0.09418 0.51097 0.0
O79 O 0.42155 0.11518 0.51588 0.0
O80 O 0.43157 0.08783 0.5207 0.0
C81 C 0.43527 0.1778 0.52162 0.0
O82 O 0.419 0.16482 0.54204 0.0
C83 C 0.49761 0.14208 0.52284 0.0
Zn84 Zn 0.53881 0.62028 0.92267 0.0
Zn85 Zn 0.54654 0.65765 0.95601 0.0
O86 O 0.53575 0.66302 0.91279 0.0
O87 O 0.52637 0.63028 0.8874 0.0
O88 O 0.55034 0.68537 0.98129 0.0
O89 O 0.51555 0.59805 0.95368 0.0
O90 O 0.52132 0.62891 0.98111 0.0
C91 C 0.52769 0.65025 0.88867 0.0
C92 C 0.58745 0.64932 0.94217 0.0
O93 O 0.57969 0.661 0.95674 0.0
O94 O 0.57373 0.63183 0.92558 0.0
C95 C 0.55347 0.70454 0.96934 0.0
O96 O 0.55513 0.70713 0.93919 0.0
C97 C 0.5109 0.60658 0.97709 0.0
Zn98 Zn 0.85512 0.49586 0.40405 0.0
Zn99 Zn 0.8419 0.52428 0.42667 0.0
O100 O 0.82917 0.51765 0.3814 0.0
O101 O 0.83842 0.49158 0.36443 0.0
O102 O 0.82801 0.54372 0.44308 0.0
O103 O 0.83921 0.4717 0.43661 0.0
O104 O 0.82868 0.49575 0.45759 0.0
C105 C 0.82877 0.50397 0.36012 0.0
C106 C 0.89445 0.54179 0.42012 0.0
O107 O 0.87827 0.54601 0.42894 0.0
O108 O 0.88892 0.52181 0.40873 0.0
C109 C 0.82638 0.55881 0.42619 0.0
O110 O 0.83545 0.56301 0.39824 0.0
C111 C 0.82885 0.47626 0.45789 0.0
Zn112 Zn 0.36195 0.88435 0.89646 0.0
Zn113 Zn 0.32138 0.86295 0.9273 0.0
O114 O 0.31009 0.8586 0.8822 0.0
O115 O 0.34379 0.87746 0.85676 0.0
O116 O 0.29113 0.84292 0.9504 0.0
O117 O 0.37358 0.86339 0.91347 0.0
O118 O 0.34104 0.8477 0.94122 0.0
C119 C 0.32142 0.86608 0.85694 0.0
C120 C 0.35407 0.91558 0.93598 0.0
O121 O 0.33412 0.89736 0.94164 0.0
O122 O 0.36896 0.91424 0.91859 0.0
C123 C 0.27813 0.84911 0.9648 0.0
O124 O 0.28418 0.87154 0.96592 0.0
C125 C 0.36062 0.84901 0.9341 0.0
Zn126 Zn 0.49488 0.40382 0.35193 0.0
Zn127 Zn 0.47494 0.36551 0.38551 0.0
O128 O 0.47073 0.35225 0.34111 0.0
O129 O 0.48273 0.38465 0.31356 0.0
O130 O 0.46077 0.33613 0.41182 0.0
O131 O 0.52721 0.41319 0.36779 0.0
O132 O 0.50937 0.38415 0.40125 0.0
C133 C 0.47373 0.36246 0.31506 0.0
C134 C 0.45791 0.40148 0.38947 0.0
O135 O 0.45468 0.38097 0.39568 0.0
O136 O 0.47511 0.41543 0.37256 0.0
C137 C 0.47031 0.32328 0.41112 0.0
O138 O 0.48884 0.32963 0.39331 0.0
C139 C 0.52816 0.40196 0.39105 0.0
Zn140 Zn 0.12017 0.47146 0.91108 0.0
Zn141 Zn 0.15065 0.45978 0.92794 0.0
O142 O 0.1489 0.454 0.88099 0.0
O143 O 0.11756 0.45669 0.86951 0.0
O144 O 0.17463 0.45102 0.94129 0.0
O145 O 0.14302 0.50599 0.9174 0.0
O146 O 0.16508 0.49462 0.94209 0.0
C147 C 0.13332 0.45184 0.86159 0.0
C148 C 0.10181 0.43625 0.95753 0.0
O149 O 0.12053 0.43564 0.95114 0.0
O150 O 0.09818 0.4518 0.94547 0.0
C151 C 0.171 0.43046 0.93506 0.0
O152 O 0.15164 0.41562 0.92028 0.0
C153 C 0.16078 0.51089 0.93405 0.0
Zn154 Zn 0.62807 0.10777 0.36816 0.0
Zn155 Zn 0.66549 0.12886 0.40458 0.0
O156 O 0.6794 0.14074 0.36085 0.0
O157 O 0.64735 0.12672 0.3322 0.0
O158 O 0.69362 0.14804 0.43165 0.0
O159 O 0.61028 0.12009 0.39219 0.0
O160 O 0.64201 0.13882 0.42113 0.0
C161 C 0.66954 0.13915 0.33491 0.0
C162 C 0.63939 0.07544 0.40022 0.0
O163 O 0.65531 0.09404 0.41341 0.0
O164 O 0.62636 0.07691 0.37969 0.0
C165 C 0.70304 0.17029 0.42831 0.0
O166 O 0.69409 0.1785 0.40785 0.0
C167 C 0.62108 0.13397 0.4143 0.0
Zn168 Zn 0.67345 0.5517 0.89437 0.0
Zn169 Zn 0.71327 0.56546 0.91493 0.0
O170 O 0.71745 0.56294 0.86777 0.0
O171 O 0.6802 0.54069 0.85484 0.0
O172 O 0.74556 0.57472 0.93082 0.0
O173 O 0.65701 0.52847 0.92815 0.0
O174 O 0.69221 0.53311 0.93701 0.0
C175 C 0.70185 0.5504 0.84783 0.0
C176 C 0.69276 0.59811 0.91566 0.0
O177 O 0.7073 0.59287 0.92797 0.0
O178 O 0.67743 0.58393 0.89689 0.0
C179 C 0.75073 0.5779 0.95934 0.0
O180 O 0.7348 0.57643 0.97919 0.0
C181 C 0.66995 0.52196 0.9416 0.0
Zn182 Zn 0.10751 0.6248 0.39815 0.0
Zn183 Zn 0.12019 0.66391 0.43023 0.0
O184 O 0.13676 0.67625 0.38793 0.0
O185 O 0.12778 0.64349 0.36282 0.0
O186 O 0.13244 0.69474 0.45316 0.0
O187 O 0.12169 0.61291 0.42898 0.0
O188 O 0.1326 0.64536 0.45581 0.0
C189 C 0.13861 0.66581 0.36415 0.0
C190 C 0.06781 0.62989 0.41718 0.0
O191 O 0.0837 0.64882 0.4299 0.0
O192 O 0.07367 0.61701 0.40204 0.0
C193 C 0.13986 0.69804 0.48086 0.0
O194 O 0.13796 0.68011 0.49697 0.0
C195 C 0.13199 0.62567 0.45218 0.0
Zn196 Zn 0.4824 0.09783 0.85173 0.0
Zn197 Zn 0.47767 0.12928 0.88649 0.0
O198 O 0.47042 0.13606 0.84217 0.0
O199 O 0.47305 0.10916 0.81442 0.0
O200 O 0.47481 0.15347 0.91212 0.0
O201 O 0.51665 0.11249 0.86464 0.0
O202 O 0.51166 0.13674 0.89494 0.0
C203 C 0.46882 0.12603 0.81632 0.0
C204 C 0.44638 0.07611 0.89837 0.0
O205 O 0.45269 0.09738 0.90537 0.0
O206 O 0.45632 0.07158 0.87642 0.0
C207 C 0.45486 0.14925 0.92248 0.0
O208 O 0.43597 0.12892 0.91614 0.0
C209 C 0.52471 0.12892 0.88447 0.0
Zn210 Zn 0.35644 0.51359 0.36922 0.0
Zn211 Zn 0.31943 0.48402 0.4033 0.0
O212 O 0.30744 0.47809 0.3585 0.0
O213 O 0.33625 0.50585 0.33087 0.0
O214 O 0.28967 0.46658 0.42831 0.0
O215 O 0.36453 0.54217 0.39513 0.0
O216 O 0.33443 0.51708 0.4234 0.0
C217 C 0.31555 0.48829 0.33267 0.0
C218 C 0.35929 0.47428 0.39992 0.0
O219 O 0.33899 0.46817 0.41112 0.0
O220 O 0.36948 0.49212 0.38216 0.0
C221 C 0.2724 0.44611 0.42264 0.0
O222 O 0.27384 0.4339 0.39949 0.0
C223 C 0.35159 0.53793 0.41874 0.0
Zn224 Zn 0.92271 0.35509 0.90996 0.0
Zn225 Zn 0.89368 0.31484 0.93577 0.0
O226 O 0.8908 0.30782 0.88864 0.0
O227 O 0.91946 0.3406 0.86863 0.0
O228 O 0.87041 0.28308 0.95377 0.0
O229 O 0.90172 0.36825 0.92111 0.0
O230 O 0.88063 0.33652 0.94959 0.0
C231 C 0.90284 0.31957 0.86526 0.0
C232 C 0.94549 0.34205 0.95543 0.0
O233 O 0.92556 0.32303 0.95646 0.0
O234 O 0.94856 0.35899 0.93821 0.0
C235 C 0.85009 0.27145 0.94147 0.0
O236 O 0.84489 0.28068 0.91788 0.0
C237 C 0.88511 0.35686 0.94013 0.0
Zn238 Zn 0.49421 0.88247 0.42371 0.0
Zn239 Zn 0.50857 0.86105 0.45725 0.0
O240 O 0.50113 0.84359 0.415 0.0
O241 O 0.47993 0.85677 0.39233 0.0
O242 O 0.51829 0.84152 0.48292 0.0
O243 O 0.47431 0.88503 0.45653 0.0
O244 O 0.47982 0.85885 0.48161 0.0
C245 C 0.48821 0.84293 0.39254 0.0
C246 C 0.54297 0.91103 0.43608 0.0
O247 O 0.53835 0.89472 0.45576 0.0
O248 O 0.52717 0.90896 0.41741 0.0
C249 C 0.53796 0.84238 0.47853 0.0
O250 O 0.55266 0.8571 0.45779 0.0
C251 C 0.46954 0.87103 0.47902 0.0
Zn252 Zn 0.48879 0.37471 0.04389 0.0
Zn253 Zn 0.4897 0.33801 0.03241 0.0
O254 O 0.48638 0.33447 0.07946 0.0
O255 O 0.47657 0.36178 0.08649 0.0
O256 O 0.48702 0.3074 0.01844 0.0
O257 O 0.523 0.39574 0.03758 0.0
O258 O 0.52331 0.36484 0.01816 0.0
C259 C 0.47888 0.34494 0.09703 0.0
C260 C 0.45275 0.34996 0.0053 0.0
O261 O 0.45884 0.33519 0.0143 0.0
O262 O 0.46613 0.37165 0.01077 0.0
C263 C 0.46797 0.28892 0.02627 0.0
O264 O 0.45251 0.29122 0.04316 0.0
C265 C 0.53402 0.38696 0.02418 0.0
Zn266 Zn 0.09762 0.47132 0.60739 0.0
Zn267 Zn 0.12087 0.45784 0.57485 0.0
O268 O 0.12518 0.44884 0.6194 0.0
O269 O 0.0986 0.45369 0.64438 0.0
O270 O 0.14199 0.44993 0.54986 0.0
O271 O 0.12079 0.50581 0.60302 0.0
O272 O 0.1352 0.4937 0.56596 0.0
C273 C 0.11367 0.44693 0.64407 0.0
C274 C 0.06977 0.4407 0.55889 0.0
O275 O 0.08731 0.43731 0.5564 0.0
O276 O 0.07062 0.45593 0.57769 0.0
C277 C 0.13605 0.42979 0.53844 0.0
O278 O 0.11438 0.41222 0.54241 0.0
C279 C 0.1345 0.51046 0.58019 0.0
Zn280 Zn 0.63163 0.11165 0.08831 0.0
Zn281 Zn 0.66981 0.11707 0.06008 0.0
O282 O 0.68138 0.13426 0.10215 0.0
O283 O 0.64997 0.13265 0.12317 0.0
O284 O 0.70143 0.12728 0.03995 0.0
O285 O 0.6221 0.12505 0.05355 0.0
O286 O 0.65344 0.12892 0.0293 0.0
C287 C 0.67181 0.13956 0.12404 0.0
C288 C 0.63249 0.06764 0.07806 0.0
O289 O 0.65225 0.08072 0.06463 0.0
O290 O 0.6211 0.07679 0.08972 0.0
C291 C 0.7058 0.13315 0.01166 0.0
O292 O 0.68835 0.12946 0.99319 0.0
C293 C 0.63513 0.13117 0.02982 0.0
Zn294 Zn 0.47786 0.61645 0.62724 0.0
Zn295 Zn 0.50104 0.65998 0.60581 0.0
O296 O 0.5001 0.66482 0.65321 0.0
O297 O 0.48082 0.62824 0.67042 0.0
O298 O 0.5147 0.69305 0.58885 0.0
O299 O 0.44845 0.60811 0.60361 0.0
O300 O 0.46905 0.64321 0.58213 0.0
C301 C 0.49139 0.65023 0.67562 0.0
C302 C 0.52207 0.62799 0.59665 0.0
O303 O 0.52432 0.64846 0.59376 0.0
O304 O 0.50363 0.61144 0.60915 0.0
C305 C 0.53567 0.70673 0.57945 0.0
O306 O 0.55132 0.69971 0.58084 0.0
C307 C 0.44999 0.62337 0.58436 0.0
Zn308 Zn 0.8892 0.48977 0.12517 0.0
Zn309 Zn 0.87802 0.51544 0.08732 0.0
O310 O 0.85934 0.51233 0.12722 0.0
O311 O 0.86702 0.48982 0.15732 0.0
O312 O 0.86838 0.53355 0.05879 0.0
O313 O 0.87681 0.46334 0.09435 0.0
O314 O 0.86802 0.48452 0.06323 0.0
C315 C 0.8564 0.50127 0.15254 0.0
C316 C 0.92949 0.53436 0.10595 0.0
O317 O 0.91396 0.53663 0.09098 0.0
O318 O 0.92339 0.51619 0.12256 0.0
C319 C 0.86232 0.54804 0.06889 0.0
O320 O 0.86306 0.55205 0.09871 0.0
C321 C 0.86857 0.46563 0.06895 0.0
Zn322 Zn 0.33842 0.92867 0.60567 0.0
Zn323 Zn 0.30156 0.89361 0.57856 0.0
O324 O 0.29226 0.8888 0.62489 0.0
O325 O 0.32354 0.9179 0.64709 0.0
O326 O 0.27261 0.86755 0.55818 0.0
O327 O 0.35893 0.91627 0.58811 0.0
O328 O 0.32745 0.88534 0.56895 0.0
C329 C 0.30316 0.89988 0.64918 0.0
C330 C 0.31913 0.94588 0.5614 0.0
O331 O 0.30607 0.92385 0.55594 0.0
O332 O 0.33409 0.95281 0.58302 0.0
C333 C 0.26342 0.84649 0.56824 0.0
O334 O 0.27328 0.84202 0.59179 0.0
C335 C 0.34963 0.89668 0.57398 0.0
H336 H 0.30975 0.40696 0.20104 0.0
H337 H 0.30139 0.45387 0.13807 0.0
H338 H 0.28974 0.4702 0.18157 0.0
H339 H 0.26017 0.39951 0.25797 0.0
H340 H 0.27728 0.39865 0.29008 0.0
H341 H 0.27849 0.38628 0.25333 0.0
H342 H 0.32406 0.41281 0.25301 0.0
H343 H 0.32301 0.42537 0.28934 0.0
H344 H 0.33695 0.4444 0.25657 0.0
H345 H 0.29228 0.48974 0.23175 0.0
H346 H 0.30293 0.5067 0.28437 0.0
H347 H 0.30455 0.44459 0.31555 0.0
C348 C 0.30433 0.41985 0.1963 0.0
C349 C 0.30645 0.42916 0.1663 0.0
C350 C 0.29962 0.44628 0.16085 0.0
C351 C 0.29299 0.4557 0.18547 0.0
C352 C 0.2925 0.44721 0.21519 0.0
C353 C 0.29717 0.42902 0.22056 0.0
C354 C 0.29814 0.42494 0.25484 0.0
C355 C 0.27727 0.40092 0.26463 0.0
C356 C 0.32195 0.42704 0.26394 0.0
C357 C 0.29559 0.44508 0.26782 0.0
C358 C 0.29203 0.45758 0.24463 0.0
C359 C 0.29382 0.47949 0.25032 0.0
C360 C 0.29991 0.48904 0.28018 0.0
C361 C 0.30358 0.47643 0.30397 0.0
C362 C 0.30057 0.4539 0.29795 0.0
H363 H 0.91115 0.34858 0.691 0.0
H364 H 0.83642 0.29774 0.68374 0.0
H365 H 0.83766 0.28134 0.73503 0.0
H366 H 0.9279 0.30907 0.73533 0.0
H367 H 0.94939 0.33393 0.75741 0.0
H368 H 0.94333 0.33803 0.71796 0.0
H369 H 0.9338 0.37033 0.73559 0.0
H370 H 0.93988 0.3664 0.77483 0.0
H371 H 0.91166 0.36332 0.76498 0.0
H372 H 0.84585 0.27634 0.79106 0.0
H373 H 0.85988 0.28348 0.8452 0.0
H374 H 0.92962 0.33628 0.8137 0.0
C375 C 0.89516 0.33359 0.69989 0.0
C376 C 0.87368 0.32446 0.68373 0.0
C377 C 0.85309 0.30486 0.69587 0.0
C378 C 0.85368 0.29542 0.72487 0.0
C379 C 0.87514 0.3054 0.74078 0.0
C380 C 0.89559 0.32382 0.72833 0.0
C381 C 0.91584 0.33327 0.75093 0.0
C382 C 0.93526 0.32826 0.73974 0.0
C383 C 0.92585 0.35988 0.75694 0.0
C384 C 0.90326 0.31851 0.77892 0.0
C385 C 0.87994 0.30211 0.77261 0.0
C386 C 0.86423 0.28864 0.79606 0.0
C387 C 0.87235 0.29276 0.82675 0.0
C388 C 0.89584 0.31042 0.83355 0.0
C389 C 0.91163 0.32252 0.80915 0.0
H390 H 0.45381 0.8289 0.34954 0.0
H391 H 0.51791 0.82765 0.37111 0.0
H392 H 0.51972 0.8159 0.31733 0.0
H393 H 0.43088 0.78077 0.28623 0.0
H394 H 0.42031 0.79715 0.26442 0.0
H395 H 0.41986 0.79758 0.30607 0.0
H396 H 0.44396 0.84334 0.30487 0.0
H397 H 0.44485 0.84312 0.26354 0.0
H398 H 0.47204 0.8579 0.2851 0.0
H399 H 0.52019 0.8148 0.25914 0.0
H400 H 0.51869 0.82361 0.20378 0.0
H401 H 0.45464 0.82621 0.22075 0.0
C402 C 0.4676 0.82505 0.34329 0.0
C403 C 0.48567 0.82913 0.36436 0.0
C404 C 0.50368 0.82431 0.35538 0.0
C405 C 0.50485 0.81765 0.32483 0.0
C406 C 0.48761 0.81546 0.30388 0.0
C407 C 0.46899 0.81853 0.31301 0.0
C408 C 0.45495 0.81913 0.28564 0.0
C409 C 0.43002 0.79735 0.28559 0.0
C410 C 0.45394 0.84224 0.28475 0.0
C411 C 0.46971 0.818 0.25954 0.0
C412 C 0.48803 0.81509 0.27031 0.0
C413 C 0.50552 0.81639 0.25042 0.0
C414 C 0.50458 0.82143 0.21902 0.0
C415 C 0.48657 0.82561 0.20812 0.0
C416 C 0.46854 0.82297 0.22848 0.0
H417 H 0.6773 0.51396 0.8091 0.0
H418 H 0.73946 0.58353 0.81392 0.0
H419 H 0.74291 0.58419 0.75688 0.0
H420 H 0.69499 0.49291 0.73621 0.0
H421 H 0.66465 0.47778 0.7236 0.0
H422 H 0.67144 0.48003 0.76426 0.0
H423 H 0.64511 0.49879 0.77346 0.0
H424 H 0.63856 0.49701 0.73305 0.0
H425 H 0.65126 0.52513 0.75247 0.0
H426 H 0.73368 0.58103 0.69985 0.0
H427 H 0.71356 0.57394 0.64929 0.0
H428 H 0.6573 0.50656 0.68281 0.0
C429 C 0.69223 0.52889 0.79818 0.0
C430 C 0.70814 0.54866 0.81567 0.0
C431 C 0.7273 0.56807 0.80081 0.0
C432 C 0.72934 0.56858 0.76844 0.0
C433 C 0.71238 0.54932 0.7516 0.0
C434 C 0.69446 0.52959 0.76614 0.0
C435 C 0.6764 0.51275 0.74336 0.0
C436 C 0.67691 0.48949 0.74176 0.0
C437 C 0.65139 0.50819 0.75105 0.0
C438 C 0.68587 0.52686 0.71399 0.0
C439 C 0.70697 0.54759 0.71886 0.0
C440 C 0.71752 0.56457 0.69561 0.0
C441 C 0.70594 0.56044 0.66701 0.0
C442 C 0.68385 0.53973 0.66226 0.0
C443 C 0.67421 0.52251 0.68576 0.0
H444 H 0.16805 0.65589 0.33303 0.0
H445 H 0.14112 0.70439 0.33512 0.0
H446 H 0.15795 0.71901 0.28304 0.0
H447 H 0.22275 0.69449 0.28049 0.0
H448 H 0.21873 0.66801 0.262 0.0
H449 H 0.21206 0.66761 0.30252 0.0
H450 H 0.16982 0.6326 0.2929 0.0
H451 H 0.17626 0.63295 0.25271 0.0
H452 H 0.15132 0.63578 0.26462 0.0
H453 H 0.167 0.71949 0.22686 0.0
H454 H 0.16654 0.70548 0.17375 0.0
H455 H 0.1885 0.65725 0.20846 0.0
C456 C 0.16673 0.67039 0.32298 0.0
C457 C 0.15346 0.67913 0.33775 0.0
C458 C 0.15158 0.69778 0.32414 0.0
C459 C 0.16114 0.70618 0.29463 0.0
C460 C 0.17298 0.69611 0.27966 0.0
C461 C 0.17628 0.67895 0.29383 0.0
C462 C 0.18576 0.66789 0.27151 0.0
C463 C 0.21135 0.67494 0.27962 0.0
C464 C 0.16982 0.64074 0.27036 0.0
C465 C 0.18479 0.67952 0.24181 0.0
C466 C 0.17835 0.69648 0.247 0.0
C467 C 0.17281 0.70686 0.22259 0.0
C468 C 0.17262 0.69882 0.19243 0.0
C469 C 0.17747 0.68027 0.1872 0.0
C470 C 0.18497 0.67162 0.21194 0.0
H471 H 0.43996 0.09683 0.77254 0.0
H472 H 0.48165 0.17094 0.79623 0.0
H473 H 0.47441 0.18173 0.7439 0.0
H474 H 0.46129 0.10031 0.70157 0.0
H475 H 0.43406 0.07866 0.68376 0.0
H476 H 0.43822 0.07721 0.72446 0.0
H477 H 0.39996 0.07868 0.73566 0.0
H478 H 0.39557 0.08001 0.69475 0.0
H479 H 0.39663 0.10245 0.72002 0.0
H480 H 0.46881 0.18372 0.68569 0.0
H481 H 0.46509 0.17672 0.62912 0.0
H482 H 0.42616 0.10115 0.64565 0.0
C483 C 0.44694 0.11533 0.767 0.0
C484 C 0.46133 0.13309 0.78813 0.0
C485 C 0.47036 0.15712 0.78027 0.0
C486 C 0.46631 0.16335 0.75066 0.0
C487 C 0.45274 0.14527 0.72976 0.0
C488 C 0.44282 0.12171 0.73795 0.0
C489 C 0.4311 0.10551 0.71085 0.0
C490 C 0.44183 0.08952 0.70482 0.0
C491 C 0.40422 0.0908 0.71561 0.0
C492 C 0.43729 0.12355 0.68552 0.0
C493 C 0.44931 0.14642 0.69673 0.0
C494 C 0.4589 0.16588 0.6768 0.0
C495 C 0.45671 0.16177 0.64472 0.0
C496 C 0.44535 0.13839 0.63309 0.0
C497 C 0.43484 0.11922 0.65387 0.0
H498 H 0.46952 0.62354 0.72606 0.0
H499 H 0.5219 0.69473 0.69882 0.0
H500 H 0.53211 0.70519 0.7539 0.0
H501 H 0.45251 0.63854 0.80228 0.0
H502 H 0.44984 0.61221 0.81962 0.0
H503 H 0.44306 0.61233 0.77928 0.0
H504 H 0.47311 0.59888 0.76503 0.0
H505 H 0.48002 0.59879 0.80509 0.0
H506 H 0.50329 0.61618 0.77794 0.0
H507 H 0.54099 0.70548 0.81149 0.0
H508 H 0.54857 0.695 0.86377 0.0
H509 H 0.49114 0.62333 0.85119 0.0
C510 C 0.48266 0.64157 0.73162 0.0
C511 C 0.49489 0.65832 0.70814 0.0
C512 C 0.51214 0.68165 0.71645 0.0
C513 C 0.51801 0.68774 0.7477 0.0
C514 C 0.50625 0.67038 0.77024 0.0
C515 C 0.48875 0.6478 0.76241 0.0
C516 C 0.48088 0.63132 0.78987 0.0
C517 C 0.45504 0.62313 0.79826 0.0
C518 C 0.48457 0.61007 0.78413 0.0
C519 C 0.49755 0.64771 0.81415 0.0
C520 C 0.51165 0.67038 0.80285 0.0
C521 C 0.52971 0.68792 0.8207 0.0
C522 C 0.53388 0.68187 0.85035 0.0
C523 C 0.52036 0.6584 0.86131 0.0
C524 C 0.50158 0.64145 0.84334 0.0
H525 H 0.81136 0.46827 0.31911 0.0
H526 H 0.82846 0.54096 0.3303 0.0
H527 H 0.82672 0.54476 0.27365 0.0
H528 H 0.84874 0.47751 0.26569 0.0
H529 H 0.83187 0.45125 0.24285 0.0
H530 H 0.82508 0.45106 0.2829 0.0
H531 H 0.78174 0.43855 0.26963 0.0
H532 H 0.78827 0.43827 0.22918 0.0
H533 H 0.7756 0.4557 0.24243 0.0
H534 H 0.83454 0.54406 0.21708 0.0
H535 H 0.85089 0.53898 0.1679 0.0
H536 H 0.83044 0.46729 0.1942 0.0
C537 C 0.81351 0.48459 0.30964 0.0
C538 C 0.82 0.50429 0.32885 0.0
C539 C 0.82311 0.52554 0.31591 0.0
C540 C 0.82218 0.52783 0.28371 0.0
C541 C 0.81769 0.50856 0.26505 0.0
C542 C 0.81287 0.48711 0.27772 0.0
C543 C 0.81317 0.4706 0.25347 0.0
C544 C 0.83077 0.46217 0.26173 0.0
C545 C 0.7882 0.44954 0.24837 0.0
C546 C 0.8213 0.48687 0.2258 0.0
C547 C 0.82283 0.50833 0.23241 0.0
C548 C 0.83274 0.5271 0.21139 0.0
C549 C 0.84202 0.5241 0.18354 0.0
C550 C 0.84187 0.50274 0.17752 0.0
C551 C 0.83055 0.48371 0.19832 0.0
H552 H 0.31582 0.9244 0.70265 0.0
H553 H 0.27101 0.85412 0.66584 0.0
H554 H 0.2646 0.83762 0.71881 0.0
H555 H 0.34655 0.91032 0.7494 0.0
H556 H 0.35 0.92997 0.78072 0.0
H557 H 0.34536 0.93693 0.74223 0.0
H558 H 0.30872 0.93923 0.7603 0.0
H559 H 0.3135 0.93269 0.79922 0.0
H560 H 0.28529 0.91469 0.78088 0.0
H561 H 0.26998 0.8283 0.77447 0.0
H562 H 0.2864 0.82757 0.8261 0.0
H563 H 0.32922 0.90386 0.82397 0.0
C564 C 0.30387 0.90565 0.70585 0.0
C565 C 0.29388 0.89054 0.68028 0.0
C566 C 0.27859 0.86605 0.68524 0.0
C567 C 0.2749 0.85654 0.71525 0.0
C568 C 0.28634 0.87184 0.73989 0.0
C569 C 0.30021 0.89599 0.73541 0.0
C570 C 0.31348 0.90844 0.76432 0.0
C571 C 0.34042 0.92219 0.75881 0.0
C572 C 0.30471 0.92472 0.77693 0.0
C573 C 0.30626 0.88744 0.78522 0.0
C574 C 0.29003 0.86648 0.7713 0.0
C575 C 0.28231 0.84466 0.78576 0.0
C576 C 0.29172 0.84435 0.81491 0.0
C577 C 0.30904 0.86567 0.82852 0.0
C578 C 0.31594 0.88736 0.8138 0.0
H579 H 0.45407 0.37036 0.26534 0.0
H580 H 0.48093 0.32586 0.29907 0.0
H581 H 0.4792 0.31086 0.24589 0.0
H582 H 0.41539 0.32908 0.20143 0.0
H583 H 0.42248 0.35403 0.17679 0.0
H584 H 0.42064 0.3566 0.21804 0.0
H585 H 0.46303 0.39282 0.21797 0.0
H586 H 0.46519 0.3902 0.17702 0.0
H587 H 0.48697 0.38982 0.20219 0.0
H588 H 0.48238 0.30763 0.18772 0.0
H589 H 0.48787 0.31461 0.13127 0.0
H590 H 0.45802 0.36078 0.1372 0.0
C591 C 0.45871 0.35675 0.26165 0.0
C592 C 0.46755 0.34913 0.28599 0.0
C593 C 0.47379 0.33159 0.28058 0.0
C594 C 0.4729 0.32306 0.25049 0.0
C595 C 0.46518 0.3319 0.22653 0.0
C596 C 0.45765 0.34797 0.23205 0.0
C597 C 0.45268 0.3569 0.20242 0.0
C598 C 0.42622 0.34865 0.1995 0.0
C599 C 0.46789 0.38402 0.19977 0.0
C600 C 0.4601 0.34462 0.17923 0.0
C601 C 0.46683 0.3299 0.19334 0.0
C602 C 0.47658 0.31863 0.17642 0.0
C603 C 0.47974 0.32278 0.14441 0.0
C604 C 0.47343 0.33829 0.12989 0.0
C605 C 0.46296 0.34877 0.14756 0.0
H606 H 0.08459 0.42854 0.69323 0.0
H607 H 0.15524 0.44915 0.66151 0.0
H608 H 0.16644 0.44519 0.71492 0.0
H609 H 0.10032 0.46204 0.75543 0.0
H610 H 0.07674 0.44201 0.78058 0.0
H611 H 0.07246 0.43986 0.73956 0.0
H612 H 0.06164 0.39589 0.74089 0.0
H613 H 0.06554 0.39775 0.78223 0.0
H614 H 0.08162 0.38784 0.75856 0.0
H615 H 0.1719 0.44725 0.77305 0.0
H616 H 0.17081 0.45438 0.82911 0.0
H617 H 0.09664 0.43315 0.82153 0.0
C618 C 0.10216 0.43134 0.69732 0.0
C619 C 0.11906 0.43913 0.6734 0.0
C620 C 0.14196 0.44289 0.67955 0.0
C621 C 0.14845 0.44069 0.70981 0.0
C622 C 0.13167 0.43431 0.73333 0.0
C623 C 0.10882 0.42925 0.72719 0.0
C624 C 0.09495 0.42603 0.75649 0.0
C625 C 0.08561 0.44353 0.75809 0.0
C626 C 0.07474 0.40035 0.75973 0.0
C627 C 0.11398 0.43172 0.78016 0.0
C628 C 0.13488 0.4358 0.76661 0.0
C629 C 0.15547 0.44354 0.78393 0.0
C630 C 0.15472 0.44761 0.81571 0.0
C631 C 0.13365 0.4444 0.82951 0.0
C632 C 0.11299 0.43573 0.81158 0.0
H633 H 0.65961 0.16327 0.29322 0.0
H634 H 0.70916 0.13947 0.31345 0.0
H635 H 0.72399 0.14839 0.25962 0.0
H636 H 0.6401 0.13609 0.22938 0.0
H637 H 0.63677 0.15802 0.20816 0.0
H638 H 0.63638 0.15823 0.24944 0.0
H639 H 0.67084 0.20155 0.24991 0.0
H640 H 0.67121 0.2016 0.20824 0.0
H641 H 0.69783 0.20933 0.22946 0.0
H642 H 0.72439 0.14821 0.20189 0.0
H643 H 0.7107 0.13937 0.14779 0.0
H644 H 0.66141 0.16415 0.16514 0.0
C645 C 0.67445 0.16117 0.28658 0.0
C646 C 0.68342 0.15089 0.30714 0.0
C647 C 0.70243 0.14776 0.29797 0.0
C648 C 0.71092 0.1528 0.26745 0.0
C649 C 0.70055 0.16148 0.24688 0.0
C650 C 0.68309 0.16624 0.25641 0.0
C651 C 0.67177 0.17142 0.22934 0.0
C652 C 0.64469 0.15494 0.22908 0.0
C653 C 0.67832 0.19753 0.22923 0.0
C654 C 0.68363 0.16624 0.20293 0.0
C655 C 0.70086 0.16146 0.2133 0.0
C656 C 0.71155 0.15271 0.19341 0.0
C657 C 0.70367 0.14772 0.16267 0.0
C658 C 0.68499 0.15109 0.15246 0.0
C659 C 0.67587 0.16164 0.1724 0.0
H660 H 0.2137 0.45765 0.96348 0.0
H661 H 0.16688 0.3868 0.92908 0.0
H662 H 0.19478 0.37431 0.94731 0.0
H663 H 0.26911 0.45937 0.94438 0.0
H664 H 0.28374 0.47564 0.97876 0.0
H665 H 0.26076 0.47936 0.96133 0.0
H666 H 0.23788 0.46833 0.01326 0.0
H667 H 0.26077 0.46461 0.03084 0.0
H668 H 0.23057 0.44076 0.0318 0.0
H669 H 0.22636 0.36887 0.97244 0.0
H670 H 0.25956 0.37099 0.00229 0.0
H671 H 0.28608 0.44561 0.01918 0.0
C672 C 0.20939 0.43955 0.95951 0.0
C673 C 0.1881 0.42319 0.94487 0.0
C674 C 0.1831 0.39966 0.94021 0.0
C675 C 0.19885 0.3924 0.95043 0.0
C676 C 0.21958 0.40894 0.96501 0.0
C677 C 0.22493 0.43205 0.96941 0.0
C678 C 0.24796 0.44612 0.98672 0.0
C679 C 0.26648 0.46631 0.96659 0.0
C680 C 0.24404 0.45549 0.01748 0.0
C681 C 0.25448 0.42718 0.99194 0.0
C682 C 0.23795 0.40589 0.97911 0.0
C683 C 0.23956 0.38551 0.9823 0.0
C684 C 0.25844 0.38688 -0.00066 0.0
C685 C 0.27545 0.40848 0.01291 0.0
C686 C 0.27354 0.42892 0.00874 0.0
H687 H 0.72753 0.2185 0.42471 0.0
H688 H 0.72386 0.15952 0.4759 0.0
H689 H 0.75641 0.18759 0.50951 0.0
H690 H 0.79133 0.25618 0.42778 0.0
H691 H 0.7898 0.28284 0.43207 0.0
H692 H 0.76696 0.25803 0.41135 0.0
H693 H 0.7353 0.25801 0.44755 0.0
H694 H 0.75802 0.28276 0.46841 0.0
H695 H 0.73799 0.25602 0.48875 0.0
H696 H 0.78799 0.22223 0.53902 0.0
H697 H 0.81672 0.26072 0.56167 0.0
H698 H 0.79976 0.29676 0.49047 0.0
C699 C 0.73365 0.21142 0.44283 0.0
C700 C 0.72316 0.18681 0.4477 0.0
C701 C 0.73167 0.17831 0.47172 0.0
C702 C 0.75014 0.19411 0.49091 0.0
C703 C 0.75993 0.21828 0.48562 0.0
C704 C 0.75205 0.22688 0.46207 0.0
C705 C 0.76513 0.25362 0.46164 0.0
C706 C 0.77914 0.26323 0.43141 0.0
C707 C 0.74809 0.26315 0.46691 0.0
C708 C 0.78143 0.25877 0.48891 0.0
C709 C 0.77821 0.23817 0.5024 0.0
C710 C 0.79078 0.23848 0.52852 0.0
C711 C 0.80702 0.26043 0.54124 0.0
C712 C 0.81053 0.28176 0.52778 0.0
C713 C 0.79763 0.2808 0.50116 0.0
H714 H 0.53047 0.81061 0.00731 0.0
H715 H 0.53814 0.79884 0.10433 0.0
H716 H 0.5494 0.76927 0.08991 0.0
H717 H 0.50426 0.75155 0.98438 0.0
H718 H 0.519 0.75746 0.9475 0.0
H719 H 0.51383 0.77941 0.96517 0.0
H720 H 0.55857 0.81 0.96202 0.0
H721 H 0.56388 0.78814 0.94419 0.0
H722 H 0.5796 0.803 0.97879 0.0
H723 H 0.55593 0.73826 0.06538 0.0
H724 H 0.55862 0.70894 0.03217 0.0
H725 H 0.54764 0.74149 0.95114 0.0
C726 C 0.53492 0.80214 0.02552 0.0
C727 C 0.53343 0.80709 0.05696 0.0
C728 C 0.53918 0.7954 0.08008 0.0
C729 C 0.54563 0.77858 0.07213 0.0
C730 C 0.54646 0.77378 0.04097 0.0
C731 C 0.54147 0.78534 0.018 0.0
C732 C 0.54251 0.77604 0.98634 0.0
C733 C 0.51847 0.76549 0.9699 0.0
C734 C 0.56232 0.79545 0.96668 0.0
C735 C 0.54828 0.75705 0.99517 0.0
C736 C 0.5506 0.7561 0.02678 0.0
C737 C 0.5545 0.73905 0.04056 0.0
C738 C 0.55593 0.72243 0.02152 0.0
C739 C 0.55351 0.72304 0.98907 0.0
C740 C 0.54993 0.74079 0.97582 0.0
H741 H 0.73456 0.56776 0.53664 0.0
H742 H 0.7139 0.59477 0.45826 0.0
H743 H 0.74826 0.59884 0.42881 0.0
H744 H 0.7999 0.60254 0.52473 0.0
H745 H 0.80328 0.57779 0.53594 0.0
H746 H 0.77999 0.58144 0.55261 0.0
H747 H 0.74914 0.53922 0.53477 0.0
H748 H 0.77222 0.53549 0.5179 0.0
H749 H 0.7477 0.53157 0.4945 0.0
H750 H 0.78214 0.5956 0.40614 0.0
H751 H 0.811 0.58345 0.39117 0.0
H752 H 0.80789 0.55657 0.48382 0.0
C753 C 0.73768 0.57531 0.51365 0.0
C754 C 0.72174 0.58129 0.49987 0.0
C755 C 0.72603 0.59032 0.46936 0.0
C756 C 0.74553 0.59274 0.45251 0.0
C757 C 0.76049 0.58597 0.4665 0.0
C758 C 0.75676 0.57744 0.49643 0.0
C759 C 0.77348 0.56859 0.50493 0.0
C760 C 0.79015 0.58349 0.5311 0.0
C761 C 0.75981 0.54216 0.51351 0.0
C762 C 0.78673 0.57273 0.47479 0.0
C763 C 0.77938 0.58325 0.45312 0.0
C764 C 0.78822 0.58763 0.42305 0.0
C765 C 0.80463 0.58065 0.41476 0.0
C766 C 0.81172 0.56905 0.43632 0.0
C767 C 0.80294 0.56552 0.46686 0.0
H768 H 0.25963 0.80137 0.96245 0.0
H769 H 0.24858 0.85556 0.00406 0.0
H770 H 0.21454 0.82467 0.03342 0.0
H771 H 0.19721 0.75572 0.95643 0.0
H772 H 0.20333 0.73236 0.96552 0.0
H773 H 0.22523 0.75857 0.94588 0.0
H774 H 0.25573 0.76518 0.98862 0.0
H775 H 0.23397 0.73904 0.00833 0.0
H776 H 0.24854 0.76692 0.0284 0.0
H777 H 0.18386 0.78774 0.06164 0.0
H778 H 0.15963 0.7485 0.086 0.0
H779 H 0.19116 0.7193 0.02463 0.0
C780 C 0.24992 0.80682 0.9774 0.0
C781 C 0.25678 0.8309 0.98097 0.0
C782 C 0.2436 0.8372 0.00089 0.0
C783 C 0.22422 0.81978 0.01761 0.0
C784 C 0.21819 0.7962 0.01385 0.0
C785 C 0.23062 0.78976 0.99405 0.0
C786 C 0.22159 0.76348 0.99523 0.0
C787 C 0.21122 0.75185 0.9639 0.0
C788 C 0.24112 0.75837 0.00579 0.0
C789 C 0.20249 0.75612 0.01941 0.0
C790 C 0.20058 0.77513 0.02975 0.0
C791 C 0.185 0.7727 0.05341 0.0
C792 C 0.17133 0.75034 0.06711 0.0
C793 C 0.17343 0.7308 0.05716 0.0
C794 C 0.18892 0.73379 0.0326 0.0
H795 H 0.46705 0.20833 0.47925 0.0
H796 H 0.40539 0.1952 0.53282 0.0
H797 H 0.40731 0.23089 0.51013 0.0
H798 H 0.49809 0.27124 0.48633 0.0
H799 H 0.50986 0.2763 0.44763 0.0
H800 H 0.50331 0.24955 0.46776 0.0
H801 H 0.47616 0.2246 0.42276 0.0
H802 H 0.48265 0.25127 0.40247 0.0
H803 H 0.45242 0.22927 0.41053 0.0
H804 H 0.41644 0.2685 0.48177 0.0
H805 H 0.43188 0.30471 0.44998 0.0
H806 H 0.48743 0.29272 0.41531 0.0
C807 C 0.45387 0.21287 0.48621 0.0
C808 C 0.43604 0.19894 0.50783 0.0
C809 C 0.4192 0.20558 0.51629 0.0
C810 C 0.42015 0.22583 0.50353 0.0
C811 C 0.43803 0.23919 0.48235 0.0
C812 C 0.45456 0.23295 0.47375 0.0
C813 C 0.47209 0.25032 0.45073 0.0
C814 C 0.49733 0.26258 0.46391 0.0
C815 C 0.47074 0.23813 0.41979 0.0
C816 C 0.4629 0.26738 0.44773 0.0
C817 C 0.44324 0.26069 0.46612 0.0
C818 C 0.4318 0.27387 0.46726 0.0
C819 C 0.44071 0.29442 0.44913 0.0
C820 C 0.46086 0.30156 0.43012 0.0
C821 C 0.47199 0.28776 0.42953 0.0
H822 H 0.83181 0.56372 0.08334 0.0
H823 H 0.86876 0.55404 0.00643 0.0
H824 H 0.84803 0.56679 0.97026 0.0
H825 H 0.77774 0.53875 0.04783 0.0
H826 H 0.76848 0.55818 0.06427 0.0
H827 H 0.78938 0.55284 0.0845 0.0
H828 H 0.81909 0.59787 0.08607 0.0
H829 H 0.79819 0.60338 0.06586 0.0
H830 H 0.82758 0.61461 0.0506 0.0
H831 H 0.82023 0.57597 0.94227 0.0
H832 H 0.78589 0.57862 0.9241 0.0
H833 H 0.76581 0.58082 0.01918 0.0
C834 C 0.83608 0.56501 0.05898 0.0
C835 C 0.85207 0.55818 0.04765 0.0
C836 C 0.85665 0.55934 0.01555 0.0
C837 C 0.84507 0.56668 0.99488 0.0
C838 C 0.82893 0.57273 0.00671 0.0
C839 C 0.8244 0.57195 0.03803 0.0
C840 C 0.80419 0.57646 0.04447 0.0
C841 C 0.78375 0.5553 0.06124 0.0
C842 C 0.81278 0.59945 0.06283 0.0
C843 C 0.79745 0.57899 0.01183 0.0
C844 C 0.8123 0.57733 0.99044 0.0
C845 C 0.80869 0.57762 0.95879 0.0
C846 C 0.78908 0.57908 0.9487 0.0
C847 C 0.77313 0.57991 0.97022 0.0
C848 C 0.77778 0.58043 0.00216 0.0
H849 H 0.1676 0.71267 0.53264 0.0
H850 H 0.14404 0.73853 0.4559 0.0
H851 H 0.17108 0.77957 0.47246 0.0
H852 H 0.17663 0.75941 0.58866 0.0
H853 H 0.20262 0.76048 0.60463 0.0
H854 H 0.17923 0.73319 0.58906 0.0
H855 H 0.20932 0.73051 0.55262 0.0
H856 H 0.23273 0.75786 0.5678 0.0
H857 H 0.22698 0.75475 0.52686 0.0
H858 H 0.20342 0.81767 0.49418 0.0
H859 H 0.23808 0.85007 0.52019 0.0
H860 H 0.24076 0.79924 0.58237 0.0
C861 C 0.16766 0.72692 0.51976 0.0
C862 C 0.15361 0.72238 0.49306 0.0
C863 C 0.15459 0.74158 0.47649 0.0
C864 C 0.16987 0.76495 0.48574 0.0
C865 C 0.18399 0.76883 0.51164 0.0
C866 C 0.18289 0.75034 0.52856 0.0
C867 C 0.20115 0.75927 0.5541 0.0
C868 C 0.18919 0.7527 0.586 0.0
C869 C 0.21857 0.75005 0.55008 0.0
C870 C 0.21307 0.78563 0.54841 0.0
C871 C 0.20277 0.7908 0.52401 0.0
C872 C 0.21145 0.81387 0.51356 0.0
C873 C 0.2312 0.83214 0.52842 0.0
C874 C 0.24212 0.82721 0.55336 0.0
C875 C 0.23274 0.80363 0.56352 0.0
H876 H 0.48848 0.19576 0.93147 0.0
H877 H 0.41664 0.14293 0.956 0.0
H878 H 0.41297 0.1726 0.98709 0.0
H879 H 0.50438 0.22655 0.00505 0.0
H880 H 0.52138 0.25533 0.98759 0.0
H881 H 0.51882 0.22968 0.96841 0.0
H882 H 0.50273 0.23977 0.91948 0.0
H883 H 0.50526 0.26545 0.93849 0.0
H884 H 0.47727 0.24352 0.92269 0.0
H885 H 0.41675 0.20792 0.01464 0.0
H886 H 0.4271 0.24708 0.03524 0.0
H887 H 0.49622 0.27733 0.9919 0.0
C888 C 0.47204 0.19038 0.94358 0.0
C889 C 0.45286 0.167 0.94141 0.0
C890 C 0.43156 0.16073 0.95731 0.0
C891 C 0.42932 0.17743 0.97511 0.0
C892 C 0.44852 0.20033 0.97667 0.0
C893 C 0.46944 0.20687 0.96126 0.0
C894 C 0.48703 0.23288 0.96579 0.0
C895 C 0.50921 0.2363 0.98272 0.0
C896 C 0.49344 0.24618 0.93477 0.0
C897 C 0.47264 0.23997 0.98597 0.0
C898 C 0.45056 0.22086 0.99216 0.0
C899 C 0.434 0.22302 0.01001 0.0
C900 C 0.44007 0.24536 0.02162 0.0
C901 C 0.46247 0.2653 0.01518 0.0
C902 C 0.47898 0.26244 -0.00273 0.0
H903 H 0.1832 0.46123 0.53187 0.0
H904 H 0.12859 0.39084 0.50502 0.0
H905 H 0.15804 0.38612 0.47448 0.0
H906 H 0.21294 0.47778 0.46025 0.0
H907 H 0.24199 0.49406 0.47705 0.0
H908 H 0.21679 0.49118 0.49777 0.0
H909 H 0.22735 0.47339 0.54456 0.0
H910 H 0.25258 0.47617 0.52392 0.0
H911 H 0.23068 0.44784 0.53903 0.0
H912 H 0.19351 0.3903 0.44442 0.0
H913 H 0.23164 0.40294 0.41799 0.0
H914 H 0.26241 0.47011 0.46618 0.0
C915 C 0.17738 0.44474 0.51973 0.0
C916 C 0.15357 0.42641 0.5208 0.0
C917 C 0.14676 0.40512 0.50458 0.0
C918 C 0.16336 0.40227 0.4872 0.0
C919 C 0.18669 0.42079 0.48654 0.0
C920 C 0.19367 0.44156 0.50253 0.0
C921 C 0.21958 0.45907 0.49757 0.0
C922 C 0.22301 0.48186 0.48224 0.0
C923 C 0.23335 0.46442 0.52809 0.0
C924 C 0.22609 0.4451 0.47585 0.0
C925 C 0.20697 0.42303 0.46977 0.0
C926 C 0.20864 0.40746 0.44926 0.0
C927 C 0.23036 0.41479 0.43435 0.0
C928 C 0.25006 0.43746 0.44009 0.0
C929 C 0.24781 0.45258 0.46145 0.0
H930 H 0.80515 0.24262 0.92033 0.0
H931 H 0.85467 0.24753 0.99076 0.0
H932 H 0.82413 0.20941 0.01267 0.0
H933 H 0.75579 0.22073 0.96811 0.0
H934 H 0.73511 0.20137 0.93957 0.0
H935 H 0.76165 0.22753 0.92757 0.0
H936 H 0.77285 0.20198 0.89342 0.0
H937 H 0.74633 0.17567 0.90551 0.0
H938 H 0.77473 0.17781 0.91059 0.0
H939 H 0.78703 0.17293 0.02995 0.0
H940 H 0.74618 0.14178 0.04201 0.0
H941 H 0.72133 0.16046 0.95957 0.0
C942 C 0.80973 0.23554 0.94008 0.0
C943 C 0.83232 0.24806 0.9538 0.0
C944 C 0.83749 0.23824 0.97981 0.0
C945 C 0.8203 0.21655 0.99233 0.0
C946 C 0.79811 0.2048 0.97842 0.0
C947 C 0.79283 0.21394 0.95279 0.0
C948 C 0.76721 0.19876 0.94349 0.0
C949 C 0.75418 0.21294 0.94478 0.0
C950 C 0.76517 0.18791 0.91134 0.0
C951 C 0.75866 0.18005 0.96847 0.0
C952 C 0.7768 0.18365 0.98819 0.0
C953 C 0.77277 0.1697 0.01438 0.0
C954 C 0.7495 0.15205 0.02105 0.0
C955 C 0.73057 0.14855 0.00162 0.0
C956 C 0.73543 0.16235 0.97457 0.0
H957 H 0.50851 0.8051 0.51566 0.0
H958 H 0.57954 0.84158 0.47762 0.0
H959 H 0.58766 0.8121 0.50191 0.0
H960 H 0.52315 0.78735 0.58879 0.0
H961 H 0.49629 0.7591 0.58911 0.0
H962 H 0.49683 0.78414 0.57077 0.0
H963 H 0.48183 0.76035 0.51985 0.0
H964 H 0.48132 0.7353 0.53798 0.0
H965 H 0.49802 0.74746 0.50295 0.0
H966 H 0.58718 0.77717 0.52809 0.0
H967 H 0.57795 0.73959 0.55355 0.0
H968 H 0.50713 0.72613 0.57367 0.0
C969 C 0.52591 0.80714 0.5128 0.0
C970 C 0.54343 0.82573 0.49483 0.0
C971 C 0.56585 0.82752 0.49134 0.0
C972 C 0.57065 0.81088 0.50509 0.0
C973 C 0.55285 0.79257 0.52227 0.0
C974 C 0.53094 0.79066 0.5262 0.0
C975 C 0.51445 0.7687 0.5444 0.0
C976 C 0.50727 0.77522 0.57509 0.0
C977 C 0.49263 0.75197 0.52514 0.0
C978 C 0.53036 0.75837 0.54973 0.0
C979 C 0.5525 0.77245 0.53702 0.0
C980 C 0.56994 0.76609 0.53832 0.0
C981 C 0.56454 0.7447 0.55281 0.0
C982 C 0.54184 0.72989 0.56565 0.0
C983 C 0.52469 0.73704 0.56421 0.0
H984 H 0.35699 0.35573 0.09004 0.0
H985 H 0.34783 0.38823 0.00794 0.0
H986 H 0.36495 0.36923 0.97628 0.0
H987 H 0.40931 0.36567 0.07757 0.0
H988 H 0.4066 0.33825 0.09092 0.0
H989 H 0.38668 0.34737 0.10504 0.0
H990 H 0.35105 0.30787 0.08666 0.0
H991 H 0.37109 0.29859 0.07233 0.0
H992 H 0.34936 0.29887 0.04695 0.0
H993 H 0.39566 0.36079 0.95852 0.0
H994 H 0.4328 0.35954 0.95592 0.0
H995 H 0.41834 0.3267 0.04597 0.0
C996 C 0.35749 0.35778 0.06519 0.0
C997 C 0.35122 0.37347 0.05146 0.0
C998 C 0.35236 0.37611 0.01895 0.0
C999 C 0.36204 0.36532 0.00072 0.0
C1000 C 0.36972 0.35126 0.01519 0.0
C1001 C 0.36669 0.3467 0.04663 0.0
C1002 C 0.37944 0.33394 0.05733 0.0
C1003 C 0.39652 0.34712 0.08423 0.0
C1004 C 0.36167 0.30829 0.06634 0.0
C1005 C 0.3925 0.33476 0.02797 0.0
C1006 C 0.38624 0.34431 0.00364 0.0
C1007 C 0.39984 0.35206 0.97666 0.0
C1008 C 0.42089 0.35124 0.97522 0.0
C1009 C 0.42772 0.34213 0.00023 0.0
C1010 C 0.41262 0.33247 0.02593 0.0
H1011 H 0.03949 0.45449 0.53916 0.0
H1012 H 0.04917 0.39366 0.54366 0.0
H1013 H 0.00698 0.36761 0.53055 0.0
H1014 H 0.99169 0.43289 0.57914 0.0
H1015 H 0.97667 0.44552 0.55847 0.0
H1016 H 0.00818 0.4596 0.55681 0.0
H1017 H 0.00674 0.45716 0.49706 0.0
H1018 H 0.97495 0.44316 0.49849 0.0
H1019 H 0.98879 0.42907 0.47839 0.0
H1020 H 0.96277 0.34804 0.53187 0.0
H1021 H 0.9223 0.33743 0.54789 0.0
H1022 H 0.94151 0.41112 0.54301 0.0
C1023 C 0.03292 0.43578 0.53588 0.0
C1024 C 0.04741 0.426 0.5423 0.0
C1025 C 0.03835 0.40148 0.53835 0.0
C1026 C 0.0144 0.38659 0.53091 0.0
C1027 C 4e-05 0.39664 0.52685 0.0
C1028 C 0.00919 0.42085 0.52856 0.0
C1029 C 0.98985 0.42718 0.52893 0.0
C1030 C 0.99171 0.44213 0.55754 0.0
C1031 C 0.9901 0.43989 0.49892 0.0
C1032 C 0.96835 0.40277 0.53042 0.0
C1033 C 0.9744 0.38531 0.52791 0.0
C1034 C 0.95776 0.36152 0.53288 0.0
C1035 C 0.93477 0.35562 0.54196 0.0
C1036 C 0.9289 0.37352 0.54661 0.0
C1037 C 0.94556 0.39712 0.53926 0.0
H1038 H 0.53482 0.93923 0.13033 0.0
H1039 H 0.56898 0.90991 0.0741 0.0
H1040 H 0.60084 0.95054 0.06117 0.0
H1041 H 0.54546 0.98626 0.08146 0.0
H1042 H 0.55038 0.00663 0.11245 0.0
H1043 H 0.53153 0.97539 0.11849 0.0
H1044 H 0.55708 0.97703 0.1653 0.0
H1045 H 0.57599 0.00833 0.15945 0.0
H1046 H 0.58845 0.98915 0.16031 0.0
H1047 H 0.62804 0.9955 0.05255 0.0
H1048 H 0.6473 0.03926 0.04953 0.0
H1049 H 0.59417 0.03712 0.11189 0.0
C1050 C 0.54904 0.94121 0.11544 0.0
C1051 C 0.54936 0.92136 0.10316 0.0
C1052 C 0.5684 0.92487 0.08385 0.0
C1053 C 0.58655 0.94788 0.07639 0.0
C1054 C 0.58545 0.96709 0.08866 0.0
C1055 C 0.56718 0.96385 0.10795 0.0
C1056 C 0.56939 0.98707 0.11762 0.0
C1057 C 0.54792 0.98894 0.10685 0.0
C1058 C 0.57295 0.9906 0.15275 0.0
C1059 C 0.5915 0.00403 0.10026 0.0
C1060 C 0.60076 0.99238 0.08381 0.0
C1061 C 0.62096 0.00474 0.06552 0.0
C1062 C 0.63179 0.02958 0.06393 0.0
C1063 C 0.62224 0.04166 0.08038 0.0
C1064 C 0.60197 0.02854 0.09891 0.0
H1065 H 0.58126 0.5482 0.58548 0.0
H1066 H 0.64798 0.61041 0.56211 0.0
H1067 H 0.62782 0.63417 0.56051 0.0
H1068 H 0.54376 0.56197 0.53775 0.0
H1069 H 0.52016 0.54989 0.56577 0.0
H1070 H 0.53978 0.53806 0.56257 0.0
H1071 H 0.54976 0.54602 0.62086 0.0
H1072 H 0.53023 0.55787 0.62423 0.0
H1073 H 0.56069 0.57543 0.63582 0.0
H1074 H 0.59973 0.65137 0.5657 0.0
H1075 H 0.56736 0.65983 0.57668 0.0
H1076 H 0.52016 0.5854 0.59576 0.0
C1077 C 0.59174 0.56679 0.57976 0.0
C1078 C 0.61625 0.57748 0.57407 0.0
C1079 C 0.62916 0.60184 0.56649 0.0
C1080 C 0.61784 0.61544 0.56554 0.0
C1081 C 0.59361 0.60429 0.57183 0.0
C1082 C 0.58079 0.58042 0.57853 0.0
C1083 C 0.55526 0.57248 0.58561 0.0
C1084 C 0.53877 0.55455 0.56148 0.0
C1085 C 0.54861 0.56237 0.61858 0.0
C1086 C 0.55566 0.5957 0.5827 0.0
C1087 C 0.57779 0.61392 0.5745 0.0
C1088 C 0.58231 0.63714 0.57182 0.0
C1089 C 0.56382 0.64178 0.57807 0.0
C1090 C 0.54118 0.62329 0.58708 0.0
C1091 C 0.53718 0.59998 0.58887 0.0
H1092 H 0.96697 0.53317 0.1321 0.0
H1093 H 0.94954 0.57591 0.07274 0.0
H1094 H 0.99216 0.60449 0.06597 0.0
H1095 H 0.01743 0.58151 0.16969 0.0
H1096 H 0.03374 0.56595 0.17083 0.0
H1097 H 0.00193 0.54969 0.17191 0.0
H1098 H 0.00142 0.5254 0.12425 0.0
H1099 H 0.03321 0.54166 0.12292 0.0
H1100 H 0.01641 0.54065 0.08936 0.0
H1101 H 0.03721 0.62778 0.06458 0.0
H1102 H 0.08034 0.64365 0.06907 0.0
H1103 H 0.06717 0.58487 0.12889 0.0
C1104 C 0.97201 0.54863 0.11789 0.0
C1105 C 0.95487 0.5523 0.10302 0.0
C1106 C 0.96234 0.57273 0.08444 0.0
C1107 C 0.98651 0.58906 0.08045 0.0
C1108 C 0.00293 0.58469 0.09519 0.0
C1109 C 0.99593 0.56498 0.1136 0.0
C1110 C 0.01692 0.5639 0.1263 0.0
C1111 C 0.01754 0.56536 0.16179 0.0
C1112 C 0.01698 0.54158 0.11502 0.0
C1113 C 0.03688 0.58599 0.11201 0.0
C1114 C 0.02856 0.59785 0.09422 0.0
C1115 C 0.0439 0.61865 0.07854 0.0
C1116 C 0.06836 0.62751 0.08119 0.0
C1117 C 0.07718 0.61552 0.0993 0.0
C1118 C 0.06109 0.59451 0.11484 0.0
H1119 H 0.37779 0.07814 0.54393 0.0
H1120 H 0.40587 0.06636 0.45981 0.0
H1121 H 0.37116 0.02631 0.45573 0.0
H1122 H 0.36864 0.03094 0.57613 0.0
H1123 H 0.34198 0.02319 0.59743 0.0
H1124 H 0.36122 0.05322 0.58646 0.0
H1125 H 0.32683 0.05422 0.55817 0.0
H1126 H 0.30722 0.02393 0.56939 0.0
H1127 H 0.31016 0.03232 0.52925 0.0
H1128 H 0.34171 0.9853 0.46865 0.0
H1129 H 0.32458 0.94836 0.499 0.0
H1130 H 0.31788 0.98501 0.57799 0.0
C1131 C 0.37554 0.06762 0.52354 0.0
C1132 C 0.39381 0.07543 0.50154 0.0
C1133 C 0.39151 0.06086 0.47619 0.0
C1134 C 0.37182 0.03806 0.47381 0.0
C1135 C 0.35485 0.02996 0.49731 0.0
C1136 C 0.3565 0.04446 0.52174 0.0
C1137 C 0.34024 0.03022 0.54805 0.0
C1138 C 0.35386 0.03464 0.57875 0.0
C1139 C 0.3199 0.03549 0.55139 0.0
C1140 C 0.33124 0.00537 0.53613 0.0
C1141 C 0.33865 0.00556 0.50609 0.0
C1142 C 0.3352 0.98489 0.49177 0.0
C1143 C 0.32535 0.9639 0.50911 0.0
C1144 C 0.31974 0.964 0.54059 0.0
C1145 C 0.32155 0.98459 0.55367 0.0
H1146 H 0.61621 0.6537 0.89519 0.0
H1147 H 0.61331 0.6561 0.99479 0.0
H1148 H 0.65021 0.65421 -0.00167 0.0
H1149 H 0.62827 0.61183 0.88937 0.0
H1150 H 0.64831 0.62272 0.85696 0.0
H1151 H 0.62717 0.63219 0.86215 0.0
H1152 H 0.66078 0.67594 0.86211 0.0
H1153 H 0.68222 0.66651 0.8568 0.0
H1154 H 0.68508 0.6855 0.88868 0.0
H1155 H 0.67944 0.64026 0.99111 0.0
H1156 H 0.69702 0.61621 0.97403 0.0
H1157 H 0.68218 0.62468 0.87904 0.0
C1158 C 0.62412 0.65505 0.91762 0.0
C1159 C 0.61226 0.65523 0.94467 0.0
C1160 C 0.62252 0.65642 0.9738 0.0
C1161 C 0.64347 0.65536 0.97596 0.0
C1162 C 0.65414 0.65379 0.94872 0.0
C1163 C 0.64505 0.65429 0.92 0.0
C1164 C 0.65714 0.64854 0.89444 0.0
C1165 C 0.63916 0.62758 0.87464 0.0
C1166 C 0.67221 0.67043 0.87433 0.0
C1167 C 0.67261 0.64216 0.91334 0.0
C1168 C 0.67141 0.64611 0.94456 0.0
C1169 C 0.68122 0.63792 0.9667 0.0
C1170 C 0.69129 0.62434 0.95684 0.0
C1171 C 0.69104 0.61886 0.92522 0.0
C1172 C 0.68291 0.62908 0.90328 0.0
H1173 H 0.93141 0.53933 0.39541 0.0
H1174 H 0.9151 0.58497 0.45029 0.0
H1175 H 0.95802 0.61381 0.45483 0.0
H1176 H 0.98175 0.54866 0.43704 0.0
H1177 H -0.00261 0.54782 0.40317 0.0
H1178 H 0.9656 0.53168 0.4038 0.0
H1179 H 0.96472 0.55349 0.35414 0.0
H1180 H 0.99653 0.5697 0.35334 0.0
H1181 H 0.9803 0.58536 0.35343 0.0
H1182 H 0.0039 0.63695 0.45442 0.0
H1183 H 0.04688 0.65175 0.44846 0.0
H1184 H 0.03088 0.59006 0.39327 0.0
C1185 C 0.93671 0.55539 0.40838 0.0
C1186 C 0.91985 0.55983 0.4226 0.0
C1187 C 0.9277 0.58118 0.43918 0.0
C1188 C 0.95203 0.59764 0.44188 0.0
C1189 C 0.96817 0.59249 0.42768 0.0
C1190 C 0.96066 0.57186 0.41114 0.0
C1191 C 0.98114 0.57 0.39821 0.0
C1192 C 0.98148 0.54826 0.41135 0.0
C1193 C 0.98064 0.56963 0.36268 0.0
C1194 C 0.00152 0.59271 0.41027 0.0
C1195 C 0.99391 0.60559 0.42719 0.0
C1196 C 0.00997 0.627 0.44105 0.0
C1197 C 0.03434 0.63527 0.43756 0.0
C1198 C 0.04233 0.62213 0.42035 0.0
C1199 C 0.02553 0.60067 0.40649 0.0
H1200 H 0.40667 0.04105 0.87345 0.0
H1201 H 0.44403 0.06595 0.95996 0.0
H1202 H 0.41628 0.02754 0.98453 0.0
H1203 H 0.34493 0.00118 0.90951 0.0
H1204 H 0.33791 0.97988 0.87905 0.0
H1205 H 0.35657 0.011 0.87119 0.0
H1206 H 0.38901 0.00294 0.84992 0.0
H1207 H 0.37057 0.97205 0.8577 0.0
H1208 H 0.39983 0.98786 0.87404 0.0
H1209 H 0.39201 0.98381 0.99458 0.0
H1210 H 0.37256 0.94021 0.98959 0.0
H1211 H 0.34887 0.94461 0.89798 0.0
C1212 C 0.40823 0.03867 0.89793 0.0
C1213 C 0.42713 0.05624 0.91504 0.0
C1214 C 0.42928 0.05267 0.94678 0.0
C1215 C 0.4136 0.03094 0.96083 0.0
C1216 C 0.39559 0.0134 0.94293 0.0
C1217 C 0.39249 0.01735 0.91229 0.0
C1218 C 0.37394 0.995 0.8968 0.0
C1219 C 0.35204 0.99689 0.88867 0.0
C1220 C 0.38396 0.98913 0.86796 0.0
C1221 C 0.36857 0.97739 0.92256 0.0
C1222 C 0.38075 0.9883 0.94931 0.0
C1223 C 0.38158 0.97515 0.97431 0.0
C1224 C 0.37044 0.95041 0.97142 0.0
C1225 C 0.35864 0.9393 0.94383 0.0
C1226 C 0.35695 0.95284 0.91976 0.0
H1227 H 0.40497 0.48685 0.38752 0.0
H1228 H 0.34018 0.43022 0.42689 0.0
H1229 H 0.35958 0.40617 0.4336 0.0
H1230 H 0.41963 0.45169 0.34383 0.0
H1231 H 0.45105 0.46951 0.34986 0.0
H1232 H 0.43278 0.48287 0.35158 0.0
H1233 H 0.44842 0.49857 0.40659 0.0
H1234 H 0.46681 0.48524 0.40503 0.0
H1235 H 0.44612 0.47818 0.43635 0.0
H1236 H 0.38548 0.38698 0.43092 0.0
H1237 H 0.4151 0.37487 0.41925 0.0
H1238 H 0.46228 0.4449 0.3825 0.0
C1239 C 0.39488 0.46953 0.39798 0.0
C1240 C 0.37105 0.4604 0.40664 0.0
C1241 C 0.35852 0.43761 0.4202 0.0
C1242 C 0.3694 0.42385 0.42412 0.0
C1243 C 0.39285 0.43328 0.41472 0.0
C1244 C 0.40544 0.45571 0.40218 0.0
C1245 C 0.42991 0.46146 0.39222 0.0
C1246 C 0.43353 0.46667 0.35731 0.0
C1247 C 0.44893 0.48208 0.41119 0.0
C1248 C 0.42895 0.43848 0.40015 0.0
C1249 C 0.4076 0.42245 0.41342 0.0
C1250 C 0.40238 0.39953 0.42094 0.0
C1251 C 0.41929 0.39281 0.41424 0.0
C1252 C 0.44103 0.40892 0.39999 0.0
C1253 C 0.44592 0.43214 0.39353 0.0
H1254 H 0.07665 0.39113 0.939 0.0
H1255 H 0.0818 0.43907 0.01121 0.0
H1256 H 0.04209 0.40971 0.03002 0.0
H1257 H 0.02533 0.3793 0.91594 0.0
H1258 H 0.01313 0.34861 0.90575 0.0
H1259 H 0.04446 0.36767 0.90641 0.0
H1260 H 0.04855 0.33962 0.94505 0.0
H1261 H 0.01693 0.32028 0.94444 0.0
H1262 H 0.03198 0.33161 0.98065 0.0
H1263 H -0.00036 0.38232 0.0311 0.0
H1264 H 0.95868 0.36209 0.01176 0.0
H1265 H 0.97891 0.33218 0.93687 0.0
C1266 C 0.06986 0.39459 0.95999 0.0
C1267 C 0.08233 0.41681 0.97443 0.0
C1268 C 0.07263 0.42175 0.00057 0.0
C1269 C 0.05011 0.40511 0.01139 0.0
C1270 C 0.03741 0.38378 0.99547 0.0
C1271 C 0.04703 0.37842 0.9703 0.0
C1272 C 0.02818 0.35749 0.95253 0.0
C1273 C 0.02775 0.36367 0.91818 0.0
C1274 C 0.03162 0.33597 0.95588 0.0
C1275 C 0.00622 0.35352 0.9696 0.0
C1276 C 0.012 0.36801 0.99529 0.0
C1277 C 0.99485 0.37026 0.01181 0.0
C1278 C 0.97158 0.35862 0.0008 0.0
C1279 C 0.96576 0.34508 0.9735 0.0
C1280 C 0.98294 0.34159 0.95862 0.0
H1281 H 0.56342 0.93862 0.38635 0.0
H1282 H 0.57317 0.93412 0.48455 0.0
H1283 H 0.60598 0.97574 0.48413 0.0
H1284 H 0.62757 0.98222 0.36626 0.0
H1285 H 0.61825 0.99648 0.33849 0.0
H1286 H 0.60035 0.96514 0.34535 0.0
H1287 H 0.56443 0.97053 0.35735 0.0
H1288 H 0.58215 0.00174 0.35093 0.0
H1289 H 0.56691 0.99089 0.38722 0.0
H1290 H 0.63181 0.02003 0.47443 0.0
H1291 H 0.6474 0.06135 0.45676 0.0
H1292 H 0.61957 0.03584 0.36526 0.0
C1293 C 0.57306 0.94612 0.40757 0.0
C1294 C 0.56589 0.93326 0.43545 0.0
C1295 C 0.57866 0.94364 0.46285 0.0
C1296 C 0.59728 0.96727 0.46278 0.0
C1297 C 0.60307 0.97994 0.43502 0.0
C1298 C 0.5915 0.96946 0.4078 0.0
C1299 C 0.59842 0.98725 0.38191 0.0
C1300 C 0.61196 0.98249 0.35651 0.0
C1301 C 0.57669 0.98762 0.36863 0.0
C1302 C 0.61448 0.00971 0.39918 0.0
C1303 C 0.61758 0.00524 0.42956 0.0
C1304 C 0.62994 0.02365 0.45051 0.0
C1305 C 0.63875 0.04706 0.44031 0.0
C1306 C 0.63465 0.0517 0.40966 0.0
C1307 C 0.62306 0.03279 0.38878 0.0
H1308 H 0.47035 0.56643 0.96296 0.0
H1309 H 0.51079 0.60983 0.04033 0.0
H1310 H 0.48173 0.57991 0.07662 0.0
H1311 H 0.41217 0.54652 -0.00225 0.0
H1312 H 0.3996 0.51762 0.98048 0.0
H1313 H 0.42321 0.54286 0.9612 0.0
H1314 H 0.44773 0.52158 0.9594 0.0
H1315 H 0.4243 0.49638 0.97882 0.0
H1316 H 0.45369 0.51095 0.9948 0.0
H1317 H 0.45027 0.54274 0.10391 0.0
H1318 H 0.41666 0.504 0.12 0.0
H1319 H 0.39541 0.48727 0.02427 0.0
C1320 C 0.47296 0.56972 0.98757 0.0
C1321 C 0.4928 0.59024 -0.00099 0.0
C1322 C 0.4956 0.59417 0.03124 0.0
C1323 C 0.47926 0.57727 0.05193 0.0
C1324 C 0.46002 0.55694 0.03984 0.0
C1325 C 0.45658 0.5534 0.00836 0.0
C1326 C 0.4345 0.53028 0.00106 0.0
C1327 C 0.41629 0.53459 0.98413 0.0
C1328 C 0.44042 0.51384 0.98243 0.0
C1329 C 0.42629 0.52095 0.03335 0.0
C1330 C 0.4413 0.53644 0.05546 0.0
C1331 C 0.43816 0.53072 0.08682 0.0
C1332 C 0.41914 0.50869 0.09572 0.0
C1333 C 0.40334 0.49289 0.07338 0.0
C1334 C 0.40694 0.49925 0.04188 0.0
H1335 H 0.82231 0.368 0.5389 0.0
H1336 H 0.83675 0.40799 0.62375 0.0
H1337 H 0.82334 0.43342 0.5995 0.0
H1338 H 0.84764 0.4135 0.49306 0.0
H1339 H 0.82769 0.40189 0.46071 0.0
H1340 H 0.83013 0.38203 0.48699 0.0
H1341 H 0.78507 0.3608 0.49739 0.0
H1342 H 0.7824 0.38061 0.47076 0.0
H1343 H 0.77155 0.37768 0.50975 0.0
H1344 H 0.81849 0.46021 0.56321 0.0
H1345 H 0.82401 0.48597 0.51835 0.0
H1346 H 0.81365 0.42937 0.45666 0.0
C1347 C 0.82142 0.38129 0.55284 0.0
C1348 C 0.83034 0.3859 0.58322 0.0
C1349 C 0.82979 0.40405 0.60046 0.0
C1350 C 0.82209 0.41852 0.5869 0.0
C1351 C 0.81485 0.41456 0.55613 0.0
C1352 C 0.81416 0.39614 0.5394 0.0
C1353 C 0.81016 0.39827 0.5054 0.0
C1354 C 0.8301 0.39899 0.48541 0.0
C1355 C 0.78584 0.37815 0.49523 0.0
C1356 C 0.81078 0.42176 0.50525 0.0
C1357 C 0.81255 0.43048 0.53481 0.0
C1358 C 0.81642 0.45327 0.54002 0.0
C1359 C 0.81952 0.46782 0.51442 0.0
C1360 C 0.81923 0.4596 0.48414 0.0
C1361 C 0.81373 0.43598 0.47963 0.0
H1362 H 0.40491 0.8544 0.93257 0.0
H1363 H 0.33678 0.81491 0.97799 0.0
H1364 H 0.35389 0.79887 0.01495 0.0
H1365 H 0.42633 0.81044 0.94881 0.0
H1366 H 0.45596 0.8344 0.95526 0.0
H1367 H 0.43719 0.83769 0.92757 0.0
H1368 H 0.44375 0.87547 0.95584 0.0
H1369 H 0.46239 0.87227 0.9835 0.0
H1370 H 0.43702 0.87393 0.99649 0.0
H1371 H 0.37958 0.79505 0.05342 0.0
H1372 H 0.41185 0.80361 0.09005 0.0
H1373 H 0.46353 0.84439 0.01985 0.0
C1374 C 0.39334 0.84162 0.94951 0.0
C1375 C 0.36947 0.83583 0.9523 0.0
C1376 C 0.35508 0.81952 0.97529 0.0
C1377 C 0.36464 0.81021 0.9963 0.0
C1378 C 0.38853 0.81714 0.99382 0.0
C1379 C 0.40266 0.83228 0.97073 0.0
C1380 C 0.42844 0.83984 0.97584 0.0
C1381 C 0.43751 0.83 0.95035 0.0
C1382 C 0.44377 0.86697 0.97807 0.0
C1383 C 0.42683 0.828 0.00655 0.0
C1384 C 0.40356 0.81449 0.01613 0.0
C1385 C 0.39777 0.80479 0.04573 0.0
C1386 C 0.41616 0.8097 0.06638 0.0
C1387 C 0.43997 0.82397 0.05723 0.0
C1388 C 0.4454 0.83253 0.02671 0.0
H1389 H 0.53367 0.39554 0.45201 0.0
H1390 H 0.57273 0.43149 0.36943 0.0
H1391 H 0.60842 0.45505 0.40076 0.0
H1392 H 0.55256 0.44298 0.49459 0.0
H1393 H 0.5548 0.43094 0.5311 0.0
H1394 H 0.53489 0.41171 0.50218 0.0
H1395 H 0.55508 0.38619 0.50364 0.0
H1396 H 0.57504 0.40531 0.533 0.0
H1397 H 0.58657 0.39998 0.49796 0.0
H1398 H 0.63617 0.48091 0.44088 0.0
H1399 H 0.65325 0.50677 0.48626 0.0
H1400 H 0.5963 0.4546 0.54322 0.0
C1401 C 0.55006 0.40752 0.44041 0.0
C1402 C 0.55052 0.41162 0.40836 0.0
C1403 C 0.57205 0.42803 0.39401 0.0
C1404 C 0.59247 0.4414 0.4116 0.0
C1405 C 0.59111 0.43803 0.44349 0.0
C1406 C 0.57051 0.42123 0.45776 0.0
C1407 C 0.57231 0.4239 0.49254 0.0
C1408 C 0.55249 0.42762 0.50584 0.0
C1409 C 0.57226 0.40258 0.50767 0.0
C1410 C 0.59629 0.44595 0.49541 0.0
C1411 C 0.60723 0.45338 0.46698 0.0
C1412 C 0.62812 0.47493 0.4634 0.0
C1413 C 0.63767 0.48958 0.48929 0.0
C1414 C 0.6261 0.48272 0.51827 0.0
C1415 C 0.60571 0.46023 0.52144 0.0
H1416 H 0.17685 0.5224 0.9928 0.0
H1417 H 0.17229 0.5525 0.90575 0.0
H1418 H 0.18488 0.59069 0.9314 0.0
H1419 H 0.14869 0.54298 0.03321 0.0
H1420 H 0.16501 0.54913 0.06883 0.0
H1421 H 0.16406 0.52731 0.04288 0.0
H1422 H 0.20979 0.54939 0.04046 0.0
H1423 H 0.21093 0.57131 0.06684 0.0
H1424 H 0.2258 0.58025 0.03004 0.0
H1425 H 0.18839 0.62171 0.96732 0.0
H1426 H 0.18082 0.6419 0.01023 0.0
H1427 H 0.18126 0.59123 0.07473 0.0
C1428 C 0.17985 0.53747 0.97896 0.0
C1429 C 0.17412 0.53479 0.94731 0.0
C1430 C 0.17699 0.55443 0.93 0.0
C1431 C 0.18423 0.5762 0.94437 0.0
C1432 C 0.18841 0.578 0.9761 0.0
C1433 C 0.1865 0.55916 0.9932 0.0
C1434 C 0.18723 0.56395 0.02753 0.0
C1435 C 0.16492 0.54472 0.04403 0.0
C1436 C 0.20979 0.56637 0.04207 0.0
C1437 C 0.18794 0.58749 0.02705 0.0
C1438 C 0.18954 0.59575 -0.00277 0.0
C1439 C 0.18775 0.61575 0.99083 0.0
C1440 C 0.1834 0.62711 0.01536 0.0
C1441 C 0.18041 0.61811 0.04581 0.0
C1442 C 0.18366 0.59864 0.05172 0.0
H1443 H 0.50854 0.14179 0.46248 0.0
H1444 H 0.5389 0.16005 0.55402 0.0
H1445 H 0.57721 0.16705 0.53341 0.0
H1446 H 0.53168 0.10726 0.44529 0.0
H1447 H 0.53711 0.11443 0.40479 0.0
H1448 H 0.5144 0.11725 0.4244 0.0
H1449 H 0.53386 0.16117 0.40774 0.0
H1450 H 0.55658 0.15843 0.38767 0.0
H1451 H 0.56454 0.18109 0.41646 0.0
H1452 H 0.60976 0.16579 0.50493 0.0
H1453 H 0.63327 0.15455 0.47156 0.0
H1454 H 0.58071 0.13444 0.39923 0.0
C1455 C 0.52367 0.14841 0.47772 0.0
C1456 C 0.52123 0.15113 0.50953 0.0
C1457 C 0.54081 0.15848 0.52941 0.0
C1458 C 0.56258 0.16251 0.51789 0.0
C1459 C 0.56429 0.15881 0.48651 0.0
C1460 C 0.54535 0.15195 0.46665 0.0
C1461 C 0.55048 0.14532 0.43525 0.0
C1462 C 0.53235 0.11954 0.42698 0.0
C1463 C 0.55143 0.16254 0.41031 0.0
C1464 C 0.57473 0.14843 0.44101 0.0
C1465 C 0.58269 0.15687 0.4704 0.0
C1466 C 0.6039 0.15956 0.48167 0.0
C1467 C 0.61712 0.15308 0.4626 0.0
C1468 C 0.60878 0.14356 0.43286 0.0
C1469 C 0.58757 0.14172 0.42184 0.0
H1470 H 0.5596 0.43398 0.03547 0.0
H1471 H 0.56468 0.37682 0.99197 0.0
H1472 H 0.60517 0.40571 0.97396 0.0
H1473 H 0.58367 0.47293 0.97624 0.0
H1474 H 0.59851 0.49886 0.00023 0.0
H1475 H 0.57249 0.4732 0.01426 0.0
H1476 H 0.59572 0.47233 0.06236 0.0
H1477 H 0.62198 0.49799 0.04822 0.0
H1478 H 0.62263 0.47137 0.05727 0.0
H1479 H 0.64325 0.44213 0.95545 0.0
H1480 H 0.67213 0.48154 0.93429 0.0
H1481 H 0.64004 0.51357 0.98879 0.0
C1482 C 0.56929 0.42727 0.02273 0.0
C1483 C 0.55896 0.40307 0.01521 0.0
C1484 C 0.57229 0.39527 -0.00185 0.0
C1485 C 0.59533 0.41155 0.988 0.0
C1486 C 0.60474 0.43544 0.99537 0.0
C1487 C 0.59198 0.44316 0.01238 0.0
C1488 C 0.60431 0.46978 0.01411 0.0
C1489 C 0.58883 0.47923 0.00037 0.0
C1490 C 0.6116 0.47836 0.04748 0.0
C1491 C 0.62562 0.47609 0.99421 0.0
C1492 C 0.62608 0.45616 0.98429 0.0
C1493 C 0.64327 0.45781 0.96359 0.0
C1494 C 0.6597 0.48023 0.95186 0.0
C1495 C 0.65836 0.50041 0.96045 0.0
C1496 C 0.64164 0.49837 0.98254 0.0
H1497 H 0.1428 0.59089 0.44426 0.0
H1498 H 0.14345 0.63973 0.51261 0.0
H1499 H 0.15404 0.61976 0.55288 0.0
H1500 H 0.1138 0.54202 0.48603 0.0
H1501 H 0.12946 0.52743 0.47292 0.0
H1502 H 0.12813 0.54904 0.44879 0.0
H1503 H 0.17389 0.57287 0.44605 0.0
H1504 H 0.17535 0.55119 0.47035 0.0
H1505 H 0.19086 0.58193 0.48124 0.0
H1506 H 0.15507 0.58936 0.58658 0.0
H1507 H 0.14645 0.55159 0.61056 0.0
H1508 H 0.14652 0.52314 0.52019 0.0
C1509 C 0.14591 0.59788 0.46754 0.0
C1510 C 0.14225 0.6168 0.47539 0.0
C1511 C 0.14632 0.62535 0.50608 0.0
C1512 C 0.15243 0.61416 0.52905 0.0
C1513 C 0.1549 0.59484 0.52074 0.0
C1514 C 0.15212 0.58702 0.49054 0.0
C1515 C 0.15246 0.56407 0.48809 0.0
C1516 C 0.12961 0.54451 0.47311 0.0
C1517 C 0.17446 0.56775 0.47039 0.0
C1518 C 0.15398 0.55915 0.52189 0.0
C1519 C 0.15601 0.5774 0.54033 0.0
C1520 C 0.15424 0.57532 0.5724 0.0
C1521 C 0.14928 0.55377 0.58582 0.0
C1522 C 0.14608 0.53458 0.56718 0.0
C1523 C 0.14959 0.53775 0.53501 0.0
H1524 H 0.60495 0.14846 0.02775 0.0
H1525 H 0.64721 0.12991 0.96937 0.0
H1526 H 0.62786 0.13483 0.92315 0.0
H1527 H 0.55368 0.11661 0.99111 0.0
H1528 H 0.5429 0.13708 0.99492 0.0
H1529 H 0.56371 0.13763 0.02239 0.0
H1530 H 0.59222 0.18196 0.01065 0.0
H1531 H 0.57131 0.18163 0.98318 0.0
H1532 H 0.60128 0.19138 0.97139 0.0
H1533 H 0.59791 0.13277 0.88531 0.0
H1534 H 0.56167 0.12629 0.85881 0.0
H1535 H 0.54006 0.14793 0.94152 0.0
C1536 C 0.61072 0.14623 0.00516 0.0
C1537 C 0.62755 0.13881 0.00208 0.0
C1538 C 0.63451 0.13583 0.97222 0.0
C1539 C 0.62361 0.1386 0.94585 0.0
C1540 C 0.60622 0.14486 0.94979 0.0
C1541 C 0.60019 0.14914 0.97873 0.0
C1542 C 0.57921 0.153 0.97724 0.0
C1543 C 0.55868 0.135 -0.0024 0.0
C1544 C 0.58645 0.17851 0.98614 0.0
C1545 C 0.57332 0.14865 0.94326 0.0
C1546 C 0.58932 0.14436 0.92767 0.0
C1547 C 0.58571 0.13683 0.89702 0.0
C1548 C 0.56503 0.13309 0.88219 0.0
C1549 C 0.54825 0.13692 0.89802 0.0
C1550 C 0.5529 0.14552 0.92858 0.0
H1551 H 0.45218 0.63141 0.52239 0.0
H1552 H 0.40327 0.59921 0.5985 0.0
H1553 H 0.36998 0.58112 0.56184 0.0
H1554 H 0.40949 0.63764 0.46662 0.0
H1555 H 0.4214 0.6295 0.43436 0.0
H1556 H 0.44026 0.64585 0.46625 0.0
H1557 H 0.45197 0.61361 0.47318 0.0
H1558 H 0.43322 0.59724 0.44156 0.0
H1559 H 0.42912 0.58329 0.47878 0.0
H1560 H 0.3438 0.55987 0.5182 0.0
H1561 H 0.32735 0.53549 0.47159 0.0
H1562 H 0.39302 0.58007 0.42281 0.0
C1563 C 0.4343 0.62153 0.53123 0.0
C1564 C 0.4301 0.61702 0.56314 0.0
C1565 C 0.40669 0.60308 0.57407 0.0
C1566 C 0.38768 0.59286 0.55342 0.0
C1567 C 0.39241 0.59665 0.52188 0.0
C1568 C 0.41517 0.61076 0.51077 0.0
C1569 C 0.41608 0.60841 0.47603 0.0
C1570 C 0.42216 0.63174 0.45986 0.0
C1571 C 0.43361 0.60013 0.46689 0.0
C1572 C 0.39072 0.58956 0.4697 0.0
C1573 C 0.37717 0.58364 0.49628 0.0
C1574 C 0.35404 0.56474 0.49706 0.0
C1575 C 0.34484 0.55092 0.47044 0.0
C1576 C 0.35886 0.55588 0.4435 0.0
C1577 C 0.38169 0.57609 0.44284 0.0
H1578 H 0.87167 0.35608 -0.00013 0.0
H1579 H 0.87271 0.38547 0.90979 0.0
H1580 H 0.85999 0.41178 0.93318 0.0
H1581 H 0.8223 0.36394 0.03561 0.0
H1582 H 0.83766 0.37236 0.07204 0.0
H1583 H 0.84008 0.35132 0.04757 0.0
H1584 H 0.8857 0.37747 0.04846 0.0
H1585 H 0.88345 0.3986 0.07258 0.0
H1586 H 0.89917 0.40793 0.03639 0.0
H1587 H 0.85487 0.43977 0.96668 0.0
H1588 H 0.8593 0.46801 0.0076 0.0
H1589 H 0.86328 0.42169 0.07631 0.0
C1590 C 0.86806 0.36724 0.98501 0.0
C1591 C 0.87269 0.36852 0.95306 0.0
C1592 C 0.86892 0.38409 0.93432 0.0
C1593 C 0.8616 0.39901 0.94739 0.0
C1594 C 0.85824 0.3982 0.97925 0.0
C1595 C 0.86123 0.38261 -0.00215 0.0
C1596 C 0.86053 0.388 0.03173 0.0
C1597 C 0.83885 0.3677 0.04767 0.0
C1598 C 0.88358 0.39333 0.04822 0.0
C1599 C 0.85814 0.40984 0.02922 0.0
C1600 C 0.85611 0.41503 -0.00118 0.0
C1601 C 0.85592 0.43561 0.99063 0.0
C1602 C 0.8585 0.4516 0.01402 0.0
C1603 C 0.86165 0.44708 0.04514 0.0
C1604 C 0.86073 0.42557 0.05276 0.0
H1605 H 0.46707 0.90678 0.50643 0.0
H1606 H 0.43063 0.83048 0.49915 0.0
H1607 H 0.39592 0.82805 0.52624 0.0
H1608 H 0.44249 0.90879 0.58411 0.0
H1609 H 0.44132 0.93489 0.57352 0.0
H1610 H 0.46392 0.92987 0.5575 0.0
H1611 H 0.45076 0.93378 0.50239 0.0
H1612 H 0.42784 0.9383 0.51812 0.0
H1613 H 0.42048 0.91474 0.49093 0.0
H1614 H 0.36303 0.83508 0.54585 0.0
H1615 H 0.33696 0.85034 0.56323 0.0
H1616 H 0.39652 0.92185 0.56032 0.0
C1617 C 0.45206 0.88954 0.51153 0.0
C1618 C 0.45141 0.86879 0.50108 0.0
C1619 C 0.43147 0.8465 0.50757 0.0
C1620 C 0.41169 0.84502 0.5227 0.0
C1621 C 0.41253 0.86597 0.5317 0.0
C1622 C 0.43251 0.88777 0.52708 0.0
C1623 C 0.42878 0.90775 0.53754 0.0
C1624 C 0.44509 0.92111 0.5648 0.0
C1625 C 0.43216 0.92462 0.51064 0.0
C1626 C 0.40325 0.89394 0.54762 0.0
C1627 C 0.39407 0.86987 0.54407 0.0
C1628 C 0.37021 0.85384 0.54943 0.0
C1629 C 0.3555 0.86266 0.55903 0.0
C1630 C 0.36482 0.88723 0.56342 0.0
C1631 C 0.38901 0.90293 0.55773 0.0
loop_
_geom_bond_atom_site_label_1
_geom_bond_atom_site_label_2
_geom_bond_distance
_geom_bond_site_symmetry_2
_ccdc_geom_bond_type
Zn0 O3 2.031 . S
Zn0 O5 2.049 . S
Zn0 O10 2.067 . S
Zn1 O2 1.962 . S
Zn1 O4 1.986 . S
Zn1 O6 1.996 . S
Zn1 O9 1.943 . S
O2 Zn1 1.962 . S
O2 C7 1.254 . S
O3 Zn0 2.031 . S
O3 C7 1.269 . S
O4 Zn1 1.986 . S
O4 C11 1.262 . S
O5 Zn0 2.049 . S
O5 C13 1.260 . S
O6 Zn1 1.996 . S
O6 C13 1.257 . S
C7 O2 1.254 . S
C7 O3 1.269 . S
C8 O9 1.249 . S
C8 O10 1.270 . S
O9 Zn1 1.943 . S
O9 C8 1.249 . S
O10 Zn0 2.067 . S
O10 C8 1.270 . S
C11 O4 1.262 . S
C11 O12 1.232 . S
O12 C11 1.232 . S
C13 O5 1.260 . S
C13 O6 1.257 . S
Zn14 O17 2.031 . S
Zn14 O19 2.049 . S
Zn14 O24 2.067 . S
Zn15 O16 1.962 . S
Zn15 O18 1.986 . S
Zn15 O20 1.996 . S
Zn15 O23 1.943 . S
O16 Zn15 1.962 . S
O16 C21 1.254 . S
O17 Zn14 2.031 . S
O17 C21 1.269 . S
O18 Zn15 1.986 . S
O18 C25 1.262 . S
O19 Zn14 2.049 . S
O19 C27 1.260 . S
O20 Zn15 1.996 . S
O20 C27 1.257 . S
C21 O16 1.254 . S
C21 O17 1.269 . S
C22 O23 1.249 . S
C22 O24 1.270 . S
O23 Zn15 1.943 . S
O23 C22 1.249 . S
O24 Zn14 2.067 . S
O24 C22 1.270 . S
C25 O18 1.262 . S
C25 O26 1.232 . S
O26 C25 1.232 . S
C27 O19 1.260 . S
C27 O20 1.257 . S
Zn28 O31 2.031 . S
Zn28 O33 2.049 . S
Zn28 O38 2.067 . S
Zn29 O30 1.962 . S
Zn29 O32 1.986 . S
Zn29 O34 1.996 . S
Zn29 O37 1.943 . S
O30 Zn29 1.962 . S
O30 C35 1.254 . S
O31 Zn28 2.031 . S
O31 C35 1.269 . S
O32 Zn29 1.986 . S
O32 C39 1.262 . S
O33 Zn28 2.049 . S
O33 C41 1.260 . S
O34 Zn29 1.996 . S
O34 C41 1.257 . S
C35 O30 1.254 . S
C35 O31 1.269 . S
C36 O37 1.249 . S
C36 O38 1.270 . S
O37 Zn29 1.943 . S
O37 C36 1.249 . S
O38 Zn28 2.067 . S
O38 C36 1.270 . S
C39 O32 1.262 . S
C39 O40 1.232 . S
O40 C39 1.232 . S
C41 O33 1.260 . S
C41 O34 1.257 . S
Zn42 O45 2.031 . S
Zn42 O47 2.049 . S
Zn42 O52 2.067 . S
Zn43 O44 1.962 . S
Zn43 O46 1.986 . S
Zn43 O48 1.996 . S
Zn43 O51 1.943 . S
O44 Zn43 1.962 . S
O44 C49 1.254 . S
O45 Zn42 2.031 . S
O45 C49 1.269 . S
O46 Zn43 1.986 . S
O46 C53 1.262 . S
O47 Zn42 2.049 . S
O47 C55 1.260 . S
O48 Zn43 1.996 . S
O48 C55 1.257 . S
C49 O44 1.254 . S
C49 O45 1.269 . S
C50 O51 1.249 . S
C50 O52 1.270 . S
O51 Zn43 1.943 . S
O51 C50 1.249 . S
O52 Zn42 2.067 . S
O52 C50 1.270 . S
C53 O46 1.262 . S
C53 O54 1.232 . S
O54 C53 1.232 . S
C55 O47 1.260 . S
C55 O48 1.257 . S
Zn56 O59 2.031 . S
Zn56 O61 2.049 . S
Zn56 O66 2.067 . S
Zn57 O58 1.962 . S
Zn57 O60 1.986 . S
Zn57 O62 1.996 . S
Zn57 O65 1.943 . S
O58 Zn57 1.962 . S
O58 C63 1.254 . S
O59 Zn56 2.031 . S
O59 C63 1.269 . S
O60 Zn57 1.986 . S
O60 C67 1.262 . S
O61 Zn56 2.049 . S
O61 C69 1.260 . S
O62 Zn57 1.996 . S
O62 C69 1.257 . S
C63 O58 1.254 . S
C63 O59 1.269 . S
C64 O65 1.249 . S
C64 O66 1.270 . S
O65 Zn57 1.943 . S
O65 C64 1.249 . S
O66 Zn56 2.067 . S
O66 C64 1.270 . S
C67 O60 1.262 . S
C67 O68 1.232 . S
O68 C67 1.232 . S
C69 O61 1.260 . S
C69 O62 1.257 . S
Zn70 O73 2.031 . S
Zn70 O75 2.049 . S
Zn70 O80 2.067 . S
Zn71 O72 1.962 . S
Zn71 O74 1.986 . S
Zn71 O76 1.996 . S
Zn71 O79 1.943 . S
O72 Zn71 1.962 . S
O72 C77 1.254 . S
O73 Zn70 2.031 . S
O73 C77 1.269 . S
O74 Zn71 1.986 . S
O74 C81 1.262 . S
O75 Zn70 2.049 . S
O75 C83 1.260 . S
O76 Zn71 1.996 . S
O76 C83 1.257 . S
C77 O72 1.254 . S
C77 O73 1.269 . S
C78 O79 1.249 . S
C78 O80 1.270 . S
O79 Zn71 1.943 . S
O79 C78 1.249 . S
O80 Zn70 2.067 . S
O80 C78 1.270 . S
C81 O74 1.262 . S
C81 O82 1.232 . S
O82 C81 1.232 . S
C83 O75 1.260 . S
C83 O76 1.257 . S
Zn84 O87 2.031 . S
Zn84 O89 2.049 . S
Zn84 O94 2.067 . S
Zn85 O86 1.962 . S
Zn85 O88 1.986 . S
Zn85 O90 1.996 . S
Zn85 O93 1.943 . S
O86 Zn85 1.962 . S
O86 C91 1.254 . S
O87 Zn84 2.031 . S
O87 C91 1.269 . S
O88 Zn85 1.986 . S
O88 C95 1.262 . S
O89 Zn84 2.049 . S
O89 C97 1.260 . S
O90 Zn85 1.996 . S
O90 C97 1.257 . S
C91 O86 1.254 . S
C91 O87 1.269 . S
C92 O93 1.249 . S
C92 O94 1.270 . S
O93 Zn85 1.943 . S
O93 C92 1.249 . S
O94 Zn84 2.067 . S
O94 C92 1.270 . S
C95 O88 1.262 . S
C95 O96 1.232 . S
O96 C95 1.232 . S
C97 O89 1.260 . S
C97 O90 1.257 . S
Zn98 O101 2.031 . S
Zn98 O103 2.049 . S
Zn98 O108 2.067 . S
Zn99 O100 1.962 . S
Zn99 O102 1.986 . S
Zn99 O104 1.996 . S
Zn99 O107 1.943 . S
O100 Zn99 1.962 . S
O100 C105 1.254 . S
O101 Zn98 2.031 . S
O101 C105 1.269 . S
O102 Zn99 1.986 . S
O102 C109 1.262 . S
O103 Zn98 2.049 . S
O103 C111 1.260 . S
O104 Zn99 1.996 . S
O104 C111 1.257 . S
C105 O100 1.254 . S
C105 O101 1.269 . S
C106 O107 1.249 . S
C106 O108 1.270 . S
O107 Zn99 1.943 . S
O107 C106 1.249 . S
O108 Zn98 2.067 . S
O108 C106 1.270 . S
C109 O102 1.262 . S
C109 O110 1.232 . S
O110 C109 1.232 . S
C111 O103 1.260 . S
C111 O104 1.257 . S
Zn112 O115 2.031 . S
Zn112 O117 2.049 . S
Zn112 O122 2.067 . S
Zn113 O114 1.962 . S
Zn113 O116 1.986 . S
Zn113 O118 1.996 . S
Zn113 O121 1.943 . S
O114 Zn113 1.962 . S
O114 C119 1.254 . S
O115 Zn112 2.031 . S
O115 C119 1.269 . S
O116 Zn113 1.986 . S
O116 C123 1.262 . S
O117 Zn112 2.049 . S
O117 C125 1.260 . S
O118 Zn113 1.996 . S
O118 C125 1.257 . S
C119 O114 1.254 . S
C119 O115 1.269 . S
C120 O121 1.249 . S
C120 O122 1.270 . S
O121 Zn113 1.943 . S
O121 C120 1.249 . S
O122 Zn112 2.067 . S
O122 C120 1.270 . S
C123 O116 1.262 . S
C123 O124 1.232 . S
O124 C123 1.232 . S
C125 O117 1.260 . S
C125 O118 1.257 . S
Zn126 O129 2.031 . S
Zn126 O131 2.049 . S
Zn126 O136 2.067 . S
Zn127 O128 1.962 . S
Zn127 O130 1.986 . S
Zn127 O132 1.996 . S
Zn127 O135 1.943 . S
O128 Zn127 1.962 . S
O128 C133 1.254 . S
O129 Zn126 2.031 . S
O129 C133 1.269 . S
O130 Zn127 1.986 . S
O130 C137 1.262 . S
O131 Zn126 2.049 . S
O131 C139 1.260 . S
O132 Zn127 1.996 . S
O132 C139 1.257 . S
C133 O128 1.254 . S
C133 O129 1.269 . S
C134 O135 1.249 . S
C134 O136 1.270 . S
O135 Zn127 1.943 . S
O135 C134 1.249 . S
O136 Zn126 2.067 . S
O136 C134 1.270 . S
C137 O130 1.262 . S
C137 O138 1.232 . S
O138 C137 1.232 . S
C139 O131 1.260 . S
C139 O132 1.257 . S
Zn140 O143 2.031 . S
Zn140 O145 2.049 . S
Zn140 O150 2.067 . S
Zn141 O142 1.962 . S
Zn141 O144 1.986 . S
Zn141 O146 1.996 . S
Zn141 O149 1.943 . S
O142 Zn141 1.962 . S
O142 C147 1.254 . S
O143 Zn140 2.031 . S
O143 C147 1.269 . S
O144 Zn141 1.986 . S
O144 C151 1.262 . S
O145 Zn140 2.049 . S
O145 C153 1.260 . S
O146 Zn141 1.996 . S
O146 C153 1.257 . S
C147 O142 1.254 . S
C147 O143 1.269 . S
C148 O149 1.249 . S
C148 O150 1.270 . S
O149 Zn141 1.943 . S
O149 C148 1.249 . S
O150 Zn140 2.067 . S
O150 C148 1.270 . S
C151 O144 1.262 . S
C151 O152 1.232 . S
O152 C151 1.232 . S
C153 O145 1.260 . S
C153 O146 1.257 . S
Zn154 O157 2.031 . S
Zn154 O159 2.049 . S
Zn154 O164 2.067 . S
Zn155 O156 1.962 . S
Zn155 O158 1.986 . S
Zn155 O160 1.996 . S
Zn155 O163 1.943 . S
O156 Zn155 1.962 . S
O156 C161 1.254 . S
O157 Zn154 2.031 . S
O157 C161 1.269 . S
O158 Zn155 1.986 . S
O158 C165 1.262 . S
O159 Zn154 2.049 . S
O159 C167 1.260 . S
O160 Zn155 1.996 . S
O160 C167 1.257 . S
C161 O156 1.254 . S
C161 O157 1.269 . S
C162 O163 1.249 . S
C162 O164 1.270 . S
O163 Zn155 1.943 . S
O163 C162 1.249 . S
O164 Zn154 2.067 . S
O164 C162 1.270 . S
C165 O158 1.262 . S
C165 O166 1.232 . S
O166 C165 1.232 . S
C167 O159 1.260 . S
C167 O160 1.257 . S
Zn168 O171 2.031 . S
Zn168 O173 2.049 . S
Zn168 O178 2.067 . S
Zn169 O170 1.962 . S
Zn169 O172 1.986 . S
Zn169 O174 1.996 . S
Zn169 O177 1.943 . S
O170 Zn169 1.962 . S
O170 C175 1.254 . S
O171 Zn168 2.031 . S
O171 C175 1.269 . S
O172 Zn169 1.986 . S
O172 C179 1.262 . S
O173 Zn168 2.049 . S
O173 C181 1.260 . S
O174 Zn169 1.996 . S
O174 C181 1.257 . S
C175 O170 1.254 . S
C175 O171 1.269 . S
C176 O177 1.249 . S
C176 O178 1.270 . S
O177 Zn169 1.943 . S
O177 C176 1.249 . S
O178 Zn168 2.067 . S
O178 C176 1.270 . S
C179 O172 1.262 . S
C179 O180 1.232 . S
O180 C179 1.232 . S
C181 O173 1.260 . S
C181 O174 1.257 . S
Zn182 O185 2.031 . S
Zn182 O187 2.049 . S
Zn182 O192 2.067 . S
Zn183 O184 1.962 . S
Zn183 O186 1.986 . S
Zn183 O188 1.996 . S
Zn183 O191 1.943 . S
O184 Zn183 1.962 . S
O184 C189 1.254 . S
O185 Zn182 2.031 . S
O185 C189 1.269 . S
O186 Zn183 1.986 . S
O186 C193 1.262 . S
O187 Zn182 2.049 . S
O187 C195 1.260 . S
O188 Zn183 1.996 . S
O188 C195 1.257 . S
C189 O184 1.254 . S
C189 O185 1.269 . S
C190 O191 1.249 . S
C190 O192 1.270 . S
O191 Zn183 1.943 . S
O191 C190 1.249 . S
O192 Zn182 2.067 . S
O192 C190 1.270 . S
C193 O186 1.262 . S
C193 O194 1.232 . S
O194 C193 1.232 . S
C195 O187 1.260 . S
C195 O188 1.257 . S
Zn196 O199 2.031 . S
Zn196 O201 2.049 . S
Zn196 O206 2.067 . S
Zn197 O198 1.962 . S
Zn197 O200 1.986 . S
Zn197 O202 1.996 . S
Zn197 O205 1.943 . S
O198 Zn197 1.962 . S
O198 C203 1.254 . S
O199 Zn196 2.031 . S
O199 C203 1.269 . S
O200 Zn197 1.986 . S
O200 C207 1.262 . S
O201 Zn196 2.049 . S
O201 C209 1.260 . S
O202 Zn197 1.996 . S
O202 C209 1.257 . S
C203 O198 1.254 . S
C203 O199 1.269 . S
C204 O205 1.249 . S
C204 O206 1.270 . S
O205 Zn197 1.943 . S
O205 C204 1.249 . S
O206 Zn196 2.067 . S
O206 C204 1.270 . S
C207 O200 1.262 . S
C207 O208 1.232 . S
O208 C207 1.232 . S
C209 O201 1.260 . S
C209 O202 1.257 . S
Zn210 O213 2.031 . S
Zn210 O215 2.049 . S
Zn210 O220 2.067 . S
Zn211 O212 1.962 . S
Zn211 O214 1.986 . S
Zn211 O216 1.996 . S
Zn211 O219 1.943 . S
O212 Zn211 1.962 . S
O212 C217 1.254 . S
O213 Zn210 2.031 . S
O213 C217 1.269 . S
O214 Zn211 1.986 . S
O214 C221 1.262 . S
O215 Zn210 2.049 . S
O215 C223 1.260 . S
O216 Zn211 1.996 . S
O216 C223 1.257 . S
C217 O212 1.254 . S
C217 O213 1.269 . S
C218 O219 1.249 . S
C218 O220 1.270 . S
O219 Zn211 1.943 . S
O219 C218 1.249 . S
O220 Zn210 2.067 . S
O220 C218 1.270 . S
C221 O214 1.262 . S
C221 O222 1.232 . S
O222 C221 1.232 . S
C223 O215 1.260 . S
C223 O216 1.257 . S
Zn224 O227 2.031 . S
Zn224 O229 2.049 . S
Zn224 O234 2.067 . S
Zn225 O226 1.962 . S
Zn225 O228 1.986 . S
Zn225 O230 1.996 . S
Zn225 O233 1.943 . S
O226 Zn225 1.962 . S
O226 C231 1.254 . S
O227 Zn224 2.031 . S
O227 C231 1.269 . S
O228 Zn225 1.986 . S
O228 C235 1.262 . S
O229 Zn224 2.049 . S
O229 C237 1.260 . S
O230 Zn225 1.996 . S
O230 C237 1.257 . S
C231 O226 1.254 . S
C231 O227 1.269 . S
C232 O233 1.249 . S
C232 O234 1.270 . S
O233 Zn225 1.943 . S
O233 C232 1.249 . S
O234 Zn224 2.067 . S
O234 C232 1.270 . S
C235 O228 1.262 . S
C235 O236 1.232 . S
O236 C235 1.232 . S
C237 O229 1.260 . S
C237 O230 1.257 . S
Zn238 O241 2.031 . S
Zn238 O243 2.049 . S
Zn238 O248 2.067 . S
Zn239 O240 1.962 . S
Zn239 O242 1.986 . S
Zn239 O244 1.996 . S
Zn239 O247 1.943 . S
O240 Zn239 1.962 . S
O240 C245 1.254 . S
O241 Zn238 2.031 . S
O241 C245 1.269 . S
O242 Zn239 1.986 . S
O242 C249 1.262 . S
O243 Zn238 2.049 . S
O243 C251 1.260 . S
O244 Zn239 1.996 . S
O244 C251 1.257 . S
C245 O240 1.254 . S
C245 O241 1.269 . S
C246 O247 1.249 . S
C246 O248 1.270 . S
O247 Zn239 1.943 . S
O247 C246 1.249 . S
O248 Zn238 2.067 . S
O248 C246 1.270 . S
C249 O242 1.262 . S
C249 O250 1.232 . S
O250 C249 1.232 . S
C251 O243 1.260 . S
C251 O244 1.257 . S
Zn252 O255 2.031 . S
Zn252 O257 2.049 . S
Zn252 O262 2.067 . S
Zn253 O254 1.962 . S
Zn253 O256 1.986 . S
Zn253 O258 1.996 . S
Zn253 O261 1.943 . S
O254 Zn253 1.962 . S
O254 C259 1.254 . S
O255 Zn252 2.031 . S
O255 C259 1.269 . S
O256 Zn253 1.986 . S
O256 C263 1.262 . S
O257 Zn252 2.049 . S
O257 C265 1.260 . S
O258 Zn253 1.996 . S
O258 C265 1.257 . S
C259 O254 1.254 . S
C259 O255 1.269 . S
C260 O261 1.249 . S
C260 O262 1.270 . S
O261 Zn253 1.943 . S
O261 C260 1.249 . S
O262 Zn252 2.067 . S
O262 C260 1.270 . S
C263 O256 1.262 . S
C263 O264 1.232 . S
O264 C263 1.232 . S
C265 O257 1.260 . S
C265 O258 1.257 . S
Zn266 O269 2.031 . S
Zn266 O271 2.049 . S
Zn266 O276 2.067 . S
Zn267 O268 1.962 . S
Zn267 O270 1.986 . S
Zn267 O272 1.996 . S
Zn267 O275 1.943 . S
O268 Zn267 1.962 . S
O268 C273 1.254 . S
O269 Zn266 2.031 . S
O269 C273 1.269 . S
O270 Zn267 1.986 . S
O270 C277 1.262 . S
O271 Zn266 2.049 . S
O271 C279 1.260 . S
O272 Zn267 1.996 . S
O272 C279 1.257 . S
C273 O268 1.254 . S
C273 O269 1.269 . S
C274 O275 1.249 . S
C274 O276 1.270 . S
O275 Zn267 1.943 . S
O275 C274 1.249 . S
O276 Zn266 2.067 . S
O276 C274 1.270 . S
C277 O270 1.262 . S
C277 O278 1.232 . S
O278 C277 1.232 . S
C279 O271 1.260 . S
C279 O272 1.257 . S
Zn280 O283 2.031 . S
Zn280 O285 2.049 . S
Zn280 O290 2.067 . S
Zn281 O282 1.962 . S
Zn281 O284 1.986 . S
Zn281 O286 1.996 . S
Zn281 O289 1.943 . S
O282 Zn281 1.962 . S
O282 C287 1.254 . S
O283 Zn280 2.031 . S
O283 C287 1.269 . S
O284 Zn281 1.986 . S
O284 C291 1.262 . S
O285 Zn280 2.049 . S
O285 C293 1.260 . S
O286 Zn281 1.996 . S
O286 C293 1.257 . S
C287 O282 1.254 . S
C287 O283 1.269 . S
C288 O289 1.249 . S
C288 O290 1.270 . S
O289 Zn281 1.943 . S
O289 C288 1.249 . S
O290 Zn280 2.067 . S
O290 C288 1.270 . S
C291 O284 1.262 . S
C291 O292 1.232 . S
O292 C291 1.232 . S
C293 O285 1.260 . S
C293 O286 1.257 . S
Zn294 O297 2.031 . S
Zn294 O299 2.049 . S
Zn294 O304 2.067 . S
Zn295 O296 1.962 . S
Zn295 O298 1.986 . S
Zn295 O300 1.996 . S
Zn295 O303 1.943 . S
O296 Zn295 1.962 . S
O296 C301 1.254 . S
O297 Zn294 2.031 . S
O297 C301 1.269 . S
O298 Zn295 1.986 . S
O298 C305 1.262 . S
O299 Zn294 2.049 . S
O299 C307 1.260 . S
O300 Zn295 1.996 . S
O300 C307 1.257 . S
C301 O296 1.254 . S
C301 O297 1.269 . S
C302 O303 1.249 . S
C302 O304 1.270 . S
O303 Zn295 1.943 . S
O303 C302 1.249 . S
O304 Zn294 2.067 . S
O304 C302 1.270 . S
C305 O298 1.262 . S
C305 O306 1.232 . S
O306 C305 1.232 . S
C307 O299 1.260 . S
C307 O300 1.257 . S
Zn308 O311 2.031 . S
Zn308 O313 2.049 . S
Zn308 O318 2.067 . S
Zn309 O310 1.962 . S
Zn309 O312 1.986 . S
Zn309 O314 1.996 . S
Zn309 O317 1.943 . S
O310 Zn309 1.962 . S
O310 C315 1.254 . S
O311 Zn308 2.031 . S
O311 C315 1.269 . S
O312 Zn309 1.986 . S
O312 C319 1.262 . S
O313 Zn308 2.049 . S
O313 C321 1.260 . S
O314 Zn309 1.996 . S
O314 C321 1.257 . S
C315 O310 1.254 . S
C315 O311 1.269 . S
C316 O317 1.249 . S
C316 O318 1.270 . S
O317 Zn309 1.943 . S
O317 C316 1.249 . S
O318 Zn308 2.067 . S
O318 C316 1.270 . S
C319 O312 1.262 . S
C319 O320 1.232 . S
O320 C319 1.232 . S
C321 O313 1.260 . S
C321 O314 1.257 . S
Zn322 O325 2.031 . S
Zn322 O327 2.049 . S
Zn322 O332 2.067 . S
Zn323 O324 1.962 . S
Zn323 O326 1.986 . S
Zn323 O328 1.996 . S
Zn323 O331 1.943 . S
O324 Zn323 1.962 . S
O324 C329 1.254 . S
O325 Zn322 2.031 . S
O325 C329 1.269 . S
O326 Zn323 1.986 . S
O326 C333 1.262 . S
O327 Zn322 2.049 . S
O327 C335 1.260 . S
O328 Zn323 1.996 . S
O328 C335 1.257 . S
C329 O324 1.254 . S
C329 O325 1.269 . S
C330 O331 1.249 . S
C330 O332 1.270 . S
O331 Zn323 1.943 . S
O331 C330 1.249 . S
O332 Zn322 2.067 . S
O332 C330 1.270 . S
C333 O326 1.262 . S
C333 O334 1.232 . S
O334 C333 1.232 . S
C335 O327 1.260 . S
C335 O328 1.257 . S
H336 C348 0.930 . S
H337 C350 0.930 . S
H338 C351 0.930 . S
H339 C355 0.959 . S
H340 C355 0.959 . S
H341 C355 0.961 . S
H342 C356 0.960 . S
H343 C356 0.961 . S
H344 C356 0.959 . S
H345 C359 0.929 . S
H346 C360 0.931 . S
H347 C362 0.930 . S
C348 H336 0.930 . S
C348 C349 1.399 . S
C348 C353 1.399 . S
C349 C348 1.399 . S
C349 C350 1.376 . S
C350 H337 0.930 . S
C350 C349 1.376 . S
C350 C351 1.388 . S
C351 H338 0.930 . S
C351 C350 1.388 . S
C351 C352 1.390 . S
C352 C351 1.390 . S
C352 C353 1.394 . S
C352 C358 1.465 . S
C353 C348 1.399 . S
C353 C352 1.394 . S
C353 C354 1.516 . S
C354 C353 1.516 . S
C354 C355 1.502 . S
C354 C356 1.561 . S
C354 C357 1.526 . S
C355 H339 0.959 . S
C355 H340 0.959 . S
C355 H341 0.961 . S
C355 C354 1.502 . S
C356 H342 0.960 . S
C356 H343 0.961 . S
C356 H344 0.959 . S
C356 C354 1.561 . S
C357 C354 1.526 . S
C357 C358 1.396 . S
C357 C362 1.390 . S
C358 C352 1.465 . S
C358 C357 1.396 . S
C358 C359 1.399 . S
C359 H345 0.929 . S
C359 C358 1.399 . S
C359 C360 1.385 . S
C360 H346 0.931 . S
C360 C359 1.385 . S
C360 C361 1.389 . S
C361 C360 1.389 . S
C361 C362 1.387 . S
C362 H347 0.930 . S
C362 C357 1.390 . S
C362 C361 1.387 . S
H363 C375 0.930 . S
H364 C377 0.930 . S
H365 C378 0.930 . S
H366 C382 0.959 . S
H367 C382 0.959 . S
H368 C382 0.961 . S
H369 C383 0.960 . S
H370 C383 0.961 . S
H371 C383 0.959 . S
H372 C386 0.929 . S
H373 C387 0.931 . S
H374 C389 0.930 . S
C375 H363 0.930 . S
C375 C376 1.399 . S
C375 C380 1.399 . S
C376 C375 1.399 . S
C376 C377 1.376 . S
C377 H364 0.930 . S
C377 C376 1.376 . S
C377 C378 1.388 . S
C378 H365 0.930 . S
C378 C377 1.388 . S
C378 C379 1.390 . S
C379 C378 1.390 . S
C379 C380 1.394 . S
C379 C385 1.465 . S
C380 C375 1.399 . S
C380 C379 1.394 . S
C380 C381 1.516 . S
C381 C380 1.516 . S
C381 C382 1.502 . S
C381 C383 1.561 . S
C381 C384 1.526 . S
C382 H366 0.959 . S
C382 H367 0.959 . S
C382 H368 0.961 . S
C382 C381 1.502 . S
C383 H369 0.960 . S
C383 H370 0.961 . S
C383 H371 0.959 . S
C383 C381 1.561 . S
C384 C381 1.526 . S
C384 C385 1.396 . S
C384 C389 1.390 . S
C385 C379 1.465 . S
C385 C384 1.396 . S
C385 C386 1.399 . S
C386 H372 0.929 . S
C386 C385 1.399 . S
C386 C387 1.385 . S
C387 H373 0.931 . S
C387 C386 1.385 . S
C387 C388 1.389 . S
C388 C387 1.389 . S
C388 C389 1.387 . S
C389 H374 0.930 . S
C389 C384 1.390 . S
C389 C388 1.387 . S
H390 C402 0.930 . S
H391 C404 0.930 . S
H392 C405 0.930 . S
H393 C409 0.959 . S
H394 C409 0.959 . S
H395 C409 0.961 . S
H396 C410 0.960 . S
H397 C410 0.961 . S
H398 C410 0.959 . S
H399 C413 0.929 . S
H400 C414 0.931 . S
H401 C416 0.930 . S
C402 H390 0.930 . S
C402 C403 1.399 . S
C402 C407 1.399 . S
C403 C402 1.399 . S
C403 C404 1.376 . S
C404 H391 0.930 . S
C404 C403 1.376 . S
C404 C405 1.388 . S
C405 H392 0.930 . S
C405 C404 1.388 . S
C405 C406 1.390 . S
C406 C405 1.390 . S
C406 C407 1.394 . S
C406 C412 1.465 . S
C407 C402 1.399 . S
C407 C406 1.394 . S
C407 C408 1.516 . S
C408 C407 1.516 . S
C408 C409 1.502 . S
C408 C410 1.561 . S
C408 C411 1.526 . S
C409 H393 0.959 . S
C409 H394 0.959 . S
C409 H395 0.961 . S
C409 C408 1.502 . S
C410 H396 0.960 . S
C410 H397 0.961 . S
C410 H398 0.959 . S
C410 C408 1.561 . S
C411 C408 1.526 . S
C411 C412 1.396 . S
C411 C416 1.390 . S
C412 C406 1.465 . S
C412 C411 1.396 . S
C412 C413 1.399 . S
C413 H399 0.929 . S
C413 C412 1.399 . S
C413 C414 1.385 . S
C414 H400 0.931 . S
C414 C413 1.385 . S
C414 C415 1.389 . S
C415 C414 1.389 . S
C415 C416 1.387 . S
C416 H401 0.930 . S
C416 C411 1.390 . S
C416 C415 1.387 . S
H417 C429 0.930 . S
H418 C431 0.930 . S
H419 C432 0.930 . S
H420 C436 0.959 . S
H421 C436 0.959 . S
H422 C436 0.961 . S
H423 C437 0.960 . S
H424 C437 0.961 . S
H425 C437 0.959 . S
H426 C440 0.929 . S
H427 C441 0.931 . S
H428 C443 0.930 . S
C429 H417 0.930 . S
C429 C430 1.399 . S
C429 C434 1.399 . S
C430 C429 1.399 . S
C430 C431 1.376 . S
C431 H418 0.930 . S
C431 C430 1.376 . S
C431 C432 1.388 . S
C432 H419 0.930 . S
C432 C431 1.388 . S
C432 C433 1.390 . S
C433 C432 1.390 . S
C433 C434 1.394 . S
C433 C439 1.465 . S
C434 C429 1.399 . S
C434 C433 1.394 . S
C434 C435 1.516 . S
C435 C434 1.516 . S
C435 C436 1.502 . S
C435 C437 1.561 . S
C435 C438 1.526 . S
C436 H420 0.959 . S
C436 H421 0.959 . S
C436 H422 0.961 . S
C436 C435 1.502 . S
C437 H423 0.960 . S
C437 H424 0.961 . S
C437 H425 0.959 . S
C437 C435 1.561 . S
C438 C435 1.526 . S
C438 C439 1.396 . S
C438 C443 1.390 . S
C439 C433 1.465 . S
C439 C438 1.396 . S
C439 C440 1.399 . S
C440 H426 0.929 . S
C440 C439 1.399 . S
C440 C441 1.385 . S
C441 H427 0.931 . S
C441 C440 1.385 . S
C441 C442 1.389 . S
C442 C441 1.389 . S
C442 C443 1.387 . S
C443 H428 0.930 . S
C443 C438 1.390 . S
C443 C442 1.387 . S
H444 C456 0.930 . S
H445 C458 0.930 . S
H446 C459 0.930 . S
H447 C463 0.959 . S
H448 C463 0.959 . S
H449 C463 0.961 . S
H450 C464 0.960 . S
H451 C464 0.961 . S
H452 C464 0.959 . S
H453 C467 0.929 . S
H454 C468 0.931 . S
H455 C470 0.930 . S
C456 H444 0.930 . S
C456 C457 1.399 . S
C456 C461 1.399 . S
C457 C456 1.399 . S
C457 C458 1.376 . S
C458 H445 0.930 . S
C458 C457 1.376 . S
C458 C459 1.388 . S
C459 H446 0.930 . S
C459 C458 1.388 . S
C459 C460 1.390 . S
C460 C459 1.390 . S
C460 C461 1.394 . S
C460 C466 1.465 . S
C461 C456 1.399 . S
C461 C460 1.394 . S
C461 C462 1.516 . S
C462 C461 1.516 . S
C462 C463 1.502 . S
C462 C464 1.561 . S
C462 C465 1.526 . S
C463 H447 0.959 . S
C463 H448 0.959 . S
C463 H449 0.961 . S
C463 C462 1.502 . S
C464 H450 0.960 . S
C464 H451 0.961 . S
C464 H452 0.959 . S
C464 C462 1.561 . S
C465 C462 1.526 . S
C465 C466 1.396 . S
C465 C470 1.390 . S
C466 C460 1.465 . S
C466 C465 1.396 . S
C466 C467 1.399 . S
C467 H453 0.929 . S
C467 C466 1.399 . S
C467 C468 1.385 . S
C468 H454 0.931 . S
C468 C467 1.385 . S
C468 C469 1.389 . S
C469 C468 1.389 . S
C469 C470 1.387 . S
C470 H455 0.930 . S
C470 C465 1.390 . S
C470 C469 1.387 . S
H471 C483 0.930 . S
H472 C485 0.930 . S
H473 C486 0.930 . S
H474 C490 0.959 . S
H475 C490 0.959 . S
H476 C490 0.961 . S
H477 C491 0.960 . S
H478 C491 0.961 . S
H479 C491 0.959 . S
H480 C494 0.929 . S
H481 C495 0.931 . S
H482 C497 0.930 . S
C483 H471 0.930 . S
C483 C484 1.399 . S
C483 C488 1.399 . S
C484 C483 1.399 . S
C484 C485 1.376 . S
C485 H472 0.930 . S
C485 C484 1.376 . S
C485 C486 1.388 . S
C486 H473 0.930 . S
C486 C485 1.388 . S
C486 C487 1.390 . S
C487 C486 1.390 . S
C487 C488 1.394 . S
C487 C493 1.465 . S
C488 C483 1.399 . S
C488 C487 1.394 . S
C488 C489 1.516 . S
C489 C488 1.516 . S
C489 C490 1.502 . S
C489 C491 1.561 . S
C489 C492 1.526 . S
C490 H474 0.959 . S
C490 H475 0.959 . S
C490 H476 0.961 . S
C490 C489 1.502 . S
C491 H477 0.960 . S
C491 H478 0.961 . S
C491 H479 0.959 . S
C491 C489 1.561 . S
C492 C489 1.526 . S
C492 C493 1.396 . S
C492 C497 1.390 . S
C493 C487 1.465 . S
C493 C492 1.396 . S
C493 C494 1.399 . S
C494 H480 0.929 . S
C494 C493 1.399 . S
C494 C495 1.385 . S
C495 H481 0.931 . S
C495 C494 1.385 . S
C495 C496 1.389 . S
C496 C495 1.389 . S
C496 C497 1.387 . S
C497 H482 0.930 . S
C497 C492 1.390 . S
C497 C496 1.387 . S
H498 C510 0.930 . S
H499 C512 0.930 . S
H500 C513 0.930 . S
H501 C517 0.959 . S
H502 C517 0.959 . S
H503 C517 0.961 . S
H504 C518 0.960 . S
H505 C518 0.961 . S
H506 C518 0.959 . S
H507 C521 0.929 . S
H508 C522 0.931 . S
H509 C524 0.930 . S
C510 H498 0.930 . S
C510 C511 1.399 . S
C510 C515 1.399 . S
C511 C510 1.399 . S
C511 C512 1.376 . S
C512 H499 0.930 . S
C512 C511 1.376 . S
C512 C513 1.388 . S
C513 H500 0.930 . S
C513 C512 1.388 . S
C513 C514 1.390 . S
C514 C513 1.390 . S
C514 C515 1.394 . S
C514 C520 1.465 . S
C515 C510 1.399 . S
C515 C514 1.394 . S
C515 C516 1.516 . S
C516 C515 1.516 . S
C516 C517 1.502 . S
C516 C518 1.561 . S
C516 C519 1.526 . S
C517 H501 0.959 . S
C517 H502 0.959 . S
C517 H503 0.961 . S
C517 C516 1.502 . S
C518 H504 0.960 . S
C518 H505 0.961 . S
C518 H506 0.959 . S
C518 C516 1.561 . S
C519 C516 1.526 . S
C519 C520 1.396 . S
C519 C524 1.390 . S
C520 C514 1.465 . S
C520 C519 1.396 . S
C520 C521 1.399 . S
C521 H507 0.929 . S
C521 C520 1.399 . S
C521 C522 1.385 . S
C522 H508 0.931 . S
C522 C521 1.385 . S
C522 C523 1.389 . S
C523 C522 1.389 . S
C523 C524 1.387 . S
C524 H509 0.930 . S
C524 C519 1.390 . S
C524 C523 1.387 . S
H525 C537 0.930 . S
H526 C539 0.930 . S
H527 C540 0.930 . S
H528 C544 0.959 . S
H529 C544 0.959 . S
H530 C544 0.961 . S
H531 C545 0.960 . S
H532 C545 0.961 . S
H533 C545 0.959 . S
H534 C548 0.929 . S
H535 C549 0.931 . S
H536 C551 0.930 . S
C537 H525 0.930 . S
C537 C538 1.399 . S
C537 C542 1.399 . S
C538 C537 1.399 . S
C538 C539 1.376 . S
C539 H526 0.930 . S
C539 C538 1.376 . S
C539 C540 1.388 . S
C540 H527 0.930 . S
C540 C539 1.388 . S
C540 C541 1.390 . S
C541 C540 1.390 . S
C541 C542 1.394 . S
C541 C547 1.465 . S
C542 C537 1.399 . S
C542 C541 1.394 . S
C542 C543 1.516 . S
C543 C542 1.516 . S
C543 C544 1.502 . S
C543 C545 1.561 . S
C543 C546 1.526 . S
C544 H528 0.959 . S
C544 H529 0.959 . S
C544 H530 0.961 . S
C544 C543 1.502 . S
C545 H531 0.960 . S
C545 H532 0.961 . S
C545 H533 0.959 . S
C545 C543 1.561 . S
C546 C543 1.526 . S
C546 C547 1.396 . S
C546 C551 1.390 . S
C547 C541 1.465 . S
C547 C546 1.396 . S
C547 C548 1.399 . S
C548 H534 0.929 . S
C548 C547 1.399 . S
C548 C549 1.385 . S
C549 H535 0.931 . S
C549 C548 1.385 . S
C549 C550 1.389 . S
C550 C549 1.389 . S
C550 C551 1.387 . S
C551 H536 0.930 . S
C551 C546 1.390 . S
C551 C550 1.387 . S
H552 C564 0.930 . S
H553 C566 0.930 . S
H554 C567 0.930 . S
H555 C571 0.959 . S
H556 C571 0.959 . S
H557 C571 0.961 . S
H558 C572 0.960 . S
H559 C572 0.961 . S
H560 C572 0.959 . S
H561 C575 0.929 . S
H562 C576 0.931 . S
H563 C578 0.930 . S
C564 H552 0.930 . S
C564 C565 1.399 . S
C564 C569 1.399 . S
C565 C564 1.399 . S
C565 C566 1.376 . S
C566 H553 0.930 . S
C566 C565 1.376 . S
C566 C567 1.388 . S
C567 H554 0.930 . S
C567 C566 1.388 . S
C567 C568 1.390 . S
C568 C567 1.390 . S
C568 C569 1.394 . S
C568 C574 1.465 . S
C569 C564 1.399 . S
C569 C568 1.394 . S
C569 C570 1.516 . S
C570 C569 1.516 . S
C570 C571 1.502 . S
C570 C572 1.561 . S
C570 C573 1.526 . S
C571 H555 0.959 . S
C571 H556 0.959 . S
C571 H557 0.961 . S
C571 C570 1.502 . S
C572 H558 0.960 . S
C572 H559 0.961 . S
C572 H560 0.959 . S
C572 C570 1.561 . S
C573 C570 1.526 . S
C573 C574 1.396 . S
C573 C578 1.390 . S
C574 C568 1.465 . S
C574 C573 1.396 . S
C574 C575 1.399 . S
C575 H561 0.929 . S
C575 C574 1.399 . S
C575 C576 1.385 . S
C576 H562 0.931 . S
C576 C575 1.385 . S
C576 C577 1.389 . S
C577 C576 1.389 . S
C577 C578 1.387 . S
C578 H563 0.930 . S
C578 C573 1.390 . S
C578 C577 1.387 . S
H579 C591 0.930 . S
H580 C593 0.930 . S
H581 C594 0.930 . S
H582 C598 0.959 . S
H583 C598 0.959 . S
H584 C598 0.961 . S
H585 C599 0.960 . S
H586 C599 0.961 . S
H587 C599 0.959 . S
H588 C602 0.929 . S
H589 C603 0.931 . S
H590 C605 0.930 . S
C591 H579 0.930 . S
C591 C592 1.399 . S
C591 C596 1.399 . S
C592 C591 1.399 . S
C592 C593 1.376 . S
C593 H580 0.930 . S
C593 C592 1.376 . S
C593 C594 1.388 . S
C594 H581 0.930 . S
C594 C593 1.388 . S
C594 C595 1.390 . S
C595 C594 1.390 . S
C595 C596 1.394 . S
C595 C601 1.465 . S
C596 C591 1.399 . S
C596 C595 1.394 . S
C596 C597 1.516 . S
C597 C596 1.516 . S
C597 C598 1.502 . S
C597 C599 1.561 . S
C597 C600 1.526 . S
C598 H582 0.959 . S
C598 H583 0.959 . S
C598 H584 0.961 . S
C598 C597 1.502 . S
C599 H585 0.960 . S
C599 H586 0.961 . S
C599 H587 0.959 . S
C599 C597 1.561 . S
C600 C597 1.526 . S
C600 C601 1.396 . S
C600 C605 1.390 . S
C601 C595 1.465 . S
C601 C600 1.396 . S
C601 C602 1.399 . S
C602 H588 0.929 . S
C602 C601 1.399 . S
C602 C603 1.385 . S
C603 H589 0.931 . S
C603 C602 1.385 . S
C603 C604 1.389 . S
C604 C603 1.389 . S
C604 C605 1.387 . S
C605 H590 0.930 . S
C605 C600 1.390 . S
C605 C604 1.387 . S
H606 C618 0.930 . S
H607 C620 0.930 . S
H608 C621 0.930 . S
H609 C625 0.959 . S
H610 C625 0.959 . S
H611 C625 0.961 . S
H612 C626 0.960 . S
H613 C626 0.961 . S
H614 C626 0.959 . S
H615 C629 0.929 . S
H616 C630 0.931 . S
H617 C632 0.930 . S
C618 H606 0.930 . S
C618 C619 1.399 . S
C618 C623 1.399 . S
C619 C618 1.399 . S
C619 C620 1.376 . S
C620 H607 0.930 . S
C620 C619 1.376 . S
C620 C621 1.388 . S
C621 H608 0.930 . S
C621 C620 1.388 . S
C621 C622 1.390 . S
C622 C621 1.390 . S
C622 C623 1.394 . S
C622 C628 1.465 . S
C623 C618 1.399 . S
C623 C622 1.394 . S
C623 C624 1.516 . S
C624 C623 1.516 . S
C624 C625 1.502 . S
C624 C626 1.561 . S
C624 C627 1.526 . S
C625 H609 0.959 . S
C625 H610 0.959 . S
C625 H611 0.961 . S
C625 C624 1.502 . S
C626 H612 0.960 . S
C626 H613 0.961 . S
C626 H614 0.959 . S
C626 C624 1.561 . S
C627 C624 1.526 . S
C627 C628 1.396 . S
C627 C632 1.390 . S
C628 C622 1.465 . S
C628 C627 1.396 . S
C628 C629 1.399 . S
C629 H615 0.929 . S
C629 C628 1.399 . S
C629 C630 1.385 . S
C630 H616 0.931 . S
C630 C629 1.385 . S
C630 C631 1.389 . S
C631 C630 1.389 . S
C631 C632 1.387 . S
C632 H617 0.930 . S
C632 C627 1.390 . S
C632 C631 1.387 . S
H633 C645 0.930 . S
H634 C647 0.930 . S
H635 C648 0.930 . S
H636 C652 0.959 . S
H637 C652 0.959 . S
H638 C652 0.961 . S
H639 C653 0.960 . S
H640 C653 0.961 . S
H641 C653 0.959 . S
H642 C656 0.929 . S
H643 C657 0.931 . S
H644 C659 0.930 . S
C645 H633 0.930 . S
C645 C646 1.399 . S
C645 C650 1.399 . S
C646 C645 1.399 . S
C646 C647 1.376 . S
C647 H634 0.930 . S
C647 C646 1.376 . S
C647 C648 1.388 . S
C648 H635 0.930 . S
C648 C647 1.388 . S
C648 C649 1.390 . S
C649 C648 1.390 . S
C649 C650 1.394 . S
C649 C655 1.465 . S
C650 C645 1.399 . S
C650 C649 1.394 . S
C650 C651 1.516 . S
C651 C650 1.516 . S
C651 C652 1.502 . S
C651 C653 1.561 . S
C651 C654 1.526 . S
C652 H636 0.959 . S
C652 H637 0.959 . S
C652 H638 0.961 . S
C652 C651 1.502 . S
C653 H639 0.960 . S
C653 H640 0.961 . S
C653 H641 0.959 . S
C653 C651 1.561 . S
C654 C651 1.526 . S
C654 C655 1.396 . S
C654 C659 1.390 . S
C655 C649 1.465 . S
C655 C654 1.396 . S
C655 C656 1.399 . S
C656 H642 0.929 . S
C656 C655 1.399 . S
C656 C657 1.385 . S
C657 H643 0.931 . S
C657 C656 1.385 . S
C657 C658 1.389 . S
C658 C657 1.389 . S
C658 C659 1.387 . S
C659 H644 0.930 . S
C659 C654 1.390 . S
C659 C658 1.387 . S
H660 C672 0.930 . S
H661 C674 0.930 . S
H662 C675 0.930 1_554 S
H663 C679 0.959 . S
H664 C679 0.959 . S
H665 C679 0.961 . S
H666 C680 0.960 . S
H667 C680 0.961 . S
H668 C680 0.959 . S
H669 C683 0.929 . S
H670 C684 0.931 . S
H671 C686 0.930 . S
C672 H660 0.930 . S
C672 C673 1.399 . S
C672 C677 1.399 . S
C673 C672 1.399 . S
C673 C674 1.376 . S
C674 H661 0.930 . S
C674 C673 1.376 . S
C674 C675 1.388 . S
C675 H662 0.930 1_556 S
C675 C674 1.388 . S
C675 C676 1.393 . S
C676 C675 1.393 . S
C676 C677 1.402 . S
C676 C682 1.456 1_556 S
C677 C672 1.399 . S
C677 C676 1.402 . S
C677 C678 1.516 . S
C678 C677 1.516 . S
C678 C679 1.502 . S
C678 C680 1.561 1_556 S
C678 C681 1.526 1_556 S
C679 H663 0.959 . S
C679 H664 0.959 . S
C679 H665 0.961 . S
C679 C678 1.502 . S
C680 H666 0.960 . S
C680 H667 0.961 . S
C680 H668 0.959 . S
C680 C678 1.561 1_554 S
C681 C678 1.526 1_554 S
C681 C682 1.396 . S
C681 C686 1.390 . S
C682 C676 1.456 1_554 S
C682 C681 1.396 . S
C682 C683 1.399 . S
C683 H669 0.929 . S
C683 C682 1.399 . S
C683 C684 1.385 . S
C684 H670 0.931 . S
C684 C683 1.385 . S
C684 C685 1.389 . S
C685 C684 1.389 . S
C685 C686 1.387 . S
C686 H671 0.930 . S
C686 C681 1.390 . S
C686 C685 1.387 . S
H687 C699 0.930 . S
H688 C701 0.930 . S
H689 C702 0.930 . S
H690 C706 0.959 . S
H691 C706 0.959 . S
H692 C706 0.961 . S
H693 C707 0.960 . S
H694 C707 0.961 . S
H695 C707 0.959 . S
H696 C710 0.929 . S
H697 C711 0.931 . S
H698 C713 0.930 . S
C699 H687 0.930 . S
C699 C700 1.399 . S
C699 C704 1.399 . S
C700 C699 1.399 . S
C700 C701 1.376 . S
C701 H688 0.930 . S
C701 C700 1.376 . S
C701 C702 1.388 . S
C702 H689 0.930 . S
C702 C701 1.388 . S
C702 C703 1.390 . S
C703 C702 1.390 . S
C703 C704 1.394 . S
C703 C709 1.465 . S
C704 C699 1.399 . S
C704 C703 1.394 . S
C704 C705 1.516 . S
C705 C704 1.516 . S
C705 C706 1.502 . S
C705 C707 1.561 . S
C705 C708 1.526 . S
C706 H690 0.959 . S
C706 H691 0.959 . S
C706 H692 0.961 . S
C706 C705 1.502 . S
C707 H693 0.960 . S
C707 H694 0.961 . S
C707 H695 0.959 . S
C707 C705 1.561 . S
C708 C705 1.526 . S
C708 C709 1.396 . S
C708 C713 1.390 . S
C709 C703 1.465 . S
C709 C708 1.396 . S
C709 C710 1.399 . S
C710 H696 0.929 . S
C710 C709 1.399 . S
C710 C711 1.385 . S
C711 H697 0.931 . S
C711 C710 1.385 . S
C711 C712 1.389 . S
C712 C711 1.389 . S
C712 C713 1.387 . S
C713 H698 0.930 . S
C713 C708 1.390 . S
C713 C712 1.387 . S
H714 C726 0.930 . S
H715 C728 0.930 . S
H716 C729 0.930 . S
H717 C733 0.959 . S
H718 C733 0.959 . S
H719 C733 0.961 . S
H720 C734 0.960 . S
H721 C734 0.961 . S
H722 C734 0.959 . S
H723 C737 0.929 . S
H724 C738 0.931 . S
H725 C740 0.930 . S
C726 H714 0.930 . S
C726 C727 1.399 . S
C726 C731 1.399 . S
C727 C726 1.399 . S
C727 C728 1.376 . S
C728 H715 0.930 . S
C728 C727 1.376 . S
C728 C729 1.388 . S
C729 H716 0.930 . S
C729 C728 1.388 . S
C729 C730 1.390 . S
C730 C729 1.390 . S
C730 C731 1.394 . S
C730 C736 1.465 1_554 S
C731 C726 1.399 . S
C731 C730 1.394 . S
C731 C732 1.516 . S
C732 C731 1.516 . S
C732 C733 1.502 1_554 S
C732 C734 1.561 . S
C732 C735 1.526 1_554 S
C733 H717 0.959 . S
C733 H718 0.959 . S
C733 H719 0.961 . S
C733 C732 1.502 1_556 S
C734 H720 0.960 . S
C734 H721 0.961 . S
C734 H722 0.959 . S
C734 C732 1.561 . S
C735 C732 1.526 1_556 S
C735 C736 1.396 . S
C735 C740 1.390 . S
C736 C730 1.465 1_556 S
C736 C735 1.396 . S
C736 C737 1.399 . S
C737 H723 0.929 . S
C737 C736 1.399 . S
C737 C738 1.385 . S
C738 H724 0.931 . S
C738 C737 1.385 . S
C738 C739 1.389 . S
C739 C738 1.389 . S
C739 C740 1.387 . S
C740 H725 0.930 . S
C740 C735 1.390 . S
C740 C739 1.387 . S
H741 C753 0.930 . S
H742 C755 0.930 . S
H743 C756 0.930 . S
H744 C760 0.959 . S
H745 C760 0.959 . S
H746 C760 0.961 . S
H747 C761 0.960 . S
H748 C761 0.961 . S
H749 C761 0.959 . S
H750 C764 0.929 . S
H751 C765 0.931 . S
H752 C767 0.930 . S
C753 H741 0.930 . S
C753 C754 1.399 . S
C753 C758 1.399 . S
C754 C753 1.399 . S
C754 C755 1.376 . S
C755 H742 0.930 . S
C755 C754 1.376 . S
C755 C756 1.388 . S
C756 H743 0.930 . S
C756 C755 1.388 . S
C756 C757 1.390 . S
C757 C756 1.390 . S
C757 C758 1.394 . S
C757 C763 1.465 . S
C758 C753 1.399 . S
C758 C757 1.394 . S
C758 C759 1.516 . S
C759 C758 1.516 . S
C759 C760 1.502 . S
C759 C761 1.561 . S
C759 C762 1.526 . S
C760 H744 0.959 . S
C760 H745 0.959 . S
C760 H746 0.961 . S
C760 C759 1.502 . S
C761 H747 0.960 . S
C761 H748 0.961 . S
C761 H749 0.959 . S
C761 C759 1.561 . S
C762 C759 1.526 . S
C762 C763 1.396 . S
C762 C767 1.390 . S
C763 C757 1.465 . S
C763 C762 1.396 . S
C763 C764 1.399 . S
C764 H750 0.929 . S
C764 C763 1.399 . S
C764 C765 1.385 . S
C765 H751 0.931 . S
C765 C764 1.385 . S
C765 C766 1.389 . S
C766 C765 1.389 . S
C766 C767 1.387 . S
C767 H752 0.930 . S
C767 C762 1.390 . S
C767 C766 1.387 . S
H768 C780 0.930 1_554 S
H769 C782 0.930 . S
H770 C783 0.930 . S
H771 C787 0.959 . S
H772 C787 0.959 . S
H773 C787 0.961 . S
H774 C788 0.960 . S
H775 C788 0.961 . S
H776 C788 0.959 . S
H777 C791 0.929 . S
H778 C792 0.931 . S
H779 C794 0.930 . S
C780 H768 0.930 1_556 S
C780 C781 1.399 . S
C780 C785 1.399 1_556 S
C781 C780 1.399 . S
C781 C782 1.376 . S
C782 H769 0.930 . S
C782 C781 1.376 . S
C782 C783 1.388 . S
C783 H770 0.930 . S
C783 C782 1.388 . S
C783 C784 1.390 . S
C784 C783 1.390 . S
C784 C785 1.394 1_556 S
C784 C790 1.465 . S
C785 C780 1.399 1_554 S
C785 C784 1.394 1_554 S
C785 C786 1.516 . S
C786 C785 1.516 . S
C786 C787 1.502 . S
C786 C788 1.561 . S
C786 C789 1.526 . S
C787 H771 0.959 . S
C787 H772 0.959 . S
C787 H773 0.961 . S
C787 C786 1.502 . S
C788 H774 0.960 . S
C788 H775 0.961 . S
C788 H776 0.959 . S
C788 C786 1.561 . S
C789 C786 1.526 . S
C789 C790 1.396 1_554 S
C789 C794 1.390 . S
C790 C784 1.465 . S
C790 C789 1.396 1_556 S
C790 C791 1.399 . S
C791 H777 0.929 . S
C791 C790 1.399 . S
C791 C792 1.385 . S
C792 H778 0.931 . S
C792 C791 1.385 . S
C792 C793 1.389 1_556 S
C793 C792 1.389 1_554 S
C793 C794 1.387 . S
C794 H779 0.930 . S
C794 C789 1.390 . S
C794 C793 1.387 . S
H795 C807 0.930 . S
H796 C809 0.930 . S
H797 C810 0.930 . S
H798 C814 0.959 . S
H799 C814 0.959 . S
H800 C814 0.961 . S
H801 C815 0.960 . S
H802 C815 0.961 . S
H803 C815 0.959 . S
H804 C818 0.929 . S
H805 C819 0.931 . S
H806 C821 0.930 . S
C807 H795 0.930 . S
C807 C808 1.399 . S
C807 C812 1.399 . S
C808 C807 1.399 . S
C808 C809 1.376 . S
C809 H796 0.930 . S
C809 C808 1.376 . S
C809 C810 1.388 . S
C810 H797 0.930 . S
C810 C809 1.388 . S
C810 C811 1.390 . S
C811 C810 1.390 . S
C811 C812 1.394 . S
C811 C817 1.465 . S
C812 C807 1.399 . S
C812 C811 1.394 . S
C812 C813 1.516 . S
C813 C812 1.516 . S
C813 C814 1.502 . S
C813 C815 1.561 . S
C813 C816 1.526 . S
C814 H798 0.959 . S
C814 H799 0.959 . S
C814 H800 0.961 . S
C814 C813 1.502 . S
C815 H801 0.960 . S
C815 H802 0.961 . S
C815 H803 0.959 . S
C815 C813 1.561 . S
C816 C813 1.526 . S
C816 C817 1.396 . S
C816 C821 1.390 . S
C817 C811 1.465 . S
C817 C816 1.396 . S
C817 C818 1.399 . S
C818 H804 0.929 . S
C818 C817 1.399 . S
C818 C819 1.385 . S
C819 H805 0.931 . S
C819 C818 1.385 . S
C819 C820 1.389 . S
C820 C819 1.389 . S
C820 C821 1.387 . S
C821 H806 0.930 . S
C821 C816 1.390 . S
C821 C820 1.387 . S
H822 C834 0.930 . S
H823 C836 0.930 . S
H824 C837 0.930 . S
H825 C841 0.959 . S
H826 C841 0.959 . S
H827 C841 0.961 . S
H828 C842 0.960 . S
H829 C842 0.961 . S
H830 C842 0.959 . S
H831 C845 0.929 . S
H832 C846 0.931 . S
H833 C848 0.930 . S
C834 H822 0.930 . S
C834 C835 1.399 . S
C834 C839 1.399 . S
C835 C834 1.399 . S
C835 C836 1.376 . S
C836 H823 0.930 . S
C836 C835 1.376 . S
C836 C837 1.388 . S
C837 H824 0.930 . S
C837 C836 1.388 . S
C837 C838 1.390 . S
C838 C837 1.390 . S
C838 C839 1.394 . S
C838 C844 1.465 1_554 S
C839 C834 1.399 . S
C839 C838 1.394 . S
C839 C840 1.516 1_554 S
C840 C839 1.516 1_556 S
C840 C841 1.502 1_556 S
C840 C842 1.561 . S
C840 C843 1.526 . S
C841 H825 0.959 . S
C841 H826 0.959 . S
C841 H827 0.961 . S
C841 C840 1.502 1_554 S
C842 H828 0.960 . S
C842 H829 0.961 . S
C842 H830 0.959 . S
C842 C840 1.561 . S
C843 C840 1.526 . S
C843 C844 1.396 . S
C843 C848 1.390 . S
C844 C838 1.465 1_556 S
C844 C843 1.396 . S
C844 C845 1.399 . S
C845 H831 0.929 . S
C845 C844 1.399 . S
C845 C846 1.385 . S
C846 H832 0.931 . S
C846 C845 1.385 . S
C846 C847 1.389 . S
C847 C846 1.389 . S
C847 C848 1.387 . S
C848 H833 0.930 . S
C848 C843 1.390 . S
C848 C847 1.387 . S
H849 C861 0.930 . S
H850 C863 0.930 . S
H851 C864 0.930 . S
H852 C868 0.959 . S
H853 C868 0.959 . S
H854 C868 0.961 . S
H855 C869 0.960 . S
H856 C869 0.961 . S
H857 C869 0.959 . S
H858 C872 0.929 . S
H859 C873 0.931 . S
H860 C875 0.930 . S
C861 H849 0.930 . S
C861 C862 1.399 . S
C861 C866 1.399 . S
C862 C861 1.399 . S
C862 C863 1.376 . S
C863 H850 0.930 . S
C863 C862 1.376 . S
C863 C864 1.388 . S
C864 H851 0.930 . S
C864 C863 1.388 . S
C864 C865 1.390 . S
C865 C864 1.390 . S
C865 C866 1.394 . S
C865 C871 1.465 . S
C866 C861 1.399 . S
C866 C865 1.394 . S
C866 C867 1.516 . S
C867 C866 1.516 . S
C867 C868 1.502 . S
C867 C869 1.561 . S
C867 C870 1.526 . S
C868 H852 0.959 . S
C868 H853 0.959 . S
C868 H854 0.961 . S
C868 C867 1.502 . S
C869 H855 0.960 . S
C869 H856 0.961 . S
C869 H857 0.959 . S
C869 C867 1.561 . S
C870 C867 1.526 . S
C870 C871 1.396 . S
C870 C875 1.390 . S
C871 C865 1.465 . S
C871 C870 1.396 . S
C871 C872 1.399 . S
C872 H858 0.929 . S
C872 C871 1.399 . S
C872 C873 1.385 . S
C873 H859 0.931 . S
C873 C872 1.385 . S
C873 C874 1.389 . S
C874 C873 1.389 . S
C874 C875 1.387 . S
C875 H860 0.930 . S
C875 C870 1.390 . S
C875 C874 1.387 . S
H876 C888 0.930 . S
H877 C890 0.933 . S
H878 C891 0.930 . S
H879 C895 0.959 . S
H880 C895 0.959 . S
H881 C895 0.961 . S
H882 C896 0.960 . S
H883 C896 0.961 . S
H884 C896 0.959 . S
H885 C899 0.929 . S
H886 C900 0.931 . S
H887 C902 0.930 1_556 S
C888 H876 0.930 . S
C888 C889 1.399 . S
C888 C893 1.399 . S
C889 C888 1.399 . S
C889 C890 1.376 . S
C890 H877 0.933 . S
C890 C889 1.376 . S
C890 C891 1.388 1_556 S
C891 H878 0.930 . S
C891 C890 1.388 1_554 S
C891 C892 1.390 . S
C892 C891 1.390 . S
C892 C893 1.394 1_554 S
C892 C898 1.465 . S
C893 C888 1.399 . S
C893 C892 1.394 1_556 S
C893 C894 1.516 . S
C894 C893 1.516 . S
C894 C895 1.502 . S
C894 C896 1.561 . S
C894 C897 1.526 . S
C895 H879 0.959 . S
C895 H880 0.959 . S
C895 H881 0.961 . S
C895 C894 1.502 . S
C896 H882 0.960 . S
C896 H883 0.961 . S
C896 H884 0.959 . S
C896 C894 1.561 . S
C897 C894 1.526 . S
C897 C898 1.396 1_556 S
C897 C902 1.390 1_556 S
C898 C892 1.465 . S
C898 C897 1.396 1_554 S
C898 C899 1.399 . S
C899 H885 0.929 . S
C899 C898 1.399 . S
C899 C900 1.385 . S
C900 H886 0.931 . S
C900 C899 1.385 . S
C900 C901 1.389 . S
C901 C900 1.389 . S
C901 C902 1.387 . S
C902 H887 0.930 1_554 S
C902 C897 1.390 1_554 S
C902 C901 1.387 . S
H903 C915 0.930 . S
H904 C917 0.930 . S
H905 C918 0.930 . S
H906 C922 0.959 . S
H907 C922 0.959 . S
H908 C922 0.961 . S
H909 C923 0.960 . S
H910 C923 0.961 . S
H911 C923 0.959 . S
H912 C926 0.929 . S
H913 C927 0.931 . S
H914 C929 0.930 . S
C915 H903 0.930 . S
C915 C916 1.399 . S
C915 C920 1.399 . S
C916 C915 1.399 . S
C916 C917 1.376 . S
C917 H904 0.930 . S
C917 C916 1.376 . S
C917 C918 1.388 . S
C918 H905 0.930 . S
C918 C917 1.388 . S
C918 C919 1.390 . S
C919 C918 1.390 . S
C919 C920 1.394 . S
C919 C925 1.465 . S
C920 C915 1.399 . S
C920 C919 1.394 . S
C920 C921 1.516 . S
C921 C920 1.516 . S
C921 C922 1.502 . S
C921 C923 1.561 . S
C921 C924 1.526 . S
C922 H906 0.959 . S
C922 H907 0.959 . S
C922 H908 0.961 . S
C922 C921 1.502 . S
C923 H909 0.960 . S
C923 H910 0.961 . S
C923 H911 0.959 . S
C923 C921 1.561 . S
C924 C921 1.526 . S
C924 C925 1.396 . S
C924 C929 1.390 . S
C925 C919 1.465 . S
C925 C924 1.396 . S
C925 C926 1.399 . S
C926 H912 0.929 . S
C926 C925 1.399 . S
C926 C927 1.385 . S
C927 H913 0.931 . S
C927 C926 1.385 . S
C927 C928 1.389 . S
C928 C927 1.389 . S
C928 C929 1.387 . S
C929 H914 0.930 . S
C929 C924 1.390 . S
C929 C928 1.387 . S
H930 C942 0.930 . S
H931 C944 0.930 . S
H932 C945 0.930 . S
H933 C949 0.959 . S
H934 C949 0.959 1_554 S
H935 C949 0.961 . S
H936 C950 0.960 . S
H937 C950 0.961 . S
H938 C950 0.959 . S
H939 C953 0.929 . S
H940 C954 0.931 . S
H941 C956 0.930 . S
C942 H930 0.930 . S
C942 C943 1.399 . S
C942 C947 1.399 . S
C943 C942 1.399 . S
C943 C944 1.376 . S
C944 H931 0.930 . S
C944 C943 1.376 . S
C944 C945 1.388 . S
C945 H932 0.930 . S
C945 C944 1.388 . S
C945 C946 1.390 . S
C946 C945 1.390 . S
C946 C947 1.394 . S
C946 C952 1.465 1_556 S
C947 C942 1.399 . S
C947 C946 1.394 . S
C947 C948 1.516 1_556 S
C948 C947 1.516 1_554 S
C948 C949 1.502 1_554 S
C948 C950 1.561 . S
C948 C951 1.526 . S
C949 H933 0.959 . S
C949 H934 0.959 1_556 S
C949 H935 0.961 . S
C949 C948 1.502 1_556 S
C950 H936 0.960 . S
C950 H937 0.961 . S
C950 H938 0.959 . S
C950 C948 1.561 . S
C951 C948 1.526 . S
C951 C952 1.396 . S
C951 C956 1.390 . S
C952 C946 1.465 1_554 S
C952 C951 1.396 . S
C952 C953 1.399 . S
C953 H939 0.929 . S
C953 C952 1.399 . S
C953 C954 1.385 . S
C954 H940 0.931 . S
C954 C953 1.385 . S
C954 C955 1.389 . S
C955 C954 1.389 . S
C955 C956 1.387 . S
C956 H941 0.930 . S
C956 C951 1.390 . S
C956 C955 1.387 . S
H957 C969 0.930 . S
H958 C971 0.930 . S
H959 C972 0.930 . S
H960 C976 0.959 . S
H961 C976 0.959 . S
H962 C976 0.961 . S
H963 C977 0.960 . S
H964 C977 0.961 . S
H965 C977 0.959 . S
H966 C980 0.929 . S
H967 C981 0.931 . S
H968 C983 0.930 . S
C969 H957 0.930 . S
C969 C970 1.399 . S
C969 C974 1.399 . S
C970 C969 1.399 . S
C970 C971 1.376 . S
C971 H958 0.930 . S
C971 C970 1.376 . S
C971 C972 1.388 . S
C972 H959 0.930 . S
C972 C971 1.388 . S
C972 C973 1.390 . S
C973 C972 1.390 . S
C973 C974 1.394 . S
C973 C979 1.465 . S
C974 C969 1.399 . S
C974 C973 1.394 . S
C974 C975 1.516 . S
C975 C974 1.516 . S
C975 C976 1.502 . S
C975 C977 1.561 . S
C975 C978 1.526 . S
C976 H960 0.959 . S
C976 H961 0.959 . S
C976 H962 0.961 . S
C976 C975 1.502 . S
C977 H963 0.960 . S
C977 H964 0.961 . S
C977 H965 0.959 . S
C977 C975 1.561 . S
C978 C975 1.526 . S
C978 C979 1.396 . S
C978 C983 1.390 . S
C979 C973 1.465 . S
C979 C978 1.396 . S
C979 C980 1.399 . S
C980 H966 0.929 . S
C980 C979 1.399 . S
C980 C981 1.385 . S
C981 H967 0.931 . S
C981 C980 1.385 . S
C981 C982 1.389 . S
C982 C981 1.389 . S
C982 C983 1.387 . S
C983 H968 0.930 . S
C983 C978 1.390 . S
C983 C982 1.387 . S
H984 C996 0.930 . S
H985 C998 0.930 . S
H986 C999 0.930 . S
H987 C1003 0.959 . S
H988 C1003 0.959 . S
H989 C1003 0.961 . S
H990 C1004 0.960 . S
H991 C1004 0.961 . S
H992 C1004 0.959 . S
H993 C1007 0.929 . S
H994 C1008 0.931 . S
H995 C1010 0.930 . S
C996 H984 0.930 . S
C996 C997 1.399 . S
C996 C1001 1.399 . S
C997 C996 1.399 . S
C997 C998 1.376 . S
C998 H985 0.930 . S
C998 C997 1.376 . S
C998 C999 1.388 . S
C999 H986 0.930 . S
C999 C998 1.388 . S
C999 C1000 1.390 . S
C1000 C999 1.390 . S
C1000 C1001 1.394 . S
C1000 C1006 1.465 . S
C1001 C996 1.399 . S
C1001 C1000 1.394 . S
C1001 C1002 1.516 . S
C1002 C1001 1.516 . S
C1002 C1003 1.502 . S
C1002 C1004 1.561 . S
C1002 C1005 1.526 . S
C1003 H987 0.959 . S
C1003 H988 0.959 . S
C1003 H989 0.961 . S
C1003 C1002 1.502 . S
C1004 H990 0.960 . S
C1004 H991 0.961 . S
C1004 H992 0.959 . S
C1004 C1002 1.561 . S
C1005 C1002 1.526 . S
C1005 C1006 1.396 . S
C1005 C1010 1.390 . S
C1006 C1000 1.465 . S
C1006 C1005 1.396 . S
C1006 C1007 1.399 . S
C1007 H993 0.929 . S
C1007 C1006 1.399 . S
C1007 C1008 1.385 . S
C1008 H994 0.931 . S
C1008 C1007 1.385 . S
C1008 C1009 1.389 . S
C1009 C1008 1.389 . S
C1009 C1010 1.387 . S
C1010 H995 0.930 . S
C1010 C1005 1.390 . S
C1010 C1009 1.387 . S
H1011 C1023 0.930 . S
H1012 C1025 0.930 . S
H1013 C1026 0.930 . S
H1014 C1030 0.970 . S
H1015 C1030 0.982 . S
H1016 C1030 0.943 1_455 S
H1017 C1031 0.958 1_455 S
H1018 C1031 0.964 . S
H1019 C1031 0.957 . S
H1020 C1034 0.929 . S
H1021 C1035 0.931 . S
H1022 C1037 0.930 . S
C1023 H1011 0.930 . S
C1023 C1024 1.399 . S
C1023 C1028 1.399 . S
C1024 C1023 1.399 . S
C1024 C1025 1.376 . S
C1025 H1012 0.930 . S
C1025 C1024 1.376 . S
C1025 C1026 1.388 . S
C1026 H1013 0.930 . S
C1026 C1025 1.388 . S
C1026 C1027 1.390 . S
C1027 C1026 1.390 . S
C1027 C1028 1.394 . S
C1027 C1033 1.465 1_455 S
C1028 C1023 1.399 . S
C1028 C1027 1.394 . S
C1028 C1029 1.517 1_455 S
C1029 C1028 1.517 1_655 S
C1029 C1030 1.487 . S
C1029 C1031 1.563 . S
C1029 C1032 1.525 . S
C1030 H1014 0.970 . S
C1030 H1015 0.982 . S
C1030 H1016 0.943 1_655 S
C1030 C1029 1.487 . S
C1031 H1017 0.958 1_655 S
C1031 H1018 0.964 . S
C1031 H1019 0.957 . S
C1031 C1029 1.563 . S
C1032 C1029 1.525 . S
C1032 C1033 1.396 . S
C1032 C1037 1.390 . S
C1033 C1027 1.465 1_655 S
C1033 C1032 1.396 . S
C1033 C1034 1.399 . S
C1034 H1020 0.929 . S
C1034 C1033 1.399 . S
C1034 C1035 1.385 . S
C1035 H1021 0.931 . S
C1035 C1034 1.385 . S
C1035 C1036 1.389 . S
C1036 C1035 1.389 . S
C1036 C1037 1.387 . S
C1037 H1022 0.930 . S
C1037 C1032 1.390 . S
C1037 C1036 1.387 . S
H1038 C1050 0.930 . S
H1039 C1052 0.930 . S
H1040 C1053 0.930 . S
H1041 C1057 0.968 . S
H1042 C1057 0.983 . S
H1043 C1057 0.944 1_565 S
H1044 C1058 0.958 1_565 S
H1045 C1058 0.964 . S
H1046 C1058 0.957 . S
H1047 C1061 0.929 . S
H1048 C1062 0.931 . S
H1049 C1064 0.930 . S
C1050 H1038 0.930 . S
C1050 C1051 1.399 . S
C1050 C1055 1.399 . S
C1051 C1050 1.399 . S
C1051 C1052 1.376 . S
C1052 H1039 0.930 . S
C1052 C1051 1.376 . S
C1052 C1053 1.388 . S
C1053 H1040 0.930 . S
C1053 C1052 1.388 . S
C1053 C1054 1.390 . S
C1054 C1053 1.390 . S
C1054 C1055 1.394 . S
C1054 C1060 1.465 1_565 S
C1055 C1050 1.399 . S
C1055 C1054 1.394 . S
C1055 C1056 1.517 1_565 S
C1056 C1055 1.517 1_545 S
C1056 C1057 1.486 . S
C1056 C1058 1.562 . S
C1056 C1059 1.525 . S
C1057 H1041 0.968 . S
C1057 H1042 0.983 . S
C1057 H1043 0.944 1_545 S
C1057 C1056 1.486 . S
C1058 H1044 0.958 1_545 S
C1058 H1045 0.964 . S
C1058 H1046 0.957 . S
C1058 C1056 1.562 . S
C1059 C1056 1.525 . S
C1059 C1060 1.396 . S
C1059 C1064 1.390 . S
C1060 C1054 1.465 1_545 S
C1060 C1059 1.396 . S
C1060 C1061 1.399 . S
C1061 H1047 0.929 . S
C1061 C1060 1.399 . S
C1061 C1062 1.385 . S
C1062 H1048 0.931 . S
C1062 C1061 1.385 . S
C1062 C1063 1.389 . S
C1063 C1062 1.389 . S
C1063 C1064 1.387 . S
C1064 H1049 0.930 . S
C1064 C1059 1.390 . S
C1064 C1063 1.387 . S
H1065 C1077 0.930 . S
H1066 C1079 0.930 . S
H1067 C1080 0.930 . S
H1068 C1084 0.959 . S
H1069 C1084 0.959 . S
H1070 C1084 0.961 . S
H1071 C1085 0.960 . S
H1072 C1085 0.961 . S
H1073 C1085 0.959 . S
H1074 C1088 0.929 . S
H1075 C1089 0.931 . S
H1076 C1091 0.930 . S
C1077 H1065 0.930 . S
C1077 C1078 1.399 . S
C1077 C1082 1.399 . S
C1078 C1077 1.399 . S
C1078 C1079 1.376 . S
C1079 H1066 0.930 . S
C1079 C1078 1.376 . S
C1079 C1080 1.388 . S
C1080 H1067 0.930 . S
C1080 C1079 1.388 . S
C1080 C1081 1.390 . S
C1081 C1080 1.390 . S
C1081 C1082 1.394 . S
C1081 C1087 1.465 . S
C1082 C1077 1.399 . S
C1082 C1081 1.394 . S
C1082 C1083 1.516 . S
C1083 C1082 1.516 . S
C1083 C1084 1.502 . S
C1083 C1085 1.561 . S
C1083 C1086 1.526 . S
C1084 H1068 0.959 . S
C1084 H1069 0.959 . S
C1084 H1070 0.961 . S
C1084 C1083 1.502 . S
C1085 H1071 0.960 . S
C1085 H1072 0.961 . S
C1085 H1073 0.959 . S
C1085 C1083 1.561 . S
C1086 C1083 1.526 . S
C1086 C1087 1.396 . S
C1086 C1091 1.390 . S
C1087 C1081 1.465 . S
C1087 C1086 1.396 . S
C1087 C1088 1.399 . S
C1088 H1074 0.929 . S
C1088 C1087 1.399 . S
C1088 C1089 1.385 . S
C1089 H1075 0.931 . S
C1089 C1088 1.385 . S
C1089 C1090 1.389 . S
C1090 C1089 1.389 . S
C1090 C1091 1.387 . S
C1091 H1076 0.930 . S
C1091 C1086 1.390 . S
C1091 C1090 1.387 . S
H1092 C1104 0.930 . S
H1093 C1106 0.930 . S
H1094 C1107 0.930 . S
H1095 C1111 0.953 . S
H1096 C1111 0.977 . S
H1097 C1111 0.936 1_655 S
H1098 C1112 0.957 1_655 S
H1099 C1112 0.963 . S
H1100 C1112 0.961 . S
H1101 C1115 0.929 . S
H1102 C1116 0.931 . S
H1103 C1118 0.930 . S
C1104 H1092 0.930 . S
C1104 C1105 1.399 . S
C1104 C1109 1.399 . S
C1105 C1104 1.399 . S
C1105 C1106 1.376 . S
C1106 H1093 0.930 . S
C1106 C1105 1.376 . S
C1106 C1107 1.388 . S
C1107 H1094 0.930 . S
C1107 C1106 1.388 . S
C1107 C1108 1.390 . S
C1108 C1107 1.390 . S
C1108 C1109 1.394 . S
C1108 C1114 1.465 1_655 S
C1109 C1104 1.399 . S
C1109 C1108 1.394 . S
C1109 C1110 1.517 1_655 S
C1110 C1109 1.517 1_455 S
C1110 C1111 1.516 . S
C1110 C1112 1.560 . S
C1110 C1113 1.525 . S
C1111 H1095 0.953 . S
C1111 H1096 0.977 . S
C1111 H1097 0.936 1_455 S
C1111 C1110 1.516 . S
C1112 H1098 0.957 1_455 S
C1112 H1099 0.963 . S
C1112 H1100 0.961 . S
C1112 C1110 1.560 . S
C1113 C1110 1.525 . S
C1113 C1114 1.396 . S
C1113 C1118 1.390 . S
C1114 C1108 1.465 1_455 S
C1114 C1113 1.396 . S
C1114 C1115 1.399 . S
C1115 H1101 0.929 . S
C1115 C1114 1.399 . S
C1115 C1116 1.385 . S
C1116 H1102 0.931 . S
C1116 C1115 1.385 . S
C1116 C1117 1.389 . S
C1117 C1116 1.389 . S
C1117 C1118 1.387 . S
C1118 H1103 0.930 . S
C1118 C1113 1.390 . S
C1118 C1117 1.387 . S
H1119 C1131 0.930 . S
H1120 C1133 0.930 . S
H1121 C1134 0.930 . S
H1122 C1138 0.973 . S
H1123 C1138 0.979 . S
H1124 C1138 0.941 1_545 S
H1125 C1139 0.958 1_545 S
H1126 C1139 0.963 . S
H1127 C1139 0.958 . S
H1128 C1142 0.929 . S
H1129 C1143 0.931 . S
H1130 C1145 0.930 . S
C1131 H1119 0.930 . S
C1131 C1132 1.399 . S
C1131 C1136 1.399 . S
C1132 C1131 1.399 . S
C1132 C1133 1.376 . S
C1133 H1120 0.930 . S
C1133 C1132 1.376 . S
C1133 C1134 1.388 . S
C1134 H1121 0.930 . S
C1134 C1133 1.388 . S
C1134 C1135 1.390 . S
C1135 C1134 1.390 . S
C1135 C1136 1.394 . S
C1135 C1141 1.465 1_545 S
C1136 C1131 1.399 . S
C1136 C1135 1.394 . S
C1136 C1137 1.517 1_545 S
C1137 C1136 1.517 1_565 S
C1137 C1138 1.489 . S
C1137 C1139 1.563 . S
C1137 C1140 1.525 . S
C1138 H1122 0.973 . S
C1138 H1123 0.979 . S
C1138 H1124 0.941 1_565 S
C1138 C1137 1.489 . S
C1139 H1125 0.958 1_565 S
C1139 H1126 0.963 . S
C1139 H1127 0.958 . S
C1139 C1137 1.563 . S
C1140 C1137 1.525 . S
C1140 C1141 1.396 . S
C1140 C1145 1.390 . S
C1141 C1135 1.465 1_565 S
C1141 C1140 1.396 . S
C1141 C1142 1.399 . S
C1142 H1128 0.929 . S
C1142 C1141 1.399 . S
C1142 C1143 1.385 . S
C1143 H1129 0.931 . S
C1143 C1142 1.385 . S
C1143 C1144 1.389 . S
C1144 C1143 1.389 . S
C1144 C1145 1.387 . S
C1145 H1130 0.930 . S
C1145 C1140 1.390 . S
C1145 C1144 1.387 . S
H1146 C1158 0.930 . S
H1147 C1160 0.930 . S
H1148 C1161 0.930 . S
H1149 C1165 0.959 . S
H1150 C1165 0.959 . S
H1151 C1165 0.961 . S
H1152 C1166 0.960 . S
H1153 C1166 0.961 . S
H1154 C1166 0.959 . S
H1155 C1169 0.929 . S
H1156 C1170 0.931 . S
H1157 C1172 0.930 . S
C1158 H1146 0.930 . S
C1158 C1159 1.399 . S
C1158 C1163 1.399 . S
C1159 C1158 1.399 . S
C1159 C1160 1.376 . S
C1160 H1147 0.930 . S
C1160 C1159 1.376 . S
C1160 C1161 1.388 . S
C1161 H1148 0.930 . S
C1161 C1160 1.388 . S
C1161 C1162 1.390 . S
C1162 C1161 1.390 . S
C1162 C1163 1.394 . S
C1162 C1168 1.465 . S
C1163 C1158 1.399 . S
C1163 C1162 1.394 . S
C1163 C1164 1.516 . S
C1164 C1163 1.516 . S
C1164 C1165 1.502 . S
C1164 C1166 1.561 . S
C1164 C1167 1.526 . S
C1165 H1149 0.959 . S
C1165 H1150 0.959 . S
C1165 H1151 0.961 . S
C1165 C1164 1.502 . S
C1166 H1152 0.960 . S
C1166 H1153 0.961 . S
C1166 H1154 0.959 . S
C1166 C1164 1.561 . S
C1167 C1164 1.526 . S
C1167 C1168 1.396 . S
C1167 C1172 1.390 . S
C1168 C1162 1.465 . S
C1168 C1167 1.396 . S
C1168 C1169 1.399 . S
C1169 H1155 0.929 . S
C1169 C1168 1.399 . S
C1169 C1170 1.385 . S
C1170 H1156 0.931 . S
C1170 C1169 1.385 . S
C1170 C1171 1.389 . S
C1171 C1170 1.389 . S
C1171 C1172 1.387 . S
C1172 H1157 0.930 . S
C1172 C1167 1.390 . S
C1172 C1171 1.387 . S
H1173 C1185 0.930 . S
H1174 C1187 0.930 . S
H1175 C1188 0.930 . S
H1176 C1192 0.951 . S
H1177 C1192 0.979 . S
H1178 C1192 0.938 1_655 S
H1179 C1193 0.958 1_655 S
H1180 C1193 0.963 . S
H1181 C1193 0.961 . S
H1182 C1196 0.929 . S
H1183 C1197 0.931 . S
H1184 C1199 0.930 . S
C1185 H1173 0.930 . S
C1185 C1186 1.399 . S
C1185 C1190 1.399 . S
C1186 C1185 1.399 . S
C1186 C1187 1.376 . S
C1187 H1174 0.930 . S
C1187 C1186 1.376 . S
C1187 C1188 1.388 . S
C1188 H1175 0.930 . S
C1188 C1187 1.388 . S
C1188 C1189 1.390 . S
C1189 C1188 1.390 . S
C1189 C1190 1.394 . S
C1189 C1195 1.465 1_655 S
C1190 C1185 1.399 . S
C1190 C1189 1.394 . S
C1190 C1191 1.517 1_655 S
C1191 C1190 1.517 1_455 S
C1191 C1192 1.514 . S
C1191 C1193 1.559 . S
C1191 C1194 1.525 . S
C1192 H1176 0.951 . S
C1192 H1177 0.979 . S
C1192 H1178 0.938 1_455 S
C1192 C1191 1.514 . S
C1193 H1179 0.958 1_455 S
C1193 H1180 0.963 . S
C1193 H1181 0.961 . S
C1193 C1191 1.559 . S
C1194 C1191 1.525 . S
C1194 C1195 1.396 . S
C1194 C1199 1.390 . S
C1195 C1189 1.465 1_455 S
C1195 C1194 1.396 . S
C1195 C1196 1.399 . S
C1196 H1182 0.929 . S
C1196 C1195 1.399 . S
C1196 C1197 1.385 . S
C1197 H1183 0.931 . S
C1197 C1196 1.385 . S
C1197 C1198 1.389 . S
C1198 C1197 1.389 . S
C1198 C1199 1.387 . S
C1199 H1184 0.930 . S
C1199 C1194 1.390 . S
C1199 C1198 1.387 . S
H1200 C1212 0.930 . S
H1201 C1214 0.930 . S
H1202 C1215 0.930 . S
H1203 C1219 0.951 . S
H1204 C1219 0.979 . S
H1205 C1219 0.938 1_545 S
H1206 C1220 0.957 1_545 S
H1207 C1220 0.963 . S
H1208 C1220 0.961 . S
H1209 C1223 0.929 . S
H1210 C1224 0.931 . S
H1211 C1226 0.930 . S
C1212 H1200 0.930 . S
C1212 C1213 1.399 . S
C1212 C1217 1.399 . S
C1213 C1212 1.399 . S
C1213 C1214 1.376 . S
C1214 H1201 0.930 . S
C1214 C1213 1.376 . S
C1214 C1215 1.388 . S
C1215 H1202 0.930 . S
C1215 C1214 1.388 . S
C1215 C1216 1.390 . S
C1216 C1215 1.390 . S
C1216 C1217 1.394 . S
C1216 C1222 1.465 1_545 S
C1217 C1212 1.399 . S
C1217 C1216 1.394 . S
C1217 C1218 1.517 1_545 S
C1218 C1217 1.517 1_565 S
C1218 C1219 1.514 . S
C1218 C1220 1.559 . S
C1218 C1221 1.525 . S
C1219 H1203 0.951 . S
C1219 H1204 0.979 . S
C1219 H1205 0.938 1_565 S
C1219 C1218 1.514 . S
C1220 H1206 0.957 1_565 S
C1220 H1207 0.963 . S
C1220 H1208 0.961 . S
C1220 C1218 1.559 . S
C1221 C1218 1.525 . S
C1221 C1222 1.396 . S
C1221 C1226 1.390 . S
C1222 C1216 1.465 1_565 S
C1222 C1221 1.396 . S
C1222 C1223 1.399 . S
C1223 H1209 0.929 . S
C1223 C1222 1.399 . S
C1223 C1224 1.385 . S
C1224 H1210 0.931 . S
C1224 C1223 1.385 . S
C1224 C1225 1.389 . S
C1225 C1224 1.389 . S
C1225 C1226 1.387 . S
C1226 H1211 0.930 . S
C1226 C1221 1.390 . S
C1226 C1225 1.387 . S
H1227 C1239 0.930 . S
H1228 C1241 0.930 . S
H1229 C1242 0.930 . S
H1230 C1246 0.959 . S
H1231 C1246 0.959 . S
H1232 C1246 0.961 . S
H1233 C1247 0.960 . S
H1234 C1247 0.961 . S
H1235 C1247 0.959 . S
H1236 C1250 0.929 . S
H1237 C1251 0.931 . S
H1238 C1253 0.930 . S
C1239 H1227 0.930 . S
C1239 C1240 1.399 . S
C1239 C1244 1.399 . S
C1240 C1239 1.399 . S
C1240 C1241 1.376 . S
C1241 H1228 0.930 . S
C1241 C1240 1.376 . S
C1241 C1242 1.388 . S
C1242 H1229 0.930 . S
C1242 C1241 1.388 . S
C1242 C1243 1.390 . S
C1243 C1242 1.390 . S
C1243 C1244 1.394 . S
C1243 C1249 1.465 . S
C1244 C1239 1.399 . S
C1244 C1243 1.394 . S
C1244 C1245 1.516 . S
C1245 C1244 1.516 . S
C1245 C1246 1.502 . S
C1245 C1247 1.561 . S
C1245 C1248 1.526 . S
C1246 H1230 0.959 . S
C1246 H1231 0.959 . S
C1246 H1232 0.961 . S
C1246 C1245 1.502 . S
C1247 H1233 0.960 . S
C1247 H1234 0.961 . S
C1247 H1235 0.959 . S
C1247 C1245 1.561 . S
C1248 C1245 1.526 . S
C1248 C1249 1.396 . S
C1248 C1253 1.390 . S
C1249 C1243 1.465 . S
C1249 C1248 1.396 . S
C1249 C1250 1.399 . S
C1250 H1236 0.929 . S
C1250 C1249 1.399 . S
C1250 C1251 1.385 . S
C1251 H1237 0.931 . S
C1251 C1250 1.385 . S
C1251 C1252 1.389 . S
C1252 C1251 1.389 . S
C1252 C1253 1.387 . S
C1253 H1238 0.930 . S
C1253 C1248 1.390 . S
C1253 C1252 1.387 . S
H1254 C1266 0.930 . S
H1255 C1268 0.930 . S
H1256 C1269 0.930 . S
H1257 C1273 0.972 . S
H1258 C1273 0.970 . S
H1259 C1273 0.932 1_455 S
H1260 C1274 0.957 1_455 S
H1261 C1274 0.962 . S
H1262 C1274 0.960 . S
H1263 C1277 0.929 . S
H1264 C1278 0.931 . S
H1265 C1280 0.930 . S
C1266 H1254 0.930 . S
C1266 C1267 1.399 . S
C1266 C1271 1.399 . S
C1267 C1266 1.399 . S
C1267 C1268 1.376 . S
C1268 H1255 0.930 . S
C1268 C1267 1.376 . S
C1268 C1269 1.388 . S
C1269 H1256 0.930 . S
C1269 C1268 1.388 . S
C1269 C1270 1.390 . S
C1270 C1269 1.390 . S
C1270 C1271 1.394 . S
C1270 C1276 1.465 1_455 S
C1271 C1266 1.399 . S
C1271 C1270 1.394 . S
C1271 C1272 1.517 1_455 S
C1272 C1271 1.517 1_655 S
C1272 C1273 1.509 . S
C1272 C1274 1.563 . S
C1272 C1275 1.525 . S
C1273 H1257 0.972 . S
C1273 H1258 0.970 . S
C1273 H1259 0.932 1_655 S
C1273 C1272 1.509 . S
C1274 H1260 0.957 1_655 S
C1274 H1261 0.962 . S
C1274 H1262 0.960 . S
C1274 C1272 1.563 . S
C1275 C1272 1.525 . S
C1275 C1276 1.396 . S
C1275 C1280 1.390 . S
C1276 C1270 1.465 1_655 S
C1276 C1275 1.396 . S
C1276 C1277 1.399 . S
C1277 H1263 0.929 . S
C1277 C1276 1.399 . S
C1277 C1278 1.385 . S
C1278 H1264 0.931 . S
C1278 C1277 1.385 . S
C1278 C1279 1.389 . S
C1279 C1278 1.389 . S
C1279 C1280 1.387 . S
C1280 H1265 0.930 . S
C1280 C1275 1.390 . S
C1280 C1279 1.387 . S
H1281 C1293 0.930 . S
H1282 C1295 0.930 . S
H1283 C1296 0.930 . S
H1284 C1300 0.955 . S
H1285 C1300 0.976 . S
H1286 C1300 0.935 1_565 S
H1287 C1301 0.957 1_565 S
H1288 C1301 0.963 . S
H1289 C1301 0.961 . S
H1290 C1304 0.929 . S
H1291 C1305 0.931 . S
H1292 C1307 0.930 . S
C1293 H1281 0.930 . S
C1293 C1294 1.399 . S
C1293 C1298 1.399 . S
C1294 C1293 1.399 . S
C1294 C1295 1.376 . S
C1295 H1282 0.930 . S
C1295 C1294 1.376 . S
C1295 C1296 1.388 . S
C1296 H1283 0.930 . S
C1296 C1295 1.388 . S
C1296 C1297 1.390 . S
C1297 C1296 1.390 . S
C1297 C1298 1.394 . S
C1297 C1303 1.465 1_565 S
C1298 C1293 1.399 . S
C1298 C1297 1.394 . S
C1298 C1299 1.517 1_565 S
C1299 C1298 1.517 1_545 S
C1299 C1300 1.516 . S
C1299 C1301 1.560 . S
C1299 C1302 1.525 . S
C1300 H1284 0.955 . S
C1300 H1285 0.976 . S
C1300 H1286 0.935 1_545 S
C1300 C1299 1.516 . S
C1301 H1287 0.957 1_545 S
C1301 H1288 0.963 . S
C1301 H1289 0.961 . S
C1301 C1299 1.560 . S
C1302 C1299 1.525 . S
C1302 C1303 1.396 . S
C1302 C1307 1.390 . S
C1303 C1297 1.465 1_545 S
C1303 C1302 1.396 . S
C1303 C1304 1.399 . S
C1304 H1290 0.929 . S
C1304 C1303 1.399 . S
C1304 C1305 1.385 . S
C1305 H1291 0.931 . S
C1305 C1304 1.385 . S
C1305 C1306 1.389 . S
C1306 C1305 1.389 . S
C1306 C1307 1.387 . S
C1307 H1292 0.930 . S
C1307 C1302 1.390 . S
C1307 C1306 1.387 . S
H1308 C1320 0.930 . S
H1309 C1322 0.930 . S
H1310 C1323 0.930 . S
H1311 C1327 0.959 . S
H1312 C1327 0.959 . S
H1313 C1327 0.961 . S
H1314 C1328 0.960 . S
H1315 C1328 0.961 . S
H1316 C1328 0.959 . S
H1317 C1331 0.929 . S
H1318 C1332 0.931 . S
H1319 C1334 0.930 . S
C1320 H1308 0.930 . S
C1320 C1321 1.399 . S
C1320 C1325 1.399 . S
C1321 C1320 1.399 . S
C1321 C1322 1.376 . S
C1322 H1309 0.930 . S
C1322 C1321 1.376 . S
C1322 C1323 1.388 . S
C1323 H1310 0.930 . S
C1323 C1322 1.388 . S
C1323 C1324 1.390 . S
C1324 C1323 1.390 . S
C1324 C1325 1.394 . S
C1324 C1330 1.465 1_556 S
C1325 C1320 1.399 . S
C1325 C1324 1.394 . S
C1325 C1326 1.516 . S
C1326 C1325 1.516 . S
C1326 C1327 1.502 1_556 S
C1326 C1328 1.561 . S
C1326 C1329 1.526 1_556 S
C1327 H1311 0.959 . S
C1327 H1312 0.959 . S
C1327 H1313 0.961 . S
C1327 C1326 1.502 1_554 S
C1328 H1314 0.960 . S
C1328 H1315 0.961 . S
C1328 H1316 0.959 . S
C1328 C1326 1.561 . S
C1329 C1326 1.526 1_554 S
C1329 C1330 1.396 . S
C1329 C1334 1.390 . S
C1330 C1324 1.465 1_554 S
C1330 C1329 1.396 . S
C1330 C1331 1.399 . S
C1331 H1317 0.929 . S
C1331 C1330 1.399 . S
C1331 C1332 1.385 . S
C1332 H1318 0.931 . S
C1332 C1331 1.385 . S
C1332 C1333 1.389 . S
C1333 C1332 1.389 . S
C1333 C1334 1.387 . S
C1334 H1319 0.930 . S
C1334 C1329 1.390 . S
C1334 C1333 1.387 . S
H1335 C1347 0.930 . S
H1336 C1349 0.930 . S
H1337 C1350 0.930 . S
H1338 C1354 0.959 . S
H1339 C1354 0.959 . S
H1340 C1354 0.961 . S
H1341 C1355 0.960 . S
H1342 C1355 0.961 . S
H1343 C1355 0.959 . S
H1344 C1358 0.929 . S
H1345 C1359 0.931 . S
H1346 C1361 0.930 . S
C1347 H1335 0.930 . S
C1347 C1348 1.399 . S
C1347 C1352 1.399 . S
C1348 C1347 1.399 . S
C1348 C1349 1.376 . S
C1349 H1336 0.930 . S
C1349 C1348 1.376 . S
C1349 C1350 1.388 . S
C1350 H1337 0.930 . S
C1350 C1349 1.388 . S
C1350 C1351 1.390 . S
C1351 C1350 1.390 . S
C1351 C1352 1.394 . S
C1351 C1357 1.465 . S
C1352 C1347 1.399 . S
C1352 C1351 1.394 . S
C1352 C1353 1.516 . S
C1353 C1352 1.516 . S
C1353 C1354 1.502 . S
C1353 C1355 1.561 . S
C1353 C1356 1.526 . S
C1354 H1338 0.959 . S
C1354 H1339 0.959 . S
C1354 H1340 0.961 . S
C1354 C1353 1.502 . S
C1355 H1341 0.960 . S
C1355 H1342 0.961 . S
C1355 H1343 0.959 . S
C1355 C1353 1.561 . S
C1356 C1353 1.526 . S
C1356 C1357 1.396 . S
C1356 C1361 1.390 . S
C1357 C1351 1.465 . S
C1357 C1356 1.396 . S
C1357 C1358 1.399 . S
C1358 H1344 0.929 . S
C1358 C1357 1.399 . S
C1358 C1359 1.385 . S
C1359 H1345 0.931 . S
C1359 C1358 1.385 . S
C1359 C1360 1.389 . S
C1360 C1359 1.389 . S
C1360 C1361 1.387 . S
C1361 H1346 0.930 . S
C1361 C1356 1.390 . S
C1361 C1360 1.387 . S
H1362 C1374 0.930 . S
H1363 C1376 0.930 . S
H1364 C1377 0.922 1_554 S
H1365 C1381 0.959 . S
H1366 C1381 0.959 . S
H1367 C1381 0.961 . S
H1368 C1382 0.960 . S
H1369 C1382 0.961 . S
H1370 C1382 0.959 . S
H1371 C1385 0.929 . S
H1372 C1386 0.931 . S
H1373 C1388 0.930 . S
C1374 H1362 0.930 . S
C1374 C1375 1.399 . S
C1374 C1379 1.399 . S
C1375 C1374 1.399 . S
C1375 C1376 1.376 . S
C1376 H1363 0.930 . S
C1376 C1375 1.376 . S
C1376 C1377 1.397 . S
C1377 H1364 0.922 1_556 S
C1377 C1376 1.397 . S
C1377 C1378 1.389 1_556 S
C1378 C1377 1.389 1_554 S
C1378 C1379 1.382 1_554 S
C1378 C1384 1.476 . S
C1379 C1374 1.399 . S
C1379 C1378 1.382 1_556 S
C1379 C1380 1.516 . S
C1380 C1379 1.516 . S
C1380 C1381 1.502 . S
C1380 C1382 1.561 1_556 S
C1380 C1383 1.526 1_556 S
C1381 H1365 0.959 . S
C1381 H1366 0.959 . S
C1381 H1367 0.961 . S
C1381 C1380 1.502 . S
C1382 H1368 0.960 . S
C1382 H1369 0.961 . S
C1382 H1370 0.959 . S
C1382 C1380 1.561 1_554 S
C1383 C1380 1.526 1_554 S
C1383 C1384 1.396 . S
C1383 C1388 1.390 . S
C1384 C1378 1.476 . S
C1384 C1383 1.396 . S
C1384 C1385 1.399 . S
C1385 H1371 0.929 . S
C1385 C1384 1.399 . S
C1385 C1386 1.385 . S
C1386 H1372 0.931 . S
C1386 C1385 1.385 . S
C1386 C1387 1.389 . S
C1387 C1386 1.389 . S
C1387 C1388 1.387 . S
C1388 H1373 0.930 . S
C1388 C1383 1.390 . S
C1388 C1387 1.387 . S
H1389 C1401 0.930 . S
H1390 C1403 0.930 . S
H1391 C1404 0.930 . S
H1392 C1408 0.959 . S
H1393 C1408 0.959 . S
H1394 C1408 0.961 . S
H1395 C1409 0.960 . S
H1396 C1409 0.961 . S
H1397 C1409 0.959 . S
H1398 C1412 0.929 . S
H1399 C1413 0.931 . S
H1400 C1415 0.930 . S
C1401 H1389 0.930 . S
C1401 C1402 1.399 . S
C1401 C1406 1.399 . S
C1402 C1401 1.399 . S
C1402 C1403 1.376 . S
C1403 H1390 0.930 . S
C1403 C1402 1.376 . S
C1403 C1404 1.388 . S
C1404 H1391 0.930 . S
C1404 C1403 1.388 . S
C1404 C1405 1.390 . S
C1405 C1404 1.390 . S
C1405 C1406 1.394 . S
C1405 C1411 1.465 . S
C1406 C1401 1.399 . S
C1406 C1405 1.394 . S
C1406 C1407 1.516 . S
C1407 C1406 1.516 . S
C1407 C1408 1.502 . S
C1407 C1409 1.561 . S
C1407 C1410 1.526 . S
C1408 H1392 0.959 . S
C1408 H1393 0.959 . S
C1408 H1394 0.961 . S
C1408 C1407 1.502 . S
C1409 H1395 0.960 . S
C1409 H1396 0.961 . S
C1409 H1397 0.959 . S
C1409 C1407 1.561 . S
C1410 C1407 1.526 . S
C1410 C1411 1.396 . S
C1410 C1415 1.390 . S
C1411 C1405 1.465 . S
C1411 C1410 1.396 . S
C1411 C1412 1.399 . S
C1412 H1398 0.929 . S
C1412 C1411 1.399 . S
C1412 C1413 1.385 . S
C1413 H1399 0.931 . S
C1413 C1412 1.385 . S
C1413 C1414 1.389 . S
C1414 C1413 1.389 . S
C1414 C1415 1.387 . S
C1415 H1400 0.930 . S
C1415 C1410 1.390 . S
C1415 C1414 1.387 . S
H1416 C1428 0.930 1_554 S
H1417 C1430 0.930 . S
H1418 C1431 0.930 . S
H1419 C1435 0.959 . S
H1420 C1435 0.959 . S
H1421 C1435 0.961 . S
H1422 C1436 0.960 . S
H1423 C1436 0.961 . S
H1424 C1436 0.959 . S
H1425 C1439 0.929 . S
H1426 C1440 0.931 . S
H1427 C1442 0.930 . S
C1428 H1416 0.930 1_556 S
C1428 C1429 1.399 . S
C1428 C1433 1.399 1_556 S
C1429 C1428 1.399 . S
C1429 C1430 1.376 . S
C1430 H1417 0.930 . S
C1430 C1429 1.376 . S
C1430 C1431 1.388 . S
C1431 H1418 0.930 . S
C1431 C1430 1.388 . S
C1431 C1432 1.390 . S
C1432 C1431 1.390 . S
C1432 C1433 1.394 1_556 S
C1432 C1438 1.465 . S
C1433 C1428 1.399 1_554 S
C1433 C1432 1.394 1_554 S
C1433 C1434 1.516 . S
C1434 C1433 1.516 . S
C1434 C1435 1.502 . S
C1434 C1436 1.561 . S
C1434 C1437 1.526 . S
C1435 H1419 0.959 . S
C1435 H1420 0.959 . S
C1435 H1421 0.961 . S
C1435 C1434 1.502 . S
C1436 H1422 0.960 . S
C1436 H1423 0.961 . S
C1436 H1424 0.959 . S
C1436 C1434 1.561 . S
C1437 C1434 1.526 . S
C1437 C1438 1.396 1_554 S
C1437 C1442 1.390 . S
C1438 C1432 1.465 . S
C1438 C1437 1.396 1_556 S
C1438 C1439 1.399 . S
C1439 H1425 0.929 . S
C1439 C1438 1.399 . S
C1439 C1440 1.385 . S
C1440 H1426 0.931 . S
C1440 C1439 1.385 . S
C1440 C1441 1.389 1_556 S
C1441 C1440 1.389 1_554 S
C1441 C1442 1.387 . S
C1442 H1427 0.930 . S
C1442 C1437 1.390 . S
C1442 C1441 1.387 . S
H1443 C1455 0.930 . S
H1444 C1457 0.930 . S
H1445 C1458 0.930 . S
H1446 C1462 0.959 . S
H1447 C1462 0.959 . S
H1448 C1462 0.961 . S
H1449 C1463 0.960 . S
H1450 C1463 0.961 . S
H1451 C1463 0.959 . S
H1452 C1466 0.929 . S
H1453 C1467 0.931 . S
H1454 C1469 0.930 . S
C1455 H1443 0.930 . S
C1455 C1456 1.399 . S
C1455 C1460 1.399 . S
C1456 C1455 1.399 . S
C1456 C1457 1.376 . S
C1457 H1444 0.930 . S
C1457 C1456 1.376 . S
C1457 C1458 1.388 . S
C1458 H1445 0.930 . S
C1458 C1457 1.388 . S
C1458 C1459 1.390 . S
C1459 C1458 1.390 . S
C1459 C1460 1.394 . S
C1459 C1465 1.465 . S
C1460 C1455 1.399 . S
C1460 C1459 1.394 . S
C1460 C1461 1.516 . S
C1461 C1460 1.516 . S
C1461 C1462 1.502 . S
C1461 C1463 1.561 . S
C1461 C1464 1.526 . S
C1462 H1446 0.959 . S
C1462 H1447 0.959 . S
C1462 H1448 0.961 . S
C1462 C1461 1.502 . S
C1463 H1449 0.960 . S
C1463 H1450 0.961 . S
C1463 H1451 0.959 . S
C1463 C1461 1.561 . S
C1464 C1461 1.526 . S
C1464 C1465 1.396 . S
C1464 C1469 1.390 . S
C1465 C1459 1.465 . S
C1465 C1464 1.396 . S
C1465 C1466 1.399 . S
C1466 H1452 0.929 . S
C1466 C1465 1.399 . S
C1466 C1467 1.385 . S
C1467 H1453 0.931 . S
C1467 C1466 1.385 . S
C1467 C1468 1.389 . S
C1468 C1467 1.389 . S
C1468 C1469 1.387 . S
C1469 H1454 0.930 . S
C1469 C1464 1.390 . S
C1469 C1468 1.387 . S
H1470 C1482 0.930 . S
H1471 C1484 0.930 . S
H1472 C1485 0.930 . S
H1473 C1489 0.959 . S
H1474 C1489 0.959 . S
H1475 C1489 0.961 . S
H1476 C1490 0.960 . S
H1477 C1490 0.961 . S
H1478 C1490 0.959 . S
H1479 C1493 0.929 . S
H1480 C1494 0.931 . S
H1481 C1496 0.930 1_554 S
C1482 H1470 0.930 . S
C1482 C1483 1.399 . S
C1482 C1487 1.399 . S
C1483 C1482 1.399 . S
C1483 C1484 1.376 1_554 S
C1484 H1471 0.930 . S
C1484 C1483 1.376 1_556 S
C1484 C1485 1.388 . S
C1485 H1472 0.930 . S
C1485 C1484 1.388 . S
C1485 C1486 1.390 . S
C1486 C1485 1.390 . S
C1486 C1487 1.394 1_556 S
C1486 C1492 1.465 . S
C1487 C1482 1.399 . S
C1487 C1486 1.394 1_554 S
C1487 C1488 1.516 . S
C1488 C1487 1.516 . S
C1488 C1489 1.502 . S
C1488 C1490 1.561 . S
C1488 C1491 1.526 . S
C1489 H1473 0.959 . S
C1489 H1474 0.959 . S
C1489 H1475 0.961 . S
C1489 C1488 1.502 . S
C1490 H1476 0.960 . S
C1490 H1477 0.961 . S
C1490 H1478 0.959 . S
C1490 C1488 1.561 . S
C1491 C1488 1.526 . S
C1491 C1492 1.396 1_554 S
C1491 C1496 1.390 1_554 S
C1492 C1486 1.465 . S
C1492 C1491 1.396 1_556 S
C1492 C1493 1.399 . S
C1493 H1479 0.929 . S
C1493 C1492 1.399 . S
C1493 C1494 1.385 . S
C1494 H1480 0.931 . S
C1494 C1493 1.385 . S
C1494 C1495 1.389 . S
C1495 C1494 1.389 . S
C1495 C1496 1.387 . S
C1496 H1481 0.930 1_556 S
C1496 C1491 1.390 1_556 S
C1496 C1495 1.387 . S
H1497 C1509 0.930 . S
H1498 C1511 0.930 . S
H1499 C1512 0.930 . S
H1500 C1516 0.959 . S
H1501 C1516 0.959 . S
H1502 C1516 0.961 . S
H1503 C1517 0.960 . S
H1504 C1517 0.961 . S
H1505 C1517 0.959 . S
H1506 C1520 0.929 . S
H1507 C1521 0.931 . S
H1508 C1523 0.930 . S
C1509 H1497 0.930 . S
C1509 C1510 1.399 . S
C1509 C1514 1.399 . S
C1510 C1509 1.399 . S
C1510 C1511 1.376 . S
C1511 H1498 0.930 . S
C1511 C1510 1.376 . S
C1511 C1512 1.388 . S
C1512 H1499 0.930 . S
C1512 C1511 1.388 . S
C1512 C1513 1.390 . S
C1513 C1512 1.390 . S
C1513 C1514 1.394 . S
C1513 C1519 1.465 . S
C1514 C1509 1.399 . S
C1514 C1513 1.394 . S
C1514 C1515 1.516 . S
C1515 C1514 1.516 . S
C1515 C1516 1.502 . S
C1515 C1517 1.561 . S
C1515 C1518 1.526 . S
C1516 H1500 0.959 . S
C1516 H1501 0.959 . S
C1516 H1502 0.961 . S
C1516 C1515 1.502 . S
C1517 H1503 0.960 . S
C1517 H1504 0.961 . S
C1517 H1505 0.959 . S
C1517 C1515 1.561 . S
C1518 C1515 1.526 . S
C1518 C1519 1.396 . S
C1518 C1523 1.390 . S
C1519 C1513 1.465 . S
C1519 C1518 1.396 . S
C1519 C1520 1.399 . S
C1520 H1506 0.929 . S
C1520 C1519 1.399 . S
C1520 C1521 1.385 . S
C1521 H1507 0.931 . S
C1521 C1520 1.385 . S
C1521 C1522 1.389 . S
C1522 C1521 1.389 . S
C1522 C1523 1.387 . S
C1523 H1508 0.930 . S
C1523 C1518 1.390 . S
C1523 C1522 1.387 . S
H1524 C1536 0.930 . S
H1525 C1538 0.930 . S
H1526 C1539 0.930 . S
H1527 C1543 0.959 . S
H1528 C1543 0.959 . S
H1529 C1543 0.961 . S
H1530 C1544 0.966 . S
H1531 C1544 0.960 1_556 S
H1532 C1544 0.948 1_556 S
H1533 C1547 0.929 . S
H1534 C1548 0.931 . S
H1535 C1550 0.930 . S
C1536 H1524 0.930 . S
C1536 C1537 1.399 . S
C1536 C1541 1.399 . S
C1537 C1536 1.399 . S
C1537 C1538 1.376 . S
C1538 H1525 0.930 . S
C1538 C1537 1.376 . S
C1538 C1539 1.388 1_554 S
C1539 H1526 0.930 . S
C1539 C1538 1.388 1_556 S
C1539 C1540 1.390 . S
C1540 C1539 1.390 . S
C1540 C1541 1.394 1_556 S
C1540 C1546 1.465 . S
C1541 C1536 1.399 . S
C1541 C1540 1.394 1_554 S
C1541 C1542 1.516 . S
C1542 C1541 1.516 . S
C1542 C1543 1.502 . S
C1542 C1544 1.566 . S
C1542 C1545 1.526 1_554 S
C1543 H1527 0.959 . S
C1543 H1528 0.959 . S
C1543 H1529 0.961 . S
C1543 C1542 1.502 . S
C1544 H1530 0.966 . S
C1544 H1531 0.960 1_554 S
C1544 H1532 0.948 1_554 S
C1544 C1542 1.566 . S
C1545 C1542 1.526 1_556 S
C1545 C1546 1.396 . S
C1545 C1550 1.390 . S
C1546 C1540 1.465 . S
C1546 C1545 1.396 . S
C1546 C1547 1.399 . S
C1547 H1533 0.929 . S
C1547 C1546 1.399 . S
C1547 C1548 1.385 . S
C1548 H1534 0.931 . S
C1548 C1547 1.385 . S
C1548 C1549 1.389 . S
C1549 C1548 1.389 . S
C1549 C1550 1.387 . S
C1550 H1535 0.930 . S
C1550 C1545 1.390 . S
C1550 C1549 1.387 . S
H1551 C1563 0.930 . S
H1552 C1565 0.930 . S
H1553 C1566 0.930 . S
H1554 C1570 0.959 . S
H1555 C1570 0.959 . S
H1556 C1570 0.961 . S
H1557 C1571 0.960 . S
H1558 C1571 0.961 . S
H1559 C1571 0.959 . S
H1560 C1574 0.929 . S
H1561 C1575 0.931 . S
H1562 C1577 0.930 . S
C1563 H1551 0.930 . S
C1563 C1564 1.399 . S
C1563 C1568 1.399 . S
C1564 C1563 1.399 . S
C1564 C1565 1.376 . S
C1565 H1552 0.930 . S
C1565 C1564 1.376 . S
C1565 C1566 1.388 . S
C1566 H1553 0.930 . S
C1566 C1565 1.388 . S
C1566 C1567 1.390 . S
C1567 C1566 1.390 . S
C1567 C1568 1.394 . S
C1567 C1573 1.465 . S
C1568 C1563 1.399 . S
C1568 C1567 1.394 . S
C1568 C1569 1.516 . S
C1569 C1568 1.516 . S
C1569 C1570 1.502 . S
C1569 C1571 1.561 . S
C1569 C1572 1.526 . S
C1570 H1554 0.959 . S
C1570 H1555 0.959 . S
C1570 H1556 0.961 . S
C1570 C1569 1.502 . S
C1571 H1557 0.960 . S
C1571 H1558 0.961 . S
C1571 H1559 0.959 . S
C1571 C1569 1.561 . S
C1572 C1569 1.526 . S
C1572 C1573 1.396 . S
C1572 C1577 1.390 . S
C1573 C1567 1.465 . S
C1573 C1572 1.396 . S
C1573 C1574 1.399 . S
C1574 H1560 0.929 . S
C1574 C1573 1.399 . S
C1574 C1575 1.385 . S
C1575 H1561 0.931 . S
C1575 C1574 1.385 . S
C1575 C1576 1.389 . S
C1576 C1575 1.389 . S
C1576 C1577 1.387 . S
C1577 H1562 0.930 . S
C1577 C1572 1.390 . S
C1577 C1576 1.387 . S
H1578 C1590 0.930 1_554 S
H1579 C1592 0.930 . S
H1580 C1593 0.930 . S
H1581 C1597 0.959 . S
H1582 C1597 0.959 . S
H1583 C1597 0.961 . S
H1584 C1598 0.960 . S
H1585 C1598 0.961 . S
H1586 C1598 0.959 . S
H1587 C1601 0.929 . S
H1588 C1602 0.931 1_556 S
H1589 C1604 0.930 . S
C1590 H1578 0.930 1_556 S
C1590 C1591 1.399 . S
C1590 C1595 1.399 1_556 S
C1591 C1590 1.399 . S
C1591 C1592 1.376 . S
C1592 H1579 0.930 . S
C1592 C1591 1.376 . S
C1592 C1593 1.388 . S
C1593 H1580 0.930 . S
C1593 C1592 1.388 . S
C1593 C1594 1.390 . S
C1594 C1593 1.390 . S
C1594 C1595 1.394 1_556 S
C1594 C1600 1.465 . S
C1595 C1590 1.399 1_554 S
C1595 C1594 1.394 1_554 S
C1595 C1596 1.516 . S
C1596 C1595 1.516 . S
C1596 C1597 1.502 . S
C1596 C1598 1.561 . S
C1596 C1599 1.526 . S
C1597 H1581 0.959 . S
C1597 H1582 0.959 . S
C1597 H1583 0.961 . S
C1597 C1596 1.502 . S
C1598 H1584 0.960 . S
C1598 H1585 0.961 . S
C1598 H1586 0.959 . S
C1598 C1596 1.561 . S
C1599 C1596 1.526 . S
C1599 C1600 1.396 1_554 S
C1599 C1604 1.390 . S
C1600 C1594 1.465 . S
C1600 C1599 1.396 1_556 S
C1600 C1601 1.399 . S
C1601 H1587 0.929 . S
C1601 C1600 1.399 . S
C1601 C1602 1.385 1_556 S
C1602 H1588 0.931 1_554 S
C1602 C1601 1.385 1_554 S
C1602 C1603 1.389 . S
C1603 C1602 1.389 . S
C1603 C1604 1.387 . S
C1604 H1589 0.930 . S
C1604 C1599 1.390 . S
C1604 C1603 1.387 . S
H1605 C1617 0.930 . S
H1606 C1619 0.930 . S
H1607 C1620 0.930 . S
H1608 C1624 0.959 . S
H1609 C1624 0.959 . S
H1610 C1624 0.961 . S
H1611 C1625 0.960 . S
H1612 C1625 0.961 . S
H1613 C1625 0.959 . S
H1614 C1628 0.929 . S
H1615 C1629 0.931 . S
H1616 C1631 0.930 . S
C1617 H1605 0.930 . S
C1617 C1618 1.399 . S
C1617 C1622 1.399 . S
C1618 C1617 1.399 . S
C1618 C1619 1.376 . S
C1619 H1606 0.930 . S
C1619 C1618 1.376 . S
C1619 C1620 1.388 . S
C1620 H1607 0.930 . S
C1620 C1619 1.388 . S
C1620 C1621 1.390 . S
C1621 C1620 1.390 . S
C1621 C1622 1.394 . S
C1621 C1627 1.465 . S
C1622 C1617 1.399 . S
C1622 C1621 1.394 . S
C1622 C1623 1.516 . S
C1623 C1622 1.516 . S
C1623 C1624 1.502 . S
C1623 C1625 1.561 . S
C1623 C1626 1.526 . S
C1624 H1608 0.959 . S
C1624 H1609 0.959 . S
C1624 H1610 0.961 . S
C1624 C1623 1.502 . S
C1625 H1611 0.960 . S
C1625 H1612 0.961 . S
C1625 H1613 0.959 . S
C1625 C1623 1.561 . S
C1626 C1623 1.526 . S
C1626 C1627 1.396 . S
C1626 C1631 1.390 . S
C1627 C1621 1.465 . S
C1627 C1626 1.396 . S
C1627 C1628 1.399 . S
C1628 H1614 0.929 . S
C1628 C1627 1.399 . S
C1628 C1629 1.385 . S
C1629 H1615 0.931 . S
C1629 C1628 1.385 . S
C1629 C1630 1.389 . S
C1630 C1629 1.389 . S
C1630 C1631 1.387 . S
C1631 H1616 0.930 . S
C1631 C1626 1.390 . S
C1631 C1630 1.387 . S
C349 C7 1.471 . S
C361 C217 1.474 . S
C376 C21 1.476 . S
C388 C231 1.473 . S
C403 C245 1.512 . S
C415 C35 1.509 . S
C430 C175 1.485 . S
C442 C49 1.492 . S
C457 C189 1.505 . S
C469 C63 1.509 . S
C484 C203 1.511 . S
C496 C77 1.508 . S
C511 C301 1.503 . S
C523 C91 1.508 . S
C538 C105 1.511 . S
C550 C315 1.508 . S
C565 C329 1.512 . S
C577 C119 1.510 . S
C592 C133 1.507 . S
C604 C259 1.510 . S
C619 C273 1.500 . S
C631 C147 1.494 . S
C646 C161 1.496 . S
C658 C287 1.502 . S
C673 C151 1.231 . S
C685 C11 1.214 . S
C700 C165 1.201 . S
C712 C25 1.184 . S
C727 C39 1.184 . S
C739 C95 1.198 . S
C754 C53 1.231 . S
C766 C109 1.214 . S
C781 C123 1.196 . S
C793 C67 1.232 . S
C808 C81 1.191 . S
C820 C137 1.229 . S
C835 C319 1.204 . S
C847 C179 1.191 . S
C862 C193 1.182 . S
C874 C333 1.218 . S
C889 C207 1.229 . S
C901 C263 1.203 . S
C916 C277 1.208 . S
C928 C221 1.226 . S
C943 C235 1.200 . S
C955 C291 1.195 . S
C970 C249 1.191 . S
C982 C305 1.233 . S
C997 C8 1.121 . S
C1009 C260 1.103 . S
C1024 C274 1.130 . S
C1036 C22 1.115 . S
C1051 C36 1.139 . S
C1063 C288 1.128 . S
C1078 C50 1.035 . S
C1090 C302 1.053 . S
C1105 C316 1.033 . S
C1117 C64 1.051 . S
C1132 C78 1.123 . S
C1144 C330 1.106 . S
C1159 C92 1.142 . S
C1171 C176 1.133 . S
C1186 C106 1.037 . S
C1198 C190 1.055 . S
C1213 C204 1.044 . S
C1225 C120 1.064 . S
C1240 C218 1.052 . S
C1252 C134 1.072 . S
C1267 C148 1.030 . S
C1279 C232 1.020 . S
C1294 C246 1.026 . S
C1306 C162 1.042 . S
C1321 C97 1.416 . S
C1333 C13 1.434 . S
C1348 C27 1.410 . S
C1360 C111 1.464 . S
C1375 C125 1.514 . S
C1387 C41 1.474 . S
C1402 C139 1.440 . S
C1414 C55 1.506 . S
C1429 C153 1.445 . S
C1441 C69 1.508 . S
C1456 C83 1.410 . S
C1468 C167 1.450 . S
C1483 C265 1.514 . S
C1495 C181 1.432 . S
C1510 C195 1.514 . S
C1522 C279 1.441 . S
C1537 C293 1.481 . S
C1549 C209 1.412 . S
C1564 C307 1.471 . S
C1576 C223 1.503 . S
C1591 C237 1.414 . S
C1603 C321 1.469 . S
C1618 C251 1.480 . S
C1630 C335 1.496 . S
