# Generated by pormake.
# Topology vbm, (6)-cn, num edge types: 1
# Building blocks:
#     Node 0, Type 0, BuildingBlock: INOVEN_clean_sbu_0, # of connection points: 6
#     Node 1, Type 0, BuildingBlock: INOVEN_clean_sbu_0, # of connection points: 6
#     Node 2, Type 0, BuildingBlock: INOVEN_clean_sbu_0, # of connection points: 6
#     Node 3, Type 0, BuildingBlock: INOVEN_clean_sbu_0, # of connection points: 6
#     Node 4, Type 0, BuildingBlock: INOVEN_clean_sbu_0, # of connection points: 6
#     Node 5, Type 0, BuildingBlock: INOVEN_clean_sbu_0, # of connection points: 6
#     Node 6, Type 0, BuildingBlock: INOVEN_clean_sbu_0, # of connection points: 6
#     Node 7, Type 0, BuildingBlock: INOVEN_clean_sbu_0, # of connection points: 6
#     Node 8, Type 0, BuildingBlock: INOVEN_clean_sbu_0, # of connection points: 6
#     Node 9, Type 0, BuildingBlock: INOVEN_clean_sbu_0, # of connection points: 6
#     Node 10, Type 0, BuildingBlock: INOVEN_clean_sbu_0, # of connection points: 6
#     Node 11, Type 0, BuildingBlock: INOVEN_clean_sbu_0, # of connection points: 6
#     Node 12, Type 0, BuildingBlock: INOVEN_clean_sbu_0, # of connection points: 6
#     Node 13, Type 0, BuildingBlock: INOVEN_clean_sbu_0, # of connection points: 6
#     Node 14, Type 0, BuildingBlock: INOVEN_clean_sbu_0, # of connection points: 6
#     Node 15, Type 0, BuildingBlock: INOVEN_clean_sbu_0, # of connection points: 6
#     Edge 16, Type (0, 0), None
#     Edge 17, Type (0, 0), None
#     Edge 18, Type (0, 0), None
#     Edge 19, Type (0, 0), None
#     Edge 20, Type (0, 0), None
#     Edge 21, Type (0, 0), None
#     Edge 22, Type (0, 0), None
#     Edge 23, Type (0, 0), None
#     Edge 24, Type (0, 0), None
#     Edge 25, Type (0, 0), None
#     Edge 26, Type (0, 0), None
#     Edge 27, Type (0, 0), None
#     Edge 28, Type (0, 0), None
#     Edge 29, Type (0, 0), None
#     Edge 30, Type (0, 0), None
#     Edge 31, Type (0, 0), None
#     Edge 32, Type (0, 0), None
#     Edge 33, Type (0, 0), None
#     Edge 34, Type (0, 0), None
#     Edge 35, Type (0, 0), None
#     Edge 36, Type (0, 0), None
#     Edge 37, Type (0, 0), None
#     Edge 38, Type (0, 0), None
#     Edge 39, Type (0, 0), None
#     Edge 40, Type (0, 0), None
#     Edge 41, Type (0, 0), None
#     Edge 42, Type (0, 0), None
#     Edge 43, Type (0, 0), None
#     Edge 44, Type (0, 0), None
#     Edge 45, Type (0, 0), None
#     Edge 46, Type (0, 0), None
#     Edge 47, Type (0, 0), None
#     Edge 48, Type (0, 0), None
#     Edge 49, Type (0, 0), None
#     Edge 50, Type (0, 0), None
#     Edge 51, Type (0, 0), None
#     Edge 52, Type (0, 0), None
#     Edge 53, Type (0, 0), None
#     Edge 54, Type (0, 0), None
#     Edge 55, Type (0, 0), None
#     Edge 56, Type (0, 0), None
#     Edge 57, Type (0, 0), None
#     Edge 58, Type (0, 0), None
#     Edge 59, Type (0, 0), None
#     Edge 60, Type (0, 0), None
#     Edge 61, Type (0, 0), None
#     Edge 62, Type (0, 0), None
#     Edge 63, Type (0, 0), None
# Relax obj value: 0.088
# Max RMSD: 0.201
# Mean RMSD: 0.201
data_MOF--net-vbm--node1-INOVEN_clean_sbu_0--edge1-none
_symmetry_space_group_name_H-M    P1
_symmetry_Int_Tables_number       1
_symmetry_cell_setting            triclinic
loop_
_symmetry_equiv_pos_as_xyz
'x, y, z'
_cell_length_a     23.417893
_cell_length_b     15.833163
_cell_length_c     22.908764
_cell_angle_alpha  90.092965
_cell_angle_beta   90.080914
_cell_angle_gamma 89.877617
loop_
_atom_site_label
_atom_site_type_symbol
_atom_site_fract_x
_atom_site_fract_y
_atom_site_fract_z
_atom_type_partial_charge
Gd0 Gd 0.10381 0.13887 0.16563 0.0
Gd1 Gd 0.02788 0.2652 0.19076 0.0
C2 C -0.03671 0.11526 0.14359 0.0
C3 C 0.15271 0.99379 0.15993 0.0
C4 C 0.12839 0.90899 0.16572 0.0
C5 C 0.08068 0.88431 0.13279 0.0
C6 C 0.15065 0.85397 0.20749 0.0
C7 C 0.08253 0.7454 0.17822 0.0
C8 C 0.12864 0.77285 0.21324 0.0
C9 C 0.05783 0.80371 0.13918 0.0
C10 C 0.09643 0.24155 0.0721 0.0
C11 C 0.16046 0.3166 0.19551 0.0
C12 C -0.01563 0.41152 0.20355 0.0
C13 C 0.01209 0.49443 0.19499 0.0
C14 C 0.0478 0.52798 0.23813 0.0
C15 C 0.00451 0.53996 0.14303 0.0
C16 C 0.06 0.65736 0.18273 0.0
C17 C 0.02881 0.61998 0.13662 0.0
C18 C 0.06964 0.60907 0.23328 0.0
C19 C 0.03293 0.13969 0.27529 0.0
O20 O 0.01376 1.07889 0.15423 0.0
O21 O -0.04198 0.19695 0.14761 0.0
O22 O 0.13774 1.03646 0.11368 0.0
O23 O 0.15225 1.03918 0.20752 0.0
O24 O 0.14358 0.21822 0.09704 0.0
O25 O 0.05443 0.21646 0.10256 0.0
O26 O 0.10845 0.34344 0.18637 0.0
O27 O 0.1702 0.23422 0.1966 0.0
O28 O 0.00158 0.36637 0.24805 0.0
O29 O -0.0243 0.36667 0.15642 0.0
O30 O -0.01343 0.17568 0.25691 0.0
O31 O 0.07463 0.17605 0.25107 0.0
H32 H 0.06091 0.92708 0.10189 0.0
H33 H 0.18576 0.87336 0.23524 0.0
H34 H 0.14959 0.7319 0.24426 0.0
H35 H 0.02053 0.78817 0.11352 0.0
H36 H 0.05878 0.49216 0.27628 0.0
H37 H -0.021 0.51447 0.10768 0.0
H38 H 0.02252 0.65196 0.09545 0.0
H39 H 0.09303 0.63325 0.27033 0.0
Gd40 Gd 0.76924 1.04204 0.15573 0.0
Gd41 Gd 0.84472 0.91223 0.18481 0.0
C42 C 0.91044 1.06444 0.14185 0.0
C43 C 0.72339 0.18787 0.13707 0.0
C44 C 0.74593 0.27463 0.14153 0.0
C45 C 0.74688 0.3271 0.09218 0.0
C46 C 0.76771 0.3053 0.19452 0.0
C47 C 0.79092 0.43962 0.14877 0.0
C48 C 0.78838 0.38744 0.19834 0.0
C49 C 0.76952 0.40884 0.09551 0.0
C50 C 0.77548 0.9308 0.06672 0.0
C51 C 0.71029 0.86809 0.19372 0.0
C52 C 0.89162 0.76595 0.19031 0.0
C53 C 0.86814 0.68332 0.17378 0.0
C54 C 0.89137 0.61139 0.19876 0.0
C55 C 0.82117 0.67539 0.13559 0.0
C56 C 0.81831 0.52397 0.15349 0.0
C57 C 0.79631 0.59603 0.1255 0.0
C58 C 0.86678 0.53276 0.1888 0.0
C59 C 0.83955 1.03905 0.26853 0.0
O60 O 0.85979 0.10088 0.15056 0.0
O61 O 0.91548 0.98277 0.14521 0.0
O62 O 0.74551 0.14179 0.09565 0.0
O63 O 0.71691 0.14603 0.18587 0.0
O64 O 0.72867 0.95718 0.09048 0.0
O65 O 0.81762 0.95795 0.09625 0.0
O66 O 0.76225 0.83883 0.18773 0.0
O67 O 0.70097 0.95064 0.18925 0.0
O68 O 0.8682 0.80223 0.23581 0.0
O69 O 0.90027 0.81791 0.14707 0.0
O70 O 0.8854 0.99808 0.25393 0.0
O71 O 0.79775 1.00584 0.24223 0.0
H72 H 0.73075 0.30411 0.05093 0.0
H73 H 0.76747 0.26681 0.23354 0.0
H74 H 0.80221 0.41043 0.24049 0.0
H75 H 0.77098 0.44722 0.05646 0.0
H76 H 0.92818 0.61653 0.22688 0.0
H77 H 0.80313 0.73042 0.11446 0.0
H78 H 0.75904 0.59164 0.09762 0.0
H79 H 0.88482 0.47835 0.21007 0.0
Gd80 Gd 0.10318 1.04691 0.42359 0.0
Gd81 Gd 0.03178 0.92104 0.38575 0.0
C82 C -0.03764 1.06041 0.43834 0.0
C83 C 0.14409 0.19272 0.45253 0.0
C84 C 0.11995 0.27809 0.44467 0.0
C85 C 0.12069 0.33775 0.49001 0.0
C86 C 0.09299 0.29894 0.39223 0.0
C87 C 0.07134 0.44068 0.42837 0.0
C88 C 0.06993 0.37887 0.38402 0.0
C89 C 0.09673 0.41834 0.48209 0.0
C90 C 0.09821 0.9285 0.50762 0.0
C91 C 0.16494 0.8778 0.38022 0.0
C92 C -0.01021 0.77455 0.36492 0.0
C93 C 0.00964 0.69099 0.38458 0.0
C94 C -0.01021 0.62014 0.35571 0.0
C95 C 0.04852 0.68077 0.43094 0.0
C96 C 0.04753 0.52743 0.41711 0.0
C97 C 0.06829 0.59983 0.44626 0.0
C98 C 0.0058 0.53945 0.37356 0.0
C99 C 0.03425 1.05765 0.30934 0.0
O100 O 0.01134 0.10052 0.42882 0.0
O101 O -0.03959 0.97872 0.43339 0.0
O102 O 0.11634 0.14478 0.48879 0.0
O103 O 0.15875 0.1523 0.40496 0.0
O104 O 0.14466 0.95792 0.48522 0.0
O105 O 0.05578 0.95535 0.47826 0.0
O106 O 0.11367 0.84769 0.38706 0.0
O107 O 0.17323 0.96037 0.38631 0.0
O108 O 0.02269 0.81354 0.32758 0.0
O109 O -0.02993 0.8241 0.4058 0.0
O110 O -0.01046 1.01314 0.32163 0.0
O111 O 0.07687 1.02347 0.33382 0.0
H112 H 0.13926 0.3217 0.53167 0.0
H113 H 0.09065 0.25392 0.35674 0.0
H114 H 0.05211 0.39133 0.34185 0.0
H115 H 0.09787 0.46229 0.51825 0.0
H116 H -0.03747 0.6282 0.31836 0.0
H117 H 0.0646 0.7352 0.45437 0.0
H118 H 0.10066 0.59481 0.47981 0.0
H119 H -0.01332 0.48675 0.35104 0.0
Gd120 Gd 0.76817 0.12546 0.41623 0.0
Gd121 Gd 0.84129 0.25096 0.38486 0.0
C122 C 0.90813 0.10744 0.43689 0.0
C123 C 0.72213 0.9796 0.43271 0.0
C124 C 0.74319 0.89294 0.42285 0.0
C125 C 0.74625 0.83619 0.46949 0.0
C126 C 0.76034 0.86603 0.36721 0.0
C127 C 0.7849 0.72681 0.40548 0.0
C128 C 0.779 0.78341 0.35833 0.0
C129 C 0.76831 0.7549 0.46144 0.0
C130 C 0.77582 0.23539 0.50619 0.0
C131 C 0.70806 0.29908 0.37968 0.0
C132 C 0.8848 0.39624 0.36712 0.0
C133 C 0.85865 0.47903 0.37867 0.0
C134 C 0.86736 0.54328 0.33887 0.0
C135 C 0.82289 0.49363 0.42684 0.0
C136 C 0.80882 0.64 0.39605 0.0
C137 C 0.79752 0.573 0.43502 0.0
C138 C 0.84441 0.62336 0.34784 0.0
C139 C 0.83899 0.11925 0.30462 0.0
O140 O 0.8591 1.06833 0.42514 0.0
O141 O 0.91102 0.18918 0.43253 0.0
O142 O 0.74765 1.02159 0.47414 0.0
O143 O 0.71263 1.02555 0.38635 0.0
O144 O 0.72863 0.20986 0.48265 0.0
O145 O 0.81732 0.20945 0.47543 0.0
O146 O 0.75989 0.32747 0.38678 0.0
O147 O 0.69914 0.21658 0.38316 0.0
O148 O 0.86126 0.35237 0.32515 0.0
O149 O 0.89758 0.35115 0.413 0.0
O150 O 0.88437 0.15927 0.32114 0.0
O151 O 0.79624 0.15434 0.32819 0.0
H152 H 0.73148 0.85507 0.51222 0.0
H153 H 0.75733 0.90766 0.32993 0.0
H154 H 0.78772 0.76435 0.31395 0.0
H155 H 0.77202 0.7147 0.49932 0.0
H156 H 0.89462 0.53141 0.30215 0.0
H157 H 0.81406 0.44368 0.45778 0.0
H158 H 0.76896 0.58087 0.47167 0.0
H159 H 0.85641 0.67218 0.31744 0.0
Gd160 Gd 0.84457 0.90932 0.88373 0.0
Gd161 Gd 0.76892 1.0344 0.91051 0.0
C162 C 0.71182 0.8578 0.87722 0.0
C163 C 0.89039 0.76499 0.86934 0.0
C164 C 0.86512 0.68061 0.87876 0.0
C165 C 0.83206 0.64407 0.83504 0.0
C166 C 0.87263 0.6364 0.93126 0.0
C167 C 0.82117 0.51498 0.891 0.0
C168 C 0.85002 0.55519 0.93775 0.0
C169 C 0.81246 0.5619 0.83958 0.0
C170 C 0.8431 1.04008 0.80257 0.0
C171 C 0.90837 1.05531 0.93618 0.0
C172 C 0.72406 0.18129 0.91833 0.0
C173 C 0.75125 0.26403 0.91033 0.0
C174 C 0.79433 0.29247 0.94814 0.0
C175 C 0.73614 0.31358 0.86243 0.0
C176 C 0.79926 0.4263 0.8959 0.0
C177 C 0.75855 0.39422 0.85598 0.0
C178 C 0.81848 0.37208 0.94066 0.0
C179 C 0.7752 0.92909 1.00234 0.0
O180 O 0.76398 0.83076 0.88554 0.0
O181 O 0.70194 0.94025 0.87822 0.0
O182 O 0.87049 0.80918 0.82539 0.0
O183 O 0.89961 0.81008 0.91618 0.0
O184 O 0.88844 1.00162 0.82107 0.0
O185 O 0.80042 1.00319 0.8246 0.0
O186 O 0.85894 0.09308 0.92366 0.0
O187 O 0.91246 0.9736 0.9323 0.0
O188 O 0.73967 0.13812 0.96417 0.0
O189 O 0.71949 0.13509 0.87127 0.0
O190 O 0.72814 0.95394 0.97792 0.0
O191 O 0.81742 0.95443 0.97244 0.0
H192 H 0.8217 0.67921 0.79669 0.0
H193 H 0.89637 0.66408 0.96711 0.0
H194 H 0.85566 0.52508 0.97962 0.0
H195 H 0.79126 0.53666 0.80161 0.0
H196 H 0.80952 0.25341 0.98372 0.0
H197 H 0.70537 0.29098 0.83074 0.0
H198 H 0.74152 0.43086 0.82037 0.0
H199 H 0.85214 0.38998 0.97043 0.0
Gd200 Gd 0.03055 0.24584 0.88641 0.0
Gd201 Gd 0.10276 0.11849 0.92391 0.0
C202 C 0.16501 0.28563 0.87938 0.0
C203 C -0.01375 0.3927 0.86963 0.0
C204 C 0.00672 0.47613 0.88889 0.0
C205 C -0.01886 0.54827 0.86651 0.0
C206 C 0.05227 0.4848 0.92865 0.0
C207 C 0.04943 0.63808 0.91785 0.0
C208 C 0.07364 0.56508 0.94287 0.0
C209 C 0.00241 0.62784 0.88037 0.0
C210 C 0.03407 0.1097 0.80912 0.0
C211 C -0.03798 0.10351 0.93747 0.0
C212 C 0.14406 0.97286 0.95258 0.0
C213 C 0.1202 0.88751 0.94475 0.0
C214 C 0.12188 0.8279 0.98996 0.0
C215 C 0.09282 0.86644 0.89251 0.0
C216 C 0.07352 0.72433 0.92837 0.0
C217 C 0.07039 0.78619 0.88434 0.0
C218 C 0.09921 0.74672 0.98185 0.0
C219 C 0.09671 0.2377 1.00769 0.0
O220 O 0.1136 0.31674 0.88464 0.0
O221 O 0.17312 0.20332 0.88683 0.0
O222 O 0.01729 0.35441 0.83009 0.0
O223 O -0.03011 0.34242 0.91138 0.0
O224 O -0.0108 0.1544 0.82119 0.0
O225 O 0.07631 0.14348 0.83438 0.0
O226 O 0.01144 1.06403 0.92856 0.0
O227 O -0.04087 0.1851 0.93203 0.0
O228 O 0.11638 1.02093 0.98903 0.0
O229 O 0.15842 1.01304 0.90494 0.0
O230 O 0.14348 0.20859 0.98549 0.0
O231 O 0.05467 0.20993 0.9783 0.0
H232 H -0.05548 0.543 0.83828 0.0
H233 H 0.07162 0.42979 0.94845 0.0
H234 H 0.10998 0.56944 0.97196 0.0
H235 H -0.0173 0.68145 0.85999 0.0
H236 H 0.14 0.84457 1.0317 0.0
H237 H 0.08945 0.91164 0.85729 0.0
H238 H 0.05134 0.7734 0.84271 0.0
H239 H 0.1011 0.70235 1.0177 0.0
Gd240 Gd 0.84822 0.25424 0.68913 0.0
Gd241 Gd 0.77291 0.12544 0.66107 0.0
C242 C 0.71435 0.30198 0.69381 0.0
C243 C 0.89622 0.39886 0.70218 0.0
C244 C 0.87598 0.48308 0.68491 0.0
C245 C 0.89741 0.55354 0.71372 0.0
C246 C 0.83293 0.49376 0.64244 0.0
C247 C 0.83032 0.64413 0.66282 0.0
C248 C 0.81011 0.5742 0.63144 0.0
C249 C 0.87467 0.63322 0.70286 0.0
C250 C 0.84366 0.12476 0.77148 0.0
C251 C 0.91348 0.10464 0.64111 0.0
C252 C 0.73086 0.97671 0.65009 0.0
C253 C 0.75816 0.89259 0.65326 0.0
C254 C 0.79628 0.86424 0.60986 0.0
C255 C 0.74622 0.83961 0.70053 0.0
C256 C 0.80375 0.72809 0.65752 0.0
C257 C 0.76747 0.7574 0.70179 0.0
C258 C 0.8189 0.78244 0.612 0.0
C259 C 0.77696 0.23335 0.5707 0.0
O260 O 0.76632 0.32999 0.68602 0.0
O261 O 0.70507 0.21919 0.69305 0.0
O262 O 0.86731 0.36241 0.74402 0.0
O263 O 0.90839 0.34777 0.65916 0.0
O264 O 0.88952 0.16386 0.75547 0.0
O265 O 0.8021 0.16098 0.74687 0.0
O266 O 0.8633 1.06796 0.65065 0.0
O267 O 0.91823 0.18629 0.64546 0.0
O268 O 0.74416 1.0237 0.6054 0.0
O269 O 0.72785 1.0193 0.69896 0.0
O270 O 0.73063 0.20539 0.59463 0.0
O271 O 0.82021 0.20879 0.60013 0.0
H272 H 0.93142 0.54664 0.74497 0.0
H273 H 0.81625 0.44001 0.61871 0.0
H274 H 0.77585 0.58141 0.6 0.0
H275 H 0.88989 0.68639 0.72783 0.0
H276 H 0.80863 0.90503 0.57417 0.0
H277 H 0.71906 0.86095 0.73582 0.0
H278 H 0.75434 0.71629 0.73684 0.0
H279 H 0.84846 0.76186 0.57851 0.0
Gd280 Gd 0.02899 0.90192 0.68993 0.0
Gd281 Gd 0.10604 1.02763 0.66578 0.0
C282 C 0.16108 0.84797 0.69494 0.0
C283 C -0.01551 0.75636 0.70262 0.0
C284 C 0.01088 0.6719 0.69515 0.0
C285 C 0.04192 0.63525 0.74081 0.0
C286 C 0.00563 0.6271 0.64246 0.0
C287 C 0.05742 0.50736 0.68431 0.0
C288 C 0.02931 0.54631 0.6368 0.0
C289 C 0.06322 0.55358 0.7364 0.0
C290 C 0.03327 1.02775 0.77464 0.0
C291 C -0.03383 1.05338 0.64195 0.0
C292 C 0.15461 0.17275 0.66128 0.0
C293 C 0.12938 0.25737 0.66698 0.0
C294 C 0.08213 0.28159 0.63307 0.0
C295 C 0.15011 0.31262 0.70955 0.0
C296 C 0.0811 0.41991 0.67962 0.0
C297 C 0.12687 0.39324 0.7154 0.0
C298 C 0.05819 0.36174 0.63941 0.0
C299 C 0.09823 0.92513 0.57203 0.0
O300 O 0.10897 0.82221 0.68559 0.0
O301 O 0.17146 0.9302 0.69644 0.0
O302 O 0.0018 0.80158 0.7471 0.0
O303 O -0.02313 0.80078 0.65517 0.0
O304 O -0.01285 0.992 0.75564 0.0
O305 O 0.07526 0.99106 0.75081 0.0
O306 O 0.01651 0.08898 0.65368 0.0
O307 O -0.03945 0.97165 0.64531 0.0
O308 O 0.14073 0.12999 0.61464 0.0
O309 O 0.15387 0.12711 0.70867 0.0
O310 O 0.14555 0.94797 0.59682 0.0
O311 O 0.05637 0.9511 0.60245 0.0
H312 H 0.04975 0.6693 0.78043 0.0
H313 H -0.01712 0.65412 0.60573 0.0
H314 H 0.02539 0.51508 0.59499 0.0
H315 H 0.0835 0.5272 0.77468 0.0
H316 H 0.06357 0.2388 0.6014 0.0
H317 H 0.18494 0.29378 0.73789 0.0
H318 H 0.14649 0.43476 0.74704 0.0
H319 H 0.02146 0.37723 0.61282 0.0
Gd320 Gd 0.60493 0.62918 0.16154 0.0
Gd321 Gd 0.52942 0.75409 0.18849 0.0
C322 C 0.46555 0.60826 0.13584 0.0
C323 C 0.64978 0.48226 0.15366 0.0
C324 C 0.62265 0.39949 0.16172 0.0
C325 C 0.57961 0.3709 0.12392 0.0
C326 C 0.6378 0.35004 0.20966 0.0
C327 C 0.5748 0.23712 0.17624 0.0
C328 C 0.61548 0.26935 0.21615 0.0
C329 C 0.55553 0.29124 0.13145 0.0
C330 C 0.59874 0.73448 0.06957 0.0
C331 C 0.66214 0.80566 0.19473 0.0
C332 C 0.48374 0.89843 0.20327 0.0
C333 C 0.50904 0.98278 0.19368 0.0
C334 C 0.54219 1.01939 0.23729 0.0
C335 C 0.50147 1.02688 0.14114 0.0
C336 C 0.55297 0.1484 0.18123 0.0
C337 C 0.52407 0.10808 0.13454 0.0
C338 C 0.56177 0.10156 0.23266 0.0
C339 C 0.53096 0.62316 0.26937 0.0
O340 O 0.51497 0.57046 0.14832 0.0
O341 O 0.46147 0.68997 0.13985 0.0
O342 O 0.63406 0.52541 0.10785 0.0
O343 O 0.65444 0.52849 0.2007 0.0
O344 O 0.64573 0.70936 0.09401 0.0
O345 O 0.5565 0.70948 0.09958 0.0
O346 O 0.60998 0.83269 0.18643 0.0
O347 O 0.67201 0.72322 0.19376 0.0
O348 O 0.50392 0.85419 0.24706 0.0
O349 O 0.47414 0.85337 0.15649 0.0
O350 O 0.48558 0.66159 0.25094 0.0
O351 O 0.57364 0.66027 0.24751 0.0
H352 H 0.56438 0.40988 0.08831 0.0
H353 H 0.66855 0.37275 0.24134 0.0
H354 H 0.63254 0.23281 0.25179 0.0
H355 H 0.5219 0.27323 0.10168 0.0
H356 H 0.5526 0.98433 0.27565 0.0
H357 H 0.47769 0.99912 0.10535 0.0
H358 H 0.51835 0.13812 0.09266 0.0
H359 H 0.58304 0.12684 0.27057 0.0
Gd360 Gd 0.27125 0.54494 0.14813 0.0
Gd361 Gd 0.34341 0.41764 0.18566 0.0
C362 C 0.41191 0.56004 0.13452 0.0
C363 C 0.22992 0.69058 0.11947 0.0
C364 C 0.25376 0.77595 0.12726 0.0
C365 C 0.25189 0.83564 0.08211 0.0
C366 C 0.28133 0.79695 0.17941 0.0
C367 C 0.30045 0.93914 0.14359 0.0
C368 C 0.30377 0.8772 0.18755 0.0
C369 C 0.27457 0.91683 0.09019 0.0
C370 C 0.27723 0.42573 0.0642 0.0
C371 C 0.20893 0.37786 0.19255 0.0
C372 C 0.38768 0.27077 0.2025 0.0
C373 C 0.36723 0.18736 0.18317 0.0
C374 C 0.39287 0.1152 0.20545 0.0
C375 C 0.32165 0.17871 0.14344 0.0
C376 C 0.32455 1.02541 0.15411 0.0
C377 C 0.30029 0.09843 0.12918 0.0
C378 C 0.37163 1.03563 0.19152 0.0
C379 C 0.33985 0.5538 0.26279 0.0
O380 O 0.36251 0.59951 0.14346 0.0
O381 O 0.41481 0.47844 0.13998 0.0
O382 O 0.25763 0.64252 0.08303 0.0
O383 O 0.2156 0.65041 0.16712 0.0
O384 O 0.23054 0.45507 0.08641 0.0
O385 O 0.31927 0.45328 0.09368 0.0
O386 O 0.26035 0.34675 0.18735 0.0
O387 O 0.20083 0.46017 0.18513 0.0
O388 O 0.35658 0.30905 0.24199 0.0
O389 O 0.40414 0.32107 0.1608 0.0
O390 O 0.38475 0.50915 0.25075 0.0
O391 O 0.29758 0.51984 0.23767 0.0
H392 H 0.23362 0.81902 0.04042 0.0
H393 H 0.28484 0.7517 0.21457 0.0
H394 H 0.32297 0.88991 0.22911 0.0
H395 H 0.27253 0.96125 0.05438 0.0
H396 H 0.42952 0.12045 0.23365 0.0
H397 H 0.30228 0.23373 0.12368 0.0
H398 H 0.26392 0.0941 0.10013 0.0
H399 H 0.3914 0.98201 0.21182 0.0
Gd400 Gd 0.60098 0.53779 0.41094 0.0
Gd401 Gd 0.52578 0.40911 0.38281 0.0
C402 C 0.46049 0.5587 0.43092 0.0
C403 C 0.64301 0.68655 0.42196 0.0
C404 C 0.61573 0.77068 0.41882 0.0
C405 C 0.57753 0.79897 0.46217 0.0
C406 C 0.62779 0.82376 0.37164 0.0
C407 C 0.57022 0.93526 0.41463 0.0
C408 C 0.60661 0.906 0.37043 0.0
C409 C 0.55494 0.8808 0.46005 0.0
C410 C 0.59703 0.42993 0.50147 0.0
C411 C 0.65965 0.36137 0.37831 0.0
C412 C 0.47784 0.26446 0.36962 0.0
C413 C 0.49804 0.18026 0.38701 0.0
C414 C 0.47659 0.10974 0.35827 0.0
C415 C 0.54105 0.16964 0.42952 0.0
C416 C 0.54364 1.01922 0.40929 0.0
C417 C 0.56386 0.0892 0.44061 0.0
C418 C 0.4993 1.03006 0.36924 0.0
C419 C 0.53039 0.53863 0.30065 0.0
O420 O 0.51067 0.59537 0.4214 0.0
O421 O 0.45574 0.47706 0.42649 0.0
O422 O 0.6297 0.63954 0.46663 0.0
O423 O 0.64603 0.64398 0.37308 0.0
O424 O 0.64328 0.45812 0.47751 0.0
O425 O 0.55375 0.45419 0.47196 0.0
O426 O 0.60767 0.33336 0.38604 0.0
O427 O 0.66892 0.44416 0.37906 0.0
O428 O 0.50688 0.3009 0.32788 0.0
O429 O 0.46551 0.31558 0.41258 0.0
O430 O 0.48451 0.49959 0.31661 0.0
O431 O 0.572 0.50223 0.32509 0.0
H432 H 0.5651 0.75813 0.4978 0.0
H433 H 0.65501 0.80246 0.33638 0.0
H434 H 0.61986 0.94718 0.33547 0.0
H435 H 0.52529 0.90133 0.49348 0.0
H436 H 0.44261 0.11658 0.32698 0.0
H437 H 0.55774 0.22342 0.45321 0.0
H438 H 0.59811 0.08205 0.47207 0.0
H439 H 0.48411 0.97686 0.3443 0.0
Gd440 Gd 0.26802 0.63585 0.40617 0.0
Gd441 Gd 0.345 0.76147 0.38197 0.0
C442 C 0.40781 0.61 0.43006 0.0
C443 C 0.21943 0.49072 0.41058 0.0
C444 C 0.24461 0.40607 0.40485 0.0
C445 C 0.29189 0.38181 0.4387 0.0
C446 C 0.2238 0.35082 0.36232 0.0
C447 C 0.29281 0.24347 0.39218 0.0
C448 C 0.247 0.27017 0.35646 0.0
C449 C 0.31579 0.30163 0.43235 0.0
C450 C 0.27576 0.73828 0.5001 0.0
C451 C 0.21293 0.81546 0.37717 0.0
C452 C 0.38942 0.90703 0.36906 0.0
C453 C 0.36301 0.99147 0.37657 0.0
C454 C 0.33192 1.02813 0.33094 0.0
C455 C 0.36828 1.03626 0.42927 0.0
C456 C 0.31646 0.156 0.38747 0.0
C457 C 0.3446 0.11704 0.43495 0.0
C458 C 0.31061 0.1098 0.33538 0.0
C459 C 0.34066 0.63558 0.29744 0.0
O460 O 0.35748 0.57441 0.41834 0.0
O461 O 0.41344 0.69173 0.42663 0.0
O462 O 0.23331 0.53342 0.45724 0.0
O463 O 0.22019 0.53641 0.36321 0.0
O464 O 0.2285 0.71519 0.47529 0.0
O465 O 0.31764 0.7126 0.46958 0.0
O466 O 0.26505 0.84121 0.38649 0.0
O467 O 0.20255 0.73324 0.37561 0.0
O468 O 0.37201 0.86175 0.32466 0.0
O469 O 0.39723 0.86266 0.4165 0.0
O470 O 0.38681 0.67125 0.31641 0.0
O471 O 0.29865 0.67248 0.32112 0.0
H472 H 0.31051 0.4246 0.47035 0.0
H473 H 0.18894 0.36968 0.33404 0.0
H474 H 0.22733 0.22866 0.32485 0.0
H475 H 0.35253 0.28612 0.45891 0.0
H476 H 0.32405 0.99409 0.29132 0.0
H477 H 0.39106 1.00924 0.46598 0.0
H478 H 0.34855 0.14826 0.47676 0.0
H479 H 0.29029 0.13618 0.29713 0.0
Gd480 Gd 0.34609 0.39826 0.88135 0.0
Gd481 Gd 0.27006 0.5247 0.90644 0.0
C482 C 0.21349 0.3469 0.87642 0.0
C483 C 0.38968 0.25196 0.86875 0.0
C484 C 0.36201 0.16901 0.87726 0.0
C485 C 0.32641 0.1354 0.83406 0.0
C486 C 0.36954 0.12349 0.92924 0.0
C487 C 0.31412 1.00606 0.88947 0.0
C488 C 0.34524 1.04346 0.93563 0.0
C489 C 0.30458 1.05431 0.83888 0.0
C490 C 0.3411 0.5237 0.79665 0.0
C491 C 0.41065 0.54826 0.92841 0.0
C492 C 0.22119 0.66976 0.91221 0.0
C493 C 0.24554 0.75453 0.90647 0.0
C494 C 0.2932 0.7792 0.93949 0.0
C495 C 0.22342 0.80954 0.86462 0.0
C496 C 0.29154 0.91805 0.89398 0.0
C497 C 0.24547 0.89063 0.85888 0.0
C498 C 0.31612 0.85976 0.93311 0.0
C499 C 0.27754 0.42194 0.99978 0.0
O500 O 0.2655 0.32004 0.88557 0.0
O501 O 0.20374 0.42929 0.87537 0.0
O502 O 0.37255 0.29704 0.82419 0.0
O503 O 0.39818 0.29685 0.9159 0.0
O504 O 0.38743 0.48763 0.81505 0.0
O505 O 0.29942 0.48756 0.82101 0.0
O506 O 0.36017 0.58462 0.91776 0.0
O507 O 0.41593 0.46656 0.92447 0.0
O508 O 0.23613 0.62703 0.95845 0.0
O509 O 0.22162 0.62442 0.8646 0.0
O510 O 0.23032 0.44502 0.97488 0.0
O511 O 0.31952 0.44733 0.96942 0.0
H512 H 0.31549 0.1712 0.79587 0.0
H513 H 0.39498 0.149 0.96462 0.0
H514 H 0.35146 1.01151 0.97681 0.0
H515 H 0.28127 1.03009 0.80179 0.0
H516 H 0.3129 0.73643 0.97045 0.0
H517 H 0.18836 0.79016 0.83678 0.0
H518 H 0.2246 0.93158 0.82781 0.0
H519 H 0.35338 0.87527 0.95883 0.0
Gd520 Gd 0.52924 0.75124 0.88727 0.0
Gd521 Gd 0.60477 0.62139 0.91638 0.0
C522 C 0.66367 0.79537 0.87824 0.0
C523 C 0.48234 0.89751 0.8818 0.0
C524 C 0.50581 0.98017 0.89828 0.0
C525 C 0.48262 1.05206 0.87321 0.0
C526 C 0.55276 0.98813 0.93649 0.0
C527 C 0.55563 0.13954 0.91853 0.0
C528 C 0.57761 1.0675 0.94657 0.0
C529 C 0.50721 0.1307 0.88314 0.0
C530 C 0.5344 0.62443 0.80342 0.0
C531 C 0.46351 0.59907 0.93015 0.0
C532 C 0.6506 0.47559 0.93512 0.0
C533 C 0.62803 0.38885 0.93062 0.0
C534 C 0.62708 0.33633 0.97994 0.0
C535 C 0.60622 0.35828 0.87763 0.0
C536 C 0.58299 0.2239 0.9233 0.0
C537 C 0.58552 0.27615 0.87376 0.0
C538 C 0.60441 0.25461 0.97657 0.0
C539 C 0.59844 0.73268 1.00519 0.0
O540 O 0.61172 0.82464 0.88427 0.0
O541 O 0.673 0.71281 0.88275 0.0
O542 O 0.50572 0.86122 0.83628 0.0
O543 O 0.47375 0.84558 0.92507 0.0
O544 O 0.48857 0.66547 0.81802 0.0
O545 O 0.57616 0.65746 0.82987 0.0
O546 O 0.51417 0.56263 0.92147 0.0
O547 O 0.45846 0.68074 0.92681 0.0
O548 O 0.62845 0.52168 0.97652 0.0
O549 O 0.65716 0.51741 0.88633 0.0
O550 O 0.64533 0.70654 0.98146 0.0
O551 O 0.5563 0.7053 0.97575 0.0
H552 H 0.44583 1.04689 0.84506 0.0
H553 H 0.57079 0.93312 0.95765 0.0
H554 H 0.61485 1.07191 0.97448 0.0
H555 H 0.48919 0.18508 0.86181 0.0
H556 H 0.64323 0.35925 1.02119 0.0
H557 H 0.60644 0.39682 0.83863 0.0
H558 H 0.57168 0.25324 0.8316 0.0
H559 H 0.60295 0.21618 1.0156 0.0
Gd560 Gd 0.34224 0.74241 0.68616 0.0
Gd561 Gd 0.27077 0.61647 0.64838 0.0
C562 C 0.20907 0.78564 0.69187 0.0
C563 C 0.38429 0.8889 0.70686 0.0
C564 C 0.36439 0.97248 0.68727 0.0
C565 C 0.3842 1.0433 0.71621 0.0
C566 C 0.3255 0.98273 0.64093 0.0
C567 C 0.32646 0.13605 0.65485 0.0
C568 C 0.30572 1.06367 0.62566 0.0
C569 C 0.36817 0.124 0.69842 0.0
C570 C 0.33979 0.6059 0.76277 0.0
C571 C 0.41165 0.60298 0.63372 0.0
C572 C 0.22985 0.47069 0.61944 0.0
C573 C 0.25402 0.38535 0.62731 0.0
C574 C 0.25341 0.32575 0.58193 0.0
C575 C 0.28089 0.36445 0.6798 0.0
C576 C 0.30265 0.22279 0.64362 0.0
C577 C 0.30395 0.28453 0.68802 0.0
C578 C 0.27738 0.24518 0.58985 0.0
C579 C 0.27581 0.73489 0.5645 0.0
O580 O 0.26034 0.81576 0.685 0.0
O581 O 0.20077 0.70307 0.68575 0.0
O582 O 0.35149 0.84992 0.74429 0.0
O583 O 0.40386 0.83936 0.6659 0.0
O584 O 0.38448 0.65045 0.75045 0.0
O585 O 0.29719 0.63987 0.73815 0.0
O586 O 0.36265 0.5629 0.64323 0.0
O587 O 0.41362 0.68467 0.63863 0.0
O588 O 0.25756 0.51864 0.58316 0.0
O589 O 0.21518 0.5111 0.66702 0.0
O590 O 0.22928 0.70572 0.58691 0.0
O591 O 0.31823 0.70777 0.59376 0.0
H592 H 0.41146 1.0352 0.75357 0.0
H593 H 0.30943 0.92831 0.61748 0.0
H594 H 0.27334 1.06872 0.59211 0.0
H595 H 0.38726 0.17669 0.72098 0.0
H596 H 0.23492 0.34184 0.54023 0.0
H597 H 0.28313 0.40942 0.71532 0.0
H598 H 0.32169 0.27201 0.73023 0.0
H599 H 0.27634 0.20127 0.55366 0.0
Gd600 Gd 0.53272 0.41241 0.6871 0.0
Gd601 Gd 0.60592 0.53796 0.65576 0.0
C602 C 0.66595 0.36429 0.69244 0.0
C603 C 0.48918 0.2671 0.70469 0.0
C604 C 0.51535 0.18431 0.69318 0.0
C605 C 0.50665 0.12009 0.733 0.0
C606 C 0.55111 0.16969 0.64502 0.0
C607 C 0.56518 1.02333 0.67584 0.0
C608 C 0.57648 0.09032 0.63686 0.0
C609 C 0.52959 1.04 0.72405 0.0
C610 C 0.53497 0.54406 0.76751 0.0
C611 C 0.46588 0.55595 0.63518 0.0
C612 C 0.65197 0.68379 0.63922 0.0
C613 C 0.63087 0.77044 0.64907 0.0
C614 C 0.62776 0.82715 0.60241 0.0
C615 C 0.61372 0.79735 0.70471 0.0
C616 C 0.58909 0.93652 0.66642 0.0
C617 C 0.59502 0.87995 0.71358 0.0
C618 C 0.60566 0.90842 0.61046 0.0
C619 C 0.59815 0.42797 0.56599 0.0
O620 O 0.61412 0.33589 0.68531 0.0
O621 O 0.67488 0.44679 0.68891 0.0
O622 O 0.51263 0.31094 0.74674 0.0
O623 O 0.47651 0.31222 0.65879 0.0
O624 O 0.48962 0.50395 0.75097 0.0
O625 O 0.57771 0.50918 0.7438 0.0
O626 O 0.51493 0.59505 0.64692 0.0
O627 O 0.46298 0.47421 0.63951 0.0
O628 O 0.62647 0.64177 0.5978 0.0
O629 O 0.66148 0.63788 0.6856 0.0
O630 O 0.64542 0.45325 0.58948 0.0
O631 O 0.55669 0.45422 0.59665 0.0
H632 H 0.4794 0.13198 0.76973 0.0
H633 H 0.55996 0.21962 0.61407 0.0
H634 H 0.60504 0.08243 0.6002 0.0
H635 H 0.5176 0.9912 0.75447 0.0
H636 H 0.6425 0.80826 0.55967 0.0
H637 H 0.61675 0.75573 0.742 0.0
H638 H 0.58629 0.89901 0.75795 0.0
H639 H 0.60191 0.9486 0.57256 0.0
loop_
_geom_bond_atom_site_label_1
_geom_bond_atom_site_label_2
_geom_bond_distance
_geom_bond_site_symmetry_2
_ccdc_geom_bond_type
Gd0 C3 2.818 1_545 S
Gd0 O20 2.377 1_545 S
Gd0 O22 2.448 1_545 S
Gd0 O23 2.506 1_545 S
Gd0 O24 2.435 . S
Gd0 O25 2.717 . S
Gd0 O27 2.395 . S
Gd0 O31 2.327 . S
Gd1 C12 2.818 . S
Gd1 O21 2.395 . S
Gd1 O25 2.327 . S
Gd1 O26 2.377 . S
Gd1 O28 2.448 . S
Gd1 O29 2.506 . S
Gd1 O30 2.435 . S
Gd1 O31 2.717 . S
C2 O20 1.239 1_545 S
C2 O21 1.245 . S
C3 Gd0 2.818 1_565 S
C3 C4 1.510 . S
C3 O22 1.249 . S
C3 O23 1.252 . S
C4 C3 1.510 . S
C4 C5 1.404 . S
C4 C6 1.352 . S
C5 C4 1.404 . S
C5 C9 1.389 . S
C5 H32 0.930 . S
C6 C4 1.352 . S
C6 C8 1.374 . S
C6 H33 0.931 . S
C7 C8 1.359 . S
C7 C9 1.364 . S
C8 C6 1.374 . S
C8 C7 1.359 . S
C8 H34 0.931 . S
C9 C5 1.389 . S
C9 C7 1.364 . S
C9 H35 0.931 . S
C10 O24 1.256 . S
C10 O25 1.257 . S
C11 O26 1.240 . S
C11 O27 1.240 . S
C12 Gd1 2.818 . S
C12 C13 1.510 . S
C12 O28 1.249 . S
C12 O29 1.252 . S
C13 C12 1.510 . S
C13 C14 1.404 . S
C13 C15 1.352 . S
C14 C13 1.404 . S
C14 C18 1.389 . S
C14 H36 0.930 . S
C15 C13 1.352 . S
C15 C17 1.374 . S
C15 H37 0.931 . S
C16 C17 1.359 . S
C16 C18 1.364 . S
C17 C15 1.374 . S
C17 C16 1.359 . S
C17 H38 0.931 . S
C18 C14 1.389 . S
C18 C16 1.364 . S
C18 H39 0.931 . S
C19 O30 1.256 . S
C19 O31 1.257 . S
O20 Gd0 2.377 1_565 S
O20 C2 1.239 1_565 S
O21 Gd1 2.395 . S
O21 C2 1.245 . S
O22 Gd0 2.448 1_565 S
O22 C3 1.249 . S
O23 Gd0 2.506 1_565 S
O23 C3 1.252 . S
O24 Gd0 2.435 . S
O24 C10 1.256 . S
O25 Gd0 2.717 . S
O25 Gd1 2.327 . S
O25 C10 1.257 . S
O26 Gd1 2.377 . S
O26 C11 1.240 . S
O27 Gd0 2.395 . S
O27 C11 1.240 . S
O28 Gd1 2.448 . S
O28 C12 1.249 . S
O29 Gd1 2.506 . S
O29 C12 1.252 . S
O30 Gd1 2.435 . S
O30 C19 1.256 . S
O31 Gd0 2.327 . S
O31 Gd1 2.717 . S
O31 C19 1.257 . S
H32 C5 0.930 . S
H33 C6 0.931 . S
H34 C8 0.931 . S
H35 C9 0.931 . S
H36 C14 0.930 . S
H37 C15 0.931 . S
H38 C17 0.931 . S
H39 C18 0.931 . S
Gd40 C43 2.818 1_565 S
Gd40 O60 2.377 1_565 S
Gd40 O62 2.448 1_565 S
Gd40 O63 2.506 1_565 S
Gd40 O64 2.435 . S
Gd40 O65 2.717 . S
Gd40 O67 2.395 . S
Gd40 O71 2.327 . S
Gd41 C52 2.818 . S
Gd41 O61 2.395 . S
Gd41 O65 2.327 . S
Gd41 O66 2.377 . S
Gd41 O68 2.448 . S
Gd41 O69 2.506 . S
Gd41 O70 2.435 . S
Gd41 O71 2.717 . S
C42 O60 1.239 1_565 S
C42 O61 1.245 . S
C43 Gd40 2.818 1_545 S
C43 C44 1.510 . S
C43 O62 1.249 . S
C43 O63 1.252 . S
C44 C43 1.510 . S
C44 C45 1.404 . S
C44 C46 1.352 . S
C45 C44 1.404 . S
C45 C49 1.389 . S
C45 H72 0.930 . S
C46 C44 1.352 . S
C46 C48 1.374 . S
C46 H73 0.931 . S
C47 C48 1.359 . S
C47 C49 1.364 . S
C48 C46 1.374 . S
C48 C47 1.359 . S
C48 H74 0.931 . S
C49 C45 1.389 . S
C49 C47 1.364 . S
C49 H75 0.931 . S
C50 O64 1.256 . S
C50 O65 1.257 . S
C51 O66 1.240 . S
C51 O67 1.240 . S
C52 Gd41 2.818 . S
C52 C53 1.510 . S
C52 O68 1.249 . S
C52 O69 1.252 . S
C53 C52 1.510 . S
C53 C54 1.404 . S
C53 C55 1.352 . S
C54 C53 1.404 . S
C54 C58 1.389 . S
C54 H76 0.930 . S
C55 C53 1.352 . S
C55 C57 1.374 . S
C55 H77 0.931 . S
C56 C57 1.359 . S
C56 C58 1.364 . S
C57 C55 1.374 . S
C57 C56 1.359 . S
C57 H78 0.931 . S
C58 C54 1.389 . S
C58 C56 1.364 . S
C58 H79 0.931 . S
C59 O70 1.256 . S
C59 O71 1.257 . S
O60 Gd40 2.377 1_545 S
O60 C42 1.239 1_545 S
O61 Gd41 2.395 . S
O61 C42 1.245 . S
O62 Gd40 2.448 1_545 S
O62 C43 1.249 . S
O63 Gd40 2.506 1_545 S
O63 C43 1.252 . S
O64 Gd40 2.435 . S
O64 C50 1.256 . S
O65 Gd40 2.717 . S
O65 Gd41 2.327 . S
O65 C50 1.257 . S
O66 Gd41 2.377 . S
O66 C51 1.240 . S
O67 Gd40 2.395 . S
O67 C51 1.240 . S
O68 Gd41 2.448 . S
O68 C52 1.249 . S
O69 Gd41 2.506 . S
O69 C52 1.252 . S
O70 Gd41 2.435 . S
O70 C59 1.256 . S
O71 Gd40 2.327 . S
O71 Gd41 2.717 . S
O71 C59 1.257 . S
H72 C45 0.930 . S
H73 C46 0.931 . S
H74 C48 0.931 . S
H75 C49 0.931 . S
H76 C54 0.930 . S
H77 C55 0.931 . S
H78 C57 0.931 . S
H79 C58 0.931 . S
Gd80 C83 2.818 1_565 S
Gd80 O100 2.377 1_565 S
Gd80 O102 2.448 1_565 S
Gd80 O103 2.506 1_565 S
Gd80 O104 2.435 . S
Gd80 O105 2.717 . S
Gd80 O107 2.395 . S
Gd80 O111 2.327 . S
Gd81 C92 2.818 . S
Gd81 O101 2.395 . S
Gd81 O105 2.327 . S
Gd81 O106 2.377 . S
Gd81 O108 2.448 . S
Gd81 O109 2.506 . S
Gd81 O110 2.435 . S
Gd81 O111 2.717 . S
C82 O100 1.239 1_565 S
C82 O101 1.245 . S
C83 Gd80 2.818 1_545 S
C83 C84 1.510 . S
C83 O102 1.249 . S
C83 O103 1.252 . S
C84 C83 1.510 . S
C84 C85 1.404 . S
C84 C86 1.352 . S
C85 C84 1.404 . S
C85 C89 1.389 . S
C85 H112 0.930 . S
C86 C84 1.352 . S
C86 C88 1.374 . S
C86 H113 0.931 . S
C87 C88 1.359 . S
C87 C89 1.364 . S
C88 C86 1.374 . S
C88 C87 1.359 . S
C88 H114 0.931 . S
C89 C85 1.389 . S
C89 C87 1.364 . S
C89 H115 0.931 . S
C90 O104 1.256 . S
C90 O105 1.257 . S
C91 O106 1.240 . S
C91 O107 1.240 . S
C92 Gd81 2.818 . S
C92 C93 1.510 . S
C92 O108 1.249 . S
C92 O109 1.252 . S
C93 C92 1.510 . S
C93 C94 1.404 . S
C93 C95 1.352 . S
C94 C93 1.404 . S
C94 C98 1.389 . S
C94 H116 0.930 . S
C95 C93 1.352 . S
C95 C97 1.374 . S
C95 H117 0.931 . S
C96 C97 1.359 . S
C96 C98 1.364 . S
C97 C95 1.374 . S
C97 C96 1.359 . S
C97 H118 0.931 . S
C98 C94 1.389 . S
C98 C96 1.364 . S
C98 H119 0.931 . S
C99 O110 1.256 . S
C99 O111 1.257 . S
O100 Gd80 2.377 1_545 S
O100 C82 1.239 1_545 S
O101 Gd81 2.395 . S
O101 C82 1.245 . S
O102 Gd80 2.448 1_545 S
O102 C83 1.249 . S
O103 Gd80 2.506 1_545 S
O103 C83 1.252 . S
O104 Gd80 2.435 . S
O104 C90 1.256 . S
O105 Gd80 2.717 . S
O105 Gd81 2.327 . S
O105 C90 1.257 . S
O106 Gd81 2.377 . S
O106 C91 1.240 . S
O107 Gd80 2.395 . S
O107 C91 1.240 . S
O108 Gd81 2.448 . S
O108 C92 1.249 . S
O109 Gd81 2.506 . S
O109 C92 1.252 . S
O110 Gd81 2.435 . S
O110 C99 1.256 . S
O111 Gd80 2.327 . S
O111 Gd81 2.717 . S
O111 C99 1.257 . S
H112 C85 0.930 . S
H113 C86 0.931 . S
H114 C88 0.931 . S
H115 C89 0.931 . S
H116 C94 0.930 . S
H117 C95 0.931 . S
H118 C97 0.931 . S
H119 C98 0.931 . S
Gd120 C123 2.818 1_545 S
Gd120 O140 2.377 1_545 S
Gd120 O142 2.448 1_545 S
Gd120 O143 2.506 1_545 S
Gd120 O144 2.435 . S
Gd120 O145 2.717 . S
Gd120 O147 2.395 . S
Gd120 O151 2.327 . S
Gd121 C132 2.818 . S
Gd121 O141 2.395 . S
Gd121 O145 2.327 . S
Gd121 O146 2.377 . S
Gd121 O148 2.448 . S
Gd121 O149 2.506 . S
Gd121 O150 2.435 . S
Gd121 O151 2.717 . S
C122 O140 1.239 1_545 S
C122 O141 1.245 . S
C123 Gd120 2.818 1_565 S
C123 C124 1.510 . S
C123 O142 1.249 . S
C123 O143 1.252 . S
C124 C123 1.510 . S
C124 C125 1.404 . S
C124 C126 1.352 . S
C125 C124 1.404 . S
C125 C129 1.389 . S
C125 H152 0.930 . S
C126 C124 1.352 . S
C126 C128 1.374 . S
C126 H153 0.931 . S
C127 C128 1.359 . S
C127 C129 1.364 . S
C128 C126 1.374 . S
C128 C127 1.359 . S
C128 H154 0.931 . S
C129 C125 1.389 . S
C129 C127 1.364 . S
C129 H155 0.931 . S
C130 O144 1.256 . S
C130 O145 1.257 . S
C131 O146 1.240 . S
C131 O147 1.240 . S
C132 Gd121 2.818 . S
C132 C133 1.510 . S
C132 O148 1.249 . S
C132 O149 1.252 . S
C133 C132 1.510 . S
C133 C134 1.404 . S
C133 C135 1.352 . S
C134 C133 1.404 . S
C134 C138 1.389 . S
C134 H156 0.930 . S
C135 C133 1.352 . S
C135 C137 1.374 . S
C135 H157 0.931 . S
C136 C137 1.359 . S
C136 C138 1.364 . S
C137 C135 1.374 . S
C137 C136 1.359 . S
C137 H158 0.931 . S
C138 C134 1.389 . S
C138 C136 1.364 . S
C138 H159 0.931 . S
C139 O150 1.256 . S
C139 O151 1.257 . S
O140 Gd120 2.377 1_565 S
O140 C122 1.239 1_565 S
O141 Gd121 2.395 . S
O141 C122 1.245 . S
O142 Gd120 2.448 1_565 S
O142 C123 1.249 . S
O143 Gd120 2.506 1_565 S
O143 C123 1.252 . S
O144 Gd120 2.435 . S
O144 C130 1.256 . S
O145 Gd120 2.717 . S
O145 Gd121 2.327 . S
O145 C130 1.257 . S
O146 Gd121 2.377 . S
O146 C131 1.240 . S
O147 Gd120 2.395 . S
O147 C131 1.240 . S
O148 Gd121 2.448 . S
O148 C132 1.249 . S
O149 Gd121 2.506 . S
O149 C132 1.252 . S
O150 Gd121 2.435 . S
O150 C139 1.256 . S
O151 Gd120 2.327 . S
O151 Gd121 2.717 . S
O151 C139 1.257 . S
H152 C125 0.930 . S
H153 C126 0.931 . S
H154 C128 0.931 . S
H155 C129 0.931 . S
H156 C134 0.930 . S
H157 C135 0.931 . S
H158 C137 0.931 . S
H159 C138 0.931 . S
Gd160 C163 2.818 . S
Gd160 O180 2.377 . S
Gd160 O182 2.448 . S
Gd160 O183 2.506 . S
Gd160 O184 2.435 . S
Gd160 O185 2.717 . S
Gd160 O187 2.395 . S
Gd160 O191 2.327 . S
Gd161 C172 2.818 1_565 S
Gd161 O181 2.395 . S
Gd161 O185 2.327 . S
Gd161 O186 2.377 1_565 S
Gd161 O188 2.448 1_565 S
Gd161 O189 2.506 1_565 S
Gd161 O190 2.435 . S
Gd161 O191 2.717 . S
C162 O180 1.240 . S
C162 O181 1.240 . S
C163 Gd160 2.818 . S
C163 C164 1.510 . S
C163 O182 1.249 . S
C163 O183 1.252 . S
C164 C163 1.510 . S
C164 C165 1.404 . S
C164 C166 1.352 . S
C165 C164 1.404 . S
C165 C169 1.389 . S
C165 H192 0.930 . S
C166 C164 1.352 . S
C166 C168 1.374 . S
C166 H193 0.931 . S
C167 C168 1.359 . S
C167 C169 1.364 . S
C168 C166 1.374 . S
C168 C167 1.359 . S
C168 H194 0.931 . S
C169 C165 1.389 . S
C169 C167 1.364 . S
C169 H195 0.931 . S
C170 O184 1.256 . S
C170 O185 1.257 . S
C171 O186 1.239 1_565 S
C171 O187 1.245 . S
C172 Gd161 2.818 1_545 S
C172 C173 1.510 . S
C172 O188 1.249 . S
C172 O189 1.252 . S
C173 C172 1.510 . S
C173 C174 1.404 . S
C173 C175 1.352 . S
C174 C173 1.404 . S
C174 C178 1.389 . S
C174 H196 0.930 . S
C175 C173 1.352 . S
C175 C177 1.374 . S
C175 H197 0.931 . S
C176 C177 1.359 . S
C176 C178 1.364 . S
C177 C175 1.374 . S
C177 C176 1.359 . S
C177 H198 0.931 . S
C178 C174 1.389 . S
C178 C176 1.364 . S
C178 H199 0.931 . S
C179 O190 1.256 . S
C179 O191 1.257 . S
O180 Gd160 2.377 . S
O180 C162 1.240 . S
O181 Gd161 2.395 . S
O181 C162 1.240 . S
O182 Gd160 2.448 . S
O182 C163 1.249 . S
O183 Gd160 2.506 . S
O183 C163 1.252 . S
O184 Gd160 2.435 . S
O184 C170 1.256 . S
O185 Gd160 2.717 . S
O185 Gd161 2.327 . S
O185 C170 1.257 . S
O186 Gd161 2.377 1_545 S
O186 C171 1.239 1_545 S
O187 Gd160 2.395 . S
O187 C171 1.245 . S
O188 Gd161 2.448 1_545 S
O188 C172 1.249 . S
O189 Gd161 2.506 1_545 S
O189 C172 1.252 . S
O190 Gd161 2.435 . S
O190 C179 1.256 . S
O191 Gd160 2.327 . S
O191 Gd161 2.717 . S
O191 C179 1.257 . S
H192 C165 0.930 . S
H193 C166 0.931 . S
H194 C168 0.931 . S
H195 C169 0.931 . S
H196 C174 0.930 . S
H197 C175 0.931 . S
H198 C177 0.931 . S
H199 C178 0.931 . S
Gd200 C203 2.818 . S
Gd200 O220 2.377 . S
Gd200 O222 2.448 . S
Gd200 O223 2.506 . S
Gd200 O224 2.435 . S
Gd200 O225 2.717 . S
Gd200 O227 2.395 . S
Gd200 O231 2.327 . S
Gd201 C212 2.818 1_545 S
Gd201 O221 2.395 . S
Gd201 O225 2.327 . S
Gd201 O226 2.377 1_545 S
Gd201 O228 2.448 1_545 S
Gd201 O229 2.506 1_545 S
Gd201 O230 2.435 . S
Gd201 O231 2.717 . S
C202 O220 1.240 . S
C202 O221 1.240 . S
C203 Gd200 2.818 . S
C203 C204 1.510 . S
C203 O222 1.249 . S
C203 O223 1.252 . S
C204 C203 1.510 . S
C204 C205 1.404 . S
C204 C206 1.352 . S
C205 C204 1.404 . S
C205 C209 1.389 . S
C205 H232 0.930 . S
C206 C204 1.352 . S
C206 C208 1.374 . S
C206 H233 0.931 . S
C207 C208 1.359 . S
C207 C209 1.364 . S
C208 C206 1.374 . S
C208 C207 1.359 . S
C208 H234 0.931 . S
C209 C205 1.389 . S
C209 C207 1.364 . S
C209 H235 0.931 . S
C210 O224 1.256 . S
C210 O225 1.257 . S
C211 O226 1.239 1_545 S
C211 O227 1.245 . S
C212 Gd201 2.818 1_565 S
C212 C213 1.510 . S
C212 O228 1.249 . S
C212 O229 1.252 . S
C213 C212 1.510 . S
C213 C214 1.404 . S
C213 C215 1.352 . S
C214 C213 1.404 . S
C214 C218 1.389 . S
C214 H236 0.930 . S
C215 C213 1.352 . S
C215 C217 1.374 . S
C215 H237 0.931 . S
C216 C217 1.359 . S
C216 C218 1.364 . S
C217 C215 1.374 . S
C217 C216 1.359 . S
C217 H238 0.931 . S
C218 C214 1.389 . S
C218 C216 1.364 . S
C218 H239 0.931 . S
C219 O230 1.256 . S
C219 O231 1.257 . S
O220 Gd200 2.377 . S
O220 C202 1.240 . S
O221 Gd201 2.395 . S
O221 C202 1.240 . S
O222 Gd200 2.448 . S
O222 C203 1.249 . S
O223 Gd200 2.506 . S
O223 C203 1.252 . S
O224 Gd200 2.435 . S
O224 C210 1.256 . S
O225 Gd200 2.717 . S
O225 Gd201 2.327 . S
O225 C210 1.257 . S
O226 Gd201 2.377 1_565 S
O226 C211 1.239 1_565 S
O227 Gd200 2.395 . S
O227 C211 1.245 . S
O228 Gd201 2.448 1_565 S
O228 C212 1.249 . S
O229 Gd201 2.506 1_565 S
O229 C212 1.252 . S
O230 Gd201 2.435 . S
O230 C219 1.256 . S
O231 Gd200 2.327 . S
O231 Gd201 2.717 . S
O231 C219 1.257 . S
H232 C205 0.930 . S
H233 C206 0.931 . S
H234 C208 0.931 . S
H235 C209 0.931 . S
H236 C214 0.930 . S
H237 C215 0.931 . S
H238 C217 0.931 . S
H239 C218 0.931 . S
Gd240 C243 2.818 . S
Gd240 O260 2.377 . S
Gd240 O262 2.448 . S
Gd240 O263 2.506 . S
Gd240 O264 2.435 . S
Gd240 O265 2.717 . S
Gd240 O267 2.395 . S
Gd240 O271 2.327 . S
Gd241 C252 2.818 1_545 S
Gd241 O261 2.395 . S
Gd241 O265 2.327 . S
Gd241 O266 2.377 1_545 S
Gd241 O268 2.448 1_545 S
Gd241 O269 2.506 1_545 S
Gd241 O270 2.435 . S
Gd241 O271 2.717 . S
C242 O260 1.240 . S
C242 O261 1.240 . S
C243 Gd240 2.818 . S
C243 C244 1.510 . S
C243 O262 1.249 . S
C243 O263 1.252 . S
C244 C243 1.510 . S
C244 C245 1.404 . S
C244 C246 1.352 . S
C245 C244 1.404 . S
C245 C249 1.389 . S
C245 H272 0.930 . S
C246 C244 1.352 . S
C246 C248 1.374 . S
C246 H273 0.931 . S
C247 C248 1.359 . S
C247 C249 1.364 . S
C248 C246 1.374 . S
C248 C247 1.359 . S
C248 H274 0.931 . S
C249 C245 1.389 . S
C249 C247 1.364 . S
C249 H275 0.931 . S
C250 O264 1.256 . S
C250 O265 1.257 . S
C251 O266 1.239 1_545 S
C251 O267 1.245 . S
C252 Gd241 2.818 1_565 S
C252 C253 1.510 . S
C252 O268 1.249 . S
C252 O269 1.252 . S
C253 C252 1.510 . S
C253 C254 1.404 . S
C253 C255 1.352 . S
C254 C253 1.404 . S
C254 C258 1.389 . S
C254 H276 0.930 . S
C255 C253 1.352 . S
C255 C257 1.374 . S
C255 H277 0.931 . S
C256 C257 1.359 . S
C256 C258 1.364 . S
C257 C255 1.374 . S
C257 C256 1.359 . S
C257 H278 0.931 . S
C258 C254 1.389 . S
C258 C256 1.364 . S
C258 H279 0.931 . S
C259 O270 1.256 . S
C259 O271 1.257 . S
O260 Gd240 2.377 . S
O260 C242 1.240 . S
O261 Gd241 2.395 . S
O261 C242 1.240 . S
O262 Gd240 2.448 . S
O262 C243 1.249 . S
O263 Gd240 2.506 . S
O263 C243 1.252 . S
O264 Gd240 2.435 . S
O264 C250 1.256 . S
O265 Gd240 2.717 . S
O265 Gd241 2.327 . S
O265 C250 1.257 . S
O266 Gd241 2.377 1_565 S
O266 C251 1.239 1_565 S
O267 Gd240 2.395 . S
O267 C251 1.245 . S
O268 Gd241 2.448 1_565 S
O268 C252 1.249 . S
O269 Gd241 2.506 1_565 S
O269 C252 1.252 . S
O270 Gd241 2.435 . S
O270 C259 1.256 . S
O271 Gd240 2.327 . S
O271 Gd241 2.717 . S
O271 C259 1.257 . S
H272 C245 0.930 . S
H273 C246 0.931 . S
H274 C248 0.931 . S
H275 C249 0.931 . S
H276 C254 0.930 . S
H277 C255 0.931 . S
H278 C257 0.931 . S
H279 C258 0.931 . S
Gd280 C283 2.818 . S
Gd280 O300 2.377 . S
Gd280 O302 2.448 . S
Gd280 O303 2.506 . S
Gd280 O304 2.435 . S
Gd280 O305 2.717 . S
Gd280 O307 2.395 . S
Gd280 O311 2.327 . S
Gd281 C292 2.818 1_565 S
Gd281 O301 2.395 . S
Gd281 O305 2.327 . S
Gd281 O306 2.377 1_565 S
Gd281 O308 2.448 1_565 S
Gd281 O309 2.506 1_565 S
Gd281 O310 2.435 . S
Gd281 O311 2.717 . S
C282 O300 1.240 . S
C282 O301 1.240 . S
C283 Gd280 2.818 . S
C283 C284 1.510 . S
C283 O302 1.249 . S
C283 O303 1.252 . S
C284 C283 1.510 . S
C284 C285 1.404 . S
C284 C286 1.352 . S
C285 C284 1.404 . S
C285 C289 1.389 . S
C285 H312 0.930 . S
C286 C284 1.352 . S
C286 C288 1.374 . S
C286 H313 0.931 . S
C287 C288 1.359 . S
C287 C289 1.364 . S
C288 C286 1.374 . S
C288 C287 1.359 . S
C288 H314 0.931 . S
C289 C285 1.389 . S
C289 C287 1.364 . S
C289 H315 0.931 . S
C290 O304 1.256 . S
C290 O305 1.257 . S
C291 O306 1.239 1_565 S
C291 O307 1.245 . S
C292 Gd281 2.818 1_545 S
C292 C293 1.510 . S
C292 O308 1.249 . S
C292 O309 1.252 . S
C293 C292 1.510 . S
C293 C294 1.404 . S
C293 C295 1.352 . S
C294 C293 1.404 . S
C294 C298 1.389 . S
C294 H316 0.930 . S
C295 C293 1.352 . S
C295 C297 1.374 . S
C295 H317 0.931 . S
C296 C297 1.359 . S
C296 C298 1.364 . S
C297 C295 1.374 . S
C297 C296 1.359 . S
C297 H318 0.931 . S
C298 C294 1.389 . S
C298 C296 1.364 . S
C298 H319 0.931 . S
C299 O310 1.256 . S
C299 O311 1.257 . S
O300 Gd280 2.377 . S
O300 C282 1.240 . S
O301 Gd281 2.395 . S
O301 C282 1.240 . S
O302 Gd280 2.448 . S
O302 C283 1.249 . S
O303 Gd280 2.506 . S
O303 C283 1.252 . S
O304 Gd280 2.435 . S
O304 C290 1.256 . S
O305 Gd280 2.717 . S
O305 Gd281 2.327 . S
O305 C290 1.257 . S
O306 Gd281 2.377 1_545 S
O306 C291 1.239 1_545 S
O307 Gd280 2.395 . S
O307 C291 1.245 . S
O308 Gd281 2.448 1_545 S
O308 C292 1.249 . S
O309 Gd281 2.506 1_545 S
O309 C292 1.252 . S
O310 Gd281 2.435 . S
O310 C299 1.256 . S
O311 Gd280 2.327 . S
O311 Gd281 2.717 . S
O311 C299 1.257 . S
H312 C285 0.930 . S
H313 C286 0.931 . S
H314 C288 0.931 . S
H315 C289 0.931 . S
H316 C294 0.930 . S
H317 C295 0.931 . S
H318 C297 0.931 . S
H319 C298 0.931 . S
Gd320 C323 2.818 . S
Gd320 O340 2.377 . S
Gd320 O342 2.448 . S
Gd320 O343 2.506 . S
Gd320 O344 2.435 . S
Gd320 O345 2.717 . S
Gd320 O347 2.395 . S
Gd320 O351 2.327 . S
Gd321 C332 2.818 . S
Gd321 O341 2.395 . S
Gd321 O345 2.327 . S
Gd321 O346 2.377 . S
Gd321 O348 2.448 . S
Gd321 O349 2.506 . S
Gd321 O350 2.435 . S
Gd321 O351 2.717 . S
C322 O340 1.240 . S
C322 O341 1.240 . S
C323 Gd320 2.818 . S
C323 C324 1.510 . S
C323 O342 1.249 . S
C323 O343 1.252 . S
C324 C323 1.510 . S
C324 C325 1.404 . S
C324 C326 1.352 . S
C325 C324 1.404 . S
C325 C329 1.389 . S
C325 H352 0.930 . S
C326 C324 1.352 . S
C326 C328 1.374 . S
C326 H353 0.931 . S
C327 C328 1.359 . S
C327 C329 1.364 . S
C328 C326 1.374 . S
C328 C327 1.359 . S
C328 H354 0.931 . S
C329 C325 1.389 . S
C329 C327 1.364 . S
C329 H355 0.931 . S
C330 O344 1.256 . S
C330 O345 1.257 . S
C331 O346 1.240 . S
C331 O347 1.240 . S
C332 Gd321 2.818 . S
C332 C333 1.510 . S
C332 O348 1.249 . S
C332 O349 1.252 . S
C333 C332 1.510 . S
C333 C334 1.404 . S
C333 C335 1.352 . S
C334 C333 1.404 . S
C334 C338 1.389 1_565 S
C334 H356 0.930 . S
C335 C333 1.352 . S
C335 C337 1.374 1_565 S
C335 H357 0.931 . S
C336 C337 1.359 . S
C336 C338 1.364 . S
C337 C335 1.374 1_545 S
C337 C336 1.359 . S
C337 H358 0.931 . S
C338 C334 1.389 1_545 S
C338 C336 1.364 . S
C338 H359 0.931 . S
C339 O350 1.256 . S
C339 O351 1.257 . S
O340 Gd320 2.377 . S
O340 C322 1.240 . S
O341 Gd321 2.395 . S
O341 C322 1.240 . S
O342 Gd320 2.448 . S
O342 C323 1.249 . S
O343 Gd320 2.506 . S
O343 C323 1.252 . S
O344 Gd320 2.435 . S
O344 C330 1.256 . S
O345 Gd320 2.717 . S
O345 Gd321 2.327 . S
O345 C330 1.257 . S
O346 Gd321 2.377 . S
O346 C331 1.240 . S
O347 Gd320 2.395 . S
O347 C331 1.240 . S
O348 Gd321 2.448 . S
O348 C332 1.249 . S
O349 Gd321 2.506 . S
O349 C332 1.252 . S
O350 Gd321 2.435 . S
O350 C339 1.256 . S
O351 Gd320 2.327 . S
O351 Gd321 2.717 . S
O351 C339 1.257 . S
H352 C325 0.930 . S
H353 C326 0.931 . S
H354 C328 0.931 . S
H355 C329 0.931 . S
H356 C334 0.930 . S
H357 C335 0.931 . S
H358 C337 0.931 . S
H359 C338 0.931 . S
Gd360 C363 2.818 . S
Gd360 O380 2.377 . S
Gd360 O382 2.448 . S
Gd360 O383 2.506 . S
Gd360 O384 2.435 . S
Gd360 O385 2.717 . S
Gd360 O387 2.395 . S
Gd360 O391 2.327 . S
Gd361 C372 2.818 . S
Gd361 O381 2.395 . S
Gd361 O385 2.327 . S
Gd361 O386 2.377 . S
Gd361 O388 2.448 . S
Gd361 O389 2.506 . S
Gd361 O390 2.435 . S
Gd361 O391 2.717 . S
C362 O380 1.240 . S
C362 O381 1.240 . S
C363 Gd360 2.818 . S
C363 C364 1.510 . S
C363 O382 1.249 . S
C363 O383 1.252 . S
C364 C363 1.510 . S
C364 C365 1.404 . S
C364 C366 1.352 . S
C365 C364 1.404 . S
C365 C369 1.389 . S
C365 H392 0.930 . S
C366 C364 1.352 . S
C366 C368 1.374 . S
C366 H393 0.931 . S
C367 C368 1.359 . S
C367 C369 1.364 . S
C368 C366 1.374 . S
C368 C367 1.359 . S
C368 H394 0.931 . S
C369 C365 1.389 . S
C369 C367 1.364 . S
C369 H395 0.931 . S
C370 O384 1.256 . S
C370 O385 1.257 . S
C371 O386 1.240 . S
C371 O387 1.240 . S
C372 Gd361 2.818 . S
C372 C373 1.510 . S
C372 O388 1.249 . S
C372 O389 1.252 . S
C373 C372 1.510 . S
C373 C374 1.404 . S
C373 C375 1.352 . S
C374 C373 1.404 . S
C374 C378 1.389 1_545 S
C374 H396 0.930 . S
C375 C373 1.352 . S
C375 C377 1.374 1_545 S
C375 H397 0.931 . S
C376 C377 1.359 . S
C376 C378 1.364 . S
C377 C375 1.374 1_565 S
C377 C376 1.359 . S
C377 H398 0.931 . S
C378 C374 1.389 1_565 S
C378 C376 1.364 . S
C378 H399 0.931 . S
C379 O390 1.256 . S
C379 O391 1.257 . S
O380 Gd360 2.377 . S
O380 C362 1.240 . S
O381 Gd361 2.395 . S
O381 C362 1.240 . S
O382 Gd360 2.448 . S
O382 C363 1.249 . S
O383 Gd360 2.506 . S
O383 C363 1.252 . S
O384 Gd360 2.435 . S
O384 C370 1.256 . S
O385 Gd360 2.717 . S
O385 Gd361 2.327 . S
O385 C370 1.257 . S
O386 Gd361 2.377 . S
O386 C371 1.240 . S
O387 Gd360 2.395 . S
O387 C371 1.240 . S
O388 Gd361 2.448 . S
O388 C372 1.249 . S
O389 Gd361 2.506 . S
O389 C372 1.252 . S
O390 Gd361 2.435 . S
O390 C379 1.256 . S
O391 Gd360 2.327 . S
O391 Gd361 2.717 . S
O391 C379 1.257 . S
H392 C365 0.930 . S
H393 C366 0.931 . S
H394 C368 0.931 . S
H395 C369 0.931 . S
H396 C374 0.930 . S
H397 C375 0.931 . S
H398 C377 0.931 . S
H399 C378 0.931 . S
Gd400 C403 2.818 . S
Gd400 O420 2.377 . S
Gd400 O422 2.448 . S
Gd400 O423 2.506 . S
Gd400 O424 2.435 . S
Gd400 O425 2.717 . S
Gd400 O427 2.395 . S
Gd400 O431 2.327 . S
Gd401 C412 2.818 . S
Gd401 O421 2.395 . S
Gd401 O425 2.327 . S
Gd401 O426 2.377 . S
Gd401 O428 2.448 . S
Gd401 O429 2.506 . S
Gd401 O430 2.435 . S
Gd401 O431 2.717 . S
C402 O420 1.240 . S
C402 O421 1.240 . S
C403 Gd400 2.818 . S
C403 C404 1.510 . S
C403 O422 1.249 . S
C403 O423 1.252 . S
C404 C403 1.510 . S
C404 C405 1.404 . S
C404 C406 1.352 . S
C405 C404 1.404 . S
C405 C409 1.389 . S
C405 H432 0.930 . S
C406 C404 1.352 . S
C406 C408 1.374 . S
C406 H433 0.931 . S
C407 C408 1.359 . S
C407 C409 1.364 . S
C408 C406 1.374 . S
C408 C407 1.359 . S
C408 H434 0.931 . S
C409 C405 1.389 . S
C409 C407 1.364 . S
C409 H435 0.931 . S
C410 O424 1.256 . S
C410 O425 1.257 . S
C411 O426 1.240 . S
C411 O427 1.240 . S
C412 Gd401 2.818 . S
C412 C413 1.510 . S
C412 O428 1.249 . S
C412 O429 1.252 . S
C413 C412 1.510 . S
C413 C414 1.404 . S
C413 C415 1.352 . S
C414 C413 1.404 . S
C414 C418 1.389 1_545 S
C414 H436 0.930 . S
C415 C413 1.352 . S
C415 C417 1.374 1_545 S
C415 H437 0.931 . S
C416 C417 1.359 . S
C416 C418 1.364 . S
C417 C415 1.374 1_565 S
C417 C416 1.359 . S
C417 H438 0.931 . S
C418 C414 1.389 1_565 S
C418 C416 1.364 . S
C418 H439 0.931 . S
C419 O430 1.256 . S
C419 O431 1.257 . S
O420 Gd400 2.377 . S
O420 C402 1.240 . S
O421 Gd401 2.395 . S
O421 C402 1.240 . S
O422 Gd400 2.448 . S
O422 C403 1.249 . S
O423 Gd400 2.506 . S
O423 C403 1.252 . S
O424 Gd400 2.435 . S
O424 C410 1.256 . S
O425 Gd400 2.717 . S
O425 Gd401 2.327 . S
O425 C410 1.257 . S
O426 Gd401 2.377 . S
O426 C411 1.240 . S
O427 Gd400 2.395 . S
O427 C411 1.240 . S
O428 Gd401 2.448 . S
O428 C412 1.249 . S
O429 Gd401 2.506 . S
O429 C412 1.252 . S
O430 Gd401 2.435 . S
O430 C419 1.256 . S
O431 Gd400 2.327 . S
O431 Gd401 2.717 . S
O431 C419 1.257 . S
H432 C405 0.930 . S
H433 C406 0.931 . S
H434 C408 0.931 . S
H435 C409 0.931 . S
H436 C414 0.930 . S
H437 C415 0.931 . S
H438 C417 0.931 . S
H439 C418 0.931 . S
Gd440 C443 2.818 . S
Gd440 O460 2.377 . S
Gd440 O462 2.448 . S
Gd440 O463 2.506 . S
Gd440 O464 2.435 . S
Gd440 O465 2.717 . S
Gd440 O467 2.395 . S
Gd440 O471 2.327 . S
Gd441 C452 2.818 . S
Gd441 O461 2.395 . S
Gd441 O465 2.327 . S
Gd441 O466 2.377 . S
Gd441 O468 2.448 . S
Gd441 O469 2.506 . S
Gd441 O470 2.435 . S
Gd441 O471 2.717 . S
C442 O460 1.240 . S
C442 O461 1.240 . S
C443 Gd440 2.818 . S
C443 C444 1.510 . S
C443 O462 1.249 . S
C443 O463 1.252 . S
C444 C443 1.510 . S
C444 C445 1.404 . S
C444 C446 1.352 . S
C445 C444 1.404 . S
C445 C449 1.389 . S
C445 H472 0.930 . S
C446 C444 1.352 . S
C446 C448 1.374 . S
C446 H473 0.931 . S
C447 C448 1.359 . S
C447 C449 1.364 . S
C448 C446 1.374 . S
C448 C447 1.359 . S
C448 H474 0.931 . S
C449 C445 1.389 . S
C449 C447 1.364 . S
C449 H475 0.931 . S
C450 O464 1.256 . S
C450 O465 1.257 . S
C451 O466 1.240 . S
C451 O467 1.240 . S
C452 Gd441 2.818 . S
C452 C453 1.510 . S
C452 O468 1.249 . S
C452 O469 1.252 . S
C453 C452 1.510 . S
C453 C454 1.404 . S
C453 C455 1.352 . S
C454 C453 1.404 . S
C454 C458 1.389 1_565 S
C454 H476 0.930 . S
C455 C453 1.352 . S
C455 C457 1.374 1_565 S
C455 H477 0.931 . S
C456 C457 1.359 . S
C456 C458 1.364 . S
C457 C455 1.374 1_545 S
C457 C456 1.359 . S
C457 H478 0.931 . S
C458 C454 1.389 1_545 S
C458 C456 1.364 . S
C458 H479 0.931 . S
C459 O470 1.256 . S
C459 O471 1.257 . S
O460 Gd440 2.377 . S
O460 C442 1.240 . S
O461 Gd441 2.395 . S
O461 C442 1.240 . S
O462 Gd440 2.448 . S
O462 C443 1.249 . S
O463 Gd440 2.506 . S
O463 C443 1.252 . S
O464 Gd440 2.435 . S
O464 C450 1.256 . S
O465 Gd440 2.717 . S
O465 Gd441 2.327 . S
O465 C450 1.257 . S
O466 Gd441 2.377 . S
O466 C451 1.240 . S
O467 Gd440 2.395 . S
O467 C451 1.240 . S
O468 Gd441 2.448 . S
O468 C452 1.249 . S
O469 Gd441 2.506 . S
O469 C452 1.252 . S
O470 Gd441 2.435 . S
O470 C459 1.256 . S
O471 Gd440 2.327 . S
O471 Gd441 2.717 . S
O471 C459 1.257 . S
H472 C445 0.930 . S
H473 C446 0.931 . S
H474 C448 0.931 . S
H475 C449 0.931 . S
H476 C454 0.930 . S
H477 C455 0.931 . S
H478 C457 0.931 . S
H479 C458 0.931 . S
Gd480 C483 2.818 . S
Gd480 O500 2.377 . S
Gd480 O502 2.448 . S
Gd480 O503 2.506 . S
Gd480 O504 2.435 . S
Gd480 O505 2.717 . S
Gd480 O507 2.395 . S
Gd480 O511 2.327 . S
Gd481 C492 2.818 . S
Gd481 O501 2.395 . S
Gd481 O505 2.327 . S
Gd481 O506 2.377 . S
Gd481 O508 2.448 . S
Gd481 O509 2.506 . S
Gd481 O510 2.435 . S
Gd481 O511 2.717 . S
C482 O500 1.240 . S
C482 O501 1.240 . S
C483 Gd480 2.818 . S
C483 C484 1.510 . S
C483 O502 1.249 . S
C483 O503 1.252 . S
C484 C483 1.510 . S
C484 C485 1.404 . S
C484 C486 1.352 . S
C485 C484 1.404 . S
C485 C489 1.389 1_545 S
C485 H512 0.930 . S
C486 C484 1.352 . S
C486 C488 1.374 1_545 S
C486 H513 0.931 . S
C487 C488 1.359 . S
C487 C489 1.364 . S
C488 C486 1.374 1_565 S
C488 C487 1.359 . S
C488 H514 0.931 . S
C489 C485 1.389 1_565 S
C489 C487 1.364 . S
C489 H515 0.931 . S
C490 O504 1.256 . S
C490 O505 1.257 . S
C491 O506 1.240 . S
C491 O507 1.240 . S
C492 Gd481 2.818 . S
C492 C493 1.510 . S
C492 O508 1.249 . S
C492 O509 1.252 . S
C493 C492 1.510 . S
C493 C494 1.404 . S
C493 C495 1.352 . S
C494 C493 1.404 . S
C494 C498 1.389 . S
C494 H516 0.930 . S
C495 C493 1.352 . S
C495 C497 1.374 . S
C495 H517 0.931 . S
C496 C497 1.359 . S
C496 C498 1.364 . S
C497 C495 1.374 . S
C497 C496 1.359 . S
C497 H518 0.931 . S
C498 C494 1.389 . S
C498 C496 1.364 . S
C498 H519 0.931 . S
C499 O510 1.256 . S
C499 O511 1.257 . S
O500 Gd480 2.377 . S
O500 C482 1.240 . S
O501 Gd481 2.395 . S
O501 C482 1.240 . S
O502 Gd480 2.448 . S
O502 C483 1.249 . S
O503 Gd480 2.506 . S
O503 C483 1.252 . S
O504 Gd480 2.435 . S
O504 C490 1.256 . S
O505 Gd480 2.717 . S
O505 Gd481 2.327 . S
O505 C490 1.257 . S
O506 Gd481 2.377 . S
O506 C491 1.240 . S
O507 Gd480 2.395 . S
O507 C491 1.240 . S
O508 Gd481 2.448 . S
O508 C492 1.249 . S
O509 Gd481 2.506 . S
O509 C492 1.252 . S
O510 Gd481 2.435 . S
O510 C499 1.256 . S
O511 Gd480 2.327 . S
O511 Gd481 2.717 . S
O511 C499 1.257 . S
H512 C485 0.930 . S
H513 C486 0.931 . S
H514 C488 0.931 . S
H515 C489 0.931 . S
H516 C494 0.930 . S
H517 C495 0.931 . S
H518 C497 0.931 . S
H519 C498 0.931 . S
Gd520 C523 2.818 . S
Gd520 O540 2.377 . S
Gd520 O542 2.448 . S
Gd520 O543 2.506 . S
Gd520 O544 2.435 . S
Gd520 O545 2.717 . S
Gd520 O547 2.395 . S
Gd520 O551 2.327 . S
Gd521 C532 2.818 . S
Gd521 O541 2.395 . S
Gd521 O545 2.327 . S
Gd521 O546 2.377 . S
Gd521 O548 2.448 . S
Gd521 O549 2.506 . S
Gd521 O550 2.435 . S
Gd521 O551 2.717 . S
C522 O540 1.240 . S
C522 O541 1.240 . S
C523 Gd520 2.818 . S
C523 C524 1.510 . S
C523 O542 1.249 . S
C523 O543 1.252 . S
C524 C523 1.510 . S
C524 C525 1.404 . S
C524 C526 1.352 . S
C525 C524 1.404 . S
C525 C529 1.389 1_565 S
C525 H552 0.930 . S
C526 C524 1.352 . S
C526 C528 1.374 1_565 S
C526 H553 0.931 . S
C527 C528 1.359 . S
C527 C529 1.364 . S
C528 C526 1.374 1_545 S
C528 C527 1.359 . S
C528 H554 0.931 . S
C529 C525 1.389 1_545 S
C529 C527 1.364 . S
C529 H555 0.931 . S
C530 O544 1.256 . S
C530 O545 1.257 . S
C531 O546 1.240 . S
C531 O547 1.240 . S
C532 Gd521 2.818 . S
C532 C533 1.510 . S
C532 O548 1.249 . S
C532 O549 1.252 . S
C533 C532 1.510 . S
C533 C534 1.404 . S
C533 C535 1.352 . S
C534 C533 1.404 . S
C534 C538 1.389 . S
C534 H556 0.930 . S
C535 C533 1.352 . S
C535 C537 1.374 . S
C535 H557 0.931 . S
C536 C537 1.359 . S
C536 C538 1.364 . S
C537 C535 1.374 . S
C537 C536 1.359 . S
C537 H558 0.931 . S
C538 C534 1.389 . S
C538 C536 1.364 . S
C538 H559 0.931 . S
C539 O550 1.256 . S
C539 O551 1.257 . S
O540 Gd520 2.377 . S
O540 C522 1.240 . S
O541 Gd521 2.395 . S
O541 C522 1.240 . S
O542 Gd520 2.448 . S
O542 C523 1.249 . S
O543 Gd520 2.506 . S
O543 C523 1.252 . S
O544 Gd520 2.435 . S
O544 C530 1.256 . S
O545 Gd520 2.717 . S
O545 Gd521 2.327 . S
O545 C530 1.257 . S
O546 Gd521 2.377 . S
O546 C531 1.240 . S
O547 Gd520 2.395 . S
O547 C531 1.240 . S
O548 Gd521 2.448 . S
O548 C532 1.249 . S
O549 Gd521 2.506 . S
O549 C532 1.252 . S
O550 Gd521 2.435 . S
O550 C539 1.256 . S
O551 Gd520 2.327 . S
O551 Gd521 2.717 . S
O551 C539 1.257 . S
H552 C525 0.930 . S
H553 C526 0.931 . S
H554 C528 0.931 . S
H555 C529 0.931 . S
H556 C534 0.930 . S
H557 C535 0.931 . S
H558 C537 0.931 . S
H559 C538 0.931 . S
Gd560 C563 2.818 . S
Gd560 O580 2.377 . S
Gd560 O582 2.448 . S
Gd560 O583 2.506 . S
Gd560 O584 2.435 . S
Gd560 O585 2.717 . S
Gd560 O587 2.395 . S
Gd560 O591 2.327 . S
Gd561 C572 2.818 . S
Gd561 O581 2.395 . S
Gd561 O585 2.327 . S
Gd561 O586 2.377 . S
Gd561 O588 2.448 . S
Gd561 O589 2.506 . S
Gd561 O590 2.435 . S
Gd561 O591 2.717 . S
C562 O580 1.240 . S
C562 O581 1.240 . S
C563 Gd560 2.818 . S
C563 C564 1.510 . S
C563 O582 1.249 . S
C563 O583 1.252 . S
C564 C563 1.510 . S
C564 C565 1.404 . S
C564 C566 1.352 . S
C565 C564 1.404 . S
C565 C569 1.389 1_565 S
C565 H592 0.930 . S
C566 C564 1.352 . S
C566 C568 1.374 1_565 S
C566 H593 0.931 . S
C567 C568 1.359 . S
C567 C569 1.364 . S
C568 C566 1.374 1_545 S
C568 C567 1.359 . S
C568 H594 0.931 . S
C569 C565 1.389 1_545 S
C569 C567 1.364 . S
C569 H595 0.931 . S
C570 O584 1.256 . S
C570 O585 1.257 . S
C571 O586 1.240 . S
C571 O587 1.240 . S
C572 Gd561 2.818 . S
C572 C573 1.510 . S
C572 O588 1.249 . S
C572 O589 1.252 . S
C573 C572 1.510 . S
C573 C574 1.404 . S
C573 C575 1.352 . S
C574 C573 1.404 . S
C574 C578 1.389 . S
C574 H596 0.930 . S
C575 C573 1.352 . S
C575 C577 1.374 . S
C575 H597 0.931 . S
C576 C577 1.359 . S
C576 C578 1.364 . S
C577 C575 1.374 . S
C577 C576 1.359 . S
C577 H598 0.931 . S
C578 C574 1.389 . S
C578 C576 1.364 . S
C578 H599 0.931 . S
C579 O590 1.256 . S
C579 O591 1.257 . S
O580 Gd560 2.377 . S
O580 C562 1.240 . S
O581 Gd561 2.395 . S
O581 C562 1.240 . S
O582 Gd560 2.448 . S
O582 C563 1.249 . S
O583 Gd560 2.506 . S
O583 C563 1.252 . S
O584 Gd560 2.435 . S
O584 C570 1.256 . S
O585 Gd560 2.717 . S
O585 Gd561 2.327 . S
O585 C570 1.257 . S
O586 Gd561 2.377 . S
O586 C571 1.240 . S
O587 Gd560 2.395 . S
O587 C571 1.240 . S
O588 Gd561 2.448 . S
O588 C572 1.249 . S
O589 Gd561 2.506 . S
O589 C572 1.252 . S
O590 Gd561 2.435 . S
O590 C579 1.256 . S
O591 Gd560 2.327 . S
O591 Gd561 2.717 . S
O591 C579 1.257 . S
H592 C565 0.930 . S
H593 C566 0.931 . S
H594 C568 0.931 . S
H595 C569 0.931 . S
H596 C574 0.930 . S
H597 C575 0.931 . S
H598 C577 0.931 . S
H599 C578 0.931 . S
Gd600 C603 2.818 . S
Gd600 O620 2.377 . S
Gd600 O622 2.448 . S
Gd600 O623 2.506 . S
Gd600 O624 2.435 . S
Gd600 O625 2.717 . S
Gd600 O627 2.395 . S
Gd600 O631 2.327 . S
Gd601 C612 2.818 . S
Gd601 O621 2.395 . S
Gd601 O625 2.327 . S
Gd601 O626 2.377 . S
Gd601 O628 2.448 . S
Gd601 O629 2.506 . S
Gd601 O630 2.435 . S
Gd601 O631 2.717 . S
C602 O620 1.240 . S
C602 O621 1.240 . S
C603 Gd600 2.818 . S
C603 C604 1.510 . S
C603 O622 1.249 . S
C603 O623 1.252 . S
C604 C603 1.510 . S
C604 C605 1.404 . S
C604 C606 1.352 . S
C605 C604 1.404 . S
C605 C609 1.389 1_545 S
C605 H632 0.930 . S
C606 C604 1.352 . S
C606 C608 1.374 1_545 S
C606 H633 0.931 . S
C607 C608 1.359 . S
C607 C609 1.364 . S
C608 C606 1.374 1_565 S
C608 C607 1.359 . S
C608 H634 0.931 . S
C609 C605 1.389 1_565 S
C609 C607 1.364 . S
C609 H635 0.931 . S
C610 O624 1.256 . S
C610 O625 1.257 . S
C611 O626 1.240 . S
C611 O627 1.240 . S
C612 Gd601 2.818 . S
C612 C613 1.510 . S
C612 O628 1.249 . S
C612 O629 1.252 . S
C613 C612 1.510 . S
C613 C614 1.404 . S
C613 C615 1.352 . S
C614 C613 1.404 . S
C614 C618 1.389 . S
C614 H636 0.930 . S
C615 C613 1.352 . S
C615 C617 1.374 . S
C615 H637 0.931 . S
C616 C617 1.359 . S
C616 C618 1.364 . S
C617 C615 1.374 . S
C617 C616 1.359 . S
C617 H638 0.931 . S
C618 C614 1.389 . S
C618 C616 1.364 . S
C618 H639 0.931 . S
C619 O630 1.256 . S
C619 O631 1.257 . S
O620 Gd600 2.377 . S
O620 C602 1.240 . S
O621 Gd601 2.395 . S
O621 C602 1.240 . S
O622 Gd600 2.448 . S
O622 C603 1.249 . S
O623 Gd600 2.506 . S
O623 C603 1.252 . S
O624 Gd600 2.435 . S
O624 C610 1.256 . S
O625 Gd600 2.717 . S
O625 Gd601 2.327 . S
O625 C610 1.257 . S
O626 Gd601 2.377 . S
O626 C611 1.240 . S
O627 Gd600 2.395 . S
O627 C611 1.240 . S
O628 Gd601 2.448 . S
O628 C612 1.249 . S
O629 Gd601 2.506 . S
O629 C612 1.252 . S
O630 Gd601 2.435 . S
O630 C619 1.256 . S
O631 Gd600 2.327 . S
O631 Gd601 2.717 . S
O631 C619 1.257 . S
H632 C605 0.930 . S
H633 C606 0.931 . S
H634 C608 0.931 . S
H635 C609 0.931 . S
H636 C614 0.930 . S
H637 C615 0.931 . S
H638 C617 0.931 . S
H639 C618 0.931 . S
C11 C371 2.607 . S
C51 C331 2.607 . S
C451 C91 2.607 . S
C131 C411 2.607 . S
C522 C162 2.607 . S
C482 C202 2.607 . S
C602 C242 2.607 . S
C282 C562 2.607 . S
C99 C19 2.998 1_565 S
C139 C59 2.998 1_545 S
C250 C170 2.998 1_545 S
C210 C290 2.998 1_545 S
C419 C339 2.998 . S
C459 C379 2.998 . S
C490 C570 2.998 . S
C530 C610 2.998 . S
C219 C10 1.445 1_556 S
C179 C50 1.445 1_556 S
C90 C299 1.445 . S
C259 C130 1.445 . S
C330 C539 1.445 1_554 S
C499 C370 1.445 1_556 S
C410 C619 1.445 . S
C579 C450 1.445 . S
C42 C2 1.849 1_665 S
C122 C82 1.849 1_645 S
C211 C171 1.849 1_445 S
C251 C291 1.849 1_645 S
C362 C322 1.849 . S
C442 C402 1.849 . S
C491 C531 1.849 . S
C571 C611 1.849 . S
C7 C16 1.760 . S
C47 C56 1.760 . S
C87 C96 1.760 . S
C136 C127 1.760 . S
C176 C167 1.760 . S
C207 C216 1.760 . S
C256 C247 1.760 . S
C296 C287 1.760 . S
C336 C327 1.760 . S
C367 C376 1.760 . S
C416 C407 1.760 . S
C456 C447 1.760 . S
C496 C487 1.760 . S
C536 C527 1.760 . S
C567 C576 1.760 . S
C616 C607 1.760 . S
