# Generated by pormake.
# Topology ukg, (4)-cn, num edge types: 1
# Building blocks:
#     Node 0, Type 0, BuildingBlock: MUDLON_clean_sbu_0, # of connection points: 4
#     Node 1, Type 0, BuildingBlock: MUDLON_clean_sbu_0, # of connection points: 4
#     Node 2, Type 0, BuildingBlock: MUDLON_clean_sbu_0, # of connection points: 4
#     Node 3, Type 0, BuildingBlock: MUDLON_clean_sbu_0, # of connection points: 4
#     Node 4, Type 0, BuildingBlock: MUDLON_clean_sbu_0, # of connection points: 4
#     Node 5, Type 0, BuildingBlock: MUDLON_clean_sbu_0, # of connection points: 4
#     Node 6, Type 0, BuildingBlock: MUDLON_clean_sbu_0, # of connection points: 4
#     Node 7, Type 0, BuildingBlock: MUDLON_clean_sbu_0, # of connection points: 4
#     Edge 8, Type (0, 0), BuildingBlock: MIFKUJ_clean_linker_0, # of connection points: 2
#     Edge 9, Type (0, 0), BuildingBlock: MIFKUJ_clean_linker_0, # of connection points: 2
#     Edge 10, Type (0, 0), BuildingBlock: MIFKUJ_clean_linker_0, # of connection points: 2
#     Edge 11, Type (0, 0), BuildingBlock: MIFKUJ_clean_linker_0, # of connection points: 2
#     Edge 12, Type (0, 0), BuildingBlock: MIFKUJ_clean_linker_0, # of connection points: 2
#     Edge 13, Type (0, 0), BuildingBlock: MIFKUJ_clean_linker_0, # of connection points: 2
#     Edge 14, Type (0, 0), BuildingBlock: MIFKUJ_clean_linker_0, # of connection points: 2
#     Edge 15, Type (0, 0), BuildingBlock: MIFKUJ_clean_linker_0, # of connection points: 2
#     Edge 16, Type (0, 0), BuildingBlock: MIFKUJ_clean_linker_0, # of connection points: 2
#     Edge 17, Type (0, 0), BuildingBlock: MIFKUJ_clean_linker_0, # of connection points: 2
#     Edge 18, Type (0, 0), BuildingBlock: MIFKUJ_clean_linker_0, # of connection points: 2
#     Edge 19, Type (0, 0), BuildingBlock: MIFKUJ_clean_linker_0, # of connection points: 2
#     Edge 20, Type (0, 0), BuildingBlock: MIFKUJ_clean_linker_0, # of connection points: 2
#     Edge 21, Type (0, 0), BuildingBlock: MIFKUJ_clean_linker_0, # of connection points: 2
#     Edge 22, Type (0, 0), BuildingBlock: MIFKUJ_clean_linker_0, # of connection points: 2
#     Edge 23, Type (0, 0), BuildingBlock: MIFKUJ_clean_linker_0, # of connection points: 2
# Relax obj value: 0.086
# Max RMSD: 0.239
# Mean RMSD: 0.239
data_MOF--net-ukg--node1-MUDLON_clean_sbu_0--edge1-MIFKUJ_clean_linker_0
_symmetry_space_group_name_H-M    P1
_symmetry_Int_Tables_number       1
_symmetry_cell_setting            triclinic
loop_
_symmetry_equiv_pos_as_xyz
'x, y, z'
_cell_length_a     41.553791
_cell_length_b     41.955885
_cell_length_c     48.383627
_cell_angle_alpha  89.679568
_cell_angle_beta   89.403169
_cell_angle_gamma 89.924325
loop_
_atom_site_label
_atom_site_type_symbol
_atom_site_fract_x
_atom_site_fract_y
_atom_site_fract_z
_atom_type_partial_charge
Mg0 Mg 0.04344 0.6712 0.16203 0.0
C1 C 1.01255 0.62181 0.20165 0.0
O2 O 0.0203 0.60133 0.18225 0.0
C3 C 0.10246 0.70546 0.18224 0.0
O4 O 0.07987 0.7227 0.19413 0.0
C5 C 1.01261 0.62646 0.11926 0.0
O6 O 0.98635 0.63177 0.1339 0.0
O7 O 0.03863 0.64026 0.12599 0.0
O8 O 0.02079 0.65081 0.19882 0.0
O9 O 0.02029 0.71746 0.15815 0.0
C10 C 0.99092 0.72104 0.16517 0.0
O11 O 0.97352 0.69566 0.17084 0.0
O12 O 0.09431 0.68128 0.16818 0.0
Mg13 Mg 0.3565 0.54467 0.66228 0.0
C14 C 0.40053 0.49901 0.69145 0.0
O15 O 0.41075 0.49612 0.66581 0.0
C16 C 0.32515 0.60751 0.65388 0.0
O17 O 0.31322 0.59001 0.63401 0.0
C18 C 0.38792 0.52162 0.60706 0.0
O19 O 0.3652 0.49987 0.60756 0.0
O20 O 0.38873 0.54229 0.62619 0.0
O21 O 0.37893 0.51966 0.69685 0.0
O22 O 0.31016 0.52055 0.65912 0.0
C23 C 0.28952 0.52995 0.67696 0.0
O24 O 0.29742 0.55327 0.69356 0.0
O25 O 0.34563 0.59491 0.67003 0.0
Mg26 Mg 0.49182 0.85002 0.16315 0.0
C27 C 0.52691 0.85937 0.21664 0.0
O28 O 0.52091 0.82867 0.21823 0.0
C29 C 0.4291 0.81717 0.15852 0.0
O30 O 0.44749 0.80194 0.1407 0.0
C31 C 0.51797 0.89905 0.12217 0.0
O32 O 0.539 0.90255 0.14202 0.0
O33 O 0.49614 0.87797 0.12495 0.0
O34 O 0.51568 0.87528 0.19645 0.0
O35 O 0.5148 0.80335 0.16155 0.0
C36 C 0.54513 0.79959 0.16266 0.0
O37 O 0.56383 0.8248 0.16141 0.0
O38 O 0.44113 0.84031 0.17182 0.0
Mg39 Mg 0.17946 0.99233 0.66106 0.0
C40 C 0.13071 0.02657 0.6976 0.0
O41 O 0.11383 0.02546 0.67482 0.0
C42 C 0.20967 0.93062 0.6792 0.0
O43 O 0.22636 0.9512 0.69354 0.0
C44 C 0.1445 0.98581 0.60563 0.0
O45 O 0.16039 0.95873 0.60479 0.0
O46 O 0.14895 1.00456 0.62584 0.0
O47 O 0.15801 0.01285 0.6982 0.0
O48 O 0.22744 0.01306 0.65997 0.0
C49 C 0.23228 0.04283 0.66241 0.0
O50 O 0.20758 0.0624 0.66215 0.0
O51 O 0.18686 0.94089 0.66418 0.0
Mg52 Mg 0.98856 0.35235 0.85495 0.0
C53 C 0.03711 0.29565 0.85636 0.0
O54 O 0.0587 0.31681 0.86355 0.0
C55 C 1.01703 0.39582 0.89865 0.0
O56 O 0.03998 0.39808 0.87986 0.0
C57 C 0.92272 0.33052 0.867 0.0
O58 O 0.93883 0.32314 0.88939 0.0
O59 O 0.93742 0.34514 0.84753 0.0
O60 O 1.00795 0.30418 0.85355 0.0
O61 O 1.01336 0.3797 0.82269 0.0
C62 C 0.02668 0.36539 0.80245 0.0
O63 O 0.02293 0.33444 0.80018 0.0
O64 O 0.99342 0.37726 0.8943 0.0
Mg65 Mg 0.67861 0.48351 0.35027 0.0
C66 C 0.73364 0.53292 0.35441 0.0
O67 O 0.71036 0.55414 0.35501 0.0
C68 C 0.64638 0.5071 0.40491 0.0
O69 O 0.66875 0.52919 0.4042 0.0
C70 C 0.69439 0.41577 0.36181 0.0
O71 O 0.6924 0.42828 0.38662 0.0
O72 O 0.68812 0.4334 0.34104 0.0
O73 O 0.72665 0.50341 0.35491 0.0
O74 O 0.65628 0.5103 0.3167 0.0
C75 C 0.6736 0.52289 0.29774 0.0
O76 O 0.7046 0.51673 0.29709 0.0
O77 O 0.64606 0.48599 0.38613 0.0
Mg78 Mg 0.53902 0.17405 0.85445 0.0
C79 C 0.48484 0.22269 0.84879 0.0
O80 O 0.46773 0.19685 0.84472 0.0
C81 C 0.51338 0.12456 0.89533 0.0
O82 O 0.49246 0.12077 0.87544 0.0
C83 C 0.60707 0.19128 0.86728 0.0
O84 O 0.59476 0.18722 0.89218 0.0
O85 O 0.58939 0.186 0.84649 0.0
O86 O 0.51423 0.21982 0.85551 0.0
O87 O 0.51712 0.14781 0.8208 0.0
C88 C 0.51036 0.16228 0.79841 0.0
O89 O 0.51981 0.19195 0.79512 0.0
O90 O 0.53491 0.14595 0.8926 0.0
Mg91 Mg 0.85439 0.03488 0.3536 0.0
C92 C 0.80207 0.98466 0.35273 0.0
O93 O 0.82717 0.96594 0.3494 0.0
C94 C 0.89254 0.04509 0.40762 0.0
O95 O 0.87816 0.07298 0.4075 0.0
C96 C 0.82589 0.09888 0.36376 0.0
O97 O 0.81314 0.08142 0.38366 0.0
O98 O 0.84584 0.08588 0.34713 0.0
O99 O 0.80659 0.01412 0.35735 0.0
O100 O 0.87433 1.01061 0.3175 0.0
C101 C 0.90145 0.99657 0.31851 0.0
O102 O 0.91922 0.99997 0.34059 0.0
O103 O 0.88619 0.02516 0.38869 0.0
H104 H 0.9691 0.4045 0.93739 0.0
H105 H 0.96815 0.44246 0.97563 0.0
H106 H 0.06408 0.47322 0.95369 0.0
H107 H 0.0653 0.4353 0.91549 0.0
H108 H 0.0564 0.4664 0.00972 0.0
H109 H 1.00026 0.51723 0.9349 0.0
H110 H 0.95901 0.52144 0.89879 0.0
H111 H 0.88435 0.51319 0.96044 0.0
H112 H 0.92521 0.50849 0.9969 0.0
H113 H 0.06196 0.61146 0.08356 0.0
H114 H 0.06222 0.57151 0.04701 0.0
H115 H 0.96356 0.54792 0.06661 0.0
H116 H 0.9629 0.58834 0.10285 0.0
H117 H 0.97181 0.54994 0.01245 0.0
H118 H 0.02704 0.50009 0.08747 0.0
H119 H 0.06776 0.49523 0.12397 0.0
H120 H 0.14328 0.50049 0.06287 0.0
H121 H 0.103 0.50583 0.02602 0.0
C122 C 0.99012 0.41913 0.94082 0.0
C123 C 1.01723 0.41692 0.92324 0.0
C124 C 0.98947 0.44095 0.96263 0.0
C125 C 1.01589 0.461 0.96735 0.0
C126 C 0.04337 0.45808 0.95043 0.0
C127 C 0.04399 0.4364 0.92854 0.0
C128 C 1.01468 0.48554 0.98948 0.0
C129 C 0.03812 0.48489 0.01016 0.0
C130 C 0.99038 0.50923 0.99046 0.0
C131 C 0.96579 0.51217 0.96859 0.0
C132 C 0.97505 0.51605 0.94073 0.0
C133 C 0.95174 0.51858 0.9202 0.0
C134 C 0.91908 0.51749 0.9273 0.0
C135 C 0.90966 0.51398 0.95496 0.0
C136 C 0.93288 0.5114 0.97557 0.0
C137 C 0.04025 0.59787 0.08007 0.0
C138 C 1.01244 0.60307 0.09627 0.0
C139 C 0.0405 0.57486 0.05922 0.0
C140 C 1.01307 0.55624 0.05429 0.0
C141 C 0.98506 0.56186 0.07003 0.0
C142 C 0.98475 0.58499 0.09081 0.0
C143 C 1.01361 0.53092 0.03274 0.0
C144 C 0.99005 0.53142 0.01213 0.0
C145 C 0.03771 0.50698 0.03192 0.0
C146 C 0.062 0.50367 0.05401 0.0
C147 C 0.05234 0.50045 0.08184 0.0
C148 C 0.07534 0.49757 0.10258 0.0
C149 C 0.10809 0.49763 0.09575 0.0
C150 C 0.1179 0.50049 0.06814 0.0
C151 C 0.095 0.50342 0.04731 0.0
H152 H 0.12586 0.4954 0.11184 0.0
H153 H 0.90107 0.51945 0.91138 0.0
H154 H 0.44183 0.55898 0.60347 0.0
H155 H 0.48536 0.55635 0.5693 0.0
H156 H 0.43621 0.48038 0.52746 0.0
H157 H 0.39281 0.48238 0.56201 0.0
H158 H 0.49813 0.46655 0.53192 0.0
H159 H 0.43847 0.55813 0.50144 0.0
H160 H 0.41203 0.61048 0.50636 0.0
H161 H 0.50219 0.65279 0.52831 0.0
H162 H 0.5291 0.60059 0.52388 0.0
H163 H 0.59284 0.46921 0.40883 0.0
H164 H 0.54934 0.47174 0.44305 0.0
H165 H 0.59791 0.54848 0.48436 0.0
H166 H 0.64121 0.54662 0.44974 0.0
H167 H 0.53626 0.56192 0.48021 0.0
H168 H 0.596 0.47062 0.51081 0.0
H169 H 0.62263 0.41833 0.50618 0.0
H170 H 0.53265 0.37556 0.48434 0.0
H171 H 0.50555 0.4277 0.48849 0.0
C172 C 0.44012 0.54181 0.58692 0.0
C173 C 0.41369 0.52095 0.58549 0.0
C174 C 0.46505 0.54042 0.56729 0.0
C175 C 0.46399 0.51843 0.54551 0.0
C176 C 0.43762 0.49758 0.54401 0.0
C177 C 0.41273 0.49884 0.56375 0.0
C178 C 0.4907 0.51671 0.5247 0.0
C179 C 0.50614 0.48733 0.52032 0.0
C180 C 0.50184 0.54394 0.51003 0.0
C181 C 0.48573 0.57538 0.51257 0.0
C182 C 0.45261 0.57855 0.50751 0.0
C183 C 0.43755 0.6082 0.51018 0.0
C184 C 0.4554 0.63493 0.51771 0.0
C185 C 0.48838 0.63206 0.52251 0.0
C186 C 0.50356 0.60246 0.51989 0.0
C187 C 0.59443 0.48653 0.42527 0.0
C188 C 0.62064 0.50767 0.42652 0.0
C189 C 0.56952 0.48786 0.44494 0.0
C190 C 0.57041 0.51004 0.46659 0.0
C191 C 0.59661 0.53113 0.46792 0.0
C192 C 0.62144 0.52996 0.44813 0.0
C193 C 0.5437 0.51175 0.48741 0.0
C194 C 0.52826 0.54113 0.4918 0.0
C195 C 0.53259 0.48453 0.50211 0.0
C196 C 0.54881 0.45313 0.49971 0.0
C197 C 0.58194 0.45011 0.50482 0.0
C198 C 0.59711 0.42049 0.50232 0.0
C199 C 0.57936 0.39365 0.4949 0.0
C200 C 0.54638 0.39637 0.49005 0.0
C201 C 0.53109 0.42594 0.4925 0.0
H202 H 0.59115 0.37074 0.49296 0.0
H203 H 0.44369 0.65786 0.51978 0.0
H204 H 0.47497 0.90244 0.07953 0.0
H205 H 0.47453 0.94058 0.04111 0.0
H206 H 0.56169 0.98324 0.07124 0.0
H207 H 0.56198 0.94561 0.10995 0.0
H208 H 0.51985 0.02823 0.0578 0.0
H209 H 0.56148 0.93451 0.01361 0.0
H210 H 0.56199 0.87799 0.99987 0.0
H211 H 0.47279 0.89104 0.95724 0.0
H212 H 0.47152 0.94756 0.97103 0.0
H213 H 0.55662 0.12146 0.93781 0.0
H214 H 0.55746 0.08335 0.97626 0.0
H215 H 0.47037 0.04019 0.94647 0.0
H216 H 0.4697 0.07778 0.90774 0.0
H217 H 0.51246 0.99547 0.95975 0.0
H218 H 0.4708 0.08919 1.00409 0.0
H219 H 0.47036 0.14571 0.01782 0.0
H220 H 0.55976 0.13265 0.06016 0.0
H221 H 0.56095 0.07612 0.04637 0.0
C222 C 0.49418 0.91978 0.07789 0.0
C223 C 0.51854 0.92088 0.09785 0.0
C224 C 0.49396 0.94155 0.05583 0.0
C225 C 0.51824 0.96471 0.05307 0.0
C226 C 0.54267 0.96568 0.07289 0.0
C227 C 0.54286 0.94401 0.09498 0.0
C228 C 0.5178 0.9884 0.02997 0.0
C229 C 0.51869 0.02102 0.03634 0.0
C230 C 0.51551 0.97915 1.00195 0.0
C231 C 0.51625 0.94519 0.99359 0.0
C232 C 0.54184 0.92526 1.00149 0.0
C233 C 0.54229 0.89324 0.99366 0.0
C234 C 0.5174 0.88091 0.97775 0.0
C235 C 0.49203 0.90061 0.96959 0.0
C236 C 0.49145 0.93265 0.97738 0.0
C237 C 0.53751 0.10401 0.93954 0.0
C238 C 0.51306 0.10275 0.91966 0.0
C239 C 0.53796 0.08226 0.96161 0.0
C240 C 0.51382 0.05898 0.96447 0.0
C241 C 0.4893 0.05785 0.94475 0.0
C242 C 0.48889 0.07949 0.92263 0.0
C243 C 0.51447 0.0353 0.98757 0.0
C244 C 0.51363 1.00267 0.98121 0.0
C245 C 0.51681 0.04455 0.01559 0.0
C246 C 0.51611 0.07851 0.02396 0.0
C247 C 0.49049 0.09843 0.01615 0.0
C248 C 0.49008 0.13045 0.02398 0.0
C249 C 0.51505 0.14278 0.03979 0.0
C250 C 0.54045 0.12308 0.04788 0.0
C251 C 0.54099 0.09104 0.04008 0.0
H252 H 0.51469 0.16758 0.04584 0.0
H253 H 0.51779 0.85612 0.97171 0.0
H254 H 0.93709 0.99681 0.40714 0.0
H255 H 0.97995 0.98693 0.44034 0.0
H256 H 0.94695 0.06658 0.48908 0.0
H257 H 0.90477 0.07726 0.45541 0.0
H258 H 1.00903 0.06872 0.4855 0.0
H259 H 0.93379 0.98531 0.50808 0.0
H260 H 0.8989 0.9392 0.49861 0.0
H261 H 0.98096 0.88545 0.47083 0.0
H262 H 1.01629 0.93138 0.47982 0.0
H263 H 0.09941 0.03362 0.60618 0.0
H264 H 0.05695 0.04357 0.57263 0.0
H265 H 0.09156 0.96511 0.52326 0.0
H266 H 0.1335 0.95446 0.55716 0.0
H267 H 0.02886 0.96229 0.52707 0.0
H268 H 0.10409 0.04585 0.50484 0.0
H269 H 0.13881 0.092 0.51456 0.0
H270 H 0.05647 0.14553 0.54205 0.0
H271 H 0.0213 0.09955 0.53281 0.0
C272 C 0.93878 1.01209 0.42504 0.0
C273 C 0.91739 0.03778 0.42863 0.0
C274 C 0.96329 1.00633 0.44412 0.0
C275 C 0.96657 0.02572 0.46755 0.0
C276 C 0.94504 0.05125 0.47123 0.0
C277 C 0.92081 0.05727 0.45198 0.0
C278 C 0.99288 0.01999 0.48783 0.0
C279 C 1.01303 0.04552 0.49487 0.0
C280 C 0.99881 0.98958 0.49965 0.0
C281 C 0.97763 0.96188 0.49439 0.0
C282 C 0.94436 0.96372 0.49978 0.0
C283 C 0.92451 0.93761 0.49453 0.0
C284 C 0.9377 0.90944 0.48406 0.0
C285 C 0.97078 0.90729 0.47891 0.0
C286 C 0.99072 0.93334 0.48411 0.0
C287 C 0.09818 0.01863 0.58807 0.0
C288 C 0.11998 0.99328 0.58436 0.0
C289 C 0.07389 0.02442 0.5688 0.0
C290 C 0.07114 1.00535 0.54513 0.0
C291 C 0.09307 0.98019 0.54131 0.0
C292 C 0.11717 0.97419 0.56069 0.0
C293 C 0.04495 1.01102 0.52475 0.0
C294 C 0.02484 0.98548 0.51769 0.0
C295 C 0.03902 0.04143 0.51296 0.0
C296 C 0.06011 0.06916 0.51836 0.0
C297 C 0.09342 0.06739 0.51313 0.0
C298 C 0.11317 0.09353 0.51852 0.0
C299 C 0.09986 0.12165 0.52898 0.0
C300 C 0.06675 0.12372 0.53398 0.0
C301 C 0.04689 0.09764 0.52864 0.0
H302 H 0.1152 0.14185 0.53315 0.0
H303 H 0.92229 0.88926 0.48 0.0
H304 H 0.12756 0.75569 0.21064 0.0
H305 H 0.18307 0.77481 0.20996 0.0
H306 H 0.21012 0.69829 0.15523 0.0
H307 H 0.15472 0.67865 0.15618 0.0
H308 H 0.25499 0.70676 0.19366 0.0
H309 H 0.19688 0.77427 0.13088 0.0
H310 H 0.15353 0.81094 0.11682 0.0
H311 H 0.18288 0.87801 0.17832 0.0
H312 H 0.22616 0.84151 0.19301 0.0
H313 H 0.39889 0.7665 0.13526 0.0
H314 H 0.34386 0.74833 0.14296 0.0
H315 H 0.32746 0.8254 0.20003 0.0
H316 H 0.38283 0.84402 0.19227 0.0
H317 H 0.27735 0.81802 0.16395 0.0
H318 H 0.33816 0.75114 0.22445 0.0
H319 H 0.38194 0.71436 0.23724 0.0
H320 H 0.34784 0.64587 0.17883 0.0
H321 H 0.30412 0.68244 0.16539 0.0
C322 C 0.14533 0.74276 0.19859 0.0
C323 C 0.13661 0.71571 0.18333 0.0
C324 C 0.17707 0.75384 0.19812 0.0
C325 C 0.20071 0.73832 0.18218 0.0
C326 C 0.19229 0.71073 0.16762 0.0
C327 C 0.16057 0.69956 0.16815 0.0
C328 C 0.23406 0.75112 0.18024 0.0
C329 C 0.25988 0.73099 0.1869 0.0
C330 C 0.24047 0.783 0.17208 0.0
C331 C 0.21452 0.80501 0.16324 0.0
C332 C 0.19392 0.79672 0.14155 0.0
C333 C 0.1694 0.81749 0.13345 0.0
C334 C 0.16539 0.84674 0.14672 0.0
C335 C 0.18597 0.85532 0.16809 0.0
C336 C 0.21052 0.83461 0.1763 0.0
C337 C 0.38368 0.77968 0.14948 0.0
C338 C 0.39537 0.8067 0.16322 0.0
C339 C 0.3522 0.76912 0.15395 0.0
C340 C 0.33164 0.78522 0.17235 0.0
C341 C 0.34297 0.81252 0.18582 0.0
C342 C 0.37463 0.82309 0.18141 0.0
C343 C 0.29825 0.77356 0.17711 0.0
C344 C 0.27243 0.79388 0.17094 0.0
C345 C 0.29184 0.74181 0.1856 0.0
C346 C 0.31801 0.71966 0.19375 0.0
C347 C 0.34014 0.72834 0.21418 0.0
C348 C 0.36492 0.7075 0.22158 0.0
C349 C 0.36771 0.67782 0.20882 0.0
C350 C 0.34567 0.66888 0.18868 0.0
C351 C 0.32085 0.68964 0.18119 0.0
H352 H 0.38692 0.66173 0.21457 0.0
H353 H 0.14639 0.86279 0.14041 0.0
H354 H 0.27681 0.63751 0.62634 0.0
H355 H 0.25721 0.69178 0.63225 0.0
H356 H 0.32775 0.70765 0.69548 0.0
H357 H 0.34713 0.65272 0.69011 0.0
H358 H 0.27113 0.73227 0.71065 0.0
H359 H 0.33742 0.73836 0.62935 0.0
H360 H 0.35691 0.72286 0.58302 0.0
H361 H 0.26392 0.74323 0.54924 0.0
H362 H 0.24374 0.75844 0.59546 0.0
H363 H 0.25672 0.90169 0.70943 0.0
H364 H 0.27534 0.84659 0.7066 0.0
H365 H 0.20342 0.82698 0.64537 0.0
H366 H 0.18481 0.88233 0.64786 0.0
H367 H 0.26167 0.80463 0.62967 0.0
H368 H 0.1957 0.79864 0.71159 0.0
H369 H 0.17698 0.81449 0.75805 0.0
H370 H 0.27062 0.79469 0.79076 0.0
H371 H 0.29003 0.77912 0.74439 0.0
C372 C 0.28831 0.65249 0.64149 0.0
C373 C 0.31374 0.64078 0.65763 0.0
C374 C 0.2771 0.68365 0.64477 0.0
C375 C 0.29132 0.70409 0.66398 0.0
C376 C 0.31646 0.69239 0.68043 0.0
C377 C 0.32759 0.66102 0.67729 0.0
C378 C 0.27967 0.73753 0.66688 0.0
C379 C 0.26954 0.74825 0.69301 0.0
C380 C 0.27689 0.75825 0.64378 0.0
C381 C 0.289 0.74927 0.61592 0.0
C382 C 0.32106 0.73931 0.61208 0.0
C383 C 0.33224 0.73062 0.58583 0.0
C384 C 0.31165 0.73199 0.56321 0.0
C385 C 0.27984 0.74215 0.56678 0.0
C386 C 0.26853 0.75084 0.593 0.0
C387 C 0.24462 0.88564 0.69552 0.0
C388 C 0.21923 0.89648 0.67888 0.0
C389 C 0.25525 0.85405 0.694 0.0
C390 C 0.24065 0.83251 0.67593 0.0
C391 C 0.21506 0.84315 0.65949 0.0
C392 C 0.20435 0.87477 0.66103 0.0
C393 C 0.25294 0.79929 0.67339 0.0
C394 C 0.26328 0.78865 0.64731 0.0
C395 C 0.25605 0.77874 0.69654 0.0
C396 C 0.2444 0.788 0.72446 0.0
C397 C 0.21238 0.79791 0.72864 0.0
C398 C 0.20163 0.8068 0.75497 0.0
C399 C 0.22262 0.80568 0.77733 0.0
C400 C 0.25439 0.79558 0.77341 0.0
C401 C 0.26527 0.78669 0.74712 0.0
H402 H 0.21425 0.81257 0.7977 0.0
H403 H 0.32035 0.72524 0.54291 0.0
H404 H 0.63654 0.21366 0.81986 0.0
H405 H 0.68917 0.23966 0.81576 0.0
H406 H 0.70464 0.22461 0.9029 0.0
H407 H 0.65203 0.19933 0.90724 0.0
H408 H 0.71876 0.28375 0.88941 0.0
H409 H 0.74384 0.18019 0.85158 0.0
H410 H 0.73761 0.13518 0.81952 0.0
H411 H 0.75712 0.19728 0.75053 0.0
H412 H 0.76307 0.24276 0.78219 0.0
H413 H 0.88472 0.30357 0.90685 0.0
H414 H 0.83024 0.28311 0.90248 0.0
H415 H 0.82902 0.31236 0.81691 0.0
H416 H 0.88413 0.33287 0.82106 0.0
H417 H 0.8058 0.25126 0.82448 0.0
H418 H 0.78593 0.35375 0.86325 0.0
H419 H 0.79316 0.39813 0.89578 0.0
H420 H 0.76418 0.33761 0.9634 0.0
H421 H 0.75721 0.29271 0.93133 0.0
C422 C 0.65132 0.21561 0.83808 0.0
C423 C 0.64002 0.20446 0.8639 0.0
C424 C 0.68145 0.23044 0.8357 0.0
C425 C 0.701 0.23406 0.85901 0.0
C426 C 0.68998 0.2223 0.88463 0.0
C427 C 0.65988 0.20771 0.88706 0.0
C428 C 0.73247 0.25097 0.85724 0.0
C429 C 0.73786 0.27641 0.87536 0.0
C430 C 0.75708 0.24225 0.83825 0.0
C431 C 0.75352 0.21494 0.81922 0.0
C432 C 0.74653 0.1843 0.82956 0.0
C433 C 0.74311 0.15869 0.81146 0.0
C434 C 0.74687 0.16339 0.783 0.0
C435 C 0.75416 0.19369 0.77258 0.0
C436 C 0.75758 0.21938 0.79059 0.0
C437 C 0.87291 0.30591 0.88709 0.0
C438 C 0.88882 0.31997 0.86431 0.0
C439 C 0.84164 0.29425 0.88466 0.0
C440 C 0.82538 0.29646 0.85945 0.0
C441 C 0.84109 0.31049 0.83659 0.0
C442 C 0.87249 0.32234 0.83903 0.0
C443 C 0.79227 0.28335 0.85719 0.0
C444 C 0.78654 0.25877 0.83829 0.0
C445 C 0.7673 0.29278 0.87552 0.0
C446 C 0.77125 0.3198 0.89488 0.0
C447 C 0.7813 0.34984 0.88508 0.0
C448 C 0.78533 0.3751 0.90344 0.0
C449 C 0.77919 0.37068 0.93164 0.0
C450 C 0.76894 0.341 0.94155 0.0
C451 C 0.7649 0.31565 0.92328 0.0
H452 H 0.78233 0.39027 0.94582 0.0
H453 H 0.74421 0.14353 0.76902 0.0
H454 H 0.71376 0.38543 0.31409 0.0
H455 H 0.73843 0.33248 0.31012 0.0
H456 H 0.72709 0.31849 0.39809 0.0
H457 H 0.70318 0.37131 0.40225 0.0
H458 H 0.78542 0.30231 0.38302 0.0
H459 H 0.67892 0.28037 0.34953 0.0
H460 H 0.63207 0.28744 0.31923 0.0
H461 H 0.69075 0.26561 0.24824 0.0
H462 H 0.73808 0.25881 0.27811 0.0
H463 H 0.79669 0.13614 0.4024 0.0
H464 H 0.77776 0.19092 0.39739 0.0
H465 H 0.81277 0.19318 0.31322 0.0
H466 H 0.8323 0.13807 0.31819 0.0
H467 H 0.74771 0.21671 0.32095 0.0
H468 H 0.85316 0.23341 0.35648 0.0
H469 H 0.89858 0.22483 0.38806 0.0
H470 H 0.84012 0.25549 0.45663 0.0
H471 H 0.79417 0.2638 0.42552 0.0
C472 C 0.71623 0.37091 0.33252 0.0
C473 C 0.70654 0.38267 0.3585 0.0
C474 C 0.73031 0.3406 0.33023 0.0
C475 C 0.73463 0.32135 0.35382 0.0
C476 C 0.72427 0.33288 0.37961 0.0
C477 C 0.71044 0.36312 0.38193 0.0
C478 C 0.75078 0.28963 0.35213 0.0
C479 C 0.77694 0.28357 0.36957 0.0
C480 C 0.7405 0.26535 0.33399 0.0
C481 C 0.71211 0.26948 0.31601 0.0
C482 C 0.68189 0.27736 0.32743 0.0
C483 C 0.65524 0.28126 0.31034 0.0
C484 C 0.65845 0.27708 0.28181 0.0
C485 C 0.68832 0.26891 0.27033 0.0
C486 C 0.71506 0.26501 0.28733 0.0
C487 C 0.80057 0.14826 0.38283 0.0
C488 C 0.81606 0.13273 0.3607 0.0
C489 C 0.78976 0.17963 0.38003 0.0
C490 C 0.79392 0.19617 0.35497 0.0
C491 C 0.80933 0.18083 0.33274 0.0
C492 C 0.82063 0.14944 0.33566 0.0
C493 C 0.78168 0.22935 0.35231 0.0
C494 C 0.75636 0.23566 0.33409 0.0
C495 C 0.79252 0.25384 0.36988 0.0
C496 C 0.82013 0.249 0.38868 0.0
C497 C 0.8499 0.23808 0.37833 0.0
C498 C 0.87576 0.23331 0.39614 0.0
C499 C 0.87222 0.23955 0.42434 0.0
C500 C 0.84282 0.25064 0.43478 0.0
C501 C 0.81687 0.25543 0.41706 0.0
H502 H 0.89227 0.23584 0.4381 0.0
H503 H 0.63779 0.2801 0.26862 0.0
H504 H 0.78058 0.4967 0.33059 0.0
H505 H 0.83226 0.51417 0.31229 0.0
H506 H 0.81455 0.60888 0.34348 0.0
H507 H 0.76146 0.59175 0.36044 0.0
H508 H 0.83682 0.61515 0.29546 0.0
H509 H 0.87419 0.55431 0.37142 0.0
H510 H 0.87859 0.50839 0.40319 0.0
H511 H 0.91274 0.44985 0.33653 0.0
H512 H 0.90815 0.49529 0.30426 0.0
H513 H 0.99181 0.65837 0.24508 0.0
H514 H 0.95027 0.64511 0.27937 0.0
H515 H 0.94114 0.55139 0.24414 0.0
H516 H 0.98309 0.5642 0.2101 0.0
H517 H 0.93635 0.55004 0.30087 0.0
H518 H 0.89103 0.61317 0.22492 0.0
H519 H 0.89048 0.66164 0.19578 0.0
H520 H 0.8749 0.7193 0.26775 0.0
H521 H 0.87573 0.67117 0.29734 0.0
C522 C 0.78785 0.52113 0.33405 0.0
C523 C 0.76693 0.5428 0.34715 0.0
C524 C 0.81766 0.53111 0.32367 0.0
C525 C 0.82789 0.56278 0.32689 0.0
C526 C 0.80738 0.5843 0.34071 0.0
C527 C 0.7771 0.57446 0.35056 0.0
C528 C 0.85884 0.57368 0.314 0.0
C529 C 0.8587 0.60119 0.29724 0.0
C530 C 0.88764 0.55562 0.31601 0.0
C531 C 0.89064 0.52821 0.33538 0.0
C532 C 0.88246 0.5316 0.3635 0.0
C533 C 0.88501 0.50565 0.3816 0.0
C534 C 0.89589 0.47621 0.37188 0.0
C535 C 0.90432 0.47267 0.34403 0.0
C536 C 0.9018 0.49853 0.32583 0.0
C537 C 0.98134 0.63474 0.24487 0.0
C538 C 0.99057 0.61244 0.22463 0.0
C539 C 0.95751 0.62725 0.26446 0.0
C540 C 0.94217 0.59746 0.26401 0.0
C541 C 0.95257 0.57457 0.24482 0.0
C542 C 0.97652 0.58197 0.22531 0.0
C543 C 0.91379 0.59076 0.28206 0.0
C544 C 0.91448 0.56411 0.29966 0.0
C545 C 0.88574 0.60994 0.2813 0.0
C546 C 0.88365 0.63862 0.26334 0.0
C547 C 0.88748 0.63619 0.23451 0.0
C548 C 0.88717 0.6636 0.21793 0.0
C549 C 0.88273 0.69354 0.22991 0.0
C550 C 0.87834 0.6961 0.25849 0.0
C551 C 0.8787 0.66877 0.27517 0.0
H552 H 0.88267 0.71474 0.21707 0.0
H553 H 0.89783 0.45615 0.38593 0.0
H554 H 0.3749 0.48838 0.74334 0.0
H555 H 0.38767 0.44443 0.775 0.0
H556 H 0.46194 0.41225 0.71875 0.0
H557 H 0.44905 0.45559 0.68698 0.0
H558 H 0.42498 0.36431 0.73309 0.0
H559 H 0.4797 0.4479 0.78068 0.0
H560 H 0.48498 0.49993 0.80364 0.0
H561 H 0.41396 0.47216 0.86418 0.0
H562 H 0.40794 0.42008 0.84135 0.0
H563 H 0.51583 0.28024 0.84975 0.0
H564 H 0.49864 0.33005 0.8281 0.0
H565 H 0.40821 0.28684 0.80662 0.0
H566 H 0.42545 0.23671 0.8278 0.0
H567 H 0.45139 0.37291 0.83252 0.0
H568 H 0.38862 0.31055 0.74152 0.0
H569 H 0.39073 0.25983 0.71595 0.0
H570 H 0.48936 0.24692 0.73913 0.0
H571 H 0.48798 0.29769 0.76446 0.0
C572 C 0.39429 0.47224 0.73794 0.0
C573 C 0.41085 0.47542 0.71255 0.0
C574 C 0.40158 0.44711 0.75607 0.0
C575 C 0.42572 0.42492 0.74924 0.0
C576 C 0.44304 0.42887 0.72439 0.0
C577 C 0.43571 0.4538 0.70628 0.0
C578 C 0.43196 0.39654 0.76701 0.0
C579 C 0.43056 0.36627 0.75487 0.0
C580 C 0.43958 0.39896 0.79538 0.0
C581 C 0.44311 0.43024 0.80912 0.0
C582 C 0.465 0.453 0.79875 0.0
C583 C 0.46817 0.48247 0.81177 0.0
C584 C 0.44975 0.48938 0.83531 0.0
C585 C 0.42817 0.46679 0.84592 0.0
C586 C 0.42488 0.43729 0.83295 0.0
C587 C 0.49204 0.28144 0.84086 0.0
C588 C 0.47218 0.25431 0.84023 0.0
C589 C 0.48221 0.31002 0.82854 0.0
C590 C 0.45236 0.31208 0.81531 0.0
C591 C 0.43158 0.28569 0.8163 0.0
C592 C 0.44143 0.25705 0.82854 0.0
C593 C 0.44435 0.3408 0.79853 0.0
C594 C 0.44535 0.37104 0.81083 0.0
C595 C 0.43711 0.3385 0.77008 0.0
C596 C 0.43804 0.3077 0.75518 0.0
C597 C 0.41073 0.29684 0.74118 0.0
C598 C 0.41179 0.26807 0.72675 0.0
C599 C 0.44004 0.24999 0.72616 0.0
C600 C 0.46737 0.26073 0.73985 0.0
C601 C 0.46647 0.28951 0.75425 0.0
H602 H 0.44082 0.2278 0.71489 0.0
H603 H 0.45225 0.51221 0.84537 0.0
H604 H 0.53865 0.9229 0.22496 0.0
H605 H 0.58071 0.94635 0.25344 0.0
H606 H 0.611 0.85223 0.27868 0.0
H607 H 0.56821 0.82887 0.25124 0.0
H608 H 0.61595 0.8898 0.32052 0.0
H609 H 0.64957 0.89571 0.22557 0.0
H610 H 0.64492 0.90991 0.17624 0.0
H611 H 0.64028 1.00916 0.19712 0.0
H612 H 0.64445 0.99551 0.24665 0.0
H613 H 0.78234 0.92278 0.3478 0.0
H614 H 0.73078 0.90375 0.33026 0.0
H615 H 0.69695 1.00066 0.3238 0.0
H616 H 0.74821 0.0199 0.34168 0.0
H617 H 0.69198 0.96462 0.27442 0.0
H618 H 0.66388 0.95587 0.37073 0.0
H619 H 0.6714 0.93863 0.41903 0.0
H620 H 0.66978 0.84065 0.39392 0.0
H621 H 0.66271 0.85731 0.34538 0.0
C622 C 0.55402 0.90726 0.23687 0.0
C623 C 0.5502 0.87402 0.23575 0.0
C624 C 0.5782 0.92067 0.25303 0.0
C625 C 0.59955 0.90107 0.26782 0.0
C626 C 0.59494 0.86792 0.26749 0.0
C627 C 0.57046 0.85456 0.25173 0.0
C628 C 0.62747 0.91485 0.28268 0.0
C629 C 0.63268 0.90596 0.31033 0.0
C630 C 0.64924 0.93627 0.26959 0.0
C631 C 0.64695 0.94457 0.23983 0.0
C632 C 0.64733 0.92055 0.21965 0.0
C633 C 0.64481 0.9285 0.19166 0.0
C634 C 0.64221 0.96041 0.18356 0.0
C635 C 0.64223 0.98445 0.20344 0.0
C636 C 0.64469 0.97662 0.23147 0.0
C637 C 0.76372 0.94002 0.34315 0.0
C638 C 0.76943 0.97285 0.34609 0.0
C639 C 0.73426 0.9291 0.33316 0.0
C640 C 0.71008 0.95082 0.3257 0.0
C641 C 0.71531 0.98353 0.32943 0.0
C642 C 0.74458 0.99445 0.33979 0.0
C643 C 0.68037 0.9395 0.31212 0.0
C644 C 0.67499 0.94874 0.28464 0.0
C645 C 0.65889 0.91794 0.32519 0.0
C646 C 0.66305 0.90786 0.35437 0.0
C647 C 0.66541 0.93065 0.37546 0.0
C648 C 0.66953 0.92098 0.4029 0.0
C649 C 0.67114 0.88857 0.40953 0.0
C650 C 0.66856 0.86575 0.38875 0.0
C651 C 0.66446 0.87529 0.36127 0.0
H652 H 0.67433 0.88113 0.43079 0.0
H653 H 0.64025 0.96651 0.16188 0.0
H654 H 0.09409 0.26436 0.86616 0.0
H655 H 0.11148 0.21294 0.84732 0.0
H656 H 0.02073 0.20402 0.80544 0.0
H657 H 1.00275 0.25414 0.82528 0.0
H658 H 0.03634 0.14904 0.82254 0.0
H659 H 0.09596 0.23307 0.7745 0.0
H660 H 0.13396 0.27809 0.7703 0.0
H661 H 0.20884 0.22055 0.8054 0.0
H662 H 0.17121 0.17539 0.81018 0.0
H663 H 0.0733 0.05781 0.7035 0.0
H664 H 0.05872 0.09742 0.73822 0.0
H665 H 0.14969 0.08271 0.77849 0.0
H666 H 0.16461 0.04312 0.74367 0.0
H667 H 0.13842 0.14501 0.7687 0.0
H668 H 0.08029 0.05884 0.80987 0.0
H669 H 0.04294 0.01324 0.81127 0.0
H670 H 0.96517 0.07444 0.78701 0.0
H671 H 1.00215 0.12035 0.78508 0.0
C672 C 0.07775 0.25117 0.85322 0.0
C673 C 0.04709 0.26342 0.84717 0.0
C674 C 0.08779 0.22187 0.84227 0.0
C675 C 0.06772 0.20476 0.8244 0.0
C676 C 0.03675 0.2166 0.81912 0.0
C677 C 0.02649 0.24542 0.83049 0.0
C678 C 0.07887 0.17514 0.81028 0.0
C679 C 0.05859 0.14831 0.81064 0.0
C680 C 0.10839 0.17355 0.79537 0.0
C681 C 0.13069 0.201 0.79299 0.0
C682 C 0.12045 0.23014 0.78156 0.0
C683 C 0.14193 0.25566 0.77904 0.0
C684 C 0.17375 0.25215 0.78762 0.0
C685 C 0.18416 0.22322 0.79881 0.0
C686 C 0.16278 0.19768 0.80144 0.0
C687 C 0.09003 0.06258 0.71998 0.0
C688 C 0.12018 0.04734 0.72072 0.0
C689 C 0.08159 0.08517 0.73992 0.0
C690 C 0.10304 0.09295 0.76108 0.0
C691 C 0.13275 0.07706 0.76239 0.0
C692 C 0.14117 0.05434 0.7425 0.0
C693 C 0.09544 0.11948 0.78033 0.0
C694 C 0.11639 0.14565 0.78094 0.0
C695 C 0.06645 0.12055 0.79589 0.0
C696 C 0.04407 0.09302 0.79716 0.0
C697 C 0.05528 0.06255 0.80464 0.0
C698 C 0.03416 0.03664 0.80556 0.0
C699 C 1.00172 0.04093 0.79919 0.0
C700 C 0.99031 0.07115 0.79194 0.0
C701 C 1.01133 0.09713 0.79097 0.0
H702 H 0.98541 0.02084 0.79991 0.0
H703 H 0.19046 0.27174 0.78549 0.0
H704 H 0.06434 0.34019 0.76137 0.0
H705 H 0.10518 0.36739 0.73331 0.0
H706 H 0.08118 0.45643 0.77262 0.0
H707 H 0.04012 0.4294 0.8008 0.0
H708 H 0.09252 0.464 0.71667 0.0
H709 H 0.14349 0.41517 0.79446 0.0
H710 H 0.15824 0.37153 0.82622 0.0
H711 H 0.20363 0.32134 0.7592 0.0
H712 H 0.18846 0.36434 0.72692 0.0
H713 H 0.23702 0.55233 0.70452 0.0
H714 H 0.18858 0.52319 0.71788 0.0
H715 H 0.22304 0.44071 0.67369 0.0
H716 H 0.27199 0.46995 0.66018 0.0
H717 H 0.2052 0.4269 0.72719 0.0
H718 H 0.15833 0.48074 0.65031 0.0
H719 H 0.14506 0.5268 0.62067 0.0
H720 H 0.09361 0.57029 0.68804 0.0
H721 H 0.10696 0.5247 0.71822 0.0
C722 C 0.06741 0.36564 0.76386 0.0
C723 C 0.04906 0.38258 0.7835 0.0
C724 C 0.09086 0.38113 0.74782 0.0
C725 C 0.09648 0.41387 0.75107 0.0
C726 C 0.07726 0.43114 0.76977 0.0
C727 C 0.05386 0.41563 0.78593 0.0
C728 C 0.12359 0.4297 0.73618 0.0
C729 C 0.11719 0.45603 0.71907 0.0
C730 C 0.15571 0.41891 0.7389 0.0
C731 C 0.16445 0.39277 0.7582 0.0
C732 C 0.15624 0.39463 0.78643 0.0
C733 C 0.16471 0.37002 0.80454 0.0
C734 C 0.18174 0.3436 0.79474 0.0
C735 C 0.1903 0.34172 0.76678 0.0
C736 C 0.18175 0.3662 0.74855 0.0
C737 C 0.23413 0.52815 0.69723 0.0
C738 C 0.25841 0.5134 0.68137 0.0
C739 C 0.20628 0.51157 0.70478 0.0
C740 C 0.20205 0.47981 0.69668 0.0
C741 C 0.22578 0.46525 0.68008 0.0
C742 C 0.25364 0.48201 0.67227 0.0
C743 C 0.17422 0.4613 0.7077 0.0
C744 C 0.18049 0.43454 0.7243 0.0
C745 C 0.14207 0.47194 0.70472 0.0
C746 C 0.13385 0.49936 0.68659 0.0
C747 C 0.14439 0.50023 0.65888 0.0
C748 C 0.13681 0.52624 0.64196 0.0
C749 C 0.11855 0.55148 0.65248 0.0
C750 C 0.10776 0.55072 0.67992 0.0
C751 C 0.11529 0.52478 0.69693 0.0
H752 H 0.11271 0.5716 0.63935 0.0
H753 H 0.18842 0.32469 0.80886 0.0
H754 H 0.6101 0.53836 0.29 0.0
H755 H 0.58858 0.5826 0.26249 0.0
H756 H 0.68478 0.608 0.23653 0.0
H757 H 0.70647 0.5638 0.26368 0.0
H758 H 0.64891 0.65925 0.25794 0.0
H759 H 0.63677 0.57511 0.19129 0.0
H760 H 0.61809 0.52272 0.17515 0.0
H761 H 0.52004 0.55024 0.19081 0.0
H762 H 0.53818 0.60266 0.20741 0.0
H763 H 0.60854 0.78203 0.16513 0.0
H764 H 0.6306 0.73236 0.18363 0.0
H765 H 0.53441 0.6968 0.19775 0.0
H766 H 0.51222 0.74591 0.17845 0.0
H767 H 0.57079 0.64983 0.18157 0.0
H768 H 0.5794 0.72961 0.25133 0.0
H769 H 0.59443 0.78142 0.27123 0.0
H770 H 0.69409 0.76222 0.25384 0.0
H771 H 0.67964 0.71019 0.23389 0.0
C772 C 0.62664 0.5531 0.27814 0.0
C773 C 0.66001 0.54752 0.27905 0.0
C774 C 0.6143 0.57834 0.2624 0.0
C775 C 0.6351 0.59857 0.24744 0.0
C776 C 0.66832 0.59269 0.24792 0.0
C777 C 0.68065 0.56729 0.26337 0.0
C778 C 0.62244 0.62683 0.23243 0.0
C779 C 0.63224 0.65719 0.24093 0.0
C780 C 0.5998 0.62415 0.21094 0.0
C781 C 0.58886 0.5927 0.20084 0.0
C782 C 0.61124 0.56989 0.19151 0.0
C783 C 0.60075 0.54021 0.18223 0.0
C784 C 0.56791 0.53312 0.18202 0.0
C785 C 0.54548 0.55574 0.19101 0.0
C786 C 0.55585 0.58546 0.20033 0.0
C787 C 0.59208 0.76346 0.1718 0.0
C788 C 0.55861 0.76808 0.17047 0.0
C789 C 0.60472 0.73513 0.18257 0.0
C790 C 0.58419 0.71106 0.19272 0.0
C791 C 0.55079 0.71502 0.19019 0.0
C792 C 0.53813 0.74318 0.17914 0.0
C793 C 0.59742 0.68238 0.20694 0.0
C794 C 0.58764 0.65194 0.19843 0.0
C795 C 0.61958 0.68495 0.22888 0.0
C796 C 0.62841 0.71619 0.24084 0.0
C797 C 0.6045 0.73654 0.25158 0.0
C798 C 0.61291 0.76592 0.26289 0.0
C799 C 0.64516 0.77522 0.26361 0.0
C800 C 0.6691 0.75503 0.2532 0.0
C801 C 0.66084 0.72554 0.24196 0.0
H802 H 0.65161 0.79801 0.27234 0.0
H803 H 0.55983 0.51013 0.17483 0.0
H804 H 0.48249 0.19086 0.75382 0.0
H805 H 0.4393 0.16992 0.72523 0.0
H806 H 0.44312 0.08061 0.76949 0.0
H807 H 0.4863 0.10141 0.79839 0.0
H808 H 0.43429 0.07524 0.71019 0.0
H809 H 0.39148 0.13207 0.78944 0.0
H810 H 0.38708 0.17932 0.81932 0.0
H811 H 0.35129 0.23444 0.75122 0.0
H812 H 0.35662 0.18782 0.72063 0.0
H813 H 0.28169 1.00878 0.68469 0.0
H814 H 0.33207 0.02912 0.70277 0.0
H815 H 0.30692 0.12388 0.67516 0.0
H816 H 0.25543 0.10377 0.65841 0.0
H817 H 0.32872 0.1288 0.72321 0.0
H818 H 0.36905 0.07508 0.64366 0.0
H819 H 0.37656 0.03084 0.61086 0.0
H820 H 0.4183 0.97344 0.67494 0.0
H821 H 0.41065 0.01719 0.70823 0.0
C822 C 0.47456 0.1666 0.75723 0.0
C823 C 0.48766 0.14793 0.77858 0.0
C824 C 0.44983 0.15471 0.74088 0.0
C825 C 0.43781 0.1239 0.74548 0.0
C826 C 0.45207 0.10449 0.76565 0.0
C827 C 0.47667 0.11645 0.78219 0.0
C828 C 0.4087 0.11293 0.73084 0.0
C829 C 0.41109 0.08669 0.71314 0.0
C830 C 0.37876 0.12865 0.73408 0.0
C831 C 0.3748 0.1565 0.75265 0.0
C832 C 0.383 0.15434 0.78074 0.0
C833 C 0.38039 0.18104 0.7978 0.0
C834 C 0.36912 0.20992 0.78712 0.0
C835 C 0.36026 0.21211 0.7594 0.0
C836 C 0.36311 0.18557 0.74218 0.0
C837 C 0.28707 0.03388 0.68207 0.0
C838 C 0.26459 0.05466 0.67 0.0
C839 C 0.31608 0.04551 0.69233 0.0
C840 C 0.32379 0.07805 0.69002 0.0
C841 C 0.30167 0.09869 0.67727 0.0
C842 C 0.27229 0.08716 0.66754 0.0
C843 C 0.35396 0.09073 0.70237 0.0
C844 C 0.35183 0.11735 0.71984 0.0
C845 C 0.38429 0.07571 0.69847 0.0
C846 C 0.38903 0.04935 0.67849 0.0
C847 C 0.37963 0.05295 0.65081 0.0
C848 C 0.38394 0.02797 0.63212 0.0
C849 C 0.39783 0.99933 0.64083 0.0
C850 C 0.40752 0.99564 0.66823 0.0
C851 C 0.40324 0.02053 0.68701 0.0
H852 H 0.40114 0.98002 0.62633 0.0
H853 H 0.36712 0.23057 0.80034 0.0
H854 H 0.02547 0.77585 0.17158 0.0
H855 H 1.0067 0.82576 0.19205 0.0
H856 H 0.90997 0.78906 0.19609 0.0
H857 H 0.92861 0.73853 0.17629 0.0
H858 H 0.93369 0.86661 0.17673 0.0
H859 H 0.92035 0.78219 0.2489 0.0
H860 H 0.94118 0.73401 0.27215 0.0
H861 H 0.02902 0.78303 0.29046 0.0
H862 H 1.00885 0.83133 0.26685 0.0
H863 H 0.86442 0.97268 0.27687 0.0
H864 H 0.87777 0.92888 0.24567 0.0
H865 H 0.97275 0.92307 0.28055 0.0
H866 H 0.95929 0.9663 0.31225 0.0
H867 H 0.94793 0.86616 0.27848 0.0
H868 H 0.9584 0.95297 0.21396 0.0
H869 H 0.94119 1.00114 0.18866 0.0
H870 H 0.86232 0.94943 0.15399 0.0
H871 H 0.87882 0.90103 0.17937 0.0
C872 C 1.00006 0.77856 0.1762 0.0
C873 C 0.97856 0.7531 0.17245 0.0
C874 C 0.98941 0.80714 0.18788 0.0
C875 C 0.95704 0.81096 0.19559 0.0
C876 C 0.93506 0.78649 0.19019 0.0
C877 C 0.94577 0.75765 0.17892 0.0
C878 C 0.94728 0.83887 0.21225 0.0
C879 C 0.93621 0.86652 0.19903 0.0
C880 C 0.95147 0.83882 0.24115 0.0
C881 C 0.96327 0.81017 0.25591 0.0
C882 C 0.9442 0.78258 0.25771 0.0
C883 C 0.95585 0.75528 0.27097 0.0
C884 C 0.98643 0.75543 0.28271 0.0
C885 C 1.00536 0.78293 0.28131 0.0
C886 C 0.99384 0.81026 0.268 0.0
C887 C 0.88833 0.96244 0.2776 0.0
C888 C 0.91078 0.973 0.29711 0.0
C889 C 0.89596 0.93738 0.25969 0.0
C890 C 0.92634 0.92266 0.26062 0.0
C891 C 0.94911 0.9339 0.27948 0.0
C892 C 0.94142 0.95875 0.29753 0.0
C893 C 0.93388 0.89443 0.24316 0.0
C894 C 0.94489 0.86653 0.25624 0.0
C895 C 0.92959 0.89442 0.2141 0.0
C896 C 0.91967 0.92347 0.19879 0.0
C897 C 0.93724 0.95194 0.20111 0.0
C898 C 0.92764 0.97927 0.18672 0.0
C899 C 0.90063 0.97837 0.16979 0.0
C900 C 0.88321 0.95011 0.16714 0.0
C901 C 0.89269 0.92271 0.18151 0.0
H902 H 0.89324 0.99956 0.15867 0.0
H903 H 0.99543 0.73427 0.29295 0.0
loop_
_geom_bond_atom_site_label_1
_geom_bond_atom_site_label_2
_geom_bond_distance
_geom_bond_site_symmetry_2
_ccdc_geom_bond_type
Mg0 O7 2.141 . S
Mg0 O8 2.048 1_455 S
Mg0 O9 2.048 . S
Mg0 O12 2.141 . S
C1 O2 1.313 . S
C1 O8 1.195 . S
O2 C1 1.313 . S
C3 O4 1.245 . S
C3 O12 1.289 . S
O4 C3 1.245 . S
C5 O6 1.245 . S
C5 O7 1.289 . S
O6 C5 1.245 . S
O7 Mg0 2.141 . S
O7 C5 1.289 . S
O8 Mg0 2.048 1_655 S
O8 C1 1.195 . S
O9 Mg0 2.048 . S
O9 C10 1.195 . S
C10 O9 1.195 . S
C10 O11 1.313 1_455 S
O11 C10 1.313 1_655 S
O12 Mg0 2.141 . S
O12 C3 1.289 . S
Mg13 O20 2.141 . S
Mg13 O21 2.048 . S
Mg13 O22 2.048 . S
Mg13 O25 2.141 . S
C14 O15 1.313 . S
C14 O21 1.195 . S
O15 C14 1.313 . S
C16 O17 1.245 . S
C16 O25 1.289 . S
O17 C16 1.245 . S
C18 O19 1.245 . S
C18 O20 1.289 . S
O19 C18 1.245 . S
O20 Mg13 2.141 . S
O20 C18 1.289 . S
O21 Mg13 2.048 . S
O21 C14 1.195 . S
O22 Mg13 2.048 . S
O22 C23 1.195 . S
C23 O22 1.195 . S
C23 O24 1.313 . S
O24 C23 1.313 . S
O25 Mg13 2.141 . S
O25 C16 1.289 . S
Mg26 O33 2.141 . S
Mg26 O34 2.048 . S
Mg26 O35 2.048 . S
Mg26 O38 2.141 . S
C27 O28 1.313 . S
C27 O34 1.195 . S
O28 C27 1.313 . S
C29 O30 1.245 . S
C29 O38 1.289 . S
O30 C29 1.245 . S
C31 O32 1.245 . S
C31 O33 1.289 . S
O32 C31 1.245 . S
O33 Mg26 2.141 . S
O33 C31 1.289 . S
O34 Mg26 2.048 . S
O34 C27 1.195 . S
O35 Mg26 2.048 . S
O35 C36 1.195 . S
C36 O35 1.195 . S
C36 O37 1.313 . S
O37 C36 1.313 . S
O38 Mg26 2.141 . S
O38 C29 1.289 . S
Mg39 O46 2.141 . S
Mg39 O47 2.048 1_565 S
Mg39 O48 2.048 . S
Mg39 O51 2.141 . S
C40 O41 1.313 . S
C40 O47 1.195 . S
O41 C40 1.313 . S
C42 O43 1.245 . S
C42 O51 1.289 . S
O43 C42 1.245 . S
C44 O45 1.245 . S
C44 O46 1.289 . S
O45 C44 1.245 . S
O46 Mg39 2.141 . S
O46 C44 1.289 . S
O47 Mg39 2.048 1_545 S
O47 C40 1.195 . S
O48 Mg39 2.048 . S
O48 C49 1.195 . S
C49 O48 1.195 . S
C49 O50 1.313 1_565 S
O50 C49 1.313 1_545 S
O51 Mg39 2.141 . S
O51 C42 1.289 . S
Mg52 O59 2.141 . S
Mg52 O60 2.048 . S
Mg52 O61 2.048 1_655 S
Mg52 O64 2.141 . S
C53 O54 1.313 1_655 S
C53 O60 1.195 . S
O54 C53 1.313 1_455 S
C55 O56 1.245 . S
C55 O64 1.289 . S
O56 C55 1.245 . S
C57 O58 1.245 . S
C57 O59 1.289 . S
O58 C57 1.245 . S
O59 Mg52 2.141 . S
O59 C57 1.289 . S
O60 Mg52 2.048 . S
O60 C53 1.195 . S
O61 Mg52 2.048 1_455 S
O61 C62 1.195 . S
C62 O61 1.195 . S
C62 O63 1.313 . S
O63 C62 1.313 . S
O64 Mg52 2.141 . S
O64 C55 1.289 . S
Mg65 O72 2.141 . S
Mg65 O73 2.048 . S
Mg65 O74 2.048 . S
Mg65 O77 2.141 . S
C66 O67 1.313 . S
C66 O73 1.195 . S
O67 C66 1.313 . S
C68 O69 1.245 . S
C68 O77 1.289 . S
O69 C68 1.245 . S
C70 O71 1.245 . S
C70 O72 1.289 . S
O71 C70 1.245 . S
O72 Mg65 2.141 . S
O72 C70 1.289 . S
O73 Mg65 2.048 . S
O73 C66 1.195 . S
O74 Mg65 2.048 . S
O74 C75 1.195 . S
C75 O74 1.195 . S
C75 O76 1.313 . S
O76 C75 1.313 . S
O77 Mg65 2.141 . S
O77 C68 1.289 . S
Mg78 O85 2.141 . S
Mg78 O86 2.048 . S
Mg78 O87 2.048 . S
Mg78 O90 2.141 . S
C79 O80 1.313 . S
C79 O86 1.195 . S
O80 C79 1.313 . S
C81 O82 1.245 . S
C81 O90 1.289 . S
O82 C81 1.245 . S
C83 O84 1.245 . S
C83 O85 1.289 . S
O84 C83 1.245 . S
O85 Mg78 2.141 . S
O85 C83 1.289 . S
O86 Mg78 2.048 . S
O86 C79 1.195 . S
O87 Mg78 2.048 . S
O87 C88 1.195 . S
C88 O87 1.195 . S
C88 O89 1.313 . S
O89 C88 1.313 . S
O90 Mg78 2.141 . S
O90 C81 1.289 . S
Mg91 O98 2.141 . S
Mg91 O99 2.048 . S
Mg91 O100 2.048 1_545 S
Mg91 O103 2.141 . S
C92 O93 1.313 1_545 S
C92 O99 1.195 . S
O93 C92 1.313 1_565 S
C94 O95 1.245 . S
C94 O103 1.289 . S
O95 C94 1.245 . S
C96 O97 1.245 . S
C96 O98 1.289 . S
O97 C96 1.245 . S
O98 Mg91 2.141 . S
O98 C96 1.289 . S
O99 Mg91 2.048 . S
O99 C92 1.195 . S
O100 Mg91 2.048 1_565 S
O100 C101 1.195 . S
C101 O100 1.195 . S
C101 O102 1.313 . S
O102 C101 1.313 . S
O103 Mg91 2.141 . S
O103 C94 1.289 . S
H104 C122 0.951 . S
H105 C124 0.951 . S
H106 C126 0.950 . S
H107 C127 0.956 . S
H108 C129 0.950 . S
H109 C132 0.950 . S
H110 C133 0.950 . S
H111 C135 0.950 . S
H112 C136 0.950 1_554 S
H113 C137 0.951 . S
H114 C139 0.951 . S
H115 C141 0.950 . S
H116 C142 0.956 . S
H117 C144 0.950 . S
H118 C147 0.950 . S
H119 C148 0.950 . S
H120 C150 0.950 . S
H121 C151 0.950 1_556 S
C122 H104 0.951 . S
C122 C123 1.366 . S
C122 C124 1.388 . S
C123 C122 1.366 . S
C123 C127 1.376 1_655 S
C124 H105 0.951 . S
C124 C122 1.388 . S
C124 C125 1.366 . S
C125 C124 1.366 . S
C125 C126 1.414 1_655 S
C125 C128 1.499 . S
C126 H106 0.950 . S
C126 C125 1.414 1_455 S
C126 C127 1.376 . S
C127 H107 0.956 . S
C127 C123 1.376 1_455 S
C127 C126 1.376 . S
C128 C125 1.499 . S
C128 C129 1.373 1_655 S
C128 C130 1.389 . S
C129 H108 0.950 . S
C129 C128 1.373 1_455 S
C129 C145 1.377 1_556 S
C130 C128 1.389 . S
C130 C131 1.524 . S
C130 C144 1.377 1_556 S
C131 C130 1.524 . S
C131 C132 1.397 . S
C131 C136 1.363 . S
C132 H109 0.950 . S
C132 C131 1.397 . S
C132 C133 1.334 . S
C133 H110 0.950 . S
C133 C132 1.334 . S
C133 C134 1.287 . S
C134 C133 1.287 . S
C134 C135 1.524 . S
C134 H153 0.913 . S
C135 H111 0.950 . S
C135 C134 1.524 . S
C135 C136 1.415 . S
C136 H112 0.950 1_556 S
C136 C131 1.363 . S
C136 C135 1.415 . S
C137 H113 0.951 . S
C137 C138 1.366 . S
C137 C139 1.388 . S
C138 C137 1.366 . S
C138 C142 1.376 1_455 S
C139 H114 0.951 . S
C139 C137 1.388 . S
C139 C140 1.366 . S
C140 C139 1.366 . S
C140 C141 1.414 1_455 S
C140 C143 1.499 . S
C141 H115 0.950 . S
C141 C140 1.414 1_655 S
C141 C142 1.376 . S
C142 H116 0.956 . S
C142 C138 1.376 1_655 S
C142 C141 1.376 . S
C143 C140 1.499 . S
C143 C144 1.373 1_455 S
C143 C145 1.389 . S
C144 H117 0.950 . S
C144 C130 1.377 1_554 S
C144 C143 1.373 1_655 S
C145 C129 1.377 1_554 S
C145 C143 1.389 . S
C145 C146 1.524 . S
C146 C145 1.524 . S
C146 C147 1.397 . S
C146 C151 1.363 . S
C147 H118 0.950 . S
C147 C146 1.397 . S
C147 C148 1.334 . S
C148 H119 0.950 . S
C148 C147 1.334 . S
C148 C149 1.287 . S
C149 C148 1.287 . S
C149 C150 1.524 . S
C149 H152 0.999 . S
C150 H120 0.950 . S
C150 C149 1.524 . S
C150 C151 1.415 . S
C151 H121 0.950 1_554 S
C151 C146 1.363 . S
C151 C150 1.415 . S
H152 C149 0.999 . S
H153 C134 0.913 . S
H154 C172 0.951 . S
H155 C174 0.951 . S
H156 C176 0.950 . S
H157 C177 0.950 . S
H158 C179 0.950 . S
H159 C182 0.950 . S
H160 C183 0.950 . S
H161 C185 0.950 . S
H162 C186 0.950 . S
H163 C187 0.951 . S
H164 C189 0.951 . S
H165 C191 0.950 . S
H166 C192 0.950 . S
H167 C194 0.950 . S
H168 C197 0.950 . S
H169 C198 0.950 . S
H170 C200 0.950 . S
H171 C201 0.950 . S
C172 H154 0.951 . S
C172 C173 1.366 . S
C172 C174 1.388 . S
C173 C172 1.366 . S
C173 C177 1.385 . S
C174 H155 0.951 . S
C174 C172 1.388 . S
C174 C175 1.366 . S
C175 C174 1.366 . S
C175 C176 1.414 . S
C175 C178 1.499 . S
C176 H156 0.950 . S
C176 C175 1.414 . S
C176 C177 1.374 . S
C177 H157 0.950 . S
C177 C173 1.385 . S
C177 C176 1.374 . S
C178 C175 1.499 . S
C178 C179 1.373 . S
C178 C180 1.389 . S
C179 H158 0.950 . S
C179 C178 1.373 . S
C179 C195 1.377 . S
C180 C178 1.389 . S
C180 C181 1.524 . S
C180 C194 1.377 . S
C181 C180 1.524 . S
C181 C182 1.397 . S
C181 C186 1.363 . S
C182 H159 0.950 . S
C182 C181 1.397 . S
C182 C183 1.334 . S
C183 H160 0.950 . S
C183 C182 1.334 . S
C183 C184 1.287 . S
C184 C183 1.287 . S
C184 C185 1.524 . S
C184 H203 0.913 . S
C185 H161 0.950 . S
C185 C184 1.524 . S
C185 C186 1.415 . S
C186 H162 0.950 . S
C186 C181 1.363 . S
C186 C185 1.415 . S
C187 H163 0.951 . S
C187 C188 1.366 . S
C187 C189 1.388 . S
C188 C187 1.366 . S
C188 C192 1.385 . S
C189 H164 0.951 . S
C189 C187 1.388 . S
C189 C190 1.366 . S
C190 C189 1.366 . S
C190 C191 1.414 . S
C190 C193 1.499 . S
C191 H165 0.950 . S
C191 C190 1.414 . S
C191 C192 1.374 . S
C192 H166 0.950 . S
C192 C188 1.385 . S
C192 C191 1.374 . S
C193 C190 1.499 . S
C193 C194 1.373 . S
C193 C195 1.389 . S
C194 H167 0.950 . S
C194 C180 1.377 . S
C194 C193 1.373 . S
C195 C179 1.377 . S
C195 C193 1.389 . S
C195 C196 1.524 . S
C196 C195 1.524 . S
C196 C197 1.397 . S
C196 C201 1.363 . S
C197 H168 0.950 . S
C197 C196 1.397 . S
C197 C198 1.334 . S
C198 H169 0.950 . S
C198 C197 1.334 . S
C198 C199 1.287 . S
C199 C198 1.287 . S
C199 C200 1.524 . S
C199 H202 0.999 . S
C200 H170 0.950 . S
C200 C199 1.524 . S
C200 C201 1.415 . S
C201 H171 0.950 . S
C201 C196 1.363 . S
C201 C200 1.415 . S
H202 C199 0.999 . S
H203 C184 0.913 . S
H204 C222 0.951 . S
H205 C224 0.951 . S
H206 C226 0.950 . S
H207 C227 0.950 . S
H208 C229 0.950 . S
H209 C232 0.930 1_554 S
H210 C233 0.950 1_554 S
H211 C235 0.950 . S
H212 C236 0.950 . S
H213 C237 0.951 . S
H214 C239 0.951 . S
H215 C241 0.950 . S
H216 C242 0.950 . S
H217 C244 0.950 . S
H218 C247 0.930 1_556 S
H219 C248 0.950 1_556 S
H220 C250 0.950 . S
H221 C251 0.950 . S
C222 H204 0.951 . S
C222 C223 1.366 . S
C222 C224 1.388 . S
C223 C222 1.366 . S
C223 C227 1.385 . S
C224 H205 0.951 . S
C224 C222 1.388 . S
C224 C225 1.366 . S
C225 C224 1.366 . S
C225 C226 1.414 . S
C225 C228 1.499 . S
C226 H206 0.950 . S
C226 C225 1.414 . S
C226 C227 1.374 . S
C227 H207 0.950 . S
C227 C223 1.385 . S
C227 C226 1.374 . S
C228 C225 1.499 . S
C228 C229 1.373 1_565 S
C228 C230 1.389 1_554 S
C229 H208 0.950 . S
C229 C228 1.373 1_545 S
C229 C245 1.377 . S
C230 C228 1.389 1_556 S
C230 C231 1.524 . S
C230 C244 1.377 . S
C231 C230 1.524 . S
C231 C232 1.410 . S
C231 C236 1.363 . S
C232 H209 0.930 1_556 S
C232 C231 1.410 . S
C232 C233 1.342 . S
C233 H210 0.950 1_556 S
C233 C232 1.342 . S
C233 C234 1.287 . S
C234 C233 1.287 . S
C234 C235 1.524 . S
C234 H253 0.913 . S
C235 H211 0.950 . S
C235 C234 1.524 . S
C235 C236 1.415 . S
C236 H212 0.950 . S
C236 C231 1.363 . S
C236 C235 1.415 . S
C237 H213 0.951 . S
C237 C238 1.366 . S
C237 C239 1.388 . S
C238 C237 1.366 . S
C238 C242 1.385 . S
C239 H214 0.951 . S
C239 C237 1.388 . S
C239 C240 1.366 . S
C240 C239 1.366 . S
C240 C241 1.414 . S
C240 C243 1.499 . S
C241 H215 0.950 . S
C241 C240 1.414 . S
C241 C242 1.374 . S
C242 H216 0.950 . S
C242 C238 1.385 . S
C242 C241 1.374 . S
C243 C240 1.499 . S
C243 C244 1.373 1_545 S
C243 C245 1.389 1_556 S
C244 H217 0.950 . S
C244 C230 1.377 . S
C244 C243 1.373 1_565 S
C245 C229 1.377 . S
C245 C243 1.389 1_554 S
C245 C246 1.524 . S
C246 C245 1.524 . S
C246 C247 1.410 . S
C246 C251 1.363 . S
C247 H218 0.930 1_554 S
C247 C246 1.410 . S
C247 C248 1.342 . S
C248 H219 0.950 1_554 S
C248 C247 1.342 . S
C248 C249 1.287 . S
C249 C248 1.287 . S
C249 C250 1.524 . S
C249 H252 0.999 . S
C250 H220 0.950 . S
C250 C249 1.524 . S
C250 C251 1.415 . S
C251 H221 0.950 . S
C251 C246 1.363 . S
C251 C250 1.415 . S
H252 C249 0.999 . S
H253 C234 0.913 . S
H254 C272 0.951 . S
H255 C274 0.951 1_565 S
H256 C276 0.950 . S
H257 C277 0.950 . S
H258 C279 0.950 . S
H259 C282 0.950 . S
H260 C283 0.950 . S
H261 C285 0.950 . S
H262 C286 0.950 . S
H263 C287 0.951 . S
H264 C289 0.951 1_545 S
H265 C291 0.950 . S
H266 C292 0.950 . S
H267 C294 0.950 . S
H268 C297 0.950 . S
H269 C298 0.950 . S
H270 C300 0.950 . S
H271 C301 0.950 . S
C272 H254 0.951 . S
C272 C273 1.366 . S
C272 C274 1.388 . S
C273 C272 1.366 . S
C273 C277 1.385 . S
C274 H255 0.951 1_545 S
C274 C272 1.388 . S
C274 C275 1.366 . S
C275 C274 1.366 . S
C275 C276 1.414 . S
C275 C278 1.499 . S
C276 H256 0.950 . S
C276 C275 1.414 . S
C276 C277 1.374 . S
C277 H257 0.950 . S
C277 C273 1.385 . S
C277 C276 1.374 . S
C278 C275 1.499 . S
C278 C279 1.373 . S
C278 C280 1.389 1_545 S
C279 H258 0.950 . S
C279 C278 1.373 . S
C279 C295 1.377 1_655 S
C280 C278 1.389 1_565 S
C280 C281 1.524 . S
C280 C294 1.377 1_655 S
C281 C280 1.524 . S
C281 C282 1.397 . S
C281 C286 1.363 1_655 S
C282 H259 0.950 . S
C282 C281 1.397 . S
C282 C283 1.334 . S
C283 H260 0.950 . S
C283 C282 1.334 . S
C283 C284 1.287 . S
C284 C283 1.287 . S
C284 C285 1.524 1_655 S
C284 H303 0.913 . S
C285 H261 0.950 . S
C285 C284 1.524 1_455 S
C285 C286 1.415 . S
C286 H262 0.950 . S
C286 C281 1.363 1_455 S
C286 C285 1.415 . S
C287 H263 0.951 . S
C287 C288 1.366 . S
C287 C289 1.388 . S
C288 C287 1.366 . S
C288 C292 1.385 . S
C289 H264 0.951 1_565 S
C289 C287 1.388 . S
C289 C290 1.366 . S
C290 C289 1.366 . S
C290 C291 1.414 . S
C290 C293 1.499 . S
C291 H265 0.950 . S
C291 C290 1.414 . S
C291 C292 1.374 . S
C292 H266 0.950 . S
C292 C288 1.385 . S
C292 C291 1.374 . S
C293 C290 1.499 . S
C293 C294 1.373 . S
C293 C295 1.389 1_565 S
C294 H267 0.950 . S
C294 C280 1.377 1_455 S
C294 C293 1.373 . S
C295 C279 1.377 1_455 S
C295 C293 1.389 1_545 S
C295 C296 1.524 . S
C296 C295 1.524 . S
C296 C297 1.397 . S
C296 C301 1.363 1_455 S
C297 H268 0.950 . S
C297 C296 1.397 . S
C297 C298 1.334 . S
C298 H269 0.950 . S
C298 C297 1.334 . S
C298 C299 1.287 . S
C299 C298 1.287 . S
C299 C300 1.524 1_455 S
C299 H302 0.999 . S
C300 H270 0.950 . S
C300 C299 1.524 1_655 S
C300 C301 1.415 . S
C301 H271 0.950 . S
C301 C296 1.363 1_655 S
C301 C300 1.415 . S
H302 C299 0.999 . S
H303 C284 0.913 . S
H304 C322 0.951 . S
H305 C324 0.951 . S
H306 C326 0.950 . S
H307 C327 0.950 . S
H308 C329 0.950 . S
H309 C332 0.950 . S
H310 C333 0.950 . S
H311 C335 0.950 . S
H312 C336 0.950 . S
H313 C337 0.951 . S
H314 C339 0.951 . S
H315 C341 0.950 . S
H316 C342 0.950 . S
H317 C344 0.950 . S
H318 C347 0.950 . S
H319 C348 0.950 . S
H320 C350 0.950 . S
H321 C351 0.950 . S
C322 H304 0.951 . S
C322 C323 1.366 . S
C322 C324 1.388 . S
C323 C322 1.366 . S
C323 C327 1.385 . S
C324 H305 0.951 . S
C324 C322 1.388 . S
C324 C325 1.366 . S
C325 C324 1.366 . S
C325 C326 1.414 . S
C325 C328 1.499 . S
C326 H306 0.950 . S
C326 C325 1.414 . S
C326 C327 1.374 . S
C327 H307 0.950 . S
C327 C323 1.385 . S
C327 C326 1.374 . S
C328 C325 1.499 . S
C328 C329 1.373 . S
C328 C330 1.389 . S
C329 H308 0.950 . S
C329 C328 1.373 . S
C329 C345 1.377 . S
C330 C328 1.389 . S
C330 C331 1.524 . S
C330 C344 1.377 . S
C331 C330 1.524 . S
C331 C332 1.397 . S
C331 C336 1.363 . S
C332 H309 0.950 . S
C332 C331 1.397 . S
C332 C333 1.334 . S
C333 H310 0.950 . S
C333 C332 1.334 . S
C333 C334 1.287 . S
C334 C333 1.287 . S
C334 C335 1.524 . S
C334 H353 0.913 . S
C335 H311 0.950 . S
C335 C334 1.524 . S
C335 C336 1.415 . S
C336 H312 0.950 . S
C336 C331 1.363 . S
C336 C335 1.415 . S
C337 H313 0.951 . S
C337 C338 1.366 . S
C337 C339 1.388 . S
C338 C337 1.366 . S
C338 C342 1.385 . S
C339 H314 0.951 . S
C339 C337 1.388 . S
C339 C340 1.366 . S
C340 C339 1.366 . S
C340 C341 1.414 . S
C340 C343 1.499 . S
C341 H315 0.950 . S
C341 C340 1.414 . S
C341 C342 1.374 . S
C342 H316 0.950 . S
C342 C338 1.385 . S
C342 C341 1.374 . S
C343 C340 1.499 . S
C343 C344 1.373 . S
C343 C345 1.389 . S
C344 H317 0.950 . S
C344 C330 1.377 . S
C344 C343 1.373 . S
C345 C329 1.377 . S
C345 C343 1.389 . S
C345 C346 1.524 . S
C346 C345 1.524 . S
C346 C347 1.397 . S
C346 C351 1.363 . S
C347 H318 0.950 . S
C347 C346 1.397 . S
C347 C348 1.334 . S
C348 H319 0.950 . S
C348 C347 1.334 . S
C348 C349 1.287 . S
C349 C348 1.287 . S
C349 C350 1.524 . S
C349 H352 0.999 . S
C350 H320 0.950 . S
C350 C349 1.524 . S
C350 C351 1.415 . S
C351 H321 0.950 . S
C351 C346 1.363 . S
C351 C350 1.415 . S
H352 C349 0.999 . S
H353 C334 0.913 . S
H354 C372 0.951 . S
H355 C374 0.951 . S
H356 C376 0.950 . S
H357 C377 0.950 . S
H358 C379 0.950 . S
H359 C382 0.950 . S
H360 C383 0.950 . S
H361 C385 0.950 . S
H362 C386 0.950 . S
H363 C387 0.951 . S
H364 C389 0.951 . S
H365 C391 0.950 . S
H366 C392 0.950 . S
H367 C394 0.950 . S
H368 C397 0.950 . S
H369 C398 0.950 . S
H370 C400 0.950 . S
H371 C401 0.950 . S
C372 H354 0.951 . S
C372 C373 1.366 . S
C372 C374 1.388 . S
C373 C372 1.366 . S
C373 C377 1.385 . S
C374 H355 0.951 . S
C374 C372 1.388 . S
C374 C375 1.366 . S
C375 C374 1.366 . S
C375 C376 1.414 . S
C375 C378 1.499 . S
C376 H356 0.950 . S
C376 C375 1.414 . S
C376 C377 1.374 . S
C377 H357 0.950 . S
C377 C373 1.385 . S
C377 C376 1.374 . S
C378 C375 1.499 . S
C378 C379 1.373 . S
C378 C380 1.389 . S
C379 H358 0.950 . S
C379 C378 1.373 . S
C379 C395 1.377 . S
C380 C378 1.389 . S
C380 C381 1.524 . S
C380 C394 1.377 . S
C381 C380 1.524 . S
C381 C382 1.397 . S
C381 C386 1.363 . S
C382 H359 0.950 . S
C382 C381 1.397 . S
C382 C383 1.334 . S
C383 H360 0.950 . S
C383 C382 1.334 . S
C383 C384 1.287 . S
C384 C383 1.287 . S
C384 C385 1.524 . S
C384 H403 0.913 . S
C385 H361 0.950 . S
C385 C384 1.524 . S
C385 C386 1.415 . S
C386 H362 0.950 . S
C386 C381 1.363 . S
C386 C385 1.415 . S
C387 H363 0.951 . S
C387 C388 1.366 . S
C387 C389 1.388 . S
C388 C387 1.366 . S
C388 C392 1.385 . S
C389 H364 0.951 . S
C389 C387 1.388 . S
C389 C390 1.366 . S
C390 C389 1.366 . S
C390 C391 1.414 . S
C390 C393 1.499 . S
C391 H365 0.950 . S
C391 C390 1.414 . S
C391 C392 1.374 . S
C392 H366 0.950 . S
C392 C388 1.385 . S
C392 C391 1.374 . S
C393 C390 1.499 . S
C393 C394 1.373 . S
C393 C395 1.389 . S
C394 H367 0.950 . S
C394 C380 1.377 . S
C394 C393 1.373 . S
C395 C379 1.377 . S
C395 C393 1.389 . S
C395 C396 1.524 . S
C396 C395 1.524 . S
C396 C397 1.397 . S
C396 C401 1.363 . S
C397 H368 0.950 . S
C397 C396 1.397 . S
C397 C398 1.334 . S
C398 H369 0.950 . S
C398 C397 1.334 . S
C398 C399 1.287 . S
C399 C398 1.287 . S
C399 C400 1.524 . S
C399 H402 0.999 . S
C400 H370 0.950 . S
C400 C399 1.524 . S
C400 C401 1.415 . S
C401 H371 0.950 . S
C401 C396 1.363 . S
C401 C400 1.415 . S
H402 C399 0.999 . S
H403 C384 0.913 . S
H404 C422 0.951 . S
H405 C424 0.951 . S
H406 C426 0.950 . S
H407 C427 0.950 . S
H408 C429 0.950 . S
H409 C432 0.950 . S
H410 C433 0.950 . S
H411 C435 0.950 . S
H412 C436 0.950 . S
H413 C437 0.951 . S
H414 C439 0.951 . S
H415 C441 0.950 . S
H416 C442 0.950 . S
H417 C444 0.950 . S
H418 C447 0.950 . S
H419 C448 0.950 . S
H420 C450 0.950 . S
H421 C451 0.950 . S
C422 H404 0.951 . S
C422 C423 1.366 . S
C422 C424 1.388 . S
C423 C422 1.366 . S
C423 C427 1.385 . S
C424 H405 0.951 . S
C424 C422 1.388 . S
C424 C425 1.366 . S
C425 C424 1.366 . S
C425 C426 1.414 . S
C425 C428 1.499 . S
C426 H406 0.950 . S
C426 C425 1.414 . S
C426 C427 1.374 . S
C427 H407 0.950 . S
C427 C423 1.385 . S
C427 C426 1.374 . S
C428 C425 1.499 . S
C428 C429 1.373 . S
C428 C430 1.389 . S
C429 H408 0.950 . S
C429 C428 1.373 . S
C429 C445 1.377 . S
C430 C428 1.389 . S
C430 C431 1.524 . S
C430 C444 1.377 . S
C431 C430 1.524 . S
C431 C432 1.397 . S
C431 C436 1.363 . S
C432 H409 0.950 . S
C432 C431 1.397 . S
C432 C433 1.334 . S
C433 H410 0.950 . S
C433 C432 1.334 . S
C433 C434 1.287 . S
C434 C433 1.287 . S
C434 C435 1.524 . S
C434 H453 0.913 . S
C435 H411 0.950 . S
C435 C434 1.524 . S
C435 C436 1.415 . S
C436 H412 0.950 . S
C436 C431 1.363 . S
C436 C435 1.415 . S
C437 H413 0.951 . S
C437 C438 1.366 . S
C437 C439 1.388 . S
C438 C437 1.366 . S
C438 C442 1.385 . S
C439 H414 0.951 . S
C439 C437 1.388 . S
C439 C440 1.366 . S
C440 C439 1.366 . S
C440 C441 1.414 . S
C440 C443 1.499 . S
C441 H415 0.950 . S
C441 C440 1.414 . S
C441 C442 1.374 . S
C442 H416 0.950 . S
C442 C438 1.385 . S
C442 C441 1.374 . S
C443 C440 1.499 . S
C443 C444 1.373 . S
C443 C445 1.389 . S
C444 H417 0.950 . S
C444 C430 1.377 . S
C444 C443 1.373 . S
C445 C429 1.377 . S
C445 C443 1.389 . S
C445 C446 1.524 . S
C446 C445 1.524 . S
C446 C447 1.397 . S
C446 C451 1.363 . S
C447 H418 0.950 . S
C447 C446 1.397 . S
C447 C448 1.334 . S
C448 H419 0.950 . S
C448 C447 1.334 . S
C448 C449 1.287 . S
C449 C448 1.287 . S
C449 C450 1.524 . S
C449 H452 0.999 . S
C450 H420 0.950 . S
C450 C449 1.524 . S
C450 C451 1.415 . S
C451 H421 0.950 . S
C451 C446 1.363 . S
C451 C450 1.415 . S
H452 C449 0.999 . S
H453 C434 0.913 . S
H454 C472 0.951 . S
H455 C474 0.951 . S
H456 C476 0.950 . S
H457 C477 0.950 . S
H458 C479 0.950 . S
H459 C482 0.950 . S
H460 C483 0.950 . S
H461 C485 0.950 . S
H462 C486 0.950 . S
H463 C487 0.951 . S
H464 C489 0.951 . S
H465 C491 0.950 . S
H466 C492 0.950 . S
H467 C494 0.950 . S
H468 C497 0.950 . S
H469 C498 0.950 . S
H470 C500 0.950 . S
H471 C501 0.950 . S
C472 H454 0.951 . S
C472 C473 1.366 . S
C472 C474 1.388 . S
C473 C472 1.366 . S
C473 C477 1.385 . S
C474 H455 0.951 . S
C474 C472 1.388 . S
C474 C475 1.366 . S
C475 C474 1.366 . S
C475 C476 1.414 . S
C475 C478 1.499 . S
C476 H456 0.950 . S
C476 C475 1.414 . S
C476 C477 1.374 . S
C477 H457 0.950 . S
C477 C473 1.385 . S
C477 C476 1.374 . S
C478 C475 1.499 . S
C478 C479 1.373 . S
C478 C480 1.389 . S
C479 H458 0.950 . S
C479 C478 1.373 . S
C479 C495 1.377 . S
C480 C478 1.389 . S
C480 C481 1.524 . S
C480 C494 1.377 . S
C481 C480 1.524 . S
C481 C482 1.397 . S
C481 C486 1.363 . S
C482 H459 0.950 . S
C482 C481 1.397 . S
C482 C483 1.334 . S
C483 H460 0.950 . S
C483 C482 1.334 . S
C483 C484 1.287 . S
C484 C483 1.287 . S
C484 C485 1.524 . S
C484 H503 0.913 . S
C485 H461 0.950 . S
C485 C484 1.524 . S
C485 C486 1.415 . S
C486 H462 0.950 . S
C486 C481 1.363 . S
C486 C485 1.415 . S
C487 H463 0.951 . S
C487 C488 1.366 . S
C487 C489 1.388 . S
C488 C487 1.366 . S
C488 C492 1.385 . S
C489 H464 0.951 . S
C489 C487 1.388 . S
C489 C490 1.366 . S
C490 C489 1.366 . S
C490 C491 1.414 . S
C490 C493 1.499 . S
C491 H465 0.950 . S
C491 C490 1.414 . S
C491 C492 1.374 . S
C492 H466 0.950 . S
C492 C488 1.385 . S
C492 C491 1.374 . S
C493 C490 1.499 . S
C493 C494 1.373 . S
C493 C495 1.389 . S
C494 H467 0.950 . S
C494 C480 1.377 . S
C494 C493 1.373 . S
C495 C479 1.377 . S
C495 C493 1.389 . S
C495 C496 1.524 . S
C496 C495 1.524 . S
C496 C497 1.397 . S
C496 C501 1.363 . S
C497 H468 0.950 . S
C497 C496 1.397 . S
C497 C498 1.334 . S
C498 H469 0.950 . S
C498 C497 1.334 . S
C498 C499 1.287 . S
C499 C498 1.287 . S
C499 C500 1.524 . S
C499 H502 0.999 . S
C500 H470 0.950 . S
C500 C499 1.524 . S
C500 C501 1.415 . S
C501 H471 0.950 . S
C501 C496 1.363 . S
C501 C500 1.415 . S
H502 C499 0.999 . S
H503 C484 0.913 . S
H504 C522 0.951 . S
H505 C524 0.951 . S
H506 C526 0.950 . S
H507 C527 0.950 . S
H508 C529 0.950 . S
H509 C532 0.950 . S
H510 C533 0.950 . S
H511 C535 0.950 . S
H512 C536 0.950 . S
H513 C537 0.951 . S
H514 C539 0.951 . S
H515 C541 0.950 . S
H516 C542 0.950 . S
H517 C544 0.950 . S
H518 C547 0.950 . S
H519 C548 0.950 . S
H520 C550 0.950 . S
H521 C551 0.950 . S
C522 H504 0.951 . S
C522 C523 1.366 . S
C522 C524 1.388 . S
C523 C522 1.366 . S
C523 C527 1.385 . S
C524 H505 0.951 . S
C524 C522 1.388 . S
C524 C525 1.366 . S
C525 C524 1.366 . S
C525 C526 1.414 . S
C525 C528 1.499 . S
C526 H506 0.950 . S
C526 C525 1.414 . S
C526 C527 1.374 . S
C527 H507 0.950 . S
C527 C523 1.385 . S
C527 C526 1.374 . S
C528 C525 1.499 . S
C528 C529 1.373 . S
C528 C530 1.389 . S
C529 H508 0.950 . S
C529 C528 1.373 . S
C529 C545 1.377 . S
C530 C528 1.389 . S
C530 C531 1.524 . S
C530 C544 1.377 . S
C531 C530 1.524 . S
C531 C532 1.397 . S
C531 C536 1.363 . S
C532 H509 0.950 . S
C532 C531 1.397 . S
C532 C533 1.334 . S
C533 H510 0.950 . S
C533 C532 1.334 . S
C533 C534 1.287 . S
C534 C533 1.287 . S
C534 C535 1.524 . S
C534 H553 0.913 . S
C535 H511 0.950 . S
C535 C534 1.524 . S
C535 C536 1.415 . S
C536 H512 0.950 . S
C536 C531 1.363 . S
C536 C535 1.415 . S
C537 H513 0.951 . S
C537 C538 1.366 . S
C537 C539 1.388 . S
C538 C537 1.366 . S
C538 C542 1.385 . S
C539 H514 0.951 . S
C539 C537 1.388 . S
C539 C540 1.366 . S
C540 C539 1.366 . S
C540 C541 1.414 . S
C540 C543 1.499 . S
C541 H515 0.950 . S
C541 C540 1.414 . S
C541 C542 1.374 . S
C542 H516 0.950 . S
C542 C538 1.385 . S
C542 C541 1.374 . S
C543 C540 1.499 . S
C543 C544 1.373 . S
C543 C545 1.389 . S
C544 H517 0.950 . S
C544 C530 1.377 . S
C544 C543 1.373 . S
C545 C529 1.377 . S
C545 C543 1.389 . S
C545 C546 1.524 . S
C546 C545 1.524 . S
C546 C547 1.397 . S
C546 C551 1.363 . S
C547 H518 0.950 . S
C547 C546 1.397 . S
C547 C548 1.334 . S
C548 H519 0.950 . S
C548 C547 1.334 . S
C548 C549 1.287 . S
C549 C548 1.287 . S
C549 C550 1.524 . S
C549 H552 0.999 . S
C550 H520 0.950 . S
C550 C549 1.524 . S
C550 C551 1.415 . S
C551 H521 0.950 . S
C551 C546 1.363 . S
C551 C550 1.415 . S
H552 C549 0.999 . S
H553 C534 0.913 . S
H554 C572 0.951 . S
H555 C574 0.951 . S
H556 C576 0.950 . S
H557 C577 0.950 . S
H558 C579 0.950 . S
H559 C582 0.950 . S
H560 C583 0.950 . S
H561 C585 0.950 . S
H562 C586 0.950 . S
H563 C587 0.951 . S
H564 C589 0.951 . S
H565 C591 0.950 . S
H566 C592 0.950 . S
H567 C594 0.950 . S
H568 C597 0.950 . S
H569 C598 0.950 . S
H570 C600 0.950 . S
H571 C601 0.950 . S
C572 H554 0.951 . S
C572 C573 1.366 . S
C572 C574 1.388 . S
C573 C572 1.366 . S
C573 C577 1.385 . S
C574 H555 0.951 . S
C574 C572 1.388 . S
C574 C575 1.366 . S
C575 C574 1.366 . S
C575 C576 1.414 . S
C575 C578 1.499 . S
C576 H556 0.950 . S
C576 C575 1.414 . S
C576 C577 1.374 . S
C577 H557 0.950 . S
C577 C573 1.385 . S
C577 C576 1.374 . S
C578 C575 1.499 . S
C578 C579 1.373 . S
C578 C580 1.389 . S
C579 H558 0.950 . S
C579 C578 1.373 . S
C579 C595 1.377 . S
C580 C578 1.389 . S
C580 C581 1.524 . S
C580 C594 1.377 . S
C581 C580 1.524 . S
C581 C582 1.397 . S
C581 C586 1.363 . S
C582 H559 0.950 . S
C582 C581 1.397 . S
C582 C583 1.334 . S
C583 H560 0.950 . S
C583 C582 1.334 . S
C583 C584 1.287 . S
C584 C583 1.287 . S
C584 C585 1.524 . S
C584 H603 0.913 . S
C585 H561 0.950 . S
C585 C584 1.524 . S
C585 C586 1.415 . S
C586 H562 0.950 . S
C586 C581 1.363 . S
C586 C585 1.415 . S
C587 H563 0.951 . S
C587 C588 1.366 . S
C587 C589 1.388 . S
C588 C587 1.366 . S
C588 C592 1.385 . S
C589 H564 0.951 . S
C589 C587 1.388 . S
C589 C590 1.366 . S
C590 C589 1.366 . S
C590 C591 1.414 . S
C590 C593 1.499 . S
C591 H565 0.950 . S
C591 C590 1.414 . S
C591 C592 1.374 . S
C592 H566 0.950 . S
C592 C588 1.385 . S
C592 C591 1.374 . S
C593 C590 1.499 . S
C593 C594 1.373 . S
C593 C595 1.389 . S
C594 H567 0.950 . S
C594 C580 1.377 . S
C594 C593 1.373 . S
C595 C579 1.377 . S
C595 C593 1.389 . S
C595 C596 1.524 . S
C596 C595 1.524 . S
C596 C597 1.397 . S
C596 C601 1.363 . S
C597 H568 0.950 . S
C597 C596 1.397 . S
C597 C598 1.334 . S
C598 H569 0.950 . S
C598 C597 1.334 . S
C598 C599 1.287 . S
C599 C598 1.287 . S
C599 C600 1.524 . S
C599 H602 0.999 . S
C600 H570 0.950 . S
C600 C599 1.524 . S
C600 C601 1.415 . S
C601 H571 0.950 . S
C601 C596 1.363 . S
C601 C600 1.415 . S
H602 C599 0.999 . S
H603 C584 0.913 . S
H604 C622 0.951 . S
H605 C624 0.951 . S
H606 C626 0.950 . S
H607 C627 0.950 . S
H608 C629 0.950 . S
H609 C632 0.950 . S
H610 C633 0.950 . S
H611 C635 0.950 . S
H612 C636 0.950 . S
H613 C637 0.951 . S
H614 C639 0.951 . S
H615 C641 0.950 . S
H616 C642 0.950 . S
H617 C644 0.950 . S
H618 C647 0.950 . S
H619 C648 0.950 . S
H620 C650 0.950 . S
H621 C651 0.950 . S
C622 H604 0.951 . S
C622 C623 1.366 . S
C622 C624 1.388 . S
C623 C622 1.366 . S
C623 C627 1.385 . S
C624 H605 0.951 . S
C624 C622 1.388 . S
C624 C625 1.366 . S
C625 C624 1.366 . S
C625 C626 1.414 . S
C625 C628 1.499 . S
C626 H606 0.950 . S
C626 C625 1.414 . S
C626 C627 1.374 . S
C627 H607 0.950 . S
C627 C623 1.385 . S
C627 C626 1.374 . S
C628 C625 1.499 . S
C628 C629 1.373 . S
C628 C630 1.389 . S
C629 H608 0.950 . S
C629 C628 1.373 . S
C629 C645 1.377 . S
C630 C628 1.389 . S
C630 C631 1.524 . S
C630 C644 1.377 . S
C631 C630 1.524 . S
C631 C632 1.397 . S
C631 C636 1.363 . S
C632 H609 0.950 . S
C632 C631 1.397 . S
C632 C633 1.334 . S
C633 H610 0.950 . S
C633 C632 1.334 . S
C633 C634 1.287 . S
C634 C633 1.287 . S
C634 C635 1.524 . S
C634 H653 0.913 . S
C635 H611 0.950 . S
C635 C634 1.524 . S
C635 C636 1.415 . S
C636 H612 0.950 . S
C636 C631 1.363 . S
C636 C635 1.415 . S
C637 H613 0.951 . S
C637 C638 1.366 1_565 S
C637 C639 1.388 . S
C638 C637 1.366 1_545 S
C638 C642 1.385 . S
C639 H614 0.951 . S
C639 C637 1.388 . S
C639 C640 1.366 . S
C640 C639 1.366 . S
C640 C641 1.414 1_565 S
C640 C643 1.499 . S
C641 H615 0.950 . S
C641 C640 1.414 1_545 S
C641 C642 1.374 . S
C642 H616 0.950 . S
C642 C638 1.385 . S
C642 C641 1.374 . S
C643 C640 1.499 . S
C643 C644 1.373 . S
C643 C645 1.389 . S
C644 H617 0.950 . S
C644 C630 1.377 . S
C644 C643 1.373 . S
C645 C629 1.377 . S
C645 C643 1.389 . S
C645 C646 1.524 . S
C646 C645 1.524 . S
C646 C647 1.397 . S
C646 C651 1.363 . S
C647 H618 0.950 . S
C647 C646 1.397 . S
C647 C648 1.334 . S
C648 H619 0.950 . S
C648 C647 1.334 . S
C648 C649 1.287 . S
C649 C648 1.287 . S
C649 C650 1.524 . S
C649 H652 0.999 . S
C650 H620 0.950 . S
C650 C649 1.524 . S
C650 C651 1.415 . S
C651 H621 0.950 . S
C651 C646 1.363 . S
C651 C650 1.415 . S
H652 C649 0.999 . S
H653 C634 0.913 . S
H654 C672 0.951 . S
H655 C674 0.951 . S
H656 C676 0.950 1_655 S
H657 C677 0.950 . S
H658 C679 0.950 . S
H659 C682 0.950 . S
H660 C683 0.950 . S
H661 C685 0.950 . S
H662 C686 0.950 . S
H663 C687 0.951 . S
H664 C689 0.951 . S
H665 C691 0.950 . S
H666 C692 0.950 . S
H667 C694 0.950 . S
H668 C697 0.950 . S
H669 C698 0.952 . S
H670 C700 0.950 . S
H671 C701 0.950 . S
C672 H654 0.951 . S
C672 C673 1.366 1_455 S
C672 C674 1.388 . S
C673 C672 1.366 1_655 S
C673 C677 1.385 . S
C674 H655 0.951 . S
C674 C672 1.388 . S
C674 C675 1.366 . S
C675 C674 1.366 . S
C675 C676 1.414 . S
C675 C678 1.499 . S
C676 H656 0.950 1_455 S
C676 C675 1.414 . S
C676 C677 1.374 1_455 S
C677 H657 0.950 . S
C677 C673 1.385 . S
C677 C676 1.374 1_655 S
C678 C675 1.499 . S
C678 C679 1.373 . S
C678 C680 1.389 . S
C679 H658 0.950 . S
C679 C678 1.373 . S
C679 C695 1.377 . S
C680 C678 1.389 . S
C680 C681 1.524 . S
C680 C694 1.377 . S
C681 C680 1.524 . S
C681 C682 1.397 . S
C681 C686 1.363 . S
C682 H659 0.950 . S
C682 C681 1.397 . S
C682 C683 1.334 . S
C683 H660 0.950 . S
C683 C682 1.334 . S
C683 C684 1.287 . S
C684 C683 1.287 . S
C684 C685 1.524 . S
C684 H703 0.913 . S
C685 H661 0.950 . S
C685 C684 1.524 . S
C685 C686 1.415 . S
C686 H662 0.950 . S
C686 C681 1.363 . S
C686 C685 1.415 . S
C687 H663 0.951 . S
C687 C688 1.366 . S
C687 C689 1.388 . S
C688 C687 1.366 . S
C688 C692 1.385 . S
C689 H664 0.951 . S
C689 C687 1.388 . S
C689 C690 1.366 . S
C690 C689 1.366 . S
C690 C691 1.414 . S
C690 C693 1.499 . S
C691 H665 0.950 . S
C691 C690 1.414 . S
C691 C692 1.374 . S
C692 H666 0.950 . S
C692 C688 1.385 . S
C692 C691 1.374 . S
C693 C690 1.499 . S
C693 C694 1.373 . S
C693 C695 1.389 . S
C694 H667 0.950 . S
C694 C680 1.377 . S
C694 C693 1.373 . S
C695 C679 1.377 . S
C695 C693 1.389 . S
C695 C696 1.524 . S
C696 C695 1.524 . S
C696 C697 1.397 . S
C696 C701 1.363 1_455 S
C697 H668 0.950 . S
C697 C696 1.397 . S
C697 C698 1.342 . S
C698 H669 0.952 . S
C698 C697 1.342 . S
C698 C699 1.277 1_455 S
C699 C698 1.277 1_655 S
C699 C700 1.524 . S
C699 H702 0.999 . S
C700 H670 0.950 . S
C700 C699 1.524 . S
C700 C701 1.415 . S
C701 H671 0.950 . S
C701 C696 1.363 1_655 S
C701 C700 1.415 . S
H702 C699 0.999 . S
H703 C684 0.913 . S
H704 C722 0.951 . S
H705 C724 0.951 . S
H706 C726 0.950 . S
H707 C727 0.950 . S
H708 C729 0.950 . S
H709 C732 0.950 . S
H710 C733 0.950 . S
H711 C735 0.950 . S
H712 C736 0.950 . S
H713 C737 0.951 . S
H714 C739 0.951 . S
H715 C741 0.950 . S
H716 C742 0.950 . S
H717 C744 0.950 . S
H718 C747 0.950 . S
H719 C748 0.950 . S
H720 C750 0.950 . S
H721 C751 0.950 . S
C722 H704 0.951 . S
C722 C723 1.366 . S
C722 C724 1.388 . S
C723 C722 1.366 . S
C723 C727 1.385 . S
C724 H705 0.951 . S
C724 C722 1.388 . S
C724 C725 1.366 . S
C725 C724 1.366 . S
C725 C726 1.414 . S
C725 C728 1.499 . S
C726 H706 0.950 . S
C726 C725 1.414 . S
C726 C727 1.374 . S
C727 H707 0.950 . S
C727 C723 1.385 . S
C727 C726 1.374 . S
C728 C725 1.499 . S
C728 C729 1.373 . S
C728 C730 1.389 . S
C729 H708 0.950 . S
C729 C728 1.373 . S
C729 C745 1.377 . S
C730 C728 1.389 . S
C730 C731 1.524 . S
C730 C744 1.377 . S
C731 C730 1.524 . S
C731 C732 1.397 . S
C731 C736 1.363 . S
C732 H709 0.950 . S
C732 C731 1.397 . S
C732 C733 1.334 . S
C733 H710 0.950 . S
C733 C732 1.334 . S
C733 C734 1.287 . S
C734 C733 1.287 . S
C734 C735 1.524 . S
C734 H753 0.913 . S
C735 H711 0.950 . S
C735 C734 1.524 . S
C735 C736 1.415 . S
C736 H712 0.950 . S
C736 C731 1.363 . S
C736 C735 1.415 . S
C737 H713 0.951 . S
C737 C738 1.366 . S
C737 C739 1.388 . S
C738 C737 1.366 . S
C738 C742 1.385 . S
C739 H714 0.951 . S
C739 C737 1.388 . S
C739 C740 1.366 . S
C740 C739 1.366 . S
C740 C741 1.414 . S
C740 C743 1.499 . S
C741 H715 0.950 . S
C741 C740 1.414 . S
C741 C742 1.374 . S
C742 H716 0.950 . S
C742 C738 1.385 . S
C742 C741 1.374 . S
C743 C740 1.499 . S
C743 C744 1.373 . S
C743 C745 1.389 . S
C744 H717 0.950 . S
C744 C730 1.377 . S
C744 C743 1.373 . S
C745 C729 1.377 . S
C745 C743 1.389 . S
C745 C746 1.524 . S
C746 C745 1.524 . S
C746 C747 1.397 . S
C746 C751 1.363 . S
C747 H718 0.950 . S
C747 C746 1.397 . S
C747 C748 1.334 . S
C748 H719 0.950 . S
C748 C747 1.334 . S
C748 C749 1.287 . S
C749 C748 1.287 . S
C749 C750 1.524 . S
C749 H752 0.999 . S
C750 H720 0.950 . S
C750 C749 1.524 . S
C750 C751 1.415 . S
C751 H721 0.950 . S
C751 C746 1.363 . S
C751 C750 1.415 . S
H752 C749 0.999 . S
H753 C734 0.913 . S
H754 C772 0.951 . S
H755 C774 0.951 . S
H756 C776 0.950 . S
H757 C777 0.950 . S
H758 C779 0.950 . S
H759 C782 0.950 . S
H760 C783 0.950 . S
H761 C785 0.950 . S
H762 C786 0.950 . S
H763 C787 0.951 . S
H764 C789 0.951 . S
H765 C791 0.950 . S
H766 C792 0.950 . S
H767 C794 0.950 . S
H768 C797 0.950 . S
H769 C798 0.950 . S
H770 C800 0.950 . S
H771 C801 0.950 . S
C772 H754 0.951 . S
C772 C773 1.366 . S
C772 C774 1.388 . S
C773 C772 1.366 . S
C773 C777 1.385 . S
C774 H755 0.951 . S
C774 C772 1.388 . S
C774 C775 1.366 . S
C775 C774 1.366 . S
C775 C776 1.414 . S
C775 C778 1.499 . S
C776 H756 0.950 . S
C776 C775 1.414 . S
C776 C777 1.374 . S
C777 H757 0.950 . S
C777 C773 1.385 . S
C777 C776 1.374 . S
C778 C775 1.499 . S
C778 C779 1.373 . S
C778 C780 1.389 . S
C779 H758 0.950 . S
C779 C778 1.373 . S
C779 C795 1.377 . S
C780 C778 1.389 . S
C780 C781 1.524 . S
C780 C794 1.377 . S
C781 C780 1.524 . S
C781 C782 1.397 . S
C781 C786 1.363 . S
C782 H759 0.950 . S
C782 C781 1.397 . S
C782 C783 1.334 . S
C783 H760 0.950 . S
C783 C782 1.334 . S
C783 C784 1.287 . S
C784 C783 1.287 . S
C784 C785 1.524 . S
C784 H803 0.913 . S
C785 H761 0.950 . S
C785 C784 1.524 . S
C785 C786 1.415 . S
C786 H762 0.950 . S
C786 C781 1.363 . S
C786 C785 1.415 . S
C787 H763 0.951 . S
C787 C788 1.366 . S
C787 C789 1.388 . S
C788 C787 1.366 . S
C788 C792 1.385 . S
C789 H764 0.951 . S
C789 C787 1.388 . S
C789 C790 1.366 . S
C790 C789 1.366 . S
C790 C791 1.414 . S
C790 C793 1.499 . S
C791 H765 0.950 . S
C791 C790 1.414 . S
C791 C792 1.374 . S
C792 H766 0.950 . S
C792 C788 1.385 . S
C792 C791 1.374 . S
C793 C790 1.499 . S
C793 C794 1.373 . S
C793 C795 1.389 . S
C794 H767 0.950 . S
C794 C780 1.377 . S
C794 C793 1.373 . S
C795 C779 1.377 . S
C795 C793 1.389 . S
C795 C796 1.524 . S
C796 C795 1.524 . S
C796 C797 1.397 . S
C796 C801 1.363 . S
C797 H768 0.950 . S
C797 C796 1.397 . S
C797 C798 1.334 . S
C798 H769 0.950 . S
C798 C797 1.334 . S
C798 C799 1.287 . S
C799 C798 1.287 . S
C799 C800 1.524 . S
C799 H802 0.999 . S
C800 H770 0.950 . S
C800 C799 1.524 . S
C800 C801 1.415 . S
C801 H771 0.950 . S
C801 C796 1.363 . S
C801 C800 1.415 . S
H802 C799 0.999 . S
H803 C784 0.913 . S
H804 C822 0.951 . S
H805 C824 0.951 . S
H806 C826 0.950 . S
H807 C827 0.950 . S
H808 C829 0.950 . S
H809 C832 0.950 . S
H810 C833 0.950 . S
H811 C835 0.950 . S
H812 C836 0.950 . S
H813 C837 0.951 . S
H814 C839 0.951 . S
H815 C841 0.950 . S
H816 C842 0.950 . S
H817 C844 0.950 . S
H818 C847 0.950 . S
H819 C848 0.950 . S
H820 C850 0.950 . S
H821 C851 0.950 . S
C822 H804 0.951 . S
C822 C823 1.366 . S
C822 C824 1.388 . S
C823 C822 1.366 . S
C823 C827 1.385 . S
C824 H805 0.951 . S
C824 C822 1.388 . S
C824 C825 1.366 . S
C825 C824 1.366 . S
C825 C826 1.414 . S
C825 C828 1.499 . S
C826 H806 0.950 . S
C826 C825 1.414 . S
C826 C827 1.374 . S
C827 H807 0.950 . S
C827 C823 1.385 . S
C827 C826 1.374 . S
C828 C825 1.499 . S
C828 C829 1.373 . S
C828 C830 1.389 . S
C829 H808 0.950 . S
C829 C828 1.373 . S
C829 C845 1.377 . S
C830 C828 1.389 . S
C830 C831 1.524 . S
C830 C844 1.377 . S
C831 C830 1.524 . S
C831 C832 1.397 . S
C831 C836 1.363 . S
C832 H809 0.950 . S
C832 C831 1.397 . S
C832 C833 1.334 . S
C833 H810 0.950 . S
C833 C832 1.334 . S
C833 C834 1.287 . S
C834 C833 1.287 . S
C834 C835 1.524 . S
C834 H853 0.913 . S
C835 H811 0.950 . S
C835 C834 1.524 . S
C835 C836 1.415 . S
C836 H812 0.950 . S
C836 C831 1.363 . S
C836 C835 1.415 . S
C837 H813 0.951 . S
C837 C838 1.366 . S
C837 C839 1.388 . S
C838 C837 1.366 . S
C838 C842 1.385 1_565 S
C839 H814 0.951 . S
C839 C837 1.388 . S
C839 C840 1.366 1_565 S
C840 C839 1.366 1_545 S
C840 C841 1.414 . S
C840 C843 1.499 . S
C841 H815 0.950 . S
C841 C840 1.414 . S
C841 C842 1.374 . S
C842 H816 0.950 . S
C842 C838 1.385 1_545 S
C842 C841 1.374 . S
C843 C840 1.499 . S
C843 C844 1.373 . S
C843 C845 1.389 . S
C844 H817 0.950 . S
C844 C830 1.377 . S
C844 C843 1.373 . S
C845 C829 1.377 . S
C845 C843 1.389 . S
C845 C846 1.524 . S
C846 C845 1.524 . S
C846 C847 1.397 . S
C846 C851 1.363 1_545 S
C847 H818 0.950 . S
C847 C846 1.397 . S
C847 C848 1.334 1_545 S
C848 H819 0.950 . S
C848 C847 1.334 1_565 S
C848 C849 1.287 . S
C849 C848 1.287 . S
C849 C850 1.524 . S
C849 H852 0.999 . S
C850 H820 0.950 . S
C850 C849 1.524 . S
C850 C851 1.415 . S
C851 H821 0.950 . S
C851 C846 1.363 1_565 S
C851 C850 1.415 . S
H852 C849 0.999 . S
H853 C834 0.913 . S
H854 C872 0.951 . S
H855 C874 0.958 . S
H856 C876 0.950 . S
H857 C877 0.950 . S
H858 C879 0.950 . S
H859 C882 0.950 . S
H860 C883 0.950 . S
H861 C885 0.950 1_455 S
H862 C886 0.950 . S
H863 C887 0.951 . S
H864 C889 0.951 . S
H865 C891 0.950 . S
H866 C892 0.950 . S
H867 C894 0.950 . S
H868 C897 0.950 . S
H869 C898 0.950 . S
H870 C900 0.950 . S
H871 C901 0.950 . S
C872 H854 0.951 . S
C872 C873 1.366 . S
C872 C874 1.395 . S
C873 C872 1.366 . S
C873 C877 1.385 1_455 S
C874 H855 0.958 . S
C874 C872 1.395 . S
C874 C875 1.352 1_455 S
C875 C874 1.352 1_655 S
C875 C876 1.414 . S
C875 C878 1.499 . S
C876 H856 0.950 . S
C876 C875 1.414 . S
C876 C877 1.374 . S
C877 H857 0.950 . S
C877 C873 1.385 1_655 S
C877 C876 1.374 . S
C878 C875 1.499 . S
C878 C879 1.373 . S
C878 C880 1.389 . S
C879 H858 0.950 . S
C879 C878 1.373 . S
C879 C895 1.377 . S
C880 C878 1.389 . S
C880 C881 1.524 . S
C880 C894 1.377 . S
C881 C880 1.524 . S
C881 C882 1.397 . S
C881 C886 1.363 . S
C882 H859 0.950 . S
C882 C881 1.397 . S
C882 C883 1.334 . S
C883 H860 0.950 . S
C883 C882 1.334 . S
C883 C884 1.287 . S
C884 C883 1.287 . S
C884 C885 1.524 . S
C884 H903 0.913 . S
C885 H861 0.950 1_655 S
C885 C884 1.524 . S
C885 C886 1.415 . S
C886 H862 0.950 . S
C886 C881 1.363 . S
C886 C885 1.415 . S
C887 H863 0.951 . S
C887 C888 1.366 . S
C887 C889 1.388 . S
C888 C887 1.366 . S
C888 C892 1.385 . S
C889 H864 0.951 . S
C889 C887 1.388 . S
C889 C890 1.366 . S
C890 C889 1.366 . S
C890 C891 1.414 . S
C890 C893 1.499 . S
C891 H865 0.950 . S
C891 C890 1.414 . S
C891 C892 1.374 . S
C892 H866 0.950 . S
C892 C888 1.385 . S
C892 C891 1.374 . S
C893 C890 1.499 . S
C893 C894 1.373 . S
C893 C895 1.389 . S
C894 H867 0.950 . S
C894 C880 1.377 . S
C894 C893 1.373 . S
C895 C879 1.377 . S
C895 C893 1.389 . S
C895 C896 1.524 . S
C896 C895 1.524 . S
C896 C897 1.397 . S
C896 C901 1.363 . S
C897 H868 0.950 . S
C897 C896 1.397 . S
C897 C898 1.334 . S
C898 H869 0.950 . S
C898 C897 1.334 . S
C898 C899 1.287 . S
C899 C898 1.287 . S
C899 C900 1.524 . S
C899 H902 0.999 . S
C900 H870 0.950 . S
C900 C899 1.524 . S
C900 C901 1.415 . S
C901 H871 0.950 . S
C901 C896 1.363 . S
C901 C900 1.415 . S
H902 C899 0.999 . S
H903 C884 0.913 . S
C123 C55 1.840 . S
C138 C5 1.840 . S
C173 C18 1.840 . S
C188 C68 1.840 . S
C223 C31 1.841 . S
C238 C81 1.841 . S
C273 C94 1.841 . S
C288 C44 1.841 . S
C323 C3 2.033 . S
C338 C29 2.033 . S
C373 C16 2.033 . S
C388 C42 2.033 . S
C423 C83 2.033 . S
C438 C57 2.032 . S
C473 C70 2.033 . S
C488 C96 2.032 . S
C523 C66 1.409 . S
C538 C1 1.453 . S
C573 C14 1.453 . S
C588 C79 1.409 . S
C623 C27 1.453 . S
C638 C92 1.409 . S
C673 C53 1.409 . S
C688 C40 1.453 . S
C723 C62 1.453 . S
C738 C23 1.410 . S
C773 C75 1.453 . S
C788 C36 1.409 . S
C823 C88 1.453 . S
C838 C49 1.409 . S
C873 C10 1.409 . S
C888 C101 1.453 . S
