# Generated by pormake.
# Topology wlk, (5)-cn, num edge types: 1
# Building blocks:
#     Node 0, Type 0, BuildingBlock: BEQFEK_clean_sbu_0, # of connection points: 5
#     Node 1, Type 0, BuildingBlock: BEQFEK_clean_sbu_0, # of connection points: 5
#     Node 2, Type 0, BuildingBlock: BEQFEK_clean_sbu_0, # of connection points: 5
#     Node 3, Type 0, BuildingBlock: BEQFEK_clean_sbu_0, # of connection points: 5
#     Node 4, Type 0, BuildingBlock: BEQFEK_clean_sbu_0, # of connection points: 5
#     Node 5, Type 0, BuildingBlock: BEQFEK_clean_sbu_0, # of connection points: 5
#     Node 6, Type 0, BuildingBlock: BEQFEK_clean_sbu_0, # of connection points: 5
#     Node 7, Type 0, BuildingBlock: BEQFEK_clean_sbu_0, # of connection points: 5
#     Node 8, Type 0, BuildingBlock: BEQFEK_clean_sbu_0, # of connection points: 5
#     Node 9, Type 0, BuildingBlock: BEQFEK_clean_sbu_0, # of connection points: 5
#     Node 10, Type 0, BuildingBlock: BEQFEK_clean_sbu_0, # of connection points: 5
#     Node 11, Type 0, BuildingBlock: BEQFEK_clean_sbu_0, # of connection points: 5
#     Node 12, Type 0, BuildingBlock: BEQFEK_clean_sbu_0, # of connection points: 5
#     Node 13, Type 0, BuildingBlock: BEQFEK_clean_sbu_0, # of connection points: 5
#     Node 14, Type 0, BuildingBlock: BEQFEK_clean_sbu_0, # of connection points: 5
#     Node 15, Type 0, BuildingBlock: BEQFEK_clean_sbu_0, # of connection points: 5
#     Node 16, Type 0, BuildingBlock: BEQFEK_clean_sbu_0, # of connection points: 5
#     Node 17, Type 0, BuildingBlock: BEQFEK_clean_sbu_0, # of connection points: 5
#     Edge 18, Type (0, 0), BuildingBlock: OJICUG_clean_linker_0, # of connection points: 2
#     Edge 19, Type (0, 0), BuildingBlock: OJICUG_clean_linker_0, # of connection points: 2
#     Edge 20, Type (0, 0), BuildingBlock: OJICUG_clean_linker_0, # of connection points: 2
#     Edge 21, Type (0, 0), BuildingBlock: OJICUG_clean_linker_0, # of connection points: 2
#     Edge 22, Type (0, 0), BuildingBlock: OJICUG_clean_linker_0, # of connection points: 2
#     Edge 23, Type (0, 0), BuildingBlock: OJICUG_clean_linker_0, # of connection points: 2
#     Edge 24, Type (0, 0), BuildingBlock: OJICUG_clean_linker_0, # of connection points: 2
#     Edge 25, Type (0, 0), BuildingBlock: OJICUG_clean_linker_0, # of connection points: 2
#     Edge 26, Type (0, 0), BuildingBlock: OJICUG_clean_linker_0, # of connection points: 2
#     Edge 27, Type (0, 0), BuildingBlock: OJICUG_clean_linker_0, # of connection points: 2
#     Edge 28, Type (0, 0), BuildingBlock: OJICUG_clean_linker_0, # of connection points: 2
#     Edge 29, Type (0, 0), BuildingBlock: OJICUG_clean_linker_0, # of connection points: 2
#     Edge 30, Type (0, 0), BuildingBlock: OJICUG_clean_linker_0, # of connection points: 2
#     Edge 31, Type (0, 0), BuildingBlock: OJICUG_clean_linker_0, # of connection points: 2
#     Edge 32, Type (0, 0), BuildingBlock: OJICUG_clean_linker_0, # of connection points: 2
#     Edge 33, Type (0, 0), BuildingBlock: OJICUG_clean_linker_0, # of connection points: 2
#     Edge 34, Type (0, 0), BuildingBlock: OJICUG_clean_linker_0, # of connection points: 2
#     Edge 35, Type (0, 0), BuildingBlock: OJICUG_clean_linker_0, # of connection points: 2
#     Edge 36, Type (0, 0), BuildingBlock: OJICUG_clean_linker_0, # of connection points: 2
#     Edge 37, Type (0, 0), BuildingBlock: OJICUG_clean_linker_0, # of connection points: 2
#     Edge 38, Type (0, 0), BuildingBlock: OJICUG_clean_linker_0, # of connection points: 2
#     Edge 39, Type (0, 0), BuildingBlock: OJICUG_clean_linker_0, # of connection points: 2
#     Edge 40, Type (0, 0), BuildingBlock: OJICUG_clean_linker_0, # of connection points: 2
#     Edge 41, Type (0, 0), BuildingBlock: OJICUG_clean_linker_0, # of connection points: 2
#     Edge 42, Type (0, 0), BuildingBlock: OJICUG_clean_linker_0, # of connection points: 2
#     Edge 43, Type (0, 0), BuildingBlock: OJICUG_clean_linker_0, # of connection points: 2
#     Edge 44, Type (0, 0), BuildingBlock: OJICUG_clean_linker_0, # of connection points: 2
#     Edge 45, Type (0, 0), BuildingBlock: OJICUG_clean_linker_0, # of connection points: 2
#     Edge 46, Type (0, 0), BuildingBlock: OJICUG_clean_linker_0, # of connection points: 2
#     Edge 47, Type (0, 0), BuildingBlock: OJICUG_clean_linker_0, # of connection points: 2
#     Edge 48, Type (0, 0), BuildingBlock: OJICUG_clean_linker_0, # of connection points: 2
#     Edge 49, Type (0, 0), BuildingBlock: OJICUG_clean_linker_0, # of connection points: 2
#     Edge 50, Type (0, 0), BuildingBlock: OJICUG_clean_linker_0, # of connection points: 2
#     Edge 51, Type (0, 0), BuildingBlock: OJICUG_clean_linker_0, # of connection points: 2
#     Edge 52, Type (0, 0), BuildingBlock: OJICUG_clean_linker_0, # of connection points: 2
#     Edge 53, Type (0, 0), BuildingBlock: OJICUG_clean_linker_0, # of connection points: 2
#     Edge 54, Type (0, 0), BuildingBlock: OJICUG_clean_linker_0, # of connection points: 2
#     Edge 55, Type (0, 0), BuildingBlock: OJICUG_clean_linker_0, # of connection points: 2
#     Edge 56, Type (0, 0), BuildingBlock: OJICUG_clean_linker_0, # of connection points: 2
#     Edge 57, Type (0, 0), BuildingBlock: OJICUG_clean_linker_0, # of connection points: 2
#     Edge 58, Type (0, 0), BuildingBlock: OJICUG_clean_linker_0, # of connection points: 2
#     Edge 59, Type (0, 0), BuildingBlock: OJICUG_clean_linker_0, # of connection points: 2
#     Edge 60, Type (0, 0), BuildingBlock: OJICUG_clean_linker_0, # of connection points: 2
#     Edge 61, Type (0, 0), BuildingBlock: OJICUG_clean_linker_0, # of connection points: 2
#     Edge 62, Type (0, 0), BuildingBlock: OJICUG_clean_linker_0, # of connection points: 2
# Relax obj value: 0.045
# Max RMSD: 0.100
# Mean RMSD: 0.100
data_MOF--net-wlk--node1-BEQFEK_clean_sbu_0--edge1-OJICUG_clean_linker_0
_symmetry_space_group_name_H-M    P1
_symmetry_Int_Tables_number       1
_symmetry_cell_setting            triclinic
loop_
_symmetry_equiv_pos_as_xyz
'x, y, z'
_cell_length_a     49.91226
_cell_length_b     49.863679
_cell_length_c     23.785293
_cell_angle_alpha  89.946154
_cell_angle_beta   89.987657
_cell_angle_gamma 120.02675
loop_
_atom_site_label
_atom_site_type_symbol
_atom_site_fract_x
_atom_site_fract_y
_atom_site_fract_z
_atom_type_partial_charge
Co0 Co 0.23175 0.26908 0.1814 0.0
Co1 Co 0.17634 0.25909 0.10395 0.0
C2 C 0.19773 0.21286 0.10717 0.0
O3 O 0.21796 0.22925 0.14358 0.0
O4 O 0.1791 0.22102 0.08778 0.0
C5 C 0.26393 0.25082 0.25784 0.0
O6 O 0.24475 0.22309 0.23824 0.0
C7 C 0.11547 0.23122 0.04652 0.0
C8 C 0.1182 0.27296 0.00846 0.0
C9 C 0.09992 0.24101 0.01102 0.0
N10 N 0.14182 0.25633 0.06369 0.0
N11 N 0.14308 0.28116 0.04116 0.0
C12 C 0.1075 0.19864 0.05882 0.0
H13 H 0.12034 0.19196 0.02922 0.0
H14 H 0.1148 0.19706 0.10219 0.0
H15 H 0.0824 0.18225 0.05355 0.0
C16 C 0.19887 0.28614 0.26226 0.0
N17 N 0.19902 0.27243 0.21361 0.0
N18 N 0.17557 0.26835 0.18217 0.0
C19 C 0.15974 0.2796 0.21019 0.0
C20 C 0.17404 0.29138 0.26188 0.0
C21 C 0.22544 0.29923 0.30271 0.0
H22 H 0.24724 0.31422 0.27955 0.0
H23 H 0.22738 0.27997 0.32185 0.0
H24 H 0.22282 0.31302 0.33651 0.0
O25 O 0.25299 0.30203 0.1246 0.0
O26 O 0.21354 0.29466 0.07035 0.0
H27 H 0.14302 0.30152 0.15456 0.0
H28 H 0.12073 0.28685 0.21843 0.0
C29 C 0.13362 0.28223 0.18542 0.0
H30 H 0.1176 0.26053 0.16301 0.0
H31 H 0.16151 0.30367 0.04654 0.0
O32 O 0.26228 0.27396 0.23985 0.0
C33 C 0.2423 0.3093 0.08224 0.0
Co34 Co 0.73211 0.96438 0.1836 0.0
Co35 Co 0.74115 0.91844 0.10575 0.0
C36 C 0.78748 0.98629 0.10743 0.0
O37 O 0.77154 0.9903 0.14458 0.0
O38 O 0.77903 0.95937 0.0882 0.0
C39 C 0.75176 0.01406 0.26172 0.0
O40 O 0.77931 0.02112 0.24322 0.0
C41 C 0.76777 0.88269 0.05301 0.0
C42 C 0.72741 0.84885 0.0038 0.0
C43 C 0.75836 0.85899 0.01382 0.0
N44 N 0.74345 0.8865 0.06495 0.0
N45 N 0.71937 0.86587 0.03585 0.0
C46 C 0.79979 0.90297 0.07496 0.0
H47 H 0.80098 0.92189 0.10124 0.0
H48 H 0.80667 0.88892 0.10091 0.0
H49 H 0.81631 0.91276 0.03934 0.0
C50 C 0.71541 0.91444 0.2646 0.0
N51 N 0.72895 0.92825 0.2158 0.0
N52 N 0.73242 0.90858 0.18407 0.0
C53 C 0.72072 0.88131 0.21182 0.0
C54 C 0.70922 0.88404 0.26372 0.0
C55 C 0.70563 0.92924 0.30864 0.0
H56 H 0.72556 0.95217 0.31983 0.0
H57 H 0.69722 0.91485 0.34723 0.0
H58 H 0.68705 0.93295 0.29152 0.0
O59 O 0.69865 0.95261 0.1277 0.0
O60 O 0.70533 0.92 0.07366 0.0
H61 H 0.69851 0.84589 0.15001 0.0
H62 H 0.70637 0.83246 0.2151 0.0
C63 C 0.71539 0.85197 0.18478 0.0
H64 H 0.73741 0.85561 0.16644 0.0
H65 H 0.69767 0.86416 0.03629 0.0
O66 O 0.72798 0.99032 0.24236 0.0
C67 C 0.69092 0.93431 0.08581 0.0
Co68 Co 0.04256 0.76655 0.18232 0.0
Co69 Co 0.08475 0.82317 0.10485 0.0
C70 C 0.01744 0.79488 0.09892 0.0
O71 O 0.0159 0.77476 0.13351 0.0
O72 O 0.0433 0.81842 0.08607 0.0
C73 C 0.9911 0.73624 0.25569 0.0
O74 O 0.9837 0.75557 0.23256 0.0
C75 C 0.11777 0.88474 0.04896 0.0
C76 C 0.15603 0.88185 0.0082 0.0
C77 C 0.14286 0.90048 0.01292 0.0
N78 N 0.11619 0.85795 0.06434 0.0
N79 N 0.13934 0.85662 0.04022 0.0
C80 C 0.09375 0.89312 0.06356 0.0
H81 H 0.07602 0.88465 0.02984 0.0
H82 H 0.08224 0.88192 0.10372 0.0
H83 H 0.10405 0.91857 0.06678 0.0
C84 C 0.0886 0.80319 0.26519 0.0
N85 N 0.07513 0.80194 0.2156 0.0
N86 N 0.09437 0.82529 0.18373 0.0
C87 C 0.1212 0.84192 0.21226 0.0
C88 C 0.11854 0.82813 0.26469 0.0
C89 C 0.07438 0.77839 0.3091 0.0
H90 H 0.07247 0.75669 0.29257 0.0
H91 H 0.05075 0.77383 0.31895 0.0
H92 H 0.0882 0.78517 0.3484 0.0
O93 O 0.05998 0.74719 0.13385 0.0
O94 O 0.08433 0.78595 0.07271 0.0
H95 H 0.15824 0.85559 0.15378 0.0
H96 H 0.16909 0.87858 0.21707 0.0
C97 C 0.15044 0.86644 0.18564 0.0
H98 H 0.14595 0.88348 0.16386 0.0
H99 H 0.14316 0.83794 0.04416 0.0
O100 O 0.01578 0.73676 0.2405 0.0
C101 C 0.07512 0.7582 0.08845 0.0
Co102 Co 0.76893 0.73233 0.82439 0.0
Co103 Co 0.82388 0.74234 0.90278 0.0
C104 C 0.80277 0.78848 0.89987 0.0
O105 O 0.78261 0.77183 0.86349 0.0
O106 O 0.82179 0.78078 0.91928 0.0
C107 C 0.74035 0.75209 0.74326 0.0
O108 O 0.76108 0.7798 0.7608 0.0
C109 C 0.88612 0.76474 0.95472 0.0
C110 C 0.87724 0.72152 0.99667 0.0
C111 C 0.90002 0.75211 0.98822 0.0
N112 N 0.85672 0.74243 0.9442 0.0
N113 N 0.85168 0.71679 0.96967 0.0
C114 C 0.90062 0.79658 0.93024 0.0
H115 H 0.88689 0.79701 0.89388 0.0
H116 H 0.92474 0.80441 0.91687 0.0
H117 H 0.90114 0.81282 0.96266 0.0
C118 C 0.80214 0.71514 0.74471 0.0
N119 N 0.8018 0.72896 0.79307 0.0
N120 N 0.82527 0.73337 0.82475 0.0
C121 C 0.84137 0.7223 0.79714 0.0
C122 C 0.82719 0.71025 0.7455 0.0
C123 C 0.77556 0.70157 0.70428 0.0
H124 H 0.75364 0.68757 0.72779 0.0
H125 H 0.77421 0.72064 0.68286 0.0
H126 H 0.7777 0.68665 0.67222 0.0
O127 O 0.7466 0.69884 0.87962 0.0
O128 O 0.786 0.70701 0.93457 0.0
H129 H 0.85871 0.70188 0.85502 0.0
H130 H 0.88017 0.71457 0.78984 0.0
C131 C 0.86772 0.72018 0.82223 0.0
H132 H 0.88412 0.7425 0.84241 0.0
H133 H 0.83076 0.69589 0.96829 0.0
O134 O 0.73958 0.72837 0.76467 0.0
C135 C 0.75735 0.69194 0.92228 0.0
Co136 Co 0.27037 0.03769 0.82664 0.0
Co137 Co 0.25803 0.08233 0.90071 0.0
C138 C 0.21258 0.01479 0.89706 0.0
O139 O 0.2298 0.01151 0.8617 0.0
O140 O 0.22002 0.04141 0.91653 0.0
C141 C 0.2592 0.00214 0.72615 0.0
O142 O 0.2414 0.01357 0.71255 0.0
C143 C 0.23017 0.11623 0.95528 0.0
C144 C 0.27191 0.15524 0.99314 0.0
C145 C 0.24008 0.14198 0.98972 0.0
N146 N 0.25513 0.11438 0.93946 0.0
N147 N 0.27997 0.13798 0.96181 0.0
C148 C 0.19756 0.09204 0.94245 0.0
H149 H 0.19636 0.08195 0.9003 0.0
H150 H 0.18184 0.10172 0.94434 0.0
H151 H 0.18976 0.07319 0.97405 0.0
C152 C 0.29056 0.08928 0.74635 0.0
N153 N 0.27501 0.07422 0.79309 0.0
N154 N 0.26824 0.09237 0.82266 0.0
C155 C 0.27871 0.11939 0.79463 0.0
C156 C 0.29331 0.1184 0.74533 0.0
C157 C 0.30808 0.07876 0.71 0.0
H158 H 0.31415 0.06351 0.73407 0.0
H159 H 0.29349 0.06573 0.67358 0.0
H160 H 0.3297 0.09873 0.69363 0.0
O161 O 0.3022 0.04915 0.8849 0.0
O162 O 0.29352 0.08126 0.93642 0.0
H163 H 0.29585 0.15874 0.84864 0.0
H164 H 0.28034 0.16313 0.78292 0.0
C165 C 0.27724 0.14663 0.81709 0.0
H166 H 0.25464 0.1387 0.83802 0.0
H167 H 0.30238 0.14171 0.95717 0.0
O168 O 0.27437 0.01025 0.77183 0.0
C169 C 0.30863 0.06737 0.92658 0.0
Co170 Co 0.96475 0.23553 0.82894 0.0
Co171 Co 0.91972 0.17703 0.90002 0.0
C172 C 0.98679 0.19793 0.8936 0.0
O173 O 0.99038 0.21968 0.86097 0.0
O174 O 0.96008 0.17823 0.91209 0.0
C175 C 0.00261 0.26114 0.73254 0.0
O176 O 0.99414 0.23207 0.72244 0.0
C177 C 0.88486 0.11484 0.95378 0.0
C178 C 0.84602 0.11812 0.99097 0.0
C179 C 0.8589 0.0992 0.98789 0.0
N180 N 0.88716 0.14187 0.93777 0.0
N181 N 0.86366 0.14342 0.95976 0.0
C182 C 0.90894 0.10615 0.94183 0.0
H183 H 0.92818 0.11815 0.97232 0.0
H184 H 0.91846 0.11393 0.89893 0.0
H185 H 0.8994 0.08083 0.94606 0.0
C186 C 0.91362 0.20642 0.74781 0.0
N187 N 0.92803 0.20481 0.79451 0.0
N188 N 0.90926 0.1796 0.82294 0.0
C189 C 0.88232 0.16406 0.79432 0.0
C190 C 0.88411 0.18072 0.746 0.0
C191 C 0.92704 0.23348 0.70825 0.0
H192 H 0.93831 0.25544 0.73239 0.0
H193 H 0.94477 0.23251 0.68172 0.0
H194 H 0.9095 0.23333 0.67958 0.0
O195 O 0.95408 0.25495 0.89033 0.0
O196 O 0.92316 0.21328 0.941 0.0
H197 H 0.8435 0.14444 0.84974 0.0
H198 H 0.83647 0.12443 0.7837 0.0
C199 C 0.85391 0.13657 0.81711 0.0
H200 H 0.86012 0.12026 0.83683 0.0
H201 H 0.86032 0.16236 0.95514 0.0
O202 O 0.99201 0.26796 0.77534 0.0
C203 C 0.93709 0.24249 0.93331 0.0
Co204 Co 0.89892 0.60486 0.51449 0.0
Co205 Co 0.84323 0.59421 0.43739 0.0
C206 C 0.86492 0.54828 0.44107 0.0
O207 O 0.88519 0.56494 0.47721 0.0
O208 O 0.84603 0.55612 0.42164 0.0
C209 C 0.9298 0.58659 0.59328 0.0
O210 O 0.90919 0.55869 0.57642 0.0
C211 C 0.78158 0.56645 0.38278 0.0
C212 C 0.78485 0.60795 0.34254 0.0
C213 C 0.76593 0.57618 0.34743 0.0
N214 N 0.80861 0.59145 0.3977 0.0
N215 N 0.81018 0.61615 0.37391 0.0
C216 C 0.77282 0.5339 0.3973 0.0
H217 H 0.78198 0.53318 0.43945 0.0
H218 H 0.74737 0.51839 0.3963 0.0
H219 H 0.78335 0.52541 0.36605 0.0
C220 C 0.86611 0.62207 0.59511 0.0
N221 N 0.86626 0.60823 0.54665 0.0
N222 N 0.84261 0.60373 0.5154 0.0
C223 C 0.82658 0.61475 0.54339 0.0
C224 C 0.84101 0.62689 0.59482 0.0
C225 C 0.89285 0.63565 0.63519 0.0
H226 H 0.91459 0.65017 0.61152 0.0
H227 H 0.89471 0.61662 0.65553 0.0
H228 H 0.89051 0.65006 0.6681 0.0
O229 O 0.91997 0.63743 0.45715 0.0
O230 O 0.88034 0.62957 0.40297 0.0
H231 H 0.80891 0.6356 0.48729 0.0
H232 H 0.78721 0.62143 0.5519 0.0
C233 C 0.80001 0.61669 0.51889 0.0
H234 H 0.78402 0.59465 0.4974 0.0
H235 H 0.82906 0.63854 0.37765 0.0
O236 O 0.92951 0.60998 0.57276 0.0
C237 C 0.90914 0.64431 0.41452 0.0
Co238 Co 0.39878 0.29789 0.51264 0.0
Co239 Co 0.41032 0.25265 0.43888 0.0
C240 C 0.45636 0.31991 0.44203 0.0
O241 O 0.43929 0.32351 0.4772 0.0
O242 O 0.44865 0.29318 0.42281 0.0
C243 C 0.4125 0.33411 0.61209 0.0
O244 O 0.43018 0.32224 0.62347 0.0
C245 C 0.43782 0.21842 0.38478 0.0
C246 C 0.39606 0.17943 0.34696 0.0
C247 C 0.42789 0.19263 0.3505 0.0
N248 N 0.41289 0.22036 0.40044 0.0
N249 N 0.38803 0.19676 0.37813 0.0
C250 C 0.47045 0.24261 0.39755 0.0
H251 H 0.47172 0.25249 0.43992 0.0
H252 H 0.48622 0.233 0.39511 0.0
H253 H 0.47813 0.2616 0.36629 0.0
C254 C 0.37823 0.24649 0.59335 0.0
N255 N 0.39375 0.26128 0.5464 0.0
N256 N 0.40014 0.24283 0.51694 0.0
C257 C 0.38941 0.21584 0.54519 0.0
C258 C 0.37502 0.21718 0.59454 0.0
C259 C 0.36136 0.25766 0.62994 0.0
H260 H 0.35538 0.27295 0.60577 0.0
H261 H 0.37642 0.2709 0.66574 0.0
H262 H 0.33977 0.23802 0.64715 0.0
O263 O 0.36682 0.28675 0.45451 0.0
O264 O 0.37511 0.2543 0.40319 0.0
H265 H 0.37185 0.17632 0.49151 0.0
H266 H 0.38729 0.1719 0.55727 0.0
C267 C 0.39052 0.18836 0.52297 0.0
H268 H 0.41306 0.19602 0.50199 0.0
H269 H 0.36565 0.19311 0.38265 0.0
O270 O 0.39605 0.32589 0.56786 0.0
C271 C 0.36025 0.26846 0.41286 0.0
Co272 Co 0.70701 0.10508 0.51433 0.0
Co273 Co 0.75189 0.16082 0.4369 0.0
C274 C 0.68401 0.13817 0.43962 0.0
O275 O 0.68052 0.11808 0.47615 0.0
O276 O 0.71072 0.15724 0.42021 0.0
C277 C 0.65894 0.07562 0.59499 0.0
O278 O 0.65245 0.09687 0.57857 0.0
C279 C 0.78559 0.2227 0.38236 0.0
C280 C 0.82335 0.21936 0.34056 0.0
C281 C 0.81064 0.23834 0.34625 0.0
N282 N 0.78358 0.19561 0.39689 0.0
N283 N 0.80645 0.19401 0.37218 0.0
C284 C 0.76203 0.23156 0.39789 0.0
H285 H 0.75077 0.22049 0.43829 0.0
H286 H 0.77272 0.25707 0.40111 0.0
H287 H 0.74403 0.22328 0.36468 0.0
C288 C 0.75638 0.13899 0.59552 0.0
N289 N 0.7426 0.13831 0.54653 0.0
N290 N 0.76174 0.16201 0.51521 0.0
C291 C 0.78856 0.17854 0.54373 0.0
C292 C 0.78608 0.1643 0.59546 0.0
C293 C 0.74259 0.11371 0.6386 0.0
H294 H 0.71988 0.11039 0.65223 0.0
H295 H 0.75771 0.11916 0.67603 0.0
H296 H 0.73864 0.09171 0.61953 0.0
O297 O 0.7192 0.08409 0.45805 0.0
O298 O 0.75101 0.12382 0.40386 0.0
H299 H 0.82606 0.19406 0.48572 0.0
H300 H 0.8359 0.21606 0.55021 0.0
C301 C 0.81756 0.20399 0.51815 0.0
H302 H 0.81254 0.22089 0.49727 0.0
H303 H 0.80989 0.17508 0.37542 0.0
O304 O 0.68175 0.07478 0.57316 0.0
C305 C 0.73722 0.09503 0.41582 0.0
Co306 Co 0.43766 0.06714 0.15634 0.0
Co307 Co 0.49294 0.07688 0.23355 0.0
C308 C 0.47116 0.12279 0.23195 0.0
O309 O 0.45112 0.10659 0.19514 0.0
O310 O 0.48987 0.11466 0.25112 0.0
C311 C 0.40556 0.08566 0.08036 0.0
O312 O 0.42471 0.11337 0.1001 0.0
C313 C 0.5544 0.10435 0.28852 0.0
C314 C 0.5512 0.06267 0.32782 0.0
C315 C 0.57004 0.09448 0.32356 0.0
N316 N 0.52745 0.07939 0.27317 0.0
N317 N 0.52591 0.05458 0.29639 0.0
C318 C 0.56304 0.13696 0.27479 0.0
H319 H 0.55231 0.14513 0.30625 0.0
H320 H 0.55397 0.13792 0.23267 0.0
H321 H 0.58846 0.15258 0.27611 0.0
C322 C 0.47067 0.05054 0.07516 0.0
N323 N 0.47053 0.06424 0.12381 0.0
N324 N 0.49403 0.06842 0.15515 0.0
C325 C 0.50996 0.05733 0.12702 0.0
C326 C 0.49559 0.04545 0.07545 0.0
C327 C 0.44393 0.03714 0.03508 0.0
H328 H 0.42223 0.02225 0.0586 0.0
H329 H 0.44184 0.05625 0.01563 0.0
H330 H 0.44643 0.02318 1.00149 0.0
O331 O 0.41641 0.03369 0.21209 0.0
O332 O 0.45582 0.04073 0.2661 0.0
H333 H 0.52693 0.03572 0.1829 0.0
H334 H 0.54898 0.05007 0.11868 0.0
C335 C 0.53618 0.05483 0.15168 0.0
H336 H 0.55229 0.07667 0.17363 0.0
H337 H 0.50709 0.0322 0.29223 0.0
O338 O 0.40725 0.0625 0.0981 0.0
C339 C 0.4271 0.02606 0.25392 0.0
Co340 Co 0.93664 0.37452 0.15573 0.0
Co341 Co 0.92735 0.42015 0.23282 0.0
C342 C 0.8807 0.35233 0.22965 0.0
O343 O 0.89652 0.34847 0.19207 0.0
O344 O 0.88947 0.3791 0.25001 0.0
C345 C 0.92979 0.32002 0.10579 0.0
O346 O 0.91628 0.30791 0.15402 0.0
C347 C 0.8995 0.45371 0.28798 0.0
C348 C 0.94084 0.49194 0.32841 0.0
C349 C 0.90907 0.4789 0.32374 0.0
N350 N 0.92457 0.45196 0.27265 0.0
N351 N 0.94918 0.47508 0.29655 0.0
C352 C 0.86702 0.42972 0.27371 0.0
H353 H 0.86634 0.41975 0.23167 0.0
H354 H 0.85141 0.43953 0.27457 0.0
H355 H 0.85865 0.41077 0.3052 0.0
C356 C 0.95349 0.42421 0.07426 0.0
N357 N 0.9401 0.41054 0.1232 0.0
N358 N 0.93614 0.43005 0.15446 0.0
C359 C 0.94719 0.45705 0.12599 0.0
C360 C 0.95883 0.45429 0.07433 0.0
C361 C 0.96417 0.40977 0.03109 0.0
H362 H 0.94459 0.38675 0.01925 0.0
H363 H 0.97304 0.42431 0.99274 0.0
H364 H 0.98265 0.40627 0.04937 0.0
O365 O 0.96958 0.38595 0.21236 0.0
O366 O 0.9633 0.41904 0.26567 0.0
H367 H 0.97018 0.49445 0.18384 0.0
H368 H 0.95821 0.50482 0.11975 0.0
C369 C 0.95163 0.48635 0.15173 0.0
H370 H 0.92998 0.48184 0.17298 0.0
H371 H 0.97159 0.47872 0.29265 0.0
O372 O 0.941 0.34885 0.09752 0.0
C373 C 0.9775 0.40447 0.25392 0.0
Co374 Co 0.62974 0.56686 0.15777 0.0
Co375 Co 0.58423 0.51101 0.23401 0.0
C376 C 0.65212 0.53307 0.23155 0.0
O377 O 0.65595 0.55337 0.19527 0.0
O378 O 0.62529 0.5142 0.2507 0.0
C379 C 0.67788 0.59654 0.07762 0.0
O380 O 0.68411 0.575 0.0933 0.0
C381 C 0.55097 0.44936 0.28907 0.0
C382 C 0.51255 0.45212 0.32942 0.0
C383 C 0.52583 0.43359 0.32493 0.0
N384 N 0.55248 0.47609 0.27354 0.0
N385 N 0.52923 0.47735 0.29741 0.0
C386 C 0.5752 0.44117 0.27504 0.0
H387 H 0.58513 0.45042 0.23291 0.0
H388 H 0.56566 0.41576 0.2762 0.0
H389 H 0.5941 0.452 0.30647 0.0
C390 C 0.58061 0.53418 0.0758 0.0
N391 N 0.59411 0.53411 0.12469 0.0
N392 N 0.57444 0.51056 0.15572 0.0
C393 C 0.54743 0.49501 0.12729 0.0
C394 C 0.55039 0.50976 0.07584 0.0
C395 C 0.59547 0.55919 0.0324 0.0
H396 H 0.61827 0.5621 0.02064 0.0
H397 H 0.58111 0.55367 0.99392 0.0
H398 H 0.59934 0.58139 0.05033 0.0
O399 O 0.61759 0.58767 0.21458 0.0
O400 O 0.58522 0.54777 0.26789 0.0
H401 H 0.5103 0.48093 0.18567 0.0
H402 H 0.49941 0.4588 0.12143 0.0
C403 C 0.51802 0.47034 0.15313 0.0
H404 H 0.52221 0.45285 0.17393 0.0
H405 H 0.52543 0.49603 0.29347 0.0
O406 O 0.65523 0.59752 0.09983 0.0
C407 C 0.59931 0.57661 0.25645 0.0
Co408 Co 0.56804 0.93986 0.84881 0.0
Co409 Co 0.51297 0.92914 0.76966 0.0
C410 C 0.53511 0.88362 0.77393 0.0
O411 O 0.55499 0.90028 0.81064 0.0
O412 O 0.51625 0.8913 0.75379 0.0
C413 C 0.59577 0.92022 0.9315 0.0
O414 O 0.5741 0.89262 0.91529 0.0
C415 C 0.45107 0.90327 0.71487 0.0
C416 C 0.45848 0.94448 0.66721 0.0
C417 C 0.43728 0.91347 0.67608 0.0
N418 N 0.47929 0.92722 0.7277 0.0
N419 N 0.48328 0.95179 0.69948 0.0
C420 C 0.43853 0.87101 0.73644 0.0
H421 H 0.45676 0.86845 0.75817 0.0
H422 H 0.41967 0.86573 0.76687 0.0
H423 H 0.4286 0.8542 0.7013 0.0
C424 C 0.53406 0.95649 0.92773 0.0
N425 N 0.53472 0.94269 0.87957 0.0
N426 N 0.51131 0.93809 0.8475 0.0
C427 C 0.49498 0.94906 0.87456 0.0
C428 C 0.5089 0.9612 0.92634 0.0
C429 C 0.56049 0.97027 0.9685 0.0
H430 H 0.58245 0.98444 0.94524 0.0
H431 H 0.56198 0.95131 0.99004 0.0
H432 H 0.55803 0.98505 1.00044 0.0
O433 O 0.58994 0.9732 0.79287 0.0
O434 O 0.55051 0.96498 0.7378 0.0
H435 H 0.47806 0.9695 0.81589 0.0
H436 H 0.45608 0.9567 0.88054 0.0
C437 C 0.4688 0.95116 0.84861 0.0
H438 H 0.45262 0.92887 0.82806 0.0
H439 H 0.5034 0.97342 0.70094 0.0
O440 O 0.59747 0.94413 0.90889 0.0
C441 C 0.57916 0.98012 0.75022 0.0
Co442 Co 0.06713 0.63338 0.84353 0.0
Co443 Co 0.07698 0.58741 0.7682 0.0
C444 C 0.12395 0.65477 0.77177 0.0
O445 O 0.10743 0.65859 0.80783 0.0
O446 O 0.11558 0.62803 0.75169 0.0
C447 C 0.084 0.67263 0.93883 0.0
O448 O 0.10484 0.66414 0.94524 0.0
C449 C 0.10338 0.55229 0.71283 0.0
C450 C 0.06113 0.51414 0.67456 0.0
C451 C 0.09287 0.52656 0.67803 0.0
N452 N 0.07885 0.5549 0.72877 0.0
N453 N 0.05372 0.53183 0.70608 0.0
C454 C 0.13619 0.57599 0.72558 0.0
H455 H 0.13773 0.58564 0.76827 0.0
H456 H 0.15169 0.56611 0.72234 0.0
H457 H 0.14405 0.59525 0.69486 0.0
C458 C 0.04715 0.58248 0.92459 0.0
N459 N 0.06214 0.59674 0.87695 0.0
N460 N 0.06699 0.5775 0.84654 0.0
C461 C 0.05535 0.5503 0.87457 0.0
C462 C 0.04211 0.55247 0.92475 0.0
C463 C 0.03517 0.59645 0.96633 0.0
H464 H 0.05496 0.61505 0.98959 0.0
H465 H 0.01945 0.57941 0.99772 0.0
H466 H 0.02306 0.60687 0.94405 0.0
O467 O 0.03476 0.6224 0.78603 0.0
O468 O 0.04179 0.5894 0.73387 0.0
H469 H 0.03347 0.51253 0.81718 0.0
H470 H 0.0459 0.50306 0.88155 0.0
C471 C 0.05203 0.52132 0.84935 0.0
H472 H 0.07396 0.52645 0.82847 0.0
H473 H 0.03155 0.52874 0.71066 0.0
O474 O 0.06448 0.66128 0.89905 0.0
C475 C 0.02742 0.60394 0.74447 0.0
Co476 Co 0.37493 0.43324 0.8511 0.0
Co477 Co 0.41589 0.48828 0.76921 0.0
C478 C 0.34828 0.45971 0.76692 0.0
O479 O 0.34747 0.4406 0.80309 0.0
O480 O 0.37392 0.48282 0.75152 0.0
C481 C 0.32435 0.40344 0.92665 0.0
O482 O 0.31642 0.42231 0.90321 0.0
C483 C 0.45117 0.55073 0.71525 0.0
C484 C 0.48356 0.54355 0.66284 0.0
C485 C 0.47439 0.56492 0.67503 0.0
N486 N 0.44678 0.5222 0.72577 0.0
N487 N 0.4665 0.51833 0.69463 0.0
C488 C 0.43218 0.5632 0.74038 0.0
H489 H 0.4253 0.57432 0.70734 0.0
H490 H 0.41139 0.54454 0.76162 0.0
H491 H 0.44632 0.58114 0.77193 0.0
C492 C 0.42252 0.47135 0.93021 0.0
N493 N 0.4081 0.46927 0.88137 0.0
N494 N 0.42679 0.49193 0.84767 0.0
C495 C 0.45423 0.50889 0.87422 0.0
C496 C 0.45251 0.4961 0.9273 0.0
C497 C 0.40922 0.44721 0.97542 0.0
H498 H 0.38575 0.44272 0.98656 0.0
H499 H 0.4238 0.45462 0.01381 0.0
H500 H 0.40709 0.42531 0.95953 0.0
O501 O 0.39141 0.4129 0.80303 0.0
O502 O 0.41507 0.45039 0.73937 0.0
H503 H 0.48878 0.52138 0.81077 0.0
H504 H 0.50288 0.54383 0.87462 0.0
C505 C 0.48302 0.53263 0.84523 0.0
H506 H 0.47885 0.55053 0.82619 0.0
H507 H 0.46776 0.49806 0.69391 0.0
O508 O 0.34913 0.40426 0.91117 0.0
C509 C 0.40597 0.42293 0.75682 0.0
Co510 Co 0.10145 0.39769 0.48644 0.0
Co511 Co 0.15497 0.40782 0.56863 0.0
C512 C 0.13479 0.45416 0.56272 0.0
O513 O 0.11443 0.43689 0.52709 0.0
O514 O 0.15427 0.44708 0.58197 0.0
C515 C 0.07382 0.41866 0.40545 0.0
O516 O 0.09441 0.44607 0.42441 0.0
C517 C 0.21673 0.42921 0.62187 0.0
C518 C 0.2055 0.38751 0.67166 0.0
C519 C 0.2295 0.41708 0.65941 0.0
N520 N 0.18687 0.4076 0.61286 0.0
N521 N 0.18043 0.38286 0.64298 0.0
C522 C 0.23255 0.45984 0.59255 0.0
H523 H 0.21867 0.45965 0.55592 0.0
H524 H 0.25596 0.46535 0.57841 0.0
H525 H 0.23501 0.47812 0.62215 0.0
C526 C 0.13567 0.3806 0.40949 0.0
N527 N 0.13471 0.39438 0.45745 0.0
N528 N 0.1572 0.39795 0.49107 0.0
C529 C 0.1733 0.38635 0.46508 0.0
C530 C 0.16015 0.37487 0.41246 0.0
C531 C 0.10988 0.36775 0.36739 0.0
H532 H 0.08749 0.35381 0.38954 0.0
H533 H 0.10925 0.38719 0.34593 0.0
H534 H 0.11232 0.35293 0.33551 0.0
O535 O 0.07826 0.36326 0.53939 0.0
O536 O 0.11584 0.37401 0.60104 0.0
H537 H 0.18882 0.36592 0.52654 0.0
H538 H 0.21082 0.37644 0.46172 0.0
C539 C 0.1987 0.38342 0.49241 0.0
H540 H 0.21562 0.40589 0.51145 0.0
H541 H 0.15886 0.36267 0.64385 0.0
O542 O 0.073 0.39462 0.42544 0.0
C543 C 0.08774 0.35794 0.58544 0.0
Co544 Co 0.60347 0.70531 0.49137 0.0
Co545 Co 0.59299 0.74991 0.57011 0.0
C546 C 0.54763 0.68186 0.56714 0.0
O547 O 0.56419 0.6787 0.53015 0.0
O548 O 0.55526 0.70847 0.58707 0.0
C549 C 0.5843 0.65693 0.41114 0.0
O550 O 0.55665 0.65034 0.42823 0.0
C551 C 0.56698 0.78609 0.62405 0.0
C552 C 0.60786 0.8196 0.67255 0.0
C553 C 0.57699 0.80998 0.66303 0.0
N554 N 0.5909 0.7817 0.61177 0.0
N555 N 0.61528 0.80211 0.64051 0.0
C556 C 0.53486 0.76646 0.60203 0.0
H557 H 0.53247 0.74581 0.57995 0.0
H558 H 0.52968 0.78025 0.57187 0.0
H559 H 0.51791 0.75932 0.63702 0.0
C560 C 0.61942 0.75538 0.4113 0.0
N561 N 0.60584 0.74118 0.45981 0.0
N562 N 0.6019 0.76042 0.49193 0.0
C563 C 0.61342 0.78785 0.46474 0.0
C564 C 0.62525 0.78565 0.41281 0.0
C565 C 0.62962 0.7411 0.36696 0.0
H566 H 0.6099 0.71816 0.35522 0.0
H567 H 0.63802 0.75575 0.32867 0.0
H568 H 0.6483 0.73753 0.38402 0.0
O569 O 0.63715 0.71743 0.5468 0.0
O570 O 0.62905 0.74876 0.60175 0.0
H571 H 0.63534 0.82311 0.52691 0.0
H572 H 0.627 0.83651 0.4623 0.0
C573 C 0.61832 0.81691 0.49236 0.0
H574 H 0.59622 0.81283 0.51103 0.0
H575 H 0.63684 0.80351 0.63956 0.0
O576 O 0.60806 0.67999 0.43217 0.0
C577 C 0.64427 0.73536 0.58913 0.0
Co578 Co 0.2973 0.90134 0.48674 0.0
Co579 Co 0.25422 0.84768 0.56947 0.0
C580 C 0.32172 0.87025 0.56408 0.0
O581 O 0.32446 0.88992 0.52723 0.0
O582 O 0.29531 0.85086 0.58406 0.0
C583 C 0.34536 0.92953 0.40567 0.0
O584 O 0.35199 0.90865 0.42383 0.0
C585 C 0.2187 0.78527 0.62236 0.0
C586 C 0.18853 0.79326 0.67951 0.0
C587 C 0.1967 0.77144 0.66468 0.0
N588 N 0.22344 0.81403 0.61327 0.0
N589 N 0.20501 0.8184 0.64721 0.0
C590 C 0.23645 0.77228 0.594 0.0
H591 H 0.25679 0.7907 0.57138 0.0
H592 H 0.2212 0.75456 0.56304 0.0
H593 H 0.2439 0.76081 0.62531 0.0
C594 C 0.24696 0.86588 0.40938 0.0
N595 N 0.26161 0.86718 0.45758 0.0
N596 N 0.24253 0.84494 0.49162 0.0
C597 C 0.21472 0.82895 0.4659 0.0
C598 C 0.21658 0.84197 0.41302 0.0
C599 C 0.26082 0.88965 0.36368 0.0
H600 H 0.26463 0.91221 0.37961 0.0
H601 H 0.28358 0.8926 0.35143 0.0
H602 H 0.24575 0.88286 0.32597 0.0
O603 O 0.28462 0.92345 0.53943 0.0
O604 O 0.25709 0.88593 0.6011 0.0
H605 H 0.18132 0.81714 0.53132 0.0
H606 H 0.16555 0.7957 0.46688 0.0
C607 C 0.18585 0.80576 0.49541 0.0
H608 H 0.18921 0.78697 0.51261 0.0
H609 H 0.20443 0.83899 0.64966 0.0
O610 O 0.32227 0.93036 0.42614 0.0
C611 C 0.26901 0.91395 0.58473 0.0
C612 C 0.30237 0.28171 0.33255 0.0
C613 C 0.28798 0.25512 0.29866 0.0
H614 H 0.3363 0.30657 0.39604 0.0
C615 C 0.29709 0.23274 0.30336 0.0
H616 H 0.29568 0.29925 0.3299 0.0
C617 C 0.32059 0.23713 0.34046 0.0
C618 C 0.33503 0.2637 0.3744 0.0
H619 H 0.28646 0.21207 0.27759 0.0
H620 H 0.32736 0.21962 0.34272 0.0
C621 C 0.3255 0.28582 0.37052 0.0
C622 C 0.7219 0.02291 0.33671 0.0
C623 C 0.74847 0.03428 0.30293 0.0
H624 H 0.69777 0.03318 0.39991 0.0
C625 C 0.77175 0.06544 0.30796 0.0
H626 H 0.70368 0.99892 0.33384 0.0
C627 C 0.76817 0.08512 0.34499 0.0
C628 C 0.74153 0.07384 0.37858 0.0
H629 H 0.79245 0.07483 0.28231 0.0
H630 H 0.78626 0.10919 0.34727 0.0
C631 C 0.71861 0.04245 0.37468 0.0
C632 C 0.93932 0.70571 0.30111 0.0
C633 C 0.97054 0.71367 0.29795 0.0
H634 H 0.89533 0.6773 0.34026 0.0
C635 C 0.98175 0.69956 0.33488 0.0
H636 H 0.93006 0.71621 0.2731 0.0
C637 C 0.96198 0.67765 0.37397 0.0
C638 C 0.93053 0.66904 0.37608 0.0
H639 H 0.00578 0.70545 0.33356 0.0
H640 H 0.97115 0.66688 0.40155 0.0
C641 C 0.91943 0.68339 0.33945 0.0
C642 C 0.68594 0.76759 0.65751 0.0
C643 C 0.67022 0.74033 0.62562 0.0
H644 H 0.72087 0.79287 0.71906 0.0
C645 C 0.67864 0.71746 0.63087 0.0
H646 H 0.68002 0.78567 0.65404 0.0
C647 C 0.70166 0.72134 0.6689 0.0
C648 C 0.71708 0.74846 0.70128 0.0
H649 H 0.66681 0.69618 0.6069 0.0
H650 H 0.70732 0.7031 0.67312 0.0
C651 C 0.70939 0.77176 0.69454 0.0
C652 C 0.26397 0.95525 0.71342 0.0
C653 C 0.26117 0.97948 0.68953 0.0
H654 H 0.26782 0.91498 0.6986 0.0
C655 C 0.26039 0.98182 0.63083 0.0
H656 H 0.26444 0.95292 0.75866 0.0
C657 C 0.26315 0.96059 0.59644 0.0
C658 C 0.26568 0.93619 0.62043 0.0
H659 H 0.25832 1.00041 0.6116 0.0
H660 H 0.26301 0.96304 0.5512 0.0
C661 C 0.26572 0.9335 0.67916 0.0
C662 C 0.02235 0.28104 0.63618 0.0
C663 C 0.02414 0.28576 0.69454 0.0
H664 H 0.04083 0.30086 0.55532 0.0
C665 C 0.04676 0.31427 0.71666 0.0
H666 H 0.00494 0.25922 0.61834 0.0
C667 C 0.06772 0.33757 0.681 0.0
C668 C 0.0657 0.33309 0.62257 0.0
H669 H 0.04858 0.31831 0.76161 0.0
H670 H 0.08523 0.35929 0.69903 0.0
C671 C 0.04269 0.30479 0.60029 0.0
C672 C 0.96981 0.61803 0.66534 0.0
C673 C 0.95401 0.59075 0.63353 0.0
H674 H 0.00522 0.64341 0.72629 0.0
C675 C 0.96201 0.56762 0.63948 0.0
H676 H 0.96397 0.63617 0.66168 0.0
C677 C 0.98588 0.57197 0.67558 0.0
C678 C 0.00178 0.59926 0.70732 0.0
H679 H 0.95028 0.5464 0.61532 0.0
H680 H 0.99182 0.55388 0.67877 0.0
C681 C 0.99329 0.62211 0.70241 0.0
C682 C 0.4082 0.4036 0.6616 0.0
C683 C 0.40991 0.40138 0.72019 0.0
H684 H 0.40693 0.38342 0.58155 0.0
C685 C 0.41334 0.37729 0.74311 0.0
H686 H 0.40528 0.42181 0.64291 0.0
C687 C 0.41499 0.35573 0.70786 0.0
C688 C 0.4122 0.35741 0.64944 0.0
H689 H 0.41467 0.37512 0.78821 0.0
H690 H 0.41755 0.33726 0.72631 0.0
C691 C 0.40888 0.38154 0.62658 0.0
C692 C 0.58891 0.02161 0.68103 0.0
C693 C 0.60024 0.00576 0.71311 0.0
H694 H 0.59885 0.05653 0.61915 0.0
C695 C 0.63139 0.01377 0.70752 0.0
H696 H 0.56501 0.01598 0.68471 0.0
C697 C 0.65062 0.03659 0.66913 0.0
C698 C 0.63915 0.05222 0.63676 0.0
H699 H 0.64065 0.0018 0.73162 0.0
H700 H 0.67442 0.042 0.66477 0.0
C701 C 0.60828 0.04487 0.64368 0.0
C702 C 0.36704 0.05469 0.00599 0.0
C703 C 0.38144 0.08132 0.03975 0.0
H704 H 0.33292 0.02959 0.94298 0.0
C705 C 0.37216 0.10358 0.03528 0.0
H706 H 0.37386 0.03723 0.00847 0.0
C707 C 0.34844 0.099 0.99854 0.0
C708 C 0.33399 0.07236 0.96477 0.0
H709 H 0.3828 0.12428 0.06097 0.0
H710 H 0.34153 0.1164 0.9964 0.0
C711 C 0.34371 0.05039 0.96841 0.0
C712 C 0.94759 0.31337 0.01113 0.0
C713 C 0.93134 0.30025 0.06127 0.0
H714 H 0.96212 0.30547 0.9313 0.0
C715 C 0.91635 0.26798 0.06835 0.0
H716 H 0.95931 0.33818 0.00436 0.0
C717 C 0.9178 0.24921 0.02638 0.0
C718 C 0.93439 0.26233 0.97649 0.0
H719 H 0.90349 0.25714 0.10636 0.0
H720 H 0.90614 0.22443 0.03339 0.0
C721 C 0.94915 0.29461 0.96921 0.0
C722 C 0.72835 0.6271 0.02844 0.0
C723 C 0.69758 0.61994 0.03587 0.0
H724 H 0.77148 0.65581 0.9869 0.0
C725 C 0.68611 0.63572 0.00395 0.0
H726 H 0.73777 0.61529 0.0526 0.0
C727 C 0.70526 0.65852 0.96549 0.0
C728 C 0.73632 0.66634 0.95942 0.0
H729 H 0.66237 0.63044 0.00871 0.0
H730 H 0.69602 0.67062 0.94174 0.0
C731 C 0.74765 0.65033 0.99102 0.0
C732 C 0.62551 0.89929 0.98068 0.0
C733 C 0.61894 0.92334 0.97332 0.0
H734 H 0.65375 0.8841 0.02169 0.0
C735 C 0.63527 0.95058 0.00506 0.0
H736 H 0.61332 0.87807 0.95663 0.0
C737 C 0.65802 0.9538 0.04317 0.0
C738 C 0.66528 0.93011 0.04912 0.0
H739 H 0.6305 0.96941 1.00036 0.0
H740 H 0.67054 0.97516 0.0667 0.0
C741 C 0.64871 0.90278 0.01774 0.0
C742 C 0.08779 0.69397 0.03521 0.0
C743 C 0.08313 0.69518 0.97729 0.0
H744 H 0.08822 0.71287 0.11653 0.0
C745 C 0.07718 0.71795 0.9561 0.0
H746 H 0.09232 0.67649 0.05231 0.0
C747 C 0.0759 0.73926 0.9923 0.0
C748 C 0.07952 0.73748 0.05046 0.0
H749 H 0.07369 0.71935 0.91147 0.0
H750 H 0.07103 0.75648 0.975 0.0
C751 C 0.08543 0.71466 0.07176 0.0
C752 C 0.29529 0.34354 0.04284 0.0
C753 C 0.26376 0.3346 0.04478 0.0
H754 H 0.33921 0.3722 0.00334 0.0
C755 C 0.25263 0.34927 0.00902 0.0
H756 H 0.3045 0.33256 0.06979 0.0
C757 C 0.27255 0.3722 0.97163 0.0
C758 C 0.30386 0.3805 0.96853 0.0
H759 H 0.22847 0.34296 0.00976 0.0
H760 H 0.26323 0.38288 0.94419 0.0
C761 C 0.31512 0.3661 0.00467 0.0
C762 C 0.01949 0.43571 0.32272 0.0
C763 C 0.00328 0.40872 0.29029 0.0
H764 H 0.05493 0.46021 0.38384 0.0
C765 C 0.01131 0.38549 0.29429 0.0
H766 H 0.0139 0.45406 0.32024 0.0
C767 C 0.03447 0.3888 0.33141 0.0
C768 C 0.05043 0.41567 0.36423 0.0
H769 H 0.99913 0.36441 0.26989 0.0
H770 H 0.03982 0.3703 0.33457 0.0
C771 C 0.04307 0.43929 0.3589 0.0
C772 C 0.56414 0.60599 0.36328 0.0
C773 C 0.5877 0.63693 0.36964 0.0
H774 H 0.54955 0.56253 0.32281 0.0
C775 C 0.61469 0.64828 0.33705 0.0
H776 H 0.54312 0.59664 0.38802 0.0
C777 C 0.61813 0.6289 0.29893 0.0
C778 C 0.59492 0.59769 0.29377 0.0
H779 H 0.63312 0.67212 0.34099 0.0
H780 H 0.63928 0.63812 0.27463 0.0
C781 C 0.56786 0.58645 0.32614 0.0
C782 C 0.35464 0.9688 0.33155 0.0
C783 C 0.36568 0.95298 0.36445 0.0
H784 H 0.36541 0.00407 0.26982 0.0
C785 C 0.39669 0.9605 0.35911 0.0
H786 H 0.33076 0.96331 0.33473 0.0
C787 C 0.4166 0.98413 0.32281 0.0
C788 C 0.40568 1.00019 0.29029 0.0
H789 H 0.40581 0.94873 0.38414 0.0
H790 H 0.44057 0.98988 0.32032 0.0
C791 C 0.3744 0.99199 0.2943 0.0
C792 C 0.16397 0.32721 0.39515 0.0
C793 C 0.16526 0.35424 0.37443 0.0
H794 H 0.16526 0.28583 0.37533 0.0
C795 C 0.16892 0.36016 0.31637 0.0
H796 H 0.16058 0.3218 0.4396 0.0
C797 C 0.17108 0.33939 0.27964 0.0
C798 C 0.16969 0.31233 0.30033 0.0
H799 H 0.16987 0.38078 0.29939 0.0
H800 H 0.17432 0.34472 0.23515 0.0
C801 C 0.16624 0.30648 0.35842 0.0
C802 C 0.63747 0.83014 0.34813 0.0
C803 C 0.64687 0.81132 0.3755 0.0
H804 H 0.6498 0.86764 0.29038 0.0
C805 C 0.67694 0.81653 0.36591 0.0
H806 H 0.61437 0.82644 0.35454 0.0
C807 C 0.69715 0.83995 0.32922 0.0
C808 C 0.68772 0.85872 0.30174 0.0
H809 H 0.68484 0.80247 0.38695 0.0
H810 H 0.72022 0.84359 0.3227 0.0
C811 C 0.6577 0.85359 0.31148 0.0
C812 C 0.16232 0.85994 0.33076 0.0
C813 C 0.14393 0.83199 0.30237 0.0
H814 H 0.1995 0.88474 0.38909 0.0
C815 C 0.14922 0.80709 0.31133 0.0
H816 H 0.15854 0.87934 0.32483 0.0
C817 C 0.17234 0.81003 0.34832 0.0
C818 C 0.1908 0.83801 0.3765 0.0
H819 H 0.1355 0.78534 0.28948 0.0
H820 H 0.17616 0.79065 0.3542 0.0
C821 C 0.18555 0.86292 0.36757 0.0
C822 C 0.83151 0.66296 0.72811 0.0
C823 C 0.83195 0.68954 0.70721 0.0
H824 H 0.83347 0.62193 0.70846 0.0
C825 C 0.83462 0.69498 0.64899 0.0
H826 H 0.82887 0.65792 0.77273 0.0
C827 C 0.83682 0.67423 0.61229 0.0
C828 C 0.83638 0.64765 0.63319 0.0
H829 H 0.83487 0.71526 0.63192 0.0
H830 H 0.83942 0.67925 0.56766 0.0
C831 C 0.83373 0.64222 0.69141 0.0
C832 C 0.3111 0.13955 0.64838 0.0
C833 C 0.31344 0.14422 0.70683 0.0
H834 H 0.32858 0.15896 0.56699 0.0
C835 C 0.33661 0.17276 0.7281 0.0
H836 H 0.29347 0.11772 0.63094 0.0
C837 C 0.35697 0.19619 0.69158 0.0
C838 C 0.35467 0.1915 0.63313 0.0
H839 H 0.33947 0.17676 0.77299 0.0
H840 H 0.37464 0.218 0.70902 0.0
C841 C 0.33144 0.16298 0.61187 0.0
C842 C 0.82021 0.14611 0.63715 0.0
C843 C 0.81151 0.16887 0.63344 0.0
H844 H 0.85018 0.13211 0.67594 0.0
C845 C 0.82633 0.1952 0.6676 0.0
H846 H 0.80896 0.12555 0.61115 0.0
C847 C 0.84947 0.19868 0.70511 0.0
C848 C 0.8585 0.17613 0.70832 0.0
H849 H 0.81974 0.21284 0.66575 0.0
H850 H 0.86046 0.21908 0.73153 0.0
C851 C 0.84356 0.14973 0.67426 0.0
C852 C 0.49885 0.99754 0.05863 0.0
C853 C 0.49983 0.02431 0.03737 0.0
H854 H 0.50036 0.95622 0.03967 0.0
C855 C 0.50275 0.02967 0.97913 0.0
H856 H 0.49601 0.99258 0.10327 0.0
C857 C 0.50482 0.0087 0.94279 0.0
C858 C 0.50396 0.982 0.96409 0.0
H859 H 0.50341 0.05009 0.9618 0.0
H860 H 0.50774 0.01369 0.89816 0.0
C861 C 0.50092 0.97659 0.02231 0.0
C862 C 0.0311 0.51005 0.99353 0.0
C863 C 0.02063 0.52679 0.96209 0.0
H864 H 0.01961 0.47408 0.05442 0.0
C865 C 0.9896 0.51943 0.96748 0.0
H866 H 0.05491 0.51535 0.99014 0.0
C867 C 0.96956 0.49618 0.00458 0.0
C868 C 0.9801 0.47958 0.03623 0.0
H869 H 0.98091 0.53182 0.9431 0.0
H870 H 0.94578 0.49093 0.00815 0.0
C871 C 0.01099 0.48662 0.0303 0.0
C872 C 0.48415 0.47556 0.97157 0.0
C873 C 0.4785 0.50028 0.96352 0.0
H874 H 0.51126 0.45916 0.01389 0.0
C875 C 0.49671 0.52812 0.99232 0.0
H876 H 0.4705 0.45389 0.94944 0.0
C877 C 0.51989 0.53104 0.02923 0.0
C878 C 0.52533 0.50621 0.03766 0.0
H879 H 0.49264 0.54737 0.98702 0.0
H880 H 0.53345 0.55265 0.05156 0.0
C881 C 0.50729 0.47847 0.00846 0.0
C882 C 0.2171 0.17554 0.10877 0.0
C883 C 0.20031 0.18728 0.08087 0.0
H884 H 0.24269 0.1518 0.10132 0.0
C885 C 0.19186 0.17894 0.02435 0.0
H886 H 0.22372 0.1812 0.15238 0.0
C887 C 0.20272 0.1618 0.99504 0.0
C888 C 0.22198 0.15275 0.02201 0.0
H889 H 0.17913 0.18779 1.00155 0.0
H890 H 0.1981 0.1578 0.95043 0.0
C891 C 0.22801 0.1587 0.07956 0.0
C892 C 0.84162 0.07072 0.07811 0.0
C893 C 0.84778 0.07036 0.02071 0.0
H894 H 0.81885 0.04432 0.15123 0.0
C895 C 0.8387 0.04187 0.99437 0.0
H896 H 0.84852 0.09243 0.09941 0.0
C897 C 0.8214 0.01399 0.02413 0.0
C898 C 0.81293 0.01438 0.0805 0.0
H899 H 0.84288 0.04103 0.94989 0.0
H900 H 0.8126 0.99228 1.0018 0.0
C901 C 0.82462 0.0431 0.10777 0.0
C902 C 0.97101 0.75542 0.04971 0.0
C903 C 0.98921 0.78647 0.06603 0.0
H904 H 0.9297 0.7209 0.01115 0.0
C905 C 0.97938 0.80757 0.05211 0.0
H906 H 0.97829 0.73871 0.05875 0.0
C907 C 0.9507 0.7971 0.02504 0.0
C908 C 0.93202 0.76557 0.01062 0.0
H909 H 0.9931 0.83167 0.06423 0.0
H910 H 0.94278 0.81339 0.01779 0.0
C911 C 0.94305 0.7452 0.02223 0.0
C912 C 0.77161 0.84206 0.92523 0.0
C913 C 0.77659 0.84768 0.98312 0.0
H914 H 0.77727 0.8201 0.85293 0.0
C915 C 0.79555 0.83861 0.0113 0.0
H916 H 0.75737 0.8491 0.90233 0.0
C917 C 0.80704 0.82177 0.9828 0.0
C918 C 0.79964 0.81381 0.92585 0.0
H919 H 0.79946 0.84233 0.05607 0.0
H920 H 0.81946 0.81287 0.00643 0.0
C921 C 0.78314 0.82553 0.89687 0.0
C922 C 0.17825 0.98581 0.97897 0.0
C923 C 0.18712 0.98621 0.92262 0.0
H924 H 0.15731 0.95798 0.05254 0.0
C925 C 0.17631 0.95784 0.89451 0.0
H926 H 0.18647 0.00726 1.00197 0.0
C927 C 0.1598 0.92986 0.92339 0.0
C928 C 0.15332 0.92949 0.98085 0.0
H929 H 0.18254 0.95727 0.85106 0.0
H930 H 0.1536 0.90848 0.90146 0.0
C931 C 0.16153 0.95759 0.00797 0.0
C932 C 0.04314 0.202 0.00373 0.0
C933 C 0.07135 0.2228 0.97781 0.0
H934 H 0.99361 0.17686 0.99648 0.0
C935 C 0.07141 0.23 0.92078 0.0
H936 H 0.04244 0.1965 0.04795 0.0
C937 C 0.04368 0.21873 0.89133 0.0
C938 C 0.01515 0.20034 0.91848 0.0
H939 H 0.09289 0.24587 0.89978 0.0
H940 H 0.04452 0.22644 0.84842 0.0
C941 C 0.01518 0.19073 0.97417 0.0
C942 C 0.85975 0.51472 0.35818 0.0
C943 C 0.8679 0.52293 0.41483 0.0
H944 H 0.86677 0.49425 0.28415 0.0
C945 C 0.88498 0.51154 0.4428 0.0
H946 H 0.84686 0.52336 0.33531 0.0
C947 C 0.8964 0.49515 0.41358 0.0
C948 C 0.89064 0.48934 0.35592 0.0
H949 H 0.89145 0.51719 0.48649 0.0
H950 H 0.91124 0.4885 0.43544 0.0
C951 C 0.87115 0.49807 0.32884 0.0
C952 C 0.50942 0.40461 0.41487 0.0
C953 C 0.51556 0.40474 0.35731 0.0
H954 H 0.48698 0.37748 0.48762 0.0
C955 C 0.5072 0.37654 0.33043 0.0
H956 H 0.51578 0.42608 0.43659 0.0
C957 C 0.49055 0.34843 0.35978 0.0
C958 C 0.48194 0.34828 0.41621 0.0
H959 H 0.51126 0.37601 0.28583 0.0
H960 H 0.48215 0.3269 0.33697 0.0
C961 C 0.49301 0.37675 0.4441 0.0
C962 C 0.62724 0.13217 0.3281 0.0
C963 C 0.59908 0.11265 0.35542 0.0
H964 H 0.67685 0.15638 0.334 0.0
C965 C 0.5993 0.1066 0.41292 0.0
H966 H 0.62766 0.13677 0.2835 0.0
C967 C 0.62718 0.11784 0.44176 0.0
C968 C 0.65559 0.13503 0.41354 0.0
H969 H 0.57786 0.09172 0.43496 0.0
H970 H 0.62646 0.11119 0.48535 0.0
C971 C 0.65538 0.14339 0.35705 0.0
C972 C 0.45138 0.15977 0.23102 0.0
C973 C 0.46826 0.14806 0.25875 0.0
H974 H 0.42549 0.18317 0.23881 0.0
C975 C 0.47648 0.15611 0.31543 0.0
H976 H 0.44492 0.15433 0.1873 0.0
C977 C 0.46536 0.17294 0.345 0.0
C978 C 0.44604 0.18195 0.31813 0.0
H979 H 0.48927 0.14728 0.3381 0.0
H980 H 0.46986 0.17676 0.38967 0.0
C981 C 0.44019 0.17628 0.26049 0.0
C982 C 0.8306 0.2957 0.34219 0.0
C983 C 0.82125 0.26748 0.31457 0.0
H984 H 0.85655 0.34535 0.33631 0.0
C985 C 0.82669 0.2677 0.2567 0.0
H986 H 0.82709 0.29613 0.38704 0.0
C987 C 0.84328 0.29563 0.22771 0.0
C988 C 0.85526 0.32406 0.25612 0.0
H989 H 0.81959 0.24623 0.23443 0.0
H990 H 0.84864 0.29489 0.18378 0.0
C991 C 0.84746 0.32387 0.31309 0.0
C992 C 0.6805 0.52773 0.31442 0.0
C993 C 0.68034 0.53577 0.2577 0.0
H994 H 0.7082 0.53455 0.38808 0.0
C995 C 0.70875 0.55241 0.22926 0.0
H996 H 0.65902 0.51517 0.33761 0.0
C997 C 0.73663 0.56353 0.25807 0.0
C998 C 0.73684 0.5579 0.31577 0.0
H999 H 0.7095 0.55878 0.1855 0.0
H1000 H 0.7581 0.57805 0.23584 0.0
C1001 C 0.70863 0.53883 0.34335 0.0
C1002 C 0.54037 0.83104 0.66506 0.0
C1003 C 0.55957 0.82232 0.69334 0.0
H1004 H 0.51691 0.85726 0.66893 0.0
C1005 C 0.5656 0.82925 0.75069 0.0
H1006 H 0.53561 0.82626 0.62068 0.0
C1007 C 0.55484 0.84667 0.77824 0.0
C1008 C 0.53806 0.85797 0.74897 0.0
H1009 H 0.58002 0.82248 0.77371 0.0
H1010 H 0.56145 0.85299 0.8217 0.0
C1011 C 0.52965 0.84878 0.69275 0.0
C1012 C 0.17987 0.73938 0.75134 0.0
C1013 C 0.18484 0.7411 0.69306 0.0
H1014 H 0.15779 0.71047 0.82242 0.0
C1015 C 0.17469 0.71349 0.66265 0.0
H1016 H 0.18778 0.76027 0.77599 0.0
C1017 C 0.15736 0.68464 0.68949 0.0
C1018 C 0.14999 0.68315 0.74697 0.0
H1019 H 0.17794 0.71411 0.61759 0.0
H1020 H 0.14755 0.66375 0.66434 0.0
C1021 C 0.16284 0.7108 0.77801 0.0
C1022 C 0.27003 0.40888 0.70259 0.0
C1023 C 0.26138 0.42995 0.68251 0.0
H1024 H 0.3036 0.40181 0.7444 0.0
C1025 C 0.28253 0.46195 0.68851 0.0
H1026 H 0.25482 0.38411 0.69831 0.0
C1027 C 0.31141 0.47232 0.71477 0.0
C1028 C 0.3191 0.45081 0.73654 0.0
H1029 H 0.27661 0.47899 0.67486 0.0
H1030 H 0.32718 0.49693 0.71965 0.0
C1031 C 0.29818 0.41908 0.72935 0.0
C1032 C 0.10312 0.50742 0.58899 0.0
C1033 C 0.11029 0.51485 0.64591 0.0
H1034 H 0.10634 0.48346 0.51737 0.0
C1035 C 0.13026 0.50664 0.67269 0.0
H1036 H 0.08785 0.51358 0.56733 0.0
C1037 C 0.14097 0.48921 0.64391 0.0
C1038 C 0.13163 0.47962 0.58814 0.0
H1039 H 0.13567 0.51159 0.71688 0.0
H1040 H 0.15444 0.48121 0.6667 0.0
C1041 C 0.11379 0.49019 0.56036 0.0
C1042 C 0.49282 0.59679 0.58834 0.0
C1043 C 0.48665 0.59519 0.64616 0.0
H1044 H 0.51579 0.6255 0.51762 0.0
C1045 C 0.49604 0.62286 0.67594 0.0
H1046 H 0.48556 0.57585 0.56417 0.0
C1047 C 0.51367 0.65168 0.64905 0.0
C1048 C 0.52206 0.65309 0.59212 0.0
H1049 H 0.49184 0.62231 0.72068 0.0
H1050 H 0.5227 0.67265 0.67382 0.0
C1051 C 0.51011 0.62531 0.56162 0.0
C1052 C 0.35132 0.86514 0.64526 0.0
C1053 C 0.35055 0.87394 0.58927 0.0
H1054 H 0.37967 0.871 0.71741 0.0
C1055 C 0.37867 0.89158 0.5605 0.0
H1056 H 0.33005 0.85174 0.6687 0.0
C1057 C 0.40681 0.90265 0.58831 0.0
C1058 C 0.40763 0.89609 0.64543 0.0
H1059 H 0.37899 0.89852 0.51723 0.0
H1060 H 0.42799 0.91763 0.56566 0.0
C1061 C 0.37973 0.87617 0.6732 0.0
loop_
_geom_bond_atom_site_label_1
_geom_bond_atom_site_label_2
_geom_bond_distance
_geom_bond_site_symmetry_2
_ccdc_geom_bond_type
Co0 O3 1.970 . S
Co0 N17 1.989 . S
Co0 O25 1.967 . S
Co0 O32 1.920 . S
Co1 O4 1.966 . S
Co1 N10 2.022 . S
Co1 N18 1.993 . S
Co1 O26 1.941 . S
C2 O3 1.258 . S
C2 O4 1.263 . S
O3 Co0 1.970 . S
O3 C2 1.258 . S
O4 Co1 1.966 . S
O4 C2 1.263 . S
C5 O6 1.235 . S
C5 O32 1.289 . S
O6 C5 1.235 . S
C7 C9 1.400 . S
C7 N10 1.351 . S
C7 C12 1.501 . S
C8 C9 1.387 . S
C8 N11 1.341 . S
C9 C7 1.400 . S
C9 C8 1.387 . S
N10 Co1 2.022 . S
N10 C7 1.351 . S
N10 N11 1.365 . S
N11 C8 1.341 . S
N11 N10 1.365 . S
N11 H31 0.862 . S
C12 C7 1.501 . S
C12 H13 0.961 . S
C12 H14 0.961 . S
C12 H15 0.960 1_554 S
H13 C12 0.961 . S
H14 C12 0.961 . S
H15 C12 0.960 1_556 S
C16 N17 1.342 . S
C16 C20 1.401 . S
C16 C21 1.499 . S
N17 Co0 1.989 . S
N17 C16 1.342 . S
N17 N18 1.388 . S
N18 Co1 1.993 . S
N18 N17 1.388 . S
N18 C19 1.346 . S
C19 N18 1.346 . S
C19 C20 1.396 . S
C19 C29 1.510 . S
C20 C16 1.401 . S
C20 C19 1.396 . S
C21 C16 1.499 . S
C21 H22 0.959 . S
C21 H23 0.960 . S
C21 H24 0.961 . S
H22 C21 0.959 . S
H23 C21 0.960 . S
H24 C21 0.961 . S
O25 Co0 1.967 . S
O25 C33 1.258 . S
O26 Co1 1.941 . S
O26 C33 1.266 . S
H27 C29 0.959 . S
H28 C29 0.961 . S
C29 C19 1.510 . S
C29 H27 0.959 . S
C29 H28 0.961 . S
C29 H30 0.960 . S
H30 C29 0.960 . S
H31 N11 0.862 . S
O32 Co0 1.920 . S
O32 C5 1.289 . S
C33 O25 1.258 . S
C33 O26 1.266 . S
Co34 O37 1.970 . S
Co34 N51 1.989 . S
Co34 O59 1.967 . S
Co34 O66 1.920 . S
Co35 O38 1.966 . S
Co35 N44 2.022 . S
Co35 N52 1.993 . S
Co35 O60 1.941 . S
C36 O37 1.258 . S
C36 O38 1.263 . S
O37 Co34 1.970 . S
O37 C36 1.258 . S
O38 Co35 1.966 . S
O38 C36 1.263 . S
C39 O40 1.235 . S
C39 O66 1.289 1_545 S
O40 C39 1.235 . S
C41 C43 1.400 . S
C41 N44 1.351 . S
C41 C46 1.501 . S
C42 C43 1.387 . S
C42 N45 1.341 . S
C43 C41 1.400 . S
C43 C42 1.387 . S
N44 Co35 2.022 . S
N44 C41 1.351 . S
N44 N45 1.365 . S
N45 C42 1.341 . S
N45 N44 1.365 . S
N45 H65 0.862 . S
C46 C41 1.501 . S
C46 H47 0.961 . S
C46 H48 0.961 . S
C46 H49 0.960 1_554 S
H47 C46 0.961 . S
H48 C46 0.961 . S
H49 C46 0.960 1_556 S
C50 N51 1.342 . S
C50 C54 1.401 . S
C50 C55 1.499 . S
N51 Co34 1.989 . S
N51 C50 1.342 . S
N51 N52 1.388 . S
N52 Co35 1.993 . S
N52 N51 1.388 . S
N52 C53 1.346 . S
C53 N52 1.346 . S
C53 C54 1.396 . S
C53 C63 1.510 . S
C54 C50 1.401 . S
C54 C53 1.396 . S
C55 C50 1.499 . S
C55 H56 0.959 . S
C55 H57 0.960 . S
C55 H58 0.961 . S
H56 C55 0.959 . S
H57 C55 0.960 . S
H58 C55 0.961 . S
O59 Co34 1.967 . S
O59 C67 1.258 . S
O60 Co35 1.941 . S
O60 C67 1.266 . S
H61 C63 0.959 . S
H62 C63 0.961 . S
C63 C53 1.510 . S
C63 H61 0.959 . S
C63 H62 0.961 . S
C63 H64 0.960 . S
H64 C63 0.960 . S
H65 N45 0.862 . S
O66 Co34 1.920 . S
O66 C39 1.289 1_565 S
C67 O59 1.258 . S
C67 O60 1.266 . S
Co68 O71 1.970 . S
Co68 N85 1.989 . S
Co68 O93 1.967 . S
Co68 O100 1.920 . S
Co69 O72 1.966 . S
Co69 N78 2.022 . S
Co69 N86 1.993 . S
Co69 O94 1.941 . S
C70 O71 1.258 . S
C70 O72 1.263 . S
O71 Co68 1.970 . S
O71 C70 1.258 . S
O72 Co69 1.966 . S
O72 C70 1.263 . S
C73 O74 1.235 . S
C73 O100 1.289 1_655 S
O74 C73 1.235 . S
C75 C77 1.400 . S
C75 N78 1.351 . S
C75 C80 1.501 . S
C76 C77 1.387 . S
C76 N79 1.341 . S
C77 C75 1.400 . S
C77 C76 1.387 . S
N78 Co69 2.022 . S
N78 C75 1.351 . S
N78 N79 1.365 . S
N79 C76 1.341 . S
N79 N78 1.365 . S
N79 H99 0.862 . S
C80 C75 1.501 . S
C80 H81 0.961 . S
C80 H82 0.961 . S
C80 H83 0.960 1_554 S
H81 C80 0.961 . S
H82 C80 0.961 . S
H83 C80 0.960 1_556 S
C84 N85 1.342 . S
C84 C88 1.401 . S
C84 C89 1.499 . S
N85 Co68 1.989 . S
N85 C84 1.342 . S
N85 N86 1.388 . S
N86 Co69 1.993 . S
N86 N85 1.388 . S
N86 C87 1.346 . S
C87 N86 1.346 . S
C87 C88 1.396 . S
C87 C97 1.510 . S
C88 C84 1.401 . S
C88 C87 1.396 . S
C89 C84 1.499 . S
C89 H90 0.959 . S
C89 H91 0.960 . S
C89 H92 0.961 . S
H90 C89 0.959 . S
H91 C89 0.960 . S
H92 C89 0.961 . S
O93 Co68 1.967 . S
O93 C101 1.258 . S
O94 Co69 1.941 . S
O94 C101 1.266 . S
H95 C97 0.959 . S
H96 C97 0.961 . S
C97 C87 1.510 . S
C97 H95 0.959 . S
C97 H96 0.961 . S
C97 H98 0.960 . S
H98 C97 0.960 . S
H99 N79 0.862 . S
O100 Co68 1.920 . S
O100 C73 1.289 1_455 S
C101 O93 1.258 . S
C101 O94 1.266 . S
Co102 O105 1.970 . S
Co102 N119 1.989 . S
Co102 O127 1.967 . S
Co102 O134 1.920 . S
Co103 O106 1.966 . S
Co103 N112 2.022 . S
Co103 N120 1.993 . S
Co103 O128 1.941 . S
C104 O105 1.258 . S
C104 O106 1.263 . S
O105 Co102 1.970 . S
O105 C104 1.258 . S
O106 Co103 1.966 . S
O106 C104 1.263 . S
C107 O108 1.235 . S
C107 O134 1.289 . S
O108 C107 1.235 . S
C109 C111 1.400 . S
C109 N112 1.351 . S
C109 C114 1.501 . S
C110 C111 1.387 . S
C110 N113 1.341 . S
C111 C109 1.400 . S
C111 C110 1.387 . S
N112 Co103 2.022 . S
N112 C109 1.351 . S
N112 N113 1.365 . S
N113 C110 1.341 . S
N113 N112 1.365 . S
N113 H133 0.862 . S
C114 C109 1.501 . S
C114 H115 0.961 . S
C114 H116 0.961 . S
C114 H117 0.960 1_556 S
H115 C114 0.961 . S
H116 C114 0.961 . S
H117 C114 0.960 1_554 S
C118 N119 1.342 . S
C118 C122 1.401 . S
C118 C123 1.499 . S
N119 Co102 1.989 . S
N119 C118 1.342 . S
N119 N120 1.388 . S
N120 Co103 1.993 . S
N120 N119 1.388 . S
N120 C121 1.346 . S
C121 N120 1.346 . S
C121 C122 1.396 . S
C121 C131 1.510 . S
C122 C118 1.401 . S
C122 C121 1.396 . S
C123 C118 1.499 . S
C123 H124 0.959 . S
C123 H125 0.960 . S
C123 H126 0.961 . S
H124 C123 0.959 . S
H125 C123 0.960 . S
H126 C123 0.961 . S
O127 Co102 1.967 . S
O127 C135 1.258 . S
O128 Co103 1.941 . S
O128 C135 1.266 . S
H129 C131 0.959 . S
H130 C131 0.961 . S
C131 C121 1.510 . S
C131 H129 0.959 . S
C131 H130 0.961 . S
C131 H132 0.960 . S
H132 C131 0.960 . S
H133 N113 0.862 . S
O134 Co102 1.920 . S
O134 C107 1.289 . S
C135 O127 1.258 . S
C135 O128 1.266 . S
Co136 O139 1.970 . S
Co136 N153 1.989 . S
Co136 O161 1.967 . S
Co136 O168 1.920 . S
Co137 O140 1.966 . S
Co137 N146 2.022 . S
Co137 N154 1.993 . S
Co137 O162 1.941 . S
C138 O139 1.258 . S
C138 O140 1.263 . S
O139 Co136 1.970 . S
O139 C138 1.258 . S
O140 Co137 1.966 . S
O140 C138 1.263 . S
C141 O142 1.235 . S
C141 O168 1.289 1_565 S
O142 C141 1.235 . S
C143 C145 1.400 . S
C143 N146 1.351 . S
C143 C148 1.501 . S
C144 C145 1.387 . S
C144 N147 1.341 . S
C145 C143 1.400 . S
C145 C144 1.387 . S
N146 Co137 2.022 . S
N146 C143 1.351 . S
N146 N147 1.365 . S
N147 C144 1.341 . S
N147 N146 1.365 . S
N147 H167 0.862 . S
C148 C143 1.501 . S
C148 H149 0.961 . S
C148 H150 0.961 . S
C148 H151 0.960 1_556 S
H149 C148 0.961 . S
H150 C148 0.961 . S
H151 C148 0.960 1_554 S
C152 N153 1.342 . S
C152 C156 1.401 . S
C152 C157 1.499 . S
N153 Co136 1.989 . S
N153 C152 1.342 . S
N153 N154 1.388 . S
N154 Co137 1.993 . S
N154 N153 1.388 . S
N154 C155 1.346 . S
C155 N154 1.346 . S
C155 C156 1.396 . S
C155 C165 1.510 . S
C156 C152 1.401 . S
C156 C155 1.396 . S
C157 C152 1.499 . S
C157 H158 0.959 . S
C157 H159 0.960 . S
C157 H160 0.961 . S
H158 C157 0.959 . S
H159 C157 0.960 . S
H160 C157 0.961 . S
O161 Co136 1.967 . S
O161 C169 1.258 . S
O162 Co137 1.941 . S
O162 C169 1.266 . S
H163 C165 0.959 . S
H164 C165 0.961 . S
C165 C155 1.510 . S
C165 H163 0.959 . S
C165 H164 0.961 . S
C165 H166 0.960 . S
H166 C165 0.960 . S
H167 N147 0.862 . S
O168 Co136 1.920 . S
O168 C141 1.289 1_545 S
C169 O161 1.258 . S
C169 O162 1.266 . S
Co170 O173 1.970 . S
Co170 N187 1.989 . S
Co170 O195 1.967 . S
Co170 O202 1.920 . S
Co171 O174 1.966 . S
Co171 N180 2.022 . S
Co171 N188 1.993 . S
Co171 O196 1.941 . S
C172 O173 1.258 . S
C172 O174 1.263 . S
O173 Co170 1.970 . S
O173 C172 1.258 . S
O174 Co171 1.966 . S
O174 C172 1.263 . S
C175 O176 1.235 . S
C175 O202 1.289 1_455 S
O176 C175 1.235 . S
C177 C179 1.400 . S
C177 N180 1.351 . S
C177 C182 1.501 . S
C178 C179 1.387 . S
C178 N181 1.341 . S
C179 C177 1.400 . S
C179 C178 1.387 . S
N180 Co171 2.022 . S
N180 C177 1.351 . S
N180 N181 1.365 . S
N181 C178 1.341 . S
N181 N180 1.365 . S
N181 H201 0.862 . S
C182 C177 1.501 . S
C182 H183 0.961 . S
C182 H184 0.961 . S
C182 H185 0.960 1_556 S
H183 C182 0.961 . S
H184 C182 0.961 . S
H185 C182 0.960 1_554 S
C186 N187 1.342 . S
C186 C190 1.401 . S
C186 C191 1.499 . S
N187 Co170 1.989 . S
N187 C186 1.342 . S
N187 N188 1.388 . S
N188 Co171 1.993 . S
N188 N187 1.388 . S
N188 C189 1.346 . S
C189 N188 1.346 . S
C189 C190 1.396 . S
C189 C199 1.510 . S
C190 C186 1.401 . S
C190 C189 1.396 . S
C191 C186 1.499 . S
C191 H192 0.959 . S
C191 H193 0.960 . S
C191 H194 0.961 . S
H192 C191 0.959 . S
H193 C191 0.960 . S
H194 C191 0.961 . S
O195 Co170 1.967 . S
O195 C203 1.258 . S
O196 Co171 1.941 . S
O196 C203 1.266 . S
H197 C199 0.959 . S
H198 C199 0.961 . S
C199 C189 1.510 . S
C199 H197 0.959 . S
C199 H198 0.961 . S
C199 H200 0.960 . S
H200 C199 0.960 . S
H201 N181 0.862 . S
O202 Co170 1.920 . S
O202 C175 1.289 1_655 S
C203 O195 1.258 . S
C203 O196 1.266 . S
Co204 O207 1.970 . S
Co204 N221 1.989 . S
Co204 O229 1.967 . S
Co204 O236 1.920 . S
Co205 O208 1.966 . S
Co205 N214 2.022 . S
Co205 N222 1.993 . S
Co205 O230 1.941 . S
C206 O207 1.258 . S
C206 O208 1.263 . S
O207 Co204 1.970 . S
O207 C206 1.258 . S
O208 Co205 1.966 . S
O208 C206 1.263 . S
C209 O210 1.235 . S
C209 O236 1.289 . S
O210 C209 1.235 . S
C211 C213 1.400 . S
C211 N214 1.351 . S
C211 C216 1.501 . S
C212 C213 1.387 . S
C212 N215 1.341 . S
C213 C211 1.400 . S
C213 C212 1.387 . S
N214 Co205 2.022 . S
N214 C211 1.351 . S
N214 N215 1.365 . S
N215 C212 1.341 . S
N215 N214 1.365 . S
N215 H235 0.862 . S
C216 C211 1.501 . S
C216 H217 0.961 . S
C216 H218 0.961 . S
C216 H219 0.960 . S
H217 C216 0.961 . S
H218 C216 0.961 . S
H219 C216 0.960 . S
C220 N221 1.342 . S
C220 C224 1.401 . S
C220 C225 1.499 . S
N221 Co204 1.989 . S
N221 C220 1.342 . S
N221 N222 1.388 . S
N222 Co205 1.993 . S
N222 N221 1.388 . S
N222 C223 1.346 . S
C223 N222 1.346 . S
C223 C224 1.396 . S
C223 C233 1.510 . S
C224 C220 1.401 . S
C224 C223 1.396 . S
C225 C220 1.499 . S
C225 H226 0.959 . S
C225 H227 0.960 . S
C225 H228 0.961 . S
H226 C225 0.959 . S
H227 C225 0.960 . S
H228 C225 0.961 . S
O229 Co204 1.967 . S
O229 C237 1.258 . S
O230 Co205 1.941 . S
O230 C237 1.266 . S
H231 C233 0.959 . S
H232 C233 0.961 . S
C233 C223 1.510 . S
C233 H231 0.959 . S
C233 H232 0.961 . S
C233 H234 0.960 . S
H234 C233 0.960 . S
H235 N215 0.862 . S
O236 Co204 1.920 . S
O236 C209 1.289 . S
C237 O229 1.258 . S
C237 O230 1.266 . S
Co238 O241 1.970 . S
Co238 N255 1.989 . S
Co238 O263 1.967 . S
Co238 O270 1.920 . S
Co239 O242 1.966 . S
Co239 N248 2.022 . S
Co239 N256 1.993 . S
Co239 O264 1.941 . S
C240 O241 1.258 . S
C240 O242 1.263 . S
O241 Co238 1.970 . S
O241 C240 1.258 . S
O242 Co239 1.966 . S
O242 C240 1.263 . S
C243 O244 1.235 . S
C243 O270 1.289 . S
O244 C243 1.235 . S
C245 C247 1.400 . S
C245 N248 1.351 . S
C245 C250 1.501 . S
C246 C247 1.387 . S
C246 N249 1.341 . S
C247 C245 1.400 . S
C247 C246 1.387 . S
N248 Co239 2.022 . S
N248 C245 1.351 . S
N248 N249 1.365 . S
N249 C246 1.341 . S
N249 N248 1.365 . S
N249 H269 0.862 . S
C250 C245 1.501 . S
C250 H251 0.961 . S
C250 H252 0.961 . S
C250 H253 0.960 . S
H251 C250 0.961 . S
H252 C250 0.961 . S
H253 C250 0.960 . S
C254 N255 1.342 . S
C254 C258 1.401 . S
C254 C259 1.499 . S
N255 Co238 1.989 . S
N255 C254 1.342 . S
N255 N256 1.388 . S
N256 Co239 1.993 . S
N256 N255 1.388 . S
N256 C257 1.346 . S
C257 N256 1.346 . S
C257 C258 1.396 . S
C257 C267 1.510 . S
C258 C254 1.401 . S
C258 C257 1.396 . S
C259 C254 1.499 . S
C259 H260 0.959 . S
C259 H261 0.960 . S
C259 H262 0.961 . S
H260 C259 0.959 . S
H261 C259 0.960 . S
H262 C259 0.961 . S
O263 Co238 1.967 . S
O263 C271 1.258 . S
O264 Co239 1.941 . S
O264 C271 1.266 . S
H265 C267 0.959 . S
H266 C267 0.961 . S
C267 C257 1.510 . S
C267 H265 0.959 . S
C267 H266 0.961 . S
C267 H268 0.960 . S
H268 C267 0.960 . S
H269 N249 0.862 . S
O270 Co238 1.920 . S
O270 C243 1.289 . S
C271 O263 1.258 . S
C271 O264 1.266 . S
Co272 O275 1.970 . S
Co272 N289 1.989 . S
Co272 O297 1.967 . S
Co272 O304 1.920 . S
Co273 O276 1.966 . S
Co273 N282 2.022 . S
Co273 N290 1.993 . S
Co273 O298 1.941 . S
C274 O275 1.258 . S
C274 O276 1.263 . S
O275 Co272 1.970 . S
O275 C274 1.258 . S
O276 Co273 1.966 . S
O276 C274 1.263 . S
C277 O278 1.235 . S
C277 O304 1.289 . S
O278 C277 1.235 . S
C279 C281 1.400 . S
C279 N282 1.351 . S
C279 C284 1.501 . S
C280 C281 1.387 . S
C280 N283 1.341 . S
C281 C279 1.400 . S
C281 C280 1.387 . S
N282 Co273 2.022 . S
N282 C279 1.351 . S
N282 N283 1.365 . S
N283 C280 1.341 . S
N283 N282 1.365 . S
N283 H303 0.862 . S
C284 C279 1.501 . S
C284 H285 0.961 . S
C284 H286 0.961 . S
C284 H287 0.960 . S
H285 C284 0.961 . S
H286 C284 0.961 . S
H287 C284 0.960 . S
C288 N289 1.342 . S
C288 C292 1.401 . S
C288 C293 1.499 . S
N289 Co272 1.989 . S
N289 C288 1.342 . S
N289 N290 1.388 . S
N290 Co273 1.993 . S
N290 N289 1.388 . S
N290 C291 1.346 . S
C291 N290 1.346 . S
C291 C292 1.396 . S
C291 C301 1.510 . S
C292 C288 1.401 . S
C292 C291 1.396 . S
C293 C288 1.499 . S
C293 H294 0.959 . S
C293 H295 0.960 . S
C293 H296 0.961 . S
H294 C293 0.959 . S
H295 C293 0.960 . S
H296 C293 0.961 . S
O297 Co272 1.967 . S
O297 C305 1.258 . S
O298 Co273 1.941 . S
O298 C305 1.266 . S
H299 C301 0.959 . S
H300 C301 0.961 . S
C301 C291 1.510 . S
C301 H299 0.959 . S
C301 H300 0.961 . S
C301 H302 0.960 . S
H302 C301 0.960 . S
H303 N283 0.862 . S
O304 Co272 1.920 . S
O304 C277 1.289 . S
C305 O297 1.258 . S
C305 O298 1.266 . S
Co306 O309 1.970 . S
Co306 N323 1.989 . S
Co306 O331 1.967 . S
Co306 O338 1.920 . S
Co307 O310 1.966 . S
Co307 N316 2.022 . S
Co307 N324 1.993 . S
Co307 O332 1.941 . S
C308 O309 1.258 . S
C308 O310 1.263 . S
O309 Co306 1.970 . S
O309 C308 1.258 . S
O310 Co307 1.966 . S
O310 C308 1.263 . S
C311 O312 1.235 . S
C311 O338 1.289 . S
O312 C311 1.235 . S
C313 C315 1.400 . S
C313 N316 1.351 . S
C313 C318 1.501 . S
C314 C315 1.387 . S
C314 N317 1.341 . S
C315 C313 1.400 . S
C315 C314 1.387 . S
N316 Co307 2.022 . S
N316 C313 1.351 . S
N316 N317 1.365 . S
N317 C314 1.341 . S
N317 N316 1.365 . S
N317 H337 0.862 . S
C318 C313 1.501 . S
C318 H319 0.961 . S
C318 H320 0.961 . S
C318 H321 0.960 . S
H319 C318 0.961 . S
H320 C318 0.961 . S
H321 C318 0.960 . S
C322 N323 1.342 . S
C322 C326 1.401 . S
C322 C327 1.499 . S
N323 Co306 1.989 . S
N323 C322 1.342 . S
N323 N324 1.388 . S
N324 Co307 1.993 . S
N324 N323 1.388 . S
N324 C325 1.346 . S
C325 N324 1.346 . S
C325 C326 1.396 . S
C325 C335 1.510 . S
C326 C322 1.401 . S
C326 C325 1.396 . S
C327 C322 1.499 . S
C327 H328 0.959 . S
C327 H329 0.960 . S
C327 H330 0.961 . S
H328 C327 0.959 . S
H329 C327 0.960 . S
H330 C327 0.961 . S
O331 Co306 1.967 . S
O331 C339 1.258 . S
O332 Co307 1.941 . S
O332 C339 1.266 . S
H333 C335 0.959 . S
H334 C335 0.961 . S
C335 C325 1.510 . S
C335 H333 0.959 . S
C335 H334 0.961 . S
C335 H336 0.960 . S
H336 C335 0.960 . S
H337 N317 0.862 . S
O338 Co306 1.920 . S
O338 C311 1.289 . S
C339 O331 1.258 . S
C339 O332 1.266 . S
Co340 O343 1.970 . S
Co340 N357 1.989 . S
Co340 O365 1.967 . S
Co340 O372 1.920 . S
Co341 O344 1.966 . S
Co341 N350 2.022 . S
Co341 N358 1.993 . S
Co341 O366 1.941 . S
C342 O343 1.258 . S
C342 O344 1.263 . S
O343 Co340 1.970 . S
O343 C342 1.258 . S
O344 Co341 1.966 . S
O344 C342 1.263 . S
C345 O346 1.235 . S
C345 O372 1.289 . S
O346 C345 1.235 . S
C347 C349 1.400 . S
C347 N350 1.351 . S
C347 C352 1.501 . S
C348 C349 1.387 . S
C348 N351 1.341 . S
C349 C347 1.400 . S
C349 C348 1.387 . S
N350 Co341 2.022 . S
N350 C347 1.351 . S
N350 N351 1.365 . S
N351 C348 1.341 . S
N351 N350 1.365 . S
N351 H371 0.862 . S
C352 C347 1.501 . S
C352 H353 0.961 . S
C352 H354 0.961 . S
C352 H355 0.960 . S
H353 C352 0.961 . S
H354 C352 0.961 . S
H355 C352 0.960 . S
C356 N357 1.342 . S
C356 C360 1.401 . S
C356 C361 1.499 . S
N357 Co340 1.989 . S
N357 C356 1.342 . S
N357 N358 1.388 . S
N358 Co341 1.993 . S
N358 N357 1.388 . S
N358 C359 1.346 . S
C359 N358 1.346 . S
C359 C360 1.396 . S
C359 C369 1.510 . S
C360 C356 1.401 . S
C360 C359 1.396 . S
C361 C356 1.499 . S
C361 H362 0.959 . S
C361 H363 0.960 . S
C361 H364 0.961 . S
H362 C361 0.959 . S
H363 C361 0.960 . S
H364 C361 0.961 . S
O365 Co340 1.967 . S
O365 C373 1.258 . S
O366 Co341 1.941 . S
O366 C373 1.266 . S
H367 C369 0.959 . S
H368 C369 0.961 . S
C369 C359 1.510 . S
C369 H367 0.959 . S
C369 H368 0.961 . S
C369 H370 0.960 . S
H370 C369 0.960 . S
H371 N351 0.862 . S
O372 Co340 1.920 . S
O372 C345 1.289 . S
C373 O365 1.258 . S
C373 O366 1.266 . S
Co374 O377 1.970 . S
Co374 N391 1.989 . S
Co374 O399 1.967 . S
Co374 O406 1.920 . S
Co375 O378 1.966 . S
Co375 N384 2.022 . S
Co375 N392 1.993 . S
Co375 O400 1.941 . S
C376 O377 1.258 . S
C376 O378 1.263 . S
O377 Co374 1.970 . S
O377 C376 1.258 . S
O378 Co375 1.966 . S
O378 C376 1.263 . S
C379 O380 1.235 . S
C379 O406 1.289 . S
O380 C379 1.235 . S
C381 C383 1.400 . S
C381 N384 1.351 . S
C381 C386 1.501 . S
C382 C383 1.387 . S
C382 N385 1.341 . S
C383 C381 1.400 . S
C383 C382 1.387 . S
N384 Co375 2.022 . S
N384 C381 1.351 . S
N384 N385 1.365 . S
N385 C382 1.341 . S
N385 N384 1.365 . S
N385 H405 0.862 . S
C386 C381 1.501 . S
C386 H387 0.961 . S
C386 H388 0.961 . S
C386 H389 0.960 . S
H387 C386 0.961 . S
H388 C386 0.961 . S
H389 C386 0.960 . S
C390 N391 1.342 . S
C390 C394 1.401 . S
C390 C395 1.499 . S
N391 Co374 1.989 . S
N391 C390 1.342 . S
N391 N392 1.388 . S
N392 Co375 1.993 . S
N392 N391 1.388 . S
N392 C393 1.346 . S
C393 N392 1.346 . S
C393 C394 1.396 . S
C393 C403 1.510 . S
C394 C390 1.401 . S
C394 C393 1.396 . S
C395 C390 1.499 . S
C395 H396 0.959 . S
C395 H397 0.960 . S
C395 H398 0.961 . S
H396 C395 0.959 . S
H397 C395 0.960 . S
H398 C395 0.961 . S
O399 Co374 1.967 . S
O399 C407 1.258 . S
O400 Co375 1.941 . S
O400 C407 1.266 . S
H401 C403 0.959 . S
H402 C403 0.961 . S
C403 C393 1.510 . S
C403 H401 0.959 . S
C403 H402 0.961 . S
C403 H404 0.960 . S
H404 C403 0.960 . S
H405 N385 0.862 . S
O406 Co374 1.920 . S
O406 C379 1.289 . S
C407 O399 1.258 . S
C407 O400 1.266 . S
Co408 O411 1.970 . S
Co408 N425 1.989 . S
Co408 O433 1.967 . S
Co408 O440 1.920 . S
Co409 O412 1.966 . S
Co409 N418 2.022 . S
Co409 N426 1.993 . S
Co409 O434 1.941 . S
C410 O411 1.258 . S
C410 O412 1.263 . S
O411 Co408 1.970 . S
O411 C410 1.258 . S
O412 Co409 1.966 . S
O412 C410 1.263 . S
C413 O414 1.235 . S
C413 O440 1.289 . S
O414 C413 1.235 . S
C415 C417 1.400 . S
C415 N418 1.351 . S
C415 C420 1.501 . S
C416 C417 1.387 . S
C416 N419 1.341 . S
C417 C415 1.400 . S
C417 C416 1.387 . S
N418 Co409 2.022 . S
N418 C415 1.351 . S
N418 N419 1.365 . S
N419 C416 1.341 . S
N419 N418 1.365 . S
N419 H439 0.862 . S
C420 C415 1.501 . S
C420 H421 0.961 . S
C420 H422 0.961 . S
C420 H423 0.960 . S
H421 C420 0.961 . S
H422 C420 0.961 . S
H423 C420 0.960 . S
C424 N425 1.342 . S
C424 C428 1.401 . S
C424 C429 1.499 . S
N425 Co408 1.989 . S
N425 C424 1.342 . S
N425 N426 1.388 . S
N426 Co409 1.993 . S
N426 N425 1.388 . S
N426 C427 1.346 . S
C427 N426 1.346 . S
C427 C428 1.396 . S
C427 C437 1.510 . S
C428 C424 1.401 . S
C428 C427 1.396 . S
C429 C424 1.499 . S
C429 H430 0.959 . S
C429 H431 0.960 . S
C429 H432 0.961 . S
H430 C429 0.959 . S
H431 C429 0.960 . S
H432 C429 0.961 . S
O433 Co408 1.967 . S
O433 C441 1.258 . S
O434 Co409 1.941 . S
O434 C441 1.266 . S
H435 C437 0.959 . S
H436 C437 0.961 . S
C437 C427 1.510 . S
C437 H435 0.959 . S
C437 H436 0.961 . S
C437 H438 0.960 . S
H438 C437 0.960 . S
H439 N419 0.862 . S
O440 Co408 1.920 . S
O440 C413 1.289 . S
C441 O433 1.258 . S
C441 O434 1.266 . S
Co442 O445 1.970 . S
Co442 N459 1.989 . S
Co442 O467 1.967 . S
Co442 O474 1.920 . S
Co443 O446 1.966 . S
Co443 N452 2.022 . S
Co443 N460 1.993 . S
Co443 O468 1.941 . S
C444 O445 1.258 . S
C444 O446 1.263 . S
O445 Co442 1.970 . S
O445 C444 1.258 . S
O446 Co443 1.966 . S
O446 C444 1.263 . S
C447 O448 1.235 . S
C447 O474 1.289 . S
O448 C447 1.235 . S
C449 C451 1.400 . S
C449 N452 1.351 . S
C449 C454 1.501 . S
C450 C451 1.387 . S
C450 N453 1.341 . S
C451 C449 1.400 . S
C451 C450 1.387 . S
N452 Co443 2.022 . S
N452 C449 1.351 . S
N452 N453 1.365 . S
N453 C450 1.341 . S
N453 N452 1.365 . S
N453 H473 0.862 . S
C454 C449 1.501 . S
C454 H455 0.961 . S
C454 H456 0.961 . S
C454 H457 0.960 . S
H455 C454 0.961 . S
H456 C454 0.961 . S
H457 C454 0.960 . S
C458 N459 1.342 . S
C458 C462 1.401 . S
C458 C463 1.499 . S
N459 Co442 1.989 . S
N459 C458 1.342 . S
N459 N460 1.388 . S
N460 Co443 1.993 . S
N460 N459 1.388 . S
N460 C461 1.346 . S
C461 N460 1.346 . S
C461 C462 1.396 . S
C461 C471 1.510 . S
C462 C458 1.401 . S
C462 C461 1.396 . S
C463 C458 1.499 . S
C463 H464 0.959 . S
C463 H465 0.960 . S
C463 H466 0.961 . S
H464 C463 0.959 . S
H465 C463 0.960 . S
H466 C463 0.961 . S
O467 Co442 1.967 . S
O467 C475 1.258 . S
O468 Co443 1.941 . S
O468 C475 1.266 . S
H469 C471 0.959 . S
H470 C471 0.961 . S
C471 C461 1.510 . S
C471 H469 0.959 . S
C471 H470 0.961 . S
C471 H472 0.960 . S
H472 C471 0.960 . S
H473 N453 0.862 . S
O474 Co442 1.920 . S
O474 C447 1.289 . S
C475 O467 1.258 . S
C475 O468 1.266 . S
Co476 O479 1.970 . S
Co476 N493 1.989 . S
Co476 O501 1.967 . S
Co476 O508 1.920 . S
Co477 O480 1.966 . S
Co477 N486 2.022 . S
Co477 N494 1.993 . S
Co477 O502 1.941 . S
C478 O479 1.258 . S
C478 O480 1.263 . S
O479 Co476 1.970 . S
O479 C478 1.258 . S
O480 Co477 1.966 . S
O480 C478 1.263 . S
C481 O482 1.235 . S
C481 O508 1.289 . S
O482 C481 1.235 . S
C483 C485 1.400 . S
C483 N486 1.351 . S
C483 C488 1.501 . S
C484 C485 1.387 . S
C484 N487 1.341 . S
C485 C483 1.400 . S
C485 C484 1.387 . S
N486 Co477 2.022 . S
N486 C483 1.351 . S
N486 N487 1.365 . S
N487 C484 1.341 . S
N487 N486 1.365 . S
N487 H507 0.862 . S
C488 C483 1.501 . S
C488 H489 0.961 . S
C488 H490 0.961 . S
C488 H491 0.960 . S
H489 C488 0.961 . S
H490 C488 0.961 . S
H491 C488 0.960 . S
C492 N493 1.342 . S
C492 C496 1.401 . S
C492 C497 1.499 . S
N493 Co476 1.989 . S
N493 C492 1.342 . S
N493 N494 1.388 . S
N494 Co477 1.993 . S
N494 N493 1.388 . S
N494 C495 1.346 . S
C495 N494 1.346 . S
C495 C496 1.396 . S
C495 C505 1.510 . S
C496 C492 1.401 . S
C496 C495 1.396 . S
C497 C492 1.499 . S
C497 H498 0.959 . S
C497 H499 0.960 . S
C497 H500 0.961 . S
H498 C497 0.959 . S
H499 C497 0.960 . S
H500 C497 0.961 . S
O501 Co476 1.967 . S
O501 C509 1.258 . S
O502 Co477 1.941 . S
O502 C509 1.266 . S
H503 C505 0.959 . S
H504 C505 0.961 . S
C505 C495 1.510 . S
C505 H503 0.959 . S
C505 H504 0.961 . S
C505 H506 0.960 . S
H506 C505 0.960 . S
H507 N487 0.862 . S
O508 Co476 1.920 . S
O508 C481 1.289 . S
C509 O501 1.258 . S
C509 O502 1.266 . S
Co510 O513 1.970 . S
Co510 N527 1.989 . S
Co510 O535 1.967 . S
Co510 O542 1.920 . S
Co511 O514 1.966 . S
Co511 N520 2.022 . S
Co511 N528 1.993 . S
Co511 O536 1.941 . S
C512 O513 1.258 . S
C512 O514 1.263 . S
O513 Co510 1.970 . S
O513 C512 1.258 . S
O514 Co511 1.966 . S
O514 C512 1.263 . S
C515 O516 1.235 . S
C515 O542 1.289 . S
O516 C515 1.235 . S
C517 C519 1.400 . S
C517 N520 1.351 . S
C517 C522 1.501 . S
C518 C519 1.387 . S
C518 N521 1.341 . S
C519 C517 1.400 . S
C519 C518 1.387 . S
N520 Co511 2.022 . S
N520 C517 1.351 . S
N520 N521 1.365 . S
N521 C518 1.341 . S
N521 N520 1.365 . S
N521 H541 0.862 . S
C522 C517 1.501 . S
C522 H523 0.961 . S
C522 H524 0.961 . S
C522 H525 0.960 . S
H523 C522 0.961 . S
H524 C522 0.961 . S
H525 C522 0.960 . S
C526 N527 1.342 . S
C526 C530 1.401 . S
C526 C531 1.499 . S
N527 Co510 1.989 . S
N527 C526 1.342 . S
N527 N528 1.388 . S
N528 Co511 1.993 . S
N528 N527 1.388 . S
N528 C529 1.346 . S
C529 N528 1.346 . S
C529 C530 1.396 . S
C529 C539 1.510 . S
C530 C526 1.401 . S
C530 C529 1.396 . S
C531 C526 1.499 . S
C531 H532 0.959 . S
C531 H533 0.960 . S
C531 H534 0.961 . S
H532 C531 0.959 . S
H533 C531 0.960 . S
H534 C531 0.961 . S
O535 Co510 1.967 . S
O535 C543 1.258 . S
O536 Co511 1.941 . S
O536 C543 1.266 . S
H537 C539 0.959 . S
H538 C539 0.961 . S
C539 C529 1.510 . S
C539 H537 0.959 . S
C539 H538 0.961 . S
C539 H540 0.960 . S
H540 C539 0.960 . S
H541 N521 0.862 . S
O542 Co510 1.920 . S
O542 C515 1.289 . S
C543 O535 1.258 . S
C543 O536 1.266 . S
Co544 O547 1.970 . S
Co544 N561 1.989 . S
Co544 O569 1.967 . S
Co544 O576 1.920 . S
Co545 O548 1.966 . S
Co545 N554 2.022 . S
Co545 N562 1.993 . S
Co545 O570 1.941 . S
C546 O547 1.258 . S
C546 O548 1.263 . S
O547 Co544 1.970 . S
O547 C546 1.258 . S
O548 Co545 1.966 . S
O548 C546 1.263 . S
C549 O550 1.235 . S
C549 O576 1.289 . S
O550 C549 1.235 . S
C551 C553 1.400 . S
C551 N554 1.351 . S
C551 C556 1.501 . S
C552 C553 1.387 . S
C552 N555 1.341 . S
C553 C551 1.400 . S
C553 C552 1.387 . S
N554 Co545 2.022 . S
N554 C551 1.351 . S
N554 N555 1.365 . S
N555 C552 1.341 . S
N555 N554 1.365 . S
N555 H575 0.862 . S
C556 C551 1.501 . S
C556 H557 0.961 . S
C556 H558 0.961 . S
C556 H559 0.960 . S
H557 C556 0.961 . S
H558 C556 0.961 . S
H559 C556 0.960 . S
C560 N561 1.342 . S
C560 C564 1.401 . S
C560 C565 1.499 . S
N561 Co544 1.989 . S
N561 C560 1.342 . S
N561 N562 1.388 . S
N562 Co545 1.993 . S
N562 N561 1.388 . S
N562 C563 1.346 . S
C563 N562 1.346 . S
C563 C564 1.396 . S
C563 C573 1.510 . S
C564 C560 1.401 . S
C564 C563 1.396 . S
C565 C560 1.499 . S
C565 H566 0.959 . S
C565 H567 0.960 . S
C565 H568 0.961 . S
H566 C565 0.959 . S
H567 C565 0.960 . S
H568 C565 0.961 . S
O569 Co544 1.967 . S
O569 C577 1.258 . S
O570 Co545 1.941 . S
O570 C577 1.266 . S
H571 C573 0.959 . S
H572 C573 0.961 . S
C573 C563 1.510 . S
C573 H571 0.959 . S
C573 H572 0.961 . S
C573 H574 0.960 . S
H574 C573 0.960 . S
H575 N555 0.862 . S
O576 Co544 1.920 . S
O576 C549 1.289 . S
C577 O569 1.258 . S
C577 O570 1.266 . S
Co578 O581 1.970 . S
Co578 N595 1.989 . S
Co578 O603 1.967 . S
Co578 O610 1.920 . S
Co579 O582 1.966 . S
Co579 N588 2.022 . S
Co579 N596 1.993 . S
Co579 O604 1.941 . S
C580 O581 1.258 . S
C580 O582 1.263 . S
O581 Co578 1.970 . S
O581 C580 1.258 . S
O582 Co579 1.966 . S
O582 C580 1.263 . S
C583 O584 1.235 . S
C583 O610 1.289 . S
O584 C583 1.235 . S
C585 C587 1.400 . S
C585 N588 1.351 . S
C585 C590 1.501 . S
C586 C587 1.387 . S
C586 N589 1.341 . S
C587 C585 1.400 . S
C587 C586 1.387 . S
N588 Co579 2.022 . S
N588 C585 1.351 . S
N588 N589 1.365 . S
N589 C586 1.341 . S
N589 N588 1.365 . S
N589 H609 0.862 . S
C590 C585 1.501 . S
C590 H591 0.961 . S
C590 H592 0.961 . S
C590 H593 0.960 . S
H591 C590 0.961 . S
H592 C590 0.961 . S
H593 C590 0.960 . S
C594 N595 1.342 . S
C594 C598 1.401 . S
C594 C599 1.499 . S
N595 Co578 1.989 . S
N595 C594 1.342 . S
N595 N596 1.388 . S
N596 Co579 1.993 . S
N596 N595 1.388 . S
N596 C597 1.346 . S
C597 N596 1.346 . S
C597 C598 1.396 . S
C597 C607 1.510 . S
C598 C594 1.401 . S
C598 C597 1.396 . S
C599 C594 1.499 . S
C599 H600 0.959 . S
C599 H601 0.960 . S
C599 H602 0.961 . S
H600 C599 0.959 . S
H601 C599 0.960 . S
H602 C599 0.961 . S
O603 Co578 1.967 . S
O603 C611 1.258 . S
O604 Co579 1.941 . S
O604 C611 1.266 . S
H605 C607 0.959 . S
H606 C607 0.961 . S
C607 C597 1.510 . S
C607 H605 0.959 . S
C607 H606 0.961 . S
C607 H608 0.960 . S
H608 C607 0.960 . S
H609 N589 0.862 . S
O610 Co578 1.920 . S
O610 C583 1.289 . S
C611 O603 1.258 . S
C611 O604 1.266 . S
C612 C613 1.387 . S
C612 H616 0.950 . S
C612 C621 1.390 . S
C613 C612 1.387 . S
C613 C615 1.387 . S
H614 C621 0.950 . S
C615 C613 1.387 . S
C615 C617 1.390 . S
C615 H619 0.950 . S
H616 C612 0.950 . S
C617 C615 1.390 . S
C617 C618 1.387 . S
C617 H620 0.950 . S
C618 C617 1.387 . S
C618 C621 1.387 . S
H619 C615 0.950 . S
H620 C617 0.950 . S
C621 C612 1.390 . S
C621 H614 0.950 . S
C621 C618 1.387 . S
C622 C623 1.387 . S
C622 H626 0.950 1_545 S
C622 C631 1.390 . S
C623 C622 1.387 . S
C623 C625 1.387 . S
H624 C631 0.950 . S
C625 C623 1.387 . S
C625 C627 1.390 . S
C625 H629 0.950 . S
H626 C622 0.950 1_565 S
C627 C625 1.390 . S
C627 C628 1.387 . S
C627 H630 0.950 . S
C628 C627 1.387 . S
C628 C631 1.387 . S
H629 C625 0.950 . S
H630 C627 0.950 . S
C631 C622 1.390 . S
C631 H624 0.950 . S
C631 C628 1.387 . S
C632 C633 1.387 . S
C632 H636 0.950 . S
C632 C641 1.390 . S
C633 C632 1.387 . S
C633 C635 1.387 . S
H634 C641 0.950 . S
C635 C633 1.387 . S
C635 C637 1.390 . S
C635 H639 0.950 . S
H636 C632 0.950 . S
C637 C635 1.390 . S
C637 C638 1.387 . S
C637 H640 0.950 . S
C638 C637 1.387 . S
C638 C641 1.387 . S
H639 C635 0.950 . S
H640 C637 0.950 . S
C641 C632 1.390 . S
C641 H634 0.950 . S
C641 C638 1.387 . S
C642 C643 1.387 . S
C642 H646 0.950 . S
C642 C651 1.390 . S
C643 C642 1.387 . S
C643 C645 1.387 . S
H644 C651 0.950 . S
C645 C643 1.387 . S
C645 C647 1.390 . S
C645 H649 0.950 . S
H646 C642 0.950 . S
C647 C645 1.390 . S
C647 C648 1.387 . S
C647 H650 0.950 . S
C648 C647 1.387 . S
C648 C651 1.387 . S
H649 C645 0.950 . S
H650 C647 0.950 . S
C651 C642 1.390 . S
C651 H644 0.950 . S
C651 C648 1.387 . S
C652 C653 1.387 . S
C652 H656 0.950 . S
C652 C661 1.390 . S
C653 C652 1.387 . S
C653 C655 1.387 . S
H654 C661 0.950 . S
C655 C653 1.387 . S
C655 C657 1.390 . S
C655 H659 0.950 . S
H656 C652 0.950 . S
C657 C655 1.390 . S
C657 C658 1.387 . S
C657 H660 0.950 . S
C658 C657 1.387 . S
C658 C661 1.387 . S
H659 C655 0.950 . S
H660 C657 0.950 . S
C661 C652 1.390 . S
C661 H654 0.950 . S
C661 C658 1.387 . S
C662 C663 1.387 . S
C662 H666 0.950 . S
C662 C671 1.390 . S
C663 C662 1.387 . S
C663 C665 1.387 . S
H664 C671 0.950 . S
C665 C663 1.387 . S
C665 C667 1.390 . S
C665 H669 0.950 . S
H666 C662 0.950 . S
C667 C665 1.390 . S
C667 C668 1.387 . S
C667 H670 0.950 . S
C668 C667 1.387 . S
C668 C671 1.387 . S
H669 C665 0.950 . S
H670 C667 0.950 . S
C671 C662 1.390 . S
C671 H664 0.950 . S
C671 C668 1.387 . S
C672 C673 1.387 . S
C672 H676 0.950 . S
C672 C681 1.390 1_655 S
C673 C672 1.387 . S
C673 C675 1.387 . S
H674 C681 0.950 . S
C675 C673 1.387 . S
C675 C677 1.390 . S
C675 H679 0.950 . S
H676 C672 0.950 . S
C677 C675 1.390 . S
C677 C678 1.388 1_655 S
C677 H680 0.950 . S
C678 C677 1.388 1_455 S
C678 C681 1.388 . S
H679 C675 0.950 . S
H680 C677 0.950 . S
C681 C672 1.390 1_455 S
C681 H674 0.950 . S
C681 C678 1.388 . S
C682 C683 1.387 . S
C682 H686 0.950 . S
C682 C691 1.390 . S
C683 C682 1.387 . S
C683 C685 1.387 . S
H684 C691 0.950 . S
C685 C683 1.387 . S
C685 C687 1.390 . S
C685 H689 0.950 . S
H686 C682 0.950 . S
C687 C685 1.390 . S
C687 C688 1.387 . S
C687 H690 0.950 . S
C688 C687 1.387 . S
C688 C691 1.387 . S
H689 C685 0.950 . S
H690 C687 0.950 . S
C691 C682 1.390 . S
C691 H684 0.950 . S
C691 C688 1.387 . S
C692 C693 1.388 . S
C692 H696 0.952 . S
C692 C701 1.387 1_565 S
C693 C692 1.388 . S
C693 C695 1.386 1_565 S
H694 C701 0.950 . S
C695 C693 1.386 1_545 S
C695 C697 1.390 . S
C695 H699 0.950 . S
H696 C692 0.952 . S
C697 C695 1.390 . S
C697 C698 1.387 . S
C697 H700 0.950 . S
C698 C697 1.387 . S
C698 C701 1.387 . S
H699 C695 0.950 . S
H700 C697 0.950 . S
C701 C692 1.387 1_545 S
C701 H694 0.950 . S
C701 C698 1.387 . S
C702 C703 1.387 . S
C702 H706 0.950 . S
C702 C711 1.390 1_554 S
C703 C702 1.387 . S
C703 C705 1.387 . S
H704 C711 0.950 . S
C705 C703 1.387 . S
C705 C707 1.390 1_554 S
C705 H709 0.950 . S
H706 C702 0.950 . S
C707 C705 1.390 1_556 S
C707 C708 1.387 . S
C707 H710 0.950 . S
C708 C707 1.387 . S
C708 C711 1.387 . S
H709 C705 0.950 . S
H710 C707 0.950 . S
C711 C702 1.390 1_556 S
C711 H704 0.950 . S
C711 C708 1.387 . S
C712 C713 1.387 . S
C712 H716 0.950 . S
C712 C721 1.390 1_554 S
C713 C712 1.387 . S
C713 C715 1.387 . S
H714 C721 0.950 . S
C715 C713 1.387 . S
C715 C717 1.390 1_554 S
C715 H719 0.950 . S
H716 C712 0.950 . S
C717 C715 1.390 1_556 S
C717 C718 1.387 . S
C717 H720 0.950 . S
C718 C717 1.387 . S
C718 C721 1.387 . S
H719 C715 0.950 . S
H720 C717 0.950 . S
C721 C712 1.390 1_556 S
C721 H714 0.950 . S
C721 C718 1.387 . S
C722 C723 1.387 . S
C722 H726 0.950 . S
C722 C731 1.390 . S
C723 C722 1.387 . S
C723 C725 1.387 1_554 S
H724 C731 0.950 . S
C725 C723 1.387 1_556 S
C725 C727 1.390 . S
C725 H729 0.950 . S
H726 C722 0.950 . S
C727 C725 1.390 . S
C727 C728 1.387 . S
C727 H730 0.950 . S
C728 C727 1.387 . S
C728 C731 1.387 1_556 S
H729 C725 0.950 . S
H730 C727 0.950 . S
C731 C722 1.390 . S
C731 H724 0.950 . S
C731 C728 1.387 1_554 S
C732 C733 1.387 . S
C732 H736 0.950 . S
C732 C741 1.390 1_556 S
C733 C732 1.387 . S
C733 C735 1.387 . S
H734 C741 0.950 . S
C735 C733 1.387 . S
C735 C737 1.390 1_556 S
C735 H739 0.950 . S
H736 C732 0.950 . S
C737 C735 1.390 1_554 S
C737 C738 1.387 . S
C737 H740 0.950 . S
C738 C737 1.387 . S
C738 C741 1.387 . S
H739 C735 0.950 . S
H740 C737 0.950 . S
C741 C732 1.390 1_554 S
C741 H734 0.950 . S
C741 C738 1.387 . S
C742 C743 1.387 1_554 S
C742 H746 0.950 . S
C742 C751 1.390 . S
C743 C742 1.387 1_556 S
C743 C745 1.387 . S
H744 C751 0.950 . S
C745 C743 1.387 . S
C745 C747 1.390 . S
C745 H749 0.950 . S
H746 C742 0.950 . S
C747 C745 1.390 . S
C747 C748 1.387 1_556 S
C747 H750 0.950 . S
C748 C747 1.387 1_554 S
C748 C751 1.387 . S
H749 C745 0.950 . S
H750 C747 0.950 . S
C751 C742 1.390 . S
C751 H744 0.950 . S
C751 C748 1.387 . S
C752 C753 1.387 . S
C752 H756 0.950 . S
C752 C761 1.390 1_554 S
C753 C752 1.387 . S
C753 C755 1.387 1_554 S
H754 C761 0.950 . S
C755 C753 1.387 1_556 S
C755 C757 1.390 . S
C755 H759 0.950 . S
H756 C752 0.950 . S
C757 C755 1.390 . S
C757 C758 1.387 . S
C757 H760 0.950 . S
C758 C757 1.387 . S
C758 C761 1.387 . S
H759 C755 0.950 . S
H760 C757 0.950 . S
C761 C752 1.390 1_556 S
C761 H754 0.950 . S
C761 C758 1.387 . S
C762 C763 1.387 1_455 S
C762 H766 0.950 . S
C762 C771 1.390 . S
C763 C762 1.387 1_655 S
C763 C765 1.387 . S
H764 C771 0.950 . S
C765 C763 1.387 . S
C765 C767 1.390 1_655 S
C765 H769 0.950 . S
H766 C762 0.950 . S
C767 C765 1.390 1_455 S
C767 C768 1.387 . S
C767 H770 0.950 . S
C768 C767 1.387 . S
C768 C771 1.387 . S
H769 C765 0.950 . S
H770 C767 0.950 . S
C771 C762 1.390 . S
C771 H764 0.950 . S
C771 C768 1.387 . S
C772 C773 1.387 . S
C772 H776 0.950 . S
C772 C781 1.390 . S
C773 C772 1.387 . S
C773 C775 1.387 . S
H774 C781 0.950 . S
C775 C773 1.387 . S
C775 C777 1.390 . S
C775 H779 0.950 . S
H776 C772 0.950 . S
C777 C775 1.390 . S
C777 C778 1.387 . S
C777 H780 0.950 . S
C778 C777 1.387 . S
C778 C781 1.387 . S
H779 C775 0.950 . S
H780 C777 0.950 . S
C781 C772 1.390 . S
C781 H774 0.950 . S
C781 C778 1.387 . S
C782 C783 1.387 . S
C782 H786 0.950 . S
C782 C791 1.390 1_565 S
C783 C782 1.387 . S
C783 C785 1.387 . S
H784 C791 0.950 . S
C785 C783 1.387 . S
C785 C787 1.390 . S
C785 H789 0.950 . S
H786 C782 0.950 . S
C787 C785 1.390 . S
C787 C788 1.384 1_565 S
C787 H790 0.950 . S
C788 C787 1.384 1_545 S
C788 C791 1.390 . S
H789 C785 0.950 . S
H790 C787 0.950 . S
C791 C782 1.390 1_545 S
C791 H784 0.950 . S
C791 C788 1.390 . S
C792 C793 1.387 . S
C792 H796 0.950 . S
C792 C801 1.390 . S
C793 C792 1.387 . S
C793 C795 1.387 . S
H794 C801 0.950 . S
C795 C793 1.387 . S
C795 C797 1.390 . S
C795 H799 0.950 . S
H796 C792 0.950 . S
C797 C795 1.390 . S
C797 C798 1.387 . S
C797 H800 0.950 . S
C798 C797 1.387 . S
C798 C801 1.387 . S
H799 C795 0.950 . S
H800 C797 0.950 . S
C801 C792 1.390 . S
C801 H794 0.950 . S
C801 C798 1.387 . S
C802 C803 1.387 . S
C802 H806 0.950 . S
C802 C811 1.390 . S
C803 C802 1.387 . S
C803 C805 1.387 . S
H804 C811 0.950 . S
C805 C803 1.387 . S
C805 C807 1.390 . S
C805 H809 0.950 . S
H806 C802 0.950 . S
C807 C805 1.390 . S
C807 C808 1.387 . S
C807 H810 0.950 . S
C808 C807 1.387 . S
C808 C811 1.387 . S
H809 C805 0.950 . S
H810 C807 0.950 . S
C811 C802 1.390 . S
C811 H804 0.950 . S
C811 C808 1.387 . S
C812 C813 1.387 . S
C812 H816 0.950 . S
C812 C821 1.390 . S
C813 C812 1.387 . S
C813 C815 1.387 . S
H814 C821 0.950 . S
C815 C813 1.387 . S
C815 C817 1.390 . S
C815 H819 0.950 . S
H816 C812 0.950 . S
C817 C815 1.390 . S
C817 C818 1.387 . S
C817 H820 0.950 . S
C818 C817 1.387 . S
C818 C821 1.387 . S
H819 C815 0.950 . S
H820 C817 0.950 . S
C821 C812 1.390 . S
C821 H814 0.950 . S
C821 C818 1.387 . S
C822 C823 1.387 . S
C822 H826 0.950 . S
C822 C831 1.390 . S
C823 C822 1.387 . S
C823 C825 1.387 . S
H824 C831 0.950 . S
C825 C823 1.387 . S
C825 C827 1.390 . S
C825 H829 0.950 . S
H826 C822 0.950 . S
C827 C825 1.390 . S
C827 C828 1.387 . S
C827 H830 0.950 . S
C828 C827 1.387 . S
C828 C831 1.387 . S
H829 C825 0.950 . S
H830 C827 0.950 . S
C831 C822 1.390 . S
C831 H824 0.950 . S
C831 C828 1.387 . S
C832 C833 1.387 . S
C832 H836 0.950 . S
C832 C841 1.390 . S
C833 C832 1.387 . S
C833 C835 1.387 . S
H834 C841 0.950 . S
C835 C833 1.387 . S
C835 C837 1.390 . S
C835 H839 0.950 . S
H836 C832 0.950 . S
C837 C835 1.390 . S
C837 C838 1.387 . S
C837 H840 0.950 . S
C838 C837 1.387 . S
C838 C841 1.387 . S
H839 C835 0.950 . S
H840 C837 0.950 . S
C841 C832 1.390 . S
C841 H834 0.950 . S
C841 C838 1.387 . S
C842 C843 1.387 . S
C842 H846 0.950 . S
C842 C851 1.390 . S
C843 C842 1.387 . S
C843 C845 1.387 . S
H844 C851 0.950 . S
C845 C843 1.387 . S
C845 C847 1.390 . S
C845 H849 0.950 . S
H846 C842 0.950 . S
C847 C845 1.390 . S
C847 C848 1.387 . S
C847 H850 0.950 . S
C848 C847 1.387 . S
C848 C851 1.387 . S
H849 C845 0.950 . S
H850 C847 0.950 . S
C851 C842 1.390 . S
C851 H844 0.950 . S
C851 C848 1.387 . S
C852 C853 1.387 1_565 S
C852 H856 0.950 . S
C852 C861 1.390 . S
C853 C852 1.387 1_545 S
C853 C855 1.387 1_554 S
H854 C861 0.950 . S
C855 C853 1.387 1_556 S
C855 C857 1.390 . S
C855 H859 0.950 . S
H856 C852 0.950 . S
C857 C855 1.390 . S
C857 C858 1.387 1_545 S
C857 H860 0.950 . S
C858 C857 1.387 1_565 S
C858 C861 1.387 1_556 S
H859 C855 0.950 . S
H860 C857 0.950 . S
C861 C852 1.390 . S
C861 H854 0.950 . S
C861 C858 1.387 1_554 S
C862 C863 1.387 . S
C862 H866 0.950 . S
C862 C871 1.390 1_456 S
C863 C862 1.387 . S
C863 C865 1.387 . S
H864 C871 0.950 . S
C865 C863 1.387 . S
C865 C867 1.390 1_456 S
C865 H869 0.950 . S
H866 C862 0.950 . S
C867 C865 1.390 1_654 S
C867 C868 1.387 . S
C867 H870 0.950 . S
C868 C867 1.387 . S
C868 C871 1.387 . S
H869 C865 0.950 . S
H870 C867 0.950 . S
C871 C862 1.390 1_654 S
C871 H864 0.950 . S
C871 C868 1.387 . S
C872 C873 1.387 . S
C872 H876 0.950 . S
C872 C881 1.390 1_556 S
C873 C872 1.387 . S
C873 C875 1.387 . S
H874 C881 0.950 . S
C875 C873 1.387 . S
C875 C877 1.390 1_556 S
C875 H879 0.950 . S
H876 C872 0.950 . S
C877 C875 1.390 1_554 S
C877 C878 1.387 . S
C877 H880 0.950 . S
C878 C877 1.387 . S
C878 C881 1.387 . S
H879 C875 0.950 . S
H880 C877 0.950 . S
C881 C872 1.390 1_554 S
C881 H874 0.950 . S
C881 C878 1.387 . S
C882 C883 1.387 . S
C882 H886 0.950 . S
C882 C891 1.390 . S
C883 C882 1.387 . S
C883 C885 1.387 . S
H884 C891 0.950 . S
C885 C883 1.387 . S
C885 C887 1.390 1_554 S
C885 H889 0.950 . S
H886 C882 0.950 . S
C887 C885 1.390 1_556 S
C887 C888 1.387 . S
C887 H890 0.950 . S
C888 C887 1.387 . S
C888 C891 1.387 1_556 S
H889 C885 0.950 . S
H890 C887 0.950 . S
C891 C882 1.390 . S
C891 H884 0.950 . S
C891 C888 1.387 1_554 S
C892 C893 1.380 1_554 S
C892 H896 0.950 . S
C892 C901 1.390 . S
C893 C892 1.380 1_556 S
C893 C895 1.387 1_556 S
H894 C901 0.950 . S
C895 C893 1.387 1_554 S
C895 C897 1.390 . S
C895 H899 0.950 1_554 S
H896 C892 0.950 . S
C897 C895 1.390 . S
C897 C898 1.387 . S
C897 H900 0.950 1_545 S
C898 C897 1.387 . S
C898 C901 1.387 . S
H899 C895 0.950 1_556 S
H900 C897 0.950 1_565 S
C901 C892 1.390 . S
C901 H894 0.950 . S
C901 C898 1.387 . S
C902 C903 1.387 . S
C902 H906 0.950 . S
C902 C911 1.390 . S
C903 C902 1.387 . S
C903 C905 1.387 . S
H904 C911 0.950 1_556 S
C905 C903 1.387 . S
C905 C907 1.390 . S
C905 H909 0.950 . S
H906 C902 0.950 . S
C907 C905 1.390 . S
C907 C908 1.382 1_554 S
C907 H910 0.950 . S
C908 C907 1.382 1_556 S
C908 C911 1.385 1_556 S
H909 C905 0.950 . S
H910 C907 0.950 . S
C911 C902 1.390 . S
C911 H904 0.950 1_554 S
C911 C908 1.385 1_554 S
C912 C913 1.366 1_556 S
C912 H916 0.950 . S
C912 C921 1.390 . S
C913 C912 1.366 1_554 S
C913 C915 1.398 . S
H914 C921 0.950 . S
C915 C913 1.398 . S
C915 C917 1.382 1_554 S
C915 H919 0.950 . S
H916 C912 0.950 . S
C917 C915 1.382 1_556 S
C917 C918 1.404 . S
C917 H920 0.942 1_556 S
C918 C917 1.404 . S
C918 C921 1.387 . S
H919 C915 0.950 . S
H920 C917 0.942 1_554 S
C921 C912 1.390 . S
C921 H914 0.950 . S
C921 C918 1.387 . S
C922 C923 1.387 . S
C922 H926 0.950 1_565 S
C922 C931 1.392 . S
C923 C922 1.387 . S
C923 C925 1.387 . S
H924 C931 0.948 1_554 S
C925 C923 1.387 . S
C925 C927 1.390 . S
C925 H929 0.950 . S
H926 C922 0.950 1_545 S
C927 C925 1.390 . S
C927 C928 1.380 1_556 S
C927 H930 0.950 . S
C928 C927 1.380 1_554 S
C928 C931 1.387 1_554 S
H929 C925 0.950 . S
H930 C927 0.950 . S
C931 C922 1.392 . S
C931 H924 0.948 1_556 S
C931 C928 1.387 1_556 S
C932 C933 1.389 . S
C932 H936 0.950 . S
C932 C941 1.390 1_554 S
C933 C932 1.389 . S
C933 C935 1.378 1_554 S
H934 C941 0.950 1_655 S
C935 C933 1.378 1_556 S
C935 C937 1.390 . S
C935 H939 0.950 . S
H936 C932 0.950 . S
C937 C935 1.390 . S
C937 C938 1.387 . S
C937 H940 0.950 . S
C938 C937 1.387 . S
C938 C941 1.387 . S
H939 C935 0.950 . S
H940 C937 0.950 . S
C941 C932 1.390 1_556 S
C941 H934 0.950 1_455 S
C941 C938 1.387 . S
C942 C943 1.387 . S
C942 H946 0.950 . S
C942 C951 1.390 . S
C943 C942 1.387 . S
C943 C945 1.387 . S
H944 C951 0.950 . S
C945 C943 1.387 . S
C945 C947 1.390 . S
C945 H949 0.950 . S
H946 C942 0.950 . S
C947 C945 1.390 . S
C947 C948 1.387 . S
C947 H950 0.950 . S
C948 C947 1.387 . S
C948 C951 1.387 . S
H949 C945 0.950 . S
H950 C947 0.950 . S
C951 C942 1.390 . S
C951 H944 0.950 . S
C951 C948 1.387 . S
C952 C953 1.387 . S
C952 H956 0.950 . S
C952 C961 1.390 . S
C953 C952 1.387 . S
C953 C955 1.387 . S
H954 C961 0.950 . S
C955 C953 1.387 . S
C955 C957 1.390 . S
C955 H959 0.950 . S
H956 C952 0.950 . S
C957 C955 1.390 . S
C957 C958 1.387 . S
C957 H960 0.950 . S
C958 C957 1.387 . S
C958 C961 1.387 . S
H959 C955 0.950 . S
H960 C957 0.950 . S
C961 C952 1.390 . S
C961 H954 0.950 . S
C961 C958 1.387 . S
C962 C963 1.387 . S
C962 H966 0.950 . S
C962 C971 1.390 . S
C963 C962 1.387 . S
C963 C965 1.387 . S
H964 C971 0.950 . S
C965 C963 1.387 . S
C965 C967 1.390 . S
C965 H969 0.950 . S
H966 C962 0.950 . S
C967 C965 1.390 . S
C967 C968 1.387 . S
C967 H970 0.950 . S
C968 C967 1.387 . S
C968 C971 1.387 . S
H969 C965 0.950 . S
H970 C967 0.950 . S
C971 C962 1.390 . S
C971 H964 0.950 . S
C971 C968 1.387 . S
C972 C973 1.387 . S
C972 H976 0.950 . S
C972 C981 1.390 . S
C973 C972 1.387 . S
C973 C975 1.387 . S
H974 C981 0.950 . S
C975 C973 1.387 . S
C975 C977 1.390 . S
C975 H979 0.950 . S
H976 C972 0.950 . S
C977 C975 1.390 . S
C977 C978 1.387 . S
C977 H980 0.950 . S
C978 C977 1.387 . S
C978 C981 1.387 . S
H979 C975 0.950 . S
H980 C977 0.950 . S
C981 C972 1.390 . S
C981 H974 0.950 . S
C981 C978 1.387 . S
C982 C983 1.387 . S
C982 H986 0.950 . S
C982 C991 1.390 . S
C983 C982 1.387 . S
C983 C985 1.387 . S
H984 C991 0.950 . S
C985 C983 1.387 . S
C985 C987 1.390 . S
C985 H989 0.950 . S
H986 C982 0.950 . S
C987 C985 1.390 . S
C987 C988 1.387 . S
C987 H990 0.950 . S
C988 C987 1.387 . S
C988 C991 1.387 . S
H989 C985 0.950 . S
H990 C987 0.950 . S
C991 C982 1.390 . S
C991 H984 0.950 . S
C991 C988 1.387 . S
C992 C993 1.387 . S
C992 H996 0.950 . S
C992 C1001 1.390 . S
C993 C992 1.387 . S
C993 C995 1.387 . S
H994 C1001 0.950 . S
C995 C993 1.387 . S
C995 C997 1.390 . S
C995 H999 0.950 . S
H996 C992 0.950 . S
C997 C995 1.390 . S
C997 C998 1.387 . S
C997 H1000 0.950 . S
C998 C997 1.387 . S
C998 C1001 1.387 . S
H999 C995 0.950 . S
H1000 C997 0.950 . S
C1001 C992 1.390 . S
C1001 H994 0.950 . S
C1001 C998 1.387 . S
C1002 C1003 1.387 . S
C1002 H1006 0.950 . S
C1002 C1011 1.390 . S
C1003 C1002 1.387 . S
C1003 C1005 1.387 . S
H1004 C1011 0.950 . S
C1005 C1003 1.387 . S
C1005 C1007 1.390 . S
C1005 H1009 0.950 . S
H1006 C1002 0.950 . S
C1007 C1005 1.390 . S
C1007 C1008 1.387 . S
C1007 H1010 0.950 . S
C1008 C1007 1.387 . S
C1008 C1011 1.387 . S
H1009 C1005 0.950 . S
H1010 C1007 0.950 . S
C1011 C1002 1.390 . S
C1011 H1004 0.950 . S
C1011 C1008 1.387 . S
C1012 C1013 1.387 . S
C1012 H1016 0.950 . S
C1012 C1021 1.390 . S
C1013 C1012 1.387 . S
C1013 C1015 1.387 . S
H1014 C1021 0.950 . S
C1015 C1013 1.387 . S
C1015 C1017 1.390 . S
C1015 H1019 0.950 . S
H1016 C1012 0.950 . S
C1017 C1015 1.390 . S
C1017 C1018 1.387 . S
C1017 H1020 0.950 . S
C1018 C1017 1.387 . S
C1018 C1021 1.387 . S
H1019 C1015 0.950 . S
H1020 C1017 0.950 . S
C1021 C1012 1.390 . S
C1021 H1014 0.950 . S
C1021 C1018 1.387 . S
C1022 C1023 1.387 . S
C1022 H1026 0.950 . S
C1022 C1031 1.390 . S
C1023 C1022 1.387 . S
C1023 C1025 1.387 . S
H1024 C1031 0.950 . S
C1025 C1023 1.387 . S
C1025 C1027 1.390 . S
C1025 H1029 0.950 . S
H1026 C1022 0.950 . S
C1027 C1025 1.390 . S
C1027 C1028 1.387 . S
C1027 H1030 0.950 . S
C1028 C1027 1.387 . S
C1028 C1031 1.387 . S
H1029 C1025 0.950 . S
H1030 C1027 0.950 . S
C1031 C1022 1.390 . S
C1031 H1024 0.950 . S
C1031 C1028 1.387 . S
C1032 C1033 1.387 . S
C1032 H1036 0.950 . S
C1032 C1041 1.390 . S
C1033 C1032 1.387 . S
C1033 C1035 1.387 . S
H1034 C1041 0.950 . S
C1035 C1033 1.387 . S
C1035 C1037 1.390 . S
C1035 H1039 0.950 . S
H1036 C1032 0.950 . S
C1037 C1035 1.390 . S
C1037 C1038 1.387 . S
C1037 H1040 0.950 . S
C1038 C1037 1.387 . S
C1038 C1041 1.387 . S
H1039 C1035 0.950 . S
H1040 C1037 0.950 . S
C1041 C1032 1.390 . S
C1041 H1034 0.950 . S
C1041 C1038 1.387 . S
C1042 C1043 1.387 . S
C1042 H1046 0.950 . S
C1042 C1051 1.390 . S
C1043 C1042 1.387 . S
C1043 C1045 1.387 . S
H1044 C1051 0.950 . S
C1045 C1043 1.387 . S
C1045 C1047 1.390 . S
C1045 H1049 0.950 . S
H1046 C1042 0.950 . S
C1047 C1045 1.390 . S
C1047 C1048 1.387 . S
C1047 H1050 0.950 . S
C1048 C1047 1.387 . S
C1048 C1051 1.387 . S
H1049 C1045 0.950 . S
H1050 C1047 0.950 . S
C1051 C1042 1.390 . S
C1051 H1044 0.950 . S
C1051 C1048 1.387 . S
C1052 C1053 1.387 . S
C1052 H1056 0.950 . S
C1052 C1061 1.390 . S
C1053 C1052 1.387 . S
C1053 C1055 1.387 . S
H1054 C1061 0.950 . S
C1055 C1053 1.387 . S
C1055 C1057 1.390 . S
C1055 H1059 0.950 . S
H1056 C1052 0.950 . S
C1057 C1055 1.390 . S
C1057 C1058 1.387 . S
C1057 H1060 0.950 . S
C1058 C1057 1.387 . S
C1058 C1061 1.387 . S
H1059 C1055 0.950 . S
H1060 C1057 0.950 . S
C1061 C1052 1.390 . S
C1061 H1054 0.950 . S
C1061 C1058 1.387 . S
C613 C5 1.383 . S
C618 C271 1.403 . S
C623 C39 1.384 . S
C628 C305 1.403 . S
C633 C73 1.383 . S
C638 C237 1.403 . S
C643 C577 1.403 . S
C648 C107 1.383 . S
C653 C141 1.384 . S
C658 C611 1.403 . S
C663 C175 1.382 . S
C668 C543 1.403 . S
C673 C209 1.383 . S
C678 C475 1.403 . S
C683 C509 1.403 . S
C688 C243 1.381 . S
C693 C441 1.406 . S
C698 C277 1.382 . S
C703 C311 1.382 . S
C708 C169 1.403 . S
C713 C345 1.382 . S
C718 C203 1.402 . S
C723 C379 1.384 . S
C728 C135 1.403 . S
C733 C413 1.382 . S
C738 C67 1.403 . S
C743 C447 1.383 . S
C748 C101 1.403 . S
C753 C33 1.404 . S
C758 C481 1.384 . S
C763 C373 1.404 . S
C768 C515 1.383 . S
C773 C549 1.383 . S
C778 C407 1.403 . S
C783 C583 1.383 . S
C788 C339 1.404 . S
C793 C530 1.660 . S
C798 C20 1.660 . S
C803 C564 1.660 . S
C808 C54 1.660 . S
C813 C88 1.659 . S
C818 C598 1.659 . S
C823 C122 1.660 . S
C828 C224 1.660 . S
C833 C156 1.658 . S
C838 C258 1.658 . S
C843 C292 1.659 . S
C848 C190 1.659 . S
C853 C326 1.660 . S
C858 C428 1.660 . S
C863 C462 1.658 . S
C868 C360 1.658 . S
C873 C496 1.660 . S
C878 C394 1.660 . S
C883 C2 1.469 . S
C888 C145 1.443 . S
C893 C179 1.447 . S
C898 C36 1.470 1_545 S
C903 C70 1.470 1_655 S
C908 C111 1.447 . S
C913 C43 1.449 . S
C918 C104 1.471 . S
C923 C138 1.470 1_565 S
C928 C77 1.448 . S
C933 C9 1.448 . S
C938 C172 1.469 1_455 S
C943 C206 1.471 . S
C948 C349 1.440 . S
C953 C383 1.443 . S
C958 C240 1.469 . S
C963 C315 1.442 . S
C968 C274 1.470 . S
C973 C308 1.471 . S
C978 C247 1.440 . S
C983 C281 1.444 . S
C988 C342 1.469 . S
C993 C376 1.469 . S
C998 C213 1.442 . S
C1003 C553 1.440 . S
C1008 C410 1.471 . S
C1013 C587 1.442 . S
C1018 C444 1.469 . S
C1023 C519 1.441 . S
C1028 C478 1.470 . S
C1033 C451 1.440 . S
C1038 C512 1.470 . S
C1043 C485 1.442 . S
C1048 C546 1.470 . S
C1053 C580 1.470 . S
C1058 C417 1.441 . S
