# Generated by pormake.
# Topology unc, (4)-cn, num edge types: 1
# Building blocks:
#     Node 0, Type 0, BuildingBlock: ICAMEG_clean_sbu_1, # of connection points: 4
#     Node 1, Type 0, BuildingBlock: ICAMEG_clean_sbu_1, # of connection points: 4
#     Node 2, Type 0, BuildingBlock: ICAMEG_clean_sbu_1, # of connection points: 4
#     Node 3, Type 0, BuildingBlock: ICAMEG_clean_sbu_1, # of connection points: 4
#     Edge 4, Type (0, 0), BuildingBlock: FUNLAD_clean_linker_1, # of connection points: 2
#     Edge 5, Type (0, 0), BuildingBlock: FUNLAD_clean_linker_1, # of connection points: 2
#     Edge 6, Type (0, 0), BuildingBlock: FUNLAD_clean_linker_1, # of connection points: 2
#     Edge 7, Type (0, 0), BuildingBlock: FUNLAD_clean_linker_1, # of connection points: 2
#     Edge 8, Type (0, 0), BuildingBlock: FUNLAD_clean_linker_1, # of connection points: 2
#     Edge 9, Type (0, 0), BuildingBlock: FUNLAD_clean_linker_1, # of connection points: 2
#     Edge 10, Type (0, 0), BuildingBlock: FUNLAD_clean_linker_1, # of connection points: 2
#     Edge 11, Type (0, 0), BuildingBlock: FUNLAD_clean_linker_1, # of connection points: 2
# Relax obj value: 0.023
# Max RMSD: 0.081
# Mean RMSD: 0.081
data_MOF--net-unc--node1-ICAMEG_clean_sbu_1--edge1-FUNLAD_clean_linker_1
_symmetry_space_group_name_H-M    P1
_symmetry_Int_Tables_number       1
_symmetry_cell_setting            triclinic
loop_
_symmetry_equiv_pos_as_xyz
'x, y, z'
_cell_length_a     33.986843
_cell_length_b     34.023128
_cell_length_c     23.097009
_cell_angle_alpha  89.759995
_cell_angle_beta   89.939864
_cell_angle_gamma 90.153462
loop_
_atom_site_label
_atom_site_type_symbol
_atom_site_fract_x
_atom_site_fract_y
_atom_site_fract_z
_atom_type_partial_charge
Co0 Co 0.06387 0.65771 0.98514 0.0
Co1 Co 0.96757 0.665 0.03515 0.0
O2 O 0.01784 0.68851 0.00973 0.0
C3 C 0.09721 0.72333 0.06058 0.0
O4 O 0.0619 0.7347 0.07599 0.0
C5 C 0.94374 0.71954 0.94007 0.0
O6 O 0.97368 0.70629 0.91014 0.0
O7 O 0.96572 0.62999 0.96597 0.0
O8 O 0.02898 0.62036 0.94189 0.0
H9 H 0.87525 0.55341 0.08017 0.0
H10 H 0.06005 0.74383 0.96101 0.0
O11 O 0.10182 0.69399 0.02697 0.0
H12 H 0.07681 0.68134 0.77057 0.0
H13 H 0.20179 0.63808 0.91044 0.0
H14 H 0.08032 0.57242 0.97719 0.0
H15 H 0.07368 0.64106 0.85932 0.0
H16 H 0.14448 0.67708 0.94136 0.0
O17 O 0.93709 0.70633 0.99093 0.0
H18 H 0.93764 0.58351 0.0478 0.0
H19 H 0.89098 0.69754 0.07603 0.0
H20 H 0.13673 0.53231 0.94586 0.0
H21 H 0.06371 0.78521 0.87357 0.0
H22 H 0.19805 0.56516 0.91227 0.0
H23 H 0.07204 0.75401 0.77733 0.0
O24 O 0.06042 0.62421 0.05629 0.0
H25 H 0.98019 0.79461 0.13716 0.0
H26 H 0.9586 0.65221 0.16251 0.0
H27 H 0.96052 0.695 0.24829 0.0
H28 H 0.97123 0.7668 0.23591 0.0
H29 H 0.97881 0.75062 0.0526 0.0
H30 H 0.82791 0.66869 0.10798 0.0
H31 H 0.81981 0.59611 0.11046 0.0
O32 O 0.99627 0.62337 0.08042 0.0
C33 C 0.99231 0.61347 0.93571 0.0
C34 C 0.87843 0.58507 0.07938 0.0
C35 C 0.85185 0.64977 0.09493 0.0
N36 N 0.91803 0.64222 0.06035 0.0
C37 C 0.91373 0.60228 0.06125 0.0
C38 C 0.8876 0.66594 0.07662 0.0
C39 C 0.84733 0.60905 0.09634 0.0
C40 C 0.06439 0.72997 0.91964 0.0
N41 N 0.06734 0.69003 0.91568 0.0
C42 C 0.06612 0.75359 0.87009 0.0
C43 C 0.0707 0.73607 0.8161 0.0
C44 C 0.07336 0.69531 0.81227 0.0
C45 C 0.07151 0.67264 0.86275 0.0
C46 C 0.17523 0.62343 0.92498 0.0
C47 C 0.10682 0.58694 0.96233 0.0
C48 C 0.14274 0.64536 0.94277 0.0
N49 N 0.10901 0.62704 0.96083 0.0
C50 C 0.13871 0.56407 0.94479 0.0
C51 C 0.17311 0.58252 0.92598 0.0
C52 C 0.03171 0.6117 0.08699 0.0
C53 C 0.97548 0.76338 0.14312 0.0
C54 C 0.96376 0.68333 0.15674 0.0
C55 C 0.96457 0.70746 0.2055 0.0
C56 C 0.97051 0.74775 0.19852 0.0
N57 N 0.96877 0.69886 0.10254 0.0
C58 C 0.97449 0.73834 0.09537 0.0
Co59 Co 0.36613 0.95876 0.26119 0.0
Co60 Co 0.35562 0.05774 0.24644 0.0
O61 O 0.33261 1.00505 0.25085 0.0
C62 C 0.31047 0.9358 0.16723 0.0
O63 O 0.31868 0.96924 0.14143 0.0
C64 C 0.30295 0.10287 0.32524 0.0
O65 O 0.33419 0.11175 0.35602 0.0
O66 O 0.37923 0.04909 0.32457 0.0
O67 O 0.4049 0.98922 0.31043 0.0
H68 H 0.46326 0.15746 0.27352 0.0
H69 H 0.28141 0.95395 0.29102 0.0
O70 O 0.32773 0.92657 0.21432 0.0
H71 H 0.35174 0.91759 0.46998 0.0
H72 H 0.39274 0.81484 0.29439 0.0
H73 H 0.45213 0.94492 0.2572 0.0
H74 H 0.38853 0.93464 0.3813 0.0
H75 H 0.35088 0.87347 0.28292 0.0
O76 O 0.30596 0.07957 0.28227 0.0
H77 H 0.43379 0.09112 0.27458 0.0
H78 H 0.32565 0.13729 0.21274 0.0
H79 H 0.49509 0.88717 0.26911 0.0
H80 H 0.24345 0.93652 0.37854 0.0
H81 H 0.46541 0.82154 0.2879 0.0
H82 H 0.27865 0.91826 0.4689 0.0
O83 O 0.39582 0.97337 0.18969 0.0
H84 H 0.24631 0.0514 0.10035 0.0
H85 H 0.38561 0.08601 0.13164 0.0
H86 H 0.35706 0.09275 0.0341 0.0
H87 H 0.28686 0.07556 0.01799 0.0
H88 H 0.27628 0.04425 0.19701 0.0
H89 H 0.3539 0.20413 0.21118 0.0
H90 H 0.42319 0.21454 0.24172 0.0
O91 O 0.4051 0.03737 0.20827 0.0
C92 C 0.40235 0.02125 0.33905 0.0
C93 C 0.43304 0.15329 0.26005 0.0
C94 C 0.37167 0.17949 0.22506 0.0
N95 N 0.37808 0.1103 0.24368 0.0
C96 C 0.41621 0.11579 0.26052 0.0
C97 C 0.35585 0.14157 0.22603 0.0
C98 C 0.41054 0.18531 0.24222 0.0
C99 C 0.29694 0.94582 0.33007 0.0
N100 N 0.33713 0.94515 0.33092 0.0
C101 C 0.27529 0.93608 0.37955 0.0
C102 C 0.29506 0.92586 0.43023 0.0
C103 C 0.33606 0.92549 0.43088 0.0
C104 C 0.35673 0.93531 0.38055 0.0
C105 C 0.40602 0.84329 0.28631 0.0
C106 C 0.439 0.9165 0.26563 0.0
C107 C 0.38246 0.87657 0.27956 0.0
N108 N 0.39907 0.91263 0.26979 0.0
C109 C 0.46347 0.88388 0.2722 0.0
C110 C 0.4468 0.84707 0.28269 0.0
C111 C 0.41291 1.00618 0.17978 0.0
C112 C 0.27689 0.05911 0.10687 0.0
C113 C 0.35512 0.07819 0.12499 0.0
C114 C 0.33907 0.08223 0.06966 0.0
C115 C 0.29968 0.0726 0.06066 0.0
N116 N 0.33261 0.06482 0.17013 0.0
C117 C 0.29397 0.05534 0.16159 0.0
Co118 Co 0.94415 0.36836 0.51095 0.0
Co119 Co 0.04424 0.36095 0.51447 0.0
O120 O 0.99193 0.33619 0.51353 0.0
C121 C 0.92241 0.29582 0.5828 0.0
O122 O 0.95867 0.28276 0.58172 0.0
C123 C 0.08819 0.31233 0.42858 0.0
O124 O 0.09591 0.34467 0.39937 0.0
O125 O 0.03189 0.38767 0.43934 0.0
O126 O 0.97145 0.40922 0.46163 0.0
H127 H 0.13954 0.47243 0.48508 0.0
H128 H 0.94293 0.28497 0.47076 0.0
O129 O 0.91357 0.32863 0.55916 0.0
H130 H 0.89334 0.36305 0.30635 0.0
H131 H 0.79841 0.39358 0.49625 0.0
H132 H 0.92914 0.45351 0.52521 0.0
H133 H 0.91244 0.39539 0.39729 0.0
H134 H 0.85818 0.35262 0.49553 0.0
O135 O 0.06583 0.31349 0.47297 0.0
H136 H 0.07413 0.44101 0.4888 0.0
H137 H 0.12598 0.33258 0.53863 0.0
H138 H 0.87016 0.49554 0.52615 0.0
H139 H 0.92336 0.25142 0.38117 0.0
H140 H 0.80419 0.46559 0.51149 0.0
H141 H 0.89842 0.29048 0.29795 0.0
O142 O 0.96143 0.39553 0.58302 0.0
H143 H 0.04892 0.24609 0.65209 0.0
H144 H 0.07576 0.38774 0.62869 0.0
H145 H 0.08772 0.35598 0.72301 0.0
H146 H 0.07441 0.2846 0.73519 0.0
H147 H 0.03674 0.27917 0.55866 0.0
H148 H 0.19196 0.36284 0.53548 0.0
H149 H 0.19906 0.43325 0.5085 0.0
O150 O 0.02405 0.40805 0.55816 0.0
C151 C 1.00228 0.40987 0.42995 0.0
C152 C 0.13683 0.44173 0.49698 0.0
C153 C 0.16625 0.38023 0.52527 0.0
N154 N 0.09618 0.38501 0.51393 0.0
C155 C 0.09986 0.42378 0.49918 0.0
C156 C 0.1288 0.36327 0.52702 0.0
C157 C 0.17021 0.41974 0.51011 0.0
C158 C 0.9314 0.3022 0.43546 0.0
N159 N 0.92799 0.34206 0.44014 0.0
C160 C 0.92065 0.28302 0.38448 0.0
C161 C 0.90673 0.30495 0.33777 0.0
C162 C 0.90385 0.34564 0.34247 0.0
C163 C 0.91474 0.36379 0.39417 0.0
C164 C 0.82699 0.40698 0.50257 0.0
C165 C 0.90057 0.44027 0.51856 0.0
C166 C 0.86094 0.38393 0.50232 0.0
N167 N 0.89716 0.40069 0.50995 0.0
C168 C 0.86726 0.46421 0.51924 0.0
C169 C 0.83026 0.44738 0.5111 0.0
C170 C 0.99394 0.41377 0.59021 0.0
C171 C 0.05483 0.27721 0.64733 0.0
C172 C 0.06948 0.35675 0.63365 0.0
C173 C 0.07654 0.33888 0.68717 0.0
C174 C 0.0691 0.29884 0.69396 0.0
N175 N 0.05526 0.3354 0.58814 0.0
C176 C 0.04807 0.2961 0.59446 0.0
Co177 Co 0.66049 0.04716 0.77099 0.0
Co178 Co 0.65695 0.94894 0.73639 0.0
O179 O 0.68686 0.99694 0.75474 0.0
C180 C 0.7219 0.07003 0.68441 0.0
O181 O 0.71136 0.03952 0.65348 0.0
C182 C 0.7268 0.92165 0.80943 0.0
O183 O 0.73794 0.95795 0.81916 0.0
O184 O 0.62674 0.95442 0.80962 0.0
O185 O 0.61551 0.01939 0.81169 0.0
H186 H 0.53304 0.86958 0.71393 0.0
H187 H 0.74392 0.03913 0.8063 0.0
O188 O 0.70481 0.07705 0.73241 0.0
H189 H 0.67103 0.0641 0.9871 0.0
H190 H 0.65487 0.18963 0.82874 0.0
H191 H 0.57818 0.07499 0.76295 0.0
H192 H 0.63636 0.06194 0.89357 0.0
H193 H 0.68753 0.12623 0.81041 0.0
O194 O 0.69628 0.9144 0.77896 0.0
H195 H 0.57209 0.92858 0.73743 0.0
H196 H 0.67778 0.86766 0.69876 0.0
H197 H 0.54428 0.13776 0.78123 0.0
H198 H 0.77992 0.04188 0.89886 0.0
H199 H 0.58271 0.19564 0.81437 0.0
H200 H 0.74339 0.0542 0.99018 0.0
O201 O 0.63245 0.04415 0.69531 0.0
H202 H 0.77977 0.9488 0.61419 0.0
H203 H 0.6355 0.93345 0.6134 0.0
H204 H 0.67224 0.92783 0.52188 0.0
H205 H 0.74497 0.93529 0.52187 0.0
H206 H 0.74186 0.95483 0.7045 0.0
H207 H 0.63989 0.80782 0.67568 0.0
H208 H 0.56697 0.80864 0.68277 0.0
O209 O 0.61606 0.98029 0.69275 0.0
C210 C 0.60915 0.98438 0.82994 0.0
C211 C 0.5648 0.86888 0.71055 0.0
C212 C 0.62477 0.83421 0.68916 0.0
N213 N 0.62715 0.90167 0.7191 0.0
C214 C 0.58706 0.90223 0.72367 0.0
C215 C 0.64608 0.86814 0.70252 0.0
C216 C 0.58385 0.83469 0.69311 0.0
C217 C 0.72786 0.04482 0.84578 0.0
N218 N 0.68804 0.05005 0.84447 0.0
C219 C 0.74839 0.04622 0.8981 0.0
C220 C 0.72787 0.05309 0.94932 0.0
C221 C 0.68727 0.05861 0.94764 0.0
C222 C 0.66775 0.05708 0.89452 0.0
C223 C 0.6378 0.16461 0.8144 0.0
C224 C 0.59506 0.1 0.77766 0.0
C225 C 0.65614 0.12865 0.80382 0.0
N226 N 0.63472 0.09688 0.78598 0.0
C227 C 0.57572 0.13548 0.78781 0.0
C228 C 0.59731 0.16795 0.80635 0.0
C229 C 0.61296 0.01558 0.6742 0.0
C230 C 0.74812 0.94519 0.6137 0.0
C231 C 0.66713 0.93681 0.61391 0.0
C232 C 0.68779 0.93353 0.56186 0.0
C233 C 0.72857 0.9377 0.56189 0.0
N234 N 0.68653 0.94382 0.66472 0.0
C235 C 0.72648 0.94826 0.66492 0.0
H236 H 0.06989 0.56954 0.13399 0.0
C237 C 0.04024 0.58137 0.13187 0.0
H238 H 0.98284 0.57882 0.16653 0.0
H239 H 0.98587 0.40977 0.27431 0.0
H240 H 0.94046 0.40134 0.19451 0.0
H241 H 0.93144 0.45378 0.1217 0.0
H242 H 0.9678 0.51494 0.12815 0.0
C243 C 0.01281 0.56793 0.16942 0.0
C244 C 0.02058 0.53551 0.21227 0.0
C245 C 0.99899 0.4998 0.20821 0.0
C246 C 1.00391 0.46959 0.25062 0.0
C247 C 0.98257 0.43405 0.24434 0.0
C248 C 0.95659 0.42868 0.19844 0.0
C249 C 0.95153 0.45819 0.15744 0.0
C250 C 0.97251 0.49328 0.16185 0.0
H251 H 0.97576 0.4557 0.3751 0.0
C252 C 1.00245 0.43865 0.38146 0.0
H253 H 0.06048 0.42941 0.35158 0.0
H254 H 0.06466 0.601 0.23678 0.0
H255 H 0.11053 0.60883 0.316 0.0
H256 H 0.12065 0.5556 0.38719 0.0
H257 H 0.08454 0.49426 0.37991 0.0
C258 C 0.03289 0.44488 0.3452 0.0
C259 C 0.03011 0.47509 0.29778 0.0
C260 C 0.05251 0.51027 0.30104 0.0
C261 C 0.04735 0.54071 0.25892 0.0
C262 C 0.06837 0.57636 0.2659 0.0
C263 C 0.09461 0.58141 0.31158 0.0
C264 C 0.10026 0.55146 0.35175 0.0
C265 C 0.07938 0.51636 0.34697 0.0
H266 H 0.41456 0.0431 0.42736 0.0
C267 C 0.42654 0.02578 0.39213 0.0
H268 H 0.47358 0.99176 0.3618 0.0
H269 H 0.53222 0.07635 0.61306 0.0
H270 H 0.51283 0.13898 0.57211 0.0
H271 H 0.48438 0.14296 0.47406 0.0
H272 H 0.47335 0.08413 0.41772 0.0
C273 C 0.46209 0.00859 0.39795 0.0
C274 C 0.48523 0.00799 0.4536 0.0
C275 C 0.4952 0.04312 0.48353 0.0
C276 C 0.51562 0.04126 0.53759 0.0
C277 C 0.52014 0.07629 0.56981 0.0
C278 C 0.50864 0.11246 0.54711 0.0
C279 C 0.49235 0.11466 0.49211 0.0
C280 C 0.48569 0.08053 0.46049 0.0
H281 H 0.59599 0.04615 0.59332 0.0
C282 C 0.58717 0.02321 0.62355 0.0
H283 H 0.54588 0.97952 0.64472 0.0
H284 H 0.46943 0.93436 0.41099 0.0
H285 H 0.49508 0.87273 0.44657 0.0
H286 H 0.53881 0.87062 0.53164 0.0
H287 H 0.55633 0.92999 0.5824 0.0
C288 C 0.55426 1.00201 0.61345 0.0
C289 C 0.53056 1.00481 0.55843 0.0
C290 C 0.5221 0.96989 0.52708 0.0
C291 C 0.49848 0.97134 0.47601 0.0
C292 C 0.48852 0.9355 0.44836 0.0
C293 C 0.50286 0.8997 0.46856 0.0
C294 C 0.52735 0.89849 0.51654 0.0
C295 C 0.53696 0.93298 0.54556 0.0
H296 H 0.94887 0.57632 0.88946 0.0
C297 C 0.97975 0.58466 0.89115 0.0
H298 H 0.0362 0.57639 0.85517 0.0
H299 H 0.01363 0.41108 0.74296 0.0
H300 H 0.0584 0.39631 0.82158 0.0
H301 H 0.07371 0.446 0.89575 0.0
H302 H 0.04426 0.51071 0.89186 0.0
C303 C 1.00515 0.56888 0.85282 0.0
C304 C 0.99343 0.53839 0.80938 0.0
C305 C 0.01098 0.50057 0.812 0.0
C306 C 1.00243 0.47194 0.76885 0.0
C307 C 0.01978 0.43425 0.7736 0.0
C308 C 0.04535 0.42525 0.81879 0.0
C309 C 0.05395 0.45321 0.86056 0.0
C310 C 0.03693 0.49037 0.85762 0.0
H311 H 0.02672 0.45727 0.64171 0.0
C312 C 0.99818 0.44307 0.63713 0.0
H313 H 0.94036 0.43927 0.67061 0.0
H314 H 0.95693 0.60876 0.78749 0.0
H315 H 0.91167 0.623 0.7094 0.0
H316 H 0.89508 0.57255 0.63697 0.0
H317 H 0.92409 0.50757 0.6419 0.0
C318 C 0.9695 0.4521 0.67501 0.0
C319 C 0.97659 0.48115 0.7225 0.0
C320 C 0.95828 0.51855 0.72057 0.0
C321 C 0.96713 0.5474 0.76339 0.0
C322 C 0.95024 0.58523 0.75778 0.0
C323 C 0.92441 0.59395 0.71276 0.0
C324 C 0.91512 0.56557 0.67191 0.0
C325 C 0.93193 0.52835 0.67534 0.0
H326 H 0.46031 0.03643 0.13144 0.0
C327 C 0.44359 0.00919 0.1342 0.0
H328 H 0.43225 0.95454 0.09431 0.0
H329 H 0.49456 0.01686 0.85015 0.0
H330 H 0.42411 0.02297 0.83572 0.0
H331 H 0.37785 0.01311 0.91691 0.0
H332 H 0.40166 0.99689 0.01305 0.0
C333 C 0.44999 0.98116 0.09434 0.0
C334 C 0.47839 0.98753 0.04554 0.0
C335 C 0.46411 0.99691 0.98947 0.0
C336 C 0.49088 1.00298 0.94266 0.0
C337 C 0.47561 0.01225 0.88726 0.0
C338 C 0.43524 0.0158 0.87836 0.0
C339 C 0.40918 0.0102 0.92407 0.0
C340 C 0.42325 1.00084 0.97903 0.0
H341 H 0.57642 0.9479 0.8934 0.0
C342 C 0.58036 0.97777 0.87749 0.0
H343 H 0.56254 0.03695 0.88634 0.0
H344 H 0.51569 0.96856 0.14656 0.0
H345 H 0.58622 0.96485 0.16194 0.0
H346 H 0.63265 0.97798 0.08194 0.0
H347 H 0.60895 0.99437 0.98589 0.0
C348 C 0.55994 0.00704 0.90262 0.0
C349 C 0.53202 0.9996 0.95172 0.0
C350 C 0.54635 0.99072 0.00801 0.0
C351 C 0.51953 0.98425 0.0547 0.0
C352 C 0.53472 0.97451 0.10995 0.0
C353 C 0.57513 0.97219 0.11933 0.0
C354 C 0.60128 0.97949 0.07425 0.0
C355 C 0.58725 0.9887 0.0192 0.0
H356 H 0.26147 0.9217 0.10769 0.0
C357 C 0.27864 0.91045 0.14377 0.0
H358 H 0.28587 0.86431 0.20394 0.0
H359 H 0.11598 0.79385 0.20567 0.0
H360 H 0.12213 0.81942 0.30294 0.0
H361 H 0.17883 0.86069 0.33033 0.0
H362 H 0.22994 0.87632 0.26089 0.0
C363 C 0.26937 0.87512 0.1669 0.0
C364 C 0.23404 0.85177 0.1482 0.0
C365 C 0.2038 0.8434 0.18899 0.0
C366 C 0.17047 0.82038 0.17273 0.0
C367 C 0.14147 0.8118 0.2151 0.0
C368 C 0.14467 0.8262 0.27126 0.0
C369 C 0.17663 0.84936 0.28672 0.0
C370 C 0.20589 0.85797 0.24634 0.0
H371 H 0.16116 0.73231 0.07257 0.0
C372 C 0.13256 0.7459 0.07865 0.0
H373 H 0.1022 0.79674 0.10491 0.0
H374 H 0.28849 0.85716 0.06095 0.0
H375 H 0.28039 0.8354 0.96197 0.0
H376 H 0.2193 0.80242 0.93088 0.0
H377 H 0.16649 0.78997 0.99892 0.0
C378 C 0.13073 0.78306 0.09857 0.0
C379 C 0.16669 0.80623 0.11523 0.0
C380 C 0.19643 0.81552 0.07392 0.0
C381 C 0.23066 0.83704 0.09092 0.0
C382 C 0.26106 0.84295 0.04982 0.0
C383 C 0.25693 0.83032 0.99288 0.0
C384 C 0.22263 0.81158 0.97545 0.0
C385 C 0.19264 0.80426 0.01522 0.0
H386 H 0.24433 0.12381 0.29766 0.0
C387 C 0.26615 0.12586 0.3319 0.0
H388 H 0.28309 0.15443 0.40851 0.0
H389 H 0.19944 0.31554 0.38173 0.0
H390 H 0.26827 0.3335 0.38011 0.0
H391 H 0.31978 0.28283 0.37342 0.0
H392 H 0.30276 0.21387 0.36953 0.0
C393 C 0.26074 0.1518 0.37513 0.0
C394 C 0.22856 0.18201 0.3742 0.0
C395 C 0.23886 0.22253 0.37424 0.0
C396 C 0.20902 0.25191 0.37561 0.0
C397 C 0.22057 0.29195 0.37863 0.0
C398 C 0.26011 0.30276 0.37804 0.0
C399 C 0.28909 0.27424 0.37447 0.0
C400 C 0.27882 0.23463 0.37257 0.0
H401 H 0.11011 0.25329 0.45172 0.0
C402 C 0.11175 0.27626 0.41894 0.0
H403 H 0.14023 0.29621 0.34344 0.0
H404 H 0.19775 0.10767 0.38192 0.0
H405 H 0.12884 0.08963 0.37643 0.0
H406 H 0.07756 0.14035 0.36639 0.0
H407 H 0.09481 0.2095 0.36352 0.0
C408 C 0.13787 0.27275 0.37534 0.0
C409 C 0.16862 0.24107 0.37454 0.0
C410 C 0.15828 0.20058 0.37256 0.0
C411 C 0.18815 0.1711 0.37447 0.0
C412 C 0.1766 0.13114 0.37731 0.0
C413 C 0.13708 0.12037 0.37468 0.0
C414 C 0.10819 0.14894 0.36931 0.0
C415 C 0.11849 0.18859 0.3682 0.0
H416 H 0.77036 0.08701 0.6251 0.0
C417 C 0.7541 0.09603 0.66332 0.0
H418 H 0.74778 0.139 0.72821 0.0
H419 H 0.91564 0.21508 0.71996 0.0
H420 H 0.91553 0.18377 0.81444 0.0
H421 H 0.86177 0.13899 0.84339 0.0
H422 H 0.80763 0.12539 0.7783 0.0
C423 C 0.76346 0.13027 0.68931 0.0
C424 C 0.79698 0.15591 0.66959 0.0
C425 C 0.82887 0.16323 0.70779 0.0
C426 C 0.86037 0.18857 0.69065 0.0
C427 C 0.89131 0.19571 0.73031 0.0
C428 C 0.89159 0.17799 0.78477 0.0
C429 C 0.86128 0.15283 0.80111 0.0
C430 C 0.83028 0.14539 0.7633 0.0
H431 H 0.86085 0.28377 0.60862 0.0
C432 C 0.88995 0.27076 0.60533 0.0
H433 H 0.92323 0.2188 0.61439 0.0
H434 H 0.73842 0.15308 0.58811 0.0
H435 H 0.74012 0.18175 0.49203 0.0
H436 H 0.79758 0.22019 0.45898 0.0
H437 H 0.8532 0.23105 0.52232 0.0
C438 C 0.89428 0.23215 0.61703 0.0
C439 C 0.86039 0.20643 0.63503 0.0
C440 C 0.82887 0.19854 0.59631 0.0
C441 C 0.79667 0.17428 0.61418 0.0
C442 C 0.76446 0.16945 0.57598 0.0
C443 C 0.7649 0.18603 0.52076 0.0
C444 C 0.79717 0.20783 0.50224 0.0
C445 C 0.82883 0.21408 0.53931 0.0
H446 H 0.7372 0.85903 0.83057 0.0
C447 C 0.75049 0.88812 0.83137 0.0
H448 H 0.80132 0.92115 0.85054 0.0
H449 H 0.88672 0.80881 0.02427 0.0
H450 H 0.87185 0.86496 0.08437 0.0
H451 H 0.8289 0.91809 0.04871 0.0
H452 H 0.8009 0.91562 0.95246 0.0
C453 C 0.78804 0.89207 0.84943 0.0
C454 C 0.81211 0.85814 0.87154 0.0
C455 C 0.82767 0.85941 0.92857 0.0
C456 C 0.85167 0.82815 0.94978 0.0
C457 C 0.86763 0.83112 0.00628 0.0
C458 C 0.85946 0.86331 0.04128 0.0
C459 C 0.83535 0.89325 0.02116 0.0
C460 C 0.81957 0.8915 0.96562 0.0
H461 H 0.92844 0.76492 0.87502 0.0
C462 C 0.9185 0.75077 0.91471 0.0
H463 H 0.87433 0.74817 0.97872 0.0
H464 H 0.79321 0.84836 0.75697 0.0
H465 H 0.80455 0.79039 0.69902 0.0
H466 H 0.83882 0.73284 0.73991 0.0
H467 H 0.86307 0.73346 0.83841 0.0
C468 C 0.88402 0.76186 0.93854 0.0
C469 C 0.85958 0.79493 0.91463 0.0
C470 C 0.84325 0.79317 0.85803 0.0
C471 C 0.82085 0.82534 0.83576 0.0
C472 C 0.80815 0.82399 0.77741 0.0
C473 C 0.81482 0.79099 0.74337 0.0
C474 C 0.8343 0.75868 0.76628 0.0
C475 C 0.84839 0.75958 0.82285 0.0
loop_
_geom_bond_atom_site_label_1
_geom_bond_atom_site_label_2
_geom_bond_distance
_geom_bond_site_symmetry_2
_ccdc_geom_bond_type
Co0 O2 2.143 . S
Co0 O8 2.074 . S
Co0 O11 2.093 1_556 S
Co0 O24 2.097 1_556 S
Co0 N41 2.151 . S
Co0 N49 2.214 1_556 S
Co1 O2 2.159 1_654 S
Co1 O7 2.058 1_554 S
Co1 O17 2.057 1_554 S
Co1 O32 2.037 . S
Co1 N36 2.145 . S
Co1 N57 2.257 . S
O2 Co0 2.143 . S
O2 Co1 2.159 1_456 S
C3 O4 1.278 . S
C3 O11 1.224 . S
O4 C3 1.278 . S
C5 O6 1.245 . S
C5 O17 1.232 . S
O6 C5 1.245 . S
O7 Co1 2.058 1_556 S
O7 C33 1.269 . S
O8 Co0 2.074 . S
O8 C33 1.257 1_455 S
H9 C34 0.930 . S
H10 C40 0.930 . S
O11 Co0 2.093 1_554 S
O11 C3 1.224 . S
H12 C44 0.929 . S
H13 C46 0.930 . S
H14 C47 0.930 . S
H15 C45 0.929 . S
H16 C48 0.928 . S
O17 Co1 2.057 1_556 S
O17 C5 1.232 . S
H18 C37 0.929 . S
H19 C38 0.926 1_556 S
H20 C50 0.931 . S
H21 C42 0.929 . S
H22 C51 0.931 . S
H23 C43 0.931 . S
O24 Co0 2.097 1_554 S
O24 C52 1.214 . S
H25 C53 0.929 . S
H26 C54 0.929 . S
H27 C55 0.930 . S
H28 C56 0.929 . S
H29 C58 0.930 . S
H30 C35 0.930 . S
H31 C39 0.930 . S
O32 Co1 2.037 . S
O32 C52 1.234 1_655 S
C33 O7 1.269 . S
C33 O8 1.257 1_655 S
C34 H9 0.930 . S
C34 C37 1.388 . S
C34 C39 1.418 . S
C35 H30 0.930 . S
C35 C38 1.404 . S
C35 C39 1.353 . S
N36 Co1 2.145 . S
N36 C37 1.397 . S
N36 C38 1.334 . S
C37 H18 0.929 . S
C37 C34 1.388 . S
C37 N36 1.397 . S
C38 H19 0.926 1_554 S
C38 C35 1.404 . S
C38 N36 1.334 . S
C39 H31 0.930 . S
C39 C34 1.418 . S
C39 C35 1.353 . S
C40 H10 0.930 . S
C40 N41 1.330 . S
C40 C42 1.446 . S
N41 Co0 2.151 . S
N41 C40 1.330 . S
N41 C45 1.418 . S
C42 H21 0.929 . S
C42 C40 1.446 . S
C42 C43 1.332 . S
C43 H23 0.931 . S
C43 C42 1.332 . S
C43 C44 1.267 . S
C44 H12 0.929 . S
C44 C43 1.267 . S
C44 C45 1.251 . S
C45 H15 0.929 . S
C45 N41 1.418 . S
C45 C44 1.251 . S
C46 H13 0.930 . S
C46 C48 1.406 . S
C46 C51 1.263 . S
C47 H14 0.930 . S
C47 N49 1.326 . S
C47 C50 1.357 . S
C48 H16 0.928 . S
C48 C46 1.406 . S
C48 N49 1.261 1_556 S
N49 Co0 2.214 1_554 S
N49 C47 1.326 . S
N49 C48 1.261 1_554 S
C50 H20 0.931 . S
C50 C47 1.357 . S
C50 C51 1.310 1_554 S
C51 H22 0.931 . S
C51 C46 1.263 . S
C51 C50 1.310 1_556 S
C52 O24 1.214 . S
C52 O32 1.234 1_455 S
C53 H25 0.929 . S
C53 C56 1.391 . S
C53 C58 1.391 . S
C54 H26 0.929 . S
C54 C55 1.390 . S
C54 N57 1.391 . S
C55 H27 0.930 . S
C55 C54 1.390 . S
C55 C56 1.392 . S
C56 H28 0.929 . S
C56 C53 1.391 . S
C56 C55 1.392 . S
N57 Co1 2.257 . S
N57 C54 1.391 . S
N57 C58 1.388 . S
C58 H29 0.930 . S
C58 C53 1.391 . S
C58 N57 1.388 . S
Co59 O61 2.141 1_565 S
Co59 O67 2.074 . S
Co59 O70 2.093 . S
Co59 O83 2.097 . S
Co59 N100 2.151 . S
Co59 N108 2.214 . S
Co60 O61 2.162 . S
Co60 O66 2.058 . S
Co60 O76 2.057 . S
Co60 O91 2.037 . S
Co60 N95 2.145 . S
Co60 N116 2.257 . S
O61 Co59 2.141 1_545 S
O61 Co60 2.162 . S
C62 O63 1.278 . S
C62 O70 1.224 . S
O63 C62 1.278 . S
C64 O65 1.245 . S
C64 O76 1.232 . S
O65 C64 1.245 . S
O66 Co60 2.058 . S
O66 C92 1.269 . S
O67 Co59 2.074 . S
O67 C92 1.257 1_565 S
H68 C93 0.930 . S
H69 C99 0.930 . S
O70 Co59 2.093 . S
O70 C62 1.224 . S
H71 C103 0.929 . S
H72 C105 0.930 . S
H73 C106 0.930 . S
H74 C104 0.929 . S
H75 C107 0.928 . S
O76 Co60 2.057 . S
O76 C64 1.232 . S
H77 C96 0.929 . S
H78 C97 0.929 . S
H79 C109 0.931 . S
H80 C101 0.929 . S
H81 C110 0.930 . S
H82 C102 0.931 . S
O83 Co59 2.097 . S
O83 C111 1.214 . S
H84 C112 0.929 . S
H85 C113 0.929 . S
H86 C114 0.930 . S
H87 C115 0.929 . S
H88 C117 0.930 . S
H89 C94 0.930 . S
H90 C98 0.930 . S
O91 Co60 2.037 . S
O91 C111 1.234 1_545 S
C92 O66 1.269 . S
C92 O67 1.257 1_545 S
C93 H68 0.930 . S
C93 C96 1.388 . S
C93 C98 1.418 . S
C94 H89 0.930 . S
C94 C97 1.404 . S
C94 C98 1.353 . S
N95 Co60 2.145 . S
N95 C96 1.397 . S
N95 C97 1.334 . S
C96 H77 0.929 . S
C96 C93 1.388 . S
C96 N95 1.397 . S
C97 H78 0.929 . S
C97 C94 1.404 . S
C97 N95 1.334 . S
C98 H90 0.930 . S
C98 C93 1.418 . S
C98 C94 1.353 . S
C99 H69 0.930 . S
C99 N100 1.330 . S
C99 C101 1.446 . S
N100 Co59 2.151 . S
N100 C99 1.330 . S
N100 C104 1.418 . S
C101 H80 0.929 . S
C101 C99 1.446 . S
C101 C102 1.332 . S
C102 H82 0.931 . S
C102 C101 1.332 . S
C102 C103 1.267 . S
C103 H71 0.929 . S
C103 C102 1.267 . S
C103 C104 1.251 . S
C104 H74 0.929 . S
C104 N100 1.418 . S
C104 C103 1.251 . S
C105 H72 0.930 . S
C105 C107 1.406 . S
C105 C110 1.261 . S
C106 H73 0.930 . S
C106 N108 1.325 . S
C106 C109 1.357 . S
C107 H75 0.928 . S
C107 C105 1.406 . S
C107 N108 1.261 . S
N108 Co59 2.214 . S
N108 C106 1.325 . S
N108 C107 1.261 . S
C109 H79 0.931 . S
C109 C106 1.357 . S
C109 C110 1.312 . S
C110 H81 0.930 . S
C110 C105 1.261 . S
C110 C109 1.312 . S
C111 O83 1.214 . S
C111 O91 1.234 1_565 S
C112 H84 0.929 . S
C112 C115 1.391 . S
C112 C117 1.391 . S
C113 H85 0.929 . S
C113 C114 1.390 . S
C113 N116 1.391 . S
C114 H86 0.930 . S
C114 C113 1.390 . S
C114 C115 1.392 . S
C115 H87 0.929 . S
C115 C112 1.391 . S
C115 C114 1.392 . S
N116 Co60 2.257 . S
N116 C113 1.391 . S
N116 C117 1.388 . S
C117 H88 0.930 . S
C117 C112 1.391 . S
C117 N116 1.388 . S
Co118 O120 2.140 1_655 S
Co118 O126 2.074 . S
Co118 O129 2.093 . S
Co118 O142 2.097 . S
Co118 N159 2.151 . S
Co118 N167 2.214 . S
Co119 O120 2.162 . S
Co119 O125 2.058 . S
Co119 O135 2.057 . S
Co119 O150 2.037 . S
Co119 N154 2.145 . S
Co119 N175 2.257 . S
O120 Co118 2.140 1_455 S
O120 Co119 2.162 . S
C121 O122 1.278 . S
C121 O129 1.224 . S
O122 C121 1.278 . S
C123 O124 1.245 . S
C123 O135 1.232 . S
O124 C123 1.245 . S
O125 Co119 2.058 . S
O125 C151 1.269 . S
O126 Co118 2.074 . S
O126 C151 1.257 1_655 S
H127 C152 0.930 . S
H128 C158 0.930 . S
O129 Co118 2.093 . S
O129 C121 1.224 . S
H130 C162 0.929 . S
H131 C164 0.930 . S
H132 C165 0.930 . S
H133 C163 0.929 . S
H134 C166 0.928 . S
O135 Co119 2.057 . S
O135 C123 1.232 . S
H136 C155 0.929 . S
H137 C156 0.929 . S
H138 C168 0.931 . S
H139 C160 0.929 . S
H140 C169 0.930 . S
H141 C161 0.931 . S
O142 Co118 2.097 . S
O142 C170 1.214 . S
H143 C171 0.929 . S
H144 C172 0.929 . S
H145 C173 0.930 . S
H146 C174 0.929 . S
H147 C176 0.930 . S
H148 C153 0.930 . S
H149 C157 0.930 . S
O150 Co119 2.037 . S
O150 C170 1.234 1_455 S
C151 O125 1.269 . S
C151 O126 1.257 1_455 S
C152 H127 0.930 . S
C152 C155 1.388 . S
C152 C157 1.418 . S
C153 H148 0.930 . S
C153 C156 1.404 . S
C153 C157 1.353 . S
N154 Co119 2.145 . S
N154 C155 1.397 . S
N154 C156 1.334 . S
C155 H136 0.929 . S
C155 C152 1.388 . S
C155 N154 1.397 . S
C156 H137 0.929 . S
C156 C153 1.404 . S
C156 N154 1.334 . S
C157 H149 0.930 . S
C157 C152 1.418 . S
C157 C153 1.353 . S
C158 H128 0.930 . S
C158 N159 1.330 . S
C158 C160 1.446 . S
N159 Co118 2.151 . S
N159 C158 1.330 . S
N159 C163 1.418 . S
C160 H139 0.929 . S
C160 C158 1.446 . S
C160 C161 1.332 . S
C161 H141 0.931 . S
C161 C160 1.332 . S
C161 C162 1.267 . S
C162 H130 0.929 . S
C162 C161 1.267 . S
C162 C163 1.251 . S
C163 H133 0.929 . S
C163 N159 1.418 . S
C163 C162 1.251 . S
C164 H131 0.930 . S
C164 C166 1.406 . S
C164 C169 1.261 . S
C165 H132 0.930 . S
C165 N167 1.325 . S
C165 C168 1.357 . S
C166 H134 0.928 . S
C166 C164 1.406 . S
C166 N167 1.261 . S
N167 Co118 2.214 . S
N167 C165 1.325 . S
N167 C166 1.261 . S
C168 H138 0.931 . S
C168 C165 1.357 . S
C168 C169 1.312 . S
C169 H140 0.930 . S
C169 C164 1.261 . S
C169 C168 1.312 . S
C170 O142 1.214 . S
C170 O150 1.234 1_655 S
C171 H143 0.929 . S
C171 C174 1.391 . S
C171 C176 1.391 . S
C172 H144 0.929 . S
C172 C173 1.390 . S
C172 N175 1.391 . S
C173 H145 0.930 . S
C173 C172 1.390 . S
C173 C174 1.392 . S
C174 H146 0.929 . S
C174 C171 1.391 . S
C174 C173 1.392 . S
N175 Co119 2.257 . S
N175 C172 1.391 . S
N175 C176 1.388 . S
C176 H147 0.930 . S
C176 C171 1.391 . S
C176 N175 1.388 . S
Co177 O179 2.143 . S
Co177 O185 2.074 . S
Co177 O188 2.093 . S
Co177 O201 2.097 . S
Co177 N218 2.151 . S
Co177 N226 2.214 . S
Co178 O179 2.160 1_565 S
Co178 O184 2.058 . S
Co178 O194 2.057 . S
Co178 O209 2.037 . S
Co178 N213 2.145 . S
Co178 N234 2.257 . S
O179 Co177 2.143 . S
O179 Co178 2.160 1_545 S
C180 O181 1.278 . S
C180 O188 1.224 . S
O181 C180 1.278 . S
C182 O183 1.245 . S
C182 O194 1.232 . S
O183 C182 1.245 . S
O184 Co178 2.058 . S
O184 C210 1.269 . S
O185 Co177 2.074 . S
O185 C210 1.257 1_545 S
H186 C211 0.930 . S
H187 C217 0.930 . S
O188 Co177 2.093 . S
O188 C180 1.224 . S
H189 C221 0.929 . S
H190 C223 0.930 . S
H191 C224 0.930 . S
H192 C222 0.929 . S
H193 C225 0.928 . S
O194 Co178 2.057 . S
O194 C182 1.232 . S
H195 C214 0.929 . S
H196 C215 0.929 . S
H197 C227 0.931 . S
H198 C219 0.929 . S
H199 C228 0.930 . S
H200 C220 0.931 . S
O201 Co177 2.097 . S
O201 C229 1.214 . S
H202 C230 0.929 . S
H203 C231 0.929 . S
H204 C232 0.930 . S
H205 C233 0.929 . S
H206 C235 0.930 . S
H207 C212 0.930 . S
H208 C216 0.930 . S
O209 Co178 2.037 . S
O209 C229 1.234 1_565 S
C210 O184 1.269 . S
C210 O185 1.257 1_565 S
C211 H186 0.930 . S
C211 C214 1.388 . S
C211 C216 1.418 . S
C212 H207 0.930 . S
C212 C215 1.404 . S
C212 C216 1.353 . S
N213 Co178 2.145 . S
N213 C214 1.397 . S
N213 C215 1.334 . S
C214 H195 0.929 . S
C214 C211 1.388 . S
C214 N213 1.397 . S
C215 H196 0.929 . S
C215 C212 1.404 . S
C215 N213 1.334 . S
C216 H208 0.930 . S
C216 C211 1.418 . S
C216 C212 1.353 . S
C217 H187 0.930 . S
C217 N218 1.330 . S
C217 C219 1.446 . S
N218 Co177 2.151 . S
N218 C217 1.330 . S
N218 C222 1.418 . S
C219 H198 0.929 . S
C219 C217 1.446 . S
C219 C220 1.332 . S
C220 H200 0.931 . S
C220 C219 1.332 . S
C220 C221 1.267 . S
C221 H189 0.929 . S
C221 C220 1.267 . S
C221 C222 1.251 . S
C222 H192 0.929 . S
C222 N218 1.418 . S
C222 C221 1.251 . S
C223 H190 0.930 . S
C223 C225 1.406 . S
C223 C228 1.261 . S
C224 H191 0.930 . S
C224 N226 1.325 . S
C224 C227 1.357 . S
C225 H193 0.928 . S
C225 C223 1.406 . S
C225 N226 1.261 . S
N226 Co177 2.214 . S
N226 C224 1.325 . S
N226 C225 1.261 . S
C227 H197 0.931 . S
C227 C224 1.357 . S
C227 C228 1.312 . S
C228 H199 0.930 . S
C228 C223 1.261 . S
C228 C227 1.312 . S
C229 O201 1.214 . S
C229 O209 1.234 1_545 S
C230 H202 0.929 . S
C230 C233 1.391 . S
C230 C235 1.391 . S
C231 H203 0.929 . S
C231 C232 1.390 . S
C231 N234 1.391 . S
C232 H204 0.930 . S
C232 C231 1.390 . S
C232 C233 1.392 . S
C233 H205 0.929 . S
C233 C230 1.391 . S
C233 C232 1.392 . S
N234 Co178 2.257 . S
N234 C231 1.391 . S
N234 C235 1.388 . S
C235 H206 0.930 . S
C235 C230 1.391 . S
C235 N234 1.388 . S
H236 C237 0.951 . S
C237 H236 0.951 . S
C237 C243 1.265 1_455 S
H238 C243 0.950 . S
H239 C247 0.949 . S
H240 C248 0.950 . S
H241 C249 0.951 . S
H242 C250 0.951 . S
C243 C237 1.265 1_655 S
C243 H238 0.950 . S
C243 C244 1.477 1_655 S
C244 C243 1.477 1_455 S
C244 C245 1.395 1_455 S
C244 C261 1.396 . S
C245 C244 1.395 1_655 S
C245 C246 1.438 . S
C245 C250 1.429 . S
C246 C245 1.438 . S
C246 C247 1.428 . S
C246 C259 1.394 1_655 S
C247 H239 0.949 . S
C247 C246 1.428 . S
C247 C248 1.345 . S
C248 H240 0.950 . S
C248 C247 1.345 . S
C248 C249 1.424 . S
C249 H241 0.951 . S
C249 C248 1.424 . S
C249 C250 1.347 . S
C250 H242 0.951 . S
C250 C245 1.429 . S
C250 C249 1.347 . S
H251 C252 0.951 1_655 S
C252 H251 0.951 1_455 S
C252 C258 1.265 . S
H253 C258 0.950 . S
H254 C262 0.949 . S
H255 C263 0.950 . S
H256 C264 0.951 . S
H257 C265 0.951 . S
C258 C252 1.265 . S
C258 H253 0.950 . S
C258 C259 1.478 . S
C259 C246 1.394 1_455 S
C259 C258 1.478 . S
C259 C260 1.397 . S
C260 C259 1.397 . S
C260 C261 1.438 . S
C260 C265 1.429 . S
C261 C244 1.396 . S
C261 C260 1.438 . S
C261 C262 1.428 . S
C262 H254 0.949 . S
C262 C261 1.428 . S
C262 C263 1.345 . S
C263 H255 0.950 . S
C263 C262 1.345 . S
C263 C264 1.424 . S
C264 H256 0.951 . S
C264 C263 1.424 . S
C264 C265 1.347 . S
C265 H257 0.951 . S
C265 C260 1.429 . S
C265 C264 1.347 . S
H266 C267 0.951 . S
C267 H266 0.951 . S
C267 C273 1.265 . S
H268 C273 0.950 . S
H269 C277 0.949 . S
H270 C278 0.950 . S
H271 C279 0.951 . S
H272 C280 0.951 . S
C273 C267 1.265 . S
C273 H268 0.950 . S
C273 C274 1.478 . S
C274 C273 1.478 . S
C274 C275 1.397 . S
C274 C291 1.394 1_545 S
C275 C274 1.397 . S
C275 C276 1.438 . S
C275 C280 1.429 . S
C276 C275 1.438 . S
C276 C277 1.428 . S
C276 C289 1.394 . S
C277 H269 0.949 . S
C277 C276 1.428 . S
C277 C278 1.345 . S
C278 H270 0.950 . S
C278 C277 1.345 . S
C278 C279 1.424 . S
C279 H271 0.951 . S
C279 C278 1.424 . S
C279 C280 1.347 . S
C280 H272 0.951 . S
C280 C275 1.429 . S
C280 C279 1.347 . S
H281 C282 0.951 . S
C282 H281 0.951 . S
C282 C288 1.265 . S
H283 C288 0.950 . S
H284 C292 0.949 . S
H285 C293 0.950 . S
H286 C294 0.951 . S
H287 C295 0.951 . S
C288 C282 1.265 . S
C288 H283 0.950 . S
C288 C289 1.478 . S
C289 C276 1.394 . S
C289 C288 1.478 . S
C289 C290 1.397 1_545 S
C290 C289 1.397 1_565 S
C290 C291 1.438 . S
C290 C295 1.429 . S
C291 C274 1.394 1_565 S
C291 C290 1.438 . S
C291 C292 1.428 . S
C292 H284 0.949 . S
C292 C291 1.428 . S
C292 C293 1.345 . S
C293 H285 0.950 . S
C293 C292 1.345 . S
C293 C294 1.424 . S
C294 H286 0.951 . S
C294 C293 1.424 . S
C294 C295 1.347 . S
C295 H287 0.951 . S
C295 C290 1.429 . S
C295 C294 1.347 . S
H296 C297 0.951 . S
C297 H296 0.951 . S
C297 C303 1.265 1_655 S
H298 C303 0.950 . S
H299 C307 0.949 . S
H300 C308 0.950 . S
H301 C309 0.951 . S
H302 C310 0.951 . S
C303 C297 1.265 1_455 S
C303 H298 0.950 . S
C303 C304 1.478 . S
C304 C303 1.478 . S
C304 C305 1.397 . S
C304 C321 1.394 1_455 S
C305 C304 1.397 . S
C305 C306 1.438 . S
C305 C310 1.429 . S
C306 C305 1.438 . S
C306 C307 1.428 . S
C306 C319 1.394 1_455 S
C307 H299 0.949 . S
C307 C306 1.428 . S
C307 C308 1.345 . S
C308 H300 0.950 . S
C308 C307 1.345 . S
C308 C309 1.424 . S
C309 H301 0.951 . S
C309 C308 1.424 . S
C309 C310 1.347 . S
C310 H302 0.951 . S
C310 C305 1.429 . S
C310 C309 1.347 . S
H311 C312 0.951 . S
C312 H311 0.951 . S
C312 C318 1.265 1_455 S
H313 C318 0.950 . S
H314 C322 0.949 . S
H315 C323 0.950 . S
H316 C324 0.951 . S
H317 C325 0.951 . S
C318 C312 1.265 1_655 S
C318 H313 0.950 . S
C318 C319 1.478 . S
C319 C306 1.394 1_655 S
C319 C318 1.478 . S
C319 C320 1.397 . S
C320 C319 1.397 . S
C320 C321 1.438 . S
C320 C325 1.429 . S
C321 C304 1.394 1_655 S
C321 C320 1.438 . S
C321 C322 1.428 . S
C322 H314 0.949 . S
C322 C321 1.428 . S
C322 C323 1.345 . S
C323 H315 0.950 . S
C323 C322 1.345 . S
C323 C324 1.424 . S
C324 H316 0.951 . S
C324 C323 1.424 . S
C324 C325 1.347 . S
C325 H317 0.951 . S
C325 C320 1.429 . S
C325 C324 1.347 . S
H326 C327 0.974 . S
C327 H326 0.974 . S
C327 C333 1.250 1_545 S
H328 C333 0.950 . S
H329 C337 0.949 . S
H330 C338 0.950 . S
H331 C339 0.951 . S
H332 C340 0.951 1_565 S
C333 C327 1.250 1_565 S
C333 H328 0.950 . S
C333 C334 1.478 . S
C334 C333 1.478 . S
C334 C335 1.397 1_554 S
C334 C351 1.394 . S
C335 C334 1.397 1_556 S
C335 C336 1.438 1_565 S
C335 C340 1.429 1_565 S
C336 C335 1.438 1_545 S
C336 C337 1.428 . S
C336 C349 1.394 . S
C337 H329 0.949 . S
C337 C336 1.428 . S
C337 C338 1.345 . S
C338 H330 0.950 . S
C338 C337 1.345 . S
C338 C339 1.424 . S
C339 H331 0.951 . S
C339 C338 1.424 . S
C339 C340 1.347 . S
C340 H332 0.951 1_545 S
C340 C335 1.429 1_545 S
C340 C339 1.347 . S
H341 C342 0.951 . S
C342 H341 0.951 . S
C342 C348 1.265 1_565 S
H343 C348 0.950 . S
H344 C352 0.949 . S
H345 C353 0.950 . S
H346 C354 0.951 . S
H347 C355 0.951 . S
C348 C342 1.265 1_545 S
C348 H343 0.950 . S
C348 C349 1.478 . S
C349 C336 1.394 . S
C349 C348 1.478 . S
C349 C350 1.397 1_546 S
C350 C349 1.397 1_564 S
C350 C351 1.438 . S
C350 C355 1.429 . S
C351 C334 1.394 . S
C351 C350 1.438 . S
C351 C352 1.428 . S
C352 H344 0.949 . S
C352 C351 1.428 . S
C352 C353 1.345 . S
C353 H345 0.950 . S
C353 C352 1.345 . S
C353 C354 1.424 . S
C354 H346 0.951 . S
C354 C353 1.424 . S
C354 C355 1.347 . S
C355 H347 0.951 . S
C355 C350 1.429 . S
C355 C354 1.347 . S
H356 C357 0.951 . S
C357 H356 0.951 . S
C357 C363 1.265 . S
H358 C363 0.950 . S
H359 C367 0.949 . S
H360 C368 0.950 . S
H361 C369 0.951 . S
H362 C370 0.951 . S
C363 C357 1.265 . S
C363 H358 0.950 . S
C363 C364 1.478 . S
C364 C363 1.478 . S
C364 C365 1.397 . S
C364 C381 1.394 . S
C365 C364 1.397 . S
C365 C366 1.438 . S
C365 C370 1.429 . S
C366 C365 1.438 . S
C366 C367 1.428 . S
C366 C379 1.394 . S
C367 H359 0.949 . S
C367 C366 1.428 . S
C367 C368 1.345 . S
C368 H360 0.950 . S
C368 C367 1.345 . S
C368 C369 1.424 . S
C369 H361 0.951 . S
C369 C368 1.424 . S
C369 C370 1.347 . S
C370 H362 0.951 . S
C370 C365 1.429 . S
C370 C369 1.347 . S
H371 C372 0.951 . S
C372 H371 0.951 . S
C372 C378 1.265 . S
H373 C378 0.950 . S
H374 C382 0.949 . S
H375 C383 0.950 1_556 S
H376 C384 0.951 . S
H377 C385 0.951 1_556 S
C378 C372 1.265 . S
C378 H373 0.950 . S
C378 C379 1.478 . S
C379 C366 1.394 . S
C379 C378 1.478 . S
C379 C380 1.397 . S
C380 C379 1.397 . S
C380 C381 1.438 . S
C380 C385 1.429 . S
C381 C364 1.394 . S
C381 C380 1.438 . S
C381 C382 1.428 . S
C382 H374 0.949 . S
C382 C381 1.428 . S
C382 C383 1.345 . S
C383 H375 0.950 1_554 S
C383 C382 1.345 . S
C383 C384 1.424 1_554 S
C384 H376 0.951 . S
C384 C383 1.424 1_556 S
C384 C385 1.347 1_556 S
C385 H377 0.951 1_554 S
C385 C380 1.429 . S
C385 C384 1.347 1_554 S
H386 C387 0.951 . S
C387 H386 0.951 . S
C387 C393 1.265 . S
H388 C393 0.950 . S
H389 C397 0.949 . S
H390 C398 0.950 . S
H391 C399 0.951 . S
H392 C400 0.951 . S
C393 C387 1.265 . S
C393 H388 0.950 . S
C393 C394 1.478 . S
C394 C393 1.478 . S
C394 C395 1.397 . S
C394 C411 1.394 . S
C395 C394 1.397 . S
C395 C396 1.438 . S
C395 C400 1.429 . S
C396 C395 1.438 . S
C396 C397 1.428 . S
C396 C409 1.394 . S
C397 H389 0.949 . S
C397 C396 1.428 . S
C397 C398 1.345 . S
C398 H390 0.950 . S
C398 C397 1.345 . S
C398 C399 1.424 . S
C399 H391 0.951 . S
C399 C398 1.424 . S
C399 C400 1.347 . S
C400 H392 0.951 . S
C400 C395 1.429 . S
C400 C399 1.347 . S
H401 C402 0.951 . S
C402 H401 0.951 . S
C402 C408 1.265 . S
H403 C408 0.950 . S
H404 C412 0.949 . S
H405 C413 0.950 . S
H406 C414 0.951 . S
H407 C415 0.951 . S
C408 C402 1.265 . S
C408 H403 0.950 . S
C408 C409 1.478 . S
C409 C396 1.394 . S
C409 C408 1.478 . S
C409 C410 1.397 . S
C410 C409 1.397 . S
C410 C411 1.438 . S
C410 C415 1.429 . S
C411 C394 1.394 . S
C411 C410 1.438 . S
C411 C412 1.428 . S
C412 H404 0.949 . S
C412 C411 1.428 . S
C412 C413 1.345 . S
C413 H405 0.950 . S
C413 C412 1.345 . S
C413 C414 1.424 . S
C414 H406 0.951 . S
C414 C413 1.424 . S
C414 C415 1.347 . S
C415 H407 0.951 . S
C415 C410 1.429 . S
C415 C414 1.347 . S
H416 C417 0.951 . S
C417 H416 0.951 . S
C417 C423 1.265 . S
H418 C423 0.950 . S
H419 C427 0.949 . S
H420 C428 0.950 . S
H421 C429 0.951 . S
H422 C430 0.951 . S
C423 C417 1.265 . S
C423 H418 0.950 . S
C423 C424 1.478 . S
C424 C423 1.478 . S
C424 C425 1.397 . S
C424 C441 1.394 . S
C425 C424 1.397 . S
C425 C426 1.438 . S
C425 C430 1.429 . S
C426 C425 1.438 . S
C426 C427 1.428 . S
C426 C439 1.394 . S
C427 H419 0.949 . S
C427 C426 1.428 . S
C427 C428 1.345 . S
C428 H420 0.950 . S
C428 C427 1.345 . S
C428 C429 1.424 . S
C429 H421 0.951 . S
C429 C428 1.424 . S
C429 C430 1.347 . S
C430 H422 0.951 . S
C430 C425 1.429 . S
C430 C429 1.347 . S
H431 C432 0.951 . S
C432 H431 0.951 . S
C432 C438 1.265 . S
H433 C438 0.950 . S
H434 C442 0.949 . S
H435 C443 0.950 . S
H436 C444 0.951 . S
H437 C445 0.951 . S
C438 C432 1.265 . S
C438 H433 0.950 . S
C438 C439 1.478 . S
C439 C426 1.394 . S
C439 C438 1.478 . S
C439 C440 1.397 . S
C440 C439 1.397 . S
C440 C441 1.438 . S
C440 C445 1.429 . S
C441 C424 1.394 . S
C441 C440 1.438 . S
C441 C442 1.428 . S
C442 H434 0.949 . S
C442 C441 1.428 . S
C442 C443 1.345 . S
C443 H435 0.950 . S
C443 C442 1.345 . S
C443 C444 1.424 . S
C444 H436 0.951 . S
C444 C443 1.424 . S
C444 C445 1.347 . S
C445 H437 0.951 . S
C445 C440 1.429 . S
C445 C444 1.347 . S
H446 C447 0.951 . S
C447 H446 0.951 . S
C447 C453 1.265 . S
H448 C453 0.950 . S
H449 C457 0.949 . S
H450 C458 0.950 . S
H451 C459 0.951 . S
H452 C460 0.951 . S
C453 C447 1.265 . S
C453 H448 0.950 . S
C453 C454 1.478 . S
C454 C453 1.478 . S
C454 C455 1.397 . S
C454 C471 1.394 . S
C455 C454 1.397 . S
C455 C456 1.438 . S
C455 C460 1.429 . S
C456 C455 1.438 . S
C456 C457 1.428 . S
C456 C469 1.394 . S
C457 H449 0.949 . S
C457 C456 1.428 . S
C457 C458 1.345 . S
C458 H450 0.950 . S
C458 C457 1.345 . S
C458 C459 1.424 . S
C459 H451 0.951 . S
C459 C458 1.424 . S
C459 C460 1.347 . S
C460 H452 0.951 . S
C460 C455 1.429 . S
C460 C459 1.347 . S
H461 C462 0.951 . S
C462 H461 0.951 . S
C462 C468 1.265 . S
H463 C468 0.950 . S
H464 C472 0.949 . S
H465 C473 0.950 . S
H466 C474 0.951 . S
H467 C475 0.951 . S
C468 C462 1.265 . S
C468 H463 0.950 . S
C468 C469 1.478 . S
C469 C456 1.394 . S
C469 C468 1.478 . S
C469 C470 1.397 . S
C470 C469 1.397 . S
C470 C471 1.438 . S
C470 C475 1.429 . S
C471 C454 1.394 . S
C471 C470 1.438 . S
C471 C472 1.428 . S
C472 H464 0.949 . S
C472 C471 1.428 . S
C472 C473 1.345 . S
C473 H465 0.950 . S
C473 C472 1.345 . S
C473 C474 1.424 . S
C474 H466 0.951 . S
C474 C473 1.424 . S
C474 C475 1.347 . S
C475 H467 0.951 . S
C475 C470 1.429 . S
C475 C474 1.347 . S
C237 C52 1.657 . S
C252 C151 1.654 . S
C267 C92 1.652 . S
C282 C229 1.640 . S
C297 C33 1.657 . S
C312 C170 1.649 1_455 S
C327 C111 1.653 1_545 S
C342 C210 1.658 . S
C357 C62 1.484 . S
C372 C3 1.469 . S
C387 C64 1.476 . S
C402 C123 1.476 . S
C417 C180 1.491 . S
C432 C121 1.468 . S
C447 C182 1.484 . S
C462 C5 1.484 . S
