# Generated by pormake.
# Topology unf, (4)-cn, num edge types: 1
# Building blocks:
#     Node 0, Type 0, BuildingBlock: QUQFOY_clean_sbu_3, # of connection points: 4
#     Node 1, Type 0, BuildingBlock: QUQFOY_clean_sbu_3, # of connection points: 4
#     Node 2, Type 0, BuildingBlock: QUQFOY_clean_sbu_3, # of connection points: 4
#     Node 3, Type 0, BuildingBlock: QUQFOY_clean_sbu_3, # of connection points: 4
#     Node 4, Type 0, BuildingBlock: QUQFOY_clean_sbu_3, # of connection points: 4
#     Node 5, Type 0, BuildingBlock: QUQFOY_clean_sbu_3, # of connection points: 4
#     Node 6, Type 0, BuildingBlock: QUQFOY_clean_sbu_3, # of connection points: 4
#     Node 7, Type 0, BuildingBlock: QUQFOY_clean_sbu_3, # of connection points: 4
#     Node 8, Type 0, BuildingBlock: QUQFOY_clean_sbu_3, # of connection points: 4
#     Node 9, Type 0, BuildingBlock: QUQFOY_clean_sbu_3, # of connection points: 4
#     Node 10, Type 0, BuildingBlock: QUQFOY_clean_sbu_3, # of connection points: 4
#     Node 11, Type 0, BuildingBlock: QUQFOY_clean_sbu_3, # of connection points: 4
#     Edge 12, Type (0, 0), BuildingBlock: ZUJKAS_clean_linker_0, # of connection points: 2
#     Edge 13, Type (0, 0), BuildingBlock: ZUJKAS_clean_linker_0, # of connection points: 2
#     Edge 14, Type (0, 0), BuildingBlock: ZUJKAS_clean_linker_0, # of connection points: 2
#     Edge 15, Type (0, 0), BuildingBlock: ZUJKAS_clean_linker_0, # of connection points: 2
#     Edge 16, Type (0, 0), BuildingBlock: ZUJKAS_clean_linker_0, # of connection points: 2
#     Edge 17, Type (0, 0), BuildingBlock: ZUJKAS_clean_linker_0, # of connection points: 2
#     Edge 18, Type (0, 0), BuildingBlock: ZUJKAS_clean_linker_0, # of connection points: 2
#     Edge 19, Type (0, 0), BuildingBlock: ZUJKAS_clean_linker_0, # of connection points: 2
#     Edge 20, Type (0, 0), BuildingBlock: ZUJKAS_clean_linker_0, # of connection points: 2
#     Edge 21, Type (0, 0), BuildingBlock: ZUJKAS_clean_linker_0, # of connection points: 2
#     Edge 22, Type (0, 0), BuildingBlock: ZUJKAS_clean_linker_0, # of connection points: 2
#     Edge 23, Type (0, 0), BuildingBlock: ZUJKAS_clean_linker_0, # of connection points: 2
#     Edge 24, Type (0, 0), BuildingBlock: ZUJKAS_clean_linker_0, # of connection points: 2
#     Edge 25, Type (0, 0), BuildingBlock: ZUJKAS_clean_linker_0, # of connection points: 2
#     Edge 26, Type (0, 0), BuildingBlock: ZUJKAS_clean_linker_0, # of connection points: 2
#     Edge 27, Type (0, 0), BuildingBlock: ZUJKAS_clean_linker_0, # of connection points: 2
#     Edge 28, Type (0, 0), BuildingBlock: ZUJKAS_clean_linker_0, # of connection points: 2
#     Edge 29, Type (0, 0), BuildingBlock: ZUJKAS_clean_linker_0, # of connection points: 2
#     Edge 30, Type (0, 0), BuildingBlock: ZUJKAS_clean_linker_0, # of connection points: 2
#     Edge 31, Type (0, 0), BuildingBlock: ZUJKAS_clean_linker_0, # of connection points: 2
#     Edge 32, Type (0, 0), BuildingBlock: ZUJKAS_clean_linker_0, # of connection points: 2
#     Edge 33, Type (0, 0), BuildingBlock: ZUJKAS_clean_linker_0, # of connection points: 2
#     Edge 34, Type (0, 0), BuildingBlock: ZUJKAS_clean_linker_0, # of connection points: 2
#     Edge 35, Type (0, 0), BuildingBlock: ZUJKAS_clean_linker_0, # of connection points: 2
# Relax obj value: 0.226
# Max RMSD: 0.172
# Mean RMSD: 0.172
data_MOF--net-unf--node1-QUQFOY_clean_sbu_3--edge1-ZUJKAS_clean_linker_0
_symmetry_space_group_name_H-M    P1
_symmetry_Int_Tables_number       1
_symmetry_cell_setting            triclinic
loop_
_symmetry_equiv_pos_as_xyz
'x, y, z'
_cell_length_a     49.706051
_cell_length_b     49.644793
_cell_length_c     49.397946
_cell_angle_alpha  89.974674
_cell_angle_beta   90.081673
_cell_angle_gamma 119.99294
loop_
_atom_site_label
_atom_site_type_symbol
_atom_site_fract_x
_atom_site_fract_y
_atom_site_fract_z
_atom_type_partial_charge
C0 C 0.1152 0.46934 0.01772 0.0
O1 O 0.12409 0.4601 -0.00256 0.0
Cd2 Cd 0.1422 0.42359 -9e-05 0.0
O3 O 0.11893 0.46219 0.04167 0.0
Cd4 Cd 0.14062 0.43246 0.0638 0.0
C5 C 0.07892 0.36989 0.03602 0.0
O6 O 0.18206 0.43956 0.03302 0.0
O7 O 0.16411 0.4001 0.06005 0.0
O8 O 0.17167 0.47155 0.09784 0.0
C9 C 0.18417 0.41696 0.04258 0.0
O10 O 0.09462 0.37697 0.01418 0.0
C11 C 0.15878 0.4536 0.1179 0.0
O12 O 0.08948 0.38698 0.05699 0.0
O13 O 0.13632 0.42656 0.1127 0.0
C14 C 0.52325 0.64489 0.02121 0.0
O15 O 0.52848 0.66202 0.00052 0.0
Cd16 Cd 0.56391 0.71712 -0.00015 0.0
O17 O 0.53335 0.65703 0.04442 0.0
Cd18 Cd 0.56323 0.70953 0.06484 0.0
C19 C 0.62225 0.70999 0.03099 0.0
O20 O 0.55383 0.74324 0.03502 0.0
O21 O 0.59604 0.7648 0.05875 0.0
O22 O 0.52684 0.70267 0.10094 0.0
C23 C 0.57817 0.76795 0.04233 0.0
O24 O 0.61198 0.71726 0.01021 0.0
C25 C 0.54622 0.70865 0.12002 0.0
O26 O 0.60808 0.70412 0.05361 0.0
O27 O 0.57288 0.71313 0.11346 0.0
C28 C 0.34082 0.86141 0.01012 0.0
O29 O 0.32621 0.84967 0.98822 0.0
Cd30 Cd 0.2724 0.83416 0.98308 0.0
O31 O 0.32604 0.86002 0.03162 0.0
Cd32 Cd 0.27172 0.83817 0.04728 0.0
C33 C 0.27886 0.89999 0.01355 0.0
O34 O 0.23953 0.79644 0.01537 0.0
O35 O 0.21807 0.81905 0.0364 0.0
O36 O 0.27384 0.80594 0.08364 0.0
C37 C 0.2151 0.79764 0.02056 0.0
O38 O 0.27514 0.88375 0.99241 0.0
C39 C 0.26665 0.81882 0.10229 0.0
O40 O 0.27954 0.88964 0.03701 0.0
O41 O 0.26341 0.84174 0.09548 0.0
C42 C 0.52414 0.87842 0.47404 0.0
O43 O 0.52593 0.86644 0.49622 0.0
Cd44 Cd 0.55548 0.84078 0.50276 0.0
O45 O 0.53502 0.87382 0.45226 0.0
Cd46 Cd 0.56116 0.84509 0.43675 0.0
C47 C 0.62179 0.89987 0.473 0.0
O48 O 0.54196 0.8021 0.46906 0.0
O49 O 0.58301 0.81225 0.44618 0.0
O50 O 0.52635 0.81932 0.39856 0.0
C51 C 0.56263 0.79514 0.46332 0.0
O52 O 0.60719 0.88459 0.49396 0.0
C53 C 0.54775 0.83005 0.38085 0.0
O54 O 0.61017 0.89125 0.44941 0.0
O55 O 0.57507 0.84909 0.38903 0.0
C56 C 0.10489 0.63927 0.46384 0.0
O57 O 0.11755 0.65643 0.48439 0.0
Cd58 Cd 0.14319 0.71234 0.4848 0.0
O59 O 0.10805 0.65129 0.44043 0.0
Cd60 Cd 0.13402 0.70382 0.41991 0.0
C61 C 0.08148 0.71408 0.45512 0.0
O62 O 0.17937 0.73431 0.44888 0.0
O63 O 0.16314 0.75948 0.42451 0.0
O64 O 0.15886 0.69253 0.3824 0.0
C65 C 0.1832 0.76032 0.44088 0.0
O66 O 0.09928 0.71999 0.47555 0.0
C67 C 0.14606 0.7003 0.36406 0.0
O68 O 0.08744 0.70562 0.43261 0.0
O69 O 0.12625 0.70775 0.37175 0.0
C70 C 0.34538 0.47237 0.47115 0.0
O71 O 0.33004 0.46844 0.49277 0.0
Cd72 Cd 0.27504 0.43399 0.49566 0.0
O73 O 0.33136 0.46116 0.44882 0.0
Cd74 Cd 0.27765 0.43174 0.43112 0.0
C75 C 0.27523 0.3716 0.4647 0.0
O76 O 0.24808 0.44576 0.46203 0.0
O77 O 0.2225 0.40331 0.43895 0.0
O78 O 0.28632 0.46889 0.39521 0.0
C79 C 0.222 0.42283 0.45518 0.0
O80 O 0.27206 0.38441 0.48588 0.0
C81 C 0.27824 0.44923 0.37608 0.0
O82 O 0.27879 0.38422 0.44151 0.0
O83 O 0.27137 0.42171 0.3825 0.0
C84 C 0.86056 0.5171 0.97039 0.0
O85 O 0.85341 0.5295 0.98948 0.0
Cd86 Cd 0.84049 0.56943 0.98276 0.0
O87 O 0.85684 0.52226 0.94577 0.0
Cd88 Cd 0.83762 0.55182 0.9196 0.0
C89 C 0.90425 0.61294 0.94225 0.0
O90 O 0.79997 0.55289 0.95034 0.0
O91 O 0.81905 0.58878 0.91983 0.0
O92 O 0.80416 0.50976 0.88835 0.0
C93 C 0.79991 0.57579 0.93901 0.0
O94 O 0.89002 0.61021 0.96444 0.0
C95 C 0.81723 0.52552 0.8672 0.0
O96 O 0.89103 0.5939 0.92286 0.0
O97 O 0.84038 0.55259 0.87073 0.0
C98 C 0.47259 0.34115 0.97021 0.0
O99 O 0.46654 0.32325 0.99043 0.0
Cd100 Cd 0.42311 0.27134 0.98921 0.0
O101 O 0.45984 0.33008 0.9474 0.0
Cd102 Cd 0.42398 0.27895 0.92667 0.0
C103 C 0.37302 0.29188 0.95919 0.0
O104 O 0.42547 0.23906 0.9547 0.0
O105 O 0.38187 0.22678 0.93507 0.0
O106 O 0.45874 0.281 0.89081 0.0
C107 C 0.39795 0.21821 0.94865 0.0
O108 O 0.38096 0.28209 0.97987 0.0
C109 C 0.44016 0.27727 0.87158 0.0
O110 O 0.38615 0.29481 0.93639 0.0
O111 O 0.41466 0.27571 0.87799 0.0
C112 C 0.64435 0.11945 0.97699 0.0
O113 O 0.66206 0.12794 -0.00243 0.0
Cd114 Cd 0.71588 0.14254 -0.00445 0.0
O115 O 0.65562 0.12267 0.95326 0.0
Cd116 Cd 0.70695 0.14287 0.93124 0.0
C117 C 0.70182 0.07815 0.95823 0.0
O118 O 0.74286 0.1823 0.96289 0.0
O119 O 0.76224 0.16243 0.93566 0.0
O120 O 0.70073 0.17535 0.89722 0.0
C121 C 0.76675 0.18234 0.95378 0.0
O122 O 0.71076 0.09327 0.9804 0.0
C123 C 0.70504 0.16189 0.87717 0.0
O124 O 0.69716 0.09015 0.93723 0.0
O125 O 0.70876 0.1389 0.8824 0.0
C126 C 0.46569 0.12702 0.50955 0.0
O127 O 0.45614 0.1353 0.48908 0.0
Cd128 Cd 0.41036 0.13955 0.49174 0.0
O129 O 0.45441 0.12618 0.53289 0.0
Cd130 Cd 0.41645 0.13822 0.55418 0.0
C131 C 0.36614 0.07049 0.52617 0.0
O132 O 0.4141 0.17641 0.52461 0.0
O133 O 0.37209 0.14535 0.54631 0.0
O134 O 0.45204 0.17432 0.58813 0.0
C135 C 0.38676 0.16929 0.53157 0.0
O136 O 0.37118 0.08639 0.50457 0.0
C137 C 0.43496 0.1599 0.60825 0.0
O138 O 0.38093 0.08311 0.54788 0.0
O139 O 0.40991 0.13477 0.60321 0.0
C140 C 0.85339 0.33554 0.51681 0.0
O141 O 0.84274 0.31731 0.49666 0.0
Cd142 Cd 0.84048 0.26808 0.49966 0.0
O143 O 0.85556 0.32513 0.5398 0.0
Cd144 Cd 0.84295 0.2755 0.56213 0.0
C145 C 0.91086 0.29658 0.53345 0.0
O146 O 0.8056 0.23367 0.53307 0.0
O147 O 0.83806 0.22488 0.55518 0.0
O148 O 0.80641 0.2758 0.59495 0.0
C149 C 0.8141 0.21448 0.54029 0.0
O150 O 0.89465 0.28593 0.51197 0.0
C151 C 0.82048 0.27357 0.61558 0.0
O152 O 0.8982 0.29678 0.55578 0.0
O153 O 0.84559 0.27335 0.61132 0.0
C154 C 0.65407 0.5367 0.51149 0.0
O155 O 0.67323 0.55254 0.493 0.0
Cd156 Cd 0.7241 0.59511 0.50225 0.0
O157 O 0.66275 0.54011 0.53616 0.0
Cd158 Cd 0.71067 0.57066 0.56325 0.0
C159 C 0.69836 0.62966 0.5479 0.0
O160 O 0.7508 0.57797 0.53116 0.0
O161 O 0.76534 0.61106 0.56395 0.0
O162 O 0.7051 0.52654 0.59019 0.0
C163 C 0.77279 0.60063 0.54362 0.0
O164 O 0.71092 0.63085 0.52511 0.0
C165 C 0.70679 0.53955 0.6128 0.0
O166 O 0.69402 0.60894 0.56527 0.0
O167 O 0.70898 0.56615 0.61206 0.0
H168 H 0.19767 0.37436 0.06316 0.0
H169 H 0.23216 0.35753 0.04408 0.0
H170 H 0.25439 0.42179 0.97782 0.0
H171 H 0.21989 0.43906 -0.00309 0.0
H172 H 0.23436 0.35424 0.96514 0.0
H173 H 0.33053 0.41176 0.03965 0.0
H174 H 0.29214 0.39148 0.05395 0.0
H175 H 0.30326 0.42502 0.03303 0.0
C176 C 0.21001 0.38507 0.04461 0.0
C177 C 0.20614 0.40804 0.03152 0.0
C178 C 0.22973 0.37549 0.0338 0.0
C179 C 0.24583 0.3886 0.00971 0.0
C180 C 0.24215 0.41156 -0.00348 0.0
H181 H 0.36044 0.3269 0.92402 0.0
H182 H 0.32914 0.35141 0.9331 0.0
C183 C 0.22257 0.42142 0.00748 0.0
C184 C 0.2658 0.3774 -0.00178 0.0
H185 H 0.32979 0.3717 0.01265 0.0
C186 C 0.25553 0.35838 0.97516 0.0
C187 C 0.29328 0.383 0.01147 0.0
C188 C 0.3057 0.40414 0.03578 0.0
C189 C 0.27128 0.34331 0.96584 0.0
C190 C 0.29809 0.3479 0.97982 0.0
C191 C 0.30905 0.36806 0.00215 0.0
C192 C 0.3143 0.33077 0.97277 0.0
C193 C 0.25837 0.3215 0.942 0.0
C194 C 0.31603 0.31091 0.99199 0.0
C195 C 0.33398 0.29708 0.98698 0.0
C196 C 0.35059 0.30291 0.96264 0.0
C197 C 0.34776 0.3218 0.9429 0.0
C198 C 0.32986 0.33578 0.94801 0.0
H199 H 0.23442 0.31604 0.93676 0.0
H200 H 0.2734 0.33246 0.92411 0.0
H201 H 0.25813 0.29941 0.94625 0.0
H202 H 0.3041 0.30674 0.0112 0.0
H203 H 0.33554 0.28255 0.00256 0.0
H204 H 0.55145 0.78031 -0.00105 0.0
H205 H 0.57166 0.82998 0.97482 0.0
H206 H 0.64808 0.87284 0.03117 0.0
H207 H 0.62843 0.82363 0.05507 0.0
H208 H 0.58346 0.8879 -0.00587 0.0
H209 H 0.69179 0.89458 0.95777 0.0
H210 H 0.65931 0.85898 0.97032 0.0
H211 H 0.68662 0.88758 0.99353 0.0
C212 C 0.57251 0.80038 0.00619 0.0
C213 C 0.58851 0.79804 0.02876 0.0
C214 C 0.58405 0.82863 0.99235 0.0
C215 C 0.61178 0.85477 0.00082 0.0
C216 C 0.62715 0.85267 0.02384 0.0
H217 H 0.71655 0.04734 -0.00418 0.0
H218 H 0.69437 0.99116 -5e-05 0.0
C219 C 0.61572 0.82458 0.03761 0.0
C220 C 0.62445 0.88481 0.98648 0.0
H221 H 0.69188 0.94331 0.96005 0.0
C222 C 0.60687 0.89978 0.98604 0.0
C223 C 0.65493 0.90008 0.97579 0.0
C224 C 0.67412 0.88432 0.97409 0.0
C225 C 0.61986 0.9306 0.97703 0.0
C226 C 0.65105 0.94653 0.96812 0.0
C227 C 0.668 0.93096 0.96704 0.0
C228 C 0.66743 0.98031 0.96306 0.0
C229 C 0.60088 0.94661 0.97868 0.0
C230 C 0.66041 0.99266 0.9404 0.0
C231 C 0.67321 0.02482 0.93786 0.0
C232 C 0.69298 0.04497 0.95811 0.0
C233 C 0.70126 0.03246 0.97998 0.0
C234 C 0.68866 0.0004 0.98236 0.0
H235 H 0.57786 0.93172 0.98825 0.0
H236 H 0.61361 0.96851 0.99046 0.0
H237 H 0.59708 0.95281 0.95799 0.0
H238 H 0.6442 0.97738 0.92523 0.0
H239 H 0.66635 0.03373 0.92078 0.0
H240 H 0.20217 0.75383 0.981 0.0
H241 H 0.15279 0.72329 0.9566 0.0
H242 H 0.11208 0.76677 0.00389 0.0
H243 H 0.16085 0.79725 0.02802 0.0
H244 H 0.09382 0.6816 0.97817 0.0
H245 H 0.09204 0.77926 0.92609 0.0
H246 H 0.12698 0.7827 0.94068 0.0
H247 H 0.09945 0.78649 0.96165 0.0
C248 C 0.18266 0.75685 0.98611 0.0
C249 C 0.18543 0.77808 0.00629 0.0
C250 C 0.15458 0.73951 0.97212 0.0
C251 C 0.12911 0.74341 0.97801 0.0
C252 C 0.13174 0.76409 -0.00149 0.0
H253 H 0.93798 0.66259 0.97548 0.0
H254 H -0.00551 0.69476 0.97765 0.0
C255 C 0.1596 0.78131 0.01244 0.0
C256 C 0.09901 0.72496 0.964 0.0
H257 H 0.04199 0.73282 0.93284 0.0
C258 C 0.08272 0.6926 0.96758 0.0
C259 C 0.08475 0.73946 0.95008 0.0
C260 C 0.10187 0.77387 0.94414 0.0
C261 C 0.05158 0.67466 0.95949 0.0
C262 C 0.03669 0.68958 0.94742 0.0
C263 C 0.05355 0.72159 0.94225 0.0
C264 C 0.00278 0.67295 0.94327 0.0
C265 C 0.03414 0.64024 0.96549 0.0
C266 C 0.98893 0.65089 0.92258 0.0
C267 C 0.95659 0.63259 0.92114 0.0
C268 C 0.93776 0.63596 0.94055 0.0
C269 C 0.95182 0.6593 0.96033 0.0
C270 C 0.98407 0.67771 0.96159 0.0
H271 H 0.04866 0.63255 0.97646 0.0
H272 H 0.01325 0.63425 0.97786 0.0
H273 H 0.02609 0.62702 0.94624 0.0
H274 H 0.00315 0.6471 0.90821 0.0
H275 H 0.94648 0.61476 0.90569 0.0
H276 H 0.71359 0.68435 0.52276 0.0
H277 H 0.68377 0.71126 0.52308 0.0
H278 H 0.62115 0.64628 0.58215 0.0
H279 H 0.65113 0.61935 0.58226 0.0
H280 H 0.59386 0.65007 0.53118 0.0
H281 H 0.66756 0.76589 0.57772 0.0
H282 H 0.68822 0.75477 0.55465 0.0
H283 H 0.67218 0.73274 0.58517 0.0
C284 C 0.69403 0.67632 0.53642 0.0
C285 C 0.68462 0.64967 0.55237 0.0
C286 C 0.67711 0.69182 0.53669 0.0
C287 C 0.65042 0.68082 0.55277 0.0
C288 C 0.64187 0.65523 0.56982 0.0
H289 H 0.54455 0.77603 0.51549 0.0
H290 H 0.55874 0.74373 0.54314 0.0
C291 C 0.65908 0.63996 0.56987 0.0
C292 C 0.62932 0.69329 0.54837 0.0
H293 H 0.62945 0.76192 0.545 0.0
C294 C 0.60111 0.67429 0.53495 0.0
C295 C 0.63878 0.72478 0.55344 0.0
C296 C 0.66822 0.7457 0.56878 0.0
C297 C 0.58355 0.68678 0.52425 0.0
C298 C 0.59452 0.71888 0.52723 0.0
C299 C 0.6212 0.73727 0.54275 0.0
C300 C 0.58213 0.73477 0.51047 0.0
C301 C 0.55452 0.66613 0.5083 0.0
C302 C 0.59039 0.73997 0.48307 0.0
C303 C 0.58284 0.75864 0.46749 0.0
C304 C 0.56655 0.77211 0.47898 0.0
C305 C 0.55691 0.76566 0.50613 0.0
C306 C 0.56503 0.74736 0.52192 0.0
H307 H 0.54531 0.64114 0.51302 0.0
H308 H 0.53624 0.6722 0.51249 0.0
H309 H 0.55995 0.66967 0.48635 0.0
H310 H 0.60385 0.73061 0.47402 0.0
H311 H 0.59048 0.76323 0.44661 0.0
H312 H 0.19859 0.81831 0.42435 0.0
H313 H 0.2308 0.86725 0.44795 0.0
H314 H 0.25036 0.81881 0.5105 0.0
H315 H 0.21809 0.76931 0.48674 0.0
H316 H 0.21796 0.87767 0.50324 0.0
H317 H 0.33694 0.89502 0.48904 0.0
H318 H 0.30507 0.8698 0.46712 0.0
H319 H 0.30658 0.85792 0.50109 0.0
C320 C 0.21002 0.81802 0.44295 0.0
C321 C 0.20571 0.78997 0.45377 0.0
C322 C 0.22836 0.846 0.45641 0.0
C323 C 0.24284 0.84655 0.48092 0.0
C324 C 0.23952 0.8188 0.49146 0.0
H325 H 0.36217 0.02629 0.56175 0.0
H326 H 0.33053 0.96963 0.55685 0.0
C327 C 0.22113 0.79062 0.47788 0.0
C328 C 0.25992 0.87627 0.49571 0.0
H329 H 0.33303 0.93615 0.50844 0.0
C330 C 0.2431 0.89027 0.50486 0.0
C331 C 0.29263 0.8924 0.49797 0.0
C332 C 0.31158 0.87825 0.48824 0.0
C333 C 0.25828 0.92077 0.51479 0.0
C334 C 0.29105 0.93767 0.5153 0.0
C335 C 0.30785 0.923 0.50792 0.0
C336 C 0.30821 0.97158 0.51989 0.0
C337 C 0.23922 0.93512 0.5237 0.0
C338 C 0.30589 0.9912 0.50077 0.0
C339 C 0.32398 0.02339 0.50336 0.0
C340 C 0.34467 0.03656 0.52519 0.0
C341 C 0.34627 0.01682 0.54481 0.0
C342 C 0.32834 0.98451 0.54202 0.0
H343 H 0.21525 0.91706 0.52938 0.0
H344 H 0.25024 0.95097 0.54118 0.0
H345 H 0.23757 0.94891 0.50675 0.0
H346 H 0.29074 0.98156 0.48336 0.0
H347 H 0.32221 0.03794 0.48792 0.0
H348 H 0.9542 0.32798 0.57316 0.0
H349 H 0.01083 0.35804 0.56778 0.0
H350 H 0.00123 0.32984 0.48415 0.0
H351 H 0.94502 0.29991 0.48916 0.0
H352 H 0.05354 0.33787 0.54867 0.0
H353 H 0.05118 0.42688 0.48288 0.0
H354 H 0.01848 0.40045 0.50346 0.0
H355 H 0.02526 0.38803 0.47124 0.0
C356 C 0.96418 0.32792 0.5537 0.0
C357 C 0.94506 0.31171 0.53153 0.0
C358 C -0.00353 0.34519 0.55067 0.0
C359 C 0.00997 0.34664 0.52543 0.0
C360 C 0.99109 0.32951 0.50364 0.0
H361 H 0.16385 0.37775 0.44143 0.0
H362 H 0.11508 0.36519 0.46344 0.0
C363 C 0.95896 0.31224 0.50662 0.0
C364 C 0.04382 0.36577 0.52138 0.0
H365 H 0.09694 0.42138 0.47931 0.0
C366 C 0.06329 0.35674 0.53411 0.0
C367 C 0.05641 0.39056 0.50256 0.0
C368 C 0.03678 0.40228 0.48945 0.0
C369 C 0.09464 0.37018 0.52671 0.0
C370 C 0.10646 0.39305 0.50622 0.0
C371 C 0.08763 0.40374 0.495 0.0
C372 C 0.13631 0.40205 0.49306 0.0
C373 C 0.11448 0.35847 0.53936 0.0
C374 C 0.16421 0.42725 0.50239 0.0
C375 C 0.19228 0.43461 0.48977 0.0
C376 C 0.19261 0.41674 0.4678 0.0
C377 C 0.16441 0.39187 0.45837 0.0
C378 C 0.13654 0.38465 0.47088 0.0
H379 H 0.10293 0.34309 0.557 0.0
H380 H 0.11951 0.34522 0.52404 0.0
H381 H 0.13704 0.37838 0.54601 0.0
H382 H 0.16425 0.4409 0.51951 0.0
H383 H 0.21369 0.45387 0.49748 0.0
H384 H 0.66424 0.72982 0.98978 0.0
H385 H 0.69873 0.70985 0.97806 0.0
H386 H 0.67261 0.65524 0.05123 0.0
H387 H 0.63824 0.67542 0.0634 0.0
H388 H 0.73755 0.6821 0.03547 0.0
H389 H 0.65416 0.61767 0.95262 0.0
H390 H 0.66883 0.65888 0.95241 0.0
H391 H 0.64504 0.63571 0.98007 0.0
C392 C 0.66634 0.71411 0.00372 0.0
C393 C 0.64813 0.70378 0.02729 0.0
C394 C 0.68597 0.70267 -0.00307 0.0
C395 C 0.68752 0.68054 0.01347 0.0
C396 C 0.67147 0.67216 0.03815 0.0
H397 H 0.76678 0.56072 0.9862 0.0
H398 H 0.73988 0.58614 0.00583 0.0
C399 C 0.65192 0.68377 0.04508 0.0
C400 C 0.70338 0.66401 0.00364 0.0
H401 H 0.70104 0.61609 0.95305 0.0
C402 C 0.72956 0.66752 0.01756 0.0
C403 C 0.69254 0.64475 0.98043 0.0
C404 C 0.66344 0.63871 0.96562 0.0
C405 C 0.74586 0.65301 0.00825 0.0
C406 C 0.73543 0.63444 0.98466 0.0
C407 C 0.70898 0.63053 0.97105 0.0
C408 C 0.75201 0.61937 0.97326 0.0
C409 C 0.77452 0.65816 0.02322 0.0
C410 C 0.7671 0.62934 0.94826 0.0
C411 C 0.78239 0.61491 0.937 0.0
C412 C 0.78258 0.59006 0.95047 0.0
C413 C 0.767 0.5798 0.97536 0.0
C414 C 0.75185 0.59441 0.98669 0.0
H415 H 0.78233 0.67707 0.03847 0.0
H416 H 0.76944 0.63642 0.03384 0.0
H417 H 0.7938 0.664 0.0088 0.0
H418 H 0.76719 0.64843 0.93755 0.0
H419 H 0.79412 0.62329 0.91778 0.0
H420 H 0.33712 0.18051 0.96093 0.0
H421 H 0.31248 0.12784 0.97924 0.0
H422 H 0.40116 0.13155 0.97929 0.0
H423 H 0.42618 0.18512 0.96254 0.0
H424 H 0.30528 0.07882 0.95759 0.0
H425 H 0.37168 0.09413 0.05138 0.0
H426 H 0.37507 0.12679 0.0325 0.0
H427 H 0.39765 0.10894 0.02316 0.0
C428 C 0.3514 0.17019 0.96519 0.0
C429 C 0.38353 0.18677 0.96035 0.0
C430 C 0.33732 0.14011 0.9757 0.0
C431 C 0.35497 0.12578 0.98111 0.0
C432 C 0.38715 0.14238 0.9762 0.0
H433 H 0.29448 0.934 0.96721 0.0
H434 H 0.30926 0.98828 0.96193 0.0
C435 C 0.4014 0.17285 0.96634 0.0
C436 C 0.33927 0.09266 0.98958 0.0
H437 H 0.34502 0.042 0.03266 0.0
C438 C 0.3137 0.07092 0.97433 0.0
C439 C 0.34958 0.08218 0.01184 0.0
C440 C 0.37476 0.10434 0.03081 0.0
C441 C 0.29923 0.03902 0.97982 0.0
C442 C 0.31151 0.02836 0.00034 0.0
C443 C 0.33595 0.05011 0.01658 0.0
C444 C 0.30102 -0.00512 0.00381 0.0
C445 C 0.27099 0.01714 0.96342 0.0
C446 C 0.29237 0.98062 0.02935 0.0
C447 C 0.28449 0.94951 0.03259 0.0
C448 C 0.28501 0.93218 0.01029 0.0
C449 C 0.29334 0.94649 0.98474 0.0
C450 C 0.30162 0.97756 0.98163 0.0
H451 H 0.25786 0.02871 0.95688 0.0
H452 H 0.27852 0.01014 0.94488 0.0
H453 H 0.25511 -0.00409 0.97505 0.0
H454 H 0.292 0.99364 0.0468 0.0
H455 H 0.27828 0.93915 0.05255 0.0
H456 H 0.0327 0.35794 0.0723 0.0
H457 H 0.97714 0.32125 0.06661 0.0
H458 H -0.00393 0.28725 0.99291 0.0
H459 H 0.05149 0.32372 -0.00165 0.0
H460 H 0.94582 0.32482 0.0194 0.0
H461 H 0.93119 0.20728 0.0321 0.0
H462 H 0.96412 0.24194 0.04562 0.0
H463 H 0.9629 0.23235 0.01038 0.0
C464 C 0.02514 0.34206 0.05528 0.0
C465 C 0.04648 0.34387 0.03566 0.0
C466 C -0.00661 0.32119 0.05205 0.0
C467 C 0.9826 0.30148 0.02945 0.0
C468 C 0.004 0.30195 0.01072 0.0
H469 H 0.82165 0.18929 0.93608 0.0
H470 H 0.87255 0.21841 0.95757 0.0
C471 C 0.03567 0.32295 0.01379 0.0
C472 C 0.94903 0.28333 0.02338 0.0
H473 H 0.89064 0.21019 0.00833 0.0
C474 C 0.93348 0.29968 0.01746 0.0
C475 C 0.93323 0.25064 0.02075 0.0
C476 C 0.9486 0.23194 0.02778 0.0
C477 C 0.90296 0.28434 0.00747 0.0
C478 C 0.88747 0.25171 0.00395 0.0
C479 C 0.90263 0.23523 0.01097 0.0
C480 C 0.8564 0.23446 0.9912 0.0
C481 C 0.88824 0.3034 -0.00058 0.0
C482 C 0.83043 0.23389 0.00299 0.0
C483 C 0.80128 0.21748 0.99057 0.0
C484 C 0.79765 0.20109 0.96637 0.0
C485 C 0.8237 0.20169 0.9547 0.0
C486 C 0.85278 0.21822 0.96701 0.0
H487 H 0.90565 0.32855 -0.00223 0.0
H488 H 0.87595 0.29535 0.97973 0.0
H489 H 0.87097 0.30068 0.01497 0.0
H490 H 0.83263 0.24582 0.02192 0.0
H491 H 0.78155 0.21719 0.00015 0.0
H492 H 0.32506 0.14425 0.52124 0.0
H493 H 0.29877 0.17027 0.50189 0.0
H494 H 0.38647 0.25621 0.49788 0.0
H495 H 0.41302 0.22964 0.51551 0.0
H496 H 0.29044 0.21232 0.52052 0.0
H497 H 0.35498 0.25937 0.42567 0.0
H498 H 0.35946 0.23156 0.44583 0.0
H499 H 0.38203 0.27264 0.4532 0.0
C500 C 0.33872 0.16863 0.51589 0.0
C501 C 0.37105 0.18501 0.51976 0.0
C502 C 0.3237 0.18346 0.5048 0.0
C503 C 0.34064 0.21511 0.49784 0.0
C504 C 0.37296 0.23154 0.50204 0.0
H505 H 0.28569 0.34892 0.51114 0.0
H506 H 0.29598 0.30631 0.51607 0.0
C507 C 0.38811 0.21647 0.51244 0.0
C508 C 0.32429 0.23157 0.48839 0.0
H509 H 0.33043 0.28727 0.44433 0.0
C510 C 0.29885 0.22821 0.50348 0.0
C511 C 0.33435 0.2516 0.46564 0.0
C512 C 0.35895 0.25365 0.44652 0.0
C513 C 0.28471 0.24589 0.49763 0.0
C514 C 0.29728 0.26863 0.47697 0.0
C515 C 0.32118 0.27038 0.46061 0.0
C516 C 0.28825 0.2928 0.47382 0.0
C517 C 0.25665 0.24012 0.51392 0.0
C518 C 0.2813 0.30017 0.44823 0.0
C519 C 0.27617 0.3253 0.44519 0.0
C520 C 0.2777 0.34329 0.46775 0.0
C521 C 0.28388 0.33531 0.49338 0.0
C522 C 0.28952 0.31067 0.4963 0.0
H523 H 0.24272 0.21524 0.51982 0.0
H524 H 0.26442 0.25396 0.53286 0.0
H525 H 0.24147 0.2466 0.50251 0.0
H526 H 0.28044 0.28688 0.43054 0.0
H527 H 0.2715 0.33092 0.42517 0.0
H528 H 0.84169 0.17985 0.53135 0.0
H529 H 0.81805 0.12735 0.5126 0.0
H530 H 0.73006 0.12466 0.50656 0.0
H531 H 0.75424 0.17797 0.52363 0.0
H532 H 0.77719 0.07617 0.53118 0.0
H533 H 0.73018 0.09051 0.43481 0.0
H534 H 0.75656 0.12343 0.45512 0.0
H535 H 0.71534 0.10333 0.46182 0.0
C536 C 0.81737 0.16813 0.52569 0.0
C537 C 0.79974 0.1829 0.52882 0.0
C538 C 0.80389 0.13815 0.51494 0.0
C539 C 0.77237 0.12213 0.50758 0.0
C540 C 0.75467 0.13684 0.51106 0.0
H541 H 0.64423 0.93193 0.52002 0.0
H542 H 0.68613 0.98498 0.52556 0.0
C543 C 0.76837 0.16717 0.52112 0.0
C544 C 0.75745 0.08929 0.4983 0.0
H545 H 0.70424 0.03808 0.45347 0.0
C546 C 0.76174 0.06801 0.51383 0.0
C547 C 0.73804 0.07849 0.47516 0.0
C548 C 0.73511 0.10029 0.45564 0.0
C549 C 0.74556 0.03611 0.50798 0.0
C550 C 0.72337 0.02496 0.48681 0.0
C551 C 0.72074 0.04642 0.47009 0.0
C552 C 0.70042 0.99139 0.48352 0.0
C553 C 0.7523 0.01477 0.5248 0.0
C554 C 0.69389 0.97718 0.45789 0.0
C555 C 0.66914 0.94681 0.45448 0.0
C556 C 0.65066 0.93009 0.4767 0.0
C557 C 0.65815 0.94393 0.50248 0.0
C558 C 0.68242 0.97433 0.50576 0.0
H559 H 0.77709 0.02672 0.53107 0.0
H560 H 0.73812 0.0083 0.54353 0.0
H561 H 0.74697 0.99325 0.51364 0.0
H562 H 0.70734 0.98992 0.44038 0.0
H563 H 0.66394 0.93679 0.43435 0.0
H564 H 0.06618 0.742 0.49498 0.0
H565 H 0.01396 0.73063 0.50737 0.0
H566 H 0.97643 0.67101 0.43758 0.0
H567 H 0.02871 0.68282 0.42464 0.0
H568 H 0.94557 0.70445 0.45019 0.0
H569 H 0.95847 0.64404 0.53984 0.0
H570 H 0.98752 0.68439 0.53718 0.0
H571 H 0.98558 0.65729 0.51204 0.0
C572 C 0.0469 0.72703 0.48192 0.0
C573 C 0.05145 0.71286 0.4591 0.0
C574 C 0.0171 0.72049 0.48908 0.0
C575 C -0.00864 0.69933 0.47378 0.0
C576 C -0.00395 0.68722 0.44974 0.0
H577 H 0.79345 0.58869 0.49641 0.0
H578 H 0.84653 0.61545 0.47874 0.0
C579 C 0.02594 0.69403 0.44237 0.0
C580 C 0.95956 0.6873 0.48431 0.0
H581 H 0.91188 0.64535 0.53638 0.0
C582 C 0.93817 0.69162 0.46906 0.0
C583 C 0.94999 0.67032 0.50884 0.0
C584 C 0.97145 0.66343 0.52534 0.0
C585 C 0.90741 0.67957 0.47788 0.0
C586 C 0.89794 0.6626 0.50236 0.0
C587 C 0.91939 0.65857 0.5177 0.0
C588 C 0.8656 0.64782 0.51216 0.0
C589 C 0.88532 0.6852 0.4611 0.0
C590 C 0.859 0.65687 0.53701 0.0
C591 C 0.82877 0.64156 0.54722 0.0
C592 C 0.80475 0.61675 0.53284 0.0
C593 C 0.81148 0.60772 0.50795 0.0
C594 C 0.84169 0.62315 0.4977 0.0
H595 H 0.89785 0.70455 0.44648 0.0
H596 H 0.86983 0.66383 0.44946 0.0
H597 H 0.87055 0.69064 0.47424 0.0
H598 H 0.87729 0.67567 0.54856 0.0
H599 H 0.8243 0.64902 0.56647 0.0
H600 H 0.26162 0.4121 0.33125 0.0
H601 H 0.24754 0.42277 0.28673 0.0
H602 H 0.27038 0.51456 0.31324 0.0
H603 H 0.28442 0.50406 0.35793 0.0
H604 H 0.21059 0.47964 0.29095 0.0
H605 H 0.29934 0.47884 0.22369 0.0
H606 H 0.28107 0.44568 0.24571 0.0
H607 H 0.30442 0.48387 0.25992 0.0
C608 C 0.26425 0.43479 0.32746 0.0
C609 C 0.27409 0.45721 0.34813 0.0
C610 C 0.25631 0.4409 0.30197 0.0
C611 C 0.25817 0.46955 0.29665 0.0
C612 C 0.26894 0.49236 0.31694 0.0
H613 H 0.21292 0.50491 0.13369 0.0
H614 H 0.23796 0.51437 0.17814 0.0
C615 C 0.27702 0.48633 0.34242 0.0
C616 C 0.24615 0.47444 0.27078 0.0
H617 H 0.25301 0.47205 0.20225 0.0
C618 C 0.22014 0.47847 0.27154 0.0
C619 C 0.25885 0.47325 0.24554 0.0
C620 C 0.28765 0.47048 0.24358 0.0
C621 C 0.20553 0.47975 0.24764 0.0
C622 C 0.2171 0.47664 0.22243 0.0
C623 C 0.24405 0.47422 0.22164 0.0
C624 C 0.20036 0.47341 0.19676 0.0
C625 C 0.17753 0.48391 0.24956 0.0
C626 C 0.17072 0.44753 0.19269 0.0
C627 C 0.1564 0.44202 0.16736 0.0
C628 C 0.17152 0.46227 0.14561 0.0
C629 C 0.20061 0.48896 0.15007 0.0
C630 C 0.21501 0.49436 0.17541 0.0
H631 H 0.17714 0.49489 0.26904 0.0
H632 H 0.17704 0.49837 0.23263 0.0
H633 H 0.15613 0.46078 0.24843 0.0
H634 H 0.15924 0.43081 0.20878 0.0
H635 H 0.13404 0.42121 0.16456 0.0
H636 H 0.58187 0.71862 0.16515 0.0
H637 H 0.57441 0.7349 0.20989 0.0
H638 H 0.48843 0.72759 0.18306 0.0
H639 H 0.49563 0.7112 0.1382 0.0
H640 H 0.5329 0.78658 0.20621 0.0
H641 H 0.51181 0.68712 0.27188 0.0
H642 H 0.54461 0.70043 0.24963 0.0
H643 H 0.50616 0.68352 0.23563 0.0
C644 C 0.56104 0.71982 0.16891 0.0
C645 C 0.53935 0.71364 0.14812 0.0
C646 C 0.55677 0.72905 0.19452 0.0
C647 C 0.53079 0.73228 0.19978 0.0
C648 C 0.50856 0.7251 0.17938 0.0
H649 H 0.49412 0.7824 0.35978 0.0
H650 H 0.48667 0.75902 0.31476 0.0
C651 C 0.51268 0.71564 0.15381 0.0
C652 C 0.52836 0.74573 0.22578 0.0
H653 H 0.52454 0.73469 0.29416 0.0
C654 C 0.5307 0.77511 0.22544 0.0
C655 C 0.52529 0.73059 0.25076 0.0
C656 C 0.52154 0.69854 0.25213 0.0
C657 C 0.53124 0.79029 0.24957 0.0
C658 C 0.52955 0.77574 0.2746 0.0
C659 C 0.52599 0.74585 0.2749 0.0
C660 C 0.53296 0.7917 0.30075 0.0
C661 C 0.5339 0.82188 0.24815 0.0
C662 C 0.56134 0.81802 0.3076 0.0
C663 C 0.56572 0.83137 0.33329 0.0
C664 C 0.54176 0.8186 0.3526 0.0
C665 C 0.51298 0.79287 0.34532 0.0
C666 C 0.5087 0.77941 0.31967 0.0
H667 H 0.52716 0.82633 0.2279 0.0
H668 H 0.51911 0.82419 0.26375 0.0
H669 H 0.55836 0.84005 0.25204 0.0
H670 H 0.58049 0.82759 0.2934 0.0
H671 H 0.58819 0.85109 0.3383 0.0
H672 H 0.26482 0.76607 0.12107 0.0
H673 H 0.24671 0.7416 0.16544 0.0
H674 H 0.23366 0.81748 0.19042 0.0
H675 H 0.2518 0.84219 0.14621 0.0
H676 H 0.26262 0.79709 0.2301 0.0
H677 H 0.15319 0.70041 0.18717 0.0
H678 H 0.18883 0.70704 0.17191 0.0
H679 H 0.17736 0.73591 0.16877 0.0
C680 C 0.25848 0.77777 0.13612 0.0
C681 C 0.25955 0.80599 0.13008 0.0
C682 C 0.24797 0.76364 0.16138 0.0
C683 C 0.23841 0.77752 0.18098 0.0
C684 C 0.2408 0.80635 0.17547 0.0
H685 H 0.1226 0.71623 0.32085 0.0
H686 H 0.14537 0.73148 0.27569 0.0
C687 C 0.25118 0.82043 0.15021 0.0
C688 C 0.22484 0.76162 0.20693 0.0
H689 H 0.16046 0.6998 0.23427 0.0
C690 C 0.24044 0.77567 0.23106 0.0
C691 C 0.19574 0.73386 0.20801 0.0
C692 C 0.17757 0.71841 0.18265 0.0
C693 C 0.22753 0.76284 0.25634 0.0
C694 C 0.1984 0.73511 0.25743 0.0
C695 C 0.18293 0.72088 0.23329 0.0
C696 C 0.18265 0.72197 0.28352 0.0
C697 C 0.2446 0.77966 0.28172 0.0
C698 C 0.19541 0.71044 0.30247 0.0
C699 C 0.18239 0.70159 0.32829 0.0
C700 C 0.15642 0.7042 0.33554 0.0
C701 C 0.14266 0.71405 0.31594 0.0
C702 C 0.15563 0.72278 0.29013 0.0
H703 H 0.26395 0.80351 0.27738 0.0
H704 H 0.22846 0.78127 0.29628 0.0
H705 H 0.25449 0.76645 0.29161 0.0
H706 H 0.21601 0.70923 0.29757 0.0
H707 H 0.1935 0.69402 0.34291 0.0
H708 H 0.83898 0.55637 0.81959 0.0
H709 H 0.81322 0.5428 0.77572 0.0
H710 H 0.7407 0.45614 0.80838 0.0
H711 H 0.76604 0.47006 0.85288 0.0
H712 H 0.79488 0.49511 0.73983 0.0
H713 H 0.69247 0.49743 0.78278 0.0
H714 H 0.72789 0.51059 0.80173 0.0
H715 H 0.70151 0.46969 0.79725 0.0
C716 C 0.81778 0.53421 0.81744 0.0
C717 C 0.80431 0.5145 0.83982 0.0
C718 C 0.80309 0.52644 0.79228 0.0
C719 C 0.7747 0.49876 0.7889 0.0
C720 C 0.76223 0.47795 0.81071 0.0
H721 H 0.70499 0.48398 0.62128 0.0
H722 H 0.71554 0.46541 0.66384 0.0
C723 C 0.77685 0.48584 0.83605 0.0
C724 C 0.75753 0.49349 0.76306 0.0
H725 H 0.69468 0.4941 0.73576 0.0
C726 C 0.77267 0.49428 0.73886 0.0
C727 C 0.72861 0.49256 0.76195 0.0
C728 C 0.71166 0.49273 0.78724 0.0
C729 C 0.76074 0.49624 0.71362 0.0
C730 C 0.73246 0.49661 0.71258 0.0
C731 C 0.71629 0.4937 0.73667 0.0
C732 C 0.72187 0.50489 0.68746 0.0
C733 C 0.77969 0.50022 0.68852 0.0
C734 C 0.72035 0.53235 0.68696 0.0
C735 C 0.71394 0.54274 0.6629 0.0
C736 C 0.70901 0.52593 0.63876 0.0
C737 C 0.70892 0.49755 0.63953 0.0
C738 C 0.71515 0.48702 0.66376 0.0
H739 H 0.80344 0.5048 0.69343 0.0
H740 H 0.76795 0.47866 0.67621 0.0
H741 H 0.78175 0.51972 0.67596 0.0
H742 H 0.72537 0.54647 0.70501 0.0
H743 H 0.71406 0.56462 0.66307 0.0
H744 H 0.4912 0.2761 0.85246 0.0
H745 H 0.49896 0.26182 0.80689 0.0
H746 H 0.4112 0.25163 0.78179 0.0
H747 H 0.40347 0.26627 0.82706 0.0
H748 H 0.46124 0.20587 0.78223 0.0
H749 H 0.46801 0.30165 0.71979 0.0
H750 H 0.47245 0.30436 0.75615 0.0
H751 H 0.43434 0.28434 0.74115 0.0
C752 C 0.47383 0.2714 0.83709 0.0
C753 C 0.44672 0.27234 0.84337 0.0
C754 C 0.47828 0.26318 0.81109 0.0
C755 C 0.45583 0.256 0.79087 0.0
C756 C 0.42915 0.25773 0.7969 0.0
H757 H 0.40171 0.13486 0.65451 0.0
H758 H 0.41122 0.159 0.69918 0.0
C759 C 0.42469 0.26595 0.82286 0.0
C760 C 0.45889 0.24417 0.76417 0.0
H761 H 0.45623 0.25469 0.69616 0.0
C762 C 0.46059 0.21678 0.76339 0.0
C763 C 0.45848 0.25863 0.73963 0.0
C764 C 0.45855 0.28905 0.73916 0.0
C765 C 0.46042 0.20269 0.73872 0.0
C766 C 0.45797 0.21608 0.71424 0.0
C767 C 0.45777 0.24425 0.71497 0.0
C768 C 0.45386 0.20044 0.68775 0.0
C769 C 0.46262 0.17346 0.73913 0.0
C770 C 0.47456 0.2158 0.66641 0.0
C771 C 0.46909 0.2021 0.64076 0.0
C772 C 0.44266 0.1729 0.63597 0.0
C773 C 0.42237 0.15728 0.65756 0.0
C774 C 0.42786 0.17099 0.68316 0.0
H775 H 0.47397 0.17181 0.75796 0.0
H776 H 0.43887 0.15292 0.73838 0.0
H777 H 0.47584 0.17244 0.72144 0.0
H778 H 0.49467 0.23863 0.6695 0.0
H779 H 0.4851 0.21478 0.62453 0.0
H780 H 0.70518 0.21455 0.8603 0.0
H781 H 0.71783 0.23778 0.815 0.0
H782 H 0.72665 0.16057 0.78616 0.0
H783 H 0.71368 0.13709 0.83104 0.0
H784 H 0.77291 0.25642 0.78894 0.0
H785 H 0.67597 0.16984 0.72625 0.0
H786 H 0.6739 0.17044 0.76273 0.0
H787 H 0.69298 0.15213 0.74638 0.0
C788 C 0.70915 0.2022 0.84415 0.0
C789 C 0.70844 0.17398 0.84925 0.0
C790 C 0.71644 0.21554 0.81831 0.0
C791 C 0.72283 0.20073 0.79713 0.0
C792 C 0.72113 0.17208 0.80201 0.0
H793 H 0.84429 0.26562 0.66278 0.0
H794 H 0.81948 0.25241 0.70716 0.0
C795 C 0.71389 0.15877 0.82777 0.0
C796 C 0.73419 0.21637 0.77064 0.0
H797 H 0.72357 0.20392 0.70257 0.0
C798 C 0.76182 0.24522 0.77004 0.0
C799 C 0.71951 0.20201 0.74601 0.0
C800 C 0.68877 0.17205 0.74534 0.0
C801 C 0.77611 0.25918 0.74546 0.0
C802 C 0.76268 0.24359 0.72088 0.0
C803 C 0.73409 0.21568 0.72143 0.0
C804 C 0.77886 0.25457 0.69456 0.0
C805 C 0.8057 0.29026 0.74607 0.0
C806 C 0.76418 0.25994 0.67263 0.0
C807 C 0.77824 0.26729 0.64712 0.0
C808 C 0.80714 0.26917 0.64308 0.0
C809 C 0.82212 0.26453 0.66525 0.0
C810 C 0.80804 0.25717 0.6907 0.0
H811 H 0.80717 0.3035 0.76468 0.0
H812 H 0.82589 0.28647 0.74605 0.0
H813 H 0.8075 0.30456 0.72813 0.0
H814 H 0.74157 0.25786 0.67514 0.0
H815 H 0.76607 0.27066 0.63043 0.0
H816 H 0.08671 0.48655 0.05591 0.0
H817 H 0.04296 0.49518 0.04832 0.0
H818 H 0.0526 0.48981 0.96211 0.0
H819 H 0.09636 0.48124 0.96933 0.0
H820 H 0.03436 0.53998 0.01221 0.0
H821 H 0.96379 0.41467 0.98489 0.0
H822 H -0.00022 0.43024 0.00357 0.0
H823 H 0.00042 0.43679 0.96779 0.0
C824 C 0.08012 0.48804 0.03529 0.0
C825 C 0.09477 0.48271 0.01324 0.0
C826 C 0.05505 0.49287 0.03103 0.0
C827 C 0.04427 0.4924 0.00471 0.0
C828 C 0.0604 0.48975 0.98259 0.0
H829 H 0.88697 0.49487 0.93472 0.0
H830 H 0.93007 0.48586 0.94433 0.0
C831 C 0.08552 0.48503 0.98679 0.0
C832 C 0.01472 0.49208 0.00045 0.0
H833 H 0.93942 0.44493 0.98075 0.0
C834 C 0.01354 0.51924 0.00544 0.0
C835 C 0.98771 0.46486 0.99165 0.0
C836 C 0.98771 0.43484 0.98681 0.0
C837 C 0.98605 0.52009 0.00129 0.0
C838 C 0.959 0.49283 0.99254 0.0
C839 C 0.96018 0.46566 0.98762 0.0
C840 C 0.92959 0.49263 0.98752 0.0
C841 C 0.98632 0.55033 0.00563 0.0
C842 C 0.91394 0.49746 0.00887 0.0
C843 C 0.88917 0.50243 0.00351 0.0
C844 C 0.87978 0.50277 0.97667 0.0
C845 C 0.89369 0.49497 0.9556 0.0
C846 C 0.91843 0.48995 0.96102 0.0
H847 H 0.01032 0.57048 0.00687 0.0
H848 H 0.97384 0.55454 0.98898 0.0
H849 H 0.97425 0.54906 0.02487 0.0
H850 H 0.92189 0.49894 0.02954 0.0
H851 H 0.87884 0.50809 0.02027 0.0
H852 H 0.51606 0.6018 0.05951 0.0
H853 H 0.50896 0.5501 0.05113 0.0
H854 H 0.49726 0.55996 0.96591 0.0
H855 H 0.50447 0.61171 0.97393 0.0
H856 H 0.46131 0.49497 0.02472 0.0
H857 H 0.57438 0.54819 0.97064 0.0
H858 H 0.56296 0.57051 0.99167 0.0
H859 H 0.54726 0.55918 0.95814 0.0
C860 C 0.51126 0.59275 0.03904 0.0
C861 C 0.51127 0.61115 0.01734 0.0
C862 C 0.50736 0.56323 0.0343 0.0
C863 C 0.50347 0.55167 0.00783 0.0
C864 C 0.50098 0.56885 0.98642 0.0
H865 H 0.48367 0.38651 0.93305 0.0
H866 H 0.49498 0.43934 0.94304 0.0
C867 C 0.50483 0.59833 0.99111 0.0
C868 C 0.50358 0.5224 0.00243 0.0
H869 H 0.54428 0.4931 0.97029 0.0
C870 C 0.4795 0.49452 0.01296 0.0
C871 C 0.52749 0.52204 0.98717 0.0
C872 C 0.55467 0.55157 0.97641 0.0
C873 C 0.4782 0.46606 0.00799 0.0
C874 C 0.50199 0.46565 0.99255 0.0
C875 C 0.5262 0.49357 0.9822 0.0
C876 C 0.50113 0.43613 0.98603 0.0
C877 C 0.45092 0.43652 0.01864 0.0
C878 C 0.5028 0.41762 0.00667 0.0
C879 C 0.49647 0.38741 0.00105 0.0
C880 C 0.4883 0.37523 0.97467 0.0
C881 C 0.48965 0.39501 0.95362 0.0
C882 C 0.49601 0.42521 0.95929 0.0
H883 H 0.43157 0.44015 0.02517 0.0
H884 H 0.44204 0.41796 0.00301 0.0
H885 H 0.45847 0.42824 0.03639 0.0
H886 H 0.50739 0.42595 0.02736 0.0
H887 H 0.49589 0.37296 0.01773 0.0
H888 H 0.37904 0.87734 0.96601 0.0
H889 H 0.43162 0.92172 0.96237 0.0
H890 H 0.43226 0.93881 0.04797 0.0
H891 H 0.37966 0.89445 0.05194 0.0
H892 H 0.44258 0.98286 0.97768 0.0
H893 H 0.51955 0.9496 0.03235 0.0
H894 H 0.48207 0.92116 0.01903 0.0
H895 H 0.48453 0.94179 0.0496 0.0
C896 C 0.39063 0.88989 0.98426 0.0
C897 C 0.37494 0.88245 0.00925 0.0
C898 C 0.42065 0.91537 0.98208 0.0
C899 C 0.43569 0.93357 0.00487 0.0
C900 C 0.4211 0.92488 0.03019 0.0
H901 H 0.61205 0.10453 0.02473 0.0
H902 H 0.55909 0.06199 0.03208 0.0
C903 C 0.391 0.89947 0.0324 0.0
C904 C 0.46502 0.96344 0.00159 0.0
H905 H 0.54184 0.002 0.01844 0.0
C906 C 0.46434 0.98708 0.98651 0.0
C907 C 0.49316 0.96889 0.01345 0.0
C908 C 0.49514 0.94401 0.02938 0.0
C909 C 0.49116 0.01618 0.983 0.0
C910 C 0.51949 0.0215 -0.00556 0.0
C911 C 0.52005 -0.00207 0.00979 0.0
C912 C 0.54923 0.05064 0.98963 0.0
C913 C 0.48879 0.04105 0.9674 0.0
C914 C 0.56083 0.05914 0.96323 0.0
C915 C 0.59102 0.08362 0.95891 0.0
C916 C 0.61035 0.09978 0.98096 0.0
C917 C 0.59788 0.09258 0.00727 0.0
C918 C 0.56764 0.06814 0.01155 0.0
H919 H 0.46467 0.03695 0.96746 0.0
H920 H 0.50454 0.0645 0.9759 0.0
H921 H 0.49549 0.04075 0.94603 0.0
H922 H 0.54724 0.04568 0.94602 0.0
H923 H 0.59985 0.08841 0.93839 0.0
H924 H 0.50338 0.89708 0.51744 0.0
H925 H 0.49734 0.94286 0.52025 0.0
H926 H 0.51791 0.96031 0.43518 0.0
H927 H 0.52392 0.91444 0.43202 0.0
H928 H 0.54743 0.00433 0.50658 0.0
H929 H 0.44011 0.96961 0.44656 0.0
H930 H 0.44925 0.94151 0.46056 0.0
H931 H 0.46912 0.96324 0.43092 0.0
C932 C 0.50595 0.91017 0.49914 0.0
C933 C 0.51427 0.90209 0.47451 0.0
C934 C 0.50265 0.93645 0.50085 0.0
C935 C 0.50727 0.95495 0.47796 0.0
C936 C 0.51399 0.94614 0.45303 0.0
H937 H 0.48992 0.12012 0.46199 0.0
H938 H 0.50687 0.0825 0.45314 0.0
C939 C 0.51737 0.91987 0.45128 0.0
C940 C 0.50712 0.98454 0.4807 0.0
H941 H 0.46713 0.02108 0.46283 0.0
C942 C 0.52994 0.00809 0.49697 0.0
C943 C 0.48451 0.98942 0.46787 0.0
C944 C 0.45917 0.9646 0.45062 0.0
C945 C 0.53054 0.03637 0.50102 0.0
C946 C 0.50735 0.04091 0.48887 0.0
C947 C 0.485 0.01762 0.47203 0.0
C948 C 0.50404 0.06835 0.49495 0.0
C949 C 0.55603 0.0611 0.5182 0.0
C950 C 0.4982 0.07388 0.52156 0.0
C951 C 0.48871 0.09553 0.52674 0.0
C952 C 0.48443 0.11171 0.50532 0.0
C953 C 0.49282 0.10798 0.47897 0.0
C954 C 0.50239 0.08637 0.47383 0.0
H955 H 0.57703 0.05859 0.5183 0.0
H956 H 0.56266 0.08479 0.51093 0.0
H957 H 0.54776 0.05873 0.53939 0.0
H958 H 0.49884 0.05992 0.53814 0.0
H959 H 0.48244 0.09775 0.54728 0.0
H960 H 0.86363 0.36657 0.4686 0.0
H961 H 0.90481 0.41983 0.45959 0.0
H962 H 0.92428 0.43496 0.54501 0.0
H963 H 0.88335 0.38171 0.55433 0.0
H964 H 0.92179 0.4819 0.47965 0.0
H965 H 0.00445 0.44263 0.51027 0.0
H966 H 0.96428 0.41568 0.50227 0.0
H967 H 0.97449 0.43548 0.53428 0.0
C968 C 0.87597 0.38145 0.4856 0.0
C969 C 0.87056 0.36961 0.51217 0.0
C970 C 0.89961 0.41188 0.48036 0.0
C971 C 0.9181 0.4309 0.50158 0.0
C972 C 0.91065 0.4203 0.52833 0.0
H973 H 0.08932 0.60639 0.5113 0.0
H974 H 0.0444 0.55498 0.51937 0.0
C975 C 0.88706 0.38991 0.53361 0.0
C976 C 0.94685 0.46046 0.49556 0.0
H977 H 0.02595 0.49548 0.4988 0.0
C978 C 0.94458 0.48494 0.48377 0.0
C979 C 0.97651 0.46414 0.50083 0.0
C980 C 0.98028 0.43806 0.51241 0.0
C981 C 0.97129 0.51338 0.47769 0.0
C982 C 0.00096 0.51707 0.48302 0.0
C983 C 0.00318 0.49252 0.4947 0.0
C984 C 0.02996 0.54664 0.47743 0.0
C985 C 0.96752 0.5395 0.46624 0.0
C986 C 0.03755 0.5583 0.45097 0.0
C987 C 0.06331 0.58768 0.44623 0.0
C988 C 0.08196 0.60588 0.4679 0.0
C989 C 0.07543 0.59313 0.49414 0.0
C990 C 0.04968 0.56377 0.49883 0.0
H991 H 0.94363 0.53542 0.4693 0.0
H992 H 0.98428 0.56206 0.4757 0.0
H993 H 0.97216 0.54134 0.44415 0.0
H994 H 0.02303 0.54507 0.43408 0.0
H995 H 0.06771 0.59667 0.42575 0.0
H996 H 0.38202 0.49146 0.5164 0.0
H997 H 0.43541 0.50238 0.52021 0.0
H998 H 0.4394 0.49314 0.43371 0.0
H999 H 0.38562 0.48151 0.42969 0.0
H1000 H 0.45671 0.45674 0.46141 0.0
H1001 H 0.51899 0.57655 0.50247 0.0
H1002 H 0.48524 0.55133 0.52201 0.0
H1003 H 0.48086 0.55998 0.48743 0.0
C1004 C 0.39442 0.49249 0.49806 0.0
C1005 C 0.37943 0.48546 0.47274 0.0
C1006 C 0.42505 0.49885 0.50029 0.0
C1007 C 0.44145 0.49875 0.47723 0.0
C1008 C 0.42713 0.49333 0.45176 0.0
H1009 H 0.62666 0.5249 0.46144 0.0
H1010 H 0.57298 0.51099 0.45186 0.0
C1011 C 0.39643 0.48685 0.4495 0.0
C1012 C 0.47235 0.50141 0.4801 0.0
H1013 H 0.54451 0.54668 0.50719 0.0
C1014 C 0.47605 0.47658 0.47112 0.0
C1015 C 0.4975 0.52728 0.4928 0.0
C1016 C 0.49559 0.55543 0.50147 0.0
C1017 C 0.50399 0.47656 0.47524 0.0
C1018 C 0.52868 0.50197 0.48867 0.0
C1019 C 0.52524 0.52703 0.49721 0.0
C1020 C 0.5587 0.50357 0.4938 0.0
C1021 C 0.50681 0.44918 0.46587 0.0
C1022 C 0.56793 0.5027 0.52045 0.0
C1023 C 0.59851 0.51042 0.52602 0.0
C1024 C 0.62047 0.51968 0.50502 0.0
C1025 C 0.6104 0.518 0.4781 0.0
C1026 C 0.57973 0.51007 0.47255 0.0
H1027 H 0.48415 0.42941 0.4592 0.0
H1028 H 0.52328 0.45641 0.44863 0.0
H1029 H 0.5163 0.44114 0.48238 0.0
H1030 H 0.55191 0.49769 0.53707 0.0
H1031 H 0.6054 0.51141 0.54698 0.0
loop_
_geom_bond_atom_site_label_1
_geom_bond_atom_site_label_2
_geom_bond_distance
_geom_bond_site_symmetry_2
_ccdc_geom_bond_type
C0 O1 1.306 . S
C0 O3 1.160 . S
O1 C0 1.306 . S
O1 Cd2 2.228 . S
Cd2 O1 2.228 . S
Cd2 O6 2.273 . S
Cd2 O10 2.277 . S
O3 C0 1.160 . S
O3 Cd4 2.203 . S
Cd4 O3 2.203 . S
Cd4 O6 2.411 . S
Cd4 O7 2.333 . S
Cd4 O8 2.352 . S
Cd4 O12 2.277 . S
Cd4 O13 2.356 . S
C5 O10 1.209 . S
C5 O12 1.226 . S
O6 Cd2 2.273 . S
O6 Cd4 2.411 . S
O6 C9 1.320 . S
O7 Cd4 2.333 . S
O7 C9 1.214 . S
O8 Cd4 2.352 . S
O8 C11 1.258 . S
C9 O6 1.320 . S
C9 O7 1.214 . S
O10 Cd2 2.277 . S
O10 C5 1.209 . S
C11 O8 1.258 . S
C11 O13 1.282 . S
O12 Cd4 2.277 . S
O12 C5 1.226 . S
O13 Cd4 2.356 . S
O13 C11 1.282 . S
C14 O15 1.306 . S
C14 O17 1.160 . S
O15 C14 1.306 . S
O15 Cd16 2.228 . S
Cd16 O15 2.228 . S
Cd16 O20 2.273 . S
Cd16 O24 2.277 . S
O17 C14 1.160 . S
O17 Cd18 2.203 . S
Cd18 O17 2.203 . S
Cd18 O20 2.411 . S
Cd18 O21 2.333 . S
Cd18 O22 2.352 . S
Cd18 O26 2.277 . S
Cd18 O27 2.356 . S
C19 O24 1.209 . S
C19 O26 1.226 . S
O20 Cd16 2.273 . S
O20 Cd18 2.411 . S
O20 C23 1.320 . S
O21 Cd18 2.333 . S
O21 C23 1.214 . S
O22 Cd18 2.352 . S
O22 C25 1.258 . S
C23 O20 1.320 . S
C23 O21 1.214 . S
O24 Cd16 2.277 . S
O24 C19 1.209 . S
C25 O22 1.258 . S
C25 O27 1.282 . S
O26 Cd18 2.277 . S
O26 C19 1.226 . S
O27 Cd18 2.356 . S
O27 C25 1.282 . S
C28 O29 1.306 . S
C28 O31 1.160 . S
O29 C28 1.306 . S
O29 Cd30 2.228 . S
Cd30 O29 2.228 . S
Cd30 O34 2.273 . S
Cd30 O38 2.277 . S
O31 C28 1.160 . S
O31 Cd32 2.203 . S
Cd32 O31 2.203 . S
Cd32 O34 2.411 . S
Cd32 O35 2.333 . S
Cd32 O36 2.352 . S
Cd32 O40 2.277 . S
Cd32 O41 2.356 . S
C33 O38 1.209 . S
C33 O40 1.226 . S
O34 Cd30 2.273 . S
O34 Cd32 2.411 . S
O34 C37 1.320 . S
O35 Cd32 2.333 . S
O35 C37 1.214 . S
O36 Cd32 2.352 . S
O36 C39 1.258 . S
C37 O34 1.320 . S
C37 O35 1.214 . S
O38 Cd30 2.277 . S
O38 C33 1.209 . S
C39 O36 1.258 . S
C39 O41 1.282 . S
O40 Cd32 2.277 . S
O40 C33 1.226 . S
O41 Cd32 2.356 . S
O41 C39 1.282 . S
C42 O43 1.306 . S
C42 O45 1.160 . S
O43 C42 1.306 . S
O43 Cd44 2.228 . S
Cd44 O43 2.228 . S
Cd44 O48 2.273 . S
Cd44 O52 2.277 . S
O45 C42 1.160 . S
O45 Cd46 2.203 . S
Cd46 O45 2.203 . S
Cd46 O48 2.411 . S
Cd46 O49 2.333 . S
Cd46 O50 2.352 . S
Cd46 O54 2.277 . S
Cd46 O55 2.356 . S
C47 O52 1.209 . S
C47 O54 1.226 . S
O48 Cd44 2.273 . S
O48 Cd46 2.411 . S
O48 C51 1.320 . S
O49 Cd46 2.333 . S
O49 C51 1.214 . S
O50 Cd46 2.352 . S
O50 C53 1.258 . S
C51 O48 1.320 . S
C51 O49 1.214 . S
O52 Cd44 2.277 . S
O52 C47 1.209 . S
C53 O50 1.258 . S
C53 O55 1.282 . S
O54 Cd46 2.277 . S
O54 C47 1.226 . S
O55 Cd46 2.356 . S
O55 C53 1.282 . S
C56 O57 1.306 . S
C56 O59 1.160 . S
O57 C56 1.306 . S
O57 Cd58 2.228 . S
Cd58 O57 2.228 . S
Cd58 O62 2.273 . S
Cd58 O66 2.277 . S
O59 C56 1.160 . S
O59 Cd60 2.203 . S
Cd60 O59 2.203 . S
Cd60 O62 2.411 . S
Cd60 O63 2.333 . S
Cd60 O64 2.352 . S
Cd60 O68 2.277 . S
Cd60 O69 2.356 . S
C61 O66 1.209 . S
C61 O68 1.226 . S
O62 Cd58 2.273 . S
O62 Cd60 2.411 . S
O62 C65 1.320 . S
O63 Cd60 2.333 . S
O63 C65 1.214 . S
O64 Cd60 2.352 . S
O64 C67 1.258 . S
C65 O62 1.320 . S
C65 O63 1.214 . S
O66 Cd58 2.277 . S
O66 C61 1.209 . S
C67 O64 1.258 . S
C67 O69 1.282 . S
O68 Cd60 2.277 . S
O68 C61 1.226 . S
O69 Cd60 2.356 . S
O69 C67 1.282 . S
C70 O71 1.306 . S
C70 O73 1.160 . S
O71 C70 1.306 . S
O71 Cd72 2.228 . S
Cd72 O71 2.228 . S
Cd72 O76 2.273 . S
Cd72 O80 2.277 . S
O73 C70 1.160 . S
O73 Cd74 2.203 . S
Cd74 O73 2.203 . S
Cd74 O76 2.411 . S
Cd74 O77 2.333 . S
Cd74 O78 2.352 . S
Cd74 O82 2.277 . S
Cd74 O83 2.356 . S
C75 O80 1.209 . S
C75 O82 1.226 . S
O76 Cd72 2.273 . S
O76 Cd74 2.411 . S
O76 C79 1.320 . S
O77 Cd74 2.333 . S
O77 C79 1.214 . S
O78 Cd74 2.352 . S
O78 C81 1.258 . S
C79 O76 1.320 . S
C79 O77 1.214 . S
O80 Cd72 2.277 . S
O80 C75 1.209 . S
C81 O78 1.258 . S
C81 O83 1.282 . S
O82 Cd74 2.277 . S
O82 C75 1.226 . S
O83 Cd74 2.356 . S
O83 C81 1.282 . S
C84 O85 1.306 . S
C84 O87 1.160 . S
O85 C84 1.306 . S
O85 Cd86 2.228 . S
Cd86 O85 2.228 . S
Cd86 O90 2.273 . S
Cd86 O94 2.277 . S
O87 C84 1.160 . S
O87 Cd88 2.203 . S
Cd88 O87 2.203 . S
Cd88 O90 2.411 . S
Cd88 O91 2.333 . S
Cd88 O92 2.352 . S
Cd88 O96 2.277 . S
Cd88 O97 2.356 . S
C89 O94 1.209 . S
C89 O96 1.226 . S
O90 Cd86 2.273 . S
O90 Cd88 2.411 . S
O90 C93 1.320 . S
O91 Cd88 2.333 . S
O91 C93 1.214 . S
O92 Cd88 2.352 . S
O92 C95 1.258 . S
C93 O90 1.320 . S
C93 O91 1.214 . S
O94 Cd86 2.277 . S
O94 C89 1.209 . S
C95 O92 1.258 . S
C95 O97 1.282 . S
O96 Cd88 2.277 . S
O96 C89 1.226 . S
O97 Cd88 2.356 . S
O97 C95 1.282 . S
C98 O99 1.306 . S
C98 O101 1.160 . S
O99 C98 1.306 . S
O99 Cd100 2.228 . S
Cd100 O99 2.228 . S
Cd100 O104 2.273 . S
Cd100 O108 2.277 . S
O101 C98 1.160 . S
O101 Cd102 2.203 . S
Cd102 O101 2.203 . S
Cd102 O104 2.411 . S
Cd102 O105 2.333 . S
Cd102 O106 2.352 . S
Cd102 O110 2.277 . S
Cd102 O111 2.356 . S
C103 O108 1.209 . S
C103 O110 1.226 . S
O104 Cd100 2.273 . S
O104 Cd102 2.411 . S
O104 C107 1.320 . S
O105 Cd102 2.333 . S
O105 C107 1.214 . S
O106 Cd102 2.352 . S
O106 C109 1.258 . S
C107 O104 1.320 . S
C107 O105 1.214 . S
O108 Cd100 2.277 . S
O108 C103 1.209 . S
C109 O106 1.258 . S
C109 O111 1.282 . S
O110 Cd102 2.277 . S
O110 C103 1.226 . S
O111 Cd102 2.356 . S
O111 C109 1.282 . S
C112 O113 1.306 . S
C112 O115 1.160 . S
O113 C112 1.306 . S
O113 Cd114 2.228 . S
Cd114 O113 2.228 . S
Cd114 O118 2.273 . S
Cd114 O122 2.277 . S
O115 C112 1.160 . S
O115 Cd116 2.203 . S
Cd116 O115 2.203 . S
Cd116 O118 2.411 . S
Cd116 O119 2.333 . S
Cd116 O120 2.352 . S
Cd116 O124 2.277 . S
Cd116 O125 2.356 . S
C117 O122 1.209 . S
C117 O124 1.226 . S
O118 Cd114 2.273 . S
O118 Cd116 2.411 . S
O118 C121 1.320 . S
O119 Cd116 2.333 . S
O119 C121 1.214 . S
O120 Cd116 2.352 . S
O120 C123 1.258 . S
C121 O118 1.320 . S
C121 O119 1.214 . S
O122 Cd114 2.277 . S
O122 C117 1.209 . S
C123 O120 1.258 . S
C123 O125 1.282 . S
O124 Cd116 2.277 . S
O124 C117 1.226 . S
O125 Cd116 2.356 . S
O125 C123 1.282 . S
C126 O127 1.306 . S
C126 O129 1.160 . S
O127 C126 1.306 . S
O127 Cd128 2.228 . S
Cd128 O127 2.228 . S
Cd128 O132 2.273 . S
Cd128 O136 2.277 . S
O129 C126 1.160 . S
O129 Cd130 2.203 . S
Cd130 O129 2.203 . S
Cd130 O132 2.411 . S
Cd130 O133 2.333 . S
Cd130 O134 2.352 . S
Cd130 O138 2.277 . S
Cd130 O139 2.356 . S
C131 O136 1.209 . S
C131 O138 1.226 . S
O132 Cd128 2.273 . S
O132 Cd130 2.411 . S
O132 C135 1.320 . S
O133 Cd130 2.333 . S
O133 C135 1.214 . S
O134 Cd130 2.352 . S
O134 C137 1.258 . S
C135 O132 1.320 . S
C135 O133 1.214 . S
O136 Cd128 2.277 . S
O136 C131 1.209 . S
C137 O134 1.258 . S
C137 O139 1.282 . S
O138 Cd130 2.277 . S
O138 C131 1.226 . S
O139 Cd130 2.356 . S
O139 C137 1.282 . S
C140 O141 1.306 . S
C140 O143 1.160 . S
O141 C140 1.306 . S
O141 Cd142 2.228 . S
Cd142 O141 2.228 . S
Cd142 O146 2.273 . S
Cd142 O150 2.277 . S
O143 C140 1.160 . S
O143 Cd144 2.203 . S
Cd144 O143 2.203 . S
Cd144 O146 2.411 . S
Cd144 O147 2.333 . S
Cd144 O148 2.352 . S
Cd144 O152 2.277 . S
Cd144 O153 2.356 . S
C145 O150 1.209 . S
C145 O152 1.226 . S
O146 Cd142 2.273 . S
O146 Cd144 2.411 . S
O146 C149 1.320 . S
O147 Cd144 2.333 . S
O147 C149 1.214 . S
O148 Cd144 2.352 . S
O148 C151 1.258 . S
C149 O146 1.320 . S
C149 O147 1.214 . S
O150 Cd142 2.277 . S
O150 C145 1.209 . S
C151 O148 1.258 . S
C151 O153 1.282 . S
O152 Cd144 2.277 . S
O152 C145 1.226 . S
O153 Cd144 2.356 . S
O153 C151 1.282 . S
C154 O155 1.306 . S
C154 O157 1.160 . S
O155 C154 1.306 . S
O155 Cd156 2.228 . S
Cd156 O155 2.228 . S
Cd156 O160 2.273 . S
Cd156 O164 2.277 . S
O157 C154 1.160 . S
O157 Cd158 2.203 . S
Cd158 O157 2.203 . S
Cd158 O160 2.411 . S
Cd158 O161 2.333 . S
Cd158 O162 2.352 . S
Cd158 O166 2.277 . S
Cd158 O167 2.356 . S
C159 O164 1.209 . S
C159 O166 1.226 . S
O160 Cd156 2.273 . S
O160 Cd158 2.411 . S
O160 C163 1.320 . S
O161 Cd158 2.333 . S
O161 C163 1.214 . S
O162 Cd158 2.352 . S
O162 C165 1.258 . S
C163 O160 1.320 . S
C163 O161 1.214 . S
O164 Cd156 2.277 . S
O164 C159 1.209 . S
C165 O162 1.258 . S
C165 O167 1.282 . S
O166 Cd158 2.277 . S
O166 C159 1.226 . S
O167 Cd158 2.356 . S
O167 C165 1.282 . S
H168 C176 0.929 . S
H169 C178 0.930 . S
H170 C180 0.930 . S
H171 C183 0.929 . S
H172 C186 0.930 . S
H173 C188 0.960 . S
H174 C188 0.960 . S
H175 C188 0.960 . S
C176 H168 0.929 . S
C176 C177 1.377 . S
C176 C178 1.384 . S
C177 C176 1.377 . S
C177 C183 1.390 . S
C178 H169 0.930 . S
C178 C176 1.384 . S
C178 C179 1.372 . S
C179 C178 1.372 . S
C179 C180 1.400 . S
C179 C184 1.490 . S
C180 H170 0.930 . S
C180 C179 1.400 . S
C180 C183 1.386 . S
H181 C197 0.930 . S
H182 C198 0.931 . S
C183 H171 0.929 . S
C183 C177 1.390 . S
C183 C180 1.386 . S
C184 C179 1.490 . S
C184 C186 1.395 1_554 S
C184 C187 1.403 . S
H185 C191 0.930 . S
C186 H172 0.930 . S
C186 C184 1.395 1_556 S
C186 C189 1.403 . S
C187 C184 1.403 . S
C187 C188 1.524 . S
C187 C191 1.400 . S
C188 H173 0.960 . S
C188 H174 0.960 . S
C188 H175 0.960 . S
C188 C187 1.524 . S
C189 C186 1.403 . S
C189 C190 1.392 . S
C189 C193 1.495 . S
C190 C189 1.392 . S
C190 C191 1.385 1_556 S
C190 C192 1.478 . S
C191 H185 0.930 . S
C191 C187 1.400 . S
C191 C190 1.385 1_554 S
C192 C190 1.478 . S
C192 C194 1.381 . S
C192 C198 1.383 . S
C193 C189 1.495 . S
C193 H199 0.959 . S
C193 H200 0.961 . S
C193 H201 0.960 . S
C194 C192 1.381 . S
C194 C195 1.394 . S
C194 H202 0.930 . S
C195 C194 1.394 . S
C195 C196 1.383 . S
C195 H203 0.929 . S
C196 C195 1.383 . S
C196 C197 1.377 . S
C197 H181 0.930 . S
C197 C196 1.377 . S
C197 C198 1.379 . S
C198 H182 0.931 . S
C198 C192 1.383 . S
C198 C197 1.379 . S
H199 C193 0.959 . S
H200 C193 0.961 . S
H201 C193 0.960 . S
H202 C194 0.930 . S
H203 C195 0.929 . S
H204 C212 0.929 . S
H205 C214 0.930 1_556 S
H206 C216 0.930 . S
H207 C219 0.929 . S
H208 C222 0.930 . S
H209 C224 0.960 . S
H210 C224 0.960 . S
H211 C224 0.960 1_554 S
C212 H204 0.929 . S
C212 C213 1.377 . S
C212 C214 1.384 . S
C213 C212 1.377 . S
C213 C219 1.390 . S
C214 H205 0.930 1_554 S
C214 C212 1.384 . S
C214 C215 1.372 . S
C215 C214 1.372 . S
C215 C216 1.400 . S
C215 C220 1.490 . S
C216 H206 0.930 . S
C216 C215 1.400 . S
C216 C219 1.386 . S
H217 C233 0.930 . S
H218 C234 0.931 1_554 S
C219 H207 0.929 . S
C219 C213 1.390 . S
C219 C216 1.386 . S
C220 C215 1.490 . S
C220 C222 1.395 . S
C220 C223 1.403 1_554 S
H221 C227 0.930 . S
C222 H208 0.930 . S
C222 C220 1.395 . S
C222 C225 1.403 1_554 S
C223 C220 1.403 1_556 S
C223 C224 1.524 . S
C223 C227 1.400 . S
C224 H209 0.960 . S
C224 H210 0.960 . S
C224 H211 0.960 1_556 S
C224 C223 1.524 . S
C225 C222 1.403 1_556 S
C225 C226 1.392 . S
C225 C229 1.495 . S
C226 C225 1.392 . S
C226 C227 1.385 . S
C226 C228 1.478 . S
C227 H221 0.930 . S
C227 C223 1.400 . S
C227 C226 1.385 . S
C228 C226 1.478 . S
C228 C230 1.381 . S
C228 C234 1.383 . S
C229 C225 1.495 . S
C229 H235 0.954 1_556 S
C229 H236 0.961 1_556 S
C229 H237 0.960 . S
C230 C228 1.381 . S
C230 C231 1.394 . S
C230 H238 0.930 . S
C231 C230 1.394 . S
C231 C232 1.383 1_565 S
C231 H239 0.929 . S
C232 C231 1.383 1_545 S
C232 C233 1.377 . S
C233 H217 0.930 . S
C233 C232 1.377 . S
C233 C234 1.379 1_545 S
C234 H218 0.931 1_556 S
C234 C228 1.383 . S
C234 C233 1.379 1_565 S
H235 C229 0.954 1_554 S
H236 C229 0.961 1_554 S
H237 C229 0.960 . S
H238 C230 0.930 . S
H239 C231 0.929 . S
H240 C248 0.929 . S
H241 C250 0.930 1_556 S
H242 C252 0.930 . S
H243 C255 0.929 . S
H244 C258 0.930 . S
H245 C260 0.960 . S
H246 C260 0.960 . S
H247 C260 0.960 . S
C248 H240 0.929 . S
C248 C249 1.377 . S
C248 C250 1.384 . S
C249 C248 1.377 . S
C249 C255 1.390 . S
C250 H241 0.930 1_554 S
C250 C248 1.384 . S
C250 C251 1.372 . S
C251 C250 1.372 . S
C251 C252 1.400 . S
C251 C256 1.490 . S
C252 H242 0.930 . S
C252 C251 1.400 . S
C252 C255 1.386 . S
H253 C269 0.930 . S
H254 C270 0.931 1_554 S
C255 H243 0.929 . S
C255 C249 1.390 . S
C255 C252 1.386 . S
C256 C251 1.490 . S
C256 C258 1.395 1_554 S
C256 C259 1.403 . S
H257 C263 0.930 . S
C258 H244 0.930 . S
C258 C256 1.395 1_556 S
C258 C261 1.403 . S
C259 C256 1.403 . S
C259 C260 1.524 . S
C259 C263 1.400 1_554 S
C260 H245 0.960 . S
C260 H246 0.960 . S
C260 H247 0.960 . S
C260 C259 1.524 . S
C261 C258 1.403 . S
C261 C262 1.392 . S
C261 C265 1.495 . S
C262 C261 1.392 . S
C262 C263 1.385 . S
C262 C264 1.478 . S
C263 H257 0.930 . S
C263 C259 1.400 1_556 S
C263 C262 1.385 . S
C264 C262 1.478 . S
C264 C266 1.381 . S
C264 C270 1.383 . S
C265 C261 1.495 . S
C265 H271 0.959 . S
C265 H272 0.961 . S
C265 H273 0.960 . S
C266 C264 1.381 . S
C266 C267 1.394 . S
C266 H274 0.930 . S
C267 C266 1.394 . S
C267 C268 1.383 1_455 S
C267 H275 0.929 . S
C268 C267 1.383 1_655 S
C268 C269 1.377 . S
C269 H253 0.930 . S
C269 C268 1.377 . S
C269 C270 1.379 1_655 S
C270 H254 0.931 1_556 S
C270 C264 1.383 . S
C270 C269 1.379 1_455 S
H271 C265 0.959 . S
H272 C265 0.961 . S
H273 C265 0.960 . S
H274 C266 0.930 . S
H275 C267 0.929 . S
H276 C284 0.929 . S
H277 C286 0.930 . S
H278 C288 0.930 . S
H279 C291 0.929 . S
H280 C294 0.930 . S
H281 C296 0.960 . S
H282 C296 0.960 . S
H283 C296 0.960 . S
C284 H276 0.929 . S
C284 C285 1.377 . S
C284 C286 1.384 . S
C285 C284 1.377 . S
C285 C291 1.390 . S
C286 H277 0.930 . S
C286 C284 1.384 . S
C286 C287 1.372 . S
C287 C286 1.372 . S
C287 C288 1.400 . S
C287 C292 1.490 . S
C288 H278 0.930 . S
C288 C287 1.400 . S
C288 C291 1.386 . S
H289 C305 0.930 . S
H290 C306 0.931 . S
C291 H279 0.929 . S
C291 C285 1.390 . S
C291 C288 1.386 . S
C292 C287 1.490 . S
C292 C294 1.395 . S
C292 C295 1.403 . S
H293 C299 0.930 . S
C294 H280 0.930 . S
C294 C292 1.395 . S
C294 C297 1.403 . S
C295 C292 1.403 . S
C295 C296 1.524 . S
C295 C299 1.400 . S
C296 H281 0.960 . S
C296 H282 0.960 . S
C296 H283 0.960 . S
C296 C295 1.524 . S
C297 C294 1.403 . S
C297 C298 1.392 . S
C297 C301 1.495 . S
C298 C297 1.392 . S
C298 C299 1.385 . S
C298 C300 1.478 . S
C299 H293 0.930 . S
C299 C295 1.400 . S
C299 C298 1.385 . S
C300 C298 1.478 . S
C300 C302 1.381 . S
C300 C306 1.383 . S
C301 C297 1.495 . S
C301 H307 0.959 . S
C301 H308 0.961 . S
C301 H309 0.960 . S
C302 C300 1.381 . S
C302 C303 1.394 . S
C302 H310 0.930 . S
C303 C302 1.394 . S
C303 C304 1.383 . S
C303 H311 0.929 . S
C304 C303 1.383 . S
C304 C305 1.377 . S
C305 H289 0.930 . S
C305 C304 1.377 . S
C305 C306 1.379 . S
C306 H290 0.931 . S
C306 C300 1.383 . S
C306 C305 1.379 . S
H307 C301 0.959 . S
H308 C301 0.961 . S
H309 C301 0.960 . S
H310 C302 0.930 . S
H311 C303 0.929 . S
H312 C320 0.929 . S
H313 C322 0.930 . S
H314 C324 0.930 . S
H315 C327 0.929 . S
H316 C330 0.930 . S
H317 C332 0.960 . S
H318 C332 0.960 . S
H319 C332 0.960 . S
C320 H312 0.929 . S
C320 C321 1.377 . S
C320 C322 1.384 . S
C321 C320 1.377 . S
C321 C327 1.390 . S
C322 H313 0.930 . S
C322 C320 1.384 . S
C322 C323 1.372 . S
C323 C322 1.372 . S
C323 C324 1.400 . S
C323 C328 1.490 . S
C324 H314 0.930 . S
C324 C323 1.400 . S
C324 C327 1.386 . S
H325 C341 0.930 . S
H326 C342 0.931 . S
C327 H315 0.929 . S
C327 C321 1.390 . S
C327 C324 1.386 . S
C328 C323 1.490 . S
C328 C330 1.395 . S
C328 C331 1.403 . S
H329 C335 0.930 . S
C330 H316 0.930 . S
C330 C328 1.395 . S
C330 C333 1.403 . S
C331 C328 1.403 . S
C331 C332 1.524 . S
C331 C335 1.400 . S
C332 H317 0.960 . S
C332 H318 0.960 . S
C332 H319 0.960 . S
C332 C331 1.524 . S
C333 C330 1.403 . S
C333 C334 1.392 . S
C333 C337 1.495 . S
C334 C333 1.392 . S
C334 C335 1.385 . S
C334 C336 1.478 . S
C335 H329 0.930 . S
C335 C331 1.400 . S
C335 C334 1.385 . S
C336 C334 1.478 . S
C336 C338 1.381 . S
C336 C342 1.383 . S
C337 C333 1.495 . S
C337 H343 0.959 . S
C337 H344 0.961 . S
C337 H345 0.960 . S
C338 C336 1.381 . S
C338 C339 1.394 1_565 S
C338 H346 0.930 . S
C339 C338 1.394 1_545 S
C339 C340 1.383 . S
C339 H347 0.929 . S
C340 C339 1.383 . S
C340 C341 1.377 1_545 S
C341 H325 0.930 . S
C341 C340 1.377 1_565 S
C341 C342 1.379 . S
C342 H326 0.931 . S
C342 C336 1.383 . S
C342 C341 1.379 . S
H343 C337 0.959 . S
H344 C337 0.961 . S
H345 C337 0.960 . S
H346 C338 0.930 . S
H347 C339 0.929 . S
H348 C356 0.929 . S
H349 C358 0.930 . S
H350 C360 0.930 . S
H351 C363 0.929 . S
H352 C366 0.930 . S
H353 C368 0.960 . S
H354 C368 0.960 . S
H355 C368 0.960 . S
C356 H348 0.929 . S
C356 C357 1.377 1_455 S
C356 C358 1.384 . S
C357 C356 1.377 1_655 S
C357 C363 1.390 . S
C358 H349 0.930 . S
C358 C356 1.384 . S
C358 C359 1.372 . S
C359 C358 1.372 . S
C359 C360 1.400 . S
C359 C364 1.490 . S
C360 H350 0.930 . S
C360 C359 1.400 . S
C360 C363 1.386 1_455 S
H361 C377 0.930 . S
H362 C378 0.931 . S
C363 H351 0.929 . S
C363 C357 1.390 . S
C363 C360 1.386 1_655 S
C364 C359 1.490 . S
C364 C366 1.395 . S
C364 C367 1.403 . S
H365 C371 0.930 . S
C366 H352 0.930 . S
C366 C364 1.395 . S
C366 C369 1.403 . S
C367 C364 1.403 . S
C367 C368 1.524 . S
C367 C371 1.400 . S
C368 H353 0.960 . S
C368 H354 0.960 . S
C368 H355 0.960 . S
C368 C367 1.524 . S
C369 C366 1.403 . S
C369 C370 1.392 . S
C369 C373 1.495 . S
C370 C369 1.392 . S
C370 C371 1.385 . S
C370 C372 1.478 . S
C371 H365 0.930 . S
C371 C367 1.400 . S
C371 C370 1.385 . S
C372 C370 1.478 . S
C372 C374 1.381 . S
C372 C378 1.383 . S
C373 C369 1.495 . S
C373 H379 0.959 . S
C373 H380 0.961 . S
C373 H381 0.960 . S
C374 C372 1.381 . S
C374 C375 1.394 . S
C374 H382 0.930 . S
C375 C374 1.394 . S
C375 C376 1.383 . S
C375 H383 0.929 . S
C376 C375 1.383 . S
C376 C377 1.377 . S
C377 H361 0.930 . S
C377 C376 1.377 . S
C377 C378 1.379 . S
C378 H362 0.931 . S
C378 C372 1.383 . S
C378 C377 1.379 . S
H379 C373 0.959 . S
H380 C373 0.961 . S
H381 C373 0.960 . S
H382 C374 0.930 . S
H383 C375 0.929 . S
H384 C392 0.929 . S
H385 C394 0.930 . S
H386 C396 0.930 . S
H387 C399 0.929 . S
H388 C402 0.930 . S
H389 C404 0.960 . S
H390 C404 0.960 . S
H391 C404 0.960 . S
C392 H384 0.929 . S
C392 C393 1.377 . S
C392 C394 1.384 . S
C393 C392 1.377 . S
C393 C399 1.390 . S
C394 H385 0.930 . S
C394 C392 1.384 . S
C394 C395 1.372 . S
C395 C394 1.372 . S
C395 C396 1.400 . S
C395 C400 1.490 . S
C396 H386 0.930 . S
C396 C395 1.400 . S
C396 C399 1.386 . S
H397 C413 0.930 . S
H398 C414 0.931 . S
C399 H387 0.929 . S
C399 C393 1.390 . S
C399 C396 1.386 . S
C400 C395 1.490 . S
C400 C402 1.395 . S
C400 C403 1.403 1_554 S
H401 C407 0.930 . S
C402 H388 0.930 . S
C402 C400 1.395 . S
C402 C405 1.403 . S
C403 C400 1.403 1_556 S
C403 C404 1.524 . S
C403 C407 1.400 . S
C404 H389 0.960 . S
C404 H390 0.960 . S
C404 H391 0.960 . S
C404 C403 1.524 . S
C405 C402 1.403 . S
C405 C406 1.392 1_554 S
C405 C409 1.495 . S
C406 C405 1.392 1_556 S
C406 C407 1.385 . S
C406 C408 1.478 . S
C407 H401 0.930 . S
C407 C403 1.400 . S
C407 C406 1.385 . S
C408 C406 1.478 . S
C408 C410 1.381 . S
C408 C414 1.383 . S
C409 C405 1.495 . S
C409 H415 0.959 . S
C409 H416 0.961 . S
C409 H417 0.960 . S
C410 C408 1.381 . S
C410 C411 1.394 . S
C410 H418 0.930 . S
C411 C410 1.394 . S
C411 C412 1.383 . S
C411 H419 0.929 . S
C412 C411 1.383 . S
C412 C413 1.377 . S
C413 H397 0.930 . S
C413 C412 1.377 . S
C413 C414 1.379 . S
C414 H398 0.931 . S
C414 C408 1.383 . S
C414 C413 1.379 . S
H415 C409 0.959 . S
H416 C409 0.961 . S
H417 C409 0.960 . S
H418 C410 0.930 . S
H419 C411 0.929 . S
H420 C428 0.929 . S
H421 C430 0.930 1_554 S
H422 C432 0.930 . S
H423 C435 0.929 . S
H424 C438 0.930 . S
H425 C440 0.960 . S
H426 C440 0.960 . S
H427 C440 0.960 1_556 S
C428 H420 0.929 . S
C428 C429 1.377 . S
C428 C430 1.384 . S
C429 C428 1.377 . S
C429 C435 1.390 . S
C430 H421 0.930 1_556 S
C430 C428 1.384 . S
C430 C431 1.372 . S
C431 C430 1.372 . S
C431 C432 1.400 . S
C431 C436 1.490 . S
C432 H422 0.930 . S
C432 C431 1.400 . S
C432 C435 1.386 . S
H433 C449 0.942 . S
H434 C450 0.931 1_556 S
C435 H423 0.929 . S
C435 C429 1.390 . S
C435 C432 1.386 . S
C436 C431 1.490 . S
C436 C438 1.395 . S
C436 C439 1.403 1_556 S
H437 C443 0.930 . S
C438 H424 0.930 . S
C438 C436 1.395 . S
C438 C441 1.403 1_556 S
C439 C436 1.403 1_554 S
C439 C440 1.524 . S
C439 C443 1.400 . S
C440 H425 0.960 . S
C440 H426 0.960 . S
C440 H427 0.960 1_554 S
C440 C439 1.524 . S
C441 C438 1.403 1_554 S
C441 C442 1.392 . S
C441 C445 1.495 1_554 S
C442 C441 1.392 . S
C442 C443 1.385 . S
C442 C444 1.478 . S
C443 H437 0.930 . S
C443 C439 1.400 . S
C443 C442 1.385 . S
C444 C442 1.478 . S
C444 C446 1.381 . S
C444 C450 1.383 . S
C445 C441 1.495 1_556 S
C445 H451 0.959 . S
C445 H452 0.961 . S
C445 H453 0.960 1_556 S
C446 C444 1.381 . S
C446 C447 1.394 . S
C446 H454 0.930 . S
C447 C446 1.394 . S
C447 C448 1.383 1_545 S
C447 H455 0.929 1_545 S
C448 C447 1.383 1_565 S
C448 C449 1.379 . S
C449 H433 0.942 . S
C449 C448 1.379 . S
C449 C450 1.365 1_565 S
C450 H434 0.931 1_554 S
C450 C444 1.383 . S
C450 C449 1.365 1_545 S
H451 C445 0.959 . S
H452 C445 0.961 . S
H453 C445 0.960 1_554 S
H454 C446 0.930 . S
H455 C447 0.929 1_565 S
H456 C464 0.929 . S
H457 C466 0.930 . S
H458 C468 0.930 1_556 S
H459 C471 0.929 . S
H460 C474 0.930 . S
H461 C476 0.960 . S
H462 C476 0.960 1_554 S
H463 C476 0.960 . S
C464 H456 0.929 . S
C464 C465 1.377 1_655 S
C464 C466 1.384 . S
C465 C464 1.377 1_455 S
C465 C471 1.390 . S
C466 H457 0.930 . S
C466 C464 1.384 . S
C466 C467 1.372 . S
C467 C466 1.372 . S
C467 C468 1.400 . S
C467 C472 1.490 . S
C468 H458 0.930 1_554 S
C468 C467 1.400 . S
C468 C471 1.386 1_655 S
H469 C485 0.930 . S
H470 C486 0.931 . S
C471 H459 0.929 . S
C471 C465 1.390 . S
C471 C468 1.386 1_455 S
C472 C467 1.490 . S
C472 C474 1.395 . S
C472 C475 1.403 1_554 S
H473 C479 0.930 . S
C474 H460 0.930 . S
C474 C472 1.395 . S
C474 C477 1.403 . S
C475 C472 1.403 1_556 S
C475 C476 1.524 . S
C475 C479 1.400 . S
C476 H461 0.960 . S
C476 H462 0.960 1_556 S
C476 H463 0.960 . S
C476 C475 1.524 . S
C477 C474 1.403 . S
C477 C478 1.392 1_554 S
C477 C481 1.495 . S
C478 C477 1.392 1_556 S
C478 C479 1.385 . S
C478 C480 1.478 . S
C479 H473 0.930 . S
C479 C475 1.400 . S
C479 C478 1.385 . S
C480 C478 1.478 . S
C480 C482 1.398 . S
C480 C486 1.383 . S
C481 C477 1.495 . S
C481 H487 0.959 . S
C481 H488 0.961 . S
C481 H489 0.960 . S
C482 C480 1.398 . S
C482 C483 1.406 . S
C482 H490 0.901 1_556 S
C483 C482 1.406 . S
C483 C484 1.383 . S
C483 H491 0.955 . S
C484 C483 1.383 . S
C484 C485 1.377 . S
C485 H469 0.930 . S
C485 C484 1.377 . S
C485 C486 1.379 . S
C486 H470 0.931 . S
C486 C480 1.383 . S
C486 C485 1.379 . S
H487 C481 0.959 . S
H488 C481 0.961 . S
H489 C481 0.960 . S
H490 C482 0.901 1_554 S
H491 C483 0.955 . S
H492 C500 0.929 . S
H493 C502 0.930 . S
H494 C504 0.930 . S
H495 C507 0.929 . S
H496 C510 0.930 . S
H497 C512 0.960 . S
H498 C512 0.960 . S
H499 C512 0.960 . S
C500 H492 0.929 . S
C500 C501 1.377 . S
C500 C502 1.384 . S
C501 C500 1.377 . S
C501 C507 1.390 . S
C502 H493 0.930 . S
C502 C500 1.384 . S
C502 C503 1.372 . S
C503 C502 1.372 . S
C503 C504 1.400 . S
C503 C508 1.490 . S
C504 H494 0.930 . S
C504 C503 1.400 . S
C504 C507 1.386 . S
H505 C521 0.930 . S
H506 C522 0.931 . S
C507 H495 0.929 . S
C507 C501 1.390 . S
C507 C504 1.386 . S
C508 C503 1.490 . S
C508 C510 1.395 . S
C508 C511 1.403 . S
H509 C515 0.930 . S
C510 H496 0.930 . S
C510 C508 1.395 . S
C510 C513 1.403 . S
C511 C508 1.403 . S
C511 C512 1.524 . S
C511 C515 1.400 . S
C512 H497 0.960 . S
C512 H498 0.960 . S
C512 H499 0.960 . S
C512 C511 1.524 . S
C513 C510 1.403 . S
C513 C514 1.392 . S
C513 C517 1.495 . S
C514 C513 1.392 . S
C514 C515 1.385 . S
C514 C516 1.478 . S
C515 H509 0.930 . S
C515 C511 1.400 . S
C515 C514 1.385 . S
C516 C514 1.478 . S
C516 C518 1.381 . S
C516 C522 1.383 . S
C517 C513 1.495 . S
C517 H523 0.959 . S
C517 H524 0.961 . S
C517 H525 0.960 . S
C518 C516 1.381 . S
C518 C519 1.394 . S
C518 H526 0.930 . S
C519 C518 1.394 . S
C519 C520 1.383 . S
C519 H527 0.929 . S
C520 C519 1.383 . S
C520 C521 1.377 . S
C521 H505 0.930 . S
C521 C520 1.377 . S
C521 C522 1.379 . S
C522 H506 0.931 . S
C522 C516 1.383 . S
C522 C521 1.379 . S
H523 C517 0.959 . S
H524 C517 0.961 . S
H525 C517 0.960 . S
H526 C518 0.930 . S
H527 C519 0.929 . S
H528 C536 0.929 . S
H529 C538 0.930 . S
H530 C540 0.930 . S
H531 C543 0.929 . S
H532 C546 0.930 . S
H533 C548 0.960 . S
H534 C548 0.960 . S
H535 C548 0.960 . S
C536 H528 0.929 . S
C536 C537 1.377 . S
C536 C538 1.384 . S
C537 C536 1.377 . S
C537 C543 1.390 . S
C538 H529 0.930 . S
C538 C536 1.384 . S
C538 C539 1.372 . S
C539 C538 1.372 . S
C539 C540 1.400 . S
C539 C544 1.490 . S
C540 H530 0.930 . S
C540 C539 1.400 . S
C540 C543 1.386 . S
H541 C557 0.930 . S
H542 C558 0.931 . S
C543 H531 0.929 . S
C543 C537 1.390 . S
C543 C540 1.386 . S
C544 C539 1.490 . S
C544 C546 1.395 . S
C544 C547 1.403 . S
H545 C551 0.930 . S
C546 H532 0.930 . S
C546 C544 1.395 . S
C546 C549 1.403 . S
C547 C544 1.403 . S
C547 C548 1.524 . S
C547 C551 1.400 . S
C548 H533 0.960 . S
C548 H534 0.960 . S
C548 H535 0.960 . S
C548 C547 1.524 . S
C549 C546 1.403 . S
C549 C550 1.392 . S
C549 C553 1.495 . S
C550 C549 1.392 . S
C550 C551 1.385 . S
C550 C552 1.478 . S
C551 H545 0.930 . S
C551 C547 1.400 . S
C551 C550 1.385 . S
C552 C550 1.478 . S
C552 C554 1.381 . S
C552 C558 1.383 . S
C553 C549 1.495 . S
C553 H559 0.959 . S
C553 H560 0.961 . S
C553 H561 0.960 . S
C554 C552 1.381 . S
C554 C555 1.394 . S
C554 H562 0.930 . S
C555 C554 1.394 . S
C555 C556 1.383 1_545 S
C555 H563 0.929 . S
C556 C555 1.383 1_565 S
C556 C557 1.377 . S
C557 H541 0.930 . S
C557 C556 1.377 . S
C557 C558 1.379 1_565 S
C558 H542 0.931 . S
C558 C552 1.383 . S
C558 C557 1.379 1_545 S
H559 C553 0.959 . S
H560 C553 0.961 . S
H561 C553 0.960 . S
H562 C554 0.930 . S
H563 C555 0.929 . S
H564 C572 0.929 . S
H565 C574 0.930 . S
H566 C576 0.930 . S
H567 C579 0.929 . S
H568 C582 0.930 . S
H569 C584 0.960 . S
H570 C584 0.960 . S
H571 C584 0.960 . S
C572 H564 0.929 . S
C572 C573 1.377 . S
C572 C574 1.384 1_455 S
C573 C572 1.377 . S
C573 C579 1.390 1_455 S
C574 H565 0.930 . S
C574 C572 1.384 1_655 S
C574 C575 1.372 . S
C575 C574 1.372 . S
C575 C576 1.400 . S
C575 C580 1.490 . S
C576 H566 0.930 . S
C576 C575 1.400 . S
C576 C579 1.386 . S
H577 C593 0.930 . S
H578 C594 0.931 . S
C579 H567 0.929 . S
C579 C573 1.390 1_655 S
C579 C576 1.386 . S
C580 C575 1.490 . S
C580 C582 1.395 . S
C580 C583 1.403 . S
H581 C587 0.930 . S
C582 H568 0.930 . S
C582 C580 1.395 . S
C582 C585 1.403 . S
C583 C580 1.403 . S
C583 C584 1.524 . S
C583 C587 1.400 . S
C584 H569 0.960 . S
C584 H570 0.960 . S
C584 H571 0.960 . S
C584 C583 1.524 . S
C585 C582 1.403 . S
C585 C586 1.392 . S
C585 C589 1.495 . S
C586 C585 1.392 . S
C586 C587 1.385 . S
C586 C588 1.478 . S
C587 H581 0.930 . S
C587 C583 1.400 . S
C587 C586 1.385 . S
C588 C586 1.478 . S
C588 C590 1.381 . S
C588 C594 1.383 . S
C589 C585 1.495 . S
C589 H595 0.959 . S
C589 H596 0.961 . S
C589 H597 0.960 . S
C590 C588 1.381 . S
C590 C591 1.394 . S
C590 H598 0.930 . S
C591 C590 1.394 . S
C591 C592 1.383 . S
C591 H599 0.929 . S
C592 C591 1.383 . S
C592 C593 1.377 . S
C593 H577 0.930 . S
C593 C592 1.377 . S
C593 C594 1.379 . S
C594 H578 0.931 . S
C594 C588 1.383 . S
C594 C593 1.379 . S
H595 C589 0.959 . S
H596 C589 0.961 . S
H597 C589 0.960 . S
H598 C590 0.930 . S
H599 C591 0.929 . S
H600 C608 0.929 . S
H601 C610 0.930 . S
H602 C612 0.930 . S
H603 C615 0.929 . S
H604 C618 0.930 . S
H605 C620 0.960 . S
H606 C620 0.960 . S
H607 C620 0.960 . S
C608 H600 0.929 . S
C608 C609 1.377 . S
C608 C610 1.384 . S
C609 C608 1.377 . S
C609 C615 1.390 . S
C610 H601 0.930 . S
C610 C608 1.384 . S
C610 C611 1.372 . S
C611 C610 1.372 . S
C611 C612 1.400 . S
C611 C616 1.490 . S
C612 H602 0.930 . S
C612 C611 1.400 . S
C612 C615 1.386 . S
H613 C629 0.930 . S
H614 C630 0.931 . S
C615 H603 0.929 . S
C615 C609 1.390 . S
C615 C612 1.386 . S
C616 C611 1.490 . S
C616 C618 1.395 . S
C616 C619 1.403 . S
H617 C623 0.930 . S
C618 H604 0.930 . S
C618 C616 1.395 . S
C618 C621 1.403 . S
C619 C616 1.403 . S
C619 C620 1.524 . S
C619 C623 1.400 . S
C620 H605 0.960 . S
C620 H606 0.960 . S
C620 H607 0.960 . S
C620 C619 1.524 . S
C621 C618 1.403 . S
C621 C622 1.392 . S
C621 C625 1.495 . S
C622 C621 1.392 . S
C622 C623 1.385 . S
C622 C624 1.478 . S
C623 H617 0.930 . S
C623 C619 1.400 . S
C623 C622 1.385 . S
C624 C622 1.478 . S
C624 C626 1.381 . S
C624 C630 1.383 . S
C625 C621 1.495 . S
C625 H631 0.959 . S
C625 H632 0.961 . S
C625 H633 0.960 . S
C626 C624 1.381 . S
C626 C627 1.394 . S
C626 H634 0.930 . S
C627 C626 1.394 . S
C627 C628 1.383 . S
C627 H635 0.929 . S
C628 C627 1.383 . S
C628 C629 1.377 . S
C629 H613 0.930 . S
C629 C628 1.377 . S
C629 C630 1.379 . S
C630 H614 0.931 . S
C630 C624 1.383 . S
C630 C629 1.379 . S
H631 C625 0.959 . S
H632 C625 0.961 . S
H633 C625 0.960 . S
H634 C626 0.930 . S
H635 C627 0.929 . S
H636 C644 0.929 . S
H637 C646 0.930 . S
H638 C648 0.930 . S
H639 C651 0.929 . S
H640 C654 0.930 . S
H641 C656 0.960 . S
H642 C656 0.960 . S
H643 C656 0.960 . S
C644 H636 0.929 . S
C644 C645 1.377 . S
C644 C646 1.384 . S
C645 C644 1.377 . S
C645 C651 1.390 . S
C646 H637 0.930 . S
C646 C644 1.384 . S
C646 C647 1.372 . S
C647 C646 1.372 . S
C647 C648 1.400 . S
C647 C652 1.490 . S
C648 H638 0.930 . S
C648 C647 1.400 . S
C648 C651 1.386 . S
H649 C665 0.930 . S
H650 C666 0.931 . S
C651 H639 0.929 . S
C651 C645 1.390 . S
C651 C648 1.386 . S
C652 C647 1.490 . S
C652 C654 1.395 . S
C652 C655 1.403 . S
H653 C659 0.930 . S
C654 H640 0.930 . S
C654 C652 1.395 . S
C654 C657 1.403 . S
C655 C652 1.403 . S
C655 C656 1.524 . S
C655 C659 1.400 . S
C656 H641 0.960 . S
C656 H642 0.960 . S
C656 H643 0.960 . S
C656 C655 1.524 . S
C657 C654 1.403 . S
C657 C658 1.392 . S
C657 C661 1.495 . S
C658 C657 1.392 . S
C658 C659 1.385 . S
C658 C660 1.478 . S
C659 H653 0.930 . S
C659 C655 1.400 . S
C659 C658 1.385 . S
C660 C658 1.478 . S
C660 C662 1.381 . S
C660 C666 1.383 . S
C661 C657 1.495 . S
C661 H667 0.959 . S
C661 H668 0.961 . S
C661 H669 0.960 . S
C662 C660 1.381 . S
C662 C663 1.394 . S
C662 H670 0.930 . S
C663 C662 1.394 . S
C663 C664 1.383 . S
C663 H671 0.929 . S
C664 C663 1.383 . S
C664 C665 1.377 . S
C665 H649 0.930 . S
C665 C664 1.377 . S
C665 C666 1.379 . S
C666 H650 0.931 . S
C666 C660 1.383 . S
C666 C665 1.379 . S
H667 C661 0.959 . S
H668 C661 0.961 . S
H669 C661 0.960 . S
H670 C662 0.930 . S
H671 C663 0.929 . S
H672 C680 0.929 . S
H673 C682 0.930 . S
H674 C684 0.930 . S
H675 C687 0.929 . S
H676 C690 0.930 . S
H677 C692 0.960 . S
H678 C692 0.960 . S
H679 C692 0.960 . S
C680 H672 0.929 . S
C680 C681 1.377 . S
C680 C682 1.384 . S
C681 C680 1.377 . S
C681 C687 1.390 . S
C682 H673 0.930 . S
C682 C680 1.384 . S
C682 C683 1.372 . S
C683 C682 1.372 . S
C683 C684 1.400 . S
C683 C688 1.490 . S
C684 H674 0.930 . S
C684 C683 1.400 . S
C684 C687 1.386 . S
H685 C701 0.930 . S
H686 C702 0.931 . S
C687 H675 0.929 . S
C687 C681 1.390 . S
C687 C684 1.386 . S
C688 C683 1.490 . S
C688 C690 1.395 . S
C688 C691 1.403 . S
H689 C695 0.930 . S
C690 H676 0.930 . S
C690 C688 1.395 . S
C690 C693 1.403 . S
C691 C688 1.403 . S
C691 C692 1.524 . S
C691 C695 1.400 . S
C692 H677 0.960 . S
C692 H678 0.960 . S
C692 H679 0.960 . S
C692 C691 1.524 . S
C693 C690 1.403 . S
C693 C694 1.392 . S
C693 C697 1.495 . S
C694 C693 1.392 . S
C694 C695 1.385 . S
C694 C696 1.478 . S
C695 H689 0.930 . S
C695 C691 1.400 . S
C695 C694 1.385 . S
C696 C694 1.478 . S
C696 C698 1.381 . S
C696 C702 1.383 . S
C697 C693 1.495 . S
C697 H703 0.959 . S
C697 H704 0.961 . S
C697 H705 0.960 . S
C698 C696 1.381 . S
C698 C699 1.394 . S
C698 H706 0.930 . S
C699 C698 1.394 . S
C699 C700 1.383 . S
C699 H707 0.929 . S
C700 C699 1.383 . S
C700 C701 1.377 . S
C701 H685 0.930 . S
C701 C700 1.377 . S
C701 C702 1.379 . S
C702 H686 0.931 . S
C702 C696 1.383 . S
C702 C701 1.379 . S
H703 C697 0.959 . S
H704 C697 0.961 . S
H705 C697 0.960 . S
H706 C698 0.930 . S
H707 C699 0.929 . S
H708 C716 0.929 . S
H709 C718 0.930 . S
H710 C720 0.930 . S
H711 C723 0.929 . S
H712 C726 0.930 . S
H713 C728 0.960 . S
H714 C728 0.960 . S
H715 C728 0.960 . S
C716 H708 0.929 . S
C716 C717 1.377 . S
C716 C718 1.384 . S
C717 C716 1.377 . S
C717 C723 1.390 . S
C718 H709 0.930 . S
C718 C716 1.384 . S
C718 C719 1.372 . S
C719 C718 1.372 . S
C719 C720 1.400 . S
C719 C724 1.490 . S
C720 H710 0.930 . S
C720 C719 1.400 . S
C720 C723 1.386 . S
H721 C737 0.930 . S
H722 C738 0.931 . S
C723 H711 0.929 . S
C723 C717 1.390 . S
C723 C720 1.386 . S
C724 C719 1.490 . S
C724 C726 1.395 . S
C724 C727 1.403 . S
H725 C731 0.930 . S
C726 H712 0.930 . S
C726 C724 1.395 . S
C726 C729 1.403 . S
C727 C724 1.403 . S
C727 C728 1.524 . S
C727 C731 1.400 . S
C728 H713 0.960 . S
C728 H714 0.960 . S
C728 H715 0.960 . S
C728 C727 1.524 . S
C729 C726 1.403 . S
C729 C730 1.392 . S
C729 C733 1.495 . S
C730 C729 1.392 . S
C730 C731 1.385 . S
C730 C732 1.478 . S
C731 H725 0.930 . S
C731 C727 1.400 . S
C731 C730 1.385 . S
C732 C730 1.478 . S
C732 C734 1.381 . S
C732 C738 1.383 . S
C733 C729 1.495 . S
C733 H739 0.959 . S
C733 H740 0.961 . S
C733 H741 0.960 . S
C734 C732 1.381 . S
C734 C735 1.394 . S
C734 H742 0.930 . S
C735 C734 1.394 . S
C735 C736 1.383 . S
C735 H743 0.929 . S
C736 C735 1.383 . S
C736 C737 1.377 . S
C737 H721 0.930 . S
C737 C736 1.377 . S
C737 C738 1.379 . S
C738 H722 0.931 . S
C738 C732 1.383 . S
C738 C737 1.379 . S
H739 C733 0.959 . S
H740 C733 0.961 . S
H741 C733 0.960 . S
H742 C734 0.930 . S
H743 C735 0.929 . S
H744 C752 0.929 . S
H745 C754 0.930 . S
H746 C756 0.930 . S
H747 C759 0.929 . S
H748 C762 0.930 . S
H749 C764 0.960 . S
H750 C764 0.960 . S
H751 C764 0.960 . S
C752 H744 0.929 . S
C752 C753 1.377 . S
C752 C754 1.384 . S
C753 C752 1.377 . S
C753 C759 1.390 . S
C754 H745 0.930 . S
C754 C752 1.384 . S
C754 C755 1.372 . S
C755 C754 1.372 . S
C755 C756 1.400 . S
C755 C760 1.490 . S
C756 H746 0.930 . S
C756 C755 1.400 . S
C756 C759 1.386 . S
H757 C773 0.930 . S
H758 C774 0.931 . S
C759 H747 0.929 . S
C759 C753 1.390 . S
C759 C756 1.386 . S
C760 C755 1.490 . S
C760 C762 1.395 . S
C760 C763 1.403 . S
H761 C767 0.930 . S
C762 H748 0.930 . S
C762 C760 1.395 . S
C762 C765 1.403 . S
C763 C760 1.403 . S
C763 C764 1.524 . S
C763 C767 1.400 . S
C764 H749 0.960 . S
C764 H750 0.960 . S
C764 H751 0.960 . S
C764 C763 1.524 . S
C765 C762 1.403 . S
C765 C766 1.392 . S
C765 C769 1.495 . S
C766 C765 1.392 . S
C766 C767 1.385 . S
C766 C768 1.478 . S
C767 H761 0.930 . S
C767 C763 1.400 . S
C767 C766 1.385 . S
C768 C766 1.478 . S
C768 C770 1.381 . S
C768 C774 1.383 . S
C769 C765 1.495 . S
C769 H775 0.959 . S
C769 H776 0.961 . S
C769 H777 0.960 . S
C770 C768 1.381 . S
C770 C771 1.394 . S
C770 H778 0.930 . S
C771 C770 1.394 . S
C771 C772 1.383 . S
C771 H779 0.929 . S
C772 C771 1.383 . S
C772 C773 1.377 . S
C773 H757 0.930 . S
C773 C772 1.377 . S
C773 C774 1.379 . S
C774 H758 0.931 . S
C774 C768 1.383 . S
C774 C773 1.379 . S
H775 C769 0.959 . S
H776 C769 0.961 . S
H777 C769 0.960 . S
H778 C770 0.930 . S
H779 C771 0.929 . S
H780 C788 0.929 . S
H781 C790 0.930 . S
H782 C792 0.930 . S
H783 C795 0.929 . S
H784 C798 0.930 . S
H785 C800 0.960 . S
H786 C800 0.960 . S
H787 C800 0.960 . S
C788 H780 0.929 . S
C788 C789 1.377 . S
C788 C790 1.384 . S
C789 C788 1.377 . S
C789 C795 1.390 . S
C790 H781 0.930 . S
C790 C788 1.384 . S
C790 C791 1.372 . S
C791 C790 1.372 . S
C791 C792 1.400 . S
C791 C796 1.490 . S
C792 H782 0.930 . S
C792 C791 1.400 . S
C792 C795 1.386 . S
H793 C809 0.930 . S
H794 C810 0.931 . S
C795 H783 0.929 . S
C795 C789 1.390 . S
C795 C792 1.386 . S
C796 C791 1.490 . S
C796 C798 1.395 . S
C796 C799 1.403 . S
H797 C803 0.930 . S
C798 H784 0.930 . S
C798 C796 1.395 . S
C798 C801 1.403 . S
C799 C796 1.403 . S
C799 C800 1.524 . S
C799 C803 1.400 . S
C800 H785 0.960 . S
C800 H786 0.960 . S
C800 H787 0.960 . S
C800 C799 1.524 . S
C801 C798 1.403 . S
C801 C802 1.392 . S
C801 C805 1.495 . S
C802 C801 1.392 . S
C802 C803 1.385 . S
C802 C804 1.478 . S
C803 H797 0.930 . S
C803 C799 1.400 . S
C803 C802 1.385 . S
C804 C802 1.478 . S
C804 C806 1.381 . S
C804 C810 1.383 . S
C805 C801 1.495 . S
C805 H811 0.959 . S
C805 H812 0.961 . S
C805 H813 0.960 . S
C806 C804 1.381 . S
C806 C807 1.394 . S
C806 H814 0.930 . S
C807 C806 1.394 . S
C807 C808 1.383 . S
C807 H815 0.929 . S
C808 C807 1.383 . S
C808 C809 1.377 . S
C809 H793 0.930 . S
C809 C808 1.377 . S
C809 C810 1.379 . S
C810 H794 0.931 . S
C810 C804 1.383 . S
C810 C809 1.379 . S
H811 C805 0.959 . S
H812 C805 0.961 . S
H813 C805 0.960 . S
H814 C806 0.930 . S
H815 C807 0.929 . S
H816 C824 0.929 . S
H817 C826 0.930 . S
H818 C828 0.930 1_556 S
H819 C831 0.929 . S
H820 C834 0.930 . S
H821 C836 0.960 . S
H822 C836 0.960 . S
H823 C836 0.960 . S
C824 H816 0.929 . S
C824 C825 1.377 . S
C824 C826 1.384 . S
C825 C824 1.377 . S
C825 C831 1.390 . S
C826 H817 0.930 . S
C826 C824 1.384 . S
C826 C827 1.372 . S
C827 C826 1.372 . S
C827 C828 1.400 . S
C827 C832 1.490 . S
C828 H818 0.930 1_554 S
C828 C827 1.400 . S
C828 C831 1.386 . S
H829 C845 0.930 . S
H830 C846 0.931 . S
C831 H819 0.929 . S
C831 C825 1.390 . S
C831 C828 1.386 . S
C832 C827 1.490 . S
C832 C834 1.395 . S
C832 C835 1.403 1_454 S
H833 C839 0.930 . S
C834 H820 0.930 . S
C834 C832 1.395 . S
C834 C837 1.403 . S
C835 C832 1.403 1_656 S
C835 C836 1.524 . S
C835 C839 1.400 . S
C836 H821 0.960 . S
C836 H822 0.960 . S
C836 H823 0.960 . S
C836 C835 1.524 . S
C837 C834 1.403 . S
C837 C838 1.392 1_454 S
C837 C841 1.495 . S
C838 C837 1.392 1_656 S
C838 C839 1.385 . S
C838 C840 1.478 . S
C839 H833 0.930 . S
C839 C835 1.400 . S
C839 C838 1.385 . S
C840 C838 1.478 . S
C840 C842 1.381 . S
C840 C846 1.383 . S
C841 C837 1.495 . S
C841 H847 0.959 . S
C841 H848 0.961 . S
C841 H849 0.960 . S
C842 C840 1.381 . S
C842 C843 1.394 . S
C842 H850 0.930 1_556 S
C843 C842 1.394 . S
C843 C844 1.383 . S
C843 H851 0.929 . S
C844 C843 1.383 . S
C844 C845 1.377 . S
C845 H829 0.930 . S
C845 C844 1.377 . S
C845 C846 1.379 . S
C846 H830 0.931 . S
C846 C840 1.383 . S
C846 C845 1.379 . S
H847 C841 0.959 . S
H848 C841 0.961 . S
H849 C841 0.960 . S
H850 C842 0.930 1_554 S
H851 C843 0.929 . S
H852 C860 0.929 . S
H853 C862 0.930 . S
H854 C864 0.930 . S
H855 C867 0.929 . S
H856 C870 0.930 . S
H857 C872 0.960 . S
H858 C872 0.960 . S
H859 C872 0.960 . S
C860 H852 0.929 . S
C860 C861 1.377 . S
C860 C862 1.384 . S
C861 C860 1.377 . S
C861 C867 1.390 . S
C862 H853 0.930 . S
C862 C860 1.384 . S
C862 C863 1.372 . S
C863 C862 1.372 . S
C863 C864 1.400 . S
C863 C868 1.490 . S
C864 H854 0.930 . S
C864 C863 1.400 . S
C864 C867 1.386 . S
H865 C881 0.930 . S
H866 C882 0.931 . S
C867 H855 0.929 . S
C867 C861 1.390 . S
C867 C864 1.386 . S
C868 C863 1.490 . S
C868 C870 1.395 . S
C868 C871 1.403 1_554 S
H869 C875 0.930 . S
C870 H856 0.930 . S
C870 C868 1.395 . S
C870 C873 1.403 . S
C871 C868 1.403 1_556 S
C871 C872 1.524 . S
C871 C875 1.400 . S
C872 H857 0.960 . S
C872 H858 0.960 . S
C872 H859 0.960 . S
C872 C871 1.524 . S
C873 C870 1.403 . S
C873 C874 1.392 1_554 S
C873 C877 1.495 . S
C874 C873 1.392 1_556 S
C874 C875 1.385 . S
C874 C876 1.478 . S
C875 H869 0.930 . S
C875 C871 1.400 . S
C875 C874 1.385 . S
C876 C874 1.478 . S
C876 C878 1.381 . S
C876 C882 1.383 . S
C877 C873 1.495 . S
C877 H883 0.959 . S
C877 H884 0.961 . S
C877 H885 0.960 . S
C878 C876 1.381 . S
C878 C879 1.394 . S
C878 H886 0.930 . S
C879 C878 1.394 . S
C879 C880 1.383 . S
C879 H887 0.929 . S
C880 C879 1.383 . S
C880 C881 1.377 . S
C881 H865 0.930 . S
C881 C880 1.377 . S
C881 C882 1.379 . S
C882 H866 0.931 . S
C882 C876 1.383 . S
C882 C881 1.379 . S
H883 C877 0.959 . S
H884 C877 0.961 . S
H885 C877 0.960 . S
H886 C878 0.930 . S
H887 C879 0.929 . S
H888 C896 0.929 . S
H889 C898 0.930 . S
H890 C900 0.930 1_545 S
H891 C903 0.929 . S
H892 C906 0.930 . S
H893 C908 0.960 . S
H894 C908 0.960 . S
H895 C908 0.960 . S
C896 H888 0.929 . S
C896 C897 1.377 . S
C896 C898 1.384 . S
C897 C896 1.377 . S
C897 C903 1.390 . S
C898 H889 0.930 . S
C898 C896 1.384 . S
C898 C899 1.372 . S
C899 C898 1.372 . S
C899 C900 1.400 . S
C899 C904 1.490 . S
C900 H890 0.930 1_565 S
C900 C899 1.400 . S
C900 C903 1.386 . S
H901 C917 0.930 . S
H902 C918 0.931 . S
C903 H891 0.929 . S
C903 C897 1.390 . S
C903 C900 1.386 . S
C904 C899 1.490 . S
C904 C906 1.395 1_554 S
C904 C907 1.403 1_565 S
H905 C911 0.930 . S
C906 H892 0.930 . S
C906 C904 1.395 1_556 S
C906 C909 1.403 . S
C907 C904 1.403 1_545 S
C907 C908 1.524 . S
C907 C911 1.400 . S
C908 H893 0.960 . S
C908 H894 0.960 . S
C908 H895 0.960 . S
C908 C907 1.524 . S
C909 C906 1.403 . S
C909 C910 1.392 1_565 S
C909 C913 1.495 . S
C910 C909 1.392 1_545 S
C910 C911 1.385 1_556 S
C910 C912 1.478 . S
C911 H905 0.930 . S
C911 C907 1.400 . S
C911 C910 1.385 1_554 S
C912 C910 1.478 . S
C912 C914 1.381 . S
C912 C918 1.383 . S
C913 C909 1.495 . S
C913 H919 0.959 . S
C913 H920 0.961 . S
C913 H921 0.960 . S
C914 C912 1.381 . S
C914 C915 1.394 . S
C914 H922 0.930 1_545 S
C915 C914 1.394 . S
C915 C916 1.383 . S
C915 H923 0.929 . S
C916 C915 1.383 . S
C916 C917 1.377 . S
C917 H901 0.930 . S
C917 C916 1.377 . S
C917 C918 1.379 . S
C918 H902 0.931 . S
C918 C912 1.383 . S
C918 C917 1.379 . S
H919 C913 0.959 . S
H920 C913 0.961 . S
H921 C913 0.960 . S
H922 C914 0.930 1_565 S
H923 C915 0.929 . S
H924 C932 0.929 . S
H925 C934 0.930 . S
H926 C936 0.930 1_545 S
H927 C939 0.929 . S
H928 C942 0.930 . S
H929 C944 0.960 . S
H930 C944 0.960 . S
H931 C944 0.960 . S
C932 H924 0.929 . S
C932 C933 1.377 . S
C932 C934 1.384 . S
C933 C932 1.377 . S
C933 C939 1.390 . S
C934 H925 0.930 . S
C934 C932 1.384 . S
C934 C935 1.372 . S
C935 C934 1.372 . S
C935 C936 1.400 . S
C935 C940 1.490 . S
C936 H926 0.930 1_565 S
C936 C935 1.400 . S
C936 C939 1.386 . S
H937 C953 0.930 . S
H938 C954 0.931 . S
C939 H927 0.929 . S
C939 C933 1.390 . S
C939 C936 1.386 . S
C940 C935 1.490 . S
C940 C942 1.395 . S
C940 C943 1.403 . S
H941 C947 0.930 . S
C942 H928 0.930 . S
C942 C940 1.395 . S
C942 C945 1.403 1_565 S
C943 C940 1.403 . S
C943 C944 1.524 . S
C943 C947 1.400 1_565 S
C944 H929 0.960 . S
C944 H930 0.960 . S
C944 H931 0.960 . S
C944 C943 1.524 . S
C945 C942 1.403 1_545 S
C945 C946 1.392 . S
C945 C949 1.495 . S
C946 C945 1.392 . S
C946 C947 1.385 . S
C946 C948 1.478 . S
C947 H941 0.930 . S
C947 C943 1.400 1_545 S
C947 C946 1.385 . S
C948 C946 1.478 . S
C948 C950 1.381 . S
C948 C954 1.383 . S
C949 C945 1.495 . S
C949 H955 0.959 . S
C949 H956 0.961 . S
C949 H957 0.960 1_545 S
C950 C948 1.381 . S
C950 C951 1.394 . S
C950 H958 0.930 1_545 S
C951 C950 1.394 . S
C951 C952 1.383 . S
C951 H959 0.929 . S
C952 C951 1.383 . S
C952 C953 1.377 . S
C953 H937 0.930 . S
C953 C952 1.377 . S
C953 C954 1.379 . S
C954 H938 0.931 . S
C954 C948 1.383 . S
C954 C953 1.379 . S
H955 C949 0.959 . S
H956 C949 0.961 . S
H957 C949 0.960 1_565 S
H958 C950 0.930 1_565 S
H959 C951 0.929 . S
H960 C968 0.929 . S
H961 C970 0.930 . S
H962 C972 0.930 . S
H963 C975 0.929 . S
H964 C978 0.930 . S
H965 C980 0.960 . S
H966 C980 0.960 . S
H967 C980 0.960 . S
C968 H960 0.929 . S
C968 C969 1.377 . S
C968 C970 1.384 . S
C969 C968 1.377 . S
C969 C975 1.390 . S
C970 H961 0.930 . S
C970 C968 1.384 . S
C970 C971 1.372 . S
C971 C970 1.372 . S
C971 C972 1.400 . S
C971 C976 1.490 . S
C972 H962 0.930 . S
C972 C971 1.400 . S
C972 C975 1.386 . S
H973 C989 0.930 . S
H974 C990 0.931 . S
C975 H963 0.929 . S
C975 C969 1.390 . S
C975 C972 1.386 . S
C976 C971 1.490 . S
C976 C978 1.395 . S
C976 C979 1.403 1_655 S
H977 C983 0.930 . S
C978 H964 0.930 . S
C978 C976 1.395 . S
C978 C981 1.403 . S
C979 C976 1.403 1_455 S
C979 C980 1.524 . S
C979 C983 1.400 . S
C980 H965 0.960 . S
C980 H966 0.960 . S
C980 H967 0.960 . S
C980 C979 1.524 . S
C981 C978 1.403 . S
C981 C982 1.392 1_655 S
C981 C985 1.495 . S
C982 C981 1.392 1_455 S
C982 C983 1.385 . S
C982 C984 1.478 . S
C983 H977 0.930 . S
C983 C979 1.400 . S
C983 C982 1.385 . S
C984 C982 1.478 . S
C984 C986 1.381 . S
C984 C990 1.383 . S
C985 C981 1.495 . S
C985 H991 0.959 . S
C985 H992 0.961 . S
C985 H993 0.960 . S
C986 C984 1.381 . S
C986 C987 1.394 . S
C986 H994 0.930 . S
C987 C986 1.394 . S
C987 C988 1.383 . S
C987 H995 0.929 . S
C988 C987 1.383 . S
C988 C989 1.377 . S
C989 H973 0.930 . S
C989 C988 1.377 . S
C989 C990 1.379 . S
C990 H974 0.931 . S
C990 C984 1.383 . S
C990 C989 1.379 . S
H991 C985 0.959 . S
H992 C985 0.961 . S
H993 C985 0.960 . S
H994 C986 0.930 . S
H995 C987 0.929 . S
H996 C1004 0.929 . S
H997 C1006 0.930 . S
H998 C1008 0.930 . S
H999 C1011 0.929 . S
H1000 C1014 0.930 . S
H1001 C1016 0.960 . S
H1002 C1016 0.960 . S
H1003 C1016 0.960 . S
C1004 H996 0.929 . S
C1004 C1005 1.377 . S
C1004 C1006 1.384 . S
C1005 C1004 1.377 . S
C1005 C1011 1.390 . S
C1006 H997 0.930 . S
C1006 C1004 1.384 . S
C1006 C1007 1.372 . S
C1007 C1006 1.372 . S
C1007 C1008 1.400 . S
C1007 C1012 1.490 . S
C1008 H998 0.930 . S
C1008 C1007 1.400 . S
C1008 C1011 1.386 . S
H1009 C1025 0.930 . S
H1010 C1026 0.931 . S
C1011 H999 0.929 . S
C1011 C1005 1.390 . S
C1011 C1008 1.386 . S
C1012 C1007 1.490 . S
C1012 C1014 1.395 . S
C1012 C1015 1.403 . S
H1013 C1019 0.930 . S
C1014 H1000 0.930 . S
C1014 C1012 1.395 . S
C1014 C1017 1.403 . S
C1015 C1012 1.403 . S
C1015 C1016 1.524 . S
C1015 C1019 1.400 . S
C1016 H1001 0.960 . S
C1016 H1002 0.960 . S
C1016 H1003 0.960 . S
C1016 C1015 1.524 . S
C1017 C1014 1.403 . S
C1017 C1018 1.392 . S
C1017 C1021 1.495 . S
C1018 C1017 1.392 . S
C1018 C1019 1.385 . S
C1018 C1020 1.478 . S
C1019 H1013 0.930 . S
C1019 C1015 1.400 . S
C1019 C1018 1.385 . S
C1020 C1018 1.478 . S
C1020 C1022 1.381 . S
C1020 C1026 1.383 . S
C1021 C1017 1.495 . S
C1021 H1027 0.959 . S
C1021 H1028 0.961 . S
C1021 H1029 0.960 . S
C1022 C1020 1.381 . S
C1022 C1023 1.394 . S
C1022 H1030 0.930 . S
C1023 C1022 1.394 . S
C1023 C1024 1.383 . S
C1023 H1031 0.929 . S
C1024 C1023 1.383 . S
C1024 C1025 1.377 . S
C1025 H1009 0.930 . S
C1025 C1024 1.377 . S
C1025 C1026 1.379 . S
C1026 H1010 0.931 . S
C1026 C1020 1.383 . S
C1026 C1025 1.379 . S
H1027 C1021 0.959 . S
H1028 C1021 0.961 . S
H1029 C1021 0.960 . S
H1030 C1022 0.930 . S
H1031 C1023 0.929 . S
C177 C9 0.558 . S
C196 C103 0.564 . S
C213 C23 0.570 . S
C232 C117 0.543 . S
C249 C37 0.568 . S
C268 C89 0.544 . S
C285 C159 0.557 . S
C304 C51 0.566 . S
C321 C65 0.557 . S
C340 C131 0.573 . S
C357 C145 0.553 . S
C376 C79 0.599 . S
C393 C19 0.557 . S
C412 C93 0.595 . S
C429 C107 0.570 . S
C448 C33 0.570 . S
C465 C5 0.559 . S
C484 C121 0.587 . S
C501 C135 0.570 . S
C520 C75 0.568 . S
C537 C149 0.569 . S
C556 C47 0.573 . S
C573 C61 0.558 . S
C592 C163 0.596 . S
C609 C81 1.564 . S
C628 C11 1.573 . S
C645 C25 1.569 . S
C664 C53 1.549 . S
C681 C39 1.562 . S
C700 C67 1.568 . S
C717 C95 1.563 . S
C736 C165 1.560 . S
C753 C109 1.568 . S
C772 C137 1.569 . S
C789 C123 1.568 . S
C808 C151 1.568 . S
C825 C0 1.592 . S
C844 C84 1.565 . S
C861 C14 1.587 . S
C880 C98 1.576 . S
C897 C28 1.598 . S
C916 C112 1.591 . S
C933 C42 1.597 . S
C952 C126 1.614 . S
C969 C140 1.588 . S
C988 C56 1.583 . S
C1005 C70 1.589 . S
C1024 C154 1.595 . S
