# Generated by pormake.
# Topology wlh, (5)-cn, num edge types: 1
# Building blocks:
#     Node 0, Type 0, BuildingBlock: BEQFEK_clean_sbu_0, # of connection points: 5
#     Node 1, Type 0, BuildingBlock: BEQFEK_clean_sbu_0, # of connection points: 5
#     Node 2, Type 0, BuildingBlock: BEQFEK_clean_sbu_0, # of connection points: 5
#     Node 3, Type 0, BuildingBlock: BEQFEK_clean_sbu_0, # of connection points: 5
#     Node 4, Type 0, BuildingBlock: BEQFEK_clean_sbu_0, # of connection points: 5
#     Node 5, Type 0, BuildingBlock: BEQFEK_clean_sbu_0, # of connection points: 5
#     Node 6, Type 0, BuildingBlock: BEQFEK_clean_sbu_0, # of connection points: 5
#     Node 7, Type 0, BuildingBlock: BEQFEK_clean_sbu_0, # of connection points: 5
#     Node 8, Type 0, BuildingBlock: BEQFEK_clean_sbu_0, # of connection points: 5
#     Node 9, Type 0, BuildingBlock: BEQFEK_clean_sbu_0, # of connection points: 5
#     Node 10, Type 0, BuildingBlock: BEQFEK_clean_sbu_0, # of connection points: 5
#     Node 11, Type 0, BuildingBlock: BEQFEK_clean_sbu_0, # of connection points: 5
#     Node 12, Type 0, BuildingBlock: BEQFEK_clean_sbu_0, # of connection points: 5
#     Node 13, Type 0, BuildingBlock: BEQFEK_clean_sbu_0, # of connection points: 5
#     Node 14, Type 0, BuildingBlock: BEQFEK_clean_sbu_0, # of connection points: 5
#     Node 15, Type 0, BuildingBlock: BEQFEK_clean_sbu_0, # of connection points: 5
#     Node 16, Type 0, BuildingBlock: BEQFEK_clean_sbu_0, # of connection points: 5
#     Node 17, Type 0, BuildingBlock: BEQFEK_clean_sbu_0, # of connection points: 5
#     Node 18, Type 0, BuildingBlock: BEQFEK_clean_sbu_0, # of connection points: 5
#     Node 19, Type 0, BuildingBlock: BEQFEK_clean_sbu_0, # of connection points: 5
#     Node 20, Type 0, BuildingBlock: BEQFEK_clean_sbu_0, # of connection points: 5
#     Node 21, Type 0, BuildingBlock: BEQFEK_clean_sbu_0, # of connection points: 5
#     Node 22, Type 0, BuildingBlock: BEQFEK_clean_sbu_0, # of connection points: 5
#     Node 23, Type 0, BuildingBlock: BEQFEK_clean_sbu_0, # of connection points: 5
#     Node 24, Type 0, BuildingBlock: BEQFEK_clean_sbu_0, # of connection points: 5
#     Node 25, Type 0, BuildingBlock: BEQFEK_clean_sbu_0, # of connection points: 5
#     Node 26, Type 0, BuildingBlock: BEQFEK_clean_sbu_0, # of connection points: 5
#     Node 27, Type 0, BuildingBlock: BEQFEK_clean_sbu_0, # of connection points: 5
#     Node 28, Type 0, BuildingBlock: BEQFEK_clean_sbu_0, # of connection points: 5
#     Node 29, Type 0, BuildingBlock: BEQFEK_clean_sbu_0, # of connection points: 5
#     Node 30, Type 0, BuildingBlock: BEQFEK_clean_sbu_0, # of connection points: 5
#     Node 31, Type 0, BuildingBlock: BEQFEK_clean_sbu_0, # of connection points: 5
#     Node 32, Type 0, BuildingBlock: BEQFEK_clean_sbu_0, # of connection points: 5
#     Node 33, Type 0, BuildingBlock: BEQFEK_clean_sbu_0, # of connection points: 5
#     Node 34, Type 0, BuildingBlock: BEQFEK_clean_sbu_0, # of connection points: 5
#     Node 35, Type 0, BuildingBlock: BEQFEK_clean_sbu_0, # of connection points: 5
#     Edge 36, Type (0, 0), BuildingBlock: EZIPEK_clean_linker_0, # of connection points: 2
#     Edge 37, Type (0, 0), BuildingBlock: EZIPEK_clean_linker_0, # of connection points: 2
#     Edge 38, Type (0, 0), BuildingBlock: EZIPEK_clean_linker_0, # of connection points: 2
#     Edge 39, Type (0, 0), BuildingBlock: EZIPEK_clean_linker_0, # of connection points: 2
#     Edge 40, Type (0, 0), BuildingBlock: EZIPEK_clean_linker_0, # of connection points: 2
#     Edge 41, Type (0, 0), BuildingBlock: EZIPEK_clean_linker_0, # of connection points: 2
#     Edge 42, Type (0, 0), BuildingBlock: EZIPEK_clean_linker_0, # of connection points: 2
#     Edge 43, Type (0, 0), BuildingBlock: EZIPEK_clean_linker_0, # of connection points: 2
#     Edge 44, Type (0, 0), BuildingBlock: EZIPEK_clean_linker_0, # of connection points: 2
#     Edge 45, Type (0, 0), BuildingBlock: EZIPEK_clean_linker_0, # of connection points: 2
#     Edge 46, Type (0, 0), BuildingBlock: EZIPEK_clean_linker_0, # of connection points: 2
#     Edge 47, Type (0, 0), BuildingBlock: EZIPEK_clean_linker_0, # of connection points: 2
#     Edge 48, Type (0, 0), BuildingBlock: EZIPEK_clean_linker_0, # of connection points: 2
#     Edge 49, Type (0, 0), BuildingBlock: EZIPEK_clean_linker_0, # of connection points: 2
#     Edge 50, Type (0, 0), BuildingBlock: EZIPEK_clean_linker_0, # of connection points: 2
#     Edge 51, Type (0, 0), BuildingBlock: EZIPEK_clean_linker_0, # of connection points: 2
#     Edge 52, Type (0, 0), BuildingBlock: EZIPEK_clean_linker_0, # of connection points: 2
#     Edge 53, Type (0, 0), BuildingBlock: EZIPEK_clean_linker_0, # of connection points: 2
#     Edge 54, Type (0, 0), BuildingBlock: EZIPEK_clean_linker_0, # of connection points: 2
#     Edge 55, Type (0, 0), BuildingBlock: EZIPEK_clean_linker_0, # of connection points: 2
#     Edge 56, Type (0, 0), BuildingBlock: EZIPEK_clean_linker_0, # of connection points: 2
#     Edge 57, Type (0, 0), BuildingBlock: EZIPEK_clean_linker_0, # of connection points: 2
#     Edge 58, Type (0, 0), BuildingBlock: EZIPEK_clean_linker_0, # of connection points: 2
#     Edge 59, Type (0, 0), BuildingBlock: EZIPEK_clean_linker_0, # of connection points: 2
#     Edge 60, Type (0, 0), BuildingBlock: EZIPEK_clean_linker_0, # of connection points: 2
#     Edge 61, Type (0, 0), BuildingBlock: EZIPEK_clean_linker_0, # of connection points: 2
#     Edge 62, Type (0, 0), BuildingBlock: EZIPEK_clean_linker_0, # of connection points: 2
#     Edge 63, Type (0, 0), BuildingBlock: EZIPEK_clean_linker_0, # of connection points: 2
#     Edge 64, Type (0, 0), BuildingBlock: EZIPEK_clean_linker_0, # of connection points: 2
#     Edge 65, Type (0, 0), BuildingBlock: EZIPEK_clean_linker_0, # of connection points: 2
#     Edge 66, Type (0, 0), BuildingBlock: EZIPEK_clean_linker_0, # of connection points: 2
#     Edge 67, Type (0, 0), BuildingBlock: EZIPEK_clean_linker_0, # of connection points: 2
#     Edge 68, Type (0, 0), BuildingBlock: EZIPEK_clean_linker_0, # of connection points: 2
#     Edge 69, Type (0, 0), BuildingBlock: EZIPEK_clean_linker_0, # of connection points: 2
#     Edge 70, Type (0, 0), BuildingBlock: EZIPEK_clean_linker_0, # of connection points: 2
#     Edge 71, Type (0, 0), BuildingBlock: EZIPEK_clean_linker_0, # of connection points: 2
#     Edge 72, Type (0, 0), BuildingBlock: EZIPEK_clean_linker_0, # of connection points: 2
#     Edge 73, Type (0, 0), BuildingBlock: EZIPEK_clean_linker_0, # of connection points: 2
#     Edge 74, Type (0, 0), BuildingBlock: EZIPEK_clean_linker_0, # of connection points: 2
#     Edge 75, Type (0, 0), BuildingBlock: EZIPEK_clean_linker_0, # of connection points: 2
#     Edge 76, Type (0, 0), BuildingBlock: EZIPEK_clean_linker_0, # of connection points: 2
#     Edge 77, Type (0, 0), BuildingBlock: EZIPEK_clean_linker_0, # of connection points: 2
#     Edge 78, Type (0, 0), BuildingBlock: EZIPEK_clean_linker_0, # of connection points: 2
#     Edge 79, Type (0, 0), BuildingBlock: EZIPEK_clean_linker_0, # of connection points: 2
#     Edge 80, Type (0, 0), BuildingBlock: EZIPEK_clean_linker_0, # of connection points: 2
#     Edge 81, Type (0, 0), BuildingBlock: EZIPEK_clean_linker_0, # of connection points: 2
#     Edge 82, Type (0, 0), BuildingBlock: EZIPEK_clean_linker_0, # of connection points: 2
#     Edge 83, Type (0, 0), BuildingBlock: EZIPEK_clean_linker_0, # of connection points: 2
#     Edge 84, Type (0, 0), BuildingBlock: EZIPEK_clean_linker_0, # of connection points: 2
#     Edge 85, Type (0, 0), BuildingBlock: EZIPEK_clean_linker_0, # of connection points: 2
#     Edge 86, Type (0, 0), BuildingBlock: EZIPEK_clean_linker_0, # of connection points: 2
#     Edge 87, Type (0, 0), BuildingBlock: EZIPEK_clean_linker_0, # of connection points: 2
#     Edge 88, Type (0, 0), BuildingBlock: EZIPEK_clean_linker_0, # of connection points: 2
#     Edge 89, Type (0, 0), BuildingBlock: EZIPEK_clean_linker_0, # of connection points: 2
#     Edge 90, Type (0, 0), BuildingBlock: EZIPEK_clean_linker_0, # of connection points: 2
#     Edge 91, Type (0, 0), BuildingBlock: EZIPEK_clean_linker_0, # of connection points: 2
#     Edge 92, Type (0, 0), BuildingBlock: EZIPEK_clean_linker_0, # of connection points: 2
#     Edge 93, Type (0, 0), BuildingBlock: EZIPEK_clean_linker_0, # of connection points: 2
#     Edge 94, Type (0, 0), BuildingBlock: EZIPEK_clean_linker_0, # of connection points: 2
#     Edge 95, Type (0, 0), BuildingBlock: EZIPEK_clean_linker_0, # of connection points: 2
#     Edge 96, Type (0, 0), BuildingBlock: EZIPEK_clean_linker_0, # of connection points: 2
#     Edge 97, Type (0, 0), BuildingBlock: EZIPEK_clean_linker_0, # of connection points: 2
#     Edge 98, Type (0, 0), BuildingBlock: EZIPEK_clean_linker_0, # of connection points: 2
#     Edge 99, Type (0, 0), BuildingBlock: EZIPEK_clean_linker_0, # of connection points: 2
#     Edge 100, Type (0, 0), BuildingBlock: EZIPEK_clean_linker_0, # of connection points: 2
#     Edge 101, Type (0, 0), BuildingBlock: EZIPEK_clean_linker_0, # of connection points: 2
#     Edge 102, Type (0, 0), BuildingBlock: EZIPEK_clean_linker_0, # of connection points: 2
#     Edge 103, Type (0, 0), BuildingBlock: EZIPEK_clean_linker_0, # of connection points: 2
#     Edge 104, Type (0, 0), BuildingBlock: EZIPEK_clean_linker_0, # of connection points: 2
#     Edge 105, Type (0, 0), BuildingBlock: EZIPEK_clean_linker_0, # of connection points: 2
#     Edge 106, Type (0, 0), BuildingBlock: EZIPEK_clean_linker_0, # of connection points: 2
#     Edge 107, Type (0, 0), BuildingBlock: EZIPEK_clean_linker_0, # of connection points: 2
#     Edge 108, Type (0, 0), BuildingBlock: EZIPEK_clean_linker_0, # of connection points: 2
#     Edge 109, Type (0, 0), BuildingBlock: EZIPEK_clean_linker_0, # of connection points: 2
#     Edge 110, Type (0, 0), BuildingBlock: EZIPEK_clean_linker_0, # of connection points: 2
#     Edge 111, Type (0, 0), BuildingBlock: EZIPEK_clean_linker_0, # of connection points: 2
#     Edge 112, Type (0, 0), BuildingBlock: EZIPEK_clean_linker_0, # of connection points: 2
#     Edge 113, Type (0, 0), BuildingBlock: EZIPEK_clean_linker_0, # of connection points: 2
#     Edge 114, Type (0, 0), BuildingBlock: EZIPEK_clean_linker_0, # of connection points: 2
#     Edge 115, Type (0, 0), BuildingBlock: EZIPEK_clean_linker_0, # of connection points: 2
#     Edge 116, Type (0, 0), BuildingBlock: EZIPEK_clean_linker_0, # of connection points: 2
#     Edge 117, Type (0, 0), BuildingBlock: EZIPEK_clean_linker_0, # of connection points: 2
#     Edge 118, Type (0, 0), BuildingBlock: EZIPEK_clean_linker_0, # of connection points: 2
#     Edge 119, Type (0, 0), BuildingBlock: EZIPEK_clean_linker_0, # of connection points: 2
#     Edge 120, Type (0, 0), BuildingBlock: EZIPEK_clean_linker_0, # of connection points: 2
#     Edge 121, Type (0, 0), BuildingBlock: EZIPEK_clean_linker_0, # of connection points: 2
#     Edge 122, Type (0, 0), BuildingBlock: EZIPEK_clean_linker_0, # of connection points: 2
#     Edge 123, Type (0, 0), BuildingBlock: EZIPEK_clean_linker_0, # of connection points: 2
#     Edge 124, Type (0, 0), BuildingBlock: EZIPEK_clean_linker_0, # of connection points: 2
#     Edge 125, Type (0, 0), BuildingBlock: EZIPEK_clean_linker_0, # of connection points: 2
# Relax obj value: 0.222
# Max RMSD: 0.172
# Mean RMSD: 0.172
data_MOF--net-wlh--node1-BEQFEK_clean_sbu_0--edge1-EZIPEK_clean_linker_0
_symmetry_space_group_name_H-M    P1
_symmetry_Int_Tables_number       1
_symmetry_cell_setting            triclinic
loop_
_symmetry_equiv_pos_as_xyz
'x, y, z'
_cell_length_a     33.973201
_cell_length_b     33.975653
_cell_length_c     100.34902
_cell_angle_alpha  90.000603
_cell_angle_beta   89.998423
_cell_angle_gamma 119.99202
loop_
_atom_site_label
_atom_site_type_symbol
_atom_site_fract_x
_atom_site_fract_y
_atom_site_fract_z
_atom_type_partial_charge
Co0 Co 0.10435 0.20248 0.20581 0.0
Co1 Co 0.06029 0.26213 0.19834 0.0
C2 C 0.00672 0.16536 0.19535 0.0
O3 O 0.04083 0.1642 0.20008 0.0
O4 O 0.00821 0.20282 0.19279 0.0
C5 C 0.13009 0.14661 0.19272 0.0
O6 O 0.11693 0.16226 0.18272 0.0
C7 C 0.02627 0.31799 0.18557 0.0
C8 C 0.06275 0.38146 0.19727 0.0
C9 C 0.0334 0.36171 0.18666 0.0
N10 N 0.05059 0.31203 0.19511 0.0
N11 N 0.07207 0.35004 0.2021 0.0
C12 C 0.99809 0.28317 0.17536 0.0
H13 H 0.96265 0.26327 0.17907 0.0
H14 H 0.01118 0.25952 0.17364 0.0
H15 H 0.99769 0.29974 0.16586 0.0
C16 C 0.17723 0.27037 0.18863 0.0
N17 N 0.13656 0.25342 0.19464 0.0
N18 N 0.11617 0.2751 0.19025 0.0
C19 C 0.14265 0.30512 0.18082 0.0
C20 C 0.18205 0.30281 0.17951 0.0
C21 C 0.21206 0.25742 0.19184 0.0
H22 H 0.20816 0.24631 0.20238 0.0
H23 H 0.2077 0.22971 0.18509 0.0
H24 H 0.24682 0.28665 0.19027 0.0
O25 O 0.09767 0.21961 0.22412 0.0
O26 O 0.06161 0.25591 0.21814 0.0
H27 H 0.1541 0.35165 0.16465 0.0
H28 H 0.09523 0.31515 0.16942 0.0
C29 C 0.13057 0.33519 0.17315 0.0
H30 H 0.13271 0.36194 0.17993 0.0
H31 H 0.09404 0.35489 0.21 0.0
O32 O 0.12987 0.16086 0.20445 0.0
C33 C 0.07627 0.24029 0.22725 0.0
Co34 Co 0.79615 0.89536 0.20906 0.0
Co35 Co 0.73125 0.79484 0.19936 0.0
C36 C 0.82759 0.83709 0.19426 0.0
O37 O 0.83178 0.87124 0.20062 0.0
O38 O 0.7888 0.80267 0.1918 0.0
C39 C 0.86329 0.98043 0.19942 0.0
O40 O 0.86291 0.95414 0.18977 0.0
C41 C 0.67368 0.70971 0.18434 0.0
C42 C 0.60934 0.68114 0.19566 0.0
C43 C 0.62935 0.67372 0.18468 0.0
N44 N 0.67968 0.73745 0.19466 0.0
N45 N 0.64109 0.72002 0.2014 0.0
C46 C 0.70952 0.71794 0.17431 0.0
H47 H 0.7341 0.7094 0.17885 0.0
H48 H 0.72844 0.75444 0.17155 0.0
H49 H 0.69459 0.69673 0.16528 0.0
C50 C 0.73112 0.91067 0.19417 0.0
N51 N 0.74474 0.88255 0.19905 0.0
N52 N 0.71992 0.84193 0.19383 0.0
C53 C 0.69065 0.84351 0.18504 0.0
C54 C 0.69708 0.88722 0.18497 0.0
C55 C 0.75117 0.95963 0.19788 0.0
H56 H 0.76233 0.96492 0.20844 0.0
H57 H 0.78089 0.98055 0.19144 0.0
H58 H 0.72606 0.97106 0.19636 0.0
O59 O 0.78031 0.86553 0.22665 0.0
O60 O 0.73963 0.79495 0.21921 0.0
H61 H 0.63204 0.77817 0.18238 0.0
H62 H 0.64382 0.81614 0.16847 0.0
C63 C 0.65942 0.80498 0.17623 0.0
H64 H 0.67847 0.7902 0.17142 0.0
H65 H 0.63623 0.7351 0.20982 0.0
O66 O 0.83691 0.96246 0.20937 0.0
C67 C 0.75801 0.82276 0.22886 0.0
Co68 Co 0.0998 0.91178 0.20651 0.0
Co69 Co 0.20079 0.94662 0.19751 0.0
C70 C 0.15838 0.99616 0.18886 0.0
O71 O 0.12448 0.9688 0.19595 0.0
O72 O 0.19167 0.98971 0.18678 0.0
C73 C 0.01184 0.87613 0.19565 0.0
O74 O 0.03528 0.88065 0.18477 0.0
C75 C 0.28822 0.97066 0.18468 0.0
C76 C 0.31589 0.94097 0.19894 0.0
C77 C 0.32464 0.96398 0.18697 0.0
N78 N 0.25885 0.95215 0.19484 0.0
N79 N 0.27566 0.93458 0.20334 0.0
C80 C 0.28164 0.99456 0.17312 0.0
H81 H 0.24569 0.97592 0.16981 0.0
H82 H 0.30439 0.99808 0.16471 0.0
H83 H 0.28941 0.02894 0.17636 0.0
C84 C 0.08911 0.82634 0.19516 0.0
N85 N 0.11488 0.8701 0.19884 0.0
N86 N 0.15576 0.88611 0.19378 0.0
C87 C 0.15629 0.85382 0.1861 0.0
C88 C 0.11395 0.81504 0.1867 0.0
C89 C 0.04152 0.79532 0.19959 0.0
H90 H 0.03731 0.80478 0.20983 0.0
H91 H 0.01753 0.79796 0.19267 0.0
H92 H 0.03381 0.75948 0.19951 0.0
O93 O 0.12867 0.93368 0.224 0.0
O94 O 0.19976 0.96528 0.21639 0.0
H95 H 0.223 0.86367 0.18405 0.0
H96 H 0.18543 0.83236 0.1705 0.0
C97 C 0.19535 0.86096 0.17756 0.0
H98 H 0.2084 0.89317 0.17193 0.0
H99 H 0.25932 0.9177 0.21208 0.0
O100 O 0.03237 0.8864 0.20684 0.0
C101 C 0.17142 0.95863 0.22566 0.0
Co102 Co 0.20574 0.11048 0.29433 0.0
Co103 Co 0.26428 0.06508 0.30193 0.0
C104 C 0.16633 0.01722 0.30713 0.0
O105 O 0.16624 0.05276 0.30327 0.0
O106 O 0.20314 0.01589 0.30796 0.0
C107 C 0.15574 0.14379 0.30675 0.0
O108 O 0.17408 0.13455 0.31694 0.0
C109 C 0.31813 0.03063 0.31592 0.0
C110 C 0.38037 0.06155 0.30355 0.0
C111 C 0.36099 0.03545 0.31479 0.0
N112 N 0.31243 0.05324 0.3058 0.0
N113 N 0.34969 0.07139 0.29842 0.0
C114 C 0.28386 0.00602 0.32662 0.0
H115 H 0.2637 0.96951 0.32392 0.0
H116 H 0.26041 0.01972 0.32758 0.0
H117 H 0.30101 0.00877 0.33627 0.0
C118 C 0.27981 0.18722 0.30858 0.0
N119 N 0.26049 0.14493 0.30355 0.0
N120 N 0.28113 0.12411 0.30841 0.0
C121 C 0.3128 0.15205 0.31725 0.0
C122 C 0.3127 0.19277 0.31763 0.0
C123 C 0.26672 0.22179 0.30507 0.0
H124 H 0.25127 0.21461 0.295 0.0
H125 H 0.24239 0.22103 0.31257 0.0
H126 H 0.29706 0.25639 0.30524 0.0
O127 O 0.21343 0.08981 0.27652 0.0
O128 O 0.25707 0.0606 0.28224 0.0
H129 H 0.35917 0.16493 0.33358 0.0
H130 H 0.31918 0.1056 0.33017 0.0
C131 C 0.34106 0.13944 0.32563 0.0
H132 H 0.36651 0.13751 0.31917 0.0
H133 H 0.35452 0.09136 0.29001 0.0
O134 O 0.16722 0.1395 0.29497 0.0
C135 C 0.23366 0.0677 0.27365 0.0
Co136 Co 0.91702 0.10506 0.29296 0.0
Co137 Co 0.949 0.2056 0.3019 0.0
C138 C 0.00129 0.16688 0.31031 0.0
O139 O 0.97418 0.13309 0.30324 0.0
O140 O 0.99421 0.19964 0.3126 0.0
C141 C 0.89033 0.02566 0.30754 0.0
O142 O 0.90141 0.05574 0.31711 0.0
C143 C 0.97241 0.29315 0.31444 0.0
C144 C 0.93471 0.31621 0.3017 0.0
C145 C 0.96202 0.32744 0.31288 0.0
N146 N 0.95202 0.26269 0.30461 0.0
N147 N 0.92972 0.27681 0.297 0.0
C148 C 0.00028 0.28876 0.32524 0.0
H149 H 0.03104 0.29062 0.32078 0.0
H150 H 0.98053 0.25503 0.33008 0.0
H151 H 0.01069 0.31599 0.33282 0.0
C152 C 0.8297 0.09265 0.30267 0.0
N153 N 0.87403 0.11937 0.29977 0.0
N154 N 0.88899 0.15904 0.30552 0.0
C155 C 0.85538 0.15772 0.31299 0.0
C156 C 0.81673 0.11544 0.31147 0.0
C157 C 0.79883 0.04783 0.29627 0.0
H158 H 0.81794 0.03188 0.29234 0.0
H159 H 0.77171 0.02491 0.30327 0.0
H160 H 0.78173 0.05371 0.28771 0.0
O161 O 0.93982 0.13269 0.27527 0.0
O162 O 0.96807 0.20345 0.28305 0.0
H163 H 0.85919 0.22147 0.31625 0.0
H164 H 0.83405 0.18206 0.32986 0.0
C165 C 0.86111 0.19488 0.32216 0.0
H166 H 0.89496 0.21053 0.327 0.0
H167 H 0.9103 0.259 0.28874 0.0
O168 O 0.89387 0.0384 0.29541 0.0
C169 C 0.96397 0.17579 0.27379 0.0
Co170 Co 0.8998 0.8064 0.29355 0.0
Co171 Co 0.80224 0.74761 0.30552 0.0
C172 C 0.85016 0.84227 0.31136 0.0
O173 O 0.88039 0.84341 0.30367 0.0
O174 O 0.81593 0.80463 0.31487 0.0
C175 C 0.98482 0.86061 0.30469 0.0
O176 O 0.95924 0.84552 0.31538 0.0
C177 C 0.71611 0.69096 0.32013 0.0
C178 C 0.68907 0.62628 0.30901 0.0
C179 C 0.68046 0.64651 0.3197 0.0
N180 N 0.74486 0.69677 0.31013 0.0
N181 N 0.72837 0.65803 0.30352 0.0
C182 C 0.72325 0.72702 0.32995 0.0
H183 H 0.72235 0.7552 0.32463 0.0
H184 H 0.75742 0.74113 0.33451 0.0
H185 H 0.69683 0.71355 0.33784 0.0
C186 C 0.91234 0.73556 0.30607 0.0
N187 N 0.88563 0.75244 0.3024 0.0
N188 N 0.84699 0.73112 0.30889 0.0
C189 C 0.84873 0.70127 0.31739 0.0
C190 C 0.89037 0.70338 0.31589 0.0
C191 C 0.95906 0.75129 0.30082 0.0
H192 H 0.96411 0.76865 0.29109 0.0
H193 H 0.98453 0.77483 0.30806 0.0
H194 H 0.96449 0.72184 0.29968 0.0
O195 O 0.86696 0.79633 0.2765 0.0
O196 O 0.79864 0.76095 0.28617 0.0
H197 H 0.78443 0.64486 0.3227 0.0
H198 H 0.82672 0.66219 0.33562 0.0
C199 C 0.81318 0.6746 0.3276 0.0
H200 H 0.8001 0.69587 0.33194 0.0
H201 H 0.74442 0.65311 0.29534 0.0
O202 O 0.9667 0.84609 0.29327 0.0
C203 C 0.82383 0.77883 0.27596 0.0
Co204 Co 0.91678 0.81281 0.79205 0.0
Co205 Co 0.94921 0.74464 0.80165 0.0
C206 C 0.00124 0.83818 0.80946 0.0
O207 O 0.97373 0.84488 0.80252 0.0
O208 O 0.99471 0.79838 0.81148 0.0
C209 C 0.88384 0.86697 0.80307 0.0
O210 O 0.88994 0.84845 0.81379 0.0
C211 C 0.97465 0.68321 0.81535 0.0
C212 C 0.93858 0.62129 0.80298 0.0
C213 C 0.96591 0.63893 0.8141 0.0
N214 N 0.9533 0.69152 0.80539 0.0
N215 N 0.93194 0.65437 0.79803 0.0
C216 C 0.00225 0.71683 0.8259 0.0
H217 H 0.03421 0.74392 0.8214 0.0
H218 H 0.98335 0.73309 0.82987 0.0
H219 H 0.0107 0.70048 0.83413 0.0
C220 C 0.83075 0.74073 0.8037 0.0
N221 N 0.87439 0.75715 0.80012 0.0
N222 N 0.88933 0.7319 0.80558 0.0
C223 C 0.85643 0.70053 0.81348 0.0
C224 C 0.81829 0.7053 0.81253 0.0
C225 C 0.80098 0.7583 0.79886 0.0
H226 H 0.81169 0.77218 0.78868 0.0
H227 H 0.80344 0.78497 0.80573 0.0
H228 H 0.76492 0.73066 0.79865 0.0
O229 O 0.93816 0.80328 0.7747 0.0
O230 O 0.96633 0.76069 0.78242 0.0
H231 H 0.86132 0.64099 0.81643 0.0
H232 H 0.8352 0.65385 0.83011 0.0
C233 C 0.86246 0.66887 0.82248 0.0
H234 H 0.89613 0.68723 0.82742 0.0
H235 H 0.91232 0.65146 0.78968 0.0
O236 O 0.89257 0.85621 0.79171 0.0
C237 C 0.9608 0.78291 0.77304 0.0
Co238 Co 0.19797 0.10076 0.79322 0.0
Co239 Co 0.25601 0.20372 0.80179 0.0
C240 C 0.15876 0.15311 0.80728 0.0
O241 O 0.15914 0.11838 0.80278 0.0
O242 O 0.19527 0.19144 0.80835 0.0
C243 C 0.1489 0.01734 0.80536 0.0
O244 O 0.16699 0.04519 0.8155 0.0
C245 C 0.31269 0.29246 0.81544 0.0
C246 C 0.37409 0.32087 0.80272 0.0
C247 C 0.35608 0.32935 0.81396 0.0
N248 N 0.3053 0.26305 0.80549 0.0
N249 N 0.34207 0.28044 0.79791 0.0
C250 C 0.2797 0.28485 0.82635 0.0
H251 H 0.26325 0.30538 0.82429 0.0
H252 H 0.25313 0.24846 0.82693 0.0
H253 H 0.29778 0.29632 0.83602 0.0
C254 C 0.27168 0.09662 0.80731 0.0
N255 N 0.25285 0.12019 0.80234 0.0
N256 N 0.27277 0.16091 0.8077 0.0
C257 C 0.30332 0.16352 0.81676 0.0
C258 C 0.30335 0.12276 0.81682 0.0
C259 C 0.259 0.04939 0.80338 0.0
H260 H 0.23408 0.02492 0.8106 0.0
H261 H 0.2894 0.04523 0.80364 0.0
H262 H 0.24446 0.04223 0.7932 0.0
O263 O 0.20479 0.13088 0.77568 0.0
O264 O 0.24793 0.20286 0.78221 0.0
H265 H 0.34629 0.19457 0.83393 0.0
H266 H 0.30835 0.21584 0.82971 0.0
C267 C 0.33041 0.20332 0.82564 0.0
H268 H 0.35762 0.23076 0.81962 0.0
H269 H 0.34562 0.26416 0.78956 0.0
O270 O 0.15938 0.03318 0.79356 0.0
C271 C 0.22472 0.17358 0.77333 0.0
Co272 Co 0.89354 0.09793 0.79317 0.0
Co273 Co 0.79283 0.05619 0.8026 0.0
C274 C 0.83849 0.00755 0.80852 0.0
O275 O 0.8709 0.03872 0.80191 0.0
O276 O 0.80311 0.00976 0.81146 0.0
C277 C 0.97581 0.12368 0.80584 0.0
O278 O 0.94817 0.10758 0.81609 0.0
C279 C 0.70485 0.03019 0.81577 0.0
C280 C 0.67295 0.05243 0.80057 0.0
C281 C 0.66646 0.03318 0.81308 0.0
N282 N 0.73323 0.04727 0.80531 0.0
N283 N 0.71387 0.06045 0.79628 0.0
C284 C 0.71399 0.01128 0.82807 0.0
H285 H 0.75024 0.02064 0.8286 0.0
H286 H 0.7046 0.02394 0.83703 0.0
H287 H 0.69247 0.9737 0.82793 0.0
C288 C 0.90285 0.17777 0.80698 0.0
N289 N 0.87691 0.13534 0.80226 0.0
N290 N 0.83643 0.11684 0.80773 0.0
C291 C 0.83608 0.14663 0.81659 0.0
C292 C 0.87837 0.18606 0.81644 0.0
C293 C 0.9513 0.20912 0.80319 0.0
H294 H 0.95864 0.20023 0.79322 0.0
H295 H 0.97391 0.20672 0.81069 0.0
H296 H 0.95854 0.24482 0.80315 0.0
O297 O 0.86689 0.08005 0.77516 0.0
O298 O 0.79639 0.04288 0.78323 0.0
H299 H 0.80567 0.16521 0.83254 0.0
H300 H 0.78875 0.10555 0.83159 0.0
C301 C 0.79736 0.13641 0.8257 0.0
H302 H 0.76724 0.12938 0.81965 0.0
H303 H 0.72882 0.0753 0.78718 0.0
O304 O 0.95991 0.12473 0.7944 0.0
C305 C 0.82445 0.0524 0.77365 0.0
Co306 Co 0.79918 0.90554 0.70575 0.0
Co307 Co 0.73258 0.94061 0.69809 0.0
C308 C 0.82823 0.99664 0.69219 0.0
O309 O 0.83366 0.96614 0.69775 0.0
O310 O 0.78886 0.99156 0.69031 0.0
C311 C 0.86068 0.88482 0.69337 0.0
O312 O 0.85163 0.90364 0.68329 0.0
C313 C 0.67161 0.96544 0.68412 0.0
C314 C 0.61228 0.93676 0.69764 0.0
C315 C 0.6285 0.95949 0.6857 0.0
N316 N 0.68063 0.94678 0.69465 0.0
N317 N 0.645 0.92973 0.70269 0.0
C318 C 0.70356 0.98845 0.67279 0.0
H319 H 0.72667 0.97449 0.67149 0.0
H320 H 0.68448 0.98448 0.66343 0.0
H321 H 0.72441 0.02527 0.67503 0.0
C322 C 0.73175 0.82512 0.69124 0.0
N323 N 0.74632 0.86688 0.69625 0.0
N324 N 0.72044 0.88257 0.69179 0.0
C325 C 0.68949 0.85162 0.68332 0.0
C326 C 0.69602 0.81443 0.68267 0.0
C327 C 0.75162 0.79568 0.69447 0.0
H328 H 0.76738 0.80388 0.7045 0.0
H329 H 0.77767 0.80114 0.68695 0.0
H330 H 0.72491 0.75927 0.69408 0.0
O331 O 0.78615 0.91825 0.72396 0.0
O332 O 0.74372 0.94767 0.71787 0.0
H333 H 0.63202 0.86101 0.68256 0.0
H334 H 0.63599 0.82952 0.66861 0.0
C335 C 0.65574 0.85824 0.67555 0.0
H336 H 0.67367 0.89034 0.66981 0.0
H337 H 0.6428 0.91273 0.71156 0.0
O338 O 0.84119 0.88112 0.70456 0.0
C339 C 0.7637 0.93795 0.72699 0.0
Co340 Co 0.10401 0.90059 0.7037 0.0
Co341 Co 0.05811 0.79865 0.69447 0.0
C342 C 0.01004 0.84879 0.69091 0.0
O343 O 0.04534 0.88275 0.6956 0.0
O344 O 0.00842 0.81088 0.68894 0.0
C345 C 0.13131 0.98447 0.69218 0.0
O346 O 0.11503 0.95771 0.68175 0.0
C347 C 0.02465 0.71232 0.67942 0.0
C348 C 0.0588 0.68169 0.69061 0.0
C349 C 0.03141 0.67534 0.67971 0.0
N350 N 0.04747 0.73974 0.68969 0.0
N351 N 0.06756 0.72104 0.69635 0.0
C352 C 0.99806 0.72192 0.66938 0.0
H353 H 0.96194 0.70478 0.67254 0.0
H354 H 0.01092 0.75899 0.66872 0.0
H355 H 0.99975 0.70836 0.65946 0.0
C356 C 0.17958 0.90716 0.68823 0.0
N357 N 0.13785 0.88253 0.69352 0.0
N358 N 0.11691 0.84212 0.68799 0.0
C359 C 0.14429 0.8406 0.6785 0.0
C360 C 0.18471 0.88183 0.67835 0.0
C361 C 0.21355 0.95476 0.69212 0.0
H362 H 0.20664 0.96231 0.70232 0.0
H363 H 0.21196 0.97874 0.68498 0.0
H364 H 0.24843 0.9598 0.69164 0.0
O365 O 0.08529 0.8704 0.72135 0.0
O366 O 0.05391 0.79863 0.71435 0.0
H367 H 0.13106 0.77337 0.67508 0.0
H368 H 0.15585 0.81075 0.66098 0.0
C369 C 0.1314 0.80143 0.66935 0.0
H370 H 0.09681 0.78942 0.66536 0.0
H371 H 0.08818 0.73575 0.70468 0.0
O372 O 0.13311 0.96757 0.70339 0.0
C373 C 0.06234 0.82763 0.72358 0.0
Co374 Co 0.09563 0.2002 0.7054 0.0
Co375 Co 0.19883 0.26125 0.69705 0.0
C376 C 0.14947 0.16322 0.69137 0.0
O377 O 0.1135 0.16173 0.69561 0.0
O378 O 0.18708 0.20064 0.69056 0.0
C379 C 0.00926 0.14858 0.6944 0.0
O380 O 0.03456 0.16555 0.68371 0.0
C381 C 0.28595 0.31814 0.68264 0.0
C382 C 0.31932 0.37648 0.69647 0.0
C383 C 0.32478 0.35999 0.68445 0.0
N384 N 0.25836 0.3102 0.69314 0.0
N385 N 0.27863 0.34522 0.70135 0.0
C386 C 0.27547 0.28654 0.67113 0.0
H387 H 0.29666 0.2702 0.67188 0.0
H388 H 0.23904 0.25988 0.67113 0.0
H389 H 0.28426 0.30588 0.66163 0.0
C390 C 0.08964 0.27355 0.69164 0.0
N391 N 0.11399 0.25527 0.69638 0.0
N392 N 0.15522 0.27736 0.69136 0.0
C393 C 0.15749 0.30907 0.68278 0.0
C394 C 0.11582 0.30731 0.68265 0.0
C395 C 0.04199 0.25924 0.69554 0.0
H396 H 0.03541 0.2448 0.70573 0.0
H397 H 0.01807 0.23377 0.68834 0.0
H398 H 0.03643 0.28878 0.69529 0.0
O399 O 0.12665 0.20767 0.72282 0.0
O400 O 0.19859 0.25327 0.71661 0.0
H401 H 0.22597 0.36253 0.68075 0.0
H402 H 0.18983 0.35823 0.66697 0.0
C403 C 0.19767 0.33853 0.67426 0.0
H404 H 0.20871 0.31719 0.6689 0.0
H405 H 0.26441 0.34797 0.71027 0.0
O406 O 0.02781 0.16109 0.70584 0.0
C407 C 0.16925 0.22881 0.72533 0.0
Co408 Co 0.76291 0.52539 0.54031 0.0
Co409 Co 0.72543 0.58843 0.52984 0.0
C410 C 0.67763 0.49435 0.52278 0.0
O411 O 0.7061 0.4903 0.53003 0.0
O412 O 0.68198 0.53302 0.52016 0.0
C413 C 0.79794 0.47326 0.52948 0.0
O414 O 0.79245 0.49222 0.51876 0.0
C415 C 0.7001 0.64831 0.51518 0.0
C416 C 0.72271 0.7054 0.52936 0.0
C417 C 0.70316 0.69016 0.51698 0.0
N418 N 0.71736 0.63911 0.52602 0.0
N419 N 0.73077 0.67341 0.53445 0.0
C420 C 0.68054 0.61749 0.50342 0.0
H421 H 0.69657 0.59618 0.50223 0.0
H422 H 0.6851 0.63741 0.4942 0.0
H423 H 0.64357 0.59473 0.50507 0.0
C424 C 0.84678 0.59882 0.52807 0.0
N425 N 0.80317 0.58114 0.53186 0.0
N426 N 0.78645 0.60469 0.52629 0.0
C427 C 0.81838 0.6366 0.51829 0.0
C428 C 0.85747 0.63351 0.5191 0.0
C429 C 0.87807 0.58283 0.53275 0.0
H430 H 0.86769 0.56803 0.54285 0.0
H431 H 0.87707 0.55725 0.5257 0.0
H432 H 0.91358 0.61161 0.53305 0.0
O433 O 0.73989 0.53388 0.55758 0.0
O434 O 0.70796 0.57172 0.54891 0.0
H435 H 0.8042 0.69036 0.51523 0.0
H436 H 0.84011 0.68686 0.50258 0.0
C437 C 0.81045 0.66674 0.50917 0.0
H438 H 0.77986 0.64585 0.50302 0.0
H439 H 0.74571 0.67507 0.54368 0.0
O440 O 0.78908 0.4839 0.54084 0.0
C441 C 0.71429 0.5513 0.55863 0.0
Co442 Co 0.46866 0.23 0.5377 0.0
Co443 Co 0.40545 0.12644 0.5306 0.0
C444 C 0.50037 0.16881 0.52452 0.0
O445 O 0.50402 0.20425 0.52996 0.0
O446 O 0.4619 0.13326 0.52276 0.0
C447 C 0.52515 0.31373 0.52524 0.0
O448 O 0.50843 0.28712 0.51478 0.0
C449 C 0.34798 0.03787 0.51763 0.0
C450 C 0.28551 0.00982 0.52984 0.0
C451 C 0.30438 0.00119 0.5188 0.0
N452 N 0.3547 0.06729 0.52752 0.0
N453 N 0.31731 0.05018 0.53481 0.0
C454 C 0.3823 0.0453 0.50715 0.0
H455 H 0.40752 0.03711 0.51139 0.0
H456 H 0.40075 0.0815 0.50407 0.0
H457 H 0.36601 0.02324 0.49835 0.0
C458 C 0.39805 0.23712 0.5227 0.0
N459 N 0.4149 0.21245 0.52813 0.0
N460 N 0.39109 0.17028 0.52392 0.0
C461 C 0.35971 0.16761 0.51513 0.0
C462 C 0.36344 0.21001 0.51408 0.0
C463 C 0.41393 0.28567 0.52581 0.0
H464 H 0.4261 0.29271 0.53626 0.0
H465 H 0.44163 0.30779 0.51888 0.0
H466 H 0.38588 0.29317 0.52451 0.0
O467 O 0.45687 0.20524 0.55586 0.0
O468 O 0.41901 0.13248 0.55025 0.0
H469 H 0.30301 0.10054 0.51427 0.0
H470 H 0.31026 0.13376 0.49949 0.0
C471 C 0.32839 0.12611 0.50737 0.0
H472 H 0.34794 0.11155 0.50276 0.0
H473 H 0.31318 0.06656 0.54304 0.0
O474 O 0.51106 0.29708 0.5368 0.0
C475 C 0.43885 0.16347 0.55906 0.0
Co476 Co 0.76991 0.23098 0.538 0.0
Co477 Co 0.87261 0.26838 0.53101 0.0
C478 C 0.83231 0.32475 0.526 0.0
O479 O 0.79604 0.29309 0.53109 0.0
O480 O 0.86714 0.3205 0.52407 0.0
C481 C 0.68542 0.21694 0.52847 0.0
O482 O 0.71207 0.25028 0.52046 0.0
C483 C 0.96105 0.2956 0.5182 0.0
C484 C 0.9887 0.26436 0.53189 0.0
C485 C 0.9977 0.28912 0.52025 0.0
N486 N 0.93127 0.2753 0.52818 0.0
N487 N 0.94808 0.25676 0.53632 0.0
C488 C 0.95439 0.32025 0.50687 0.0
H489 H 0.91776 0.3085 0.50548 0.0
H490 H 0.96895 0.31518 0.49756 0.0
H491 H 0.97248 0.35715 0.50915 0.0
C492 C 0.75908 0.15515 0.52145 0.0
N493 N 0.7855 0.19532 0.52748 0.0
N494 N 0.82794 0.21146 0.52378 0.0
C495 C 0.82962 0.18207 0.51504 0.0
C496 C 0.78597 0.14561 0.51329 0.0
C497 C 0.70866 0.12688 0.52307 0.0
H498 H 0.69925 0.12689 0.53365 0.0
H499 H 0.69204 0.14153 0.51692 0.0
H500 H 0.69606 0.09137 0.51977 0.0
O501 O 0.79405 0.2397 0.55632 0.0
O502 O 0.86644 0.27173 0.55067 0.0
H503 H 0.8962 0.19064 0.51556 0.0
H504 H 0.86414 0.16196 0.50081 0.0
C505 C 0.87166 0.18949 0.50807 0.0
H506 H 0.88752 0.22258 0.50281 0.0
H507 H 0.93141 0.23821 0.54482 0.0
O508 O 0.70303 0.20343 0.53726 0.0
C509 C 0.83592 0.25972 0.55962 0.0
Co510 Co 0.85964 0.42521 0.62326 0.0
Co511 Co 0.92283 0.38891 0.63409 0.0
C512 C 0.82943 0.34054 0.64117 0.0
O513 O 0.82531 0.36855 0.63372 0.0
O514 O 0.86819 0.34542 0.64399 0.0
C515 C 0.80819 0.46007 0.63421 0.0
O516 O 0.82793 0.45487 0.6448 0.0
C517 C 0.98444 0.3652 0.64839 0.0
C518 C 0.04242 0.39174 0.63438 0.0
C519 C 0.02727 0.37062 0.64658 0.0
N520 N 0.9746 0.38268 0.63773 0.0
N521 N 0.00943 0.39847 0.62941 0.0
C522 C 0.9533 0.34323 0.65995 0.0
H523 H 0.93199 0.35901 0.66167 0.0
H524 H 0.97288 0.34582 0.66909 0.0
H525 H 0.93046 0.30671 0.65766 0.0
C526 C 0.93273 0.50999 0.63517 0.0
N527 N 0.91531 0.46625 0.63155 0.0
N528 N 0.93833 0.44969 0.63751 0.0
C529 C 0.96936 0.48169 0.64567 0.0
C530 C 0.96645 0.52078 0.6445 0.0
C531 C 0.91706 0.54109 0.6301 0.0
H532 H 0.90247 0.53011 0.62001 0.0
H533 H 0.89142 0.54072 0.63702 0.0
H534 H 0.94596 0.57651 0.62967 0.0
O535 O 0.86783 0.40191 0.60608 0.0
O536 O 0.90524 0.37012 0.61511 0.0
H537 H 0.02404 0.46942 0.64941 0.0
H538 H 0.01695 0.50301 0.6621 0.0
C539 C 0.99872 0.47394 0.65516 0.0
H540 H 0.97758 0.44243 0.66093 0.0
H541 H 0.01077 0.41417 0.62035 0.0
O542 O 0.81787 0.45079 0.62279 0.0
C543 C 0.88477 0.37586 0.60529 0.0
Co544 Co 0.56889 0.43474 0.62576 0.0
Co545 Co 0.60581 0.53705 0.63369 0.0
C546 C 0.66113 0.49549 0.63863 0.0
O547 O 0.63004 0.45981 0.63314 0.0
O548 O 0.65677 0.53012 0.64075 0.0
C549 C 0.55378 0.34899 0.63465 0.0
O550 O 0.58622 0.37476 0.64303 0.0
C551 C 0.63322 0.62272 0.6482 0.0
C552 C 0.60734 0.65626 0.63478 0.0
C553 C 0.62945 0.66123 0.64676 0.0
N554 N 0.61397 0.59581 0.63755 0.0
N555 N 0.59859 0.61613 0.62957 0.0
C556 C 0.65478 0.61182 0.65951 0.0
H557 H 0.64035 0.57454 0.66037 0.0
H558 H 0.64995 0.62574 0.66899 0.0
H559 H 0.69181 0.62784 0.6576 0.0
C560 C 0.49155 0.42234 0.64168 0.0
N561 N 0.53241 0.4495 0.63613 0.0
N562 N 0.548 0.4915 0.6402 0.0
C563 C 0.51747 0.49206 0.64873 0.0
C564 C 0.48095 0.44817 0.64992 0.0
C565 C 0.46356 0.37214 0.63951 0.0
H566 H 0.46481 0.36403 0.62886 0.0
H567 H 0.4775 0.3548 0.64563 0.0
H568 H 0.42766 0.35909 0.64248 0.0
O569 O 0.57971 0.46143 0.60775 0.0
O570 O 0.61094 0.53341 0.6139 0.0
H571 H 0.52768 0.55935 0.64873 0.0
H572 H 0.49462 0.52498 0.66267 0.0
C573 C 0.52387 0.53318 0.65603 0.0
H574 H 0.55538 0.5474 0.66206 0.0
H575 H 0.58167 0.60234 0.62062 0.0
O576 O 0.54124 0.36759 0.62589 0.0
C577 C 0.59975 0.50358 0.60475 0.0
Co578 Co 0.56683 0.13127 0.6249 0.0
Co579 Co 0.46288 0.06813 0.6315 0.0
C580 C 0.505 0.16321 0.63756 0.0
O581 O 0.5407 0.16674 0.63234 0.0
O582 O 0.46928 0.12475 0.63922 0.0
C583 C 0.64953 0.1876 0.63785 0.0
O584 O 0.62214 0.17057 0.64813 0.0
C585 C 0.37347 0.00912 0.64391 0.0
C586 C 0.34572 0.94873 0.63082 0.0
C587 C 0.33665 0.96591 0.64217 0.0
N588 N 0.40339 0.01728 0.63406 0.0
N589 N 0.38644 0.98113 0.62623 0.0
C590 C 0.38052 0.04156 0.65495 0.0
H591 H 0.36771 0.06435 0.6517 0.0
H592 H 0.41723 0.06283 0.65726 0.0
H593 H 0.36154 0.02308 0.66402 0.0
C594 C 0.57299 0.06045 0.64018 0.0
N595 N 0.5487 0.07746 0.63457 0.0
N596 N 0.5062 0.05344 0.6385 0.0
C597 C 0.50286 0.02163 0.64724 0.0
C598 C 0.54521 0.02537 0.64859 0.0
C599 C 0.6218 0.07652 0.63741 0.0
H600 H 0.6296 0.08891 0.627 0.0
H601 H 0.64333 0.10412 0.64445 0.0
H602 H 0.62932 0.04853 0.63883 0.0
O603 O 0.54328 0.11956 0.60656 0.0
O604 O 0.47029 0.08189 0.61191 0.0
H605 H 0.43562 0.96532 0.64728 0.0
H606 H 0.46732 0.96999 0.66221 0.0
C607 C 0.46059 0.98945 0.65455 0.0
H608 H 0.44584 0.0085 0.65935 0.0
H609 H 0.40317 0.97823 0.61789 0.0
O610 O 0.6338 0.17371 0.62619 0.0
C611 C 0.50164 0.10161 0.60321 0.0
Co612 Co 0.56233 0.13345 0.12808 0.0
Co613 Co 0.60267 0.06989 0.13482 0.0
C614 C 0.65309 0.16889 0.14101 0.0
O615 O 0.61835 0.17126 0.13767 0.0
O616 O 0.65317 0.13136 0.14072 0.0
C617 C 0.55281 0.21223 0.12982 0.0
O618 O 0.59741 0.23381 0.12938 0.0
C619 C 0.63366 0.01584 0.15007 0.0
C620 C 0.61417 0.95799 0.13637 0.0
C621 C 0.63334 0.97515 0.14867 0.0
N622 N 0.61512 0.02247 0.13908 0.0
N623 N 0.60369 0.98781 0.13092 0.0
C624 C 0.65105 0.04758 0.16168 0.0
H625 H 0.63804 0.07174 0.16138 0.0
H626 H 0.6409 0.02806 0.17115 0.0
H627 H 0.68873 0.06702 0.1613 0.0
C628 C 0.4862 0.06502 0.14348 0.0
N629 N 0.52671 0.07988 0.13756 0.0
N630 N 0.54386 0.05445 0.14129 0.0
C631 C 0.51429 0.02227 0.14974 0.0
C632 C 0.47712 0.0283 0.15142 0.0
C633 C 0.45847 0.08798 0.14249 0.0
H634 H 0.45515 0.09512 0.13189 0.0
H635 H 0.47598 0.12074 0.14796 0.0
H636 H 0.42407 0.06669 0.14682 0.0
O637 O 0.58346 0.12473 0.11029 0.0
O638 O 0.60576 0.0748 0.11516 0.0
H639 H 0.52971 0.96862 0.14932 0.0
H640 H 0.49271 0.96456 0.16285 0.0
C641 C 0.52252 0.98829 0.15677 0.0
H642 H 0.55255 0.00631 0.16335 0.0
H643 H 0.58821 0.98425 0.12167 0.0
O644 O 0.53066 0.16943 0.12809 0.0
C645 C 0.60159 0.10103 0.10694 0.0
Co646 Co 0.86106 0.43776 0.12911 0.0
Co647 Co 0.92203 0.53688 0.13947 0.0
C648 C 0.82751 0.49355 0.14488 0.0
O649 O 0.82492 0.46093 0.13801 0.0
O650 O 0.8657 0.52752 0.14814 0.0
C651 C 0.80214 0.35332 0.14036 0.0
O652 O 0.81053 0.37933 0.15089 0.0
C653 C 0.98101 0.62412 0.15297 0.0
C654 C 0.04489 0.64846 0.14161 0.0
C655 C 0.02578 0.65881 0.15223 0.0
N656 N 0.97389 0.59417 0.14323 0.0
N657 N 0.01211 0.60903 0.13645 0.0
C658 C 0.9459 0.61888 0.1629 0.0
H659 H 0.91895 0.62232 0.15769 0.0
H660 H 0.9297 0.58433 0.16731 0.0
H661 H 0.96084 0.64483 0.1709 0.0
C662 C 0.92971 0.42486 0.14285 0.0
N663 N 0.9139 0.45174 0.13844 0.0
N664 N 0.9363 0.49157 0.14425 0.0
C665 C 0.96586 0.49062 0.15304 0.0
C666 C 0.96242 0.44822 0.15243 0.0
C667 C 0.91268 0.37697 0.13846 0.0
H668 H 0.89772 0.37137 0.12833 0.0
H669 H 0.88654 0.35339 0.14554 0.0
H670 H 0.94084 0.36929 0.13849 0.0
O671 O 0.87261 0.46708 0.11144 0.0
O672 O 0.90819 0.53688 0.12007 0.0
H673 H 0.00771 0.51638 0.17067 0.0
H674 H 0.97468 0.54329 0.1665 0.0
C675 C 0.99464 0.52838 0.1624 0.0
H676 H 0.02396 0.5553 0.15684 0.0
H677 H 0.01602 0.5917 0.12843 0.0
O678 O 0.82127 0.37127 0.12931 0.0
C679 C 0.88971 0.50999 0.11025 0.0
Co680 Co 0.56348 0.43307 0.12539 0.0
Co681 Co 0.4611 0.39366 0.13377 0.0
C682 C 0.5034 0.34285 0.14061 0.0
O683 O 0.53748 0.37298 0.1342 0.0
O684 O 0.46924 0.34743 0.14324 0.0
C685 C 0.64676 0.46248 0.13822 0.0
O686 O 0.6193 0.4535 0.14843 0.0
C687 C 0.37244 0.36715 0.14631 0.0
C688 C 0.34203 0.39194 0.13139 0.0
C689 C 0.33449 0.37094 0.14367 0.0
N690 N 0.40159 0.38544 0.13607 0.0
N691 N 0.38312 0.40013 0.12718 0.0
C692 C 0.38046 0.34619 0.15834 0.0
H693 H 0.36404 0.30893 0.1568 0.0
H694 H 0.41734 0.35995 0.15995 0.0
H695 H 0.36502 0.35225 0.1673 0.0
C696 C 0.57154 0.51419 0.13897 0.0
N697 N 0.54645 0.47162 0.1342 0.0
N698 N 0.50497 0.45377 0.13896 0.0
C699 C 0.50321 0.48381 0.14741 0.0
C700 C 0.54553 0.52295 0.14773 0.0
C701 C 0.61998 0.546 0.13551 0.0
H702 H 0.62679 0.53846 0.1253 0.0
H703 H 0.64228 0.54208 0.14281 0.0
H704 H 0.62749 0.58174 0.13601 0.0
O705 O 0.5376 0.41532 0.10725 0.0
O706 O 0.46629 0.37887 0.11472 0.0
H707 H 0.47043 0.50286 0.16254 0.0
H708 H 0.45212 0.44289 0.16162 0.0
C709 C 0.46286 0.4742 0.15572 0.0
H710 H 0.43439 0.46839 0.14907 0.0
H711 H 0.3988 0.41611 0.11827 0.0
O712 O 0.63078 0.45797 0.12647 0.0
C713 C 0.49529 0.38756 0.10547 0.0
Co714 Co 0.47313 0.23856 0.03816 0.0
Co715 Co 0.4099 0.27881 0.03046 0.0
C716 C 0.50665 0.333 0.026 0.0
O717 O 0.50953 0.30031 0.03108 0.0
O718 O 0.46836 0.33031 0.02393 0.0
C719 C 0.52582 0.2084 0.02518 0.0
O720 O 0.50786 0.21864 0.01511 0.0
C721 C 0.35091 0.30743 0.01663 0.0
C722 C 0.29173 0.27955 0.03019 0.0
C723 C 0.30832 0.30278 0.01834 0.0
N724 N 0.35927 0.28761 0.02702 0.0
N725 N 0.32371 0.27109 0.03507 0.0
C726 C 0.38268 0.32986 0.00523 0.0
H727 H 0.40037 0.36723 0.00666 0.0
H728 H 0.40836 0.31884 0.00471 0.0
H729 H 0.3634 0.32186 0.99574 0.0
C730 C 0.40292 0.16067 0.02319 0.0
N731 N 0.42007 0.20286 0.02816 0.0
N732 N 0.3967 0.22112 0.02349 0.0
C733 C 0.36532 0.19156 0.01483 0.0
C734 C 0.36865 0.15248 0.01436 0.0
C735 C 0.41734 0.1275 0.02721 0.0
H736 H 0.43093 0.13511 0.0375 0.0
H737 H 0.44349 0.12956 0.02019 0.0
H738 H 0.38809 0.09226 0.02679 0.0
O739 O 0.45905 0.25005 0.05628 0.0
O740 O 0.41876 0.28207 0.05034 0.0
H741 H 0.30954 0.20345 0.01394 0.0
H742 H 0.31359 0.173 -0.00027 0.0
C743 C 0.33337 0.20065 0.00698 0.0
H744 H 0.35276 0.23337 0.00162 0.0
H745 H 0.32092 0.2533 0.04382 0.0
O746 O 0.51502 0.21308 0.03701 0.0
C747 C 0.43741 0.27047 0.05941 0.0
Co748 Co 0.75168 0.22611 0.03793 0.0
Co749 Co 0.71675 0.12433 0.03001 0.0
C750 C 0.6679 0.16948 0.0207 0.0
O751 O 0.69648 0.20463 0.02706 0.0
O752 O 0.67201 0.13425 0.01997 0.0
C753 C 0.77442 0.31596 0.03036 0.0
O754 O 0.74328 0.29435 0.02122 0.0
C755 C 0.69253 0.03859 0.01612 0.0
C756 C 0.71625 0.00598 0.03065 0.0
C757 C 0.69648 0.00048 0.01825 0.0
N758 N 0.70955 0.06586 0.0268 0.0
N759 N 0.72363 0.04614 0.03544 0.0
C760 C 0.67255 0.04863 0.00423 0.0
H761 H 0.69008 0.08578 0.00237 0.0
H762 H 0.67483 0.03067 0.99527 0.0
H763 H 0.63618 0.03675 0.00623 0.0
C764 C 0.83517 0.23785 0.02569 0.0
N765 N 0.79259 0.21086 0.0302 0.0
N766 N 0.77768 0.16916 0.02597 0.0
C767 C 0.81016 0.16866 0.01833 0.0
C768 C 0.84745 0.21228 0.01786 0.0
C769 C 0.8623 0.28817 0.02771 0.0
H770 H 0.85886 0.29669 0.03815 0.0
H771 H 0.84939 0.30494 0.02095 0.0
H772 H 0.89877 0.30137 0.02544 0.0
O773 O 0.72797 0.19686 0.05534 0.0
O774 O 0.70015 0.12481 0.04906 0.0
H775 H 0.79802 0.10074 0.01747 0.0
H776 H 0.83426 0.13701 0.00431 0.0
C777 C 0.80398 0.12851 0.01051 0.0
H778 H 0.77374 0.11625 0.004 0.0
H779 H 0.73864 0.06034 0.04458 0.0
O780 O 0.78239 0.29329 0.03894 0.0
C781 C 0.70527 0.15436 0.05775 0.0
Co782 Co 0.7769 0.53749 0.04206 0.0
Co783 Co 0.88007 0.60079 0.03431 0.0
C784 C 0.83727 0.50392 0.0299 0.0
O785 O 0.80193 0.50089 0.03518 0.0
O786 O 0.87277 0.54217 0.02777 0.0
C787 C 0.69185 0.46856 0.03223 0.0
O788 O 0.71865 0.46277 0.02402 0.0
C789 C 0.96563 0.65748 0.01965 0.0
C790 C 0.99996 0.71769 0.03274 0.0
C791 C 0.00426 0.69978 0.02082 0.0
N792 N 0.93926 0.65057 0.03038 0.0
N793 N 0.96007 0.6867 0.03817 0.0
C794 C 0.95395 0.62448 0.00844 0.0
H795 H 0.91668 0.60116 0.00792 0.0
H796 H 0.96666 0.6428 0.99884 0.0
H797 H 0.9707 0.60405 0.01019 0.0
C798 C 0.76689 0.60281 0.02576 0.0
N799 N 0.79324 0.58847 0.03149 0.0
N800 N 0.83537 0.61361 0.02734 0.0
C801 C 0.83675 0.64443 0.01855 0.0
C802 C 0.79332 0.6382 0.01728 0.0
C803 C 0.7169 0.58233 0.02803 0.0
H804 H 0.7087 0.57276 0.03865 0.0
H805 H 0.69841 0.55143 0.02181 0.0
H806 H 0.70521 0.60642 0.02521 0.0
O807 O 0.80287 0.55383 0.06013 0.0
O808 O 0.87524 0.59311 0.05417 0.0
H809 H 0.90468 0.70025 0.01837 0.0
H810 H 0.87067 0.69932 0.00439 0.0
C811 C 0.87818 0.67801 0.01113 0.0
H812 H 0.8915 0.65971 0.0052 0.0
H813 H 0.94667 0.69051 0.04712 0.0
O814 O 0.70947 0.49846 0.04138 0.0
C815 C 0.84496 0.57545 0.06324 0.0
Co816 Co 0.42615 0.86929 0.87255 0.0
Co817 Co 0.38797 0.93332 0.86535 0.0
C818 C 0.33106 0.83686 0.8612 0.0
O819 O 0.36361 0.83341 0.86611 0.0
O820 O 0.33462 0.87548 0.85902 0.0
C821 C 0.44532 0.80731 0.86006 0.0
O822 O 0.42369 0.8141 0.85028 0.0
C823 C 0.36047 0.99349 0.85209 0.0
C824 C 0.39559 0.05516 0.86461 0.0
C825 C 0.36888 0.0376 0.85337 0.0
N826 N 0.38151 0.98518 0.86213 0.0
N827 N 0.40226 0.02214 0.86959 0.0
C828 C 0.33398 0.96035 0.84132 0.0
H829 H 0.29769 0.94105 0.8443 0.0
H830 H 0.34629 0.93594 0.83985 0.0
H831 H 0.33649 0.97836 0.83185 0.0
C832 C 0.50277 0.93489 0.85669 0.0
N833 N 0.46176 0.92031 0.86223 0.0
N834 N 0.44456 0.94493 0.85786 0.0
C835 C 0.47385 0.97517 0.84892 0.0
C836 C 0.51148 0.96945 0.8479 0.0
C837 C 0.53356 0.91642 0.85975 0.0
H838 H 0.52752 0.90248 0.87001 0.0
H839 H 0.52717 0.88917 0.85256 0.0
H840 H 0.56967 0.94345 0.8587 0.0
O841 O 0.41834 0.88468 0.89084 0.0
O842 O 0.38568 0.92456 0.8852 0.0
H843 H 0.46696 0.03393 0.84835 0.0
H844 H 0.49189 0.02569 0.83347 0.0
C845 C 0.46578 0.00821 0.84132 0.0
H846 H 0.43157 0.99027 0.8367 0.0
H847 H 0.42186 0.02514 0.87795 0.0
O848 O 0.45108 0.8283 0.87106 0.0
C849 C 0.39806 0.90627 0.89416 0.0
Co850 Co 0.12915 0.56446 0.87546 0.0
Co851 Co 0.06746 0.46214 0.86657 0.0
C852 C 0.16517 0.50476 0.86388 0.0
O853 O 0.16737 0.53998 0.86906 0.0
O854 O 0.1272 0.46971 0.86104 0.0
C855 C 0.19719 0.65089 0.86632 0.0
O856 O 0.20335 0.62517 0.85777 0.0
C857 C 0.01081 0.37541 0.85192 0.0
C858 C 0.94745 0.34589 0.86374 0.0
C859 C 0.96696 0.33865 0.85261 0.0
N860 N 0.01702 0.40345 0.86219 0.0
N861 N 0.979 0.38539 0.86923 0.0
C862 C 0.04565 0.38413 0.8415 0.0
H863 H 0.06374 0.36566 0.84422 0.0
H864 H 0.0708 0.42096 0.84086 0.0
H865 H 0.02913 0.3713 0.83167 0.0
C866 C 0.06537 0.57577 0.85859 0.0
N867 N 0.0796 0.54917 0.86426 0.0
N868 N 0.05626 0.50781 0.85941 0.0
C869 C 0.02734 0.50739 0.85008 0.0
C870 C 0.03237 0.5505 0.84929 0.0
C871 C 0.0834 0.62483 0.86182 0.0
H872 H 0.09185 0.63103 0.87257 0.0
H873 H 0.11457 0.64587 0.85592 0.0
H874 H 0.0582 0.63534 0.85924 0.0
O875 O 0.11052 0.53677 0.8933 0.0
O876 O 0.07276 0.46525 0.88652 0.0
H877 H 0.96985 0.44099 0.84845 0.0
H878 H 0.97949 0.47607 0.83393 0.0
C879 C 0.99627 0.46701 0.84188 0.0
H880 H 0.01577 0.45228 0.83733 0.0
H881 H 0.9743 0.40055 0.87766 0.0
O882 O 0.16745 0.63203 0.87545 0.0
C883 C 0.08911 0.49431 0.89595 0.0
Co884 Co 0.43826 0.57074 0.87353 0.0
Co885 Co 0.5373 0.61491 0.86131 0.0
C886 C 0.48622 0.66163 0.85857 0.0
O887 O 0.45464 0.62773 0.86461 0.0
O888 O 0.52334 0.66298 0.85544 0.0
C889 C 0.34968 0.54389 0.86533 0.0
O890 O 0.37311 0.5671 0.8549 0.0
C891 C 0.62291 0.64648 0.84572 0.0
C892 C 0.65071 0.60853 0.8563 0.0
C893 C 0.65879 0.63791 0.84581 0.0
N894 N 0.59458 0.62289 0.85575 0.0
N895 N 0.61153 0.60041 0.86201 0.0
C896 C 0.61552 0.67602 0.83622 0.0
H897 H 0.63196 0.71107 0.84029 0.0
H898 H 0.57864 0.66354 0.83507 0.0
H899 H 0.63104 0.67711 0.82639 0.0
C900 C 0.4274 0.49273 0.85857 0.0
N901 N 0.45364 0.53527 0.86312 0.0
N902 N 0.49202 0.55513 0.85645 0.0
C903 C 0.49055 0.52618 0.847 0.0
C904 C 0.44946 0.48585 0.84807 0.0
C905 C 0.38089 0.45994 0.86364 0.0
H906 H 0.3553 0.46342 0.85773 0.0
H907 H 0.37383 0.42448 0.86249 0.0
H908 H 0.37768 0.46679 0.87427 0.0
O909 O 0.47392 0.59294 0.89024 0.0
O910 O 0.54269 0.62387 0.88094 0.0
H911 H 0.55531 0.53626 0.84123 0.0
H912 H 0.51327 0.51367 0.82818 0.0
C913 C 0.5264 0.53783 0.83666 0.0
H914 H 0.53905 0.57297 0.83303 0.0
H915 H 0.59594 0.57897 0.87013 0.0
O916 O 0.37079 0.53957 0.87524 0.0
C917 C 0.51722 0.61684 0.89102 0.0
Co918 Co 0.53497 0.75629 0.95891 0.0
Co919 Co 0.59701 0.71839 0.9699 0.0
C920 C 0.50055 0.66622 0.97419 0.0
O921 O 0.49896 0.6975 0.96772 0.0
O922 O 0.53828 0.66859 0.97704 0.0
C923 C 0.47941 0.78618 0.96998 0.0
O924 O 0.49712 0.77823 0.98057 0.0
C925 C 0.65873 0.69417 0.98422 0.0
C926 C 0.71756 0.72423 0.97047 0.0
C927 C 0.70211 0.70105 0.98236 0.0
N928 N 0.64884 0.71279 0.97386 0.0
N929 N 0.68418 0.73064 0.9657 0.0
C930 C 0.62753 0.67031 0.99562 0.0
H931 H 0.59893 0.6773 0.99578 0.0
H932 H 0.64662 0.68123 0.00515 0.0
H933 H 0.61379 0.63318 0.99457 0.0
C934 C 0.60366 0.8376 0.97337 0.0
N935 N 0.58742 0.79481 0.96897 0.0
N936 N 0.60944 0.77716 0.97495 0.0
C937 C 0.63898 0.80762 0.98375 0.0
C938 C 0.63597 0.84675 0.98304 0.0
C939 C 0.58874 0.86954 0.96851 0.0
H940 H 0.5764 0.86079 0.95811 0.0
H941 H 0.5614 0.86729 0.97506 0.0
H942 H 0.6174 0.90509 0.96891 0.0
O943 O 0.54899 0.73768 0.94156 0.0
O944 O 0.58995 0.70998 0.95034 0.0
H945 H 0.69496 0.79742 0.98738 0.0
H946 H 0.68356 0.82557 0.00083 0.0
C947 C 0.66772 0.79862 0.99313 0.0
H948 H 0.64672 0.76516 0.99799 0.0
H949 H 0.6856 0.74755 0.95688 0.0
O950 O 0.49206 0.7808 0.95848 0.0
C951 C 0.57095 0.71635 0.94033 0.0
Co952 Co 0.24156 0.76717 0.96007 0.0
Co953 Co 0.2834 0.86879 0.96997 0.0
C954 C 0.33241 0.8227 0.97541 0.0
O955 O 0.30123 0.78984 0.96886 0.0
O956 O 0.32988 0.8579 0.97838 0.0
C957 C 0.20813 0.68229 0.97205 0.0
O958 O 0.21724 0.70912 0.98242 0.0
C959 C 0.30962 0.95731 0.98321 0.0
C960 C 0.28316 0.98675 0.96849 0.0
C961 C 0.30454 0.99464 0.9807 0.0
N962 N 0.29159 0.92815 0.97294 0.0
N963 N 0.27593 0.94612 0.96419 0.0
C964 C 0.33117 0.94981 0.99518 0.0
H965 H 0.36849 0.97296 0.99468 0.0
H966 H 0.3238 0.91414 0.99562 0.0
H967 H 0.31869 0.95827 0.00436 0.0
C968 C 0.16162 0.7595 0.97423 0.0
N969 N 0.20436 0.78435 0.96957 0.0
N970 N 0.22338 0.82488 0.97506 0.0
C971 C 0.19395 0.82609 0.98387 0.0
C972 C 0.15399 0.7845 0.98366 0.0
C973 C 0.12821 0.71248 0.96985 0.0
H974 H 0.1361 0.70731 0.95951 0.0
H975 H 0.12966 0.68759 0.97668 0.0
H976 H 0.09315 0.707 0.97027 0.0
O977 O 0.25973 0.79595 0.94226 0.0
O978 O 0.29551 0.86617 0.9506 0.0
H979 H 0.20904 0.8942 0.98695 0.0
H980 H 0.17767 0.8562 0.00044 0.0
C981 C 0.20494 0.86504 0.99297 0.0
H982 H 0.23752 0.87538 0.99813 0.0
H983 H 0.25984 0.93033 0.9553 0.0
O984 O 0.21446 0.69946 0.9604 0.0
C985 C 0.28623 0.83871 0.94088 0.0
Co986 Co 0.22598 0.46961 0.96093 0.0
Co987 Co 0.12569 0.405 0.97062 0.0
C988 C 0.16866 0.49935 0.97727 0.0
O989 O 0.20187 0.50366 0.97036 0.0
O990 O 0.13476 0.46043 0.97997 0.0
C991 C 0.31288 0.53869 0.96989 0.0
O992 O 0.28809 0.54637 0.97838 0.0
C993 C 0.04024 0.34339 0.98473 0.0
C994 C 0.00758 0.28664 0.97035 0.0
C995 C 0.00208 0.30126 0.9827 0.0
N996 N 0.06748 0.35336 0.97405 0.0
N997 N 0.04775 0.31924 0.96551 0.0
C998 C 0.0501 0.37387 0.9965 0.0
H999 H 0.0873 0.39581 0.99787 0.0
H1000 H 0.0345 0.35365 0.00565 0.0
H1001 H 0.03525 0.39601 0.99473 0.0
C1002 C 0.24033 0.40182 0.97466 0.0
N1003 N 0.21235 0.41592 0.96994 0.0
N1004 N 0.17148 0.39031 0.9749 0.0
C1005 C 0.17248 0.35944 0.98318 0.0
C1006 C 0.21629 0.36607 0.98333 0.0
C1007 C 0.29022 0.42444 0.97189 0.0
H1008 H 0.30837 0.45456 0.97845 0.0
H1009 H 0.30342 0.40104 0.97396 0.0
H1010 H 0.29709 0.43559 0.96135 0.0
O1011 O 0.19634 0.45958 0.94324 0.0
O1012 O 0.12603 0.42181 0.95147 0.0
H1013 H 0.14303 0.30665 0.99816 0.0
H1014 H 0.12188 0.34613 0.9979 0.0
C1015 C 0.13349 0.32698 0.99166 0.0
H1016 H 0.10487 0.30373 0.98514 0.0
H1017 H 0.06183 0.3182 0.95636 0.0
O1018 O 0.29325 0.50863 0.96088 0.0
C1019 C 0.15343 0.44236 0.94189 0.0
Co1020 Co 0.2331 0.46069 0.46004 0.0
Co1021 Co 0.27503 0.39881 0.46711 0.0
C1022 C 0.32992 0.49522 0.47082 0.0
O1023 O 0.29647 0.49753 0.46605 0.0
O1024 O 0.32751 0.4572 0.47314 0.0
C1025 C 0.20759 0.51657 0.47334 0.0
O1026 O 0.21999 0.50018 0.48333 0.0
C1027 C 0.30433 0.339 0.47977 0.0
C1028 C 0.27217 0.27925 0.46641 0.0
C1029 C 0.29755 0.29567 0.47793 0.0
N1030 N 0.28346 0.3479 0.46981 0.0
N1031 N 0.26448 0.31208 0.46185 0.0
C1032 C 0.32932 0.37077 0.49097 0.0
H1033 H 0.31966 0.39741 0.49182 0.0
H1034 H 0.32222 0.35169 0.50048 0.0
H1035 H 0.36637 0.38729 0.48902 0.0
C1036 C 0.15853 0.39186 0.47649 0.0
N1037 N 0.19962 0.40884 0.47076 0.0
N1038 N 0.21895 0.38596 0.475 0.0
C1039 C 0.19127 0.35499 0.48406 0.0
C1040 C 0.15229 0.35809 0.48527 0.0
C1041 C 0.12457 0.40596 0.47325 0.0
H1042 H 0.12932 0.41784 0.46278 0.0
H1043 H 0.12911 0.4334 0.48015 0.0
H1044 H 0.08945 0.3771 0.47458 0.0
O1045 O 0.24024 0.44491 0.44166 0.0
O1046 O 0.27504 0.40716 0.44741 0.0
H1047 H 0.20327 0.29929 0.48438 0.0
H1048 H 0.17568 0.30394 0.49918 0.0
C1049 C 0.20187 0.32342 0.49152 0.0
H1050 H 0.23554 0.34306 0.49637 0.0
H1051 H 0.24525 0.30959 0.45346 0.0
O1052 O 0.20838 0.50295 0.46156 0.0
C1053 C 0.26135 0.42407 0.43841 0.0
Co1054 Co 0.5387 0.76557 0.45651 0.0
Co1055 Co 0.60367 0.86753 0.46481 0.0
C1056 C 0.50745 0.82493 0.47065 0.0
O1057 O 0.50278 0.78978 0.46477 0.0
O1058 O 0.54638 0.85988 0.47253 0.0
C1059 C 0.471 0.68014 0.46628 0.0
O1060 O 0.46869 0.70648 0.47545 0.0
C1061 C 0.66186 0.95395 0.479 0.0
C1062 C 0.72198 0.98594 0.46579 0.0
C1063 C 0.70436 0.99211 0.47751 0.0
N1064 N 0.6545 0.92613 0.46861 0.0
N1065 N 0.69062 0.9455 0.46077 0.0
C1066 C 0.62879 0.94434 0.49006 0.0
H1067 H 0.60737 0.90717 0.49164 0.0
H1068 H 0.64683 0.96116 0.49941 0.0
H1069 H 0.60628 0.95799 0.48729 0.0
C1070 C 0.60514 0.75323 0.47183 0.0
N1071 N 0.59104 0.78032 0.46645 0.0
N1072 N 0.61656 0.82199 0.47089 0.0
C1073 C 0.64703 0.82228 0.47961 0.0
C1074 C 0.64047 0.77859 0.4805 0.0
C1075 C 0.58416 0.70342 0.46919 0.0
H1076 H 0.5731 0.69589 0.45865 0.0
H1077 H 0.55419 0.68458 0.47572 0.0
H1078 H 0.60858 0.69157 0.47138 0.0
O1079 O 0.55306 0.79334 0.43856 0.0
O1080 O 0.59403 0.86489 0.44505 0.0
H1081 H 0.70373 0.88961 0.4807 0.0
H1082 H 0.69925 0.85403 0.49468 0.0
C1083 C 0.67972 0.86272 0.48757 0.0
H1084 H 0.6609 0.8763 0.49313 0.0
H1085 H 0.694 0.93088 0.45201 0.0
O1086 O 0.49892 0.69819 0.45666 0.0
C1087 C 0.5752 0.83568 0.43576 0.0
Co1088 Co 0.23489 0.75346 0.46143 0.0
Co1089 Co 0.13431 0.71627 0.47114 0.0
C1090 C 0.17829 0.66664 0.47829 0.0
O1091 O 0.21169 0.69515 0.47127 0.0
O1092 O 0.14477 0.67224 0.4809 0.0
C1093 C 0.32357 0.78801 0.47153 0.0
O1094 O 0.30092 0.78195 0.48268 0.0
C1095 C 0.04819 0.68997 0.48519 0.0
C1096 C 0.0181 0.72001 0.47195 0.0
C1097 C 0.01125 0.69634 0.48372 0.0
N1098 N 0.07613 0.70942 0.47476 0.0
N1099 N 0.05786 0.72718 0.46688 0.0
C1100 C 0.0566 0.66561 0.49625 0.0
H1101 H 0.04757 0.6311 0.49277 0.0
H1102 H 0.09315 0.68374 0.49895 0.0
H1103 H 0.03568 0.66235 0.50513 0.0
C1104 C 0.24563 0.83677 0.47448 0.0
N1105 N 0.21993 0.7936 0.47023 0.0
N1106 N 0.17916 0.77649 0.47547 0.0
C1107 C 0.17863 0.8074 0.4838 0.0
C1108 C 0.22084 0.84644 0.48346 0.0
C1109 C 0.29297 0.86879 0.47003 0.0
H1110 H 0.29694 0.86095 0.45958 0.0
H1111 H 0.3174 0.86544 0.47657 0.0
H1112 H 0.30034 0.90447 0.47071 0.0
O1113 O 0.20497 0.73368 0.44394 0.0
O1114 O 0.13419 0.70013 0.45186 0.0
H1115 H 0.11151 0.7961 0.48631 0.0
H1116 H 0.14927 0.82667 0.4999 0.0
C1117 C 0.13961 0.7988 0.49259 0.0
H1118 H 0.1273 0.76623 0.49795 0.0
H1119 H 0.0729 0.74477 0.4581 0.0
O1120 O 0.30228 0.7794 0.4605 0.0
C1121 C 0.16221 0.7085 0.44234 0.0
Co1122 Co 0.13256 0.56141 0.3728 0.0
Co1123 Co 0.07411 0.60666 0.36482 0.0
C1124 C 0.17201 0.65411 0.35965 0.0
O1125 O 0.1721 0.6191 0.36399 0.0
O1126 O 0.13527 0.65546 0.35864 0.0
C1127 C 0.18467 0.52975 0.3607 0.0
O1128 O 0.16729 0.5396 0.35039 0.0
C1129 C 0.02092 0.63971 0.34993 0.0
C1130 C 0.96184 0.61747 0.36332 0.0
C1131 C 0.97979 0.63854 0.35128 0.0
N1132 N 0.02703 0.6198 0.36069 0.0
N1133 N 0.99164 0.60678 0.36867 0.0
C1134 C 0.05342 0.65899 0.33853 0.0
H1135 H 0.0778 0.64627 0.33863 0.0
H1136 H 0.03453 0.65013 0.32895 0.0
H1137 H 0.07258 0.69659 0.33938 0.0
C1138 C 0.05958 0.48477 0.3581 0.0
N1139 N 0.07821 0.52688 0.36325 0.0
N1140 N 0.05706 0.54728 0.35844 0.0
C1141 C 0.02551 0.51913 0.34959 0.0
C1142 C 0.02645 0.47882 0.34907 0.0
C1143 C 0.07357 0.45076 0.36147 0.0
H1144 H 0.08843 0.4575 0.37161 0.0
H1145 H 0.09874 0.45282 0.35405 0.0
H1146 H 0.04383 0.41582 0.36103 0.0
O1147 O 0.1241 0.58217 0.39055 0.0
O1148 O 0.0807 0.61133 0.38457 0.0
H1149 H 0.97432 0.53753 0.34803 0.0
H1150 H 0.97474 0.50325 0.33434 0.0
C1151 C 0.9964 0.53106 0.34134 0.0
H1152 H 0.01824 0.56247 0.33562 0.0
H1153 H 0.98752 0.58993 0.3777 0.0
O1154 O 0.17174 0.53295 0.37239 0.0
C1155 C 0.10366 0.60418 0.39331 0.0
Co1156 Co 0.42542 0.56639 0.37456 0.0
Co1157 Co 0.39208 0.46664 0.36466 0.0
C1158 C 0.34011 0.50726 0.35724 0.0
O1159 O 0.36783 0.54063 0.36437 0.0
O1160 O 0.34651 0.4742 0.35461 0.0
C1161 C 0.45664 0.65016 0.36245 0.0
O1162 O 0.45024 0.62334 0.35225 0.0
C1163 C 0.36773 0.37911 0.35193 0.0
C1164 C 0.4063 0.35636 0.36441 0.0
C1165 C 0.37834 0.34496 0.35338 0.0
N1166 N 0.38871 0.40972 0.36166 0.0
N1167 N 0.4115 0.3958 0.36912 0.0
C1168 C 0.33904 0.38322 0.34133 0.0
H1169 H 0.30816 0.38051 0.346 0.0
H1170 H 0.358 0.41721 0.3366 0.0
H1171 H 0.32882 0.35634 0.33365 0.0
C1172 C 0.51135 0.57965 0.36288 0.0
N1173 N 0.46765 0.55287 0.3665 0.0
N1174 N 0.452 0.51295 0.36085 0.0
C1175 C 0.48448 0.51404 0.35286 0.0
C1176 C 0.52309 0.55647 0.35389 0.0
C1177 C 0.54145 0.62709 0.36757 0.0
H1178 H 0.53059 0.63108 0.37765 0.0
H1179 H 0.53956 0.65108 0.36047 0.0
H1180 H 0.57734 0.63499 0.36792 0.0
O1181 O 0.40364 0.53666 0.39206 0.0
O1182 O 0.3736 0.46688 0.38353 0.0
H1183 H 0.4797 0.44989 0.34955 0.0
H1184 H 0.50404 0.48883 0.3358 0.0
C1185 C 0.47763 0.47647 0.34369 0.0
H1186 H 0.44343 0.46102 0.33909 0.0
H1187 H 0.43136 0.41375 0.3773 0.0
O1188 O 0.44893 0.63336 0.37416 0.0
C1189 C 0.37858 0.4936 0.39313 0.0
Co1190 Co 0.44066 0.86476 0.37126 0.0
Co1191 Co 0.53967 0.92575 0.36059 0.0
C1192 C 0.49478 0.83176 0.35457 0.0
O1193 O 0.46307 0.82925 0.36184 0.0
O1194 O 0.52863 0.86987 0.35127 0.0
C1195 C 0.35621 0.80514 0.36013 0.0
O1196 O 0.38211 0.81431 0.34954 0.0
C1197 C 0.62355 0.98374 0.34549 0.0
C1198 C 0.65808 0.04356 0.35873 0.0
C1199 C 0.66189 0.02622 0.34665 0.0
N1200 N 0.59778 0.97622 0.3564 0.0
N1201 N 0.6186 0.01214 0.36426 0.0
C1202 C 0.61206 0.95067 0.33431 0.0
H1203 H 0.57485 0.93184 0.33256 0.0
H1204 H 0.63016 0.96824 0.32504 0.0
H1205 H 0.62258 0.92567 0.3371 0.0
C1206 C 0.42771 0.93441 0.35838 0.0
N1207 N 0.45484 0.91847 0.36242 0.0
N1208 N 0.49466 0.94164 0.35663 0.0
C1209 C 0.49345 0.97209 0.34825 0.0
C1210 C 0.45081 0.96812 0.34905 0.0
C1211 C 0.37945 0.91588 0.36264 0.0
H1212 H 0.37395 0.90054 0.37271 0.0
H1213 H 0.35664 0.88966 0.35545 0.0
H1214 H 0.37066 0.94327 0.36269 0.0
O1215 O 0.4708 0.87465 0.38873 0.0
O1216 O 0.54039 0.90952 0.37989 0.0
H1217 H 0.56091 0.02647 0.34488 0.0
H1218 H 0.52076 0.02118 0.33221 0.0
C1219 C 0.53104 0.00203 0.33897 0.0
H1220 H 0.54116 0.98111 0.33299 0.0
H1221 H 0.60568 0.01528 0.37338 0.0
O1222 O 0.3741 0.82442 0.37117 0.0
C1223 C 0.51359 0.89037 0.38972 0.0
C1224 C 0.18449 0.11623 0.1941 0.0
C1225 C 0.14154 0.11031 0.19023 0.0
C1226 C 0.12262 0.03789 0.17962 0.0
C1227 C 0.16133 0.04002 0.1855 0.0
N1228 N 0.23231 0.08289 0.19736 0.0
N1229 N 0.06703 0.0623 0.18066 0.0
C1230 C 0.19382 0.08019 0.19215 0.0
C1231 C 0.11014 0.07063 0.18313 0.0
N1232 N 0.21661 0.15639 0.19955 0.0
N1233 N 0.09755 0.00381 0.1708 0.0
H1234 H 0.05512 0.08368 0.18382 0.0
H1235 H 0.04149 0.03184 0.17669 0.0
H1236 H 0.10654 0.97954 0.16822 0.0
H1237 H 0.07119 0.00242 0.16514 0.0
H1238 H 0.25061 0.16567 0.20069 0.0
H1239 H 0.20988 0.18172 0.20243 0.0
H1240 H 0.25345 0.10751 0.20418 0.0
H1241 H 0.24301 0.0598 0.1952 0.0
C1242 C 0.9495 0.10222 0.20901 0.0
C1243 C 0.96273 0.12259 0.19627 0.0
C1244 C 0.9014 0.05357 0.18625 0.0
C1245 C 0.89496 0.03031 0.19862 0.0
N1246 N 0.92056 0.03243 0.22133 0.0
N1247 N 0.9528 0.11778 0.1725 0.0
C1248 C 0.92055 0.05465 0.20997 0.0
C1249 C 0.93882 0.09851 0.18479 0.0
N1250 N 0.96518 0.12843 0.22022 0.0
N1251 N 0.87122 0.0334 0.17604 0.0
H1252 H 0.97918 0.15115 0.17121 0.0
H1253 H 0.94005 0.09984 0.16364 0.0
H1254 H 0.84244 0.00131 0.17682 0.0
H1255 H 0.87214 0.05039 0.16731 0.0
H1256 H 0.9536 0.11584 0.22977 0.0
H1257 H 0.98578 0.1637 0.2198 0.0
H1258 H 0.94228 0.04882 0.22932 0.0
H1259 H 0.90326 0.99721 0.22227 0.0
C1260 C 0.88322 0.81443 0.20166 0.0
C1261 C 0.86994 0.83605 0.19202 0.0
C1262 C 0.94911 0.88474 0.18534 0.0
C1263 C 0.96275 0.86206 0.19459 0.0
N1264 N 0.94136 0.80004 0.21009 0.0
N1265 N 0.88748 0.88349 0.17273 0.0
C1266 C 0.92936 0.82522 0.20228 0.0
C1267 C 0.90212 0.8682 0.18314 0.0
N1268 N 0.85231 0.78576 0.21081 0.0
N1269 N 0.98092 0.9243 0.17947 0.0
H1270 H 0.85301 0.87169 0.17104 0.0
H1271 H 0.90877 0.90402 0.16514 0.0
H1272 H 0.01547 0.93975 0.18162 0.0
H1273 H 0.97275 0.94458 0.17364 0.0
H1274 H 0.86116 0.77426 0.21929 0.0
H1275 H 0.81778 0.77527 0.21035 0.0
H1276 H 0.91792 0.7692 0.2144 0.0
H1277 H 0.9748 0.80845 0.21168 0.0
C1278 C 0.04783 0.13741 0.32034 0.0
C1279 C 0.04625 0.17151 0.31272 0.0
C1280 C 0.12104 0.19357 0.30325 0.0
C1281 C 0.11891 0.15451 0.30912 0.0
N1282 N 0.07617 0.08497 0.32177 0.0
N1283 N 0.07972 0.23049 0.29599 0.0
C1284 C 0.08154 0.12557 0.31746 0.0
C1285 C 0.08279 0.19978 0.3041 0.0
N1286 N 0.01612 0.11564 0.33007 0.0
N1287 N 0.1598 0.22524 0.29704 0.0
H1288 H 0.0535 0.23789 0.29657 0.0
H1289 H 0.10185 0.24676 0.28808 0.0
H1290 H 0.18822 0.22165 0.29593 0.0
H1291 H 0.16515 0.25686 0.29399 0.0
H1292 H 0.01736 0.09296 0.3368 0.0
H1293 H 0.99105 0.12397 0.3322 0.0
H1294 H 0.04776 0.06102 0.32699 0.0
H1295 H 0.09764 0.07273 0.31899 0.0
C1296 C 0.89855 0.92257 0.3182 0.0
C1297 C 0.85462 0.88692 0.3147 0.0
C1298 C 0.8315 0.94364 0.31094 0.0
C1299 C 0.87767 0.97838 0.31102 0.0
N1300 N 0.95642 0.00098 0.31458 0.0
N1301 N 0.77887 0.86445 0.30663 0.0
C1302 C 0.91165 0.968 0.31476 0.0
C1303 C 0.82058 0.89748 0.31095 0.0
N1304 N 0.92749 0.91263 0.32488 0.0
N1305 N 0.79812 0.95471 0.31138 0.0
H1306 H 0.76857 0.83003 0.3065 0.0
H1307 H 0.75544 0.87187 0.3023 0.0
H1308 H 0.80572 0.98813 0.31279 0.0
H1309 H 0.76374 0.93062 0.31229 0.0
H1310 H 0.95905 0.93735 0.3285 0.0
H1311 H 0.9172 0.87967 0.32811 0.0
H1312 H 0.98276 0.99392 0.31572 0.0
H1313 H 0.96729 0.03483 0.31225 0.0
C1314 C 0.09206 0.9685 0.29582 0.0
C1315 C 0.12151 0.97455 0.30669 0.0
C1316 C 0.06287 0.90131 0.31568 0.0
C1317 C 0.03179 0.89967 0.30581 0.0
N1318 N 0.01453 0.94214 0.28978 0.0
N1319 N 0.13242 0.94896 0.32804 0.0
C1320 C 0.04563 0.93629 0.29685 0.0
C1321 C 0.10634 0.94148 0.31695 0.0
N1322 N 0.10839 0.99216 0.28422 0.0
N1323 N 0.05169 0.86442 0.32356 0.0
H1324 H 0.16411 0.97804 0.32928 0.0
H1325 H 0.12099 0.9282 0.33645 0.0
H1326 H 0.0206 0.83442 0.32295 0.0
H1327 H 0.07476 0.86224 0.32992 0.0
H1328 H 0.08816 0.98572 0.27577 0.0
H1329 H 0.14283 0.01359 0.28245 0.0
H1330 H 0.02374 0.97088 0.28394 0.0
H1331 H 0.97952 0.92191 0.29112 0.0
C1332 C 0.87566 0.96644 0.81741 0.0
C1333 C 0.83986 0.96489 0.80986 0.0
C1334 C 0.8304 0.89725 0.79804 0.0
C1335 C 0.86963 0.90186 0.80463 0.0
N1336 N 0.9351 0.94712 0.81849 0.0
N1337 N 0.78425 0.93087 0.79233 0.0
C1338 C 0.89349 0.93791 0.81387 0.0
C1339 C 0.81694 0.93031 0.80016 0.0
N1340 N 0.89298 0.99597 0.82788 0.0
N1341 N 0.80566 0.86122 0.78978 0.0
H1342 H 0.77168 0.95284 0.79396 0.0
H1343 H 0.77107 0.91122 0.78378 0.0
H1344 H 0.81678 0.83936 0.78665 0.0
H1345 H 0.77322 0.85198 0.78637 0.0
H1346 H 0.91649 0.99628 0.8346 0.0
H1347 H 0.88015 0.0171 0.83057 0.0
H1348 H 0.95607 0.97545 0.82427 0.0
H1349 H 0.95107 0.92941 0.81529 0.0
C1350 C 0.11846 0.93282 0.80319 0.0
C1351 C 0.11337 0.96947 0.80798 0.0
C1352 C 0.04215 0.91524 0.81908 0.0
C1353 C 0.04473 0.87916 0.81304 0.0
N1354 N 0.09176 0.85183 0.80361 0.0
N1355 N 0.06761 0.99564 0.81922 0.0
C1356 C 0.08504 0.88738 0.80646 0.0
C1357 C 0.07495 0.96078 0.81586 0.0
N1358 N 0.15405 0.94122 0.79504 0.0
N1359 N 0.00792 0.90525 0.82796 0.0
H1360 H 0.08878 0.02919 0.81624 0.0
H1361 H 0.03826 0.99101 0.82389 0.0
H1362 H 0.98389 0.87173 0.83034 0.0
H1363 H 0.00589 0.92943 0.83383 0.0
H1364 H 0.15682 0.91616 0.78988 0.0
H1365 H 0.1796 0.97374 0.79258 0.0
H1366 H 0.12194 0.85551 0.79985 0.0
H1367 H 0.06899 0.81852 0.80638 0.0
C1368 C 0.0974 0.16488 0.81804 0.0
C1369 C 0.11353 0.15001 0.80722 0.0
C1370 C 0.03769 0.11207 0.79736 0.0
C1371 C 0.02278 0.13195 0.80698 0.0
N1372 N 0.04014 0.18224 0.82588 0.0
N1373 N 0.10119 0.12324 0.7843 0.0
C1374 C 0.05306 0.1598 0.81722 0.0
C1375 C 0.08437 0.12787 0.79619 0.0
N1376 N 0.12348 0.18229 0.82919 0.0
N1377 N 0.00733 0.07649 0.78969 0.0
H1378 H 0.1357 0.13713 0.7825 0.0
H1379 H 0.0812 0.11073 0.77575 0.0
H1380 H 0.97221 0.06098 0.79094 0.0
H1381 H 0.01723 0.05874 0.78332 0.0
H1382 H 0.11161 0.18939 0.83792 0.0
H1383 H 0.15587 0.1863 0.83006 0.0
H1384 H 0.06239 0.20652 0.83261 0.0
H1385 H 0.0081 0.17921 0.82566 0.0
C1386 C 0.9606 0.87149 0.70305 0.0
C1387 C 0.96804 0.85213 0.69141 0.0
C1388 C 0.90047 0.84846 0.68133 0.0
C1389 C 0.89774 0.87385 0.69228 0.0
N1390 N 0.93577 0.9219 0.71125 0.0
N1391 N 0.94794 0.82691 0.66872 0.0
C1392 C 0.93073 0.88884 0.7025 0.0
C1393 C 0.93861 0.84161 0.68032 0.0
N1394 N 0.98136 0.87266 0.71482 0.0
N1395 N 0.8664 0.82996 0.6721 0.0
H1396 H 0.97536 0.8214 0.66771 0.0
H1397 H 0.93058 0.82347 0.65985 0.0
H1398 H 0.83826 0.83444 0.67233 0.0
H1399 H 0.86429 0.8072 0.6648 0.0
H1400 H 0.97339 0.88263 0.72378 0.0
H1401 H 0.00241 0.85887 0.71598 0.0
H1402 H 0.9625 0.93673 0.71806 0.0
H1403 H 0.91723 0.93872 0.7106 0.0
C1404 C 0.16396 0.06213 0.68132 0.0
C1405 C 0.13761 0.03083 0.69155 0.0
C1406 C 0.12826 0.08945 0.70239 0.0
C1407 C 0.14887 0.11914 0.69135 0.0
N1408 N 0.18178 0.1315 0.66941 0.0
N1409 N 0.08164 0.01156 0.70898 0.0
C1410 C 0.16571 0.105 0.68054 0.0
C1411 C 0.11594 0.0435 0.70126 0.0
N1412 N 0.18801 0.0515 0.67257 0.0
N1413 N 0.1218 0.10518 0.71424 0.0
H1414 H 0.06843 0.97669 0.7078 0.0
H1415 H 0.06239 0.01954 0.71536 0.0
H1416 H 0.13303 0.13928 0.71599 0.0
H1417 H 0.1106 0.08517 0.72281 0.0
H1418 H 0.21138 0.07471 0.66583 0.0
H1419 H 0.18727 0.02049 0.67273 0.0
H1420 H 0.19017 0.12085 0.66067 0.0
H1421 H 0.18331 0.16283 0.66856 0.0
C1422 C 0.88041 0.07727 0.69902 0.0
C1423 C 0.86993 0.04092 0.69008 0.0
C1424 C 0.95045 0.07411 0.68455 0.0
C1425 C 0.96101 0.11197 0.69292 0.0
N1426 N 0.93432 0.15382 0.70594 0.0
N1427 N 0.89255 0.01047 0.67198 0.0
C1428 C 0.92545 0.11492 0.69946 0.0
C1429 C 0.90428 0.04162 0.68198 0.0
N1430 N 0.84827 0.07462 0.70776 0.0
N1431 N 0.98426 0.06703 0.6799 0.0
H1432 H 0.85873 0.98642 0.66995 0.0
H1433 H 0.91563 0.01154 0.66495 0.0
H1434 H 0.01842 0.08785 0.68233 0.0
H1435 H 0.978 0.03762 0.67488 0.0
H1436 H 0.85574 0.0969 0.71573 0.0
H1437 H 0.81453 0.04847 0.70764 0.0
H1438 H 0.90897 0.15983 0.70948 0.0
H1439 H 0.96681 0.18165 0.70685 0.0
C1440 C 0.7869 0.40177 0.51861 0.0
C1441 C 0.81072 0.43737 0.528 0.0
C1442 C 0.85653 0.40277 0.53443 0.0
C1443 C 0.83431 0.36897 0.5245 0.0
N1444 N 0.7868 0.3425 0.5051 0.0
N1445 N 0.87422 0.47611 0.54313 0.0
C1446 C 0.80258 0.37095 0.51584 0.0
C1447 C 0.84744 0.43927 0.53537 0.0
N1448 N 0.74714 0.39499 0.51313 0.0
N1449 N 0.88412 0.39852 0.54354 0.0
H1450 H 0.86782 0.50261 0.54462 0.0
H1451 H 0.90472 0.48195 0.54733 0.0
H1452 H 0.89307 0.37336 0.54299 0.0
H1453 H 0.89596 0.41828 0.55213 0.0
H1454 H 0.72622 0.36702 0.50722 0.0
H1455 H 0.73214 0.41419 0.51574 0.0
H1456 H 0.76653 0.34485 0.49771 0.0
H1457 H 0.79795 0.31958 0.50295 0.0
C1458 C 0.60081 0.37131 0.5156 0.0
C1459 C 0.56212 0.3617 0.52347 0.0
C1460 C 0.59638 0.44283 0.5288 0.0
C1461 C 0.63392 0.45228 0.52047 0.0
N1462 N 0.66673 0.42808 0.50348 0.0
N1463 N 0.51932 0.38991 0.53536 0.0
C1464 C 0.63413 0.41723 0.51299 0.0
C1465 C 0.55871 0.39795 0.52937 0.0
N1466 N 0.60771 0.33684 0.51149 0.0
N1467 N 0.59781 0.47594 0.5369 0.0
H1468 H 0.49164 0.3576 0.53662 0.0
H1469 H 0.51281 0.41561 0.53821 0.0
H1470 H 0.62368 0.50974 0.53661 0.0
H1471 H 0.57478 0.46933 0.54461 0.0
H1472 H 0.63749 0.34232 0.50687 0.0
H1473 H 0.58607 0.30285 0.51395 0.0
H1474 H 0.66651 0.4045 0.49679 0.0
H1475 H 0.69152 0.46168 0.50149 0.0
C1476 C 0.61528 0.18715 0.51418 0.0
C1477 C 0.63533 0.1954 0.52711 0.0
C1478 C 0.55976 0.16357 0.53692 0.0
C1479 C 0.54217 0.16594 0.52437 0.0
N1480 N 0.55253 0.18053 0.50086 0.0
N1481 N 0.62584 0.19786 0.55102 0.0
C1482 C 0.56961 0.17746 0.51288 0.0
C1483 C 0.60735 0.18457 0.5386 0.0
N1484 N 0.63921 0.18719 0.50323 0.0
N1485 N 0.53089 0.14265 0.54735 0.0
H1486 H 0.66058 0.21737 0.55282 0.0
H1487 H 0.6064 0.19419 0.55945 0.0
H1488 H 0.49567 0.12667 0.54629 0.0
H1489 H 0.54164 0.13678 0.55649 0.0
H1490 H 0.62488 0.17793 0.49376 0.0
H1491 H 0.67175 0.19144 0.50385 0.0
H1492 H 0.57256 0.19394 0.49237 0.0
H1493 H 0.51854 0.17162 0.49965 0.0
C1494 C 0.73864 0.51979 0.62998 0.0
C1495 C 0.70538 0.49771 0.64005 0.0
C1496 C 0.7378 0.44976 0.64556 0.0
C1497 C 0.77272 0.47318 0.63595 0.0
N1498 N 0.81071 0.53614 0.6206 0.0
N1499 N 0.67949 0.45017 0.65944 0.0
C1500 C 0.77455 0.51001 0.62867 0.0
C1501 C 0.70747 0.46581 0.64859 0.0
N1502 N 0.73427 0.54781 0.62106 0.0
N1503 N 0.73112 0.40998 0.65101 0.0
H1504 H 0.65691 0.46161 0.66174 0.0
H1505 H 0.68193 0.42973 0.66675 0.0
H1506 H 0.74992 0.39473 0.64822 0.0
H1507 H 0.70358 0.38931 0.6571 0.0
H1508 H 0.75334 0.55946 0.61234 0.0
H1509 H 0.7097 0.55747 0.62192 0.0
H1510 H 0.8168 0.56686 0.6165 0.0
H1511 H 0.83633 0.52881 0.61865 0.0
C1512 C 0.51253 0.23167 0.64946 0.0
C1513 C 0.50255 0.2053 0.63778 0.0
C1514 C 0.52271 0.27181 0.62395 0.0
C1515 C 0.53203 0.29872 0.63562 0.0
N1516 N 0.52094 0.30033 0.65943 0.0
N1517 N 0.48236 0.19617 0.61454 0.0
C1518 C 0.52228 0.27744 0.6484 0.0
C1519 C 0.5018 0.22407 0.62526 0.0
N1520 N 0.51413 0.21353 0.66144 0.0
N1521 N 0.53728 0.2915 0.61171 0.0
H1522 H 0.46654 0.16087 0.61532 0.0
H1523 H 0.47746 0.20771 0.60541 0.0
H1524 H 0.55659 0.32642 0.6102 0.0
H1525 H 0.53484 0.27293 0.60319 0.0
H1526 H 0.52644 0.23278 0.67011 0.0
H1527 H 0.5052 0.17947 0.66247 0.0
H1528 H 0.51052 0.28512 0.66875 0.0
H1529 H 0.52525 0.33291 0.65897 0.0
C1530 C 0.73404 0.22156 0.63419 0.0
C1531 C 0.69734 0.22458 0.63991 0.0
C1532 C 0.75204 0.29628 0.65071 0.0
C1533 C 0.78759 0.29656 0.64337 0.0
N1534 N 0.81242 0.26127 0.62702 0.0
N1535 N 0.67153 0.26958 0.6518 0.0
C1536 C 0.77878 0.25936 0.63498 0.0
C1537 C 0.70632 0.26294 0.64786 0.0
N1538 N 0.72657 0.1824 0.62817 0.0
N1539 N 0.76223 0.32847 0.66031 0.0
H1540 H 0.63772 0.248 0.64914 0.0
H1541 H 0.67665 0.29916 0.65647 0.0
H1542 H 0.79569 0.35327 0.66246 0.0
H1543 H 0.73822 0.32787 0.66689 0.0
H1544 H 0.75257 0.17623 0.62542 0.0
H1545 H 0.69443 0.15455 0.62683 0.0
H1546 H 0.80631 0.2386 0.61925 0.0
H1547 H 0.84618 0.28714 0.62753 0.0
C1548 C 0.54424 0.26082 0.14698 0.0
C1549 C 0.52954 0.23649 0.13477 0.0
C1550 C 0.47775 0.26617 0.13139 0.0
C1551 C 0.50054 0.29814 0.14174 0.0
N1552 N 0.55187 0.32407 0.16028 0.0
N1553 N 0.47996 0.21307 0.11563 0.0
C1554 C 0.53216 0.2943 0.14997 0.0
C1555 C 0.4947 0.23737 0.12721 0.0
N1556 N 0.56895 0.25115 0.15579 0.0
N1557 N 0.44109 0.26477 0.12529 0.0
H1558 H 0.49225 0.19244 0.11208 0.0
H1559 H 0.45724 0.21494 0.10908 0.0
H1560 H 0.42812 0.28552 0.12816 0.0
H1561 H 0.42081 0.24043 0.1183 0.0
H1562 H 0.57782 0.26519 0.16529 0.0
H1563 H 0.57677 0.22552 0.1541 0.0
H1564 H 0.57912 0.32694 0.1658 0.0
H1565 H 0.54154 0.34723 0.16296 0.0
C1566 C 0.73344 0.28805 0.13047 0.0
C1567 C 0.76587 0.30496 0.14085 0.0
C1568 C 0.72546 0.23018 0.1519 0.0
C1569 C 0.69629 0.21291 0.14074 0.0
N1570 N 0.68364 0.22256 0.11753 0.0
N1571 N 0.7973 0.28996 0.16059 0.0
C1572 C 0.70415 0.24095 0.12941 0.0
C1573 C 0.76332 0.27543 0.15137 0.0
N1574 N 0.72806 0.31688 0.12213 0.0
N1575 N 0.71627 0.20411 0.16308 0.0
H1576 H 0.82552 0.32253 0.16055 0.0
H1577 H 0.79934 0.26855 0.16764 0.0
H1578 H 0.68947 0.17065 0.16354 0.0
H1579 H 0.73336 0.21654 0.17207 0.0
H1580 H 0.70176 0.30548 0.11519 0.0
H1581 H 0.74565 0.35209 0.12328 0.0
H1582 H 0.69157 0.24134 0.10872 0.0
H1583 H 0.66285 0.18779 0.1162 0.0
C1584 C 0.70291 0.44494 0.14904 0.0
C1585 C 0.69457 0.47372 0.14063 0.0
C1586 C 0.77683 0.52257 0.13721 0.0
C1587 C 0.78482 0.49484 0.14614 0.0
N1588 N 0.75697 0.43642 0.16279 0.0
N1589 N 0.72418 0.54398 0.12828 0.0
C1590 C 0.74817 0.45846 0.15287 0.0
C1591 C 0.73171 0.51382 0.13522 0.0
N1592 N 0.66799 0.403 0.15252 0.0
N1593 N 0.81189 0.55532 0.12989 0.0
H1594 H 0.69197 0.53755 0.12568 0.0
H1595 H 0.74981 0.57659 0.12577 0.0
H1596 H 0.84575 0.56443 0.1313 0.0
H1597 H 0.80722 0.5717 0.12178 0.0
H1598 H 0.67266 0.37881 0.15754 0.0
H1599 H 0.63484 0.39023 0.1491 0.0
H1600 H 0.73189 0.41207 0.16893 0.0
H1601 H 0.79009 0.44603 0.16571 0.0
C1602 C 0.63024 0.20889 0.01098 0.0
C1603 C 0.62554 0.16868 0.01658 0.0
C1604 C 0.55357 0.15181 0.02691 0.0
C1605 C 0.56033 0.19458 0.02245 0.0
N1606 N 0.60767 0.26618 0.01125 0.0
N1607 N 0.57417 0.0933 0.02451 0.0
C1608 C 0.59886 0.22336 0.01445 0.0
C1609 C 0.58435 0.13729 0.02282 0.0
N1610 N 0.66528 0.23295 0.00233 0.0
N1611 N 0.51924 0.12595 0.03557 0.0
H1612 H 0.59458 0.08109 0.02073 0.0
H1613 H 0.54297 0.06763 0.02801 0.0
H1614 H 0.49661 0.13549 0.03915 0.0
H1615 H 0.5158 0.0971 0.04029 0.0
H1616 H 0.66957 0.26089 0.99689 0.0
H1617 H 0.68796 0.22187 -0.00025 0.0
H1618 H 0.63718 0.29032 0.00651 0.0
H1619 H 0.58743 0.27949 0.01437 0.0
C1620 C 0.83408 0.43943 0.04176 0.0
C1621 C 0.83856 0.46129 0.02941 0.0
C1622 C 0.81631 0.38999 0.0179 0.0
C1623 C 0.80091 0.3664 0.03026 0.0
N1624 N 0.79068 0.36999 0.0541 0.0
N1625 N 0.83485 0.45856 0.00552 0.0
C1626 C 0.80944 0.3914 0.04231 0.0
C1627 C 0.83063 0.43708 0.01737 0.0
N1628 N 0.85173 0.46491 0.05302 0.0
N1629 N 0.8183 0.36778 0.00679 0.0
H1630 H 0.84711 0.49348 0.00494 0.0
H1631 H 0.82426 0.44145 0.99646 0.0
H1632 H 0.81025 0.33388 0.00692 0.0
H1633 H 0.83262 0.38427 0.99784 0.0
H1634 H 0.85261 0.45099 0.06219 0.0
H1635 H 0.86977 0.5004 0.05276 0.0
H1636 H 0.79248 0.38747 0.06281 0.0
H1637 H 0.76902 0.33509 0.05498 0.0
C1638 C 0.61259 0.42139 0.04167 0.0
C1639 C 0.64168 0.44082 0.03048 0.0
C1640 C 0.57715 0.39605 0.01547 0.0
C1641 C 0.54863 0.37765 0.02667 0.0
N1642 N 0.53524 0.38442 0.04988 0.0
N1643 N 0.64771 0.45763 0.00685 0.0
C1644 C 0.56511 0.39488 0.03956 0.0
C1645 C 0.62274 0.43165 0.01738 0.0
N1646 N 0.62998 0.42447 0.05416 0.0
N1647 N 0.56121 0.37851 0.00311 0.0
H1648 H 0.68029 0.48555 0.00792 0.0
H1649 H 0.63424 0.45461 0.99733 0.0
H1650 H 0.52735 0.35376 0.00147 0.0
H1651 H 0.58201 0.38684 0.99474 0.0
H1652 H 0.60992 0.40685 0.06233 0.0
H1653 H 0.66459 0.44008 0.05622 0.0
H1654 H 0.545 0.39887 0.05932 0.0
H1655 H 0.50014 0.3652 0.04851 0.0
C1656 C 0.46528 0.71259 0.87049 0.0
C1657 C 0.48205 0.7031 0.85863 0.0
C1658 C 0.4805 0.76696 0.84777 0.0
C1659 C 0.45716 0.77099 0.85905 0.0
N1660 N 0.41446 0.73616 0.87914 0.0
N1661 N 0.50068 0.71819 0.83532 0.0
C1662 C 0.44589 0.74058 0.86984 0.0
C1663 C 0.48861 0.7296 0.84706 0.0
N1664 N 0.46831 0.69543 0.88252 0.0
N1665 N 0.49596 0.79912 0.83796 0.0
H1666 H 0.50689 0.69118 0.83449 0.0
H1667 H 0.50116 0.73333 0.82625 0.0
H1668 H 0.49074 0.82682 0.83805 0.0
H1669 H 0.51719 0.80031 0.83029 0.0
H1670 H 0.46026 0.70519 0.8915 0.0
H1671 H 0.48355 0.67569 0.88372 0.0
H1672 H 0.40248 0.71119 0.88651 0.0
H1673 H 0.39599 0.75306 0.87847 0.0
C1674 C 0.2698 0.77712 0.87461 0.0
C1675 C 0.28619 0.79503 0.86176 0.0
C1676 C 0.23246 0.72153 0.85203 0.0
C1677 C 0.22422 0.7013 0.86496 0.0
N1678 N 0.24141 0.71086 0.88861 0.0
N1679 N 0.28392 0.78507 0.83806 0.0
C1680 C 0.24381 0.72939 0.87634 0.0
C1681 C 0.26732 0.76761 0.85038 0.0
N1682 N 0.28071 0.80594 0.88522 0.0
N1683 N 0.20637 0.69724 0.84143 0.0
H1684 H 0.30805 0.81926 0.83663 0.0
H1685 H 0.2754 0.76526 0.82947 0.0
H1686 H 0.17924 0.66412 0.8423 0.0
H1687 H 0.20851 0.71154 0.83209 0.0
H1688 H 0.26687 0.79521 0.89469 0.0
H1689 H 0.29975 0.84118 0.88412 0.0
H1690 H 0.25919 0.73018 0.89687 0.0
H1691 H 0.22614 0.67608 0.89036 0.0
C1692 C 0.27373 0.50594 0.85363 0.0
C1693 C 0.29958 0.52512 0.8655 0.0
C1694 C 0.23011 0.51122 0.87679 0.0
C1695 C 0.20751 0.50246 0.86435 0.0
N1696 N 0.20781 0.49245 0.84064 0.0
N1697 N 0.30213 0.55362 0.88788 0.0
C1698 C 0.22904 0.49949 0.85267 0.0
C1699 C 0.27769 0.52921 0.87705 0.0
N1700 N 0.29129 0.49288 0.84343 0.0
N1701 N 0.20604 0.50287 0.88837 0.0
H1702 H 0.33746 0.57143 0.88827 0.0
H1703 H 0.28734 0.56081 0.89593 0.0
H1704 H 0.17078 0.48856 0.88847 0.0
H1705 H 0.22034 0.50522 0.89774 0.0
H1706 H 0.27244 0.47521 0.8351 0.0
H1707 H 0.32304 0.49529 0.84392 0.0
H1708 H 0.22404 0.49529 0.83158 0.0
H1709 H 0.1747 0.48653 0.8397 0.0
C1710 C 0.37596 0.78757 0.98411 0.0
C1711 C 0.37577 0.82258 0.97659 0.0
C1712 C 0.44654 0.8376 0.96553 0.0
C1713 C 0.44325 0.79845 0.97178 0.0
N1714 N 0.39906 0.73091 0.98508 0.0
N1715 N 0.40871 0.87919 0.95923 0.0
C1716 C 0.40663 0.77224 0.98067 0.0
C1717 C 0.41085 0.84762 0.96719 0.0
N1718 N 0.34636 0.76881 0.9945 0.0
N1719 N 0.48401 0.86584 0.95818 0.0
H1720 H 0.38445 0.88911 0.96038 0.0
H1721 H 0.42929 0.89365 0.9509 0.0
H1722 H 0.50954 0.85864 0.95593 0.0
H1723 H 0.49123 0.89793 0.95498 0.0
H1724 H 0.34742 0.74595 0.0012 0.0
H1725 H 0.32358 0.7797 0.99713 0.0
H1726 H 0.37048 0.70851 0.99055 0.0
H1727 H 0.41848 0.71657 0.98204 0.0
C1728 C 0.21927 0.62239 0.98319 0.0
C1729 C 0.19381 0.63353 0.97422 0.0
C1730 C 0.14199 0.55214 0.9701 0.0
C1731 C 0.16708 0.54156 0.97931 0.0
N1732 N 0.22123 0.56481 0.99706 0.0
N1733 N 0.12645 0.60846 0.96071 0.0
C1734 C 0.20266 0.57631 0.98676 0.0
C1735 C 0.15371 0.59824 0.96819 0.0
N1736 N 0.26122 0.65532 0.98743 0.0
N1737 N 0.10894 0.51841 0.96249 0.0
H1738 H 0.13522 0.6414 0.95814 0.0
H1739 H 0.09387 0.58438 0.95764 0.0
H1740 H 0.09755 0.48405 0.96402 0.0
H1741 H 0.09431 0.52446 0.95419 0.0
H1742 H 0.28306 0.64848 0.99295 0.0
H1743 H 0.27656 0.68888 0.98415 0.0
H1744 H 0.24482 0.58842 0.00368 0.0
H1745 H 0.20933 0.53096 0.99969 0.0
C1746 C 0.42976 0.60719 0.98574 0.0
C1747 C 0.45757 0.62234 0.97432 0.0
C1748 C 0.39172 0.57985 0.95989 0.0
C1749 C 0.36322 0.56382 0.9713 0.0
N1750 N 0.35839 0.54926 0.99507 0.0
N1751 N 0.46796 0.6098 0.95135 0.0
C1752 C 0.38322 0.57338 0.98427 0.0
C1753 C 0.43936 0.60338 0.96171 0.0
N1754 N 0.44729 0.62608 0.99785 0.0
N1755 N 0.37405 0.57662 0.94743 0.0
H1756 H 0.50312 0.62709 0.95261 0.0
H1757 H 0.45676 0.59387 0.94213 0.0
H1758 H 0.33964 0.56375 0.94555 0.0
H1759 H 0.39424 0.5918 0.93908 0.0
H1760 H 0.42728 0.62005 0.00631 0.0
H1761 H 0.48175 0.64958 0.99916 0.0
H1762 H 0.37243 0.5528 0.00453 0.0
H1763 H 0.32529 0.52199 0.99427 0.0
C1764 C 0.21496 0.62477 0.48685 0.0
C1765 C 0.1762 0.62281 0.48106 0.0
C1766 C 0.15347 0.54729 0.47197 0.0
C1767 C 0.19625 0.55291 0.4759 0.0
N1768 N 0.2705 0.60028 0.48568 0.0
N1769 N 0.10563 0.58072 0.46894 0.0
C1770 C 0.22749 0.5922 0.48318 0.0
C1771 C 0.14398 0.58312 0.47416 0.0
N1772 N 0.2399 0.65836 0.49583 0.0
N1773 N 0.12165 0.50761 0.46621 0.0
H1774 H 0.09506 0.60391 0.47111 0.0
H1775 H 0.08458 0.55645 0.46204 0.0
H1776 H 0.12871 0.48281 0.46301 0.0
H1777 H 0.08763 0.49825 0.46505 0.0
H1778 H 0.26624 0.65952 0.50144 0.0
H1779 H 0.23086 0.68246 0.49858 0.0
H1780 H 0.296 0.63049 0.48978 0.0
H1781 H 0.28238 0.57895 0.48244 0.0
C1782 C 0.43314 0.60818 0.47996 0.0
C1783 C 0.44081 0.63003 0.46729 0.0
C1784 C 0.38929 0.55643 0.45718 0.0
C1785 C 0.3744 0.53742 0.47001 0.0
N1786 N 0.38084 0.54478 0.49382 0.0
N1787 N 0.41897 0.62465 0.44403 0.0
C1788 C 0.39627 0.56298 0.48149 0.0
C1789 C 0.41758 0.60403 0.45587 0.0
N1790 N 0.46163 0.62999 0.4904 0.0
N1791 N 0.37543 0.52889 0.44621 0.0
H1792 H 0.43582 0.65971 0.44271 0.0
H1793 H 0.39883 0.60703 0.43588 0.0
H1794 H 0.35513 0.49365 0.44695 0.0
H1795 H 0.38815 0.5404 0.43668 0.0
H1796 H 0.45983 0.61417 0.49945 0.0
H1797 H 0.49009 0.66231 0.48959 0.0
H1798 H 0.39189 0.56368 0.50258 0.0
H1799 H 0.35502 0.51118 0.49516 0.0
C1800 C 0.40547 0.83875 0.46438 0.0
C1801 C 0.3726 0.80155 0.47206 0.0
C1802 C 0.43379 0.79349 0.48234 0.0
C1803 C 0.46522 0.82582 0.47333 0.0
N1804 N 0.481 0.87677 0.45478 0.0
N1805 N 0.35524 0.73766 0.48642 0.0
C1806 C 0.45127 0.84834 0.46421 0.0
C1807 C 0.38672 0.77765 0.48068 0.0
N1808 N 0.39337 0.86548 0.45737 0.0
N1809 N 0.44913 0.7774 0.49236 0.0
H1810 H 0.32052 0.72262 0.48457 0.0
H1811 H 0.36377 0.71668 0.49175 0.0
H1812 H 0.48366 0.78869 0.49369 0.0
H1813 H 0.42842 0.75669 0.50001 0.0
H1814 H 0.41681 0.89633 0.45307 0.0
H1815 H 0.36009 0.85858 0.45662 0.0
H1816 H 0.47114 0.88896 0.44667 0.0
H1817 H 0.51526 0.88613 0.45457 0.0
C1818 C 0.25854 0.47465 0.36354 0.0
C1819 C 0.29531 0.50336 0.35504 0.0
C1820 C 0.26002 0.54944 0.35053 0.0
C1821 C 0.22212 0.51972 0.35858 0.0
N1822 N 0.18099 0.44824 0.37028 0.0
N1823 N 0.32543 0.55989 0.33786 0.0
C1824 C 0.22 0.48047 0.3643 0.0
C1825 C 0.29382 0.53781 0.34759 0.0
N1826 N 0.26152 0.44373 0.37158 0.0
N1827 N 0.26583 0.59054 0.34658 0.0
H1828 H 0.35059 0.55178 0.33565 0.0
H1829 H 0.32393 0.5827 0.33122 0.0
H1830 H 0.24404 0.60241 0.34936 0.0
H1831 H 0.29499 0.61516 0.34178 0.0
H1832 H 0.239 0.42691 0.37936 0.0
H1833 H 0.28807 0.4368 0.37109 0.0
H1834 H 0.17578 0.41657 0.37322 0.0
H1835 H 0.1523 0.45145 0.37127 0.0
C1836 C 0.52169 0.78036 0.36272 0.0
C1837 C 0.49593 0.7891 0.35325 0.0
C1838 C 0.44366 0.70761 0.3506 0.0
C1839 C 0.46955 0.69833 0.35992 0.0
N1840 N 0.53583 0.72583 0.37403 0.0
N1841 N 0.43993 0.76268 0.33597 0.0
C1842 C 0.50945 0.7347 0.3657 0.0
C1843 C 0.4596 0.75302 0.34639 0.0
N1844 N 0.55589 0.81572 0.36959 0.0
N1845 N 0.40201 0.67346 0.34656 0.0
H1846 H 0.45147 0.79602 0.33285 0.0
H1847 H 0.4157 0.73804 0.32971 0.0
H1848 H 0.38747 0.64038 0.35022 0.0
H1849 H 0.37969 0.67875 0.34076 0.0
H1850 H 0.57132 0.81176 0.37805 0.0
H1851 H 0.56791 0.84966 0.3672 0.0
H1852 H 0.56868 0.74996 0.37686 0.0
H1853 H 0.52547 0.69382 0.37789 0.0
C1854 C 0.27832 0.76478 0.3492 0.0
C1855 C 0.30823 0.76795 0.35967 0.0
C1856 C 0.24518 0.70479 0.37101 0.0
C1857 C 0.21686 0.69653 0.3597 0.0
N1858 N 0.20795 0.71623 0.3373 0.0
N1859 N 0.32162 0.73055 0.37821 0.0
C1860 C 0.23369 0.72599 0.34857 0.0
C1861 C 0.29214 0.73508 0.36993 0.0
N1862 N 0.29182 0.79912 0.34013 0.0
N1863 N 0.22725 0.68446 0.38296 0.0
H1864 H 0.35682 0.74915 0.37708 0.0
H1865 H 0.31089 0.7041 0.38508 0.0
H1866 H 0.19255 0.66357 0.38448 0.0
H1867 H 0.24639 0.69282 0.3917 0.0
H1868 H 0.26991 0.80058 0.33315 0.0
H1869 H 0.32383 0.82817 0.3403 0.0
H1870 H 0.22035 0.73379 0.32837 0.0
H1871 H 0.17517 0.68835 0.33661 0.0
C1872 C 0.25636 0.31069 0.15041 0.0
C1873 C 0.29356 0.35532 0.15208 0.0
C1874 C 0.25553 0.3677 0.17107 0.0
C1875 C 0.218 0.32341 0.1692 0.0
N1876 N 0.17779 0.25628 0.15565 0.0
N1877 N 0.32615 0.42933 0.16227 0.0
C1878 C 0.21692 0.29601 0.15839 0.0
C1879 C 0.29233 0.38484 0.16188 0.0
N1880 N 0.25935 0.28187 0.14148 0.0
N1881 N 0.2567 0.39255 0.18194 0.0
H1882 H 0.35403 0.44271 0.15586 0.0
H1883 H 0.32509 0.45382 0.16825 0.0
H1884 H 0.2296 0.38157 0.18859 0.0
H1885 H 0.28525 0.42278 0.18481 0.0
H1886 H 0.23578 0.2473 0.14091 0.0
H1887 H 0.28717 0.29179 0.13518 0.0
H1888 H 0.1732 0.23686 0.14715 0.0
H1889 H 0.1482 0.24463 0.16127 0.0
C1890 C 0.70856 0.93612 0.16506 0.0
C1891 C 0.67945 0.90768 0.17531 0.0
C1892 C 0.61912 0.92189 0.16773 0.0
C1893 C 0.64958 0.95321 0.15821 0.0
N1894 N 0.72497 0.99557 0.14895 0.0
N1895 N 0.60936 0.87714 0.18761 0.0
C1896 C 0.69485 0.96194 0.15721 0.0
C1897 C 0.63526 0.90143 0.17697 0.0
N1898 N 0.74869 0.93723 0.16254 0.0
N1899 N 0.57458 0.91109 0.16776 0.0
H1900 H 0.61972 0.86078 0.19437 0.0
H1901 H 0.57901 0.87559 0.19028 0.0
H1902 H 0.56192 0.92649 0.16144 0.0
H1903 H 0.54947 0.88486 0.17341 0.0
H1904 H 0.76926 0.95364 0.15436 0.0
H1905 H 0.75969 0.91834 0.16797 0.0
H1906 H 0.75972 0.00715 0.14891 0.0
H1907 H 0.71589 0.01462 0.14285 0.0
C1908 C 0.07277 0.77857 0.16557 0.0
C1909 C 0.09458 0.77614 0.17736 0.0
C1910 C 0.06979 0.69625 0.17294 0.0
C1911 C 0.04946 0.69916 0.1609 0.0
N1912 N 0.03613 0.7435 0.14467 0.0
N1913 N 0.12029 0.7362 0.19145 0.0
C1914 C 0.05232 0.7405 0.15689 0.0
C1915 C 0.09504 0.73597 0.1808 0.0
N1916 N 0.07059 0.81692 0.16286 0.0
N1917 N 0.06399 0.65524 0.17699 0.0
H1918 H 0.13862 0.76469 0.19748 0.0
H1919 H 0.12595 0.70958 0.19375 0.0
H1920 H 0.04689 0.62577 0.17129 0.0
H1921 H 0.07348 0.64955 0.18633 0.0
H1922 H 0.05017 0.81881 0.15545 0.0
H1923 H 0.0874 0.8466 0.16849 0.0
H1924 H 0.04194 0.77391 0.14043 0.0
H1925 H 0.01913 0.71581 0.13827 0.0
C1926 C 0.38908 0.30788 0.3332 0.0
C1927 C 0.36385 0.30457 0.34485 0.0
C1928 C 0.30744 0.22598 0.33934 0.0
C1929 C 0.33298 0.22914 0.32778 0.0
N1930 N 0.40135 0.26871 0.3148 0.0
N1931 N 0.30385 0.25935 0.36036 0.0
C1932 C 0.37495 0.26879 0.32507 0.0
C1933 C 0.32453 0.26316 0.34835 0.0
N1934 N 0.42572 0.34875 0.32974 0.0
N1935 N 0.26604 0.18801 0.34143 0.0
H1936 H 0.31444 0.28637 0.36701 0.0
H1937 H 0.27819 0.22876 0.36421 0.0
H1938 H 0.25341 0.15903 0.33549 0.0
H1939 H 0.24298 0.18583 0.34863 0.0
H1940 H 0.44251 0.35493 0.32065 0.0
H1941 H 0.43797 0.37765 0.3357 0.0
H1942 H 0.43432 0.2949 0.31299 0.0
H1943 H 0.39156 0.24056 0.30864 0.0
C1944 C 0.70105 0.07757 0.3272 0.0
C1945 C 0.70083 0.04841 0.33737 0.0
C1946 C 0.77804 0.0671 0.33137 0.0
C1947 C 0.77711 0.09367 0.32057 0.0
N1948 N 0.73691 0.12071 0.30711 0.0
N1949 N 0.73526 0.00925 0.3479 0.0
C1950 C 0.73836 0.09801 0.31818 0.0
C1951 C 0.73821 0.04133 0.33908 0.0
N1952 N 0.66595 0.08628 0.32634 0.0
N1953 N 0.81752 0.06774 0.33455 0.0
H1954 H 0.70704 0.99043 0.35398 0.0
H1955 H 0.75911 0.99859 0.34844 0.0
H1956 H 0.84766 0.08636 0.32923 0.0
H1957 H 0.82171 0.0531 0.34315 0.0
H1958 H 0.66617 0.11091 0.32012 0.0
H1959 H 0.63741 0.07068 0.33249 0.0
H1960 H 0.70792 0.12107 0.30395 0.0
H1961 H 0.7642 0.13701 0.30052 0.0
C1962 C 0.90411 0.64107 0.32366 0.0
C1963 C 0.91215 0.68595 0.32514 0.0
C1964 C 0.96844 0.70113 0.34261 0.0
C1965 C 0.95791 0.65524 0.34186 0.0
N1966 N 0.91258 0.5797 0.33288 0.0
N1967 N 0.94563 0.75649 0.3374 0.0
C1968 C 0.9248 0.62463 0.33272 0.0
C1969 C 0.94264 0.71544 0.33499 0.0
N1970 N 0.87765 0.61466 0.31339 0.0
N1971 N 0.00354 0.73118 0.35048 0.0
H1972 H 0.92694 0.76806 0.33214 0.0
H1973 H 0.96359 0.77748 0.34536 0.0
H1974 H 0.02237 0.72166 0.35652 0.0
H1975 H 0.0164 0.76615 0.35025 0.0
H1976 H 0.87448 0.58354 0.3108 0.0
H1977 H 0.86102 0.62528 0.30681 0.0
H1978 H 0.88515 0.55466 0.32757 0.0
H1979 H 0.92817 0.56677 0.33902 0.0
C1980 C 0.77915 0.71192 0.83285 0.0
C1981 C 0.77815 0.68661 0.82145 0.0
C1982 C 0.69731 0.63261 0.82516 0.0
C1983 C 0.69899 0.65639 0.83697 0.0
N1984 N 0.74151 0.71557 0.85298 0.0
N1985 N 0.73912 0.62051 0.8075 0.0
C1986 C 0.73993 0.69526 0.84106 0.0
C1987 C 0.73798 0.6462 0.81782 0.0
N1988 N 0.81737 0.75244 0.83565 0.0
N1989 N 0.65657 0.59761 0.82086 0.0
H1990 H 0.7683 0.62996 0.80185 0.0
H1991 H 0.71245 0.58837 0.8051 0.0
H1992 H 0.62631 0.58645 0.82609 0.0
H1993 H 0.65188 0.5817 0.81166 0.0
H1994 H 0.81851 0.77548 0.84269 0.0
H1995 H 0.8478 0.76447 0.83044 0.0
H1996 H 0.77142 0.74039 0.85739 0.0
H1997 H 0.71294 0.70583 0.85894 0.0
C1998 C 0.29471 0.07986 0.83793 0.0
C1999 C 0.32243 0.10558 0.82705 0.0
C2000 C 0.38097 0.08739 0.83354 0.0
C2001 C 0.35351 0.06205 0.8445 0.0
N2002 N 0.28808 0.03945 0.85852 0.0
N2003 N 0.39424 0.14079 0.81562 0.0
C2004 C 0.31147 0.05988 0.84711 0.0
C2005 C 0.36637 0.11154 0.82522 0.0
N2006 N 0.25192 0.07371 0.83927 0.0
N2007 N 0.42037 0.08725 0.8309 0.0
H2008 H 0.38416 0.15845 0.80927 0.0
H2009 H 0.42833 0.15035 0.81455 0.0
H2010 H 0.43296 0.07149 0.83708 0.0
H2011 H 0.43937 0.10042 0.82224 0.0
H2012 H 0.22764 0.05054 0.84582 0.0
H2013 H 0.23964 0.09048 0.83337 0.0
H2014 H 0.25983 0.04095 0.86182 0.0
H2015 H 0.29867 0.02328 0.86528 0.0
C2016 C 0.92386 0.22167 0.83716 0.0
C2017 C 0.89784 0.2236 0.82635 0.0
C2018 C 0.91939 0.30185 0.83229 0.0
C2019 C 0.94405 0.2994 0.84338 0.0
N2020 N 0.96573 0.25608 0.85752 0.0
N2021 N 0.86492 0.26184 0.81459 0.0
C2022 C 0.94515 0.25901 0.84614 0.0
C2023 C 0.89382 0.26265 0.82421 0.0
N2024 N 0.92893 0.18442 0.83867 0.0
N2025 N 0.92142 0.34208 0.8293 0.0
H2026 H 0.84631 0.23388 0.80839 0.0
H2027 H 0.85663 0.28723 0.81335 0.0
H2028 H 0.93881 0.37105 0.83518 0.0
H2029 H 0.90857 0.34788 0.82057 0.0
H2030 H 0.95209 0.1831 0.84517 0.0
H2031 H 0.91144 0.15513 0.8329 0.0
H2032 H 0.96333 0.2261 0.86099 0.0
H2033 H 0.98323 0.28331 0.86404 0.0
C2034 C 0.69026 0.73818 0.65419 0.0
C2035 C 0.6459 0.70056 0.65591 0.0
C2036 C 0.63362 0.73778 0.67515 0.0
C2037 C 0.67697 0.77642 0.67294 0.0
N2038 N 0.74326 0.81739 0.65904 0.0
N2039 N 0.57279 0.66596 0.66673 0.0
C2040 C 0.70437 0.77776 0.66207 0.0
C2041 C 0.61675 0.7008 0.66601 0.0
N2042 N 0.71928 0.73564 0.64525 0.0
N2043 N 0.60933 0.73588 0.68624 0.0
H2044 H 0.55977 0.63765 0.66049 0.0
H2045 H 0.54831 0.66633 0.67288 0.0
H2046 H 0.62017 0.76286 0.69293 0.0
H2047 H 0.57993 0.70675 0.6893 0.0
H2048 H 0.75372 0.75965 0.64464 0.0
H2049 H 0.70982 0.70763 0.63906 0.0
H2050 H 0.76234 0.82198 0.65047 0.0
H2051 H 0.7545 0.84726 0.6645 0.0
C2052 C 0.25697 0.88949 0.66939 0.0
C2053 C 0.22121 0.89927 0.66818 0.0
C2054 C 0.25847 0.94796 0.64881 0.0
C2055 C 0.29625 0.94169 0.65084 0.0
N2056 N 0.33385 0.90937 0.66334 0.0
N2057 N 0.18704 0.93798 0.65718 0.0
C2058 C 0.29604 0.91296 0.66116 0.0
C2059 C 0.2216 0.92841 0.65796 0.0
N2060 N 0.25326 0.85744 0.67834 0.0
N2061 N 0.25752 0.97179 0.63794 0.0
H2062 H 0.15776 0.92167 0.66301 0.0
H2063 H 0.18797 0.96346 0.65121 0.0
H2064 H 0.28439 0.9874 0.63119 0.0
H2065 H 0.22915 0.97371 0.63501 0.0
H2066 H 0.27573 0.84507 0.67881 0.0
H2067 H 0.22559 0.84051 0.68475 0.0
H2068 H 0.33826 0.89355 0.67162 0.0
H2069 H 0.36237 0.92466 0.65721 0.0
C2070 C 0.07321 0.299 0.66159 0.0
C2071 C 0.09792 0.32637 0.67262 0.0
C2072 C 0.0804 0.3851 0.6657 0.0
C2073 C 0.05197 0.35567 0.6555 0.0
N2074 N 0.01687 0.28297 0.64444 0.0
N2075 N 0.12304 0.39355 0.68598 0.0
C2076 C 0.04726 0.31219 0.6536 0.0
C2077 C 0.10122 0.36908 0.67486 0.0
N2078 N 0.07526 0.26076 0.65862 0.0
N2079 N 0.08792 0.42851 0.66649 0.0
H2080 H 0.14008 0.38351 0.69259 0.0
H2081 H 0.12225 0.42236 0.68909 0.0
H2082 H 0.07227 0.44091 0.66016 0.0
H2083 H 0.11188 0.45325 0.67278 0.0
H2084 H 0.062 0.24193 0.64994 0.0
H2085 H 0.0937 0.24979 0.66429 0.0
H2086 H 0.0078 0.24891 0.64367 0.0
H2087 H 0.99797 0.29176 0.63818 0.0
C2088 C 0.93517 0.69415 0.51191 0.0
C2089 C 0.89585 0.65149 0.50955 0.0
C2090 C 0.93329 0.63721 0.49081 0.0
C2091 C 0.9717 0.68092 0.49269 0.0
N2092 N 0.0081 0.75369 0.50373 0.0
N2093 N 0.85373 0.58559 0.49556 0.0
C2094 C 0.9723 0.71026 0.50286 0.0
C2095 C 0.89381 0.62392 0.49864 0.0
N2096 N 0.93739 0.71854 0.52301 0.0
N2097 N 0.93498 0.60798 0.48176 0.0
H2098 H 0.82401 0.57452 0.50107 0.0
H2099 H 0.84868 0.56673 0.48691 0.0
H2100 H 0.96285 0.61694 0.47556 0.0
H2101 H 0.91029 0.57381 0.48104 0.0
H2102 H 0.96685 0.74739 0.52618 0.0
H2103 H 0.91017 0.70832 0.52958 0.0
H2104 H 0.00854 0.7784 0.50996 0.0
H2105 H 0.03649 0.76612 0.49755 0.0
C2106 C 0.35729 0.27757 0.485 0.0
C2107 C 0.31288 0.27077 0.48661 0.0
C2108 C 0.29981 0.22075 0.50576 0.0
C2109 C 0.3437 0.22656 0.50387 0.0
N2110 N 0.41052 0.25194 0.49023 0.0
N2111 N 0.23878 0.23039 0.49685 0.0
C2112 C 0.37133 0.2524 0.49302 0.0
C2113 C 0.28309 0.24051 0.49647 0.0
N2114 N 0.38639 0.30886 0.47601 0.0
N2115 N 0.27491 0.19784 0.5167 0.0
H2116 H 0.22564 0.24501 0.49041 0.0
H2117 H 0.21413 0.20509 0.50285 0.0
H2118 H 0.28558 0.18169 0.52344 0.0
H2119 H 0.24504 0.19696 0.51957 0.0
H2120 H 0.42087 0.31944 0.47549 0.0
H2121 H 0.37679 0.32673 0.46958 0.0
H2122 H 0.42993 0.26637 0.48171 0.0
H2123 H 0.42162 0.23347 0.49583 0.0
C2124 C 0.72222 0.07053 0.4839 0.0
C2125 C 0.72703 0.03209 0.48642 0.0
C2126 C 0.77268 0.0689 0.50633 0.0
C2127 C 0.76952 0.10808 0.50345 0.0
N2128 N 0.74906 0.15014 0.48838 0.0
N2129 N 0.76178 0.99633 0.49865 0.0
C2130 C 0.74659 0.11006 0.49188 0.0
C2131 C 0.75384 0.0318 0.49723 0.0
N2132 N 0.69329 0.06872 0.47413 0.0
N2133 N 0.7922 0.06657 0.51799 0.0
H2134 H 0.74748 0.96803 0.4924 0.0
H2135 H 0.78492 0.9962 0.50542 0.0
H2136 H 0.80751 0.09362 0.52469 0.0
H2137 H 0.79091 0.03709 0.52147 0.0
H2138 H 0.68416 0.0935 0.47281 0.0
H2139 H 0.67557 0.04068 0.46789 0.0
H2140 H 0.737 0.1552 0.47938 0.0
H2141 H 0.76683 0.17985 0.49396 0.0
C2142 C 0.9577 0.55737 0.6651 0.0
C2143 C 0.98412 0.55973 0.65382 0.0
C2144 C 0.03882 0.63937 0.65874 0.0
C2145 C 0.01386 0.6363 0.67043 0.0
N2146 N 0.9525 0.5921 0.68566 0.0
N2147 N 0.05213 0.59975 0.64069 0.0
C2148 C 0.97406 0.59519 0.67386 0.0
C2149 C 0.02539 0.59986 0.65086 0.0
N2150 N 0.91648 0.51924 0.66725 0.0
N2151 N 0.07482 0.68032 0.65505 0.0
H2152 H 0.04283 0.57149 0.63462 0.0
H2153 H 0.0849 0.62624 0.63882 0.0
H2154 H 0.08609 0.70964 0.66072 0.0
H2155 H 0.09152 0.68621 0.64595 0.0
H2156 H 0.89285 0.51741 0.67419 0.0
H2157 H 0.9045 0.4897 0.6616 0.0
H2158 H 0.92675 0.56174 0.68959 0.0
H2159 H 0.96205 0.61973 0.69201 0.0
C2160 C 0.44441 0.40703 0.67099 0.0
C2161 C 0.44254 0.43016 0.65945 0.0
C2162 C 0.36442 0.41022 0.66486 0.0
C2163 C 0.36486 0.38335 0.67563 0.0
N2164 N 0.40262 0.35122 0.68813 0.0
N2165 N 0.40049 0.45092 0.6445 0.0
C2166 C 0.4042 0.38047 0.6785 0.0
C2167 C 0.40252 0.4312 0.65616 0.0
N2168 N 0.48494 0.41126 0.67487 0.0
N2169 N 0.32797 0.41643 0.66314 0.0
H2170 H 0.42831 0.468 0.63814 0.0
H2171 H 0.37069 0.44812 0.6407 0.0
H2172 H 0.29908 0.40074 0.66913 0.0
H2173 H 0.32751 0.43951 0.65641 0.0
H2174 H 0.48966 0.39905 0.68389 0.0
H2175 H 0.51512 0.43058 0.66961 0.0
H2176 H 0.42844 0.34371 0.68969 0.0
H2177 H 0.37384 0.3315 0.69392 0.0
C2178 C 0.55784 0.96262 0.6567 0.0
C2179 C 0.56101 0.00529 0.65894 0.0
C2180 C 0.60858 0.01797 0.67863 0.0
C2181 C 0.60427 0.97468 0.67667 0.0
N2182 N 0.56952 0.90246 0.66534 0.0
N2183 N 0.58109 0.06961 0.67324 0.0
C2184 C 0.57717 0.9459 0.66616 0.0
C2185 C 0.58384 0.03174 0.6703 0.0
N2186 N 0.53776 0.93896 0.64532 0.0
N2187 N 0.63745 0.04649 0.68819 0.0
H2188 H 0.5632 0.08069 0.66737 0.0
H2189 H 0.59303 0.08783 0.68208 0.0
H2190 H 0.65529 0.03718 0.69472 0.0
H2191 H 0.64632 0.08047 0.68908 0.0
H2192 H 0.53893 0.91029 0.64226 0.0
H2193 H 0.52186 0.94954 0.63846 0.0
H2194 H 0.54643 0.87818 0.65877 0.0
H2195 H 0.58397 0.88951 0.67192 0.0
C2196 C 0.36216 0.95108 0.1673 0.0
C2197 C 0.36502 0.97803 0.17846 0.0
C2198 C 0.445 0.03126 0.1735 0.0
C2199 C 0.44044 0.00747 0.16147 0.0
N2200 N 0.3951 0.9465 0.14629 0.0
N2201 N 0.40712 0.0456 0.19176 0.0
C2202 C 0.39922 0.96758 0.15824 0.0
C2203 C 0.40601 0.01848 0.18152 0.0
N2204 N 0.3243 0.90943 0.16551 0.0
N2205 N 0.48677 0.0658 0.17728 0.0
H2206 H 0.37939 0.03704 0.19798 0.0
H2207 H 0.4343 0.07808 0.19353 0.0
H2208 H 0.51602 0.07613 0.17159 0.0
H2209 H 0.49335 0.08159 0.18655 0.0
H2210 H 0.32183 0.88609 0.15837 0.0
H2211 H 0.29634 0.89659 0.17188 0.0
H2212 H 0.36443 0.9206 0.14257 0.0
H2213 H 0.42222 0.95665 0.13969 0.0
C2214 C 0.9545 0.40016 0.17232 0.0
C2215 C 0.98173 0.42846 0.16173 0.0
C2216 C 0.0419 0.41143 0.16714 0.0
C2217 C 0.01542 0.3844 0.17802 0.0
N2218 N 0.94965 0.35709 0.19218 0.0
N2219 N 0.0532 0.46686 0.1501 0.0
C2220 C 0.97252 0.37984 0.18094 0.0
C2221 C 0.02607 0.43589 0.15947 0.0
N2222 N 0.91118 0.3923 0.174 0.0
N2223 N 0.08154 0.41254 0.16393 0.0
H2224 H 0.0422 0.48444 0.14405 0.0
H2225 H 0.08756 0.4777 0.14891 0.0
H2226 H 0.09475 0.39605 0.16953 0.0
H2227 H 0.09988 0.42711 0.15525 0.0
H2228 H 0.88745 0.36763 0.18034 0.0
H2229 H 0.89786 0.40906 0.16853 0.0
H2230 H 0.92071 0.35667 0.19577 0.0
H2231 H 0.96124 0.34071 0.19852 0.0
C2232 C 0.5625 0.60058 0.15499 0.0
C2233 C 0.56343 0.56016 0.15775 0.0
C2234 C 0.60437 0.59295 0.17868 0.0
C2235 C 0.60682 0.6347 0.17536 0.0
N2236 N 0.59183 0.68037 0.16007 0.0
N2237 N 0.58734 0.5178 0.17157 0.0
C2238 C 0.58677 0.63909 0.16343 0.0
C2239 C 0.58477 0.55625 0.16946 0.0
N2240 N 0.53772 0.60173 0.14442 0.0
N2241 N 0.62017 0.58823 0.19077 0.0
H2242 H 0.57111 0.48907 0.16552 0.0
H2243 H 0.60744 0.51494 0.17889 0.0
H2244 H 0.63664 0.61491 0.19753 0.0
H2245 H 0.6146 0.55732 0.19453 0.0
H2246 H 0.53168 0.62837 0.14254 0.0
H2247 H 0.5201 0.57424 0.13798 0.0
H2248 H 0.58261 0.68743 0.15088 0.0
H2249 H 0.608 0.70883 0.16622 0.0
C2250 C 0.29007 0.03681 0.99885 0.0
C2251 C 0.3196 0.03578 0.989 0.0
C2252 C 0.37584 0.11505 0.99386 0.0
C2253 C 0.34862 0.11443 0.00467 0.0
N2254 N 0.28161 0.07477 0.01825 0.0
N2255 N 0.39223 0.07159 0.97789 0.0
C2256 C 0.306 0.07541 0.00733 0.0
C2257 C 0.36291 0.07434 0.98668 0.0
N2258 N 0.24665 0.00117 -7e-05 0.0
N2259 N 0.41371 0.1549 0.99035 0.0
H2260 H 0.38366 0.04262 0.97225 0.0
H2261 H 0.42617 0.09666 0.97689 0.0
H2262 H 0.42403 0.18542 0.99536 0.0
H2263 H 0.43261 0.15881 0.98179 0.0
H2264 H 0.22188 0.00168 0.00591 0.0
H2265 H 0.23427 0.97196 0.9941 0.0
H2266 H 0.25295 0.0457 0.02171 0.0
H2267 H 0.29153 0.10312 0.02433 0.0
C2268 C 0.8832 0.25429 0.99679 0.0
C2269 C 0.8856 0.23089 0.00819 0.0
C2270 C 0.9629 0.24963 0.00208 0.0
C2271 C 0.96206 0.27695 0.9915 0.0
N2272 N 0.92425 0.31042 0.97968 0.0
N2273 N 0.92791 0.20856 0.0225 0.0
C2274 C 0.92293 0.28061 0.98907 0.0
C2275 C 0.92545 0.22894 0.01104 0.0
N2276 N 0.8426 0.25046 0.99317 0.0
N2277 N 0.99916 0.24289 0.00339 0.0
H2278 H 0.90053 0.19179 0.02903 0.0
H2279 H 0.95767 0.21043 0.02598 0.0
H2280 H 0.02758 0.25837 0.99719 0.0
H2281 H 0.99991 0.21962 0.00998 0.0
H2282 H 0.83755 0.26286 0.98423 0.0
H2283 H 0.81263 0.23122 0.99853 0.0
H2284 H 0.89874 0.31864 0.97852 0.0
H2285 H 0.95256 0.32989 0.97368 0.0
C2286 C 0.75285 0.63201 0.996 0.0
C2287 C 0.77589 0.65803 0.0074 0.0
C2288 C 0.75464 0.71489 0.00155 0.0
C2289 C 0.72753 0.68634 0.99101 0.0
N2290 N 0.69666 0.61593 0.97881 0.0
N2291 N 0.79685 0.72217 0.0218 0.0
C2292 C 0.72562 0.64444 0.98836 0.0
C2293 C 0.7766 0.69915 0.01034 0.0
N2294 N 0.75767 0.5958 0.99242 0.0
N2295 N 0.75988 0.75727 0.00299 0.0
H2296 H 0.81477 0.71248 0.02818 0.0
H2297 H 0.79391 0.74932 0.0254 0.0
H2298 H 0.74335 0.76942 0.99694 0.0
H2299 H 0.78292 0.78162 0.00955 0.0
H2300 H 0.74545 0.57803 0.98352 0.0
H2301 H 0.77749 0.58584 0.99781 0.0
H2302 H 0.68975 0.58271 0.97743 0.0
H2303 H 0.67674 0.62424 0.97283 0.0
C2304 C 0.62468 0.04844 0.83112 0.0
C2305 C 0.6258 0.01818 0.82157 0.0
C2306 C 0.548 0.96058 0.82743 0.0
C2307 C 0.54883 0.98875 0.83799 0.0
N2308 N 0.58836 0.05776 0.85076 0.0
N2309 N 0.59114 0.94399 0.81141 0.0
C2310 C 0.58716 0.03242 0.84002 0.0
C2311 C 0.5881 0.97386 0.8199 0.0
N2312 N 0.65919 0.09261 0.83153 0.0
N2313 N 0.50847 0.92156 0.82444 0.0
H2314 H 0.61963 0.95277 0.8055 0.0
H2315 H 0.56695 0.90959 0.81093 0.0
H2316 H 0.47828 0.91106 0.82967 0.0
H2317 H 0.50432 0.90172 0.81608 0.0
H2318 H 0.65825 0.11763 0.83728 0.0
H2319 H 0.68761 0.10519 0.82535 0.0
H2320 H 0.61729 0.08747 0.85375 0.0
H2321 H 0.56091 0.0476 0.85723 0.0
C2322 C 0.023 0.61523 0.81961 0.0
C2323 C 0.9819 0.61441 0.82277 0.0
C2324 C 0.96988 0.5644 0.84185 0.0
C2325 C 0.01292 0.56862 0.83941 0.0
N2326 N 0.08215 0.59951 0.8266 0.0
N2327 N 0.91761 0.59195 0.83728 0.0
C2328 C 0.03987 0.59429 0.82842 0.0
C2329 C 0.95556 0.58981 0.83397 0.0
N2330 N 0.04542 0.63539 0.80806 0.0
N2331 N 0.94265 0.53577 0.85166 0.0
H2332 H 0.90552 0.60929 0.83155 0.0
H2333 H 0.89961 0.57914 0.84611 0.0
H2334 H 0.95259 0.51746 0.85778 0.0
H2335 H 0.90904 0.52741 0.85314 0.0
H2336 H 0.07268 0.63284 0.80436 0.0
H2337 H 0.03497 0.65247 0.80161 0.0
H2338 H 0.10605 0.62255 0.81995 0.0
H2339 H 0.09448 0.58224 0.83226 0.0
C2340 C 0.43664 0.41079 0.84006 0.0
C2341 C 0.42867 0.44762 0.83853 0.0
C2342 C 0.375 0.408 0.82034 0.0
C2343 C 0.38011 0.36963 0.82265 0.0
N2344 N 0.41142 0.33167 0.83543 0.0
N2345 N 0.38915 0.48171 0.82796 0.0
C2346 C 0.40988 0.37029 0.83268 0.0
C2347 C 0.39759 0.44641 0.82885 0.0
N2348 N 0.47024 0.41489 0.84844 0.0
N2349 N 0.34946 0.40804 0.8098 0.0
H2350 H 0.40721 0.51176 0.83337 0.0
H2351 H 0.36281 0.4806 0.82238 0.0
H2352 H 0.33123 0.37994 0.80363 0.0
H2353 H 0.3484 0.43662 0.80661 0.0
H2354 H 0.48116 0.39127 0.849 0.0
H2355 H 0.48989 0.44388 0.85417 0.0
H2356 H 0.42842 0.32818 0.84357 0.0
H2357 H 0.39278 0.30163 0.8301 0.0
C2358 C 0.697 0.92342 0.99081 0.0
C2359 C 0.65338 0.88484 0.99266 0.0
C2360 C 0.63725 0.92311 0.01076 0.0
C2361 C 0.68173 0.96081 0.00939 0.0
N2362 N 0.75636 0.99557 0.99951 0.0
N2363 N 0.58492 0.84395 0.0057 0.0
C2364 C 0.7124 0.96057 -0.00018 0.0
C2365 C 0.62434 0.88351 0.00303 0.0
N2366 N 0.72301 0.92497 0.98021 0.0
N2367 N 0.60698 0.92568 0.0192 0.0
H2368 H 0.57422 0.81417 0.00025 0.0
H2369 H 0.56464 0.83932 0.01399 0.0
H2370 H 0.61552 0.95373 0.02527 0.0
H2371 H 0.57252 0.90158 0.01949 0.0
H2372 H 0.75287 0.95399 0.97736 0.0
H2373 H 0.71329 0.8977 0.97369 0.0
H2374 H 0.78176 0.99531 0.99378 0.0
H2375 H 0.76838 0.02395 0.00569 0.0
C2376 C 0.07974 0.71414 0.0125 0.0
C2377 C 0.0428 0.72223 0.01138 0.0
C2378 C 0.07886 0.77184 0.99207 0.0
C2379 C 0.11688 0.76571 0.99368 0.0
N2380 N 0.15773 0.73794 0.00666 0.0
N2381 N 0.00879 0.76265 0.00138 0.0
C2382 C 0.11854 0.73882 0.00426 0.0
C2383 C 0.04285 0.75231 0.00154 0.0
N2384 N 0.07729 0.68209 0.02124 0.0
N2385 N 0.07667 0.79518 0.98126 0.0
H2386 H 0.98116 0.74787 0.00788 0.0
H2387 H 0.0092 0.78796 0.99545 0.0
H2388 H 0.10312 0.8111 0.9744 0.0
H2389 H 0.04778 0.79658 0.97861 0.0
H2390 H 0.10055 0.67065 0.02142 0.0
H2391 H 0.05002 0.66428 0.02773 0.0
H2392 H 0.16281 0.72295 0.01503 0.0
H2393 H 0.18695 0.75564 0.00087 0.0
C2394 C 0.26213 0.37506 0.00383 0.0
C2395 C 0.23648 0.34774 0.9929 0.0
C2396 C 0.2551 0.28925 0.99926 0.0
C2397 C 0.28413 0.31847 0.00942 0.0
N2398 N 0.32001 0.39113 0.02049 0.0
N2399 N 0.21153 0.2812 0.97923 0.0
C2400 C 0.28896 0.36195 0.01146 0.0
C2401 C 0.2336 0.30533 0.99037 0.0
N2402 N 0.25987 0.41296 0.00711 0.0
N2403 N 0.2475 0.24586 0.99828 0.0
H2404 H 0.1942 0.2913 0.97276 0.0
H2405 H 0.21265 0.25275 0.97592 0.0
H2406 H 0.26364 0.23337 0.00437 0.0
H2407 H 0.22299 0.2212 0.9921 0.0
H2408 H 0.274 0.43183 0.01574 0.0
H2409 H 0.2404 0.42351 0.00179 0.0
H2410 H 0.329 0.42514 0.02137 0.0
H2411 H 0.33955 0.38235 0.02647 0.0
C2412 C 0.07676 0.34865 0.51416 0.0
C2413 C 0.03862 0.30506 0.51184 0.0
C2414 C 0.07693 0.29384 0.49271 0.0
C2415 C 0.11542 0.33695 0.49527 0.0
N2416 N 0.15637 0.40156 0.50972 0.0
N2417 N 0.00414 0.23285 0.50048 0.0
C2418 C 0.11667 0.36316 0.50643 0.0
C2419 C 0.0393 0.27654 0.5016 0.0
N2420 N 0.07431 0.37666 0.52351 0.0
N2421 N 0.07576 0.27037 0.48151 0.0
H2422 H 0.97547 0.21951 0.50658 0.0
H2423 H 0.00458 0.20879 0.49417 0.0
H2424 H 0.10344 0.28137 0.47508 0.0
H2425 H 0.04679 0.24138 0.47816 0.0
H2426 H 0.09881 0.41077 0.5246 0.0
H2427 H 0.04612 0.36673 0.52965 0.0
H2428 H 0.16094 0.41985 0.51846 0.0
H2429 H 0.1863 0.41307 0.50427 0.0
C2430 C 0.63105 0.73472 0.50142 0.0
C2431 C 0.65892 0.75996 0.49053 0.0
C2432 C 0.71781 0.74304 0.49776 0.0
C2433 C 0.688 0.71414 0.50782 0.0
N2434 N 0.61441 0.67766 0.51838 0.0
N2435 N 0.72676 0.78551 0.47742 0.0
C2436 C 0.6441 0.7087 0.50944 0.0
C2437 C 0.70191 0.76365 0.48848 0.0
N2438 N 0.59264 0.73658 0.50427 0.0
N2439 N 0.76152 0.75131 0.49723 0.0
H2440 H 0.71673 0.80214 0.47066 0.0
H2441 H 0.75585 0.78494 0.47447 0.0
H2442 H 0.77391 0.73586 0.50364 0.0
H2443 H 0.78646 0.77574 0.49109 0.0
H2444 H 0.57327 0.72271 0.51283 0.0
H2445 H 0.58217 0.75558 0.49867 0.0
H2446 H 0.5802 0.66821 0.51893 0.0
H2447 H 0.62302 0.65855 0.52461 0.0
C2448 C 0.23409 0.92288 0.49047 0.0
C2449 C 0.23954 0.88488 0.493 0.0
C2450 C 0.28374 0.92144 0.51316 0.0
C2451 C 0.2815 0.96093 0.51 0.0
N2452 N 0.25816 0.00167 0.49533 0.0
N2453 N 0.27083 0.84757 0.50616 0.0
C2454 C 0.25752 0.96228 0.49858 0.0
C2455 C 0.26463 0.88398 0.50422 0.0
N2456 N 0.20591 0.92087 0.48043 0.0
N2457 N 0.30334 0.9195 0.52488 0.0
H2458 H 0.25478 0.81806 0.50043 0.0
H2459 H 0.29354 0.84716 0.51303 0.0
H2460 H 0.31907 0.94685 0.53145 0.0
H2461 H 0.30165 0.89009 0.52857 0.0
H2462 H 0.1965 0.94532 0.47888 0.0
H2463 H 0.1891 0.89286 0.47412 0.0
H2464 H 0.24605 0.00686 0.48636 0.0
H2465 H 0.27345 0.03057 0.50131 0.0
C2466 C 0.0152 0.40937 0.3181 0.0
C2467 C 0.97604 0.36766 0.32151 0.0
C2468 C 0.9647 0.40254 0.34148 0.0
C2469 C 0.0065 0.44253 0.33884 0.0
N2470 N 0.07331 0.48449 0.32521 0.0
N2471 N 0.91425 0.32269 0.33655 0.0
C2472 C 0.03207 0.44625 0.32724 0.0
C2473 C 0.95078 0.36378 0.3332 0.0
N2474 N 0.03596 0.41376 0.30607 0.0
N2475 N 0.93824 0.40198 0.35182 0.0
H2476 H 0.90205 0.29407 0.33046 0.0
H2477 H 0.89748 0.31603 0.34566 0.0
H2478 H 0.94788 0.42984 0.3581 0.0
H2479 H 0.90537 0.37557 0.3536 0.0
H2480 H 0.06147 0.44456 0.3023 0.0
H2481 H 0.02557 0.38699 0.29934 0.0
H2482 H 0.09643 0.48712 0.31797 0.0
H2483 H 0.08579 0.51323 0.33125 0.0
C2484 C 0.56076 0.60034 0.33318 0.0
C2485 C 0.56272 0.57744 0.34478 0.0
C2486 C 0.64305 0.60321 0.34054 0.0
C2487 C 0.64039 0.62402 0.32857 0.0
N2488 N 0.59654 0.63881 0.31254 0.0
N2489 N 0.60267 0.55153 0.35879 0.0
C2490 C 0.59916 0.62158 0.32462 0.0
C2491 C 0.60304 0.57727 0.34826 0.0
N2492 N 0.52248 0.60271 0.33052 0.0
N2493 N 0.68405 0.60907 0.34463 0.0
H2494 H 0.57403 0.5327 0.36473 0.0
H2495 H 0.6294 0.54605 0.3611 0.0
H2496 H 0.71377 0.62692 0.33906 0.0
H2497 H 0.68951 0.59902 0.35391 0.0
H2498 H 0.52081 0.62374 0.32328 0.0
H2499 H 0.49265 0.58543 0.33606 0.0
H2500 H 0.56626 0.6333 0.30829 0.0
H2501 H 0.6245 0.65661 0.30628 0.0
C2502 C 0.38124 0.9761 0.32053 0.0
C2503 C 0.38325 0.01773 0.32371 0.0
C2504 C 0.43459 0.02956 0.34241 0.0
C2505 C 0.43002 0.98654 0.3398 0.0
N2506 N 0.39736 0.91688 0.32712 0.0
N2507 N 0.40726 0.08213 0.3383 0.0
C2508 C 0.40292 0.95925 0.32904 0.0
C2509 C 0.40872 0.04397 0.33483 0.0
N2510 N 0.3594 0.95325 0.30919 0.0
N2511 N 0.46432 0.0569 0.35201 0.0
H2512 H 0.38959 0.09422 0.33278 0.0
H2513 H 0.42077 0.10011 0.34709 0.0
H2514 H 0.48309 0.04693 0.35791 0.0
H2515 H 0.47306 0.09061 0.35351 0.0
H2516 H 0.3611 0.92565 0.30538 0.0
H2517 H 0.34134 0.96343 0.30304 0.0
H2518 H 0.37354 0.89287 0.32064 0.0
H2519 H 0.41515 0.90453 0.3325 0.0
C2520 C 0.03324 0.18822 0.26117 0.0
C2521 C 0.99521 0.19506 0.26223 0.0
C2522 C 0.02579 0.25005 0.2439 0.0
C2523 C 0.05831 0.23646 0.24121 0.0
N2524 N 0.1074 0.21313 0.2513 0.0
N2525 N 0.95443 0.23171 0.25443 0.0
C2526 C 0.06629 0.21125 0.25101 0.0
C2527 C 0.99154 0.22618 0.25363 0.0
N2528 N 0.03781 0.15971 0.26986 0.0
N2529 N 0.03004 0.28812 0.23795 0.0
H2530 H 0.92852 0.21459 0.26139 0.0
H2531 H 0.9474 0.25013 0.24748 0.0
H2532 H 0.05843 0.30964 0.23223 0.0
H2533 H 0.00948 0.30189 0.24021 0.0
H2534 H 0.06133 0.14888 0.26863 0.0
H2535 H 0.01667 0.14488 0.27805 0.0
H2536 H 0.11736 0.19852 0.25872 0.0
H2537 H 0.1341 0.23483 0.24507 0.0
C2538 C 0.75613 0.76155 0.24405 0.0
C2539 C 0.76122 0.80552 0.24243 0.0
C2540 C 0.80121 0.8289 0.26388 0.0
C2541 C 0.80293 0.78792 0.26425 0.0
N2542 N 0.78356 0.71556 0.25467 0.0
N2543 N 0.76776 0.87052 0.2539 0.0
C2544 C 0.78053 0.75417 0.25437 0.0
C2545 C 0.77774 0.83627 0.2533 0.0
N2546 N 0.72488 0.72592 0.23661 0.0
N2547 N 0.82319 0.86138 0.27344 0.0
H2548 H 0.74652 0.87341 0.24694 0.0
H2549 H 0.77534 0.89224 0.26201 0.0
H2550 H 0.83978 0.85692 0.28154 0.0
H2551 H 0.82773 0.89399 0.27294 0.0
H2552 H 0.71768 0.69256 0.23789 0.0
H2553 H 0.70081 0.72815 0.23073 0.0
H2554 H 0.77259 0.69208 0.2469 0.0
H2555 H 0.80043 0.70881 0.26223 0.0
C2556 C 0.20155 0.0332 0.23744 0.0
C2557 C 0.18852 0.98643 0.23788 0.0
C2558 C 0.20267 0.99225 0.26183 0.0
C2559 C 0.22085 0.04038 0.26116 0.0
N2560 N 0.2449 0.10738 0.24772 0.0
N2561 N 0.18451 0.92323 0.24986 0.0
C2562 C 0.22245 0.06109 0.24877 0.0
C2563 C 0.19172 0.96658 0.24987 0.0
N2564 N 0.19221 0.05057 0.22639 0.0
N2565 N 0.19247 0.97016 0.27382 0.0
H2566 H 0.17537 0.90309 0.2413 0.0
H2567 H 0.19147 0.90884 0.25805 0.0
H2568 H 0.19678 0.98618 0.28296 0.0
H2569 H 0.17462 0.93487 0.27467 0.0
H2570 H 0.19657 0.08316 0.22601 0.0
H2571 H 0.17598 0.0309 0.21802 0.0
H2572 H 0.25092 0.12436 0.23865 0.0
H2573 H 0.26141 0.1288 0.25577 0.0
C2574 C 0.96474 0.76868 0.74871 0.0
C2575 C 0.98714 0.79084 0.76057 0.0
C2576 C 0.06021 0.82846 0.74867 0.0
C2577 C 0.037 0.81142 0.73643 0.0
N2578 N 0.96455 0.77071 0.72473 0.0
N2579 N 0.05543 0.84629 0.77178 0.0
C2580 C 0.98859 0.78252 0.7364 0.0
C2581 C 0.03476 0.8218 0.76056 0.0
N2582 N 0.92066 0.73402 0.7492 0.0
N2583 N 0.1066 0.84999 0.74899 0.0
H2584 H 0.03803 0.84249 0.78068 0.0
H2585 H 0.08888 0.87299 0.77197 0.0
H2586 H 0.12616 0.85442 0.7405 0.0
H2587 H 0.12537 0.8593 0.75779 0.0
H2588 H 0.90408 0.71293 0.74112 0.0
H2589 H 0.90201 0.7236 0.75804 0.0
H2590 H 0.92923 0.75472 0.72437 0.0
H2591 H 0.97905 0.78064 0.71533 0.0
C2592 C 0.22323 0.17901 0.74835 0.0
C2593 C 0.21303 0.19001 0.761 0.0
C2594 C 0.17415 0.22683 0.7503 0.0
C2595 C 0.18579 0.21728 0.73765 0.0
N2596 N 0.22491 0.18757 0.72439 0.0
N2597 N 0.18219 0.22821 0.77425 0.0
C2598 C 0.21149 0.19449 0.73661 0.0
C2599 C 0.18966 0.21518 0.76204 0.0
N2600 N 0.24343 0.15289 0.74754 0.0
N2601 N 0.14729 0.24622 0.75109 0.0
H2602 H 0.1877 0.21675 0.78327 0.0
H2603 H 0.17205 0.25221 0.77558 0.0
H2604 H 0.1383 0.25852 0.7428 0.0
H2605 H 0.13176 0.24812 0.75981 0.0
H2606 H 0.24596 0.13784 0.7388 0.0
H2607 H 0.25591 0.1441 0.75583 0.0
H2608 H 0.24907 0.17765 0.72304 0.0
H2609 H 0.21356 0.19336 0.71539 0.0
C2610 C 0.8186 0.9871 0.7603 0.0
C2611 C 0.80781 0.02239 0.76171 0.0
C2612 C 0.7527 0.98897 0.74342 0.0
C2613 C 0.76869 0.95824 0.74073 0.0
N2614 N 0.79629 0.9129 0.75108 0.0
N2615 N 0.76602 0.05836 0.75436 0.0
C2616 C 0.79597 0.95292 0.75044 0.0
C2617 C 0.77494 0.02348 0.75326 0.0
N2618 N 0.85066 0.98617 0.76833 0.0
N2619 N 0.71355 0.98232 0.73756 0.0
H2620 H 0.7817 0.08407 0.76146 0.0
H2621 H 0.74625 0.06403 0.74755 0.0
H2622 H 0.69261 0.95314 0.73207 0.0
H2623 H 0.69821 0.00148 0.73976 0.0
H2624 H 0.86395 0.96484 0.76666 0.0
H2625 H 0.8663 0.00852 0.77623 0.0
H2626 H 0.81214 0.90491 0.75863 0.0
H2627 H 0.77487 0.88496 0.7452 0.0
C2628 C 0.61175 0.48523 0.5812 0.0
C2629 C 0.61934 0.51836 0.59097 0.0
C2630 C 0.6867 0.57472 0.57868 0.0
C2631 C 0.68328 0.53974 0.57022 0.0
N2632 N 0.64205 0.46112 0.56313 0.0
N2633 N 0.64822 0.5984 0.59433 0.0
C2634 C 0.64553 0.49483 0.57136 0.0
C2635 C 0.65232 0.56446 0.5884 0.0
N2636 N 0.57039 0.44636 0.58061 0.0
N2637 N 0.72363 0.61742 0.57774 0.0
H2638 H 0.6195 0.59182 0.59982 0.0
H2639 H 0.66924 0.63274 0.5922 0.0
H2640 H 0.74936 0.62604 0.57073 0.0
H2641 H 0.73072 0.64315 0.58459 0.0
H2642 H 0.56083 0.42226 0.57306 0.0
H2643 H 0.54331 0.44146 0.58665 0.0
H2644 H 0.61859 0.42685 0.56457 0.0
H2645 H 0.66421 0.46678 0.55525 0.0
C2646 C 0.51568 0.15734 0.58468 0.0
C2647 C 0.48862 0.11308 0.59005 0.0
C2648 C 0.42377 0.10459 0.57671 0.0
C2649 C 0.45055 0.15008 0.57213 0.0
N2650 N 0.51491 0.22416 0.57716 0.0
N2651 N 0.42087 0.04018 0.5883 0.0
C2652 C 0.49437 0.1779 0.57772 0.0
C2653 C 0.44353 0.08544 0.58525 0.0
N2654 N 0.56196 0.17919 0.58552 0.0
N2655 N 0.37863 0.08097 0.57354 0.0
H2656 H 0.43624 0.02513 0.59366 0.0
H2657 H 0.38922 0.0168 0.58446 0.0
H2658 H 0.36293 0.09586 0.56827 0.0
H2659 H 0.35583 0.04885 0.57721 0.0
H2660 H 0.5829 0.21073 0.58114 0.0
H2661 H 0.57956 0.16285 0.58844 0.0
H2662 H 0.54608 0.24557 0.58167 0.0
H2663 H 0.49766 0.241 0.57438 0.0
C2664 C 0.90741 0.34519 0.58581 0.0
C2665 C 0.87263 0.34381 0.59395 0.0
C2666 C 0.81657 0.2729 0.58296 0.0
C2667 C 0.84992 0.27876 0.57347 0.0
N2668 N 0.92942 0.30375 0.57078 0.0
N2669 N 0.79372 0.30518 0.60082 0.0
C2670 C 0.89628 0.31008 0.57631 0.0
C2671 C 0.82708 0.30718 0.59272 0.0
N2672 N 0.95079 0.38095 0.58682 0.0
N2673 N 0.77651 0.23259 0.58339 0.0
H2674 H 0.80002 0.32743 0.60872 0.0
H2675 H 0.75923 0.2828 0.5993 0.0
H2676 H 0.77083 0.20496 0.57748 0.0
H2677 H 0.75186 0.22416 0.59072 0.0
H2678 H 0.97657 0.38648 0.58017 0.0
H2679 H 0.9601 0.40729 0.59366 0.0
H2680 H 0.96375 0.32337 0.57316 0.0
H2681 H 0.92172 0.27458 0.56536 0.0
C2682 C 0.70142 0.14559 0.08258 0.0
C2683 C 0.67863 0.13864 0.07028 0.0
C2684 C 0.6048 0.10589 0.08186 0.0
C2685 C 0.62747 0.11171 0.09419 0.0
N2686 N 0.69733 0.13397 0.10641 0.0
N2687 N 0.60915 0.11098 0.05769 0.0
C2688 C 0.67572 0.13045 0.09458 0.0
C2689 C 0.63039 0.11826 0.06977 0.0
N2690 N 0.74795 0.16809 0.08282 0.0
N2691 N 0.55883 0.08903 0.08177 0.0
H2692 H 0.62661 0.12293 0.04872 0.0
H2693 H 0.57419 0.09182 0.05632 0.0
H2694 H 0.53872 0.07659 0.09029 0.0
H2695 H 0.54033 0.08845 0.07344 0.0
H2696 H 0.76734 0.18028 0.09145 0.0
H2697 H 0.7678 0.17711 0.07421 0.0
H2698 H 0.7305 0.14019 0.10712 0.0
H2699 H 0.68214 0.12918 0.11571 0.0
C2700 C 0.82533 0.54591 0.08684 0.0
C2701 C 0.859 0.57104 0.07716 0.0
C2702 C 0.91453 0.56021 0.09 0.0
C2703 C 0.87898 0.52888 0.09836 0.0
N2704 N 0.79977 0.49143 0.10488 0.0
N2705 N 0.93926 0.62171 0.07406 0.0
C2706 C 0.83416 0.52171 0.09685 0.0
C2707 C 0.90492 0.58402 0.08001 0.0
N2708 N 0.78665 0.5488 0.08717 0.0
N2709 N 0.95717 0.56605 0.09134 0.0
H2710 H 0.93305 0.64365 0.06833 0.0
H2711 H 0.97348 0.63498 0.07634 0.0
H2712 H 0.96526 0.54918 0.09858 0.0
H2713 H 0.98343 0.58454 0.08463 0.0
H2714 H 0.76226 0.53465 0.09466 0.0
H2715 H 0.78227 0.57103 0.08099 0.0
H2716 H 0.76564 0.48075 0.10318 0.0
H2717 H 0.80469 0.47459 0.11281 0.0
C2718 C 0.47357 0.28909 0.08244 0.0
C2719 C 0.44251 0.29029 0.07321 0.0
C2720 C 0.44426 0.35358 0.08561 0.0
C2721 C 0.47972 0.35646 0.09375 0.0
N2722 N 0.5271 0.32537 0.10055 0.0
N2723 N 0.3818 0.30682 0.07081 0.0
C2724 C 0.49422 0.3238 0.09232 0.0
C2725 C 0.42294 0.3177 0.07618 0.0
N2726 N 0.47973 0.25229 0.08255 0.0
N2727 N 0.43195 0.38611 0.08659 0.0
H2728 H 0.36266 0.27701 0.06537 0.0
H2729 H 0.36382 0.32317 0.07332 0.0
H2730 H 0.44714 0.41313 0.0933 0.0
H2731 H 0.40974 0.38865 0.07995 0.0
H2732 H 0.50164 0.24831 0.0889 0.0
H2733 H 0.45816 0.22252 0.07739 0.0
H2734 H 0.54339 0.30674 0.09901 0.0
H2735 H 0.54004 0.34683 0.10875 0.0
C2736 C 0.31239 0.88964 0.92081 0.0
C2737 C 0.3154 0.85695 0.92887 0.0
C2738 C 0.38606 0.87358 0.91741 0.0
C2739 C 0.37892 0.90055 0.90804 0.0
N2740 N 0.35082 0.95261 0.9054 0.0
N2741 N 0.355 0.81676 0.9348 0.0
C2742 C 0.34645 0.91402 0.91102 0.0
C2743 C 0.35226 0.84865 0.92717 0.0
N2744 N 0.27612 0.89627 0.92225 0.0
N2745 N 0.42716 0.87543 0.91777 0.0
H2746 H 0.33275 0.79934 0.94258 0.0
H2747 H 0.3778 0.80541 0.93289 0.0
H2748 H 0.45443 0.89815 0.91188 0.0
H2749 H 0.4364 0.85985 0.92509 0.0
H2750 H 0.2692 0.91594 0.91574 0.0
H2751 H 0.25063 0.87887 0.9293 0.0
H2752 H 0.33029 0.96625 0.90782 0.0
H2753 H 0.3793 0.97469 0.89981 0.0
C2754 C 0.07956 0.43212 0.91199 0.0
C2755 C 0.09321 0.4785 0.90967 0.0
C2756 C 0.14287 0.50031 0.92929 0.0
C2757 C 0.13488 0.45503 0.93026 0.0
N2758 N 0.09634 0.37769 0.92245 0.0
N2759 N 0.11681 0.54987 0.92052 0.0
C2760 C 0.103 0.42076 0.92167 0.0
C2761 C 0.11893 0.51085 0.91961 0.0
N2762 N 0.04167 0.39893 0.90578 0.0
N2763 N 0.17358 0.53353 0.93754 0.0
H2764 H 0.09473 0.55538 0.91462 0.0
H2765 H 0.1314 0.57333 0.92823 0.0
H2766 H 0.19003 0.52735 0.94533 0.0
H2767 H 0.18492 0.56795 0.93619 0.0
H2768 H 0.02781 0.36438 0.90769 0.0
H2769 H 0.0203 0.40633 0.90019 0.0
H2770 H 0.07738 0.35231 0.91554 0.0
H2771 H 0.11299 0.36834 0.92942 0.0
C2772 C 0.55677 0.64667 0.92701 0.0
C2773 C 0.56945 0.69364 0.92738 0.0
C2774 C 0.56102 0.69199 0.90303 0.0
C2775 C 0.53835 0.64345 0.90333 0.0
N2776 N 0.51262 0.57433 0.91585 0.0
N2777 N 0.58873 0.76233 0.91541 0.0
C2778 C 0.53553 0.62076 0.9154 0.0
C2779 C 0.57334 0.71667 0.91525 0.0
N2780 N 0.56677 0.62678 0.93731 0.0
N2781 N 0.57112 0.71484 0.89116 0.0
H2782 H 0.60372 0.78247 0.92381 0.0
H2783 H 0.58561 0.78004 0.9074 0.0
H2784 H 0.56085 0.6992 0.88192 0.0
H2785 H 0.59247 0.74981 0.89033 0.0
H2786 H 0.56128 0.59377 0.93685 0.0
H2787 H 0.58625 0.64412 0.94553 0.0
H2788 H 0.50417 0.55611 0.92475 0.0
H2789 H 0.49939 0.55398 0.9074 0.0
C2790 C 0.34837 0.44054 0.41262 0.0
C2791 C 0.34655 0.47367 0.40447 0.0
C2792 C 0.27447 0.45684 0.41511 0.0
C2793 C 0.28055 0.42947 0.42458 0.0
N2794 N 0.30702 0.37621 0.42735 0.0
N2795 N 0.30646 0.5122 0.39729 0.0
C2796 C 0.31278 0.41553 0.42187 0.0
C2797 C 0.30906 0.48139 0.40548 0.0
N2798 N 0.38493 0.43412 0.41184 0.0
N2799 N 0.23374 0.45573 0.41456 0.0
H2800 H 0.3289 0.52857 0.38946 0.0
H2801 H 0.2833 0.52344 0.39864 0.0
H2802 H 0.20609 0.43325 0.42038 0.0
H2803 H 0.22514 0.47185 0.40725 0.0
H2804 H 0.39056 0.41399 0.41852 0.0
H2805 H 0.41176 0.45207 0.40521 0.0
H2806 H 0.32734 0.36222 0.42504 0.0
H2807 H 0.27777 0.35425 0.43267 0.0
C2808 C 0.52161 0.83111 0.40243 0.0
C2809 C 0.53187 0.8771 0.40126 0.0
C2810 C 0.58686 0.89838 0.41955 0.0
C2811 C 0.57104 0.85159 0.42206 0.0
N2812 N 0.54463 0.77941 0.41136 0.0
N2813 N 0.57347 0.95469 0.40879 0.0
C2814 C 0.54439 0.81943 0.41219 0.0
C2815 C 0.5647 0.9109 0.40976 0.0
N2816 N 0.48978 0.79829 0.39432 0.0
N2817 N 0.62566 0.93069 0.42561 0.0
H2818 H 0.55791 0.96492 0.40171 0.0
H2819 H 0.59317 0.97994 0.41566 0.0
H2820 H 0.64637 0.92226 0.43115 0.0
H2821 H 0.64092 0.96529 0.42357 0.0
H2822 H 0.47687 0.76365 0.39584 0.0
H2823 H 0.47401 0.80513 0.38648 0.0
H2824 H 0.52923 0.75596 0.40369 0.0
H2825 H 0.56607 0.77288 0.41724 0.0
C2826 C 0.14067 0.70219 0.41819 0.0
C2827 C 0.14513 0.68175 0.42989 0.0
C2828 C 0.11365 0.60854 0.41825 0.0
C2829 C 0.11464 0.63016 0.40607 0.0
N2830 N 0.14015 0.70148 0.3942 0.0
N2831 N 0.14461 0.61773 0.44047 0.0
C2832 C 0.13076 0.67802 0.40594 0.0
C2833 C 0.13396 0.63548 0.42978 0.0
N2834 N 0.14585 0.74471 0.41874 0.0
N2835 N 0.0923 0.56221 0.41891 0.0
H2836 H 0.16053 0.63671 0.44897 0.0
H2837 H 0.1417 0.58571 0.44039 0.0
H2838 H 0.07586 0.54137 0.41075 0.0
H2839 H 0.08684 0.54451 0.42783 0.0
H2840 H 0.13795 0.75931 0.4108 0.0
H2841 H 0.15416 0.76371 0.42752 0.0
H2842 H 0.15657 0.73682 0.39374 0.0
H2843 H 0.13671 0.68693 0.38485 0.0
loop_
_geom_bond_atom_site_label_1
_geom_bond_atom_site_label_2
_geom_bond_distance
_geom_bond_site_symmetry_2
_ccdc_geom_bond_type
Co0 O3 1.970 . S
Co0 N17 1.989 . S
Co0 O25 1.967 . S
Co0 O32 1.920 . S
Co1 O4 1.966 . S
Co1 N10 2.022 . S
Co1 N18 1.993 . S
Co1 O26 1.941 . S
C2 O3 1.258 . S
C2 O4 1.263 . S
O3 Co0 1.970 . S
O3 C2 1.258 . S
O4 Co1 1.966 . S
O4 C2 1.263 . S
C5 O6 1.235 . S
C5 O32 1.289 . S
O6 C5 1.235 . S
C7 C9 1.400 . S
C7 N10 1.351 . S
C7 C12 1.501 1_455 S
C8 C9 1.387 . S
C8 N11 1.341 . S
C9 C7 1.400 . S
C9 C8 1.387 . S
N10 Co1 2.022 . S
N10 C7 1.351 . S
N10 N11 1.365 . S
N11 C8 1.341 . S
N11 N10 1.365 . S
N11 H31 0.862 . S
C12 C7 1.501 1_655 S
C12 H13 0.961 . S
C12 H14 0.961 1_655 S
C12 H15 0.960 . S
H13 C12 0.961 . S
H14 C12 0.961 1_455 S
H15 C12 0.960 . S
C16 N17 1.342 . S
C16 C20 1.401 . S
C16 C21 1.499 . S
N17 Co0 1.989 . S
N17 C16 1.342 . S
N17 N18 1.388 . S
N18 Co1 1.993 . S
N18 N17 1.388 . S
N18 C19 1.346 . S
C19 N18 1.346 . S
C19 C20 1.396 . S
C19 C29 1.510 . S
C20 C16 1.401 . S
C20 C19 1.396 . S
C21 C16 1.499 . S
C21 H22 0.959 . S
C21 H23 0.960 . S
C21 H24 0.961 . S
H22 C21 0.959 . S
H23 C21 0.960 . S
H24 C21 0.961 . S
O25 Co0 1.967 . S
O25 C33 1.258 . S
O26 Co1 1.941 . S
O26 C33 1.266 . S
H27 C29 0.959 . S
H28 C29 0.961 . S
C29 C19 1.510 . S
C29 H27 0.959 . S
C29 H28 0.961 . S
C29 H30 0.960 . S
H30 C29 0.960 . S
H31 N11 0.862 . S
O32 Co0 1.920 . S
O32 C5 1.289 . S
C33 O25 1.258 . S
C33 O26 1.266 . S
Co34 O37 1.970 . S
Co34 N51 1.989 . S
Co34 O59 1.967 . S
Co34 O66 1.920 . S
Co35 O38 1.966 . S
Co35 N44 2.022 . S
Co35 N52 1.993 . S
Co35 O60 1.941 . S
C36 O37 1.258 . S
C36 O38 1.263 . S
O37 Co34 1.970 . S
O37 C36 1.258 . S
O38 Co35 1.966 . S
O38 C36 1.263 . S
C39 O40 1.235 1_545 S
C39 O66 1.289 1_545 S
O40 C39 1.235 1_565 S
C41 C43 1.400 . S
C41 N44 1.351 . S
C41 C46 1.501 . S
C42 C43 1.387 . S
C42 N45 1.341 . S
C43 C41 1.400 . S
C43 C42 1.387 . S
N44 Co35 2.022 . S
N44 C41 1.351 . S
N44 N45 1.365 . S
N45 C42 1.341 . S
N45 N44 1.365 . S
N45 H65 0.862 . S
C46 C41 1.501 . S
C46 H47 0.961 . S
C46 H48 0.961 . S
C46 H49 0.960 . S
H47 C46 0.961 . S
H48 C46 0.961 . S
H49 C46 0.960 . S
C50 N51 1.342 . S
C50 C54 1.401 . S
C50 C55 1.499 . S
N51 Co34 1.989 . S
N51 C50 1.342 . S
N51 N52 1.388 . S
N52 Co35 1.993 . S
N52 N51 1.388 . S
N52 C53 1.346 . S
C53 N52 1.346 . S
C53 C54 1.396 . S
C53 C63 1.510 . S
C54 C50 1.401 . S
C54 C53 1.396 . S
C55 C50 1.499 . S
C55 H56 0.959 . S
C55 H57 0.960 . S
C55 H58 0.961 . S
H56 C55 0.959 . S
H57 C55 0.960 . S
H58 C55 0.961 . S
O59 Co34 1.967 . S
O59 C67 1.258 . S
O60 Co35 1.941 . S
O60 C67 1.266 . S
H61 C63 0.959 . S
H62 C63 0.961 . S
C63 C53 1.510 . S
C63 H61 0.959 . S
C63 H62 0.961 . S
C63 H64 0.960 . S
H64 C63 0.960 . S
H65 N45 0.862 . S
O66 Co34 1.920 . S
O66 C39 1.289 1_565 S
C67 O59 1.258 . S
C67 O60 1.266 . S
Co68 O71 1.970 . S
Co68 N85 1.989 . S
Co68 O93 1.967 . S
Co68 O100 1.920 . S
Co69 O72 1.966 . S
Co69 N78 2.022 . S
Co69 N86 1.993 . S
Co69 O94 1.941 . S
C70 O71 1.258 . S
C70 O72 1.263 . S
O71 Co68 1.970 . S
O71 C70 1.258 . S
O72 Co69 1.966 . S
O72 C70 1.263 . S
C73 O74 1.235 1_655 S
C73 O100 1.289 1_655 S
O74 C73 1.235 1_455 S
C75 C77 1.400 . S
C75 N78 1.351 . S
C75 C80 1.501 1_565 S
C76 C77 1.387 . S
C76 N79 1.341 . S
C77 C75 1.400 . S
C77 C76 1.387 . S
N78 Co69 2.022 . S
N78 C75 1.351 . S
N78 N79 1.365 . S
N79 C76 1.341 . S
N79 N78 1.365 . S
N79 H99 0.862 . S
C80 C75 1.501 1_545 S
C80 H81 0.961 . S
C80 H82 0.961 1_545 S
C80 H83 0.960 . S
H81 C80 0.961 . S
H82 C80 0.961 1_565 S
H83 C80 0.960 . S
C84 N85 1.342 . S
C84 C88 1.401 . S
C84 C89 1.499 . S
N85 Co68 1.989 . S
N85 C84 1.342 . S
N85 N86 1.388 . S
N86 Co69 1.993 . S
N86 N85 1.388 . S
N86 C87 1.346 . S
C87 N86 1.346 . S
C87 C88 1.396 . S
C87 C97 1.510 . S
C88 C84 1.401 . S
C88 C87 1.396 . S
C89 C84 1.499 . S
C89 H90 0.959 . S
C89 H91 0.960 . S
C89 H92 0.961 . S
H90 C89 0.959 . S
H91 C89 0.960 . S
H92 C89 0.961 . S
O93 Co68 1.967 . S
O93 C101 1.258 . S
O94 Co69 1.941 . S
O94 C101 1.266 . S
H95 C97 0.959 . S
H96 C97 0.961 . S
C97 C87 1.510 . S
C97 H95 0.959 . S
C97 H96 0.961 . S
C97 H98 0.960 . S
H98 C97 0.960 . S
H99 N79 0.862 . S
O100 Co68 1.920 . S
O100 C73 1.289 1_455 S
C101 O93 1.258 . S
C101 O94 1.266 . S
Co102 O105 1.970 . S
Co102 N119 1.989 . S
Co102 O127 1.967 . S
Co102 O134 1.920 . S
Co103 O106 1.966 . S
Co103 N112 2.022 . S
Co103 N120 1.993 . S
Co103 O128 1.941 . S
C104 O105 1.258 . S
C104 O106 1.263 . S
O105 Co102 1.970 . S
O105 C104 1.258 . S
O106 Co103 1.966 . S
O106 C104 1.263 . S
C107 O108 1.235 . S
C107 O134 1.289 . S
O108 C107 1.235 . S
C109 C111 1.400 . S
C109 N112 1.351 . S
C109 C114 1.501 1_545 S
C110 C111 1.387 . S
C110 N113 1.341 . S
C111 C109 1.400 . S
C111 C110 1.387 . S
N112 Co103 2.022 . S
N112 C109 1.351 . S
N112 N113 1.365 . S
N113 C110 1.341 . S
N113 N112 1.365 . S
N113 H133 0.862 . S
C114 C109 1.501 1_565 S
C114 H115 0.961 . S
C114 H116 0.961 1_565 S
C114 H117 0.960 . S
H115 C114 0.961 . S
H116 C114 0.961 1_545 S
H117 C114 0.960 . S
C118 N119 1.342 . S
C118 C122 1.401 . S
C118 C123 1.499 . S
N119 Co102 1.989 . S
N119 C118 1.342 . S
N119 N120 1.388 . S
N120 Co103 1.993 . S
N120 N119 1.388 . S
N120 C121 1.346 . S
C121 N120 1.346 . S
C121 C122 1.396 . S
C121 C131 1.510 . S
C122 C118 1.401 . S
C122 C121 1.396 . S
C123 C118 1.499 . S
C123 H124 0.959 . S
C123 H125 0.960 . S
C123 H126 0.961 . S
H124 C123 0.959 . S
H125 C123 0.960 . S
H126 C123 0.961 . S
O127 Co102 1.967 . S
O127 C135 1.258 . S
O128 Co103 1.941 . S
O128 C135 1.266 . S
H129 C131 0.959 . S
H130 C131 0.961 . S
C131 C121 1.510 . S
C131 H129 0.959 . S
C131 H130 0.961 . S
C131 H132 0.960 . S
H132 C131 0.960 . S
H133 N113 0.862 . S
O134 Co102 1.920 . S
O134 C107 1.289 . S
C135 O127 1.258 . S
C135 O128 1.266 . S
Co136 O139 1.970 . S
Co136 N153 1.989 . S
Co136 O161 1.967 . S
Co136 O168 1.920 . S
Co137 O140 1.966 . S
Co137 N146 2.022 . S
Co137 N154 1.993 . S
Co137 O162 1.941 . S
C138 O139 1.258 . S
C138 O140 1.263 . S
O139 Co136 1.970 . S
O139 C138 1.258 . S
O140 Co137 1.966 . S
O140 C138 1.263 . S
C141 O142 1.235 1_565 S
C141 O168 1.289 1_565 S
O142 C141 1.235 1_545 S
C143 C145 1.400 . S
C143 N146 1.351 . S
C143 C148 1.501 1_655 S
C144 C145 1.387 . S
C144 N147 1.341 . S
C145 C143 1.400 . S
C145 C144 1.387 . S
N146 Co137 2.022 . S
N146 C143 1.351 . S
N146 N147 1.365 . S
N147 C144 1.341 . S
N147 N146 1.365 . S
N147 H167 0.862 . S
C148 C143 1.501 1_455 S
C148 H149 0.961 . S
C148 H150 0.961 1_455 S
C148 H151 0.960 . S
H149 C148 0.961 . S
H150 C148 0.961 1_655 S
H151 C148 0.960 . S
C152 N153 1.342 . S
C152 C156 1.401 . S
C152 C157 1.499 . S
N153 Co136 1.989 . S
N153 C152 1.342 . S
N153 N154 1.388 . S
N154 Co137 1.993 . S
N154 N153 1.388 . S
N154 C155 1.346 . S
C155 N154 1.346 . S
C155 C156 1.396 . S
C155 C165 1.510 . S
C156 C152 1.401 . S
C156 C155 1.396 . S
C157 C152 1.499 . S
C157 H158 0.959 . S
C157 H159 0.960 . S
C157 H160 0.961 . S
H158 C157 0.959 . S
H159 C157 0.960 . S
H160 C157 0.961 . S
O161 Co136 1.967 . S
O161 C169 1.258 . S
O162 Co137 1.941 . S
O162 C169 1.266 . S
H163 C165 0.959 . S
H164 C165 0.961 . S
C165 C155 1.510 . S
C165 H163 0.959 . S
C165 H164 0.961 . S
C165 H166 0.960 . S
H166 C165 0.960 . S
H167 N147 0.862 . S
O168 Co136 1.920 . S
O168 C141 1.289 1_545 S
C169 O161 1.258 . S
C169 O162 1.266 . S
Co170 O173 1.970 . S
Co170 N187 1.989 . S
Co170 O195 1.967 . S
Co170 O202 1.920 . S
Co171 O174 1.966 . S
Co171 N180 2.022 . S
Co171 N188 1.993 . S
Co171 O196 1.941 . S
C172 O173 1.258 . S
C172 O174 1.263 . S
O173 Co170 1.970 . S
O173 C172 1.258 . S
O174 Co171 1.966 . S
O174 C172 1.263 . S
C175 O176 1.235 1_455 S
C175 O202 1.289 1_455 S
O176 C175 1.235 1_655 S
C177 C179 1.400 . S
C177 N180 1.351 . S
C177 C182 1.501 . S
C178 C179 1.387 . S
C178 N181 1.341 . S
C179 C177 1.400 . S
C179 C178 1.387 . S
N180 Co171 2.022 . S
N180 C177 1.351 . S
N180 N181 1.365 . S
N181 C178 1.341 . S
N181 N180 1.365 . S
N181 H201 0.862 . S
C182 C177 1.501 . S
C182 H183 0.961 . S
C182 H184 0.961 . S
C182 H185 0.960 . S
H183 C182 0.961 . S
H184 C182 0.961 . S
H185 C182 0.960 . S
C186 N187 1.342 . S
C186 C190 1.401 . S
C186 C191 1.499 . S
N187 Co170 1.989 . S
N187 C186 1.342 . S
N187 N188 1.388 . S
N188 Co171 1.993 . S
N188 N187 1.388 . S
N188 C189 1.346 . S
C189 N188 1.346 . S
C189 C190 1.396 . S
C189 C199 1.510 . S
C190 C186 1.401 . S
C190 C189 1.396 . S
C191 C186 1.499 . S
C191 H192 0.959 . S
C191 H193 0.960 . S
C191 H194 0.961 . S
H192 C191 0.959 . S
H193 C191 0.960 . S
H194 C191 0.961 . S
O195 Co170 1.967 . S
O195 C203 1.258 . S
O196 Co171 1.941 . S
O196 C203 1.266 . S
H197 C199 0.959 . S
H198 C199 0.961 . S
C199 C189 1.510 . S
C199 H197 0.959 . S
C199 H198 0.961 . S
C199 H200 0.960 . S
H200 C199 0.960 . S
H201 N181 0.862 . S
O202 Co170 1.920 . S
O202 C175 1.289 1_655 S
C203 O195 1.258 . S
C203 O196 1.266 . S
Co204 O207 1.970 . S
Co204 N221 1.989 . S
Co204 O229 1.967 . S
Co204 O236 1.920 . S
Co205 O208 1.966 . S
Co205 N214 2.022 . S
Co205 N222 1.993 . S
Co205 O230 1.941 . S
C206 O207 1.258 . S
C206 O208 1.263 . S
O207 Co204 1.970 . S
O207 C206 1.258 . S
O208 Co205 1.966 . S
O208 C206 1.263 . S
C209 O210 1.235 . S
C209 O236 1.289 . S
O210 C209 1.235 . S
C211 C213 1.400 . S
C211 N214 1.351 . S
C211 C216 1.501 1_655 S
C212 C213 1.387 . S
C212 N215 1.341 . S
C213 C211 1.400 . S
C213 C212 1.387 . S
N214 Co205 2.022 . S
N214 C211 1.351 . S
N214 N215 1.365 . S
N215 C212 1.341 . S
N215 N214 1.365 . S
N215 H235 0.862 . S
C216 C211 1.501 1_455 S
C216 H217 0.961 . S
C216 H218 0.961 1_455 S
C216 H219 0.960 . S
H217 C216 0.961 . S
H218 C216 0.961 1_655 S
H219 C216 0.960 . S
C220 N221 1.342 . S
C220 C224 1.401 . S
C220 C225 1.499 . S
N221 Co204 1.989 . S
N221 C220 1.342 . S
N221 N222 1.388 . S
N222 Co205 1.993 . S
N222 N221 1.388 . S
N222 C223 1.346 . S
C223 N222 1.346 . S
C223 C224 1.396 . S
C223 C233 1.510 . S
C224 C220 1.401 . S
C224 C223 1.396 . S
C225 C220 1.499 . S
C225 H226 0.959 . S
C225 H227 0.960 . S
C225 H228 0.961 . S
H226 C225 0.959 . S
H227 C225 0.960 . S
H228 C225 0.961 . S
O229 Co204 1.967 . S
O229 C237 1.258 . S
O230 Co205 1.941 . S
O230 C237 1.266 . S
H231 C233 0.959 . S
H232 C233 0.961 . S
C233 C223 1.510 . S
C233 H231 0.959 . S
C233 H232 0.961 . S
C233 H234 0.960 . S
H234 C233 0.960 . S
H235 N215 0.862 . S
O236 Co204 1.920 . S
O236 C209 1.289 . S
C237 O229 1.258 . S
C237 O230 1.266 . S
Co238 O241 1.970 . S
Co238 N255 1.989 . S
Co238 O263 1.967 . S
Co238 O270 1.920 . S
Co239 O242 1.966 . S
Co239 N248 2.022 . S
Co239 N256 1.993 . S
Co239 O264 1.941 . S
C240 O241 1.258 . S
C240 O242 1.263 . S
O241 Co238 1.970 . S
O241 C240 1.258 . S
O242 Co239 1.966 . S
O242 C240 1.263 . S
C243 O244 1.235 1_565 S
C243 O270 1.289 1_565 S
O244 C243 1.235 1_545 S
C245 C247 1.400 . S
C245 N248 1.351 . S
C245 C250 1.501 . S
C246 C247 1.387 . S
C246 N249 1.341 . S
C247 C245 1.400 . S
C247 C246 1.387 . S
N248 Co239 2.022 . S
N248 C245 1.351 . S
N248 N249 1.365 . S
N249 C246 1.341 . S
N249 N248 1.365 . S
N249 H269 0.862 . S
C250 C245 1.501 . S
C250 H251 0.961 . S
C250 H252 0.961 . S
C250 H253 0.960 . S
H251 C250 0.961 . S
H252 C250 0.961 . S
H253 C250 0.960 . S
C254 N255 1.342 . S
C254 C258 1.401 . S
C254 C259 1.499 . S
N255 Co238 1.989 . S
N255 C254 1.342 . S
N255 N256 1.388 . S
N256 Co239 1.993 . S
N256 N255 1.388 . S
N256 C257 1.346 . S
C257 N256 1.346 . S
C257 C258 1.396 . S
C257 C267 1.510 . S
C258 C254 1.401 . S
C258 C257 1.396 . S
C259 C254 1.499 . S
C259 H260 0.959 . S
C259 H261 0.960 . S
C259 H262 0.961 . S
H260 C259 0.959 . S
H261 C259 0.960 . S
H262 C259 0.961 . S
O263 Co238 1.967 . S
O263 C271 1.258 . S
O264 Co239 1.941 . S
O264 C271 1.266 . S
H265 C267 0.959 . S
H266 C267 0.961 . S
C267 C257 1.510 . S
C267 H265 0.959 . S
C267 H266 0.961 . S
C267 H268 0.960 . S
H268 C267 0.960 . S
H269 N249 0.862 . S
O270 Co238 1.920 . S
O270 C243 1.289 1_545 S
C271 O263 1.258 . S
C271 O264 1.266 . S
Co272 O275 1.970 . S
Co272 N289 1.989 . S
Co272 O297 1.967 . S
Co272 O304 1.920 . S
Co273 O276 1.966 . S
Co273 N282 2.022 . S
Co273 N290 1.993 . S
Co273 O298 1.941 . S
C274 O275 1.258 . S
C274 O276 1.263 . S
O275 Co272 1.970 . S
O275 C274 1.258 . S
O276 Co273 1.966 . S
O276 C274 1.263 . S
C277 O278 1.235 1_455 S
C277 O304 1.289 1_455 S
O278 C277 1.235 1_655 S
C279 C281 1.400 . S
C279 N282 1.351 . S
C279 C284 1.501 1_545 S
C280 C281 1.387 . S
C280 N283 1.341 . S
C281 C279 1.400 . S
C281 C280 1.387 . S
N282 Co273 2.022 . S
N282 C279 1.351 . S
N282 N283 1.365 . S
N283 C280 1.341 . S
N283 N282 1.365 . S
N283 H303 0.862 . S
C284 C279 1.501 1_565 S
C284 H285 0.961 . S
C284 H286 0.961 1_565 S
C284 H287 0.960 . S
H285 C284 0.961 . S
H286 C284 0.961 1_545 S
H287 C284 0.960 . S
C288 N289 1.342 . S
C288 C292 1.401 . S
C288 C293 1.499 . S
N289 Co272 1.989 . S
N289 C288 1.342 . S
N289 N290 1.388 . S
N290 Co273 1.993 . S
N290 N289 1.388 . S
N290 C291 1.346 . S
C291 N290 1.346 . S
C291 C292 1.396 . S
C291 C301 1.510 . S
C292 C288 1.401 . S
C292 C291 1.396 . S
C293 C288 1.499 . S
C293 H294 0.959 . S
C293 H295 0.960 . S
C293 H296 0.961 . S
H294 C293 0.959 . S
H295 C293 0.960 . S
H296 C293 0.961 . S
O297 Co272 1.967 . S
O297 C305 1.258 . S
O298 Co273 1.941 . S
O298 C305 1.266 . S
H299 C301 0.959 . S
H300 C301 0.961 . S
C301 C291 1.510 . S
C301 H299 0.959 . S
C301 H300 0.961 . S
C301 H302 0.960 . S
H302 C301 0.960 . S
H303 N283 0.862 . S
O304 Co272 1.920 . S
O304 C277 1.289 1_655 S
C305 O297 1.258 . S
C305 O298 1.266 . S
Co306 O309 1.970 . S
Co306 N323 1.989 . S
Co306 O331 1.967 . S
Co306 O338 1.920 . S
Co307 O310 1.966 . S
Co307 N316 2.022 . S
Co307 N324 1.993 . S
Co307 O332 1.941 . S
C308 O309 1.258 . S
C308 O310 1.263 . S
O309 Co306 1.970 . S
O309 C308 1.258 . S
O310 Co307 1.966 . S
O310 C308 1.263 . S
C311 O312 1.235 . S
C311 O338 1.289 . S
O312 C311 1.235 . S
C313 C315 1.400 . S
C313 N316 1.351 . S
C313 C318 1.501 1_565 S
C314 C315 1.387 . S
C314 N317 1.341 . S
C315 C313 1.400 . S
C315 C314 1.387 . S
N316 Co307 2.022 . S
N316 C313 1.351 . S
N316 N317 1.365 . S
N317 C314 1.341 . S
N317 N316 1.365 . S
N317 H337 0.862 . S
C318 C313 1.501 1_545 S
C318 H319 0.961 . S
C318 H320 0.961 1_545 S
C318 H321 0.960 . S
H319 C318 0.961 . S
H320 C318 0.961 1_565 S
H321 C318 0.960 . S
C322 N323 1.342 . S
C322 C326 1.401 . S
C322 C327 1.499 . S
N323 Co306 1.989 . S
N323 C322 1.342 . S
N323 N324 1.388 . S
N324 Co307 1.993 . S
N324 N323 1.388 . S
N324 C325 1.346 . S
C325 N324 1.346 . S
C325 C326 1.396 . S
C325 C335 1.510 . S
C326 C322 1.401 . S
C326 C325 1.396 . S
C327 C322 1.499 . S
C327 H328 0.959 . S
C327 H329 0.960 . S
C327 H330 0.961 . S
H328 C327 0.959 . S
H329 C327 0.960 . S
H330 C327 0.961 . S
O331 Co306 1.967 . S
O331 C339 1.258 . S
O332 Co307 1.941 . S
O332 C339 1.266 . S
H333 C335 0.959 . S
H334 C335 0.961 . S
C335 C325 1.510 . S
C335 H333 0.959 . S
C335 H334 0.961 . S
C335 H336 0.960 . S
H336 C335 0.960 . S
H337 N317 0.862 . S
O338 Co306 1.920 . S
O338 C311 1.289 . S
C339 O331 1.258 . S
C339 O332 1.266 . S
Co340 O343 1.970 . S
Co340 N357 1.989 . S
Co340 O365 1.967 . S
Co340 O372 1.920 . S
Co341 O344 1.966 . S
Co341 N350 2.022 . S
Co341 N358 1.993 . S
Co341 O366 1.941 . S
C342 O343 1.258 . S
C342 O344 1.263 . S
O343 Co340 1.970 . S
O343 C342 1.258 . S
O344 Co341 1.966 . S
O344 C342 1.263 . S
C345 O346 1.235 1_545 S
C345 O372 1.289 1_545 S
O346 C345 1.235 1_565 S
C347 C349 1.400 . S
C347 N350 1.351 . S
C347 C352 1.501 1_455 S
C348 C349 1.387 . S
C348 N351 1.341 . S
C349 C347 1.400 . S
C349 C348 1.387 . S
N350 Co341 2.022 . S
N350 C347 1.351 . S
N350 N351 1.365 . S
N351 C348 1.341 . S
N351 N350 1.365 . S
N351 H371 0.862 . S
C352 C347 1.501 1_655 S
C352 H353 0.961 . S
C352 H354 0.961 1_655 S
C352 H355 0.960 . S
H353 C352 0.961 . S
H354 C352 0.961 1_455 S
H355 C352 0.960 . S
C356 N357 1.342 . S
C356 C360 1.401 . S
C356 C361 1.499 . S
N357 Co340 1.989 . S
N357 C356 1.342 . S
N357 N358 1.388 . S
N358 Co341 1.993 . S
N358 N357 1.388 . S
N358 C359 1.346 . S
C359 N358 1.346 . S
C359 C360 1.396 . S
C359 C369 1.510 . S
C360 C356 1.401 . S
C360 C359 1.396 . S
C361 C356 1.499 . S
C361 H362 0.959 . S
C361 H363 0.960 . S
C361 H364 0.961 . S
H362 C361 0.959 . S
H363 C361 0.960 . S
H364 C361 0.961 . S
O365 Co340 1.967 . S
O365 C373 1.258 . S
O366 Co341 1.941 . S
O366 C373 1.266 . S
H367 C369 0.959 . S
H368 C369 0.961 . S
C369 C359 1.510 . S
C369 H367 0.959 . S
C369 H368 0.961 . S
C369 H370 0.960 . S
H370 C369 0.960 . S
H371 N351 0.862 . S
O372 Co340 1.920 . S
O372 C345 1.289 1_565 S
C373 O365 1.258 . S
C373 O366 1.266 . S
Co374 O377 1.970 . S
Co374 N391 1.989 . S
Co374 O399 1.967 . S
Co374 O406 1.920 . S
Co375 O378 1.966 . S
Co375 N384 2.022 . S
Co375 N392 1.993 . S
Co375 O400 1.941 . S
C376 O377 1.258 . S
C376 O378 1.263 . S
O377 Co374 1.970 . S
O377 C376 1.258 . S
O378 Co375 1.966 . S
O378 C376 1.263 . S
C379 O380 1.235 1_655 S
C379 O406 1.289 1_655 S
O380 C379 1.235 1_455 S
C381 C383 1.400 . S
C381 N384 1.351 . S
C381 C386 1.501 . S
C382 C383 1.387 . S
C382 N385 1.341 . S
C383 C381 1.400 . S
C383 C382 1.387 . S
N384 Co375 2.022 . S
N384 C381 1.351 . S
N384 N385 1.365 . S
N385 C382 1.341 . S
N385 N384 1.365 . S
N385 H405 0.862 . S
C386 C381 1.501 . S
C386 H387 0.961 . S
C386 H388 0.961 . S
C386 H389 0.960 . S
H387 C386 0.961 . S
H388 C386 0.961 . S
H389 C386 0.960 . S
C390 N391 1.342 . S
C390 C394 1.401 . S
C390 C395 1.499 . S
N391 Co374 1.989 . S
N391 C390 1.342 . S
N391 N392 1.388 . S
N392 Co375 1.993 . S
N392 N391 1.388 . S
N392 C393 1.346 . S
C393 N392 1.346 . S
C393 C394 1.396 . S
C393 C403 1.510 . S
C394 C390 1.401 . S
C394 C393 1.396 . S
C395 C390 1.499 . S
C395 H396 0.959 . S
C395 H397 0.960 . S
C395 H398 0.961 . S
H396 C395 0.959 . S
H397 C395 0.960 . S
H398 C395 0.961 . S
O399 Co374 1.967 . S
O399 C407 1.258 . S
O400 Co375 1.941 . S
O400 C407 1.266 . S
H401 C403 0.959 . S
H402 C403 0.961 . S
C403 C393 1.510 . S
C403 H401 0.959 . S
C403 H402 0.961 . S
C403 H404 0.960 . S
H404 C403 0.960 . S
H405 N385 0.862 . S
O406 Co374 1.920 . S
O406 C379 1.289 1_455 S
C407 O399 1.258 . S
C407 O400 1.266 . S
Co408 O411 1.970 . S
Co408 N425 1.989 . S
Co408 O433 1.967 . S
Co408 O440 1.920 . S
Co409 O412 1.966 . S
Co409 N418 2.022 . S
Co409 N426 1.993 . S
Co409 O434 1.941 . S
C410 O411 1.258 . S
C410 O412 1.263 . S
O411 Co408 1.970 . S
O411 C410 1.258 . S
O412 Co409 1.966 . S
O412 C410 1.263 . S
C413 O414 1.235 . S
C413 O440 1.289 . S
O414 C413 1.235 . S
C415 C417 1.400 . S
C415 N418 1.351 . S
C415 C420 1.501 . S
C416 C417 1.387 . S
C416 N419 1.341 . S
C417 C415 1.400 . S
C417 C416 1.387 . S
N418 Co409 2.022 . S
N418 C415 1.351 . S
N418 N419 1.365 . S
N419 C416 1.341 . S
N419 N418 1.365 . S
N419 H439 0.862 . S
C420 C415 1.501 . S
C420 H421 0.961 . S
C420 H422 0.961 . S
C420 H423 0.960 . S
H421 C420 0.961 . S
H422 C420 0.961 . S
H423 C420 0.960 . S
C424 N425 1.342 . S
C424 C428 1.401 . S
C424 C429 1.499 . S
N425 Co408 1.989 . S
N425 C424 1.342 . S
N425 N426 1.388 . S
N426 Co409 1.993 . S
N426 N425 1.388 . S
N426 C427 1.346 . S
C427 N426 1.346 . S
C427 C428 1.396 . S
C427 C437 1.510 . S
C428 C424 1.401 . S
C428 C427 1.396 . S
C429 C424 1.499 . S
C429 H430 0.959 . S
C429 H431 0.960 . S
C429 H432 0.961 . S
H430 C429 0.959 . S
H431 C429 0.960 . S
H432 C429 0.961 . S
O433 Co408 1.967 . S
O433 C441 1.258 . S
O434 Co409 1.941 . S
O434 C441 1.266 . S
H435 C437 0.959 . S
H436 C437 0.961 . S
C437 C427 1.510 . S
C437 H435 0.959 . S
C437 H436 0.961 . S
C437 H438 0.960 . S
H438 C437 0.960 . S
H439 N419 0.862 . S
O440 Co408 1.920 . S
O440 C413 1.289 . S
C441 O433 1.258 . S
C441 O434 1.266 . S
Co442 O445 1.970 . S
Co442 N459 1.989 . S
Co442 O467 1.967 . S
Co442 O474 1.920 . S
Co443 O446 1.966 . S
Co443 N452 2.022 . S
Co443 N460 1.993 . S
Co443 O468 1.941 . S
C444 O445 1.258 . S
C444 O446 1.263 . S
O445 Co442 1.970 . S
O445 C444 1.258 . S
O446 Co443 1.966 . S
O446 C444 1.263 . S
C447 O448 1.235 . S
C447 O474 1.289 . S
O448 C447 1.235 . S
C449 C451 1.400 . S
C449 N452 1.351 . S
C449 C454 1.501 . S
C450 C451 1.387 . S
C450 N453 1.341 . S
C451 C449 1.400 . S
C451 C450 1.387 . S
N452 Co443 2.022 . S
N452 C449 1.351 . S
N452 N453 1.365 . S
N453 C450 1.341 . S
N453 N452 1.365 . S
N453 H473 0.862 . S
C454 C449 1.501 . S
C454 H455 0.961 . S
C454 H456 0.961 . S
C454 H457 0.960 . S
H455 C454 0.961 . S
H456 C454 0.961 . S
H457 C454 0.960 . S
C458 N459 1.342 . S
C458 C462 1.401 . S
C458 C463 1.499 . S
N459 Co442 1.989 . S
N459 C458 1.342 . S
N459 N460 1.388 . S
N460 Co443 1.993 . S
N460 N459 1.388 . S
N460 C461 1.346 . S
C461 N460 1.346 . S
C461 C462 1.396 . S
C461 C471 1.510 . S
C462 C458 1.401 . S
C462 C461 1.396 . S
C463 C458 1.499 . S
C463 H464 0.959 . S
C463 H465 0.960 . S
C463 H466 0.961 . S
H464 C463 0.959 . S
H465 C463 0.960 . S
H466 C463 0.961 . S
O467 Co442 1.967 . S
O467 C475 1.258 . S
O468 Co443 1.941 . S
O468 C475 1.266 . S
H469 C471 0.959 . S
H470 C471 0.961 . S
C471 C461 1.510 . S
C471 H469 0.959 . S
C471 H470 0.961 . S
C471 H472 0.960 . S
H472 C471 0.960 . S
H473 N453 0.862 . S
O474 Co442 1.920 . S
O474 C447 1.289 . S
C475 O467 1.258 . S
C475 O468 1.266 . S
Co476 O479 1.970 . S
Co476 N493 1.989 . S
Co476 O501 1.967 . S
Co476 O508 1.920 . S
Co477 O480 1.966 . S
Co477 N486 2.022 . S
Co477 N494 1.993 . S
Co477 O502 1.941 . S
C478 O479 1.258 . S
C478 O480 1.263 . S
O479 Co476 1.970 . S
O479 C478 1.258 . S
O480 Co477 1.966 . S
O480 C478 1.263 . S
C481 O482 1.235 . S
C481 O508 1.289 . S
O482 C481 1.235 . S
C483 C485 1.400 . S
C483 N486 1.351 . S
C483 C488 1.501 . S
C484 C485 1.387 . S
C484 N487 1.341 . S
C485 C483 1.400 . S
C485 C484 1.387 . S
N486 Co477 2.022 . S
N486 C483 1.351 . S
N486 N487 1.365 . S
N487 C484 1.341 . S
N487 N486 1.365 . S
N487 H507 0.862 . S
C488 C483 1.501 . S
C488 H489 0.961 . S
C488 H490 0.961 . S
C488 H491 0.960 . S
H489 C488 0.961 . S
H490 C488 0.961 . S
H491 C488 0.960 . S
C492 N493 1.342 . S
C492 C496 1.401 . S
C492 C497 1.499 . S
N493 Co476 1.989 . S
N493 C492 1.342 . S
N493 N494 1.388 . S
N494 Co477 1.993 . S
N494 N493 1.388 . S
N494 C495 1.346 . S
C495 N494 1.346 . S
C495 C496 1.396 . S
C495 C505 1.510 . S
C496 C492 1.401 . S
C496 C495 1.396 . S
C497 C492 1.499 . S
C497 H498 0.959 . S
C497 H499 0.960 . S
C497 H500 0.961 . S
H498 C497 0.959 . S
H499 C497 0.960 . S
H500 C497 0.961 . S
O501 Co476 1.967 . S
O501 C509 1.258 . S
O502 Co477 1.941 . S
O502 C509 1.266 . S
H503 C505 0.959 . S
H504 C505 0.961 . S
C505 C495 1.510 . S
C505 H503 0.959 . S
C505 H504 0.961 . S
C505 H506 0.960 . S
H506 C505 0.960 . S
H507 N487 0.862 . S
O508 Co476 1.920 . S
O508 C481 1.289 . S
C509 O501 1.258 . S
C509 O502 1.266 . S
Co510 O513 1.970 . S
Co510 N527 1.989 . S
Co510 O535 1.967 . S
Co510 O542 1.920 . S
Co511 O514 1.966 . S
Co511 N520 2.022 . S
Co511 N528 1.993 . S
Co511 O536 1.941 . S
C512 O513 1.258 . S
C512 O514 1.263 . S
O513 Co510 1.970 . S
O513 C512 1.258 . S
O514 Co511 1.966 . S
O514 C512 1.263 . S
C515 O516 1.235 . S
C515 O542 1.289 . S
O516 C515 1.235 . S
C517 C519 1.400 1_655 S
C517 N520 1.351 . S
C517 C522 1.501 . S
C518 C519 1.387 . S
C518 N521 1.341 . S
C519 C517 1.400 1_455 S
C519 C518 1.387 . S
N520 Co511 2.022 . S
N520 C517 1.351 . S
N520 N521 1.365 1_655 S
N521 C518 1.341 . S
N521 N520 1.365 1_455 S
N521 H541 0.862 . S
C522 C517 1.501 . S
C522 H523 0.961 . S
C522 H524 0.961 . S
C522 H525 0.960 . S
H523 C522 0.961 . S
H524 C522 0.961 . S
H525 C522 0.960 . S
C526 N527 1.342 . S
C526 C530 1.401 . S
C526 C531 1.499 . S
N527 Co510 1.989 . S
N527 C526 1.342 . S
N527 N528 1.388 . S
N528 Co511 1.993 . S
N528 N527 1.388 . S
N528 C529 1.346 . S
C529 N528 1.346 . S
C529 C530 1.396 . S
C529 C539 1.510 1_655 S
C530 C526 1.401 . S
C530 C529 1.396 . S
C531 C526 1.499 . S
C531 H532 0.959 . S
C531 H533 0.960 . S
C531 H534 0.961 . S
H532 C531 0.959 . S
H533 C531 0.960 . S
H534 C531 0.961 . S
O535 Co510 1.967 . S
O535 C543 1.258 . S
O536 Co511 1.941 . S
O536 C543 1.266 . S
H537 C539 0.959 . S
H538 C539 0.961 . S
C539 C529 1.510 1_455 S
C539 H537 0.959 . S
C539 H538 0.961 . S
C539 H540 0.960 . S
H540 C539 0.960 . S
H541 N521 0.862 . S
O542 Co510 1.920 . S
O542 C515 1.289 . S
C543 O535 1.258 . S
C543 O536 1.266 . S
Co544 O547 1.970 . S
Co544 N561 1.989 . S
Co544 O569 1.967 . S
Co544 O576 1.920 . S
Co545 O548 1.966 . S
Co545 N554 2.022 . S
Co545 N562 1.993 . S
Co545 O570 1.941 . S
C546 O547 1.258 . S
C546 O548 1.263 . S
O547 Co544 1.970 . S
O547 C546 1.258 . S
O548 Co545 1.966 . S
O548 C546 1.263 . S
C549 O550 1.235 . S
C549 O576 1.289 . S
O550 C549 1.235 . S
C551 C553 1.400 . S
C551 N554 1.351 . S
C551 C556 1.501 . S
C552 C553 1.387 . S
C552 N555 1.341 . S
C553 C551 1.400 . S
C553 C552 1.387 . S
N554 Co545 2.022 . S
N554 C551 1.351 . S
N554 N555 1.365 . S
N555 C552 1.341 . S
N555 N554 1.365 . S
N555 H575 0.862 . S
C556 C551 1.501 . S
C556 H557 0.961 . S
C556 H558 0.961 . S
C556 H559 0.960 . S
H557 C556 0.961 . S
H558 C556 0.961 . S
H559 C556 0.960 . S
C560 N561 1.342 . S
C560 C564 1.401 . S
C560 C565 1.499 . S
N561 Co544 1.989 . S
N561 C560 1.342 . S
N561 N562 1.388 . S
N562 Co545 1.993 . S
N562 N561 1.388 . S
N562 C563 1.346 . S
C563 N562 1.346 . S
C563 C564 1.396 . S
C563 C573 1.510 . S
C564 C560 1.401 . S
C564 C563 1.396 . S
C565 C560 1.499 . S
C565 H566 0.959 . S
C565 H567 0.960 . S
C565 H568 0.961 . S
H566 C565 0.959 . S
H567 C565 0.960 . S
H568 C565 0.961 . S
O569 Co544 1.967 . S
O569 C577 1.258 . S
O570 Co545 1.941 . S
O570 C577 1.266 . S
H571 C573 0.959 . S
H572 C573 0.961 . S
C573 C563 1.510 . S
C573 H571 0.959 . S
C573 H572 0.961 . S
C573 H574 0.960 . S
H574 C573 0.960 . S
H575 N555 0.862 . S
O576 Co544 1.920 . S
O576 C549 1.289 . S
C577 O569 1.258 . S
C577 O570 1.266 . S
Co578 O581 1.970 . S
Co578 N595 1.989 . S
Co578 O603 1.967 . S
Co578 O610 1.920 . S
Co579 O582 1.966 . S
Co579 N588 2.022 . S
Co579 N596 1.993 . S
Co579 O604 1.941 . S
C580 O581 1.258 . S
C580 O582 1.263 . S
O581 Co578 1.970 . S
O581 C580 1.258 . S
O582 Co579 1.966 . S
O582 C580 1.263 . S
C583 O584 1.235 . S
C583 O610 1.289 . S
O584 C583 1.235 . S
C585 C587 1.400 1_545 S
C585 N588 1.351 . S
C585 C590 1.501 . S
C586 C587 1.387 . S
C586 N589 1.341 . S
C587 C585 1.400 1_565 S
C587 C586 1.387 . S
N588 Co579 2.022 . S
N588 C585 1.351 . S
N588 N589 1.365 1_545 S
N589 C586 1.341 . S
N589 N588 1.365 1_565 S
N589 H609 0.862 . S
C590 C585 1.501 . S
C590 H591 0.961 . S
C590 H592 0.961 . S
C590 H593 0.960 . S
H591 C590 0.961 . S
H592 C590 0.961 . S
H593 C590 0.960 . S
C594 N595 1.342 . S
C594 C598 1.401 . S
C594 C599 1.499 . S
N595 Co578 1.989 . S
N595 C594 1.342 . S
N595 N596 1.388 . S
N596 Co579 1.993 . S
N596 N595 1.388 . S
N596 C597 1.346 . S
C597 N596 1.346 . S
C597 C598 1.396 . S
C597 C607 1.510 1_545 S
C598 C594 1.401 . S
C598 C597 1.396 . S
C599 C594 1.499 . S
C599 H600 0.959 . S
C599 H601 0.960 . S
C599 H602 0.961 . S
H600 C599 0.959 . S
H601 C599 0.960 . S
H602 C599 0.961 . S
O603 Co578 1.967 . S
O603 C611 1.258 . S
O604 Co579 1.941 . S
O604 C611 1.266 . S
H605 C607 0.959 . S
H606 C607 0.961 . S
C607 C597 1.510 1_565 S
C607 H605 0.959 . S
C607 H606 0.961 . S
C607 H608 0.960 . S
H608 C607 0.960 . S
H609 N589 0.862 . S
O610 Co578 1.920 . S
O610 C583 1.289 . S
C611 O603 1.258 . S
C611 O604 1.266 . S
Co612 O615 1.970 . S
Co612 N629 1.989 . S
Co612 O637 1.967 . S
Co612 O644 1.920 . S
Co613 O616 1.966 . S
Co613 N622 2.022 . S
Co613 N630 1.993 . S
Co613 O638 1.941 . S
C614 O615 1.258 . S
C614 O616 1.263 . S
O615 Co612 1.970 . S
O615 C614 1.258 . S
O616 Co613 1.966 . S
O616 C614 1.263 . S
C617 O618 1.235 . S
C617 O644 1.289 . S
O618 C617 1.235 . S
C619 C621 1.400 1_545 S
C619 N622 1.351 . S
C619 C624 1.501 . S
C620 C621 1.387 . S
C620 N623 1.341 . S
C621 C619 1.400 1_565 S
C621 C620 1.387 . S
N622 Co613 2.022 . S
N622 C619 1.351 . S
N622 N623 1.365 1_545 S
N623 C620 1.341 . S
N623 N622 1.365 1_565 S
N623 H643 0.862 . S
C624 C619 1.501 . S
C624 H625 0.961 . S
C624 H626 0.961 . S
C624 H627 0.960 . S
H625 C624 0.961 . S
H626 C624 0.961 . S
H627 C624 0.960 . S
C628 N629 1.342 . S
C628 C632 1.401 . S
C628 C633 1.499 . S
N629 Co612 1.989 . S
N629 C628 1.342 . S
N629 N630 1.388 . S
N630 Co613 1.993 . S
N630 N629 1.388 . S
N630 C631 1.346 . S
C631 N630 1.346 . S
C631 C632 1.396 . S
C631 C641 1.510 1_545 S
C632 C628 1.401 . S
C632 C631 1.396 . S
C633 C628 1.499 . S
C633 H634 0.959 . S
C633 H635 0.960 . S
C633 H636 0.961 . S
H634 C633 0.959 . S
H635 C633 0.960 . S
H636 C633 0.961 . S
O637 Co612 1.967 . S
O637 C645 1.258 . S
O638 Co613 1.941 . S
O638 C645 1.266 . S
H639 C641 0.959 . S
H640 C641 0.961 . S
C641 C631 1.510 1_565 S
C641 H639 0.959 . S
C641 H640 0.961 . S
C641 H642 0.960 . S
H642 C641 0.960 . S
H643 N623 0.862 . S
O644 Co612 1.920 . S
O644 C617 1.289 . S
C645 O637 1.258 . S
C645 O638 1.266 . S
Co646 O649 1.970 . S
Co646 N663 1.989 . S
Co646 O671 1.967 . S
Co646 O678 1.920 . S
Co647 O650 1.966 . S
Co647 N656 2.022 . S
Co647 N664 1.993 . S
Co647 O672 1.941 . S
C648 O649 1.258 . S
C648 O650 1.263 . S
O649 Co646 1.970 . S
O649 C648 1.258 . S
O650 Co647 1.966 . S
O650 C648 1.263 . S
C651 O652 1.235 . S
C651 O678 1.289 . S
O652 C651 1.235 . S
C653 C655 1.400 1_655 S
C653 N656 1.351 . S
C653 C658 1.501 . S
C654 C655 1.387 . S
C654 N657 1.341 . S
C655 C653 1.400 1_455 S
C655 C654 1.387 . S
N656 Co647 2.022 . S
N656 C653 1.351 . S
N656 N657 1.365 1_655 S
N657 C654 1.341 . S
N657 N656 1.365 1_455 S
N657 H677 0.862 . S
C658 C653 1.501 . S
C658 H659 0.961 . S
C658 H660 0.961 . S
C658 H661 0.960 . S
H659 C658 0.961 . S
H660 C658 0.961 . S
H661 C658 0.960 . S
C662 N663 1.342 . S
C662 C666 1.401 . S
C662 C667 1.499 . S
N663 Co646 1.989 . S
N663 C662 1.342 . S
N663 N664 1.388 . S
N664 Co647 1.993 . S
N664 N663 1.388 . S
N664 C665 1.346 . S
C665 N664 1.346 . S
C665 C666 1.396 . S
C665 C675 1.510 1_655 S
C666 C662 1.401 . S
C666 C665 1.396 . S
C667 C662 1.499 . S
C667 H668 0.959 . S
C667 H669 0.960 . S
C667 H670 0.961 . S
H668 C667 0.959 . S
H669 C667 0.960 . S
H670 C667 0.961 . S
O671 Co646 1.967 . S
O671 C679 1.258 . S
O672 Co647 1.941 . S
O672 C679 1.266 . S
H673 C675 0.959 . S
H674 C675 0.961 . S
C675 C665 1.510 1_455 S
C675 H673 0.959 . S
C675 H674 0.961 . S
C675 H676 0.960 . S
H676 C675 0.960 . S
H677 N657 0.862 . S
O678 Co646 1.920 . S
O678 C651 1.289 . S
C679 O671 1.258 . S
C679 O672 1.266 . S
Co680 O683 1.970 . S
Co680 N697 1.989 . S
Co680 O705 1.967 . S
Co680 O712 1.920 . S
Co681 O684 1.966 . S
Co681 N690 2.022 . S
Co681 N698 1.993 . S
Co681 O706 1.941 . S
C682 O683 1.258 . S
C682 O684 1.263 . S
O683 Co680 1.970 . S
O683 C682 1.258 . S
O684 Co681 1.966 . S
O684 C682 1.263 . S
C685 O686 1.235 . S
C685 O712 1.289 . S
O686 C685 1.235 . S
C687 C689 1.400 . S
C687 N690 1.351 . S
C687 C692 1.501 . S
C688 C689 1.387 . S
C688 N691 1.341 . S
C689 C687 1.400 . S
C689 C688 1.387 . S
N690 Co681 2.022 . S
N690 C687 1.351 . S
N690 N691 1.365 . S
N691 C688 1.341 . S
N691 N690 1.365 . S
N691 H711 0.862 . S
C692 C687 1.501 . S
C692 H693 0.961 . S
C692 H694 0.961 . S
C692 H695 0.960 . S
H693 C692 0.961 . S
H694 C692 0.961 . S
H695 C692 0.960 . S
C696 N697 1.342 . S
C696 C700 1.401 . S
C696 C701 1.499 . S
N697 Co680 1.989 . S
N697 C696 1.342 . S
N697 N698 1.388 . S
N698 Co681 1.993 . S
N698 N697 1.388 . S
N698 C699 1.346 . S
C699 N698 1.346 . S
C699 C700 1.396 . S
C699 C709 1.510 . S
C700 C696 1.401 . S
C700 C699 1.396 . S
C701 C696 1.499 . S
C701 H702 0.959 . S
C701 H703 0.960 . S
C701 H704 0.961 . S
H702 C701 0.959 . S
H703 C701 0.960 . S
H704 C701 0.961 . S
O705 Co680 1.967 . S
O705 C713 1.258 . S
O706 Co681 1.941 . S
O706 C713 1.266 . S
H707 C709 0.959 . S
H708 C709 0.961 . S
C709 C699 1.510 . S
C709 H707 0.959 . S
C709 H708 0.961 . S
C709 H710 0.960 . S
H710 C709 0.960 . S
H711 N691 0.862 . S
O712 Co680 1.920 . S
O712 C685 1.289 . S
C713 O705 1.258 . S
C713 O706 1.266 . S
Co714 O717 1.970 . S
Co714 N731 1.989 . S
Co714 O739 1.967 . S
Co714 O746 1.920 . S
Co715 O718 1.966 . S
Co715 N724 2.022 . S
Co715 N732 1.993 . S
Co715 O740 1.941 . S
C716 O717 1.258 . S
C716 O718 1.263 . S
O717 Co714 1.970 . S
O717 C716 1.258 . S
O718 Co715 1.966 . S
O718 C716 1.263 . S
C719 O720 1.235 . S
C719 O746 1.289 . S
O720 C719 1.235 . S
C721 C723 1.400 . S
C721 N724 1.351 . S
C721 C726 1.501 . S
C722 C723 1.387 . S
C722 N725 1.341 . S
C723 C721 1.400 . S
C723 C722 1.387 . S
N724 Co715 2.022 . S
N724 C721 1.351 . S
N724 N725 1.365 . S
N725 C722 1.341 . S
N725 N724 1.365 . S
N725 H745 0.862 . S
C726 C721 1.501 . S
C726 H727 0.961 . S
C726 H728 0.961 . S
C726 H729 0.960 . S
H727 C726 0.961 . S
H728 C726 0.961 . S
H729 C726 0.960 . S
C730 N731 1.342 . S
C730 C734 1.401 . S
C730 C735 1.499 . S
N731 Co714 1.989 . S
N731 C730 1.342 . S
N731 N732 1.388 . S
N732 Co715 1.993 . S
N732 N731 1.388 . S
N732 C733 1.346 . S
C733 N732 1.346 . S
C733 C734 1.396 . S
C733 C743 1.510 . S
C734 C730 1.401 . S
C734 C733 1.396 . S
C735 C730 1.499 . S
C735 H736 0.959 . S
C735 H737 0.960 . S
C735 H738 0.961 . S
H736 C735 0.959 . S
H737 C735 0.960 . S
H738 C735 0.961 . S
O739 Co714 1.967 . S
O739 C747 1.258 . S
O740 Co715 1.941 . S
O740 C747 1.266 . S
H741 C743 0.959 . S
H742 C743 0.961 . S
C743 C733 1.510 . S
C743 H741 0.959 . S
C743 H742 0.961 . S
C743 H744 0.960 . S
H744 C743 0.960 . S
H745 N725 0.862 . S
O746 Co714 1.920 . S
O746 C719 1.289 . S
C747 O739 1.258 . S
C747 O740 1.266 . S
Co748 O751 1.970 . S
Co748 N765 1.989 . S
Co748 O773 1.967 . S
Co748 O780 1.920 . S
Co749 O752 1.966 . S
Co749 N758 2.022 . S
Co749 N766 1.993 . S
Co749 O774 1.941 . S
C750 O751 1.258 . S
C750 O752 1.263 . S
O751 Co748 1.970 . S
O751 C750 1.258 . S
O752 Co749 1.966 . S
O752 C750 1.263 . S
C753 O754 1.235 . S
C753 O780 1.289 . S
O754 C753 1.235 . S
C755 C757 1.400 . S
C755 N758 1.351 . S
C755 C760 1.501 . S
C756 C757 1.387 . S
C756 N759 1.341 . S
C757 C755 1.400 . S
C757 C756 1.387 . S
N758 Co749 2.022 . S
N758 C755 1.351 . S
N758 N759 1.365 . S
N759 C756 1.341 . S
N759 N758 1.365 . S
N759 H779 0.862 . S
C760 C755 1.501 . S
C760 H761 0.961 . S
C760 H762 0.961 . S
C760 H763 0.960 . S
H761 C760 0.961 . S
H762 C760 0.961 . S
H763 C760 0.960 . S
C764 N765 1.342 . S
C764 C768 1.401 . S
C764 C769 1.499 . S
N765 Co748 1.989 . S
N765 C764 1.342 . S
N765 N766 1.388 . S
N766 Co749 1.993 . S
N766 N765 1.388 . S
N766 C767 1.346 . S
C767 N766 1.346 . S
C767 C768 1.396 . S
C767 C777 1.510 . S
C768 C764 1.401 . S
C768 C767 1.396 . S
C769 C764 1.499 . S
C769 H770 0.959 . S
C769 H771 0.960 . S
C769 H772 0.961 . S
H770 C769 0.959 . S
H771 C769 0.960 . S
H772 C769 0.961 . S
O773 Co748 1.967 . S
O773 C781 1.258 . S
O774 Co749 1.941 . S
O774 C781 1.266 . S
H775 C777 0.959 . S
H776 C777 0.961 . S
C777 C767 1.510 . S
C777 H775 0.959 . S
C777 H776 0.961 . S
C777 H778 0.960 . S
H778 C777 0.960 . S
H779 N759 0.862 . S
O780 Co748 1.920 . S
O780 C753 1.289 . S
C781 O773 1.258 . S
C781 O774 1.266 . S
Co782 O785 1.970 . S
Co782 N799 1.989 . S
Co782 O807 1.967 . S
Co782 O814 1.920 . S
Co783 O786 1.966 . S
Co783 N792 2.022 . S
Co783 N800 1.993 . S
Co783 O808 1.941 . S
C784 O785 1.258 . S
C784 O786 1.263 . S
O785 Co782 1.970 . S
O785 C784 1.258 . S
O786 Co783 1.966 . S
O786 C784 1.263 . S
C787 O788 1.235 . S
C787 O814 1.289 . S
O788 C787 1.235 . S
C789 C791 1.400 . S
C789 N792 1.351 . S
C789 C794 1.501 . S
C790 C791 1.387 . S
C790 N793 1.341 . S
C791 C789 1.400 . S
C791 C790 1.387 . S
N792 Co783 2.022 . S
N792 C789 1.351 . S
N792 N793 1.365 . S
N793 C790 1.341 . S
N793 N792 1.365 . S
N793 H813 0.862 . S
C794 C789 1.501 . S
C794 H795 0.961 . S
C794 H796 0.961 . S
C794 H797 0.960 . S
H795 C794 0.961 . S
H796 C794 0.961 . S
H797 C794 0.960 . S
C798 N799 1.342 . S
C798 C802 1.401 . S
C798 C803 1.499 . S
N799 Co782 1.989 . S
N799 C798 1.342 . S
N799 N800 1.388 . S
N800 Co783 1.993 . S
N800 N799 1.388 . S
N800 C801 1.346 . S
C801 N800 1.346 . S
C801 C802 1.396 . S
C801 C811 1.510 . S
C802 C798 1.401 . S
C802 C801 1.396 . S
C803 C798 1.499 . S
C803 H804 0.959 . S
C803 H805 0.960 . S
C803 H806 0.961 . S
H804 C803 0.959 . S
H805 C803 0.960 . S
H806 C803 0.961 . S
O807 Co782 1.967 . S
O807 C815 1.258 . S
O808 Co783 1.941 . S
O808 C815 1.266 . S
H809 C811 0.959 . S
H810 C811 0.961 . S
C811 C801 1.510 . S
C811 H809 0.959 . S
C811 H810 0.961 . S
C811 H812 0.960 . S
H812 C811 0.960 . S
H813 N793 0.862 . S
O814 Co782 1.920 . S
O814 C787 1.289 . S
C815 O807 1.258 . S
C815 O808 1.266 . S
Co816 O819 1.970 . S
Co816 N833 1.989 . S
Co816 O841 1.967 . S
Co816 O848 1.920 . S
Co817 O820 1.966 . S
Co817 N826 2.022 . S
Co817 N834 1.993 . S
Co817 O842 1.941 . S
C818 O819 1.258 . S
C818 O820 1.263 . S
O819 Co816 1.970 . S
O819 C818 1.258 . S
O820 Co817 1.966 . S
O820 C818 1.263 . S
C821 O822 1.235 . S
C821 O848 1.289 . S
O822 C821 1.235 . S
C823 C825 1.400 1_565 S
C823 N826 1.351 . S
C823 C828 1.501 . S
C824 C825 1.387 . S
C824 N827 1.341 . S
C825 C823 1.400 1_545 S
C825 C824 1.387 . S
N826 Co817 2.022 . S
N826 C823 1.351 . S
N826 N827 1.365 1_565 S
N827 C824 1.341 . S
N827 N826 1.365 1_545 S
N827 H847 0.862 . S
C828 C823 1.501 . S
C828 H829 0.961 . S
C828 H830 0.961 . S
C828 H831 0.960 . S
H829 C828 0.961 . S
H830 C828 0.961 . S
H831 C828 0.960 . S
C832 N833 1.342 . S
C832 C836 1.401 . S
C832 C837 1.499 . S
N833 Co816 1.989 . S
N833 C832 1.342 . S
N833 N834 1.388 . S
N834 Co817 1.993 . S
N834 N833 1.388 . S
N834 C835 1.346 . S
C835 N834 1.346 . S
C835 C836 1.396 . S
C835 C845 1.510 1_565 S
C836 C832 1.401 . S
C836 C835 1.396 . S
C837 C832 1.499 . S
C837 H838 0.959 . S
C837 H839 0.960 . S
C837 H840 0.961 . S
H838 C837 0.959 . S
H839 C837 0.960 . S
H840 C837 0.961 . S
O841 Co816 1.967 . S
O841 C849 1.258 . S
O842 Co817 1.941 . S
O842 C849 1.266 . S
H843 C845 0.959 . S
H844 C845 0.961 . S
C845 C835 1.510 1_545 S
C845 H843 0.959 . S
C845 H844 0.961 . S
C845 H846 0.960 . S
H846 C845 0.960 . S
H847 N827 0.862 . S
O848 Co816 1.920 . S
O848 C821 1.289 . S
C849 O841 1.258 . S
C849 O842 1.266 . S
Co850 O853 1.970 . S
Co850 N867 1.989 . S
Co850 O875 1.967 . S
Co850 O882 1.920 . S
Co851 O854 1.966 . S
Co851 N860 2.022 . S
Co851 N868 1.993 . S
Co851 O876 1.941 . S
C852 O853 1.258 . S
C852 O854 1.263 . S
O853 Co850 1.970 . S
O853 C852 1.258 . S
O854 Co851 1.966 . S
O854 C852 1.263 . S
C855 O856 1.235 . S
C855 O882 1.289 . S
O856 C855 1.235 . S
C857 C859 1.400 1_455 S
C857 N860 1.351 . S
C857 C862 1.501 . S
C858 C859 1.387 . S
C858 N861 1.341 . S
C859 C857 1.400 1_655 S
C859 C858 1.387 . S
N860 Co851 2.022 . S
N860 C857 1.351 . S
N860 N861 1.365 1_455 S
N861 C858 1.341 . S
N861 N860 1.365 1_655 S
N861 H881 0.862 . S
C862 C857 1.501 . S
C862 H863 0.961 . S
C862 H864 0.961 . S
C862 H865 0.960 . S
H863 C862 0.961 . S
H864 C862 0.961 . S
H865 C862 0.960 . S
C866 N867 1.342 . S
C866 C870 1.401 . S
C866 C871 1.499 . S
N867 Co850 1.989 . S
N867 C866 1.342 . S
N867 N868 1.388 . S
N868 Co851 1.993 . S
N868 N867 1.388 . S
N868 C869 1.346 . S
C869 N868 1.346 . S
C869 C870 1.396 . S
C869 C879 1.510 1_455 S
C870 C866 1.401 . S
C870 C869 1.396 . S
C871 C866 1.499 . S
C871 H872 0.959 . S
C871 H873 0.960 . S
C871 H874 0.961 . S
H872 C871 0.959 . S
H873 C871 0.960 . S
H874 C871 0.961 . S
O875 Co850 1.967 . S
O875 C883 1.258 . S
O876 Co851 1.941 . S
O876 C883 1.266 . S
H877 C879 0.959 . S
H878 C879 0.961 . S
C879 C869 1.510 1_655 S
C879 H877 0.959 . S
C879 H878 0.961 . S
C879 H880 0.960 . S
H880 C879 0.960 . S
H881 N861 0.862 . S
O882 Co850 1.920 . S
O882 C855 1.289 . S
C883 O875 1.258 . S
C883 O876 1.266 . S
Co884 O887 1.970 . S
Co884 N901 1.989 . S
Co884 O909 1.967 . S
Co884 O916 1.920 . S
Co885 O888 1.966 . S
Co885 N894 2.022 . S
Co885 N902 1.993 . S
Co885 O910 1.941 . S
C886 O887 1.258 . S
C886 O888 1.263 . S
O887 Co884 1.970 . S
O887 C886 1.258 . S
O888 Co885 1.966 . S
O888 C886 1.263 . S
C889 O890 1.235 . S
C889 O916 1.289 . S
O890 C889 1.235 . S
C891 C893 1.400 . S
C891 N894 1.351 . S
C891 C896 1.501 . S
C892 C893 1.387 . S
C892 N895 1.341 . S
C893 C891 1.400 . S
C893 C892 1.387 . S
N894 Co885 2.022 . S
N894 C891 1.351 . S
N894 N895 1.365 . S
N895 C892 1.341 . S
N895 N894 1.365 . S
N895 H915 0.862 . S
C896 C891 1.501 . S
C896 H897 0.961 . S
C896 H898 0.961 . S
C896 H899 0.960 . S
H897 C896 0.961 . S
H898 C896 0.961 . S
H899 C896 0.960 . S
C900 N901 1.342 . S
C900 C904 1.401 . S
C900 C905 1.499 . S
N901 Co884 1.989 . S
N901 C900 1.342 . S
N901 N902 1.388 . S
N902 Co885 1.993 . S
N902 N901 1.388 . S
N902 C903 1.346 . S
C903 N902 1.346 . S
C903 C904 1.396 . S
C903 C913 1.510 . S
C904 C900 1.401 . S
C904 C903 1.396 . S
C905 C900 1.499 . S
C905 H906 0.959 . S
C905 H907 0.960 . S
C905 H908 0.961 . S
H906 C905 0.959 . S
H907 C905 0.960 . S
H908 C905 0.961 . S
O909 Co884 1.967 . S
O909 C917 1.258 . S
O910 Co885 1.941 . S
O910 C917 1.266 . S
H911 C913 0.959 . S
H912 C913 0.961 . S
C913 C903 1.510 . S
C913 H911 0.959 . S
C913 H912 0.961 . S
C913 H914 0.960 . S
H914 C913 0.960 . S
H915 N895 0.862 . S
O916 Co884 1.920 . S
O916 C889 1.289 . S
C917 O909 1.258 . S
C917 O910 1.266 . S
Co918 O921 1.970 . S
Co918 N935 1.989 . S
Co918 O943 1.967 . S
Co918 O950 1.920 . S
Co919 O922 1.966 . S
Co919 N928 2.022 . S
Co919 N936 1.993 . S
Co919 O944 1.941 . S
C920 O921 1.258 . S
C920 O922 1.263 . S
O921 Co918 1.970 . S
O921 C920 1.258 . S
O922 Co919 1.966 . S
O922 C920 1.263 . S
C923 O924 1.235 . S
C923 O950 1.289 . S
O924 C923 1.235 . S
C925 C927 1.400 . S
C925 N928 1.351 . S
C925 C930 1.501 . S
C926 C927 1.387 . S
C926 N929 1.341 . S
C927 C925 1.400 . S
C927 C926 1.387 . S
N928 Co919 2.022 . S
N928 C925 1.351 . S
N928 N929 1.365 . S
N929 C926 1.341 . S
N929 N928 1.365 . S
N929 H949 0.862 . S
C930 C925 1.501 . S
C930 H931 0.961 . S
C930 H932 0.961 . S
C930 H933 0.960 . S
H931 C930 0.961 . S
H932 C930 0.961 . S
H933 C930 0.960 . S
C934 N935 1.342 . S
C934 C938 1.401 . S
C934 C939 1.499 . S
N935 Co918 1.989 . S
N935 C934 1.342 . S
N935 N936 1.388 . S
N936 Co919 1.993 . S
N936 N935 1.388 . S
N936 C937 1.346 . S
C937 N936 1.346 . S
C937 C938 1.396 . S
C937 C947 1.510 . S
C938 C934 1.401 . S
C938 C937 1.396 . S
C939 C934 1.499 . S
C939 H940 0.959 . S
C939 H941 0.960 . S
C939 H942 0.961 . S
H940 C939 0.959 . S
H941 C939 0.960 . S
H942 C939 0.961 . S
O943 Co918 1.967 . S
O943 C951 1.258 . S
O944 Co919 1.941 . S
O944 C951 1.266 . S
H945 C947 0.959 . S
H946 C947 0.961 . S
C947 C937 1.510 . S
C947 H945 0.959 . S
C947 H946 0.961 . S
C947 H948 0.960 . S
H948 C947 0.960 . S
H949 N929 0.862 . S
O950 Co918 1.920 . S
O950 C923 1.289 . S
C951 O943 1.258 . S
C951 O944 1.266 . S
Co952 O955 1.970 . S
Co952 N969 1.989 . S
Co952 O977 1.967 . S
Co952 O984 1.920 . S
Co953 O956 1.966 . S
Co953 N962 2.022 . S
Co953 N970 1.993 . S
Co953 O978 1.941 . S
C954 O955 1.258 . S
C954 O956 1.263 . S
O955 Co952 1.970 . S
O955 C954 1.258 . S
O956 Co953 1.966 . S
O956 C954 1.263 . S
C957 O958 1.235 . S
C957 O984 1.289 . S
O958 C957 1.235 . S
C959 C961 1.400 . S
C959 N962 1.351 . S
C959 C964 1.501 . S
C960 C961 1.387 . S
C960 N963 1.341 . S
C961 C959 1.400 . S
C961 C960 1.387 . S
N962 Co953 2.022 . S
N962 C959 1.351 . S
N962 N963 1.365 . S
N963 C960 1.341 . S
N963 N962 1.365 . S
N963 H983 0.862 . S
C964 C959 1.501 . S
C964 H965 0.961 . S
C964 H966 0.961 . S
C964 H967 0.960 . S
H965 C964 0.961 . S
H966 C964 0.961 . S
H967 C964 0.960 . S
C968 N969 1.342 . S
C968 C972 1.401 . S
C968 C973 1.499 . S
N969 Co952 1.989 . S
N969 C968 1.342 . S
N969 N970 1.388 . S
N970 Co953 1.993 . S
N970 N969 1.388 . S
N970 C971 1.346 . S
C971 N970 1.346 . S
C971 C972 1.396 . S
C971 C981 1.510 . S
C972 C968 1.401 . S
C972 C971 1.396 . S
C973 C968 1.499 . S
C973 H974 0.959 . S
C973 H975 0.960 . S
C973 H976 0.961 . S
H974 C973 0.959 . S
H975 C973 0.960 . S
H976 C973 0.961 . S
O977 Co952 1.967 . S
O977 C985 1.258 . S
O978 Co953 1.941 . S
O978 C985 1.266 . S
H979 C981 0.959 . S
H980 C981 0.961 . S
C981 C971 1.510 . S
C981 H979 0.959 . S
C981 H980 0.961 . S
C981 H982 0.960 . S
H982 C981 0.960 . S
H983 N963 0.862 . S
O984 Co952 1.920 . S
O984 C957 1.289 . S
C985 O977 1.258 . S
C985 O978 1.266 . S
Co986 O989 1.970 . S
Co986 N1003 1.989 . S
Co986 O1011 1.967 . S
Co986 O1018 1.920 . S
Co987 O990 1.966 . S
Co987 N996 2.022 . S
Co987 N1004 1.993 . S
Co987 O1012 1.941 . S
C988 O989 1.258 . S
C988 O990 1.263 . S
O989 Co986 1.970 . S
O989 C988 1.258 . S
O990 Co987 1.966 . S
O990 C988 1.263 . S
C991 O992 1.235 . S
C991 O1018 1.289 . S
O992 C991 1.235 . S
C993 C995 1.400 . S
C993 N996 1.351 . S
C993 C998 1.501 . S
C994 C995 1.387 . S
C994 N997 1.341 . S
C995 C993 1.400 . S
C995 C994 1.387 . S
N996 Co987 2.022 . S
N996 C993 1.351 . S
N996 N997 1.365 . S
N997 C994 1.341 . S
N997 N996 1.365 . S
N997 H1017 0.862 . S
C998 C993 1.501 . S
C998 H999 0.961 . S
C998 H1000 0.961 . S
C998 H1001 0.960 . S
H999 C998 0.961 . S
H1000 C998 0.961 . S
H1001 C998 0.960 . S
C1002 N1003 1.342 . S
C1002 C1006 1.401 . S
C1002 C1007 1.499 . S
N1003 Co986 1.989 . S
N1003 C1002 1.342 . S
N1003 N1004 1.388 . S
N1004 Co987 1.993 . S
N1004 N1003 1.388 . S
N1004 C1005 1.346 . S
C1005 N1004 1.346 . S
C1005 C1006 1.396 . S
C1005 C1015 1.510 . S
C1006 C1002 1.401 . S
C1006 C1005 1.396 . S
C1007 C1002 1.499 . S
C1007 H1008 0.959 . S
C1007 H1009 0.960 . S
C1007 H1010 0.961 . S
H1008 C1007 0.959 . S
H1009 C1007 0.960 . S
H1010 C1007 0.961 . S
O1011 Co986 1.967 . S
O1011 C1019 1.258 . S
O1012 Co987 1.941 . S
O1012 C1019 1.266 . S
H1013 C1015 0.959 . S
H1014 C1015 0.961 . S
C1015 C1005 1.510 . S
C1015 H1013 0.959 . S
C1015 H1014 0.961 . S
C1015 H1016 0.960 . S
H1016 C1015 0.960 . S
H1017 N997 0.862 . S
O1018 Co986 1.920 . S
O1018 C991 1.289 . S
C1019 O1011 1.258 . S
C1019 O1012 1.266 . S
Co1020 O1023 1.970 . S
Co1020 N1037 1.989 . S
Co1020 O1045 1.967 . S
Co1020 O1052 1.920 . S
Co1021 O1024 1.966 . S
Co1021 N1030 2.022 . S
Co1021 N1038 1.993 . S
Co1021 O1046 1.941 . S
C1022 O1023 1.258 . S
C1022 O1024 1.263 . S
O1023 Co1020 1.970 . S
O1023 C1022 1.258 . S
O1024 Co1021 1.966 . S
O1024 C1022 1.263 . S
C1025 O1026 1.235 . S
C1025 O1052 1.289 . S
O1026 C1025 1.235 . S
C1027 C1029 1.400 . S
C1027 N1030 1.351 . S
C1027 C1032 1.501 . S
C1028 C1029 1.387 . S
C1028 N1031 1.341 . S
C1029 C1027 1.400 . S
C1029 C1028 1.387 . S
N1030 Co1021 2.022 . S
N1030 C1027 1.351 . S
N1030 N1031 1.365 . S
N1031 C1028 1.341 . S
N1031 N1030 1.365 . S
N1031 H1051 0.862 . S
C1032 C1027 1.501 . S
C1032 H1033 0.961 . S
C1032 H1034 0.961 . S
C1032 H1035 0.960 . S
H1033 C1032 0.961 . S
H1034 C1032 0.961 . S
H1035 C1032 0.960 . S
C1036 N1037 1.342 . S
C1036 C1040 1.401 . S
C1036 C1041 1.499 . S
N1037 Co1020 1.989 . S
N1037 C1036 1.342 . S
N1037 N1038 1.388 . S
N1038 Co1021 1.993 . S
N1038 N1037 1.388 . S
N1038 C1039 1.346 . S
C1039 N1038 1.346 . S
C1039 C1040 1.396 . S
C1039 C1049 1.510 . S
C1040 C1036 1.401 . S
C1040 C1039 1.396 . S
C1041 C1036 1.499 . S
C1041 H1042 0.959 . S
C1041 H1043 0.960 . S
C1041 H1044 0.961 . S
H1042 C1041 0.959 . S
H1043 C1041 0.960 . S
H1044 C1041 0.961 . S
O1045 Co1020 1.967 . S
O1045 C1053 1.258 . S
O1046 Co1021 1.941 . S
O1046 C1053 1.266 . S
H1047 C1049 0.959 . S
H1048 C1049 0.961 . S
C1049 C1039 1.510 . S
C1049 H1047 0.959 . S
C1049 H1048 0.961 . S
C1049 H1050 0.960 . S
H1050 C1049 0.960 . S
H1051 N1031 0.862 . S
O1052 Co1020 1.920 . S
O1052 C1025 1.289 . S
C1053 O1045 1.258 . S
C1053 O1046 1.266 . S
Co1054 O1057 1.970 . S
Co1054 N1071 1.989 . S
Co1054 O1079 1.967 . S
Co1054 O1086 1.920 . S
Co1055 O1058 1.966 . S
Co1055 N1064 2.022 . S
Co1055 N1072 1.993 . S
Co1055 O1080 1.941 . S
C1056 O1057 1.258 . S
C1056 O1058 1.263 . S
O1057 Co1054 1.970 . S
O1057 C1056 1.258 . S
O1058 Co1055 1.966 . S
O1058 C1056 1.263 . S
C1059 O1060 1.235 . S
C1059 O1086 1.289 . S
O1060 C1059 1.235 . S
C1061 C1063 1.400 . S
C1061 N1064 1.351 . S
C1061 C1066 1.501 . S
C1062 C1063 1.387 . S
C1062 N1065 1.341 . S
C1063 C1061 1.400 . S
C1063 C1062 1.387 . S
N1064 Co1055 2.022 . S
N1064 C1061 1.351 . S
N1064 N1065 1.365 . S
N1065 C1062 1.341 . S
N1065 N1064 1.365 . S
N1065 H1085 0.862 . S
C1066 C1061 1.501 . S
C1066 H1067 0.961 . S
C1066 H1068 0.961 . S
C1066 H1069 0.960 . S
H1067 C1066 0.961 . S
H1068 C1066 0.961 . S
H1069 C1066 0.960 . S
C1070 N1071 1.342 . S
C1070 C1074 1.401 . S
C1070 C1075 1.499 . S
N1071 Co1054 1.989 . S
N1071 C1070 1.342 . S
N1071 N1072 1.388 . S
N1072 Co1055 1.993 . S
N1072 N1071 1.388 . S
N1072 C1073 1.346 . S
C1073 N1072 1.346 . S
C1073 C1074 1.396 . S
C1073 C1083 1.510 . S
C1074 C1070 1.401 . S
C1074 C1073 1.396 . S
C1075 C1070 1.499 . S
C1075 H1076 0.959 . S
C1075 H1077 0.960 . S
C1075 H1078 0.961 . S
H1076 C1075 0.959 . S
H1077 C1075 0.960 . S
H1078 C1075 0.961 . S
O1079 Co1054 1.967 . S
O1079 C1087 1.258 . S
O1080 Co1055 1.941 . S
O1080 C1087 1.266 . S
H1081 C1083 0.959 . S
H1082 C1083 0.961 . S
C1083 C1073 1.510 . S
C1083 H1081 0.959 . S
C1083 H1082 0.961 . S
C1083 H1084 0.960 . S
H1084 C1083 0.960 . S
H1085 N1065 0.862 . S
O1086 Co1054 1.920 . S
O1086 C1059 1.289 . S
C1087 O1079 1.258 . S
C1087 O1080 1.266 . S
Co1088 O1091 1.970 . S
Co1088 N1105 1.989 . S
Co1088 O1113 1.967 . S
Co1088 O1120 1.920 . S
Co1089 O1092 1.966 . S
Co1089 N1098 2.022 . S
Co1089 N1106 1.993 . S
Co1089 O1114 1.941 . S
C1090 O1091 1.258 . S
C1090 O1092 1.263 . S
O1091 Co1088 1.970 . S
O1091 C1090 1.258 . S
O1092 Co1089 1.966 . S
O1092 C1090 1.263 . S
C1093 O1094 1.235 . S
C1093 O1120 1.289 . S
O1094 C1093 1.235 . S
C1095 C1097 1.400 . S
C1095 N1098 1.351 . S
C1095 C1100 1.501 . S
C1096 C1097 1.387 . S
C1096 N1099 1.341 . S
C1097 C1095 1.400 . S
C1097 C1096 1.387 . S
N1098 Co1089 2.022 . S
N1098 C1095 1.351 . S
N1098 N1099 1.365 . S
N1099 C1096 1.341 . S
N1099 N1098 1.365 . S
N1099 H1119 0.862 . S
C1100 C1095 1.501 . S
C1100 H1101 0.961 . S
C1100 H1102 0.961 . S
C1100 H1103 0.960 . S
H1101 C1100 0.961 . S
H1102 C1100 0.961 . S
H1103 C1100 0.960 . S
C1104 N1105 1.342 . S
C1104 C1108 1.401 . S
C1104 C1109 1.499 . S
N1105 Co1088 1.989 . S
N1105 C1104 1.342 . S
N1105 N1106 1.388 . S
N1106 Co1089 1.993 . S
N1106 N1105 1.388 . S
N1106 C1107 1.346 . S
C1107 N1106 1.346 . S
C1107 C1108 1.396 . S
C1107 C1117 1.510 . S
C1108 C1104 1.401 . S
C1108 C1107 1.396 . S
C1109 C1104 1.499 . S
C1109 H1110 0.959 . S
C1109 H1111 0.960 . S
C1109 H1112 0.961 . S
H1110 C1109 0.959 . S
H1111 C1109 0.960 . S
H1112 C1109 0.961 . S
O1113 Co1088 1.967 . S
O1113 C1121 1.258 . S
O1114 Co1089 1.941 . S
O1114 C1121 1.266 . S
H1115 C1117 0.959 . S
H1116 C1117 0.961 . S
C1117 C1107 1.510 . S
C1117 H1115 0.959 . S
C1117 H1116 0.961 . S
C1117 H1118 0.960 . S
H1118 C1117 0.960 . S
H1119 N1099 0.862 . S
O1120 Co1088 1.920 . S
O1120 C1093 1.289 . S
C1121 O1113 1.258 . S
C1121 O1114 1.266 . S
Co1122 O1125 1.970 . S
Co1122 N1139 1.989 . S
Co1122 O1147 1.967 . S
Co1122 O1154 1.920 . S
Co1123 O1126 1.966 . S
Co1123 N1132 2.022 . S
Co1123 N1140 1.993 . S
Co1123 O1148 1.941 . S
C1124 O1125 1.258 . S
C1124 O1126 1.263 . S
O1125 Co1122 1.970 . S
O1125 C1124 1.258 . S
O1126 Co1123 1.966 . S
O1126 C1124 1.263 . S
C1127 O1128 1.235 . S
C1127 O1154 1.289 . S
O1128 C1127 1.235 . S
C1129 C1131 1.400 1_455 S
C1129 N1132 1.351 . S
C1129 C1134 1.501 . S
C1130 C1131 1.387 . S
C1130 N1133 1.341 . S
C1131 C1129 1.400 1_655 S
C1131 C1130 1.387 . S
N1132 Co1123 2.022 . S
N1132 C1129 1.351 . S
N1132 N1133 1.365 1_455 S
N1133 C1130 1.341 . S
N1133 N1132 1.365 1_655 S
N1133 H1153 0.862 . S
C1134 C1129 1.501 . S
C1134 H1135 0.961 . S
C1134 H1136 0.961 . S
C1134 H1137 0.960 . S
H1135 C1134 0.961 . S
H1136 C1134 0.961 . S
H1137 C1134 0.960 . S
C1138 N1139 1.342 . S
C1138 C1142 1.401 . S
C1138 C1143 1.499 . S
N1139 Co1122 1.989 . S
N1139 C1138 1.342 . S
N1139 N1140 1.388 . S
N1140 Co1123 1.993 . S
N1140 N1139 1.388 . S
N1140 C1141 1.346 . S
C1141 N1140 1.346 . S
C1141 C1142 1.396 . S
C1141 C1151 1.510 1_455 S
C1142 C1138 1.401 . S
C1142 C1141 1.396 . S
C1143 C1138 1.499 . S
C1143 H1144 0.959 . S
C1143 H1145 0.960 . S
C1143 H1146 0.961 . S
H1144 C1143 0.959 . S
H1145 C1143 0.960 . S
H1146 C1143 0.961 . S
O1147 Co1122 1.967 . S
O1147 C1155 1.258 . S
O1148 Co1123 1.941 . S
O1148 C1155 1.266 . S
H1149 C1151 0.959 . S
H1150 C1151 0.961 . S
C1151 C1141 1.510 1_655 S
C1151 H1149 0.959 . S
C1151 H1150 0.961 . S
C1151 H1152 0.960 . S
H1152 C1151 0.960 . S
H1153 N1133 0.862 . S
O1154 Co1122 1.920 . S
O1154 C1127 1.289 . S
C1155 O1147 1.258 . S
C1155 O1148 1.266 . S
Co1156 O1159 1.970 . S
Co1156 N1173 1.989 . S
Co1156 O1181 1.967 . S
Co1156 O1188 1.920 . S
Co1157 O1160 1.966 . S
Co1157 N1166 2.022 . S
Co1157 N1174 1.993 . S
Co1157 O1182 1.941 . S
C1158 O1159 1.258 . S
C1158 O1160 1.263 . S
O1159 Co1156 1.970 . S
O1159 C1158 1.258 . S
O1160 Co1157 1.966 . S
O1160 C1158 1.263 . S
C1161 O1162 1.235 . S
C1161 O1188 1.289 . S
O1162 C1161 1.235 . S
C1163 C1165 1.400 . S
C1163 N1166 1.351 . S
C1163 C1168 1.501 . S
C1164 C1165 1.387 . S
C1164 N1167 1.341 . S
C1165 C1163 1.400 . S
C1165 C1164 1.387 . S
N1166 Co1157 2.022 . S
N1166 C1163 1.351 . S
N1166 N1167 1.365 . S
N1167 C1164 1.341 . S
N1167 N1166 1.365 . S
N1167 H1187 0.862 . S
C1168 C1163 1.501 . S
C1168 H1169 0.961 . S
C1168 H1170 0.961 . S
C1168 H1171 0.960 . S
H1169 C1168 0.961 . S
H1170 C1168 0.961 . S
H1171 C1168 0.960 . S
C1172 N1173 1.342 . S
C1172 C1176 1.401 . S
C1172 C1177 1.499 . S
N1173 Co1156 1.989 . S
N1173 C1172 1.342 . S
N1173 N1174 1.388 . S
N1174 Co1157 1.993 . S
N1174 N1173 1.388 . S
N1174 C1175 1.346 . S
C1175 N1174 1.346 . S
C1175 C1176 1.396 . S
C1175 C1185 1.510 . S
C1176 C1172 1.401 . S
C1176 C1175 1.396 . S
C1177 C1172 1.499 . S
C1177 H1178 0.959 . S
C1177 H1179 0.960 . S
C1177 H1180 0.961 . S
H1178 C1177 0.959 . S
H1179 C1177 0.960 . S
H1180 C1177 0.961 . S
O1181 Co1156 1.967 . S
O1181 C1189 1.258 . S
O1182 Co1157 1.941 . S
O1182 C1189 1.266 . S
H1183 C1185 0.959 . S
H1184 C1185 0.961 . S
C1185 C1175 1.510 . S
C1185 H1183 0.959 . S
C1185 H1184 0.961 . S
C1185 H1186 0.960 . S
H1186 C1185 0.960 . S
H1187 N1167 0.862 . S
O1188 Co1156 1.920 . S
O1188 C1161 1.289 . S
C1189 O1181 1.258 . S
C1189 O1182 1.266 . S
Co1190 O1193 1.970 . S
Co1190 N1207 1.989 . S
Co1190 O1215 1.967 . S
Co1190 O1222 1.920 . S
Co1191 O1194 1.966 . S
Co1191 N1200 2.022 . S
Co1191 N1208 1.993 . S
Co1191 O1216 1.941 . S
C1192 O1193 1.258 . S
C1192 O1194 1.263 . S
O1193 Co1190 1.970 . S
O1193 C1192 1.258 . S
O1194 Co1191 1.966 . S
O1194 C1192 1.263 . S
C1195 O1196 1.235 . S
C1195 O1222 1.289 . S
O1196 C1195 1.235 . S
C1197 C1199 1.400 1_565 S
C1197 N1200 1.351 . S
C1197 C1202 1.501 . S
C1198 C1199 1.387 . S
C1198 N1201 1.341 . S
C1199 C1197 1.400 1_545 S
C1199 C1198 1.387 . S
N1200 Co1191 2.022 . S
N1200 C1197 1.351 . S
N1200 N1201 1.365 1_565 S
N1201 C1198 1.341 . S
N1201 N1200 1.365 1_545 S
N1201 H1221 0.862 . S
C1202 C1197 1.501 . S
C1202 H1203 0.961 . S
C1202 H1204 0.961 . S
C1202 H1205 0.960 . S
H1203 C1202 0.961 . S
H1204 C1202 0.961 . S
H1205 C1202 0.960 . S
C1206 N1207 1.342 . S
C1206 C1210 1.401 . S
C1206 C1211 1.499 . S
N1207 Co1190 1.989 . S
N1207 C1206 1.342 . S
N1207 N1208 1.388 . S
N1208 Co1191 1.993 . S
N1208 N1207 1.388 . S
N1208 C1209 1.346 . S
C1209 N1208 1.346 . S
C1209 C1210 1.396 . S
C1209 C1219 1.510 1_565 S
C1210 C1206 1.401 . S
C1210 C1209 1.396 . S
C1211 C1206 1.499 . S
C1211 H1212 0.959 . S
C1211 H1213 0.960 . S
C1211 H1214 0.961 . S
H1212 C1211 0.959 . S
H1213 C1211 0.960 . S
H1214 C1211 0.961 . S
O1215 Co1190 1.967 . S
O1215 C1223 1.258 . S
O1216 Co1191 1.941 . S
O1216 C1223 1.266 . S
H1217 C1219 0.959 . S
H1218 C1219 0.961 . S
C1219 C1209 1.510 1_545 S
C1219 H1217 0.959 . S
C1219 H1218 0.961 . S
C1219 H1220 0.960 . S
H1220 C1219 0.960 . S
H1221 N1201 0.862 . S
O1222 Co1190 1.920 . S
O1222 C1195 1.289 . S
C1223 O1215 1.258 . S
C1223 O1216 1.266 . S
C1224 C1225 1.363 . S
C1224 C1230 1.379 . S
C1224 N1232 1.356 . S
C1225 C1224 1.363 . S
C1225 C1231 1.363 . S
C1226 C1227 1.363 . S
C1226 C1231 1.379 . S
C1226 N1233 1.356 1_545 S
C1227 C1226 1.363 . S
C1227 C1230 1.363 . S
N1228 C1230 1.356 . S
N1228 H1240 0.984 . S
N1228 H1241 0.985 . S
N1229 C1231 1.356 . S
N1229 H1234 0.984 . S
N1229 H1235 0.985 . S
C1230 C1224 1.379 . S
C1230 C1227 1.363 . S
C1230 N1228 1.356 . S
C1231 C1225 1.363 . S
C1231 C1226 1.379 . S
C1231 N1229 1.356 . S
N1232 C1224 1.356 . S
N1232 H1238 0.984 . S
N1232 H1239 0.984 . S
N1233 C1226 1.356 1_565 S
N1233 H1236 0.984 . S
N1233 H1237 0.985 . S
H1234 N1229 0.984 . S
H1235 N1229 0.985 . S
H1236 N1233 0.984 . S
H1237 N1233 0.985 . S
H1238 N1232 0.984 . S
H1239 N1232 0.984 . S
H1240 N1228 0.984 . S
H1241 N1228 0.985 . S
C1242 C1243 1.363 . S
C1242 C1248 1.379 . S
C1242 N1250 1.356 1_655 S
C1243 C1242 1.363 . S
C1243 C1249 1.363 . S
C1244 C1245 1.363 . S
C1244 C1249 1.379 . S
C1244 N1251 1.356 . S
C1245 C1244 1.363 . S
C1245 C1248 1.363 . S
N1246 C1248 1.356 . S
N1246 H1258 0.984 . S
N1246 H1259 0.985 . S
N1247 C1249 1.356 . S
N1247 H1252 0.984 . S
N1247 H1253 0.985 . S
C1248 C1242 1.379 . S
C1248 C1245 1.363 . S
C1248 N1246 1.356 . S
C1249 C1243 1.363 . S
C1249 C1244 1.379 . S
C1249 N1247 1.356 . S
N1250 C1242 1.356 1_455 S
N1250 H1256 0.984 . S
N1250 H1257 0.984 . S
N1251 C1244 1.356 . S
N1251 H1254 0.984 1_545 S
N1251 H1255 0.985 . S
H1252 N1247 0.984 . S
H1253 N1247 0.985 . S
H1254 N1251 0.984 1_565 S
H1255 N1251 0.985 . S
H1256 N1250 0.984 . S
H1257 N1250 0.984 . S
H1258 N1246 0.984 . S
H1259 N1246 0.985 . S
C1260 C1261 1.363 . S
C1260 C1266 1.379 . S
C1260 N1268 1.356 . S
C1261 C1260 1.363 . S
C1261 C1267 1.363 . S
C1262 C1263 1.363 . S
C1262 C1267 1.379 . S
C1262 N1269 1.356 1_655 S
C1263 C1262 1.363 . S
C1263 C1266 1.363 . S
N1264 C1266 1.356 . S
N1264 H1276 0.984 . S
N1264 H1277 0.985 . S
N1265 C1267 1.356 . S
N1265 H1270 0.984 . S
N1265 H1271 0.985 . S
C1266 C1260 1.379 . S
C1266 C1263 1.363 . S
C1266 N1264 1.356 . S
C1267 C1261 1.363 . S
C1267 C1262 1.379 . S
C1267 N1265 1.356 . S
N1268 C1260 1.356 . S
N1268 H1274 0.984 . S
N1268 H1275 0.984 . S
N1269 C1262 1.356 1_455 S
N1269 H1272 0.984 . S
N1269 H1273 0.985 . S
H1270 N1265 0.984 . S
H1271 N1265 0.985 . S
H1272 N1269 0.984 . S
H1273 N1269 0.985 . S
H1274 N1268 0.984 . S
H1275 N1268 0.984 . S
H1276 N1264 0.984 . S
H1277 N1264 0.985 . S
C1278 C1279 1.363 . S
C1278 C1284 1.379 . S
C1278 N1286 1.356 1_455 S
C1279 C1278 1.363 . S
C1279 C1285 1.363 . S
C1280 C1281 1.363 . S
C1280 C1285 1.379 . S
C1280 N1287 1.356 . S
C1281 C1280 1.363 . S
C1281 C1284 1.363 . S
N1282 C1284 1.356 . S
N1282 H1294 0.984 . S
N1282 H1295 0.985 . S
N1283 C1285 1.356 . S
N1283 H1288 0.984 . S
N1283 H1289 0.985 . S
C1284 C1278 1.379 . S
C1284 C1281 1.363 . S
C1284 N1282 1.356 . S
C1285 C1279 1.363 . S
C1285 C1280 1.379 . S
C1285 N1283 1.356 . S
N1286 C1278 1.356 1_655 S
N1286 H1292 0.984 . S
N1286 H1293 0.984 . S
N1287 C1280 1.356 . S
N1287 H1290 0.984 . S
N1287 H1291 0.985 . S
H1288 N1283 0.984 . S
H1289 N1283 0.985 . S
H1290 N1287 0.984 . S
H1291 N1287 0.985 . S
H1292 N1286 0.984 . S
H1293 N1286 0.984 . S
H1294 N1282 0.984 . S
H1295 N1282 0.985 . S
C1296 C1297 1.363 . S
C1296 C1302 1.379 . S
C1296 N1304 1.356 . S
C1297 C1296 1.363 . S
C1297 C1303 1.363 . S
C1298 C1299 1.363 . S
C1298 C1303 1.379 . S
C1298 N1305 1.356 . S
C1299 C1298 1.363 . S
C1299 C1302 1.363 . S
N1300 C1302 1.356 . S
N1300 H1312 0.984 . S
N1300 H1313 0.985 . S
N1301 C1303 1.356 . S
N1301 H1306 0.984 . S
N1301 H1307 0.985 . S
C1302 C1296 1.379 . S
C1302 C1299 1.363 . S
C1302 N1300 1.356 . S
C1303 C1297 1.363 . S
C1303 C1298 1.379 . S
C1303 N1301 1.356 . S
N1304 C1296 1.356 . S
N1304 H1310 0.984 . S
N1304 H1311 0.984 . S
N1305 C1298 1.356 . S
N1305 H1308 0.978 1_565 S
N1305 H1309 0.985 . S
H1306 N1301 0.984 . S
H1307 N1301 0.985 . S
H1308 N1305 0.978 1_545 S
H1309 N1305 0.985 . S
H1310 N1304 0.984 . S
H1311 N1304 0.984 . S
H1312 N1300 0.984 . S
H1313 N1300 0.985 . S
C1314 C1315 1.363 . S
C1314 C1320 1.379 . S
C1314 N1322 1.356 1_565 S
C1315 C1314 1.363 . S
C1315 C1321 1.363 . S
C1316 C1317 1.363 . S
C1316 C1321 1.379 . S
C1316 N1323 1.356 . S
C1317 C1316 1.363 . S
C1317 C1320 1.363 . S
N1318 C1320 1.356 . S
N1318 H1330 0.984 . S
N1318 H1331 0.985 . S
N1319 C1321 1.356 . S
N1319 H1324 0.984 . S
N1319 H1325 0.985 . S
C1320 C1314 1.379 . S
C1320 C1317 1.363 . S
C1320 N1318 1.356 . S
C1321 C1315 1.363 . S
C1321 C1316 1.379 . S
C1321 N1319 1.356 . S
N1322 C1314 1.356 1_545 S
N1322 H1328 0.984 . S
N1322 H1329 0.984 . S
N1323 C1316 1.356 . S
N1323 H1326 0.984 . S
N1323 H1327 0.985 . S
H1324 N1319 0.984 . S
H1325 N1319 0.985 . S
H1326 N1323 0.984 . S
H1327 N1323 0.985 . S
H1328 N1322 0.984 . S
H1329 N1322 0.984 . S
H1330 N1318 0.984 . S
H1331 N1318 0.985 . S
C1332 C1333 1.363 . S
C1332 C1338 1.379 . S
C1332 N1340 1.356 1_565 S
C1333 C1332 1.363 . S
C1333 C1339 1.363 . S
C1334 C1335 1.363 . S
C1334 C1339 1.379 . S
C1334 N1341 1.356 . S
C1335 C1334 1.363 . S
C1335 C1338 1.363 . S
N1336 C1338 1.356 . S
N1336 H1348 0.984 . S
N1336 H1349 0.985 . S
N1337 C1339 1.356 . S
N1337 H1342 0.984 . S
N1337 H1343 0.985 . S
C1338 C1332 1.379 . S
C1338 C1335 1.363 . S
C1338 N1336 1.356 . S
C1339 C1333 1.363 . S
C1339 C1334 1.379 . S
C1339 N1337 1.356 . S
N1340 C1332 1.356 1_545 S
N1340 H1346 0.984 . S
N1340 H1347 0.984 . S
N1341 C1334 1.356 . S
N1341 H1344 0.984 . S
N1341 H1345 0.985 . S
H1342 N1337 0.984 . S
H1343 N1337 0.985 . S
H1344 N1341 0.984 . S
H1345 N1341 0.985 . S
H1346 N1340 0.984 . S
H1347 N1340 0.984 . S
H1348 N1336 0.984 . S
H1349 N1336 0.985 . S
C1350 C1351 1.363 . S
C1350 C1356 1.379 . S
C1350 N1358 1.356 . S
C1351 C1350 1.363 . S
C1351 C1357 1.363 . S
C1352 C1353 1.363 . S
C1352 C1357 1.379 . S
C1352 N1359 1.356 1_455 S
C1353 C1352 1.363 . S
C1353 C1356 1.363 . S
N1354 C1356 1.356 . S
N1354 H1366 0.984 . S
N1354 H1367 0.985 . S
N1355 C1357 1.356 . S
N1355 H1360 0.984 1_565 S
N1355 H1361 0.985 . S
C1356 C1350 1.379 . S
C1356 C1353 1.363 . S
C1356 N1354 1.356 . S
C1357 C1351 1.363 . S
C1357 C1352 1.379 . S
C1357 N1355 1.356 . S
N1358 C1350 1.356 . S
N1358 H1364 0.984 . S
N1358 H1365 0.984 . S
N1359 C1352 1.356 1_655 S
N1359 H1362 0.984 . S
N1359 H1363 0.985 . S
H1360 N1355 0.984 1_545 S
H1361 N1355 0.985 . S
H1362 N1359 0.984 . S
H1363 N1359 0.985 . S
H1364 N1358 0.984 . S
H1365 N1358 0.984 . S
H1366 N1354 0.984 . S
H1367 N1354 0.985 . S
C1368 C1369 1.363 . S
C1368 C1374 1.379 . S
C1368 N1376 1.356 . S
C1369 C1368 1.363 . S
C1369 C1375 1.363 . S
C1370 C1371 1.363 . S
C1370 C1375 1.379 . S
C1370 N1377 1.356 . S
C1371 C1370 1.363 . S
C1371 C1374 1.363 . S
N1372 C1374 1.356 . S
N1372 H1384 0.984 . S
N1372 H1385 0.985 . S
N1373 C1375 1.356 . S
N1373 H1378 0.984 . S
N1373 H1379 0.985 . S
C1374 C1368 1.379 . S
C1374 C1371 1.363 . S
C1374 N1372 1.356 . S
C1375 C1369 1.363 . S
C1375 C1370 1.379 . S
C1375 N1373 1.356 . S
N1376 C1368 1.356 . S
N1376 H1382 0.984 . S
N1376 H1383 0.984 . S
N1377 C1370 1.356 . S
N1377 H1380 0.984 . S
N1377 H1381 0.985 . S
H1378 N1373 0.984 . S
H1379 N1373 0.985 . S
H1380 N1377 0.984 . S
H1381 N1377 0.985 . S
H1382 N1376 0.984 . S
H1383 N1376 0.984 . S
H1384 N1372 0.984 . S
H1385 N1372 0.985 . S
C1386 C1387 1.363 . S
C1386 C1392 1.379 . S
C1386 N1394 1.356 1_655 S
C1387 C1386 1.363 . S
C1387 C1393 1.363 . S
C1388 C1389 1.363 . S
C1388 C1393 1.379 . S
C1388 N1395 1.356 . S
C1389 C1388 1.363 . S
C1389 C1392 1.363 . S
N1390 C1392 1.356 . S
N1390 H1402 0.984 . S
N1390 H1403 0.985 . S
N1391 C1393 1.356 . S
N1391 H1396 0.984 . S
N1391 H1397 0.985 . S
C1392 C1386 1.379 . S
C1392 C1389 1.363 . S
C1392 N1390 1.356 . S
C1393 C1387 1.363 . S
C1393 C1388 1.379 . S
C1393 N1391 1.356 . S
N1394 C1386 1.356 1_455 S
N1394 H1400 0.984 . S
N1394 H1401 0.984 . S
N1395 C1388 1.356 . S
N1395 H1398 0.984 . S
N1395 H1399 0.985 . S
H1396 N1391 0.984 . S
H1397 N1391 0.985 . S
H1398 N1395 0.984 . S
H1399 N1395 0.985 . S
H1400 N1394 0.984 . S
H1401 N1394 0.984 . S
H1402 N1390 0.984 . S
H1403 N1390 0.985 . S
C1404 C1405 1.363 . S
C1404 C1410 1.379 . S
C1404 N1412 1.356 . S
C1405 C1404 1.363 . S
C1405 C1411 1.363 . S
C1406 C1407 1.363 . S
C1406 C1411 1.379 . S
C1406 N1413 1.356 . S
C1407 C1406 1.363 . S
C1407 C1410 1.363 . S
N1408 C1410 1.356 . S
N1408 H1420 0.984 . S
N1408 H1421 0.985 . S
N1409 C1411 1.356 . S
N1409 H1414 0.984 . S
N1409 H1415 0.985 . S
C1410 C1404 1.379 . S
C1410 C1407 1.363 . S
C1410 N1408 1.356 . S
C1411 C1405 1.363 . S
C1411 C1406 1.379 . S
C1411 N1409 1.356 . S
N1412 C1404 1.356 . S
N1412 H1418 0.984 . S
N1412 H1419 0.984 . S
N1413 C1406 1.356 . S
N1413 H1416 0.984 . S
N1413 H1417 0.985 . S
H1414 N1409 0.984 . S
H1415 N1409 0.985 . S
H1416 N1413 0.984 . S
H1417 N1413 0.985 . S
H1418 N1412 0.984 . S
H1419 N1412 0.984 . S
H1420 N1408 0.984 . S
H1421 N1408 0.985 . S
C1422 C1423 1.363 . S
C1422 C1428 1.379 . S
C1422 N1430 1.356 . S
C1423 C1422 1.363 . S
C1423 C1429 1.363 . S
C1424 C1425 1.363 . S
C1424 C1429 1.379 . S
C1424 N1431 1.356 . S
C1425 C1424 1.363 . S
C1425 C1428 1.363 . S
N1426 C1428 1.356 . S
N1426 H1438 0.984 . S
N1426 H1439 0.985 . S
N1427 C1429 1.356 . S
N1427 H1432 0.984 . S
N1427 H1433 0.985 . S
C1428 C1422 1.379 . S
C1428 C1425 1.363 . S
C1428 N1426 1.356 . S
C1429 C1423 1.363 . S
C1429 C1424 1.379 . S
C1429 N1427 1.356 . S
N1430 C1422 1.356 . S
N1430 H1436 0.984 . S
N1430 H1437 0.984 1_545 S
N1431 C1424 1.356 . S
N1431 H1434 0.984 1_655 S
N1431 H1435 0.985 1_655 S
H1432 N1427 0.984 . S
H1433 N1427 0.985 . S
H1434 N1431 0.984 1_455 S
H1435 N1431 0.985 1_455 S
H1436 N1430 0.984 . S
H1437 N1430 0.984 1_565 S
H1438 N1426 0.984 . S
H1439 N1426 0.985 . S
C1440 C1441 1.363 . S
C1440 C1446 1.379 . S
C1440 N1448 1.356 . S
C1441 C1440 1.363 . S
C1441 C1447 1.363 . S
C1442 C1443 1.363 . S
C1442 C1447 1.379 . S
C1442 N1449 1.356 . S
C1443 C1442 1.363 . S
C1443 C1446 1.363 . S
N1444 C1446 1.356 . S
N1444 H1456 0.984 . S
N1444 H1457 0.985 . S
N1445 C1447 1.356 . S
N1445 H1450 0.984 . S
N1445 H1451 0.985 . S
C1446 C1440 1.379 . S
C1446 C1443 1.363 . S
C1446 N1444 1.356 . S
C1447 C1441 1.363 . S
C1447 C1442 1.379 . S
C1447 N1445 1.356 . S
N1448 C1440 1.356 . S
N1448 H1454 0.984 . S
N1448 H1455 0.984 . S
N1449 C1442 1.356 . S
N1449 H1452 0.984 . S
N1449 H1453 0.985 . S
H1450 N1445 0.984 . S
H1451 N1445 0.985 . S
H1452 N1449 0.984 . S
H1453 N1449 0.985 . S
H1454 N1448 0.984 . S
H1455 N1448 0.984 . S
H1456 N1444 0.984 . S
H1457 N1444 0.985 . S
C1458 C1459 1.363 . S
C1458 C1464 1.379 . S
C1458 N1466 1.356 . S
C1459 C1458 1.363 . S
C1459 C1465 1.363 . S
C1460 C1461 1.363 . S
C1460 C1465 1.379 . S
C1460 N1467 1.356 . S
C1461 C1460 1.363 . S
C1461 C1464 1.363 . S
N1462 C1464 1.356 . S
N1462 H1474 0.984 . S
N1462 H1475 0.985 . S
N1463 C1465 1.356 . S
N1463 H1468 0.984 . S
N1463 H1469 0.985 . S
C1464 C1458 1.379 . S
C1464 C1461 1.363 . S
C1464 N1462 1.356 . S
C1465 C1459 1.363 . S
C1465 C1460 1.379 . S
C1465 N1463 1.356 . S
N1466 C1458 1.356 . S
N1466 H1472 0.984 . S
N1466 H1473 0.984 . S
N1467 C1460 1.356 . S
N1467 H1470 0.984 . S
N1467 H1471 0.985 . S
H1468 N1463 0.984 . S
H1469 N1463 0.985 . S
H1470 N1467 0.984 . S
H1471 N1467 0.985 . S
H1472 N1466 0.984 . S
H1473 N1466 0.984 . S
H1474 N1462 0.984 . S
H1475 N1462 0.985 . S
C1476 C1477 1.363 . S
C1476 C1482 1.379 . S
C1476 N1484 1.356 . S
C1477 C1476 1.363 . S
C1477 C1483 1.363 . S
C1478 C1479 1.363 . S
C1478 C1483 1.379 . S
C1478 N1485 1.356 . S
C1479 C1478 1.363 . S
C1479 C1482 1.363 . S
N1480 C1482 1.356 . S
N1480 H1492 0.984 . S
N1480 H1493 0.985 . S
N1481 C1483 1.356 . S
N1481 H1486 0.984 . S
N1481 H1487 0.985 . S
C1482 C1476 1.379 . S
C1482 C1479 1.363 . S
C1482 N1480 1.356 . S
C1483 C1477 1.363 . S
C1483 C1478 1.379 . S
C1483 N1481 1.356 . S
N1484 C1476 1.356 . S
N1484 H1490 0.984 . S
N1484 H1491 0.984 . S
N1485 C1478 1.356 . S
N1485 H1488 0.984 . S
N1485 H1489 0.985 . S
H1486 N1481 0.984 . S
H1487 N1481 0.985 . S
H1488 N1485 0.984 . S
H1489 N1485 0.985 . S
H1490 N1484 0.984 . S
H1491 N1484 0.984 . S
H1492 N1480 0.984 . S
H1493 N1480 0.985 . S
C1494 C1495 1.363 . S
C1494 C1500 1.379 . S
C1494 N1502 1.356 . S
C1495 C1494 1.363 . S
C1495 C1501 1.363 . S
C1496 C1497 1.363 . S
C1496 C1501 1.379 . S
C1496 N1503 1.356 . S
C1497 C1496 1.363 . S
C1497 C1500 1.363 . S
N1498 C1500 1.356 . S
N1498 H1510 0.984 . S
N1498 H1511 0.985 . S
N1499 C1501 1.356 . S
N1499 H1504 0.984 . S
N1499 H1505 0.985 . S
C1500 C1494 1.379 . S
C1500 C1497 1.363 . S
C1500 N1498 1.356 . S
C1501 C1495 1.363 . S
C1501 C1496 1.379 . S
C1501 N1499 1.356 . S
N1502 C1494 1.356 . S
N1502 H1508 0.984 . S
N1502 H1509 0.984 . S
N1503 C1496 1.356 . S
N1503 H1506 0.984 . S
N1503 H1507 0.985 . S
H1504 N1499 0.984 . S
H1505 N1499 0.985 . S
H1506 N1503 0.984 . S
H1507 N1503 0.985 . S
H1508 N1502 0.984 . S
H1509 N1502 0.984 . S
H1510 N1498 0.984 . S
H1511 N1498 0.985 . S
C1512 C1513 1.363 . S
C1512 C1518 1.379 . S
C1512 N1520 1.356 . S
C1513 C1512 1.363 . S
C1513 C1519 1.363 . S
C1514 C1515 1.363 . S
C1514 C1519 1.379 . S
C1514 N1521 1.356 . S
C1515 C1514 1.363 . S
C1515 C1518 1.363 . S
N1516 C1518 1.356 . S
N1516 H1528 0.984 . S
N1516 H1529 0.985 . S
N1517 C1519 1.356 . S
N1517 H1522 0.984 . S
N1517 H1523 0.985 . S
C1518 C1512 1.379 . S
C1518 C1515 1.363 . S
C1518 N1516 1.356 . S
C1519 C1513 1.363 . S
C1519 C1514 1.379 . S
C1519 N1517 1.356 . S
N1520 C1512 1.356 . S
N1520 H1526 0.984 . S
N1520 H1527 0.984 . S
N1521 C1514 1.356 . S
N1521 H1524 0.984 . S
N1521 H1525 0.985 . S
H1522 N1517 0.984 . S
H1523 N1517 0.985 . S
H1524 N1521 0.984 . S
H1525 N1521 0.985 . S
H1526 N1520 0.984 . S
H1527 N1520 0.984 . S
H1528 N1516 0.984 . S
H1529 N1516 0.985 . S
C1530 C1531 1.363 . S
C1530 C1536 1.379 . S
C1530 N1538 1.356 . S
C1531 C1530 1.363 . S
C1531 C1537 1.363 . S
C1532 C1533 1.363 . S
C1532 C1537 1.379 . S
C1532 N1539 1.356 . S
C1533 C1532 1.363 . S
C1533 C1536 1.363 . S
N1534 C1536 1.356 . S
N1534 H1546 0.984 . S
N1534 H1547 0.985 . S
N1535 C1537 1.356 . S
N1535 H1540 0.984 . S
N1535 H1541 0.985 . S
C1536 C1530 1.379 . S
C1536 C1533 1.363 . S
C1536 N1534 1.356 . S
C1537 C1531 1.363 . S
C1537 C1532 1.379 . S
C1537 N1535 1.356 . S
N1538 C1530 1.356 . S
N1538 H1544 0.984 . S
N1538 H1545 0.984 . S
N1539 C1532 1.356 . S
N1539 H1542 0.984 . S
N1539 H1543 0.985 . S
H1540 N1535 0.984 . S
H1541 N1535 0.985 . S
H1542 N1539 0.984 . S
H1543 N1539 0.985 . S
H1544 N1538 0.984 . S
H1545 N1538 0.984 . S
H1546 N1534 0.984 . S
H1547 N1534 0.985 . S
C1548 C1549 1.363 . S
C1548 C1554 1.379 . S
C1548 N1556 1.356 . S
C1549 C1548 1.363 . S
C1549 C1555 1.363 . S
C1550 C1551 1.363 . S
C1550 C1555 1.379 . S
C1550 N1557 1.356 . S
C1551 C1550 1.363 . S
C1551 C1554 1.363 . S
N1552 C1554 1.356 . S
N1552 H1564 0.984 . S
N1552 H1565 0.985 . S
N1553 C1555 1.356 . S
N1553 H1558 0.984 . S
N1553 H1559 0.985 . S
C1554 C1548 1.379 . S
C1554 C1551 1.363 . S
C1554 N1552 1.356 . S
C1555 C1549 1.363 . S
C1555 C1550 1.379 . S
C1555 N1553 1.356 . S
N1556 C1548 1.356 . S
N1556 H1562 0.984 . S
N1556 H1563 0.984 . S
N1557 C1550 1.356 . S
N1557 H1560 0.984 . S
N1557 H1561 0.985 . S
H1558 N1553 0.984 . S
H1559 N1553 0.985 . S
H1560 N1557 0.984 . S
H1561 N1557 0.985 . S
H1562 N1556 0.984 . S
H1563 N1556 0.984 . S
H1564 N1552 0.984 . S
H1565 N1552 0.985 . S
C1566 C1567 1.363 . S
C1566 C1572 1.379 . S
C1566 N1574 1.356 . S
C1567 C1566 1.363 . S
C1567 C1573 1.363 . S
C1568 C1569 1.363 . S
C1568 C1573 1.379 . S
C1568 N1575 1.356 . S
C1569 C1568 1.363 . S
C1569 C1572 1.363 . S
N1570 C1572 1.356 . S
N1570 H1582 0.984 . S
N1570 H1583 0.985 . S
N1571 C1573 1.356 . S
N1571 H1576 0.984 . S
N1571 H1577 0.985 . S
C1572 C1566 1.379 . S
C1572 C1569 1.363 . S
C1572 N1570 1.356 . S
C1573 C1567 1.363 . S
C1573 C1568 1.379 . S
C1573 N1571 1.356 . S
N1574 C1566 1.356 . S
N1574 H1580 0.984 . S
N1574 H1581 0.984 . S
N1575 C1568 1.356 . S
N1575 H1578 0.984 . S
N1575 H1579 0.985 . S
H1576 N1571 0.984 . S
H1577 N1571 0.985 . S
H1578 N1575 0.984 . S
H1579 N1575 0.985 . S
H1580 N1574 0.984 . S
H1581 N1574 0.984 . S
H1582 N1570 0.984 . S
H1583 N1570 0.985 . S
C1584 C1585 1.363 . S
C1584 C1590 1.379 . S
C1584 N1592 1.356 . S
C1585 C1584 1.363 . S
C1585 C1591 1.363 . S
C1586 C1587 1.363 . S
C1586 C1591 1.379 . S
C1586 N1593 1.356 . S
C1587 C1586 1.363 . S
C1587 C1590 1.363 . S
N1588 C1590 1.356 . S
N1588 H1600 0.984 . S
N1588 H1601 0.985 . S
N1589 C1591 1.356 . S
N1589 H1594 0.984 . S
N1589 H1595 0.985 . S
C1590 C1584 1.379 . S
C1590 C1587 1.363 . S
C1590 N1588 1.356 . S
C1591 C1585 1.363 . S
C1591 C1586 1.379 . S
C1591 N1589 1.356 . S
N1592 C1584 1.356 . S
N1592 H1598 0.984 . S
N1592 H1599 0.984 . S
N1593 C1586 1.356 . S
N1593 H1596 0.984 . S
N1593 H1597 0.985 . S
H1594 N1589 0.984 . S
H1595 N1589 0.985 . S
H1596 N1593 0.984 . S
H1597 N1593 0.985 . S
H1598 N1592 0.984 . S
H1599 N1592 0.984 . S
H1600 N1588 0.984 . S
H1601 N1588 0.985 . S
C1602 C1603 1.363 . S
C1602 C1608 1.379 . S
C1602 N1610 1.356 . S
C1603 C1602 1.363 . S
C1603 C1609 1.363 . S
C1604 C1605 1.363 . S
C1604 C1609 1.379 . S
C1604 N1611 1.356 . S
C1605 C1604 1.363 . S
C1605 C1608 1.363 . S
N1606 C1608 1.356 . S
N1606 H1618 0.984 . S
N1606 H1619 0.985 . S
N1607 C1609 1.356 . S
N1607 H1612 0.984 . S
N1607 H1613 0.985 . S
C1608 C1602 1.379 . S
C1608 C1605 1.363 . S
C1608 N1606 1.356 . S
C1609 C1603 1.363 . S
C1609 C1604 1.379 . S
C1609 N1607 1.356 . S
N1610 C1602 1.356 . S
N1610 H1616 0.984 . S
N1610 H1617 0.984 . S
N1611 C1604 1.356 . S
N1611 H1614 0.984 . S
N1611 H1615 0.985 . S
H1612 N1607 0.984 . S
H1613 N1607 0.985 . S
H1614 N1611 0.984 . S
H1615 N1611 0.985 . S
H1616 N1610 0.984 . S
H1617 N1610 0.984 . S
H1618 N1606 0.984 . S
H1619 N1606 0.985 . S
C1620 C1621 1.363 . S
C1620 C1626 1.379 . S
C1620 N1628 1.356 . S
C1621 C1620 1.363 . S
C1621 C1627 1.363 . S
C1622 C1623 1.363 . S
C1622 C1627 1.379 . S
C1622 N1629 1.356 . S
C1623 C1622 1.363 . S
C1623 C1626 1.363 . S
N1624 C1626 1.356 . S
N1624 H1636 0.984 . S
N1624 H1637 0.985 . S
N1625 C1627 1.356 . S
N1625 H1630 0.984 . S
N1625 H1631 0.985 . S
C1626 C1620 1.379 . S
C1626 C1623 1.363 . S
C1626 N1624 1.356 . S
C1627 C1621 1.363 . S
C1627 C1622 1.379 . S
C1627 N1625 1.356 . S
N1628 C1620 1.356 . S
N1628 H1634 0.984 . S
N1628 H1635 0.984 . S
N1629 C1622 1.356 . S
N1629 H1632 0.984 . S
N1629 H1633 0.985 . S
H1630 N1625 0.984 . S
H1631 N1625 0.985 . S
H1632 N1629 0.984 . S
H1633 N1629 0.985 . S
H1634 N1628 0.984 . S
H1635 N1628 0.984 . S
H1636 N1624 0.984 . S
H1637 N1624 0.985 . S
C1638 C1639 1.363 . S
C1638 C1644 1.379 . S
C1638 N1646 1.356 . S
C1639 C1638 1.363 . S
C1639 C1645 1.363 . S
C1640 C1641 1.363 . S
C1640 C1645 1.379 . S
C1640 N1647 1.356 . S
C1641 C1640 1.363 . S
C1641 C1644 1.363 . S
N1642 C1644 1.356 . S
N1642 H1654 0.984 . S
N1642 H1655 0.985 . S
N1643 C1645 1.356 . S
N1643 H1648 0.984 . S
N1643 H1649 0.985 . S
C1644 C1638 1.379 . S
C1644 C1641 1.363 . S
C1644 N1642 1.356 . S
C1645 C1639 1.363 . S
C1645 C1640 1.379 . S
C1645 N1643 1.356 . S
N1646 C1638 1.356 . S
N1646 H1652 0.984 . S
N1646 H1653 0.984 . S
N1647 C1640 1.356 . S
N1647 H1650 0.984 . S
N1647 H1651 0.985 . S
H1648 N1643 0.984 . S
H1649 N1643 0.985 . S
H1650 N1647 0.984 . S
H1651 N1647 0.985 . S
H1652 N1646 0.984 . S
H1653 N1646 0.984 . S
H1654 N1642 0.984 . S
H1655 N1642 0.985 . S
C1656 C1657 1.363 . S
C1656 C1662 1.379 . S
C1656 N1664 1.356 . S
C1657 C1656 1.363 . S
C1657 C1663 1.363 . S
C1658 C1659 1.363 . S
C1658 C1663 1.379 . S
C1658 N1665 1.356 . S
C1659 C1658 1.363 . S
C1659 C1662 1.363 . S
N1660 C1662 1.356 . S
N1660 H1672 0.984 . S
N1660 H1673 0.985 . S
N1661 C1663 1.356 . S
N1661 H1666 0.984 . S
N1661 H1667 0.985 . S
C1662 C1656 1.379 . S
C1662 C1659 1.363 . S
C1662 N1660 1.356 . S
C1663 C1657 1.363 . S
C1663 C1658 1.379 . S
C1663 N1661 1.356 . S
N1664 C1656 1.356 . S
N1664 H1670 0.984 . S
N1664 H1671 0.984 . S
N1665 C1658 1.356 . S
N1665 H1668 0.984 . S
N1665 H1669 0.985 . S
H1666 N1661 0.984 . S
H1667 N1661 0.985 . S
H1668 N1665 0.984 . S
H1669 N1665 0.985 . S
H1670 N1664 0.984 . S
H1671 N1664 0.984 . S
H1672 N1660 0.984 . S
H1673 N1660 0.985 . S
C1674 C1675 1.363 . S
C1674 C1680 1.379 . S
C1674 N1682 1.356 . S
C1675 C1674 1.363 . S
C1675 C1681 1.363 . S
C1676 C1677 1.363 . S
C1676 C1681 1.379 . S
C1676 N1683 1.356 . S
C1677 C1676 1.363 . S
C1677 C1680 1.363 . S
N1678 C1680 1.356 . S
N1678 H1690 0.984 . S
N1678 H1691 0.985 . S
N1679 C1681 1.356 . S
N1679 H1684 0.984 . S
N1679 H1685 0.985 . S
C1680 C1674 1.379 . S
C1680 C1677 1.363 . S
C1680 N1678 1.356 . S
C1681 C1675 1.363 . S
C1681 C1676 1.379 . S
C1681 N1679 1.356 . S
N1682 C1674 1.356 . S
N1682 H1688 0.984 . S
N1682 H1689 0.984 . S
N1683 C1676 1.356 . S
N1683 H1686 0.984 . S
N1683 H1687 0.985 . S
H1684 N1679 0.984 . S
H1685 N1679 0.985 . S
H1686 N1683 0.984 . S
H1687 N1683 0.985 . S
H1688 N1682 0.984 . S
H1689 N1682 0.984 . S
H1690 N1678 0.984 . S
H1691 N1678 0.985 . S
C1692 C1693 1.363 . S
C1692 C1698 1.379 . S
C1692 N1700 1.356 . S
C1693 C1692 1.363 . S
C1693 C1699 1.363 . S
C1694 C1695 1.363 . S
C1694 C1699 1.379 . S
C1694 N1701 1.356 . S
C1695 C1694 1.363 . S
C1695 C1698 1.363 . S
N1696 C1698 1.356 . S
N1696 H1708 0.984 . S
N1696 H1709 0.985 . S
N1697 C1699 1.356 . S
N1697 H1702 0.984 . S
N1697 H1703 0.985 . S
C1698 C1692 1.379 . S
C1698 C1695 1.363 . S
C1698 N1696 1.356 . S
C1699 C1693 1.363 . S
C1699 C1694 1.379 . S
C1699 N1697 1.356 . S
N1700 C1692 1.356 . S
N1700 H1706 0.984 . S
N1700 H1707 0.984 . S
N1701 C1694 1.356 . S
N1701 H1704 0.984 . S
N1701 H1705 0.985 . S
H1702 N1697 0.984 . S
H1703 N1697 0.985 . S
H1704 N1701 0.984 . S
H1705 N1701 0.985 . S
H1706 N1700 0.984 . S
H1707 N1700 0.984 . S
H1708 N1696 0.984 . S
H1709 N1696 0.985 . S
C1710 C1711 1.363 . S
C1710 C1716 1.379 . S
C1710 N1718 1.356 . S
C1711 C1710 1.363 . S
C1711 C1717 1.363 . S
C1712 C1713 1.363 . S
C1712 C1717 1.379 . S
C1712 N1719 1.356 . S
C1713 C1712 1.363 . S
C1713 C1716 1.363 . S
N1714 C1716 1.356 . S
N1714 H1726 0.984 . S
N1714 H1727 0.985 . S
N1715 C1717 1.356 . S
N1715 H1720 0.984 . S
N1715 H1721 0.985 . S
C1716 C1710 1.379 . S
C1716 C1713 1.363 . S
C1716 N1714 1.356 . S
C1717 C1711 1.363 . S
C1717 C1712 1.379 . S
C1717 N1715 1.356 . S
N1718 C1710 1.356 . S
N1718 H1724 0.984 . S
N1718 H1725 0.984 . S
N1719 C1712 1.356 . S
N1719 H1722 0.984 . S
N1719 H1723 0.985 . S
H1720 N1715 0.984 . S
H1721 N1715 0.985 . S
H1722 N1719 0.984 . S
H1723 N1719 0.985 . S
H1724 N1718 0.984 . S
H1725 N1718 0.984 . S
H1726 N1714 0.984 . S
H1727 N1714 0.985 . S
C1728 C1729 1.363 . S
C1728 C1734 1.379 . S
C1728 N1736 1.356 . S
C1729 C1728 1.363 . S
C1729 C1735 1.363 . S
C1730 C1731 1.363 . S
C1730 C1735 1.379 . S
C1730 N1737 1.356 . S
C1731 C1730 1.363 . S
C1731 C1734 1.363 . S
N1732 C1734 1.356 . S
N1732 H1744 0.984 . S
N1732 H1745 0.985 . S
N1733 C1735 1.356 . S
N1733 H1738 0.984 . S
N1733 H1739 0.985 . S
C1734 C1728 1.379 . S
C1734 C1731 1.363 . S
C1734 N1732 1.356 . S
C1735 C1729 1.363 . S
C1735 C1730 1.379 . S
C1735 N1733 1.356 . S
N1736 C1728 1.356 . S
N1736 H1742 0.984 . S
N1736 H1743 0.984 . S
N1737 C1730 1.356 . S
N1737 H1740 0.984 . S
N1737 H1741 0.985 . S
H1738 N1733 0.984 . S
H1739 N1733 0.985 . S
H1740 N1737 0.984 . S
H1741 N1737 0.985 . S
H1742 N1736 0.984 . S
H1743 N1736 0.984 . S
H1744 N1732 0.984 . S
H1745 N1732 0.985 . S
C1746 C1747 1.363 . S
C1746 C1752 1.379 . S
C1746 N1754 1.356 . S
C1747 C1746 1.363 . S
C1747 C1753 1.363 . S
C1748 C1749 1.363 . S
C1748 C1753 1.379 . S
C1748 N1755 1.356 . S
C1749 C1748 1.363 . S
C1749 C1752 1.363 . S
N1750 C1752 1.356 . S
N1750 H1762 0.984 . S
N1750 H1763 0.985 . S
N1751 C1753 1.356 . S
N1751 H1756 0.984 . S
N1751 H1757 0.985 . S
C1752 C1746 1.379 . S
C1752 C1749 1.363 . S
C1752 N1750 1.356 . S
C1753 C1747 1.363 . S
C1753 C1748 1.379 . S
C1753 N1751 1.356 . S
N1754 C1746 1.356 . S
N1754 H1760 0.984 . S
N1754 H1761 0.984 . S
N1755 C1748 1.356 . S
N1755 H1758 0.984 . S
N1755 H1759 0.985 . S
H1756 N1751 0.984 . S
H1757 N1751 0.985 . S
H1758 N1755 0.984 . S
H1759 N1755 0.985 . S
H1760 N1754 0.984 . S
H1761 N1754 0.984 . S
H1762 N1750 0.984 . S
H1763 N1750 0.985 . S
C1764 C1765 1.363 . S
C1764 C1770 1.379 . S
C1764 N1772 1.356 . S
C1765 C1764 1.363 . S
C1765 C1771 1.363 . S
C1766 C1767 1.363 . S
C1766 C1771 1.379 . S
C1766 N1773 1.356 . S
C1767 C1766 1.363 . S
C1767 C1770 1.363 . S
N1768 C1770 1.356 . S
N1768 H1780 0.984 . S
N1768 H1781 0.985 . S
N1769 C1771 1.356 . S
N1769 H1774 0.984 . S
N1769 H1775 0.985 . S
C1770 C1764 1.379 . S
C1770 C1767 1.363 . S
C1770 N1768 1.356 . S
C1771 C1765 1.363 . S
C1771 C1766 1.379 . S
C1771 N1769 1.356 . S
N1772 C1764 1.356 . S
N1772 H1778 0.984 . S
N1772 H1779 0.984 . S
N1773 C1766 1.356 . S
N1773 H1776 0.984 . S
N1773 H1777 0.985 . S
H1774 N1769 0.984 . S
H1775 N1769 0.985 . S
H1776 N1773 0.984 . S
H1777 N1773 0.985 . S
H1778 N1772 0.984 . S
H1779 N1772 0.984 . S
H1780 N1768 0.984 . S
H1781 N1768 0.985 . S
C1782 C1783 1.363 . S
C1782 C1788 1.379 . S
C1782 N1790 1.356 . S
C1783 C1782 1.363 . S
C1783 C1789 1.363 . S
C1784 C1785 1.363 . S
C1784 C1789 1.379 . S
C1784 N1791 1.356 . S
C1785 C1784 1.363 . S
C1785 C1788 1.363 . S
N1786 C1788 1.356 . S
N1786 H1798 0.984 . S
N1786 H1799 0.985 . S
N1787 C1789 1.356 . S
N1787 H1792 0.984 . S
N1787 H1793 0.985 . S
C1788 C1782 1.379 . S
C1788 C1785 1.363 . S
C1788 N1786 1.356 . S
C1789 C1783 1.363 . S
C1789 C1784 1.379 . S
C1789 N1787 1.356 . S
N1790 C1782 1.356 . S
N1790 H1796 0.984 . S
N1790 H1797 0.984 . S
N1791 C1784 1.356 . S
N1791 H1794 0.984 . S
N1791 H1795 0.985 . S
H1792 N1787 0.984 . S
H1793 N1787 0.985 . S
H1794 N1791 0.984 . S
H1795 N1791 0.985 . S
H1796 N1790 0.984 . S
H1797 N1790 0.984 . S
H1798 N1786 0.984 . S
H1799 N1786 0.985 . S
C1800 C1801 1.363 . S
C1800 C1806 1.379 . S
C1800 N1808 1.356 . S
C1801 C1800 1.363 . S
C1801 C1807 1.363 . S
C1802 C1803 1.363 . S
C1802 C1807 1.379 . S
C1802 N1809 1.356 . S
C1803 C1802 1.363 . S
C1803 C1806 1.363 . S
N1804 C1806 1.356 . S
N1804 H1816 0.984 . S
N1804 H1817 0.985 . S
N1805 C1807 1.356 . S
N1805 H1810 0.984 . S
N1805 H1811 0.985 . S
C1806 C1800 1.379 . S
C1806 C1803 1.363 . S
C1806 N1804 1.356 . S
C1807 C1801 1.363 . S
C1807 C1802 1.379 . S
C1807 N1805 1.356 . S
N1808 C1800 1.356 . S
N1808 H1814 0.984 . S
N1808 H1815 0.984 . S
N1809 C1802 1.356 . S
N1809 H1812 0.984 . S
N1809 H1813 0.985 . S
H1810 N1805 0.984 . S
H1811 N1805 0.985 . S
H1812 N1809 0.984 . S
H1813 N1809 0.985 . S
H1814 N1808 0.984 . S
H1815 N1808 0.984 . S
H1816 N1804 0.984 . S
H1817 N1804 0.985 . S
C1818 C1819 1.363 . S
C1818 C1824 1.379 . S
C1818 N1826 1.356 . S
C1819 C1818 1.363 . S
C1819 C1825 1.363 . S
C1820 C1821 1.363 . S
C1820 C1825 1.379 . S
C1820 N1827 1.356 . S
C1821 C1820 1.363 . S
C1821 C1824 1.363 . S
N1822 C1824 1.356 . S
N1822 H1834 0.984 . S
N1822 H1835 0.985 . S
N1823 C1825 1.356 . S
N1823 H1828 0.984 . S
N1823 H1829 0.985 . S
C1824 C1818 1.379 . S
C1824 C1821 1.363 . S
C1824 N1822 1.356 . S
C1825 C1819 1.363 . S
C1825 C1820 1.379 . S
C1825 N1823 1.356 . S
N1826 C1818 1.356 . S
N1826 H1832 0.984 . S
N1826 H1833 0.984 . S
N1827 C1820 1.356 . S
N1827 H1830 0.984 . S
N1827 H1831 0.985 . S
H1828 N1823 0.984 . S
H1829 N1823 0.985 . S
H1830 N1827 0.984 . S
H1831 N1827 0.985 . S
H1832 N1826 0.984 . S
H1833 N1826 0.984 . S
H1834 N1822 0.984 . S
H1835 N1822 0.985 . S
C1836 C1837 1.363 . S
C1836 C1842 1.379 . S
C1836 N1844 1.356 . S
C1837 C1836 1.363 . S
C1837 C1843 1.363 . S
C1838 C1839 1.363 . S
C1838 C1843 1.379 . S
C1838 N1845 1.356 . S
C1839 C1838 1.363 . S
C1839 C1842 1.363 . S
N1840 C1842 1.356 . S
N1840 H1852 0.984 . S
N1840 H1853 0.985 . S
N1841 C1843 1.356 . S
N1841 H1846 0.984 . S
N1841 H1847 0.985 . S
C1842 C1836 1.379 . S
C1842 C1839 1.363 . S
C1842 N1840 1.356 . S
C1843 C1837 1.363 . S
C1843 C1838 1.379 . S
C1843 N1841 1.356 . S
N1844 C1836 1.356 . S
N1844 H1850 0.984 . S
N1844 H1851 0.984 . S
N1845 C1838 1.356 . S
N1845 H1848 0.984 . S
N1845 H1849 0.985 . S
H1846 N1841 0.984 . S
H1847 N1841 0.985 . S
H1848 N1845 0.984 . S
H1849 N1845 0.985 . S
H1850 N1844 0.984 . S
H1851 N1844 0.984 . S
H1852 N1840 0.984 . S
H1853 N1840 0.985 . S
C1854 C1855 1.363 . S
C1854 C1860 1.379 . S
C1854 N1862 1.356 . S
C1855 C1854 1.363 . S
C1855 C1861 1.363 . S
C1856 C1857 1.363 . S
C1856 C1861 1.379 . S
C1856 N1863 1.356 . S
C1857 C1856 1.363 . S
C1857 C1860 1.363 . S
N1858 C1860 1.356 . S
N1858 H1870 0.984 . S
N1858 H1871 0.985 . S
N1859 C1861 1.356 . S
N1859 H1864 0.984 . S
N1859 H1865 0.985 . S
C1860 C1854 1.379 . S
C1860 C1857 1.363 . S
C1860 N1858 1.356 . S
C1861 C1855 1.363 . S
C1861 C1856 1.379 . S
C1861 N1859 1.356 . S
N1862 C1854 1.356 . S
N1862 H1868 0.984 . S
N1862 H1869 0.984 . S
N1863 C1856 1.356 . S
N1863 H1866 0.984 . S
N1863 H1867 0.985 . S
H1864 N1859 0.984 . S
H1865 N1859 0.985 . S
H1866 N1863 0.984 . S
H1867 N1863 0.985 . S
H1868 N1862 0.984 . S
H1869 N1862 0.984 . S
H1870 N1858 0.984 . S
H1871 N1858 0.985 . S
C1872 C1873 1.363 . S
C1872 C1878 1.379 . S
C1872 N1880 1.356 . S
C1873 C1872 1.363 . S
C1873 C1879 1.363 . S
C1874 C1875 1.363 . S
C1874 C1879 1.379 . S
C1874 N1881 1.356 . S
C1875 C1874 1.363 . S
C1875 C1878 1.363 . S
N1876 C1878 1.356 . S
N1876 H1888 0.984 . S
N1876 H1889 0.985 . S
N1877 C1879 1.356 . S
N1877 H1882 0.984 . S
N1877 H1883 0.985 . S
C1878 C1872 1.379 . S
C1878 C1875 1.363 . S
C1878 N1876 1.356 . S
C1879 C1873 1.363 . S
C1879 C1874 1.379 . S
C1879 N1877 1.356 . S
N1880 C1872 1.356 . S
N1880 H1886 0.984 . S
N1880 H1887 0.984 . S
N1881 C1874 1.356 . S
N1881 H1884 0.984 . S
N1881 H1885 0.985 . S
H1882 N1877 0.984 . S
H1883 N1877 0.985 . S
H1884 N1881 0.984 . S
H1885 N1881 0.985 . S
H1886 N1880 0.984 . S
H1887 N1880 0.984 . S
H1888 N1876 0.984 . S
H1889 N1876 0.985 . S
C1890 C1891 1.363 . S
C1890 C1896 1.379 . S
C1890 N1898 1.356 . S
C1891 C1890 1.363 . S
C1891 C1897 1.363 . S
C1892 C1893 1.363 . S
C1892 C1897 1.379 . S
C1892 N1899 1.356 . S
C1893 C1892 1.363 . S
C1893 C1896 1.363 . S
N1894 C1896 1.356 1_545 S
N1894 H1906 0.984 . S
N1894 H1907 0.985 . S
N1895 C1897 1.356 . S
N1895 H1900 0.984 . S
N1895 H1901 0.985 . S
C1896 C1890 1.379 . S
C1896 C1893 1.363 . S
C1896 N1894 1.356 1_565 S
C1897 C1891 1.363 . S
C1897 C1892 1.379 . S
C1897 N1895 1.356 . S
N1898 C1890 1.356 . S
N1898 H1904 0.984 1_565 S
N1898 H1905 0.984 . S
N1899 C1892 1.356 . S
N1899 H1902 0.984 . S
N1899 H1903 0.985 . S
H1900 N1895 0.984 . S
H1901 N1895 0.985 . S
H1902 N1899 0.984 . S
H1903 N1899 0.985 . S
H1904 N1898 0.984 1_545 S
H1905 N1898 0.984 . S
H1906 N1894 0.984 . S
H1907 N1894 0.985 . S
C1908 C1909 1.363 . S
C1908 C1914 1.379 . S
C1908 N1916 1.356 . S
C1909 C1908 1.363 . S
C1909 C1915 1.363 . S
C1910 C1911 1.363 . S
C1910 C1915 1.379 . S
C1910 N1917 1.356 . S
C1911 C1910 1.363 . S
C1911 C1914 1.363 . S
N1912 C1914 1.356 . S
N1912 H1924 0.984 . S
N1912 H1925 0.985 . S
N1913 C1915 1.356 . S
N1913 H1918 0.984 . S
N1913 H1919 0.985 . S
C1914 C1908 1.379 . S
C1914 C1911 1.363 . S
C1914 N1912 1.356 . S
C1915 C1909 1.363 . S
C1915 C1910 1.379 . S
C1915 N1913 1.356 . S
N1916 C1908 1.356 . S
N1916 H1922 0.984 . S
N1916 H1923 0.984 . S
N1917 C1910 1.356 . S
N1917 H1920 0.984 1_455 S
N1917 H1921 0.985 . S
H1918 N1913 0.984 . S
H1919 N1913 0.985 . S
H1920 N1917 0.984 1_655 S
H1921 N1917 0.985 . S
H1922 N1916 0.984 . S
H1923 N1916 0.984 . S
H1924 N1912 0.984 . S
H1925 N1912 0.985 . S
C1926 C1927 1.363 . S
C1926 C1932 1.379 . S
C1926 N1934 1.356 . S
C1927 C1926 1.363 . S
C1927 C1933 1.363 . S
C1928 C1929 1.363 . S
C1928 C1933 1.379 . S
C1928 N1935 1.356 . S
C1929 C1928 1.363 . S
C1929 C1932 1.363 . S
N1930 C1932 1.356 . S
N1930 H1942 0.984 . S
N1930 H1943 0.985 . S
N1931 C1933 1.356 . S
N1931 H1936 0.984 . S
N1931 H1937 0.985 . S
C1932 C1926 1.379 . S
C1932 C1929 1.363 . S
C1932 N1930 1.356 . S
C1933 C1927 1.363 . S
C1933 C1928 1.379 . S
C1933 N1931 1.356 . S
N1934 C1926 1.356 . S
N1934 H1940 0.984 . S
N1934 H1941 0.984 . S
N1935 C1928 1.356 . S
N1935 H1938 0.984 . S
N1935 H1939 0.985 . S
H1936 N1931 0.984 . S
H1937 N1931 0.985 . S
H1938 N1935 0.984 . S
H1939 N1935 0.985 . S
H1940 N1934 0.984 . S
H1941 N1934 0.984 . S
H1942 N1930 0.984 . S
H1943 N1930 0.985 . S
C1944 C1945 1.363 . S
C1944 C1950 1.379 . S
C1944 N1952 1.356 . S
C1945 C1944 1.363 . S
C1945 C1951 1.363 . S
C1946 C1947 1.363 . S
C1946 C1951 1.379 . S
C1946 N1953 1.356 . S
C1947 C1946 1.363 . S
C1947 C1950 1.363 . S
N1948 C1950 1.356 . S
N1948 H1960 0.984 . S
N1948 H1961 0.985 . S
N1949 C1951 1.356 1_565 S
N1949 H1954 0.984 . S
N1949 H1955 0.985 . S
C1950 C1944 1.379 . S
C1950 C1947 1.363 . S
C1950 N1948 1.356 . S
C1951 C1945 1.363 . S
C1951 C1946 1.379 . S
C1951 N1949 1.356 1_545 S
N1952 C1944 1.356 . S
N1952 H1958 0.984 . S
N1952 H1959 0.984 . S
N1953 C1946 1.356 . S
N1953 H1956 0.984 . S
N1953 H1957 0.985 . S
H1954 N1949 0.984 . S
H1955 N1949 0.985 . S
H1956 N1953 0.984 . S
H1957 N1953 0.985 . S
H1958 N1952 0.984 . S
H1959 N1952 0.984 . S
H1960 N1948 0.984 . S
H1961 N1948 0.985 . S
C1962 C1963 1.363 . S
C1962 C1968 1.379 . S
C1962 N1970 1.356 . S
C1963 C1962 1.363 . S
C1963 C1969 1.363 . S
C1964 C1965 1.363 . S
C1964 C1969 1.379 . S
C1964 N1971 1.356 1_655 S
C1965 C1964 1.363 . S
C1965 C1968 1.363 . S
N1966 C1968 1.356 . S
N1966 H1978 0.984 . S
N1966 H1979 0.985 . S
N1967 C1969 1.356 . S
N1967 H1972 0.984 . S
N1967 H1973 0.985 . S
C1968 C1962 1.379 . S
C1968 C1965 1.363 . S
C1968 N1966 1.356 . S
C1969 C1963 1.363 . S
C1969 C1964 1.379 . S
C1969 N1967 1.356 . S
N1970 C1962 1.356 . S
N1970 H1976 0.984 . S
N1970 H1977 0.984 . S
N1971 C1964 1.356 1_455 S
N1971 H1974 0.984 . S
N1971 H1975 0.985 . S
H1972 N1967 0.984 . S
H1973 N1967 0.985 . S
H1974 N1971 0.984 . S
H1975 N1971 0.985 . S
H1976 N1970 0.984 . S
H1977 N1970 0.984 . S
H1978 N1966 0.984 . S
H1979 N1966 0.985 . S
C1980 C1981 1.363 . S
C1980 C1986 1.379 . S
C1980 N1988 1.356 . S
C1981 C1980 1.363 . S
C1981 C1987 1.363 . S
C1982 C1983 1.363 . S
C1982 C1987 1.379 . S
C1982 N1989 1.356 . S
C1983 C1982 1.363 . S
C1983 C1986 1.363 . S
N1984 C1986 1.356 . S
N1984 H1996 0.984 . S
N1984 H1997 0.985 . S
N1985 C1987 1.356 . S
N1985 H1990 0.984 . S
N1985 H1991 0.985 . S
C1986 C1980 1.379 . S
C1986 C1983 1.363 . S
C1986 N1984 1.356 . S
C1987 C1981 1.363 . S
C1987 C1982 1.379 . S
C1987 N1985 1.356 . S
N1988 C1980 1.356 . S
N1988 H1994 0.984 . S
N1988 H1995 0.984 . S
N1989 C1982 1.356 . S
N1989 H1992 0.984 . S
N1989 H1993 0.985 . S
H1990 N1985 0.984 . S
H1991 N1985 0.985 . S
H1992 N1989 0.984 . S
H1993 N1989 0.985 . S
H1994 N1988 0.984 . S
H1995 N1988 0.984 . S
H1996 N1984 0.984 . S
H1997 N1984 0.985 . S
C1998 C1999 1.363 . S
C1998 C2004 1.379 . S
C1998 N2006 1.356 . S
C1999 C1998 1.363 . S
C1999 C2005 1.363 . S
C2000 C2001 1.363 . S
C2000 C2005 1.379 . S
C2000 N2007 1.356 1_545 S
C2001 C2000 1.363 . S
C2001 C2004 1.363 . S
N2002 C2004 1.356 . S
N2002 H2014 0.984 . S
N2002 H2015 0.985 . S
N2003 C2005 1.356 . S
N2003 H2008 0.984 . S
N2003 H2009 0.985 . S
C2004 C1998 1.379 . S
C2004 C2001 1.363 . S
C2004 N2002 1.356 . S
C2005 C1999 1.363 . S
C2005 C2000 1.379 . S
C2005 N2003 1.356 . S
N2006 C1998 1.356 . S
N2006 H2012 0.984 . S
N2006 H2013 0.984 . S
N2007 C2000 1.356 1_565 S
N2007 H2010 0.984 . S
N2007 H2011 0.985 . S
H2008 N2003 0.984 . S
H2009 N2003 0.985 . S
H2010 N2007 0.984 . S
H2011 N2007 0.985 . S
H2012 N2006 0.984 . S
H2013 N2006 0.984 . S
H2014 N2002 0.984 . S
H2015 N2002 0.985 . S
C2016 C2017 1.363 . S
C2016 C2022 1.379 . S
C2016 N2024 1.356 . S
C2017 C2016 1.363 . S
C2017 C2023 1.363 . S
C2018 C2019 1.363 . S
C2018 C2023 1.379 . S
C2018 N2025 1.356 1_655 S
C2019 C2018 1.363 . S
C2019 C2022 1.363 . S
N2020 C2022 1.356 . S
N2020 H2032 0.984 . S
N2020 H2033 0.985 . S
N2021 C2023 1.356 . S
N2021 H2026 0.984 . S
N2021 H2027 0.985 . S
C2022 C2016 1.379 . S
C2022 C2019 1.363 . S
C2022 N2020 1.356 . S
C2023 C2017 1.363 . S
C2023 C2018 1.379 . S
C2023 N2021 1.356 . S
N2024 C2016 1.356 . S
N2024 H2030 0.984 . S
N2024 H2031 0.984 . S
N2025 C2018 1.356 1_455 S
N2025 H2028 0.984 . S
N2025 H2029 0.985 . S
H2026 N2021 0.984 . S
H2027 N2021 0.985 . S
H2028 N2025 0.984 . S
H2029 N2025 0.985 . S
H2030 N2024 0.984 . S
H2031 N2024 0.984 . S
H2032 N2020 0.984 . S
H2033 N2020 0.985 . S
C2034 C2035 1.363 . S
C2034 C2040 1.379 . S
C2034 N2042 1.356 . S
C2035 C2034 1.363 . S
C2035 C2041 1.363 . S
C2036 C2037 1.363 . S
C2036 C2041 1.379 . S
C2036 N2043 1.356 . S
C2037 C2036 1.363 . S
C2037 C2040 1.363 . S
N2038 C2040 1.356 . S
N2038 H2050 0.984 . S
N2038 H2051 0.985 . S
N2039 C2041 1.356 . S
N2039 H2044 0.984 . S
N2039 H2045 0.985 . S
C2040 C2034 1.379 . S
C2040 C2037 1.363 . S
C2040 N2038 1.356 . S
C2041 C2035 1.363 . S
C2041 C2036 1.379 . S
C2041 N2039 1.356 . S
N2042 C2034 1.356 . S
N2042 H2048 0.984 . S
N2042 H2049 0.984 . S
N2043 C2036 1.356 . S
N2043 H2046 0.984 . S
N2043 H2047 0.985 . S
H2044 N2039 0.984 . S
H2045 N2039 0.985 . S
H2046 N2043 0.984 . S
H2047 N2043 0.985 . S
H2048 N2042 0.984 . S
H2049 N2042 0.984 . S
H2050 N2038 0.984 . S
H2051 N2038 0.985 . S
C2052 C2053 1.363 . S
C2052 C2058 1.379 . S
C2052 N2060 1.356 . S
C2053 C2052 1.363 . S
C2053 C2059 1.363 . S
C2054 C2055 1.363 . S
C2054 C2059 1.379 . S
C2054 N2061 1.356 . S
C2055 C2054 1.363 . S
C2055 C2058 1.363 . S
N2056 C2058 1.356 . S
N2056 H2068 0.984 . S
N2056 H2069 0.985 . S
N2057 C2059 1.356 . S
N2057 H2062 0.984 . S
N2057 H2063 0.985 . S
C2058 C2052 1.379 . S
C2058 C2055 1.363 . S
C2058 N2056 1.356 . S
C2059 C2053 1.363 . S
C2059 C2054 1.379 . S
C2059 N2057 1.356 . S
N2060 C2052 1.356 . S
N2060 H2066 0.984 . S
N2060 H2067 0.984 . S
N2061 C2054 1.356 . S
N2061 H2064 0.984 . S
N2061 H2065 0.985 . S
H2062 N2057 0.984 . S
H2063 N2057 0.985 . S
H2064 N2061 0.984 . S
H2065 N2061 0.985 . S
H2066 N2060 0.984 . S
H2067 N2060 0.984 . S
H2068 N2056 0.984 . S
H2069 N2056 0.985 . S
C2070 C2071 1.363 . S
C2070 C2076 1.379 . S
C2070 N2078 1.356 . S
C2071 C2070 1.363 . S
C2071 C2077 1.363 . S
C2072 C2073 1.363 . S
C2072 C2077 1.379 . S
C2072 N2079 1.356 . S
C2073 C2072 1.363 . S
C2073 C2076 1.363 . S
N2074 C2076 1.356 . S
N2074 H2086 0.984 . S
N2074 H2087 0.985 . S
N2075 C2077 1.356 . S
N2075 H2080 0.984 . S
N2075 H2081 0.985 . S
C2076 C2070 1.379 . S
C2076 C2073 1.363 . S
C2076 N2074 1.356 . S
C2077 C2071 1.363 . S
C2077 C2072 1.379 . S
C2077 N2075 1.356 . S
N2078 C2070 1.356 . S
N2078 H2084 0.984 . S
N2078 H2085 0.984 . S
N2079 C2072 1.356 . S
N2079 H2082 0.984 . S
N2079 H2083 0.985 . S
H2080 N2075 0.984 . S
H2081 N2075 0.985 . S
H2082 N2079 0.984 . S
H2083 N2079 0.985 . S
H2084 N2078 0.984 . S
H2085 N2078 0.984 . S
H2086 N2074 0.984 . S
H2087 N2074 0.985 . S
C2088 C2089 1.363 . S
C2088 C2094 1.379 . S
C2088 N2096 1.356 . S
C2089 C2088 1.363 . S
C2089 C2095 1.363 . S
C2090 C2091 1.363 . S
C2090 C2095 1.379 . S
C2090 N2097 1.356 . S
C2091 C2090 1.363 . S
C2091 C2094 1.363 . S
N2092 C2094 1.356 1_455 S
N2092 H2104 0.984 . S
N2092 H2105 0.985 . S
N2093 C2095 1.356 . S
N2093 H2098 0.984 . S
N2093 H2099 0.985 . S
C2094 C2088 1.379 . S
C2094 C2091 1.363 . S
C2094 N2092 1.356 1_655 S
C2095 C2089 1.363 . S
C2095 C2090 1.379 . S
C2095 N2093 1.356 . S
N2096 C2088 1.356 . S
N2096 H2102 0.984 . S
N2096 H2103 0.984 . S
N2097 C2090 1.356 . S
N2097 H2100 0.984 . S
N2097 H2101 0.985 . S
H2098 N2093 0.984 . S
H2099 N2093 0.985 . S
H2100 N2097 0.984 . S
H2101 N2097 0.985 . S
H2102 N2096 0.984 . S
H2103 N2096 0.984 . S
H2104 N2092 0.984 . S
H2105 N2092 0.985 . S
C2106 C2107 1.363 . S
C2106 C2112 1.379 . S
C2106 N2114 1.356 . S
C2107 C2106 1.363 . S
C2107 C2113 1.363 . S
C2108 C2109 1.363 . S
C2108 C2113 1.379 . S
C2108 N2115 1.356 . S
C2109 C2108 1.363 . S
C2109 C2112 1.363 . S
N2110 C2112 1.356 . S
N2110 H2122 0.984 . S
N2110 H2123 0.985 . S
N2111 C2113 1.356 . S
N2111 H2116 0.984 . S
N2111 H2117 0.985 . S
C2112 C2106 1.379 . S
C2112 C2109 1.363 . S
C2112 N2110 1.356 . S
C2113 C2107 1.363 . S
C2113 C2108 1.379 . S
C2113 N2111 1.356 . S
N2114 C2106 1.356 . S
N2114 H2120 0.984 . S
N2114 H2121 0.984 . S
N2115 C2108 1.356 . S
N2115 H2118 0.984 . S
N2115 H2119 0.985 . S
H2116 N2111 0.984 . S
H2117 N2111 0.985 . S
H2118 N2115 0.984 . S
H2119 N2115 0.985 . S
H2120 N2114 0.984 . S
H2121 N2114 0.984 . S
H2122 N2110 0.984 . S
H2123 N2110 0.985 . S
C2124 C2125 1.363 . S
C2124 C2130 1.379 . S
C2124 N2132 1.356 . S
C2125 C2124 1.363 . S
C2125 C2131 1.363 . S
C2126 C2127 1.363 . S
C2126 C2131 1.379 . S
C2126 N2133 1.356 . S
C2127 C2126 1.363 . S
C2127 C2130 1.363 . S
N2128 C2130 1.356 . S
N2128 H2140 0.984 . S
N2128 H2141 0.985 . S
N2129 C2131 1.356 1_565 S
N2129 H2134 0.984 . S
N2129 H2135 0.985 . S
C2130 C2124 1.379 . S
C2130 C2127 1.363 . S
C2130 N2128 1.356 . S
C2131 C2125 1.363 . S
C2131 C2126 1.379 . S
C2131 N2129 1.356 1_545 S
N2132 C2124 1.356 . S
N2132 H2138 0.984 . S
N2132 H2139 0.984 . S
N2133 C2126 1.356 . S
N2133 H2136 0.984 . S
N2133 H2137 0.985 . S
H2134 N2129 0.984 . S
H2135 N2129 0.985 . S
H2136 N2133 0.984 . S
H2137 N2133 0.985 . S
H2138 N2132 0.984 . S
H2139 N2132 0.984 . S
H2140 N2128 0.984 . S
H2141 N2128 0.985 . S
C2142 C2143 1.363 . S
C2142 C2148 1.379 . S
C2142 N2150 1.356 . S
C2143 C2142 1.363 . S
C2143 C2149 1.363 1_655 S
C2144 C2145 1.363 . S
C2144 C2149 1.379 . S
C2144 N2151 1.356 . S
C2145 C2144 1.363 . S
C2145 C2148 1.363 1_455 S
N2146 C2148 1.356 . S
N2146 H2158 0.984 . S
N2146 H2159 0.985 . S
N2147 C2149 1.356 . S
N2147 H2152 0.984 . S
N2147 H2153 0.985 . S
C2148 C2142 1.379 . S
C2148 C2145 1.363 1_655 S
C2148 N2146 1.356 . S
C2149 C2143 1.363 1_455 S
C2149 C2144 1.379 . S
C2149 N2147 1.356 . S
N2150 C2142 1.356 . S
N2150 H2156 0.984 . S
N2150 H2157 0.984 . S
N2151 C2144 1.356 . S
N2151 H2154 0.984 . S
N2151 H2155 0.985 . S
H2152 N2147 0.984 . S
H2153 N2147 0.985 . S
H2154 N2151 0.984 . S
H2155 N2151 0.985 . S
H2156 N2150 0.984 . S
H2157 N2150 0.984 . S
H2158 N2146 0.984 . S
H2159 N2146 0.985 . S
C2160 C2161 1.363 . S
C2160 C2166 1.379 . S
C2160 N2168 1.356 . S
C2161 C2160 1.363 . S
C2161 C2167 1.363 . S
C2162 C2163 1.363 . S
C2162 C2167 1.379 . S
C2162 N2169 1.356 . S
C2163 C2162 1.363 . S
C2163 C2166 1.363 . S
N2164 C2166 1.356 . S
N2164 H2176 0.984 . S
N2164 H2177 0.985 . S
N2165 C2167 1.356 . S
N2165 H2170 0.984 . S
N2165 H2171 0.985 . S
C2166 C2160 1.379 . S
C2166 C2163 1.363 . S
C2166 N2164 1.356 . S
C2167 C2161 1.363 . S
C2167 C2162 1.379 . S
C2167 N2165 1.356 . S
N2168 C2160 1.356 . S
N2168 H2174 0.984 . S
N2168 H2175 0.984 . S
N2169 C2162 1.356 . S
N2169 H2172 0.984 . S
N2169 H2173 0.985 . S
H2170 N2165 0.984 . S
H2171 N2165 0.985 . S
H2172 N2169 0.984 . S
H2173 N2169 0.985 . S
H2174 N2168 0.984 . S
H2175 N2168 0.984 . S
H2176 N2164 0.984 . S
H2177 N2164 0.985 . S
C2178 C2179 1.363 1_565 S
C2178 C2184 1.379 . S
C2178 N2186 1.356 . S
C2179 C2178 1.363 1_545 S
C2179 C2185 1.363 . S
C2180 C2181 1.363 1_545 S
C2180 C2185 1.379 . S
C2180 N2187 1.356 . S
C2181 C2180 1.363 1_565 S
C2181 C2184 1.363 . S
N2182 C2184 1.356 . S
N2182 H2194 0.984 . S
N2182 H2195 0.985 . S
N2183 C2185 1.356 . S
N2183 H2188 0.984 . S
N2183 H2189 0.985 . S
C2184 C2178 1.379 . S
C2184 C2181 1.363 . S
C2184 N2182 1.356 . S
C2185 C2179 1.363 . S
C2185 C2180 1.379 . S
C2185 N2183 1.356 . S
N2186 C2178 1.356 . S
N2186 H2192 0.984 . S
N2186 H2193 0.984 . S
N2187 C2180 1.356 . S
N2187 H2190 0.984 . S
N2187 H2191 0.985 . S
H2188 N2183 0.984 . S
H2189 N2183 0.985 . S
H2190 N2187 0.984 . S
H2191 N2187 0.985 . S
H2192 N2186 0.984 . S
H2193 N2186 0.984 . S
H2194 N2182 0.984 . S
H2195 N2182 0.985 . S
C2196 C2197 1.363 . S
C2196 C2202 1.379 . S
C2196 N2204 1.356 . S
C2197 C2196 1.363 . S
C2197 C2203 1.363 1_565 S
C2198 C2199 1.363 . S
C2198 C2203 1.379 . S
C2198 N2205 1.356 . S
C2199 C2198 1.363 . S
C2199 C2202 1.363 1_545 S
N2200 C2202 1.356 . S
N2200 H2212 0.984 . S
N2200 H2213 0.985 . S
N2201 C2203 1.356 . S
N2201 H2206 0.984 . S
N2201 H2207 0.985 . S
C2202 C2196 1.379 . S
C2202 C2199 1.363 1_565 S
C2202 N2200 1.356 . S
C2203 C2197 1.363 1_545 S
C2203 C2198 1.379 . S
C2203 N2201 1.356 . S
N2204 C2196 1.356 . S
N2204 H2210 0.984 . S
N2204 H2211 0.984 . S
N2205 C2198 1.356 . S
N2205 H2208 0.984 . S
N2205 H2209 0.985 . S
H2206 N2201 0.984 . S
H2207 N2201 0.985 . S
H2208 N2205 0.984 . S
H2209 N2205 0.985 . S
H2210 N2204 0.984 . S
H2211 N2204 0.984 . S
H2212 N2200 0.984 . S
H2213 N2200 0.985 . S
C2214 C2215 1.363 1_455 S
C2214 C2220 1.379 . S
C2214 N2222 1.356 . S
C2215 C2214 1.363 1_655 S
C2215 C2221 1.363 . S
C2216 C2217 1.363 1_655 S
C2216 C2221 1.379 . S
C2216 N2223 1.356 . S
C2217 C2216 1.363 1_455 S
C2217 C2220 1.363 . S
N2218 C2220 1.356 . S
N2218 H2230 0.984 . S
N2218 H2231 0.985 . S
N2219 C2221 1.356 . S
N2219 H2224 0.984 . S
N2219 H2225 0.985 . S
C2220 C2214 1.379 . S
C2220 C2217 1.363 . S
C2220 N2218 1.356 . S
C2221 C2215 1.363 . S
C2221 C2216 1.379 . S
C2221 N2219 1.356 . S
N2222 C2214 1.356 . S
N2222 H2228 0.984 . S
N2222 H2229 0.984 . S
N2223 C2216 1.356 . S
N2223 H2226 0.984 1_655 S
N2223 H2227 0.985 . S
H2224 N2219 0.984 . S
H2225 N2219 0.985 . S
H2226 N2223 0.984 1_455 S
H2227 N2223 0.985 . S
H2228 N2222 0.984 . S
H2229 N2222 0.984 . S
H2230 N2218 0.984 . S
H2231 N2218 0.985 . S
C2232 C2233 1.363 . S
C2232 C2238 1.379 . S
C2232 N2240 1.356 . S
C2233 C2232 1.363 . S
C2233 C2239 1.363 . S
C2234 C2235 1.363 . S
C2234 C2239 1.379 . S
C2234 N2241 1.356 . S
C2235 C2234 1.363 . S
C2235 C2238 1.363 . S
N2236 C2238 1.356 . S
N2236 H2248 0.984 . S
N2236 H2249 0.985 . S
N2237 C2239 1.356 . S
N2237 H2242 0.984 . S
N2237 H2243 0.985 . S
C2238 C2232 1.379 . S
C2238 C2235 1.363 . S
C2238 N2236 1.356 . S
C2239 C2233 1.363 . S
C2239 C2234 1.379 . S
C2239 N2237 1.356 . S
N2240 C2232 1.356 . S
N2240 H2246 0.984 . S
N2240 H2247 0.984 . S
N2241 C2234 1.356 . S
N2241 H2244 0.984 . S
N2241 H2245 0.985 . S
H2242 N2237 0.984 . S
H2243 N2237 0.985 . S
H2244 N2241 0.984 . S
H2245 N2241 0.985 . S
H2246 N2240 0.984 . S
H2247 N2240 0.984 . S
H2248 N2236 0.984 . S
H2249 N2236 0.985 . S
C2250 C2251 1.363 1_554 S
C2250 C2256 1.379 . S
C2250 N2258 1.356 1_545 S
C2251 C2250 1.363 1_556 S
C2251 C2257 1.363 . S
C2252 C2253 1.363 . S
C2252 C2257 1.379 1_554 S
C2252 N2259 1.356 . S
C2253 C2252 1.363 . S
C2253 C2256 1.363 . S
N2254 C2256 1.356 . S
N2254 H2266 0.984 . S
N2254 H2267 0.985 . S
N2255 C2257 1.356 . S
N2255 H2260 0.984 . S
N2255 H2261 0.985 . S
C2256 C2250 1.379 . S
C2256 C2253 1.363 . S
C2256 N2254 1.356 . S
C2257 C2251 1.363 . S
C2257 C2252 1.379 1_556 S
C2257 N2255 1.356 . S
N2258 C2250 1.356 1_565 S
N2258 H2264 0.984 . S
N2258 H2265 0.984 1_554 S
N2259 C2252 1.356 . S
N2259 H2262 0.984 . S
N2259 H2263 0.985 . S
H2260 N2255 0.984 . S
H2261 N2255 0.985 . S
H2262 N2259 0.984 . S
H2263 N2259 0.985 . S
H2264 N2258 0.984 . S
H2265 N2258 0.984 1_556 S
H2266 N2254 0.984 . S
H2267 N2254 0.985 . S
C2268 C2269 1.363 . S
C2268 C2274 1.379 . S
C2268 N2276 1.356 . S
C2269 C2268 1.363 . S
C2269 C2275 1.363 . S
C2270 C2271 1.366 1_554 S
C2270 C2275 1.373 . S
C2270 N2277 1.361 1_654 S
C2271 C2270 1.366 1_556 S
C2271 C2274 1.363 1_556 S
N2272 C2274 1.356 1_556 S
N2272 H2284 0.984 . S
N2272 H2285 0.985 1_655 S
N2273 C2275 1.356 . S
N2273 H2278 0.984 . S
N2273 H2279 0.985 . S
C2274 C2268 1.379 . S
C2274 C2271 1.363 1_554 S
C2274 N2272 1.356 1_554 S
C2275 C2269 1.363 . S
C2275 C2270 1.373 . S
C2275 N2273 1.356 . S
N2276 C2268 1.356 . S
N2276 H2282 0.984 . S
N2276 H2283 0.984 . S
N2277 C2270 1.361 1_456 S
N2277 H2280 0.984 . S
N2277 H2281 0.979 . S
H2278 N2273 0.984 . S
H2279 N2273 0.985 . S
H2280 N2277 0.984 . S
H2281 N2277 0.979 . S
H2282 N2276 0.984 . S
H2283 N2276 0.984 . S
H2284 N2272 0.984 . S
H2285 N2272 0.985 1_455 S
C2286 C2287 1.363 . S
C2286 C2292 1.379 1_554 S
C2286 N2294 1.356 . S
C2287 C2286 1.363 . S
C2287 C2293 1.363 . S
C2288 C2289 1.363 1_554 S
C2288 C2293 1.379 . S
C2288 N2295 1.368 . S
C2289 C2288 1.363 1_556 S
C2289 C2292 1.363 . S
N2290 C2292 1.356 . S
N2290 H2302 0.984 . S
N2290 H2303 0.985 . S
N2291 C2293 1.356 . S
N2291 H2296 0.984 . S
N2291 H2297 0.985 . S
C2292 C2286 1.379 1_556 S
C2292 C2289 1.363 . S
C2292 N2290 1.356 . S
C2293 C2287 1.363 . S
C2293 C2288 1.379 . S
C2293 N2291 1.356 . S
N2294 C2286 1.356 . S
N2294 H2300 0.984 . S
N2294 H2301 0.984 . S
N2295 C2288 1.368 . S
N2295 H2298 0.958 1_554 S
N2295 H2299 1.001 . S
H2296 N2291 0.984 . S
H2297 N2291 0.985 . S
H2298 N2295 0.958 1_556 S
H2299 N2295 1.001 . S
H2300 N2294 0.984 . S
H2301 N2294 0.984 . S
H2302 N2290 0.984 . S
H2303 N2290 0.985 . S
C2304 C2305 1.363 . S
C2304 C2310 1.379 . S
C2304 N2312 1.356 . S
C2305 C2304 1.363 . S
C2305 C2311 1.363 1_545 S
C2306 C2307 1.363 . S
C2306 C2311 1.379 . S
C2306 N2313 1.356 . S
C2307 C2306 1.363 . S
C2307 C2310 1.363 1_565 S
N2308 C2310 1.356 . S
N2308 H2320 0.984 . S
N2308 H2321 0.985 . S
N2309 C2311 1.356 . S
N2309 H2314 0.984 . S
N2309 H2315 0.985 . S
C2310 C2304 1.379 . S
C2310 C2307 1.363 1_545 S
C2310 N2308 1.356 . S
C2311 C2305 1.363 1_565 S
C2311 C2306 1.379 . S
C2311 N2309 1.356 . S
N2312 C2304 1.356 . S
N2312 H2318 0.984 . S
N2312 H2319 0.984 . S
N2313 C2306 1.356 . S
N2313 H2316 0.984 . S
N2313 H2317 0.985 . S
H2314 N2309 0.984 . S
H2315 N2309 0.985 . S
H2316 N2313 0.984 . S
H2317 N2313 0.985 . S
H2318 N2312 0.984 . S
H2319 N2312 0.984 . S
H2320 N2308 0.984 . S
H2321 N2308 0.985 . S
C2322 C2323 1.363 . S
C2322 C2328 1.379 . S
C2322 N2330 1.356 . S
C2323 C2322 1.363 . S
C2323 C2329 1.363 . S
C2324 C2325 1.363 1_655 S
C2324 C2329 1.379 . S
C2324 N2331 1.356 1_655 S
C2325 C2324 1.363 1_455 S
C2325 C2328 1.363 1_455 S
N2326 C2328 1.356 1_455 S
N2326 H2338 0.984 . S
N2326 H2339 0.985 . S
N2327 C2329 1.356 . S
N2327 H2332 0.984 . S
N2327 H2333 0.985 . S
C2328 C2322 1.379 . S
C2328 C2325 1.363 1_655 S
C2328 N2326 1.356 1_655 S
C2329 C2323 1.363 . S
C2329 C2324 1.379 . S
C2329 N2327 1.356 . S
N2330 C2322 1.356 . S
N2330 H2336 0.984 . S
N2330 H2337 0.984 . S
N2331 C2324 1.356 1_455 S
N2331 H2334 0.984 . S
N2331 H2335 0.985 . S
H2332 N2327 0.984 . S
H2333 N2327 0.985 . S
H2334 N2331 0.984 . S
H2335 N2331 0.985 . S
H2336 N2330 0.984 . S
H2337 N2330 0.984 . S
H2338 N2326 0.984 . S
H2339 N2326 0.985 . S
C2340 C2341 1.363 . S
C2340 C2346 1.379 . S
C2340 N2348 1.356 . S
C2341 C2340 1.363 . S
C2341 C2347 1.363 . S
C2342 C2343 1.363 . S
C2342 C2347 1.379 . S
C2342 N2349 1.356 . S
C2343 C2342 1.363 . S
C2343 C2346 1.363 . S
N2344 C2346 1.356 . S
N2344 H2356 0.984 . S
N2344 H2357 0.985 . S
N2345 C2347 1.356 . S
N2345 H2350 0.984 . S
N2345 H2351 0.985 . S
C2346 C2340 1.379 . S
C2346 C2343 1.363 . S
C2346 N2344 1.356 . S
C2347 C2341 1.363 . S
C2347 C2342 1.379 . S
C2347 N2345 1.356 . S
N2348 C2340 1.356 . S
N2348 H2354 0.984 . S
N2348 H2355 0.984 . S
N2349 C2342 1.356 . S
N2349 H2352 0.984 . S
N2349 H2353 0.985 . S
H2350 N2345 0.984 . S
H2351 N2345 0.985 . S
H2352 N2349 0.984 . S
H2353 N2349 0.985 . S
H2354 N2348 0.984 . S
H2355 N2348 0.984 . S
H2356 N2344 0.984 . S
H2357 N2344 0.985 . S
C2358 C2359 1.363 . S
C2358 C2364 1.379 . S
C2358 N2366 1.356 . S
C2359 C2358 1.363 . S
C2359 C2365 1.363 . S
C2360 C2361 1.365 1_556 S
C2360 C2365 1.375 . S
C2360 N2367 1.359 1_556 S
C2361 C2360 1.365 1_554 S
C2361 C2364 1.363 1_554 S
N2362 C2364 1.356 1_544 S
N2362 H2374 0.984 . S
N2362 H2375 0.985 . S
N2363 C2365 1.356 . S
N2363 H2368 0.984 . S
N2363 H2369 0.985 . S
C2364 C2358 1.379 . S
C2364 C2361 1.363 1_556 S
C2364 N2362 1.356 1_566 S
C2365 C2359 1.363 . S
C2365 C2360 1.375 . S
C2365 N2363 1.356 . S
N2366 C2358 1.356 . S
N2366 H2372 0.984 . S
N2366 H2373 0.984 . S
N2367 C2360 1.359 1_554 S
N2367 H2370 0.984 . S
N2367 H2371 0.985 . S
H2368 N2363 0.984 . S
H2369 N2363 0.985 . S
H2370 N2367 0.984 . S
H2371 N2367 0.985 . S
H2372 N2366 0.984 . S
H2373 N2366 0.984 . S
H2374 N2362 0.984 . S
H2375 N2362 0.985 . S
C2376 C2377 1.363 1_556 S
C2376 C2382 1.379 . S
C2376 N2384 1.350 1_556 S
C2377 C2376 1.363 1_554 S
C2377 C2383 1.363 . S
C2378 C2379 1.363 . S
C2378 C2383 1.379 1_556 S
C2378 N2385 1.356 . S
C2379 C2378 1.363 . S
C2379 C2382 1.363 . S
N2380 C2382 1.356 . S
N2380 H2392 0.984 . S
N2380 H2393 0.985 . S
N2381 C2383 1.356 . S
N2381 H2386 0.984 1_455 S
N2381 H2387 0.985 . S
C2382 C2376 1.379 . S
C2382 C2379 1.363 . S
C2382 N2380 1.356 . S
C2383 C2377 1.363 . S
C2383 C2378 1.379 1_554 S
C2383 N2381 1.356 . S
N2384 C2376 1.350 1_554 S
N2384 H2390 0.976 1_554 S
N2384 H2391 1.000 1_455 S
N2385 C2378 1.356 . S
N2385 H2388 0.984 . S
N2385 H2389 0.985 . S
H2386 N2381 0.984 1_655 S
H2387 N2381 0.985 . S
H2388 N2385 0.984 . S
H2389 N2385 0.985 . S
H2390 N2384 0.976 1_556 S
H2391 N2384 1.000 1_655 S
H2392 N2380 0.984 . S
H2393 N2380 0.985 . S
C2394 C2395 1.363 . S
C2394 C2400 1.379 1_556 S
C2394 N2402 1.356 . S
C2395 C2394 1.363 . S
C2395 C2401 1.363 . S
C2396 C2397 1.363 1_556 S
C2396 C2401 1.379 . S
C2396 N2403 1.356 . S
C2397 C2396 1.363 1_554 S
C2397 C2400 1.363 . S
N2398 C2400 1.356 . S
N2398 H2410 0.984 . S
N2398 H2411 0.985 . S
N2399 C2401 1.356 . S
N2399 H2404 0.984 . S
N2399 H2405 0.985 . S
C2400 C2394 1.379 1_554 S
C2400 C2397 1.363 . S
C2400 N2398 1.356 . S
C2401 C2395 1.363 . S
C2401 C2396 1.379 . S
C2401 N2399 1.356 . S
N2402 C2394 1.356 . S
N2402 H2408 0.984 . S
N2402 H2409 0.984 . S
N2403 C2396 1.356 . S
N2403 H2406 0.984 1_556 S
N2403 H2407 0.985 . S
H2404 N2399 0.984 . S
H2405 N2399 0.985 . S
H2406 N2403 0.984 1_554 S
H2407 N2403 0.985 . S
H2408 N2402 0.984 . S
H2409 N2402 0.984 . S
H2410 N2398 0.984 . S
H2411 N2398 0.985 . S
C2412 C2413 1.363 . S
C2412 C2418 1.379 . S
C2412 N2420 1.356 . S
C2413 C2412 1.363 . S
C2413 C2419 1.363 . S
C2414 C2415 1.363 . S
C2414 C2419 1.379 . S
C2414 N2421 1.356 . S
C2415 C2414 1.363 . S
C2415 C2418 1.363 . S
N2416 C2418 1.356 . S
N2416 H2428 0.984 . S
N2416 H2429 0.985 . S
N2417 C2419 1.358 . S
N2417 H2422 0.981 1_455 S
N2417 H2423 0.987 . S
C2418 C2412 1.379 . S
C2418 C2415 1.363 . S
C2418 N2416 1.356 . S
C2419 C2413 1.363 . S
C2419 C2414 1.379 . S
C2419 N2417 1.358 . S
N2420 C2412 1.356 . S
N2420 H2426 0.984 . S
N2420 H2427 0.984 1_455 S
N2421 C2414 1.356 . S
N2421 H2424 0.984 . S
N2421 H2425 0.985 . S
H2422 N2417 0.981 1_655 S
H2423 N2417 0.987 . S
H2424 N2421 0.984 . S
H2425 N2421 0.985 . S
H2426 N2420 0.984 . S
H2427 N2420 0.984 1_655 S
H2428 N2416 0.984 . S
H2429 N2416 0.985 . S
C2430 C2431 1.363 . S
C2430 C2436 1.379 . S
C2430 N2438 1.356 . S
C2431 C2430 1.363 . S
C2431 C2437 1.363 . S
C2432 C2433 1.363 . S
C2432 C2437 1.379 . S
C2432 N2439 1.356 . S
C2433 C2432 1.363 . S
C2433 C2436 1.363 . S
N2434 C2436 1.356 . S
N2434 H2446 0.984 . S
N2434 H2447 0.985 . S
N2435 C2437 1.356 . S
N2435 H2440 0.984 . S
N2435 H2441 0.985 . S
C2436 C2430 1.379 . S
C2436 C2433 1.363 . S
C2436 N2434 1.356 . S
C2437 C2431 1.363 . S
C2437 C2432 1.379 . S
C2437 N2435 1.356 . S
N2438 C2430 1.356 . S
N2438 H2444 0.984 . S
N2438 H2445 0.984 . S
N2439 C2432 1.356 . S
N2439 H2442 0.984 . S
N2439 H2443 0.985 . S
H2440 N2435 0.984 . S
H2441 N2435 0.985 . S
H2442 N2439 0.984 . S
H2443 N2439 0.985 . S
H2444 N2438 0.984 . S
H2445 N2438 0.984 . S
H2446 N2434 0.984 . S
H2447 N2434 0.985 . S
C2448 C2449 1.363 . S
C2448 C2454 1.379 . S
C2448 N2456 1.356 . S
C2449 C2448 1.363 . S
C2449 C2455 1.363 . S
C2450 C2451 1.363 . S
C2450 C2455 1.379 . S
C2450 N2457 1.356 . S
C2451 C2450 1.363 . S
C2451 C2454 1.363 . S
N2452 C2454 1.356 1_545 S
N2452 H2464 0.984 . S
N2452 H2465 0.985 . S
N2453 C2455 1.356 . S
N2453 H2458 0.984 . S
N2453 H2459 0.985 . S
C2454 C2448 1.379 . S
C2454 C2451 1.363 . S
C2454 N2452 1.356 1_565 S
C2455 C2449 1.363 . S
C2455 C2450 1.379 . S
C2455 N2453 1.356 . S
N2456 C2448 1.356 . S
N2456 H2462 0.984 . S
N2456 H2463 0.984 . S
N2457 C2450 1.356 . S
N2457 H2460 0.984 . S
N2457 H2461 0.985 . S
H2458 N2453 0.984 . S
H2459 N2453 0.985 . S
H2460 N2457 0.984 . S
H2461 N2457 0.985 . S
H2462 N2456 0.984 . S
H2463 N2456 0.984 . S
H2464 N2452 0.984 . S
H2465 N2452 0.985 . S
C2466 C2467 1.363 . S
C2466 C2472 1.379 1_655 S
C2466 N2474 1.356 . S
C2467 C2466 1.363 . S
C2467 C2473 1.363 . S
C2468 C2469 1.363 1_655 S
C2468 C2473 1.379 . S
C2468 N2475 1.356 . S
C2469 C2468 1.363 1_455 S
C2469 C2472 1.363 . S
N2470 C2472 1.356 . S
N2470 H2482 0.984 . S
N2470 H2483 0.985 . S
N2471 C2473 1.356 . S
N2471 H2476 0.984 . S
N2471 H2477 0.985 . S
C2472 C2466 1.379 1_455 S
C2472 C2469 1.363 . S
C2472 N2470 1.356 . S
C2473 C2467 1.363 . S
C2473 C2468 1.379 . S
C2473 N2471 1.356 . S
N2474 C2466 1.356 . S
N2474 H2480 0.984 1_655 S
N2474 H2481 0.984 . S
N2475 C2468 1.356 . S
N2475 H2478 0.984 . S
N2475 H2479 0.985 . S
H2476 N2471 0.984 . S
H2477 N2471 0.985 . S
H2478 N2475 0.984 . S
H2479 N2475 0.985 . S
H2480 N2474 0.984 1_455 S
H2481 N2474 0.984 . S
H2482 N2470 0.984 . S
H2483 N2470 0.985 . S
C2484 C2485 1.363 . S
C2484 C2490 1.379 . S
C2484 N2492 1.356 . S
C2485 C2484 1.363 . S
C2485 C2491 1.363 . S
C2486 C2487 1.363 . S
C2486 C2491 1.379 . S
C2486 N2493 1.356 . S
C2487 C2486 1.363 . S
C2487 C2490 1.363 . S
N2488 C2490 1.356 . S
N2488 H2500 0.984 . S
N2488 H2501 0.985 . S
N2489 C2491 1.356 . S
N2489 H2494 0.984 . S
N2489 H2495 0.985 . S
C2490 C2484 1.379 . S
C2490 C2487 1.363 . S
C2490 N2488 1.356 . S
C2491 C2485 1.363 . S
C2491 C2486 1.379 . S
C2491 N2489 1.356 . S
N2492 C2484 1.356 . S
N2492 H2498 0.984 . S
N2492 H2499 0.984 . S
N2493 C2486 1.356 . S
N2493 H2496 0.984 . S
N2493 H2497 0.985 . S
H2494 N2489 0.984 . S
H2495 N2489 0.985 . S
H2496 N2493 0.984 . S
H2497 N2493 0.985 . S
H2498 N2492 0.984 . S
H2499 N2492 0.984 . S
H2500 N2488 0.984 . S
H2501 N2488 0.985 . S
C2502 C2503 1.363 1_565 S
C2502 C2508 1.379 . S
C2502 N2510 1.356 . S
C2503 C2502 1.363 1_545 S
C2503 C2509 1.363 . S
C2504 C2505 1.363 1_545 S
C2504 C2509 1.379 . S
C2504 N2511 1.356 . S
C2505 C2504 1.363 1_565 S
C2505 C2508 1.363 . S
N2506 C2508 1.356 . S
N2506 H2518 0.984 . S
N2506 H2519 0.985 . S
N2507 C2509 1.356 . S
N2507 H2512 0.984 . S
N2507 H2513 0.985 . S
C2508 C2502 1.379 . S
C2508 C2505 1.363 . S
C2508 N2506 1.356 . S
C2509 C2503 1.363 . S
C2509 C2504 1.379 . S
C2509 N2507 1.356 . S
N2510 C2502 1.356 . S
N2510 H2516 0.984 . S
N2510 H2517 0.984 1_565 S
N2511 C2504 1.356 . S
N2511 H2514 0.984 . S
N2511 H2515 0.985 . S
H2512 N2507 0.984 . S
H2513 N2507 0.985 . S
H2514 N2511 0.984 . S
H2515 N2511 0.985 . S
H2516 N2510 0.984 . S
H2517 N2510 0.984 1_545 S
H2518 N2506 0.984 . S
H2519 N2506 0.985 . S
C2520 C2521 1.363 . S
C2520 C2526 1.379 1_655 S
C2520 N2528 1.356 . S
C2521 C2520 1.363 . S
C2521 C2527 1.363 . S
C2522 C2523 1.363 . S
C2522 C2527 1.379 1_455 S
C2522 N2529 1.356 . S
C2523 C2522 1.363 . S
C2523 C2526 1.363 . S
N2524 C2526 1.356 . S
N2524 H2536 0.984 . S
N2524 H2537 0.985 . S
N2525 C2527 1.356 . S
N2525 H2530 0.984 . S
N2525 H2531 0.985 . S
C2526 C2520 1.379 1_455 S
C2526 C2523 1.363 . S
C2526 N2524 1.356 . S
C2527 C2521 1.363 . S
C2527 C2522 1.379 1_655 S
C2527 N2525 1.356 . S
N2528 C2520 1.356 . S
N2528 H2534 0.984 . S
N2528 H2535 0.984 . S
N2529 C2522 1.356 . S
N2529 H2532 0.984 . S
N2529 H2533 0.985 . S
H2530 N2525 0.984 . S
H2531 N2525 0.985 . S
H2532 N2529 0.984 . S
H2533 N2529 0.985 . S
H2534 N2528 0.984 . S
H2535 N2528 0.984 . S
H2536 N2524 0.984 . S
H2537 N2524 0.985 . S
C2538 C2539 1.363 . S
C2538 C2544 1.379 . S
C2538 N2546 1.356 . S
C2539 C2538 1.363 . S
C2539 C2545 1.363 . S
C2540 C2541 1.363 . S
C2540 C2545 1.379 . S
C2540 N2547 1.356 . S
C2541 C2540 1.363 . S
C2541 C2544 1.363 . S
N2542 C2544 1.356 . S
N2542 H2554 0.984 . S
N2542 H2555 0.985 . S
N2543 C2545 1.356 . S
N2543 H2548 0.984 . S
N2543 H2549 0.985 . S
C2544 C2538 1.379 . S
C2544 C2541 1.363 . S
C2544 N2542 1.356 . S
C2545 C2539 1.363 . S
C2545 C2540 1.379 . S
C2545 N2543 1.356 . S
N2546 C2538 1.356 . S
N2546 H2552 0.984 . S
N2546 H2553 0.984 . S
N2547 C2540 1.356 . S
N2547 H2550 0.984 . S
N2547 H2551 0.985 . S
H2548 N2543 0.984 . S
H2549 N2543 0.985 . S
H2550 N2547 0.984 . S
H2551 N2547 0.985 . S
H2552 N2546 0.984 . S
H2553 N2546 0.984 . S
H2554 N2542 0.984 . S
H2555 N2542 0.985 . S
C2556 C2557 1.363 . S
C2556 C2562 1.379 1_565 S
C2556 N2564 1.356 . S
C2557 C2556 1.363 . S
C2557 C2563 1.363 . S
C2558 C2559 1.363 . S
C2558 C2563 1.379 1_545 S
C2558 N2565 1.356 . S
C2559 C2558 1.363 . S
C2559 C2562 1.363 . S
N2560 C2562 1.356 . S
N2560 H2572 0.984 . S
N2560 H2573 0.985 . S
N2561 C2563 1.356 . S
N2561 H2566 0.984 . S
N2561 H2567 0.985 . S
C2562 C2556 1.379 1_545 S
C2562 C2559 1.363 . S
C2562 N2560 1.356 . S
C2563 C2557 1.363 . S
C2563 C2558 1.379 1_565 S
C2563 N2561 1.356 . S
N2564 C2556 1.356 . S
N2564 H2570 0.984 . S
N2564 H2571 0.984 . S
N2565 C2558 1.356 . S
N2565 H2568 0.984 . S
N2565 H2569 0.985 . S
H2566 N2561 0.984 . S
H2567 N2561 0.985 . S
H2568 N2565 0.984 . S
H2569 N2565 0.985 . S
H2570 N2564 0.984 . S
H2571 N2564 0.984 . S
H2572 N2560 0.984 . S
H2573 N2560 0.985 . S
C2574 C2575 1.363 . S
C2574 C2580 1.379 1_655 S
C2574 N2582 1.356 . S
C2575 C2574 1.363 . S
C2575 C2581 1.363 . S
C2576 C2577 1.363 . S
C2576 C2581 1.379 1_455 S
C2576 N2583 1.356 . S
C2577 C2576 1.363 . S
C2577 C2580 1.363 . S
N2578 C2580 1.356 . S
N2578 H2590 0.984 1_455 S
N2578 H2591 0.985 . S
N2579 C2581 1.356 . S
N2579 H2584 0.984 . S
N2579 H2585 0.985 1_655 S
C2580 C2574 1.379 1_455 S
C2580 C2577 1.363 . S
C2580 N2578 1.356 . S
C2581 C2575 1.363 . S
C2581 C2576 1.379 1_655 S
C2581 N2579 1.356 . S
N2582 C2574 1.356 . S
N2582 H2588 0.984 . S
N2582 H2589 0.984 . S
N2583 C2576 1.356 . S
N2583 H2586 0.984 . S
N2583 H2587 0.985 . S
H2584 N2579 0.984 . S
H2585 N2579 0.985 1_455 S
H2586 N2583 0.984 . S
H2587 N2583 0.985 . S
H2588 N2582 0.984 . S
H2589 N2582 0.984 . S
H2590 N2578 0.984 1_655 S
H2591 N2578 0.985 . S
C2592 C2593 1.363 . S
C2592 C2598 1.379 . S
C2592 N2600 1.356 . S
C2593 C2592 1.363 . S
C2593 C2599 1.363 . S
C2594 C2595 1.363 . S
C2594 C2599 1.379 . S
C2594 N2601 1.356 . S
C2595 C2594 1.363 . S
C2595 C2598 1.363 . S
N2596 C2598 1.356 . S
N2596 H2608 0.984 . S
N2596 H2609 0.985 . S
N2597 C2599 1.356 . S
N2597 H2602 0.984 . S
N2597 H2603 0.985 . S
C2598 C2592 1.379 . S
C2598 C2595 1.363 . S
C2598 N2596 1.356 . S
C2599 C2593 1.363 . S
C2599 C2594 1.379 . S
C2599 N2597 1.356 . S
N2600 C2592 1.356 . S
N2600 H2606 0.984 . S
N2600 H2607 0.984 . S
N2601 C2594 1.356 . S
N2601 H2604 0.984 . S
N2601 H2605 0.985 . S
H2602 N2597 0.984 . S
H2603 N2597 0.985 . S
H2604 N2601 0.984 . S
H2605 N2601 0.985 . S
H2606 N2600 0.984 . S
H2607 N2600 0.984 . S
H2608 N2596 0.984 . S
H2609 N2596 0.985 . S
C2610 C2611 1.363 . S
C2610 C2616 1.379 1_545 S
C2610 N2618 1.356 . S
C2611 C2610 1.363 . S
C2611 C2617 1.363 . S
C2612 C2613 1.363 . S
C2612 C2617 1.379 1_565 S
C2612 N2619 1.356 . S
C2613 C2612 1.363 . S
C2613 C2616 1.363 . S
N2614 C2616 1.356 . S
N2614 H2626 0.984 . S
N2614 H2627 0.985 . S
N2615 C2617 1.356 . S
N2615 H2620 0.984 . S
N2615 H2621 0.985 . S
C2616 C2610 1.379 1_565 S
C2616 C2613 1.363 . S
C2616 N2614 1.356 . S
C2617 C2611 1.363 . S
C2617 C2612 1.379 1_545 S
C2617 N2615 1.356 . S
N2618 C2610 1.356 . S
N2618 H2624 0.984 . S
N2618 H2625 0.984 . S
N2619 C2612 1.356 . S
N2619 H2622 0.984 . S
N2619 H2623 0.985 . S
H2620 N2615 0.984 . S
H2621 N2615 0.985 . S
H2622 N2619 0.984 . S
H2623 N2619 0.985 . S
H2624 N2618 0.984 . S
H2625 N2618 0.984 . S
H2626 N2614 0.984 . S
H2627 N2614 0.985 . S
C2628 C2629 1.363 . S
C2628 C2634 1.379 . S
C2628 N2636 1.356 . S
C2629 C2628 1.363 . S
C2629 C2635 1.363 . S
C2630 C2631 1.363 . S
C2630 C2635 1.379 . S
C2630 N2637 1.356 . S
C2631 C2630 1.363 . S
C2631 C2634 1.363 . S
N2632 C2634 1.356 . S
N2632 H2644 0.984 . S
N2632 H2645 0.985 . S
N2633 C2635 1.356 . S
N2633 H2638 0.984 . S
N2633 H2639 0.985 . S
C2634 C2628 1.379 . S
C2634 C2631 1.363 . S
C2634 N2632 1.356 . S
C2635 C2629 1.363 . S
C2635 C2630 1.379 . S
C2635 N2633 1.356 . S
N2636 C2628 1.356 . S
N2636 H2642 0.984 . S
N2636 H2643 0.984 . S
N2637 C2630 1.356 . S
N2637 H2640 0.984 . S
N2637 H2641 0.985 . S
H2638 N2633 0.984 . S
H2639 N2633 0.985 . S
H2640 N2637 0.984 . S
H2641 N2637 0.985 . S
H2642 N2636 0.984 . S
H2643 N2636 0.984 . S
H2644 N2632 0.984 . S
H2645 N2632 0.985 . S
C2646 C2647 1.363 . S
C2646 C2652 1.379 . S
C2646 N2654 1.356 . S
C2647 C2646 1.363 . S
C2647 C2653 1.363 . S
C2648 C2649 1.363 . S
C2648 C2653 1.379 . S
C2648 N2655 1.356 . S
C2649 C2648 1.363 . S
C2649 C2652 1.363 . S
N2650 C2652 1.356 . S
N2650 H2662 0.984 . S
N2650 H2663 0.985 . S
N2651 C2653 1.356 . S
N2651 H2656 0.984 . S
N2651 H2657 0.985 . S
C2652 C2646 1.379 . S
C2652 C2649 1.363 . S
C2652 N2650 1.356 . S
C2653 C2647 1.363 . S
C2653 C2648 1.379 . S
C2653 N2651 1.356 . S
N2654 C2646 1.356 . S
N2654 H2660 0.984 . S
N2654 H2661 0.984 . S
N2655 C2648 1.356 . S
N2655 H2658 0.984 . S
N2655 H2659 0.985 . S
H2656 N2651 0.984 . S
H2657 N2651 0.985 . S
H2658 N2655 0.984 . S
H2659 N2655 0.985 . S
H2660 N2654 0.984 . S
H2661 N2654 0.984 . S
H2662 N2650 0.984 . S
H2663 N2650 0.985 . S
C2664 C2665 1.363 . S
C2664 C2670 1.379 . S
C2664 N2672 1.356 . S
C2665 C2664 1.363 . S
C2665 C2671 1.363 . S
C2666 C2667 1.363 . S
C2666 C2671 1.379 . S
C2666 N2673 1.356 . S
C2667 C2666 1.363 . S
C2667 C2670 1.363 . S
N2668 C2670 1.356 . S
N2668 H2680 0.984 . S
N2668 H2681 0.985 . S
N2669 C2671 1.356 . S
N2669 H2674 0.984 . S
N2669 H2675 0.985 . S
C2670 C2664 1.379 . S
C2670 C2667 1.363 . S
C2670 N2668 1.356 . S
C2671 C2665 1.363 . S
C2671 C2666 1.379 . S
C2671 N2669 1.356 . S
N2672 C2664 1.356 . S
N2672 H2678 0.984 . S
N2672 H2679 0.984 . S
N2673 C2666 1.356 . S
N2673 H2676 0.984 . S
N2673 H2677 0.985 . S
H2674 N2669 0.984 . S
H2675 N2669 0.985 . S
H2676 N2673 0.984 . S
H2677 N2673 0.985 . S
H2678 N2672 0.984 . S
H2679 N2672 0.984 . S
H2680 N2668 0.984 . S
H2681 N2668 0.985 . S
C2682 C2683 1.363 . S
C2682 C2688 1.379 . S
C2682 N2690 1.356 . S
C2683 C2682 1.363 . S
C2683 C2689 1.363 . S
C2684 C2685 1.363 . S
C2684 C2689 1.379 . S
C2684 N2691 1.356 . S
C2685 C2684 1.363 . S
C2685 C2688 1.363 . S
N2686 C2688 1.356 . S
N2686 H2698 0.984 . S
N2686 H2699 0.985 . S
N2687 C2689 1.356 . S
N2687 H2692 0.984 . S
N2687 H2693 0.985 . S
C2688 C2682 1.379 . S
C2688 C2685 1.363 . S
C2688 N2686 1.356 . S
C2689 C2683 1.363 . S
C2689 C2684 1.379 . S
C2689 N2687 1.356 . S
N2690 C2682 1.356 . S
N2690 H2696 0.984 . S
N2690 H2697 0.984 . S
N2691 C2684 1.356 . S
N2691 H2694 0.984 . S
N2691 H2695 0.985 . S
H2692 N2687 0.984 . S
H2693 N2687 0.985 . S
H2694 N2691 0.984 . S
H2695 N2691 0.985 . S
H2696 N2690 0.984 . S
H2697 N2690 0.984 . S
H2698 N2686 0.984 . S
H2699 N2686 0.985 . S
C2700 C2701 1.363 . S
C2700 C2706 1.379 . S
C2700 N2708 1.356 . S
C2701 C2700 1.363 . S
C2701 C2707 1.363 . S
C2702 C2703 1.363 . S
C2702 C2707 1.379 . S
C2702 N2709 1.356 . S
C2703 C2702 1.363 . S
C2703 C2706 1.363 . S
N2704 C2706 1.356 . S
N2704 H2716 0.984 . S
N2704 H2717 0.985 . S
N2705 C2707 1.356 . S
N2705 H2710 0.984 . S
N2705 H2711 0.985 . S
C2706 C2700 1.379 . S
C2706 C2703 1.363 . S
C2706 N2704 1.356 . S
C2707 C2701 1.363 . S
C2707 C2702 1.379 . S
C2707 N2705 1.356 . S
N2708 C2700 1.356 . S
N2708 H2714 0.984 . S
N2708 H2715 0.984 . S
N2709 C2702 1.356 . S
N2709 H2712 0.984 . S
N2709 H2713 0.985 . S
H2710 N2705 0.984 . S
H2711 N2705 0.985 . S
H2712 N2709 0.984 . S
H2713 N2709 0.985 . S
H2714 N2708 0.984 . S
H2715 N2708 0.984 . S
H2716 N2704 0.984 . S
H2717 N2704 0.985 . S
C2718 C2719 1.363 . S
C2718 C2724 1.379 . S
C2718 N2726 1.356 . S
C2719 C2718 1.363 . S
C2719 C2725 1.363 . S
C2720 C2721 1.363 . S
C2720 C2725 1.379 . S
C2720 N2727 1.356 . S
C2721 C2720 1.363 . S
C2721 C2724 1.363 . S
N2722 C2724 1.356 . S
N2722 H2734 0.984 . S
N2722 H2735 0.985 . S
N2723 C2725 1.356 . S
N2723 H2728 0.984 . S
N2723 H2729 0.985 . S
C2724 C2718 1.379 . S
C2724 C2721 1.363 . S
C2724 N2722 1.356 . S
C2725 C2719 1.363 . S
C2725 C2720 1.379 . S
C2725 N2723 1.356 . S
N2726 C2718 1.356 . S
N2726 H2732 0.984 . S
N2726 H2733 0.984 . S
N2727 C2720 1.356 . S
N2727 H2730 0.984 . S
N2727 H2731 0.985 . S
H2728 N2723 0.984 . S
H2729 N2723 0.985 . S
H2730 N2727 0.984 . S
H2731 N2727 0.985 . S
H2732 N2726 0.984 . S
H2733 N2726 0.984 . S
H2734 N2722 0.984 . S
H2735 N2722 0.985 . S
C2736 C2737 1.363 . S
C2736 C2742 1.379 . S
C2736 N2744 1.356 . S
C2737 C2736 1.363 . S
C2737 C2743 1.363 . S
C2738 C2739 1.363 . S
C2738 C2743 1.379 . S
C2738 N2745 1.356 . S
C2739 C2738 1.363 . S
C2739 C2742 1.363 . S
N2740 C2742 1.356 . S
N2740 H2752 0.984 . S
N2740 H2753 0.985 . S
N2741 C2743 1.356 . S
N2741 H2746 0.984 . S
N2741 H2747 0.985 . S
C2742 C2736 1.379 . S
C2742 C2739 1.363 . S
C2742 N2740 1.356 . S
C2743 C2737 1.363 . S
C2743 C2738 1.379 . S
C2743 N2741 1.356 . S
N2744 C2736 1.356 . S
N2744 H2750 0.984 . S
N2744 H2751 0.984 . S
N2745 C2738 1.356 . S
N2745 H2748 0.984 . S
N2745 H2749 0.985 . S
H2746 N2741 0.984 . S
H2747 N2741 0.985 . S
H2748 N2745 0.984 . S
H2749 N2745 0.985 . S
H2750 N2744 0.984 . S
H2751 N2744 0.984 . S
H2752 N2740 0.984 . S
H2753 N2740 0.985 . S
C2754 C2755 1.363 . S
C2754 C2760 1.379 . S
C2754 N2762 1.356 . S
C2755 C2754 1.363 . S
C2755 C2761 1.363 . S
C2756 C2757 1.363 . S
C2756 C2761 1.379 . S
C2756 N2763 1.356 . S
C2757 C2756 1.363 . S
C2757 C2760 1.363 . S
N2758 C2760 1.356 . S
N2758 H2770 0.984 . S
N2758 H2771 0.985 . S
N2759 C2761 1.356 . S
N2759 H2764 0.984 . S
N2759 H2765 0.985 . S
C2760 C2754 1.379 . S
C2760 C2757 1.363 . S
C2760 N2758 1.356 . S
C2761 C2755 1.363 . S
C2761 C2756 1.379 . S
C2761 N2759 1.356 . S
N2762 C2754 1.356 . S
N2762 H2768 0.984 . S
N2762 H2769 0.984 . S
N2763 C2756 1.356 . S
N2763 H2766 0.984 . S
N2763 H2767 0.985 . S
H2764 N2759 0.984 . S
H2765 N2759 0.985 . S
H2766 N2763 0.984 . S
H2767 N2763 0.985 . S
H2768 N2762 0.984 . S
H2769 N2762 0.984 . S
H2770 N2758 0.984 . S
H2771 N2758 0.985 . S
C2772 C2773 1.363 . S
C2772 C2778 1.379 . S
C2772 N2780 1.356 . S
C2773 C2772 1.363 . S
C2773 C2779 1.363 . S
C2774 C2775 1.363 . S
C2774 C2779 1.379 . S
C2774 N2781 1.356 . S
C2775 C2774 1.363 . S
C2775 C2778 1.363 . S
N2776 C2778 1.356 . S
N2776 H2788 0.984 . S
N2776 H2789 0.985 . S
N2777 C2779 1.356 . S
N2777 H2782 0.984 . S
N2777 H2783 0.985 . S
C2778 C2772 1.379 . S
C2778 C2775 1.363 . S
C2778 N2776 1.356 . S
C2779 C2773 1.363 . S
C2779 C2774 1.379 . S
C2779 N2777 1.356 . S
N2780 C2772 1.356 . S
N2780 H2786 0.984 . S
N2780 H2787 0.984 . S
N2781 C2774 1.356 . S
N2781 H2784 0.984 . S
N2781 H2785 0.985 . S
H2782 N2777 0.984 . S
H2783 N2777 0.985 . S
H2784 N2781 0.984 . S
H2785 N2781 0.985 . S
H2786 N2780 0.984 . S
H2787 N2780 0.984 . S
H2788 N2776 0.984 . S
H2789 N2776 0.985 . S
C2790 C2791 1.363 . S
C2790 C2796 1.379 . S
C2790 N2798 1.356 . S
C2791 C2790 1.363 . S
C2791 C2797 1.363 . S
C2792 C2793 1.363 . S
C2792 C2797 1.379 . S
C2792 N2799 1.356 . S
C2793 C2792 1.363 . S
C2793 C2796 1.363 . S
N2794 C2796 1.356 . S
N2794 H2806 0.984 . S
N2794 H2807 0.985 . S
N2795 C2797 1.356 . S
N2795 H2800 0.984 . S
N2795 H2801 0.985 . S
C2796 C2790 1.379 . S
C2796 C2793 1.363 . S
C2796 N2794 1.356 . S
C2797 C2791 1.363 . S
C2797 C2792 1.379 . S
C2797 N2795 1.356 . S
N2798 C2790 1.356 . S
N2798 H2804 0.984 . S
N2798 H2805 0.984 . S
N2799 C2792 1.356 . S
N2799 H2802 0.984 . S
N2799 H2803 0.985 . S
H2800 N2795 0.984 . S
H2801 N2795 0.985 . S
H2802 N2799 0.984 . S
H2803 N2799 0.985 . S
H2804 N2798 0.984 . S
H2805 N2798 0.984 . S
H2806 N2794 0.984 . S
H2807 N2794 0.985 . S
C2808 C2809 1.363 . S
C2808 C2814 1.379 . S
C2808 N2816 1.356 . S
C2809 C2808 1.363 . S
C2809 C2815 1.363 . S
C2810 C2811 1.363 . S
C2810 C2815 1.379 . S
C2810 N2817 1.356 . S
C2811 C2810 1.363 . S
C2811 C2814 1.363 . S
N2812 C2814 1.356 . S
N2812 H2824 0.984 . S
N2812 H2825 0.985 . S
N2813 C2815 1.356 . S
N2813 H2818 0.984 . S
N2813 H2819 0.985 . S
C2814 C2808 1.379 . S
C2814 C2811 1.363 . S
C2814 N2812 1.356 . S
C2815 C2809 1.363 . S
C2815 C2810 1.379 . S
C2815 N2813 1.356 . S
N2816 C2808 1.356 . S
N2816 H2822 0.984 . S
N2816 H2823 0.984 . S
N2817 C2810 1.356 . S
N2817 H2820 0.984 . S
N2817 H2821 0.985 . S
H2818 N2813 0.984 . S
H2819 N2813 0.985 . S
H2820 N2817 0.984 . S
H2821 N2817 0.985 . S
H2822 N2816 0.984 . S
H2823 N2816 0.984 . S
H2824 N2812 0.984 . S
H2825 N2812 0.985 . S
C2826 C2827 1.363 . S
C2826 C2832 1.379 . S
C2826 N2834 1.356 . S
C2827 C2826 1.363 . S
C2827 C2833 1.363 . S
C2828 C2829 1.363 . S
C2828 C2833 1.379 . S
C2828 N2835 1.356 . S
C2829 C2828 1.363 . S
C2829 C2832 1.363 . S
N2830 C2832 1.356 . S
N2830 H2842 0.984 . S
N2830 H2843 0.985 . S
N2831 C2833 1.356 . S
N2831 H2836 0.984 . S
N2831 H2837 0.985 . S
C2832 C2826 1.379 . S
C2832 C2829 1.363 . S
C2832 N2830 1.356 . S
C2833 C2827 1.363 . S
C2833 C2828 1.379 . S
C2833 N2831 1.356 . S
N2834 C2826 1.356 . S
N2834 H2840 0.984 . S
N2834 H2841 0.984 . S
N2835 C2828 1.356 . S
N2835 H2838 0.984 . S
N2835 H2839 0.985 . S
H2836 N2831 0.984 . S
H2837 N2831 0.985 . S
H2838 N2835 0.984 . S
H2839 N2835 0.985 . S
H2840 N2834 0.984 . S
H2841 N2834 0.984 . S
H2842 N2830 0.984 . S
H2843 N2830 0.985 . S
C1225 C5 1.310 . S
C1227 C70 1.385 1_545 S
C1243 C2 1.385 1_655 S
C1245 C39 1.310 . S
C1261 C36 1.385 . S
C1263 C73 1.310 . S
C1279 C138 1.385 1_455 S
C1281 C107 1.310 . S
C1297 C172 1.385 . S
C1299 C141 1.310 . S
C1315 C104 1.385 1_565 S
C1317 C175 1.310 . S
C1333 C274 1.385 1_565 S
C1335 C209 1.310 . S
C1351 C243 1.310 . S
C1353 C206 1.385 1_455 S
C1369 C240 1.385 . S
C1371 C277 1.310 . S
C1387 C342 1.385 1_655 S
C1389 C311 1.310 . S
C1405 C345 1.310 . S
C1407 C376 1.385 . S
C1423 C308 1.385 1_545 S
C1425 C379 1.310 . S
C1441 C413 1.310 . S
C1443 C478 1.385 . S
C1459 C447 1.310 . S
C1461 C410 1.385 . S
C1477 C481 1.310 . S
C1479 C444 1.385 . S
C1495 C546 1.385 . S
C1497 C515 1.310 . S
C1513 C580 1.385 . S
C1515 C549 1.310 . S
C1531 C583 1.310 . S
C1533 C512 1.385 . S
C1549 C617 1.310 . S
C1551 C682 1.385 . S
C1567 C651 1.310 . S
C1569 C614 1.385 . S
C1585 C685 1.310 . S
C1587 C648 1.385 . S
C1603 C750 1.385 . S
C1605 C719 1.310 . S
C1621 C784 1.385 . S
C1623 C753 1.310 . S
C1639 C787 1.310 . S
C1641 C716 1.385 . S
C1657 C886 1.385 . S
C1659 C821 1.310 . S
C1675 C818 1.385 . S
C1677 C855 1.310 . S
C1693 C889 1.310 . S
C1695 C852 1.385 . S
C1711 C954 1.385 . S
C1713 C923 1.310 . S
C1729 C957 1.310 . S
C1731 C988 1.385 . S
C1747 C920 1.385 . S
C1749 C991 1.310 . S
C1765 C1090 1.385 . S
C1767 C1025 1.310 . S
C1783 C1059 1.310 . S
C1785 C1022 1.385 . S
C1801 C1093 1.310 . S
C1803 C1056 1.385 . S
C1819 C1158 1.385 . S
C1821 C1127 1.310 . S
C1837 C1192 1.385 . S
C1839 C1161 1.310 . S
C1855 C1195 1.310 . S
C1857 C1124 1.385 . S
C1873 C689 1.608 . S
C1875 C20 1.582 . S
C1891 C54 1.582 . S
C1893 C621 1.608 . S
C1909 C88 1.582 . S
C1911 C655 1.608 . S
C1927 C1165 1.608 . S
C1929 C122 1.582 . S
C1945 C1199 1.608 . S
C1947 C156 1.582 . S
C1963 C190 1.582 . S
C1965 C1131 1.608 . S
C1981 C224 1.582 . S
C1983 C893 1.608 . S
C1999 C258 1.583 . S
C2001 C825 1.608 . S
C2017 C292 1.582 . S
C2019 C859 1.608 . S
C2035 C553 1.608 . S
C2037 C326 1.582 . S
C2053 C360 1.582 . S
C2055 C587 1.608 . S
C2071 C394 1.582 . S
C2073 C519 1.608 . S
C2089 C428 1.582 . S
C2091 C1097 1.608 1_655 S
C2107 C1029 1.608 . S
C2109 C462 1.582 . S
C2125 C1063 1.608 1_545 S
C2127 C496 1.583 . S
C2143 C530 1.582 . S
C2145 C349 1.608 . S
C2161 C564 1.582 . S
C2163 C383 1.608 . S
C2179 C598 1.582 . S
C2181 C315 1.608 . S
C2197 C77 1.608 . S
C2199 C632 1.582 . S
C2215 C666 1.582 . S
C2217 C9 1.608 . S
C2233 C700 1.582 . S
C2235 C43 1.608 . S
C2251 C961 1.608 1_545 S
C2253 C734 1.582 . S
C2269 C768 1.583 . S
C2271 C995 1.608 1_655 S
C2287 C802 1.582 . S
C2289 C927 1.608 . S
C2305 C281 1.608 . S
C2307 C836 1.582 . S
C2323 C213 1.608 . S
C2325 C870 1.582 . S
C2341 C904 1.582 . S
C2343 C247 1.608 . S
C2359 C938 1.582 . S
C2361 C757 1.608 1_565 S
C2377 C791 1.608 1_455 S
C2379 C972 1.583 . S
C2395 C1006 1.582 . S
C2397 C723 1.608 . S
C2413 C485 1.608 1_455 S
C2415 C1040 1.582 . S
C2431 C1074 1.582 . S
C2433 C417 1.608 . S
C2449 C1108 1.583 . S
C2451 C451 1.608 1_565 S
C2467 C145 1.608 . S
C2469 C1142 1.582 . S
C2485 C1176 1.582 . S
C2487 C179 1.608 . S
C2503 C111 1.608 . S
C2505 C1210 1.582 . S
C2521 C169 1.553 . S
C2523 C33 1.553 . S
C2539 C67 1.554 . S
C2541 C203 1.554 . S
C2557 C101 1.554 . S
C2559 C135 1.554 . S
C2575 C237 1.553 . S
C2577 C373 1.553 . S
C2593 C271 1.554 . S
C2595 C407 1.554 . S
C2611 C305 1.554 . S
C2613 C339 1.554 . S
C2629 C577 1.553 . S
C2631 C441 1.553 . S
C2647 C611 1.554 . S
C2649 C475 1.554 . S
C2665 C543 1.554 . S
C2667 C509 1.554 . S
C2683 C781 1.554 . S
C2685 C645 1.554 . S
C2701 C815 1.553 . S
C2703 C679 1.553 . S
C2719 C747 1.554 . S
C2721 C713 1.553 . S
C2737 C985 1.554 . S
C2739 C849 1.554 . S
C2755 C883 1.553 . S
C2757 C1019 1.553 . S
C2773 C951 1.554 . S
C2775 C917 1.553 . S
C2791 C1189 1.553 . S
C2793 C1053 1.553 . S
C2809 C1223 1.554 . S
C2811 C1087 1.554 . S
C2827 C1121 1.554 . S
C2829 C1155 1.554 . S
