# Generated by pormake.
# Topology sxa, (6)-cn, num edge types: 1
# Building blocks:
#     Node 0, Type 0, BuildingBlock: IZENUY_clean_sbu_0, # of connection points: 6
#     Node 1, Type 0, BuildingBlock: IZENUY_clean_sbu_0, # of connection points: 6
#     Node 2, Type 0, BuildingBlock: IZENUY_clean_sbu_0, # of connection points: 6
#     Node 3, Type 0, BuildingBlock: IZENUY_clean_sbu_0, # of connection points: 6
#     Edge 4, Type (0, 0), BuildingBlock: CIFDUS_clean_linker_0, # of connection points: 2
#     Edge 5, Type (0, 0), BuildingBlock: CIFDUS_clean_linker_0, # of connection points: 2
#     Edge 6, Type (0, 0), BuildingBlock: CIFDUS_clean_linker_0, # of connection points: 2
#     Edge 7, Type (0, 0), BuildingBlock: CIFDUS_clean_linker_0, # of connection points: 2
#     Edge 8, Type (0, 0), BuildingBlock: CIFDUS_clean_linker_0, # of connection points: 2
#     Edge 9, Type (0, 0), BuildingBlock: CIFDUS_clean_linker_0, # of connection points: 2
#     Edge 10, Type (0, 0), BuildingBlock: CIFDUS_clean_linker_0, # of connection points: 2
#     Edge 11, Type (0, 0), BuildingBlock: CIFDUS_clean_linker_0, # of connection points: 2
#     Edge 12, Type (0, 0), BuildingBlock: CIFDUS_clean_linker_0, # of connection points: 2
#     Edge 13, Type (0, 0), BuildingBlock: CIFDUS_clean_linker_0, # of connection points: 2
#     Edge 14, Type (0, 0), BuildingBlock: CIFDUS_clean_linker_0, # of connection points: 2
#     Edge 15, Type (0, 0), BuildingBlock: CIFDUS_clean_linker_0, # of connection points: 2
# Relax obj value: 0.274
# Max RMSD: 0.267
# Mean RMSD: 0.267
data_MOF--net-sxa--node1-IZENUY_clean_sbu_0--edge1-CIFDUS_clean_linker_0
_symmetry_space_group_name_H-M    P1
_symmetry_Int_Tables_number       1
_symmetry_cell_setting            triclinic
loop_
_symmetry_equiv_pos_as_xyz
'x, y, z'
_cell_length_a     21.25769
_cell_length_b     23.84392
_cell_length_c     15.126404
_cell_angle_alpha  89.395805
_cell_angle_beta   90.116412
_cell_angle_gamma 90.148906
loop_
_atom_site_label
_atom_site_type_symbol
_atom_site_fract_x
_atom_site_fract_y
_atom_site_fract_z
_atom_type_partial_charge
Fe0 Fe -0.00031 0.85854 0.35243 0.0
Fe1 Fe 0.98724 0.72784 0.3453 0.0
O2 O -0.00498 0.79462 0.29163 0.0
Fe3 Fe -0.00106 0.79749 0.17344 0.0
O4 O 0.0792 0.82046 0.17936 0.0
O5 O 0.06383 0.88591 0.28169 0.0
O6 O 0.06186 0.83295 0.42459 0.0
C7 C 0.07697 0.78506 0.45342 0.0
C8 C 0.94307 0.90382 0.20587 0.0
O9 O 0.04601 0.74172 0.43211 0.0
C10 C 0.89818 0.72991 0.20214 0.0
O11 O 0.93633 0.84024 0.43157 0.0
O12 O 0.92211 0.74953 0.41324 0.0
O13 O 0.97354 0.87058 0.15835 0.0
O14 O 0.93871 0.89378 0.28741 0.0
C15 C 0.05183 0.68922 0.20292 0.0
O16 O 0.92703 0.70454 0.26491 0.0
O17 O 0.91885 0.77451 0.1661 0.0
C18 C 0.90582 0.79535 0.44675 0.0
O19 O 0.05178 0.69609 0.28496 0.0
O20 O 0.02509 0.72506 0.15445 0.0
C21 C 0.09724 0.863 0.22223 0.0
Fe22 Fe 0.49617 0.3078 0.13828 0.0
Fe23 Fe 0.50349 0.37185 0.31328 0.0
O24 O 0.49459 0.30713 0.2556 0.0
Fe25 Fe 0.48434 0.24167 0.31286 0.0
O26 O 0.55105 0.20801 0.25716 0.0
O27 O 0.52552 0.23745 0.12515 0.0
O28 O 0.5758 0.3324 0.13816 0.0
C29 C 0.59445 0.37642 0.17565 0.0
C30 C 0.39758 0.23816 0.16938 0.0
O31 O 0.56292 0.40001 0.2359 0.0
C32 C 0.40733 0.31388 0.41008 0.0
O33 O 0.4673 0.37834 0.12307 0.0
O34 O 0.43862 0.40663 0.25335 0.0
O35 O 0.42755 0.21428 0.23184 0.0
O36 O 0.41657 0.28308 0.13341 0.0
C37 C 0.57778 0.29803 0.41478 0.0
O38 O 0.44586 0.35423 0.40041 0.0
O39 O 0.41634 0.2675 0.3727 0.0
C40 C 0.4354 0.41053 0.17005 0.0
O41 O 0.56971 0.34498 0.37717 0.0
O42 O 0.5392 0.25809 0.40349 0.0
C43 C 0.55645 0.20499 0.17418 0.0
Fe44 Fe -0.00308 0.29808 0.95635 0.0
Fe45 Fe -0.0059 0.36552 0.78161 0.0
O46 O -0.00487 0.29928 0.83793 0.0
Fe47 Fe -0.00523 0.23426 0.78001 0.0
O48 O 0.93441 0.20123 0.84871 0.0
O49 O 0.97039 0.22577 0.97574 0.0
O50 O 0.91755 0.32318 0.95838 0.0
C51 C 0.89918 0.36708 0.9174 0.0
C52 C 0.09375 0.23045 0.90988 0.0
O53 O 0.9306 0.39068 0.85503 0.0
C54 C 0.07823 0.30189 0.67624 0.0
O55 O 0.02406 0.37001 0.97566 0.0
O56 O 0.05669 0.39664 0.84744 0.0
O57 O 0.06052 0.20769 0.84927 0.0
O58 O 0.07625 0.27313 0.95311 0.0
C59 C 0.90791 0.3004 0.68024 0.0
O60 O 0.05702 0.3482 0.70322 0.0
O61 O 0.0545 0.25586 0.70105 0.0
C62 C 0.05352 0.40474 0.92885 0.0
O63 O 0.9322 0.34579 0.70545 0.0
O64 O 0.92954 0.25337 0.70523 0.0
C65 C 0.9398 0.19178 0.92997 0.0
Fe66 Fe 0.49054 0.87872 0.82217 0.0
Fe67 Fe 0.49747 0.74711 0.81144 0.0
O68 O 0.49607 0.81082 0.87361 0.0
Fe69 Fe 0.50071 0.80633 0.99099 0.0
O70 O 0.42222 0.83259 1.00038 0.0
O71 O 0.43226 0.90321 0.90349 0.0
O72 O 0.42357 0.85898 0.75459 0.0
C73 C 0.40582 0.81377 0.71974 0.0
C74 C 0.56166 0.91002 0.96606 0.0
O75 O 0.43557 0.76842 0.73249 0.0
C76 C 0.59489 0.7372 0.94095 0.0
O77 O 0.54756 0.86377 0.73445 0.0
O78 O 0.56127 0.77206 0.74069 0.0
O79 O 0.53136 0.87536 1.01137 0.0
O80 O 0.55713 0.90906 0.88315 0.0
C81 C 0.43461 0.70689 0.95831 0.0
O82 O 0.55989 0.716 0.88152 0.0
O83 O 0.57938 0.78013 0.98412 0.0
C84 C 0.57739 0.82011 0.71262 0.0
O85 O 0.43397 0.71316 0.87548 0.0
O86 O 0.47099 0.73601 1.00372 0.0
C87 C 0.403 0.87798 0.96576 0.0
H88 H 0.06885 0.43287 0.10285 0.0
H89 H 0.07284 0.5039 0.83944 0.0
H90 H 0.07825 0.5982 0.90064 0.0
H91 H 0.06961 0.66125 1.02902 0.0
H92 H 0.06938 0.58996 0.29242 0.0
H93 H 0.07556 0.49583 0.23132 0.0
C94 C 0.07215 0.46889 1.05871 0.0
C95 C 0.06986 0.46085 0.96635 0.0
C96 C 0.07535 0.52339 0.09448 0.0
C97 C 0.0746 0.50834 0.91059 0.0
C98 C 0.07725 0.56255 0.94566 0.0
C99 C 0.07214 0.62522 0.07322 0.0
C100 C 0.06838 0.63319 0.16552 0.0
C101 C 0.07584 0.57073 1.0375 0.0
C102 C 0.07217 0.58564 0.22133 0.0
C103 C 0.0753 0.5315 0.18632 0.0
H104 H 0.40542 0.51505 0.23446 0.0
H105 H 0.40142 0.41592 0.99757 0.0
H106 H 0.38936 0.50002 0.90714 0.0
H107 H 0.40328 0.6027 0.89364 0.0
H108 H 0.40132 0.70181 0.13042 0.0
H109 H 0.39064 0.61756 0.22118 0.0
C110 C 0.39959 0.51168 0.16347 0.0
C111 C 0.40661 0.45932 0.12305 0.0
C112 C 0.39266 0.56062 0.11091 0.0
C113 C 0.39802 0.45589 1.03066 0.0
C114 C 0.39126 0.50409 0.9784 0.0
C115 C 0.39798 0.606 0.96468 0.0
C116 C 0.40512 0.65839 1.00504 0.0
C117 C 0.39212 0.55699 1.01736 0.0
C118 C 0.39752 0.66178 0.09752 0.0
C119 C 0.3917 0.61351 0.14989 0.0
H120 H 0.59384 1.01508 0.9026 0.0
H121 H 0.58967 0.9141 0.14095 0.0
H122 H 0.59848 0.99757 0.23079 0.0
H123 H 0.58429 0.10004 0.24177 0.0
H124 H 0.59488 0.20097 1.00385 0.0
H125 H 0.60825 0.11744 0.91529 0.0
C126 C 0.59711 1.01116 0.97396 0.0
C127 C 0.58872 0.95845 1.01458 0.0
C128 C 0.6022 0.05969 1.02616 0.0
C129 C 0.59416 0.95431 0.1075 0.0
C130 C 0.59903 1.00216 0.15943 0.0
C131 C 0.59185 0.10391 0.17109 0.0
C132 C 0.58629 0.1566 0.12953 0.0
C133 C 0.59946 0.05534 0.11965 0.0
C134 C 0.59714 0.16072 1.03764 0.0
C135 C 0.60461 0.11286 0.98647 0.0
H136 H 0.92416 0.93406 1.03247 0.0
H137 H 0.92705 1.00215 0.29549 0.0
H138 H 0.92099 0.09719 0.23389 0.0
H139 H 0.92669 0.16168 0.10466 0.0
H140 H 0.91958 0.09346 0.84181 0.0
H141 H 0.91465 0.99851 0.90382 0.0
C142 C 0.92224 0.96961 0.0765 0.0
C143 C 0.92656 0.96051 0.16883 0.0
C144 C 0.91852 1.02452 1.04046 0.0
C145 C 0.9236 1.0074 0.22444 0.0
C146 C 0.9206 0.06202 0.18909 0.0
C147 C 0.92282 0.12613 1.06084 0.0
C148 C 0.92401 0.13519 0.9683 0.0
C149 C 0.91976 0.07122 0.09712 0.0
C150 C 0.9186 0.08827 0.91302 0.0
C151 C 0.91623 1.03369 0.94856 0.0
H152 H 0.32581 0.7264 0.67406 0.0
H153 H 0.35195 0.90508 0.64169 0.0
H154 H 0.25332 0.91177 0.56066 0.0
H155 H 0.15876 0.86837 0.49968 0.0
H156 H 0.12933 0.69013 0.53026 0.0
H157 H 0.22897 0.68221 0.61136 0.0
C158 C 0.31024 0.76668 0.64851 0.0
C159 C 0.34713 0.81512 0.66421 0.0
C160 C 0.25214 0.77061 0.60226 0.0
C161 C 0.3252 0.86699 0.6312 0.0
C162 C 0.26841 0.87099 0.58476 0.0
C163 C 0.17354 0.82764 0.52447 0.0
C164 C 0.13558 0.78 0.50886 0.0
C165 C 0.23122 0.82328 0.57041 0.0
C166 C 0.15676 0.72774 0.54139 0.0
C167 C 0.21415 0.72312 0.58758 0.0
H168 H 0.17293 0.3806 0.65099 0.0
H169 H 0.11133 0.21671 0.56792 0.0
H170 H 0.20654 0.20592 0.48088 0.0
H171 H 0.30881 0.24091 0.43043 0.0
H172 H 0.37314 0.40414 0.51212 0.0
H173 H 0.27635 0.41682 0.59711 0.0
C174 C 0.17997 0.34288 0.61291 0.0
C175 C 0.13431 0.29965 0.61633 0.0
C176 C 0.23603 0.33634 0.56323 0.0
C177 C 0.14517 0.25077 0.56715 0.0
C178 C 0.19994 0.24438 0.51726 0.0
C179 C 0.30211 0.27928 0.46707 0.0
C180 C 0.34911 0.32124 0.46491 0.0
C181 C 0.24606 0.2865 0.51551 0.0
C182 C 0.33844 0.37081 0.51251 0.0
C183 C 0.28277 0.37821 0.56112 0.0
H184 H 0.81138 0.22347 0.65512 0.0
H185 H 0.87544 0.38806 0.57395 0.0
H186 H 0.77986 0.40209 0.48825 0.0
H187 H 0.67684 0.36967 0.43788 0.0
H188 H 0.61008 0.20562 0.5165 0.0
H189 H 0.70682 0.18993 0.60137 0.0
C190 C 0.80474 0.26207 0.61778 0.0
C191 C 0.85122 0.30452 0.62138 0.0
C192 C 0.74846 0.27049 0.56871 0.0
C193 C 0.84093 0.35456 0.57311 0.0
C194 C 0.78596 0.36282 0.52396 0.0
C195 C 0.68298 0.33048 0.47384 0.0
C196 C 0.63539 0.28917 0.47079 0.0
C197 C 0.73907 0.32145 0.52193 0.0
C198 C 0.64528 0.23852 0.51763 0.0
C199 C 0.70094 0.22936 0.56611 0.0
H200 H 0.82284 0.88163 0.4867 0.0
H201 H 0.85758 0.70562 0.53512 0.0
H202 H 0.75982 0.69755 0.61707 0.0
H203 H 0.66299 0.73867 0.67363 0.0
H204 H 0.62544 0.91435 0.62862 0.0
H205 H 0.72436 0.92383 0.54688 0.0
C206 C 0.80937 0.84173 0.51612 0.0
C207 C 0.8483 0.79437 0.50427 0.0
C208 C 0.75172 0.8369 0.56316 0.0
C209 C 0.82911 0.7429 0.54238 0.0
C210 C 0.77281 0.73806 0.58938 0.0
C211 C 0.67591 0.77911 0.64557 0.0
C212 C 0.63583 0.82554 0.65723 0.0
C213 C 0.73335 0.78449 0.5995 0.0
C214 C 0.6546 0.87759 0.62065 0.0
C215 C 0.71158 0.88315 0.57403 0.0
H216 H 0.37741 0.89339 0.13665 0.0
H217 H 0.30057 0.91389 0.87451 0.0
H218 H 0.19473 0.92347 0.93631 0.0
H219 H 0.12428 0.90313 1.06138 0.0
H220 H 0.20111 0.87874 0.32267 0.0
H221 H 0.30758 0.89466 0.26561 0.0
C222 C 0.33752 0.9019 0.09367 0.0
C223 C 0.34557 0.90194 1.0017 0.0
C224 C 0.27727 0.90581 0.12954 0.0
C225 C 0.29465 0.91364 0.94567 0.0
C226 C 0.23434 0.91851 0.98092 0.0
C227 C 0.16444 0.9033 0.10585 0.0
C228 C 0.15616 0.88906 0.19517 0.0
C229 C 0.22495 0.91124 0.07217 0.0
C230 C 0.20735 0.88962 0.25348 0.0
C231 C 0.26793 0.89824 0.22075 0.0
H232 H 0.12239 0.18883 0.06909 0.0
H233 H 0.19786 0.2202 0.80916 0.0
H234 H 0.30511 0.21361 0.86786 0.0
H235 H 0.37344 0.22225 0.99794 0.0
H236 H 0.29751 0.19563 0.25903 0.0
H237 H 0.19376 0.17572 0.19553 0.0
C238 C 0.16263 0.1918 1.02517 0.0
C239 C 0.15344 0.20556 0.93581 0.0
C240 C 0.22346 0.18994 1.06001 0.0
C241 C 0.20477 0.20939 0.87828 0.0
C242 C 0.26577 0.20635 0.91205 0.0
C243 C 0.33435 0.2105 1.04039 0.0
C244 C 0.34168 0.21161 0.13248 0.0
C245 C 0.27525 0.20029 1.00352 0.0
C246 C 0.29199 0.19535 0.18779 0.0
C247 C 0.23289 0.18435 0.15156 0.0
H248 H 0.62091 0.40478 1.00864 0.0
H249 H 0.69833 0.40067 0.272 0.0
H250 H 0.80484 0.4095 0.21177 0.0
H251 H 0.87401 0.39537 0.084 0.0
H252 H 0.79642 0.3955 0.82064 0.0
H253 H 0.69114 0.41258 0.88035 0.0
C254 C 0.66121 0.40802 1.05251 0.0
C255 C 0.65294 0.40132 0.14393 0.0
C256 C 0.72176 0.41144 1.01723 0.0
C257 C 0.70443 0.40584 0.20128 0.0
C258 C 0.76508 0.41023 0.16679 0.0
C259 C 0.83409 0.40095 1.03993 0.0
C260 C 0.84164 0.39321 0.94883 0.0
C261 C 0.77419 0.40955 0.0749 0.0
C262 C 0.79077 0.40115 0.89118 0.0
C263 C 0.73083 0.41045 0.92534 0.0
H264 H 0.87373 0.71499 1.03048 0.0
H265 H 0.79568 0.69136 0.29098 0.0
H266 H 0.69104 0.67675 0.22673 0.0
H267 H 0.62084 0.69396 0.10009 0.0
H268 H 0.6987 0.72252 0.84083 0.0
H269 H 0.80522 0.71037 0.89996 0.0
C270 C 0.8339 0.70499 0.07265 0.0
C271 C 0.8411 0.70551 0.16483 0.0
C272 C 0.77431 0.69796 1.03536 0.0
C273 C 0.79035 0.69151 0.2197 0.0
C274 C 0.73074 0.68357 0.18304 0.0
C275 C 0.66128 0.69511 1.05638 0.0
C276 C 0.6531 0.70959 0.96707 0.0
C277 C 0.72183 0.69003 0.09149 0.0
C278 C 0.70475 0.71114 0.90987 0.0
C279 C 0.7654 0.70491 0.9439 0.0
loop_
_geom_bond_atom_site_label_1
_geom_bond_atom_site_label_2
_geom_bond_distance
_geom_bond_site_symmetry_2
_ccdc_geom_bond_type
Fe0 O2 1.918 . S
Fe0 O5 1.997 . S
Fe0 O6 2.002 . S
Fe0 O11 1.976 1_455 S
Fe0 O14 1.996 . S
Fe1 O2 1.918 1_655 S
Fe1 O9 1.997 1_655 S
Fe1 O12 1.996 . S
Fe1 O16 1.976 . S
Fe1 O19 2.002 . S
O2 Fe0 1.918 . S
O2 Fe1 1.918 1_455 S
O2 Fe3 1.918 . S
Fe3 O2 1.918 . S
Fe3 O4 2.002 . S
Fe3 O13 1.976 1_455 S
Fe3 O17 1.996 1_455 S
Fe3 O20 1.997 . S
O4 Fe3 2.002 . S
O4 C21 1.295 . S
O5 Fe0 1.997 . S
O5 C21 1.235 . S
O6 Fe0 2.002 . S
O6 C7 1.295 . S
C7 O6 1.295 . S
C7 O9 1.235 . S
C8 O13 1.287 . S
C8 O14 1.254 1_655 S
O9 Fe1 1.997 1_455 S
O9 C7 1.235 . S
C10 O16 1.287 . S
C10 O17 1.255 . S
O11 Fe0 1.976 1_655 S
O11 C18 1.287 . S
O12 Fe1 1.996 . S
O12 C18 1.255 . S
O13 Fe3 1.976 1_655 S
O13 C8 1.287 . S
O14 Fe0 1.996 . S
O14 C8 1.254 1_455 S
C15 O19 1.295 1_455 S
C15 O20 1.235 . S
O16 Fe1 1.976 . S
O16 C10 1.287 . S
O17 Fe3 1.996 1_655 S
O17 C10 1.255 . S
C18 O11 1.287 . S
C18 O12 1.255 . S
O19 Fe1 2.002 . S
O19 C15 1.295 1_655 S
O20 Fe3 1.997 . S
O20 C15 1.235 . S
C21 O4 1.295 . S
C21 O5 1.235 . S
Fe22 O24 1.918 . S
Fe22 O27 1.997 . S
Fe22 O28 2.002 . S
Fe22 O33 1.976 . S
Fe22 O36 1.996 . S
Fe23 O24 1.918 . S
Fe23 O31 1.997 . S
Fe23 O34 1.996 . S
Fe23 O38 1.976 . S
Fe23 O41 2.002 . S
O24 Fe22 1.918 . S
O24 Fe23 1.918 . S
O24 Fe25 1.918 . S
Fe25 O24 1.918 . S
Fe25 O26 2.002 . S
Fe25 O35 1.976 . S
Fe25 O39 1.996 . S
Fe25 O42 1.997 . S
O26 Fe25 2.002 . S
O26 C43 1.295 . S
O27 Fe22 1.997 . S
O27 C43 1.235 . S
O28 Fe22 2.002 . S
O28 C29 1.295 . S
C29 O28 1.295 . S
C29 O31 1.235 . S
C30 O35 1.287 . S
C30 O36 1.255 . S
O31 Fe23 1.997 . S
O31 C29 1.235 . S
C32 O38 1.287 . S
C32 O39 1.255 . S
O33 Fe22 1.976 . S
O33 C40 1.287 . S
O34 Fe23 1.996 . S
O34 C40 1.255 . S
O35 Fe25 1.976 . S
O35 C30 1.287 . S
O36 Fe22 1.996 . S
O36 C30 1.255 . S
C37 O41 1.295 . S
C37 O42 1.235 . S
O38 Fe23 1.976 . S
O38 C32 1.287 . S
O39 Fe25 1.996 . S
O39 C32 1.255 . S
C40 O33 1.287 . S
C40 O34 1.255 . S
O41 Fe23 2.002 . S
O41 C37 1.295 . S
O42 Fe25 1.997 . S
O42 C37 1.235 . S
C43 O26 1.295 . S
C43 O27 1.235 . S
Fe44 O46 1.918 . S
Fe44 O49 1.997 1_455 S
Fe44 O50 2.002 1_455 S
Fe44 O55 1.976 . S
Fe44 O58 1.996 . S
Fe45 O46 1.918 1_655 S
Fe45 O53 1.997 . S
Fe45 O56 1.996 . S
Fe45 O60 1.976 1_655 S
Fe45 O63 2.002 . S
O46 Fe44 1.918 . S
O46 Fe45 1.918 1_455 S
O46 Fe47 1.918 . S
Fe47 O46 1.918 . S
Fe47 O48 2.002 . S
Fe47 O57 1.976 . S
Fe47 O61 1.996 . S
Fe47 O64 1.997 1_455 S
O48 Fe47 2.002 . S
O48 C65 1.295 . S
O49 Fe44 1.997 1_655 S
O49 C65 1.235 1_655 S
O50 Fe44 2.002 1_655 S
O50 C51 1.295 . S
C51 O50 1.295 . S
C51 O53 1.235 . S
C52 O57 1.287 . S
C52 O58 1.255 . S
O53 Fe45 1.997 . S
O53 C51 1.235 . S
C54 O60 1.287 . S
C54 O61 1.255 . S
O55 Fe44 1.976 . S
O55 C62 1.287 . S
O56 Fe45 1.996 . S
O56 C62 1.255 1_655 S
O57 Fe47 1.976 . S
O57 C52 1.287 . S
O58 Fe44 1.996 . S
O58 C52 1.255 . S
C59 O63 1.295 . S
C59 O64 1.235 . S
O60 Fe45 1.976 1_455 S
O60 C54 1.287 . S
O61 Fe47 1.996 . S
O61 C54 1.255 . S
C62 O55 1.287 . S
C62 O56 1.255 1_455 S
O63 Fe45 2.002 . S
O63 C59 1.295 . S
O64 Fe47 1.997 1_655 S
O64 C59 1.235 . S
C65 O48 1.295 . S
C65 O49 1.235 1_455 S
Fe66 O68 1.918 . S
Fe66 O71 1.997 . S
Fe66 O72 2.002 . S
Fe66 O77 1.976 . S
Fe66 O80 1.996 . S
Fe67 O68 1.918 . S
Fe67 O75 1.997 . S
Fe67 O78 1.996 . S
Fe67 O82 1.976 . S
Fe67 O85 2.002 . S
O68 Fe66 1.918 . S
O68 Fe67 1.918 . S
O68 Fe69 1.918 . S
Fe69 O68 1.918 . S
Fe69 O70 2.002 . S
Fe69 O79 1.976 . S
Fe69 O83 1.996 . S
Fe69 O86 1.997 . S
O70 Fe69 2.002 . S
O70 C87 1.295 . S
O71 Fe66 1.997 . S
O71 C87 1.235 . S
O72 Fe66 2.002 . S
O72 C73 1.295 . S
C73 O72 1.295 . S
C73 O75 1.235 . S
C74 O79 1.287 . S
C74 O80 1.255 . S
O75 Fe67 1.997 . S
O75 C73 1.235 . S
C76 O82 1.287 . S
C76 O83 1.255 . S
O77 Fe66 1.976 . S
O77 C84 1.287 . S
O78 Fe67 1.996 . S
O78 C84 1.255 . S
O79 Fe69 1.976 . S
O79 C74 1.287 . S
O80 Fe66 1.996 . S
O80 C74 1.255 . S
C81 O85 1.295 . S
C81 O86 1.235 . S
O82 Fe67 1.976 . S
O82 C76 1.287 . S
O83 Fe69 1.996 . S
O83 C76 1.255 . S
C84 O77 1.287 . S
C84 O78 1.255 . S
O85 Fe67 2.002 . S
O85 C81 1.295 . S
O86 Fe69 1.997 . S
O86 C81 1.235 . S
C87 O70 1.295 . S
C87 O71 1.235 . S
H88 C94 0.930 . S
H89 C97 0.930 . S
H90 C98 0.930 . S
H91 C99 0.930 . S
H92 C102 0.930 . S
H93 C103 0.930 . S
C94 H88 0.930 . S
C94 C95 1.355 . S
C94 C96 1.415 1_556 S
C95 C94 1.355 . S
C95 C97 1.419 1_455 S
C96 C94 1.415 1_554 S
C96 C101 1.425 1_454 S
C96 C103 1.409 . S
C97 H89 0.930 . S
C97 C95 1.419 1_655 S
C97 C98 1.362 . S
C98 H90 0.930 . S
C98 C97 1.362 . S
C98 C101 1.409 . S
C99 H91 0.930 . S
C99 C100 1.355 1_655 S
C99 C101 1.415 1_554 S
C100 C99 1.355 1_455 S
C100 C102 1.419 . S
C101 C96 1.425 1_656 S
C101 C98 1.409 . S
C101 C99 1.415 1_556 S
C102 H92 0.930 . S
C102 C100 1.419 . S
C102 C103 1.362 . S
C103 H93 0.930 . S
C103 C96 1.409 . S
C103 C102 1.362 . S
H104 C110 0.930 . S
H105 C113 0.930 . S
H106 C114 0.930 . S
H107 C115 0.930 . S
H108 C118 0.930 . S
H109 C119 0.930 . S
C110 H104 0.930 . S
C110 C111 1.355 . S
C110 C112 1.415 . S
C111 C110 1.355 . S
C111 C113 1.419 1_554 S
C112 C110 1.415 . S
C112 C117 1.425 1_554 S
C112 C119 1.409 . S
C113 H105 0.930 . S
C113 C111 1.419 1_556 S
C113 C114 1.362 . S
C114 H106 0.930 . S
C114 C113 1.362 . S
C114 C117 1.409 . S
C115 H107 0.930 . S
C115 C116 1.355 . S
C115 C117 1.415 . S
C116 C115 1.355 . S
C116 C118 1.419 1_556 S
C117 C112 1.425 1_556 S
C117 C114 1.409 . S
C117 C115 1.415 . S
C118 H108 0.930 . S
C118 C116 1.419 1_554 S
C118 C119 1.362 . S
C119 H109 0.930 . S
C119 C112 1.409 . S
C119 C118 1.362 . S
H120 C126 0.930 . S
H121 C129 0.930 1_554 S
H122 C130 0.930 . S
H123 C131 0.930 . S
H124 C134 0.930 1_556 S
H125 C135 0.930 . S
C126 H120 0.930 . S
C126 C127 1.355 . S
C126 C128 1.415 1_565 S
C127 C126 1.355 . S
C127 C129 1.420 . S
C128 C126 1.415 1_545 S
C128 C133 1.425 1_556 S
C128 C135 1.409 . S
C129 H121 0.930 1_556 S
C129 C127 1.420 . S
C129 C130 1.361 1_556 S
C130 H122 0.930 . S
C130 C129 1.361 1_554 S
C130 C133 1.409 1_565 S
C131 H123 0.930 . S
C131 C132 1.355 . S
C131 C133 1.415 . S
C132 C131 1.355 . S
C132 C134 1.419 . S
C133 C128 1.425 1_554 S
C133 C130 1.409 1_545 S
C133 C131 1.415 . S
C134 H124 0.930 1_554 S
C134 C132 1.419 . S
C134 C135 1.362 1_554 S
C135 H125 0.930 . S
C135 C128 1.409 . S
C135 C134 1.362 1_556 S
H136 C142 0.930 . S
H137 C145 0.930 . S
H138 C146 0.930 . S
H139 C147 0.930 . S
H140 C150 0.930 . S
H141 C151 0.930 . S
C142 H136 0.930 . S
C142 C143 1.355 1_455 S
C142 C144 1.415 . S
C143 C142 1.355 1_655 S
C143 C145 1.419 . S
C144 C142 1.415 . S
C144 C149 1.425 1_464 S
C144 C151 1.409 1_564 S
C145 H137 0.930 . S
C145 C143 1.419 . S
C145 C146 1.362 . S
C146 H138 0.930 . S
C146 C145 1.362 . S
C146 C149 1.409 1_564 S
C147 H139 0.930 . S
C147 C148 1.355 . S
C147 C149 1.415 . S
C148 C147 1.355 . S
C148 C150 1.419 1_655 S
C149 C144 1.425 1_646 S
C149 C146 1.409 1_546 S
C149 C147 1.415 . S
C150 H140 0.930 . S
C150 C148 1.419 1_455 S
C150 C151 1.362 . S
C151 H141 0.930 . S
C151 C144 1.409 1_546 S
C151 C150 1.362 . S
H152 C158 0.930 . S
H153 C161 0.930 . S
H154 C162 0.930 . S
H155 C163 0.930 . S
H156 C166 0.930 . S
H157 C167 0.930 . S
C158 H152 0.930 . S
C158 C159 1.355 . S
C158 C160 1.415 . S
C159 C158 1.355 . S
C159 C161 1.419 . S
C160 C158 1.415 . S
C160 C165 1.425 . S
C160 C167 1.409 . S
C161 H153 0.930 . S
C161 C159 1.419 . S
C161 C162 1.362 . S
C162 H154 0.930 . S
C162 C161 1.362 . S
C162 C165 1.409 . S
C163 H155 0.930 . S
C163 C164 1.355 . S
C163 C165 1.415 . S
C164 C163 1.355 . S
C164 C166 1.419 . S
C165 C160 1.425 . S
C165 C162 1.409 . S
C165 C163 1.415 . S
C166 H156 0.930 . S
C166 C164 1.419 . S
C166 C167 1.362 . S
C167 H157 0.930 . S
C167 C160 1.409 . S
C167 C166 1.362 . S
H168 C174 0.930 . S
H169 C177 0.930 . S
H170 C178 0.930 . S
H171 C179 0.930 . S
H172 C182 0.930 . S
H173 C183 0.930 . S
C174 H168 0.930 . S
C174 C175 1.355 . S
C174 C176 1.415 . S
C175 C174 1.355 . S
C175 C177 1.419 . S
C176 C174 1.415 . S
C176 C181 1.425 . S
C176 C183 1.409 . S
C177 H169 0.930 . S
C177 C175 1.419 . S
C177 C178 1.362 . S
C178 H170 0.930 . S
C178 C177 1.362 . S
C178 C181 1.409 . S
C179 H171 0.930 . S
C179 C180 1.355 . S
C179 C181 1.415 . S
C180 C179 1.355 . S
C180 C182 1.419 . S
C181 C176 1.425 . S
C181 C178 1.409 . S
C181 C179 1.415 . S
C182 H172 0.930 . S
C182 C180 1.419 . S
C182 C183 1.362 . S
C183 H173 0.930 . S
C183 C176 1.409 . S
C183 C182 1.362 . S
H184 C190 0.930 . S
H185 C193 0.930 . S
H186 C194 0.930 . S
H187 C195 0.930 . S
H188 C198 0.930 . S
H189 C199 0.930 . S
C190 H184 0.930 . S
C190 C191 1.355 . S
C190 C192 1.415 . S
C191 C190 1.355 . S
C191 C193 1.419 . S
C192 C190 1.415 . S
C192 C197 1.425 . S
C192 C199 1.409 . S
C193 H185 0.930 . S
C193 C191 1.419 . S
C193 C194 1.362 . S
C194 H186 0.930 . S
C194 C193 1.362 . S
C194 C197 1.409 . S
C195 H187 0.930 . S
C195 C196 1.355 . S
C195 C197 1.415 . S
C196 C195 1.355 . S
C196 C198 1.419 . S
C197 C192 1.425 . S
C197 C194 1.409 . S
C197 C195 1.415 . S
C198 H188 0.930 . S
C198 C196 1.419 . S
C198 C199 1.362 . S
C199 H189 0.930 . S
C199 C192 1.409 . S
C199 C198 1.362 . S
H200 C206 0.930 . S
H201 C209 0.930 . S
H202 C210 0.930 . S
H203 C211 0.930 . S
H204 C214 0.930 . S
H205 C215 0.930 . S
C206 H200 0.930 . S
C206 C207 1.355 . S
C206 C208 1.415 . S
C207 C206 1.355 . S
C207 C209 1.419 . S
C208 C206 1.415 . S
C208 C213 1.425 . S
C208 C215 1.409 . S
C209 H201 0.930 . S
C209 C207 1.419 . S
C209 C210 1.362 . S
C210 H202 0.930 . S
C210 C209 1.362 . S
C210 C213 1.409 . S
C211 H203 0.930 . S
C211 C212 1.355 . S
C211 C213 1.415 . S
C212 C211 1.355 . S
C212 C214 1.419 . S
C213 C208 1.425 . S
C213 C210 1.409 . S
C213 C211 1.415 . S
C214 H204 0.930 . S
C214 C212 1.419 . S
C214 C215 1.362 . S
C215 H205 0.930 . S
C215 C208 1.409 . S
C215 C214 1.362 . S
H216 C222 0.930 . S
H217 C225 0.930 . S
H218 C226 0.930 . S
H219 C227 0.930 . S
H220 C230 0.930 . S
H221 C231 0.930 . S
C222 H216 0.930 . S
C222 C223 1.355 . S
C222 C224 1.415 1_556 S
C223 C222 1.355 . S
C223 C225 1.419 . S
C224 C222 1.415 1_554 S
C224 C229 1.425 1_554 S
C224 C231 1.409 . S
C225 H217 0.930 . S
C225 C223 1.419 . S
C225 C226 1.362 . S
C226 H218 0.930 . S
C226 C225 1.362 . S
C226 C229 1.409 . S
C227 H219 0.930 . S
C227 C228 1.355 . S
C227 C229 1.415 1_554 S
C228 C227 1.355 . S
C228 C230 1.419 . S
C229 C224 1.425 1_556 S
C229 C226 1.409 . S
C229 C227 1.415 1_556 S
C230 H220 0.930 . S
C230 C228 1.419 . S
C230 C231 1.362 . S
C231 H221 0.930 . S
C231 C224 1.409 . S
C231 C230 1.362 . S
H232 C238 0.930 . S
H233 C241 0.930 . S
H234 C242 0.930 . S
H235 C243 0.930 . S
H236 C246 0.930 . S
H237 C247 0.930 . S
C238 H232 0.930 . S
C238 C239 1.355 . S
C238 C240 1.415 1_556 S
C239 C238 1.355 . S
C239 C241 1.419 . S
C240 C238 1.415 1_554 S
C240 C245 1.425 1_554 S
C240 C247 1.409 . S
C241 H233 0.930 . S
C241 C239 1.419 . S
C241 C242 1.362 . S
C242 H234 0.930 . S
C242 C241 1.362 . S
C242 C245 1.409 . S
C243 H235 0.930 . S
C243 C244 1.355 . S
C243 C245 1.415 1_554 S
C244 C243 1.355 . S
C244 C246 1.419 . S
C245 C240 1.425 1_556 S
C245 C242 1.409 . S
C245 C243 1.415 1_556 S
C246 H236 0.930 . S
C246 C244 1.419 . S
C246 C247 1.362 . S
C247 H237 0.930 . S
C247 C240 1.409 . S
C247 C246 1.362 . S
H248 C254 0.930 . S
H249 C257 0.930 . S
H250 C258 0.930 . S
H251 C259 0.930 . S
H252 C262 0.930 . S
H253 C263 0.930 . S
C254 H248 0.930 . S
C254 C255 1.355 . S
C254 C256 1.415 1_554 S
C255 C254 1.355 . S
C255 C257 1.419 . S
C256 C254 1.415 1_556 S
C256 C261 1.425 1_556 S
C256 C263 1.409 . S
C257 H249 0.930 . S
C257 C255 1.419 . S
C257 C258 1.362 . S
C258 H250 0.930 . S
C258 C257 1.362 . S
C258 C261 1.409 . S
C259 H251 0.930 . S
C259 C260 1.355 . S
C259 C261 1.415 1_556 S
C260 C259 1.355 . S
C260 C262 1.419 . S
C261 C256 1.425 1_554 S
C261 C258 1.409 . S
C261 C259 1.415 1_554 S
C262 H252 0.930 . S
C262 C260 1.419 . S
C262 C263 1.362 . S
C263 H253 0.930 . S
C263 C256 1.409 . S
C263 C262 1.362 . S
H264 C270 0.930 . S
H265 C273 0.930 . S
H266 C274 0.930 . S
H267 C275 0.930 . S
H268 C278 0.930 . S
H269 C279 0.930 . S
C270 H264 0.930 . S
C270 C271 1.355 . S
C270 C272 1.415 1_554 S
C271 C270 1.355 . S
C271 C273 1.419 . S
C272 C270 1.415 1_556 S
C272 C277 1.425 1_556 S
C272 C279 1.409 . S
C273 H265 0.930 . S
C273 C271 1.419 . S
C273 C274 1.362 . S
C274 H266 0.930 . S
C274 C273 1.362 . S
C274 C277 1.409 . S
C275 H267 0.930 . S
C275 C276 1.355 . S
C275 C277 1.415 1_556 S
C276 C275 1.355 . S
C276 C278 1.419 . S
C277 C272 1.425 1_554 S
C277 C274 1.409 . S
C277 C275 1.415 1_554 S
C278 H268 0.930 . S
C278 C276 1.419 . S
C278 C279 1.362 . S
C279 H269 0.930 . S
C279 C272 1.409 . S
C279 C278 1.362 . S
C95 C62 1.562 . S
C100 C15 1.578 . S
C111 C40 1.581 . S
C116 C81 1.533 . S
C127 C74 1.564 . S
C132 C43 1.560 . S
C143 C8 1.586 . S
C148 C65 1.536 1_655 S
C159 C73 2.183 . S
C164 C7 2.172 . S
C175 C54 2.138 . S
C180 C32 2.123 . S
C191 C59 2.159 . S
C196 C37 2.193 . S
C207 C18 2.093 . S
C212 C84 2.118 . S
C223 C87 0.645 . S
C228 C21 0.648 . S
C239 C52 0.473 . S
C244 C30 0.517 . S
C255 C29 0.645 . S
C260 C51 0.641 . S
C271 C10 0.522 . S
C276 C76 0.542 . S
