# Generated by pormake.
# Topology wjh, (4)-cn, num edge types: 1
# Building blocks:
#     Node 0, Type 0, BuildingBlock: ESEHIV_clean_sbu_0, # of connection points: 4
#     Node 1, Type 0, BuildingBlock: ESEHIV_clean_sbu_0, # of connection points: 4
#     Node 2, Type 0, BuildingBlock: ESEHIV_clean_sbu_0, # of connection points: 4
#     Node 3, Type 0, BuildingBlock: ESEHIV_clean_sbu_0, # of connection points: 4
#     Node 4, Type 0, BuildingBlock: ESEHIV_clean_sbu_0, # of connection points: 4
#     Node 5, Type 0, BuildingBlock: ESEHIV_clean_sbu_0, # of connection points: 4
#     Node 6, Type 0, BuildingBlock: ESEHIV_clean_sbu_0, # of connection points: 4
#     Node 7, Type 0, BuildingBlock: ESEHIV_clean_sbu_0, # of connection points: 4
#     Node 8, Type 0, BuildingBlock: ESEHIV_clean_sbu_0, # of connection points: 4
#     Node 9, Type 0, BuildingBlock: ESEHIV_clean_sbu_0, # of connection points: 4
#     Node 10, Type 0, BuildingBlock: ESEHIV_clean_sbu_0, # of connection points: 4
#     Node 11, Type 0, BuildingBlock: ESEHIV_clean_sbu_0, # of connection points: 4
#     Edge 12, Type (0, 0), BuildingBlock: XUDNAN_clean_linker_2, # of connection points: 2
#     Edge 13, Type (0, 0), BuildingBlock: XUDNAN_clean_linker_2, # of connection points: 2
#     Edge 14, Type (0, 0), BuildingBlock: XUDNAN_clean_linker_2, # of connection points: 2
#     Edge 15, Type (0, 0), BuildingBlock: XUDNAN_clean_linker_2, # of connection points: 2
#     Edge 16, Type (0, 0), BuildingBlock: XUDNAN_clean_linker_2, # of connection points: 2
#     Edge 17, Type (0, 0), BuildingBlock: XUDNAN_clean_linker_2, # of connection points: 2
#     Edge 18, Type (0, 0), BuildingBlock: XUDNAN_clean_linker_2, # of connection points: 2
#     Edge 19, Type (0, 0), BuildingBlock: XUDNAN_clean_linker_2, # of connection points: 2
#     Edge 20, Type (0, 0), BuildingBlock: XUDNAN_clean_linker_2, # of connection points: 2
#     Edge 21, Type (0, 0), BuildingBlock: XUDNAN_clean_linker_2, # of connection points: 2
#     Edge 22, Type (0, 0), BuildingBlock: XUDNAN_clean_linker_2, # of connection points: 2
#     Edge 23, Type (0, 0), BuildingBlock: XUDNAN_clean_linker_2, # of connection points: 2
#     Edge 24, Type (0, 0), BuildingBlock: XUDNAN_clean_linker_2, # of connection points: 2
#     Edge 25, Type (0, 0), BuildingBlock: XUDNAN_clean_linker_2, # of connection points: 2
#     Edge 26, Type (0, 0), BuildingBlock: XUDNAN_clean_linker_2, # of connection points: 2
#     Edge 27, Type (0, 0), BuildingBlock: XUDNAN_clean_linker_2, # of connection points: 2
#     Edge 28, Type (0, 0), BuildingBlock: XUDNAN_clean_linker_2, # of connection points: 2
#     Edge 29, Type (0, 0), BuildingBlock: XUDNAN_clean_linker_2, # of connection points: 2
#     Edge 30, Type (0, 0), BuildingBlock: XUDNAN_clean_linker_2, # of connection points: 2
#     Edge 31, Type (0, 0), BuildingBlock: XUDNAN_clean_linker_2, # of connection points: 2
#     Edge 32, Type (0, 0), BuildingBlock: XUDNAN_clean_linker_2, # of connection points: 2
#     Edge 33, Type (0, 0), BuildingBlock: XUDNAN_clean_linker_2, # of connection points: 2
#     Edge 34, Type (0, 0), BuildingBlock: XUDNAN_clean_linker_2, # of connection points: 2
#     Edge 35, Type (0, 0), BuildingBlock: XUDNAN_clean_linker_2, # of connection points: 2
# Relax obj value: 0.035
# Max RMSD: 0.090
# Mean RMSD: 0.090
data_MOF--net-wjh--node1-ESEHIV_clean_sbu_0--edge1-XUDNAN_clean_linker_2
_symmetry_space_group_name_H-M    P1
_symmetry_Int_Tables_number       1
_symmetry_cell_setting            triclinic
loop_
_symmetry_equiv_pos_as_xyz
'x, y, z'
_cell_length_a     67.394342
_cell_length_b     67.286207
_cell_length_c     28.546856
_cell_angle_alpha  89.992548
_cell_angle_beta   90.092531
_cell_angle_gamma 119.85269
loop_
_atom_site_label
_atom_site_type_symbol
_atom_site_fract_x
_atom_site_fract_y
_atom_site_fract_z
_atom_type_partial_charge
Cu0 Cu 0.5437 0.14951 0.06928 0.0
N1 N 0.51697 0.12174 0.05971 0.0
N2 N 0.49209 0.08415 0.06201 0.0
C3 C 0.51321 0.10109 0.07393 0.0
C4 C 0.48225 0.09468 0.03931 0.0
C5 C 0.49766 0.11788 0.03799 0.0
O6 O 0.56273 0.15434 1.01406 0.0
C7 C 0.5692 0.16086 0.15774 0.0
O8 O 0.57963 0.18259 0.14584 0.0
H9 H 0.52589 0.09861 0.09218 0.0
H10 H 0.49494 0.131 1.0225 0.0
N11 N 0.53578 0.17242 0.07349 0.0
N12 N 0.52854 0.19914 0.10167 0.0
C13 C 0.53467 0.18334 0.11208 0.0
C14 C 0.52973 0.18129 0.03764 0.0
C15 C 0.5254 0.19787 0.05483 0.0
C16 C 0.57473 0.17387 0.99489 0.0
O17 O 0.57766 0.19228 1.01688 0.0
H18 H 0.53847 0.17991 0.14698 0.0
H19 H 0.52864 0.17607 1.00145 0.0
O20 O 0.55566 0.14572 0.12884 0.0
H21 H 0.46505 0.08632 1.02526 0.0
H22 H 0.52005 0.20796 0.03449 0.0
Cu23 Cu 0.41319 0.56549 0.2472 0.0
N24 N 0.40898 0.53594 0.24375 0.0
N25 N 0.41737 0.50778 0.24815 0.0
C26 C 0.42512 0.5304 0.25377 0.0
C27 C 0.39543 0.49878 0.23387 0.0
C28 C 0.39029 0.51621 0.2313 0.0
O29 O 0.43247 0.58265 0.19432 0.0
C30 C 0.41406 0.56442 0.34319 0.0
O31 O 0.39618 0.5445 0.33309 0.0
H32 H 0.44233 0.54286 0.2644 0.0
H33 H 0.37411 0.51464 0.22107 0.0
N34 N 0.38546 0.56527 0.24027 0.0
N35 N 0.34965 0.55831 0.25044 0.0
C36 C 0.36519 0.5519 0.26136 0.0
C37 C 0.38255 0.58047 0.21485 0.0
C38 C 0.36054 0.57622 0.22094 0.0
C39 C 0.42409 0.57394 0.15443 0.0
O40 O 0.40424 0.55488 0.15315 0.0
H41 H 0.3621 0.53825 0.28539 0.0
H42 H 0.39575 0.59406 0.19411 0.0
O43 O 0.42555 0.57758 0.3095 0.0
H44 H 0.38382 0.48086 0.22643 0.0
H45 H 0.35325 0.58578 0.20521 0.0
Cu46 Cu 0.85975 0.41529 0.42798 0.0
N47 N 0.88886 0.41852 0.43117 0.0
N48 N 0.92653 0.43264 0.42504 0.0
C49 C 0.90873 0.43585 0.41506 0.0
C50 C 0.91745 0.41253 0.44828 0.0
C51 C 0.89424 0.40393 0.45214 0.0
O52 O 0.85693 0.43018 0.37129 0.0
C53 C 0.87034 0.44319 0.5091 0.0
O54 O 0.88985 0.45569 0.48731 0.0
H55 H 0.91005 0.45048 0.39646 0.0
H56 H 0.88212 0.38826 0.46956 0.0
N57 N 0.83887 0.38407 0.42334 0.0
N58 N 0.80873 0.34949 0.43649 0.0
C59 C 0.81862 0.37217 0.44533 0.0
C60 C 0.84182 0.36845 0.39964 0.0
C61 C 0.82327 0.34708 0.40776 0.0
C62 C 0.86402 0.42651 0.33252 0.0
O63 O 0.87368 0.4137 0.33262 0.0
H64 H 0.81168 0.3799 0.46856 0.0
H65 H 0.85668 0.37229 0.37878 0.0
O66 O 0.85424 0.42616 0.48765 0.0
H67 H 0.92696 0.40487 0.46258 0.0
H68 H 0.82072 0.33102 0.39376 0.0
Cu69 Cu 0.4634 0.85443 0.58676 0.0
N70 N 0.48977 0.88311 0.58514 0.0
N71 N 0.51297 0.9211 0.58612 0.0
C72 C 0.49129 0.90364 0.59153 0.0
C73 C 0.52546 0.91096 0.57614 0.0
C74 C 0.51113 0.88759 0.57565 0.0
O75 O 0.44384 0.85066 0.53264 0.0
C76 C 0.43324 0.83272 0.66468 0.0
O77 O 0.42447 0.81413 0.63871 0.0
H78 H 0.47669 0.90559 0.59976 0.0
H79 H 0.51585 0.87475 0.56801 0.0
N80 N 0.47181 0.83206 0.58 0.0
N81 N 0.47619 0.80168 0.59183 0.0
C82 C 0.47158 0.81713 0.61181 0.0
C83 C 0.47706 0.82603 0.53892 0.0
C84 C 0.47971 0.80727 0.54605 0.0
C85 C 0.4524 0.8611 0.49412 0.0
O86 O 0.47424 0.87646 0.49248 0.0
H87 H 0.46702 0.81687 0.64822 0.0
H88 H 0.47811 0.83427 0.50576 0.0
O89 O 0.44898 0.85148 0.64772 0.0
H90 H 0.54356 0.91972 0.5684 0.0
H91 H 0.48345 0.79814 0.51946 0.0
Cu92 Cu 0.60674 0.45777 0.76989 0.0
N93 N 0.59782 0.4796 0.77917 0.0
N94 N 0.5849 0.50418 0.77103 0.0
C95 C 0.5918 0.49096 0.74858 0.0
C96 C 0.58691 0.50114 0.81714 0.0
C97 C 0.59485 0.48601 0.82198 0.0
O98 O 0.59966 0.44537 0.70637 0.0
C99 C 0.6004 0.4257 0.84345 0.0
O100 O 0.61908 0.42651 0.82776 0.0
H101 H 0.59177 0.48904 0.71093 0.0
H102 H 0.59797 0.47979 0.85453 0.0
N103 N 0.63835 0.47217 0.77845 0.0
N104 N 0.67374 0.47748 0.78454 0.0
C105 C 0.65222 0.46364 0.76881 0.0
C106 C 0.6516 0.4923 0.80005 0.0
C107 C 0.67343 0.49564 0.80385 0.0
C108 C 0.58077 0.43905 0.68528 0.0
O109 O 0.56389 0.43911 0.7081 0.0
H110 H 0.64635 0.44718 0.7522 0.0
H111 H 0.64558 0.50332 0.81388 0.0
O112 O 0.59164 0.43571 0.82056 0.0
H113 H 0.58289 0.50925 0.84543 0.0
H114 H 0.68759 0.50972 0.82188 0.0
Cu115 Cu 0.15676 0.59744 0.90161 0.0
N116 N 0.12707 0.58681 0.92389 0.0
N117 N 0.08881 0.56753 0.92445 0.0
C118 C 0.10798 0.56892 0.90634 0.0
C119 C 0.09618 0.58525 0.95467 0.0
C120 C 0.11975 0.59725 0.95383 0.0
O121 O 0.15385 0.59418 0.83363 0.0
C122 C 0.17704 0.57378 0.96103 0.0
O123 O 0.1865 0.56092 0.95585 0.0
H124 H 0.10821 0.55777 0.87928 0.0
H125 H 0.13075 0.61313 0.972 0.0
N126 N 0.17535 0.62862 0.91387 0.0
N127 N 0.20204 0.66214 0.94309 0.0
C128 C 0.19157 0.63912 0.94698 0.0
C129 C 0.17571 0.64556 0.88819 0.0
C130 C 0.1922 0.66628 0.90607 0.0
C131 C 0.17034 0.59762 0.80682 0.0
O132 O 0.19034 0.60336 0.82539 0.0
H133 H 0.19603 0.63018 0.97266 0.0
H134 H 0.1648 0.64296 0.85829 0.0
O135 O 0.17064 0.57953 0.92363 0.0
H136 H 0.08533 0.59008 0.97364 0.0
H137 H 0.19641 0.68308 0.89332 0.0
Cu138 Cu 0.85922 0.45767 0.90604 0.0
N139 N 0.88824 0.47643 0.88097 0.0
N140 N 0.92561 0.49366 0.86601 0.0
C141 C 0.90855 0.47885 0.89416 0.0
C142 C 0.91581 0.50103 0.83452 0.0
C143 C 0.89281 0.4906 0.84421 0.0
O144 O 0.86145 0.45697 0.97468 0.0
C145 C 0.83986 0.41602 0.84333 0.0
O146 O 0.82742 0.39357 0.84245 0.0
H147 H 0.91071 0.4696 0.92292 0.0
H148 H 0.88012 0.49271 0.82503 0.0
N149 N 0.84134 0.47064 0.89003 0.0
N150 N 0.81287 0.47559 0.86356 0.0
C151 C 0.82111 0.46097 0.86743 0.0
C152 C 0.84619 0.49205 0.9006 0.0
C153 C 0.8287 0.49516 0.88447 0.0
C154 C 0.84562 0.45554 1.00138 0.0
O155 O 0.82734 0.45448 0.98248 0.0
H156 H 0.81266 0.44356 0.85444 0.0
H157 H 0.86124 0.50436 0.91958 0.0
O158 O 0.84462 0.42598 0.88328 0.0
H159 H 0.9247 0.51311 0.80658 0.0
H160 H 0.8275 0.51047 0.88926 0.0
Cu161 Cu 0.38877 0.85035 0.08658 0.0
N162 N 0.39182 0.87915 0.07747 0.0
N163 N 0.40593 0.91704 0.07575 0.0
C164 C 0.40949 0.8998 0.08928 0.0
C165 C 0.38514 0.90671 0.055 0.0
C166 C 0.37651 0.88339 0.05613 0.0
O167 O 0.40455 0.85058 0.14445 0.0
C168 C 0.41079 0.85476 0.99825 0.0
O169 O 0.42044 0.87687 1.00619 0.0
H170 H 0.42485 0.90208 0.10629 0.0
H171 H 0.36026 0.87036 0.04216 0.0
N172 N 0.35783 0.82985 0.09636 0.0
N173 N 0.32356 0.79828 0.09331 0.0
C174 C 0.3442 0.81044 0.07263 0.0
C175 C 0.34535 0.83009 0.13287 0.0
C176 C 0.32419 0.81056 0.13119 0.0
C177 C 0.39756 0.832 0.16732 0.0
O178 O 0.38247 0.81263 0.14768 0.0
H179 H 0.34968 0.80479 0.04229 0.0
H180 H 0.35158 0.84315 0.15978 0.0
O181 O 0.39807 0.84075 1.02974 0.0
H182 H 0.37665 0.91534 0.04029 0.0
H183 H 0.31047 0.80559 0.15622 0.0
Cu184 Cu 0.52866 0.38427 0.26106 0.0
N185 N 0.50435 0.39002 0.25521 0.0
N186 N 0.4839 0.40789 0.25496 0.0
C187 C 0.50463 0.40991 0.26275 0.0
C188 C 0.47015 0.38586 0.24204 0.0
C189 C 0.48279 0.37491 0.24228 0.0
O190 O 0.54628 0.39928 0.31766 0.0
C191 C 0.54061 0.39824 0.16564 0.0
O192 O 0.52178 0.39947 0.16556 0.0
H193 H 0.51981 0.42556 0.2732 0.0
H194 H 0.47673 0.35715 0.23359 0.0
N195 N 0.51668 0.35287 0.26917 0.0
N196 N 0.51149 0.31752 0.26292 0.0
C197 C 0.52319 0.33933 0.24724 0.0
C198 C 0.50029 0.3392 0.29952 0.0
C199 C 0.49706 0.31738 0.2958 0.0
C200 C 0.53549 0.39824 0.35515 0.0
O201 O 0.51306 0.38815 0.35372 0.0
H202 H 0.53655 0.34548 0.22107 0.0
H203 H 0.49131 0.34471 0.32277 0.0
O204 O 0.54709 0.39309 0.20357 0.0
H205 H 0.45213 0.37808 0.2337 0.0
H206 H 0.48486 0.30254 0.31543 0.0
Cu207 Cu 0.15854 0.5523 0.37945 0.0
N208 N 0.12884 0.52862 0.36957 0.0
N209 N 0.09072 0.50812 0.36884 0.0
C210 C 0.10927 0.52808 0.38147 0.0
C211 C 0.09902 0.4957 0.34825 0.0
C212 C 0.12255 0.50844 0.34867 0.0
O213 O 0.15854 0.56874 0.43598 0.0
C214 C 0.15669 0.5772 0.30028 0.0
O215 O 0.1385 0.57558 0.3208 0.0
H216 H 0.10871 0.54194 0.39951 0.0
H217 H 0.1343 0.50341 0.33464 0.0
N218 N 0.17666 0.53896 0.38915 0.0
N219 N 0.20393 0.52964 0.38016 0.0
C220 C 0.19526 0.54275 0.36468 0.0
C221 C 0.17335 0.52293 0.42113 0.0
C222 C 0.19016 0.51714 0.41571 0.0
C223 C 0.17446 0.57596 0.46654 0.0
O224 O 0.19316 0.57522 0.45716 0.0
H225 H 0.202 0.55458 0.33558 0.0
H226 H 0.15962 0.51593 0.44649 0.0
O227 O 0.16851 0.57004 0.32173 0.0
H228 H 0.08884 0.47876 0.33334 0.0
H229 H 0.1922 0.50488 0.43669 0.0
Cu230 Cu 0.61648 0.15519 0.5715 0.0
N231 N 0.61324 0.12593 0.57116 0.0
N232 N 0.59781 0.08792 0.57605 0.0
C233 C 0.59496 0.10608 0.58471 0.0
C234 C 0.61874 0.09674 0.55654 0.0
C235 C 0.62815 0.12014 0.55338 0.0
O236 O 0.60329 0.16005 0.62835 0.0
C237 C 0.58472 0.14301 0.497 0.0
O238 O 0.57204 0.12543 0.52411 0.0
H239 H 0.57975 0.10499 0.59994 0.0
H240 H 0.64442 0.13205 0.5378 0.0
N241 N 0.64747 0.1769 0.57195 0.0
N242 N 0.68019 0.20922 0.55827 0.0
C243 C 0.65733 0.1977 0.5517 0.0
C244 C 0.6646 0.17525 0.59239 0.0
C245 C 0.68487 0.19514 0.58374 0.0
C246 C 0.60585 0.15229 0.66734 0.0
O247 O 0.61607 0.14001 0.66787 0.0
H248 H 0.64794 0.20409 0.532 0.0
H249 H 0.66246 0.16061 0.61219 0.0
O250 O 0.60375 0.15888 0.51265 0.0
H251 H 0.62632 0.08692 0.54357 0.0
H252 H 0.70168 0.19908 0.59577 0.0
Cu253 Cu 0.45584 0.59809 0.73255 0.0
N254 N 0.48488 0.60353 0.71631 0.0
N255 N 0.51347 0.59632 0.70525 0.0
C256 C 0.49247 0.58872 0.72358 0.0
C257 C 0.51933 0.61677 0.68564 0.0
C258 C 0.50163 0.62121 0.69264 0.0
O259 O 0.45428 0.60065 0.80015 0.0
C260 C 0.42325 0.5545 0.68232 0.0
O261 O 0.40837 0.53269 0.68873 0.0
H262 H 0.48239 0.57233 0.74068 0.0
H263 H 0.50082 0.636 0.68041 0.0
N264 N 0.44853 0.61838 0.70317 0.0
N265 N 0.44979 0.65079 0.68098 0.0
C266 C 0.4603 0.64143 0.70531 0.0
C267 C 0.42979 0.61302 0.67737 0.0
C268 C 0.43064 0.63298 0.66322 0.0
C269 C 0.47014 0.61554 0.82596 0.0
O270 O 0.48916 0.63134 0.80656 0.0
H271 H 0.4762 0.65112 0.72434 0.0
H272 H 0.41615 0.59582 0.67026 0.0
O273 O 0.43368 0.56631 0.71839 0.0
H274 H 0.53521 0.62771 0.66757 0.0
H275 H 0.41781 0.63429 0.64271 0.0
H276 H 0.59611 0.1877 0.23145 0.0
H277 H 0.54375 0.11827 0.19589 0.0
H278 H 0.54164 0.107 0.27841 0.0
H279 H 0.62484 0.17098 0.31915 0.0
H280 H 0.63123 0.19479 0.35727 0.0
H281 H 0.62903 0.19755 0.29497 0.0
H282 H 0.5984 0.20944 0.30895 0.0
H283 H 0.6003 0.20645 0.37126 0.0
H284 H 0.57306 0.19081 0.34197 0.0
H285 H 0.54311 0.10346 0.36475 0.0
H286 H 0.55144 0.10658 0.44918 0.0
H287 H 0.60428 0.17763 0.43061 0.0
C288 C 0.5844 0.17007 0.24094 0.0
C289 C 0.57007 0.15392 0.20689 0.0
C290 C 0.55496 0.13102 0.22099 0.0
C291 C 0.55353 0.12442 0.26795 0.0
C292 C 0.56748 0.14081 0.30066 0.0
C293 C 0.58292 0.16306 0.28785 0.0
C294 C 0.59613 0.17709 0.33032 0.0
C295 C 0.62183 0.1856 0.32511 0.0
C296 C 0.5917 0.19713 0.3386 0.0
C297 C 0.58555 0.15923 0.36886 0.0
C298 C 0.56889 0.13852 0.35082 0.0
C299 C 0.55625 0.11953 0.37928 0.0
C300 C 0.56105 0.12154 0.42736 0.0
C301 C 0.57855 0.14233 0.44675 0.0
C302 C 0.59083 0.16149 0.41694 0.0
H303 H 0.3863 0.5446 0.41754 0.0
H304 H 0.45512 0.59759 0.38209 0.0
H305 H 0.4647 0.60406 0.46696 0.0
H306 H 0.38009 0.57166 0.52395 0.0
H307 H 0.36396 0.54442 0.55303 0.0
H308 H 0.3624 0.54616 0.49027 0.0
H309 H 0.37459 0.51539 0.48081 0.0
H310 H 0.37625 0.51361 0.54337 0.0
H311 H 0.40078 0.52001 0.50773 0.0
H312 H 0.46716 0.60133 0.55742 0.0
H313 H 0.46213 0.58983 0.64087 0.0
H314 H 0.39149 0.53925 0.61367 0.0
C315 C 0.40336 0.55782 0.42739 0.0
C316 C 0.42 0.57056 0.39317 0.0
C317 C 0.44207 0.58771 0.40776 0.0
C318 C 0.44763 0.59146 0.45586 0.0
C319 C 0.43082 0.57813 0.4887 0.0
C320 C 0.40906 0.56181 0.47474 0.0
C321 C 0.39424 0.5487 0.51588 0.0
C322 C 0.37398 0.553 0.52108 0.0
C323 C 0.386 0.52292 0.51168 0.0
C324 C 0.41117 0.55961 0.5554 0.0
C325 C 0.43214 0.57675 0.53952 0.0
C326 C 0.45066 0.5882 0.57009 0.0
C327 C 0.44767 0.58168 0.61766 0.0
C328 C 0.42641 0.56388 0.63411 0.0
C329 C 0.40797 0.55306 0.60238 0.0
H330 H 0.81463 0.40842 0.76407 0.0
H331 H 0.88348 0.44687 0.81804 0.0
H332 H 0.89754 0.4634 0.73961 0.0
H333 H 0.83142 0.39077 0.66502 0.0
H334 H 0.81015 0.39045 0.62618 0.0
H335 H 0.80458 0.38625 0.68803 0.0
H336 H 0.79667 0.42016 0.69039 0.0
H337 H 0.80209 0.42441 0.62834 0.0
H338 H 0.81791 0.44779 0.66846 0.0
H339 H 0.90447 0.47287 0.65397 0.0
H340 H 0.90514 0.4712 0.5679 0.0
H341 H 0.83235 0.42202 0.56684 0.0
C342 C 0.8325 0.42112 0.75958 0.0
C343 C 0.84777 0.42821 0.7981 0.0
C344 C 0.87126 0.44332 0.79026 0.0
C345 C 0.87941 0.45227 0.74543 0.0
C346 C 0.86388 0.44514 0.70823 0.0
C347 C 0.84095 0.42958 0.71469 0.0
C348 C 0.82852 0.42181 0.66803 0.0
C349 C 0.81806 0.39578 0.66145 0.0
C350 C 0.81021 0.42898 0.66355 0.0
C351 C 0.84812 0.43511 0.63424 0.0
C352 C 0.86823 0.44886 0.65825 0.0
C353 C 0.8888 0.46225 0.63485 0.0
C354 C 0.88897 0.46118 0.58577 0.0
C355 C 0.8688 0.44647 0.56032 0.0
C356 C 0.84803 0.43355 0.5851 0.0
H357 H 0.4475 0.86802 0.72849 0.0
H358 H 0.40384 0.79439 0.71458 0.0
H359 H 0.39424 0.79175 0.79863 0.0
H360 H 0.46972 0.86764 0.84234 0.0
H361 H 0.46973 0.89307 0.86221 0.0
H362 H 0.47301 0.88926 0.80081 0.0
H363 H 0.43827 0.89439 0.78132 0.0
H364 H 0.43501 0.89842 0.8426 0.0
H365 H 0.41129 0.87648 0.80997 0.0
H366 H 0.38985 0.7971 0.88525 0.0
H367 H 0.38939 0.81034 0.96584 0.0
H368 H 0.43575 0.88044 0.9229 0.0
C369 C 0.43582 0.85133 0.74299 0.0
C370 C 0.42643 0.8314 0.71469 0.0
C371 C 0.41123 0.80993 0.7353 0.0
C372 C 0.40572 0.80823 0.78315 0.0
C373 C 0.41548 0.82817 0.8101 0.0
C374 C 0.43007 0.84933 0.79066 0.0
C375 C 0.43807 0.86817 0.82716 0.0
C376 C 0.46418 0.88024 0.8335 0.0
C377 C 0.43018 0.88538 0.8145 0.0
C378 C 0.42575 0.8543 0.87018 0.0
C379 C 0.41286 0.83125 0.8597 0.0
C380 C 0.39988 0.81513 0.89381 0.0
C381 C 0.3998 0.82281 0.9396 0.0
C382 C 0.41257 0.84643 0.95097 0.0
C383 C 0.42586 0.86225 0.91563 0.0
H384 H 0.53439 0.41478 0.08251 0.0
H385 H 0.57426 0.38753 0.14681 0.0
H386 H 0.59245 0.38965 0.07029 0.0
H387 H 0.52413 0.38559 0.97272 0.0
H388 H 0.52692 0.40939 0.93859 0.0
H389 H 0.51713 0.40583 0.9983 0.0
H390 H 0.54967 0.44681 1.01838 0.0
H391 H 0.55938 0.45059 0.95861 0.0
H392 H 0.57888 0.45471 1.00575 0.0
H393 H 0.60591 0.39438 0.98587 0.0
H394 H 0.61576 0.4041 0.90255 0.0
H395 H 0.56708 0.42843 0.89404 0.0
C396 C 0.547 0.40931 0.08066 0.0
C397 C 0.55287 0.40096 0.12078 0.0
C398 C 0.56955 0.39409 0.1167 0.0
C399 C 0.57988 0.39511 0.0733 0.0
C400 C 0.57342 0.40313 0.03434 0.0
C401 C 0.55753 0.41033 0.03778 0.0
C402 C 0.55391 0.41872 0.99098 0.0
C403 C 0.52904 0.404 0.97417 0.0
C404 C 0.56088 0.44422 0.9936 0.0
C405 C 0.57021 0.41508 0.9605 0.0
C406 C 0.58122 0.40597 0.98607 0.0
C407 C 0.59737 0.40151 0.96557 0.0
C408 C 0.60279 0.40702 0.91809 0.0
C409 C 0.59216 0.41696 0.89148 0.0
C410 C 0.57537 0.42064 0.91307 0.0
H411 H 0.18227 0.56789 0.23903 0.0
H412 H 0.13979 0.59945 0.24697 0.0
H413 H 0.14295 0.60525 0.16108 0.0
H414 H 0.21958 0.60295 0.14202 0.0
H415 H 0.22031 0.57882 0.11653 0.0
H416 H 0.21722 0.58014 0.17897 0.0
H417 H 0.18023 0.54051 0.17646 0.0
H418 H 0.18308 0.53912 0.11409 0.0
H419 H 0.15711 0.53631 0.13828 0.0
H420 H 0.14884 0.60515 0.07245 0.0
H421 H 0.15593 0.59784 0.99094 0.0
H422 H 0.19234 0.56448 0.04214 0.0
C423 C 0.17413 0.5766 0.22297 0.0
C424 C 0.16101 0.58348 0.24991 0.0
C425 C 0.1501 0.59421 0.22716 0.0
C426 C 0.15182 0.59759 0.17835 0.0
C427 C 0.16443 0.59006 0.15267 0.0
C428 C 0.17542 0.57981 0.17433 0.0
C429 C 0.18622 0.57143 0.13874 0.0
C430 C 0.21239 0.58409 0.14441 0.0
C431 C 0.17604 0.5453 0.1421 0.0
C432 C 0.17924 0.57813 0.09362 0.0
C433 C 0.16697 0.58915 0.10219 0.0
C434 C 0.1584 0.59645 0.06554 0.0
C435 C 0.16222 0.59204 1.01918 0.0
C436 C 0.17415 0.58021 1.00958 0.0
C437 C 0.18299 0.57351 0.04772 0.0
H438 H 0.52432 0.31073 0.17682 0.0
H439 H 0.50408 0.28081 0.31528 0.0
H440 H 0.50719 0.24745 0.28944 0.0
H441 H 0.49375 0.25879 0.11288 0.0
H442 H 0.51538 0.26652 0.06856 0.0
H443 H 0.51252 0.28851 0.09847 0.0
H444 H 0.55513 0.30817 0.12341 0.0
H445 H 0.55816 0.28628 0.09339 0.0
H446 H 0.56554 0.29186 0.15456 0.0
H447 H 0.5119 0.21706 0.24812 0.0
H448 H 0.51694 0.1914 0.19368 0.0
H449 H 0.53421 0.24124 0.08232 0.0
C450 C 0.52083 0.29731 0.20187 0.0
C451 C 0.51394 0.29838 0.24809 0.0
C452 C 0.50913 0.28024 0.27957 0.0
C453 C 0.51099 0.26129 0.2653 0.0
C454 C 0.51766 0.26071 0.21941 0.0
C455 C 0.52249 0.27823 0.18813 0.0
C456 C 0.52864 0.27309 0.14039 0.0
C457 C 0.51155 0.27163 0.10288 0.0
C458 C 0.55333 0.29091 0.12718 0.0
C459 C 0.52629 0.24985 0.1496 0.0
C460 C 0.52012 0.24309 0.19548 0.0
C461 C 0.51682 0.2222 0.21215 0.0
C462 C 0.51983 0.20778 0.18102 0.0
C463 C 0.52593 0.21425 0.13368 0.0
C464 C 0.52926 0.23564 0.11807 0.0
H465 H 0.32554 0.58069 0.25944 0.0
H466 H 0.32214 0.51548 0.28526 0.0
H467 H 0.28396 0.50071 0.32079 0.0
H468 H 0.29881 0.58272 0.36455 0.0
H469 H 0.2835 0.59543 0.33792 0.0
H470 H 0.31026 0.6006 0.31344 0.0
H471 H 0.29065 0.58551 0.23288 0.0
H472 H 0.26383 0.58035 0.25708 0.0
H473 H 0.26573 0.55738 0.22897 0.0
H474 H 0.24638 0.49343 0.35512 0.0
H475 H 0.21228 0.49407 0.38456 0.0
H476 H 0.24059 0.56408 0.33564 0.0
C477 C 0.31669 0.56317 0.27179 0.0
C478 C 0.32693 0.54926 0.26942 0.0
C479 C 0.31483 0.52658 0.28708 0.0
C480 C 0.29306 0.51799 0.3071 0.0
C481 C 0.2836 0.53226 0.3091 0.0
C482 C 0.29501 0.55434 0.29176 0.0
C483 C 0.28132 0.56637 0.29889 0.0
C484 C 0.29424 0.58753 0.33059 0.0
C485 C 0.27501 0.57277 0.25164 0.0
C486 C 0.26043 0.54763 0.32316 0.0
C487 C 0.26204 0.52808 0.32872 0.0
C488 C 0.24493 0.50865 0.35089 0.0
C489 C 0.22569 0.50923 0.36778 0.0
C490 C 0.22369 0.52912 0.36244 0.0
C491 C 0.24137 0.54849 0.33971 0.0
H492 H 0.72388 0.22431 0.53086 0.0
H493 H 0.67281 0.24503 0.54713 0.0
H494 H 0.70047 0.28378 0.51812 0.0
H495 H 0.77267 0.27765 0.56645 0.0
H496 H 0.79155 0.27598 0.52399 0.0
H497 H 0.76779 0.25011 0.54675 0.0
H498 H 0.75312 0.23667 0.46223 0.0
H499 H 0.77682 0.2625 0.43921 0.0
H500 H 0.74792 0.255 0.4242 0.0
H501 H 0.73422 0.32055 0.48884 0.0
H502 H 0.77069 0.35179 0.45733 0.0
H503 H 0.79906 0.30641 0.45861 0.0
C504 C 0.71861 0.23707 0.52869 0.0
C505 C 0.69626 0.23175 0.5414 0.0
C506 C 0.68981 0.24875 0.53723 0.0
C507 C 0.70543 0.2708 0.52105 0.0
C508 C 0.72735 0.27548 0.50882 0.0
C509 C 0.73388 0.25904 0.51215 0.0
C510 C 0.75823 0.26821 0.49566 0.0
C511 C 0.77346 0.26798 0.5356 0.0
C512 C 0.75906 0.2548 0.45277 0.0
C513 C 0.76443 0.29241 0.48265 0.0
C514 C 0.74647 0.29636 0.49081 0.0
C515 C 0.74836 0.31763 0.48218 0.0
C516 C 0.76913 0.33528 0.46452 0.0
C517 C 0.7876 0.33146 0.4553 0.0
C518 C 0.78512 0.30972 0.46462 0.0
H519 H 0.45992 0.75984 0.55255 0.0
H520 H 0.48921 0.7984 0.68012 0.0
H521 H 0.48691 0.76391 0.71698 0.0
H522 H 0.41976 0.70784 0.60844 0.0
H523 H 0.42231 0.68967 0.56532 0.0
H524 H 0.42732 0.71763 0.5489 0.0
H525 H 0.4675 0.72816 0.51779 0.0
H526 H 0.46261 0.70022 0.53412 0.0
H527 H 0.4874 0.72555 0.55604 0.0
H528 H 0.48171 0.72492 0.73889 0.0
H529 H 0.4713 0.68416 0.74621 0.0
H530 H 0.44416 0.6714 0.60487 0.0
C531 C 0.46613 0.7611 0.58803 0.0
C532 C 0.47501 0.7818 0.61342 0.0
C533 C 0.48237 0.78265 0.66021 0.0
C534 C 0.48122 0.76321 0.68124 0.0
C535 C 0.47241 0.74305 0.65507 0.0
C536 C 0.4648 0.74186 0.60961 0.0
C537 C 0.45511 0.71799 0.58959 0.0
C538 C 0.42961 0.70768 0.57736 0.0
C539 C 0.46899 0.71799 0.54687 0.0
C540 C 0.45846 0.70587 0.63084 0.0
C541 C 0.46868 0.72062 0.66815 0.0
C542 C 0.47367 0.71324 0.7099 0.0
C543 C 0.46782 0.69013 0.71369 0.0
C544 C 0.45686 0.67469 0.67617 0.0
C545 C 0.45228 0.68279 0.63426 0.0
H546 H 0.71923 0.50818 0.79049 0.0
H547 H 0.67018 0.43535 0.78589 0.0
H548 H 0.70139 0.42685 0.79823 0.0
H549 H 0.76702 0.50524 0.73414 0.0
H550 H 0.78803 0.52723 0.77162 0.0
H551 H 0.76218 0.52751 0.75666 0.0
H552 H 0.75332 0.52787 0.84489 0.0
H553 H 0.77903 0.52747 0.8601 0.0
H554 H 0.75184 0.50566 0.88257 0.0
H555 H 0.73739 0.42632 0.81972 0.0
H556 H 0.77515 0.4338 0.84718 0.0
H557 H 0.80075 0.50701 0.83655 0.0
C558 C 0.71506 0.49044 0.79151 0.0
C559 C 0.6922 0.47247 0.78698 0.0
C560 C 0.68753 0.44947 0.7884 0.0
C561 C 0.70517 0.44445 0.79564 0.0
C562 C 0.72742 0.4626 0.80104 0.0
C563 C 0.73243 0.48514 0.79866 0.0
C564 C 0.75751 0.50149 0.8084 0.0
C565 C 0.76938 0.51623 0.76512 0.0
C566 C 0.76059 0.5165 0.85155 0.0
C567 C 0.76567 0.48462 0.81806 0.0
C568 C 0.74815 0.46228 0.81323 0.0
C569 C 0.75135 0.44376 0.8229 0.0
C570 C 0.77296 0.44822 0.83838 0.0
C571 C 0.79115 0.47104 0.84423 0.0
C572 C 0.78735 0.48937 0.83303 0.0
H573 H 0.23786 0.70288 0.91665 0.0
H574 H 0.20564 0.65934 0.03694 0.0
H575 H 0.23428 0.68937 0.08912 0.0
H576 H 0.29668 0.72697 0.95951 0.0
H577 H 0.30564 0.75483 0.93486 0.0
H578 H 0.28311 0.72956 0.90721 0.0
H579 H 0.25623 0.7467 0.91279 0.0
H580 H 0.27862 0.77195 0.94061 0.0
H581 H 0.25127 0.75565 0.969 0.0
H582 H 0.26442 0.72542 0.12826 0.0
H583 H 0.29605 0.76362 0.15122 0.0
H584 H 0.30976 0.78285 1.00499 0.0
C585 C 0.23695 0.69969 0.95396 0.0
C586 C 0.21956 0.67891 0.97297 0.0
C587 C 0.21897 0.67513 1.02184 0.0
C588 C 0.23508 0.69209 0.05165 0.0
C589 C 0.25184 0.71254 0.03183 0.0
C590 C 0.25311 0.71626 0.98404 0.0
C591 C 0.27281 0.7397 0.97159 0.0
C592 C 0.29061 0.73763 0.94152 0.0
C593 C 0.26421 0.75436 0.94706 0.0
C594 C 0.2821 0.74884 1.01994 0.0
C595 C 0.26972 0.73294 0.05423 0.0
C596 C 0.2744 0.7379 0.1017 0.0
C597 C 0.29225 0.75964 0.11442 0.0
C598 C 0.30532 0.77605 0.07982 0.0
C599 C 0.30022 0.77046 0.03203 0.0
H600 H 0.59606 0.12904 0.75047 0.0
H601 H 0.60223 0.19032 0.68635 0.0
H602 H 0.59621 0.20305 0.76376 0.0
H603 H 0.55086 0.12038 0.83231 0.0
H604 H 0.5616 0.10981 0.87812 0.0
H605 H 0.56621 0.10565 0.81764 0.0
H606 H 0.60984 0.1255 0.83315 0.0
H607 H 0.6054 0.13002 0.89352 0.0
H608 H 0.62442 0.15401 0.85751 0.0
H609 H 0.59231 0.2103 0.84929 0.0
H610 H 0.58522 0.20913 0.93427 0.0
H611 H 0.57906 0.14186 0.94208 0.0
C612 C 0.59595 0.14506 0.75266 0.0
C613 C 0.59969 0.15875 0.71241 0.0
C614 C 0.59926 0.1795 0.71664 0.0
C615 C 0.59602 0.18694 0.76053 0.0
C616 C 0.59286 0.17324 0.79968 0.0
C617 C 0.59231 0.1525 0.79598 0.0
C618 C 0.58796 0.1407 0.84321 0.0
C619 C 0.56531 0.11778 0.84278 0.0
C620 C 0.60811 0.13737 0.85768 0.0
C621 C 0.58642 0.15817 0.87424 0.0
C622 C 0.58959 0.17694 0.84852 0.0
C623 C 0.58959 0.19559 0.86966 0.0
C624 C 0.58571 0.19482 0.9181 0.0
C625 C 0.58155 0.1754 0.94496 0.0
C626 C 0.58212 0.15693 0.92257 0.0
H627 H 0.43416 0.58304 0.8768 0.0
H628 H 0.50006 0.64487 0.89246 0.0
H629 H 0.49575 0.64162 0.9787 0.0
H630 H 0.40597 0.59344 0.97297 0.0
H631 H 0.39007 0.56366 0.98945 0.0
H632 H 0.39835 0.57143 0.92933 0.0
H633 H 0.41861 0.54724 0.92949 0.0
H634 H 0.41045 0.53946 0.98963 0.0
H635 H 0.44015 0.55281 0.9731 0.0
H636 H 0.48394 0.63078 0.06475 0.0
H637 H 0.46575 0.61343 0.14085 0.0
H638 H 0.40822 0.55891 0.0663 0.0
C639 C 0.44768 0.59602 0.89821 0.0
C640 C 0.46744 0.61425 0.87772 0.0
C641 C 0.48473 0.63075 0.90726 0.0
C642 C 0.48244 0.62905 0.95633 0.0
C643 C 0.46277 0.61073 0.97533 0.0
C644 C 0.4457 0.59455 0.94701 0.0
C645 C 0.42639 0.57627 0.97567 0.0
C646 C 0.40387 0.57621 0.9663 0.0
C647 C 0.42376 0.55255 0.96642 0.0
C648 C 0.4352 0.58461 1.02462 0.0
C649 C 0.45617 0.60452 1.02401 0.0
C650 C 0.4675 0.61519 0.06551 0.0
C651 C 0.45707 0.60523 0.10858 0.0
C652 C 0.43558 0.5848 0.10968 0.0
C653 C 0.42467 0.57451 0.06694 0.0
H654 H 0.87251 0.44356 0.05419 0.0
H655 H 0.82209 0.46548 0.06604 0.0
H656 H 0.82307 0.46287 0.15213 0.0
H657 H 0.84938 0.40194 0.14489 0.0
H658 H 0.8767 0.40703 0.16627 0.0
H659 H 0.87349 0.41244 0.10576 0.0
H660 H 0.90676 0.45421 0.11449 0.0
H661 H 0.91005 0.44891 0.1751 0.0
H662 H 0.90541 0.47226 0.1596 0.0
H663 H 0.82866 0.4568 0.23752 0.0
H664 H 0.83693 0.44564 0.31463 0.0
H665 H 0.88253 0.42632 0.24717 0.0
C666 C 0.86193 0.44813 0.07496 0.0
C667 C 0.84734 0.45489 0.05326 0.0
C668 C 0.83343 0.46028 0.08174 0.0
C669 C 0.83392 0.45893 0.13077 0.0
C670 C 0.84829 0.45199 0.15108 0.0
C671 C 0.86197 0.44656 0.12408 0.0
C672 C 0.87483 0.43824 0.15456 0.0
C673 C 0.86819 0.41344 0.14212 0.0
C674 C 0.9008 0.45437 0.1507 0.0
C675 C 0.8661 0.43966 0.20273 0.0
C676 C 0.85101 0.44789 0.20007 0.0
C677 C 0.84052 0.4504 0.24002 0.0
C678 C 0.84535 0.44407 0.28372 0.0
C679 C 0.86035 0.43508 0.28712 0.0
C680 C 0.87097 0.43312 0.24593 0.0
H681 H 0.46286 0.88428 0.41052 0.0
H682 H 0.4123 0.82116 0.4768 0.0
H683 H 0.39314 0.80698 0.40029 0.0
H684 H 0.42313 0.88841 0.32815 0.0
H685 H 0.44406 0.89993 0.28192 0.0
H686 H 0.45311 0.9054 0.34224 0.0
H687 H 0.47985 0.88865 0.32787 0.0
H688 H 0.47065 0.88284 0.2677 0.0
H689 H 0.46806 0.86001 0.30488 0.0
H690 H 0.38151 0.79838 0.31565 0.0
H691 H 0.3751 0.79759 0.23058 0.0
H692 H 0.43207 0.86712 0.21902 0.0
C693 C 0.44755 0.8676 0.40911 0.0
C694 C 0.43907 0.85382 0.44977 0.0
C695 C 0.41902 0.8321 0.44632 0.0
C696 C 0.40811 0.82384 0.40292 0.0
C697 C 0.41726 0.83763 0.36337 0.0
C698 C 0.43628 0.85922 0.36618 0.0
C699 C 0.44263 0.8706 0.31836 0.0
C700 C 0.4406 0.89237 0.31764 0.0
C701 C 0.46672 0.87583 0.30386 0.0
C702 C 0.4244 0.85189 0.28803 0.0
C703 C 0.41008 0.83296 0.31472 0.0
C704 C 0.39246 0.8132 0.29452 0.0
C705 C 0.38907 0.81289 0.24598 0.0
C706 C 0.40305 0.83231 0.21791 0.0
C707 C 0.42103 0.85203 0.23942 0.0
H708 H 0.54266 0.42429 0.62946 0.0
H709 H 0.61381 0.44137 0.62557 0.0
H710 H 0.61055 0.43388 0.54036 0.0
H711 H 0.52191 0.37814 0.54567 0.0
H712 H 0.50156 0.38493 0.51996 0.0
H713 H 0.50968 0.3917 0.58049 0.0
H714 H 0.52162 0.43414 0.56461 0.0
H715 H 0.51369 0.42751 0.50394 0.0
H716 H 0.54219 0.44965 0.51927 0.0
H717 H 0.59944 0.425 0.45419 0.0
H718 H 0.58079 0.41347 0.37632 0.0
H719 H 0.51705 0.40193 0.43774 0.0
C720 C 0.55756 0.42638 0.61082 0.0
C721 C 0.5785 0.43343 0.63442 0.0
C722 C 0.59755 0.43594 0.60846 0.0
C723 C 0.5959 0.43179 0.55993 0.0
C724 C 0.57505 0.42507 0.53772 0.0
C725 C 0.55619 0.42225 0.56245 0.0
C726 C 0.53569 0.41465 0.53053 0.0
C727 C 0.51606 0.39095 0.54503 0.0
C728 C 0.52784 0.43256 0.52954 0.0
C729 C 0.5459 0.41359 0.484 0.0
C730 C 0.56866 0.41978 0.48867 0.0
C731 C 0.5816 0.42008 0.45022 0.0
C732 C 0.5709 0.41358 0.40606 0.0
C733 C 0.54745 0.40675 0.40078 0.0
C734 C 0.53498 0.407 0.44042 0.0
H735 H 0.20355 0.58831 0.54211 0.0
H736 H 0.13645 0.57625 0.50056 0.0
H737 H 0.12857 0.58186 0.58257 0.0
H738 H 0.18659 0.55835 0.64881 0.0
H739 H 0.21213 0.57788 0.68046 0.0
H740 H 0.21326 0.57479 0.61804 0.0
H741 H 0.22992 0.61849 0.60731 0.0
H742 H 0.22903 0.62175 0.66979 0.0
H743 H 0.21484 0.63199 0.63131 0.0
H744 H 0.127 0.58605 0.67057 0.0
H745 H 0.1325 0.59014 0.75636 0.0
H746 H 0.20073 0.59965 0.74009 0.0
C747 C 0.18733 0.58724 0.54998 0.0
C748 C 0.17066 0.58192 0.51463 0.0
C749 C 0.14957 0.58043 0.5268 0.0
C750 C 0.14491 0.58354 0.57338 0.0
C751 C 0.16154 0.58825 0.60747 0.0
C752 C 0.18241 0.59029 0.59624 0.0
C753 C 0.19706 0.59464 0.6396 0.0
C754 C 0.20257 0.57526 0.64715 0.0
C755 C 0.21901 0.61812 0.63682 0.0
C756 C 0.18107 0.59443 0.67712 0.0
C757 C 0.16067 0.59075 0.65791 0.0
C758 C 0.14299 0.58914 0.68589 0.0
C759 C 0.14625 0.59142 0.73466 0.0
C760 C 0.16707 0.5953 0.75514 0.0
C761 C 0.18466 0.59686 0.72568 0.0
H762 H 0.45767 0.04877 1.01398 0.0
H763 H 0.50389 0.06446 0.13191 0.0
H764 H 0.48722 0.02316 0.14769 0.0
H765 H 0.40883 1.00157 0.06814 0.0
H766 H 0.39907 0.98514 1.01478 0.0
H767 H 0.41498 0.01597 1.01233 0.0
H768 H 0.44454 0.01419 0.95703 0.0
H769 H 0.42872 0.98336 0.95933 0.0
H770 H 0.4586 0.99861 0.97508 0.0
H771 H 0.46514 0.97991 0.15098 0.0
H772 H 0.43916 0.93827 0.14179 0.0
H773 H 0.40749 0.95119 1.02192 0.0
C774 C 0.4642 0.04361 0.04337 0.0
C775 C 0.48219 0.05999 0.07156 0.0
C776 C 0.49039 0.05233 0.10931 0.0
C777 C 0.48093 0.02887 0.11876 0.0
C778 C 0.46325 0.01324 0.09021 0.0
C779 C 0.45496 0.0203 0.05332 0.0
C780 C 0.43579 1.00006 1.02802 0.0
C781 C 0.41334 1.00073 0.03102 0.0
C782 C 0.44231 0.999 0.97684 0.0
C783 C 0.43453 0.98051 0.05655 0.0
C784 C 0.45053 0.98843 0.0922 0.0
C785 C 0.45257 0.9735 0.1231 0.0
C786 C 0.43781 0.94986 0.11744 0.0
C787 C 0.4212 0.94135 0.08118 0.0
C788 C 0.41971 0.95703 0.05041 0.0
H789 H 0.44935 0.41004 0.21001 0.0
H790 H 0.50409 0.44552 0.31113 0.0
H791 H 0.49305 0.47521 0.32006 0.0
H792 H 0.45415 0.46025 0.15482 0.0
H793 H 0.42373 0.44795 0.14688 0.0
H794 H 0.4362 0.4297 0.14799 0.0
H795 H 0.40879 0.40595 0.21518 0.0
H796 H 0.39626 0.42415 0.21435 0.0
H797 H 0.40805 0.42025 0.268 0.0
H798 H 0.47561 0.50069 0.3189 0.0
H799 H 0.45342 0.52039 0.30703 0.0
H800 H 0.41002 0.46819 0.20671 0.0
C801 C 0.45894 0.42393 0.23431 0.0
C802 C 0.47763 0.4254 0.25986 0.0
C803 C 0.48992 0.44413 0.29071 0.0
C804 C 0.48368 0.46102 0.29625 0.0
C805 C 0.46512 0.45896 0.27066 0.0
C806 C 0.45296 0.44092 0.24024 0.0
C807 C 0.43371 0.4427 0.21684 0.0
C808 C 0.43717 0.44531 0.16347 0.0
C809 C 0.41032 0.42204 0.22936 0.0
C810 C 0.43687 0.46451 0.23907 0.0
C811 C 0.4551 0.47364 0.26995 0.0
C812 C 0.46136 0.49376 0.29465 0.0
C813 C 0.44871 0.5049 0.28744 0.0
C814 C 0.42999 0.49593 0.25577 0.0
C815 C 0.42404 0.47539 0.23149 0.0
H816 H 0.05523 0.46485 0.37995 0.0
H817 H 0.0725 0.53611 0.37401 0.0
H818 H 0.03188 0.52448 0.38655 0.0
H819 H 1.00116 0.44154 0.31922 0.0
H820 H 0.98751 0.41621 0.35523 0.0
H821 H 0.01789 0.43025 0.34522 0.0
H822 H 0.02509 0.43393 0.43486 0.0
H823 H 0.99474 0.41994 0.44515 0.0
H824 H 0.01332 0.44779 0.47009 0.0
H825 H 0.98921 0.50487 0.39973 0.0
H826 H 0.94811 0.47894 0.41524 0.0
H827 H 0.95906 0.42064 0.41163 0.0
C828 C 0.05046 0.478 0.38077 0.0
C829 C 0.06705 0.50139 0.37592 0.0
C830 C 0.06013 0.51811 0.37813 0.0
C831 C 0.03708 0.51166 0.38494 0.0
C832 C 0.02119 0.48843 0.38957 0.0
C833 C 0.0276 0.47188 0.3877 0.0
C834 C 0.0073 0.44812 0.3946 0.0
C835 C 0.00323 0.43315 0.35096 0.0
C836 C 0.0103 0.43679 0.43881 0.0
C837 C 0.98846 0.45389 0.40077 0.0
C838 C 0.99676 0.4772 0.39752 0.0
C839 C 0.9825 0.48657 0.40221 0.0
C840 C 0.95916 0.4717 0.41073 0.0
C841 C 0.95035 0.44775 0.41468 0.0
C842 C 0.96529 0.43886 0.40936 0.0
H843 H 0.55702 0.95568 0.59752 0.0
H844 H 0.48739 0.94221 0.57903 0.0
H845 H 0.5014 0.98368 0.58 0.0
H846 H 0.57694 0.00551 0.67282 0.0
H847 H 0.60483 0.02022 0.64606 0.0
H848 H 0.58909 0.98936 0.64774 0.0
H849 H 0.5925 0.98798 0.55751 0.0
H850 H 0.60824 0.0188 0.55553 0.0
H851 H 0.58264 0.00317 0.52091 0.0
H852 H 0.52332 0.02691 0.57898 0.0
H853 H 0.55147 0.06821 0.57379 0.0
H854 H 0.60667 0.05323 0.591 0.0
C855 C 0.54461 0.96129 0.59364 0.0
C856 C 0.521 0.94541 0.58834 0.0
C857 C 0.50549 0.9538 0.58389 0.0
C858 C 0.5133 0.97742 0.58419 0.0
C859 C 0.53669 0.9925 0.58897 0.0
C860 C 0.55211 0.98476 0.59357 0.0
C861 C 0.57646 0.00449 0.596 0.0
C862 C 0.58747 0.00491 0.64349 0.0
C863 C 0.5908 0.00355 0.55504 0.0
C864 C 0.57237 0.02456 0.59122 0.0
C865 C 0.54931 0.01732 0.58773 0.0
C866 C 0.54141 0.03278 0.58205 0.0
C867 C 0.55754 0.05623 0.5794 0.0
C868 C 0.5813 0.06399 0.58207 0.0
C869 C 0.58866 0.04785 0.58851 0.0
H870 H 0.55276 0.51221 0.80861 0.0
H871 H 0.59712 0.52724 0.68826 0.0
H872 H 0.58337 0.55263 0.65678 0.0
H873 H 0.50549 0.51133 0.74689 0.0
H874 H 0.49856 0.52423 0.79481 0.0
H875 H 0.5115 0.50688 0.80632 0.0
H876 H 0.54423 0.54055 0.85212 0.0
H877 H 0.53144 0.55802 0.84062 0.0
H878 H 0.56068 0.56798 0.82386 0.0
H879 H 0.56578 0.57804 0.64121 0.0
H880 H 0.54435 0.59911 0.64043 0.0
H881 H 0.51199 0.56685 0.7716 0.0
C882 C 0.55966 0.52089 0.77569 0.0
C883 C 0.57615 0.51794 0.75102 0.0
C884 C 0.58439 0.5292 0.70755 0.0
C885 C 0.57676 0.54371 0.6896 0.0
C886 C 0.56075 0.54653 0.71538 0.0
C887 C 0.55216 0.53521 0.75729 0.0
C888 C 0.53513 0.54101 0.77851 0.0
C889 C 0.51126 0.51959 0.7818 0.0
C890 C 0.54337 0.55258 0.82662 0.0
C891 C 0.53564 0.55764 0.74235 0.0
C892 C 0.55049 0.56068 0.70617 0.0
C893 C 0.55403 0.57568 0.66928 0.0
C894 C 0.54192 0.58769 0.66928 0.0
C895 C 0.52642 0.58455 0.70584 0.0
C896 C 0.52341 0.56935 0.74277 0.0
H897 H 0.05013 0.55309 0.97607 0.0
H898 H 0.07466 0.54901 0.83796 0.0
H899 H 0.0349 0.52652 0.80995 0.0
H900 H 0.99886 0.49538 0.97503 0.0
H901 H 0.98162 0.50487 1.00536 0.0
H902 H 0.01201 0.51889 1.01589 0.0
H903 H 0.01568 0.55797 0.99416 0.0
H904 H 0.98536 0.54409 0.98349 0.0
H905 H 0.00514 0.56121 0.93824 0.0
H906 H 0.99306 0.50866 0.79428 0.0
H907 H 0.95137 0.49446 0.79355 0.0
H908 H 0.95336 0.50843 0.942 0.0
C909 C 0.0471 0.54722 0.9401 0.0
C910 C 0.06555 0.55273 0.90931 0.0
C911 C 0.06088 0.5447 0.86247 0.0
C912 C 0.03832 0.532 0.84614 0.0
C913 C 0.02057 0.52719 0.87718 0.0
C914 C 0.02465 0.53432 0.92333 0.0
C915 C 1.00249 0.52767 0.94886 0.0
C916 C 0.99852 0.51069 0.98864 0.0
C917 C 1.00216 0.549 0.96725 0.0
C918 C 0.98538 0.51624 0.9095 0.0
C919 C 0.99622 0.51616 0.86845 0.0
C920 C 0.98432 0.50821 0.82638 0.0
C921 C 0.96076 0.50028 0.82619 0.0
C922 C 0.94934 0.50013 0.8678 0.0
C923 C 0.96174 0.50789 0.91008 0.0
loop_
_geom_bond_atom_site_label_1
_geom_bond_atom_site_label_2
_geom_bond_distance
_geom_bond_site_symmetry_2
_ccdc_geom_bond_type
Cu0 N1 1.999 . S
Cu0 O6 1.974 1_554 S
Cu0 N11 1.985 . S
Cu0 O20 1.959 . S
N1 Cu0 1.999 . S
N1 C3 1.263 . S
N1 C5 1.389 . S
N2 C3 1.358 . S
N2 C4 1.400 . S
C3 N1 1.263 . S
C3 N2 1.358 . S
C3 H9 0.930 . S
C4 N2 1.400 . S
C4 C5 1.351 . S
C4 H21 0.930 . S
C5 N1 1.389 . S
C5 C4 1.351 . S
C5 H10 0.930 . S
O6 Cu0 1.974 1_556 S
O6 C16 1.282 . S
C7 O8 1.261 . S
C7 O20 1.251 . S
O8 C7 1.261 . S
H9 C3 0.930 . S
H10 C5 0.930 . S
N11 Cu0 1.985 . S
N11 C13 1.335 . S
N11 C14 1.390 . S
N12 C13 1.345 . S
N12 C15 1.336 . S
C13 N11 1.335 . S
C13 N12 1.345 . S
C13 H18 0.930 . S
C14 N11 1.390 . S
C14 C15 1.346 . S
C14 H19 0.930 1_554 S
C15 N12 1.336 . S
C15 C14 1.346 . S
C15 H22 0.929 . S
C16 O6 1.282 . S
C16 O17 1.216 . S
O17 C16 1.216 . S
H18 C13 0.930 . S
H19 C14 0.930 1_556 S
O20 Cu0 1.959 . S
O20 C7 1.251 . S
H21 C4 0.930 . S
H22 C15 0.929 . S
Cu23 N24 1.999 . S
Cu23 O29 1.974 . S
Cu23 N34 1.985 . S
Cu23 O43 1.959 . S
N24 Cu23 1.999 . S
N24 C26 1.263 . S
N24 C28 1.389 . S
N25 C26 1.358 . S
N25 C27 1.400 . S
C26 N24 1.263 . S
C26 N25 1.358 . S
C26 H32 0.930 . S
C27 N25 1.400 . S
C27 C28 1.351 . S
C27 H44 0.930 . S
C28 N24 1.389 . S
C28 C27 1.351 . S
C28 H33 0.930 . S
O29 Cu23 1.974 . S
O29 C39 1.282 . S
C30 O31 1.261 . S
C30 O43 1.251 . S
O31 C30 1.261 . S
H32 C26 0.930 . S
H33 C28 0.930 . S
N34 Cu23 1.985 . S
N34 C36 1.335 . S
N34 C37 1.390 . S
N35 C36 1.345 . S
N35 C38 1.336 . S
C36 N34 1.335 . S
C36 N35 1.345 . S
C36 H41 0.930 . S
C37 N34 1.390 . S
C37 C38 1.346 . S
C37 H42 0.930 . S
C38 N35 1.336 . S
C38 C37 1.346 . S
C38 H45 0.929 . S
C39 O29 1.282 . S
C39 O40 1.216 . S
O40 C39 1.216 . S
H41 C36 0.930 . S
H42 C37 0.930 . S
O43 Cu23 1.959 . S
O43 C30 1.251 . S
H44 C27 0.930 . S
H45 C38 0.929 . S
Cu46 N47 1.999 . S
Cu46 O52 1.974 . S
Cu46 N57 1.985 . S
Cu46 O66 1.959 . S
N47 Cu46 1.999 . S
N47 C49 1.263 . S
N47 C51 1.389 . S
N48 C49 1.358 . S
N48 C50 1.400 . S
C49 N47 1.263 . S
C49 N48 1.358 . S
C49 H55 0.930 . S
C50 N48 1.400 . S
C50 C51 1.351 . S
C50 H67 0.930 . S
C51 N47 1.389 . S
C51 C50 1.351 . S
C51 H56 0.930 . S
O52 Cu46 1.974 . S
O52 C62 1.282 . S
C53 O54 1.261 . S
C53 O66 1.251 . S
O54 C53 1.261 . S
H55 C49 0.930 . S
H56 C51 0.930 . S
N57 Cu46 1.985 . S
N57 C59 1.335 . S
N57 C60 1.390 . S
N58 C59 1.345 . S
N58 C61 1.336 . S
C59 N57 1.335 . S
C59 N58 1.345 . S
C59 H64 0.930 . S
C60 N57 1.390 . S
C60 C61 1.346 . S
C60 H65 0.930 . S
C61 N58 1.336 . S
C61 C60 1.346 . S
C61 H68 0.929 . S
C62 O52 1.282 . S
C62 O63 1.216 . S
O63 C62 1.216 . S
H64 C59 0.930 . S
H65 C60 0.930 . S
O66 Cu46 1.959 . S
O66 C53 1.251 . S
H67 C50 0.930 . S
H68 C61 0.929 . S
Cu69 N70 1.999 . S
Cu69 O75 1.974 . S
Cu69 N80 1.985 . S
Cu69 O89 1.959 . S
N70 Cu69 1.999 . S
N70 C72 1.263 . S
N70 C74 1.389 . S
N71 C72 1.358 . S
N71 C73 1.400 . S
C72 N70 1.263 . S
C72 N71 1.358 . S
C72 H78 0.930 . S
C73 N71 1.400 . S
C73 C74 1.351 . S
C73 H90 0.930 . S
C74 N70 1.389 . S
C74 C73 1.351 . S
C74 H79 0.930 . S
O75 Cu69 1.974 . S
O75 C85 1.282 . S
C76 O77 1.261 . S
C76 O89 1.251 . S
O77 C76 1.261 . S
H78 C72 0.930 . S
H79 C74 0.930 . S
N80 Cu69 1.985 . S
N80 C82 1.335 . S
N80 C83 1.390 . S
N81 C82 1.345 . S
N81 C84 1.336 . S
C82 N80 1.335 . S
C82 N81 1.345 . S
C82 H87 0.930 . S
C83 N80 1.390 . S
C83 C84 1.346 . S
C83 H88 0.930 . S
C84 N81 1.336 . S
C84 C83 1.346 . S
C84 H91 0.929 . S
C85 O75 1.282 . S
C85 O86 1.216 . S
O86 C85 1.216 . S
H87 C82 0.930 . S
H88 C83 0.930 . S
O89 Cu69 1.959 . S
O89 C76 1.251 . S
H90 C73 0.930 . S
H91 C84 0.929 . S
Cu92 N93 1.999 . S
Cu92 O98 1.974 . S
Cu92 N103 1.985 . S
Cu92 O112 1.959 . S
N93 Cu92 1.999 . S
N93 C95 1.263 . S
N93 C97 1.389 . S
N94 C95 1.358 . S
N94 C96 1.400 . S
C95 N93 1.263 . S
C95 N94 1.358 . S
C95 H101 0.930 . S
C96 N94 1.400 . S
C96 C97 1.351 . S
C96 H113 0.930 . S
C97 N93 1.389 . S
C97 C96 1.351 . S
C97 H102 0.930 . S
O98 Cu92 1.974 . S
O98 C108 1.282 . S
C99 O100 1.261 . S
C99 O112 1.251 . S
O100 C99 1.261 . S
H101 C95 0.930 . S
H102 C97 0.930 . S
N103 Cu92 1.985 . S
N103 C105 1.335 . S
N103 C106 1.390 . S
N104 C105 1.345 . S
N104 C107 1.336 . S
C105 N103 1.335 . S
C105 N104 1.345 . S
C105 H110 0.930 . S
C106 N103 1.390 . S
C106 C107 1.346 . S
C106 H111 0.930 . S
C107 N104 1.336 . S
C107 C106 1.346 . S
C107 H114 0.929 . S
C108 O98 1.282 . S
C108 O109 1.216 . S
O109 C108 1.216 . S
H110 C105 0.930 . S
H111 C106 0.930 . S
O112 Cu92 1.959 . S
O112 C99 1.251 . S
H113 C96 0.930 . S
H114 C107 0.929 . S
Cu115 N116 1.999 . S
Cu115 O121 1.974 . S
Cu115 N126 1.985 . S
Cu115 O135 1.959 . S
N116 Cu115 1.999 . S
N116 C118 1.263 . S
N116 C120 1.389 . S
N117 C118 1.358 . S
N117 C119 1.400 . S
C118 N116 1.263 . S
C118 N117 1.358 . S
C118 H124 0.930 . S
C119 N117 1.400 . S
C119 C120 1.351 . S
C119 H136 0.930 . S
C120 N116 1.389 . S
C120 C119 1.351 . S
C120 H125 0.930 . S
O121 Cu115 1.974 . S
O121 C131 1.282 . S
C122 O123 1.261 . S
C122 O135 1.251 . S
O123 C122 1.261 . S
H124 C118 0.930 . S
H125 C120 0.930 . S
N126 Cu115 1.985 . S
N126 C128 1.335 . S
N126 C129 1.390 . S
N127 C128 1.345 . S
N127 C130 1.336 . S
C128 N126 1.335 . S
C128 N127 1.345 . S
C128 H133 0.930 . S
C129 N126 1.390 . S
C129 C130 1.346 . S
C129 H134 0.930 . S
C130 N127 1.336 . S
C130 C129 1.346 . S
C130 H137 0.929 . S
C131 O121 1.282 . S
C131 O132 1.216 . S
O132 C131 1.216 . S
H133 C128 0.930 . S
H134 C129 0.930 . S
O135 Cu115 1.959 . S
O135 C122 1.251 . S
H136 C119 0.930 . S
H137 C130 0.929 . S
Cu138 N139 1.999 . S
Cu138 O144 1.974 . S
Cu138 N149 1.985 . S
Cu138 O158 1.959 . S
N139 Cu138 1.999 . S
N139 C141 1.263 . S
N139 C143 1.389 . S
N140 C141 1.358 . S
N140 C142 1.400 . S
C141 N139 1.263 . S
C141 N140 1.358 . S
C141 H147 0.930 . S
C142 N140 1.400 . S
C142 C143 1.351 . S
C142 H159 0.930 . S
C143 N139 1.389 . S
C143 C142 1.351 . S
C143 H148 0.930 . S
O144 Cu138 1.974 . S
O144 C154 1.282 . S
C145 O146 1.261 . S
C145 O158 1.251 . S
O146 C145 1.261 . S
H147 C141 0.930 . S
H148 C143 0.930 . S
N149 Cu138 1.985 . S
N149 C151 1.335 . S
N149 C152 1.390 . S
N150 C151 1.345 . S
N150 C153 1.336 . S
C151 N149 1.335 . S
C151 N150 1.345 . S
C151 H156 0.930 . S
C152 N149 1.390 . S
C152 C153 1.346 . S
C152 H157 0.930 . S
C153 N150 1.336 . S
C153 C152 1.346 . S
C153 H160 0.929 . S
C154 O144 1.282 . S
C154 O155 1.216 . S
O155 C154 1.216 . S
H156 C151 0.930 . S
H157 C152 0.930 . S
O158 Cu138 1.959 . S
O158 C145 1.251 . S
H159 C142 0.930 . S
H160 C153 0.929 . S
Cu161 N162 1.999 . S
Cu161 O167 1.974 . S
Cu161 N172 1.985 . S
Cu161 O181 1.959 1_554 S
N162 Cu161 1.999 . S
N162 C164 1.263 . S
N162 C166 1.392 . S
N163 C164 1.358 . S
N163 C165 1.400 . S
C164 N162 1.263 . S
C164 N163 1.358 . S
C164 H170 0.930 . S
C165 N163 1.400 . S
C165 C166 1.352 . S
C165 H182 0.930 1_554 S
C166 N162 1.392 . S
C166 C165 1.352 . S
C166 H171 0.926 1_554 S
O167 Cu161 1.974 . S
O167 C177 1.282 . S
C168 O169 1.261 . S
C168 O181 1.251 . S
O169 C168 1.261 . S
H170 C164 0.930 . S
H171 C166 0.926 1_556 S
N172 Cu161 1.985 . S
N172 C174 1.335 . S
N172 C175 1.390 . S
N173 C174 1.345 . S
N173 C176 1.336 . S
C174 N172 1.335 . S
C174 N173 1.345 . S
C174 H179 0.930 1_554 S
C175 N172 1.390 . S
C175 C176 1.346 . S
C175 H180 0.930 . S
C176 N173 1.336 . S
C176 C175 1.346 . S
C176 H183 0.929 . S
C177 O167 1.282 . S
C177 O178 1.216 . S
O178 C177 1.216 . S
H179 C174 0.930 1_556 S
H180 C175 0.930 . S
O181 Cu161 1.959 1_556 S
O181 C168 1.251 . S
H182 C165 0.930 1_556 S
H183 C176 0.929 . S
Cu184 N185 1.999 . S
Cu184 O190 1.974 . S
Cu184 N195 1.985 . S
Cu184 O204 1.959 . S
N185 Cu184 1.999 . S
N185 C187 1.263 . S
N185 C189 1.389 . S
N186 C187 1.358 . S
N186 C188 1.400 . S
C187 N185 1.263 . S
C187 N186 1.358 . S
C187 H193 0.930 . S
C188 N186 1.400 . S
C188 C189 1.351 . S
C188 H205 0.930 . S
C189 N185 1.389 . S
C189 C188 1.351 . S
C189 H194 0.930 . S
O190 Cu184 1.974 . S
O190 C200 1.282 . S
C191 O192 1.261 . S
C191 O204 1.251 . S
O192 C191 1.261 . S
H193 C187 0.930 . S
H194 C189 0.930 . S
N195 Cu184 1.985 . S
N195 C197 1.335 . S
N195 C198 1.390 . S
N196 C197 1.345 . S
N196 C199 1.336 . S
C197 N195 1.335 . S
C197 N196 1.345 . S
C197 H202 0.930 . S
C198 N195 1.390 . S
C198 C199 1.346 . S
C198 H203 0.930 . S
C199 N196 1.336 . S
C199 C198 1.346 . S
C199 H206 0.929 . S
C200 O190 1.282 . S
C200 O201 1.216 . S
O201 C200 1.216 . S
H202 C197 0.930 . S
H203 C198 0.930 . S
O204 Cu184 1.959 . S
O204 C191 1.251 . S
H205 C188 0.930 . S
H206 C199 0.929 . S
Cu207 N208 1.999 . S
Cu207 O213 1.974 . S
Cu207 N218 1.985 . S
Cu207 O227 1.959 . S
N208 Cu207 1.999 . S
N208 C210 1.263 . S
N208 C212 1.389 . S
N209 C210 1.358 . S
N209 C211 1.400 . S
C210 N208 1.263 . S
C210 N209 1.358 . S
C210 H216 0.930 . S
C211 N209 1.400 . S
C211 C212 1.351 . S
C211 H228 0.930 . S
C212 N208 1.389 . S
C212 C211 1.351 . S
C212 H217 0.930 . S
O213 Cu207 1.974 . S
O213 C223 1.282 . S
C214 O215 1.261 . S
C214 O227 1.251 . S
O215 C214 1.261 . S
H216 C210 0.930 . S
H217 C212 0.930 . S
N218 Cu207 1.985 . S
N218 C220 1.335 . S
N218 C221 1.390 . S
N219 C220 1.345 . S
N219 C222 1.336 . S
C220 N218 1.335 . S
C220 N219 1.345 . S
C220 H225 0.930 . S
C221 N218 1.390 . S
C221 C222 1.346 . S
C221 H226 0.930 . S
C222 N219 1.336 . S
C222 C221 1.346 . S
C222 H229 0.929 . S
C223 O213 1.282 . S
C223 O224 1.216 . S
O224 C223 1.216 . S
H225 C220 0.930 . S
H226 C221 0.930 . S
O227 Cu207 1.959 . S
O227 C214 1.251 . S
H228 C211 0.930 . S
H229 C222 0.929 . S
Cu230 N231 1.999 . S
Cu230 O236 1.974 . S
Cu230 N241 1.985 . S
Cu230 O250 1.959 . S
N231 Cu230 1.999 . S
N231 C233 1.263 . S
N231 C235 1.389 . S
N232 C233 1.358 . S
N232 C234 1.400 . S
C233 N231 1.263 . S
C233 N232 1.358 . S
C233 H239 0.930 . S
C234 N232 1.400 . S
C234 C235 1.351 . S
C234 H251 0.930 . S
C235 N231 1.389 . S
C235 C234 1.351 . S
C235 H240 0.930 . S
O236 Cu230 1.974 . S
O236 C246 1.282 . S
C237 O238 1.261 . S
C237 O250 1.251 . S
O238 C237 1.261 . S
H239 C233 0.930 . S
H240 C235 0.930 . S
N241 Cu230 1.985 . S
N241 C243 1.335 . S
N241 C244 1.390 . S
N242 C243 1.345 . S
N242 C245 1.336 . S
C243 N241 1.335 . S
C243 N242 1.345 . S
C243 H248 0.930 . S
C244 N241 1.390 . S
C244 C245 1.346 . S
C244 H249 0.930 . S
C245 N242 1.336 . S
C245 C244 1.346 . S
C245 H252 0.929 . S
C246 O236 1.282 . S
C246 O247 1.216 . S
O247 C246 1.216 . S
H248 C243 0.930 . S
H249 C244 0.930 . S
O250 Cu230 1.959 . S
O250 C237 1.251 . S
H251 C234 0.930 . S
H252 C245 0.929 . S
Cu253 N254 1.999 . S
Cu253 O259 1.974 . S
Cu253 N264 1.985 . S
Cu253 O273 1.959 . S
N254 Cu253 1.999 . S
N254 C256 1.263 . S
N254 C258 1.389 . S
N255 C256 1.358 . S
N255 C257 1.400 . S
C256 N254 1.263 . S
C256 N255 1.358 . S
C256 H262 0.930 . S
C257 N255 1.400 . S
C257 C258 1.351 . S
C257 H274 0.930 . S
C258 N254 1.389 . S
C258 C257 1.351 . S
C258 H263 0.930 . S
O259 Cu253 1.974 . S
O259 C269 1.282 . S
C260 O261 1.261 . S
C260 O273 1.251 . S
O261 C260 1.261 . S
H262 C256 0.930 . S
H263 C258 0.930 . S
N264 Cu253 1.985 . S
N264 C266 1.335 . S
N264 C267 1.390 . S
N265 C266 1.345 . S
N265 C268 1.336 . S
C266 N264 1.335 . S
C266 N265 1.345 . S
C266 H271 0.930 . S
C267 N264 1.390 . S
C267 C268 1.346 . S
C267 H272 0.930 . S
C268 N265 1.336 . S
C268 C267 1.346 . S
C268 H275 0.929 . S
C269 O259 1.282 . S
C269 O270 1.216 . S
O270 C269 1.216 . S
H271 C266 0.930 . S
H272 C267 0.930 . S
O273 Cu253 1.959 . S
O273 C260 1.251 . S
H274 C257 0.930 . S
H275 C268 0.929 . S
H276 C288 0.930 . S
H277 C290 0.930 . S
H278 C291 0.930 . S
H279 C295 0.959 . S
H280 C295 0.959 . S
H281 C295 0.961 . S
H282 C296 0.960 . S
H283 C296 0.961 . S
H284 C296 0.959 . S
H285 C299 0.929 . S
H286 C300 0.931 . S
H287 C302 0.930 . S
C288 H276 0.930 . S
C288 C289 1.399 . S
C288 C293 1.399 . S
C289 C288 1.399 . S
C289 C290 1.376 . S
C290 H277 0.930 . S
C290 C289 1.376 . S
C290 C291 1.388 . S
C291 H278 0.930 . S
C291 C290 1.388 . S
C291 C292 1.390 . S
C292 C291 1.390 . S
C292 C293 1.394 . S
C292 C298 1.465 . S
C293 C288 1.399 . S
C293 C292 1.394 . S
C293 C294 1.516 . S
C294 C293 1.516 . S
C294 C295 1.502 . S
C294 C296 1.561 . S
C294 C297 1.526 . S
C295 H279 0.959 . S
C295 H280 0.959 . S
C295 H281 0.961 . S
C295 C294 1.502 . S
C296 H282 0.960 . S
C296 H283 0.961 . S
C296 H284 0.959 . S
C296 C294 1.561 . S
C297 C294 1.526 . S
C297 C298 1.396 . S
C297 C302 1.390 . S
C298 C292 1.465 . S
C298 C297 1.396 . S
C298 C299 1.399 . S
C299 H285 0.929 . S
C299 C298 1.399 . S
C299 C300 1.385 . S
C300 H286 0.931 . S
C300 C299 1.385 . S
C300 C301 1.389 . S
C301 C300 1.389 . S
C301 C302 1.387 . S
C302 H287 0.930 . S
C302 C297 1.390 . S
C302 C301 1.387 . S
H303 C315 0.930 . S
H304 C317 0.930 . S
H305 C318 0.930 . S
H306 C322 0.959 . S
H307 C322 0.959 . S
H308 C322 0.961 . S
H309 C323 0.960 . S
H310 C323 0.961 . S
H311 C323 0.959 . S
H312 C326 0.929 . S
H313 C327 0.931 . S
H314 C329 0.930 . S
C315 H303 0.930 . S
C315 C316 1.399 . S
C315 C320 1.399 . S
C316 C315 1.399 . S
C316 C317 1.376 . S
C317 H304 0.930 . S
C317 C316 1.376 . S
C317 C318 1.388 . S
C318 H305 0.930 . S
C318 C317 1.388 . S
C318 C319 1.390 . S
C319 C318 1.390 . S
C319 C320 1.394 . S
C319 C325 1.465 . S
C320 C315 1.399 . S
C320 C319 1.394 . S
C320 C321 1.516 . S
C321 C320 1.516 . S
C321 C322 1.502 . S
C321 C323 1.561 . S
C321 C324 1.526 . S
C322 H306 0.959 . S
C322 H307 0.959 . S
C322 H308 0.961 . S
C322 C321 1.502 . S
C323 H309 0.960 . S
C323 H310 0.961 . S
C323 H311 0.959 . S
C323 C321 1.561 . S
C324 C321 1.526 . S
C324 C325 1.396 . S
C324 C329 1.390 . S
C325 C319 1.465 . S
C325 C324 1.396 . S
C325 C326 1.399 . S
C326 H312 0.929 . S
C326 C325 1.399 . S
C326 C327 1.385 . S
C327 H313 0.931 . S
C327 C326 1.385 . S
C327 C328 1.389 . S
C328 C327 1.389 . S
C328 C329 1.387 . S
C329 H314 0.930 . S
C329 C324 1.390 . S
C329 C328 1.387 . S
H330 C342 0.930 . S
H331 C344 0.930 . S
H332 C345 0.930 . S
H333 C349 0.959 . S
H334 C349 0.959 . S
H335 C349 0.961 . S
H336 C350 0.960 . S
H337 C350 0.961 . S
H338 C350 0.959 . S
H339 C353 0.929 . S
H340 C354 0.931 . S
H341 C356 0.930 . S
C342 H330 0.930 . S
C342 C343 1.399 . S
C342 C347 1.399 . S
C343 C342 1.399 . S
C343 C344 1.376 . S
C344 H331 0.930 . S
C344 C343 1.376 . S
C344 C345 1.388 . S
C345 H332 0.930 . S
C345 C344 1.388 . S
C345 C346 1.390 . S
C346 C345 1.390 . S
C346 C347 1.394 . S
C346 C352 1.465 . S
C347 C342 1.399 . S
C347 C346 1.394 . S
C347 C348 1.516 . S
C348 C347 1.516 . S
C348 C349 1.502 . S
C348 C350 1.561 . S
C348 C351 1.526 . S
C349 H333 0.959 . S
C349 H334 0.959 . S
C349 H335 0.961 . S
C349 C348 1.502 . S
C350 H336 0.960 . S
C350 H337 0.961 . S
C350 H338 0.959 . S
C350 C348 1.561 . S
C351 C348 1.526 . S
C351 C352 1.396 . S
C351 C356 1.390 . S
C352 C346 1.465 . S
C352 C351 1.396 . S
C352 C353 1.399 . S
C353 H339 0.929 . S
C353 C352 1.399 . S
C353 C354 1.385 . S
C354 H340 0.931 . S
C354 C353 1.385 . S
C354 C355 1.389 . S
C355 C354 1.389 . S
C355 C356 1.387 . S
C356 H341 0.930 . S
C356 C351 1.390 . S
C356 C355 1.387 . S
H357 C369 0.930 . S
H358 C371 0.930 . S
H359 C372 0.930 . S
H360 C376 0.959 . S
H361 C376 0.959 . S
H362 C376 0.961 . S
H363 C377 0.960 . S
H364 C377 0.961 . S
H365 C377 0.959 . S
H366 C380 0.929 . S
H367 C381 0.931 . S
H368 C383 0.930 . S
C369 H357 0.930 . S
C369 C370 1.399 . S
C369 C374 1.399 . S
C370 C369 1.399 . S
C370 C371 1.376 . S
C371 H358 0.930 . S
C371 C370 1.376 . S
C371 C372 1.388 . S
C372 H359 0.930 . S
C372 C371 1.388 . S
C372 C373 1.390 . S
C373 C372 1.390 . S
C373 C374 1.394 . S
C373 C379 1.465 . S
C374 C369 1.399 . S
C374 C373 1.394 . S
C374 C375 1.516 . S
C375 C374 1.516 . S
C375 C376 1.502 . S
C375 C377 1.561 . S
C375 C378 1.526 . S
C376 H360 0.959 . S
C376 H361 0.959 . S
C376 H362 0.961 . S
C376 C375 1.502 . S
C377 H363 0.960 . S
C377 H364 0.961 . S
C377 H365 0.959 . S
C377 C375 1.561 . S
C378 C375 1.526 . S
C378 C379 1.396 . S
C378 C383 1.390 . S
C379 C373 1.465 . S
C379 C378 1.396 . S
C379 C380 1.399 . S
C380 H366 0.929 . S
C380 C379 1.399 . S
C380 C381 1.385 . S
C381 H367 0.931 . S
C381 C380 1.385 . S
C381 C382 1.389 . S
C382 C381 1.389 . S
C382 C383 1.387 . S
C383 H368 0.930 . S
C383 C378 1.390 . S
C383 C382 1.387 . S
H384 C396 0.930 . S
H385 C398 0.930 . S
H386 C399 0.930 . S
H387 C403 0.959 . S
H388 C403 0.959 . S
H389 C403 0.961 . S
H390 C404 0.960 . S
H391 C404 0.961 . S
H392 C404 0.959 . S
H393 C407 0.929 . S
H394 C408 0.931 . S
H395 C410 0.930 . S
C396 H384 0.930 . S
C396 C397 1.399 . S
C396 C401 1.399 . S
C397 C396 1.399 . S
C397 C398 1.376 . S
C398 H385 0.930 . S
C398 C397 1.376 . S
C398 C399 1.388 . S
C399 H386 0.930 . S
C399 C398 1.388 . S
C399 C400 1.390 1_554 S
C400 C399 1.390 1_556 S
C400 C401 1.394 1_556 S
C400 C406 1.465 . S
C401 C396 1.399 . S
C401 C400 1.394 1_554 S
C401 C402 1.516 1_554 S
C402 C401 1.516 1_556 S
C402 C403 1.502 . S
C402 C404 1.561 . S
C402 C405 1.526 . S
C403 H387 0.959 . S
C403 H388 0.959 . S
C403 H389 0.961 . S
C403 C402 1.502 . S
C404 H390 0.960 . S
C404 H391 0.961 . S
C404 H392 0.959 . S
C404 C402 1.561 . S
C405 C402 1.526 . S
C405 C406 1.396 . S
C405 C410 1.390 . S
C406 C400 1.465 . S
C406 C405 1.396 . S
C406 C407 1.399 . S
C407 H393 0.929 . S
C407 C406 1.399 . S
C407 C408 1.385 . S
C408 H394 0.931 . S
C408 C407 1.385 . S
C408 C409 1.389 . S
C409 C408 1.389 . S
C409 C410 1.387 . S
C410 H395 0.930 . S
C410 C405 1.390 . S
C410 C409 1.387 . S
H411 C423 0.930 . S
H412 C425 0.930 . S
H413 C426 0.930 . S
H414 C430 0.959 . S
H415 C430 0.959 . S
H416 C430 0.961 . S
H417 C431 0.960 . S
H418 C431 0.961 . S
H419 C431 0.959 . S
H420 C434 0.929 . S
H421 C435 0.931 . S
H422 C437 0.930 . S
C423 H411 0.930 . S
C423 C424 1.399 . S
C423 C428 1.399 . S
C424 C423 1.399 . S
C424 C425 1.376 . S
C425 H412 0.930 . S
C425 C424 1.376 . S
C425 C426 1.388 . S
C426 H413 0.930 . S
C426 C425 1.388 . S
C426 C427 1.390 . S
C427 C426 1.390 . S
C427 C428 1.394 . S
C427 C433 1.465 . S
C428 C423 1.399 . S
C428 C427 1.394 . S
C428 C429 1.516 . S
C429 C428 1.516 . S
C429 C430 1.502 . S
C429 C431 1.561 . S
C429 C432 1.526 . S
C430 H414 0.959 . S
C430 H415 0.959 . S
C430 H416 0.961 . S
C430 C429 1.502 . S
C431 H417 0.960 . S
C431 H418 0.961 . S
C431 H419 0.959 . S
C431 C429 1.561 . S
C432 C429 1.526 . S
C432 C433 1.396 . S
C432 C437 1.390 . S
C433 C427 1.465 . S
C433 C432 1.396 . S
C433 C434 1.399 . S
C434 H420 0.929 . S
C434 C433 1.399 . S
C434 C435 1.385 . S
C435 H421 0.931 . S
C435 C434 1.385 . S
C435 C436 1.389 . S
C436 C435 1.389 . S
C436 C437 1.387 . S
C437 H422 0.930 . S
C437 C432 1.390 . S
C437 C436 1.387 . S
H438 C450 0.930 . S
H439 C452 0.930 . S
H440 C453 0.930 . S
H441 C457 0.959 . S
H442 C457 0.959 . S
H443 C457 0.961 . S
H444 C458 0.960 . S
H445 C458 0.961 . S
H446 C458 0.959 . S
H447 C461 0.929 . S
H448 C462 0.931 . S
H449 C464 0.930 . S
C450 H438 0.930 . S
C450 C451 1.399 . S
C450 C455 1.399 . S
C451 C450 1.399 . S
C451 C452 1.376 . S
C452 H439 0.930 . S
C452 C451 1.376 . S
C452 C453 1.388 . S
C453 H440 0.930 . S
C453 C452 1.388 . S
C453 C454 1.390 . S
C454 C453 1.390 . S
C454 C455 1.394 . S
C454 C460 1.465 . S
C455 C450 1.399 . S
C455 C454 1.394 . S
C455 C456 1.516 . S
C456 C455 1.516 . S
C456 C457 1.502 . S
C456 C458 1.561 . S
C456 C459 1.526 . S
C457 H441 0.959 . S
C457 H442 0.959 . S
C457 H443 0.961 . S
C457 C456 1.502 . S
C458 H444 0.960 . S
C458 H445 0.961 . S
C458 H446 0.959 . S
C458 C456 1.561 . S
C459 C456 1.526 . S
C459 C460 1.396 . S
C459 C464 1.390 . S
C460 C454 1.465 . S
C460 C459 1.396 . S
C460 C461 1.399 . S
C461 H447 0.929 . S
C461 C460 1.399 . S
C461 C462 1.385 . S
C462 H448 0.931 . S
C462 C461 1.385 . S
C462 C463 1.389 . S
C463 C462 1.389 . S
C463 C464 1.387 . S
C464 H449 0.930 . S
C464 C459 1.390 . S
C464 C463 1.387 . S
H465 C477 0.930 . S
H466 C479 0.930 . S
H467 C480 0.930 . S
H468 C484 0.959 . S
H469 C484 0.959 . S
H470 C484 0.961 . S
H471 C485 0.960 . S
H472 C485 0.961 . S
H473 C485 0.959 . S
H474 C488 0.929 . S
H475 C489 0.931 . S
H476 C491 0.930 . S
C477 H465 0.930 . S
C477 C478 1.399 . S
C477 C482 1.399 . S
C478 C477 1.399 . S
C478 C479 1.376 . S
C479 H466 0.930 . S
C479 C478 1.376 . S
C479 C480 1.388 . S
C480 H467 0.930 . S
C480 C479 1.388 . S
C480 C481 1.390 . S
C481 C480 1.390 . S
C481 C482 1.394 . S
C481 C487 1.465 . S
C482 C477 1.399 . S
C482 C481 1.394 . S
C482 C483 1.516 . S
C483 C482 1.516 . S
C483 C484 1.502 . S
C483 C485 1.561 . S
C483 C486 1.526 . S
C484 H468 0.959 . S
C484 H469 0.959 . S
C484 H470 0.961 . S
C484 C483 1.502 . S
C485 H471 0.960 . S
C485 H472 0.961 . S
C485 H473 0.959 . S
C485 C483 1.561 . S
C486 C483 1.526 . S
C486 C487 1.396 . S
C486 C491 1.390 . S
C487 C481 1.465 . S
C487 C486 1.396 . S
C487 C488 1.399 . S
C488 H474 0.929 . S
C488 C487 1.399 . S
C488 C489 1.385 . S
C489 H475 0.931 . S
C489 C488 1.385 . S
C489 C490 1.389 . S
C490 C489 1.389 . S
C490 C491 1.387 . S
C491 H476 0.930 . S
C491 C486 1.390 . S
C491 C490 1.387 . S
H492 C504 0.930 . S
H493 C506 0.930 . S
H494 C507 0.930 . S
H495 C511 0.959 . S
H496 C511 0.959 . S
H497 C511 0.961 . S
H498 C512 0.960 . S
H499 C512 0.961 . S
H500 C512 0.959 . S
H501 C515 0.929 . S
H502 C516 0.931 . S
H503 C518 0.930 . S
C504 H492 0.930 . S
C504 C505 1.399 . S
C504 C509 1.399 . S
C505 C504 1.399 . S
C505 C506 1.376 . S
C506 H493 0.930 . S
C506 C505 1.376 . S
C506 C507 1.388 . S
C507 H494 0.930 . S
C507 C506 1.388 . S
C507 C508 1.390 . S
C508 C507 1.390 . S
C508 C509 1.394 . S
C508 C514 1.465 . S
C509 C504 1.399 . S
C509 C508 1.394 . S
C509 C510 1.516 . S
C510 C509 1.516 . S
C510 C511 1.502 . S
C510 C512 1.561 . S
C510 C513 1.526 . S
C511 H495 0.959 . S
C511 H496 0.959 . S
C511 H497 0.961 . S
C511 C510 1.502 . S
C512 H498 0.960 . S
C512 H499 0.961 . S
C512 H500 0.959 . S
C512 C510 1.561 . S
C513 C510 1.526 . S
C513 C514 1.396 . S
C513 C518 1.390 . S
C514 C508 1.465 . S
C514 C513 1.396 . S
C514 C515 1.399 . S
C515 H501 0.929 . S
C515 C514 1.399 . S
C515 C516 1.385 . S
C516 H502 0.931 . S
C516 C515 1.385 . S
C516 C517 1.389 . S
C517 C516 1.389 . S
C517 C518 1.387 . S
C518 H503 0.930 . S
C518 C513 1.390 . S
C518 C517 1.387 . S
H519 C531 0.930 . S
H520 C533 0.930 . S
H521 C534 0.930 . S
H522 C538 0.959 . S
H523 C538 0.959 . S
H524 C538 0.961 . S
H525 C539 0.960 . S
H526 C539 0.961 . S
H527 C539 0.959 . S
H528 C542 0.929 . S
H529 C543 0.931 . S
H530 C545 0.930 . S
C531 H519 0.930 . S
C531 C532 1.399 . S
C531 C536 1.399 . S
C532 C531 1.399 . S
C532 C533 1.376 . S
C533 H520 0.930 . S
C533 C532 1.376 . S
C533 C534 1.388 . S
C534 H521 0.930 . S
C534 C533 1.388 . S
C534 C535 1.390 . S
C535 C534 1.390 . S
C535 C536 1.394 . S
C535 C541 1.465 . S
C536 C531 1.399 . S
C536 C535 1.394 . S
C536 C537 1.516 . S
C537 C536 1.516 . S
C537 C538 1.502 . S
C537 C539 1.561 . S
C537 C540 1.526 . S
C538 H522 0.959 . S
C538 H523 0.959 . S
C538 H524 0.961 . S
C538 C537 1.502 . S
C539 H525 0.960 . S
C539 H526 0.961 . S
C539 H527 0.959 . S
C539 C537 1.561 . S
C540 C537 1.526 . S
C540 C541 1.396 . S
C540 C545 1.390 . S
C541 C535 1.465 . S
C541 C540 1.396 . S
C541 C542 1.399 . S
C542 H528 0.929 . S
C542 C541 1.399 . S
C542 C543 1.385 . S
C543 H529 0.931 . S
C543 C542 1.385 . S
C543 C544 1.389 . S
C544 C543 1.389 . S
C544 C545 1.387 . S
C545 H530 0.930 . S
C545 C540 1.390 . S
C545 C544 1.387 . S
H546 C558 0.930 . S
H547 C560 0.930 . S
H548 C561 0.930 . S
H549 C565 0.959 . S
H550 C565 0.959 . S
H551 C565 0.961 . S
H552 C566 0.960 . S
H553 C566 0.961 . S
H554 C566 0.959 . S
H555 C569 0.929 . S
H556 C570 0.931 . S
H557 C572 0.930 . S
C558 H546 0.930 . S
C558 C559 1.399 . S
C558 C563 1.399 . S
C559 C558 1.399 . S
C559 C560 1.376 . S
C560 H547 0.930 . S
C560 C559 1.376 . S
C560 C561 1.388 . S
C561 H548 0.930 . S
C561 C560 1.388 . S
C561 C562 1.390 . S
C562 C561 1.390 . S
C562 C563 1.394 . S
C562 C568 1.465 . S
C563 C558 1.399 . S
C563 C562 1.394 . S
C563 C564 1.516 . S
C564 C563 1.516 . S
C564 C565 1.502 . S
C564 C566 1.561 . S
C564 C567 1.526 . S
C565 H549 0.959 . S
C565 H550 0.959 . S
C565 H551 0.961 . S
C565 C564 1.502 . S
C566 H552 0.960 . S
C566 H553 0.961 . S
C566 H554 0.959 . S
C566 C564 1.561 . S
C567 C564 1.526 . S
C567 C568 1.396 . S
C567 C572 1.390 . S
C568 C562 1.465 . S
C568 C567 1.396 . S
C568 C569 1.399 . S
C569 H555 0.929 . S
C569 C568 1.399 . S
C569 C570 1.385 . S
C570 H556 0.931 . S
C570 C569 1.385 . S
C570 C571 1.389 . S
C571 C570 1.389 . S
C571 C572 1.387 . S
C572 H557 0.930 . S
C572 C567 1.390 . S
C572 C571 1.387 . S
H573 C585 0.930 . S
H574 C587 0.930 1_554 S
H575 C588 0.930 . S
H576 C592 0.959 . S
H577 C592 0.959 . S
H578 C592 0.961 . S
H579 C593 0.960 . S
H580 C593 0.961 . S
H581 C593 0.959 . S
H582 C596 0.929 . S
H583 C597 0.931 . S
H584 C599 0.930 . S
C585 H573 0.930 . S
C585 C586 1.399 . S
C585 C590 1.399 . S
C586 C585 1.399 . S
C586 C587 1.376 . S
C587 H574 0.930 1_556 S
C587 C586 1.376 . S
C587 C588 1.388 1_556 S
C588 H575 0.930 . S
C588 C587 1.388 1_554 S
C588 C589 1.390 1_554 S
C589 C588 1.390 1_556 S
C589 C590 1.394 . S
C589 C595 1.465 . S
C590 C585 1.399 . S
C590 C589 1.394 . S
C590 C591 1.516 . S
C591 C590 1.516 . S
C591 C592 1.502 . S
C591 C593 1.561 . S
C591 C594 1.526 . S
C592 H576 0.959 . S
C592 H577 0.959 . S
C592 H578 0.961 . S
C592 C591 1.502 . S
C593 H579 0.960 . S
C593 H580 0.961 . S
C593 H581 0.959 . S
C593 C591 1.561 . S
C594 C591 1.526 . S
C594 C595 1.396 . S
C594 C599 1.390 . S
C595 C589 1.465 . S
C595 C594 1.396 . S
C595 C596 1.399 1_556 S
C596 H582 0.929 . S
C596 C595 1.399 1_554 S
C596 C597 1.385 . S
C597 H583 0.931 . S
C597 C596 1.385 . S
C597 C598 1.389 1_554 S
C598 C597 1.389 1_556 S
C598 C599 1.387 . S
C599 H584 0.930 . S
C599 C594 1.390 . S
C599 C598 1.387 . S
H600 C612 0.930 . S
H601 C614 0.930 . S
H602 C615 0.930 . S
H603 C619 0.959 . S
H604 C619 0.959 . S
H605 C619 0.961 . S
H606 C620 0.960 . S
H607 C620 0.961 . S
H608 C620 0.959 . S
H609 C623 0.929 . S
H610 C624 0.931 . S
H611 C626 0.930 . S
C612 H600 0.930 . S
C612 C613 1.399 . S
C612 C617 1.399 . S
C613 C612 1.399 . S
C613 C614 1.376 . S
C614 H601 0.930 . S
C614 C613 1.376 . S
C614 C615 1.388 . S
C615 H602 0.930 . S
C615 C614 1.388 . S
C615 C616 1.390 . S
C616 C615 1.390 . S
C616 C617 1.394 . S
C616 C622 1.465 . S
C617 C612 1.399 . S
C617 C616 1.394 . S
C617 C618 1.516 . S
C618 C617 1.516 . S
C618 C619 1.502 . S
C618 C620 1.561 . S
C618 C621 1.526 . S
C619 H603 0.959 . S
C619 H604 0.959 . S
C619 H605 0.961 . S
C619 C618 1.502 . S
C620 H606 0.960 . S
C620 H607 0.961 . S
C620 H608 0.959 . S
C620 C618 1.561 . S
C621 C618 1.526 . S
C621 C622 1.396 . S
C621 C626 1.390 . S
C622 C616 1.465 . S
C622 C621 1.396 . S
C622 C623 1.399 . S
C623 H609 0.929 . S
C623 C622 1.399 . S
C623 C624 1.385 . S
C624 H610 0.931 . S
C624 C623 1.385 . S
C624 C625 1.389 . S
C625 C624 1.389 . S
C625 C626 1.387 . S
C626 H611 0.930 . S
C626 C621 1.390 . S
C626 C625 1.387 . S
H627 C639 0.930 . S
H628 C641 0.930 . S
H629 C642 0.930 . S
H630 C646 0.959 . S
H631 C646 0.959 . S
H632 C646 0.961 . S
H633 C647 0.960 . S
H634 C647 0.961 . S
H635 C647 0.959 . S
H636 C650 0.929 . S
H637 C651 0.931 . S
H638 C653 0.930 . S
C639 H627 0.930 . S
C639 C640 1.399 . S
C639 C644 1.399 . S
C640 C639 1.399 . S
C640 C641 1.376 . S
C641 H628 0.930 . S
C641 C640 1.376 . S
C641 C642 1.388 . S
C642 H629 0.930 . S
C642 C641 1.388 . S
C642 C643 1.390 . S
C643 C642 1.390 . S
C643 C644 1.394 . S
C643 C649 1.465 . S
C644 C639 1.399 . S
C644 C643 1.394 . S
C644 C645 1.516 . S
C645 C644 1.516 . S
C645 C646 1.502 . S
C645 C647 1.561 . S
C645 C648 1.526 1_556 S
C646 H630 0.959 . S
C646 H631 0.959 . S
C646 H632 0.961 . S
C646 C645 1.502 . S
C647 H633 0.960 . S
C647 H634 0.961 . S
C647 H635 0.959 . S
C647 C645 1.561 . S
C648 C645 1.526 1_554 S
C648 C649 1.396 1_554 S
C648 C653 1.390 . S
C649 C643 1.465 . S
C649 C648 1.396 1_556 S
C649 C650 1.399 1_556 S
C650 H636 0.929 . S
C650 C649 1.399 1_554 S
C650 C651 1.385 . S
C651 H637 0.931 . S
C651 C650 1.385 . S
C651 C652 1.389 . S
C652 C651 1.389 . S
C652 C653 1.387 . S
C653 H638 0.930 . S
C653 C648 1.390 . S
C653 C652 1.387 . S
H654 C666 0.930 . S
H655 C668 0.930 . S
H656 C669 0.930 . S
H657 C673 0.959 . S
H658 C673 0.959 . S
H659 C673 0.961 . S
H660 C674 0.960 . S
H661 C674 0.961 . S
H662 C674 0.959 . S
H663 C677 0.929 . S
H664 C678 0.931 . S
H665 C680 0.930 . S
C666 H654 0.930 . S
C666 C667 1.399 . S
C666 C671 1.399 . S
C667 C666 1.399 . S
C667 C668 1.376 . S
C668 H655 0.930 . S
C668 C667 1.376 . S
C668 C669 1.388 . S
C669 H656 0.930 . S
C669 C668 1.388 . S
C669 C670 1.390 . S
C670 C669 1.390 . S
C670 C671 1.394 . S
C670 C676 1.465 . S
C671 C666 1.399 . S
C671 C670 1.394 . S
C671 C672 1.516 . S
C672 C671 1.516 . S
C672 C673 1.502 . S
C672 C674 1.561 . S
C672 C675 1.526 . S
C673 H657 0.959 . S
C673 H658 0.959 . S
C673 H659 0.961 . S
C673 C672 1.502 . S
C674 H660 0.960 . S
C674 H661 0.961 . S
C674 H662 0.959 . S
C674 C672 1.561 . S
C675 C672 1.526 . S
C675 C676 1.396 . S
C675 C680 1.390 . S
C676 C670 1.465 . S
C676 C675 1.396 . S
C676 C677 1.399 . S
C677 H663 0.929 . S
C677 C676 1.399 . S
C677 C678 1.385 . S
C678 H664 0.931 . S
C678 C677 1.385 . S
C678 C679 1.389 . S
C679 C678 1.389 . S
C679 C680 1.387 . S
C680 H665 0.930 . S
C680 C675 1.390 . S
C680 C679 1.387 . S
H681 C693 0.930 . S
H682 C695 0.930 . S
H683 C696 0.930 . S
H684 C700 0.959 . S
H685 C700 0.959 . S
H686 C700 0.961 . S
H687 C701 0.960 . S
H688 C701 0.961 . S
H689 C701 0.959 . S
H690 C704 0.929 . S
H691 C705 0.931 . S
H692 C707 0.930 . S
C693 H681 0.930 . S
C693 C694 1.399 . S
C693 C698 1.399 . S
C694 C693 1.399 . S
C694 C695 1.376 . S
C695 H682 0.930 . S
C695 C694 1.376 . S
C695 C696 1.388 . S
C696 H683 0.930 . S
C696 C695 1.388 . S
C696 C697 1.390 . S
C697 C696 1.390 . S
C697 C698 1.394 . S
C697 C703 1.465 . S
C698 C693 1.399 . S
C698 C697 1.394 . S
C698 C699 1.516 . S
C699 C698 1.516 . S
C699 C700 1.502 . S
C699 C701 1.561 . S
C699 C702 1.526 . S
C700 H684 0.959 . S
C700 H685 0.959 . S
C700 H686 0.961 . S
C700 C699 1.502 . S
C701 H687 0.960 . S
C701 H688 0.961 . S
C701 H689 0.959 . S
C701 C699 1.561 . S
C702 C699 1.526 . S
C702 C703 1.396 . S
C702 C707 1.390 . S
C703 C697 1.465 . S
C703 C702 1.396 . S
C703 C704 1.399 . S
C704 H690 0.929 . S
C704 C703 1.399 . S
C704 C705 1.385 . S
C705 H691 0.931 . S
C705 C704 1.385 . S
C705 C706 1.389 . S
C706 C705 1.389 . S
C706 C707 1.387 . S
C707 H692 0.930 . S
C707 C702 1.390 . S
C707 C706 1.387 . S
H708 C720 0.930 . S
H709 C722 0.930 . S
H710 C723 0.930 . S
H711 C727 0.959 . S
H712 C727 0.959 . S
H713 C727 0.961 . S
H714 C728 0.960 . S
H715 C728 0.961 . S
H716 C728 0.959 . S
H717 C731 0.929 . S
H718 C732 0.931 . S
H719 C734 0.930 . S
C720 H708 0.930 . S
C720 C721 1.399 . S
C720 C725 1.399 . S
C721 C720 1.399 . S
C721 C722 1.376 . S
C722 H709 0.930 . S
C722 C721 1.376 . S
C722 C723 1.388 . S
C723 H710 0.930 . S
C723 C722 1.388 . S
C723 C724 1.390 . S
C724 C723 1.390 . S
C724 C725 1.394 . S
C724 C730 1.465 . S
C725 C720 1.399 . S
C725 C724 1.394 . S
C725 C726 1.516 . S
C726 C725 1.516 . S
C726 C727 1.502 . S
C726 C728 1.561 . S
C726 C729 1.526 . S
C727 H711 0.959 . S
C727 H712 0.959 . S
C727 H713 0.961 . S
C727 C726 1.502 . S
C728 H714 0.960 . S
C728 H715 0.961 . S
C728 H716 0.959 . S
C728 C726 1.561 . S
C729 C726 1.526 . S
C729 C730 1.396 . S
C729 C734 1.390 . S
C730 C724 1.465 . S
C730 C729 1.396 . S
C730 C731 1.399 . S
C731 H717 0.929 . S
C731 C730 1.399 . S
C731 C732 1.385 . S
C732 H718 0.931 . S
C732 C731 1.385 . S
C732 C733 1.389 . S
C733 C732 1.389 . S
C733 C734 1.387 . S
C734 H719 0.930 . S
C734 C729 1.390 . S
C734 C733 1.387 . S
H735 C747 0.930 . S
H736 C749 0.930 . S
H737 C750 0.930 . S
H738 C754 0.959 . S
H739 C754 0.959 . S
H740 C754 0.961 . S
H741 C755 0.960 . S
H742 C755 0.961 . S
H743 C755 0.959 . S
H744 C758 0.929 . S
H745 C759 0.931 . S
H746 C761 0.930 . S
C747 H735 0.930 . S
C747 C748 1.399 . S
C747 C752 1.399 . S
C748 C747 1.399 . S
C748 C749 1.376 . S
C749 H736 0.930 . S
C749 C748 1.376 . S
C749 C750 1.388 . S
C750 H737 0.930 . S
C750 C749 1.388 . S
C750 C751 1.390 . S
C751 C750 1.390 . S
C751 C752 1.394 . S
C751 C757 1.465 . S
C752 C747 1.399 . S
C752 C751 1.394 . S
C752 C753 1.516 . S
C753 C752 1.516 . S
C753 C754 1.502 . S
C753 C755 1.561 . S
C753 C756 1.526 . S
C754 H738 0.959 . S
C754 H739 0.959 . S
C754 H740 0.961 . S
C754 C753 1.502 . S
C755 H741 0.960 . S
C755 H742 0.961 . S
C755 H743 0.959 . S
C755 C753 1.561 . S
C756 C753 1.526 . S
C756 C757 1.396 . S
C756 C761 1.390 . S
C757 C751 1.465 . S
C757 C756 1.396 . S
C757 C758 1.399 . S
C758 H744 0.929 . S
C758 C757 1.399 . S
C758 C759 1.385 . S
C759 H745 0.931 . S
C759 C758 1.385 . S
C759 C760 1.389 . S
C760 C759 1.389 . S
C760 C761 1.387 . S
C761 H746 0.930 . S
C761 C756 1.390 . S
C761 C760 1.387 . S
H762 C774 0.930 1_556 S
H763 C776 0.930 . S
H764 C777 0.930 . S
H765 C781 0.959 1_554 S
H766 C781 0.959 . S
H767 C781 0.961 1_545 S
H768 C782 0.960 1_545 S
H769 C782 0.961 . S
H770 C782 0.959 . S
H771 C785 0.929 . S
H772 C786 0.931 . S
H773 C788 0.930 . S
C774 H762 0.930 1_554 S
C774 C775 1.399 . S
C774 C779 1.399 . S
C775 C774 1.399 . S
C775 C776 1.376 . S
C776 H763 0.930 . S
C776 C775 1.376 . S
C776 C777 1.388 . S
C777 H764 0.930 . S
C777 C776 1.388 . S
C777 C778 1.390 . S
C778 C777 1.390 . S
C778 C779 1.394 . S
C778 C784 1.465 1_545 S
C779 C774 1.399 . S
C779 C778 1.394 . S
C779 C780 1.516 1_544 S
C780 C779 1.516 1_566 S
C780 C781 1.502 . S
C780 C782 1.561 . S
C780 C783 1.526 1_556 S
C781 H765 0.959 1_556 S
C781 H766 0.959 . S
C781 H767 0.961 1_565 S
C781 C780 1.502 . S
C782 H768 0.960 1_565 S
C782 H769 0.961 . S
C782 H770 0.959 . S
C782 C780 1.561 . S
C783 C780 1.526 1_554 S
C783 C784 1.396 . S
C783 C788 1.390 . S
C784 C778 1.465 1_565 S
C784 C783 1.396 . S
C784 C785 1.399 . S
C785 H771 0.929 . S
C785 C784 1.399 . S
C785 C786 1.385 . S
C786 H772 0.931 . S
C786 C785 1.385 . S
C786 C787 1.389 . S
C787 C786 1.389 . S
C787 C788 1.387 . S
C788 H773 0.930 . S
C788 C783 1.390 . S
C788 C787 1.387 . S
H789 C801 0.930 . S
H790 C803 0.930 . S
H791 C804 0.930 . S
H792 C808 0.959 . S
H793 C808 0.959 . S
H794 C808 0.961 . S
H795 C809 0.960 . S
H796 C809 0.961 . S
H797 C809 0.959 . S
H798 C812 0.929 . S
H799 C813 0.931 . S
H800 C815 0.930 . S
C801 H789 0.930 . S
C801 C802 1.399 . S
C801 C806 1.399 . S
C802 C801 1.399 . S
C802 C803 1.376 . S
C803 H790 0.930 . S
C803 C802 1.376 . S
C803 C804 1.388 . S
C804 H791 0.930 . S
C804 C803 1.388 . S
C804 C805 1.390 . S
C805 C804 1.390 . S
C805 C806 1.394 . S
C805 C811 1.465 . S
C806 C801 1.399 . S
C806 C805 1.394 . S
C806 C807 1.516 . S
C807 C806 1.516 . S
C807 C808 1.502 . S
C807 C809 1.561 . S
C807 C810 1.526 . S
C808 H792 0.959 . S
C808 H793 0.959 . S
C808 H794 0.961 . S
C808 C807 1.502 . S
C809 H795 0.960 . S
C809 H796 0.961 . S
C809 H797 0.959 . S
C809 C807 1.561 . S
C810 C807 1.526 . S
C810 C811 1.396 . S
C810 C815 1.390 . S
C811 C805 1.465 . S
C811 C810 1.396 . S
C811 C812 1.399 . S
C812 H798 0.929 . S
C812 C811 1.399 . S
C812 C813 1.385 . S
C813 H799 0.931 . S
C813 C812 1.385 . S
C813 C814 1.389 . S
C814 C813 1.389 . S
C814 C815 1.387 . S
C815 H800 0.930 . S
C815 C810 1.390 . S
C815 C814 1.387 . S
H816 C828 0.930 . S
H817 C830 0.930 . S
H818 C831 0.930 . S
H819 C835 0.959 . S
H820 C835 0.959 1_655 S
H821 C835 0.961 . S
H822 C836 0.960 . S
H823 C836 0.961 1_655 S
H824 C836 0.959 . S
H825 C839 0.929 . S
H826 C840 0.931 . S
H827 C842 0.930 . S
C828 H816 0.930 . S
C828 C829 1.399 . S
C828 C833 1.399 . S
C829 C828 1.399 . S
C829 C830 1.376 . S
C830 H817 0.930 . S
C830 C829 1.376 . S
C830 C831 1.388 . S
C831 H818 0.930 . S
C831 C830 1.388 . S
C831 C832 1.390 . S
C832 C831 1.390 . S
C832 C833 1.394 . S
C832 C838 1.465 1_455 S
C833 C828 1.399 . S
C833 C832 1.394 . S
C833 C834 1.516 . S
C834 C833 1.516 . S
C834 C835 1.502 . S
C834 C836 1.561 . S
C834 C837 1.526 1_455 S
C835 H819 0.959 . S
C835 H820 0.959 1_455 S
C835 H821 0.961 . S
C835 C834 1.502 . S
C836 H822 0.960 . S
C836 H823 0.961 1_455 S
C836 H824 0.959 . S
C836 C834 1.561 . S
C837 C834 1.526 1_655 S
C837 C838 1.396 . S
C837 C842 1.390 . S
C838 C832 1.465 1_655 S
C838 C837 1.396 . S
C838 C839 1.399 . S
C839 H825 0.929 . S
C839 C838 1.399 . S
C839 C840 1.385 . S
C840 H826 0.931 . S
C840 C839 1.385 . S
C840 C841 1.389 . S
C841 C840 1.389 . S
C841 C842 1.387 . S
C842 H827 0.930 . S
C842 C837 1.390 . S
C842 C841 1.387 . S
H843 C855 0.930 . S
H844 C857 0.930 . S
H845 C858 0.930 . S
H846 C862 0.959 . S
H847 C862 0.959 1_545 S
H848 C862 0.961 . S
H849 C863 0.976 . S
H850 C863 0.955 1_545 S
H851 C863 0.956 1_545 S
H852 C866 0.929 . S
H853 C867 0.931 . S
H854 C869 0.930 . S
C855 H843 0.930 . S
C855 C856 1.399 . S
C855 C860 1.399 . S
C856 C855 1.399 . S
C856 C857 1.376 . S
C857 H844 0.930 . S
C857 C856 1.376 . S
C857 C858 1.388 . S
C858 H845 0.930 . S
C858 C857 1.388 . S
C858 C859 1.390 . S
C859 C858 1.390 . S
C859 C860 1.394 . S
C859 C865 1.465 1_565 S
C860 C855 1.399 . S
C860 C859 1.394 . S
C860 C861 1.516 . S
C861 C860 1.516 . S
C861 C862 1.502 . S
C861 C863 1.554 . S
C861 C864 1.526 1_565 S
C862 H846 0.959 . S
C862 H847 0.959 1_565 S
C862 H848 0.961 . S
C862 C861 1.502 . S
C863 H849 0.976 . S
C863 H850 0.955 1_565 S
C863 H851 0.956 1_565 S
C863 C861 1.554 . S
C864 C861 1.526 1_545 S
C864 C865 1.396 . S
C864 C869 1.390 . S
C865 C859 1.465 1_545 S
C865 C864 1.396 . S
C865 C866 1.399 . S
C866 H852 0.929 . S
C866 C865 1.399 . S
C866 C867 1.385 . S
C867 H853 0.931 . S
C867 C866 1.385 . S
C867 C868 1.389 . S
C868 C867 1.389 . S
C868 C869 1.387 . S
C869 H854 0.930 . S
C869 C864 1.390 . S
C869 C868 1.387 . S
H870 C882 0.930 . S
H871 C884 0.930 . S
H872 C885 0.930 . S
H873 C889 0.959 . S
H874 C889 0.959 . S
H875 C889 0.961 . S
H876 C890 0.960 . S
H877 C890 0.961 . S
H878 C890 0.959 . S
H879 C893 0.929 . S
H880 C894 0.931 . S
H881 C896 0.930 . S
C882 H870 0.930 . S
C882 C883 1.399 . S
C882 C887 1.399 . S
C883 C882 1.399 . S
C883 C884 1.376 . S
C884 H871 0.930 . S
C884 C883 1.376 . S
C884 C885 1.388 . S
C885 H872 0.930 . S
C885 C884 1.388 . S
C885 C886 1.390 . S
C886 C885 1.390 . S
C886 C887 1.394 . S
C886 C892 1.465 . S
C887 C882 1.399 . S
C887 C886 1.394 . S
C887 C888 1.516 . S
C888 C887 1.516 . S
C888 C889 1.502 . S
C888 C890 1.561 . S
C888 C891 1.526 . S
C889 H873 0.959 . S
C889 H874 0.959 . S
C889 H875 0.961 . S
C889 C888 1.502 . S
C890 H876 0.960 . S
C890 H877 0.961 . S
C890 H878 0.959 . S
C890 C888 1.561 . S
C891 C888 1.526 . S
C891 C892 1.396 . S
C891 C896 1.390 . S
C892 C886 1.465 . S
C892 C891 1.396 . S
C892 C893 1.399 . S
C893 H879 0.929 . S
C893 C892 1.399 . S
C893 C894 1.385 . S
C894 H880 0.931 . S
C894 C893 1.385 . S
C894 C895 1.389 . S
C895 C894 1.389 . S
C895 C896 1.387 . S
C896 H881 0.930 . S
C896 C891 1.390 . S
C896 C895 1.387 . S
H897 C909 0.930 . S
H898 C911 0.930 . S
H899 C912 0.930 . S
H900 C916 0.948 . S
H901 C916 0.959 1_655 S
H902 C916 0.961 . S
H903 C917 0.960 . S
H904 C917 0.961 1_655 S
H905 C917 0.959 . S
H906 C920 0.929 . S
H907 C921 0.931 . S
H908 C923 0.930 . S
C909 H897 0.930 . S
C909 C910 1.399 . S
C909 C914 1.399 . S
C910 C909 1.399 . S
C910 C911 1.376 . S
C911 H898 0.930 . S
C911 C910 1.376 . S
C911 C912 1.388 . S
C912 H899 0.930 . S
C912 C911 1.388 . S
C912 C913 1.390 . S
C913 C912 1.390 . S
C913 C914 1.394 . S
C913 C919 1.465 1_455 S
C914 C909 1.399 . S
C914 C913 1.394 . S
C914 C915 1.516 . S
C915 C914 1.516 . S
C915 C916 1.502 . S
C915 C917 1.561 . S
C915 C918 1.526 1_455 S
C916 H900 0.948 . S
C916 H901 0.959 1_455 S
C916 H902 0.961 . S
C916 C915 1.502 . S
C917 H903 0.960 . S
C917 H904 0.961 1_455 S
C917 H905 0.959 . S
C917 C915 1.561 . S
C918 C915 1.526 1_655 S
C918 C919 1.396 . S
C918 C923 1.390 . S
C919 C913 1.465 1_655 S
C919 C918 1.396 . S
C919 C920 1.399 . S
C920 H906 0.929 . S
C920 C919 1.399 . S
C920 C921 1.385 . S
C921 H907 0.931 . S
C921 C920 1.385 . S
C921 C922 1.389 . S
C922 C921 1.389 . S
C922 C923 1.387 . S
C923 H908 0.930 . S
C923 C918 1.390 . S
C923 C922 1.387 . S
C289 C7 1.105 . S
C301 C237 1.112 . S
C316 C30 1.118 . S
C328 C260 1.110 . S
C343 C145 1.115 . S
C355 C53 1.124 . S
C370 C76 1.122 . S
C382 C168 1.114 . S
C397 C191 1.129 . S
C409 C99 1.132 . S
C424 C214 1.119 . S
C436 C122 1.111 1_554 S
C451 N196 1.713 . S
C463 N12 1.732 . S
C478 N35 1.711 . S
C490 N219 1.734 . S
C505 N242 1.744 . S
C517 N58 1.735 . S
C532 N81 1.735 . S
C544 N265 1.712 . S
C559 N104 1.744 . S
C571 N150 1.735 . S
C586 N127 1.749 . S
C598 N173 1.708 1_556 S
C613 C246 1.906 . S
C625 C16 1.897 . S
C640 C269 1.905 . S
C652 C39 1.918 . S
C667 C154 1.896 1_554 S
C679 C62 1.902 . S
C694 C85 1.903 . S
C706 C177 1.896 . S
C721 C108 1.918 . S
C733 C200 1.906 . S
C748 C223 1.922 . S
C760 C131 1.917 . S
C775 N2 1.696 . S
C787 N163 1.740 . S
C802 N186 1.701 . S
C814 N25 1.650 . S
C829 N209 1.704 . S
C841 N48 1.651 . S
C856 N71 1.739 . S
C868 N232 1.691 . S
C883 N94 1.688 . S
C895 N255 1.647 . S
C910 N117 1.701 . S
C922 N140 1.650 . S
