# Generated by pormake.
# Topology zfr, (5)-cn, num edge types: 1
# Building blocks:
#     Node 0, Type 0, BuildingBlock: BEQFEK_clean_sbu_0, # of connection points: 5
#     Node 1, Type 0, BuildingBlock: BEQFEK_clean_sbu_0, # of connection points: 5
#     Node 2, Type 0, BuildingBlock: BEQFEK_clean_sbu_0, # of connection points: 5
#     Node 3, Type 0, BuildingBlock: BEQFEK_clean_sbu_0, # of connection points: 5
#     Node 4, Type 0, BuildingBlock: BEQFEK_clean_sbu_0, # of connection points: 5
#     Node 5, Type 0, BuildingBlock: BEQFEK_clean_sbu_0, # of connection points: 5
#     Node 6, Type 0, BuildingBlock: BEQFEK_clean_sbu_0, # of connection points: 5
#     Node 7, Type 0, BuildingBlock: BEQFEK_clean_sbu_0, # of connection points: 5
#     Edge 8, Type (0, 0), BuildingBlock: AJUNOK_clean_linker_0, # of connection points: 2
#     Edge 9, Type (0, 0), BuildingBlock: AJUNOK_clean_linker_0, # of connection points: 2
#     Edge 10, Type (0, 0), BuildingBlock: AJUNOK_clean_linker_0, # of connection points: 2
#     Edge 11, Type (0, 0), BuildingBlock: AJUNOK_clean_linker_0, # of connection points: 2
#     Edge 12, Type (0, 0), BuildingBlock: AJUNOK_clean_linker_0, # of connection points: 2
#     Edge 13, Type (0, 0), BuildingBlock: AJUNOK_clean_linker_0, # of connection points: 2
#     Edge 14, Type (0, 0), BuildingBlock: AJUNOK_clean_linker_0, # of connection points: 2
#     Edge 15, Type (0, 0), BuildingBlock: AJUNOK_clean_linker_0, # of connection points: 2
#     Edge 16, Type (0, 0), BuildingBlock: AJUNOK_clean_linker_0, # of connection points: 2
#     Edge 17, Type (0, 0), BuildingBlock: AJUNOK_clean_linker_0, # of connection points: 2
#     Edge 18, Type (0, 0), BuildingBlock: AJUNOK_clean_linker_0, # of connection points: 2
#     Edge 19, Type (0, 0), BuildingBlock: AJUNOK_clean_linker_0, # of connection points: 2
#     Edge 20, Type (0, 0), BuildingBlock: AJUNOK_clean_linker_0, # of connection points: 2
#     Edge 21, Type (0, 0), BuildingBlock: AJUNOK_clean_linker_0, # of connection points: 2
#     Edge 22, Type (0, 0), BuildingBlock: AJUNOK_clean_linker_0, # of connection points: 2
#     Edge 23, Type (0, 0), BuildingBlock: AJUNOK_clean_linker_0, # of connection points: 2
#     Edge 24, Type (0, 0), BuildingBlock: AJUNOK_clean_linker_0, # of connection points: 2
#     Edge 25, Type (0, 0), BuildingBlock: AJUNOK_clean_linker_0, # of connection points: 2
#     Edge 26, Type (0, 0), BuildingBlock: AJUNOK_clean_linker_0, # of connection points: 2
#     Edge 27, Type (0, 0), BuildingBlock: AJUNOK_clean_linker_0, # of connection points: 2
# Relax obj value: 0.318
# Max RMSD: 0.247
# Mean RMSD: 0.247
data_MOF--net-zfr--node1-BEQFEK_clean_sbu_0--edge1-AJUNOK_clean_linker_0
_symmetry_space_group_name_H-M    P1
_symmetry_Int_Tables_number       1
_symmetry_cell_setting            triclinic
loop_
_symmetry_equiv_pos_as_xyz
'x, y, z'
_cell_length_a     37.366689
_cell_length_b     37.390851
_cell_length_c     14.50673
_cell_angle_alpha  90.040768
_cell_angle_beta   89.928872
_cell_angle_gamma 89.963763
loop_
_atom_site_label
_atom_site_type_symbol
_atom_site_fract_x
_atom_site_fract_y
_atom_site_fract_z
_atom_type_partial_charge
Co0 Co 0.14704 0.36282 0.10619 0.0
Co1 Co 0.10261 0.35824 0.28612 0.0
C2 C 0.14122 0.42636 0.21901 0.0
O3 O 0.15665 0.41192 0.15023 0.0
O4 O 0.12013 0.40838 0.27 0.0
C5 C 0.15974 0.37921 0.92639 0.0
O6 O 0.15 0.41041 0.95967 0.0
C7 C 0.11492 0.36536 0.47898 0.0
C8 C 0.06612 0.34477 0.54629 0.0
C9 C 0.10014 0.358 0.56385 0.0
N10 N 0.09106 0.35673 0.41348 0.0
N11 N 0.06167 0.3448 0.45389 0.0
C12 C 0.15304 0.37568 0.4605 0.0
H13 H 0.15791 0.40328 0.48511 0.0
H14 H 0.15955 0.37409 0.38616 0.0
H15 H 0.17132 0.35788 0.49964 0.0
C16 C 0.18837 0.30485 0.20059 0.0
N17 N 0.16068 0.32783 0.19361 0.0
N18 N 0.13943 0.3236 0.26506 0.0
C19 C 0.15207 0.29666 0.31772 0.0
C20 C 0.18398 0.28445 0.28007 0.0
C21 C 0.21838 0.30282 0.13252 0.0
H22 H 0.20732 0.30138 0.06168 0.0
H23 H 0.2346 0.3276 0.13724 0.0
H24 H 0.23574 0.27925 0.14544 0.0
O25 O 0.0952 0.35861 0.07853 0.0
O26 O 0.06103 0.35082 0.20136 0.0
H27 H 0.10572 0.28944 0.40402 0.0
H28 H 0.1383 0.25445 0.41306 0.0
C29 C 0.13476 0.28365 0.40469 0.0
H30 H 0.14747 0.29672 0.46491 0.0
H31 H 0.03915 0.33562 0.41859 0.0
O32 O 0.16701 0.3542 0.9826 0.0
C33 C 0.06447 0.35378 0.11412 0.0
Co34 Co 0.64072 0.14472 0.36505 0.0
Co35 Co 0.646 0.1014 0.54645 0.0
C36 C 0.57689 0.13696 0.47776 0.0
O37 O 0.5914 0.15284 0.40987 0.0
O38 O 0.59519 0.11647 0.52948 0.0
C39 C 0.62286 0.15295 0.18718 0.0
O40 O 0.59325 0.14072 0.22438 0.0
C41 C 0.63632 0.10905 0.74087 0.0
C42 C 0.66388 0.06251 0.80185 0.0
C43 C 0.64591 0.09387 0.82379 0.0
N44 N 0.64823 0.088 0.67243 0.0
N45 N 0.66422 0.05983 0.70902 0.0
C46 C 0.6209 0.14569 0.72709 0.0
H47 H 0.59189 0.14521 0.74278 0.0
H48 H 0.62491 0.15502 0.65536 0.0
H49 H 0.63351 0.16496 0.77541 0.0
C50 C 0.69844 0.18741 0.45693 0.0
N51 N 0.67533 0.15977 0.4524 0.0
N52 N 0.67881 0.14002 0.52692 0.0
C53 C 0.70503 0.15391 0.57998 0.0
C54 C 0.71812 0.18457 0.53794 0.0
C55 C 0.70131 0.21592 0.38513 0.0
H56 H 0.70295 0.20341 0.31586 0.0
H57 H 0.67674 0.23259 0.38689 0.0
H58 H 0.72506 0.23316 0.39672 0.0
O59 O 0.6471 0.09334 0.33675 0.0
O60 O 0.65601 0.06067 0.46145 0.0
H61 H 0.7154 0.10973 0.67074 0.0
H62 H 0.74311 0.14817 0.69222 0.0
C63 C 0.71601 0.13933 0.67194 0.0
H64 H 0.69738 0.14928 0.72549 0.0
H65 H 0.67658 0.03963 0.67083 0.0
O66 O 0.64757 0.16404 0.24022 0.0
C67 C 0.65355 0.06331 0.37407 0.0
Co68 Co 0.8542 0.64132 0.60331 0.0
Co69 Co 0.89972 0.64698 0.78162 0.0
C70 C 0.86417 0.57783 0.71169 0.0
O71 O 0.84562 0.59194 0.64793 0.0
O72 O 0.88551 0.59643 0.76027 0.0
C73 C 0.84249 0.62434 0.42294 0.0
O74 O 0.85315 0.59357 0.45686 0.0
C75 C 0.88936 0.63579 0.97426 0.0
C76 C 0.93397 0.6641 0.0419 0.0
C77 C 0.90224 0.64601 0.05949 0.0
N78 N 0.9119 0.64775 0.909 0.0
N79 N 0.93898 0.66408 0.94969 0.0
C80 C 0.85371 0.61918 0.95416 0.0
H81 H 0.84419 0.62683 0.88463 0.0
H82 H 0.83352 0.62736 0.00626 0.0
H83 H 0.85645 0.58965 0.95643 0.0
C84 C 0.81173 0.6982 0.70062 0.0
N85 N 0.83993 0.67586 0.69204 0.0
N86 N 0.86097 0.67982 0.76394 0.0
C87 C 0.84751 0.7057 0.81889 0.0
C88 C 0.8155 0.71777 0.7818 0.0
C89 C 0.78183 0.70043 0.6325 0.0
H90 H 0.7929 0.70097 0.56151 0.0
H91 H 0.76495 0.67614 0.63874 0.0
H92 H 0.76506 0.72451 0.64447 0.0
O93 O 0.90615 0.64661 0.5745 0.0
O94 O 0.94025 0.65697 0.69607 0.0
H95 H 0.89341 0.7153 0.90428 0.0
H96 H 0.85691 0.74521 0.92592 0.0
C97 C 0.86391 0.71731 0.90824 0.0
H98 H 0.85372 0.70013 0.96464 0.0
H99 H 0.95975 0.67684 0.91458 0.0
O100 O 0.8343 0.64927 0.47884 0.0
C101 C 0.93675 0.65302 0.60912 0.0
Co102 Co 0.36307 0.85631 0.84551 0.0
Co103 Co 0.35582 0.89796 0.02944 0.0
C104 C 0.4255 0.86257 0.9649 0.0
O105 O 0.41198 0.84858 0.89316 0.0
O106 O 0.40677 0.88197 0.01861 0.0
C107 C 0.38306 0.85368 0.67188 0.0
O108 O 0.41092 0.86621 0.71639 0.0
C109 C 0.35733 0.88921 0.22581 0.0
C110 C 0.34196 0.94217 0.2804 0.0
C111 C 0.35163 0.90782 0.30666 0.0
N112 N 0.35082 0.91119 0.15471 0.0
N113 N 0.34151 0.94285 0.18746 0.0
C114 C 0.3708 0.85162 0.21617 0.0
H115 H 0.39515 0.84798 0.2589 0.0
H116 H 0.37664 0.845 0.14327 0.0
H117 H 0.35042 0.83256 0.24183 0.0
C118 C 0.30622 0.81133 0.93667 0.0
N119 N 0.32802 0.84003 0.931 0.0
N120 N 0.32265 0.86049 0.0036 0.0
C121 C 0.29572 0.84672 0.0543 0.0
C122 C 0.28511 0.81469 0.0153 0.0
C123 C 0.30645 0.7809 0.86989 0.0
H124 H 0.31095 0.79101 0.79894 0.0
H125 H 0.32887 0.76266 0.88736 0.0
H126 H 0.28099 0.76567 0.87334 0.0
O127 O 0.35621 0.90814 0.8188 0.0
O128 O 0.34855 0.93929 0.94678 0.0
H129 H 0.2851 0.89291 0.13918 0.0
H130 H 0.2506 0.85947 0.14075 0.0
C131 C 0.27994 0.86376 0.13855 0.0
H132 H 0.29129 0.85118 0.20115 0.0
H133 H 0.33534 0.96496 0.14656 0.0
O134 O 0.35845 0.83841 0.71815 0.0
C135 C 0.35068 0.93775 0.85928 0.0
Co136 Co 0.14388 0.64678 0.38369 0.0
Co137 Co 0.10315 0.64533 0.19521 0.0
C138 C 0.1401 0.57995 0.27251 0.0
O139 O 0.15145 0.59627 0.34388 0.0
O140 O 0.1215 0.59586 0.21156 0.0
C141 C 0.16015 0.63162 0.56284 0.0
O142 O 0.15476 0.59909 0.53178 0.0
C143 C 0.09398 0.6306 -0.00042 0.0
C144 C 0.07553 0.68308 0.95045 0.0
C145 C 0.09076 0.65127 0.91957 0.0
N146 N 0.08478 0.65073 0.0727 0.0
N147 N 0.07184 0.68135 0.04248 0.0
C148 C 0.1034 0.59187 0.00831 0.0
H149 H 0.08984 0.58019 0.06918 0.0
H150 H 0.13276 0.58903 0.01699 0.0
H151 H 0.09422 0.57665 0.94709 0.0
C152 C 0.18655 0.70242 0.28689 0.0
N153 N 0.15885 0.67932 0.29144 0.0
N154 N 0.14252 0.67823 0.21105 0.0
C155 C 0.16018 0.70007 0.15227 0.0
C156 C 0.18812 0.71647 0.19839 0.0
C157 C 0.21122 0.71012 0.36546 0.0
H158 H 0.1953 0.71594 0.42832 0.0
H159 H 0.22766 0.68601 0.37961 0.0
H160 H 0.22908 0.73306 0.35004 0.0
O161 O 0.09314 0.65304 0.41487 0.0
O162 O 0.06274 0.6534 0.2845 0.0
H163 H 0.13114 0.71926 0.03595 0.0
H164 H 0.17788 0.7129 0.01377 0.0
C165 C 0.15434 0.70173 0.05043 0.0
H166 H 0.14972 0.67453 0.02339 0.0
H167 H 0.06425 0.70253 0.08513 0.0
O168 O 0.16504 0.65662 0.50502 0.0
C169 C 0.06365 0.65515 0.37223 0.0
Co170 Co 0.35838 0.14745 0.63822 0.0
Co171 Co 0.35579 0.1044 0.45523 0.0
C172 C 0.4229 0.1421 0.5272 0.0
O173 O 0.40743 0.157 0.59505 0.0
O174 O 0.40611 0.12123 0.47325 0.0
C175 C 0.37726 0.16018 0.81536 0.0
O176 O 0.40749 0.15031 0.77687 0.0
C177 C 0.36656 0.11451 0.2635 0.0
C178 C 0.33983 0.06891 0.19576 0.0
C179 C 0.35766 0.10075 0.17845 0.0
N180 N 0.35456 0.09211 0.32868 0.0
N181 N 0.33904 0.06451 0.28815 0.0
C182 C 0.38203 0.1507 0.2832 0.0
H183 H 0.37211 0.16112 0.35004 0.0
H184 H 0.37534 0.16996 0.22763 0.0
H185 H 0.41154 0.14835 0.28742 0.0
C186 C 0.30069 0.18907 0.54424 0.0
N187 N 0.3239 0.16155 0.55014 0.0
N188 N 0.3212 0.14167 0.4756 0.0
C189 C 0.29521 0.1553 0.42129 0.0
C190 C 0.28179 0.18614 0.46197 0.0
C191 C 0.29721 0.21771 0.61567 0.0
H192 H 0.29598 0.2054 0.68516 0.0
H193 H 0.32133 0.23498 0.61337 0.0
H194 H 0.27301 0.23433 0.60401 0.0
O195 O 0.35454 0.09565 0.66367 0.0
O196 O 0.34805 0.06253 0.53867 0.0
H197 H 0.28703 0.11089 0.32983 0.0
H198 H 0.25709 0.14761 0.31037 0.0
C199 C 0.28483 0.1404 0.32924 0.0
H200 H 0.30269 0.15157 0.27549 0.0
H201 H 0.32657 0.04361 0.32335 0.0
O202 O 0.35071 0.16683 0.76331 0.0
C203 C 0.35044 0.06523 0.62613 0.0
Co204 Co 0.85789 0.36082 0.88119 0.0
Co205 Co 0.90138 0.35575 0.69937 0.0
C206 C 0.8659 0.42443 0.76899 0.0
O207 O 0.84885 0.4101 0.83524 0.0
O208 O 0.8869 0.40627 0.7183 0.0
C209 C 0.84927 0.37872 0.0591 0.0
O210 O 0.86115 0.40847 0.02195 0.0
C211 C 0.89486 0.36699 0.50556 0.0
C212 C 0.93921 0.33614 0.44376 0.0
C213 C 0.90903 0.3561 0.42213 0.0
N214 N 0.91521 0.35371 0.57353 0.0
N215 N 0.94218 0.33585 0.53648 0.0
C216 C 0.85971 0.38538 0.52132 0.0
H217 H 0.84802 0.37724 0.58838 0.0
H218 H 0.84046 0.3791 0.46543 0.0
H219 H 0.86411 0.41472 0.52262 0.0
C220 C 0.81562 0.30283 0.78945 0.0
N221 N 0.84326 0.32596 0.794 0.0
N222 N 0.86269 0.32295 0.71865 0.0
C223 C 0.84846 0.29718 0.66471 0.0
C224 C 0.81806 0.28371 0.70739 0.0
C225 C 0.78729 0.29967 0.8618 0.0
H226 H 0.79993 0.29844 0.93089 0.0
H227 H 0.77015 0.32391 0.85992 0.0
H228 H 0.77042 0.27562 0.85077 0.0
O229 O 0.90965 0.35527 0.91051 0.0
O230 O 0.94189 0.34661 0.78435 0.0
H231 H 0.89167 0.28626 0.57125 0.0
H232 H 0.85151 0.26153 0.54628 0.0
C233 C 0.86207 0.28747 0.57073 0.0
H234 H 0.8532 0.30795 0.52069 0.0
H235 H 0.96148 0.32203 0.57431 0.0
O236 O 0.83843 0.35392 0.00598 0.0
C237 C 0.93959 0.34936 0.87175 0.0
Co238 Co 0.64271 0.85755 0.14362 0.0
Co239 Co 0.64725 0.9001 0.96067 0.0
C240 C 0.57871 0.86402 0.02832 0.0
O241 O 0.5936 0.84939 0.09729 0.0
O242 O 0.59631 0.8842 0.97416 0.0
C243 C 0.62261 0.8559 0.31636 0.0
O244 O 0.59547 0.86866 0.26963 0.0
C245 C 0.64211 0.89218 0.76531 0.0
C246 C 0.66137 0.94356 0.70908 0.0
C247 C 0.64905 0.90994 0.68412 0.0
N248 N 0.65064 0.9138 0.83568 0.0
N249 N 0.66208 0.9446 0.80203 0.0
C250 C 0.62619 0.85565 0.77623 0.0
H251 H 0.62733 0.84671 0.84897 0.0
H252 H 0.64057 0.83598 0.73266 0.0
H253 H 0.59792 0.85625 0.75297 0.0
C254 C 0.69963 0.81369 0.05002 0.0
N255 N 0.6772 0.84188 0.05637 0.0
N256 N 0.68085 0.86195 0.98238 0.0
C257 C 0.707 0.84806 0.92887 0.0
C258 C 0.71917 0.81656 0.96852 0.0
C259 C 0.7018 0.78451 0.12017 0.0
H260 H 0.70007 0.79607 0.19051 0.0
H261 H 0.67866 0.76627 0.11107 0.0
H262 H 0.72696 0.76896 0.11252 0.0
O263 O 0.65016 0.90901 0.16955 0.0
O264 O 0.65589 0.94163 0.04373 0.0
H265 H 0.71539 0.89317 0.83924 0.0
H266 H 0.74807 0.85859 0.8269 0.0
C267 C 0.71935 0.86385 0.83937 0.0
H268 H 0.70435 0.85147 0.7818 0.0
H269 H 0.67042 0.96618 0.84228 0.0
O270 O 0.64758 0.84024 0.27196 0.0
C271 C 0.65549 0.93901 0.13121 0.0
C272 C 0.22228 0.20122 0.39311 0.0
C273 C 0.25679 0.21214 0.41939 0.0
C274 C 0.19928 0.22439 0.34546 0.0
C275 C 0.2097 0.25954 0.32409 0.0
H276 H 0.21311 0.17443 0.40882 0.0
H277 H 0.17316 0.21469 0.32506 0.0
S278 S 0.29695 0.3014 0.37952 0.0
N279 N 0.30039 0.26026 0.42006 0.0
N280 N 0.25647 0.30443 0.3345 0.0
C281 C 0.24396 0.27092 0.35092 0.0
C282 C 0.26758 0.24715 0.39822 0.0
C283 C 0.75727 0.26826 0.64673 0.0
C284 C 0.79242 0.25765 0.66801 0.0
C285 C 0.73357 0.24479 0.60202 0.0
C286 C 0.74436 0.21005 0.57713 0.0
H287 H 0.74824 0.29501 0.66368 0.0
H288 H 0.70652 0.25366 0.58789 0.0
S289 S 0.83353 0.16959 0.61719 0.0
N290 N 0.83651 0.20996 0.6629 0.0
N291 N 0.79266 0.1666 0.57463 0.0
C292 C 0.77949 0.19934 0.59728 0.0
C293 C 0.80332 0.22292 0.64412 0.0
C294 C 0.80098 0.77751 0.85012 0.0
C295 C 0.78989 0.74281 0.82619 0.0
C296 C 0.77854 0.80057 0.89996 0.0
C297 C 0.74374 0.79022 0.92524 0.0
H298 H 0.82738 0.78683 0.83071 0.0
H299 H 0.78845 0.82684 0.9183 0.0
S300 S 0.70157 0.70242 0.87787 0.0
N301 N 0.74207 0.69894 0.83284 0.0
N302 N 0.699 0.74315 0.92168 0.0
C303 C 0.73216 0.75572 0.9011 0.0
C304 C 0.75532 0.73193 0.85197 0.0
C305 C 0.20111 0.7731 0.11441 0.0
C306 C 0.21401 0.7419 0.15721 0.0
C307 C 0.22414 0.79601 0.06608 0.0
C308 C 0.26079 0.78832 0.05819 0.0
H309 H 0.17289 0.77966 0.11776 0.0
H310 H 0.21326 0.81999 0.03494 0.0
S311 S 0.30784 0.70988 0.15622 0.0
N312 N 0.26564 0.70422 0.18722 0.0
N313 N 0.30909 0.74763 0.09713 0.0
C314 C 0.27405 0.75723 0.1003 0.0
C315 C 0.25062 0.73395 0.14991 0.0
C316 C 0.13368 0.39435 0.67859 0.0
C317 C 0.118 0.3616 0.65386 0.0
C318 C 0.14955 0.39901 0.76509 0.0
C319 C 0.15064 0.37096 0.82957 0.0
H320 H 0.13231 0.41704 0.63236 0.0
H321 H 0.15976 0.42522 0.783 0.0
S322 S 0.11489 0.27924 0.79509 0.0
N323 N 0.10574 0.30024 0.69781 0.0
N324 N 0.1358 0.30865 0.86071 0.0
C325 C 0.13642 0.33751 0.80382 0.0
C326 C 0.11984 0.33298 0.716 0.0
C327 C 0.60195 0.13782 0.02948 0.0
C328 C 0.63067 0.14294 0.09072 0.0
C329 C 0.60718 0.1219 0.9432 0.0
C330 C 0.64121 0.11006 0.9156 0.0
H331 H 0.57501 0.1453 0.04939 0.0
H332 H 0.58424 0.118 0.89872 0.0
S333 S 0.72548 0.11804 0.04803 0.0
N334 N 0.69471 0.13571 0.11608 0.0
N335 N 0.70426 0.1055 0.95359 0.0
C336 C 0.67029 0.11551 0.97495 0.0
C337 C 0.66512 0.1322 0.06247 0.0
C338 C 0.86976 0.60883 0.17544 0.0
C339 C 0.88387 0.64214 0.14928 0.0
C340 C 0.85394 0.604 0.26214 0.0
C341 C 0.85124 0.63239 0.32553 0.0
H342 H 0.8723 0.58593 0.13014 0.0
H343 H 0.84506 0.57742 0.28111 0.0
S344 S 0.88176 0.72569 0.28664 0.0
N345 N 0.89239 0.70447 0.19056 0.0
N346 N 0.86242 0.69565 0.35355 0.0
C347 C 0.86363 0.66635 0.29814 0.0
C348 C 0.88018 0.6711 0.21017 0.0
C349 C 0.34437 0.86214 0.43118 0.0
C350 C 0.35853 0.89498 0.40094 0.0
C351 C 0.35258 0.84859 0.51879 0.0
C352 C 0.37561 0.86725 0.57824 0.0
H353 H 0.32651 0.84701 0.38733 0.0
H354 H 0.341 0.82334 0.5399 0.0
S355 S 0.41747 0.95583 0.53293 0.0
N356 N 0.39493 0.94667 0.43808 0.0
N357 N 0.41075 0.9215 0.60224 0.0
C358 C 0.38934 0.90056 0.54905 0.0
C359 C 0.38057 0.91443 0.4606 0.0
C360 C 0.13209 0.61769 0.80951 0.0
C361 C 0.10925 0.64699 0.828 0.0
C362 C 0.14989 0.61394 0.72527 0.0
C363 C 0.14725 0.64005 0.65663 0.0
H364 H 0.13721 0.59707 0.8589 0.0
H365 H 0.16564 0.59002 0.71338 0.0
S366 S 0.0966 0.72527 0.67226 0.0
N367 N 0.08796 0.70455 0.77011 0.0
N368 N 0.12357 0.69836 0.61468 0.0
C369 C 0.12689 0.67084 0.67532 0.0
C370 C 0.10748 0.67409 0.75997 0.0
C371 C 0.33317 0.12455 0.03099 0.0
C372 C 0.36265 0.11844 0.08877 0.0
C373 C 0.33755 0.14111 0.94501 0.0
C374 C 0.37167 0.15162 0.91376 0.0
H375 H 0.30665 0.11608 0.05194 0.0
H376 H 0.31434 0.14382 0.90088 0.0
S377 S 0.45706 0.14278 0.04233 0.0
N378 N 0.42667 0.12506 0.11116 0.0
N379 N 0.43506 0.15647 0.95024 0.0
C380 C 0.40108 0.14691 0.97305 0.0
C381 C 0.39656 0.13014 0.06036 0.0
C382 C 0.88013 0.39456 0.30325 0.0
C383 C 0.89259 0.36073 0.33042 0.0
C384 C 0.86407 0.39962 0.21713 0.0
C385 C 0.85955 0.37097 0.15535 0.0
H386 H 0.88355 0.41749 0.34806 0.0
H387 H 0.856 0.42641 0.19775 0.0
S388 S 0.88684 0.27675 0.19549 0.0
N389 N 0.89873 0.29794 0.29054 0.0
N390 N 0.86842 0.30727 0.12835 0.0
C391 C 0.87111 0.33674 0.18279 0.0
C392 C 0.88787 0.33172 0.27021 0.0
C393 C 0.65207 0.85135 0.47106 0.0
C394 C 0.62841 0.86905 0.41129 0.0
C395 C 0.65891 0.86486 0.55955 0.0
C396 C 0.64263 0.89663 0.59032 0.0
H397 H 0.66536 0.827 0.44937 0.0
H398 H 0.67743 0.85063 0.60368 0.0
S399 S 0.58126 0.95495 0.45864 0.0
N400 N 0.59026 0.92142 0.38827 0.0
N401 N 0.60353 0.94634 0.55423 0.0
C402 C 0.61965 0.91498 0.53102 0.0
C403 C 0.61233 0.90123 0.44159 0.0
C404 C 0.99958 0.33933 0.08264 0.0
C405 C 0.03289 0.352 0.05117 0.0
C406 C 0.96977 0.33771 0.0236 0.0
C407 C 0.97213 0.34834 0.93047 0.0
H408 H 0.99641 0.33068 0.15343 0.0
H409 H 0.94459 0.32817 0.05134 0.0
S410 S 0.0518 0.38687 0.81567 0.0
N411 N 0.06544 0.37767 0.92113 0.0
N412 N 0.0097 0.37389 0.81123 0.0
C413 C 0.00508 0.36117 0.8982 0.0
C414 C 0.03532 0.36322 0.95821 0.0
C415 C 0.64758 0.00466 0.15979 0.0
C416 C 0.65899 0.97104 0.19117 0.0
C417 C 0.64651 0.03424 0.21926 0.0
C418 C 0.6569 0.03151 0.31269 0.0
H419 H 0.63819 0.00792 0.08967 0.0
H420 H 0.63662 0.0593 0.1918 0.0
S421 S 0.69464 0.95069 0.42445 0.0
N422 N 0.68478 0.93756 0.31881 0.0
N423 N 0.68267 0.99313 0.43038 0.0
C424 C 0.67001 0.99841 0.34367 0.0
C425 C 0.67109 0.96824 0.28303 0.0
C426 C 0.03176 0.66828 0.52086 0.0
C427 C 0.03019 0.65719 0.428 0.0
C428 C 0.00156 0.66739 0.57851 0.0
C429 C 0.96834 0.65505 0.54602 0.0
H430 H 0.05679 0.67727 0.54985 0.0
H431 H 0.00446 0.67609 0.64935 0.0
S432 S 0.95052 0.62039 0.30979 0.0
N433 N 0.99296 0.63234 0.30716 0.0
N434 N 0.93623 0.63003 0.41457 0.0
C435 C 0.96639 0.6438 0.45295 0.0
C436 C 0.9972 0.64505 0.39425 0.0
C437 C 0.3391 0.96888 0.70867 0.0
C438 C 0.34881 0.97076 0.80252 0.0
C439 C 0.33937 0.9994 0.65205 0.0
C440 C 0.34961 0.03301 0.68684 0.0
H441 H 0.33135 0.94354 0.67841 0.0
H442 H 0.33168 0.99652 0.58045 0.0
S443 S 0.38085 0.0513 0.92599 0.0
N444 N 0.37073 0.00842 0.92625 0.0
N445 N 0.37182 0.06557 0.821 0.0
C446 C 0.35983 0.03503 0.78061 0.0
C447 C 0.35924 0.00402 0.83808 0.0
C448 C 0.15357 0.48867 0.16388 0.0
C449 C 0.14556 0.46522 0.23692 0.0
C450 C 0.15308 0.52588 0.17665 0.0
C451 C 0.14551 0.54097 0.26336 0.0
H452 H 0.15864 0.47832 0.09532 0.0
H453 H 0.15804 0.54299 0.11785 0.0
S454 S 0.12515 0.4915 0.47843 0.0
N455 N 0.13114 0.46003 0.40005 0.0
N456 N 0.13147 0.52978 0.42422 0.0
C457 C 0.13924 0.5179 0.3379 0.0
C458 C 0.1389 0.48008 0.32459 0.0
C459 C 0.51546 0.15559 0.42627 0.0
C460 C 0.53782 0.14088 0.49477 0.0
C461 C 0.47815 0.15686 0.43774 0.0
C462 C 0.46205 0.14436 0.519 0.0
H463 H 0.52667 0.16521 0.36203 0.0
H464 H 0.46181 0.16742 0.38251 0.0
S465 S 0.50771 0.1037 0.71969 0.0
N466 N 0.54032 0.11336 0.64704 0.0
N467 N 0.47054 0.11707 0.6689 0.0
C468 C 0.48387 0.1305 0.58885 0.0
C469 C 0.52168 0.12844 0.57668 0.0
C470 C 0.83194 0.51928 0.73135 0.0
C471 C 0.86408 0.53874 0.72521 0.0
C472 C 0.83234 0.48215 0.74788 0.0
C473 C 0.86489 0.46348 0.7557 0.0
H474 H 0.80647 0.5329 0.72502 0.0
H475 H 0.80717 0.46791 0.75285 0.0
S476 S 0.95611 0.50213 0.74277 0.0
N477 N 0.92909 0.53661 0.72826 0.0
N478 N 0.9298 0.46706 0.75595 0.0
C479 C 0.89704 0.48267 0.74851 0.0
C480 C 0.89665 0.52028 0.73409 0.0
C481 C 0.52569 0.85936 0.92385 0.0
C482 C 0.53975 0.85964 0.01377 0.0
C483 C 0.48862 0.85842 0.90856 0.0
C484 C 0.46429 0.85878 0.98269 0.0
H485 H 0.54345 0.86032 0.86484 0.0
H486 H 0.47896 0.85899 0.83818 0.0
S487 S 0.48733 0.85859 0.23129 0.0
N488 N 0.52637 0.8588 0.17788 0.0
N489 N 0.45684 0.85835 0.14904 0.0
C490 C 0.478 0.8584 0.07281 0.0
C491 C 0.5157 0.85845 0.08838 0.0
loop_
_geom_bond_atom_site_label_1
_geom_bond_atom_site_label_2
_geom_bond_distance
_geom_bond_site_symmetry_2
_ccdc_geom_bond_type
Co0 O3 1.970 . S
Co0 N17 1.989 . S
Co0 O25 1.967 . S
Co0 O32 1.920 1_554 S
Co1 O4 1.966 . S
Co1 N10 2.022 . S
Co1 N18 1.993 . S
Co1 O26 1.941 . S
C2 O3 1.258 . S
C2 O4 1.263 . S
O3 Co0 1.970 . S
O3 C2 1.258 . S
O4 Co1 1.966 . S
O4 C2 1.263 . S
C5 O6 1.235 1_556 S
C5 O32 1.289 . S
O6 C5 1.235 1_554 S
C7 C9 1.400 . S
C7 N10 1.351 . S
C7 C12 1.501 . S
C8 C9 1.387 . S
C8 N11 1.341 . S
C9 C7 1.400 . S
C9 C8 1.387 . S
N10 Co1 2.022 . S
N10 C7 1.351 . S
N10 N11 1.365 . S
N11 C8 1.341 . S
N11 N10 1.365 . S
N11 H31 0.862 . S
C12 C7 1.501 . S
C12 H13 0.961 . S
C12 H14 0.961 . S
C12 H15 0.960 . S
H13 C12 0.961 . S
H14 C12 0.961 . S
H15 C12 0.960 . S
C16 N17 1.342 . S
C16 C20 1.401 . S
C16 C21 1.499 . S
N17 Co0 1.989 . S
N17 C16 1.342 . S
N17 N18 1.388 . S
N18 Co1 1.993 . S
N18 N17 1.388 . S
N18 C19 1.346 . S
C19 N18 1.346 . S
C19 C20 1.396 . S
C19 C29 1.510 . S
C20 C16 1.401 . S
C20 C19 1.396 . S
C21 C16 1.499 . S
C21 H22 0.959 . S
C21 H23 0.960 . S
C21 H24 0.961 . S
H22 C21 0.959 . S
H23 C21 0.960 . S
H24 C21 0.961 . S
O25 Co0 1.967 . S
O25 C33 1.258 . S
O26 Co1 1.941 . S
O26 C33 1.266 . S
H27 C29 0.959 . S
H28 C29 0.961 . S
C29 C19 1.510 . S
C29 H27 0.959 . S
C29 H28 0.961 . S
C29 H30 0.960 . S
H30 C29 0.960 . S
H31 N11 0.862 . S
O32 Co0 1.920 1_556 S
O32 C5 1.289 . S
C33 O25 1.258 . S
C33 O26 1.266 . S
Co34 O37 1.970 . S
Co34 N51 1.989 . S
Co34 O59 1.967 . S
Co34 O66 1.920 . S
Co35 O38 1.966 . S
Co35 N44 2.022 . S
Co35 N52 1.993 . S
Co35 O60 1.941 . S
C36 O37 1.258 . S
C36 O38 1.263 . S
O37 Co34 1.970 . S
O37 C36 1.258 . S
O38 Co35 1.966 . S
O38 C36 1.263 . S
C39 O40 1.235 . S
C39 O66 1.289 . S
O40 C39 1.235 . S
C41 C43 1.400 . S
C41 N44 1.351 . S
C41 C46 1.501 . S
C42 C43 1.387 . S
C42 N45 1.341 . S
C43 C41 1.400 . S
C43 C42 1.387 . S
N44 Co35 2.022 . S
N44 C41 1.351 . S
N44 N45 1.365 . S
N45 C42 1.341 . S
N45 N44 1.365 . S
N45 H65 0.862 . S
C46 C41 1.501 . S
C46 H47 0.961 . S
C46 H48 0.961 . S
C46 H49 0.960 . S
H47 C46 0.961 . S
H48 C46 0.961 . S
H49 C46 0.960 . S
C50 N51 1.342 . S
C50 C54 1.401 . S
C50 C55 1.499 . S
N51 Co34 1.989 . S
N51 C50 1.342 . S
N51 N52 1.388 . S
N52 Co35 1.993 . S
N52 N51 1.388 . S
N52 C53 1.346 . S
C53 N52 1.346 . S
C53 C54 1.396 . S
C53 C63 1.510 . S
C54 C50 1.401 . S
C54 C53 1.396 . S
C55 C50 1.499 . S
C55 H56 0.959 . S
C55 H57 0.960 . S
C55 H58 0.961 . S
H56 C55 0.959 . S
H57 C55 0.960 . S
H58 C55 0.961 . S
O59 Co34 1.967 . S
O59 C67 1.258 . S
O60 Co35 1.941 . S
O60 C67 1.266 . S
H61 C63 0.959 . S
H62 C63 0.961 . S
C63 C53 1.510 . S
C63 H61 0.959 . S
C63 H62 0.961 . S
C63 H64 0.960 . S
H64 C63 0.960 . S
H65 N45 0.862 . S
O66 Co34 1.920 . S
O66 C39 1.289 . S
C67 O59 1.258 . S
C67 O60 1.266 . S
Co68 O71 1.970 . S
Co68 N85 1.989 . S
Co68 O93 1.967 . S
Co68 O100 1.920 . S
Co69 O72 1.966 . S
Co69 N78 2.022 . S
Co69 N86 1.993 . S
Co69 O94 1.941 . S
C70 O71 1.258 . S
C70 O72 1.263 . S
O71 Co68 1.970 . S
O71 C70 1.258 . S
O72 Co69 1.966 . S
O72 C70 1.263 . S
C73 O74 1.235 . S
C73 O100 1.289 . S
O74 C73 1.235 . S
C75 C77 1.400 . S
C75 N78 1.351 1_554 S
C75 C80 1.501 . S
C76 C77 1.387 . S
C76 N79 1.341 . S
C77 C75 1.400 . S
C77 C76 1.387 . S
N78 Co69 2.022 . S
N78 C75 1.351 1_556 S
N78 N79 1.365 1_556 S
N79 C76 1.341 . S
N79 N78 1.365 1_554 S
N79 H99 0.862 1_554 S
C80 C75 1.501 . S
C80 H81 0.961 1_554 S
C80 H82 0.961 . S
C80 H83 0.960 . S
H81 C80 0.961 1_556 S
H82 C80 0.961 . S
H83 C80 0.960 . S
C84 N85 1.342 . S
C84 C88 1.401 . S
C84 C89 1.499 . S
N85 Co68 1.989 . S
N85 C84 1.342 . S
N85 N86 1.388 . S
N86 Co69 1.993 . S
N86 N85 1.388 . S
N86 C87 1.346 . S
C87 N86 1.346 . S
C87 C88 1.396 . S
C87 C97 1.510 . S
C88 C84 1.401 . S
C88 C87 1.396 . S
C89 C84 1.499 . S
C89 H90 0.959 . S
C89 H91 0.960 . S
C89 H92 0.961 . S
H90 C89 0.959 . S
H91 C89 0.960 . S
H92 C89 0.961 . S
O93 Co68 1.967 . S
O93 C101 1.258 . S
O94 Co69 1.941 . S
O94 C101 1.266 . S
H95 C97 0.959 . S
H96 C97 0.961 . S
C97 C87 1.510 . S
C97 H95 0.959 . S
C97 H96 0.961 . S
C97 H98 0.960 . S
H98 C97 0.960 . S
H99 N79 0.862 1_556 S
O100 Co68 1.920 . S
O100 C73 1.289 . S
C101 O93 1.258 . S
C101 O94 1.266 . S
Co102 O105 1.970 . S
Co102 N119 1.989 . S
Co102 O127 1.967 . S
Co102 O134 1.920 . S
Co103 O106 1.966 . S
Co103 N112 2.022 . S
Co103 N120 1.993 . S
Co103 O128 1.941 . S
C104 O105 1.258 . S
C104 O106 1.263 1_556 S
O105 Co102 1.970 . S
O105 C104 1.258 . S
O106 Co103 1.966 . S
O106 C104 1.263 1_554 S
C107 O108 1.235 . S
C107 O134 1.289 . S
O108 C107 1.235 . S
C109 C111 1.400 . S
C109 N112 1.351 . S
C109 C114 1.501 . S
C110 C111 1.387 . S
C110 N113 1.341 . S
C111 C109 1.400 . S
C111 C110 1.387 . S
N112 Co103 2.022 . S
N112 C109 1.351 . S
N112 N113 1.365 . S
N113 C110 1.341 . S
N113 N112 1.365 . S
N113 H133 0.862 . S
C114 C109 1.501 . S
C114 H115 0.961 . S
C114 H116 0.961 . S
C114 H117 0.960 . S
H115 C114 0.961 . S
H116 C114 0.961 . S
H117 C114 0.960 . S
C118 N119 1.342 . S
C118 C122 1.401 1_556 S
C118 C123 1.499 . S
N119 Co102 1.989 . S
N119 C118 1.342 . S
N119 N120 1.388 1_556 S
N120 Co103 1.993 . S
N120 N119 1.388 1_554 S
N120 C121 1.346 . S
C121 N120 1.346 . S
C121 C122 1.396 . S
C121 C131 1.510 . S
C122 C118 1.401 1_554 S
C122 C121 1.396 . S
C123 C118 1.499 . S
C123 H124 0.959 . S
C123 H125 0.960 . S
C123 H126 0.961 . S
H124 C123 0.959 . S
H125 C123 0.960 . S
H126 C123 0.961 . S
O127 Co102 1.967 . S
O127 C135 1.258 . S
O128 Co103 1.941 . S
O128 C135 1.266 1_554 S
H129 C131 0.959 . S
H130 C131 0.961 . S
C131 C121 1.510 . S
C131 H129 0.959 . S
C131 H130 0.961 . S
C131 H132 0.960 . S
H132 C131 0.960 . S
H133 N113 0.862 . S
O134 Co102 1.920 . S
O134 C107 1.289 . S
C135 O127 1.258 . S
C135 O128 1.266 1_556 S
Co136 O139 1.970 . S
Co136 N153 1.989 . S
Co136 O161 1.967 . S
Co136 O168 1.920 . S
Co137 O140 1.966 . S
Co137 N146 2.022 . S
Co137 N154 1.993 . S
Co137 O162 1.941 . S
C138 O139 1.258 . S
C138 O140 1.263 . S
O139 Co136 1.970 . S
O139 C138 1.258 . S
O140 Co137 1.966 . S
O140 C138 1.263 . S
C141 O142 1.235 . S
C141 O168 1.289 . S
O142 C141 1.235 . S
C143 C145 1.400 . S
C143 N146 1.351 1_556 S
C143 C148 1.501 . S
C144 C145 1.387 . S
C144 N147 1.341 . S
C145 C143 1.400 . S
C145 C144 1.387 . S
N146 Co137 2.022 . S
N146 C143 1.351 1_554 S
N146 N147 1.365 1_554 S
N147 C144 1.341 . S
N147 N146 1.365 1_556 S
N147 H167 0.862 1_556 S
C148 C143 1.501 . S
C148 H149 0.961 1_556 S
C148 H150 0.961 . S
C148 H151 0.960 . S
H149 C148 0.961 1_554 S
H150 C148 0.961 . S
H151 C148 0.960 . S
C152 N153 1.342 . S
C152 C156 1.401 . S
C152 C157 1.499 . S
N153 Co136 1.989 . S
N153 C152 1.342 . S
N153 N154 1.388 . S
N154 Co137 1.993 . S
N154 N153 1.388 . S
N154 C155 1.346 . S
C155 N154 1.346 . S
C155 C156 1.396 . S
C155 C165 1.510 . S
C156 C152 1.401 . S
C156 C155 1.396 . S
C157 C152 1.499 . S
C157 H158 0.959 . S
C157 H159 0.960 . S
C157 H160 0.961 . S
H158 C157 0.959 . S
H159 C157 0.960 . S
H160 C157 0.961 . S
O161 Co136 1.967 . S
O161 C169 1.258 . S
O162 Co137 1.941 . S
O162 C169 1.266 . S
H163 C165 0.959 . S
H164 C165 0.961 . S
C165 C155 1.510 . S
C165 H163 0.959 . S
C165 H164 0.961 . S
C165 H166 0.960 . S
H166 C165 0.960 . S
H167 N147 0.862 1_554 S
O168 Co136 1.920 . S
O168 C141 1.289 . S
C169 O161 1.258 . S
C169 O162 1.266 . S
Co170 O173 1.970 . S
Co170 N187 1.989 . S
Co170 O195 1.967 . S
Co170 O202 1.920 . S
Co171 O174 1.966 . S
Co171 N180 2.022 . S
Co171 N188 1.993 . S
Co171 O196 1.941 . S
C172 O173 1.258 . S
C172 O174 1.263 . S
O173 Co170 1.970 . S
O173 C172 1.258 . S
O174 Co171 1.966 . S
O174 C172 1.263 . S
C175 O176 1.235 . S
C175 O202 1.289 . S
O176 C175 1.235 . S
C177 C179 1.400 . S
C177 N180 1.351 . S
C177 C182 1.501 . S
C178 C179 1.387 . S
C178 N181 1.341 . S
C179 C177 1.400 . S
C179 C178 1.387 . S
N180 Co171 2.022 . S
N180 C177 1.351 . S
N180 N181 1.365 . S
N181 C178 1.341 . S
N181 N180 1.365 . S
N181 H201 0.862 . S
C182 C177 1.501 . S
C182 H183 0.961 . S
C182 H184 0.961 . S
C182 H185 0.960 . S
H183 C182 0.961 . S
H184 C182 0.961 . S
H185 C182 0.960 . S
C186 N187 1.342 . S
C186 C190 1.401 . S
C186 C191 1.499 . S
N187 Co170 1.989 . S
N187 C186 1.342 . S
N187 N188 1.388 . S
N188 Co171 1.993 . S
N188 N187 1.388 . S
N188 C189 1.346 . S
C189 N188 1.346 . S
C189 C190 1.396 . S
C189 C199 1.510 . S
C190 C186 1.401 . S
C190 C189 1.396 . S
C191 C186 1.499 . S
C191 H192 0.959 . S
C191 H193 0.960 . S
C191 H194 0.961 . S
H192 C191 0.959 . S
H193 C191 0.960 . S
H194 C191 0.961 . S
O195 Co170 1.967 . S
O195 C203 1.258 . S
O196 Co171 1.941 . S
O196 C203 1.266 . S
H197 C199 0.959 . S
H198 C199 0.961 . S
C199 C189 1.510 . S
C199 H197 0.959 . S
C199 H198 0.961 . S
C199 H200 0.960 . S
H200 C199 0.960 . S
H201 N181 0.862 . S
O202 Co170 1.920 . S
O202 C175 1.289 . S
C203 O195 1.258 . S
C203 O196 1.266 . S
Co204 O207 1.970 . S
Co204 N221 1.989 . S
Co204 O229 1.967 . S
Co204 O236 1.920 1_556 S
Co205 O208 1.966 . S
Co205 N214 2.022 . S
Co205 N222 1.993 . S
Co205 O230 1.941 . S
C206 O207 1.258 . S
C206 O208 1.263 . S
O207 Co204 1.970 . S
O207 C206 1.258 . S
O208 Co205 1.966 . S
O208 C206 1.263 . S
C209 O210 1.235 1_554 S
C209 O236 1.289 . S
O210 C209 1.235 1_556 S
C211 C213 1.400 . S
C211 N214 1.351 . S
C211 C216 1.501 . S
C212 C213 1.387 . S
C212 N215 1.341 . S
C213 C211 1.400 . S
C213 C212 1.387 . S
N214 Co205 2.022 . S
N214 C211 1.351 . S
N214 N215 1.365 . S
N215 C212 1.341 . S
N215 N214 1.365 . S
N215 H235 0.862 . S
C216 C211 1.501 . S
C216 H217 0.961 . S
C216 H218 0.961 . S
C216 H219 0.960 . S
H217 C216 0.961 . S
H218 C216 0.961 . S
H219 C216 0.960 . S
C220 N221 1.342 . S
C220 C224 1.401 . S
C220 C225 1.499 . S
N221 Co204 1.989 . S
N221 C220 1.342 . S
N221 N222 1.388 . S
N222 Co205 1.993 . S
N222 N221 1.388 . S
N222 C223 1.346 . S
C223 N222 1.346 . S
C223 C224 1.396 . S
C223 C233 1.510 . S
C224 C220 1.401 . S
C224 C223 1.396 . S
C225 C220 1.499 . S
C225 H226 0.959 . S
C225 H227 0.960 . S
C225 H228 0.961 . S
H226 C225 0.959 . S
H227 C225 0.960 . S
H228 C225 0.961 . S
O229 Co204 1.967 . S
O229 C237 1.258 . S
O230 Co205 1.941 . S
O230 C237 1.266 . S
H231 C233 0.959 . S
H232 C233 0.961 . S
C233 C223 1.510 . S
C233 H231 0.959 . S
C233 H232 0.961 . S
C233 H234 0.960 . S
H234 C233 0.960 . S
H235 N215 0.862 . S
O236 Co204 1.920 1_554 S
O236 C209 1.289 . S
C237 O229 1.258 . S
C237 O230 1.266 . S
Co238 O241 1.970 . S
Co238 N255 1.989 . S
Co238 O263 1.967 . S
Co238 O270 1.920 . S
Co239 O242 1.966 . S
Co239 N248 2.022 . S
Co239 N256 1.993 . S
Co239 O264 1.941 . S
C240 O241 1.258 . S
C240 O242 1.263 1_554 S
O241 Co238 1.970 . S
O241 C240 1.258 . S
O242 Co239 1.966 . S
O242 C240 1.263 1_556 S
C243 O244 1.235 . S
C243 O270 1.289 . S
O244 C243 1.235 . S
C245 C247 1.400 . S
C245 N248 1.351 . S
C245 C250 1.501 . S
C246 C247 1.387 . S
C246 N249 1.341 . S
C247 C245 1.400 . S
C247 C246 1.387 . S
N248 Co239 2.022 . S
N248 C245 1.351 . S
N248 N249 1.365 . S
N249 C246 1.341 . S
N249 N248 1.365 . S
N249 H269 0.862 . S
C250 C245 1.501 . S
C250 H251 0.961 . S
C250 H252 0.961 . S
C250 H253 0.960 . S
H251 C250 0.961 . S
H252 C250 0.961 . S
H253 C250 0.960 . S
C254 N255 1.342 . S
C254 C258 1.401 1_554 S
C254 C259 1.499 . S
N255 Co238 1.989 . S
N255 C254 1.342 . S
N255 N256 1.388 1_554 S
N256 Co239 1.993 . S
N256 N255 1.388 1_556 S
N256 C257 1.346 . S
C257 N256 1.346 . S
C257 C258 1.396 . S
C257 C267 1.510 . S
C258 C254 1.401 1_556 S
C258 C257 1.396 . S
C259 C254 1.499 . S
C259 H260 0.959 . S
C259 H261 0.960 . S
C259 H262 0.961 . S
H260 C259 0.959 . S
H261 C259 0.960 . S
H262 C259 0.961 . S
O263 Co238 1.967 . S
O263 C271 1.258 . S
O264 Co239 1.941 . S
O264 C271 1.266 1_556 S
H265 C267 0.959 . S
H266 C267 0.961 . S
C267 C257 1.510 . S
C267 H265 0.959 . S
C267 H266 0.961 . S
C267 H268 0.960 . S
H268 C267 0.960 . S
H269 N249 0.862 . S
O270 Co238 1.920 . S
O270 C243 1.289 . S
C271 O263 1.258 . S
C271 O264 1.266 1_554 S
C272 C273 1.369 . S
C272 C274 1.419 . S
C272 H276 0.930 . S
C273 C272 1.369 . S
C273 C282 1.429 . S
C274 C272 1.419 . S
C274 C275 1.363 . S
C274 H277 0.929 . S
C275 C274 1.363 . S
C275 C281 1.428 . S
H276 C272 0.930 . S
H277 C274 0.929 . S
S278 N279 1.613 . S
S278 N280 1.610 . S
N279 S278 1.613 . S
N279 C282 1.350 . S
N280 S278 1.610 . S
N280 C281 1.351 . S
C281 C275 1.428 . S
C281 N280 1.351 . S
C281 C282 1.434 . S
C282 C273 1.429 . S
C282 N279 1.350 . S
C282 C281 1.434 . S
C283 C284 1.369 . S
C283 C285 1.419 . S
C283 H287 0.930 . S
C284 C283 1.369 . S
C284 C293 1.429 . S
C285 C283 1.419 . S
C285 C286 1.363 . S
C285 H288 0.929 . S
C286 C285 1.363 . S
C286 C292 1.428 . S
H287 C283 0.930 . S
H288 C285 0.929 . S
S289 N290 1.613 . S
S289 N291 1.610 . S
N290 S289 1.613 . S
N290 C293 1.350 . S
N291 S289 1.610 . S
N291 C292 1.351 . S
C292 C286 1.428 . S
C292 N291 1.351 . S
C292 C293 1.434 . S
C293 C284 1.429 . S
C293 N290 1.350 . S
C293 C292 1.434 . S
C294 C295 1.369 . S
C294 C296 1.419 . S
C294 H298 0.930 . S
C295 C294 1.369 . S
C295 C304 1.429 . S
C296 C294 1.419 . S
C296 C297 1.363 . S
C296 H299 0.929 1_556 S
C297 C296 1.363 . S
C297 C303 1.428 . S
H298 C294 0.930 . S
H299 C296 0.929 1_554 S
S300 N301 1.613 . S
S300 N302 1.610 . S
N301 S300 1.613 . S
N301 C304 1.350 . S
N302 S300 1.610 . S
N302 C303 1.351 . S
C303 C297 1.428 . S
C303 N302 1.351 . S
C303 C304 1.434 . S
C304 C295 1.429 . S
C304 N301 1.350 . S
C304 C303 1.434 . S
C305 C306 1.369 . S
C305 C307 1.419 . S
C305 H309 0.930 . S
C306 C305 1.369 . S
C306 C315 1.429 . S
C307 C305 1.419 . S
C307 C308 1.363 . S
C307 H310 0.929 . S
C308 C307 1.363 . S
C308 C314 1.428 . S
H309 C305 0.930 . S
H310 C307 0.929 . S
S311 N312 1.613 . S
S311 N313 1.610 . S
N312 S311 1.613 . S
N312 C315 1.350 . S
N313 S311 1.610 . S
N313 C314 1.351 . S
C314 C308 1.428 . S
C314 N313 1.351 . S
C314 C315 1.434 . S
C315 C306 1.429 . S
C315 N312 1.350 . S
C315 C314 1.434 . S
C316 C317 1.369 . S
C316 C318 1.419 . S
C316 H320 0.930 . S
C317 C316 1.369 . S
C317 C326 1.429 . S
C318 C316 1.419 . S
C318 C319 1.363 . S
C318 H321 0.929 . S
C319 C318 1.363 . S
C319 C325 1.428 . S
H320 C316 0.930 . S
H321 C318 0.929 . S
S322 N323 1.613 . S
S322 N324 1.610 . S
N323 S322 1.613 . S
N323 C326 1.350 . S
N324 S322 1.610 . S
N324 C325 1.351 . S
C325 C319 1.428 . S
C325 N324 1.351 . S
C325 C326 1.434 . S
C326 C317 1.429 . S
C326 N323 1.350 . S
C326 C325 1.434 . S
C327 C328 1.369 . S
C327 C329 1.419 . S
C327 H331 0.930 . S
C328 C327 1.369 . S
C328 C337 1.429 . S
C329 C327 1.419 . S
C329 C330 1.363 1_554 S
C329 H332 0.929 . S
C330 C329 1.363 1_556 S
C330 C336 1.428 . S
H331 C327 0.930 . S
H332 C329 0.929 . S
S333 N334 1.613 1_556 S
S333 N335 1.610 . S
N334 S333 1.613 1_554 S
N334 C337 1.350 . S
N335 S333 1.610 . S
N335 C336 1.351 . S
C336 C330 1.428 . S
C336 N335 1.351 . S
C336 C337 1.434 1_556 S
C337 C328 1.429 . S
C337 N334 1.350 . S
C337 C336 1.434 1_554 S
C338 C339 1.369 . S
C338 C340 1.419 . S
C338 H342 0.930 . S
C339 C338 1.369 . S
C339 C348 1.429 . S
C340 C338 1.419 . S
C340 C341 1.363 . S
C340 H343 0.929 . S
C341 C340 1.363 . S
C341 C347 1.428 . S
H342 C338 0.930 . S
H343 C340 0.929 . S
S344 N345 1.613 . S
S344 N346 1.610 . S
N345 S344 1.613 . S
N345 C348 1.350 . S
N346 S344 1.610 . S
N346 C347 1.351 . S
C347 C341 1.428 . S
C347 N346 1.351 . S
C347 C348 1.434 . S
C348 C339 1.429 . S
C348 N345 1.350 . S
C348 C347 1.434 . S
C349 C350 1.369 . S
C349 C351 1.419 . S
C349 H353 0.930 . S
C350 C349 1.369 . S
C350 C359 1.429 . S
C351 C349 1.419 . S
C351 C352 1.363 . S
C351 H354 0.929 . S
C352 C351 1.363 . S
C352 C358 1.428 . S
H353 C349 0.930 . S
H354 C351 0.929 . S
S355 N356 1.613 . S
S355 N357 1.610 . S
N356 S355 1.613 . S
N356 C359 1.350 . S
N357 S355 1.610 . S
N357 C358 1.351 . S
C358 C352 1.428 . S
C358 N357 1.351 . S
C358 C359 1.434 . S
C359 C350 1.429 . S
C359 N356 1.350 . S
C359 C358 1.434 . S
C360 C361 1.369 . S
C360 C362 1.419 . S
C360 H364 0.930 . S
C361 C360 1.369 . S
C361 C370 1.429 . S
C362 C360 1.419 . S
C362 C363 1.363 . S
C362 H365 0.929 . S
C363 C362 1.363 . S
C363 C369 1.428 . S
H364 C360 0.930 . S
H365 C362 0.929 . S
S366 N367 1.613 . S
S366 N368 1.610 . S
N367 S366 1.613 . S
N367 C370 1.350 . S
N368 S366 1.610 . S
N368 C369 1.351 . S
C369 C363 1.428 . S
C369 N368 1.351 . S
C369 C370 1.434 . S
C370 C361 1.429 . S
C370 N367 1.350 . S
C370 C369 1.434 . S
C371 C372 1.369 1_556 S
C371 C373 1.419 . S
C371 H375 0.930 1_556 S
C372 C371 1.369 1_554 S
C372 C381 1.429 . S
C373 C371 1.419 . S
C373 C374 1.363 . S
C373 H376 0.929 . S
C374 C373 1.363 . S
C374 C380 1.428 . S
H375 C371 0.930 1_554 S
H376 C373 0.929 . S
S377 N378 1.613 . S
S377 N379 1.610 1_554 S
N378 S377 1.613 . S
N378 C381 1.350 . S
N379 S377 1.610 1_556 S
N379 C380 1.351 . S
C380 C374 1.428 . S
C380 N379 1.351 . S
C380 C381 1.434 1_556 S
C381 C372 1.429 . S
C381 N378 1.350 . S
C381 C380 1.434 1_554 S
C382 C383 1.369 . S
C382 C384 1.419 . S
C382 H386 0.930 . S
C383 C382 1.369 . S
C383 C392 1.429 . S
C384 C382 1.419 . S
C384 C385 1.363 . S
C384 H387 0.929 . S
C385 C384 1.363 . S
C385 C391 1.428 . S
H386 C382 0.930 . S
H387 C384 0.929 . S
S388 N389 1.613 . S
S388 N390 1.610 . S
N389 S388 1.613 . S
N389 C392 1.350 . S
N390 S388 1.610 . S
N390 C391 1.351 . S
C391 C385 1.428 . S
C391 N390 1.351 . S
C391 C392 1.434 . S
C392 C383 1.429 . S
C392 N389 1.350 . S
C392 C391 1.434 . S
C393 C394 1.369 . S
C393 C395 1.419 . S
C393 H397 0.930 . S
C394 C393 1.369 . S
C394 C403 1.429 . S
C395 C393 1.419 . S
C395 C396 1.363 . S
C395 H398 0.929 . S
C396 C395 1.363 . S
C396 C402 1.428 . S
H397 C393 0.930 . S
H398 C395 0.929 . S
S399 N400 1.613 . S
S399 N401 1.610 . S
N400 S399 1.613 . S
N400 C403 1.350 . S
N401 S399 1.610 . S
N401 C402 1.351 . S
C402 C396 1.428 . S
C402 N401 1.351 . S
C402 C403 1.434 . S
C403 C394 1.429 . S
C403 N400 1.350 . S
C403 C402 1.434 . S
C404 C405 1.369 1_655 S
C404 C406 1.419 1_554 S
C404 H408 0.930 . S
C405 C404 1.369 1_455 S
C405 C414 1.429 . S
C406 C404 1.419 1_556 S
C406 C407 1.363 . S
C406 H409 0.929 . S
C407 C406 1.363 . S
C407 C413 1.428 1_655 S
H408 C404 0.930 . S
H409 C406 0.929 . S
S410 N411 1.613 1_556 S
S410 N412 1.610 . S
N411 S410 1.613 1_554 S
N411 C414 1.350 . S
N412 S410 1.610 . S
N412 C413 1.351 . S
C413 C407 1.428 1_455 S
C413 N412 1.351 . S
C413 C414 1.434 1_556 S
C414 C405 1.429 . S
C414 N411 1.350 . S
C414 C413 1.434 1_554 S
C415 C416 1.369 . S
C415 C417 1.415 1_565 S
C415 H419 0.930 . S
C416 C415 1.369 . S
C416 C425 1.438 . S
C417 C415 1.415 1_545 S
C417 C418 1.367 . S
C417 H420 0.929 1_545 S
C418 C417 1.367 . S
C418 C424 1.428 . S
H419 C415 0.930 . S
H420 C417 0.929 1_565 S
S421 N422 1.613 1_545 S
S421 N423 1.610 . S
N422 S421 1.613 1_565 S
N422 C425 1.350 . S
N423 S421 1.610 . S
N423 C424 1.351 . S
C424 C418 1.428 . S
C424 N423 1.351 . S
C424 C425 1.425 1_545 S
C425 C416 1.438 . S
C425 N422 1.350 . S
C425 C424 1.425 1_565 S
C426 C427 1.369 . S
C426 C428 1.419 . S
C426 H430 0.930 . S
C427 C426 1.369 . S
C427 C436 1.429 1_455 S
C428 C426 1.419 . S
C428 C429 1.363 1_455 S
C428 H431 0.929 . S
C429 C428 1.363 1_655 S
C429 C435 1.428 . S
H430 C426 0.930 . S
H431 C428 0.929 . S
S432 N433 1.613 . S
S432 N434 1.610 . S
N433 S432 1.613 . S
N433 C436 1.350 . S
N434 S432 1.610 . S
N434 C435 1.351 . S
C435 C429 1.428 . S
C435 N434 1.351 . S
C435 C436 1.434 . S
C436 C427 1.429 1_655 S
C436 N433 1.350 . S
C436 C435 1.434 . S
C437 C438 1.369 . S
C437 C439 1.419 1_565 S
C437 H441 0.930 . S
C438 C437 1.369 . S
C438 C447 1.429 . S
C439 C437 1.419 1_545 S
C439 C440 1.363 . S
C439 H442 0.929 . S
C440 C439 1.363 . S
C440 C446 1.428 . S
H441 C437 0.930 . S
H442 C439 0.929 . S
S443 N444 1.613 1_545 S
S443 N445 1.610 . S
N444 S443 1.613 1_565 S
N444 C447 1.350 . S
N445 S443 1.610 . S
N445 C446 1.351 . S
C446 C440 1.428 . S
C446 N445 1.351 . S
C446 C447 1.434 1_545 S
C447 C438 1.429 . S
C447 N444 1.350 . S
C447 C446 1.434 1_565 S
C448 C449 1.369 . S
C448 C450 1.419 . S
C448 H452 0.930 . S
C449 C448 1.369 . S
C449 C458 1.429 . S
C450 C448 1.419 . S
C450 C451 1.363 . S
C450 H453 0.929 . S
C451 C450 1.363 . S
C451 C457 1.428 . S
H452 C448 0.930 . S
H453 C450 0.929 . S
S454 N455 1.613 . S
S454 N456 1.610 . S
N455 S454 1.613 . S
N455 C458 1.350 . S
N456 S454 1.610 . S
N456 C457 1.351 . S
C457 C451 1.428 . S
C457 N456 1.351 . S
C457 C458 1.434 . S
C458 C449 1.429 . S
C458 N455 1.350 . S
C458 C457 1.434 . S
C459 C460 1.369 . S
C459 C461 1.419 . S
C459 H463 0.930 . S
C460 C459 1.369 . S
C460 C469 1.429 . S
C461 C459 1.419 . S
C461 C462 1.363 . S
C461 H464 0.929 . S
C462 C461 1.363 . S
C462 C468 1.428 . S
H463 C459 0.930 . S
H464 C461 0.929 . S
S465 N466 1.613 . S
S465 N467 1.610 . S
N466 S465 1.613 . S
N466 C469 1.350 . S
N467 S465 1.610 . S
N467 C468 1.351 . S
C468 C462 1.428 . S
C468 N467 1.351 . S
C468 C469 1.434 . S
C469 C460 1.429 . S
C469 N466 1.350 . S
C469 C468 1.434 . S
C470 C471 1.369 . S
C470 C472 1.419 . S
C470 H474 0.930 . S
C471 C470 1.369 . S
C471 C480 1.429 . S
C472 C470 1.419 . S
C472 C473 1.363 . S
C472 H475 0.929 . S
C473 C472 1.363 . S
C473 C479 1.428 . S
H474 C470 0.930 . S
H475 C472 0.929 . S
S476 N477 1.613 . S
S476 N478 1.610 . S
N477 S476 1.613 . S
N477 C480 1.350 . S
N478 S476 1.610 . S
N478 C479 1.351 . S
C479 C473 1.428 . S
C479 N478 1.351 . S
C479 C480 1.434 . S
C480 C471 1.429 . S
C480 N477 1.350 . S
C480 C479 1.434 . S
C481 C482 1.369 1_556 S
C481 C483 1.419 . S
C481 H485 0.930 . S
C482 C481 1.369 1_554 S
C482 C491 1.429 . S
C483 C481 1.419 . S
C483 C484 1.363 . S
C483 H486 0.929 . S
C484 C483 1.363 . S
C484 C490 1.428 1_556 S
H485 C481 0.930 . S
H486 C483 0.929 . S
S487 N488 1.613 . S
S487 N489 1.610 . S
N488 S487 1.613 . S
N488 C491 1.350 . S
N489 S487 1.610 . S
N489 C490 1.351 . S
C490 C484 1.428 1_554 S
C490 N489 1.351 . S
C490 C491 1.434 . S
C491 C482 1.429 . S
C491 N488 1.350 . S
C491 C490 1.434 . S
C273 C190 1.685 . S
C275 C20 1.683 . S
C284 C224 1.684 . S
C286 C54 1.688 . S
C295 C88 1.688 . S
C297 C258 1.683 . S
C306 C156 1.684 . S
C308 C122 1.684 . S
C317 C9 1.317 . S
C319 C5 1.278 . S
C328 C39 1.278 . S
C330 C43 1.321 . S
C339 C77 1.316 . S
C341 C73 1.278 . S
C350 C111 1.323 . S
C352 C107 1.269 . S
C361 C145 1.320 . S
C363 C141 1.271 . S
C372 C179 1.322 . S
C374 C175 1.276 . S
C383 C213 1.317 . S
C385 C209 1.274 . S
C394 C243 1.268 . S
C396 C247 1.321 . S
C405 C33 1.618 . S
C407 C237 1.618 . S
C416 C271 1.619 . S
C418 C67 1.621 . S
C427 C169 1.624 . S
C429 C101 1.614 . S
C438 C135 1.620 . S
C440 C203 1.616 . S
C449 C2 1.702 . S
C451 C138 1.703 . S
C460 C36 1.703 . S
C462 C172 1.703 . S
C471 C70 1.703 . S
C473 C206 1.703 . S
C482 C240 1.703 . S
C484 C104 1.702 . S
