# Generated by pormake.
# Topology tzs, (4)-cn, num edge types: 1
# Building blocks:
#     Node 0, Type 0, BuildingBlock: QUQFOY_clean_sbu_1, # of connection points: 4
#     Node 1, Type 0, BuildingBlock: QUQFOY_clean_sbu_1, # of connection points: 4
#     Node 2, Type 0, BuildingBlock: QUQFOY_clean_sbu_1, # of connection points: 4
#     Node 3, Type 0, BuildingBlock: QUQFOY_clean_sbu_1, # of connection points: 4
#     Node 4, Type 0, BuildingBlock: QUQFOY_clean_sbu_1, # of connection points: 4
#     Node 5, Type 0, BuildingBlock: QUQFOY_clean_sbu_1, # of connection points: 4
#     Node 6, Type 0, BuildingBlock: QUQFOY_clean_sbu_1, # of connection points: 4
#     Node 7, Type 0, BuildingBlock: QUQFOY_clean_sbu_1, # of connection points: 4
#     Node 8, Type 0, BuildingBlock: QUQFOY_clean_sbu_1, # of connection points: 4
#     Node 9, Type 0, BuildingBlock: QUQFOY_clean_sbu_1, # of connection points: 4
#     Node 10, Type 0, BuildingBlock: QUQFOY_clean_sbu_1, # of connection points: 4
#     Node 11, Type 0, BuildingBlock: QUQFOY_clean_sbu_1, # of connection points: 4
#     Node 12, Type 0, BuildingBlock: QUQFOY_clean_sbu_1, # of connection points: 4
#     Node 13, Type 0, BuildingBlock: QUQFOY_clean_sbu_1, # of connection points: 4
#     Node 14, Type 0, BuildingBlock: QUQFOY_clean_sbu_1, # of connection points: 4
#     Node 15, Type 0, BuildingBlock: QUQFOY_clean_sbu_1, # of connection points: 4
#     Edge 16, Type (0, 0), BuildingBlock: OJICUG_clean_linker_0, # of connection points: 2
#     Edge 17, Type (0, 0), BuildingBlock: OJICUG_clean_linker_0, # of connection points: 2
#     Edge 18, Type (0, 0), BuildingBlock: OJICUG_clean_linker_0, # of connection points: 2
#     Edge 19, Type (0, 0), BuildingBlock: OJICUG_clean_linker_0, # of connection points: 2
#     Edge 20, Type (0, 0), BuildingBlock: OJICUG_clean_linker_0, # of connection points: 2
#     Edge 21, Type (0, 0), BuildingBlock: OJICUG_clean_linker_0, # of connection points: 2
#     Edge 22, Type (0, 0), BuildingBlock: OJICUG_clean_linker_0, # of connection points: 2
#     Edge 23, Type (0, 0), BuildingBlock: OJICUG_clean_linker_0, # of connection points: 2
#     Edge 24, Type (0, 0), BuildingBlock: OJICUG_clean_linker_0, # of connection points: 2
#     Edge 25, Type (0, 0), BuildingBlock: OJICUG_clean_linker_0, # of connection points: 2
#     Edge 26, Type (0, 0), BuildingBlock: OJICUG_clean_linker_0, # of connection points: 2
#     Edge 27, Type (0, 0), BuildingBlock: OJICUG_clean_linker_0, # of connection points: 2
#     Edge 28, Type (0, 0), BuildingBlock: OJICUG_clean_linker_0, # of connection points: 2
#     Edge 29, Type (0, 0), BuildingBlock: OJICUG_clean_linker_0, # of connection points: 2
#     Edge 30, Type (0, 0), BuildingBlock: OJICUG_clean_linker_0, # of connection points: 2
#     Edge 31, Type (0, 0), BuildingBlock: OJICUG_clean_linker_0, # of connection points: 2
#     Edge 32, Type (0, 0), BuildingBlock: OJICUG_clean_linker_0, # of connection points: 2
#     Edge 33, Type (0, 0), BuildingBlock: OJICUG_clean_linker_0, # of connection points: 2
#     Edge 34, Type (0, 0), BuildingBlock: OJICUG_clean_linker_0, # of connection points: 2
#     Edge 35, Type (0, 0), BuildingBlock: OJICUG_clean_linker_0, # of connection points: 2
#     Edge 36, Type (0, 0), BuildingBlock: OJICUG_clean_linker_0, # of connection points: 2
#     Edge 37, Type (0, 0), BuildingBlock: OJICUG_clean_linker_0, # of connection points: 2
#     Edge 38, Type (0, 0), BuildingBlock: OJICUG_clean_linker_0, # of connection points: 2
#     Edge 39, Type (0, 0), BuildingBlock: OJICUG_clean_linker_0, # of connection points: 2
#     Edge 40, Type (0, 0), BuildingBlock: OJICUG_clean_linker_0, # of connection points: 2
#     Edge 41, Type (0, 0), BuildingBlock: OJICUG_clean_linker_0, # of connection points: 2
#     Edge 42, Type (0, 0), BuildingBlock: OJICUG_clean_linker_0, # of connection points: 2
#     Edge 43, Type (0, 0), BuildingBlock: OJICUG_clean_linker_0, # of connection points: 2
#     Edge 44, Type (0, 0), BuildingBlock: OJICUG_clean_linker_0, # of connection points: 2
#     Edge 45, Type (0, 0), BuildingBlock: OJICUG_clean_linker_0, # of connection points: 2
#     Edge 46, Type (0, 0), BuildingBlock: OJICUG_clean_linker_0, # of connection points: 2
#     Edge 47, Type (0, 0), BuildingBlock: OJICUG_clean_linker_0, # of connection points: 2
# Relax obj value: 0.142
# Max RMSD: 0.156
# Mean RMSD: 0.156
data_MOF--net-tzs--node1-QUQFOY_clean_sbu_1--edge1-OJICUG_clean_linker_0
_symmetry_space_group_name_H-M    P1
_symmetry_Int_Tables_number       1
_symmetry_cell_setting            triclinic
loop_
_symmetry_equiv_pos_as_xyz
'x, y, z'
_cell_length_a     36.837427
_cell_length_b     36.878994
_cell_length_c     33.010459
_cell_angle_alpha  89.992753
_cell_angle_beta   90.029389
_cell_angle_gamma 89.95597
loop_
_atom_site_label
_atom_site_type_symbol
_atom_site_fract_x
_atom_site_fract_y
_atom_site_fract_z
_atom_type_partial_charge
O0 O 0.15054 0.3828 0.26053 0.0
Cd1 Cd 0.13401 0.33075 0.24692 0.0
Cd2 Cd 0.11021 0.36485 0.17724 0.0
O3 O 0.13947 0.40737 0.2009 0.0
O4 O 0.16052 0.29951 0.28602 0.0
O5 O 0.1676 0.29573 0.21954 0.0
C6 C 0.17619 0.28452 0.25541 0.0
C7 C 0.11042 0.35951 0.10623 0.0
C8 C 0.15163 0.40992 0.2368 0.0
C9 C 0.05453 0.33402 0.23587 0.0
O10 O 0.06121 0.35421 0.20559 0.0
O11 O 0.08004 0.31903 0.25553 0.0
O12 O 0.09333 0.38511 0.12456 0.0
O13 O 0.12792 0.33644 0.12826 0.0
O14 O 0.5816 0.14663 0.25879 0.0
Cd15 Cd 0.63339 0.12923 0.2449 0.0
Cd16 Cd 0.5986 0.107 0.17509 0.0
O17 O 0.55678 0.13717 0.19894 0.0
O18 O 0.6651 0.15472 0.28435 0.0
O19 O 0.66896 0.16252 0.21798 0.0
C20 C 0.68028 0.17054 0.25396 0.0
C21 C 0.60396 0.10752 0.10408 0.0
C22 C 0.5545 0.1488 0.23507 0.0
C23 C 0.6282 0.05011 0.23317 0.0
O24 O 0.60796 0.05761 0.20311 0.0
O25 O 0.64412 0.075 0.25282 0.0
O26 O 0.57792 0.091 0.12228 0.0
O27 O 0.62748 0.12425 0.12624 0.0
O28 O 0.81054 0.57618 0.25947 0.0
Cd29 Cd 0.82717 0.62827 0.24623 0.0
Cd30 Cd 0.85135 0.59442 0.1766 0.0
O31 O 0.82209 0.55175 0.1999 0.0
O32 O 0.80058 0.65932 0.28541 0.0
O33 O 0.79368 0.66348 0.21893 0.0
C34 C 0.78501 0.6745 0.25482 0.0
C35 C 0.8512 0.60022 0.10563 0.0
C36 C 0.80967 0.54911 0.23568 0.0
C37 C 0.90673 0.6251 0.23568 0.0
O38 O 0.90024 0.60504 0.20523 0.0
O39 O 0.88111 0.63992 0.25527 0.0
O40 O 0.86833 0.57454 0.1238 0.0
O41 O 0.83363 0.62311 0.1278 0.0
O42 O 0.37953 0.8122 0.25925 0.0
Cd43 Cd 0.32772 0.82965 0.24551 0.0
Cd44 Cd 0.36249 0.85227 0.17567 0.0
O45 O 0.40428 0.82196 0.19945 0.0
O46 O 0.29613 0.8041 0.28501 0.0
O47 O 0.29202 0.79644 0.21864 0.0
C48 C 0.28083 0.78836 0.25463 0.0
C49 C 0.35738 0.85223 0.10462 0.0
C50 C 0.4066 0.81016 0.23551 0.0
C51 C 0.33285 0.90884 0.23408 0.0
O52 O 0.35305 0.90151 0.20398 0.0
O53 O 0.31703 0.88386 0.25367 0.0
O54 O 0.38335 0.86862 0.1231 0.0
O55 O 0.33379 0.83535 0.12651 0.0
O56 O 0.1479 0.58007 0.27674 0.0
Cd57 Cd 0.13027 0.63182 0.29023 0.0
Cd58 Cd 0.10782 0.59735 0.36015 0.0
O59 O 0.13802 0.55544 0.33657 0.0
O60 O 0.15582 0.66337 0.2507 0.0
O61 O 0.16338 0.66761 0.31708 0.0
C62 C 0.17149 0.67876 0.28107 0.0
C63 C 0.10828 0.60308 0.43112 0.0
C64 C 0.14991 0.55307 0.30055 0.0
C65 C 0.051 0.62665 0.30172 0.0
O66 O 0.05843 0.60668 0.332 0.0
O67 O 0.07598 0.64239 0.282 0.0
O68 O 0.09171 0.577 0.41306 0.0
O69 O 0.1251 0.62641 0.40885 0.0
O70 O 0.38413 0.14889 0.27518 0.0
Cd71 Cd 0.33197 0.13241 0.28862 0.0
Cd72 Cd 0.36589 0.10878 0.35835 0.0
O73 O 0.4086 0.1379 0.33489 0.0
O74 O 0.30078 0.15897 0.2495 0.0
O75 O 0.29695 0.16601 0.31598 0.0
C76 C 0.28579 0.17464 0.28011 0.0
C77 C 0.36004 0.10925 0.4293 0.0
C78 C 0.41123 0.15 0.29899 0.0
C79 C 0.33517 0.05305 0.2997 0.0
O80 O 0.35529 0.05979 0.33006 0.0
O81 O 0.32014 0.0785 0.28002 0.0
O82 O 0.38576 0.09206 0.41127 0.0
O83 O 0.33715 0.12671 0.407 0.0
O84 O 0.81324 0.37889 0.27559 0.0
Cd85 Cd 0.83081 0.32717 0.28933 0.0
Cd86 Cd 0.85312 0.36185 0.3593 0.0
O87 O 0.82284 0.40361 0.33544 0.0
O88 O 0.80531 0.29551 0.24985 0.0
O89 O 0.79764 0.29148 0.31622 0.0
C90 C 0.78958 0.28022 0.28024 0.0
C91 C 0.85283 0.35667 0.43034 0.0
C92 C 0.8111 0.40592 0.29935 0.0
C93 C 0.91003 0.3324 0.3011 0.0
O94 O 0.90252 0.35247 0.33126 0.0
O95 O 0.88512 0.31657 0.28137 0.0
O96 O 0.8693 0.38263 0.41198 0.0
O97 O 0.836 0.33314 0.40832 0.0
O98 O 0.57706 0.81 0.27523 0.0
Cd99 Cd 0.62926 0.82654 0.28844 0.0
Cd100 Cd 0.59542 0.85061 0.35811 0.0
O101 O 0.55271 0.82131 0.33489 0.0
O102 O 0.66027 0.79991 0.24924 0.0
O103 O 0.66443 0.793 0.31572 0.0
C104 C 0.67543 0.78431 0.27982 0.0
C105 C 0.60127 0.85062 0.42908 0.0
C106 C 0.55001 0.80901 0.29908 0.0
C107 C 0.62608 0.90597 0.29902 0.0
O108 O 0.60597 0.89942 0.32942 0.0
O109 O 0.64105 0.88041 0.2795 0.0
O110 O 0.57554 0.86767 0.41088 0.0
O111 O 0.62418 0.83303 0.40694 0.0
O112 O 0.88166 0.6485 0.77648 0.0
Cd113 Cd 0.82971 0.63123 0.7897 0.0
Cd114 Cd 0.86406 0.60796 0.85955 0.0
O115 O 0.90619 0.63803 0.83628 0.0
O116 O 0.79844 0.65718 0.75015 0.0
O117 O 0.79403 0.66449 0.81655 0.0
C118 C 0.78303 0.67282 0.78053 0.0
C119 C 0.85834 0.60784 0.93053 0.0
C120 C 0.90868 0.65015 0.80037 0.0
C121 C 0.83429 0.55192 0.80062 0.0
O122 O 0.85438 0.55894 0.83093 0.0
O123 O 0.81873 0.57715 0.7811 0.0
O124 O 0.88436 0.59128 0.9123 0.0
O125 O 0.83506 0.62499 0.90842 0.0
O126 O 0.31197 0.88348 0.77522 0.0
Cd127 Cd 0.32894 0.83151 0.78871 0.0
Cd128 Cd 0.3522 0.86552 0.85849 0.0
O129 O 0.32273 0.90799 0.83493 0.0
O130 O 0.30266 0.80014 0.74961 0.0
O131 O 0.29562 0.79628 0.81609 0.0
C132 C 0.2871 0.78505 0.78022 0.0
C133 C 0.35162 0.85966 0.92944 0.0
C134 C 0.31061 0.91054 0.79901 0.0
C135 C 0.40835 0.83528 0.79995 0.0
O136 O 0.40138 0.85526 0.83035 0.0
O137 O 0.38302 0.82013 0.7802 0.0
O138 O 0.36868 0.88546 0.91146 0.0
O139 O 0.33436 0.83669 0.90709 0.0
O140 O 0.08017 0.31328 0.77672 0.0
Cd141 Cd 0.1321 0.33049 0.7902 0.0
Cd142 Cd 0.0977 0.35338 0.86007 0.0
O143 O 0.05555 0.32352 0.83649 0.0
O144 O 0.16345 0.30469 0.75065 0.0
O145 O 0.16773 0.29713 0.81702 0.0
C146 C 0.17879 0.28893 0.78101 0.0
C147 C 0.10339 0.35304 0.93106 0.0
C148 C 0.05311 0.31156 0.8005 0.0
C149 C 0.12755 0.40975 0.8016 0.0
O150 O 0.10747 0.40257 0.83186 0.0
O151 O 0.14309 0.38461 0.78193 0.0
O152 O 0.0774 0.36975 0.91291 0.0
O153 O 0.12665 0.33599 0.90886 0.0
O154 O 0.6499 0.07837 0.77437 0.0
Cd155 Cd 0.63301 0.13033 0.78803 0.0
Cd156 Cd 0.6099 0.09608 0.85785 0.0
O157 O 0.63943 0.05377 0.8341 0.0
O158 O 0.65918 0.16174 0.74889 0.0
O159 O 0.66644 0.16549 0.81536 0.0
C160 C 0.67485 0.17677 0.77949 0.0
C161 C 0.6103 0.1014 0.92887 0.0
C162 C 0.6514 0.05129 0.79813 0.0
C163 C 0.55364 0.12649 0.79942 0.0
O164 O 0.5607 0.1064 0.82972 0.0
O165 O 0.5789 0.14175 0.77969 0.0
O166 O 0.59334 0.07571 0.91058 0.0
O167 O 0.62757 0.12457 0.90681 0.0
O168 O 0.8827 0.31183 0.7601 0.0
Cd169 Cd 0.83067 0.32852 0.7462 0.0
Cd170 Cd 0.86498 0.35158 0.67655 0.0
O171 O 0.90738 0.32217 0.70039 0.0
O172 O 0.79922 0.30235 0.78529 0.0
O173 O 0.79561 0.29498 0.71884 0.0
C174 C 0.78429 0.28659 0.75469 0.0
C175 C 0.85948 0.35092 0.60555 0.0
C176 C 0.90985 0.31034 0.73643 0.0
C177 C 0.83447 0.40778 0.73477 0.0
O178 O 0.85473 0.40076 0.70461 0.0
O179 O 0.81915 0.38255 0.75445 0.0
O180 O 0.88524 0.36794 0.6237 0.0
O181 O 0.83633 0.33376 0.62776 0.0
O182 O 0.6494 0.88107 0.75827 0.0
Cd183 Cd 0.63205 0.82923 0.74495 0.0
Cd184 Cd 0.60864 0.86354 0.67518 0.0
O185 O 0.63863 0.90567 0.69859 0.0
O186 O 0.65797 0.79792 0.78447 0.0
O187 O 0.66525 0.7935 0.71808 0.0
C188 C 0.67358 0.78249 0.75409 0.0
C189 C 0.6087 0.85787 0.60419 0.0
C190 C 0.65087 0.90812 0.73447 0.0
C191 C 0.55261 0.83379 0.73406 0.0
O192 O 0.55953 0.8538 0.70369 0.0
O193 O 0.57791 0.81844 0.75369 0.0
O194 O 0.59204 0.88383 0.6224 0.0
O195 O 0.62584 0.83463 0.62633 0.0
O196 O 0.07919 0.65007 0.7607 0.0
Cd197 Cd 0.13123 0.6333 0.74707 0.0
Cd198 Cd 0.09698 0.6099 0.67733 0.0
O199 O 0.05459 0.63941 0.701 0.0
O200 O 0.16262 0.65959 0.78615 0.0
O201 O 0.16636 0.66672 0.71967 0.0
C202 C 0.17763 0.67523 0.75553 0.0
C203 C 0.10221 0.61009 0.6063 0.0
C204 C 0.05207 0.65143 0.73695 0.0
C205 C 0.12751 0.55399 0.73597 0.0
O206 O 0.10733 0.56085 0.70569 0.0
O207 O 0.14269 0.57931 0.75565 0.0
O208 O 0.07653 0.59318 0.62469 0.0
O209 O 0.12543 0.6274 0.62828 0.0
O210 O 0.31256 0.08075 0.75894 0.0
Cd211 Cd 0.32978 0.13258 0.74533 0.0
Cd212 Cd 0.3528 0.09802 0.67551 0.0
O213 O 0.32281 0.05605 0.69922 0.0
O214 O 0.30403 0.16398 0.78486 0.0
O215 O 0.29641 0.16819 0.71849 0.0
C216 C 0.28825 0.1793 0.7545 0.0
C217 C 0.35269 0.10321 0.60447 0.0
C218 C 0.31085 0.05368 0.73521 0.0
C219 C 0.40913 0.12793 0.73404 0.0
O220 O 0.40202 0.10778 0.70384 0.0
O221 O 0.38397 0.14345 0.75368 0.0
O222 O 0.3693 0.07734 0.6229 0.0
O223 O 0.33562 0.12664 0.6264 0.0
C224 C 0.24013 0.21875 0.30712 0.0
C225 C 0.25708 0.20208 0.27391 0.0
H226 H 0.2012 0.25778 0.32729 0.0
C227 C 0.24674 0.21226 0.23448 0.0
H228 H 0.24747 0.21147 0.33785 0.0
C229 C 0.22028 0.23885 0.22839 0.0
C230 C 0.20356 0.25574 0.2616 0.0
H231 H 0.25929 0.1999 0.20822 0.0
H232 H 0.2131 0.24628 0.19767 0.0
C233 C 0.21361 0.24528 0.30103 0.0
C234 C 0.75272 0.24105 0.23406 0.0
C235 C 0.76258 0.25122 0.27363 0.0
H236 H 0.71899 0.20759 0.19676 0.0
C237 C 0.74585 0.23397 0.3066 0.0
H238 H 0.76514 0.25382 0.20798 0.0
C239 C 0.71947 0.20741 0.30013 0.0
C240 C 0.7092 0.19764 0.26056 0.0
H241 H 0.75291 0.24116 0.33743 0.0
H242 H 0.70685 0.19484 0.32621 0.0
C243 C 0.72626 0.21456 0.22759 0.0
C244 C 0.74088 0.72022 0.22792 0.0
C245 C 0.75765 0.70326 0.26109 0.0
H246 H 0.70183 0.7592 0.20786 0.0
C247 C 0.74765 0.71364 0.30055 0.0
H248 H 0.74802 0.71284 0.19718 0.0
C249 C 0.72113 0.74016 0.30671 0.0
C250 C 0.70414 0.75689 0.27354 0.0
H251 H 0.76009 0.70109 0.32678 0.0
H252 H 0.71384 0.74738 0.33745 0.0
C253 C 0.71442 0.74679 0.23409 0.0
C254 C 0.23479 0.74435 0.22832 0.0
C255 C 0.25189 0.76129 0.26127 0.0
H256 H 0.19587 0.70509 0.20877 0.0
C257 C 0.24166 0.75155 0.30085 0.0
H258 H 0.24203 0.75129 0.19749 0.0
C259 C 0.21526 0.72502 0.30736 0.0
C260 C 0.19849 0.70775 0.27442 0.0
H261 H 0.25432 0.76414 0.32692 0.0
H262 H 0.20824 0.71786 0.3382 0.0
C263 C 0.20832 0.71788 0.23484 0.0
C264 C 0.71759 0.73642 0.72778 0.0
C265 C 0.70069 0.75356 0.76072 0.0
H266 H 0.75677 0.69738 0.70823 0.0
C267 C 0.71046 0.74332 0.80031 0.0
H268 H 0.71063 0.74368 0.69694 0.0
C269 C 0.73695 0.71683 0.80682 0.0
C270 C 0.75415 0.7 0.77388 0.0
H271 H 0.69791 0.756 0.82638 0.0
H272 H 0.74412 0.70978 0.83766 0.0
C273 C 0.74402 0.70988 0.73429 0.0
C274 C 0.21687 0.71259 0.80115 0.0
C275 C 0.20641 0.70255 0.76172 0.0
H276 H 0.25055 0.74652 0.83796 0.0
C277 C 0.22323 0.71932 0.72851 0.0
H278 H 0.20442 0.70015 0.82741 0.0
C279 C 0.24973 0.74584 0.7346 0.0
C280 C 0.25986 0.7562 0.77403 0.0
H281 H 0.2158 0.71215 0.69779 0.0
H282 H 0.26201 0.75845 0.70834 0.0
C283 C 0.24329 0.73917 0.80724 0.0
C284 C 0.21776 0.2519 0.73475 0.0
C285 C 0.20767 0.26176 0.77434 0.0
H286 H 0.25111 0.21812 0.69738 0.0
C287 C 0.22491 0.24491 0.80727 0.0
H288 H 0.20498 0.26441 0.70869 0.0
C289 C 0.25141 0.21844 0.80074 0.0
C290 C 0.26113 0.20822 0.76115 0.0
H291 H 0.21778 0.25195 0.83812 0.0
H292 H 0.26399 0.20575 0.8268 0.0
C293 C 0.24418 0.22536 0.72822 0.0
C294 C 0.71219 0.21594 0.73383 0.0
C295 C 0.70209 0.20561 0.77326 0.0
H296 H 0.74609 0.24961 0.69698 0.0
C297 C 0.71868 0.22266 0.80646 0.0
H298 H 0.69989 0.20331 0.70758 0.0
C299 C 0.74509 0.24926 0.80034 0.0
C300 C 0.75552 0.25926 0.76091 0.0
H301 H 0.71144 0.21535 0.83719 0.0
H302 H 0.75756 0.26172 0.8266 0.0
C303 C 0.73868 0.24246 0.72771 0.0
C304 C 0.13034 0.33177 0.9973 0.0
C305 C 0.10602 0.35409 0.97585 0.0
H306 H 0.1507 0.3156 0.05564 0.0
C307 C 0.0835 0.37783 0.99766 0.0
H308 H 0.148 0.31315 0.98131 0.0
C309 C 0.08522 0.37941 0.03978 0.0
C310 C 0.10929 0.35708 0.06143 0.0
H311 H 0.0645 0.39548 0.98218 0.0
H312 H 0.0674 0.39815 0.0554 0.0
C313 C 0.13182 0.33311 0.0398 0.0
C314 C 0.63204 0.12755 0.99529 0.0
C315 C 0.60929 0.1038 0.97368 0.0
H316 H 0.64859 0.14723 0.05378 0.0
C317 C 0.58515 0.08161 0.99534 0.0
H318 H 0.65098 0.14494 0.97942 0.0
C319 C 0.5836 0.08311 0.03747 0.0
C320 C 0.60637 0.1066 0.05927 0.0
H321 H 0.56716 0.06305 0.97973 0.0
H322 H 0.56455 0.06557 0.05297 0.0
C323 C 0.63075 0.12879 0.0378 0.0
C324 C 0.8313 0.62863 0.99688 0.0
C325 C 0.85569 0.6065 0.9753 0.0
H326 H 0.81088 0.64438 0.05531 0.0
C327 C 0.87824 0.58266 0.99698 0.0
H328 H 0.81362 0.64732 0.98101 0.0
C329 C 0.8765 0.5808 0.03909 0.0
C330 C 0.85237 0.60295 0.06085 0.0
H331 H 0.89729 0.56514 0.9814 0.0
H332 H 0.89434 0.56199 0.05459 0.0
C333 C 0.8298 0.62701 0.03937 0.0
C334 C 0.37803 0.87707 0.03833 0.0
C335 C 0.35513 0.85347 0.05981 0.0
H336 H 0.3947 0.89752 0.98086 0.0
C337 C 0.33079 0.83148 0.03801 0.0
H338 H 0.39707 0.89445 0.05408 0.0
C339 C 0.32963 0.83304 0.99551 0.0
C340 C 0.3525 0.85691 0.97422 0.0
H341 H 0.31286 0.81297 0.05373 0.0
H342 H 0.31071 0.81581 0.97939 0.0
C343 C 0.37662 0.87889 0.9962 0.0
C344 C 0.08216 0.58493 0.53993 0.0
C345 C 0.10454 0.60896 0.5615 0.0
H346 H 0.06595 0.56425 0.48238 0.0
C347 C 0.12846 0.63146 0.5398 0.0
H348 H 0.06346 0.56714 0.5556 0.0
C349 C 0.12968 0.63001 0.49729 0.0
C350 C 0.10732 0.60571 0.47591 0.0
H351 H 0.146 0.65032 0.55559 0.0
H352 H 0.14826 0.64764 0.48125 0.0
C353 C 0.08364 0.58322 0.4978 0.0
C354 C 0.37752 0.08266 0.53813 0.0
C355 C 0.35389 0.10552 0.55966 0.0
H356 H 0.39798 0.06609 0.48062 0.0
C357 C 0.33186 0.1299 0.53792 0.0
H358 H 0.39494 0.0636 0.55383 0.0
C359 C 0.33341 0.13113 0.49542 0.0
C360 C 0.35731 0.1083 0.47408 0.0
H361 H 0.31332 0.14781 0.55368 0.0
H362 H 0.31615 0.15009 0.47935 0.0
C363 C 0.37932 0.08415 0.49601 0.0
C364 C 0.87762 0.37708 0.49676 0.0
C365 C 0.85392 0.35437 0.47515 0.0
H366 H 0.89796 0.39361 0.55435 0.0
C367 C 0.83167 0.33019 0.49681 0.0
H368 H 0.89522 0.39597 0.48111 0.0
C369 C 0.83304 0.32904 0.53933 0.0
C370 C 0.85698 0.35175 0.56075 0.0
H371 H 0.81308 0.3124 0.48099 0.0
H372 H 0.81559 0.31027 0.55534 0.0
C373 C 0.87925 0.37567 0.5389 0.0
C374 C 0.58379 0.87791 0.53766 0.0
C375 C 0.60747 0.85525 0.55941 0.0
H376 H 0.56327 0.89406 0.47999 0.0
C377 C 0.62953 0.83076 0.53789 0.0
H378 H 0.56634 0.89706 0.55318 0.0
C379 C 0.62796 0.82923 0.4954 0.0
C380 C 0.60402 0.85188 0.47385 0.0
H381 H 0.64811 0.81299 0.55382 0.0
H382 H 0.64525 0.8102 0.47951 0.0
C383 C 0.58197 0.87614 0.49555 0.0
C384 C 0.16261 0.51139 0.24249 0.0
C385 C 0.16043 0.51708 0.28453 0.0
H386 H 0.16192 0.47271 0.19424 0.0
C387 C 0.1627 0.48702 0.3106 0.0
H388 H 0.16132 0.53396 0.22154 0.0
C389 C 0.1633 0.45185 0.2949 0.0
C390 C 0.1613 0.44611 0.25286 0.0
H391 H 0.1616 0.4905 0.34316 0.0
H392 H 0.1625 0.42925 0.31585 0.0
C393 C 0.16289 0.47622 0.2268 0.0
C394 C 0.48838 0.16173 0.22529 0.0
C395 C 0.51851 0.15915 0.25129 0.0
H396 H 0.43055 0.16166 0.22008 0.0
C397 C 0.51285 0.16084 0.29336 0.0
H398 H 0.49183 0.16102 0.19271 0.0
C399 C 0.47765 0.16097 0.30909 0.0
C400 C 0.44748 0.15972 0.28303 0.0
H401 H 0.53547 0.15928 0.31427 0.0
H402 H 0.47418 0.15964 0.34164 0.0
C403 C 0.45319 0.16218 0.24102 0.0
C404 C 0.79753 0.5071 0.29358 0.0
C405 C 0.79992 0.51288 0.25157 0.0
H406 H 0.79883 0.46842 0.34183 0.0
C407 C 0.79865 0.48279 0.22547 0.0
H408 H 0.79807 0.52969 0.31455 0.0
C409 C 0.79884 0.4476 0.24114 0.0
C410 C 0.80063 0.44188 0.28321 0.0
H411 H 0.79993 0.48632 0.19292 0.0
H412 H 0.80039 0.42505 0.2202 0.0
C413 C 0.79804 0.47192 0.30926 0.0
C414 C 0.48363 0.79799 0.30936 0.0
C415 C 0.51373 0.79922 0.28323 0.0
H416 H 0.42583 0.7997 0.31467 0.0
C417 C 0.50791 0.7967 0.24124 0.0
H418 H 0.48719 0.79937 0.3419 0.0
C419 C 0.47267 0.79713 0.22559 0.0
C420 C 0.44262 0.79976 0.25165 0.0
H421 H 0.53049 0.79719 0.22025 0.0
H422 H 0.46913 0.79781 0.19301 0.0
C423 C 0.44839 0.7981 0.29371 0.0
C424 C 0.86615 0.49651 0.77787 0.0
C425 C 0.83331 0.51477 0.78464 0.0
H426 H 0.89195 0.44858 0.75526 0.0
C427 C 0.80041 0.49793 0.77428 0.0
H428 H 0.89183 0.50922 0.78524 0.0
C429 C 0.80044 0.46274 0.75823 0.0
C430 C 0.83344 0.44489 0.75076 0.0
H431 H 0.77482 0.51175 0.77915 0.0
H432 H 0.77488 0.4497 0.75111 0.0
C433 C 0.86623 0.4621 0.76043 0.0
C434 C 0.49655 0.80058 0.75548 0.0
C435 C 0.51562 0.8332 0.75041 0.0
H436 H 0.44654 0.77574 0.77452 0.0
C437 C 0.49968 0.86595 0.76257 0.0
H438 H 0.50862 0.77505 0.74643 0.0
C439 C 0.46522 0.86618 0.77998 0.0
C440 C 0.44566 0.8338 0.78429 0.0
H441 H 0.51417 0.89133 0.75918 0.0
H442 H 0.45346 0.89184 0.78914 0.0
C443 C 0.46133 0.80097 0.77157 0.0
C444 C 0.16141 0.4633 0.77409 0.0
C445 C 0.12862 0.44702 0.78592 0.0
H446 H 0.18692 0.51108 0.74976 0.0
C447 C 0.0959 0.46594 0.78075 0.0
H448 H 0.1869 0.44899 0.77771 0.0
C449 C 0.0958 0.50038 0.7634 0.0
C450 C 0.1285 0.51696 0.75217 0.0
H451 H 0.07028 0.45369 0.78923 0.0
H452 H 0.07017 0.51438 0.75937 0.0
C453 C 0.16142 0.49852 0.75809 0.0
C454 C 0.46503 0.16122 0.75593 0.0
C455 C 0.44623 0.12854 0.75018 0.0
H456 H 0.51489 0.18616 0.77537 0.0
C457 C 0.46253 0.09571 0.7615 0.0
H458 H 0.45269 0.18681 0.74752 0.0
C459 C 0.49704 0.09547 0.7788 0.0
C460 C 0.51631 0.12794 0.78381 0.0
H461 H 0.44825 0.07026 0.7576 0.0
H462 H 0.50906 0.06975 0.78736 0.0
C463 C 0.50031 0.16085 0.77188 0.0
C464 C 0.66333 -0.01491 0.80813 0.0
C465 C 0.66137 0.01517 0.78206 0.0
H466 H 0.66235 0.92734 0.81343 0.0
C467 C 0.66331 0.00943 0.74002 0.0
H468 H 0.66241 -0.0114 0.8407 0.0
C469 C 0.66303 0.97425 0.72434 0.0
C470 C 0.66113 0.94418 0.75043 0.0
H471 H 0.66224 0.03201 0.71906 0.0
H472 H 0.66188 0.97074 0.69179 0.0
C473 C 0.66338 0.94991 0.79246 0.0
C474 C 0.95054 0.66301 0.74251 0.0
C475 C 0.94477 0.66055 0.78452 0.0
H476 H -0.01068 0.66244 0.69433 0.0
C477 C 0.97484 0.66245 0.81066 0.0
H478 H 0.92796 0.66201 0.7215 0.0
C479 C 0.01008 0.66295 0.79505 0.0
C480 C 0.01587 0.66123 0.753 0.0
H481 H 0.97131 0.66113 0.84321 0.0
H482 H 0.03267 0.66186 0.81604 0.0
C483 C -0.01423 0.66319 0.7269 0.0
C484 C 0.29881 0.01195 0.79338 0.0
C485 C 0.30067 0.01765 0.75132 0.0
H486 H 0.30015 0.97328 0.84164 0.0
C487 C 0.29847 -0.01243 0.72529 0.0
H488 H 0.30008 0.03453 0.81431 0.0
C489 C 0.29826 0.9524 0.74099 0.0
C490 C 0.30059 0.94667 0.78302 0.0
H491 H 0.29932 -0.00894 0.69272 0.0
H492 H 0.29909 0.92981 0.72005 0.0
C493 C 0.29893 0.97677 0.80908 0.0
C494 C -0.0131 0.29934 0.81049 0.0
C495 C 0.01705 0.30124 0.78447 0.0
H496 H 0.92907 0.29993 0.81561 0.0
C497 C 0.01138 0.29881 0.74244 0.0
H498 H -0.00965 0.30063 0.84305 0.0
C499 C 0.97619 0.29864 0.72667 0.0
C500 C 0.94602 0.30058 0.75265 0.0
H501 H 0.03401 0.29981 0.72153 0.0
H502 H 0.97272 0.29941 0.69409 0.0
C503 C 0.95171 0.29885 0.79472 0.0
C504 C 0.366 -0.00321 0.27775 0.0
C505 C 0.33352 0.01586 0.28389 0.0
H506 H 0.39096 0.94822 0.25567 0.0
C507 C 0.30037 -0.00022 0.27298 0.0
H508 H 0.39188 0.00889 0.28555 0.0
C509 C 0.29979 0.96457 0.25698 0.0
C510 C 0.33245 0.94593 0.25013 0.0
H511 H 0.27506 0.01422 0.27734 0.0
H512 H 0.27403 0.95214 0.24941 0.0
C513 C 0.36551 0.96235 0.26039 0.0
C514 C 0.96432 0.29912 0.27432 0.0
C515 C 0.94738 0.33175 0.28553 0.0
H516 H 0.01268 0.27415 0.25056 0.0
C517 C 0.9657 0.36468 0.27984 0.0
H518 H 0.95047 0.27347 0.27833 0.0
C519 C 0.0002 0.36515 0.26258 0.0
C520 C 0.01745 0.33262 0.25197 0.0
H521 H 0.95293 0.39017 0.28786 0.0
H522 H 0.01373 0.39093 0.25816 0.0
C523 C -0.0004 0.29951 0.25842 0.0
C524 C 0.59505 0.96117 0.27438 0.0
C525 C 0.62763 0.94302 0.28285 0.0
H526 H 0.57004 0.00905 0.25053 0.0
C527 C 0.66086 0.95991 0.27414 0.0
H528 H 0.56914 0.94841 0.28052 0.0
C529 C 0.66138 -0.00489 0.25809 0.0
C530 C 0.62867 0.0129 0.24897 0.0
H531 H 0.68626 0.94615 0.28033 0.0
H532 H 0.68718 0.00821 0.2523 0.0
C533 C 0.59557 -0.00442 0.25694 0.0
C534 C -0.00296 0.6599 0.274 0.0
C535 C 0.01367 0.62734 0.28603 0.0
H536 H 0.949 0.68486 0.24937 0.0
C537 C -0.00493 0.59447 0.28098 0.0
H538 H 0.01109 0.6855 0.27751 0.0
C539 C 0.96063 0.59399 0.26353 0.0
C540 C 0.94372 0.62647 0.25207 0.0
H541 H 0.0076 0.56901 0.28961 0.0
H542 H 0.94689 0.56825 0.25957 0.0
C543 C 0.96182 0.65954 0.25788 0.0
loop_
_geom_bond_atom_site_label_1
_geom_bond_atom_site_label_2
_geom_bond_distance
_geom_bond_site_symmetry_2
_ccdc_geom_bond_type
O0 Cd1 2.223 . S
O0 C8 1.315 . S
Cd1 O0 2.223 . S
Cd1 O4 2.297 . S
Cd1 O5 2.439 . S
Cd1 O11 2.240 . S
Cd2 O3 2.240 . S
Cd2 O10 2.223 . S
Cd2 O12 2.297 . S
Cd2 O13 2.439 . S
O3 Cd2 2.240 . S
O3 C8 1.279 . S
O4 Cd1 2.297 . S
O4 C6 1.247 . S
O5 Cd1 2.439 . S
O5 C6 1.208 . S
C6 O4 1.247 . S
C6 O5 1.208 . S
C7 O12 1.247 . S
C7 O13 1.208 . S
C8 O0 1.315 . S
C8 O3 1.279 . S
C9 O10 1.315 . S
C9 O11 1.279 . S
O10 Cd2 2.223 . S
O10 C9 1.315 . S
O11 Cd1 2.240 . S
O11 C9 1.279 . S
O12 Cd2 2.297 . S
O12 C7 1.247 . S
O13 Cd2 2.439 . S
O13 C7 1.208 . S
O14 Cd15 2.223 . S
O14 C22 1.315 . S
Cd15 O14 2.223 . S
Cd15 O18 2.297 . S
Cd15 O19 2.439 . S
Cd15 O25 2.240 . S
Cd16 O17 2.240 . S
Cd16 O24 2.223 . S
Cd16 O26 2.297 . S
Cd16 O27 2.439 . S
O17 Cd16 2.240 . S
O17 C22 1.279 . S
O18 Cd15 2.297 . S
O18 C20 1.247 . S
O19 Cd15 2.439 . S
O19 C20 1.208 . S
C20 O18 1.247 . S
C20 O19 1.208 . S
C21 O26 1.247 . S
C21 O27 1.208 . S
C22 O14 1.315 . S
C22 O17 1.279 . S
C23 O24 1.315 . S
C23 O25 1.279 . S
O24 Cd16 2.223 . S
O24 C23 1.315 . S
O25 Cd15 2.240 . S
O25 C23 1.279 . S
O26 Cd16 2.297 . S
O26 C21 1.247 . S
O27 Cd16 2.439 . S
O27 C21 1.208 . S
O28 Cd29 2.223 . S
O28 C36 1.315 . S
Cd29 O28 2.223 . S
Cd29 O32 2.297 . S
Cd29 O33 2.439 . S
Cd29 O39 2.240 . S
Cd30 O31 2.240 . S
Cd30 O38 2.223 . S
Cd30 O40 2.297 . S
Cd30 O41 2.439 . S
O31 Cd30 2.240 . S
O31 C36 1.279 . S
O32 Cd29 2.297 . S
O32 C34 1.247 . S
O33 Cd29 2.439 . S
O33 C34 1.208 . S
C34 O32 1.247 . S
C34 O33 1.208 . S
C35 O40 1.247 . S
C35 O41 1.208 . S
C36 O28 1.315 . S
C36 O31 1.279 . S
C37 O38 1.315 . S
C37 O39 1.279 . S
O38 Cd30 2.223 . S
O38 C37 1.315 . S
O39 Cd29 2.240 . S
O39 C37 1.279 . S
O40 Cd30 2.297 . S
O40 C35 1.247 . S
O41 Cd30 2.439 . S
O41 C35 1.208 . S
O42 Cd43 2.223 . S
O42 C50 1.315 . S
Cd43 O42 2.223 . S
Cd43 O46 2.297 . S
Cd43 O47 2.439 . S
Cd43 O53 2.240 . S
Cd44 O45 2.240 . S
Cd44 O52 2.223 . S
Cd44 O54 2.297 . S
Cd44 O55 2.439 . S
O45 Cd44 2.240 . S
O45 C50 1.279 . S
O46 Cd43 2.297 . S
O46 C48 1.247 . S
O47 Cd43 2.439 . S
O47 C48 1.208 . S
C48 O46 1.247 . S
C48 O47 1.208 . S
C49 O54 1.247 . S
C49 O55 1.208 . S
C50 O42 1.315 . S
C50 O45 1.279 . S
C51 O52 1.315 . S
C51 O53 1.279 . S
O52 Cd44 2.223 . S
O52 C51 1.315 . S
O53 Cd43 2.240 . S
O53 C51 1.279 . S
O54 Cd44 2.297 . S
O54 C49 1.247 . S
O55 Cd44 2.439 . S
O55 C49 1.208 . S
O56 Cd57 2.223 . S
O56 C64 1.315 . S
Cd57 O56 2.223 . S
Cd57 O60 2.297 . S
Cd57 O61 2.439 . S
Cd57 O67 2.240 . S
Cd58 O59 2.240 . S
Cd58 O66 2.223 . S
Cd58 O68 2.297 . S
Cd58 O69 2.439 . S
O59 Cd58 2.240 . S
O59 C64 1.279 . S
O60 Cd57 2.297 . S
O60 C62 1.247 . S
O61 Cd57 2.439 . S
O61 C62 1.208 . S
C62 O60 1.247 . S
C62 O61 1.208 . S
C63 O68 1.247 . S
C63 O69 1.208 . S
C64 O56 1.315 . S
C64 O59 1.279 . S
C65 O66 1.315 . S
C65 O67 1.279 . S
O66 Cd58 2.223 . S
O66 C65 1.315 . S
O67 Cd57 2.240 . S
O67 C65 1.279 . S
O68 Cd58 2.297 . S
O68 C63 1.247 . S
O69 Cd58 2.439 . S
O69 C63 1.208 . S
O70 Cd71 2.223 . S
O70 C78 1.315 . S
Cd71 O70 2.223 . S
Cd71 O74 2.297 . S
Cd71 O75 2.439 . S
Cd71 O81 2.240 . S
Cd72 O73 2.240 . S
Cd72 O80 2.223 . S
Cd72 O82 2.297 . S
Cd72 O83 2.439 . S
O73 Cd72 2.240 . S
O73 C78 1.279 . S
O74 Cd71 2.297 . S
O74 C76 1.247 . S
O75 Cd71 2.439 . S
O75 C76 1.208 . S
C76 O74 1.247 . S
C76 O75 1.208 . S
C77 O82 1.247 . S
C77 O83 1.208 . S
C78 O70 1.315 . S
C78 O73 1.279 . S
C79 O80 1.315 . S
C79 O81 1.279 . S
O80 Cd72 2.223 . S
O80 C79 1.315 . S
O81 Cd71 2.240 . S
O81 C79 1.279 . S
O82 Cd72 2.297 . S
O82 C77 1.247 . S
O83 Cd72 2.439 . S
O83 C77 1.208 . S
O84 Cd85 2.223 . S
O84 C92 1.315 . S
Cd85 O84 2.223 . S
Cd85 O88 2.297 . S
Cd85 O89 2.439 . S
Cd85 O95 2.240 . S
Cd86 O87 2.240 . S
Cd86 O94 2.223 . S
Cd86 O96 2.297 . S
Cd86 O97 2.439 . S
O87 Cd86 2.240 . S
O87 C92 1.279 . S
O88 Cd85 2.297 . S
O88 C90 1.247 . S
O89 Cd85 2.439 . S
O89 C90 1.208 . S
C90 O88 1.247 . S
C90 O89 1.208 . S
C91 O96 1.247 . S
C91 O97 1.208 . S
C92 O84 1.315 . S
C92 O87 1.279 . S
C93 O94 1.315 . S
C93 O95 1.279 . S
O94 Cd86 2.223 . S
O94 C93 1.315 . S
O95 Cd85 2.240 . S
O95 C93 1.279 . S
O96 Cd86 2.297 . S
O96 C91 1.247 . S
O97 Cd86 2.439 . S
O97 C91 1.208 . S
O98 Cd99 2.223 . S
O98 C106 1.315 . S
Cd99 O98 2.223 . S
Cd99 O102 2.297 . S
Cd99 O103 2.439 . S
Cd99 O109 2.240 . S
Cd100 O101 2.240 . S
Cd100 O108 2.223 . S
Cd100 O110 2.297 . S
Cd100 O111 2.439 . S
O101 Cd100 2.240 . S
O101 C106 1.279 . S
O102 Cd99 2.297 . S
O102 C104 1.247 . S
O103 Cd99 2.439 . S
O103 C104 1.208 . S
C104 O102 1.247 . S
C104 O103 1.208 . S
C105 O110 1.247 . S
C105 O111 1.208 . S
C106 O98 1.315 . S
C106 O101 1.279 . S
C107 O108 1.315 . S
C107 O109 1.279 . S
O108 Cd100 2.223 . S
O108 C107 1.315 . S
O109 Cd99 2.240 . S
O109 C107 1.279 . S
O110 Cd100 2.297 . S
O110 C105 1.247 . S
O111 Cd100 2.439 . S
O111 C105 1.208 . S
O112 Cd113 2.223 . S
O112 C120 1.315 . S
Cd113 O112 2.223 . S
Cd113 O116 2.297 . S
Cd113 O117 2.439 . S
Cd113 O123 2.240 . S
Cd114 O115 2.240 . S
Cd114 O122 2.223 . S
Cd114 O124 2.297 . S
Cd114 O125 2.439 . S
O115 Cd114 2.240 . S
O115 C120 1.279 . S
O116 Cd113 2.297 . S
O116 C118 1.247 . S
O117 Cd113 2.439 . S
O117 C118 1.208 . S
C118 O116 1.247 . S
C118 O117 1.208 . S
C119 O124 1.247 . S
C119 O125 1.208 . S
C120 O112 1.315 . S
C120 O115 1.279 . S
C121 O122 1.315 . S
C121 O123 1.279 . S
O122 Cd114 2.223 . S
O122 C121 1.315 . S
O123 Cd113 2.240 . S
O123 C121 1.279 . S
O124 Cd114 2.297 . S
O124 C119 1.247 . S
O125 Cd114 2.439 . S
O125 C119 1.208 . S
O126 Cd127 2.223 . S
O126 C134 1.315 . S
Cd127 O126 2.223 . S
Cd127 O130 2.297 . S
Cd127 O131 2.439 . S
Cd127 O137 2.240 . S
Cd128 O129 2.240 . S
Cd128 O136 2.223 . S
Cd128 O138 2.297 . S
Cd128 O139 2.439 . S
O129 Cd128 2.240 . S
O129 C134 1.279 . S
O130 Cd127 2.297 . S
O130 C132 1.247 . S
O131 Cd127 2.439 . S
O131 C132 1.208 . S
C132 O130 1.247 . S
C132 O131 1.208 . S
C133 O138 1.247 . S
C133 O139 1.208 . S
C134 O126 1.315 . S
C134 O129 1.279 . S
C135 O136 1.315 . S
C135 O137 1.279 . S
O136 Cd128 2.223 . S
O136 C135 1.315 . S
O137 Cd127 2.240 . S
O137 C135 1.279 . S
O138 Cd128 2.297 . S
O138 C133 1.247 . S
O139 Cd128 2.439 . S
O139 C133 1.208 . S
O140 Cd141 2.223 . S
O140 C148 1.315 . S
Cd141 O140 2.223 . S
Cd141 O144 2.297 . S
Cd141 O145 2.439 . S
Cd141 O151 2.240 . S
Cd142 O143 2.240 . S
Cd142 O150 2.223 . S
Cd142 O152 2.297 . S
Cd142 O153 2.439 . S
O143 Cd142 2.240 . S
O143 C148 1.279 . S
O144 Cd141 2.297 . S
O144 C146 1.247 . S
O145 Cd141 2.439 . S
O145 C146 1.208 . S
C146 O144 1.247 . S
C146 O145 1.208 . S
C147 O152 1.247 . S
C147 O153 1.208 . S
C148 O140 1.315 . S
C148 O143 1.279 . S
C149 O150 1.315 . S
C149 O151 1.279 . S
O150 Cd142 2.223 . S
O150 C149 1.315 . S
O151 Cd141 2.240 . S
O151 C149 1.279 . S
O152 Cd142 2.297 . S
O152 C147 1.247 . S
O153 Cd142 2.439 . S
O153 C147 1.208 . S
O154 Cd155 2.223 . S
O154 C162 1.315 . S
Cd155 O154 2.223 . S
Cd155 O158 2.297 . S
Cd155 O159 2.439 . S
Cd155 O165 2.240 . S
Cd156 O157 2.240 . S
Cd156 O164 2.223 . S
Cd156 O166 2.297 . S
Cd156 O167 2.439 . S
O157 Cd156 2.240 . S
O157 C162 1.279 . S
O158 Cd155 2.297 . S
O158 C160 1.247 . S
O159 Cd155 2.439 . S
O159 C160 1.208 . S
C160 O158 1.247 . S
C160 O159 1.208 . S
C161 O166 1.247 . S
C161 O167 1.208 . S
C162 O154 1.315 . S
C162 O157 1.279 . S
C163 O164 1.315 . S
C163 O165 1.279 . S
O164 Cd156 2.223 . S
O164 C163 1.315 . S
O165 Cd155 2.240 . S
O165 C163 1.279 . S
O166 Cd156 2.297 . S
O166 C161 1.247 . S
O167 Cd156 2.439 . S
O167 C161 1.208 . S
O168 Cd169 2.223 . S
O168 C176 1.315 . S
Cd169 O168 2.223 . S
Cd169 O172 2.297 . S
Cd169 O173 2.439 . S
Cd169 O179 2.240 . S
Cd170 O171 2.240 . S
Cd170 O178 2.223 . S
Cd170 O180 2.297 . S
Cd170 O181 2.439 . S
O171 Cd170 2.240 . S
O171 C176 1.279 . S
O172 Cd169 2.297 . S
O172 C174 1.247 . S
O173 Cd169 2.439 . S
O173 C174 1.208 . S
C174 O172 1.247 . S
C174 O173 1.208 . S
C175 O180 1.247 . S
C175 O181 1.208 . S
C176 O168 1.315 . S
C176 O171 1.279 . S
C177 O178 1.315 . S
C177 O179 1.279 . S
O178 Cd170 2.223 . S
O178 C177 1.315 . S
O179 Cd169 2.240 . S
O179 C177 1.279 . S
O180 Cd170 2.297 . S
O180 C175 1.247 . S
O181 Cd170 2.439 . S
O181 C175 1.208 . S
O182 Cd183 2.223 . S
O182 C190 1.315 . S
Cd183 O182 2.223 . S
Cd183 O186 2.297 . S
Cd183 O187 2.439 . S
Cd183 O193 2.240 . S
Cd184 O185 2.240 . S
Cd184 O192 2.223 . S
Cd184 O194 2.297 . S
Cd184 O195 2.439 . S
O185 Cd184 2.240 . S
O185 C190 1.279 . S
O186 Cd183 2.297 . S
O186 C188 1.247 . S
O187 Cd183 2.439 . S
O187 C188 1.208 . S
C188 O186 1.247 . S
C188 O187 1.208 . S
C189 O194 1.247 . S
C189 O195 1.208 . S
C190 O182 1.315 . S
C190 O185 1.279 . S
C191 O192 1.315 . S
C191 O193 1.279 . S
O192 Cd184 2.223 . S
O192 C191 1.315 . S
O193 Cd183 2.240 . S
O193 C191 1.279 . S
O194 Cd184 2.297 . S
O194 C189 1.247 . S
O195 Cd184 2.439 . S
O195 C189 1.208 . S
O196 Cd197 2.223 . S
O196 C204 1.315 . S
Cd197 O196 2.223 . S
Cd197 O200 2.297 . S
Cd197 O201 2.439 . S
Cd197 O207 2.240 . S
Cd198 O199 2.240 . S
Cd198 O206 2.223 . S
Cd198 O208 2.297 . S
Cd198 O209 2.439 . S
O199 Cd198 2.240 . S
O199 C204 1.279 . S
O200 Cd197 2.297 . S
O200 C202 1.247 . S
O201 Cd197 2.439 . S
O201 C202 1.208 . S
C202 O200 1.247 . S
C202 O201 1.208 . S
C203 O208 1.247 . S
C203 O209 1.208 . S
C204 O196 1.315 . S
C204 O199 1.279 . S
C205 O206 1.315 . S
C205 O207 1.279 . S
O206 Cd198 2.223 . S
O206 C205 1.315 . S
O207 Cd197 2.240 . S
O207 C205 1.279 . S
O208 Cd198 2.297 . S
O208 C203 1.247 . S
O209 Cd198 2.439 . S
O209 C203 1.208 . S
O210 Cd211 2.223 . S
O210 C218 1.315 . S
Cd211 O210 2.223 . S
Cd211 O214 2.297 . S
Cd211 O215 2.439 . S
Cd211 O221 2.240 . S
Cd212 O213 2.240 . S
Cd212 O220 2.223 . S
Cd212 O222 2.297 . S
Cd212 O223 2.439 . S
O213 Cd212 2.240 . S
O213 C218 1.279 . S
O214 Cd211 2.297 . S
O214 C216 1.247 . S
O215 Cd211 2.439 . S
O215 C216 1.208 . S
C216 O214 1.247 . S
C216 O215 1.208 . S
C217 O222 1.247 . S
C217 O223 1.208 . S
C218 O210 1.315 . S
C218 O213 1.279 . S
C219 O220 1.315 . S
C219 O221 1.279 . S
O220 Cd212 2.223 . S
O220 C219 1.315 . S
O221 Cd211 2.240 . S
O221 C219 1.279 . S
O222 Cd212 2.297 . S
O222 C217 1.247 . S
O223 Cd212 2.439 . S
O223 C217 1.208 . S
C224 C225 1.387 . S
C224 H228 0.950 . S
C224 C233 1.390 . S
C225 C224 1.387 . S
C225 C227 1.387 . S
H226 C233 0.950 . S
C227 C225 1.387 . S
C227 C229 1.390 . S
C227 H231 0.950 . S
H228 C224 0.950 . S
C229 C227 1.390 . S
C229 C230 1.387 . S
C229 H232 0.950 . S
C230 C229 1.387 . S
C230 C233 1.387 . S
H231 C227 0.950 . S
H232 C229 0.950 . S
C233 C224 1.390 . S
C233 H226 0.950 . S
C233 C230 1.387 . S
C234 C235 1.387 . S
C234 H238 0.950 . S
C234 C243 1.390 . S
C235 C234 1.387 . S
C235 C237 1.387 . S
H236 C243 0.950 . S
C237 C235 1.387 . S
C237 C239 1.390 . S
C237 H241 0.950 . S
H238 C234 0.950 . S
C239 C237 1.390 . S
C239 C240 1.387 . S
C239 H242 0.950 . S
C240 C239 1.387 . S
C240 C243 1.387 . S
H241 C237 0.950 . S
H242 C239 0.950 . S
C243 C234 1.390 . S
C243 H236 0.950 . S
C243 C240 1.387 . S
C244 C245 1.387 . S
C244 H248 0.950 . S
C244 C253 1.390 . S
C245 C244 1.387 . S
C245 C247 1.387 . S
H246 C253 0.950 . S
C247 C245 1.387 . S
C247 C249 1.390 . S
C247 H251 0.950 . S
H248 C244 0.950 . S
C249 C247 1.390 . S
C249 C250 1.387 . S
C249 H252 0.950 . S
C250 C249 1.387 . S
C250 C253 1.387 . S
H251 C247 0.950 . S
H252 C249 0.950 . S
C253 C244 1.390 . S
C253 H246 0.950 . S
C253 C250 1.387 . S
C254 C255 1.387 . S
C254 H258 0.950 . S
C254 C263 1.390 . S
C255 C254 1.387 . S
C255 C257 1.387 . S
H256 C263 0.950 . S
C257 C255 1.387 . S
C257 C259 1.390 . S
C257 H261 0.950 . S
H258 C254 0.950 . S
C259 C257 1.390 . S
C259 C260 1.387 . S
C259 H262 0.950 . S
C260 C259 1.387 . S
C260 C263 1.387 . S
H261 C257 0.950 . S
H262 C259 0.950 . S
C263 C254 1.390 . S
C263 H256 0.950 . S
C263 C260 1.387 . S
C264 C265 1.387 . S
C264 H268 0.950 . S
C264 C273 1.390 . S
C265 C264 1.387 . S
C265 C267 1.387 . S
H266 C273 0.950 . S
C267 C265 1.387 . S
C267 C269 1.390 . S
C267 H271 0.950 . S
H268 C264 0.950 . S
C269 C267 1.390 . S
C269 C270 1.387 . S
C269 H272 0.950 . S
C270 C269 1.387 . S
C270 C273 1.387 . S
H271 C267 0.950 . S
H272 C269 0.950 . S
C273 C264 1.390 . S
C273 H266 0.950 . S
C273 C270 1.387 . S
C274 C275 1.387 . S
C274 H278 0.950 . S
C274 C283 1.390 . S
C275 C274 1.387 . S
C275 C277 1.387 . S
H276 C283 0.950 . S
C277 C275 1.387 . S
C277 C279 1.390 . S
C277 H281 0.950 . S
H278 C274 0.950 . S
C279 C277 1.390 . S
C279 C280 1.387 . S
C279 H282 0.950 . S
C280 C279 1.387 . S
C280 C283 1.387 . S
H281 C277 0.950 . S
H282 C279 0.950 . S
C283 C274 1.390 . S
C283 H276 0.950 . S
C283 C280 1.387 . S
C284 C285 1.387 . S
C284 H288 0.950 . S
C284 C293 1.390 . S
C285 C284 1.387 . S
C285 C287 1.387 . S
H286 C293 0.950 . S
C287 C285 1.387 . S
C287 C289 1.390 . S
C287 H291 0.950 . S
H288 C284 0.950 . S
C289 C287 1.390 . S
C289 C290 1.387 . S
C289 H292 0.950 . S
C290 C289 1.387 . S
C290 C293 1.387 . S
H291 C287 0.950 . S
H292 C289 0.950 . S
C293 C284 1.390 . S
C293 H286 0.950 . S
C293 C290 1.387 . S
C294 C295 1.387 . S
C294 H298 0.950 . S
C294 C303 1.390 . S
C295 C294 1.387 . S
C295 C297 1.387 . S
H296 C303 0.950 . S
C297 C295 1.387 . S
C297 C299 1.390 . S
C297 H301 0.950 . S
H298 C294 0.950 . S
C299 C297 1.390 . S
C299 C300 1.387 . S
C299 H302 0.950 . S
C300 C299 1.387 . S
C300 C303 1.387 . S
H301 C297 0.950 . S
H302 C299 0.950 . S
C303 C294 1.390 . S
C303 H296 0.950 . S
C303 C300 1.387 . S
C304 C305 1.387 . S
C304 H308 0.950 . S
C304 C313 1.390 1_556 S
C305 C304 1.387 . S
C305 C307 1.387 . S
H306 C313 0.950 . S
C307 C305 1.387 . S
C307 C309 1.390 1_556 S
C307 H311 0.950 . S
H308 C304 0.950 . S
C309 C307 1.390 1_554 S
C309 C310 1.387 . S
C309 H312 0.950 . S
C310 C309 1.387 . S
C310 C313 1.387 . S
H311 C307 0.950 . S
H312 C309 0.950 . S
C313 C304 1.390 1_554 S
C313 H306 0.950 . S
C313 C310 1.387 . S
C314 C315 1.387 . S
C314 H318 0.950 . S
C314 C323 1.390 1_556 S
C315 C314 1.387 . S
C315 C317 1.387 . S
H316 C323 0.950 . S
C317 C315 1.387 . S
C317 C319 1.390 1_556 S
C317 H321 0.950 . S
H318 C314 0.950 . S
C319 C317 1.390 1_554 S
C319 C320 1.387 . S
C319 H322 0.950 . S
C320 C319 1.387 . S
C320 C323 1.387 . S
H321 C317 0.950 . S
H322 C319 0.950 . S
C323 C314 1.390 1_554 S
C323 H316 0.950 . S
C323 C320 1.387 . S
C324 C325 1.387 . S
C324 H328 0.950 . S
C324 C333 1.390 1_556 S
C325 C324 1.387 . S
C325 C327 1.387 . S
H326 C333 0.950 . S
C327 C325 1.387 . S
C327 C329 1.390 1_556 S
C327 H331 0.950 . S
H328 C324 0.950 . S
C329 C327 1.390 1_554 S
C329 C330 1.387 . S
C329 H332 0.950 . S
C330 C329 1.387 . S
C330 C333 1.387 . S
H331 C327 0.950 . S
H332 C329 0.950 . S
C333 C324 1.390 1_554 S
C333 H326 0.950 . S
C333 C330 1.387 . S
C334 C335 1.387 . S
C334 H338 0.950 . S
C334 C343 1.390 1_554 S
C335 C334 1.387 . S
C335 C337 1.387 . S
H336 C343 0.950 . S
C337 C335 1.387 . S
C337 C339 1.390 1_554 S
C337 H341 0.950 . S
H338 C334 0.950 . S
C339 C337 1.390 1_556 S
C339 C340 1.387 . S
C339 H342 0.950 . S
C340 C339 1.387 . S
C340 C343 1.387 . S
H341 C337 0.950 . S
H342 C339 0.950 . S
C343 C334 1.390 1_556 S
C343 H336 0.950 . S
C343 C340 1.387 . S
C344 C345 1.387 . S
C344 H348 0.950 . S
C344 C353 1.390 . S
C345 C344 1.387 . S
C345 C347 1.387 . S
H346 C353 0.950 . S
C347 C345 1.387 . S
C347 C349 1.390 . S
C347 H351 0.950 . S
H348 C344 0.950 . S
C349 C347 1.390 . S
C349 C350 1.387 . S
C349 H352 0.950 . S
C350 C349 1.387 . S
C350 C353 1.387 . S
H351 C347 0.950 . S
H352 C349 0.950 . S
C353 C344 1.390 . S
C353 H346 0.950 . S
C353 C350 1.387 . S
C354 C355 1.387 . S
C354 H358 0.950 . S
C354 C363 1.390 . S
C355 C354 1.387 . S
C355 C357 1.387 . S
H356 C363 0.950 . S
C357 C355 1.387 . S
C357 C359 1.390 . S
C357 H361 0.950 . S
H358 C354 0.950 . S
C359 C357 1.390 . S
C359 C360 1.387 . S
C359 H362 0.950 . S
C360 C359 1.387 . S
C360 C363 1.387 . S
H361 C357 0.950 . S
H362 C359 0.950 . S
C363 C354 1.390 . S
C363 H356 0.950 . S
C363 C360 1.387 . S
C364 C365 1.387 . S
C364 H368 0.950 . S
C364 C373 1.390 . S
C365 C364 1.387 . S
C365 C367 1.387 . S
H366 C373 0.950 . S
C367 C365 1.387 . S
C367 C369 1.390 . S
C367 H371 0.950 . S
H368 C364 0.950 . S
C369 C367 1.390 . S
C369 C370 1.387 . S
C369 H372 0.950 . S
C370 C369 1.387 . S
C370 C373 1.387 . S
H371 C367 0.950 . S
H372 C369 0.950 . S
C373 C364 1.390 . S
C373 H366 0.950 . S
C373 C370 1.387 . S
C374 C375 1.387 . S
C374 H378 0.950 . S
C374 C383 1.390 . S
C375 C374 1.387 . S
C375 C377 1.387 . S
H376 C383 0.950 . S
C377 C375 1.387 . S
C377 C379 1.390 . S
C377 H381 0.950 . S
H378 C374 0.950 . S
C379 C377 1.390 . S
C379 C380 1.387 . S
C379 H382 0.950 . S
C380 C379 1.387 . S
C380 C383 1.387 . S
H381 C377 0.950 . S
H382 C379 0.950 . S
C383 C374 1.390 . S
C383 H376 0.950 . S
C383 C380 1.387 . S
C384 C385 1.387 . S
C384 H388 0.950 . S
C384 C393 1.390 . S
C385 C384 1.387 . S
C385 C387 1.387 . S
H386 C393 0.950 . S
C387 C385 1.387 . S
C387 C389 1.390 . S
C387 H391 0.950 . S
H388 C384 0.950 . S
C389 C387 1.390 . S
C389 C390 1.387 . S
C389 H392 0.950 . S
C390 C389 1.387 . S
C390 C393 1.387 . S
H391 C387 0.950 . S
H392 C389 0.950 . S
C393 C384 1.390 . S
C393 H386 0.950 . S
C393 C390 1.387 . S
C394 C395 1.387 . S
C394 H398 0.950 . S
C394 C403 1.390 . S
C395 C394 1.387 . S
C395 C397 1.387 . S
H396 C403 0.950 . S
C397 C395 1.387 . S
C397 C399 1.390 . S
C397 H401 0.950 . S
H398 C394 0.950 . S
C399 C397 1.390 . S
C399 C400 1.387 . S
C399 H402 0.950 . S
C400 C399 1.387 . S
C400 C403 1.387 . S
H401 C397 0.950 . S
H402 C399 0.950 . S
C403 C394 1.390 . S
C403 H396 0.950 . S
C403 C400 1.387 . S
C404 C405 1.387 . S
C404 H408 0.950 . S
C404 C413 1.390 . S
C405 C404 1.387 . S
C405 C407 1.387 . S
H406 C413 0.950 . S
C407 C405 1.387 . S
C407 C409 1.390 . S
C407 H411 0.950 . S
H408 C404 0.950 . S
C409 C407 1.390 . S
C409 C410 1.387 . S
C409 H412 0.950 . S
C410 C409 1.387 . S
C410 C413 1.387 . S
H411 C407 0.950 . S
H412 C409 0.950 . S
C413 C404 1.390 . S
C413 H406 0.950 . S
C413 C410 1.387 . S
C414 C415 1.387 . S
C414 H418 0.950 . S
C414 C423 1.390 . S
C415 C414 1.387 . S
C415 C417 1.387 . S
H416 C423 0.950 . S
C417 C415 1.387 . S
C417 C419 1.390 . S
C417 H421 0.950 . S
H418 C414 0.950 . S
C419 C417 1.390 . S
C419 C420 1.387 . S
C419 H422 0.950 . S
C420 C419 1.387 . S
C420 C423 1.387 . S
H421 C417 0.950 . S
H422 C419 0.950 . S
C423 C414 1.390 . S
C423 H416 0.950 . S
C423 C420 1.387 . S
C424 C425 1.387 . S
C424 H428 0.950 . S
C424 C433 1.390 . S
C425 C424 1.387 . S
C425 C427 1.387 . S
H426 C433 0.950 . S
C427 C425 1.387 . S
C427 C429 1.390 . S
C427 H431 0.950 . S
H428 C424 0.950 . S
C429 C427 1.390 . S
C429 C430 1.387 . S
C429 H432 0.950 . S
C430 C429 1.387 . S
C430 C433 1.387 . S
H431 C427 0.950 . S
H432 C429 0.950 . S
C433 C424 1.390 . S
C433 H426 0.950 . S
C433 C430 1.387 . S
C434 C435 1.387 . S
C434 H438 0.950 . S
C434 C443 1.390 . S
C435 C434 1.387 . S
C435 C437 1.387 . S
H436 C443 0.950 . S
C437 C435 1.387 . S
C437 C439 1.390 . S
C437 H441 0.950 . S
H438 C434 0.950 . S
C439 C437 1.390 . S
C439 C440 1.387 . S
C439 H442 0.950 . S
C440 C439 1.387 . S
C440 C443 1.387 . S
H441 C437 0.950 . S
H442 C439 0.950 . S
C443 C434 1.390 . S
C443 H436 0.950 . S
C443 C440 1.387 . S
C444 C445 1.387 . S
C444 H448 0.950 . S
C444 C453 1.390 . S
C445 C444 1.387 . S
C445 C447 1.387 . S
H446 C453 0.950 . S
C447 C445 1.387 . S
C447 C449 1.390 . S
C447 H451 0.950 . S
H448 C444 0.950 . S
C449 C447 1.390 . S
C449 C450 1.387 . S
C449 H452 0.950 . S
C450 C449 1.387 . S
C450 C453 1.387 . S
H451 C447 0.950 . S
H452 C449 0.950 . S
C453 C444 1.390 . S
C453 H446 0.950 . S
C453 C450 1.387 . S
C454 C455 1.387 . S
C454 H458 0.950 . S
C454 C463 1.390 . S
C455 C454 1.387 . S
C455 C457 1.387 . S
H456 C463 0.950 . S
C457 C455 1.387 . S
C457 C459 1.390 . S
C457 H461 0.950 . S
H458 C454 0.950 . S
C459 C457 1.390 . S
C459 C460 1.387 . S
C459 H462 0.950 . S
C460 C459 1.387 . S
C460 C463 1.387 . S
H461 C457 0.950 . S
H462 C459 0.950 . S
C463 C454 1.390 . S
C463 H456 0.950 . S
C463 C460 1.387 . S
C464 C465 1.387 . S
C464 H468 0.950 . S
C464 C473 1.390 1_545 S
C465 C464 1.387 . S
C465 C467 1.387 . S
H466 C473 0.950 . S
C467 C465 1.387 . S
C467 C469 1.390 1_545 S
C467 H471 0.950 . S
H468 C464 0.950 . S
C469 C467 1.390 1_565 S
C469 C470 1.387 . S
C469 H472 0.950 . S
C470 C469 1.387 . S
C470 C473 1.387 . S
H471 C467 0.950 . S
H472 C469 0.950 . S
C473 C464 1.390 1_565 S
C473 H466 0.950 . S
C473 C470 1.387 . S
C474 C475 1.387 . S
C474 H478 0.950 . S
C474 C483 1.390 1_655 S
C475 C474 1.387 . S
C475 C477 1.387 . S
H476 C483 0.950 . S
C477 C475 1.387 . S
C477 C479 1.390 1_655 S
C477 H481 0.950 . S
H478 C474 0.950 . S
C479 C477 1.390 1_455 S
C479 C480 1.387 . S
C479 H482 0.950 . S
C480 C479 1.387 . S
C480 C483 1.387 . S
H481 C477 0.950 . S
H482 C479 0.950 . S
C483 C474 1.390 1_455 S
C483 H476 0.950 . S
C483 C480 1.387 . S
C484 C485 1.387 . S
C484 H488 0.950 . S
C484 C493 1.390 1_545 S
C485 C484 1.387 . S
C485 C487 1.387 . S
H486 C493 0.950 . S
C487 C485 1.387 . S
C487 C489 1.390 1_545 S
C487 H491 0.950 . S
H488 C484 0.950 . S
C489 C487 1.390 1_565 S
C489 C490 1.387 . S
C489 H492 0.950 . S
C490 C489 1.387 . S
C490 C493 1.387 . S
H491 C487 0.950 . S
H492 C489 0.950 . S
C493 C484 1.390 1_565 S
C493 H486 0.950 . S
C493 C490 1.387 . S
C494 C495 1.387 . S
C494 H498 0.950 . S
C494 C503 1.390 1_455 S
C495 C494 1.387 . S
C495 C497 1.387 . S
H496 C503 0.950 . S
C497 C495 1.387 . S
C497 C499 1.390 1_455 S
C497 H501 0.950 . S
H498 C494 0.950 . S
C499 C497 1.390 1_655 S
C499 C500 1.387 . S
C499 H502 0.950 . S
C500 C499 1.387 . S
C500 C503 1.387 . S
H501 C497 0.950 . S
H502 C499 0.950 . S
C503 C494 1.390 1_655 S
C503 H496 0.950 . S
C503 C500 1.387 . S
C504 C505 1.387 . S
C504 H508 0.950 . S
C504 C513 1.390 1_545 S
C505 C504 1.387 . S
C505 C507 1.387 . S
H506 C513 0.950 . S
C507 C505 1.387 . S
C507 C509 1.390 1_545 S
C507 H511 0.950 . S
H508 C504 0.950 . S
C509 C507 1.390 1_565 S
C509 C510 1.387 . S
C509 H512 0.950 . S
C510 C509 1.387 . S
C510 C513 1.387 . S
H511 C507 0.950 . S
H512 C509 0.950 . S
C513 C504 1.390 1_565 S
C513 H506 0.950 . S
C513 C510 1.387 . S
C514 C515 1.387 . S
C514 H518 0.950 . S
C514 C523 1.390 1_655 S
C515 C514 1.387 . S
C515 C517 1.387 . S
H516 C523 0.950 . S
C517 C515 1.387 . S
C517 C519 1.390 1_655 S
C517 H521 0.950 . S
H518 C514 0.950 . S
C519 C517 1.390 1_455 S
C519 C520 1.387 . S
C519 H522 0.950 . S
C520 C519 1.387 . S
C520 C523 1.387 . S
H521 C517 0.950 . S
H522 C519 0.950 . S
C523 C514 1.390 1_455 S
C523 H516 0.950 . S
C523 C520 1.387 . S
C524 C525 1.387 . S
C524 H528 0.950 . S
C524 C533 1.390 1_565 S
C525 C524 1.387 . S
C525 C527 1.387 . S
H526 C533 0.950 . S
C527 C525 1.387 . S
C527 C529 1.390 1_565 S
C527 H531 0.950 . S
H528 C524 0.950 . S
C529 C527 1.390 1_545 S
C529 C530 1.387 . S
C529 H532 0.950 . S
C530 C529 1.387 . S
C530 C533 1.387 . S
H531 C527 0.950 . S
H532 C529 0.950 . S
C533 C524 1.390 1_545 S
C533 H526 0.950 . S
C533 C530 1.387 . S
C534 C535 1.387 . S
C534 H538 0.950 . S
C534 C543 1.390 1_455 S
C535 C534 1.387 . S
C535 C537 1.387 . S
H536 C543 0.950 . S
C537 C535 1.387 . S
C537 C539 1.390 1_455 S
C537 H541 0.950 . S
H538 C534 0.950 . S
C539 C537 1.390 1_655 S
C539 C540 1.387 . S
C539 H542 0.950 . S
C540 C539 1.387 . S
C540 C543 1.387 . S
H541 C537 0.950 . S
H542 C539 0.950 . S
C543 C534 1.390 1_655 S
C543 H536 0.950 . S
C543 C540 1.387 . S
C225 C76 1.557 . S
C230 C6 1.559 . S
C235 C90 1.559 . S
C240 C20 1.557 . S
C245 C34 1.556 . S
C250 C104 1.558 . S
C255 C48 1.558 . S
C260 C62 1.559 . S
C265 C188 1.557 . S
C270 C118 1.559 . S
C275 C202 1.557 . S
C280 C132 1.556 . S
C285 C146 1.559 . S
C290 C216 1.557 . S
C295 C160 1.559 . S
C300 C174 1.557 . S
C305 C147 1.491 . S
C310 C7 1.492 . S
C315 C161 1.492 . S
C320 C21 1.491 . S
C325 C119 1.491 . S
C330 C35 1.492 . S
C335 C49 1.492 . S
C340 C133 1.494 . S
C345 C203 1.494 . S
C350 C63 1.493 . S
C355 C217 1.492 . S
C360 C77 1.494 . S
C365 C91 1.493 . S
C370 C175 1.494 . S
C375 C189 1.492 . S
C380 C105 1.494 . S
C385 C64 0.765 . S
C390 C8 0.765 . S
C395 C22 0.765 . S
C400 C78 0.765 . S
C405 C36 0.765 . S
C410 C92 0.765 . S
C415 C106 0.766 . S
C420 C50 0.766 . S
C425 C121 2.165 . S
C430 C177 2.165 . S
C435 C191 2.165 . S
C440 C135 2.165 . S
C445 C149 2.165 . S
C450 C205 2.165 . S
C455 C219 2.165 . S
C460 C163 2.165 . S
C465 C162 0.766 . S
C470 C190 0.766 . S
C475 C120 0.765 . S
C480 C204 0.765 . S
C485 C218 0.766 . S
C490 C134 0.766 . S
C495 C148 0.766 . S
C500 C176 0.766 . S
C505 C79 2.165 . S
C510 C51 2.165 . S
C515 C93 2.165 . S
C520 C9 2.165 . S
C525 C107 2.165 . S
C530 C23 2.165 . S
C535 C65 2.165 . S
C540 C37 2.165 . S
