# Generated by pormake.
# Topology why, (6)-cn, num edge types: 1
# Building blocks:
#     Node 0, Type 0, BuildingBlock: VOLQOD_clean_sbu_1, # of connection points: 6
#     Node 1, Type 0, BuildingBlock: VOLQOD_clean_sbu_1, # of connection points: 6
#     Node 2, Type 0, BuildingBlock: VOLQOD_clean_sbu_1, # of connection points: 6
#     Node 3, Type 0, BuildingBlock: VOLQOD_clean_sbu_1, # of connection points: 6
#     Node 4, Type 0, BuildingBlock: VOLQOD_clean_sbu_1, # of connection points: 6
#     Node 5, Type 0, BuildingBlock: VOLQOD_clean_sbu_1, # of connection points: 6
#     Node 6, Type 0, BuildingBlock: VOLQOD_clean_sbu_1, # of connection points: 6
#     Node 7, Type 0, BuildingBlock: VOLQOD_clean_sbu_1, # of connection points: 6
#     Node 8, Type 0, BuildingBlock: VOLQOD_clean_sbu_1, # of connection points: 6
#     Node 9, Type 0, BuildingBlock: VOLQOD_clean_sbu_1, # of connection points: 6
#     Node 10, Type 0, BuildingBlock: VOLQOD_clean_sbu_1, # of connection points: 6
#     Node 11, Type 0, BuildingBlock: VOLQOD_clean_sbu_1, # of connection points: 6
#     Node 12, Type 0, BuildingBlock: VOLQOD_clean_sbu_1, # of connection points: 6
#     Node 13, Type 0, BuildingBlock: VOLQOD_clean_sbu_1, # of connection points: 6
#     Node 14, Type 0, BuildingBlock: VOLQOD_clean_sbu_1, # of connection points: 6
#     Node 15, Type 0, BuildingBlock: VOLQOD_clean_sbu_1, # of connection points: 6
#     Edge 16, Type (0, 0), BuildingBlock: CIFDUS_clean_linker_0, # of connection points: 2
#     Edge 17, Type (0, 0), BuildingBlock: CIFDUS_clean_linker_0, # of connection points: 2
#     Edge 18, Type (0, 0), BuildingBlock: CIFDUS_clean_linker_0, # of connection points: 2
#     Edge 19, Type (0, 0), BuildingBlock: CIFDUS_clean_linker_0, # of connection points: 2
#     Edge 20, Type (0, 0), BuildingBlock: CIFDUS_clean_linker_0, # of connection points: 2
#     Edge 21, Type (0, 0), BuildingBlock: CIFDUS_clean_linker_0, # of connection points: 2
#     Edge 22, Type (0, 0), BuildingBlock: CIFDUS_clean_linker_0, # of connection points: 2
#     Edge 23, Type (0, 0), BuildingBlock: CIFDUS_clean_linker_0, # of connection points: 2
#     Edge 24, Type (0, 0), BuildingBlock: CIFDUS_clean_linker_0, # of connection points: 2
#     Edge 25, Type (0, 0), BuildingBlock: CIFDUS_clean_linker_0, # of connection points: 2
#     Edge 26, Type (0, 0), BuildingBlock: CIFDUS_clean_linker_0, # of connection points: 2
#     Edge 27, Type (0, 0), BuildingBlock: CIFDUS_clean_linker_0, # of connection points: 2
#     Edge 28, Type (0, 0), BuildingBlock: CIFDUS_clean_linker_0, # of connection points: 2
#     Edge 29, Type (0, 0), BuildingBlock: CIFDUS_clean_linker_0, # of connection points: 2
#     Edge 30, Type (0, 0), BuildingBlock: CIFDUS_clean_linker_0, # of connection points: 2
#     Edge 31, Type (0, 0), BuildingBlock: CIFDUS_clean_linker_0, # of connection points: 2
#     Edge 32, Type (0, 0), BuildingBlock: CIFDUS_clean_linker_0, # of connection points: 2
#     Edge 33, Type (0, 0), BuildingBlock: CIFDUS_clean_linker_0, # of connection points: 2
#     Edge 34, Type (0, 0), BuildingBlock: CIFDUS_clean_linker_0, # of connection points: 2
#     Edge 35, Type (0, 0), BuildingBlock: CIFDUS_clean_linker_0, # of connection points: 2
#     Edge 36, Type (0, 0), BuildingBlock: CIFDUS_clean_linker_0, # of connection points: 2
#     Edge 37, Type (0, 0), BuildingBlock: CIFDUS_clean_linker_0, # of connection points: 2
#     Edge 38, Type (0, 0), BuildingBlock: CIFDUS_clean_linker_0, # of connection points: 2
#     Edge 39, Type (0, 0), BuildingBlock: CIFDUS_clean_linker_0, # of connection points: 2
#     Edge 40, Type (0, 0), BuildingBlock: CIFDUS_clean_linker_0, # of connection points: 2
#     Edge 41, Type (0, 0), BuildingBlock: CIFDUS_clean_linker_0, # of connection points: 2
#     Edge 42, Type (0, 0), BuildingBlock: CIFDUS_clean_linker_0, # of connection points: 2
#     Edge 43, Type (0, 0), BuildingBlock: CIFDUS_clean_linker_0, # of connection points: 2
#     Edge 44, Type (0, 0), BuildingBlock: CIFDUS_clean_linker_0, # of connection points: 2
#     Edge 45, Type (0, 0), BuildingBlock: CIFDUS_clean_linker_0, # of connection points: 2
#     Edge 46, Type (0, 0), BuildingBlock: CIFDUS_clean_linker_0, # of connection points: 2
#     Edge 47, Type (0, 0), BuildingBlock: CIFDUS_clean_linker_0, # of connection points: 2
#     Edge 48, Type (0, 0), BuildingBlock: CIFDUS_clean_linker_0, # of connection points: 2
#     Edge 49, Type (0, 0), BuildingBlock: CIFDUS_clean_linker_0, # of connection points: 2
#     Edge 50, Type (0, 0), BuildingBlock: CIFDUS_clean_linker_0, # of connection points: 2
#     Edge 51, Type (0, 0), BuildingBlock: CIFDUS_clean_linker_0, # of connection points: 2
#     Edge 52, Type (0, 0), BuildingBlock: CIFDUS_clean_linker_0, # of connection points: 2
#     Edge 53, Type (0, 0), BuildingBlock: CIFDUS_clean_linker_0, # of connection points: 2
#     Edge 54, Type (0, 0), BuildingBlock: CIFDUS_clean_linker_0, # of connection points: 2
#     Edge 55, Type (0, 0), BuildingBlock: CIFDUS_clean_linker_0, # of connection points: 2
#     Edge 56, Type (0, 0), BuildingBlock: CIFDUS_clean_linker_0, # of connection points: 2
#     Edge 57, Type (0, 0), BuildingBlock: CIFDUS_clean_linker_0, # of connection points: 2
#     Edge 58, Type (0, 0), BuildingBlock: CIFDUS_clean_linker_0, # of connection points: 2
#     Edge 59, Type (0, 0), BuildingBlock: CIFDUS_clean_linker_0, # of connection points: 2
#     Edge 60, Type (0, 0), BuildingBlock: CIFDUS_clean_linker_0, # of connection points: 2
#     Edge 61, Type (0, 0), BuildingBlock: CIFDUS_clean_linker_0, # of connection points: 2
#     Edge 62, Type (0, 0), BuildingBlock: CIFDUS_clean_linker_0, # of connection points: 2
#     Edge 63, Type (0, 0), BuildingBlock: CIFDUS_clean_linker_0, # of connection points: 2
# Relax obj value: 0.320
# Max RMSD: 0.187
# Mean RMSD: 0.187
data_MOF--net-why--node1-VOLQOD_clean_sbu_1--edge1-CIFDUS_clean_linker_0
_symmetry_space_group_name_H-M    P1
_symmetry_Int_Tables_number       1
_symmetry_cell_setting            triclinic
loop_
_symmetry_equiv_pos_as_xyz
'x, y, z'
_cell_length_a     43.7941
_cell_length_b     44.00337
_cell_length_c     28.787632
_cell_angle_alpha  90.236537
_cell_angle_beta   90.41174
_cell_angle_gamma 89.990248
loop_
_atom_site_label
_atom_site_type_symbol
_atom_site_fract_x
_atom_site_fract_y
_atom_site_fract_z
_atom_type_partial_charge
O0 O 0.30729 0.25103 0.95505 0.0
Zn1 Zn 0.30458 0.20719 0.96884 0.0
O2 O 0.31691 0.1991 0.03192 0.0
Zn3 Zn 0.35463 0.17717 0.03134 0.0
Zn4 Zn 0.32189 0.23752 0.06544 0.0
Zn5 Zn 0.28641 0.17312 0.06007 0.0
O6 O 0.35161 0.13988 0.06814 0.0
O7 O 0.3042 0.1369 0.09349 0.0
O8 O 0.33144 0.18605 0.92262 0.0
O9 O 0.36688 0.1649 0.96745 0.0
O10 O 0.3873 0.20036 0.0636 0.0
O11 O 0.36308 0.23897 0.09722 0.0
O12 O 0.28904 0.24098 0.11414 0.0
O13 O 0.26275 0.19216 0.95624 0.0
O14 O 0.26427 0.19693 0.10723 0.0
O15 O 0.25585 0.15885 0.01305 0.0
C16 C 0.31477 0.27474 0.97774 0.0
C17 C 0.33133 0.12671 0.09193 0.0
C18 C 0.38704 0.22307 0.09104 0.0
C19 C 0.35525 0.16985 0.92761 0.0
C20 C 0.26773 0.22288 0.12606 0.0
C21 C 0.24772 0.17072 0.9747 0.0
O22 O 0.32122 0.2735 0.02097 0.0
O23 O 0.5116 0.58896 0.22168 0.0
Zn24 Zn 0.55512 0.5919 0.24067 0.0
O25 O 0.56028 0.60792 0.30271 0.0
Zn26 Zn 0.58489 0.64454 0.29959 0.0
Zn27 Zn 0.52 0.61735 0.32762 0.0
Zn28 Zn 0.58121 0.57753 0.34102 0.0
O29 O 0.62203 0.64057 0.33945 0.0
O30 O 0.61807 0.59536 0.37293 0.0
O31 O 0.57533 0.61749 0.19297 0.0
O32 O 0.59839 0.65342 0.23432 0.0
O33 O 0.56138 0.68063 0.32266 0.0
O34 O 0.51765 0.66122 0.34741 0.0
O35 O 0.51082 0.58996 0.38159 0.0
O36 O 0.57401 0.55165 0.23507 0.0
O37 O 0.55282 0.56199 0.38955 0.0
O38 O 0.59555 0.54139 0.30307 0.0
C39 C 0.48698 0.59891 0.23914 0.0
C40 C 0.63196 0.62047 0.36737 0.0
C41 C 0.5354 0.68382 0.34164 0.0
C42 C 0.59229 0.64084 0.19545 0.0
C43 C 0.52585 0.56897 0.40188 0.0
C44 C 0.58997 0.53447 0.26088 0.0
O45 O 0.48672 0.61161 0.27898 0.0
O46 O 0.18251 0.74224 0.43155 0.0
Zn47 Zn 0.18342 0.78596 0.44726 0.0
O48 O 0.1697 0.79217 0.51013 0.0
Zn49 Zn 0.13265 0.81532 0.50852 0.0
Zn50 Zn 0.16223 0.75347 0.54156 0.0
Zn51 Zn 0.20073 0.81599 0.5422 0.0
O52 O 0.13511 0.84923 0.55325 0.0
O53 O 0.18291 0.85029 0.57891 0.0
O54 O 0.15674 0.8075 0.40047 0.0
O55 O 0.12357 0.83161 0.44532 0.0
O56 O 0.09726 0.79078 0.5299 0.0
O57 O 0.1182 0.75076 0.5644 0.0
O58 O 0.19265 0.74863 0.59507 0.0
O59 O 0.22543 0.80185 0.43839 0.0
O60 O 0.22171 0.7899 0.58814 0.0
O61 O 0.23263 0.8321 0.49943 0.0
C62 C 0.17506 0.71816 0.4529 0.0
C63 C 0.15575 0.86038 0.57939 0.0
C64 C 0.09482 0.76676 0.55402 0.0
C65 C 0.13448 0.82577 0.40544 0.0
C66 C 0.21567 0.7647 0.6074 0.0
C67 C 0.24092 0.82183 0.46018 0.0
O68 O 0.16667 0.71879 0.49524 0.0
O69 O 0.97036 0.37014 0.74432 0.0
Zn70 Zn 0.92719 0.37811 0.75759 0.0
O71 O 0.91727 0.36403 0.81873 0.0
Zn72 Zn 0.88929 0.33016 0.81325 0.0
Zn73 Zn 0.95471 0.35181 0.85173 0.0
Zn74 Zn 0.89692 0.39709 0.85071 0.0
O75 O 0.85309 0.33671 0.85376 0.0
O76 O 0.85666 0.38505 0.8752 0.0
O77 O 0.90216 0.35784 0.70778 0.0
O78 O 0.8748 0.32443 0.74715 0.0
O79 O 0.90964 0.29176 0.83423 0.0
O80 O 0.95221 0.30757 0.86928 0.0
O81 O 0.96208 0.37876 0.90812 0.0
O82 O 0.92161 0.42248 0.7521 0.0
O83 O 0.92115 0.40868 0.90588 0.0
O84 O 0.89285 0.43489 0.81242 0.0
C85 C -0.00642 0.36137 0.76724 0.0
C86 C 0.84277 0.35975 0.87539 0.0
C87 C 0.93388 0.28634 0.85747 0.0
C88 C 0.88213 0.33695 0.70899 0.0
C89 C 0.94595 0.40025 0.9249 0.0
C90 C 0.90641 0.44186 0.77508 0.0
O91 O -0.00832 0.35393 0.8098 0.0
O92 O 0.65071 0.77691 0.00616 0.0
Zn93 Zn 0.65411 0.815 0.97115 0.0
O94 O 0.64559 0.80881 0.90639 0.0
Zn95 Zn 0.60807 0.8295 0.89325 0.0
Zn96 Zn 0.64022 0.76519 0.89378 0.0
Zn97 Zn 0.67874 0.82736 0.87024 0.0
O98 O 0.61388 0.85738 0.84193 0.0
O99 O 0.66342 0.86141 0.8283 0.0
O100 O 0.62764 0.84611 0.00112 0.0
O101 O 0.59337 0.85519 0.94617 0.0
O102 O 0.57517 0.80135 0.87434 0.0
O103 O 0.5972 0.75601 0.86978 0.0
O104 O 0.6721 0.75196 0.84704 0.0
O105 O 0.6961 0.82826 0.98001 0.0
O106 O 0.6968 0.79484 0.83055 0.0
O107 O 0.71365 0.84255 0.91144 0.0
C108 C 0.64801 0.74906 -0.00463 0.0
C109 C 0.63588 0.86921 0.8201 0.0
C110 C 0.57386 0.77314 0.86523 0.0
C111 C 0.60402 0.85999 0.98671 0.0
C112 C 0.69278 0.76638 0.82509 0.0
C113 C 0.71708 0.83919 0.95509 0.0
O114 O 0.64463 0.74052 0.95326 0.0
O115 O 0.46138 0.42249 0.78085 0.0
Zn116 Zn 0.42096 0.4247 0.74951 0.0
O117 O 0.42432 0.41285 0.68468 0.0
Zn118 Zn 0.40137 0.37599 0.67678 0.0
Zn119 Zn 0.46714 0.40545 0.66865 0.0
Zn120 Zn 0.40677 0.44439 0.64465 0.0
O121 O 0.36773 0.38251 0.63311 0.0
O122 O 0.36953 0.43017 0.60838 0.0
O123 O 0.3924 0.39842 0.78635 0.0
O124 O 0.38079 0.36269 0.73489 0.0
O125 O 0.42688 0.34221 0.65286 0.0
O126 O 0.47288 0.36262 0.64474 0.0
O127 O 0.48138 0.43525 0.61979 0.0
O128 O 0.40547 0.46661 0.75456 0.0
O129 O 0.43828 0.45911 0.60098 0.0
O130 O 0.3944 0.48081 0.6822 0.0
C131 C 0.48815 0.41533 0.768 0.0
C132 C 0.357 0.40411 0.609 0.0
C133 C 0.45474 0.34009 0.64127 0.0
C134 C 0.37837 0.37416 0.77527 0.0
C135 C 0.46674 0.45469 0.59553 0.0
C136 C 0.39554 0.48596 0.72563 0.0
O137 O 0.4939 0.40823 0.72601 0.0
O138 O 0.82496 0.20137 0.52408 0.0
Zn139 Zn 0.82529 0.1613 0.49346 0.0
O140 O 0.83169 0.16446 0.42785 0.0
Zn141 Zn 0.8701 0.14548 0.41427 0.0
Zn142 Zn 0.83232 0.20765 0.41027 0.0
Zn143 Zn 0.79973 0.1414 0.39582 0.0
O144 O 0.86588 0.11561 0.36347 0.0
O145 O 0.81613 0.1078 0.35552 0.0
O146 O 0.85529 0.13464 0.52528 0.0
O147 O 0.88668 0.12205 0.4685 0.0
O148 O 0.90049 0.17622 0.39556 0.0
O149 O 0.87427 0.21897 0.38543 0.0
O150 O 0.79819 0.21554 0.36301 0.0
O151 O 0.78557 0.14342 0.50572 0.0
O152 O 0.7775 0.16957 0.35491 0.0
O153 O 0.76821 0.12443 0.43932 0.0
C154 C 0.82477 0.22868 0.51009 0.0
C155 C 0.84357 0.10153 0.34497 0.0
C156 C 0.89926 0.20404 0.384 0.0
C157 C 0.87822 0.11997 0.51051 0.0
C158 C 0.77835 0.19765 0.3449 0.0
C159 C 0.76556 0.12887 0.48276 0.0
O160 O 0.82675 0.23516 0.46707 0.0
O161 O 0.01248 0.54925 0.27738 0.0
Zn162 Zn 0.05416 0.55138 0.25203 0.0
O163 O 0.05424 0.56626 0.18953 0.0
Zn164 Zn 0.07092 0.60655 0.18997 0.0
Zn165 Zn 0.01226 0.56634 0.16598 0.0
Zn166 Zn 0.08065 0.54013 0.15256 0.0
O167 O 0.10484 0.61004 0.14541 0.0
O168 O 0.11229 0.56351 0.11796 0.0
O169 O 0.07852 0.57736 0.29572 0.0
O170 O 0.08872 0.61756 0.25217 0.0
O171 O 0.03949 0.63622 0.16906 0.0
O172 O 0.00129 0.60796 0.14114 0.0
O173 O 0.00752 0.53349 0.11699 0.0
O174 O 0.07194 0.51058 0.25349 0.0
O175 O 0.05528 0.51766 0.10669 0.0
O176 O 0.10105 0.50759 0.19068 0.0
C177 C 0.98587 0.55276 0.26047 0.0
C178 C 0.119 0.5916 0.11927 0.0
C179 C 0.01394 0.63372 0.14799 0.0
C180 C 0.0906 0.60333 0.29048 0.0
C181 C 0.02697 0.51637 0.09689 0.0
C182 C 0.09173 0.49697 0.22903 0.0
O183 O 0.98191 0.5591 0.21772 0.0
O184 O 0.85131 0.6919 0.46715 0.0
Zn185 Zn 0.84772 0.65263 0.49939 0.0
O186 O 0.85903 0.65648 0.5639 0.0
Zn187 Zn 0.89508 0.63205 0.57465 0.0
Zn188 Zn 0.86783 0.69928 0.579 0.0
Zn189 Zn 0.82538 0.64053 0.60076 0.0
O190 O 0.88847 0.60418 0.62753 0.0
O191 O 0.83882 0.6064 0.64207 0.0
O192 O 0.87259 0.62188 0.46552 0.0
O193 O 0.90543 0.60618 0.51912 0.0
O194 O 0.93148 0.65805 0.58864 0.0
O195 O 0.91274 0.70471 0.596 0.0
O196 O 0.83962 0.71416 0.63038 0.0
O197 O 0.80467 0.6408 0.49232 0.0
O198 O 0.81066 0.67341 0.64192 0.0
O199 O 0.78871 0.62747 0.56217 0.0
C200 C 0.85574 0.71918 0.48004 0.0
C201 C 0.86521 0.59541 0.65 0.0
C202 C 0.93524 0.68626 0.59668 0.0
C203 C 0.89457 0.60486 0.47803 0.0
C204 C 0.81763 0.70086 0.65097 0.0
C205 C 0.78401 0.6308 0.51883 0.0
O206 O 0.86146 0.7259 0.52232 0.0
O207 O 0.00142 0.0486 0.69481 0.0
Zn208 Zn 0.04419 0.04523 0.71494 0.0
O209 O 0.04868 0.05915 0.77776 0.0
Zn210 Zn 0.06777 0.098 0.77682 0.0
Zn211 Zn 0.00859 0.06275 0.80658 0.0
Zn212 Zn 0.07546 0.03062 0.80965 0.0
O213 O 0.10314 0.09805 0.81842 0.0
O214 O 0.11085 0.05092 0.84233 0.0
O215 O 0.06938 0.06937 0.67002 0.0
O216 O 0.08371 0.10824 0.71438 0.0
O217 O 0.0408 0.13031 0.80188 0.0
O218 O 0.0027 0.10482 0.83435 0.0
O219 O 0.00489 0.03066 0.85617 0.0
O220 O 0.05672 0.00244 0.70938 0.0
O221 O 0.05129 0.00992 0.8578 0.0
O222 O 0.0905 -0.00232 0.76691 0.0
C223 C 0.97615 0.05367 0.71471 0.0
C224 C 0.11817 0.07887 0.84203 0.0
C225 C 0.01688 0.12958 0.82665 0.0
C226 C 0.08353 0.09436 0.67557 0.0
C227 C 0.02407 0.01159 0.87263 0.0
C228 C 0.07753 0.98765 0.73025 0.0
O229 O 0.97482 0.05868 0.75829 0.0
O230 O 0.6214 0.25006 -0.00098 0.0
Zn231 Zn 0.63039 0.29342 0.00867 0.0
O232 O 0.6204 0.30633 0.07076 0.0
Zn233 Zn 0.58661 0.33432 0.06686 0.0
Zn234 Zn 0.60978 0.27035 0.10739 0.0
Zn235 Zn 0.65517 0.32806 0.09741 0.0
O236 O 0.59639 0.37357 0.09705 0.0
O237 O 0.64487 0.37016 0.11943 0.0
O238 O 0.60827 0.31712 0.95956 0.0
O239 O 0.57617 0.3448 0.00117 0.0
O240 O 0.5503 0.31726 0.09858 0.0
O241 O 0.56744 0.27546 0.13331 0.0
O242 O 0.64102 0.2648 0.15921 0.0
O243 O 0.67413 0.29852 -0.00325 0.0
O244 O 0.67047 0.30575 0.15224 0.0
O245 O 0.69 0.33005 0.05235 0.0
C246 C 0.61296 0.22808 0.02427 0.0
C247 C 0.62001 0.38488 0.11614 0.0
C248 C 0.54618 0.29453 0.12498 0.0
C249 C 0.58715 0.33684 0.96221 0.0
C250 C 0.66343 0.28126 0.17276 0.0
C251 C 0.69466 0.31497 0.01524 0.0
O252 O 0.60748 0.23171 0.06736 0.0
O253 O 0.48661 0.92881 0.17972 0.0
Zn254 Zn 0.44557 0.93065 0.20736 0.0
O255 O 0.4477 0.92242 0.273 0.0
Zn256 Zn 0.43047 0.88306 0.2823 0.0
Zn257 Zn 0.49049 0.92183 0.29337 0.0
Zn258 Zn 0.42327 0.95268 0.30664 0.0
O259 O 0.39854 0.88511 0.32897 0.0
O260 O 0.38831 0.93363 0.34244 0.0
O261 O 0.41832 0.90176 0.17186 0.0
O262 O 0.40931 0.86721 0.22576 0.0
O263 O 0.46092 0.85324 0.3049 0.0
O264 O 0.50242 0.88066 0.31965 0.0
O265 O 0.49691 0.95408 0.34242 0.0
O266 O 0.42945 0.97174 0.19704 0.0
O267 O 0.45051 0.97364 0.35277 0.0
O268 O 0.40683 0.98495 0.26306 0.0
C269 C 0.51375 0.92858 0.1956 0.0
C270 C 0.3828 0.90553 0.34866 0.0
C271 C 0.48814 0.85543 0.32006 0.0
C272 C 0.40569 0.87725 0.18478 0.0
C273 C 0.47885 0.97244 0.36295 0.0
C274 C 0.4134 -0.00997 0.22076 0.0
O275 O 0.51913 0.92762 0.23914 0.0
O276 O 0.15684 0.24229 0.53968 0.0
Zn277 Zn 0.15221 0.28583 0.52336 0.0
O278 O 0.14043 0.2899 0.45906 0.0
Zn279 Zn 0.10114 0.30889 0.45617 0.0
Zn280 Zn 0.13798 0.25046 0.42818 0.0
Zn281 Zn 0.16974 0.31624 0.42905 0.0
O282 O 0.10092 0.34159 0.41013 0.0
O283 O 0.14927 0.34815 0.3906 0.0
O284 O 0.12184 0.30509 0.56643 0.0
O285 O 0.08932 0.3265 0.51703 0.0
O286 O 0.06906 0.28051 0.43376 0.0
O287 O 0.09536 0.2425 0.40265 0.0
O288 O 0.16879 0.24865 0.37634 0.0
O289 O 0.19079 0.30788 0.53669 0.0
O290 O 0.19402 0.29229 0.38463 0.0
O291 O 0.19874 0.33587 0.47404 0.0
C292 C 0.15352 0.21745 0.51743 0.0
C293 C 0.12117 0.35487 0.38641 0.0
C294 C 0.07012 0.25602 0.41028 0.0
C295 C 0.09904 0.32218 0.55818 0.0
C296 C 0.19029 0.26666 0.36495 0.0
C297 C 0.20543 0.32851 0.51553 0.0
O298 O 0.14618 0.21699 0.4745 0.0
O299 O 0.98249 0.89111 0.26312 0.0
Zn300 Zn 0.93837 0.89048 0.24817 0.0
O301 O 0.93118 0.87615 0.18557 0.0
Zn302 Zn 0.90927 0.83799 0.18735 0.0
Zn303 Zn 0.97039 0.8709 0.1541 0.0
Zn304 Zn 0.90572 0.90586 0.15389 0.0
O305 O 0.87127 0.83944 0.14878 0.0
O306 O 0.86859 0.88735 0.12534 0.0
O307 O 0.91798 0.8643 0.29561 0.0
O308 O 0.8976 0.82757 0.25243 0.0
O309 O 0.93491 0.80431 0.16175 0.0
O310 O 0.97534 0.82767 0.13241 0.0
O311 O 0.9732 0.89937 0.09946 0.0
O312 O 0.9236 0.93258 0.25607 0.0
O313 O 0.92851 0.92322 0.10163 0.0
O314 O 0.89416 0.94119 0.19441 0.0
C315 C 0.00683 0.8861 0.24065 0.0
C316 C 0.85812 0.86046 0.12602 0.0
C317 C 0.95998 0.8036 0.13968 0.0
C318 C 0.90253 0.83994 0.29183 0.0
C319 C 0.95442 0.91889 0.08332 0.0
C320 C 0.90538 0.94941 0.23331 0.0
O321 O 0.00613 0.87821 0.19804 0.0
O322 O 0.33012 0.74511 0.0198 0.0
Zn323 Zn 0.32301 0.70108 0.0112 0.0
O324 O 0.33487 0.68929 0.94913 0.0
Zn325 Zn 0.36857 0.66127 0.95305 0.0
Zn326 Zn 0.34643 0.72458 0.9117 0.0
Zn327 Zn 0.30079 0.66812 0.92126 0.0
O328 O 0.36162 0.62576 0.91175 0.0
O329 O 0.31273 0.629 0.89158 0.0
O330 O 0.34798 0.67928 0.05969 0.0
O331 O 0.37643 0.64758 0.01835 0.0
O332 O 0.40643 0.68009 0.92898 0.0
O333 O 0.39009 0.71996 0.88878 0.0
O334 O 0.31665 0.72969 0.85722 0.0
O335 O 0.27939 0.69102 0.02491 0.0
O336 O 0.28327 0.69273 0.87072 0.0
O337 O 0.26792 0.66017 0.96622 0.0
C338 C 0.3398 0.76679 -0.0052 0.0
C339 C 0.3384 0.61572 0.88997 0.0
C340 C 0.41147 0.70202 0.90148 0.0
C341 C 0.36735 0.65778 0.05733 0.0
C342 C 0.29198 0.71547 0.84728 0.0
C343 C 0.26137 0.67237 0.00492 0.0
O344 O 0.34688 0.76263 0.95231 0.0
O345 O 0.49573 0.08469 0.77528 0.0
Zn346 Zn 0.53958 0.08138 0.75909 0.0
O347 O 0.54674 0.10047 0.69923 0.0
Zn348 Zn 0.57401 0.13463 0.70812 0.0
Zn349 Zn 0.50817 0.11365 0.6708 0.0
Zn350 Zn 0.56641 0.07172 0.65826 0.0
O351 O 0.61243 0.12974 0.67265 0.0
O352 O 0.60556 0.0867 0.63378 0.0
O353 O 0.56306 0.10189 0.8118 0.0
O354 O 0.58635 0.13923 0.77442 0.0
O355 O 0.55475 0.17308 0.68583 0.0
O356 O 0.51066 0.15807 0.65479 0.0
O357 O 0.49813 0.08997 0.61181 0.0
O358 O 0.55126 0.03742 0.75721 0.0
O359 O 0.5403 0.06258 0.60394 0.0
O360 O 0.5752 0.03268 0.68966 0.0
C361 C 0.47238 0.09679 0.75644 0.0
C362 C 0.62149 0.10989 0.64376 0.0
C363 C 0.53009 0.17884 0.66395 0.0
C364 C 0.5808 0.12481 0.81159 0.0
C365 C 0.51416 0.07078 0.58937 0.0
C366 C 0.56648 0.02186 0.7281 0.0
O367 O 0.47375 0.10931 0.71666 0.0
H368 H 0.40574 0.2797 0.11527 0.0
H369 H 0.43279 0.18544 0.11772 0.0
H370 H 0.48447 0.19986 0.1409 0.0
H371 H 0.52356 0.23911 0.14481 0.0
H372 H 0.49797 0.33349 0.13336 0.0
H373 H 0.44406 0.31932 0.13094 0.0
C374 C 0.4228 0.26237 0.1221 0.0
C375 C 0.41583 0.23168 0.11401 0.0
C376 C 0.45278 0.27089 0.13349 0.0
C377 C 0.43796 0.2093 0.12293 0.0
C378 C 0.46746 0.21751 0.13621 0.0
C379 C 0.50617 0.25666 0.14336 0.0
C380 C 0.51465 0.28721 0.13839 0.0
C381 C 0.47545 0.24825 0.13931 0.0
C382 C 0.4919 0.30973 0.13656 0.0
C383 C 0.46111 0.30163 0.13485 0.0
H384 H 0.56679 0.73715 0.33545 0.0
H385 H 0.47856 0.7003 0.37095 0.0
H386 H 0.45716 0.75134 0.37352 0.0
H387 H 0.46171 0.80526 0.35491 0.0
H388 H 0.54926 0.84254 0.31785 0.0
H389 H 0.57287 0.79247 0.32744 0.0
C390 C 0.543 0.74028 0.3445 0.0
C391 C 0.52418 0.71483 0.35202 0.0
C392 C 0.53066 0.76972 0.34528 0.0
C393 C 0.49352 0.71939 0.36446 0.0
C394 C 0.4812 0.74859 0.36579 0.0
C395 C 0.48607 0.80251 0.34965 0.0
C396 C 0.50366 0.82732 0.3349 0.0
C397 C 0.49928 0.77373 0.35454 0.0
C398 C 0.53526 0.82369 0.32907 0.0
C399 C 0.54869 0.79505 0.33423 0.0
H400 H 0.07661 0.71131 0.58649 0.0
H401 H 0.04318 0.80118 0.55438 0.0
H402 H -0.00882 0.78514 0.5705 0.0
H403 H 0.95454 0.74458 0.58631 0.0
H404 H 0.98727 0.65402 0.61507 0.0
H405 H 0.03996 0.67148 0.60849 0.0
C406 C 0.058 0.72747 0.58363 0.0
C407 C 0.06386 0.75729 0.56871 0.0
C408 C 0.02788 0.71798 0.59225 0.0
C409 C 0.03939 0.77795 0.56521 0.0
C410 C 0.00956 0.76884 0.57451 0.0
C411 C 0.97318 0.72877 0.59209 0.0
C412 C 0.96688 0.69801 0.60089 0.0
C413 C 0.00344 0.73874 0.58701 0.0
C414 C -0.00859 0.67782 0.60796 0.0
C415 C 0.0216 0.68775 0.60404 0.0
H416 H -0.00929 0.26539 0.8761 0.0
H417 H 0.89798 0.23547 0.85292 0.0
H418 H 0.91532 0.18275 0.84811 0.0
H419 H 0.95773 0.14629 0.83915 0.0
H420 H 0.05048 0.17782 0.85509 0.0
H421 H 0.03228 0.22865 0.87451 0.0
C422 C 0.97416 0.24731 0.87111 0.0
C423 C 0.94316 0.25437 0.86446 0.0
C424 C 0.9844 0.2173 0.86645 0.0
C425 C 0.92205 0.23063 0.85778 0.0
C426 C 0.93196 0.2005 0.85483 0.0
C427 C 0.97383 0.1642 0.84787 0.0
C428 C 0.00533 0.15853 0.84534 0.0
C429 C 0.96321 0.1937 0.85734 0.0
C430 C 0.02609 0.18185 0.85633 0.0
C431 C 0.01572 0.21089 0.86744 0.0
H432 H 0.55356 0.71629 0.88453 0.0
H433 H 0.52579 0.8016 0.82421 0.0
H434 H 0.47255 0.78537 0.82462 0.0
H435 H 0.43351 0.75034 0.85312 0.0
H436 H 0.46123 0.66602 0.91707 0.0
H437 H 0.51463 0.67836 0.9039 0.0
C438 C 0.53594 0.73092 0.87024 0.0
C439 C 0.5435 0.76018 0.85488 0.0
C440 C 0.50522 0.72189 0.87207 0.0
C441 C 0.52043 0.77904 0.8367 0.0
C442 C 0.48996 0.76986 0.83713 0.0
C443 C 0.45118 0.73443 0.8635 0.0
C444 C 0.44332 0.70763 0.88688 0.0
C445 C 0.48198 0.74187 0.85658 0.0
C446 C 0.46658 0.68712 0.89967 0.0
C447 C 0.49721 0.69411 0.89213 0.0
H448 H 0.51291 0.32011 0.65149 0.0
H449 H 0.42304 0.2918 0.60661 0.0
H450 H 0.43989 0.23897 0.60409 0.0
H451 H 0.47777 0.2006 0.6253 0.0
H452 H 0.56674 0.22869 0.67496 0.0
H453 H 0.55266 0.28183 0.66459 0.0
C454 C 0.49726 0.30247 0.64 0.0
C455 C 0.46673 0.30973 0.62974 0.0
C456 C 0.50677 0.27205 0.64027 0.0
C457 C 0.44661 0.28666 0.61513 0.0
C458 C 0.45618 0.25645 0.61387 0.0
C459 C 0.49426 0.21829 0.63326 0.0
C460 C 0.52304 0.21066 0.65168 0.0
C461 C 0.48583 0.24881 0.62816 0.0
C462 C 0.54423 0.23391 0.66135 0.0
C463 C 0.53623 0.26434 0.65541 0.0
H464 H 0.95384 0.17818 0.36455 0.0
H465 H 0.91048 0.26528 0.38531 0.0
H466 H 0.9605 0.2897 0.39018 0.0
H467 H 0.01595 0.28496 0.39997 0.0
H468 H 0.05919 0.19754 0.3821 0.0
H469 H 0.00961 0.17453 0.36451 0.0
C470 C 0.95528 0.20261 0.36933 0.0
C471 C 0.92847 0.21981 0.37545 0.0
C472 C 0.98404 0.21631 0.37336 0.0
C473 C 0.93072 0.25149 0.38071 0.0
C474 C 0.95933 0.26542 0.38392 0.0
C475 C 0.01459 0.2609 0.39181 0.0
C476 C 0.0411 0.24282 0.39331 0.0
C477 C 0.98605 0.24783 0.38223 0.0
C478 C 0.03908 0.21187 0.38159 0.0
C479 C 0.01074 0.19871 0.37164 0.0
H480 H 0.03988 0.6865 0.12252 0.0
H481 H 0.95247 0.64386 0.14389 0.0
H482 H 0.92707 0.69323 0.13711 0.0
H483 H 0.93094 0.74899 0.13626 0.0
H484 H 0.01879 0.79123 0.11535 0.0
H485 H 0.04276 0.74138 0.10998 0.0
C486 C 0.01521 0.68799 0.1249 0.0
C487 C -0.00195 0.66183 0.13449 0.0
C488 C 0.00092 0.71634 0.12141 0.0
C489 C 0.9661 0.6638 0.13664 0.0
C490 C 0.95163 0.69202 0.13309 0.0
C491 C 0.95525 0.74729 0.12978 0.0
C492 C 0.97315 0.77378 0.1272 0.0
C493 C 0.96898 0.71854 0.1272 0.0
C494 C 0.00451 0.77122 0.11788 0.0
C495 C 0.01829 0.74271 0.11502 0.0
H496 H 0.14181 0.13501 0.83926 0.0
H497 H 0.15157 0.04872 0.90887 0.0
H498 H 0.1919 0.0703 0.9585 0.0
H499 H 0.22411 0.11395 0.98144 0.0
H500 H 0.21345 0.19943 0.90978 0.0
H501 H 0.17289 0.17779 0.86184 0.0
C502 C 0.15264 0.12075 0.86527 0.0
C503 C 0.1437 0.09034 0.87052 0.0
C504 C 0.17531 0.13324 0.89349 0.0
C505 C 0.15819 0.07221 0.90411 0.0
C506 C 0.18107 0.08457 0.93259 0.0
C507 C 0.2126 0.12786 0.95569 0.0
C508 C 0.22158 0.15819 0.94907 0.0
C509 C 0.18966 0.11513 0.92766 0.0
C510 C 0.2069 0.17598 0.9153 0.0
C511 C 0.18381 0.16364 0.88785 0.0
H512 H 0.63897 0.40523 0.2006 0.0
H513 H 0.59518 0.43285 0.0729 0.0
H514 H 0.58441 0.48278 0.10594 0.0
H515 H 0.58339 0.51636 0.17215 0.0
H516 H 0.62334 0.48895 0.30305 0.0
H517 H 0.63983 0.4409 0.26769 0.0
C518 C 0.62761 0.42252 0.18002 0.0
C519 C 0.61785 0.41576 0.13458 0.0
C520 C 0.62047 0.45081 0.1999 0.0
C521 C 0.60275 0.43784 0.10804 0.0
C522 C 0.59654 0.46624 0.12691 0.0
C523 C 0.5958 0.50004 0.19321 0.0
C524 C 0.6018 0.50608 0.24034 0.0
C525 C 0.60458 0.4726 0.17308 0.0
C526 C 0.61822 0.48472 0.26673 0.0
C527 C 0.62765 0.4573 0.24654 0.0
H528 H 0.3582 0.84992 0.34668 0.0
H529 H 0.3478 0.93813 0.41098 0.0
H530 H 0.30333 0.91933 0.45389 0.0
H531 H 0.26685 0.87768 0.47087 0.0
H532 H 0.27757 0.79109 0.40162 0.0
H533 H 0.32307 0.80954 0.36288 0.0
C534 C 0.3465 0.86517 0.37034 0.0
C535 C 0.35638 0.89534 0.37592 0.0
C536 C 0.3211 0.85446 0.39387 0.0
C537 C 0.34057 0.91478 0.40618 0.0
C538 C 0.31525 0.90403 0.43066 0.0
C539 C 0.27939 0.8629 0.44757 0.0
C540 C 0.26903 0.83312 0.43898 0.0
C541 C 0.30524 0.8739 0.42453 0.0
C542 C 0.28509 0.81416 0.40844 0.0
C543 C 0.31108 0.82464 0.38636 0.0
H544 H 0.91664 0.5637 0.6671 0.0
H545 H 0.82208 0.57066 0.70746 0.0
H546 H 0.82761 0.52506 0.75517 0.0
H547 H 0.8581 0.48033 0.77846 0.0
H548 H 0.95114 0.47232 0.73161 0.0
H549 H 0.94749 0.52156 0.69355 0.0
C550 C 0.89723 0.55554 0.68666 0.0
C551 C 0.86891 0.57031 0.68327 0.0
C552 C 0.9003 0.52904 0.71263 0.0
C553 C 0.8441 0.55949 0.70916 0.0
C554 C 0.84722 0.53342 0.73636 0.0
C555 C 0.87762 0.48973 0.7605 0.0
C556 C 0.90473 0.4729 0.75732 0.0
C557 C 0.87501 0.51758 0.73732 0.0
C558 C 0.92994 0.48493 0.73386 0.0
C559 C 0.92788 0.513 0.71219 0.0
H560 H 0.73896 0.8118 0.03068 0.0
H561 H 0.76014 0.88213 0.93202 0.0
H562 H 0.80599 0.89556 0.97749 0.0
H563 H 0.83868 0.88789 0.04696 0.0
H564 H 0.81694 0.81607 0.14305 0.0
H565 H 0.77197 0.8028 0.09688 0.0
C566 C 0.75356 0.83015 0.01903 0.0
C567 C 0.74612 0.84631 0.97855 0.0
C568 C 0.77943 0.83755 0.04504 0.0
C569 C 0.76553 0.86948 0.96321 0.0
C570 C 0.79153 0.87721 0.9893 0.0
C571 C 0.82393 0.86947 0.05781 0.0
C572 C 0.83079 0.85311 0.09847 0.0
C573 C 0.79844 0.8616 0.03061 0.0
C574 C 0.81199 0.82894 0.11188 0.0
C575 C 0.78636 0.82135 0.08555 0.0
H576 H 0.38474 0.60843 0.83147 0.0
H577 H 0.30045 0.56748 0.87567 0.0
H578 H 0.30913 0.52425 0.8232 0.0
H579 H 0.34334 0.49656 0.77011 0.0
H580 H 0.42646 0.53879 0.72412 0.0
H581 H 0.41545 0.58387 0.77142 0.0
C582 C 0.36834 0.58997 0.82949 0.0
C583 C 0.34248 0.59035 0.85785 0.0
C584 C 0.37314 0.5659 0.79874 0.0
C585 C 0.32074 0.56709 0.85435 0.0
C586 C 0.32566 0.54258 0.82442 0.0
C587 C 0.35844 0.51611 0.76966 0.0
C588 C 0.38542 0.51498 0.74395 0.0
C589 C 0.35205 0.54156 0.79708 0.0
C590 C 0.40534 0.53982 0.74346 0.0
C591 C 0.39922 0.56527 0.77076 0.0
H592 H 0.63887 0.08646 0.56105 0.0
H593 H 0.66962 0.14285 0.67536 0.0
H594 H 0.71799 0.15151 0.63628 0.0
H595 H 0.74996 0.14513 0.56922 0.0
H596 H 0.71913 0.09168 0.45168 0.0
H597 H 0.67196 0.07946 0.49303 0.0
C598 C 0.65631 0.10043 0.57747 0.0
C599 C 0.65086 0.11409 0.62083 0.0
C600 C 0.68375 0.10582 0.5544 0.0
C601 C 0.67335 0.13235 0.64176 0.0
C602 C 0.70096 0.13723 0.61956 0.0
C603 C 0.73314 0.13055 0.55253 0.0
C604 C 0.73797 0.1193 0.50745 0.0
C605 C 0.70616 0.12436 0.57576 0.0
C606 C 0.71583 0.10064 0.48638 0.0
C607 C 0.68893 0.09371 0.50994 0.0
H608 H 0.15688 0.38941 0.32995 0.0
H609 H 0.06298 0.37177 0.36706 0.0
H610 H 0.04581 0.41167 0.31545 0.0
H611 H 0.05733 0.45445 0.26642 0.0
H612 H 0.1503 0.47479 0.22983 0.0
H613 H 0.16809 0.43021 0.27371 0.0
C614 C 0.13269 0.39424 0.3265 0.0
C615 C 0.11133 0.37807 0.35301 0.0
C616 C 0.12283 0.41746 0.29683 0.0
C617 C 0.07999 0.3842 0.3477 0.0
C618 C 0.07006 0.40692 0.31805 0.0
C619 C 0.08148 0.44882 0.26759 0.0
C620 C 0.10264 0.46773 0.24597 0.0
C621 C 0.0913 0.42407 0.29346 0.0
C622 C 0.13376 0.46026 0.24656 0.0
C623 C 0.14385 0.43507 0.27192 0.0
H624 H 0.65314 0.59272 0.4459 0.0
H625 H 0.67561 0.66126 0.34463 0.0
H626 H 0.72432 0.67024 0.38324 0.0
H627 H 0.76073 0.65828 0.444 0.0
H628 H 0.73913 0.59162 0.54817 0.0
H629 H 0.68952 0.58231 0.51023 0.0
C630 C 0.66874 0.6096 0.43239 0.0
C631 C 0.66086 0.62619 0.39234 0.0
C632 C 0.69671 0.61496 0.45513 0.0
C633 C 0.68108 0.64825 0.37545 0.0
C634 C 0.70898 0.65336 0.3974 0.0
C635 C 0.74526 0.64157 0.4584 0.0
C636 C 0.75363 0.6253 0.49832 0.0
C637 C 0.71704 0.63674 0.43696 0.0
C638 C 0.73311 0.6043 0.51727 0.0
C639 C 0.70487 0.59897 0.49555 0.0
H640 H 0.1356 0.96745 0.72199 0.0
H641 H 0.04181 0.94545 0.68959 0.0
H642 H 0.05822 0.90288 0.64146 0.0
H643 H 0.09867 0.87531 0.60351 0.0
H644 H 0.19305 0.89753 0.63176 0.0
H645 H 0.17697 0.93699 0.68676 0.0
C646 C 0.11891 0.95282 0.70513 0.0
C647 C 0.08767 0.95931 0.70892 0.0
C648 C 0.12855 0.92903 0.67625 0.0
C649 C 0.06601 0.9407 0.68672 0.0
C650 C 0.07535 0.91655 0.65913 0.0
C651 C 0.11584 0.88879 0.62151 0.0
C652 C 0.14696 0.88396 0.61302 0.0
C653 C 0.10651 0.91116 0.6526 0.0
C654 C 0.16889 0.90113 0.63743 0.0
C655 C 0.15973 0.92357 0.6689 0.0
H656 H 0.73143 0.36416 0.0122 0.0
H657 H 0.72198 0.27191 0.96275 0.0
H658 H 0.76718 0.27777 0.91459 0.0
H659 H 0.80781 0.30957 0.88446 0.0
H660 H 0.81655 0.40259 0.93141 0.0
H661 H 0.77277 0.39607 0.98226 0.0
C662 C 0.73963 0.34529 -0.00863 0.0
C663 C 0.72369 0.31769 -0.00911 0.0
C664 C 0.76505 0.34907 0.96285 0.0
C665 C 0.73405 0.29341 0.96339 0.0
C666 C 0.75973 0.29676 0.9358 0.0
C667 C 0.80013 0.32848 0.90567 0.0
C668 C 0.81533 0.35649 0.90404 0.0
C669 C 0.77509 0.32463 0.93475 0.0
C670 C 0.80511 0.38077 0.93183 0.0
C671 C 0.7802 0.37706 0.9611 0.0
H672 H 0.3581 0.01792 0.22938 0.0
H673 H 0.44473 0.023 0.15919 0.0
H674 H 0.42639 0.06535 0.11274 0.0
H675 H 0.38595 0.09921 0.09012 0.0
H676 H 0.29823 0.09534 0.15739 0.0
H677 H 0.31662 0.05361 0.20653 0.0
C678 C 0.37294 0.02872 0.20435 0.0
C679 C 0.40265 0.01759 0.19755 0.0
C680 C 0.36197 0.05271 0.17684 0.0
C681 C 0.42171 0.03126 0.16472 0.0
C682 C 0.41125 0.05535 0.1381 0.0
C683 C 0.37066 0.08936 0.11545 0.0
C684 C 0.34075 0.10035 0.12006 0.0
C685 C 0.38136 0.06589 0.14343 0.0
C686 C 0.32135 0.08714 0.153 0.0
C687 C 0.33191 0.06345 0.18126 0.0
H688 H 0.24547 0.3703 0.48097 0.0
H689 H 0.22155 0.32181 0.606 0.0
H690 H 0.26463 0.34433 0.64666 0.0
H691 H 0.31096 0.37392 0.64545 0.0
H692 H 0.33751 0.42187 0.52193 0.0
H693 H 0.29087 0.40401 0.48196 0.0
C694 C 0.2496 0.36486 0.51718 0.0
C695 C 0.2306 0.34401 0.54015 0.0
C696 C 0.27469 0.37778 0.54054 0.0
C697 C 0.23603 0.33741 0.58722 0.0
C698 C 0.2606 0.35034 0.61064 0.0
C699 C 0.3064 0.38067 0.60981 0.0
C700 C 0.32756 0.39861 0.58613 0.0
C701 C 0.28033 0.36994 0.58736 0.0
C702 C 0.32134 0.40792 0.54053 0.0
C703 C 0.29491 0.39752 0.51775 0.0
H704 H 0.89793 0.07419 0.33582 0.0
H705 H 0.80443 0.06956 0.28767 0.0
H706 H 0.816 0.02268 0.24486 0.0
H707 H 0.85221 0.9811 0.22635 0.0
H708 H 0.94401 0.98517 0.28168 0.0
H709 H 0.93353 0.03448 0.31659 0.0
C710 C 0.88004 0.06326 0.31553 0.0
C711 C 0.85037 0.07527 0.31494 0.0
C712 C 0.88654 0.03611 0.29269 0.0
C713 C 0.82747 0.06062 0.28873 0.0
C714 C 0.83405 0.03384 0.2644 0.0
C715 C 0.86985 -0.00695 0.24575 0.0
C716 C 0.89871 0.97967 0.25185 0.0
C717 C 0.8634 0.02106 0.26694 0.0
C718 C 0.92151 -0.00498 0.27714 0.0
C719 C 0.9156 0.02319 0.29693 0.0
H720 H 0.1483 0.64507 0.13051 0.0
H721 H 0.1464 0.56404 0.04529 0.0
H722 H 0.18933 0.58321 0.00027 0.0
H723 H 0.22829 0.62188 0.98744 0.0
H724 H 0.23184 0.70162 0.07533 0.0
H725 H 0.18685 0.684 0.1171 0.0
C726 C 0.15711 0.63167 0.10187 0.0
C727 C 0.14427 0.60321 0.09116 0.0
C728 C 0.18196 0.64254 0.0768 0.0
C729 C 0.15607 0.58597 0.05427 0.0
C730 C 0.18052 0.59692 0.02852 0.0
C731 C 0.21905 0.63559 0.01542 0.0
C732 C 0.23325 0.66301 0.02833 0.0
C733 C 0.19375 0.62504 0.03979 0.0
C734 C 0.22128 0.68037 0.06494 0.0
C735 C 0.19563 0.67033 0.08878 0.0
H736 H 0.62189 -0.00449 0.72151 0.0
H737 H 0.52833 0.97882 0.75959 0.0
H738 H 0.54142 0.92706 0.78273 0.0
H739 H 0.57964 0.88934 0.79916 0.0
H740 H 0.67496 0.90756 0.77335 0.0
H741 H 0.66096 0.95587 0.73653 0.0
C742 C 0.60448 0.98025 0.73446 0.0
C743 C 0.5743 -0.00946 0.73926 0.0
C744 C 0.61249 0.95108 0.74959 0.0
C745 C 0.55173 0.97112 0.75623 0.0
C746 C 0.55918 0.94165 0.76921 0.0
C747 C 0.59755 0.90361 0.78525 0.0
C748 C 0.62839 0.89512 0.78975 0.0
C749 C 0.58957 0.93177 0.76711 0.0
C750 C 0.65107 0.91371 0.7706 0.0
C751 C 0.64308 0.94138 0.74993 0.0
H752 H 0.38619 0.11716 0.92404 0.0
H753 H 0.35672 0.19242 0.83938 0.0
H754 H 0.38689 0.17304 0.77431 0.0
H755 H 0.42712 0.13864 0.74613 0.0
H756 H 0.45668 0.06395 0.83233 0.0
H757 H 0.42024 0.07871 0.89179 0.0
C758 C 0.38617 0.12914 0.89116 0.0
C759 C 0.36997 0.15647 0.88662 0.0
C760 C 0.40346 0.11793 0.85424 0.0
C761 C 0.36936 0.17144 0.84364 0.0
C762 C 0.3866 0.16041 0.80655 0.0
C763 C 0.42496 0.12509 0.77732 0.0
C764 C 0.44496 0.10062 0.78525 0.0
C765 C 0.4045 0.13418 0.81199 0.0
C766 C 0.44183 0.08319 0.82575 0.0
C767 C 0.42114 0.09169 0.8599 0.0
H768 H 0.63505 0.68499 0.18727 0.0
H769 H 0.57583 0.62666 0.1061 0.0
H770 H 0.59127 0.65243 0.03515 0.0
H771 H 0.6173 0.69531 -0.00261 0.0
H772 H 0.67509 0.75425 0.07978 0.0
H773 H 0.66493 0.72412 0.14874 0.0
C774 C 0.62568 0.67773 0.15405 0.0
C775 C 0.60396 0.65431 0.15213 0.0
C776 C 0.63442 0.69276 0.11349 0.0
C777 C 0.59243 0.64484 0.10866 0.0
C778 C 0.60121 0.65957 0.06801 0.0
C779 C 0.6282 0.70104 0.03022 0.0
C780 C 0.6466 0.72708 0.0337 0.0
C781 C 0.62163 0.68406 0.07014 0.0
C782 C 0.66052 0.73444 0.07645 0.0
C783 C 0.65467 0.71732 0.11593 0.0
H784 H 0.05619 0.84983 0.22666 0.0
H785 H 0.02137 0.92104 0.31511 0.0
H786 H 0.06166 0.91127 0.37193 0.0
H787 H 0.10051 0.87682 0.40222 0.0
H788 H 0.13431 0.80384 0.3163 0.0
H789 H 0.10103 0.82017 0.25247 0.0
C790 C 0.0581 0.86382 0.25766 0.0
C791 C 0.03569 0.8858 0.26714 0.0
C792 C 0.08073 0.85735 0.29102 0.0
C793 C 0.03823 0.90374 0.30746 0.0
C794 C 0.06114 0.89807 0.34006 0.0
C795 C 0.10094 0.86478 0.36926 0.0
C796 C 0.11924 0.8388 0.36425 0.0
C797 C 0.08149 0.87395 0.33321 0.0
C798 C 0.12016 0.82379 0.32109 0.0
C799 C 0.10105 0.83304 0.28466 0.0
H800 H 0.85671 0.28169 0.51074 0.0
H801 H 0.79359 0.22824 0.5906 0.0
H802 H 0.80296 0.26011 0.65869 0.0
H803 H 0.83481 0.29769 0.69835 0.0
H804 H 0.90011 0.34984 0.62026 0.0
H805 H 0.88398 0.32429 0.54877 0.0
C806 C 0.84436 0.27772 0.54268 0.0
C807 C 0.82471 0.25262 0.54594 0.0
C808 C 0.8507 0.2955 0.58229 0.0
C809 C 0.80901 0.24738 0.58754 0.0
C810 C 0.81447 0.26546 0.62653 0.0
C811 C 0.84526 0.3038 0.66563 0.0
C812 C 0.86904 0.32519 0.66488 0.0
C813 C 0.83626 0.2887 0.62483 0.0
C814 C 0.88194 0.3332 0.62199 0.0
C815 C 0.87278 0.31855 0.58103 0.0
H816 H 0.61799 0.87252 0.07701 0.0
H817 H 0.5537 0.89448 0.96759 0.0
H818 H 0.52299 0.92335 0.02246 0.0
H819 H 0.5107 0.93586 0.1026 0.0
H820 H 0.57279 0.91096 0.21327 0.0
H821 H 0.60867 0.89071 0.15636 0.0
C822 C 0.59747 0.88394 0.06498 0.0
C823 C 0.58779 0.88076 0.01848 0.0
C824 C 0.57957 0.90002 0.09688 0.0
C825 C 0.56141 0.8961 0.00335 0.0
C826 C 0.54384 0.91268 0.03468 0.0
C827 C 0.53234 0.92652 0.11433 0.0
C828 C 0.53876 0.92427 0.16213 0.0
C829 C 0.55216 0.91382 0.08174 0.0
C830 C 0.56717 0.91274 0.17668 0.0
C831 C 0.58756 0.90088 0.14418 0.0
H832 H 0.38134 0.37803 0.86996 0.0
H833 H 0.3314 0.33576 0.75708 0.0
H834 H 0.30236 0.30571 0.81211 0.0
H835 H 0.29607 0.28659 0.89032 0.0
H836 H 0.34884 0.32467 0.00354 0.0
H837 H 0.37089 0.36209 0.95071 0.0
C838 C 0.36379 0.36254 0.85757 0.0
C839 C 0.35891 0.35869 0.80951 0.0
C840 C 0.34762 0.34467 0.88946 0.0
C841 C 0.33602 0.33868 0.79386 0.0
C842 C 0.31929 0.32159 0.82529 0.0
C843 C 0.31197 0.30343 0.90377 0.0
C844 C 0.32122 0.30246 0.9506 0.0
C845 C 0.32563 0.32368 0.87294 0.0
C846 C 0.34139 0.32482 0.96758 0.0
C847 C 0.35429 0.34598 0.93725 0.0
H848 H 0.97111 0.04078 0.62334 0.0
H849 H 0.92119 0.07942 0.73816 0.0
H850 H 0.88391 0.1009 0.68383 0.0
H851 H 0.87075 0.11543 0.60388 0.0
H852 H 0.92394 0.08018 0.48982 0.0
H853 H 0.95511 0.05098 0.54403 0.0
C854 C 0.95179 0.05346 0.63669 0.0
C855 C 0.94929 0.05907 0.68464 0.0
C856 C 0.93152 0.06698 0.60536 0.0
C857 C 0.92377 0.07495 0.70136 0.0
C858 C 0.90265 0.08753 0.67029 0.0
C859 C 0.88897 0.10114 0.5908 0.0
C860 C 0.89541 0.10045 0.54296 0.0
C861 C 0.90719 0.08486 0.6222 0.0
C862 C 0.91886 0.08155 0.52654 0.0
C863 C 0.9366 0.06473 0.55747 0.0
H864 H 0.13649 0.67104 0.46949 0.0
H865 H 0.20283 0.70405 0.37162 0.0
H866 H 0.18372 0.66877 0.31288 0.0
H867 H 0.14264 0.63538 0.28555 0.0
H868 H 0.07618 0.60184 0.38237 0.0
H869 H 0.10079 0.63055 0.44546 0.0
C870 C 0.14745 0.66975 0.43586 0.0
C871 C 0.17059 0.69053 0.42455 0.0
C872 C 0.13577 0.64997 0.40173 0.0
C873 C 0.18465 0.68856 0.38088 0.0
C874 C 0.17359 0.66859 0.34713 0.0
C875 C 0.13381 0.63416 0.32062 0.0
C876 C 0.10734 0.61732 0.3294 0.0
C877 C 0.14816 0.65041 0.35647 0.0
C878 C 0.09642 0.61507 0.37498 0.0
C879 C 0.11046 0.63144 0.41095 0.0
H880 H 0.88122 0.60083 0.38577 0.0
H881 H 0.94154 0.56488 0.49152 0.0
H882 H 0.97192 0.53984 0.43198 0.0
H883 H 0.98596 0.53541 0.35048 0.0
H884 H 0.92807 0.57456 0.24443 0.0
H885 H 0.89153 0.59021 0.30365 0.0
C886 C 0.90071 0.58711 0.39593 0.0
C887 C 0.90952 0.58535 0.44299 0.0
C888 C 0.91855 0.57341 0.36146 0.0
C889 C 0.93455 0.56707 0.45552 0.0
C890 C 0.95195 0.55273 0.42149 0.0
C891 C 0.96505 0.54684 0.34011 0.0
C892 C 0.96011 0.55448 0.29324 0.0
C893 C 0.94489 0.55686 0.37437 0.0
C894 C 0.9326 0.56866 0.28031 0.0
C895 C 0.91183 0.57787 0.31422 0.0
H896 H 0.13381 0.12913 0.68049 0.0
H897 H 0.06919 0.09061 0.5831 0.0
H898 H 0.09045 0.12176 0.52081 0.0
H899 H 0.121 0.16633 0.4986 0.0
H900 H 0.18371 0.20595 0.5981 0.0
H901 H 0.17029 0.16728 0.65477 0.0
C902 C 0.12472 0.12724 0.64542 0.0
C903 C 0.09956 0.10834 0.6364 0.0
C904 C 0.13673 0.14538 0.61029 0.0
C905 C 0.0884 0.10535 0.59077 0.0
C906 C 0.10047 0.1232 0.55528 0.0
C907 C 0.13249 0.16583 0.5321 0.0
C908 C 0.15286 0.18922 0.5446 0.0
C909 C 0.12378 0.14422 0.56516 0.0
C910 C 0.16762 0.18836 0.58805 0.0
C911 C 0.15982 0.16641 0.62055 0.0
H912 H 0.53464 0.37471 0.76691 0.0
H913 H 0.49237 0.44382 0.85163 0.0
H914 H 0.52158 0.42678 0.91914 0.0
H915 H 0.55359 0.38824 0.95588 0.0
H916 H 0.59441 0.31757 0.87243 0.0
H917 H 0.57125 0.33923 0.80251 0.0
C918 C 0.53253 0.38658 0.79983 0.0
C919 C 0.51129 0.41032 0.80449 0.0
C920 C 0.54855 0.37594 0.83889 0.0
C921 C 0.50851 0.42536 0.84739 0.0
C922 C 0.52501 0.4155 0.88603 0.0
C923 C 0.55755 0.37762 0.92238 0.0
C924 C 0.57516 0.35101 0.91944 0.0
C925 C 0.54409 0.39006 0.88254 0.0
C926 C 0.58065 0.33791 0.87567 0.0
C927 C 0.56745 0.3503 0.83568 0.0
H928 H 0.32203 0.78417 0.08026 0.0
H929 H 0.37552 0.81389 0.96358 0.0
H930 H 0.39834 0.85406 0.01165 0.0
H931 H 0.40888 0.87511 0.09014 0.0
H932 H 0.35836 0.84083 0.20703 0.0
H933 H 0.32883 0.80785 0.15564 0.0
C934 C 0.33832 0.79971 0.06495 0.0
C935 C 0.34749 0.79566 0.01866 0.0
C936 C 0.35237 0.82156 0.09321 0.0
C937 C 0.36815 0.8164 -0.00077 0.0
C938 C 0.38146 0.83917 0.02685 0.0
C939 C 0.39109 0.86071 0.10409 0.0
C940 C 0.38611 0.85997 0.1523 0.0
C941 C 0.37471 0.84106 0.07442 0.0
C942 C 0.36299 0.84133 0.17011 0.0
C943 C 0.346 0.82257 0.14076 0.0
H944 H 0.09863 0.3057 0.64936 0.0
H945 H 0.06409 0.37282 0.55331 0.0
H946 H 0.03282 0.39496 0.61416 0.0
H947 H 0.01007 0.39082 0.69028 0.0
H948 H 0.04032 0.32141 0.78542 0.0
H949 H 0.07943 0.30529 0.72997 0.0
C950 C 0.08459 0.32544 0.64207 0.0
C951 C 0.08314 0.33725 0.59677 0.0
C952 C 0.066 0.33764 0.67701 0.0
C953 C 0.06506 0.36294 0.5877 0.0
C954 C 0.04728 0.37571 0.62248 0.0
C955 C 0.0256 0.3725 0.69927 0.0
C956 C 0.02204 0.35691 0.74128 0.0
C957 C 0.04679 0.36257 0.66664 0.0
C958 C 0.04264 0.33368 0.75309 0.0
C959 C 0.06472 0.32425 0.72119 0.0
H960 H 0.86193 0.79384 0.29629 0.0
H961 H 0.91905 0.85129 0.38226 0.0
H962 H 0.90642 0.82089 0.45035 0.0
H963 H 0.88387 0.77441 0.48327 0.0
H964 H 0.82834 0.71656 0.39544 0.0
H965 H 0.83541 0.75093 0.33043 0.0
C966 C 0.87142 0.79994 0.32997 0.0
C967 C 0.89179 0.82443 0.33404 0.0
C968 C 0.86446 0.78219 0.36865 0.0
C969 C 0.90345 0.83236 0.37811 0.0
C970 C 0.89632 0.81494 0.41705 0.0
C971 C 0.87285 0.76971 0.45015 0.0
C972 C 0.85601 0.74281 0.44395 0.0
C973 C 0.87753 0.78928 0.41245 0.0
C974 C 0.84182 0.73693 0.40087 0.0
C975 C 0.84584 0.75654 0.36364 0.0
H976 H 0.40041 0.60614 0.06729 0.0
H977 H 0.36615 0.68315 0.14428 0.0
H978 H 0.39666 0.66826 0.21177 0.0
H979 H 0.4389 0.63792 0.24418 0.0
H980 H 0.47434 0.56228 0.16527 0.0
H981 H 0.43707 0.57171 0.10375 0.0
C982 C 0.39928 0.61946 0.09904 0.0
C983 C 0.38156 0.64605 0.10041 0.0
C984 C 0.41719 0.61105 0.13739 0.0
C985 C 0.37986 0.66271 0.14212 0.0
C986 C 0.39737 0.65427 0.18072 0.0
C987 C 0.43786 0.62297 0.21415 0.0
C988 C 0.45963 0.59975 0.20893 0.0
C989 C 0.41696 0.6291 0.17815 0.0
C990 C 0.45805 0.58057 0.1698 0.0
C991 C 0.43685 0.58602 0.13449 0.0
H992 H 0.64845 0.2034 0.95939 0.0
H993 H 0.56523 0.18832 0.03464 0.0
H994 H 0.54957 0.14961 0.9775 0.0
H995 H 0.55552 0.12798 0.89805 0.0
H996 H 0.63754 0.14754 0.82159 0.0
H997 H 0.65793 0.17626 0.88729 0.0
C998 C 0.62729 0.19094 0.96398 0.0
C999 C 0.60782 0.19877 0.0006 0.0
C1000 C 0.61804 0.1699 0.9302 0.0
C1001 C 0.5806 0.18248 0.00667 0.0
C1002 C 0.57151 0.16067 0.97366 0.0
C1003 C 0.57818 0.13786 0.89649 0.0
C1004 C 0.59489 0.1361 0.85497 0.0
C1005 C 0.58938 0.15534 0.93403 0.0
C1006 C 0.62415 0.14903 0.85304 0.0
C1007 C 0.63582 0.16544 0.89055 0.0
H1008 H 0.28122 0.26067 0.19759 0.0
H1009 H 0.21134 0.20044 0.14444 0.0
H1010 H 0.18199 0.20706 0.21545 0.0
H1011 H 0.17664 0.22927 0.29301 0.0
H1012 H 0.24654 0.28945 0.34625 0.0
H1013 H 0.27578 0.28302 0.27509 0.0
C1014 C 0.25934 0.24941 0.20131 0.0
C1015 C 0.24836 0.23025 0.16594 0.0
C1016 C 0.24292 0.25278 0.24252 0.0
C1017 C 0.22021 0.21536 0.17136 0.0
C1018 C 0.20351 0.21897 0.21198 0.0
C1019 C 0.19848 0.24059 0.28927 0.0
C1020 C 0.20952 0.25963 0.32475 0.0
C1021 C 0.21486 0.23729 0.24801 0.0
C1022 C 0.23762 0.2746 0.31928 0.0
C1023 C 0.25426 0.2711 0.27857 0.0
H1024 H 0.55035 0.52221 0.45133 0.0
H1025 H 0.46836 0.5761 0.4364 0.0
H1026 H 0.44326 0.54545 0.49514 0.0
H1027 H 0.44406 0.50301 0.54897 0.0
H1028 H 0.52568 0.44877 0.56478 0.0
H1029 H 0.55151 0.48013 0.50709 0.0
C1030 C 0.52703 0.52737 0.46101 0.0
C1031 C 0.51125 0.55139 0.43929 0.0
C1032 C 0.51264 0.50958 0.4947 0.0
C1033 C 0.48106 0.55776 0.45243 0.0
C1034 C 0.46665 0.54021 0.48597 0.0
C1035 C 0.4675 0.49789 0.53984 0.0
C1036 C 0.48285 0.47342 0.56096 0.0
C1037 C 0.48214 0.51596 0.50697 0.0
C1038 C 0.51331 0.46742 0.54897 0.0
C1039 C 0.52808 0.48533 0.51601 0.0
H1040 H 0.19926 0.72989 0.68058 0.0
H1041 H 0.27469 0.78056 0.62437 0.0
H1042 H 0.30478 0.77106 0.6945 0.0
H1043 H 0.30931 0.74914 0.77264 0.0
H1044 H 0.23323 0.69934 0.82904 0.0
H1045 H 0.20373 0.70812 0.75846 0.0
C1046 C 0.22244 0.73844 0.68346 0.0
C1047 C 0.23478 0.75573 0.64738 0.0
C1048 C 0.23937 0.7335 0.72426 0.0
C1049 C 0.26468 0.76714 0.65181 0.0
C1050 C 0.28187 0.76185 0.69195 0.0
C1051 C 0.28618 0.74051 0.76963 0.0
C1052 C 0.27355 0.72366 0.80605 0.0
C1053 C 0.26931 0.74538 0.72867 0.0
C1054 C 0.24359 0.71235 0.80145 0.0
C1055 C 0.22668 0.71724 0.76102 0.0
H1056 H 0.96906 0.49647 0.08192 0.0
H1057 H 0.06211 0.48329 0.03743 0.0
H1058 H 0.0457 0.44329 0.98409 0.0
H1059 H 0.00458 0.41365 0.94728 0.0
H1060 H 0.91151 0.428 0.99023 0.0
H1061 H 0.92836 0.4654 0.04773 0.0
C1062 C 0.98572 0.48497 0.0604 0.0
C1063 C 0.01666 0.49306 0.06335 0.0
C1064 C 0.97621 0.46188 0.02995 0.0
C1065 C 0.03806 0.4776 0.03569 0.0
C1066 C 0.02876 0.45462 0.00527 0.0
C1067 C 0.98815 0.42451 0.96999 0.0
C1068 C 0.95696 0.41819 0.96474 0.0
C1069 C -0.00212 0.44666 0.00196 0.0
C1070 C 0.93571 0.43266 -0.00624 0.0
C1071 C 0.94528 0.45415 0.02639 0.0
H1072 H 0.74211 0.7889 0.77986 0.0
H1073 H 0.69041 0.70638 0.79997 0.0
H1074 H 0.72536 0.67893 0.74925 0.0
H1075 H 0.76984 0.67845 0.6991 0.0
H1076 H 0.82167 0.76074 0.67798 0.0
H1077 H 0.7873 0.78822 0.73003 0.0
C1078 C 0.73836 0.76491 0.77312 0.0
C1079 C 0.71354 0.74976 0.79362 0.0
C1080 C 0.75859 0.74924 0.74409 0.0
C1081 C 0.70924 0.71864 0.78464 0.0
C1082 C 0.72924 0.70292 0.7557 0.0
C1083 C 0.77383 0.7024 0.70586 0.0
C1084 C 0.79834 0.71753 0.68451 0.0
C1085 C 0.75393 0.71801 0.73529 0.0
C1086 C 0.80304 0.74853 0.69394 0.0
C1087 C 0.78334 0.76426 0.72356 0.0
H1088 H 0.67145 0.22366 0.20316 0.0
H1089 H 0.70136 0.31595 0.22635 0.0
H1090 H 0.73966 0.29845 0.2821 0.0
H1091 H 0.76637 0.25658 0.32143 0.0
H1092 H 0.73694 0.16424 0.29575 0.0
H1093 H 0.69706 0.18217 0.24378 0.0
C1094 C 0.68603 0.23996 0.22097 0.0
C1095 C 0.68363 0.27095 0.21066 0.0
C1096 C 0.70845 0.22973 0.25212 0.0
C1097 C 0.70289 0.29185 0.23361 0.0
C1098 C 0.72487 0.2819 0.26537 0.0
C1099 C 0.75129 0.24041 0.30437 0.0
C1100 C 0.75482 0.20917 0.31245 0.0
C1101 C 0.72824 0.25081 0.27427 0.0
C1102 C 0.73488 0.18849 0.29024 0.0
C1103 C 0.71193 0.19867 0.2605 0.0
H1104 H 0.9695 0.00942 0.91667 0.0
H1105 H 0.05868 0.96744 0.91342 0.0
H1106 H 0.04478 0.93454 0.97757 0.0
H1107 H 0.0079 0.91855 0.03595 0.0
H1108 H 0.91886 0.96085 0.03936 0.0
H1109 H 0.93225 -0.00738 0.97374 0.0
C1110 C 0.98587 -0.00698 0.92985 0.0
C1111 C 0.01506 -0.00896 0.9104 0.0
C1112 C 0.97785 0.97422 0.96688 0.0
C1113 C 0.03601 0.96958 0.92787 0.0
C1114 C 0.02814 0.95071 0.96459 0.0
C1115 C -0.0086 0.93465 0.02228 0.0
C1116 C 0.96255 0.93737 0.0427 0.0
C1117 C -0.0008 0.95299 0.98458 0.0
C1118 C 0.94136 0.95832 0.02446 0.0
C1119 C 0.94894 0.97655 0.98688 0.0
H1120 H 0.54681 0.03821 0.52764 0.0
H1121 H 0.45604 0.07268 0.55267 0.0
H1122 H 0.43743 0.04653 0.4827 0.0
H1123 H 0.44664 0.01157 0.41742 0.0
H1124 H 0.53765 0.97683 0.39437 0.0
H1125 H 0.55649 0.0057 0.46099 0.0
C1126 C 0.52291 0.04012 0.51792 0.0
C1127 C 0.50274 0.05707 0.54566 0.0
C1128 C 0.51244 0.02496 0.47817 0.0
C1129 C 0.472 0.05966 0.53201 0.0
C1130 C 0.46136 0.04467 0.49211 0.0
C1131 C 0.47065 0.01045 0.42671 0.0
C1132 C 0.49064 -0.00818 0.40109 0.0
C1133 C 0.48133 0.0269 0.46536 0.0
C1134 C 0.5217 -0.0092 0.41356 0.0
C1135 C 0.53252 0.00728 0.45169 0.0
loop_
_geom_bond_atom_site_label_1
_geom_bond_atom_site_label_2
_geom_bond_distance
_geom_bond_site_symmetry_2
_ccdc_geom_bond_type
O0 Zn1 1.953 . S
O0 C16 1.225 . S
Zn1 O0 1.953 . S
Zn1 O2 1.949 1_556 S
Zn1 O8 1.919 . S
Zn1 O13 1.924 . S
O2 Zn1 1.949 1_554 S
O2 Zn3 1.923 . S
O2 Zn4 1.950 . S
O2 Zn5 1.945 . S
Zn3 O2 1.923 . S
Zn3 O6 1.933 . S
Zn3 O9 1.941 . S
Zn3 O10 1.965 . S
Zn4 O2 1.950 . S
Zn4 O11 1.938 . S
Zn4 O12 1.906 . S
Zn4 O22 1.953 . S
Zn5 O2 1.945 . S
Zn5 O7 1.932 . S
Zn5 O14 1.977 . S
Zn5 O15 1.910 . S
O6 Zn3 1.933 . S
O6 C17 1.226 . S
O7 Zn5 1.932 . S
O7 C17 1.307 . S
O8 Zn1 1.919 . S
O8 C19 1.253 . S
O9 Zn3 1.941 . S
O9 C19 1.283 1_554 S
O10 Zn3 1.965 . S
O10 C18 1.303 . S
O11 Zn4 1.938 . S
O11 C18 1.247 . S
O12 Zn4 1.906 . S
O12 C20 1.304 . S
O13 Zn1 1.924 . S
O13 C21 1.311 . S
O14 Zn5 1.977 . S
O14 C20 1.272 . S
O15 Zn5 1.910 . S
O15 C21 1.231 1_554 S
C16 O0 1.225 . S
C16 O22 1.298 1_556 S
C17 O6 1.226 . S
C17 O7 1.307 . S
C18 O10 1.303 . S
C18 O11 1.247 . S
C19 O8 1.253 . S
C19 O9 1.283 1_556 S
C20 O12 1.304 . S
C20 O14 1.272 . S
C21 O13 1.311 . S
C21 O15 1.231 1_556 S
O22 Zn4 1.953 . S
O22 C16 1.298 1_554 S
O23 Zn24 1.953 . S
O23 C39 1.225 . S
Zn24 O23 1.953 . S
Zn24 O25 1.949 . S
Zn24 O31 1.919 . S
Zn24 O36 1.924 . S
O25 Zn24 1.949 . S
O25 Zn26 1.923 . S
O25 Zn27 1.950 . S
O25 Zn28 1.945 . S
Zn26 O25 1.923 . S
Zn26 O29 1.933 . S
Zn26 O32 1.941 . S
Zn26 O33 1.965 . S
Zn27 O25 1.950 . S
Zn27 O34 1.938 . S
Zn27 O35 1.906 . S
Zn27 O45 1.953 . S
Zn28 O25 1.945 . S
Zn28 O30 1.932 . S
Zn28 O37 1.977 . S
Zn28 O38 1.910 . S
O29 Zn26 1.933 . S
O29 C40 1.226 . S
O30 Zn28 1.932 . S
O30 C40 1.307 . S
O31 Zn24 1.919 . S
O31 C42 1.253 . S
O32 Zn26 1.941 . S
O32 C42 1.283 . S
O33 Zn26 1.965 . S
O33 C41 1.303 . S
O34 Zn27 1.938 . S
O34 C41 1.247 . S
O35 Zn27 1.906 . S
O35 C43 1.304 . S
O36 Zn24 1.924 . S
O36 C44 1.311 . S
O37 Zn28 1.977 . S
O37 C43 1.272 . S
O38 Zn28 1.910 . S
O38 C44 1.231 . S
C39 O23 1.225 . S
C39 O45 1.298 . S
C40 O29 1.226 . S
C40 O30 1.307 . S
C41 O33 1.303 . S
C41 O34 1.247 . S
C42 O31 1.253 . S
C42 O32 1.283 . S
C43 O35 1.304 . S
C43 O37 1.272 . S
C44 O36 1.311 . S
C44 O38 1.231 . S
O45 Zn27 1.953 . S
O45 C39 1.298 . S
O46 Zn47 1.953 . S
O46 C62 1.225 . S
Zn47 O46 1.953 . S
Zn47 O48 1.949 . S
Zn47 O54 1.919 . S
Zn47 O59 1.924 . S
O48 Zn47 1.949 . S
O48 Zn49 1.923 . S
O48 Zn50 1.950 . S
O48 Zn51 1.945 . S
Zn49 O48 1.923 . S
Zn49 O52 1.933 . S
Zn49 O55 1.941 . S
Zn49 O56 1.965 . S
Zn50 O48 1.950 . S
Zn50 O57 1.938 . S
Zn50 O58 1.906 . S
Zn50 O68 1.953 . S
Zn51 O48 1.945 . S
Zn51 O53 1.932 . S
Zn51 O60 1.977 . S
Zn51 O61 1.910 . S
O52 Zn49 1.933 . S
O52 C63 1.226 . S
O53 Zn51 1.932 . S
O53 C63 1.307 . S
O54 Zn47 1.919 . S
O54 C65 1.253 . S
O55 Zn49 1.941 . S
O55 C65 1.283 . S
O56 Zn49 1.965 . S
O56 C64 1.303 . S
O57 Zn50 1.938 . S
O57 C64 1.247 . S
O58 Zn50 1.906 . S
O58 C66 1.304 . S
O59 Zn47 1.924 . S
O59 C67 1.311 . S
O60 Zn51 1.977 . S
O60 C66 1.272 . S
O61 Zn51 1.910 . S
O61 C67 1.231 . S
C62 O46 1.225 . S
C62 O68 1.298 . S
C63 O52 1.226 . S
C63 O53 1.307 . S
C64 O56 1.303 . S
C64 O57 1.247 . S
C65 O54 1.253 . S
C65 O55 1.283 . S
C66 O58 1.304 . S
C66 O60 1.272 . S
C67 O59 1.311 . S
C67 O61 1.231 . S
O68 Zn50 1.953 . S
O68 C62 1.298 . S
O69 Zn70 1.953 . S
O69 C85 1.225 . S
Zn70 O69 1.953 . S
Zn70 O71 1.949 . S
Zn70 O77 1.919 . S
Zn70 O82 1.924 . S
O71 Zn70 1.949 . S
O71 Zn72 1.923 . S
O71 Zn73 1.950 . S
O71 Zn74 1.945 . S
Zn72 O71 1.923 . S
Zn72 O75 1.933 . S
Zn72 O78 1.941 . S
Zn72 O79 1.965 . S
Zn73 O71 1.950 . S
Zn73 O80 1.938 . S
Zn73 O81 1.906 . S
Zn73 O91 1.953 . S
Zn74 O71 1.945 . S
Zn74 O76 1.932 . S
Zn74 O83 1.977 . S
Zn74 O84 1.910 . S
O75 Zn72 1.933 . S
O75 C86 1.226 . S
O76 Zn74 1.932 . S
O76 C86 1.307 . S
O77 Zn70 1.919 . S
O77 C88 1.253 . S
O78 Zn72 1.941 . S
O78 C88 1.283 . S
O79 Zn72 1.965 . S
O79 C87 1.303 . S
O80 Zn73 1.938 . S
O80 C87 1.247 . S
O81 Zn73 1.906 . S
O81 C89 1.304 . S
O82 Zn70 1.924 . S
O82 C90 1.311 . S
O83 Zn74 1.977 . S
O83 C89 1.272 . S
O84 Zn74 1.910 . S
O84 C90 1.231 . S
C85 O69 1.225 . S
C85 O91 1.298 . S
C86 O75 1.226 . S
C86 O76 1.307 . S
C87 O79 1.303 . S
C87 O80 1.247 . S
C88 O77 1.253 . S
C88 O78 1.283 . S
C89 O81 1.304 . S
C89 O83 1.272 . S
C90 O82 1.311 . S
C90 O84 1.231 . S
O91 Zn73 1.953 . S
O91 C85 1.298 . S
O92 Zn93 1.953 . S
O92 C108 1.225 . S
Zn93 O92 1.953 . S
Zn93 O94 1.949 1_554 S
Zn93 O100 1.919 . S
Zn93 O105 1.924 . S
O94 Zn93 1.949 1_556 S
O94 Zn95 1.923 . S
O94 Zn96 1.950 . S
O94 Zn97 1.945 . S
Zn95 O94 1.923 . S
Zn95 O98 1.933 . S
Zn95 O101 1.941 . S
Zn95 O102 1.965 . S
Zn96 O94 1.950 . S
Zn96 O103 1.938 . S
Zn96 O104 1.906 . S
Zn96 O114 1.953 . S
Zn97 O94 1.945 . S
Zn97 O99 1.932 . S
Zn97 O106 1.977 . S
Zn97 O107 1.910 . S
O98 Zn95 1.933 . S
O98 C109 1.226 . S
O99 Zn97 1.932 . S
O99 C109 1.307 . S
O100 Zn93 1.919 . S
O100 C111 1.253 . S
O101 Zn95 1.941 . S
O101 C111 1.283 1_556 S
O102 Zn95 1.965 . S
O102 C110 1.303 . S
O103 Zn96 1.938 . S
O103 C110 1.247 . S
O104 Zn96 1.906 . S
O104 C112 1.304 . S
O105 Zn93 1.924 . S
O105 C113 1.311 . S
O106 Zn97 1.977 . S
O106 C112 1.272 . S
O107 Zn97 1.910 . S
O107 C113 1.231 1_556 S
C108 O92 1.225 . S
C108 O114 1.298 1_554 S
C109 O98 1.226 . S
C109 O99 1.307 . S
C110 O102 1.303 . S
C110 O103 1.247 . S
C111 O100 1.253 . S
C111 O101 1.283 1_554 S
C112 O104 1.304 . S
C112 O106 1.272 . S
C113 O105 1.311 . S
C113 O107 1.231 1_554 S
O114 Zn96 1.953 . S
O114 C108 1.298 1_556 S
O115 Zn116 1.953 . S
O115 C131 1.225 . S
Zn116 O115 1.953 . S
Zn116 O117 1.949 . S
Zn116 O123 1.919 . S
Zn116 O128 1.924 . S
O117 Zn116 1.949 . S
O117 Zn118 1.923 . S
O117 Zn119 1.950 . S
O117 Zn120 1.945 . S
Zn118 O117 1.923 . S
Zn118 O121 1.933 . S
Zn118 O124 1.941 . S
Zn118 O125 1.965 . S
Zn119 O117 1.950 . S
Zn119 O126 1.938 . S
Zn119 O127 1.906 . S
Zn119 O137 1.953 . S
Zn120 O117 1.945 . S
Zn120 O122 1.932 . S
Zn120 O129 1.977 . S
Zn120 O130 1.910 . S
O121 Zn118 1.933 . S
O121 C132 1.226 . S
O122 Zn120 1.932 . S
O122 C132 1.307 . S
O123 Zn116 1.919 . S
O123 C134 1.253 . S
O124 Zn118 1.941 . S
O124 C134 1.283 . S
O125 Zn118 1.965 . S
O125 C133 1.303 . S
O126 Zn119 1.938 . S
O126 C133 1.247 . S
O127 Zn119 1.906 . S
O127 C135 1.304 . S
O128 Zn116 1.924 . S
O128 C136 1.311 . S
O129 Zn120 1.977 . S
O129 C135 1.272 . S
O130 Zn120 1.910 . S
O130 C136 1.231 . S
C131 O115 1.225 . S
C131 O137 1.298 . S
C132 O121 1.226 . S
C132 O122 1.307 . S
C133 O125 1.303 . S
C133 O126 1.247 . S
C134 O123 1.253 . S
C134 O124 1.283 . S
C135 O127 1.304 . S
C135 O129 1.272 . S
C136 O128 1.311 . S
C136 O130 1.231 . S
O137 Zn119 1.953 . S
O137 C131 1.298 . S
O138 Zn139 1.953 . S
O138 C154 1.225 . S
Zn139 O138 1.953 . S
Zn139 O140 1.949 . S
Zn139 O146 1.919 . S
Zn139 O151 1.924 . S
O140 Zn139 1.949 . S
O140 Zn141 1.923 . S
O140 Zn142 1.950 . S
O140 Zn143 1.945 . S
Zn141 O140 1.923 . S
Zn141 O144 1.933 . S
Zn141 O147 1.941 . S
Zn141 O148 1.965 . S
Zn142 O140 1.950 . S
Zn142 O149 1.938 . S
Zn142 O150 1.906 . S
Zn142 O160 1.953 . S
Zn143 O140 1.945 . S
Zn143 O145 1.932 . S
Zn143 O152 1.977 . S
Zn143 O153 1.910 . S
O144 Zn141 1.933 . S
O144 C155 1.226 . S
O145 Zn143 1.932 . S
O145 C155 1.307 . S
O146 Zn139 1.919 . S
O146 C157 1.253 . S
O147 Zn141 1.941 . S
O147 C157 1.283 . S
O148 Zn141 1.965 . S
O148 C156 1.303 . S
O149 Zn142 1.938 . S
O149 C156 1.247 . S
O150 Zn142 1.906 . S
O150 C158 1.304 . S
O151 Zn139 1.924 . S
O151 C159 1.311 . S
O152 Zn143 1.977 . S
O152 C158 1.272 . S
O153 Zn143 1.910 . S
O153 C159 1.231 . S
C154 O138 1.225 . S
C154 O160 1.298 . S
C155 O144 1.226 . S
C155 O145 1.307 . S
C156 O148 1.303 . S
C156 O149 1.247 . S
C157 O146 1.253 . S
C157 O147 1.283 . S
C158 O150 1.304 . S
C158 O152 1.272 . S
C159 O151 1.311 . S
C159 O153 1.231 . S
O160 Zn142 1.953 . S
O160 C154 1.298 . S
O161 Zn162 1.953 . S
O161 C177 1.225 . S
Zn162 O161 1.953 . S
Zn162 O163 1.949 . S
Zn162 O169 1.919 . S
Zn162 O174 1.924 . S
O163 Zn162 1.949 . S
O163 Zn164 1.923 . S
O163 Zn165 1.950 . S
O163 Zn166 1.945 . S
Zn164 O163 1.923 . S
Zn164 O167 1.933 . S
Zn164 O170 1.941 . S
Zn164 O171 1.965 . S
Zn165 O163 1.950 . S
Zn165 O172 1.938 . S
Zn165 O173 1.906 . S
Zn165 O183 1.953 . S
Zn166 O163 1.945 . S
Zn166 O168 1.932 . S
Zn166 O175 1.977 . S
Zn166 O176 1.910 . S
O167 Zn164 1.933 . S
O167 C178 1.226 . S
O168 Zn166 1.932 . S
O168 C178 1.307 . S
O169 Zn162 1.919 . S
O169 C180 1.253 . S
O170 Zn164 1.941 . S
O170 C180 1.283 . S
O171 Zn164 1.965 . S
O171 C179 1.303 . S
O172 Zn165 1.938 . S
O172 C179 1.247 . S
O173 Zn165 1.906 . S
O173 C181 1.304 . S
O174 Zn162 1.924 . S
O174 C182 1.311 . S
O175 Zn166 1.977 . S
O175 C181 1.272 . S
O176 Zn166 1.910 . S
O176 C182 1.231 . S
C177 O161 1.225 . S
C177 O183 1.298 . S
C178 O167 1.226 . S
C178 O168 1.307 . S
C179 O171 1.303 . S
C179 O172 1.247 . S
C180 O169 1.253 . S
C180 O170 1.283 . S
C181 O173 1.304 . S
C181 O175 1.272 . S
C182 O174 1.311 . S
C182 O176 1.231 . S
O183 Zn165 1.953 . S
O183 C177 1.298 . S
O184 Zn185 1.953 . S
O184 C200 1.225 . S
Zn185 O184 1.953 . S
Zn185 O186 1.949 . S
Zn185 O192 1.919 . S
Zn185 O197 1.924 . S
O186 Zn185 1.949 . S
O186 Zn187 1.923 . S
O186 Zn188 1.950 . S
O186 Zn189 1.945 . S
Zn187 O186 1.923 . S
Zn187 O190 1.933 . S
Zn187 O193 1.941 . S
Zn187 O194 1.965 . S
Zn188 O186 1.950 . S
Zn188 O195 1.938 . S
Zn188 O196 1.906 . S
Zn188 O206 1.953 . S
Zn189 O186 1.945 . S
Zn189 O191 1.932 . S
Zn189 O198 1.977 . S
Zn189 O199 1.910 . S
O190 Zn187 1.933 . S
O190 C201 1.226 . S
O191 Zn189 1.932 . S
O191 C201 1.307 . S
O192 Zn185 1.919 . S
O192 C203 1.253 . S
O193 Zn187 1.941 . S
O193 C203 1.283 . S
O194 Zn187 1.965 . S
O194 C202 1.303 . S
O195 Zn188 1.938 . S
O195 C202 1.247 . S
O196 Zn188 1.906 . S
O196 C204 1.304 . S
O197 Zn185 1.924 . S
O197 C205 1.311 . S
O198 Zn189 1.977 . S
O198 C204 1.272 . S
O199 Zn189 1.910 . S
O199 C205 1.231 . S
C200 O184 1.225 . S
C200 O206 1.298 . S
C201 O190 1.226 . S
C201 O191 1.307 . S
C202 O194 1.303 . S
C202 O195 1.247 . S
C203 O192 1.253 . S
C203 O193 1.283 . S
C204 O196 1.304 . S
C204 O198 1.272 . S
C205 O197 1.311 . S
C205 O199 1.231 . S
O206 Zn188 1.953 . S
O206 C200 1.298 . S
O207 Zn208 1.953 . S
O207 C223 1.225 . S
Zn208 O207 1.953 . S
Zn208 O209 1.949 . S
Zn208 O215 1.919 . S
Zn208 O220 1.924 . S
O209 Zn208 1.949 . S
O209 Zn210 1.923 . S
O209 Zn211 1.950 . S
O209 Zn212 1.945 . S
Zn210 O209 1.923 . S
Zn210 O213 1.933 . S
Zn210 O216 1.941 . S
Zn210 O217 1.965 . S
Zn211 O209 1.950 . S
Zn211 O218 1.938 . S
Zn211 O219 1.906 . S
Zn211 O229 1.953 . S
Zn212 O209 1.945 . S
Zn212 O214 1.932 . S
Zn212 O221 1.977 . S
Zn212 O222 1.910 . S
O213 Zn210 1.933 . S
O213 C224 1.226 . S
O214 Zn212 1.932 . S
O214 C224 1.307 . S
O215 Zn208 1.919 . S
O215 C226 1.253 . S
O216 Zn210 1.941 . S
O216 C226 1.283 . S
O217 Zn210 1.965 . S
O217 C225 1.303 . S
O218 Zn211 1.938 . S
O218 C225 1.247 . S
O219 Zn211 1.906 . S
O219 C227 1.304 . S
O220 Zn208 1.924 . S
O220 C228 1.311 . S
O221 Zn212 1.977 . S
O221 C227 1.272 . S
O222 Zn212 1.910 . S
O222 C228 1.231 . S
C223 O207 1.225 . S
C223 O229 1.298 . S
C224 O213 1.226 . S
C224 O214 1.307 . S
C225 O217 1.303 . S
C225 O218 1.247 . S
C226 O215 1.253 . S
C226 O216 1.283 . S
C227 O219 1.304 . S
C227 O221 1.272 . S
C228 O220 1.311 . S
C228 O222 1.231 . S
O229 Zn211 1.953 . S
O229 C223 1.298 . S
O230 Zn231 1.953 . S
O230 C246 1.225 . S
Zn231 O230 1.953 . S
Zn231 O232 1.949 1_556 S
Zn231 O238 1.919 . S
Zn231 O243 1.924 . S
O232 Zn231 1.949 1_554 S
O232 Zn233 1.923 . S
O232 Zn234 1.950 . S
O232 Zn235 1.945 . S
Zn233 O232 1.923 . S
Zn233 O236 1.933 . S
Zn233 O239 1.941 . S
Zn233 O240 1.965 . S
Zn234 O232 1.950 . S
Zn234 O241 1.938 . S
Zn234 O242 1.906 . S
Zn234 O252 1.953 . S
Zn235 O232 1.945 . S
Zn235 O237 1.932 . S
Zn235 O244 1.977 . S
Zn235 O245 1.910 . S
O236 Zn233 1.933 . S
O236 C247 1.226 . S
O237 Zn235 1.932 . S
O237 C247 1.307 . S
O238 Zn231 1.919 . S
O238 C249 1.253 . S
O239 Zn233 1.941 . S
O239 C249 1.283 1_554 S
O240 Zn233 1.965 . S
O240 C248 1.303 . S
O241 Zn234 1.938 . S
O241 C248 1.247 . S
O242 Zn234 1.906 . S
O242 C250 1.304 . S
O243 Zn231 1.924 . S
O243 C251 1.311 . S
O244 Zn235 1.977 . S
O244 C250 1.272 . S
O245 Zn235 1.910 . S
O245 C251 1.231 1_554 S
C246 O230 1.225 . S
C246 O252 1.298 1_556 S
C247 O236 1.226 . S
C247 O237 1.307 . S
C248 O240 1.303 . S
C248 O241 1.247 . S
C249 O238 1.253 . S
C249 O239 1.283 1_556 S
C250 O242 1.304 . S
C250 O244 1.272 . S
C251 O243 1.311 . S
C251 O245 1.231 1_556 S
O252 Zn234 1.953 . S
O252 C246 1.298 1_554 S
O253 Zn254 1.953 . S
O253 C269 1.225 . S
Zn254 O253 1.953 . S
Zn254 O255 1.949 . S
Zn254 O261 1.919 . S
Zn254 O266 1.924 . S
O255 Zn254 1.949 . S
O255 Zn256 1.923 . S
O255 Zn257 1.950 . S
O255 Zn258 1.945 . S
Zn256 O255 1.923 . S
Zn256 O259 1.933 . S
Zn256 O262 1.941 . S
Zn256 O263 1.965 . S
Zn257 O255 1.950 . S
Zn257 O264 1.938 . S
Zn257 O265 1.906 . S
Zn257 O275 1.953 . S
Zn258 O255 1.945 . S
Zn258 O260 1.932 . S
Zn258 O267 1.977 . S
Zn258 O268 1.910 . S
O259 Zn256 1.933 . S
O259 C270 1.226 . S
O260 Zn258 1.932 . S
O260 C270 1.307 . S
O261 Zn254 1.919 . S
O261 C272 1.253 . S
O262 Zn256 1.941 . S
O262 C272 1.283 . S
O263 Zn256 1.965 . S
O263 C271 1.303 . S
O264 Zn257 1.938 . S
O264 C271 1.247 . S
O265 Zn257 1.906 . S
O265 C273 1.304 . S
O266 Zn254 1.924 . S
O266 C274 1.311 . S
O267 Zn258 1.977 . S
O267 C273 1.272 . S
O268 Zn258 1.910 . S
O268 C274 1.231 . S
C269 O253 1.225 . S
C269 O275 1.298 . S
C270 O259 1.226 . S
C270 O260 1.307 . S
C271 O263 1.303 . S
C271 O264 1.247 . S
C272 O261 1.253 . S
C272 O262 1.283 . S
C273 O265 1.304 . S
C273 O267 1.272 . S
C274 O266 1.311 . S
C274 O268 1.231 . S
O275 Zn257 1.953 . S
O275 C269 1.298 . S
O276 Zn277 1.953 . S
O276 C292 1.225 . S
Zn277 O276 1.953 . S
Zn277 O278 1.949 . S
Zn277 O284 1.919 . S
Zn277 O289 1.924 . S
O278 Zn277 1.949 . S
O278 Zn279 1.923 . S
O278 Zn280 1.950 . S
O278 Zn281 1.945 . S
Zn279 O278 1.923 . S
Zn279 O282 1.933 . S
Zn279 O285 1.941 . S
Zn279 O286 1.965 . S
Zn280 O278 1.950 . S
Zn280 O287 1.938 . S
Zn280 O288 1.906 . S
Zn280 O298 1.953 . S
Zn281 O278 1.945 . S
Zn281 O283 1.932 . S
Zn281 O290 1.977 . S
Zn281 O291 1.910 . S
O282 Zn279 1.933 . S
O282 C293 1.226 . S
O283 Zn281 1.932 . S
O283 C293 1.307 . S
O284 Zn277 1.919 . S
O284 C295 1.253 . S
O285 Zn279 1.941 . S
O285 C295 1.283 . S
O286 Zn279 1.965 . S
O286 C294 1.303 . S
O287 Zn280 1.938 . S
O287 C294 1.247 . S
O288 Zn280 1.906 . S
O288 C296 1.304 . S
O289 Zn277 1.924 . S
O289 C297 1.311 . S
O290 Zn281 1.977 . S
O290 C296 1.272 . S
O291 Zn281 1.910 . S
O291 C297 1.231 . S
C292 O276 1.225 . S
C292 O298 1.298 . S
C293 O282 1.226 . S
C293 O283 1.307 . S
C294 O286 1.303 . S
C294 O287 1.247 . S
C295 O284 1.253 . S
C295 O285 1.283 . S
C296 O288 1.304 . S
C296 O290 1.272 . S
C297 O289 1.311 . S
C297 O291 1.231 . S
O298 Zn280 1.953 . S
O298 C292 1.298 . S
O299 Zn300 1.953 . S
O299 C315 1.225 . S
Zn300 O299 1.953 . S
Zn300 O301 1.949 . S
Zn300 O307 1.919 . S
Zn300 O312 1.924 . S
O301 Zn300 1.949 . S
O301 Zn302 1.923 . S
O301 Zn303 1.950 . S
O301 Zn304 1.945 . S
Zn302 O301 1.923 . S
Zn302 O305 1.933 . S
Zn302 O308 1.941 . S
Zn302 O309 1.965 . S
Zn303 O301 1.950 . S
Zn303 O310 1.938 . S
Zn303 O311 1.906 . S
Zn303 O321 1.953 . S
Zn304 O301 1.945 . S
Zn304 O306 1.932 . S
Zn304 O313 1.977 . S
Zn304 O314 1.910 . S
O305 Zn302 1.933 . S
O305 C316 1.226 . S
O306 Zn304 1.932 . S
O306 C316 1.307 . S
O307 Zn300 1.919 . S
O307 C318 1.253 . S
O308 Zn302 1.941 . S
O308 C318 1.283 . S
O309 Zn302 1.965 . S
O309 C317 1.303 . S
O310 Zn303 1.938 . S
O310 C317 1.247 . S
O311 Zn303 1.906 . S
O311 C319 1.304 . S
O312 Zn300 1.924 . S
O312 C320 1.311 . S
O313 Zn304 1.977 . S
O313 C319 1.272 . S
O314 Zn304 1.910 . S
O314 C320 1.231 . S
C315 O299 1.225 . S
C315 O321 1.298 . S
C316 O305 1.226 . S
C316 O306 1.307 . S
C317 O309 1.303 . S
C317 O310 1.247 . S
C318 O307 1.253 . S
C318 O308 1.283 . S
C319 O311 1.304 . S
C319 O313 1.272 . S
C320 O312 1.311 . S
C320 O314 1.231 . S
O321 Zn303 1.953 . S
O321 C315 1.298 . S
O322 Zn323 1.953 . S
O322 C338 1.225 . S
Zn323 O322 1.953 . S
Zn323 O324 1.949 1_554 S
Zn323 O330 1.919 . S
Zn323 O335 1.924 . S
O324 Zn323 1.949 1_556 S
O324 Zn325 1.923 . S
O324 Zn326 1.950 . S
O324 Zn327 1.945 . S
Zn325 O324 1.923 . S
Zn325 O328 1.933 . S
Zn325 O331 1.941 . S
Zn325 O332 1.965 . S
Zn326 O324 1.950 . S
Zn326 O333 1.938 . S
Zn326 O334 1.906 . S
Zn326 O344 1.953 . S
Zn327 O324 1.945 . S
Zn327 O329 1.932 . S
Zn327 O336 1.977 . S
Zn327 O337 1.910 . S
O328 Zn325 1.933 . S
O328 C339 1.226 . S
O329 Zn327 1.932 . S
O329 C339 1.307 . S
O330 Zn323 1.919 . S
O330 C341 1.253 . S
O331 Zn325 1.941 . S
O331 C341 1.283 1_556 S
O332 Zn325 1.965 . S
O332 C340 1.303 . S
O333 Zn326 1.938 . S
O333 C340 1.247 . S
O334 Zn326 1.906 . S
O334 C342 1.304 . S
O335 Zn323 1.924 . S
O335 C343 1.311 . S
O336 Zn327 1.977 . S
O336 C342 1.272 . S
O337 Zn327 1.910 . S
O337 C343 1.231 1_556 S
C338 O322 1.225 . S
C338 O344 1.298 1_554 S
C339 O328 1.226 . S
C339 O329 1.307 . S
C340 O332 1.303 . S
C340 O333 1.247 . S
C341 O330 1.253 . S
C341 O331 1.283 1_554 S
C342 O334 1.304 . S
C342 O336 1.272 . S
C343 O335 1.311 . S
C343 O337 1.231 1_554 S
O344 Zn326 1.953 . S
O344 C338 1.298 1_556 S
O345 Zn346 1.953 . S
O345 C361 1.225 . S
Zn346 O345 1.953 . S
Zn346 O347 1.949 . S
Zn346 O353 1.919 . S
Zn346 O358 1.924 . S
O347 Zn346 1.949 . S
O347 Zn348 1.923 . S
O347 Zn349 1.950 . S
O347 Zn350 1.945 . S
Zn348 O347 1.923 . S
Zn348 O351 1.933 . S
Zn348 O354 1.941 . S
Zn348 O355 1.965 . S
Zn349 O347 1.950 . S
Zn349 O356 1.938 . S
Zn349 O357 1.906 . S
Zn349 O367 1.953 . S
Zn350 O347 1.945 . S
Zn350 O352 1.932 . S
Zn350 O359 1.977 . S
Zn350 O360 1.910 . S
O351 Zn348 1.933 . S
O351 C362 1.226 . S
O352 Zn350 1.932 . S
O352 C362 1.307 . S
O353 Zn346 1.919 . S
O353 C364 1.253 . S
O354 Zn348 1.941 . S
O354 C364 1.283 . S
O355 Zn348 1.965 . S
O355 C363 1.303 . S
O356 Zn349 1.938 . S
O356 C363 1.247 . S
O357 Zn349 1.906 . S
O357 C365 1.304 . S
O358 Zn346 1.924 . S
O358 C366 1.311 . S
O359 Zn350 1.977 . S
O359 C365 1.272 . S
O360 Zn350 1.910 . S
O360 C366 1.231 . S
C361 O345 1.225 . S
C361 O367 1.298 . S
C362 O351 1.226 . S
C362 O352 1.307 . S
C363 O355 1.303 . S
C363 O356 1.247 . S
C364 O353 1.253 . S
C364 O354 1.283 . S
C365 O357 1.304 . S
C365 O359 1.272 . S
C366 O358 1.311 . S
C366 O360 1.231 . S
O367 Zn349 1.953 . S
O367 C361 1.298 . S
H368 C374 0.930 . S
H369 C377 0.930 . S
H370 C378 0.930 . S
H371 C379 0.930 . S
H372 C382 0.930 . S
H373 C383 0.930 . S
C374 H368 0.930 . S
C374 C375 1.355 . S
C374 C376 1.415 . S
C375 C374 1.355 . S
C375 C377 1.419 . S
C376 C374 1.415 . S
C376 C381 1.425 . S
C376 C383 1.409 . S
C377 H369 0.930 . S
C377 C375 1.419 . S
C377 C378 1.362 . S
C378 H370 0.930 . S
C378 C377 1.362 . S
C378 C381 1.409 . S
C379 H371 0.930 . S
C379 C380 1.355 . S
C379 C381 1.415 . S
C380 C379 1.355 . S
C380 C382 1.419 . S
C381 C376 1.425 . S
C381 C378 1.409 . S
C381 C379 1.415 . S
C382 H372 0.930 . S
C382 C380 1.419 . S
C382 C383 1.362 . S
C383 H373 0.930 . S
C383 C376 1.409 . S
C383 C382 1.362 . S
H384 C390 0.930 . S
H385 C393 0.930 . S
H386 C394 0.930 . S
H387 C395 0.930 . S
H388 C398 0.930 . S
H389 C399 0.930 . S
C390 H384 0.930 . S
C390 C391 1.355 . S
C390 C392 1.415 . S
C391 C390 1.355 . S
C391 C393 1.419 . S
C392 C390 1.415 . S
C392 C397 1.425 . S
C392 C399 1.409 . S
C393 H385 0.930 . S
C393 C391 1.419 . S
C393 C394 1.362 . S
C394 H386 0.930 . S
C394 C393 1.362 . S
C394 C397 1.409 . S
C395 H387 0.930 . S
C395 C396 1.355 . S
C395 C397 1.415 . S
C396 C395 1.355 . S
C396 C398 1.419 . S
C397 C392 1.425 . S
C397 C394 1.409 . S
C397 C395 1.415 . S
C398 H388 0.930 . S
C398 C396 1.419 . S
C398 C399 1.362 . S
C399 H389 0.930 . S
C399 C392 1.409 . S
C399 C398 1.362 . S
H400 C406 0.930 . S
H401 C409 0.930 . S
H402 C410 0.930 1_655 S
H403 C411 0.930 . S
H404 C414 0.930 . S
H405 C415 0.930 1_455 S
C406 H400 0.930 . S
C406 C407 1.355 . S
C406 C408 1.415 . S
C407 C406 1.355 . S
C407 C409 1.419 . S
C408 C406 1.415 . S
C408 C413 1.425 1_455 S
C408 C415 1.409 1_455 S
C409 H401 0.930 . S
C409 C407 1.419 . S
C409 C410 1.362 . S
C410 H402 0.930 1_455 S
C410 C409 1.362 . S
C410 C413 1.409 1_455 S
C411 H403 0.930 . S
C411 C412 1.355 . S
C411 C413 1.415 . S
C412 C411 1.355 . S
C412 C414 1.419 . S
C413 C408 1.425 1_655 S
C413 C410 1.409 1_655 S
C413 C411 1.415 . S
C414 H404 0.930 . S
C414 C412 1.419 . S
C414 C415 1.362 . S
C415 H405 0.930 1_655 S
C415 C408 1.409 1_655 S
C415 C414 1.362 . S
H416 C422 0.930 . S
H417 C425 0.930 . S
H418 C426 0.930 . S
H419 C427 0.930 . S
H420 C430 0.930 . S
H421 C431 0.930 . S
C422 H416 0.930 . S
C422 C423 1.355 1_455 S
C422 C424 1.415 . S
C423 C422 1.355 1_655 S
C423 C425 1.419 . S
C424 C422 1.415 . S
C424 C429 1.425 1_455 S
C424 C431 1.409 . S
C425 H417 0.930 . S
C425 C423 1.419 . S
C425 C426 1.362 . S
C426 H418 0.930 . S
C426 C425 1.362 . S
C426 C429 1.409 . S
C427 H419 0.930 . S
C427 C428 1.355 1_655 S
C427 C429 1.415 . S
C428 C427 1.355 1_455 S
C428 C430 1.419 . S
C429 C424 1.425 1_655 S
C429 C426 1.409 . S
C429 C427 1.415 . S
C430 H420 0.930 . S
C430 C428 1.419 . S
C430 C431 1.362 . S
C431 H421 0.930 . S
C431 C424 1.409 . S
C431 C430 1.362 . S
H432 C438 0.930 . S
H433 C441 0.930 . S
H434 C442 0.930 . S
H435 C443 0.930 . S
H436 C446 0.930 . S
H437 C447 0.930 . S
C438 H432 0.930 . S
C438 C439 1.355 . S
C438 C440 1.415 . S
C439 C438 1.355 . S
C439 C441 1.419 . S
C440 C438 1.415 . S
C440 C445 1.425 . S
C440 C447 1.409 . S
C441 H433 0.930 . S
C441 C439 1.419 . S
C441 C442 1.362 . S
C442 H434 0.930 . S
C442 C441 1.362 . S
C442 C445 1.409 . S
C443 H435 0.930 . S
C443 C444 1.355 . S
C443 C445 1.415 . S
C444 C443 1.355 . S
C444 C446 1.419 . S
C445 C440 1.425 . S
C445 C442 1.409 . S
C445 C443 1.415 . S
C446 H436 0.930 . S
C446 C444 1.419 . S
C446 C447 1.362 . S
C447 H437 0.930 . S
C447 C440 1.409 . S
C447 C446 1.362 . S
H448 C454 0.930 . S
H449 C457 0.930 . S
H450 C458 0.930 . S
H451 C459 0.930 . S
H452 C462 0.930 . S
H453 C463 0.930 . S
C454 H448 0.930 . S
C454 C455 1.355 . S
C454 C456 1.415 . S
C455 C454 1.355 . S
C455 C457 1.419 . S
C456 C454 1.415 . S
C456 C461 1.425 . S
C456 C463 1.409 . S
C457 H449 0.930 . S
C457 C455 1.419 . S
C457 C458 1.362 . S
C458 H450 0.930 . S
C458 C457 1.362 . S
C458 C461 1.409 . S
C459 H451 0.930 . S
C459 C460 1.355 . S
C459 C461 1.415 . S
C460 C459 1.355 . S
C460 C462 1.419 . S
C461 C456 1.425 . S
C461 C458 1.409 . S
C461 C459 1.415 . S
C462 H452 0.930 . S
C462 C460 1.419 . S
C462 C463 1.362 . S
C463 H453 0.930 . S
C463 C456 1.409 . S
C463 C462 1.362 . S
H464 C470 0.930 . S
H465 C473 0.930 . S
H466 C474 0.930 . S
H467 C475 0.930 . S
H468 C478 0.930 . S
H469 C479 0.930 . S
C470 H464 0.930 . S
C470 C471 1.355 . S
C470 C472 1.415 . S
C471 C470 1.355 . S
C471 C473 1.419 . S
C472 C470 1.415 . S
C472 C477 1.425 1_655 S
C472 C479 1.409 1_655 S
C473 H465 0.930 . S
C473 C471 1.419 . S
C473 C474 1.362 . S
C474 H466 0.930 . S
C474 C473 1.362 . S
C474 C477 1.409 1_655 S
C475 H467 0.930 . S
C475 C476 1.355 . S
C475 C477 1.415 . S
C476 C475 1.355 . S
C476 C478 1.419 . S
C477 C472 1.425 1_455 S
C477 C474 1.409 1_455 S
C477 C475 1.415 . S
C478 H468 0.930 . S
C478 C476 1.419 . S
C478 C479 1.362 . S
C479 H469 0.930 . S
C479 C472 1.409 1_455 S
C479 C478 1.362 . S
H480 C486 0.930 . S
H481 C489 0.930 . S
H482 C490 0.930 . S
H483 C491 0.930 . S
H484 C494 0.930 . S
H485 C495 0.930 . S
C486 H480 0.930 . S
C486 C487 1.355 . S
C486 C488 1.415 . S
C487 C486 1.355 . S
C487 C489 1.419 . S
C488 C486 1.415 . S
C488 C493 1.425 1_455 S
C488 C495 1.409 . S
C489 H481 0.930 . S
C489 C487 1.419 . S
C489 C490 1.362 1_455 S
C490 H482 0.930 . S
C490 C489 1.362 1_655 S
C490 C493 1.409 . S
C491 H483 0.930 . S
C491 C492 1.355 . S
C491 C493 1.415 . S
C492 C491 1.355 . S
C492 C494 1.419 . S
C493 C488 1.425 1_655 S
C493 C490 1.409 . S
C493 C491 1.415 . S
C494 H484 0.930 . S
C494 C492 1.419 . S
C494 C495 1.362 1_655 S
C495 H485 0.930 . S
C495 C488 1.409 . S
C495 C494 1.362 1_455 S
H496 C502 0.930 . S
H497 C505 0.930 . S
H498 C506 0.930 . S
H499 C507 0.930 1_554 S
H500 C510 0.930 . S
H501 C511 0.930 . S
C502 H496 0.930 . S
C502 C503 1.355 . S
C502 C504 1.415 . S
C503 C502 1.355 . S
C503 C505 1.419 . S
C504 C502 1.415 . S
C504 C509 1.425 . S
C504 C511 1.409 . S
C505 H497 0.930 . S
C505 C503 1.419 . S
C505 C506 1.362 . S
C506 H498 0.930 . S
C506 C505 1.362 . S
C506 C509 1.409 . S
C507 H499 0.930 1_556 S
C507 C508 1.355 . S
C507 C509 1.415 . S
C508 C507 1.355 . S
C508 C510 1.419 . S
C509 C504 1.425 . S
C509 C506 1.409 . S
C509 C507 1.415 . S
C510 H500 0.930 . S
C510 C508 1.419 . S
C510 C511 1.362 . S
C511 H501 0.930 . S
C511 C504 1.409 . S
C511 C510 1.362 . S
H512 C518 0.930 . S
H513 C521 0.930 . S
H514 C522 0.930 . S
H515 C523 0.930 . S
H516 C526 0.930 . S
H517 C527 0.930 . S
C518 H512 0.930 . S
C518 C519 1.355 . S
C518 C520 1.415 . S
C519 C518 1.355 . S
C519 C521 1.419 . S
C520 C518 1.415 . S
C520 C525 1.425 . S
C520 C527 1.409 . S
C521 H513 0.930 . S
C521 C519 1.419 . S
C521 C522 1.362 . S
C522 H514 0.930 . S
C522 C521 1.362 . S
C522 C525 1.409 . S
C523 H515 0.930 . S
C523 C524 1.355 . S
C523 C525 1.415 . S
C524 C523 1.355 . S
C524 C526 1.419 . S
C525 C520 1.425 . S
C525 C522 1.409 . S
C525 C523 1.415 . S
C526 H516 0.930 . S
C526 C524 1.419 . S
C526 C527 1.362 . S
C527 H517 0.930 . S
C527 C520 1.409 . S
C527 C526 1.362 . S
H528 C534 0.930 . S
H529 C537 0.930 . S
H530 C538 0.930 . S
H531 C539 0.930 . S
H532 C542 0.930 . S
H533 C543 0.930 . S
C534 H528 0.930 . S
C534 C535 1.355 . S
C534 C536 1.415 . S
C535 C534 1.355 . S
C535 C537 1.419 . S
C536 C534 1.415 . S
C536 C541 1.425 . S
C536 C543 1.409 . S
C537 H529 0.930 . S
C537 C535 1.419 . S
C537 C538 1.362 . S
C538 H530 0.930 . S
C538 C537 1.362 . S
C538 C541 1.409 . S
C539 H531 0.930 . S
C539 C540 1.355 . S
C539 C541 1.415 . S
C540 C539 1.355 . S
C540 C542 1.419 . S
C541 C536 1.425 . S
C541 C538 1.409 . S
C541 C539 1.415 . S
C542 H532 0.930 . S
C542 C540 1.419 . S
C542 C543 1.362 . S
C543 H533 0.930 . S
C543 C536 1.409 . S
C543 C542 1.362 . S
H544 C550 0.930 . S
H545 C553 0.930 . S
H546 C554 0.930 . S
H547 C555 0.930 . S
H548 C558 0.930 . S
H549 C559 0.930 . S
C550 H544 0.930 . S
C550 C551 1.355 . S
C550 C552 1.415 . S
C551 C550 1.355 . S
C551 C553 1.419 . S
C552 C550 1.415 . S
C552 C557 1.425 . S
C552 C559 1.409 . S
C553 H545 0.930 . S
C553 C551 1.419 . S
C553 C554 1.362 . S
C554 H546 0.930 . S
C554 C553 1.362 . S
C554 C557 1.409 . S
C555 H547 0.930 . S
C555 C556 1.355 . S
C555 C557 1.415 . S
C556 C555 1.355 . S
C556 C558 1.419 . S
C557 C552 1.425 . S
C557 C554 1.409 . S
C557 C555 1.415 . S
C558 H548 0.930 . S
C558 C556 1.419 . S
C558 C559 1.362 . S
C559 H549 0.930 . S
C559 C552 1.409 . S
C559 C558 1.362 . S
H560 C566 0.930 . S
H561 C569 0.930 1_556 S
H562 C570 0.930 1_556 S
H563 C571 0.930 . S
H564 C574 0.930 . S
H565 C575 0.930 . S
C566 H560 0.930 . S
C566 C567 1.355 . S
C566 C568 1.415 . S
C567 C566 1.355 . S
C567 C569 1.419 . S
C568 C566 1.415 . S
C568 C573 1.425 . S
C568 C575 1.409 . S
C569 H561 0.930 1_554 S
C569 C567 1.419 . S
C569 C570 1.362 . S
C570 H562 0.930 1_554 S
C570 C569 1.362 . S
C570 C573 1.409 . S
C571 H563 0.930 . S
C571 C572 1.355 . S
C571 C573 1.415 . S
C572 C571 1.355 . S
C572 C574 1.419 . S
C573 C568 1.425 . S
C573 C570 1.409 . S
C573 C571 1.415 . S
C574 H564 0.930 . S
C574 C572 1.419 . S
C574 C575 1.362 . S
C575 H565 0.930 . S
C575 C568 1.409 . S
C575 C574 1.362 . S
H576 C582 0.930 . S
H577 C585 0.930 . S
H578 C586 0.930 . S
H579 C587 0.930 . S
H580 C590 0.930 . S
H581 C591 0.930 . S
C582 H576 0.930 . S
C582 C583 1.355 . S
C582 C584 1.415 . S
C583 C582 1.355 . S
C583 C585 1.419 . S
C584 C582 1.415 . S
C584 C589 1.425 . S
C584 C591 1.409 . S
C585 H577 0.930 . S
C585 C583 1.419 . S
C585 C586 1.362 . S
C586 H578 0.930 . S
C586 C585 1.362 . S
C586 C589 1.409 . S
C587 H579 0.930 . S
C587 C588 1.355 . S
C587 C589 1.415 . S
C588 C587 1.355 . S
C588 C590 1.419 . S
C589 C584 1.425 . S
C589 C586 1.409 . S
C589 C587 1.415 . S
C590 H580 0.930 . S
C590 C588 1.419 . S
C590 C591 1.362 . S
C591 H581 0.930 . S
C591 C584 1.409 . S
C591 C590 1.362 . S
H592 C598 0.930 . S
H593 C601 0.930 . S
H594 C602 0.930 . S
H595 C603 0.930 . S
H596 C606 0.930 . S
H597 C607 0.930 . S
C598 H592 0.930 . S
C598 C599 1.355 . S
C598 C600 1.415 . S
C599 C598 1.355 . S
C599 C601 1.419 . S
C600 C598 1.415 . S
C600 C605 1.425 . S
C600 C607 1.409 . S
C601 H593 0.930 . S
C601 C599 1.419 . S
C601 C602 1.362 . S
C602 H594 0.930 . S
C602 C601 1.362 . S
C602 C605 1.409 . S
C603 H595 0.930 . S
C603 C604 1.355 . S
C603 C605 1.415 . S
C604 C603 1.355 . S
C604 C606 1.419 . S
C605 C600 1.425 . S
C605 C602 1.409 . S
C605 C603 1.415 . S
C606 H596 0.930 . S
C606 C604 1.419 . S
C606 C607 1.362 . S
C607 H597 0.930 . S
C607 C600 1.409 . S
C607 C606 1.362 . S
H608 C614 0.930 . S
H609 C617 0.930 . S
H610 C618 0.930 . S
H611 C619 0.930 . S
H612 C622 0.930 . S
H613 C623 0.930 . S
C614 H608 0.930 . S
C614 C615 1.355 . S
C614 C616 1.415 . S
C615 C614 1.355 . S
C615 C617 1.419 . S
C616 C614 1.415 . S
C616 C621 1.425 . S
C616 C623 1.409 . S
C617 H609 0.930 . S
C617 C615 1.419 . S
C617 C618 1.362 . S
C618 H610 0.930 . S
C618 C617 1.362 . S
C618 C621 1.409 . S
C619 H611 0.930 . S
C619 C620 1.355 . S
C619 C621 1.415 . S
C620 C619 1.355 . S
C620 C622 1.419 . S
C621 C616 1.425 . S
C621 C618 1.409 . S
C621 C619 1.415 . S
C622 H612 0.930 . S
C622 C620 1.419 . S
C622 C623 1.362 . S
C623 H613 0.930 . S
C623 C616 1.409 . S
C623 C622 1.362 . S
H624 C630 0.930 . S
H625 C633 0.930 . S
H626 C634 0.930 . S
H627 C635 0.930 . S
H628 C638 0.930 . S
H629 C639 0.930 . S
C630 H624 0.930 . S
C630 C631 1.355 . S
C630 C632 1.415 . S
C631 C630 1.355 . S
C631 C633 1.419 . S
C632 C630 1.415 . S
C632 C637 1.425 . S
C632 C639 1.409 . S
C633 H625 0.930 . S
C633 C631 1.419 . S
C633 C634 1.362 . S
C634 H626 0.930 . S
C634 C633 1.362 . S
C634 C637 1.409 . S
C635 H627 0.930 . S
C635 C636 1.355 . S
C635 C637 1.415 . S
C636 C635 1.355 . S
C636 C638 1.419 . S
C637 C632 1.425 . S
C637 C634 1.409 . S
C637 C635 1.415 . S
C638 H628 0.930 . S
C638 C636 1.419 . S
C638 C639 1.362 . S
C639 H629 0.930 . S
C639 C632 1.409 . S
C639 C638 1.362 . S
H640 C646 0.930 . S
H641 C649 0.930 . S
H642 C650 0.930 . S
H643 C651 0.930 . S
H644 C654 0.930 . S
H645 C655 0.930 . S
C646 H640 0.930 . S
C646 C647 1.355 . S
C646 C648 1.415 1_545 S
C647 C646 1.355 . S
C647 C649 1.419 1_545 S
C648 C646 1.415 1_565 S
C648 C653 1.425 . S
C648 C655 1.409 . S
C649 H641 0.930 . S
C649 C647 1.419 1_565 S
C649 C650 1.362 . S
C650 H642 0.930 . S
C650 C649 1.362 . S
C650 C653 1.409 . S
C651 H643 0.930 . S
C651 C652 1.355 . S
C651 C653 1.415 . S
C652 C651 1.355 . S
C652 C654 1.419 . S
C653 C648 1.425 . S
C653 C650 1.409 . S
C653 C651 1.415 . S
C654 H644 0.930 . S
C654 C652 1.419 . S
C654 C655 1.362 . S
C655 H645 0.930 . S
C655 C648 1.409 . S
C655 C654 1.362 . S
H656 C662 0.930 . S
H657 C665 0.930 . S
H658 C666 0.930 . S
H659 C667 0.930 . S
H660 C670 0.930 . S
H661 C671 0.930 . S
C662 H656 0.930 . S
C662 C663 1.355 . S
C662 C664 1.415 . S
C663 C662 1.355 . S
C663 C665 1.419 . S
C664 C662 1.415 . S
C664 C669 1.425 . S
C664 C671 1.409 . S
C665 H657 0.930 . S
C665 C663 1.419 . S
C665 C666 1.362 . S
C666 H658 0.930 . S
C666 C665 1.362 . S
C666 C669 1.409 . S
C667 H659 0.930 . S
C667 C668 1.355 . S
C667 C669 1.415 . S
C668 C667 1.355 . S
C668 C670 1.419 . S
C669 C664 1.425 . S
C669 C666 1.409 . S
C669 C667 1.415 . S
C670 H660 0.930 . S
C670 C668 1.419 . S
C670 C671 1.362 . S
C671 H661 0.930 . S
C671 C664 1.409 . S
C671 C670 1.362 . S
H672 C678 0.930 . S
H673 C681 0.930 . S
H674 C682 0.924 1_565 S
H675 C683 0.930 . S
H676 C686 0.930 . S
H677 C687 0.930 . S
C678 H672 0.930 . S
C678 C679 1.355 1_545 S
C678 C680 1.415 . S
C679 C678 1.355 1_565 S
C679 C681 1.419 . S
C680 C678 1.415 . S
C680 C685 1.425 . S
C680 C687 1.409 . S
C681 H673 0.930 . S
C681 C679 1.419 . S
C681 C682 1.362 1_565 S
C682 H674 0.924 1_545 S
C682 C681 1.362 1_545 S
C682 C685 1.409 . S
C683 H675 0.930 . S
C683 C684 1.355 . S
C683 C685 1.415 . S
C684 C683 1.355 . S
C684 C686 1.419 . S
C685 C680 1.425 . S
C685 C682 1.409 . S
C685 C683 1.415 . S
C686 H676 0.930 . S
C686 C684 1.419 . S
C686 C687 1.362 . S
C687 H677 0.930 . S
C687 C680 1.409 . S
C687 C686 1.362 . S
H688 C694 0.930 . S
H689 C697 0.930 . S
H690 C698 0.930 . S
H691 C699 0.930 . S
H692 C702 0.930 . S
H693 C703 0.930 . S
C694 H688 0.930 . S
C694 C695 1.355 . S
C694 C696 1.415 . S
C695 C694 1.355 . S
C695 C697 1.419 . S
C696 C694 1.415 . S
C696 C701 1.425 . S
C696 C703 1.409 . S
C697 H689 0.930 . S
C697 C695 1.419 . S
C697 C698 1.362 . S
C698 H690 0.930 . S
C698 C697 1.362 . S
C698 C701 1.409 . S
C699 H691 0.930 . S
C699 C700 1.355 . S
C699 C701 1.415 . S
C700 C699 1.355 . S
C700 C702 1.419 . S
C701 C696 1.425 . S
C701 C698 1.409 . S
C701 C699 1.415 . S
C702 H692 0.930 . S
C702 C700 1.419 . S
C702 C703 1.362 . S
C703 H693 0.930 . S
C703 C696 1.409 . S
C703 C702 1.362 . S
H704 C710 0.930 . S
H705 C713 0.930 . S
H706 C714 0.930 . S
H707 C715 0.930 . S
H708 C718 0.930 . S
H709 C719 0.922 1_565 S
C710 H704 0.930 . S
C710 C711 1.355 . S
C710 C712 1.415 . S
C711 C710 1.355 . S
C711 C713 1.419 . S
C712 C710 1.415 . S
C712 C717 1.425 . S
C712 C719 1.409 . S
C713 H705 0.930 . S
C713 C711 1.419 . S
C713 C714 1.362 . S
C714 H706 0.930 . S
C714 C713 1.362 . S
C714 C717 1.409 . S
C715 H707 0.930 . S
C715 C716 1.355 1_545 S
C715 C717 1.415 . S
C716 C715 1.355 1_565 S
C716 C718 1.419 . S
C717 C712 1.425 . S
C717 C714 1.409 . S
C717 C715 1.415 . S
C718 H708 0.930 . S
C718 C716 1.419 . S
C718 C719 1.362 1_565 S
C719 H709 0.922 1_545 S
C719 C712 1.409 . S
C719 C718 1.362 1_545 S
H720 C726 0.930 . S
H721 C729 0.930 . S
H722 C730 0.930 . S
H723 C731 0.930 . S
H724 C734 0.930 1_556 S
H725 C735 0.930 . S
C726 H720 0.930 . S
C726 C727 1.355 . S
C726 C728 1.415 . S
C727 C726 1.355 . S
C727 C729 1.419 . S
C728 C726 1.415 . S
C728 C733 1.425 . S
C728 C735 1.409 . S
C729 H721 0.930 . S
C729 C727 1.419 . S
C729 C730 1.362 . S
C730 H722 0.930 . S
C730 C729 1.362 . S
C730 C733 1.409 . S
C731 H723 0.930 . S
C731 C732 1.355 . S
C731 C733 1.415 . S
C732 C731 1.355 . S
C732 C734 1.419 . S
C733 C728 1.425 . S
C733 C730 1.409 . S
C733 C731 1.415 . S
C734 H724 0.930 1_554 S
C734 C732 1.419 . S
C734 C735 1.362 . S
C735 H725 0.930 . S
C735 C728 1.409 . S
C735 C734 1.362 . S
H736 C742 0.930 . S
H737 C745 0.923 1_545 S
H738 C746 0.930 . S
H739 C747 0.930 . S
H740 C750 0.930 . S
H741 C751 0.930 . S
C742 H736 0.930 . S
C742 C743 1.355 1_565 S
C742 C744 1.415 . S
C743 C742 1.355 1_545 S
C743 C745 1.416 1_545 S
C744 C742 1.415 . S
C744 C749 1.425 . S
C744 C751 1.409 . S
C745 H737 0.923 1_565 S
C745 C743 1.416 1_565 S
C745 C746 1.372 . S
C746 H738 0.930 . S
C746 C745 1.372 . S
C746 C749 1.409 . S
C747 H739 0.930 . S
C747 C748 1.355 . S
C747 C749 1.415 . S
C748 C747 1.355 . S
C748 C750 1.419 . S
C749 C744 1.425 . S
C749 C746 1.409 . S
C749 C747 1.415 . S
C750 H740 0.930 . S
C750 C748 1.419 . S
C750 C751 1.362 . S
C751 H741 0.930 . S
C751 C744 1.409 . S
C751 C750 1.362 . S
H752 C758 0.930 . S
H753 C761 0.930 . S
H754 C762 0.930 . S
H755 C763 0.930 . S
H756 C766 0.930 . S
H757 C767 0.930 . S
C758 H752 0.930 . S
C758 C759 1.355 . S
C758 C760 1.415 . S
C759 C758 1.355 . S
C759 C761 1.419 . S
C760 C758 1.415 . S
C760 C765 1.425 . S
C760 C767 1.409 . S
C761 H753 0.930 . S
C761 C759 1.419 . S
C761 C762 1.362 . S
C762 H754 0.930 . S
C762 C761 1.362 . S
C762 C765 1.409 . S
C763 H755 0.930 . S
C763 C764 1.355 . S
C763 C765 1.415 . S
C764 C763 1.355 . S
C764 C766 1.419 . S
C765 C760 1.425 . S
C765 C762 1.409 . S
C765 C763 1.415 . S
C766 H756 0.930 . S
C766 C764 1.419 . S
C766 C767 1.362 . S
C767 H757 0.930 . S
C767 C760 1.409 . S
C767 C766 1.362 . S
H768 C774 0.930 . S
H769 C777 0.930 . S
H770 C778 0.930 . S
H771 C779 0.930 . S
H772 C782 0.930 . S
H773 C783 0.930 . S
C774 H768 0.930 . S
C774 C775 1.355 . S
C774 C776 1.415 . S
C775 C774 1.355 . S
C775 C777 1.419 . S
C776 C774 1.415 . S
C776 C781 1.425 . S
C776 C783 1.409 . S
C777 H769 0.930 . S
C777 C775 1.419 . S
C777 C778 1.362 . S
C778 H770 0.930 . S
C778 C777 1.362 . S
C778 C781 1.409 . S
C779 H771 0.930 . S
C779 C780 1.355 . S
C779 C781 1.415 . S
C780 C779 1.355 . S
C780 C782 1.419 . S
C781 C776 1.425 . S
C781 C778 1.409 . S
C781 C779 1.415 . S
C782 H772 0.930 . S
C782 C780 1.419 . S
C782 C783 1.362 . S
C783 H773 0.930 . S
C783 C776 1.409 . S
C783 C782 1.362 . S
H784 C790 0.930 . S
H785 C793 0.930 . S
H786 C794 0.930 . S
H787 C795 0.930 . S
H788 C798 0.930 . S
H789 C799 0.930 . S
C790 H784 0.930 . S
C790 C791 1.355 . S
C790 C792 1.415 . S
C791 C790 1.355 . S
C791 C793 1.419 1_455 S
C792 C790 1.415 . S
C792 C797 1.425 . S
C792 C799 1.409 . S
C793 H785 0.930 . S
C793 C791 1.419 1_655 S
C793 C794 1.362 1_655 S
C794 H786 0.930 . S
C794 C793 1.362 1_455 S
C794 C797 1.409 . S
C795 H787 0.930 . S
C795 C796 1.355 . S
C795 C797 1.415 . S
C796 C795 1.355 . S
C796 C798 1.419 . S
C797 C792 1.425 . S
C797 C794 1.409 . S
C797 C795 1.415 . S
C798 H788 0.930 . S
C798 C796 1.419 . S
C798 C799 1.362 . S
C799 H789 0.930 . S
C799 C792 1.409 . S
C799 C798 1.362 . S
H800 C806 0.930 . S
H801 C809 0.930 . S
H802 C810 0.930 . S
H803 C811 0.930 . S
H804 C814 0.930 . S
H805 C815 0.930 . S
C806 H800 0.930 . S
C806 C807 1.355 . S
C806 C808 1.415 . S
C807 C806 1.355 . S
C807 C809 1.419 . S
C808 C806 1.415 . S
C808 C813 1.425 . S
C808 C815 1.409 . S
C809 H801 0.930 . S
C809 C807 1.419 . S
C809 C810 1.362 . S
C810 H802 0.930 . S
C810 C809 1.362 . S
C810 C813 1.409 . S
C811 H803 0.930 . S
C811 C812 1.355 . S
C811 C813 1.415 . S
C812 C811 1.355 . S
C812 C814 1.419 . S
C813 C808 1.425 . S
C813 C810 1.409 . S
C813 C811 1.415 . S
C814 H804 0.930 . S
C814 C812 1.419 . S
C814 C815 1.362 . S
C815 H805 0.930 . S
C815 C808 1.409 . S
C815 C814 1.362 . S
H816 C822 0.930 . S
H817 C825 0.930 . S
H818 C826 0.930 . S
H819 C827 0.930 . S
H820 C830 0.930 . S
H821 C831 0.930 . S
C822 H816 0.930 . S
C822 C823 1.355 . S
C822 C824 1.415 . S
C823 C822 1.355 . S
C823 C825 1.419 . S
C824 C822 1.415 . S
C824 C829 1.425 . S
C824 C831 1.409 . S
C825 H817 0.930 . S
C825 C823 1.419 . S
C825 C826 1.362 . S
C826 H818 0.930 . S
C826 C825 1.362 . S
C826 C829 1.409 . S
C827 H819 0.930 . S
C827 C828 1.355 . S
C827 C829 1.415 . S
C828 C827 1.355 . S
C828 C830 1.419 . S
C829 C824 1.425 . S
C829 C826 1.409 . S
C829 C827 1.415 . S
C830 H820 0.930 . S
C830 C828 1.419 . S
C830 C831 1.362 . S
C831 H821 0.930 . S
C831 C824 1.409 . S
C831 C830 1.362 . S
H832 C838 0.930 . S
H833 C841 0.930 . S
H834 C842 0.930 . S
H835 C843 0.930 . S
H836 C846 0.930 . S
H837 C847 0.930 . S
C838 H832 0.930 . S
C838 C839 1.355 . S
C838 C840 1.415 . S
C839 C838 1.355 . S
C839 C841 1.419 . S
C840 C838 1.415 . S
C840 C845 1.425 . S
C840 C847 1.409 . S
C841 H833 0.930 . S
C841 C839 1.419 . S
C841 C842 1.362 . S
C842 H834 0.930 . S
C842 C841 1.362 . S
C842 C845 1.409 . S
C843 H835 0.930 . S
C843 C844 1.355 . S
C843 C845 1.415 . S
C844 C843 1.355 . S
C844 C846 1.419 . S
C845 C840 1.425 . S
C845 C842 1.409 . S
C845 C843 1.415 . S
C846 H836 0.930 . S
C846 C844 1.419 . S
C846 C847 1.362 . S
C847 H837 0.930 . S
C847 C840 1.409 . S
C847 C846 1.362 . S
H848 C854 0.930 . S
H849 C857 0.930 . S
H850 C858 0.930 . S
H851 C859 0.930 . S
H852 C862 0.930 . S
H853 C863 0.930 . S
C854 H848 0.930 . S
C854 C855 1.355 . S
C854 C856 1.415 . S
C855 C854 1.355 . S
C855 C857 1.419 . S
C856 C854 1.415 . S
C856 C861 1.425 . S
C856 C863 1.409 . S
C857 H849 0.930 . S
C857 C855 1.419 . S
C857 C858 1.362 . S
C858 H850 0.930 . S
C858 C857 1.362 . S
C858 C861 1.409 . S
C859 H851 0.930 . S
C859 C860 1.355 . S
C859 C861 1.415 . S
C860 C859 1.355 . S
C860 C862 1.419 . S
C861 C856 1.425 . S
C861 C858 1.409 . S
C861 C859 1.415 . S
C862 H852 0.930 . S
C862 C860 1.419 . S
C862 C863 1.362 . S
C863 H853 0.930 . S
C863 C856 1.409 . S
C863 C862 1.362 . S
H864 C870 0.930 . S
H865 C873 0.930 . S
H866 C874 0.930 . S
H867 C875 0.930 . S
H868 C878 0.930 . S
H869 C879 0.930 . S
C870 H864 0.930 . S
C870 C871 1.355 . S
C870 C872 1.415 . S
C871 C870 1.355 . S
C871 C873 1.419 . S
C872 C870 1.415 . S
C872 C877 1.425 . S
C872 C879 1.409 . S
C873 H865 0.930 . S
C873 C871 1.419 . S
C873 C874 1.362 . S
C874 H866 0.930 . S
C874 C873 1.362 . S
C874 C877 1.409 . S
C875 H867 0.930 . S
C875 C876 1.355 . S
C875 C877 1.415 . S
C876 C875 1.355 . S
C876 C878 1.419 . S
C877 C872 1.425 . S
C877 C874 1.409 . S
C877 C875 1.415 . S
C878 H868 0.930 . S
C878 C876 1.419 . S
C878 C879 1.362 . S
C879 H869 0.930 . S
C879 C872 1.409 . S
C879 C878 1.362 . S
H880 C886 0.930 . S
H881 C889 0.930 . S
H882 C890 0.930 . S
H883 C891 0.930 1_455 S
H884 C894 0.930 . S
H885 C895 0.930 . S
C886 H880 0.930 . S
C886 C887 1.355 . S
C886 C888 1.415 . S
C887 C886 1.355 . S
C887 C889 1.419 . S
C888 C886 1.415 . S
C888 C893 1.425 . S
C888 C895 1.409 . S
C889 H881 0.930 . S
C889 C887 1.419 . S
C889 C890 1.362 . S
C890 H882 0.930 . S
C890 C889 1.362 . S
C890 C893 1.409 . S
C891 H883 0.930 1_655 S
C891 C892 1.355 . S
C891 C893 1.415 . S
C892 C891 1.355 . S
C892 C894 1.419 . S
C893 C888 1.425 . S
C893 C890 1.409 . S
C893 C891 1.415 . S
C894 H884 0.930 . S
C894 C892 1.419 . S
C894 C895 1.362 . S
C895 H885 0.930 . S
C895 C888 1.409 . S
C895 C894 1.362 . S
H896 C902 0.930 . S
H897 C905 0.930 . S
H898 C906 0.930 . S
H899 C907 0.930 . S
H900 C910 0.930 . S
H901 C911 0.930 . S
C902 H896 0.930 . S
C902 C903 1.355 . S
C902 C904 1.415 . S
C903 C902 1.355 . S
C903 C905 1.419 . S
C904 C902 1.415 . S
C904 C909 1.425 . S
C904 C911 1.409 . S
C905 H897 0.930 . S
C905 C903 1.419 . S
C905 C906 1.362 . S
C906 H898 0.930 . S
C906 C905 1.362 . S
C906 C909 1.409 . S
C907 H899 0.930 . S
C907 C908 1.355 . S
C907 C909 1.415 . S
C908 C907 1.355 . S
C908 C910 1.419 . S
C909 C904 1.425 . S
C909 C906 1.409 . S
C909 C907 1.415 . S
C910 H900 0.930 . S
C910 C908 1.419 . S
C910 C911 1.362 . S
C911 H901 0.930 . S
C911 C904 1.409 . S
C911 C910 1.362 . S
H912 C918 0.930 . S
H913 C921 0.930 . S
H914 C922 0.930 . S
H915 C923 0.930 . S
H916 C926 0.930 . S
H917 C927 0.930 . S
C918 H912 0.930 . S
C918 C919 1.355 . S
C918 C920 1.415 . S
C919 C918 1.355 . S
C919 C921 1.419 . S
C920 C918 1.415 . S
C920 C925 1.425 . S
C920 C927 1.409 . S
C921 H913 0.930 . S
C921 C919 1.419 . S
C921 C922 1.362 . S
C922 H914 0.930 . S
C922 C921 1.362 . S
C922 C925 1.409 . S
C923 H915 0.930 . S
C923 C924 1.355 . S
C923 C925 1.415 . S
C924 C923 1.355 . S
C924 C926 1.419 . S
C925 C920 1.425 . S
C925 C922 1.409 . S
C925 C923 1.415 . S
C926 H916 0.930 . S
C926 C924 1.419 . S
C926 C927 1.362 . S
C927 H917 0.930 . S
C927 C920 1.409 . S
C927 C926 1.362 . S
H928 C934 0.930 . S
H929 C937 0.930 . S
H930 C938 0.930 . S
H931 C939 0.930 . S
H932 C942 0.930 . S
H933 C943 0.930 . S
C934 H928 0.930 . S
C934 C935 1.355 . S
C934 C936 1.415 . S
C935 C934 1.355 . S
C935 C937 1.419 . S
C936 C934 1.415 . S
C936 C941 1.425 . S
C936 C943 1.409 . S
C937 H929 0.930 . S
C937 C935 1.419 . S
C937 C938 1.362 . S
C938 H930 0.930 . S
C938 C937 1.362 . S
C938 C941 1.409 . S
C939 H931 0.930 . S
C939 C940 1.355 . S
C939 C941 1.415 . S
C940 C939 1.355 . S
C940 C942 1.419 . S
C941 C936 1.425 . S
C941 C938 1.409 . S
C941 C939 1.415 . S
C942 H932 0.930 . S
C942 C940 1.419 . S
C942 C943 1.362 . S
C943 H933 0.930 . S
C943 C936 1.409 . S
C943 C942 1.362 . S
H944 C950 0.930 . S
H945 C953 0.930 . S
H946 C954 0.930 . S
H947 C955 0.930 1_655 S
H948 C958 0.930 . S
H949 C959 0.930 . S
C950 H944 0.930 . S
C950 C951 1.355 . S
C950 C952 1.415 . S
C951 C950 1.355 . S
C951 C953 1.419 . S
C952 C950 1.415 . S
C952 C957 1.425 . S
C952 C959 1.409 . S
C953 H945 0.930 . S
C953 C951 1.419 . S
C953 C954 1.362 . S
C954 H946 0.930 . S
C954 C953 1.362 . S
C954 C957 1.409 . S
C955 H947 0.930 1_455 S
C955 C956 1.355 . S
C955 C957 1.415 . S
C956 C955 1.355 . S
C956 C958 1.419 . S
C957 C952 1.425 . S
C957 C954 1.409 . S
C957 C955 1.415 . S
C958 H948 0.930 . S
C958 C956 1.419 . S
C958 C959 1.362 . S
C959 H949 0.930 . S
C959 C952 1.409 . S
C959 C958 1.362 . S
H960 C966 0.930 . S
H961 C969 0.930 . S
H962 C970 0.930 . S
H963 C971 0.930 . S
H964 C974 0.930 . S
H965 C975 0.930 . S
C966 H960 0.930 . S
C966 C967 1.355 . S
C966 C968 1.415 . S
C967 C966 1.355 . S
C967 C969 1.419 . S
C968 C966 1.415 . S
C968 C973 1.425 . S
C968 C975 1.409 . S
C969 H961 0.930 . S
C969 C967 1.419 . S
C969 C970 1.362 . S
C970 H962 0.930 . S
C970 C969 1.362 . S
C970 C973 1.409 . S
C971 H963 0.930 . S
C971 C972 1.355 . S
C971 C973 1.415 . S
C972 C971 1.355 . S
C972 C974 1.419 . S
C973 C968 1.425 . S
C973 C970 1.409 . S
C973 C971 1.415 . S
C974 H964 0.930 . S
C974 C972 1.419 . S
C974 C975 1.362 . S
C975 H965 0.930 . S
C975 C968 1.409 . S
C975 C974 1.362 . S
H976 C982 0.930 . S
H977 C985 0.930 . S
H978 C986 0.930 . S
H979 C987 0.930 . S
H980 C990 0.930 . S
H981 C991 0.930 . S
C982 H976 0.930 . S
C982 C983 1.355 . S
C982 C984 1.415 . S
C983 C982 1.355 . S
C983 C985 1.419 . S
C984 C982 1.415 . S
C984 C989 1.425 . S
C984 C991 1.409 . S
C985 H977 0.930 . S
C985 C983 1.419 . S
C985 C986 1.362 . S
C986 H978 0.930 . S
C986 C985 1.362 . S
C986 C989 1.409 . S
C987 H979 0.930 . S
C987 C988 1.355 . S
C987 C989 1.415 . S
C988 C987 1.355 . S
C988 C990 1.419 . S
C989 C984 1.425 . S
C989 C986 1.409 . S
C989 C987 1.415 . S
C990 H980 0.930 . S
C990 C988 1.419 . S
C990 C991 1.362 . S
C991 H981 0.930 . S
C991 C984 1.409 . S
C991 C990 1.362 . S
H992 C998 0.930 . S
H993 C1001 0.930 . S
H994 C1002 0.930 . S
H995 C1003 0.930 . S
H996 C1006 0.930 . S
H997 C1007 0.930 . S
C998 H992 0.930 . S
C998 C999 1.355 . S
C998 C1000 1.415 . S
C999 C998 1.355 . S
C999 C1001 1.419 . S
C1000 C998 1.415 . S
C1000 C1005 1.425 . S
C1000 C1007 1.409 . S
C1001 H993 0.930 . S
C1001 C999 1.419 . S
C1001 C1002 1.362 . S
C1002 H994 0.930 . S
C1002 C1001 1.362 . S
C1002 C1005 1.409 . S
C1003 H995 0.930 . S
C1003 C1004 1.355 . S
C1003 C1005 1.415 . S
C1004 C1003 1.355 . S
C1004 C1006 1.419 . S
C1005 C1000 1.425 . S
C1005 C1002 1.409 . S
C1005 C1003 1.415 . S
C1006 H996 0.930 . S
C1006 C1004 1.419 . S
C1006 C1007 1.362 . S
C1007 H997 0.930 . S
C1007 C1000 1.409 . S
C1007 C1006 1.362 . S
H1008 C1014 0.930 . S
H1009 C1017 0.930 . S
H1010 C1018 0.930 . S
H1011 C1019 0.930 . S
H1012 C1022 0.930 . S
H1013 C1023 0.930 . S
C1014 H1008 0.930 . S
C1014 C1015 1.355 . S
C1014 C1016 1.415 . S
C1015 C1014 1.355 . S
C1015 C1017 1.419 . S
C1016 C1014 1.415 . S
C1016 C1021 1.425 . S
C1016 C1023 1.409 . S
C1017 H1009 0.930 . S
C1017 C1015 1.419 . S
C1017 C1018 1.362 . S
C1018 H1010 0.930 . S
C1018 C1017 1.362 . S
C1018 C1021 1.409 . S
C1019 H1011 0.930 . S
C1019 C1020 1.355 . S
C1019 C1021 1.415 . S
C1020 C1019 1.355 . S
C1020 C1022 1.419 . S
C1021 C1016 1.425 . S
C1021 C1018 1.409 . S
C1021 C1019 1.415 . S
C1022 H1012 0.930 . S
C1022 C1020 1.419 . S
C1022 C1023 1.362 . S
C1023 H1013 0.930 . S
C1023 C1016 1.409 . S
C1023 C1022 1.362 . S
H1024 C1030 0.930 . S
H1025 C1033 0.930 . S
H1026 C1034 0.930 . S
H1027 C1035 0.930 . S
H1028 C1038 0.930 . S
H1029 C1039 0.930 . S
C1030 H1024 0.930 . S
C1030 C1031 1.355 . S
C1030 C1032 1.415 . S
C1031 C1030 1.355 . S
C1031 C1033 1.419 . S
C1032 C1030 1.415 . S
C1032 C1037 1.425 . S
C1032 C1039 1.409 . S
C1033 H1025 0.930 . S
C1033 C1031 1.419 . S
C1033 C1034 1.362 . S
C1034 H1026 0.930 . S
C1034 C1033 1.362 . S
C1034 C1037 1.409 . S
C1035 H1027 0.930 . S
C1035 C1036 1.355 . S
C1035 C1037 1.415 . S
C1036 C1035 1.355 . S
C1036 C1038 1.419 . S
C1037 C1032 1.425 . S
C1037 C1034 1.409 . S
C1037 C1035 1.415 . S
C1038 H1028 0.930 . S
C1038 C1036 1.419 . S
C1038 C1039 1.362 . S
C1039 H1029 0.930 . S
C1039 C1032 1.409 . S
C1039 C1038 1.362 . S
H1040 C1046 0.930 . S
H1041 C1049 0.930 . S
H1042 C1050 0.930 . S
H1043 C1051 0.930 . S
H1044 C1054 0.930 . S
H1045 C1055 0.930 . S
C1046 H1040 0.930 . S
C1046 C1047 1.355 . S
C1046 C1048 1.415 . S
C1047 C1046 1.355 . S
C1047 C1049 1.419 . S
C1048 C1046 1.415 . S
C1048 C1053 1.425 . S
C1048 C1055 1.409 . S
C1049 H1041 0.930 . S
C1049 C1047 1.419 . S
C1049 C1050 1.362 . S
C1050 H1042 0.930 . S
C1050 C1049 1.362 . S
C1050 C1053 1.409 . S
C1051 H1043 0.930 . S
C1051 C1052 1.355 . S
C1051 C1053 1.415 . S
C1052 C1051 1.355 . S
C1052 C1054 1.419 . S
C1053 C1048 1.425 . S
C1053 C1050 1.409 . S
C1053 C1051 1.415 . S
C1054 H1044 0.930 . S
C1054 C1052 1.419 . S
C1054 C1055 1.362 . S
C1055 H1045 0.930 . S
C1055 C1048 1.409 . S
C1055 C1054 1.362 . S
H1056 C1062 0.930 . S
H1057 C1065 0.930 . S
H1058 C1066 0.930 . S
H1059 C1067 0.930 . S
H1060 C1070 0.930 . S
H1061 C1071 0.930 . S
C1062 H1056 0.930 . S
C1062 C1063 1.355 . S
C1062 C1064 1.415 1_454 S
C1063 C1062 1.355 . S
C1063 C1065 1.419 . S
C1064 C1062 1.415 1_656 S
C1064 C1069 1.425 1_656 S
C1064 C1071 1.409 . S
C1065 H1057 0.930 . S
C1065 C1063 1.419 . S
C1065 C1066 1.362 . S
C1066 H1058 0.930 . S
C1066 C1065 1.362 . S
C1066 C1069 1.409 . S
C1067 H1059 0.930 . S
C1067 C1068 1.355 . S
C1067 C1069 1.415 1_656 S
C1068 C1067 1.355 . S
C1068 C1070 1.419 . S
C1069 C1064 1.425 1_454 S
C1069 C1066 1.409 . S
C1069 C1067 1.415 1_454 S
C1070 H1060 0.930 . S
C1070 C1068 1.419 . S
C1070 C1071 1.362 . S
C1071 H1061 0.930 . S
C1071 C1064 1.409 . S
C1071 C1070 1.362 . S
H1072 C1078 0.930 . S
H1073 C1081 0.930 . S
H1074 C1082 0.930 . S
H1075 C1083 0.930 . S
H1076 C1086 0.930 . S
H1077 C1087 0.930 . S
C1078 H1072 0.930 . S
C1078 C1079 1.355 . S
C1078 C1080 1.415 . S
C1079 C1078 1.355 . S
C1079 C1081 1.419 . S
C1080 C1078 1.415 . S
C1080 C1085 1.425 . S
C1080 C1087 1.409 . S
C1081 H1073 0.930 . S
C1081 C1079 1.419 . S
C1081 C1082 1.362 . S
C1082 H1074 0.930 . S
C1082 C1081 1.362 . S
C1082 C1085 1.409 . S
C1083 H1075 0.930 . S
C1083 C1084 1.355 . S
C1083 C1085 1.415 . S
C1084 C1083 1.355 . S
C1084 C1086 1.419 . S
C1085 C1080 1.425 . S
C1085 C1082 1.409 . S
C1085 C1083 1.415 . S
C1086 H1076 0.930 . S
C1086 C1084 1.419 . S
C1086 C1087 1.362 . S
C1087 H1077 0.930 . S
C1087 C1080 1.409 . S
C1087 C1086 1.362 . S
H1088 C1094 0.930 . S
H1089 C1097 0.930 . S
H1090 C1098 0.930 . S
H1091 C1099 0.930 . S
H1092 C1102 0.930 . S
H1093 C1103 0.930 . S
C1094 H1088 0.930 . S
C1094 C1095 1.355 . S
C1094 C1096 1.415 . S
C1095 C1094 1.355 . S
C1095 C1097 1.419 . S
C1096 C1094 1.415 . S
C1096 C1101 1.425 . S
C1096 C1103 1.409 . S
C1097 H1089 0.930 . S
C1097 C1095 1.419 . S
C1097 C1098 1.362 . S
C1098 H1090 0.930 . S
C1098 C1097 1.362 . S
C1098 C1101 1.409 . S
C1099 H1091 0.930 . S
C1099 C1100 1.355 . S
C1099 C1101 1.415 . S
C1100 C1099 1.355 . S
C1100 C1102 1.419 . S
C1101 C1096 1.425 . S
C1101 C1098 1.409 . S
C1101 C1099 1.415 . S
C1102 H1092 0.930 . S
C1102 C1100 1.419 . S
C1102 C1103 1.362 . S
C1103 H1093 0.930 . S
C1103 C1096 1.409 . S
C1103 C1102 1.362 . S
H1104 C1110 0.910 1_655 S
H1105 C1113 0.930 . S
H1106 C1114 0.930 1_554 S
H1107 C1115 0.910 1_455 S
H1108 C1118 0.930 . S
H1109 C1119 0.930 1_556 S
C1110 H1104 0.910 1_455 S
C1110 C1111 1.385 . S
C1110 C1112 1.404 1_455 S
C1111 C1110 1.385 . S
C1111 C1113 1.419 . S
C1112 C1110 1.404 1_655 S
C1112 C1117 1.425 1_646 S
C1112 C1119 1.409 1_556 S
C1113 H1105 0.930 . S
C1113 C1111 1.419 . S
C1113 C1114 1.362 1_545 S
C1114 H1106 0.930 1_556 S
C1114 C1113 1.362 1_565 S
C1114 C1117 1.409 1_556 S
C1115 H1107 0.910 1_655 S
C1115 C1116 1.385 . S
C1115 C1117 1.404 1_655 S
C1116 C1115 1.385 . S
C1116 C1118 1.419 . S
C1117 C1112 1.425 1_464 S
C1117 C1114 1.409 1_554 S
C1117 C1115 1.404 1_455 S
C1118 H1108 0.930 . S
C1118 C1116 1.419 . S
C1118 C1119 1.362 1_565 S
C1119 H1109 0.930 1_554 S
C1119 C1112 1.409 1_554 S
C1119 C1118 1.362 1_545 S
H1120 C1126 0.930 . S
H1121 C1129 0.930 . S
H1122 C1130 0.930 . S
H1123 C1131 0.930 . S
H1124 C1134 0.930 . S
H1125 C1135 0.930 . S
C1126 H1120 0.930 . S
C1126 C1127 1.355 . S
C1126 C1128 1.415 . S
C1127 C1126 1.355 . S
C1127 C1129 1.419 . S
C1128 C1126 1.415 . S
C1128 C1133 1.425 1_545 S
C1128 C1135 1.409 1_545 S
C1129 H1121 0.930 . S
C1129 C1127 1.419 . S
C1129 C1130 1.362 . S
C1130 H1122 0.930 . S
C1130 C1129 1.362 . S
C1130 C1133 1.409 1_545 S
C1131 H1123 0.930 . S
C1131 C1132 1.355 . S
C1131 C1133 1.415 . S
C1132 C1131 1.355 . S
C1132 C1134 1.419 . S
C1133 C1128 1.425 1_565 S
C1133 C1130 1.409 1_565 S
C1133 C1131 1.415 . S
C1134 H1124 0.930 . S
C1134 C1132 1.419 . S
C1134 C1135 1.362 . S
C1135 H1125 0.930 . S
C1135 C1128 1.409 1_565 S
C1135 C1134 1.362 . S
C375 C18 1.348 . S
C380 C248 1.350 . S
C391 C41 1.348 . S
C396 C271 1.360 . S
C407 C64 1.348 . S
C412 C202 1.350 . S
C423 C87 1.347 . S
C428 C225 1.351 . S
C439 C110 1.347 . S
C444 C340 1.355 . S
C455 C133 1.360 . S
C460 C363 1.348 . S
C471 C156 1.367 . S
C476 C294 1.352 . S
C487 C179 1.369 . S
C492 C317 1.353 . S
C503 C224 1.140 . S
C508 C21 1.131 . S
C519 C247 1.108 . S
C524 C44 1.087 . S
C535 C270 1.109 . S
C540 C67 1.088 . S
C551 C201 1.145 . S
C556 C90 1.146 . S
C567 C113 1.109 . S
C572 C316 1.115 . S
C583 C339 1.143 . S
C588 C136 1.136 . S
C599 C362 1.138 . S
C604 C159 1.139 . S
C615 C293 1.138 . S
C620 C182 1.128 . S
C631 C40 1.116 . S
C636 C205 1.097 . S
C647 C228 1.128 . S
C652 C63 1.129 . S
C663 C251 1.141 . S
C668 C86 1.145 . S
C679 C274 1.095 . S
C684 C17 1.114 . S
C695 C297 1.128 . S
C700 C132 1.138 . S
C711 C155 1.114 . S
C716 C320 1.095 . S
C727 C178 1.138 . S
C732 C343 1.139 . S
C743 C366 1.147 . S
C748 C109 1.148 . S
C759 C19 1.046 . S
C764 C361 1.081 . S
C775 C42 0.998 . S
C780 C108 1.115 . S
C791 C315 1.062 1_455 S
C796 C65 1.106 . S
C807 C154 1.070 . S
C812 C88 1.070 . S
C823 C111 1.004 . S
C828 C269 1.136 . S
C839 C134 1.062 . S
C844 C16 1.122 . S
C855 C223 1.136 1_655 S
C860 C157 1.007 . S
C871 C62 1.119 . S
C876 C180 0.995 . S
C887 C203 1.087 . S
C892 C177 1.108 1_655 S
C903 C226 1.054 . S
C908 C292 1.077 . S
C919 C131 1.080 . S
C924 C249 1.048 . S
C935 C338 1.135 . S
C940 C272 1.000 . S
C951 C295 1.025 . S
C956 C85 1.134 1_455 S
C967 C318 1.075 . S
C972 C200 1.068 . S
C983 C341 1.060 . S
C988 C39 1.074 . S
C999 C246 1.073 . S
C1004 C364 1.119 . S
C1015 C20 1.972 . S
C1020 C296 1.972 . S
C1031 C43 1.950 . S
C1036 C135 1.950 . S
C1047 C66 1.955 . S
C1052 C342 1.955 . S
C1063 C181 1.950 . S
C1068 C89 1.950 . S
C1079 C112 1.987 . S
C1084 C204 1.987 . S
C1095 C250 1.971 . S
C1100 C158 1.971 . S
C1111 C227 1.980 . S
C1116 C319 1.980 . S
C1127 C365 1.957 . S
C1132 C273 1.957 . S
