# Generated by pormake.
# Topology ure, (4)-cn, num edge types: 1
# Building blocks:
#     Node 0, Type 0, BuildingBlock: NAHDIM_clean_sbu_0, # of connection points: 4
#     Node 1, Type 0, BuildingBlock: NAHDIM_clean_sbu_0, # of connection points: 4
#     Node 2, Type 0, BuildingBlock: NAHDIM_clean_sbu_0, # of connection points: 4
#     Node 3, Type 0, BuildingBlock: NAHDIM_clean_sbu_0, # of connection points: 4
#     Node 4, Type 0, BuildingBlock: NAHDIM_clean_sbu_0, # of connection points: 4
#     Node 5, Type 0, BuildingBlock: NAHDIM_clean_sbu_0, # of connection points: 4
#     Node 6, Type 0, BuildingBlock: NAHDIM_clean_sbu_0, # of connection points: 4
#     Node 7, Type 0, BuildingBlock: NAHDIM_clean_sbu_0, # of connection points: 4
#     Node 8, Type 0, BuildingBlock: NAHDIM_clean_sbu_0, # of connection points: 4
#     Node 9, Type 0, BuildingBlock: NAHDIM_clean_sbu_0, # of connection points: 4
#     Node 10, Type 0, BuildingBlock: NAHDIM_clean_sbu_0, # of connection points: 4
#     Node 11, Type 0, BuildingBlock: NAHDIM_clean_sbu_0, # of connection points: 4
#     Node 12, Type 0, BuildingBlock: NAHDIM_clean_sbu_0, # of connection points: 4
#     Node 13, Type 0, BuildingBlock: NAHDIM_clean_sbu_0, # of connection points: 4
#     Node 14, Type 0, BuildingBlock: NAHDIM_clean_sbu_0, # of connection points: 4
#     Node 15, Type 0, BuildingBlock: NAHDIM_clean_sbu_0, # of connection points: 4
#     Edge 16, Type (0, 0), BuildingBlock: MIFKUJ_clean_linker_0, # of connection points: 2
#     Edge 17, Type (0, 0), BuildingBlock: MIFKUJ_clean_linker_0, # of connection points: 2
#     Edge 18, Type (0, 0), BuildingBlock: MIFKUJ_clean_linker_0, # of connection points: 2
#     Edge 19, Type (0, 0), BuildingBlock: MIFKUJ_clean_linker_0, # of connection points: 2
#     Edge 20, Type (0, 0), BuildingBlock: MIFKUJ_clean_linker_0, # of connection points: 2
#     Edge 21, Type (0, 0), BuildingBlock: MIFKUJ_clean_linker_0, # of connection points: 2
#     Edge 22, Type (0, 0), BuildingBlock: MIFKUJ_clean_linker_0, # of connection points: 2
#     Edge 23, Type (0, 0), BuildingBlock: MIFKUJ_clean_linker_0, # of connection points: 2
#     Edge 24, Type (0, 0), BuildingBlock: MIFKUJ_clean_linker_0, # of connection points: 2
#     Edge 25, Type (0, 0), BuildingBlock: MIFKUJ_clean_linker_0, # of connection points: 2
#     Edge 26, Type (0, 0), BuildingBlock: MIFKUJ_clean_linker_0, # of connection points: 2
#     Edge 27, Type (0, 0), BuildingBlock: MIFKUJ_clean_linker_0, # of connection points: 2
#     Edge 28, Type (0, 0), BuildingBlock: MIFKUJ_clean_linker_0, # of connection points: 2
#     Edge 29, Type (0, 0), BuildingBlock: MIFKUJ_clean_linker_0, # of connection points: 2
#     Edge 30, Type (0, 0), BuildingBlock: MIFKUJ_clean_linker_0, # of connection points: 2
#     Edge 31, Type (0, 0), BuildingBlock: MIFKUJ_clean_linker_0, # of connection points: 2
#     Edge 32, Type (0, 0), BuildingBlock: MIFKUJ_clean_linker_0, # of connection points: 2
#     Edge 33, Type (0, 0), BuildingBlock: MIFKUJ_clean_linker_0, # of connection points: 2
#     Edge 34, Type (0, 0), BuildingBlock: MIFKUJ_clean_linker_0, # of connection points: 2
#     Edge 35, Type (0, 0), BuildingBlock: MIFKUJ_clean_linker_0, # of connection points: 2
#     Edge 36, Type (0, 0), BuildingBlock: MIFKUJ_clean_linker_0, # of connection points: 2
#     Edge 37, Type (0, 0), BuildingBlock: MIFKUJ_clean_linker_0, # of connection points: 2
#     Edge 38, Type (0, 0), BuildingBlock: MIFKUJ_clean_linker_0, # of connection points: 2
#     Edge 39, Type (0, 0), BuildingBlock: MIFKUJ_clean_linker_0, # of connection points: 2
#     Edge 40, Type (0, 0), BuildingBlock: MIFKUJ_clean_linker_0, # of connection points: 2
#     Edge 41, Type (0, 0), BuildingBlock: MIFKUJ_clean_linker_0, # of connection points: 2
#     Edge 42, Type (0, 0), BuildingBlock: MIFKUJ_clean_linker_0, # of connection points: 2
#     Edge 43, Type (0, 0), BuildingBlock: MIFKUJ_clean_linker_0, # of connection points: 2
#     Edge 44, Type (0, 0), BuildingBlock: MIFKUJ_clean_linker_0, # of connection points: 2
#     Edge 45, Type (0, 0), BuildingBlock: MIFKUJ_clean_linker_0, # of connection points: 2
#     Edge 46, Type (0, 0), BuildingBlock: MIFKUJ_clean_linker_0, # of connection points: 2
#     Edge 47, Type (0, 0), BuildingBlock: MIFKUJ_clean_linker_0, # of connection points: 2
# Relax obj value: 0.113
# Max RMSD: 0.077
# Mean RMSD: 0.068
data_MOF--net-ure--node1-NAHDIM_clean_sbu_0--edge1-MIFKUJ_clean_linker_0
_symmetry_space_group_name_H-M    P1
_symmetry_Int_Tables_number       1
_symmetry_cell_setting            triclinic
loop_
_symmetry_equiv_pos_as_xyz
'x, y, z'
_cell_length_a     39.537887
_cell_length_b     41.095813
_cell_length_c     42.171653
_cell_angle_alpha  90.543673
_cell_angle_beta   91.299683
_cell_angle_gamma 93.414478
loop_
_atom_site_label
_atom_site_type_symbol
_atom_site_fract_x
_atom_site_fract_y
_atom_site_fract_z
_atom_type_partial_charge
C0 C 0.2127 0.21467 0.2644 0.0
O1 O 0.22796 0.2419 0.25458 0.0
O2 O 0.2952 0.23593 0.30045 0.0
Zn3 Zn 0.24864 0.23633 0.31941 0.0
O4 O 0.23229 0.28205 0.31673 0.0
C5 C 0.27793 0.23033 0.38134 0.0
O6 O 0.30211 0.24835 0.3681 0.0
O7 O 0.21724 0.20631 0.29305 0.0
C8 C 0.23594 0.30325 0.3389 0.0
O9 O 0.24949 0.29525 0.36622 0.0
C10 C 0.31493 0.26151 0.30026 0.0
O11 O 0.30459 0.28889 0.31182 0.0
O12 O 0.25152 0.22136 0.36499 0.0
C13 C 0.01716 0.9562 0.48154 0.0
O14 O 0.9887 0.9447 0.49383 0.0
O15 O 0.95023 0.99789 0.51174 0.0
Zn16 Zn 0.99872 0.0161 0.51088 0.0
O17 O 0.01773 0.02321 0.55528 0.0
C18 C 0.97424 0.07035 0.47503 0.0
O19 O 0.9461 0.05178 0.47227 0.0
O20 O 0.02681 0.98594 0.48623 0.0
C21 C 0.0106 0.04875 0.5704 0.0
O22 O 0.9912 0.06957 0.55659 0.0
C23 C 0.93205 0.99665 0.53622 0.0
O24 O 0.94527 0.00656 0.56373 0.0
O25 O -0.00021 0.05966 0.48951 0.0
C26 C 0.25435 0.79266 0.72429 0.0
O27 O 0.22817 0.77549 0.71182 0.0
O28 O 0.18143 0.77026 0.77161 0.0
Zn29 Zn 0.23035 0.7606 0.77962 0.0
O30 O 0.23631 0.71419 0.76615 0.0
C31 C 0.23408 0.74247 0.84509 0.0
O32 O 0.22065 0.71503 0.83291 0.0
O33 O 0.26066 0.79058 0.75386 0.0
C34 C 0.26229 0.69939 0.77456 0.0
O35 O 0.28652 0.71517 0.79137 0.0
C36 C 0.15847 0.74874 0.77867 0.0
O37 O 0.16729 0.7209 0.79033 0.0
O38 O 0.24129 0.76614 0.82671 0.0
C39 C 0.51065 0.03147 0.96597 0.0
O40 O 0.54336 0.0357 0.96142 0.0
O41 O 0.57812 0.98443 0.99301 0.0
Zn42 Zn 0.53089 0.9821 0.01026 0.0
O43 O 0.53151 0.99665 0.05603 0.0
C44 C 0.52101 0.91652 0.98627 0.0
O45 O 0.53891 0.92868 0.96283 0.0
O46 O 0.49984 0.00976 0.98514 0.0
C47 C 0.55525 0.99008 0.07532 0.0
O48 O 0.58056 0.97378 0.06519 0.0
C49 C 0.60079 0.00618 0.00143 0.0
O50 O 0.59327 0.02925 0.0214 0.0
O51 O 0.51345 0.93522 0.00886 0.0
C52 C 0.20769 0.76029 0.27459 0.0
O53 O 0.23773 0.77161 0.2657 0.0
O54 O 0.27639 0.71407 0.25866 0.0
Zn55 Zn 0.22873 0.70385 0.24268 0.0
O56 O 0.21763 0.65623 0.25013 0.0
C57 C 0.2456 0.73562 0.18395 0.0
O58 O 0.26597 0.75381 0.20277 0.0
O59 O 0.19752 0.73132 0.26685 0.0
C60 C 0.23801 0.63631 0.23933 0.0
O61 O 0.26359 0.64759 0.22245 0.0
C62 C 0.28959 0.69916 0.28165 0.0
O63 O 0.27149 0.67645 0.29646 0.0
O64 O 0.2266 0.71304 0.19582 0.0
C65 C 0.48046 0.98517 0.52839 0.0
O66 O 0.50632 0.00206 0.54177 0.0
O67 O 0.5081 0.05846 0.47973 0.0
Zn68 Zn 0.51363 0.01036 0.47478 0.0
O69 O 0.55945 0.99903 0.49162 0.0
C70 C 0.53694 0.01308 0.41275 0.0
O71 O 0.56194 0.02879 0.42858 0.0
O72 O 0.47736 0.98483 0.49832 0.0
C73 C 0.57438 0.97532 0.4799 0.0
O74 O 0.55889 0.95701 0.45767 0.0
C75 C 0.53315 0.07887 0.48465 0.0
O76 O 0.56359 0.06828 0.48898 0.0
O77 O 0.51151 0.00146 0.42779 0.0
C78 C 0.27966 0.24085 0.81425 0.0
O79 O 0.24724 0.23179 0.81232 0.0
O80 O 0.27966 0.2704 0.72149 0.0
Zn81 Zn 0.26297 0.28464 0.76355 0.0
O82 O 0.21322 0.2706 0.76661 0.0
C83 C 0.25205 0.35011 0.74692 0.0
O84 O 0.23301 0.33463 0.72503 0.0
O85 O 0.29124 0.2637 0.79676 0.0
C86 C 0.19501 0.26493 0.74168 0.0
O87 O 0.209 0.26756 0.71381 0.0
C88 C 0.27884 0.24024 0.71435 0.0
O89 O 0.26764 0.21876 0.7351 0.0
O90 O 0.26832 0.33364 0.76687 0.0
C91 C 0.04292 0.01305 0.02357 0.0
O92 O 0.02637 0.985 0.02876 0.0
O93 O 0.03459 0.94997 0.9624 0.0
Zn94 Zn 0.02307 0.99709 0.95932 0.0
O95 O 0.97243 0.99841 0.9626 0.0
C96 C 0.05808 0.00671 0.8992 0.0
O97 O 0.07525 0.98161 0.9075 0.0
O98 O 0.04524 0.02324 0.99531 0.0
C99 C 0.95308 0.99838 0.93807 0.0
O100 O 0.96637 0.99846 0.9098 0.0
C101 C 0.01863 0.929 0.94444 0.0
O102 O 0.99716 0.93899 0.92295 0.0
O103 O 0.0362 0.01702 0.9178 0.0
C104 C 0.73165 0.26727 0.78262 0.0
O105 O 0.7402 0.23757 0.78889 0.0
O106 O 0.81679 0.26583 0.73048 0.0
Zn107 Zn 0.76684 0.25538 0.72524 0.0
O108 O 0.75894 0.20742 0.73261 0.0
C109 C 0.75972 0.24618 0.65852 0.0
O110 O 0.77326 0.21876 0.66598 0.0
O111 O 0.74063 0.28033 0.75667 0.0
C112 C 0.73235 0.19037 0.72421 0.0
O113 O 0.70759 0.20422 0.70923 0.0
C114 C 0.83317 0.25755 0.75507 0.0
O115 O 0.81665 0.24367 0.77852 0.0
O116 O 0.75369 0.26632 0.68043 0.0
C117 C 0.97306 0.4885 0.01127 0.0
O118 O 0.00184 0.50238 0.0222 0.0
O119 O 0.99278 0.56621 0.96189 0.0
Zn120 Zn 0.99575 0.51806 0.95368 0.0
O121 O 0.04382 0.50589 0.96119 0.0
C122 C 0.98533 0.5301 0.8872 0.0
O123 O 0.99367 0.56021 0.89635 0.0
O124 O 0.96475 0.49205 0.98227 0.0
C125 C 0.06711 0.5196 0.94485 0.0
O126 O 0.05911 0.54133 0.92375 0.0
C127 C 0.01383 0.58255 0.97991 0.0
O128 O 0.03727 0.5674 0.99546 0.0
O129 O 0.98346 0.50775 0.90784 0.0
C130 C 0.74133 0.71534 0.27353 0.0
O131 O 0.71179 0.70083 0.26564 0.0
O132 O 0.71332 0.76657 0.19819 0.0
Zn133 Zn 0.71083 0.77017 0.24577 0.0
O134 O 0.66458 0.75302 0.25906 0.0
C135 C 0.74053 0.83661 0.25035 0.0
O136 O 0.76509 0.82533 0.23375 0.0
O137 O 0.74698 0.74526 0.26703 0.0
C138 C 0.6411 0.77282 0.25936 0.0
O139 O 0.64796 0.80321 0.2512 0.0
C140 C 0.70005 0.7877 0.18076 0.0
O141 O 0.68529 0.81191 0.19418 0.0
O142 O 0.71627 0.81723 0.25873 0.0
C143 C 0.97768 0.53771 0.45694 0.0
O144 O 0.00807 0.54993 0.46527 0.0
O145 O 0.04866 0.49156 0.47519 0.0
Zn146 Zn 0.00043 0.4801 0.48746 0.0
O147 O 0.9958 0.48546 0.53481 0.0
C148 C 0.01177 0.41321 0.47763 0.0
O149 O 0.0417 0.42336 0.4893 0.0
O150 O 0.96889 0.50856 0.46428 0.0
C151 C 0.98413 0.46283 0.55259 0.0
O152 O 0.97352 0.43464 0.53991 0.0
C153 C 0.07028 0.5056 0.49431 0.0
O154 O 0.06077 0.51419 0.52267 0.0
O155 O 0.98898 0.43352 0.47448 0.0
C156 C 0.52212 0.44769 0.98496 0.0
O157 O 0.50592 0.43476 0.00907 0.0
O158 O 0.43917 0.49266 0.99172 0.0
Zn159 Zn 0.48768 0.50268 0.00484 0.0
O160 O 0.49543 0.49225 0.05061 0.0
C161 C 0.48081 0.56893 0.01793 0.0
O162 O 0.46068 0.55532 0.03903 0.0
O163 O 0.5182 0.47729 0.97812 0.0
C164 C 0.5232 0.50194 0.06433 0.0
O165 O 0.54644 0.51815 0.04801 0.0
C166 C 0.41856 0.4734 0.00608 0.0
O167 O 0.42929 0.45729 0.03073 0.0
O168 O 0.49667 0.55078 -0.00042 0.0
C169 C 0.7168 0.73066 0.7306 0.0
O170 O 0.74973 0.73287 0.72681 0.0
O171 O 0.78242 0.77302 0.7759 0.0
Zn172 Zn 0.73259 0.78016 0.77894 0.0
O173 O 0.72513 0.82606 0.76633 0.0
C174 C 0.73433 0.75874 0.84395 0.0
O175 O 0.75757 0.73993 0.83365 0.0
O176 O 0.70397 0.74834 0.75153 0.0
C177 C 0.74125 0.84795 0.78309 0.0
O178 O 0.76114 0.83906 0.80644 0.0
C179 C 0.80076 0.78765 0.75547 0.0
O180 O 0.78666 0.80689 0.73498 0.0
O181 O 0.71947 0.77678 0.82448 0.0
C182 C 0.76024 0.28142 0.20627 0.0
O183 O 0.7322 0.26759 0.19374 0.0
O184 O 0.68695 0.26101 0.25474 0.0
Zn185 Zn 0.73522 0.24966 0.26224 0.0
O186 O 0.73809 0.2016 0.25449 0.0
C187 C 0.7464 0.28396 0.32313 0.0
O188 O 0.74088 0.31059 0.30731 0.0
O189 O 0.76724 0.27685 0.23539 0.0
C190 C 0.7174 0.18323 0.26988 0.0
O191 O 0.69599 0.19661 0.28871 0.0
C192 C 0.66705 0.24509 0.23534 0.0
O193 O 0.67882 0.22187 0.21784 0.0
O194 O 0.74614 0.25684 0.30843 0.0
C195 C 0.50678 0.52754 0.51727 0.0
O196 O 0.47472 0.52005 0.52287 0.0
O197 O 0.4965 0.44059 0.47474 0.0
Zn198 Zn 0.49166 0.48729 0.46218 0.0
O199 O 0.44241 0.49826 0.46328 0.0
C200 C 0.49684 0.47149 0.39724 0.0
O201 O 0.47327 0.44959 0.40561 0.0
O202 O 0.51969 0.51647 0.49235 0.0
C203 C 0.42593 0.50935 0.43991 0.0
O204 O 0.4412 0.5151 0.41305 0.0
C205 C 0.47187 0.41923 0.47375 0.0
O206 O 0.4414 0.42801 0.46597 0.0
O207 O 0.50932 0.49176 0.41792 0.0
H208 H 0.17958 0.15561 0.27599 0.0
H209 H 0.14687 0.12022 0.23799 0.0
H210 H 0.16613 0.19061 0.16433 0.0
H211 H 0.1984 0.22623 0.20211 0.0
H212 H 0.10112 0.16687 0.1621 0.0
H213 H 0.21164 0.12325 0.16999 0.0
H214 H 0.26042 0.10093 0.19798 0.0
H215 H 0.196 0.02147 0.23174 0.0
H216 H 0.14672 0.04357 0.20426 0.0
H217 H 0.07398 0.07414 0.02128 0.0
H218 H 0.09869 0.10704 0.06541 0.0
H219 H 0.07101 0.0301 0.13043 0.0
H220 H 0.0463 0.99682 0.08632 0.0
H221 H 0.1361 0.05492 0.14072 0.0
H222 H 0.02633 0.09637 0.12865 0.0
H223 H 0.97801 0.1187 0.09998 0.0
H224 H 0.04106 0.20233 0.07367 0.0
H225 H 0.08992 0.18027 0.10179 0.0
C226 C 0.17671 0.16361 0.25174 0.0
C227 C 0.19174 0.19365 0.24202 0.0
C228 C 0.15811 0.14332 0.23004 0.0
C229 C 0.15439 0.15265 0.19826 0.0
C230 C 0.1687 0.18294 0.18873 0.0
C231 C 0.18725 0.20322 0.21036 0.0
C232 C 0.13621 0.13071 0.17463 0.0
C233 C 0.10892 0.14249 0.15724 0.0
C234 C 0.14585 0.0986 0.1689 0.0
C235 C 0.17544 0.08526 0.18538 0.0
C236 C 0.20783 0.10116 0.1836 0.0
C237 C 0.23557 0.08852 0.19933 0.0
C238 C 0.23129 0.05985 0.21671 0.0
C239 C 0.19926 0.04371 0.21832 0.0
C240 C 0.17143 0.05627 0.20266 0.0
C241 C 0.0731 0.06417 0.04495 0.0
C242 C 0.05811 0.03288 0.0503 0.0
C243 C 0.08709 0.08309 0.07017 0.0
C244 C 0.08631 0.07114 0.10122 0.0
C245 C 0.07174 0.03978 0.10664 0.0
C246 C 0.05759 0.02086 0.08141 0.0
C247 C 0.10137 0.09129 0.12785 0.0
C248 C 0.12805 0.07918 0.14581 0.0
C249 C 0.09121 0.12312 0.13405 0.0
C250 C 0.06187 0.13651 0.11711 0.0
C251 C 0.02998 0.11939 0.11653 0.0
C252 C 0.00247 0.13202 0.10042 0.0
C253 C 0.00648 0.16188 0.08496 0.0
C254 C 0.038 0.17919 0.08564 0.0
C255 C 0.0656 0.16665 0.10169 0.0
H256 H 0.98515 0.17162 0.07251 0.0
H257 H 0.2528 0.0501 0.22887 0.0
H258 H 0.07853 0.97135 0.4551 0.0
H259 H 0.11002 0.93737 0.41984 0.0
H260 H 0.03186 0.85999 0.4261 0.0
H261 H 0.00048 0.89358 0.46192 0.0
H262 H 0.09329 0.83643 0.43016 0.0
H263 H 0.03699 0.90898 0.36095 0.0
H264 H 0.02048 0.96223 0.34133 0.0
H265 H 0.12489 0.99133 0.32598 0.0
H266 H 0.14208 0.93839 0.34594 0.0
H267 H 0.14536 0.74382 0.29876 0.0
H268 H 0.11216 0.77674 0.33364 0.0
H269 H 0.18975 0.85499 0.3311 0.0
H270 H 0.2229 0.82247 0.29593 0.0
H271 H 0.12734 0.87747 0.32458 0.0
H272 H 0.18359 0.80528 0.39471 0.0
H273 H 0.20006 0.75197 0.41423 0.0
H274 H 0.09547 0.72212 0.42757 0.0
H275 H 0.07833 0.77513 0.40771 0.0
C276 C 0.06806 0.94707 0.44907 0.0
C277 C 0.0369 0.93522 0.46118 0.0
C278 C 0.08602 0.92773 0.42879 0.0
C279 C 0.073 0.89635 0.41994 0.0
C280 C 0.04229 0.88418 0.43255 0.0
C281 C 0.02438 0.90344 0.45297 0.0
C282 C 0.09138 0.87627 0.39745 0.0
C283 C 0.10031 0.84521 0.4069 0.0
C284 C 0.10112 0.88801 0.36734 0.0
C285 C 0.09084 0.91983 0.35523 0.0
C286 C 0.05646 0.92682 0.35362 0.0
C287 C 0.04697 0.95694 0.3424 0.0
C288 C 0.07163 0.98018 0.33249 0.0
C289 C 0.10582 0.97332 0.33371 0.0
C290 C 0.11545 0.94325 0.34495 0.0
C291 C 0.15531 0.76808 0.30552 0.0
C292 C 0.18684 0.78049 0.29467 0.0
C293 C 0.13637 0.7868 0.32556 0.0
C294 C 0.14871 0.81814 0.33526 0.0
C295 C 0.17981 0.83083 0.32394 0.0
C296 C 0.19875 0.81217 0.30389 0.0
C297 C 0.12935 0.83773 0.35736 0.0
C298 C 0.12023 0.86868 0.34783 0.0
C299 C 0.11941 0.82588 0.38736 0.0
C300 C 0.12967 0.79404 0.39942 0.0
C301 C 0.16409 0.78725 0.40157 0.0
C302 C 0.17355 0.75711 0.41274 0.0
C303 C 0.14882 0.73364 0.42205 0.0
C304 C 0.11459 0.74031 0.4203 0.0
C305 C 0.10499 0.7704 0.40912 0.0
H306 H 0.1562 0.71032 0.4307 0.0
H307 H 0.06423 0.00348 0.32381 0.0
H308 H 0.42191 0.95078 0.50911 0.0
H309 H 0.38223 0.91905 0.54218 0.0
H310 H 0.44385 0.94538 0.62525 0.0
H311 H 0.48364 0.97697 0.59247 0.0
H312 H 0.42585 0.88048 0.62283 0.0
H313 H 0.37088 0.98101 0.61193 0.0
H314 H 0.34632 0.02613 0.58292 0.0
H315 H 0.27402 0.9585 0.53642 0.0
H316 H 0.29846 0.91289 0.56484 0.0
H317 H 0.31188 0.8293 0.74201 0.0
H318 H 0.34911 0.86258 0.70811 0.0
H319 H 0.28461 0.83628 0.62689 0.0
H320 H 0.24702 0.8032 0.66066 0.0
H321 H 0.30357 0.9007 0.62747 0.0
H322 H 0.35814 0.80025 0.63832 0.0
H323 H 0.38271 0.75491 0.66695 0.0
H324 H 0.4559 0.82202 0.71295 0.0
H325 H 0.43144 0.86786 0.68492 0.0
C326 C 0.42696 0.94989 0.53443 0.0
C327 C 0.45593 0.96642 0.54816 0.0
C328 C 0.4042 0.93186 0.55329 0.0
C329 C 0.41 0.93005 0.58619 0.0
C330 C 0.43891 0.94646 0.59991 0.0
C331 C 0.46157 0.96459 0.58113 0.0
C332 C 0.38639 0.9105 0.60632 0.0
C333 C 0.3992 0.88517 0.62418 0.0
C334 C 0.35147 0.91612 0.6074 0.0
C335 C 0.33675 0.9435 0.59025 0.0
C336 C 0.34994 0.97572 0.5953 0.0
C337 C 0.336 0.00139 0.57901 0.0
C338 C 0.30869 0.99518 0.55777 0.0
C339 C 0.29521 0.96327 0.55284 0.0
C340 C 0.30908 0.93751 0.56905 0.0
C341 C 0.30555 0.83064 0.71695 0.0
C342 C 0.27656 0.81346 0.70401 0.0
C343 C 0.32693 0.84958 0.69759 0.0
C344 C 0.31983 0.85159 0.66491 0.0
C345 C 0.29058 0.83501 0.65204 0.0
C346 C 0.26919 0.81603 0.67138 0.0
C347 C 0.34309 0.8708 0.64414 0.0
C348 C 0.33022 0.89601 0.62612 0.0
C349 C 0.37798 0.86504 0.64284 0.0
C350 C 0.39273 0.83753 0.65976 0.0
C351 C 0.37928 0.80538 0.65475 0.0
C352 C 0.39323 0.77958 0.67083 0.0
C353 C 0.42079 0.78559 0.69182 0.0
C354 C 0.43452 0.81741 0.69672 0.0
C355 C 0.42064 0.84331 0.68073 0.0
H356 H 0.43156 0.76558 0.70424 0.0
H357 H 0.29793 0.01509 0.5452 0.0
H358 H 0.52545 0.08119 0.92495 0.0
H359 H 0.48606 0.11763 0.90042 0.0
H360 H 0.4027 0.06688 0.9469 0.0
H361 H 0.44179 0.03004 0.97122 0.0
H362 H 0.38756 0.07877 0.88524 0.0
H363 H 0.43628 0.14014 0.97521 0.0
H364 H 0.48311 0.16522 0.00844 0.0
H365 H 0.51677 0.22367 0.93004 0.0
H366 H 0.47041 0.19858 0.8962 0.0
H367 H 0.26387 0.19208 0.85607 0.0
H368 H 0.30313 0.15775 0.88381 0.0
H369 H 0.38776 0.21209 0.84278 0.0
H370 H 0.34882 0.24701 0.81572 0.0
H371 H 0.40243 0.1985 0.90202 0.0
H372 H 0.3571 0.13825 0.81152 0.0
H373 H 0.31227 0.11347 0.77581 0.0
H374 H 0.27502 0.05307 0.85147 0.0
H375 H 0.31936 0.07785 0.88778 0.0
C376 C 0.49872 0.07769 0.9299 0.0
C377 C 0.48677 0.0528 0.95016 0.0
C378 C 0.47628 0.09865 0.91597 0.0
C379 C 0.44154 0.09522 0.92221 0.0
C380 C 0.42944 0.06999 0.94188 0.0
C381 C 0.45184 0.049 0.95579 0.0
C382 C 0.41773 0.1179 0.90823 0.0
C383 C 0.3905 0.10491 0.88927 0.0
C384 C 0.42224 0.15208 0.91273 0.0
C385 C 0.45005 0.16726 0.9331 0.0
C386 C 0.45382 0.15816 0.96499 0.0
C387 C 0.48026 0.1724 0.98394 0.0
C388 C 0.50295 0.19596 0.97133 0.0
C389 C 0.49921 0.20538 0.93976 0.0
C390 C 0.47284 0.19117 0.92069 0.0
C391 C 0.29085 0.19694 0.85323 0.0
C392 C 0.30321 0.2221 0.8335 0.0
C393 C 0.31325 0.17719 0.86896 0.0
C394 C 0.34835 0.18196 0.86485 0.0
C395 C 0.36078 0.20789 0.8462 0.0
C396 C 0.33844 0.22781 0.8307 0.0
C397 C 0.37211 0.15936 0.87915 0.0
C398 C 0.39938 0.17235 0.89808 0.0
C399 C 0.36794 0.12521 0.87425 0.0
C400 C 0.34133 0.11015 0.85245 0.0
C401 C 0.33919 0.11986 0.82061 0.0
C402 C 0.31389 0.10579 0.80025 0.0
C403 C 0.29076 0.08178 0.81139 0.0
C404 C 0.29293 0.07172 0.84289 0.0
C405 C 0.31815 0.08575 0.86337 0.0
H406 H 0.27119 0.07091 0.79559 0.0
H407 H 0.5234 0.20696 0.98605 0.0
H408 H 0.70508 0.2448 0.83811 0.0
H409 H 0.67048 0.27384 0.87503 0.0
H410 H 0.67706 0.35843 0.81519 0.0
H411 H 0.71188 0.32972 0.77825 0.0
H412 H 0.68853 0.37399 0.8778 0.0
H413 H 0.60654 0.3078 0.81467 0.0
H414 H 0.58046 0.25649 0.79201 0.0
H415 H 0.56402 0.21961 0.88568 0.0
H416 H 0.59048 0.27053 0.90892 0.0
H417 H 0.55691 0.46625 0.93226 0.0
H418 H 0.59397 0.43378 0.901 0.0
H419 H 0.57597 0.35262 0.96381 0.0
H420 H 0.53831 0.38479 0.99496 0.0
H421 H 0.57197 0.33277 0.90357 0.0
H422 H 0.65095 0.39761 0.96752 0.0
H423 H 0.6774 0.44782 0.9921 0.0
H424 H 0.70063 0.48555 0.90001 0.0
H425 H 0.67389 0.43573 0.87483 0.0
C426 C 0.69922 0.26961 0.83281 0.0
C427 C 0.71116 0.28495 0.8052 0.0
C428 C 0.67933 0.28609 0.85388 0.0
C429 C 0.67098 0.31815 0.84766 0.0
C430 C 0.68322 0.33367 0.82037 0.0
C431 C 0.70304 0.31719 0.79926 0.0
C432 C 0.64961 0.33572 0.86963 0.0
C433 C 0.6629 0.36519 0.88319 0.0
C434 C 0.61667 0.32352 0.87752 0.0
C435 C 0.6009 0.29283 0.86353 0.0
C436 C 0.59768 0.28863 0.83044 0.0
C437 C 0.58276 0.25964 0.81749 0.0
C438 C 0.57069 0.23477 0.83739 0.0
C439 C 0.57344 0.23887 0.87029 0.0
C440 C 0.5884 0.26779 0.88337 0.0
C441 C 0.56086 0.44152 0.93949 0.0
C442 C 0.54473 0.42811 0.96613 0.0
C443 C 0.58219 0.42304 0.92168 0.0
C444 C 0.58809 0.39094 0.93035 0.0
C445 C 0.57183 0.37738 0.95678 0.0
C446 C 0.55037 0.39583 0.97457 0.0
C447 C 0.61066 0.37139 0.9113 0.0
C448 C 0.59767 0.3415 0.89836 0.0
C449 C 0.64403 0.383 0.90425 0.0
C450 C 0.66014 0.41304 0.91928 0.0
C451 C 0.66145 0.41672 0.95249 0.0
C452 C 0.67654 0.44509 0.96653 0.0
C453 C 0.69061 0.46989 0.94762 0.0
C454 C 0.68969 0.46633 0.91462 0.0
C455 C 0.6746 0.43802 0.90045 0.0
H456 H 0.70229 0.49184 0.95854 0.0
H457 H 0.55912 0.21236 0.82731 0.0
H458 H 0.98413 0.47481 0.07386 0.0
H459 H 0.94824 0.44047 0.10803 0.0
H460 H 0.87662 0.42193 0.03033 0.0
H461 H 0.91212 0.45653 0.99609 0.0
H462 H 0.84498 0.43491 0.08465 0.0
H463 H 0.93139 0.3652 0.05171 0.0
H464 H 0.98994 0.34952 0.04427 0.0
H465 H 0.00891 0.35533 0.14488 0.0
H466 H 0.95057 0.3715 0.15289 0.0
H467 H 0.75134 0.29765 0.1441 0.0
H468 H 0.78794 0.33387 0.11244 0.0
H469 H 0.85655 0.35016 0.19278 0.0
H470 H 0.82023 0.31364 0.22461 0.0
H471 H 0.89023 0.33943 0.13876 0.0
H472 H 0.8032 0.40768 0.17181 0.0
H473 H 0.74456 0.42314 0.17917 0.0
H474 H 0.72666 0.42001 0.07835 0.0
H475 H 0.78508 0.40408 0.0704 0.0
C476 C 0.96071 0.46349 0.06403 0.0
C477 C 0.95105 0.4683 0.0322 0.0
C478 C 0.9403 0.44376 0.08357 0.0
C479 C 0.90996 0.42835 0.07161 0.0
C480 C 0.89996 0.43356 0.04002 0.0
C481 C 0.92034 0.45328 0.02046 0.0
C482 C 0.88863 0.40671 0.09196 0.0
C483 C 0.85474 0.41381 0.09618 0.0
C484 C 0.90165 0.37965 0.10763 0.0
C485 C 0.93673 0.3699 0.10287 0.0
C486 C 0.94813 0.3634 0.07223 0.0
C487 C 0.98127 0.35437 0.06791 0.0
C488 C 0.00316 0.35152 0.09408 0.0
C489 C 0.99194 0.3576 0.12463 0.0
C490 C 0.95884 0.36668 0.12908 0.0
C491 C 0.77423 0.30888 0.15508 0.0
C492 C 0.78281 0.30284 0.18693 0.0
C493 C 0.79504 0.3297 0.13697 0.0
C494 C 0.82473 0.34502 0.15039 0.0
C495 C 0.83369 0.33864 0.18201 0.0
C496 C 0.81286 0.31782 0.20017 0.0
C497 C 0.84652 0.36752 0.13129 0.0
C498 C 0.88049 0.3606 0.12731 0.0
C499 C 0.83357 0.39473 0.11584 0.0
C500 C 0.79843 0.40438 0.12053 0.0
C501 C 0.78668 0.41003 0.15122 0.0
C502 C 0.75349 0.41893 0.15549 0.0
C503 C 0.73187 0.42247 0.12925 0.0
C504 C 0.74342 0.41721 0.09866 0.0
C505 C 0.77658 0.40828 0.09425 0.0
H506 H 0.70619 0.42937 0.13261 0.0
H507 H 0.0288 0.34452 0.09069 0.0
H508 H 0.98957 0.59927 0.43389 0.0
H509 H 0.95112 0.63055 0.40168 0.0
H510 H 0.87438 0.55164 0.40581 0.0
H511 H 0.91276 0.52003 0.43754 0.0
H512 H 0.88042 0.57406 0.34658 0.0
H513 H 0.86982 0.62076 0.45098 0.0
H514 H 0.89097 0.64719 0.50092 0.0
H515 H 0.93264 0.72891 0.44896 0.0
H516 H 0.91209 0.70276 0.39865 0.0
H517 H 0.73519 0.65312 0.29578 0.0
H518 H 0.77739 0.62412 0.3256 0.0
H519 H 0.84843 0.70759 0.31967 0.0
H520 H 0.80606 0.73708 0.29035 0.0
H521 H 0.84795 0.68431 0.3782 0.0
H522 H 0.85678 0.63905 0.274 0.0
H523 H 0.83616 0.61278 0.22384 0.0
H524 H 0.79872 0.52862 0.27474 0.0
H525 H 0.81872 0.55457 0.32528 0.0
C526 C 0.96448 0.58863 0.42804 0.0
C527 C 0.95421 0.55719 0.4383 0.0
C528 C 0.9425 0.60657 0.40971 0.0
C529 C 0.9098 0.5935 0.40157 0.0
C530 C 0.89952 0.56215 0.4118 0.0
C531 C 0.92147 0.54418 0.43003 0.0
C532 C 0.88634 0.6122 0.382 0.0
C533 C 0.873 0.59801 0.35365 0.0
C534 C 0.8775 0.64384 0.3908 0.0
C535 C 0.88972 0.65965 0.42104 0.0
C536 C 0.88372 0.64425 0.45019 0.0
C537 C 0.89555 0.6592 0.47856 0.0
C538 C 0.91322 0.68967 0.47811 0.0
C539 C 0.91899 0.70529 0.44927 0.0
C540 C 0.90723 0.69043 0.42083 0.0
C541 C 0.75982 0.66528 0.30067 0.0
C542 C 0.76728 0.69738 0.29065 0.0
C543 C 0.78399 0.64862 0.31761 0.0
C544 C 0.81621 0.66356 0.32453 0.0
C545 C 0.82374 0.6956 0.31455 0.0
C546 C 0.79952 0.71235 0.29773 0.0
C547 C 0.84169 0.64601 0.34292 0.0
C548 C 0.85547 0.66042 0.37102 0.0
C549 C 0.85101 0.6146 0.33384 0.0
C550 C 0.839 0.59889 0.30347 0.0
C551 C 0.84392 0.61504 0.27453 0.0
C552 C 0.83238 0.60019 0.24602 0.0
C553 C 0.81607 0.56908 0.24611 0.0
C554 C 0.81133 0.55273 0.27471 0.0
C555 C 0.8228 0.56748 0.30329 0.0
H556 H 0.80716 0.55763 0.22401 0.0
H557 H 0.92236 0.7012 0.5001 0.0
H558 H 0.57527 0.54129 0.51668 0.0
H559 H 0.60995 0.57475 0.55468 0.0
H560 H 0.52074 0.59376 0.60718 0.0
H561 H 0.48577 0.56034 0.56925 0.0
H562 H 0.56185 0.6493 0.59734 0.0
H563 H 0.57317 0.54095 0.63563 0.0
H564 H 0.58521 0.48289 0.63168 0.0
H565 H 0.68731 0.50938 0.60517 0.0
H566 H 0.67574 0.56764 0.60851 0.0
H567 H 0.64804 0.71903 0.73307 0.0
H568 H 0.61175 0.68347 0.69821 0.0
H569 H 0.69927 0.65698 0.64676 0.0
H570 H 0.73584 0.69204 0.68183 0.0
H571 H 0.65773 0.60454 0.65728 0.0
H572 H 0.64641 0.71239 0.61709 0.0
H573 H 0.63478 0.77061 0.62011 0.0
H574 H 0.53324 0.74532 0.64908 0.0
H575 H 0.54443 0.68691 0.64665 0.0
C576 C 0.56299 0.55259 0.53628 0.0
C577 C 0.52777 0.5481 0.54 0.0
C578 C 0.58287 0.57158 0.55804 0.0
C579 C 0.56792 0.58644 0.58387 0.0
C580 C 0.53274 0.5824 0.58742 0.0
C581 C 0.51284 0.56324 0.56578 0.0
C582 C 0.58902 0.60648 0.60699 0.0
C583 C 0.5825 0.63944 0.61083 0.0
C584 C 0.61641 0.59368 0.62397 0.0
C585 C 0.62348 0.55866 0.62202 0.0
C586 C 0.59811 0.5344 0.62869 0.0
C587 C 0.60486 0.50145 0.62662 0.0
C588 C 0.63698 0.49245 0.6181 0.0
C589 C 0.66243 0.51639 0.61172 0.0
C590 C 0.6558 0.54938 0.61373 0.0
C591 C 0.6596 0.70559 0.71439 0.0
C592 C 0.69482 0.70851 0.71011 0.0
C593 C 0.6388 0.68536 0.69442 0.0
C594 C 0.65277 0.66792 0.66963 0.0
C595 C 0.68797 0.67027 0.66571 0.0
C596 C 0.70881 0.6904 0.68573 0.0
C597 C 0.63068 0.64746 0.64755 0.0
C598 C 0.63701 0.61441 0.64389 0.0
C599 C 0.6032 0.6602 0.63062 0.0
C600 C 0.59638 0.6953 0.63201 0.0
C601 C 0.62169 0.71925 0.62435 0.0
C602 C 0.61516 0.75228 0.62591 0.0
C603 C 0.58332 0.76166 0.63487 0.0
C604 C 0.55791 0.73801 0.6422 0.0
C605 C 0.56432 0.70495 0.64071 0.0
H606 H 0.57832 0.78724 0.63605 0.0
H607 H 0.64216 0.46693 0.61651 0.0
H608 H 0.31469 0.26552 0.42593 0.0
H609 H 0.31834 0.25587 0.48259 0.0
H610 H 0.25185 0.16915 0.47079 0.0
H611 H 0.24654 0.17997 0.41376 0.0
H612 H 0.23421 0.20025 0.51982 0.0
H613 H 0.3414 0.16675 0.48735 0.0
H614 H 0.39523 0.17114 0.45878 0.0
H615 H 0.42651 0.25767 0.51202 0.0
H616 H 0.37277 0.25409 0.54073 0.0
H617 H 0.26301 0.18102 0.68586 0.0
H618 H 0.26797 0.16717 0.62959 0.0
H619 H 0.3152 0.26262 0.61291 0.0
H620 H 0.31034 0.27667 0.6689 0.0
H621 H 0.34433 0.21271 0.57886 0.0
H622 H 0.23246 0.25086 0.60203 0.0
H623 H 0.17857 0.24726 0.63053 0.0
H624 H 0.15717 0.14992 0.59455 0.0
H625 H 0.21122 0.15282 0.5662 0.0
C626 C 0.30102 0.24424 0.43532 0.0
C627 C 0.28051 0.22334 0.41547 0.0
C628 C 0.30337 0.23855 0.46775 0.0
C629 C 0.28623 0.21119 0.48095 0.0
C630 C 0.26559 0.19024 0.46113 0.0
C631 C 0.26256 0.1964 0.42862 0.0
C632 C 0.28856 0.20589 0.5157 0.0
C633 C 0.25839 0.20206 0.53259 0.0
C634 C 0.32006 0.20847 0.53258 0.0
C635 C 0.35294 0.21019 0.51611 0.0
C636 C 0.35972 0.18676 0.49294 0.0
C637 C 0.3902 0.18911 0.47673 0.0
C638 C 0.41415 0.21471 0.48358 0.0
C639 C 0.40788 0.23787 0.50681 0.0
C640 C 0.37746 0.23563 0.52312 0.0
C641 C 0.27503 0.19883 0.67031 0.0
C642 C 0.28596 0.23007 0.68167 0.0
C643 C 0.27779 0.19087 0.63821 0.0
C644 C 0.29168 0.214 0.61717 0.0
C645 C 0.30444 0.24445 0.62884 0.0
C646 C 0.30146 0.2525 0.66079 0.0
C647 C 0.2901 0.20809 0.58255 0.0
C648 C 0.32035 0.20986 0.56582 0.0
C649 C 0.25877 0.20339 0.56582 0.0
C650 C 0.22598 0.20193 0.58228 0.0
C651 C 0.21633 0.22863 0.60035 0.0
C652 C 0.18577 0.22673 0.61646 0.0
C653 C 0.16449 0.19836 0.6144 0.0
C654 C 0.17369 0.17187 0.59615 0.0
C655 C 0.20428 0.17363 0.58006 0.0
H656 H 0.14084 0.19695 0.62689 0.0
H657 H 0.43751 0.21664 0.47085 0.0
H658 H 0.02623 0.05866 0.87539 0.0
H659 H 0.02404 0.07636 0.82036 0.0
H660 H 0.09315 0.00363 0.7949 0.0
H661 H 0.09577 0.98582 0.85008 0.0
H662 H 0.10442 0.06244 0.76215 0.0
H663 H 0.01075 0.98604 0.78765 0.0
H664 H 0.96114 0.96684 0.81823 0.0
H665 H 0.91059 0.05295 0.79336 0.0
H666 H 0.96021 0.07297 0.7631 0.0
H667 H 0.05825 0.01659 0.60358 0.0
H668 H 0.07198 0.02116 0.66037 0.0
H669 H 0.00012 0.09535 0.67015 0.0
H670 H 0.98646 0.09121 0.61332 0.0
H671 H 0.99007 0.04433 0.7118 0.0
H672 H 0.07878 0.11804 0.68103 0.0
H673 H 0.12762 0.13948 0.65082 0.0
H674 H 0.18656 0.06209 0.68493 0.0
H675 H 0.13784 0.03985 0.71509 0.0
C676 C 0.04143 0.04672 0.85823 0.0
C677 C 0.06078 0.02045 0.86701 0.0
C678 C 0.04013 0.05692 0.8268 0.0
C679 C 0.058 0.04094 0.80355 0.0
C680 C 0.07912 0.0162 0.81255 0.0
C681 C 0.08047 0.00597 0.84405 0.0
C682 C 0.05205 0.04771 0.76956 0.0
C683 C 0.07953 0.05825 0.751 0.0
C684 C 0.01927 0.04331 0.75539 0.0
C685 C 0.98936 0.0312 0.77345 0.0
C686 C 0.98918 0.00103 0.78895 0.0
C687 C 0.96105 0.98998 0.8062 0.0
C688 C 0.93279 0.00873 0.80785 0.0
C689 C 0.93256 0.03852 0.79216 0.0
C690 C 0.96068 0.04973 0.77496 0.0
C691 C 0.04569 0.03417 0.61774 0.0
C692 C 0.02114 0.0534 0.60404 0.0
C693 C 0.05371 0.0369 0.65012 0.0
C694 C 0.03713 0.05869 0.66935 0.0
C695 C 0.01323 0.07848 0.65563 0.0
C696 C 0.0055 0.07607 0.62317 0.0
C697 C 0.04257 0.05846 0.70416 0.0
C698 C 0.01494 0.04899 0.72291 0.0
C699 C 0.07512 0.06411 0.71845 0.0
C700 C 0.10448 0.07706 0.70008 0.0
C701 C 0.10201 0.10533 0.68181 0.0
C702 C 0.12973 0.11771 0.66477 0.0
C703 C 0.16017 0.10212 0.66586 0.0
C704 C 0.16295 0.07413 0.68408 0.0
C705 C 0.13529 0.06165 0.7012 0.0
H706 H 0.18161 0.11177 0.65265 0.0
H707 H 0.91102 0.00013 0.82119 0.0
H708 H 0.26409 0.7943 0.87921 0.0
H709 H 0.26996 0.79954 0.93725 0.0
H710 H 0.22169 0.70343 0.9471 0.0
H711 H 0.21555 0.69798 0.88971 0.0
H712 H 0.19334 0.75542 0.9834 0.0
H713 H 0.3016 0.71413 0.95465 0.0
H714 H 0.3569 0.71775 0.92883 0.0
H715 H 0.38709 0.80314 0.98428 0.0
H716 H 0.33142 0.80081 0.00961 0.0
H717 H 0.21217 0.69813 0.13799 0.0
H718 H 0.21341 0.70557 0.08072 0.0
H719 H 0.28026 0.79175 0.09383 0.0
H720 H 0.27979 0.78403 0.15131 0.0
H721 H 0.30096 0.75578 0.04608 0.0
H722 H 0.19592 0.79867 0.07411 0.0
H723 H 0.14011 0.79984 0.09894 0.0
H724 H 0.10459 0.71487 0.04514 0.0
H725 H 0.16034 0.71291 0.02033 0.0
C726 C 0.25484 0.77428 0.89379 0.0
C727 C 0.23923 0.74578 0.87985 0.0
C728 C 0.25829 0.7773 0.92686 0.0
C729 C 0.24607 0.75192 0.94632 0.0
C730 C 0.23099 0.72338 0.93242 0.0
C731 C 0.22765 0.72028 0.89957 0.0
C732 C 0.24759 0.75496 0.98128 0.0
C733 C 0.21682 0.75498 0.99711 0.0
C734 C 0.27846 0.75639 -0.00097 0.0
C735 C 0.31194 0.75768 0.98361 0.0
C736 C 0.31967 0.73413 0.96087 0.0
C737 C 0.35115 0.73593 0.94632 0.0
C738 C 0.37542 0.76078 0.95475 0.0
C739 C 0.36821 0.78397 0.97767 0.0
C740 C 0.33665 0.78247 0.99206 0.0
C741 C 0.22705 0.71875 0.12875 0.0
C742 C 0.24571 0.7406 0.14924 0.0
C743 C 0.22765 0.72305 0.09598 0.0
C744 C 0.24652 0.74952 0.08299 0.0
C745 C 0.26545 0.77122 0.10333 0.0
C746 C 0.26503 0.76682 0.13618 0.0
C747 C 0.24645 0.75421 0.04814 0.0
C748 C 0.27745 0.75606 0.03235 0.0
C749 C 0.21579 0.75476 0.03025 0.0
C750 C 0.18236 0.75558 0.04546 0.0
C751 C 0.17629 0.78009 0.06776 0.0
C752 C 0.14465 0.78092 0.0818 0.0
C753 C 0.11882 0.75743 0.07363 0.0
C754 C 0.1246 0.73304 0.05144 0.0
C755 C 0.15621 0.73208 0.03737 0.0
H756 H 0.09433 0.75815 0.08448 0.0
H757 H 0.39991 0.76191 0.94372 0.0
H758 H 0.48444 0.99897 0.37062 0.0
H759 H 0.48687 0.99759 0.31272 0.0
H760 H 0.59525 0.01796 0.31872 0.0
H761 H 0.59277 0.02049 0.37646 0.0
H762 H 0.56918 0.05484 0.27618 0.0
H763 H 0.55827 0.94061 0.29897 0.0
H764 H 0.5326 0.89043 0.32229 0.0
H765 H 0.43986 0.90299 0.27012 0.0
H766 H 0.46485 0.95347 0.24674 0.0
H767 H 0.60719 0.99635 0.11913 0.0
H768 H 0.60299 0.00599 0.17635 0.0
H769 H 0.49485 0.01191 0.16532 0.0
H770 H 0.49889 0.00317 0.10805 0.0
H771 H 0.51909 0.96339 0.20967 0.0
H772 H 0.53264 0.07639 0.18423 0.0
H773 H 0.55853 0.12729 0.16273 0.0
H774 H 0.64784 0.117 0.22063 0.0
H775 H 0.62269 0.06574 0.24225 0.0
C776 C 0.50879 0.00288 0.35955 0.0
C777 C 0.53839 0.00991 0.37798 0.0
C778 C 0.51018 0.00199 0.32649 0.0
C779 C 0.5413 0.00739 0.31138 0.0
C780 C 0.57095 0.01385 0.32985 0.0
C781 C 0.5695 0.01522 0.36283 0.0
C782 C 0.54291 0.00742 0.27631 0.0
C783 C 0.55863 0.03468 0.26162 0.0
C784 C 0.52841 0.98138 0.25736 0.0
C785 C 0.51333 0.951 0.27136 0.0
C786 C 0.53232 0.93281 0.29265 0.0
C787 C 0.51791 0.90428 0.30584 0.0
C788 C 0.48459 0.89359 0.29777 0.0
C789 C 0.46564 0.91133 0.27639 0.0
C790 C 0.47993 0.93988 0.26313 0.0
C791 C 0.5826 0.00019 0.12886 0.0
C792 C 0.55333 0.9988 0.10922 0.0
C793 C 0.58029 0.00587 0.16145 0.0
C794 C 0.54863 0.0097 0.17487 0.0
C795 C 0.5195 0.00915 0.15525 0.0
C796 C 0.52187 0.00416 0.1226 0.0
C797 C 0.5455 0.01075 0.20966 0.0
C798 C 0.52956 0.9836 0.22426 0.0
C799 C 0.56011 0.03677 0.2285 0.0
C800 C 0.57597 0.06682 0.21445 0.0
C801 C 0.55806 0.08459 0.19196 0.0
C802 C 0.57252 0.11366 0.17991 0.0
C803 C 0.60486 0.1253 0.19024 0.0
C804 C 0.62279 0.10793 0.21267 0.0
C805 C 0.60844 0.07886 0.22481 0.0
H806 H 0.61598 0.14784 0.18093 0.0
H807 H 0.47347 0.87152 0.30803 0.0
H808 H 0.36898 0.30146 0.31898 0.0
H809 H 0.42793 0.29797 0.30436 0.0
H810 H 0.39985 0.21483 0.24403 0.0
H811 H 0.34078 0.21717 0.26006 0.0
H812 H 0.45659 0.20517 0.27557 0.0
H813 H 0.41862 0.29474 0.21168 0.0
H814 H 0.39017 0.34623 0.20536 0.0
H815 H 0.46022 0.3934 0.2729 0.0
H816 H 0.48933 0.34236 0.27925 0.0
H817 H 0.61636 0.21006 0.20263 0.0
H818 H 0.55529 0.21357 0.20841 0.0
H819 H 0.57356 0.29314 0.27527 0.0
H820 H 0.63454 0.29016 0.26932 0.0
H821 H 0.52074 0.30358 0.23608 0.0
H822 H 0.55795 0.21607 0.30125 0.0
H823 H 0.58659 0.16523 0.3107 0.0
H824 H 0.51785 0.11408 0.24464 0.0
H825 H 0.48914 0.16481 0.23436 0.0
C826 C 0.37531 0.28254 0.30244 0.0
C827 C 0.35029 0.2598 0.29034 0.0
C828 C 0.40902 0.28065 0.29399 0.0
C829 C 0.41822 0.25667 0.27241 0.0
C830 C 0.3933 0.23367 0.26054 0.0
C831 C 0.3596 0.2351 0.26959 0.0
C832 C 0.45393 0.25559 0.26254 0.0
C833 C 0.47041 0.22649 0.26631 0.0
C834 C 0.47227 0.28361 0.25121 0.0
C835 C 0.45604 0.31476 0.24599 0.0
C836 C 0.42802 0.31617 0.22504 0.0
C837 C 0.4118 0.34527 0.22144 0.0
C838 C 0.42334 0.37307 0.23877 0.0
C839 C 0.45128 0.37187 0.25953 0.0
C840 C 0.46784 0.34296 0.26291 0.0
C841 C 0.60738 0.22862 0.21821 0.0
C842 C 0.63029 0.24965 0.23574 0.0
C843 C 0.57249 0.23049 0.22158 0.0
C844 C 0.55997 0.25327 0.24266 0.0
C845 C 0.58273 0.27532 0.25896 0.0
C846 C 0.61758 0.27351 0.25559 0.0
C847 C 0.52333 0.25318 0.24907 0.0
C848 C 0.50674 0.28209 0.24478 0.0
C849 C 0.50499 0.22502 0.26008 0.0
C850 C 0.52166 0.19432 0.26676 0.0
C851 C 0.5491 0.19404 0.28856 0.0
C852 C 0.56534 0.16525 0.29406 0.0
C853 C 0.55416 0.1365 0.27813 0.0
C854 C 0.52656 0.13642 0.25684 0.0
C855 C 0.51028 0.16517 0.25118 0.0
H856 H 0.56685 0.1143 0.28237 0.0
H857 H 0.41067 0.39554 0.23606 0.0
H858 H 0.95169 0.38328 0.45597 0.0
H859 H 0.93963 0.32506 0.44478 0.0
H860 H 0.04297 0.30655 0.47009 0.0
H861 H 0.05541 0.36446 0.48082 0.0
H862 H 0.02134 0.27255 0.41761 0.0
H863 H 0.97846 0.29716 0.5214 0.0
H864 H 0.94225 0.32417 0.55914 0.0
H865 H 0.85328 0.2819 0.51085 0.0
H866 H 0.88893 0.25558 0.47203 0.0
H867 H 0.02875 0.11427 0.47572 0.0
H868 H 0.02906 0.17233 0.46461 0.0
H869 H 0.92238 0.16248 0.44006 0.0
H870 H 0.92173 0.10414 0.45148 0.0
H871 H 0.9364 0.21108 0.48215 0.0
H872 H 0.9791 0.18035 0.3829 0.0
H873 H 0.01519 0.15228 0.34581 0.0
H874 H 0.10369 0.20406 0.38611 0.0
H875 H 0.06821 0.2321 0.42379 0.0
C876 C 0.9719 0.36683 0.45893 0.0
C877 C 0.00447 0.37843 0.46949 0.0
C878 C 0.96492 0.33362 0.45257 0.0
C879 C 0.99032 0.31154 0.45687 0.0
C880 C 0.02303 0.32322 0.46657 0.0
C881 C 0.03003 0.35632 0.47287 0.0
C882 C 0.98292 0.27602 0.45267 0.0
C883 C 0.00282 0.25905 0.43174 0.0
C884 C 0.95783 0.25864 0.47029 0.0
C885 C 0.9364 0.27489 0.4934 0.0
C886 C 0.95117 0.29405 0.51847 0.0
C887 C 0.93073 0.30925 0.54006 0.0
C888 C 0.89546 0.30502 0.53718 0.0
C889 C 0.88058 0.28546 0.51279 0.0
C890 C 0.90089 0.27047 0.49095 0.0
C891 C 0.00542 0.12429 0.46751 0.0
C892 C 0.97518 0.10462 0.46463 0.0
C893 C 0.00569 0.15749 0.46096 0.0
C894 C 0.97579 0.17167 0.45124 0.0
C895 C 0.94574 0.15195 0.44743 0.0
C896 C 0.94546 0.11864 0.45391 0.0
C897 C 0.97568 0.20749 0.44792 0.0
C898 C 0.95435 0.22457 0.46741 0.0
C899 C -0.00059 0.22498 0.42898 0.0
C900 C 0.02095 0.20823 0.40631 0.0
C901 C 0.00628 0.18559 0.38402 0.0
C902 C 0.02663 0.16971 0.36286 0.0
C903 C 0.06171 0.17636 0.36363 0.0
C904 C 0.07651 0.19894 0.38554 0.0
C905 C 0.05627 0.21488 0.40677 0.0
H906 H 0.07743 0.16403 0.34722 0.0
H907 H 0.87967 0.31671 0.55397 0.0
H908 H 0.84776 0.8181 0.71746 0.0
H909 H 0.90916 0.81367 0.71936 0.0
H910 H 0.8988 0.74465 0.79549 0.0
H911 H 0.8375 0.74928 0.79409 0.0
H912 H 0.94858 0.79017 0.80849 0.0
H913 H 0.91472 0.72001 0.71986 0.0
H914 H 0.88696 0.70591 0.66819 0.0
H915 H 0.94943 0.78026 0.62332 0.0
H916 H 0.97727 0.79509 0.67484 0.0
H917 H 0.10502 0.71611 0.80597 0.0
H918 H 0.045 0.72628 0.79992 0.0
H919 H 0.06962 0.80505 0.73603 0.0
H920 H 0.13011 0.79536 0.74233 0.0
H921 H 0.01415 0.75894 0.71511 0.0
H922 H 0.04849 0.82849 0.80292 0.0
H923 H 0.0769 0.84258 0.85428 0.0
H924 H 0.01396 0.76916 0.90001 0.0
H925 H 0.98535 0.7545 0.84887 0.0
C926 C 0.85852 0.80184 0.73449 0.0
C927 C 0.83774 0.78401 0.7556 0.0
C928 C 0.89361 0.79927 0.73548 0.0
C929 C 0.90851 0.77864 0.7574 0.0
C930 C 0.88781 0.76073 0.7784 0.0
C931 C 0.85277 0.76333 0.77749 0.0
C932 C 0.94576 0.77619 0.75905 0.0
C933 C 0.9628 0.783 0.78813 0.0
C934 C 0.9645 0.76779 0.73225 0.0
C935 C 0.94781 0.75889 0.70126 0.0
C936 C 0.92234 0.73354 0.69902 0.0
C937 C 0.90663 0.72538 0.66975 0.0
C938 C 0.91635 0.74224 0.6425 0.0
C939 C 0.94188 0.76725 0.64446 0.0
C940 C 0.95765 0.77553 0.67368 0.0
C941 C 0.09772 0.73559 0.79058 0.0
C942 C 0.12225 0.75497 0.77463 0.0
C943 C 0.06345 0.7414 0.78723 0.0
C944 C 0.05302 0.76645 0.76762 0.0
C945 C 0.0773 0.7856 0.75126 0.0
C946 C 0.11175 0.78013 0.75499 0.0
C947 C 0.01662 0.77247 0.76457 0.0
C948 C -0.00019 0.76633 0.73532 0.0
C949 C 0.99803 0.78148 0.79115 0.0
C950 C 0.015 0.79022 0.82203 0.0
C951 C 0.04089 0.81519 0.8239 0.0
C952 C 0.05698 0.82333 0.85298 0.0
C953 C 0.04734 0.80673 0.88037 0.0
C954 C 0.02148 0.782 0.87879 0.0
C955 C 0.00524 0.77382 0.84976 0.0
H956 H 0.05988 0.81321 0.90277 0.0
H957 H 0.90417 0.73589 0.61986 0.0
H958 H 0.45519 0.61428 0.05701 0.0
H959 H 0.45982 0.67353 0.05183 0.0
H960 H 0.51756 0.66385 0.96699 0.0
H961 H 0.51378 0.60462 0.97245 0.0
H962 H 0.54567 0.71028 0.00467 0.0
H963 H 0.43203 0.67925 0.96654 0.0
H964 H 0.37406 0.65421 0.97032 0.0
H965 H 0.35484 0.71843 0.04787 0.0
H966 H 0.413 0.74327 0.04517 0.0
H967 H 0.5387 0.86908 0.94502 0.0
H968 H 0.52925 0.81013 0.95051 0.0
H969 H 0.47556 0.82455 0.03695 0.0
H970 H 0.48462 0.88359 0.03154 0.0
H971 H 0.4446 0.77627 0.00015 0.0
H972 H 0.55646 0.80467 0.04173 0.0
H973 H 0.61408 0.8311 0.04019 0.0
H974 H 0.63569 0.77281 0.95894 0.0
H975 H 0.57816 0.74618 0.95987 0.0
C976 C 0.4689 0.62476 0.03725 0.0
C977 C 0.48405 0.60477 0.01508 0.0
C978 C 0.47136 0.65862 0.03424 0.0
C979 C 0.48857 0.67308 0.00875 0.0
C980 C 0.50405 0.65318 0.98679 0.0
C981 C 0.50185 0.61934 0.98993 0.0
C982 C 0.4911 0.70897 0.00515 0.0
C983 C 0.52351 0.72461 0.00322 0.0
C984 C 0.46219 0.72781 0.00438 0.0
C985 C 0.42713 0.71282 0.00593 0.0
C986 C 0.41563 0.68774 0.98469 0.0
C987 C 0.38273 0.67354 0.98668 0.0
C988 C 0.36088 0.68455 0.00949 0.0
C989 C 0.37188 0.70977 0.03037 0.0
C990 C 0.40483 0.72388 0.02864 0.0
C991 C 0.5246 0.85977 0.96505 0.0
C992 C 0.51266 0.88103 0.98799 0.0
C993 C 0.51935 0.82606 0.96821 0.0
C994 C 0.50218 0.81301 0.99441 0.0
C995 C 0.489 0.83416 0.01664 0.0
C996 C 0.49428 0.86788 0.01353 0.0
C997 C 0.49905 0.77731 -0.00085 0.0
C998 C 0.46664 0.7618 0.00147 0.0
C999 C 0.52789 0.75853 0.00065 0.0
C1000 C 0.56285 0.77378 0.0006 0.0
C1001 C 0.57346 0.79762 0.02344 0.0
C1002 C 0.6061 0.8126 0.0227 0.0
C1003 C 0.62839 0.80384 -0.00069 0.0
C1004 C 0.61833 0.77968 0.97694 0.0
C1005 C 0.58574 0.76458 0.97761 0.0
H1006 H 0.6534 0.81582 0.99851 0.0
H1007 H 0.33528 0.67382 0.01075 0.0
H1008 H 0.61785 0.7125 0.27986 0.0
H1009 H 0.5595 0.69516 0.29317 0.0
H1010 H 0.5278 0.79129 0.27127 0.0
H1011 H 0.58569 0.80886 0.25868 0.0
H1012 H 0.49957 0.7706 0.32344 0.0
H1013 H 0.51944 0.72631 0.2201 0.0
H1014 H 0.54626 0.69272 0.18022 0.0
H1015 H 0.5141 0.60588 0.22969 0.0
H1016 H 0.48772 0.63906 0.27033 0.0
H1017 H 0.32919 0.75348 0.26863 0.0
H1018 H 0.39058 0.76154 0.27607 0.0
H1019 H 0.39375 0.66656 0.31831 0.0
H1020 H 0.332 0.65846 0.31141 0.0
H1021 H 0.43777 0.67903 0.26534 0.0
H1022 H 0.41131 0.72672 0.36518 0.0
H1023 H 0.38182 0.76295 0.40082 0.0
H1024 H 0.42271 0.84663 0.35122 0.0
H1025 H 0.45201 0.81087 0.31496 0.0
C1026 C 0.59841 0.72992 0.27804 0.0
C1027 C 0.60632 0.76201 0.26811 0.0
C1028 C 0.56513 0.71997 0.28559 0.0
C1029 C 0.53931 0.7419 0.28301 0.0
C1030 C 0.54735 0.77401 0.27356 0.0
C1031 C 0.58048 0.78398 0.26622 0.0
C1032 C 0.50358 0.73171 0.28933 0.0
C1033 C 0.48607 0.75056 0.31071 0.0
C1034 C 0.48618 0.70509 0.27318 0.0
C1035 C 0.50243 0.68524 0.24884 0.0
C1036 C 0.51861 0.7001 0.22285 0.0
C1037 C 0.53364 0.68112 0.20002 0.0
C1038 C 0.5322 0.6472 0.2026 0.0
C1039 C 0.51551 0.63218 0.22791 0.0
C1040 C 0.5006 0.65106 0.25089 0.0
C1041 C 0.34288 0.73451 0.27995 0.0
C1042 C 0.32593 0.70531 0.28936 0.0
C1043 C 0.37787 0.7392 0.2843 0.0
C1044 C 0.39651 0.71467 0.29783 0.0
C1045 C 0.37963 0.68578 0.30796 0.0
C1046 C 0.34445 0.68127 0.30409 0.0
C1047 C 0.43385 0.71846 0.29871 0.0
C1048 C 0.45159 0.69848 0.27865 0.0
C1049 C 0.45133 0.74448 0.31542 0.0
C1050 C 0.43373 0.76606 0.33724 0.0
C1051 C 0.41381 0.75282 0.36171 0.0
C1052 C 0.39716 0.77329 0.38205 0.0
C1053 C 0.40036 0.80707 0.37826 0.0
C1054 C 0.42025 0.82046 0.35414 0.0
C1055 C 0.43693 0.8001 0.33371 0.0
H1056 H 0.38745 0.82286 0.39405 0.0
H1057 H 0.54378 0.63254 0.18487 0.0
H1058 H 0.47598 0.10862 0.46644 0.0
H1059 H 0.46851 0.16694 0.46269 0.0
H1060 H 0.57185 0.18759 0.49517 0.0
H1061 H 0.57966 0.12911 0.49897 0.0
H1062 H 0.52872 0.22313 0.52703 0.0
H1063 H 0.55031 0.19912 0.41917 0.0
H1064 H 0.54443 0.17216 0.36671 0.0
H1065 H 0.4423 0.20145 0.35716 0.0
H1066 H 0.44729 0.22807 0.40985 0.0
H1067 H 0.53134 0.39309 0.49142 0.0
H1068 H 0.54306 0.33543 0.49354 0.0
H1069 H 0.43908 0.30884 0.46674 0.0
H1070 H 0.42709 0.3665 0.46441 0.0
H1071 H 0.48579 0.27725 0.4308 0.0
H1072 H 0.46573 0.29939 0.54165 0.0
H1073 H 0.47535 0.32874 0.59262 0.0
H1074 H 0.57959 0.30464 0.59413 0.0
H1075 H 0.57064 0.27551 0.54291 0.0
C1076 C 0.49715 0.12553 0.47284 0.0
C1077 C 0.52839 0.11423 0.48315 0.0
C1078 C 0.4929 0.15889 0.47044 0.0
C1079 C 0.51973 0.18159 0.47841 0.0
C1080 C 0.55089 0.17042 0.48884 0.0
C1081 C 0.55527 0.13702 0.49103 0.0
C1082 C 0.51462 0.21696 0.47758 0.0
C1083 C 0.5198 0.23506 0.50584 0.0
C1084 C 0.50266 0.23239 0.44998 0.0
C1085 C 0.49907 0.2153 0.41873 0.0
C1086 C 0.52641 0.19942 0.40613 0.0
C1087 C 0.52328 0.18429 0.37628 0.0
C1088 C 0.49298 0.18501 0.35866 0.0
C1089 C 0.46573 0.20083 0.37088 0.0
C1090 C 0.4687 0.21594 0.40076 0.0
C1091 C 0.51086 0.37501 0.48626 0.0
C1092 C 0.47827 0.38439 0.47772 0.0
C1093 C 0.51761 0.34207 0.48753 0.0
C1094 C 0.49191 0.31794 0.48035 0.0
C1095 C 0.45925 0.32716 0.47229 0.0
C1096 C 0.45243 0.36011 0.47113 0.0
C1097 C 0.49936 0.28309 0.48032 0.0
C1098 C 0.49474 0.26519 0.4519 0.0
C1099 C 0.51231 0.26792 0.50759 0.0
C1100 C 0.51759 0.28548 0.53835 0.0
C1101 C 0.49075 0.30054 0.55273 0.0
C1102 C 0.49607 0.31711 0.58169 0.0
C1103 C 0.52808 0.31861 0.59658 0.0
C1104 C 0.55482 0.30349 0.58257 0.0
C1105 C 0.54963 0.28692 0.55361 0.0
H1106 H 0.53214 0.33145 0.619 0.0
H1107 H 0.49065 0.17338 0.3355 0.0
H1108 H 0.15773 0.2538 0.79492 0.0
H1109 H 0.09582 0.24911 0.79818 0.0
H1110 H 0.08682 0.25788 0.69656 0.0
H1111 H 0.14844 0.2622 0.69296 0.0
H1112 H 0.05119 0.30316 0.73154 0.0
H1113 H 0.06697 0.18837 0.72674 0.0
H1114 H 0.09083 0.13707 0.74354 0.0
H1115 H 0.0457 0.14566 0.83459 0.0
H1116 H 0.0223 0.19757 0.81872 0.0
H1117 H 0.8748 0.27441 0.7064 0.0
H1118 H 0.93641 0.27468 0.70606 0.0
H1119 H 0.93819 0.2479 0.80478 0.0
H1120 H 0.87624 0.2466 0.80502 0.0
H1121 H 0.97821 0.21175 0.7732 0.0
H1122 H 0.96334 0.32663 0.7791 0.0
H1123 H 0.94256 0.37995 0.76426 0.0
H1124 H 0.98702 0.37217 0.67274 0.0
H1125 H 0.00769 0.31864 0.68687 0.0
C1126 C 0.14256 0.25429 0.77324 0.0
C1127 C 0.15795 0.25869 0.74372 0.0
C1128 C 0.10725 0.25147 0.77514 0.0
C1129 C 0.0869 0.25322 0.7476 0.0
C1130 C 0.10219 0.25654 0.71806 0.0
C1131 C 0.13741 0.25898 0.71608 0.0
C1132 C 0.04976 0.25438 0.74972 0.0
C1133 C 0.03507 0.28305 0.74025 0.0
C1134 C 0.02918 0.22844 0.7621 0.0
C1135 C 0.04326 0.19718 0.77167 0.0
C1136 C 0.06245 0.17958 0.75049 0.0
C1137 C 0.07581 0.15032 0.75981 0.0
C1138 C 0.06986 0.13817 0.79012 0.0
C1139 C 0.05038 0.15518 0.81115 0.0
C1140 C 0.03709 0.18454 0.80201 0.0
C1141 C 0.88826 0.26891 0.72816 0.0
C1142 C 0.87062 0.26051 0.75577 0.0
C1143 C 0.92356 0.26921 0.72796 0.0
C1144 C 0.942 0.26169 0.7555 0.0
C1145 C 0.92448 0.2538 0.78325 0.0
C1146 C 0.8891 0.25318 0.78339 0.0
C1147 C 0.97941 0.26061 0.75483 0.0
C1148 C 0.99423 0.23197 0.76459 0.0
C1149 C 0.00024 0.2867 0.74288 0.0
C1150 C 0.98681 0.31844 0.73397 0.0
C1151 C 0.96835 0.3361 0.75568 0.0
C1152 C 0.95666 0.36642 0.74742 0.0
C1153 C 0.96342 0.3794 0.71755 0.0
C1154 C 0.98177 0.36207 0.69585 0.0
C1155 C 0.99349 0.33176 0.70399 0.0
H1156 H 0.95456 0.40293 0.71123 0.0
H1157 H 0.08038 0.11562 0.79734 0.0
H1158 H 0.97884 0.879 0.91818 0.0
H1159 H 0.98 0.82106 0.92976 0.0
H1160 H 0.0653 0.84071 0.99404 0.0
H1161 H 0.06412 0.89915 0.98286 0.0
H1162 H 0.07187 0.78689 0.95204 0.0
H1163 H 0.99203 0.82528 0.02544 0.0
H1164 H 0.94231 0.85384 0.04252 0.0
H1165 H 0.87748 0.79193 0.98166 0.0
H1166 H 0.92687 0.76329 0.96384 0.0
H1167 H 0.06039 0.6254 0.00916 0.0
H1168 H 0.06273 0.68491 0.00712 0.0
H1169 H 0.9704 0.68067 0.95038 0.0
H1170 H 0.96773 0.62117 0.95237 0.0
H1171 H 0.97003 0.7279 0.99505 0.0
H1172 H 0.0432 0.69647 0.91386 0.0
H1173 H 0.08916 0.667 0.89022 0.0
H1174 H 0.16105 0.71441 0.95572 0.0
H1175 H 0.1156 0.74465 0.97949 0.0
C1176 C 0.99799 0.87109 0.93468 0.0
C1177 C 0.02129 0.89371 0.94974 0.0
C1178 C 0.99846 0.83798 0.94142 0.0
C1179 C 0.02238 0.82675 0.96312 0.0
C1180 C 0.04648 0.84902 0.9774 0.0
C1181 C 0.04577 0.88233 0.97097 0.0
C1182 C 0.02204 0.79161 0.97052 0.0
C1183 C 0.04983 0.77407 0.9619 0.0
C1184 C 0.99294 0.77484 0.98273 0.0
C1185 C 0.96322 0.79225 0.99317 0.0
C1186 C 0.96722 0.81794 0.01548 0.0
C1187 C 0.93909 0.83411 0.02533 0.0
C1188 C 0.90677 0.82468 0.01319 0.0
C1189 C 0.90253 0.79917 0.99107 0.0
C1190 C 0.93058 0.78294 0.98111 0.0
C1191 C 0.0404 0.63711 0.99648 0.0
C1192 C 0.01392 0.61854 0.98083 0.0
C1193 C 0.04188 0.67112 0.99523 0.0
C1194 C 0.01692 0.68717 0.97835 0.0
C1195 C 0.98991 0.66875 0.96354 0.0
C1196 C 0.98848 0.63475 0.96465 0.0
C1197 C 0.01936 0.72313 0.97551 0.0
C1198 C 0.9921 0.7408 0.98527 0.0
C1199 C 0.04836 0.73994 0.96319 0.0
C1200 C 0.07596 0.72235 0.94882 0.0
C1201 C 0.06882 0.70049 0.92334 0.0
C1202 C 0.0948 0.68382 0.90979 0.0
C1203 C 0.12805 0.68887 0.9215 0.0
C1204 C 0.13537 0.71073 0.94663 0.0
C1205 C 0.10953 0.72768 0.96011 0.0
H1206 H 0.14816 0.67589 0.91108 0.0
H1207 H 0.885 0.83704 0.02101 0.0
H1208 H 0.19578 0.32722 0.29219 0.0
H1209 H 0.19223 0.38421 0.27702 0.0
H1210 H 0.26191 0.41375 0.35371 0.0
H1211 H 0.26405 0.35709 0.36994 0.0
H1212 H 0.22056 0.45733 0.34818 0.0
H1213 H 0.28751 0.40341 0.27436 0.0
H1214 H 0.30159 0.36124 0.23563 0.0
H1215 H 0.21981 0.38783 0.17425 0.0
H1216 H 0.20499 0.42991 0.21283 0.0
H1217 H 0.28252 0.58975 0.22717 0.0
H1218 H 0.2804 0.53364 0.24573 0.0
H1219 H 0.18535 0.54809 0.29063 0.0
H1220 H 0.18772 0.60458 0.27277 0.0
H1221 H 0.24097 0.48291 0.23538 0.0
H1222 H 0.1802 0.50477 0.35906 0.0
H1223 H 0.18171 0.54784 0.4004 0.0
H1224 H 0.27753 0.58669 0.36732 0.0
H1225 H 0.27676 0.54391 0.32596 0.0
C1226 C 0.2099 0.34597 0.30608 0.0
C1227 C 0.23043 0.33772 0.33205 0.0
C1228 C 0.20807 0.37851 0.29727 0.0
C1229 C 0.22756 0.40327 0.31364 0.0
C1230 C 0.24677 0.39515 0.34054 0.0
C1231 C 0.24801 0.3627 0.3498 0.0
C1232 C 0.22924 0.43734 0.30197 0.0
C1233 C 0.22503 0.46289 0.32357 0.0
C1234 C 0.23612 0.44481 0.26993 0.0
C1235 C 0.24492 0.41956 0.24663 0.0
C1236 C 0.27238 0.4001 0.2527 0.0
C1237 C 0.28052 0.37624 0.23077 0.0
C1238 C 0.26154 0.37179 0.20254 0.0
C1239 C 0.23445 0.39126 0.19616 0.0
C1240 C 0.22618 0.41514 0.21803 0.0
C1241 C 0.26105 0.58097 0.24086 0.0
C1242 C 0.23532 0.60166 0.24857 0.0
C1243 C 0.25987 0.54885 0.25143 0.0
C1244 C 0.23292 0.53673 0.26988 0.0
C1245 C 0.20672 0.55708 0.27691 0.0
C1246 C 0.20799 0.5893 0.26651 0.0
C1247 C 0.23228 0.50282 0.28174 0.0
C1248 C 0.23651 0.47733 0.26008 0.0
C1249 C 0.22766 0.49555 0.31417 0.0
C1250 C 0.2281 0.52143 0.33903 0.0
C1251 C 0.20159 0.5225 0.36061 0.0
C1252 C 0.20236 0.54681 0.3841 0.0
C1253 C 0.22969 0.56992 0.38651 0.0
C1254 C 0.25633 0.56881 0.36542 0.0
C1255 C 0.25567 0.54463 0.34186 0.0
H1256 H 0.23025 0.58866 0.40476 0.0
H1257 H 0.26787 0.35331 0.18559 0.0
H1258 H 0.68568 0.14387 0.70051 0.0
H1259 H 0.68439 0.08502 0.70956 0.0
H1260 H 0.77234 0.09863 0.77183 0.0
H1261 H 0.77427 0.15708 0.76237 0.0
H1262 H 0.78008 0.05057 0.7317 0.0
H1263 H 0.69196 0.08346 0.79898 0.0
H1264 H 0.63888 0.10824 0.8127 0.0
H1265 H 0.58274 0.04143 0.7495 0.0
H1266 H 0.63559 0.01652 0.73506 0.0
H1267 H 0.77729 0.89974 0.81062 0.0
H1268 H 0.77293 0.95747 0.79909 0.0
H1269 H 0.69406 0.93305 0.72908 0.0
H1270 H 0.69823 0.87504 0.74043 0.0
H1271 H 0.67995 0.98524 0.77012 0.0
H1272 H 0.76894 0.95222 0.70368 0.0
H1273 H 0.82232 0.92706 0.6916 0.0
H1274 H 0.87702 0.99445 0.75525 0.0
H1275 H 0.82387 0.01972 0.76808 0.0
C1276 C 0.7046 0.1343 0.71625 0.0
C1277 C 0.73014 0.15507 0.73063 0.0
C1278 C 0.70378 0.1007 0.72147 0.0
C1279 C 0.72819 0.08748 0.74149 0.0
C1280 C 0.75336 0.10829 0.75617 0.0
C1281 C 0.75437 0.14172 0.75078 0.0
C1282 C 0.72836 0.05188 0.74659 0.0
C1283 C 0.75827 0.03639 0.74043 0.0
C1284 C 0.69962 0.03323 0.7572 0.0
C1285 C 0.66782 0.04834 0.76569 0.0
C1286 C 0.66835 0.07424 0.78778 0.0
C1287 C 0.63829 0.08827 0.79573 0.0
C1288 C 0.60746 0.07648 0.78192 0.0
C1289 C 0.60664 0.05058 0.76015 0.0
C1290 C 0.63664 0.03648 0.75209 0.0
C1291 C 0.75897 0.90659 0.79279 0.0
C1292 C 0.7382 0.88283 0.77632 0.0
C1293 C 0.75658 0.93957 0.78621 0.0
C1294 C 0.73337 0.94937 0.76309 0.0
C1295 C 0.71214 0.92584 0.74699 0.0
C1296 C 0.71466 0.89277 0.75341 0.0
C1297 C 0.7317 0.98427 0.75556 0.0
C1298 C 0.7016 -0.00047 0.76123 0.0
C1299 C 0.7603 0.00281 0.74468 0.0
C1300 C 0.79235 0.98767 0.73703 0.0
C1301 C 0.79231 0.9615 0.71529 0.0
C1302 C 0.82253 0.94726 0.70827 0.0
C1303 C 0.85303 0.95911 0.7227 0.0
C1304 C 0.85337 0.98527 0.74413 0.0
C1305 C 0.8232 -0.00041 0.75126 0.0
H1306 H 0.8764 0.94805 0.71724 0.0
H1307 H 0.58421 0.08736 0.78813 0.0
H1308 H 0.38869 0.50572 0.9578 0.0
H1309 H 0.32828 0.50902 0.94654 0.0
H1310 H 0.30526 0.44219 0.02236 0.0
H1311 H 0.36599 0.4386 0.03389 0.0
H1312 H 0.26311 0.43146 0.96722 0.0
H1313 H 0.30128 0.51838 0.03813 0.0
H1314 H 0.33971 0.56461 0.0562 0.0
H1315 H 0.31434 0.6179 0.97275 0.0
H1316 H 0.27618 0.57167 0.95386 0.0
H1317 H 0.09237 0.47519 0.9857 0.0
H1318 H 0.15176 0.4636 0.99482 0.0
H1319 H 0.18195 0.53494 0.92493 0.0
H1320 H 0.12276 0.54687 0.91583 0.0
H1321 H 0.22026 0.54199 0.97884 0.0
H1322 H 0.18228 0.45473 0.90767 0.0
H1323 H 0.14518 0.40776 0.88899 0.0
H1324 H 0.17011 0.35505 0.97294 0.0
H1325 H 0.20704 0.40191 0.99233 0.0
C1326 C 0.37089 0.49137 0.97191 0.0
C1327 C 0.38215 0.47219 0.99703 0.0
C1328 C 0.33636 0.49333 0.96542 0.0
C1329 C 0.31241 0.47622 0.98393 0.0
C1330 C 0.32345 0.45564 0.0079 0.0
C1331 C 0.35811 0.45371 0.0145 0.0
C1332 C 0.276 0.48171 0.97947 0.0
C1333 C 0.25355 0.45549 0.97017 0.0
C1334 C 0.26385 0.51322 0.98286 0.0
C1335 C 0.28614 0.54141 0.99443 0.0
C1336 C 0.30407 0.53986 0.02352 0.0
C1337 C 0.32579 0.56606 0.03391 0.0
C1338 C 0.32957 0.5941 0.01558 0.0
C1339 C 0.31146 0.59611 0.98688 0.0
C1340 C 0.28975 0.56991 0.97632 0.0
C1341 C 0.11164 0.48834 0.97219 0.0
C1342 C 0.10286 0.51195 0.95003 0.0
C1343 C 0.14553 0.48159 0.97734 0.0
C1344 C 0.17119 0.49824 0.96036 0.0
C1345 C 0.1625 0.52181 0.93826 0.0
C1346 C 0.12865 0.52853 0.93305 0.0
C1347 C 0.20724 0.49179 0.96622 0.0
C1348 C 0.22968 0.5179 0.9759 0.0
C1349 C 0.2193 0.46017 0.96321 0.0
C1350 C 0.19714 0.43196 0.9516 0.0
C1351 C 0.17962 0.43323 0.92228 0.0
C1352 C 0.15867 0.40661 0.91153 0.0
C1353 C 0.15521 0.37847 0.92981 0.0
C1354 C 0.17277 0.37688 0.95883 0.0
C1355 C 0.19374 0.40345 0.96969 0.0
H1356 H 0.13899 0.35788 0.92145 0.0
H1357 H 0.34652 0.61426 0.02367 0.0
H1358 H 0.76545 0.1474 0.24306 0.0
H1359 H 0.76691 0.08815 0.24094 0.0
H1360 H 0.67099 0.07875 0.28791 0.0
H1361 H 0.66993 0.13809 0.29102 0.0
H1362 H 0.71086 0.03817 0.3128 0.0
H1363 H 0.67674 0.06019 0.20747 0.0
H1364 H 0.67714 0.08757 0.15569 0.0
H1365 H 0.77655 0.05524 0.13881 0.0
H1366 H 0.77681 0.02808 0.19077 0.0
H1367 H 0.68831 0.86784 0.27575 0.0
H1368 H 0.68278 0.92641 0.28056 0.0
H1369 H 0.78273 0.94417 0.24301 0.0
H1370 H 0.78817 0.88541 0.23733 0.0
H1371 H 0.73661 0.97978 0.21353 0.0
H1372 H 0.76496 0.95493 0.32352 0.0
H1373 H 0.75585 0.92523 0.37345 0.0
H1374 H 0.65606 0.96045 0.37907 0.0
H1375 H 0.66438 0.99003 0.32893 0.0
C1376 C 0.74458 0.13272 0.25278 0.0
C1377 C 0.71761 0.14739 0.26722 0.0
C1378 C 0.74535 0.09883 0.25142 0.0
C1379 C 0.71884 0.07894 0.2639 0.0
C1380 C 0.69176 0.09357 0.27817 0.0
C1381 C 0.69117 0.12749 0.27988 0.0
C1382 C 0.72 0.04293 0.26277 0.0
C1383 C 0.71604 0.02536 0.29099 0.0
C1384 C 0.72673 0.02613 0.23437 0.0
C1385 C 0.72691 0.04248 0.20315 0.0
C1386 C 0.69878 0.05925 0.19284 0.0
C1387 C 0.69887 0.07464 0.16343 0.0
C1388 C 0.72692 0.07324 0.144 0.0
C1389 C 0.75487 0.05636 0.15392 0.0
C1390 C 0.75489 0.04093 0.18334 0.0
C1391 C 0.70933 0.88415 0.26884 0.0
C1392 C 0.73872 0.87197 0.25611 0.0
C1393 C 0.70614 0.91767 0.27174 0.0
C1394 C 0.73247 0.93964 0.26244 0.0
C1395 C 0.76212 0.92757 0.25036 0.0
C1396 C 0.76524 0.89402 0.24721 0.0
C1397 C 0.72841 0.97522 0.26365 0.0
C1398 C 0.73157 0.99267 0.23534 0.0
C1399 C 0.71987 0.99164 0.29177 0.0
C1400 C 0.71519 0.9744 0.32227 0.0
C1401 C 0.74099 0.95614 0.33527 0.0
C1402 C 0.73595 0.93931 0.3636 0.0
C1403 C 0.70529 0.94071 0.37926 0.0
C1404 C 0.67969 0.95918 0.36677 0.0
C1405 C 0.68459 0.97604 0.33844 0.0
H1406 H 0.70148 0.9277 0.40119 0.0
H1407 H 0.72695 0.08516 0.12122 0.0
H1408 H 0.9176 0.00863 0.99157 0.0
H1409 H 0.85629 0.00473 0.99727 0.0
H1410 H 0.84316 0.979 0.89807 0.0
H1411 H 0.90463 0.98406 0.89195 0.0
H1412 H 0.79862 0.01915 0.9122 0.0
H1413 H 0.8331 0.92274 0.95718 0.0
H1414 H 0.86459 0.88517 0.99 0.0
H1415 H 0.82729 0.92831 0.07447 0.0
H1416 H 0.79585 0.96657 0.04214 0.0
H1417 H 0.62237 0.9726 0.95018 0.0
H1418 H 0.68111 0.96677 0.93437 0.0
H1419 H 0.7169 0.02734 0.01365 0.0
H1420 H 0.65843 0.03394 0.02921 0.0
H1421 H 0.74684 0.96062 0.00311 0.0
H1422 H 0.71939 0.06274 0.95133 0.0
H1423 H 0.68477 0.09421 0.91475 0.0
H1424 H 0.70672 0.03012 0.83785 0.0
H1425 H 0.74106 0.99792 0.87416 0.0
C1426 C 0.90168 0.00215 0.97096 0.0
C1427 C 0.91593 0.99655 0.94135 0.0
C1428 C 0.86661 -0.0003 0.97428 0.0
C1429 C 0.84509 0.99091 0.94824 0.0
C1430 C 0.85925 0.98568 0.91852 0.0
C1431 C 0.89438 0.98857 0.91508 0.0
C1432 C 0.80783 0.98813 0.95213 0.0
C1433 C 0.78731 0.00581 0.93175 0.0
C1434 C 0.79284 0.9704 0.97739 0.0
C1435 C 0.81216 0.94774 0.99713 0.0
C1436 C 0.83177 0.92447 0.98275 0.0
C1437 C 0.84959 0.90295 0.0013 0.0
C1438 C 0.84798 0.90435 0.03433 0.0
C1439 C 0.8285 0.92725 0.04887 0.0
C1440 C 0.81061 0.94883 0.03042 0.0
C1441 C 0.64278 0.98485 0.96409 0.0
C1442 C 0.63588 0.00383 0.99087 0.0
C1443 C 0.67619 0.98147 0.95504 0.0
C1444 C 0.70309 0.9966 0.97293 0.0
C1445 C 0.69632 0.01549 -0.00036 0.0
C1446 C 0.66296 0.01938 0.00836 0.0
C1447 C 0.73851 0.99272 0.96415 0.0
C1448 C 0.75845 0.97357 0.98346 0.0
C1449 C 0.75273 0.00815 0.93738 0.0
C1450 C 0.73236 0.02766 0.91555 0.0
C1451 C 0.71653 0.05514 0.9267 0.0
C1452 C 0.69703 0.07316 0.90601 0.0
C1453 C 0.69342 0.06408 0.87405 0.0
C1454 C 0.70945 0.03706 0.86265 0.0
C1455 C 0.72894 0.01893 0.88327 0.0
H1456 H 0.67825 0.07807 0.85817 0.0
H1457 H 0.86182 0.88769 0.04867 0.0
H1458 H 0.22082 0.66114 0.73498 0.0
H1459 H 0.21995 0.60201 0.72805 0.0
H1460 H 0.30404 0.59823 0.79471 0.0
H1461 H 0.30574 0.65746 0.80097 0.0
H1462 H 0.31247 0.55854 0.74724 0.0
H1463 H 0.21988 0.57891 0.81525 0.0
H1464 H 0.16704 0.60291 0.8311 0.0
H1465 H 0.11432 0.55773 0.75053 0.0
H1466 H 0.16699 0.53387 0.73388 0.0
H1467 H 0.29288 0.39027 0.78564 0.0
H1468 H 0.2954 0.4499 0.78802 0.0
H1469 H 0.21817 0.451 0.7142 0.0
H1470 H 0.21538 0.39149 0.7117 0.0
H1471 H 0.20581 0.49167 0.76383 0.0
H1472 H 0.29851 0.47043 0.69671 0.0
H1473 H 0.35122 0.44551 0.68195 0.0
H1474 H 0.40344 0.49164 0.76232 0.0
H1475 H 0.35089 0.51649 0.77782 0.0
C1476 C 0.23929 0.64774 0.74799 0.0
C1477 C 0.26326 0.66395 0.76864 0.0
C1478 C 0.23862 0.61391 0.74416 0.0
C1479 C 0.26149 0.59558 0.76135 0.0
C1480 C 0.28606 0.61184 0.78128 0.0
C1481 C 0.287 0.64571 0.78484 0.0
C1482 C 0.25971 0.55946 0.7588 0.0
C1483 C 0.28923 0.54393 0.75127 0.0
C1484 C 0.22918 0.54036 0.76332 0.0
C1485 C 0.19751 0.5549 0.77313 0.0
C1486 C 0.19711 0.57434 0.80074 0.0
C1487 C 0.16717 0.58789 0.80989 0.0
C1488 C 0.13738 0.58194 0.79176 0.0
C1489 C 0.13744 0.56239 0.76448 0.0
C1490 C 0.16733 0.54884 0.75518 0.0
C1491 C 0.27648 0.4032 0.76988 0.0
C1492 C 0.25399 0.38615 0.74842 0.0
C1493 C 0.27804 0.43726 0.77119 0.0
C1494 C 0.25716 0.45483 0.7511 0.0
C1495 C 0.23452 0.43787 0.72987 0.0
C1496 C 0.23306 0.40386 0.72842 0.0
C1497 C 0.25857 0.49091 0.7525 0.0
C1498 C 0.22899 0.50637 0.75977 0.0
C1499 C 0.28902 0.50993 0.74788 0.0
C1500 C 0.32067 0.49506 0.7386 0.0
C1501 C 0.32116 0.47504 0.71139 0.0
C1502 C 0.35102 0.46097 0.70286 0.0
C1503 C 0.38064 0.46692 0.72123 0.0
C1504 C 0.38047 0.48702 0.74814 0.0
C1505 C 0.35066 0.50113 0.75679 0.0
H1506 H 0.40373 0.45601 0.71459 0.0
H1507 H 0.11422 0.59241 0.79891 0.0
H1508 H 0.09836 0.49052 0.43769 0.0
H1509 H 0.15825 0.49487 0.42444 0.0
H1510 H 0.18345 0.53455 0.51771 0.0
H1511 H 0.12359 0.53073 0.53096 0.0
H1512 H 0.21947 0.5664 0.47577 0.0
H1513 H 0.19047 0.45424 0.49671 0.0
H1514 H 0.15962 0.40061 0.49034 0.0
H1515 H 0.1944 0.39304 0.39499 0.0
H1516 H 0.22526 0.44681 0.40084 0.0
H1517 H 0.39061 0.51818 0.49378 0.0
H1518 H 0.32939 0.52284 0.49814 0.0
H1519 H 0.31727 0.51423 0.39649 0.0
H1520 H 0.37866 0.5104 0.3918 0.0
H1521 H 0.27487 0.46862 0.43773 0.0
H1522 H 0.30685 0.58128 0.42035 0.0
H1523 H 0.33911 0.63368 0.43008 0.0
H1524 H 0.3017 0.63714 0.52477 0.0
H1525 H 0.26948 0.5845 0.51571 0.0
C1526 C 0.11662 0.50041 0.45532 0.0
C1527 C 0.10623 0.51013 0.48546 0.0
C1528 C 0.15088 0.50279 0.44772 0.0
C1529 C 0.17542 0.51471 0.47019 0.0
C1530 C 0.16498 0.52529 0.49997 0.0
C1531 C 0.13073 0.523 0.50756 0.0
C1532 C 0.21205 0.51549 0.46311 0.0
C1533 C 0.23159 0.5449 0.46776 0.0
C1534 C 0.22781 0.48756 0.45207 0.0
C1535 C 0.20941 0.45504 0.44882 0.0
C1536 C 0.19117 0.44139 0.47423 0.0
C1537 C 0.1738 0.41087 0.47079 0.0
C1538 C 0.17483 0.39353 0.4422 0.0
C1539 C 0.19342 0.40658 0.41706 0.0
C1540 C 0.21079 0.4371 0.42039 0.0
C1541 C 0.37495 0.51758 0.47234 0.0
C1542 C 0.38934 0.5139 0.44246 0.0
C1543 C 0.34009 0.52034 0.47487 0.0
C1544 C 0.31904 0.51892 0.44762 0.0
C1545 C 0.33327 0.51545 0.41773 0.0
C1546 C 0.36826 0.51337 0.41512 0.0
C1547 C 0.28197 0.5193 0.45072 0.0
C1548 C 0.26248 0.49009 0.44546 0.0
C1549 C 0.26642 0.54714 0.46183 0.0
C1550 C 0.28592 0.57876 0.46739 0.0
C1551 C 0.30569 0.59304 0.44332 0.0
C1552 C 0.32393 0.62284 0.44871 0.0
C1553 C 0.32252 0.6387 0.47805 0.0
C1554 C 0.30279 0.62482 0.50205 0.0
C1555 C 0.28449 0.59501 0.49678 0.0
H1556 H 0.33666 0.66178 0.48218 0.0
H1557 H 0.16138 0.3699 0.43959 0.0
H1558 H 0.69448 0.80124 0.87363 0.0
H1559 H 0.68602 0.80726 0.93057 0.0
H1560 H 0.75056 0.72821 0.94875 0.0
H1561 H 0.75919 0.72193 0.89181 0.0
H1562 H 0.68932 0.72446 0.9821 0.0
H1563 H 0.78123 0.80683 0.95966 0.0
H1564 H 0.80379 0.85494 0.93058 0.0
H1565 H 0.72218 0.91004 0.96315 0.0
H1566 H 0.69918 0.86233 0.99241 0.0
H1567 H 0.72778 0.74051 0.14525 0.0
H1568 H 0.7295 0.73653 0.0875 0.0
H1569 H 0.67589 0.82459 0.07931 0.0
H1570 H 0.6744 0.82901 0.13713 0.0
H1571 H 0.72765 0.82615 0.04012 0.0
H1572 H 0.63392 0.75349 0.05985 0.0
H1573 H 0.60021 0.70892 0.08513 0.0
H1574 H 0.67087 0.6403 0.05464 0.0
H1575 H 0.70514 0.68456 0.02933 0.0
C1576 C 0.70675 0.785 0.8897 0.0
C1577 C 0.72759 0.76113 0.87821 0.0
C1578 C 0.70203 0.78862 0.92222 0.0
C1579 C 0.71803 0.76845 0.94379 0.0
C1580 C 0.73815 0.7441 0.93241 0.0
C1581 C 0.74304 0.74056 0.89989 0.0
C1582 C 0.71368 0.77248 0.9783 0.0
C1583 C 0.6982 0.74646 0.99492 0.0
C1584 C 0.72358 0.80191 0.99458 0.0
C1585 C 0.7383 0.83089 0.97794 0.0
C1586 C 0.76807 0.82918 0.96054 0.0
C1587 C 0.78094 0.8564 0.94405 0.0
C1588 C 0.76428 0.88545 0.94484 0.0
C1589 C 0.73502 0.88751 0.9625 0.0
C1590 C 0.72211 0.86042 0.97911 0.0
C1591 C 0.71631 0.75902 0.1312 0.0
C1592 C 0.70096 0.78507 0.14579 0.0
C1593 C 0.71715 0.75662 0.09819 0.0
C1594 C 0.70256 0.78012 0.07913 0.0
C1595 C 0.68732 0.80622 0.0936 0.0
C1596 C 0.68644 0.80864 0.12664 0.0
C1597 C 0.70407 0.77773 0.04413 0.0
C1598 C 0.71898 0.80402 0.02741 0.0
C1599 C 0.69241 0.74906 0.02747 0.0
C1600 C 0.6723 0.72238 0.04304 0.0
C1601 C 0.64244 0.72895 0.05881 0.0
C1602 C 0.62318 0.70373 0.07305 0.0
C1603 C 0.63346 0.67181 0.07159 0.0
C1604 C 0.66297 0.66504 0.0558 0.0
C1605 C 0.6823 0.69018 0.04145 0.0
H1606 H 0.61851 0.65231 0.08263 0.0
H1607 H 0.77412 0.90642 0.93187 0.0
H1608 H 0.55349 0.50306 0.37319 0.0
H1609 H 0.56918 0.50658 0.31734 0.0
H1610 H 0.47766 0.4496 0.29035 0.0
H1611 H 0.46272 0.44475 0.34586 0.0
H1612 H 0.52886 0.42952 0.25848 0.0
H1613 H 0.48726 0.53546 0.28626 0.0
H1614 H 0.4891 0.58664 0.31746 0.0
H1615 H 0.59004 0.61094 0.28634 0.0
H1616 H 0.58903 0.55957 0.25542 0.0
H1617 H 0.48114 0.46757 0.10385 0.0
H1618 H 0.48815 0.46075 0.16088 0.0
H1619 H 0.58404 0.51657 0.15966 0.0
H1620 H 0.57704 0.52388 0.10233 0.0
H1621 H 0.54452 0.53697 0.20645 0.0
H1622 H 0.58437 0.43456 0.17406 0.0
H1623 H 0.58426 0.38241 0.14453 0.0
H1624 H 0.4885 0.35192 0.18408 0.0
H1625 H 0.48779 0.40431 0.21311 0.0
C1626 C 0.53687 0.49118 0.35528 0.0
C1627 C 0.50688 0.47366 0.36383 0.0
C1628 C 0.5458 0.49327 0.32342 0.0
C1629 C 0.52445 0.47853 0.29964 0.0
C1630 C 0.49466 0.4609 0.30829 0.0
C1631 C 0.48607 0.45829 0.34005 0.0
C1632 C 0.53232 0.48163 0.26557 0.0
C1633 C 0.53222 0.45303 0.2471 0.0
C1634 C 0.53802 0.51227 0.25089 0.0
C1635 C 0.53826 0.54345 0.26893 0.0
C1636 C 0.50995 0.55158 0.2863 0.0
C1637 C 0.51088 0.58058 0.30398 0.0
C1638 C 0.53981 0.60186 0.30414 0.0
C1639 C 0.56777 0.5943 0.28641 0.0
C1640 C 0.56703 0.56525 0.26881 0.0
C1641 C 0.50389 0.47819 0.11559 0.0
C1642 C 0.52853 0.49629 0.09857 0.0
C1643 C 0.50796 0.47408 0.14819 0.0
C1644 C 0.53685 0.48778 0.16442 0.0
C1645 C 0.56167 0.50566 0.14751 0.0
C1646 C 0.55764 0.50976 0.11479 0.0
C1647 C 0.53971 0.48487 0.19931 0.0
C1648 C 0.54191 0.51346 0.21792 0.0
C1649 C 0.53608 0.45424 0.2142 0.0
C1650 C 0.53609 0.42318 0.19596 0.0
C1651 C 0.5632 0.41681 0.17628 0.0
C1652 C 0.5633 0.38723 0.1596 0.0
C1653 C 0.53644 0.36382 0.16248 0.0
C1654 C 0.50936 0.37 0.18193 0.0
C1655 C 0.50913 0.39957 0.19855 0.0
H1656 H 0.53661 0.34091 0.14962 0.0
H1657 H 0.54041 0.62438 0.31772 0.0
H1658 H 0.75068 0.33723 0.36324 0.0
H1659 H 0.75144 0.33699 0.42149 0.0
H1660 H 0.74923 0.23194 0.42005 0.0
H1661 H 0.74871 0.23186 0.36232 0.0
H1662 H 0.69995 0.25705 0.45786 0.0
H1663 H 0.81943 0.27395 0.4381 0.0
H1664 H 0.87123 0.30224 0.41808 0.0
H1665 H 0.85309 0.38665 0.4745 0.0
H1666 H 0.80076 0.3591 0.49442 0.0
H1667 H 0.75384 0.20399 0.60835 0.0
H1668 H 0.74738 0.2172 0.55224 0.0
H1669 H 0.7462 0.31933 0.57638 0.0
H1670 H 0.75213 0.30626 0.63282 0.0
H1671 H 0.79279 0.30412 0.52835 0.0
H1672 H 0.67639 0.28589 0.55177 0.0
H1673 H 0.6251 0.2576 0.5728 0.0
H1674 H 0.63734 0.17632 0.51026 0.0
H1675 H 0.68918 0.2038 0.4893 0.0
C1676 C 0.75067 0.31412 0.37538 0.0
C1677 C 0.74951 0.28457 0.35815 0.0
C1678 C 0.75114 0.31405 0.40859 0.0
C1679 C 0.75027 0.28443 0.42495 0.0
C1680 C 0.74975 0.25503 0.40781 0.0
C1681 C 0.74959 0.25507 0.37479 0.0
C1682 C 0.74862 0.28355 0.45992 0.0
C1683 C 0.72032 0.26718 0.47331 0.0
C1684 C 0.77472 0.29782 0.47995 0.0
C1685 C 0.80573 0.31468 0.46726 0.0
C1686 C 0.82608 0.29877 0.44578 0.0
C1687 C 0.85564 0.31463 0.43454 0.0
C1688 C 0.86529 0.34631 0.44483 0.0
C1689 C 0.84548 0.36216 0.46645 0.0
C1690 C 0.81586 0.34645 0.47769 0.0
C1691 C 0.75189 0.22924 0.60176 0.0
C1692 C 0.75352 0.25411 0.62492 0.0
C1693 C 0.74808 0.23672 0.56974 0.0
C1694 C 0.7462 0.2692 0.56029 0.0
C1695 C 0.74753 0.29411 0.58332 0.0
C1696 C 0.75078 0.28659 0.61547 0.0
C1697 C 0.74453 0.27689 0.52616 0.0
C1698 C 0.77216 0.29449 0.51293 0.0
C1699 C 0.7178 0.2638 0.50622 0.0
C1700 C 0.68692 0.24684 0.51915 0.0
C1701 C 0.66841 0.26182 0.54275 0.0
C1702 C 0.63917 0.24596 0.5546 0.0
C1703 C 0.62796 0.21519 0.54287 0.0
C1704 C 0.64605 0.20016 0.51933 0.0
C1705 C 0.67538 0.21588 0.50745 0.0
H1706 H 0.60522 0.20302 0.55198 0.0
H1707 H 0.88817 0.35856 0.43612 0.0
H1708 H 0.00387 0.51814 0.58629 0.0
H1709 H 0.00319 0.52639 0.64365 0.0
H1710 H 0.96255 0.42753 0.65503 0.0
H1711 H 0.9627 0.41917 0.59756 0.0
H1712 H 0.93005 0.46805 0.69121 0.0
H1713 H 0.04568 0.44912 0.67265 0.0
H1714 H 0.10204 0.45605 0.64893 0.0
H1715 H 0.1125 0.55495 0.68314 0.0
H1716 H 0.05592 0.54885 0.70656 0.0
H1717 H 0.9654 0.4711 0.85975 0.0
H1718 H 0.96319 0.45726 0.80306 0.0
H1719 H 0.99471 0.55659 0.78096 0.0
H1720 H 0.99695 0.57066 0.83735 0.0
H1721 H 0.03255 0.51128 0.7514 0.0
H1722 H 0.9151 0.53025 0.76754 0.0
H1723 H 0.85987 0.52195 0.79316 0.0
H1724 H 0.85427 0.42106 0.76499 0.0
H1725 H 0.90962 0.42869 0.73952 0.0
C1726 C 0.99479 0.49811 0.60097 0.0
C1727 C 0.98339 0.46796 0.58734 0.0
C1728 C 0.99461 0.50282 0.63379 0.0
C1729 C 0.98332 0.47741 0.65369 0.0
C1730 C 0.97154 0.44741 0.64015 0.0
C1731 C 0.97166 0.44267 0.60728 0.0
C1732 C 0.98323 0.4825 0.68855 0.0
C1733 C 0.9526 0.47702 0.70446 0.0
C1734 C 0.01256 0.49461 0.70577 0.0
C1735 C 0.04633 0.49862 0.69106 0.0
C1736 C 0.05979 0.47248 0.67478 0.0
C1737 C 0.09183 0.47624 0.66145 0.0
C1738 C 0.11079 0.50596 0.66444 0.0
C1739 C 0.09774 0.53198 0.68076 0.0
C1740 C 0.06569 0.52838 0.69406 0.0
C1741 C 0.97155 0.49007 0.84279 0.0
C1742 C 0.98141 0.52198 0.85304 0.0
C1743 C 0.9702 0.48212 0.81045 0.0
C1744 C 0.97875 0.50594 0.78791 0.0
C1745 C 0.98809 0.53787 0.79805 0.0
C1746 C 0.98922 0.54588 0.83028 0.0
C1747 C 0.97931 0.49748 0.75375 0.0
C1748 C 0.01008 0.5022 0.73807 0.0
C1749 C 0.95022 0.48452 0.73684 0.0
C1750 C 0.91678 0.47993 0.75199 0.0
C1751 C 0.90225 0.50622 0.76707 0.0
C1752 C 0.87087 0.50166 0.7815 0.0
C1753 C 0.85362 0.47097 0.78082 0.0
C1754 C 0.86768 0.4448 0.76558 0.0
C1755 C 0.89907 0.44924 0.75112 0.0
H1756 H 0.82932 0.46749 0.792 0.0
H1757 H 0.13563 0.50879 0.65418 0.0
H1758 H 0.88301 0.00413 0.57993 0.0
H1759 H 0.82186 0.99431 0.57207 0.0
H1760 H 0.83728 0.95783 0.47751 0.0
H1761 H 0.89838 0.96842 0.48488 0.0
H1762 H 0.7918 0.00145 0.47643 0.0
H1763 H 0.81078 0.90741 0.53958 0.0
H1764 H 0.83134 0.87754 0.58593 0.0
H1765 H 0.76799 0.93062 0.64668 0.0
H1766 H 0.74749 0.96124 0.6008 0.0
H1767 H 0.62071 0.94503 0.44495 0.0
H1768 H 0.68163 0.94355 0.45621 0.0
H1769 H 0.67004 0.99503 0.54451 0.0
H1770 H 0.60917 0.99709 0.53324 0.0
H1771 H 0.71309 0.94201 0.54867 0.0
H1772 H 0.69305 0.03485 0.48518 0.0
H1773 H 0.67316 0.06551 0.43922 0.0
H1774 H 0.74087 0.01695 0.37916 0.0
H1775 H 0.75985 0.98457 0.42438 0.0
C1776 C 0.87342 0.99358 0.55763 0.0
C1777 C 0.8955 0.98722 0.53295 0.0
C1778 C 0.83844 0.98784 0.55322 0.0
C1779 C 0.82499 0.97514 0.52426 0.0
C1780 C 0.84711 0.96771 0.50002 0.0
C1781 C 0.88202 0.97373 0.50429 0.0
C1782 C 0.78784 0.97195 0.51828 0.0
C1783 C 0.77463 0.98785 0.49183 0.0
C1784 C 0.76544 0.95518 0.53908 0.0
C1785 C 0.77783 0.93684 0.56676 0.0
C1786 C 0.80146 0.91293 0.56287 0.0
C1787 C 0.81309 0.89584 0.58906 0.0
C1788 C 0.80108 0.90226 0.61926 0.0
C1789 C 0.77736 0.92574 0.62331 0.0
C1790 C 0.7657 0.94295 0.59721 0.0
C1791 C 0.63106 0.95562 0.46698 0.0
C1792 C 0.61028 0.97126 0.48822 0.0
C1793 C 0.66583 0.95486 0.47327 0.0
C1794 C 0.68021 0.96939 0.50104 0.0
C1795 C 0.6593 0.98372 0.52295 0.0
C1796 C 0.62464 0.98496 0.51644 0.0
C1797 C 0.71728 0.97104 0.50657 0.0
C1798 C 0.73038 0.95515 0.53303 0.0
C1799 C 0.73963 0.98784 0.48573 0.0
C1800 C 0.72736 0.00664 0.4582 0.0
C1801 C 0.70312 0.03002 0.46206 0.0
C1802 C 0.69201 0.04777 0.4361 0.0
C1803 C 0.70548 0.04292 0.4062 0.0
C1804 C 0.73018 0.02041 0.40225 0.0
C1805 C 0.74097 0.0022 0.42802 0.0
H1806 H 0.69697 0.05677 0.38614 0.0
H1807 H 0.81007 0.88897 0.63949 0.0
loop_
_geom_bond_atom_site_label_1
_geom_bond_atom_site_label_2
_geom_bond_distance
_geom_bond_site_symmetry_2
_ccdc_geom_bond_type
C0 O1 1.160 . S
C0 O7 1.185 . S
O1 C0 1.160 . S
O2 Zn3 1.899 . S
O2 C10 1.284 . S
Zn3 O2 1.899 . S
Zn3 O4 2.032 . S
Zn3 O7 2.086 . S
Zn3 O12 1.977 . S
O4 Zn3 2.032 . S
O4 C8 1.278 . S
C5 O6 1.203 . S
C5 O12 1.267 . S
O6 C5 1.203 . S
O7 C0 1.185 . S
O7 Zn3 2.086 . S
C8 O4 1.278 . S
C8 O9 1.211 . S
O9 C8 1.211 . S
C10 O2 1.284 . S
C10 O11 1.273 . S
O11 C10 1.273 . S
O12 Zn3 1.977 . S
O12 C5 1.267 . S
C13 O14 1.160 1_455 S
C13 O20 1.185 . S
O14 C13 1.160 1_655 S
O15 Zn16 1.899 . S
O15 C23 1.284 . S
Zn16 O15 1.899 . S
Zn16 O17 2.032 1_545 S
Zn16 O20 2.086 1_645 S
Zn16 O25 1.977 1_655 S
O17 Zn16 2.032 1_565 S
O17 C21 1.278 1_565 S
C18 O19 1.203 . S
C18 O25 1.267 1_655 S
O19 C18 1.203 . S
O20 C13 1.185 . S
O20 Zn16 2.086 1_465 S
C21 O17 1.278 1_545 S
C21 O22 1.211 . S
O22 C21 1.211 . S
C23 O15 1.284 . S
C23 O24 1.273 . S
O24 C23 1.273 . S
O25 Zn16 1.977 1_455 S
O25 C18 1.267 1_455 S
C26 O27 1.160 . S
C26 O33 1.185 . S
O27 C26 1.160 . S
O28 Zn29 1.899 . S
O28 C36 1.284 . S
Zn29 O28 1.899 . S
Zn29 O30 2.032 . S
Zn29 O33 2.086 . S
Zn29 O38 1.977 . S
O30 Zn29 2.032 . S
O30 C34 1.278 . S
C31 O32 1.203 . S
C31 O38 1.267 . S
O32 C31 1.203 . S
O33 C26 1.185 . S
O33 Zn29 2.086 . S
C34 O30 1.278 . S
C34 O35 1.211 . S
O35 C34 1.211 . S
C36 O28 1.284 . S
C36 O37 1.273 . S
O37 C36 1.273 . S
O38 Zn29 1.977 . S
O38 C31 1.267 . S
C39 O40 1.160 . S
C39 O46 1.155 1_545 S
O40 C39 1.160 . S
O41 Zn42 1.899 1_556 S
O41 C49 1.284 1_556 S
Zn42 O41 1.899 1_554 S
Zn42 O43 2.032 1_565 S
Zn42 O46 2.102 1_554 S
Zn42 O51 1.977 . S
O43 Zn42 2.032 1_545 S
O43 C47 1.278 1_545 S
C44 O45 1.203 . S
C44 O51 1.267 . S
O45 C44 1.203 . S
O46 C39 1.155 1_565 S
O46 Zn42 2.102 1_556 S
C47 O43 1.278 1_565 S
C47 O48 1.211 . S
O48 C47 1.211 . S
C49 O41 1.284 1_554 S
C49 O50 1.273 . S
O50 C49 1.273 . S
O51 Zn42 1.977 . S
O51 C44 1.267 . S
C52 O53 1.160 . S
C52 O59 1.185 . S
O53 C52 1.160 . S
O54 Zn55 1.899 . S
O54 C62 1.284 . S
Zn55 O54 1.899 . S
Zn55 O56 2.032 . S
Zn55 O59 2.086 . S
Zn55 O64 1.977 . S
O56 Zn55 2.032 . S
O56 C60 1.278 . S
C57 O58 1.203 . S
C57 O64 1.267 . S
O58 C57 1.203 . S
O59 C52 1.185 . S
O59 Zn55 2.086 . S
C60 O56 1.278 . S
C60 O61 1.211 . S
O61 C60 1.211 . S
C62 O54 1.284 . S
C62 O63 1.273 . S
O63 C62 1.273 . S
O64 Zn55 1.977 . S
O64 C57 1.267 . S
C65 O66 1.160 1_565 S
C65 O72 1.185 . S
O66 C65 1.160 1_545 S
O67 Zn68 1.899 . S
O67 C75 1.284 . S
Zn68 O67 1.899 . S
Zn68 O69 2.032 . S
Zn68 O72 2.086 1_545 S
Zn68 O77 1.974 1_545 S
O69 Zn68 2.032 . S
O69 C73 1.278 . S
C70 O71 1.203 . S
C70 O77 1.262 1_545 S
O71 C70 1.203 . S
O72 C65 1.185 . S
O72 Zn68 2.086 1_565 S
C73 O69 1.278 . S
C73 O74 1.211 . S
O74 C73 1.211 . S
C75 O67 1.284 . S
C75 O76 1.273 . S
O76 C75 1.273 . S
O77 Zn68 1.974 1_565 S
O77 C70 1.262 1_565 S
C78 O79 1.160 . S
C78 O85 1.185 . S
O79 C78 1.160 . S
O80 Zn81 1.899 . S
O80 C88 1.284 . S
Zn81 O80 1.899 . S
Zn81 O82 2.032 . S
Zn81 O85 2.086 . S
Zn81 O90 1.977 . S
O82 Zn81 2.032 . S
O82 C86 1.278 . S
C83 O84 1.203 . S
C83 O90 1.267 . S
O84 C83 1.203 . S
O85 C78 1.185 . S
O85 Zn81 2.086 . S
C86 O82 1.278 . S
C86 O87 1.211 . S
O87 C86 1.211 . S
C88 O80 1.284 . S
C88 O89 1.273 . S
O89 C88 1.273 . S
O90 Zn81 1.977 . S
O90 C83 1.267 . S
C91 O92 1.160 1_545 S
C91 O98 1.185 1_554 S
O92 C91 1.160 1_565 S
O93 Zn94 1.899 1_455 S
O93 C101 1.284 1_455 S
Zn94 O93 1.899 1_655 S
Zn94 O95 2.032 . S
Zn94 O98 2.086 1_665 S
Zn94 O103 1.980 . S
O95 Zn94 2.032 . S
O95 C99 1.278 . S
C96 O97 1.203 . S
C96 O103 1.269 . S
O97 C96 1.203 . S
O98 C91 1.185 1_556 S
O98 Zn94 2.086 1_445 S
C99 O95 1.278 . S
C99 O100 1.211 . S
O100 C99 1.211 . S
C101 O93 1.284 1_655 S
C101 O102 1.273 . S
O102 C101 1.273 . S
O103 Zn94 1.980 . S
O103 C96 1.269 . S
C104 O105 1.160 . S
C104 O111 1.185 . S
O105 C104 1.160 . S
O106 Zn107 1.899 . S
O106 C114 1.284 . S
Zn107 O106 1.899 . S
Zn107 O108 2.032 . S
Zn107 O111 2.086 . S
Zn107 O116 1.977 . S
O108 Zn107 2.032 . S
O108 C112 1.278 . S
C109 O110 1.203 . S
C109 O116 1.267 . S
O110 C109 1.203 . S
O111 C104 1.185 . S
O111 Zn107 2.086 . S
C112 O108 1.278 . S
C112 O113 1.211 . S
O113 C112 1.211 . S
C114 O106 1.284 . S
C114 O115 1.273 . S
O115 C114 1.273 . S
O116 Zn107 1.977 . S
O116 C109 1.267 . S
C117 O118 1.160 . S
C117 O124 1.185 1_554 S
O118 C117 1.160 . S
O119 Zn120 1.899 1_655 S
O119 C127 1.284 1_655 S
Zn120 O119 1.899 1_455 S
Zn120 O121 2.032 . S
Zn120 O124 2.086 1_455 S
Zn120 O129 1.978 . S
O121 Zn120 2.032 . S
O121 C125 1.278 . S
C122 O123 1.203 . S
C122 O129 1.270 . S
O123 C122 1.203 . S
O124 C117 1.185 1_556 S
O124 Zn120 2.086 1_655 S
C125 O121 1.278 . S
C125 O126 1.211 . S
O126 C125 1.211 . S
C127 O119 1.284 1_455 S
C127 O128 1.273 . S
O128 C127 1.273 . S
O129 Zn120 1.978 . S
O129 C122 1.270 . S
C130 O131 1.160 . S
C130 O137 1.185 . S
O131 C130 1.160 . S
O132 Zn133 1.899 . S
O132 C140 1.284 . S
Zn133 O132 1.899 . S
Zn133 O134 2.032 . S
Zn133 O137 2.086 . S
Zn133 O142 1.977 . S
O134 Zn133 2.032 . S
O134 C138 1.278 . S
C135 O136 1.203 . S
C135 O142 1.267 . S
O136 C135 1.203 . S
O137 C130 1.185 . S
O137 Zn133 2.086 . S
C138 O134 1.278 . S
C138 O139 1.211 . S
O139 C138 1.211 . S
C140 O132 1.284 . S
C140 O141 1.273 . S
O141 C140 1.273 . S
O142 Zn133 1.977 . S
O142 C135 1.267 . S
C143 O144 1.160 1_655 S
C143 O150 1.185 . S
O144 C143 1.160 1_455 S
O145 Zn146 1.899 . S
O145 C153 1.284 . S
Zn146 O145 1.899 . S
Zn146 O147 2.032 . S
Zn146 O150 2.086 1_455 S
Zn146 O155 1.977 1_455 S
O147 Zn146 2.032 . S
O147 C151 1.278 . S
C148 O149 1.203 . S
C148 O155 1.267 1_455 S
O149 C148 1.203 . S
O150 C143 1.185 . S
O150 Zn146 2.086 1_655 S
C151 O147 1.278 . S
C151 O152 1.211 . S
O152 C151 1.211 . S
C153 O145 1.284 . S
C153 O154 1.273 . S
O154 C153 1.273 . S
O155 Zn146 1.977 1_655 S
O155 C148 1.267 1_655 S
C156 O157 1.160 . S
C156 O163 1.185 . S
O157 C156 1.160 . S
O158 Zn159 1.899 1_556 S
O158 C166 1.284 1_556 S
Zn159 O158 1.899 1_554 S
Zn159 O160 2.032 . S
Zn159 O163 2.086 1_554 S
Zn159 O168 1.977 . S
O160 Zn159 2.032 . S
O160 C164 1.278 . S
C161 O162 1.203 . S
C161 O168 1.267 . S
O162 C161 1.203 . S
O163 C156 1.185 . S
O163 Zn159 2.086 1_556 S
C164 O160 1.278 . S
C164 O165 1.211 . S
O165 C164 1.211 . S
C166 O158 1.284 1_554 S
C166 O167 1.273 . S
O167 C166 1.273 . S
O168 Zn159 1.977 . S
O168 C161 1.267 . S
C169 O170 1.160 . S
C169 O176 1.185 . S
O170 C169 1.160 . S
O171 Zn172 1.899 . S
O171 C179 1.284 . S
Zn172 O171 1.899 . S
Zn172 O173 2.032 . S
Zn172 O176 2.086 . S
Zn172 O181 1.977 . S
O173 Zn172 2.032 . S
O173 C177 1.278 . S
C174 O175 1.203 . S
C174 O181 1.267 . S
O175 C174 1.203 . S
O176 C169 1.185 . S
O176 Zn172 2.086 . S
C177 O173 1.278 . S
C177 O178 1.211 . S
O178 C177 1.211 . S
C179 O171 1.284 . S
C179 O180 1.273 . S
O180 C179 1.273 . S
O181 Zn172 1.977 . S
O181 C174 1.267 . S
C182 O183 1.160 . S
C182 O189 1.185 . S
O183 C182 1.160 . S
O184 Zn185 1.899 . S
O184 C192 1.284 . S
Zn185 O184 1.899 . S
Zn185 O186 2.032 . S
Zn185 O189 2.086 . S
Zn185 O194 1.977 . S
O186 Zn185 2.032 . S
O186 C190 1.278 . S
C187 O188 1.203 . S
C187 O194 1.267 . S
O188 C187 1.203 . S
O189 C182 1.185 . S
O189 Zn185 2.086 . S
C190 O186 1.278 . S
C190 O191 1.211 . S
O191 C190 1.211 . S
C192 O184 1.284 . S
C192 O193 1.273 . S
O193 C192 1.273 . S
O194 Zn185 1.977 . S
O194 C187 1.267 . S
C195 O196 1.160 . S
C195 O202 1.185 . S
O196 C195 1.160 . S
O197 Zn198 1.899 . S
O197 C205 1.284 . S
Zn198 O197 1.899 . S
Zn198 O199 2.032 . S
Zn198 O202 2.086 . S
Zn198 O207 1.977 . S
O199 Zn198 2.032 . S
O199 C203 1.278 . S
C200 O201 1.203 . S
C200 O207 1.267 . S
O201 C200 1.203 . S
O202 C195 1.185 . S
O202 Zn198 2.086 . S
C203 O199 1.278 . S
C203 O204 1.211 . S
O204 C203 1.211 . S
C205 O197 1.284 . S
C205 O206 1.273 . S
O206 C205 1.273 . S
O207 Zn198 1.977 . S
O207 C200 1.267 . S
H208 C226 0.951 . S
H209 C228 0.951 . S
H210 C230 0.950 . S
H211 C231 0.950 . S
H212 C233 0.950 . S
H213 C236 0.950 . S
H214 C237 0.950 . S
H215 C239 0.950 . S
H216 C240 0.950 . S
H217 C241 0.951 . S
H218 C243 0.951 . S
H219 C245 0.950 . S
H220 C246 0.950 . S
H221 C248 0.950 . S
H222 C251 0.950 . S
H223 C252 0.950 . S
H224 C254 0.950 . S
H225 C255 0.950 . S
C226 H208 0.951 . S
C226 C227 1.366 . S
C226 C228 1.388 . S
C227 C226 1.366 . S
C227 C231 1.385 . S
C228 H209 0.951 . S
C228 C226 1.388 . S
C228 C229 1.366 . S
C229 C228 1.366 . S
C229 C230 1.414 . S
C229 C232 1.499 . S
C230 H210 0.950 . S
C230 C229 1.414 . S
C230 C231 1.374 . S
C231 H211 0.950 . S
C231 C227 1.385 . S
C231 C230 1.374 . S
C232 C229 1.499 . S
C232 C233 1.373 . S
C232 C234 1.389 . S
C233 H212 0.950 . S
C233 C232 1.373 . S
C233 C249 1.377 . S
C234 C232 1.389 . S
C234 C235 1.524 . S
C234 C248 1.377 . S
C235 C234 1.524 . S
C235 C236 1.397 . S
C235 C240 1.363 . S
C236 H213 0.950 . S
C236 C235 1.397 . S
C236 C237 1.334 . S
C237 H214 0.950 . S
C237 C236 1.334 . S
C237 C238 1.287 . S
C238 C237 1.287 . S
C238 C239 1.524 . S
C238 H257 0.913 . S
C239 H215 0.950 . S
C239 C238 1.524 . S
C239 C240 1.415 . S
C240 H216 0.950 . S
C240 C235 1.363 . S
C240 C239 1.415 . S
C241 H217 0.951 . S
C241 C242 1.366 . S
C241 C243 1.388 . S
C242 C241 1.366 . S
C242 C246 1.385 . S
C243 H218 0.951 . S
C243 C241 1.388 . S
C243 C244 1.366 . S
C244 C243 1.366 . S
C244 C245 1.414 . S
C244 C247 1.499 . S
C245 H219 0.950 . S
C245 C244 1.414 . S
C245 C246 1.374 . S
C246 H220 0.950 . S
C246 C242 1.385 . S
C246 C245 1.374 . S
C247 C244 1.499 . S
C247 C248 1.373 . S
C247 C249 1.389 . S
C248 H221 0.950 . S
C248 C234 1.377 . S
C248 C247 1.373 . S
C249 C233 1.377 . S
C249 C247 1.389 . S
C249 C250 1.524 . S
C250 C249 1.524 . S
C250 C251 1.397 . S
C250 C255 1.363 . S
C251 H222 0.950 . S
C251 C250 1.397 . S
C251 C252 1.334 1_455 S
C252 H223 0.950 . S
C252 C251 1.334 1_655 S
C252 C253 1.287 . S
C253 C252 1.287 . S
C253 C254 1.524 1_655 S
C253 H256 0.999 . S
C254 H224 0.950 . S
C254 C253 1.524 1_455 S
C254 C255 1.415 . S
C255 H225 0.950 . S
C255 C250 1.363 . S
C255 C254 1.415 . S
H256 C253 0.999 . S
H257 C238 0.913 . S
H258 C276 0.951 . S
H259 C278 0.951 . S
H260 C280 0.950 . S
H261 C281 0.950 . S
H262 C283 0.950 . S
H263 C286 0.950 . S
H264 C287 0.950 . S
H265 C289 0.950 . S
H266 C290 0.950 . S
H267 C291 0.951 . S
H268 C293 0.951 . S
H269 C295 0.950 . S
H270 C296 0.950 . S
H271 C298 0.950 . S
H272 C301 0.950 . S
H273 C302 0.950 . S
H274 C304 0.950 . S
H275 C305 0.950 . S
C276 H258 0.951 . S
C276 C277 1.366 . S
C276 C278 1.388 . S
C277 C276 1.366 . S
C277 C281 1.385 . S
C278 H259 0.951 . S
C278 C276 1.388 . S
C278 C279 1.366 . S
C279 C278 1.366 . S
C279 C280 1.414 . S
C279 C282 1.499 . S
C280 H260 0.950 . S
C280 C279 1.414 . S
C280 C281 1.374 . S
C281 H261 0.950 . S
C281 C277 1.385 . S
C281 C280 1.374 . S
C282 C279 1.499 . S
C282 C283 1.373 . S
C282 C284 1.389 . S
C283 H262 0.950 . S
C283 C282 1.373 . S
C283 C299 1.377 . S
C284 C282 1.389 . S
C284 C285 1.524 . S
C284 C298 1.377 . S
C285 C284 1.524 . S
C285 C286 1.397 . S
C285 C290 1.363 . S
C286 H263 0.950 . S
C286 C285 1.397 . S
C286 C287 1.334 . S
C287 H264 0.950 . S
C287 C286 1.334 . S
C287 C288 1.287 . S
C288 C287 1.287 . S
C288 C289 1.524 . S
C288 H307 0.913 1_565 S
C289 H265 0.950 . S
C289 C288 1.524 . S
C289 C290 1.415 . S
C290 H266 0.950 . S
C290 C285 1.363 . S
C290 C289 1.415 . S
C291 H267 0.951 . S
C291 C292 1.366 . S
C291 C293 1.388 . S
C292 C291 1.366 . S
C292 C296 1.385 . S
C293 H268 0.951 . S
C293 C291 1.388 . S
C293 C294 1.366 . S
C294 C293 1.366 . S
C294 C295 1.414 . S
C294 C297 1.499 . S
C295 H269 0.950 . S
C295 C294 1.414 . S
C295 C296 1.374 . S
C296 H270 0.950 . S
C296 C292 1.385 . S
C296 C295 1.374 . S
C297 C294 1.499 . S
C297 C298 1.373 . S
C297 C299 1.389 . S
C298 H271 0.950 . S
C298 C284 1.377 . S
C298 C297 1.373 . S
C299 C283 1.377 . S
C299 C297 1.389 . S
C299 C300 1.524 . S
C300 C299 1.524 . S
C300 C301 1.397 . S
C300 C305 1.363 . S
C301 H272 0.950 . S
C301 C300 1.397 . S
C301 C302 1.334 . S
C302 H273 0.950 . S
C302 C301 1.334 . S
C302 C303 1.287 . S
C303 C302 1.287 . S
C303 C304 1.524 . S
C303 H306 0.999 . S
C304 H274 0.950 . S
C304 C303 1.524 . S
C304 C305 1.415 . S
C305 H275 0.950 . S
C305 C300 1.363 . S
C305 C304 1.415 . S
H306 C303 0.999 . S
H307 C288 0.913 1_545 S
H308 C326 0.951 . S
H309 C328 0.951 . S
H310 C330 0.950 . S
H311 C331 0.950 . S
H312 C333 0.950 . S
H313 C336 0.950 . S
H314 C337 0.950 . S
H315 C339 0.950 . S
H316 C340 0.950 . S
H317 C341 0.951 . S
H318 C343 0.951 . S
H319 C345 0.950 . S
H320 C346 0.950 . S
H321 C348 0.950 . S
H322 C351 0.950 . S
H323 C352 0.950 . S
H324 C354 0.950 . S
H325 C355 0.950 . S
C326 H308 0.951 . S
C326 C327 1.366 . S
C326 C328 1.388 . S
C327 C326 1.366 . S
C327 C331 1.385 . S
C328 H309 0.951 . S
C328 C326 1.388 . S
C328 C329 1.366 . S
C329 C328 1.366 . S
C329 C330 1.414 . S
C329 C332 1.499 . S
C330 H310 0.950 . S
C330 C329 1.414 . S
C330 C331 1.374 . S
C331 H311 0.950 . S
C331 C327 1.385 . S
C331 C330 1.374 . S
C332 C329 1.499 . S
C332 C333 1.373 . S
C332 C334 1.389 . S
C333 H312 0.950 . S
C333 C332 1.373 . S
C333 C349 1.377 . S
C334 C332 1.389 . S
C334 C335 1.524 . S
C334 C348 1.377 . S
C335 C334 1.524 . S
C335 C336 1.397 . S
C335 C340 1.363 . S
C336 H313 0.950 . S
C336 C335 1.397 . S
C336 C337 1.334 1_565 S
C337 H314 0.950 . S
C337 C336 1.334 1_545 S
C337 C338 1.287 . S
C338 C337 1.287 . S
C338 C339 1.524 1_545 S
C338 H357 0.913 . S
C339 H315 0.950 . S
C339 C338 1.524 1_565 S
C339 C340 1.415 . S
C340 H316 0.950 . S
C340 C335 1.363 . S
C340 C339 1.415 . S
C341 H317 0.951 . S
C341 C342 1.366 . S
C341 C343 1.388 . S
C342 C341 1.366 . S
C342 C346 1.385 . S
C343 H318 0.951 . S
C343 C341 1.388 . S
C343 C344 1.366 . S
C344 C343 1.366 . S
C344 C345 1.414 . S
C344 C347 1.499 . S
C345 H319 0.950 . S
C345 C344 1.414 . S
C345 C346 1.374 . S
C346 H320 0.950 . S
C346 C342 1.385 . S
C346 C345 1.374 . S
C347 C344 1.499 . S
C347 C348 1.373 . S
C347 C349 1.389 . S
C348 H321 0.950 . S
C348 C334 1.377 . S
C348 C347 1.373 . S
C349 C333 1.377 . S
C349 C347 1.389 . S
C349 C350 1.524 . S
C350 C349 1.524 . S
C350 C351 1.397 . S
C350 C355 1.363 . S
C351 H322 0.950 . S
C351 C350 1.397 . S
C351 C352 1.334 . S
C352 H323 0.950 . S
C352 C351 1.334 . S
C352 C353 1.287 . S
C353 C352 1.287 . S
C353 C354 1.524 . S
C353 H356 0.999 . S
C354 H324 0.950 . S
C354 C353 1.524 . S
C354 C355 1.415 . S
C355 H325 0.950 . S
C355 C350 1.363 . S
C355 C354 1.415 . S
H356 C353 0.999 . S
H357 C338 0.913 . S
H358 C376 0.951 . S
H359 C378 0.951 . S
H360 C380 0.950 . S
H361 C381 0.950 . S
H362 C383 0.950 . S
H363 C386 0.950 . S
H364 C387 0.950 . S
H365 C389 0.950 . S
H366 C390 0.950 . S
H367 C391 0.951 . S
H368 C393 0.951 . S
H369 C395 0.950 . S
H370 C396 0.950 . S
H371 C398 0.950 . S
H372 C401 0.950 . S
H373 C402 0.950 . S
H374 C404 0.950 . S
H375 C405 0.950 . S
C376 H358 0.951 . S
C376 C377 1.366 . S
C376 C378 1.388 . S
C377 C376 1.366 . S
C377 C381 1.385 . S
C378 H359 0.951 . S
C378 C376 1.388 . S
C378 C379 1.366 . S
C379 C378 1.366 . S
C379 C380 1.414 . S
C379 C382 1.499 . S
C380 H360 0.950 . S
C380 C379 1.414 . S
C380 C381 1.374 . S
C381 H361 0.950 . S
C381 C377 1.385 . S
C381 C380 1.374 . S
C382 C379 1.499 . S
C382 C383 1.373 . S
C382 C384 1.389 . S
C383 H362 0.950 . S
C383 C382 1.373 . S
C383 C399 1.377 . S
C384 C382 1.389 . S
C384 C385 1.524 . S
C384 C398 1.377 . S
C385 C384 1.524 . S
C385 C386 1.397 . S
C385 C390 1.363 . S
C386 H363 0.950 . S
C386 C385 1.397 . S
C386 C387 1.334 . S
C387 H364 0.950 . S
C387 C386 1.334 . S
C387 C388 1.287 . S
C388 C387 1.287 . S
C388 C389 1.524 . S
C388 H407 0.913 . S
C389 H365 0.950 . S
C389 C388 1.524 . S
C389 C390 1.415 . S
C390 H366 0.950 . S
C390 C385 1.363 . S
C390 C389 1.415 . S
C391 H367 0.951 . S
C391 C392 1.366 . S
C391 C393 1.388 . S
C392 C391 1.366 . S
C392 C396 1.385 . S
C393 H368 0.951 . S
C393 C391 1.388 . S
C393 C394 1.366 . S
C394 C393 1.366 . S
C394 C395 1.414 . S
C394 C397 1.499 . S
C395 H369 0.950 . S
C395 C394 1.414 . S
C395 C396 1.374 . S
C396 H370 0.950 . S
C396 C392 1.385 . S
C396 C395 1.374 . S
C397 C394 1.499 . S
C397 C398 1.373 . S
C397 C399 1.389 . S
C398 H371 0.950 . S
C398 C384 1.377 . S
C398 C397 1.373 . S
C399 C383 1.377 . S
C399 C397 1.389 . S
C399 C400 1.524 . S
C400 C399 1.524 . S
C400 C401 1.397 . S
C400 C405 1.363 . S
C401 H372 0.950 . S
C401 C400 1.397 . S
C401 C402 1.334 . S
C402 H373 0.950 . S
C402 C401 1.334 . S
C402 C403 1.287 . S
C403 C402 1.287 . S
C403 C404 1.524 . S
C403 H406 0.999 . S
C404 H374 0.950 . S
C404 C403 1.524 . S
C404 C405 1.415 . S
C405 H375 0.950 . S
C405 C400 1.363 . S
C405 C404 1.415 . S
H406 C403 0.999 . S
H407 C388 0.913 . S
H408 C426 0.951 . S
H409 C428 0.951 . S
H410 C430 0.950 . S
H411 C431 0.950 . S
H412 C433 0.950 . S
H413 C436 0.950 . S
H414 C437 0.950 . S
H415 C439 0.950 . S
H416 C440 0.950 . S
H417 C441 0.951 . S
H418 C443 0.951 . S
H419 C445 0.950 . S
H420 C446 0.950 . S
H421 C448 0.950 . S
H422 C451 0.950 . S
H423 C452 0.950 . S
H424 C454 0.950 . S
H425 C455 0.950 . S
C426 H408 0.951 . S
C426 C427 1.366 . S
C426 C428 1.388 . S
C427 C426 1.366 . S
C427 C431 1.385 . S
C428 H409 0.951 . S
C428 C426 1.388 . S
C428 C429 1.366 . S
C429 C428 1.366 . S
C429 C430 1.414 . S
C429 C432 1.499 . S
C430 H410 0.950 . S
C430 C429 1.414 . S
C430 C431 1.374 . S
C431 H411 0.950 . S
C431 C427 1.385 . S
C431 C430 1.374 . S
C432 C429 1.499 . S
C432 C433 1.373 . S
C432 C434 1.389 . S
C433 H412 0.950 . S
C433 C432 1.373 . S
C433 C449 1.377 . S
C434 C432 1.389 . S
C434 C435 1.524 . S
C434 C448 1.377 . S
C435 C434 1.524 . S
C435 C436 1.397 . S
C435 C440 1.363 . S
C436 H413 0.950 . S
C436 C435 1.397 . S
C436 C437 1.334 . S
C437 H414 0.950 . S
C437 C436 1.334 . S
C437 C438 1.287 . S
C438 C437 1.287 . S
C438 C439 1.524 . S
C438 H457 0.913 . S
C439 H415 0.950 . S
C439 C438 1.524 . S
C439 C440 1.415 . S
C440 H416 0.950 . S
C440 C435 1.363 . S
C440 C439 1.415 . S
C441 H417 0.951 . S
C441 C442 1.366 . S
C441 C443 1.388 . S
C442 C441 1.366 . S
C442 C446 1.385 . S
C443 H418 0.951 . S
C443 C441 1.388 . S
C443 C444 1.366 . S
C444 C443 1.366 . S
C444 C445 1.414 . S
C444 C447 1.499 . S
C445 H419 0.950 . S
C445 C444 1.414 . S
C445 C446 1.374 . S
C446 H420 0.950 . S
C446 C442 1.385 . S
C446 C445 1.374 . S
C447 C444 1.499 . S
C447 C448 1.373 . S
C447 C449 1.389 . S
C448 H421 0.950 . S
C448 C434 1.377 . S
C448 C447 1.373 . S
C449 C433 1.377 . S
C449 C447 1.389 . S
C449 C450 1.524 . S
C450 C449 1.524 . S
C450 C451 1.397 . S
C450 C455 1.363 . S
C451 H422 0.950 . S
C451 C450 1.397 . S
C451 C452 1.334 . S
C452 H423 0.950 . S
C452 C451 1.334 . S
C452 C453 1.287 . S
C453 C452 1.287 . S
C453 C454 1.524 . S
C453 H456 0.999 . S
C454 H424 0.950 . S
C454 C453 1.524 . S
C454 C455 1.415 . S
C455 H425 0.950 . S
C455 C450 1.363 . S
C455 C454 1.415 . S
H456 C453 0.999 . S
H457 C438 0.913 . S
H458 C476 0.951 . S
H459 C478 0.951 . S
H460 C480 0.950 . S
H461 C481 0.950 . S
H462 C483 0.950 . S
H463 C486 0.950 . S
H464 C487 0.950 . S
H465 C489 0.950 1_455 S
H466 C490 0.950 . S
H467 C491 0.951 . S
H468 C493 0.951 . S
H469 C495 0.950 . S
H470 C496 0.950 . S
H471 C498 0.950 . S
H472 C501 0.950 . S
H473 C502 0.950 . S
H474 C504 0.950 . S
H475 C505 0.950 . S
C476 H458 0.951 . S
C476 C477 1.366 . S
C476 C478 1.388 . S
C477 C476 1.366 . S
C477 C481 1.385 . S
C478 H459 0.951 . S
C478 C476 1.388 . S
C478 C479 1.366 . S
C479 C478 1.366 . S
C479 C480 1.414 . S
C479 C482 1.499 . S
C480 H460 0.950 . S
C480 C479 1.414 . S
C480 C481 1.374 . S
C481 H461 0.950 . S
C481 C477 1.385 . S
C481 C480 1.374 . S
C482 C479 1.499 . S
C482 C483 1.373 . S
C482 C484 1.389 . S
C483 H462 0.950 . S
C483 C482 1.373 . S
C483 C499 1.377 . S
C484 C482 1.389 . S
C484 C485 1.524 . S
C484 C498 1.377 . S
C485 C484 1.524 . S
C485 C486 1.397 . S
C485 C490 1.363 . S
C486 H463 0.950 . S
C486 C485 1.397 . S
C486 C487 1.334 . S
C487 H464 0.950 . S
C487 C486 1.334 . S
C487 C488 1.287 . S
C488 C487 1.287 . S
C488 C489 1.524 . S
C488 H507 0.913 1_655 S
C489 H465 0.950 1_655 S
C489 C488 1.524 . S
C489 C490 1.415 . S
C490 H466 0.950 . S
C490 C485 1.363 . S
C490 C489 1.415 . S
C491 H467 0.951 . S
C491 C492 1.366 . S
C491 C493 1.388 . S
C492 C491 1.366 . S
C492 C496 1.385 . S
C493 H468 0.951 . S
C493 C491 1.388 . S
C493 C494 1.366 . S
C494 C493 1.366 . S
C494 C495 1.414 . S
C494 C497 1.499 . S
C495 H469 0.950 . S
C495 C494 1.414 . S
C495 C496 1.374 . S
C496 H470 0.950 . S
C496 C492 1.385 . S
C496 C495 1.374 . S
C497 C494 1.499 . S
C497 C498 1.373 . S
C497 C499 1.389 . S
C498 H471 0.950 . S
C498 C484 1.377 . S
C498 C497 1.373 . S
C499 C483 1.377 . S
C499 C497 1.389 . S
C499 C500 1.524 . S
C500 C499 1.524 . S
C500 C501 1.397 . S
C500 C505 1.363 . S
C501 H472 0.950 . S
C501 C500 1.397 . S
C501 C502 1.334 . S
C502 H473 0.950 . S
C502 C501 1.334 . S
C502 C503 1.287 . S
C503 C502 1.287 . S
C503 C504 1.524 . S
C503 H506 0.999 . S
C504 H474 0.950 . S
C504 C503 1.524 . S
C504 C505 1.415 . S
C505 H475 0.950 . S
C505 C500 1.363 . S
C505 C504 1.415 . S
H506 C503 0.999 . S
H507 C488 0.913 1_455 S
H508 C526 0.951 . S
H509 C528 0.951 . S
H510 C530 0.950 . S
H511 C531 0.950 . S
H512 C533 0.950 . S
H513 C536 0.950 . S
H514 C537 0.950 . S
H515 C539 0.950 . S
H516 C540 0.950 . S
H517 C541 0.951 . S
H518 C543 0.951 . S
H519 C545 0.950 . S
H520 C546 0.950 . S
H521 C548 0.950 . S
H522 C551 0.950 . S
H523 C552 0.950 . S
H524 C554 0.950 . S
H525 C555 0.950 . S
C526 H508 0.951 . S
C526 C527 1.366 . S
C526 C528 1.388 . S
C527 C526 1.366 . S
C527 C531 1.385 . S
C528 H509 0.951 . S
C528 C526 1.388 . S
C528 C529 1.366 . S
C529 C528 1.366 . S
C529 C530 1.414 . S
C529 C532 1.499 . S
C530 H510 0.950 . S
C530 C529 1.414 . S
C530 C531 1.374 . S
C531 H511 0.950 . S
C531 C527 1.385 . S
C531 C530 1.374 . S
C532 C529 1.499 . S
C532 C533 1.373 . S
C532 C534 1.389 . S
C533 H512 0.950 . S
C533 C532 1.373 . S
C533 C549 1.377 . S
C534 C532 1.389 . S
C534 C535 1.524 . S
C534 C548 1.377 . S
C535 C534 1.524 . S
C535 C536 1.397 . S
C535 C540 1.363 . S
C536 H513 0.950 . S
C536 C535 1.397 . S
C536 C537 1.334 . S
C537 H514 0.950 . S
C537 C536 1.334 . S
C537 C538 1.287 . S
C538 C537 1.287 . S
C538 C539 1.524 . S
C538 H557 0.913 . S
C539 H515 0.950 . S
C539 C538 1.524 . S
C539 C540 1.415 . S
C540 H516 0.950 . S
C540 C535 1.363 . S
C540 C539 1.415 . S
C541 H517 0.951 . S
C541 C542 1.366 . S
C541 C543 1.388 . S
C542 C541 1.366 . S
C542 C546 1.385 . S
C543 H518 0.951 . S
C543 C541 1.388 . S
C543 C544 1.366 . S
C544 C543 1.366 . S
C544 C545 1.414 . S
C544 C547 1.499 . S
C545 H519 0.950 . S
C545 C544 1.414 . S
C545 C546 1.374 . S
C546 H520 0.950 . S
C546 C542 1.385 . S
C546 C545 1.374 . S
C547 C544 1.499 . S
C547 C548 1.373 . S
C547 C549 1.389 . S
C548 H521 0.950 . S
C548 C534 1.377 . S
C548 C547 1.373 . S
C549 C533 1.377 . S
C549 C547 1.389 . S
C549 C550 1.524 . S
C550 C549 1.524 . S
C550 C551 1.397 . S
C550 C555 1.363 . S
C551 H522 0.950 . S
C551 C550 1.397 . S
C551 C552 1.334 . S
C552 H523 0.950 . S
C552 C551 1.334 . S
C552 C553 1.287 . S
C553 C552 1.287 . S
C553 C554 1.524 . S
C553 H556 0.999 . S
C554 H524 0.950 . S
C554 C553 1.524 . S
C554 C555 1.415 . S
C555 H525 0.950 . S
C555 C550 1.363 . S
C555 C554 1.415 . S
H556 C553 0.999 . S
H557 C538 0.913 . S
H558 C576 0.951 . S
H559 C578 0.951 . S
H560 C580 0.950 . S
H561 C581 0.950 . S
H562 C583 0.950 . S
H563 C586 0.950 . S
H564 C587 0.950 . S
H565 C589 0.950 . S
H566 C590 0.950 . S
H567 C591 0.951 . S
H568 C593 0.951 . S
H569 C595 0.950 . S
H570 C596 0.950 . S
H571 C598 0.950 . S
H572 C601 0.950 . S
H573 C602 0.950 . S
H574 C604 0.950 . S
H575 C605 0.950 . S
C576 H558 0.951 . S
C576 C577 1.366 . S
C576 C578 1.388 . S
C577 C576 1.366 . S
C577 C581 1.385 . S
C578 H559 0.951 . S
C578 C576 1.388 . S
C578 C579 1.366 . S
C579 C578 1.366 . S
C579 C580 1.414 . S
C579 C582 1.499 . S
C580 H560 0.950 . S
C580 C579 1.414 . S
C580 C581 1.374 . S
C581 H561 0.950 . S
C581 C577 1.385 . S
C581 C580 1.374 . S
C582 C579 1.499 . S
C582 C583 1.373 . S
C582 C584 1.389 . S
C583 H562 0.950 . S
C583 C582 1.373 . S
C583 C599 1.377 . S
C584 C582 1.389 . S
C584 C585 1.524 . S
C584 C598 1.377 . S
C585 C584 1.524 . S
C585 C586 1.397 . S
C585 C590 1.363 . S
C586 H563 0.950 . S
C586 C585 1.397 . S
C586 C587 1.334 . S
C587 H564 0.950 . S
C587 C586 1.334 . S
C587 C588 1.287 . S
C588 C587 1.287 . S
C588 C589 1.524 . S
C588 H607 0.913 . S
C589 H565 0.950 . S
C589 C588 1.524 . S
C589 C590 1.415 . S
C590 H566 0.950 . S
C590 C585 1.363 . S
C590 C589 1.415 . S
C591 H567 0.951 . S
C591 C592 1.366 . S
C591 C593 1.388 . S
C592 C591 1.366 . S
C592 C596 1.385 . S
C593 H568 0.951 . S
C593 C591 1.388 . S
C593 C594 1.366 . S
C594 C593 1.366 . S
C594 C595 1.414 . S
C594 C597 1.499 . S
C595 H569 0.950 . S
C595 C594 1.414 . S
C595 C596 1.374 . S
C596 H570 0.950 . S
C596 C592 1.385 . S
C596 C595 1.374 . S
C597 C594 1.499 . S
C597 C598 1.373 . S
C597 C599 1.389 . S
C598 H571 0.950 . S
C598 C584 1.377 . S
C598 C597 1.373 . S
C599 C583 1.377 . S
C599 C597 1.389 . S
C599 C600 1.524 . S
C600 C599 1.524 . S
C600 C601 1.397 . S
C600 C605 1.363 . S
C601 H572 0.950 . S
C601 C600 1.397 . S
C601 C602 1.334 . S
C602 H573 0.950 . S
C602 C601 1.334 . S
C602 C603 1.287 . S
C603 C602 1.287 . S
C603 C604 1.524 . S
C603 H606 0.999 . S
C604 H574 0.950 . S
C604 C603 1.524 . S
C604 C605 1.415 . S
C605 H575 0.950 . S
C605 C600 1.363 . S
C605 C604 1.415 . S
H606 C603 0.999 . S
H607 C588 0.913 . S
H608 C626 0.951 . S
H609 C628 0.951 . S
H610 C630 0.950 . S
H611 C631 0.950 . S
H612 C633 0.950 . S
H613 C636 0.950 . S
H614 C637 0.950 . S
H615 C639 0.950 . S
H616 C640 0.950 . S
H617 C641 0.951 . S
H618 C643 0.951 . S
H619 C645 0.950 . S
H620 C646 0.950 . S
H621 C648 0.950 . S
H622 C651 0.950 . S
H623 C652 0.950 . S
H624 C654 0.950 . S
H625 C655 0.950 . S
C626 H608 0.951 . S
C626 C627 1.366 . S
C626 C628 1.388 . S
C627 C626 1.366 . S
C627 C631 1.385 . S
C628 H609 0.951 . S
C628 C626 1.388 . S
C628 C629 1.366 . S
C629 C628 1.366 . S
C629 C630 1.414 . S
C629 C632 1.499 . S
C630 H610 0.950 . S
C630 C629 1.414 . S
C630 C631 1.374 . S
C631 H611 0.950 . S
C631 C627 1.385 . S
C631 C630 1.374 . S
C632 C629 1.499 . S
C632 C633 1.373 . S
C632 C634 1.389 . S
C633 H612 0.950 . S
C633 C632 1.373 . S
C633 C649 1.377 . S
C634 C632 1.389 . S
C634 C635 1.524 . S
C634 C648 1.377 . S
C635 C634 1.524 . S
C635 C636 1.397 . S
C635 C640 1.363 . S
C636 H613 0.950 . S
C636 C635 1.397 . S
C636 C637 1.334 . S
C637 H614 0.950 . S
C637 C636 1.334 . S
C637 C638 1.287 . S
C638 C637 1.287 . S
C638 C639 1.524 . S
C638 H657 0.913 . S
C639 H615 0.950 . S
C639 C638 1.524 . S
C639 C640 1.415 . S
C640 H616 0.950 . S
C640 C635 1.363 . S
C640 C639 1.415 . S
C641 H617 0.951 . S
C641 C642 1.366 . S
C641 C643 1.388 . S
C642 C641 1.366 . S
C642 C646 1.385 . S
C643 H618 0.951 . S
C643 C641 1.388 . S
C643 C644 1.366 . S
C644 C643 1.366 . S
C644 C645 1.414 . S
C644 C647 1.499 . S
C645 H619 0.950 . S
C645 C644 1.414 . S
C645 C646 1.374 . S
C646 H620 0.950 . S
C646 C642 1.385 . S
C646 C645 1.374 . S
C647 C644 1.499 . S
C647 C648 1.373 . S
C647 C649 1.389 . S
C648 H621 0.950 . S
C648 C634 1.377 . S
C648 C647 1.373 . S
C649 C633 1.377 . S
C649 C647 1.389 . S
C649 C650 1.524 . S
C650 C649 1.524 . S
C650 C651 1.397 . S
C650 C655 1.363 . S
C651 H622 0.950 . S
C651 C650 1.397 . S
C651 C652 1.334 . S
C652 H623 0.950 . S
C652 C651 1.334 . S
C652 C653 1.287 . S
C653 C652 1.287 . S
C653 C654 1.524 . S
C653 H656 0.999 . S
C654 H624 0.950 . S
C654 C653 1.524 . S
C654 C655 1.415 . S
C655 H625 0.950 . S
C655 C650 1.363 . S
C655 C654 1.415 . S
H656 C653 0.999 . S
H657 C638 0.913 . S
H658 C676 0.951 . S
H659 C678 0.951 . S
H660 C680 0.950 . S
H661 C681 0.950 . S
H662 C683 0.948 1_545 S
H663 C686 0.950 . S
H664 C687 0.950 . S
H665 C689 0.950 . S
H666 C690 0.966 . S
H667 C691 0.951 . S
H668 C693 0.951 . S
H669 C695 0.950 . S
H670 C696 0.950 . S
H671 C698 0.950 . S
H672 C701 0.950 . S
H673 C702 0.950 . S
H674 C704 0.950 . S
H675 C705 0.950 1_565 S
C676 H658 0.951 . S
C676 C677 1.366 1_545 S
C676 C678 1.388 . S
C677 C676 1.366 1_565 S
C677 C681 1.385 1_655 S
C678 H659 0.951 . S
C678 C676 1.388 . S
C678 C679 1.366 1_545 S
C679 C678 1.366 1_565 S
C679 C680 1.414 1_655 S
C679 C682 1.499 . S
C680 H660 0.950 . S
C680 C679 1.414 1_455 S
C680 C681 1.374 . S
C681 H661 0.950 . S
C681 C677 1.385 1_455 S
C681 C680 1.374 . S
C682 C679 1.499 . S
C682 C683 1.376 1_655 S
C682 C684 1.389 . S
C683 H662 0.948 1_565 S
C683 C682 1.376 1_455 S
C683 C699 1.376 1_565 S
C684 C682 1.389 . S
C684 C685 1.524 . S
C684 C698 1.377 . S
C685 C684 1.524 . S
C685 C686 1.397 . S
C685 C690 1.363 . S
C686 H663 0.950 . S
C686 C685 1.397 . S
C686 C687 1.334 . S
C687 H664 0.950 . S
C687 C686 1.334 . S
C687 C688 1.287 . S
C688 C687 1.287 . S
C688 C689 1.524 . S
C688 H707 0.913 . S
C689 H665 0.950 . S
C689 C688 1.524 . S
C689 C690 1.415 . S
C690 H666 0.966 . S
C690 C685 1.363 . S
C690 C689 1.415 . S
C691 H667 0.951 . S
C691 C692 1.366 1_455 S
C691 C693 1.388 . S
C692 C691 1.366 1_655 S
C692 C696 1.385 1_565 S
C693 H668 0.951 . S
C693 C691 1.388 . S
C693 C694 1.366 1_455 S
C694 C693 1.366 1_655 S
C694 C695 1.414 1_565 S
C694 C697 1.499 . S
C695 H669 0.950 . S
C695 C694 1.414 1_545 S
C695 C696 1.374 . S
C696 H670 0.950 . S
C696 C692 1.385 1_545 S
C696 C695 1.374 . S
C697 C694 1.499 . S
C697 C698 1.373 . S
C697 C699 1.389 1_665 S
C698 H671 0.950 . S
C698 C684 1.377 . S
C698 C697 1.373 . S
C699 C683 1.376 1_545 S
C699 C697 1.389 1_445 S
C699 C700 1.524 . S
C700 C699 1.524 . S
C700 C701 1.397 . S
C700 C705 1.363 . S
C701 H672 0.950 . S
C701 C700 1.397 . S
C701 C702 1.334 . S
C702 H673 0.950 . S
C702 C701 1.334 . S
C702 C703 1.287 . S
C703 C702 1.287 . S
C703 C704 1.524 . S
C703 H706 0.999 . S
C704 H674 0.950 . S
C704 C703 1.524 . S
C704 C705 1.415 . S
C705 H675 0.950 1_545 S
C705 C700 1.363 . S
C705 C704 1.415 . S
H706 C703 0.999 . S
H707 C688 0.913 . S
H708 C726 0.951 . S
H709 C728 0.951 . S
H710 C730 0.950 . S
H711 C731 0.950 . S
H712 C733 0.950 . S
H713 C736 0.950 . S
H714 C737 0.950 . S
H715 C739 0.950 . S
H716 C740 0.950 1_554 S
H717 C741 0.951 . S
H718 C743 0.951 . S
H719 C745 0.950 . S
H720 C746 0.950 . S
H721 C748 0.950 . S
H722 C751 0.950 . S
H723 C752 0.950 . S
H724 C754 0.950 . S
H725 C755 0.950 . S
C726 H708 0.951 . S
C726 C727 1.366 . S
C726 C728 1.388 . S
C727 C726 1.366 . S
C727 C731 1.385 . S
C728 H709 0.951 . S
C728 C726 1.388 . S
C728 C729 1.366 . S
C729 C728 1.366 . S
C729 C730 1.414 . S
C729 C732 1.499 . S
C730 H710 0.950 . S
C730 C729 1.414 . S
C730 C731 1.374 . S
C731 H711 0.950 . S
C731 C727 1.385 . S
C731 C730 1.374 . S
C732 C729 1.499 . S
C732 C733 1.373 . S
C732 C734 1.389 . S
C733 H712 0.950 . S
C733 C732 1.373 . S
C733 C749 1.377 1_556 S
C734 C732 1.389 . S
C734 C735 1.524 . S
C734 C748 1.377 1_556 S
C735 C734 1.524 . S
C735 C736 1.397 . S
C735 C740 1.363 . S
C736 H713 0.950 . S
C736 C735 1.397 . S
C736 C737 1.334 . S
C737 H714 0.950 . S
C737 C736 1.334 . S
C737 C738 1.287 . S
C738 C737 1.287 . S
C738 C739 1.524 . S
C738 H757 0.913 . S
C739 H715 0.950 . S
C739 C738 1.524 . S
C739 C740 1.415 . S
C740 H716 0.950 1_556 S
C740 C735 1.363 . S
C740 C739 1.415 . S
C741 H717 0.951 . S
C741 C742 1.366 . S
C741 C743 1.388 . S
C742 C741 1.366 . S
C742 C746 1.385 . S
C743 H718 0.951 . S
C743 C741 1.388 . S
C743 C744 1.366 . S
C744 C743 1.366 . S
C744 C745 1.414 . S
C744 C747 1.499 . S
C745 H719 0.950 . S
C745 C744 1.414 . S
C745 C746 1.374 . S
C746 H720 0.950 . S
C746 C742 1.385 . S
C746 C745 1.374 . S
C747 C744 1.499 . S
C747 C748 1.373 . S
C747 C749 1.389 . S
C748 H721 0.950 . S
C748 C734 1.377 1_554 S
C748 C747 1.373 . S
C749 C733 1.377 1_554 S
C749 C747 1.389 . S
C749 C750 1.524 . S
C750 C749 1.524 . S
C750 C751 1.397 . S
C750 C755 1.363 . S
C751 H722 0.950 . S
C751 C750 1.397 . S
C751 C752 1.334 . S
C752 H723 0.950 . S
C752 C751 1.334 . S
C752 C753 1.287 . S
C753 C752 1.287 . S
C753 C754 1.524 . S
C753 H756 0.999 . S
C754 H724 0.950 . S
C754 C753 1.524 . S
C754 C755 1.415 . S
C755 H725 0.950 . S
C755 C750 1.363 . S
C755 C754 1.415 . S
H756 C753 0.999 . S
H757 C738 0.913 . S
H758 C776 0.952 . S
H759 C778 0.949 1_565 S
H760 C780 0.950 . S
H761 C781 0.950 . S
H762 C783 0.950 . S
H763 C786 0.950 . S
H764 C787 0.950 . S
H765 C789 0.950 . S
H766 C790 0.950 . S
H767 C791 0.951 . S
H768 C793 0.951 . S
H769 C795 0.950 . S
H770 C796 0.950 . S
H771 C798 0.950 . S
H772 C801 0.950 . S
H773 C802 0.950 . S
H774 C804 0.950 . S
H775 C805 0.950 . S
C776 H758 0.952 . S
C776 C777 1.366 . S
C776 C778 1.389 . S
C777 C776 1.366 . S
C777 C781 1.385 . S
C778 H759 0.949 1_545 S
C778 C776 1.389 . S
C778 C779 1.366 . S
C779 C778 1.366 . S
C779 C780 1.414 . S
C779 C782 1.499 . S
C780 H760 0.950 . S
C780 C779 1.414 . S
C780 C781 1.374 . S
C781 H761 0.950 . S
C781 C777 1.385 . S
C781 C780 1.374 . S
C782 C779 1.499 . S
C782 C783 1.373 . S
C782 C784 1.389 1_545 S
C783 H762 0.950 . S
C783 C782 1.373 . S
C783 C799 1.377 . S
C784 C782 1.389 1_565 S
C784 C785 1.524 . S
C784 C798 1.377 . S
C785 C784 1.524 . S
C785 C786 1.397 . S
C785 C790 1.363 . S
C786 H763 0.950 . S
C786 C785 1.397 . S
C786 C787 1.334 . S
C787 H764 0.950 . S
C787 C786 1.334 . S
C787 C788 1.287 . S
C788 C787 1.287 . S
C788 C789 1.524 . S
C788 H807 0.913 . S
C789 H765 0.950 . S
C789 C788 1.524 . S
C789 C790 1.415 . S
C790 H766 0.950 . S
C790 C785 1.363 . S
C790 C789 1.415 . S
C791 H767 0.951 . S
C791 C792 1.366 1_545 S
C791 C793 1.388 . S
C792 C791 1.366 1_565 S
C792 C796 1.385 . S
C793 H768 0.951 . S
C793 C791 1.388 . S
C793 C794 1.366 . S
C794 C793 1.366 . S
C794 C795 1.414 1_545 S
C794 C797 1.499 . S
C795 H769 0.950 . S
C795 C794 1.414 1_565 S
C795 C796 1.374 . S
C796 H770 0.950 . S
C796 C792 1.385 . S
C796 C795 1.374 . S
C797 C794 1.499 . S
C797 C798 1.373 1_545 S
C797 C799 1.389 . S
C798 H771 0.950 . S
C798 C784 1.377 . S
C798 C797 1.373 1_565 S
C799 C783 1.377 . S
C799 C797 1.389 . S
C799 C800 1.524 . S
C800 C799 1.524 . S
C800 C801 1.397 . S
C800 C805 1.363 . S
C801 H772 0.950 . S
C801 C800 1.397 . S
C801 C802 1.334 . S
C802 H773 0.950 . S
C802 C801 1.334 . S
C802 C803 1.287 . S
C803 C802 1.287 . S
C803 C804 1.524 . S
C803 H806 0.999 . S
C804 H774 0.950 . S
C804 C803 1.524 . S
C804 C805 1.415 . S
C805 H775 0.950 . S
C805 C800 1.363 . S
C805 C804 1.415 . S
H806 C803 0.999 . S
H807 C788 0.913 . S
H808 C826 0.951 . S
H809 C828 0.951 . S
H810 C830 0.950 . S
H811 C831 0.950 . S
H812 C833 0.950 . S
H813 C836 0.950 . S
H814 C837 0.950 . S
H815 C839 0.950 . S
H816 C840 0.950 . S
H817 C841 0.951 . S
H818 C843 0.951 . S
H819 C845 0.950 . S
H820 C846 0.950 . S
H821 C848 0.950 . S
H822 C851 0.950 . S
H823 C852 0.950 . S
H824 C854 0.950 . S
H825 C855 0.950 . S
C826 H808 0.951 . S
C826 C827 1.366 . S
C826 C828 1.388 . S
C827 C826 1.366 . S
C827 C831 1.385 . S
C828 H809 0.951 . S
C828 C826 1.388 . S
C828 C829 1.366 . S
C829 C828 1.366 . S
C829 C830 1.414 . S
C829 C832 1.499 . S
C830 H810 0.950 . S
C830 C829 1.414 . S
C830 C831 1.374 . S
C831 H811 0.950 . S
C831 C827 1.385 . S
C831 C830 1.374 . S
C832 C829 1.499 . S
C832 C833 1.373 . S
C832 C834 1.389 . S
C833 H812 0.950 . S
C833 C832 1.373 . S
C833 C849 1.377 . S
C834 C832 1.389 . S
C834 C835 1.524 . S
C834 C848 1.377 . S
C835 C834 1.524 . S
C835 C836 1.397 . S
C835 C840 1.363 . S
C836 H813 0.950 . S
C836 C835 1.397 . S
C836 C837 1.334 . S
C837 H814 0.950 . S
C837 C836 1.334 . S
C837 C838 1.287 . S
C838 C837 1.287 . S
C838 C839 1.524 . S
C838 H857 0.913 . S
C839 H815 0.950 . S
C839 C838 1.524 . S
C839 C840 1.415 . S
C840 H816 0.950 . S
C840 C835 1.363 . S
C840 C839 1.415 . S
C841 H817 0.951 . S
C841 C842 1.366 . S
C841 C843 1.388 . S
C842 C841 1.366 . S
C842 C846 1.385 . S
C843 H818 0.951 . S
C843 C841 1.388 . S
C843 C844 1.366 . S
C844 C843 1.366 . S
C844 C845 1.414 . S
C844 C847 1.499 . S
C845 H819 0.950 . S
C845 C844 1.414 . S
C845 C846 1.374 . S
C846 H820 0.950 . S
C846 C842 1.385 . S
C846 C845 1.374 . S
C847 C844 1.499 . S
C847 C848 1.373 . S
C847 C849 1.389 . S
C848 H821 0.950 . S
C848 C834 1.377 . S
C848 C847 1.373 . S
C849 C833 1.377 . S
C849 C847 1.389 . S
C849 C850 1.524 . S
C850 C849 1.524 . S
C850 C851 1.397 . S
C850 C855 1.363 . S
C851 H822 0.950 . S
C851 C850 1.397 . S
C851 C852 1.334 . S
C852 H823 0.950 . S
C852 C851 1.334 . S
C852 C853 1.287 . S
C853 C852 1.287 . S
C853 C854 1.524 . S
C853 H856 0.999 . S
C854 H824 0.950 . S
C854 C853 1.524 . S
C854 C855 1.415 . S
C855 H825 0.950 . S
C855 C850 1.363 . S
C855 C854 1.415 . S
H856 C853 0.999 . S
H857 C838 0.913 . S
H858 C876 0.951 . S
H859 C878 0.951 . S
H860 C880 0.950 . S
H861 C881 0.950 . S
H862 C883 0.950 . S
H863 C886 0.950 1_455 S
H864 C887 0.950 . S
H865 C889 0.950 . S
H866 C890 0.950 . S
H867 C891 0.951 . S
H868 C893 0.951 . S
H869 C895 0.950 . S
H870 C896 0.950 . S
H871 C898 0.950 . S
H872 C901 0.950 1_655 S
H873 C902 0.950 . S
H874 C904 0.950 . S
H875 C905 0.950 . S
C876 H858 0.951 . S
C876 C877 1.366 . S
C876 C878 1.388 . S
C877 C876 1.366 . S
C877 C881 1.385 1_655 S
C878 H859 0.951 . S
C878 C876 1.388 . S
C878 C879 1.366 . S
C879 C878 1.366 . S
C879 C880 1.414 1_655 S
C879 C882 1.499 . S
C880 H860 0.950 . S
C880 C879 1.414 1_455 S
C880 C881 1.374 . S
C881 H861 0.950 . S
C881 C877 1.385 1_455 S
C881 C880 1.374 . S
C882 C879 1.499 . S
C882 C883 1.373 1_655 S
C882 C884 1.389 . S
C883 H862 0.950 . S
C883 C882 1.373 1_455 S
C883 C899 1.377 . S
C884 C882 1.389 . S
C884 C885 1.524 . S
C884 C898 1.377 . S
C885 C884 1.524 . S
C885 C886 1.397 . S
C885 C890 1.363 . S
C886 H863 0.950 1_655 S
C886 C885 1.397 . S
C886 C887 1.334 . S
C887 H864 0.950 . S
C887 C886 1.334 . S
C887 C888 1.287 . S
C888 C887 1.287 . S
C888 C889 1.524 . S
C888 H907 0.913 . S
C889 H865 0.950 . S
C889 C888 1.524 . S
C889 C890 1.415 . S
C890 H866 0.950 . S
C890 C885 1.363 . S
C890 C889 1.415 . S
C891 H867 0.951 . S
C891 C892 1.366 1_455 S
C891 C893 1.388 . S
C892 C891 1.366 1_655 S
C892 C896 1.385 . S
C893 H868 0.951 . S
C893 C891 1.388 . S
C893 C894 1.366 1_455 S
C894 C893 1.366 1_655 S
C894 C895 1.414 . S
C894 C897 1.499 . S
C895 H869 0.950 . S
C895 C894 1.414 . S
C895 C896 1.374 . S
C896 H870 0.950 . S
C896 C892 1.385 . S
C896 C895 1.374 . S
C897 C894 1.499 . S
C897 C898 1.373 . S
C897 C899 1.389 1_655 S
C898 H871 0.950 . S
C898 C884 1.377 . S
C898 C897 1.373 . S
C899 C883 1.377 . S
C899 C897 1.389 1_455 S
C899 C900 1.524 . S
C900 C899 1.524 . S
C900 C901 1.397 . S
C900 C905 1.363 . S
C901 H872 0.950 1_455 S
C901 C900 1.397 . S
C901 C902 1.334 . S
C902 H873 0.950 . S
C902 C901 1.334 . S
C902 C903 1.287 . S
C903 C902 1.287 . S
C903 C904 1.524 . S
C903 H906 0.999 . S
C904 H874 0.950 . S
C904 C903 1.524 . S
C904 C905 1.415 . S
C905 H875 0.950 . S
C905 C900 1.363 . S
C905 C904 1.415 . S
H906 C903 0.999 . S
H907 C888 0.913 . S
H908 C926 0.951 . S
H909 C928 0.951 . S
H910 C930 0.950 . S
H911 C931 0.950 . S
H912 C933 0.950 . S
H913 C936 0.950 . S
H914 C937 0.950 . S
H915 C939 0.950 . S
H916 C940 0.950 . S
H917 C941 0.951 . S
H918 C943 0.951 . S
H919 C945 0.950 . S
H920 C946 0.950 . S
H921 C948 0.950 . S
H922 C951 0.950 . S
H923 C952 0.950 . S
H924 C954 0.950 . S
H925 C955 0.950 . S
C926 H908 0.951 . S
C926 C927 1.366 . S
C926 C928 1.388 . S
C927 C926 1.366 . S
C927 C931 1.385 . S
C928 H909 0.951 . S
C928 C926 1.388 . S
C928 C929 1.366 . S
C929 C928 1.366 . S
C929 C930 1.414 . S
C929 C932 1.499 . S
C930 H910 0.950 . S
C930 C929 1.414 . S
C930 C931 1.374 . S
C931 H911 0.950 . S
C931 C927 1.385 . S
C931 C930 1.374 . S
C932 C929 1.499 . S
C932 C933 1.373 . S
C932 C934 1.389 . S
C933 H912 0.950 . S
C933 C932 1.373 . S
C933 C949 1.377 1_655 S
C934 C932 1.389 . S
C934 C935 1.524 . S
C934 C948 1.377 1_655 S
C935 C934 1.524 . S
C935 C936 1.397 . S
C935 C940 1.363 . S
C936 H913 0.950 . S
C936 C935 1.397 . S
C936 C937 1.334 . S
C937 H914 0.950 . S
C937 C936 1.334 . S
C937 C938 1.287 . S
C938 C937 1.287 . S
C938 C939 1.524 . S
C938 H957 0.913 . S
C939 H915 0.950 . S
C939 C938 1.524 . S
C939 C940 1.415 . S
C940 H916 0.950 . S
C940 C935 1.363 . S
C940 C939 1.415 . S
C941 H917 0.951 . S
C941 C942 1.366 . S
C941 C943 1.388 . S
C942 C941 1.366 . S
C942 C946 1.385 . S
C943 H918 0.951 . S
C943 C941 1.388 . S
C943 C944 1.366 . S
C944 C943 1.366 . S
C944 C945 1.414 . S
C944 C947 1.499 . S
C945 H919 0.950 . S
C945 C944 1.414 . S
C945 C946 1.374 . S
C946 H920 0.950 . S
C946 C942 1.385 . S
C946 C945 1.374 . S
C947 C944 1.499 . S
C947 C948 1.373 . S
C947 C949 1.389 . S
C948 H921 0.950 . S
C948 C934 1.377 1_455 S
C948 C947 1.373 . S
C949 C933 1.377 1_455 S
C949 C947 1.389 . S
C949 C950 1.524 . S
C950 C949 1.524 . S
C950 C951 1.397 . S
C950 C955 1.363 . S
C951 H922 0.950 . S
C951 C950 1.397 . S
C951 C952 1.334 . S
C952 H923 0.950 . S
C952 C951 1.334 . S
C952 C953 1.287 . S
C953 C952 1.287 . S
C953 C954 1.524 . S
C953 H956 0.999 . S
C954 H924 0.950 . S
C954 C953 1.524 . S
C954 C955 1.415 . S
C955 H925 0.950 . S
C955 C950 1.363 . S
C955 C954 1.415 . S
H956 C953 0.999 . S
H957 C938 0.913 . S
H958 C976 0.951 . S
H959 C978 0.951 . S
H960 C980 0.950 . S
H961 C981 0.950 . S
H962 C983 0.950 1_556 S
H963 C986 0.950 . S
H964 C987 0.950 . S
H965 C989 0.950 . S
H966 C990 0.950 . S
H967 C991 0.951 . S
H968 C993 0.951 . S
H969 C995 0.950 . S
H970 C996 0.950 . S
H971 C998 0.950 . S
H972 C1001 0.950 . S
H973 C1002 0.950 . S
H974 C1004 0.950 . S
H975 C1005 0.950 . S
C976 H958 0.951 . S
C976 C977 1.366 . S
C976 C978 1.388 . S
C977 C976 1.366 . S
C977 C981 1.385 1_554 S
C978 H959 0.951 . S
C978 C976 1.388 . S
C978 C979 1.366 . S
C979 C978 1.366 . S
C979 C980 1.414 1_554 S
C979 C982 1.499 . S
C980 H960 0.950 . S
C980 C979 1.414 1_556 S
C980 C981 1.374 . S
C981 H961 0.950 . S
C981 C977 1.385 1_556 S
C981 C980 1.374 . S
C982 C979 1.499 . S
C982 C983 1.373 . S
C982 C984 1.389 . S
C983 H962 0.950 1_554 S
C983 C982 1.373 . S
C983 C999 1.377 . S
C984 C982 1.389 . S
C984 C985 1.524 . S
C984 C998 1.377 . S
C985 C984 1.524 . S
C985 C986 1.397 1_554 S
C985 C990 1.363 . S
C986 H963 0.950 . S
C986 C985 1.397 1_556 S
C986 C987 1.334 . S
C987 H964 0.950 . S
C987 C986 1.334 . S
C987 C988 1.287 1_556 S
C988 C987 1.287 1_554 S
C988 C989 1.524 . S
C988 H1007 0.913 . S
C989 H965 0.950 . S
C989 C988 1.524 . S
C989 C990 1.415 . S
C990 H966 0.950 . S
C990 C985 1.363 . S
C990 C989 1.415 . S
C991 H967 0.951 . S
C991 C992 1.366 1_556 S
C991 C993 1.388 . S
C992 C991 1.366 1_554 S
C992 C996 1.385 . S
C993 H968 0.951 . S
C993 C991 1.388 . S
C993 C994 1.366 1_556 S
C994 C993 1.366 1_554 S
C994 C995 1.414 . S
C994 C997 1.499 . S
C995 H969 0.950 . S
C995 C994 1.414 . S
C995 C996 1.374 . S
C996 H970 0.950 . S
C996 C992 1.385 . S
C996 C995 1.374 . S
C997 C994 1.499 . S
C997 C998 1.373 . S
C997 C999 1.389 . S
C998 H971 0.950 . S
C998 C984 1.377 . S
C998 C997 1.373 . S
C999 C983 1.377 . S
C999 C997 1.389 . S
C999 C1000 1.525 . S
C1000 C999 1.525 . S
C1000 C1001 1.398 . S
C1000 C1005 1.361 1_554 S
C1001 H972 0.950 . S
C1001 C1000 1.398 . S
C1001 C1002 1.334 . S
C1002 H973 0.950 . S
C1002 C1001 1.334 . S
C1002 C1003 1.284 . S
C1003 C1002 1.284 . S
C1003 C1004 1.527 1_554 S
C1003 H1006 1.000 1_554 S
C1004 H974 0.950 . S
C1004 C1003 1.527 1_556 S
C1004 C1005 1.415 . S
C1005 H975 0.950 . S
C1005 C1000 1.361 1_556 S
C1005 C1004 1.415 . S
H1006 C1003 1.000 1_556 S
H1007 C988 0.913 . S
H1008 C1026 0.951 . S
H1009 C1028 0.951 . S
H1010 C1030 0.950 . S
H1011 C1031 0.950 . S
H1012 C1033 0.950 . S
H1013 C1036 0.950 . S
H1014 C1037 0.950 . S
H1015 C1039 0.950 . S
H1016 C1040 0.950 . S
H1017 C1041 0.951 . S
H1018 C1043 0.951 . S
H1019 C1045 0.950 . S
H1020 C1046 0.950 . S
H1021 C1048 0.950 . S
H1022 C1051 0.950 . S
H1023 C1052 0.950 . S
H1024 C1054 0.950 . S
H1025 C1055 0.950 . S
C1026 H1008 0.951 . S
C1026 C1027 1.366 . S
C1026 C1028 1.388 . S
C1027 C1026 1.366 . S
C1027 C1031 1.385 . S
C1028 H1009 0.951 . S
C1028 C1026 1.388 . S
C1028 C1029 1.366 . S
C1029 C1028 1.366 . S
C1029 C1030 1.414 . S
C1029 C1032 1.499 . S
C1030 H1010 0.950 . S
C1030 C1029 1.414 . S
C1030 C1031 1.374 . S
C1031 H1011 0.950 . S
C1031 C1027 1.385 . S
C1031 C1030 1.374 . S
C1032 C1029 1.499 . S
C1032 C1033 1.373 . S
C1032 C1034 1.389 . S
C1033 H1012 0.950 . S
C1033 C1032 1.373 . S
C1033 C1049 1.377 . S
C1034 C1032 1.389 . S
C1034 C1035 1.524 . S
C1034 C1048 1.377 . S
C1035 C1034 1.524 . S
C1035 C1036 1.397 . S
C1035 C1040 1.363 . S
C1036 H1013 0.950 . S
C1036 C1035 1.397 . S
C1036 C1037 1.334 . S
C1037 H1014 0.950 . S
C1037 C1036 1.334 . S
C1037 C1038 1.287 . S
C1038 C1037 1.287 . S
C1038 C1039 1.524 . S
C1038 H1057 0.913 . S
C1039 H1015 0.950 . S
C1039 C1038 1.524 . S
C1039 C1040 1.415 . S
C1040 H1016 0.950 . S
C1040 C1035 1.363 . S
C1040 C1039 1.415 . S
C1041 H1017 0.951 . S
C1041 C1042 1.366 . S
C1041 C1043 1.388 . S
C1042 C1041 1.366 . S
C1042 C1046 1.385 . S
C1043 H1018 0.951 . S
C1043 C1041 1.388 . S
C1043 C1044 1.366 . S
C1044 C1043 1.366 . S
C1044 C1045 1.414 . S
C1044 C1047 1.499 . S
C1045 H1019 0.950 . S
C1045 C1044 1.414 . S
C1045 C1046 1.374 . S
C1046 H1020 0.950 . S
C1046 C1042 1.385 . S
C1046 C1045 1.374 . S
C1047 C1044 1.499 . S
C1047 C1048 1.373 . S
C1047 C1049 1.389 . S
C1048 H1021 0.950 . S
C1048 C1034 1.377 . S
C1048 C1047 1.373 . S
C1049 C1033 1.377 . S
C1049 C1047 1.389 . S
C1049 C1050 1.524 . S
C1050 C1049 1.524 . S
C1050 C1051 1.397 . S
C1050 C1055 1.363 . S
C1051 H1022 0.950 . S
C1051 C1050 1.397 . S
C1051 C1052 1.334 . S
C1052 H1023 0.950 . S
C1052 C1051 1.334 . S
C1052 C1053 1.287 . S
C1053 C1052 1.287 . S
C1053 C1054 1.524 . S
C1053 H1056 0.999 . S
C1054 H1024 0.950 . S
C1054 C1053 1.524 . S
C1054 C1055 1.415 . S
C1055 H1025 0.950 . S
C1055 C1050 1.363 . S
C1055 C1054 1.415 . S
H1056 C1053 0.999 . S
H1057 C1038 0.913 . S
H1058 C1076 0.951 . S
H1059 C1078 0.951 . S
H1060 C1080 0.950 . S
H1061 C1081 0.950 . S
H1062 C1083 0.950 . S
H1063 C1086 0.950 . S
H1064 C1087 0.950 . S
H1065 C1089 0.950 . S
H1066 C1090 0.950 . S
H1067 C1091 0.951 . S
H1068 C1093 0.951 . S
H1069 C1095 0.950 . S
H1070 C1096 0.950 . S
H1071 C1098 0.950 . S
H1072 C1101 0.950 . S
H1073 C1102 0.950 . S
H1074 C1104 0.950 . S
H1075 C1105 0.950 . S
C1076 H1058 0.951 . S
C1076 C1077 1.366 . S
C1076 C1078 1.388 . S
C1077 C1076 1.366 . S
C1077 C1081 1.385 . S
C1078 H1059 0.951 . S
C1078 C1076 1.388 . S
C1078 C1079 1.366 . S
C1079 C1078 1.366 . S
C1079 C1080 1.414 . S
C1079 C1082 1.499 . S
C1080 H1060 0.950 . S
C1080 C1079 1.414 . S
C1080 C1081 1.374 . S
C1081 H1061 0.950 . S
C1081 C1077 1.385 . S
C1081 C1080 1.374 . S
C1082 C1079 1.499 . S
C1082 C1083 1.373 . S
C1082 C1084 1.389 . S
C1083 H1062 0.950 . S
C1083 C1082 1.373 . S
C1083 C1099 1.377 . S
C1084 C1082 1.389 . S
C1084 C1085 1.524 . S
C1084 C1098 1.377 . S
C1085 C1084 1.524 . S
C1085 C1086 1.397 . S
C1085 C1090 1.363 . S
C1086 H1063 0.950 . S
C1086 C1085 1.397 . S
C1086 C1087 1.334 . S
C1087 H1064 0.950 . S
C1087 C1086 1.334 . S
C1087 C1088 1.287 . S
C1088 C1087 1.287 . S
C1088 C1089 1.524 . S
C1088 H1107 0.913 . S
C1089 H1065 0.950 . S
C1089 C1088 1.524 . S
C1089 C1090 1.415 . S
C1090 H1066 0.950 . S
C1090 C1085 1.363 . S
C1090 C1089 1.415 . S
C1091 H1067 0.951 . S
C1091 C1092 1.366 . S
C1091 C1093 1.388 . S
C1092 C1091 1.366 . S
C1092 C1096 1.385 . S
C1093 H1068 0.951 . S
C1093 C1091 1.388 . S
C1093 C1094 1.366 . S
C1094 C1093 1.366 . S
C1094 C1095 1.414 . S
C1094 C1097 1.499 . S
C1095 H1069 0.950 . S
C1095 C1094 1.414 . S
C1095 C1096 1.374 . S
C1096 H1070 0.950 . S
C1096 C1092 1.385 . S
C1096 C1095 1.374 . S
C1097 C1094 1.499 . S
C1097 C1098 1.373 . S
C1097 C1099 1.389 . S
C1098 H1071 0.950 . S
C1098 C1084 1.377 . S
C1098 C1097 1.373 . S
C1099 C1083 1.377 . S
C1099 C1097 1.389 . S
C1099 C1100 1.524 . S
C1100 C1099 1.524 . S
C1100 C1101 1.397 . S
C1100 C1105 1.363 . S
C1101 H1072 0.950 . S
C1101 C1100 1.397 . S
C1101 C1102 1.334 . S
C1102 H1073 0.950 . S
C1102 C1101 1.334 . S
C1102 C1103 1.287 . S
C1103 C1102 1.287 . S
C1103 C1104 1.524 . S
C1103 H1106 0.999 . S
C1104 H1074 0.950 . S
C1104 C1103 1.524 . S
C1104 C1105 1.415 . S
C1105 H1075 0.950 . S
C1105 C1100 1.363 . S
C1105 C1104 1.415 . S
H1106 C1103 0.999 . S
H1107 C1088 0.913 . S
H1108 C1126 0.951 . S
H1109 C1128 0.951 . S
H1110 C1130 0.950 . S
H1111 C1131 0.950 . S
H1112 C1133 0.950 . S
H1113 C1136 0.950 . S
H1114 C1137 0.950 . S
H1115 C1139 0.950 . S
H1116 C1140 0.950 . S
H1117 C1141 0.951 . S
H1118 C1143 0.951 . S
H1119 C1145 0.950 . S
H1120 C1146 0.950 . S
H1121 C1148 0.950 . S
H1122 C1151 0.950 . S
H1123 C1152 0.950 . S
H1124 C1154 0.950 . S
H1125 C1155 0.950 . S
C1126 H1108 0.951 . S
C1126 C1127 1.366 . S
C1126 C1128 1.388 . S
C1127 C1126 1.366 . S
C1127 C1131 1.385 . S
C1128 H1109 0.951 . S
C1128 C1126 1.388 . S
C1128 C1129 1.366 . S
C1129 C1128 1.366 . S
C1129 C1130 1.414 . S
C1129 C1132 1.499 . S
C1130 H1110 0.950 . S
C1130 C1129 1.414 . S
C1130 C1131 1.374 . S
C1131 H1111 0.950 . S
C1131 C1127 1.385 . S
C1131 C1130 1.374 . S
C1132 C1129 1.499 . S
C1132 C1133 1.373 . S
C1132 C1134 1.389 . S
C1133 H1112 0.950 . S
C1133 C1132 1.373 . S
C1133 C1149 1.377 1_455 S
C1134 C1132 1.389 . S
C1134 C1135 1.524 . S
C1134 C1148 1.377 1_455 S
C1135 C1134 1.524 . S
C1135 C1136 1.397 . S
C1135 C1140 1.363 . S
C1136 H1113 0.950 . S
C1136 C1135 1.397 . S
C1136 C1137 1.334 . S
C1137 H1114 0.950 . S
C1137 C1136 1.334 . S
C1137 C1138 1.287 . S
C1138 C1137 1.287 . S
C1138 C1139 1.524 . S
C1138 H1157 0.913 . S
C1139 H1115 0.950 . S
C1139 C1138 1.524 . S
C1139 C1140 1.415 . S
C1140 H1116 0.950 . S
C1140 C1135 1.363 . S
C1140 C1139 1.415 . S
C1141 H1117 0.951 . S
C1141 C1142 1.366 . S
C1141 C1143 1.388 . S
C1142 C1141 1.366 . S
C1142 C1146 1.385 . S
C1143 H1118 0.951 . S
C1143 C1141 1.388 . S
C1143 C1144 1.366 . S
C1144 C1143 1.366 . S
C1144 C1145 1.414 . S
C1144 C1147 1.499 . S
C1145 H1119 0.950 . S
C1145 C1144 1.414 . S
C1145 C1146 1.374 . S
C1146 H1120 0.950 . S
C1146 C1142 1.385 . S
C1146 C1145 1.374 . S
C1147 C1144 1.499 . S
C1147 C1148 1.373 . S
C1147 C1149 1.389 . S
C1148 H1121 0.950 . S
C1148 C1134 1.377 1_655 S
C1148 C1147 1.373 . S
C1149 C1133 1.377 1_655 S
C1149 C1147 1.389 . S
C1149 C1150 1.524 . S
C1150 C1149 1.524 . S
C1150 C1151 1.397 . S
C1150 C1155 1.363 . S
C1151 H1122 0.950 . S
C1151 C1150 1.397 . S
C1151 C1152 1.334 . S
C1152 H1123 0.950 . S
C1152 C1151 1.334 . S
C1152 C1153 1.287 . S
C1153 C1152 1.287 . S
C1153 C1154 1.524 . S
C1153 H1156 0.999 . S
C1154 H1124 0.950 . S
C1154 C1153 1.524 . S
C1154 C1155 1.415 . S
C1155 H1125 0.950 . S
C1155 C1150 1.363 . S
C1155 C1154 1.415 . S
H1156 C1153 0.999 . S
H1157 C1138 0.913 . S
H1158 C1176 0.951 . S
H1159 C1178 0.951 . S
H1160 C1180 0.950 . S
H1161 C1181 0.950 . S
H1162 C1183 0.950 . S
H1163 C1186 0.950 . S
H1164 C1187 0.950 . S
H1165 C1189 0.950 . S
H1166 C1190 0.950 . S
H1167 C1191 0.951 . S
H1168 C1193 0.951 . S
H1169 C1195 0.950 . S
H1170 C1196 0.950 . S
H1171 C1198 0.950 . S
H1172 C1201 0.950 . S
H1173 C1202 0.950 . S
H1174 C1204 0.950 . S
H1175 C1205 0.950 . S
C1176 H1158 0.951 . S
C1176 C1177 1.366 1_655 S
C1176 C1178 1.388 . S
C1177 C1176 1.366 1_455 S
C1177 C1181 1.385 . S
C1178 H1159 0.951 . S
C1178 C1176 1.388 . S
C1178 C1179 1.358 1_655 S
C1179 C1178 1.358 1_455 S
C1179 C1180 1.422 . S
C1179 C1182 1.498 . S
C1180 H1160 0.950 . S
C1180 C1179 1.422 . S
C1180 C1181 1.374 . S
C1181 H1161 0.950 . S
C1181 C1177 1.385 . S
C1181 C1180 1.374 . S
C1182 C1179 1.498 . S
C1182 C1183 1.391 . S
C1182 C1184 1.373 1_455 S
C1183 H1162 0.950 . S
C1183 C1182 1.391 . S
C1183 C1199 1.377 . S
C1184 C1182 1.373 1_655 S
C1184 C1185 1.524 1_556 S
C1184 C1198 1.377 . S
C1185 C1184 1.524 1_554 S
C1185 C1186 1.397 . S
C1185 C1190 1.363 1_554 S
C1186 H1163 0.950 . S
C1186 C1185 1.397 . S
C1186 C1187 1.334 . S
C1187 H1164 0.950 . S
C1187 C1186 1.334 . S
C1187 C1188 1.287 . S
C1188 C1187 1.287 . S
C1188 C1189 1.524 . S
C1188 H1207 0.913 . S
C1189 H1165 0.950 . S
C1189 C1188 1.524 . S
C1189 C1190 1.415 1_554 S
C1190 H1166 0.950 . S
C1190 C1185 1.363 1_556 S
C1190 C1189 1.415 1_556 S
C1191 H1167 0.951 . S
C1191 C1192 1.366 1_455 S
C1191 C1193 1.388 . S
C1192 C1191 1.366 1_655 S
C1192 C1196 1.385 . S
C1193 H1168 0.951 . S
C1193 C1191 1.388 . S
C1193 C1194 1.366 1_455 S
C1194 C1193 1.366 1_655 S
C1194 C1195 1.414 . S
C1194 C1197 1.499 . S
C1195 H1169 0.950 . S
C1195 C1194 1.414 . S
C1195 C1196 1.374 . S
C1196 H1170 0.950 . S
C1196 C1192 1.385 . S
C1196 C1195 1.374 . S
C1197 C1194 1.499 . S
C1197 C1198 1.373 . S
C1197 C1199 1.389 1_655 S
C1198 H1171 0.950 . S
C1198 C1184 1.377 . S
C1198 C1197 1.373 . S
C1199 C1183 1.377 . S
C1199 C1197 1.389 1_455 S
C1199 C1200 1.524 . S
C1200 C1199 1.524 . S
C1200 C1201 1.397 . S
C1200 C1205 1.363 . S
C1201 H1172 0.950 . S
C1201 C1200 1.397 . S
C1201 C1202 1.334 . S
C1202 H1173 0.950 . S
C1202 C1201 1.334 . S
C1202 C1203 1.287 . S
C1203 C1202 1.287 . S
C1203 C1204 1.524 . S
C1203 H1206 0.999 . S
C1204 H1174 0.950 . S
C1204 C1203 1.524 . S
C1204 C1205 1.415 . S
C1205 H1175 0.950 . S
C1205 C1200 1.363 . S
C1205 C1204 1.415 . S
H1206 C1203 0.999 . S
H1207 C1188 0.913 . S
H1208 C1226 0.951 . S
H1209 C1228 0.951 . S
H1210 C1230 0.950 . S
H1211 C1231 0.950 . S
H1212 C1233 0.950 . S
H1213 C1236 0.950 . S
H1214 C1237 0.950 . S
H1215 C1239 0.950 . S
H1216 C1240 0.950 . S
H1217 C1241 0.951 . S
H1218 C1243 0.951 . S
H1219 C1245 0.950 . S
H1220 C1246 0.950 . S
H1221 C1248 0.950 . S
H1222 C1251 0.950 . S
H1223 C1252 0.950 . S
H1224 C1254 0.950 . S
H1225 C1255 0.950 . S
C1226 H1208 0.951 . S
C1226 C1227 1.366 . S
C1226 C1228 1.388 . S
C1227 C1226 1.366 . S
C1227 C1231 1.385 . S
C1228 H1209 0.951 . S
C1228 C1226 1.388 . S
C1228 C1229 1.366 . S
C1229 C1228 1.366 . S
C1229 C1230 1.414 . S
C1229 C1232 1.499 . S
C1230 H1210 0.950 . S
C1230 C1229 1.414 . S
C1230 C1231 1.374 . S
C1231 H1211 0.950 . S
C1231 C1227 1.385 . S
C1231 C1230 1.374 . S
C1232 C1229 1.499 . S
C1232 C1233 1.373 . S
C1232 C1234 1.389 . S
C1233 H1212 0.950 . S
C1233 C1232 1.373 . S
C1233 C1249 1.377 . S
C1234 C1232 1.389 . S
C1234 C1235 1.524 . S
C1234 C1248 1.377 . S
C1235 C1234 1.524 . S
C1235 C1236 1.397 . S
C1235 C1240 1.363 . S
C1236 H1213 0.950 . S
C1236 C1235 1.397 . S
C1236 C1237 1.334 . S
C1237 H1214 0.950 . S
C1237 C1236 1.334 . S
C1237 C1238 1.287 . S
C1238 C1237 1.287 . S
C1238 C1239 1.524 . S
C1238 H1257 0.913 . S
C1239 H1215 0.950 . S
C1239 C1238 1.524 . S
C1239 C1240 1.415 . S
C1240 H1216 0.950 . S
C1240 C1235 1.363 . S
C1240 C1239 1.415 . S
C1241 H1217 0.951 . S
C1241 C1242 1.366 . S
C1241 C1243 1.388 . S
C1242 C1241 1.366 . S
C1242 C1246 1.385 . S
C1243 H1218 0.951 . S
C1243 C1241 1.388 . S
C1243 C1244 1.366 . S
C1244 C1243 1.366 . S
C1244 C1245 1.414 . S
C1244 C1247 1.499 . S
C1245 H1219 0.950 . S
C1245 C1244 1.414 . S
C1245 C1246 1.374 . S
C1246 H1220 0.950 . S
C1246 C1242 1.385 . S
C1246 C1245 1.374 . S
C1247 C1244 1.499 . S
C1247 C1248 1.373 . S
C1247 C1249 1.389 . S
C1248 H1221 0.950 . S
C1248 C1234 1.377 . S
C1248 C1247 1.373 . S
C1249 C1233 1.377 . S
C1249 C1247 1.389 . S
C1249 C1250 1.524 . S
C1250 C1249 1.524 . S
C1250 C1251 1.397 . S
C1250 C1255 1.363 . S
C1251 H1222 0.950 . S
C1251 C1250 1.397 . S
C1251 C1252 1.334 . S
C1252 H1223 0.950 . S
C1252 C1251 1.334 . S
C1252 C1253 1.287 . S
C1253 C1252 1.287 . S
C1253 C1254 1.524 . S
C1253 H1256 0.999 . S
C1254 H1224 0.950 . S
C1254 C1253 1.524 . S
C1254 C1255 1.415 . S
C1255 H1225 0.950 . S
C1255 C1250 1.363 . S
C1255 C1254 1.415 . S
H1256 C1253 0.999 . S
H1257 C1238 0.913 . S
H1258 C1276 0.951 . S
H1259 C1278 0.951 . S
H1260 C1280 0.950 . S
H1261 C1281 0.950 . S
H1262 C1283 0.950 . S
H1263 C1286 0.950 . S
H1264 C1287 0.950 . S
H1265 C1289 0.950 . S
H1266 C1290 0.950 . S
H1267 C1291 0.951 . S
H1268 C1293 0.951 . S
H1269 C1295 0.950 . S
H1270 C1296 0.950 . S
H1271 C1298 0.950 . S
H1272 C1301 0.950 . S
H1273 C1302 0.950 . S
H1274 C1304 0.950 . S
H1275 C1305 0.950 . S
C1276 H1258 0.951 . S
C1276 C1277 1.366 . S
C1276 C1278 1.388 . S
C1277 C1276 1.366 . S
C1277 C1281 1.385 . S
C1278 H1259 0.951 . S
C1278 C1276 1.388 . S
C1278 C1279 1.366 . S
C1279 C1278 1.366 . S
C1279 C1280 1.414 . S
C1279 C1282 1.499 . S
C1280 H1260 0.950 . S
C1280 C1279 1.414 . S
C1280 C1281 1.374 . S
C1281 H1261 0.950 . S
C1281 C1277 1.385 . S
C1281 C1280 1.374 . S
C1282 C1279 1.499 . S
C1282 C1283 1.373 . S
C1282 C1284 1.389 . S
C1283 H1262 0.950 . S
C1283 C1282 1.373 . S
C1283 C1299 1.377 1_545 S
C1284 C1282 1.389 . S
C1284 C1285 1.524 . S
C1284 C1298 1.377 1_545 S
C1285 C1284 1.524 . S
C1285 C1286 1.397 . S
C1285 C1290 1.363 . S
C1286 H1263 0.950 . S
C1286 C1285 1.397 . S
C1286 C1287 1.334 . S
C1287 H1264 0.950 . S
C1287 C1286 1.334 . S
C1287 C1288 1.287 . S
C1288 C1287 1.287 . S
C1288 C1289 1.524 . S
C1288 H1307 0.913 . S
C1289 H1265 0.950 . S
C1289 C1288 1.524 . S
C1289 C1290 1.415 . S
C1290 H1266 0.950 . S
C1290 C1285 1.363 . S
C1290 C1289 1.415 . S
C1291 H1267 0.951 . S
C1291 C1292 1.366 . S
C1291 C1293 1.388 . S
C1292 C1291 1.366 . S
C1292 C1296 1.385 . S
C1293 H1268 0.951 . S
C1293 C1291 1.388 . S
C1293 C1294 1.366 . S
C1294 C1293 1.366 . S
C1294 C1295 1.414 . S
C1294 C1297 1.499 . S
C1295 H1269 0.950 . S
C1295 C1294 1.414 . S
C1295 C1296 1.374 . S
C1296 H1270 0.950 . S
C1296 C1292 1.385 . S
C1296 C1295 1.374 . S
C1297 C1294 1.499 . S
C1297 C1298 1.373 . S
C1297 C1299 1.389 . S
C1298 H1271 0.950 . S
C1298 C1284 1.377 1_565 S
C1298 C1297 1.373 . S
C1299 C1283 1.377 1_565 S
C1299 C1297 1.389 . S
C1299 C1300 1.524 . S
C1300 C1299 1.524 . S
C1300 C1301 1.397 . S
C1300 C1305 1.363 . S
C1301 H1272 0.950 . S
C1301 C1300 1.397 . S
C1301 C1302 1.334 . S
C1302 H1273 0.950 . S
C1302 C1301 1.334 . S
C1302 C1303 1.287 . S
C1303 C1302 1.287 . S
C1303 C1304 1.524 . S
C1303 H1306 0.999 . S
C1304 H1274 0.950 . S
C1304 C1303 1.524 . S
C1304 C1305 1.415 . S
C1305 H1275 0.950 . S
C1305 C1300 1.363 . S
C1305 C1304 1.415 . S
H1306 C1303 0.999 . S
H1307 C1288 0.913 . S
H1308 C1326 0.951 . S
H1309 C1328 0.951 . S
H1310 C1330 0.950 . S
H1311 C1331 0.950 . S
H1312 C1333 0.950 . S
H1313 C1336 0.950 . S
H1314 C1337 0.950 . S
H1315 C1339 0.950 . S
H1316 C1340 0.950 . S
H1317 C1341 0.951 . S
H1318 C1343 0.951 . S
H1319 C1345 0.950 . S
H1320 C1346 0.950 . S
H1321 C1348 0.950 . S
H1322 C1351 0.950 . S
H1323 C1352 0.950 . S
H1324 C1354 0.950 . S
H1325 C1355 0.950 . S
C1326 H1308 0.951 . S
C1326 C1327 1.366 1_556 S
C1326 C1328 1.388 . S
C1327 C1326 1.366 1_554 S
C1327 C1331 1.384 . S
C1328 H1309 0.951 . S
C1328 C1326 1.388 . S
C1328 C1329 1.366 . S
C1329 C1328 1.366 . S
C1329 C1330 1.414 1_556 S
C1329 C1332 1.499 . S
C1330 H1310 0.950 . S
C1330 C1329 1.414 1_554 S
C1330 C1331 1.374 . S
C1331 H1311 0.950 . S
C1331 C1327 1.384 . S
C1331 C1330 1.374 . S
C1332 C1329 1.499 . S
C1332 C1333 1.373 . S
C1332 C1334 1.389 1_556 S
C1333 H1312 0.950 . S
C1333 C1332 1.373 . S
C1333 C1349 1.377 . S
C1334 C1332 1.389 1_554 S
C1334 C1335 1.524 . S
C1334 C1348 1.377 . S
C1335 C1334 1.524 . S
C1335 C1336 1.397 . S
C1335 C1340 1.363 . S
C1336 H1313 0.950 . S
C1336 C1335 1.397 . S
C1336 C1337 1.334 . S
C1337 H1314 0.950 . S
C1337 C1336 1.334 . S
C1337 C1338 1.287 . S
C1338 C1337 1.287 . S
C1338 C1339 1.524 . S
C1338 H1357 0.913 . S
C1339 H1315 0.950 . S
C1339 C1338 1.524 . S
C1339 C1340 1.415 . S
C1340 H1316 0.950 . S
C1340 C1335 1.363 . S
C1340 C1339 1.415 . S
C1341 H1317 0.951 . S
C1341 C1342 1.366 . S
C1341 C1343 1.388 . S
C1342 C1341 1.366 . S
C1342 C1346 1.385 . S
C1343 H1318 0.951 . S
C1343 C1341 1.388 . S
C1343 C1344 1.366 . S
C1344 C1343 1.366 . S
C1344 C1345 1.414 . S
C1344 C1347 1.499 . S
C1345 H1319 0.950 . S
C1345 C1344 1.414 . S
C1345 C1346 1.374 . S
C1346 H1320 0.950 . S
C1346 C1342 1.385 . S
C1346 C1345 1.374 . S
C1347 C1344 1.499 . S
C1347 C1348 1.373 1_556 S
C1347 C1349 1.389 . S
C1348 H1321 0.950 . S
C1348 C1334 1.377 . S
C1348 C1347 1.373 1_554 S
C1349 C1333 1.377 . S
C1349 C1347 1.389 . S
C1349 C1350 1.524 . S
C1350 C1349 1.524 . S
C1350 C1351 1.397 . S
C1350 C1355 1.363 . S
C1351 H1322 0.950 . S
C1351 C1350 1.397 . S
C1351 C1352 1.334 . S
C1352 H1323 0.950 . S
C1352 C1351 1.334 . S
C1352 C1353 1.287 . S
C1353 C1352 1.287 . S
C1353 C1354 1.524 . S
C1353 H1356 0.999 . S
C1354 H1324 0.950 . S
C1354 C1353 1.524 . S
C1354 C1355 1.415 . S
C1355 H1325 0.950 . S
C1355 C1350 1.363 . S
C1355 C1354 1.415 . S
H1356 C1353 0.999 . S
H1357 C1338 0.913 . S
H1358 C1376 0.951 . S
H1359 C1378 0.951 . S
H1360 C1380 0.950 . S
H1361 C1381 0.950 . S
H1362 C1383 0.950 . S
H1363 C1386 0.950 . S
H1364 C1387 0.950 . S
H1365 C1389 0.950 . S
H1366 C1390 0.950 . S
H1367 C1391 0.951 . S
H1368 C1393 0.951 . S
H1369 C1395 0.950 . S
H1370 C1396 0.950 . S
H1371 C1398 0.950 1_565 S
H1372 C1401 0.950 . S
H1373 C1402 0.950 . S
H1374 C1404 0.950 . S
H1375 C1405 0.950 1_545 S
C1376 H1358 0.951 . S
C1376 C1377 1.366 . S
C1376 C1378 1.388 . S
C1377 C1376 1.366 . S
C1377 C1381 1.385 . S
C1378 H1359 0.951 . S
C1378 C1376 1.388 . S
C1378 C1379 1.366 . S
C1379 C1378 1.366 . S
C1379 C1380 1.414 . S
C1379 C1382 1.499 . S
C1380 H1360 0.950 . S
C1380 C1379 1.414 . S
C1380 C1381 1.374 . S
C1381 H1361 0.950 . S
C1381 C1377 1.385 . S
C1381 C1380 1.374 . S
C1382 C1379 1.499 . S
C1382 C1383 1.373 . S
C1382 C1384 1.389 . S
C1383 H1362 0.950 . S
C1383 C1382 1.373 . S
C1383 C1399 1.405 . S
C1384 C1382 1.389 . S
C1384 C1385 1.524 . S
C1384 C1398 1.377 . S
C1385 C1384 1.524 . S
C1385 C1386 1.397 . S
C1385 C1390 1.363 . S
C1386 H1363 0.950 . S
C1386 C1385 1.397 . S
C1386 C1387 1.334 . S
C1387 H1364 0.950 . S
C1387 C1386 1.334 . S
C1387 C1388 1.287 . S
C1388 C1387 1.287 . S
C1388 C1389 1.524 . S
C1388 H1407 0.913 . S
C1389 H1365 0.950 . S
C1389 C1388 1.524 . S
C1389 C1390 1.415 . S
C1390 H1366 0.950 . S
C1390 C1385 1.363 . S
C1390 C1389 1.415 . S
C1391 H1367 0.951 . S
C1391 C1392 1.366 . S
C1391 C1393 1.388 . S
C1392 C1391 1.366 . S
C1392 C1396 1.385 . S
C1393 H1368 0.951 . S
C1393 C1391 1.388 . S
C1393 C1394 1.366 . S
C1394 C1393 1.366 . S
C1394 C1395 1.414 . S
C1394 C1397 1.499 . S
C1395 H1369 0.950 . S
C1395 C1394 1.414 . S
C1395 C1396 1.374 . S
C1396 H1370 0.950 . S
C1396 C1392 1.385 . S
C1396 C1395 1.374 . S
C1397 C1394 1.499 . S
C1397 C1398 1.373 1_565 S
C1397 C1399 1.375 1_565 S
C1398 H1371 0.950 1_545 S
C1398 C1384 1.377 . S
C1398 C1397 1.373 1_545 S
C1399 C1383 1.405 . S
C1399 C1397 1.375 1_545 S
C1399 C1400 1.512 1_545 S
C1400 C1399 1.512 1_565 S
C1400 C1401 1.397 . S
C1400 C1405 1.363 . S
C1401 H1372 0.950 . S
C1401 C1400 1.397 . S
C1401 C1402 1.334 . S
C1402 H1373 0.950 . S
C1402 C1401 1.334 . S
C1402 C1403 1.287 . S
C1403 C1402 1.287 . S
C1403 C1404 1.524 . S
C1403 H1406 0.999 . S
C1404 H1374 0.950 . S
C1404 C1403 1.524 . S
C1404 C1405 1.415 . S
C1405 H1375 0.950 1_565 S
C1405 C1400 1.363 . S
C1405 C1404 1.415 . S
H1406 C1403 0.999 . S
H1407 C1388 0.913 . S
H1408 C1426 0.951 . S
H1409 C1428 0.951 . S
H1410 C1430 0.950 . S
H1411 C1431 0.950 . S
H1412 C1433 0.950 . S
H1413 C1436 0.950 1_556 S
H1414 C1437 0.950 . S
H1415 C1439 0.950 . S
H1416 C1440 0.950 . S
H1417 C1441 0.951 . S
H1418 C1443 0.951 . S
H1419 C1445 0.950 . S
H1420 C1446 0.950 . S
H1421 C1448 0.950 . S
H1422 C1451 0.950 . S
H1423 C1452 0.950 . S
H1424 C1454 0.950 . S
H1425 C1455 0.950 . S
C1426 H1408 0.951 . S
C1426 C1427 1.366 1_554 S
C1426 C1428 1.388 . S
C1427 C1426 1.366 1_556 S
C1427 C1431 1.385 . S
C1428 H1409 0.951 . S
C1428 C1426 1.388 . S
C1428 C1429 1.366 1_554 S
C1429 C1428 1.366 1_556 S
C1429 C1430 1.414 . S
C1429 C1432 1.499 . S
C1430 H1410 0.950 . S
C1430 C1429 1.414 . S
C1430 C1431 1.374 . S
C1431 H1411 0.950 . S
C1431 C1427 1.385 . S
C1431 C1430 1.374 . S
C1432 C1429 1.499 . S
C1432 C1433 1.373 1_565 S
C1432 C1434 1.389 1_556 S
C1433 H1412 0.950 . S
C1433 C1432 1.373 1_545 S
C1433 C1449 1.377 . S
C1434 C1432 1.389 1_554 S
C1434 C1435 1.524 . S
C1434 C1448 1.377 . S
C1435 C1434 1.524 . S
C1435 C1436 1.397 . S
C1435 C1440 1.363 . S
C1436 H1413 0.950 1_554 S
C1436 C1435 1.397 . S
C1436 C1437 1.334 . S
C1437 H1414 0.950 . S
C1437 C1436 1.334 . S
C1437 C1438 1.287 . S
C1438 C1437 1.287 . S
C1438 C1439 1.524 . S
C1438 H1457 0.913 . S
C1439 H1415 0.950 . S
C1439 C1438 1.524 . S
C1439 C1440 1.415 . S
C1440 H1416 0.950 . S
C1440 C1435 1.363 . S
C1440 C1439 1.415 . S
C1441 H1417 0.951 . S
C1441 C1442 1.366 . S
C1441 C1443 1.388 . S
C1442 C1441 1.366 . S
C1442 C1446 1.385 1_556 S
C1443 H1418 0.951 . S
C1443 C1441 1.388 . S
C1443 C1444 1.366 . S
C1444 C1443 1.366 . S
C1444 C1445 1.414 1_556 S
C1444 C1447 1.499 . S
C1445 H1419 0.950 . S
C1445 C1444 1.414 1_554 S
C1445 C1446 1.374 . S
C1446 H1420 0.950 . S
C1446 C1442 1.385 1_554 S
C1446 C1445 1.374 . S
C1447 C1444 1.499 . S
C1447 C1448 1.373 1_556 S
C1447 C1449 1.389 1_565 S
C1448 H1421 0.950 . S
C1448 C1434 1.377 . S
C1448 C1447 1.373 1_554 S
C1449 C1433 1.377 . S
C1449 C1447 1.389 1_545 S
C1449 C1450 1.524 . S
C1450 C1449 1.524 . S
C1450 C1451 1.397 . S
C1450 C1455 1.363 . S
C1451 H1422 0.950 . S
C1451 C1450 1.397 . S
C1451 C1452 1.334 . S
C1452 H1423 0.950 . S
C1452 C1451 1.334 . S
C1452 C1453 1.287 . S
C1453 C1452 1.287 . S
C1453 C1454 1.524 . S
C1453 H1456 0.999 . S
C1454 H1424 0.950 . S
C1454 C1453 1.524 . S
C1454 C1455 1.415 . S
C1455 H1425 0.950 . S
C1455 C1450 1.363 . S
C1455 C1454 1.415 . S
H1456 C1453 0.999 . S
H1457 C1438 0.913 . S
H1458 C1476 0.951 . S
H1459 C1478 0.951 . S
H1460 C1480 0.950 . S
H1461 C1481 0.950 . S
H1462 C1483 0.950 . S
H1463 C1486 0.950 . S
H1464 C1487 0.950 . S
H1465 C1489 0.950 . S
H1466 C1490 0.950 . S
H1467 C1491 0.951 . S
H1468 C1493 0.951 . S
H1469 C1495 0.950 . S
H1470 C1496 0.950 . S
H1471 C1498 0.950 . S
H1472 C1501 0.950 . S
H1473 C1502 0.950 . S
H1474 C1504 0.950 . S
H1475 C1505 0.950 . S
C1476 H1458 0.951 . S
C1476 C1477 1.366 . S
C1476 C1478 1.388 . S
C1477 C1476 1.366 . S
C1477 C1481 1.385 . S
C1478 H1459 0.951 . S
C1478 C1476 1.388 . S
C1478 C1479 1.366 . S
C1479 C1478 1.366 . S
C1479 C1480 1.414 . S
C1479 C1482 1.499 . S
C1480 H1460 0.950 . S
C1480 C1479 1.414 . S
C1480 C1481 1.374 . S
C1481 H1461 0.950 . S
C1481 C1477 1.385 . S
C1481 C1480 1.374 . S
C1482 C1479 1.499 . S
C1482 C1483 1.373 . S
C1482 C1484 1.389 . S
C1483 H1462 0.950 . S
C1483 C1482 1.373 . S
C1483 C1499 1.377 . S
C1484 C1482 1.389 . S
C1484 C1485 1.524 . S
C1484 C1498 1.377 . S
C1485 C1484 1.524 . S
C1485 C1486 1.397 . S
C1485 C1490 1.363 . S
C1486 H1463 0.950 . S
C1486 C1485 1.397 . S
C1486 C1487 1.334 . S
C1487 H1464 0.950 . S
C1487 C1486 1.334 . S
C1487 C1488 1.287 . S
C1488 C1487 1.287 . S
C1488 C1489 1.524 . S
C1488 H1507 0.913 . S
C1489 H1465 0.950 . S
C1489 C1488 1.524 . S
C1489 C1490 1.415 . S
C1490 H1466 0.950 . S
C1490 C1485 1.363 . S
C1490 C1489 1.415 . S
C1491 H1467 0.951 . S
C1491 C1492 1.366 . S
C1491 C1493 1.388 . S
C1492 C1491 1.366 . S
C1492 C1496 1.385 . S
C1493 H1468 0.951 . S
C1493 C1491 1.388 . S
C1493 C1494 1.366 . S
C1494 C1493 1.366 . S
C1494 C1495 1.414 . S
C1494 C1497 1.499 . S
C1495 H1469 0.950 . S
C1495 C1494 1.414 . S
C1495 C1496 1.374 . S
C1496 H1470 0.950 . S
C1496 C1492 1.385 . S
C1496 C1495 1.374 . S
C1497 C1494 1.499 . S
C1497 C1498 1.373 . S
C1497 C1499 1.389 . S
C1498 H1471 0.950 . S
C1498 C1484 1.377 . S
C1498 C1497 1.373 . S
C1499 C1483 1.377 . S
C1499 C1497 1.389 . S
C1499 C1500 1.524 . S
C1500 C1499 1.524 . S
C1500 C1501 1.397 . S
C1500 C1505 1.363 . S
C1501 H1472 0.950 . S
C1501 C1500 1.397 . S
C1501 C1502 1.334 . S
C1502 H1473 0.950 . S
C1502 C1501 1.334 . S
C1502 C1503 1.287 . S
C1503 C1502 1.287 . S
C1503 C1504 1.524 . S
C1503 H1506 0.999 . S
C1504 H1474 0.950 . S
C1504 C1503 1.524 . S
C1504 C1505 1.415 . S
C1505 H1475 0.950 . S
C1505 C1500 1.363 . S
C1505 C1504 1.415 . S
H1506 C1503 0.999 . S
H1507 C1488 0.913 . S
H1508 C1526 0.951 . S
H1509 C1528 0.951 . S
H1510 C1530 0.950 . S
H1511 C1531 0.950 . S
H1512 C1533 0.950 . S
H1513 C1536 0.950 . S
H1514 C1537 0.950 . S
H1515 C1539 0.950 . S
H1516 C1540 0.950 . S
H1517 C1541 0.951 . S
H1518 C1543 0.951 . S
H1519 C1545 0.950 . S
H1520 C1546 0.950 . S
H1521 C1548 0.950 . S
H1522 C1551 0.950 . S
H1523 C1552 0.950 . S
H1524 C1554 0.950 . S
H1525 C1555 0.950 . S
C1526 H1508 0.951 . S
C1526 C1527 1.366 . S
C1526 C1528 1.388 . S
C1527 C1526 1.366 . S
C1527 C1531 1.385 . S
C1528 H1509 0.951 . S
C1528 C1526 1.388 . S
C1528 C1529 1.366 . S
C1529 C1528 1.366 . S
C1529 C1530 1.414 . S
C1529 C1532 1.499 . S
C1530 H1510 0.950 . S
C1530 C1529 1.414 . S
C1530 C1531 1.374 . S
C1531 H1511 0.950 . S
C1531 C1527 1.385 . S
C1531 C1530 1.374 . S
C1532 C1529 1.499 . S
C1532 C1533 1.373 . S
C1532 C1534 1.389 . S
C1533 H1512 0.950 . S
C1533 C1532 1.373 . S
C1533 C1549 1.377 . S
C1534 C1532 1.389 . S
C1534 C1535 1.524 . S
C1534 C1548 1.377 . S
C1535 C1534 1.524 . S
C1535 C1536 1.397 . S
C1535 C1540 1.363 . S
C1536 H1513 0.950 . S
C1536 C1535 1.397 . S
C1536 C1537 1.334 . S
C1537 H1514 0.950 . S
C1537 C1536 1.334 . S
C1537 C1538 1.287 . S
C1538 C1537 1.287 . S
C1538 C1539 1.524 . S
C1538 H1557 0.913 . S
C1539 H1515 0.950 . S
C1539 C1538 1.524 . S
C1539 C1540 1.415 . S
C1540 H1516 0.950 . S
C1540 C1535 1.363 . S
C1540 C1539 1.415 . S
C1541 H1517 0.951 . S
C1541 C1542 1.366 . S
C1541 C1543 1.388 . S
C1542 C1541 1.366 . S
C1542 C1546 1.385 . S
C1543 H1518 0.951 . S
C1543 C1541 1.388 . S
C1543 C1544 1.366 . S
C1544 C1543 1.366 . S
C1544 C1545 1.414 . S
C1544 C1547 1.499 . S
C1545 H1519 0.950 . S
C1545 C1544 1.414 . S
C1545 C1546 1.374 . S
C1546 H1520 0.950 . S
C1546 C1542 1.385 . S
C1546 C1545 1.374 . S
C1547 C1544 1.499 . S
C1547 C1548 1.373 . S
C1547 C1549 1.389 . S
C1548 H1521 0.950 . S
C1548 C1534 1.377 . S
C1548 C1547 1.373 . S
C1549 C1533 1.377 . S
C1549 C1547 1.389 . S
C1549 C1550 1.524 . S
C1550 C1549 1.524 . S
C1550 C1551 1.397 . S
C1550 C1555 1.363 . S
C1551 H1522 0.950 . S
C1551 C1550 1.397 . S
C1551 C1552 1.334 . S
C1552 H1523 0.950 . S
C1552 C1551 1.334 . S
C1552 C1553 1.287 . S
C1553 C1552 1.287 . S
C1553 C1554 1.524 . S
C1553 H1556 0.999 . S
C1554 H1524 0.950 . S
C1554 C1553 1.524 . S
C1554 C1555 1.415 . S
C1555 H1525 0.950 . S
C1555 C1550 1.363 . S
C1555 C1554 1.415 . S
H1556 C1553 0.999 . S
H1557 C1538 0.913 . S
H1558 C1576 0.951 . S
H1559 C1578 0.951 . S
H1560 C1580 0.950 . S
H1561 C1581 0.950 . S
H1562 C1583 0.965 . S
H1563 C1586 0.950 . S
H1564 C1587 0.950 . S
H1565 C1589 0.950 . S
H1566 C1590 0.950 1_554 S
H1567 C1591 0.951 . S
H1568 C1593 0.951 . S
H1569 C1595 0.950 . S
H1570 C1596 0.950 . S
H1571 C1598 0.950 . S
H1572 C1601 0.950 . S
H1573 C1602 0.950 . S
H1574 C1604 0.950 . S
H1575 C1605 0.950 . S
C1576 H1558 0.951 . S
C1576 C1577 1.366 . S
C1576 C1578 1.388 . S
C1577 C1576 1.366 . S
C1577 C1581 1.385 . S
C1578 H1559 0.951 . S
C1578 C1576 1.388 . S
C1578 C1579 1.366 . S
C1579 C1578 1.366 . S
C1579 C1580 1.414 . S
C1579 C1582 1.499 . S
C1580 H1560 0.950 . S
C1580 C1579 1.414 . S
C1580 C1581 1.374 . S
C1581 H1561 0.950 . S
C1581 C1577 1.385 . S
C1581 C1580 1.374 . S
C1582 C1579 1.499 . S
C1582 C1583 1.390 . S
C1582 C1584 1.400 . S
C1583 H1562 0.965 . S
C1583 C1582 1.390 . S
C1583 C1599 1.346 1_556 S
C1584 C1582 1.400 . S
C1584 C1585 1.534 . S
C1584 C1598 1.355 1_556 S
C1585 C1584 1.534 . S
C1585 C1586 1.397 . S
C1585 C1590 1.363 . S
C1586 H1563 0.950 . S
C1586 C1585 1.397 . S
C1586 C1587 1.334 . S
C1587 H1564 0.950 . S
C1587 C1586 1.334 . S
C1587 C1588 1.287 . S
C1588 C1587 1.287 . S
C1588 C1589 1.524 . S
C1588 H1607 0.913 . S
C1589 H1565 0.950 . S
C1589 C1588 1.524 . S
C1589 C1590 1.415 . S
C1590 H1566 0.950 1_556 S
C1590 C1585 1.363 . S
C1590 C1589 1.415 . S
C1591 H1567 0.951 . S
C1591 C1592 1.366 . S
C1591 C1593 1.388 . S
C1592 C1591 1.366 . S
C1592 C1596 1.385 . S
C1593 H1568 0.951 . S
C1593 C1591 1.388 . S
C1593 C1594 1.366 . S
C1594 C1593 1.366 . S
C1594 C1595 1.414 . S
C1594 C1597 1.499 . S
C1595 H1569 0.950 . S
C1595 C1594 1.414 . S
C1595 C1596 1.374 . S
C1596 H1570 0.950 . S
C1596 C1592 1.385 . S
C1596 C1595 1.374 . S
C1597 C1594 1.499 . S
C1597 C1598 1.373 . S
C1597 C1599 1.389 . S
C1598 H1571 0.950 . S
C1598 C1584 1.355 1_554 S
C1598 C1597 1.373 . S
C1599 C1583 1.346 1_554 S
C1599 C1597 1.389 . S
C1599 C1600 1.524 . S
C1600 C1599 1.524 . S
C1600 C1601 1.397 . S
C1600 C1605 1.363 . S
C1601 H1572 0.950 . S
C1601 C1600 1.397 . S
C1601 C1602 1.334 . S
C1602 H1573 0.950 . S
C1602 C1601 1.334 . S
C1602 C1603 1.287 . S
C1603 C1602 1.287 . S
C1603 C1604 1.524 . S
C1603 H1606 0.999 . S
C1604 H1574 0.950 . S
C1604 C1603 1.524 . S
C1604 C1605 1.415 . S
C1605 H1575 0.950 . S
C1605 C1600 1.363 . S
C1605 C1604 1.415 . S
H1606 C1603 0.999 . S
H1607 C1588 0.913 . S
H1608 C1626 0.951 . S
H1609 C1628 0.951 . S
H1610 C1630 0.950 . S
H1611 C1631 0.950 . S
H1612 C1633 0.950 . S
H1613 C1636 0.950 . S
H1614 C1637 0.950 . S
H1615 C1639 0.950 . S
H1616 C1640 0.950 . S
H1617 C1641 0.951 . S
H1618 C1643 0.951 . S
H1619 C1645 0.950 . S
H1620 C1646 0.950 . S
H1621 C1648 0.950 . S
H1622 C1651 0.950 . S
H1623 C1652 0.950 . S
H1624 C1654 0.950 . S
H1625 C1655 0.950 . S
C1626 H1608 0.951 . S
C1626 C1627 1.366 . S
C1626 C1628 1.388 . S
C1627 C1626 1.366 . S
C1627 C1631 1.385 . S
C1628 H1609 0.951 . S
C1628 C1626 1.388 . S
C1628 C1629 1.366 . S
C1629 C1628 1.366 . S
C1629 C1630 1.414 . S
C1629 C1632 1.499 . S
C1630 H1610 0.950 . S
C1630 C1629 1.414 . S
C1630 C1631 1.374 . S
C1631 H1611 0.950 . S
C1631 C1627 1.385 . S
C1631 C1630 1.374 . S
C1632 C1629 1.499 . S
C1632 C1633 1.373 . S
C1632 C1634 1.389 . S
C1633 H1612 0.950 . S
C1633 C1632 1.373 . S
C1633 C1649 1.377 . S
C1634 C1632 1.389 . S
C1634 C1635 1.524 . S
C1634 C1648 1.377 . S
C1635 C1634 1.524 . S
C1635 C1636 1.397 . S
C1635 C1640 1.363 . S
C1636 H1613 0.950 . S
C1636 C1635 1.397 . S
C1636 C1637 1.334 . S
C1637 H1614 0.950 . S
C1637 C1636 1.334 . S
C1637 C1638 1.287 . S
C1638 C1637 1.287 . S
C1638 C1639 1.524 . S
C1638 H1657 0.913 . S
C1639 H1615 0.950 . S
C1639 C1638 1.524 . S
C1639 C1640 1.415 . S
C1640 H1616 0.950 . S
C1640 C1635 1.363 . S
C1640 C1639 1.415 . S
C1641 H1617 0.951 . S
C1641 C1642 1.366 . S
C1641 C1643 1.388 . S
C1642 C1641 1.366 . S
C1642 C1646 1.385 . S
C1643 H1618 0.951 . S
C1643 C1641 1.388 . S
C1643 C1644 1.366 . S
C1644 C1643 1.366 . S
C1644 C1645 1.414 . S
C1644 C1647 1.499 . S
C1645 H1619 0.950 . S
C1645 C1644 1.414 . S
C1645 C1646 1.374 . S
C1646 H1620 0.950 . S
C1646 C1642 1.385 . S
C1646 C1645 1.374 . S
C1647 C1644 1.499 . S
C1647 C1648 1.373 . S
C1647 C1649 1.389 . S
C1648 H1621 0.950 . S
C1648 C1634 1.377 . S
C1648 C1647 1.373 . S
C1649 C1633 1.377 . S
C1649 C1647 1.389 . S
C1649 C1650 1.524 . S
C1650 C1649 1.524 . S
C1650 C1651 1.397 . S
C1650 C1655 1.363 . S
C1651 H1622 0.950 . S
C1651 C1650 1.397 . S
C1651 C1652 1.334 . S
C1652 H1623 0.950 . S
C1652 C1651 1.334 . S
C1652 C1653 1.287 . S
C1653 C1652 1.287 . S
C1653 C1654 1.524 . S
C1653 H1656 0.999 . S
C1654 H1624 0.950 . S
C1654 C1653 1.524 . S
C1654 C1655 1.415 . S
C1655 H1625 0.950 . S
C1655 C1650 1.363 . S
C1655 C1654 1.415 . S
H1656 C1653 0.999 . S
H1657 C1638 0.913 . S
H1658 C1676 0.951 . S
H1659 C1678 0.951 . S
H1660 C1680 0.950 . S
H1661 C1681 0.950 . S
H1662 C1683 0.950 . S
H1663 C1686 0.950 . S
H1664 C1687 0.950 . S
H1665 C1689 0.950 . S
H1666 C1690 0.950 . S
H1667 C1691 0.951 . S
H1668 C1693 0.951 . S
H1669 C1695 0.950 . S
H1670 C1696 0.950 . S
H1671 C1698 0.950 . S
H1672 C1701 0.950 . S
H1673 C1702 0.950 . S
H1674 C1704 0.950 . S
H1675 C1705 0.950 . S
C1676 H1658 0.951 . S
C1676 C1677 1.366 . S
C1676 C1678 1.388 . S
C1677 C1676 1.366 . S
C1677 C1681 1.385 . S
C1678 H1659 0.951 . S
C1678 C1676 1.388 . S
C1678 C1679 1.366 . S
C1679 C1678 1.366 . S
C1679 C1680 1.414 . S
C1679 C1682 1.499 . S
C1680 H1660 0.950 . S
C1680 C1679 1.414 . S
C1680 C1681 1.374 . S
C1681 H1661 0.950 . S
C1681 C1677 1.385 . S
C1681 C1680 1.374 . S
C1682 C1679 1.499 . S
C1682 C1683 1.373 . S
C1682 C1684 1.389 . S
C1683 H1662 0.950 . S
C1683 C1682 1.373 . S
C1683 C1699 1.377 . S
C1684 C1682 1.389 . S
C1684 C1685 1.524 . S
C1684 C1698 1.377 . S
C1685 C1684 1.524 . S
C1685 C1686 1.397 . S
C1685 C1690 1.363 . S
C1686 H1663 0.950 . S
C1686 C1685 1.397 . S
C1686 C1687 1.334 . S
C1687 H1664 0.950 . S
C1687 C1686 1.334 . S
C1687 C1688 1.287 . S
C1688 C1687 1.287 . S
C1688 C1689 1.524 . S
C1688 H1707 0.913 . S
C1689 H1665 0.950 . S
C1689 C1688 1.524 . S
C1689 C1690 1.415 . S
C1690 H1666 0.950 . S
C1690 C1685 1.363 . S
C1690 C1689 1.415 . S
C1691 H1667 0.951 . S
C1691 C1692 1.366 . S
C1691 C1693 1.388 . S
C1692 C1691 1.366 . S
C1692 C1696 1.385 . S
C1693 H1668 0.951 . S
C1693 C1691 1.388 . S
C1693 C1694 1.366 . S
C1694 C1693 1.366 . S
C1694 C1695 1.414 . S
C1694 C1697 1.499 . S
C1695 H1669 0.950 . S
C1695 C1694 1.414 . S
C1695 C1696 1.374 . S
C1696 H1670 0.950 . S
C1696 C1692 1.385 . S
C1696 C1695 1.374 . S
C1697 C1694 1.499 . S
C1697 C1698 1.373 . S
C1697 C1699 1.389 . S
C1698 H1671 0.950 . S
C1698 C1684 1.377 . S
C1698 C1697 1.373 . S
C1699 C1683 1.377 . S
C1699 C1697 1.389 . S
C1699 C1700 1.524 . S
C1700 C1699 1.524 . S
C1700 C1701 1.397 . S
C1700 C1705 1.363 . S
C1701 H1672 0.950 . S
C1701 C1700 1.397 . S
C1701 C1702 1.334 . S
C1702 H1673 0.950 . S
C1702 C1701 1.334 . S
C1702 C1703 1.287 . S
C1703 C1702 1.287 . S
C1703 C1704 1.524 . S
C1703 H1706 0.999 . S
C1704 H1674 0.950 . S
C1704 C1703 1.524 . S
C1704 C1705 1.415 . S
C1705 H1675 0.950 . S
C1705 C1700 1.363 . S
C1705 C1704 1.415 . S
H1706 C1703 0.999 . S
H1707 C1688 0.913 . S
H1708 C1726 0.951 . S
H1709 C1728 0.951 . S
H1710 C1730 0.951 . S
H1711 C1731 0.951 . S
H1712 C1733 0.950 . S
H1713 C1736 0.950 . S
H1714 C1737 0.950 . S
H1715 C1739 0.950 . S
H1716 C1740 0.950 . S
H1717 C1741 0.951 . S
H1718 C1743 0.952 . S
H1719 C1745 0.950 . S
H1720 C1746 0.950 . S
H1721 C1748 0.950 . S
H1722 C1751 0.950 . S
H1723 C1752 0.950 . S
H1724 C1754 0.950 . S
H1725 C1755 0.950 . S
C1726 H1708 0.951 . S
C1726 C1727 1.366 . S
C1726 C1728 1.388 . S
C1727 C1726 1.366 . S
C1727 C1731 1.385 . S
C1728 H1709 0.951 . S
C1728 C1726 1.388 . S
C1728 C1729 1.366 . S
C1729 C1728 1.366 . S
C1729 C1730 1.414 . S
C1729 C1732 1.499 . S
C1730 H1710 0.951 . S
C1730 C1729 1.414 . S
C1730 C1731 1.374 . S
C1731 H1711 0.951 . S
C1731 C1727 1.385 . S
C1731 C1730 1.374 . S
C1732 C1729 1.499 . S
C1732 C1733 1.373 1_455 S
C1732 C1734 1.389 . S
C1733 H1712 0.950 . S
C1733 C1732 1.373 1_655 S
C1733 C1749 1.377 . S
C1734 C1732 1.389 . S
C1734 C1735 1.524 . S
C1734 C1748 1.377 . S
C1735 C1734 1.524 . S
C1735 C1736 1.397 . S
C1735 C1740 1.363 . S
C1736 H1713 0.950 . S
C1736 C1735 1.397 . S
C1736 C1737 1.334 . S
C1737 H1714 0.950 . S
C1737 C1736 1.334 . S
C1737 C1738 1.287 . S
C1738 C1737 1.287 . S
C1738 C1739 1.524 . S
C1738 H1757 0.913 . S
C1739 H1715 0.950 . S
C1739 C1738 1.524 . S
C1739 C1740 1.415 . S
C1740 H1716 0.950 . S
C1740 C1735 1.363 . S
C1740 C1739 1.415 . S
C1741 H1717 0.951 . S
C1741 C1742 1.366 1_655 S
C1741 C1743 1.388 . S
C1742 C1741 1.366 1_455 S
C1742 C1746 1.385 . S
C1743 H1718 0.952 . S
C1743 C1741 1.388 . S
C1743 C1744 1.365 1_655 S
C1744 C1743 1.365 1_455 S
C1744 C1745 1.414 . S
C1744 C1747 1.499 . S
C1745 H1719 0.950 . S
C1745 C1744 1.414 . S
C1745 C1746 1.374 . S
C1746 H1720 0.950 . S
C1746 C1742 1.385 . S
C1746 C1745 1.374 . S
C1747 C1744 1.499 . S
C1747 C1748 1.373 . S
C1747 C1749 1.389 1_455 S
C1748 H1721 0.950 . S
C1748 C1734 1.377 . S
C1748 C1747 1.373 . S
C1749 C1733 1.377 . S
C1749 C1747 1.389 1_655 S
C1749 C1750 1.524 . S
C1750 C1749 1.524 . S
C1750 C1751 1.397 . S
C1750 C1755 1.363 . S
C1751 H1722 0.950 . S
C1751 C1750 1.397 . S
C1751 C1752 1.334 . S
C1752 H1723 0.950 . S
C1752 C1751 1.334 . S
C1752 C1753 1.287 . S
C1753 C1752 1.287 . S
C1753 C1754 1.524 . S
C1753 H1756 0.999 . S
C1754 H1724 0.950 . S
C1754 C1753 1.524 . S
C1754 C1755 1.415 . S
C1755 H1725 0.950 . S
C1755 C1750 1.363 . S
C1755 C1754 1.415 . S
H1756 C1753 0.999 . S
H1757 C1738 0.913 . S
H1758 C1776 0.951 . S
H1759 C1778 0.951 . S
H1760 C1780 0.950 . S
H1761 C1781 0.950 . S
H1762 C1783 0.950 . S
H1763 C1786 0.950 . S
H1764 C1787 0.950 . S
H1765 C1789 0.935 1_545 S
H1766 C1790 0.950 . S
H1767 C1791 0.951 . S
H1768 C1793 0.951 . S
H1769 C1795 0.950 . S
H1770 C1796 0.950 . S
H1771 C1798 0.950 . S
H1772 C1801 0.950 . S
H1773 C1802 0.950 . S
H1774 C1804 0.950 . S
H1775 C1805 0.950 1_565 S
C1776 H1758 0.951 . S
C1776 C1777 1.366 . S
C1776 C1778 1.388 . S
C1777 C1776 1.366 . S
C1777 C1781 1.385 1_545 S
C1778 H1759 0.951 . S
C1778 C1776 1.388 . S
C1778 C1779 1.366 . S
C1779 C1778 1.366 . S
C1779 C1780 1.414 1_545 S
C1779 C1782 1.499 . S
C1780 H1760 0.950 . S
C1780 C1779 1.414 1_565 S
C1780 C1781 1.374 . S
C1781 H1761 0.950 . S
C1781 C1777 1.385 1_565 S
C1781 C1780 1.374 . S
C1782 C1779 1.499 . S
C1782 C1783 1.373 . S
C1782 C1784 1.389 . S
C1783 H1762 0.950 . S
C1783 C1782 1.373 . S
C1783 C1799 1.377 . S
C1784 C1782 1.389 . S
C1784 C1785 1.524 1_545 S
C1784 C1798 1.377 . S
C1785 C1784 1.524 1_565 S
C1785 C1786 1.397 . S
C1785 C1790 1.363 1_565 S
C1786 H1763 0.950 . S
C1786 C1785 1.397 . S
C1786 C1787 1.334 . S
C1787 H1764 0.950 . S
C1787 C1786 1.334 . S
C1787 C1788 1.287 . S
C1788 C1787 1.287 . S
C1788 C1789 1.551 . S
C1788 H1807 0.913 . S
C1789 H1765 0.935 1_565 S
C1789 C1788 1.551 . S
C1789 C1790 1.406 1_565 S
C1790 H1766 0.950 . S
C1790 C1785 1.363 1_545 S
C1790 C1789 1.406 1_545 S
C1791 H1767 0.951 . S
C1791 C1792 1.366 1_565 S
C1791 C1793 1.388 . S
C1792 C1791 1.366 1_545 S
C1792 C1796 1.385 . S
C1793 H1768 0.951 . S
C1793 C1791 1.388 . S
C1793 C1794 1.366 1_565 S
C1794 C1793 1.366 1_545 S
C1794 C1795 1.414 . S
C1794 C1797 1.499 . S
C1795 H1769 0.950 . S
C1795 C1794 1.414 . S
C1795 C1796 1.374 . S
C1796 H1770 0.950 . S
C1796 C1792 1.385 . S
C1796 C1795 1.374 . S
C1797 C1794 1.499 . S
C1797 C1798 1.373 . S
C1797 C1799 1.389 . S
C1798 H1771 0.950 . S
C1798 C1784 1.377 . S
C1798 C1797 1.373 . S
C1799 C1783 1.377 . S
C1799 C1797 1.389 . S
C1799 C1800 1.524 . S
C1800 C1799 1.524 . S
C1800 C1801 1.397 . S
C1800 C1805 1.363 . S
C1801 H1772 0.950 . S
C1801 C1800 1.397 . S
C1801 C1802 1.334 . S
C1802 H1773 0.950 . S
C1802 C1801 1.334 . S
C1802 C1803 1.287 . S
C1803 C1802 1.287 . S
C1803 C1804 1.524 . S
C1803 H1806 0.999 . S
C1804 H1774 0.950 . S
C1804 C1803 1.524 . S
C1804 C1805 1.415 . S
C1805 H1775 0.950 1_545 S
C1805 C1800 1.363 . S
C1805 C1804 1.415 . S
H1806 C1803 0.999 . S
H1807 C1788 0.913 . S
C227 C0 1.792 . S
C242 C91 1.811 . S
C277 C13 1.752 . S
C292 C52 1.751 . S
C327 C65 1.779 . S
C342 C26 1.768 . S
C377 C39 1.748 . S
C392 C78 1.758 . S
C427 C104 1.751 . S
C442 C156 1.752 . S
C477 C117 1.779 . S
C492 C182 1.768 . S
C527 C143 1.748 . S
C542 C130 1.758 . S
C577 C195 1.811 . S
C592 C169 1.791 . S
C627 C5 1.058 . S
C642 C88 1.070 . S
C677 C96 1.010 . S
C692 C21 1.001 1_565 S
C727 C31 1.096 . S
C742 C57 1.106 . S
C777 C70 1.069 . S
C792 C47 1.061 . S
C827 C10 1.169 . S
C842 C192 1.169 . S
C877 C148 1.086 1_655 S
C892 C18 1.089 . S
C927 C179 1.168 . S
C942 C36 1.168 . S
C977 C161 1.090 . S
C992 C44 1.086 . S
C1027 C138 1.114 . S
C1042 C62 1.133 . S
C1077 C75 1.138 . S
C1092 C205 1.136 . S
C1127 C86 1.113 . S
C1142 C114 1.132 . S
C1177 C101 1.137 1_455 S
C1192 C127 1.139 1_655 S
C1227 C8 1.043 . S
C1242 C60 1.042 . S
C1277 C112 1.042 . S
C1292 C177 1.043 . S
C1327 C166 1.049 . S
C1342 C125 1.037 . S
C1377 C190 0.970 . S
C1392 C135 0.977 . S
C1427 C99 1.124 . S
C1442 C49 1.141 1_556 S
C1477 C34 0.972 . S
C1492 C83 0.978 . S
C1527 C153 1.142 . S
C1542 C203 1.125 . S
C1577 C174 1.058 . S
C1592 C140 1.070 . S
C1627 C200 1.009 . S
C1642 C164 1.000 . S
C1677 C187 1.096 . S
C1692 C109 1.106 . S
C1727 C151 1.062 . S
C1742 C122 1.069 . S
C1777 C23 1.049 . S
C1792 C73 1.037 . S
