# Generated by pormake.
# Topology yff, (5)-cn, num edge types: 1
# Building blocks:
#     Node 0, Type 0, BuildingBlock: BEQFEK_clean_sbu_0, # of connection points: 5
#     Node 1, Type 0, BuildingBlock: BEQFEK_clean_sbu_0, # of connection points: 5
#     Node 2, Type 0, BuildingBlock: BEQFEK_clean_sbu_0, # of connection points: 5
#     Node 3, Type 0, BuildingBlock: BEQFEK_clean_sbu_0, # of connection points: 5
#     Node 4, Type 0, BuildingBlock: BEQFEK_clean_sbu_0, # of connection points: 5
#     Node 5, Type 0, BuildingBlock: BEQFEK_clean_sbu_0, # of connection points: 5
#     Node 6, Type 0, BuildingBlock: BEQFEK_clean_sbu_0, # of connection points: 5
#     Node 7, Type 0, BuildingBlock: BEQFEK_clean_sbu_0, # of connection points: 5
#     Node 8, Type 0, BuildingBlock: BEQFEK_clean_sbu_0, # of connection points: 5
#     Node 9, Type 0, BuildingBlock: BEQFEK_clean_sbu_0, # of connection points: 5
#     Node 10, Type 0, BuildingBlock: BEQFEK_clean_sbu_0, # of connection points: 5
#     Node 11, Type 0, BuildingBlock: BEQFEK_clean_sbu_0, # of connection points: 5
#     Node 12, Type 0, BuildingBlock: BEQFEK_clean_sbu_0, # of connection points: 5
#     Node 13, Type 0, BuildingBlock: BEQFEK_clean_sbu_0, # of connection points: 5
#     Node 14, Type 0, BuildingBlock: BEQFEK_clean_sbu_0, # of connection points: 5
#     Node 15, Type 0, BuildingBlock: BEQFEK_clean_sbu_0, # of connection points: 5
#     Edge 16, Type (0, 0), BuildingBlock: KIFKEQ_clean_linker_1, # of connection points: 2
#     Edge 17, Type (0, 0), BuildingBlock: KIFKEQ_clean_linker_1, # of connection points: 2
#     Edge 18, Type (0, 0), BuildingBlock: KIFKEQ_clean_linker_1, # of connection points: 2
#     Edge 19, Type (0, 0), BuildingBlock: KIFKEQ_clean_linker_1, # of connection points: 2
#     Edge 20, Type (0, 0), BuildingBlock: KIFKEQ_clean_linker_1, # of connection points: 2
#     Edge 21, Type (0, 0), BuildingBlock: KIFKEQ_clean_linker_1, # of connection points: 2
#     Edge 22, Type (0, 0), BuildingBlock: KIFKEQ_clean_linker_1, # of connection points: 2
#     Edge 23, Type (0, 0), BuildingBlock: KIFKEQ_clean_linker_1, # of connection points: 2
#     Edge 24, Type (0, 0), BuildingBlock: KIFKEQ_clean_linker_1, # of connection points: 2
#     Edge 25, Type (0, 0), BuildingBlock: KIFKEQ_clean_linker_1, # of connection points: 2
#     Edge 26, Type (0, 0), BuildingBlock: KIFKEQ_clean_linker_1, # of connection points: 2
#     Edge 27, Type (0, 0), BuildingBlock: KIFKEQ_clean_linker_1, # of connection points: 2
#     Edge 28, Type (0, 0), BuildingBlock: KIFKEQ_clean_linker_1, # of connection points: 2
#     Edge 29, Type (0, 0), BuildingBlock: KIFKEQ_clean_linker_1, # of connection points: 2
#     Edge 30, Type (0, 0), BuildingBlock: KIFKEQ_clean_linker_1, # of connection points: 2
#     Edge 31, Type (0, 0), BuildingBlock: KIFKEQ_clean_linker_1, # of connection points: 2
#     Edge 32, Type (0, 0), BuildingBlock: KIFKEQ_clean_linker_1, # of connection points: 2
#     Edge 33, Type (0, 0), BuildingBlock: KIFKEQ_clean_linker_1, # of connection points: 2
#     Edge 34, Type (0, 0), BuildingBlock: KIFKEQ_clean_linker_1, # of connection points: 2
#     Edge 35, Type (0, 0), BuildingBlock: KIFKEQ_clean_linker_1, # of connection points: 2
#     Edge 36, Type (0, 0), BuildingBlock: KIFKEQ_clean_linker_1, # of connection points: 2
#     Edge 37, Type (0, 0), BuildingBlock: KIFKEQ_clean_linker_1, # of connection points: 2
#     Edge 38, Type (0, 0), BuildingBlock: KIFKEQ_clean_linker_1, # of connection points: 2
#     Edge 39, Type (0, 0), BuildingBlock: KIFKEQ_clean_linker_1, # of connection points: 2
#     Edge 40, Type (0, 0), BuildingBlock: KIFKEQ_clean_linker_1, # of connection points: 2
#     Edge 41, Type (0, 0), BuildingBlock: KIFKEQ_clean_linker_1, # of connection points: 2
#     Edge 42, Type (0, 0), BuildingBlock: KIFKEQ_clean_linker_1, # of connection points: 2
#     Edge 43, Type (0, 0), BuildingBlock: KIFKEQ_clean_linker_1, # of connection points: 2
#     Edge 44, Type (0, 0), BuildingBlock: KIFKEQ_clean_linker_1, # of connection points: 2
#     Edge 45, Type (0, 0), BuildingBlock: KIFKEQ_clean_linker_1, # of connection points: 2
#     Edge 46, Type (0, 0), BuildingBlock: KIFKEQ_clean_linker_1, # of connection points: 2
#     Edge 47, Type (0, 0), BuildingBlock: KIFKEQ_clean_linker_1, # of connection points: 2
#     Edge 48, Type (0, 0), BuildingBlock: KIFKEQ_clean_linker_1, # of connection points: 2
#     Edge 49, Type (0, 0), BuildingBlock: KIFKEQ_clean_linker_1, # of connection points: 2
#     Edge 50, Type (0, 0), BuildingBlock: KIFKEQ_clean_linker_1, # of connection points: 2
#     Edge 51, Type (0, 0), BuildingBlock: KIFKEQ_clean_linker_1, # of connection points: 2
#     Edge 52, Type (0, 0), BuildingBlock: KIFKEQ_clean_linker_1, # of connection points: 2
#     Edge 53, Type (0, 0), BuildingBlock: KIFKEQ_clean_linker_1, # of connection points: 2
#     Edge 54, Type (0, 0), BuildingBlock: KIFKEQ_clean_linker_1, # of connection points: 2
#     Edge 55, Type (0, 0), BuildingBlock: KIFKEQ_clean_linker_1, # of connection points: 2
# Relax obj value: 0.526
# Max RMSD: 0.288
# Mean RMSD: 0.277
data_MOF--net-yff--node1-BEQFEK_clean_sbu_0--edge1-KIFKEQ_clean_linker_1
_symmetry_space_group_name_H-M    P1
_symmetry_Int_Tables_number       1
_symmetry_cell_setting            triclinic
loop_
_symmetry_equiv_pos_as_xyz
'x, y, z'
_cell_length_a     69.233165
_cell_length_b     67.092189
_cell_length_c     28.133841
_cell_angle_alpha  89.548044
_cell_angle_beta   89.380452
_cell_angle_gamma 88.920747
loop_
_atom_site_label
_atom_site_type_symbol
_atom_site_fract_x
_atom_site_fract_y
_atom_site_fract_z
_atom_type_partial_charge
Co0 Co 0.06937 0.02506 0.28549 0.0
Co1 Co 0.11399 0.02872 0.27162 0.0
C2 C 0.0951 0.99044 0.25436 0.0
O3 O 0.07898 0.9992 0.26197 0.0
O4 O 0.11102 0.99944 0.25865 0.0
C5 C 0.03541 0.00419 0.31412 0.0
O6 O 0.04479 0.98852 0.29735 0.0
C7 C 0.15632 0.02562 0.28549 0.0
C8 C 0.1653 0.05437 0.25428 0.0
C9 C 0.17241 0.03728 0.27651 0.0
N10 N 0.14058 0.03549 0.2693 0.0
N11 N 0.14611 0.05258 0.25048 0.0
C12 C 0.15551 0.00621 0.31183 0.0
H13 H 0.14073 0.00382 0.32622 0.0
H14 H 0.16608 0.00584 0.34121 0.0
H15 H 0.15916 0.9939 0.28701 0.0
C16 C 0.07847 0.04016 0.37996 0.0
N17 N 0.0842 0.03364 0.33694 0.0
N18 N 0.10298 0.03571 0.33211 0.0
C19 C 0.10978 0.04384 0.37237 0.0
C20 C 0.09439 0.047 0.40378 0.0
C21 C 0.05803 0.03976 0.39789 0.0
H22 H 0.04874 0.04904 0.37428 0.0
H23 H 0.0529 0.02422 0.39703 0.0
H24 H 0.05658 0.0452 0.43489 0.0
O25 O 0.06987 0.04538 0.23516 0.0
O26 O 0.10149 0.04563 0.22063 0.0
H27 H 0.13496 0.05928 0.34906 0.0
H28 H 0.13198 0.05799 0.41305 0.0
C29 C 0.13026 0.04978 0.3793 0.0
H30 H 0.13966 0.03623 0.37991 0.0
H31 H 0.1367 0.06319 0.23561 0.0
O32 O 0.04266 0.02135 0.30897 0.0
C33 C 0.08433 0.05169 0.2116 0.0
Co34 Co 0.46402 0.06458 0.81718 0.0
Co35 Co 0.4591 0.10991 0.7934 0.0
C36 C 0.49594 0.08893 0.77229 0.0
O37 O 0.48831 0.07281 0.78624 0.0
O38 O 0.48678 0.10555 0.77393 0.0
C39 C 0.48573 0.03399 0.86252 0.0
O40 O 0.50006 0.04579 0.85165 0.0
C41 C 0.46347 0.15325 0.79358 0.0
C42 C 0.43331 0.16362 0.78275 0.0
C43 C 0.45183 0.17023 0.79049 0.0
N44 N 0.45229 0.13731 0.78805 0.0
N45 N 0.43432 0.1436 0.78117 0.0
C46 C 0.48442 0.152 0.80597 0.0
H47 H 0.48745 0.1383 0.82715 0.0
H48 H 0.48876 0.16528 0.82625 0.0
H49 H 0.49314 0.15122 0.77269 0.0
C50 C 0.45171 0.07864 0.91174 0.0
N51 N 0.45646 0.08224 0.86606 0.0
N52 N 0.45461 0.10146 0.85728 0.0
C53 C 0.44876 0.11072 0.89768 0.0
C54 C 0.44695 0.09648 0.93343 0.0
C55 C 0.45027 0.0583 0.93354 0.0
H56 H 0.44383 0.04797 0.90787 0.0
H57 H 0.46496 0.05284 0.94284 0.0
H58 H 0.44123 0.05846 0.96635 0.0
O59 O 0.44357 0.06335 0.76968 0.0
O60 O 0.44171 0.09541 0.74925 0.0
H61 H 0.4327 0.13705 0.87891 0.0
H62 H 0.44135 0.13678 0.9393 0.0
C63 C 0.44493 0.13263 0.90208 0.0
H64 H 0.45785 0.14084 0.89003 0.0
H65 H 0.42268 0.13418 0.77662 0.0
O66 O 0.46894 0.03826 0.84716 0.0
C67 C 0.43646 0.07741 0.7443 0.0
Co68 Co 0.42389 0.46785 0.32066 0.0
Co69 Co 0.38052 0.46541 0.29123 0.0
C70 C 0.40148 0.50267 0.27729 0.0
O71 O 0.41654 0.4938 0.29255 0.0
O72 O 0.38537 0.49396 0.27509 0.0
C73 C 0.44584 0.48805 0.38379 0.0
O74 O 0.42956 0.49842 0.38276 0.0
C75 C 0.33839 0.47067 0.29347 0.0
C76 C 0.32907 0.44441 0.25332 0.0
C77 C 0.3222 0.46102 0.2775 0.0
N78 N 0.35413 0.46015 0.27959 0.0
N79 N 0.34848 0.44454 0.25538 0.0
C80 C 0.33904 0.49023 0.31859 0.0
H81 H 0.35375 0.49285 0.3322 0.0
H82 H 0.32846 0.49075 0.3484 0.0
H83 H 0.33505 0.50235 0.29328 0.0
C84 C 0.40778 0.4527 0.41069 0.0
N85 N 0.40537 0.45904 0.36567 0.0
N86 N 0.38686 0.45899 0.35547 0.0
C87 C 0.37689 0.45293 0.39455 0.0
C88 C 0.38992 0.44911 0.43074 0.0
C89 C 0.42687 0.44864 0.43378 0.0
H90 H 0.43804 0.4446 0.40687 0.0
H91 H 0.43126 0.46208 0.45331 0.0
H92 H 0.42574 0.43627 0.46004 0.0
O93 O 0.42699 0.44819 0.26911 0.0
O94 O 0.39611 0.44767 0.24785 0.0
H95 H 0.35049 0.44232 0.36589 0.0
H96 H 0.35121 0.44237 0.43018 0.0
C97 C 0.35549 0.45052 0.39736 0.0
H98 H 0.34837 0.46544 0.3977 0.0
H99 H 0.35786 0.43387 0.2406 0.0
O100 O 0.44786 0.4732 0.35609 0.0
C101 C 0.41367 0.44184 0.24248 0.0
Co102 Co 0.00671 0.36837 0.795 0.0
Co103 Co 0.04373 0.36041 0.85644 0.0
C104 C 0.01701 0.32739 0.82947 0.0
O105 O 0.00569 0.33928 0.80731 0.0
O106 O 0.032 0.33371 0.84992 0.0
C107 C 0.96583 0.37213 0.78282 0.0
O108 O 0.96552 0.36032 0.82029 0.0
C109 C 0.06233 0.35189 0.94713 0.0
C110 C 0.09066 0.3659 0.93714 0.0
C111 C 0.07883 0.35728 0.97141 0.0
N112 N 0.06404 0.35794 0.90164 0.0
N113 N 0.08129 0.36568 0.89549 0.0
C114 C 0.04488 0.34161 0.96657 0.0
H115 H 0.04057 0.32979 0.94168 0.0
H116 H 0.03257 0.35237 0.96934 0.0
H117 H 0.04777 0.33481 0.00192 0.0
C118 C 2e-05 0.39952 0.86894 0.0
N119 N 0.00981 0.38347 0.85161 0.0
N120 N 0.02556 0.38051 0.87674 0.0
C121 C 0.02643 0.39483 0.91014 0.0
C122 C 0.01014 0.40709 0.90676 0.0
C123 C 0.98278 0.40916 0.846 0.0
H124 H 0.96981 0.40036 0.8547 0.0
H125 H 0.98025 0.4246 0.85884 0.0
H126 H 0.98484 0.40964 0.80691 0.0
O127 O 0.02867 0.37397 0.75043 0.0
O128 O 0.05491 0.36898 0.79447 0.0
H129 H 0.05688 0.39654 0.92226 0.0
H130 H 0.04242 0.41197 0.96159 0.0
C131 C 0.04313 0.39759 0.94266 0.0
H132 H 0.04296 0.38577 0.97004 0.0
H133 H 0.08612 0.3721 0.86369 0.0
O134 O 0.98206 0.37679 0.76464 0.0
C135 C 0.04701 0.37384 0.75519 0.0
Co136 Co 0.57822 0.96701 0.67194 0.0
Co137 Co 0.62106 0.9668 0.70714 0.0
C138 C 0.59872 0.00441 0.70251 0.0
O139 O 0.58454 0.99444 0.68839 0.0
O140 O 0.61493 0.99609 0.71181 0.0
C141 C 0.55551 0.9828 0.601 0.0
O142 O 0.5717 0.99251 0.59542 0.0
C143 C 0.66349 0.97124 0.70867 0.0
C144 C 0.6718 0.94811 0.76134 0.0
C145 C 0.67925 0.96264 0.73158 0.0
N146 N 0.64742 0.96209 0.72404 0.0
N147 N 0.65252 0.94834 0.75563 0.0
C148 C 0.66351 0.98874 0.6754 0.0
H149 H 0.64886 0.99161 0.66094 0.0
H150 H 0.67391 0.98612 0.64577 0.0
H151 H 0.66829 0.00209 0.69478 0.0
C152 C 0.59604 0.9455 0.59224 0.0
N153 N 0.59759 0.95511 0.63369 0.0
N154 N 0.61593 0.95622 0.64516 0.0
C155 C 0.62669 0.94792 0.60967 0.0
C156 C 0.61435 0.94086 0.57525 0.0
C157 C 0.5773 0.94112 0.56861 0.0
H158 H 0.56569 0.93913 0.59551 0.0
H159 H 0.57341 0.95361 0.54428 0.0
H160 H 0.57842 0.92738 0.54711 0.0
O161 O 0.57484 0.95121 0.73021 0.0
O162 O 0.60508 0.95214 0.75604 0.0
H163 H 0.65351 0.94062 0.6434 0.0
H164 H 0.65343 0.93625 0.57998 0.0
C165 C 0.64823 0.94632 0.60872 0.0
H166 H 0.65423 0.96131 0.60236 0.0
H167 H 0.64283 0.93905 0.77328 0.0
O168 O 0.55425 0.97006 0.63461 0.0
C169 C 0.58756 0.94673 0.7611 0.0
Co170 Co 0.52876 0.57262 0.17081 0.0
Co171 Co 0.53089 0.61672 0.20483 0.0
C172 C 0.49354 0.59559 0.20412 0.0
O173 O 0.50217 0.58012 0.18829 0.0
O174 O 0.50259 0.61144 0.21331 0.0
C175 C 0.51299 0.53625 0.13577 0.0
O176 O 0.49847 0.54011 0.16494 0.0
C177 C 0.5265 0.66036 0.20512 0.0
C178 C 0.54886 0.66845 0.25673 0.0
C179 C 0.53467 0.6764 0.22757 0.0
N180 N 0.53554 0.64363 0.2203 0.0
N181 N 0.54887 0.64858 0.2511 0.0
C182 C 0.50948 0.6607 0.17279 0.0
H183 H 0.50617 0.64543 0.16085 0.0
H184 H 0.51237 0.67025 0.14131 0.0
H185 H 0.49676 0.66724 0.1918 0.0
C186 C 0.54641 0.58992 0.08533 0.0
N187 N 0.53906 0.592 0.12937 0.0
N188 N 0.54005 0.61078 0.1422 0.0
C189 C 0.54844 0.62121 0.10636 0.0
C190 C 0.55269 0.60822 0.06938 0.0
C191 C 0.54691 0.57074 0.05847 0.0
H192 H 0.55555 0.55948 0.07853 0.0
H193 H 0.53197 0.56529 0.0552 0.0
H194 H 0.55318 0.57242 0.02226 0.0
O195 O 0.54492 0.56912 0.22772 0.0
O196 O 0.54608 0.60059 0.25115 0.0
H197 H 0.55907 0.64656 0.14311 0.0
H198 H 0.56354 0.64687 0.0795 0.0
C199 C 0.55306 0.64286 0.10797 0.0
H200 H 0.53961 0.65178 0.10276 0.0
H201 H 0.55795 0.63837 0.2685 0.0
O202 O 0.52764 0.54736 0.13588 0.0
C203 C 0.55072 0.58225 0.25641 0.0
Co204 Co 0.91579 0.52119 0.68171 0.0
Co205 Co 0.87199 0.52855 0.70101 0.0
C206 C 0.8895 0.4892 0.72004 0.0
O207 O 0.90571 0.49646 0.70904 0.0
O208 O 0.87395 0.49949 0.7172 0.0
C209 C 0.93997 0.49757 0.62857 0.0
O210 O 0.92322 0.48892 0.62399 0.0
C211 C 0.82996 0.52685 0.69231 0.0
C212 C 0.82042 0.55301 0.73434 0.0
C213 C 0.81371 0.53696 0.70919 0.0
N214 N 0.84563 0.53651 0.70688 0.0
N215 N 0.83984 0.55222 0.73163 0.0
C216 C 0.83068 0.50731 0.66705 0.0
H217 H 0.84563 0.50361 0.65501 0.0
H218 H 0.82101 0.50782 0.63591 0.0
H219 H 0.82549 0.49544 0.69144 0.0
C220 C 0.90535 0.53729 0.58781 0.0
N221 N 0.90038 0.53128 0.63188 0.0
N222 N 0.88164 0.5339 0.63825 0.0
C223 C 0.87404 0.5413 0.59745 0.0
C224 C 0.88889 0.54357 0.56435 0.0
C225 C 0.92564 0.53762 0.56868 0.0
H226 H 0.93586 0.54105 0.59738 0.0
H227 H 0.9294 0.52282 0.55357 0.0
H228 H 0.92726 0.54882 0.53985 0.0
O229 O 0.9178 0.54138 0.73094 0.0
O230 O 0.8865 0.5447 0.74862 0.0
H231 H 0.84808 0.55614 0.62113 0.0
H232 H 0.85103 0.55522 0.55705 0.0
C233 C 0.85324 0.5469 0.59088 0.0
H234 H 0.84458 0.53317 0.59038 0.0
H235 H 0.84915 0.56209 0.74786 0.0
O236 O 0.94096 0.51287 0.65481 0.0
C237 C 0.90412 0.54907 0.75567 0.0
Co238 Co 0.97619 0.91952 0.17867 0.0
Co239 Co 0.97199 0.87328 0.19287 0.0
C240 C 0.00839 0.89245 0.21661 0.0
O241 O 0.00014 0.90898 0.20671 0.0
O242 O -0.00011 0.87594 0.21127 0.0
C243 C 0.99901 0.947 0.13113 0.0
O244 O 0.01066 0.93135 0.13276 0.0
C245 C 0.97492 0.82892 0.18891 0.0
C246 C 0.94393 0.82159 0.19007 0.0
C247 C 0.96228 0.81309 0.18706 0.0
N248 N 0.96443 0.84597 0.19269 0.0
N249 N 0.94595 0.84141 0.19375 0.0
C250 C 0.99642 0.82809 0.18331 0.0
H251 H 0.00142 0.84141 0.16342 0.0
H252 H 0.00123 0.81435 0.16452 0.0
H253 H 0.00304 0.82816 0.21904 0.0
C254 C 0.96383 0.90941 0.08246 0.0
N255 N 0.96854 0.90392 0.12698 0.0
N256 N 0.96766 0.88442 0.1311 0.0
C257 C 0.96273 0.87686 0.08852 0.0
C258 C 0.96034 0.89252 0.05633 0.0
C259 C 0.96116 0.93055 0.06594 0.0
H260 H 0.97513 0.93608 0.05203 0.0
H261 H 0.95047 0.93163 0.03685 0.0
H262 H 0.95608 0.9401 0.09568 0.0
O263 O 0.95593 0.91999 0.22785 0.0
O264 O 0.95431 0.88725 0.24059 0.0
H265 H 0.9472 0.84981 0.0953 0.0
H266 H 0.96028 0.85231 0.03981 0.0
C267 C 0.96075 0.85515 0.07859 0.0
H268 H 0.97302 0.84666 0.09438 0.0
H269 H 0.93467 0.85191 0.19593 0.0
O270 O 0.98272 0.94621 0.15252 0.0
C271 C 0.94893 0.90514 0.25025 0.0
Co272 Co 0.92408 0.96463 0.65753 0.0
Co273 Co 0.88097 0.96116 0.69068 0.0
C274 C 0.89992 -0.00011 0.69437 0.0
O275 O 0.91502 0.99098 0.67902 0.0
O276 O 0.8843 0.99055 0.70163 0.0
C277 C 0.94404 0.98395 0.58853 0.0
O278 O 0.92672 0.99227 0.58755 0.0
C279 C 0.83847 0.96489 0.69849 0.0
C280 C 0.8308 0.93397 0.71733 0.0
C281 C 0.82288 0.95264 0.70751 0.0
N282 N 0.85483 0.95392 0.70282 0.0
N283 N 0.85013 0.9355 0.71444 0.0
C284 C 0.83787 0.98613 0.68189 0.0
H285 H 0.85026 0.98903 0.65762 0.0
H286 H 0.82413 0.9897 0.66348 0.0
H287 H 0.83904 0.99601 0.71313 0.0
C288 C 0.9094 0.94412 0.57441 0.0
N289 N 0.90644 0.95296 0.61663 0.0
N290 N 0.88791 0.95313 0.62724 0.0
C291 C 0.87833 0.94509 0.59048 0.0
C292 C 0.89176 0.93902 0.5561 0.0
C293 C 0.92886 0.94044 0.55193 0.0
H294 H 0.9401 0.9388 0.5795 0.0
H295 H 0.93234 0.95312 0.52802 0.0
H296 H 0.92909 0.92677 0.53012 0.0
O297 O 0.92815 0.94704 0.71274 0.0
O298 O 0.89751 0.94566 0.7375 0.0
H299 H 0.85273 0.93075 0.61441 0.0
H300 H 0.85224 0.93844 0.55279 0.0
C301 C 0.85695 0.94262 0.58891 0.0
H302 H 0.84956 0.95669 0.59981 0.0
H303 H 0.86013 0.92384 0.71926 0.0
O304 O 0.94754 0.97049 0.6196 0.0
C305 C 0.91539 0.94093 0.7422 0.0
Co306 Co 0.52807 0.92936 0.20926 0.0
Co307 Co 0.53461 0.88353 0.21939 0.0
C308 C 0.49786 0.90164 0.25062 0.0
O309 O 0.50516 0.91853 0.24234 0.0
O310 O 0.50702 0.88556 0.24092 0.0
C311 C 0.5033 0.95356 0.16097 0.0
O312 O 0.49443 0.93645 0.16383 0.0
C313 C 0.53162 0.84023 0.21232 0.0
C314 C 0.56227 0.83053 0.21615 0.0
C315 C 0.54369 0.82352 0.21148 0.0
N316 N 0.54257 0.85637 0.21745 0.0
N317 N 0.56086 0.85049 0.21983 0.0
C318 C 0.51028 0.84113 0.20441 0.0
H319 H 0.50632 0.85485 0.18419 0.0
H320 H 0.50544 0.82789 0.18472 0.0
H321 H 0.50271 0.84166 0.23935 0.0
C322 C 0.5402 0.92026 0.11062 0.0
N323 N 0.53579 0.91434 0.1552 0.0
N324 N 0.53756 0.89484 0.15804 0.0
C325 C 0.54265 0.88767 0.11482 0.0
C326 C 0.54427 0.90361 0.08333 0.0
C327 C 0.54276 0.94148 0.0953 0.0
H328 H 0.5293 0.94706 0.07843 0.0
H329 H 0.55457 0.94259 0.06844 0.0
H330 H 0.54624 0.95095 0.12601 0.0
O331 O 0.54943 0.9301 0.25444 0.0
O332 O 0.55249 0.89722 0.26441 0.0
H333 H 0.55922 0.86065 0.12125 0.0
H334 H 0.54705 0.86354 0.06505 0.0
C335 C 0.54578 0.86607 0.1039 0.0
H336 H 0.53358 0.85738 0.11847 0.0
H337 H 0.57239 0.86014 0.22347 0.0
O338 O 0.51901 0.95546 0.18355 0.0
C339 C 0.55747 0.91497 0.27427 0.0
Co340 Co 0.56796 0.52399 0.69528 0.0
Co341 Co 0.61273 0.52666 0.70869 0.0
C342 C 0.59295 0.4895 0.73202 0.0
O343 O 0.57711 0.4984 0.7222 0.0
O344 O 0.60916 0.49803 0.72722 0.0
C345 C 0.53644 0.50277 0.65785 0.0
O346 O 0.54781 0.48736 0.66694 0.0
C347 C 0.65536 0.52265 0.703 0.0
C348 C 0.66322 0.55441 0.70639 0.0
C349 C 0.67094 0.53536 0.70144 0.0
N350 N 0.63914 0.53379 0.70833 0.0
N351 N 0.64398 0.55271 0.71078 0.0
C352 C 0.65563 0.5006 0.69567 0.0
H353 H 0.64247 0.49615 0.67656 0.0
H354 H 0.66871 0.49575 0.67539 0.0
H355 H 0.65567 0.49301 0.73085 0.0
C356 C 0.57885 0.53702 0.59871 0.0
N357 N 0.58363 0.53143 0.64311 0.0
N358 N 0.60252 0.53176 0.64735 0.0
C359 C 0.61039 0.53722 0.60515 0.0
C360 C 0.59559 0.54081 0.57327 0.0
C361 C 0.55858 0.53861 0.58092 0.0
H362 H 0.54939 0.54684 0.60697 0.0
H363 H 0.55288 0.52339 0.57703 0.0
H364 H 0.55775 0.54621 0.54585 0.0
O365 O 0.56829 0.54469 0.74425 0.0
O366 O 0.59997 0.5451 0.75571 0.0
H367 H 0.63643 0.55315 0.61485 0.0
H368 H 0.63464 0.54165 0.5574 0.0
C369 C 0.63151 0.53976 0.59593 0.0
H370 H 0.63965 0.5266 0.6097 0.0
H371 H 0.63406 0.56453 0.71434 0.0
O372 O 0.54154 0.52003 0.67071 0.0
C373 C 0.5829 0.55137 0.76567 0.0
Co374 Co 0.9704 0.55744 0.16886 0.0
Co375 Co 0.97091 0.60295 0.19605 0.0
C376 C 0.00686 0.57866 0.19913 0.0
O377 O 0.99696 0.56393 0.18624 0.0
O378 O 0.99905 0.59584 0.2055 0.0
C379 C 0.98521 0.53024 0.10369 0.0
O380 O 0.9949 0.54636 0.09305 0.0
C381 C 0.97492 0.6474 0.1951 0.0
C382 C 0.94714 0.65584 0.22941 0.0
C383 C 0.96347 0.66383 0.20838 0.0
N384 N 0.96552 0.63066 0.20738 0.0
N385 N 0.94907 0.63592 0.22836 0.0
C386 C 0.99366 0.64742 0.1682 0.0
H387 H 0.99678 0.63252 0.15271 0.0
H388 H 0.99327 0.65893 0.13966 0.0
H389 H 0.00547 0.651 0.19288 0.0
C390 C 0.95299 0.57428 0.08213 0.0
N391 N 0.96079 0.5766 0.12522 0.0
N392 N 0.9621 0.59578 0.13422 0.0
C393 C 0.95541 0.60621 0.09622 0.0
C394 C 0.94964 0.59283 0.06208 0.0
C395 C 0.94793 0.5547 0.0608 0.0
H396 H 0.94455 0.54365 0.08902 0.0
H397 H 0.96026 0.54913 0.03885 0.0
H398 H 0.93527 0.55648 0.03713 0.0
O399 O 0.95356 0.55663 0.22602 0.0
O400 O 0.95467 0.58874 0.24445 0.0
H401 H 0.94644 0.63471 0.1229 0.0
H402 H 0.94774 0.63344 0.05875 0.0
C403 C 0.95467 0.62844 0.0923 0.0
H404 H 0.96955 0.63417 0.09325 0.0
H405 H 0.93882 0.62586 0.24071 0.0
O406 O 0.97285 0.53099 0.1375 0.0
C407 C 0.94863 0.57118 0.25264 0.0
Co408 Co 0.41892 0.01926 0.31727 0.0
Co409 Co 0.37439 0.02233 0.29908 0.0
C410 C 0.39526 0.9847 0.28161 0.0
O411 O 0.41063 0.99368 0.29181 0.0
O412 O 0.37871 0.99331 0.2842 0.0
C413 C 0.44921 0.99775 0.36152 0.0
O414 O 0.43644 0.98354 0.36002 0.0
C415 C 0.33151 0.0195 0.30136 0.0
C416 C 0.32363 0.05158 0.29841 0.0
C417 C 0.31588 0.03279 0.3025 0.0
N418 N 0.34778 0.03009 0.29713 0.0
N419 N 0.3429 0.04921 0.29486 0.0
C420 C 0.33117 0.99739 0.30822 0.0
H421 H 0.34391 0.9923 0.32893 0.0
H422 H 0.31769 0.99279 0.32664 0.0
H423 H 0.33195 0.99015 0.27291 0.0
C424 C 0.40653 0.0319 0.41241 0.0
N425 N 0.40252 0.02719 0.36732 0.0
N426 N 0.38371 0.02793 0.36123 0.0
C427 C 0.37511 0.03289 0.40303 0.0
C428 C 0.38936 0.03541 0.4367 0.0
C429 C 0.42651 0.0339 0.43148 0.0
H430 H 0.43609 0.04056 0.40406 0.0
H431 H 0.43231 0.01892 0.44124 0.0
H432 H 0.42654 0.04341 0.46357 0.0
O433 O 0.41886 0.03963 0.26742 0.0
O434 O 0.38761 0.0397 0.24996 0.0
H435 H 0.34798 0.04786 0.393 0.0
H436 H 0.35015 0.03527 0.44966 0.0
C437 C 0.35376 0.03433 0.41119 0.0
H438 H 0.34678 0.02115 0.39587 0.0
H439 H 0.35282 0.0607 0.29229 0.0
O440 O 0.44515 0.01464 0.34289 0.0
C441 C 0.40474 0.04585 0.24246 0.0
Co442 Co 0.46732 0.42224 0.8107 0.0
Co443 Co 0.46394 0.37689 0.78923 0.0
C444 C 0.50051 0.39692 0.77117 0.0
O445 O 0.492 0.41315 0.7823 0.0
O446 O 0.49199 0.38033 0.77399 0.0
C447 C 0.4891 0.45464 0.84503 0.0
O448 O 0.50346 0.44529 0.8234 0.0
C449 C 0.46757 0.33326 0.79584 0.0
C450 C 0.44294 0.3242 0.75206 0.0
C451 C 0.45843 0.31682 0.77784 0.0
N452 N 0.45788 0.3497 0.78125 0.0
N453 N 0.44313 0.34417 0.75532 0.0
C454 C 0.48605 0.33346 0.82281 0.0
H455 H 0.48925 0.34877 0.83472 0.0
H456 H 0.48516 0.32335 0.8541 0.0
H457 H 0.49801 0.32786 0.79964 0.0
C458 C 0.45449 0.40877 0.9052 0.0
N459 N 0.45965 0.40479 0.86004 0.0
N460 N 0.45797 0.38558 0.85222 0.0
C461 C 0.4515 0.37675 0.89263 0.0
C462 C 0.44921 0.39122 0.92736 0.0
C463 C 0.45455 0.42912 0.92672 0.0
H464 H 0.44609 0.43966 0.90418 0.0
H465 H 0.46963 0.43434 0.92803 0.0
H466 H 0.44847 0.42922 0.96335 0.0
O467 O 0.44722 0.42392 0.76203 0.0
O468 O 0.44728 0.39186 0.74272 0.0
H469 H 0.43856 0.35038 0.86594 0.0
H470 H 0.43809 0.35235 0.93019 0.0
C471 C 0.44671 0.35519 0.89742 0.0
H472 H 0.46031 0.34624 0.89919 0.0
H473 H 0.43339 0.35406 0.73906 0.0
O474 O 0.47197 0.44852 0.8399 0.0
C475 C 0.44122 0.40976 0.73656 0.0
Co476 Co 0.07783 0.4534 0.34933 0.0
Co477 Co 0.12264 0.45305 0.33568 0.0
C478 C 0.10006 0.48963 0.31508 0.0
O479 O 0.08505 0.47982 0.32509 0.0
O480 O 0.11687 0.48166 0.31751 0.0
C481 C 0.04814 0.47277 0.39605 0.0
O482 O 0.06233 0.48532 0.40015 0.0
C483 C 0.1646 0.46025 0.33549 0.0
C484 C 0.1761 0.42929 0.33362 0.0
C485 C 0.18162 0.449 0.33457 0.0
N486 N 0.14969 0.44769 0.33502 0.0
N487 N 0.15668 0.42924 0.33375 0.0
C488 C 0.1624 0.48239 0.33944 0.0
H489 H 0.14995 0.48618 0.36307 0.0
H490 H 0.17569 0.48908 0.35355 0.0
H491 H 0.15945 0.4888 0.30371 0.0
C492 C 0.08829 0.43798 0.44337 0.0
N493 N 0.0933 0.4457 0.40088 0.0
N494 N 0.11224 0.44604 0.39697 0.0
C495 C 0.11988 0.43867 0.43775 0.0
C496 C 0.10489 0.43339 0.46829 0.0
C497 C 0.06797 0.43368 0.45855 0.0
H498 H 0.06083 0.44773 0.47041 0.0
H499 H 0.06743 0.4229 0.48859 0.0
H500 H 0.05983 0.42768 0.42826 0.0
O501 O 0.08019 0.43337 0.29885 0.0
O502 O 0.11192 0.43493 0.28662 0.0
H503 H 0.14593 0.42171 0.42758 0.0
H504 H 0.14388 0.43349 0.48477 0.0
C505 C 0.14098 0.4354 0.44625 0.0
H506 H 0.1492 0.44819 0.43197 0.0
H507 H 0.14815 0.41658 0.33312 0.0
O508 O 0.05106 0.45674 0.37305 0.0
C509 C 0.09547 0.42795 0.27644 0.0
Co510 Co 0.02687 0.07476 0.80976 0.0
Co511 Co 0.02268 0.11986 0.77953 0.0
C512 C 0.98822 0.09418 0.78644 0.0
O513 O 0.99932 0.07987 0.79906 0.0
O514 O 0.99488 0.11131 0.77621 0.0
C515 C 0.01458 0.03706 0.84731 0.0
O516 O 0.9992 0.04041 0.8213 0.0
C517 C 0.01364 0.16304 0.7868 0.0
C518 C 0.03533 0.17557 0.73729 0.0
C519 C 0.02055 0.18087 0.7685 0.0
N520 N 0.02405 0.14793 0.76758 0.0
N521 N 0.0369 0.15555 0.73784 0.0
C522 C 0.99667 0.16028 0.81939 0.0
H523 H 0.99555 0.14444 0.83055 0.0
H524 H 0.99783 0.16975 0.85125 0.0
H525 H 0.98329 0.16497 0.80064 0.0
C526 C 0.04485 0.09214 0.8924 0.0
N527 N 0.03642 0.09434 0.84992 0.0
N528 N 0.03413 0.11345 0.83994 0.0
C529 C 0.04108 0.124 0.87673 0.0
C530 C 0.048 0.11074 0.91095 0.0
C531 C 0.0491 0.07248 0.91596 0.0
H532 H 0.0353 0.06557 0.92685 0.0
H533 H 0.0582 0.0741 0.94789 0.0
H534 H 0.05673 0.06247 0.89048 0.0
O535 O 0.04139 0.07448 0.74929 0.0
O536 O 0.03829 0.10634 0.72772 0.0
H537 H 0.04598 0.15275 0.84571 0.0
H538 H 0.05037 0.15123 0.90897 0.0
C539 C 0.04095 0.14622 0.87986 0.0
H540 H 0.02601 0.15164 0.88715 0.0
H541 H 0.04692 0.14708 0.7183 0.0
O542 O 0.02873 0.0488 0.84378 0.0
C543 C 0.04475 0.08866 0.72013 0.0
H544 H 0.97827 0.96454 0.568 0.0
H545 H 0.94033 0.01222 0.51948 0.0
H546 H 0.99898 0.96954 0.49821 0.0
H547 H 0.96066 0.01683 0.44951 0.0
H548 H 0.01443 0.0331 0.36035 0.0
H549 H 0.99238 0.02852 0.42722 0.0
H550 H 0.99766 0.96462 0.41178 0.0
H551 H 0.02016 0.96915 0.34555 0.0
C552 C 0.97444 0.97616 0.54268 0.0
C553 C 0.95771 0.98799 0.54925 0.0
C554 C 0.98614 0.97886 0.50245 0.0
C555 C 0.98132 0.99345 0.46818 0.0
C556 C 0.96482 0.00556 0.47541 0.0
C557 C 0.95316 0.00287 0.51551 0.0
C558 C 0.01069 0.01807 0.37073 0.0
C559 C 0.01924 0.00149 0.34802 0.0
C560 C 0.99803 0.01545 0.40906 0.0
C561 C 0.99356 0.9962 0.42523 0.0
C562 C 0.00122 0.97963 0.40078 0.0
C563 C 0.01392 0.98224 0.36248 0.0
H564 H 0.51909 0.02237 0.90649 0.0
H565 H 0.45749 0.01303 0.90817 0.0
H566 H 0.52204 0.00372 0.98061 0.0
H567 H 0.46019 0.99564 0.9837 0.0
H568 H 0.4747 0.94922 0.09688 0.0
H569 H 0.47064 0.96707 0.02275 0.0
H570 H 0.51538 0.0077 0.06252 0.0
H571 H 0.52028 0.98887 0.13613 0.0
C572 C 0.50619 0.01623 0.92252 0.0
C573 C 0.48802 0.01944 0.90179 0.0
C574 C 0.50783 0.00583 0.96547 0.0
C575 C 0.4913 0.99861 0.98892 0.0
C576 C 0.47327 0.00091 0.96676 0.0
C577 C 0.4717 0.01095 0.92335 0.0
C578 C 0.48352 0.96214 0.09031 0.0
C579 C 0.498 0.96749 0.12221 0.0
C580 C 0.48114 0.97245 0.04761 0.0
C581 C 0.49289 0.98866 0.03611 0.0
C582 C 0.50646 0.9949 0.06959 0.0
C583 C 0.50906 0.98435 0.11217 0.0
H584 H 0.51462 0.53243 0.61644 0.0
H585 H 0.52251 0.46838 0.62129 0.0
H586 H 0.49307 0.5293 0.54941 0.0
H587 H 0.50031 0.4652 0.55537 0.0
H588 H 0.47983 0.46789 0.40219 0.0
H589 H 0.50048 0.47156 0.47125 0.0
H590 H 0.46252 0.51845 0.52404 0.0
H591 H 0.44243 0.51533 0.45452 0.0
C592 C 0.51142 0.51764 0.6039 0.0
C593 C 0.52049 0.50068 0.62381 0.0
C594 C 0.49903 0.51584 0.56542 0.0
C595 C 0.4952 0.497 0.54643 0.0
C596 C 0.50337 0.47996 0.56825 0.0
C597 C 0.51591 0.48178 0.60645 0.0
C598 C 0.47609 0.47916 0.42824 0.0
C599 C 0.45955 0.49135 0.42275 0.0
C600 C 0.48776 0.4811 0.46814 0.0
C601 C 0.48306 0.49519 0.50348 0.0
C602 C 0.46671 0.5076 0.49737 0.0
C603 C 0.45515 0.50577 0.45743 0.0
H604 H 0.00182 0.52786 0.01599 0.0
H605 H 0.97408 0.49206 0.12412 0.0
H606 H 0.00642 0.49861 0.96668 0.0
H607 H 0.97945 0.46238 0.07552 0.0
H608 H 0.97776 0.41541 0.95901 0.0
H609 H 0.97047 0.44543 0.00534 0.0
H610 H 0.0255 0.46958 0.96208 0.0
H611 H 0.03201 0.44017 0.91389 0.0
C612 C 0.99686 0.51366 0.02945 0.0
C613 C 0.98773 0.51223 0.07413 0.0
C614 C 0.99959 0.49682 0.00122 0.0
C615 C 0.99352 0.47801 0.01719 0.0
C616 C 0.98413 0.47663 0.06176 0.0
C617 C 0.98116 0.4936 0.08981 0.0
C618 C 0.98815 0.42728 0.95939 0.0
C619 C 0.00558 0.42542 0.93382 0.0
C620 C 0.9841 0.44438 0.98619 0.0
C621 C 0.99744 0.45994 0.98787 0.0
C622 C 0.01475 0.45807 0.96136 0.0
C623 C 0.01865 0.44111 0.93424 0.0
H624 H 0.5561 0.00584 0.52095 0.0
H625 H 0.52029 0.96488 0.59999 0.0
H626 H 0.53163 0.00873 0.45992 0.0
H627 H 0.49546 0.96824 0.53935 0.0
H628 H 0.46327 0.96321 0.4008 0.0
H629 H 0.48947 0.95941 0.4575 0.0
H630 H 0.49978 0.02266 0.44806 0.0
H631 H 0.47395 0.02637 0.3905 0.0
C632 C 0.54291 0.99758 0.52555 0.0
C633 C 0.54011 0.98516 0.56539 0.0
C634 C 0.52885 0.9993 0.49057 0.0
C635 C 0.51161 0.98871 0.4947 0.0
C636 C 0.50873 0.97636 0.53474 0.0
C637 C 0.52286 0.97458 0.5697 0.0
C638 C 0.47128 0.97626 0.41043 0.0
C639 C 0.4665 0.99511 0.39132 0.0
C640 C 0.48618 0.97411 0.44322 0.0
C641 C 0.49656 0.99076 0.45772 0.0
C642 C 0.49218 0.00949 0.43735 0.0
C643 C 0.47736 0.01163 0.40437 0.0
H644 H 0.482 0.51285 0.11734 0.0
H645 H 0.5389 0.5276 0.06486 0.0
H646 H 0.47665 0.49339 0.04609 0.0
H647 H 0.53308 0.50958 0.99252 0.0
H648 H 0.52386 0.46084 0.88576 0.0
H649 H 0.53002 0.47872 0.95821 0.0
H650 H 0.47007 0.49803 0.96475 0.0
H651 H 0.46369 0.47902 0.89329 0.0
C652 C 0.49339 0.5119 0.09071 0.0
C653 C 0.51076 0.52203 0.09648 0.0
C654 C 0.49022 0.501 0.04949 0.0
C655 C 0.50427 0.50021 0.01297 0.0
C656 C 0.52194 0.50969 0.01983 0.0
C657 C 0.52523 0.52023 0.06132 0.0
C658 C 0.51202 0.46912 0.90223 0.0
C659 C 0.49326 0.4685 0.88385 0.0
C660 C 0.51556 0.47943 0.94392 0.0
C661 C 0.50052 0.48972 0.96777 0.0
C662 C 0.48191 0.48985 0.94807 0.0
C663 C 0.47829 0.47923 0.90671 0.0
H664 H 0.93968 0.47076 0.55648 0.0
H665 H 0.97672 0.51164 0.62872 0.0
H666 H 0.96496 0.46443 0.49763 0.0
H667 H 0.00231 0.50472 0.57075 0.0
H668 H 0.03454 0.50771 0.43176 0.0
H669 H 0.00822 0.51259 0.4886 0.0
H670 H 0.99639 0.44957 0.48446 0.0
H671 H 0.02239 0.44485 0.42611 0.0
C672 C 0.95336 0.47813 0.5603 0.0
C673 C 0.95619 0.49183 0.597 0.0
C674 C 0.96786 0.47444 0.5266 0.0
C675 C 0.98553 0.48426 0.52917 0.0
C676 C 0.98866 0.49729 0.56715 0.0
C677 C 0.97409 0.50111 0.60063 0.0
C678 C 0.02614 0.49495 0.44253 0.0
C679 C 0.03052 0.4759 0.42479 0.0
C680 C 0.01121 0.4977 0.47547 0.0
C681 C 0.00049 0.4814 0.49177 0.0
C682 C 0.00435 0.46244 0.47248 0.0
C683 C 0.01919 0.45973 0.43902 0.0
H684 H 0.03217 0.95238 0.08023 0.0
H685 H 0.97473 0.9773 0.1016 0.0
H686 H 0.03668 0.97392 0.01134 0.0
H687 H 0.97946 0.99927 0.03308 0.0
H688 H 0.98412 0.01433 0.87528 0.0
H689 H 0.98132 0.99418 0.94728 0.0
H690 H 0.04011 0.00778 0.98323 0.0
H691 H 0.04315 0.02741 0.91046 0.0
C692 C 0.02064 0.96277 0.07084 0.0
C693 C 0.003 0.96296 0.09607 0.0
C694 C 0.02326 0.97515 0.03133 0.0
C695 C 0.00831 0.98806 0.01623 0.0
C696 C 0.99109 0.98914 0.04321 0.0
C697 C 0.98847 0.97675 0.08284 0.0
C698 C 0.99655 0.01281 0.89815 0.0
C699 C 0.01382 0.02261 0.88724 0.0
C700 C 0.99485 0.00149 0.93979 0.0
C701 C 0.01037 0.9997 0.97144 0.0
C702 C 0.02788 0.00887 0.95962 0.0
C703 C 0.0296 0.02015 0.9179 0.0
H704 H 0.10559 0.05684 0.1303 0.0
H705 H 0.05571 0.07995 0.20646 0.0
H706 H 0.09793 0.0785 0.06311 0.0
H707 H 0.04867 0.1027 0.14083 0.0
H708 H 0.02492 0.10939 0.98798 0.0
H709 H 0.03534 0.0999 0.06698 0.0
H710 H 0.09481 0.10904 0.02437 0.0
H711 H 0.08403 0.11741 0.94402 0.0
C712 C 0.09323 0.06692 0.13301 0.0
C713 C 0.08101 0.06641 0.17308 0.0
C714 C 0.08891 0.07958 0.09467 0.0
C715 C 0.07251 0.09236 0.096 0.0
C716 C 0.0611 0.09274 0.13772 0.0
C717 C 0.06514 0.07973 0.17549 0.0
C718 C 0.04013 0.11029 0.99634 0.0
C719 C 0.05369 0.11421 0.96035 0.0
C720 C 0.04621 0.10474 0.04173 0.0
C721 C 0.06605 0.10318 0.05217 0.0
C722 C 0.07947 0.10947 0.01736 0.0
C723 C 0.07333 0.11472 0.97161 0.0
H724 H 0.42624 0.10017 0.66718 0.0
H725 H 0.41575 0.04341 0.73536 0.0
H726 H 0.4082 0.08971 0.59828 0.0
H727 H 0.39703 0.03321 0.66722 0.0
H728 H 0.37396 0.069 0.47736 0.0
H729 H 0.37917 0.07993 0.55923 0.0
H730 H 0.40747 0.02336 0.59034 0.0
H731 H 0.40175 0.01258 0.50965 0.0
C732 C 0.41965 0.08565 0.66798 0.0
C733 C 0.42279 0.07245 0.70625 0.0
C734 C 0.40913 0.07969 0.62857 0.0
C735 C 0.40135 0.06048 0.62685 0.0
C736 C 0.4032 0.04793 0.66689 0.0
C737 C 0.41391 0.05379 0.70599 0.0
C738 C 0.3806 0.05875 0.50254 0.0
C739 C 0.38755 0.04004 0.48765 0.0
C740 C 0.3838 0.06503 0.54913 0.0
C741 C 0.39398 0.05264 0.58129 0.0
C742 C 0.39941 0.03326 0.56699 0.0
C743 C 0.39621 0.02706 0.52067 0.0
H744 H 0.44939 0.43373 0.20376 0.0
H745 H 0.38914 0.41925 0.19096 0.0
H746 H 0.45677 0.41524 0.13154 0.0
H747 H 0.3966 0.40014 0.11966 0.0
H748 H 0.41377 0.40229 0.95879 0.0
H749 H 0.40458 0.40958 0.04062 0.0
H750 H 0.45919 0.38471 0.08832 0.0
H751 H 0.46843 0.378 0.00551 0.0
C752 C 0.43778 0.42621 0.18615 0.0
C753 C 0.41863 0.42826 0.20267 0.0
C754 C 0.44203 0.41544 0.14484 0.0
C755 C 0.42725 0.40631 0.11937 0.0
C756 C 0.40829 0.4073 0.13776 0.0
C757 C 0.40401 0.41824 0.17874 0.0
C758 C 0.42342 0.3977 0.98707 0.0
C759 C 0.44168 0.3895 0.97631 0.0
C760 C 0.41822 0.40188 0.03405 0.0
C761 C 0.43124 0.39797 0.07123 0.0
C762 C 0.44895 0.38823 0.06052 0.0
C763 C 0.45415 0.3841 0.01332 0.0
H764 H 0.10175 0.39361 0.47962 0.0
H765 H 0.10714 0.44825 0.55741 0.0
H766 H 0.09095 0.37658 0.55223 0.0
H767 H 0.09664 0.43121 0.63046 0.0
H768 H 0.08357 0.38867 0.7577 0.0
H769 H 0.103 0.40097 0.69061 0.0
H770 H 0.05785 0.3851 0.59416 0.0
H771 H 0.03829 0.37321 0.6609 0.0
C772 C 0.10152 0.40167 0.51285 0.0
C773 C 0.10544 0.4221 0.51339 0.0
C774 C 0.09514 0.39203 0.55417 0.0
C775 C 0.09279 0.40265 0.59675 0.0
C776 C 0.09845 0.42266 0.59817 0.0
C777 C 0.10457 0.43237 0.55658 0.0
C778 C 0.07789 0.38763 0.7221 0.0
C779 C 0.05936 0.38003 0.71456 0.0
C780 C 0.089 0.3947 0.68384 0.0
C781 C 0.08198 0.39383 0.63728 0.0
C782 C 0.06372 0.3857 0.62966 0.0
C783 C 0.05246 0.37904 0.66789 0.0
H784 H 0.55274 0.92964 0.78029 0.0
H785 H 0.60906 0.93869 0.84049 0.0
H786 H 0.54207 0.91414 0.85428 0.0
H787 H 0.59818 0.92364 0.91496 0.0
H788 H 0.57659 0.88783 0.03991 0.0
H789 H 0.58733 0.89401 0.95771 0.0
H790 H 0.53436 0.92727 0.93149 0.0
H791 H 0.52366 0.92062 0.01259 0.0
C792 C 0.5629 0.92824 0.80919 0.0
C793 C 0.58168 0.93568 0.80462 0.0
C794 C 0.55675 0.91938 0.85168 0.0
C795 C 0.5692 0.91781 0.89075 0.0
C796 C 0.58827 0.92441 0.88545 0.0
C797 C 0.59446 0.9332 0.84283 0.0
C798 C 0.5671 0.89593 0.01589 0.0
C799 C 0.54935 0.90379 0.03223 0.0
C800 C 0.5733 0.89968 0.96913 0.0
C801 C 0.56177 0.91126 0.93807 0.0
C802 C 0.54353 0.9181 0.95408 0.0
C803 C 0.53742 0.91441 0.00062 0.0
H804 H 0.55594 0.54479 0.29374 0.0
H805 H 0.57246 0.60602 0.31208 0.0
H806 H 0.57239 0.53561 0.36696 0.0
H807 H 0.58952 0.59673 0.38436 0.0
H808 H 0.58497 0.57755 0.54338 0.0
H809 H 0.57861 0.58796 0.46192 0.0
H810 H 0.60167 0.5315 0.41146 0.0
H811 H 0.60745 0.52102 0.49392 0.0
C812 C 0.56342 0.55621 0.31289 0.0
C813 C 0.56259 0.57619 0.29761 0.0
C814 C 0.57303 0.55092 0.3547 0.0
C815 C 0.58217 0.56547 0.38182 0.0
C816 C 0.58231 0.58523 0.36485 0.0
C817 C 0.57254 0.59055 0.32339 0.0
C818 C 0.5892 0.56769 0.51462 0.0
C819 C 0.59664 0.54857 0.52437 0.0
C820 C 0.58562 0.57361 0.46791 0.0
C821 C 0.58946 0.56048 0.43005 0.0
C822 C 0.59827 0.54183 0.43987 0.0
C823 C 0.6018 0.5359 0.48681 0.0
H824 H 0.91504 0.60737 0.03002 0.0
H825 H 0.97064 0.5845 0.98399 0.0
H826 H 0.90261 0.60336 0.94933 0.0
H827 H 0.95845 0.5798 0.90451 0.0
H828 H 0.88329 0.55667 0.83677 0.0
H829 H 0.89397 0.57446 0.90656 0.0
H830 H 0.94625 0.59077 0.83148 0.0
H831 H 0.93595 0.57205 0.76274 0.0
C832 C 0.92473 0.60219 0.00208 0.0
C833 C 0.94375 0.59634 0.01262 0.0
C834 C 0.91761 0.59961 0.95614 0.0
C835 C 0.92942 0.591 0.92037 0.0
C836 C 0.94893 0.58672 0.93059 0.0
C837 C 0.95598 0.58937 0.97622 0.0
C838 C 0.89691 0.56433 0.83501 0.0
C839 C 0.90899 0.56259 0.79479 0.0
C840 C 0.903 0.57472 0.87491 0.0
C841 C 0.92115 0.58384 0.87506 0.0
C842 C 0.93243 0.58348 0.83315 0.0
C843 C 0.92652 0.57279 0.79369 0.0
H844 H 0.93911 0.94081 0.29072 0.0
H845 H 0.92672 0.878 0.2988 0.0
H846 H 0.91853 0.94687 0.35935 0.0
H847 H 0.90532 0.88418 0.36687 0.0
H848 H 0.89951 0.90121 0.52813 0.0
H849 H 0.90873 0.89161 0.44773 0.0
H850 H 0.88794 0.94881 0.39546 0.0
H851 H 0.87972 0.95857 0.47682 0.0
C852 C 0.93168 0.9283 0.30658 0.0
C853 C 0.9348 0.90887 0.28948 0.0
C854 C 0.91962 0.93182 0.34586 0.0
C855 C 0.91012 0.91604 0.36898 0.0
C856 C 0.91257 0.89669 0.35053 0.0
C857 C 0.92483 0.89313 0.31139 0.0
C858 C 0.89612 0.91131 0.49903 0.0
C859 C 0.88904 0.93061 0.5084 0.0
C860 C 0.90148 0.90589 0.45278 0.0
C861 C 0.89964 0.91965 0.41496 0.0
C862 C 0.89017 0.93805 0.42385 0.0
C863 C 0.88507 0.94355 0.47028 0.0
H864 H 0.98115 0.90799 0.98402 0.0
H865 H 0.92811 0.87765 0.01493 0.0
H866 H 0.97011 0.91561 0.90415 0.0
H867 H 0.917 0.88473 0.93382 0.0
H868 H 0.89438 0.93155 0.82217 0.0
H869 H 0.90581 0.91464 0.89375 0.0
H870 H 0.96169 0.905 0.82707 0.0
H871 H 0.95047 0.92251 0.75617 0.0
C872 C 0.96733 0.90239 0.97294 0.0
C873 C 0.95543 0.89232 0.00538 0.0
C874 C 0.96099 0.90668 0.92707 0.0
C875 C 0.94255 0.90095 0.91248 0.0
C876 C 0.93115 0.88963 0.94411 0.0
C877 C 0.93757 0.88532 0.99026 0.0
C878 C 0.90904 0.92563 0.82258 0.0
C879 C 0.9216 0.9287 0.7837 0.0
C880 C 0.91556 0.91576 0.86355 0.0
C881 C 0.93475 0.90858 0.86646 0.0
C882 C 0.94695 0.91068 0.82649 0.0
C883 C 0.94049 0.92071 0.78575 0.0
H884 H 0.60975 0.90358 0.54179 0.0
H885 H 0.62653 0.96268 0.49979 0.0
H886 H 0.60147 0.89621 0.46019 0.0
H887 H 0.6192 0.9552 0.41715 0.0
H888 H 0.56643 0.94966 0.31841 0.0
H889 H 0.58813 0.95402 0.38432 0.0
H890 H 0.60486 0.89166 0.37778 0.0
H891 H 0.58239 0.88715 0.31272 0.0
C892 C 0.61278 0.91456 0.51437 0.0
C893 C 0.61855 0.93371 0.5268 0.0
C894 C 0.60794 0.91042 0.46744 0.0
C895 C 0.60903 0.92536 0.4321 0.0
C896 C 0.61755 0.94357 0.44371 0.0
C897 C 0.62215 0.94776 0.49084 0.0
C898 C 0.5749 0.93691 0.33056 0.0
C899 C 0.57241 0.918 0.31076 0.0
C900 C 0.5876 0.93945 0.36819 0.0
C901 C 0.59833 0.92318 0.38672 0.0
C902 C 0.59663 0.90447 0.36503 0.0
C903 C 0.58375 0.90188 0.32767 0.0
H904 H 0.53564 0.62494 0.99214 0.0
H905 H 0.58874 0.59782 0.04107 0.0
H906 H 0.54499 0.6176 0.90993 0.0
H907 H 0.59794 0.58977 0.95977 0.0
H908 H 0.61043 0.57277 0.81117 0.0
H909 H 0.60578 0.59515 0.87841 0.0
H910 H 0.54423 0.58564 0.87405 0.0
H911 H 0.54881 0.56393 0.80622 0.0
C912 C 0.54974 0.61829 0.98495 0.0
C913 C 0.56153 0.61192 0.02247 0.0
C914 C 0.55498 0.61375 0.93805 0.0
C915 C 0.57196 0.60254 0.92826 0.0
C916 C 0.5848 0.59843 0.96568 0.0
C917 C 0.57961 0.60311 0.0124 0.0
C918 C 0.59588 0.57568 0.82422 0.0
C919 C 0.58001 0.56631 0.80376 0.0
C920 C 0.59322 0.58854 0.86276 0.0
C921 C 0.57465 0.59219 0.88194 0.0
C922 C 0.55872 0.58353 0.8599 0.0
C923 C 0.56137 0.57083 0.8212 0.0
H924 H 0.92691 0.59896 0.3008 0.0
H925 H 0.94042 0.53588 0.2973 0.0
H926 H 0.90623 0.59389 0.37014 0.0
H927 H 0.92051 0.53086 0.368 0.0
H928 H 0.87966 0.5225 0.48634 0.0
H929 H 0.88984 0.53013 0.40476 0.0
H930 H 0.91002 0.58736 0.45115 0.0
H931 H 0.89898 0.57987 0.53158 0.0
C932 C 0.92551 0.58399 0.31495 0.0
C933 C 0.93549 0.56785 0.2938 0.0
C934 C 0.91365 0.58108 0.35484 0.0
C935 C 0.91168 0.56198 0.37512 0.0
C936 C 0.9213 0.54575 0.35309 0.0
C937 C 0.93294 0.54864 0.31273 0.0
C938 C 0.88541 0.53706 0.47825 0.0
C939 C 0.88842 0.55071 0.51474 0.0
C940 C 0.89162 0.54131 0.43181 0.0
C941 C 0.90122 0.55918 0.42133 0.0
C942 C 0.9026 0.57352 0.45742 0.0
C943 C 0.89619 0.56932 0.50362 0.0
H944 H 0.41156 0.10787 0.96834 0.0
H945 H 0.46857 0.08838 0.01013 0.0
H946 H 0.39951 0.10151 0.04931 0.0
H947 H 0.45679 0.08146 0.09 0.0
H948 H 0.38363 0.05207 0.16177 0.0
H949 H 0.39309 0.07109 0.09136 0.0
H950 H 0.44381 0.09103 0.16417 0.0
H951 H 0.43476 0.07129 0.23355 0.0
C952 C 0.42161 0.10294 0.99544 0.0
C953 C 0.44095 0.09868 0.98353 0.0
C954 C 0.41471 0.099 0.04153 0.0
C955 C 0.4271 0.09071 0.07618 0.0
C956 C 0.44682 0.08806 0.06474 0.0
C957 C 0.45364 0.09201 0.01892 0.0
C958 C 0.39663 0.06078 0.16291 0.0
C959 C 0.40867 0.05984 0.20275 0.0
C960 C 0.402 0.07184 0.12266 0.0
C961 C 0.4194 0.08241 0.12173 0.0
C962 C 0.43059 0.08269 0.16314 0.0
C963 C 0.42538 0.07139 0.20298 0.0
H964 H 0.43414 0.38742 0.65826 0.0
H965 H 0.41685 0.44208 0.72813 0.0
H966 H 0.41447 0.39661 0.59033 0.0
H967 H 0.39623 0.45087 0.66123 0.0
H968 H 0.39555 0.47327 0.50439 0.0
H969 H 0.40258 0.46278 0.58501 0.0
H970 H 0.38504 0.40295 0.55163 0.0
H971 H 0.37884 0.41367 0.46961 0.0
C972 C 0.42576 0.40121 0.65954 0.0
C973 C 0.42737 0.41424 0.69806 0.0
C974 C 0.41425 0.40641 0.62072 0.0
C975 C 0.40381 0.42463 0.61985 0.0
C976 C 0.4044 0.43696 0.66005 0.0
C977 C 0.4162 0.43193 0.69847 0.0
C978 C 0.39242 0.4581 0.51502 0.0
C979 C 0.38665 0.44426 0.48123 0.0
C980 C 0.39646 0.45199 0.56135 0.0
C981 C 0.39474 0.43186 0.57491 0.0
C982 C 0.38696 0.41847 0.54214 0.0
C983 C 0.38306 0.42461 0.49545 0.0
H984 H 0.05097 0.36745 0.03765 0.0
H985 H 0.11222 0.35569 0.02169 0.0
H986 H 0.05598 0.38085 0.11536 0.0
H987 H 0.1173 0.36849 0.10151 0.0
H988 H 0.12092 0.42199 0.203 0.0
H989 H 0.11744 0.40026 0.1351 0.0
H990 H 0.06396 0.37845 0.19501 0.0
H991 H 0.067 0.4011 0.26162 0.0
C992 C 0.06547 0.36688 0.05136 0.0
C993 C 0.0812 0.36039 0.02314 0.0
C994 C 0.06838 0.37468 0.09646 0.0
C995 C 0.0871 0.37606 0.11488 0.0
C996 C 0.10271 0.36814 0.08812 0.0
C997 C 0.0998 0.36057 0.04258 0.0
C998 C 0.10849 0.41245 0.20178 0.0
C999 C 0.09409 0.41349 0.23726 0.0
C1000 C 0.10656 0.39978 0.163 0.0
C1001 C 0.09034 0.38757 0.15916 0.0
C1002 C 0.07643 0.38793 0.19605 0.0
C1003 C 0.07818 0.40089 0.23437 0.0
H1004 H 0.11089 0.03428 0.48645 0.0
H1005 H 0.07589 0.08154 0.42573 0.0
H1006 H 0.10298 0.04645 0.56644 0.0
H1007 H 0.0674 0.09341 0.50491 0.0
H1008 H 0.058 0.11519 0.65306 0.0
H1009 H 0.07529 0.10773 0.57911 0.0
H1010 H 0.07407 0.04486 0.61348 0.0
H1011 H 0.05741 0.05234 0.68773 0.0
C1012 C 0.10196 0.04761 0.49036 0.0
C1013 C 0.09391 0.05699 0.45035 0.0
C1014 C 0.0972 0.05445 0.53602 0.0
C1015 C 0.08426 0.07073 0.54227 0.0
C1016 C 0.0775 0.08097 0.50172 0.0
C1017 C 0.08232 0.07417 0.45628 0.0
C1018 C 0.06158 0.09979 0.64501 0.0
C1019 C 0.05612 0.08436 0.67621 0.0
C1020 C 0.07148 0.0955 0.60254 0.0
C1021 C 0.07607 0.07567 0.5901 0.0
C1022 C 0.07112 0.06033 0.62208 0.0
C1023 C 0.06133 0.06462 0.66459 0.0
H1024 H 0.02261 0.90378 0.30082 0.0
H1025 H 0.03943 0.88632 0.15913 0.0
H1026 H 0.05267 0.92156 0.30903 0.0
H1027 H 0.06971 0.90415 0.16696 0.0
H1028 H 0.08394 0.97374 0.17255 0.0
H1029 H 0.06976 0.94099 0.16599 0.0
H1030 H 0.088 0.92657 0.30876 0.0
H1031 H 0.10227 0.9596 0.31487 0.0
C1032 C 0.03336 0.90266 0.27261 0.0
C1033 C 0.02884 0.8935 0.22961 0.0
C1034 C 0.0506 0.91298 0.2771 0.0
C1035 C 0.0635 0.91459 0.23829 0.0
C1036 C 0.06 0.90335 0.19732 0.0
C1037 C 0.04279 0.89287 0.19306 0.0
C1038 C 0.08589 0.96312 0.20141 0.0
C1039 C 0.09441 0.96903 0.2439 0.0
C1040 C 0.07772 0.94431 0.19782 0.0
C1041 C 0.07757 0.93116 0.23707 0.0
C1042 C 0.08779 0.93638 0.278 0.0
C1043 C 0.09617 0.95518 0.28134 0.0
H1044 H 0.59393 0.02249 0.78744 0.0
H1045 H 0.59277 0.03316 0.63634 0.0
H1046 H 0.57315 0.05169 0.80017 0.0
H1047 H 0.57267 0.06298 0.64871 0.0
H1048 H 0.50727 0.07411 0.68794 0.0
H1049 H 0.53923 0.06104 0.66807 0.0
H1050 H 0.56146 0.08577 0.79757 0.0
H1051 H 0.52898 0.09865 0.81742 0.0
C1052 C 0.59025 0.03188 0.75723 0.0
C1053 C 0.59494 0.02569 0.71099 0.0
C1054 C 0.57823 0.04864 0.76439 0.0
C1055 C 0.57078 0.05945 0.72531 0.0
C1056 C 0.57775 0.05473 0.67951 0.0
C1057 C 0.58952 0.03783 0.67239 0.0
C1058 C 0.5192 0.07752 0.71096 0.0
C1059 C 0.51582 0.08752 0.7538 0.0
C1060 C 0.53761 0.07006 0.69966 0.0
C1061 C 0.55303 0.0722 0.73138 0.0
C1062 C 0.54991 0.0837 0.77254 0.0
C1063 C 0.5314 0.09128 0.78369 0.0
H1064 H 0.41235 0.51412 0.18954 0.0
H1065 H 0.39776 0.53664 0.3285 0.0
H1066 H 0.42859 0.54486 0.17004 0.0
H1067 H 0.41333 0.56813 0.30877 0.0
H1068 H 0.47688 0.59103 0.29054 0.0
H1069 H 0.44649 0.57445 0.30542 0.0
H1070 H 0.43329 0.57864 0.15564 0.0
H1071 H 0.46442 0.59419 0.14103 0.0
C1072 C 0.41168 0.52621 0.21487 0.0
C1073 C 0.40373 0.5232 0.26022 0.0
C1074 C 0.42102 0.54394 0.20383 0.0
C1075 C 0.42264 0.55902 0.23813 0.0
C1076 C 0.41274 0.55673 0.28181 0.0
C1077 C 0.40355 0.53885 0.29295 0.0
C1078 C 0.46702 0.58923 0.26129 0.0
C1079 C 0.47286 0.59385 0.21476 0.0
C1080 C 0.44952 0.57968 0.26966 0.0
C1081 C 0.4375 0.57469 0.23152 0.0
C1082 C 0.44237 0.58171 0.18571 0.0
C1083 C 0.46006 0.5909 0.17731 0.0
H1084 H 0.88589 0.45865 0.65953 0.0
H1085 H 0.8955 0.47253 0.80652 0.0
H1086 H 0.89903 0.42496 0.67253 0.0
H1087 H 0.90864 0.43893 0.8199 0.0
H1088 H 0.96002 0.39387 0.70175 0.0
H1089 H 0.93419 0.41815 0.6868 0.0
H1090 H 0.90629 0.4014 0.8188 0.0
H1091 H 0.93219 0.37694 0.83378 0.0
C1092 C 0.88984 0.45408 0.69521 0.0
C1093 C 0.88944 0.46794 0.73227 0.0
C1094 C 0.89758 0.43492 0.70254 0.0
C1095 C 0.90508 0.42938 0.74708 0.0
C1096 C 0.90282 0.44266 0.7853 0.0
C1097 C 0.89521 0.46187 0.77781 0.0
C1098 C 0.94812 0.39497 0.72698 0.0
C1099 C 0.94826 0.38363 0.76913 0.0
C1100 C 0.93322 0.4088 0.71827 0.0
C1101 C 0.91822 0.41174 0.75176 0.0
C1102 C 0.91771 0.3995 0.7925 0.0
C1103 C 0.9325 0.38545 0.80091 0.0
H1104 H 0.96308 0.10739 0.71747 0.0
H1105 H 0.96705 0.06986 0.84228 0.0
H1106 H 0.93281 0.0914 0.69636 0.0
H1107 H 0.93741 0.05372 0.82125 0.0
H1108 H 0.8896 0.01933 0.77643 0.0
H1109 H 0.90389 0.05037 0.80355 0.0
H1110 H 0.93024 0.05846 0.66491 0.0
H1111 H 0.91577 0.02798 0.63828 0.0
C1112 C 0.95711 0.09628 0.74129 0.0
C1113 C 0.96755 0.0896 0.781 0.0
C1114 C 0.93986 0.08699 0.72908 0.0
C1115 C 0.93279 0.07095 0.75655 0.0
C1116 C 0.9422 0.06601 0.79921 0.0
C1117 C 0.95938 0.07517 0.81114 0.0
C1118 C 0.89765 0.02834 0.75128 0.0
C1119 C 0.90179 0.02122 0.70549 0.0
C1120 C 0.90603 0.04601 0.76686 0.0
C1121 C 0.91863 0.05674 0.7368 0.0
C1122 C 0.92064 0.05077 0.68919 0.0
C1123 C 0.91239 0.03318 0.67384 0.0
H1124 H 0.46796 0.88767 0.19998 0.0
H1125 H 0.48182 0.91773 0.32967 0.0
H1126 H 0.43445 0.89997 0.20678 0.0
H1127 H 0.44851 0.92961 0.33731 0.0
H1128 H 0.40638 0.96741 0.19911 0.0
H1129 H 0.42634 0.93715 0.19577 0.0
H1130 H 0.41224 0.92454 0.34265 0.0
H1131 H 0.39207 0.95481 0.34549 0.0
C1132 C 0.46354 0.89591 0.23137 0.0
C1133 C 0.47733 0.90165 0.26458 0.0
C1134 C 0.44443 0.90309 0.23504 0.0
C1135 C 0.43884 0.91582 0.27244 0.0
C1136 C 0.45222 0.91962 0.30841 0.0
C1137 C 0.47134 0.9128 0.30418 0.0
C1138 C 0.40646 0.95742 0.22957 0.0
C1139 C 0.39757 0.96329 0.27237 0.0
C1140 C 0.41801 0.9401 0.22786 0.0
C1141 C 0.42112 0.92863 0.26925 0.0
C1142 C 0.41019 0.93315 0.31031 0.0
C1143 C 0.39844 0.95035 0.31177 0.0
H1144 H 0.60007 0.45809 0.67452 0.0
H1145 H 0.58051 0.47397 0.8153 0.0
H1146 H 0.58386 0.42608 0.68206 0.0
H1147 H 0.56446 0.44214 0.82332 0.0
H1148 H 0.51629 0.40967 0.68861 0.0
H1149 H 0.54769 0.42519 0.68113 0.0
H1150 H 0.56204 0.40495 0.82277 0.0
H1151 H 0.53046 0.38927 0.82975 0.0
C1152 C 0.59332 0.45418 0.70817 0.0
C1153 C 0.59166 0.4683 0.74458 0.0
C1154 C 0.58385 0.43597 0.71231 0.0
C1155 C 0.57268 0.43166 0.75303 0.0
C1156 C 0.57309 0.44485 0.79166 0.0
C1157 C 0.58235 0.4631 0.78725 0.0
C1158 C 0.52664 0.40752 0.71691 0.0
C1159 C 0.52115 0.3981 0.75944 0.0
C1160 C 0.54465 0.41646 0.71279 0.0
C1161 C 0.55732 0.41647 0.7516 0.0
C1162 C 0.55257 0.40523 0.79236 0.0
C1163 C 0.5346 0.39608 0.7962 0.0
H1164 H 0.02943 0.59369 0.26994 0.0
H1165 H 0.03074 0.55391 0.15023 0.0
H1166 H 0.06026 0.57923 0.29703 0.0
H1167 H 0.06092 0.5393 0.17712 0.0
H1168 H 0.11021 0.50785 0.23131 0.0
H1169 H 0.09411 0.53768 0.19846 0.0
H1170 H 0.06511 0.54722 0.33349 0.0
H1171 H 0.08155 0.51802 0.36585 0.0
C1172 C 0.03664 0.58238 0.24856 0.0
C1173 C 0.02756 0.57466 0.2085 0.0
C1174 C 0.05422 0.57396 0.26419 0.0
C1175 C 0.063 0.55779 0.23981 0.0
C1176 C 0.05483 0.55174 0.19686 0.0
C1177 C 0.03733 0.56001 0.18156 0.0
C1178 C 0.10117 0.51699 0.25441 0.0
C1179 C 0.09695 0.51062 0.30089 0.0
C1180 C 0.09173 0.53394 0.23556 0.0
C1181 C 0.07789 0.54465 0.26291 0.0
C1182 C 0.07564 0.53953 0.31119 0.0
C1183 C 0.08502 0.52267 0.32984 0.0
H1184 H 0.19347 0.00177 0.27948 0.0
H1185 H 0.19818 0.06528 0.29901 0.0
H1186 H 0.22803 0.99753 0.29463 0.0
H1187 H 0.23252 0.06124 0.31169 0.0
H1188 H 0.29113 0.05121 0.36322 0.0
H1189 H 0.25606 0.04925 0.36554 0.0
H1190 H 0.25857 0.00468 0.25535 0.0
H1191 H 0.29391 0.00612 0.25484 0.0
C1192 C 0.20173 0.01476 0.28795 0.0
C1193 C 0.19298 0.03384 0.28878 0.0
C1194 C 0.22162 0.01236 0.29592 0.0
C1195 C 0.23309 0.02901 0.30478 0.0
C1196 C 0.22416 0.048 0.30612 0.0
C1197 C 0.20443 0.05036 0.29829 0.0
C1198 C 0.28416 0.04071 0.34024 0.0
C1199 C 0.29511 0.0289 0.30869 0.0
C1200 C 0.26407 0.03965 0.3413 0.0
C1201 C 0.25443 0.02713 0.30989 0.0
C1202 C 0.2655 0.01441 0.28022 0.0
C1203 C 0.28572 0.01524 0.27979 0.0
H1204 H 0.43284 0.19857 0.84146 0.0
H1205 H 0.48252 0.1891 0.74982 0.0
H1206 H 0.43943 0.23419 0.8436 0.0
H1207 H 0.48904 0.2249 0.75155 0.0
H1208 H 0.46438 0.29003 0.70789 0.0
H1209 H 0.46738 0.25381 0.71644 0.0
H1210 H 0.46553 0.2596 0.86919 0.0
H1211 H 0.46271 0.29594 0.86047 0.0
C1212 C 0.44534 0.20412 0.82241 0.0
C1213 C 0.45722 0.1912 0.79561 0.0
C1214 C 0.44921 0.22442 0.82397 0.0
C1215 C 0.46479 0.23219 0.79793 0.0
C1216 C 0.477 0.21918 0.77208 0.0
C1217 C 0.47332 0.19877 0.77124 0.0
C1218 C 0.46515 0.28353 0.74322 0.0
C1219 C 0.4635 0.29561 0.78354 0.0
C1220 C 0.46697 0.26288 0.74813 0.0
C1221 C 0.46672 0.254 0.79347 0.0
C1222 C 0.46583 0.26617 0.8339 0.0
C1223 C 0.46436 0.28688 0.82895 0.0
H1224 H 0.3053 0.46636 0.36427 0.0
H1225 H 0.29299 0.46386 0.21446 0.0
H1226 H 0.27069 0.46819 0.38235 0.0
H1227 H 0.25833 0.46546 0.23242 0.0
H1228 H 0.19669 0.47887 0.27974 0.0
H1229 H 0.23091 0.48662 0.26891 0.0
H1230 H 0.24607 0.44111 0.37208 0.0
H1231 H 0.21197 0.43345 0.38286 0.0
C1232 C 0.29519 0.46696 0.33517 0.0
C1233 C 0.30171 0.46538 0.28794 0.0
C1234 C 0.27541 0.46775 0.34553 0.0
C1235 C 0.26187 0.46701 0.30878 0.0
C1236 C 0.26846 0.46635 0.26138 0.0
C1237 C 0.28823 0.46533 0.2511 0.0
C1238 C 0.20733 0.47096 0.30102 0.0
C1239 C 0.20177 0.4557 0.33246 0.0
C1240 C 0.22687 0.47526 0.29452 0.0
C1241 C 0.2411 0.4645 0.31977 0.0
C1242 C 0.2354 0.44983 0.35265 0.0
C1243 C 0.21593 0.44535 0.3586 0.0
H1244 H 0.03659 0.29756 0.87677 0.0
H1245 H 0.99004 0.30779 0.77782 0.0
H1246 H 0.03398 0.26173 0.8657 0.0
H1247 H 0.98739 0.2719 0.76711 0.0
H1248 H 0.01296 0.2116 0.70821 0.0
H1249 H 0.00891 0.24685 0.7278 0.0
H1250 H 0.0133 0.23224 0.87715 0.0
H1251 H 0.01777 0.19703 0.85725 0.0
C1252 C 0.02559 0.29219 0.85324 0.0
C1253 C 0.01366 0.30561 0.82782 0.0
C1254 C 0.02402 0.27161 0.84712 0.0
C1255 C 0.01056 0.26398 0.81526 0.0
C1256 C 0.99806 0.27734 0.79146 0.0
C1257 C 0.99953 0.29791 0.79782 0.0
C1258 C 0.01263 0.21593 0.74524 0.0
C1259 C 0.01521 0.20158 0.78125 0.0
C1260 C 0.01023 0.23608 0.75652 0.0
C1261 C 0.01071 0.24234 0.80408 0.0
C1262 C 0.01286 0.22788 0.8402 0.0
C1263 C 0.01508 0.20768 0.82888 0.0
H1264 H 0.70572 0.97015 0.79907 0.0
H1265 H 0.69955 0.96185 0.64815 0.0
H1266 H 0.74089 0.97107 0.78899 0.0
H1267 H 0.73471 0.96265 0.63799 0.0
H1268 H 0.79512 0.93069 0.66725 0.0
H1269 H 0.76022 0.93685 0.66892 0.0
H1270 H 0.76853 0.99113 0.7469 0.0
H1271 H 0.80361 0.98504 0.7447 0.0
C1272 C 0.71191 0.96902 0.76364 0.0
C1273 C 0.7 0.96629 0.72428 0.0
C1274 C 0.73198 0.9696 0.75785 0.0
C1275 C 0.74047 0.96697 0.71271 0.0
C1276 C 0.72849 0.96478 0.67314 0.0
C1277 C 0.7084 0.96454 0.67885 0.0
C1278 C 0.78949 0.94407 0.68417 0.0
C1279 C 0.802 0.95747 0.70554 0.0
C1280 C 0.76956 0.94766 0.68485 0.0
C1281 C 0.76172 0.96452 0.70783 0.0
C1282 C 0.77424 0.97806 0.72884 0.0
C1283 C 0.79426 0.97465 0.72733 0.0
H1284 H 0.53302 0.69755 0.1446 0.0
H1285 H 0.52837 0.70342 0.29693 0.0
H1286 H 0.53129 0.73384 0.13574 0.0
H1287 H 0.52684 0.73968 0.28829 0.0
H1288 H 0.51388 0.80446 0.25569 0.0
H1289 H 0.50733 0.76878 0.25472 0.0
H1290 H 0.556 0.75927 0.15972 0.0
H1291 H 0.5624 0.79495 0.16031 0.0
C1292 C 0.53093 0.70659 0.176 0.0
C1293 C 0.5305 0.69781 0.2214 0.0
C1294 C 0.5302 0.72732 0.17099 0.0
C1295 C 0.52892 0.73952 0.21133 0.0
C1296 C 0.52757 0.73063 0.25658 0.0
C1297 C 0.52854 0.70994 0.26157 0.0
C1298 C 0.52283 0.79481 0.23362 0.0
C1299 C 0.53852 0.80241 0.20766 0.0
C1300 C 0.51918 0.77441 0.2334 0.0
C1301 C 0.5311 0.76133 0.20698 0.0
C1302 C 0.54641 0.76907 0.17982 0.0
C1303 C 0.55017 0.78941 0.18047 0.0
H1304 H 0.78767 0.53271 0.78062 0.0
H1305 H 0.79383 0.53011 0.62802 0.0
H1306 H 0.75293 0.52755 0.77383 0.0
H1307 H 0.75901 0.52498 0.62106 0.0
H1308 H 0.69622 0.55421 0.64369 0.0
H1309 H 0.73132 0.55002 0.64136 0.0
H1310 H 0.72757 0.50233 0.74484 0.0
H1311 H 0.69227 0.50645 0.74679 0.0
C1312 C 0.78158 0.53065 0.74572 0.0
C1313 C 0.79331 0.5316 0.70487 0.0
C1314 C 0.76179 0.52754 0.74185 0.0
C1315 C 0.75337 0.52576 0.69694 0.0
C1316 C 0.76521 0.52621 0.65608 0.0
C1317 C 0.78509 0.529 0.66004 0.0
C1318 C 0.7029 0.54256 0.66514 0.0
C1319 C 0.69165 0.53061 0.6953 0.0
C1320 C 0.72293 0.54007 0.66358 0.0
C1321 C 0.7321 0.52585 0.6929 0.0
C1322 C 0.72079 0.51339 0.72188 0.0
C1323 C 0.70066 0.51565 0.72278 0.0
H1324 H 0.93498 0.69103 0.19282 0.0
H1325 H 0.99706 0.68593 0.20424 0.0
H1326 H 0.93727 0.72669 0.1828 0.0
H1327 H 0.99946 0.72199 0.19191 0.0
H1328 H 0.98925 0.78979 0.23353 0.0
H1329 H 0.99184 0.7533 0.23321 0.0
H1330 H 0.94701 0.75151 0.12767 0.0
H1331 H 0.94404 0.78769 0.12948 0.0
C1332 C 0.94921 0.69749 0.19253 0.0
C1333 C 0.96585 0.68548 0.19882 0.0
C1334 C 0.95054 0.71802 0.18621 0.0
C1335 C 0.96858 0.72729 0.18584 0.0
C1336 C 0.98533 0.71533 0.19193 0.0
C1337 C 0.98398 0.6946 0.19832 0.0
C1338 C 0.98028 0.78154 0.20959 0.0
C1339 C 0.96636 0.7915 0.18172 0.0
C1340 C 0.98176 0.76064 0.20934 0.0
C1341 C 0.9694 0.74941 0.18099 0.0
C1342 C 0.9564 0.75961 0.15089 0.0
C1343 C 0.95476 0.78036 0.15167 0.0
loop_
_geom_bond_atom_site_label_1
_geom_bond_atom_site_label_2
_geom_bond_distance
_geom_bond_site_symmetry_2
_ccdc_geom_bond_type
Co0 O3 1.970 1_545 S
Co0 N17 1.989 . S
Co0 O25 1.967 . S
Co0 O32 1.920 . S
Co1 O4 1.966 . S
Co1 N10 2.022 . S
Co1 N18 1.993 . S
Co1 O26 1.941 . S
C2 O3 1.258 . S
C2 O4 1.263 1_565 S
O3 Co0 1.970 1_565 S
O3 C2 1.258 . S
O4 Co1 1.966 . S
O4 C2 1.263 1_545 S
C5 O6 1.235 . S
C5 O32 1.289 . S
O6 C5 1.235 . S
C7 C9 1.400 . S
C7 N10 1.351 . S
C7 C12 1.501 1_545 S
C8 C9 1.387 . S
C8 N11 1.341 . S
C9 C7 1.400 . S
C9 C8 1.387 . S
N10 Co1 2.022 . S
N10 C7 1.351 . S
N10 N11 1.365 . S
N11 C8 1.341 . S
N11 N10 1.365 . S
N11 H31 0.862 . S
C12 C7 1.501 1_565 S
C12 H13 0.961 . S
C12 H14 0.961 . S
C12 H15 0.960 . S
H13 C12 0.961 . S
H14 C12 0.961 . S
H15 C12 0.960 . S
C16 N17 1.342 . S
C16 C20 1.401 . S
C16 C21 1.499 . S
N17 Co0 1.989 . S
N17 C16 1.342 . S
N17 N18 1.388 . S
N18 Co1 1.993 . S
N18 N17 1.388 . S
N18 C19 1.346 . S
C19 N18 1.346 . S
C19 C20 1.396 . S
C19 C29 1.510 . S
C20 C16 1.401 . S
C20 C19 1.396 . S
C21 C16 1.499 . S
C21 H22 0.959 . S
C21 H23 0.960 . S
C21 H24 0.961 . S
H22 C21 0.959 . S
H23 C21 0.960 . S
H24 C21 0.961 . S
O25 Co0 1.967 . S
O25 C33 1.258 . S
O26 Co1 1.941 . S
O26 C33 1.266 . S
H27 C29 0.959 . S
H28 C29 0.961 . S
C29 C19 1.510 . S
C29 H27 0.959 . S
C29 H28 0.961 . S
C29 H30 0.960 . S
H30 C29 0.960 . S
H31 N11 0.862 . S
O32 Co0 1.920 . S
O32 C5 1.289 . S
C33 O25 1.258 . S
C33 O26 1.266 . S
Co34 O37 1.970 . S
Co34 N51 1.989 . S
Co34 O59 1.967 . S
Co34 O66 1.920 . S
Co35 O38 1.966 . S
Co35 N44 2.022 . S
Co35 N52 1.993 . S
Co35 O60 1.941 . S
C36 O37 1.258 . S
C36 O38 1.263 . S
O37 Co34 1.970 . S
O37 C36 1.258 . S
O38 Co35 1.966 . S
O38 C36 1.263 . S
C39 O40 1.235 . S
C39 O66 1.289 . S
O40 C39 1.235 . S
C41 C43 1.400 . S
C41 N44 1.351 . S
C41 C46 1.501 . S
C42 C43 1.387 . S
C42 N45 1.341 . S
C43 C41 1.400 . S
C43 C42 1.387 . S
N44 Co35 2.022 . S
N44 C41 1.351 . S
N44 N45 1.365 . S
N45 C42 1.341 . S
N45 N44 1.365 . S
N45 H65 0.862 . S
C46 C41 1.501 . S
C46 H47 0.961 . S
C46 H48 0.961 . S
C46 H49 0.960 . S
H47 C46 0.961 . S
H48 C46 0.961 . S
H49 C46 0.960 . S
C50 N51 1.342 . S
C50 C54 1.401 1_556 S
C50 C55 1.499 1_556 S
N51 Co34 1.989 . S
N51 C50 1.342 . S
N51 N52 1.388 . S
N52 Co35 1.993 . S
N52 N51 1.388 . S
N52 C53 1.346 . S
C53 N52 1.346 . S
C53 C54 1.396 1_556 S
C53 C63 1.510 . S
C54 C50 1.401 1_554 S
C54 C53 1.396 1_554 S
C55 C50 1.499 1_554 S
C55 H56 0.959 1_554 S
C55 H57 0.960 . S
C55 H58 0.961 . S
H56 C55 0.959 1_556 S
H57 C55 0.960 . S
H58 C55 0.961 . S
O59 Co34 1.967 . S
O59 C67 1.258 . S
O60 Co35 1.941 . S
O60 C67 1.266 . S
H61 C63 0.959 . S
H62 C63 0.961 1_554 S
C63 C53 1.510 . S
C63 H61 0.959 . S
C63 H62 0.961 1_556 S
C63 H64 0.960 . S
H64 C63 0.960 . S
H65 N45 0.862 . S
O66 Co34 1.920 . S
O66 C39 1.289 . S
C67 O59 1.258 . S
C67 O60 1.266 . S
Co68 O71 1.970 . S
Co68 N85 1.989 . S
Co68 O93 1.967 . S
Co68 O100 1.920 . S
Co69 O72 1.966 . S
Co69 N78 2.022 . S
Co69 N86 1.993 . S
Co69 O94 1.941 . S
C70 O71 1.258 . S
C70 O72 1.263 . S
O71 Co68 1.970 . S
O71 C70 1.258 . S
O72 Co69 1.966 . S
O72 C70 1.263 . S
C73 O74 1.235 . S
C73 O100 1.289 . S
O74 C73 1.235 . S
C75 C77 1.400 . S
C75 N78 1.351 . S
C75 C80 1.501 . S
C76 C77 1.387 . S
C76 N79 1.341 . S
C77 C75 1.400 . S
C77 C76 1.387 . S
N78 Co69 2.022 . S
N78 C75 1.351 . S
N78 N79 1.365 . S
N79 C76 1.341 . S
N79 N78 1.365 . S
N79 H99 0.862 . S
C80 C75 1.501 . S
C80 H81 0.961 . S
C80 H82 0.961 . S
C80 H83 0.960 . S
H81 C80 0.961 . S
H82 C80 0.961 . S
H83 C80 0.960 . S
C84 N85 1.342 . S
C84 C88 1.401 . S
C84 C89 1.499 . S
N85 Co68 1.989 . S
N85 C84 1.342 . S
N85 N86 1.388 . S
N86 Co69 1.993 . S
N86 N85 1.388 . S
N86 C87 1.346 . S
C87 N86 1.346 . S
C87 C88 1.396 . S
C87 C97 1.510 . S
C88 C84 1.401 . S
C88 C87 1.396 . S
C89 C84 1.499 . S
C89 H90 0.959 . S
C89 H91 0.960 . S
C89 H92 0.961 . S
H90 C89 0.959 . S
H91 C89 0.960 . S
H92 C89 0.961 . S
O93 Co68 1.967 . S
O93 C101 1.258 . S
O94 Co69 1.941 . S
O94 C101 1.266 . S
H95 C97 0.959 . S
H96 C97 0.961 . S
C97 C87 1.510 . S
C97 H95 0.959 . S
C97 H96 0.961 . S
C97 H98 0.960 . S
H98 C97 0.960 . S
H99 N79 0.862 . S
O100 Co68 1.920 . S
O100 C73 1.289 . S
C101 O93 1.258 . S
C101 O94 1.266 . S
Co102 O105 1.970 . S
Co102 N119 1.989 . S
Co102 O127 1.967 . S
Co102 O134 1.920 1_455 S
Co103 O106 1.966 . S
Co103 N112 2.022 . S
Co103 N120 1.993 . S
Co103 O128 1.941 . S
C104 O105 1.258 . S
C104 O106 1.263 . S
O105 Co102 1.970 . S
O105 C104 1.258 . S
O106 Co103 1.966 . S
O106 C104 1.263 . S
C107 O108 1.235 . S
C107 O134 1.289 . S
O108 C107 1.235 . S
C109 C111 1.400 . S
C109 N112 1.351 1_554 S
C109 C114 1.501 . S
C110 C111 1.387 . S
C110 N113 1.341 1_554 S
C111 C109 1.400 . S
C111 C110 1.387 . S
N112 Co103 2.022 . S
N112 C109 1.351 1_556 S
N112 N113 1.365 . S
N113 C110 1.341 1_556 S
N113 N112 1.365 . S
N113 H133 0.862 . S
C114 C109 1.501 . S
C114 H115 0.961 1_554 S
C114 H116 0.961 . S
C114 H117 0.960 . S
H115 C114 0.961 1_556 S
H116 C114 0.961 . S
H117 C114 0.960 . S
C118 N119 1.342 1_655 S
C118 C122 1.401 1_655 S
C118 C123 1.499 . S
N119 Co102 1.989 . S
N119 C118 1.342 1_455 S
N119 N120 1.388 . S
N120 Co103 1.993 . S
N120 N119 1.388 . S
N120 C121 1.346 . S
C121 N120 1.346 . S
C121 C122 1.396 . S
C121 C131 1.510 1_556 S
C122 C118 1.401 1_455 S
C122 C121 1.396 . S
C123 C118 1.499 . S
C123 H124 0.959 . S
C123 H125 0.960 . S
C123 H126 0.961 . S
H124 C123 0.959 . S
H125 C123 0.960 . S
H126 C123 0.961 . S
O127 Co102 1.967 . S
O127 C135 1.258 . S
O128 Co103 1.941 . S
O128 C135 1.266 . S
H129 C131 0.959 . S
H130 C131 0.961 . S
C131 C121 1.510 1_554 S
C131 H129 0.959 . S
C131 H130 0.961 . S
C131 H132 0.960 . S
H132 C131 0.960 . S
H133 N113 0.862 . S
O134 Co102 1.920 1_655 S
O134 C107 1.289 . S
C135 O127 1.258 . S
C135 O128 1.266 . S
Co136 O139 1.980 . S
Co136 N153 1.989 . S
Co136 O161 1.967 . S
Co136 O168 1.920 . S
Co137 O140 1.966 . S
Co137 N146 2.022 . S
Co137 N154 1.993 . S
Co137 O162 1.941 . S
C138 O139 1.255 1_545 S
C138 O140 1.263 1_545 S
O139 Co136 1.980 . S
O139 C138 1.255 1_565 S
O140 Co137 1.966 . S
O140 C138 1.263 1_565 S
C141 O142 1.235 . S
C141 O168 1.289 . S
O142 C141 1.235 . S
C143 C145 1.400 . S
C143 N146 1.351 . S
C143 C148 1.501 1_565 S
C144 C145 1.387 . S
C144 N147 1.341 . S
C145 C143 1.400 . S
C145 C144 1.387 . S
N146 Co137 2.022 . S
N146 C143 1.351 . S
N146 N147 1.365 . S
N147 C144 1.341 . S
N147 N146 1.365 . S
N147 H167 0.862 . S
C148 C143 1.501 1_545 S
C148 H149 0.961 . S
C148 H150 0.961 . S
C148 H151 0.960 . S
H149 C148 0.961 . S
H150 C148 0.961 . S
H151 C148 0.960 . S
C152 N153 1.342 . S
C152 C156 1.401 . S
C152 C157 1.499 . S
N153 Co136 1.989 . S
N153 C152 1.342 . S
N153 N154 1.388 . S
N154 Co137 1.993 . S
N154 N153 1.388 . S
N154 C155 1.346 . S
C155 N154 1.346 . S
C155 C156 1.396 . S
C155 C165 1.510 . S
C156 C152 1.401 . S
C156 C155 1.396 . S
C157 C152 1.499 . S
C157 H158 0.959 . S
C157 H159 0.960 . S
C157 H160 0.961 . S
H158 C157 0.959 . S
H159 C157 0.960 . S
H160 C157 0.961 . S
O161 Co136 1.967 . S
O161 C169 1.258 . S
O162 Co137 1.941 . S
O162 C169 1.266 . S
H163 C165 0.959 . S
H164 C165 0.961 . S
C165 C155 1.510 . S
C165 H163 0.959 . S
C165 H164 0.961 . S
C165 H166 0.960 . S
H166 C165 0.960 . S
H167 N147 0.862 . S
O168 Co136 1.920 . S
O168 C141 1.289 . S
C169 O161 1.258 . S
C169 O162 1.266 . S
Co170 O173 1.970 . S
Co170 N187 1.989 . S
Co170 O195 1.967 . S
Co170 O202 1.920 . S
Co171 O174 1.966 . S
Co171 N180 2.022 . S
Co171 N188 1.993 . S
Co171 O196 1.941 . S
C172 O173 1.258 . S
C172 O174 1.263 . S
O173 Co170 1.970 . S
O173 C172 1.258 . S
O174 Co171 1.966 . S
O174 C172 1.263 . S
C175 O176 1.235 . S
C175 O202 1.289 . S
O176 C175 1.235 . S
C177 C179 1.400 . S
C177 N180 1.351 . S
C177 C182 1.501 . S
C178 C179 1.387 . S
C178 N181 1.341 . S
C179 C177 1.400 . S
C179 C178 1.387 . S
N180 Co171 2.022 . S
N180 C177 1.351 . S
N180 N181 1.365 . S
N181 C178 1.341 . S
N181 N180 1.365 . S
N181 H201 0.862 . S
C182 C177 1.501 . S
C182 H183 0.961 . S
C182 H184 0.961 . S
C182 H185 0.960 . S
H183 C182 0.961 . S
H184 C182 0.961 . S
H185 C182 0.960 . S
C186 N187 1.342 . S
C186 C190 1.401 1_554 S
C186 C191 1.499 1_554 S
N187 Co170 1.989 . S
N187 C186 1.342 . S
N187 N188 1.388 . S
N188 Co171 1.993 . S
N188 N187 1.388 . S
N188 C189 1.346 . S
C189 N188 1.346 . S
C189 C190 1.396 1_554 S
C189 C199 1.510 . S
C190 C186 1.401 1_556 S
C190 C189 1.396 1_556 S
C191 C186 1.499 1_556 S
C191 H192 0.959 1_556 S
C191 H193 0.960 . S
C191 H194 0.961 . S
H192 C191 0.959 1_554 S
H193 C191 0.960 . S
H194 C191 0.961 . S
O195 Co170 1.967 . S
O195 C203 1.258 . S
O196 Co171 1.941 . S
O196 C203 1.266 . S
H197 C199 0.959 . S
H198 C199 0.961 1_556 S
C199 C189 1.510 . S
C199 H197 0.959 . S
C199 H198 0.961 1_554 S
C199 H200 0.960 . S
H200 C199 0.960 . S
H201 N181 0.862 . S
O202 Co170 1.920 . S
O202 C175 1.289 . S
C203 O195 1.258 . S
C203 O196 1.266 . S
Co204 O207 1.970 . S
Co204 N221 1.989 . S
Co204 O229 1.967 . S
Co204 O236 1.920 . S
Co205 O208 1.966 . S
Co205 N214 2.022 . S
Co205 N222 1.993 . S
Co205 O230 1.941 . S
C206 O207 1.258 . S
C206 O208 1.263 . S
O207 Co204 1.970 . S
O207 C206 1.258 . S
O208 Co205 1.966 . S
O208 C206 1.263 . S
C209 O210 1.235 . S
C209 O236 1.289 . S
O210 C209 1.235 . S
C211 C213 1.400 . S
C211 N214 1.351 . S
C211 C216 1.501 . S
C212 C213 1.387 . S
C212 N215 1.341 . S
C213 C211 1.400 . S
C213 C212 1.387 . S
N214 Co205 2.022 . S
N214 C211 1.351 . S
N214 N215 1.365 . S
N215 C212 1.341 . S
N215 N214 1.365 . S
N215 H235 0.862 . S
C216 C211 1.501 . S
C216 H217 0.961 . S
C216 H218 0.961 . S
C216 H219 0.960 . S
H217 C216 0.961 . S
H218 C216 0.961 . S
H219 C216 0.960 . S
C220 N221 1.342 . S
C220 C224 1.401 . S
C220 C225 1.499 . S
N221 Co204 1.989 . S
N221 C220 1.342 . S
N221 N222 1.388 . S
N222 Co205 1.993 . S
N222 N221 1.388 . S
N222 C223 1.346 . S
C223 N222 1.346 . S
C223 C224 1.396 . S
C223 C233 1.510 . S
C224 C220 1.401 . S
C224 C223 1.396 . S
C225 C220 1.499 . S
C225 H226 0.959 . S
C225 H227 0.960 . S
C225 H228 0.961 . S
H226 C225 0.959 . S
H227 C225 0.960 . S
H228 C225 0.961 . S
O229 Co204 1.967 . S
O229 C237 1.258 . S
O230 Co205 1.941 . S
O230 C237 1.266 . S
H231 C233 0.959 . S
H232 C233 0.961 . S
C233 C223 1.510 . S
C233 H231 0.959 . S
C233 H232 0.961 . S
C233 H234 0.960 . S
H234 C233 0.960 . S
H235 N215 0.862 . S
O236 Co204 1.920 . S
O236 C209 1.289 . S
C237 O229 1.258 . S
C237 O230 1.266 . S
Co238 O241 1.970 1_655 S
Co238 N255 1.989 . S
Co238 O263 1.967 . S
Co238 O270 1.920 . S
Co239 O242 1.996 . S
Co239 N248 2.022 . S
Co239 N256 1.993 . S
Co239 O264 1.941 . S
C240 O241 1.258 . S
C240 O242 1.245 1_455 S
O241 Co238 1.970 1_455 S
O241 C240 1.258 . S
O242 Co239 1.996 . S
O242 C240 1.245 1_655 S
C243 O244 1.221 1_655 S
C243 O270 1.289 . S
O244 C243 1.221 1_455 S
C245 C247 1.400 . S
C245 N248 1.351 . S
C245 C250 1.501 1_655 S
C246 C247 1.387 . S
C246 N249 1.341 . S
C247 C245 1.400 . S
C247 C246 1.387 . S
N248 Co239 2.022 . S
N248 C245 1.351 . S
N248 N249 1.365 . S
N249 C246 1.341 . S
N249 N248 1.365 . S
N249 H269 0.862 . S
C250 C245 1.501 1_455 S
C250 H251 0.961 . S
C250 H252 0.961 . S
C250 H253 0.960 . S
H251 C250 0.961 . S
H252 C250 0.961 . S
H253 C250 0.960 . S
C254 N255 1.342 1_556 S
C254 C258 1.401 . S
C254 C259 1.499 . S
N255 Co238 1.989 . S
N255 C254 1.342 1_554 S
N255 N256 1.388 . S
N256 Co239 1.993 . S
N256 N255 1.388 . S
N256 C257 1.346 . S
C257 N256 1.346 . S
C257 C258 1.396 1_554 S
C257 C267 1.510 . S
C258 C254 1.401 . S
C258 C257 1.396 1_556 S
C259 C254 1.499 . S
C259 H260 0.960 . S
C259 H261 0.960 . S
C259 H262 0.961 . S
H260 C259 0.960 . S
H261 C259 0.960 . S
H262 C259 0.961 . S
O263 Co238 1.967 . S
O263 C271 1.258 . S
O264 Co239 1.941 . S
O264 C271 1.266 . S
H265 C267 0.959 . S
H266 C267 0.961 1_556 S
C267 C257 1.510 . S
C267 H265 0.959 . S
C267 H266 0.961 1_554 S
C267 H268 0.960 . S
H268 C267 0.960 . S
H269 N249 0.862 . S
O270 Co238 1.920 . S
O270 C243 1.289 . S
C271 O263 1.258 . S
C271 O264 1.266 . S
Co272 O275 1.970 1_565 S
Co272 N289 1.989 . S
Co272 O297 1.967 . S
Co272 O304 1.920 . S
Co273 O276 1.966 . S
Co273 N282 2.022 . S
Co273 N290 1.993 . S
Co273 O298 1.941 . S
C274 O275 1.258 . S
C274 O276 1.263 1_545 S
O275 Co272 1.970 1_545 S
O275 C274 1.258 . S
O276 Co273 1.966 . S
O276 C274 1.263 1_565 S
C277 O278 1.258 . S
C277 O304 1.289 . S
O278 C277 1.258 . S
C279 C281 1.400 . S
C279 N282 1.351 . S
C279 C284 1.501 1_565 S
C280 C281 1.387 . S
C280 N283 1.341 . S
C281 C279 1.400 . S
C281 C280 1.387 . S
N282 Co273 2.022 . S
N282 C279 1.351 . S
N282 N283 1.365 . S
N283 C280 1.341 . S
N283 N282 1.365 . S
N283 H303 0.862 . S
C284 C279 1.501 1_545 S
C284 H285 0.961 . S
C284 H286 0.961 . S
C284 H287 0.960 . S
H285 C284 0.961 . S
H286 C284 0.961 . S
H287 C284 0.960 . S
C288 N289 1.342 . S
C288 C292 1.401 . S
C288 C293 1.499 . S
N289 Co272 1.989 . S
N289 C288 1.342 . S
N289 N290 1.388 . S
N290 Co273 1.993 . S
N290 N289 1.388 . S
N290 C291 1.346 . S
C291 N290 1.346 . S
C291 C292 1.396 . S
C291 C301 1.510 . S
C292 C288 1.401 . S
C292 C291 1.396 . S
C293 C288 1.499 . S
C293 H294 0.959 . S
C293 H295 0.960 . S
C293 H296 0.961 . S
H294 C293 0.959 . S
H295 C293 0.960 . S
H296 C293 0.961 . S
O297 Co272 1.967 . S
O297 C305 1.258 . S
O298 Co273 1.941 . S
O298 C305 1.266 . S
H299 C301 0.959 . S
H300 C301 0.961 . S
C301 C291 1.510 . S
C301 H299 0.959 . S
C301 H300 0.961 . S
C301 H302 0.960 . S
H302 C301 0.960 . S
H303 N283 0.862 . S
O304 Co272 1.920 . S
O304 C277 1.289 . S
C305 O297 1.258 . S
C305 O298 1.266 . S
Co306 O309 1.970 . S
Co306 N323 1.989 . S
Co306 O331 1.967 . S
Co306 O338 1.920 . S
Co307 O310 1.966 . S
Co307 N316 2.022 . S
Co307 N324 1.993 . S
Co307 O332 1.941 . S
C308 O309 1.258 . S
C308 O310 1.263 . S
O309 Co306 1.970 . S
O309 C308 1.258 . S
O310 Co307 1.966 . S
O310 C308 1.263 . S
C311 O312 1.235 . S
C311 O338 1.289 . S
O312 C311 1.235 . S
C313 C315 1.400 . S
C313 N316 1.351 . S
C313 C318 1.501 . S
C314 C315 1.387 . S
C314 N317 1.341 . S
C315 C313 1.400 . S
C315 C314 1.387 . S
N316 Co307 2.022 . S
N316 C313 1.351 . S
N316 N317 1.365 . S
N317 C314 1.341 . S
N317 N316 1.365 . S
N317 H337 0.862 . S
C318 C313 1.501 . S
C318 H319 0.961 . S
C318 H320 0.961 . S
C318 H321 0.960 . S
H319 C318 0.961 . S
H320 C318 0.961 . S
H321 C318 0.960 . S
C322 N323 1.342 . S
C322 C326 1.401 1_554 S
C322 C327 1.499 1_554 S
N323 Co306 1.989 . S
N323 C322 1.342 . S
N323 N324 1.388 . S
N324 Co307 1.993 . S
N324 N323 1.388 . S
N324 C325 1.346 . S
C325 N324 1.346 . S
C325 C326 1.396 1_554 S
C325 C335 1.510 . S
C326 C322 1.401 1_556 S
C326 C325 1.396 1_556 S
C327 C322 1.499 1_556 S
C327 H328 0.959 1_556 S
C327 H329 0.960 . S
C327 H330 0.961 . S
H328 C327 0.959 1_554 S
H329 C327 0.960 . S
H330 C327 0.961 . S
O331 Co306 1.967 . S
O331 C339 1.258 . S
O332 Co307 1.941 . S
O332 C339 1.266 . S
H333 C335 0.959 . S
H334 C335 0.961 1_556 S
C335 C325 1.510 . S
C335 H333 0.959 . S
C335 H334 0.961 1_554 S
C335 H336 0.960 . S
H336 C335 0.960 . S
H337 N317 0.862 . S
O338 Co306 1.920 . S
O338 C311 1.289 . S
C339 O331 1.258 . S
C339 O332 1.266 . S
Co340 O343 1.970 . S
Co340 N357 1.989 . S
Co340 O365 1.967 . S
Co340 O372 1.920 . S
Co341 O344 1.966 . S
Co341 N350 2.022 . S
Co341 N358 1.993 . S
Co341 O366 1.941 . S
C342 O343 1.258 . S
C342 O344 1.263 . S
O343 Co340 1.970 . S
O343 C342 1.258 . S
O344 Co341 1.966 . S
O344 C342 1.263 . S
C345 O346 1.235 . S
C345 O372 1.289 . S
O346 C345 1.235 . S
C347 C349 1.400 . S
C347 N350 1.351 . S
C347 C352 1.501 . S
C348 C349 1.387 . S
C348 N351 1.341 . S
C349 C347 1.400 . S
C349 C348 1.387 . S
N350 Co341 2.022 . S
N350 C347 1.351 . S
N350 N351 1.365 . S
N351 C348 1.341 . S
N351 N350 1.365 . S
N351 H371 0.862 . S
C352 C347 1.501 . S
C352 H353 0.961 . S
C352 H354 0.961 . S
C352 H355 0.960 . S
H353 C352 0.961 . S
H354 C352 0.961 . S
H355 C352 0.960 . S
C356 N357 1.342 . S
C356 C360 1.401 . S
C356 C361 1.499 . S
N357 Co340 1.989 . S
N357 C356 1.342 . S
N357 N358 1.388 . S
N358 Co341 1.993 . S
N358 N357 1.388 . S
N358 C359 1.346 . S
C359 N358 1.346 . S
C359 C360 1.396 . S
C359 C369 1.510 . S
C360 C356 1.401 . S
C360 C359 1.396 . S
C361 C356 1.499 . S
C361 H362 0.959 . S
C361 H363 0.960 . S
C361 H364 0.961 . S
H362 C361 0.959 . S
H363 C361 0.960 . S
H364 C361 0.961 . S
O365 Co340 1.967 . S
O365 C373 1.258 . S
O366 Co341 1.941 . S
O366 C373 1.266 . S
H367 C369 0.959 . S
H368 C369 0.961 . S
C369 C359 1.510 . S
C369 H367 0.959 . S
C369 H368 0.961 . S
C369 H370 0.960 . S
H370 C369 0.960 . S
H371 N351 0.862 . S
O372 Co340 1.920 . S
O372 C345 1.289 . S
C373 O365 1.258 . S
C373 O366 1.266 . S
Co374 O377 2.000 . S
Co374 N391 1.989 . S
Co374 O399 1.967 . S
Co374 O406 1.920 . S
Co375 O378 1.966 . S
Co375 N384 2.022 . S
Co375 N392 1.993 . S
Co375 O400 1.941 . S
C376 O377 1.250 1_455 S
C376 O378 1.263 1_455 S
O377 Co374 2.000 . S
O377 C376 1.250 1_655 S
O378 Co375 1.966 . S
O378 C376 1.263 1_655 S
C379 O380 1.235 . S
C379 O406 1.289 . S
O380 C379 1.235 . S
C381 C383 1.400 . S
C381 N384 1.351 . S
C381 C386 1.501 1_655 S
C382 C383 1.387 . S
C382 N385 1.341 . S
C383 C381 1.400 . S
C383 C382 1.387 . S
N384 Co375 2.022 . S
N384 C381 1.351 . S
N384 N385 1.365 . S
N385 C382 1.341 . S
N385 N384 1.365 . S
N385 H405 0.862 . S
C386 C381 1.501 1_455 S
C386 H387 0.961 . S
C386 H388 0.961 . S
C386 H389 0.960 . S
H387 C386 0.961 . S
H388 C386 0.961 . S
H389 C386 0.960 . S
C390 N391 1.342 . S
C390 C394 1.401 1_554 S
C390 C395 1.499 1_554 S
N391 Co374 1.989 . S
N391 C390 1.342 . S
N391 N392 1.388 . S
N392 Co375 1.993 . S
N392 N391 1.388 . S
N392 C393 1.346 . S
C393 N392 1.346 . S
C393 C394 1.396 1_554 S
C393 C403 1.510 . S
C394 C390 1.401 1_556 S
C394 C393 1.396 1_556 S
C395 C390 1.499 1_556 S
C395 H396 0.959 1_556 S
C395 H397 0.960 . S
C395 H398 0.961 . S
H396 C395 0.959 1_554 S
H397 C395 0.960 . S
H398 C395 0.961 . S
O399 Co374 1.967 . S
O399 C407 1.258 . S
O400 Co375 1.941 . S
O400 C407 1.266 . S
H401 C403 0.959 . S
H402 C403 0.961 1_556 S
C403 C393 1.510 . S
C403 H401 0.959 . S
C403 H402 0.961 1_554 S
C403 H404 0.960 . S
H404 C403 0.960 . S
H405 N385 0.862 . S
O406 Co374 1.920 . S
O406 C379 1.289 . S
C407 O399 1.258 . S
C407 O400 1.266 . S
Co408 O411 1.970 1_545 S
Co408 N425 1.989 . S
Co408 O433 1.967 . S
Co408 O440 1.920 . S
Co409 O412 1.966 1_545 S
Co409 N418 2.022 . S
Co409 N426 1.993 . S
Co409 O434 1.941 . S
C410 O411 1.258 . S
C410 O412 1.263 . S
O411 Co408 1.970 1_565 S
O411 C410 1.258 . S
O412 Co409 1.966 1_565 S
O412 C410 1.263 . S
C413 O414 1.235 1_545 S
C413 O440 1.289 . S
O414 C413 1.235 1_565 S
C415 C417 1.400 . S
C415 N418 1.351 . S
C415 C420 1.501 1_545 S
C416 C417 1.387 . S
C416 N419 1.341 . S
C417 C415 1.400 . S
C417 C416 1.387 . S
N418 Co409 2.022 . S
N418 C415 1.351 . S
N418 N419 1.365 . S
N419 C416 1.341 . S
N419 N418 1.365 . S
N419 H439 0.862 . S
C420 C415 1.501 1_565 S
C420 H421 0.961 . S
C420 H422 0.961 . S
C420 H423 0.960 . S
H421 C420 0.961 . S
H422 C420 0.961 . S
H423 C420 0.960 . S
C424 N425 1.342 . S
C424 C428 1.401 . S
C424 C429 1.499 . S
N425 Co408 1.989 . S
N425 C424 1.342 . S
N425 N426 1.388 . S
N426 Co409 1.993 . S
N426 N425 1.388 . S
N426 C427 1.346 . S
C427 N426 1.346 . S
C427 C428 1.396 . S
C427 C437 1.510 . S
C428 C424 1.401 . S
C428 C427 1.396 . S
C429 C424 1.499 . S
C429 H430 0.959 . S
C429 H431 0.960 . S
C429 H432 0.961 . S
H430 C429 0.959 . S
H431 C429 0.960 . S
H432 C429 0.961 . S
O433 Co408 1.967 . S
O433 C441 1.258 . S
O434 Co409 1.941 . S
O434 C441 1.266 . S
H435 C437 0.959 . S
H436 C437 0.961 . S
C437 C427 1.510 . S
C437 H435 0.959 . S
C437 H436 0.961 . S
C437 H438 0.960 . S
H438 C437 0.960 . S
H439 N419 0.862 . S
O440 Co408 1.920 . S
O440 C413 1.289 . S
C441 O433 1.258 . S
C441 O434 1.266 . S
Co442 O445 1.970 . S
Co442 N459 1.989 . S
Co442 O467 1.967 . S
Co442 O474 1.920 . S
Co443 O446 1.966 . S
Co443 N452 2.022 . S
Co443 N460 1.993 . S
Co443 O468 1.941 . S
C444 O445 1.258 . S
C444 O446 1.263 . S
O445 Co442 1.970 . S
O445 C444 1.258 . S
O446 Co443 1.966 . S
O446 C444 1.263 . S
C447 O448 1.235 . S
C447 O474 1.289 . S
O448 C447 1.235 . S
C449 C451 1.400 . S
C449 N452 1.351 . S
C449 C454 1.501 . S
C450 C451 1.387 . S
C450 N453 1.341 . S
C451 C449 1.400 . S
C451 C450 1.387 . S
N452 Co443 2.022 . S
N452 C449 1.351 . S
N452 N453 1.365 . S
N453 C450 1.341 . S
N453 N452 1.365 . S
N453 H473 0.862 . S
C454 C449 1.501 . S
C454 H455 0.961 . S
C454 H456 0.961 . S
C454 H457 0.960 . S
H455 C454 0.961 . S
H456 C454 0.961 . S
H457 C454 0.960 . S
C458 N459 1.342 1_554 S
C458 C462 1.401 . S
C458 C463 1.499 . S
N459 Co442 1.989 . S
N459 C458 1.342 1_556 S
N459 N460 1.388 . S
N460 Co443 1.993 . S
N460 N459 1.388 . S
N460 C461 1.346 . S
C461 N460 1.346 . S
C461 C462 1.396 1_556 S
C461 C471 1.510 . S
C462 C458 1.401 . S
C462 C461 1.396 1_554 S
C463 C458 1.499 . S
C463 H464 0.970 . S
C463 H465 0.960 . S
C463 H466 0.961 . S
H464 C463 0.970 . S
H465 C463 0.960 . S
H466 C463 0.961 . S
O467 Co442 1.967 . S
O467 C475 1.258 . S
O468 Co443 1.941 . S
O468 C475 1.266 . S
H469 C471 0.956 1_554 S
H470 C471 0.961 1_554 S
C471 C461 1.510 . S
C471 H469 0.956 1_556 S
C471 H470 0.961 1_556 S
C471 H472 0.960 . S
H472 C471 0.960 . S
H473 N453 0.862 . S
O474 Co442 1.920 . S
O474 C447 1.289 . S
C475 O467 1.258 . S
C475 O468 1.266 . S
Co476 O479 1.970 . S
Co476 N493 1.989 . S
Co476 O501 1.967 . S
Co476 O508 1.920 . S
Co477 O480 1.966 . S
Co477 N486 2.022 . S
Co477 N494 1.993 . S
Co477 O502 1.941 . S
C478 O479 1.258 . S
C478 O480 1.263 . S
O479 Co476 1.970 . S
O479 C478 1.258 . S
O480 Co477 1.966 . S
O480 C478 1.263 . S
C481 O482 1.235 . S
C481 O508 1.289 . S
O482 C481 1.235 . S
C483 C485 1.400 . S
C483 N486 1.351 . S
C483 C488 1.501 . S
C484 C485 1.387 . S
C484 N487 1.341 . S
C485 C483 1.400 . S
C485 C484 1.387 . S
N486 Co477 2.022 . S
N486 C483 1.351 . S
N486 N487 1.365 . S
N487 C484 1.341 . S
N487 N486 1.365 . S
N487 H507 0.862 . S
C488 C483 1.501 . S
C488 H489 0.961 . S
C488 H490 0.961 . S
C488 H491 0.960 . S
H489 C488 0.961 . S
H490 C488 0.961 . S
H491 C488 0.960 . S
C492 N493 1.342 . S
C492 C496 1.401 . S
C492 C497 1.499 . S
N493 Co476 1.989 . S
N493 C492 1.342 . S
N493 N494 1.388 . S
N494 Co477 1.993 . S
N494 N493 1.388 . S
N494 C495 1.346 . S
C495 N494 1.346 . S
C495 C496 1.396 . S
C495 C505 1.510 . S
C496 C492 1.401 . S
C496 C495 1.396 . S
C497 C492 1.499 . S
C497 H498 0.959 . S
C497 H499 0.960 . S
C497 H500 0.961 . S
H498 C497 0.959 . S
H499 C497 0.960 . S
H500 C497 0.961 . S
O501 Co476 1.967 . S
O501 C509 1.258 . S
O502 Co477 1.941 . S
O502 C509 1.266 . S
H503 C505 0.959 . S
H504 C505 0.961 . S
C505 C495 1.510 . S
C505 H503 0.959 . S
C505 H504 0.961 . S
C505 H506 0.960 . S
H506 C505 0.960 . S
H507 N487 0.862 . S
O508 Co476 1.920 . S
O508 C481 1.289 . S
C509 O501 1.258 . S
C509 O502 1.266 . S
Co510 O513 1.970 1_455 S
Co510 N527 1.989 . S
Co510 O535 1.967 . S
Co510 O542 1.920 . S
Co511 O514 1.966 1_455 S
Co511 N520 2.022 . S
Co511 N528 1.993 . S
Co511 O536 1.941 . S
C512 O513 1.258 . S
C512 O514 1.263 . S
O513 Co510 1.970 1_655 S
O513 C512 1.258 . S
O514 Co511 1.966 1_655 S
O514 C512 1.263 . S
C515 O516 1.235 1_455 S
C515 O542 1.289 . S
O516 C515 1.235 1_655 S
C517 C519 1.400 . S
C517 N520 1.351 . S
C517 C522 1.501 1_455 S
C518 C519 1.387 . S
C518 N521 1.341 . S
C519 C517 1.400 . S
C519 C518 1.387 . S
N520 Co511 2.022 . S
N520 C517 1.351 . S
N520 N521 1.365 . S
N521 C518 1.341 . S
N521 N520 1.365 . S
N521 H541 0.862 . S
C522 C517 1.501 1_655 S
C522 H523 0.961 . S
C522 H524 0.961 . S
C522 H525 0.960 . S
H523 C522 0.961 . S
H524 C522 0.961 . S
H525 C522 0.960 . S
C526 N527 1.342 . S
C526 C530 1.401 1_556 S
C526 C531 1.500 . S
N527 Co510 1.989 . S
N527 C526 1.342 . S
N527 N528 1.388 . S
N528 Co511 1.993 . S
N528 N527 1.388 . S
N528 C529 1.346 . S
C529 N528 1.346 . S
C529 C530 1.396 1_556 S
C529 C539 1.510 . S
C530 C526 1.401 1_554 S
C530 C529 1.396 1_554 S
C531 C526 1.500 . S
C531 H532 0.961 . S
C531 H533 0.957 1_556 S
C531 H534 0.960 1_556 S
H532 C531 0.961 . S
H533 C531 0.957 1_554 S
H534 C531 0.960 1_554 S
O535 Co510 1.967 . S
O535 C543 1.258 . S
O536 Co511 1.941 . S
O536 C543 1.266 . S
H537 C539 0.959 . S
H538 C539 0.961 . S
C539 C529 1.510 . S
C539 H537 0.959 . S
C539 H538 0.961 . S
C539 H540 0.960 . S
H540 C539 0.960 . S
H541 N521 0.862 . S
O542 Co510 1.920 . S
O542 C515 1.289 . S
C543 O535 1.258 . S
C543 O536 1.266 . S
H544 C552 0.950 . S
H545 C557 0.950 1_545 S
H546 C554 0.950 . S
H547 C556 0.950 . S
H548 C558 0.950 . S
H549 C560 0.950 . S
H550 C562 0.950 . S
H551 C563 0.950 1_565 S
C552 H544 0.950 . S
C552 C553 1.386 . S
C552 C554 1.391 . S
C553 C552 1.386 . S
C553 C557 1.393 . S
C554 H546 0.950 . S
C554 C552 1.391 . S
C554 C555 1.400 . S
C555 C554 1.400 . S
C555 C556 1.398 1_565 S
C555 C561 1.491 1_665 S
C556 H547 0.950 . S
C556 C555 1.398 1_545 S
C556 C557 1.391 1_545 S
C557 H545 0.950 1_565 S
C557 C553 1.393 . S
C557 C556 1.391 1_565 S
C558 H548 0.950 . S
C558 C559 1.386 . S
C558 C560 1.391 . S
C559 C558 1.386 . S
C559 C563 1.393 . S
C560 H549 0.950 . S
C560 C558 1.391 . S
C560 C561 1.400 . S
C561 C555 1.491 1_445 S
C561 C560 1.400 . S
C561 C562 1.398 1_545 S
C562 H550 0.950 . S
C562 C561 1.398 1_565 S
C562 C563 1.391 1_565 S
C563 H551 0.950 1_545 S
C563 C559 1.393 . S
C563 C562 1.391 1_545 S
H564 C572 0.950 . S
H565 C577 0.950 . S
H566 C574 0.950 1_554 S
H567 C576 0.950 . S
H568 C578 0.950 . S
H569 C580 0.950 1_556 S
H570 C582 0.950 1_545 S
H571 C583 0.950 . S
C572 H564 0.950 . S
C572 C573 1.386 . S
C572 C574 1.391 . S
C573 C572 1.386 . S
C573 C577 1.393 . S
C574 H566 0.950 1_556 S
C574 C572 1.391 . S
C574 C575 1.400 . S
C575 C574 1.400 . S
C575 C576 1.398 1_545 S
C575 C581 1.491 1_546 S
C576 H567 0.950 . S
C576 C575 1.398 1_565 S
C576 C577 1.391 1_565 S
C577 H565 0.950 . S
C577 C573 1.393 . S
C577 C576 1.391 1_545 S
C578 H568 0.950 . S
C578 C579 1.386 . S
C578 C580 1.391 . S
C579 C578 1.386 . S
C579 C583 1.393 . S
C580 H569 0.950 1_554 S
C580 C578 1.391 . S
C580 C581 1.400 . S
C581 C575 1.491 1_564 S
C581 C580 1.400 . S
C581 C582 1.398 . S
C582 H570 0.950 1_565 S
C582 C581 1.398 . S
C582 C583 1.391 . S
C583 H571 0.950 . S
C583 C579 1.393 . S
C583 C582 1.391 . S
H584 C592 0.950 . S
H585 C597 0.950 . S
H586 C594 0.950 . S
H587 C596 0.950 . S
H588 C598 0.950 . S
H589 C600 0.950 . S
H590 C602 0.950 . S
H591 C603 0.950 . S
C592 H584 0.950 . S
C592 C593 1.386 . S
C592 C594 1.391 . S
C593 C592 1.386 . S
C593 C597 1.393 . S
C594 H586 0.950 . S
C594 C592 1.391 . S
C594 C595 1.400 . S
C595 C594 1.400 . S
C595 C596 1.398 . S
C595 C601 1.491 . S
C596 H587 0.950 . S
C596 C595 1.398 . S
C596 C597 1.391 . S
C597 H585 0.950 . S
C597 C593 1.393 . S
C597 C596 1.391 . S
C598 H588 0.950 . S
C598 C599 1.386 . S
C598 C600 1.391 . S
C599 C598 1.386 . S
C599 C603 1.393 . S
C600 H589 0.950 . S
C600 C598 1.391 . S
C600 C601 1.400 . S
C601 C595 1.491 . S
C601 C600 1.400 . S
C601 C602 1.398 . S
C602 H590 0.950 . S
C602 C601 1.398 . S
C602 C603 1.391 . S
C603 H591 0.950 . S
C603 C599 1.393 . S
C603 C602 1.391 . S
H604 C612 0.950 . S
H605 C617 0.950 . S
H606 C614 0.950 1_556 S
H607 C616 0.950 . S
H608 C618 0.950 . S
H609 C620 0.945 1_455 S
H610 C622 0.950 . S
H611 C623 0.950 . S
C612 H604 0.950 . S
C612 C613 1.386 . S
C612 C614 1.391 . S
C613 C612 1.386 . S
C613 C617 1.393 . S
C614 H606 0.950 1_554 S
C614 C612 1.391 . S
C614 C615 1.400 . S
C615 C614 1.400 . S
C615 C616 1.398 . S
C615 C621 1.491 . S
C616 H607 0.950 . S
C616 C615 1.398 . S
C616 C617 1.391 . S
C617 H605 0.950 . S
C617 C613 1.393 . S
C617 C616 1.391 . S
C618 H608 0.950 . S
C618 C619 1.386 1_554 S
C618 C620 1.388 1_455 S
C619 C618 1.386 1_556 S
C619 C623 1.393 1_455 S
C620 H609 0.945 1_655 S
C620 C618 1.388 1_655 S
C620 C621 1.405 . S
C621 C615 1.491 . S
C621 C620 1.405 . S
C621 C622 1.398 1_554 S
C622 H610 0.950 . S
C622 C621 1.398 1_556 S
C622 C623 1.391 . S
C623 H611 0.950 . S
C623 C619 1.393 1_655 S
C623 C622 1.391 . S
H624 C632 0.950 . S
H625 C637 0.950 . S
H626 C634 0.950 . S
H627 C636 0.950 . S
H628 C638 0.950 . S
H629 C640 0.950 . S
H630 C642 0.946 1_565 S
H631 C643 0.950 . S
C632 H624 0.950 . S
C632 C633 1.386 . S
C632 C634 1.391 . S
C633 C632 1.386 . S
C633 C637 1.393 . S
C634 H626 0.950 . S
C634 C632 1.391 . S
C634 C635 1.400 . S
C635 C634 1.400 . S
C635 C636 1.398 . S
C635 C641 1.491 . S
C636 H627 0.950 . S
C636 C635 1.398 . S
C636 C637 1.391 . S
C637 H625 0.950 . S
C637 C633 1.393 . S
C637 C636 1.391 . S
C638 H628 0.950 . S
C638 C639 1.386 . S
C638 C640 1.391 . S
C639 C638 1.386 . S
C639 C643 1.393 . S
C640 H629 0.950 . S
C640 C638 1.391 . S
C640 C641 1.400 1_545 S
C641 C635 1.491 . S
C641 C640 1.400 1_565 S
C641 C642 1.397 1_565 S
C642 H630 0.946 1_545 S
C642 C641 1.397 1_545 S
C642 C643 1.396 . S
C643 H631 0.950 . S
C643 C639 1.393 . S
C643 C642 1.396 . S
H644 C652 0.950 . S
H645 C657 0.950 . S
H646 C654 0.950 . S
H647 C656 0.950 1_556 S
H648 C658 0.950 . S
H649 C660 0.950 . S
H650 C662 0.950 1_554 S
H651 C663 0.950 . S
C652 H644 0.950 . S
C652 C653 1.386 . S
C652 C654 1.391 . S
C653 C652 1.386 . S
C653 C657 1.393 . S
C654 H646 0.950 . S
C654 C652 1.391 . S
C654 C655 1.400 . S
C655 C654 1.400 . S
C655 C656 1.398 . S
C655 C661 1.491 1_554 S
C656 H647 0.950 1_554 S
C656 C655 1.398 . S
C656 C657 1.391 . S
C657 H645 0.950 . S
C657 C653 1.393 . S
C657 C656 1.391 . S
C658 H648 0.950 . S
C658 C659 1.386 . S
C658 C660 1.391 . S
C659 C658 1.386 . S
C659 C663 1.393 . S
C660 H649 0.950 . S
C660 C658 1.391 . S
C660 C661 1.400 . S
C661 C655 1.491 1_556 S
C661 C660 1.400 . S
C661 C662 1.398 . S
C662 H650 0.950 1_556 S
C662 C661 1.398 . S
C662 C663 1.391 . S
C663 H651 0.950 . S
C663 C659 1.393 . S
C663 C662 1.391 . S
H664 C672 0.950 . S
H665 C677 0.950 . S
H666 C674 0.950 . S
H667 C676 0.950 1_455 S
H668 C678 0.950 . S
H669 C680 0.950 . S
H670 C682 0.950 1_655 S
H671 C683 0.950 . S
C672 H664 0.950 . S
C672 C673 1.386 . S
C672 C674 1.391 . S
C673 C672 1.386 . S
C673 C677 1.393 . S
C674 H666 0.950 . S
C674 C672 1.391 . S
C674 C675 1.400 . S
C675 C674 1.400 . S
C675 C676 1.398 . S
C675 C681 1.491 1_655 S
C676 H667 0.950 1_655 S
C676 C675 1.398 . S
C676 C677 1.391 . S
C677 H665 0.950 . S
C677 C673 1.393 . S
C677 C676 1.391 . S
C678 H668 0.950 . S
C678 C679 1.386 . S
C678 C680 1.391 . S
C679 C678 1.386 . S
C679 C683 1.393 . S
C680 H669 0.950 . S
C680 C678 1.391 . S
C680 C681 1.400 . S
C681 C675 1.491 1_455 S
C681 C680 1.400 . S
C681 C682 1.398 . S
C682 H670 0.950 1_455 S
C682 C681 1.398 . S
C682 C683 1.391 . S
C683 H671 0.950 . S
C683 C679 1.393 . S
C683 C682 1.391 . S
H684 C692 0.950 . S
H685 C697 0.950 . S
H686 C694 0.950 . S
H687 C696 0.950 1_556 S
H688 C698 0.950 . S
H689 C700 0.950 . S
H690 C702 0.950 . S
H691 C703 0.950 . S
C692 H684 0.950 . S
C692 C693 1.386 1_455 S
C692 C694 1.391 . S
C693 C692 1.386 1_655 S
C693 C697 1.393 . S
C694 H686 0.950 . S
C694 C692 1.391 . S
C694 C695 1.400 1_455 S
C695 C694 1.400 1_655 S
C695 C696 1.398 . S
C695 C701 1.491 1_564 S
C696 H687 0.950 1_554 S
C696 C695 1.398 . S
C696 C697 1.391 . S
C697 H685 0.950 . S
C697 C693 1.393 . S
C697 C696 1.391 . S
C698 H688 0.950 . S
C698 C699 1.386 1_655 S
C698 C700 1.391 . S
C699 C698 1.386 1_455 S
C699 C703 1.393 . S
C700 H689 0.950 . S
C700 C698 1.391 . S
C700 C701 1.403 . S
C701 C695 1.491 1_546 S
C701 C700 1.403 . S
C701 C702 1.395 1_655 S
C702 H690 0.950 . S
C702 C701 1.395 1_455 S
C702 C703 1.391 . S
C703 H691 0.950 . S
C703 C699 1.393 . S
C703 C702 1.391 . S
H704 C712 0.950 . S
H705 C717 0.950 . S
H706 C714 0.950 . S
H707 C716 0.950 . S
H708 C718 0.950 . S
H709 C720 0.950 . S
H710 C722 0.950 . S
H711 C723 0.950 . S
C712 H704 0.950 . S
C712 C713 1.386 . S
C712 C714 1.391 . S
C713 C712 1.386 . S
C713 C717 1.393 . S
C714 H706 0.950 . S
C714 C712 1.391 . S
C714 C715 1.400 . S
C715 C714 1.400 . S
C715 C716 1.398 . S
C715 C721 1.491 . S
C716 H707 0.950 . S
C716 C715 1.398 . S
C716 C717 1.391 . S
C717 H705 0.950 . S
C717 C713 1.393 . S
C717 C716 1.391 . S
C718 H708 0.950 . S
C718 C719 1.386 . S
C718 C720 1.391 . S
C719 C718 1.386 . S
C719 C723 1.393 . S
C720 H709 0.950 . S
C720 C718 1.391 . S
C720 C721 1.400 . S
C721 C715 1.491 . S
C721 C720 1.400 . S
C721 C722 1.398 . S
C722 H710 0.950 . S
C722 C721 1.398 . S
C722 C723 1.391 . S
C723 H711 0.950 . S
C723 C719 1.393 . S
C723 C722 1.391 . S
H724 C732 0.950 . S
H725 C737 0.950 . S
H726 C734 0.950 . S
H727 C736 0.950 . S
H728 C738 0.950 . S
H729 C740 0.950 . S
H730 C742 0.950 . S
H731 C743 0.950 . S
C732 H724 0.950 . S
C732 C733 1.386 . S
C732 C734 1.391 . S
C733 C732 1.386 . S
C733 C737 1.393 . S
C734 H726 0.950 . S
C734 C732 1.391 . S
C734 C735 1.400 . S
C735 C734 1.400 . S
C735 C736 1.398 . S
C735 C741 1.491 . S
C736 H727 0.950 . S
C736 C735 1.398 . S
C736 C737 1.391 . S
C737 H725 0.950 . S
C737 C733 1.393 . S
C737 C736 1.391 . S
C738 H728 0.950 . S
C738 C739 1.386 . S
C738 C740 1.391 . S
C739 C738 1.386 . S
C739 C743 1.393 . S
C740 H729 0.950 . S
C740 C738 1.391 . S
C740 C741 1.400 . S
C741 C735 1.491 . S
C741 C740 1.400 . S
C741 C742 1.398 . S
C742 H730 0.950 . S
C742 C741 1.398 . S
C742 C743 1.391 . S
C743 H731 0.950 . S
C743 C739 1.393 . S
C743 C742 1.391 . S
H744 C752 0.950 . S
H745 C757 0.950 . S
H746 C754 0.950 . S
H747 C756 0.950 . S
H748 C758 0.950 . S
H749 C760 0.950 . S
H750 C762 0.950 . S
H751 C763 0.950 . S
C752 H744 0.950 . S
C752 C753 1.386 . S
C752 C754 1.391 . S
C753 C752 1.386 . S
C753 C757 1.393 . S
C754 H746 0.950 . S
C754 C752 1.391 . S
C754 C755 1.400 . S
C755 C754 1.400 . S
C755 C756 1.398 . S
C755 C761 1.491 . S
C756 H747 0.950 . S
C756 C755 1.398 . S
C756 C757 1.391 . S
C757 H745 0.950 . S
C757 C753 1.393 . S
C757 C756 1.391 . S
C758 H748 0.950 . S
C758 C759 1.386 . S
C758 C760 1.391 . S
C759 C758 1.386 . S
C759 C763 1.393 . S
C760 H749 0.950 . S
C760 C758 1.391 . S
C760 C761 1.400 . S
C761 C755 1.491 . S
C761 C760 1.400 . S
C761 C762 1.398 . S
C762 H750 0.950 . S
C762 C761 1.398 . S
C762 C763 1.391 . S
C763 H751 0.950 . S
C763 C759 1.393 . S
C763 C762 1.391 . S
H764 C772 0.950 . S
H765 C777 0.950 . S
H766 C774 0.950 . S
H767 C776 0.950 . S
H768 C778 0.950 . S
H769 C780 0.950 . S
H770 C782 0.950 . S
H771 C783 0.950 . S
C772 H764 0.950 . S
C772 C773 1.386 . S
C772 C774 1.391 . S
C773 C772 1.386 . S
C773 C777 1.393 . S
C774 H766 0.950 . S
C774 C772 1.391 . S
C774 C775 1.400 . S
C775 C774 1.400 . S
C775 C776 1.398 . S
C775 C781 1.491 . S
C776 H767 0.950 . S
C776 C775 1.398 . S
C776 C777 1.391 . S
C777 H765 0.950 . S
C777 C773 1.393 . S
C777 C776 1.391 . S
C778 H768 0.950 . S
C778 C779 1.386 . S
C778 C780 1.391 . S
C779 C778 1.386 . S
C779 C783 1.393 . S
C780 H769 0.950 . S
C780 C778 1.391 . S
C780 C781 1.400 . S
C781 C775 1.491 . S
C781 C780 1.400 . S
C781 C782 1.398 . S
C782 H770 0.950 . S
C782 C781 1.398 . S
C782 C783 1.391 . S
C783 H771 0.950 . S
C783 C779 1.393 . S
C783 C782 1.391 . S
H784 C792 0.950 . S
H785 C797 0.950 . S
H786 C794 0.950 . S
H787 C796 0.950 . S
H788 C798 0.950 . S
H789 C800 0.950 . S
H790 C802 0.950 . S
H791 C803 0.950 . S
C792 H784 0.950 . S
C792 C793 1.386 . S
C792 C794 1.391 . S
C793 C792 1.386 . S
C793 C797 1.393 . S
C794 H786 0.950 . S
C794 C792 1.391 . S
C794 C795 1.400 . S
C795 C794 1.400 . S
C795 C796 1.398 . S
C795 C801 1.491 . S
C796 H787 0.950 . S
C796 C795 1.398 . S
C796 C797 1.391 . S
C797 H785 0.950 . S
C797 C793 1.393 . S
C797 C796 1.391 . S
C798 H788 0.950 . S
C798 C799 1.386 . S
C798 C800 1.391 . S
C799 C798 1.386 . S
C799 C803 1.393 . S
C800 H789 0.950 . S
C800 C798 1.391 . S
C800 C801 1.400 . S
C801 C795 1.491 . S
C801 C800 1.400 . S
C801 C802 1.398 . S
C802 H790 0.950 . S
C802 C801 1.398 . S
C802 C803 1.391 . S
C803 H791 0.950 . S
C803 C799 1.393 . S
C803 C802 1.391 . S
H804 C812 0.950 . S
H805 C817 0.950 . S
H806 C814 0.950 . S
H807 C816 0.950 . S
H808 C818 0.950 . S
H809 C820 0.950 . S
H810 C822 0.950 . S
H811 C823 0.950 . S
C812 H804 0.950 . S
C812 C813 1.386 . S
C812 C814 1.391 . S
C813 C812 1.386 . S
C813 C817 1.393 . S
C814 H806 0.950 . S
C814 C812 1.391 . S
C814 C815 1.400 . S
C815 C814 1.400 . S
C815 C816 1.398 . S
C815 C821 1.491 . S
C816 H807 0.950 . S
C816 C815 1.398 . S
C816 C817 1.391 . S
C817 H805 0.950 . S
C817 C813 1.393 . S
C817 C816 1.391 . S
C818 H808 0.950 . S
C818 C819 1.386 . S
C818 C820 1.391 . S
C819 C818 1.386 . S
C819 C823 1.393 . S
C820 H809 0.950 . S
C820 C818 1.391 . S
C820 C821 1.400 . S
C821 C815 1.491 . S
C821 C820 1.400 . S
C821 C822 1.398 . S
C822 H810 0.950 . S
C822 C821 1.398 . S
C822 C823 1.391 . S
C823 H811 0.950 . S
C823 C819 1.393 . S
C823 C822 1.391 . S
H824 C832 0.950 . S
H825 C837 0.950 . S
H826 C834 0.950 . S
H827 C836 0.950 . S
H828 C838 0.950 . S
H829 C840 0.950 . S
H830 C842 0.950 . S
H831 C843 0.950 . S
C832 H824 0.950 . S
C832 C833 1.386 . S
C832 C834 1.391 . S
C833 C832 1.386 . S
C833 C837 1.393 . S
C834 H826 0.950 . S
C834 C832 1.391 . S
C834 C835 1.400 . S
C835 C834 1.400 . S
C835 C836 1.398 . S
C835 C841 1.491 . S
C836 H827 0.950 . S
C836 C835 1.398 . S
C836 C837 1.391 . S
C837 H825 0.950 . S
C837 C833 1.393 . S
C837 C836 1.391 . S
C838 H828 0.950 . S
C838 C839 1.386 . S
C838 C840 1.391 . S
C839 C838 1.386 . S
C839 C843 1.393 . S
C840 H829 0.950 . S
C840 C838 1.391 . S
C840 C841 1.400 . S
C841 C835 1.491 . S
C841 C840 1.400 . S
C841 C842 1.398 . S
C842 H830 0.950 . S
C842 C841 1.398 . S
C842 C843 1.391 . S
C843 H831 0.950 . S
C843 C839 1.393 . S
C843 C842 1.391 . S
H844 C852 0.950 . S
H845 C857 0.950 . S
H846 C854 0.950 . S
H847 C856 0.950 . S
H848 C858 0.950 . S
H849 C860 0.950 . S
H850 C862 0.950 . S
H851 C863 0.950 . S
C852 H844 0.950 . S
C852 C853 1.386 . S
C852 C854 1.391 . S
C853 C852 1.386 . S
C853 C857 1.393 . S
C854 H846 0.950 . S
C854 C852 1.391 . S
C854 C855 1.400 . S
C855 C854 1.400 . S
C855 C856 1.398 . S
C855 C861 1.491 . S
C856 H847 0.950 . S
C856 C855 1.398 . S
C856 C857 1.391 . S
C857 H845 0.950 . S
C857 C853 1.393 . S
C857 C856 1.391 . S
C858 H848 0.950 . S
C858 C859 1.386 . S
C858 C860 1.391 . S
C859 C858 1.386 . S
C859 C863 1.393 . S
C860 H849 0.950 . S
C860 C858 1.391 . S
C860 C861 1.400 . S
C861 C855 1.491 . S
C861 C860 1.400 . S
C861 C862 1.398 . S
C862 H850 0.950 . S
C862 C861 1.398 . S
C862 C863 1.391 . S
C863 H851 0.950 . S
C863 C859 1.393 . S
C863 C862 1.391 . S
H864 C872 0.950 . S
H865 C877 0.950 . S
H866 C874 0.950 . S
H867 C876 0.950 . S
H868 C878 0.950 . S
H869 C880 0.950 . S
H870 C882 0.950 . S
H871 C883 0.950 . S
C872 H864 0.950 . S
C872 C873 1.386 . S
C872 C874 1.391 . S
C873 C872 1.386 . S
C873 C877 1.393 . S
C874 H866 0.950 . S
C874 C872 1.391 . S
C874 C875 1.400 . S
C875 C874 1.400 . S
C875 C876 1.398 . S
C875 C881 1.491 . S
C876 H867 0.950 . S
C876 C875 1.398 . S
C876 C877 1.391 . S
C877 H865 0.950 . S
C877 C873 1.393 . S
C877 C876 1.391 . S
C878 H868 0.950 . S
C878 C879 1.386 . S
C878 C880 1.391 . S
C879 C878 1.386 . S
C879 C883 1.393 . S
C880 H869 0.950 . S
C880 C878 1.391 . S
C880 C881 1.400 . S
C881 C875 1.491 . S
C881 C880 1.400 . S
C881 C882 1.398 . S
C882 H870 0.950 . S
C882 C881 1.398 . S
C882 C883 1.391 . S
C883 H871 0.950 . S
C883 C879 1.393 . S
C883 C882 1.391 . S
H884 C892 0.950 . S
H885 C897 0.950 . S
H886 C894 0.950 . S
H887 C896 0.950 . S
H888 C898 0.950 . S
H889 C900 0.950 . S
H890 C902 0.950 . S
H891 C903 0.950 . S
C892 H884 0.950 . S
C892 C893 1.386 . S
C892 C894 1.391 . S
C893 C892 1.386 . S
C893 C897 1.393 . S
C894 H886 0.950 . S
C894 C892 1.391 . S
C894 C895 1.400 . S
C895 C894 1.400 . S
C895 C896 1.398 . S
C895 C901 1.491 . S
C896 H887 0.950 . S
C896 C895 1.398 . S
C896 C897 1.391 . S
C897 H885 0.950 . S
C897 C893 1.393 . S
C897 C896 1.391 . S
C898 H888 0.950 . S
C898 C899 1.386 . S
C898 C900 1.391 . S
C899 C898 1.386 . S
C899 C903 1.393 . S
C900 H889 0.950 . S
C900 C898 1.391 . S
C900 C901 1.400 . S
C901 C895 1.491 . S
C901 C900 1.400 . S
C901 C902 1.398 . S
C902 H890 0.950 . S
C902 C901 1.398 . S
C902 C903 1.391 . S
C903 H891 0.950 . S
C903 C899 1.393 . S
C903 C902 1.391 . S
H904 C912 0.950 . S
H905 C917 0.950 . S
H906 C914 0.950 . S
H907 C916 0.950 . S
H908 C918 0.950 . S
H909 C920 0.950 . S
H910 C922 0.950 . S
H911 C923 0.950 . S
C912 H904 0.950 . S
C912 C913 1.386 . S
C912 C914 1.391 . S
C913 C912 1.386 . S
C913 C917 1.393 . S
C914 H906 0.950 . S
C914 C912 1.391 . S
C914 C915 1.400 . S
C915 C914 1.400 . S
C915 C916 1.398 . S
C915 C921 1.491 . S
C916 H907 0.950 . S
C916 C915 1.398 . S
C916 C917 1.391 . S
C917 H905 0.950 . S
C917 C913 1.393 . S
C917 C916 1.391 . S
C918 H908 0.950 . S
C918 C919 1.386 . S
C918 C920 1.391 . S
C919 C918 1.386 . S
C919 C923 1.393 . S
C920 H909 0.950 . S
C920 C918 1.391 . S
C920 C921 1.400 . S
C921 C915 1.491 . S
C921 C920 1.400 . S
C921 C922 1.398 . S
C922 H910 0.950 . S
C922 C921 1.398 . S
C922 C923 1.391 . S
C923 H911 0.950 . S
C923 C919 1.393 . S
C923 C922 1.391 . S
H924 C932 0.950 . S
H925 C937 0.950 . S
H926 C934 0.950 . S
H927 C936 0.950 . S
H928 C938 0.950 . S
H929 C940 0.950 . S
H930 C942 0.950 . S
H931 C943 0.950 . S
C932 H924 0.950 . S
C932 C933 1.386 . S
C932 C934 1.391 . S
C933 C932 1.386 . S
C933 C937 1.393 . S
C934 H926 0.950 . S
C934 C932 1.391 . S
C934 C935 1.400 . S
C935 C934 1.400 . S
C935 C936 1.398 . S
C935 C941 1.491 . S
C936 H927 0.950 . S
C936 C935 1.398 . S
C936 C937 1.391 . S
C937 H925 0.950 . S
C937 C933 1.393 . S
C937 C936 1.391 . S
C938 H928 0.950 . S
C938 C939 1.386 . S
C938 C940 1.391 . S
C939 C938 1.386 . S
C939 C943 1.393 . S
C940 H929 0.950 . S
C940 C938 1.391 . S
C940 C941 1.400 . S
C941 C935 1.491 . S
C941 C940 1.400 . S
C941 C942 1.398 . S
C942 H930 0.950 . S
C942 C941 1.398 . S
C942 C943 1.391 . S
C943 H931 0.950 . S
C943 C939 1.393 . S
C943 C942 1.391 . S
H944 C952 0.950 . S
H945 C957 0.950 . S
H946 C954 0.950 . S
H947 C956 0.950 . S
H948 C958 0.950 . S
H949 C960 0.950 . S
H950 C962 0.950 . S
H951 C963 0.950 . S
C952 H944 0.950 . S
C952 C953 1.386 . S
C952 C954 1.391 . S
C953 C952 1.386 . S
C953 C957 1.393 . S
C954 H946 0.950 . S
C954 C952 1.391 . S
C954 C955 1.400 . S
C955 C954 1.400 . S
C955 C956 1.398 . S
C955 C961 1.491 . S
C956 H947 0.950 . S
C956 C955 1.398 . S
C956 C957 1.391 . S
C957 H945 0.950 . S
C957 C953 1.393 . S
C957 C956 1.391 . S
C958 H948 0.950 . S
C958 C959 1.386 . S
C958 C960 1.391 . S
C959 C958 1.386 . S
C959 C963 1.393 . S
C960 H949 0.950 . S
C960 C958 1.391 . S
C960 C961 1.400 . S
C961 C955 1.491 . S
C961 C960 1.400 . S
C961 C962 1.398 . S
C962 H950 0.950 . S
C962 C961 1.398 . S
C962 C963 1.391 . S
C963 H951 0.950 . S
C963 C959 1.393 . S
C963 C962 1.391 . S
H964 C972 0.950 . S
H965 C977 0.950 . S
H966 C974 0.950 . S
H967 C976 0.950 . S
H968 C978 0.950 . S
H969 C980 0.950 . S
H970 C982 0.950 . S
H971 C983 0.950 . S
C972 H964 0.950 . S
C972 C973 1.386 . S
C972 C974 1.391 . S
C973 C972 1.386 . S
C973 C977 1.393 . S
C974 H966 0.950 . S
C974 C972 1.391 . S
C974 C975 1.400 . S
C975 C974 1.400 . S
C975 C976 1.398 . S
C975 C981 1.491 . S
C976 H967 0.950 . S
C976 C975 1.398 . S
C976 C977 1.391 . S
C977 H965 0.950 . S
C977 C973 1.393 . S
C977 C976 1.391 . S
C978 H968 0.950 . S
C978 C979 1.386 . S
C978 C980 1.391 . S
C979 C978 1.386 . S
C979 C983 1.393 . S
C980 H969 0.950 . S
C980 C978 1.391 . S
C980 C981 1.400 . S
C981 C975 1.491 . S
C981 C980 1.400 . S
C981 C982 1.398 . S
C982 H970 0.950 . S
C982 C981 1.398 . S
C982 C983 1.391 . S
C983 H971 0.950 . S
C983 C979 1.393 . S
C983 C982 1.391 . S
H984 C992 0.950 . S
H985 C997 0.950 . S
H986 C994 0.950 . S
H987 C996 0.950 . S
H988 C998 0.950 . S
H989 C1000 0.950 . S
H990 C1002 0.950 . S
H991 C1003 0.950 . S
C992 H984 0.950 . S
C992 C993 1.386 . S
C992 C994 1.391 . S
C993 C992 1.386 . S
C993 C997 1.393 . S
C994 H986 0.950 . S
C994 C992 1.391 . S
C994 C995 1.400 . S
C995 C994 1.400 . S
C995 C996 1.398 . S
C995 C1001 1.491 . S
C996 H987 0.950 . S
C996 C995 1.398 . S
C996 C997 1.391 . S
C997 H985 0.950 . S
C997 C993 1.393 . S
C997 C996 1.391 . S
C998 H988 0.950 . S
C998 C999 1.386 . S
C998 C1000 1.391 . S
C999 C998 1.386 . S
C999 C1003 1.393 . S
C1000 H989 0.950 . S
C1000 C998 1.391 . S
C1000 C1001 1.400 . S
C1001 C995 1.491 . S
C1001 C1000 1.400 . S
C1001 C1002 1.398 . S
C1002 H990 0.950 . S
C1002 C1001 1.398 . S
C1002 C1003 1.391 . S
C1003 H991 0.950 . S
C1003 C999 1.393 . S
C1003 C1002 1.391 . S
H1004 C1012 0.950 . S
H1005 C1017 0.950 . S
H1006 C1014 0.950 . S
H1007 C1016 0.950 . S
H1008 C1018 0.950 . S
H1009 C1020 0.950 . S
H1010 C1022 0.950 . S
H1011 C1023 0.950 . S
C1012 H1004 0.950 . S
C1012 C1013 1.386 . S
C1012 C1014 1.391 . S
C1013 C1012 1.386 . S
C1013 C1017 1.393 . S
C1014 H1006 0.950 . S
C1014 C1012 1.391 . S
C1014 C1015 1.400 . S
C1015 C1014 1.400 . S
C1015 C1016 1.398 . S
C1015 C1021 1.491 . S
C1016 H1007 0.950 . S
C1016 C1015 1.398 . S
C1016 C1017 1.391 . S
C1017 H1005 0.950 . S
C1017 C1013 1.393 . S
C1017 C1016 1.391 . S
C1018 H1008 0.950 . S
C1018 C1019 1.386 . S
C1018 C1020 1.391 . S
C1019 C1018 1.386 . S
C1019 C1023 1.393 . S
C1020 H1009 0.950 . S
C1020 C1018 1.391 . S
C1020 C1021 1.400 . S
C1021 C1015 1.491 . S
C1021 C1020 1.400 . S
C1021 C1022 1.398 . S
C1022 H1010 0.950 . S
C1022 C1021 1.398 . S
C1022 C1023 1.391 . S
C1023 H1011 0.950 . S
C1023 C1019 1.393 . S
C1023 C1022 1.391 . S
H1024 C1032 0.950 . S
H1025 C1037 0.950 . S
H1026 C1034 0.950 . S
H1027 C1036 0.950 . S
H1028 C1038 0.950 . S
H1029 C1040 0.950 . S
H1030 C1042 0.950 . S
H1031 C1043 0.950 . S
C1032 H1024 0.950 . S
C1032 C1033 1.386 . S
C1032 C1034 1.391 . S
C1033 C1032 1.386 . S
C1033 C1037 1.393 . S
C1034 H1026 0.950 . S
C1034 C1032 1.391 . S
C1034 C1035 1.400 . S
C1035 C1034 1.400 . S
C1035 C1036 1.398 . S
C1035 C1041 1.491 . S
C1036 H1027 0.950 . S
C1036 C1035 1.398 . S
C1036 C1037 1.391 . S
C1037 H1025 0.950 . S
C1037 C1033 1.393 . S
C1037 C1036 1.391 . S
C1038 H1028 0.950 . S
C1038 C1039 1.386 . S
C1038 C1040 1.391 . S
C1039 C1038 1.386 . S
C1039 C1043 1.393 . S
C1040 H1029 0.950 . S
C1040 C1038 1.391 . S
C1040 C1041 1.400 . S
C1041 C1035 1.491 . S
C1041 C1040 1.400 . S
C1041 C1042 1.398 . S
C1042 H1030 0.950 . S
C1042 C1041 1.398 . S
C1042 C1043 1.391 . S
C1043 H1031 0.950 . S
C1043 C1039 1.393 . S
C1043 C1042 1.391 . S
H1044 C1052 0.950 . S
H1045 C1057 0.950 . S
H1046 C1054 0.950 . S
H1047 C1056 0.950 . S
H1048 C1058 0.950 . S
H1049 C1060 0.950 . S
H1050 C1062 0.950 . S
H1051 C1063 0.950 . S
C1052 H1044 0.950 . S
C1052 C1053 1.386 . S
C1052 C1054 1.391 . S
C1053 C1052 1.386 . S
C1053 C1057 1.393 . S
C1054 H1046 0.950 . S
C1054 C1052 1.391 . S
C1054 C1055 1.400 . S
C1055 C1054 1.400 . S
C1055 C1056 1.398 . S
C1055 C1061 1.491 . S
C1056 H1047 0.950 . S
C1056 C1055 1.398 . S
C1056 C1057 1.391 . S
C1057 H1045 0.950 . S
C1057 C1053 1.393 . S
C1057 C1056 1.391 . S
C1058 H1048 0.950 . S
C1058 C1059 1.386 . S
C1058 C1060 1.391 . S
C1059 C1058 1.386 . S
C1059 C1063 1.393 . S
C1060 H1049 0.950 . S
C1060 C1058 1.391 . S
C1060 C1061 1.400 . S
C1061 C1055 1.491 . S
C1061 C1060 1.400 . S
C1061 C1062 1.398 . S
C1062 H1050 0.950 . S
C1062 C1061 1.398 . S
C1062 C1063 1.391 . S
C1063 H1051 0.950 . S
C1063 C1059 1.393 . S
C1063 C1062 1.391 . S
H1064 C1072 0.950 . S
H1065 C1077 0.950 . S
H1066 C1074 0.950 . S
H1067 C1076 0.950 . S
H1068 C1078 0.950 . S
H1069 C1080 0.950 . S
H1070 C1082 0.950 . S
H1071 C1083 0.950 . S
C1072 H1064 0.950 . S
C1072 C1073 1.386 . S
C1072 C1074 1.391 . S
C1073 C1072 1.386 . S
C1073 C1077 1.393 . S
C1074 H1066 0.950 . S
C1074 C1072 1.391 . S
C1074 C1075 1.400 . S
C1075 C1074 1.400 . S
C1075 C1076 1.398 . S
C1075 C1081 1.491 . S
C1076 H1067 0.950 . S
C1076 C1075 1.398 . S
C1076 C1077 1.391 . S
C1077 H1065 0.950 . S
C1077 C1073 1.393 . S
C1077 C1076 1.391 . S
C1078 H1068 0.950 . S
C1078 C1079 1.386 . S
C1078 C1080 1.391 . S
C1079 C1078 1.386 . S
C1079 C1083 1.393 . S
C1080 H1069 0.950 . S
C1080 C1078 1.391 . S
C1080 C1081 1.400 . S
C1081 C1075 1.491 . S
C1081 C1080 1.400 . S
C1081 C1082 1.398 . S
C1082 H1070 0.950 . S
C1082 C1081 1.398 . S
C1082 C1083 1.391 . S
C1083 H1071 0.950 . S
C1083 C1079 1.393 . S
C1083 C1082 1.391 . S
H1084 C1092 0.950 . S
H1085 C1097 0.950 . S
H1086 C1094 0.950 . S
H1087 C1096 0.950 . S
H1088 C1098 0.950 . S
H1089 C1100 0.950 . S
H1090 C1102 0.950 . S
H1091 C1103 0.950 . S
C1092 H1084 0.950 . S
C1092 C1093 1.386 . S
C1092 C1094 1.391 . S
C1093 C1092 1.386 . S
C1093 C1097 1.393 . S
C1094 H1086 0.950 . S
C1094 C1092 1.391 . S
C1094 C1095 1.400 . S
C1095 C1094 1.400 . S
C1095 C1096 1.398 . S
C1095 C1101 1.491 . S
C1096 H1087 0.950 . S
C1096 C1095 1.398 . S
C1096 C1097 1.391 . S
C1097 H1085 0.950 . S
C1097 C1093 1.393 . S
C1097 C1096 1.391 . S
C1098 H1088 0.950 . S
C1098 C1099 1.386 . S
C1098 C1100 1.391 . S
C1099 C1098 1.386 . S
C1099 C1103 1.393 . S
C1100 H1089 0.950 . S
C1100 C1098 1.391 . S
C1100 C1101 1.400 . S
C1101 C1095 1.491 . S
C1101 C1100 1.400 . S
C1101 C1102 1.398 . S
C1102 H1090 0.950 . S
C1102 C1101 1.398 . S
C1102 C1103 1.391 . S
C1103 H1091 0.950 . S
C1103 C1099 1.393 . S
C1103 C1102 1.391 . S
H1104 C1112 0.950 . S
H1105 C1117 0.950 . S
H1106 C1114 0.950 . S
H1107 C1116 0.950 . S
H1108 C1118 0.950 . S
H1109 C1120 0.950 . S
H1110 C1122 0.950 . S
H1111 C1123 0.950 . S
C1112 H1104 0.950 . S
C1112 C1113 1.386 . S
C1112 C1114 1.391 . S
C1113 C1112 1.386 . S
C1113 C1117 1.393 . S
C1114 H1106 0.950 . S
C1114 C1112 1.391 . S
C1114 C1115 1.400 . S
C1115 C1114 1.400 . S
C1115 C1116 1.398 . S
C1115 C1121 1.491 . S
C1116 H1107 0.950 . S
C1116 C1115 1.398 . S
C1116 C1117 1.391 . S
C1117 H1105 0.950 . S
C1117 C1113 1.393 . S
C1117 C1116 1.391 . S
C1118 H1108 0.950 . S
C1118 C1119 1.386 . S
C1118 C1120 1.391 . S
C1119 C1118 1.386 . S
C1119 C1123 1.393 . S
C1120 H1109 0.950 . S
C1120 C1118 1.391 . S
C1120 C1121 1.400 . S
C1121 C1115 1.491 . S
C1121 C1120 1.400 . S
C1121 C1122 1.398 . S
C1122 H1110 0.950 . S
C1122 C1121 1.398 . S
C1122 C1123 1.391 . S
C1123 H1111 0.950 . S
C1123 C1119 1.393 . S
C1123 C1122 1.391 . S
H1124 C1132 0.950 . S
H1125 C1137 0.950 . S
H1126 C1134 0.950 . S
H1127 C1136 0.950 . S
H1128 C1138 0.950 . S
H1129 C1140 0.950 . S
H1130 C1142 0.950 . S
H1131 C1143 0.950 . S
C1132 H1124 0.950 . S
C1132 C1133 1.386 . S
C1132 C1134 1.391 . S
C1133 C1132 1.386 . S
C1133 C1137 1.393 . S
C1134 H1126 0.950 . S
C1134 C1132 1.391 . S
C1134 C1135 1.400 . S
C1135 C1134 1.400 . S
C1135 C1136 1.398 . S
C1135 C1141 1.491 . S
C1136 H1127 0.950 . S
C1136 C1135 1.398 . S
C1136 C1137 1.391 . S
C1137 H1125 0.950 . S
C1137 C1133 1.393 . S
C1137 C1136 1.391 . S
C1138 H1128 0.950 . S
C1138 C1139 1.386 . S
C1138 C1140 1.391 . S
C1139 C1138 1.386 . S
C1139 C1143 1.393 . S
C1140 H1129 0.950 . S
C1140 C1138 1.391 . S
C1140 C1141 1.400 . S
C1141 C1135 1.491 . S
C1141 C1140 1.400 . S
C1141 C1142 1.398 . S
C1142 H1130 0.950 . S
C1142 C1141 1.398 . S
C1142 C1143 1.391 . S
C1143 H1131 0.950 . S
C1143 C1139 1.393 . S
C1143 C1142 1.391 . S
H1144 C1152 0.950 . S
H1145 C1157 0.950 . S
H1146 C1154 0.950 . S
H1147 C1156 0.950 . S
H1148 C1158 0.950 . S
H1149 C1160 0.950 . S
H1150 C1162 0.950 . S
H1151 C1163 0.950 . S
C1152 H1144 0.950 . S
C1152 C1153 1.386 . S
C1152 C1154 1.391 . S
C1153 C1152 1.386 . S
C1153 C1157 1.393 . S
C1154 H1146 0.950 . S
C1154 C1152 1.391 . S
C1154 C1155 1.400 . S
C1155 C1154 1.400 . S
C1155 C1156 1.398 . S
C1155 C1161 1.491 . S
C1156 H1147 0.950 . S
C1156 C1155 1.398 . S
C1156 C1157 1.391 . S
C1157 H1145 0.950 . S
C1157 C1153 1.393 . S
C1157 C1156 1.391 . S
C1158 H1148 0.950 . S
C1158 C1159 1.386 . S
C1158 C1160 1.391 . S
C1159 C1158 1.386 . S
C1159 C1163 1.393 . S
C1160 H1149 0.950 . S
C1160 C1158 1.391 . S
C1160 C1161 1.400 . S
C1161 C1155 1.491 . S
C1161 C1160 1.400 . S
C1161 C1162 1.398 . S
C1162 H1150 0.950 . S
C1162 C1161 1.398 . S
C1162 C1163 1.391 . S
C1163 H1151 0.950 . S
C1163 C1159 1.393 . S
C1163 C1162 1.391 . S
H1164 C1172 0.950 . S
H1165 C1177 0.950 . S
H1166 C1174 0.950 . S
H1167 C1176 0.950 . S
H1168 C1178 0.950 . S
H1169 C1180 0.950 . S
H1170 C1182 0.950 . S
H1171 C1183 0.950 . S
C1172 H1164 0.950 . S
C1172 C1173 1.386 . S
C1172 C1174 1.391 . S
C1173 C1172 1.386 . S
C1173 C1177 1.393 . S
C1174 H1166 0.950 . S
C1174 C1172 1.391 . S
C1174 C1175 1.400 . S
C1175 C1174 1.400 . S
C1175 C1176 1.398 . S
C1175 C1181 1.491 . S
C1176 H1167 0.950 . S
C1176 C1175 1.398 . S
C1176 C1177 1.391 . S
C1177 H1165 0.950 . S
C1177 C1173 1.393 . S
C1177 C1176 1.391 . S
C1178 H1168 0.950 . S
C1178 C1179 1.386 . S
C1178 C1180 1.391 . S
C1179 C1178 1.386 . S
C1179 C1183 1.393 . S
C1180 H1169 0.950 . S
C1180 C1178 1.391 . S
C1180 C1181 1.400 . S
C1181 C1175 1.491 . S
C1181 C1180 1.400 . S
C1181 C1182 1.398 . S
C1182 H1170 0.950 . S
C1182 C1181 1.398 . S
C1182 C1183 1.391 . S
C1183 H1171 0.950 . S
C1183 C1179 1.393 . S
C1183 C1182 1.391 . S
H1184 C1192 0.926 1_565 S
H1185 C1197 0.950 . S
H1186 C1194 0.997 . S
H1187 C1196 0.950 . S
H1188 C1198 0.950 . S
H1189 C1200 0.950 . S
H1190 C1202 0.950 . S
H1191 C1203 0.950 . S
C1192 H1184 0.926 1_545 S
C1192 C1193 1.411 . S
C1192 C1194 1.390 1_545 S
C1193 C1192 1.411 . S
C1193 C1197 1.393 . S
C1194 H1186 0.997 . S
C1194 C1192 1.390 1_565 S
C1194 C1195 1.358 1_565 S
C1195 C1194 1.358 1_545 S
C1195 C1196 1.398 . S
C1195 C1201 1.491 . S
C1196 H1187 0.950 . S
C1196 C1195 1.398 . S
C1196 C1197 1.391 . S
C1197 H1185 0.950 . S
C1197 C1193 1.393 . S
C1197 C1196 1.391 . S
C1198 H1188 0.950 . S
C1198 C1199 1.386 . S
C1198 C1200 1.391 . S
C1199 C1198 1.386 . S
C1199 C1203 1.393 1_545 S
C1200 H1189 0.950 . S
C1200 C1198 1.391 . S
C1200 C1201 1.400 . S
C1201 C1195 1.491 . S
C1201 C1200 1.400 . S
C1201 C1202 1.398 1_545 S
C1202 H1190 0.950 . S
C1202 C1201 1.398 1_565 S
C1202 C1203 1.391 . S
C1203 H1191 0.950 . S
C1203 C1199 1.393 1_565 S
C1203 C1202 1.391 . S
H1204 C1212 0.950 . S
H1205 C1217 0.950 . S
H1206 C1214 0.950 . S
H1207 C1216 0.950 . S
H1208 C1218 0.950 . S
H1209 C1220 0.950 . S
H1210 C1222 0.950 . S
H1211 C1223 0.950 . S
C1212 H1204 0.950 . S
C1212 C1213 1.386 . S
C1212 C1214 1.391 . S
C1213 C1212 1.386 . S
C1213 C1217 1.393 . S
C1214 H1206 0.950 . S
C1214 C1212 1.391 . S
C1214 C1215 1.400 . S
C1215 C1214 1.400 . S
C1215 C1216 1.398 . S
C1215 C1221 1.491 . S
C1216 H1207 0.950 . S
C1216 C1215 1.398 . S
C1216 C1217 1.391 . S
C1217 H1205 0.950 . S
C1217 C1213 1.393 . S
C1217 C1216 1.391 . S
C1218 H1208 0.950 . S
C1218 C1219 1.386 . S
C1218 C1220 1.391 . S
C1219 C1218 1.386 . S
C1219 C1223 1.393 . S
C1220 H1209 0.950 . S
C1220 C1218 1.391 . S
C1220 C1221 1.400 . S
C1221 C1215 1.491 . S
C1221 C1220 1.400 . S
C1221 C1222 1.398 . S
C1222 H1210 0.950 . S
C1222 C1221 1.398 . S
C1222 C1223 1.391 . S
C1223 H1211 0.950 . S
C1223 C1219 1.393 . S
C1223 C1222 1.391 . S
H1224 C1232 0.950 . S
H1225 C1237 0.950 . S
H1226 C1234 0.950 . S
H1227 C1236 0.950 . S
H1228 C1238 0.950 . S
H1229 C1240 0.950 . S
H1230 C1242 0.950 . S
H1231 C1243 0.950 . S
C1232 H1224 0.950 . S
C1232 C1233 1.386 . S
C1232 C1234 1.391 . S
C1233 C1232 1.386 . S
C1233 C1237 1.393 . S
C1234 H1226 0.950 . S
C1234 C1232 1.391 . S
C1234 C1235 1.400 . S
C1235 C1234 1.400 . S
C1235 C1236 1.398 . S
C1235 C1241 1.491 . S
C1236 H1227 0.950 . S
C1236 C1235 1.398 . S
C1236 C1237 1.391 . S
C1237 H1225 0.950 . S
C1237 C1233 1.393 . S
C1237 C1236 1.391 . S
C1238 H1228 0.950 . S
C1238 C1239 1.386 . S
C1238 C1240 1.391 . S
C1239 C1238 1.386 . S
C1239 C1243 1.393 . S
C1240 H1229 0.950 . S
C1240 C1238 1.391 . S
C1240 C1241 1.400 . S
C1241 C1235 1.491 . S
C1241 C1240 1.400 . S
C1241 C1242 1.398 . S
C1242 H1230 0.950 . S
C1242 C1241 1.398 . S
C1242 C1243 1.391 . S
C1243 H1231 0.950 . S
C1243 C1239 1.393 . S
C1243 C1242 1.391 . S
H1244 C1252 0.950 . S
H1245 C1257 0.950 . S
H1246 C1254 0.950 . S
H1247 C1256 0.950 . S
H1248 C1258 0.950 . S
H1249 C1260 0.950 . S
H1250 C1262 0.950 . S
H1251 C1263 0.950 . S
C1252 H1244 0.950 . S
C1252 C1253 1.386 . S
C1252 C1254 1.391 . S
C1253 C1252 1.386 . S
C1253 C1257 1.393 1_455 S
C1254 H1246 0.950 . S
C1254 C1252 1.391 . S
C1254 C1255 1.400 . S
C1255 C1254 1.400 . S
C1255 C1256 1.398 1_455 S
C1255 C1261 1.491 . S
C1256 H1247 0.950 . S
C1256 C1255 1.398 1_655 S
C1256 C1257 1.391 . S
C1257 H1245 0.950 . S
C1257 C1253 1.393 1_655 S
C1257 C1256 1.391 . S
C1258 H1248 0.950 . S
C1258 C1259 1.386 1_655 S
C1258 C1260 1.391 . S
C1259 C1258 1.386 1_455 S
C1259 C1263 1.393 . S
C1260 H1249 0.950 . S
C1260 C1258 1.391 . S
C1260 C1261 1.400 1_655 S
C1261 C1255 1.491 . S
C1261 C1260 1.400 1_455 S
C1261 C1262 1.398 . S
C1262 H1250 0.950 . S
C1262 C1261 1.398 . S
C1262 C1263 1.391 . S
C1263 H1251 0.950 . S
C1263 C1259 1.393 . S
C1263 C1262 1.391 . S
H1264 C1272 0.950 . S
H1265 C1277 0.950 . S
H1266 C1274 0.950 . S
H1267 C1276 0.950 . S
H1268 C1278 0.950 . S
H1269 C1280 0.950 . S
H1270 C1282 0.950 . S
H1271 C1283 0.950 . S
C1272 H1264 0.950 . S
C1272 C1273 1.386 . S
C1272 C1274 1.391 . S
C1273 C1272 1.386 . S
C1273 C1277 1.393 . S
C1274 H1266 0.950 . S
C1274 C1272 1.391 . S
C1274 C1275 1.400 . S
C1275 C1274 1.400 . S
C1275 C1276 1.398 . S
C1275 C1281 1.491 . S
C1276 H1267 0.950 . S
C1276 C1275 1.398 . S
C1276 C1277 1.391 . S
C1277 H1265 0.950 . S
C1277 C1273 1.393 . S
C1277 C1276 1.391 . S
C1278 H1268 0.950 . S
C1278 C1279 1.386 . S
C1278 C1280 1.391 . S
C1279 C1278 1.386 . S
C1279 C1283 1.393 . S
C1280 H1269 0.950 . S
C1280 C1278 1.391 . S
C1280 C1281 1.400 . S
C1281 C1275 1.491 . S
C1281 C1280 1.400 . S
C1281 C1282 1.398 . S
C1282 H1270 0.950 . S
C1282 C1281 1.398 . S
C1282 C1283 1.391 . S
C1283 H1271 0.950 . S
C1283 C1279 1.393 . S
C1283 C1282 1.391 . S
H1284 C1292 0.950 . S
H1285 C1297 0.950 . S
H1286 C1294 0.950 . S
H1287 C1296 0.950 . S
H1288 C1298 0.950 . S
H1289 C1300 0.950 . S
H1290 C1302 0.950 . S
H1291 C1303 0.950 . S
C1292 H1284 0.950 . S
C1292 C1293 1.386 . S
C1292 C1294 1.391 . S
C1293 C1292 1.386 . S
C1293 C1297 1.393 . S
C1294 H1286 0.950 . S
C1294 C1292 1.391 . S
C1294 C1295 1.400 . S
C1295 C1294 1.400 . S
C1295 C1296 1.398 . S
C1295 C1301 1.491 . S
C1296 H1287 0.950 . S
C1296 C1295 1.398 . S
C1296 C1297 1.391 . S
C1297 H1285 0.950 . S
C1297 C1293 1.393 . S
C1297 C1296 1.391 . S
C1298 H1288 0.950 . S
C1298 C1299 1.386 . S
C1298 C1300 1.391 . S
C1299 C1298 1.386 . S
C1299 C1303 1.393 . S
C1300 H1289 0.950 . S
C1300 C1298 1.391 . S
C1300 C1301 1.400 . S
C1301 C1295 1.491 . S
C1301 C1300 1.400 . S
C1301 C1302 1.398 . S
C1302 H1290 0.950 . S
C1302 C1301 1.398 . S
C1302 C1303 1.391 . S
C1303 H1291 0.950 . S
C1303 C1299 1.393 . S
C1303 C1302 1.391 . S
H1304 C1312 0.950 . S
H1305 C1317 0.950 . S
H1306 C1314 0.950 . S
H1307 C1316 0.950 . S
H1308 C1318 0.950 . S
H1309 C1320 0.950 . S
H1310 C1322 0.950 . S
H1311 C1323 0.950 . S
C1312 H1304 0.950 . S
C1312 C1313 1.386 . S
C1312 C1314 1.391 . S
C1313 C1312 1.386 . S
C1313 C1317 1.393 . S
C1314 H1306 0.950 . S
C1314 C1312 1.391 . S
C1314 C1315 1.400 . S
C1315 C1314 1.400 . S
C1315 C1316 1.398 . S
C1315 C1321 1.491 . S
C1316 H1307 0.950 . S
C1316 C1315 1.398 . S
C1316 C1317 1.391 . S
C1317 H1305 0.950 . S
C1317 C1313 1.393 . S
C1317 C1316 1.391 . S
C1318 H1308 0.950 . S
C1318 C1319 1.386 . S
C1318 C1320 1.391 . S
C1319 C1318 1.386 . S
C1319 C1323 1.393 . S
C1320 H1309 0.950 . S
C1320 C1318 1.391 . S
C1320 C1321 1.400 . S
C1321 C1315 1.491 . S
C1321 C1320 1.400 . S
C1321 C1322 1.398 . S
C1322 H1310 0.950 . S
C1322 C1321 1.398 . S
C1322 C1323 1.391 . S
C1323 H1311 0.950 . S
C1323 C1319 1.393 . S
C1323 C1322 1.391 . S
H1324 C1332 0.950 . S
H1325 C1337 0.950 1_455 S
H1326 C1334 0.950 . S
H1327 C1336 0.897 1_455 S
H1328 C1338 0.950 . S
H1329 C1340 0.950 . S
H1330 C1342 0.950 . S
H1331 C1343 0.950 . S
C1332 H1324 0.950 . S
C1332 C1333 1.386 . S
C1332 C1334 1.391 . S
C1333 C1332 1.386 . S
C1333 C1337 1.393 . S
C1334 H1326 0.950 . S
C1334 C1332 1.391 . S
C1334 C1335 1.400 . S
C1335 C1334 1.400 . S
C1335 C1336 1.448 . S
C1335 C1341 1.491 . S
C1336 H1327 0.897 1_655 S
C1336 C1335 1.448 . S
C1336 C1337 1.395 . S
C1337 H1325 0.950 1_655 S
C1337 C1333 1.393 . S
C1337 C1336 1.395 . S
C1338 H1328 0.950 . S
C1338 C1339 1.386 1_455 S
C1338 C1340 1.391 . S
C1339 C1338 1.386 1_655 S
C1339 C1343 1.393 . S
C1340 H1329 0.950 . S
C1340 C1338 1.391 . S
C1340 C1341 1.400 1_455 S
C1341 C1335 1.491 . S
C1341 C1340 1.400 1_655 S
C1341 C1342 1.398 . S
C1342 H1330 0.950 . S
C1342 C1341 1.398 . S
C1342 C1343 1.391 . S
C1343 H1331 0.950 . S
C1343 C1339 1.393 . S
C1343 C1342 1.391 . S
C553 C277 0.489 . S
C559 C5 0.497 . S
C573 C39 0.649 . S
C579 C311 0.644 . S
C593 C345 0.555 . S
C599 C73 0.535 . S
C613 C379 0.322 . S
C619 C122 0.113 . S
C633 C141 0.550 . S
C639 C413 0.541 . S
C653 C175 0.602 . S
C659 C447 0.596 . S
C673 C209 0.473 . S
C679 C481 0.494 . S
C693 C243 0.408 . S
C699 C515 0.413 . S
C713 C33 1.710 . S
C719 C530 1.642 . S
C733 C67 1.567 . S
C739 C428 1.492 . S
C753 C101 1.611 . S
C759 C462 1.518 . S
C773 C496 1.467 . S
C779 C135 1.513 . S
C793 C169 1.531 . S
C799 C326 1.462 . S
C813 C203 1.535 . S
C819 C360 1.454 . S
C833 C394 1.675 . S
C839 C237 1.720 . S
C853 C271 1.619 . S
C859 C292 1.534 . S
C873 C258 1.518 . S
C879 C305 1.582 . S
C893 C156 1.474 . S
C899 C339 1.567 . S
C913 C190 1.497 . S
C919 C373 1.542 . S
C933 C407 1.265 . S
C939 C224 1.184 . S
C953 C54 1.450 . S
C959 C441 1.521 . S
C973 C475 1.536 . S
C979 C88 1.460 . S
C993 C111 1.048 . S
C999 C509 1.115 . S
C1013 C20 1.551 . S
C1019 C543 1.621 . S
C1033 C240 1.819 . S
C1039 C2 1.810 . S
C1053 C138 1.775 . S
C1059 C36 1.771 . S
C1073 C70 1.760 . S
C1079 C172 1.771 . S
C1093 C206 1.284 . S
C1099 C107 1.295 . S
C1113 C512 1.897 . S
C1119 C274 1.941 . S
C1133 C308 1.785 . S
C1139 C410 1.778 . S
C1153 C342 1.743 . S
C1159 C444 1.753 . S
C1173 C376 2.007 . S
C1179 C478 2.012 . S
C1193 C9 1.216 . S
C1199 C417 1.212 . S
C1213 C43 0.951 . S
C1219 C451 0.896 . S
C1233 C77 1.133 . S
C1239 C485 1.163 . S
C1253 C104 1.389 . S
C1259 C519 1.308 . S
C1273 C145 1.188 . S
C1279 C281 1.229 . S
C1293 C179 0.979 . S
C1299 C315 0.945 . S
C1313 C213 1.118 . S
C1319 C349 1.144 . S
C1333 C383 1.451 . S
C1339 C247 1.438 . S
