# Generated by pormake.
# Topology vby, (6)-cn, num edge types: 1
# Building blocks:
#     Node 0, Type 0, BuildingBlock: CUWYAW_clean_sbu_0, # of connection points: 6
#     Node 1, Type 0, BuildingBlock: CUWYAW_clean_sbu_0, # of connection points: 6
#     Node 2, Type 0, BuildingBlock: CUWYAW_clean_sbu_0, # of connection points: 6
#     Node 3, Type 0, BuildingBlock: CUWYAW_clean_sbu_0, # of connection points: 6
#     Node 4, Type 0, BuildingBlock: CUWYAW_clean_sbu_0, # of connection points: 6
#     Node 5, Type 0, BuildingBlock: CUWYAW_clean_sbu_0, # of connection points: 6
#     Node 6, Type 0, BuildingBlock: CUWYAW_clean_sbu_0, # of connection points: 6
#     Node 7, Type 0, BuildingBlock: CUWYAW_clean_sbu_0, # of connection points: 6
#     Edge 8, Type (0, 0), BuildingBlock: UVAHIK_clean_linker_0, # of connection points: 2
#     Edge 9, Type (0, 0), BuildingBlock: UVAHIK_clean_linker_0, # of connection points: 2
#     Edge 10, Type (0, 0), BuildingBlock: UVAHIK_clean_linker_0, # of connection points: 2
#     Edge 11, Type (0, 0), BuildingBlock: UVAHIK_clean_linker_0, # of connection points: 2
#     Edge 12, Type (0, 0), BuildingBlock: UVAHIK_clean_linker_0, # of connection points: 2
#     Edge 13, Type (0, 0), BuildingBlock: UVAHIK_clean_linker_0, # of connection points: 2
#     Edge 14, Type (0, 0), BuildingBlock: UVAHIK_clean_linker_0, # of connection points: 2
#     Edge 15, Type (0, 0), BuildingBlock: UVAHIK_clean_linker_0, # of connection points: 2
#     Edge 16, Type (0, 0), BuildingBlock: UVAHIK_clean_linker_0, # of connection points: 2
#     Edge 17, Type (0, 0), BuildingBlock: UVAHIK_clean_linker_0, # of connection points: 2
#     Edge 18, Type (0, 0), BuildingBlock: UVAHIK_clean_linker_0, # of connection points: 2
#     Edge 19, Type (0, 0), BuildingBlock: UVAHIK_clean_linker_0, # of connection points: 2
#     Edge 20, Type (0, 0), BuildingBlock: UVAHIK_clean_linker_0, # of connection points: 2
#     Edge 21, Type (0, 0), BuildingBlock: UVAHIK_clean_linker_0, # of connection points: 2
#     Edge 22, Type (0, 0), BuildingBlock: UVAHIK_clean_linker_0, # of connection points: 2
#     Edge 23, Type (0, 0), BuildingBlock: UVAHIK_clean_linker_0, # of connection points: 2
#     Edge 24, Type (0, 0), BuildingBlock: UVAHIK_clean_linker_0, # of connection points: 2
#     Edge 25, Type (0, 0), BuildingBlock: UVAHIK_clean_linker_0, # of connection points: 2
#     Edge 26, Type (0, 0), BuildingBlock: UVAHIK_clean_linker_0, # of connection points: 2
#     Edge 27, Type (0, 0), BuildingBlock: UVAHIK_clean_linker_0, # of connection points: 2
#     Edge 28, Type (0, 0), BuildingBlock: UVAHIK_clean_linker_0, # of connection points: 2
#     Edge 29, Type (0, 0), BuildingBlock: UVAHIK_clean_linker_0, # of connection points: 2
#     Edge 30, Type (0, 0), BuildingBlock: UVAHIK_clean_linker_0, # of connection points: 2
#     Edge 31, Type (0, 0), BuildingBlock: UVAHIK_clean_linker_0, # of connection points: 2
# Relax obj value: 0.468
# Max RMSD: 0.237
# Mean RMSD: 0.196
data_MOF--net-vby--node1-CUWYAW_clean_sbu_0--edge1-UVAHIK_clean_linker_0
_symmetry_space_group_name_H-M    P1
_symmetry_Int_Tables_number       1
_symmetry_cell_setting            triclinic
loop_
_symmetry_equiv_pos_as_xyz
'x, y, z'
_cell_length_a     22.080809
_cell_length_b     90.197219
_cell_length_c     39.100797
_cell_angle_alpha  85.723087
_cell_angle_beta   88.789549
_cell_angle_gamma 77.637156
loop_
_atom_site_label
_atom_site_type_symbol
_atom_site_fract_x
_atom_site_fract_y
_atom_site_fract_z
_atom_type_partial_charge
C0 C 0.98928 0.44458 0.98511 0.0
Eu1 Eu 0.10633 0.44163 -0.00133 0.0
C2 C 0.95041 0.45339 0.95762 0.0
C3 C 0.88759 0.45303 0.95645 0.0
C4 C 0.85351 0.45866 0.92688 0.0
C5 C 0.88219 0.46449 0.89788 0.0
C6 C 0.94426 0.46571 0.89998 0.0
C7 C 0.97789 0.46039 0.92994 0.0
C8 C 0.15053 0.43445 0.06451 0.0
C9 C 0.1314 0.47738 -0.00157 0.0
C10 C 0.34018 0.44403 0.0013 0.0
Eu11 Eu 0.22442 0.44223 -0.00167 0.0
C12 C 0.39387 0.43665 0.98144 0.0
C13 C 0.44556 0.4433 0.9775 0.0
C14 C 0.49021 0.43856 0.9525 0.0
C15 C 0.48291 0.42734 0.93073 0.0
C16 C 0.4329 0.42014 0.93593 0.0
C17 C 0.38913 0.42461 0.96151 0.0
C18 C 0.18964 0.43661 0.93389 0.0
C19 C 0.19979 0.40691 0.00042 0.0
O20 O 1.03285 0.43368 0.97452 0.0
O21 O 1.0092 0.4523 0.00776 0.0
O22 O 0.11514 0.42738 0.04928 0.0
O23 O 0.16242 0.44512 0.04432 0.0
O24 O 0.0888 0.46886 -0.00282 0.0
O25 O 0.18999 0.46932 -0.00029 0.0
O26 O 0.31522 0.43519 0.02274 0.0
O27 O 0.29882 0.45368 0.98292 0.0
O28 O 0.23706 0.42903 0.95062 0.0
O29 O 0.16033 0.44678 0.95224 0.0
O30 O 0.23898 0.41531 0.00985 0.0
O31 O 0.14409 0.41515 -0.00945 0.0
H32 H 0.86583 0.44762 0.97756 0.0
H33 H 0.80594 0.45736 0.9258 0.0
H34 H 0.96737 0.47011 0.87801 0.0
H35 H 1.02634 0.4609 0.93087 0.0
H36 H 0.44963 0.45269 -0.00761 0.0
H37 H 0.52833 0.44435 0.9487 0.0
H38 H 0.42665 0.41143 0.91949 0.0
H39 H 0.34996 0.4192 0.9645 0.0
C40 C 0.08426 0.69942 0.96816 0.0
Eu41 Eu 0.98152 0.693 -0.00718 0.0
C42 C 0.10783 0.7135 0.96297 0.0
C43 C 0.1708 0.71296 0.96804 0.0
C44 C 0.19332 0.72633 0.96508 0.0
C45 C 0.15306 0.74049 0.95729 0.0
C46 C 0.09014 0.74101 0.95165 0.0
C47 C 0.06782 0.72759 0.95408 0.0
C48 C 0.95234 0.69135 0.06132 0.0
C49 C 0.95631 0.65763 -0.00178 0.0
C50 C 0.74779 0.69255 0.02264 0.0
Eu51 Eu 0.85908 0.693 0.0012 0.0
C52 C 0.69802 0.70588 0.02858 0.0
C53 C 0.68767 0.71855 0.00457 0.0
C54 C 0.64469 0.73175 0.01128 0.0
C55 C 0.61135 0.73272 0.04235 0.0
C56 C 0.6225 0.72011 0.06665 0.0
C57 C 0.66546 0.70681 0.05979 0.0
C58 C 0.88751 0.69778 0.93344 0.0
C59 C 0.88344 0.72816 -0.00286 0.0
O60 O 0.07819 0.69433 -7e-05 0.0
O61 O 1.03719 0.69866 0.94924 0.0
O62 O 1.00052 0.68286 0.0477 0.0
O63 O 0.92105 0.70001 0.03803 0.0
O64 O 0.99857 0.6661 -0.00918 0.0
O65 O 0.89894 0.66569 0.00513 0.0
O66 O 0.79492 0.69046 0.04343 0.0
O67 O 0.76503 0.69078 -0.00927 0.0
O68 O 0.84105 0.70588 0.94903 0.0
O69 O 0.91787 0.68763 0.95447 0.0
O70 O 0.84125 0.7197 0.00369 0.0
O71 O 0.94104 0.72018 -0.00902 0.0
H72 H 0.20237 0.70224 0.97488 0.0
H73 H 0.24196 0.72564 0.97005 0.0
H74 H 0.05831 0.75177 0.94552 0.0
H75 H 1.0192 0.72829 0.94932 0.0
H76 H 0.71307 0.71833 0.98054 0.0
H77 H 0.63659 0.74105 -0.00838 0.0
H78 H 0.59806 0.72052 0.09098 0.0
H79 H 0.67385 0.69732 0.07902 0.0
C80 C 0.93746 0.67331 0.49047 0.0
Eu81 Eu 0.91937 0.70245 0.49555 0.0
C82 C 0.91984 0.66065 0.47422 0.0
C83 C 0.88546 0.65137 0.49292 0.0
C84 C 0.89048 0.63631 0.48494 0.0
C85 C 0.9318 0.63029 0.45906 0.0
C86 C 0.95662 0.64042 0.43662 0.0
C87 C 0.95067 0.6555 0.44418 0.0
C88 C 0.9285 0.71287 0.55925 0.0
C89 C 0.76485 0.71787 0.49204 0.0
C90 C 0.8718 0.76182 0.49472 0.0
Eu91 Eu 0.89366 0.73255 0.48986 0.0
C92 C 0.91461 0.7722 0.48802 0.0
C93 C 0.9618 0.76899 0.46331 0.0
C94 C 1.01103 0.77648 0.46213 0.0
C95 C 1.01441 0.78727 0.48579 0.0
C96 C 0.96529 0.79109 0.50926 0.0
C97 C 0.9159 0.78356 0.51043 0.0
C98 C 0.92293 0.72103 0.42645 0.0
C99 C 0.04658 0.71756 0.49216 0.0
O100 O 0.96566 0.68229 0.47138 0.0
O101 O 0.90117 0.6803 0.51379 0.0
O102 O 0.97019 0.70281 0.54536 0.0
O103 O 0.88517 0.71778 0.53793 0.0
O104 O 0.80888 0.70497 0.49382 0.0
O105 O 0.78683 0.73071 0.49033 0.0
O106 O 0.88772 0.75191 0.52078 0.0
O107 O 0.85479 0.75563 0.46829 0.0
O108 O 0.94689 0.73137 0.43877 0.0
O109 O 0.88661 0.7168 0.44855 0.0
O110 O 1.00254 0.72964 0.49934 0.0
O111 O 1.02396 0.70545 0.4852 0.0
H112 H 0.86023 0.65514 0.51585 0.0
H113 H 0.86844 0.62894 0.50179 0.0
H114 H 0.98788 0.63637 0.41601 0.0
H115 H 0.97671 0.66249 0.42879 0.0
H116 H 0.9624 0.76014 0.44599 0.0
H117 H 0.04754 0.77346 0.44337 0.0
H118 H 0.9667 0.79926 0.52801 0.0
H119 H 0.88057 0.78602 0.53007 0.0
C120 C 0.21163 0.3714 0.49898 0.0
Eu121 Eu 0.18988 0.40049 0.50602 0.0
C122 C 0.16948 0.36088 0.50573 0.0
C123 C 0.12387 0.36367 0.53142 0.0
C124 C 0.07514 0.35602 0.53312 0.0
C125 C 0.07068 0.3455 0.50902 0.0
C126 C 0.1183 0.34209 0.48451 0.0
C127 C 0.16721 0.34977 0.48282 0.0
C128 C 0.16392 0.41132 0.57003 0.0
C129 C 1.03694 0.41607 0.50559 0.0
C130 C 0.15522 0.45975 0.51195 0.0
Eu131 Eu 0.16455 0.43115 0.50307 0.0
C132 C 0.19463 0.46939 0.52424 0.0
C133 C 0.25692 0.46772 0.51383 0.0
C134 C 0.28927 0.47904 0.51934 0.0
C135 C 0.25952 0.49218 0.53509 0.0
C136 C 0.19976 0.4928 0.54914 0.0
C137 C 0.16757 0.48152 0.5436 0.0
C138 C 0.1521 0.42173 0.43913 0.0
C139 C 0.319 0.41521 0.50385 0.0
O140 O 0.1941 0.38165 0.47372 0.0
O141 O 0.22998 0.3772 0.52561 0.0
O142 O 0.13827 0.40125 0.55774 0.0
O143 O 0.1996 0.41556 0.54769 0.0
O144 O 0.08049 0.404 0.49759 0.0
O145 O 0.05984 0.42809 0.5133 0.0
O146 O 0.13604 0.45041 0.53479 0.0
O147 O 0.17167 0.45372 0.48289 0.0
O148 O 0.11163 0.43181 0.45395 0.0
O149 O 0.19633 0.41627 0.45968 0.0
O150 O 0.27526 0.42815 0.50236 0.0
O151 O 0.29683 0.40239 0.50536 0.0
H152 H 0.12407 0.37231 0.54918 0.0
H153 H 1.03977 0.35873 0.55265 0.0
H154 H 0.11597 0.33413 0.46542 0.0
H155 H 0.20136 0.34764 0.46247 0.0
H156 H 0.27914 0.45827 0.49931 0.0
H157 H 0.33549 0.47813 0.50868 0.0
H158 H 0.17497 0.50276 0.56124 0.0
H159 H 0.11982 0.48287 0.55218 0.0
C160 C 0.5006 0.9379 0.9734 0.0
Eu161 Eu 0.60646 0.9423 -0.00582 0.0
C162 C 0.47985 0.92464 0.96215 0.0
C163 C 0.41712 0.92412 0.96497 0.0
C164 C 0.39736 0.91108 0.95719 0.0
C165 C 0.44023 0.89826 0.94683 0.0
C166 C 0.50295 0.89891 0.94323 0.0
C167 C 0.5225 0.9121 0.9504 0.0
C168 C 0.63672 0.94264 0.06169 0.0
C169 C 0.6325 0.97736 -0.00282 0.0
C170 C 0.84214 0.94095 0.01885 0.0
Eu171 Eu 0.72951 0.94173 0.0005 0.0
C172 C 0.89394 0.92755 0.02096 0.0
C173 C 0.90414 0.91763 -0.00563 0.0
C174 C 0.94837 0.90404 -0.0022 0.0
C175 C 0.9831 0.89993 0.02805 0.0
C176 C 0.97251 0.90983 0.05479 0.0
C177 C 0.92834 0.92352 0.05124 0.0
C178 C 0.70169 0.93801 0.93419 0.0
C179 C 0.70393 0.90685 -0.00123 0.0
O180 O 0.5156 0.93718 0.00566 0.0
O181 O 0.5401 0.94319 0.95325 0.0
O182 O 0.58937 0.95169 0.04683 0.0
O183 O 0.66695 0.93414 0.04004 0.0
O184 O 0.58976 0.96932 -0.00875 0.0
O185 O 0.6902 0.96891 0.00294 0.0
O186 O 0.79745 0.94031 0.041 0.0
O187 O 0.82135 0.94596 -0.01188 0.0
O188 O 0.749 0.93008 0.95095 0.0
O189 O 0.67074 0.94784 0.95308 0.0
O190 O 0.74619 0.91487 0.00511 0.0
O191 O 0.64655 0.91523 -0.00759 0.0
H192 H 0.38363 0.93367 0.97401 0.0
H193 H 0.34882 0.91079 0.96069 0.0
H194 H 0.53676 0.88919 0.93527 0.0
H195 H 0.571 0.91239 0.94729 0.0
H196 H 0.87746 0.92024 0.97095 0.0
H197 H 0.95605 0.8969 0.97638 0.0
H198 H 0.99806 0.90697 0.07856 0.0
H199 H 0.92017 0.93082 0.07238 0.0
C200 C 0.5837 0.19959 0.96689 0.0
Eu201 Eu 0.4819 0.19311 -0.00725 0.0
C202 C 0.60725 0.21365 0.96125 0.0
C203 C 0.67053 0.21305 0.96523 0.0
C204 C 0.69316 0.2264 0.96196 0.0
C205 C 0.65271 0.2406 0.95493 0.0
C206 C 0.58945 0.24116 0.95026 0.0
C207 C 0.56698 0.22777 0.95304 0.0
C208 C 0.4541 0.19144 0.06139 0.0
C209 C 0.45729 0.1576 -0.00139 0.0
C210 C 0.24916 0.19208 0.02574 0.0
Eu211 Eu 0.35909 0.19278 0.00242 0.0
C212 C 0.19926 0.20536 0.03174 0.0
C213 C 0.18916 0.21806 0.00783 0.0
C214 C 0.14589 0.23122 0.01446 0.0
C215 C 0.11198 0.2321 0.04533 0.0
C216 C 0.12288 0.21946 0.06955 0.0
C217 C 0.16622 0.2062 0.06279 0.0
C218 C 0.38477 0.19761 0.93433 0.0
C219 C 0.383 0.22811 -0.00233 0.0
O220 O 0.57873 0.19452 -0.00122 0.0
O221 O 0.53591 0.19884 0.94853 0.0
O222 O 0.50246 0.18309 0.04761 0.0
O223 O 0.42215 0.2 0.0382 0.0
O224 O 0.49913 0.16617 -0.00912 0.0
O225 O 0.39993 0.16553 0.00596 0.0
O226 O 0.29718 0.19031 0.0458 0.0
O227 O 0.26501 0.19012 -0.00629 0.0
O228 O 0.33724 0.20516 0.95016 0.0
O229 O 0.41708 0.18771 0.95521 0.0
O230 O 0.34109 0.21956 0.00435 0.0
O231 O 0.4407 0.22024 -0.00868 0.0
H232 H 0.70229 0.20229 0.97153 0.0
H233 H 0.74206 0.22565 0.96625 0.0
H234 H 0.55742 0.25195 0.94475 0.0
H235 H 0.51807 0.22851 0.94915 0.0
H236 H 0.21494 0.2179 0.98393 0.0
H237 H 0.13799 0.24055 -0.00515 0.0
H238 H 0.09792 0.2198 0.09372 0.0
H239 H 0.17443 0.19668 0.08193 0.0
C240 C 0.43181 0.17292 0.48505 0.0
Eu241 Eu 0.42101 0.20154 0.49406 0.0
C242 C 0.39893 0.16315 0.46741 0.0
C243 C 0.37179 0.15268 0.4871 0.0
C244 C 0.35353 0.14094 0.47171 0.0
C245 C 0.36301 0.13932 0.43632 0.0
C246 C 0.38225 0.15102 0.41602 0.0
C247 C 0.40058 0.16281 0.43149 0.0
C248 C 0.43268 0.21075 0.55852 0.0
C249 C 0.26667 0.21725 0.49234 0.0
C250 C 0.3741 0.26096 0.49697 0.0
Eu251 Eu 0.39595 0.23181 0.49054 0.0
C252 C 0.41631 0.27145 0.49007 0.0
C253 C 0.46184 0.26862 0.46435 0.0
C254 C 0.51084 0.27618 0.46267 0.0
C255 C 0.51562 0.28666 0.48681 0.0
C256 C 0.46805 0.29013 0.51133 0.0
C257 C 0.41889 0.28254 0.513 0.0
C258 C 0.42362 0.22101 0.42641 0.0
C259 C 0.54879 0.21649 0.49178 0.0
O260 O 0.46018 0.18187 0.46587 0.0
O261 O 0.40442 0.1793 0.51184 0.0
O262 O 0.47278 0.20058 0.54378 0.0
O263 O 0.38902 0.21639 0.53771 0.0
O264 O 0.31046 0.20434 0.49349 0.0
O265 O 0.2889 0.23005 0.49119 0.0
O266 O 0.3915 0.2508 0.52242 0.0
O267 O 0.35586 0.25504 0.47048 0.0
O268 O 0.44841 0.23111 0.43916 0.0
O269 O 0.38741 0.21669 0.44843 0.0
O270 O 0.50507 0.22856 0.49945 0.0
O271 O 0.52596 0.20446 0.4843 0.0
H272 H 0.36933 0.15282 0.51479 0.0
H273 H 0.33901 0.1322 0.48839 0.0
H274 H 0.38898 0.15024 0.38864 0.0
H275 H 0.42019 0.17095 0.41552 0.0
H276 H 0.46139 0.26001 0.44657 0.0
H277 H 0.54617 0.27344 0.44314 0.0
H278 H 0.47062 0.29806 0.53044 0.0
H279 H 0.38482 0.2847 0.53338 0.0
C280 C 0.7123 0.87147 0.50203 0.0
Eu281 Eu 0.69113 0.90075 0.50663 0.0
C282 C 0.66926 0.86117 0.50905 0.0
C283 C 0.62241 0.86449 0.53392 0.0
C284 C 0.57306 0.85703 0.53552 0.0
C285 C 0.5692 0.84618 0.51212 0.0
C286 C 0.61796 0.84226 0.48846 0.0
C287 C 0.66747 0.84975 0.48689 0.0
C288 C 0.66423 0.91242 0.57 0.0
C289 C 0.53806 0.91591 0.50515 0.0
C290 C 0.65243 0.95997 0.50377 0.0
Eu291 Eu 0.66556 0.93084 0.50054 0.0
C292 C 0.68143 0.97184 0.51591 0.0
C293 C 0.70642 0.98111 0.49162 0.0
C294 C 0.71355 0.9954 0.4996 0.0
C295 C 0.69486 1.00073 0.53192 0.0
C296 C 0.68069 0.99035 0.55795 0.0
C297 C 0.67314 0.97603 0.54988 0.0
C298 C 0.65308 0.92018 0.43767 0.0
C299 C 0.82017 0.91528 0.50365 0.0
O300 O 0.69635 0.88134 0.47592 0.0
O301 O 0.72976 0.87768 0.5283 0.0
O302 O 0.63942 0.90211 0.55819 0.0
O303 O 0.69982 0.91659 0.54742 0.0
O304 O 0.58191 0.90377 0.49808 0.0
O305 O 0.56086 0.92806 0.51173 0.0
O306 O 0.62904 0.95137 0.52658 0.0
O307 O 0.67851 0.95267 0.47783 0.0
O308 O 0.61153 0.93004 0.45227 0.0
O309 O 0.69792 0.91541 0.45819 0.0
O310 O 0.77619 0.92817 0.50132 0.0
O311 O 0.79811 0.90245 0.50591 0.0
H312 H 0.62219 0.87339 0.55107 0.0
H313 H 0.53685 0.86013 0.55441 0.0
H314 H 0.61617 0.83404 0.4699 0.0
H315 H 0.70254 0.84721 0.46713 0.0
H316 H 0.71406 0.97806 0.46534 0.0
H317 H 0.7254 1.00292 0.47883 0.0
H318 H 0.66807 0.99394 0.58343 0.0
H319 H 0.65517 0.96893 0.56941 0.0
C320 C 0.49906 0.42809 0.86737 0.0
C321 C 0.5238 0.42459 0.90054 0.0
C322 C 0.53822 0.42938 0.83919 0.0
C323 C 0.70528 0.42572 0.815 0.0
H324 H 0.65385 0.4689 0.79005 0.0
C325 C 0.78719 0.47389 0.86278 0.0
C326 C 0.84987 0.46659 0.86457 0.0
C327 C 0.74949 0.47052 0.83761 0.0
C328 C 0.66905 0.45675 0.79585 0.0
H329 H 0.60806 0.41816 0.93016 0.0
H330 H 0.6765 0.42018 0.88141 0.0
H331 H 0.57626 0.45413 0.80541 0.0
H332 H 0.92509 0.45241 0.83791 0.0
H333 H 0.8593 0.4466 0.79368 0.0
H334 H 0.79807 0.42865 0.81037 0.0
C335 C 0.62724 0.42192 0.87667 0.0
C336 C 0.62435 0.44821 0.80445 0.0
C337 C 0.58815 0.42088 0.90478 0.0
C338 C 0.87651 0.45802 0.83737 0.0
C339 C 0.8387 0.45463 0.8121 0.0
C340 C 0.74993 0.43429 0.80686 0.0
C341 C 0.60261 0.42697 0.84384 0.0
C342 C 0.64272 0.43302 0.81784 0.0
C343 C 0.77389 0.45961 0.81409 0.0
C344 C 0.7322 0.45025 0.8014 0.0
H345 H 0.44932 0.43105 0.86364 0.0
H346 H 0.51797 0.43329 0.81427 0.0
H347 H 0.72053 0.41387 0.82397 0.0
H348 H 0.76592 0.4808 0.88313 0.0
H349 H 0.70005 0.47486 0.83995 0.0
C350 C 0.14881 0.76621 0.97856 0.0
C351 C 0.17689 0.75461 0.95767 0.0
C352 C 0.1807 0.77734 -0.01343 0.0
C353 C 0.28551 0.78261 0.02838 0.0
H354 H 0.43566 0.78529 0.97772 0.0
C355 C 0.50401 0.74429 0.06147 0.0
C356 C 0.56097 0.74626 0.04741 0.0
C357 C 0.45184 0.75612 0.05864 0.0
C358 C 0.39392 0.78518 -0.00732 0.0
H359 H 0.2552 0.7468 0.92462 0.0
H360 H 0.31123 0.76573 0.93879 0.0
H361 H 0.33849 0.78907 0.94742 0.0
H362 H 0.60985 0.76291 0.02384 0.0
H363 H 0.51798 0.78354 0.01812 0.0
H364 H 0.34157 0.77793 0.0734 0.0
C365 C 0.26497 0.76653 0.94927 0.0
C366 C 0.33798 0.78721 0.97511 0.0
C367 C 0.23326 0.75546 0.94139 0.0
C368 C 0.56606 0.76088 0.03395 0.0
C369 C 0.51357 0.77275 0.03091 0.0
C370 C 0.34112 0.78094 0.04605 0.0
C371 C 0.24115 0.77695 0.9739 0.0
C372 C 0.28523 0.78394 -0.00773 0.0
C373 C 0.45513 0.77023 0.04146 0.0
C374 C 0.39699 0.78028 0.02776 0.0
H375 H 0.10488 0.76589 -0.00886 0.0
H376 H 0.16035 0.78538 0.005 0.0
H377 H 0.24546 0.78054 0.04287 0.0
H378 H 0.49807 0.73323 0.07192 0.0
H379 H 0.40779 0.75359 0.06684 0.0
C380 C 0.66569 0.70445 0.49268 0.0
C381 C 0.69083 0.7179 0.49195 0.0
C382 C 0.59933 0.70445 0.49261 0.0
C383 C 0.4269 0.73121 0.49412 0.0
H384 H 0.37168 0.69369 0.48789 0.0
C385 C 0.14543 0.73075 0.49725 0.0
C386 C 0.12047 0.71764 0.49199 0.0
C387 C 0.21173 0.73084 0.49714 0.0
C388 C 0.38417 0.70455 0.48965 0.0
H389 H 0.65546 0.74226 0.49062 0.0
H390 H 0.54415 0.74232 0.49061 0.0
H391 H 0.48225 0.69373 0.48784 0.0
H392 H 0.15597 0.69403 0.48232 0.0
H393 H 0.26713 0.69409 0.48226 0.0
H394 H 0.32876 0.74203 0.49593 0.0
C395 C 0.57585 0.73137 0.49125 0.0
C396 C 0.45051 0.70457 0.48971 0.0
C397 C 0.64224 0.73136 0.49121 0.0
C398 C 0.1691 0.70463 0.48662 0.0
C399 C 0.23539 0.70469 0.48665 0.0
C400 C 0.36053 0.73118 0.49417 0.0
C401 C 0.55039 0.71791 0.49193 0.0
C402 C 0.47591 0.7179 0.49192 0.0
C403 C 0.26072 0.7178 0.4919 0.0
C404 C 0.33516 0.71785 0.4919 0.0
H405 H 0.69791 0.69355 0.4933 0.0
H406 H 0.58676 0.69349 0.49326 0.0
H407 H 0.43942 0.74206 0.49599 0.0
H408 H 0.11313 0.74131 0.50153 0.0
H409 H 0.2242 0.7415 0.50145 0.0
C410 C 0.91425 0.42891 0.51169 0.0
C411 C 0.963 0.41601 0.50569 0.0
C412 C 0.84797 0.4288 0.51149 0.0
C413 C 0.72335 0.4023 0.50221 0.0
H414 H 0.60097 0.43953 0.50994 0.0
C415 C 0.44183 0.40179 0.50432 0.0
C416 C 0.39304 0.4152 0.50398 0.0
C417 C 0.50817 0.40184 0.50448 0.0
C418 C 0.63291 0.42874 0.50765 0.0
H419 H 0.97058 0.39248 0.4948 0.0
H420 H 0.85964 0.39221 0.49459 0.0
H421 H 0.71144 0.43969 0.51025 0.0
H422 H 0.38564 0.43954 0.50371 0.0
H423 H 0.4966 0.4397 0.50407 0.0
H424 H 0.64478 0.39135 0.49963 0.0
C425 C 0.87195 0.40282 0.49956 0.0
C426 C 0.69918 0.42884 0.50793 0.0
C427 C 0.93818 0.40296 0.49961 0.0
C428 C 0.41797 0.42867 0.50392 0.0
C429 C 0.48425 0.42873 0.5042 0.0
C430 C 0.65706 0.40219 0.50205 0.0
C431 C 0.82282 0.41575 0.50541 0.0
C432 C 0.74843 0.41562 0.50519 0.0
C433 C 0.53339 0.41532 0.50446 0.0
C434 C 0.60781 0.41542 0.50472 0.0
H435 H 0.92724 0.43946 0.51662 0.0
H436 H 0.81609 0.43932 0.5164 0.0
H437 H 0.75532 0.3915 0.50004 0.0
H438 H 0.4288 0.39088 0.50444 0.0
H439 H 0.54004 0.39092 0.50477 0.0
C440 C 0.09102 0.88655 0.04423 0.0
C441 C 1.03368 0.88604 0.03012 0.0
C442 C 0.14272 0.87494 0.03962 0.0
C443 C 0.20011 0.85149 0.97075 0.0
H444 H 0.34824 0.85069 0.02255 0.0
C445 C 0.44645 0.87059 0.9626 0.0
C446 C 0.4191 0.88398 0.94311 0.0
C447 C 0.41473 0.85873 0.96808 0.0
C448 C 0.30825 0.85018 0.0075 0.0
H449 H 0.9838 0.87191 0.00409 0.0
H450 H 0.07487 0.85173 -0.00469 0.0
H451 H 0.25091 0.85143 0.05235 0.0
H452 H 0.34314 0.89452 0.90947 0.0
H453 H 0.28737 0.87433 0.91925 0.0
H454 H 0.25696 0.85097 0.92575 0.0
C455 C 0.07989 0.86123 0.00957 0.0
C456 C 0.25192 0.85078 0.02479 0.0
C457 C 1.02787 0.87287 0.01436 0.0
C458 C 0.36442 0.88442 0.92521 0.0
C459 C 0.33281 0.87264 0.93063 0.0
C460 C 0.25677 0.85051 0.95352 0.0
C461 C 0.13859 0.86252 0.02061 0.0
C462 C 0.19643 0.8534 0.00618 0.0
C463 C 0.35506 0.86021 0.95438 0.0
C464 C 0.30963 0.85193 0.9714 0.0
H465 H 0.09749 0.8965 0.05636 0.0
H466 H 0.18704 0.87653 0.0482 0.0
H467 H 0.1586 0.85295 0.95551 0.0
H468 H 0.48917 0.86991 0.97635 0.0
H469 H 0.43416 0.84914 0.98571 0.0
C470 C 1.00386 0.24348 0.06348 0.0
C471 C 0.06116 0.24557 0.05014 0.0
C472 C 0.95146 0.25523 0.06007 0.0
C473 C 0.89535 0.2842 -0.0064 0.0
H474 H 0.74504 0.27975 0.04211 0.0
C475 C 0.6489 0.2662 0.97666 0.0
C476 C 0.67671 0.25469 0.95548 0.0
C477 C 0.68126 0.27715 0.9852 0.0
C478 C 0.78564 0.28176 0.02808 0.0
H479 H 0.11025 0.26233 0.02736 0.0
H480 H 1.01804 0.28281 0.02066 0.0
H481 H 0.84018 0.27691 0.07366 0.0
H482 H 0.7549 0.24698 0.92227 0.0
H483 H 0.81186 0.26555 0.93749 0.0
H484 H 0.84141 0.28831 0.94778 0.0
C485 C 1.01355 0.272 0.0333 0.0
C486 C 0.84068 0.27995 0.04634 0.0
C487 C 0.06625 0.26022 0.03692 0.0
C488 C 0.7332 0.25553 0.93932 0.0
C489 C 0.76548 0.26641 0.94782 0.0
C490 C 0.83998 0.28636 0.97543 0.0
C491 C 0.95492 0.26936 0.04304 0.0
C492 C 0.89715 0.2793 0.02867 0.0
C493 C 0.742 0.27664 0.97288 0.0
C494 C 0.78643 0.28324 -0.00803 0.0
H495 H 0.99797 0.23239 0.07373 0.0
H496 H 0.90726 0.25261 0.06766 0.0
H497 H 0.93763 0.28428 0.97911 0.0
H498 H 0.60486 0.26591 -0.01085 0.0
H499 H 0.66107 0.28509 0.00387 0.0
C500 C 0.14392 0.23069 0.49212 0.0
C501 C 0.19264 0.21728 0.49226 0.0
C502 C 0.07757 0.23065 0.49209 0.0
C503 C 0.95272 0.20377 0.48923 0.0
H504 H 0.83049 0.24105 0.49671 0.0
C505 C 0.67141 0.20363 0.48583 0.0
C506 C 0.6227 0.21656 0.49165 0.0
C507 C 0.73769 0.20373 0.48593 0.0
C508 C 0.8624 0.23025 0.49459 0.0
H509 H 0.20003 0.19295 0.4924 0.0
H510 H 0.08899 0.19281 0.49225 0.0
H511 H 0.94104 0.24119 0.49691 0.0
H512 H 0.61517 0.24014 0.50207 0.0
H513 H 0.72614 0.2404 0.5021 0.0
H514 H 0.87412 0.19283 0.4869 0.0
C515 C 0.10139 0.20377 0.49216 0.0
C516 C 0.92871 0.23034 0.49461 0.0
C517 C 0.16769 0.20382 0.4923 0.0
C518 C 0.64754 0.22964 0.49743 0.0
C519 C 0.71378 0.22977 0.49738 0.0
C520 C 0.88643 0.20369 0.48908 0.0
C521 C 0.05231 0.21718 0.49207 0.0
C522 C 0.97788 0.2171 0.49197 0.0
C523 C 0.76287 0.21681 0.4917 0.0
C524 C 0.83726 0.21692 0.49179 0.0
H525 H 0.15699 0.2416 0.49207 0.0
H526 H 0.04574 0.24158 0.49194 0.0
H527 H 0.9846 0.19298 0.48698 0.0
H528 H 0.65839 0.19306 0.48113 0.0
H529 H 0.76952 0.19318 0.48118 0.0
C530 C 0.91917 0.92875 0.50272 0.0
C531 C 0.89417 0.91527 0.50384 0.0
C532 C 0.98548 0.92879 0.50297 0.0
C533 C 0.15809 0.90209 0.50278 0.0
H534 H 0.21278 0.93973 0.50815 0.0
C535 C 0.43935 0.90269 0.50027 0.0
C536 C 0.46416 0.91584 0.5053 0.0
C537 C 0.3731 0.90257 0.50024 0.0
C538 C 0.20044 0.92884 0.50665 0.0
H539 H 0.92974 0.89091 0.50613 0.0
H540 H 1.04098 0.89091 0.50644 0.0
H541 H 0.10227 0.93962 0.5079 0.0
H542 H 0.42843 0.93951 0.51435 0.0
H543 H 0.31728 0.93941 0.51418 0.0
H544 H 0.25631 0.89131 0.50153 0.0
C545 C 1.0092 0.90186 0.50532 0.0
C546 C 0.13414 0.92878 0.5064 0.0
C547 C 0.94285 0.90182 0.50518 0.0
C548 C 0.41542 0.92887 0.51028 0.0
C549 C 0.34914 0.92879 0.5101 0.0
C550 C 0.22441 0.90216 0.5029 0.0
C551 C 1.03451 0.91534 0.50426 0.0
C552 C 0.10894 0.9154 0.50448 0.0
C553 C 0.32398 0.91563 0.50507 0.0
C554 C 0.24959 0.91554 0.50488 0.0
H555 H 0.88687 0.93965 0.50165 0.0
H556 H 0.99794 0.93977 0.50198 0.0
H557 H 0.14573 0.8912 0.50116 0.0
H558 H 0.47175 0.89211 0.49627 0.0
H559 H 0.36076 0.89187 0.49612 0.0
C560 C 1.03483 0.63028 -0.00766 0.0
C561 C 0.97368 0.63906 -0.00147 0.0
C562 C 0.05095 0.61365 -0.00756 0.0
C563 C 0.98205 0.57537 0.00159 0.0
H564 H 0.15296 0.55443 -0.00685 0.0
C565 C 0.05101 0.50485 -0.00183 0.0
C566 C 0.11333 0.49594 -0.00156 0.0
C567 C 1.03467 0.52148 -0.00173 0.0
C568 C 0.10433 0.55962 -0.00437 0.0
H569 H 0.88249 0.63462 0.00978 0.0
H570 H 0.90921 0.60671 0.00986 0.0
H571 H 0.12583 0.58215 -0.00675 0.0
H572 H 0.20627 0.50013 -0.00104 0.0
H573 H 0.17918 0.528 -0.001 0.0
H574 H 0.96058 0.55282 0.00396 0.0
C575 C 0.94637 0.61267 0.00475 0.0
C576 C 0.08803 0.57625 -0.00441 0.0
C577 C 0.93033 0.62932 0.00477 0.0
C578 C 0.15753 0.50554 -0.00127 0.0
C579 C 0.14124 0.52218 -0.0013 0.0
C580 C 0.99834 0.55873 0.0015 0.0
C581 C 1.0077 0.60383 -0.00139 0.0
C582 C 1.02591 0.58515 -0.0014 0.0
C583 C 0.0788 0.53116 -0.00149 0.0
C584 C 0.06048 0.54984 -0.00145 0.0
H585 H 0.07171 0.63636 -0.01276 0.0
H586 H 0.09884 0.60852 -0.01267 0.0
H587 H 0.93342 0.58056 0.00396 0.0
H588 H 1.01341 0.49888 -0.00209 0.0
H589 H 0.98586 0.52675 -0.00201 0.0
C590 C 0.29756 0.51086 0.49499 0.0
C591 C 0.28131 0.5066 0.52874 0.0
C592 C 0.28614 0.52618 0.48338 0.0
C593 C 0.2105 0.56504 0.50807 0.0
H594 H 0.09508 0.56201 0.43661 0.0
C595 C 0.98067 0.60701 0.4949 0.0
C596 C 0.96389 0.614 0.46205 0.0
C597 C 1.02834 0.59417 0.49882 0.0
C598 C 0.12762 0.56315 0.45609 0.0
H599 H 0.25603 0.51486 0.57878 0.0
H600 H 0.23441 0.54153 0.55847 0.0
H601 H 0.18089 0.54078 0.45072 0.0
H602 H 0.97832 0.61157 0.4075 0.0
H603 H 0.06252 0.58907 0.41454 0.0
H604 H 0.15492 0.58719 0.51444 0.0
C605 C 0.25464 0.53319 0.54062 0.0
C606 C 0.17733 0.55105 0.46402 0.0
C607 C 0.26673 0.51786 0.55232 0.0
C608 C 0.99106 0.60669 0.43316 0.0
C609 C 1.03929 0.59383 0.43716 0.0
C610 C 0.16076 0.57715 0.50011 0.0
C611 C 0.25821 0.53732 0.50535 0.0
C612 C 0.2179 0.55163 0.49101 0.0
C613 C 0.06047 0.58801 0.47011 0.0
C614 C 0.11747 0.57604 0.47502 0.0
H615 H 0.31024 0.5025 0.47617 0.0
H616 H 0.29147 0.52913 0.45628 0.0
H617 H 0.24125 0.56587 0.52873 0.0
H618 H 0.96133 0.61218 0.51792 0.0
H619 H 1.04224 0.58954 0.52453 0.0
C620 C 0.65895 1.00535 0.00167 0.0
C621 C 0.6151 0.99593 -0.0025 0.0
C622 C 0.6428 1.022 0.00177 0.0
C623 C 0.50017 1.05876 -0.00091 0.0
H624 H 0.62807 0.08205 -0.00314 0.0
C625 C 0.43169 0.12924 0.00458 0.0
C626 C 0.47502 0.13902 -0.0012 0.0
C627 C 0.44791 0.1126 0.00439 0.0
C628 C 0.59018 0.07618 -0.00254 0.0
H629 H 0.51605 0.99919 -0.00978 0.0
H630 H 0.48876 1.02703 -0.00939 0.0
H631 H 0.65537 1.05431 -0.00344 0.0
H632 H 0.57326 0.13638 -0.01179 0.0
H633 H 0.60072 0.10852 -0.01186 0.0
H634 H 0.43498 0.08063 7e-05 0.0
C635 C 0.53714 1.02163 -0.00611 0.0
C636 C 0.60657 1.05954 -0.00259 0.0
C637 C 0.55335 1.00501 -0.00642 0.0
C638 C 0.53638 0.13028 -0.00705 0.0
C639 C 0.5527 0.11364 -0.00703 0.0
C640 C 0.4838 0.07539 -0.00064 0.0
C641 C 0.58087 1.03114 -0.00205 0.0
C642 C 0.56255 1.04982 -0.00185 0.0
C643 C 0.50944 0.10379 -0.00137 0.0
C644 C 0.5278 0.08512 -0.00151 0.0
H645 H 0.70725 0.99981 0.00488 0.0
H646 H 0.68036 1.02771 0.00519 0.0
H647 H 0.46228 1.05288 -0.00016 0.0
H648 H 0.38371 0.13451 0.00929 0.0
H649 H 0.41075 0.10661 0.00915 0.0
C650 C 0.42792 0.11795 0.40735 0.0
C651 C 0.37172 0.12384 0.424 0.0
C652 C 0.45571 0.10259 0.41273 0.0
C653 C 0.46254 0.07816 0.48933 0.0
H654 H 0.59437 1.05181 0.44206 0.0
C655 C 0.61105 1.02227 0.54758 0.0
C656 C 0.67098 1.01733 0.53404 0.0
C657 C 0.57492 1.03631 0.53623 0.0
C658 C 0.55832 1.05926 0.45563 0.0
H659 H 0.29273 0.11774 0.45086 0.0
H660 H 0.34144 0.09084 0.46032 0.0
H661 H 0.51916 0.07104 0.40896 0.0
H662 H 0.74434 1.02456 0.50381 0.0
H663 H 0.68081 1.04918 0.48387 0.0
H664 H 0.5022 1.06661 0.536 0.0
C665 C 0.36532 0.0982 0.44457 0.0
C666 C 0.51473 0.07006 0.43664 0.0
C667 C 0.33731 0.11358 0.43899 0.0
C668 C 0.69761 1.02783 0.51376 0.0
C669 C 0.66115 1.04186 0.50213 0.0
C670 C 0.50609 1.06739 0.50829 0.0
C671 C 0.42723 0.093 0.43448 0.0
C672 C 0.46663 0.0797 0.45332 0.0
C673 C 0.59819 1.04567 0.51136 0.0
C674 C 0.55474 1.05793 0.49167 0.0
H675 H 0.45538 0.12542 0.39488 0.0
H676 H 0.50301 0.09886 0.40397 0.0
H677 H 0.42716 0.08573 0.50307 0.0
H678 H 0.58869 1.01462 0.56342 0.0
H679 H 0.52674 1.03901 0.54415 0.0
C680 C 0.27943 0.3796 0.00793 0.0
C681 C 0.21862 0.3885 0.00029 0.0
C682 C 0.29665 0.36304 0.00752 0.0
C683 C 0.23049 0.32532 -0.00248 0.0
H684 H 0.40261 0.30452 0.00153 0.0
C685 C 0.30296 0.25504 0.00259 0.0
C686 C 0.3649 0.24653 -0.00223 0.0
C687 C 0.28602 0.2716 0.00275 0.0
C688 C 0.35374 0.30971 0.00028 0.0
H689 H 0.12939 0.38463 0.986 0.0
H690 H 0.15794 0.35679 0.98553 0.0
H691 H 0.37398 0.33223 0.00195 0.0
H692 H 0.45661 0.2511 -0.01058 0.0
H693 H 0.42846 0.27896 -0.0102 0.0
H694 H 0.21022 0.30281 -0.00413 0.0
C695 C 0.19382 0.36254 -0.0079 0.0
C696 C 0.3366 0.32627 0.00072 0.0
C697 C 0.17675 0.37911 -0.00771 0.0
C698 C 0.40827 0.2563 -0.00676 0.0
C699 C 0.39141 0.27287 -0.00639 0.0
C700 C 0.2476 0.30875 -0.00267 0.0
C701 C 0.2548 0.35356 -0.00036 0.0
C702 C 0.27399 0.33503 -0.00071 0.0
C703 C 0.32928 0.28146 -0.00168 0.0
C704 C 0.31021 0.3 -0.00136 0.0
H705 H 0.31503 0.3855 0.01431 0.0
H706 H 0.34407 0.35767 0.01386 0.0
H707 H 0.1816 0.33049 -0.00351 0.0
H708 H 0.2662 0.24882 0.00633 0.0
H709 H 0.23763 0.27663 0.00676 0.0
C710 C 0.7833 0.87958 0.00356 0.0
C711 C 0.72164 0.88846 -0.00149 0.0
C712 C 0.80003 0.86304 0.00326 0.0
C713 C 0.73197 0.82532 -0.0025 0.0
H714 H 0.90417 0.80455 -0.00222 0.0
C715 C 0.80382 0.7551 0.00207 0.0
C716 C 0.86565 0.74656 -0.00291 0.0
C717 C 0.78706 0.77165 0.00209 0.0
C718 C 0.85526 0.80972 -0.00238 0.0
H719 H 0.63022 0.88461 -0.01107 0.0
H720 H 0.65804 0.85675 -0.01148 0.0
H721 H 0.87592 0.83223 -0.00209 0.0
H722 H 0.95737 0.75105 -0.01172 0.0
H723 H 0.92951 0.77891 -0.01165 0.0
H724 H 0.71131 0.80281 -0.00285 0.0
C725 C 0.695 0.86252 -0.00703 0.0
C726 C 0.83834 0.82628 -0.00214 0.0
C727 C 0.67832 0.8791 -0.00687 0.0
C728 C 0.90911 0.75628 -0.00776 0.0
C729 C 0.89241 0.77285 -0.0076 0.0
C730 C 0.74889 0.80875 -0.00257 0.0
C731 C 0.75685 0.85356 -0.002 0.0
C732 C 0.77572 0.83503 -0.00222 0.0
C733 C 0.83039 0.78148 -0.0027 0.0
C734 C 0.8115 0.80001 -0.00256 0.0
H735 H 0.81999 0.88549 0.00785 0.0
H736 H 0.84822 0.8577 0.00752 0.0
H737 H 0.68305 0.83048 -0.00245 0.0
H738 H 0.76703 0.7489 0.00604 0.0
H739 H 0.73873 0.7767 0.00624 0.0
C740 C 0.1301 0.7841 0.4846 0.0
C741 C 0.07105 0.79362 0.48756 0.0
C742 C 0.18368 0.78981 0.48737 0.0
C743 C 0.24082 0.82555 0.48146 0.0
H744 H 0.38056 0.80111 0.53242 0.0
C745 C 0.4535 0.8494 0.51391 0.0
C746 C 0.51244 0.83985 0.51079 0.0
C747 C 0.39979 0.84372 0.51147 0.0
C748 C 0.34224 0.80801 0.51778 0.0
H749 H 1.02217 0.81664 0.49557 0.0
H750 H 0.11587 0.82659 0.50087 0.0
H751 H 0.28647 0.79142 0.52726 0.0
H752 H 0.56099 0.81678 0.50291 0.0
H753 H 0.46706 0.80688 0.49816 0.0
H754 H 0.2966 0.84214 0.47195 0.0
C755 C 0.12062 0.81473 0.49602 0.0
C756 C 0.28826 0.80245 0.51482 0.0
C757 C 0.06692 0.80901 0.4933 0.0
C758 C 0.51632 0.82445 0.50528 0.0
C759 C 0.46249 0.81875 0.50288 0.0
C760 C 0.2948 0.8311 0.48442 0.0
C761 C 0.17966 0.80517 0.49323 0.0
C762 C 0.2369 0.81115 0.49659 0.0
C763 C 0.40356 0.82834 0.50579 0.0
C764 C 0.34619 0.8224 0.50262 0.0
H765 H 0.13505 0.77213 0.48075 0.0
H766 H 0.22833 0.78216 0.48473 0.0
H767 H 0.20251 0.83245 0.4668 0.0
H768 H 0.44873 0.86138 0.5176 0.0
H769 H 0.35523 0.85139 0.5142 0.0
C770 C 0.95529 0.34849 0.51198 0.0
C771 C 1.01423 0.33907 0.5079 0.0
C772 C 0.90175 0.34272 0.50993 0.0
C773 C 0.84324 0.31147 0.47569 0.0
H774 H 0.70651 0.32365 0.53861 0.0
C775 C 0.63112 0.2835 0.48393 0.0
C776 C 0.57232 0.29299 0.48798 0.0
C777 C 0.68488 0.28917 0.48609 0.0
C778 C 0.74396 0.32029 0.52058 0.0
H779 H 0.06311 0.31618 0.49871 0.0
H780 H 0.96938 0.30605 0.49528 0.0
H781 H 0.80108 0.33316 0.54358 0.0
H782 H 0.52394 0.31591 0.4972 0.0
H783 H 0.61801 0.32588 0.50081 0.0
H784 H 0.7861 0.2986 0.45268 0.0
C785 C 0.96469 0.31796 0.49968 0.0
C786 C 0.79822 0.32572 0.52346 0.0
C787 C 1.01836 0.32374 0.50171 0.0
C788 C 0.56856 0.3083 0.49422 0.0
C789 C 0.62244 0.31399 0.49637 0.0
C790 C 0.78898 0.30604 0.47281 0.0
C791 C 0.90574 0.3274 0.50371 0.0
C792 C 0.84848 0.32139 0.50102 0.0
C793 C 0.68123 0.30447 0.4924 0.0
C794 C 0.73868 0.31039 0.49521 0.0
H795 H 0.95037 0.36044 0.51599 0.0
H796 H 0.8571 0.35037 0.5125 0.0
H797 H 0.88068 0.30811 0.45765 0.0
H798 H 0.63575 0.27155 0.47986 0.0
H799 H 0.7294 0.28146 0.48355 0.0
C800 C 0.17952 0.44374 0.12069 0.0
C801 C 0.15934 0.43275 0.1027 0.0
C802 C 0.18357 0.44225 0.15684 0.0
C803 C 0.19056 0.41393 0.23317 0.0
H804 H 0.13207 0.4496 0.28381 0.0
C805 C 0.20663 0.41295 0.38365 0.0
C806 C 0.15574 0.42158 0.40071 0.0
C807 C 0.21042 0.4139 0.34743 0.0
C808 C 0.14845 0.43946 0.2702 0.0
H809 H 0.12909 0.41139 0.10897 0.0
H810 H 0.13654 0.40875 0.17135 0.0
H811 H 0.13344 0.45209 0.22122 0.0
H812 H 0.06837 0.43773 0.39251 0.0
H813 H 0.07495 0.43938 0.33018 0.0
H814 H 0.20482 0.40128 0.28223 0.0
C815 C 0.14944 0.41853 0.15779 0.0
C816 C 0.14989 0.44094 0.23409 0.0
C817 C 0.14479 0.4201 0.12184 0.0
C818 C 0.1085 0.43095 0.38049 0.0
C819 C 0.11251 0.432 0.34452 0.0
C820 C 0.18971 0.41248 0.26933 0.0
C821 C 0.16833 0.42964 0.17606 0.0
C822 C 0.17029 0.42818 0.21485 0.0
C823 C 0.16373 0.42363 0.32725 0.0
C824 C 0.16788 0.42519 0.28851 0.0
H825 H 0.19113 0.45363 0.10689 0.0
H826 H 0.19891 0.451 0.16974 0.0
H827 H 0.20727 0.40382 0.21952 0.0
H828 H 0.24396 0.40564 0.39828 0.0
H829 H 0.25075 0.40729 0.33528 0.0
C830 C 0.90299 0.70618 0.11136 0.0
C831 C 0.94623 0.69383 0.09909 0.0
C832 C 0.89958 0.7089 0.14654 0.0
C833 C 0.94334 0.69034 0.23462 0.0
H834 H 0.91716 0.73181 0.26101 0.0
C835 C 0.89938 0.70591 0.37782 0.0
C836 C 0.92632 0.71745 0.3893 0.0
C837 C 0.90169 0.7028 0.34285 0.0
C838 C 0.92481 0.72012 0.25429 0.0
H839 H 1.01912 0.67454 0.11498 0.0
H840 H 1.01284 0.67912 0.176 0.0
H841 H 0.92104 0.72687 0.20034 0.0
H842 H 0.97727 0.7347 0.37239 0.0
H843 H 0.98092 0.72944 0.31181 0.0
H844 H 0.94735 0.68361 0.28861 0.0
C845 C 0.9813 0.68676 0.15851 0.0
C846 C 0.92638 0.71728 0.21923 0.0
C847 C 0.98514 0.68414 0.12329 0.0
C848 C 0.95582 0.72575 0.36468 0.0
C849 C 0.95754 0.72277 0.3297 0.0
C850 C 0.94105 0.6932 0.26971 0.0
C851 C 0.9388 0.69927 0.17085 0.0
C852 C 0.93596 0.70233 0.20863 0.0
C853 C 0.93045 0.71125 0.31802 0.0
C854 C 0.93205 0.70815 0.28029 0.0
H855 H 0.87213 0.7139 0.09366 0.0
H856 H 0.86564 0.71853 0.15473 0.0
H857 H 0.95026 0.67867 0.22788 0.0
H858 H 0.8763 0.69925 0.39591 0.0
H859 H 0.87978 0.69393 0.33521 0.0
C860 C 0.8749 0.71338 0.87681 0.0
C861 C 0.89673 0.69927 0.89521 0.0
C862 C 0.88035 0.71503 0.84085 0.0
C863 C 0.88356 0.69516 0.76259 0.0
H864 H 0.96215 0.72619 0.71851 0.0
C865 C 0.86534 0.71426 0.61463 0.0
C866 C 0.92279 0.71326 0.59759 0.0
C867 C 0.86203 0.71269 0.65084 0.0
C868 C 0.93985 0.7175 0.73036 0.0
H869 H 0.94117 0.67574 0.88963 0.0
H870 H 0.9483 0.67846 0.82651 0.0
H871 H 0.95786 0.72289 0.78141 0.0
H872 H 1.02148 0.71019 0.60565 0.0
H873 H 1.01533 0.7083 0.66852 0.0
H874 H 0.86364 0.69013 0.7115 0.0
C875 C 0.92792 0.68834 0.8402 0.0
C876 C 0.93735 0.71561 0.76648 0.0
C877 C 0.92415 0.68679 0.87642 0.0
C878 C 0.97642 0.71113 0.61783 0.0
C879 C 0.97292 0.71001 0.65394 0.0
C880 C 0.88446 0.69735 0.72645 0.0
C881 C 0.90617 0.70252 0.82187 0.0
C882 C 0.90957 0.70434 0.7832 0.0
C883 C 0.91584 0.71051 0.67107 0.0
C884 C 0.91295 0.70849 0.70973 0.0
H885 H 0.85353 0.72325 0.89033 0.0
H886 H 0.86295 0.72609 0.82774 0.0
H887 H 0.86143 0.68645 0.77447 0.0
H888 H 0.82314 0.71571 0.59997 0.0
H889 H 0.81724 0.71318 0.66307 0.0
C890 C 0.19966 0.42428 0.61865 0.0
C891 C 0.16146 0.4151 0.60686 0.0
C892 C 0.19944 0.42742 0.6534 0.0
C893 C 0.10784 0.42743 0.73534 0.0
H894 H 0.26604 0.42643 0.77751 0.0
C895 C 0.22374 0.42396 0.87957 0.0
C896 C 0.18126 0.43509 0.89634 0.0
C897 C 0.21876 0.42223 0.84443 0.0
C898 C 0.22131 0.42673 0.76631 0.0
H899 H 0.0919 0.40231 0.62271 0.0
H900 H 0.0911 0.40783 0.68323 0.0
H901 H 0.26205 0.42202 0.71695 0.0
H902 H 0.09974 0.45313 0.88848 0.0
H903 H 0.08997 0.44992 0.82705 0.0
H904 H 0.06734 0.43204 0.78505 0.0
C905 C 0.12136 0.41265 0.66557 0.0
C906 C 0.21895 0.42433 0.73127 0.0
C907 C 0.12202 0.4094 0.6308 0.0
C908 C 0.13293 0.44436 0.87671 0.0
C909 C 0.12743 0.4425 0.84137 0.0
C910 C 0.11014 0.43001 0.77043 0.0
C911 C 0.16057 0.42159 0.67759 0.0
C912 C 0.16228 0.42453 0.71512 0.0
C913 C 0.17074 0.43147 0.82457 0.0
C914 C 0.16706 0.42954 0.78662 0.0
H915 H 0.23041 0.42895 0.60101 0.0
H916 H 0.22969 0.43452 0.66127 0.0
H917 H 0.06318 0.42783 0.72397 0.0
H918 H 0.26152 0.41653 0.89365 0.0
H919 H 0.2525 0.41345 0.83287 0.0
C920 C 0.61171 0.95082 0.1218 0.0
C921 C 0.64378 0.94002 0.10002 0.0
C922 C 0.61588 0.94827 0.15776 0.0
C923 C 0.70458 0.92201 0.22954 0.0
H924 H 0.56608 0.94176 0.2837 0.0
C925 C 0.71191 0.91775 0.38072 0.0
C926 C 0.65572 0.91981 0.39926 0.0
C927 C 0.71232 0.91957 0.34444 0.0
C928 C 0.60514 0.93586 0.26935 0.0
H929 H 0.70593 0.91795 0.09957 0.0
H930 H 0.71138 0.91314 0.16187 0.0
H931 H 0.56249 0.9457 0.22206 0.0
H932 H 0.55606 0.92471 0.39376 0.0
H933 H 0.55636 0.92694 0.33148 0.0
H934 H 0.74567 0.91154 0.27704 0.0
C935 C 0.68407 0.92388 0.15148 0.0
C936 C 0.60363 0.93843 0.23338 0.0
C937 C 0.68069 0.92658 0.11542 0.0
C938 C 0.60027 0.92312 0.38044 0.0
C939 C 0.60059 0.92463 0.34437 0.0
C940 C 0.70568 0.91925 0.26562 0.0
C941 C 0.65141 0.93463 0.17356 0.0
C942 C 0.65339 0.93165 0.21252 0.0
C943 C 0.6565 0.92329 0.32542 0.0
C944 C 0.65592 0.92611 0.28642 0.0
H945 H 0.58325 0.96137 0.111 0.0
H946 H 0.59121 0.95716 0.17307 0.0
H947 H 0.74459 0.91664 0.21512 0.0
H948 H 0.75559 0.91538 0.39427 0.0
H949 H 0.75665 0.91854 0.33151 0.0
C950 C 0.40465 0.2062 0.11146 0.0
C951 C 0.4481 0.1939 0.09916 0.0
C952 C 0.40125 0.20891 0.14664 0.0
C953 C 0.44476 0.19038 0.23463 0.0
H954 H 0.41942 0.23184 0.26104 0.0
C955 C 0.3994 0.20611 0.37759 0.0
C956 C 0.42714 0.21749 0.38925 0.0
C957 C 0.402 0.203 0.34265 0.0
C958 C 0.42682 0.22016 0.2543 0.0
H959 H 0.52133 0.17467 0.11496 0.0
H960 H 0.51498 0.17923 0.17603 0.0
H961 H 0.42344 0.22689 0.20034 0.0
H962 H 0.47963 0.23446 0.37267 0.0
H963 H 0.48361 0.22921 0.31204 0.0
H964 H 0.44822 0.18366 0.28863 0.0
C965 C 0.48334 0.18685 0.15854 0.0
C966 C 0.42849 0.21731 0.21924 0.0
C967 C 0.48721 0.18424 0.12332 0.0
C968 C 0.45759 0.22564 0.3648 0.0
C969 C 0.45953 0.22266 0.32982 0.0
C970 C 0.4423 0.19324 0.26972 0.0
C971 C 0.44065 0.19931 0.1709 0.0
C972 C 0.43777 0.20236 0.20866 0.0
C973 C 0.43175 0.21129 0.31799 0.0
C974 C 0.4336 0.20819 0.28028 0.0
H975 H 0.37363 0.21389 0.09379 0.0
H976 H 0.36718 0.21852 0.15486 0.0
H977 H 0.45147 0.17872 0.22788 0.0
H978 H 0.37545 0.1996 0.39554 0.0
H979 H 0.37953 0.19424 0.33487 0.0
C980 C 0.44279 0.19025 0.87873 0.0
C981 C 0.39223 0.19895 0.8959 0.0
C982 C 0.44812 0.1918 0.84257 0.0
C983 C 0.35422 0.20634 0.76275 0.0
H984 H 0.51442 0.20445 0.71912 0.0
C985 C 0.37681 0.21914 0.61405 0.0
C986 C 0.42866 0.21089 0.59704 0.0
C987 C 0.37275 0.21817 0.65029 0.0
C988 C 0.46914 0.20482 0.73059 0.0
H989 H 0.30805 0.21624 0.88791 0.0
H990 H 0.31718 0.21892 0.82571 0.0
H991 H 0.50732 0.20126 0.78141 0.0
H992 H 0.51724 0.19529 0.60549 0.0
H993 H 0.50998 0.19341 0.66768 0.0
H994 H 0.31598 0.20973 0.71205 0.0
C995 C 0.35257 0.21073 0.83983 0.0
C996 C 0.46511 0.20298 0.76668 0.0
C997 C 0.3475 0.20924 0.8758 0.0
C998 C 0.47657 0.20188 0.61744 0.0
C999 C 0.47252 0.20087 0.65348 0.0
C1000 C 0.35825 0.2081 0.72667 0.0
C1001 C 0.40284 0.20203 0.82238 0.0
C1002 C 0.40756 0.20373 0.78353 0.0
C1003 C 0.42041 0.20891 0.67079 0.0
C1004 C 0.41581 0.20738 0.70975 0.0
H1005 H 0.47822 0.18222 0.89323 0.0
H1006 H 0.48738 0.18478 0.8304 0.0
H1007 H 0.30897 0.20677 0.77434 0.0
H1008 H 0.33894 0.2262 0.59936 0.0
H1009 H 0.33213 0.22478 0.6622 0.0
C1010 C 0.69183 0.9273 0.61799 0.0
C1011 C 0.66249 0.91607 0.60704 0.0
C1012 C 0.69171 0.93036 0.65291 0.0
C1013 C 0.67174 0.91283 0.74143 0.0
H1014 H 0.65979 0.95368 0.76952 0.0
C1015 C 0.72747 0.92385 0.88091 0.0
C1016 C 0.69147 0.93633 0.89681 0.0
C1017 C 0.72042 0.92185 0.84602 0.0
C1018 C 0.66275 0.94219 0.76228 0.0
H1019 H 0.60917 0.89943 0.62477 0.0
H1020 H 0.60912 0.90465 0.68526 0.0
H1021 H 0.65402 0.94948 0.70858 0.0
H1022 H 0.61919 0.95656 0.88771 0.0
H1023 H 0.60709 0.95319 0.82641 0.0
H1024 H 0.68059 0.9055 0.79492 0.0
C1025 C 0.63283 0.91107 0.667 0.0
C1026 C 0.66011 0.93974 0.72709 0.0
C1027 C 0.63249 0.90812 0.63209 0.0
C1028 C 0.64783 0.94682 0.87646 0.0
C1029 C 0.64117 0.9449 0.84118 0.0
C1030 C 0.675 0.91526 0.77647 0.0
C1031 C 0.66271 0.9222 0.67819 0.0
C1032 C 0.66467 0.92499 0.71595 0.0
C1033 C 0.6773 0.93232 0.82534 0.0
C1034 C 0.6709 0.92997 0.78765 0.0
H1035 H 0.71534 0.9337 0.59953 0.0
H1036 H 0.71573 0.93892 0.66017 0.0
H1037 H 0.67604 0.90128 0.73429 0.0
H1038 H 0.76159 0.9155 0.89555 0.0
H1039 H 0.74985 0.91215 0.83509 0.0
loop_
_geom_bond_atom_site_label_1
_geom_bond_atom_site_label_2
_geom_bond_distance
_geom_bond_site_symmetry_2
_ccdc_geom_bond_type
C0 Eu1 2.835 1_655 S
C0 C2 1.500 . S
C0 O20 1.257 1_554 S
C0 O21 1.260 . S
Eu1 C0 2.835 1_455 S
Eu1 O20 2.473 1_454 S
Eu1 O21 2.480 1_455 S
Eu1 O22 2.430 . S
Eu1 O23 2.670 . S
Eu1 O24 2.393 . S
Eu1 O29 2.355 1_554 S
Eu1 O31 2.374 . S
C2 C0 1.500 . S
C2 C3 1.377 . S
C2 C7 1.377 1_554 S
C3 C2 1.377 . S
C3 C4 1.395 . S
C3 H32 0.931 . S
C4 C3 1.395 . S
C4 C5 1.383 1_554 S
C4 H33 0.931 . S
C5 C4 1.383 1_556 S
C5 C6 1.394 . S
C6 C5 1.394 . S
C6 C7 1.378 . S
C6 H34 0.931 . S
C7 C2 1.377 1_556 S
C7 C6 1.378 . S
C7 H35 0.931 . S
C8 O22 1.259 . S
C8 O23 1.270 . S
C9 O24 1.258 . S
C9 O25 1.251 . S
C10 Eu11 2.835 1_554 S
C10 C12 1.500 . S
C10 O26 1.257 . S
C10 O27 1.260 1_554 S
Eu11 C10 2.835 1_556 S
Eu11 O23 2.355 1_556 S
Eu11 O25 2.374 1_556 S
Eu11 O26 2.473 1_556 S
Eu11 O27 2.480 . S
Eu11 O28 2.430 . S
Eu11 O29 2.670 . S
Eu11 O30 2.394 . S
C12 C10 1.500 . S
C12 C13 1.377 1_554 S
C12 C17 1.377 . S
C13 C12 1.377 1_556 S
C13 C14 1.395 . S
C13 H36 0.931 . S
C14 C13 1.395 . S
C14 C15 1.383 1_556 S
C14 H37 0.931 . S
C15 C14 1.383 1_554 S
C15 C16 1.394 . S
C16 C15 1.394 . S
C16 C17 1.378 . S
C16 H38 0.931 . S
C17 C12 1.377 . S
C17 C16 1.378 . S
C17 H39 0.931 . S
C18 O28 1.259 . S
C18 O29 1.270 . S
C19 O30 1.251 1_554 S
C19 O31 1.251 . S
O20 C0 1.257 1_556 S
O20 Eu1 2.473 1_656 S
O21 C0 1.260 . S
O21 Eu1 2.480 1_655 S
O22 Eu1 2.430 . S
O22 C8 1.259 . S
O23 Eu1 2.670 . S
O23 C8 1.270 . S
O23 Eu11 2.355 1_554 S
O24 Eu1 2.393 . S
O24 C9 1.258 . S
O25 C9 1.251 . S
O25 Eu11 2.374 1_554 S
O26 C10 1.257 . S
O26 Eu11 2.473 1_554 S
O27 C10 1.260 1_556 S
O27 Eu11 2.480 . S
O28 Eu11 2.430 . S
O28 C18 1.259 . S
O29 Eu1 2.355 1_556 S
O29 Eu11 2.670 . S
O29 C18 1.270 . S
O30 Eu11 2.394 . S
O30 C19 1.251 1_556 S
O31 Eu1 2.374 . S
O31 C19 1.251 . S
H32 C3 0.931 . S
H33 C4 0.931 . S
H34 C6 0.931 . S
H35 C7 0.931 . S
H36 C13 0.931 . S
H37 C14 0.931 . S
H38 C16 0.931 . S
H39 C17 0.931 . S
C40 Eu41 2.835 1_455 S
C40 C42 1.500 1_554 S
C40 O60 1.257 1_554 S
C40 O61 1.260 . S
Eu41 C40 2.835 1_655 S
Eu41 O60 2.473 1_654 S
Eu41 O61 2.480 1_655 S
Eu41 O62 2.430 . S
Eu41 O63 2.670 . S
Eu41 O64 2.394 . S
Eu41 O69 2.355 1_554 S
Eu41 O71 2.374 . S
C42 C40 1.500 1_556 S
C42 C43 1.377 1_556 S
C42 C47 1.377 . S
C43 C42 1.377 1_554 S
C43 C44 1.395 . S
C43 H72 0.931 . S
C44 C43 1.395 . S
C44 C45 1.383 1_554 S
C44 H73 0.931 . S
C45 C44 1.383 1_556 S
C45 C46 1.394 . S
C46 C45 1.394 . S
C46 C47 1.378 . S
C46 H74 0.931 . S
C47 C42 1.377 . S
C47 C46 1.378 . S
C47 H75 0.931 . S
C48 O62 1.259 . S
C48 O63 1.270 . S
C49 O64 1.254 . S
C49 O65 1.251 . S
C50 Eu51 2.833 1_554 S
C50 C52 1.500 . S
C50 O66 1.257 . S
C50 O67 1.260 1_554 S
Eu51 C50 2.833 1_556 S
Eu51 O63 2.347 1_556 S
Eu51 O65 2.373 1_556 S
Eu51 O66 2.466 1_556 S
Eu51 O67 2.483 . S
Eu51 O68 2.441 . S
Eu51 O69 2.675 . S
Eu51 O70 2.396 . S
C52 C50 1.500 . S
C52 C53 1.377 1_554 S
C52 C57 1.377 . S
C53 C52 1.377 1_556 S
C53 C54 1.395 . S
C53 H76 0.931 . S
C54 C53 1.395 . S
C54 C55 1.383 1_556 S
C54 H77 0.931 . S
C55 C54 1.383 1_554 S
C55 C56 1.394 . S
C56 C55 1.394 . S
C56 C57 1.378 . S
C56 H78 0.931 . S
C57 C52 1.377 . S
C57 C56 1.378 . S
C57 H79 0.931 . S
C58 O68 1.259 . S
C58 O69 1.270 . S
C59 O70 1.251 . S
C59 O71 1.251 1_556 S
O60 C40 1.257 1_556 S
O60 Eu41 2.473 1_456 S
O61 C40 1.260 . S
O61 Eu41 2.480 1_455 S
O62 Eu41 2.430 . S
O62 C48 1.259 . S
O63 Eu41 2.670 . S
O63 C48 1.270 . S
O63 Eu51 2.347 1_554 S
O64 Eu41 2.394 . S
O64 C49 1.254 . S
O65 C49 1.251 . S
O65 Eu51 2.373 1_554 S
O66 C50 1.257 . S
O66 Eu51 2.466 1_554 S
O67 C50 1.260 1_556 S
O67 Eu51 2.483 . S
O68 Eu51 2.441 . S
O68 C58 1.259 . S
O69 Eu41 2.355 1_556 S
O69 Eu51 2.675 . S
O69 C58 1.270 . S
O70 Eu51 2.396 . S
O70 C59 1.251 . S
O71 Eu41 2.374 . S
O71 C59 1.251 1_554 S
H72 C43 0.931 . S
H73 C44 0.931 . S
H74 C46 0.931 . S
H75 C47 0.931 . S
H76 C53 0.931 . S
H77 C54 0.931 . S
H78 C56 0.931 . S
H79 C57 0.931 . S
C80 Eu81 2.835 . S
C80 C82 1.500 1_455 S
C80 O100 1.257 . S
C80 O101 1.260 . S
Eu81 C80 2.835 . S
Eu81 O100 2.473 . S
Eu81 O101 2.480 . S
Eu81 O102 2.430 . S
Eu81 O103 2.670 . S
Eu81 O104 2.394 1_455 S
Eu81 O109 2.355 . S
Eu81 O111 2.374 . S
C82 C80 1.500 1_655 S
C82 C83 1.377 . S
C82 C87 1.377 . S
C83 C82 1.377 . S
C83 C84 1.395 . S
C83 H112 0.931 . S
C84 C83 1.395 . S
C84 C85 1.383 . S
C84 H113 0.931 . S
C85 C84 1.383 . S
C85 C86 1.394 . S
C86 C85 1.394 . S
C86 C87 1.378 . S
C86 H114 0.931 . S
C87 C82 1.377 . S
C87 C86 1.378 . S
C87 H115 0.931 . S
C88 O102 1.259 . S
C88 O103 1.270 . S
C89 O104 1.251 . S
C89 O105 1.251 . S
C90 Eu91 2.835 . S
C90 C92 1.500 . S
C90 O106 1.257 . S
C90 O107 1.260 . S
Eu91 C90 2.835 . S
Eu91 O103 2.355 . S
Eu91 O105 2.374 1_455 S
Eu91 O106 2.473 . S
Eu91 O107 2.480 . S
Eu91 O108 2.430 . S
Eu91 O109 2.670 . S
Eu91 O110 2.394 . S
C92 C90 1.500 . S
C92 C93 1.377 . S
C92 C97 1.377 . S
C93 C92 1.377 . S
C93 C94 1.395 . S
C93 H116 0.931 . S
C94 C93 1.395 . S
C94 C95 1.383 . S
C94 H117 0.931 . S
C95 C94 1.383 . S
C95 C96 1.394 . S
C96 C95 1.394 . S
C96 C97 1.378 . S
C96 H118 0.931 . S
C97 C92 1.377 . S
C97 C96 1.378 . S
C97 H119 0.931 . S
C98 O108 1.259 . S
C98 O109 1.270 . S
C99 O110 1.251 . S
C99 O111 1.251 . S
O100 C80 1.257 . S
O100 Eu81 2.473 . S
O101 C80 1.260 . S
O101 Eu81 2.480 . S
O102 Eu81 2.430 . S
O102 C88 1.259 . S
O103 Eu81 2.670 . S
O103 C88 1.270 . S
O103 Eu91 2.355 . S
O104 Eu81 2.394 1_655 S
O104 C89 1.251 . S
O105 C89 1.251 . S
O105 Eu91 2.374 1_655 S
O106 C90 1.257 . S
O106 Eu91 2.473 . S
O107 C90 1.260 . S
O107 Eu91 2.480 . S
O108 Eu91 2.430 . S
O108 C98 1.259 . S
O109 Eu81 2.355 . S
O109 Eu91 2.670 . S
O109 C98 1.270 . S
O110 Eu91 2.394 . S
O110 C99 1.251 . S
O111 Eu81 2.374 . S
O111 C99 1.251 . S
H112 C83 0.931 . S
H113 C84 0.931 . S
H114 C86 0.931 . S
H115 C87 0.931 . S
H116 C93 0.931 . S
H117 C94 0.931 . S
H118 C96 0.931 . S
H119 C97 0.931 . S
C120 Eu121 2.835 . S
C120 C122 1.500 . S
C120 O140 1.257 . S
C120 O141 1.260 . S
Eu121 C120 2.835 . S
Eu121 O140 2.473 . S
Eu121 O141 2.480 . S
Eu121 O142 2.430 . S
Eu121 O143 2.670 . S
Eu121 O144 2.394 . S
Eu121 O149 2.355 . S
Eu121 O151 2.374 1_655 S
C122 C120 1.500 . S
C122 C123 1.377 . S
C122 C127 1.377 . S
C123 C122 1.377 . S
C123 C124 1.395 . S
C123 H152 0.931 . S
C124 C123 1.395 . S
C124 C125 1.383 . S
C124 H153 0.931 . S
C125 C124 1.383 . S
C125 C126 1.394 . S
C126 C125 1.394 . S
C126 C127 1.378 . S
C126 H154 0.931 . S
C127 C122 1.377 . S
C127 C126 1.378 . S
C127 H155 0.931 . S
C128 O142 1.259 . S
C128 O143 1.270 . S
C129 O144 1.251 . S
C129 O145 1.251 . S
C130 Eu131 2.835 . S
C130 C132 1.500 1_655 S
C130 O146 1.257 . S
C130 O147 1.260 . S
Eu131 C130 2.835 . S
Eu131 O143 2.355 . S
Eu131 O145 2.374 . S
Eu131 O146 2.473 . S
Eu131 O147 2.480 . S
Eu131 O148 2.430 . S
Eu131 O149 2.670 . S
Eu131 O150 2.394 1_655 S
C132 C130 1.500 1_455 S
C132 C133 1.377 . S
C132 C137 1.377 . S
C133 C132 1.377 . S
C133 C134 1.395 . S
C133 H156 0.931 . S
C134 C133 1.395 . S
C134 C135 1.383 . S
C134 H157 0.931 . S
C135 C134 1.383 . S
C135 C136 1.394 . S
C136 C135 1.394 . S
C136 C137 1.378 . S
C136 H158 0.931 . S
C137 C132 1.377 . S
C137 C136 1.378 . S
C137 H159 0.931 . S
C138 O148 1.259 . S
C138 O149 1.270 . S
C139 O150 1.251 . S
C139 O151 1.251 . S
O140 C120 1.257 . S
O140 Eu121 2.473 . S
O141 C120 1.260 . S
O141 Eu121 2.480 . S
O142 Eu121 2.430 . S
O142 C128 1.259 . S
O143 Eu121 2.670 . S
O143 C128 1.270 . S
O143 Eu131 2.355 . S
O144 Eu121 2.394 . S
O144 C129 1.251 . S
O145 C129 1.251 . S
O145 Eu131 2.374 . S
O146 C130 1.257 . S
O146 Eu131 2.473 . S
O147 C130 1.260 . S
O147 Eu131 2.480 . S
O148 Eu131 2.430 . S
O148 C138 1.259 . S
O149 Eu121 2.355 . S
O149 Eu131 2.670 . S
O149 C138 1.270 . S
O150 Eu131 2.394 1_455 S
O150 C139 1.251 . S
O151 Eu121 2.374 1_455 S
O151 C139 1.251 . S
H152 C123 0.931 . S
H153 C124 0.931 . S
H154 C126 0.931 . S
H155 C127 0.931 . S
H156 C133 0.931 . S
H157 C134 0.931 . S
H158 C136 0.931 . S
H159 C137 0.931 . S
C160 Eu161 2.835 . S
C160 C162 1.500 . S
C160 O180 1.257 1_554 S
C160 O181 1.260 . S
Eu161 C160 2.835 . S
Eu161 O180 2.473 1_554 S
Eu161 O181 2.480 . S
Eu161 O182 2.430 . S
Eu161 O183 2.670 . S
Eu161 O184 2.394 . S
Eu161 O189 2.355 1_554 S
Eu161 O191 2.374 . S
C162 C160 1.500 . S
C162 C163 1.377 . S
C162 C167 1.377 1_554 S
C163 C162 1.377 . S
C163 C164 1.395 . S
C163 H192 0.931 . S
C164 C163 1.395 . S
C164 C165 1.383 1_554 S
C164 H193 0.931 . S
C165 C164 1.383 1_556 S
C165 C166 1.394 . S
C166 C165 1.394 . S
C166 C167 1.378 . S
C166 H194 0.931 . S
C167 C162 1.377 1_556 S
C167 C166 1.378 . S
C167 H195 0.931 . S
C168 O182 1.259 . S
C168 O183 1.270 . S
C169 O184 1.251 . S
C169 O185 1.251 . S
C170 Eu171 2.835 1_554 S
C170 C172 1.500 . S
C170 O186 1.257 . S
C170 O187 1.260 1_554 S
Eu171 C170 2.835 1_556 S
Eu171 O183 2.355 1_556 S
Eu171 O185 2.374 1_556 S
Eu171 O186 2.473 1_556 S
Eu171 O187 2.480 . S
Eu171 O188 2.430 . S
Eu171 O189 2.670 . S
Eu171 O190 2.394 . S
C172 C170 1.500 . S
C172 C173 1.377 1_554 S
C172 C177 1.377 . S
C173 C172 1.377 1_556 S
C173 C174 1.395 . S
C173 H196 0.931 . S
C174 C173 1.395 . S
C174 C175 1.383 1_556 S
C174 H197 0.931 . S
C175 C174 1.383 1_554 S
C175 C176 1.394 . S
C176 C175 1.394 . S
C176 C177 1.378 . S
C176 H198 0.931 . S
C177 C172 1.377 . S
C177 C176 1.378 . S
C177 H199 0.931 . S
C178 O188 1.259 . S
C178 O189 1.270 . S
C179 O190 1.251 1_554 S
C179 O191 1.251 . S
O180 C160 1.257 1_556 S
O180 Eu161 2.473 1_556 S
O181 C160 1.260 . S
O181 Eu161 2.480 . S
O182 Eu161 2.430 . S
O182 C168 1.259 . S
O183 Eu161 2.670 . S
O183 C168 1.270 . S
O183 Eu171 2.355 1_554 S
O184 Eu161 2.394 . S
O184 C169 1.251 . S
O185 C169 1.251 . S
O185 Eu171 2.374 1_554 S
O186 C170 1.257 . S
O186 Eu171 2.473 1_554 S
O187 C170 1.260 1_556 S
O187 Eu171 2.480 . S
O188 Eu171 2.430 . S
O188 C178 1.259 . S
O189 Eu161 2.355 1_556 S
O189 Eu171 2.670 . S
O189 C178 1.270 . S
O190 Eu171 2.394 . S
O190 C179 1.251 1_556 S
O191 Eu161 2.374 . S
O191 C179 1.251 . S
H192 C163 0.931 . S
H193 C164 0.931 . S
H194 C166 0.931 . S
H195 C167 0.931 . S
H196 C173 0.931 . S
H197 C174 0.931 . S
H198 C176 0.931 . S
H199 C177 0.931 . S
C200 Eu201 2.835 . S
C200 C202 1.500 1_554 S
C200 O220 1.257 1_554 S
C200 O221 1.260 . S
Eu201 C200 2.835 . S
Eu201 O220 2.473 1_554 S
Eu201 O221 2.480 . S
Eu201 O222 2.430 . S
Eu201 O223 2.670 . S
Eu201 O224 2.394 . S
Eu201 O229 2.355 1_554 S
Eu201 O231 2.374 . S
C202 C200 1.500 1_556 S
C202 C203 1.377 1_556 S
C202 C207 1.377 . S
C203 C202 1.377 1_554 S
C203 C204 1.395 . S
C203 H232 0.931 . S
C204 C203 1.395 . S
C204 C205 1.383 1_554 S
C204 H233 0.931 . S
C205 C204 1.383 1_556 S
C205 C206 1.394 . S
C206 C205 1.394 . S
C206 C207 1.378 . S
C206 H234 0.931 . S
C207 C202 1.377 . S
C207 C206 1.378 . S
C207 H235 0.931 . S
C208 O222 1.259 . S
C208 O223 1.270 . S
C209 O224 1.251 . S
C209 O225 1.251 . S
C210 Eu211 2.833 1_554 S
C210 C212 1.500 . S
C210 O226 1.257 . S
C210 O227 1.260 1_554 S
Eu211 C210 2.833 1_556 S
Eu211 O223 2.347 1_556 S
Eu211 O225 2.373 1_556 S
Eu211 O226 2.466 1_556 S
Eu211 O227 2.483 . S
Eu211 O228 2.442 . S
Eu211 O229 2.675 . S
Eu211 O230 2.396 . S
C212 C210 1.500 . S
C212 C213 1.377 1_554 S
C212 C217 1.377 . S
C213 C212 1.377 1_556 S
C213 C214 1.395 . S
C213 H236 0.931 . S
C214 C213 1.395 . S
C214 C215 1.383 1_556 S
C214 H237 0.931 . S
C215 C214 1.383 1_554 S
C215 C216 1.394 . S
C216 C215 1.394 . S
C216 C217 1.378 . S
C216 H238 0.931 . S
C217 C212 1.377 . S
C217 C216 1.378 . S
C217 H239 0.931 . S
C218 O228 1.259 . S
C218 O229 1.270 . S
C219 O230 1.251 . S
C219 O231 1.251 1_556 S
O220 C200 1.257 1_556 S
O220 Eu201 2.473 1_556 S
O221 C200 1.260 . S
O221 Eu201 2.480 . S
O222 Eu201 2.430 . S
O222 C208 1.259 . S
O223 Eu201 2.670 . S
O223 C208 1.270 . S
O223 Eu211 2.347 1_554 S
O224 Eu201 2.394 . S
O224 C209 1.251 . S
O225 C209 1.251 . S
O225 Eu211 2.373 1_554 S
O226 C210 1.257 . S
O226 Eu211 2.466 1_554 S
O227 C210 1.260 1_556 S
O227 Eu211 2.483 . S
O228 Eu211 2.442 . S
O228 C218 1.259 . S
O229 Eu201 2.355 1_556 S
O229 Eu211 2.675 . S
O229 C218 1.270 . S
O230 Eu211 2.396 . S
O230 C219 1.251 . S
O231 Eu201 2.374 . S
O231 C219 1.251 1_554 S
H232 C203 0.931 . S
H233 C204 0.931 . S
H234 C206 0.931 . S
H235 C207 0.931 . S
H236 C213 0.931 . S
H237 C214 0.931 . S
H238 C216 0.931 . S
H239 C217 0.931 . S
C240 Eu241 2.835 . S
C240 C242 1.500 . S
C240 O260 1.257 . S
C240 O261 1.260 . S
Eu241 C240 2.835 . S
Eu241 O260 2.473 . S
Eu241 O261 2.480 . S
Eu241 O262 2.430 . S
Eu241 O263 2.670 . S
Eu241 O264 2.394 . S
Eu241 O269 2.355 . S
Eu241 O271 2.374 . S
C242 C240 1.500 . S
C242 C243 1.377 . S
C242 C247 1.377 . S
C243 C242 1.377 . S
C243 C244 1.395 . S
C243 H272 0.931 . S
C244 C243 1.395 . S
C244 C245 1.383 . S
C244 H273 0.931 . S
C245 C244 1.383 . S
C245 C246 1.394 . S
C246 C245 1.394 . S
C246 C247 1.378 . S
C246 H274 0.931 . S
C247 C242 1.377 . S
C247 C246 1.378 . S
C247 H275 0.931 . S
C248 O262 1.259 . S
C248 O263 1.270 . S
C249 O264 1.251 . S
C249 O265 1.251 . S
C250 Eu251 2.835 . S
C250 C252 1.500 . S
C250 O266 1.257 . S
C250 O267 1.260 . S
Eu251 C250 2.835 . S
Eu251 O263 2.355 . S
Eu251 O265 2.374 . S
Eu251 O266 2.473 . S
Eu251 O267 2.480 . S
Eu251 O268 2.430 . S
Eu251 O269 2.670 . S
Eu251 O270 2.394 . S
C252 C250 1.500 . S
C252 C253 1.377 . S
C252 C257 1.377 . S
C253 C252 1.377 . S
C253 C254 1.395 . S
C253 H276 0.931 . S
C254 C253 1.395 . S
C254 C255 1.383 . S
C254 H277 0.931 . S
C255 C254 1.383 . S
C255 C256 1.394 . S
C256 C255 1.394 . S
C256 C257 1.378 . S
C256 H278 0.931 . S
C257 C252 1.377 . S
C257 C256 1.378 . S
C257 H279 0.931 . S
C258 O268 1.259 . S
C258 O269 1.270 . S
C259 O270 1.251 . S
C259 O271 1.251 . S
O260 C240 1.257 . S
O260 Eu241 2.473 . S
O261 C240 1.260 . S
O261 Eu241 2.480 . S
O262 Eu241 2.430 . S
O262 C248 1.259 . S
O263 Eu241 2.670 . S
O263 C248 1.270 . S
O263 Eu251 2.355 . S
O264 Eu241 2.394 . S
O264 C249 1.251 . S
O265 C249 1.251 . S
O265 Eu251 2.374 . S
O266 C250 1.257 . S
O266 Eu251 2.473 . S
O267 C250 1.260 . S
O267 Eu251 2.480 . S
O268 Eu251 2.430 . S
O268 C258 1.259 . S
O269 Eu241 2.355 . S
O269 Eu251 2.670 . S
O269 C258 1.270 . S
O270 Eu251 2.394 . S
O270 C259 1.251 . S
O271 Eu241 2.374 . S
O271 C259 1.251 . S
H272 C243 0.931 . S
H273 C244 0.931 . S
H274 C246 0.931 . S
H275 C247 0.931 . S
H276 C253 0.931 . S
H277 C254 0.931 . S
H278 C256 0.931 . S
H279 C257 0.931 . S
C280 Eu281 2.835 . S
C280 C282 1.500 . S
C280 O300 1.257 . S
C280 O301 1.260 . S
Eu281 C280 2.835 . S
Eu281 O300 2.473 . S
Eu281 O301 2.480 . S
Eu281 O302 2.430 . S
Eu281 O303 2.670 . S
Eu281 O304 2.394 . S
Eu281 O309 2.355 . S
Eu281 O311 2.374 . S
C282 C280 1.500 . S
C282 C283 1.377 . S
C282 C287 1.377 . S
C283 C282 1.377 . S
C283 C284 1.395 . S
C283 H312 0.931 . S
C284 C283 1.395 . S
C284 C285 1.383 . S
C284 H313 0.931 . S
C285 C284 1.383 . S
C285 C286 1.394 . S
C286 C285 1.394 . S
C286 C287 1.378 . S
C286 H314 0.931 . S
C287 C282 1.377 . S
C287 C286 1.378 . S
C287 H315 0.931 . S
C288 O302 1.259 . S
C288 O303 1.270 . S
C289 O304 1.251 . S
C289 O305 1.251 . S
C290 Eu291 2.835 . S
C290 C292 1.500 . S
C290 O306 1.257 . S
C290 O307 1.260 . S
Eu291 C290 2.835 . S
Eu291 O303 2.355 . S
Eu291 O305 2.374 . S
Eu291 O306 2.473 . S
Eu291 O307 2.480 . S
Eu291 O308 2.430 . S
Eu291 O309 2.670 . S
Eu291 O310 2.394 . S
C292 C290 1.500 . S
C292 C293 1.377 . S
C292 C297 1.377 . S
C293 C292 1.377 . S
C293 C294 1.395 . S
C293 H316 0.931 . S
C294 C293 1.395 . S
C294 C295 1.383 . S
C294 H317 0.931 . S
C295 C294 1.383 . S
C295 C296 1.394 . S
C296 C295 1.394 . S
C296 C297 1.378 . S
C296 H318 0.931 . S
C297 C292 1.377 . S
C297 C296 1.378 . S
C297 H319 0.931 . S
C298 O308 1.259 . S
C298 O309 1.270 . S
C299 O310 1.251 . S
C299 O311 1.251 . S
O300 C280 1.257 . S
O300 Eu281 2.473 . S
O301 C280 1.260 . S
O301 Eu281 2.480 . S
O302 Eu281 2.430 . S
O302 C288 1.259 . S
O303 Eu281 2.670 . S
O303 C288 1.270 . S
O303 Eu291 2.355 . S
O304 Eu281 2.394 . S
O304 C289 1.251 . S
O305 C289 1.251 . S
O305 Eu291 2.374 . S
O306 C290 1.257 . S
O306 Eu291 2.473 . S
O307 C290 1.260 . S
O307 Eu291 2.480 . S
O308 Eu291 2.430 . S
O308 C298 1.259 . S
O309 Eu281 2.355 . S
O309 Eu291 2.670 . S
O309 C298 1.270 . S
O310 Eu291 2.394 . S
O310 C299 1.251 . S
O311 Eu281 2.374 . S
O311 C299 1.251 . S
H312 C283 0.931 . S
H313 C284 0.931 . S
H314 C286 0.931 . S
H315 C287 0.931 . S
H316 C293 0.931 . S
H317 C294 0.931 . S
H318 C296 0.931 . S
H319 C297 0.931 . S
C320 C321 1.349 1_556 S
C320 C322 1.327 . S
C320 H345 0.950 . S
C321 C320 1.349 1_554 S
C321 C337 1.349 . S
C322 C320 1.327 . S
C322 C341 1.429 1_556 S
C322 H346 0.950 . S
C323 C340 1.574 . S
C323 C342 1.368 . S
C323 H347 0.949 . S
H324 C328 0.949 . S
C325 C326 1.349 1_554 S
C325 C327 1.327 . S
C325 H348 0.950 . S
C326 C325 1.349 1_556 S
C326 C338 1.349 . S
C327 C325 1.327 . S
C327 C343 1.429 1_554 S
C327 H349 0.950 . S
C328 H324 0.949 . S
C328 C336 1.574 . S
C328 C344 1.368 1_556 S
H329 C337 0.950 . S
H330 C335 0.950 . S
H331 C336 0.949 . S
H332 C338 0.950 . S
H333 C339 0.950 . S
H334 C340 0.949 . S
C335 H330 0.950 . S
C335 C337 1.327 . S
C335 C341 1.429 . S
C336 C328 1.574 . S
C336 H331 0.949 . S
C336 C342 1.368 1_556 S
C337 C321 1.349 . S
C337 H329 0.950 . S
C337 C335 1.327 . S
C338 C326 1.349 . S
C338 H332 0.950 . S
C338 C339 1.327 . S
C339 H333 0.950 . S
C339 C338 1.327 . S
C339 C343 1.429 . S
C340 C323 1.574 . S
C340 H334 0.949 . S
C340 C344 1.368 . S
C341 C322 1.429 1_554 S
C341 C335 1.429 . S
C341 C342 1.523 . S
C342 C323 1.368 . S
C342 C336 1.368 1_554 S
C342 C341 1.523 . S
C343 C327 1.429 1_556 S
C343 C339 1.429 . S
C343 C344 1.523 1_556 S
C344 C328 1.368 1_554 S
C344 C340 1.368 . S
C344 C343 1.523 1_554 S
H345 C320 0.950 . S
H346 C322 0.950 . S
H347 C323 0.949 . S
H348 C325 0.950 . S
H349 C327 0.950 . S
C350 C351 1.349 . S
C350 C352 1.327 . S
C350 H375 0.950 . S
C351 C350 1.349 . S
C351 C367 1.349 1_556 S
C352 C350 1.327 . S
C352 C371 1.429 . S
C352 H376 0.950 . S
C353 C370 1.574 . S
C353 C372 1.370 1_554 S
C353 H377 0.949 . S
H354 C358 0.949 . S
C355 C356 1.349 . S
C355 C357 1.327 . S
C355 H378 0.950 . S
C356 C355 1.349 . S
C356 C368 1.349 1_554 S
C357 C355 1.327 . S
C357 C373 1.429 . S
C357 H379 0.950 . S
C358 H354 0.949 . S
C358 C366 1.574 . S
C358 C374 1.368 1_556 S
H359 C367 0.950 . S
H360 C365 0.950 . S
H361 C366 0.949 . S
H362 C368 0.950 . S
H363 C369 0.950 . S
H364 C370 0.949 . S
C365 H360 0.950 . S
C365 C367 1.327 . S
C365 C371 1.429 1_554 S
C366 C358 1.574 . S
C366 H361 0.949 . S
C366 C372 1.367 . S
C367 C351 1.349 1_554 S
C367 H359 0.950 . S
C367 C365 1.327 . S
C368 C356 1.349 1_556 S
C368 H362 0.950 . S
C368 C369 1.327 . S
C369 H363 0.950 . S
C369 C368 1.327 . S
C369 C373 1.429 1_556 S
C370 C353 1.574 . S
C370 H364 0.949 . S
C370 C374 1.368 . S
C371 C352 1.429 . S
C371 C365 1.429 1_556 S
C371 C372 1.523 . S
C372 C353 1.370 1_556 S
C372 C366 1.367 . S
C372 C371 1.523 . S
C373 C357 1.429 . S
C373 C369 1.429 1_554 S
C373 C374 1.523 . S
C374 C358 1.368 1_554 S
C374 C370 1.368 . S
C374 C373 1.523 . S
H375 C350 0.950 . S
H376 C352 0.950 . S
H377 C353 0.949 . S
H378 C355 0.950 . S
H379 C357 0.950 . S
C380 C381 1.349 . S
C380 C382 1.327 . S
C380 H405 0.950 . S
C381 C380 1.349 . S
C381 C397 1.349 . S
C382 C380 1.327 . S
C382 C401 1.429 . S
C382 H406 0.950 . S
C383 C400 1.574 . S
C383 C402 1.368 . S
C383 H407 0.949 . S
H384 C388 0.949 . S
C385 C386 1.349 . S
C385 C387 1.327 . S
C385 H408 0.950 . S
C386 C385 1.349 . S
C386 C398 1.349 . S
C387 C385 1.327 . S
C387 C403 1.429 . S
C387 H409 0.950 . S
C388 H384 0.949 . S
C388 C396 1.574 . S
C388 C404 1.368 . S
H389 C397 0.950 . S
H390 C395 0.950 . S
H391 C396 0.949 . S
H392 C398 0.950 . S
H393 C399 0.950 . S
H394 C400 0.949 . S
C395 H390 0.950 . S
C395 C397 1.327 . S
C395 C401 1.429 . S
C396 C388 1.574 . S
C396 H391 0.949 . S
C396 C402 1.368 . S
C397 C381 1.349 . S
C397 H389 0.950 . S
C397 C395 1.327 . S
C398 C386 1.349 . S
C398 H392 0.950 . S
C398 C399 1.327 . S
C399 H393 0.950 . S
C399 C398 1.327 . S
C399 C403 1.429 . S
C400 C383 1.574 . S
C400 H394 0.949 . S
C400 C404 1.368 . S
C401 C382 1.429 . S
C401 C395 1.429 . S
C401 C402 1.523 . S
C402 C383 1.368 . S
C402 C396 1.368 . S
C402 C401 1.523 . S
C403 C387 1.429 . S
C403 C399 1.429 . S
C403 C404 1.523 . S
C404 C388 1.368 . S
C404 C400 1.368 . S
C404 C403 1.523 . S
H405 C380 0.950 . S
H406 C382 0.950 . S
H407 C383 0.949 . S
H408 C385 0.950 . S
H409 C387 0.950 . S
C410 C411 1.349 . S
C410 C412 1.327 . S
C410 H435 0.950 . S
C411 C410 1.349 . S
C411 C427 1.349 . S
C412 C410 1.327 . S
C412 C431 1.429 . S
C412 H436 0.950 . S
C413 C430 1.574 . S
C413 C432 1.368 . S
C413 H437 0.949 . S
H414 C418 0.949 . S
C415 C416 1.349 . S
C415 C417 1.327 . S
C415 H438 0.950 . S
C416 C415 1.349 . S
C416 C428 1.349 . S
C417 C415 1.327 . S
C417 C433 1.429 . S
C417 H439 0.950 . S
C418 H414 0.949 . S
C418 C426 1.574 . S
C418 C434 1.368 . S
H419 C427 0.950 . S
H420 C425 0.950 . S
H421 C426 0.949 . S
H422 C428 0.950 . S
H423 C429 0.950 . S
H424 C430 0.949 . S
C425 H420 0.950 . S
C425 C427 1.327 . S
C425 C431 1.429 . S
C426 C418 1.574 . S
C426 H421 0.949 . S
C426 C432 1.368 . S
C427 C411 1.349 . S
C427 H419 0.950 . S
C427 C425 1.327 . S
C428 C416 1.349 . S
C428 H422 0.950 . S
C428 C429 1.327 . S
C429 H423 0.950 . S
C429 C428 1.327 . S
C429 C433 1.429 . S
C430 C413 1.574 . S
C430 H424 0.949 . S
C430 C434 1.368 . S
C431 C412 1.429 . S
C431 C425 1.429 . S
C431 C432 1.523 . S
C432 C413 1.368 . S
C432 C426 1.368 . S
C432 C431 1.523 . S
C433 C417 1.429 . S
C433 C429 1.429 . S
C433 C434 1.523 . S
C434 C418 1.368 . S
C434 C430 1.368 . S
C434 C433 1.523 . S
H435 C410 0.950 . S
H436 C412 0.950 . S
H437 C413 0.949 . S
H438 C415 0.950 . S
H439 C417 0.950 . S
C440 C441 1.349 . S
C440 C442 1.327 . S
C440 H465 0.950 . S
C441 C440 1.349 . S
C441 C457 1.349 1_554 S
C442 C440 1.327 . S
C442 C461 1.429 . S
C442 H466 0.950 1_655 S
C443 C460 1.574 . S
C443 C462 1.368 1_556 S
C443 H467 0.949 1_455 S
H444 C448 0.949 . S
C445 C446 1.349 . S
C445 C447 1.327 . S
C445 H468 0.950 . S
C446 C445 1.349 . S
C446 C458 1.349 1_556 S
C447 C445 1.327 . S
C447 C463 1.429 . S
C447 H469 0.950 . S
C448 H444 0.949 . S
C448 C456 1.574 . S
C448 C464 1.368 . S
H449 C457 0.950 . S
H450 C455 0.950 . S
H451 C456 0.949 . S
H452 C458 0.950 . S
H453 C459 0.950 . S
H454 C460 0.949 . S
C455 H450 0.950 . S
C455 C457 1.327 . S
C455 C461 1.429 1_556 S
C456 C448 1.574 . S
C456 H451 0.949 . S
C456 C462 1.368 . S
C457 C441 1.349 1_556 S
C457 H449 0.950 . S
C457 C455 1.327 . S
C458 C446 1.349 1_554 S
C458 H452 0.950 . S
C458 C459 1.327 . S
C459 H453 0.950 . S
C459 C458 1.327 . S
C459 C463 1.429 1_554 S
C460 C443 1.574 . S
C460 H454 0.949 . S
C460 C464 1.368 1_556 S
C461 C442 1.429 . S
C461 C455 1.429 1_554 S
C461 C462 1.523 1_655 S
C462 C443 1.368 1_554 S
C462 C456 1.368 . S
C462 C461 1.523 1_455 S
C463 C447 1.429 . S
C463 C459 1.429 1_556 S
C463 C464 1.523 1_556 S
C464 C448 1.368 . S
C464 C460 1.368 1_554 S
C464 C463 1.523 1_554 S
H465 C440 0.950 . S
H466 C442 0.950 1_455 S
H467 C443 0.949 1_655 S
H468 C445 0.950 . S
H469 C447 0.950 . S
C470 C471 1.349 . S
C470 C472 1.327 . S
C470 H495 0.950 . S
C471 C470 1.349 . S
C471 C487 1.349 1_554 S
C472 C470 1.327 . S
C472 C491 1.429 . S
C472 H496 0.950 1_455 S
C473 C490 1.574 . S
C473 C492 1.368 1_556 S
C473 H497 0.950 . S
H474 C478 0.949 . S
C475 C476 1.349 . S
C475 C477 1.327 . S
C475 H498 0.950 . S
C476 C475 1.349 . S
C476 C488 1.349 1_556 S
C477 C475 1.327 . S
C477 C493 1.429 . S
C477 H499 0.950 . S
C478 H474 0.949 . S
C478 C486 1.574 . S
C478 C494 1.370 1_554 S
H479 C487 0.950 . S
H480 C485 0.950 . S
H481 C486 0.949 . S
H482 C488 0.950 . S
H483 C489 0.950 . S
H484 C490 0.949 . S
C485 H480 0.950 . S
C485 C487 1.327 . S
C485 C491 1.429 1_556 S
C486 C478 1.574 . S
C486 H481 0.949 . S
C486 C492 1.368 . S
C487 C471 1.349 1_556 S
C487 H479 0.950 . S
C487 C485 1.327 . S
C488 C476 1.349 1_554 S
C488 H482 0.950 . S
C488 C489 1.327 . S
C489 H483 0.950 . S
C489 C488 1.327 . S
C489 C493 1.429 1_554 S
C490 C473 1.574 . S
C490 H484 0.949 . S
C490 C494 1.367 . S
C491 C472 1.429 . S
C491 C485 1.429 1_554 S
C491 C492 1.523 1_455 S
C492 C473 1.368 1_554 S
C492 C486 1.368 . S
C492 C491 1.523 1_655 S
C493 C477 1.429 . S
C493 C489 1.429 1_556 S
C493 C494 1.523 . S
C494 C478 1.370 1_556 S
C494 C490 1.367 . S
C494 C493 1.523 . S
H495 C470 0.950 . S
H496 C472 0.950 1_655 S
H497 C473 0.950 . S
H498 C475 0.950 . S
H499 C477 0.950 . S
C500 C501 1.349 . S
C500 C502 1.327 . S
C500 H525 0.950 . S
C501 C500 1.349 . S
C501 C517 1.349 . S
C502 C500 1.327 . S
C502 C521 1.429 . S
C502 H526 0.950 . S
C503 C520 1.574 . S
C503 C522 1.368 . S
C503 H527 0.949 . S
H504 C508 0.949 1_655 S
C505 C506 1.349 . S
C505 C507 1.327 . S
C505 H528 0.950 . S
C506 C505 1.349 . S
C506 C518 1.349 . S
C507 C505 1.327 . S
C507 C523 1.429 . S
C507 H529 0.950 . S
C508 H504 0.949 1_455 S
C508 C516 1.574 . S
C508 C524 1.368 1_455 S
H509 C517 0.950 . S
H510 C515 0.950 . S
H511 C516 0.949 . S
H512 C518 0.950 . S
H513 C519 0.950 . S
H514 C520 0.949 . S
C515 H510 0.950 . S
C515 C517 1.327 . S
C515 C521 1.429 . S
C516 C508 1.574 . S
C516 H511 0.949 . S
C516 C522 1.368 . S
C517 C501 1.349 . S
C517 H509 0.950 . S
C517 C515 1.327 . S
C518 C506 1.349 . S
C518 H512 0.950 . S
C518 C519 1.327 . S
C519 H513 0.950 . S
C519 C518 1.327 . S
C519 C523 1.429 . S
C520 C503 1.574 . S
C520 H514 0.949 . S
C520 C524 1.368 1_455 S
C521 C502 1.429 . S
C521 C515 1.429 . S
C521 C522 1.523 . S
C522 C503 1.368 . S
C522 C516 1.368 . S
C522 C521 1.523 . S
C523 C507 1.429 . S
C523 C519 1.429 . S
C523 C524 1.523 . S
C524 C508 1.368 1_655 S
C524 C520 1.368 1_655 S
C524 C523 1.523 . S
H525 C500 0.950 . S
H526 C502 0.950 . S
H527 C503 0.949 . S
H528 C505 0.950 . S
H529 C507 0.950 . S
C530 C531 1.349 . S
C530 C532 1.327 . S
C530 H555 0.950 . S
C531 C530 1.349 . S
C531 C547 1.349 . S
C532 C530 1.327 . S
C532 C551 1.429 . S
C532 H556 0.950 . S
C533 C550 1.574 . S
C533 C552 1.368 . S
C533 H557 0.949 . S
H534 C538 0.949 . S
C535 C536 1.349 . S
C535 C537 1.327 . S
C535 H558 0.950 . S
C536 C535 1.349 . S
C536 C548 1.349 . S
C537 C535 1.327 . S
C537 C553 1.429 . S
C537 H559 0.950 . S
C538 H534 0.949 . S
C538 C546 1.574 . S
C538 C554 1.368 1_655 S
H539 C547 0.950 . S
H540 C545 0.950 . S
H541 C546 0.949 . S
H542 C548 0.950 . S
H543 C549 0.950 . S
H544 C550 0.949 1_455 S
C545 H540 0.950 . S
C545 C547 1.327 . S
C545 C551 1.429 . S
C546 C538 1.574 . S
C546 H541 0.949 . S
C546 C552 1.368 . S
C547 C531 1.349 . S
C547 H539 0.950 . S
C547 C545 1.327 . S
C548 C536 1.349 . S
C548 H542 0.950 . S
C548 C549 1.327 . S
C549 H543 0.950 . S
C549 C548 1.327 . S
C549 C553 1.429 . S
C550 C533 1.574 . S
C550 H544 0.949 1_655 S
C550 C554 1.368 1_655 S
C551 C532 1.429 . S
C551 C545 1.429 . S
C551 C552 1.523 . S
C552 C533 1.368 . S
C552 C546 1.368 . S
C552 C551 1.523 . S
C553 C537 1.429 . S
C553 C549 1.429 . S
C553 C554 1.523 . S
C554 C538 1.368 1_455 S
C554 C550 1.368 1_455 S
C554 C553 1.523 . S
H555 C530 0.950 . S
H556 C532 0.950 . S
H557 C533 0.949 . S
H558 C535 0.950 . S
H559 C537 0.950 . S
C560 C561 1.349 1_456 S
C560 C562 1.327 . S
C560 H585 0.950 . S
C561 C560 1.349 1_654 S
C561 C577 1.349 . S
C562 C560 1.327 . S
C562 C581 1.429 1_456 S
C562 H586 0.950 . S
C563 C580 1.574 . S
C563 C582 1.368 . S
C563 H587 0.949 . S
H564 C568 0.949 . S
C565 C566 1.349 1_655 S
C565 C567 1.327 . S
C565 H588 0.950 . S
C566 C565 1.349 1_455 S
C566 C578 1.349 1_554 S
C567 C565 1.327 . S
C567 C583 1.429 1_655 S
C567 H589 0.950 . S
C568 H564 0.949 . S
C568 C576 1.574 . S
C568 C584 1.380 1_556 S
H569 C577 0.950 . S
H570 C575 0.950 . S
H571 C576 0.949 . S
H572 C578 0.950 . S
H573 C579 0.950 . S
H574 C580 0.949 . S
C575 H570 0.950 . S
C575 C577 1.327 . S
C575 C581 1.429 . S
C576 C568 1.574 . S
C576 H571 0.949 . S
C576 C582 1.368 1_456 S
C577 C561 1.349 . S
C577 H569 0.950 . S
C577 C575 1.327 . S
C578 C566 1.349 1_556 S
C578 H572 0.950 . S
C578 C579 1.327 . S
C579 H573 0.950 . S
C579 C578 1.327 . S
C579 C583 1.429 1_556 S
C580 C563 1.574 . S
C580 H574 0.949 . S
C580 C584 1.359 1_655 S
C581 C562 1.429 1_654 S
C581 C575 1.429 . S
C581 C582 1.523 . S
C582 C563 1.368 . S
C582 C576 1.368 1_654 S
C582 C581 1.523 . S
C583 C567 1.429 1_455 S
C583 C579 1.429 1_554 S
C583 C584 1.521 . S
C584 C568 1.380 1_554 S
C584 C580 1.359 1_455 S
C584 C583 1.521 . S
H585 C560 0.950 . S
H586 C562 0.950 . S
H587 C563 0.949 . S
H588 C565 0.950 . S
H589 C567 0.950 . S
C590 C591 1.349 . S
C590 C592 1.327 . S
C590 H615 0.950 . S
C591 C590 1.349 . S
C591 C607 1.349 . S
C592 C590 1.327 . S
C592 C611 1.429 . S
C592 H616 0.950 . S
C593 C610 1.574 . S
C593 C612 1.368 . S
C593 H617 0.949 . S
H594 C598 0.949 . S
C595 C596 1.349 . S
C595 C597 1.327 . S
C595 H618 0.950 . S
C596 C595 1.349 . S
C596 C608 1.349 . S
C597 C595 1.327 . S
C597 C613 1.429 . S
C597 H619 0.950 . S
C598 H594 0.949 . S
C598 C606 1.574 . S
C598 C614 1.368 . S
H599 C607 0.950 . S
H600 C605 0.950 . S
H601 C606 0.949 . S
H602 C608 0.950 . S
H603 C609 0.950 . S
H604 C610 0.949 . S
C605 H600 0.950 . S
C605 C607 1.327 . S
C605 C611 1.429 . S
C606 C598 1.574 . S
C606 H601 0.949 . S
C606 C612 1.368 1_655 S
C607 C591 1.349 . S
C607 H599 0.950 . S
C607 C605 1.327 . S
C608 C596 1.349 . S
C608 H602 0.950 . S
C608 C609 1.327 . S
C609 H603 0.950 . S
C609 C608 1.327 . S
C609 C613 1.429 . S
C610 C593 1.574 . S
C610 H604 0.949 . S
C610 C614 1.368 1_455 S
C611 C592 1.429 . S
C611 C605 1.429 . S
C611 C612 1.523 . S
C612 C593 1.368 . S
C612 C606 1.368 1_455 S
C612 C611 1.523 . S
C613 C597 1.429 . S
C613 C609 1.429 . S
C613 C614 1.523 . S
C614 C598 1.368 . S
C614 C610 1.368 1_655 S
C614 C613 1.523 . S
H615 C590 0.950 . S
H616 C592 0.950 . S
H617 C593 0.949 . S
H618 C595 0.950 . S
H619 C597 0.950 . S
C620 C621 1.349 . S
C620 C622 1.327 . S
C620 H645 0.950 . S
C621 C620 1.349 . S
C621 C637 1.349 1_554 S
C622 C620 1.327 . S
C622 C641 1.429 . S
C622 H646 0.950 . S
C623 C640 1.574 1_565 S
C623 C642 1.368 1_556 S
C623 H647 0.949 . S
H624 C628 0.949 . S
C625 C626 1.349 1_556 S
C625 C627 1.327 . S
C625 H648 0.950 . S
C626 C625 1.349 1_554 S
C626 C638 1.349 . S
C627 C625 1.327 . S
C627 C643 1.429 1_556 S
C627 H649 0.950 . S
C628 H624 0.949 . S
C628 C636 1.574 1_545 S
C628 C644 1.368 . S
H629 C637 0.950 . S
H630 C635 0.950 . S
H631 C636 0.949 . S
H632 C638 0.950 . S
H633 C639 0.950 . S
H634 C640 0.949 . S
C635 H630 0.950 . S
C635 C637 1.327 . S
C635 C641 1.429 1_556 S
C636 C628 1.574 1_565 S
C636 H631 0.949 . S
C636 C642 1.368 . S
C637 C621 1.349 1_556 S
C637 H629 0.950 . S
C637 C635 1.327 . S
C638 C626 1.349 . S
C638 H632 0.950 . S
C638 C639 1.327 . S
C639 H633 0.950 . S
C639 C638 1.327 . S
C639 C643 1.429 . S
C640 C623 1.574 1_545 S
C640 H634 0.949 . S
C640 C644 1.368 1_556 S
C641 C622 1.429 . S
C641 C635 1.429 1_554 S
C641 C642 1.523 . S
C642 C623 1.368 1_554 S
C642 C636 1.368 . S
C642 C641 1.523 . S
C643 C627 1.429 1_554 S
C643 C639 1.429 . S
C643 C644 1.523 . S
C644 C628 1.368 . S
C644 C640 1.368 1_554 S
C644 C643 1.523 . S
H645 C620 0.950 . S
H646 C622 0.950 . S
H647 C623 0.949 . S
H648 C625 0.950 . S
H649 C627 0.950 . S
C650 C651 1.349 . S
C650 C652 1.327 . S
C650 H675 0.950 . S
C651 C650 1.349 . S
C651 C667 1.349 . S
C652 C650 1.327 . S
C652 C671 1.429 . S
C652 H676 0.950 . S
C653 C670 1.574 1_545 S
C653 C672 1.368 . S
C653 H677 0.949 . S
H654 C658 0.949 . S
C655 C656 1.349 . S
C655 C657 1.327 . S
C655 H678 0.950 . S
C656 C655 1.349 . S
C656 C668 1.349 . S
C657 C655 1.327 . S
C657 C673 1.429 . S
C657 H679 0.950 . S
C658 H654 0.949 . S
C658 C666 1.574 1_565 S
C658 C674 1.368 . S
H659 C667 0.950 . S
H660 C665 0.950 . S
H661 C666 0.949 . S
H662 C668 0.950 . S
H663 C669 0.950 . S
H664 C670 0.949 . S
C665 H660 0.950 . S
C665 C667 1.327 . S
C665 C671 1.429 . S
C666 C658 1.574 1_545 S
C666 H661 0.949 . S
C666 C672 1.368 . S
C667 C651 1.349 . S
C667 H659 0.950 . S
C667 C665 1.327 . S
C668 C656 1.349 . S
C668 H662 0.950 . S
C668 C669 1.327 . S
C669 H663 0.950 . S
C669 C668 1.327 . S
C669 C673 1.429 . S
C670 C653 1.574 1_565 S
C670 H664 0.949 . S
C670 C674 1.368 . S
C671 C652 1.429 . S
C671 C665 1.429 . S
C671 C672 1.523 . S
C672 C653 1.368 . S
C672 C666 1.368 . S
C672 C671 1.523 . S
C673 C657 1.429 . S
C673 C669 1.429 . S
C673 C674 1.523 . S
C674 C658 1.368 . S
C674 C670 1.368 . S
C674 C673 1.523 . S
H675 C650 0.950 . S
H676 C652 0.950 . S
H677 C653 0.949 . S
H678 C655 0.950 . S
H679 C657 0.950 . S
C680 C681 1.349 1_556 S
C680 C682 1.327 . S
C680 H705 0.950 . S
C681 C680 1.349 1_554 S
C681 C697 1.349 . S
C682 C680 1.327 . S
C682 C701 1.429 1_556 S
C682 H706 0.950 . S
C683 C700 1.574 . S
C683 C702 1.368 . S
C683 H707 0.949 . S
H684 C688 0.949 . S
C685 C686 1.371 . S
C685 C687 1.327 . S
C685 H708 0.950 . S
C686 C685 1.371 . S
C686 C698 1.330 1_554 S
C687 C685 1.327 . S
C687 C703 1.429 . S
C687 H709 0.950 . S
C688 H684 0.949 . S
C688 C696 1.574 . S
C688 C704 1.368 1_556 S
H689 C697 0.950 . S
H690 C695 0.950 . S
H691 C696 0.949 . S
H692 C698 0.950 . S
H693 C699 0.950 . S
H694 C700 0.949 . S
C695 H690 0.950 . S
C695 C697 1.327 . S
C695 C701 1.429 . S
C696 C688 1.574 . S
C696 H691 0.949 . S
C696 C702 1.368 1_556 S
C697 C681 1.349 . S
C697 H689 0.950 . S
C697 C695 1.327 . S
C698 C686 1.330 1_556 S
C698 H692 0.950 . S
C698 C699 1.327 . S
C699 H693 0.950 . S
C699 C698 1.327 . S
C699 C703 1.429 1_556 S
C700 C683 1.574 . S
C700 H694 0.949 . S
C700 C704 1.368 . S
C701 C682 1.429 1_554 S
C701 C695 1.429 . S
C701 C702 1.523 . S
C702 C683 1.368 . S
C702 C696 1.368 1_554 S
C702 C701 1.523 . S
C703 C687 1.429 . S
C703 C699 1.429 1_554 S
C703 C704 1.523 . S
C704 C688 1.368 1_554 S
C704 C700 1.368 . S
C704 C703 1.523 . S
H705 C680 0.950 . S
H706 C682 0.950 . S
H707 C683 0.949 . S
H708 C685 0.950 . S
H709 C687 0.950 . S
C710 C711 1.349 1_556 S
C710 C712 1.327 . S
C710 H735 0.950 . S
C711 C710 1.349 1_554 S
C711 C727 1.349 . S
C712 C710 1.327 . S
C712 C731 1.429 1_556 S
C712 H736 0.950 . S
C713 C730 1.574 . S
C713 C732 1.368 . S
C713 H737 0.949 . S
H714 C718 0.949 . S
C715 C716 1.371 . S
C715 C717 1.327 . S
C715 H738 0.950 . S
C716 C715 1.371 . S
C716 C728 1.330 1_554 S
C717 C715 1.327 . S
C717 C733 1.429 . S
C717 H739 0.950 . S
C718 H714 0.949 . S
C718 C726 1.574 . S
C718 C734 1.368 1_556 S
H719 C727 0.950 . S
H720 C725 0.950 . S
H721 C726 0.949 . S
H722 C728 0.950 . S
H723 C729 0.950 . S
H724 C730 0.949 . S
C725 H720 0.950 . S
C725 C727 1.327 . S
C725 C731 1.429 . S
C726 C718 1.574 . S
C726 H721 0.949 . S
C726 C732 1.368 1_556 S
C727 C711 1.349 . S
C727 H719 0.950 . S
C727 C725 1.327 . S
C728 C716 1.330 1_556 S
C728 H722 0.950 . S
C728 C729 1.327 . S
C729 H723 0.950 . S
C729 C728 1.327 . S
C729 C733 1.429 1_556 S
C730 C713 1.574 . S
C730 H724 0.949 . S
C730 C734 1.368 . S
C731 C712 1.429 1_554 S
C731 C725 1.429 . S
C731 C732 1.523 . S
C732 C713 1.368 . S
C732 C726 1.368 1_554 S
C732 C731 1.523 . S
C733 C717 1.429 . S
C733 C729 1.429 1_554 S
C733 C734 1.523 . S
C734 C718 1.368 1_554 S
C734 C730 1.368 . S
C734 C733 1.523 . S
H735 C710 0.950 . S
H736 C712 0.950 . S
H737 C713 0.949 . S
H738 C715 0.950 . S
H739 C717 0.950 . S
C740 C741 1.349 . S
C740 C742 1.327 . S
C740 H765 0.950 . S
C741 C740 1.349 . S
C741 C757 1.349 . S
C742 C740 1.327 . S
C742 C761 1.429 . S
C742 H766 0.950 . S
C743 C760 1.574 . S
C743 C762 1.368 . S
C743 H767 0.949 . S
H744 C748 0.949 . S
C745 C746 1.349 . S
C745 C747 1.327 . S
C745 H768 0.950 . S
C746 C745 1.349 . S
C746 C758 1.349 . S
C747 C745 1.327 . S
C747 C763 1.429 . S
C747 H769 0.950 . S
C748 H744 0.949 . S
C748 C756 1.574 . S
C748 C764 1.368 . S
H749 C757 0.950 . S
H750 C755 0.950 . S
H751 C756 0.949 . S
H752 C758 0.950 . S
H753 C759 0.950 . S
H754 C760 0.949 . S
C755 H750 0.950 . S
C755 C757 1.327 . S
C755 C761 1.429 . S
C756 C748 1.574 . S
C756 H751 0.949 . S
C756 C762 1.368 . S
C757 C741 1.349 . S
C757 H749 0.950 . S
C757 C755 1.327 . S
C758 C746 1.349 . S
C758 H752 0.950 . S
C758 C759 1.327 . S
C759 H753 0.950 . S
C759 C758 1.327 . S
C759 C763 1.429 . S
C760 C743 1.574 . S
C760 H754 0.949 . S
C760 C764 1.368 . S
C761 C742 1.429 . S
C761 C755 1.429 . S
C761 C762 1.523 . S
C762 C743 1.368 . S
C762 C756 1.368 . S
C762 C761 1.523 . S
C763 C747 1.429 . S
C763 C759 1.429 . S
C763 C764 1.523 . S
C764 C748 1.368 . S
C764 C760 1.368 . S
C764 C763 1.523 . S
H765 C740 0.950 . S
H766 C742 0.950 . S
H767 C743 0.949 . S
H768 C745 0.950 . S
H769 C747 0.950 . S
C770 C771 1.349 . S
C770 C772 1.327 . S
C770 H795 0.950 . S
C771 C770 1.349 . S
C771 C787 1.349 . S
C772 C770 1.327 . S
C772 C791 1.429 . S
C772 H796 0.950 . S
C773 C790 1.574 . S
C773 C792 1.368 . S
C773 H797 0.949 . S
H774 C778 0.949 . S
C775 C776 1.349 . S
C775 C777 1.327 . S
C775 H798 0.950 . S
C776 C775 1.349 . S
C776 C788 1.349 . S
C777 C775 1.327 . S
C777 C793 1.429 . S
C777 H799 0.950 . S
C778 H774 0.949 . S
C778 C786 1.574 . S
C778 C794 1.368 . S
H779 C787 0.950 . S
H780 C785 0.950 . S
H781 C786 0.949 . S
H782 C788 0.950 . S
H783 C789 0.950 . S
H784 C790 0.949 . S
C785 H780 0.950 . S
C785 C787 1.327 . S
C785 C791 1.429 . S
C786 C778 1.574 . S
C786 H781 0.949 . S
C786 C792 1.368 . S
C787 C771 1.349 . S
C787 H779 0.950 . S
C787 C785 1.327 . S
C788 C776 1.349 . S
C788 H782 0.950 . S
C788 C789 1.327 . S
C789 H783 0.950 . S
C789 C788 1.327 . S
C789 C793 1.429 . S
C790 C773 1.574 . S
C790 H784 0.949 . S
C790 C794 1.368 . S
C791 C772 1.429 . S
C791 C785 1.429 . S
C791 C792 1.523 . S
C792 C773 1.368 . S
C792 C786 1.368 . S
C792 C791 1.523 . S
C793 C777 1.429 . S
C793 C789 1.429 . S
C793 C794 1.523 . S
C794 C778 1.368 . S
C794 C790 1.368 . S
C794 C793 1.523 . S
H795 C770 0.950 . S
H796 C772 0.950 . S
H797 C773 0.949 . S
H798 C775 0.950 . S
H799 C777 0.950 . S
C800 C801 1.349 . S
C800 C802 1.327 . S
C800 H825 0.950 . S
C801 C800 1.349 . S
C801 C817 1.349 . S
C802 C800 1.327 . S
C802 C821 1.429 . S
C802 H826 0.950 . S
C803 C820 1.574 . S
C803 C822 1.368 . S
C803 H827 0.949 . S
H804 C808 0.949 . S
C805 C806 1.349 . S
C805 C807 1.327 1_655 S
C805 H828 0.950 1_655 S
C806 C805 1.349 . S
C806 C818 1.349 . S
C807 C805 1.327 1_455 S
C807 C823 1.429 1_455 S
C807 H829 0.950 . S
C808 H804 0.949 . S
C808 C816 1.574 . S
C808 C824 1.368 1_655 S
H809 C817 0.950 . S
H810 C815 0.950 . S
H811 C816 0.949 . S
H812 C818 0.950 . S
H813 C819 0.950 . S
H814 C820 0.949 . S
C815 H810 0.950 . S
C815 C817 1.327 . S
C815 C821 1.429 . S
C816 C808 1.574 . S
C816 H811 0.949 . S
C816 C822 1.368 1_655 S
C817 C801 1.349 . S
C817 H809 0.950 . S
C817 C815 1.327 . S
C818 C806 1.349 . S
C818 H812 0.950 . S
C818 C819 1.327 . S
C819 H813 0.950 . S
C819 C818 1.327 . S
C819 C823 1.429 . S
C820 C803 1.574 . S
C820 H814 0.949 . S
C820 C824 1.368 . S
C821 C802 1.429 . S
C821 C815 1.429 . S
C821 C822 1.523 . S
C822 C803 1.368 . S
C822 C816 1.368 1_455 S
C822 C821 1.523 . S
C823 C807 1.429 1_655 S
C823 C819 1.429 . S
C823 C824 1.523 1_655 S
C824 C808 1.368 1_455 S
C824 C820 1.368 . S
C824 C823 1.523 1_455 S
H825 C800 0.950 . S
H826 C802 0.950 . S
H827 C803 0.949 . S
H828 C805 0.950 1_455 S
H829 C807 0.950 . S
C830 C831 1.349 . S
C830 C832 1.327 . S
C830 H855 0.950 . S
C831 C830 1.349 . S
C831 C847 1.349 . S
C832 C830 1.327 . S
C832 C851 1.429 . S
C832 H856 0.950 . S
C833 C850 1.574 . S
C833 C852 1.368 1_455 S
C833 H857 0.949 . S
H834 C838 0.949 . S
C835 C836 1.349 . S
C835 C837 1.327 . S
C835 H858 0.950 . S
C836 C835 1.349 . S
C836 C848 1.349 . S
C837 C835 1.327 . S
C837 C853 1.429 . S
C837 H859 0.950 . S
C838 H834 0.949 . S
C838 C846 1.574 . S
C838 C854 1.378 . S
H839 C847 0.950 . S
H840 C845 0.950 1_455 S
H841 C846 0.949 . S
H842 C848 0.950 1_655 S
H843 C849 0.950 . S
H844 C850 0.949 . S
C845 H840 0.950 1_655 S
C845 C847 1.327 . S
C845 C851 1.429 . S
C846 C838 1.574 . S
C846 H841 0.949 . S
C846 C852 1.368 . S
C847 C831 1.349 . S
C847 H839 0.950 . S
C847 C845 1.327 . S
C848 C836 1.349 . S
C848 H842 0.950 1_455 S
C848 C849 1.327 1_455 S
C849 H843 0.950 . S
C849 C848 1.327 1_655 S
C849 C853 1.429 1_655 S
C850 C833 1.574 . S
C850 H844 0.949 . S
C850 C854 1.362 1_455 S
C851 C832 1.429 . S
C851 C845 1.429 . S
C851 C852 1.523 . S
C852 C833 1.368 1_655 S
C852 C846 1.368 . S
C852 C851 1.523 . S
C853 C837 1.429 . S
C853 C849 1.429 1_455 S
C853 C854 1.518 1_455 S
C854 C838 1.378 . S
C854 C850 1.362 1_655 S
C854 C853 1.518 1_655 S
H855 C830 0.950 . S
H856 C832 0.950 . S
H857 C833 0.949 . S
H858 C835 0.950 . S
H859 C837 0.950 . S
C860 C861 1.349 . S
C860 C862 1.327 . S
C860 H885 0.950 . S
C861 C860 1.349 . S
C861 C877 1.349 . S
C862 C860 1.327 . S
C862 C881 1.429 . S
C862 H886 0.950 . S
C863 C880 1.574 . S
C863 C882 1.368 . S
C863 H887 0.949 . S
H864 C868 0.949 . S
C865 C866 1.349 . S
C865 C867 1.327 . S
C865 H888 0.950 . S
C866 C865 1.349 . S
C866 C878 1.349 . S
C867 C865 1.327 . S
C867 C883 1.429 . S
C867 H889 0.950 1_455 S
C868 H864 0.949 . S
C868 C876 1.574 . S
C868 C884 1.368 . S
H869 C877 0.950 . S
H870 C875 0.950 . S
H871 C876 0.949 . S
H872 C878 0.950 . S
H873 C879 0.950 . S
H874 C880 0.949 . S
C875 H870 0.950 . S
C875 C877 1.327 . S
C875 C881 1.429 . S
C876 C868 1.574 . S
C876 H871 0.949 . S
C876 C882 1.368 1_455 S
C877 C861 1.349 . S
C877 H869 0.950 . S
C877 C875 1.327 . S
C878 C866 1.349 . S
C878 H872 0.950 . S
C878 C879 1.327 . S
C879 H873 0.950 . S
C879 C878 1.327 . S
C879 C883 1.429 . S
C880 C863 1.574 . S
C880 H874 0.949 . S
C880 C884 1.368 1_655 S
C881 C862 1.429 . S
C881 C875 1.429 . S
C881 C882 1.523 . S
C882 C863 1.368 . S
C882 C876 1.368 1_655 S
C882 C881 1.523 . S
C883 C867 1.429 . S
C883 C879 1.429 . S
C883 C884 1.523 . S
C884 C868 1.368 . S
C884 C880 1.368 1_455 S
C884 C883 1.523 . S
H885 C860 0.950 . S
H886 C862 0.950 . S
H887 C863 0.949 . S
H888 C865 0.950 . S
H889 C867 0.950 1_655 S
C890 C891 1.349 . S
C890 C892 1.327 . S
C890 H915 0.950 . S
C891 C890 1.349 . S
C891 C907 1.349 . S
C892 C890 1.327 . S
C892 C911 1.429 . S
C892 H916 0.950 . S
C893 C910 1.574 . S
C893 C912 1.368 1_455 S
C893 H917 0.949 . S
H894 C898 0.949 . S
C895 C896 1.349 . S
C895 C897 1.327 . S
C895 H918 0.950 . S
C896 C895 1.349 . S
C896 C908 1.349 . S
C897 C895 1.327 . S
C897 C913 1.429 . S
C897 H919 0.950 . S
C898 H894 0.949 . S
C898 C906 1.574 . S
C898 C914 1.368 1_655 S
H899 C907 0.950 1_455 S
H900 C905 0.950 . S
H901 C906 0.949 . S
H902 C908 0.950 . S
H903 C909 0.950 1_655 S
H904 C910 0.949 . S
C905 H900 0.950 . S
C905 C907 1.327 1_455 S
C905 C911 1.429 1_455 S
C906 C898 1.574 . S
C906 H901 0.949 . S
C906 C912 1.368 . S
C907 C891 1.349 . S
C907 H899 0.950 1_655 S
C907 C905 1.327 1_655 S
C908 C896 1.349 . S
C908 H902 0.950 . S
C908 C909 1.327 . S
C909 H903 0.950 1_455 S
C909 C908 1.327 . S
C909 C913 1.429 . S
C910 C893 1.574 . S
C910 H904 0.949 . S
C910 C914 1.368 . S
C911 C892 1.429 . S
C911 C905 1.429 1_655 S
C911 C912 1.523 . S
C912 C893 1.368 1_655 S
C912 C906 1.368 . S
C912 C911 1.523 . S
C913 C897 1.429 . S
C913 C909 1.429 . S
C913 C914 1.523 . S
C914 C898 1.368 1_455 S
C914 C910 1.368 . S
C914 C913 1.523 . S
H915 C890 0.950 . S
H916 C892 0.950 . S
H917 C893 0.949 . S
H918 C895 0.950 . S
H919 C897 0.950 . S
C920 C921 1.349 . S
C920 C922 1.327 . S
C920 H945 0.950 . S
C921 C920 1.349 . S
C921 C937 1.349 . S
C922 C920 1.327 . S
C922 C941 1.429 . S
C922 H946 0.950 . S
C923 C940 1.574 . S
C923 C942 1.368 . S
C923 H947 0.949 . S
H924 C928 0.949 . S
C925 C926 1.349 . S
C925 C927 1.327 . S
C925 H948 0.950 . S
C926 C925 1.349 . S
C926 C938 1.349 . S
C927 C925 1.327 . S
C927 C943 1.429 . S
C927 H949 0.950 . S
C928 H924 0.949 . S
C928 C936 1.574 . S
C928 C944 1.368 . S
H929 C937 0.950 . S
H930 C935 0.950 . S
H931 C936 0.949 . S
H932 C938 0.950 . S
H933 C939 0.950 . S
H934 C940 0.949 . S
C935 H930 0.950 . S
C935 C937 1.327 . S
C935 C941 1.429 . S
C936 C928 1.574 . S
C936 H931 0.949 . S
C936 C942 1.368 . S
C937 C921 1.349 . S
C937 H929 0.950 . S
C937 C935 1.327 . S
C938 C926 1.349 . S
C938 H932 0.950 . S
C938 C939 1.327 . S
C939 H933 0.950 . S
C939 C938 1.327 . S
C939 C943 1.429 . S
C940 C923 1.574 . S
C940 H934 0.949 . S
C940 C944 1.368 . S
C941 C922 1.429 . S
C941 C935 1.429 . S
C941 C942 1.523 . S
C942 C923 1.368 . S
C942 C936 1.368 . S
C942 C941 1.523 . S
C943 C927 1.429 . S
C943 C939 1.429 . S
C943 C944 1.523 . S
C944 C928 1.368 . S
C944 C940 1.368 . S
C944 C943 1.523 . S
H945 C920 0.950 . S
H946 C922 0.950 . S
H947 C923 0.949 . S
H948 C925 0.950 . S
H949 C927 0.950 . S
C950 C951 1.349 . S
C950 C952 1.327 . S
C950 H975 0.950 . S
C951 C950 1.349 . S
C951 C967 1.349 . S
C952 C950 1.327 . S
C952 C971 1.429 . S
C952 H976 0.950 . S
C953 C970 1.574 . S
C953 C972 1.368 . S
C953 H977 0.949 . S
H954 C958 0.949 . S
C955 C956 1.349 . S
C955 C957 1.327 . S
C955 H978 0.950 . S
C956 C955 1.349 . S
C956 C968 1.349 . S
C957 C955 1.327 . S
C957 C973 1.429 . S
C957 H979 0.950 . S
C958 H954 0.949 . S
C958 C966 1.574 . S
C958 C974 1.368 . S
H959 C967 0.950 . S
H960 C965 0.950 . S
H961 C966 0.949 . S
H962 C968 0.950 . S
H963 C969 0.950 . S
H964 C970 0.949 . S
C965 H960 0.950 . S
C965 C967 1.327 . S
C965 C971 1.429 . S
C966 C958 1.574 . S
C966 H961 0.949 . S
C966 C972 1.368 . S
C967 C951 1.349 . S
C967 H959 0.950 . S
C967 C965 1.327 . S
C968 C956 1.349 . S
C968 H962 0.950 . S
C968 C969 1.327 . S
C969 H963 0.950 . S
C969 C968 1.327 . S
C969 C973 1.429 . S
C970 C953 1.574 . S
C970 H964 0.949 . S
C970 C974 1.368 . S
C971 C952 1.429 . S
C971 C965 1.429 . S
C971 C972 1.523 . S
C972 C953 1.368 . S
C972 C966 1.368 . S
C972 C971 1.523 . S
C973 C957 1.429 . S
C973 C969 1.429 . S
C973 C974 1.523 . S
C974 C958 1.368 . S
C974 C970 1.368 . S
C974 C973 1.523 . S
H975 C950 0.950 . S
H976 C952 0.950 . S
H977 C953 0.949 . S
H978 C955 0.950 . S
H979 C957 0.950 . S
C980 C981 1.349 . S
C980 C982 1.327 . S
C980 H1005 0.950 . S
C981 C980 1.349 . S
C981 C997 1.349 . S
C982 C980 1.327 . S
C982 C1001 1.429 . S
C982 H1006 0.950 . S
C983 C1000 1.574 . S
C983 C1002 1.368 . S
C983 H1007 0.949 . S
H984 C988 0.949 . S
C985 C986 1.349 . S
C985 C987 1.327 . S
C985 H1008 0.950 . S
C986 C985 1.349 . S
C986 C998 1.349 . S
C987 C985 1.327 . S
C987 C1003 1.429 . S
C987 H1009 0.950 . S
C988 H984 0.949 . S
C988 C996 1.574 . S
C988 C1004 1.368 . S
H989 C997 0.950 . S
H990 C995 0.950 . S
H991 C996 0.949 . S
H992 C998 0.950 . S
H993 C999 0.950 . S
H994 C1000 0.949 . S
C995 H990 0.950 . S
C995 C997 1.327 . S
C995 C1001 1.429 . S
C996 C988 1.574 . S
C996 H991 0.949 . S
C996 C1002 1.368 . S
C997 C981 1.349 . S
C997 H989 0.950 . S
C997 C995 1.327 . S
C998 C986 1.349 . S
C998 H992 0.950 . S
C998 C999 1.327 . S
C999 H993 0.950 . S
C999 C998 1.327 . S
C999 C1003 1.429 . S
C1000 C983 1.574 . S
C1000 H994 0.949 . S
C1000 C1004 1.368 . S
C1001 C982 1.429 . S
C1001 C995 1.429 . S
C1001 C1002 1.523 . S
C1002 C983 1.368 . S
C1002 C996 1.368 . S
C1002 C1001 1.523 . S
C1003 C987 1.429 . S
C1003 C999 1.429 . S
C1003 C1004 1.523 . S
C1004 C988 1.368 . S
C1004 C1000 1.368 . S
C1004 C1003 1.523 . S
H1005 C980 0.950 . S
H1006 C982 0.950 . S
H1007 C983 0.949 . S
H1008 C985 0.950 . S
H1009 C987 0.950 . S
C1010 C1011 1.349 . S
C1010 C1012 1.327 . S
C1010 H1035 0.950 . S
C1011 C1010 1.349 . S
C1011 C1027 1.349 . S
C1012 C1010 1.327 . S
C1012 C1031 1.429 . S
C1012 H1036 0.950 . S
C1013 C1030 1.574 . S
C1013 C1032 1.368 . S
C1013 H1037 0.949 . S
H1014 C1018 0.949 . S
C1015 C1016 1.349 . S
C1015 C1017 1.327 . S
C1015 H1038 0.950 . S
C1016 C1015 1.349 . S
C1016 C1028 1.349 . S
C1017 C1015 1.327 . S
C1017 C1033 1.429 . S
C1017 H1039 0.950 . S
C1018 H1014 0.949 . S
C1018 C1026 1.574 . S
C1018 C1034 1.368 . S
H1019 C1027 0.950 . S
H1020 C1025 0.950 . S
H1021 C1026 0.949 . S
H1022 C1028 0.950 . S
H1023 C1029 0.950 . S
H1024 C1030 0.949 . S
C1025 H1020 0.950 . S
C1025 C1027 1.327 . S
C1025 C1031 1.429 . S
C1026 C1018 1.574 . S
C1026 H1021 0.949 . S
C1026 C1032 1.368 . S
C1027 C1011 1.349 . S
C1027 H1019 0.950 . S
C1027 C1025 1.327 . S
C1028 C1016 1.349 . S
C1028 H1022 0.950 . S
C1028 C1029 1.327 . S
C1029 H1023 0.950 . S
C1029 C1028 1.327 . S
C1029 C1033 1.429 . S
C1030 C1013 1.574 . S
C1030 H1024 0.949 . S
C1030 C1034 1.368 . S
C1031 C1012 1.429 . S
C1031 C1025 1.429 . S
C1031 C1032 1.523 . S
C1032 C1013 1.368 . S
C1032 C1026 1.368 . S
C1032 C1031 1.523 . S
C1033 C1017 1.429 . S
C1033 C1029 1.429 . S
C1033 C1034 1.523 . S
C1034 C1018 1.368 . S
C1034 C1030 1.368 . S
C1034 C1033 1.523 . S
H1035 C1010 0.950 . S
H1036 C1012 0.950 . S
H1037 C1013 0.949 . S
H1038 C1015 0.950 . S
H1039 C1017 0.950 . S
C321 C15 0.587 . S
C326 C5 0.587 . S
C351 C45 0.578 . S
C356 C55 0.578 . S
C381 C89 5.032 . S
C386 C99 5.032 . S
C411 C129 5.032 . S
C416 C139 5.032 . S
C441 C175 0.587 . S
C446 C165 0.587 . S
C471 C215 0.578 . S
C476 C205 0.578 . S
C501 C249 5.032 . S
C506 C259 5.032 . S
C531 C299 5.032 . S
C536 C289 5.032 . S
C561 C49 4.746 . S
C566 C9 4.729 . S
C591 C135 0.524 . S
C596 C85 0.524 . S
C621 C169 4.729 . S
C626 C209 4.746 . S
C651 C245 0.524 . S
C656 C295 0.524 . S
C681 C19 4.258 . S
C686 C219 4.270 1_554 S
C711 C179 4.258 . S
C716 C59 4.270 1_554 S
C741 C95 0.454 . S
C746 C285 0.454 . S
C771 C125 0.455 . S
C776 C255 0.455 . S
C801 C8 1.543 . S
C806 C138 1.615 . S
C831 C48 1.558 . S
C836 C98 1.621 . S
C861 C58 1.591 . S
C866 C88 1.566 . S
C891 C128 1.566 . S
C896 C18 1.620 . S
C921 C168 1.542 . S
C926 C298 1.615 . S
C951 C208 1.558 . S
C956 C258 1.621 . S
C981 C218 1.591 . S
C986 C248 1.566 . S
C1011 C288 1.566 . S
C1016 C178 1.620 . S
