# Generated by pormake.
# Topology sml, (6)-cn, num edge types: 1
# Building blocks:
#     Node 0, Type 0, BuildingBlock: PAMTOO_clean_sbu_0, # of connection points: 6
#     Node 1, Type 0, BuildingBlock: PAMTOO_clean_sbu_0, # of connection points: 6
#     Node 2, Type 0, BuildingBlock: PAMTOO_clean_sbu_0, # of connection points: 6
#     Node 3, Type 0, BuildingBlock: PAMTOO_clean_sbu_0, # of connection points: 6
#     Node 4, Type 0, BuildingBlock: PAMTOO_clean_sbu_0, # of connection points: 6
#     Node 5, Type 0, BuildingBlock: PAMTOO_clean_sbu_0, # of connection points: 6
#     Edge 6, Type (0, 0), BuildingBlock: KIFKEQ_clean_linker_1, # of connection points: 2
#     Edge 7, Type (0, 0), BuildingBlock: KIFKEQ_clean_linker_1, # of connection points: 2
#     Edge 8, Type (0, 0), BuildingBlock: KIFKEQ_clean_linker_1, # of connection points: 2
#     Edge 9, Type (0, 0), BuildingBlock: KIFKEQ_clean_linker_1, # of connection points: 2
#     Edge 10, Type (0, 0), BuildingBlock: KIFKEQ_clean_linker_1, # of connection points: 2
#     Edge 11, Type (0, 0), BuildingBlock: KIFKEQ_clean_linker_1, # of connection points: 2
#     Edge 12, Type (0, 0), BuildingBlock: KIFKEQ_clean_linker_1, # of connection points: 2
#     Edge 13, Type (0, 0), BuildingBlock: KIFKEQ_clean_linker_1, # of connection points: 2
#     Edge 14, Type (0, 0), BuildingBlock: KIFKEQ_clean_linker_1, # of connection points: 2
#     Edge 15, Type (0, 0), BuildingBlock: KIFKEQ_clean_linker_1, # of connection points: 2
#     Edge 16, Type (0, 0), BuildingBlock: KIFKEQ_clean_linker_1, # of connection points: 2
#     Edge 17, Type (0, 0), BuildingBlock: KIFKEQ_clean_linker_1, # of connection points: 2
#     Edge 18, Type (0, 0), BuildingBlock: KIFKEQ_clean_linker_1, # of connection points: 2
#     Edge 19, Type (0, 0), BuildingBlock: KIFKEQ_clean_linker_1, # of connection points: 2
#     Edge 20, Type (0, 0), BuildingBlock: KIFKEQ_clean_linker_1, # of connection points: 2
#     Edge 21, Type (0, 0), BuildingBlock: KIFKEQ_clean_linker_1, # of connection points: 2
#     Edge 22, Type (0, 0), BuildingBlock: KIFKEQ_clean_linker_1, # of connection points: 2
#     Edge 23, Type (0, 0), BuildingBlock: KIFKEQ_clean_linker_1, # of connection points: 2
# Relax obj value: 0.189
# Max RMSD: 0.231
# Mean RMSD: 0.231
data_MOF--net-sml--node1-PAMTOO_clean_sbu_0--edge1-KIFKEQ_clean_linker_1
_symmetry_space_group_name_H-M    P1
_symmetry_Int_Tables_number       1
_symmetry_cell_setting            triclinic
loop_
_symmetry_equiv_pos_as_xyz
'x, y, z'
_cell_length_a     34.372482
_cell_length_b     34.552725
_cell_length_c     24.916413
_cell_angle_alpha  90.249922
_cell_angle_beta   89.924027
_cell_angle_gamma 119.77426
loop_
_atom_site_label
_atom_site_type_symbol
_atom_site_fract_x
_atom_site_fract_y
_atom_site_fract_z
_atom_type_partial_charge
Dy0 Dy 0.13771 0.3919 0.97255 0.0
Dy1 Dy 0.20156 0.40139 0.07725 0.0
C2 C 0.19965 0.34645 0.97433 0.0
O3 O 0.09126 0.34989 0.03688 0.0
O4 O 0.14005 0.3346 0.08233 0.0
O5 O 0.08462 0.3514 0.91689 0.0
O6 O 0.11936 0.42339 0.91052 0.0
O7 O 0.1515 0.42002 0.10422 0.0
O8 O 0.14275 0.44731 0.0248 0.0
O9 O 0.24189 0.46122 0.02555 0.0
O10 O 0.20778 0.43276 0.94446 0.0
O11 O 0.24451 0.44312 0.14107 0.0
O12 O 0.22872 0.37425 0.13448 0.0
C13 C 0.09914 0.32559 0.07077 0.0
O14 O 0.16057 0.34198 0.96119 0.0
O15 O 0.225 0.37414 1.01203 0.0
C16 C 0.09971 0.38246 0.8301 0.0
C17 C 0.11916 0.38192 0.72012 0.0
C18 C 0.13933 0.36806 0.75889 0.0
C19 C 0.12987 0.36854 0.81339 0.0
C20 C 0.07912 0.39583 0.79165 0.0
C21 C 0.08878 0.39563 0.7371 0.0
C22 C 0.09176 0.38553 0.88758 0.0
C23 C 0.14122 0.44617 0.07749 0.0
C24 C 0.24169 0.46238 0.97277 0.0
C25 C 0.23304 0.40369 0.22121 0.0
C26 C 0.20802 0.39623 0.3302 0.0
C27 C 0.17519 0.37756 0.28975 0.0
C28 C 0.18759 0.38143 0.23573 0.0
C29 C 0.26591 0.42193 0.26128 0.0
C30 C 0.25354 0.41828 0.31535 0.0
C31 C 0.24605 0.41015 0.16432 0.0
H32 H 0.16332 0.35791 0.74721 0.0
H33 H 0.14661 0.35867 0.84257 0.0
H34 H 0.05599 0.40695 0.80388 0.0
H35 H 0.07243 0.40614 0.70817 0.0
H36 H 0.13987 0.36091 0.29976 0.0
H37 H 0.16171 0.36766 0.20521 0.0
H38 H 0.30113 0.43945 0.25072 0.0
H39 H 0.27962 0.43263 0.34557 0.0
Dy40 Dy 0.73716 0.15743 0.30787 0.0
Dy41 Dy 0.80115 0.21452 0.41156 0.0
C42 C 0.84242 0.19144 0.31102 0.0
O43 O 0.71978 0.10731 0.37232 0.0
O44 O 0.78581 0.14387 0.4198 0.0
O45 O 0.71207 0.10345 0.25018 0.0
O46 O 0.69165 0.15344 0.24554 0.0
O47 O 0.7313 0.17827 0.44119 0.0
O48 O 0.69517 0.17396 0.36241 0.0
O49 O 0.79141 0.26241 0.36017 0.0
O50 O 0.78281 0.2263 0.28051 0.0
O51 O 0.81543 0.26324 0.47417 0.0
O52 O 0.85481 0.23023 0.46791 0.0
C53 C 0.74774 0.10764 0.40844 0.0
O54 O 0.8023 0.15841 0.29904 0.0
O55 O 0.84862 0.22223 0.34651 0.0
C56 C 0.70499 0.12769 0.16406 0.0
C57 C 0.72901 0.14639 0.0548 0.0
C58 C 0.76217 0.15893 0.09463 0.0
C59 C 0.75028 0.14989 0.14874 0.0
C60 C 0.67179 0.11482 0.12457 0.0
C61 C 0.68365 0.12412 0.07042 0.0
C62 C 0.69253 0.12035 0.22126 0.0
C63 C 0.69593 0.17284 0.41517 0.0
C64 C 0.79118 0.26215 0.30739 0.0
C65 C 0.83636 0.24366 0.55475 0.0
C66 C 0.81603 0.22261 0.6644 0.0
C67 C 0.79593 0.18935 0.62467 0.0
C68 C 0.80585 0.19982 0.57037 0.0
C69 C 0.85687 0.27684 0.59413 0.0
C70 C 0.8468 0.26645 0.64848 0.0
C71 C 0.84467 0.25527 0.49745 0.0
H72 H 0.79738 0.17667 0.08411 0.0
H73 H 0.77648 0.1608 0.17874 0.0
H74 H 0.63669 0.09798 0.13567 0.0
H75 H 0.6573 0.11371 0.04072 0.0
H76 H 0.77165 0.15542 0.63542 0.0
H77 H 0.78917 0.1738 0.54047 0.0
H78 H 0.88028 0.3109 0.5828 0.0
H79 H 0.86319 0.29274 0.67807 0.0
Dy80 Dy 0.56348 0.75496 0.67152 0.0
Dy81 Dy 0.55946 0.81337 0.77553 0.0
C82 C 0.62123 0.86119 0.67553 0.0
O83 O 0.59853 0.74147 0.73713 0.0
O84 O 0.61957 0.80524 0.78655 0.0
O85 O 0.60079 0.74027 0.61255 0.0
O86 O 0.52824 0.70481 0.61091 0.0
O87 O 0.52927 0.74325 0.8018 0.0
O88 O 0.50321 0.70919 0.72064 0.0
O89 O 0.50144 0.79948 0.72158 0.0
O90 O 0.53228 0.7937 0.64257 0.0
O91 O 0.52058 0.82254 0.83713 0.0
O92 O 0.59236 0.86705 0.83315 0.0
C93 C 0.62343 0.77026 0.77418 0.0
O94 O 0.62191 0.82417 0.66545 0.0
O95 O 0.59361 0.86266 0.71077 0.0
C96 C 0.56563 0.72504 0.52786 0.0
C97 C 0.56739 0.7468 0.41847 0.0
C98 C 0.54865 0.76256 0.45702 0.0
C99 C 0.54795 0.75195 0.51114 0.0
C100 C 0.58463 0.70943 0.4897 0.0
C101 C 0.58563 0.72031 0.43541 0.0
C102 C 0.56486 0.71402 0.58505 0.0
C103 C 0.50119 0.70875 0.77334 0.0
C104 C 0.50295 0.8001 0.66879 0.0
C105 C 0.55992 0.84474 0.91863 0.0
C106 C 0.56601 0.82682 0.02786 0.0
C107 C 0.56191 0.79627 0.98763 0.0
C108 C 0.55913 0.80526 0.93362 0.0
C109 C 0.56431 0.87552 0.95826 0.0
C110 C 0.56741 0.8667 1.01244 0.0
C111 C 0.55604 0.85341 0.86172 0.0
H112 H 0.53497 0.78358 0.44541 0.0
H113 H 0.53356 0.76481 0.53996 0.0
H114 H 0.59862 0.6888 0.50187 0.0
H115 H 0.60007 0.70748 0.40659 0.0
H116 H 0.56003 0.76495 0.99784 0.0
H117 H 0.55596 0.78116 0.9035 0.0
H118 H 0.56529 0.9063 0.94734 0.0
H119 H 0.57124 0.89131 0.04216 0.0
Dy120 Dy 0.79448 0.56452 0.99369 0.0
Dy121 Dy 0.73191 0.56242 0.09719 0.0
C122 C 0.75368 0.63007 1.00095 0.0
O123 O 0.84341 0.59833 0.05923 0.0
O124 O 0.80145 0.61878 0.11223 0.0
O125 O 0.84853 0.59808 0.93675 0.0
O126 O 0.80313 0.52693 0.92997 0.0
O127 O 0.77043 0.53074 0.12506 0.0
O128 O 0.78153 0.50561 0.04447 0.0
O129 O 0.68748 0.50632 0.04117 0.0
O130 O 0.7254 0.53936 0.96445 0.0
O131 O 0.68329 0.52391 0.1581 0.0
O132 O 0.71032 0.59534 0.15403 0.0
C133 C 0.83996 0.6221 0.09831 0.0
O134 O 0.78861 0.62596 0.98829 0.0
O135 O 0.72299 0.60319 0.03498 0.0
C136 C 0.82611 0.56745 0.84984 0.0
C137 C 0.80493 0.571 0.74099 0.0
C138 C 0.78636 0.58491 0.78205 0.0
C139 C 0.79674 0.58302 0.8359 0.0
C140 C 0.84513 0.55402 0.80925 0.0
C141 C 0.8347 0.5558 0.75531 0.0
C142 C 0.83452 0.56255 0.90667 0.0
C143 C 0.77929 0.5039 0.09722 0.0
C144 C 0.68945 0.50903 0.98848 0.0
C145 C 0.69915 0.56307 0.23976 0.0
C146 C 0.72139 0.56754 0.34965 0.0
C147 C 0.75398 0.57732 0.30974 0.0
C148 C 0.74293 0.575 0.25538 0.0
C149 C 0.66654 0.5535 0.2792 0.0
C150 C 0.67753 0.55568 0.33369 0.0
C151 C 0.68741 0.55928 0.18242 0.0
H152 H 0.76383 0.59736 0.77262 0.0
H153 H 0.78141 0.59322 0.86677 0.0
H154 H 0.86745 0.54142 0.81931 0.0
H155 H 0.84913 0.5442 0.72494 0.0
H156 H 0.78787 0.58591 0.32047 0.0
H157 H 0.7685 0.58212 0.22543 0.0
H158 H 0.63256 0.54414 0.26786 0.0
H159 H 0.65175 0.54839 0.36335 0.0
Dy160 Dy 0.22234 0.7989 0.31838 0.0
Dy161 Dy 0.15952 0.73668 0.42035 0.0
C162 C 0.116 0.75799 0.31978 0.0
O163 O 0.21066 0.84476 0.37083 0.0
O164 O 0.19972 0.80656 0.4496 0.0
O165 O 0.23623 0.84746 0.25613 0.0
O166 O 0.27649 0.81549 0.26242 0.0
O167 O 0.22666 0.74191 0.42386 0.0
O168 O 0.26977 0.8104 0.38594 0.0
O169 O 0.14091 0.68921 0.35133 0.0
O170 O 0.20733 0.72886 0.30594 0.0
O171 O 0.14135 0.68263 0.47625 0.0
O172 O 0.11301 0.72602 0.48462 0.0
C173 C 0.20881 0.84295 0.42346 0.0
O174 O 0.15157 0.76693 0.29124 0.0
O175 O 0.11453 0.75235 0.372 0.0
C176 C 0.25713 0.82716 0.17558 0.0
C177 C 0.23744 0.80354 0.06599 0.0
C178 C 0.21362 0.7725 0.10671 0.0
C179 C 0.22325 0.78426 0.16085 0.0
C180 C 0.28137 0.85812 0.13539 0.0
C181 C 0.27166 0.84646 0.08109 0.0
C182 C 0.26575 0.83983 0.23275 0.0
C183 C 0.26499 0.77912 0.41956 0.0
C184 C 0.16891 0.69214 0.31344 0.0
C185 C 0.13193 0.70292 0.56408 0.0
C186 C 0.15595 0.72256 0.67348 0.0
C187 C 0.18884 0.74033 0.63306 0.0
C188 C 0.17691 0.73079 0.57889 0.0
C189 C 0.09912 0.68461 0.60415 0.0
C190 C 0.11097 0.69432 0.65833 0.0
C191 C 0.11883 0.69523 0.507 0.0
H192 H 0.18756 0.73898 0.09682 0.0
H193 H 0.20395 0.75993 0.19133 0.0
H194 H 0.30741 0.8915 0.14599 0.0
H195 H 0.29031 0.87143 0.05101 0.0
H196 H 0.22367 0.76261 0.64316 0.0
H197 H 0.20271 0.7458 0.54848 0.0
H198 H 0.06422 0.66326 0.59351 0.0
H199 H 0.08487 0.67967 0.6884 0.0
Dy200 Dy 0.40545 0.22578 0.64222 0.0
Dy201 Dy 0.39595 0.16142 0.74662 0.0
C202 C 0.33508 0.1202 0.64253 0.0
O203 O 0.37038 0.24263 0.70478 0.0
O204 O 0.34121 0.17835 0.75483 0.0
O205 O 0.37854 0.25284 0.58455 0.0
O206 O 0.44864 0.27104 0.58134 0.0
O207 O 0.42986 0.23064 0.7768 0.0
O208 O 0.4626 0.26712 0.69871 0.0
O209 O 0.45443 0.17064 0.69645 0.0
O210 O 0.42855 0.17942 0.61577 0.0
O211 O 0.42986 0.14622 0.80896 0.0
O212 O 0.35746 0.10854 0.8029 0.0
C213 C 0.34265 0.2158 0.74127 0.0
O214 O 0.34349 0.16008 0.62733 0.0
O215 O 0.35674 0.11388 0.6818 0.0
C216 C 0.41106 0.25986 0.49933 0.0
C217 C 0.40489 0.23665 0.38968 0.0
C218 C 0.39097 0.20371 0.42954 0.0
C219 C 0.39427 0.21528 0.48384 0.0
C220 C 0.42486 0.29287 0.45989 0.0
C221 C 0.42193 0.28139 0.40545 0.0
C222 C 0.41557 0.27182 0.55662 0.0
C223 C 0.46061 0.26551 0.75153 0.0
C224 C 0.45448 0.16956 0.64373 0.0
C225 C 0.38952 0.12635 0.88968 0.0
C226 C 0.39016 0.14797 0.99922 0.0
C227 C 0.37234 0.16429 0.96037 0.0
C228 C 0.37227 0.1538 0.90607 0.0
C229 C 0.40681 0.10955 0.92827 0.0
C230 C 0.40719 0.12029 0.98258 0.0
C231 C 0.3925 0.11784 0.83227 0.0
H232 H 0.37835 0.16908 0.41881 0.0
H233 H 0.38419 0.1895 0.51387 0.0
H234 H 0.43815 0.32749 0.47118 0.0
H235 H 0.43264 0.30746 0.37568 0.0
H236 H 0.35953 0.18616 0.97177 0.0
H237 H 0.35943 0.16774 0.87678 0.0
H238 H 0.42061 0.08864 0.91631 0.0
H239 H 0.42079 0.10691 1.01158 0.0
H240 H 0.27253 0.16694 0.80961 0.0
H241 H 0.35313 0.2991 0.74352 0.0
H242 H 0.23406 0.19509 0.86733 0.0
H243 H 0.31527 0.32674 0.80155 0.0
H244 H 0.2861 0.36468 0.96855 0.0
H245 H 0.31666 0.32927 0.91072 0.0
H246 H 0.18403 0.23813 0.85124 0.0
H247 H 0.15299 0.27399 0.90868 0.0
C248 C 0.28169 0.20174 0.80698 0.0
C249 C 0.31592 0.23082 0.77214 0.0
C250 C 0.25967 0.21768 0.83984 0.0
C251 C 0.2722 0.26299 0.83886 0.0
C252 C 0.30542 0.2917 0.8031 0.0
C253 C 0.32685 0.27574 0.76975 0.0
C254 C 0.26327 0.33679 0.94368 0.0
C255 C 0.21716 0.32221 0.94295 0.0
C256 C 0.28083 0.31673 0.9105 0.0
C257 C 0.25257 0.28132 0.87665 0.0
C258 C 0.20628 0.2654 0.87727 0.0
C259 C 0.18869 0.286 0.9099 0.0
H260 H 0.01005 0.28739 0.04837 0.0
H261 H 0.10335 0.28602 0.16357 0.0
H262 H 0.94809 0.24133 0.10795 0.0
H263 H 0.0411 0.23975 0.22314 0.0
H264 H 0.931 0.24591 0.33311 0.0
H265 H -0.00619 0.26499 0.27314 0.0
H266 H 0.90417 0.16863 0.1573 0.0
H267 H 0.84105 0.1494 0.2173 0.0
C268 C 0.01722 0.27641 0.08585 0.0
C269 C 0.06154 0.29093 0.10173 0.0
C270 C -0.0183 0.24968 0.11975 0.0
C271 C -0.01005 0.23732 0.17027 0.0
C272 C 0.03399 0.24916 0.18451 0.0
C273 C 0.06953 0.27555 0.15035 0.0
C274 C 0.92478 0.2281 0.29536 0.0
C275 C 0.88103 0.1968 0.27946 0.0
C276 C 0.96082 0.23871 0.26124 0.0
C277 C 0.95369 0.21845 0.21048 0.0
C278 C 0.91041 0.18491 0.19612 0.0
C279 C 0.87436 0.17394 0.23051 0.0
H280 H 0.79952 0.08916 0.47521 0.0
H281 H 0.66321 0.03773 0.42015 0.0
H282 H 0.77314 0.02921 0.54155 0.0
H283 H 0.63729 0.97866 0.48678 0.0
H284 H 0.60922 0.93263 0.66273 0.0
H285 H 0.64343 -0.00917 0.59531 0.0
H286 H 0.72532 0.93596 0.54103 0.0
H287 H 0.69058 0.87675 0.60824 0.0
C288 C 0.76414 0.06476 0.4767 0.0
C289 C 0.73339 0.0682 0.44266 0.0
C290 C 0.74919 0.03059 0.51452 0.0
C291 C 0.70331 -0.0 0.51927 0.0
C292 C 0.67284 0.00231 0.48391 0.0
C293 C 0.68776 0.03591 0.44563 0.0
C294 C 0.63503 0.93324 0.63716 0.0
C295 C 0.64708 0.89998 0.64059 0.0
C296 C 0.6543 0.96636 0.59839 0.0
C297 C 0.68642 0.96724 0.56296 0.0
C298 C 0.70045 0.93564 0.56807 0.0
C299 C 0.6806 0.90193 0.60641 0.0
H300 H 0.65933 0.80371 0.87277 0.0
H301 H 0.65623 0.71553 0.74711 0.0
H302 H 0.70162 0.7803 0.92982 0.0
H303 H 0.69829 0.69222 0.80412 0.0
H304 H 0.69681 0.66059 0.02798 0.0
H305 H 0.67555 0.70515 0.97283 0.0
H306 H 0.77166 0.71765 0.85252 0.0
H307 H 0.79302 0.67291 0.9076 0.0
C308 C 0.66847 0.78006 0.85693 0.0
C309 C 0.65415 0.76108 0.8057 0.0
C310 C 0.69249 0.7666 0.88965 0.0
C311 C 0.70307 0.73442 0.87137 0.0
C312 C 0.69099 0.71743 0.819 0.0
C313 C 0.66656 0.73048 0.78656 0.0
C314 C 0.71399 0.6735 0.99022 0.0
C315 C 0.74615 0.66281 0.9718 0.0
C316 C 0.70209 0.69933 0.95887 0.0
C317 C 0.72184 0.71458 0.90834 0.0
C318 C 0.75576 0.70599 0.89121 0.0
C319 C 0.76804 0.68053 0.92284 0.0
H320 H 0.11065 0.78431 0.21878 0.0
H321 H 0.02922 0.71256 0.35518 0.0
H322 H 0.04333 0.76087 0.16545 0.0
H323 H 0.96174 0.68805 0.30121 0.0
H324 H 0.8454 0.66381 0.19417 0.0
H325 H 0.91225 0.70657 0.24941 0.0
H326 H -0.00781 0.68795 0.129 0.0
H327 H 0.92618 0.64639 0.07368 0.0
C328 C 0.07832 0.7639 0.23754 0.0
C329 C 0.07516 0.74958 0.29085 0.0
C330 C 0.03979 0.75042 0.20695 0.0
C331 C -0.00267 0.72199 0.22886 0.0
C332 C -0.006 0.71016 0.28329 0.0
C333 C 0.03265 0.72401 0.31413 0.0
C334 C 0.87742 0.66955 0.17917 0.0
C335 C 0.8805 0.65152 0.12968 0.0
C336 C 0.91559 0.69379 0.21094 0.0
C337 C 0.95744 0.70065 0.19354 0.0
C338 C 0.9606 0.68391 0.14322 0.0
C339 C 0.9226 0.65966 0.11167 0.0
H340 H 0.32419 0.11534 0.53413 0.0
H341 H 0.27798 0.03702 0.6786 0.0
H342 H 0.28733 0.04763 0.48008 0.0
H343 H 0.23822 0.96935 0.62498 0.0
H344 H 0.24005 0.8606 0.52543 0.0
H345 H 0.26229 0.92756 0.5774 0.0
H346 H 0.22478 -0.01627 0.4458 0.0
H347 H 0.20467 0.91682 0.39237 0.0
C348 C 0.30475 0.08367 0.55418 0.0
C349 C 0.30437 0.08113 0.61037 0.0
C350 C 0.28343 0.04477 0.52324 0.0
C351 C 0.26059 0.00275 0.5481 0.0
C352 C 0.25684 0.00092 0.60443 0.0
C353 C 0.27915 0.03965 0.63524 0.0
C354 C 0.23626 0.8871 0.50762 0.0
C355 C 0.22068 0.88355 0.45484 0.0
C356 C 0.24861 0.92549 0.53771 0.0
C357 C 0.24484 0.96108 0.51624 0.0
C358 C 0.22856 0.95723 0.4635 0.0
C359 C 0.21693 0.91892 0.43291 0.0
H360 H 0.1371 0.44782 0.64747 0.0
H361 H 0.12765 0.31893 0.66235 0.0
H362 H 0.15766 0.45064 0.55316 0.0
H363 H 0.14919 0.32221 0.56829 0.0
H364 H 0.14219 0.32433 0.38364 0.0
H365 H 0.11951 0.32053 0.47731 0.0
H366 H 0.22179 0.45804 0.5002 0.0
H367 H 0.24376 0.46216 0.4063 0.0
C368 C 0.13915 0.41997 0.63051 0.0
C369 C 0.1307 0.38313 0.66238 0.0
C370 C 0.1514 0.42181 0.57664 0.0
C371 C 0.15519 0.38671 0.55328 0.0
C372 C 0.14623 0.34963 0.58498 0.0
C373 C 0.13429 0.34793 0.63897 0.0
C374 C 0.15965 0.35381 0.40861 0.0
C375 C 0.1948 0.39354 0.38752 0.0
C376 C 0.14693 0.35151 0.46238 0.0
C377 C 0.16883 0.38899 0.49618 0.0
C378 C 0.20395 0.42871 0.47508 0.0
C379 C 0.21687 0.43092 0.42143 0.0
H380 H 0.69398 0.17935 0.98114 0.0
H381 H 0.79305 0.13808 0.99854 0.0
H382 H 0.71514 0.19746 0.88713 0.0
H383 H 0.81485 0.15707 0.90479 0.0
H384 H 0.80561 0.1497 0.71987 0.0
H385 H 0.78428 0.131 0.81376 0.0
H386 H 0.77906 0.25256 0.83355 0.0
H387 H 0.79939 0.27077 0.73939 0.0
C388 C 0.72015 0.17396 0.96484 0.0
C389 C 0.74175 0.15717 0.99735 0.0
C390 C 0.7326 0.18479 0.91111 0.0
C391 C 0.76675 0.17879 0.88843 0.0
C392 C 0.78817 0.16175 0.92086 0.0
C393 C 0.77595 0.15124 0.97471 0.0
C394 C 0.79969 0.17233 0.74419 0.0
C395 C 0.8042 0.21174 0.72206 0.0
C396 C 0.78787 0.16181 0.79814 0.0
C397 C 0.77993 0.19027 0.83119 0.0
C398 C 0.78451 0.2297 0.80908 0.0
C399 C 0.79664 0.24038 0.75525 0.0
H400 H 0.49911 0.74474 0.36031 0.0
H401 H 0.63639 0.77433 0.34659 0.0
H402 H 0.49967 0.76444 0.26649 0.0
H403 H 0.63745 0.79503 0.25284 0.0
H404 H 0.60894 0.78568 0.07265 0.0
H405 H 0.60878 0.76542 0.16607 0.0
H406 H 0.52967 0.82678 0.20795 0.0
H407 H 0.52753 0.84463 0.11407 0.0
C408 C 0.52957 0.75585 0.33729 0.0
C409 C 0.56774 0.75806 0.3609 0.0
C410 C 0.52998 0.76732 0.2835 0.0
C411 C 0.56869 0.78163 0.25197 0.0
C412 C 0.60683 0.78359 0.27559 0.0
C413 C 0.60629 0.77178 0.32936 0.0
C414 C 0.59108 0.79445 0.10164 0.0
C415 C 0.56803 0.81661 0.08555 0.0
C416 C 0.59151 0.78334 0.15547 0.0
C417 C 0.56913 0.79433 0.19474 0.0
C418 C 0.5467 0.81714 0.17878 0.0
C419 C 0.54604 0.828 0.12492 0.0
H420 H 0.72254 0.54908 0.69951 0.0
H421 H 0.85936 0.59394 0.6523 0.0
H422 H 0.70244 0.55006 0.60604 0.0
H423 H 0.83878 0.59286 0.55856 0.0
H424 H 0.79743 0.62971 0.40138 0.0
H425 H 0.81735 0.63139 0.49556 0.0
H426 H 0.69193 0.51028 0.52313 0.0
H427 H 0.67192 0.50885 0.42903 0.0
C428 C 0.74842 0.5593 0.66926 0.0
C429 C 0.79266 0.57155 0.68366 0.0
C430 C 0.73672 0.55929 0.61547 0.0
C431 C 0.76891 0.57144 0.57455 0.0
C432 C 0.81317 0.5838 0.58896 0.0
C433 C 0.82489 0.58387 0.64276 0.0
C434 C 0.77419 0.60331 0.42748 0.0
C435 C 0.73307 0.56912 0.40754 0.0
C436 C 0.78565 0.60423 0.48154 0.0
C437 C 0.75634 0.57092 0.51711 0.0
C438 C 0.71507 0.53689 0.4972 0.0
C439 C 0.70357 0.53604 0.44316 0.0
H440 H 0.22825 0.7285 0.72773 0.0
H441 H 0.11181 0.74354 0.74959 0.0
H442 H 0.24819 0.74767 0.82195 0.0
H443 H 0.13193 0.76324 0.8434 0.0
H444 H 0.15412 0.75277 0.02109 0.0
H445 H 0.13514 0.73227 0.92737 0.0
H446 H 0.27535 0.80811 0.88521 0.0
H447 H 0.29457 0.82679 0.97955 0.0
C448 C 0.20708 0.73623 0.75254 0.0
C449 C 0.16829 0.73424 0.73106 0.0
C450 C 0.21856 0.74733 0.80661 0.0
C451 C 0.19166 0.75695 0.8406 0.0
C452 C 0.15302 0.7552 0.8189 0.0
C453 C 0.14146 0.74392 0.76497 0.0
C454 C 0.18104 0.76463 0.99204 0.0
C455 C 0.22596 0.79139 1.00821 0.0
C456 C 0.17007 0.75334 0.93799 0.0
C457 C 0.20363 0.76862 0.89838 0.0
C458 C 0.24858 0.79531 0.91451 0.0
C459 C 0.25959 0.80653 0.96866 0.0
H460 H 0.33552 0.16671 0.33732 0.0
H461 H 0.46822 0.2785 0.3117 0.0
H462 H 0.33188 0.14511 0.24317 0.0
H463 H 0.46428 0.25732 0.21731 0.0
H464 H 0.45987 0.17422 0.06966 0.0
H465 H 0.46303 0.19572 0.16376 0.0
H466 H 0.32785 0.17285 0.1525 0.0
H467 H 0.32441 0.15061 0.05859 0.0
C468 C 0.36391 0.18666 0.31156 0.0
C469 C 0.40218 0.2243 0.33198 0.0
C470 C 0.36166 0.17451 0.25754 0.0
C471 C 0.3978 0.19947 0.22278 0.0
C472 C 0.43604 0.23717 0.24317 0.0
C473 C 0.43812 0.24956 0.29709 0.0
C474 C 0.4307 0.17342 0.0874 0.0
C475 C 0.39185 0.16061 0.05669 0.0
C476 C 0.43268 0.18618 0.14114 0.0
C477 C 0.39572 0.18607 0.16556 0.0
C478 C 0.35676 0.17297 0.13496 0.0
C479 C 0.35492 0.16058 0.08107 0.0
H480 H 0.12152 0.44238 0.18388 0.0
H481 H 0.14091 0.52088 0.04142 0.0
H482 H 0.12 0.50009 0.23847 0.0
H483 H 0.13881 0.57864 0.09637 0.0
H484 H 0.21196 0.69242 0.22164 0.0
H485 H 0.19483 0.63063 0.16161 0.0
H486 H 0.08205 0.54346 0.26084 0.0
H487 H 0.09932 0.60586 0.32176 0.0
C488 C 0.12456 0.4716 0.16403 0.0
C489 C 0.13206 0.47741 0.10837 0.0
C490 C 0.12333 0.50453 0.19537 0.0
C491 C 0.12979 0.54411 0.17181 0.0
C492 C 0.13435 0.54868 0.11569 0.0
C493 C 0.1353 0.51553 0.08419 0.0
C494 C 0.18335 0.6602 0.23082 0.0
C495 C 0.15728 0.654 0.27694 0.0
C496 C 0.17323 0.62485 0.19589 0.0
C497 C 0.13694 0.58223 0.20628 0.0
C498 C 0.11033 0.57598 0.25193 0.0
C499 C 0.12024 0.61164 0.2868 0.0
H500 H 0.62672 0.18627 0.38591 0.0
H501 H 0.67633 0.14145 0.51704 0.0
H502 H 0.56589 0.17956 0.44295 0.0
H503 H 0.61487 0.13308 0.57328 0.0
H504 H 0.44344 0.13582 0.54303 0.0
H505 H 0.49853 0.12997 0.48757 0.0
H506 H 0.5924 0.17858 0.61994 0.0
H507 H 0.53627 0.18269 0.6761 0.0
C508 C 0.62414 0.17427 0.42658 0.0
C509 C 0.65648 0.16488 0.44715 0.0
C510 C 0.5892 0.17018 0.4593 0.0
C511 C 0.58559 0.15602 0.51298 0.0
C512 C 0.61711 0.14501 0.53265 0.0
C513 C 0.65224 0.14961 0.50024 0.0
C514 C 0.47566 0.14461 0.56051 0.0
C515 C 0.48578 0.16001 0.61376 0.0
C516 C 0.50738 0.14162 0.52855 0.0
C517 C 0.55023 0.15451 0.54885 0.0
C518 C 0.55961 0.16799 0.60302 0.0
C519 C 0.52754 0.17043 0.6353 0.0
H520 H 0.32681 0.51515 1.01101 0.0
H521 H 0.24541 0.48754 0.86862 0.0
H522 H 0.39169 0.57119 0.96194 0.0
H523 H 0.30954 0.54468 0.82026 0.0
H524 H 0.44065 0.62632 0.73275 0.0
H525 H 0.37989 0.56435 0.78111 0.0
H526 H 0.41953 0.64321 0.92681 0.0
H527 H 0.48073 0.7038 0.87946 0.0
C528 C 0.3227 0.52136 0.9694 0.0
C529 C 0.28099 0.49709 0.94379 0.0
C530 C 0.35984 0.55354 0.94123 0.0
C531 C 0.35592 0.5626 0.88705 0.0
C532 C 0.31411 0.53811 0.86154 0.0
C533 C 0.27718 0.50558 0.88949 0.0
C534 C 0.43654 0.63012 0.7752 0.0
C535 C 0.46553 0.66998 0.80214 0.0
C536 C 0.40157 0.59475 0.8029 0.0
C537 C 0.39467 0.59875 0.85794 0.0
C538 C 0.42419 0.63848 0.88479 0.0
C539 C 0.45924 0.67348 0.85736 0.0
H540 H 0.78194 0.26711 0.19957 0.0
H541 H 0.81463 0.34593 0.34498 0.0
H542 H 0.78441 0.32786 0.14905 0.0
H543 H 0.81907 0.40802 0.29353 0.0
H544 H 0.75906 0.48031 0.20172 0.0
H545 H 0.7684 0.42574 0.25193 0.0
H546 H 0.82716 0.39978 0.11252 0.0
H547 H 0.81598 0.45365 0.0612 0.0
C548 C 0.79048 0.29778 0.22074 0.0
C549 C 0.79763 0.30146 0.27659 0.0
C550 C 0.79228 0.3329 0.19146 0.0
C551 C 0.80171 0.37292 0.21706 0.0
C552 C 0.81082 0.37735 0.27261 0.0
C553 C 0.80856 0.34189 0.30213 0.0
C554 C 0.77417 0.46316 0.18163 0.0
C555 C 0.78656 0.47117 0.12724 0.0
C556 C 0.77996 0.43206 0.21076 0.0
C557 C 0.79875 0.40836 0.18656 0.0
C558 C 0.81199 0.41697 0.13232 0.0
C559 C 0.8057 0.44789 0.10286 0.0
H560 H 0.26149 0.72525 0.50108 0.0
H561 H 0.35077 0.85033 0.42362 0.0
H562 H 0.3198 0.73787 0.56502 0.0
H563 H 0.40946 0.863 0.48842 0.0
H564 H 0.51247 0.82794 0.56552 0.0
H565 H 0.45581 0.82805 0.50747 0.0
H566 H 0.36346 0.78735 0.64077 0.0
H567 H 0.42039 0.78663 0.69921 0.0
C568 C 0.29361 0.75549 0.49756 0.0
C569 C 0.30159 0.78663 0.4568 0.0
C570 C 0.32686 0.76295 0.53478 0.0
C571 C 0.36906 0.80158 0.53205 0.0
C572 C 0.37722 0.83283 0.49136 0.0
C573 C 0.3437 0.82552 0.45421 0.0
C574 C 0.48025 0.8195 0.58273 0.0
C575 C 0.47059 0.80664 0.63678 0.0
C576 C 0.44793 0.81997 0.54948 0.0
C577 C 0.4051 0.80736 0.56943 0.0
C578 C 0.3961 0.7967 0.6242 0.0
C579 C 0.4287 0.79658 0.65772 0.0
H580 H 0.60536 0.44288 1.01871 0.0
H581 H 0.68979 0.5016 0.87984 0.0
H582 H 0.54716 0.38691 0.96063 0.0
H583 H 0.63319 0.44513 0.82283 0.0
H584 H 0.51185 0.35374 0.72357 0.0
H585 H 0.56279 0.41553 0.78166 0.0
H586 H 0.53412 0.32307 0.91219 0.0
H587 H 0.48228 0.26237 0.85526 0.0
C588 C 0.61146 0.44393 0.97594 0.0
C589 C 0.6523 0.47657 0.95414 0.0
C590 C 0.57828 0.41171 0.94259 0.0
C591 C 0.58551 0.41118 0.88689 0.0
C592 C 0.62594 0.44469 0.8652 0.0
C593 C 0.65872 0.47701 0.89826 0.0
C594 C 0.51659 0.34685 0.76467 0.0
C595 C 0.49311 0.30329 0.78478 0.0
C596 C 0.54576 0.38216 0.79804 0.0
C597 C 0.55251 0.37444 0.85192 0.0
C598 C 0.52908 0.33067 0.87155 0.0
C599 C 0.49961 0.29568 0.83857 0.0
loop_
_geom_bond_atom_site_label_1
_geom_bond_atom_site_label_2
_geom_bond_distance
_geom_bond_site_symmetry_2
_ccdc_geom_bond_type
Dy0 O3 2.307 1_556 S
Dy0 O5 2.395 . S
Dy0 O6 2.379 . S
Dy0 O8 2.330 1_556 S
Dy0 O10 2.298 . S
Dy0 O14 2.275 . S
Dy0 C22 2.738 . S
Dy1 O4 2.298 . S
Dy1 O7 2.275 . S
Dy1 O9 2.307 . S
Dy1 O11 2.395 . S
Dy1 O12 2.379 . S
Dy1 O15 2.339 . S
Dy1 C31 2.738 . S
C2 O14 1.254 . S
C2 O15 1.257 1_556 S
O3 Dy0 2.307 1_554 S
O3 C13 1.266 . S
O4 Dy1 2.298 . S
O4 C13 1.236 . S
O5 Dy0 2.395 . S
O5 C22 1.255 . S
O6 Dy0 2.379 . S
O6 C22 1.249 . S
O7 Dy1 2.275 . S
O7 C23 1.254 . S
O8 Dy0 2.330 1_554 S
O8 C23 1.272 . S
O9 Dy1 2.307 . S
O9 C24 1.266 1_554 S
O10 Dy0 2.298 . S
O10 C24 1.236 . S
O11 Dy1 2.395 . S
O11 C31 1.255 . S
O12 Dy1 2.379 . S
O12 C31 1.249 . S
C13 O3 1.266 . S
C13 O4 1.236 . S
O14 Dy0 2.275 . S
O14 C2 1.254 . S
O15 Dy1 2.339 . S
O15 C2 1.257 1_554 S
C16 C19 1.344 . S
C16 C20 1.328 . S
C16 C22 1.516 . S
C17 C18 1.304 . S
C17 C21 1.323 . S
C18 C17 1.304 . S
C18 C19 1.371 . S
C18 H32 0.930 . S
C19 C16 1.344 . S
C19 C18 1.371 . S
C19 H33 0.931 . S
C20 C16 1.328 . S
C20 C21 1.433 . S
C20 H34 0.931 . S
C21 C17 1.323 . S
C21 C20 1.433 . S
C21 H35 0.933 . S
C22 Dy0 2.738 . S
C22 O5 1.255 . S
C22 O6 1.249 . S
C22 C16 1.516 . S
C23 O7 1.254 . S
C23 O8 1.272 . S
C24 O9 1.266 1_556 S
C24 O10 1.236 . S
C25 C28 1.344 . S
C25 C29 1.328 . S
C25 C31 1.516 . S
C26 C27 1.304 . S
C26 C30 1.323 . S
C27 C26 1.304 . S
C27 C28 1.371 . S
C27 H36 0.930 . S
C28 C25 1.344 . S
C28 C27 1.371 . S
C28 H37 0.931 . S
C29 C25 1.328 . S
C29 C30 1.433 . S
C29 H38 0.931 . S
C30 C26 1.323 . S
C30 C29 1.433 . S
C30 H39 0.933 . S
C31 Dy1 2.738 . S
C31 O11 1.255 . S
C31 O12 1.249 . S
C31 C25 1.516 . S
H32 C18 0.930 . S
H33 C19 0.931 . S
H34 C20 0.931 . S
H35 C21 0.933 . S
H36 C27 0.930 . S
H37 C28 0.931 . S
H38 C29 0.931 . S
H39 C30 0.933 . S
Dy40 O43 2.307 . S
Dy40 O45 2.395 . S
Dy40 O46 2.379 . S
Dy40 O48 2.339 . S
Dy40 O50 2.298 . S
Dy40 O54 2.275 . S
Dy40 C62 2.738 . S
Dy41 O44 2.298 . S
Dy41 O47 2.275 . S
Dy41 O49 2.307 . S
Dy41 O51 2.395 . S
Dy41 O52 2.379 . S
Dy41 O55 2.339 . S
Dy41 C71 2.738 . S
C42 O54 1.254 . S
C42 O55 1.257 . S
O43 Dy40 2.307 . S
O43 C53 1.266 . S
O44 Dy41 2.298 . S
O44 C53 1.236 . S
O45 Dy40 2.395 . S
O45 C62 1.255 . S
O46 Dy40 2.379 . S
O46 C62 1.249 . S
O47 Dy41 2.275 . S
O47 C63 1.254 . S
O48 Dy40 2.339 . S
O48 C63 1.257 . S
O49 Dy41 2.307 . S
O49 C64 1.266 . S
O50 Dy40 2.298 . S
O50 C64 1.236 . S
O51 Dy41 2.395 . S
O51 C71 1.255 . S
O52 Dy41 2.379 . S
O52 C71 1.249 . S
C53 O43 1.266 . S
C53 O44 1.236 . S
O54 Dy40 2.275 . S
O54 C42 1.254 . S
O55 Dy41 2.339 . S
O55 C42 1.257 . S
C56 C59 1.344 . S
C56 C60 1.328 . S
C56 C62 1.516 . S
C57 C58 1.304 . S
C57 C61 1.323 . S
C58 C57 1.304 . S
C58 C59 1.371 . S
C58 H72 0.930 . S
C59 C56 1.344 . S
C59 C58 1.371 . S
C59 H73 0.931 . S
C60 C56 1.328 . S
C60 C61 1.433 . S
C60 H74 0.931 . S
C61 C57 1.323 . S
C61 C60 1.433 . S
C61 H75 0.933 . S
C62 Dy40 2.738 . S
C62 O45 1.255 . S
C62 O46 1.249 . S
C62 C56 1.516 . S
C63 O47 1.254 . S
C63 O48 1.257 . S
C64 O49 1.266 . S
C64 O50 1.236 . S
C65 C68 1.344 . S
C65 C69 1.328 . S
C65 C71 1.516 . S
C66 C67 1.304 . S
C66 C70 1.323 . S
C67 C66 1.304 . S
C67 C68 1.371 . S
C67 H76 0.930 . S
C68 C65 1.344 . S
C68 C67 1.371 . S
C68 H77 0.931 . S
C69 C65 1.328 . S
C69 C70 1.433 . S
C69 H78 0.931 . S
C70 C66 1.323 . S
C70 C69 1.433 . S
C70 H79 0.933 . S
C71 Dy41 2.738 . S
C71 O51 1.255 . S
C71 O52 1.249 . S
C71 C65 1.516 . S
H72 C58 0.930 . S
H73 C59 0.931 . S
H74 C60 0.931 . S
H75 C61 0.933 . S
H76 C67 0.930 . S
H77 C68 0.931 . S
H78 C69 0.931 . S
H79 C70 0.933 . S
Dy80 O83 2.307 . S
Dy80 O85 2.395 . S
Dy80 O86 2.379 . S
Dy80 O88 2.339 . S
Dy80 O90 2.298 . S
Dy80 O94 2.275 . S
Dy80 C102 2.738 . S
Dy81 O84 2.298 . S
Dy81 O87 2.275 . S
Dy81 O89 2.307 . S
Dy81 O91 2.395 . S
Dy81 O92 2.379 . S
Dy81 O95 2.339 . S
Dy81 C111 2.738 . S
C82 O94 1.254 . S
C82 O95 1.257 . S
O83 Dy80 2.307 . S
O83 C93 1.266 . S
O84 Dy81 2.298 . S
O84 C93 1.236 . S
O85 Dy80 2.395 . S
O85 C102 1.255 . S
O86 Dy80 2.379 . S
O86 C102 1.249 . S
O87 Dy81 2.275 . S
O87 C103 1.254 . S
O88 Dy80 2.339 . S
O88 C103 1.257 . S
O89 Dy81 2.307 . S
O89 C104 1.266 . S
O90 Dy80 2.298 . S
O90 C104 1.236 . S
O91 Dy81 2.395 . S
O91 C111 1.255 . S
O92 Dy81 2.379 . S
O92 C111 1.249 . S
C93 O83 1.266 . S
C93 O84 1.236 . S
O94 Dy80 2.275 . S
O94 C82 1.254 . S
O95 Dy81 2.339 . S
O95 C82 1.257 . S
C96 C99 1.344 . S
C96 C100 1.328 . S
C96 C102 1.516 . S
C97 C98 1.304 . S
C97 C101 1.323 . S
C98 C97 1.304 . S
C98 C99 1.371 . S
C98 H112 0.930 . S
C99 C96 1.344 . S
C99 C98 1.371 . S
C99 H113 0.931 . S
C100 C96 1.328 . S
C100 C101 1.433 . S
C100 H114 0.931 . S
C101 C97 1.323 . S
C101 C100 1.433 . S
C101 H115 0.933 . S
C102 Dy80 2.738 . S
C102 O85 1.255 . S
C102 O86 1.249 . S
C102 C96 1.516 . S
C103 O87 1.254 . S
C103 O88 1.257 . S
C104 O89 1.266 . S
C104 O90 1.236 . S
C105 C108 1.344 . S
C105 C109 1.328 . S
C105 C111 1.516 . S
C106 C107 1.304 1_554 S
C106 C110 1.323 1_554 S
C107 C106 1.304 1_556 S
C107 C108 1.371 . S
C107 H116 0.930 1_556 S
C108 C105 1.344 . S
C108 C107 1.371 . S
C108 H117 0.931 . S
C109 C105 1.328 . S
C109 C110 1.433 . S
C109 H118 0.931 . S
C110 C106 1.323 1_556 S
C110 C109 1.433 . S
C110 H119 0.933 . S
C111 Dy81 2.738 . S
C111 O91 1.255 . S
C111 O92 1.249 . S
C111 C105 1.516 . S
H112 C98 0.930 . S
H113 C99 0.931 . S
H114 C100 0.931 . S
H115 C101 0.933 . S
H116 C107 0.930 1_554 S
H117 C108 0.931 . S
H118 C109 0.931 . S
H119 C110 0.933 . S
Dy120 O123 2.307 1_556 S
Dy120 O125 2.395 . S
Dy120 O126 2.379 . S
Dy120 O128 2.330 1_556 S
Dy120 O130 2.298 . S
Dy120 O134 2.275 . S
Dy120 C142 2.738 . S
Dy121 O124 2.298 . S
Dy121 O127 2.275 . S
Dy121 O129 2.307 . S
Dy121 O131 2.395 . S
Dy121 O132 2.379 . S
Dy121 O135 2.339 . S
Dy121 C151 2.738 . S
C122 O134 1.254 . S
C122 O135 1.257 1_556 S
O123 Dy120 2.307 1_554 S
O123 C133 1.266 . S
O124 Dy121 2.298 . S
O124 C133 1.236 . S
O125 Dy120 2.395 . S
O125 C142 1.255 . S
O126 Dy120 2.379 . S
O126 C142 1.249 . S
O127 Dy121 2.275 . S
O127 C143 1.254 . S
O128 Dy120 2.330 1_554 S
O128 C143 1.272 . S
O129 Dy121 2.307 . S
O129 C144 1.266 1_554 S
O130 Dy120 2.298 . S
O130 C144 1.236 . S
O131 Dy121 2.395 . S
O131 C151 1.255 . S
O132 Dy121 2.379 . S
O132 C151 1.249 . S
C133 O123 1.266 . S
C133 O124 1.236 . S
O134 Dy120 2.275 . S
O134 C122 1.254 . S
O135 Dy121 2.339 . S
O135 C122 1.257 1_554 S
C136 C139 1.344 . S
C136 C140 1.328 . S
C136 C142 1.516 . S
C137 C138 1.304 . S
C137 C141 1.323 . S
C138 C137 1.304 . S
C138 C139 1.371 . S
C138 H152 0.930 . S
C139 C136 1.344 . S
C139 C138 1.371 . S
C139 H153 0.931 . S
C140 C136 1.328 . S
C140 C141 1.433 . S
C140 H154 0.931 . S
C141 C137 1.323 . S
C141 C140 1.433 . S
C141 H155 0.933 . S
C142 Dy120 2.738 . S
C142 O125 1.255 . S
C142 O126 1.249 . S
C142 C136 1.516 . S
C143 O127 1.254 . S
C143 O128 1.272 . S
C144 O129 1.266 1_556 S
C144 O130 1.236 . S
C145 C148 1.344 . S
C145 C149 1.328 . S
C145 C151 1.516 . S
C146 C147 1.304 . S
C146 C150 1.323 . S
C147 C146 1.304 . S
C147 C148 1.371 . S
C147 H156 0.930 . S
C148 C145 1.344 . S
C148 C147 1.371 . S
C148 H157 0.931 . S
C149 C145 1.328 . S
C149 C150 1.433 . S
C149 H158 0.931 . S
C150 C146 1.323 . S
C150 C149 1.433 . S
C150 H159 0.933 . S
C151 Dy121 2.738 . S
C151 O131 1.255 . S
C151 O132 1.249 . S
C151 C145 1.516 . S
H152 C138 0.930 . S
H153 C139 0.931 . S
H154 C140 0.931 . S
H155 C141 0.933 . S
H156 C147 0.930 . S
H157 C148 0.931 . S
H158 C149 0.931 . S
H159 C150 0.933 . S
Dy160 O163 2.307 . S
Dy160 O165 2.395 . S
Dy160 O166 2.379 . S
Dy160 O168 2.339 . S
Dy160 O170 2.298 . S
Dy160 O174 2.275 . S
Dy160 C182 2.738 . S
Dy161 O164 2.298 . S
Dy161 O167 2.275 . S
Dy161 O169 2.307 . S
Dy161 O171 2.395 . S
Dy161 O172 2.379 . S
Dy161 O175 2.339 . S
Dy161 C191 2.738 . S
C162 O174 1.254 . S
C162 O175 1.257 . S
O163 Dy160 2.307 . S
O163 C173 1.266 . S
O164 Dy161 2.298 . S
O164 C173 1.236 . S
O165 Dy160 2.395 . S
O165 C182 1.255 . S
O166 Dy160 2.379 . S
O166 C182 1.249 . S
O167 Dy161 2.275 . S
O167 C183 1.254 . S
O168 Dy160 2.339 . S
O168 C183 1.257 . S
O169 Dy161 2.307 . S
O169 C184 1.266 . S
O170 Dy160 2.298 . S
O170 C184 1.236 . S
O171 Dy161 2.395 . S
O171 C191 1.255 . S
O172 Dy161 2.379 . S
O172 C191 1.249 . S
C173 O163 1.266 . S
C173 O164 1.236 . S
O174 Dy160 2.275 . S
O174 C162 1.254 . S
O175 Dy161 2.339 . S
O175 C162 1.257 . S
C176 C179 1.344 . S
C176 C180 1.328 . S
C176 C182 1.516 . S
C177 C178 1.304 . S
C177 C181 1.323 . S
C178 C177 1.304 . S
C178 C179 1.371 . S
C178 H192 0.930 . S
C179 C176 1.344 . S
C179 C178 1.371 . S
C179 H193 0.931 . S
C180 C176 1.328 . S
C180 C181 1.433 . S
C180 H194 0.931 . S
C181 C177 1.323 . S
C181 C180 1.433 . S
C181 H195 0.933 . S
C182 Dy160 2.738 . S
C182 O165 1.255 . S
C182 O166 1.249 . S
C182 C176 1.516 . S
C183 O167 1.254 . S
C183 O168 1.257 . S
C184 O169 1.266 . S
C184 O170 1.236 . S
C185 C188 1.344 . S
C185 C189 1.328 . S
C185 C191 1.516 . S
C186 C187 1.304 . S
C186 C190 1.323 . S
C187 C186 1.304 . S
C187 C188 1.371 . S
C187 H196 0.930 . S
C188 C185 1.344 . S
C188 C187 1.371 . S
C188 H197 0.931 . S
C189 C185 1.328 . S
C189 C190 1.433 . S
C189 H198 0.931 . S
C190 C186 1.323 . S
C190 C189 1.433 . S
C190 H199 0.933 . S
C191 Dy161 2.738 . S
C191 O171 1.255 . S
C191 O172 1.249 . S
C191 C185 1.516 . S
H192 C178 0.930 . S
H193 C179 0.931 . S
H194 C180 0.931 . S
H195 C181 0.933 . S
H196 C187 0.930 . S
H197 C188 0.931 . S
H198 C189 0.931 . S
H199 C190 0.933 . S
Dy200 O203 2.307 . S
Dy200 O205 2.395 . S
Dy200 O206 2.379 . S
Dy200 O208 2.339 . S
Dy200 O210 2.298 . S
Dy200 O214 2.275 . S
Dy200 C222 2.738 . S
Dy201 O204 2.298 . S
Dy201 O207 2.275 . S
Dy201 O209 2.307 . S
Dy201 O211 2.395 . S
Dy201 O212 2.379 . S
Dy201 O215 2.339 . S
Dy201 C231 2.738 . S
C202 O214 1.254 . S
C202 O215 1.257 . S
O203 Dy200 2.307 . S
O203 C213 1.266 . S
O204 Dy201 2.298 . S
O204 C213 1.236 . S
O205 Dy200 2.395 . S
O205 C222 1.255 . S
O206 Dy200 2.379 . S
O206 C222 1.249 . S
O207 Dy201 2.275 . S
O207 C223 1.254 . S
O208 Dy200 2.339 . S
O208 C223 1.257 . S
O209 Dy201 2.307 . S
O209 C224 1.266 . S
O210 Dy200 2.298 . S
O210 C224 1.236 . S
O211 Dy201 2.395 . S
O211 C231 1.255 . S
O212 Dy201 2.379 . S
O212 C231 1.249 . S
C213 O203 1.266 . S
C213 O204 1.236 . S
O214 Dy200 2.275 . S
O214 C202 1.254 . S
O215 Dy201 2.339 . S
O215 C202 1.257 . S
C216 C219 1.344 . S
C216 C220 1.328 . S
C216 C222 1.516 . S
C217 C218 1.304 . S
C217 C221 1.323 . S
C218 C217 1.304 . S
C218 C219 1.371 . S
C218 H232 0.930 . S
C219 C216 1.344 . S
C219 C218 1.371 . S
C219 H233 0.931 . S
C220 C216 1.328 . S
C220 C221 1.433 . S
C220 H234 0.931 . S
C221 C217 1.323 . S
C221 C220 1.433 . S
C221 H235 0.933 . S
C222 Dy200 2.738 . S
C222 O205 1.255 . S
C222 O206 1.249 . S
C222 C216 1.516 . S
C223 O207 1.254 . S
C223 O208 1.257 . S
C224 O209 1.266 . S
C224 O210 1.236 . S
C225 C228 1.344 . S
C225 C229 1.328 . S
C225 C231 1.516 . S
C226 C227 1.304 1_554 S
C226 C230 1.323 1_554 S
C227 C226 1.304 1_556 S
C227 C228 1.371 . S
C227 H236 0.930 1_556 S
C228 C225 1.344 . S
C228 C227 1.371 . S
C228 H237 0.931 . S
C229 C225 1.328 . S
C229 C230 1.433 . S
C229 H238 0.931 . S
C230 C226 1.323 1_556 S
C230 C229 1.433 . S
C230 H239 0.933 . S
C231 Dy201 2.738 . S
C231 O211 1.255 . S
C231 O212 1.249 . S
C231 C225 1.516 . S
H232 C218 0.930 . S
H233 C219 0.931 . S
H234 C220 0.931 . S
H235 C221 0.933 . S
H236 C227 0.930 1_554 S
H237 C228 0.931 . S
H238 C229 0.931 . S
H239 C230 0.933 . S
H240 C248 0.950 . S
H241 C253 0.950 . S
H242 C250 0.950 . S
H243 C252 0.950 . S
H244 C254 0.950 . S
H245 C256 0.950 . S
H246 C258 0.950 . S
H247 C259 0.950 . S
C248 H240 0.950 . S
C248 C249 1.386 . S
C248 C250 1.391 . S
C249 C248 1.386 . S
C249 C253 1.393 . S
C250 H242 0.950 . S
C250 C248 1.391 . S
C250 C251 1.400 . S
C251 C250 1.400 . S
C251 C252 1.398 . S
C251 C257 1.491 . S
C252 H243 0.950 . S
C252 C251 1.398 . S
C252 C253 1.391 . S
C253 H241 0.950 . S
C253 C249 1.393 . S
C253 C252 1.391 . S
C254 H244 0.950 . S
C254 C255 1.386 . S
C254 C256 1.391 . S
C255 C254 1.386 . S
C255 C259 1.393 . S
C256 H245 0.950 . S
C256 C254 1.391 . S
C256 C257 1.400 . S
C257 C251 1.491 . S
C257 C256 1.400 . S
C257 C258 1.398 . S
C258 H246 0.950 . S
C258 C257 1.398 . S
C258 C259 1.391 . S
C259 H247 0.950 . S
C259 C255 1.393 . S
C259 C258 1.391 . S
H260 C268 0.950 . S
H261 C273 0.950 . S
H262 C270 0.950 1_655 S
H263 C272 0.950 . S
H264 C274 0.950 . S
H265 C276 0.950 1_455 S
H266 C278 0.950 . S
H267 C279 0.950 . S
C268 H260 0.950 . S
C268 C269 1.386 . S
C268 C270 1.391 . S
C269 C268 1.386 . S
C269 C273 1.393 . S
C270 H262 0.950 1_455 S
C270 C268 1.391 . S
C270 C271 1.400 . S
C271 C270 1.400 . S
C271 C272 1.398 . S
C271 C277 1.491 1_455 S
C272 H263 0.950 . S
C272 C271 1.398 . S
C272 C273 1.391 . S
C273 H261 0.950 . S
C273 C269 1.393 . S
C273 C272 1.391 . S
C274 H264 0.950 . S
C274 C275 1.386 . S
C274 C276 1.391 . S
C275 C274 1.386 . S
C275 C279 1.393 . S
C276 H265 0.950 1_655 S
C276 C274 1.391 . S
C276 C277 1.400 . S
C277 C271 1.491 1_655 S
C277 C276 1.400 . S
C277 C278 1.398 . S
C278 H266 0.950 . S
C278 C277 1.398 . S
C278 C279 1.391 . S
C279 H267 0.950 . S
C279 C275 1.393 . S
C279 C278 1.391 . S
H280 C288 0.950 . S
H281 C293 0.950 . S
H282 C290 0.950 . S
H283 C292 0.950 . S
H284 C294 0.950 . S
H285 C296 0.950 . S
H286 C298 0.950 . S
H287 C299 0.950 . S
C288 H280 0.950 . S
C288 C289 1.386 . S
C288 C290 1.391 . S
C289 C288 1.386 . S
C289 C293 1.393 . S
C290 H282 0.950 . S
C290 C288 1.391 . S
C290 C291 1.400 . S
C291 C290 1.400 . S
C291 C292 1.398 . S
C291 C297 1.491 1_545 S
C292 H283 0.950 . S
C292 C291 1.398 . S
C292 C293 1.391 . S
C293 H281 0.950 . S
C293 C289 1.393 . S
C293 C292 1.391 . S
C294 H284 0.950 . S
C294 C295 1.386 . S
C294 C296 1.391 . S
C295 C294 1.386 . S
C295 C299 1.393 . S
C296 H285 0.950 . S
C296 C294 1.391 . S
C296 C297 1.400 . S
C297 C291 1.491 1_565 S
C297 C296 1.400 . S
C297 C298 1.398 . S
C298 H286 0.950 . S
C298 C297 1.398 . S
C298 C299 1.391 . S
C299 H287 0.950 . S
C299 C295 1.393 . S
C299 C298 1.391 . S
H300 C308 0.950 . S
H301 C313 0.950 . S
H302 C310 0.950 . S
H303 C312 0.950 . S
H304 C314 0.950 . S
H305 C316 0.950 . S
H306 C318 0.950 . S
H307 C319 0.950 . S
C308 H300 0.950 . S
C308 C309 1.386 . S
C308 C310 1.391 . S
C309 C308 1.386 . S
C309 C313 1.393 . S
C310 H302 0.950 . S
C310 C308 1.391 . S
C310 C311 1.400 . S
C311 C310 1.400 . S
C311 C312 1.398 . S
C311 C317 1.491 . S
C312 H303 0.950 . S
C312 C311 1.398 . S
C312 C313 1.391 . S
C313 H301 0.950 . S
C313 C309 1.393 . S
C313 C312 1.391 . S
C314 H304 0.950 . S
C314 C315 1.386 . S
C314 C316 1.391 . S
C315 C314 1.386 . S
C315 C319 1.393 . S
C316 H305 0.950 . S
C316 C314 1.391 . S
C316 C317 1.400 . S
C317 C311 1.491 . S
C317 C316 1.400 . S
C317 C318 1.398 . S
C318 H306 0.950 . S
C318 C317 1.398 . S
C318 C319 1.391 . S
C319 H307 0.950 . S
C319 C315 1.393 . S
C319 C318 1.391 . S
H320 C328 0.950 . S
H321 C333 0.950 . S
H322 C330 0.950 . S
H323 C332 0.950 1_655 S
H324 C334 0.950 . S
H325 C336 0.950 . S
H326 C338 0.950 1_455 S
H327 C339 0.950 . S
C328 H320 0.950 . S
C328 C329 1.386 . S
C328 C330 1.391 . S
C329 C328 1.386 . S
C329 C333 1.393 . S
C330 H322 0.950 . S
C330 C328 1.391 . S
C330 C331 1.400 . S
C331 C330 1.400 . S
C331 C332 1.398 . S
C331 C337 1.491 1_455 S
C332 H323 0.950 1_455 S
C332 C331 1.398 . S
C332 C333 1.391 . S
C333 H321 0.950 . S
C333 C329 1.393 . S
C333 C332 1.391 . S
C334 H324 0.950 . S
C334 C335 1.386 . S
C334 C336 1.391 . S
C335 C334 1.386 . S
C335 C339 1.393 . S
C336 H325 0.950 . S
C336 C334 1.391 . S
C336 C337 1.400 . S
C337 C331 1.491 1_655 S
C337 C336 1.400 . S
C337 C338 1.398 . S
C338 H326 0.950 1_655 S
C338 C337 1.398 . S
C338 C339 1.391 . S
C339 H327 0.950 . S
C339 C335 1.393 . S
C339 C338 1.391 . S
H340 C348 0.950 . S
H341 C353 0.950 . S
H342 C350 0.950 . S
H343 C352 0.950 1_565 S
H344 C354 0.950 . S
H345 C356 0.950 . S
H346 C358 0.950 . S
H347 C359 0.950 . S
C348 H340 0.950 . S
C348 C349 1.386 . S
C348 C350 1.391 . S
C349 C348 1.386 . S
C349 C353 1.393 . S
C350 H342 0.950 . S
C350 C348 1.391 . S
C350 C351 1.400 . S
C351 C350 1.400 . S
C351 C352 1.398 . S
C351 C357 1.491 1_545 S
C352 H343 0.950 1_545 S
C352 C351 1.398 . S
C352 C353 1.391 . S
C353 H341 0.950 . S
C353 C349 1.393 . S
C353 C352 1.391 . S
C354 H344 0.950 . S
C354 C355 1.386 . S
C354 C356 1.391 . S
C355 C354 1.386 . S
C355 C359 1.393 . S
C356 H345 0.950 . S
C356 C354 1.391 . S
C356 C357 1.400 . S
C357 C351 1.491 1_565 S
C357 C356 1.400 . S
C357 C358 1.398 . S
C358 H346 0.950 . S
C358 C357 1.398 . S
C358 C359 1.391 . S
C359 H347 0.950 . S
C359 C355 1.393 . S
C359 C358 1.391 . S
H360 C368 0.950 . S
H361 C373 0.950 . S
H362 C370 0.950 . S
H363 C372 0.950 . S
H364 C374 0.950 . S
H365 C376 0.950 . S
H366 C378 0.950 . S
H367 C379 0.950 . S
C368 H360 0.950 . S
C368 C369 1.386 . S
C368 C370 1.391 . S
C369 C368 1.386 . S
C369 C373 1.393 . S
C370 H362 0.950 . S
C370 C368 1.391 . S
C370 C371 1.400 . S
C371 C370 1.400 . S
C371 C372 1.398 . S
C371 C377 1.491 . S
C372 H363 0.950 . S
C372 C371 1.398 . S
C372 C373 1.391 . S
C373 H361 0.950 . S
C373 C369 1.393 . S
C373 C372 1.391 . S
C374 H364 0.950 . S
C374 C375 1.386 . S
C374 C376 1.391 . S
C375 C374 1.386 . S
C375 C379 1.393 . S
C376 H365 0.950 . S
C376 C374 1.391 . S
C376 C377 1.400 . S
C377 C371 1.491 . S
C377 C376 1.400 . S
C377 C378 1.398 . S
C378 H366 0.950 . S
C378 C377 1.398 . S
C378 C379 1.391 . S
C379 H367 0.950 . S
C379 C375 1.393 . S
C379 C378 1.391 . S
H380 C388 0.950 . S
H381 C393 0.950 . S
H382 C390 0.950 . S
H383 C392 0.950 . S
H384 C394 0.950 . S
H385 C396 0.950 . S
H386 C398 0.950 . S
H387 C399 0.950 . S
C388 H380 0.950 . S
C388 C389 1.386 . S
C388 C390 1.391 . S
C389 C388 1.386 . S
C389 C393 1.393 . S
C390 H382 0.950 . S
C390 C388 1.391 . S
C390 C391 1.400 . S
C391 C390 1.400 . S
C391 C392 1.398 . S
C391 C397 1.491 . S
C392 H383 0.950 . S
C392 C391 1.398 . S
C392 C393 1.391 . S
C393 H381 0.950 . S
C393 C389 1.393 . S
C393 C392 1.391 . S
C394 H384 0.950 . S
C394 C395 1.386 . S
C394 C396 1.391 . S
C395 C394 1.386 . S
C395 C399 1.393 . S
C396 H385 0.950 . S
C396 C394 1.391 . S
C396 C397 1.400 . S
C397 C391 1.491 . S
C397 C396 1.400 . S
C397 C398 1.398 . S
C398 H386 0.950 . S
C398 C397 1.398 . S
C398 C399 1.391 . S
C399 H387 0.950 . S
C399 C395 1.393 . S
C399 C398 1.391 . S
H400 C408 0.950 . S
H401 C413 0.950 . S
H402 C410 0.950 . S
H403 C412 0.950 . S
H404 C414 0.950 . S
H405 C416 0.950 . S
H406 C418 0.950 . S
H407 C419 0.950 . S
C408 H400 0.950 . S
C408 C409 1.386 . S
C408 C410 1.391 . S
C409 C408 1.386 . S
C409 C413 1.393 . S
C410 H402 0.950 . S
C410 C408 1.391 . S
C410 C411 1.400 . S
C411 C410 1.400 . S
C411 C412 1.398 . S
C411 C417 1.491 . S
C412 H403 0.950 . S
C412 C411 1.398 . S
C412 C413 1.391 . S
C413 H401 0.950 . S
C413 C409 1.393 . S
C413 C412 1.391 . S
C414 H404 0.950 . S
C414 C415 1.386 . S
C414 C416 1.391 . S
C415 C414 1.386 . S
C415 C419 1.393 . S
C416 H405 0.950 . S
C416 C414 1.391 . S
C416 C417 1.400 . S
C417 C411 1.491 . S
C417 C416 1.400 . S
C417 C418 1.398 . S
C418 H406 0.950 . S
C418 C417 1.398 . S
C418 C419 1.391 . S
C419 H407 0.950 . S
C419 C415 1.393 . S
C419 C418 1.391 . S
H420 C428 0.950 . S
H421 C433 0.950 . S
H422 C430 0.950 . S
H423 C432 0.950 . S
H424 C434 0.950 . S
H425 C436 0.950 . S
H426 C438 0.950 . S
H427 C439 0.950 . S
C428 H420 0.950 . S
C428 C429 1.386 . S
C428 C430 1.391 . S
C429 C428 1.386 . S
C429 C433 1.393 . S
C430 H422 0.950 . S
C430 C428 1.391 . S
C430 C431 1.400 . S
C431 C430 1.400 . S
C431 C432 1.398 . S
C431 C437 1.491 . S
C432 H423 0.950 . S
C432 C431 1.398 . S
C432 C433 1.391 . S
C433 H421 0.950 . S
C433 C429 1.393 . S
C433 C432 1.391 . S
C434 H424 0.950 . S
C434 C435 1.386 . S
C434 C436 1.391 . S
C435 C434 1.386 . S
C435 C439 1.393 . S
C436 H425 0.950 . S
C436 C434 1.391 . S
C436 C437 1.400 . S
C437 C431 1.491 . S
C437 C436 1.400 . S
C437 C438 1.398 . S
C438 H426 0.950 . S
C438 C437 1.398 . S
C438 C439 1.391 . S
C439 H427 0.950 . S
C439 C435 1.393 . S
C439 C438 1.391 . S
H440 C448 0.950 . S
H441 C453 0.950 . S
H442 C450 0.950 . S
H443 C452 0.950 . S
H444 C454 0.950 . S
H445 C456 0.950 . S
H446 C458 0.950 . S
H447 C459 0.950 . S
C448 H440 0.950 . S
C448 C449 1.386 . S
C448 C450 1.391 . S
C449 C448 1.386 . S
C449 C453 1.393 . S
C450 H442 0.950 . S
C450 C448 1.391 . S
C450 C451 1.400 . S
C451 C450 1.400 . S
C451 C452 1.398 . S
C451 C457 1.491 . S
C452 H443 0.950 . S
C452 C451 1.398 . S
C452 C453 1.391 . S
C453 H441 0.950 . S
C453 C449 1.393 . S
C453 C452 1.391 . S
C454 H444 0.950 . S
C454 C455 1.386 . S
C454 C456 1.391 . S
C455 C454 1.386 . S
C455 C459 1.393 . S
C456 H445 0.950 . S
C456 C454 1.391 . S
C456 C457 1.400 . S
C457 C451 1.491 . S
C457 C456 1.400 . S
C457 C458 1.398 . S
C458 H446 0.950 . S
C458 C457 1.398 . S
C458 C459 1.391 . S
C459 H447 0.950 . S
C459 C455 1.393 . S
C459 C458 1.391 . S
H460 C468 0.950 . S
H461 C473 0.950 . S
H462 C470 0.950 . S
H463 C472 0.950 . S
H464 C474 0.950 . S
H465 C476 0.950 . S
H466 C478 0.950 . S
H467 C479 0.950 . S
C468 H460 0.950 . S
C468 C469 1.386 . S
C468 C470 1.391 . S
C469 C468 1.386 . S
C469 C473 1.393 . S
C470 H462 0.950 . S
C470 C468 1.391 . S
C470 C471 1.400 . S
C471 C470 1.400 . S
C471 C472 1.398 . S
C471 C477 1.491 . S
C472 H463 0.950 . S
C472 C471 1.398 . S
C472 C473 1.391 . S
C473 H461 0.950 . S
C473 C469 1.393 . S
C473 C472 1.391 . S
C474 H464 0.950 . S
C474 C475 1.386 . S
C474 C476 1.391 . S
C475 C474 1.386 . S
C475 C479 1.393 . S
C476 H465 0.950 . S
C476 C474 1.391 . S
C476 C477 1.400 . S
C477 C471 1.491 . S
C477 C476 1.400 . S
C477 C478 1.398 . S
C478 H466 0.950 . S
C478 C477 1.398 . S
C478 C479 1.391 . S
C479 H467 0.950 . S
C479 C475 1.393 . S
C479 C478 1.391 . S
H480 C488 0.950 . S
H481 C493 0.950 . S
H482 C490 0.950 . S
H483 C492 0.950 . S
H484 C494 0.950 . S
H485 C496 0.950 . S
H486 C498 0.950 . S
H487 C499 0.950 . S
C488 H480 0.950 . S
C488 C489 1.386 . S
C488 C490 1.391 . S
C489 C488 1.386 . S
C489 C493 1.393 . S
C490 H482 0.950 . S
C490 C488 1.391 . S
C490 C491 1.400 . S
C491 C490 1.400 . S
C491 C492 1.398 . S
C491 C497 1.491 . S
C492 H483 0.950 . S
C492 C491 1.398 . S
C492 C493 1.391 . S
C493 H481 0.950 . S
C493 C489 1.393 . S
C493 C492 1.391 . S
C494 H484 0.950 . S
C494 C495 1.386 . S
C494 C496 1.391 . S
C495 C494 1.386 . S
C495 C499 1.393 . S
C496 H485 0.950 . S
C496 C494 1.391 . S
C496 C497 1.400 . S
C497 C491 1.491 . S
C497 C496 1.400 . S
C497 C498 1.398 . S
C498 H486 0.950 . S
C498 C497 1.398 . S
C498 C499 1.391 . S
C499 H487 0.950 . S
C499 C495 1.393 . S
C499 C498 1.391 . S
H500 C508 0.950 . S
H501 C513 0.950 . S
H502 C510 0.950 . S
H503 C512 0.950 . S
H504 C514 0.950 . S
H505 C516 0.950 . S
H506 C518 0.950 . S
H507 C519 0.950 . S
C508 H500 0.950 . S
C508 C509 1.386 . S
C508 C510 1.391 . S
C509 C508 1.386 . S
C509 C513 1.393 . S
C510 H502 0.950 . S
C510 C508 1.391 . S
C510 C511 1.400 . S
C511 C510 1.400 . S
C511 C512 1.398 . S
C511 C517 1.491 . S
C512 H503 0.950 . S
C512 C511 1.398 . S
C512 C513 1.391 . S
C513 H501 0.950 . S
C513 C509 1.393 . S
C513 C512 1.391 . S
C514 H504 0.950 . S
C514 C515 1.386 . S
C514 C516 1.391 . S
C515 C514 1.386 . S
C515 C519 1.393 . S
C516 H505 0.950 . S
C516 C514 1.391 . S
C516 C517 1.400 . S
C517 C511 1.491 . S
C517 C516 1.400 . S
C517 C518 1.398 . S
C518 H506 0.950 . S
C518 C517 1.398 . S
C518 C519 1.391 . S
C519 H507 0.950 . S
C519 C515 1.393 . S
C519 C518 1.391 . S
H520 C528 0.950 . S
H521 C533 0.950 . S
H522 C530 0.950 . S
H523 C532 0.950 . S
H524 C534 0.950 . S
H525 C536 0.950 . S
H526 C538 0.950 . S
H527 C539 0.950 . S
C528 H520 0.950 . S
C528 C529 1.386 . S
C528 C530 1.391 . S
C529 C528 1.386 . S
C529 C533 1.393 . S
C530 H522 0.950 . S
C530 C528 1.391 . S
C530 C531 1.400 . S
C531 C530 1.400 . S
C531 C532 1.398 . S
C531 C537 1.491 . S
C532 H523 0.950 . S
C532 C531 1.398 . S
C532 C533 1.391 . S
C533 H521 0.950 . S
C533 C529 1.393 . S
C533 C532 1.391 . S
C534 H524 0.950 . S
C534 C535 1.386 . S
C534 C536 1.391 . S
C535 C534 1.386 . S
C535 C539 1.393 . S
C536 H525 0.950 . S
C536 C534 1.391 . S
C536 C537 1.400 . S
C537 C531 1.491 . S
C537 C536 1.400 . S
C537 C538 1.398 . S
C538 H526 0.950 . S
C538 C537 1.398 . S
C538 C539 1.391 . S
C539 H527 0.950 . S
C539 C535 1.393 . S
C539 C538 1.391 . S
H540 C548 0.950 . S
H541 C553 0.950 . S
H542 C550 0.950 . S
H543 C552 0.950 . S
H544 C554 0.950 . S
H545 C556 0.950 . S
H546 C558 0.950 . S
H547 C559 0.950 . S
C548 H540 0.950 . S
C548 C549 1.386 . S
C548 C550 1.391 . S
C549 C548 1.386 . S
C549 C553 1.393 . S
C550 H542 0.950 . S
C550 C548 1.391 . S
C550 C551 1.400 . S
C551 C550 1.400 . S
C551 C552 1.398 . S
C551 C557 1.491 . S
C552 H543 0.950 . S
C552 C551 1.398 . S
C552 C553 1.391 . S
C553 H541 0.950 . S
C553 C549 1.393 . S
C553 C552 1.391 . S
C554 H544 0.950 . S
C554 C555 1.386 . S
C554 C556 1.391 . S
C555 C554 1.386 . S
C555 C559 1.393 . S
C556 H545 0.950 . S
C556 C554 1.391 . S
C556 C557 1.400 . S
C557 C551 1.491 . S
C557 C556 1.400 . S
C557 C558 1.398 . S
C558 H546 0.950 . S
C558 C557 1.398 . S
C558 C559 1.391 . S
C559 H547 0.950 . S
C559 C555 1.393 . S
C559 C558 1.391 . S
H560 C568 0.950 . S
H561 C573 0.950 . S
H562 C570 0.950 . S
H563 C572 0.950 . S
H564 C574 0.950 . S
H565 C576 0.950 . S
H566 C578 0.950 . S
H567 C579 0.950 . S
C568 H560 0.950 . S
C568 C569 1.386 . S
C568 C570 1.391 . S
C569 C568 1.386 . S
C569 C573 1.393 . S
C570 H562 0.950 . S
C570 C568 1.391 . S
C570 C571 1.400 . S
C571 C570 1.400 . S
C571 C572 1.398 . S
C571 C577 1.491 . S
C572 H563 0.950 . S
C572 C571 1.398 . S
C572 C573 1.391 . S
C573 H561 0.950 . S
C573 C569 1.393 . S
C573 C572 1.391 . S
C574 H564 0.950 . S
C574 C575 1.386 . S
C574 C576 1.391 . S
C575 C574 1.386 . S
C575 C579 1.393 . S
C576 H565 0.950 . S
C576 C574 1.391 . S
C576 C577 1.400 . S
C577 C571 1.491 . S
C577 C576 1.400 . S
C577 C578 1.398 . S
C578 H566 0.950 . S
C578 C577 1.398 . S
C578 C579 1.391 . S
C579 H567 0.950 . S
C579 C575 1.393 . S
C579 C578 1.391 . S
H580 C588 0.950 . S
H581 C593 0.950 . S
H582 C590 0.950 . S
H583 C592 0.950 . S
H584 C594 0.950 . S
H585 C596 0.950 . S
H586 C598 0.950 . S
H587 C599 0.950 . S
C588 H580 0.950 . S
C588 C589 1.386 . S
C588 C590 1.391 . S
C589 C588 1.386 . S
C589 C593 1.393 . S
C590 H582 0.950 . S
C590 C588 1.391 . S
C590 C591 1.400 . S
C591 C590 1.400 . S
C591 C592 1.398 . S
C591 C597 1.491 . S
C592 H583 0.950 . S
C592 C591 1.398 . S
C592 C593 1.391 . S
C593 H581 0.950 . S
C593 C589 1.393 . S
C593 C592 1.391 . S
C594 H584 0.950 . S
C594 C595 1.386 . S
C594 C596 1.391 . S
C595 C594 1.386 . S
C595 C599 1.393 . S
C596 H585 0.950 . S
C596 C594 1.391 . S
C596 C597 1.400 . S
C597 C591 1.491 . S
C597 C596 1.400 . S
C597 C598 1.398 . S
C598 H586 0.950 . S
C598 C597 1.398 . S
C598 C599 1.391 . S
C599 H587 0.950 . S
C599 C595 1.393 . S
C599 C598 1.391 . S
C249 C213 1.403 . S
C255 C2 1.396 . S
C269 C13 1.411 . S
C275 C42 1.382 . S
C289 C53 1.403 . S
C295 C82 1.397 . S
C309 C93 1.406 . S
C315 C122 1.389 . S
C329 C162 1.382 . S
C335 C133 1.411 . S
C349 C202 1.387 . S
C355 C173 1.407 . S
C369 C17 1.401 . S
C375 C26 1.401 . S
C389 C57 1.401 1_556 S
C395 C66 1.401 . S
C409 C97 1.400 . S
C415 C106 1.400 . S
C429 C137 1.410 . S
C435 C146 1.410 . S
C449 C186 1.405 . S
C455 C177 1.405 1_556 S
C469 C217 1.438 . S
C475 C226 1.438 . S
C489 C23 1.642 . S
C495 C184 1.633 . S
C509 C63 1.639 . S
C515 C224 1.629 . S
C529 C24 1.633 . S
C535 C103 1.642 . S
C549 C64 1.623 . S
C555 C143 1.644 . S
C569 C183 1.640 . S
C575 C104 1.634 . S
C589 C144 1.632 . S
C595 C223 1.639 . S
