# Generated by pormake.
# Topology zff, (5)-cn, num edge types: 1
# Building blocks:
#     Node 0, Type 0, BuildingBlock: XOMCOT_clean_sbu_0, # of connection points: 5
#     Node 1, Type 0, BuildingBlock: XOMCOT_clean_sbu_0, # of connection points: 5
#     Node 2, Type 0, BuildingBlock: XOMCOT_clean_sbu_0, # of connection points: 5
#     Node 3, Type 0, BuildingBlock: XOMCOT_clean_sbu_0, # of connection points: 5
#     Node 4, Type 0, BuildingBlock: XOMCOT_clean_sbu_0, # of connection points: 5
#     Node 5, Type 0, BuildingBlock: XOMCOT_clean_sbu_0, # of connection points: 5
#     Node 6, Type 0, BuildingBlock: XOMCOT_clean_sbu_0, # of connection points: 5
#     Node 7, Type 0, BuildingBlock: XOMCOT_clean_sbu_0, # of connection points: 5
#     Node 8, Type 0, BuildingBlock: XOMCOT_clean_sbu_0, # of connection points: 5
#     Node 9, Type 0, BuildingBlock: XOMCOT_clean_sbu_0, # of connection points: 5
#     Node 10, Type 0, BuildingBlock: XOMCOT_clean_sbu_0, # of connection points: 5
#     Node 11, Type 0, BuildingBlock: XOMCOT_clean_sbu_0, # of connection points: 5
#     Node 12, Type 0, BuildingBlock: XOMCOT_clean_sbu_0, # of connection points: 5
#     Node 13, Type 0, BuildingBlock: XOMCOT_clean_sbu_0, # of connection points: 5
#     Node 14, Type 0, BuildingBlock: XOMCOT_clean_sbu_0, # of connection points: 5
#     Node 15, Type 0, BuildingBlock: XOMCOT_clean_sbu_0, # of connection points: 5
#     Edge 16, Type (0, 0), BuildingBlock: OJICUG_clean_linker_0, # of connection points: 2
#     Edge 17, Type (0, 0), BuildingBlock: OJICUG_clean_linker_0, # of connection points: 2
#     Edge 18, Type (0, 0), BuildingBlock: OJICUG_clean_linker_0, # of connection points: 2
#     Edge 19, Type (0, 0), BuildingBlock: OJICUG_clean_linker_0, # of connection points: 2
#     Edge 20, Type (0, 0), BuildingBlock: OJICUG_clean_linker_0, # of connection points: 2
#     Edge 21, Type (0, 0), BuildingBlock: OJICUG_clean_linker_0, # of connection points: 2
#     Edge 22, Type (0, 0), BuildingBlock: OJICUG_clean_linker_0, # of connection points: 2
#     Edge 23, Type (0, 0), BuildingBlock: OJICUG_clean_linker_0, # of connection points: 2
#     Edge 24, Type (0, 0), BuildingBlock: OJICUG_clean_linker_0, # of connection points: 2
#     Edge 25, Type (0, 0), BuildingBlock: OJICUG_clean_linker_0, # of connection points: 2
#     Edge 26, Type (0, 0), BuildingBlock: OJICUG_clean_linker_0, # of connection points: 2
#     Edge 27, Type (0, 0), BuildingBlock: OJICUG_clean_linker_0, # of connection points: 2
#     Edge 28, Type (0, 0), BuildingBlock: OJICUG_clean_linker_0, # of connection points: 2
#     Edge 29, Type (0, 0), BuildingBlock: OJICUG_clean_linker_0, # of connection points: 2
#     Edge 30, Type (0, 0), BuildingBlock: OJICUG_clean_linker_0, # of connection points: 2
#     Edge 31, Type (0, 0), BuildingBlock: OJICUG_clean_linker_0, # of connection points: 2
#     Edge 32, Type (0, 0), BuildingBlock: OJICUG_clean_linker_0, # of connection points: 2
#     Edge 33, Type (0, 0), BuildingBlock: OJICUG_clean_linker_0, # of connection points: 2
#     Edge 34, Type (0, 0), BuildingBlock: OJICUG_clean_linker_0, # of connection points: 2
#     Edge 35, Type (0, 0), BuildingBlock: OJICUG_clean_linker_0, # of connection points: 2
#     Edge 36, Type (0, 0), BuildingBlock: OJICUG_clean_linker_0, # of connection points: 2
#     Edge 37, Type (0, 0), BuildingBlock: OJICUG_clean_linker_0, # of connection points: 2
#     Edge 38, Type (0, 0), BuildingBlock: OJICUG_clean_linker_0, # of connection points: 2
#     Edge 39, Type (0, 0), BuildingBlock: OJICUG_clean_linker_0, # of connection points: 2
#     Edge 40, Type (0, 0), BuildingBlock: OJICUG_clean_linker_0, # of connection points: 2
#     Edge 41, Type (0, 0), BuildingBlock: OJICUG_clean_linker_0, # of connection points: 2
#     Edge 42, Type (0, 0), BuildingBlock: OJICUG_clean_linker_0, # of connection points: 2
#     Edge 43, Type (0, 0), BuildingBlock: OJICUG_clean_linker_0, # of connection points: 2
#     Edge 44, Type (0, 0), BuildingBlock: OJICUG_clean_linker_0, # of connection points: 2
#     Edge 45, Type (0, 0), BuildingBlock: OJICUG_clean_linker_0, # of connection points: 2
#     Edge 46, Type (0, 0), BuildingBlock: OJICUG_clean_linker_0, # of connection points: 2
#     Edge 47, Type (0, 0), BuildingBlock: OJICUG_clean_linker_0, # of connection points: 2
#     Edge 48, Type (0, 0), BuildingBlock: OJICUG_clean_linker_0, # of connection points: 2
#     Edge 49, Type (0, 0), BuildingBlock: OJICUG_clean_linker_0, # of connection points: 2
#     Edge 50, Type (0, 0), BuildingBlock: OJICUG_clean_linker_0, # of connection points: 2
#     Edge 51, Type (0, 0), BuildingBlock: OJICUG_clean_linker_0, # of connection points: 2
#     Edge 52, Type (0, 0), BuildingBlock: OJICUG_clean_linker_0, # of connection points: 2
#     Edge 53, Type (0, 0), BuildingBlock: OJICUG_clean_linker_0, # of connection points: 2
#     Edge 54, Type (0, 0), BuildingBlock: OJICUG_clean_linker_0, # of connection points: 2
#     Edge 55, Type (0, 0), BuildingBlock: OJICUG_clean_linker_0, # of connection points: 2
# Relax obj value: 0.149
# Max RMSD: 0.220
# Mean RMSD: 0.220
data_MOF--net-zff--node1-XOMCOT_clean_sbu_0--edge1-OJICUG_clean_linker_0
_symmetry_space_group_name_H-M    P1
_symmetry_Int_Tables_number       1
_symmetry_cell_setting            triclinic
loop_
_symmetry_equiv_pos_as_xyz
'x, y, z'
_cell_length_a     28.633067
_cell_length_b     28.637104
_cell_length_c     50.963173
_cell_angle_alpha  89.732349
_cell_angle_beta   89.647097
_cell_angle_gamma 89.845911
loop_
_atom_site_label
_atom_site_type_symbol
_atom_site_fract_x
_atom_site_fract_y
_atom_site_fract_z
_atom_type_partial_charge
Co0 Co 0.00354 0.30793 0.39656 0.0
C1 C 0.0335 0.34754 0.34597 0.0
C2 C 0.96333 0.3218 0.34352 0.0
C3 C 0.97567 0.34141 0.31962 0.0
N4 N -0.00025 0.32568 0.35993 0.0
N5 N 0.01976 0.35781 0.32128 0.0
H6 H 0.06743 0.35596 0.35386 0.0
H7 H 0.92989 0.30674 0.34867 0.0
C8 C 0.92024 0.25397 0.40598 0.0
O9 O 0.9138 0.28474 0.4247 0.0
N10 N 0.00923 0.28934 0.43338 0.0
C11 C 0.02137 0.2461 0.44158 0.0
C12 C 0.02366 0.24542 0.46846 0.0
C13 C 0.0033 0.31423 0.45575 0.0
N14 N 0.01231 0.28814 0.47738 0.0
C15 C 0.09793 0.27824 0.39788 0.0
C16 C 0.08457 0.19278 0.37394 0.0
C17 C 0.12719 0.20176 0.38639 0.0
C18 C 0.13448 0.24625 0.39702 0.0
C19 C 0.04909 0.22642 0.37467 0.0
N20 N 0.05529 0.26713 0.38805 0.0
H21 H 0.10302 0.31082 0.40802 0.0
H22 H 0.01597 0.21849 0.36575 0.0
H23 H 0.02756 0.21656 0.4289 0.0
H24 H -0.00773 0.35035 0.45638 0.0
O25 O 0.03719 0.36505 0.40334 0.0
O26 O 0.96026 0.3572 0.40515 0.0
O27 O 0.95646 0.25679 0.39134 0.0
C28 C -0.0036 0.38426 0.40682 0.0
H29 H 0.95337 0.34464 0.30263 0.0
H30 H 0.03124 0.21527 0.48062 0.0
H31 H 0.07756 0.1592 0.36515 0.0
H32 H 0.16742 0.25549 0.40591 0.0
Co33 Co 0.66254 -0.00383 0.4035 0.0
C34 C 0.62318 0.03576 0.35464 0.0
C35 C 0.64084 0.96315 0.35059 0.0
C36 C 0.62174 0.97865 0.32741 0.0
N37 N 0.642 -0.00099 0.36753 0.0
N38 N 0.61057 0.02426 0.32997 0.0
H39 H 0.6189 0.07009 0.36313 0.0
H40 H 0.65225 0.92794 0.35493 0.0
C41 C 0.70986 0.90731 0.40456 0.0
O42 O 0.679 0.89806 0.42301 0.0
N43 N 0.68431 -0.00666 0.43954 0.0
C44 C 0.72993 -0.00702 0.44594 0.0
C45 C 0.73401 0.98613 0.47244 0.0
C46 C 0.66099 0.98711 0.46254 0.0
N47 N 0.69084 0.98235 0.48283 0.0
C48 C 0.6997 0.08692 0.41049 0.0
C49 C 0.77867 0.0754 0.37956 0.0
C50 C 0.77451 0.11569 0.39504 0.0
C51 C 0.7333 0.12196 0.40973 0.0
C52 C 0.7436 0.04141 0.38051 0.0
N53 N 0.7059 0.04666 0.39678 0.0
H54 H 0.66958 0.09113 0.42314 0.0
H55 H 0.74776 0.01016 0.36894 0.0
H56 H 0.75853 -0.00403 0.43209 0.0
H57 H 0.62348 0.98417 0.46441 0.0
O58 O 0.60784 0.03172 0.41391 0.0
O59 O 0.6118 0.9546 0.41129 0.0
O60 O 0.71031 0.94768 0.39385 0.0
C61 C 0.58686 -0.00847 0.41586 0.0
H62 H 0.61553 0.95762 0.3102 0.0
H63 H 0.76631 0.98339 0.48328 0.0
H64 H 0.80957 0.06908 0.36774 0.0
H65 H 0.72754 0.15312 0.42127 0.0
Co66 Co 0.97231 0.66048 0.39865 0.0
C67 C 0.95138 0.62257 0.34674 0.0
C68 C 0.01818 0.65629 0.3459 0.0
C69 C 0.00938 0.6379 0.32133 0.0
N70 N 0.98159 0.64663 0.36175 0.0
N71 N 0.96746 0.61642 0.32206 0.0
H72 H 0.91807 0.60969 0.35376 0.0
H73 H 0.04935 0.6746 0.35176 0.0
C74 C 0.03116 0.74418 0.41193 0.0
O75 O 0.0017 0.75548 0.4307 0.0
N76 N 0.96038 0.67217 0.43586 0.0
C77 C 0.91764 0.67766 0.44683 0.0
C78 C 0.92131 0.67646 0.47358 0.0
C79 C -0.01037 0.66699 0.45658 0.0
N80 N 0.96637 0.66971 0.47977 0.0
C81 C 0.8781 0.68812 0.38737 0.0
C82 C 0.89587 0.78176 0.379 0.0
C83 C 0.84952 0.76711 0.38195 0.0
C84 C 0.84081 0.71914 0.38454 0.0
C85 C 0.93205 0.74942 0.38166 0.0
N86 N 0.92296 0.70405 0.38839 0.0
H87 H 0.8705 0.65169 0.3907 0.0
H88 H 0.96701 0.76184 0.37868 0.0
H89 H 0.88511 0.68024 0.43653 0.0
H90 H 0.02667 0.66005 0.45472 0.0
O91 O 0.93682 0.60338 0.40243 0.0
O92 O 0.01327 0.60994 0.40788 0.0
O93 O 0.02273 0.70982 0.39675 0.0
C94 C 0.97662 0.5834 0.40764 0.0
H95 H 0.03258 0.63909 0.30449 0.0
H96 H 0.89285 0.67988 0.48754 0.0
H97 H 0.90446 0.81822 0.37606 0.0
H98 H 0.80547 0.70585 0.38565 0.0
Co99 Co 0.31297 0.97003 0.4043 0.0
C100 C 0.35789 0.93493 0.35558 0.0
C101 C 0.33234 0.00515 0.35124 0.0
C102 C 0.35456 -0.00756 0.32837 0.0
N103 N 0.33413 0.96903 0.36821 0.0
N104 N 0.37075 0.94837 0.3311 0.0
H105 H 0.36591 0.90127 0.36421 0.0
H106 H 0.31722 0.03895 0.35544 0.0
C107 C 0.26362 0.05742 0.40693 0.0
O108 O 0.29432 0.06605 0.42531 0.0
N109 N 0.29077 0.97154 0.44045 0.0
C110 C 0.24509 0.97048 0.44709 0.0
C111 C 0.24056 0.97841 0.47345 0.0
C112 C 0.31362 0.97991 0.46316 0.0
N113 N 0.28347 0.98441 0.48348 0.0
C114 C 0.27192 0.88118 0.41338 0.0
C115 C 0.19852 0.89219 0.37876 0.0
C116 C 0.19747 0.85526 0.39692 0.0
C117 C 0.23551 0.84894 0.41372 0.0
C118 C 0.23535 0.92421 0.37939 0.0
N119 N 0.27008 0.9195 0.39744 0.0
H120 H 0.29985 0.87752 0.42743 0.0
H121 H 0.23469 0.95406 0.36633 0.0
H122 H 0.21669 0.96628 0.43341 0.0
H123 H 0.35088 0.98518 0.46471 0.0
O124 O 0.3676 0.93446 0.41437 0.0
O125 O 0.36325 0.01173 0.41217 0.0
O126 O 0.26449 0.01817 0.3952 0.0
C127 C 0.38834 0.97473 0.41645 0.0
H128 H 0.35971 0.01456 0.31132 0.0
H129 H 0.2081 0.98098 0.48437 0.0
H130 H 0.16979 0.89791 0.36539 0.0
H131 H 0.2361 0.82045 0.42778 0.0
Co132 Co 0.00018 0.66538 0.66782 0.0
C133 C 0.02983 0.62361 0.71795 0.0
C134 C 0.95891 0.64795 0.72031 0.0
C135 C 0.97076 0.62773 0.74401 0.0
N136 N -0.00391 0.64546 0.70409 0.0
N137 N 0.01532 0.61227 0.74245 0.0
H138 H 0.06433 0.61624 0.7102 0.0
H139 H 0.92536 0.66268 0.71517 0.0
C140 C 0.91656 0.72057 0.66064 0.0
O141 O 0.90953 0.69139 0.64127 0.0
N142 N 0.00579 0.68612 0.63135 0.0
C143 C 0.01585 0.73022 0.62381 0.0
C144 C 0.01858 0.73224 0.5969 0.0
C145 C 0.00185 0.66198 0.60865 0.0
N146 N 0.00978 0.68941 0.58735 0.0
C147 C 0.09415 0.69597 0.66583 0.0
C148 C 0.08068 0.77785 0.69357 0.0
C149 C 0.12318 0.77068 0.68031 0.0
C150 C 0.13049 0.72788 0.66757 0.0
C151 C 0.04545 0.74435 0.69185 0.0
N152 N 0.05172 0.70551 0.67677 0.0
H153 H 0.09919 0.66479 0.65431 0.0
H154 H 0.01248 0.75086 0.70157 0.0
H155 H 0.02041 0.7593 0.63699 0.0
H156 H -0.00683 0.62534 0.60754 0.0
O157 O 0.03397 0.60863 0.65984 0.0
O158 O 0.95699 0.61689 0.65855 0.0
O159 O 0.95329 0.71646 0.67451 0.0
C160 C -0.00681 0.58976 0.65628 0.0
H161 H 0.94791 0.6237 0.76086 0.0
H162 H 0.02484 0.76328 0.58521 0.0
H163 H 0.07359 0.81005 0.70392 0.0
H164 H 0.16333 0.71995 0.65791 0.0
Co165 Co 0.30843 0.00355 0.67234 0.0
C166 C 0.34639 0.03575 0.72285 0.0
C167 C 0.32383 0.96436 0.72504 0.0
C168 C 0.34162 0.97686 0.74905 0.0
N169 N 0.32668 0.00138 0.70873 0.0
N170 N 0.35591 0.02168 0.74762 0.0
H171 H 0.35363 0.07026 0.71512 0.0
H172 H 0.31053 0.9304 0.71977 0.0
C173 C 0.25936 0.91716 0.66613 0.0
O174 O 0.29087 0.91074 0.64765 0.0
N175 N 0.28831 0.00591 0.63597 0.0
C176 C 0.24288 0.00864 0.62926 0.0
C177 C 0.23948 0.01162 0.60259 0.0
C178 C 0.31221 0.00649 0.61292 0.0
N179 N 0.28286 0.01039 0.59229 0.0
C180 C 0.27033 0.09406 0.66558 0.0
C181 C 0.19069 0.08006 0.69563 0.0
C182 C 0.19307 0.11872 0.67869 0.0
C183 C 0.23421 0.12663 0.66441 0.0
C184 C 0.22755 0.04781 0.69594 0.0
N185 N 0.26539 0.054 0.67988 0.0
H186 H 0.30056 0.09883 0.65307 0.0
H187 H 0.22439 0.01657 0.70779 0.0
H188 H 0.2139 0.00863 0.64297 0.0
H189 H 0.34983 0.00471 0.61115 0.0
O190 O 0.36394 0.03944 0.66415 0.0
O191 O 0.35938 0.96222 0.66397 0.0
O192 O 0.2595 0.9549 0.67933 0.0
C193 C 0.38484 -0.00067 0.66117 0.0
H194 H 0.34507 0.95424 0.76601 0.0
H195 H 0.20742 0.01376 0.59149 0.0
H196 H 0.15942 0.07317 0.70706 0.0
H197 H 0.23733 0.15641 0.65134 0.0
Co198 Co 0.96941 0.31448 0.66577 0.0
C199 C 0.94496 0.35366 0.71704 0.0
C200 C 0.01445 0.32549 0.7179 0.0
C201 C 0.00426 0.34482 0.74212 0.0
N202 N 0.97703 0.33102 0.70229 0.0
N203 N 0.9606 0.36276 0.74141 0.0
H204 H 0.91075 0.36349 0.71 0.0
H205 H 0.0471 0.30947 0.71205 0.0
C206 C 0.03111 0.23115 0.65474 0.0
O207 O 0.00574 0.2205 0.63428 0.0
N208 N 0.95943 0.29974 0.62875 0.0
C209 C 0.91919 0.28445 0.61804 0.0
C210 C 0.92286 0.2858 0.59124 0.0
C211 C 0.98722 0.31011 0.60783 0.0
N212 N 0.9654 0.30201 0.5848 0.0
C213 C 0.87486 0.28752 0.67689 0.0
C214 C 0.8931 0.19475 0.68802 0.0
C215 C 0.84675 0.20905 0.68466 0.0
C216 C 0.83772 0.25667 0.68051 0.0
C217 C 0.92913 0.22684 0.68448 0.0
N218 N 0.91991 0.27168 0.6767 0.0
H219 H 0.86709 0.32349 0.67227 0.0
H220 H 0.96409 0.21454 0.68759 0.0
H221 H 0.88832 0.27367 0.62848 0.0
H222 H 0.02204 0.32441 0.60937 0.0
O223 O 0.93372 0.37119 0.66044 0.0
O224 O 0.01048 0.36445 0.65579 0.0
O225 O 0.01984 0.26538 0.6695 0.0
C226 C 0.97365 0.39095 0.65523 0.0
H227 H 0.02766 0.3467 0.75868 0.0
H228 H 0.89625 0.27553 0.57742 0.0
H229 H 0.90186 0.1586 0.69196 0.0
H230 H 0.8023 0.26966 0.67882 0.0
Co231 Co 0.66059 0.97853 0.67258 0.0
C232 C 0.62171 0.94588 0.72331 0.0
C233 C 0.64365 0.01746 0.72507 0.0
C234 C 0.62559 0.00484 0.74917 0.0
N235 N 0.6414 0.98042 0.70896 0.0
N236 N 0.61172 0.95989 0.74803 0.0
H237 H 0.6149 0.91129 0.71579 0.0
H238 H 0.65676 0.05154 0.7196 0.0
C239 C 0.70881 0.06607 0.66726 0.0
O240 O 0.67799 0.07312 0.64867 0.0
N241 N 0.68165 0.97633 0.63626 0.0
C242 C 0.72731 0.9748 0.62966 0.0
C243 C 0.73155 0.97051 0.60307 0.0
C244 C 0.65842 0.97346 0.6132 0.0
N245 N 0.68846 0.96955 0.59268 0.0
C246 C 0.69446 0.88587 0.66878 0.0
C247 C 0.77861 0.89976 0.69393 0.0
C248 C 0.77165 0.85805 0.68008 0.0
C249 C 0.72788 0.85054 0.66863 0.0
C250 C 0.74361 0.93412 0.69404 0.0
N251 N 0.70331 0.92771 0.68032 0.0
H252 H 0.66247 0.88062 0.6581 0.0
H253 H 0.75011 0.96669 0.70395 0.0
H254 H 0.75589 0.97627 0.64339 0.0
H255 H 0.62081 0.97317 0.61138 0.0
O256 O 0.60498 0.94306 0.66441 0.0
O257 O 0.60991 0.02015 0.66402 0.0
O258 O 0.70914 0.0272 0.67961 0.0
C259 C 0.58434 0.98324 0.66128 0.0
H260 H 0.62175 0.02744 0.76602 0.0
H261 H 0.76396 0.96852 0.59206 0.0
H262 H 0.8116 0.90695 0.70333 0.0
H263 H 0.72012 0.8183 0.65855 0.0
Co264 Co 0.50123 0.81464 0.90607 0.0
C265 C 0.53071 0.853 0.85488 0.0
C266 C 0.4595 0.82979 0.85391 0.0
C267 C 0.47122 0.84761 0.82957 0.0
N268 N 0.49691 0.83309 0.86966 0.0
N269 N 0.51595 0.86232 0.83026 0.0
H270 H 0.5654 0.86044 0.86205 0.0
H271 H 0.42585 0.81605 0.85976 0.0
C272 C 0.41498 0.76356 0.91267 0.0
O273 O 0.40739 0.79348 0.93169 0.0
N274 N 0.50647 0.79461 0.94254 0.0
C275 C 0.511 0.74959 0.95001 0.0
C276 C 0.51681 0.74746 0.97669 0.0
C277 C 0.50932 0.8194 0.96505 0.0
N278 N 0.51583 0.79127 0.98621 0.0
C279 C 0.59408 0.78017 0.90881 0.0
C280 C 0.57914 0.69918 0.88063 0.0
C281 C 0.62112 0.70425 0.8944 0.0
C282 C 0.62919 0.7465 0.9075 0.0
C283 C 0.54509 0.73422 0.8821 0.0
N284 N 0.55201 0.77274 0.89727 0.0
H285 H 0.59956 0.81106 0.92048 0.0
H286 H 0.51238 0.7292 0.87207 0.0
H287 H 0.51016 0.72008 0.93686 0.0
H288 H 0.5069 0.85702 0.96606 0.0
O289 O 0.53581 0.87137 0.91315 0.0
O290 O 0.45887 0.86441 0.91519 0.0
O291 O 0.45357 0.76476 0.90008 0.0
C292 C 0.49523 0.89115 0.91677 0.0
H293 H 0.44818 0.85073 0.81289 0.0
H294 H 0.51999 0.71588 0.9883 0.0
H295 H 0.57148 0.66747 0.87002 0.0
H296 H 0.66168 0.75278 0.91765 0.0
Co297 Co 0.16137 0.50912 0.89929 0.0
C298 C 0.12754 0.53364 0.84702 0.0
C299 C 0.15441 0.46363 0.84698 0.0
C300 C 0.13589 0.47346 0.82252 0.0
N301 N 0.14912 0.50159 0.86223 0.0
N302 N 0.11864 0.51742 0.82274 0.0
H303 H 0.11758 0.56798 0.85384 0.0
H304 H 0.16902 0.43067 0.85338 0.0
C305 C 0.24641 0.45103 0.9119 0.0
O306 O 0.25835 0.48039 0.93039 0.0
N307 N 0.17132 0.51921 0.93676 0.0
C308 C 0.16918 0.56142 0.94846 0.0
C309 C 0.16858 0.5558 0.97509 0.0
C310 C 0.17082 0.48809 0.95698 0.0
N311 N 0.16953 0.50991 0.98053 0.0
C312 C 0.19047 0.60442 0.89158 0.0
C313 C 0.28326 0.58498 0.88124 0.0
C314 C 0.27033 0.63093 0.88721 0.0
C315 C 0.22272 0.64091 0.89077 0.0
C316 C 0.24975 0.54974 0.88217 0.0
N317 N 0.20504 0.55909 0.89017 0.0
H318 H 0.15417 0.61256 0.89521 0.0
H319 H 0.26067 0.51504 0.87698 0.0
H320 H 0.16513 0.59454 0.93879 0.0
H321 H 0.16984 0.45058 0.95452 0.0
O322 O 0.1034 0.5438 0.90262 0.0
O323 O 0.11142 0.4672 0.90755 0.0
O324 O 0.21115 0.45923 0.89736 0.0
C325 C 0.08412 0.50339 0.90735 0.0
H326 H 0.13344 0.44942 0.80626 0.0
H327 H 0.16675 0.58346 0.98948 0.0
H328 H 0.31928 0.57569 0.87726 0.0
H329 H 0.2107 0.67632 0.89401 0.0
Co330 Co 0.46831 0.16729 0.90377 0.0
C331 C 0.43751 0.12889 0.85314 0.0
C332 C 0.50881 0.15184 0.85127 0.0
C333 C 0.49684 0.13381 0.82721 0.0
N334 N 0.47151 0.14888 0.8674 0.0
N335 N 0.45206 0.11928 0.82845 0.0
H336 H 0.4029 0.12154 0.86072 0.0
H337 H 0.54259 0.16539 0.8567 0.0
C338 C 0.55385 0.21844 0.90997 0.0
O339 O 0.56074 0.1882 0.92901 0.0
N340 N 0.46481 0.18724 0.94023 0.0
C341 C 0.4593 0.23209 0.94769 0.0
C342 C 0.45821 0.2342 0.97456 0.0
C343 C 0.46783 0.16263 0.96289 0.0
N344 N 0.46363 0.19063 0.98412 0.0
C345 C 0.37766 0.20661 0.9103 0.0
C346 C 0.39242 0.28319 0.87795 0.0
C347 C 0.35405 0.28306 0.89515 0.0
C348 C 0.34573 0.24347 0.91069 0.0
C349 C 0.42409 0.24596 0.87858 0.0
N350 N 0.41765 0.20975 0.89573 0.0
H351 H 0.37262 0.17743 0.92355 0.0
H352 H 0.45517 0.24758 0.86648 0.0
H353 H 0.45696 0.26157 0.93442 0.0
H354 H 0.4736 0.12536 0.96401 0.0
O355 O 0.43336 0.11093 0.91177 0.0
O356 O 0.51047 0.11716 0.91233 0.0
O357 O 0.51608 0.21699 0.89688 0.0
C358 C 0.47391 0.09081 0.91484 0.0
H359 H 0.51977 0.13038 0.81036 0.0
H360 H 0.45578 0.26566 0.98618 0.0
H361 H 0.39958 0.31314 0.86552 0.0
H362 H 0.31606 0.24208 0.92396 0.0
Co363 Co 0.80923 0.47144 0.89719 0.0
C364 C 0.84961 0.44472 0.8463 0.0
C365 C 0.82355 0.51507 0.845 0.0
C366 C 0.84399 0.50473 0.82109 0.0
N367 N 0.82705 0.4773 0.86068 0.0
N368 N 0.8606 0.46055 0.82202 0.0
H369 H 0.85815 0.41022 0.85361 0.0
H370 H 0.80836 0.54814 0.85072 0.0
C371 C 0.75516 0.55436 0.90721 0.0
O372 O 0.78554 0.55943 0.92618 0.0
N373 N 0.7905 0.4638 0.93384 0.0
C374 C 0.74638 0.45513 0.9419 0.0
C375 C 0.74561 0.45046 0.96871 0.0
C376 C 0.81601 0.46467 0.95612 0.0
N377 N 0.78932 0.45647 0.97769 0.0
C378 C 0.77924 0.37732 0.89873 0.0
C379 C 0.69402 0.39213 0.87469 0.0
C380 C 0.70215 0.34963 0.88775 0.0
C381 C 0.74651 0.34153 0.89845 0.0
C382 C 0.72827 0.42682 0.87494 0.0
N383 N 0.76883 0.41999 0.88838 0.0
H384 H 0.8117 0.37185 0.90899 0.0
H385 H 0.72088 0.46003 0.86572 0.0
H386 H 0.71643 0.45302 0.92915 0.0
H387 H 0.85309 0.47152 0.95671 0.0
O388 O 0.86697 0.43798 0.90362 0.0
O389 O 0.85773 0.51469 0.90614 0.0
O390 O 0.75781 0.51865 0.89237 0.0
C391 C 0.88548 0.47891 0.90735 0.0
H392 H 0.84766 0.52845 0.80462 0.0
H393 H 0.71482 0.44506 0.98077 0.0
H394 H 0.66056 0.39978 0.86585 0.0
H395 H 0.75507 0.30864 0.90786 0.0
Co396 Co 0.51351 0.16766 0.17167 0.0
C397 C 0.522 0.12601 0.22469 0.0
C398 C 0.49952 0.19719 0.22682 0.0
C399 C 0.5102 0.18174 0.25184 0.0
N400 N 0.50723 0.16219 0.20971 0.0
N401 N 0.52497 0.13702 0.25036 0.0
H402 H 0.53296 0.09281 0.2169 0.0
H403 H 0.49059 0.23261 0.22134 0.0
C404 C 0.42206 0.21184 0.16537 0.0
O405 O 0.4076 0.17132 0.15678 0.0
N406 N 0.5226 0.17225 0.13397 0.0
C407 C 0.56522 0.1679 0.12281 0.0
C408 C 0.56058 0.16564 0.09613 0.0
C409 C 0.49227 0.17252 0.11371 0.0
N410 N 0.51484 0.16833 0.0904 0.0
C411 C 0.59926 0.2052 0.19151 0.0
C412 C 0.5916 0.2894 0.16485 0.0
C413 C 0.63032 0.28132 0.1808 0.0
C414 C 0.63404 0.23892 0.19447 0.0
C415 C 0.55734 0.25542 0.1629 0.0
N416 N 0.56144 0.21407 0.1761 0.0
H417 H 0.60251 0.172 0.20152 0.0
H418 H 0.52784 0.26194 0.15028 0.0
H419 H 0.59761 0.16514 0.13352 0.0
H420 H 0.45478 0.17401 0.11574 0.0
O421 O 0.5507 0.11098 0.17057 0.0
O422 O 0.47361 0.1153 0.16715 0.0
O423 O 0.46454 0.2178 0.17184 0.0
C424 C 0.51089 0.08975 0.16724 0.0
H425 H 0.51038 0.20293 0.26936 0.0
H426 H 0.58872 0.16226 0.08197 0.0
H427 H 0.5877 0.32192 0.15412 0.0
H428 H 0.6638 0.23172 0.20688 0.0
Co429 Co 0.82606 0.50194 0.16523 0.0
C430 C 0.85902 0.53131 0.21786 0.0
C431 C 0.84911 0.45738 0.2161 0.0
C432 C 0.86901 0.46809 0.23989 0.0
N433 N 0.84133 0.49721 0.20249 0.0
N434 N 0.87554 0.51462 0.24086 0.0
H435 H 0.86271 0.5672 0.21182 0.0
H436 H 0.84324 0.42259 0.20867 0.0
C437 C 0.75472 0.43747 0.18717 0.0
O438 O 0.75012 0.46617 0.20707 0.0
N439 N 0.8138 0.50881 0.12805 0.0
C440 C 0.8117 0.55111 0.11636 0.0
C441 C 0.81144 0.54552 0.08975 0.0
C442 C 0.81496 0.47762 0.10816 0.0
N443 N 0.81376 0.49957 0.08453 0.0
C444 C 0.78224 0.59053 0.17973 0.0
C445 C 0.69505 0.5645 0.16194 0.0
C446 C 0.70162 0.61036 0.17015 0.0
C447 C 0.74567 0.62333 0.1796 0.0
C448 C 0.73215 0.53353 0.16199 0.0
N449 N 0.775 0.54584 0.17142 0.0
H450 H 0.8168 0.6022 0.18458 0.0
H451 H 0.72666 0.50045 0.15255 0.0
H452 H 0.81258 0.58413 0.12653 0.0
H453 H 0.81895 0.44031 0.11083 0.0
O454 O 0.87899 0.54337 0.16063 0.0
O455 O 0.87982 0.46586 0.15752 0.0
O456 O 0.78244 0.44722 0.16819 0.0
C457 C 0.90246 0.5049 0.15631 0.0
H458 H 0.88051 0.44328 0.2546 0.0
H459 H 0.81046 0.57321 0.07522 0.0
H460 H 0.66176 0.55287 0.1544 0.0
H461 H 0.75247 0.65897 0.18545 0.0
Co462 Co 0.48514 0.81394 0.17577 0.0
C463 C 0.4594 0.83933 0.22884 0.0
C464 C 0.53184 0.82028 0.22794 0.0
C465 C 0.52063 0.83667 0.25279 0.0
N466 N 0.49313 0.82213 0.21308 0.0
N467 N 0.47507 0.84908 0.25306 0.0
H468 H 0.42429 0.84661 0.22227 0.0
H469 H 0.5661 0.81015 0.22092 0.0
C470 C 0.54064 0.7302 0.15992 0.0
O471 O 0.50868 0.71977 0.14253 0.0
N472 N 0.47416 0.80817 0.13806 0.0
C473 C 0.43178 0.81281 0.1268 0.0
C474 C 0.43681 0.81637 0.10021 0.0
C475 C 0.50484 0.81007 0.11762 0.0
N476 N 0.48254 0.81479 0.09434 0.0
C477 C 0.38995 0.7848 0.18308 0.0
C478 C 0.40914 0.69187 0.19298 0.0
C479 C 0.36309 0.70535 0.18779 0.0
C480 C 0.3533 0.75298 0.18446 0.0
C481 C 0.44459 0.72505 0.19161 0.0
N482 N 0.43521 0.76986 0.18385 0.0
H483 H 0.38186 0.82124 0.18 0.0
H484 H 0.47944 0.71393 0.19636 0.0
H485 H 0.39896 0.81661 0.13686 0.0
H486 H 0.54243 0.80962 0.11977 0.0
O487 O 0.45062 0.87184 0.1747 0.0
O488 O 0.52729 0.8641 0.16895 0.0
O489 O 0.53462 0.76428 0.17555 0.0
C490 C 0.49107 0.89124 0.17025 0.0
H491 H 0.54469 0.84173 0.26882 0.0
H492 H 0.40886 0.82049 0.08616 0.0
H493 H 0.41821 0.65573 0.19674 0.0
H494 H 0.31782 0.76532 0.18188 0.0
Co495 Co 0.17549 0.47874 0.16828 0.0
C496 C 0.13336 0.44643 0.21813 0.0
C497 C 0.15937 0.5164 0.22149 0.0
C498 C 0.13886 0.50364 0.24503 0.0
N499 N 0.15603 0.48041 0.20473 0.0
N500 N 0.12234 0.45969 0.24286 0.0
H501 H 0.12497 0.41277 0.20986 0.0
H502 H 0.17467 0.54993 0.21682 0.0
C503 C 0.22831 0.56334 0.1629 0.0
O504 O 0.19916 0.57141 0.14359 0.0
N505 N 0.19589 0.47555 0.13172 0.0
C506 C 0.24064 0.46973 0.12395 0.0
C507 C 0.24232 0.46623 0.09708 0.0
C508 C 0.17088 0.47569 0.10924 0.0
N509 N 0.19849 0.46995 0.08779 0.0
C510 C 0.20526 0.3846 0.16477 0.0
C511 C 0.2892 0.39619 0.19048 0.0
C512 C 0.28079 0.35409 0.17729 0.0
C513 C 0.23703 0.34782 0.16553 0.0
C514 C 0.25568 0.43163 0.18999 0.0
N515 N 0.21566 0.42634 0.17594 0.0
H516 H 0.17322 0.38034 0.15398 0.0
H517 H 0.26311 0.46401 0.19986 0.0
H518 H 0.27027 0.46825 0.13698 0.0
H519 H 0.13338 0.47968 0.10841 0.0
O520 O 0.11858 0.44632 0.15991 0.0
O521 O 0.12755 0.5233 0.16011 0.0
O522 O 0.22605 0.52486 0.1755 0.0
C523 C 0.10027 0.48774 0.15715 0.0
H524 H 0.13517 0.5256 0.26214 0.0
H525 H 0.27362 0.46272 0.08523 0.0
H526 H 0.32212 0.40287 0.20005 0.0
H527 H 0.2278 0.31536 0.15611 0.0
C528 C 0.94139 0.50387 0.40989 0.0
C529 C 0.98098 0.53252 0.41089 0.0
H530 H 0.91529 0.43409 0.40816 0.0
C531 C 0.02542 0.51193 0.41302 0.0
H532 H 0.90673 0.51884 0.40834 0.0
C533 C 0.03037 0.46349 0.41275 0.0
C534 C -0.00904 0.43487 0.41055 0.0
H535 H 0.05659 0.5332 0.41391 0.0
H536 H 0.06515 0.44858 0.41346 0.0
C537 C 0.94634 0.45539 0.40982 0.0
C538 C 0.51551 0.94313 0.42177 0.0
C539 C 0.5364 0.9875 0.42076 0.0
H540 H 0.45184 0.90422 0.42138 0.0
C541 C 0.50814 0.02747 0.42178 0.0
H542 H 0.53654 0.91164 0.42122 0.0
C543 C 0.45964 0.02314 0.42196 0.0
C544 C 0.43876 0.97878 0.42108 0.0
H545 H 0.52335 0.06206 0.42116 0.0
H546 H 0.4386 0.05463 0.42154 0.0
C547 C 0.46703 0.9388 0.4219 0.0
C548 C 0.02237 0.46212 0.6492 0.0
C549 C 0.97794 0.44171 0.65146 0.0
H550 H 0.06207 0.5253 0.64887 0.0
C551 C 0.93829 0.47054 0.65245 0.0
H552 H 0.05359 0.44073 0.64828 0.0
C553 C 0.94319 0.51901 0.65262 0.0
C554 C 0.98782 0.53933 0.65197 0.0
H555 H 0.90363 0.45572 0.6541 0.0
H556 H 0.9121 0.54042 0.65441 0.0
C557 C 0.02728 0.51054 0.64954 0.0
C558 C 0.50565 0.94719 0.65625 0.0
C559 C 0.53362 0.98726 0.65715 0.0
H560 H 0.43634 0.9197 0.6565 0.0
C561 C 0.51225 0.03152 0.65647 0.0
H562 H 0.52117 0.91266 0.65665 0.0
C563 C 0.46366 0.03561 0.65648 0.0
C564 C 0.43567 -0.00449 0.65709 0.0
H565 H 0.53298 0.06308 0.65702 0.0
H566 H 0.44812 0.07012 0.65707 0.0
C567 C 0.45707 0.95128 0.65618 0.0
C568 C 0.5292 0.97121 0.92036 0.0
C569 C 0.48992 0.94209 0.9201 0.0
H570 H 0.55484 0.04123 0.91922 0.0
C571 C 0.44511 0.96239 0.92065 0.0
H572 H 0.56414 0.9566 0.91999 0.0
C573 C 0.4397 0.01091 0.92005 0.0
C574 C 0.47901 0.03999 0.91902 0.0
H575 H 0.4141 0.94082 0.92051 0.0
H576 H 0.40479 0.02552 0.91948 0.0
C577 C 0.5238 0.01971 0.91989 0.0
C578 C 0.96583 0.4465 0.91227 0.0
C579 C 0.93602 0.48527 0.91071 0.0
H580 H 0.03629 0.422 0.91273 0.0
C581 C 0.95522 0.53043 0.91024 0.0
H582 H 0.95196 0.41135 0.91272 0.0
C583 C 0.00355 0.53661 0.91002 0.0
C584 C 0.03336 0.49773 0.91047 0.0
H585 H 0.933 0.56103 0.90907 0.0
H586 H 0.01747 0.57169 0.90875 0.0
C587 C 0.01411 0.45269 0.91225 0.0
C588 C 0.4569 0.97051 0.16615 0.0
C589 C 0.49637 0.94181 0.16774 0.0
H590 H 0.4308 0.04008 0.16435 0.0
C591 C 0.54116 0.96186 0.16772 0.0
H592 H 0.42207 0.95583 0.16599 0.0
C593 C 0.54629 0.01021 0.16697 0.0
C594 C 0.5067 0.03892 0.166 0.0
H595 H 0.57222 0.9403 0.16892 0.0
H596 H 0.58103 0.02504 0.16761 0.0
C597 C 0.46203 0.0187 0.16517 0.0
C598 C 0.98084 0.54273 0.15708 0.0
C599 C 0.95305 0.50366 0.15208 0.0
H600 H 0.05025 0.56821 0.1624 0.0
C601 C 0.97432 0.46092 0.14554 0.0
H602 H 0.96518 0.57601 0.1621 0.0
C603 C 0.02257 0.45627 0.14597 0.0
C604 C 0.05031 0.49442 0.15267 0.0
H605 H 0.95367 0.4303 0.14119 0.0
H606 H 0.03798 0.42242 0.142 0.0
C607 C 0.02936 0.53815 0.15728 0.0
C608 C 0.03806 0.37531 0.27456 0.0
C609 C 0.04589 0.3831 0.30141 0.0
H610 H 0.05625 0.39334 0.2349 0.0
C611 C 0.07951 0.41636 0.30857 0.0
H612 H 0.01263 0.34981 0.26836 0.0
C613 C 0.10449 0.44129 0.28942 0.0
C614 C 0.09686 0.43339 0.26256 0.0
H615 H 0.08607 0.42374 0.32902 0.0
H616 H 0.13013 0.46653 0.29567 0.0
C617 C 0.06342 0.39994 0.25537 0.0
C618 C 0.5775 0.07254 0.26415 0.0
C619 C 0.54653 0.10902 0.27075 0.0
H620 H 0.62222 0.01777 0.27763 0.0
C621 C 0.53794 0.11789 0.29751 0.0
H622 H 0.5865 0.06518 0.24397 0.0
C623 C 0.55936 0.09063 0.31704 0.0
C624 C 0.58955 0.05372 0.31021 0.0
H625 H 0.51425 0.14547 0.30339 0.0
H626 H 0.55153 0.09777 0.33744 0.0
C627 C 0.59842 0.04525 0.28355 0.0
C628 C 0.89489 0.52641 0.28761 0.0
C629 C 0.89909 0.54032 0.26122 0.0
H630 H 0.91322 0.53968 0.32757 0.0
C631 C 0.92691 0.57942 0.25512 0.0
H632 H 0.87368 0.49656 0.29294 0.0
C633 C 0.94992 0.60398 0.27498 0.0
C634 C 0.945 0.59049 0.30141 0.0
H635 H 0.93142 0.59065 0.23497 0.0
H636 H 0.97092 0.63401 0.26972 0.0
C637 C 0.91725 0.55136 0.30746 0.0
C638 C 0.45736 0.86562 0.29995 0.0
C639 C 0.44944 0.87395 0.27312 0.0
H640 H 0.43798 0.88252 0.33963 0.0
C641 C 0.41533 0.90695 0.26593 0.0
H642 H 0.48337 0.84037 0.30604 0.0
C643 C 0.38956 0.93078 0.28494 0.0
C644 C 0.39697 0.92236 0.31175 0.0
H645 H 0.40884 0.91492 0.2455 0.0
H646 H 0.36343 0.95568 0.27857 0.0
C647 C 0.43109 0.88937 0.31911 0.0
C648 C 0.10166 0.53215 0.77569 0.0
C649 C 0.09257 0.54101 0.80235 0.0
H650 H 0.08439 0.54798 0.7357 0.0
C651 C 0.0574 0.57343 0.80887 0.0
H652 H 0.12856 0.50749 0.77002 0.0
C653 C 0.03208 0.5965 0.78928 0.0
C654 C 0.04148 0.58814 0.76261 0.0
H655 H 0.04893 0.58061 0.82918 0.0
H656 H 0.00548 0.6214 0.79506 0.0
C657 C 0.07663 0.55567 0.75604 0.0
C658 C 0.39216 0.0627 0.81437 0.0
C659 C 0.42633 0.09613 0.80805 0.0
H660 H 0.34292 0.01289 0.80006 0.0
C661 C 0.4359 0.10564 0.78146 0.0
H662 H 0.38428 0.05426 0.83463 0.0
C663 C 0.41217 0.08196 0.76164 0.0
C664 C 0.37869 0.04786 0.76797 0.0
H665 H 0.46174 0.13146 0.77597 0.0
H666 H 0.42088 0.08954 0.74137 0.0
C667 C 0.3688 0.03868 0.79456 0.0
C668 C 0.9195 0.40168 0.80818 0.0
C669 C 0.88622 0.43609 0.80174 0.0
H670 H 0.96941 0.35155 0.79407 0.0
C671 C 0.87851 0.44635 0.77512 0.0
H672 H 0.9268 0.39335 0.82848 0.0
C673 C 0.90292 0.42243 0.75544 0.0
C674 C 0.93604 0.38787 0.76184 0.0
H675 H 0.85305 0.47245 0.76946 0.0
H676 H 0.89614 0.43137 0.73516 0.0
C677 C 0.9443 0.37805 0.78847 0.0
C678 C 0.57566 0.91895 0.81529 0.0
C679 C 0.54155 0.88542 0.80947 0.0
H680 H 0.62477 0.96878 0.8003 0.0
C681 C 0.53202 0.87571 0.783 0.0
H682 H 0.58354 0.92756 0.83543 0.0
C683 C 0.55573 0.89932 0.76284 0.0
C684 C 0.5891 0.93357 0.76869 0.0
H685 H 0.50623 0.84979 0.77788 0.0
H686 H 0.54709 0.89161 0.74267 0.0
C687 C 0.59896 0.9429 0.79515 0.0
C688 C 0.18536 0.16193 0.41508 0.0
C689 C 0.16198 0.16404 0.39093 0.0
H690 H 0.23534 0.12685 0.43888 0.0
C691 C 0.17104 0.12923 0.37213 0.0
H692 H 0.17812 0.18697 0.43044 0.0
C693 C 0.20351 0.09366 0.37731 0.0
C694 C 0.22759 0.09275 0.40124 0.0
H695 H 0.15359 0.1298 0.35334 0.0
H696 H 0.21045 0.06754 0.36247 0.0
C697 C 0.21795 0.12707 0.42006 0.0
C698 C 0.87865 0.19405 0.3787 0.0
C699 C 0.88555 0.21637 0.40285 0.0
H700 H 0.83721 0.14556 0.35692 0.0
C701 C 0.85726 0.20404 0.42434 0.0
H702 H 0.89998 0.20305 0.3618 0.0
C703 C 0.82215 0.17091 0.42175 0.0
C704 C 0.8136 0.14969 0.39742 0.0
H705 H 0.86224 0.22005 0.44335 0.0
H706 H 0.80176 0.1619 0.43899 0.0
C707 C 0.84276 0.16114 0.37595 0.0
C708 C 0.77697 0.79388 0.4047 0.0
C709 C 0.81132 0.80176 0.3854 0.0
H710 H 0.71848 0.82075 0.4258 0.0
C711 C 0.81101 0.84442 0.37155 0.0
H712 H 0.77666 0.76199 0.41621 0.0
C713 C 0.77772 0.87881 0.3774 0.0
C714 C 0.7442 0.87106 0.39718 0.0
H715 H 0.83678 0.85145 0.35641 0.0
H716 H 0.77862 0.91157 0.3667 0.0
C717 C 0.74382 0.82797 0.41045 0.0
C718 C 0.0952 0.77527 0.38286 0.0
C719 C 0.07346 0.77276 0.40767 0.0
H720 H 0.15141 0.80419 0.35986 0.0
C721 C 0.09284 0.79744 0.42868 0.0
H722 H 0.08084 0.75676 0.36629 0.0
C723 C 0.13346 0.8236 0.42509 0.0
C724 C 0.15506 0.82638 0.40032 0.0
H725 H 0.07698 0.79598 0.44802 0.0
H726 H 0.14774 0.84223 0.44166 0.0
C727 C 0.13538 0.80239 0.37914 0.0
C728 C 0.19895 0.87692 0.6941 0.0
C729 C 0.22332 0.88128 0.67021 0.0
H730 H 0.14899 0.83743 0.71649 0.0
C731 C 0.2141 0.84985 0.6499 0.0
H732 H 0.20561 0.90074 0.71009 0.0
C733 C 0.18158 0.81442 0.65334 0.0
C734 C 0.1579 0.80883 0.67738 0.0
H735 H 0.23177 0.8528 0.63111 0.0
H736 H 0.17464 0.79174 0.63688 0.0
C737 C 0.16661 0.84075 0.69772 0.0
C738 C 0.12808 0.17203 0.69312 0.0
C739 C 0.15125 0.14735 0.67319 0.0
H740 H 0.07194 0.21881 0.70282 0.0
C741 C 0.13429 0.14976 0.64742 0.0
H742 H 0.14059 0.17049 0.71312 0.0
C743 C 0.09483 0.17644 0.6416 0.0
C744 C 0.07204 0.20198 0.66134 0.0
H745 H 0.15144 0.13062 0.63179 0.0
H746 H 0.08264 0.17767 0.62153 0.0
C747 C 0.08905 0.19966 0.68718 0.0
C748 C 0.77577 0.09795 0.69327 0.0
C749 C 0.74286 0.10312 0.67312 0.0
H750 H 0.83388 0.12808 0.71334 0.0
C751 C 0.74259 0.14445 0.65818 0.0
H752 H 0.77654 0.06662 0.70525 0.0
C753 C 0.77524 0.17933 0.66271 0.0
C754 C 0.80895 0.17397 0.6824 0.0
H755 H 0.71769 0.14966 0.64252 0.0
H756 H 0.77508 0.20977 0.65002 0.0
C757 C 0.80856 0.13311 0.69787 0.0
C758 C 0.84921 0.76906 0.6463 0.0
C759 C 0.88164 0.75759 0.66583 0.0
H760 H 0.79062 0.81035 0.63517 0.0
C761 C 0.879 0.7806 0.69012 0.0
H762 H 0.8507 0.75258 0.62722 0.0
C763 C 0.84352 0.81348 0.69496 0.0
C764 C 0.81034 0.82405 0.67551 0.0
H765 H 0.90358 0.77238 0.70555 0.0
H766 H 0.84152 0.8298 0.71405 0.0
C767 C 0.81437 0.80202 0.65098 0.0
C768 C 0.67691 0.65723 0.92132 0.0
C769 C 0.65462 0.66471 0.89716 0.0
H770 H 0.72553 0.61669 0.94331 0.0
C771 C 0.66386 0.63361 0.8764 0.0
H772 H 0.66955 0.67929 0.93805 0.0
C773 C 0.69563 0.59665 0.87966 0.0
C774 C 0.71884 0.59049 0.90364 0.0
H775 H 0.6473 0.63833 0.85753 0.0
H776 H 0.70291 0.57374 0.86327 0.0
C777 C 0.70877 0.62091 0.92444 0.0
C778 C 0.38343 0.70014 0.88391 0.0
C779 C 0.37805 0.73007 0.90551 0.0
H780 H 0.35311 0.6461 0.86063 0.0
C781 C 0.33631 0.72855 0.9201 0.0
H782 H 0.41504 0.7008 0.87213 0.0
C783 C 0.30101 0.69737 0.91356 0.0
C784 C 0.30643 0.66694 0.8922 0.0
H785 H 0.33096 0.75113 0.93685 0.0
H786 H 0.26999 0.69619 0.92581 0.0
C787 C 0.34795 0.66886 0.87732 0.0
C788 C 0.32437 0.34657 0.92402 0.0
C789 C 0.32603 0.32585 0.8991 0.0
H790 H 0.29854 0.40306 0.94744 0.0
C791 C 0.30215 0.34694 0.87822 0.0
H792 H 0.34301 0.33107 0.94034 0.0
C793 C 0.27609 0.3877 0.88236 0.0
C794 C 0.27462 0.40861 0.90729 0.0
H795 H 0.30323 0.3316 0.85883 0.0
H796 H 0.25747 0.40311 0.86601 0.0
C797 C 0.29931 0.38786 0.92801 0.0
C798 C 0.62871 0.30757 0.87409 0.0
C799 C 0.66365 0.31599 0.89279 0.0
H800 H 0.56604 0.27011 0.86489 0.0
C801 C 0.66076 0.2933 0.91727 0.0
H802 H 0.62989 0.32444 0.85504 0.0
C803 C 0.62482 0.26211 0.92272 0.0
C804 C 0.59029 0.25323 0.90402 0.0
H805 H 0.68599 0.30004 0.93253 0.0
H806 H 0.62399 0.24516 0.94177 0.0
C807 C 0.59218 0.27654 0.87971 0.0
C808 C 0.68755 0.33552 0.16023 0.0
C809 C 0.66614 0.31775 0.18299 0.0
H810 H 0.7329 0.38725 0.14377 0.0
C811 C 0.67582 0.3379 0.20736 0.0
H812 H 0.68039 0.32036 0.14124 0.0
C813 C 0.70513 0.37669 0.20881 0.0
C814 C 0.72571 0.39523 0.18593 0.0
H815 H 0.65926 0.3248 0.22509 0.0
H816 H 0.71129 0.39244 0.22776 0.0
C817 C 0.71747 0.3737 0.16171 0.0
C818 C 0.59563 0.67081 0.14199 0.0
C819 C 0.58303 0.70125 0.16227 0.0
H820 H 0.6441 0.61981 0.12815 0.0
C821 C 0.61163 0.7042 0.18459 0.0
H822 H 0.57488 0.6685 0.12434 0.0
C823 C 0.65123 0.67581 0.18694 0.0
C824 C 0.66289 0.64425 0.16697 0.0
H825 H 0.60288 0.72767 0.2005 0.0
H826 H 0.67178 0.67748 0.20469 0.0
C827 C 0.6353 0.64293 0.14421 0.0
C828 C 0.29233 0.59358 0.19156 0.0
C829 C 0.26231 0.59954 0.17008 0.0
H830 H 0.34726 0.62301 0.21454 0.0
C831 C 0.26432 0.64116 0.15547 0.0
H832 H 0.29126 0.56197 0.2033 0.0
C833 C 0.2961 0.67584 0.16186 0.0
C834 C 0.32663 0.66988 0.18308 0.0
H835 H 0.24169 0.64691 0.1388 0.0
H836 H 0.29769 0.70679 0.14959 0.0
C837 C 0.3243 0.62849 0.19799 0.0
C838 C 0.3524 0.31159 0.19369 0.0
C839 C 0.31806 0.31813 0.17432 0.0
H840 H 0.41324 0.27327 0.20566 0.0
C841 C 0.3202 0.29062 0.15149 0.0
H842 H 0.35177 0.33153 0.21167 0.0
C843 C 0.35441 0.2564 0.14858 0.0
C844 C 0.38825 0.24997 0.16795 0.0
H845 H 0.29569 0.29555 0.13563 0.0
H846 H 0.35466 0.23515 0.13104 0.0
C847 C 0.3876 0.27819 0.19034 0.0
C848 C 0.96545 0.32472 0.51253 0.0
C849 C 0.00547 0.30008 0.50458 0.0
H850 H 0.92127 0.34443 0.5448 0.0
C851 C 0.03561 0.28202 0.52389 0.0
H852 H 0.9415 0.3386 0.49808 0.0
C853 C 0.02449 0.2861 0.5506 0.0
C854 C 0.98256 0.30744 0.55838 0.0
H855 H 0.06679 0.26303 0.51821 0.0
H856 H 0.04685 0.26973 0.56505 0.0
C857 C 0.95385 0.32788 0.53917 0.0
C858 C 0.70671 0.93467 0.55011 0.0
C859 C 0.67917 0.96528 0.5651 0.0
H860 H 0.73136 0.91597 0.51189 0.0
C861 C 0.64902 -0.00347 0.55217 0.0
H862 H 0.72981 0.90995 0.55964 0.0
C863 C 0.64984 -0.00011 0.52462 0.0
C864 C 0.68089 0.9721 0.50993 0.0
H865 H 0.62773 0.02065 0.56338 0.0
H866 H 0.62904 0.02644 0.51497 0.0
C867 C 0.70765 0.93813 0.52287 0.0
C868 C 0.03143 0.70078 0.54059 0.0
C869 C 0.00455 0.67783 0.55998 0.0
H870 H 0.0409 0.71512 0.49941 0.0
C871 C 0.96937 0.64706 0.55203 0.0
H872 H 0.05912 0.72433 0.54617 0.0
C873 C 0.95892 0.64213 0.52542 0.0
C874 C 0.98392 0.6672 0.50615 0.0
H875 H 0.94795 0.6291 0.56643 0.0
H876 H 0.92982 0.62029 0.51987 0.0
C877 C 0.02144 0.6952 0.51388 0.0
C878 C 0.26624 0.0404 0.54832 0.0
C879 C 0.29301 0.01136 0.56465 0.0
H880 H 0.24278 0.05455 0.50933 0.0
C881 C 0.32328 0.97841 0.55319 0.0
H882 H 0.24312 0.06642 0.55671 0.0
C883 C 0.32322 0.97177 0.52588 0.0
C884 C 0.29282 -0.00204 0.51 0.0
H885 H 0.34401 0.95549 0.56545 0.0
H886 H 0.34403 0.94395 0.51743 0.0
C887 C 0.26601 0.03365 0.52132 0.0
C888 C 0.53891 0.77506 1.03219 0.0
C889 C 0.51597 0.80363 1.01365 0.0
H890 H 0.54692 0.75705 0.07296 0.0
C891 C 0.48882 0.84116 1.02273 0.0
H892 H 0.56075 0.74634 1.02579 0.0
C893 C 0.48122 0.84723 0.04962 0.0
C894 C 0.50095 0.81629 0.06802 0.0
H895 H 0.47067 0.86374 1.00907 0.0
H896 H 0.45749 0.87443 0.05605 0.0
C897 C 0.53161 0.78147 0.05917 0.0
C898 C 0.21263 0.4503 0.04102 0.0
C899 C 0.18545 0.47257 0.06048 0.0
H900 H 0.22793 0.44404 0.99977 0.0
C901 C 0.1481 0.5011 0.05259 0.0
H902 H 0.24119 0.42748 0.04647 0.0
C903 C 0.14062 0.51028 1.026 0.0
C904 C 0.16988 0.49077 1.00667 0.0
H905 H 0.12659 0.51886 0.06697 0.0
H906 H 0.11348 0.5348 1.02051 0.0
C907 C 0.20474 0.45915 1.01431 0.0
C908 C 0.45965 0.19869 0.05746 0.0
C909 C 0.4957 0.16788 0.06439 0.0
H910 H 0.42096 0.22999 1.02605 0.0
C911 C 0.51657 0.14019 0.04481 0.0
H912 H 0.44312 0.22041 0.07218 0.0
C913 C 0.50381 0.14538 1.01855 0.0
C914 C 0.47034 0.17881 1.01133 0.0
H915 H 0.54408 0.11573 0.04975 0.0
H916 H 0.52222 0.12535 1.00376 0.0
C917 C 0.44731 0.20436 1.03111 0.0
C918 C 0.83667 0.49197 1.01261 0.0
C919 C 0.80233 0.46005 1.00492 0.0
H920 H 0.86746 0.52915 0.04447 0.0
C921 C 0.77725 0.43558 1.02449 0.0
H922 H 0.85646 0.51146 0.99812 0.0
C923 C 0.78388 0.44552 0.05112 0.0
C924 C 0.8153 0.48041 0.05853 0.0
H925 H 0.75106 0.41022 1.01915 0.0
H926 H 0.76214 0.4285 0.06574 0.0
C927 C 0.84286 0.5022 0.03913 0.0
loop_
_geom_bond_atom_site_label_1
_geom_bond_atom_site_label_2
_geom_bond_distance
_geom_bond_site_symmetry_2
_ccdc_geom_bond_type
Co0 N4 2.148 . S
Co0 N10 2.128 . S
Co0 N20 2.194 . S
Co0 O25 2.351 . S
Co0 O26 2.155 . S
Co0 O27 2.096 1_455 S
C1 N4 1.301 . S
C1 N5 1.328 . S
C1 H6 0.930 . S
C2 C3 1.333 1_655 S
C2 N4 1.317 1_655 S
C2 H7 0.930 . S
C3 C2 1.333 1_455 S
C3 N5 1.350 . S
C3 H29 0.931 1_455 S
N4 Co0 2.148 . S
N4 C1 1.301 . S
N4 C2 1.317 1_455 S
N5 C1 1.328 . S
N5 C3 1.350 . S
H6 C1 0.930 . S
H7 C2 0.930 . S
C8 O9 1.224 . S
C8 O27 1.247 . S
O9 C8 1.224 . S
N10 Co0 2.128 . S
N10 C11 1.355 . S
N10 C13 1.311 1_455 S
C11 N10 1.355 . S
C11 C12 1.363 . S
C11 H23 0.929 . S
C12 C11 1.363 . S
C12 N14 1.375 . S
C12 H30 0.931 . S
C13 N10 1.311 1_655 S
C13 N14 1.347 1_655 S
C13 H24 0.929 . S
N14 C12 1.375 . S
N14 C13 1.347 1_455 S
C15 C18 1.365 . S
C15 N20 1.328 . S
C15 H21 0.929 . S
C16 C17 1.362 . S
C16 C19 1.378 . S
C16 H31 0.929 . S
C17 C16 1.362 . S
C17 C18 1.366 . S
C18 C15 1.365 . S
C18 C17 1.366 . S
C18 H32 0.930 . S
C19 C16 1.378 . S
C19 N20 1.315 . S
C19 H22 0.930 . S
N20 Co0 2.194 . S
N20 C15 1.328 . S
N20 C19 1.315 . S
H21 C15 0.929 . S
H22 C19 0.930 . S
H23 C11 0.929 . S
H24 C13 0.929 . S
O25 Co0 2.351 . S
O25 C28 1.244 . S
O26 Co0 2.155 . S
O26 C28 1.240 . S
O27 Co0 2.096 1_655 S
O27 C8 1.247 . S
C28 O25 1.244 . S
C28 O26 1.240 . S
H29 C3 0.931 1_655 S
H30 C12 0.931 . S
H31 C16 0.929 . S
H32 C18 0.930 . S
Co33 N37 2.148 . S
Co33 N43 2.128 . S
Co33 N53 2.194 . S
Co33 O58 2.351 . S
Co33 O59 2.155 . S
Co33 O60 2.096 1_545 S
C34 N37 1.301 . S
C34 N38 1.328 . S
C34 H39 0.930 . S
C35 C36 1.333 1_565 S
C35 N37 1.317 1_565 S
C35 H40 0.930 . S
C36 C35 1.333 1_545 S
C36 N38 1.350 . S
C36 H62 0.931 1_545 S
N37 Co33 2.148 . S
N37 C34 1.301 . S
N37 C35 1.317 1_545 S
N38 C34 1.328 . S
N38 C36 1.350 . S
H39 C34 0.930 . S
H40 C35 0.930 . S
C41 O42 1.224 . S
C41 O60 1.247 . S
O42 C41 1.224 . S
N43 Co33 2.128 . S
N43 C44 1.355 . S
N43 C46 1.311 1_545 S
C44 N43 1.355 . S
C44 C45 1.363 . S
C44 H56 0.929 . S
C45 C44 1.363 . S
C45 N47 1.375 . S
C45 H63 0.931 . S
C46 N43 1.311 1_565 S
C46 N47 1.347 1_565 S
C46 H57 0.929 . S
N47 C45 1.375 . S
N47 C46 1.347 1_545 S
C48 C51 1.365 . S
C48 N53 1.328 . S
C48 H54 0.929 . S
C49 C50 1.362 . S
C49 C52 1.378 . S
C49 H64 0.929 . S
C50 C49 1.362 . S
C50 C51 1.366 . S
C51 C48 1.365 . S
C51 C50 1.366 . S
C51 H65 0.930 . S
C52 C49 1.378 . S
C52 N53 1.315 . S
C52 H55 0.930 . S
N53 Co33 2.194 . S
N53 C48 1.328 . S
N53 C52 1.315 . S
H54 C48 0.929 . S
H55 C52 0.930 . S
H56 C44 0.929 . S
H57 C46 0.929 . S
O58 Co33 2.351 . S
O58 C61 1.244 . S
O59 Co33 2.155 . S
O59 C61 1.240 . S
O60 Co33 2.096 1_565 S
O60 C41 1.247 . S
C61 O58 1.244 . S
C61 O59 1.240 . S
H62 C36 0.931 1_565 S
H63 C45 0.931 . S
H64 C49 0.929 . S
H65 C51 0.930 . S
Co66 N70 2.148 . S
Co66 N76 2.128 . S
Co66 N86 2.194 . S
Co66 O91 2.351 . S
Co66 O92 2.155 . S
Co66 O93 2.096 1_655 S
C67 N70 1.301 . S
C67 N71 1.328 . S
C67 H72 0.930 . S
C68 C69 1.333 1_455 S
C68 N70 1.317 1_455 S
C68 H73 0.930 . S
C69 C68 1.333 1_655 S
C69 N71 1.350 . S
C69 H95 0.931 1_655 S
N70 Co66 2.148 . S
N70 C67 1.301 . S
N70 C68 1.317 1_655 S
N71 C67 1.328 . S
N71 C69 1.350 . S
H72 C67 0.930 . S
H73 C68 0.930 . S
C74 O75 1.224 . S
C74 O93 1.247 . S
O75 C74 1.224 . S
N76 Co66 2.128 . S
N76 C77 1.355 . S
N76 C79 1.311 1_655 S
C77 N76 1.355 . S
C77 C78 1.363 . S
C77 H89 0.929 . S
C78 C77 1.363 . S
C78 N80 1.375 . S
C78 H96 0.931 . S
C79 N76 1.311 1_455 S
C79 N80 1.347 1_455 S
C79 H90 0.929 . S
N80 C78 1.375 . S
N80 C79 1.347 1_655 S
C81 C84 1.365 . S
C81 N86 1.328 . S
C81 H87 0.929 . S
C82 C83 1.362 . S
C82 C85 1.378 . S
C82 H97 0.929 . S
C83 C82 1.362 . S
C83 C84 1.366 . S
C84 C81 1.365 . S
C84 C83 1.366 . S
C84 H98 0.930 . S
C85 C82 1.378 . S
C85 N86 1.315 . S
C85 H88 0.930 . S
N86 Co66 2.194 . S
N86 C81 1.328 . S
N86 C85 1.315 . S
H87 C81 0.929 . S
H88 C85 0.930 . S
H89 C77 0.929 . S
H90 C79 0.929 . S
O91 Co66 2.351 . S
O91 C94 1.244 . S
O92 Co66 2.155 . S
O92 C94 1.240 . S
O93 Co66 2.096 1_455 S
O93 C74 1.247 . S
C94 O91 1.244 . S
C94 O92 1.240 . S
H95 C69 0.931 1_455 S
H96 C78 0.931 . S
H97 C82 0.929 . S
H98 C84 0.930 . S
Co99 N103 2.148 . S
Co99 N109 2.128 . S
Co99 N119 2.194 . S
Co99 O124 2.351 . S
Co99 O125 2.155 . S
Co99 O126 2.096 1_565 S
C100 N103 1.301 . S
C100 N104 1.328 . S
C100 H105 0.930 . S
C101 C102 1.333 1_545 S
C101 N103 1.317 1_545 S
C101 H106 0.930 . S
C102 C101 1.333 1_565 S
C102 N104 1.350 . S
C102 H128 0.931 1_565 S
N103 Co99 2.148 . S
N103 C100 1.301 . S
N103 C101 1.317 1_565 S
N104 C100 1.328 . S
N104 C102 1.350 . S
H105 C100 0.930 . S
H106 C101 0.930 . S
C107 O108 1.224 . S
C107 O126 1.247 . S
O108 C107 1.224 . S
N109 Co99 2.128 . S
N109 C110 1.355 . S
N109 C112 1.311 1_565 S
C110 N109 1.355 . S
C110 C111 1.363 . S
C110 H122 0.929 . S
C111 C110 1.363 . S
C111 N113 1.375 . S
C111 H129 0.931 . S
C112 N109 1.311 1_545 S
C112 N113 1.347 1_545 S
C112 H123 0.929 . S
N113 C111 1.375 . S
N113 C112 1.347 1_565 S
C114 C117 1.365 . S
C114 N119 1.328 . S
C114 H120 0.929 . S
C115 C116 1.362 . S
C115 C118 1.378 . S
C115 H130 0.929 . S
C116 C115 1.362 . S
C116 C117 1.366 . S
C117 C114 1.365 . S
C117 C116 1.366 . S
C117 H131 0.930 . S
C118 C115 1.378 . S
C118 N119 1.315 . S
C118 H121 0.930 . S
N119 Co99 2.194 . S
N119 C114 1.328 . S
N119 C118 1.315 . S
H120 C114 0.929 . S
H121 C118 0.930 . S
H122 C110 0.929 . S
H123 C112 0.929 . S
O124 Co99 2.351 . S
O124 C127 1.244 . S
O125 Co99 2.155 . S
O125 C127 1.240 . S
O126 Co99 2.096 1_545 S
O126 C107 1.247 . S
C127 O124 1.244 . S
C127 O125 1.240 . S
H128 C102 0.931 1_545 S
H129 C111 0.931 . S
H130 C115 0.929 . S
H131 C117 0.930 . S
Co132 N136 2.148 . S
Co132 N142 2.128 . S
Co132 N152 2.194 . S
Co132 O157 2.351 . S
Co132 O158 2.155 . S
Co132 O159 2.096 1_455 S
C133 N136 1.301 . S
C133 N137 1.328 . S
C133 H138 0.930 . S
C134 C135 1.333 1_655 S
C134 N136 1.317 1_655 S
C134 H139 0.930 . S
C135 C134 1.333 1_455 S
C135 N137 1.350 . S
C135 H161 0.931 1_455 S
N136 Co132 2.148 . S
N136 C133 1.301 . S
N136 C134 1.317 1_455 S
N137 C133 1.328 . S
N137 C135 1.350 . S
H138 C133 0.930 . S
H139 C134 0.930 . S
C140 O141 1.224 . S
C140 O159 1.247 . S
O141 C140 1.224 . S
N142 Co132 2.128 . S
N142 C143 1.355 . S
N142 C145 1.311 1_455 S
C143 N142 1.355 . S
C143 C144 1.363 . S
C143 H155 0.929 . S
C144 C143 1.363 . S
C144 N146 1.375 . S
C144 H162 0.931 . S
C145 N142 1.311 1_655 S
C145 N146 1.347 1_655 S
C145 H156 0.929 . S
N146 C144 1.375 . S
N146 C145 1.347 1_455 S
C147 C150 1.365 . S
C147 N152 1.328 . S
C147 H153 0.929 . S
C148 C149 1.362 . S
C148 C151 1.378 . S
C148 H163 0.929 . S
C149 C148 1.362 . S
C149 C150 1.366 . S
C150 C147 1.365 . S
C150 C149 1.366 . S
C150 H164 0.930 . S
C151 C148 1.378 . S
C151 N152 1.315 . S
C151 H154 0.930 . S
N152 Co132 2.194 . S
N152 C147 1.328 . S
N152 C151 1.315 . S
H153 C147 0.929 . S
H154 C151 0.930 . S
H155 C143 0.929 . S
H156 C145 0.929 . S
O157 Co132 2.351 . S
O157 C160 1.244 . S
O158 Co132 2.155 . S
O158 C160 1.240 . S
O159 Co132 2.096 1_655 S
O159 C140 1.247 . S
C160 O157 1.244 . S
C160 O158 1.240 . S
H161 C135 0.931 1_655 S
H162 C144 0.931 . S
H163 C148 0.929 . S
H164 C150 0.930 . S
Co165 N169 2.148 . S
Co165 N175 2.128 . S
Co165 N185 2.194 . S
Co165 O190 2.351 . S
Co165 O191 2.155 . S
Co165 O192 2.096 1_545 S
C166 N169 1.301 . S
C166 N170 1.328 . S
C166 H171 0.930 . S
C167 C168 1.333 1_565 S
C167 N169 1.317 1_565 S
C167 H172 0.930 . S
C168 C167 1.333 1_545 S
C168 N170 1.350 . S
C168 H194 0.931 1_545 S
N169 Co165 2.148 . S
N169 C166 1.301 . S
N169 C167 1.317 1_545 S
N170 C166 1.328 . S
N170 C168 1.350 . S
H171 C166 0.930 . S
H172 C167 0.930 . S
C173 O174 1.224 . S
C173 O192 1.247 . S
O174 C173 1.224 . S
N175 Co165 2.128 . S
N175 C176 1.355 . S
N175 C178 1.311 1_545 S
C176 N175 1.355 . S
C176 C177 1.363 . S
C176 H188 0.929 . S
C177 C176 1.363 . S
C177 N179 1.375 . S
C177 H195 0.931 . S
C178 N175 1.311 1_565 S
C178 N179 1.347 1_565 S
C178 H189 0.929 . S
N179 C177 1.375 . S
N179 C178 1.347 1_545 S
C180 C183 1.365 . S
C180 N185 1.328 . S
C180 H186 0.929 . S
C181 C182 1.362 . S
C181 C184 1.378 . S
C181 H196 0.929 . S
C182 C181 1.362 . S
C182 C183 1.366 . S
C183 C180 1.365 . S
C183 C182 1.366 . S
C183 H197 0.930 . S
C184 C181 1.378 . S
C184 N185 1.315 . S
C184 H187 0.930 . S
N185 Co165 2.194 . S
N185 C180 1.328 . S
N185 C184 1.315 . S
H186 C180 0.929 . S
H187 C184 0.930 . S
H188 C176 0.929 . S
H189 C178 0.929 . S
O190 Co165 2.351 . S
O190 C193 1.244 . S
O191 Co165 2.155 . S
O191 C193 1.240 . S
O192 Co165 2.096 1_565 S
O192 C173 1.247 . S
C193 O190 1.244 . S
C193 O191 1.240 . S
H194 C168 0.931 1_565 S
H195 C177 0.931 . S
H196 C181 0.929 . S
H197 C183 0.930 . S
Co198 N202 2.148 . S
Co198 N208 2.128 . S
Co198 N218 2.194 . S
Co198 O223 2.351 . S
Co198 O224 2.155 . S
Co198 O225 2.096 1_655 S
C199 N202 1.301 . S
C199 N203 1.328 . S
C199 H204 0.930 . S
C200 C201 1.333 1_455 S
C200 N202 1.317 1_455 S
C200 H205 0.930 . S
C201 C200 1.333 1_655 S
C201 N203 1.350 . S
C201 H227 0.931 1_655 S
N202 Co198 2.148 . S
N202 C199 1.301 . S
N202 C200 1.317 1_655 S
N203 C199 1.328 . S
N203 C201 1.350 . S
H204 C199 0.930 . S
H205 C200 0.930 . S
C206 O207 1.224 . S
C206 O225 1.247 . S
O207 C206 1.224 . S
N208 Co198 2.128 . S
N208 C209 1.355 . S
N208 C211 1.311 1_655 S
C209 N208 1.355 . S
C209 C210 1.363 . S
C209 H221 0.929 . S
C210 C209 1.363 . S
C210 N212 1.375 . S
C210 H228 0.931 . S
C211 N208 1.311 1_455 S
C211 N212 1.347 1_455 S
C211 H222 0.929 . S
N212 C210 1.375 . S
N212 C211 1.347 1_655 S
C213 C216 1.365 . S
C213 N218 1.328 . S
C213 H219 0.929 . S
C214 C215 1.362 . S
C214 C217 1.378 . S
C214 H229 0.929 . S
C215 C214 1.362 . S
C215 C216 1.366 . S
C216 C213 1.365 . S
C216 C215 1.366 . S
C216 H230 0.930 . S
C217 C214 1.378 . S
C217 N218 1.315 . S
C217 H220 0.930 . S
N218 Co198 2.194 . S
N218 C213 1.328 . S
N218 C217 1.315 . S
H219 C213 0.929 . S
H220 C217 0.930 . S
H221 C209 0.929 . S
H222 C211 0.929 . S
O223 Co198 2.351 . S
O223 C226 1.244 . S
O224 Co198 2.155 . S
O224 C226 1.240 . S
O225 Co198 2.096 1_455 S
O225 C206 1.247 . S
C226 O223 1.244 . S
C226 O224 1.240 . S
H227 C201 0.931 1_455 S
H228 C210 0.931 . S
H229 C214 0.929 . S
H230 C216 0.930 . S
Co231 N235 2.148 . S
Co231 N241 2.128 . S
Co231 N251 2.194 . S
Co231 O256 2.351 . S
Co231 O257 2.155 . S
Co231 O258 2.096 1_565 S
C232 N235 1.301 . S
C232 N236 1.328 . S
C232 H237 0.930 . S
C233 C234 1.333 1_545 S
C233 N235 1.317 1_545 S
C233 H238 0.930 . S
C234 C233 1.333 1_565 S
C234 N236 1.350 . S
C234 H260 0.931 1_565 S
N235 Co231 2.148 . S
N235 C232 1.301 . S
N235 C233 1.317 1_565 S
N236 C232 1.328 . S
N236 C234 1.350 . S
H237 C232 0.930 . S
H238 C233 0.930 . S
C239 O240 1.224 . S
C239 O258 1.247 . S
O240 C239 1.224 . S
N241 Co231 2.128 . S
N241 C242 1.355 . S
N241 C244 1.311 1_565 S
C242 N241 1.355 . S
C242 C243 1.363 . S
C242 H254 0.929 . S
C243 C242 1.363 . S
C243 N245 1.375 . S
C243 H261 0.931 . S
C244 N241 1.311 1_545 S
C244 N245 1.347 1_545 S
C244 H255 0.929 . S
N245 C243 1.375 . S
N245 C244 1.347 1_565 S
C246 C249 1.365 . S
C246 N251 1.328 . S
C246 H252 0.929 . S
C247 C248 1.362 . S
C247 C250 1.378 . S
C247 H262 0.929 . S
C248 C247 1.362 . S
C248 C249 1.366 . S
C249 C246 1.365 . S
C249 C248 1.366 . S
C249 H263 0.930 . S
C250 C247 1.378 . S
C250 N251 1.315 . S
C250 H253 0.930 . S
N251 Co231 2.194 . S
N251 C246 1.328 . S
N251 C250 1.315 . S
H252 C246 0.929 . S
H253 C250 0.930 . S
H254 C242 0.929 . S
H255 C244 0.929 . S
O256 Co231 2.351 . S
O256 C259 1.244 . S
O257 Co231 2.155 . S
O257 C259 1.240 . S
O258 Co231 2.096 1_545 S
O258 C239 1.247 . S
C259 O256 1.244 . S
C259 O257 1.240 . S
H260 C234 0.931 1_545 S
H261 C243 0.931 . S
H262 C247 0.929 . S
H263 C249 0.930 . S
Co264 N268 2.148 . S
Co264 N274 2.128 . S
Co264 N284 2.194 . S
Co264 O289 2.351 . S
Co264 O290 2.155 . S
Co264 O291 2.096 . S
C265 N268 1.301 . S
C265 N269 1.328 . S
C265 H270 0.930 . S
C266 C267 1.333 . S
C266 N268 1.317 . S
C266 H271 0.930 . S
C267 C266 1.333 . S
C267 N269 1.350 . S
C267 H293 0.931 . S
N268 Co264 2.148 . S
N268 C265 1.301 . S
N268 C266 1.317 . S
N269 C265 1.328 . S
N269 C267 1.350 . S
H270 C265 0.930 . S
H271 C266 0.930 . S
C272 O273 1.224 . S
C272 O291 1.247 . S
O273 C272 1.224 . S
N274 Co264 2.128 . S
N274 C275 1.355 . S
N274 C277 1.311 . S
C275 N274 1.355 . S
C275 C276 1.363 . S
C275 H287 0.929 . S
C276 C275 1.363 . S
C276 N278 1.375 . S
C276 H294 0.931 . S
C277 N274 1.311 . S
C277 N278 1.347 . S
C277 H288 0.929 . S
N278 C276 1.375 . S
N278 C277 1.347 . S
C279 C282 1.365 . S
C279 N284 1.328 . S
C279 H285 0.929 . S
C280 C281 1.362 . S
C280 C283 1.378 . S
C280 H295 0.929 . S
C281 C280 1.362 . S
C281 C282 1.366 . S
C282 C279 1.365 . S
C282 C281 1.366 . S
C282 H296 0.930 . S
C283 C280 1.378 . S
C283 N284 1.315 . S
C283 H286 0.930 . S
N284 Co264 2.194 . S
N284 C279 1.328 . S
N284 C283 1.315 . S
H285 C279 0.929 . S
H286 C283 0.930 . S
H287 C275 0.929 . S
H288 C277 0.929 . S
O289 Co264 2.351 . S
O289 C292 1.244 . S
O290 Co264 2.155 . S
O290 C292 1.240 . S
O291 Co264 2.096 . S
O291 C272 1.247 . S
C292 O289 1.244 . S
C292 O290 1.240 . S
H293 C267 0.931 . S
H294 C276 0.931 . S
H295 C280 0.929 . S
H296 C282 0.930 . S
Co297 N301 2.148 . S
Co297 N307 2.128 . S
Co297 N317 2.194 . S
Co297 O322 2.351 . S
Co297 O323 2.155 . S
Co297 O324 2.096 . S
C298 N301 1.301 . S
C298 N302 1.328 . S
C298 H303 0.930 . S
C299 C300 1.333 . S
C299 N301 1.317 . S
C299 H304 0.930 . S
C300 C299 1.333 . S
C300 N302 1.350 . S
C300 H326 0.931 . S
N301 Co297 2.148 . S
N301 C298 1.301 . S
N301 C299 1.317 . S
N302 C298 1.328 . S
N302 C300 1.350 . S
H303 C298 0.930 . S
H304 C299 0.930 . S
C305 O306 1.224 . S
C305 O324 1.247 . S
O306 C305 1.224 . S
N307 Co297 2.128 . S
N307 C308 1.355 . S
N307 C310 1.311 . S
C308 N307 1.355 . S
C308 C309 1.363 . S
C308 H320 0.929 . S
C309 C308 1.363 . S
C309 N311 1.375 . S
C309 H327 0.931 . S
C310 N307 1.311 . S
C310 N311 1.347 . S
C310 H321 0.929 . S
N311 C309 1.375 . S
N311 C310 1.347 . S
C312 C315 1.365 . S
C312 N317 1.328 . S
C312 H318 0.929 . S
C313 C314 1.362 . S
C313 C316 1.378 . S
C313 H328 0.929 . S
C314 C313 1.362 . S
C314 C315 1.366 . S
C315 C312 1.365 . S
C315 C314 1.366 . S
C315 H329 0.930 . S
C316 C313 1.378 . S
C316 N317 1.315 . S
C316 H319 0.930 . S
N317 Co297 2.194 . S
N317 C312 1.328 . S
N317 C316 1.315 . S
H318 C312 0.929 . S
H319 C316 0.930 . S
H320 C308 0.929 . S
H321 C310 0.929 . S
O322 Co297 2.351 . S
O322 C325 1.244 . S
O323 Co297 2.155 . S
O323 C325 1.240 . S
O324 Co297 2.096 . S
O324 C305 1.247 . S
C325 O322 1.244 . S
C325 O323 1.240 . S
H326 C300 0.931 . S
H327 C309 0.931 . S
H328 C313 0.929 . S
H329 C315 0.930 . S
Co330 N334 2.148 . S
Co330 N340 2.128 . S
Co330 N350 2.194 . S
Co330 O355 2.351 . S
Co330 O356 2.155 . S
Co330 O357 2.096 . S
C331 N334 1.301 . S
C331 N335 1.328 . S
C331 H336 0.930 . S
C332 C333 1.333 . S
C332 N334 1.317 . S
C332 H337 0.930 . S
C333 C332 1.333 . S
C333 N335 1.350 . S
C333 H359 0.931 . S
N334 Co330 2.148 . S
N334 C331 1.301 . S
N334 C332 1.317 . S
N335 C331 1.328 . S
N335 C333 1.350 . S
H336 C331 0.930 . S
H337 C332 0.930 . S
C338 O339 1.224 . S
C338 O357 1.247 . S
O339 C338 1.224 . S
N340 Co330 2.128 . S
N340 C341 1.355 . S
N340 C343 1.311 . S
C341 N340 1.355 . S
C341 C342 1.363 . S
C341 H353 0.929 . S
C342 C341 1.363 . S
C342 N344 1.375 . S
C342 H360 0.931 . S
C343 N340 1.311 . S
C343 N344 1.347 . S
C343 H354 0.929 . S
N344 C342 1.375 . S
N344 C343 1.347 . S
C345 C348 1.365 . S
C345 N350 1.328 . S
C345 H351 0.929 . S
C346 C347 1.362 . S
C346 C349 1.378 . S
C346 H361 0.929 . S
C347 C346 1.362 . S
C347 C348 1.366 . S
C348 C345 1.365 . S
C348 C347 1.366 . S
C348 H362 0.930 . S
C349 C346 1.378 . S
C349 N350 1.315 . S
C349 H352 0.930 . S
N350 Co330 2.194 . S
N350 C345 1.328 . S
N350 C349 1.315 . S
H351 C345 0.929 . S
H352 C349 0.930 . S
H353 C341 0.929 . S
H354 C343 0.929 . S
O355 Co330 2.351 . S
O355 C358 1.244 . S
O356 Co330 2.155 . S
O356 C358 1.240 . S
O357 Co330 2.096 . S
O357 C338 1.247 . S
C358 O355 1.244 . S
C358 O356 1.240 . S
H359 C333 0.931 . S
H360 C342 0.931 . S
H361 C346 0.929 . S
H362 C348 0.930 . S
Co363 N367 2.148 . S
Co363 N373 2.128 . S
Co363 N383 2.194 . S
Co363 O388 2.351 . S
Co363 O389 2.155 . S
Co363 O390 2.096 . S
C364 N367 1.301 . S
C364 N368 1.328 . S
C364 H369 0.930 . S
C365 C366 1.333 . S
C365 N367 1.317 . S
C365 H370 0.930 . S
C366 C365 1.333 . S
C366 N368 1.350 . S
C366 H392 0.931 . S
N367 Co363 2.148 . S
N367 C364 1.301 . S
N367 C365 1.317 . S
N368 C364 1.328 . S
N368 C366 1.350 . S
H369 C364 0.930 . S
H370 C365 0.930 . S
C371 O372 1.224 . S
C371 O390 1.247 . S
O372 C371 1.224 . S
N373 Co363 2.128 . S
N373 C374 1.355 . S
N373 C376 1.311 . S
C374 N373 1.355 . S
C374 C375 1.363 . S
C374 H386 0.929 . S
C375 C374 1.363 . S
C375 N377 1.375 . S
C375 H393 0.931 . S
C376 N373 1.311 . S
C376 N377 1.347 . S
C376 H387 0.929 . S
N377 C375 1.375 . S
N377 C376 1.347 . S
C378 C381 1.365 . S
C378 N383 1.328 . S
C378 H384 0.929 . S
C379 C380 1.362 . S
C379 C382 1.378 . S
C379 H394 0.929 . S
C380 C379 1.362 . S
C380 C381 1.366 . S
C381 C378 1.365 . S
C381 C380 1.366 . S
C381 H395 0.930 . S
C382 C379 1.378 . S
C382 N383 1.315 . S
C382 H385 0.930 . S
N383 Co363 2.194 . S
N383 C378 1.328 . S
N383 C382 1.315 . S
H384 C378 0.929 . S
H385 C382 0.930 . S
H386 C374 0.929 . S
H387 C376 0.929 . S
O388 Co363 2.351 . S
O388 C391 1.244 . S
O389 Co363 2.155 . S
O389 C391 1.240 . S
O390 Co363 2.096 . S
O390 C371 1.247 . S
C391 O388 1.244 . S
C391 O389 1.240 . S
H392 C366 0.931 . S
H393 C375 0.931 . S
H394 C379 0.929 . S
H395 C381 0.930 . S
Co396 N400 2.148 . S
Co396 N406 2.128 . S
Co396 N416 2.194 . S
Co396 O421 2.351 . S
Co396 O422 2.155 . S
Co396 O423 2.096 . S
C397 N400 1.301 . S
C397 N401 1.328 . S
C397 H402 0.930 . S
C398 C399 1.333 . S
C398 N400 1.317 . S
C398 H403 0.930 . S
C399 C398 1.333 . S
C399 N401 1.350 . S
C399 H425 0.931 . S
N400 Co396 2.148 . S
N400 C397 1.301 . S
N400 C398 1.317 . S
N401 C397 1.328 . S
N401 C399 1.350 . S
H402 C397 0.930 . S
H403 C398 0.930 . S
C404 O405 1.224 . S
C404 O423 1.247 . S
O405 C404 1.224 . S
N406 Co396 2.128 . S
N406 C407 1.355 . S
N406 C409 1.311 . S
C407 N406 1.355 . S
C407 C408 1.363 . S
C407 H419 0.929 . S
C408 C407 1.363 . S
C408 N410 1.375 . S
C408 H426 0.931 . S
C409 N406 1.311 . S
C409 N410 1.347 . S
C409 H420 0.929 . S
N410 C408 1.375 . S
N410 C409 1.347 . S
C411 C414 1.365 . S
C411 N416 1.328 . S
C411 H417 0.929 . S
C412 C413 1.362 . S
C412 C415 1.378 . S
C412 H427 0.929 . S
C413 C412 1.362 . S
C413 C414 1.366 . S
C414 C411 1.365 . S
C414 C413 1.366 . S
C414 H428 0.930 . S
C415 C412 1.378 . S
C415 N416 1.315 . S
C415 H418 0.930 . S
N416 Co396 2.194 . S
N416 C411 1.328 . S
N416 C415 1.315 . S
H417 C411 0.929 . S
H418 C415 0.930 . S
H419 C407 0.929 . S
H420 C409 0.929 . S
O421 Co396 2.351 . S
O421 C424 1.244 . S
O422 Co396 2.155 . S
O422 C424 1.240 . S
O423 Co396 2.096 . S
O423 C404 1.247 . S
C424 O421 1.244 . S
C424 O422 1.240 . S
H425 C399 0.931 . S
H426 C408 0.931 . S
H427 C412 0.929 . S
H428 C414 0.930 . S
Co429 N433 2.148 . S
Co429 N439 2.128 . S
Co429 N449 2.194 . S
Co429 O454 2.351 . S
Co429 O455 2.155 . S
Co429 O456 2.096 . S
C430 N433 1.301 . S
C430 N434 1.328 . S
C430 H435 0.930 . S
C431 C432 1.333 . S
C431 N433 1.317 . S
C431 H436 0.930 . S
C432 C431 1.333 . S
C432 N434 1.350 . S
C432 H458 0.931 . S
N433 Co429 2.148 . S
N433 C430 1.301 . S
N433 C431 1.317 . S
N434 C430 1.328 . S
N434 C432 1.350 . S
H435 C430 0.930 . S
H436 C431 0.930 . S
C437 O438 1.224 . S
C437 O456 1.247 . S
O438 C437 1.224 . S
N439 Co429 2.128 . S
N439 C440 1.355 . S
N439 C442 1.311 . S
C440 N439 1.355 . S
C440 C441 1.363 . S
C440 H452 0.929 . S
C441 C440 1.363 . S
C441 N443 1.375 . S
C441 H459 0.931 . S
C442 N439 1.311 . S
C442 N443 1.347 . S
C442 H453 0.929 . S
N443 C441 1.375 . S
N443 C442 1.347 . S
C444 C447 1.365 . S
C444 N449 1.328 . S
C444 H450 0.929 . S
C445 C446 1.362 . S
C445 C448 1.378 . S
C445 H460 0.929 . S
C446 C445 1.362 . S
C446 C447 1.366 . S
C447 C444 1.365 . S
C447 C446 1.366 . S
C447 H461 0.930 . S
C448 C445 1.378 . S
C448 N449 1.315 . S
C448 H451 0.930 . S
N449 Co429 2.194 . S
N449 C444 1.328 . S
N449 C448 1.315 . S
H450 C444 0.929 . S
H451 C448 0.930 . S
H452 C440 0.929 . S
H453 C442 0.929 . S
O454 Co429 2.351 . S
O454 C457 1.244 . S
O455 Co429 2.155 . S
O455 C457 1.240 . S
O456 Co429 2.096 . S
O456 C437 1.247 . S
C457 O454 1.244 . S
C457 O455 1.240 . S
H458 C432 0.931 . S
H459 C441 0.931 . S
H460 C445 0.929 . S
H461 C447 0.930 . S
Co462 N466 2.148 . S
Co462 N472 2.128 . S
Co462 N482 2.194 . S
Co462 O487 2.351 . S
Co462 O488 2.155 . S
Co462 O489 2.096 . S
C463 N466 1.301 . S
C463 N467 1.328 . S
C463 H468 0.930 . S
C464 C465 1.333 . S
C464 N466 1.317 . S
C464 H469 0.930 . S
C465 C464 1.333 . S
C465 N467 1.350 . S
C465 H491 0.931 . S
N466 Co462 2.148 . S
N466 C463 1.301 . S
N466 C464 1.317 . S
N467 C463 1.328 . S
N467 C465 1.350 . S
H468 C463 0.930 . S
H469 C464 0.930 . S
C470 O471 1.224 . S
C470 O489 1.247 . S
O471 C470 1.224 . S
N472 Co462 2.128 . S
N472 C473 1.355 . S
N472 C475 1.311 . S
C473 N472 1.355 . S
C473 C474 1.363 . S
C473 H485 0.929 . S
C474 C473 1.363 . S
C474 N476 1.375 . S
C474 H492 0.931 . S
C475 N472 1.311 . S
C475 N476 1.347 . S
C475 H486 0.929 . S
N476 C474 1.375 . S
N476 C475 1.347 . S
C477 C480 1.365 . S
C477 N482 1.328 . S
C477 H483 0.929 . S
C478 C479 1.362 . S
C478 C481 1.378 . S
C478 H493 0.929 . S
C479 C478 1.362 . S
C479 C480 1.366 . S
C480 C477 1.365 . S
C480 C479 1.366 . S
C480 H494 0.930 . S
C481 C478 1.378 . S
C481 N482 1.315 . S
C481 H484 0.930 . S
N482 Co462 2.194 . S
N482 C477 1.328 . S
N482 C481 1.315 . S
H483 C477 0.929 . S
H484 C481 0.930 . S
H485 C473 0.929 . S
H486 C475 0.929 . S
O487 Co462 2.351 . S
O487 C490 1.244 . S
O488 Co462 2.155 . S
O488 C490 1.240 . S
O489 Co462 2.096 . S
O489 C470 1.247 . S
C490 O487 1.244 . S
C490 O488 1.240 . S
H491 C465 0.931 . S
H492 C474 0.931 . S
H493 C478 0.929 . S
H494 C480 0.930 . S
Co495 N499 2.148 . S
Co495 N505 2.128 . S
Co495 N515 2.194 . S
Co495 O520 2.351 . S
Co495 O521 2.155 . S
Co495 O522 2.096 . S
C496 N499 1.301 . S
C496 N500 1.328 . S
C496 H501 0.930 . S
C497 C498 1.333 . S
C497 N499 1.317 . S
C497 H502 0.930 . S
C498 C497 1.333 . S
C498 N500 1.350 . S
C498 H524 0.931 . S
N499 Co495 2.148 . S
N499 C496 1.301 . S
N499 C497 1.317 . S
N500 C496 1.328 . S
N500 C498 1.350 . S
H501 C496 0.930 . S
H502 C497 0.930 . S
C503 O504 1.224 . S
C503 O522 1.247 . S
O504 C503 1.224 . S
N505 Co495 2.128 . S
N505 C506 1.355 . S
N505 C508 1.311 . S
C506 N505 1.355 . S
C506 C507 1.363 . S
C506 H518 0.929 . S
C507 C506 1.363 . S
C507 N509 1.375 . S
C507 H525 0.931 . S
C508 N505 1.311 . S
C508 N509 1.347 . S
C508 H519 0.929 . S
N509 C507 1.375 . S
N509 C508 1.347 . S
C510 C513 1.365 . S
C510 N515 1.328 . S
C510 H516 0.929 . S
C511 C512 1.362 . S
C511 C514 1.378 . S
C511 H526 0.929 . S
C512 C511 1.362 . S
C512 C513 1.366 . S
C513 C510 1.365 . S
C513 C512 1.366 . S
C513 H527 0.930 . S
C514 C511 1.378 . S
C514 N515 1.315 . S
C514 H517 0.930 . S
N515 Co495 2.194 . S
N515 C510 1.328 . S
N515 C514 1.315 . S
H516 C510 0.929 . S
H517 C514 0.930 . S
H518 C506 0.929 . S
H519 C508 0.929 . S
O520 Co495 2.351 . S
O520 C523 1.244 . S
O521 Co495 2.155 . S
O521 C523 1.240 . S
O522 Co495 2.096 . S
O522 C503 1.247 . S
C523 O520 1.244 . S
C523 O521 1.240 . S
H524 C498 0.931 . S
H525 C507 0.931 . S
H526 C511 0.929 . S
H527 C513 0.930 . S
C528 C529 1.387 . S
C528 H532 0.950 . S
C528 C537 1.390 1_655 S
C529 C528 1.387 . S
C529 C531 1.387 . S
H530 C537 0.950 . S
C531 C529 1.387 . S
C531 C533 1.390 1_655 S
C531 H535 0.950 . S
H532 C528 0.950 . S
C533 C531 1.390 1_455 S
C533 C534 1.387 . S
C533 H536 0.950 . S
C534 C533 1.387 . S
C534 C537 1.387 . S
H535 C531 0.950 . S
H536 C533 0.950 . S
C537 C528 1.390 1_455 S
C537 H530 0.950 . S
C537 C534 1.387 . S
C538 C539 1.387 . S
C538 H542 0.950 . S
C538 C547 1.390 1_545 S
C539 C538 1.387 . S
C539 C541 1.387 . S
H540 C547 0.950 . S
C541 C539 1.387 . S
C541 C543 1.390 1_545 S
C541 H545 0.950 . S
H542 C538 0.950 . S
C543 C541 1.390 1_565 S
C543 C544 1.387 . S
C543 H546 0.950 . S
C544 C543 1.387 . S
C544 C547 1.387 . S
H545 C541 0.950 . S
H546 C543 0.950 . S
C547 C538 1.390 1_565 S
C547 H540 0.950 . S
C547 C544 1.387 . S
C548 C549 1.387 . S
C548 H552 0.950 . S
C548 C557 1.390 1_655 S
C549 C548 1.387 . S
C549 C551 1.387 . S
H550 C557 0.950 . S
C551 C549 1.387 . S
C551 C553 1.390 1_655 S
C551 H555 0.950 . S
H552 C548 0.950 . S
C553 C551 1.390 1_455 S
C553 C554 1.387 . S
C553 H556 0.950 . S
C554 C553 1.387 . S
C554 C557 1.387 . S
H555 C551 0.950 . S
H556 C553 0.950 . S
C557 C548 1.390 1_455 S
C557 H550 0.950 . S
C557 C554 1.387 . S
C558 C559 1.387 . S
C558 H562 0.950 . S
C558 C567 1.390 1_565 S
C559 C558 1.387 . S
C559 C561 1.387 . S
H560 C567 0.950 . S
C561 C559 1.387 . S
C561 C563 1.390 1_565 S
C561 H565 0.950 . S
H562 C558 0.950 . S
C563 C561 1.390 1_545 S
C563 C564 1.387 . S
C563 H566 0.950 . S
C564 C563 1.387 . S
C564 C567 1.387 . S
H565 C561 0.950 . S
H566 C563 0.950 . S
C567 C558 1.390 1_545 S
C567 H560 0.950 . S
C567 C564 1.387 . S
C568 C569 1.387 . S
C568 H572 0.950 . S
C568 C577 1.390 1_565 S
C569 C568 1.387 . S
C569 C571 1.387 . S
H570 C577 0.950 . S
C571 C569 1.387 . S
C571 C573 1.390 1_565 S
C571 H575 0.950 . S
H572 C568 0.950 . S
C573 C571 1.390 1_545 S
C573 C574 1.387 . S
C573 H576 0.950 . S
C574 C573 1.387 . S
C574 C577 1.387 . S
H575 C571 0.950 . S
H576 C573 0.950 . S
C577 C568 1.390 1_545 S
C577 H570 0.950 . S
C577 C574 1.387 . S
C578 C579 1.387 . S
C578 H582 0.950 . S
C578 C587 1.390 1_655 S
C579 C578 1.387 . S
C579 C581 1.387 . S
H580 C587 0.950 . S
C581 C579 1.387 . S
C581 C583 1.390 1_655 S
C581 H585 0.950 . S
H582 C578 0.950 . S
C583 C581 1.390 1_455 S
C583 C584 1.387 . S
C583 H586 0.950 . S
C584 C583 1.387 . S
C584 C587 1.387 . S
H585 C581 0.950 . S
H586 C583 0.950 . S
C587 C578 1.390 1_455 S
C587 H580 0.950 . S
C587 C584 1.387 . S
C588 C589 1.387 . S
C588 H592 0.950 . S
C588 C597 1.390 1_565 S
C589 C588 1.387 . S
C589 C591 1.387 . S
H590 C597 0.950 . S
C591 C589 1.387 . S
C591 C593 1.390 1_565 S
C591 H595 0.950 . S
H592 C588 0.950 . S
C593 C591 1.390 1_545 S
C593 C594 1.387 . S
C593 H596 0.950 . S
C594 C593 1.387 . S
C594 C597 1.387 . S
H595 C591 0.950 . S
H596 C593 0.950 . S
C597 C588 1.390 1_545 S
C597 H590 0.950 . S
C597 C594 1.387 . S
C598 C599 1.387 . S
C598 H602 0.950 . S
C598 C607 1.390 1_655 S
C599 C598 1.387 . S
C599 C601 1.387 . S
H600 C607 0.950 . S
C601 C599 1.387 . S
C601 C603 1.390 1_655 S
C601 H605 0.950 . S
H602 C598 0.950 . S
C603 C601 1.390 1_455 S
C603 C604 1.387 . S
C603 H606 0.950 . S
C604 C603 1.387 . S
C604 C607 1.387 . S
H605 C601 0.950 . S
H606 C603 0.950 . S
C607 C598 1.390 1_455 S
C607 H600 0.950 . S
C607 C604 1.387 . S
C608 C609 1.387 . S
C608 H612 0.950 . S
C608 C617 1.390 . S
C609 C608 1.387 . S
C609 C611 1.387 . S
H610 C617 0.950 . S
C611 C609 1.387 . S
C611 C613 1.390 . S
C611 H615 0.950 . S
H612 C608 0.950 . S
C613 C611 1.390 . S
C613 C614 1.387 . S
C613 H616 0.950 . S
C614 C613 1.387 . S
C614 C617 1.387 . S
H615 C611 0.950 . S
H616 C613 0.950 . S
C617 C608 1.390 . S
C617 H610 0.950 . S
C617 C614 1.387 . S
C618 C619 1.387 . S
C618 H622 0.950 . S
C618 C627 1.390 . S
C619 C618 1.387 . S
C619 C621 1.387 . S
H620 C627 0.950 . S
C621 C619 1.387 . S
C621 C623 1.390 . S
C621 H625 0.950 . S
H622 C618 0.950 . S
C623 C621 1.390 . S
C623 C624 1.387 . S
C623 H626 0.950 . S
C624 C623 1.387 . S
C624 C627 1.387 . S
H625 C621 0.950 . S
H626 C623 0.950 . S
C627 C618 1.390 . S
C627 H620 0.950 . S
C627 C624 1.387 . S
C628 C629 1.387 . S
C628 H632 0.950 . S
C628 C637 1.390 . S
C629 C628 1.387 . S
C629 C631 1.387 . S
H630 C637 0.950 . S
C631 C629 1.387 . S
C631 C633 1.390 . S
C631 H635 0.950 . S
H632 C628 0.950 . S
C633 C631 1.390 . S
C633 C634 1.387 . S
C633 H636 0.950 . S
C634 C633 1.387 . S
C634 C637 1.387 . S
H635 C631 0.950 . S
H636 C633 0.950 . S
C637 C628 1.390 . S
C637 H630 0.950 . S
C637 C634 1.387 . S
C638 C639 1.387 . S
C638 H642 0.950 . S
C638 C647 1.390 . S
C639 C638 1.387 . S
C639 C641 1.387 . S
H640 C647 0.950 . S
C641 C639 1.387 . S
C641 C643 1.390 . S
C641 H645 0.950 . S
H642 C638 0.950 . S
C643 C641 1.390 . S
C643 C644 1.387 . S
C643 H646 0.950 . S
C644 C643 1.387 . S
C644 C647 1.387 . S
H645 C641 0.950 . S
H646 C643 0.950 . S
C647 C638 1.390 . S
C647 H640 0.950 . S
C647 C644 1.387 . S
C648 C649 1.387 . S
C648 H652 0.950 . S
C648 C657 1.390 . S
C649 C648 1.387 . S
C649 C651 1.387 . S
H650 C657 0.950 . S
C651 C649 1.387 . S
C651 C653 1.390 . S
C651 H655 0.950 . S
H652 C648 0.950 . S
C653 C651 1.390 . S
C653 C654 1.387 . S
C653 H656 0.950 . S
C654 C653 1.387 . S
C654 C657 1.387 . S
H655 C651 0.950 . S
H656 C653 0.950 . S
C657 C648 1.390 . S
C657 H650 0.950 . S
C657 C654 1.387 . S
C658 C659 1.387 . S
C658 H662 0.950 . S
C658 C667 1.390 . S
C659 C658 1.387 . S
C659 C661 1.387 . S
H660 C667 0.950 . S
C661 C659 1.387 . S
C661 C663 1.390 . S
C661 H665 0.950 . S
H662 C658 0.950 . S
C663 C661 1.390 . S
C663 C664 1.387 . S
C663 H666 0.950 . S
C664 C663 1.387 . S
C664 C667 1.387 . S
H665 C661 0.950 . S
H666 C663 0.950 . S
C667 C658 1.390 . S
C667 H660 0.950 . S
C667 C664 1.387 . S
C668 C669 1.387 . S
C668 H672 0.950 . S
C668 C677 1.390 . S
C669 C668 1.387 . S
C669 C671 1.387 . S
H670 C677 0.950 . S
C671 C669 1.387 . S
C671 C673 1.390 . S
C671 H675 0.950 . S
H672 C668 0.950 . S
C673 C671 1.390 . S
C673 C674 1.387 . S
C673 H676 0.950 . S
C674 C673 1.387 . S
C674 C677 1.387 . S
H675 C671 0.950 . S
H676 C673 0.950 . S
C677 C668 1.390 . S
C677 H670 0.950 . S
C677 C674 1.387 . S
C678 C679 1.387 . S
C678 H682 0.950 . S
C678 C687 1.390 . S
C679 C678 1.387 . S
C679 C681 1.387 . S
H680 C687 0.950 . S
C681 C679 1.387 . S
C681 C683 1.390 . S
C681 H685 0.950 . S
H682 C678 0.950 . S
C683 C681 1.390 . S
C683 C684 1.387 . S
C683 H686 0.950 . S
C684 C683 1.387 . S
C684 C687 1.387 . S
H685 C681 0.950 . S
H686 C683 0.950 . S
C687 C678 1.390 . S
C687 H680 0.950 . S
C687 C684 1.387 . S
C688 C689 1.387 . S
C688 H692 0.950 . S
C688 C697 1.390 . S
C689 C688 1.387 . S
C689 C691 1.387 . S
H690 C697 0.950 . S
C691 C689 1.387 . S
C691 C693 1.390 . S
C691 H695 0.950 . S
H692 C688 0.950 . S
C693 C691 1.390 . S
C693 C694 1.387 . S
C693 H696 0.950 . S
C694 C693 1.387 . S
C694 C697 1.387 . S
H695 C691 0.950 . S
H696 C693 0.950 . S
C697 C688 1.390 . S
C697 H690 0.950 . S
C697 C694 1.387 . S
C698 C699 1.387 . S
C698 H702 0.950 . S
C698 C707 1.390 . S
C699 C698 1.387 . S
C699 C701 1.387 . S
H700 C707 0.950 . S
C701 C699 1.387 . S
C701 C703 1.390 . S
C701 H705 0.950 . S
H702 C698 0.950 . S
C703 C701 1.390 . S
C703 C704 1.387 . S
C703 H706 0.950 . S
C704 C703 1.387 . S
C704 C707 1.387 . S
H705 C701 0.950 . S
H706 C703 0.950 . S
C707 C698 1.390 . S
C707 H700 0.950 . S
C707 C704 1.387 . S
C708 C709 1.387 . S
C708 H712 0.950 . S
C708 C717 1.390 . S
C709 C708 1.387 . S
C709 C711 1.387 . S
H710 C717 0.950 . S
C711 C709 1.387 . S
C711 C713 1.390 . S
C711 H715 0.950 . S
H712 C708 0.950 . S
C713 C711 1.390 . S
C713 C714 1.387 . S
C713 H716 0.950 . S
C714 C713 1.387 . S
C714 C717 1.387 . S
H715 C711 0.950 . S
H716 C713 0.950 . S
C717 C708 1.390 . S
C717 H710 0.950 . S
C717 C714 1.387 . S
C718 C719 1.387 . S
C718 H722 0.950 . S
C718 C727 1.390 . S
C719 C718 1.387 . S
C719 C721 1.387 . S
H720 C727 0.950 . S
C721 C719 1.387 . S
C721 C723 1.390 . S
C721 H725 0.950 . S
H722 C718 0.950 . S
C723 C721 1.390 . S
C723 C724 1.387 . S
C723 H726 0.950 . S
C724 C723 1.387 . S
C724 C727 1.387 . S
H725 C721 0.950 . S
H726 C723 0.950 . S
C727 C718 1.390 . S
C727 H720 0.950 . S
C727 C724 1.387 . S
C728 C729 1.387 . S
C728 H732 0.950 . S
C728 C737 1.390 . S
C729 C728 1.387 . S
C729 C731 1.387 . S
H730 C737 0.950 . S
C731 C729 1.387 . S
C731 C733 1.390 . S
C731 H735 0.950 . S
H732 C728 0.950 . S
C733 C731 1.390 . S
C733 C734 1.387 . S
C733 H736 0.950 . S
C734 C733 1.387 . S
C734 C737 1.387 . S
H735 C731 0.950 . S
H736 C733 0.950 . S
C737 C728 1.390 . S
C737 H730 0.950 . S
C737 C734 1.387 . S
C738 C739 1.387 . S
C738 H742 0.950 . S
C738 C747 1.390 . S
C739 C738 1.387 . S
C739 C741 1.387 . S
H740 C747 0.950 . S
C741 C739 1.387 . S
C741 C743 1.390 . S
C741 H745 0.950 . S
H742 C738 0.950 . S
C743 C741 1.390 . S
C743 C744 1.387 . S
C743 H746 0.950 . S
C744 C743 1.387 . S
C744 C747 1.387 . S
H745 C741 0.950 . S
H746 C743 0.950 . S
C747 C738 1.390 . S
C747 H740 0.950 . S
C747 C744 1.387 . S
C748 C749 1.387 . S
C748 H752 0.950 . S
C748 C757 1.390 . S
C749 C748 1.387 . S
C749 C751 1.387 . S
H750 C757 0.950 . S
C751 C749 1.387 . S
C751 C753 1.390 . S
C751 H755 0.950 . S
H752 C748 0.950 . S
C753 C751 1.390 . S
C753 C754 1.387 . S
C753 H756 0.950 . S
C754 C753 1.387 . S
C754 C757 1.387 . S
H755 C751 0.950 . S
H756 C753 0.950 . S
C757 C748 1.390 . S
C757 H750 0.950 . S
C757 C754 1.387 . S
C758 C759 1.387 . S
C758 H762 0.950 . S
C758 C767 1.390 . S
C759 C758 1.387 . S
C759 C761 1.387 . S
H760 C767 0.950 . S
C761 C759 1.387 . S
C761 C763 1.390 . S
C761 H765 0.950 . S
H762 C758 0.950 . S
C763 C761 1.390 . S
C763 C764 1.387 . S
C763 H766 0.950 . S
C764 C763 1.387 . S
C764 C767 1.387 . S
H765 C761 0.950 . S
H766 C763 0.950 . S
C767 C758 1.390 . S
C767 H760 0.950 . S
C767 C764 1.387 . S
C768 C769 1.387 . S
C768 H772 0.950 . S
C768 C777 1.390 . S
C769 C768 1.387 . S
C769 C771 1.387 . S
H770 C777 0.950 . S
C771 C769 1.387 . S
C771 C773 1.390 . S
C771 H775 0.950 . S
H772 C768 0.950 . S
C773 C771 1.390 . S
C773 C774 1.387 . S
C773 H776 0.950 . S
C774 C773 1.387 . S
C774 C777 1.387 . S
H775 C771 0.950 . S
H776 C773 0.950 . S
C777 C768 1.390 . S
C777 H770 0.950 . S
C777 C774 1.387 . S
C778 C779 1.387 . S
C778 H782 0.950 . S
C778 C787 1.390 . S
C779 C778 1.387 . S
C779 C781 1.387 . S
H780 C787 0.950 . S
C781 C779 1.387 . S
C781 C783 1.390 . S
C781 H785 0.950 . S
H782 C778 0.950 . S
C783 C781 1.390 . S
C783 C784 1.387 . S
C783 H786 0.950 . S
C784 C783 1.387 . S
C784 C787 1.387 . S
H785 C781 0.950 . S
H786 C783 0.950 . S
C787 C778 1.390 . S
C787 H780 0.950 . S
C787 C784 1.387 . S
C788 C789 1.387 . S
C788 H792 0.950 . S
C788 C797 1.390 . S
C789 C788 1.387 . S
C789 C791 1.387 . S
H790 C797 0.950 . S
C791 C789 1.387 . S
C791 C793 1.390 . S
C791 H795 0.950 . S
H792 C788 0.950 . S
C793 C791 1.390 . S
C793 C794 1.387 . S
C793 H796 0.950 . S
C794 C793 1.387 . S
C794 C797 1.387 . S
H795 C791 0.950 . S
H796 C793 0.950 . S
C797 C788 1.390 . S
C797 H790 0.950 . S
C797 C794 1.387 . S
C798 C799 1.387 . S
C798 H802 0.950 . S
C798 C807 1.390 . S
C799 C798 1.387 . S
C799 C801 1.387 . S
H800 C807 0.950 . S
C801 C799 1.387 . S
C801 C803 1.390 . S
C801 H805 0.950 . S
H802 C798 0.950 . S
C803 C801 1.390 . S
C803 C804 1.387 . S
C803 H806 0.950 . S
C804 C803 1.387 . S
C804 C807 1.387 . S
H805 C801 0.950 . S
H806 C803 0.950 . S
C807 C798 1.390 . S
C807 H800 0.950 . S
C807 C804 1.387 . S
C808 C809 1.387 . S
C808 H812 0.950 . S
C808 C817 1.390 . S
C809 C808 1.387 . S
C809 C811 1.387 . S
H810 C817 0.950 . S
C811 C809 1.387 . S
C811 C813 1.390 . S
C811 H815 0.950 . S
H812 C808 0.950 . S
C813 C811 1.390 . S
C813 C814 1.387 . S
C813 H816 0.950 . S
C814 C813 1.387 . S
C814 C817 1.387 . S
H815 C811 0.950 . S
H816 C813 0.950 . S
C817 C808 1.390 . S
C817 H810 0.950 . S
C817 C814 1.387 . S
C818 C819 1.387 . S
C818 H822 0.950 . S
C818 C827 1.390 . S
C819 C818 1.387 . S
C819 C821 1.387 . S
H820 C827 0.950 . S
C821 C819 1.387 . S
C821 C823 1.390 . S
C821 H825 0.950 . S
H822 C818 0.950 . S
C823 C821 1.390 . S
C823 C824 1.387 . S
C823 H826 0.950 . S
C824 C823 1.387 . S
C824 C827 1.387 . S
H825 C821 0.950 . S
H826 C823 0.950 . S
C827 C818 1.390 . S
C827 H820 0.950 . S
C827 C824 1.387 . S
C828 C829 1.387 . S
C828 H832 0.950 . S
C828 C837 1.390 . S
C829 C828 1.387 . S
C829 C831 1.387 . S
H830 C837 0.950 . S
C831 C829 1.387 . S
C831 C833 1.390 . S
C831 H835 0.950 . S
H832 C828 0.950 . S
C833 C831 1.390 . S
C833 C834 1.387 . S
C833 H836 0.950 . S
C834 C833 1.387 . S
C834 C837 1.387 . S
H835 C831 0.950 . S
H836 C833 0.950 . S
C837 C828 1.390 . S
C837 H830 0.950 . S
C837 C834 1.387 . S
C838 C839 1.387 . S
C838 H842 0.950 . S
C838 C847 1.390 . S
C839 C838 1.387 . S
C839 C841 1.387 . S
H840 C847 0.950 . S
C841 C839 1.387 . S
C841 C843 1.390 . S
C841 H845 0.950 . S
H842 C838 0.950 . S
C843 C841 1.390 . S
C843 C844 1.387 . S
C843 H846 0.950 . S
C844 C843 1.387 . S
C844 C847 1.387 . S
H845 C841 0.950 . S
H846 C843 0.950 . S
C847 C838 1.390 . S
C847 H840 0.950 . S
C847 C844 1.387 . S
C848 C849 1.387 . S
C848 H852 0.950 . S
C848 C857 1.390 1_655 S
C849 C848 1.387 . S
C849 C851 1.387 . S
H850 C857 0.950 . S
C851 C849 1.387 . S
C851 C853 1.390 1_655 S
C851 H855 0.950 . S
H852 C848 0.950 . S
C853 C851 1.390 1_455 S
C853 C854 1.387 . S
C853 H856 0.950 . S
C854 C853 1.387 . S
C854 C857 1.387 . S
H855 C851 0.950 . S
H856 C853 0.950 . S
C857 C848 1.390 1_455 S
C857 H850 0.950 . S
C857 C854 1.387 . S
C858 C859 1.387 . S
C858 H862 0.950 . S
C858 C867 1.390 1_545 S
C859 C858 1.387 . S
C859 C861 1.387 . S
H860 C867 0.950 . S
C861 C859 1.387 . S
C861 C863 1.390 1_545 S
C861 H865 0.950 . S
H862 C858 0.950 . S
C863 C861 1.390 1_565 S
C863 C864 1.387 . S
C863 H866 0.950 . S
C864 C863 1.387 . S
C864 C867 1.387 . S
H865 C861 0.950 . S
H866 C863 0.950 . S
C867 C858 1.390 1_565 S
C867 H860 0.950 . S
C867 C864 1.387 . S
C868 C869 1.387 . S
C868 H872 0.950 . S
C868 C877 1.390 1_655 S
C869 C868 1.387 . S
C869 C871 1.387 . S
H870 C877 0.950 . S
C871 C869 1.387 . S
C871 C873 1.390 1_655 S
C871 H875 0.950 . S
H872 C868 0.950 . S
C873 C871 1.390 1_455 S
C873 C874 1.387 . S
C873 H876 0.950 . S
C874 C873 1.387 . S
C874 C877 1.387 . S
H875 C871 0.950 . S
H876 C873 0.950 . S
C877 C868 1.390 1_455 S
C877 H870 0.950 . S
C877 C874 1.387 . S
C878 C879 1.387 . S
C878 H882 0.950 . S
C878 C887 1.390 1_565 S
C879 C878 1.387 . S
C879 C881 1.387 . S
H880 C887 0.950 . S
C881 C879 1.387 . S
C881 C883 1.390 1_565 S
C881 H885 0.950 . S
H882 C878 0.950 . S
C883 C881 1.390 1_545 S
C883 C884 1.387 . S
C883 H886 0.950 . S
C884 C883 1.387 . S
C884 C887 1.387 . S
H885 C881 0.950 . S
H886 C883 0.950 . S
C887 C878 1.390 1_545 S
C887 H880 0.950 . S
C887 C884 1.387 . S
C888 C889 1.387 . S
C888 H892 0.950 . S
C888 C897 1.390 1_556 S
C889 C888 1.387 . S
C889 C891 1.387 . S
H890 C897 0.950 . S
C891 C889 1.387 . S
C891 C893 1.390 1_556 S
C891 H895 0.950 . S
H892 C888 0.950 . S
C893 C891 1.390 1_554 S
C893 C894 1.387 . S
C893 H896 0.950 . S
C894 C893 1.387 . S
C894 C897 1.387 . S
H895 C891 0.950 . S
H896 C893 0.950 . S
C897 C888 1.390 1_554 S
C897 H890 0.950 . S
C897 C894 1.387 . S
C898 C899 1.387 . S
C898 H902 0.950 . S
C898 C907 1.390 1_554 S
C899 C898 1.387 . S
C899 C901 1.387 . S
H900 C907 0.950 . S
C901 C899 1.387 . S
C901 C903 1.390 1_554 S
C901 H905 0.950 . S
H902 C898 0.950 . S
C903 C901 1.390 1_556 S
C903 C904 1.387 . S
C903 H906 0.950 . S
C904 C903 1.387 . S
C904 C907 1.387 . S
H905 C901 0.950 . S
H906 C903 0.950 . S
C907 C898 1.390 1_556 S
C907 H900 0.950 . S
C907 C904 1.387 . S
C908 C909 1.387 . S
C908 H912 0.950 . S
C908 C917 1.390 1_554 S
C909 C908 1.387 . S
C909 C911 1.387 . S
H910 C917 0.950 . S
C911 C909 1.387 . S
C911 C913 1.390 1_554 S
C911 H915 0.950 . S
H912 C908 0.950 . S
C913 C911 1.390 1_556 S
C913 C914 1.387 . S
C913 H916 0.950 . S
C914 C913 1.387 . S
C914 C917 1.387 . S
H915 C911 0.950 . S
H916 C913 0.950 . S
C917 C908 1.390 1_556 S
C917 H910 0.950 . S
C917 C914 1.387 . S
C918 C919 1.387 . S
C918 H922 0.950 . S
C918 C927 1.390 1_556 S
C919 C918 1.387 . S
C919 C921 1.387 . S
H920 C927 0.950 . S
C921 C919 1.387 . S
C921 C923 1.390 1_556 S
C921 H925 0.950 . S
H922 C918 0.950 . S
C923 C921 1.390 1_554 S
C923 C924 1.387 . S
C923 H926 0.950 . S
C924 C923 1.387 . S
C924 C927 1.387 . S
H925 C921 0.950 . S
H926 C923 0.950 . S
C927 C918 1.390 1_554 S
C927 H920 0.950 . S
C927 C924 1.387 . S
C529 C94 1.106 . S
C534 C28 1.106 . S
C539 C61 1.112 . S
C544 C127 1.112 . S
C549 C226 1.112 . S
C554 C160 1.112 . S
C559 C259 1.112 . S
C564 C193 1.112 . S
C569 C292 1.112 . S
C574 C358 1.112 . S
C579 C391 1.112 . S
C584 C325 1.112 . S
C589 C490 1.112 . S
C594 C424 1.112 . S
C599 C457 1.106 . S
C604 C523 1.106 . S
C609 N5 1.764 . S
C614 N500 1.764 . S
C619 N401 1.764 . S
C624 N38 1.764 . S
C629 N434 1.764 . S
C634 N71 1.764 . S
C639 N467 1.764 . S
C644 N104 1.764 . S
C649 N302 1.764 . S
C654 N137 1.764 . S
C659 N335 1.764 . S
C664 N170 1.764 . S
C669 N368 1.764 . S
C674 N203 1.764 . S
C679 N269 1.764 . S
C684 N236 1.764 . S
C689 C17 1.523 . S
C694 C107 1.591 . S
C699 C8 1.591 . S
C704 C50 1.520 . S
C709 C83 1.523 . S
C714 C41 1.591 . S
C719 C74 1.591 . S
C724 C116 1.520 . S
C729 C173 1.591 . S
C734 C149 1.520 . S
C739 C182 1.520 . S
C744 C206 1.591 . S
C749 C239 1.591 . S
C754 C215 1.520 . S
C759 C140 1.591 . S
C764 C248 1.523 . S
C769 C281 1.523 . S
C774 C371 1.591 . S
C779 C272 1.591 . S
C784 C314 1.520 . S
C789 C347 1.523 . S
C794 C305 1.591 . S
C799 C380 1.520 . S
C804 C338 1.591 . S
C809 C413 1.523 . S
C814 C437 1.591 . S
C819 C470 1.591 . S
C824 C446 1.523 . S
C829 C503 1.591 . S
C834 C479 1.520 . S
C839 C512 1.520 . S
C844 C404 1.591 . S
C849 N14 1.536 1_655 S
C854 N212 1.536 1_455 S
C859 N245 1.540 1_545 S
C864 N47 1.540 1_565 S
C869 N146 1.540 1_655 S
C874 N80 1.540 1_455 S
C879 N179 1.540 1_565 S
C884 N113 1.540 1_545 S
C889 N278 1.540 . S
C894 N476 1.540 . S
C899 N509 1.540 . S
C904 N311 1.540 . S
C909 N410 1.540 . S
C914 N344 1.540 . S
C919 N377 1.536 . S
C924 N443 1.536 . S
