# Generated by pormake.
# Topology whe, (6)-cn, num edge types: 1
# Building blocks:
#     Node 0, Type 0, BuildingBlock: IZENUY_clean_sbu_0, # of connection points: 6
#     Node 1, Type 0, BuildingBlock: IZENUY_clean_sbu_0, # of connection points: 6
#     Node 2, Type 0, BuildingBlock: IZENUY_clean_sbu_0, # of connection points: 6
#     Node 3, Type 0, BuildingBlock: IZENUY_clean_sbu_0, # of connection points: 6
#     Node 4, Type 0, BuildingBlock: IZENUY_clean_sbu_0, # of connection points: 6
#     Node 5, Type 0, BuildingBlock: IZENUY_clean_sbu_0, # of connection points: 6
#     Node 6, Type 0, BuildingBlock: IZENUY_clean_sbu_0, # of connection points: 6
#     Node 7, Type 0, BuildingBlock: IZENUY_clean_sbu_0, # of connection points: 6
#     Node 8, Type 0, BuildingBlock: IZENUY_clean_sbu_0, # of connection points: 6
#     Node 9, Type 0, BuildingBlock: IZENUY_clean_sbu_0, # of connection points: 6
#     Node 10, Type 0, BuildingBlock: IZENUY_clean_sbu_0, # of connection points: 6
#     Node 11, Type 0, BuildingBlock: IZENUY_clean_sbu_0, # of connection points: 6
#     Node 12, Type 0, BuildingBlock: IZENUY_clean_sbu_0, # of connection points: 6
#     Node 13, Type 0, BuildingBlock: IZENUY_clean_sbu_0, # of connection points: 6
#     Node 14, Type 0, BuildingBlock: IZENUY_clean_sbu_0, # of connection points: 6
#     Node 15, Type 0, BuildingBlock: IZENUY_clean_sbu_0, # of connection points: 6
#     Edge 16, Type (0, 0), BuildingBlock: XIVTED_clean_linker_0, # of connection points: 2
#     Edge 17, Type (0, 0), BuildingBlock: XIVTED_clean_linker_0, # of connection points: 2
#     Edge 18, Type (0, 0), BuildingBlock: XIVTED_clean_linker_0, # of connection points: 2
#     Edge 19, Type (0, 0), BuildingBlock: XIVTED_clean_linker_0, # of connection points: 2
#     Edge 20, Type (0, 0), BuildingBlock: XIVTED_clean_linker_0, # of connection points: 2
#     Edge 21, Type (0, 0), BuildingBlock: XIVTED_clean_linker_0, # of connection points: 2
#     Edge 22, Type (0, 0), BuildingBlock: XIVTED_clean_linker_0, # of connection points: 2
#     Edge 23, Type (0, 0), BuildingBlock: XIVTED_clean_linker_0, # of connection points: 2
#     Edge 24, Type (0, 0), BuildingBlock: XIVTED_clean_linker_0, # of connection points: 2
#     Edge 25, Type (0, 0), BuildingBlock: XIVTED_clean_linker_0, # of connection points: 2
#     Edge 26, Type (0, 0), BuildingBlock: XIVTED_clean_linker_0, # of connection points: 2
#     Edge 27, Type (0, 0), BuildingBlock: XIVTED_clean_linker_0, # of connection points: 2
#     Edge 28, Type (0, 0), BuildingBlock: XIVTED_clean_linker_0, # of connection points: 2
#     Edge 29, Type (0, 0), BuildingBlock: XIVTED_clean_linker_0, # of connection points: 2
#     Edge 30, Type (0, 0), BuildingBlock: XIVTED_clean_linker_0, # of connection points: 2
#     Edge 31, Type (0, 0), BuildingBlock: XIVTED_clean_linker_0, # of connection points: 2
#     Edge 32, Type (0, 0), BuildingBlock: XIVTED_clean_linker_0, # of connection points: 2
#     Edge 33, Type (0, 0), BuildingBlock: XIVTED_clean_linker_0, # of connection points: 2
#     Edge 34, Type (0, 0), BuildingBlock: XIVTED_clean_linker_0, # of connection points: 2
#     Edge 35, Type (0, 0), BuildingBlock: XIVTED_clean_linker_0, # of connection points: 2
#     Edge 36, Type (0, 0), BuildingBlock: XIVTED_clean_linker_0, # of connection points: 2
#     Edge 37, Type (0, 0), BuildingBlock: XIVTED_clean_linker_0, # of connection points: 2
#     Edge 38, Type (0, 0), BuildingBlock: XIVTED_clean_linker_0, # of connection points: 2
#     Edge 39, Type (0, 0), BuildingBlock: XIVTED_clean_linker_0, # of connection points: 2
#     Edge 40, Type (0, 0), BuildingBlock: XIVTED_clean_linker_0, # of connection points: 2
#     Edge 41, Type (0, 0), BuildingBlock: XIVTED_clean_linker_0, # of connection points: 2
#     Edge 42, Type (0, 0), BuildingBlock: XIVTED_clean_linker_0, # of connection points: 2
#     Edge 43, Type (0, 0), BuildingBlock: XIVTED_clean_linker_0, # of connection points: 2
#     Edge 44, Type (0, 0), BuildingBlock: XIVTED_clean_linker_0, # of connection points: 2
#     Edge 45, Type (0, 0), BuildingBlock: XIVTED_clean_linker_0, # of connection points: 2
#     Edge 46, Type (0, 0), BuildingBlock: XIVTED_clean_linker_0, # of connection points: 2
#     Edge 47, Type (0, 0), BuildingBlock: XIVTED_clean_linker_0, # of connection points: 2
#     Edge 48, Type (0, 0), BuildingBlock: XIVTED_clean_linker_0, # of connection points: 2
#     Edge 49, Type (0, 0), BuildingBlock: XIVTED_clean_linker_0, # of connection points: 2
#     Edge 50, Type (0, 0), BuildingBlock: XIVTED_clean_linker_0, # of connection points: 2
#     Edge 51, Type (0, 0), BuildingBlock: XIVTED_clean_linker_0, # of connection points: 2
#     Edge 52, Type (0, 0), BuildingBlock: XIVTED_clean_linker_0, # of connection points: 2
#     Edge 53, Type (0, 0), BuildingBlock: XIVTED_clean_linker_0, # of connection points: 2
#     Edge 54, Type (0, 0), BuildingBlock: XIVTED_clean_linker_0, # of connection points: 2
#     Edge 55, Type (0, 0), BuildingBlock: XIVTED_clean_linker_0, # of connection points: 2
#     Edge 56, Type (0, 0), BuildingBlock: XIVTED_clean_linker_0, # of connection points: 2
#     Edge 57, Type (0, 0), BuildingBlock: XIVTED_clean_linker_0, # of connection points: 2
#     Edge 58, Type (0, 0), BuildingBlock: XIVTED_clean_linker_0, # of connection points: 2
#     Edge 59, Type (0, 0), BuildingBlock: XIVTED_clean_linker_0, # of connection points: 2
#     Edge 60, Type (0, 0), BuildingBlock: XIVTED_clean_linker_0, # of connection points: 2
#     Edge 61, Type (0, 0), BuildingBlock: XIVTED_clean_linker_0, # of connection points: 2
#     Edge 62, Type (0, 0), BuildingBlock: XIVTED_clean_linker_0, # of connection points: 2
#     Edge 63, Type (0, 0), BuildingBlock: XIVTED_clean_linker_0, # of connection points: 2
# Relax obj value: 0.463
# Max RMSD: 0.278
# Mean RMSD: 0.278
data_MOF--net-whe--node1-IZENUY_clean_sbu_0--edge1-XIVTED_clean_linker_0
_symmetry_space_group_name_H-M    P1
_symmetry_Int_Tables_number       1
_symmetry_cell_setting            triclinic
loop_
_symmetry_equiv_pos_as_xyz
'x, y, z'
_cell_length_a     34.025788
_cell_length_b     33.975757
_cell_length_c     54.956324
_cell_angle_alpha  89.961542
_cell_angle_beta   89.77774
_cell_angle_gamma 89.870312
loop_
_atom_site_label
_atom_site_type_symbol
_atom_site_fract_x
_atom_site_fract_y
_atom_site_fract_z
_atom_type_partial_charge
Fe0 Fe 0.087 0.29698 0.17472 0.0
Fe1 Fe 0.07025 0.36733 0.1417 0.0
O2 O 0.10447 0.33671 0.15729 0.0
Fe3 Fe 0.15485 0.34875 0.15494 0.0
O4 O 0.1693 0.3331 0.18623 0.0
O5 O 0.11483 0.30941 0.20198 0.0
O6 O 0.04663 0.32705 0.18726 0.0
C7 C 0.04265 0.36443 0.18788 0.0
C8 C 0.1539 0.26668 0.1497 0.0
O9 O 0.05334 0.38652 0.17054 0.0
C10 C 0.12326 0.35013 0.10672 0.0
O11 O 0.05753 0.27798 0.14959 0.0
O12 O 0.02949 0.33345 0.14135 0.0
O13 O 0.16809 0.29981 0.14353 0.0
O14 O 0.12513 0.26352 0.16429 0.0
C15 C 0.1209 0.4231 0.15565 0.0
O16 O 0.08759 0.34743 0.11334 0.0
O17 O 0.14975 0.36199 0.12172 0.0
C18 C 0.03021 0.29684 0.13965 0.0
O19 O 0.10328 0.40856 0.13808 0.0
O20 O 0.14312 0.39964 0.16739 0.0
C21 C 0.15092 0.31734 0.20393 0.0
Fe22 Fe 0.7101 0.14132 0.1497 0.0
Fe23 Fe 0.78283 0.09048 0.15981 0.0
O24 O 0.7334 0.09482 0.15 0.0
Fe25 Fe 0.7086 0.05201 0.14035 0.0
O26 O 0.67045 0.05822 0.16255 0.0
O27 O 0.65949 0.12128 0.1569 0.0
O28 O 0.71952 0.14946 0.18276 0.0
C29 C 0.75438 0.15092 0.1913 0.0
C30 C 0.68624 0.10915 0.10568 0.0
O31 O 0.78209 0.13424 0.17977 0.0
C32 C 0.77967 0.03296 0.12256 0.0
O33 O 0.75624 0.1674 0.14106 0.0
O34 O 0.79855 0.1191 0.13421 0.0
O35 O 0.68012 0.07655 0.11629 0.0
O36 O 0.70102 0.13772 0.1171 0.0
C37 C 0.7435 0.03354 0.184 0.0
O38 O 0.79439 0.04591 0.14209 0.0
O39 O 0.74509 0.04215 0.11716 0.0
C40 C 0.78725 0.15405 0.13065 0.0
O41 O 0.76699 0.06211 0.18569 0.0
O42 O 0.73359 0.02143 0.1631 0.0
C43 C 0.64797 0.08725 0.16405 0.0
Fe44 Fe 0.87915 0.69034 0.14581 0.0
Fe45 Fe 0.94259 0.74808 0.1651 0.0
O46 O 0.92883 0.70505 0.14931 0.0
Fe47 Fe 0.96593 0.67391 0.13657 0.0
O48 O 0.93557 0.63039 0.1348 0.0
O49 O 0.89095 0.6421 0.16145 0.0
O50 O 0.8599 0.70936 0.17546 0.0
C51 C 0.87456 0.73011 0.19239 0.0
C52 C 0.91641 0.68031 0.09891 0.0
O53 O 0.91004 0.74065 0.19115 0.0
C54 C 1.00508 0.74523 0.13307 0.0
O55 O 0.86559 0.73683 0.13112 0.0
O56 O 0.90638 0.77817 0.14987 0.0
O57 O 0.95062 0.68801 0.10659 0.0
O58 O 0.88847 0.672 0.11392 0.0
C59 C 0.9874 0.68396 0.18366 0.0
O60 O 0.97652 0.76444 0.14127 0.0
O61 O 1.00553 0.7088 0.13529 0.0
C62 C 0.87901 0.77118 0.13492 0.0
O63 O 0.98036 0.72089 0.18221 0.0
O64 O 0.98117 0.66012 0.16646 0.0
C65 C 0.9156 0.6181 0.15219 0.0
Fe66 Fe 0.33398 0.88626 0.14654 0.0
Fe67 Fe 0.26556 0.93887 0.16216 0.0
O68 O 0.3134 0.9339 0.14989 0.0
Fe69 Fe 0.33908 0.97731 0.14146 0.0
O70 O 0.3799 0.96589 0.16051 0.0
O71 O 0.38574 0.90211 0.15406 0.0
O72 O 0.32535 0.87258 0.17926 0.0
C73 C 0.2908 0.87133 0.18837 0.0
C74 C 0.35713 0.92367 0.10334 0.0
O75 O 0.26426 0.89192 0.17866 0.0
C76 C 0.26701 1.00324 0.1296 0.0
O77 O 0.28574 0.86479 0.13713 0.0
O78 O 0.24552 0.91625 0.13556 0.0
O79 O 0.36242 0.95596 0.11435 0.0
O80 O 0.34293 0.89409 0.1142 0.0
C81 C 0.30974 0.98974 0.18781 0.0
O82 O 0.25468 0.98712 0.14882 0.0
O83 O 0.30016 0.99385 0.12143 0.0
C84 C 0.25448 0.88161 0.12916 0.0
O85 O 0.28644 0.96087 0.1887 0.0
O86 O 0.3202 1.00488 0.16772 0.0
C87 C 0.39989 0.93506 0.16123 0.0
Fe88 Fe 0.08867 0.74482 0.35125 0.0
Fe89 Fe 0.06616 0.68174 0.389 0.0
O90 O 0.10256 0.70842 0.37245 0.0
Fe91 Fe 0.15255 0.69633 0.37772 0.0
O92 O 0.17237 0.71006 0.34708 0.0
O93 O 0.12011 0.72673 0.3267 0.0
O94 O 0.04998 0.71321 0.33859 0.0
C95 C 0.04215 0.6769 0.34209 0.0
C96 C 0.15055 0.77817 0.37926 0.0
O97 O 0.04918 0.65911 0.36168 0.0
C98 C 0.11679 0.69674 0.425 0.0
O99 O 0.05538 0.76949 0.37241 0.0
O100 O 0.02682 0.71774 0.38729 0.0
O101 O 0.16287 0.746 0.3883 0.0
O102 O 0.126 0.77934 0.36184 0.0
C103 C 0.11757 0.62309 0.37777 0.0
O104 O 0.08287 0.704 0.41677 0.0
O105 O 0.14393 0.6843 0.41065 0.0
C106 C 0.02688 0.75401 0.38332 0.0
O107 O 0.09711 0.63891 0.39404 0.0
O108 O 0.14242 0.64478 0.3666 0.0
C109 C 0.15675 0.72177 0.32741 0.0
Fe110 Fe 0.32351 0.14609 0.38385 0.0
Fe111 Fe 0.24376 0.10631 0.37717 0.0
O112 O 0.29469 0.10292 0.38336 0.0
Fe113 Fe 0.31516 0.0561 0.38923 0.0
O114 O 0.3504 0.06077 0.36502 0.0
O115 O 0.36989 0.12103 0.37251 0.0
O116 O 0.30946 0.15957 0.35196 0.0
C117 C 0.27367 0.16622 0.34619 0.0
C118 C 0.35045 0.1053 0.42445 0.0
O119 O 0.24671 0.15246 0.35967 0.0
C120 C 0.24524 0.04243 0.41027 0.0
O121 O 0.28254 0.17642 0.39701 0.0
O122 O 0.23682 0.1321 0.40519 0.0
O123 O 0.34984 0.07328 0.41257 0.0
O124 O 0.33779 0.13693 0.41519 0.0
C125 C 0.27094 0.04936 0.34749 0.0
O126 O 0.22946 0.06082 0.39287 0.0
O127 O 0.28123 0.04715 0.41411 0.0
C128 C 0.25299 0.16471 0.40961 0.0
O129 O 0.25112 0.08069 0.34903 0.0
O130 O 0.28327 0.03266 0.36666 0.0
C131 C 0.37633 0.08667 0.36366 0.0
Fe132 Fe 0.94287 0.2535 0.37249 0.0
Fe133 Fe 0.98155 0.33071 0.3868 0.0
O134 O 0.9391 0.30456 0.37852 0.0
Fe135 Fe 0.8932 0.32865 0.37693 0.0
O136 O 0.88705 0.31503 0.34435 0.0
O137 O 0.9007 0.25245 0.35103 0.0
O138 O 0.97334 0.26304 0.34645 0.0
C139 C 1.00212 0.2863 0.34667 0.0
C140 C 0.87636 0.25391 0.39874 0.0
O141 O 0.01308 0.30102 0.3667 0.0
C142 C 0.9243 0.3578 0.41974 0.0
O143 O 0.98625 0.24468 0.39218 0.0
O144 O 0.98925 0.29926 0.41268 0.0
O145 O 0.8652 0.28414 0.38669 0.0
O146 O 0.91192 0.24333 0.3983 0.0
C147 C 0.94868 0.38755 0.3596 0.0
O148 O 0.95621 0.36396 0.40831 0.0
O149 O 0.89585 0.34126 0.40914 0.0
C150 C 0.99916 0.26401 0.41021 0.0
O151 O 0.97647 0.36372 0.36151 0.0
O152 O 0.91473 0.37815 0.36799 0.0
C153 C 0.88534 0.27898 0.33767 0.0
Fe154 Fe 0.72976 0.94615 0.34635 0.0
Fe155 Fe 0.6623 0.96486 0.38152 0.0
O156 O 0.6926 0.92971 0.36625 0.0
Fe157 Fe 0.68307 0.87922 0.37143 0.0
O158 O 0.69749 0.86092 0.34051 0.0
O159 O 0.71596 0.9142 0.32114 0.0
O160 O 0.69691 0.98362 0.3331 0.0
C161 C 0.65958 0.9875 0.3344 0.0
C162 C 0.76527 0.88355 0.37301 0.0
O163 O 0.63994 0.97838 0.35308 0.0
C164 C 0.68065 0.91669 0.4186 0.0
O165 O 0.75019 0.97958 0.36901 0.0
O166 O 0.69501 1.00673 0.37925 0.0
O167 O 0.73344 0.86974 0.38175 0.0
O168 O 0.76564 0.9106 0.35711 0.0
C169 C 0.60749 0.91003 0.37156 0.0
O170 O 0.68445 0.95113 0.40998 0.0
O171 O 0.67111 0.88789 0.40458 0.0
C172 C 0.73169 1.00755 0.37859 0.0
O173 O 0.62209 0.93146 0.38747 0.0
O174 O 0.63093 0.88696 0.36028 0.0
C175 C 0.71146 0.87733 0.32151 0.0
Fe176 Fe 0.9369 0.75792 0.85509 0.0
Fe177 Fe 0.9731 0.68734 0.88052 0.0
O178 O 0.93078 0.71136 0.86923 0.0
Fe179 Fe 0.88349 0.69051 0.87178 0.0
O180 O 0.87365 0.69505 0.83863 0.0
O181 O 0.89162 0.75668 0.83687 0.0
O182 O 0.96185 0.73385 0.83027 0.0
C183 C 0.98999 0.71012 0.83368 0.0
C184 C 0.87603 0.77205 0.88533 0.0
O185 O 1.00326 0.70471 0.85494 0.0
C186 C 0.91587 0.67207 0.91688 0.0
O187 O 0.98384 0.7703 0.86993 0.0
O188 O 0.98466 0.72894 0.8998 0.0
O189 O 0.86056 0.73953 0.87828 0.0
O190 O 0.91113 0.78087 0.87982 0.0
C191 C 0.93496 0.62417 0.86093 0.0
O192 O 0.94904 0.66559 0.90717 0.0
O193 O 0.88765 0.68552 0.9046 0.0
C194 C 0.99747 0.75991 0.89032 0.0
O195 O 0.96528 0.64461 0.8625 0.0
O196 O 0.90113 0.63817 0.86681 0.0
C197 C 0.87256 0.72832 0.82801 0.0
Fe198 Fe 0.33069 0.88221 0.87988 0.0
Fe199 Fe 0.24884 0.91867 0.87811 0.0
O200 O 0.29988 0.92435 0.88149 0.0
Fe201 Fe 0.31955 0.9713 0.88745 0.0
O202 O 0.35167 0.96804 0.86146 0.0
O203 O 0.37572 0.91004 0.86944 0.0
O204 O 0.31587 0.87234 0.84783 0.0
C205 C 0.27992 0.86513 0.84264 0.0
C206 C 0.35663 0.92046 0.92113 0.0
O207 O 0.25299 0.87595 0.85736 0.0
C208 C 0.25206 0.98155 0.91237 0.0
O209 O 0.29214 0.84772 0.8913 0.0
O210 O 0.24761 0.88859 0.90511 0.0
O211 O 0.35651 0.95265 0.90925 0.0
O212 O 0.34473 0.88892 0.91143 0.0
C213 C 0.26325 0.9828 0.85022 0.0
O214 O 0.23421 0.96112 0.89677 0.0
O215 O 0.28867 0.97894 0.91384 0.0
C216 C 0.26247 0.85465 0.90494 0.0
O217 O 0.24903 0.94867 0.85155 0.0
O218 O 0.28554 0.99671 0.8666 0.0
C219 C 0.37966 0.94432 0.86018 0.0
Fe220 Fe 0.14873 0.32506 0.87752 0.0
Fe221 Fe 0.08478 0.27191 0.85519 0.0
O222 O 0.09898 0.31087 0.87439 0.0
Fe223 Fe 0.06276 0.3378 0.89081 0.0
O224 O 0.09209 0.38201 0.89375 0.0
O225 O 0.13579 0.37534 0.86535 0.0
O226 O 0.16557 0.3098 0.84647 0.0
C227 C 0.14796 0.29701 0.82771 0.0
C228 C 0.11715 0.32625 0.92569 0.0
O229 O 0.11161 0.29029 0.8288 0.0
C230 C 0.02766 0.26309 0.88987 0.0
O231 O 0.16214 0.27656 0.88928 0.0
O232 O 0.12559 0.24049 0.8644 0.0
O233 O 0.08227 0.31889 0.91904 0.0
O234 O 0.14239 0.33927 0.91028 0.0
C235 C 0.03433 0.33592 0.8447 0.0
O236 O 0.05641 0.24773 0.87905 0.0
O237 O 0.02523 0.29985 0.8914 0.0
C238 C 0.15072 0.24342 0.88132 0.0
O239 O 0.04207 0.29927 0.84375 0.0
O240 O 0.04341 0.35709 0.86268 0.0
C241 C 0.11117 0.39715 0.87666 0.0
Fe242 Fe 0.72717 0.08221 0.84877 0.0
Fe243 Fe 0.66093 0.06461 0.88504 0.0
O244 O 0.69149 0.09907 0.86957 0.0
Fe245 Fe 0.68385 0.14975 0.8753 0.0
O246 O 0.69865 0.16817 0.84445 0.0
O247 O 0.71138 0.11435 0.82404 0.0
O248 O 0.69372 0.04502 0.8362 0.0
C249 C 0.6565 0.04162 0.83797 0.0
C250 C 0.76535 0.14248 0.87576 0.0
O251 O 0.6376 0.05135 0.85682 0.0
C252 C 0.68065 0.11189 0.92229 0.0
O253 O 0.74847 0.04837 0.87091 0.0
O254 O 0.69337 0.02235 0.88259 0.0
O255 O 0.73442 0.1564 0.88558 0.0
O256 O 0.76408 0.11735 0.85872 0.0
C257 C 0.60769 0.12154 0.87516 0.0
O258 O 0.68377 0.0776 0.91343 0.0
O259 O 0.67167 0.14111 0.90843 0.0
C260 C 0.73006 0.02081 0.88101 0.0
O261 O 0.62152 0.09924 0.891 0.0
O262 O 0.63168 0.14434 0.86423 0.0
C263 C 0.70871 0.15136 0.82469 0.0
Fe264 Fe 0.92404 0.24874 0.65498 0.0
Fe265 Fe 0.96958 0.32146 0.63934 0.0
O266 O 0.92421 0.29902 0.64638 0.0
Fe267 Fe 0.87939 0.32515 0.64462 0.0
O268 O 0.86653 0.31398 0.67713 0.0
O269 O 0.87763 0.25087 0.67235 0.0
O270 O 0.94858 0.26115 0.68268 0.0
C271 C 0.97845 0.28305 0.6835 0.0
C272 C 0.86446 0.24976 0.62313 0.0
O273 O 0.99479 0.29466 0.66394 0.0
C274 C 0.91836 0.34917 0.60242 0.0
O275 O 0.971 0.23543 0.64032 0.0
O276 O 0.98065 0.2849 0.61638 0.0
O277 O 0.85191 0.28093 0.63382 0.0
O278 O 0.89867 0.23675 0.62726 0.0
C279 C 0.93525 0.38378 0.66185 0.0
O280 O 0.95044 0.35167 0.61406 0.0
O281 O 0.88762 0.33612 0.61258 0.0
C282 C 0.98891 0.25037 0.62241 0.0
O283 O 0.96274 0.35945 0.66147 0.0
O284 O 0.90133 0.37433 0.6536 0.0
C285 C 0.86158 0.27847 0.68434 0.0
Fe286 Fe 0.76432 0.92116 0.65918 0.0
Fe287 Fe 0.69256 0.96285 0.63874 0.0
O288 O 0.71569 0.91866 0.64782 0.0
Fe289 Fe 0.69209 0.87259 0.64558 0.0
O290 O 0.69985 0.86145 0.67848 0.0
O291 O 0.7626 0.875 0.67666 0.0
O292 O 0.74597 0.94596 0.68579 0.0
C293 C 0.72317 0.97535 0.68467 0.0
C294 C 0.7702 0.86125 0.62734 0.0
O295 O 0.71434 0.99023 0.66418 0.0
C296 C 0.67193 0.90876 0.60175 0.0
O297 O 0.77739 0.96828 0.64483 0.0
O298 O 0.7321 0.97435 0.61769 0.0
O299 O 0.73864 0.84719 0.63672 0.0
O300 O 0.78175 0.89566 0.63254 0.0
C301 C 0.62956 0.92627 0.65991 0.0
O302 O 0.66714 0.94144 0.6125 0.0
O303 O 0.68419 0.87885 0.61309 0.0
C304 C 0.76499 0.98438 0.62563 0.0
O305 O 0.65148 0.95565 0.65861 0.0
O306 O 0.64146 0.89236 0.65279 0.0
C307 C 0.73428 0.85833 0.68738 0.0
Fe308 Fe 0.09547 0.75807 0.67122 0.0
Fe309 Fe 0.05959 0.68905 0.64427 0.0
O310 O 0.10203 0.71262 0.65572 0.0
Fe311 Fe 0.14967 0.69272 0.65202 0.0
O312 O 0.16114 0.69619 0.68505 0.0
O313 O 0.14142 0.75708 0.68849 0.0
O314 O 0.07239 0.73151 0.69574 0.0
C315 C 0.04455 0.70765 0.69204 0.0
C316 C 0.15328 0.77454 0.63888 0.0
O317 O 0.03034 0.70368 0.6709 0.0
C318 C 0.11565 0.67649 0.6069 0.0
O319 O 0.04769 0.77058 0.65771 0.0
O320 O 0.04671 0.73211 0.62651 0.0
O321 O 0.17088 0.74265 0.64539 0.0
O322 O 0.11921 0.78314 0.64664 0.0
C323 C 0.0994 0.62477 0.66177 0.0
O324 O 0.08264 0.67001 0.61667 0.0
O325 O 0.14435 0.68857 0.61922 0.0
C326 C 0.0341 0.76225 0.63702 0.0
O327 O 0.06858 0.64467 0.6605 0.0
O328 O 0.13317 0.63985 0.65677 0.0
C329 C 0.16109 0.72861 0.69658 0.0
Fe330 Fe 0.32807 0.05169 0.64002 0.0
Fe331 Fe 0.32852 0.14174 0.64617 0.0
O332 O 0.30285 0.0963 0.64519 0.0
Fe333 Fe 0.2514 0.09628 0.64857 0.0
O334 O 0.25459 0.06742 0.67548 0.0
O335 O 0.29726 0.02343 0.66146 0.0
O336 O 0.35926 0.05992 0.66582 0.0
C337 C 0.38453 0.0864 0.66628 0.0
C338 C 0.26264 0.03257 0.61537 0.0
O339 O 0.37656 0.11968 0.65667 0.0
C340 C 0.25828 0.16031 0.62056 0.0
O341 O 0.36253 0.07351 0.61764 0.0
O342 O 0.34364 0.13555 0.61474 0.0
O343 O 0.242 0.05165 0.63046 0.0
O344 O 0.29871 0.0392 0.61393 0.0
C345 C 0.27571 0.15425 0.68335 0.0
O346 O 0.28633 0.17117 0.63434 0.0
O347 O 0.24685 0.12513 0.62119 0.0
C348 C 0.35926 0.10524 0.60544 0.0
O349 O 0.31232 0.15103 0.67811 0.0
O350 O 0.25036 0.13996 0.6688 0.0
C351 C 0.27251 0.03511 0.67728 0.0
H352 H 0.11388 0.19921 0.14228 0.0
H353 H 0.30313 0.0693 0.11139 0.0
H354 H 0.22931 0.24967 0.13333 0.0
H355 H 0.18992 0.02346 0.1325 0.0
H356 H 0.27464 0.13573 0.10997 0.0
H357 H 0.13947 0.13581 0.12953 0.0
C358 C 0.14477 0.19694 0.13759 0.0
C359 C 0.16974 0.22962 0.13944 0.0
C360 C 0.25591 0.11099 0.1144 0.0
C361 C 0.19944 0.15649 0.12479 0.0
C362 C 0.27201 0.07303 0.11496 0.0
C363 C 0.24881 0.0409 0.12226 0.0
C364 C 0.21636 0.11661 0.12097 0.0
C365 C 0.20886 0.04745 0.12697 0.0
C366 C 0.15934 0.16064 0.13019 0.0
C367 C 0.2092 0.22508 0.13242 0.0
N368 N 0.19404 0.08454 0.12647 0.0
N369 N 0.22306 0.18891 0.12575 0.0
H370 H 0.01884 0.21774 0.13132 0.0
H371 H 0.79334 0.23414 0.13639 0.0
H372 H 0.96186 0.33112 0.1253 0.0
H373 H 0.84947 0.13444 0.10197 0.0
H374 H 0.85361 0.27207 0.13031 0.0
H375 H 0.95697 0.18636 0.11944 0.0
C376 C 0.99356 0.23598 0.12725 0.0
C377 C 0.99529 0.27695 0.12977 0.0
C378 C 0.85229 0.24219 0.12351 0.0
C379 C 0.92484 0.24156 0.11638 0.0
C380 C 0.81782 0.22064 0.12686 0.0
C381 C 0.81688 0.18083 0.12031 0.0
C382 C 0.88583 0.22339 0.11397 0.0
C383 C 0.84943 0.16482 0.10792 0.0
C384 C 0.9584 0.21817 0.12031 0.0
C385 C 0.96175 0.29933 0.12397 0.0
N386 N 0.88307 0.1858 0.10579 0.0
N387 N 0.92767 0.2813 0.11802 0.0
H388 H 0.80243 0.7891 0.12259 0.0
H389 H 0.85686 0.01174 0.12036 0.0
H390 H 0.92154 0.83137 0.11713 0.0
H391 H 0.74074 0.97168 0.10133 0.0
H392 H 0.88204 0.94551 0.11312 0.0
H393 H 0.77893 0.85402 0.10894 0.0
C394 C 0.82355 0.81168 0.11788 0.0
C395 C 0.86379 0.80545 0.12154 0.0
C396 C 0.85118 0.9513 0.10994 0.0
C397 C 0.83754 0.87922 0.10625 0.0
C398 C 0.83689 0.98919 0.11403 0.0
C399 C 0.79669 0.99703 0.11176 0.0
C400 C 0.82483 0.92081 0.10426 0.0
C401 C 0.772 0.9668 0.10342 0.0
C402 C 0.81025 0.84869 0.11015 0.0
C403 C 0.89013 0.83547 0.11514 0.0
N404 N 0.78627 0.92968 0.10061 0.0
N405 N 0.87655 0.87121 0.10823 0.0
H406 H 0.19132 0.90967 0.10436 0.0
H407 H 0.07275 0.70963 0.1182 0.0
H408 H 0.24348 0.80137 0.12993 0.0
H409 H 0.02007 0.82459 0.12714 0.0
H410 H 0.13526 0.74066 0.1086 0.0
H411 H 0.12938 0.87519 0.09804 0.0
C412 C 0.19007 0.87836 0.10804 0.0
C413 C 0.22235 0.8585 0.11829 0.0
C414 C 0.10988 0.75904 0.11234 0.0
C415 C 0.15162 0.81917 0.11098 0.0
C416 C 0.07409 0.74148 0.11786 0.0
C417 C 0.04115 0.76461 0.12401 0.0
C418 C 0.11283 0.80005 0.11264 0.0
C419 C 0.04477 0.80566 0.12287 0.0
C420 C 0.15464 0.85887 0.10453 0.0
C421 C 0.21927 0.81788 0.12225 0.0
N422 N 0.08019 0.82214 0.11751 0.0
N423 N 0.18417 0.79959 0.11896 0.0
H424 H 0.16743 0.02375 0.40896 0.0
H425 H 0.21458 0.79348 0.40849 0.0
H426 H 0.28059 0.97607 0.42873 0.0
H427 H 0.1142 0.84901 0.37489 0.0
H428 H 0.23368 0.85772 0.42529 0.0
H429 H 0.14092 0.95718 0.40805 0.0
C430 C 0.18643 0.99935 0.4138 0.0
C431 C 0.22649 1.0054 0.41827 0.0
C432 C 0.20734 0.85559 0.41438 0.0
C433 C 0.19668 0.92906 0.41657 0.0
C434 C 0.19657 0.81907 0.40469 0.0
C435 C 0.16325 0.81604 0.38982 0.0
C436 C 0.18423 0.88898 0.40942 0.0
C437 C 0.14065 0.85002 0.38576 0.0
C438 C 0.17139 0.96129 0.41305 0.0
C439 C 0.24963 0.97273 0.42479 0.0
N440 N 0.15162 0.88495 0.39542 0.0
N441 N 0.23462 0.93577 0.42315 0.0
H442 H 0.21536 0.14878 0.45174 0.0
H443 H 0.02785 0.18906 0.41642 0.0
H444 H 0.23182 0.24035 0.39838 0.0
H445 H 0.05527 0.31112 0.43012 0.0
H446 H 0.09539 0.17162 0.42786 0.0
H447 H 0.15097 0.17657 0.46194 0.0
C448 C 0.20634 0.17606 0.44315 0.0
C449 C 0.2284 0.19192 0.42383 0.0
C450 C 0.08602 0.20206 0.42904 0.0
C451 C 0.15521 0.2233 0.43527 0.0
C452 C 0.04765 0.21197 0.42245 0.0
C453 C 0.03593 0.2515 0.42221 0.0
C454 C 0.11292 0.23201 0.4347 0.0
C455 C 0.06297 0.28019 0.43003 0.0
C456 C 0.16948 0.19146 0.44876 0.0
C457 C 0.21556 0.22717 0.41326 0.0
N458 N 0.10063 0.27002 0.43518 0.0
N459 N 0.1791 0.24126 0.4187 0.0
H460 H 0.80987 0.01771 0.3893 0.0
H461 H 0.88811 0.19252 0.42975 0.0
H462 H 0.6992 0.07989 0.38581 0.0
H463 H 0.80085 0.24364 0.38239 0.0
H464 H 0.85139 0.13085 0.42977 0.0
H465 H 0.84194 0.07927 0.40123 0.0
C466 C 0.79233 0.04418 0.39125 0.0
C467 C 0.7519 0.04369 0.38657 0.0
C468 C 0.84013 0.1557 0.41958 0.0
C469 C 0.78803 0.11386 0.40046 0.0
C470 C 0.86067 0.19109 0.41984 0.0
C471 C 0.84797 0.22299 0.40558 0.0
C472 C 0.80658 0.15231 0.40505 0.0
C473 C 0.81191 0.21972 0.39346 0.0
C474 C 0.81048 0.07916 0.39836 0.0
C475 C 0.73047 0.07888 0.38934 0.0
N476 N 0.7927 0.18466 0.39317 0.0
N477 N 0.7489 0.11266 0.39575 0.0
H478 H 0.95979 0.72839 0.40586 0.0
H479 H 0.83652 0.91862 0.36784 0.0
H480 H 1.00995 0.83095 0.37135 0.0
H481 H 0.78278 0.81213 0.39483 0.0
H482 H 0.90101 0.89035 0.37513 0.0
H483 H 0.89648 0.76205 0.40805 0.0
C484 C 0.9577 0.75821 0.399 0.0
C485 C 0.9903 0.77666 0.38809 0.0
C486 C 0.87523 0.87314 0.37964 0.0
C487 C 0.91751 0.81531 0.39052 0.0
C488 C 0.83823 0.88924 0.37544 0.0
C489 C 0.80402 0.86745 0.38035 0.0
C490 C 0.87842 0.83476 0.38875 0.0
C491 C 0.8083 0.82988 0.39063 0.0
C492 C 0.92141 0.77735 0.40023 0.0
C493 C 0.98569 0.81543 0.37975 0.0
N494 N 0.84489 0.81451 0.39425 0.0
N495 N 0.94989 0.83328 0.38093 0.0
H496 H 0.90032 0.83854 0.90826 0.0
H497 H 0.69624 0.95001 0.89124 0.0
H498 H 0.79575 0.78083 0.8821 0.0
H499 H 0.80927 1.00716 0.88636 0.0
H500 H 0.72928 0.88761 0.89934 0.0
H501 H 0.86309 0.8995 0.91276 0.0
C502 C 0.86927 0.83844 0.90396 0.0
C503 C 0.85126 0.80475 0.89427 0.0
C504 C 0.74676 0.9139 0.89674 0.0
C505 C 0.80872 0.87449 0.89939 0.0
C506 C 0.72803 0.94959 0.89214 0.0
C507 C 0.75012 0.98385 0.88783 0.0
C508 C 0.78784 0.91248 0.8974 0.0
C509 C 0.79116 0.98142 0.8893 0.0
C510 C 0.84818 0.87332 0.90643 0.0
C511 C 0.81085 0.80617 0.88944 0.0
N512 N 0.80875 0.94623 0.89389 0.0
N513 N 0.79097 0.84077 0.89171 0.0
H514 H 0.03204 0.7613 0.93548 0.0
H515 H 0.24446 0.79086 0.87739 0.0
H516 H 0.05536 0.78301 0.8594 0.0
H517 H 0.21448 0.84919 0.94462 0.0
H518 H 0.17912 0.76114 0.87688 0.0
H519 H 0.10236 0.77244 0.9441 0.0
C520 C 0.05181 0.76883 0.92071 0.0
C521 C 0.03777 0.77201 0.89678 0.0
C522 C 0.18746 0.7793 0.8922 0.0
C523 C 0.11774 0.78218 0.90625 0.0
C524 C 0.22498 0.79572 0.89275 0.0
C525 C 0.23457 0.82299 0.9109 0.0
C526 C 0.15991 0.78963 0.91019 0.0
C527 C 0.20792 0.82851 0.93022 0.0
C528 C 0.09176 0.77468 0.92559 0.0
C529 C 0.06466 0.78108 0.87818 0.0
N530 N 0.17132 0.81263 0.92914 0.0
N531 N 0.10335 0.78545 0.88328 0.0
H532 H 0.17361 0.99922 0.91303 0.0
H533 H 0.2177 0.2299 0.90869 0.0
H534 H 0.28705 0.0484 0.93018 0.0
H535 H 0.11448 0.17261 0.88025 0.0
H536 H 0.23904 0.16632 0.92583 0.0
H537 H 0.14602 0.06545 0.9125 0.0
C538 C 0.19251 0.02383 0.91739 0.0
C539 C 0.23292 0.01825 0.92094 0.0
C540 C 0.21158 0.16796 0.91599 0.0
C541 C 0.20179 0.09435 0.91962 0.0
C542 C 0.19954 0.20411 0.90612 0.0
C543 C 0.16479 0.20637 0.8925 0.0
C544 C 0.18829 0.13425 0.91249 0.0
C545 C 0.14202 0.17217 0.89005 0.0
C546 C 0.17683 0.06175 0.91684 0.0
C547 C 0.25584 0.05132 0.92687 0.0
N548 N 0.15424 0.13769 0.89982 0.0
N549 N 0.24018 0.08811 0.92539 0.0
H550 H 0.96283 0.28636 0.91556 0.0
H551 H 0.83562 0.10701 0.86666 0.0
H552 H 0.01122 0.18669 0.87694 0.0
H553 H 0.78511 0.20829 0.90258 0.0
H554 H 0.90091 0.13117 0.87609 0.0
H555 H 0.89936 0.25324 0.9173 0.0
C556 C 0.96032 0.25717 0.9078 0.0
C557 C 0.99228 0.23957 0.89567 0.0
C558 C 0.87565 0.14807 0.88209 0.0
C559 C 0.91943 0.20168 0.89743 0.0
C560 C 0.83821 0.1344 0.87661 0.0
C561 C 0.80471 0.15607 0.88344 0.0
C562 C 0.87993 0.18392 0.89438 0.0
C563 C 0.81008 0.19084 0.89676 0.0
C564 C 0.92397 0.23835 0.90876 0.0
C565 C 0.98736 0.20155 0.88627 0.0
N566 N 0.84705 0.20397 0.90154 0.0
N567 N 0.95143 0.18414 0.88703 0.0
H568 H 0.76491 0.02252 0.58133 0.0
H569 H 0.79418 0.22964 0.64295 0.0
H570 H 0.79401 0.03808 0.6571 0.0
H571 H 0.87364 0.20073 0.58429 0.0
H572 H 0.76409 0.16457 0.63887 0.0
H573 H 0.78015 0.09287 0.57426 0.0
C574 C 0.77488 0.04055 0.59632 0.0
C575 C 0.77893 0.02437 0.61972 0.0
C576 C 0.78701 0.17327 0.62623 0.0
C577 C 0.79368 0.10421 0.6121 0.0
C578 C 0.80385 0.21049 0.62834 0.0
C579 C 0.83655 0.2203 0.61402 0.0
C580 C 0.80253 0.1463 0.60941 0.0
C581 C 0.8485 0.194 0.59568 0.0
C582 C 0.78312 0.08047 0.59232 0.0
C583 C 0.79125 0.04905 0.63868 0.0
N584 N 0.83192 0.1577 0.59414 0.0
N585 N 0.7977 0.08779 0.6345 0.0
H586 H 0.97559 0.77902 0.66878 0.0
H587 H 0.82374 0.87669 0.59171 0.0
H588 H 1.00117 0.77294 0.59187 0.0
H589 H 0.78749 0.78705 0.64257 0.0
H590 H 0.88849 0.84512 0.58871 0.0
H591 H 0.90684 0.79189 0.65942 0.0
C592 C 0.96686 0.78113 0.64988 0.0
C593 C 0.99412 0.77549 0.63101 0.0
C594 C 0.86579 0.83158 0.59975 0.0
C595 C 0.91547 0.78965 0.62032 0.0
C596 C 0.8289 0.8494 0.60141 0.0
C597 C 0.80067 0.83472 0.61775 0.0
C598 C 0.8744 0.79981 0.61506 0.0
C599 C 0.80864 0.79945 0.62997 0.0
C600 C 0.92755 0.78769 0.64461 0.0
C601 C 0.98094 0.77757 0.60686 0.0
N602 N 0.84541 0.78393 0.6291 0.0
N603 N 0.94239 0.7852 0.6021 0.0
H604 H 0.11939 0.82737 0.60881 0.0
H605 H 0.30615 0.96775 0.6028 0.0
H606 H 0.23238 0.79375 0.63761 0.0
H607 H 0.18634 1.00853 0.60961 0.0
H608 H 0.28228 0.90002 0.60062 0.0
H609 H 0.14779 0.88865 0.59393 0.0
C610 C 0.15048 0.83255 0.61157 0.0
C611 C 0.17343 0.80584 0.62496 0.0
C612 C 0.26128 0.92393 0.60198 0.0
C613 C 0.20598 0.87604 0.60788 0.0
C614 C 0.27473 0.96269 0.60301 0.0
C615 C 0.24814 0.99397 0.60672 0.0
C616 C 0.22097 0.91647 0.60414 0.0
C617 C 0.20786 0.98539 0.60697 0.0
C618 C 0.16656 0.86756 0.60308 0.0
C619 C 0.21364 0.8137 0.62755 0.0
N620 N 0.19552 0.9474 0.60595 0.0
N621 N 0.2286 0.84856 0.61944 0.0
H622 H 0.21749 0.16048 0.57803 0.0
H623 H 0.03422 0.19978 0.64869 0.0
H624 H 0.22796 0.22087 0.64666 0.0
H625 H 0.03482 0.26881 0.58263 0.0
H626 H 0.10453 0.18809 0.64355 0.0
H627 H 0.1505 0.18695 0.57379 0.0
C628 C 0.20641 0.18091 0.59157 0.0
C629 C 0.2282 0.18867 0.61269 0.0
C630 C 0.08898 0.20539 0.63007 0.0
C631 C 0.15174 0.21704 0.60848 0.0
C632 C 0.0488 0.21163 0.63274 0.0
C633 C 0.02854 0.23545 0.61607 0.0
C634 C 0.10896 0.22219 0.61035 0.0
C635 C 0.04939 0.25033 0.59589 0.0
C636 C 0.1682 0.19559 0.58923 0.0
C637 C 0.21229 0.21452 0.63 0.0
N638 N 0.0887 0.2434 0.59351 0.0
N639 N 0.17439 0.22667 0.62794 0.0
H640 H 0.11997 0.29738 0.24865 0.0
H641 H 0.31529 0.19529 0.30501 0.0
H642 H 0.23088 0.30111 0.21064 0.0
H643 H 0.20108 0.19864 0.33924 0.0
H644 H 0.28841 0.2356 0.27119 0.0
H645 H 0.15204 0.26403 0.28257 0.0
C646 C 0.15127 0.29175 0.24747 0.0
C647 C 0.17243 0.30269 0.22645 0.0
C648 C 0.26939 0.22759 0.28622 0.0
C649 C 0.21009 0.26282 0.26589 0.0
C650 C 0.28485 0.20457 0.30566 0.0
C651 C 0.26074 0.19297 0.32537 0.0
C652 C 0.22945 0.23941 0.28637 0.0
C653 C 0.22127 0.20613 0.3247 0.0
C654 C 0.16972 0.27231 0.26698 0.0
C655 C 0.21314 0.29392 0.22641 0.0
N656 N 0.20723 0.22814 0.30584 0.0
N657 N 0.23043 0.27439 0.24557 0.0
H658 H 0.8361 0.2155 0.33579 0.0
H659 H 0.809 0.20969 0.19172 0.0
H660 H 0.87822 0.31007 0.29056 0.0
H661 H 0.72887 0.14974 0.23978 0.0
H662 H 0.83693 0.24451 0.22681 0.0
H663 H 0.79986 0.18888 0.301 0.0
C664 C 0.83758 0.23097 0.31856 0.0
C665 C 0.86037 0.26547 0.31642 0.0
C666 C 0.81288 0.22421 0.22975 0.0
C667 C 0.81902 0.23399 0.27571 0.0
C668 C 0.79668 0.20433 0.20963 0.0
C669 C 0.76588 0.17695 0.21249 0.0
C670 C 0.79935 0.21607 0.25344 0.0
C671 C 0.75199 0.17089 0.2364 0.0
C672 C 0.81667 0.21563 0.29862 0.0
C673 C 0.86088 0.28378 0.29338 0.0
N674 N 0.76909 0.18971 0.25582 0.0
N675 N 0.84114 0.2676 0.27399 0.0
H676 H 0.89182 0.79193 0.22267 0.0
H677 H 0.70319 0.79693 0.30982 0.0
H678 H 0.79826 0.70973 0.20876 0.0
H679 H 0.76399 0.90151 0.28638 0.0
H680 H 0.74036 0.75877 0.27889 0.0
H681 H 0.85007 0.82539 0.25241 0.0
C682 C 0.8627 0.78028 0.22602 0.0
C683 C 0.84917 0.74735 0.21282 0.0
C684 C 0.74519 0.79015 0.28041 0.0
C685 C 0.80025 0.78652 0.24786 0.0
C686 C 0.72381 0.81213 0.29809 0.0
C687 C 0.72965 0.85308 0.30089 0.0
C688 C 0.77386 0.80871 0.26575 0.0
C689 C 0.75761 0.8704 0.28508 0.0
C690 C 0.8386 0.79987 0.24305 0.0
C691 C 0.81049 0.73469 0.2183 0.0
N692 N 0.77868 0.84832 0.26873 0.0
N693 N 0.78768 0.75397 0.23539 0.0
H694 H 0.22111 0.83273 0.18984 0.0
H695 H 0.23704 0.73963 0.32494 0.0
H696 H 0.32735 0.84358 0.23165 0.0
H697 H 0.13298 0.73889 0.28054 0.0
H698 H 0.27312 0.77189 0.29129 0.0
H699 H 0.1921 0.79341 0.22219 0.0
C700 C 0.23875 0.82657 0.20578 0.0
C701 C 0.27714 0.84195 0.2076 0.0
C702 C 0.24252 0.76427 0.28881 0.0
C703 C 0.24286 0.79608 0.24592 0.0
C704 C 0.22181 0.74542 0.30804 0.0
C705 C 0.18152 0.73588 0.30588 0.0
C706 C 0.22315 0.77385 0.26691 0.0
C707 C 0.16379 0.7452 0.28341 0.0
C708 C 0.22187 0.80394 0.22447 0.0
C709 C 0.29796 0.83231 0.22902 0.0
N710 N 0.18444 0.76344 0.26517 0.0
N711 N 0.28054 0.8104 0.24731 0.0
H712 H 0.7048 0.85483 0.7348 0.0
H713 H 0.86876 0.69835 0.78102 0.0
H714 H 0.79035 0.80103 0.68739 0.0
H715 H 0.81351 0.78272 0.82855 0.0
H716 H 0.82994 0.72496 0.74682 0.0
H717 H 0.73365 0.81834 0.7694 0.0
C718 C 0.7288 0.83453 0.73149 0.0
C719 C 0.74467 0.83075 0.70792 0.0
C720 C 0.82576 0.7372 0.76483 0.0
C721 C 0.77832 0.78888 0.74766 0.0
C722 C 0.84768 0.72165 0.78444 0.0
C723 C 0.8441 0.73781 0.80789 0.0
C724 C 0.79957 0.769 0.76858 0.0
C725 C 0.81698 0.76895 0.81091 0.0
C726 C 0.74563 0.81397 0.75132 0.0
C727 C 0.7767 0.80464 0.70507 0.0
N728 N 0.79591 0.78335 0.79168 0.0
N729 N 0.79225 0.78488 0.72448 0.0
H730 H 0.23817 0.75325 0.69932 0.0
H731 H 0.21099 0.82505 0.83786 0.0
H732 H 0.13763 0.72755 0.74417 0.0
H733 H 0.31897 0.84587 0.79862 0.0
H734 H 0.18665 0.78681 0.80391 0.0
H735 H 0.27082 0.78318 0.73486 0.0
C736 C 0.22354 0.7525 0.71685 0.0
C737 C 0.18551 0.73636 0.71882 0.0
C738 C 0.21576 0.79944 0.80253 0.0
C739 C 0.22215 0.77255 0.75963 0.0
C740 C 0.22992 0.82162 0.82211 0.0
C741 C 0.26741 0.83933 0.82147 0.0
C742 C 0.23865 0.79457 0.78142 0.0
C743 C 0.29003 0.83296 0.80023 0.0
C744 C 0.24202 0.77017 0.73711 0.0
C745 C 0.16734 0.73827 0.74182 0.0
N746 N 0.27523 0.8115 0.78107 0.0
N747 N 0.1856 0.75599 0.76106 0.0
H748 H 0.22872 0.28488 0.82118 0.0
H749 H 0.19986 0.17757 0.69153 0.0
H750 H 0.11879 0.27501 0.78301 0.0
H751 H 0.3146 0.1876 0.72398 0.0
H752 H 0.17194 0.21486 0.72496 0.0
H753 H 0.26212 0.25267 0.78649 0.0
C754 C 0.21158 0.27671 0.80542 0.0
C755 C 0.17052 0.28317 0.80533 0.0
C756 C 0.20326 0.20917 0.72498 0.0
C757 C 0.20897 0.2452 0.76531 0.0
C758 C 0.21953 0.18751 0.70568 0.0
C759 C 0.26009 0.17876 0.70452 0.0
C760 C 0.22715 0.22275 0.744 0.0
C761 C 0.2833 0.19332 0.72379 0.0
C762 C 0.23077 0.25792 0.78561 0.0
C763 C 0.15029 0.27102 0.78427 0.0
N764 N 0.26657 0.21431 0.74268 0.0
N765 N 0.16949 0.25275 0.76548 0.0
H766 H 0.83665 0.31827 0.72718 0.0
H767 H 0.72152 0.12567 0.77777 0.0
H768 H 0.82271 0.2088 0.68862 0.0
H769 H 0.73286 0.23014 0.82155 0.0
H770 H 0.75477 0.15933 0.74432 0.0
H771 H 0.79604 0.29087 0.76083 0.0
C772 C 0.82478 0.28886 0.72551 0.0
C773 C 0.8336 0.2661 0.70469 0.0
C774 C 0.74983 0.1753 0.7611 0.0
C775 C 0.78693 0.23416 0.7435 0.0
C776 C 0.73045 0.15595 0.78037 0.0
C777 C 0.72374 0.17475 0.80286 0.0
C778 C 0.76349 0.21422 0.76385 0.0
C779 C 0.7367 0.21424 0.80465 0.0
C780 C 0.8017 0.27304 0.74488 0.0
C781 C 0.8174 0.22781 0.70409 0.0
N782 N 0.75603 0.2324 0.78564 0.0
N783 N 0.79535 0.21341 0.7229 0.0
H784 H 0.17808 0.38558 0.0759 0.0
H785 H 0.081 0.2815 0.95981 0.0
H786 H 0.08703 0.29755 0.078 0.0
H787 H 0.17229 0.36851 0.95203 0.0
H788 H 0.08911 0.28344 1.00362 0.0
H789 H 0.18281 0.37655 0.0313 0.0
C790 C 0.15961 0.36399 0.06707 0.0
C791 C 0.13176 0.34264 0.08061 0.0
C792 C 0.10766 0.3021 0.9925 0.0
C793 C 0.1369 0.33222 0.02995 0.0
C794 C 0.10297 0.30099 0.96736 0.0
C795 C 0.12567 0.32518 0.95218 0.0
C796 C 0.135 0.32801 1.00292 0.0
C797 C 0.15409 0.34942 0.96308 0.0
C798 C 0.16216 0.35898 0.04166 0.0
C799 C 0.10848 0.31513 0.06828 0.0
N800 N 0.15764 0.35062 0.98785 0.0
N801 N 0.11145 0.31094 0.04383 0.0
H802 H 0.65991 0.05215 0.0745 0.0
H803 H 0.67993 0.17885 0.95156 0.0
H804 H 0.6965 0.17371 0.07563 0.0
H805 H 0.67878 0.0519 0.95525 0.0
H806 H 0.67738 0.1809 0.99648 0.0
H807 H 0.65617 0.05527 0.03028 0.0
C808 C 0.66668 0.07973 0.06553 0.0
C809 C 0.6787 0.11265 0.079 0.0
C810 C 0.67766 0.15271 0.98731 0.0
C811 C 0.67481 0.11632 0.02787 0.0
C812 C 0.67911 0.15152 0.96169 0.0
C813 C 0.67968 0.11519 0.94942 0.0
C814 C 0.67615 0.11734 1.00068 0.0
C815 C 0.67856 0.08071 0.96364 0.0
C816 C 0.66478 0.08142 0.04016 0.0
C817 C 0.68713 0.14752 0.06608 0.0
N818 N 0.6767 0.0827 0.98829 0.0
N819 N 0.6852 0.14841 0.04126 0.0
H820 H 0.85189 0.6898 0.94594 0.0
H821 H 0.97395 0.65735 0.06776 0.0
H822 H 0.96914 0.64121 0.9489 0.0
H823 H 0.85052 0.68669 0.06951 0.0
H824 H 0.97059 0.64977 0.02404 0.0
H825 H 0.84844 0.68688 0.99052 0.0
C826 C 0.8767 0.67801 0.95587 0.0
C827 C 0.91103 0.666 0.94354 0.0
C828 C 0.94403 0.65764 0.03382 0.0
C829 C 0.90726 0.66295 0.99459 0.0
C830 C 0.94595 0.66218 0.05892 0.0
C831 C 0.9125 0.67308 0.07239 0.0
C832 C 0.90849 0.66451 0.02169 0.0
C833 C 0.877 0.67829 0.05982 0.0
C834 C 0.87468 0.67644 0.98135 0.0
C835 C 0.94217 0.65108 0.95747 0.0
N836 N 0.87599 0.67442 0.03506 0.0
N837 N 0.93963 0.65032 0.98214 0.0
H838 H 0.35312 0.85894 0.0734 0.0
H839 H 0.37726 0.98309 0.95032 0.0
H840 H 0.37981 0.98307 0.0722 0.0
H841 H 0.35887 0.85746 0.9524 0.0
H842 H 0.3839 0.98302 0.99469 0.0
H843 H 0.36029 0.85717 0.02917 0.0
C844 C 0.3609 0.88578 0.06392 0.0
C845 C 0.36568 0.92125 0.07672 0.0
C846 C 0.37891 0.9554 0.9854 0.0
C847 C 0.37358 0.91949 0.0257 0.0
C848 C 0.3753 0.95537 0.95999 0.0
C849 C 0.36734 0.92025 0.94744 0.0
C850 C 0.37431 0.92009 0.99849 0.0
C851 C 0.3649 0.88533 0.96115 0.0
C852 C 0.36495 0.88476 0.03857 0.0
C853 C 0.37577 0.95502 0.06323 0.0
N854 N 0.36798 0.88622 0.98583 0.0
N855 N 0.37903 0.95337 0.03852 0.0
H856 H 0.18359 0.68272 0.45255 0.0
H857 H 0.05839 0.65653 0.57453 0.0
H858 H 0.05865 0.70345 0.45892 0.0
H859 H 0.18089 0.68919 0.57781 0.0
H860 H 0.06164 0.65971 0.53038 0.0
H861 H 0.18647 0.674 0.49714 0.0
C862 C 0.15691 0.68556 0.46322 0.0
C863 C 0.12084 0.69374 0.45186 0.0
C864 C 0.08792 0.66595 0.54074 0.0
C865 C 0.12385 0.68299 0.50244 0.0
C866 C 0.08618 0.66391 0.56601 0.0
C867 C 0.11932 0.67297 0.58004 0.0
C868 C 0.12309 0.67688 0.52917 0.0
C869 C 0.15453 0.68218 0.56775 0.0
C870 C 0.15859 0.68055 0.48858 0.0
C871 C 0.08719 0.69714 0.46665 0.0
N872 N 0.15548 0.68409 0.54296 0.0
N873 N 0.08952 0.69145 0.49099 0.0
H874 H 0.37093 0.04201 0.45321 0.0
H875 H 0.36558 0.16954 0.57557 0.0
H876 H 0.35804 0.16838 0.45526 0.0
H877 H 0.37692 0.043 0.57509 0.0
H878 H 0.37198 0.16991 0.53137 0.0
H879 H 0.38199 0.04209 0.49724 0.0
C880 C 0.37106 0.06986 0.46279 0.0
C881 C 0.36326 0.10523 0.45038 0.0
C882 C 0.37359 0.14205 0.54089 0.0
C883 C 0.37558 0.10544 0.501 0.0
C884 C 0.37008 0.14181 0.56623 0.0
C885 C 0.37048 0.10615 0.57921 0.0
C886 C 0.37721 0.10634 0.52817 0.0
C887 C 0.37647 0.07123 0.56595 0.0
C888 C 0.37724 0.06984 0.488 0.0
C889 C 0.36371 0.14033 0.46393 0.0
N890 N 0.3791 0.07216 0.54117 0.0
N891 N 0.36938 0.13947 0.48842 0.0
H892 H 0.9826 0.38392 0.45041 0.0
H893 H 0.85508 0.34712 0.57151 0.0
H894 H 0.86058 0.34959 0.45032 0.0
H895 H 0.97918 0.37304 0.57239 0.0
H896 H 0.85509 0.35567 0.5274 0.0
H897 H 0.98024 0.38794 0.49489 0.0
C898 C 0.95509 0.37788 0.45964 0.0
C899 C 0.92173 0.36635 0.44639 0.0
C900 C 0.88229 0.35985 0.53721 0.0
C901 C 0.91901 0.37048 0.49765 0.0
C902 C 0.88231 0.3551 0.56253 0.0
C903 C 0.91723 0.35923 0.57591 0.0
C904 C 0.91745 0.36876 0.5249 0.0
C905 C 0.95151 0.36953 0.56299 0.0
C906 C 0.95386 0.37996 0.48513 0.0
C907 C 0.88708 0.3586 0.45959 0.0
N908 N 0.9508 0.37366 0.53828 0.0
N909 N 0.88672 0.36057 0.48437 0.0
H910 H 0.67707 0.84382 0.57164 0.0
H911 H 0.6879 0.97552 0.45201 0.0
H912 H 0.65619 0.96918 0.57018 0.0
H913 H 0.66957 0.85 0.44733 0.0
H914 H 0.68173 0.97168 0.49584 0.0
H915 H 0.67764 0.84346 0.52693 0.0
C916 C 0.67203 0.87117 0.562 0.0
C917 C 0.66663 0.90664 0.57485 0.0
C918 C 0.67892 0.94489 0.48533 0.0
C919 C 0.66807 0.9064 0.52365 0.0
C920 C 0.68267 0.94694 0.46013 0.0
C921 C 0.67908 0.91299 0.44567 0.0
C922 C 0.67196 0.90855 0.49662 0.0
C923 C 0.67246 0.87696 0.45764 0.0
C924 C 0.67248 0.87089 0.53646 0.0
C925 C 0.66043 0.94109 0.56124 0.0
N926 N 0.66923 0.87563 0.48245 0.0
N927 N 0.66174 0.94013 0.53652 0.0
H928 H 0.97015 0.37718 0.20713 0.0
H929 H 0.06266 0.33728 0.33661 0.0
H930 H 0.09409 0.3856 0.22182 0.0
H931 H 0.95692 0.28729 0.30618 0.0
H932 H 0.06806 0.37999 0.30054 0.0
H933 H 0.95737 0.37572 0.25101 0.0
C934 C 0.99436 0.38093 0.21967 0.0
C935 C 0.03305 0.38151 0.21127 0.0
C936 C 0.04355 0.35986 0.30214 0.0
C937 C 0.01927 0.37769 0.26066 0.0
C938 C 0.0409 0.33507 0.32234 0.0
C939 C 1.00988 0.3081 0.32412 0.0
C940 C 0.01444 0.35804 0.28414 0.0
C941 C 0.98183 0.30699 0.30547 0.0
C942 C 0.98724 0.37978 0.24459 0.0
C943 C 0.06378 0.38559 0.22792 0.0
N944 N 0.98479 0.33165 0.28634 0.0
N945 N 0.05636 0.3825 0.25202 0.0
H946 H 0.64268 0.06114 0.31839 0.0
H947 H 0.69034 0.97369 0.19027 0.0
H948 H 0.6335 0.93826 0.30022 0.0
H949 H 0.73245 0.08121 0.22291 0.0
H950 H 0.64107 0.9686 0.22298 0.0
H951 H 0.63942 0.07738 0.27508 0.0
C952 C 0.63786 0.03785 0.30528 0.0
C953 C 0.63916 0.99847 0.31237 0.0
C954 C 0.66084 0.99353 0.22258 0.0
C955 C 0.63806 0.01618 0.26353 0.0
C956 C 0.68938 0.99598 0.20435 0.0
C957 C 0.71641 0.02709 0.20443 0.0
C958 C 0.6593 0.02268 0.24067 0.0
C959 C 0.71311 0.05601 0.22251 0.0
C960 C 0.63621 0.04694 0.28064 0.0
C961 C 0.63294 0.96903 0.29506 0.0
N962 N 0.68526 0.05295 0.23992 0.0
N963 N 0.63391 0.97836 0.27115 0.0
H964 H 0.09219 0.65428 0.30753 0.0
H965 H 0.9432 0.69566 0.22312 0.0
H966 H 0.97156 0.64403 0.33062 0.0
H967 H 0.04308 0.63003 0.19659 0.0
H968 H 0.949 0.66321 0.26208 0.0
H969 H 0.07517 0.62604 0.26839 0.0
C970 C 0.0621 0.64533 0.30427 0.0
C971 C 0.03256 0.65317 0.32126 0.0
C972 C 0.96943 0.65524 0.24773 0.0
C973 C 0.01274 0.62237 0.27682 0.0
C974 C 0.96687 0.6748 0.22577 0.0
C975 C 0.99418 0.667 0.20739 0.0
C976 C 1.00074 0.62914 0.25169 0.0
C977 C 0.02283 0.63804 0.21102 0.0
C978 C 0.05248 0.62851 0.28219 0.0
C979 C 0.99449 0.63984 0.31715 0.0
N980 N 0.02621 0.62081 0.23318 0.0
N981 N 0.98517 0.62608 0.29478 0.0
H982 H 0.31556 0.98536 0.33517 0.0
H983 H 0.32714 0.06472 0.20203 0.0
H984 H 0.27658 0.09884 0.30888 0.0
H985 H 0.33655 0.94291 0.22334 0.0
H986 H 0.34306 0.08406 0.24382 0.0
H987 H 0.3531 0.97664 0.29745 0.0
C988 C 0.3147 1.00821 0.32142 0.0
C989 C 0.29151 0.04194 0.32457 0.0
C990 C 0.34277 0.0531 0.23913 0.0
C991 C 0.33515 0.03295 0.28223 0.0
C992 C 0.33343 0.04223 0.21546 0.0
C993 C 0.32803 1.00245 0.21019 0.0
C994 C 0.34586 0.02375 0.25711 0.0
C995 C 0.33809 0.97404 0.2275 0.0
C996 C 0.33671 1.00364 0.30024 0.0
C997 C 0.29268 0.07153 0.30678 0.0
N998 N 0.34565 0.98523 0.25054 0.0
N999 N 0.31377 0.06611 0.28623 0.0
H1000 H 0.0985 0.67224 0.72066 0.0
H1001 H 0.9359 0.67652 0.80453 0.0
H1002 H 0.97588 0.6689 0.70168 0.0
H1003 H 0.05838 0.67071 0.82375 0.0
H1004 H 0.94837 0.63312 0.77034 0.0
H1005 H 0.08523 0.63001 0.7554 0.0
C1006 C 0.06861 0.66271 0.72403 0.0
C1007 C 0.03737 0.677 0.71003 0.0
C1008 C 0.97264 0.64074 0.78213 0.0
C1009 C 0.02192 0.63016 0.7499 0.0
C1010 C 0.96563 0.66629 0.8013 0.0
C1011 C 0.99703 0.67994 0.81534 0.0
C1012 C 0.01165 0.63151 0.77598 0.0
C1013 C 0.03407 0.66303 0.81203 0.0
C1014 C 0.06113 0.63782 0.74349 0.0
C1015 C 1.00009 0.66087 0.71342 0.0
N1016 N 0.04077 0.64056 0.79206 0.0
N1017 N 0.99299 0.63913 0.73364 0.0
H1018 H 0.20506 0.01824 0.70095 0.0
H1019 H 0.32001 0.02255 0.82596 0.0
H1020 H 0.33121 1.01021 0.70631 0.0
H1021 H 0.19921 0.98502 0.82127 0.0
H1022 H 0.3215 0.03047 0.78177 0.0
H1023 H 0.19997 0.01094 0.74507 0.0
C1024 C 0.23153 0.01329 0.71144 0.0
C1025 C 0.26856 0.01466 0.70031 0.0
C1026 C 0.29449 0.02114 0.79051 0.0
C1027 C 0.26322 1.00862 0.75033 0.0
C1028 C 0.29335 0.01759 0.81569 0.0
C1029 C 0.25952 1.00282 0.82697 0.0
C1030 C 0.26144 1.01026 0.7769 0.0
C1031 C 0.22586 0.99626 0.81299 0.0
C1032 C 0.2287 1.00987 0.73653 0.0
C1033 C 0.30217 1.00884 0.71441 0.0
N1034 N 0.22778 0.99952 0.7885 0.0
N1035 N 0.29878 1.0069 0.73894 0.0
H1036 H 0.92395 0.29882 0.71803 0.0
H1037 H 0.0815 0.36485 0.8103 0.0
H1038 H 0.04516 0.32082 0.69899 0.0
H1039 H 0.95982 0.34468 0.82796 0.0
H1040 H 0.06422 0.37248 0.76765 0.0
H1041 H 0.93218 0.33606 0.755 0.0
C1042 C 0.9526 0.31113 0.7218 0.0
C1043 C 0.98457 0.30517 0.70601 0.0
C1044 C 0.04096 0.36799 0.78086 0.0
C1045 C 0.99412 0.34808 0.74856 0.0
C1046 C 0.05076 0.36418 0.80523 0.0
C1047 C 0.02182 0.35446 0.82232 0.0
C1048 C 1.00224 0.36031 0.77371 0.0
C1049 C 0.98273 0.35227 0.81506 0.0
C1050 C 0.95706 0.33303 0.74279 0.0
C1051 C 0.02028 0.32357 0.71121 0.0
N1052 N 0.97408 0.35431 0.79105 0.0
N1053 N 0.02443 0.34351 0.73245 0.0
H1054 H 0.63815 0.96676 0.82543 0.0
H1055 H 0.67398 0.0384 0.69172 0.0
H1056 H 0.631 0.08736 0.80169 0.0
H1057 H 0.71262 0.92943 0.72449 0.0
H1058 H 0.63011 0.04908 0.72665 0.0
H1059 H 0.63176 0.94543 0.7831 0.0
C1060 C 0.63313 0.98855 0.81136 0.0
C1061 C 0.63552 0.02863 0.81658 0.0
C1062 C 0.64786 0.0226 0.72588 0.0
C1063 C 0.63045 1.00508 0.76871 0.0
C1064 C 0.67335 0.01689 0.70627 0.0
C1065 C 0.69818 0.98392 0.7058 0.0
C1066 C 0.64723 0.99497 0.74489 0.0
C1067 C 0.69519 0.95612 0.72458 0.0
C1068 C 0.62976 0.97654 0.78726 0.0
C1069 C 0.62927 0.05609 0.79805 0.0
N1070 N 0.67049 0.96249 0.74346 0.0
N1071 N 0.62809 0.04384 0.77466 0.0
H1072 H 0.09374 0.44642 0.20204 0.0
H1073 H 0.92417 0.5491 0.12885 0.0
H1074 H 0.10365 0.48621 0.12807 0.0
H1075 H 0.94613 0.60212 0.19845 0.0
H1076 H 0.98012 0.50531 0.13496 0.0
H1077 H 0.03525 0.48946 0.20735 0.0
C1078 C 0.08455 0.46495 0.1872 0.0
C1079 C 0.10314 0.46131 0.16433 0.0
C1080 C 0.97227 0.52586 0.14926 0.0
C1081 C 0.03597 0.51023 0.17003 0.0
C1082 C 0.93953 0.55032 0.14608 0.0
C1083 C 0.93058 0.5803 0.16288 0.0
C1084 C 0.99637 0.53029 0.16974 0.0
C1085 C 0.95233 0.58021 0.18472 0.0
C1086 C 0.05091 0.48934 0.19016 0.0
C1087 C 0.09028 0.48731 0.14598 0.0
N1088 N 0.98481 0.55636 0.18734 0.0
N1089 N 0.05712 0.50934 0.14895 0.0
H1090 H 0.60931 0.06377 0.2054 0.0
H1091 H 0.45783 0.93586 0.12706 0.0
H1092 H 0.59399 0.07808 0.12828 0.0
H1093 H 0.43619 0.9596 0.20282 0.0
H1094 H 0.51632 0.97802 0.12873 0.0
H1095 H 0.55168 0.02001 0.20643 0.0
C1096 C 0.59279 0.05913 0.18887 0.0
C1097 C 0.60583 0.07602 0.16689 0.0
C1098 C 0.49943 0.97316 0.1452 0.0
C1099 C 0.54132 0.02332 0.16754 0.0
C1100 C 0.46659 0.94808 0.14442 0.0
C1101 C 0.44256 0.94281 0.16503 0.0
C1102 C 0.50884 0.99318 0.16683 0.0
C1103 C 0.45446 0.96155 0.18668 0.0
C1104 C 0.56031 0.03347 0.18936 0.0
C1105 C 0.58425 0.06713 0.1458 0.0
N1106 N 0.48649 0.98585 0.18701 0.0
N1107 N 0.55366 0.04111 0.14658 0.0
H1108 H 0.10373 0.59075 0.33163 0.0
H1109 H 0.94373 0.44793 0.39216 0.0
H1110 H 0.09614 0.56467 0.40814 0.0
H1111 H 0.98956 0.41944 0.32124 0.0
H1112 H 0.98939 0.50358 0.39422 0.0
H1113 H 0.05635 0.53689 0.3237 0.0
C1114 C 0.09321 0.57306 0.34664 0.0
C1115 C 0.10404 0.58266 0.37062 0.0
C1116 C 0.98883 0.48578 0.37789 0.0
C1117 C 0.0485 0.52216 0.36186 0.0
C1118 C 0.96196 0.45449 0.37647 0.0
C1119 C 0.96206 0.42914 0.35629 0.0
C1120 C 0.01604 0.4924 0.35892 0.0
C1121 C 0.98796 0.43848 0.33698 0.0
C1122 C 0.06569 0.54266 0.34216 0.0
C1123 C 0.08891 0.55858 0.38934 0.0
N1124 N 0.01396 0.46906 0.33877 0.0
N1125 N 0.06162 0.53036 0.38466 0.0
H1126 H 0.57702 0.93116 0.32611 0.0
H1127 H 0.43833 0.08404 0.39492 0.0
H1128 H 0.54628 0.92168 0.40187 0.0
H1129 H 0.40335 0.04659 0.32345 0.0
H1130 H 0.49169 0.03525 0.39398 0.0
H1131 H 0.52317 0.97961 0.32087 0.0
C1132 C 0.55813 0.9379 0.34139 0.0
C1133 C 0.56653 0.92196 0.36447 0.0
C1134 C 0.47299 0.03841 0.37819 0.0
C1135 C 0.50619 0.97917 0.35896 0.0
C1136 C 0.44303 0.06703 0.37849 0.0
C1137 C 0.41666 0.07041 0.35899 0.0
C1138 C 0.47737 0.01299 0.3581 0.0
C1139 C 0.42341 0.04576 0.33867 0.0
C1140 C 0.52778 0.96618 0.3385 0.0
C1141 C 0.54102 0.93273 0.38367 0.0
N1142 N 0.45291 0.01819 0.33873 0.0
N1143 N 0.51305 0.96109 0.38066 0.0
H1144 H 0.09821 0.45904 0.90616 0.0
H1145 H 0.95892 0.58451 0.8201 0.0
H1146 H 0.08643 0.42469 0.83126 0.0
H1147 H 0.94003 0.5701 0.89697 0.0
H1148 H 1.00757 0.53085 0.82106 0.0
H1149 H 0.04781 0.5092 0.9003 0.0
C1150 C 0.08611 0.46302 0.8881 0.0
C1151 C 0.09673 0.43706 0.86922 0.0
C1152 C 0.99189 0.53856 0.83757 0.0
C1153 C 0.03708 0.49428 0.86255 0.0
C1154 C 0.96335 0.56869 0.83695 0.0
C1155 C 0.94431 0.58154 0.85838 0.0
C1156 C 1.0024 0.52165 0.85996 0.0
C1157 C 0.9528 0.56069 0.87984 0.0
C1158 C 0.05646 0.49113 0.88496 0.0
C1159 C 0.07923 0.44363 0.84637 0.0
N1160 N 0.98167 0.53268 0.88019 0.0
N1161 N 0.05 0.47126 0.8437 0.0
H1162 H 0.57887 0.10477 0.8288 0.0
H1163 H 0.44352 0.94351 0.89022 0.0
H1164 H 0.54553 0.10807 0.90436 0.0
H1165 H 0.4025 0.99267 0.82266 0.0
H1166 H 0.49622 0.99283 0.89085 0.0
H1167 H 0.52528 0.05701 0.82138 0.0
C1168 C 0.55943 0.09684 0.84359 0.0
C1169 C 0.56705 0.1106 0.86727 0.0
C1170 C 0.4763 0.99212 0.87553 0.0
C1171 C 0.50715 0.05441 0.85924 0.0
C1172 C 0.44666 0.96338 0.87491 0.0
C1173 C 0.41885 0.96319 0.8561 0.0
C1174 C 0.47887 0.0207 0.85702 0.0
C1175 C 0.42371 0.99114 0.83727 0.0
C1176 C 0.52927 0.069 0.83945 0.0
C1177 C 0.5409 0.09855 0.88578 0.0
N1178 N 0.45297 0.01871 0.83818 0.0
N1179 N 0.51315 0.07059 0.88156 0.0
H1180 H 0.93825 0.44314 0.62832 0.0
H1181 H 0.08453 0.58217 0.70321 0.0
H1182 H 0.97025 0.41552 0.70205 0.0
H1183 H 0.08678 0.57299 0.6252 0.0
H1184 H 0.03953 0.52564 0.70497 0.0
H1185 H 0.98497 0.49826 0.62883 0.0
C1186 C 0.95351 0.44987 0.64507 0.0
C1187 C 0.94896 0.42523 0.66546 0.0
C1188 C 0.05072 0.53523 0.68748 0.0
C1189 C 1.00448 0.48763 0.66583 0.0
C1190 C 0.07731 0.56701 0.6865 0.0
C1191 C 0.09107 0.58177 0.66407 0.0
C1192 C 0.03645 0.51855 0.66579 0.0
C1193 C 0.07847 0.56191 0.64297 0.0
C1194 C 0.98111 0.48077 0.64514 0.0
C1195 C 0.9716 0.43439 0.68618 0.0
N1196 N 0.05155 0.5321 0.64431 0.0
N1197 N 0.99818 0.4646 0.68584 0.0
H1198 H 0.57201 0.93199 0.62604 0.0
H1199 H 0.41691 0.05125 0.70635 0.0
H1200 H 0.5945 0.9514 0.70207 0.0
H1201 H 0.44277 0.08196 0.63202 0.0
H1202 H 0.47448 1.00712 0.70649 0.0
H1203 H 0.51439 0.97555 0.62891 0.0
C1204 C 0.56362 0.94366 0.64366 0.0
C1205 C 0.58748 0.93664 0.66404 0.0
C1206 C 0.46805 0.02416 0.69032 0.0
C1207 C 0.52219 0.98825 0.66726 0.0
C1208 C 0.4356 0.04994 0.69036 0.0
C1209 C 0.42561 0.07162 0.66942 0.0
C1210 C 0.48988 0.0185 0.66883 0.0
C1211 C 0.44994 0.06702 0.64884 0.0
C1212 C 0.5313 0.96944 0.64514 0.0
C1213 C 0.57623 0.9547 0.6861 0.0
N1214 N 0.48034 0.0406 0.64892 0.0
N1215 N 0.54452 0.97951 0.68715 0.0
loop_
_geom_bond_atom_site_label_1
_geom_bond_atom_site_label_2
_geom_bond_distance
_geom_bond_site_symmetry_2
_ccdc_geom_bond_type
Fe0 O2 1.918 . S
Fe0 O5 1.997 . S
Fe0 O6 2.002 . S
Fe0 O11 1.976 . S
Fe0 O14 1.996 . S
Fe1 O2 1.918 . S
Fe1 O9 1.997 . S
Fe1 O12 1.996 . S
Fe1 O16 1.976 . S
Fe1 O19 2.002 . S
O2 Fe0 1.918 . S
O2 Fe1 1.918 . S
O2 Fe3 1.918 . S
Fe3 O2 1.918 . S
Fe3 O4 2.002 . S
Fe3 O13 1.976 . S
Fe3 O17 1.996 . S
Fe3 O20 1.997 . S
O4 Fe3 2.002 . S
O4 C21 1.295 . S
O5 Fe0 1.997 . S
O5 C21 1.235 . S
O6 Fe0 2.002 . S
O6 C7 1.295 . S
C7 O6 1.295 . S
C7 O9 1.235 . S
C8 O13 1.287 . S
C8 O14 1.255 . S
O9 Fe1 1.997 . S
O9 C7 1.235 . S
C10 O16 1.287 . S
C10 O17 1.255 . S
O11 Fe0 1.976 . S
O11 C18 1.287 . S
O12 Fe1 1.996 . S
O12 C18 1.255 . S
O13 Fe3 1.976 . S
O13 C8 1.287 . S
O14 Fe0 1.996 . S
O14 C8 1.255 . S
C15 O19 1.295 . S
C15 O20 1.235 . S
O16 Fe1 1.976 . S
O16 C10 1.287 . S
O17 Fe3 1.996 . S
O17 C10 1.255 . S
C18 O11 1.287 . S
C18 O12 1.255 . S
O19 Fe1 2.002 . S
O19 C15 1.295 . S
O20 Fe3 1.997 . S
O20 C15 1.235 . S
C21 O4 1.295 . S
C21 O5 1.235 . S
Fe22 O24 1.918 . S
Fe22 O27 1.997 . S
Fe22 O28 2.002 . S
Fe22 O33 1.976 . S
Fe22 O36 1.996 . S
Fe23 O24 1.918 . S
Fe23 O31 1.997 . S
Fe23 O34 1.996 . S
Fe23 O38 1.976 . S
Fe23 O41 2.002 . S
O24 Fe22 1.918 . S
O24 Fe23 1.918 . S
O24 Fe25 1.918 . S
Fe25 O24 1.918 . S
Fe25 O26 2.002 . S
Fe25 O35 1.976 . S
Fe25 O39 1.996 . S
Fe25 O42 1.997 . S
O26 Fe25 2.002 . S
O26 C43 1.295 . S
O27 Fe22 1.997 . S
O27 C43 1.235 . S
O28 Fe22 2.002 . S
O28 C29 1.295 . S
C29 O28 1.295 . S
C29 O31 1.235 . S
C30 O35 1.287 . S
C30 O36 1.255 . S
O31 Fe23 1.997 . S
O31 C29 1.235 . S
C32 O38 1.287 . S
C32 O39 1.255 . S
O33 Fe22 1.976 . S
O33 C40 1.287 . S
O34 Fe23 1.996 . S
O34 C40 1.255 . S
O35 Fe25 1.976 . S
O35 C30 1.287 . S
O36 Fe22 1.996 . S
O36 C30 1.255 . S
C37 O41 1.295 . S
C37 O42 1.235 . S
O38 Fe23 1.976 . S
O38 C32 1.287 . S
O39 Fe25 1.996 . S
O39 C32 1.255 . S
C40 O33 1.287 . S
C40 O34 1.255 . S
O41 Fe23 2.002 . S
O41 C37 1.295 . S
O42 Fe25 1.997 . S
O42 C37 1.235 . S
C43 O26 1.295 . S
C43 O27 1.235 . S
Fe44 O46 1.918 . S
Fe44 O49 1.997 . S
Fe44 O50 2.002 . S
Fe44 O55 1.976 . S
Fe44 O58 1.996 . S
Fe45 O46 1.918 . S
Fe45 O53 1.997 . S
Fe45 O56 1.996 . S
Fe45 O60 1.976 . S
Fe45 O63 2.002 . S
O46 Fe44 1.918 . S
O46 Fe45 1.918 . S
O46 Fe47 1.918 . S
Fe47 O46 1.918 . S
Fe47 O48 2.002 . S
Fe47 O57 1.976 . S
Fe47 O61 1.996 . S
Fe47 O64 1.997 . S
O48 Fe47 2.002 . S
O48 C65 1.295 . S
O49 Fe44 1.997 . S
O49 C65 1.235 . S
O50 Fe44 2.002 . S
O50 C51 1.295 . S
C51 O50 1.295 . S
C51 O53 1.235 . S
C52 O57 1.287 . S
C52 O58 1.255 . S
O53 Fe45 1.997 . S
O53 C51 1.235 . S
C54 O60 1.287 . S
C54 O61 1.255 . S
O55 Fe44 1.976 . S
O55 C62 1.287 . S
O56 Fe45 1.996 . S
O56 C62 1.255 . S
O57 Fe47 1.976 . S
O57 C52 1.287 . S
O58 Fe44 1.996 . S
O58 C52 1.255 . S
C59 O63 1.295 . S
C59 O64 1.235 . S
O60 Fe45 1.976 . S
O60 C54 1.287 . S
O61 Fe47 1.996 . S
O61 C54 1.255 . S
C62 O55 1.287 . S
C62 O56 1.255 . S
O63 Fe45 2.002 . S
O63 C59 1.295 . S
O64 Fe47 1.997 . S
O64 C59 1.235 . S
C65 O48 1.295 . S
C65 O49 1.235 . S
Fe66 O68 1.918 . S
Fe66 O71 1.997 . S
Fe66 O72 2.002 . S
Fe66 O77 1.976 . S
Fe66 O80 1.996 . S
Fe67 O68 1.918 . S
Fe67 O75 1.997 . S
Fe67 O78 1.996 . S
Fe67 O82 1.976 . S
Fe67 O85 2.002 . S
O68 Fe66 1.918 . S
O68 Fe67 1.918 . S
O68 Fe69 1.918 . S
Fe69 O68 1.918 . S
Fe69 O70 2.002 . S
Fe69 O79 1.976 . S
Fe69 O83 1.996 . S
Fe69 O86 1.997 . S
O70 Fe69 2.002 . S
O70 C87 1.295 . S
O71 Fe66 1.997 . S
O71 C87 1.235 . S
O72 Fe66 2.002 . S
O72 C73 1.295 . S
C73 O72 1.295 . S
C73 O75 1.235 . S
C74 O79 1.287 . S
C74 O80 1.255 . S
O75 Fe67 1.997 . S
O75 C73 1.235 . S
C76 O82 1.287 . S
C76 O83 1.255 . S
O77 Fe66 1.976 . S
O77 C84 1.287 . S
O78 Fe67 1.996 . S
O78 C84 1.255 . S
O79 Fe69 1.976 . S
O79 C74 1.287 . S
O80 Fe66 1.996 . S
O80 C74 1.255 . S
C81 O85 1.295 . S
C81 O86 1.235 . S
O82 Fe67 1.976 . S
O82 C76 1.287 . S
O83 Fe69 1.996 . S
O83 C76 1.255 . S
C84 O77 1.287 . S
C84 O78 1.255 . S
O85 Fe67 2.002 . S
O85 C81 1.295 . S
O86 Fe69 1.997 . S
O86 C81 1.235 . S
C87 O70 1.295 . S
C87 O71 1.235 . S
Fe88 O90 1.918 . S
Fe88 O93 1.997 . S
Fe88 O94 2.002 . S
Fe88 O99 1.976 . S
Fe88 O102 1.996 . S
Fe89 O90 1.918 . S
Fe89 O97 1.997 . S
Fe89 O100 1.996 . S
Fe89 O104 1.976 . S
Fe89 O107 2.002 . S
O90 Fe88 1.918 . S
O90 Fe89 1.918 . S
O90 Fe91 1.918 . S
Fe91 O90 1.918 . S
Fe91 O92 2.002 . S
Fe91 O101 1.976 . S
Fe91 O105 1.996 . S
Fe91 O108 1.997 . S
O92 Fe91 2.002 . S
O92 C109 1.295 . S
O93 Fe88 1.997 . S
O93 C109 1.235 . S
O94 Fe88 2.002 . S
O94 C95 1.295 . S
C95 O94 1.295 . S
C95 O97 1.235 . S
C96 O101 1.287 . S
C96 O102 1.255 . S
O97 Fe89 1.997 . S
O97 C95 1.235 . S
C98 O104 1.287 . S
C98 O105 1.255 . S
O99 Fe88 1.976 . S
O99 C106 1.287 . S
O100 Fe89 1.996 . S
O100 C106 1.255 . S
O101 Fe91 1.976 . S
O101 C96 1.287 . S
O102 Fe88 1.996 . S
O102 C96 1.255 . S
C103 O107 1.295 . S
C103 O108 1.235 . S
O104 Fe89 1.976 . S
O104 C98 1.287 . S
O105 Fe91 1.996 . S
O105 C98 1.255 . S
C106 O99 1.287 . S
C106 O100 1.255 . S
O107 Fe89 2.002 . S
O107 C103 1.295 . S
O108 Fe91 1.997 . S
O108 C103 1.235 . S
C109 O92 1.295 . S
C109 O93 1.235 . S
Fe110 O112 1.918 . S
Fe110 O115 1.997 . S
Fe110 O116 2.002 . S
Fe110 O121 1.976 . S
Fe110 O124 1.996 . S
Fe111 O112 1.918 . S
Fe111 O119 1.997 . S
Fe111 O122 1.996 . S
Fe111 O126 1.976 . S
Fe111 O129 2.002 . S
O112 Fe110 1.918 . S
O112 Fe111 1.918 . S
O112 Fe113 1.918 . S
Fe113 O112 1.918 . S
Fe113 O114 2.002 . S
Fe113 O123 1.976 . S
Fe113 O127 1.996 . S
Fe113 O130 1.997 . S
O114 Fe113 2.002 . S
O114 C131 1.295 . S
O115 Fe110 1.997 . S
O115 C131 1.235 . S
O116 Fe110 2.002 . S
O116 C117 1.295 . S
C117 O116 1.295 . S
C117 O119 1.235 . S
C118 O123 1.287 . S
C118 O124 1.255 . S
O119 Fe111 1.997 . S
O119 C117 1.235 . S
C120 O126 1.287 . S
C120 O127 1.255 . S
O121 Fe110 1.976 . S
O121 C128 1.287 . S
O122 Fe111 1.996 . S
O122 C128 1.255 . S
O123 Fe113 1.976 . S
O123 C118 1.287 . S
O124 Fe110 1.996 . S
O124 C118 1.255 . S
C125 O129 1.295 . S
C125 O130 1.235 . S
O126 Fe111 1.976 . S
O126 C120 1.287 . S
O127 Fe113 1.996 . S
O127 C120 1.255 . S
C128 O121 1.287 . S
C128 O122 1.255 . S
O129 Fe111 2.002 . S
O129 C125 1.295 . S
O130 Fe113 1.997 . S
O130 C125 1.235 . S
C131 O114 1.295 . S
C131 O115 1.235 . S
Fe132 O134 1.918 . S
Fe132 O137 1.997 . S
Fe132 O138 2.002 . S
Fe132 O143 1.976 . S
Fe132 O146 1.996 . S
Fe133 O134 1.918 . S
Fe133 O141 1.997 . S
Fe133 O144 1.996 . S
Fe133 O148 1.976 . S
Fe133 O151 2.002 . S
O134 Fe132 1.918 . S
O134 Fe133 1.918 . S
O134 Fe135 1.918 . S
Fe135 O134 1.918 . S
Fe135 O136 2.002 . S
Fe135 O145 1.976 . S
Fe135 O149 1.996 . S
Fe135 O152 1.997 . S
O136 Fe135 2.002 . S
O136 C153 1.295 . S
O137 Fe132 1.997 . S
O137 C153 1.235 . S
O138 Fe132 2.002 . S
O138 C139 1.295 . S
C139 O138 1.295 . S
C139 O141 1.235 . S
C140 O145 1.287 . S
C140 O146 1.255 . S
O141 Fe133 1.997 . S
O141 C139 1.235 . S
C142 O148 1.287 . S
C142 O149 1.255 . S
O143 Fe132 1.976 . S
O143 C150 1.287 . S
O144 Fe133 1.996 . S
O144 C150 1.255 . S
O145 Fe135 1.976 . S
O145 C140 1.287 . S
O146 Fe132 1.996 . S
O146 C140 1.255 . S
C147 O151 1.295 . S
C147 O152 1.235 . S
O148 Fe133 1.976 . S
O148 C142 1.287 . S
O149 Fe135 1.996 . S
O149 C142 1.255 . S
C150 O143 1.287 . S
C150 O144 1.255 . S
O151 Fe133 2.002 . S
O151 C147 1.295 . S
O152 Fe135 1.997 . S
O152 C147 1.235 . S
C153 O136 1.295 . S
C153 O137 1.235 . S
Fe154 O156 1.918 . S
Fe154 O159 1.997 . S
Fe154 O160 2.002 . S
Fe154 O165 1.976 . S
Fe154 O168 1.996 . S
Fe155 O156 1.918 . S
Fe155 O163 1.997 . S
Fe155 O166 1.996 . S
Fe155 O170 1.976 . S
Fe155 O173 2.002 . S
O156 Fe154 1.918 . S
O156 Fe155 1.918 . S
O156 Fe157 1.918 . S
Fe157 O156 1.918 . S
Fe157 O158 2.002 . S
Fe157 O167 1.976 . S
Fe157 O171 1.996 . S
Fe157 O174 1.997 . S
O158 Fe157 2.002 . S
O158 C175 1.295 . S
O159 Fe154 1.997 . S
O159 C175 1.235 . S
O160 Fe154 2.002 . S
O160 C161 1.295 . S
C161 O160 1.295 . S
C161 O163 1.235 . S
C162 O167 1.287 . S
C162 O168 1.255 . S
O163 Fe155 1.997 . S
O163 C161 1.235 . S
C164 O170 1.287 . S
C164 O171 1.255 . S
O165 Fe154 1.976 . S
O165 C172 1.287 . S
O166 Fe155 1.996 . S
O166 C172 1.255 . S
O167 Fe157 1.976 . S
O167 C162 1.287 . S
O168 Fe154 1.996 . S
O168 C162 1.255 . S
C169 O173 1.295 . S
C169 O174 1.235 . S
O170 Fe155 1.976 . S
O170 C164 1.287 . S
O171 Fe157 1.996 . S
O171 C164 1.255 . S
C172 O165 1.287 . S
C172 O166 1.255 . S
O173 Fe155 2.002 . S
O173 C169 1.295 . S
O174 Fe157 1.997 . S
O174 C169 1.235 . S
C175 O158 1.295 . S
C175 O159 1.235 . S
Fe176 O178 1.918 . S
Fe176 O181 1.997 . S
Fe176 O182 2.002 . S
Fe176 O187 1.976 . S
Fe176 O190 1.996 . S
Fe177 O178 1.918 . S
Fe177 O185 1.997 . S
Fe177 O188 1.996 . S
Fe177 O192 1.976 . S
Fe177 O195 2.002 . S
O178 Fe176 1.918 . S
O178 Fe177 1.918 . S
O178 Fe179 1.918 . S
Fe179 O178 1.918 . S
Fe179 O180 2.002 . S
Fe179 O189 1.976 . S
Fe179 O193 1.996 . S
Fe179 O196 1.997 . S
O180 Fe179 2.002 . S
O180 C197 1.295 . S
O181 Fe176 1.997 . S
O181 C197 1.235 . S
O182 Fe176 2.002 . S
O182 C183 1.295 . S
C183 O182 1.295 . S
C183 O185 1.235 . S
C184 O189 1.287 . S
C184 O190 1.255 . S
O185 Fe177 1.997 . S
O185 C183 1.235 . S
C186 O192 1.287 . S
C186 O193 1.255 . S
O187 Fe176 1.976 . S
O187 C194 1.287 . S
O188 Fe177 1.996 . S
O188 C194 1.255 . S
O189 Fe179 1.976 . S
O189 C184 1.287 . S
O190 Fe176 1.996 . S
O190 C184 1.255 . S
C191 O195 1.295 . S
C191 O196 1.235 . S
O192 Fe177 1.976 . S
O192 C186 1.287 . S
O193 Fe179 1.996 . S
O193 C186 1.255 . S
C194 O187 1.287 . S
C194 O188 1.255 . S
O195 Fe177 2.002 . S
O195 C191 1.295 . S
O196 Fe179 1.997 . S
O196 C191 1.235 . S
C197 O180 1.295 . S
C197 O181 1.235 . S
Fe198 O200 1.918 . S
Fe198 O203 1.997 . S
Fe198 O204 2.002 . S
Fe198 O209 1.976 . S
Fe198 O212 1.996 . S
Fe199 O200 1.918 . S
Fe199 O207 1.997 . S
Fe199 O210 1.996 . S
Fe199 O214 1.976 . S
Fe199 O217 2.002 . S
O200 Fe198 1.918 . S
O200 Fe199 1.918 . S
O200 Fe201 1.918 . S
Fe201 O200 1.918 . S
Fe201 O202 2.002 . S
Fe201 O211 1.976 . S
Fe201 O215 1.996 . S
Fe201 O218 1.997 . S
O202 Fe201 2.002 . S
O202 C219 1.295 . S
O203 Fe198 1.997 . S
O203 C219 1.235 . S
O204 Fe198 2.002 . S
O204 C205 1.295 . S
C205 O204 1.295 . S
C205 O207 1.235 . S
C206 O211 1.287 . S
C206 O212 1.255 . S
O207 Fe199 1.997 . S
O207 C205 1.235 . S
C208 O214 1.287 . S
C208 O215 1.255 . S
O209 Fe198 1.976 . S
O209 C216 1.287 . S
O210 Fe199 1.996 . S
O210 C216 1.255 . S
O211 Fe201 1.976 . S
O211 C206 1.287 . S
O212 Fe198 1.996 . S
O212 C206 1.255 . S
C213 O217 1.295 . S
C213 O218 1.235 . S
O214 Fe199 1.976 . S
O214 C208 1.287 . S
O215 Fe201 1.996 . S
O215 C208 1.255 . S
C216 O209 1.287 . S
C216 O210 1.255 . S
O217 Fe199 2.002 . S
O217 C213 1.295 . S
O218 Fe201 1.997 . S
O218 C213 1.235 . S
C219 O202 1.295 . S
C219 O203 1.235 . S
Fe220 O222 1.918 . S
Fe220 O225 1.997 . S
Fe220 O226 2.002 . S
Fe220 O231 1.976 . S
Fe220 O234 1.996 . S
Fe221 O222 1.918 . S
Fe221 O229 1.997 . S
Fe221 O232 1.996 . S
Fe221 O236 1.976 . S
Fe221 O239 2.002 . S
O222 Fe220 1.918 . S
O222 Fe221 1.918 . S
O222 Fe223 1.918 . S
Fe223 O222 1.918 . S
Fe223 O224 2.002 . S
Fe223 O233 1.976 . S
Fe223 O237 1.996 . S
Fe223 O240 1.997 . S
O224 Fe223 2.002 . S
O224 C241 1.295 . S
O225 Fe220 1.997 . S
O225 C241 1.235 . S
O226 Fe220 2.002 . S
O226 C227 1.295 . S
C227 O226 1.295 . S
C227 O229 1.235 . S
C228 O233 1.287 . S
C228 O234 1.255 . S
O229 Fe221 1.997 . S
O229 C227 1.235 . S
C230 O236 1.287 . S
C230 O237 1.255 . S
O231 Fe220 1.976 . S
O231 C238 1.287 . S
O232 Fe221 1.996 . S
O232 C238 1.255 . S
O233 Fe223 1.976 . S
O233 C228 1.287 . S
O234 Fe220 1.996 . S
O234 C228 1.255 . S
C235 O239 1.295 . S
C235 O240 1.235 . S
O236 Fe221 1.976 . S
O236 C230 1.287 . S
O237 Fe223 1.996 . S
O237 C230 1.255 . S
C238 O231 1.287 . S
C238 O232 1.255 . S
O239 Fe221 2.002 . S
O239 C235 1.295 . S
O240 Fe223 1.997 . S
O240 C235 1.235 . S
C241 O224 1.295 . S
C241 O225 1.235 . S
Fe242 O244 1.918 . S
Fe242 O247 1.997 . S
Fe242 O248 2.002 . S
Fe242 O253 1.976 . S
Fe242 O256 1.996 . S
Fe243 O244 1.918 . S
Fe243 O251 1.997 . S
Fe243 O254 1.996 . S
Fe243 O258 1.976 . S
Fe243 O261 2.002 . S
O244 Fe242 1.918 . S
O244 Fe243 1.918 . S
O244 Fe245 1.918 . S
Fe245 O244 1.918 . S
Fe245 O246 2.002 . S
Fe245 O255 1.976 . S
Fe245 O259 1.996 . S
Fe245 O262 1.997 . S
O246 Fe245 2.002 . S
O246 C263 1.295 . S
O247 Fe242 1.997 . S
O247 C263 1.235 . S
O248 Fe242 2.002 . S
O248 C249 1.295 . S
C249 O248 1.295 . S
C249 O251 1.235 . S
C250 O255 1.287 . S
C250 O256 1.255 . S
O251 Fe243 1.997 . S
O251 C249 1.235 . S
C252 O258 1.287 . S
C252 O259 1.255 . S
O253 Fe242 1.976 . S
O253 C260 1.287 . S
O254 Fe243 1.996 . S
O254 C260 1.255 . S
O255 Fe245 1.976 . S
O255 C250 1.287 . S
O256 Fe242 1.996 . S
O256 C250 1.255 . S
C257 O261 1.295 . S
C257 O262 1.235 . S
O258 Fe243 1.976 . S
O258 C252 1.287 . S
O259 Fe245 1.996 . S
O259 C252 1.255 . S
C260 O253 1.287 . S
C260 O254 1.255 . S
O261 Fe243 2.002 . S
O261 C257 1.295 . S
O262 Fe245 1.997 . S
O262 C257 1.235 . S
C263 O246 1.295 . S
C263 O247 1.235 . S
Fe264 O266 1.918 . S
Fe264 O269 1.997 . S
Fe264 O270 2.002 . S
Fe264 O275 1.976 . S
Fe264 O278 1.996 . S
Fe265 O266 1.918 . S
Fe265 O273 1.997 . S
Fe265 O276 1.996 . S
Fe265 O280 1.976 . S
Fe265 O283 2.002 . S
O266 Fe264 1.918 . S
O266 Fe265 1.918 . S
O266 Fe267 1.918 . S
Fe267 O266 1.918 . S
Fe267 O268 2.002 . S
Fe267 O277 1.976 . S
Fe267 O281 1.996 . S
Fe267 O284 1.997 . S
O268 Fe267 2.002 . S
O268 C285 1.295 . S
O269 Fe264 1.997 . S
O269 C285 1.235 . S
O270 Fe264 2.002 . S
O270 C271 1.295 . S
C271 O270 1.295 . S
C271 O273 1.235 . S
C272 O277 1.287 . S
C272 O278 1.255 . S
O273 Fe265 1.997 . S
O273 C271 1.235 . S
C274 O280 1.287 . S
C274 O281 1.255 . S
O275 Fe264 1.976 . S
O275 C282 1.287 . S
O276 Fe265 1.996 . S
O276 C282 1.255 . S
O277 Fe267 1.976 . S
O277 C272 1.287 . S
O278 Fe264 1.996 . S
O278 C272 1.255 . S
C279 O283 1.295 . S
C279 O284 1.235 . S
O280 Fe265 1.976 . S
O280 C274 1.287 . S
O281 Fe267 1.996 . S
O281 C274 1.255 . S
C282 O275 1.287 . S
C282 O276 1.255 . S
O283 Fe265 2.002 . S
O283 C279 1.295 . S
O284 Fe267 1.997 . S
O284 C279 1.235 . S
C285 O268 1.295 . S
C285 O269 1.235 . S
Fe286 O288 1.918 . S
Fe286 O291 1.997 . S
Fe286 O292 2.002 . S
Fe286 O297 1.976 . S
Fe286 O300 1.996 . S
Fe287 O288 1.918 . S
Fe287 O295 1.997 . S
Fe287 O298 1.996 . S
Fe287 O302 1.976 . S
Fe287 O305 2.002 . S
O288 Fe286 1.918 . S
O288 Fe287 1.918 . S
O288 Fe289 1.918 . S
Fe289 O288 1.918 . S
Fe289 O290 2.002 . S
Fe289 O299 1.976 . S
Fe289 O303 1.996 . S
Fe289 O306 1.997 . S
O290 Fe289 2.002 . S
O290 C307 1.295 . S
O291 Fe286 1.997 . S
O291 C307 1.235 . S
O292 Fe286 2.002 . S
O292 C293 1.295 . S
C293 O292 1.295 . S
C293 O295 1.235 . S
C294 O299 1.287 . S
C294 O300 1.255 . S
O295 Fe287 1.997 . S
O295 C293 1.235 . S
C296 O302 1.287 . S
C296 O303 1.255 . S
O297 Fe286 1.976 . S
O297 C304 1.287 . S
O298 Fe287 1.996 . S
O298 C304 1.255 . S
O299 Fe289 1.976 . S
O299 C294 1.287 . S
O300 Fe286 1.996 . S
O300 C294 1.255 . S
C301 O305 1.295 . S
C301 O306 1.235 . S
O302 Fe287 1.976 . S
O302 C296 1.287 . S
O303 Fe289 1.996 . S
O303 C296 1.255 . S
C304 O297 1.287 . S
C304 O298 1.255 . S
O305 Fe287 2.002 . S
O305 C301 1.295 . S
O306 Fe289 1.997 . S
O306 C301 1.235 . S
C307 O290 1.295 . S
C307 O291 1.235 . S
Fe308 O310 1.918 . S
Fe308 O313 1.997 . S
Fe308 O314 2.002 . S
Fe308 O319 1.976 . S
Fe308 O322 1.996 . S
Fe309 O310 1.918 . S
Fe309 O317 1.997 . S
Fe309 O320 1.996 . S
Fe309 O324 1.976 . S
Fe309 O327 2.002 . S
O310 Fe308 1.918 . S
O310 Fe309 1.918 . S
O310 Fe311 1.918 . S
Fe311 O310 1.918 . S
Fe311 O312 2.002 . S
Fe311 O321 1.976 . S
Fe311 O325 1.996 . S
Fe311 O328 1.997 . S
O312 Fe311 2.002 . S
O312 C329 1.295 . S
O313 Fe308 1.997 . S
O313 C329 1.235 . S
O314 Fe308 2.002 . S
O314 C315 1.295 . S
C315 O314 1.295 . S
C315 O317 1.235 . S
C316 O321 1.287 . S
C316 O322 1.255 . S
O317 Fe309 1.997 . S
O317 C315 1.235 . S
C318 O324 1.287 . S
C318 O325 1.255 . S
O319 Fe308 1.976 . S
O319 C326 1.287 . S
O320 Fe309 1.996 . S
O320 C326 1.255 . S
O321 Fe311 1.976 . S
O321 C316 1.287 . S
O322 Fe308 1.996 . S
O322 C316 1.255 . S
C323 O327 1.295 . S
C323 O328 1.235 . S
O324 Fe309 1.976 . S
O324 C318 1.287 . S
O325 Fe311 1.996 . S
O325 C318 1.255 . S
C326 O319 1.287 . S
C326 O320 1.255 . S
O327 Fe309 2.002 . S
O327 C323 1.295 . S
O328 Fe311 1.997 . S
O328 C323 1.235 . S
C329 O312 1.295 . S
C329 O313 1.235 . S
Fe330 O332 1.918 . S
Fe330 O335 1.997 . S
Fe330 O336 2.002 . S
Fe330 O341 1.976 . S
Fe330 O344 1.996 . S
Fe331 O332 1.918 . S
Fe331 O339 1.997 . S
Fe331 O342 1.996 . S
Fe331 O346 1.976 . S
Fe331 O349 2.002 . S
O332 Fe330 1.918 . S
O332 Fe331 1.918 . S
O332 Fe333 1.918 . S
Fe333 O332 1.918 . S
Fe333 O334 2.002 . S
Fe333 O343 1.976 . S
Fe333 O347 1.996 . S
Fe333 O350 1.997 . S
O334 Fe333 2.002 . S
O334 C351 1.295 . S
O335 Fe330 1.997 . S
O335 C351 1.235 . S
O336 Fe330 2.002 . S
O336 C337 1.295 . S
C337 O336 1.295 . S
C337 O339 1.235 . S
C338 O343 1.287 . S
C338 O344 1.255 . S
O339 Fe331 1.997 . S
O339 C337 1.235 . S
C340 O346 1.287 . S
C340 O347 1.255 . S
O341 Fe330 1.976 . S
O341 C348 1.287 . S
O342 Fe331 1.996 . S
O342 C348 1.255 . S
O343 Fe333 1.976 . S
O343 C338 1.287 . S
O344 Fe330 1.996 . S
O344 C338 1.255 . S
C345 O349 1.295 . S
C345 O350 1.235 . S
O346 Fe331 1.976 . S
O346 C340 1.287 . S
O347 Fe333 1.996 . S
O347 C340 1.255 . S
C348 O341 1.287 . S
C348 O342 1.255 . S
O349 Fe331 2.002 . S
O349 C345 1.295 . S
O350 Fe333 1.997 . S
O350 C345 1.235 . S
C351 O334 1.295 . S
C351 O335 1.235 . S
H352 C358 0.930 . S
H353 C362 0.930 . S
H354 C367 0.929 . S
H355 C365 0.929 1_565 S
H356 C360 0.929 . S
H357 C366 0.929 . S
C358 H352 0.930 . S
C358 C359 1.367 . S
C358 C366 1.378 . S
C359 C358 1.367 . S
C359 C367 1.433 . S
C360 H356 0.929 . S
C360 C362 1.378 . S
C360 C364 1.350 . S
C361 C364 1.463 . S
C361 C366 1.350 . S
C361 N369 1.427 . S
C362 H353 0.930 . S
C362 C360 1.378 . S
C362 C363 1.367 . S
C363 C362 1.367 . S
C363 C365 1.433 . S
C364 C360 1.350 . S
C364 C361 1.463 . S
C364 N368 1.427 . S
C365 H355 0.929 1_545 S
C365 C363 1.433 . S
C365 N368 1.384 . S
C366 H357 0.929 . S
C366 C358 1.378 . S
C366 C361 1.350 . S
C367 H354 0.929 . S
C367 C359 1.433 . S
C367 N369 1.384 . S
N368 C364 1.427 . S
N368 C365 1.384 . S
N369 C361 1.427 . S
N369 C367 1.384 . S
H370 C376 0.930 . S
H371 C380 0.930 . S
H372 C385 0.929 . S
H373 C383 0.929 . S
H374 C378 0.929 . S
H375 C384 0.929 . S
C376 H370 0.930 . S
C376 C377 1.367 . S
C376 C384 1.378 . S
C377 C376 1.367 . S
C377 C385 1.433 . S
C378 H374 0.929 . S
C378 C380 1.378 . S
C378 C382 1.350 . S
C379 C382 1.463 . S
C379 C384 1.350 . S
C379 N387 1.427 . S
C380 H371 0.930 . S
C380 C378 1.378 . S
C380 C381 1.367 . S
C381 C380 1.367 . S
C381 C383 1.433 . S
C382 C378 1.350 . S
C382 C379 1.463 . S
C382 N386 1.427 . S
C383 H373 0.929 . S
C383 C381 1.433 . S
C383 N386 1.384 . S
C384 H375 0.929 . S
C384 C376 1.378 . S
C384 C379 1.350 . S
C385 H372 0.929 . S
C385 C377 1.433 . S
C385 N387 1.384 . S
N386 C382 1.427 . S
N386 C383 1.384 . S
N387 C379 1.427 . S
N387 C385 1.384 . S
H388 C394 0.930 . S
H389 C398 0.930 . S
H390 C403 0.929 . S
H391 C401 0.927 1_545 S
H392 C396 0.929 . S
H393 C402 0.929 . S
C394 H388 0.930 . S
C394 C395 1.367 . S
C394 C402 1.378 . S
C395 C394 1.367 . S
C395 C403 1.433 . S
C396 H392 0.929 . S
C396 C398 1.378 . S
C396 C400 1.350 . S
C397 C400 1.463 . S
C397 C402 1.350 . S
C397 N405 1.427 . S
C398 H389 0.930 . S
C398 C396 1.378 . S
C398 C399 1.367 . S
C399 C398 1.367 . S
C399 C401 1.433 . S
C400 C396 1.350 . S
C400 C397 1.463 . S
C400 N404 1.427 . S
C401 H391 0.927 1_565 S
C401 C399 1.433 . S
C401 N404 1.384 . S
C402 H393 0.929 . S
C402 C394 1.378 . S
C402 C397 1.350 . S
C403 H390 0.929 . S
C403 C395 1.433 . S
C403 N405 1.384 . S
N404 C400 1.427 . S
N404 C401 1.384 . S
N405 C397 1.427 . S
N405 C403 1.384 . S
H406 C412 0.930 . S
H407 C416 0.930 . S
H408 C421 0.929 . S
H409 C419 0.929 . S
H410 C414 0.929 . S
H411 C420 0.929 . S
C412 H406 0.930 . S
C412 C413 1.367 . S
C412 C420 1.378 . S
C413 C412 1.367 . S
C413 C421 1.433 . S
C414 H410 0.929 . S
C414 C416 1.378 . S
C414 C418 1.350 . S
C415 C418 1.463 . S
C415 C420 1.350 . S
C415 N423 1.427 . S
C416 H407 0.930 . S
C416 C414 1.378 . S
C416 C417 1.367 . S
C417 C416 1.367 . S
C417 C419 1.433 . S
C418 C414 1.350 . S
C418 C415 1.463 . S
C418 N422 1.427 . S
C419 H409 0.929 . S
C419 C417 1.433 . S
C419 N422 1.384 . S
C420 H411 0.929 . S
C420 C412 1.378 . S
C420 C415 1.350 . S
C421 H408 0.929 . S
C421 C413 1.433 . S
C421 N423 1.384 . S
N422 C418 1.427 . S
N422 C419 1.384 . S
N423 C415 1.427 . S
N423 C421 1.384 . S
H424 C430 0.930 . S
H425 C434 0.930 . S
H426 C439 0.936 . S
H427 C437 0.929 . S
H428 C432 0.929 . S
H429 C438 0.929 . S
C430 H424 0.930 . S
C430 C431 1.367 . S
C430 C438 1.378 . S
C431 C430 1.367 . S
C431 C439 1.433 . S
C432 H428 0.929 . S
C432 C434 1.378 . S
C432 C436 1.350 . S
C433 C436 1.463 . S
C433 C438 1.350 . S
C433 N441 1.427 . S
C434 H425 0.930 . S
C434 C432 1.378 . S
C434 C435 1.367 . S
C435 C434 1.367 . S
C435 C437 1.433 . S
C436 C432 1.350 . S
C436 C433 1.463 . S
C436 N440 1.427 . S
C437 H427 0.929 . S
C437 C435 1.433 . S
C437 N440 1.384 . S
C438 H429 0.929 . S
C438 C430 1.378 . S
C438 C433 1.350 . S
C439 H426 0.936 . S
C439 C431 1.433 . S
C439 N441 1.384 . S
N440 C436 1.427 . S
N440 C437 1.384 . S
N441 C433 1.427 . S
N441 C439 1.384 . S
H442 C448 0.930 . S
H443 C452 0.930 . S
H444 C457 0.929 . S
H445 C455 0.929 . S
H446 C450 0.929 . S
H447 C456 0.929 . S
C448 H442 0.930 . S
C448 C449 1.367 . S
C448 C456 1.378 . S
C449 C448 1.367 . S
C449 C457 1.433 . S
C450 H446 0.929 . S
C450 C452 1.378 . S
C450 C454 1.350 . S
C451 C454 1.463 . S
C451 C456 1.350 . S
C451 N459 1.427 . S
C452 H443 0.930 . S
C452 C450 1.378 . S
C452 C453 1.367 . S
C453 C452 1.367 . S
C453 C455 1.433 . S
C454 C450 1.350 . S
C454 C451 1.463 . S
C454 N458 1.427 . S
C455 H445 0.929 . S
C455 C453 1.433 . S
C455 N458 1.384 . S
C456 H447 0.929 . S
C456 C448 1.378 . S
C456 C451 1.350 . S
C457 H444 0.929 . S
C457 C449 1.433 . S
C457 N459 1.384 . S
N458 C454 1.427 . S
N458 C455 1.384 . S
N459 C451 1.427 . S
N459 C457 1.384 . S
H460 C466 0.930 . S
H461 C470 0.930 . S
H462 C475 0.929 . S
H463 C473 0.929 . S
H464 C468 0.929 . S
H465 C474 0.929 . S
C466 H460 0.930 . S
C466 C467 1.367 . S
C466 C474 1.378 . S
C467 C466 1.367 . S
C467 C475 1.433 . S
C468 H464 0.929 . S
C468 C470 1.378 . S
C468 C472 1.350 . S
C469 C472 1.463 . S
C469 C474 1.350 . S
C469 N477 1.427 . S
C470 H461 0.930 . S
C470 C468 1.378 . S
C470 C471 1.367 . S
C471 C470 1.367 . S
C471 C473 1.433 . S
C472 C468 1.350 . S
C472 C469 1.463 . S
C472 N476 1.427 . S
C473 H463 0.929 . S
C473 C471 1.433 . S
C473 N476 1.384 . S
C474 H465 0.929 . S
C474 C466 1.378 . S
C474 C469 1.350 . S
C475 H462 0.929 . S
C475 C467 1.433 . S
C475 N477 1.384 . S
N476 C472 1.427 . S
N476 C473 1.384 . S
N477 C469 1.427 . S
N477 C475 1.384 . S
H478 C484 0.930 . S
H479 C488 0.930 . S
H480 C493 0.929 . S
H481 C491 0.929 . S
H482 C486 0.929 . S
H483 C492 0.929 . S
C484 H478 0.930 . S
C484 C485 1.367 . S
C484 C492 1.378 . S
C485 C484 1.367 . S
C485 C493 1.433 . S
C486 H482 0.929 . S
C486 C488 1.378 . S
C486 C490 1.350 . S
C487 C490 1.463 . S
C487 C492 1.350 . S
C487 N495 1.427 . S
C488 H479 0.930 . S
C488 C486 1.378 . S
C488 C489 1.367 . S
C489 C488 1.367 . S
C489 C491 1.433 . S
C490 C486 1.350 . S
C490 C487 1.463 . S
C490 N494 1.427 . S
C491 H481 0.929 . S
C491 C489 1.433 . S
C491 N494 1.384 . S
C492 H483 0.929 . S
C492 C484 1.378 . S
C492 C487 1.350 . S
C493 H480 0.929 . S
C493 C485 1.433 . S
C493 N495 1.384 . S
N494 C490 1.427 . S
N494 C491 1.384 . S
N495 C487 1.427 . S
N495 C493 1.384 . S
H496 C502 0.930 . S
H497 C506 0.930 . S
H498 C511 0.929 . S
H499 C509 0.929 . S
H500 C504 0.929 . S
H501 C510 0.929 . S
C502 H496 0.930 . S
C502 C503 1.367 . S
C502 C510 1.378 . S
C503 C502 1.367 . S
C503 C511 1.433 . S
C504 H500 0.929 . S
C504 C506 1.378 . S
C504 C508 1.350 . S
C505 C508 1.463 . S
C505 C510 1.350 . S
C505 N513 1.427 . S
C506 H497 0.930 . S
C506 C504 1.378 . S
C506 C507 1.367 . S
C507 C506 1.367 . S
C507 C509 1.433 . S
C508 C504 1.350 . S
C508 C505 1.463 . S
C508 N512 1.427 . S
C509 H499 0.929 . S
C509 C507 1.433 . S
C509 N512 1.384 . S
C510 H501 0.929 . S
C510 C502 1.378 . S
C510 C505 1.350 . S
C511 H498 0.929 . S
C511 C503 1.433 . S
C511 N513 1.384 . S
N512 C508 1.427 . S
N512 C509 1.384 . S
N513 C505 1.427 . S
N513 C511 1.384 . S
H514 C520 0.930 . S
H515 C524 0.930 . S
H516 C529 0.929 . S
H517 C527 0.929 . S
H518 C522 0.929 . S
H519 C528 0.929 . S
C520 H514 0.930 . S
C520 C521 1.367 . S
C520 C528 1.378 . S
C521 C520 1.367 . S
C521 C529 1.433 . S
C522 H518 0.929 . S
C522 C524 1.378 . S
C522 C526 1.350 . S
C523 C526 1.463 . S
C523 C528 1.350 . S
C523 N531 1.427 . S
C524 H515 0.930 . S
C524 C522 1.378 . S
C524 C525 1.367 . S
C525 C524 1.367 . S
C525 C527 1.433 . S
C526 C522 1.350 . S
C526 C523 1.463 . S
C526 N530 1.427 . S
C527 H517 0.929 . S
C527 C525 1.433 . S
C527 N530 1.384 . S
C528 H519 0.929 . S
C528 C520 1.378 . S
C528 C523 1.350 . S
C529 H516 0.929 . S
C529 C521 1.433 . S
C529 N531 1.384 . S
N530 C526 1.427 . S
N530 C527 1.384 . S
N531 C523 1.427 . S
N531 C529 1.384 . S
H532 C538 0.930 . S
H533 C542 0.930 . S
H534 C547 0.928 . S
H535 C545 0.929 . S
H536 C540 0.929 . S
H537 C546 0.929 . S
C538 H532 0.930 . S
C538 C539 1.367 . S
C538 C546 1.378 . S
C539 C538 1.367 . S
C539 C547 1.433 . S
C540 H536 0.929 . S
C540 C542 1.378 . S
C540 C544 1.350 . S
C541 C544 1.463 . S
C541 C546 1.350 . S
C541 N549 1.427 . S
C542 H533 0.930 . S
C542 C540 1.378 . S
C542 C543 1.367 . S
C543 C542 1.367 . S
C543 C545 1.433 . S
C544 C540 1.350 . S
C544 C541 1.463 . S
C544 N548 1.427 . S
C545 H535 0.929 . S
C545 C543 1.433 . S
C545 N548 1.384 . S
C546 H537 0.929 . S
C546 C538 1.378 . S
C546 C541 1.350 . S
C547 H534 0.928 . S
C547 C539 1.433 . S
C547 N549 1.384 . S
N548 C544 1.427 . S
N548 C545 1.384 . S
N549 C541 1.427 . S
N549 C547 1.384 . S
H550 C556 0.930 . S
H551 C560 0.930 . S
H552 C565 0.929 1_455 S
H553 C563 0.929 . S
H554 C558 0.929 . S
H555 C564 0.929 . S
C556 H550 0.930 . S
C556 C557 1.367 . S
C556 C564 1.378 . S
C557 C556 1.367 . S
C557 C565 1.433 . S
C558 H554 0.929 . S
C558 C560 1.378 . S
C558 C562 1.350 . S
C559 C562 1.463 . S
C559 C564 1.350 . S
C559 N567 1.427 . S
C560 H551 0.930 . S
C560 C558 1.378 . S
C560 C561 1.367 . S
C561 C560 1.367 . S
C561 C563 1.433 . S
C562 C558 1.350 . S
C562 C559 1.463 . S
C562 N566 1.427 . S
C563 H553 0.929 . S
C563 C561 1.433 . S
C563 N566 1.384 . S
C564 H555 0.929 . S
C564 C556 1.378 . S
C564 C559 1.350 . S
C565 H552 0.929 1_655 S
C565 C557 1.433 . S
C565 N567 1.384 . S
N566 C562 1.427 . S
N566 C563 1.384 . S
N567 C559 1.427 . S
N567 C565 1.384 . S
H568 C574 0.930 . S
H569 C578 0.930 . S
H570 C583 0.929 . S
H571 C581 0.929 . S
H572 C576 0.929 . S
H573 C582 0.929 . S
C574 H568 0.930 . S
C574 C575 1.367 . S
C574 C582 1.378 . S
C575 C574 1.367 . S
C575 C583 1.433 . S
C576 H572 0.929 . S
C576 C578 1.378 . S
C576 C580 1.350 . S
C577 C580 1.463 . S
C577 C582 1.350 . S
C577 N585 1.427 . S
C578 H569 0.930 . S
C578 C576 1.378 . S
C578 C579 1.367 . S
C579 C578 1.367 . S
C579 C581 1.433 . S
C580 C576 1.350 . S
C580 C577 1.463 . S
C580 N584 1.427 . S
C581 H571 0.929 . S
C581 C579 1.433 . S
C581 N584 1.384 . S
C582 H573 0.929 . S
C582 C574 1.378 . S
C582 C577 1.350 . S
C583 H570 0.929 . S
C583 C575 1.433 . S
C583 N585 1.384 . S
N584 C580 1.427 . S
N584 C581 1.384 . S
N585 C577 1.427 . S
N585 C583 1.384 . S
H586 C592 0.930 . S
H587 C596 0.930 . S
H588 C601 0.929 . S
H589 C599 0.929 . S
H590 C594 0.929 . S
H591 C600 0.929 . S
C592 H586 0.930 . S
C592 C593 1.367 . S
C592 C600 1.378 . S
C593 C592 1.367 . S
C593 C601 1.433 . S
C594 H590 0.929 . S
C594 C596 1.378 . S
C594 C598 1.350 . S
C595 C598 1.463 . S
C595 C600 1.350 . S
C595 N603 1.427 . S
C596 H587 0.930 . S
C596 C594 1.378 . S
C596 C597 1.367 . S
C597 C596 1.367 . S
C597 C599 1.433 . S
C598 C594 1.350 . S
C598 C595 1.463 . S
C598 N602 1.427 . S
C599 H589 0.929 . S
C599 C597 1.433 . S
C599 N602 1.384 . S
C600 H591 0.929 . S
C600 C592 1.378 . S
C600 C595 1.350 . S
C601 H588 0.929 . S
C601 C593 1.433 . S
C601 N603 1.384 . S
N602 C598 1.427 . S
N602 C599 1.384 . S
N603 C595 1.427 . S
N603 C601 1.384 . S
H604 C610 0.930 . S
H605 C614 0.930 . S
H606 C619 0.929 . S
H607 C617 0.929 . S
H608 C612 0.929 . S
H609 C618 0.929 . S
C610 H604 0.930 . S
C610 C611 1.367 . S
C610 C618 1.378 . S
C611 C610 1.367 . S
C611 C619 1.433 . S
C612 H608 0.929 . S
C612 C614 1.378 . S
C612 C616 1.350 . S
C613 C616 1.463 . S
C613 C618 1.350 . S
C613 N621 1.427 . S
C614 H605 0.930 . S
C614 C612 1.378 . S
C614 C615 1.367 . S
C615 C614 1.367 . S
C615 C617 1.433 . S
C616 C612 1.350 . S
C616 C613 1.463 . S
C616 N620 1.427 . S
C617 H607 0.929 . S
C617 C615 1.433 . S
C617 N620 1.384 . S
C618 H609 0.929 . S
C618 C610 1.378 . S
C618 C613 1.350 . S
C619 H606 0.929 . S
C619 C611 1.433 . S
C619 N621 1.384 . S
N620 C616 1.427 . S
N620 C617 1.384 . S
N621 C613 1.427 . S
N621 C619 1.384 . S
H622 C628 0.930 . S
H623 C632 0.930 . S
H624 C637 0.929 . S
H625 C635 0.929 . S
H626 C630 0.929 . S
H627 C636 0.929 . S
C628 H622 0.930 . S
C628 C629 1.367 . S
C628 C636 1.378 . S
C629 C628 1.367 . S
C629 C637 1.433 . S
C630 H626 0.929 . S
C630 C632 1.378 . S
C630 C634 1.350 . S
C631 C634 1.463 . S
C631 C636 1.350 . S
C631 N639 1.427 . S
C632 H623 0.930 . S
C632 C630 1.378 . S
C632 C633 1.367 . S
C633 C632 1.367 . S
C633 C635 1.433 . S
C634 C630 1.350 . S
C634 C631 1.463 . S
C634 N638 1.427 . S
C635 H625 0.929 . S
C635 C633 1.433 . S
C635 N638 1.384 . S
C636 H627 0.929 . S
C636 C628 1.378 . S
C636 C631 1.350 . S
C637 H624 0.929 . S
C637 C629 1.433 . S
C637 N639 1.384 . S
N638 C634 1.427 . S
N638 C635 1.384 . S
N639 C631 1.427 . S
N639 C637 1.384 . S
H640 C646 0.930 . S
H641 C650 0.930 . S
H642 C655 0.929 . S
H643 C653 0.929 . S
H644 C648 0.929 . S
H645 C654 0.929 . S
C646 H640 0.930 . S
C646 C647 1.367 . S
C646 C654 1.378 . S
C647 C646 1.367 . S
C647 C655 1.433 . S
C648 H644 0.929 . S
C648 C650 1.378 . S
C648 C652 1.350 . S
C649 C652 1.463 . S
C649 C654 1.350 . S
C649 N657 1.427 . S
C650 H641 0.930 . S
C650 C648 1.378 . S
C650 C651 1.367 . S
C651 C650 1.367 . S
C651 C653 1.433 . S
C652 C648 1.350 . S
C652 C649 1.463 . S
C652 N656 1.427 . S
C653 H643 0.929 . S
C653 C651 1.433 . S
C653 N656 1.384 . S
C654 H645 0.929 . S
C654 C646 1.378 . S
C654 C649 1.350 . S
C655 H642 0.929 . S
C655 C647 1.433 . S
C655 N657 1.384 . S
N656 C652 1.427 . S
N656 C653 1.384 . S
N657 C649 1.427 . S
N657 C655 1.384 . S
H658 C664 0.930 . S
H659 C668 0.930 . S
H660 C673 0.929 . S
H661 C671 0.929 . S
H662 C666 0.929 . S
H663 C672 0.929 . S
C664 H658 0.930 . S
C664 C665 1.367 . S
C664 C672 1.378 . S
C665 C664 1.367 . S
C665 C673 1.433 . S
C666 H662 0.929 . S
C666 C668 1.378 . S
C666 C670 1.350 . S
C667 C670 1.463 . S
C667 C672 1.350 . S
C667 N675 1.427 . S
C668 H659 0.930 . S
C668 C666 1.378 . S
C668 C669 1.367 . S
C669 C668 1.367 . S
C669 C671 1.433 . S
C670 C666 1.350 . S
C670 C667 1.463 . S
C670 N674 1.427 . S
C671 H661 0.929 . S
C671 C669 1.433 . S
C671 N674 1.384 . S
C672 H663 0.929 . S
C672 C664 1.378 . S
C672 C667 1.350 . S
C673 H660 0.929 . S
C673 C665 1.433 . S
C673 N675 1.384 . S
N674 C670 1.427 . S
N674 C671 1.384 . S
N675 C667 1.427 . S
N675 C673 1.384 . S
H676 C682 0.930 . S
H677 C686 0.930 . S
H678 C691 0.929 . S
H679 C689 0.929 . S
H680 C684 0.929 . S
H681 C690 0.929 . S
C682 H676 0.930 . S
C682 C683 1.367 . S
C682 C690 1.378 . S
C683 C682 1.367 . S
C683 C691 1.433 . S
C684 H680 0.929 . S
C684 C686 1.378 . S
C684 C688 1.350 . S
C685 C688 1.463 . S
C685 C690 1.350 . S
C685 N693 1.427 . S
C686 H677 0.930 . S
C686 C684 1.378 . S
C686 C687 1.367 . S
C687 C686 1.367 . S
C687 C689 1.433 . S
C688 C684 1.350 . S
C688 C685 1.463 . S
C688 N692 1.427 . S
C689 H679 0.929 . S
C689 C687 1.433 . S
C689 N692 1.384 . S
C690 H681 0.929 . S
C690 C682 1.378 . S
C690 C685 1.350 . S
C691 H678 0.929 . S
C691 C683 1.433 . S
C691 N693 1.384 . S
N692 C688 1.427 . S
N692 C689 1.384 . S
N693 C685 1.427 . S
N693 C691 1.384 . S
H694 C700 0.930 . S
H695 C704 0.930 . S
H696 C709 0.929 . S
H697 C707 0.929 . S
H698 C702 0.929 . S
H699 C708 0.929 . S
C700 H694 0.930 . S
C700 C701 1.367 . S
C700 C708 1.378 . S
C701 C700 1.367 . S
C701 C709 1.433 . S
C702 H698 0.929 . S
C702 C704 1.378 . S
C702 C706 1.350 . S
C703 C706 1.463 . S
C703 C708 1.350 . S
C703 N711 1.427 . S
C704 H695 0.930 . S
C704 C702 1.378 . S
C704 C705 1.367 . S
C705 C704 1.367 . S
C705 C707 1.433 . S
C706 C702 1.350 . S
C706 C703 1.463 . S
C706 N710 1.427 . S
C707 H697 0.929 . S
C707 C705 1.433 . S
C707 N710 1.384 . S
C708 H699 0.929 . S
C708 C700 1.378 . S
C708 C703 1.350 . S
C709 H696 0.929 . S
C709 C701 1.433 . S
C709 N711 1.384 . S
N710 C706 1.427 . S
N710 C707 1.384 . S
N711 C703 1.427 . S
N711 C709 1.384 . S
H712 C718 0.930 . S
H713 C722 0.930 . S
H714 C727 0.929 . S
H715 C725 0.929 . S
H716 C720 0.929 . S
H717 C726 0.929 . S
C718 H712 0.930 . S
C718 C719 1.367 . S
C718 C726 1.378 . S
C719 C718 1.367 . S
C719 C727 1.433 . S
C720 H716 0.929 . S
C720 C722 1.378 . S
C720 C724 1.350 . S
C721 C724 1.463 . S
C721 C726 1.350 . S
C721 N729 1.427 . S
C722 H713 0.930 . S
C722 C720 1.378 . S
C722 C723 1.367 . S
C723 C722 1.367 . S
C723 C725 1.433 . S
C724 C720 1.350 . S
C724 C721 1.463 . S
C724 N728 1.427 . S
C725 H715 0.929 . S
C725 C723 1.433 . S
C725 N728 1.384 . S
C726 H717 0.929 . S
C726 C718 1.378 . S
C726 C721 1.350 . S
C727 H714 0.929 . S
C727 C719 1.433 . S
C727 N729 1.384 . S
N728 C724 1.427 . S
N728 C725 1.384 . S
N729 C721 1.427 . S
N729 C727 1.384 . S
H730 C736 0.930 . S
H731 C740 0.930 . S
H732 C745 0.929 . S
H733 C743 0.929 . S
H734 C738 0.929 . S
H735 C744 0.929 . S
C736 H730 0.930 . S
C736 C737 1.367 . S
C736 C744 1.378 . S
C737 C736 1.367 . S
C737 C745 1.433 . S
C738 H734 0.929 . S
C738 C740 1.378 . S
C738 C742 1.350 . S
C739 C742 1.463 . S
C739 C744 1.350 . S
C739 N747 1.427 . S
C740 H731 0.930 . S
C740 C738 1.378 . S
C740 C741 1.367 . S
C741 C740 1.367 . S
C741 C743 1.433 . S
C742 C738 1.350 . S
C742 C739 1.463 . S
C742 N746 1.427 . S
C743 H733 0.929 . S
C743 C741 1.433 . S
C743 N746 1.384 . S
C744 H735 0.929 . S
C744 C736 1.378 . S
C744 C739 1.350 . S
C745 H732 0.929 . S
C745 C737 1.433 . S
C745 N747 1.384 . S
N746 C742 1.427 . S
N746 C743 1.384 . S
N747 C739 1.427 . S
N747 C745 1.384 . S
H748 C754 0.930 . S
H749 C758 0.930 . S
H750 C763 0.929 . S
H751 C761 0.929 . S
H752 C756 0.929 . S
H753 C762 0.929 . S
C754 H748 0.930 . S
C754 C755 1.367 . S
C754 C762 1.378 . S
C755 C754 1.367 . S
C755 C763 1.433 . S
C756 H752 0.929 . S
C756 C758 1.378 . S
C756 C760 1.350 . S
C757 C760 1.463 . S
C757 C762 1.350 . S
C757 N765 1.427 . S
C758 H749 0.930 . S
C758 C756 1.378 . S
C758 C759 1.367 . S
C759 C758 1.367 . S
C759 C761 1.433 . S
C760 C756 1.350 . S
C760 C757 1.463 . S
C760 N764 1.427 . S
C761 H751 0.929 . S
C761 C759 1.433 . S
C761 N764 1.384 . S
C762 H753 0.929 . S
C762 C754 1.378 . S
C762 C757 1.350 . S
C763 H750 0.929 . S
C763 C755 1.433 . S
C763 N765 1.384 . S
N764 C760 1.427 . S
N764 C761 1.384 . S
N765 C757 1.427 . S
N765 C763 1.384 . S
H766 C772 0.930 . S
H767 C776 0.930 . S
H768 C781 0.929 . S
H769 C779 0.929 . S
H770 C774 0.929 . S
H771 C780 0.929 . S
C772 H766 0.930 . S
C772 C773 1.367 . S
C772 C780 1.378 . S
C773 C772 1.367 . S
C773 C781 1.433 . S
C774 H770 0.929 . S
C774 C776 1.378 . S
C774 C778 1.350 . S
C775 C778 1.463 . S
C775 C780 1.350 . S
C775 N783 1.427 . S
C776 H767 0.930 . S
C776 C774 1.378 . S
C776 C777 1.367 . S
C777 C776 1.367 . S
C777 C779 1.433 . S
C778 C774 1.350 . S
C778 C775 1.463 . S
C778 N782 1.427 . S
C779 H769 0.929 . S
C779 C777 1.433 . S
C779 N782 1.384 . S
C780 H771 0.929 . S
C780 C772 1.378 . S
C780 C775 1.350 . S
C781 H768 0.929 . S
C781 C773 1.433 . S
C781 N783 1.384 . S
N782 C778 1.427 . S
N782 C779 1.384 . S
N783 C775 1.427 . S
N783 C781 1.384 . S
H784 C790 0.930 . S
H785 C794 0.930 . S
H786 C799 0.929 . S
H787 C797 0.929 . S
H788 C792 0.929 . S
H789 C798 0.929 . S
C790 H784 0.930 . S
C790 C791 1.367 . S
C790 C798 1.378 . S
C791 C790 1.367 . S
C791 C799 1.433 . S
C792 H788 0.929 . S
C792 C794 1.378 . S
C792 C796 1.350 . S
C793 C796 1.463 1_554 S
C793 C798 1.350 . S
C793 N801 1.427 . S
C794 H785 0.930 . S
C794 C792 1.378 . S
C794 C795 1.367 . S
C795 C794 1.367 . S
C795 C797 1.433 . S
C796 C792 1.350 . S
C796 C793 1.463 1_556 S
C796 N800 1.427 . S
C797 H787 0.929 . S
C797 C795 1.433 . S
C797 N800 1.384 . S
C798 H789 0.929 . S
C798 C790 1.378 . S
C798 C793 1.350 . S
C799 H786 0.929 . S
C799 C791 1.433 . S
C799 N801 1.384 . S
N800 C796 1.427 . S
N800 C797 1.384 . S
N801 C793 1.427 . S
N801 C799 1.384 . S
H802 C808 0.930 . S
H803 C812 0.930 . S
H804 C817 0.929 . S
H805 C815 0.929 . S
H806 C810 0.929 . S
H807 C816 0.929 . S
C808 H802 0.930 . S
C808 C809 1.367 . S
C808 C816 1.378 . S
C809 C808 1.367 . S
C809 C817 1.433 . S
C810 H806 0.929 . S
C810 C812 1.378 . S
C810 C814 1.350 . S
C811 C814 1.463 1_554 S
C811 C816 1.350 . S
C811 N819 1.427 . S
C812 H803 0.930 . S
C812 C810 1.378 . S
C812 C813 1.367 . S
C813 C812 1.367 . S
C813 C815 1.433 . S
C814 C810 1.350 . S
C814 C811 1.463 1_556 S
C814 N818 1.427 . S
C815 H805 0.929 . S
C815 C813 1.433 . S
C815 N818 1.384 . S
C816 H807 0.929 . S
C816 C808 1.378 . S
C816 C811 1.350 . S
C817 H804 0.929 . S
C817 C809 1.433 . S
C817 N819 1.384 . S
N818 C814 1.427 . S
N818 C815 1.384 . S
N819 C811 1.427 . S
N819 C817 1.384 . S
H820 C826 0.930 . S
H821 C830 0.930 . S
H822 C835 0.929 . S
H823 C833 0.929 . S
H824 C828 0.929 . S
H825 C834 0.929 . S
C826 H820 0.930 . S
C826 C827 1.367 . S
C826 C834 1.378 . S
C827 C826 1.367 . S
C827 C835 1.433 . S
C828 H824 0.929 . S
C828 C830 1.378 . S
C828 C832 1.350 . S
C829 C832 1.463 1_556 S
C829 C834 1.350 . S
C829 N837 1.427 . S
C830 H821 0.930 . S
C830 C828 1.378 . S
C830 C831 1.367 . S
C831 C830 1.367 . S
C831 C833 1.433 . S
C832 C828 1.350 . S
C832 C829 1.463 1_554 S
C832 N836 1.427 . S
C833 H823 0.929 . S
C833 C831 1.433 . S
C833 N836 1.384 . S
C834 H825 0.929 . S
C834 C826 1.378 . S
C834 C829 1.350 . S
C835 H822 0.929 . S
C835 C827 1.433 . S
C835 N837 1.384 . S
N836 C832 1.427 . S
N836 C833 1.384 . S
N837 C829 1.427 . S
N837 C835 1.384 . S
H838 C844 0.930 . S
H839 C848 0.930 . S
H840 C853 0.929 . S
H841 C851 0.929 . S
H842 C846 0.929 . S
H843 C852 0.929 . S
C844 H838 0.930 . S
C844 C845 1.367 . S
C844 C852 1.378 . S
C845 C844 1.367 . S
C845 C853 1.433 . S
C846 H842 0.929 . S
C846 C848 1.378 . S
C846 C850 1.350 . S
C847 C850 1.463 1_554 S
C847 C852 1.350 . S
C847 N855 1.427 . S
C848 H839 0.930 . S
C848 C846 1.378 . S
C848 C849 1.367 . S
C849 C848 1.367 . S
C849 C851 1.433 . S
C850 C846 1.350 . S
C850 C847 1.463 1_556 S
C850 N854 1.427 . S
C851 H841 0.929 . S
C851 C849 1.433 . S
C851 N854 1.384 . S
C852 H843 0.929 . S
C852 C844 1.378 . S
C852 C847 1.350 . S
C853 H840 0.929 . S
C853 C845 1.433 . S
C853 N855 1.384 . S
N854 C850 1.427 . S
N854 C851 1.384 . S
N855 C847 1.427 . S
N855 C853 1.384 . S
H856 C862 0.930 . S
H857 C866 0.930 . S
H858 C871 0.929 . S
H859 C869 0.929 . S
H860 C864 0.929 . S
H861 C870 0.929 . S
C862 H856 0.930 . S
C862 C863 1.367 . S
C862 C870 1.378 . S
C863 C862 1.367 . S
C863 C871 1.433 . S
C864 H860 0.929 . S
C864 C866 1.378 . S
C864 C868 1.350 . S
C865 C868 1.463 . S
C865 C870 1.350 . S
C865 N873 1.427 . S
C866 H857 0.930 . S
C866 C864 1.378 . S
C866 C867 1.367 . S
C867 C866 1.367 . S
C867 C869 1.433 . S
C868 C864 1.350 . S
C868 C865 1.463 . S
C868 N872 1.427 . S
C869 H859 0.929 . S
C869 C867 1.433 . S
C869 N872 1.384 . S
C870 H861 0.929 . S
C870 C862 1.378 . S
C870 C865 1.350 . S
C871 H858 0.929 . S
C871 C863 1.433 . S
C871 N873 1.384 . S
N872 C868 1.427 . S
N872 C869 1.384 . S
N873 C865 1.427 . S
N873 C871 1.384 . S
H874 C880 0.930 . S
H875 C884 0.930 . S
H876 C889 0.929 . S
H877 C887 0.929 . S
H878 C882 0.929 . S
H879 C888 0.929 . S
C880 H874 0.930 . S
C880 C881 1.367 . S
C880 C888 1.378 . S
C881 C880 1.367 . S
C881 C889 1.433 . S
C882 H878 0.929 . S
C882 C884 1.378 . S
C882 C886 1.350 . S
C883 C886 1.463 . S
C883 C888 1.350 . S
C883 N891 1.427 . S
C884 H875 0.930 . S
C884 C882 1.378 . S
C884 C885 1.367 . S
C885 C884 1.367 . S
C885 C887 1.433 . S
C886 C882 1.350 . S
C886 C883 1.463 . S
C886 N890 1.427 . S
C887 H877 0.929 . S
C887 C885 1.433 . S
C887 N890 1.384 . S
C888 H879 0.929 . S
C888 C880 1.378 . S
C888 C883 1.350 . S
C889 H876 0.929 . S
C889 C881 1.433 . S
C889 N891 1.384 . S
N890 C886 1.427 . S
N890 C887 1.384 . S
N891 C883 1.427 . S
N891 C889 1.384 . S
H892 C898 0.930 . S
H893 C902 0.930 . S
H894 C907 0.929 . S
H895 C905 0.929 . S
H896 C900 0.929 . S
H897 C906 0.929 . S
C898 H892 0.930 . S
C898 C899 1.367 . S
C898 C906 1.378 . S
C899 C898 1.367 . S
C899 C907 1.433 . S
C900 H896 0.929 . S
C900 C902 1.378 . S
C900 C904 1.350 . S
C901 C904 1.463 . S
C901 C906 1.350 . S
C901 N909 1.427 . S
C902 H893 0.930 . S
C902 C900 1.378 . S
C902 C903 1.367 . S
C903 C902 1.367 . S
C903 C905 1.433 . S
C904 C900 1.350 . S
C904 C901 1.463 . S
C904 N908 1.427 . S
C905 H895 0.929 . S
C905 C903 1.433 . S
C905 N908 1.384 . S
C906 H897 0.929 . S
C906 C898 1.378 . S
C906 C901 1.350 . S
C907 H894 0.929 . S
C907 C899 1.433 . S
C907 N909 1.384 . S
N908 C904 1.427 . S
N908 C905 1.384 . S
N909 C901 1.427 . S
N909 C907 1.384 . S
H910 C916 0.930 . S
H911 C920 0.930 . S
H912 C925 0.929 . S
H913 C923 0.929 . S
H914 C918 0.929 . S
H915 C924 0.929 . S
C916 H910 0.930 . S
C916 C917 1.367 . S
C916 C924 1.378 . S
C917 C916 1.367 . S
C917 C925 1.433 . S
C918 H914 0.929 . S
C918 C920 1.378 . S
C918 C922 1.350 . S
C919 C922 1.463 . S
C919 C924 1.350 . S
C919 N927 1.427 . S
C920 H911 0.930 . S
C920 C918 1.378 . S
C920 C921 1.367 . S
C921 C920 1.367 . S
C921 C923 1.433 . S
C922 C918 1.350 . S
C922 C919 1.463 . S
C922 N926 1.427 . S
C923 H913 0.929 . S
C923 C921 1.433 . S
C923 N926 1.384 . S
C924 H915 0.929 . S
C924 C916 1.378 . S
C924 C919 1.350 . S
C925 H912 0.929 . S
C925 C917 1.433 . S
C925 N927 1.384 . S
N926 C922 1.427 . S
N926 C923 1.384 . S
N927 C919 1.427 . S
N927 C925 1.384 . S
H928 C934 0.930 . S
H929 C938 0.930 . S
H930 C943 0.929 . S
H931 C941 0.929 . S
H932 C936 0.929 . S
H933 C942 0.929 . S
C934 H928 0.930 . S
C934 C935 1.367 1_655 S
C934 C942 1.378 . S
C935 C934 1.367 1_455 S
C935 C943 1.433 . S
C936 H932 0.929 . S
C936 C938 1.378 . S
C936 C940 1.350 1_455 S
C937 C940 1.463 1_455 S
C937 C942 1.350 1_455 S
C937 N945 1.427 . S
C938 H929 0.930 . S
C938 C936 1.378 . S
C938 C939 1.367 1_455 S
C939 C938 1.367 1_655 S
C939 C941 1.433 . S
C940 C936 1.350 1_655 S
C940 C937 1.463 1_655 S
C940 N944 1.427 . S
C941 H931 0.929 . S
C941 C939 1.433 . S
C941 N944 1.384 . S
C942 H933 0.929 . S
C942 C934 1.378 . S
C942 C937 1.350 1_655 S
C943 H930 0.929 . S
C943 C935 1.433 . S
C943 N945 1.384 . S
N944 C940 1.427 . S
N944 C941 1.384 . S
N945 C937 1.427 . S
N945 C943 1.384 . S
H946 C952 0.930 . S
H947 C956 0.930 . S
H948 C961 0.929 . S
H949 C959 0.929 . S
H950 C954 0.929 . S
H951 C960 0.929 . S
C952 H946 0.930 . S
C952 C953 1.367 1_545 S
C952 C960 1.378 . S
C953 C952 1.367 1_565 S
C953 C961 1.433 . S
C954 H950 0.929 . S
C954 C956 1.378 . S
C954 C958 1.350 1_565 S
C955 C958 1.463 1_565 S
C955 C960 1.350 1_565 S
C955 N963 1.427 . S
C956 H947 0.930 . S
C956 C954 1.378 . S
C956 C957 1.367 1_565 S
C957 C956 1.367 1_545 S
C957 C959 1.433 . S
C958 C954 1.350 1_545 S
C958 C955 1.463 1_545 S
C958 N962 1.427 . S
C959 H949 0.929 . S
C959 C957 1.433 . S
C959 N962 1.384 . S
C960 H951 0.929 . S
C960 C952 1.378 . S
C960 C955 1.350 1_545 S
C961 H948 0.929 . S
C961 C953 1.433 . S
C961 N963 1.384 . S
N962 C958 1.427 . S
N962 C959 1.384 . S
N963 C955 1.427 . S
N963 C961 1.384 . S
H964 C970 0.930 . S
H965 C974 0.930 . S
H966 C979 0.929 . S
H967 C977 0.929 . S
H968 C972 0.929 . S
H969 C978 0.929 . S
C970 H964 0.930 . S
C970 C971 1.367 . S
C970 C978 1.378 . S
C971 C970 1.367 . S
C971 C979 1.433 1_455 S
C972 H968 0.929 . S
C972 C974 1.378 . S
C972 C976 1.350 . S
C973 C976 1.463 1_455 S
C973 C978 1.350 . S
C973 N981 1.427 1_455 S
C974 H965 0.930 . S
C974 C972 1.378 . S
C974 C975 1.367 . S
C975 C974 1.367 . S
C975 C977 1.433 1_655 S
C976 C972 1.350 . S
C976 C973 1.463 1_655 S
C976 N980 1.427 1_655 S
C977 H967 0.929 . S
C977 C975 1.433 1_455 S
C977 N980 1.384 . S
C978 H969 0.929 . S
C978 C970 1.378 . S
C978 C973 1.350 . S
C979 H966 0.929 . S
C979 C971 1.433 1_655 S
C979 N981 1.384 . S
N980 C976 1.427 1_455 S
N980 C977 1.384 . S
N981 C973 1.427 1_655 S
N981 C979 1.384 . S
H982 C988 0.930 . S
H983 C992 0.930 . S
H984 C997 0.929 . S
H985 C995 0.929 . S
H986 C990 0.929 . S
H987 C996 0.929 . S
C988 H982 0.930 . S
C988 C989 1.367 1_565 S
C988 C996 1.378 . S
C989 C988 1.367 1_545 S
C989 C997 1.433 . S
C990 H986 0.929 . S
C990 C992 1.378 . S
C990 C994 1.350 1_545 S
C991 C994 1.463 1_545 S
C991 C996 1.350 1_545 S
C991 N999 1.427 . S
C992 H983 0.930 . S
C992 C990 1.378 . S
C992 C993 1.367 1_545 S
C993 C992 1.367 1_565 S
C993 C995 1.433 . S
C994 C990 1.350 1_565 S
C994 C991 1.463 1_565 S
C994 N998 1.427 . S
C995 H985 0.929 . S
C995 C993 1.433 . S
C995 N998 1.384 . S
C996 H987 0.929 . S
C996 C988 1.378 . S
C996 C991 1.350 1_565 S
C997 H984 0.929 . S
C997 C989 1.433 . S
C997 N999 1.384 . S
N998 C994 1.427 . S
N998 C995 1.384 . S
N999 C991 1.427 . S
N999 C997 1.384 . S
H1000 C1006 0.930 . S
H1001 C1010 0.930 . S
H1002 C1015 0.929 1_655 S
H1003 C1013 0.929 1_455 S
H1004 C1008 0.929 . S
H1005 C1014 0.929 . S
C1006 H1000 0.930 . S
C1006 C1007 1.367 . S
C1006 C1014 1.378 . S
C1007 C1006 1.367 . S
C1007 C1015 1.433 . S
C1008 H1004 0.929 . S
C1008 C1010 1.378 . S
C1008 C1012 1.350 . S
C1009 C1012 1.463 1_455 S
C1009 C1014 1.350 . S
C1009 N1017 1.427 1_455 S
C1010 H1001 0.930 . S
C1010 C1008 1.378 . S
C1010 C1011 1.367 . S
C1011 C1010 1.367 . S
C1011 C1013 1.433 . S
C1012 C1008 1.350 . S
C1012 C1009 1.463 1_655 S
C1012 N1016 1.427 1_655 S
C1013 H1003 0.929 1_655 S
C1013 C1011 1.433 . S
C1013 N1016 1.384 1_655 S
C1014 H1005 0.929 . S
C1014 C1006 1.378 . S
C1014 C1009 1.350 . S
C1015 H1002 0.929 1_455 S
C1015 C1007 1.433 . S
C1015 N1017 1.384 1_455 S
N1016 C1012 1.427 1_455 S
N1016 C1013 1.384 1_455 S
N1017 C1009 1.427 1_655 S
N1017 C1015 1.384 1_655 S
H1018 C1024 0.930 . S
H1019 C1028 0.930 . S
H1020 C1033 0.929 . S
H1021 C1031 0.929 . S
H1022 C1026 0.929 . S
H1023 C1032 0.929 . S
C1024 H1018 0.930 . S
C1024 C1025 1.367 . S
C1024 C1032 1.378 . S
C1025 C1024 1.367 . S
C1025 C1033 1.433 1_545 S
C1026 H1022 0.929 . S
C1026 C1028 1.378 . S
C1026 C1030 1.350 . S
C1027 C1030 1.463 1_545 S
C1027 C1032 1.350 . S
C1027 N1035 1.427 1_545 S
C1028 H1019 0.930 . S
C1028 C1026 1.378 . S
C1028 C1029 1.367 . S
C1029 C1028 1.367 . S
C1029 C1031 1.433 1_565 S
C1030 C1026 1.350 . S
C1030 C1027 1.463 1_565 S
C1030 N1034 1.427 1_565 S
C1031 H1021 0.929 . S
C1031 C1029 1.433 1_545 S
C1031 N1034 1.384 . S
C1032 H1023 0.929 . S
C1032 C1024 1.378 . S
C1032 C1027 1.350 . S
C1033 H1020 0.929 . S
C1033 C1025 1.433 1_565 S
C1033 N1035 1.384 . S
N1034 C1030 1.427 1_545 S
N1034 C1031 1.384 . S
N1035 C1027 1.427 1_565 S
N1035 C1033 1.384 . S
H1036 C1042 0.930 . S
H1037 C1046 0.930 . S
H1038 C1051 0.929 . S
H1039 C1049 0.929 . S
H1040 C1044 0.929 . S
H1041 C1050 0.929 . S
C1042 H1036 0.930 . S
C1042 C1043 1.367 . S
C1042 C1050 1.378 . S
C1043 C1042 1.367 . S
C1043 C1051 1.433 1_655 S
C1044 H1040 0.929 . S
C1044 C1046 1.378 . S
C1044 C1048 1.350 . S
C1045 C1048 1.463 1_655 S
C1045 C1050 1.350 . S
C1045 N1053 1.427 1_655 S
C1046 H1037 0.930 . S
C1046 C1044 1.378 . S
C1046 C1047 1.367 . S
C1047 C1046 1.367 . S
C1047 C1049 1.433 1_455 S
C1048 C1044 1.350 . S
C1048 C1045 1.463 1_455 S
C1048 N1052 1.427 1_455 S
C1049 H1039 0.929 . S
C1049 C1047 1.433 1_655 S
C1049 N1052 1.384 . S
C1050 H1041 0.929 . S
C1050 C1042 1.378 . S
C1050 C1045 1.350 . S
C1051 H1038 0.929 . S
C1051 C1043 1.433 1_455 S
C1051 N1053 1.384 . S
N1052 C1048 1.427 1_655 S
N1052 C1049 1.384 . S
N1053 C1045 1.427 1_455 S
N1053 C1051 1.384 . S
H1054 C1060 0.930 . S
H1055 C1064 0.930 . S
H1056 C1069 0.929 . S
H1057 C1067 0.929 . S
H1058 C1062 0.929 . S
H1059 C1068 0.929 . S
C1060 H1054 0.930 . S
C1060 C1061 1.367 1_565 S
C1060 C1068 1.378 . S
C1061 C1060 1.367 1_545 S
C1061 C1069 1.433 . S
C1062 H1058 0.929 . S
C1062 C1064 1.378 . S
C1062 C1066 1.350 1_545 S
C1063 C1066 1.463 1_545 S
C1063 C1068 1.350 1_545 S
C1063 N1071 1.427 . S
C1064 H1055 0.930 . S
C1064 C1062 1.378 . S
C1064 C1065 1.367 1_545 S
C1065 C1064 1.367 1_565 S
C1065 C1067 1.433 . S
C1066 C1062 1.350 1_565 S
C1066 C1063 1.463 1_565 S
C1066 N1070 1.427 . S
C1067 H1057 0.929 . S
C1067 C1065 1.433 . S
C1067 N1070 1.384 . S
C1068 H1059 0.929 . S
C1068 C1060 1.378 . S
C1068 C1063 1.350 1_565 S
C1069 H1056 0.929 . S
C1069 C1061 1.433 . S
C1069 N1071 1.384 . S
N1070 C1066 1.427 . S
N1070 C1067 1.384 . S
N1071 C1063 1.427 . S
N1071 C1069 1.384 . S
H1072 C1078 0.930 . S
H1073 C1082 0.930 . S
H1074 C1087 0.929 . S
H1075 C1085 0.929 . S
H1076 C1080 0.929 . S
H1077 C1086 0.929 . S
C1078 H1072 0.930 . S
C1078 C1079 1.367 . S
C1078 C1086 1.378 . S
C1079 C1078 1.367 . S
C1079 C1087 1.433 . S
C1080 H1076 0.929 . S
C1080 C1082 1.378 . S
C1080 C1084 1.350 . S
C1081 C1084 1.463 1_455 S
C1081 C1086 1.350 . S
C1081 N1089 1.427 . S
C1082 H1073 0.930 . S
C1082 C1080 1.378 . S
C1082 C1083 1.367 . S
C1083 C1082 1.367 . S
C1083 C1085 1.433 . S
C1084 C1080 1.350 . S
C1084 C1081 1.463 1_655 S
C1084 N1088 1.427 . S
C1085 H1075 0.929 . S
C1085 C1083 1.433 . S
C1085 N1088 1.384 . S
C1086 H1077 0.929 . S
C1086 C1078 1.378 . S
C1086 C1081 1.350 . S
C1087 H1074 0.929 . S
C1087 C1079 1.433 . S
C1087 N1089 1.384 . S
N1088 C1084 1.427 . S
N1088 C1085 1.384 . S
N1089 C1081 1.427 . S
N1089 C1087 1.384 . S
H1090 C1096 0.930 . S
H1091 C1100 0.930 . S
H1092 C1105 0.929 . S
H1093 C1103 0.929 . S
H1094 C1098 0.942 . S
H1095 C1104 0.942 . S
C1096 H1090 0.930 . S
C1096 C1097 1.367 . S
C1096 C1104 1.378 . S
C1097 C1096 1.367 . S
C1097 C1105 1.433 . S
C1098 H1094 0.942 . S
C1098 C1100 1.378 . S
C1098 C1102 1.350 . S
C1099 C1102 1.463 1_545 S
C1099 C1104 1.350 . S
C1099 N1107 1.427 . S
C1100 H1091 0.930 . S
C1100 C1098 1.378 . S
C1100 C1101 1.367 . S
C1101 C1100 1.367 . S
C1101 C1103 1.433 . S
C1102 C1098 1.350 . S
C1102 C1099 1.463 1_565 S
C1102 N1106 1.427 . S
C1103 H1093 0.929 . S
C1103 C1101 1.433 . S
C1103 N1106 1.384 . S
C1104 H1095 0.942 . S
C1104 C1096 1.378 . S
C1104 C1099 1.350 . S
C1105 H1092 0.929 . S
C1105 C1097 1.433 . S
C1105 N1107 1.384 . S
N1106 C1102 1.427 . S
N1106 C1103 1.384 . S
N1107 C1099 1.427 . S
N1107 C1105 1.384 . S
H1108 C1114 0.930 . S
H1109 C1118 0.930 . S
H1110 C1123 0.929 . S
H1111 C1121 0.929 . S
H1112 C1116 0.929 . S
H1113 C1122 0.929 . S
C1114 H1108 0.930 . S
C1114 C1115 1.367 . S
C1114 C1122 1.378 . S
C1115 C1114 1.367 . S
C1115 C1123 1.433 . S
C1116 H1112 0.929 . S
C1116 C1118 1.378 . S
C1116 C1120 1.350 . S
C1117 C1120 1.463 1_455 S
C1117 C1122 1.350 . S
C1117 N1125 1.427 . S
C1118 H1109 0.930 . S
C1118 C1116 1.378 . S
C1118 C1119 1.367 . S
C1119 C1118 1.367 . S
C1119 C1121 1.433 . S
C1120 C1116 1.350 . S
C1120 C1117 1.463 1_655 S
C1120 N1124 1.427 . S
C1121 H1111 0.929 . S
C1121 C1119 1.433 . S
C1121 N1124 1.384 . S
C1122 H1113 0.929 . S
C1122 C1114 1.378 . S
C1122 C1117 1.350 . S
C1123 H1110 0.929 . S
C1123 C1115 1.433 . S
C1123 N1125 1.384 . S
N1124 C1120 1.427 . S
N1124 C1121 1.384 . S
N1125 C1117 1.427 . S
N1125 C1123 1.384 . S
H1126 C1132 0.930 . S
H1127 C1136 0.930 . S
H1128 C1141 0.929 . S
H1129 C1139 0.929 . S
H1130 C1134 0.929 1_565 S
H1131 C1140 0.929 1_545 S
C1132 H1126 0.930 . S
C1132 C1133 1.367 . S
C1132 C1140 1.378 . S
C1133 C1132 1.367 . S
C1133 C1141 1.433 . S
C1134 H1130 0.929 1_545 S
C1134 C1136 1.378 . S
C1134 C1138 1.350 . S
C1135 C1138 1.463 1_565 S
C1135 C1140 1.350 . S
C1135 N1143 1.427 . S
C1136 H1127 0.930 . S
C1136 C1134 1.378 . S
C1136 C1137 1.367 . S
C1137 C1136 1.367 . S
C1137 C1139 1.433 . S
C1138 C1134 1.350 . S
C1138 C1135 1.463 1_545 S
C1138 N1142 1.427 . S
C1139 H1129 0.929 . S
C1139 C1137 1.433 . S
C1139 N1142 1.384 . S
C1140 H1131 0.929 1_565 S
C1140 C1132 1.378 . S
C1140 C1135 1.350 . S
C1141 H1128 0.929 . S
C1141 C1133 1.433 . S
C1141 N1143 1.384 . S
N1142 C1138 1.427 . S
N1142 C1139 1.384 . S
N1143 C1135 1.427 . S
N1143 C1141 1.384 . S
H1144 C1150 0.930 . S
H1145 C1154 0.930 . S
H1146 C1159 0.929 . S
H1147 C1157 0.929 . S
H1148 C1152 0.929 . S
H1149 C1158 0.929 . S
C1150 H1144 0.930 . S
C1150 C1151 1.367 . S
C1150 C1158 1.378 . S
C1151 C1150 1.367 . S
C1151 C1159 1.433 . S
C1152 H1148 0.929 . S
C1152 C1154 1.378 . S
C1152 C1156 1.350 . S
C1153 C1156 1.463 1_455 S
C1153 C1158 1.350 . S
C1153 N1161 1.427 . S
C1154 H1145 0.930 . S
C1154 C1152 1.378 . S
C1154 C1155 1.367 . S
C1155 C1154 1.367 . S
C1155 C1157 1.433 . S
C1156 C1152 1.350 . S
C1156 C1153 1.463 1_655 S
C1156 N1160 1.427 . S
C1157 H1147 0.929 . S
C1157 C1155 1.433 . S
C1157 N1160 1.384 . S
C1158 H1149 0.929 . S
C1158 C1150 1.378 . S
C1158 C1153 1.350 . S
C1159 H1146 0.929 . S
C1159 C1151 1.433 . S
C1159 N1161 1.384 . S
N1160 C1156 1.427 . S
N1160 C1157 1.384 . S
N1161 C1153 1.427 . S
N1161 C1159 1.384 . S
H1162 C1168 0.930 . S
H1163 C1172 0.930 . S
H1164 C1177 0.929 . S
H1165 C1175 0.929 . S
H1166 C1170 0.929 1_545 S
H1167 C1176 0.929 1_565 S
C1168 H1162 0.930 . S
C1168 C1169 1.367 . S
C1168 C1176 1.378 . S
C1169 C1168 1.367 . S
C1169 C1177 1.433 . S
C1170 H1166 0.929 1_565 S
C1170 C1172 1.378 . S
C1170 C1174 1.350 . S
C1171 C1174 1.463 1_545 S
C1171 C1176 1.350 . S
C1171 N1179 1.427 . S
C1172 H1163 0.930 . S
C1172 C1170 1.378 . S
C1172 C1173 1.367 . S
C1173 C1172 1.367 . S
C1173 C1175 1.433 . S
C1174 C1170 1.350 . S
C1174 C1171 1.463 1_565 S
C1174 N1178 1.427 . S
C1175 H1165 0.929 . S
C1175 C1173 1.433 . S
C1175 N1178 1.384 . S
C1176 H1167 0.929 1_545 S
C1176 C1168 1.378 . S
C1176 C1171 1.350 . S
C1177 H1164 0.929 . S
C1177 C1169 1.433 . S
C1177 N1179 1.384 . S
N1178 C1174 1.427 . S
N1178 C1175 1.384 . S
N1179 C1171 1.427 . S
N1179 C1177 1.384 . S
H1180 C1186 0.930 . S
H1181 C1190 0.930 . S
H1182 C1195 0.929 . S
H1183 C1193 0.929 . S
H1184 C1188 0.929 . S
H1185 C1194 0.929 . S
C1186 H1180 0.930 . S
C1186 C1187 1.367 . S
C1186 C1194 1.378 . S
C1187 C1186 1.367 . S
C1187 C1195 1.433 . S
C1188 H1184 0.929 . S
C1188 C1190 1.378 . S
C1188 C1192 1.350 . S
C1189 C1192 1.463 1_655 S
C1189 C1194 1.350 . S
C1189 N1197 1.427 . S
C1190 H1181 0.930 . S
C1190 C1188 1.378 . S
C1190 C1191 1.367 . S
C1191 C1190 1.367 . S
C1191 C1193 1.433 . S
C1192 C1188 1.350 . S
C1192 C1189 1.463 1_455 S
C1192 N1196 1.427 . S
C1193 H1183 0.929 . S
C1193 C1191 1.433 . S
C1193 N1196 1.384 . S
C1194 H1185 0.929 . S
C1194 C1186 1.378 . S
C1194 C1189 1.350 . S
C1195 H1182 0.929 . S
C1195 C1187 1.433 . S
C1195 N1197 1.384 . S
N1196 C1192 1.427 . S
N1196 C1193 1.384 . S
N1197 C1189 1.427 . S
N1197 C1195 1.384 . S
H1198 C1204 0.930 . S
H1199 C1208 0.930 . S
H1200 C1213 0.929 . S
H1201 C1211 0.929 . S
H1202 C1206 0.929 . S
H1203 C1212 0.929 . S
C1204 H1198 0.930 . S
C1204 C1205 1.367 . S
C1204 C1212 1.378 . S
C1205 C1204 1.367 . S
C1205 C1213 1.433 . S
C1206 H1202 0.929 . S
C1206 C1208 1.378 . S
C1206 C1210 1.350 . S
C1207 C1210 1.463 1_565 S
C1207 C1212 1.350 . S
C1207 N1215 1.427 . S
C1208 H1199 0.930 . S
C1208 C1206 1.378 . S
C1208 C1209 1.367 . S
C1209 C1208 1.367 . S
C1209 C1211 1.433 . S
C1210 C1206 1.350 . S
C1210 C1207 1.463 1_545 S
C1210 N1214 1.427 . S
C1211 H1201 0.929 . S
C1211 C1209 1.433 . S
C1211 N1214 1.384 . S
C1212 H1203 0.929 . S
C1212 C1204 1.378 . S
C1212 C1207 1.350 . S
C1213 H1200 0.929 . S
C1213 C1205 1.433 . S
C1213 N1215 1.384 . S
N1214 C1210 1.427 . S
N1214 C1211 1.384 . S
N1215 C1207 1.427 . S
N1215 C1213 1.384 . S
C359 C8 0.931 . S
C363 C76 0.938 1_545 S
C377 C18 0.940 1_655 S
C381 C40 0.946 . S
C395 C62 0.939 . S
C399 C32 0.935 1_565 S
C413 C84 0.927 . S
C417 C54 0.945 1_455 S
C431 C120 0.935 1_565 S
C435 C96 0.940 . S
C449 C128 0.946 . S
C453 C150 0.942 1_455 S
C467 C172 0.937 1_545 S
C471 C140 0.944 . S
C485 C106 0.940 1_655 S
C489 C162 0.928 . S
C503 C184 0.942 . S
C507 C260 0.936 1_565 S
C521 C194 0.948 1_455 S
C525 C216 0.929 . S
C539 C208 0.935 1_545 S
C543 C238 0.939 . S
C557 C230 0.937 1_655 S
C561 C250 0.931 . S
C575 C304 0.942 1_545 S
C579 C272 0.927 . S
C593 C326 0.941 1_655 S
C597 C294 0.946 . S
C611 C316 0.927 . S
C615 C338 0.943 1_565 S
C629 C340 0.946 . S
C633 C282 0.939 1_455 S
C647 C21 1.757 . S
C651 C117 1.767 . S
C665 C153 1.753 . S
C669 C29 1.761 . S
C683 C51 1.753 . S
C687 C175 1.764 . S
C701 C73 1.753 . S
C705 C109 1.761 . S
C719 C307 1.758 . S
C723 C197 1.767 . S
C737 C329 1.753 . S
C741 C205 1.762 . S
C755 C227 1.767 . S
C759 C345 1.755 . S
C773 C285 1.765 . S
C777 C263 1.762 . S
C791 C10 1.472 . S
C795 C228 1.472 . S
C809 C30 1.474 . S
C813 C252 1.470 . S
C827 C186 1.470 . S
C831 C52 1.474 . S
C845 C74 1.470 . S
C849 C206 1.474 . S
C863 C98 1.473 . S
C867 C318 1.471 . S
C881 C118 1.473 . S
C885 C348 1.471 . S
C899 C142 1.471 . S
C903 C274 1.473 . S
C917 C296 1.471 . S
C921 C164 1.473 . S
C935 C7 0.451 . S
C939 C139 0.423 . S
C953 C161 0.450 . S
C957 C37 0.428 . S
C971 C95 0.406 . S
C975 C59 0.436 . S
C989 C125 0.443 . S
C993 C81 0.441 . S
C1007 C315 0.442 . S
C1011 C183 0.407 . S
C1025 C351 0.406 . S
C1029 C213 0.437 . S
C1043 C271 0.438 . S
C1047 C235 0.406 . S
C1061 C249 0.451 . S
C1065 C293 0.425 . S
C1079 C15 1.904 . S
C1083 C65 1.901 . S
C1097 C43 1.892 . S
C1101 C87 1.888 . S
C1115 C103 1.898 . S
C1119 C147 1.894 . S
C1133 C169 1.889 . S
C1137 C131 1.886 . S
C1151 C241 1.897 . S
C1155 C191 1.901 . S
C1169 C257 1.890 . S
C1173 C219 1.887 . S
C1187 C279 1.893 . S
C1191 C323 1.898 . S
C1205 C301 1.896 . S
C1209 C337 1.900 . S
