# Generated by pormake.
# Topology umw, (4)-cn, num edge types: 1
# Building blocks:
#     Node 0, Type 0, BuildingBlock: TATPOV_clean_sbu_0, # of connection points: 4
#     Node 1, Type 0, BuildingBlock: TATPOV_clean_sbu_0, # of connection points: 4
#     Node 2, Type 0, BuildingBlock: TATPOV_clean_sbu_0, # of connection points: 4
#     Node 3, Type 0, BuildingBlock: TATPOV_clean_sbu_0, # of connection points: 4
#     Node 4, Type 0, BuildingBlock: TATPOV_clean_sbu_0, # of connection points: 4
#     Node 5, Type 0, BuildingBlock: TATPOV_clean_sbu_0, # of connection points: 4
#     Node 6, Type 0, BuildingBlock: TATPOV_clean_sbu_0, # of connection points: 4
#     Node 7, Type 0, BuildingBlock: TATPOV_clean_sbu_0, # of connection points: 4
#     Edge 8, Type (0, 0), BuildingBlock: FUNLAD_clean_linker_1, # of connection points: 2
#     Edge 9, Type (0, 0), BuildingBlock: FUNLAD_clean_linker_1, # of connection points: 2
#     Edge 10, Type (0, 0), BuildingBlock: FUNLAD_clean_linker_1, # of connection points: 2
#     Edge 11, Type (0, 0), BuildingBlock: FUNLAD_clean_linker_1, # of connection points: 2
#     Edge 12, Type (0, 0), BuildingBlock: FUNLAD_clean_linker_1, # of connection points: 2
#     Edge 13, Type (0, 0), BuildingBlock: FUNLAD_clean_linker_1, # of connection points: 2
#     Edge 14, Type (0, 0), BuildingBlock: FUNLAD_clean_linker_1, # of connection points: 2
#     Edge 15, Type (0, 0), BuildingBlock: FUNLAD_clean_linker_1, # of connection points: 2
#     Edge 16, Type (0, 0), BuildingBlock: FUNLAD_clean_linker_1, # of connection points: 2
#     Edge 17, Type (0, 0), BuildingBlock: FUNLAD_clean_linker_1, # of connection points: 2
#     Edge 18, Type (0, 0), BuildingBlock: FUNLAD_clean_linker_1, # of connection points: 2
#     Edge 19, Type (0, 0), BuildingBlock: FUNLAD_clean_linker_1, # of connection points: 2
#     Edge 20, Type (0, 0), BuildingBlock: FUNLAD_clean_linker_1, # of connection points: 2
#     Edge 21, Type (0, 0), BuildingBlock: FUNLAD_clean_linker_1, # of connection points: 2
#     Edge 22, Type (0, 0), BuildingBlock: FUNLAD_clean_linker_1, # of connection points: 2
#     Edge 23, Type (0, 0), BuildingBlock: FUNLAD_clean_linker_1, # of connection points: 2
# Relax obj value: 0.145
# Max RMSD: 0.109
# Mean RMSD: 0.109
data_MOF--net-umw--node1-TATPOV_clean_sbu_0--edge1-FUNLAD_clean_linker_1
_symmetry_space_group_name_H-M    P1
_symmetry_Int_Tables_number       1
_symmetry_cell_setting            triclinic
loop_
_symmetry_equiv_pos_as_xyz
'x, y, z'
_cell_length_a     44.226869
_cell_length_b     44.204451
_cell_length_c     25.542783
_cell_angle_alpha  89.99146
_cell_angle_beta   89.927637
_cell_angle_gamma 89.981744
loop_
_atom_site_label
_atom_site_type_symbol
_atom_site_fract_x
_atom_site_fract_y
_atom_site_fract_z
_atom_type_partial_charge
Zn0 Zn 0.42847 0.13668 0.25183 0.0
Zn1 Zn 0.38022 0.17229 0.26554 0.0
O2 O 0.40179 0.19149 0.20135 0.0
O3 O 0.4413 0.16176 0.19064 0.0
O4 O 0.34463 0.19974 0.27884 0.0
O5 O 0.44397 0.14693 0.32341 0.0
O6 O 0.40334 0.1749 0.33545 0.0
C7 C 0.42597 0.1846 0.17687 0.0
C8 C 0.37195 0.10434 0.24656 0.0
O9 O 0.3605 0.1304 0.25431 0.0
O10 O 0.40037 0.10123 0.24321 0.0
C11 C 0.34889 0.22511 0.30095 0.0
O12 O 0.37656 0.23358 0.31256 0.0
C13 C 0.42812 0.16397 0.35229 0.0
Zn14 Zn 0.85897 0.4313 0.48207 0.0
Zn15 Zn 0.82202 0.38672 0.51201 0.0
O16 O 0.80321 0.40091 0.44161 0.0
O17 O 0.83284 0.43902 0.42016 0.0
O18 O 0.79422 0.35401 0.53831 0.0
O19 O 0.85045 0.45403 0.54861 0.0
O20 O 0.81917 0.41759 0.57163 0.0
C21 C 0.8099 0.42275 0.41111 0.0
C22 C 0.88985 0.3748 0.49563 0.0
O23 O 0.86378 0.36581 0.51004 0.0
O24 O 0.89348 0.40163 0.47939 0.0
C25 C 0.76574 0.3578 0.53824 0.0
O26 O 0.7543 0.38257 0.518 0.0
C27 C 0.8318 0.44288 0.58089 0.0
Zn28 Zn 0.5574 0.84438 0.77747 0.0
Zn29 Zn 0.60992 0.81869 0.79188 0.0
O30 O 0.59434 0.79659 0.72571 0.0
O31 O 0.54715 0.81262 0.72477 0.0
O32 O 0.64931 0.79814 0.80831 0.0
O33 O 0.54485 0.83767 0.85146 0.0
O34 O 0.58568 0.80955 0.85917 0.0
C35 C 0.56763 0.7954 0.70725 0.0
C36 C 0.60582 0.88618 0.76565 0.0
O37 O 0.62143 0.86376 0.78165 0.0
O38 O 0.57784 0.88319 0.75695 0.0
C39 C 0.67428 0.80302 0.78515 0.0
O40 O 0.67549 0.82253 0.74647 0.0
C41 C 0.56102 0.81973 0.87794 0.0
Zn42 Zn 0.1442 0.56744 0.0405 0.0
Zn43 Zn 0.18028 0.61493 0.05346 0.0
O44 O 0.19882 0.59416 0.98816 0.0
O45 O 0.16937 0.55433 0.97944 0.0
O46 O 0.20778 0.65026 0.06671 0.0
O47 O 0.15401 0.55229 0.11257 0.0
O48 O 0.18525 0.5907 0.12175 0.0
C49 C 0.19184 0.56981 0.96439 0.0
C50 C 0.11196 0.62348 0.03561 0.0
O51 O 0.13797 0.6347 0.04474 0.0
O52 O 0.10885 0.59516 0.03066 0.0
C53 C 0.21012 0.67302 0.03659 0.0
O54 O 0.19406 0.6742 0.99346 0.0
C55 C 0.17309 0.56675 0.13967 0.0
Zn56 Zn 0.45273 0.86779 0.3357 0.0
Zn57 Zn 0.4076 0.83134 0.30585 0.0
O58 O 0.42203 0.81072 0.37369 0.0
O59 O 0.46177 0.83848 0.39355 0.0
O60 O 0.37411 0.80454 0.28009 0.0
O61 O 0.47314 0.86218 0.26593 0.0
O62 O 0.43847 0.82818 0.24645 0.0
C63 C 0.44499 0.81584 0.40238 0.0
C64 C 0.39628 0.89872 0.32939 0.0
O65 O 0.38718 0.87329 0.31198 0.0
O66 O 0.42315 0.90185 0.34534 0.0
C67 C 0.36251 0.80987 0.23558 0.0
O68 O 0.37215 0.83308 0.20808 0.0
C69 C 0.46274 0.84228 0.23534 0.0
Zn70 Zn 0.12374 0.44486 0.59667 0.0
Zn71 Zn 0.17007 0.41013 0.56363 0.0
O72 O 0.18519 0.42636 0.63489 0.0
O73 O 0.14672 0.45405 0.66216 0.0
O74 O 0.20406 0.38376 0.53785 0.0
O75 O 0.12912 0.47045 0.53088 0.0
O76 O 0.16857 0.44292 0.50812 0.0
C77 C 0.17305 0.44364 0.66889 0.0
C78 C 0.10537 0.38438 0.57656 0.0
O79 O 0.13262 0.38178 0.56095 0.0
O80 O 0.09608 0.40904 0.59587 0.0
C81 C 0.20059 0.36921 0.49542 0.0
O82 O 0.17485 0.37131 0.47001 0.0
C83 C 0.15081 0.46504 0.49984 0.0
Zn84 Zn 0.55095 0.13139 0.80479 0.0
Zn85 Zn 0.5961 0.16985 0.78001 0.0
O86 O 0.57868 0.18865 0.84795 0.0
O87 O 0.54361 0.15541 0.87004 0.0
O88 O 0.62838 0.19901 0.75642 0.0
O89 O 0.52887 0.14218 0.73833 0.0
O90 O 0.56735 0.17136 0.71714 0.0
C91 C 0.55796 0.17959 0.87894 0.0
C92 C 0.6091 0.10224 0.79692 0.0
O93 O 0.6185 0.12895 0.78762 0.0
O94 O 0.58124 0.09743 0.805 0.0
C95 C 0.65624 0.19706 0.76808 0.0
O96 O 0.66553 0.1755 0.79952 0.0
C97 C 0.5417 0.15994 0.70641 0.0
Zn98 Zn 0.86162 0.54606 0.03971 0.0
Zn99 Zn 0.83153 0.59796 0.02841 0.0
O100 O 0.80853 0.57658 0.08894 0.0
O101 O 0.83035 0.5317 0.09046 0.0
O102 O 0.80746 0.63578 0.01516 0.0
O103 O 0.85598 0.53576 0.96417 0.0
O104 O 0.82884 0.57728 0.95633 0.0
C105 C 0.81006 0.54962 0.10643 0.0
C106 C 0.89811 0.59897 0.05943 0.0
O107 O 0.87437 0.61323 0.04566 0.0
O108 O 0.89797 0.5704 0.06266 0.0
C109 C 0.81566 0.65313 0.97815 0.0
O110 O 0.84045 0.64686 0.95186 0.0
C111 C 0.83988 0.55324 0.93664 0.0
H112 H 0.42147 0.18054 0.43316 0.0
C113 C 0.43738 0.16957 0.40681 0.0
H114 H 0.47974 0.14804 0.39907 0.0
H115 H 0.49273 0.21504 0.63145 0.0
H116 H 0.48798 0.2628 0.58526 0.0
H117 H 0.47668 0.26393 0.49071 0.0
H118 H 0.46949 0.21739 0.44205 0.0
C119 C 0.46411 0.15972 0.42499 0.0
C120 C 0.47133 0.15974 0.48171 0.0
C121 C 0.47644 0.1872 0.50898 0.0
C122 C 0.48432 0.18653 0.56293 0.0
C123 C 0.4879 0.21425 0.58997 0.0
C124 C 0.48504 0.24182 0.56401 0.0
C125 C 0.47857 0.24246 0.51082 0.0
C126 C 0.47433 0.21555 0.4834 0.0
H127 H 0.54171 0.17713 0.62541 0.0
C128 C 0.52793 0.16612 0.6551 0.0
H129 H 0.48602 0.14561 0.67252 0.0
H130 H 0.46093 0.10309 0.44176 0.0
H131 H 0.46687 0.05543 0.48742 0.0
H132 H 0.48314 0.05416 0.57971 0.0
H133 H 0.49325 0.10052 0.62698 0.0
C134 C 0.49975 0.15712 0.64336 0.0
C135 C 0.48839 0.15839 0.58869 0.0
C136 C 0.48276 0.13097 0.56162 0.0
C137 C 0.47404 0.13166 0.50816 0.0
C138 C 0.46818 0.10393 0.48217 0.0
C139 C 0.4714 0.07636 0.50794 0.0
C140 C 0.48051 0.07565 0.55991 0.0
C141 C 0.48618 0.10252 0.58662 0.0
H142 H 0.81447 0.44536 0.66166 0.0
C143 C 0.82651 0.45785 0.63145 0.0
H144 H 0.85089 0.49747 0.61276 0.0
H145 H 0.78401 0.52006 0.84633 0.0
H146 H 0.73647 0.51836 0.79935 0.0
H147 H 0.7353 0.50803 0.70445 0.0
H148 H 0.78173 0.49871 0.65626 0.0
C149 C 0.83824 0.48514 0.64236 0.0
C150 C 0.83893 0.49655 0.69695 0.0
C151 C 0.81174 0.50348 0.72385 0.0
C152 C 0.81256 0.51088 0.77797 0.0
C153 C 0.78489 0.5156 0.80476 0.0
C154 C 0.75738 0.51449 0.77831 0.0
C155 C 0.75671 0.50856 0.72493 0.0
C156 C 0.7835 0.50308 0.69781 0.0
H157 H 0.82485 0.5635 0.85603 0.0
C158 C 0.83459 0.54619 0.88112 0.0
H159 H 0.85243 0.50199 0.88595 0.0
H160 H 0.89541 0.48531 0.65635 0.0
H161 H 0.94312 0.48965 0.70206 0.0
H162 H 0.94477 0.50545 0.79463 0.0
H163 H 0.89864 0.51659 0.84214 0.0
C164 C 0.8422 0.51915 0.86114 0.0
C165 C 0.84075 0.51277 0.80422 0.0
C166 C 0.86803 0.50721 0.77663 0.0
C167 C 0.86712 0.49885 0.72301 0.0
C168 C 0.89469 0.49232 0.69689 0.0
C169 C 0.92231 0.49466 0.72269 0.0
C170 C 0.92323 0.50349 0.77481 0.0
C171 C 0.89652 0.50973 0.80166 0.0
H172 H 0.49466 0.85335 0.17252 0.0
C173 C 0.47865 0.83638 0.18605 0.0
H174 H 0.45833 0.79405 0.17096 0.0
H175 H 0.47624 0.80968 0.92608 0.0
H176 H 0.42221 0.80127 0.93383 0.0
H177 H 0.39814 0.79615 0.02053 0.0
H178 H 0.42798 0.79864 0.09987 0.0
C179 C 0.47429 0.81113 0.15785 0.0
C180 C 0.48929 0.8077 0.1061 0.0
C181 C 0.47141 0.8059 0.06029 0.0
C182 C 0.48516 0.80972 0.01046 0.0
C183 C 0.46686 0.80766 0.96507 0.0
C184 C 0.43583 0.8027 0.96893 0.0
C185 C 0.42229 0.79973 0.01773 0.0
C186 C 0.43973 0.80129 0.06302 0.0
H187 H 0.56162 0.79086 0.9487 0.0
C188 C 0.55096 0.81032 0.93037 0.0
H189 H 0.51823 0.84479 0.93657 0.0
H190 H 0.53069 0.80226 0.18484 0.0
H191 H 0.58477 0.81145 0.17815 0.0
H192 H 0.60792 0.82503 0.0934 0.0
H193 H 0.57758 0.82841 0.01496 0.0
C194 C 0.52908 0.82561 0.95547 0.0
C195 C 0.51655 0.81605 0.00678 0.0
C196 C 0.53476 0.81582 0.05251 0.0
C197 C 0.52117 0.81023 0.10197 0.0
C198 C 0.53984 0.80802 0.14679 0.0
C199 C 0.57086 0.81303 0.14342 0.0
C200 C 0.5839 0.82052 0.09567 0.0
C201 C 0.56617 0.82208 0.05069 0.0
H202 H 0.135 0.49708 0.43989 0.0
C203 C 0.15413 0.48334 0.45213 0.0
H204 H 0.19836 0.46859 0.4346 0.0
H205 H 0.18329 0.4816 0.19038 0.0
H206 H 0.19564 0.42848 0.20075 0.0
H207 H 0.20052 0.40587 0.28863 0.0
H208 H 0.19351 0.43622 0.36648 0.0
C209 C 0.17927 0.48241 0.42258 0.0
C210 C 0.18007 0.49694 0.37006 0.0
C211 C 0.18417 0.47868 0.32496 0.0
C212 C 0.18062 0.49151 0.27434 0.0
C213 C 0.18511 0.47288 0.22984 0.0
C214 C 0.19232 0.44236 0.23519 0.0
C215 C 0.19512 0.42965 0.28465 0.0
C216 C 0.19106 0.44743 0.32911 0.0
H217 H 0.19971 0.56666 0.21297 0.0
C218 C 0.18095 0.55604 0.19254 0.0
H219 H 0.1464 0.52317 0.19546 0.0
H220 H 0.17865 0.53962 0.44766 0.0
H221 H 0.16521 0.59258 0.43779 0.0
H222 H 0.15315 0.61364 0.35082 0.0
H223 H 0.15536 0.58225 0.27332 0.0
C224 C 0.16484 0.53418 0.21613 0.0
C225 C 0.17243 0.52237 0.26895 0.0
C226 C 0.16953 0.54094 0.31403 0.0
C227 C 0.17449 0.52839 0.36453 0.0
C228 C 0.17349 0.54771 0.40871 0.0
C229 C 0.16606 0.57818 0.40354 0.0
C230 C 0.15941 0.59006 0.35456 0.0
C231 C 0.16101 0.57177 0.31023 0.0
H232 H 0.30022 0.236 0.30576 0.0
C233 C 0.32269 0.24359 0.31686 0.0
H234 H 0.34793 0.27546 0.36043 0.0
H235 H 0.2239 0.35602 0.34135 0.0
H236 H 0.24105 0.36574 0.25278 0.0
H237 H 0.28479 0.33833 0.21607 0.0
H238 H 0.31177 0.30107 0.26792 0.0
C239 C 0.32575 0.26821 0.34717 0.0
C240 C 0.29888 0.28419 0.36848 0.0
C241 C 0.28318 0.30562 0.33753 0.0
C242 C 0.25785 0.32128 0.35867 0.0
C243 C 0.24303 0.34313 0.3272 0.0
C244 C 0.2527 0.34903 0.27628 0.0
C245 C 0.27733 0.3336 0.25561 0.0
C246 C 0.29256 0.31221 0.28575 0.0
H247 H 0.24749 0.35224 0.49398 0.0
C248 C 0.22566 0.35083 0.4746 0.0
H249 H 0.20069 0.33149 0.41271 0.0
H250 H 0.32418 0.24449 0.43799 0.0
H251 H 0.30587 0.23288 0.52527 0.0
H252 H 0.26011 0.25764 0.56018 0.0
H253 H 0.23269 0.29445 0.50845 0.0
C254 C 0.22226 0.33259 0.43293 0.0
C255 C 0.24818 0.31529 0.41067 0.0
C256 C 0.26331 0.29299 0.44096 0.0
C257 C 0.28908 0.27793 0.42018 0.0
C258 C 0.3043 0.25639 0.45167 0.0
C259 C 0.29401 0.24945 0.5018 0.0
C260 C 0.26829 0.26345 0.5215 0.0
C261 C 0.25293 0.28482 0.49153 0.0
H262 H 0.72123 0.33905 0.55985 0.0
C263 C 0.74549 0.3357 0.56355 0.0
H264 H 0.78013 0.31017 0.59962 0.0
H265 H 0.6909 0.27247 0.7843 0.0
H266 H 0.72206 0.30968 0.82824 0.0
H267 H 0.75968 0.33958 0.7791 0.0
H268 H 0.76616 0.33257 0.68557 0.0
C269 C 0.756 0.31295 0.5933 0.0
C270 C 0.73491 0.2932 0.62313 0.0
C271 C 0.73205 0.29691 0.67804 0.0
C272 C 0.71076 0.27924 0.70655 0.0
C273 C 0.70733 0.28454 0.76093 0.0
C274 C 0.72494 0.30602 0.78663 0.0
C275 C 0.74609 0.32288 0.75895 0.0
C276 C 0.74961 0.31858 0.70527 0.0
H277 H 0.70226 0.21451 0.75306 0.0
C278 C 0.67848 0.21761 0.74376 0.0
H279 H 0.64663 0.24149 0.69814 0.0
H280 H 0.7366 0.27882 0.51894 0.0
H281 H 0.70595 0.24113 0.47489 0.0
H282 H 0.66912 0.21034 0.52418 0.0
H283 H 0.66275 0.217 0.61775 0.0
C284 C 0.67023 0.23898 0.70914 0.0
C285 C 0.69294 0.25736 0.68017 0.0
C286 C 0.69617 0.25335 0.62533 0.0
C287 C 0.71727 0.2712 0.59682 0.0
C288 C 0.72051 0.26626 0.54232 0.0
C289 C 0.70318 0.24458 0.51658 0.0
C290 C 0.68246 0.22724 0.54433 0.0
C291 C 0.67896 0.23139 0.59806 0.0
H292 H 0.77407 0.68054 0.98177 0.0
C293 C 0.79547 0.67778 0.96128 0.0
H294 H 0.82234 0.69179 0.89732 0.0
H295 H 0.70738 0.72982 0.76518 0.0
H296 H 0.72677 0.68747 0.71527 0.0
H297 H 0.76993 0.65752 0.74764 0.0
H298 H 0.79386 0.66969 0.83023 0.0
C299 C 0.80153 0.69506 0.91926 0.0
C300 C 0.77811 0.7156 0.89718 0.0
C301 C 0.76494 0.70868 0.84799 0.0
C302 C 0.74026 0.72615 0.82903 0.0
C303 C 0.72662 0.71782 0.78098 0.0
C304 C 0.73742 0.69342 0.75199 0.0
C305 C 0.7617 0.67654 0.77023 0.0
C306 C 0.77528 0.68386 0.81773 0.0
H307 H 0.72256 0.79025 0.77936 0.0
C308 C 0.7018 0.78665 0.80133 0.0
H309 H 0.68128 0.76445 0.86547 0.0
H310 H 0.80129 0.73772 0.98882 0.0
H311 H 0.78249 0.78073 0.03818 0.0
H312 H 0.7391 0.8105 0.00612 0.0
H313 H 0.71438 0.79758 0.92432 0.0
C314 C 0.70162 0.76742 0.84209 0.0
C315 C 0.72915 0.7508 0.85896 0.0
C316 C 0.74312 0.75845 0.90708 0.0
C317 C 0.76783 0.74102 0.92599 0.0
C318 C 0.7819 0.74969 0.97343 0.0
C319 C 0.77148 0.77445 0.00194 0.0
C320 C 0.74707 0.79123 0.98387 0.0
C321 C 0.73302 0.7835 0.93695 0.0
H322 H 0.23191 0.71745 0.02373 0.0
C323 C 0.23046 0.69826 0.05021 0.0
H324 H 0.24479 0.6795 0.12213 0.0
H325 H 0.35703 0.77521 0.08811 0.0
H326 H 0.37137 0.74367 0.01447 0.0
H327 H 0.338 0.70263 0.98399 0.0
H328 H 0.29009 0.69286 0.02689 0.0
C329 C 0.24682 0.69809 0.09451 0.0
C330 C 0.26616 0.72409 0.10993 0.0
C331 C 0.29404 0.72956 0.08411 0.0
C332 C 0.31339 0.7531 0.10196 0.0
C333 C 0.34136 0.75776 0.07607 0.0
C334 C 0.34993 0.73979 0.03379 0.0
C335 C 0.33113 0.71668 0.01662 0.0
C336 C 0.30358 0.71141 0.04148 0.0
H337 H 0.33276 0.76992 0.23832 0.0
C338 C 0.33928 0.78931 0.21468 0.0
H339 H 0.33359 0.81208 0.14259 0.0
H340 H 0.21362 0.72041 0.16636 0.0
H341 H 0.19861 0.75284 0.23848 0.0
H342 H 0.23154 0.79454 0.26785 0.0
H343 H 0.27978 0.80387 0.22561 0.0
C344 C 0.32661 0.79337 0.16741 0.0
C345 C 0.30495 0.77083 0.14589 0.0
C346 C 0.27649 0.76618 0.17024 0.0
C347 C 0.25725 0.74253 0.15264 0.0
C348 C 0.22914 0.73805 0.17817 0.0
C349 C 0.22019 0.75656 0.2195 0.0
C350 C 0.23875 0.78 0.23609 0.0
C351 C 0.26651 0.78495 0.21176 0.0
H352 H 0.38716 0.94666 0.34207 0.0
C353 C 0.37745 0.92609 0.32581 0.0
H354 H 0.34338 0.90805 0.27733 0.0
H355 H 0.33932 0.05761 0.34034 0.0
H356 H 0.32561 0.04156 0.42797 0.0
H357 H 0.31769 0.98752 0.44821 0.0
H358 H 0.32411 0.94909 0.38044 0.0
C359 C 0.35238 0.9281 0.29623 0.0
C360 C 0.34176 0.95876 0.28002 0.0
C361 C 0.33584 0.98101 0.31855 0.0
C362 C 0.33958 0.01216 0.30635 0.0
C363 C 0.33625 0.03369 0.34694 0.0
C364 C 0.32835 0.02475 0.3975 0.0
C365 C 0.32393 0.99432 0.40894 0.0
C366 C 0.32774 0.97257 0.37004 0.0
H367 H 0.32822 0.0797 0.25205 0.0
C368 C 0.35247 0.07713 0.24678 0.0
H369 H 0.38912 0.04689 0.2398 0.0
H370 H 0.34429 0.92213 0.19355 0.0
H371 H 0.35232 0.93833 0.10372 0.0
H372 H 0.35775 0.9925 0.08211 0.0
H373 H 0.35526 0.03085 0.15063 0.0
C374 C 0.36494 0.04939 0.24609 0.0
C375 C 0.34811 0.02075 0.2549 0.0
C376 C 0.34821 0.99882 0.21457 0.0
C377 C 0.34492 0.96766 0.22704 0.0
C378 C 0.34673 0.94609 0.18626 0.0
C379 C 0.35122 0.95511 0.13453 0.0
C380 C 0.35428 0.98562 0.12235 0.0
C381 C 0.35293 0.00733 0.16184 0.0
H382 H 0.91435 0.3376 0.5349 0.0
C383 C 0.91678 0.35618 0.50735 0.0
H384 H 0.94692 0.3851 0.46769 0.0
H385 H 0.03675 0.39911 0.6513 0.0
H386 H 0.00148 0.43829 0.67476 0.0
H387 H 0.95168 0.44179 0.63196 0.0
H388 H 0.93719 0.40603 0.56496 0.0
C389 C 0.94453 0.36599 0.49417 0.0
C390 C 0.97131 0.35907 0.52705 0.0
C391 C 0.97917 0.37957 0.56748 0.0
C392 C 0.00767 0.37715 0.59271 0.0
C393 C 0.01533 0.39905 0.63117 0.0
C394 C 0.99524 0.42195 0.64511 0.0
C395 C 0.96724 0.42396 0.62099 0.0
C396 C 0.95925 0.40322 0.58248 0.0
H397 H 0.0797 0.35703 0.52137 0.0
C398 C 0.08259 0.36151 0.56289 0.0
H399 H 0.06398 0.3597 0.6379 0.0
H400 H 0.96121 0.31425 0.45596 0.0
H401 H 0.9949 0.27218 0.43609 0.0
H402 H 0.04355 0.26654 0.48235 0.0
H403 H 0.05905 0.30311 0.54831 0.0
C404 C 0.06007 0.35541 0.59661 0.0
C405 C 0.0282 0.35391 0.57765 0.0
C406 C 0.01901 0.33175 0.54073 0.0
C407 C 0.99064 0.33458 0.51491 0.0
C408 C 0.98247 0.31291 0.47678 0.0
C409 C 0.00153 0.28869 0.46519 0.0
C410 C 0.02896 0.28554 0.4912 0.0
C411 C 0.03769 0.30673 0.52865 0.0
H412 H 0.60391 0.93404 0.74483 0.0
C413 C 0.61876 0.91671 0.7608 0.0
H414 H 0.65996 0.90849 0.80006 0.0
H415 H 0.63673 0.04988 0.70343 0.0
H416 H 0.6458 0.02771 0.61791 0.0
H417 H 0.65899 0.97367 0.60911 0.0
H418 H 0.66272 0.94135 0.68631 0.0
C419 C 0.6455 0.92506 0.78118 0.0
C420 C 0.65186 0.95803 0.78698 0.0
C421 C 0.65165 0.97698 0.74227 0.0
C422 C 0.64478 0.00824 0.74758 0.0
C423 C 0.64232 0.02611 0.70183 0.0
C424 C 0.6475 0.01365 0.65248 0.0
C425 C 0.65489 0.9832 0.64751 0.0
C426 C 0.65685 0.96493 0.69182 0.0
H427 H 0.65386 0.08025 0.78529 0.0
C428 C 0.63032 0.07637 0.79547 0.0
H429 H 0.59687 0.0443 0.81509 0.0
H430 H 0.65985 0.92958 0.88115 0.0
H431 H 0.65587 0.95266 0.96726 0.0
H432 H 0.64482 0.00714 0.97657 0.0
H433 H 0.63758 0.03889 0.89954 0.0
C434 C 0.62023 0.04807 0.80356 0.0
C435 C 0.63904 0.02042 0.79795 0.0
C436 C 0.64447 0.00252 0.84289 0.0
C437 C 0.65102 0.9712 0.83748 0.0
C438 C 0.65483 0.95349 0.88312 0.0
C439 C 0.65268 0.96648 0.93272 0.0
C440 C 0.64645 0.99717 0.93797 0.0
C441 C 0.64224 0.01508 0.89366 0.0
H442 H 0.94576 0.60094 0.08172 0.0
C443 C 0.92711 0.61464 0.06725 0.0
H444 H 0.91491 0.65627 0.03257 0.0
H445 H 0.05786 0.64553 0.12785 0.0
H446 H 0.03486 0.64926 0.214 0.0
H447 H 0.97968 0.65579 0.22363 0.0
H448 H 0.94712 0.65823 0.14669 0.0
C449 C 0.93279 0.64285 0.05013 0.0
C450 C 0.96491 0.6527 0.04523 0.0
C451 C 0.98373 0.65312 0.09002 0.0
C452 C 0.01554 0.64998 0.08432 0.0
C453 C 0.03361 0.64822 0.12987 0.0
C454 C 0.02067 0.65038 0.17954 0.0
C455 C 0.9896 0.65403 0.18499 0.0
C456 C 0.9712 0.65528 0.1408 0.0
H457 H 0.08685 0.6668 0.04503 0.0
C458 C 0.08477 0.64299 0.03508 0.0
H459 H 0.05537 0.60712 0.01575 0.0
H460 H 0.93581 0.6605 0.95162 0.0
H461 H 0.95923 0.66168 0.86549 0.0
H462 H 0.01457 0.65682 0.8557 0.0
H463 H 0.04685 0.65069 0.93232 0.0
C464 C 0.05734 0.63077 0.02683 0.0
C465 C 0.02828 0.64711 0.03362 0.0
C466 C 0.00993 0.65196 0.9891 0.0
C467 C 0.9781 0.6549 0.99483 0.0
C468 C 0.96012 0.65817 0.94943 0.0
C469 C 0.97329 0.65895 0.89983 0.0
C470 C 0.00446 0.65621 0.8943 0.0
C471 C 0.02268 0.65261 0.93834 0.0
H472 H 0.55346 0.18572 0.96306 0.0
C473 C 0.5496 0.19683 0.92567 0.0
H474 H 0.52268 0.22791 0.88447 0.0
H475 H 0.41831 0.18635 0.03907 0.0
H476 H 0.3975 0.17521 0.95371 0.0
H477 H 0.42632 0.18658 0.87336 0.0
H478 H 0.47622 0.20894 0.87811 0.0
C479 C 0.5286 0.21871 0.92254 0.0
C480 C 0.50753 0.22309 0.96747 0.0
C481 C 0.47758 0.21181 0.96371 0.0
C482 C 0.46076 0.20567 0.01006 0.0
C483 C 0.43192 0.19204 0.00539 0.0
C484 C 0.41968 0.18543 0.95649 0.0
C485 C 0.43591 0.19181 0.91127 0.0
C486 C 0.4646 0.20464 0.91459 0.0
H487 H 0.42218 0.22125 0.11753 0.0
C488 C 0.43623 0.20282 0.13166 0.0
H489 H 0.47686 0.17833 0.1227 0.0
H490 H 0.56048 0.2525 0.98618 0.0
H491 H 0.58011 0.26736 0.07158 0.0
H492 H 0.55085 0.25724 0.15211 0.0
H493 H 0.5018 0.23229 0.14781 0.0
C494 C 0.46232 0.19602 0.1072 0.0
C495 C 0.47378 0.21168 0.05971 0.0
C496 C 0.50186 0.22698 0.06274 0.0
C497 C 0.51875 0.23273 0.01651 0.0
C498 C 0.54707 0.24735 0.02054 0.0
C499 C 0.55844 0.25607 0.06913 0.0
C500 C 0.54195 0.25038 0.11448 0.0
C501 C 0.51398 0.23596 0.11156 0.0
H502 H 0.79353 0.54943 0.18712 0.0
C503 C 0.79027 0.53919 0.14888 0.0
H504 H 0.77309 0.50323 0.10507 0.0
H505 H 0.81293 0.40975 0.27659 0.0
H506 H 0.83134 0.38787 0.19591 0.0
H507 H 0.82203 0.41297 0.11126 0.0
H508 H 0.79453 0.45998 0.1069 0.0
C509 C 0.77577 0.51257 0.14406 0.0
C510 C 0.77152 0.49244 0.1904 0.0
C511 C 0.78625 0.46384 0.19144 0.0
C512 C 0.79134 0.4491 0.24018 0.0
C513 C 0.80805 0.42176 0.24081 0.0
C514 C 0.81882 0.40891 0.19467 0.0
C515 C 0.8136 0.42305 0.14704 0.0
C516 C 0.79773 0.45024 0.14521 0.0
H517 H 0.77449 0.41315 0.35152 0.0
C518 C 0.79126 0.42943 0.36457 0.0
H519 H 0.81175 0.47195 0.35218 0.0
H520 H 0.73333 0.54064 0.19861 0.0
H521 H 0.71114 0.56037 0.27912 0.0
H522 H 0.72081 0.53535 0.36392 0.0
H523 H 0.7524 0.49023 0.36867 0.0
C524 C 0.79597 0.45512 0.33752 0.0
C525 C 0.78113 0.46274 0.28718 0.0
C526 C 0.76242 0.48867 0.28493 0.0
C527 C 0.75731 0.50339 0.23634 0.0
C528 C 0.73848 0.52923 0.23503 0.0
C529 C 0.72551 0.54057 0.28076 0.0
C530 C 0.73094 0.52647 0.32851 0.0
C531 C 0.74919 0.50078 0.33081 0.0
H532 H 0.57128 0.78359 0.6247 0.0
C533 C 0.56044 0.77701 0.66117 0.0
H534 H 0.52455 0.75487 0.69794 0.0
H535 H 0.43526 0.81446 0.53751 0.0
H536 H 0.41341 0.82661 0.62158 0.0
H537 H 0.43705 0.80873 0.70326 0.0
H538 H 0.48263 0.77888 0.70123 0.0
C539 C 0.53452 0.76113 0.66065 0.0
C540 C 0.5149 0.76188 0.61331 0.0
C541 C 0.48699 0.77782 0.61556 0.0
C542 C 0.47302 0.78772 0.56845 0.0
C543 C 0.44656 0.80574 0.57174 0.0
C544 C 0.43376 0.81302 0.61991 0.0
C545 C 0.44708 0.80299 0.66587 0.0
C546 C 0.47345 0.7858 0.66401 0.0
H547 H 0.43602 0.77839 0.45826 0.0
C548 C 0.45229 0.79548 0.44633 0.0
H549 H 0.49535 0.81473 0.45889 0.0
H550 H 0.5625 0.72396 0.59641 0.0
H551 H 0.58241 0.70834 0.51156 0.0
H552 H 0.55834 0.72566 0.42969 0.0
H553 H 0.51411 0.75848 0.43209 0.0
C554 C 0.4785 0.79859 0.47234 0.0
C555 C 0.48658 0.78085 0.51956 0.0
C556 C 0.51198 0.76138 0.51746 0.0
C557 C 0.52605 0.75169 0.56446 0.0
C558 C 0.55149 0.73238 0.56149 0.0
C559 C 0.56295 0.72317 0.5132 0.0
C560 C 0.54938 0.73291 0.4671 0.0
C561 C 0.52416 0.75182 0.46896 0.0
H562 H 0.22977 0.57185 0.90715 0.0
C563 C 0.20992 0.55917 0.91925 0.0
H564 H 0.18241 0.52093 0.90687 0.0
H565 H 0.22161 0.51759 0.66671 0.0
H566 H 0.20805 0.57079 0.65904 0.0
H567 H 0.19871 0.60167 0.73792 0.0
H568 H 0.20314 0.57983 0.82455 0.0
C569 C 0.20169 0.53402 0.8933 0.0
C570 C 0.21816 0.52095 0.84792 0.0
C571 C 0.21617 0.53462 0.79778 0.0
C572 C 0.22099 0.51675 0.75222 0.0
C573 C 0.21791 0.53029 0.70236 0.0
C574 C 0.2102 0.56072 0.69749 0.0
C575 C 0.20498 0.5781 0.74192 0.0
C576 C 0.20767 0.56528 0.79156 0.0
H577 H 0.17583 0.45673 0.75099 0.0
C578 C 0.18937 0.45326 0.71588 0.0
H579 H 0.23016 0.46473 0.67749 0.0
H580 H 0.23206 0.49065 0.93775 0.0
H581 H 0.24826 0.43804 0.94438 0.0
H582 H 0.25502 0.40688 0.86494 0.0
H583 H 0.24574 0.42826 0.77824 0.0
C584 C 0.21734 0.46499 0.71381 0.0
C585 C 0.22663 0.48535 0.75718 0.0
C586 C 0.23305 0.47299 0.80686 0.0
C587 C 0.22897 0.49089 0.8524 0.0
C588 C 0.23456 0.47775 0.90195 0.0
C589 C 0.24395 0.44773 0.90619 0.0
C590 C 0.24776 0.43018 0.86145 0.0
C591 C 0.2423 0.44256 0.81216 0.0
loop_
_geom_bond_atom_site_label_1
_geom_bond_atom_site_label_2
_geom_bond_distance
_geom_bond_site_symmetry_2
_ccdc_geom_bond_type
Zn0 O3 2.031 . S
Zn0 O5 2.049 . S
Zn0 O10 2.067 . S
Zn1 O2 1.962 . S
Zn1 O4 1.986 . S
Zn1 O6 1.996 . S
Zn1 O9 1.943 . S
O2 Zn1 1.962 . S
O2 C7 1.254 . S
O3 Zn0 2.031 . S
O3 C7 1.269 . S
O4 Zn1 1.986 . S
O4 C11 1.262 . S
O5 Zn0 2.049 . S
O5 C13 1.260 . S
O6 Zn1 1.996 . S
O6 C13 1.257 . S
C7 O2 1.254 . S
C7 O3 1.269 . S
C8 O9 1.249 . S
C8 O10 1.270 . S
O9 Zn1 1.943 . S
O9 C8 1.249 . S
O10 Zn0 2.067 . S
O10 C8 1.270 . S
C11 O4 1.262 . S
C11 O12 1.232 . S
O12 C11 1.232 . S
C13 O5 1.260 . S
C13 O6 1.257 . S
Zn14 O17 2.031 . S
Zn14 O19 2.049 . S
Zn14 O24 2.067 . S
Zn15 O16 1.962 . S
Zn15 O18 1.986 . S
Zn15 O20 1.996 . S
Zn15 O23 1.943 . S
O16 Zn15 1.962 . S
O16 C21 1.254 . S
O17 Zn14 2.031 . S
O17 C21 1.269 . S
O18 Zn15 1.986 . S
O18 C25 1.262 . S
O19 Zn14 2.049 . S
O19 C27 1.260 . S
O20 Zn15 1.996 . S
O20 C27 1.257 . S
C21 O16 1.254 . S
C21 O17 1.269 . S
C22 O23 1.249 . S
C22 O24 1.270 . S
O23 Zn15 1.943 . S
O23 C22 1.249 . S
O24 Zn14 2.067 . S
O24 C22 1.270 . S
C25 O18 1.262 . S
C25 O26 1.232 . S
O26 C25 1.232 . S
C27 O19 1.260 . S
C27 O20 1.257 . S
Zn28 O31 2.031 . S
Zn28 O33 2.049 . S
Zn28 O38 2.067 . S
Zn29 O30 1.962 . S
Zn29 O32 1.986 . S
Zn29 O34 1.996 . S
Zn29 O37 1.943 . S
O30 Zn29 1.962 . S
O30 C35 1.254 . S
O31 Zn28 2.031 . S
O31 C35 1.269 . S
O32 Zn29 1.986 . S
O32 C39 1.262 . S
O33 Zn28 2.049 . S
O33 C41 1.260 . S
O34 Zn29 1.996 . S
O34 C41 1.257 . S
C35 O30 1.254 . S
C35 O31 1.269 . S
C36 O37 1.249 . S
C36 O38 1.270 . S
O37 Zn29 1.943 . S
O37 C36 1.249 . S
O38 Zn28 2.067 . S
O38 C36 1.270 . S
C39 O32 1.262 . S
C39 O40 1.232 . S
O40 C39 1.232 . S
C41 O33 1.260 . S
C41 O34 1.257 . S
Zn42 O45 2.031 1_554 S
Zn42 O47 2.049 . S
Zn42 O52 2.067 . S
Zn43 O44 1.962 1_554 S
Zn43 O46 1.986 . S
Zn43 O48 1.996 . S
Zn43 O51 1.943 . S
O44 Zn43 1.962 1_556 S
O44 C49 1.254 . S
O45 Zn42 2.031 1_556 S
O45 C49 1.269 . S
O46 Zn43 1.986 . S
O46 C53 1.262 . S
O47 Zn42 2.049 . S
O47 C55 1.260 . S
O48 Zn43 1.996 . S
O48 C55 1.257 . S
C49 O44 1.254 . S
C49 O45 1.269 . S
C50 O51 1.249 . S
C50 O52 1.270 . S
O51 Zn43 1.943 . S
O51 C50 1.249 . S
O52 Zn42 2.067 . S
O52 C50 1.270 . S
C53 O46 1.262 . S
C53 O54 1.232 . S
O54 C53 1.232 . S
C55 O47 1.260 . S
C55 O48 1.257 . S
Zn56 O59 2.031 . S
Zn56 O61 2.049 . S
Zn56 O66 2.067 . S
Zn57 O58 1.962 . S
Zn57 O60 1.986 . S
Zn57 O62 1.996 . S
Zn57 O65 1.943 . S
O58 Zn57 1.962 . S
O58 C63 1.254 . S
O59 Zn56 2.031 . S
O59 C63 1.269 . S
O60 Zn57 1.986 . S
O60 C67 1.262 . S
O61 Zn56 2.049 . S
O61 C69 1.260 . S
O62 Zn57 1.996 . S
O62 C69 1.257 . S
C63 O58 1.254 . S
C63 O59 1.269 . S
C64 O65 1.249 . S
C64 O66 1.270 . S
O65 Zn57 1.943 . S
O65 C64 1.249 . S
O66 Zn56 2.067 . S
O66 C64 1.270 . S
C67 O60 1.262 . S
C67 O68 1.232 . S
O68 C67 1.232 . S
C69 O61 1.260 . S
C69 O62 1.257 . S
Zn70 O73 2.031 . S
Zn70 O75 2.049 . S
Zn70 O80 2.067 . S
Zn71 O72 1.962 . S
Zn71 O74 1.986 . S
Zn71 O76 1.996 . S
Zn71 O79 1.943 . S
O72 Zn71 1.962 . S
O72 C77 1.254 . S
O73 Zn70 2.031 . S
O73 C77 1.269 . S
O74 Zn71 1.986 . S
O74 C81 1.262 . S
O75 Zn70 2.049 . S
O75 C83 1.260 . S
O76 Zn71 1.996 . S
O76 C83 1.257 . S
C77 O72 1.254 . S
C77 O73 1.269 . S
C78 O79 1.249 . S
C78 O80 1.270 . S
O79 Zn71 1.943 . S
O79 C78 1.249 . S
O80 Zn70 2.067 . S
O80 C78 1.270 . S
C81 O74 1.262 . S
C81 O82 1.232 . S
O82 C81 1.232 . S
C83 O75 1.260 . S
C83 O76 1.257 . S
Zn84 O87 2.031 . S
Zn84 O89 2.049 . S
Zn84 O94 2.067 . S
Zn85 O86 1.962 . S
Zn85 O88 1.986 . S
Zn85 O90 1.996 . S
Zn85 O93 1.943 . S
O86 Zn85 1.962 . S
O86 C91 1.254 . S
O87 Zn84 2.031 . S
O87 C91 1.269 . S
O88 Zn85 1.986 . S
O88 C95 1.262 . S
O89 Zn84 2.049 . S
O89 C97 1.260 . S
O90 Zn85 1.996 . S
O90 C97 1.257 . S
C91 O86 1.254 . S
C91 O87 1.269 . S
C92 O93 1.249 . S
C92 O94 1.270 . S
O93 Zn85 1.943 . S
O93 C92 1.249 . S
O94 Zn84 2.067 . S
O94 C92 1.270 . S
C95 O88 1.262 . S
C95 O96 1.232 . S
O96 C95 1.232 . S
C97 O89 1.260 . S
C97 O90 1.257 . S
Zn98 O101 2.031 . S
Zn98 O103 2.049 1_554 S
Zn98 O108 2.067 . S
Zn99 O100 1.962 . S
Zn99 O102 1.986 1_554 S
Zn99 O104 1.996 1_554 S
Zn99 O107 1.943 . S
O100 Zn99 1.962 . S
O100 C105 1.254 . S
O101 Zn98 2.031 . S
O101 C105 1.269 . S
O102 Zn99 1.986 1_556 S
O102 C109 1.262 1_556 S
O103 Zn98 2.049 1_556 S
O103 C111 1.260 . S
O104 Zn99 1.996 1_556 S
O104 C111 1.257 . S
C105 O100 1.254 . S
C105 O101 1.269 . S
C106 O107 1.249 . S
C106 O108 1.270 . S
O107 Zn99 1.943 . S
O107 C106 1.249 . S
O108 Zn98 2.067 . S
O108 C106 1.270 . S
C109 O102 1.262 1_554 S
C109 O110 1.232 . S
O110 C109 1.232 . S
C111 O103 1.260 . S
C111 O104 1.257 . S
H112 C113 0.951 . S
C113 H112 0.951 . S
C113 C119 1.265 . S
H114 C119 0.950 . S
H115 C123 0.949 . S
H116 C124 0.950 . S
H117 C125 0.951 . S
H118 C126 0.951 . S
C119 C113 1.265 . S
C119 H114 0.950 . S
C119 C120 1.478 . S
C120 C119 1.478 . S
C120 C121 1.397 . S
C120 C137 1.394 . S
C121 C120 1.397 . S
C121 C122 1.438 . S
C121 C126 1.429 . S
C122 C121 1.438 . S
C122 C123 1.428 . S
C122 C135 1.394 . S
C123 H115 0.949 . S
C123 C122 1.428 . S
C123 C124 1.345 . S
C124 H116 0.950 . S
C124 C123 1.345 . S
C124 C125 1.424 . S
C125 H117 0.951 . S
C125 C124 1.424 . S
C125 C126 1.347 . S
C126 H118 0.951 . S
C126 C121 1.429 . S
C126 C125 1.347 . S
H127 C128 0.951 . S
C128 H127 0.951 . S
C128 C134 1.265 . S
H129 C134 0.950 . S
H130 C138 0.949 . S
H131 C139 0.950 . S
H132 C140 0.951 . S
H133 C141 0.951 . S
C134 C128 1.265 . S
C134 H129 0.950 . S
C134 C135 1.478 . S
C135 C122 1.394 . S
C135 C134 1.478 . S
C135 C136 1.397 . S
C136 C135 1.397 . S
C136 C137 1.438 . S
C136 C141 1.429 . S
C137 C120 1.394 . S
C137 C136 1.438 . S
C137 C138 1.428 . S
C138 H130 0.949 . S
C138 C137 1.428 . S
C138 C139 1.345 . S
C139 H131 0.950 . S
C139 C138 1.345 . S
C139 C140 1.424 . S
C140 H132 0.951 . S
C140 C139 1.424 . S
C140 C141 1.347 . S
C141 H133 0.951 . S
C141 C136 1.429 . S
C141 C140 1.347 . S
H142 C143 0.951 . S
C143 H142 0.951 . S
C143 C149 1.265 . S
H144 C149 0.950 . S
H145 C153 0.949 . S
H146 C154 0.950 . S
H147 C155 0.951 . S
H148 C156 0.951 . S
C149 C143 1.265 . S
C149 H144 0.950 . S
C149 C150 1.478 . S
C150 C149 1.478 . S
C150 C151 1.397 . S
C150 C167 1.394 . S
C151 C150 1.397 . S
C151 C152 1.438 . S
C151 C156 1.429 . S
C152 C151 1.438 . S
C152 C153 1.428 . S
C152 C165 1.394 . S
C153 H145 0.949 . S
C153 C152 1.428 . S
C153 C154 1.345 . S
C154 H146 0.950 . S
C154 C153 1.345 . S
C154 C155 1.424 . S
C155 H147 0.951 . S
C155 C154 1.424 . S
C155 C156 1.347 . S
C156 H148 0.951 . S
C156 C151 1.429 . S
C156 C155 1.347 . S
H157 C158 0.951 . S
C158 H157 0.951 . S
C158 C164 1.265 . S
H159 C164 0.950 . S
H160 C168 0.949 . S
H161 C169 0.950 . S
H162 C170 0.951 . S
H163 C171 0.951 . S
C164 C158 1.265 . S
C164 H159 0.950 . S
C164 C165 1.478 . S
C165 C152 1.394 . S
C165 C164 1.478 . S
C165 C166 1.397 . S
C166 C165 1.397 . S
C166 C167 1.438 . S
C166 C171 1.429 . S
C167 C150 1.394 . S
C167 C166 1.438 . S
C167 C168 1.428 . S
C168 H160 0.949 . S
C168 C167 1.428 . S
C168 C169 1.345 . S
C169 H161 0.950 . S
C169 C168 1.345 . S
C169 C170 1.424 . S
C170 H162 0.951 . S
C170 C169 1.424 . S
C170 C171 1.347 . S
C171 H163 0.951 . S
C171 C166 1.429 . S
C171 C170 1.347 . S
H172 C173 0.951 . S
C173 H172 0.951 . S
C173 C179 1.265 . S
H174 C179 0.950 . S
H175 C183 0.949 . S
H176 C184 0.950 . S
H177 C185 0.951 . S
H178 C186 0.951 . S
C179 C173 1.265 . S
C179 H174 0.950 . S
C179 C180 1.478 . S
C180 C179 1.478 . S
C180 C181 1.397 . S
C180 C197 1.394 . S
C181 C180 1.397 . S
C181 C182 1.438 1_554 S
C181 C186 1.429 . S
C182 C181 1.438 1_556 S
C182 C183 1.428 . S
C182 C195 1.394 . S
C183 H175 0.949 . S
C183 C182 1.428 . S
C183 C184 1.345 . S
C184 H176 0.950 . S
C184 C183 1.345 . S
C184 C185 1.424 . S
C185 H177 0.951 . S
C185 C184 1.424 . S
C185 C186 1.347 1_556 S
C186 H178 0.951 . S
C186 C181 1.429 . S
C186 C185 1.347 1_554 S
H187 C188 0.951 . S
C188 H187 0.951 . S
C188 C194 1.265 . S
H189 C194 0.950 . S
H190 C198 0.949 . S
H191 C199 0.950 . S
H192 C200 0.951 . S
H193 C201 0.951 . S
C194 C188 1.265 . S
C194 H189 0.950 . S
C194 C195 1.478 . S
C195 C182 1.394 . S
C195 C194 1.478 . S
C195 C196 1.397 1_556 S
C196 C195 1.397 1_554 S
C196 C197 1.438 . S
C196 C201 1.429 . S
C197 C180 1.394 . S
C197 C196 1.438 . S
C197 C198 1.428 . S
C198 H190 0.949 . S
C198 C197 1.428 . S
C198 C199 1.345 . S
C199 H191 0.950 . S
C199 C198 1.345 . S
C199 C200 1.424 . S
C200 H192 0.951 . S
C200 C199 1.424 . S
C200 C201 1.347 . S
C201 H193 0.951 . S
C201 C196 1.429 . S
C201 C200 1.347 . S
H202 C203 0.951 . S
C203 H202 0.951 . S
C203 C209 1.265 . S
H204 C209 0.950 . S
H205 C213 0.949 . S
H206 C214 0.950 . S
H207 C215 0.951 . S
H208 C216 0.951 . S
C209 C203 1.265 . S
C209 H204 0.950 . S
C209 C210 1.478 . S
C210 C209 1.478 . S
C210 C211 1.397 . S
C210 C227 1.394 . S
C211 C210 1.397 . S
C211 C212 1.438 . S
C211 C216 1.429 . S
C212 C211 1.438 . S
C212 C213 1.428 . S
C212 C225 1.394 . S
C213 H205 0.949 . S
C213 C212 1.428 . S
C213 C214 1.345 . S
C214 H206 0.950 . S
C214 C213 1.345 . S
C214 C215 1.424 . S
C215 H207 0.951 . S
C215 C214 1.424 . S
C215 C216 1.347 . S
C216 H208 0.951 . S
C216 C211 1.429 . S
C216 C215 1.347 . S
H217 C218 0.951 . S
C218 H217 0.951 . S
C218 C224 1.265 . S
H219 C224 0.950 . S
H220 C228 0.949 . S
H221 C229 0.950 . S
H222 C230 0.951 . S
H223 C231 0.951 . S
C224 C218 1.265 . S
C224 H219 0.950 . S
C224 C225 1.478 . S
C225 C212 1.394 . S
C225 C224 1.478 . S
C225 C226 1.397 . S
C226 C225 1.397 . S
C226 C227 1.438 . S
C226 C231 1.429 . S
C227 C210 1.394 . S
C227 C226 1.438 . S
C227 C228 1.428 . S
C228 H220 0.949 . S
C228 C227 1.428 . S
C228 C229 1.345 . S
C229 H221 0.950 . S
C229 C228 1.345 . S
C229 C230 1.424 . S
C230 H222 0.951 . S
C230 C229 1.424 . S
C230 C231 1.347 . S
C231 H223 0.951 . S
C231 C226 1.429 . S
C231 C230 1.347 . S
H232 C233 0.951 . S
C233 H232 0.951 . S
C233 C239 1.265 . S
H234 C239 0.950 . S
H235 C243 0.949 . S
H236 C244 0.950 . S
H237 C245 0.951 . S
H238 C246 0.951 . S
C239 C233 1.265 . S
C239 H234 0.950 . S
C239 C240 1.478 . S
C240 C239 1.478 . S
C240 C241 1.397 . S
C240 C257 1.394 . S
C241 C240 1.397 . S
C241 C242 1.438 . S
C241 C246 1.429 . S
C242 C241 1.438 . S
C242 C243 1.428 . S
C242 C255 1.394 . S
C243 H235 0.949 . S
C243 C242 1.428 . S
C243 C244 1.345 . S
C244 H236 0.950 . S
C244 C243 1.345 . S
C244 C245 1.424 . S
C245 H237 0.951 . S
C245 C244 1.424 . S
C245 C246 1.347 . S
C246 H238 0.951 . S
C246 C241 1.429 . S
C246 C245 1.347 . S
H247 C248 0.951 . S
C248 H247 0.951 . S
C248 C254 1.265 . S
H249 C254 0.950 . S
H250 C258 0.949 . S
H251 C259 0.950 . S
H252 C260 0.951 . S
H253 C261 0.951 . S
C254 C248 1.265 . S
C254 H249 0.950 . S
C254 C255 1.478 . S
C255 C242 1.394 . S
C255 C254 1.478 . S
C255 C256 1.397 . S
C256 C255 1.397 . S
C256 C257 1.438 . S
C256 C261 1.429 . S
C257 C240 1.394 . S
C257 C256 1.438 . S
C257 C258 1.428 . S
C258 H250 0.949 . S
C258 C257 1.428 . S
C258 C259 1.345 . S
C259 H251 0.950 . S
C259 C258 1.345 . S
C259 C260 1.424 . S
C260 H252 0.951 . S
C260 C259 1.424 . S
C260 C261 1.347 . S
C261 H253 0.951 . S
C261 C256 1.429 . S
C261 C260 1.347 . S
H262 C263 0.951 . S
C263 H262 0.951 . S
C263 C269 1.265 . S
H264 C269 0.950 . S
H265 C273 0.949 . S
H266 C274 0.950 . S
H267 C275 0.951 . S
H268 C276 0.951 . S
C269 C263 1.265 . S
C269 H264 0.950 . S
C269 C270 1.478 . S
C270 C269 1.478 . S
C270 C271 1.397 . S
C270 C287 1.394 . S
C271 C270 1.397 . S
C271 C272 1.438 . S
C271 C276 1.429 . S
C272 C271 1.438 . S
C272 C273 1.428 . S
C272 C285 1.394 . S
C273 H265 0.949 . S
C273 C272 1.428 . S
C273 C274 1.345 . S
C274 H266 0.950 . S
C274 C273 1.345 . S
C274 C275 1.424 . S
C275 H267 0.951 . S
C275 C274 1.424 . S
C275 C276 1.347 . S
C276 H268 0.951 . S
C276 C271 1.429 . S
C276 C275 1.347 . S
H277 C278 0.951 . S
C278 H277 0.951 . S
C278 C284 1.265 . S
H279 C284 0.950 . S
H280 C288 0.949 . S
H281 C289 0.950 . S
H282 C290 0.951 . S
H283 C291 0.951 . S
C284 C278 1.265 . S
C284 H279 0.950 . S
C284 C285 1.478 . S
C285 C272 1.394 . S
C285 C284 1.478 . S
C285 C286 1.397 . S
C286 C285 1.397 . S
C286 C287 1.438 . S
C286 C291 1.429 . S
C287 C270 1.394 . S
C287 C286 1.438 . S
C287 C288 1.428 . S
C288 H280 0.949 . S
C288 C287 1.428 . S
C288 C289 1.345 . S
C289 H281 0.950 . S
C289 C288 1.345 . S
C289 C290 1.424 . S
C290 H282 0.951 . S
C290 C289 1.424 . S
C290 C291 1.347 . S
C291 H283 0.951 . S
C291 C286 1.429 . S
C291 C290 1.347 . S
H292 C293 0.951 . S
C293 H292 0.951 . S
C293 C299 1.265 . S
H294 C299 0.950 . S
H295 C303 0.949 . S
H296 C304 0.950 . S
H297 C305 0.951 . S
H298 C306 0.951 . S
C299 C293 1.265 . S
C299 H294 0.950 . S
C299 C300 1.478 . S
C300 C299 1.478 . S
C300 C301 1.397 . S
C300 C317 1.394 . S
C301 C300 1.397 . S
C301 C302 1.438 . S
C301 C306 1.429 . S
C302 C301 1.438 . S
C302 C303 1.428 . S
C302 C315 1.394 . S
C303 H295 0.949 . S
C303 C302 1.428 . S
C303 C304 1.345 . S
C304 H296 0.950 . S
C304 C303 1.345 . S
C304 C305 1.424 . S
C305 H297 0.951 . S
C305 C304 1.424 . S
C305 C306 1.347 . S
C306 H298 0.951 . S
C306 C301 1.429 . S
C306 C305 1.347 . S
H307 C308 0.951 . S
C308 H307 0.951 . S
C308 C314 1.265 . S
H309 C314 0.950 . S
H310 C318 0.949 . S
H311 C319 0.950 . S
H312 C320 0.951 . S
H313 C321 0.951 . S
C314 C308 1.265 . S
C314 H309 0.950 . S
C314 C315 1.478 . S
C315 C302 1.394 . S
C315 C314 1.478 . S
C315 C316 1.397 . S
C316 C315 1.397 . S
C316 C317 1.438 . S
C316 C321 1.429 . S
C317 C300 1.394 . S
C317 C316 1.438 . S
C317 C318 1.428 1_556 S
C318 H310 0.949 . S
C318 C317 1.428 1_554 S
C318 C319 1.345 . S
C319 H311 0.950 . S
C319 C318 1.345 . S
C319 C320 1.424 . S
C320 H312 0.951 . S
C320 C319 1.424 . S
C320 C321 1.347 1_554 S
C321 H313 0.951 . S
C321 C316 1.429 . S
C321 C320 1.347 1_556 S
H322 C323 0.951 . S
C323 H322 0.951 . S
C323 C329 1.265 . S
H324 C329 0.950 . S
H325 C333 0.949 . S
H326 C334 0.950 . S
H327 C335 0.951 1_556 S
H328 C336 0.951 . S
C329 C323 1.265 . S
C329 H324 0.950 . S
C329 C330 1.478 . S
C330 C329 1.478 . S
C330 C331 1.397 . S
C330 C347 1.394 . S
C331 C330 1.397 . S
C331 C332 1.438 . S
C331 C336 1.429 . S
C332 C331 1.438 . S
C332 C333 1.428 . S
C332 C345 1.394 . S
C333 H325 0.949 . S
C333 C332 1.428 . S
C333 C334 1.345 . S
C334 H326 0.950 . S
C334 C333 1.345 . S
C334 C335 1.424 . S
C335 H327 0.951 1_554 S
C335 C334 1.424 . S
C335 C336 1.347 . S
C336 H328 0.951 . S
C336 C331 1.429 . S
C336 C335 1.347 . S
H337 C338 0.951 . S
C338 H337 0.951 . S
C338 C344 1.265 . S
H339 C344 0.950 . S
H340 C348 0.949 . S
H341 C349 0.950 . S
H342 C350 0.951 . S
H343 C351 0.951 . S
C344 C338 1.265 . S
C344 H339 0.950 . S
C344 C345 1.478 . S
C345 C332 1.394 . S
C345 C344 1.478 . S
C345 C346 1.397 . S
C346 C345 1.397 . S
C346 C347 1.438 . S
C346 C351 1.429 . S
C347 C330 1.394 . S
C347 C346 1.438 . S
C347 C348 1.428 . S
C348 H340 0.949 . S
C348 C347 1.428 . S
C348 C349 1.345 . S
C349 H341 0.950 . S
C349 C348 1.345 . S
C349 C350 1.424 . S
C350 H342 0.951 . S
C350 C349 1.424 . S
C350 C351 1.347 . S
C351 H343 0.951 . S
C351 C346 1.429 . S
C351 C350 1.347 . S
H352 C353 0.951 . S
C353 H352 0.951 . S
C353 C359 1.265 . S
H354 C359 0.950 . S
H355 C363 0.949 . S
H356 C364 0.950 . S
H357 C365 0.951 . S
H358 C366 0.951 . S
C359 C353 1.265 . S
C359 H354 0.950 . S
C359 C360 1.478 . S
C360 C359 1.478 . S
C360 C361 1.397 . S
C360 C377 1.394 . S
C361 C360 1.397 . S
C361 C362 1.438 1_565 S
C361 C366 1.429 . S
C362 C361 1.438 1_545 S
C362 C363 1.428 . S
C362 C375 1.394 . S
C363 H355 0.949 . S
C363 C362 1.428 . S
C363 C364 1.345 . S
C364 H356 0.950 . S
C364 C363 1.345 . S
C364 C365 1.424 1_545 S
C365 H357 0.951 . S
C365 C364 1.424 1_565 S
C365 C366 1.347 . S
C366 H358 0.951 . S
C366 C361 1.429 . S
C366 C365 1.347 . S
H367 C368 0.951 . S
C368 H367 0.951 . S
C368 C374 1.265 . S
H369 C374 0.950 . S
H370 C378 0.949 . S
H371 C379 0.950 . S
H372 C380 0.951 . S
H373 C381 0.951 . S
C374 C368 1.265 . S
C374 H369 0.950 . S
C374 C375 1.478 . S
C375 C362 1.394 . S
C375 C374 1.478 . S
C375 C376 1.397 . S
C376 C375 1.397 . S
C376 C377 1.438 1_545 S
C376 C381 1.429 . S
C377 C360 1.394 . S
C377 C376 1.438 1_565 S
C377 C378 1.428 . S
C378 H370 0.949 . S
C378 C377 1.428 . S
C378 C379 1.345 . S
C379 H371 0.950 . S
C379 C378 1.345 . S
C379 C380 1.424 1_565 S
C380 H372 0.951 . S
C380 C379 1.424 1_545 S
C380 C381 1.347 . S
C381 H373 0.951 . S
C381 C376 1.429 . S
C381 C380 1.347 . S
H382 C383 0.951 . S
C383 H382 0.951 . S
C383 C389 1.265 . S
H384 C389 0.950 . S
H385 C393 0.949 . S
H386 C394 0.950 . S
H387 C395 0.951 . S
H388 C396 0.951 . S
C389 C383 1.265 . S
C389 H384 0.950 . S
C389 C390 1.478 . S
C390 C389 1.478 . S
C390 C391 1.397 . S
C390 C407 1.394 . S
C391 C390 1.397 . S
C391 C392 1.438 1_655 S
C391 C396 1.429 . S
C392 C391 1.438 1_455 S
C392 C393 1.428 . S
C392 C405 1.394 . S
C393 H385 0.949 . S
C393 C392 1.428 . S
C393 C394 1.345 . S
C394 H386 0.950 . S
C394 C393 1.345 . S
C394 C395 1.424 1_455 S
C395 H387 0.951 . S
C395 C394 1.424 1_655 S
C395 C396 1.347 . S
C396 H388 0.951 . S
C396 C391 1.429 . S
C396 C395 1.347 . S
H397 C398 0.951 . S
C398 H397 0.951 . S
C398 C404 1.265 . S
H399 C404 0.950 . S
H400 C408 0.949 . S
H401 C409 0.950 . S
H402 C410 0.951 . S
H403 C411 0.951 . S
C404 C398 1.265 . S
C404 H399 0.950 . S
C404 C405 1.478 . S
C405 C392 1.394 . S
C405 C404 1.478 . S
C405 C406 1.397 . S
C406 C405 1.397 . S
C406 C407 1.438 1_455 S
C406 C411 1.429 . S
C407 C390 1.394 . S
C407 C406 1.438 1_655 S
C407 C408 1.428 . S
C408 H400 0.949 . S
C408 C407 1.428 . S
C408 C409 1.345 . S
C409 H401 0.950 . S
C409 C408 1.345 . S
C409 C410 1.424 1_655 S
C410 H402 0.951 . S
C410 C409 1.424 1_455 S
C410 C411 1.347 . S
C411 H403 0.951 . S
C411 C406 1.429 . S
C411 C410 1.347 . S
H412 C413 0.951 . S
C413 H412 0.951 . S
C413 C419 1.265 . S
H414 C419 0.950 . S
H415 C423 0.949 . S
H416 C424 0.950 . S
H417 C425 0.951 . S
H418 C426 0.951 . S
C419 C413 1.265 . S
C419 H414 0.950 . S
C419 C420 1.478 . S
C420 C419 1.478 . S
C420 C421 1.397 . S
C420 C437 1.394 . S
C421 C420 1.397 . S
C421 C422 1.438 1_565 S
C421 C426 1.429 . S
C422 C421 1.438 1_545 S
C422 C423 1.428 . S
C422 C435 1.394 . S
C423 H415 0.949 . S
C423 C422 1.428 . S
C423 C424 1.345 . S
C424 H416 0.950 . S
C424 C423 1.345 . S
C424 C425 1.424 1_545 S
C425 H417 0.951 . S
C425 C424 1.424 1_565 S
C425 C426 1.347 . S
C426 H418 0.951 . S
C426 C421 1.429 . S
C426 C425 1.347 . S
H427 C428 0.951 . S
C428 H427 0.951 . S
C428 C434 1.265 . S
H429 C434 0.950 . S
H430 C438 0.949 . S
H431 C439 0.950 . S
H432 C440 0.951 . S
H433 C441 0.951 . S
C434 C428 1.265 . S
C434 H429 0.950 . S
C434 C435 1.478 . S
C435 C422 1.394 . S
C435 C434 1.478 . S
C435 C436 1.397 . S
C436 C435 1.397 . S
C436 C437 1.438 1_545 S
C436 C441 1.429 . S
C437 C420 1.394 . S
C437 C436 1.438 1_565 S
C437 C438 1.428 . S
C438 H430 0.949 . S
C438 C437 1.428 . S
C438 C439 1.345 . S
C439 H431 0.950 . S
C439 C438 1.345 . S
C439 C440 1.424 1_565 S
C440 H432 0.951 . S
C440 C439 1.424 1_545 S
C440 C441 1.347 . S
C441 H433 0.951 . S
C441 C436 1.429 . S
C441 C440 1.347 . S
H442 C443 0.951 1_556 S
C443 H442 0.951 1_554 S
C443 C449 1.265 . S
H444 C449 0.950 . S
H445 C453 0.949 . S
H446 C454 0.950 . S
H447 C455 0.951 . S
H448 C456 0.951 . S
C449 C443 1.265 . S
C449 H444 0.950 . S
C449 C450 1.478 . S
C450 C449 1.478 . S
C450 C451 1.397 . S
C450 C467 1.394 . S
C451 C450 1.397 . S
C451 C452 1.438 1_655 S
C451 C456 1.429 . S
C452 C451 1.438 1_455 S
C452 C453 1.428 . S
C452 C465 1.394 . S
C453 H445 0.949 . S
C453 C452 1.428 . S
C453 C454 1.345 . S
C454 H446 0.950 . S
C454 C453 1.345 . S
C454 C455 1.424 1_455 S
C455 H447 0.951 . S
C455 C454 1.424 1_655 S
C455 C456 1.347 . S
C456 H448 0.951 . S
C456 C451 1.429 . S
C456 C455 1.347 . S
H457 C458 0.951 . S
C458 H457 0.951 . S
C458 C464 1.265 . S
H459 C464 0.950 1_556 S
H460 C468 0.949 . S
H461 C469 0.950 . S
H462 C470 0.951 . S
H463 C471 0.951 1_556 S
C464 C458 1.265 . S
C464 H459 0.950 1_554 S
C464 C465 1.478 . S
C465 C452 1.394 . S
C465 C464 1.478 . S
C465 C466 1.397 . S
C466 C465 1.397 . S
C466 C467 1.438 1_455 S
C466 C471 1.429 . S
C467 C450 1.394 . S
C467 C466 1.438 1_655 S
C467 C468 1.428 . S
C468 H460 0.949 . S
C468 C467 1.428 . S
C468 C469 1.345 . S
C469 H461 0.950 . S
C469 C468 1.345 . S
C469 C470 1.424 1_654 S
C470 H462 0.951 . S
C470 C469 1.424 1_456 S
C470 C471 1.347 1_556 S
C471 H463 0.951 1_554 S
C471 C466 1.429 . S
C471 C470 1.347 1_554 S
H472 C473 0.951 . S
C473 H472 0.951 . S
C473 C479 1.265 . S
H474 C479 0.950 . S
H475 C483 0.949 . S
H476 C484 0.950 . S
H477 C485 0.951 . S
H478 C486 0.951 . S
C479 C473 1.265 . S
C479 H474 0.950 . S
C479 C480 1.478 . S
C480 C479 1.478 . S
C480 C481 1.393 1_556 S
C480 C497 1.394 1_556 S
C481 C480 1.393 1_554 S
C481 C482 1.449 . S
C481 C486 1.422 1_554 S
C482 C481 1.449 . S
C482 C483 1.428 . S
C482 C495 1.394 . S
C483 H475 0.949 . S
C483 C482 1.428 . S
C483 C484 1.345 . S
C484 H476 0.950 . S
C484 C483 1.345 . S
C484 C485 1.424 1_554 S
C485 H477 0.951 . S
C485 C484 1.424 1_556 S
C485 C486 1.347 . S
C486 H478 0.951 . S
C486 C481 1.422 1_556 S
C486 C485 1.347 . S
H487 C488 0.951 . S
C488 H487 0.951 . S
C488 C494 1.265 . S
H489 C494 0.950 . S
H490 C498 0.949 1_556 S
H491 C499 0.950 . S
H492 C500 0.951 . S
H493 C501 0.951 . S
C494 C488 1.265 . S
C494 H489 0.950 . S
C494 C495 1.478 . S
C495 C482 1.394 . S
C495 C494 1.478 . S
C495 C496 1.397 . S
C496 C495 1.397 . S
C496 C497 1.438 . S
C496 C501 1.429 . S
C497 C480 1.394 1_554 S
C497 C496 1.438 . S
C497 C498 1.428 . S
C498 H490 0.949 1_554 S
C498 C497 1.428 . S
C498 C499 1.345 . S
C499 H491 0.950 . S
C499 C498 1.345 . S
C499 C500 1.424 . S
C500 H492 0.951 . S
C500 C499 1.424 . S
C500 C501 1.347 . S
C501 H493 0.951 . S
C501 C496 1.429 . S
C501 C500 1.347 . S
H502 C503 0.951 . S
C503 H502 0.951 . S
C503 C509 1.265 . S
H504 C509 0.950 . S
H505 C513 0.949 . S
H506 C514 0.950 . S
H507 C515 0.951 . S
H508 C516 0.951 . S
C509 C503 1.265 . S
C509 H504 0.950 . S
C509 C510 1.478 . S
C510 C509 1.478 . S
C510 C511 1.397 . S
C510 C527 1.394 . S
C511 C510 1.397 . S
C511 C512 1.438 . S
C511 C516 1.429 . S
C512 C511 1.438 . S
C512 C513 1.428 . S
C512 C525 1.394 . S
C513 H505 0.949 . S
C513 C512 1.428 . S
C513 C514 1.345 . S
C514 H506 0.950 . S
C514 C513 1.345 . S
C514 C515 1.424 . S
C515 H507 0.951 . S
C515 C514 1.424 . S
C515 C516 1.347 . S
C516 H508 0.951 . S
C516 C511 1.429 . S
C516 C515 1.347 . S
H517 C518 0.951 . S
C518 H517 0.951 . S
C518 C524 1.265 . S
H519 C524 0.950 . S
H520 C528 0.949 . S
H521 C529 0.950 . S
H522 C530 0.951 . S
H523 C531 0.951 . S
C524 C518 1.265 . S
C524 H519 0.950 . S
C524 C525 1.478 . S
C525 C512 1.394 . S
C525 C524 1.478 . S
C525 C526 1.397 . S
C526 C525 1.397 . S
C526 C527 1.438 . S
C526 C531 1.429 . S
C527 C510 1.394 . S
C527 C526 1.438 . S
C527 C528 1.428 . S
C528 H520 0.949 . S
C528 C527 1.428 . S
C528 C529 1.345 . S
C529 H521 0.950 . S
C529 C528 1.345 . S
C529 C530 1.424 . S
C530 H522 0.951 . S
C530 C529 1.424 . S
C530 C531 1.347 . S
C531 H523 0.951 . S
C531 C526 1.429 . S
C531 C530 1.347 . S
H532 C533 0.951 . S
C533 H532 0.951 . S
C533 C539 1.265 . S
H534 C539 0.950 . S
H535 C543 0.949 . S
H536 C544 0.950 . S
H537 C545 0.951 . S
H538 C546 0.951 . S
C539 C533 1.265 . S
C539 H534 0.950 . S
C539 C540 1.478 . S
C540 C539 1.478 . S
C540 C541 1.397 . S
C540 C557 1.394 . S
C541 C540 1.397 . S
C541 C542 1.438 . S
C541 C546 1.429 . S
C542 C541 1.438 . S
C542 C543 1.428 . S
C542 C555 1.394 . S
C543 H535 0.949 . S
C543 C542 1.428 . S
C543 C544 1.345 . S
C544 H536 0.950 . S
C544 C543 1.345 . S
C544 C545 1.424 . S
C545 H537 0.951 . S
C545 C544 1.424 . S
C545 C546 1.347 . S
C546 H538 0.951 . S
C546 C541 1.429 . S
C546 C545 1.347 . S
H547 C548 0.951 . S
C548 H547 0.951 . S
C548 C554 1.265 . S
H549 C554 0.950 . S
H550 C558 0.949 . S
H551 C559 0.950 . S
H552 C560 0.951 . S
H553 C561 0.951 . S
C554 C548 1.265 . S
C554 H549 0.950 . S
C554 C555 1.478 . S
C555 C542 1.394 . S
C555 C554 1.478 . S
C555 C556 1.397 . S
C556 C555 1.397 . S
C556 C557 1.438 . S
C556 C561 1.429 . S
C557 C540 1.394 . S
C557 C556 1.438 . S
C557 C558 1.428 . S
C558 H550 0.949 . S
C558 C557 1.428 . S
C558 C559 1.345 . S
C559 H551 0.950 . S
C559 C558 1.345 . S
C559 C560 1.424 . S
C560 H552 0.951 . S
C560 C559 1.424 . S
C560 C561 1.347 . S
C561 H553 0.951 . S
C561 C556 1.429 . S
C561 C560 1.347 . S
H562 C563 0.951 . S
C563 H562 0.951 . S
C563 C569 1.265 . S
H564 C569 0.950 . S
H565 C573 0.949 . S
H566 C574 0.950 . S
H567 C575 0.951 . S
H568 C576 0.951 . S
C569 C563 1.265 . S
C569 H564 0.950 . S
C569 C570 1.478 . S
C570 C569 1.478 . S
C570 C571 1.397 . S
C570 C587 1.394 . S
C571 C570 1.397 . S
C571 C572 1.438 . S
C571 C576 1.429 . S
C572 C571 1.438 . S
C572 C573 1.428 . S
C572 C585 1.394 . S
C573 H565 0.949 . S
C573 C572 1.428 . S
C573 C574 1.345 . S
C574 H566 0.950 . S
C574 C573 1.345 . S
C574 C575 1.424 . S
C575 H567 0.951 . S
C575 C574 1.424 . S
C575 C576 1.347 . S
C576 H568 0.951 . S
C576 C571 1.429 . S
C576 C575 1.347 . S
H577 C578 0.951 . S
C578 H577 0.951 . S
C578 C584 1.265 . S
H579 C584 0.950 . S
H580 C588 0.949 . S
H581 C589 0.950 . S
H582 C590 0.951 . S
H583 C591 0.951 . S
C584 C578 1.265 . S
C584 H579 0.950 . S
C584 C585 1.478 . S
C585 C572 1.394 . S
C585 C584 1.478 . S
C585 C586 1.397 . S
C586 C585 1.397 . S
C586 C587 1.438 . S
C586 C591 1.429 . S
C587 C570 1.394 . S
C587 C586 1.438 . S
C587 C588 1.428 . S
C588 H580 0.949 . S
C588 C587 1.428 . S
C588 C589 1.345 . S
C589 H581 0.950 . S
C589 C588 1.345 . S
C589 C590 1.424 . S
C590 H582 0.951 . S
C590 C589 1.424 . S
C590 C591 1.347 . S
C591 H583 0.951 . S
C591 C586 1.429 . S
C591 C590 1.347 . S
C113 C13 0.930 . S
C128 C97 0.940 . S
C143 C27 0.858 . S
C158 C111 0.947 . S
C173 C69 0.779 . S
C188 C41 0.898 . S
C203 C83 0.760 . S
C218 C55 0.871 . S
C233 C11 1.337 . S
C248 C81 1.337 . S
C263 C25 1.366 . S
C278 C95 1.384 . S
C293 C109 1.349 1_556 S
C308 C39 1.380 . S
C323 C53 1.357 . S
C338 C67 1.332 . S
C353 C64 1.149 . S
C368 C8 1.270 . S
C383 C22 1.211 . S
C398 C78 1.154 . S
C413 C36 1.150 . S
C428 C92 1.270 . S
C443 C106 1.192 . S
C458 C50 1.167 . S
C473 C91 1.659 . S
C488 C7 1.660 . S
C503 C105 1.605 . S
C518 C21 1.642 . S
C533 C35 1.661 . S
C548 C63 1.658 . S
C563 C49 1.647 . S
C578 C77 1.610 . S
